# Generated by pormake.
# Topology whv, (6)-cn, num edge types: 1
# Building blocks:
#     Node 0, Type 0, BuildingBlock: OJICUG_clean_sbu_0, # of connection points: 6
#     Node 1, Type 0, BuildingBlock: OJICUG_clean_sbu_0, # of connection points: 6
#     Node 2, Type 0, BuildingBlock: OJICUG_clean_sbu_0, # of connection points: 6
#     Node 3, Type 0, BuildingBlock: OJICUG_clean_sbu_0, # of connection points: 6
#     Node 4, Type 0, BuildingBlock: OJICUG_clean_sbu_0, # of connection points: 6
#     Node 5, Type 0, BuildingBlock: OJICUG_clean_sbu_0, # of connection points: 6
#     Node 6, Type 0, BuildingBlock: OJICUG_clean_sbu_0, # of connection points: 6
#     Node 7, Type 0, BuildingBlock: OJICUG_clean_sbu_0, # of connection points: 6
#     Node 8, Type 0, BuildingBlock: OJICUG_clean_sbu_0, # of connection points: 6
#     Node 9, Type 0, BuildingBlock: OJICUG_clean_sbu_0, # of connection points: 6
#     Node 10, Type 0, BuildingBlock: OJICUG_clean_sbu_0, # of connection points: 6
#     Node 11, Type 0, BuildingBlock: OJICUG_clean_sbu_0, # of connection points: 6
#     Node 12, Type 0, BuildingBlock: OJICUG_clean_sbu_0, # of connection points: 6
#     Node 13, Type 0, BuildingBlock: OJICUG_clean_sbu_0, # of connection points: 6
#     Node 14, Type 0, BuildingBlock: OJICUG_clean_sbu_0, # of connection points: 6
#     Node 15, Type 0, BuildingBlock: OJICUG_clean_sbu_0, # of connection points: 6
#     Edge 16, Type (0, 0), BuildingBlock: ZUJKAS_clean_linker_0, # of connection points: 2
#     Edge 17, Type (0, 0), BuildingBlock: ZUJKAS_clean_linker_0, # of connection points: 2
#     Edge 18, Type (0, 0), BuildingBlock: ZUJKAS_clean_linker_0, # of connection points: 2
#     Edge 19, Type (0, 0), BuildingBlock: ZUJKAS_clean_linker_0, # of connection points: 2
#     Edge 20, Type (0, 0), BuildingBlock: ZUJKAS_clean_linker_0, # of connection points: 2
#     Edge 21, Type (0, 0), BuildingBlock: ZUJKAS_clean_linker_0, # of connection points: 2
#     Edge 22, Type (0, 0), BuildingBlock: ZUJKAS_clean_linker_0, # of connection points: 2
#     Edge 23, Type (0, 0), BuildingBlock: ZUJKAS_clean_linker_0, # of connection points: 2
#     Edge 24, Type (0, 0), BuildingBlock: ZUJKAS_clean_linker_0, # of connection points: 2
#     Edge 25, Type (0, 0), BuildingBlock: ZUJKAS_clean_linker_0, # of connection points: 2
#     Edge 26, Type (0, 0), BuildingBlock: ZUJKAS_clean_linker_0, # of connection points: 2
#     Edge 27, Type (0, 0), BuildingBlock: ZUJKAS_clean_linker_0, # of connection points: 2
#     Edge 28, Type (0, 0), BuildingBlock: ZUJKAS_clean_linker_0, # of connection points: 2
#     Edge 29, Type (0, 0), BuildingBlock: ZUJKAS_clean_linker_0, # of connection points: 2
#     Edge 30, Type (0, 0), BuildingBlock: ZUJKAS_clean_linker_0, # of connection points: 2
#     Edge 31, Type (0, 0), BuildingBlock: ZUJKAS_clean_linker_0, # of connection points: 2
#     Edge 32, Type (0, 0), BuildingBlock: ZUJKAS_clean_linker_0, # of connection points: 2
#     Edge 33, Type (0, 0), BuildingBlock: ZUJKAS_clean_linker_0, # of connection points: 2
#     Edge 34, Type (0, 0), BuildingBlock: ZUJKAS_clean_linker_0, # of connection points: 2
#     Edge 35, Type (0, 0), BuildingBlock: ZUJKAS_clean_linker_0, # of connection points: 2
#     Edge 36, Type (0, 0), BuildingBlock: ZUJKAS_clean_linker_0, # of connection points: 2
#     Edge 37, Type (0, 0), BuildingBlock: ZUJKAS_clean_linker_0, # of connection points: 2
#     Edge 38, Type (0, 0), BuildingBlock: ZUJKAS_clean_linker_0, # of connection points: 2
#     Edge 39, Type (0, 0), BuildingBlock: ZUJKAS_clean_linker_0, # of connection points: 2
#     Edge 40, Type (0, 0), BuildingBlock: ZUJKAS_clean_linker_0, # of connection points: 2
#     Edge 41, Type (0, 0), BuildingBlock: ZUJKAS_clean_linker_0, # of connection points: 2
#     Edge 42, Type (0, 0), BuildingBlock: ZUJKAS_clean_linker_0, # of connection points: 2
#     Edge 43, Type (0, 0), BuildingBlock: ZUJKAS_clean_linker_0, # of connection points: 2
#     Edge 44, Type (0, 0), BuildingBlock: ZUJKAS_clean_linker_0, # of connection points: 2
#     Edge 45, Type (0, 0), BuildingBlock: ZUJKAS_clean_linker_0, # of connection points: 2
#     Edge 46, Type (0, 0), BuildingBlock: ZUJKAS_clean_linker_0, # of connection points: 2
#     Edge 47, Type (0, 0), BuildingBlock: ZUJKAS_clean_linker_0, # of connection points: 2
#     Edge 48, Type (0, 0), BuildingBlock: ZUJKAS_clean_linker_0, # of connection points: 2
#     Edge 49, Type (0, 0), BuildingBlock: ZUJKAS_clean_linker_0, # of connection points: 2
#     Edge 50, Type (0, 0), BuildingBlock: ZUJKAS_clean_linker_0, # of connection points: 2
#     Edge 51, Type (0, 0), BuildingBlock: ZUJKAS_clean_linker_0, # of connection points: 2
#     Edge 52, Type (0, 0), BuildingBlock: ZUJKAS_clean_linker_0, # of connection points: 2
#     Edge 53, Type (0, 0), BuildingBlock: ZUJKAS_clean_linker_0, # of connection points: 2
#     Edge 54, Type (0, 0), BuildingBlock: ZUJKAS_clean_linker_0, # of connection points: 2
#     Edge 55, Type (0, 0), BuildingBlock: ZUJKAS_clean_linker_0, # of connection points: 2
#     Edge 56, Type (0, 0), BuildingBlock: ZUJKAS_clean_linker_0, # of connection points: 2
#     Edge 57, Type (0, 0), BuildingBlock: ZUJKAS_clean_linker_0, # of connection points: 2
#     Edge 58, Type (0, 0), BuildingBlock: ZUJKAS_clean_linker_0, # of connection points: 2
#     Edge 59, Type (0, 0), BuildingBlock: ZUJKAS_clean_linker_0, # of connection points: 2
#     Edge 60, Type (0, 0), BuildingBlock: ZUJKAS_clean_linker_0, # of connection points: 2
#     Edge 61, Type (0, 0), BuildingBlock: ZUJKAS_clean_linker_0, # of connection points: 2
#     Edge 62, Type (0, 0), BuildingBlock: ZUJKAS_clean_linker_0, # of connection points: 2
#     Edge 63, Type (0, 0), BuildingBlock: ZUJKAS_clean_linker_0, # of connection points: 2
# Relax obj value: 0.290
# Max RMSD: 0.262
# Mean RMSD: 0.262
data_MOF--net-whv--node1-OJICUG_clean_sbu_0--edge1-ZUJKAS_clean_linker_0
_symmetry_space_group_name_H-M    P1
_symmetry_Int_Tables_number       1
_symmetry_cell_setting            triclinic
loop_
_symmetry_equiv_pos_as_xyz
'x, y, z'
_cell_length_a     65.974414
_cell_length_b     65.90526
_cell_length_c     34.496361
_cell_angle_alpha  90.00102
_cell_angle_beta   90.082795
_cell_angle_gamma 89.987622
loop_
_atom_site_label
_atom_site_type_symbol
_atom_site_fract_x
_atom_site_fract_y
_atom_site_fract_z
_atom_type_partial_charge
Sc0 Sc 0.27518 0.20732 0.0133 0.0
Sc1 Sc 0.29483 0.15937 0.98963 0.0
Sc2 Sc 0.3203 0.19042 0.05703 0.0
O3 O 0.29673 0.18563 0.02014 0.0
C4 C 0.31603 0.23328 0.01639 0.0
C5 C 0.28083 0.19244 0.92719 0.0
C6 C 0.34185 0.16839 0.98501 0.0
C7 C 0.24896 0.16644 0.0122 0.0
C8 C 0.28274 0.2093 0.1037 0.0
C9 C 0.31134 0.14406 0.07235 0.0
O10 O 0.29714 0.23144 0.01005 0.0
O11 O 0.28602 0.17441 0.93593 0.0
O12 O 0.34248 0.17819 0.01685 0.0
O13 O 0.25052 0.18567 0.01369 0.0
O14 O 0.30096 0.20297 0.10183 0.0
O15 O 0.30394 0.14095 0.03874 0.0
O16 O 0.27138 0.21092 0.07419 0.0
O17 O 0.26391 0.15475 0.00606 0.0
O18 O 0.31671 0.1615 0.08408 0.0
O19 O 0.27719 0.20606 0.95202 0.0
O20 O 0.32653 0.2196 0.0327 0.0
O21 O 0.3255 0.16159 0.97062 0.0
Sc22 Sc 0.55431 0.57626 0.29828 0.0
Sc23 Sc 0.58186 0.54946 0.22985 0.0
Sc24 Sc 0.53473 0.53262 0.25745 0.0
O25 O 0.55704 0.5528 0.26216 0.0
C26 C 0.5355 0.53893 0.34597 0.0
C27 C 0.59948 0.56652 0.31025 0.0
C28 C 0.57476 0.50513 0.24951 0.0
C29 C 0.57525 0.59566 0.22293 0.0
C30 C 0.51078 0.57429 0.2646 0.0
C31 C 0.54628 0.5364 0.17215 0.0
O32 O 0.5389 0.55792 0.34201 0.0
O33 O 0.60169 0.56207 0.27448 0.0
O34 O 0.55563 0.50756 0.24625 0.0
O35 O 0.56964 0.59698 0.2583 0.0
O36 O 0.51093 0.55497 0.26585 0.0
O37 O 0.56511 0.53645 0.18076 0.0
O38 O 0.52639 0.58486 0.27186 0.0
O39 O 0.57749 0.5788 0.20562 0.0
O40 O 0.53252 0.53875 0.1973 0.0
O41 O 0.58221 0.56877 0.32577 0.0
O42 O 0.53628 0.52652 0.31784 0.0
O43 O 0.58679 0.52 0.25342 0.0
Sc44 Sc 0.16486 0.8053 0.54749 0.0
Sc45 Sc 0.18524 0.83181 0.46934 0.0
Sc46 Sc 0.20669 0.78629 0.49885 0.0
O47 O 0.18563 0.8079 0.50525 0.0
C48 C 0.20542 0.78872 0.58812 0.0
C49 C 0.17563 0.85106 0.55316 0.0
C50 C 0.23173 0.82674 0.47949 0.0
C51 C 0.13897 0.82522 0.47832 0.0
C52 C 0.1665 0.76105 0.51702 0.0
C53 C 0.19505 0.79445 0.41291 0.0
O54 O 0.18625 0.79136 0.58776 0.0
O55 O 0.17764 0.85267 0.51642 0.0
O56 O 0.2304 0.80749 0.48194 0.0
O57 O 0.14075 0.8195 0.51349 0.0
O58 O 0.18569 0.76214 0.51326 0.0
O59 O 0.19291 0.81351 0.4183 0.0
O60 O 0.15565 0.77631 0.52579 0.0
O61 O 0.15407 0.82711 0.45592 0.0
O62 O 0.198 0.78198 0.44029 0.0
O63 O 0.17334 0.83411 0.57015 0.0
O64 O 0.21608 0.78944 0.55758 0.0
O65 O 0.21635 0.83826 0.48024 0.0
Sc66 Sc 0.95048 0.46927 0.75737 0.0
Sc67 Sc 0.90992 0.43828 0.72823 0.0
Sc68 Sc 0.94418 0.4208 0.79935 0.0
O69 O 0.93478 0.4428 0.76184 0.0
C70 C 0.98532 0.43555 0.76057 0.0
C71 C 0.93971 0.46017 0.66917 0.0
C72 C 0.92876 0.39385 0.72809 0.0
C73 C 0.90524 0.48513 0.75113 0.0
C74 C 0.95381 0.46105 0.84786 0.0
C75 C 0.89633 0.4204 0.81071 0.0
O76 O 0.97881 0.45318 0.75201 0.0
O77 O 0.92551 0.44757 0.67571 0.0
O78 O 0.93888 0.39605 0.75918 0.0
O79 O 0.92368 0.48783 0.76056 0.0
O80 O 0.95078 0.44205 0.84542 0.0
O81 O 0.89235 0.42783 0.77739 0.0
O82 O 0.95383 0.47262 0.81855 0.0
O83 O 0.89847 0.46833 0.73852 0.0
O84 O 0.91431 0.41736 0.8228 0.0
O85 O 0.94916 0.46948 0.69571 0.0
O86 O 0.97467 0.42235 0.77807 0.0
O87 O 0.91808 0.40792 0.71362 0.0
Sc88 Sc 0.70681 0.78898 0.02327 0.0
Sc89 Sc 0.68527 0.83517 0.04807 0.0
Sc90 Sc 0.65997 0.80248 0.98395 0.0
O91 O 0.68399 0.80898 0.01809 0.0
C92 C 0.69844 0.78769 0.93431 0.0
C93 C 0.73035 0.83182 0.02533 0.0
C94 C 0.66467 0.849 0.96745 0.0
C95 C 0.70224 0.80246 0.10869 0.0
C96 C 0.6683 0.75967 0.02006 0.0
C97 C 0.63993 0.8221 0.05963 0.0
O98 O 0.71092 0.78868 0.9623 0.0
O99 O 0.71438 0.84254 0.0253 0.0
O100 O 0.66154 0.83107 0.95563 0.0
O101 O 0.70317 0.78824 0.08413 0.0
O102 O 0.656 0.77339 0.00968 0.0
O103 O 0.65645 0.82912 0.07285 0.0
O104 O 0.68735 0.76251 0.02167 0.0
O105 O 0.69893 0.82092 0.0994 0.0
O106 O 0.63821 0.81408 0.02611 0.0
O107 O 0.72985 0.81252 0.02795 0.0
O108 O 0.67936 0.79024 0.93839 0.0
O109 O 0.67174 0.8529 0.00111 0.0
Sc110 Sc 0.45553 0.45355 0.78403 0.0
Sc111 Sc 0.40807 0.43336 0.80204 0.0
Sc112 Sc 0.4401 0.40996 0.73529 0.0
O113 O 0.43448 0.43239 0.77325 0.0
C114 C 0.4591 0.44941 0.6943 0.0
C115 C 0.41365 0.47888 0.78487 0.0
C116 C 0.39461 0.41673 0.71794 0.0
C117 C 0.43975 0.44637 0.86709 0.0
C118 C 0.48203 0.41316 0.77786 0.0
C119 C 0.41829 0.38738 0.80595 0.0
O120 O 0.45791 0.46064 0.72411 0.0
O121 O 0.40222 0.46344 0.78185 0.0
O122 O 0.41252 0.41555 0.70482 0.0
O123 O 0.45459 0.44693 0.844 0.0
O124 O 0.46783 0.40249 0.76377 0.0
O125 O 0.41333 0.40357 0.82346 0.0
O126 O 0.4807 0.43235 0.78155 0.0
O127 O 0.42142 0.44516 0.85565 0.0
O128 O 0.42547 0.38713 0.7716 0.0
O129 O 0.43279 0.47748 0.78998 0.0
O130 O 0.45519 0.43043 0.69496 0.0
O131 O 0.39086 0.42118 0.75321 0.0
Sc132 Sc 0.83021 0.19238 0.49007 0.0
Sc133 Sc 0.79566 0.15972 0.53365 0.0
Sc134 Sc 0.78843 0.2115 0.53959 0.0
O135 O 0.80488 0.18791 0.52081 0.0
C136 C 0.83361 0.22833 0.54923 0.0
C137 C 0.84198 0.15681 0.5501 0.0
C138 C 0.78432 0.18444 0.61064 0.0
C139 C 0.8147 0.15339 0.44895 0.0
C140 C 0.79854 0.22462 0.45478 0.0
C141 C 0.75447 0.17819 0.51729 0.0
O142 O 0.84178 0.21367 0.53131 0.0
O143 O 0.82391 0.15358 0.56147 0.0
O144 O 0.79115 0.20109 0.59776 0.0
O145 O 0.82119 0.17142 0.44607 0.0
O146 O 0.78565 0.22288 0.48198 0.0
O147 O 0.76737 0.16526 0.50573 0.0
O148 O 0.81595 0.21609 0.45547 0.0
O149 O 0.80705 0.14653 0.48018 0.0
O150 O 0.75984 0.19485 0.53326 0.0
O151 O 0.8463 0.16876 0.52207 0.0
O152 O 0.81449 0.23081 0.55047 0.0
O153 O 0.78244 0.16875 0.58928 0.0
Sc154 Sc 0.06033 0.57414 0.24799 0.0
Sc155 Sc 0.09276 0.54539 0.30542 0.0
Sc156 Sc 0.04405 0.52825 0.28651 0.0
O157 O 0.06572 0.5492 0.27961 0.0
C158 C 0.01942 0.56987 0.2931 0.0
C159 C 0.08446 0.59086 0.3221 0.0
C160 C 0.06229 0.52767 0.36878 0.0
C161 C 0.10484 0.56674 0.22485 0.0
C162 C 0.03807 0.5391 0.19923 0.0
C163 C 0.08497 0.50192 0.27651 0.0
O164 O 0.03386 0.58076 0.28071 0.0
O165 O 0.08905 0.57346 0.33535 0.0
O166 O 0.04679 0.52992 0.34763 0.0
O167 O 0.08668 0.56913 0.2137 0.0
O168 O 0.03974 0.52573 0.22553 0.0
O169 O 0.09684 0.5171 0.27635 0.0
O170 O 0.04302 0.55762 0.20443 0.0
O171 O 0.10932 0.56061 0.25889 0.0
O172 O 0.06603 0.50345 0.28386 0.0
O173 O 0.07691 0.59354 0.28837 0.0
O174 O 0.01982 0.55053 0.29196 0.0
O175 O 0.08031 0.52968 0.35612 0.0
Sc176 Sc 0.78785 0.71041 0.50145 0.0
Sc177 Sc 0.80414 0.66233 0.47783 0.0
Sc178 Sc 0.82936 0.68992 0.54894 0.0
O179 O 0.80722 0.68754 0.50951 0.0
C180 C 0.82996 0.73333 0.51398 0.0
C181 C 0.79429 0.69774 0.41696 0.0
C182 C 0.8508 0.66696 0.47748 0.0
C183 C 0.75934 0.67136 0.49361 0.0
C184 C 0.79107 0.71034 0.59076 0.0
C185 C 0.81656 0.64515 0.56134 0.0
O186 O 0.8107 0.73351 0.51129 0.0
O187 O 0.79395 0.67895 0.42608 0.0
O188 O 0.85103 0.67367 0.51227 0.0
O189 O 0.76229 0.69034 0.48915 0.0
O190 O 0.80999 0.70623 0.58973 0.0
O191 O 0.81356 0.64254 0.52515 0.0
O192 O 0.77982 0.70989 0.56091 0.0
O193 O 0.77377 0.65881 0.4972 0.0
O194 O 0.81993 0.66243 0.57618 0.0
O195 O 0.7957 0.71171 0.44198 0.0
O196 O 0.83983 0.71756 0.52352 0.0
O197 O 0.83454 0.6648 0.45814 0.0
Sc198 Sc 0.04292 0.07517 0.79453 0.0
Sc199 Sc 0.0804 0.06142 0.72663 0.0
Sc200 Sc 0.0415 0.02724 0.74908 0.0
O201 O 0.05499 0.05462 0.75696 0.0
C202 C 0.03422 0.03371 0.83925 0.0
C203 C 0.09028 0.07741 0.81216 0.0
C204 C 0.08748 0.01439 0.74653 0.0
C205 C 0.05858 0.10453 0.72754 0.0
C206 C 0.00438 0.0584 0.74902 0.0
C207 C 0.05458 0.03876 0.66299 0.0
O208 O 0.03681 0.05279 0.83855 0.0
O209 O 0.09592 0.07083 0.77907 0.0
O210 O 0.06934 0.01066 0.75676 0.0
O211 O 0.04722 0.10095 0.75644 0.0
O212 O 0.01256 0.04167 0.73915 0.0
O213 O 0.06658 0.05313 0.67182 0.0
O214 O 0.01324 0.07164 0.76987 0.0
O215 O 0.07115 0.09172 0.71454 0.0
O216 O 0.04587 0.02769 0.68793 0.0
O217 O 0.0718 0.07995 0.82149 0.0
O218 O 0.03533 0.02278 0.80915 0.0
O219 O 0.09303 0.0316 0.7338 0.0
Sc220 Sc 0.66448 0.29821 0.05782 0.0
Sc221 Sc 0.68374 0.31916 0.9733 0.0
Sc222 Sc 0.70847 0.27875 0.01762 0.0
O223 O 0.68572 0.29883 0.01625 0.0
C224 C 0.70471 0.28755 0.10522 0.0
C225 C 0.67148 0.34413 0.05026 0.0
C226 C 0.73042 0.31958 0.98904 0.0
C227 C 0.63833 0.31 0.98288 0.0
C228 C 0.66914 0.25263 0.03741 0.0
C229 C 0.69791 0.27879 0.92919 0.0
O230 O 0.68545 0.28836 0.10287 0.0
O231 O 0.67318 0.34283 0.01336 0.0
O232 O 0.73083 0.30081 -0.00187 0.0
O233 O 0.64011 0.30854 0.01956 0.0
O234 O 0.68842 0.25429 0.03589 0.0
O235 O 0.69354 0.29767 0.92863 0.0
O236 O 0.65749 0.26774 0.04261 0.0
O237 O 0.65352 0.31013 0.9605 0.0
O238 O 0.70218 0.26931 0.96006 0.0
O239 O 0.67133 0.32873 0.07239 0.0
O240 O 0.71597 0.28693 0.07555 0.0
O241 O 0.71403 0.3292 0.98305 0.0
Sc242 Sc 0.46351 0.95912 0.25328 0.0
Sc243 Sc 0.42303 0.93175 0.21476 0.0
Sc244 Sc 0.44549 0.91617 0.30125 0.0
O245 O 0.44395 0.93583 0.25654 0.0
C246 C 0.49103 0.9211 0.27753 0.0
C247 C 0.46143 0.94631 0.16575 0.0
C248 C 0.43487 0.88708 0.22946 0.0
C249 C 0.42103 0.97888 0.22742 0.0
C250 C 0.45642 0.95835 0.34272 0.0
C251 C 0.39917 0.92075 0.29359 0.0
O252 O 0.48897 0.93988 0.26928 0.0
O253 O 0.44295 0.94077 0.16721 0.0
O254 O 0.43668 0.89003 0.26585 0.0
O255 O 0.43985 0.98032 0.23575 0.0
O256 O 0.45409 0.93917 0.34357 0.0
O257 O 0.40023 0.92168 0.25663 0.0
O258 O 0.45789 0.96818 0.31135 0.0
O259 O 0.41222 0.96199 0.22172 0.0
O260 O 0.41466 0.92181 0.31536 0.0
O261 O 0.47123 0.95206 0.19526 0.0
O262 O 0.47635 0.90987 0.28788 0.0
O263 O 0.43303 0.90148 0.20539 0.0
Sc264 Sc 0.19871 0.28162 0.54654 0.0
Sc265 Sc 0.19368 0.33351 0.54939 0.0
Sc266 Sc 0.15979 0.30477 0.49524 0.0
O267 O 0.18398 0.30661 0.52992 0.0
C268 C 0.19154 0.27298 0.45881 0.0
C269 C 0.23446 0.31423 0.53359 0.0
C270 C 0.17816 0.34475 0.46403 0.0
C271 C 0.20102 0.30462 0.62244 0.0
C272 C 0.15272 0.26666 0.54761 0.0
C273 C 0.14724 0.33741 0.56048 0.0
O274 O 0.20345 0.27308 0.48783 0.0
O275 O 0.22243 0.32827 0.52332 0.0
O276 O 0.17174 0.32705 0.45661 0.0
O277 O 0.19359 0.28934 0.60543 0.0
O278 O 0.14579 0.28244 0.5313 0.0
O279 O 0.16489 0.3389 0.57511 0.0
O280 O 0.17164 0.26305 0.55013 0.0
O281 O 0.20502 0.32104 0.60439 0.0
O282 O 0.14357 0.32769 0.52909 0.0
O283 O 0.22807 0.29733 0.54708 0.0
O284 O 0.17433 0.28195 0.45873 0.0
O285 O 0.18417 0.34995 0.4977 0.0
Sc286 Sc 0.94903 0.97114 0.28132 0.0
Sc287 Sc 0.9017 0.94966 0.30452 0.0
Sc288 Sc 0.93691 0.92199 0.24864 0.0
O289 O 0.92916 0.94763 0.27806 0.0
C290 C 0.95653 0.9559 0.1949 0.0
C291 C 0.90715 0.99425 0.26906 0.0
C292 C 0.89072 0.92764 0.22429 0.0
C293 C 0.92987 0.97193 0.36583 0.0
C294 C 0.97737 0.93243 0.2952 0.0
C295 C 0.91352 0.90374 0.32184 0.0
O296 O 0.95754 0.96895 0.22181 0.0
O297 O 0.89672 0.97981 0.28315 0.0
O298 O 0.90853 0.92099 0.21855 0.0
O299 O 0.94303 0.97668 0.34083 0.0
O300 O 0.9659 0.92047 0.27638 0.0
O301 O 0.90384 0.91992 0.3292 0.0
O302 O 0.9734 0.9512 0.29976 0.0
O303 O 0.91427 0.96131 0.35831 0.0
O304 O 0.92576 0.90219 0.29359 0.0
O305 O 0.92633 0.9933 0.265 0.0
O306 O 0.9492 0.93828 0.19985 0.0
O307 O 0.88592 0.93811 0.25397 0.0
Sc308 Sc 0.33076 0.68964 0.98215 0.0
Sc309 Sc 0.29986 0.65985 0.04077 0.0
Sc310 Sc 0.28846 0.7103 0.02749 0.0
O311 O 0.30644 0.6866 0.0163 0.0
C312 C 0.33215 0.73096 0.02744 0.0
C313 C 0.34637 0.66277 0.05424 0.0
C314 C 0.28789 0.69125 0.10759 0.0
C315 C 0.31824 0.64589 0.95894 0.0
C316 C 0.29581 0.71498 0.93847 0.0
C317 C 0.25715 0.6729 0.02055 0.0
O318 O 0.34113 0.71557 0.01367 0.0
O319 O 0.3288 0.65946 0.06805 0.0
O320 O 0.29328 0.70652 0.08793 0.0
O321 O 0.3228 0.66369 0.94804 0.0
O322 O 0.28371 0.71505 0.96715 0.0
O323 O 0.27087 0.65994 0.01339 0.0
O324 O 0.31395 0.70818 0.94055 0.0
O325 O 0.31186 0.64206 0.99298 0.0
O326 O 0.26133 0.69117 0.03007 0.0
O327 O 0.3493 0.67135 0.02141 0.0
O328 O 0.31292 0.73226 0.02902 0.0
O329 O 0.28654 0.67357 0.09277 0.0
Sc330 Sc 0.5502 0.08518 0.73666 0.0
Sc331 Sc 0.5845 0.05227 0.78144 0.0
Sc332 Sc 0.53393 0.03954 0.77653 0.0
O333 O 0.55623 0.05914 0.76438 0.0
C334 C 0.511 0.08171 0.78743 0.0
C335 C 0.58058 0.09787 0.80571 0.0
C336 C 0.55732 0.03655 0.85226 0.0
C337 C 0.59298 0.07626 0.70189 0.0
C338 C 0.52442 0.05113 0.69072 0.0
C339 C 0.57187 0.01001 0.75891 0.0
O340 O 0.52543 0.09221 0.77398 0.0
O341 O 0.58608 0.0798 0.81336 0.0
O342 O 0.54076 0.04177 0.83655 0.0
O343 O 0.57465 0.08141 0.69684 0.0
O344 O 0.52643 0.03758 0.71673 0.0
O345 O 0.58353 0.02453 0.74972 0.0
O346 O 0.53062 0.06943 0.69498 0.0
O347 O 0.59895 0.06694 0.73217 0.0
O348 O 0.55403 0.01326 0.77181 0.0
O349 O 0.56928 0.10243 0.77678 0.0
O350 O 0.51084 0.06245 0.78564 0.0
O351 O 0.57411 0.0365 0.83387 0.0
H352 H 0.21425 0.18276 0.98347 0.0
H353 H 0.1837 0.16424 0.96582 0.0
H354 H 0.20709 0.11061 0.02218 0.0
H355 H 0.23826 0.1289 0.03808 0.0
H356 H 0.19847 0.10197 0.95239 0.0
H357 H 0.13257 0.14337 0.00931 0.0
H358 H 0.14841 0.16085 0.98372 0.0
H359 H 0.15793 0.14831 0.02656 0.0
C360 C 0.21256 0.16725 0.99335 0.0
C361 C 0.22864 0.15719 0.01183 0.0
C362 C 0.19499 0.15666 0.98343 0.0
C363 C 0.19298 0.13601 0.99284 0.0
C364 C 0.20831 0.1265 0.01451 0.0
H365 H 0.08579 0.07847 0.8906 0.0
H366 H 0.11063 0.08935 0.93886 0.0
C367 C 0.22608 0.13696 0.02366 0.0
C368 C 0.17683 0.12371 0.97428 0.0
H369 H 0.12696 0.12492 0.94847 0.0
C370 C 0.18273 0.10674 0.95236 0.0
C371 C 0.15621 0.12959 0.97456 0.0
C372 C 0.14843 0.1464 0.00022 0.0
C373 C 0.16889 0.09633 0.92886 0.0
C374 C 0.14877 0.10356 0.92602 0.0
C375 C 0.14252 0.11965 0.9499 0.0
C376 C 0.13431 0.09541 0.89708 0.0
C377 C 0.1761 0.07784 0.90703 0.0
C378 C 0.13939 0.09511 0.85752 0.0
C379 C 0.12534 0.08858 0.8299 0.0
C380 C 0.10577 0.08275 0.8413 0.0
C381 C 0.10074 0.08298 0.88092 0.0
C382 C 0.1149 0.08918 0.90855 0.0
H383 H 0.18863 0.07014 0.92277 0.0
H384 H 0.16365 0.06676 0.90245 0.0
H385 H 0.18204 0.08258 0.87835 0.0
H386 H 0.15406 0.10043 0.84784 0.0
H387 H 0.12955 0.08879 0.79957 0.0
H388 H 0.68026 0.35584 0.12373 0.0
H389 H 0.66487 0.38388 0.15935 0.0
H390 H 0.6353 0.40425 0.05481 0.0
H391 H 0.65083 0.37617 0.01866 0.0
H392 H 0.65071 0.4361 0.10599 0.0
H393 H 0.60284 0.37906 0.18121 0.0
H394 H 0.62963 0.3743 0.1838 0.0
H395 H 0.61693 0.37333 0.13772 0.0
C396 C 0.67087 0.36657 0.10809 0.0
C397 C 0.66653 0.36372 0.06854 0.0
C398 C 0.66202 0.38248 0.12853 0.0
C399 C 0.64858 0.39572 0.10985 0.0
C400 C 0.64553 0.394 0.06969 0.0
H401 H 0.55703 0.47347 0.21094 0.0
H402 H 0.57478 0.44547 0.17914 0.0
C403 C 0.6545 0.37808 0.04906 0.0
C404 C 0.63664 0.41028 0.13293 0.0
H405 H 0.60097 0.4129 0.20445 0.0
C406 C 0.63981 0.43109 0.12746 0.0
C407 C 0.6222 0.40358 0.16043 0.0
C408 C 0.6175 0.38136 0.16602 0.0
C409 C 0.62923 0.44545 0.14959 0.0
C410 C 0.61539 0.43873 0.17817 0.0
C411 C 0.61184 0.41793 0.18292 0.0
C412 C 0.60418 0.45323 0.20269 0.0
C413 C 0.63277 0.46772 0.14192 0.0
C414 C 0.61468 0.466 0.22824 0.0
C415 C 0.60461 0.48193 0.24655 0.0
C416 C 0.58386 0.4853 0.23965 0.0
C417 C 0.57301 0.47128 0.21692 0.0
C418 C 0.58314 0.45536 0.1985 0.0
H419 H 0.64021 0.4703 0.11347 0.0
H420 H 0.61825 0.47626 0.14252 0.0
H421 H 0.64276 0.474 0.16487 0.0
H422 H 0.63086 0.46425 0.23246 0.0
H423 H 0.61335 0.49234 0.26424 0.0
H424 H 0.36601 0.9022 0.26142 0.0
H425 H 0.33696 0.88806 0.29633 0.0
H426 H 0.35962 0.91343 0.40319 0.0
H427 H 0.38873 0.92735 0.36878 0.0
H428 H 0.35234 0.87221 0.40753 0.0
H429 H 0.28624 0.913 0.34521 0.0
H430 H 0.30274 0.90177 0.30981 0.0
H431 H 0.31193 0.92204 0.33995 0.0
C432 C 0.3645 0.90523 0.29214 0.0
C433 C 0.3797 0.91577 0.3124 0.0
C434 C 0.34791 0.89713 0.31205 0.0
C435 C 0.34618 0.89972 0.35232 0.0
C436 C 0.36075 0.91121 0.37214 0.0
H437 H 0.24252 0.86618 0.49045 0.0
H438 H 0.27191 0.88353 0.4633 0.0
C439 C 0.37734 0.91918 0.35239 0.0
C440 C 0.33026 0.88904 0.37446 0.0
H441 H 0.27912 0.88431 0.38464 0.0
C442 C 0.33631 0.87492 0.40271 0.0
C443 C 0.30943 0.89273 0.36822 0.0
C444 C 0.30213 0.90834 0.33941 0.0
C445 C 0.32202 0.8642 0.42471 0.0
C446 C 0.30118 0.8675 0.41776 0.0
C447 C 0.29514 0.88177 0.38978 0.0
C448 C 0.28524 0.85638 0.43905 0.0
C449 C 0.32933 0.84967 0.4555 0.0
C450 C 0.28339 0.83523 0.43549 0.0
C451 C 0.26666 0.8252 0.4513 0.0
C452 C 0.25142 0.83626 0.47037 0.0
C453 C 0.25394 0.85727 0.47569 0.0
C454 C 0.27069 0.86722 0.46013 0.0
H455 H 0.34525 0.85285 0.46411 0.0
H456 H 0.3196 0.85045 0.48169 0.0
H457 H 0.32867 0.83396 0.44401 0.0
H458 H 0.29432 0.82664 0.41882 0.0
H459 H 0.26504 0.80905 0.44643 0.0
H460 H 0.83057 0.60744 0.5436 0.0
H461 H 0.83767 0.57986 0.58878 0.0
H462 H 0.81203 0.61501 0.6823 0.0
H463 H 0.806 0.64311 0.63744 0.0
H464 H 0.84587 0.60153 0.70455 0.0
H465 H 0.80638 0.53656 0.63939 0.0
H466 H 0.82245 0.54751 0.60329 0.0
H467 H 0.80182 0.56219 0.62322 0.0
C468 C 0.82604 0.60907 0.57362 0.0
C469 C 0.81779 0.62737 0.5871 0.0
C470 C 0.82995 0.59323 0.59944 0.0
C471 C 0.82506 0.59515 0.63895 0.0
C472 C 0.81591 0.61312 0.65201 0.0
H473 H 0.86409 0.48537 0.75912 0.0
H474 H 0.84112 0.51339 0.74367 0.0
C475 C 0.81245 0.62915 0.62637 0.0
C476 C 0.83171 0.57943 0.66704 0.0
H477 H 0.83685 0.52829 0.677 0.0
C478 C 0.84345 0.58551 0.69904 0.0
C479 C 0.82813 0.55852 0.66091 0.0
C480 C 0.81378 0.55089 0.63007 0.0
C481 C 0.85303 0.57124 0.72301 0.0
C482 C 0.85155 0.55039 0.71374 0.0
C483 C 0.83843 0.54428 0.68379 0.0
C484 C 0.86507 0.53491 0.73136 0.0
C485 C 0.86489 0.57879 0.75755 0.0
C486 C 0.88618 0.53785 0.73104 0.0
C487 C 0.89928 0.52203 0.74081 0.0
C488 C 0.89154 0.50278 0.74988 0.0
C489 C 0.87044 0.50007 0.75209 0.0
C490 C 0.85732 0.51605 0.74319 0.0
H491 H 0.8576 0.59248 0.77017 0.0
H492 H 0.8662 0.56705 0.78049 0.0
H493 H 0.88032 0.58327 0.74808 0.0
H494 H 0.89264 0.55196 0.72083 0.0
H495 H 0.91546 0.52448 0.73833 0.0
H496 H 0.76746 0.81544 0.0429 0.0
H497 H 0.79706 0.83392 0.06682 0.0
H498 H 0.76715 0.89075 0.04314 0.0
H499 H 0.73763 0.87253 0.01858 0.0
H500 H 0.81021 0.89124 0.03049 0.0
H501 H 0.78794 0.86064 0.1745 0.0
H502 H 0.79261 0.84179 0.13795 0.0
H503 H 0.77168 0.85901 0.13253 0.0
C504 C 0.76738 0.83186 0.04163 0.0
C505 C 0.74997 0.84249 0.02962 0.0
C506 C 0.78427 0.84239 0.05553 0.0
C507 C 0.784 0.86364 0.05763 0.0
C508 C 0.76753 0.87432 0.04206 0.0
H509 H 0.84967 0.93419 0.22912 0.0
H510 H 0.82342 0.92115 0.18557 0.0
C511 C 0.75066 0.86384 0.02811 0.0
C512 C 0.79956 0.87464 0.0802 0.0
H513 H 0.81768 0.88045 0.17218 0.0
C514 C 0.81192 0.88889 0.06145 0.0
C515 C 0.80131 0.8719 0.12074 0.0
C516 C 0.78758 0.85766 0.1428 0.0
C517 C 0.82641 0.90016 0.08216 0.0
C518 C 0.82862 0.89687 0.12248 0.0
C519 C 0.81597 0.88291 0.14125 0.0
C520 C 0.84448 0.90705 0.14578 0.0
C521 C 0.83901 0.91566 0.06087 0.0
C522 C 0.86498 0.90362 0.13755 0.0
C523 C 0.87999 0.91102 0.16229 0.0
C524 C 0.87479 0.92188 0.19602 0.0
C525 C 0.85423 0.9259 0.20347 0.0
C526 C 0.8392 0.91846 0.17863 0.0
H527 H 0.83159 0.92053 0.03348 0.0
H528 H 0.8418 0.92924 0.07916 0.0
H529 H 0.85388 0.90885 0.05337 0.0
H530 H 0.86938 0.89451 0.11281 0.0
H531 H 0.89566 0.90766 0.15552 0.0
H532 H 0.37701 0.49043 0.75525 0.0
H533 H 0.35813 0.52134 0.77043 0.0
H534 H 0.40837 0.54269 0.83951 0.0
H535 H 0.42759 0.51231 0.82308 0.0
H536 H 0.34521 0.53118 0.83818 0.0
H537 H 0.39326 0.59425 0.78801 0.0
H538 H 0.39778 0.56837 0.77327 0.0
H539 H 0.40775 0.57775 0.81859 0.0
C540 C 0.38424 0.50201 0.77276 0.0
C541 C 0.4038 0.49896 0.78793 0.0
C542 C 0.37341 0.51964 0.78149 0.0
C543 C 0.38184 0.53449 0.80585 0.0
C544 C 0.4017 0.53181 0.81976 0.0
H545 H 0.32414 0.60609 0.97769 0.0
H546 H 0.33679 0.57923 0.93568 0.0
C547 C 0.41267 0.51434 0.81047 0.0
C548 C 0.36915 0.55146 0.82052 0.0
H549 H 0.37015 0.6021 0.84073 0.0
C550 C 0.35051 0.54676 0.83802 0.0
C551 C 0.37574 0.57188 0.81977 0.0
C552 C 0.39462 0.57836 0.79847 0.0
C553 C 0.33888 0.56167 0.85661 0.0
C554 C 0.34643 0.58173 0.85899 0.0
C555 C 0.36447 0.58667 0.83956 0.0
C556 C 0.33666 0.59748 0.88344 0.0
C557 C 0.31869 0.55569 0.87365 0.0
C558 C 0.33254 0.61683 0.86831 0.0
C559 C 0.32568 0.63238 0.89252 0.0
C560 C 0.32268 0.62885 0.93233 0.0
C561 C 0.32602 0.60926 0.94709 0.0
C562 C 0.33317 0.59381 0.92299 0.0
H563 H 0.31183 0.5429 0.85725 0.0
H564 H 0.32096 0.5505 0.90395 0.0
H565 H 0.30785 0.56858 0.87368 0.0
H566 H 0.33516 0.62005 0.83793 0.0
H567 H 0.32322 0.64731 0.88024 0.0
H568 H 0.58658 0.10216 0.64126 0.0
H569 H 0.6119 0.11906 0.60178 0.0
H570 H 0.65913 0.08454 0.65786 0.0
H571 H 0.63381 0.06799 0.69889 0.0
H572 H 0.66784 0.12345 0.65857 0.0
H573 H 0.64448 0.1033 0.50949 0.0
H574 H 0.62406 0.11454 0.53614 0.0
H575 H 0.63443 0.09056 0.55156 0.0
C576 C 0.6023 0.09778 0.64482 0.0
C577 C 0.60813 0.08371 0.67349 0.0
C578 C 0.61679 0.10743 0.62189 0.0
C579 C 0.63742 0.10293 0.62642 0.0
C580 C 0.64327 0.08823 0.65379 0.0
H581 H 0.73774 0.14333 0.48859 0.0
H582 H 0.70731 0.1267 0.51245 0.0
C583 C 0.62877 0.07872 0.67715 0.0
C584 C 0.65294 0.11497 0.60539 0.0
H585 H 0.66722 0.1315 0.51561 0.0
C586 C 0.66778 0.12508 0.62727 0.0
C587 C 0.65292 0.11705 0.56453 0.0
C588 C 0.63824 0.10561 0.53906 0.0
C589 C 0.68255 0.13723 0.60958 0.0
C590 C 0.68204 0.13998 0.56885 0.0
C591 C 0.6673 0.12976 0.54688 0.0
C592 C 0.69787 0.15187 0.54844 0.0
C593 C 0.69894 0.14643 0.63468 0.0
C594 C 0.70193 0.17211 0.55856 0.0
C595 C 0.71954 0.18166 0.54529 0.0
C596 C 0.73322 0.17116 0.52129 0.0
C597 C 0.72775 0.15179 0.50755 0.0
C598 C 0.71031 0.14221 0.52117 0.0
H599 H 0.70006 0.13875 0.66328 0.0
H600 H 0.71395 0.14553 0.62026 0.0
H601 H 0.6954 0.16264 0.64005 0.0
H602 H 0.69213 0.1801 0.57856 0.0
H603 H 0.72313 0.19666 0.55615 0.0
H604 H 0.17674 0.3388 0.38577 0.0
H605 H 0.16678 0.36347 0.33637 0.0
H606 H 0.16298 0.40994 0.42422 0.0
H607 H 0.17369 0.3856 0.47331 0.0
H608 H 0.13177 0.38073 0.33248 0.0
H609 H 0.18842 0.44184 0.33991 0.0
H610 H 0.19268 0.41741 0.36215 0.0
H611 H 0.17896 0.43699 0.38763 0.0
C612 C 0.17434 0.35444 0.39433 0.0
C613 C 0.17596 0.36028 0.43343 0.0
C614 C 0.16861 0.3685 0.36607 0.0
C615 C 0.16428 0.38863 0.37641 0.0
C616 C 0.16678 0.39468 0.41521 0.0
H617 H 0.07181 0.4675 0.31199 0.0
H618 H 0.09193 0.43739 0.3255 0.0
C619 C 0.17281 0.3807 0.44338 0.0
C620 C 0.15472 0.40262 0.34806 0.0
H621 H 0.15444 0.45209 0.31954 0.0
C622 C 0.13701 0.39622 0.3289 0.0
C623 C 0.16173 0.42267 0.34241 0.0
C624 C 0.18164 0.43001 0.35881 0.0
C625 C 0.12534 0.40975 0.3068 0.0
C626 C 0.13116 0.43037 0.30487 0.0
C627 C 0.14969 0.43637 0.32146 0.0
C628 C 0.11742 0.44641 0.28985 0.0
C629 C 0.10672 0.40181 0.28641 0.0
C630 C 0.12482 0.46148 0.26483 0.0
C631 C 0.11346 0.47899 0.25776 0.0
C632 C 0.09441 0.48162 0.27528 0.0
C633 C 0.0863 0.46579 0.29763 0.0
C634 C 0.09781 0.44846 0.30526 0.0
H635 H 0.10898 0.38584 0.27703 0.0
H636 H 0.09373 0.40198 0.30683 0.0
H637 H 0.10278 0.4111 0.26063 0.0
H638 H 0.13988 0.46025 0.25257 0.0
H639 H 0.12006 0.49096 0.24034 0.0
H640 H 0.60239 0.56746 0.38901 0.0
H641 H 0.62895 0.5837 0.4274 0.0
H642 H 0.66294 0.59569 0.32319 0.0
H643 H 0.63658 0.57914 0.2845 0.0
H644 H 0.68706 0.58441 0.38572 0.0
H645 H 0.6332 0.6457 0.4259 0.0
H646 H 0.62498 0.62062 0.43875 0.0
H647 H 0.62776 0.62733 0.38853 0.0
C648 C 0.6157 0.57323 0.3743 0.0
C649 C 0.61729 0.57229 0.33368 0.0
C650 C 0.63076 0.58261 0.39627 0.0
C651 C 0.64753 0.5914 0.37794 0.0
C652 C 0.64994 0.58916 0.33775 0.0
H653 H 0.72916 0.686 0.44728 0.0
H654 H 0.69999 0.66666 0.42349 0.0
C655 C 0.63493 0.57962 0.31572 0.0
C656 C 0.66202 0.60385 0.40031 0.0
H657 H 0.66581 0.64708 0.45449 0.0
C658 C 0.68244 0.59806 0.4009 0.0
C659 C 0.6559 0.62184 0.41948 0.0
C660 C 0.63431 0.6294 0.41793 0.0
C661 C 0.69699 0.60977 0.42029 0.0
C662 C 0.69079 0.62747 0.44032 0.0
C663 C 0.67038 0.63332 0.4396 0.0
C664 C 0.70562 0.64063 0.46024 0.0
C665 C 0.71895 0.60341 0.41811 0.0
C666 C 0.71755 0.63286 0.49041 0.0
C667 C 0.73423 0.64378 0.50382 0.0
C668 C 0.73899 0.66276 0.48764 0.0
C669 C 0.72577 0.67144 0.46034 0.0
C670 C 0.70919 0.66037 0.44659 0.0
H671 H 0.72166 0.59243 0.39423 0.0
H672 H 0.72896 0.61675 0.41373 0.0
H673 H 0.72335 0.59598 0.44574 0.0
H674 H 0.71468 0.61785 0.50197 0.0
H675 H 0.74409 0.63687 0.52522 0.0
H676 H 0.17722 0.85359 0.63202 0.0
H677 H 0.16777 0.8825 0.67213 0.0
H678 H 0.16072 0.91938 0.56976 0.0
H679 H 0.16984 0.89035 0.52902 0.0
H680 H 0.18092 0.92365 0.68143 0.0
H681 H 0.10349 0.91632 0.619 0.0
H682 H 0.12273 0.89719 0.61243 0.0
H683 H 0.12335 0.92008 0.58416 0.0
C684 C 0.17396 0.86792 0.61792 0.0
C685 C 0.17384 0.86955 0.57721 0.0
C686 C 0.16869 0.88445 0.64098 0.0
C687 C 0.16321 0.90289 0.62381 0.0
C688 C 0.16464 0.90511 0.58342 0.0
H689 H 0.12703 0.01601 0.7231 0.0
H690 H 0.14751 0.98766 0.70077 0.0
C691 C 0.16992 0.88854 0.56022 0.0
C692 C 0.1538 0.91884 0.64783 0.0
H693 H 0.10891 0.94312 0.66293 0.0
C694 C 0.16519 0.92798 0.67748 0.0
C695 C 0.13314 0.92398 0.64314 0.0
C696 C 0.11986 0.91379 0.61323 0.0
C697 C 0.1565 0.94256 0.70209 0.0
C698 C 0.13601 0.94816 0.69651 0.0
C699 C 0.12461 0.93873 0.66726 0.0
C700 C 0.12615 0.96461 0.7187 0.0
C701 C 0.16922 0.95167 0.734 0.0
C702 C 0.10758 0.96104 0.73735 0.0
C703 C 0.09563 0.97727 0.74975 0.0
C704 C 0.10204 -0.00265 0.74346 0.0
C705 C 0.12152 0.00075 0.72812 0.0
C706 C 0.13339 0.98452 0.71557 0.0
H707 H 0.182 0.94153 0.74211 0.0
H708 H 0.17574 0.96623 0.72377 0.0
H709 H 0.15998 0.95477 0.76022 0.0
H710 H 0.10175 0.94574 0.74004 0.0
H711 H 0.08081 0.97407 0.76173 0.0
H712 H 0.85563 0.4205 0.79412 0.0
H713 H 0.82846 0.40514 0.83228 0.0
H714 H 0.87155 0.38859 0.92091 0.0
H715 H 0.89872 0.40412 0.88354 0.0
H716 H 0.8276 0.36431 0.85195 0.0
H717 H 0.82482 0.41259 0.98373 0.0
H718 H 0.83713 0.42058 0.93956 0.0
H719 H 0.84963 0.40323 0.97192 0.0
C720 C 0.8593 0.41395 0.82206 0.0
C721 C 0.87941 0.41348 0.83561 0.0
C722 C 0.84375 0.40514 0.84377 0.0
C723 C 0.848 0.39587 0.8795 0.0
C724 C 0.86789 0.39598 0.89374 0.0
H725 H 0.76869 0.30368 0.98073 0.0
H726 H 0.79907 0.3217 0.95874 0.0
C727 C 0.88344 0.40477 0.87212 0.0
C728 C 0.83198 0.38456 0.9002 0.0
H729 H 0.8059 0.38191 0.98543 0.0
C730 C 0.82282 0.36815 0.88112 0.0
C731 C 0.82585 0.38965 0.93823 0.0
C732 C 0.83472 0.40758 0.95952 0.0
C733 C 0.80755 0.35672 0.89895 0.0
C734 C 0.80159 0.36163 0.93718 0.0
C735 C 0.81077 0.37802 0.95635 0.0
C736 C 0.7845 0.35109 0.95612 0.0
C737 C 0.7975 0.3399 0.87626 0.0
C738 C 0.76665 0.36186 0.96375 0.0
C739 C 0.74938 0.3517 0.97643 0.0
C740 C 0.74963 0.33052 0.9818 0.0
C741 C 0.76795 0.31995 0.97663 0.0
C742 C 0.78528 0.33019 0.96387 0.0
H743 H 0.80104 0.34078 0.84482 0.0
H744 H 0.80294 0.32504 0.88721 0.0
H745 H 0.78078 0.34043 0.87989 0.0
H746 H 0.7658 0.37802 0.95816 0.0
H747 H 0.73561 0.36038 0.98063 0.0
H748 H 0.43419 0.01836 0.22195 0.0
H749 H 0.41363 0.04828 0.20647 0.0
H750 H 0.3598 0.01118 0.205 0.0
H751 H 0.37994 0.98147 0.22097 0.0
H752 H 0.39168 0.05175 0.13928 0.0
H753 H 0.34082 0.06047 0.26567 0.0
H754 H 0.36371 0.04544 0.26738 0.0
H755 H 0.34085 0.03509 0.24685 0.0
C756 C 0.41793 0.01666 0.2191 0.0
C757 C 0.40875 -0.00251 0.22238 0.0
C758 C 0.40622 0.03375 0.21027 0.0
C759 C 0.38517 0.03196 0.20507 0.0
C760 C 0.37593 0.013 0.20972 0.0
H761 H 0.3103 0.10366 0.05329 0.0
H762 H 0.32644 0.07592 0.08886 0.0
C763 C 0.38756 0.99596 0.21844 0.0
C764 C 0.37312 0.04923 0.19036 0.0
H765 H 0.33019 0.07688 0.20671 0.0
C766 C 0.37837 0.05741 0.15424 0.0
C767 C 0.35582 0.05661 0.21003 0.0
C768 C 0.35007 0.04909 0.24982 0.0
C769 C 0.36644 0.07238 0.13663 0.0
C770 C 0.34858 0.07902 0.15536 0.0
C771 C 0.34366 0.07138 0.19211 0.0
C772 C 0.3354 0.09457 0.13759 0.0
C773 C 0.37313 0.08104 0.09819 0.0
C774 C 0.334 0.11382 0.1545 0.0
C775 C 0.32468 0.12966 0.13444 0.0
C776 C 0.31664 0.12648 0.09707 0.0
C777 C 0.31649 0.1067 0.0818 0.0
C778 C 0.32581 0.09085 0.10196 0.0
H779 H 0.38937 0.0778 0.09226 0.0
H780 H 0.364 0.07412 0.07461 0.0
H781 H 0.37078 0.09771 0.09731 0.0
H782 H 0.34116 0.11689 0.18217 0.0
H783 H 0.32483 0.14465 0.14734 0.0
H784 H 0.39639 0.40893 0.64018 0.0
H785 H 0.37088 0.39196 0.60051 0.0
H786 H 0.32984 0.39125 0.69764 0.0
H787 H 0.35522 0.40834 0.73771 0.0
H788 H 0.35524 0.35331 0.61783 0.0
H789 H 0.29436 0.41118 0.60716 0.0
H790 H 0.31997 0.41741 0.62138 0.0
H791 H 0.30283 0.40626 0.65578 0.0
C792 C 0.3818 0.40554 0.65303 0.0
C793 C 0.3779 0.40994 0.69228 0.0
C794 C 0.36728 0.39578 0.63027 0.0
C795 C 0.34851 0.39037 0.64614 0.0
C796 C 0.34416 0.39553 0.68472 0.0
H797 H 0.2613 0.29953 0.587 0.0
H798 H 0.292 0.31671 0.60914 0.0
C799 C 0.3587 0.40532 0.70758 0.0
C800 C 0.33408 0.37807 0.62317 0.0
H801 H 0.28583 0.37757 0.58787 0.0
C802 C 0.34011 0.35865 0.61091 0.0
C803 C 0.31448 0.38518 0.61393 0.0
C804 C 0.30753 0.40622 0.6249 0.0
C805 C 0.32679 0.3459 0.59055 0.0
C806 C 0.30691 0.35272 0.58264 0.0
C807 C 0.30109 0.37235 0.59401 0.0
C808 C 0.29144 0.33962 0.56416 0.0
C809 C 0.33408 0.32528 0.57768 0.0
C810 C 0.28136 0.34635 0.53073 0.0
C811 C 0.26377 0.33662 0.51812 0.0
C812 C 0.25592 0.32002 0.53885 0.0
C813 C 0.26708 0.31213 0.57016 0.0
C814 C 0.28464 0.32198 0.58292 0.0
H815 H 0.35088 0.32467 0.57592 0.0
H816 H 0.3291 0.31373 0.59905 0.0
H817 H 0.32764 0.32118 0.54898 0.0
H818 H 0.2864 0.3599 0.5158 0.0
H819 H 0.25552 0.34299 0.49382 0.0
H820 H 0.81049 0.11203 0.44791 0.0
H821 H 0.82404 0.08866 0.39941 0.0
H822 H 0.84213 0.1392 0.32817 0.0
H823 H 0.82861 0.16279 0.37632 0.0
H824 H 0.82441 0.09879 0.28935 0.0
H825 H 0.89005 0.09268 0.39023 0.0
H826 H 0.86527 0.09026 0.41152 0.0
H827 H 0.87287 0.11402 0.39075 0.0
C828 C 0.81683 0.11822 0.42151 0.0
C829 C 0.81876 0.1393 0.41637 0.0
C830 C 0.82456 0.10484 0.39383 0.0
C831 C 0.83419 0.1123 0.36054 0.0
C832 C 0.83472 0.13322 0.35375 0.0
H833 H 0.92404 0.03207 0.26062 0.0
H834 H 0.90662 0.06441 0.27022 0.0
C835 C 0.82705 0.14665 0.38143 0.0
C836 C 0.84612 0.09842 0.33598 0.0
H837 H 0.88881 0.06943 0.33829 0.0
C838 C 0.83862 0.09249 0.29967 0.0
C839 C 0.86485 0.0907 0.34924 0.0
C840 C 0.87391 0.0973 0.38743 0.0
C841 C 0.84895 0.07804 0.27709 0.0
C842 C 0.86703 0.06928 0.29161 0.0
C843 C 0.875 0.07616 0.32701 0.0
C844 C 0.87665 0.05121 0.27384 0.0
C845 C 0.84026 0.07212 0.23826 0.0
C846 C 0.86548 0.03319 0.27061 0.0
C847 C 0.87536 0.01472 0.26495 0.0
C848 C 0.89665 0.01387 0.26298 0.0
C849 C 0.90764 0.03215 0.26223 0.0
C850 C 0.8977 0.05067 0.26777 0.0
H851 H 0.83173 0.08493 0.2251 0.0
H852 H 0.85231 0.06724 0.21784 0.0
H853 H 0.82949 0.05937 0.24228 0.0
H854 H 0.8493 0.03309 0.27585 0.0
H855 H 0.86639 0.00095 0.26521 0.0
H856 H 0.14347 0.57844 0.24366 0.0
H857 H 0.16763 0.59602 0.20158 0.0
H858 H 0.12696 0.58874 0.10457 0.0
H859 H 0.10259 0.57158 0.14646 0.0
H860 H 0.18752 0.58621 0.13447 0.0
H861 H 0.13417 0.64997 0.109 0.0
H862 H 0.12985 0.63085 0.14548 0.0
H863 H 0.12424 0.62563 0.09542 0.0
C864 C 0.13982 0.58027 0.21323 0.0
C865 C 0.12101 0.57386 0.1985 0.0
C866 C 0.15359 0.5904 0.18927 0.0
C867 C 0.1488 0.59418 0.15024 0.0
C868 C 0.13067 0.58653 0.13488 0.0
H869 H 0.23952 0.63934 0.98876 0.0
H870 H 0.21074 0.62064 0.01557 0.0
C871 C 0.11684 0.57658 0.15882 0.0
C872 C 0.16248 0.60665 0.12596 0.0
H873 H 0.16484 0.65053 0.07333 0.0
C874 C 0.18257 0.60024 0.12099 0.0
C875 C 0.15602 0.62513 0.10896 0.0
C876 C 0.13496 0.63345 0.11523 0.0
C877 C 0.1964 0.61175 0.09938 0.0
C878 C 0.18978 0.62993 0.08142 0.0
C879 C 0.16973 0.63641 0.08653 0.0
C880 C 0.20397 0.64303 0.05956 0.0
C881 C 0.21814 0.60468 0.09711 0.0
C882 C 0.20853 0.66255 0.07331 0.0
C883 C 0.22469 0.67347 0.05751 0.0
C884 C 0.23661 0.6649 0.02796 0.0
C885 C 0.23071 0.64623 0.01175 0.0
C886 C 0.21441 0.63545 0.02726 0.0
H887 H 0.22173 0.59331 0.11988 0.0
H888 H 0.22081 0.5975 0.06848 0.0
H889 H 0.22877 0.61764 0.10018 0.0
H890 H 0.20052 0.66875 0.09802 0.0
H891 H 0.22891 0.68775 0.0708 0.0
H892 H 0.64523 0.84571 0.898 0.0
H893 H 0.63216 0.87263 0.85727 0.0
H894 H 0.65676 0.9174 0.93545 0.0
H895 H 0.66949 0.89026 0.97768 0.0
H896 H 0.61855 0.92571 0.9178 0.0
H897 H 0.65903 0.90944 0.78135 0.0
H898 H 0.64589 0.88737 0.79827 0.0
H899 H 0.66619 0.89796 0.82684 0.0
C900 C 0.64818 0.86125 0.90654 0.0
C901 C 0.65849 0.86577 0.94128 0.0
C902 C 0.64079 0.87667 0.88285 0.0
C903 C 0.64383 0.89705 0.89277 0.0
C904 C 0.65439 0.90174 0.92706 0.0
H905 H 0.61133 -0.00116 0.7466 0.0
H906 H 0.62873 0.97032 0.7767 0.0
C907 C 0.66168 0.88623 0.95115 0.0
C908 C 0.63445 0.91323 0.86882 0.0
H909 H 0.62873 0.92967 0.77551 0.0
C910 C 0.62095 0.92671 0.88675 0.0
C911 C 0.63775 0.9147 0.82835 0.0
C912 C 0.65318 0.90172 0.8077 0.0
C913 C 0.61024 0.94126 0.86525 0.0
C914 C 0.61258 0.94188 0.82444 0.0
C915 C 0.62654 0.92882 0.80663 0.0
C916 C 0.60151 0.95684 0.80027 0.0
C917 C 0.5969 0.95611 0.88664 0.0
C918 C 0.58026 0.95796 0.80118 0.0
C919 C 0.5702 0.97439 0.78422 0.0
C920 C 0.58124 0.98986 0.76569 0.0
C921 C 0.60231 0.98738 0.76103 0.0
C922 C 0.61235 0.97107 0.77834 0.0
H923 H 0.60086 0.95699 0.91791 0.0
H924 H 0.59818 0.97153 0.87396 0.0
H925 H 0.58087 0.95116 0.88442 0.0
H926 H 0.57154 0.9467 0.8168 0.0
H927 H 0.55395 0.97564 0.78799 0.0
H928 H 0.3811 0.17465 0.00944 0.0
H929 H 0.41225 0.16411 0.97631 0.0
H930 H 0.37674 0.1406 0.88136 0.0
H931 H 0.3458 0.15126 0.9135 0.0
H932 H 0.4223 0.12473 0.95634 0.0
H933 H 0.41998 0.17314 0.82541 0.0
H934 H 0.40481 0.17833 0.8678 0.0
H935 H 0.39661 0.1598 0.83278 0.0
C936 C 0.37996 0.16754 0.98122 0.0
C937 C 0.36093 0.16378 0.96421 0.0
C938 C 0.39775 0.1615 0.9624 0.0
C939 C 0.39678 0.15184 0.92618 0.0
C940 C 0.37786 0.14844 0.90889 0.0
H941 H 0.47637 0.06541 0.81865 0.0
H942 H 0.44956 0.08332 0.85361 0.0
C943 C 0.36015 0.15442 0.92756 0.0
C944 C 0.41526 0.14381 0.90744 0.0
H945 H 0.44071 0.14316 0.82146 0.0
C946 C 0.42654 0.12895 0.92706 0.0
C947 C 0.42085 0.1495 0.86941 0.0
C948 C 0.41004 0.16622 0.84778 0.0
C949 C 0.44277 0.119 0.90899 0.0
C950 C 0.44752 0.12378 0.87008 0.0
C951 C 0.43681 0.13927 0.85108 0.0
C952 C 0.46355 0.11291 0.84849 0.0
C953 C 0.45465 0.10346 0.93173 0.0
C954 C 0.4799 0.12372 0.83291 0.0
C955 C 0.4951 0.1136 0.81254 0.0
C956 C 0.49422 0.09243 0.80727 0.0
C957 C 0.47759 0.08168 0.82233 0.0
C958 C 0.46233 0.09187 0.8426 0.0
H959 H 0.453 0.10577 0.96348 0.0
H960 H 0.44888 0.08808 0.92471 0.0
H961 H 0.47101 0.10402 0.92428 0.0
H962 H 0.48104 0.13999 0.83691 0.0
H963 H 0.50766 0.1224 0.80138 0.0
H964 H 0.58783 0.63216 0.25252 0.0
H965 H 0.60283 0.66038 0.2162 0.0
H966 H 0.5914 0.62873 0.1089 0.0
H967 H 0.57678 0.60047 0.1448 0.0
H968 H 0.63086 0.64107 0.11615 0.0
H969 H 0.57793 0.70443 0.14794 0.0
H970 H 0.58757 0.6917 0.19015 0.0
H971 H 0.57149 0.67822 0.15685 0.0
C972 C 0.58812 0.63145 0.22115 0.0
C973 C 0.58123 0.61408 0.20151 0.0
C974 C 0.59667 0.64756 0.20045 0.0
C975 C 0.59816 0.64662 0.15988 0.0
C976 C 0.59046 0.6297 0.14021 0.0
H977 H 0.63073 0.74423 0.00567 0.0
H978 H 0.61461 0.71542 0.03763 0.0
C979 C 0.58208 0.61359 0.16079 0.0
C980 C 0.60897 0.66251 0.13785 0.0
H981 H 0.60852 0.7129 0.11569 0.0
C982 C 0.62596 0.65678 0.11592 0.0
C983 C 0.60241 0.68291 0.13742 0.0
C984 C 0.58375 0.68972 0.15905 0.0
C985 C 0.63663 0.67095 0.09356 0.0
C986 C 0.63036 0.69144 0.09384 0.0
C987 C 0.61333 0.69716 0.11569 0.0
C988 C 0.64104 0.70728 0.07142 0.0
C989 C 0.65424 0.66377 0.06929 0.0
C990 C 0.66141 0.71191 0.07917 0.0
C991 C 0.67077 0.72825 0.0606 0.0
C992 C 0.65976 0.74039 0.03447 0.0
C993 C 0.63959 0.73521 0.02575 0.0
C994 C 0.63033 0.7188 0.04406 0.0
H995 H 0.65359 0.64715 0.06404 0.0
H996 H 0.65461 0.67169 0.04088 0.0
H997 H 0.66861 0.66711 0.08477 0.0
H998 H 0.66983 0.70342 0.10072 0.0
H999 H 0.68625 0.732 0.06827 0.0
H1000 H 0.00051 0.94868 0.35398 0.0
H1001 H 0.02706 0.93138 0.39141 0.0
H1002 H 0.02048 0.87836 0.31927 0.0
H1003 H 0.9941 0.89529 0.28199 0.0
H1004 H 0.01889 0.87065 0.40093 0.0
H1005 H 0.08576 0.91685 0.35718 0.0
H1006 H 0.06398 0.93035 0.37504 0.0
H1007 H 0.06238 0.91694 0.32989 0.0
C1008 C 0.00498 0.93347 0.34568 0.0
C1009 C 0.99515 0.92338 0.31498 0.0
C1010 C 0.02009 0.9236 0.36716 0.0
C1011 C 0.02565 0.90359 0.35808 0.0
C1012 C 0.01629 0.89375 0.32686 0.0
H1013 H 0.12732 0.82907 0.40305 0.0
H1014 H 0.09817 0.84771 0.37818 0.0
C1015 C 0.00125 0.90352 0.3055 0.0
C1016 C 0.0409 0.89246 0.38128 0.0
H1017 H 0.09163 0.88954 0.39957 0.0
C1018 C 0.03478 0.87486 0.40107 0.0
C1019 C 0.06158 0.898 0.38112 0.0
C1020 C 0.06897 0.91648 0.35953 0.0
C1021 C 0.04892 0.86233 0.41987 0.0
C1022 C 0.06964 0.86766 0.41898 0.0
C1023 C 0.07568 0.88556 0.40017 0.0
C1024 C 0.08558 0.85418 0.43469 0.0
C1025 C 0.04179 0.84307 0.43912 0.0
C1026 C 0.08775 0.85105 0.47474 0.0
C1027 C 0.10443 0.84024 0.48916 0.0
C1028 C 0.11922 0.83262 0.46366 0.0
C1029 C 0.11629 0.83485 0.42349 0.0
C1030 C 0.09967 0.84556 0.4092 0.0
H1031 H 0.02567 0.83967 0.43239 0.0
H1032 H 0.05127 0.83003 0.42982 0.0
H1033 H 0.04338 0.84461 0.47102 0.0
H1034 H 0.07708 0.85774 0.49486 0.0
H1035 H 0.10636 0.83893 0.52025 0.0
H1036 H 0.87451 0.22527 0.5614 0.0
H1037 H 0.8965 0.2489 0.59609 0.0
H1038 H 0.84533 0.288 0.6178 0.0
H1039 H 0.82308 0.26426 0.58389 0.0
H1040 H 0.90538 0.28772 0.58019 0.0
H1041 H 0.86981 0.28324 0.72484 0.0
H1042 H 0.86432 0.26522 0.68682 0.0
H1043 H 0.85155 0.28938 0.68811 0.0
C1044 C 0.86786 0.23886 0.57366 0.0
C1045 C 0.84697 0.24283 0.56992 0.0
C1046 C 0.88049 0.25232 0.59356 0.0
C1047 C 0.8725 0.27001 0.61018 0.0
C1048 C 0.85172 0.27416 0.60613 0.0
H1049 H 0.91717 0.38573 0.65408 0.0
H1050 H 0.90843 0.35293 0.62673 0.0
C1051 C 0.83905 0.26064 0.58644 0.0
C1052 C 0.886 0.28466 0.63011 0.0
H1053 H 0.89034 0.31285 0.71259 0.0
C1054 C 0.90231 0.29298 0.6094 0.0
C1055 C 0.88239 0.29111 0.66859 0.0
C1056 C 0.8662 0.28159 0.69352 0.0
C1057 C 0.91419 0.3086 0.62515 0.0
C1058 C 0.90932 0.31636 0.66222 0.0
C1059 C 0.89395 0.30706 0.68398 0.0
C1060 C 0.91802 0.33563 0.67686 0.0
C1061 C 0.93153 0.31692 0.60157 0.0
C1062 C 0.92649 0.33689 0.71419 0.0
C1063 C 0.9314 0.35581 0.73019 0.0
C1064 C 0.92761 0.37372 0.70923 0.0
C1065 C 0.92018 0.37224 0.6711 0.0
C1066 C 0.91535 0.35343 0.65521 0.0
H1067 H 0.93804 0.30503 0.58242 0.0
H1068 H 0.92586 0.32933 0.58271 0.0
H1069 H 0.94376 0.32303 0.62038 0.0
H1070 H 0.92854 0.32333 0.73149 0.0
H1071 H 0.93702 0.35645 0.75968 0.0
H1072 H 0.63822 0.81616 0.13679 0.0
H1073 H 0.61205 0.82845 0.18087 0.0
H1074 H 0.57592 0.84757 0.08307 0.0
H1075 H 0.60201 0.83475 0.03866 0.0
H1076 H 0.60371 0.86886 0.18182 0.0
H1077 H 0.53334 0.82465 0.15692 0.0
H1078 H 0.55797 0.81579 0.14157 0.0
H1079 H 0.54455 0.83438 0.11331 0.0
C1080 C 0.62436 0.82237 0.12472 0.0
C1081 C 0.62207 0.82465 0.08448 0.0
C1082 C 0.60948 0.82941 0.14989 0.0
C1083 C 0.59211 0.83896 0.13524 0.0
C1084 C 0.58909 0.83995 0.09493 0.0
H1085 H 0.52162 0.93519 0.23142 0.0
H1086 H 0.54828 0.91481 0.2018 0.0
C1087 C 0.60395 0.83265 0.06959 0.0
C1088 C 0.57883 0.85032 0.16201 0.0
H1089 H 0.52989 0.85586 0.19159 0.0
C1090 C 0.58759 0.86587 0.1843 0.0
C1091 C 0.55789 0.8463 0.1653 0.0
C1092 C 0.54788 0.82925 0.14328 0.0
C1093 C 0.57587 0.87785 0.20919 0.0
C1094 C 0.5548 0.87438 0.2113 0.0
C1095 C 0.54609 0.8585 0.18978 0.0
C1096 C 0.54126 0.88757 0.2342 0.0
C1097 C 0.58612 0.89412 0.23295 0.0
C1098 C 0.5289 0.87915 0.26299 0.0
C1099 C 0.51363 0.89075 0.27997 0.0
C1100 C 0.51037 0.91093 0.26817 0.0
C1101 C 0.52381 0.91977 0.24145 0.0
C1102 C 0.53906 0.90812 0.22439 0.0
H1103 H 0.60257 0.89102 0.23658 0.0
H1104 H 0.58451 0.90892 0.21792 0.0
H1105 H 0.57909 0.89547 0.26206 0.0
H1106 H 0.53046 0.86333 0.27098 0.0
H1107 H 0.50359 0.88351 0.3006 0.0
H1108 H 0.30148 0.26053 0.96345 0.0
H1109 H 0.32105 0.28531 0.92664 0.0
H1110 H 0.37448 0.27033 0.99293 0.0
H1111 H 0.35516 0.2452 0.02952 0.0
H1112 H 0.34263 0.3187 0.94814 0.0
H1113 H 0.39314 0.26116 0.88151 0.0
H1114 H 0.37029 0.25449 0.90726 0.0
H1115 H 0.39307 0.26052 0.93355 0.0
C1116 C 0.31731 0.2627 0.9707 0.0
C1117 C 0.3268 0.25076 -0.00075 0.0
C1118 C 0.32849 0.27678 0.94943 0.0
C1119 C 0.3493 0.27919 0.95639 0.0
C1120 C 0.35855 0.26821 0.98639 0.0
H1121 H 0.42112 0.38008 0.88282 0.0
H1122 H 0.40618 0.3517 0.91814 0.0
C1123 C 0.34743 0.25403 0.00753 0.0
C1124 C 0.36128 0.29323 0.93221 0.0
H1125 H 0.40206 0.29584 0.8715 0.0
C1126 C 0.35558 0.3137 0.93129 0.0
C1127 C 0.3779 0.28652 0.90968 0.0
C1128 C 0.38387 0.26444 0.90764 0.0
C1129 C 0.36639 0.3278 0.90919 0.0
C1130 C 0.38362 0.32129 0.8882 0.0
C1131 C 0.38902 0.30074 0.88817 0.0
C1132 C 0.39617 0.33591 0.8666 0.0
C1133 C 0.3592 0.34955 0.90827 0.0
C1134 C 0.39664 0.3356 0.82592 0.0
C1135 C 0.40545 0.3517 0.80558 0.0
C1136 C 0.41366 0.36824 0.8259 0.0
C1137 C 0.41463 0.3676 0.86655 0.0
C1138 C 0.40608 0.35147 0.88673 0.0
H1139 H 0.34312 0.35092 0.91748 0.0
H1140 H 0.36857 0.35872 0.92846 0.0
H1141 H 0.36075 0.3561 0.87876 0.0
H1142 H 0.38914 0.32358 0.81001 0.0
H1143 H 0.40449 0.35192 0.77422 0.0
H1144 H 0.83934 0.13431 0.61633 0.0
H1145 H 0.8663 0.11571 0.64902 0.0
H1146 H 0.90885 0.13501 0.56169 0.0
H1147 H 0.88198 0.15406 0.52888 0.0
H1148 H 0.89036 0.08436 0.62199 0.0
H1149 H 0.93642 0.15167 0.66285 0.0
H1150 H 0.9107 0.15377 0.64544 0.0
H1151 H 0.93111 0.14952 0.61194 0.0
C1152 C 0.85443 0.13469 0.604 0.0
C1153 C 0.85852 0.14579 0.57004 0.0
C1154 C 0.8698 0.12399 0.62273 0.0
C1155 C 0.88956 0.12415 0.60796 0.0
C1156 C 0.89373 0.135 0.57388 0.0
H1157 H 0.98799 0.04493 0.68099 0.0
H1158 H 0.95882 0.0593 0.64691 0.0
C1159 C 0.87836 0.14584 0.55516 0.0
C1160 C 0.90573 0.11299 0.62861 0.0
H1161 H 0.95037 0.11947 0.67681 0.0
C1162 C 0.90351 0.09199 0.63403 0.0
C1163 C 0.92268 0.12309 0.64459 0.0
C1164 C 0.92536 0.14577 0.64129 0.0
C1165 C 0.91785 0.08077 0.65511 0.0
C1166 C 0.93497 0.09083 0.67054 0.0
C1167 C 0.9372 0.11181 0.66495 0.0
C1168 C 0.95081 0.0801 0.69296 0.0
C1169 C 0.91428 0.0584 0.66142 0.0
C1170 C 0.95586 0.08691 0.73027 0.0
C1171 C 0.97265 0.07895 0.74958 0.0
C1172 C 0.98462 0.06393 0.73198 0.0
C1173 C 0.97888 0.0563 0.69551 0.0
C1174 C 0.9622 0.06447 0.67599 0.0
H1175 H 0.89807 0.05432 0.65737 0.0
H1176 H 0.92328 0.04965 0.64003 0.0
H1177 H 0.91907 0.0537 0.69095 0.0
H1178 H 0.94723 0.09895 0.74388 0.0
H1179 H 0.97668 0.08509 0.77769 0.0
H1180 H 0.0852 0.59198 0.40081 0.0
H1181 H 0.0942 0.6206 0.44231 0.0
H1182 H 0.10318 0.65798 0.34102 0.0
H1183 H 0.09329 0.6296 0.29941 0.0
H1184 H 0.12882 0.63853 0.44707 0.0
H1185 H 0.07213 0.69649 0.40702 0.0
H1186 H 0.06965 0.67029 0.3926 0.0
H1187 H 0.08515 0.6875 0.36485 0.0
C1188 C 0.08883 0.6064 0.38742 0.0
C1189 C 0.08859 0.6086 0.3469 0.0
C1190 C 0.09393 0.62275 0.41117 0.0
C1191 C 0.09911 0.64154 0.39487 0.0
C1192 C 0.09866 0.64383 0.35436 0.0
H1193 H 0.18261 0.72876 0.47856 0.0
H1194 H 0.16491 0.69888 0.45486 0.0
C1195 C 0.09316 0.62756 0.33057 0.0
C1196 C 0.10673 0.65811 0.42001 0.0
H1197 H 0.10287 0.70894 0.43693 0.0
C1198 C 0.12289 0.65386 0.44529 0.0
C1199 C 0.09877 0.67803 0.41844 0.0
C1200 C 0.08032 0.68328 0.39457 0.0
C1201 C 0.13195 0.66915 0.46756 0.0
C1202 C 0.12513 0.68938 0.46341 0.0
C1203 C 0.1083 0.69347 0.4397 0.0
C1204 C 0.13612 0.70667 0.48101 0.0
C1205 C 0.1488 0.66343 0.49512 0.0
C1206 C 0.12576 0.72122 0.50314 0.0
C1207 C 0.13579 0.7386 0.51625 0.0
C1208 C 0.15638 0.74167 0.50751 0.0
C1209 C 0.16683 0.72675 0.48632 0.0
C1210 C 0.15674 0.70956 0.47287 0.0
H1211 H 0.14701 0.64759 0.50555 0.0
H1212 H 0.16353 0.66436 0.47972 0.0
H1213 H 0.14931 0.6737 0.52061 0.0
H1214 H 0.1098 0.71933 0.50956 0.0
H1215 H 0.12731 0.74982 0.53245 0.0
H1216 H 0.8891 0.66516 0.50928 0.0
H1217 H 0.91965 0.65084 0.47936 0.0
H1218 H 0.88571 0.63779 0.37537 0.0
H1219 H 0.85554 0.65235 0.40417 0.0
H1220 H 0.92526 0.61174 0.45329 0.0
H1221 H 0.93515 0.66589 0.3323 0.0
H1222 H 0.91875 0.67107 0.37295 0.0
H1223 H 0.91003 0.65553 0.33335 0.0
C1224 C 0.88825 0.65954 0.47982 0.0
C1225 C 0.86985 0.65998 0.45915 0.0
C1226 C 0.90568 0.6513 0.46285 0.0
C1227 C 0.90498 0.64353 0.42497 0.0
C1228 C 0.88672 0.64413 0.40427 0.0
H1229 H 0.98279 0.55385 0.31606 0.0
H1230 H 0.9552 0.57167 0.34931 0.0
C1231 C 0.86941 0.65239 0.42101 0.0
C1232 C 0.92291 0.63376 0.40734 0.0
H1233 H 0.95202 0.63383 0.32578 0.0
C1234 C 0.93132 0.61669 0.42564 0.0
C1235 C 0.93087 0.64037 0.37147 0.0
C1236 C 0.92336 0.65935 0.35159 0.0
C1237 C 0.94713 0.60568 0.4084 0.0
C1238 C 0.95431 0.61165 0.3715 0.0
C1239 C 0.94626 0.62906 0.35378 0.0
C1240 C 0.97071 0.60062 0.35122 0.0
C1241 C 0.95611 0.58793 0.43008 0.0
C1242 C 0.98821 0.61114 0.3401 0.0
C1243 C 0.00372 0.60117 0.32053 0.0
C1244 C 0.00215 0.58037 0.31173 0.0
C1245 C 0.9845 0.56985 0.32252 0.0
C1246 C 0.96882 0.57995 0.34185 0.0
H1247 H 0.95299 0.5889 0.46167 0.0
H1248 H 0.94926 0.57366 0.41914 0.0
H1249 H 0.97277 0.58707 0.42576 0.0
H1250 H 0.98996 0.6271 0.34691 0.0
H1251 H 0.01712 0.60978 0.31293 0.0
H1252 H 0.11168 0.27132 0.55592 0.0
H1253 H 0.08822 0.2491 0.5905 0.0
H1254 H 0.13721 0.20778 0.61557 0.0
H1255 H 0.16088 0.23002 0.58176 0.0
H1256 H 0.07743 0.21 0.57767 0.0
H1257 H 0.11293 0.2168 0.72213 0.0
H1258 H 0.11898 0.23376 0.68268 0.0
H1259 H 0.13116 0.20936 0.68635 0.0
C1260 C 0.11751 0.25748 0.56872 0.0
C1261 C 0.13824 0.25251 0.56621 0.0
C1262 C 0.10405 0.24485 0.58857 0.0
C1263 C 0.11106 0.22707 0.60639 0.0
C1264 C 0.13159 0.22176 0.603 0.0
H1265 H 0.06881 0.11315 0.65342 0.0
H1266 H 0.07538 0.14632 0.62564 0.0
C1267 C 0.14508 0.2344 0.58332 0.0
C1268 C 0.09691 0.21358 0.62743 0.0
H1269 H 0.0923 0.1869 0.71158 0.0
C1270 C 0.08041 0.20524 0.60723 0.0
C1271 C 0.10036 0.20787 0.66641 0.0
C1272 C 0.11669 0.21761 0.69077 0.0
C1273 C 0.0684 0.19 0.62387 0.0
C1274 C 0.07333 0.18268 0.66127 0.0
C1275 C 0.08865 0.19231 0.6827 0.0
C1276 C 0.06535 0.16315 0.67601 0.0
C1277 C 0.05101 0.18141 0.60069 0.0
C1278 C 0.05734 0.16148 0.71363 0.0
C1279 C 0.05367 0.14233 0.72985 0.0
C1280 C 0.05832 0.12467 0.70882 0.0
C1281 C 0.06521 0.12649 0.67045 0.0
C1282 C 0.06875 0.1455 0.6543 0.0
H1283 H 0.04421 0.19323 0.58173 0.0
H1284 H 0.05672 0.16911 0.58165 0.0
H1285 H 0.03901 0.17512 0.61976 0.0
H1286 H 0.0548 0.17493 0.73099 0.0
H1287 H 0.04844 0.14136 0.75954 0.0
H1288 H 0.60613 0.32946 0.01646 0.0
H1289 H 0.57754 0.34511 0.98216 0.0
H1290 H 0.59776 0.31812 0.87508 0.0
H1291 H 0.62633 0.30262 0.90892 0.0
H1292 H 0.59472 0.3609 0.87381 0.0
H1293 H 0.52458 0.32458 0.9301 0.0
H1294 H 0.54242 0.33318 0.96601 0.0
H1295 H 0.54923 0.3128 0.93407 0.0
C1296 C 0.60405 0.32628 0.9859 0.0
C1297 C 0.61852 0.31495 0.96529 0.0
C1298 C 0.58775 0.33527 0.96633 0.0
C1299 C 0.58563 0.3328 0.92609 0.0
C1300 C 0.59921 0.32025 0.90611 0.0
H1301 H 0.4915 0.37297 0.77098 0.0
H1302 H 0.51748 0.35424 0.80638 0.0
C1303 C 0.61548 0.31138 0.92552 0.0
C1304 C 0.57088 0.34507 0.90388 0.0
H1305 H 0.5204 0.35306 0.88891 0.0
C1306 C 0.57846 0.35919 0.87705 0.0
C1307 C 0.54974 0.34274 0.90822 0.0
C1308 C 0.54091 0.32741 0.93592 0.0
C1309 C 0.56542 0.37103 0.85427 0.0
C1310 C 0.54427 0.36883 0.85882 0.0
C1311 C 0.53667 0.35473 0.88567 0.0
C1312 C 0.52971 0.38064 0.83529 0.0
C1313 C 0.57434 0.38548 0.82498 0.0
C1314 C 0.52831 0.40178 0.83928 0.0
C1315 C 0.5135 0.41263 0.81892 0.0
C1316 C 0.49978 0.40245 0.79445 0.0
C1317 C 0.50178 0.38133 0.78958 0.0
C1318 C 0.51655 0.37055 0.80991 0.0
H1319 H 0.59058 0.3822 0.81924 0.0
H1320 H 0.56587 0.38474 0.79716 0.0
H1321 H 0.57318 0.40122 0.83621 0.0
H1322 H 0.53823 0.4098 0.85909 0.0
H1323 H 0.51229 0.42883 0.82364 0.0
H1324 H 0.31915 0.76494 0.06612 0.0
H1325 H 0.33994 0.78956 0.10121 0.0
H1326 H 0.3941 0.75822 0.06515 0.0
H1327 H 0.37354 0.73342 0.03025 0.0
H1328 H 0.39269 0.76685 0.14549 0.0
H1329 H 0.37575 0.83472 0.05567 0.0
H1330 H 0.35372 0.82151 0.07293 0.0
H1331 H 0.37053 0.80922 0.03937 0.0
C1332 C 0.33549 0.76341 0.06515 0.0
C1333 C 0.34464 0.7472 0.0452 0.0
C1334 C 0.34734 0.77751 0.08524 0.0
C1335 C 0.36854 0.77573 0.08556 0.0
C1336 C 0.37775 0.75981 0.06525 0.0
H1337 H 0.44713 0.87254 0.15993 0.0
H1338 H 0.43393 0.84259 0.12679 0.0
C1339 C 0.36594 0.74572 0.04514 0.0
C1340 C 0.38111 0.79023 0.10782 0.0
H1341 H 0.3932 0.84035 0.11482 0.0
C1342 C 0.39293 0.78293 0.13873 0.0
C1343 C 0.38151 0.8111 0.09861 0.0
C1344 C 0.36986 0.81964 0.06463 0.0
C1345 C 0.4049 0.79608 0.1612 0.0
C1346 C 0.40482 0.81705 0.15266 0.0
C1347 C 0.39322 0.82425 0.12137 0.0
C1348 C 0.41636 0.83208 0.17574 0.0
C1349 C 0.41765 0.78744 0.19354 0.0
C1350 C 0.41165 0.83553 0.21491 0.0
C1351 C 0.41943 0.85255 0.23414 0.0
C1352 C 0.43172 0.86645 0.21414 0.0
C1353 C 0.43764 0.86207 0.17594 0.0
C1354 C 0.43007 0.84501 0.15696 0.0
H1355 H 0.42029 0.77091 0.18968 0.0
H1356 H 0.43253 0.79526 0.19535 0.0
H1357 H 0.40966 0.78967 0.2215 0.0
H1358 H 0.40085 0.82593 0.22977 0.0
H1359 H 0.41443 0.85574 0.26342 0.0
H1360 H 0.14801 0.35348 0.63319 0.0
H1361 H 0.12107 0.37158 0.66664 0.0
H1362 H 0.08186 0.36383 0.56759 0.0
H1363 H 0.10875 0.34526 0.53381 0.0
H1364 H 0.10184 0.40691 0.64551 0.0
H1365 H 0.04746 0.34281 0.65731 0.0
H1366 H 0.07363 0.3392 0.64385 0.0
H1367 H 0.05564 0.34839 0.60883 0.0
C1368 C 0.13365 0.35552 0.61841 0.0
C1369 C 0.13052 0.34787 0.58079 0.0
C1370 C 0.11829 0.36592 0.63761 0.0
C1371 C 0.09947 0.36889 0.6197 0.0
C1372 C 0.09621 0.36137 0.58213 0.0
H1373 H 0.00626 0.45198 0.69998 0.0
H1374 H 0.03531 0.43711 0.66667 0.0
C1375 C 0.11158 0.35081 0.56287 0.0
C1376 C 0.08344 0.38002 0.64066 0.0
H1377 H 0.03621 0.37484 0.67923 0.0
C1378 C 0.08746 0.39995 0.65291 0.0
C1379 C 0.06486 0.37074 0.6506 0.0
C1380 C 0.06013 0.34905 0.63982 0.0
C1381 C 0.07336 0.41087 0.67501 0.0
C1382 C 0.05464 0.4017 0.68439 0.0
C1383 C 0.0506 0.38181 0.67197 0.0
C1384 C 0.03891 0.41228 0.70719 0.0
C1385 C 0.07884 0.43188 0.68888 0.0
C1386 C 0.03144 0.40336 0.74121 0.0
C1387 C 0.0147 0.41167 0.76006 0.0
C1388 C 0.00518 0.42911 0.74525 0.0
C1389 C 0.01341 0.43867 0.71239 0.0
C1390 C 0.03003 0.43021 0.6933 0.0
H1391 H 0.0955 0.43434 0.68871 0.0
H1392 H 0.07188 0.44326 0.66925 0.0
H1393 H 0.07309 0.43462 0.71866 0.0
H1394 H 0.03812 0.38952 0.7524 0.0
H1395 H 0.00875 0.40399 0.78537 0.0
H1396 H 0.8146 0.76912 0.48651 0.0
H1397 H 0.83351 0.79744 0.45887 0.0
H1398 H 0.88983 0.76759 0.48663 0.0
H1399 H 0.87112 0.73909 0.51456 0.0
H1400 H 0.8876 0.8121 0.50165 0.0
H1401 H 0.86454 0.78849 0.35337 0.0
H1402 H 0.84407 0.79089 0.38742 0.0
H1403 H 0.86306 0.77172 0.3947 0.0
C1404 C 0.831 0.76864 0.48732 0.0
C1405 C 0.84133 0.7517 0.50239 0.0
C1406 C 0.84176 0.78481 0.47139 0.0
C1407 C 0.86298 0.78435 0.47026 0.0
C1408 C 0.87342 0.76808 0.48713 0.0
H1409 H 0.92766 0.86491 0.31205 0.0
H1410 H 0.9191 0.83499 0.35071 0.0
C1411 C 0.86268 0.75183 0.50303 0.0
C1412 C 0.87412 0.80035 0.4494 0.0
H1413 H 0.87988 0.82095 0.3595 0.0
C1414 C 0.88613 0.81398 0.47053 0.0
C1415 C 0.87243 0.8024 0.40876 0.0
C1416 C 0.86048 0.78751 0.38457 0.0
C1417 C 0.89575 0.83034 0.45212 0.0
C1418 C 0.89305 0.83308 0.41177 0.0
C1419 C 0.88183 0.81885 0.39047 0.0
C1420 C 0.9003 0.85139 0.39139 0.0
C1421 C 0.90852 0.84463 0.47599 0.0
C1422 C 0.89259 0.87045 0.40164 0.0
C1423 C 0.89735 0.88753 0.37963 0.0
C1424 C 0.90983 0.88584 0.34672 0.0
C1425 C 0.91799 0.86676 0.33716 0.0
C1426 C 0.91316 0.84965 0.35922 0.0
H1427 H 0.91415 0.83719 0.50283 0.0
H1428 H 0.9217 0.85029 0.45915 0.0
H1429 H 0.89917 0.85786 0.48469 0.0
H1430 H 0.88228 0.87203 0.42586 0.0
H1431 H 0.89083 0.90197 0.38794 0.0
H1432 H 0.38691 0.66564 0.03637 0.0
H1433 H 0.41553 0.65277 0.07458 0.0
H1434 H 0.37413 0.63113 0.16192 0.0
H1435 H 0.34564 0.64407 0.12473 0.0
H1436 H 0.40762 0.65122 0.19244 0.0
H1437 H 0.42953 0.59217 0.08509 0.0
H1438 H 0.42853 0.61769 0.06683 0.0
H1439 H 0.40565 0.60549 0.08268 0.0
C1440 C 0.38391 0.65819 0.06376 0.0
C1441 C 0.36395 0.65576 0.07728 0.0
C1442 C 0.40026 0.65079 0.08543 0.0
C1443 C 0.39684 0.64079 0.12075 0.0
C1444 C 0.37704 0.63877 0.13467 0.0
H1445 H 0.47456 0.55737 0.24286 0.0
H1446 H 0.44621 0.57442 0.21089 0.0
C1447 C 0.36076 0.64615 0.11321 0.0
C1448 C 0.41373 0.63201 0.1433 0.0
H1449 H 0.44975 0.59494 0.14128 0.0
C1450 C 0.41691 0.63896 0.18128 0.0
C1451 C 0.42553 0.61584 0.12872 0.0
C1452 C 0.4221 0.60718 0.08873 0.0
C1453 C 0.43163 0.6301 0.20523 0.0
C1454 C 0.44362 0.61411 0.19046 0.0
C1455 C 0.44048 0.60722 0.15244 0.0
C1456 C 0.45967 0.60432 0.21373 0.0
C1457 C 0.43387 0.63757 0.24637 0.0
C1458 C 0.47639 0.6156 0.22649 0.0
C1459 C 0.49254 0.60595 0.24499 0.0
C1460 C 0.49236 0.5848 0.25063 0.0
C1461 C 0.47521 0.57366 0.23903 0.0
C1462 C 0.45903 0.58336 0.22063 0.0
H1463 H 0.42015 0.64585 0.25625 0.0
H1464 H 0.43679 0.62478 0.26658 0.0
H1465 H 0.44692 0.64816 0.24801 0.0
H1466 H 0.47733 0.63173 0.22081 0.0
H1467 H 0.50553 0.61501 0.25338 0.0
H1468 H 0.60412 0.09317 0.87003 0.0
H1469 H 0.61683 0.1192 0.91335 0.0
H1470 H 0.58669 0.16526 0.84573 0.0
H1471 H 0.57389 0.13911 0.80128 0.0
H1472 H 0.62744 0.1739 0.86329 0.0
H1473 H 0.58527 0.15113 -0.00493 0.0
H1474 H 0.59866 0.13043 0.97301 0.0
H1475 H 0.57831 0.14257 0.94712 0.0
C1476 C 0.60002 0.10879 0.8642 0.0
C1477 C 0.58791 0.11402 0.83206 0.0
C1478 C 0.60722 0.12364 0.8893 0.0
C1479 C 0.60237 0.14405 0.88314 0.0
C1480 C 0.5904 0.14949 0.85108 0.0
H1481 H 0.62899 0.24257 0.03999 0.0
H1482 H 0.61268 0.215 0.00472 0.0
C1483 C 0.58313 0.13456 0.82576 0.0
C1484 C 0.61076 0.15961 0.9094 0.0
H1485 H 0.61376 0.17307 0.00475 0.0
C1486 C 0.62432 0.17388 0.89416 0.0
C1487 C 0.60651 0.15956 0.94958 0.0
C1488 C 0.59123 0.14523 0.96715 0.0
C1489 C 0.63424 0.18782 0.91829 0.0
C1490 C 0.63074 0.18711 0.95875 0.0
C1491 C 0.6167 0.17325 0.97382 0.0
C1492 C 0.64078 0.20143 0.9855 0.0
C1493 C 0.64819 0.20332 0.90017 0.0
C1494 C 0.66198 0.20212 0.98831 0.0
C1495 C 0.67141 0.2179 0.0084 0.0
C1496 C 0.65972 0.23317 0.02606 0.0
C1497 C 0.63847 0.23121 0.02634 0.0
C1498 C 0.62909 0.21548 0.00615 0.0
H1499 H 0.64533 0.20504 0.86859 0.0
H1500 H 0.64642 0.21838 0.91422 0.0
H1501 H 0.66414 0.19837 0.904 0.0
H1502 H 0.67122 0.19104 0.97332 0.0
H1503 H 0.6878 0.21885 0.00778 0.0
H1504 H 0.24709 0.22894 0.11704 0.0
H1505 H 0.23187 0.23736 0.17915 0.0
H1506 H 0.2827 0.2104 0.23873 0.0
H1507 H 0.29837 0.2021 0.17632 0.0
H1508 H 0.22046 0.21114 0.23809 0.0
H1509 H 0.27829 0.26672 0.28811 0.0
H1510 H 0.27685 0.25808 0.23853 0.0
H1511 H 0.28803 0.2422 0.2751 0.0
C1512 C 0.25516 0.22483 0.14326 0.0
C1513 C 0.27402 0.21487 0.14169 0.0
C1514 C 0.24638 0.22965 0.17874 0.0
C1515 C 0.25623 0.22464 0.2134 0.0
C1516 C 0.27503 0.21468 0.21217 0.0
H1517 H 0.22377 0.2474 0.45186 0.0
H1518 H 0.23829 0.23373 0.39251 0.0
C1519 C 0.28393 0.20992 0.17654 0.0
C1520 C 0.24651 0.22975 0.25066 0.0
H1521 H 0.25188 0.25887 0.33169 0.0
C1522 C 0.22732 0.22155 0.25864 0.0
C1523 C 0.25552 0.24337 0.2772 0.0
C1524 C 0.27573 0.25327 0.2693 0.0
C1525 C 0.21688 0.22658 0.29268 0.0
C1526 C 0.22584 0.24031 0.31903 0.0
C1527 C 0.24512 0.24832 0.31129 0.0
C1528 C 0.21552 0.24675 0.35488 0.0
C1529 C 0.19648 0.21708 0.30039 0.0
C1530 C 0.1977 0.25835 0.35327 0.0
C1531 C 0.18927 0.26625 0.38726 0.0
C1532 C 0.19871 0.26277 0.42322 0.0
C1533 C 0.21618 0.25052 0.42465 0.0
C1534 C 0.22452 0.24265 0.39079 0.0
H1535 H 0.19391 0.20344 0.28209 0.0
H1536 H 0.19504 0.21269 0.33135 0.0
H1537 H 0.1844 0.22826 0.29375 0.0
H1538 H 0.19073 0.26192 0.32565 0.0
H1539 H 0.17588 0.27569 0.38515 0.0
H1540 H 0.46473 0.48976 0.68059 0.0
H1541 H 0.47712 0.50576 0.62164 0.0
H1542 H 0.48148 0.44721 0.56646 0.0
H1543 H 0.4688 0.4309 0.62542 0.0
H1544 H 0.51433 0.49878 0.58607 0.0
H1545 H 0.44994 0.48161 0.4875 0.0
H1546 H 0.44806 0.4794 0.53955 0.0
H1547 H 0.46029 0.45984 0.51182 0.0
C1548 C 0.46819 0.4802 0.65592 0.0
C1549 C 0.46579 0.45899 0.65776 0.0
C1550 C 0.47527 0.48943 0.62226 0.0
C1551 C 0.48002 0.47768 0.58974 0.0
C1552 C 0.47754 0.45654 0.59118 0.0
H1553 H 0.53128 0.49925 0.36644 0.0
H1554 H 0.51848 0.48567 0.42722 0.0
C1555 C 0.47038 0.44725 0.6249 0.0
C1556 C 0.48832 0.48758 0.55488 0.0
H1557 H 0.4796 0.49532 0.45862 0.0
C1558 C 0.50671 0.49816 0.55821 0.0
C1559 C 0.47821 0.48679 0.5188 0.0
C1560 C 0.45794 0.47647 0.51412 0.0
C1561 C 0.5156 0.50751 0.52596 0.0
C1562 C 0.50566 0.50639 0.48976 0.0
C1563 C 0.48714 0.49607 0.48655 0.0
C1564 C 0.51462 0.51499 0.4543 0.0
C1565 C 0.53578 0.51802 0.53053 0.0
C1566 C 0.51687 0.53603 0.44973 0.0
C1567 C 0.52424 0.54394 0.41487 0.0
C1568 C 0.5293 0.53088 0.38412 0.0
C1569 C 0.52741 0.50979 0.38937 0.0
C1570 C 0.5201 0.50195 0.42408 0.0
H1571 H 0.54318 0.51426 0.55858 0.0
H1572 H 0.54616 0.51378 0.50654 0.0
H1573 H 0.53347 0.53469 0.52936 0.0
H1574 H 0.51246 0.54631 0.47271 0.0
H1575 H 0.52545 0.56024 0.4117 0.0
H1576 H 0.18831 0.78268 0.65969 0.0
H1577 H 0.20545 0.77172 0.71907 0.0
H1578 H 0.26272 0.77143 0.65899 0.0
H1579 H 0.24593 0.78262 0.59984 0.0
H1580 H 0.22746 0.73554 0.72667 0.0
H1581 H 0.27581 0.80251 0.75863 0.0
H1582 H 0.25449 0.80362 0.72579 0.0
H1583 H 0.27815 0.79288 0.71013 0.0
C1584 C 0.20458 0.78055 0.65921 0.0
C1585 C 0.21571 0.7835 0.62494 0.0
C1586 C 0.21433 0.77427 0.69314 0.0
C1587 C 0.23535 0.771 0.69342 0.0
C1588 C 0.24654 0.77426 0.65954 0.0
H1589 H 0.31638 0.72005 0.86967 0.0
H1590 H 0.30267 0.7332 0.80837 0.0
C1591 C 0.23685 0.78053 0.62567 0.0
C1592 C 0.24539 0.76283 0.72838 0.0
H1593 H 0.28196 0.7728 0.79585 0.0
C1594 C 0.23933 0.74371 0.74188 0.0
C1595 C 0.26102 0.77347 0.7478 0.0
C1596 C 0.26767 0.79434 0.73512 0.0
C1597 C 0.24847 0.7349 0.77444 0.0
C1598 C 0.26388 0.74564 0.79416 0.0
C1599 C 0.2702 0.76462 0.78038 0.0
C1600 C 0.27246 0.73802 0.83085 0.0
C1601 C 0.24162 0.71416 0.78751 0.0
C1602 C 0.26004 0.73674 0.86358 0.0
C1603 C 0.26773 0.72935 0.89838 0.0
C1604 C 0.28809 0.7231 0.90125 0.0
C1605 C 0.30063 0.72465 0.86841 0.0
C1606 C 0.29286 0.73217 0.83346 0.0
H1607 H 0.23354 0.70588 0.76406 0.0
H1608 H 0.25471 0.70486 0.79728 0.0
H1609 H 0.23106 0.71584 0.81232 0.0
H1610 H 0.24432 0.74148 0.86217 0.0
H1611 H 0.25759 0.72846 0.92298 0.0
H1612 H 0.02952 0.50054 0.17573 0.0
H1613 H 0.01339 0.48982 0.11569 0.0
H1614 H 0.01002 0.55206 0.07767 0.0
H1615 H 0.02644 0.56309 0.13788 0.0
H1616 H 0.97477 0.50174 0.08866 0.0
H1617 H 0.03641 0.52201 0.98566 0.0
H1618 H 0.04056 0.52008 0.03727 0.0
H1619 H 0.02805 0.54194 0.01742 0.0
C1620 C 0.02549 0.51203 0.15462 0.0
C1621 C 0.02928 0.53273 0.16168 0.0
C1622 C 0.01623 0.50583 0.12033 0.0
C1623 C 0.01063 0.52013 0.0923 0.0
C1624 C 0.0145 0.54078 0.09886 0.0
H1625 H 0.95713 0.50131 0.86533 0.0
H1626 H 0.9687 0.51639 0.92592 0.0
C1627 C 0.02384 0.54705 0.13327 0.0
C1628 C 0.00035 0.5132 0.05666 0.0
H1629 H 0.00641 0.50851 0.95896 0.0
C1630 C 0.98162 0.50327 0.06023 0.0
C1631 C 0.00937 0.51528 0.01977 0.0
C1632 C 0.02978 0.52526 0.01459 0.0
C1633 C 0.97167 0.49523 0.02775 0.0
C1634 C 0.9809 0.49694 0.99098 0.0
C1635 C -0.00058 0.50724 0.9873 0.0
C1636 C 0.97192 0.48776 0.9559 0.0
C1637 C 0.95137 0.48508 0.033 0.0
C1638 C 0.96966 0.46664 0.95294 0.0
C1639 C 0.96301 0.45789 0.91828 0.0
C1640 C 0.9587 0.47016 0.88594 0.0
C1641 C 0.96042 0.49137 0.88954 0.0
C1642 C 0.96702 0.50006 0.92415 0.0
H1643 H 0.94399 0.48977 0.06052 0.0
H1644 H 0.94103 0.48866 0.00849 0.0
H1645 H 0.95354 0.46839 0.03391 0.0
H1646 H 0.97371 0.45688 0.977 0.0
H1647 H 0.96193 0.44152 0.91646 0.0
H1648 H 0.67806 0.77352 0.87023 0.0
H1649 H 0.69325 0.76071 0.81003 0.0
H1650 H 0.75265 0.77691 0.8521 0.0
H1651 H 0.73784 0.78966 0.91187 0.0
H1652 H 0.72193 0.78118 0.75476 0.0
H1653 H 0.75401 0.71403 0.83086 0.0
H1654 H 0.73349 0.72893 0.8506 0.0
H1655 H 0.75906 0.73817 0.85313 0.0
C1656 C 0.69431 0.77459 0.86639 0.0
C1657 C 0.70677 0.78229 0.89603 0.0
C1658 C 0.70294 0.76725 0.83213 0.0
C1659 C 0.72404 0.76755 0.82729 0.0
C1660 C 0.73636 0.77623 0.85583 0.0
H1661 H 0.80989 0.72326 0.6574 0.0
H1662 H 0.7935 0.73723 0.71538 0.0
C1663 C 0.72783 0.78351 0.88991 0.0
C1664 C 0.7335 0.75819 0.79312 0.0
H1665 H 0.76459 0.71936 0.76606 0.0
C1666 C 0.73114 0.76759 0.75702 0.0
C1667 C 0.74559 0.74057 0.7966 0.0
C1668 C 0.74812 0.72969 0.8348 0.0
C1669 C 0.74097 0.75999 0.7241 0.0
C1670 C 0.75306 0.74234 0.72757 0.0
C1671 C 0.75535 0.73292 0.7637 0.0
C1672 C 0.76298 0.7331 0.69368 0.0
C1673 C 0.73868 0.77113 0.68612 0.0
C1674 C 0.75116 0.72562 0.66318 0.0
C1675 C 0.76039 0.71771 0.63027 0.0
C1676 C 0.78165 0.71698 0.62737 0.0
C1677 C 0.79349 0.72367 0.65877 0.0
C1678 C 0.78419 0.73169 0.69177 0.0
H1679 H 0.73352 0.78701 0.69049 0.0
H1680 H 0.75321 0.77135 0.6699 0.0
H1681 H 0.72721 0.76326 0.668 0.0
H1682 H 0.73476 0.7261 0.66468 0.0
H1683 H 0.7508 0.71239 0.60687 0.0
H1684 H 0.74448 0.29407 0.1225 0.0
H1685 H 0.76168 0.28762 0.18399 0.0
H1686 H 0.70478 0.27082 0.23615 0.0
H1687 H 0.68728 0.27728 0.17461 0.0
H1688 H 0.75198 0.30311 0.26619 0.0
H1689 H 0.74573 0.21987 0.24028 0.0
H1690 H 0.74359 0.23822 0.2016 0.0
H1691 H 0.72303 0.2348 0.23491 0.0
C1692 C 0.73554 0.28921 0.14713 0.0
C1693 C 0.71454 0.28593 0.14359 0.0
C1694 C 0.7454 0.28565 0.18222 0.0
C1695 C 0.73447 0.27863 0.21424 0.0
C1696 C 0.7134 0.27618 0.21149 0.0
H1697 H 0.76757 0.25182 0.44861 0.0
H1698 H 0.75426 0.26721 0.38953 0.0
C1699 C 0.70346 0.2799 0.1764 0.0
C1700 C 0.74542 0.27234 0.24945 0.0
H1701 H 0.76083 0.2303 0.2989 0.0
C1702 C 0.75394 0.28722 0.2735 0.0
C1703 C 0.74817 0.25159 0.25821 0.0
C1704 C 0.7398 0.2351 0.23238 0.0
C1705 C 0.76487 0.28181 0.30688 0.0
C1706 C 0.76721 0.26105 0.31609 0.0
C1707 C 0.75901 0.2462 0.29156 0.0
C1708 C 0.77713 0.25424 0.35213 0.0
C1709 C 0.7739 0.29824 0.33193 0.0
C1710 C 0.79452 0.242 0.35056 0.0
C1711 C 0.8022 0.23314 0.38432 0.0
C1712 C 0.79237 0.23616 0.41999 0.0
C1713 C 0.77542 0.2491 0.42155 0.0
C1714 C 0.76788 0.25805 0.38789 0.0
H1715 H 0.77493 0.31293 0.31624 0.0
H1716 H 0.76418 0.30049 0.3578 0.0
H1717 H 0.78926 0.29386 0.34214 0.0
H1718 H 0.80174 0.23881 0.32304 0.0
H1719 H 0.81523 0.22321 0.38215 0.0
H1720 H 0.02926 0.05131 0.91066 0.0
H1721 H 0.01823 0.03477 0.97044 0.0
H1722 H 0.01612 0.97712 0.91144 0.0
H1723 H 0.02698 0.9934 0.85152 0.0
H1724 H 0.98047 0.98731 0.95245 0.0
H1725 H 0.04952 0.99592 0.04306 0.0
H1726 H 0.04108 0.01901 0.02053 0.0
H1727 H 0.04988 -0.00162 0.9909 0.0
C1728 C 0.02666 0.03508 0.91044 0.0
C1729 C 0.02895 0.02371 0.87624 0.0
C1730 C 0.02047 0.02565 0.94466 0.0
C1731 C 0.01659 0.00473 0.94526 0.0
C1732 C 0.01915 0.99328 0.91145 0.0
H1733 H 0.96246 0.93152 0.13125 0.0
H1734 H 0.97742 0.94134 0.06899 0.0
C1735 C 0.02536 0.00266 0.87727 0.0
C1736 C 0.0086 0.99503 0.98055 0.0
H1737 H 0.01913 0.98654 0.07589 0.0
C1738 C 0.98897 0.98688 0.97939 0.0
C1739 C 0.01984 0.99448 0.01538 0.0
C1740 C 0.04133 0.00224 0.01762 0.0
C1741 C 0.97986 0.979 0.01282 0.0
C1742 C 0.99088 0.97905 0.04796 0.0
C1743 C 0.01076 0.98659 0.04879 0.0
C1744 C 0.98156 0.97283 0.0849 0.0
C1745 C 0.95826 0.97154 0.01073 0.0
C1746 C 0.97915 0.98727 0.11428 0.0
C1747 C 0.97077 0.98176 0.14971 0.0
C1748 C 0.96465 0.96162 0.15653 0.0
C1749 C 0.96693 0.94716 0.12684 0.0
C1750 C 0.97541 0.95273 0.09128 0.0
H1751 H 0.95072 0.97601 0.9832 0.0
H1752 H 0.95813 0.95473 0.01261 0.0
H1753 H 0.94927 0.97755 0.03538 0.0
H1754 H 0.98379 0.00287 0.10976 0.0
H1755 H 0.96919 0.99333 0.1718 0.0
H1756 H 0.51881 0.07341 0.6238 0.0
H1757 H 0.50259 0.06193 0.5635 0.0
H1758 H 0.4913 0.00344 0.61514 0.0
H1759 H 0.50699 0.01461 0.67495 0.0
H1760 H 0.51491 0.0294 0.51803 0.0
H1761 H 0.43639 0.01712 0.56872 0.0
H1762 H 0.45452 0.03211 0.59562 0.0
H1763 H 0.45457 0.00486 0.59953 0.0
C1764 C 0.51266 0.05819 0.6224 0.0
C1765 C 0.51422 0.04497 0.65429 0.0
C1766 C 0.50339 0.05168 0.588 0.0
C1767 C 0.49538 0.03199 0.58524 0.0
C1768 C 0.49687 0.01887 0.61701 0.0
H1769 H 0.46082 0.94354 0.41683 0.0
H1770 H 0.46851 0.96317 0.47549 0.0
C1771 C 0.50608 0.02529 0.65115 0.0
C1772 C 0.48691 0.02424 0.54843 0.0
H1773 H 0.44621 -0.00111 0.51097 0.0
C1774 C 0.49976 0.02309 0.51617 0.0
C1775 C 0.46714 0.01596 0.54625 0.0
C1776 C 0.4523 0.01775 0.5793 0.0
C1777 C 0.49373 0.01292 0.48238 0.0
C1778 C 0.4743 0.0039 0.48086 0.0
C1779 C 0.46117 0.00566 0.51255 0.0
C1780 C 0.46762 0.99229 0.44662 0.0
C1781 C 0.50845 0.01119 0.44908 0.0
C1782 C 0.464 0.00232 0.41157 0.0
C1783 C 0.45962 0.99125 0.3782 0.0
C1784 C 0.45877 0.96989 0.37927 0.0
C1785 C 0.46144 0.95994 0.41497 0.0
C1786 C 0.46583 0.9711 0.44845 0.0
H1787 H 0.52401 0.01596 0.4574 0.0
H1788 H 0.50903 0.99533 0.43822 0.0
H1789 H 0.50327 0.02101 0.42489 0.0
H1790 H 0.46506 0.0187 0.40983 0.0
H1791 H 0.45739 -0.00053 0.35135 0.0
H1792 H 0.18329 0.28355 0.6803 0.0
H1793 H 0.2012 0.26626 0.73278 0.0
H1794 H 0.2562 0.29781 0.70258 0.0
H1795 H 0.23824 0.31537 0.65 0.0
H1796 H 0.23646 0.24173 0.70606 0.0
H1797 H 0.25439 0.29564 0.82584 0.0
H1798 H 0.23284 0.29936 0.79419 0.0
H1799 H 0.25796 0.3038 0.77644 0.0
C1800 C 0.19896 0.28751 0.68603 0.0
C1801 C 0.20941 0.30078 0.66125 0.0
C1802 C 0.20919 0.27751 0.71577 0.0
C1803 C 0.23 0.28066 0.72121 0.0
C1804 C 0.24008 0.29534 0.69893 0.0
H1805 H 0.306 0.21661 0.88702 0.0
H1806 H 0.29677 0.23655 0.82974 0.0
C1807 C 0.22977 0.30549 0.66917 0.0
C1808 C 0.24145 0.26639 0.74594 0.0
H1809 H 0.26525 0.26187 0.83315 0.0
C1810 C 0.24291 0.24611 0.73377 0.0
C1811 C 0.25005 0.2723 0.7816 0.0
C1812 C 0.24876 0.29393 0.79564 0.0
C1813 C 0.25234 0.23139 0.75692 0.0
C1814 C 0.2601 0.23705 0.79354 0.0
C1815 C 0.25929 0.25753 0.80503 0.0
C1816 C 0.2677 0.22191 0.8218 0.0
C1817 C 0.25382 0.20993 0.74194 0.0
C1818 C 0.25483 0.20641 0.83519 0.0
C1819 C 0.26031 0.19475 0.8674 0.0
C1820 C 0.2786 0.19858 0.88669 0.0
C1821 C 0.29204 0.21311 0.87182 0.0
C1822 C 0.28667 0.22463 0.83946 0.0
H1823 H 0.25385 0.20958 0.70973 0.0
H1824 H 0.26772 0.20226 0.75268 0.0
H1825 H 0.24044 0.20119 0.75195 0.0
H1826 H 0.23991 0.20436 0.82269 0.0
H1827 H 0.24948 0.18407 0.87926 0.0
H1828 H 0.46764 0.42627 0.90904 0.0
H1829 H 0.48495 0.43946 0.96638 0.0
H1830 H 0.442 0.48874 0.9722 0.0
H1831 H 0.42439 0.47528 0.91507 0.0
H1832 H 0.50218 0.4775 0.95749 0.0
H1833 H 0.45231 0.47539 0.08689 0.0
H1834 H 0.44825 0.45932 0.04516 0.0
H1835 H 0.44047 0.48544 0.04407 0.0
C1836 C 0.46132 0.43934 0.9238 0.0
C1837 C 0.4447 0.44978 0.90798 0.0
C1838 C 0.47129 0.44693 0.95631 0.0
C1839 C 0.46482 0.46511 0.97334 0.0
C1840 C 0.44705 0.47452 0.95979 0.0
H1841 H 0.51496 0.5519 0.13146 0.0
H1842 H 0.49683 0.53505 0.07872 0.0
C1843 C 0.43693 0.4668 0.92731 0.0
C1844 C 0.47849 0.47586 0.00038 0.0
H1845 H 0.48146 0.49662 0.09061 0.0
C1846 C 0.49774 0.48154 0.98676 0.0
C1847 C 0.47257 0.48118 0.0383 0.0
C1848 C 0.45234 0.47488 0.0547 0.0
C1849 C 0.51111 0.49284 0.00984 0.0
C1850 C 0.50511 0.49836 0.04764 0.0
C1851 C 0.48595 0.49246 0.06143 0.0
C1852 C 0.5183 0.51038 0.0736 0.0
C1853 C 0.53126 0.49926 0.99321 0.0
C1854 C 0.53691 0.50259 0.08676 0.0
C1855 C 0.54751 0.51243 0.11646 0.0
C1856 C 0.53938 0.52995 0.13361 0.0
C1857 C 0.52154 0.53846 0.11845 0.0
C1858 C 0.51111 0.52878 0.08862 0.0
H1859 H 0.5314 0.49825 0.96106 0.0
H1860 H 0.53502 0.51506 0.00183 0.0
H1861 H 0.54331 0.48912 0.00455 0.0
H1862 H 0.54255 0.48824 0.07593 0.0
H1863 H 0.56101 0.50538 0.12827 0.0
H1864 H 0.17847 0.75954 0.3872 0.0
H1865 H 0.1902 0.73966 0.33179 0.0
H1866 H 0.22832 0.7894 0.29616 0.0
H1867 H 0.21641 0.80954 0.35161 0.0
H1868 H 0.20895 0.76364 0.23304 0.0
H1869 H 0.25111 0.72117 0.34716 0.0
H1870 H 0.2242 0.72367 0.35398 0.0
H1871 H 0.24003 0.7458 0.35583 0.0
C1872 C 0.18873 0.76653 0.36663 0.0
C1873 C 0.19666 0.78599 0.37362 0.0
C1874 C 0.19548 0.75513 0.33519 0.0
C1875 C 0.21039 0.76296 0.31054 0.0
C1876 C 0.21682 0.78314 0.31509 0.0
H1877 H 0.30131 0.71838 0.16055 0.0
H1878 H 0.2814 0.73313 0.21326 0.0
C1879 C 0.20992 0.79467 0.34652 0.0
C1880 C 0.22123 0.74923 0.28385 0.0
H1881 H 0.25536 0.71021 0.28268 0.0
C1882 C 0.21895 0.75184 0.24378 0.0
C1883 C 0.23437 0.73397 0.29821 0.0
C1884 C 0.23777 0.73098 0.34112 0.0
C1885 C 0.22961 0.73955 0.21758 0.0
C1886 C 0.24282 0.72442 0.23198 0.0
C1887 C 0.24498 0.72169 0.27198 0.0
C1888 C 0.256 0.7128 0.20566 0.0
C1889 C 0.22722 0.74308 0.17461 0.0
C1890 C 0.24861 0.69584 0.18554 0.0
C1891 C 0.26011 0.68715 0.1558 0.0
C1892 C 0.27895 0.69557 0.14572 0.0
C1893 C 0.28688 0.71158 0.16796 0.0
C1894 C 0.27551 0.72006 0.19786 0.0
H1895 H 0.21637 0.75552 0.16808 0.0
H1896 H 0.24214 0.74692 0.16171 0.0
H1897 H 0.22179 0.72896 0.16043 0.0
H1898 H 0.23353 0.6901 0.19136 0.0
H1899 H 0.25354 0.67504 0.13864 0.0
H1900 H 0.04425 0.54795 0.42689 0.0
H1901 H 0.02515 0.5321 0.47949 0.0
H1902 H 0.0496 0.4737 0.44784 0.0
H1903 H 0.06913 0.48972 0.39569 0.0
H1904 H -0.00371 0.50356 0.45479 0.0
H1905 H 0.04715 0.47075 0.56749 0.0
H1906 H 0.05516 0.49098 0.53565 0.0
H1907 H 0.05346 0.46548 0.51778 0.0
C1908 C 0.04644 0.53194 0.43271 0.0
C1909 C 0.05836 0.52006 0.40791 0.0
C1910 C 0.03537 0.52285 0.4624 0.0
C1911 C 0.0359 0.50172 0.46744 0.0
C1912 C 0.04922 0.49005 0.44486 0.0
H1913 H 0.95441 0.43189 0.61911 0.0
H1914 H 0.9765 0.43898 0.56324 0.0
C1915 C 0.06049 0.49922 0.41529 0.0
C1916 C 0.0201 0.4919 0.49142 0.0
H1917 H 0.0121 0.46431 0.57368 0.0
C1918 C -0.00024 0.49489 0.4807 0.0
C1919 C 0.02469 0.48025 0.52465 0.0
C1920 C 0.04627 0.4767 0.5374 0.0
C1921 C 0.98385 0.48723 0.50318 0.0
C1922 C 0.98839 0.47644 0.53744 0.0
C1923 C 0.00871 0.47256 0.54723 0.0
C1924 C 0.97247 0.47153 0.56607 0.0
C1925 C 0.96229 0.49109 0.49053 0.0
C1926 C 0.96252 0.48744 0.58519 0.0
C1927 C 0.95007 0.48343 0.61686 0.0
C1928 C 0.9472 0.46345 0.62967 0.0
C1929 C 0.95603 0.44737 0.60901 0.0
C1930 C 0.96879 0.45142 0.57751 0.0
H1931 H 0.96132 0.49393 0.45884 0.0
H1932 H 0.95235 0.47806 0.49794 0.0
H1933 H 0.95645 0.50473 0.5057 0.0
H1934 H 0.96541 0.50307 0.57721 0.0
H1935 H 0.94371 0.49605 0.63291 0.0
H1936 H 0.7315 0.81871 0.15513 0.0
H1937 H 0.74756 0.80099 0.2099 0.0
H1938 H 0.70138 0.75476 0.20477 0.0
H1939 H 0.68555 0.77219 0.14998 0.0
H1940 H 0.73379 0.78375 0.28515 0.0
H1941 H 0.7558 0.72592 0.17565 0.0
H1942 H 0.74668 0.75081 0.16245 0.0
H1943 H 0.72918 0.73156 0.17785 0.0
C1944 C 0.72432 0.80529 0.16694 0.0
C1945 C 0.70734 0.79676 0.14861 0.0
C1946 C 0.73359 0.79507 0.19785 0.0
C1947 C 0.72588 0.77635 0.21055 0.0
C1948 C 0.70771 0.76901 0.19485 0.0
H1949 H 0.76549 0.68234 0.36834 0.0
H1950 H 0.74989 0.70082 0.31411 0.0
C1951 C 0.69858 0.77907 0.16392 0.0
C1952 C 0.73778 0.76339 0.23708 0.0
H1953 H 0.76362 0.71847 0.24117 0.0
C1954 C 0.74041 0.76954 0.27559 0.0
C1955 C 0.74635 0.74485 0.2243 0.0
C1956 C 0.74455 0.7379 0.18273 0.0
C1957 C 0.75107 0.75738 0.30204 0.0
C1958 C 0.75965 0.73883 0.28927 0.0
C1959 C 0.75704 0.7327 0.25073 0.0
C1960 C 0.77131 0.72568 0.31589 0.0
C1961 C 0.7527 0.76425 0.34368 0.0
C1962 C 0.78922 0.73291 0.33278 0.0
C1963 C 0.79811 0.72242 0.36347 0.0
C1964 C 0.78935 0.70442 0.3774 0.0
C1965 C 0.77266 0.69605 0.35779 0.0
C1966 C 0.76364 0.70669 0.32715 0.0
H1967 H 0.74135 0.77615 0.35071 0.0
H1968 H 0.75058 0.75129 0.36385 0.0
H1969 H 0.76801 0.77068 0.34879 0.0
H1970 H 0.79559 0.74733 0.32386 0.0
H1971 H 0.81099 0.72915 0.37817 0.0
H1972 H 0.79783 0.2043 0.67427 0.0
H1973 H 0.77778 0.21358 0.731 0.0
H1974 H 0.72814 0.17706 0.68896 0.0
H1975 H 0.74833 0.16756 0.63199 0.0
H1976 H 0.71907 0.21927 0.70231 0.0
H1977 H 0.75695 0.18415 0.82903 0.0
H1978 H 0.77431 0.19622 0.79628 0.0
H1979 H 0.75994 0.17459 0.78025 0.0
C1980 C 0.78294 0.19763 0.6779 0.0
C1981 C 0.77466 0.18511 0.64903 0.0
C1982 C 0.7715 0.20294 0.71027 0.0
C1983 C 0.75153 0.19594 0.71419 0.0
C1984 C 0.74359 0.18248 0.68652 0.0
H1985 H 0.6889 0.23905 0.9198 0.0
H1986 H 0.69733 0.21752 0.86461 0.0
C1987 C 0.75519 0.17691 0.65427 0.0
C1988 C 0.73847 0.20489 0.74447 0.0
H1989 H 0.73673 0.21375 0.84168 0.0
C1990 C 0.7226 0.21776 0.7329 0.0
C1991 C 0.74308 0.20281 0.78423 0.0
C1992 C 0.75938 0.18854 0.79829 0.0
C1993 C 0.71197 0.22953 0.76005 0.0
C1994 C 0.71752 0.22847 0.79956 0.0
C1995 C 0.7326 0.2147 0.81128 0.0
C1996 C 0.70875 0.24209 0.82928 0.0
C1997 C 0.69515 0.24323 0.74616 0.0
C1998 C 0.7117 0.2632 0.82716 0.0
C1999 C 0.70676 0.27564 0.85871 0.0
C2000 C 0.69913 0.26702 0.8929 0.0
C2001 C 0.69501 0.24607 0.89391 0.0
C2002 C 0.69978 0.23374 0.86242 0.0
H2003 H 0.68884 0.23797 0.71802 0.0
H2004 H 0.6827 0.24404 0.76773 0.0
H2005 H 0.70125 0.25876 0.7419 0.0
H2006 H 0.71893 0.26991 0.80208 0.0
H2007 H 0.71019 0.2917 0.85732 0.0
H2008 H 0.92693 0.01033 0.39133 0.0
H2009 H 0.94735 0.02456 0.44404 0.0
H2010 H 0.96485 0.96418 0.47872 0.0
H2011 H 0.94436 0.94991 0.42591 0.0
H2012 H 0.9537 0.01705 0.5297 0.0
H2013 H 0.01667 0.99378 0.43221 0.0
H2014 H 0.99066 0.99517 0.4161 0.0
H2015 H -0.001 0.97415 0.44513 0.0
C2016 C 0.93422 0.0001 0.41163 0.0
C2017 C 0.93395 0.97908 0.40515 0.0
C2018 C 0.94601 0.00823 0.44143 0.0
C2019 C 0.95781 0.99539 0.46466 0.0
C2020 C 0.95587 0.97427 0.46081 0.0
H2021 H 0.0538 0.00329 0.62449 0.0
H2022 H 0.03153 0.99537 0.57001 0.0
C2023 C 0.94398 0.96613 0.43108 0.0
C2024 C 0.9743 0.00407 0.48834 0.0
H2025 H 0.02585 0.00783 0.49282 0.0
C2026 C 0.96948 0.01518 0.52168 0.0
C2027 C 0.99481 0.0018 0.47717 0.0
C2028 C 0.0007 0.99073 0.44054 0.0
C2029 C 0.98479 0.02332 0.54534 0.0
C2030 C 0.00535 0.02063 0.53465 0.0
C2031 C 0.01008 0.01 0.50067 0.0
C2032 C 0.02208 0.02645 0.5609 0.0
C2033 C 0.97887 0.03391 0.58245 0.0
C2034 C 0.02522 0.04674 0.57188 0.0
C2035 C 0.03822 0.05133 0.60278 0.0
C2036 C 0.04806 0.03562 0.62283 0.0
C2037 C 0.04646 0.01563 0.60915 0.0
C2038 C 0.03364 0.01109 0.57828 0.0
H2039 H 0.96263 0.0316 0.58966 0.0
H2040 H 0.98822 0.02838 0.60707 0.0
H2041 H 0.98155 0.05046 0.57936 0.0
H2042 H 0.01665 0.05882 0.55827 0.0
H2043 H 0.03901 0.0668 0.61329 0.0
H2044 H 0.53533 0.04939 0.9135 0.0
H2045 H 0.52466 0.02881 0.96876 0.0
H2046 H 0.56319 0.97999 0.93013 0.0
H2047 H 0.57414 0.00077 0.87472 0.0
H2048 H 0.51958 0.97099 0.9388 0.0
H2049 H 0.5531 0.00729 0.06909 0.0
H2050 H 0.5421 0.02476 0.03502 0.0
H2051 H 0.56386 0.01005 0.02121 0.0
C2052 C 0.54213 0.03458 0.91771 0.0
C2053 C 0.55571 0.0267 0.89031 0.0
C2054 C 0.53599 0.02283 0.94914 0.0
C2055 C 0.54319 0.00294 0.95345 0.0
C2056 C 0.55762 0.99538 0.92731 0.0
H2057 H 0.50054 0.93637 0.15369 0.0
H2058 H 0.5214 0.94565 0.09812 0.0
C2059 C 0.56403 0.0073 0.89605 0.0
C2060 C 0.53369 0.98958 0.98258 0.0
H2061 H 0.52422 0.98609 0.07935 0.0
C2062 C 0.52085 0.97398 0.96963 0.0
C2063 C 0.53542 0.99356 0.02261 0.0
C2064 C 0.5495 0.00971 0.03796 0.0
C2065 C 0.50893 0.96284 -0.00423 0.0
C2066 C 0.50986 0.96759 0.03566 0.0
C2067 C 0.52343 0.98255 0.04867 0.0
C2068 C 0.49649 0.95789 0.06468 0.0
C2069 C 0.49527 0.94633 0.98053 0.0
C2070 C 0.47538 0.96091 0.06356 0.0
C2071 C 0.46333 0.95544 0.09531 0.0
C2072 C 0.47237 0.94719 0.12861 0.0
C2073 C 0.49324 0.94284 0.12838 0.0
C2074 C 0.50517 0.94813 0.09671 0.0
H2075 H 0.50027 0.94089 0.95159 0.0
H2076 H 0.49479 0.93324 0.00079 0.0
H2077 H 0.47965 0.95238 0.97752 0.0
H2078 H 0.46844 0.96872 0.03933 0.0
H2079 H 0.44733 0.95911 0.09501 0.0
loop_
_geom_bond_atom_site_label_1
_geom_bond_atom_site_label_2
_geom_bond_distance
_geom_bond_site_symmetry_2
_ccdc_geom_bond_type
Sc0 O3 2.025 . S
Sc0 O10 2.105 . S
Sc0 O13 2.105 . S
Sc0 O16 2.105 . S
Sc0 O19 2.105 1_554 S
Sc1 O3 2.025 1_556 S
Sc1 O11 2.105 . S
Sc1 O15 2.105 1_556 S
Sc1 O17 2.105 . S
Sc1 O21 2.105 . S
Sc2 O3 2.025 . S
Sc2 O12 2.105 . S
Sc2 O14 2.105 . S
Sc2 O18 2.105 . S
Sc2 O20 2.105 . S
O3 Sc0 2.025 . S
O3 Sc1 2.025 1_554 S
O3 Sc2 2.025 . S
C4 O10 1.268 . S
C4 O20 1.268 . S
C5 O11 1.268 . S
C5 O19 1.268 . S
C6 O12 1.268 1_556 S
C6 O21 1.268 . S
C7 O13 1.268 . S
C7 O17 1.268 1_554 S
C8 O14 1.268 . S
C8 O16 1.268 . S
C9 O15 1.268 . S
C9 O18 1.268 . S
O10 Sc0 2.105 . S
O10 C4 1.268 . S
O11 Sc1 2.105 . S
O11 C5 1.268 . S
O12 Sc2 2.105 . S
O12 C6 1.268 1_554 S
O13 Sc0 2.105 . S
O13 C7 1.268 . S
O14 Sc2 2.105 . S
O14 C8 1.268 . S
O15 Sc1 2.105 1_554 S
O15 C9 1.268 . S
O16 Sc0 2.105 . S
O16 C8 1.268 . S
O17 Sc1 2.105 . S
O17 C7 1.268 1_556 S
O18 Sc2 2.105 . S
O18 C9 1.268 . S
O19 Sc0 2.105 1_556 S
O19 C5 1.268 . S
O20 Sc2 2.105 . S
O20 C4 1.268 . S
O21 Sc1 2.105 . S
O21 C6 1.268 . S
Sc22 O25 2.025 . S
Sc22 O32 2.105 . S
Sc22 O35 2.105 . S
Sc22 O38 2.105 . S
Sc22 O41 2.105 . S
Sc23 O25 2.025 . S
Sc23 O33 2.105 . S
Sc23 O37 2.105 . S
Sc23 O39 2.105 . S
Sc23 O43 2.105 . S
Sc24 O25 2.025 . S
Sc24 O34 2.105 . S
Sc24 O36 2.105 . S
Sc24 O40 2.105 . S
Sc24 O42 2.105 . S
O25 Sc22 2.025 . S
O25 Sc23 2.025 . S
O25 Sc24 2.025 . S
C26 O32 1.268 . S
C26 O42 1.268 . S
C27 O33 1.268 . S
C27 O41 1.268 . S
C28 O34 1.268 . S
C28 O43 1.268 . S
C29 O35 1.268 . S
C29 O39 1.268 . S
C30 O36 1.268 . S
C30 O38 1.268 . S
C31 O37 1.268 . S
C31 O40 1.268 . S
O32 Sc22 2.105 . S
O32 C26 1.268 . S
O33 Sc23 2.105 . S
O33 C27 1.268 . S
O34 Sc24 2.105 . S
O34 C28 1.268 . S
O35 Sc22 2.105 . S
O35 C29 1.268 . S
O36 Sc24 2.105 . S
O36 C30 1.268 . S
O37 Sc23 2.105 . S
O37 C31 1.268 . S
O38 Sc22 2.105 . S
O38 C30 1.268 . S
O39 Sc23 2.105 . S
O39 C29 1.268 . S
O40 Sc24 2.105 . S
O40 C31 1.268 . S
O41 Sc22 2.105 . S
O41 C27 1.268 . S
O42 Sc24 2.105 . S
O42 C26 1.268 . S
O43 Sc23 2.105 . S
O43 C28 1.268 . S
Sc44 O47 2.025 . S
Sc44 O54 2.105 . S
Sc44 O57 2.105 . S
Sc44 O60 2.105 . S
Sc44 O63 2.105 . S
Sc45 O47 2.025 . S
Sc45 O55 2.105 . S
Sc45 O59 2.105 . S
Sc45 O61 2.105 . S
Sc45 O65 2.105 . S
Sc46 O47 2.025 . S
Sc46 O56 2.105 . S
Sc46 O58 2.105 . S
Sc46 O62 2.105 . S
Sc46 O64 2.105 . S
O47 Sc44 2.025 . S
O47 Sc45 2.025 . S
O47 Sc46 2.025 . S
C48 O54 1.268 . S
C48 O64 1.268 . S
C49 O55 1.268 . S
C49 O63 1.268 . S
C50 O56 1.268 . S
C50 O65 1.268 . S
C51 O57 1.268 . S
C51 O61 1.268 . S
C52 O58 1.268 . S
C52 O60 1.268 . S
C53 O59 1.268 . S
C53 O62 1.268 . S
O54 Sc44 2.105 . S
O54 C48 1.268 . S
O55 Sc45 2.105 . S
O55 C49 1.268 . S
O56 Sc46 2.105 . S
O56 C50 1.268 . S
O57 Sc44 2.105 . S
O57 C51 1.268 . S
O58 Sc46 2.105 . S
O58 C52 1.268 . S
O59 Sc45 2.105 . S
O59 C53 1.268 . S
O60 Sc44 2.105 . S
O60 C52 1.268 . S
O61 Sc45 2.105 . S
O61 C51 1.268 . S
O62 Sc46 2.105 . S
O62 C53 1.268 . S
O63 Sc44 2.105 . S
O63 C49 1.268 . S
O64 Sc46 2.105 . S
O64 C48 1.268 . S
O65 Sc45 2.105 . S
O65 C50 1.268 . S
Sc66 O69 2.025 . S
Sc66 O76 2.105 . S
Sc66 O79 2.105 . S
Sc66 O82 2.105 . S
Sc66 O85 2.105 . S
Sc67 O69 2.025 . S
Sc67 O77 2.105 . S
Sc67 O81 2.105 . S
Sc67 O83 2.105 . S
Sc67 O87 2.105 . S
Sc68 O69 2.025 . S
Sc68 O78 2.105 . S
Sc68 O80 2.105 . S
Sc68 O84 2.105 . S
Sc68 O86 2.105 . S
O69 Sc66 2.025 . S
O69 Sc67 2.025 . S
O69 Sc68 2.025 . S
C70 O76 1.268 . S
C70 O86 1.268 . S
C71 O77 1.268 . S
C71 O85 1.268 . S
C72 O78 1.268 . S
C72 O87 1.268 . S
C73 O79 1.268 . S
C73 O83 1.268 . S
C74 O80 1.268 . S
C74 O82 1.268 . S
C75 O81 1.268 . S
C75 O84 1.268 . S
O76 Sc66 2.105 . S
O76 C70 1.268 . S
O77 Sc67 2.105 . S
O77 C71 1.268 . S
O78 Sc68 2.105 . S
O78 C72 1.268 . S
O79 Sc66 2.105 . S
O79 C73 1.268 . S
O80 Sc68 2.105 . S
O80 C74 1.268 . S
O81 Sc67 2.105 . S
O81 C75 1.268 . S
O82 Sc66 2.105 . S
O82 C74 1.268 . S
O83 Sc67 2.105 . S
O83 C73 1.268 . S
O84 Sc68 2.105 . S
O84 C75 1.268 . S
O85 Sc66 2.105 . S
O85 C71 1.268 . S
O86 Sc68 2.105 . S
O86 C70 1.268 . S
O87 Sc67 2.105 . S
O87 C72 1.268 . S
Sc88 O91 2.025 . S
Sc88 O98 2.105 1_554 S
Sc88 O101 2.105 . S
Sc88 O104 2.105 . S
Sc88 O107 2.105 . S
Sc89 O91 2.025 . S
Sc89 O99 2.105 . S
Sc89 O103 2.105 . S
Sc89 O105 2.105 . S
Sc89 O109 2.105 . S
Sc90 O91 2.025 1_556 S
Sc90 O100 2.105 . S
Sc90 O102 2.105 1_556 S
Sc90 O106 2.105 1_556 S
Sc90 O108 2.105 . S
O91 Sc88 2.025 . S
O91 Sc89 2.025 . S
O91 Sc90 2.025 1_554 S
C92 O98 1.268 . S
C92 O108 1.268 . S
C93 O99 1.268 . S
C93 O107 1.268 . S
C94 O100 1.268 . S
C94 O109 1.268 1_556 S
C95 O101 1.268 . S
C95 O105 1.268 . S
C96 O102 1.268 . S
C96 O104 1.268 . S
C97 O103 1.268 . S
C97 O106 1.268 . S
O98 Sc88 2.105 1_556 S
O98 C92 1.268 . S
O99 Sc89 2.105 . S
O99 C93 1.268 . S
O100 Sc90 2.105 . S
O100 C94 1.268 . S
O101 Sc88 2.105 . S
O101 C95 1.268 . S
O102 Sc90 2.105 1_554 S
O102 C96 1.268 . S
O103 Sc89 2.105 . S
O103 C97 1.268 . S
O104 Sc88 2.105 . S
O104 C96 1.268 . S
O105 Sc89 2.105 . S
O105 C95 1.268 . S
O106 Sc90 2.105 1_554 S
O106 C97 1.268 . S
O107 Sc88 2.105 . S
O107 C93 1.268 . S
O108 Sc90 2.105 . S
O108 C92 1.268 . S
O109 Sc89 2.105 . S
O109 C94 1.268 1_554 S
Sc110 O113 2.025 . S
Sc110 O120 2.105 . S
Sc110 O123 2.105 . S
Sc110 O126 2.105 . S
Sc110 O129 2.105 . S
Sc111 O113 2.025 . S
Sc111 O121 2.105 . S
Sc111 O125 2.105 . S
Sc111 O127 2.105 . S
Sc111 O131 2.105 . S
Sc112 O113 2.025 . S
Sc112 O122 2.105 . S
Sc112 O124 2.105 . S
Sc112 O128 2.105 . S
Sc112 O130 2.105 . S
O113 Sc110 2.025 . S
O113 Sc111 2.025 . S
O113 Sc112 2.025 . S
C114 O120 1.268 . S
C114 O130 1.268 . S
C115 O121 1.268 . S
C115 O129 1.268 . S
C116 O122 1.268 . S
C116 O131 1.268 . S
C117 O123 1.268 . S
C117 O127 1.268 . S
C118 O124 1.268 . S
C118 O126 1.268 . S
C119 O125 1.268 . S
C119 O128 1.268 . S
O120 Sc110 2.105 . S
O120 C114 1.268 . S
O121 Sc111 2.105 . S
O121 C115 1.268 . S
O122 Sc112 2.105 . S
O122 C116 1.268 . S
O123 Sc110 2.105 . S
O123 C117 1.268 . S
O124 Sc112 2.105 . S
O124 C118 1.268 . S
O125 Sc111 2.105 . S
O125 C119 1.268 . S
O126 Sc110 2.105 . S
O126 C118 1.268 . S
O127 Sc111 2.105 . S
O127 C117 1.268 . S
O128 Sc112 2.105 . S
O128 C119 1.268 . S
O129 Sc110 2.105 . S
O129 C115 1.268 . S
O130 Sc112 2.105 . S
O130 C114 1.268 . S
O131 Sc111 2.105 . S
O131 C116 1.268 . S
Sc132 O135 2.025 . S
Sc132 O142 2.105 . S
Sc132 O145 2.105 . S
Sc132 O148 2.105 . S
Sc132 O151 2.105 . S
Sc133 O135 2.025 . S
Sc133 O143 2.105 . S
Sc133 O147 2.105 . S
Sc133 O149 2.105 . S
Sc133 O153 2.105 . S
Sc134 O135 2.025 . S
Sc134 O144 2.105 . S
Sc134 O146 2.105 . S
Sc134 O150 2.105 . S
Sc134 O152 2.105 . S
O135 Sc132 2.025 . S
O135 Sc133 2.025 . S
O135 Sc134 2.025 . S
C136 O142 1.268 . S
C136 O152 1.268 . S
C137 O143 1.268 . S
C137 O151 1.268 . S
C138 O144 1.268 . S
C138 O153 1.268 . S
C139 O145 1.268 . S
C139 O149 1.268 . S
C140 O146 1.268 . S
C140 O148 1.268 . S
C141 O147 1.268 . S
C141 O150 1.268 . S
O142 Sc132 2.105 . S
O142 C136 1.268 . S
O143 Sc133 2.105 . S
O143 C137 1.268 . S
O144 Sc134 2.105 . S
O144 C138 1.268 . S
O145 Sc132 2.105 . S
O145 C139 1.268 . S
O146 Sc134 2.105 . S
O146 C140 1.268 . S
O147 Sc133 2.105 . S
O147 C141 1.268 . S
O148 Sc132 2.105 . S
O148 C140 1.268 . S
O149 Sc133 2.105 . S
O149 C139 1.268 . S
O150 Sc134 2.105 . S
O150 C141 1.268 . S
O151 Sc132 2.105 . S
O151 C137 1.268 . S
O152 Sc134 2.105 . S
O152 C136 1.268 . S
O153 Sc133 2.105 . S
O153 C138 1.268 . S
Sc154 O157 2.025 . S
Sc154 O164 2.105 . S
Sc154 O167 2.105 . S
Sc154 O170 2.105 . S
Sc154 O173 2.105 . S
Sc155 O157 2.025 . S
Sc155 O165 2.105 . S
Sc155 O169 2.105 . S
Sc155 O171 2.105 . S
Sc155 O175 2.105 . S
Sc156 O157 2.025 . S
Sc156 O166 2.105 . S
Sc156 O168 2.105 . S
Sc156 O172 2.105 . S
Sc156 O174 2.105 . S
O157 Sc154 2.025 . S
O157 Sc155 2.025 . S
O157 Sc156 2.025 . S
C158 O164 1.268 . S
C158 O174 1.268 . S
C159 O165 1.268 . S
C159 O173 1.268 . S
C160 O166 1.268 . S
C160 O175 1.268 . S
C161 O167 1.268 . S
C161 O171 1.268 . S
C162 O168 1.268 . S
C162 O170 1.268 . S
C163 O169 1.268 . S
C163 O172 1.268 . S
O164 Sc154 2.105 . S
O164 C158 1.268 . S
O165 Sc155 2.105 . S
O165 C159 1.268 . S
O166 Sc156 2.105 . S
O166 C160 1.268 . S
O167 Sc154 2.105 . S
O167 C161 1.268 . S
O168 Sc156 2.105 . S
O168 C162 1.268 . S
O169 Sc155 2.105 . S
O169 C163 1.268 . S
O170 Sc154 2.105 . S
O170 C162 1.268 . S
O171 Sc155 2.105 . S
O171 C161 1.268 . S
O172 Sc156 2.105 . S
O172 C163 1.268 . S
O173 Sc154 2.105 . S
O173 C159 1.268 . S
O174 Sc156 2.105 . S
O174 C158 1.268 . S
O175 Sc155 2.105 . S
O175 C160 1.268 . S
Sc176 O179 2.025 . S
Sc176 O186 2.105 . S
Sc176 O189 2.105 . S
Sc176 O192 2.105 . S
Sc176 O195 2.105 . S
Sc177 O179 2.025 . S
Sc177 O187 2.105 . S
Sc177 O191 2.105 . S
Sc177 O193 2.105 . S
Sc177 O197 2.105 . S
Sc178 O179 2.025 . S
Sc178 O188 2.105 . S
Sc178 O190 2.105 . S
Sc178 O194 2.105 . S
Sc178 O196 2.105 . S
O179 Sc176 2.025 . S
O179 Sc177 2.025 . S
O179 Sc178 2.025 . S
C180 O186 1.268 . S
C180 O196 1.268 . S
C181 O187 1.268 . S
C181 O195 1.268 . S
C182 O188 1.268 . S
C182 O197 1.268 . S
C183 O189 1.268 . S
C183 O193 1.268 . S
C184 O190 1.268 . S
C184 O192 1.268 . S
C185 O191 1.268 . S
C185 O194 1.268 . S
O186 Sc176 2.105 . S
O186 C180 1.268 . S
O187 Sc177 2.105 . S
O187 C181 1.268 . S
O188 Sc178 2.105 . S
O188 C182 1.268 . S
O189 Sc176 2.105 . S
O189 C183 1.268 . S
O190 Sc178 2.105 . S
O190 C184 1.268 . S
O191 Sc177 2.105 . S
O191 C185 1.268 . S
O192 Sc176 2.105 . S
O192 C184 1.268 . S
O193 Sc177 2.105 . S
O193 C183 1.268 . S
O194 Sc178 2.105 . S
O194 C185 1.268 . S
O195 Sc176 2.105 . S
O195 C181 1.268 . S
O196 Sc178 2.105 . S
O196 C180 1.268 . S
O197 Sc177 2.105 . S
O197 C182 1.268 . S
Sc198 O201 2.025 . S
Sc198 O208 2.105 . S
Sc198 O211 2.105 . S
Sc198 O214 2.105 . S
Sc198 O217 2.105 . S
Sc199 O201 2.025 . S
Sc199 O209 2.105 . S
Sc199 O213 2.105 . S
Sc199 O215 2.105 . S
Sc199 O219 2.105 . S
Sc200 O201 2.025 . S
Sc200 O210 2.105 . S
Sc200 O212 2.105 . S
Sc200 O216 2.105 . S
Sc200 O218 2.105 . S
O201 Sc198 2.025 . S
O201 Sc199 2.025 . S
O201 Sc200 2.025 . S
C202 O208 1.268 . S
C202 O218 1.268 . S
C203 O209 1.268 . S
C203 O217 1.268 . S
C204 O210 1.268 . S
C204 O219 1.268 . S
C205 O211 1.268 . S
C205 O215 1.268 . S
C206 O212 1.268 . S
C206 O214 1.268 . S
C207 O213 1.268 . S
C207 O216 1.268 . S
O208 Sc198 2.105 . S
O208 C202 1.268 . S
O209 Sc199 2.105 . S
O209 C203 1.268 . S
O210 Sc200 2.105 . S
O210 C204 1.268 . S
O211 Sc198 2.105 . S
O211 C205 1.268 . S
O212 Sc200 2.105 . S
O212 C206 1.268 . S
O213 Sc199 2.105 . S
O213 C207 1.268 . S
O214 Sc198 2.105 . S
O214 C206 1.268 . S
O215 Sc199 2.105 . S
O215 C205 1.268 . S
O216 Sc200 2.105 . S
O216 C207 1.268 . S
O217 Sc198 2.105 . S
O217 C203 1.268 . S
O218 Sc200 2.105 . S
O218 C202 1.268 . S
O219 Sc199 2.105 . S
O219 C204 1.268 . S
Sc220 O223 2.025 . S
Sc220 O230 2.105 . S
Sc220 O233 2.105 . S
Sc220 O236 2.105 . S
Sc220 O239 2.105 . S
Sc221 O223 2.025 1_556 S
Sc221 O231 2.105 1_556 S
Sc221 O235 2.105 . S
Sc221 O237 2.105 . S
Sc221 O241 2.105 . S
Sc222 O223 2.025 . S
Sc222 O232 2.105 . S
Sc222 O234 2.105 . S
Sc222 O238 2.105 1_554 S
Sc222 O240 2.105 . S
O223 Sc220 2.025 . S
O223 Sc221 2.025 1_554 S
O223 Sc222 2.025 . S
C224 O230 1.268 . S
C224 O240 1.268 . S
C225 O231 1.268 . S
C225 O239 1.268 . S
C226 O232 1.268 . S
C226 O241 1.268 1_554 S
C227 O233 1.268 1_556 S
C227 O237 1.268 . S
C228 O234 1.268 . S
C228 O236 1.268 . S
C229 O235 1.268 . S
C229 O238 1.268 . S
O230 Sc220 2.105 . S
O230 C224 1.268 . S
O231 Sc221 2.105 1_554 S
O231 C225 1.268 . S
O232 Sc222 2.105 . S
O232 C226 1.268 . S
O233 Sc220 2.105 . S
O233 C227 1.268 1_554 S
O234 Sc222 2.105 . S
O234 C228 1.268 . S
O235 Sc221 2.105 . S
O235 C229 1.268 . S
O236 Sc220 2.105 . S
O236 C228 1.268 . S
O237 Sc221 2.105 . S
O237 C227 1.268 . S
O238 Sc222 2.105 1_556 S
O238 C229 1.268 . S
O239 Sc220 2.105 . S
O239 C225 1.268 . S
O240 Sc222 2.105 . S
O240 C224 1.268 . S
O241 Sc221 2.105 . S
O241 C226 1.268 1_556 S
Sc242 O245 2.025 . S
Sc242 O252 2.105 . S
Sc242 O255 2.105 . S
Sc242 O258 2.105 . S
Sc242 O261 2.105 . S
Sc243 O245 2.025 . S
Sc243 O253 2.105 . S
Sc243 O257 2.105 . S
Sc243 O259 2.105 . S
Sc243 O263 2.105 . S
Sc244 O245 2.025 . S
Sc244 O254 2.105 . S
Sc244 O256 2.105 . S
Sc244 O260 2.105 . S
Sc244 O262 2.105 . S
O245 Sc242 2.025 . S
O245 Sc243 2.025 . S
O245 Sc244 2.025 . S
C246 O252 1.268 . S
C246 O262 1.268 . S
C247 O253 1.268 . S
C247 O261 1.268 . S
C248 O254 1.268 . S
C248 O263 1.268 . S
C249 O255 1.268 . S
C249 O259 1.268 . S
C250 O256 1.268 . S
C250 O258 1.268 . S
C251 O257 1.268 . S
C251 O260 1.268 . S
O252 Sc242 2.105 . S
O252 C246 1.268 . S
O253 Sc243 2.105 . S
O253 C247 1.268 . S
O254 Sc244 2.105 . S
O254 C248 1.268 . S
O255 Sc242 2.105 . S
O255 C249 1.268 . S
O256 Sc244 2.105 . S
O256 C250 1.268 . S
O257 Sc243 2.105 . S
O257 C251 1.268 . S
O258 Sc242 2.105 . S
O258 C250 1.268 . S
O259 Sc243 2.105 . S
O259 C249 1.268 . S
O260 Sc244 2.105 . S
O260 C251 1.268 . S
O261 Sc242 2.105 . S
O261 C247 1.268 . S
O262 Sc244 2.105 . S
O262 C246 1.268 . S
O263 Sc243 2.105 . S
O263 C248 1.268 . S
Sc264 O267 2.025 . S
Sc264 O274 2.105 . S
Sc264 O277 2.105 . S
Sc264 O280 2.105 . S
Sc264 O283 2.105 . S
Sc265 O267 2.025 . S
Sc265 O275 2.105 . S
Sc265 O279 2.105 . S
Sc265 O281 2.105 . S
Sc265 O285 2.105 . S
Sc266 O267 2.025 . S
Sc266 O276 2.105 . S
Sc266 O278 2.105 . S
Sc266 O282 2.105 . S
Sc266 O284 2.105 . S
O267 Sc264 2.025 . S
O267 Sc265 2.025 . S
O267 Sc266 2.025 . S
C268 O274 1.268 . S
C268 O284 1.268 . S
C269 O275 1.268 . S
C269 O283 1.268 . S
C270 O276 1.268 . S
C270 O285 1.268 . S
C271 O277 1.268 . S
C271 O281 1.268 . S
C272 O278 1.268 . S
C272 O280 1.268 . S
C273 O279 1.268 . S
C273 O282 1.268 . S
O274 Sc264 2.105 . S
O274 C268 1.268 . S
O275 Sc265 2.105 . S
O275 C269 1.268 . S
O276 Sc266 2.105 . S
O276 C270 1.268 . S
O277 Sc264 2.105 . S
O277 C271 1.268 . S
O278 Sc266 2.105 . S
O278 C272 1.268 . S
O279 Sc265 2.105 . S
O279 C273 1.268 . S
O280 Sc264 2.105 . S
O280 C272 1.268 . S
O281 Sc265 2.105 . S
O281 C271 1.268 . S
O282 Sc266 2.105 . S
O282 C273 1.268 . S
O283 Sc264 2.105 . S
O283 C269 1.268 . S
O284 Sc266 2.105 . S
O284 C268 1.268 . S
O285 Sc265 2.105 . S
O285 C270 1.268 . S
Sc286 O289 2.025 . S
Sc286 O296 2.105 . S
Sc286 O299 2.105 . S
Sc286 O302 2.105 . S
Sc286 O305 2.105 . S
Sc287 O289 2.025 . S
Sc287 O297 2.105 . S
Sc287 O301 2.105 . S
Sc287 O303 2.105 . S
Sc287 O307 2.105 . S
Sc288 O289 2.025 . S
Sc288 O298 2.105 . S
Sc288 O300 2.105 . S
Sc288 O304 2.105 . S
Sc288 O306 2.105 . S
O289 Sc286 2.025 . S
O289 Sc287 2.025 . S
O289 Sc288 2.025 . S
C290 O296 1.268 . S
C290 O306 1.268 . S
C291 O297 1.268 . S
C291 O305 1.268 . S
C292 O298 1.268 . S
C292 O307 1.268 . S
C293 O299 1.268 . S
C293 O303 1.268 . S
C294 O300 1.268 . S
C294 O302 1.268 . S
C295 O301 1.268 . S
C295 O304 1.268 . S
O296 Sc286 2.105 . S
O296 C290 1.268 . S
O297 Sc287 2.105 . S
O297 C291 1.268 . S
O298 Sc288 2.105 . S
O298 C292 1.268 . S
O299 Sc286 2.105 . S
O299 C293 1.268 . S
O300 Sc288 2.105 . S
O300 C294 1.268 . S
O301 Sc287 2.105 . S
O301 C295 1.268 . S
O302 Sc286 2.105 . S
O302 C294 1.268 . S
O303 Sc287 2.105 . S
O303 C293 1.268 . S
O304 Sc288 2.105 . S
O304 C295 1.268 . S
O305 Sc286 2.105 . S
O305 C291 1.268 . S
O306 Sc288 2.105 . S
O306 C290 1.268 . S
O307 Sc287 2.105 . S
O307 C292 1.268 . S
Sc308 O311 2.025 1_556 S
Sc308 O318 2.105 1_556 S
Sc308 O321 2.105 . S
Sc308 O324 2.105 . S
Sc308 O327 2.105 1_556 S
Sc309 O311 2.025 . S
Sc309 O319 2.105 . S
Sc309 O323 2.105 . S
Sc309 O325 2.105 . S
Sc309 O329 2.105 . S
Sc310 O311 2.025 . S
Sc310 O320 2.105 . S
Sc310 O322 2.105 1_554 S
Sc310 O326 2.105 . S
Sc310 O328 2.105 . S
O311 Sc308 2.025 1_554 S
O311 Sc309 2.025 . S
O311 Sc310 2.025 . S
C312 O318 1.268 . S
C312 O328 1.268 . S
C313 O319 1.268 . S
C313 O327 1.268 . S
C314 O320 1.268 . S
C314 O329 1.268 . S
C315 O321 1.268 . S
C315 O325 1.268 1_556 S
C316 O322 1.268 . S
C316 O324 1.268 . S
C317 O323 1.268 . S
C317 O326 1.268 . S
O318 Sc308 2.105 1_554 S
O318 C312 1.268 . S
O319 Sc309 2.105 . S
O319 C313 1.268 . S
O320 Sc310 2.105 . S
O320 C314 1.268 . S
O321 Sc308 2.105 . S
O321 C315 1.268 . S
O322 Sc310 2.105 1_556 S
O322 C316 1.268 . S
O323 Sc309 2.105 . S
O323 C317 1.268 . S
O324 Sc308 2.105 . S
O324 C316 1.268 . S
O325 Sc309 2.105 . S
O325 C315 1.268 1_554 S
O326 Sc310 2.105 . S
O326 C317 1.268 . S
O327 Sc308 2.105 1_554 S
O327 C313 1.268 . S
O328 Sc310 2.105 . S
O328 C312 1.268 . S
O329 Sc309 2.105 . S
O329 C314 1.268 . S
Sc330 O333 2.025 . S
Sc330 O340 2.105 . S
Sc330 O343 2.105 . S
Sc330 O346 2.105 . S
Sc330 O349 2.105 . S
Sc331 O333 2.025 . S
Sc331 O341 2.105 . S
Sc331 O345 2.105 . S
Sc331 O347 2.105 . S
Sc331 O351 2.105 . S
Sc332 O333 2.025 . S
Sc332 O342 2.105 . S
Sc332 O344 2.105 . S
Sc332 O348 2.105 . S
Sc332 O350 2.105 . S
O333 Sc330 2.025 . S
O333 Sc331 2.025 . S
O333 Sc332 2.025 . S
C334 O340 1.268 . S
C334 O350 1.268 . S
C335 O341 1.268 . S
C335 O349 1.268 . S
C336 O342 1.268 . S
C336 O351 1.268 . S
C337 O343 1.268 . S
C337 O347 1.268 . S
C338 O344 1.268 . S
C338 O346 1.268 . S
C339 O345 1.268 . S
C339 O348 1.268 . S
O340 Sc330 2.105 . S
O340 C334 1.268 . S
O341 Sc331 2.105 . S
O341 C335 1.268 . S
O342 Sc332 2.105 . S
O342 C336 1.268 . S
O343 Sc330 2.105 . S
O343 C337 1.268 . S
O344 Sc332 2.105 . S
O344 C338 1.268 . S
O345 Sc331 2.105 . S
O345 C339 1.268 . S
O346 Sc330 2.105 . S
O346 C338 1.268 . S
O347 Sc331 2.105 . S
O347 C337 1.268 . S
O348 Sc332 2.105 . S
O348 C339 1.268 . S
O349 Sc330 2.105 . S
O349 C335 1.268 . S
O350 Sc332 2.105 . S
O350 C334 1.268 . S
O351 Sc331 2.105 . S
O351 C336 1.268 . S
H352 C360 0.929 . S
H353 C362 0.930 . S
H354 C364 0.931 . S
H355 C367 0.929 . S
H356 C370 0.930 . S
H357 C372 0.960 . S
H358 C372 0.960 . S
H359 C372 0.960 1_554 S
C360 H352 0.929 . S
C360 C361 1.377 1_556 S
C360 C362 1.384 . S
C361 C360 1.377 1_554 S
C361 C367 1.390 . S
C362 H353 0.930 . S
C362 C360 1.384 . S
C362 C363 1.372 . S
C363 C362 1.372 . S
C363 C364 1.396 1_556 S
C363 C368 1.490 . S
C364 H354 0.931 . S
C364 C363 1.396 1_554 S
C364 C367 1.387 . S
H365 C381 0.930 . S
H366 C382 0.931 . S
C367 H355 0.929 . S
C367 C361 1.390 . S
C367 C364 1.387 . S
C368 C363 1.490 . S
C368 C370 1.395 . S
C368 C371 1.403 . S
H369 C375 0.930 . S
C370 H356 0.930 . S
C370 C368 1.395 . S
C370 C373 1.403 . S
C371 C368 1.403 . S
C371 C372 1.524 . S
C371 C375 1.400 . S
C372 H357 0.960 . S
C372 H358 0.960 . S
C372 H359 0.960 1_556 S
C372 C371 1.524 . S
C373 C370 1.403 . S
C373 C374 1.392 . S
C373 C377 1.495 . S
C374 C373 1.392 . S
C374 C375 1.385 . S
C374 C376 1.478 . S
C375 H369 0.930 . S
C375 C371 1.400 . S
C375 C374 1.385 . S
C376 C374 1.478 . S
C376 C378 1.381 . S
C376 C382 1.383 . S
C377 C373 1.495 . S
C377 H383 0.959 . S
C377 H384 0.961 . S
C377 H385 0.960 . S
C378 C376 1.381 . S
C378 C379 1.394 . S
C378 H386 0.930 . S
C379 C378 1.394 . S
C379 C380 1.383 . S
C379 H387 0.929 . S
C380 C379 1.383 . S
C380 C381 1.377 . S
C381 H365 0.930 . S
C381 C380 1.377 . S
C381 C382 1.379 . S
C382 H366 0.931 . S
C382 C376 1.383 . S
C382 C381 1.379 . S
H383 C377 0.959 . S
H384 C377 0.961 . S
H385 C377 0.960 . S
H386 C378 0.930 . S
H387 C379 0.929 . S
H388 C396 0.929 . S
H389 C398 0.930 . S
H390 C400 0.930 . S
H391 C403 0.929 . S
H392 C406 0.930 . S
H393 C408 0.960 . S
H394 C408 0.960 . S
H395 C408 0.960 . S
C396 H388 0.929 . S
C396 C397 1.377 . S
C396 C398 1.384 . S
C397 C396 1.377 . S
C397 C403 1.390 . S
C398 H389 0.930 . S
C398 C396 1.384 . S
C398 C399 1.372 . S
C399 C398 1.372 . S
C399 C400 1.400 . S
C399 C404 1.490 . S
C400 H390 0.930 . S
C400 C399 1.400 . S
C400 C403 1.386 . S
H401 C417 0.930 . S
H402 C418 0.931 . S
C403 H391 0.929 . S
C403 C397 1.390 . S
C403 C400 1.386 . S
C404 C399 1.490 . S
C404 C406 1.395 . S
C404 C407 1.403 . S
H405 C411 0.930 . S
C406 H392 0.930 . S
C406 C404 1.395 . S
C406 C409 1.403 . S
C407 C404 1.403 . S
C407 C408 1.524 . S
C407 C411 1.400 . S
C408 H393 0.960 . S
C408 H394 0.960 . S
C408 H395 0.960 . S
C408 C407 1.524 . S
C409 C406 1.403 . S
C409 C410 1.392 . S
C409 C413 1.495 . S
C410 C409 1.392 . S
C410 C411 1.385 . S
C410 C412 1.478 . S
C411 H405 0.930 . S
C411 C407 1.400 . S
C411 C410 1.385 . S
C412 C410 1.478 . S
C412 C414 1.381 . S
C412 C418 1.383 . S
C413 C409 1.495 . S
C413 H419 0.959 . S
C413 H420 0.961 . S
C413 H421 0.960 . S
C414 C412 1.381 . S
C414 C415 1.394 . S
C414 H422 0.930 . S
C415 C414 1.394 . S
C415 C416 1.383 . S
C415 H423 0.929 . S
C416 C415 1.383 . S
C416 C417 1.377 . S
C417 H401 0.930 . S
C417 C416 1.377 . S
C417 C418 1.379 . S
C418 H402 0.931 . S
C418 C412 1.383 . S
C418 C417 1.379 . S
H419 C413 0.959 . S
H420 C413 0.961 . S
H421 C413 0.960 . S
H422 C414 0.930 . S
H423 C415 0.929 . S
H424 C432 0.929 . S
H425 C434 0.930 . S
H426 C436 0.930 . S
H427 C439 0.929 . S
H428 C442 0.930 . S
H429 C444 0.960 . S
H430 C444 0.960 . S
H431 C444 0.960 . S
C432 H424 0.929 . S
C432 C433 1.377 . S
C432 C434 1.384 . S
C433 C432 1.377 . S
C433 C439 1.390 . S
C434 H425 0.930 . S
C434 C432 1.384 . S
C434 C435 1.372 . S
C435 C434 1.372 . S
C435 C436 1.400 . S
C435 C440 1.490 . S
C436 H426 0.930 . S
C436 C435 1.400 . S
C436 C439 1.386 . S
H437 C453 0.930 . S
H438 C454 0.931 . S
C439 H427 0.929 . S
C439 C433 1.390 . S
C439 C436 1.386 . S
C440 C435 1.490 . S
C440 C442 1.395 . S
C440 C443 1.403 . S
H441 C447 0.930 . S
C442 H428 0.930 . S
C442 C440 1.395 . S
C442 C445 1.403 . S
C443 C440 1.403 . S
C443 C444 1.524 . S
C443 C447 1.400 . S
C444 H429 0.960 . S
C444 H430 0.960 . S
C444 H431 0.960 . S
C444 C443 1.524 . S
C445 C442 1.403 . S
C445 C446 1.392 . S
C445 C449 1.495 . S
C446 C445 1.392 . S
C446 C447 1.385 . S
C446 C448 1.478 . S
C447 H441 0.930 . S
C447 C443 1.400 . S
C447 C446 1.385 . S
C448 C446 1.478 . S
C448 C450 1.381 . S
C448 C454 1.383 . S
C449 C445 1.495 . S
C449 H455 0.959 . S
C449 H456 0.961 . S
C449 H457 0.960 . S
C450 C448 1.381 . S
C450 C451 1.394 . S
C450 H458 0.930 . S
C451 C450 1.394 . S
C451 C452 1.383 . S
C451 H459 0.929 . S
C452 C451 1.383 . S
C452 C453 1.377 . S
C453 H437 0.930 . S
C453 C452 1.377 . S
C453 C454 1.379 . S
C454 H438 0.931 . S
C454 C448 1.383 . S
C454 C453 1.379 . S
H455 C449 0.959 . S
H456 C449 0.961 . S
H457 C449 0.960 . S
H458 C450 0.930 . S
H459 C451 0.929 . S
H460 C468 0.929 . S
H461 C470 0.930 . S
H462 C472 0.930 . S
H463 C475 0.929 . S
H464 C478 0.930 . S
H465 C480 0.960 . S
H466 C480 0.960 . S
H467 C480 0.960 . S
C468 H460 0.929 . S
C468 C469 1.377 . S
C468 C470 1.384 . S
C469 C468 1.377 . S
C469 C475 1.390 . S
C470 H461 0.930 . S
C470 C468 1.384 . S
C470 C471 1.372 . S
C471 C470 1.372 . S
C471 C472 1.400 . S
C471 C476 1.490 . S
C472 H462 0.930 . S
C472 C471 1.400 . S
C472 C475 1.386 . S
H473 C489 0.930 . S
H474 C490 0.931 . S
C475 H463 0.929 . S
C475 C469 1.390 . S
C475 C472 1.386 . S
C476 C471 1.490 . S
C476 C478 1.395 . S
C476 C479 1.403 . S
H477 C483 0.930 . S
C478 H464 0.930 . S
C478 C476 1.395 . S
C478 C481 1.403 . S
C479 C476 1.403 . S
C479 C480 1.524 . S
C479 C483 1.400 . S
C480 H465 0.960 . S
C480 H466 0.960 . S
C480 H467 0.960 . S
C480 C479 1.524 . S
C481 C478 1.403 . S
C481 C482 1.392 . S
C481 C485 1.495 . S
C482 C481 1.392 . S
C482 C483 1.385 . S
C482 C484 1.478 . S
C483 H477 0.930 . S
C483 C479 1.400 . S
C483 C482 1.385 . S
C484 C482 1.478 . S
C484 C486 1.381 . S
C484 C490 1.383 . S
C485 C481 1.495 . S
C485 H491 0.959 . S
C485 H492 0.961 . S
C485 H493 0.960 . S
C486 C484 1.381 . S
C486 C487 1.394 . S
C486 H494 0.930 . S
C487 C486 1.394 . S
C487 C488 1.383 . S
C487 H495 0.929 . S
C488 C487 1.383 . S
C488 C489 1.377 . S
C489 H473 0.930 . S
C489 C488 1.377 . S
C489 C490 1.379 . S
C490 H474 0.931 . S
C490 C484 1.383 . S
C490 C489 1.379 . S
H491 C485 0.959 . S
H492 C485 0.961 . S
H493 C485 0.960 . S
H494 C486 0.930 . S
H495 C487 0.929 . S
H496 C504 0.929 . S
H497 C506 0.930 . S
H498 C508 0.930 . S
H499 C511 0.929 . S
H500 C514 0.930 . S
H501 C516 0.960 . S
H502 C516 0.960 . S
H503 C516 0.960 . S
C504 H496 0.929 . S
C504 C505 1.377 . S
C504 C506 1.384 . S
C505 C504 1.377 . S
C505 C511 1.390 . S
C506 H497 0.930 . S
C506 C504 1.384 . S
C506 C507 1.372 . S
C507 C506 1.372 . S
C507 C508 1.400 . S
C507 C512 1.490 . S
C508 H498 0.930 . S
C508 C507 1.400 . S
C508 C511 1.386 . S
H509 C525 0.930 . S
H510 C526 0.931 . S
C511 H499 0.929 . S
C511 C505 1.390 . S
C511 C508 1.386 . S
C512 C507 1.490 . S
C512 C514 1.395 . S
C512 C515 1.403 . S
H513 C519 0.930 . S
C514 H500 0.930 . S
C514 C512 1.395 . S
C514 C517 1.403 . S
C515 C512 1.403 . S
C515 C516 1.524 . S
C515 C519 1.400 . S
C516 H501 0.960 . S
C516 H502 0.960 . S
C516 H503 0.960 . S
C516 C515 1.524 . S
C517 C514 1.403 . S
C517 C518 1.392 . S
C517 C521 1.495 . S
C518 C517 1.392 . S
C518 C519 1.385 . S
C518 C520 1.478 . S
C519 H513 0.930 . S
C519 C515 1.400 . S
C519 C518 1.385 . S
C520 C518 1.478 . S
C520 C522 1.381 . S
C520 C526 1.383 . S
C521 C517 1.495 . S
C521 H527 0.959 . S
C521 H528 0.961 . S
C521 H529 0.960 . S
C522 C520 1.381 . S
C522 C523 1.394 . S
C522 H530 0.930 . S
C523 C522 1.394 . S
C523 C524 1.383 . S
C523 H531 0.929 . S
C524 C523 1.383 . S
C524 C525 1.377 . S
C525 H509 0.930 . S
C525 C524 1.377 . S
C525 C526 1.379 . S
C526 H510 0.931 . S
C526 C520 1.383 . S
C526 C525 1.379 . S
H527 C521 0.959 . S
H528 C521 0.961 . S
H529 C521 0.960 . S
H530 C522 0.930 . S
H531 C523 0.929 . S
H532 C540 0.929 . S
H533 C542 0.930 . S
H534 C544 0.930 . S
H535 C547 0.929 . S
H536 C550 0.930 . S
H537 C552 0.960 . S
H538 C552 0.960 . S
H539 C552 0.960 . S
C540 H532 0.929 . S
C540 C541 1.377 . S
C540 C542 1.384 . S
C541 C540 1.377 . S
C541 C547 1.390 . S
C542 H533 0.930 . S
C542 C540 1.384 . S
C542 C543 1.372 . S
C543 C542 1.372 . S
C543 C544 1.400 . S
C543 C548 1.490 . S
C544 H534 0.930 . S
C544 C543 1.400 . S
C544 C547 1.386 . S
H545 C561 0.930 1_554 S
H546 C562 0.931 . S
C547 H535 0.929 . S
C547 C541 1.390 . S
C547 C544 1.386 . S
C548 C543 1.490 . S
C548 C550 1.395 . S
C548 C551 1.403 . S
H549 C555 0.930 . S
C550 H536 0.930 . S
C550 C548 1.395 . S
C550 C553 1.403 . S
C551 C548 1.403 . S
C551 C552 1.524 . S
C551 C555 1.400 . S
C552 H537 0.960 . S
C552 H538 0.960 . S
C552 H539 0.960 . S
C552 C551 1.524 . S
C553 C550 1.403 . S
C553 C554 1.392 . S
C553 C557 1.495 . S
C554 C553 1.392 . S
C554 C555 1.385 . S
C554 C556 1.478 . S
C555 H549 0.930 . S
C555 C551 1.400 . S
C555 C554 1.385 . S
C556 C554 1.478 . S
C556 C558 1.381 . S
C556 C562 1.383 . S
C557 C553 1.495 . S
C557 H563 0.959 . S
C557 H564 0.961 . S
C557 H565 0.960 . S
C558 C556 1.381 . S
C558 C559 1.394 . S
C558 H566 0.930 . S
C559 C558 1.394 . S
C559 C560 1.383 . S
C559 H567 0.929 . S
C560 C559 1.383 . S
C560 C561 1.377 . S
C561 H545 0.930 1_556 S
C561 C560 1.377 . S
C561 C562 1.379 . S
C562 H546 0.931 . S
C562 C556 1.383 . S
C562 C561 1.379 . S
H563 C557 0.959 . S
H564 C557 0.961 . S
H565 C557 0.960 . S
H566 C558 0.930 . S
H567 C559 0.929 . S
H568 C576 0.929 . S
H569 C578 0.930 . S
H570 C580 0.930 . S
H571 C583 0.929 . S
H572 C586 0.930 . S
H573 C588 0.960 . S
H574 C588 0.960 . S
H575 C588 0.960 . S
C576 H568 0.929 . S
C576 C577 1.377 . S
C576 C578 1.384 . S
C577 C576 1.377 . S
C577 C583 1.390 . S
C578 H569 0.930 . S
C578 C576 1.384 . S
C578 C579 1.372 . S
C579 C578 1.372 . S
C579 C580 1.400 . S
C579 C584 1.490 . S
C580 H570 0.930 . S
C580 C579 1.400 . S
C580 C583 1.386 . S
H581 C597 0.930 . S
H582 C598 0.931 . S
C583 H571 0.929 . S
C583 C577 1.390 . S
C583 C580 1.386 . S
C584 C579 1.490 . S
C584 C586 1.395 . S
C584 C587 1.403 . S
H585 C591 0.930 . S
C586 H572 0.930 . S
C586 C584 1.395 . S
C586 C589 1.403 . S
C587 C584 1.403 . S
C587 C588 1.524 . S
C587 C591 1.400 . S
C588 H573 0.960 . S
C588 H574 0.960 . S
C588 H575 0.960 . S
C588 C587 1.524 . S
C589 C586 1.403 . S
C589 C590 1.392 . S
C589 C593 1.495 . S
C590 C589 1.392 . S
C590 C591 1.385 . S
C590 C592 1.478 . S
C591 H585 0.930 . S
C591 C587 1.400 . S
C591 C590 1.385 . S
C592 C590 1.478 . S
C592 C594 1.381 . S
C592 C598 1.383 . S
C593 C589 1.495 . S
C593 H599 0.959 . S
C593 H600 0.961 . S
C593 H601 0.960 . S
C594 C592 1.381 . S
C594 C595 1.394 . S
C594 H602 0.930 . S
C595 C594 1.394 . S
C595 C596 1.383 . S
C595 H603 0.929 . S
C596 C595 1.383 . S
C596 C597 1.377 . S
C597 H581 0.930 . S
C597 C596 1.377 . S
C597 C598 1.379 . S
C598 H582 0.931 . S
C598 C592 1.383 . S
C598 C597 1.379 . S
H599 C593 0.959 . S
H600 C593 0.961 . S
H601 C593 0.960 . S
H602 C594 0.930 . S
H603 C595 0.929 . S
H604 C612 0.929 . S
H605 C614 0.930 . S
H606 C616 0.930 . S
H607 C619 0.929 . S
H608 C622 0.930 . S
H609 C624 0.960 . S
H610 C624 0.960 . S
H611 C624 0.960 . S
C612 H604 0.929 . S
C612 C613 1.377 . S
C612 C614 1.384 . S
C613 C612 1.377 . S
C613 C619 1.390 . S
C614 H605 0.930 . S
C614 C612 1.384 . S
C614 C615 1.372 . S
C615 C614 1.372 . S
C615 C616 1.400 . S
C615 C620 1.490 . S
C616 H606 0.930 . S
C616 C615 1.400 . S
C616 C619 1.386 . S
H617 C633 0.930 . S
H618 C634 0.931 . S
C619 H607 0.929 . S
C619 C613 1.390 . S
C619 C616 1.386 . S
C620 C615 1.490 . S
C620 C622 1.395 . S
C620 C623 1.403 . S
H621 C627 0.930 . S
C622 H608 0.930 . S
C622 C620 1.395 . S
C622 C625 1.403 . S
C623 C620 1.403 . S
C623 C624 1.524 . S
C623 C627 1.400 . S
C624 H609 0.960 . S
C624 H610 0.960 . S
C624 H611 0.960 . S
C624 C623 1.524 . S
C625 C622 1.403 . S
C625 C626 1.392 . S
C625 C629 1.495 . S
C626 C625 1.392 . S
C626 C627 1.385 . S
C626 C628 1.478 . S
C627 H621 0.930 . S
C627 C623 1.400 . S
C627 C626 1.385 . S
C628 C626 1.478 . S
C628 C630 1.381 . S
C628 C634 1.383 . S
C629 C625 1.495 . S
C629 H635 0.959 . S
C629 H636 0.961 . S
C629 H637 0.960 . S
C630 C628 1.381 . S
C630 C631 1.394 . S
C630 H638 0.930 . S
C631 C630 1.394 . S
C631 C632 1.383 . S
C631 H639 0.929 . S
C632 C631 1.383 . S
C632 C633 1.377 . S
C633 H617 0.930 . S
C633 C632 1.377 . S
C633 C634 1.379 . S
C634 H618 0.931 . S
C634 C628 1.383 . S
C634 C633 1.379 . S
H635 C629 0.959 . S
H636 C629 0.961 . S
H637 C629 0.960 . S
H638 C630 0.930 . S
H639 C631 0.929 . S
H640 C648 0.929 . S
H641 C650 0.930 . S
H642 C652 0.930 . S
H643 C655 0.929 . S
H644 C658 0.930 . S
H645 C660 0.960 . S
H646 C660 0.960 . S
H647 C660 0.960 . S
C648 H640 0.929 . S
C648 C649 1.377 . S
C648 C650 1.384 . S
C649 C648 1.377 . S
C649 C655 1.390 . S
C650 H641 0.930 . S
C650 C648 1.384 . S
C650 C651 1.372 . S
C651 C650 1.372 . S
C651 C652 1.400 . S
C651 C656 1.490 . S
C652 H642 0.930 . S
C652 C651 1.400 . S
C652 C655 1.386 . S
H653 C669 0.930 . S
H654 C670 0.931 . S
C655 H643 0.929 . S
C655 C649 1.390 . S
C655 C652 1.386 . S
C656 C651 1.490 . S
C656 C658 1.395 . S
C656 C659 1.403 . S
H657 C663 0.930 . S
C658 H644 0.930 . S
C658 C656 1.395 . S
C658 C661 1.403 . S
C659 C656 1.403 . S
C659 C660 1.524 . S
C659 C663 1.400 . S
C660 H645 0.960 . S
C660 H646 0.960 . S
C660 H647 0.960 . S
C660 C659 1.524 . S
C661 C658 1.403 . S
C661 C662 1.392 . S
C661 C665 1.495 . S
C662 C661 1.392 . S
C662 C663 1.385 . S
C662 C664 1.478 . S
C663 H657 0.930 . S
C663 C659 1.400 . S
C663 C662 1.385 . S
C664 C662 1.478 . S
C664 C666 1.381 . S
C664 C670 1.383 . S
C665 C661 1.495 . S
C665 H671 0.959 . S
C665 H672 0.961 . S
C665 H673 0.960 . S
C666 C664 1.381 . S
C666 C667 1.394 . S
C666 H674 0.930 . S
C667 C666 1.394 . S
C667 C668 1.383 . S
C667 H675 0.929 . S
C668 C667 1.383 . S
C668 C669 1.377 . S
C669 H653 0.930 . S
C669 C668 1.377 . S
C669 C670 1.379 . S
C670 H654 0.931 . S
C670 C664 1.383 . S
C670 C669 1.379 . S
H671 C665 0.959 . S
H672 C665 0.961 . S
H673 C665 0.960 . S
H674 C666 0.930 . S
H675 C667 0.929 . S
H676 C684 0.929 . S
H677 C686 0.930 . S
H678 C688 0.930 . S
H679 C691 0.929 . S
H680 C694 0.930 . S
H681 C696 0.960 . S
H682 C696 0.960 . S
H683 C696 0.960 . S
C684 H676 0.929 . S
C684 C685 1.377 . S
C684 C686 1.384 . S
C685 C684 1.377 . S
C685 C691 1.390 . S
C686 H677 0.930 . S
C686 C684 1.384 . S
C686 C687 1.372 . S
C687 C686 1.372 . S
C687 C688 1.400 . S
C687 C692 1.490 . S
C688 H678 0.930 . S
C688 C687 1.400 . S
C688 C691 1.386 . S
H689 C705 0.930 1_545 S
H690 C706 0.931 . S
C691 H679 0.929 . S
C691 C685 1.390 . S
C691 C688 1.386 . S
C692 C687 1.490 . S
C692 C694 1.395 . S
C692 C695 1.403 . S
H693 C699 0.930 . S
C694 H680 0.930 . S
C694 C692 1.395 . S
C694 C697 1.403 . S
C695 C692 1.403 . S
C695 C696 1.524 . S
C695 C699 1.400 . S
C696 H681 0.960 . S
C696 H682 0.960 . S
C696 H683 0.960 . S
C696 C695 1.524 . S
C697 C694 1.403 . S
C697 C698 1.392 . S
C697 C701 1.495 . S
C698 C697 1.392 . S
C698 C699 1.385 . S
C698 C700 1.478 . S
C699 H693 0.930 . S
C699 C695 1.400 . S
C699 C698 1.385 . S
C700 C698 1.478 . S
C700 C702 1.381 . S
C700 C706 1.383 . S
C701 C697 1.495 . S
C701 H707 0.959 . S
C701 H708 0.961 . S
C701 H709 0.960 . S
C702 C700 1.381 . S
C702 C703 1.394 . S
C702 H710 0.930 . S
C703 C702 1.394 . S
C703 C704 1.383 . S
C703 H711 0.929 . S
C704 C703 1.383 . S
C704 C705 1.377 . S
C705 H689 0.930 1_565 S
C705 C704 1.377 . S
C705 C706 1.379 . S
C706 H690 0.931 . S
C706 C700 1.383 . S
C706 C705 1.379 . S
H707 C701 0.959 . S
H708 C701 0.961 . S
H709 C701 0.960 . S
H710 C702 0.930 . S
H711 C703 0.929 . S
H712 C720 0.929 . S
H713 C722 0.930 . S
H714 C724 0.930 . S
H715 C727 0.929 . S
H716 C730 0.930 . S
H717 C732 0.960 . S
H718 C732 0.960 . S
H719 C732 0.960 . S
C720 H712 0.929 . S
C720 C721 1.377 . S
C720 C722 1.384 . S
C721 C720 1.377 . S
C721 C727 1.390 . S
C722 H713 0.930 . S
C722 C720 1.384 . S
C722 C723 1.372 . S
C723 C722 1.372 . S
C723 C724 1.400 . S
C723 C728 1.490 . S
C724 H714 0.930 . S
C724 C723 1.400 . S
C724 C727 1.386 . S
H725 C741 0.930 . S
H726 C742 0.931 . S
C727 H715 0.929 . S
C727 C721 1.390 . S
C727 C724 1.386 . S
C728 C723 1.490 . S
C728 C730 1.395 . S
C728 C731 1.403 . S
H729 C735 0.930 . S
C730 H716 0.930 . S
C730 C728 1.395 . S
C730 C733 1.403 . S
C731 C728 1.403 . S
C731 C732 1.524 . S
C731 C735 1.400 . S
C732 H717 0.960 . S
C732 H718 0.960 . S
C732 H719 0.960 . S
C732 C731 1.524 . S
C733 C730 1.403 . S
C733 C734 1.392 . S
C733 C737 1.495 . S
C734 C733 1.392 . S
C734 C735 1.385 . S
C734 C736 1.478 . S
C735 H729 0.930 . S
C735 C731 1.400 . S
C735 C734 1.385 . S
C736 C734 1.478 . S
C736 C738 1.381 . S
C736 C742 1.383 . S
C737 C733 1.495 . S
C737 H743 0.959 . S
C737 H744 0.961 . S
C737 H745 0.960 . S
C738 C736 1.381 . S
C738 C739 1.394 . S
C738 H746 0.930 . S
C739 C738 1.394 . S
C739 C740 1.388 . S
C739 H747 0.929 . S
C740 C739 1.388 . S
C740 C741 1.376 1_556 S
C741 H725 0.930 . S
C741 C740 1.376 1_554 S
C741 C742 1.379 1_554 S
C742 H726 0.931 . S
C742 C736 1.383 . S
C742 C741 1.379 1_556 S
H743 C737 0.959 . S
H744 C737 0.961 . S
H745 C737 0.960 . S
H746 C738 0.930 . S
H747 C739 0.929 . S
H748 C756 0.929 . S
H749 C758 0.930 . S
H750 C760 0.930 . S
H751 C763 0.921 1_565 S
H752 C766 0.930 . S
H753 C768 0.960 . S
H754 C768 0.960 . S
H755 C768 0.960 . S
C756 H748 0.929 . S
C756 C757 1.377 . S
C756 C758 1.384 . S
C757 C756 1.377 . S
C757 C763 1.390 . S
C758 H749 0.930 . S
C758 C756 1.384 . S
C758 C759 1.372 . S
C759 C758 1.372 . S
C759 C760 1.400 . S
C759 C764 1.490 . S
C760 H750 0.930 . S
C760 C759 1.400 . S
C760 C763 1.386 . S
H761 C777 0.930 . S
H762 C778 0.931 . S
C763 H751 0.921 1_545 S
C763 C757 1.390 . S
C763 C760 1.386 . S
C764 C759 1.490 . S
C764 C766 1.395 . S
C764 C767 1.403 . S
H765 C771 0.930 . S
C766 H752 0.930 . S
C766 C764 1.395 . S
C766 C769 1.403 . S
C767 C764 1.403 . S
C767 C768 1.524 . S
C767 C771 1.400 . S
C768 H753 0.960 . S
C768 H754 0.960 . S
C768 H755 0.960 . S
C768 C767 1.524 . S
C769 C766 1.403 . S
C769 C770 1.392 . S
C769 C773 1.495 . S
C770 C769 1.392 . S
C770 C771 1.385 . S
C770 C772 1.478 . S
C771 H765 0.930 . S
C771 C767 1.400 . S
C771 C770 1.385 . S
C772 C770 1.478 . S
C772 C774 1.381 . S
C772 C778 1.383 . S
C773 C769 1.495 . S
C773 H779 0.959 . S
C773 H780 0.961 . S
C773 H781 0.960 . S
C774 C772 1.381 . S
C774 C775 1.394 . S
C774 H782 0.930 . S
C775 C774 1.394 . S
C775 C776 1.383 . S
C775 H783 0.929 . S
C776 C775 1.383 . S
C776 C777 1.377 . S
C777 H761 0.930 . S
C777 C776 1.377 . S
C777 C778 1.379 . S
C778 H762 0.931 . S
C778 C772 1.383 . S
C778 C777 1.379 . S
H779 C773 0.959 . S
H780 C773 0.961 . S
H781 C773 0.960 . S
H782 C774 0.930 . S
H783 C775 0.929 . S
H784 C792 0.929 . S
H785 C794 0.930 . S
H786 C796 0.930 . S
H787 C799 0.929 . S
H788 C802 0.930 . S
H789 C804 0.960 . S
H790 C804 0.960 . S
H791 C804 0.960 . S
C792 H784 0.929 . S
C792 C793 1.377 . S
C792 C794 1.384 . S
C793 C792 1.377 . S
C793 C799 1.390 . S
C794 H785 0.930 . S
C794 C792 1.384 . S
C794 C795 1.372 . S
C795 C794 1.372 . S
C795 C796 1.400 . S
C795 C800 1.490 . S
C796 H786 0.930 . S
C796 C795 1.400 . S
C796 C799 1.386 . S
H797 C813 0.930 . S
H798 C814 0.931 . S
C799 H787 0.929 . S
C799 C793 1.390 . S
C799 C796 1.386 . S
C800 C795 1.490 . S
C800 C802 1.395 . S
C800 C803 1.403 . S
H801 C807 0.930 . S
C802 H788 0.930 . S
C802 C800 1.395 . S
C802 C805 1.403 . S
C803 C800 1.403 . S
C803 C804 1.524 . S
C803 C807 1.400 . S
C804 H789 0.960 . S
C804 H790 0.960 . S
C804 H791 0.960 . S
C804 C803 1.524 . S
C805 C802 1.403 . S
C805 C806 1.392 . S
C805 C809 1.495 . S
C806 C805 1.392 . S
C806 C807 1.385 . S
C806 C808 1.478 . S
C807 H801 0.930 . S
C807 C803 1.400 . S
C807 C806 1.385 . S
C808 C806 1.478 . S
C808 C810 1.381 . S
C808 C814 1.383 . S
C809 C805 1.495 . S
C809 H815 0.959 . S
C809 H816 0.961 . S
C809 H817 0.960 . S
C810 C808 1.381 . S
C810 C811 1.394 . S
C810 H818 0.930 . S
C811 C810 1.394 . S
C811 C812 1.383 . S
C811 H819 0.929 . S
C812 C811 1.383 . S
C812 C813 1.377 . S
C813 H797 0.930 . S
C813 C812 1.377 . S
C813 C814 1.379 . S
C814 H798 0.931 . S
C814 C808 1.383 . S
C814 C813 1.379 . S
H815 C809 0.959 . S
H816 C809 0.961 . S
H817 C809 0.960 . S
H818 C810 0.930 . S
H819 C811 0.929 . S
H820 C828 0.929 . S
H821 C830 0.930 . S
H822 C832 0.930 . S
H823 C835 0.929 . S
H824 C838 0.930 . S
H825 C840 0.960 . S
H826 C840 0.960 . S
H827 C840 0.960 . S
C828 H820 0.929 . S
C828 C829 1.377 . S
C828 C830 1.384 . S
C829 C828 1.377 . S
C829 C835 1.390 . S
C830 H821 0.930 . S
C830 C828 1.384 . S
C830 C831 1.372 . S
C831 C830 1.372 . S
C831 C832 1.400 . S
C831 C836 1.490 . S
C832 H822 0.930 . S
C832 C831 1.400 . S
C832 C835 1.386 . S
H833 C849 0.930 . S
H834 C850 0.931 . S
C835 H823 0.929 . S
C835 C829 1.390 . S
C835 C832 1.386 . S
C836 C831 1.490 . S
C836 C838 1.395 . S
C836 C839 1.403 . S
H837 C843 0.930 . S
C838 H824 0.930 . S
C838 C836 1.395 . S
C838 C841 1.403 . S
C839 C836 1.403 . S
C839 C840 1.524 . S
C839 C843 1.400 . S
C840 H825 0.960 . S
C840 H826 0.960 . S
C840 H827 0.960 . S
C840 C839 1.524 . S
C841 C838 1.403 . S
C841 C842 1.392 . S
C841 C845 1.495 . S
C842 C841 1.392 . S
C842 C843 1.385 . S
C842 C844 1.478 . S
C843 H837 0.930 . S
C843 C839 1.400 . S
C843 C842 1.385 . S
C844 C842 1.478 . S
C844 C846 1.381 . S
C844 C850 1.383 . S
C845 C841 1.495 . S
C845 H851 0.959 . S
C845 H852 0.961 . S
C845 H853 0.960 . S
C846 C844 1.381 . S
C846 C847 1.394 . S
C846 H854 0.930 . S
C847 C846 1.394 . S
C847 C848 1.383 . S
C847 H855 0.929 1_545 S
C848 C847 1.383 . S
C848 C849 1.377 . S
C849 H833 0.930 . S
C849 C848 1.377 . S
C849 C850 1.379 . S
C850 H834 0.931 . S
C850 C844 1.383 . S
C850 C849 1.379 . S
H851 C845 0.959 . S
H852 C845 0.961 . S
H853 C845 0.960 . S
H854 C846 0.930 . S
H855 C847 0.929 1_565 S
H856 C864 0.929 . S
H857 C866 0.930 . S
H858 C868 0.930 . S
H859 C871 0.929 . S
H860 C874 0.930 . S
H861 C876 0.960 . S
H862 C876 0.960 . S
H863 C876 0.960 . S
C864 H856 0.929 . S
C864 C865 1.377 . S
C864 C866 1.384 . S
C865 C864 1.377 . S
C865 C871 1.390 . S
C866 H857 0.930 . S
C866 C864 1.384 . S
C866 C867 1.372 . S
C867 C866 1.372 . S
C867 C868 1.400 . S
C867 C872 1.490 . S
C868 H858 0.930 . S
C868 C867 1.400 . S
C868 C871 1.386 . S
H869 C885 0.930 1_556 S
H870 C886 0.931 . S
C871 H859 0.929 . S
C871 C865 1.390 . S
C871 C868 1.386 . S
C872 C867 1.490 . S
C872 C874 1.395 . S
C872 C875 1.403 . S
H873 C879 0.930 . S
C874 H860 0.930 . S
C874 C872 1.395 . S
C874 C877 1.403 . S
C875 C872 1.403 . S
C875 C876 1.524 . S
C875 C879 1.400 . S
C876 H861 0.960 . S
C876 H862 0.960 . S
C876 H863 0.960 . S
C876 C875 1.524 . S
C877 C874 1.403 . S
C877 C878 1.392 . S
C877 C881 1.495 . S
C878 C877 1.392 . S
C878 C879 1.385 . S
C878 C880 1.478 . S
C879 H873 0.930 . S
C879 C875 1.400 . S
C879 C878 1.385 . S
C880 C878 1.478 . S
C880 C882 1.381 . S
C880 C886 1.383 . S
C881 C877 1.495 . S
C881 H887 0.959 . S
C881 H888 0.961 . S
C881 H889 0.960 . S
C882 C880 1.381 . S
C882 C883 1.394 . S
C882 H890 0.930 . S
C883 C882 1.394 . S
C883 C884 1.383 . S
C883 H891 0.929 . S
C884 C883 1.383 . S
C884 C885 1.377 . S
C885 H869 0.930 1_554 S
C885 C884 1.377 . S
C885 C886 1.379 . S
C886 H870 0.931 . S
C886 C880 1.383 . S
C886 C885 1.379 . S
H887 C881 0.959 . S
H888 C881 0.961 . S
H889 C881 0.960 . S
H890 C882 0.930 . S
H891 C883 0.929 . S
H892 C900 0.929 . S
H893 C902 0.930 . S
H894 C904 0.930 . S
H895 C907 0.929 . S
H896 C910 0.930 . S
H897 C912 0.960 . S
H898 C912 0.960 . S
H899 C912 0.960 . S
C900 H892 0.929 . S
C900 C901 1.377 . S
C900 C902 1.384 . S
C901 C900 1.377 . S
C901 C907 1.390 . S
C902 H893 0.930 . S
C902 C900 1.384 . S
C902 C903 1.372 . S
C903 C902 1.372 . S
C903 C904 1.400 . S
C903 C908 1.490 . S
C904 H894 0.930 . S
C904 C903 1.400 . S
C904 C907 1.386 . S
H905 C921 0.930 1_545 S
H906 C922 0.931 . S
C907 H895 0.929 . S
C907 C901 1.390 . S
C907 C904 1.386 . S
C908 C903 1.490 . S
C908 C910 1.395 . S
C908 C911 1.403 . S
H909 C915 0.930 . S
C910 H896 0.930 . S
C910 C908 1.395 . S
C910 C913 1.403 . S
C911 C908 1.403 . S
C911 C912 1.524 . S
C911 C915 1.400 . S
C912 H897 0.960 . S
C912 H898 0.960 . S
C912 H899 0.960 . S
C912 C911 1.524 . S
C913 C910 1.403 . S
C913 C914 1.392 . S
C913 C917 1.495 . S
C914 C913 1.392 . S
C914 C915 1.385 . S
C914 C916 1.478 . S
C915 H909 0.930 . S
C915 C911 1.400 . S
C915 C914 1.385 . S
C916 C914 1.478 . S
C916 C918 1.381 . S
C916 C922 1.383 . S
C917 C913 1.495 . S
C917 H923 0.959 . S
C917 H924 0.961 . S
C917 H925 0.960 . S
C918 C916 1.381 . S
C918 C919 1.394 . S
C918 H926 0.930 . S
C919 C918 1.394 . S
C919 C920 1.383 . S
C919 H927 0.929 . S
C920 C919 1.383 . S
C920 C921 1.377 . S
C921 H905 0.930 1_565 S
C921 C920 1.377 . S
C921 C922 1.379 . S
C922 H906 0.931 . S
C922 C916 1.383 . S
C922 C921 1.379 . S
H923 C917 0.959 . S
H924 C917 0.961 . S
H925 C917 0.960 . S
H926 C918 0.930 . S
H927 C919 0.929 . S
H928 C936 0.929 . S
H929 C938 0.930 . S
H930 C940 0.930 . S
H931 C943 0.929 . S
H932 C946 0.930 . S
H933 C948 0.960 . S
H934 C948 0.960 . S
H935 C948 0.960 . S
C936 H928 0.929 . S
C936 C937 1.377 . S
C936 C938 1.384 . S
C937 C936 1.377 . S
C937 C943 1.390 . S
C938 H929 0.930 . S
C938 C936 1.384 . S
C938 C939 1.372 . S
C939 C938 1.372 . S
C939 C940 1.400 . S
C939 C944 1.490 . S
C940 H930 0.930 . S
C940 C939 1.400 . S
C940 C943 1.386 . S
H941 C957 0.930 . S
H942 C958 0.931 . S
C943 H931 0.929 . S
C943 C937 1.390 . S
C943 C940 1.386 . S
C944 C939 1.490 . S
C944 C946 1.395 . S
C944 C947 1.403 . S
H945 C951 0.930 . S
C946 H932 0.930 . S
C946 C944 1.395 . S
C946 C949 1.403 . S
C947 C944 1.403 . S
C947 C948 1.524 . S
C947 C951 1.400 . S
C948 H933 0.960 . S
C948 H934 0.960 . S
C948 H935 0.960 . S
C948 C947 1.524 . S
C949 C946 1.403 . S
C949 C950 1.392 . S
C949 C953 1.495 . S
C950 C949 1.392 . S
C950 C951 1.385 . S
C950 C952 1.478 . S
C951 H945 0.930 . S
C951 C947 1.400 . S
C951 C950 1.385 . S
C952 C950 1.478 . S
C952 C954 1.381 . S
C952 C958 1.383 . S
C953 C949 1.495 . S
C953 H959 0.959 . S
C953 H960 0.961 . S
C953 H961 0.960 . S
C954 C952 1.381 . S
C954 C955 1.394 . S
C954 H962 0.930 . S
C955 C954 1.394 . S
C955 C956 1.383 . S
C955 H963 0.929 . S
C956 C955 1.383 . S
C956 C957 1.377 . S
C957 H941 0.930 . S
C957 C956 1.377 . S
C957 C958 1.379 . S
C958 H942 0.931 . S
C958 C952 1.383 . S
C958 C957 1.379 . S
H959 C953 0.959 . S
H960 C953 0.961 . S
H961 C953 0.960 . S
H962 C954 0.930 . S
H963 C955 0.929 . S
H964 C972 0.929 . S
H965 C974 0.930 . S
H966 C976 0.930 . S
H967 C979 0.929 . S
H968 C982 0.930 . S
H969 C984 0.960 . S
H970 C984 0.960 . S
H971 C984 0.960 . S
C972 H964 0.929 . S
C972 C973 1.377 . S
C972 C974 1.384 . S
C973 C972 1.377 . S
C973 C979 1.390 . S
C974 H965 0.930 . S
C974 C972 1.384 . S
C974 C975 1.372 . S
C975 C974 1.372 . S
C975 C976 1.400 . S
C975 C980 1.490 . S
C976 H966 0.930 . S
C976 C975 1.400 . S
C976 C979 1.386 . S
H977 C993 0.930 . S
H978 C994 0.931 . S
C979 H967 0.929 . S
C979 C973 1.390 . S
C979 C976 1.386 . S
C980 C975 1.490 . S
C980 C982 1.395 . S
C980 C983 1.403 . S
H981 C987 0.930 . S
C982 H968 0.930 . S
C982 C980 1.395 . S
C982 C985 1.403 . S
C983 C980 1.403 . S
C983 C984 1.524 . S
C983 C987 1.400 . S
C984 H969 0.960 . S
C984 H970 0.960 . S
C984 H971 0.960 . S
C984 C983 1.524 . S
C985 C982 1.403 . S
C985 C986 1.392 . S
C985 C989 1.495 . S
C986 C985 1.392 . S
C986 C987 1.385 . S
C986 C988 1.478 . S
C987 H981 0.930 . S
C987 C983 1.400 . S
C987 C986 1.385 . S
C988 C986 1.478 . S
C988 C990 1.381 . S
C988 C994 1.383 . S
C989 C985 1.495 . S
C989 H995 0.959 . S
C989 H996 0.961 . S
C989 H997 0.960 . S
C990 C988 1.381 . S
C990 C991 1.394 . S
C990 H998 0.930 . S
C991 C990 1.394 . S
C991 C992 1.383 . S
C991 H999 0.929 . S
C992 C991 1.383 . S
C992 C993 1.377 . S
C993 H977 0.930 . S
C993 C992 1.377 . S
C993 C994 1.379 . S
C994 H978 0.931 . S
C994 C988 1.383 . S
C994 C993 1.379 . S
H995 C989 0.959 . S
H996 C989 0.961 . S
H997 C989 0.960 . S
H998 C990 0.930 . S
H999 C991 0.929 . S
H1000 C1008 0.929 1_655 S
H1001 C1010 0.930 . S
H1002 C1012 0.930 . S
H1003 C1015 0.929 . S
H1004 C1018 0.930 . S
H1005 C1020 0.960 . S
H1006 C1020 0.960 . S
H1007 C1020 0.960 . S
C1008 H1000 0.929 1_455 S
C1008 C1009 1.377 . S
C1008 C1010 1.384 . S
C1009 C1008 1.377 . S
C1009 C1015 1.390 . S
C1010 H1001 0.930 . S
C1010 C1008 1.384 . S
C1010 C1011 1.372 . S
C1011 C1010 1.372 . S
C1011 C1012 1.400 . S
C1011 C1016 1.490 . S
C1012 H1002 0.930 . S
C1012 C1011 1.400 . S
C1012 C1015 1.386 . S
H1013 C1029 0.930 . S
H1014 C1030 0.931 . S
C1015 H1003 0.929 . S
C1015 C1009 1.390 . S
C1015 C1012 1.386 . S
C1016 C1011 1.490 . S
C1016 C1018 1.395 . S
C1016 C1019 1.403 . S
H1017 C1023 0.930 . S
C1018 H1004 0.930 . S
C1018 C1016 1.395 . S
C1018 C1021 1.403 . S
C1019 C1016 1.403 . S
C1019 C1020 1.524 . S
C1019 C1023 1.400 . S
C1020 H1005 0.960 . S
C1020 H1006 0.960 . S
C1020 H1007 0.960 . S
C1020 C1019 1.524 . S
C1021 C1018 1.403 . S
C1021 C1022 1.392 . S
C1021 C1025 1.495 . S
C1022 C1021 1.392 . S
C1022 C1023 1.385 . S
C1022 C1024 1.478 . S
C1023 H1017 0.930 . S
C1023 C1019 1.400 . S
C1023 C1022 1.385 . S
C1024 C1022 1.478 . S
C1024 C1026 1.381 . S
C1024 C1030 1.383 . S
C1025 C1021 1.495 . S
C1025 H1031 0.959 . S
C1025 H1032 0.961 . S
C1025 H1033 0.960 . S
C1026 C1024 1.381 . S
C1026 C1027 1.394 . S
C1026 H1034 0.930 . S
C1027 C1026 1.394 . S
C1027 C1028 1.383 . S
C1027 H1035 0.929 . S
C1028 C1027 1.383 . S
C1028 C1029 1.377 . S
C1029 H1013 0.930 . S
C1029 C1028 1.377 . S
C1029 C1030 1.379 . S
C1030 H1014 0.931 . S
C1030 C1024 1.383 . S
C1030 C1029 1.379 . S
H1031 C1025 0.959 . S
H1032 C1025 0.961 . S
H1033 C1025 0.960 . S
H1034 C1026 0.930 . S
H1035 C1027 0.929 . S
H1036 C1044 0.929 . S
H1037 C1046 0.930 . S
H1038 C1048 0.930 . S
H1039 C1051 0.929 . S
H1040 C1054 0.930 . S
H1041 C1056 0.960 . S
H1042 C1056 0.960 . S
H1043 C1056 0.960 . S
C1044 H1036 0.929 . S
C1044 C1045 1.377 . S
C1044 C1046 1.384 . S
C1045 C1044 1.377 . S
C1045 C1051 1.390 . S
C1046 H1037 0.930 . S
C1046 C1044 1.384 . S
C1046 C1047 1.372 . S
C1047 C1046 1.372 . S
C1047 C1048 1.400 . S
C1047 C1052 1.490 . S
C1048 H1038 0.930 . S
C1048 C1047 1.400 . S
C1048 C1051 1.386 . S
H1049 C1065 0.930 . S
H1050 C1066 0.931 . S
C1051 H1039 0.929 . S
C1051 C1045 1.390 . S
C1051 C1048 1.386 . S
C1052 C1047 1.490 . S
C1052 C1054 1.395 . S
C1052 C1055 1.403 . S
H1053 C1059 0.930 . S
C1054 H1040 0.930 . S
C1054 C1052 1.395 . S
C1054 C1057 1.403 . S
C1055 C1052 1.403 . S
C1055 C1056 1.524 . S
C1055 C1059 1.400 . S
C1056 H1041 0.960 . S
C1056 H1042 0.960 . S
C1056 H1043 0.960 . S
C1056 C1055 1.524 . S
C1057 C1054 1.403 . S
C1057 C1058 1.392 . S
C1057 C1061 1.495 . S
C1058 C1057 1.392 . S
C1058 C1059 1.385 . S
C1058 C1060 1.478 . S
C1059 H1053 0.930 . S
C1059 C1055 1.400 . S
C1059 C1058 1.385 . S
C1060 C1058 1.478 . S
C1060 C1062 1.381 . S
C1060 C1066 1.383 . S
C1061 C1057 1.495 . S
C1061 H1067 0.959 . S
C1061 H1068 0.961 . S
C1061 H1069 0.960 . S
C1062 C1060 1.381 . S
C1062 C1063 1.394 . S
C1062 H1070 0.930 . S
C1063 C1062 1.394 . S
C1063 C1064 1.383 . S
C1063 H1071 0.929 . S
C1064 C1063 1.383 . S
C1064 C1065 1.377 . S
C1065 H1049 0.930 . S
C1065 C1064 1.377 . S
C1065 C1066 1.379 . S
C1066 H1050 0.931 . S
C1066 C1060 1.383 . S
C1066 C1065 1.379 . S
H1067 C1061 0.959 . S
H1068 C1061 0.961 . S
H1069 C1061 0.960 . S
H1070 C1062 0.930 . S
H1071 C1063 0.929 . S
H1072 C1080 0.929 . S
H1073 C1082 0.930 . S
H1074 C1084 0.930 . S
H1075 C1087 0.929 . S
H1076 C1090 0.930 . S
H1077 C1092 0.960 . S
H1078 C1092 0.960 . S
H1079 C1092 0.960 . S
C1080 H1072 0.929 . S
C1080 C1081 1.377 . S
C1080 C1082 1.384 . S
C1081 C1080 1.377 . S
C1081 C1087 1.390 . S
C1082 H1073 0.930 . S
C1082 C1080 1.384 . S
C1082 C1083 1.372 . S
C1083 C1082 1.372 . S
C1083 C1084 1.400 . S
C1083 C1088 1.490 . S
C1084 H1074 0.930 . S
C1084 C1083 1.400 . S
C1084 C1087 1.386 . S
H1085 C1101 0.930 . S
H1086 C1102 0.931 . S
C1087 H1075 0.929 . S
C1087 C1081 1.390 . S
C1087 C1084 1.386 . S
C1088 C1083 1.490 . S
C1088 C1090 1.395 . S
C1088 C1091 1.403 . S
H1089 C1095 0.930 . S
C1090 H1076 0.930 . S
C1090 C1088 1.395 . S
C1090 C1093 1.403 . S
C1091 C1088 1.403 . S
C1091 C1092 1.524 . S
C1091 C1095 1.400 . S
C1092 H1077 0.960 . S
C1092 H1078 0.960 . S
C1092 H1079 0.960 . S
C1092 C1091 1.524 . S
C1093 C1090 1.403 . S
C1093 C1094 1.392 . S
C1093 C1097 1.495 . S
C1094 C1093 1.392 . S
C1094 C1095 1.385 . S
C1094 C1096 1.478 . S
C1095 H1089 0.930 . S
C1095 C1091 1.400 . S
C1095 C1094 1.385 . S
C1096 C1094 1.478 . S
C1096 C1098 1.381 . S
C1096 C1102 1.383 . S
C1097 C1093 1.495 . S
C1097 H1103 0.959 . S
C1097 H1104 0.961 . S
C1097 H1105 0.960 . S
C1098 C1096 1.381 . S
C1098 C1099 1.394 . S
C1098 H1106 0.930 . S
C1099 C1098 1.394 . S
C1099 C1100 1.383 . S
C1099 H1107 0.929 . S
C1100 C1099 1.383 . S
C1100 C1101 1.377 . S
C1101 H1085 0.930 . S
C1101 C1100 1.377 . S
C1101 C1102 1.379 . S
C1102 H1086 0.931 . S
C1102 C1096 1.383 . S
C1102 C1101 1.379 . S
H1103 C1097 0.959 . S
H1104 C1097 0.961 . S
H1105 C1097 0.960 . S
H1106 C1098 0.930 . S
H1107 C1099 0.929 . S
H1108 C1116 0.929 . S
H1109 C1118 0.930 . S
H1110 C1120 0.930 1_554 S
H1111 C1123 0.929 . S
H1112 C1126 0.930 . S
H1113 C1128 0.960 . S
H1114 C1128 0.960 . S
H1115 C1128 0.960 . S
C1116 H1108 0.929 . S
C1116 C1117 1.377 . S
C1116 C1118 1.384 . S
C1117 C1116 1.377 . S
C1117 C1123 1.390 1_556 S
C1118 H1109 0.930 . S
C1118 C1116 1.384 . S
C1118 C1119 1.372 . S
C1119 C1118 1.372 . S
C1119 C1120 1.400 . S
C1119 C1124 1.490 . S
C1120 H1110 0.930 1_556 S
C1120 C1119 1.400 . S
C1120 C1123 1.386 1_556 S
H1121 C1137 0.930 . S
H1122 C1138 0.931 . S
C1123 H1111 0.929 . S
C1123 C1117 1.390 1_554 S
C1123 C1120 1.386 1_554 S
C1124 C1119 1.490 . S
C1124 C1126 1.395 . S
C1124 C1127 1.403 . S
H1125 C1131 0.930 . S
C1126 H1112 0.930 . S
C1126 C1124 1.395 . S
C1126 C1129 1.403 . S
C1127 C1124 1.403 . S
C1127 C1128 1.524 . S
C1127 C1131 1.400 . S
C1128 H1113 0.960 . S
C1128 H1114 0.960 . S
C1128 H1115 0.960 . S
C1128 C1127 1.524 . S
C1129 C1126 1.403 . S
C1129 C1130 1.392 . S
C1129 C1133 1.495 . S
C1130 C1129 1.392 . S
C1130 C1131 1.385 . S
C1130 C1132 1.478 . S
C1131 H1125 0.930 . S
C1131 C1127 1.400 . S
C1131 C1130 1.385 . S
C1132 C1130 1.478 . S
C1132 C1134 1.381 . S
C1132 C1138 1.383 . S
C1133 C1129 1.495 . S
C1133 H1139 0.959 . S
C1133 H1140 0.961 . S
C1133 H1141 0.960 . S
C1134 C1132 1.381 . S
C1134 C1135 1.394 . S
C1134 H1142 0.930 . S
C1135 C1134 1.394 . S
C1135 C1136 1.383 . S
C1135 H1143 0.929 . S
C1136 C1135 1.383 . S
C1136 C1137 1.377 . S
C1137 H1121 0.930 . S
C1137 C1136 1.377 . S
C1137 C1138 1.379 . S
C1138 H1122 0.931 . S
C1138 C1132 1.383 . S
C1138 C1137 1.379 . S
H1139 C1133 0.959 . S
H1140 C1133 0.961 . S
H1141 C1133 0.960 . S
H1142 C1134 0.930 . S
H1143 C1135 0.929 . S
H1144 C1152 0.929 . S
H1145 C1154 0.930 . S
H1146 C1156 0.930 . S
H1147 C1159 0.929 . S
H1148 C1162 0.930 . S
H1149 C1164 0.960 . S
H1150 C1164 0.960 . S
H1151 C1164 0.960 . S
C1152 H1144 0.929 . S
C1152 C1153 1.377 . S
C1152 C1154 1.384 . S
C1153 C1152 1.377 . S
C1153 C1159 1.390 . S
C1154 H1145 0.930 . S
C1154 C1152 1.384 . S
C1154 C1155 1.372 . S
C1155 C1154 1.372 . S
C1155 C1156 1.400 . S
C1155 C1160 1.490 . S
C1156 H1146 0.930 . S
C1156 C1155 1.400 . S
C1156 C1159 1.386 . S
H1157 C1173 0.930 . S
H1158 C1174 0.931 . S
C1159 H1147 0.929 . S
C1159 C1153 1.390 . S
C1159 C1156 1.386 . S
C1160 C1155 1.490 . S
C1160 C1162 1.395 . S
C1160 C1163 1.403 . S
H1161 C1167 0.930 . S
C1162 H1148 0.930 . S
C1162 C1160 1.395 . S
C1162 C1165 1.403 . S
C1163 C1160 1.403 . S
C1163 C1164 1.524 . S
C1163 C1167 1.400 . S
C1164 H1149 0.960 . S
C1164 H1150 0.960 . S
C1164 H1151 0.960 . S
C1164 C1163 1.524 . S
C1165 C1162 1.403 . S
C1165 C1166 1.392 . S
C1165 C1169 1.495 . S
C1166 C1165 1.392 . S
C1166 C1167 1.385 . S
C1166 C1168 1.478 . S
C1167 H1161 0.930 . S
C1167 C1163 1.400 . S
C1167 C1166 1.385 . S
C1168 C1166 1.478 . S
C1168 C1170 1.381 . S
C1168 C1174 1.383 . S
C1169 C1165 1.495 . S
C1169 H1175 0.959 . S
C1169 H1176 0.961 . S
C1169 H1177 0.960 . S
C1170 C1168 1.381 . S
C1170 C1171 1.394 . S
C1170 H1178 0.930 . S
C1171 C1170 1.394 . S
C1171 C1172 1.383 . S
C1171 H1179 0.929 . S
C1172 C1171 1.383 . S
C1172 C1173 1.377 . S
C1173 H1157 0.930 . S
C1173 C1172 1.377 . S
C1173 C1174 1.379 . S
C1174 H1158 0.931 . S
C1174 C1168 1.383 . S
C1174 C1173 1.379 . S
H1175 C1169 0.959 . S
H1176 C1169 0.961 . S
H1177 C1169 0.960 . S
H1178 C1170 0.930 . S
H1179 C1171 0.929 . S
H1180 C1188 0.929 . S
H1181 C1190 0.930 . S
H1182 C1192 0.930 . S
H1183 C1195 0.929 . S
H1184 C1198 0.930 . S
H1185 C1200 0.960 . S
H1186 C1200 0.960 . S
H1187 C1200 0.960 . S
C1188 H1180 0.929 . S
C1188 C1189 1.377 . S
C1188 C1190 1.384 . S
C1189 C1188 1.377 . S
C1189 C1195 1.390 . S
C1190 H1181 0.930 . S
C1190 C1188 1.384 . S
C1190 C1191 1.372 . S
C1191 C1190 1.372 . S
C1191 C1192 1.400 . S
C1191 C1196 1.490 . S
C1192 H1182 0.930 . S
C1192 C1191 1.400 . S
C1192 C1195 1.386 . S
H1193 C1209 0.930 . S
H1194 C1210 0.931 . S
C1195 H1183 0.929 . S
C1195 C1189 1.390 . S
C1195 C1192 1.386 . S
C1196 C1191 1.490 . S
C1196 C1198 1.395 . S
C1196 C1199 1.403 . S
H1197 C1203 0.930 . S
C1198 H1184 0.930 . S
C1198 C1196 1.395 . S
C1198 C1201 1.403 . S
C1199 C1196 1.403 . S
C1199 C1200 1.524 . S
C1199 C1203 1.400 . S
C1200 H1185 0.960 . S
C1200 H1186 0.960 . S
C1200 H1187 0.960 . S
C1200 C1199 1.524 . S
C1201 C1198 1.403 . S
C1201 C1202 1.392 . S
C1201 C1205 1.495 . S
C1202 C1201 1.392 . S
C1202 C1203 1.385 . S
C1202 C1204 1.478 . S
C1203 H1197 0.930 . S
C1203 C1199 1.400 . S
C1203 C1202 1.385 . S
C1204 C1202 1.478 . S
C1204 C1206 1.381 . S
C1204 C1210 1.383 . S
C1205 C1201 1.495 . S
C1205 H1211 0.959 . S
C1205 H1212 0.961 . S
C1205 H1213 0.960 . S
C1206 C1204 1.381 . S
C1206 C1207 1.394 . S
C1206 H1214 0.930 . S
C1207 C1206 1.394 . S
C1207 C1208 1.383 . S
C1207 H1215 0.929 . S
C1208 C1207 1.383 . S
C1208 C1209 1.377 . S
C1209 H1193 0.930 . S
C1209 C1208 1.377 . S
C1209 C1210 1.379 . S
C1210 H1194 0.931 . S
C1210 C1204 1.383 . S
C1210 C1209 1.379 . S
H1211 C1205 0.959 . S
H1212 C1205 0.961 . S
H1213 C1205 0.960 . S
H1214 C1206 0.930 . S
H1215 C1207 0.929 . S
H1216 C1224 0.929 . S
H1217 C1226 0.930 . S
H1218 C1228 0.930 . S
H1219 C1231 0.929 . S
H1220 C1234 0.930 . S
H1221 C1236 0.960 . S
H1222 C1236 0.960 . S
H1223 C1236 0.960 . S
C1224 H1216 0.929 . S
C1224 C1225 1.377 . S
C1224 C1226 1.384 . S
C1225 C1224 1.377 . S
C1225 C1231 1.390 . S
C1226 H1217 0.930 . S
C1226 C1224 1.384 . S
C1226 C1227 1.372 . S
C1227 C1226 1.372 . S
C1227 C1228 1.400 . S
C1227 C1232 1.490 . S
C1228 H1218 0.930 . S
C1228 C1227 1.400 . S
C1228 C1231 1.386 . S
H1229 C1245 0.930 . S
H1230 C1246 0.931 . S
C1231 H1219 0.929 . S
C1231 C1225 1.390 . S
C1231 C1228 1.386 . S
C1232 C1227 1.490 . S
C1232 C1234 1.395 . S
C1232 C1235 1.403 . S
H1233 C1239 0.930 . S
C1234 H1220 0.930 . S
C1234 C1232 1.395 . S
C1234 C1237 1.403 . S
C1235 C1232 1.403 . S
C1235 C1236 1.524 . S
C1235 C1239 1.400 . S
C1236 H1221 0.960 . S
C1236 H1222 0.960 . S
C1236 H1223 0.960 . S
C1236 C1235 1.524 . S
C1237 C1234 1.403 . S
C1237 C1238 1.392 . S
C1237 C1241 1.495 . S
C1238 C1237 1.392 . S
C1238 C1239 1.385 . S
C1238 C1240 1.478 . S
C1239 H1233 0.930 . S
C1239 C1235 1.400 . S
C1239 C1238 1.385 . S
C1240 C1238 1.478 . S
C1240 C1242 1.381 . S
C1240 C1246 1.383 . S
C1241 C1237 1.495 . S
C1241 H1247 0.959 . S
C1241 H1248 0.961 . S
C1241 H1249 0.960 . S
C1242 C1240 1.381 . S
C1242 C1243 1.394 . S
C1242 H1250 0.930 . S
C1243 C1242 1.394 . S
C1243 C1244 1.383 . S
C1243 H1251 0.929 1_655 S
C1244 C1243 1.383 . S
C1244 C1245 1.377 . S
C1245 H1229 0.930 . S
C1245 C1244 1.377 . S
C1245 C1246 1.379 . S
C1246 H1230 0.931 . S
C1246 C1240 1.383 . S
C1246 C1245 1.379 . S
H1247 C1241 0.959 . S
H1248 C1241 0.961 . S
H1249 C1241 0.960 . S
H1250 C1242 0.930 . S
H1251 C1243 0.929 1_455 S
H1252 C1260 0.929 . S
H1253 C1262 0.930 . S
H1254 C1264 0.930 . S
H1255 C1267 0.929 . S
H1256 C1270 0.930 . S
H1257 C1272 0.960 . S
H1258 C1272 0.960 . S
H1259 C1272 0.960 . S
C1260 H1252 0.929 . S
C1260 C1261 1.377 . S
C1260 C1262 1.384 . S
C1261 C1260 1.377 . S
C1261 C1267 1.390 . S
C1262 H1253 0.930 . S
C1262 C1260 1.384 . S
C1262 C1263 1.372 . S
C1263 C1262 1.372 . S
C1263 C1264 1.400 . S
C1263 C1268 1.490 . S
C1264 H1254 0.930 . S
C1264 C1263 1.400 . S
C1264 C1267 1.386 . S
H1265 C1281 0.930 . S
H1266 C1282 0.931 . S
C1267 H1255 0.929 . S
C1267 C1261 1.390 . S
C1267 C1264 1.386 . S
C1268 C1263 1.490 . S
C1268 C1270 1.395 . S
C1268 C1271 1.403 . S
H1269 C1275 0.930 . S
C1270 H1256 0.930 . S
C1270 C1268 1.395 . S
C1270 C1273 1.403 . S
C1271 C1268 1.403 . S
C1271 C1272 1.524 . S
C1271 C1275 1.400 . S
C1272 H1257 0.960 . S
C1272 H1258 0.960 . S
C1272 H1259 0.960 . S
C1272 C1271 1.524 . S
C1273 C1270 1.403 . S
C1273 C1274 1.392 . S
C1273 C1277 1.495 . S
C1274 C1273 1.392 . S
C1274 C1275 1.385 . S
C1274 C1276 1.478 . S
C1275 H1269 0.930 . S
C1275 C1271 1.400 . S
C1275 C1274 1.385 . S
C1276 C1274 1.478 . S
C1276 C1278 1.381 . S
C1276 C1282 1.383 . S
C1277 C1273 1.495 . S
C1277 H1283 0.959 . S
C1277 H1284 0.961 . S
C1277 H1285 0.960 . S
C1278 C1276 1.381 . S
C1278 C1279 1.394 . S
C1278 H1286 0.930 . S
C1279 C1278 1.394 . S
C1279 C1280 1.383 . S
C1279 H1287 0.929 . S
C1280 C1279 1.383 . S
C1280 C1281 1.377 . S
C1281 H1265 0.930 . S
C1281 C1280 1.377 . S
C1281 C1282 1.379 . S
C1282 H1266 0.931 . S
C1282 C1276 1.383 . S
C1282 C1281 1.379 . S
H1283 C1277 0.959 . S
H1284 C1277 0.961 . S
H1285 C1277 0.960 . S
H1286 C1278 0.930 . S
H1287 C1279 0.929 . S
H1288 C1296 0.929 . S
H1289 C1298 0.930 . S
H1290 C1300 0.930 . S
H1291 C1303 0.929 . S
H1292 C1306 0.930 . S
H1293 C1308 0.960 . S
H1294 C1308 0.960 . S
H1295 C1308 0.960 . S
C1296 H1288 0.929 . S
C1296 C1297 1.377 . S
C1296 C1298 1.384 . S
C1297 C1296 1.377 . S
C1297 C1303 1.390 . S
C1298 H1289 0.930 . S
C1298 C1296 1.384 . S
C1298 C1299 1.372 . S
C1299 C1298 1.372 . S
C1299 C1300 1.400 . S
C1299 C1304 1.490 . S
C1300 H1290 0.930 . S
C1300 C1299 1.400 . S
C1300 C1303 1.386 . S
H1301 C1317 0.930 . S
H1302 C1318 0.931 . S
C1303 H1291 0.929 . S
C1303 C1297 1.390 . S
C1303 C1300 1.386 . S
C1304 C1299 1.490 . S
C1304 C1306 1.395 . S
C1304 C1307 1.403 . S
H1305 C1311 0.930 . S
C1306 H1292 0.930 . S
C1306 C1304 1.395 . S
C1306 C1309 1.403 . S
C1307 C1304 1.403 . S
C1307 C1308 1.524 . S
C1307 C1311 1.400 . S
C1308 H1293 0.960 . S
C1308 H1294 0.960 . S
C1308 H1295 0.960 . S
C1308 C1307 1.524 . S
C1309 C1306 1.403 . S
C1309 C1310 1.392 . S
C1309 C1313 1.495 . S
C1310 C1309 1.392 . S
C1310 C1311 1.385 . S
C1310 C1312 1.478 . S
C1311 H1305 0.930 . S
C1311 C1307 1.400 . S
C1311 C1310 1.385 . S
C1312 C1310 1.478 . S
C1312 C1314 1.381 . S
C1312 C1318 1.383 . S
C1313 C1309 1.495 . S
C1313 H1319 0.959 . S
C1313 H1320 0.961 . S
C1313 H1321 0.960 . S
C1314 C1312 1.381 . S
C1314 C1315 1.394 . S
C1314 H1322 0.930 . S
C1315 C1314 1.394 . S
C1315 C1316 1.383 . S
C1315 H1323 0.929 . S
C1316 C1315 1.383 . S
C1316 C1317 1.377 . S
C1317 H1301 0.930 . S
C1317 C1316 1.377 . S
C1317 C1318 1.379 . S
C1318 H1302 0.931 . S
C1318 C1312 1.383 . S
C1318 C1317 1.379 . S
H1319 C1313 0.959 . S
H1320 C1313 0.961 . S
H1321 C1313 0.960 . S
H1322 C1314 0.930 . S
H1323 C1315 0.929 . S
H1324 C1332 0.929 . S
H1325 C1334 0.930 . S
H1326 C1336 0.930 . S
H1327 C1339 0.929 . S
H1328 C1342 0.930 . S
H1329 C1344 0.960 . S
H1330 C1344 0.960 . S
H1331 C1344 0.960 . S
C1332 H1324 0.929 . S
C1332 C1333 1.377 . S
C1332 C1334 1.384 . S
C1333 C1332 1.377 . S
C1333 C1339 1.390 . S
C1334 H1325 0.930 . S
C1334 C1332 1.384 . S
C1334 C1335 1.372 . S
C1335 C1334 1.372 . S
C1335 C1336 1.400 . S
C1335 C1340 1.490 . S
C1336 H1326 0.930 . S
C1336 C1335 1.400 . S
C1336 C1339 1.386 . S
H1337 C1353 0.930 . S
H1338 C1354 0.931 . S
C1339 H1327 0.929 . S
C1339 C1333 1.390 . S
C1339 C1336 1.386 . S
C1340 C1335 1.490 . S
C1340 C1342 1.395 . S
C1340 C1343 1.403 . S
H1341 C1347 0.930 . S
C1342 H1328 0.930 . S
C1342 C1340 1.395 . S
C1342 C1345 1.403 . S
C1343 C1340 1.403 . S
C1343 C1344 1.524 . S
C1343 C1347 1.400 . S
C1344 H1329 0.960 . S
C1344 H1330 0.960 . S
C1344 H1331 0.960 . S
C1344 C1343 1.524 . S
C1345 C1342 1.403 . S
C1345 C1346 1.392 . S
C1345 C1349 1.495 . S
C1346 C1345 1.392 . S
C1346 C1347 1.385 . S
C1346 C1348 1.478 . S
C1347 H1341 0.930 . S
C1347 C1343 1.400 . S
C1347 C1346 1.385 . S
C1348 C1346 1.478 . S
C1348 C1350 1.381 . S
C1348 C1354 1.383 . S
C1349 C1345 1.495 . S
C1349 H1355 0.959 . S
C1349 H1356 0.961 . S
C1349 H1357 0.960 . S
C1350 C1348 1.381 . S
C1350 C1351 1.394 . S
C1350 H1358 0.930 . S
C1351 C1350 1.394 . S
C1351 C1352 1.383 . S
C1351 H1359 0.929 . S
C1352 C1351 1.383 . S
C1352 C1353 1.377 . S
C1353 H1337 0.930 . S
C1353 C1352 1.377 . S
C1353 C1354 1.379 . S
C1354 H1338 0.931 . S
C1354 C1348 1.383 . S
C1354 C1353 1.379 . S
H1355 C1349 0.959 . S
H1356 C1349 0.961 . S
H1357 C1349 0.960 . S
H1358 C1350 0.930 . S
H1359 C1351 0.929 . S
H1360 C1368 0.929 . S
H1361 C1370 0.930 . S
H1362 C1372 0.930 . S
H1363 C1375 0.929 . S
H1364 C1378 0.930 . S
H1365 C1380 0.960 . S
H1366 C1380 0.960 . S
H1367 C1380 0.960 . S
C1368 H1360 0.929 . S
C1368 C1369 1.377 . S
C1368 C1370 1.384 . S
C1369 C1368 1.377 . S
C1369 C1375 1.390 . S
C1370 H1361 0.930 . S
C1370 C1368 1.384 . S
C1370 C1371 1.372 . S
C1371 C1370 1.372 . S
C1371 C1372 1.400 . S
C1371 C1376 1.490 . S
C1372 H1362 0.930 . S
C1372 C1371 1.400 . S
C1372 C1375 1.386 . S
H1373 C1389 0.930 . S
H1374 C1390 0.931 . S
C1375 H1363 0.929 . S
C1375 C1369 1.390 . S
C1375 C1372 1.386 . S
C1376 C1371 1.490 . S
C1376 C1378 1.395 . S
C1376 C1379 1.403 . S
H1377 C1383 0.930 . S
C1378 H1364 0.930 . S
C1378 C1376 1.395 . S
C1378 C1381 1.403 . S
C1379 C1376 1.403 . S
C1379 C1380 1.524 . S
C1379 C1383 1.400 . S
C1380 H1365 0.960 . S
C1380 H1366 0.960 . S
C1380 H1367 0.960 . S
C1380 C1379 1.524 . S
C1381 C1378 1.403 . S
C1381 C1382 1.392 . S
C1381 C1385 1.495 . S
C1382 C1381 1.392 . S
C1382 C1383 1.385 . S
C1382 C1384 1.478 . S
C1383 H1377 0.930 . S
C1383 C1379 1.400 . S
C1383 C1382 1.385 . S
C1384 C1382 1.478 . S
C1384 C1386 1.381 . S
C1384 C1390 1.383 . S
C1385 C1381 1.495 . S
C1385 H1391 0.959 . S
C1385 H1392 0.961 . S
C1385 H1393 0.960 . S
C1386 C1384 1.381 . S
C1386 C1387 1.394 . S
C1386 H1394 0.930 . S
C1387 C1386 1.394 . S
C1387 C1388 1.383 . S
C1387 H1395 0.929 . S
C1388 C1387 1.383 . S
C1388 C1389 1.377 . S
C1389 H1373 0.930 . S
C1389 C1388 1.377 . S
C1389 C1390 1.379 . S
C1390 H1374 0.931 . S
C1390 C1384 1.383 . S
C1390 C1389 1.379 . S
H1391 C1385 0.959 . S
H1392 C1385 0.961 . S
H1393 C1385 0.960 . S
H1394 C1386 0.930 . S
H1395 C1387 0.929 . S
H1396 C1404 0.929 . S
H1397 C1406 0.930 . S
H1398 C1408 0.930 . S
H1399 C1411 0.929 . S
H1400 C1414 0.930 . S
H1401 C1416 0.960 . S
H1402 C1416 0.960 . S
H1403 C1416 0.960 . S
C1404 H1396 0.929 . S
C1404 C1405 1.377 . S
C1404 C1406 1.384 . S
C1405 C1404 1.377 . S
C1405 C1411 1.390 . S
C1406 H1397 0.930 . S
C1406 C1404 1.384 . S
C1406 C1407 1.372 . S
C1407 C1406 1.372 . S
C1407 C1408 1.400 . S
C1407 C1412 1.490 . S
C1408 H1398 0.930 . S
C1408 C1407 1.400 . S
C1408 C1411 1.386 . S
H1409 C1425 0.930 . S
H1410 C1426 0.931 . S
C1411 H1399 0.929 . S
C1411 C1405 1.390 . S
C1411 C1408 1.386 . S
C1412 C1407 1.490 . S
C1412 C1414 1.395 . S
C1412 C1415 1.403 . S
H1413 C1419 0.930 . S
C1414 H1400 0.930 . S
C1414 C1412 1.395 . S
C1414 C1417 1.403 . S
C1415 C1412 1.403 . S
C1415 C1416 1.524 . S
C1415 C1419 1.400 . S
C1416 H1401 0.960 . S
C1416 H1402 0.960 . S
C1416 H1403 0.960 . S
C1416 C1415 1.524 . S
C1417 C1414 1.403 . S
C1417 C1418 1.392 . S
C1417 C1421 1.495 . S
C1418 C1417 1.392 . S
C1418 C1419 1.385 . S
C1418 C1420 1.478 . S
C1419 H1413 0.930 . S
C1419 C1415 1.400 . S
C1419 C1418 1.385 . S
C1420 C1418 1.478 . S
C1420 C1422 1.381 . S
C1420 C1426 1.383 . S
C1421 C1417 1.495 . S
C1421 H1427 0.959 . S
C1421 H1428 0.961 . S
C1421 H1429 0.960 . S
C1422 C1420 1.381 . S
C1422 C1423 1.394 . S
C1422 H1430 0.930 . S
C1423 C1422 1.394 . S
C1423 C1424 1.383 . S
C1423 H1431 0.929 . S
C1424 C1423 1.383 . S
C1424 C1425 1.377 . S
C1425 H1409 0.930 . S
C1425 C1424 1.377 . S
C1425 C1426 1.379 . S
C1426 H1410 0.931 . S
C1426 C1420 1.383 . S
C1426 C1425 1.379 . S
H1427 C1421 0.959 . S
H1428 C1421 0.961 . S
H1429 C1421 0.960 . S
H1430 C1422 0.930 . S
H1431 C1423 0.929 . S
H1432 C1440 0.929 . S
H1433 C1442 0.930 . S
H1434 C1444 0.930 . S
H1435 C1447 0.929 . S
H1436 C1450 0.930 . S
H1437 C1452 0.960 . S
H1438 C1452 0.960 . S
H1439 C1452 0.960 . S
C1440 H1432 0.929 . S
C1440 C1441 1.377 . S
C1440 C1442 1.384 . S
C1441 C1440 1.377 . S
C1441 C1447 1.390 . S
C1442 H1433 0.930 . S
C1442 C1440 1.384 . S
C1442 C1443 1.372 . S
C1443 C1442 1.372 . S
C1443 C1444 1.400 . S
C1443 C1448 1.490 . S
C1444 H1434 0.930 . S
C1444 C1443 1.400 . S
C1444 C1447 1.386 . S
H1445 C1461 0.930 . S
H1446 C1462 0.931 . S
C1447 H1435 0.929 . S
C1447 C1441 1.390 . S
C1447 C1444 1.386 . S
C1448 C1443 1.490 . S
C1448 C1450 1.395 . S
C1448 C1451 1.403 . S
H1449 C1455 0.930 . S
C1450 H1436 0.930 . S
C1450 C1448 1.395 . S
C1450 C1453 1.403 . S
C1451 C1448 1.403 . S
C1451 C1452 1.524 . S
C1451 C1455 1.400 . S
C1452 H1437 0.960 . S
C1452 H1438 0.960 . S
C1452 H1439 0.960 . S
C1452 C1451 1.524 . S
C1453 C1450 1.403 . S
C1453 C1454 1.392 . S
C1453 C1457 1.495 . S
C1454 C1453 1.392 . S
C1454 C1455 1.385 . S
C1454 C1456 1.478 . S
C1455 H1449 0.930 . S
C1455 C1451 1.400 . S
C1455 C1454 1.385 . S
C1456 C1454 1.478 . S
C1456 C1458 1.381 . S
C1456 C1462 1.383 . S
C1457 C1453 1.495 . S
C1457 H1463 0.959 . S
C1457 H1464 0.961 . S
C1457 H1465 0.960 . S
C1458 C1456 1.381 . S
C1458 C1459 1.394 . S
C1458 H1466 0.930 . S
C1459 C1458 1.394 . S
C1459 C1460 1.383 . S
C1459 H1467 0.929 . S
C1460 C1459 1.383 . S
C1460 C1461 1.377 . S
C1461 H1445 0.930 . S
C1461 C1460 1.377 . S
C1461 C1462 1.379 . S
C1462 H1446 0.931 . S
C1462 C1456 1.383 . S
C1462 C1461 1.379 . S
H1463 C1457 0.959 . S
H1464 C1457 0.961 . S
H1465 C1457 0.960 . S
H1466 C1458 0.930 . S
H1467 C1459 0.929 . S
H1468 C1476 0.929 . S
H1469 C1478 0.930 . S
H1470 C1480 0.930 . S
H1471 C1483 0.929 . S
H1472 C1486 0.930 . S
H1473 C1488 0.960 . S
H1474 C1488 0.960 . S
H1475 C1488 0.960 . S
C1476 H1468 0.929 . S
C1476 C1477 1.377 . S
C1476 C1478 1.384 . S
C1477 C1476 1.377 . S
C1477 C1483 1.390 . S
C1478 H1469 0.930 . S
C1478 C1476 1.384 . S
C1478 C1479 1.372 . S
C1479 C1478 1.372 . S
C1479 C1480 1.400 . S
C1479 C1484 1.490 . S
C1480 H1470 0.930 . S
C1480 C1479 1.400 . S
C1480 C1483 1.386 . S
H1481 C1497 0.930 . S
H1482 C1498 0.931 . S
C1483 H1471 0.929 . S
C1483 C1477 1.390 . S
C1483 C1480 1.386 . S
C1484 C1479 1.490 . S
C1484 C1486 1.395 . S
C1484 C1487 1.403 . S
H1485 C1491 0.930 . S
C1486 H1472 0.930 . S
C1486 C1484 1.395 . S
C1486 C1489 1.403 . S
C1487 C1484 1.403 . S
C1487 C1488 1.524 . S
C1487 C1491 1.400 . S
C1488 H1473 0.960 . S
C1488 H1474 0.960 . S
C1488 H1475 0.960 . S
C1488 C1487 1.524 . S
C1489 C1486 1.403 . S
C1489 C1490 1.392 . S
C1489 C1493 1.495 . S
C1490 C1489 1.392 . S
C1490 C1491 1.385 . S
C1490 C1492 1.478 . S
C1491 H1485 0.930 . S
C1491 C1487 1.400 . S
C1491 C1490 1.385 . S
C1492 C1490 1.478 . S
C1492 C1494 1.381 . S
C1492 C1498 1.383 . S
C1493 C1489 1.495 . S
C1493 H1499 0.959 . S
C1493 H1500 0.961 . S
C1493 H1501 0.960 . S
C1494 C1492 1.381 . S
C1494 C1495 1.395 1_556 S
C1494 H1502 0.930 . S
C1495 C1494 1.395 1_554 S
C1495 C1496 1.384 1_554 S
C1495 H1503 0.928 . S
C1496 C1495 1.384 1_556 S
C1496 C1497 1.377 . S
C1497 H1481 0.930 . S
C1497 C1496 1.377 . S
C1497 C1498 1.379 . S
C1498 H1482 0.931 . S
C1498 C1492 1.383 . S
C1498 C1497 1.379 . S
H1499 C1493 0.959 . S
H1500 C1493 0.961 . S
H1501 C1493 0.960 . S
H1502 C1494 0.930 . S
H1503 C1495 0.928 . S
H1504 C1512 0.929 . S
H1505 C1514 0.930 . S
H1506 C1516 0.930 . S
H1507 C1519 0.929 . S
H1508 C1522 0.930 . S
H1509 C1524 0.960 . S
H1510 C1524 0.960 . S
H1511 C1524 0.960 . S
C1512 H1504 0.929 . S
C1512 C1513 1.377 . S
C1512 C1514 1.384 . S
C1513 C1512 1.377 . S
C1513 C1519 1.390 . S
C1514 H1505 0.930 . S
C1514 C1512 1.384 . S
C1514 C1515 1.372 . S
C1515 C1514 1.372 . S
C1515 C1516 1.400 . S
C1515 C1520 1.490 . S
C1516 H1506 0.930 . S
C1516 C1515 1.400 . S
C1516 C1519 1.386 . S
H1517 C1533 0.930 . S
H1518 C1534 0.931 . S
C1519 H1507 0.929 . S
C1519 C1513 1.390 . S
C1519 C1516 1.386 . S
C1520 C1515 1.490 . S
C1520 C1522 1.395 . S
C1520 C1523 1.403 . S
H1521 C1527 0.930 . S
C1522 H1508 0.930 . S
C1522 C1520 1.395 . S
C1522 C1525 1.403 . S
C1523 C1520 1.403 . S
C1523 C1524 1.524 . S
C1523 C1527 1.400 . S
C1524 H1509 0.960 . S
C1524 H1510 0.960 . S
C1524 H1511 0.960 . S
C1524 C1523 1.524 . S
C1525 C1522 1.403 . S
C1525 C1526 1.392 . S
C1525 C1529 1.495 . S
C1526 C1525 1.392 . S
C1526 C1527 1.385 . S
C1526 C1528 1.478 . S
C1527 H1521 0.930 . S
C1527 C1523 1.400 . S
C1527 C1526 1.385 . S
C1528 C1526 1.478 . S
C1528 C1530 1.381 . S
C1528 C1534 1.383 . S
C1529 C1525 1.495 . S
C1529 H1535 0.959 . S
C1529 H1536 0.961 . S
C1529 H1537 0.960 . S
C1530 C1528 1.381 . S
C1530 C1531 1.394 . S
C1530 H1538 0.930 . S
C1531 C1530 1.394 . S
C1531 C1532 1.383 . S
C1531 H1539 0.929 . S
C1532 C1531 1.383 . S
C1532 C1533 1.377 . S
C1533 H1517 0.930 . S
C1533 C1532 1.377 . S
C1533 C1534 1.379 . S
C1534 H1518 0.931 . S
C1534 C1528 1.383 . S
C1534 C1533 1.379 . S
H1535 C1529 0.959 . S
H1536 C1529 0.961 . S
H1537 C1529 0.960 . S
H1538 C1530 0.930 . S
H1539 C1531 0.929 . S
H1540 C1548 0.929 . S
H1541 C1550 0.930 . S
H1542 C1552 0.930 . S
H1543 C1555 0.929 . S
H1544 C1558 0.930 . S
H1545 C1560 0.960 . S
H1546 C1560 0.960 . S
H1547 C1560 0.960 . S
C1548 H1540 0.929 . S
C1548 C1549 1.377 . S
C1548 C1550 1.384 . S
C1549 C1548 1.377 . S
C1549 C1555 1.390 . S
C1550 H1541 0.930 . S
C1550 C1548 1.384 . S
C1550 C1551 1.372 . S
C1551 C1550 1.372 . S
C1551 C1552 1.400 . S
C1551 C1556 1.490 . S
C1552 H1542 0.930 . S
C1552 C1551 1.400 . S
C1552 C1555 1.386 . S
H1553 C1569 0.930 . S
H1554 C1570 0.931 . S
C1555 H1543 0.929 . S
C1555 C1549 1.390 . S
C1555 C1552 1.386 . S
C1556 C1551 1.490 . S
C1556 C1558 1.395 . S
C1556 C1559 1.403 . S
H1557 C1563 0.930 . S
C1558 H1544 0.930 . S
C1558 C1556 1.395 . S
C1558 C1561 1.403 . S
C1559 C1556 1.403 . S
C1559 C1560 1.524 . S
C1559 C1563 1.400 . S
C1560 H1545 0.960 . S
C1560 H1546 0.960 . S
C1560 H1547 0.960 . S
C1560 C1559 1.524 . S
C1561 C1558 1.403 . S
C1561 C1562 1.392 . S
C1561 C1565 1.495 . S
C1562 C1561 1.392 . S
C1562 C1563 1.385 . S
C1562 C1564 1.478 . S
C1563 H1557 0.930 . S
C1563 C1559 1.400 . S
C1563 C1562 1.385 . S
C1564 C1562 1.478 . S
C1564 C1566 1.381 . S
C1564 C1570 1.383 . S
C1565 C1561 1.495 . S
C1565 H1571 0.959 . S
C1565 H1572 0.961 . S
C1565 H1573 0.960 . S
C1566 C1564 1.381 . S
C1566 C1567 1.394 . S
C1566 H1574 0.930 . S
C1567 C1566 1.394 . S
C1567 C1568 1.383 . S
C1567 H1575 0.929 . S
C1568 C1567 1.383 . S
C1568 C1569 1.377 . S
C1569 H1553 0.930 . S
C1569 C1568 1.377 . S
C1569 C1570 1.379 . S
C1570 H1554 0.931 . S
C1570 C1564 1.383 . S
C1570 C1569 1.379 . S
H1571 C1565 0.959 . S
H1572 C1565 0.961 . S
H1573 C1565 0.960 . S
H1574 C1566 0.930 . S
H1575 C1567 0.929 . S
H1576 C1584 0.929 . S
H1577 C1586 0.930 . S
H1578 C1588 0.930 . S
H1579 C1591 0.929 . S
H1580 C1594 0.930 . S
H1581 C1596 0.960 . S
H1582 C1596 0.960 . S
H1583 C1596 0.960 . S
C1584 H1576 0.929 . S
C1584 C1585 1.377 . S
C1584 C1586 1.384 . S
C1585 C1584 1.377 . S
C1585 C1591 1.390 . S
C1586 H1577 0.930 . S
C1586 C1584 1.384 . S
C1586 C1587 1.372 . S
C1587 C1586 1.372 . S
C1587 C1588 1.400 . S
C1587 C1592 1.490 . S
C1588 H1578 0.930 . S
C1588 C1587 1.400 . S
C1588 C1591 1.386 . S
H1589 C1605 0.930 . S
H1590 C1606 0.931 . S
C1591 H1579 0.929 . S
C1591 C1585 1.390 . S
C1591 C1588 1.386 . S
C1592 C1587 1.490 . S
C1592 C1594 1.395 . S
C1592 C1595 1.403 . S
H1593 C1599 0.930 . S
C1594 H1580 0.930 . S
C1594 C1592 1.395 . S
C1594 C1597 1.403 . S
C1595 C1592 1.403 . S
C1595 C1596 1.524 . S
C1595 C1599 1.400 . S
C1596 H1581 0.960 . S
C1596 H1582 0.960 . S
C1596 H1583 0.960 . S
C1596 C1595 1.524 . S
C1597 C1594 1.403 . S
C1597 C1598 1.392 . S
C1597 C1601 1.495 . S
C1598 C1597 1.392 . S
C1598 C1599 1.385 . S
C1598 C1600 1.478 . S
C1599 H1593 0.930 . S
C1599 C1595 1.400 . S
C1599 C1598 1.385 . S
C1600 C1598 1.478 . S
C1600 C1602 1.381 . S
C1600 C1606 1.383 . S
C1601 C1597 1.495 . S
C1601 H1607 0.959 . S
C1601 H1608 0.961 . S
C1601 H1609 0.960 . S
C1602 C1600 1.381 . S
C1602 C1603 1.394 . S
C1602 H1610 0.930 . S
C1603 C1602 1.394 . S
C1603 C1604 1.383 . S
C1603 H1611 0.929 . S
C1604 C1603 1.383 . S
C1604 C1605 1.377 . S
C1605 H1589 0.930 . S
C1605 C1604 1.377 . S
C1605 C1606 1.379 . S
C1606 H1590 0.931 . S
C1606 C1600 1.383 . S
C1606 C1605 1.379 . S
H1607 C1601 0.959 . S
H1608 C1601 0.961 . S
H1609 C1601 0.960 . S
H1610 C1602 0.930 . S
H1611 C1603 0.929 . S
H1612 C1620 0.929 . S
H1613 C1622 0.930 . S
H1614 C1624 0.930 . S
H1615 C1627 0.929 . S
H1616 C1630 0.930 . S
H1617 C1632 0.960 . S
H1618 C1632 0.960 . S
H1619 C1632 0.960 . S
C1620 H1612 0.929 . S
C1620 C1621 1.377 . S
C1620 C1622 1.384 . S
C1621 C1620 1.377 . S
C1621 C1627 1.390 . S
C1622 H1613 0.930 . S
C1622 C1620 1.384 . S
C1622 C1623 1.372 . S
C1623 C1622 1.372 . S
C1623 C1624 1.400 . S
C1623 C1628 1.490 . S
C1624 H1614 0.930 . S
C1624 C1623 1.400 . S
C1624 C1627 1.386 . S
H1625 C1641 0.930 . S
H1626 C1642 0.931 . S
C1627 H1615 0.929 . S
C1627 C1621 1.390 . S
C1627 C1624 1.386 . S
C1628 C1623 1.490 . S
C1628 C1630 1.395 1_455 S
C1628 C1631 1.403 . S
H1629 C1635 0.930 . S
C1630 H1616 0.930 . S
C1630 C1628 1.395 1_655 S
C1630 C1633 1.403 . S
C1631 C1628 1.403 . S
C1631 C1632 1.524 . S
C1631 C1635 1.400 1_554 S
C1632 H1617 0.960 . S
C1632 H1618 0.960 . S
C1632 H1619 0.960 . S
C1632 C1631 1.524 . S
C1633 C1630 1.403 . S
C1633 C1634 1.392 1_554 S
C1633 C1637 1.495 . S
C1634 C1633 1.392 1_556 S
C1634 C1635 1.385 1_655 S
C1634 C1636 1.478 . S
C1635 H1629 0.930 . S
C1635 C1631 1.400 1_556 S
C1635 C1634 1.385 1_455 S
C1636 C1634 1.478 . S
C1636 C1638 1.381 . S
C1636 C1642 1.383 . S
C1637 C1633 1.495 . S
C1637 H1643 0.959 . S
C1637 H1644 0.961 1_554 S
C1637 H1645 0.960 . S
C1638 C1636 1.381 . S
C1638 C1639 1.394 . S
C1638 H1646 0.930 . S
C1639 C1638 1.394 . S
C1639 C1640 1.383 . S
C1639 H1647 0.929 . S
C1640 C1639 1.383 . S
C1640 C1641 1.377 . S
C1641 H1625 0.930 . S
C1641 C1640 1.377 . S
C1641 C1642 1.379 . S
C1642 H1626 0.931 . S
C1642 C1636 1.383 . S
C1642 C1641 1.379 . S
H1643 C1637 0.959 . S
H1644 C1637 0.961 1_556 S
H1645 C1637 0.960 . S
H1646 C1638 0.930 . S
H1647 C1639 0.929 . S
H1648 C1656 0.929 . S
H1649 C1658 0.930 . S
H1650 C1660 0.930 . S
H1651 C1663 0.929 . S
H1652 C1666 0.930 . S
H1653 C1668 0.960 . S
H1654 C1668 0.960 . S
H1655 C1668 0.960 . S
C1656 H1648 0.929 . S
C1656 C1657 1.377 . S
C1656 C1658 1.384 . S
C1657 C1656 1.377 . S
C1657 C1663 1.390 . S
C1658 H1649 0.930 . S
C1658 C1656 1.384 . S
C1658 C1659 1.372 . S
C1659 C1658 1.372 . S
C1659 C1660 1.400 . S
C1659 C1664 1.490 . S
C1660 H1650 0.930 . S
C1660 C1659 1.400 . S
C1660 C1663 1.386 . S
H1661 C1677 0.930 . S
H1662 C1678 0.931 . S
C1663 H1651 0.929 . S
C1663 C1657 1.390 . S
C1663 C1660 1.386 . S
C1664 C1659 1.490 . S
C1664 C1666 1.395 . S
C1664 C1667 1.403 . S
H1665 C1671 0.930 . S
C1666 H1652 0.930 . S
C1666 C1664 1.395 . S
C1666 C1669 1.403 . S
C1667 C1664 1.403 . S
C1667 C1668 1.524 . S
C1667 C1671 1.400 . S
C1668 H1653 0.960 . S
C1668 H1654 0.960 . S
C1668 H1655 0.960 . S
C1668 C1667 1.524 . S
C1669 C1666 1.403 . S
C1669 C1670 1.392 . S
C1669 C1673 1.495 . S
C1670 C1669 1.392 . S
C1670 C1671 1.385 . S
C1670 C1672 1.478 . S
C1671 H1665 0.930 . S
C1671 C1667 1.400 . S
C1671 C1670 1.385 . S
C1672 C1670 1.478 . S
C1672 C1674 1.381 . S
C1672 C1678 1.383 . S
C1673 C1669 1.495 . S
C1673 H1679 0.959 . S
C1673 H1680 0.961 . S
C1673 H1681 0.960 . S
C1674 C1672 1.381 . S
C1674 C1675 1.394 . S
C1674 H1682 0.930 . S
C1675 C1674 1.394 . S
C1675 C1676 1.383 . S
C1675 H1683 0.929 . S
C1676 C1675 1.383 . S
C1676 C1677 1.377 . S
C1677 H1661 0.930 . S
C1677 C1676 1.377 . S
C1677 C1678 1.379 . S
C1678 H1662 0.931 . S
C1678 C1672 1.383 . S
C1678 C1677 1.379 . S
H1679 C1673 0.959 . S
H1680 C1673 0.961 . S
H1681 C1673 0.960 . S
H1682 C1674 0.930 . S
H1683 C1675 0.929 . S
H1684 C1692 0.929 . S
H1685 C1694 0.930 . S
H1686 C1696 0.930 . S
H1687 C1699 0.929 . S
H1688 C1702 0.930 . S
H1689 C1704 0.960 . S
H1690 C1704 0.960 . S
H1691 C1704 0.960 . S
C1692 H1684 0.929 . S
C1692 C1693 1.377 . S
C1692 C1694 1.384 . S
C1693 C1692 1.377 . S
C1693 C1699 1.390 . S
C1694 H1685 0.930 . S
C1694 C1692 1.384 . S
C1694 C1695 1.372 . S
C1695 C1694 1.372 . S
C1695 C1696 1.400 . S
C1695 C1700 1.490 . S
C1696 H1686 0.930 . S
C1696 C1695 1.400 . S
C1696 C1699 1.386 . S
H1697 C1713 0.930 . S
H1698 C1714 0.931 . S
C1699 H1687 0.929 . S
C1699 C1693 1.390 . S
C1699 C1696 1.386 . S
C1700 C1695 1.490 . S
C1700 C1702 1.395 . S
C1700 C1703 1.403 . S
H1701 C1707 0.930 . S
C1702 H1688 0.930 . S
C1702 C1700 1.395 . S
C1702 C1705 1.403 . S
C1703 C1700 1.403 . S
C1703 C1704 1.524 . S
C1703 C1707 1.400 . S
C1704 H1689 0.960 . S
C1704 H1690 0.960 . S
C1704 H1691 0.960 . S
C1704 C1703 1.524 . S
C1705 C1702 1.403 . S
C1705 C1706 1.392 . S
C1705 C1709 1.495 . S
C1706 C1705 1.392 . S
C1706 C1707 1.385 . S
C1706 C1708 1.478 . S
C1707 H1701 0.930 . S
C1707 C1703 1.400 . S
C1707 C1706 1.385 . S
C1708 C1706 1.478 . S
C1708 C1710 1.381 . S
C1708 C1714 1.383 . S
C1709 C1705 1.495 . S
C1709 H1715 0.959 . S
C1709 H1716 0.961 . S
C1709 H1717 0.960 . S
C1710 C1708 1.381 . S
C1710 C1711 1.394 . S
C1710 H1718 0.930 . S
C1711 C1710 1.394 . S
C1711 C1712 1.383 . S
C1711 H1719 0.929 . S
C1712 C1711 1.383 . S
C1712 C1713 1.377 . S
C1713 H1697 0.930 . S
C1713 C1712 1.377 . S
C1713 C1714 1.379 . S
C1714 H1698 0.931 . S
C1714 C1708 1.383 . S
C1714 C1713 1.379 . S
H1715 C1709 0.959 . S
H1716 C1709 0.961 . S
H1717 C1709 0.960 . S
H1718 C1710 0.930 . S
H1719 C1711 0.929 . S
H1720 C1728 0.929 . S
H1721 C1730 0.930 1_655 S
H1722 C1732 0.930 . S
H1723 C1735 0.929 . S
H1724 C1738 0.930 . S
H1725 C1740 0.960 . S
H1726 C1740 0.960 . S
H1727 C1740 0.960 . S
C1728 H1720 0.929 . S
C1728 C1729 1.377 . S
C1728 C1730 1.384 . S
C1729 C1728 1.377 . S
C1729 C1735 1.390 . S
C1730 H1721 0.930 1_455 S
C1730 C1728 1.384 . S
C1730 C1731 1.372 . S
C1731 C1730 1.372 . S
C1731 C1732 1.400 . S
C1731 C1736 1.490 . S
C1732 H1722 0.930 . S
C1732 C1731 1.400 . S
C1732 C1735 1.386 . S
H1733 C1749 0.930 . S
H1734 C1750 0.931 1_455 S
C1735 H1723 0.929 . S
C1735 C1729 1.390 . S
C1735 C1732 1.386 . S
C1736 C1731 1.490 . S
C1736 C1738 1.395 1_445 S
C1736 C1739 1.403 1_556 S
H1737 C1743 0.930 . S
C1738 H1724 0.930 . S
C1738 C1736 1.395 1_665 S
C1738 C1741 1.403 1_556 S
C1739 C1736 1.403 1_554 S
C1739 C1740 1.524 . S
C1739 C1743 1.400 . S
C1740 H1725 0.960 . S
C1740 H1726 0.960 . S
C1740 H1727 0.960 . S
C1740 C1739 1.524 . S
C1741 C1738 1.403 1_554 S
C1741 C1742 1.392 . S
C1741 C1745 1.495 . S
C1742 C1741 1.392 . S
C1742 C1743 1.385 1_665 S
C1742 C1744 1.478 . S
C1743 H1737 0.930 . S
C1743 C1739 1.400 . S
C1743 C1742 1.385 1_445 S
C1744 C1742 1.478 . S
C1744 C1746 1.381 . S
C1744 C1750 1.383 . S
C1745 C1741 1.495 . S
C1745 H1751 0.959 1_554 S
C1745 H1752 0.961 . S
C1745 H1753 0.960 . S
C1746 C1744 1.381 . S
C1746 C1747 1.394 . S
C1746 H1754 0.930 . S
C1747 C1746 1.394 . S
C1747 C1748 1.383 . S
C1747 H1755 0.929 . S
C1748 C1747 1.383 . S
C1748 C1749 1.377 . S
C1749 H1733 0.930 . S
C1749 C1748 1.377 . S
C1749 C1750 1.379 . S
C1750 H1734 0.931 1_655 S
C1750 C1744 1.383 . S
C1750 C1749 1.379 . S
H1751 C1745 0.959 1_556 S
H1752 C1745 0.961 . S
H1753 C1745 0.960 . S
H1754 C1746 0.930 . S
H1755 C1747 0.929 . S
H1756 C1764 0.929 . S
H1757 C1766 0.930 . S
H1758 C1768 0.930 1_565 S
H1759 C1771 0.929 . S
H1760 C1774 0.930 . S
H1761 C1776 0.960 . S
H1762 C1776 0.960 . S
H1763 C1776 0.960 . S
C1764 H1756 0.929 . S
C1764 C1765 1.377 . S
C1764 C1766 1.384 . S
C1765 C1764 1.377 . S
C1765 C1771 1.390 . S
C1766 H1757 0.930 . S
C1766 C1764 1.384 . S
C1766 C1767 1.372 . S
C1767 C1766 1.372 . S
C1767 C1768 1.400 . S
C1767 C1772 1.490 . S
C1768 H1758 0.930 1_545 S
C1768 C1767 1.400 . S
C1768 C1771 1.386 . S
H1769 C1785 0.930 . S
H1770 C1786 0.931 . S
C1771 H1759 0.929 . S
C1771 C1765 1.390 . S
C1771 C1768 1.386 . S
C1772 C1767 1.490 . S
C1772 C1774 1.395 . S
C1772 C1775 1.403 1_545 S
H1773 C1779 0.930 . S
C1774 H1760 0.930 . S
C1774 C1772 1.395 . S
C1774 C1777 1.403 . S
C1775 C1772 1.403 1_565 S
C1775 C1776 1.524 . S
C1775 C1779 1.400 . S
C1776 H1761 0.960 . S
C1776 H1762 0.960 . S
C1776 H1763 0.960 . S
C1776 C1775 1.524 . S
C1777 C1774 1.403 . S
C1777 C1778 1.392 1_545 S
C1777 C1781 1.495 . S
C1778 C1777 1.392 1_565 S
C1778 C1779 1.385 . S
C1778 C1780 1.478 . S
C1779 H1773 0.930 . S
C1779 C1775 1.400 . S
C1779 C1778 1.385 . S
C1780 C1778 1.478 . S
C1780 C1782 1.381 . S
C1780 C1786 1.383 . S
C1781 C1777 1.495 . S
C1781 H1787 0.959 . S
C1781 H1788 0.961 . S
C1781 H1789 0.960 . S
C1782 C1780 1.381 . S
C1782 C1783 1.394 . S
C1782 H1790 0.930 1_565 S
C1783 C1782 1.394 . S
C1783 C1784 1.383 . S
C1783 H1791 0.929 . S
C1784 C1783 1.383 . S
C1784 C1785 1.377 . S
C1785 H1769 0.930 . S
C1785 C1784 1.377 . S
C1785 C1786 1.379 . S
C1786 H1770 0.931 . S
C1786 C1780 1.383 . S
C1786 C1785 1.379 . S
H1787 C1781 0.959 . S
H1788 C1781 0.961 . S
H1789 C1781 0.960 . S
H1790 C1782 0.930 1_545 S
H1791 C1783 0.929 . S
H1792 C1800 0.929 . S
H1793 C1802 0.930 . S
H1794 C1804 0.930 . S
H1795 C1807 0.929 . S
H1796 C1810 0.930 . S
H1797 C1812 0.960 . S
H1798 C1812 0.960 . S
H1799 C1812 0.960 . S
C1800 H1792 0.929 . S
C1800 C1801 1.377 . S
C1800 C1802 1.384 . S
C1801 C1800 1.377 . S
C1801 C1807 1.390 . S
C1802 H1793 0.930 . S
C1802 C1800 1.384 . S
C1802 C1803 1.372 . S
C1803 C1802 1.372 . S
C1803 C1804 1.400 . S
C1803 C1808 1.490 . S
C1804 H1794 0.930 . S
C1804 C1803 1.400 . S
C1804 C1807 1.386 . S
H1805 C1821 0.930 . S
H1806 C1822 0.931 . S
C1807 H1795 0.929 . S
C1807 C1801 1.390 . S
C1807 C1804 1.386 . S
C1808 C1803 1.490 . S
C1808 C1810 1.395 . S
C1808 C1811 1.403 . S
H1809 C1815 0.930 . S
C1810 H1796 0.930 . S
C1810 C1808 1.395 . S
C1810 C1813 1.403 . S
C1811 C1808 1.403 . S
C1811 C1812 1.524 . S
C1811 C1815 1.400 . S
C1812 H1797 0.960 . S
C1812 H1798 0.960 . S
C1812 H1799 0.960 . S
C1812 C1811 1.524 . S
C1813 C1810 1.403 . S
C1813 C1814 1.392 . S
C1813 C1817 1.495 . S
C1814 C1813 1.392 . S
C1814 C1815 1.385 . S
C1814 C1816 1.478 . S
C1815 H1809 0.930 . S
C1815 C1811 1.400 . S
C1815 C1814 1.385 . S
C1816 C1814 1.478 . S
C1816 C1818 1.381 . S
C1816 C1822 1.383 . S
C1817 C1813 1.495 . S
C1817 H1823 0.959 . S
C1817 H1824 0.961 . S
C1817 H1825 0.960 . S
C1818 C1816 1.381 . S
C1818 C1819 1.394 . S
C1818 H1826 0.930 . S
C1819 C1818 1.394 . S
C1819 C1820 1.383 . S
C1819 H1827 0.929 . S
C1820 C1819 1.383 . S
C1820 C1821 1.377 . S
C1821 H1805 0.930 . S
C1821 C1820 1.377 . S
C1821 C1822 1.379 . S
C1822 H1806 0.931 . S
C1822 C1816 1.383 . S
C1822 C1821 1.379 . S
H1823 C1817 0.959 . S
H1824 C1817 0.961 . S
H1825 C1817 0.960 . S
H1826 C1818 0.930 . S
H1827 C1819 0.929 . S
H1828 C1836 0.929 . S
H1829 C1838 0.930 . S
H1830 C1840 0.930 . S
H1831 C1843 0.929 . S
H1832 C1846 0.930 . S
H1833 C1848 0.960 . S
H1834 C1848 0.960 . S
H1835 C1848 0.960 . S
C1836 H1828 0.929 . S
C1836 C1837 1.377 . S
C1836 C1838 1.384 . S
C1837 C1836 1.377 . S
C1837 C1843 1.390 . S
C1838 H1829 0.930 . S
C1838 C1836 1.384 . S
C1838 C1839 1.372 . S
C1839 C1838 1.372 . S
C1839 C1840 1.400 . S
C1839 C1844 1.490 . S
C1840 H1830 0.930 . S
C1840 C1839 1.400 . S
C1840 C1843 1.386 . S
H1841 C1857 0.930 . S
H1842 C1858 0.931 . S
C1843 H1831 0.929 . S
C1843 C1837 1.390 . S
C1843 C1840 1.386 . S
C1844 C1839 1.490 . S
C1844 C1846 1.395 . S
C1844 C1847 1.403 1_556 S
H1845 C1851 0.930 . S
C1846 H1832 0.930 . S
C1846 C1844 1.395 . S
C1846 C1849 1.403 1_556 S
C1847 C1844 1.403 1_554 S
C1847 C1848 1.524 . S
C1847 C1851 1.400 . S
C1848 H1833 0.960 . S
C1848 H1834 0.960 . S
C1848 H1835 0.960 . S
C1848 C1847 1.524 . S
C1849 C1846 1.403 1_554 S
C1849 C1850 1.392 . S
C1849 C1853 1.495 . S
C1850 C1849 1.392 . S
C1850 C1851 1.385 . S
C1850 C1852 1.478 . S
C1851 H1845 0.930 . S
C1851 C1847 1.400 . S
C1851 C1850 1.385 . S
C1852 C1850 1.478 . S
C1852 C1854 1.381 . S
C1852 C1858 1.383 . S
C1853 C1849 1.495 . S
C1853 H1859 0.959 1_554 S
C1853 H1860 0.961 . S
C1853 H1861 0.960 . S
C1854 C1852 1.381 . S
C1854 C1855 1.394 . S
C1854 H1862 0.930 . S
C1855 C1854 1.394 . S
C1855 C1856 1.383 . S
C1855 H1863 0.929 . S
C1856 C1855 1.383 . S
C1856 C1857 1.377 . S
C1857 H1841 0.930 . S
C1857 C1856 1.377 . S
C1857 C1858 1.379 . S
C1858 H1842 0.931 . S
C1858 C1852 1.383 . S
C1858 C1857 1.379 . S
H1859 C1853 0.959 1_556 S
H1860 C1853 0.961 . S
H1861 C1853 0.960 . S
H1862 C1854 0.930 . S
H1863 C1855 0.929 . S
H1864 C1872 0.929 . S
H1865 C1874 0.930 . S
H1866 C1876 0.930 . S
H1867 C1879 0.929 . S
H1868 C1882 0.930 . S
H1869 C1884 0.960 . S
H1870 C1884 0.960 . S
H1871 C1884 0.960 . S
C1872 H1864 0.929 . S
C1872 C1873 1.377 . S
C1872 C1874 1.384 . S
C1873 C1872 1.377 . S
C1873 C1879 1.390 . S
C1874 H1865 0.930 . S
C1874 C1872 1.384 . S
C1874 C1875 1.372 . S
C1875 C1874 1.372 . S
C1875 C1876 1.400 . S
C1875 C1880 1.490 . S
C1876 H1866 0.930 . S
C1876 C1875 1.400 . S
C1876 C1879 1.386 . S
H1877 C1893 0.930 . S
H1878 C1894 0.931 . S
C1879 H1867 0.929 . S
C1879 C1873 1.390 . S
C1879 C1876 1.386 . S
C1880 C1875 1.490 . S
C1880 C1882 1.395 . S
C1880 C1883 1.403 . S
H1881 C1887 0.930 . S
C1882 H1868 0.930 . S
C1882 C1880 1.395 . S
C1882 C1885 1.403 . S
C1883 C1880 1.403 . S
C1883 C1884 1.524 . S
C1883 C1887 1.400 . S
C1884 H1869 0.960 . S
C1884 H1870 0.960 . S
C1884 H1871 0.960 . S
C1884 C1883 1.524 . S
C1885 C1882 1.403 . S
C1885 C1886 1.392 . S
C1885 C1889 1.495 . S
C1886 C1885 1.392 . S
C1886 C1887 1.385 . S
C1886 C1888 1.478 . S
C1887 H1881 0.930 . S
C1887 C1883 1.400 . S
C1887 C1886 1.385 . S
C1888 C1886 1.478 . S
C1888 C1890 1.381 . S
C1888 C1894 1.383 . S
C1889 C1885 1.495 . S
C1889 H1895 0.959 . S
C1889 H1896 0.961 . S
C1889 H1897 0.960 . S
C1890 C1888 1.381 . S
C1890 C1891 1.394 . S
C1890 H1898 0.930 . S
C1891 C1890 1.394 . S
C1891 C1892 1.383 . S
C1891 H1899 0.929 . S
C1892 C1891 1.383 . S
C1892 C1893 1.377 . S
C1893 H1877 0.930 . S
C1893 C1892 1.377 . S
C1893 C1894 1.379 . S
C1894 H1878 0.931 . S
C1894 C1888 1.383 . S
C1894 C1893 1.379 . S
H1895 C1889 0.959 . S
H1896 C1889 0.961 . S
H1897 C1889 0.960 . S
H1898 C1890 0.930 . S
H1899 C1891 0.929 . S
H1900 C1908 0.929 . S
H1901 C1910 0.930 . S
H1902 C1912 0.930 . S
H1903 C1915 0.929 . S
H1904 C1918 0.930 . S
H1905 C1920 0.960 . S
H1906 C1920 0.960 . S
H1907 C1920 0.960 . S
C1908 H1900 0.929 . S
C1908 C1909 1.377 . S
C1908 C1910 1.384 . S
C1909 C1908 1.377 . S
C1909 C1915 1.390 . S
C1910 H1901 0.930 . S
C1910 C1908 1.384 . S
C1910 C1911 1.372 . S
C1911 C1910 1.372 . S
C1911 C1912 1.400 . S
C1911 C1916 1.490 . S
C1912 H1902 0.930 . S
C1912 C1911 1.400 . S
C1912 C1915 1.386 . S
H1913 C1929 0.930 . S
H1914 C1930 0.931 . S
C1915 H1903 0.929 . S
C1915 C1909 1.390 . S
C1915 C1912 1.386 . S
C1916 C1911 1.490 . S
C1916 C1918 1.395 1_455 S
C1916 C1919 1.403 . S
H1917 C1923 0.930 . S
C1918 H1904 0.930 . S
C1918 C1916 1.395 1_655 S
C1918 C1921 1.403 . S
C1919 C1916 1.403 . S
C1919 C1920 1.524 . S
C1919 C1923 1.400 . S
C1920 H1905 0.960 . S
C1920 H1906 0.960 . S
C1920 H1907 0.960 . S
C1920 C1919 1.524 . S
C1921 C1918 1.403 . S
C1921 C1922 1.392 . S
C1921 C1925 1.495 . S
C1922 C1921 1.392 . S
C1922 C1923 1.385 1_655 S
C1922 C1924 1.478 . S
C1923 H1917 0.930 . S
C1923 C1919 1.400 . S
C1923 C1922 1.385 1_455 S
C1924 C1922 1.478 . S
C1924 C1926 1.381 . S
C1924 C1930 1.383 . S
C1925 C1921 1.495 . S
C1925 H1931 0.959 . S
C1925 H1932 0.961 . S
C1925 H1933 0.960 . S
C1926 C1924 1.381 . S
C1926 C1927 1.394 . S
C1926 H1934 0.930 . S
C1927 C1926 1.394 . S
C1927 C1928 1.383 . S
C1927 H1935 0.929 . S
C1928 C1927 1.383 . S
C1928 C1929 1.377 . S
C1929 H1913 0.930 . S
C1929 C1928 1.377 . S
C1929 C1930 1.379 . S
C1930 H1914 0.931 . S
C1930 C1924 1.383 . S
C1930 C1929 1.379 . S
H1931 C1925 0.959 . S
H1932 C1925 0.961 . S
H1933 C1925 0.960 . S
H1934 C1926 0.930 . S
H1935 C1927 0.929 . S
H1936 C1944 0.929 . S
H1937 C1946 0.930 . S
H1938 C1948 0.930 . S
H1939 C1951 0.929 . S
H1940 C1954 0.930 . S
H1941 C1956 0.960 . S
H1942 C1956 0.960 . S
H1943 C1956 0.960 . S
C1944 H1936 0.929 . S
C1944 C1945 1.377 . S
C1944 C1946 1.384 . S
C1945 C1944 1.377 . S
C1945 C1951 1.390 . S
C1946 H1937 0.930 . S
C1946 C1944 1.384 . S
C1946 C1947 1.372 . S
C1947 C1946 1.372 . S
C1947 C1948 1.400 . S
C1947 C1952 1.490 . S
C1948 H1938 0.930 . S
C1948 C1947 1.400 . S
C1948 C1951 1.386 . S
H1949 C1965 0.930 . S
H1950 C1966 0.931 . S
C1951 H1939 0.929 . S
C1951 C1945 1.390 . S
C1951 C1948 1.386 . S
C1952 C1947 1.490 . S
C1952 C1954 1.395 . S
C1952 C1955 1.403 . S
H1953 C1959 0.930 . S
C1954 H1940 0.930 . S
C1954 C1952 1.395 . S
C1954 C1957 1.403 . S
C1955 C1952 1.403 . S
C1955 C1956 1.524 . S
C1955 C1959 1.400 . S
C1956 H1941 0.960 . S
C1956 H1942 0.960 . S
C1956 H1943 0.960 . S
C1956 C1955 1.524 . S
C1957 C1954 1.403 . S
C1957 C1958 1.392 . S
C1957 C1961 1.495 . S
C1958 C1957 1.392 . S
C1958 C1959 1.385 . S
C1958 C1960 1.478 . S
C1959 H1953 0.930 . S
C1959 C1955 1.400 . S
C1959 C1958 1.385 . S
C1960 C1958 1.478 . S
C1960 C1962 1.381 . S
C1960 C1966 1.383 . S
C1961 C1957 1.495 . S
C1961 H1967 0.959 . S
C1961 H1968 0.961 . S
C1961 H1969 0.960 . S
C1962 C1960 1.381 . S
C1962 C1963 1.394 . S
C1962 H1970 0.930 . S
C1963 C1962 1.394 . S
C1963 C1964 1.383 . S
C1963 H1971 0.929 . S
C1964 C1963 1.383 . S
C1964 C1965 1.377 . S
C1965 H1949 0.930 . S
C1965 C1964 1.377 . S
C1965 C1966 1.379 . S
C1966 H1950 0.931 . S
C1966 C1960 1.383 . S
C1966 C1965 1.379 . S
H1967 C1961 0.959 . S
H1968 C1961 0.961 . S
H1969 C1961 0.960 . S
H1970 C1962 0.930 . S
H1971 C1963 0.929 . S
H1972 C1980 0.929 . S
H1973 C1982 0.930 . S
H1974 C1984 0.930 . S
H1975 C1987 0.929 . S
H1976 C1990 0.930 . S
H1977 C1992 0.960 . S
H1978 C1992 0.960 . S
H1979 C1992 0.960 . S
C1980 H1972 0.929 . S
C1980 C1981 1.377 . S
C1980 C1982 1.384 . S
C1981 C1980 1.377 . S
C1981 C1987 1.390 . S
C1982 H1973 0.930 . S
C1982 C1980 1.384 . S
C1982 C1983 1.372 . S
C1983 C1982 1.372 . S
C1983 C1984 1.400 . S
C1983 C1988 1.490 . S
C1984 H1974 0.930 . S
C1984 C1983 1.400 . S
C1984 C1987 1.386 . S
H1985 C2001 0.930 . S
H1986 C2002 0.931 . S
C1987 H1975 0.929 . S
C1987 C1981 1.390 . S
C1987 C1984 1.386 . S
C1988 C1983 1.490 . S
C1988 C1990 1.395 . S
C1988 C1991 1.403 . S
H1989 C1995 0.930 . S
C1990 H1976 0.930 . S
C1990 C1988 1.395 . S
C1990 C1993 1.403 . S
C1991 C1988 1.403 . S
C1991 C1992 1.524 . S
C1991 C1995 1.400 . S
C1992 H1977 0.960 . S
C1992 H1978 0.960 . S
C1992 H1979 0.960 . S
C1992 C1991 1.524 . S
C1993 C1990 1.403 . S
C1993 C1994 1.392 . S
C1993 C1997 1.495 . S
C1994 C1993 1.392 . S
C1994 C1995 1.385 . S
C1994 C1996 1.478 . S
C1995 H1989 0.930 . S
C1995 C1991 1.400 . S
C1995 C1994 1.385 . S
C1996 C1994 1.478 . S
C1996 C1998 1.381 . S
C1996 C2002 1.383 . S
C1997 C1993 1.495 . S
C1997 H2003 0.959 . S
C1997 H2004 0.961 . S
C1997 H2005 0.960 . S
C1998 C1996 1.381 . S
C1998 C1999 1.394 . S
C1998 H2006 0.930 . S
C1999 C1998 1.394 . S
C1999 C2000 1.383 . S
C1999 H2007 0.929 . S
C2000 C1999 1.383 . S
C2000 C2001 1.377 . S
C2001 H1985 0.930 . S
C2001 C2000 1.377 . S
C2001 C2002 1.379 . S
C2002 H1986 0.931 . S
C2002 C1996 1.383 . S
C2002 C2001 1.379 . S
H2003 C1997 0.959 . S
H2004 C1997 0.961 . S
H2005 C1997 0.960 . S
H2006 C1998 0.930 . S
H2007 C1999 0.929 . S
H2008 C2016 0.929 . S
H2009 C2018 0.948 . S
H2010 C2020 0.930 . S
H2011 C2023 0.929 . S
H2012 C2026 0.930 . S
H2013 C2028 0.960 1_545 S
H2014 C2028 0.960 1_545 S
H2015 C2028 0.960 . S
C2016 H2008 0.929 . S
C2016 C2017 1.377 . S
C2016 C2018 1.384 . S
C2017 C2016 1.377 . S
C2017 C2023 1.390 . S
C2018 H2009 0.948 . S
C2018 C2016 1.384 . S
C2018 C2019 1.372 . S
C2019 C2018 1.372 . S
C2019 C2020 1.400 . S
C2019 C2024 1.490 . S
C2020 H2010 0.930 . S
C2020 C2019 1.400 . S
C2020 C2023 1.386 . S
H2021 C2037 0.930 . S
H2022 C2038 0.931 1_565 S
C2023 H2011 0.929 . S
C2023 C2017 1.390 . S
C2023 C2020 1.386 . S
C2024 C2019 1.490 . S
C2024 C2026 1.395 . S
C2024 C2027 1.425 1_655 S
H2025 C2031 0.930 . S
C2026 H2012 0.930 . S
C2026 C2024 1.395 . S
C2026 C2029 1.403 1_565 S
C2027 C2024 1.425 1_455 S
C2027 C2028 1.526 . S
C2027 C2031 1.376 1_565 S
C2028 H2013 0.960 1_565 S
C2028 H2014 0.960 1_565 S
C2028 H2015 0.960 . S
C2028 C2027 1.526 . S
C2029 C2026 1.403 1_545 S
C2029 C2030 1.392 1_655 S
C2029 C2033 1.495 . S
C2030 C2029 1.392 1_455 S
C2030 C2031 1.385 . S
C2030 C2032 1.478 . S
C2031 H2025 0.930 . S
C2031 C2027 1.376 1_545 S
C2031 C2030 1.385 . S
C2032 C2030 1.478 . S
C2032 C2034 1.381 . S
C2032 C2038 1.383 . S
C2033 C2029 1.495 . S
C2033 H2039 0.959 1_545 S
C2033 H2040 0.961 1_545 S
C2033 H2041 0.960 . S
C2034 C2032 1.381 . S
C2034 C2035 1.394 . S
C2034 H2042 0.956 . S
C2035 C2034 1.394 . S
C2035 C2036 1.383 . S
C2035 H2043 0.929 . S
C2036 C2035 1.383 . S
C2036 C2037 1.377 . S
C2037 H2021 0.930 . S
C2037 C2036 1.377 . S
C2037 C2038 1.379 . S
C2038 H2022 0.931 1_545 S
C2038 C2032 1.383 . S
C2038 C2037 1.379 . S
H2039 C2033 0.959 1_565 S
H2040 C2033 0.961 1_565 S
H2041 C2033 0.960 . S
H2042 C2034 0.956 . S
H2043 C2035 0.929 . S
H2044 C2052 0.929 . S
H2045 C2054 0.930 . S
H2046 C2056 0.976 . S
H2047 C2059 0.929 . S
H2048 C2062 0.930 . S
H2049 C2064 0.960 . S
H2050 C2064 0.960 . S
H2051 C2064 0.960 . S
C2052 H2044 0.929 . S
C2052 C2053 1.377 . S
C2052 C2054 1.384 . S
C2053 C2052 1.377 . S
C2053 C2059 1.390 . S
C2054 H2045 0.930 . S
C2054 C2052 1.384 . S
C2054 C2055 1.372 . S
C2055 C2054 1.372 . S
C2055 C2056 1.400 . S
C2055 C2060 1.490 . S
C2056 H2046 0.976 . S
C2056 C2055 1.400 . S
C2056 C2059 1.386 . S
H2057 C2073 0.930 . S
H2058 C2074 0.931 . S
C2059 H2047 0.929 . S
C2059 C2053 1.390 . S
C2059 C2056 1.386 . S
C2060 C2055 1.490 . S
C2060 C2062 1.395 . S
C2060 C2063 1.403 1_556 S
H2061 C2067 0.930 . S
C2062 H2048 0.930 . S
C2062 C2060 1.395 . S
C2062 C2065 1.403 1_546 S
C2063 C2060 1.403 1_554 S
C2063 C2064 1.524 . S
C2063 C2067 1.400 1_545 S
C2064 H2049 0.960 . S
C2064 H2050 0.960 . S
C2064 H2051 0.960 . S
C2064 C2063 1.524 . S
C2065 C2062 1.403 1_564 S
C2065 C2066 1.392 . S
C2065 C2069 1.495 . S
C2066 C2065 1.392 . S
C2066 C2067 1.385 . S
C2066 C2068 1.478 . S
C2067 H2061 0.930 . S
C2067 C2063 1.400 1_565 S
C2067 C2066 1.385 . S
C2068 C2066 1.478 . S
C2068 C2070 1.381 . S
C2068 C2074 1.383 . S
C2069 C2065 1.495 . S
C2069 H2075 0.959 1_554 S
C2069 H2076 0.961 . S
C2069 H2077 0.960 . S
C2070 C2068 1.381 . S
C2070 C2071 1.394 . S
C2070 H2078 0.908 1_565 S
C2071 C2070 1.394 . S
C2071 C2072 1.383 . S
C2071 H2079 0.929 . S
C2072 C2071 1.383 . S
C2072 C2073 1.377 . S
C2073 H2057 0.930 . S
C2073 C2072 1.377 . S
C2073 C2074 1.379 . S
C2074 H2058 0.931 . S
C2074 C2068 1.383 . S
C2074 C2073 1.379 . S
H2075 C2069 0.959 1_556 S
H2076 C2069 0.961 . S
H2077 C2069 0.960 . S
H2078 C2070 0.908 1_545 S
H2079 C2071 0.929 . S
C361 C7 1.474 . S
C380 C203 1.540 . S
C397 C225 1.535 . S
C416 C28 1.453 . S
C433 C251 1.531 . S
C452 C50 1.488 . S
C469 C185 1.534 . S
C488 C73 1.471 . S
C505 C93 1.474 . S
C524 C292 1.548 . S
C541 C115 1.481 . S
C560 C315 1.559 . S
C577 C337 1.530 . S
C596 C141 1.435 . S
C613 C270 1.538 . S
C632 C163 1.488 . S
C649 C27 1.534 . S
C668 C183 1.460 . S
C685 C49 1.529 . S
C704 C204 1.493 1_565 S
C721 C75 1.538 . S
C740 C226 1.436 1_556 S
C757 C249 1.481 1_545 S
C776 C9 1.511 . S
C793 C116 1.537 . S
C812 C269 1.510 . S
C829 C139 1.535 . S
C848 C291 1.509 1_545 S
C865 C161 1.526 . S
C884 C317 1.454 . S
C901 C94 1.535 . S
C920 C339 1.458 1_565 S
C937 C6 1.381 . S
C956 C334 1.421 . S
C973 C29 1.372 . S
C992 C96 1.435 . S
C1009 C294 1.431 1_455 S
C1028 C51 1.400 . S
C1045 C136 1.430 . S
C1064 C72 1.403 . S
C1081 C97 1.382 . S
C1100 C246 1.436 . S
C1117 C4 1.430 1_556 S
C1136 C119 1.347 . S
C1153 C137 1.382 . S
C1172 C206 1.434 1_655 S
C1189 C159 1.383 . S
C1208 C52 1.434 . S
C1225 C182 1.381 . S
C1244 C158 1.426 1_655 S
C1261 C272 1.430 . S
C1280 C205 1.403 . S
C1297 C227 1.374 . S
C1316 C118 1.434 . S
C1333 C312 1.433 . S
C1352 C248 1.366 . S
C1369 C273 1.382 . S
C1388 C70 1.436 1_455 S
C1405 C180 1.432 . S
C1424 C295 1.395 . S
C1441 C313 1.376 . S
C1460 C30 1.431 . S
C1477 C335 1.377 . S
C1496 C228 1.426 1_556 S
C1513 C8 1.332 . S
C1532 C268 1.331 . S
C1549 C114 1.340 . S
C1568 C26 1.331 . S
C1585 C48 1.341 . S
C1604 C316 1.339 . S
C1621 C162 1.338 . S
C1640 C74 1.354 . S
C1657 C92 1.332 . S
C1676 C184 1.327 . S
C1693 C224 1.332 . S
C1712 C140 1.318 . S
C1729 C202 1.334 . S
C1748 C290 1.343 . S
C1765 C338 1.332 . S
C1784 C250 1.328 . S
C1801 C271 0.982 . S
C1820 C5 0.966 . S
C1837 C117 0.984 . S
C1856 C31 0.998 . S
C1873 C53 0.977 . S
C1892 C314 0.943 . S
C1909 C160 0.984 . S
C1928 C71 1.000 . S
C1945 C95 0.966 . S
C1964 C181 0.938 . S
C1981 C138 0.983 . S
C2000 C229 0.978 . S
C2017 C293 0.965 . S
C2036 C207 0.945 . S
C2053 C336 0.983 . S
C2072 C247 1.000 . S
