# Generated by pormake.
# Topology wir, (6)-cn, num edge types: 1
# Building blocks:
#     Node 0, Type 0, BuildingBlock: VOLQOD_clean_sbu_1, # of connection points: 6
#     Node 1, Type 0, BuildingBlock: VOLQOD_clean_sbu_1, # of connection points: 6
#     Node 2, Type 0, BuildingBlock: VOLQOD_clean_sbu_1, # of connection points: 6
#     Node 3, Type 0, BuildingBlock: VOLQOD_clean_sbu_1, # of connection points: 6
#     Node 4, Type 0, BuildingBlock: VOLQOD_clean_sbu_1, # of connection points: 6
#     Node 5, Type 0, BuildingBlock: VOLQOD_clean_sbu_1, # of connection points: 6
#     Node 6, Type 0, BuildingBlock: VOLQOD_clean_sbu_1, # of connection points: 6
#     Node 7, Type 0, BuildingBlock: VOLQOD_clean_sbu_1, # of connection points: 6
#     Node 8, Type 0, BuildingBlock: VOLQOD_clean_sbu_1, # of connection points: 6
#     Node 9, Type 0, BuildingBlock: VOLQOD_clean_sbu_1, # of connection points: 6
#     Node 10, Type 0, BuildingBlock: VOLQOD_clean_sbu_1, # of connection points: 6
#     Node 11, Type 0, BuildingBlock: VOLQOD_clean_sbu_1, # of connection points: 6
#     Node 12, Type 0, BuildingBlock: VOLQOD_clean_sbu_1, # of connection points: 6
#     Node 13, Type 0, BuildingBlock: VOLQOD_clean_sbu_1, # of connection points: 6
#     Node 14, Type 0, BuildingBlock: VOLQOD_clean_sbu_1, # of connection points: 6
#     Node 15, Type 0, BuildingBlock: VOLQOD_clean_sbu_1, # of connection points: 6
#     Node 16, Type 0, BuildingBlock: VOLQOD_clean_sbu_1, # of connection points: 6
#     Node 17, Type 0, BuildingBlock: VOLQOD_clean_sbu_1, # of connection points: 6
#     Node 18, Type 0, BuildingBlock: VOLQOD_clean_sbu_1, # of connection points: 6
#     Node 19, Type 0, BuildingBlock: VOLQOD_clean_sbu_1, # of connection points: 6
#     Node 20, Type 0, BuildingBlock: VOLQOD_clean_sbu_1, # of connection points: 6
#     Node 21, Type 0, BuildingBlock: VOLQOD_clean_sbu_1, # of connection points: 6
#     Node 22, Type 0, BuildingBlock: VOLQOD_clean_sbu_1, # of connection points: 6
#     Node 23, Type 0, BuildingBlock: VOLQOD_clean_sbu_1, # of connection points: 6
#     Node 24, Type 0, BuildingBlock: VOLQOD_clean_sbu_1, # of connection points: 6
#     Node 25, Type 0, BuildingBlock: VOLQOD_clean_sbu_1, # of connection points: 6
#     Node 26, Type 0, BuildingBlock: VOLQOD_clean_sbu_1, # of connection points: 6
#     Node 27, Type 0, BuildingBlock: VOLQOD_clean_sbu_1, # of connection points: 6
#     Node 28, Type 0, BuildingBlock: VOLQOD_clean_sbu_1, # of connection points: 6
#     Node 29, Type 0, BuildingBlock: VOLQOD_clean_sbu_1, # of connection points: 6
#     Node 30, Type 0, BuildingBlock: VOLQOD_clean_sbu_1, # of connection points: 6
#     Node 31, Type 0, BuildingBlock: VOLQOD_clean_sbu_1, # of connection points: 6
#     Edge 32, Type (0, 0), BuildingBlock: KIFKEQ_clean_linker_1, # of connection points: 2
#     Edge 33, Type (0, 0), BuildingBlock: KIFKEQ_clean_linker_1, # of connection points: 2
#     Edge 34, Type (0, 0), BuildingBlock: KIFKEQ_clean_linker_1, # of connection points: 2
#     Edge 35, Type (0, 0), BuildingBlock: KIFKEQ_clean_linker_1, # of connection points: 2
#     Edge 36, Type (0, 0), BuildingBlock: KIFKEQ_clean_linker_1, # of connection points: 2
#     Edge 37, Type (0, 0), BuildingBlock: KIFKEQ_clean_linker_1, # of connection points: 2
#     Edge 38, Type (0, 0), BuildingBlock: KIFKEQ_clean_linker_1, # of connection points: 2
#     Edge 39, Type (0, 0), BuildingBlock: KIFKEQ_clean_linker_1, # of connection points: 2
#     Edge 40, Type (0, 0), BuildingBlock: KIFKEQ_clean_linker_1, # of connection points: 2
#     Edge 41, Type (0, 0), BuildingBlock: KIFKEQ_clean_linker_1, # of connection points: 2
#     Edge 42, Type (0, 0), BuildingBlock: KIFKEQ_clean_linker_1, # of connection points: 2
#     Edge 43, Type (0, 0), BuildingBlock: KIFKEQ_clean_linker_1, # of connection points: 2
#     Edge 44, Type (0, 0), BuildingBlock: KIFKEQ_clean_linker_1, # of connection points: 2
#     Edge 45, Type (0, 0), BuildingBlock: KIFKEQ_clean_linker_1, # of connection points: 2
#     Edge 46, Type (0, 0), BuildingBlock: KIFKEQ_clean_linker_1, # of connection points: 2
#     Edge 47, Type (0, 0), BuildingBlock: KIFKEQ_clean_linker_1, # of connection points: 2
#     Edge 48, Type (0, 0), BuildingBlock: KIFKEQ_clean_linker_1, # of connection points: 2
#     Edge 49, Type (0, 0), BuildingBlock: KIFKEQ_clean_linker_1, # of connection points: 2
#     Edge 50, Type (0, 0), BuildingBlock: KIFKEQ_clean_linker_1, # of connection points: 2
#     Edge 51, Type (0, 0), BuildingBlock: KIFKEQ_clean_linker_1, # of connection points: 2
#     Edge 52, Type (0, 0), BuildingBlock: KIFKEQ_clean_linker_1, # of connection points: 2
#     Edge 53, Type (0, 0), BuildingBlock: KIFKEQ_clean_linker_1, # of connection points: 2
#     Edge 54, Type (0, 0), BuildingBlock: KIFKEQ_clean_linker_1, # of connection points: 2
#     Edge 55, Type (0, 0), BuildingBlock: KIFKEQ_clean_linker_1, # of connection points: 2
#     Edge 56, Type (0, 0), BuildingBlock: KIFKEQ_clean_linker_1, # of connection points: 2
#     Edge 57, Type (0, 0), BuildingBlock: KIFKEQ_clean_linker_1, # of connection points: 2
#     Edge 58, Type (0, 0), BuildingBlock: KIFKEQ_clean_linker_1, # of connection points: 2
#     Edge 59, Type (0, 0), BuildingBlock: KIFKEQ_clean_linker_1, # of connection points: 2
#     Edge 60, Type (0, 0), BuildingBlock: KIFKEQ_clean_linker_1, # of connection points: 2
#     Edge 61, Type (0, 0), BuildingBlock: KIFKEQ_clean_linker_1, # of connection points: 2
#     Edge 62, Type (0, 0), BuildingBlock: KIFKEQ_clean_linker_1, # of connection points: 2
#     Edge 63, Type (0, 0), BuildingBlock: KIFKEQ_clean_linker_1, # of connection points: 2
#     Edge 64, Type (0, 0), BuildingBlock: KIFKEQ_clean_linker_1, # of connection points: 2
#     Edge 65, Type (0, 0), BuildingBlock: KIFKEQ_clean_linker_1, # of connection points: 2
#     Edge 66, Type (0, 0), BuildingBlock: KIFKEQ_clean_linker_1, # of connection points: 2
#     Edge 67, Type (0, 0), BuildingBlock: KIFKEQ_clean_linker_1, # of connection points: 2
#     Edge 68, Type (0, 0), BuildingBlock: KIFKEQ_clean_linker_1, # of connection points: 2
#     Edge 69, Type (0, 0), BuildingBlock: KIFKEQ_clean_linker_1, # of connection points: 2
#     Edge 70, Type (0, 0), BuildingBlock: KIFKEQ_clean_linker_1, # of connection points: 2
#     Edge 71, Type (0, 0), BuildingBlock: KIFKEQ_clean_linker_1, # of connection points: 2
#     Edge 72, Type (0, 0), BuildingBlock: KIFKEQ_clean_linker_1, # of connection points: 2
#     Edge 73, Type (0, 0), BuildingBlock: KIFKEQ_clean_linker_1, # of connection points: 2
#     Edge 74, Type (0, 0), BuildingBlock: KIFKEQ_clean_linker_1, # of connection points: 2
#     Edge 75, Type (0, 0), BuildingBlock: KIFKEQ_clean_linker_1, # of connection points: 2
#     Edge 76, Type (0, 0), BuildingBlock: KIFKEQ_clean_linker_1, # of connection points: 2
#     Edge 77, Type (0, 0), BuildingBlock: KIFKEQ_clean_linker_1, # of connection points: 2
#     Edge 78, Type (0, 0), BuildingBlock: KIFKEQ_clean_linker_1, # of connection points: 2
#     Edge 79, Type (0, 0), BuildingBlock: KIFKEQ_clean_linker_1, # of connection points: 2
#     Edge 80, Type (0, 0), BuildingBlock: KIFKEQ_clean_linker_1, # of connection points: 2
#     Edge 81, Type (0, 0), BuildingBlock: KIFKEQ_clean_linker_1, # of connection points: 2
#     Edge 82, Type (0, 0), BuildingBlock: KIFKEQ_clean_linker_1, # of connection points: 2
#     Edge 83, Type (0, 0), BuildingBlock: KIFKEQ_clean_linker_1, # of connection points: 2
#     Edge 84, Type (0, 0), BuildingBlock: KIFKEQ_clean_linker_1, # of connection points: 2
#     Edge 85, Type (0, 0), BuildingBlock: KIFKEQ_clean_linker_1, # of connection points: 2
#     Edge 86, Type (0, 0), BuildingBlock: KIFKEQ_clean_linker_1, # of connection points: 2
#     Edge 87, Type (0, 0), BuildingBlock: KIFKEQ_clean_linker_1, # of connection points: 2
#     Edge 88, Type (0, 0), BuildingBlock: KIFKEQ_clean_linker_1, # of connection points: 2
#     Edge 89, Type (0, 0), BuildingBlock: KIFKEQ_clean_linker_1, # of connection points: 2
#     Edge 90, Type (0, 0), BuildingBlock: KIFKEQ_clean_linker_1, # of connection points: 2
#     Edge 91, Type (0, 0), BuildingBlock: KIFKEQ_clean_linker_1, # of connection points: 2
#     Edge 92, Type (0, 0), BuildingBlock: KIFKEQ_clean_linker_1, # of connection points: 2
#     Edge 93, Type (0, 0), BuildingBlock: KIFKEQ_clean_linker_1, # of connection points: 2
#     Edge 94, Type (0, 0), BuildingBlock: KIFKEQ_clean_linker_1, # of connection points: 2
#     Edge 95, Type (0, 0), BuildingBlock: KIFKEQ_clean_linker_1, # of connection points: 2
#     Edge 96, Type (0, 0), BuildingBlock: KIFKEQ_clean_linker_1, # of connection points: 2
#     Edge 97, Type (0, 0), BuildingBlock: KIFKEQ_clean_linker_1, # of connection points: 2
#     Edge 98, Type (0, 0), BuildingBlock: KIFKEQ_clean_linker_1, # of connection points: 2
#     Edge 99, Type (0, 0), BuildingBlock: KIFKEQ_clean_linker_1, # of connection points: 2
#     Edge 100, Type (0, 0), BuildingBlock: KIFKEQ_clean_linker_1, # of connection points: 2
#     Edge 101, Type (0, 0), BuildingBlock: KIFKEQ_clean_linker_1, # of connection points: 2
#     Edge 102, Type (0, 0), BuildingBlock: KIFKEQ_clean_linker_1, # of connection points: 2
#     Edge 103, Type (0, 0), BuildingBlock: KIFKEQ_clean_linker_1, # of connection points: 2
#     Edge 104, Type (0, 0), BuildingBlock: KIFKEQ_clean_linker_1, # of connection points: 2
#     Edge 105, Type (0, 0), BuildingBlock: KIFKEQ_clean_linker_1, # of connection points: 2
#     Edge 106, Type (0, 0), BuildingBlock: KIFKEQ_clean_linker_1, # of connection points: 2
#     Edge 107, Type (0, 0), BuildingBlock: KIFKEQ_clean_linker_1, # of connection points: 2
#     Edge 108, Type (0, 0), BuildingBlock: KIFKEQ_clean_linker_1, # of connection points: 2
#     Edge 109, Type (0, 0), BuildingBlock: KIFKEQ_clean_linker_1, # of connection points: 2
#     Edge 110, Type (0, 0), BuildingBlock: KIFKEQ_clean_linker_1, # of connection points: 2
#     Edge 111, Type (0, 0), BuildingBlock: KIFKEQ_clean_linker_1, # of connection points: 2
#     Edge 112, Type (0, 0), BuildingBlock: KIFKEQ_clean_linker_1, # of connection points: 2
#     Edge 113, Type (0, 0), BuildingBlock: KIFKEQ_clean_linker_1, # of connection points: 2
#     Edge 114, Type (0, 0), BuildingBlock: KIFKEQ_clean_linker_1, # of connection points: 2
#     Edge 115, Type (0, 0), BuildingBlock: KIFKEQ_clean_linker_1, # of connection points: 2
#     Edge 116, Type (0, 0), BuildingBlock: KIFKEQ_clean_linker_1, # of connection points: 2
#     Edge 117, Type (0, 0), BuildingBlock: KIFKEQ_clean_linker_1, # of connection points: 2
#     Edge 118, Type (0, 0), BuildingBlock: KIFKEQ_clean_linker_1, # of connection points: 2
#     Edge 119, Type (0, 0), BuildingBlock: KIFKEQ_clean_linker_1, # of connection points: 2
#     Edge 120, Type (0, 0), BuildingBlock: KIFKEQ_clean_linker_1, # of connection points: 2
#     Edge 121, Type (0, 0), BuildingBlock: KIFKEQ_clean_linker_1, # of connection points: 2
#     Edge 122, Type (0, 0), BuildingBlock: KIFKEQ_clean_linker_1, # of connection points: 2
#     Edge 123, Type (0, 0), BuildingBlock: KIFKEQ_clean_linker_1, # of connection points: 2
#     Edge 124, Type (0, 0), BuildingBlock: KIFKEQ_clean_linker_1, # of connection points: 2
#     Edge 125, Type (0, 0), BuildingBlock: KIFKEQ_clean_linker_1, # of connection points: 2
#     Edge 126, Type (0, 0), BuildingBlock: KIFKEQ_clean_linker_1, # of connection points: 2
#     Edge 127, Type (0, 0), BuildingBlock: KIFKEQ_clean_linker_1, # of connection points: 2
# Relax obj value: 0.343
# Max RMSD: 0.208
# Mean RMSD: 0.208
data_MOF--net-wir--node1-VOLQOD_clean_sbu_1--edge1-KIFKEQ_clean_linker_1
_symmetry_space_group_name_H-M    P1
_symmetry_Int_Tables_number       1
_symmetry_cell_setting            triclinic
loop_
_symmetry_equiv_pos_as_xyz
'x, y, z'
_cell_length_a     43.585253
_cell_length_b     43.582242
_cell_length_c     88.538248
_cell_angle_alpha  89.941065
_cell_angle_beta   89.976523
_cell_angle_gamma 90.037194
loop_
_atom_site_label
_atom_site_type_symbol
_atom_site_fract_x
_atom_site_fract_y
_atom_site_fract_z
_atom_type_partial_charge
O0 O 0.08957 0.08049 0.30007 0.0
Zn1 Zn 0.11533 0.11245 0.29001 0.0
O2 O 0.14712 0.12691 0.30377 0.0
Zn3 Zn 0.18879 0.11836 0.29646 0.0
Zn4 Zn 0.14307 0.10733 0.32337 0.0
Zn5 Zn 0.14077 0.17045 0.30552 0.0
O6 O 0.20748 0.15765 0.28826 0.0
O7 O 0.17406 0.19323 0.2954 0.0
O8 O 0.13574 0.0916 0.2727 0.0
O9 O 0.18538 0.08897 0.27876 0.0
O10 O 0.21669 0.10005 0.31314 0.0
O11 O 0.18143 0.08696 0.32998 0.0
O12 O 0.13605 0.13832 0.33983 0.0
O13 O 0.08457 0.14545 0.2834 0.0
O14 O 0.1392 0.182 0.32689 0.0
O15 O 0.10194 0.18557 0.29609 0.0
C16 C 0.09025 0.06809 0.31305 0.0
C17 C 0.19875 0.18557 0.2888 0.0
C18 C 0.2092 0.08743 0.32566 0.0
C19 C 0.16292 0.08208 0.27013 0.0
C20 C 0.13639 0.16745 0.33924 0.0
C21 C 0.08226 0.17346 0.28738 0.0
O22 O 0.10953 0.07629 0.32306 0.0
O23 O 0.14313 0.84374 0.55544 0.0
Zn24 Zn 0.11891 0.87128 0.54191 0.0
O25 O 0.10537 0.90689 0.55322 0.0
Zn26 Zn 0.11983 0.94553 0.54464 0.0
Zn27 Zn 0.11841 0.90526 0.57394 0.0
Zn28 Zn 0.06175 0.90516 0.55264 0.0
O29 O 0.08566 0.96494 0.532 0.0
O30 O 0.04718 0.93292 0.53679 0.0
O31 O 0.14682 0.88499 0.52531 0.0
O32 O 0.15348 0.93493 0.52984 0.0
O33 O 0.1371 0.97454 0.56117 0.0
O34 O 0.14564 0.94005 0.57914 0.0
O35 O 0.08272 0.91087 0.58814 0.0
O36 O 0.08403 0.84382 0.53457 0.0
O37 O 0.04437 0.91842 0.57209 0.0
O38 O 0.04537 0.86338 0.5476 0.0
C39 C 0.14963 0.84454 0.56943 0.0
C40 C 0.05824 0.95568 0.52968 0.0
C41 C 0.14843 0.96715 0.57401 0.0
C42 C 0.16011 0.91049 0.52259 0.0
C43 C 0.05501 0.9183 0.58544 0.0
C44 C 0.0564 0.84233 0.53928 0.0
O45 O 0.1409 0.86639 0.57793 0.0
O46 O 0.39394 0.90255 0.80152 0.0
Zn47 Zn 0.36973 0.87187 0.79007 0.0
O48 O 0.33412 0.8595 0.80157 0.0
Zn49 Zn 0.29535 0.87283 0.79252 0.0
Zn50 Zn 0.33678 0.87481 0.82191 0.0
Zn51 Zn 0.33559 0.81579 0.80214 0.0
O52 O 0.27578 0.83681 0.78108 0.0
O53 O 0.30866 0.79928 0.78625 0.0
O54 O 0.35611 0.89377 0.77152 0.0
O55 O 0.30664 0.9036 0.77616 0.0
O56 O 0.26622 0.89254 0.80872 0.0
O57 O 0.30005 0.89933 0.82714 0.0
O58 O 0.33529 0.84023 0.83704 0.0
O59 O 0.40042 0.83737 0.78652 0.0
O60 O 0.32033 0.80204 0.82207 0.0
O61 O 0.3781 0.79857 0.79848 0.0
C62 C 0.3931 0.91196 0.81507 0.0
C63 C 0.28553 0.80943 0.7791 0.0
C64 C 0.27331 0.90313 0.82177 0.0
C65 C 0.33106 0.90744 0.76834 0.0
C66 C 0.32392 0.81357 0.83514 0.0
C67 C 0.401 0.8099 0.79149 0.0
O68 O 0.37323 0.9022 0.82446 0.0
O69 O 0.34304 0.13202 0.06585 0.0
Zn70 Zn 0.36624 0.12504 0.0468 0.0
O71 O 0.38574 0.08548 0.04914 0.0
Zn72 Zn 0.36373 0.05325 0.03845 0.0
Zn73 Zn 0.38918 0.07421 0.06996 0.0
Zn74 Zn 0.42598 0.09032 0.04126 0.0
O75 O 0.38911 0.03914 0.02031 0.0
O76 O 0.4262 0.0743 0.02072 0.0
O77 O 0.33469 0.12321 0.03001 0.0
O78 O 0.3268 0.07265 0.02929 0.0
O79 O 0.34872 0.01815 0.05244 0.0
O80 O 0.3664 0.03605 0.07415 0.0
O81 O 0.43215 0.06348 0.07543 0.0
O82 O 0.3973 0.16045 0.04407 0.0
O83 O 0.45624 0.06666 0.05333 0.0
O84 O 0.44008 0.13397 0.04073 0.0
C85 C 0.34748 0.12383 0.07949 0.0
C86 C 0.41176 0.0529 0.01408 0.0
C87 C 0.35184 0.01587 0.06675 0.0
C88 C 0.31932 0.09992 0.02563 0.0
C89 C 0.45555 0.05879 0.06715 0.0
C90 C 0.42628 0.15954 0.04191 0.0
O91 O 0.36859 0.10505 0.08317 0.0
O92 O 0.0995 0.89768 0.16362 0.0
Zn93 Zn 0.12931 0.87476 0.17616 0.0
O94 O 0.16175 0.85936 0.16341 0.0
Zn95 Zn 0.20246 0.87147 0.17031 0.0
Zn96 Zn 0.15706 0.87298 0.14279 0.0
Zn97 Zn 0.15737 0.81594 0.16401 0.0
O98 O 0.22218 0.8357 0.18167 0.0
O99 O 0.18769 0.79882 0.17802 0.0
O100 O 0.14701 0.90511 0.19055 0.0
O101 O 0.1972 0.90604 0.18538 0.0
O102 O 0.22844 0.8876 0.15237 0.0
O103 O 0.19071 0.90139 0.13691 0.0
O104 O 0.16241 0.83772 0.12826 0.0
O105 O 0.10254 0.84148 0.18575 0.0
O106 O 0.16612 0.79837 0.14405 0.0
O107 O 0.11606 0.80229 0.17127 0.0
C108 C 0.09658 0.90292 0.14959 0.0
C109 C 0.2124 0.80842 0.18394 0.0
C110 C 0.21899 0.9014 0.14047 0.0
C111 C 0.17383 0.91608 0.19251 0.0
C112 C 0.16728 0.80938 0.13078 0.0
C113 C 0.09809 0.81422 0.18095 0.0
O114 O 0.11654 0.894 0.14003 0.0
O115 O 0.34532 0.85668 0.40896 0.0
Zn116 Zn 0.37141 0.87557 0.42487 0.0
O117 O 0.38833 0.91319 0.41659 0.0
Zn118 Zn 0.37355 0.95024 0.42666 0.0
Zn119 Zn 0.38177 0.91715 0.39524 0.0
Zn120 Zn 0.43107 0.909 0.41954 0.0
O121 O 0.40717 0.96691 0.44069 0.0
O122 O 0.44224 0.93031 0.43795 0.0
O123 O 0.34353 0.886 0.44228 0.0
O124 O 0.33969 0.93695 0.4405 0.0
O125 O 0.35567 0.98225 0.41154 0.0
O126 O 0.35832 0.95451 0.39059 0.0
O127 O 0.42106 0.92457 0.38393 0.0
O128 O 0.4038 0.84255 0.42991 0.0
O129 O 0.45358 0.92887 0.40308 0.0
O130 O 0.44556 0.86565 0.42141 0.0
C131 C 0.34241 0.86087 0.39481 0.0
C132 C 0.43218 0.95388 0.4447 0.0
C133 C 0.35057 0.97888 0.3974 0.0
C134 C 0.33149 0.91143 0.4463 0.0
C135 C 0.44717 0.93212 0.3892 0.0
C136 C 0.43233 0.84189 0.42661 0.0
O137 O 0.35674 0.88201 0.38779 0.0
O138 O 0.37651 0.09743 0.65316 0.0
Zn139 Zn 0.36447 0.122 0.67092 0.0
O140 O 0.32613 0.14138 0.66558 0.0
Zn141 Zn 0.29047 0.12349 0.67564 0.0
Zn142 Zn 0.31917 0.1417 0.64424 0.0
Zn143 Zn 0.33095 0.18246 0.67186 0.0
O144 O 0.27395 0.15305 0.6916 0.0
O145 O 0.31309 0.1859 0.6918 0.0
O146 O 0.35708 0.09142 0.68776 0.0
O147 O 0.30592 0.08842 0.68794 0.0
O148 O 0.25795 0.10689 0.66057 0.0
O149 O 0.28157 0.11882 0.63919 0.0
O150 O 0.31002 0.18403 0.63671 0.0
O151 O 0.39994 0.15294 0.675 0.0
O152 O 0.30864 0.21032 0.6582 0.0
O153 O 0.37445 0.19669 0.67329 0.0
C154 C 0.37127 0.09933 0.63906 0.0
C155 C 0.28928 0.17456 0.69786 0.0
C156 C 0.25913 0.10679 0.64613 0.0
C157 C 0.33213 0.0793 0.69245 0.0
C158 C 0.3034 0.20815 0.64414 0.0
C159 C 0.39956 0.1823 0.67497 0.0
O160 O 0.35253 0.11885 0.63358 0.0
O161 O 0.13758 0.11608 0.903 0.0
Zn162 Zn 0.11551 0.10869 0.92213 0.0
O163 O 0.09664 0.06918 0.92004 0.0
Zn164 Zn 0.1216 0.03665 0.92875 0.0
Zn165 Zn 0.09024 0.06002 0.89908 0.0
Zn166 Zn 0.05834 0.0731 0.93041 0.0
O167 O 0.09611 0.01445 0.94483 0.0
O168 O 0.06143 0.05091 0.9498 0.0
O169 O 0.14666 0.10725 0.93877 0.0
O170 O 0.15546 0.05702 0.94051 0.0
O171 O 0.14043 0.00776 0.91243 0.0
O172 O 0.11469 0.024 0.89242 0.0
O173 O 0.04637 0.0491 0.89552 0.0
O174 O 0.08463 0.14354 0.92557 0.0
O175 O 0.02551 0.05292 0.91842 0.0
O176 O 0.04436 0.11708 0.93344 0.0
C177 C 0.13044 0.11029 0.88937 0.0
C178 C 0.07526 0.02616 0.9532 0.0
C179 C 0.13421 0.00604 0.89832 0.0
C180 C 0.16155 0.08465 0.94423 0.0
C181 C 0.0239 0.04547 0.90457 0.0
C182 C 0.05707 0.1427 0.93044 0.0
O183 O 0.10741 0.0936 0.88597 0.0
O184 O 0.89464 0.89222 0.67142 0.0
Zn185 Zn 0.86658 0.86669 0.68395 0.0
O186 O 0.83021 0.85563 0.6726 0.0
Zn187 Zn 0.7929 0.87337 0.68122 0.0
Zn188 Zn 0.83416 0.86911 0.65197 0.0
Zn189 Zn 0.82788 0.81162 0.67293 0.0
O190 O 0.77125 0.84068 0.69393 0.0
O191 O 0.79751 0.79849 0.68821 0.0
O192 O 0.85492 0.89333 0.70129 0.0
O193 O 0.80617 0.90552 0.69638 0.0
O194 O 0.76501 0.893 0.66458 0.0
O195 O 0.79895 0.895 0.64593 0.0
O196 O 0.83166 0.83363 0.63757 0.0
O197 O 0.89265 0.83014 0.68981 0.0
O198 O 0.81468 0.79671 0.6528 0.0
O199 O 0.86835 0.79165 0.67861 0.0
C200 C 0.89388 0.90127 0.6578 0.0
C201 C 0.7766 0.81207 0.69564 0.0
C202 C 0.77259 0.90131 0.65119 0.0
C203 C 0.83087 0.90904 0.70396 0.0
C204 C 0.81971 0.80729 0.63964 0.0
C205 C 0.89128 0.80202 0.68593 0.0
O206 O 0.87226 0.89377 0.64889 0.0
O207 O 0.84283 0.14075 0.4149 0.0
Zn208 Zn 0.8728 0.11942 0.42812 0.0
O209 O 0.88784 0.08285 0.41808 0.0
Zn210 Zn 0.87215 0.04539 0.42757 0.0
Zn211 Zn 0.8755 0.08272 0.39721 0.0
Zn212 Zn 0.93194 0.08472 0.41898 0.0
O213 O 0.90628 0.02657 0.44003 0.0
O214 O 0.94665 0.05606 0.43475 0.0
O215 O 0.84841 0.10765 0.44635 0.0
O216 O 0.84007 0.05763 0.4428 0.0
O217 O 0.85379 0.0145 0.41207 0.0
O218 O 0.8553 0.04391 0.39164 0.0
O219 O 0.91135 0.08246 0.38321 0.0
O220 O 0.90634 0.15091 0.43239 0.0
O221 O 0.94904 0.07149 0.39923 0.0
O222 O 0.94807 0.12712 0.42412 0.0
C223 C 0.8342 0.13691 0.40134 0.0
C224 C 0.93432 0.03408 0.44201 0.0
C225 C 0.84873 0.01868 0.39798 0.0
C226 C 0.83493 0.08265 0.44984 0.0
C227 C 0.93859 0.07345 0.38585 0.0
C228 C 0.93507 0.15076 0.42965 0.0
O229 O 0.84563 0.11613 0.39297 0.0
O230 O 0.60135 0.08466 0.15161 0.0
Zn231 Zn 0.61392 0.10991 0.16938 0.0
O232 O 0.65185 0.13082 0.16416 0.0
Zn233 Zn 0.688 0.11473 0.17451 0.0
Zn234 Zn 0.6593 0.13007 0.14278 0.0
Zn235 Zn 0.64593 0.17232 0.16989 0.0
O236 O 0.70388 0.14599 0.18995 0.0
O237 O 0.66567 0.1797 0.18927 0.0
O238 O 0.62228 0.08047 0.18654 0.0
O239 O 0.67348 0.07924 0.18682 0.0
O240 O 0.72156 0.09914 0.15983 0.0
O241 O 0.69883 0.11023 0.13814 0.0
O242 O 0.66424 0.17213 0.13411 0.0
O243 O 0.57813 0.13959 0.17385 0.0
O244 O 0.66623 0.19962 0.15517 0.0
O245 O 0.60186 0.1844 0.17204 0.0
C246 C 0.60842 0.08539 0.13766 0.0
C247 C 0.68978 0.16921 0.19538 0.0
C248 C 0.72138 0.09928 0.14539 0.0
C249 C 0.64754 0.06923 0.19131 0.0
C250 C 0.67051 0.19691 0.14105 0.0
C251 C 0.57745 0.1689 0.17398 0.0
O252 O 0.62844 0.10388 0.13246 0.0
O253 O 0.64272 0.85247 0.91755 0.0
Zn254 Zn 0.61675 0.87985 0.93028 0.0
O255 O 0.60232 0.91359 0.918 0.0
Zn256 Zn 0.61451 0.95384 0.92551 0.0
Zn257 Zn 0.61551 0.91035 0.89734 0.0
Zn258 Zn 0.55906 0.90972 0.91856 0.0
O259 O 0.57799 0.97487 0.93558 0.0
O260 O 0.54277 0.93802 0.93354 0.0
O261 O 0.64351 0.89663 0.94659 0.0
O262 O 0.64682 0.94671 0.94154 0.0
O263 O 0.63329 0.98047 0.90864 0.0
O264 O 0.64358 0.94434 0.89174 0.0
O265 O 0.58016 0.91632 0.88297 0.0
O266 O 0.58279 0.85147 0.93814 0.0
O267 O 0.54155 0.9217 0.89906 0.0
O268 O 0.54406 0.86811 0.92423 0.0
C269 C 0.64807 0.85097 0.90345 0.0
C270 C 0.55162 0.9637 0.93863 0.0
C271 C 0.6458 0.97191 0.89628 0.0
C272 C 0.65482 0.92313 0.94915 0.0
C273 C 0.55224 0.92274 0.88574 0.0
C274 C 0.55543 0.84846 0.93324 0.0
O275 O 0.63765 0.87087 0.89422 0.0
O276 O 0.88204 0.0962 0.8211 0.0
Zn277 Zn 0.87164 0.12015 0.80267 0.0
O278 O 0.83382 0.14161 0.80698 0.0
Zn279 Zn 0.79782 0.1249 0.79703 0.0
Zn280 Zn 0.82548 0.14359 0.82816 0.0
Zn281 Zn 0.83988 0.18187 0.79939 0.0
O282 O 0.77882 0.15733 0.7835 0.0
O283 O 0.82045 0.18581 0.77958 0.0
O284 O 0.86379 0.09003 0.7857 0.0
O285 O 0.81278 0.09191 0.7833 0.0
O286 O 0.76618 0.10669 0.81184 0.0
O287 O 0.78702 0.12216 0.8333 0.0
O288 O 0.81806 0.1867 0.83474 0.0
O289 O 0.9082 0.14942 0.79857 0.0
O290 O 0.82029 0.21209 0.81295 0.0
O291 O 0.88367 0.19378 0.79747 0.0
C292 C 0.87565 0.09958 0.83503 0.0
C293 C 0.79348 0.17766 0.77603 0.0
C294 C 0.76579 0.10844 0.82623 0.0
C295 C 0.83882 0.08093 0.7796 0.0
C296 C 0.81408 0.21094 0.82695 0.0
C297 C 0.90851 0.17861 0.79715 0.0
O298 O 0.85696 0.11999 0.83967 0.0
O299 O 0.64975 0.136 0.5632 0.0
Zn300 Zn 0.623 0.11975 0.54713 0.0
O301 O 0.60577 0.08213 0.55484 0.0
Zn302 Zn 0.6225 0.04479 0.54603 0.0
Zn303 Zn 0.6074 0.0794 0.57636 0.0
Zn304 Zn 0.5643 0.08528 0.54933 0.0
O305 O 0.59006 0.02505 0.53239 0.0
O306 O 0.55846 0.06492 0.52997 0.0
O307 O 0.65108 0.10943 0.52987 0.0
O308 O 0.65584 0.05845 0.53182 0.0
O309 O 0.64042 0.01502 0.56232 0.0
O310 O 0.62893 0.04174 0.58282 0.0
O311 O 0.56521 0.07442 0.58525 0.0
O312 O 0.59104 0.15392 0.54276 0.0
O313 O 0.53956 0.0633 0.56429 0.0
O314 O 0.54852 0.12842 0.54799 0.0
C315 C 0.65095 0.13219 0.57742 0.0
C316 C 0.56813 0.03892 0.52565 0.0
C317 C 0.64069 0.01822 0.5767 0.0
C318 C 0.66345 0.08411 0.52592 0.0
C319 C 0.54173 0.06335 0.57857 0.0
C320 C 0.56196 0.15343 0.54468 0.0
O321 O 0.63357 0.11333 0.58437 0.0
O322 O 0.60474 0.89793 0.30886 0.0
Zn323 Zn 0.62469 0.86877 0.29488 0.0
O324 O 0.6624 0.85537 0.304 0.0
Zn325 Zn 0.69797 0.8741 0.2943 0.0
Zn326 Zn 0.66334 0.86351 0.32524 0.0
Zn327 Zn 0.66263 0.8122 0.30155 0.0
O328 O 0.71692 0.84321 0.27966 0.0
O329 O 0.68615 0.80308 0.28333 0.0
O330 O 0.63385 0.89307 0.27627 0.0
O331 O 0.68216 0.90752 0.28063 0.0
O332 O 0.72895 0.89184 0.3099 0.0
O333 O 0.70197 0.88435 0.33085 0.0
O334 O 0.66567 0.82452 0.33733 0.0
O335 O 0.59391 0.83421 0.29133 0.0
O336 O 0.68273 0.7935 0.31927 0.0
O337 O 0.62048 0.79358 0.29871 0.0
C338 C 0.60861 0.9048 0.32267 0.0
C339 C 0.70723 0.81657 0.27598 0.0
C340 C 0.726 0.89386 0.32425 0.0
C341 C 0.65706 0.90984 0.27327 0.0
C342 C 0.67927 0.80004 0.33316 0.0
C343 C 0.59557 0.8055 0.29402 0.0
O344 O 0.62921 0.89213 0.33076 0.0
O345 O 0.84048 0.84521 0.04854 0.0
Zn346 Zn 0.87014 0.87377 0.03857 0.0
O347 O 0.88169 0.9061 0.05242 0.0
Zn348 Zn 0.87143 0.94667 0.04492 0.0
Zn349 Zn 0.86198 0.90091 0.07177 0.0
Zn350 Zn 0.92501 0.9035 0.05492 0.0
O351 O 0.9089 0.96594 0.03491 0.0
O352 O 0.94577 0.93369 0.04187 0.0
O353 O 0.84781 0.89238 0.02091 0.0
O354 O 0.84049 0.94075 0.02838 0.0
O355 O 0.85281 0.97373 0.06177 0.0
O356 O 0.83595 0.9368 0.07693 0.0
O357 O 0.89282 0.90111 0.08878 0.0
O358 O 0.90576 0.84528 0.03343 0.0
O359 O 0.93484 0.91405 0.07596 0.0
O360 O 0.94167 0.86193 0.04928 0.0
C361 C 0.82925 0.84372 0.06176 0.0
C362 C 0.93688 0.9573 0.03472 0.0
C363 C 0.83738 0.965 0.0733 0.0
C364 C 0.83523 0.91866 0.01928 0.0
C365 C 0.92039 0.9107 0.08831 0.0
C366 C 0.93189 0.8423 0.03978 0.0
O367 O 0.83604 0.86319 0.07193 0.0
O368 O 0.60153 0.58939 0.80579 0.0
Zn369 Zn 0.6265 0.61964 0.79439 0.0
O370 O 0.66162 0.63211 0.80619 0.0
Zn371 Zn 0.70077 0.61942 0.79725 0.0
Zn372 Zn 0.65859 0.6162 0.82644 0.0
Zn373 Zn 0.65962 0.67577 0.8071 0.0
O374 O 0.71947 0.65579 0.7856 0.0
O375 O 0.68702 0.6931 0.79165 0.0
O376 O 0.64091 0.59706 0.77623 0.0
O377 O 0.69043 0.58801 0.78107 0.0
O378 O 0.73003 0.60036 0.81361 0.0
O379 O 0.69573 0.59244 0.83174 0.0
O380 O 0.65898 0.65022 0.84186 0.0
O381 O 0.59634 0.65422 0.79008 0.0
O382 O 0.67384 0.68906 0.82724 0.0
O383 O 0.61723 0.69277 0.80279 0.0
C384 C 0.60229 0.57929 0.81923 0.0
C385 C 0.70982 0.68336 0.78413 0.0
C386 C 0.72277 0.58942 0.8266 0.0
C387 C 0.66615 0.58358 0.77325 0.0
C388 C 0.67005 0.67706 0.8402 0.0
C389 C 0.59515 0.68156 0.79516 0.0
O390 O 0.62237 0.58833 0.82867 0.0
O391 O 0.6476 0.36707 0.06809 0.0
Zn392 Zn 0.62109 0.38189 0.05136 0.0
O393 O 0.60305 0.42049 0.05762 0.0
Zn394 Zn 0.62433 0.45511 0.04829 0.0
Zn395 Zn 0.60427 0.42495 0.07932 0.0
Zn396 Zn 0.56101 0.4187 0.05154 0.0
O397 O 0.59545 0.47719 0.03389 0.0
O398 O 0.55391 0.4474 0.03503 0.0
O399 O 0.6491 0.38843 0.03358 0.0
O400 O 0.65794 0.43867 0.03507 0.0
O401 O 0.64276 0.48451 0.06408 0.0
O402 O 0.62516 0.4636 0.08522 0.0
O403 O 0.56216 0.42641 0.08857 0.0
O404 O 0.58897 0.34852 0.04717 0.0
O405 O 0.53374 0.4317 0.06799 0.0
O406 O 0.54661 0.37636 0.04591 0.0
C407 C 0.64807 0.37241 0.08221 0.0
C408 C 0.56845 0.47008 0.02958 0.0
C409 C 0.6401 0.48454 0.07846 0.0
C410 C 0.66364 0.41238 0.02941 0.0
C411 C 0.53649 0.43178 0.08224 0.0
C412 C 0.56004 0.3505 0.04516 0.0
O413 O 0.63037 0.39211 0.08826 0.0
O414 O 0.88526 0.39314 0.30664 0.0
Zn415 Zn 0.86302 0.36817 0.29135 0.0
O416 O 0.82621 0.35061 0.30029 0.0
Zn417 Zn 0.78809 0.36585 0.29093 0.0
Zn418 Zn 0.82496 0.3593 0.32168 0.0
Zn419 Zn 0.82994 0.30699 0.29778 0.0
O420 O 0.76816 0.33148 0.27853 0.0
O421 O 0.80077 0.29317 0.28261 0.0
O422 O 0.85082 0.39765 0.27515 0.0
O423 O 0.79969 0.39972 0.27636 0.0
O424 O 0.75793 0.38351 0.30692 0.0
O425 O 0.78762 0.38196 0.32727 0.0
O426 O 0.82033 0.32139 0.33402 0.0
O427 O 0.8945 0.33617 0.28445 0.0
O428 O 0.81835 0.28522 0.31647 0.0
O429 O 0.87164 0.29287 0.29124 0.0
C430 C 0.88249 0.39681 0.3208 0.0
C431 C 0.77709 0.30395 0.27622 0.0
C432 C 0.76244 0.38879 0.32096 0.0
C433 C 0.82524 0.40903 0.27099 0.0
C434 C 0.81584 0.29373 0.33011 0.0
C435 C 0.89466 0.30703 0.28584 0.0
O436 O 0.86099 0.384 0.32822 0.0
O437 O 0.84567 0.64154 0.55559 0.0
Zn438 Zn 0.87055 0.61638 0.54122 0.0
O439 O 0.88652 0.58033 0.55141 0.0
Zn440 Zn 0.87373 0.54137 0.54232 0.0
Zn441 Zn 0.87429 0.58011 0.5722 0.0
Zn442 Zn 0.93003 0.58421 0.55081 0.0
O443 O 0.90949 0.52366 0.52978 0.0
O444 O 0.94583 0.55801 0.53469 0.0
O445 O 0.84196 0.60266 0.52493 0.0
O446 O 0.84011 0.55163 0.52726 0.0
O447 O 0.85599 0.5115 0.55872 0.0
O448 O 0.84593 0.54611 0.57642 0.0
O449 O 0.90974 0.57144 0.58599 0.0
O450 O 0.90397 0.64606 0.53405 0.0
O451 O 0.94868 0.57002 0.5699 0.0
O452 O 0.94409 0.62689 0.54619 0.0
C453 C 0.84166 0.64026 0.5698 0.0
C454 C 0.93637 0.53464 0.52754 0.0
C455 C 0.84347 0.51903 0.5713 0.0
C456 C 0.83094 0.57662 0.5212 0.0
C457 C 0.93787 0.56643 0.5831 0.0
C458 C 0.9318 0.64817 0.53843 0.0
O459 O 0.85289 0.61865 0.57773 0.0
O460 O 0.61471 0.40103 0.65797 0.0
Zn461 Zn 0.62852 0.37404 0.67451 0.0
O462 O 0.66598 0.35515 0.66764 0.0
Zn463 Zn 0.70298 0.37136 0.67717 0.0
Zn464 Zn 0.67025 0.35697 0.64613 0.0
Zn465 Zn 0.66117 0.31359 0.67304 0.0
O466 O 0.72031 0.33975 0.692 0.0
O467 O 0.6812 0.30697 0.69224 0.0
O468 O 0.63834 0.4024 0.69186 0.0
O469 O 0.68947 0.40586 0.69051 0.0
O470 O 0.73473 0.38755 0.66145 0.0
O471 O 0.70858 0.37805 0.64049 0.0
O472 O 0.67671 0.31519 0.63727 0.0
O473 O 0.59292 0.34309 0.67836 0.0
O474 O 0.68179 0.28749 0.65822 0.0
O475 O 0.61777 0.29945 0.67489 0.0
C476 C 0.61852 0.40123 0.64374 0.0
C477 C 0.70592 0.31712 0.69788 0.0
C478 C 0.73229 0.38835 0.64705 0.0
C479 C 0.66378 0.41432 0.69601 0.0
C480 C 0.68469 0.29067 0.64406 0.0
C481 C 0.59295 0.3138 0.67741 0.0
O482 O 0.63666 0.38255 0.63716 0.0
O483 O 0.84603 0.36136 0.91076 0.0
Zn484 Zn 0.87081 0.37421 0.92841 0.0
O485 O 0.89064 0.4125 0.92301 0.0
Zn486 Zn 0.87075 0.44821 0.93198 0.0
Zn487 Zn 0.8927 0.41809 0.90156 0.0
Zn488 Zn 0.93127 0.40821 0.93047 0.0
O489 O 0.89863 0.46637 0.94845 0.0
O490 O 0.93382 0.42937 0.94991 0.0
O491 O 0.841 0.38175 0.94544 0.0
O492 O 0.83442 0.4324 0.94357 0.0
O493 O 0.85552 0.47962 0.91581 0.0
O494 O 0.87309 0.45706 0.89514 0.0
O495 O 0.93634 0.42076 0.89453 0.0
O496 O 0.90103 0.33874 0.93254 0.0
O497 O 0.96079 0.42714 0.91632 0.0
O498 O 0.94482 0.36429 0.933 0.0
C499 C 0.84797 0.36707 0.8967 0.0
C500 C 0.92096 0.45318 0.95523 0.0
C501 C 0.85886 0.47899 0.90144 0.0
C502 C 0.82684 0.40634 0.94901 0.0
C503 C 0.96039 0.42775 0.90197 0.0
C504 C 0.93024 0.33904 0.93364 0.0
O505 O 0.86733 0.38613 0.89137 0.0
O506 O 0.90333 0.60662 0.17009 0.0
Zn507 Zn 0.87409 0.6314 0.18219 0.0
O508 O 0.84028 0.64386 0.16944 0.0
Zn509 Zn 0.80098 0.63042 0.17742 0.0
Zn510 Zn 0.84403 0.62764 0.14923 0.0
Zn511 Zn 0.84217 0.68767 0.16871 0.0
O512 O 0.7804 0.66596 0.18802 0.0
O513 O 0.81147 0.70497 0.18267 0.0
O514 O 0.85876 0.60354 0.19848 0.0
O515 O 0.80897 0.59814 0.19329 0.0
O516 O 0.77379 0.61184 0.1608 0.0
O517 O 0.80978 0.59911 0.14422 0.0
O518 O 0.83879 0.66106 0.13371 0.0
O519 O 0.90041 0.66694 0.18972 0.0
O520 O 0.83196 0.70203 0.14819 0.0
O521 O 0.88327 0.70426 0.17495 0.0
C522 C 0.90486 0.59861 0.15632 0.0
C523 C 0.78804 0.6941 0.18933 0.0
C524 C 0.78206 0.59818 0.14869 0.0
C525 C 0.83278 0.59098 0.2009 0.0
C526 C 0.8321 0.68931 0.13528 0.0
C527 C 0.9029 0.69399 0.18432 0.0
O528 O 0.88403 0.60572 0.14686 0.0
O529 O 0.64764 0.63202 0.40958 0.0
Zn530 Zn 0.61914 0.61244 0.42425 0.0
O531 O 0.6027 0.57575 0.41501 0.0
Zn532 Zn 0.61706 0.53812 0.42474 0.0
Zn533 Zn 0.61084 0.57448 0.39363 0.0
Zn534 Zn 0.55956 0.57905 0.41698 0.0
O535 O 0.58262 0.52045 0.43784 0.0
O536 O 0.54589 0.5551 0.43426 0.0
O537 O 0.64561 0.60066 0.44191 0.0
O538 O 0.65036 0.54989 0.43943 0.0
O539 O 0.6342 0.50708 0.40905 0.0
O540 O 0.63142 0.5357 0.3883 0.0
O541 O 0.57248 0.57207 0.38108 0.0
O542 O 0.58619 0.645 0.42905 0.0
O543 O 0.53953 0.56079 0.39933 0.0
O544 O 0.54488 0.62226 0.41973 0.0
C545 C 0.65281 0.62876 0.39554 0.0
C546 C 0.55622 0.53154 0.44095 0.0
C547 C 0.63851 0.5108 0.39486 0.0
C548 C 0.65775 0.57516 0.44574 0.0
C549 C 0.54672 0.56153 0.38546 0.0
C550 C 0.55779 0.64571 0.42545 0.0
O551 O 0.63887 0.60862 0.3877 0.0
O552 O 0.36341 0.37887 0.1573 0.0
Zn553 Zn 0.34917 0.35558 0.175 0.0
O554 O 0.31014 0.33775 0.16987 0.0
Zn555 Zn 0.27606 0.35902 0.17954 0.0
Zn556 Zn 0.30446 0.33707 0.14844 0.0
Zn557 Zn 0.31234 0.29651 0.17686 0.0
O558 O 0.25786 0.33215 0.19634 0.0
O559 O 0.29347 0.29543 0.1969 0.0
O560 O 0.34441 0.38646 0.19162 0.0
O561 O 0.29386 0.39418 0.19112 0.0
O562 O 0.24531 0.37684 0.16389 0.0
O563 O 0.26822 0.36191 0.14275 0.0
O564 O 0.2948 0.29455 0.14151 0.0
O565 O 0.38257 0.32361 0.17899 0.0
O566 O 0.28975 0.26872 0.16302 0.0
O567 O 0.35567 0.28055 0.17842 0.0
C568 C 0.35957 0.37582 0.14316 0.0
C569 C 0.27109 0.30958 0.2029 0.0
C570 C 0.2467 0.37604 0.14945 0.0
C571 C 0.32061 0.40113 0.19583 0.0
C572 C 0.28672 0.2706 0.14877 0.0
C573 C 0.38131 0.29436 0.1794 0.0
O574 O 0.34007 0.357 0.13774 0.0
O575 O 0.3472 0.64587 0.91739 0.0
Zn576 Zn 0.37289 0.62068 0.93141 0.0
O577 O 0.3896 0.58612 0.92035 0.0
Zn578 Zn 0.37898 0.5466 0.92916 0.0
Zn579 Zn 0.37622 0.58563 0.89966 0.0
Zn580 Zn 0.43279 0.59161 0.9206 0.0
O581 O 0.41528 0.52968 0.94098 0.0
O582 O 0.45076 0.56473 0.93581 0.0
O583 O 0.34495 0.60477 0.94769 0.0
O584 O 0.34498 0.55413 0.94405 0.0
O585 O 0.36309 0.51637 0.91311 0.0
O586 O 0.3493 0.55002 0.89557 0.0
O587 O 0.41155 0.57878 0.88534 0.0
O588 O 0.4057 0.65077 0.93896 0.0
O589 O 0.45076 0.57937 0.90125 0.0
O590 O 0.44571 0.63407 0.92589 0.0
C591 C 0.34211 0.64495 0.90325 0.0
C592 C 0.44219 0.54074 0.94273 0.0
C593 C 0.34943 0.5228 0.90073 0.0
C594 C 0.33481 0.57797 0.95073 0.0
C595 C 0.43997 0.57522 0.88811 0.0
C596 C 0.43327 0.65409 0.93434 0.0
O597 O 0.35301 0.62375 0.89494 0.0
O598 O 0.0904 0.57932 0.67172 0.0
Zn599 Zn 0.1135 0.60818 0.68496 0.0
O600 O 0.14837 0.62589 0.67426 0.0
Zn601 Zn 0.18817 0.6128 0.68243 0.0
Zn602 Zn 0.14669 0.61428 0.65321 0.0
Zn603 Zn 0.14427 0.66977 0.67604 0.0
O604 O 0.20745 0.64795 0.69436 0.0
O605 O 0.17468 0.68624 0.6905 0.0
O606 O 0.1291 0.58314 0.70222 0.0
O607 O 0.17958 0.58001 0.69807 0.0
O608 O 0.21758 0.59627 0.66563 0.0
O609 O 0.18434 0.59273 0.64678 0.0
O610 O 0.14592 0.65122 0.6397 0.0
O611 O 0.08122 0.63974 0.69102 0.0
O612 O 0.15181 0.68911 0.65621 0.0
O613 O 0.10248 0.68307 0.68306 0.0
C614 C 0.09207 0.57321 0.65773 0.0
C615 C 0.19862 0.67548 0.69672 0.0
C616 C 0.21104 0.58839 0.65207 0.0
C617 C 0.15549 0.57225 0.70538 0.0
C618 C 0.15055 0.6794 0.6427 0.0
C619 C 0.08007 0.66866 0.68894 0.0
O620 O 0.11179 0.58591 0.64917 0.0
O621 O 0.15154 0.34879 0.41466 0.0
Zn622 Zn 0.12629 0.37459 0.42823 0.0
O623 O 0.11097 0.41009 0.41742 0.0
Zn624 Zn 0.12778 0.44858 0.42528 0.0
Zn625 Zn 0.11984 0.40656 0.39613 0.0
Zn626 Zn 0.06724 0.40924 0.41978 0.0
O627 O 0.09485 0.47008 0.43807 0.0
O628 O 0.05496 0.43859 0.43538 0.0
O629 O 0.15404 0.38796 0.44494 0.0
O630 O 0.1612 0.43783 0.44025 0.0
O631 O 0.1454 0.47573 0.4078 0.0
O632 O 0.14406 0.44222 0.38889 0.0
O633 O 0.08163 0.40966 0.38356 0.0
O634 O 0.09249 0.34475 0.43459 0.0
O635 O 0.04733 0.42272 0.40092 0.0
O636 O 0.0509 0.36739 0.42545 0.0
C637 C 0.15441 0.34747 0.40041 0.0
C638 C 0.06739 0.46203 0.44129 0.0
C639 C 0.15096 0.46856 0.39402 0.0
C640 C 0.1675 0.41338 0.4476 0.0
C641 C 0.0553 0.41981 0.38721 0.0
C642 C 0.06382 0.34447 0.4317 0.0
O643 O 0.14231 0.36753 0.39179 0.0
O644 O 0.38177 0.58682 0.30658 0.0
Zn645 Zn 0.36703 0.61523 0.29078 0.0
O646 O 0.32982 0.63472 0.29799 0.0
Zn647 Zn 0.29277 0.61956 0.28791 0.0
Zn648 Zn 0.32567 0.62982 0.31949 0.0
Zn649 Zn 0.33538 0.67724 0.29382 0.0
O650 O 0.27557 0.65281 0.27367 0.0
O651 O 0.31288 0.68746 0.27551 0.0
O652 O 0.35746 0.58899 0.27283 0.0
O653 O 0.30632 0.58637 0.27367 0.0
O654 O 0.26125 0.60116 0.30328 0.0
O655 O 0.28702 0.60856 0.32461 0.0
O656 O 0.32149 0.67029 0.32995 0.0
O657 O 0.40273 0.64528 0.28721 0.0
O658 O 0.31894 0.70232 0.31045 0.0
O659 O 0.37918 0.68968 0.29069 0.0
C660 C 0.37809 0.58562 0.3208 0.0
C661 C 0.28899 0.67723 0.26907 0.0
C662 C 0.26354 0.59876 0.31767 0.0
C663 C 0.33205 0.57806 0.26814 0.0
C664 C 0.31625 0.69678 0.32446 0.0
C665 C 0.40344 0.6745 0.28801 0.0
O666 O 0.35928 0.60322 0.32761 0.0
O667 O 0.15265 0.6442 0.04987 0.0
Zn668 Zn 0.12132 0.61679 0.04054 0.0
O669 O 0.11013 0.58487 0.05463 0.0
Zn670 Zn 0.11906 0.54423 0.04691 0.0
Zn671 Zn 0.13147 0.58941 0.07362 0.0
Zn672 Zn 0.06702 0.58868 0.05772 0.0
O673 O 0.08058 0.52616 0.03747 0.0
O674 O 0.04486 0.55927 0.04477 0.0
O675 O 0.14156 0.59779 0.02253 0.0
O676 O 0.14985 0.54958 0.03006 0.0
O677 O 0.13644 0.51621 0.06365 0.0
O678 O 0.15493 0.55165 0.07915 0.0
O679 O 0.10144 0.59226 0.09088 0.0
O680 O 0.08621 0.64609 0.03577 0.0
O681 O 0.05842 0.57864 0.07904 0.0
O682 O 0.05078 0.63053 0.05213 0.0
C683 C 0.16571 0.64512 0.06268 0.0
C684 C 0.05283 0.53554 0.03745 0.0
C685 C 0.15184 0.52365 0.07539 0.0
C686 C 0.15427 0.57164 0.02079 0.0
C687 C 0.07378 0.58286 0.09107 0.0
C688 C 0.06045 0.64972 0.04237 0.0
O689 O 0.15965 0.62566 0.07301 0.0
O690 O 0.12787 0.38619 0.82522 0.0
Zn691 Zn 0.1388 0.36434 0.8064 0.0
O692 O 0.17671 0.34333 0.81028 0.0
Zn693 Zn 0.21222 0.36277 0.80126 0.0
Zn694 Zn 0.18356 0.33778 0.83145 0.0
Zn695 Zn 0.17215 0.30468 0.80088 0.0
O696 O 0.23345 0.33297 0.78709 0.0
O697 O 0.19214 0.30555 0.78112 0.0
O698 O 0.14582 0.39593 0.79018 0.0
O699 O 0.19688 0.39713 0.78823 0.0
O700 O 0.24157 0.37971 0.81724 0.0
O701 O 0.22133 0.35967 0.838 0.0
O702 O 0.19004 0.29329 0.83614 0.0
O703 O 0.10299 0.33488 0.80161 0.0
O704 O 0.19182 0.27242 0.81326 0.0
O705 O 0.12867 0.2917 0.79827 0.0
C706 C 0.13221 0.37984 0.83909 0.0
C707 C 0.21927 0.31447 0.77839 0.0
C708 C 0.24183 0.37573 0.83153 0.0
C709 C 0.1704 0.40707 0.78455 0.0
C710 C 0.19542 0.27057 0.82746 0.0
C711 C 0.10341 0.30611 0.79887 0.0
O712 O 0.14988 0.35809 0.84325 0.0
O713 O 0.3434 0.36459 0.56537 0.0
Zn714 Zn 0.37113 0.3816 0.54965 0.0
O715 O 0.38777 0.4194 0.55761 0.0
Zn716 Zn 0.37224 0.45647 0.54771 0.0
Zn717 Zn 0.38295 0.42275 0.57905 0.0
Zn718 Zn 0.43021 0.4159 0.55416 0.0
O719 O 0.4055 0.47391 0.53361 0.0
O720 O 0.43961 0.43609 0.5352 0.0
O721 O 0.34402 0.39167 0.53192 0.0
O722 O 0.33923 0.44266 0.53336 0.0
O723 O 0.35384 0.48779 0.56322 0.0
O724 O 0.36141 0.46097 0.58418 0.0
O725 O 0.42328 0.42757 0.58985 0.0
O726 O 0.40387 0.34822 0.54529 0.0
O727 O 0.45256 0.43783 0.57 0.0
O728 O 0.44564 0.37253 0.55291 0.0
C729 C 0.33992 0.3694 0.57944 0.0
C730 C 0.42949 0.46007 0.52881 0.0
C731 C 0.3515 0.4848 0.57758 0.0
C732 C 0.33192 0.41686 0.52757 0.0
C733 C 0.44784 0.43841 0.58413 0.0
C734 C 0.43258 0.34817 0.54829 0.0
O735 O 0.35553 0.38945 0.58654 0.0
H736 H 0.17573 0.16166 0.36284 0.0
H737 H 0.10021 0.2153 0.34562 0.0
H738 H 0.18937 0.20381 0.38007 0.0
H739 H 0.11346 0.25687 0.36278 0.0
H740 H 0.16952 0.337 0.37102 0.0
H741 H 0.16828 0.28697 0.35884 0.0
H742 H 0.16212 0.24264 0.40232 0.0
H743 H 0.16379 0.29262 0.41468 0.0
C744 C 0.16125 0.18183 0.36331 0.0
C745 C 0.13705 0.18564 0.353 0.0
C746 C 0.16926 0.20592 0.37296 0.0
C747 C 0.15299 0.23362 0.37224 0.0
C748 C 0.12672 0.23585 0.36316 0.0
C749 C 0.11888 0.21204 0.35355 0.0
C750 C 0.16915 0.31661 0.37803 0.0
C751 C 0.16566 0.31873 0.39373 0.0
C752 C 0.16837 0.28806 0.37107 0.0
C753 C 0.1641 0.26142 0.37974 0.0
C754 C 0.1651 0.26308 0.3955 0.0
C755 C 0.16607 0.29171 0.40251 0.0
H756 H 0.99388 0.92882 0.58361 0.0
H757 H 0.06929 0.92719 0.61535 0.0
H758 H 0.95839 0.93731 0.60391 0.0
H759 H 0.03335 0.93714 0.63597 0.0
H760 H 0.95367 0.89019 0.66374 0.0
H761 H -0.00325 0.90599 0.6482 0.0
H762 H 0.93698 0.96674 0.62309 0.0
H763 H 0.89343 0.9488 0.63798 0.0
C764 C 0.00299 0.93091 0.59494 0.0
C765 C 0.03431 0.92661 0.59791 0.0
C766 C 0.98258 0.93635 0.60665 0.0
C767 C 0.99294 0.93798 0.62166 0.0
C768 C 0.02459 0.93562 0.62456 0.0
C769 C 0.04512 0.92984 0.61277 0.0
C770 C 0.95002 0.90757 0.65516 0.0
C771 C 0.92034 0.91765 0.65164 0.0
C772 C 0.97477 0.91688 0.64631 0.0
C773 C 0.97011 0.93688 0.63404 0.0
C774 C 0.94106 0.95038 0.63208 0.0
C775 C 0.91616 0.94027 0.6406 0.0
H776 H 0.27787 0.77208 0.8365 0.0
H777 H 0.34973 0.81345 0.86319 0.0
H778 H 0.26905 0.73422 0.85627 0.0
H779 H 0.34186 0.7748 0.88275 0.0
H780 H 0.32846 0.70099 0.91543 0.0
H781 H 0.31197 0.74659 0.90162 0.0
H782 H 0.30359 0.69227 0.86098 0.0
H783 H 0.31933 0.647 0.87472 0.0
C784 C 0.29147 0.77327 0.84673 0.0
C785 C 0.3151 0.79494 0.84822 0.0
C786 C 0.28633 0.75173 0.85805 0.0
C787 C 0.30521 0.75113 0.87087 0.0
C788 C 0.32683 0.77474 0.87301 0.0
C789 C 0.3316 0.79668 0.86177 0.0
C790 C 0.32221 0.69869 0.90365 0.0
C791 C 0.3259 0.67064 0.89603 0.0
C792 C 0.31285 0.72479 0.89576 0.0
C793 C 0.3069 0.72309 0.88021 0.0
C794 C 0.30776 0.69439 0.87299 0.0
C795 C 0.31717 0.66842 0.88083 0.0
H796 H 0.62778 0.0655 0.11008 0.0
H797 H 0.55242 0.05947 0.14165 0.0
H798 H 0.59663 0.04037 0.09087 0.0
H799 H 0.52085 0.03624 0.12247 0.0
H800 H 0.45849 0.01468 0.08874 0.0
H801 H 0.50299 0.00261 0.10433 0.0
H802 H 0.55822 0.06376 0.07692 0.0
H803 H 0.51446 0.07369 0.06089 0.0
C804 C 0.60465 0.05846 0.11293 0.0
C805 C 0.592 0.06536 0.12711 0.0
C806 C 0.58685 0.04399 0.10197 0.0
C807 C 0.55591 0.0371 0.10491 0.0
C808 C 0.54455 0.04102 0.11968 0.0
C809 C 0.56254 0.05483 0.1307 0.0
C810 C 0.48053 0.02462 0.08586 0.0
C811 C 0.48312 0.04594 0.07406 0.0
C812 C 0.50597 0.01775 0.09474 0.0
C813 C 0.53387 0.03322 0.09232 0.0
C814 C 0.53719 0.05143 0.07926 0.0
C815 C 0.51197 0.05752 0.07011 0.0
H816 H 0.17971 0.82397 0.10111 0.0
H817 H 0.1761 0.74804 0.13258 0.0
H818 H 0.19505 0.78848 0.08102 0.0
H819 H 0.19053 0.71322 0.11285 0.0
H820 H 0.21433 0.64911 0.08189 0.0
H821 H 0.22863 0.69528 0.09572 0.0
H822 H 0.16807 0.74879 0.06741 0.0
H823 H 0.15563 0.7032 0.05301 0.0
C824 C 0.18223 0.79982 0.10375 0.0
C825 C 0.17631 0.78874 0.11838 0.0
C826 C 0.19126 0.77961 0.0923 0.0
C827 C 0.19454 0.7481 0.09536 0.0
C828 C 0.18927 0.73742 0.11011 0.0
C829 C 0.18035 0.75742 0.12144 0.0
C830 C 0.20539 0.67106 0.07818 0.0
C831 C 0.18315 0.67263 0.06679 0.0
C832 C 0.21342 0.69745 0.08611 0.0
C833 C 0.19823 0.72529 0.08313 0.0
C834 C 0.1799 0.72766 0.07013 0.0
C835 C 0.17261 0.70141 0.06191 0.0
H836 H 0.6192 0.94386 0.34612 0.0
H837 H 0.54956 0.91426 0.31467 0.0
H838 H 0.58027 0.9706 0.36088 0.0
H839 H 0.51057 0.93844 0.3298 0.0
H840 H 0.44023 0.95831 0.36131 0.0
H841 H 0.48114 0.97178 0.34366 0.0
H842 H 0.54846 0.94517 0.3772 0.0
H843 H 0.50812 0.93384 0.39477 0.0
C844 C 0.59558 0.94344 0.34231 0.0
C845 C 0.58699 0.92609 0.32969 0.0
C846 C 0.57329 0.95872 0.3507 0.0
C847 C 0.54205 0.95548 0.34697 0.0
C848 C 0.53423 0.94143 0.3332 0.0
C849 C 0.5566 0.92706 0.32457 0.0
C850 C 0.46388 0.95596 0.36488 0.0
C851 C 0.47112 0.94395 0.37914 0.0
C852 C 0.4873 0.9638 0.35484 0.0
C853 C 0.51819 0.95875 0.35878 0.0
C854 C 0.52515 0.94963 0.37363 0.0
C855 C 0.50186 0.94251 0.38371 0.0
H856 H 0.3206 0.31232 0.5721 0.0
H857 H 0.30917 0.38406 0.60524 0.0
H858 H 0.29359 0.27692 0.58821 0.0
H859 H 0.27993 0.34901 0.6212 0.0
H860 H 0.31042 0.26767 0.652 0.0
H861 H 0.30157 0.31165 0.63611 0.0
H862 H 0.25711 0.25352 0.60302 0.0
H863 H 0.26827 0.20886 0.61871 0.0
C864 C 0.31133 0.32074 0.58267 0.0
C865 C 0.31806 0.35036 0.5878 0.0
C866 C 0.29529 0.30053 0.59188 0.0
C867 C 0.28531 0.30979 0.60631 0.0
C868 C 0.28834 0.34082 0.61042 0.0
C869 C 0.30515 0.36084 0.60135 0.0
C870 C 0.2982 0.2644 0.64146 0.0
C871 C 0.2913 0.23493 0.63617 0.0
C872 C 0.29261 0.28978 0.63238 0.0
C873 C 0.27957 0.28605 0.61795 0.0
C874 C 0.26838 0.25698 0.61378 0.0
C875 C 0.27481 0.23143 0.6227 0.0
H876 H 0.01303 0.00331 0.88262 0.0
H877 H 0.96821 0.06713 0.91261 0.0
H878 H 0.96668 0.00042 0.86728 0.0
H879 H 0.92308 0.06647 0.89681 0.0
H880 H 0.85472 0.0839 0.86304 0.0
H881 H 0.88146 0.05332 0.882 0.0
H882 H 0.95615 0.03947 0.85042 0.0
H883 H 0.92874 0.06821 0.83152 0.0
C884 C 0.99293 0.01612 0.88608 0.0
C885 C 0.99426 0.03631 0.89836 0.0
C886 C 0.96646 0.01459 0.87732 0.0
C887 C 0.94177 0.03447 0.88032 0.0
C888 C 0.94165 0.05106 0.89396 0.0
C889 C 0.96772 0.05173 0.903 0.0
C890 C 0.87669 0.07383 0.86019 0.0
C891 C 0.89021 0.07911 0.84603 0.0
C892 C 0.89191 0.05618 0.87099 0.0
C893 C 0.92122 0.04427 0.8679 0.0
C894 C 0.93348 0.04776 0.85328 0.0
C895 C 0.91801 0.0648 0.84244 0.0
H896 H 0.77573 0.76342 0.63819 0.0
H897 H 0.84612 0.80809 0.61173 0.0
H898 H 0.76853 0.72569 0.61824 0.0
H899 H 0.83986 0.76965 0.59202 0.0
H900 H 0.82759 0.69698 0.55846 0.0
H901 H 0.81073 0.74159 0.57292 0.0
H902 H 0.80413 0.68501 0.61295 0.0
H903 H 0.82018 0.64073 0.59857 0.0
C904 C 0.78941 0.76532 0.62801 0.0
C905 C 0.81211 0.78799 0.62661 0.0
C906 C 0.78519 0.74385 0.61658 0.0
C907 C 0.80405 0.74435 0.60373 0.0
C908 C 0.82484 0.76874 0.60176 0.0
C909 C 0.82869 0.79057 0.6131 0.0
C910 C 0.8217 0.694 0.57026 0.0
C911 C 0.82587 0.66559 0.57751 0.0
C912 C 0.81214 0.71952 0.57852 0.0
C913 C 0.80647 0.71687 0.59408 0.0
C914 C 0.80804 0.68783 0.60095 0.0
C915 C 0.81764 0.66245 0.59274 0.0
H916 H 0.91994 0.05703 0.3575 0.0
H917 H 3e-05 0.06378 0.38609 0.0
H918 H 0.9519 0.03779 0.33693 0.0
H919 H 0.03185 0.04575 0.36564 0.0
H920 H 0.09112 0.02035 0.33289 0.0
H921 H 0.04773 0.0065 0.34886 0.0
H922 H 0.9882 0.06188 0.32086 0.0
H923 H 0.03096 0.07378 0.30446 0.0
C924 C 0.94437 0.05453 0.35935 0.0
C925 C 0.95766 0.06247 0.37328 0.0
C926 C 0.96258 0.04321 0.34764 0.0
C927 C 0.99439 0.03992 0.34963 0.0
C928 C 0.00734 0.04707 0.36376 0.0
C929 C 0.98918 0.05806 0.37545 0.0
C930 C 0.06837 0.02805 0.32972 0.0
C931 C 0.06438 0.04904 0.31789 0.0
C932 C 0.04358 0.02034 0.3389 0.0
C933 C 0.01501 0.0346 0.33661 0.0
C934 C 0.01 0.05092 0.32313 0.0
C935 C 0.03463 0.05788 0.3137 0.0
H936 H 0.64737 0.36876 0.11291 0.0
H937 H 0.69393 0.33373 0.07338 0.0
H938 H 0.66954 0.32821 0.12798 0.0
H939 H 0.71696 0.29338 0.08867 0.0
H940 H 0.67349 0.20409 0.11053 0.0
H941 H 0.68521 0.2509 0.09696 0.0
H942 H 0.70849 0.29577 0.13898 0.0
H943 H 0.6959 0.24895 0.15266 0.0
C944 C 0.66318 0.353 0.10754 0.0
C945 C 0.66781 0.35345 0.09187 0.0
C946 C 0.6763 0.32993 0.11624 0.0
C947 C 0.69432 0.30711 0.10938 0.0
C948 C 0.7025 0.31028 0.09413 0.0
C949 C 0.68916 0.33323 0.08538 0.0
C950 C 0.68168 0.22373 0.11684 0.0
C951 C 0.6826 0.22332 0.13266 0.0
C952 C 0.68892 0.25048 0.10905 0.0
C953 C 0.69735 0.27717 0.11697 0.0
C954 C 0.70153 0.27566 0.13265 0.0
C955 C 0.69404 0.24897 0.14046 0.0
H956 H 0.45273 0.90753 0.80706 0.0
H957 H 0.39056 0.95818 0.83564 0.0
H958 H 0.49566 0.9241 0.82235 0.0
H959 H 0.43393 0.9771 0.85034 0.0
H960 H 0.49077 0.93019 0.88758 0.0
H961 H 0.45567 0.9434 0.8678 0.0
H962 H 0.53133 0.95297 0.83643 0.0
H963 H 0.56699 0.93839 0.85654 0.0
C964 C 0.44851 0.92357 0.81618 0.0
C965 C 0.41849 0.9307 0.82065 0.0
C966 C 0.4732 0.93335 0.8249 0.0
C967 C 0.46803 0.95082 0.83799 0.0
C968 C 0.43842 0.96249 0.8407 0.0
C969 C 0.41362 0.9518 0.83231 0.0
C970 C 0.50013 0.93537 0.87653 0.0
C971 C 0.53159 0.93253 0.87353 0.0
C972 C 0.47993 0.94361 0.86516 0.0
C973 C 0.49061 0.94949 0.85046 0.0
C974 C 0.52236 0.94833 0.84761 0.0
C975 C 0.54271 0.93977 0.85906 0.0
H976 H 0.77305 0.21548 0.84993 0.0
H977 H 0.83132 0.26907 0.82059 0.0
H978 H 0.76361 0.26069 0.86545 0.0
H979 H 0.82418 0.3134 0.83653 0.0
H980 H 0.82866 0.38482 0.86875 0.0
H981 H 0.80256 0.35291 0.85014 0.0
H982 H 0.79791 0.27916 0.88292 0.0
H983 H 0.82186 0.31158 0.90149 0.0
C984 C 0.78353 0.2371 0.84676 0.0
C985 C 0.80374 0.23884 0.83449 0.0
C986 C 0.77815 0.26296 0.85559 0.0
C987 C 0.79406 0.29041 0.85263 0.0
C988 C 0.81146 0.2928 0.83927 0.0
C989 C 0.816 0.26722 0.83019 0.0
C990 C 0.82133 0.36196 0.87196 0.0
C991 C 0.82814 0.35012 0.88631 0.0
C992 C 0.80633 0.34374 0.86136 0.0
C993 C 0.79893 0.31311 0.86483 0.0
C994 C 0.80301 0.30259 0.87973 0.0
C995 C 0.81727 0.32105 0.8904 0.0
H996 H 0.48826 0.03961 0.5677 0.0
H997 H 0.53581 0.06141 0.60924 0.0
H998 H 0.44096 0.03184 0.58175 0.0
H999 H 0.48851 0.05371 0.62319 0.0
H1000 H 0.40463 0.049 0.64684 0.0
H1001 H 0.4425 0.02304 0.63123 0.0
H1002 H 0.41465 0.0779 0.59293 0.0
H1003 H 0.37666 0.10368 0.60843 0.0
C1004 C 0.48882 0.04204 0.57985 0.0
C1005 C 0.51538 0.05232 0.58735 0.0
C1006 C 0.4618 0.03729 0.58787 0.0
C1007 C 0.46107 0.04262 0.60345 0.0
C1008 C 0.48848 0.0493 0.61116 0.0
C1009 C 0.51548 0.05417 0.60314 0.0
C1010 C 0.40611 0.055 0.63499 0.0
C1011 C 0.38872 0.07925 0.62894 0.0
C1012 C 0.42751 0.03988 0.62606 0.0
C1013 C 0.4318 0.04892 0.61103 0.0
C1014 C 0.41173 0.07042 0.60451 0.0
C1015 C 0.39026 0.08552 0.61343 0.0
H1016 H 0.71943 0.75312 0.32878 0.0
H1017 H 0.66455 0.79751 0.36308 0.0
H1018 H 0.73001 0.71098 0.34606 0.0
H1019 H 0.67453 0.75513 0.38019 0.0
H1020 H 0.68398 0.67667 0.40825 0.0
H1021 H 0.7068 0.71979 0.39482 0.0
H1022 H 0.69051 0.6735 0.3524 0.0
H1023 H 0.66832 0.63041 0.36573 0.0
C1024 C 0.71003 0.75411 0.3401 0.0
C1025 C 0.6902 0.77794 0.34446 0.0
C1026 C 0.71633 0.73013 0.35 0.0
C1027 C 0.70264 0.72951 0.36433 0.0
C1028 C 0.68557 0.75501 0.36923 0.0
C1029 C 0.67945 0.77913 0.35936 0.0
C1030 C 0.68608 0.67535 0.39609 0.0
C1031 C 0.67325 0.65077 0.38796 0.0
C1032 C 0.69927 0.69998 0.38843 0.0
C1033 C 0.69976 0.70029 0.37259 0.0
C1034 C 0.6905 0.67397 0.36463 0.0
C1035 C 0.67735 0.64938 0.37227 0.0
H1036 H 0.04226 0.90667 0.16478 0.0
H1037 H 0.08567 0.92919 0.12225 0.0
H1038 H 0.99222 0.91899 0.154 0.0
H1039 H 0.03591 0.94151 0.11158 0.0
H1040 H 0.9502 0.96368 0.09284 0.0
H1041 H 0.98857 0.97358 0.11225 0.0
H1042 H 0.96549 0.8875 0.13373 0.0
H1043 H 0.92635 0.87814 0.11446 0.0
C1044 C 0.04123 0.91511 0.15327 0.0
C1045 C 0.06774 0.91646 0.14421 0.0
C1046 C 0.0126 0.92211 0.14716 0.0
C1047 C 0.01024 0.93104 0.13199 0.0
C1048 C 0.03708 0.935 0.12338 0.0
C1049 C 0.06558 0.92764 0.12942 0.0
C1050 C 0.95264 0.94749 0.10206 0.0
C1051 C 0.93617 0.91984 0.10211 0.0
C1052 C 0.97443 0.95319 0.11315 0.0
C1053 C 0.98039 0.93099 0.12422 0.0
C1054 C 0.96125 0.90503 0.12531 0.0
C1055 C 0.93904 0.89952 0.11427 0.0
H1056 H 0.65873 0.79626 0.91764 0.0
H1057 H 0.67385 0.84494 0.87571 0.0
H1058 H 0.67602 0.74876 0.90577 0.0
H1059 H 0.69059 0.79782 0.8639 0.0
H1060 H 0.71801 0.71589 0.84258 0.0
H1061 H 0.72561 0.75482 0.86193 0.0
H1062 H 0.6477 0.71904 0.88656 0.0
H1063 H 0.64099 0.67929 0.86745 0.0
C1064 C 0.66648 0.79698 0.90602 0.0
C1065 C 0.6643 0.82408 0.89745 0.0
C1066 C 0.67632 0.76981 0.89926 0.0
C1067 C 0.68436 0.76952 0.88391 0.0
C1068 C 0.68484 0.79728 0.8758 0.0
C1069 C 0.67486 0.82428 0.88251 0.0
C1070 C 0.7031 0.7159 0.85238 0.0
C1071 C 0.67836 0.6954 0.85341 0.0
C1072 C 0.70752 0.73803 0.86345 0.0
C1073 C 0.6868 0.74041 0.87552 0.0
C1074 C 0.6641 0.71772 0.87739 0.0
C1075 C 0.66003 0.69515 0.86641 0.0
H1076 H 0.39467 0.42498 0.15068 0.0
H1077 H 0.36981 0.36689 0.11301 0.0
H1078 H 0.43456 0.44883 0.13547 0.0
H1079 H 0.41 0.39075 0.09784 0.0
H1080 H 0.47872 0.44367 0.07208 0.0
H1081 H 0.43121 0.43934 0.08632 0.0
H1082 H 0.48318 0.42302 0.12708 0.0
H1083 H 0.53085 0.42738 0.11291 0.0
C1084 C 0.39743 0.41761 0.13908 0.0
C1085 C 0.3797 0.39352 0.1331 0.0
C1086 C 0.42018 0.43136 0.1304 0.0
C1087 C 0.4255 0.42132 0.11562 0.0
C1088 C 0.40616 0.39901 0.10922 0.0
C1089 C 0.38332 0.38521 0.11792 0.0
C1090 C 0.48009 0.43975 0.08413 0.0
C1091 C 0.5085 0.43514 0.09135 0.0
C1092 C 0.45288 0.43731 0.09224 0.0
C1093 C 0.45365 0.43052 0.10769 0.0
C1094 C 0.48204 0.42847 0.11516 0.0
C1095 C 0.5093 0.43076 0.10703 0.0
H1096 H 0.79321 0.12749 0.37866 0.0
H1097 H 0.82848 0.19684 0.40884 0.0
H1098 H 0.77142 0.1674 0.36262 0.0
H1099 H 0.80875 0.23659 0.39246 0.0
H1100 H 0.79106 0.30485 0.35791 0.0
H1101 H 0.77702 0.26693 0.37701 0.0
H1102 H 0.80491 0.19436 0.34659 0.0
H1103 H 0.81751 0.23186 0.32755 0.0
C1104 C 0.79559 0.15128 0.38202 0.0
C1105 C 0.81346 0.15936 0.39455 0.0
C1106 C 0.78316 0.17409 0.37288 0.0
C1107 C 0.78966 0.2051 0.37588 0.0
C1108 C 0.80353 0.21297 0.38968 0.0
C1109 C 0.81517 0.19014 0.39904 0.0
C1110 C 0.79385 0.28071 0.35534 0.0
C1111 C 0.80613 0.2712 0.34144 0.0
C1112 C 0.78556 0.25904 0.3662 0.0
C1113 C 0.78992 0.22762 0.36339 0.0
C1114 C 0.80057 0.21827 0.34912 0.0
C1115 C 0.80842 0.23983 0.33824 0.0
H1116 H 0.92262 0.54574 0.6114 0.0
H1117 H -0.00014 0.56252 0.58185 0.0
H1118 H 0.95784 0.53089 0.63158 0.0
H1119 H 0.03464 0.5491 0.60186 0.0
H1120 H 0.03155 0.57454 0.66434 0.0
H1121 H 0.99078 0.55973 0.64722 0.0
H1122 H 0.05711 0.51421 0.61858 0.0
H1123 H 0.09819 0.53132 0.63526 0.0
C1124 C 0.94707 0.54616 0.60921 0.0
C1125 C 0.95854 0.55586 0.59516 0.0
C1126 C 0.9672 0.53751 0.62072 0.0
C1127 C -0.0009 0.53875 0.61839 0.0
C1128 C 0.01029 0.54708 0.60406 0.0
C1129 C 0.99027 0.55537 0.59258 0.0
C1130 C 0.03721 0.56042 0.65466 0.0
C1131 C 0.06786 0.55486 0.65074 0.0
C1132 C 0.01379 0.55171 0.64485 0.0
C1133 C 0.02087 0.53684 0.63119 0.0
C1134 C 0.05113 0.52678 0.62871 0.0
C1135 C 0.07462 0.53637 0.63826 0.0
H1136 H 0.66992 0.18941 0.57047 0.0
H1137 H 0.68104 0.11696 0.60329 0.0
H1138 H 0.69637 0.22459 0.58683 0.0
H1139 H 0.71007 0.15168 0.61948 0.0
H1140 H 0.67809 0.23074 0.65089 0.0
H1141 H 0.68797 0.18782 0.63456 0.0
H1142 H 0.73101 0.24865 0.60207 0.0
H1143 H 0.71858 0.29226 0.61822 0.0
C1144 C 0.67903 0.18083 0.58104 0.0
C1145 C 0.67231 0.15111 0.58603 0.0
C1146 C 0.69479 0.20089 0.5904 0.0
C1147 C 0.70451 0.19134 0.60482 0.0
C1148 C 0.7017 0.16015 0.60875 0.0
C1149 C 0.68502 0.14031 0.59956 0.0
C1150 C 0.69007 0.23484 0.64034 0.0
C1151 C 0.69628 0.2647 0.63538 0.0
C1152 C 0.69634 0.21007 0.63102 0.0
C1153 C 0.7094 0.21479 0.61666 0.0
C1154 C 0.71971 0.24438 0.61276 0.0
C1155 C 0.71252 0.26933 0.62192 0.0
H1156 H 0.12242 0.36503 0.86867 0.0
H1157 H 0.10338 0.43452 0.83504 0.0
H1158 H 0.08551 0.38891 0.8856 0.0
H1159 H 0.06685 0.45861 0.85209 0.0
H1160 H 0.96831 0.43527 0.87168 0.0
H1161 H 0.01664 0.43473 0.8581 0.0
H1162 H 0.06614 0.43372 0.90039 0.0
H1163 H 0.01766 0.434 0.91408 0.0
C1164 C 0.111 0.38587 0.86507 0.0
C1165 C 0.11492 0.39734 0.8504 0.0
C1166 C 0.09012 0.39974 0.87481 0.0
C1167 C 0.07307 0.42532 0.87 0.0
C1168 C 0.0794 0.43861 0.85593 0.0
C1169 C 0.10013 0.42469 0.84617 0.0
C1170 C 0.98947 0.43564 0.8781 0.0
C1171 C 0.98922 0.43382 0.8939 0.0
C1172 C 0.01719 0.4357 0.87033 0.0
C1173 C 0.04506 0.43387 0.87825 0.0
C1174 C 0.04489 0.43483 0.89407 0.0
C1175 C 0.01713 0.43494 0.90186 0.0
H1176 H 0.77944 0.83935 0.08008 0.0
H1177 H 0.84381 0.78544 0.05429 0.0
H1178 H 0.76683 0.79437 0.09526 0.0
H1179 H 0.83308 0.74117 0.07008 0.0
H1180 H 0.82313 0.67013 0.106 0.0
H1181 H 0.80742 0.7018 0.08448 0.0
H1182 H 0.80408 0.78117 0.11375 0.0
H1183 H 0.81882 0.74998 0.13491 0.0
C1184 C 0.78998 0.81754 0.07732 0.0
C1185 C 0.81313 0.81582 0.0664 0.0
C1186 C 0.78295 0.79186 0.08603 0.0
C1187 C 0.80011 0.76474 0.08434 0.0
C1188 C 0.81968 0.76179 0.07181 0.0
C1189 C 0.82596 0.78725 0.06277 0.0
C1190 C 0.81878 0.69435 0.10777 0.0
C1191 C 0.82262 0.70766 0.12211 0.0
C1192 C 0.80956 0.71236 0.09549 0.0
C1193 C 0.80404 0.74391 0.09741 0.0
C1194 C 0.80715 0.7568 0.11187 0.0
C1195 C 0.81624 0.73895 0.12403 0.0
H1196 H 0.54525 0.57227 0.35507 0.0
H1197 H 0.49765 0.5249 0.39107 0.0
H1198 H 0.50247 0.56186 0.33819 0.0
H1199 H 0.45513 0.51408 0.37411 0.0
H1200 H 0.37861 0.5773 0.35132 0.0
H1201 H 0.42035 0.55585 0.36597 0.0
H1202 H 0.46566 0.52709 0.32493 0.0
H1203 H 0.42388 0.54877 0.31016 0.0
C1204 C 0.52605 0.55892 0.35924 0.0
C1205 C 0.52414 0.55043 0.37447 0.0
C1206 C 0.50172 0.55257 0.34954 0.0
C1207 C 0.47535 0.53753 0.35497 0.0
C1208 C 0.47504 0.52609 0.36975 0.0
C1209 C 0.49923 0.53258 0.37946 0.0
C1210 C 0.397 0.56562 0.34542 0.0
C1211 C 0.39862 0.56578 0.32961 0.0
C1212 C 0.42077 0.55297 0.35382 0.0
C1213 C 0.44647 0.54038 0.34651 0.0
C1214 C 0.44626 0.53714 0.33077 0.0
C1215 C 0.42241 0.54969 0.32235 0.0
H1216 H 0.27007 0.26769 0.11925 0.0
H1217 H 0.28211 0.21161 0.15912 0.0
H1218 H 0.27119 0.22229 0.10366 0.0
H1219 H 0.28257 0.16573 0.14343 0.0
H1220 H 0.35849 0.12779 0.10969 0.0
H1221 H 0.32775 0.15489 0.12824 0.0
H1222 H 0.25833 0.1722 0.09438 0.0
H1223 H 0.28977 0.14598 0.07567 0.0
C1224 C 0.27188 0.24552 0.12473 0.0
C1225 C 0.27743 0.24322 0.14028 0.0
C1226 C 0.27209 0.21934 0.1158 0.0
C1227 C 0.27794 0.1905 0.12232 0.0
C1228 C 0.27879 0.18781 0.13812 0.0
C1229 C 0.27856 0.21408 0.14708 0.0
C1230 C 0.33643 0.13692 0.1063 0.0
C1231 C 0.32702 0.13598 0.09118 0.0
C1232 C 0.3185 0.15201 0.11697 0.0
C1233 C 0.29077 0.16608 0.11268 0.0
C1234 C 0.27986 0.16207 0.09791 0.0
C1235 C 0.298 0.14739 0.0872 0.0
H1236 H 0.50153 0.56913 0.89042 0.0
H1237 H 0.42622 0.5564 0.85923 0.0
H1238 H 0.53728 0.55386 0.8713 0.0
H1239 H 0.46266 0.53997 0.83979 0.0
H1240 H 0.54311 0.58304 0.81021 0.0
H1241 H 0.49926 0.56792 0.82526 0.0
H1242 H 0.55908 0.51699 0.85512 0.0
H1243 H 0.60337 0.5343 0.84057 0.0
C1244 C 0.49251 0.56261 0.87949 0.0
C1245 C 0.46107 0.56463 0.87624 0.0
C1246 C 0.51309 0.55316 0.86852 0.0
C1247 C 0.50288 0.54532 0.85398 0.0
C1248 C 0.47123 0.54596 0.85088 0.0
C1249 C 0.45045 0.55561 0.86194 0.0
C1250 C 0.54676 0.5677 0.81968 0.0
C1251 C 0.57651 0.56082 0.82469 0.0
C1252 C 0.52152 0.55875 0.82826 0.0
C1253 C 0.5259 0.54242 0.84178 0.0
C1254 C 0.55524 0.53072 0.84509 0.0
C1255 C 0.58056 0.54053 0.83679 0.0
H1256 H 0.16528 0.66703 0.61322 0.0
H1257 H 0.14906 0.74135 0.64455 0.0
H1258 H 0.17682 0.70435 0.59334 0.0
H1259 H 0.1596 0.77817 0.62485 0.0
H1260 H 0.18922 0.84344 0.59303 0.0
H1261 H 0.19907 0.79943 0.60933 0.0
H1262 H 0.14823 0.74136 0.57864 0.0
H1263 H 0.14007 0.78501 0.56198 0.0
C1264 C 0.16404 0.69127 0.61583 0.0
C1265 C 0.15619 0.70134 0.6304 0.0
C1266 C 0.17082 0.71257 0.6045 0.0
C1267 C 0.1697 0.74416 0.60759 0.0
C1268 C 0.16173 0.75401 0.62218 0.0
C1269 C 0.15521 0.73287 0.63345 0.0
C1270 C 0.18127 0.82097 0.58954 0.0
C1271 C 0.16335 0.81752 0.57652 0.0
C1272 C 0.18671 0.79586 0.59886 0.0
C1273 C 0.17341 0.76726 0.59552 0.0
C1274 C 0.15868 0.76312 0.58156 0.0
C1275 C 0.1539 0.78814 0.57203 0.0
H1276 H 0.00674 0.45832 0.38995 0.0
H1277 H 0.05406 0.40032 0.35795 0.0
H1278 H 0.96546 0.46608 0.37185 0.0
H1279 H 0.01231 0.40726 0.34002 0.0
H1280 H 0.88366 0.41069 0.35077 0.0
H1281 H 0.92763 0.42786 0.36513 0.0
H1282 H 0.97958 0.439 0.32387 0.0
H1283 H 0.93554 0.42109 0.3094 0.0
C1284 C 0.00843 0.44749 0.37897 0.0
C1285 C 0.03306 0.42799 0.37545 0.0
C1286 C 0.98491 0.45208 0.36861 0.0
C1287 C 0.98544 0.43689 0.35466 0.0
C1288 C 0.01137 0.41948 0.35066 0.0
C1289 C 0.03512 0.41519 0.36097 0.0
C1290 C 0.9042 0.41744 0.3447 0.0
C1291 C 0.90646 0.41369 0.32901 0.0
C1292 C 0.92934 0.42764 0.35293 0.0
C1293 C 0.95717 0.43435 0.34561 0.0
C1294 C 0.9585 0.43347 0.32979 0.0
C1295 C 0.93329 0.42325 0.32152 0.0
H1296 H 0.33241 0.80112 0.40151 0.0
H1297 H 0.31122 0.87137 0.3687 0.0
H1298 H 0.31315 0.76225 0.38454 0.0
H1299 H 0.28971 0.83258 0.35194 0.0
H1300 H 0.32479 0.75739 0.31943 0.0
H1301 H 0.31753 0.7988 0.33711 0.0
H1302 H 0.27897 0.73508 0.36956 0.0
H1303 H 0.28818 0.69304 0.35194 0.0
C1304 C 0.3225 0.8083 0.39085 0.0
C1305 C 0.32414 0.83895 0.38613 0.0
C1306 C 0.31108 0.78602 0.38114 0.0
C1307 C 0.30058 0.79418 0.36666 0.0
C1308 C 0.29865 0.82544 0.3628 0.0
C1309 C 0.31087 0.84764 0.37236 0.0
C1310 C 0.31438 0.75229 0.33027 0.0
C1311 C 0.30785 0.72203 0.33454 0.0
C1312 C 0.30973 0.77616 0.34037 0.0
C1313 C 0.29791 0.77029 0.35488 0.0
C1314 C 0.28882 0.74025 0.35862 0.0
C1315 C 0.29414 0.71621 0.34858 0.0
H1316 H 0.91251 0.56718 0.13013 0.0
H1317 H 0.96072 0.59672 0.17024 0.0
H1318 H 0.96082 0.55289 0.11862 0.0
H1319 H 0.00942 0.58215 0.15866 0.0
H1320 H 0.07074 0.61752 0.1166 0.0
H1321 H 0.03408 0.60998 0.13718 0.0
H1322 H 0.00798 0.52241 0.11819 0.0
H1323 H 0.04366 0.5307 0.09738 0.0
C1324 C 0.93339 0.56982 0.13663 0.0
C1325 C 0.93297 0.58368 0.15089 0.0
C1326 C 0.96111 0.5613 0.13013 0.0
C1327 C 0.98892 0.56666 0.13774 0.0
C1328 C 0.98829 0.57801 0.15255 0.0
C1329 C 0.96044 0.58629 0.15914 0.0
C1330 C 0.05785 0.59629 0.11719 0.0
C1331 C 0.05904 0.57509 0.10535 0.0
C1332 C 0.03709 0.59177 0.129 0.0
C1333 C 0.01775 0.56587 0.12904 0.0
C1334 C 0.02218 0.54282 0.11822 0.0
C1335 C 0.04243 0.54761 0.10633 0.0
H1336 H 0.19336 0.21472 0.81352 0.0
H1337 H 0.21215 0.25821 0.85643 0.0
H1338 H 0.18938 0.16517 0.82614 0.0
H1339 H 0.20798 0.20901 0.86895 0.0
H1340 H 0.1145 0.12328 0.86024 0.0
H1341 H 0.14427 0.15364 0.84236 0.0
H1342 H 0.22057 0.15504 0.87354 0.0
H1343 H 0.19049 0.12543 0.89157 0.0
C1344 C 0.19764 0.21359 0.82556 0.0
C1345 C 0.20193 0.24041 0.83413 0.0
C1346 C 0.1954 0.18521 0.83274 0.0
C1347 C 0.19768 0.1834 0.84851 0.0
C1348 C 0.2061 0.20964 0.85675 0.0
C1349 C 0.20813 0.23797 0.84961 0.0
C1350 C 0.13787 0.12949 0.86309 0.0
C1351 C 0.14983 0.12322 0.87743 0.0
C1352 C 0.15512 0.14648 0.85279 0.0
C1353 C 0.18457 0.15708 0.85672 0.0
C1354 C 0.19774 0.14758 0.87038 0.0
C1355 C 0.18041 0.13096 0.88071 0.0
H1356 H 0.49918 0.46921 0.57535 0.0
H1357 H 0.45199 0.43451 0.61484 0.0
H1358 H 0.54517 0.47742 0.59035 0.0
H1359 H 0.49801 0.44261 0.62975 0.0
H1360 H 0.61364 0.40412 0.61304 0.0
H1361 H 0.57409 0.43077 0.59894 0.0
H1362 H 0.54196 0.47367 0.63998 0.0
H1363 H 0.5815 0.4469 0.6542 0.0
C1364 C 0.49839 0.464 0.58731 0.0
C1365 C 0.4725 0.44998 0.59385 0.0
C1366 C 0.52462 0.46904 0.59588 0.0
C1367 C 0.52524 0.46011 0.61107 0.0
C1368 C 0.49812 0.44979 0.61804 0.0
C1369 C 0.47186 0.44473 0.60946 0.0
C1370 C 0.59874 0.41989 0.619 0.0
C1371 C 0.59977 0.42245 0.63476 0.0
C1372 C 0.57633 0.43553 0.6109 0.0
C1373 C 0.55471 0.45383 0.61849 0.0
C1374 C 0.55817 0.45934 0.63397 0.0
C1375 C 0.5806 0.44375 0.64207 0.0
H1376 H 0.02233 0.15551 0.28604 0.0
H1377 H 0.08138 0.2337 0.27939 0.0
H1378 H 0.97749 0.18832 0.28356 0.0
H1379 H 0.03685 0.26642 0.2756 0.0
H1380 H 0.95436 0.32383 0.29009 0.0
H1381 H -0.00042 0.29149 0.28822 0.0
H1382 H 0.94336 0.21755 0.27086 0.0
H1383 H 0.89801 0.24944 0.274 0.0
C1384 C 0.02564 0.17962 0.28352 0.0
C1385 C 0.05529 0.19207 0.28296 0.0
C1386 C -0.00014 0.19863 0.28203 0.0
C1387 C 0.00307 0.23051 0.27953 0.0
C1388 C 0.03302 0.24238 0.27801 0.0
C1389 C 0.05872 0.22353 0.27996 0.0
C1390 C 0.95184 0.30078 0.28569 0.0
C1391 C 0.92266 0.28913 0.28227 0.0
C1392 C 0.97789 0.28207 0.28452 0.0
C1393 C 0.97558 0.2514 0.27948 0.0
C1394 C 0.94635 0.24052 0.27523 0.0
C1395 C 0.92024 0.25896 0.27684 0.0
H1396 H 0.99335 0.65644 0.54234 0.0
H1397 H 0.91162 0.70383 0.52757 0.0
H1398 H 0.02265 0.70363 0.53997 0.0
H1399 H 0.94127 0.75125 0.52499 0.0
H1400 H -0.00453 0.83392 0.54544 0.0
H1401 H 0.96531 0.78731 0.5426 0.0
H1402 H 0.04334 0.74181 0.52258 0.0
H1403 H 0.07383 0.78846 0.52563 0.0
C1404 C 0.98167 0.67685 0.53838 0.0
C1405 C 0.95001 0.67632 0.53526 0.0
C1406 C -0.00141 0.70393 0.53691 0.0
C1407 C 0.98435 0.73132 0.53233 0.0
C1408 C 0.95289 0.73062 0.5287 0.0
C1409 C 0.93593 0.7034 0.53009 0.0
C1410 C 0.00619 0.81412 0.54027 0.0
C1411 C 0.03723 0.81493 0.5359 0.0
C1412 C 0.98875 0.7874 0.53854 0.0
C1413 C 0.0019 0.76071 0.53243 0.0
C1414 C 0.03261 0.76185 0.52751 0.0
C1415 C 0.05005 0.78866 0.52918 0.0
H1416 H 0.45977 0.82928 0.79553 0.0
H1417 H 0.4064 0.74904 0.7847 0.0
H1418 H 0.50618 0.79857 0.79594 0.0
H1419 H 0.45297 0.71842 0.78356 0.0
H1420 H 0.53588 0.66238 0.79724 0.0
H1421 H 0.48958 0.69316 0.79582 0.0
H1422 H 0.54471 0.77316 0.78529 0.0
H1423 H 0.59091 0.74248 0.78826 0.0
C1424 C 0.45817 0.80508 0.79284 0.0
C1425 C 0.4295 0.79154 0.79011 0.0
C1426 C 0.48495 0.78728 0.79294 0.0
C1427 C 0.48402 0.7555 0.78981 0.0
C1428 C 0.45512 0.74239 0.7865 0.0
C1429 C 0.42824 0.76003 0.78695 0.0
C1430 C 0.53793 0.68658 0.79459 0.0
C1431 C 0.56697 0.70005 0.7929 0.0
C1432 C 0.51124 0.7044 0.79363 0.0
C1433 C 0.51271 0.73615 0.79042 0.0
C1434 C 0.54207 0.74922 0.78822 0.0
C1435 C 0.56878 0.73155 0.78973 0.0
H1436 H 0.48553 0.16552 0.03234 0.0
H1437 H 0.40964 0.21851 0.04969 0.0
H1438 H 0.51743 0.21116 0.03197 0.0
H1439 H 0.44203 0.26431 0.04982 0.0
H1440 H 0.4998 0.34698 0.03657 0.0
H1441 H 0.46739 0.30164 0.03487 0.0
H1442 H 0.54417 0.2449 0.04801 0.0
H1443 H 0.57684 0.29025 0.04921 0.0
C1444 C 0.4756 0.18695 0.03613 0.0
C1445 C 0.44491 0.18821 0.04109 0.0
C1446 C 0.49408 0.2132 0.03603 0.0
C1447 C 0.4826 0.24161 0.04099 0.0
C1448 C 0.45171 0.24301 0.04574 0.0
C1449 C 0.43308 0.21668 0.04573 0.0
C1450 C 0.50989 0.3248 0.03897 0.0
C1451 C 0.54105 0.32236 0.04301 0.0
C1452 C 0.49115 0.29873 0.03812 0.0
C1453 C 0.50291 0.2694 0.04139 0.0
C1454 C 0.53424 0.26694 0.0452 0.0
C1455 C 0.55307 0.29303 0.04593 0.0
H1456 H 0.91209 0.75474 0.17797 0.0
H1457 H 0.95601 0.67629 0.19856 0.0
H1458 H 0.95935 0.78408 0.18052 0.0
H1459 H 0.00334 0.70589 0.20123 0.0
H1460 H 0.08843 0.75264 0.17845 0.0
H1461 H 0.04091 0.72458 0.18254 0.0
H1462 H -0.0029 0.80772 0.19792 0.0
H1463 H 0.0449 0.83606 0.19371 0.0
C1464 C 0.93167 0.74387 0.18328 0.0
C1465 C 0.93028 0.713 0.18792 0.0
C1466 C 0.95875 0.76082 0.18484 0.0
C1467 C 0.98522 0.74729 0.19099 0.0
C1468 C 0.98344 0.71688 0.19628 0.0
C1469 C 0.95625 0.69997 0.19483 0.0
C1470 C 0.06884 0.76492 0.18292 0.0
C1471 C 0.07044 0.79667 0.18564 0.0
C1472 C 0.0416 0.74873 0.18537 0.0
C1473 C 0.01512 0.7639 0.19049 0.0
C1474 C 0.01703 0.79543 0.19383 0.0
C1475 C 0.04447 0.81161 0.19153 0.0
H1476 H 0.4129 0.78455 0.43584 0.0
H1477 H 0.49353 0.83391 0.42108 0.0
H1478 H 0.44313 0.73737 0.43729 0.0
H1479 H 0.52332 0.78694 0.42218 0.0
H1480 H 0.57645 0.70211 0.43623 0.0
H1481 H 0.54607 0.74906 0.43827 0.0
H1482 H 0.46704 0.70105 0.42072 0.0
H1483 H 0.49699 0.65423 0.41904 0.0
C1484 C 0.43704 0.78542 0.43296 0.0
C1485 C 0.45063 0.81314 0.42831 0.0
C1486 C 0.45438 0.75829 0.4337 0.0
C1487 C 0.48578 0.75818 0.42982 0.0
C1488 C 0.49941 0.78607 0.42547 0.0
C1489 C 0.48214 0.81308 0.42473 0.0
C1490 C 0.55253 0.70151 0.43293 0.0
C1491 C 0.53932 0.67427 0.42744 0.0
C1492 C 0.5351 0.72852 0.43401 0.0
C1493 C 0.50399 0.72902 0.42963 0.0
C1494 C 0.49072 0.7016 0.42442 0.0
C1495 C 0.50808 0.67468 0.42334 0.0
H1496 H 0.53322 0.33237 0.67261 0.0
H1497 H 0.58734 0.25336 0.6849 0.0
H1498 H 0.48715 0.30043 0.67232 0.0
H1499 H 0.54146 0.22177 0.68537 0.0
H1500 H 0.45946 0.16474 0.66969 0.0
H1501 H 0.50543 0.19676 0.6707 0.0
H1502 H 0.4505 0.27344 0.68576 0.0
H1503 H 0.40474 0.24189 0.684 0.0
C1504 C 0.5352 0.30831 0.67553 0.0
C1505 C 0.56406 0.29551 0.67872 0.0
C1506 C 0.5087 0.28985 0.67542 0.0
C1507 C 0.51023 0.25813 0.67873 0.0
C1508 C 0.53911 0.24573 0.68237 0.0
C1509 C 0.56555 0.26403 0.68225 0.0
C1510 C 0.4573 0.18839 0.67329 0.0
C1511 C 0.42831 0.20066 0.6767 0.0
C1512 C 0.48375 0.20687 0.67394 0.0
C1513 C 0.48205 0.23806 0.67826 0.0
C1514 C 0.45301 0.24994 0.68202 0.0
C1515 C 0.42662 0.23164 0.68115 0.0
H1516 H -0.00072 0.14981 0.94233 0.0
H1517 H 0.07327 0.20134 0.92205 0.0
H1518 H 0.96876 0.19645 0.94415 0.0
H1519 H 0.04241 0.24786 0.92345 0.0
H1520 H 0.99148 0.33212 0.9396 0.0
H1521 H 0.02173 0.28529 0.93977 0.0
H1522 H 0.94029 0.23255 0.92976 0.0
H1523 H 0.90978 0.27955 0.93004 0.0
C1524 C 0.0091 0.17108 0.93824 0.0
C1525 C 0.0389 0.17164 0.93206 0.0
C1526 C 0.99141 0.19791 0.93918 0.0
C1527 C 0.00287 0.2262 0.93393 0.0
C1528 C 0.0328 0.22676 0.92785 0.0
C1529 C 0.05056 0.19994 0.92697 0.0
C1530 C 0.97988 0.31054 0.93754 0.0
C1531 C 0.94805 0.30979 0.93478 0.0
C1532 C -0.00262 0.28356 0.93751 0.0
C1533 C 0.98372 0.25488 0.93463 0.0
C1534 C 0.95173 0.25404 0.93219 0.0
C1535 C 0.93415 0.28109 0.9323 0.0
H1536 H 0.07406 0.72529 0.70151 0.0
H1537 H 0.02157 0.65082 0.68263 0.0
H1538 H 0.02773 0.75608 0.70359 0.0
H1539 H 0.97549 0.68225 0.68333 0.0
H1540 H 0.95138 0.81834 0.68752 0.0
H1541 H -0.00429 0.78526 0.68992 0.0
H1542 H 0.9357 0.70655 0.69451 0.0
H1543 H 0.89143 0.73988 0.6908 0.0
C1544 C 0.05244 0.71554 0.69783 0.0
C1545 C 0.05136 0.68569 0.69195 0.0
C1546 C 0.0258 0.73335 0.69879 0.0
C1547 C -0.00253 0.72225 0.69332 0.0
C1548 C -0.00357 0.69182 0.68788 0.0
C1549 C 0.02296 0.67366 0.6874 0.0
C1550 C 0.9477 0.79397 0.68915 0.0
C1551 C 0.91791 0.78173 0.68894 0.0
C1552 C 0.97325 0.77481 0.69068 0.0
C1553 C 0.9698 0.74282 0.69249 0.0
C1554 C 0.93971 0.7308 0.6928 0.0
C1555 C 0.91416 0.74995 0.69082 0.0
H1556 H -0.00469 0.15508 0.43798 0.0
H1557 H 0.91654 0.21027 0.4267 0.0
H1558 H 0.02613 0.20123 0.44098 0.0
H1559 H 0.94759 0.25642 0.42838 0.0
H1560 H 0.00336 0.33944 0.43957 0.0
H1561 H 0.97255 0.29299 0.44137 0.0
H1562 H 0.05224 0.23894 0.42936 0.0
H1563 H 0.08316 0.28528 0.42889 0.0
C1564 C 0.98465 0.17719 0.43605 0.0
C1565 C 0.95348 0.17902 0.43214 0.0
C1566 C 0.00243 0.20384 0.4376 0.0
C1567 C 0.98982 0.23314 0.43481 0.0
C1568 C 0.95839 0.23473 0.43099 0.0
C1569 C 0.94044 0.20812 0.4299 0.0
C1570 C 0.01428 0.31748 0.4376 0.0
C1571 C 0.0457 0.31602 0.43418 0.0
C1572 C -0.00349 0.29069 0.43842 0.0
C1573 C 0.00942 0.26165 0.43532 0.0
C1574 C 0.04116 0.2604 0.43214 0.0
C1575 C 0.05907 0.28713 0.43179 0.0
H1576 H 0.51827 0.14899 0.169 0.0
H1577 H 0.57033 0.2274 0.18413 0.0
H1578 H 0.47103 0.17897 0.17089 0.0
H1579 H 0.52341 0.2568 0.18677 0.0
H1580 H 0.44016 0.31336 0.17375 0.0
H1581 H 0.48652 0.28243 0.17291 0.0
H1582 H 0.43422 0.20251 0.18622 0.0
H1583 H 0.3876 0.23333 0.18633 0.0
C1584 C 0.51957 0.17246 0.17296 0.0
C1585 C 0.54814 0.18582 0.17628 0.0
C1586 C 0.49243 0.18972 0.17412 0.0
C1587 C 0.49313 0.22064 0.17886 0.0
C1588 C 0.52174 0.23347 0.18267 0.0
C1589 C 0.54878 0.21644 0.18128 0.0
C1590 C 0.43857 0.28924 0.17661 0.0
C1591 C 0.41008 0.27593 0.18012 0.0
C1592 C 0.4653 0.27139 0.1762 0.0
C1593 C 0.46446 0.23972 0.17952 0.0
C1594 C 0.43593 0.22658 0.18332 0.0
C1595 C 0.40913 0.24438 0.18352 0.0
H1596 H 0.49439 0.83945 0.92805 0.0
H1597 H 0.57405 0.7954 0.94739 0.0
H1598 H 0.46483 0.79273 0.93158 0.0
H1599 H 0.54409 0.74853 0.95116 0.0
H1600 H 0.49476 0.66294 0.93092 0.0
H1601 H 0.52359 0.71019 0.93387 0.0
H1602 H 0.44166 0.75634 0.94924 0.0
H1603 H 0.41243 0.70878 0.94605 0.0
C1604 C 0.50552 0.81992 0.93328 0.0
C1605 C 0.53677 0.82111 0.93726 0.0
C1606 C 0.48841 0.79316 0.93543 0.0
C1607 C 0.50208 0.76678 0.94158 0.0
C1608 C 0.53296 0.76835 0.94622 0.0
C1609 C 0.5501 0.79526 0.94413 0.0
C1610 C 0.48285 0.68302 0.9351 0.0
C1611 C 0.45114 0.68211 0.93809 0.0
C1612 C 0.49953 0.71012 0.93693 0.0
C1613 C 0.48497 0.73715 0.94174 0.0
C1614 C 0.4535 0.73598 0.94536 0.0
C1615 C 0.43678 0.7087 0.94361 0.0
H1616 H 0.09715 0.24719 0.78886 0.0
H1617 H 0.04414 0.32409 0.8051 0.0
H1618 H 0.05089 0.21621 0.78746 0.0
H1619 H -0.00226 0.29271 0.8041 0.0
H1620 H 0.91566 0.23804 0.78822 0.0
H1621 H 0.96215 0.26864 0.78766 0.0
H1622 H 0.01437 0.19026 0.8029 0.0
H1623 H 0.96759 0.1592 0.80304 0.0
C1624 C 0.07558 0.25757 0.79214 0.0
C1625 C 0.07446 0.28826 0.79709 0.0
C1626 C 0.049 0.23961 0.79144 0.0
C1627 C 0.02043 0.25172 0.79575 0.0
C1628 C 0.01921 0.28261 0.80049 0.0
C1629 C 0.04586 0.30067 0.80111 0.0
C1630 C 0.93706 0.22716 0.79137 0.0
C1631 C 0.93778 0.19606 0.79572 0.0
C1632 C 0.96379 0.24489 0.79117 0.0
C1633 C 0.99214 0.2322 0.79539 0.0
C1634 C 0.99305 0.20085 0.79942 0.0
C1635 C 0.9662 0.18297 0.79953 0.0
H1636 H 0.4152 0.29157 0.53714 0.0
H1637 H 0.49301 0.33993 0.55571 0.0
H1638 H 0.4465 0.24529 0.53481 0.0
H1639 H 0.52386 0.29373 0.55383 0.0
H1640 H 0.58086 0.21253 0.53802 0.0
H1641 H 0.54977 0.25922 0.53759 0.0
H1642 H 0.46953 0.20607 0.54934 0.0
H1643 H 0.5002 0.15966 0.5493 0.0
C1644 C 0.43892 0.29237 0.54076 0.0
C1645 C 0.45141 0.31964 0.54662 0.0
C1646 C 0.45692 0.26572 0.5395 0.0
C1647 C 0.48793 0.26549 0.54413 0.0
C1648 C 0.50036 0.2929 0.54988 0.0
C1649 C 0.48246 0.31949 0.55108 0.0
C1650 C 0.55654 0.21079 0.54038 0.0
C1651 C 0.54321 0.18215 0.5437 0.0
C1652 C 0.53866 0.23766 0.54025 0.0
C1653 C 0.50693 0.2367 0.54347 0.0
C1654 C 0.49365 0.20794 0.54656 0.0
C1655 C 0.51144 0.18117 0.54664 0.0
H1656 H 0.53526 0.82271 0.29429 0.0
H1657 H 0.59355 0.74343 0.2892 0.0
H1658 H 0.49015 0.79027 0.29208 0.0
H1659 H 0.54851 0.71096 0.28599 0.0
H1660 H 0.46108 0.65593 0.29649 0.0
H1661 H 0.50764 0.68699 0.29747 0.0
H1662 H 0.45873 0.76244 0.27675 0.0
H1663 H 0.41205 0.73197 0.27679 0.0
C1664 C 0.53843 0.79835 0.29244 0.0
C1665 C 0.56804 0.78571 0.29194 0.0
C1666 C 0.51245 0.77961 0.29104 0.0
C1667 C 0.51526 0.74768 0.28874 0.0
C1668 C 0.54507 0.7352 0.28802 0.0
C1669 C 0.57104 0.7539 0.28975 0.0
C1670 C 0.46049 0.67906 0.29202 0.0
C1671 C 0.43286 0.69154 0.28665 0.0
C1672 C 0.48727 0.69699 0.29252 0.0
C1673 C 0.48725 0.72768 0.28737 0.0
C1674 C 0.45977 0.73942 0.2813 0.0
C1675 C 0.43293 0.72178 0.28114 0.0
H1676 H 0.99246 0.83806 0.03247 0.0
H1677 H 0.91241 0.78336 0.04193 0.0
H1678 H 0.02338 0.79179 0.03036 0.0
H1679 H 0.94335 0.73711 0.04148 0.0
H1680 H 0.07949 0.70884 0.04428 0.0
H1681 H 0.04855 0.75498 0.04244 0.0
H1682 H 0.96955 0.69938 0.03074 0.0
H1683 H 0.00034 0.65336 0.03424 0.0
C1684 C 0.98158 0.81595 0.03413 0.0
C1685 C 0.95009 0.81418 0.03723 0.0
C1686 C -0.00063 0.78925 0.03316 0.0
C1687 C 0.9864 0.76005 0.03594 0.0
C1688 C 0.95455 0.75862 0.03889 0.0
C1689 C 0.93661 0.78526 0.03927 0.0
C1690 C 0.0555 0.70672 0.04125 0.0
C1691 C 0.04223 0.67766 0.03943 0.0
C1692 C 0.03758 0.73328 0.04004 0.0
C1693 C 0.00603 0.73158 0.03645 0.0
C1694 C 0.9933 0.70217 0.03398 0.0
C1695 C 0.01102 0.6756 0.03577 0.0
H1696 H 0.24885 0.1781 0.27056 0.0
H1697 H 0.18423 0.24634 0.28626 0.0
H1698 H 0.26795 0.21428 0.25187 0.0
H1699 H 0.20357 0.2825 0.26757 0.0
H1700 H 0.21348 0.30896 0.2156 0.0
H1701 H 0.19907 0.28365 0.23935 0.0
H1702 H 0.29446 0.26339 0.24812 0.0
H1703 H 0.30861 0.28787 0.22448 0.0
C1704 C 0.23924 0.20101 0.27029 0.0
C1705 C 0.21477 0.20914 0.27976 0.0
C1706 C 0.25021 0.2218 0.25959 0.0
C1707 C 0.23694 0.25108 0.25818 0.0
C1708 C 0.21384 0.25991 0.26828 0.0
C1709 C 0.20296 0.2392 0.27903 0.0
C1710 C 0.23126 0.29961 0.2228 0.0
C1711 C 0.26197 0.29964 0.21811 0.0
C1712 C 0.22313 0.28525 0.23638 0.0
C1713 C 0.24569 0.27111 0.24541 0.0
C1714 C 0.27658 0.27346 0.24122 0.0
C1715 C 0.28462 0.28747 0.22769 0.0
H1716 H -0.00352 0.0304 0.44426 0.0
H1717 H 0.91254 0.00656 0.46745 0.0
H1718 H 0.02624 0.01248 0.46581 0.0
H1719 H 0.94207 0.99001 0.48927 0.0
H1720 H 0.00401 0.93389 0.51917 0.0
H1721 H 0.97484 0.95144 0.49776 0.0
H1722 H 0.03922 0.02579 0.49109 0.0
H1723 H 0.06973 0.00704 0.51237 0.0
C1724 C 0.98443 0.02117 0.45396 0.0
C1725 C 0.95223 0.01965 0.45417 0.0
C1726 C 0.00145 0.01129 0.46638 0.0
C1727 C 0.98659 0.0001 0.47935 0.0
C1728 C 0.95434 -0.0019 0.4794 0.0
C1729 C 0.93736 0.0075 0.46688 0.0
C1730 C 0.012 0.95417 0.51328 0.0
C1731 C 0.03931 0.96909 0.51751 0.0
C1732 C -0.00496 0.96434 0.50098 0.0
C1733 C 0.00458 0.99004 0.49268 0.0
C1734 C 0.0315 0.00556 0.4971 0.0
C1735 C 0.04883 -0.00494 0.50938 0.0
H1736 H 0.30968 0.75683 0.7678 0.0
H1737 H 0.2311 0.81674 0.76367 0.0
H1738 H 0.29037 0.72518 0.74756 0.0
H1739 H 0.21079 0.78386 0.74366 0.0
H1740 H 0.19866 0.73779 0.69819 0.0
H1741 H 0.21935 0.77 0.71816 0.0
H1742 H 0.25293 0.68909 0.74115 0.0
H1743 H 0.23336 0.65708 0.72076 0.0
C1744 C 0.28792 0.76301 0.76274 0.0
C1745 C 0.27187 0.78937 0.76741 0.0
C1746 C 0.27676 0.74465 0.75112 0.0
C1747 C 0.24897 0.75181 0.74394 0.0
C1748 C 0.23256 0.77791 0.74876 0.0
C1749 C 0.24401 0.79664 0.76032 0.0
C1750 C 0.21084 0.72695 0.70742 0.0
C1751 C 0.2145 0.69492 0.7079 0.0
C1752 C 0.22237 0.74539 0.71898 0.0
C1753 C 0.2375 0.73221 0.7314 0.0
C1754 C 0.24174 0.70015 0.73168 0.0
C1755 C 0.23058 0.68173 0.71999 0.0
H1756 H 0.45021 0.08486 -0.00406 0.0
H1757 H 0.40097 -0.00109 -0.00107 0.0
H1758 H 0.481 0.06486 0.97561 0.0
H1759 H 0.43083 0.97925 0.97767 0.0
H1760 H 0.5222 0.93924 0.96224 0.0
H1761 H 0.48207 0.96237 0.97738 0.0
H1762 H 0.49031 0.04618 0.95137 0.0
H1763 H 0.53205 0.02304 0.93673 0.0
C1764 C 0.44541 0.06184 -0.00804 0.0
C1765 C 0.42399 0.04296 -0.00061 0.0
C1766 C 0.4629 0.0505 0.98012 0.0
C1767 C 0.45902 0.02015 0.97528 0.0
C1768 C 0.43506 0.00244 0.98153 0.0
C1769 C 0.41773 0.01373 -0.00642 0.0
C1770 C 0.51561 0.96276 0.95994 0.0
C1771 C 0.53031 0.97969 0.94859 0.0
C1772 C 0.49219 0.97583 0.96838 0.0
C1773 C 0.48249 0.00596 0.96542 0.0
C1774 C 0.49736 0.02297 0.954 0.0
C1775 C 0.52136 0.00996 0.94571 0.0
H1776 H 0.23235 0.67512 0.25514 0.0
H1777 H 0.322 0.71737 0.25238 0.0
H1778 H 0.2156 0.70616 0.23353 0.0
H1779 H 0.30567 0.74735 0.2309 0.0
H1780 H 0.25361 0.82358 0.20605 0.0
H1781 H 0.27214 0.79029 0.22625 0.0
H1782 H 0.22421 0.71341 0.20641 0.0
H1783 H 0.20529 0.74667 0.18643 0.0
C1784 C 0.24846 0.69076 0.24988 0.0
C1785 C 0.27826 0.69412 0.25562 0.0
C1786 C 0.23899 0.70842 0.2375 0.0
C1787 C 0.25929 0.72946 0.23065 0.0
C1788 C 0.28929 0.73195 0.23614 0.0
C1789 C 0.29862 0.71461 0.24846 0.0
C1790 C 0.24752 0.79948 0.20587 0.0
C1791 C 0.2279 0.78781 0.19472 0.0
C1792 C 0.25803 0.7804 0.21744 0.0
C1793 C 0.24928 0.74929 0.218 0.0
C1794 C 0.23076 0.7374 0.20647 0.0
C1795 C 0.22019 0.75643 0.19496 0.0
H1796 H 0.55489 0.97821 0.52153 0.0
H1797 H 0.54345 0.06813 0.50177 0.0
H1798 H 0.51968 0.95692 0.50271 0.0
H1799 H 0.50923 0.04696 0.4828 0.0
H1800 H 0.42417 0.00687 0.46119 0.0
H1801 H 0.45768 0.02621 0.48123 0.0
H1802 H 0.51617 0.94682 0.47615 0.0
H1803 H 0.48273 0.9272 0.45676 0.0
C1804 C 0.54541 0.99318 0.51294 0.0
C1805 C 0.5517 0.02469 0.51304 0.0
C1806 C 0.52516 0.98114 0.50225 0.0
C1807 C 0.5113 0.00044 0.49145 0.0
C1808 C 0.51882 0.03171 0.49123 0.0
C1809 C 0.53871 0.04372 0.50195 0.0
C1810 C 0.44404 0.99353 0.46448 0.0
C1811 C 0.45088 0.96572 0.45728 0.0
C1812 C 0.46331 0.00462 0.47586 0.0
C1813 C 0.48964 0.98804 0.48018 0.0
C1814 C 0.49592 0.95994 0.47322 0.0
C1815 C 0.47678 0.94888 0.46196 0.0
H1816 H 0.23083 0.18125 0.70888 0.0
H1817 H 0.32613 0.19998 0.7187 0.0
H1818 H 0.21571 0.2154 0.72954 0.0
H1819 H 0.3113 0.23485 0.7386 0.0
H1820 H 0.27225 0.28258 0.78031 0.0
H1821 H 0.28886 0.24309 0.76254 0.0
H1822 H 0.21687 0.27043 0.73169 0.0
H1823 H 0.19963 0.30873 0.74982 0.0
C1824 C 0.24844 0.19213 0.71565 0.0
C1825 C 0.27951 0.1886 0.71208 0.0
C1826 C 0.23989 0.21198 0.72729 0.0
C1827 C 0.26237 0.22843 0.73539 0.0
C1828 C 0.29344 0.22264 0.73259 0.0
C1829 C 0.30191 0.20279 0.7211 0.0
C1830 C 0.26079 0.28068 0.76949 0.0
C1831 C 0.23504 0.29865 0.76621 0.0
C1832 C 0.26995 0.25788 0.75941 0.0
C1833 C 0.25364 0.25318 0.74589 0.0
C1834 C 0.22921 0.27281 0.74224 0.0
C1835 C 0.21981 0.29518 0.75239 0.0
H1836 H 0.08309 0.04338 0.98216 0.0
H1837 H 0.03971 0.97555 0.95388 0.0
H1838 H 0.05078 0.02753 0.00347 0.0
H1839 H 0.00686 0.96011 0.97506 0.0
H1840 H 0.92577 0.98304 0.00724 0.0
H1841 H 0.9642 -0.00342 -0.01183 0.0
H1842 H 0.03662 0.97707 0.01998 0.0
H1843 H -0.0017 0.96294 0.03898 0.0
C1844 C 0.06748 0.02423 0.98075 0.0
C1845 C 0.06411 0.01016 0.9666 0.0
C1846 C 0.04886 0.01542 -0.00717 0.0
C1847 C 0.02615 0.99303 -0.00927 0.0
C1848 C 0.02409 0.97767 0.97683 0.0
C1849 C 0.04313 0.98608 0.96484 0.0
C1850 C 0.94985 0.98237 0.01025 0.0
C1851 C 0.95914 0.97199 0.02454 0.0
C1852 C 0.97177 0.98965 -0.00069 0.0
C1853 C 0.00321 0.98722 0.00262 0.0
C1854 C 0.01248 0.97883 0.01719 0.0
C1855 C 0.9906 0.97095 0.02803 0.0
H1856 H 0.69164 0.74163 0.77772 0.0
H1857 H 0.75567 0.67165 0.76345 0.0
H1858 H 0.70531 0.77274 0.75619 0.0
H1859 H 0.7707 0.70389 0.7421 0.0
H1860 H 0.76577 0.75072 0.69668 0.0
H1861 H 0.75082 0.72045 0.7186 0.0
H1862 H 0.74232 0.80371 0.74482 0.0
H1863 H 0.75591 0.83393 0.72264 0.0
C1864 C 0.70918 0.73307 0.77014 0.0
C1865 C 0.72239 0.7039 0.77229 0.0
C1866 C 0.71714 0.75113 0.75777 0.0
C1867 C 0.7389 0.74082 0.74726 0.0
C1868 C 0.75327 0.71227 0.74977 0.0
C1869 C 0.74499 0.69392 0.76212 0.0
C1870 C 0.76003 0.76253 0.70707 0.0
C1871 C 0.76182 0.79467 0.70795 0.0
C1872 C 0.75196 0.74517 0.71971 0.0
C1873 C 0.74593 0.75951 0.73361 0.0
C1874 C 0.74656 0.79181 0.7343 0.0
C1875 C 0.75419 0.80922 0.72156 0.0
H1876 H 0.73493 0.31911 0.25436 0.0
H1877 H 0.78284 0.24218 0.27429 0.0
H1878 H 0.71303 0.28461 0.23539 0.0
H1879 H 0.76091 0.20811 0.25559 0.0
H1880 H 0.74756 0.16733 0.20778 0.0
H1881 H 0.76709 0.19981 0.22818 0.0
H1882 H 0.6774 0.24071 0.23328 0.0
H1883 H 0.65806 0.20883 0.213 0.0
C1884 C 0.74042 0.29489 0.25482 0.0
C1885 C 0.7608 0.28346 0.2657 0.0
C1886 C 0.72795 0.27515 0.24399 0.0
C1887 C 0.73566 0.24377 0.24395 0.0
C1888 C 0.75513 0.23227 0.25516 0.0
C1889 C 0.76752 0.25186 0.26592 0.0
C1890 C 0.73203 0.183 0.2134 0.0
C1891 C 0.70145 0.18576 0.20868 0.0
C1892 C 0.74313 0.20158 0.22504 0.0
C1893 C 0.72376 0.22305 0.23214 0.0
C1894 C 0.69297 0.22489 0.22778 0.0
C1895 C 0.68193 0.20645 0.21621 0.0
H1896 H 0.76336 0.32084 0.71071 0.0
H1897 H 0.67533 0.27561 0.71486 0.0
H1898 H 0.78368 0.28759 0.73065 0.0
H1899 H 0.69577 0.24188 0.73383 0.0
H1900 H 0.73495 0.19869 0.77586 0.0
H1901 H 0.71372 0.23685 0.75861 0.0
H1902 H 0.79759 0.23463 0.73243 0.0
H1903 H 0.81913 0.19777 0.75016 0.0
C1904 C 0.74837 0.30406 0.71593 0.0
C1905 C 0.71799 0.30049 0.71105 0.0
C1906 C 0.76 0.28485 0.7272 0.0
C1907 C 0.7414 0.26182 0.73364 0.0
C1908 C 0.71066 0.25947 0.72924 0.0
C1909 C 0.69905 0.27871 0.71818 0.0
C1910 C 0.74845 0.20601 0.76623 0.0
C1911 C 0.77843 0.19534 0.76417 0.0
C1912 C 0.73649 0.22798 0.75642 0.0
C1913 C 0.75417 0.23905 0.74426 0.0
C1914 C 0.78374 0.22724 0.74192 0.0
C1915 C 0.79585 0.20577 0.75188 0.0
H1916 H 0.67555 0.776 0.25915 0.0
H1917 H 0.76243 0.82371 0.26126 0.0
H1918 H 0.6921 0.74917 0.2367 0.0
H1919 H 0.77968 0.79563 0.23881 0.0
H1920 H 0.79228 0.75632 0.19182 0.0
H1921 H 0.77135 0.78841 0.21182 0.0
H1922 H 0.72743 0.70883 0.23146 0.0
H1923 H 0.74761 0.67695 0.21129 0.0
C1924 C 0.69841 0.78053 0.25487 0.0
C1925 C 0.71801 0.80151 0.26211 0.0
C1926 C 0.70786 0.7651 0.242 0.0
C1927 C 0.73732 0.7699 0.23613 0.0
C1928 C 0.75672 0.79161 0.24305 0.0
C1929 C 0.74702 0.8075 0.25593 0.0
C1930 C 0.77775 0.74577 0.20029 0.0
C1931 C 0.77166 0.71406 0.20004 0.0
C1932 C 0.76602 0.76413 0.2118 0.0
C1933 C 0.74805 0.75112 0.22328 0.0
C1934 C 0.74096 0.71963 0.22268 0.0
C1935 C 0.75252 0.70131 0.21112 0.0
H1936 H 0.50944 0.48754 0.02894 0.0
H1937 H 0.59303 0.48848 0.00278 0.0
H1938 H 0.48043 0.50373 0.00688 0.0
H1939 H 0.56382 0.50377 0.98037 0.0
H1940 H 0.50106 0.55835 0.94802 0.0
H1941 H 0.53337 0.54386 0.96907 0.0
H1942 H 0.4647 0.47874 0.98378 0.0
H1943 H 0.43151 0.49418 0.96293 0.0
C1944 C 0.5216 0.4918 0.01846 0.0
C1945 C 0.55331 0.48688 0.01742 0.0
C1946 C 0.50498 0.50054 0.0058 0.0
C1947 C 0.51973 0.5041 -0.00818 0.0
C1948 C 0.55185 0.50108 -0.00899 0.0
C1949 C 0.56861 0.49263 0.0038 0.0
C1950 C 0.49284 0.54071 0.95564 0.0
C1951 C 0.46343 0.52774 0.95397 0.0
C1952 C 0.51154 0.53232 0.96767 0.0
C1953 C 0.50134 0.51062 0.9782 0.0
C1954 C 0.47278 0.49618 0.97601 0.0
C1955 C 0.45391 0.50474 0.964 0.0
H1956 H 0.99307 0.55553 0.51994 0.0
H1957 H 0.92614 0.48634 0.50803 0.0
H1958 H 0.02474 0.54048 0.4989 0.0
H1959 H 0.95904 0.4701 0.48713 0.0
H1960 H 0.00608 0.47114 0.44176 0.0
H1961 H 0.975 0.48797 0.46301 0.0
H1962 H 0.0575 0.50264 0.48919 0.0
H1963 H 0.08856 0.48698 0.46757 0.0
C1964 C 0.98525 0.53667 0.51297 0.0
C1965 C 0.95681 0.52225 0.51565 0.0
C1966 C 0.00368 0.52792 0.5009 0.0
C1967 C 0.99447 0.50421 0.49123 0.0
C1968 C 0.96654 0.48894 0.49419 0.0
C1969 C 0.94781 0.49796 0.50625 0.0
C1970 C 0.01753 0.47862 0.45198 0.0
C1971 C 0.04968 0.47795 0.45305 0.0
C1972 C -0.00028 0.48778 0.46424 0.0
C1973 C 0.01365 0.49606 0.47794 0.0
C1974 C 0.04596 0.4966 0.47878 0.0
C1975 C 0.06383 0.48782 0.46639 0.0
H1976 H 0.06054 0.48595 0.01888 0.0
H1977 H 0.99287 0.55201 0.03368 0.0
H1978 H 0.02397 0.46581 0.00061 0.0
H1979 H 0.95636 0.53161 0.01547 0.0
H1980 H 0.9231 0.51283 0.96533 0.0
H1981 H 0.95207 0.53155 -0.01276 0.0
H1982 H 0.97476 0.43819 -0.00071 0.0
H1983 H 0.94651 0.41972 0.9775 0.0
C1984 C 0.03777 0.49585 0.01841 0.0
C1985 C 0.02973 0.52065 0.02769 0.0
C1986 C 0.01677 0.48427 0.00798 0.0
C1987 C 0.98736 0.49728 0.0066 0.0
C1988 C 0.97898 0.52143 0.01618 0.0
C1989 C -0.0001 0.53292 0.02667 0.0
C1990 C 0.93379 0.49643 0.97287 0.0
C1991 C 0.93313 0.46497 0.9696 0.0
C1992 C 0.95032 0.50706 0.98538 0.0
C1993 C 0.96614 0.48627 -0.00524 0.0
C1994 C 0.96346 0.45474 -0.00796 0.0
C1995 C 0.9472 0.44421 0.97959 0.0
H1996 H 0.46913 0.42683 0.51204 0.0
H1997 H 0.42783 0.51686 0.51509 0.0
H1998 H 0.49914 0.44321 0.49057 0.0
H1999 H 0.45882 0.53359 0.49346 0.0
H2000 H 0.49529 0.54054 0.44518 0.0
H2001 H 0.46396 0.52374 0.46628 0.0
H2002 H 0.54226 0.47692 0.4854 0.0
H2003 H 0.57376 0.49341 0.46402 0.0
C2004 C 0.46659 0.4503 0.50818 0.0
C2005 C 0.4463 0.47074 0.51537 0.0
C2006 C 0.48398 0.45965 0.49589 0.0
C2007 C 0.48165 0.48972 0.49048 0.0
C2008 C 0.46093 0.51016 0.49741 0.0
C2009 C 0.44326 0.50068 0.50976 0.0
C2010 C 0.50586 0.5265 0.45384 0.0
C2011 C 0.53705 0.51832 0.45299 0.0
C2012 C 0.48791 0.51714 0.46598 0.0
C2013 C 0.50073 0.49939 0.47754 0.0
C2014 C 0.53174 0.4905 0.47655 0.0
C2015 C 0.54975 0.49981 0.46433 0.0
H2016 H 0.27256 0.08884 0.32336 0.0
H2017 H 0.19888 0.05742 0.35219 0.0
H2018 H 0.30991 0.06935 0.34171 0.0
H2019 H 0.23577 0.03783 0.37016 0.0
H2020 H 0.30579 0.02034 0.40585 0.0
H2021 H 0.27402 0.05139 0.38878 0.0
H2022 H 0.3281 0.02053 0.35082 0.0
H2023 H 0.35982 0.99043 0.36775 0.0
C2024 C 0.2643 0.0777 0.33352 0.0
C2025 C 0.23264 0.07463 0.33618 0.0
C2026 C 0.28569 0.06659 0.34408 0.0
C2027 C 0.2759 0.05226 0.35755 0.0
C2028 C 0.24426 0.04934 0.36015 0.0
C2029 C 0.22303 0.0603 0.34966 0.0
C2030 C 0.31131 0.02096 0.39392 0.0
C2031 C 0.33505 0.00268 0.38814 0.0
C2032 C 0.29296 0.03844 0.3841 0.0
C2033 C 0.29818 0.03813 0.36834 0.0
C2034 C 0.32338 0.02155 0.36282 0.0
C2035 C 0.34148 0.00407 0.37256 0.0
H2036 H 0.22048 0.05909 0.65389 0.0
H2037 H 0.24558 0.11836 0.61677 0.0
H2038 H 0.19012 0.02757 0.63651 0.0
H2039 H 0.21626 0.08672 0.59949 0.0
H2040 H 0.14714 0.03053 0.57221 0.0
H2041 H 0.16799 0.06711 0.59058 0.0
H2042 H 0.20386 0.99181 0.61696 0.0
H2043 H 0.18288 0.9557 0.59897 0.0
C2044 C 0.21901 0.06576 0.64213 0.0
C2045 C 0.23575 0.091 0.63671 0.0
C2046 C 0.20193 0.04753 0.63211 0.0
C2047 C 0.20115 0.05426 0.6165 0.0
C2048 C 0.21616 0.08079 0.61137 0.0
C2049 C 0.23319 0.09886 0.62132 0.0
C2050 C 0.15968 0.02189 0.58188 0.0
C2051 C 0.16326 0.99015 0.58407 0.0
C2052 C 0.17153 0.04282 0.59246 0.0
C2053 C 0.18723 0.03243 0.60543 0.0
C2054 C 0.1912 0.00072 0.60739 0.0
C2055 C 0.17941 0.97996 0.59691 0.0
H2056 H 0.18816 0.97431 0.90349 0.0
H2057 H 0.12005 0.99174 0.86913 0.0
H2058 H 0.21976 0.94765 0.8848 0.0
H2059 H 0.1518 0.96611 0.85049 0.0
H2060 H 0.20969 0.8994 0.82164 0.0
H2061 H 0.17436 0.92001 0.84073 0.0
H2062 H 0.25078 0.96223 0.8638 0.0
H2063 H 0.28561 0.94145 0.84513 0.0
C2064 C 0.17969 0.97211 0.89204 0.0
C2065 C 0.15161 0.98547 0.88787 0.0
C2066 C 0.19798 0.95712 0.88123 0.0
C2067 C 0.18867 0.95507 0.86597 0.0
C2068 C 0.15982 0.967 0.86206 0.0
C2069 C 0.14162 0.98193 0.87281 0.0
C2070 C 0.21879 0.9134 0.83069 0.0
C2071 C 0.25055 0.9186 0.83182 0.0
C2072 C 0.19858 0.92514 0.8417 0.0
C2073 C 0.20968 0.94239 0.85407 0.0
C2074 C 0.24132 0.94833 0.8548 0.0
C2075 C 0.26135 0.93663 0.84391 0.0
H2076 H 0.282 0.89551 0.13889 0.0
H2077 H 0.20508 0.93998 0.11726 0.0
H2078 H 0.31626 0.9168 0.11961 0.0
H2079 H 0.23905 0.9616 0.0984 0.0
H2080 H 0.3005 0.98187 0.05949 0.0
H2081 H 0.27017 0.95012 0.07681 0.0
H2082 H 0.33765 0.96465 0.11183 0.0
H2083 H 0.36806 -0.00477 0.09453 0.0
C2084 C 0.27244 0.91004 0.13015 0.0
C2085 C 0.24077 0.91603 0.12969 0.0
C2086 C 0.29204 0.92219 0.11905 0.0
C2087 C 0.28043 0.94068 0.10727 0.0
C2088 C 0.24881 0.94685 0.10699 0.0
C2089 C 0.22932 0.9347 0.11799 0.0
C2090 C 0.3092 0.97749 0.07074 0.0
C2091 C 0.33649 0.99137 0.07566 0.0
C2092 C 0.29167 0.95963 0.08076 0.0
C2093 C 0.30114 0.95525 0.09586 0.0
C2094 C 0.32957 0.96732 0.10034 0.0
C2095 C 0.34697 0.98509 0.09039 0.0
H2096 H 0.78627 0.92891 0.62445 0.0
H2097 H 0.70967 0.9098 0.654 0.0
H2098 H 0.75216 0.95247 0.60634 0.0
H2099 H 0.67496 0.9333 0.63547 0.0
H2100 H 0.63223 0.01223 0.607 0.0
H2101 H 0.66173 0.98216 0.62485 0.0
H2102 H 0.71308 0.94247 0.588 0.0
H2103 H 0.6838 0.97357 0.56997 0.0
C2104 C 0.76202 0.92959 0.62711 0.0
C2105 C 0.75083 0.91733 0.6408 0.0
C2106 C 0.74232 0.9429 0.61655 0.0
C2107 C 0.71063 0.94449 0.61923 0.0
C2108 C 0.69928 0.9326 0.633 0.0
C2109 C 0.71916 0.91918 0.64367 0.0
C2110 C 0.64961 -0.00312 0.6026 0.0
C2111 C 0.65586 -0.0043 0.58698 0.0
C2112 C 0.66642 0.97937 0.61292 0.0
C2113 C 0.69012 0.96003 0.60798 0.0
C2114 C 0.69537 0.95756 0.59227 0.0
C2115 C 0.6784 0.97515 0.58188 0.0
H2116 H 0.80223 0.97754 0.40408 0.0
H2117 H 0.86561 0.0059 0.36935 0.0
H2118 H 0.77573 0.94485 0.38578 0.0
H2119 H 0.84041 0.97244 0.35127 0.0
H2120 H 0.76362 0.94331 0.31848 0.0
H2121 H 0.79592 0.97036 0.33673 0.0
H2122 H 0.77504 0.90142 0.37037 0.0
H2123 H 0.74189 0.87554 0.35237 0.0
C2124 C 0.811 0.97608 0.39265 0.0
C2125 C 0.83583 0.99437 0.38814 0.0
C2126 C 0.79586 0.95734 0.38209 0.0
C2127 C 0.80557 0.95617 0.36685 0.0
C2128 C 0.83159 0.97325 0.36269 0.0
C2129 C 0.8463 0.99223 0.37314 0.0
C2130 C 0.76648 0.93374 0.32969 0.0
C2131 C 0.75012 0.90744 0.334 0.0
C2132 C 0.785 0.9492 0.34022 0.0
C2133 C 0.78794 0.93839 0.35522 0.0
C2134 C 0.77282 0.91104 0.35915 0.0
C2135 C 0.75403 0.89597 0.34874 0.0
H2136 H 0.84111 0.0284 0.0732 0.0
H2137 H 0.80059 0.95227 0.09737 0.0
H2138 H 0.81929 0.06387 0.09182 0.0
H2139 H 0.77888 0.98733 0.11564 0.0
H2140 H 0.75993 0.05188 0.15339 0.0
H2141 H 0.79217 0.02168 0.13626 0.0
H2142 H 0.76926 0.08299 0.09959 0.0
H2143 H 0.73782 0.11321 0.11665 0.0
C2144 C 0.82744 0.01923 0.08237 0.0
C2145 C 0.82264 0.98744 0.0837 0.0
C2146 C 0.81503 0.03952 0.09308 0.0
C2147 C 0.79769 0.02843 0.10539 0.0
C2148 C 0.79275 -0.0033 0.10658 0.0
C2149 C 0.80497 0.97656 0.09592 0.0
C2150 C 0.76254 0.05933 0.14178 0.0
C2151 C 0.74606 0.0847 0.13636 0.0
C2152 C 0.78071 0.04188 0.13191 0.0
C2153 C 0.78291 0.04961 0.11645 0.0
C2154 C 0.76825 0.07635 0.11138 0.0
C2155 C 0.75004 0.0936 0.12118 0.0
H2156 H 0.67966 0.95904 0.87123 0.0
H2157 H 0.64729 0.03509 0.89818 0.0
H2158 H 0.70342 0.99446 0.85369 0.0
H2159 H 0.67083 0.07089 0.88026 0.0
H2160 H 0.75259 0.11832 0.85582 0.0
H2161 H 0.72096 0.08736 0.8724 0.0
H2162 H 0.6929 0.032 0.83437 0.0
H2163 H 0.7256 0.06273 0.81769 0.0
C2164 C 0.67749 0.9834 0.87342 0.0
C2165 C 0.66158 0.99417 0.8862 0.0
C2166 C 0.69087 0.00376 0.8632 0.0
C2167 C 0.68875 0.03558 0.8654 0.0
C2168 C 0.67302 0.04649 0.87824 0.0
C2169 C 0.65959 0.026 0.88854 0.0
C2170 C 0.73941 0.09978 0.8509 0.0
C2171 C 0.74202 0.09271 0.83543 0.0
C2172 C 0.72101 0.08214 0.86044 0.0
C2173 C 0.70463 0.05692 0.8548 0.0
C2174 C 0.70571 0.05094 0.83914 0.0
C2175 C 0.7242 0.0687 0.82954 0.0
H2176 H 0.71054 0.55616 0.85186 0.0
H2177 H 0.78658 0.58861 0.82489 0.0
H2178 H 0.74573 0.53481 0.8701 0.0
H2179 H 0.82239 0.5671 0.84356 0.0
H2180 H 0.87135 0.48999 0.87173 0.0
H2181 H 0.84093 0.51878 0.85364 0.0
H2182 H 0.78121 0.54868 0.88965 0.0
H2183 H 0.8114 0.51898 0.90783 0.0
C2184 C 0.73489 0.55886 0.84979 0.0
C2185 C 0.74558 0.57432 0.83681 0.0
C2186 C 0.75517 0.5468 0.86044 0.0
C2187 C 0.78703 0.54964 0.85857 0.0
C2188 C 0.79798 0.56447 0.84542 0.0
C2189 C 0.77748 0.57672 0.83466 0.0
C2190 C 0.85199 0.50306 0.87589 0.0
C2191 C 0.84365 0.50177 0.89129 0.0
C2192 C 0.83459 0.51979 0.86545 0.0
C2193 C 0.80823 0.53576 0.87005 0.0
C2194 C 0.801 0.53612 0.88561 0.0
C2195 C 0.8185 0.51937 0.8961 0.0
H2196 H 0.68709 0.52348 0.07028 0.0
H2197 H 0.63137 0.49624 0.10838 0.0
H2198 H 0.7194 0.55395 0.08717 0.0
H2199 H 0.66389 0.52582 0.12517 0.0
H2200 H 0.71893 0.59799 0.15102 0.0
H2201 H 0.68212 0.57545 0.13333 0.0
H2202 H 0.75703 0.54119 0.10622 0.0
H2203 H 0.7935 0.56391 0.12357 0.0
C2204 C 0.68142 0.52436 0.08218 0.0
C2205 C 0.65682 0.50713 0.08796 0.0
C2206 C 0.70011 0.54156 0.0919 0.0
C2207 C 0.69453 0.54199 0.10759 0.0
C2208 C 0.66884 0.52621 0.11319 0.0
C2209 C 0.65026 0.50903 0.10351 0.0
C2210 C 0.72749 0.5855 0.14133 0.0
C2211 C 0.75921 0.58278 0.13878 0.0
C2212 C 0.70641 0.57264 0.13116 0.0
C2213 C 0.71659 0.55679 0.11822 0.0
C2214 C 0.7483 0.55384 0.11582 0.0
C2215 C 0.76926 0.56663 0.12593 0.0
H2216 H 0.72189 0.43581 0.31509 0.0
H2217 H 0.74923 0.37109 0.34941 0.0
H2218 H 0.68902 0.46183 0.33348 0.0
H2219 H 0.71555 0.39579 0.36756 0.0
H2220 H 0.68699 0.47223 0.40071 0.0
H2221 H 0.71375 0.4399 0.38238 0.0
H2222 H 0.64532 0.4621 0.34874 0.0
H2223 H 0.61978 0.49534 0.36684 0.0
C2224 C 0.72018 0.42668 0.32644 0.0
C2225 C 0.73824 0.40164 0.33084 0.0
C2226 C 0.70133 0.44152 0.33704 0.0
C2227 C 0.69981 0.43125 0.35219 0.0
C2228 C 0.71665 0.40502 0.35621 0.0
C2229 C 0.73576 0.39062 0.34573 0.0
C2230 C 0.67745 0.46959 0.38949 0.0
C2231 C 0.65145 0.48634 0.38518 0.0
C2232 C 0.69273 0.45108 0.37891 0.0
C2233 C 0.68202 0.44858 0.36388 0.0
C2234 C 0.65485 0.464 0.35998 0.0
C2235 C 0.63997 0.4828 0.37044 0.0
H2236 H 0.7466 0.37177 0.61842 0.0
H2237 H 0.77083 0.43701 0.65307 0.0
H2238 H 0.77623 0.40066 0.59995 0.0
H2239 H 0.80104 0.46598 0.6345 0.0
H2240 H 0.80435 0.53183 0.59422 0.0
H2241 H 0.78372 0.49757 0.61315 0.0
H2242 H 0.82624 0.42053 0.59081 0.0
H2243 H 0.8474 0.45538 0.57154 0.0
C2244 C 0.75891 0.39198 0.62218 0.0
C2245 C 0.75608 0.40233 0.63719 0.0
C2246 C 0.77605 0.40845 0.61156 0.0
C2247 C 0.79063 0.43591 0.61564 0.0
C2248 C 0.78961 0.44515 0.63093 0.0
C2249 C 0.77261 0.42843 0.64162 0.0
C2250 C 0.8094 0.50758 0.59321 0.0
C2251 C 0.82776 0.49645 0.58131 0.0
C2252 C 0.79778 0.48793 0.60425 0.0
C2253 C 0.80391 0.45637 0.60377 0.0
C2254 C 0.82127 0.44482 0.59157 0.0
C2255 C 0.83318 0.4647 0.58046 0.0
H2256 H 0.2323 0.36493 0.12012 0.0
H2257 H 0.21332 0.42779 0.15659 0.0
H2258 H 0.20678 0.39901 0.10243 0.0
H2259 H 0.18696 0.46192 0.13881 0.0
H2260 H 0.18766 0.53272 0.10026 0.0
H2261 H 0.20477 0.49538 0.11873 0.0
H2262 H 0.1603 0.4232 0.09351 0.0
H2263 H 0.14331 0.46082 0.07473 0.0
C2264 C 0.22202 0.38578 0.12444 0.0
C2265 C 0.22515 0.39377 0.13978 0.0
C2266 C 0.2072 0.4053 0.11426 0.0
C2267 C 0.19515 0.43349 0.11909 0.0
C2268 C 0.19651 0.44062 0.13463 0.0
C2269 C 0.21126 0.42091 0.14488 0.0
C2270 C 0.18152 0.50889 0.09854 0.0
C2271 C 0.16412 0.49987 0.08589 0.0
C2272 C 0.19107 0.48746 0.10931 0.0
C2273 C 0.1836 0.45626 0.10779 0.0
C2274 C 0.16656 0.44704 0.09504 0.0
C2275 C 0.15689 0.4686 0.08422 0.0
H2276 H 0.31571 0.53095 0.87524 0.0
H2277 H 0.35116 0.45982 0.90449 0.0
H2278 H 0.29514 0.49251 0.8584 0.0
H2279 H 0.33044 0.42085 0.88729 0.0
H2280 H 0.25141 0.36814 0.86179 0.0
H2281 H 0.28043 0.40123 0.87863 0.0
H2282 H 0.31203 0.45397 0.84033 0.0
H2283 H 0.28233 0.4212 0.82341 0.0
C2284 C 0.3192 0.50704 0.87811 0.0
C2285 C 0.3352 0.49854 0.89127 0.0
C2286 C 0.30763 0.48494 0.8683 0.0
C2287 C 0.31161 0.45359 0.87132 0.0
C2288 C 0.32706 0.44487 0.88463 0.0
C2289 C 0.33883 0.46716 0.89451 0.0
C2290 C 0.2649 0.38651 0.85689 0.0
C2291 C 0.26408 0.39234 0.84123 0.0
C2292 C 0.28172 0.40536 0.86658 0.0
C2293 C 0.29814 0.43053 0.86087 0.0
C2294 C 0.29907 0.43509 0.84512 0.0
C2295 C 0.28224 0.41619 0.83539 0.0
H2296 H 0.30474 0.52526 0.57041 0.0
H2297 H 0.36253 0.49561 0.60719 0.0
H2298 H 0.27322 0.55436 0.58834 0.0
H2299 H 0.33089 0.52347 0.625 0.0
H2300 H 0.27454 0.58813 0.65441 0.0
H2301 H 0.31145 0.56963 0.63557 0.0
H2302 H 0.2365 0.54047 0.60706 0.0
H2303 H 0.20017 0.55927 0.62548 0.0
C2304 C 0.31111 0.52549 0.58223 0.0
C2305 C 0.33594 0.50784 0.58735 0.0
C2306 C 0.29284 0.54181 0.59258 0.0
C2307 C 0.29908 0.54088 0.60825 0.0
C2308 C 0.32527 0.52498 0.61312 0.0
C2309 C 0.34338 0.50876 0.60284 0.0
C2310 C 0.26605 0.57762 0.64415 0.0
C2311 C 0.23434 0.57526 0.64154 0.0
C2312 C 0.28718 0.56709 0.63329 0.0
C2313 C 0.27707 0.55386 0.6196 0.0
C2314 C 0.24534 0.55124 0.61718 0.0
C2315 C 0.2244 0.56177 0.62793 0.0
H2316 H 0.19136 0.5166 0.39894 0.0
H2317 H 0.13934 0.47133 0.36401 0.0
H2318 H 0.21513 0.5496 0.37983 0.0
H2319 H 0.1615 0.50493 0.34513 0.0
H2320 H 0.2342 0.5439 0.3127 0.0
H2321 H 0.20534 0.51405 0.33127 0.0
H2322 H 0.211 0.5897 0.36274 0.0
H2323 H 0.24115 0.61848 0.34443 0.0
C2324 C 0.18462 0.51407 0.38724 0.0
C2325 C 0.16375 0.4911 0.38302 0.0
C2326 C 0.19811 0.53308 0.37621 0.0
C2327 C 0.19058 0.52997 0.36073 0.0
C2328 C 0.16872 0.50769 0.35674 0.0
C2329 C 0.15577 0.48846 0.36766 0.0
C2330 C 0.22852 0.55433 0.32344 0.0
C2331 C 0.23978 0.58355 0.32707 0.0
C2332 C 0.21202 0.53721 0.3342 0.0
C2333 C 0.20598 0.54912 0.34877 0.0
C2334 C 0.21578 0.5792 0.35193 0.0
C2335 C 0.23267 0.59598 0.3413 0.0
H2336 H 0.21731 0.0611 0.2581 0.0
H2337 H 0.11877 0.054 0.25358 0.0
H2338 H 0.22361 0.02355 0.23777 0.0
H2339 H 0.12494 0.01608 0.23407 0.0
H2340 H 0.13815 0.96616 0.19201 0.0
H2341 H 0.13952 0.00987 0.20898 0.0
H2342 H 0.21681 0.9698 0.23246 0.0
H2343 H 0.21652 0.9268 0.21457 0.0
C2344 C 0.19706 0.05163 0.25276 0.0
C2345 C 0.16756 0.06068 0.2574 0.0
C2346 C 0.20066 0.03 0.2412 0.0
C2347 C 0.17481 0.01696 0.23417 0.0
C2348 C 0.14543 0.0262 0.23887 0.0
C2349 C 0.14187 0.0479 0.2502 0.0
C2350 C 0.15561 0.96693 0.20072 0.0
C2351 C 0.17688 0.94307 0.20225 0.0
C2352 C 0.15635 0.99186 0.21049 0.0
C2353 C 0.17776 0.993 0.22235 0.0
C2354 C 0.20006 0.96971 0.22343 0.0
C2355 C 0.19981 0.94502 0.21331 0.0
H2356 H 0.20111 0.95667 0.51709 0.0
H2357 H 0.1746 0.86603 0.50211 0.0
H2358 H 0.24309 0.95673 0.49894 0.0
H2359 H 0.21596 0.86652 0.48368 0.0
H2360 H 0.29438 0.95918 0.45414 0.0
H2361 H 0.25253 0.9591 0.47225 0.0
H2362 H 0.27111 0.86398 0.48267 0.0
H2363 H 0.31249 0.86375 0.46416 0.0
C2364 C 0.20403 0.9369 0.50982 0.0
C2365 C 0.18458 0.91132 0.51107 0.0
C2366 C 0.22803 0.93698 0.49938 0.0
C2367 C 0.23291 0.91158 0.48991 0.0
C2368 C 0.21316 0.88621 0.49101 0.0
C2369 C 0.18931 0.88603 0.50151 0.0
C2370 C 0.28964 0.93825 0.46032 0.0
C2371 C 0.30677 0.91145 0.4577 0.0
C2372 C 0.26571 0.93826 0.47076 0.0
C2373 C 0.2585 0.91155 0.4789 0.0
C2374 C 0.2758 0.88481 0.47639 0.0
C2375 C 0.29963 0.88473 0.46586 0.0
H2376 H 0.37702 0.03617 0.69601 0.0
H2377 H 0.28905 0.065 0.71336 0.0
H2378 H 0.37638 0.99215 0.71307 0.0
H2379 H 0.28905 0.02229 0.73097 0.0
H2380 H 0.2823 0.92932 0.75215 0.0
H2381 H 0.28308 0.96927 0.73285 0.0
H2382 H 0.38133 0.9782 0.73837 0.0
H2383 H 0.38064 0.93728 0.75691 0.0
C2384 C 0.3578 0.03329 0.70364 0.0
C2385 C 0.33308 0.05386 0.70337 0.0
C2386 C 0.3574 0.00814 0.71345 0.0
C2387 C 0.33255 0.00347 0.72337 0.0
C2388 C 0.30817 0.02457 0.72324 0.0
C2389 C 0.3083 0.04927 0.71325 0.0
C2390 C 0.30404 0.93967 0.74908 0.0
C2391 C 0.33136 0.93022 0.75603 0.0
C2392 C 0.30452 0.96273 0.73811 0.0
C2393 C 0.33226 0.97725 0.73412 0.0
C2394 C 0.35962 0.96729 0.74092 0.0
C2395 C 0.35919 0.94388 0.75165 0.0
H2396 H 0.19959 0.04256 0.95706 0.0
H2397 H 0.17745 0.13931 0.95756 0.0
H2398 H 0.23602 0.05044 0.97736 0.0
H2399 H 0.21395 0.14703 0.97822 0.0
H2400 H 0.30988 0.14462 0.00428 0.0
H2401 H 0.27075 0.14396 0.98434 0.0
H2402 H 0.23052 0.06289 0.00433 0.0
H2403 H 0.26964 0.06315 0.02385 0.0
C2404 C 0.2025 0.06554 0.96148 0.0
C2405 C 0.18536 0.09023 0.95578 0.0
C2406 C 0.22326 0.07002 0.97319 0.0
C2407 C 0.22734 0.09925 0.97955 0.0
C2408 C 0.21115 0.12425 0.97353 0.0
C2409 C 0.19026 0.11978 0.96174 0.0
C2410 C 0.29225 0.1271 0.00452 0.0
C2411 C 0.29302 0.10361 0.01539 0.0
C2412 C 0.26993 0.1267 -0.00686 0.0
C2413 C 0.24813 0.10292 -0.00739 0.0
C2414 C 0.2476 0.08097 0.00421 0.0
C2415 C 0.26989 0.08121 0.01542 0.0
H2416 H 0.78327 0.93605 0.71897 0.0
H2417 H 0.88211 0.93646 0.71517 0.0
H2418 H 0.78614 0.97703 0.7376 0.0
H2419 H 0.88499 0.97837 0.73317 0.0
H2420 H 0.88116 0.03519 0.77636 0.0
H2421 H 0.87921 0.9923 0.75868 0.0
H2422 H 0.79645 0.0298 0.73901 0.0
H2423 H 0.79769 0.07156 0.75712 0.0
C2424 C 0.80557 0.94502 0.72207 0.0
C2425 C 0.83243 0.93309 0.71562 0.0
C2426 C 0.80726 0.96866 0.73266 0.0
C2427 C 0.83581 0.98123 0.73681 0.0
C2428 C 0.86266 0.96899 0.73044 0.0
C2429 C 0.861 0.94503 0.72005 0.0
C2430 C 0.86272 0.03424 0.76817 0.0
C2431 C 0.8395 0.05652 0.76814 0.0
C2432 C 0.86158 0.00974 0.75802 0.0
C2433 C 0.83748 0.00739 0.74749 0.0
C2434 C 0.81486 0.03035 0.74721 0.0
C2435 C 0.81572 0.05446 0.7575 0.0
H2436 H 0.70325 0.13064 0.51991 0.0
H2437 H 0.67956 0.03828 0.50666 0.0
H2438 H 0.74622 0.13017 0.50236 0.0
H2439 H 0.72135 0.03829 0.48843 0.0
H2440 H 0.81536 0.03505 0.46741 0.0
H2441 H 0.77462 0.0358 0.48625 0.0
H2442 H 0.75907 0.13204 0.47692 0.0
H2443 H 0.80089 0.13154 0.45881 0.0
C2444 C 0.70698 0.11043 0.51303 0.0
C2445 C 0.68817 0.0845 0.51461 0.0
C2446 C 0.73154 0.11015 0.50293 0.0
C2447 C 0.73738 0.08416 0.49395 0.0
C2448 C 0.71806 0.05845 0.49538 0.0
C2449 C 0.69391 0.05851 0.50572 0.0
C2450 C 0.80334 0.05637 0.46952 0.0
C2451 C 0.81129 0.08323 0.46171 0.0
C2452 C 0.77981 0.05679 0.48022 0.0
C2453 C 0.76333 0.08395 0.48307 0.0
C2454 C 0.77155 0.11084 0.47526 0.0
C2455 C 0.79547 0.11055 0.46481 0.0
H2456 H 0.60981 0.91776 0.2533 0.0
H2457 H 0.69881 0.95384 0.26565 0.0
H2458 H 0.60638 0.95532 0.23295 0.0
H2459 H 0.69495 0.99174 0.24562 0.0
H2460 H 0.69507 0.03212 0.19902 0.0
H2461 H 0.69618 0.99277 0.21838 0.0
H2462 H 0.60092 0.01061 0.22871 0.0
H2463 H 0.59951 0.04975 0.20892 0.0
C2464 C 0.62859 0.93378 0.25172 0.0
C2465 C 0.6547 0.93271 0.26103 0.0
C2466 C 0.62649 0.95537 0.24012 0.0
C2467 C 0.65045 0.97633 0.23765 0.0
C2468 C 0.67636 0.97548 0.24707 0.0
C2469 C 0.67853 0.95385 0.25861 0.0
C2470 C 0.67428 0.02766 0.20537 0.0
C2471 C 0.64726 0.04426 0.20255 0.0
C2472 C 0.67499 0.00518 0.21652 0.0
C2473 C 0.64878 -0.00108 0.2252 0.0
C2474 C 0.62145 0.01487 0.22213 0.0
C2475 C 0.62066 0.03732 0.21085 0.0
H2476 H 0.79842 0.96859 0.01437 0.0
H2477 H 0.81824 0.87753 -0.00242 0.0
H2478 H 0.75441 0.97182 -0.00254 0.0
H2479 H 0.77463 0.88112 0.98056 0.0
H2480 H 0.69274 0.97227 0.95437 0.0
H2481 H 0.73824 0.97335 0.97049 0.0
H2482 H 0.71891 0.88076 0.98515 0.0
H2483 H 0.67393 0.87941 0.96902 0.0
C2484 C 0.79375 0.94948 0.00691 0.0
C2485 C 0.8116 0.92261 0.00748 0.0
C2486 C 0.76857 0.9514 -0.00279 0.0
C2487 C 0.76082 0.9265 -0.01208 0.0
C2488 C 0.77967 0.90037 -0.01212 0.0
C2489 C 0.80479 0.89842 -0.00244 0.0
C2490 C 0.69802 0.95229 0.96118 0.0
C2491 C 0.67989 0.92564 0.9603 0.0
C2492 C 0.72407 0.95293 0.97038 0.0
C2493 C 0.73239 0.92693 0.97882 0.0
C2494 C 0.71349 0.90085 0.97845 0.0
C2495 C 0.68756 0.9002 0.96929 0.0
H2496 H 0.61724 0.55162 0.76281 0.0
H2497 H 0.71496 0.56274 0.7567 0.0
H2498 H 0.61678 0.51089 0.74425 0.0
H2499 H 0.71435 0.52296 0.73731 0.0
H2500 H 0.70899 0.42843 0.71594 0.0
H2501 H 0.70974 0.47 0.73423 0.0
H2502 H 0.62014 0.49918 0.71882 0.0
H2503 H 0.61881 0.45636 0.7012 0.0
C2504 C 0.63859 0.54572 0.75725 0.0
C2505 C 0.66617 0.56035 0.76118 0.0
C2506 C 0.6383 0.52242 0.74651 0.0
C2507 C 0.66549 0.51356 0.73919 0.0
C2508 C 0.69304 0.52873 0.74291 0.0
C2509 C 0.69342 0.55169 0.75392 0.0
C2510 C 0.68942 0.4437 0.71655 0.0
C2511 C 0.66375 0.43914 0.70725 0.0
C2512 C 0.68995 0.46774 0.72693 0.0
C2513 C 0.66507 0.48814 0.72801 0.0
C2514 C 0.63948 0.48362 0.71855 0.0
C2515 C 0.63869 0.45915 0.70841 0.0
H2516 H 0.78468 0.4508 0.95478 0.0
H2517 H 0.81153 0.35923 0.96817 0.0
H2518 H 0.74465 0.45059 0.97383 0.0
H2519 H 0.77175 0.3594 -0.01237 0.0
H2520 H 0.67772 0.36254 0.01182 0.0
H2521 H 0.71629 0.35959 -0.00815 0.0
H2522 H 0.7427 0.45338 0.0009 0.0
H2523 H 0.70388 0.45664 0.02045 0.0
C2524 C 0.7821 0.43062 0.96183 0.0
C2525 C 0.80148 0.40513 0.96006 0.0
C2526 C 0.75922 0.43057 0.9728 0.0
C2527 C 0.75532 0.40516 0.98238 0.0
C2528 C 0.7741 0.37926 0.98036 0.0
C2529 C 0.79693 0.37922 0.96926 0.0
C2530 C 0.6918 0.3825 0.00953 0.0
C2531 C 0.68756 0.40991 0.01764 0.0
C2532 C 0.71396 0.38075 -0.00185 0.0
C2533 C 0.73233 0.40634 -0.0053 0.0
C2534 C 0.72845 0.43347 0.00304 0.0
C2535 C 0.70628 0.43528 0.01432 0.0
H2536 H 0.87099 0.45047 0.26753 0.0
H2537 H 0.78023 0.42774 0.25147 0.0
H2538 H 0.87162 0.49565 0.2516 0.0
H2539 H 0.78149 0.47221 0.23465 0.0
H2540 H 0.78218 0.56965 0.21596 0.0
H2541 H 0.77964 0.5261 0.2333 0.0
H2542 H 0.87672 0.51023 0.22668 0.0
H2543 H 0.87942 0.55452 0.21022 0.0
C2544 C 0.85136 0.45488 0.26034 0.0
C2545 C 0.82567 0.43547 0.26062 0.0
C2546 C 0.85174 0.48077 0.25114 0.0
C2547 C 0.82674 0.48754 0.24168 0.0
C2548 C 0.80098 0.468 0.24193 0.0
C2549 C 0.80034 0.44237 0.25144 0.0
C2550 C 0.80296 0.55695 0.21839 0.0
C2551 C 0.83103 0.56562 0.21188 0.0
C2552 C 0.80149 0.53183 0.22821 0.0
C2553 C 0.82799 0.51458 0.23145 0.0
C2554 C 0.85597 0.52333 0.2248 0.0
C2555 C 0.85753 0.54872 0.21528 0.0
H2556 H 0.69489 0.6227 0.45354 0.0
H2557 H 0.67627 0.5275 0.46361 0.0
H2558 H 0.73722 0.62232 0.47134 0.0
H2559 H 0.71768 0.52744 0.48212 0.0
H2560 H 0.81317 0.52878 0.50317 0.0
H2561 H 0.77129 0.52819 0.48488 0.0
H2562 H 0.74869 0.62169 0.4969 0.0
H2563 H 0.79137 0.62268 0.51443 0.0
C2564 C 0.69955 0.60181 0.45978 0.0
C2565 C 0.68224 0.57516 0.45723 0.0
C2566 C 0.72377 0.60159 0.47005 0.0
C2567 C 0.7309 0.57487 0.47827 0.0
C2568 C 0.71326 0.54828 0.47582 0.0
C2569 C 0.68935 0.54836 0.46531 0.0
C2570 C 0.79927 0.54919 0.50181 0.0
C2571 C 0.80569 0.57584 0.51011 0.0
C2572 C 0.77511 0.54882 0.49142 0.0
C2573 C 0.75656 0.57494 0.48934 0.0
C2574 C 0.76286 0.60139 0.49788 0.0
C2575 C 0.78729 0.60193 0.50801 0.0
H2576 H 0.37847 0.53858 0.26118 0.0
H2577 H 0.28608 0.56383 0.24864 0.0
H2578 H 0.37678 0.4959 0.24343 0.0
H2579 H 0.28483 0.52221 0.2304 0.0
H2580 H 0.27667 0.42479 0.21413 0.0
H2581 H 0.28092 0.46836 0.23103 0.0
H2582 H 0.3756 0.48071 0.21764 0.0
H2583 H 0.37161 0.436 0.20117 0.0
C2584 C 0.35802 0.53531 0.25442 0.0
C2585 C 0.33228 0.55424 0.25638 0.0
C2586 C 0.35708 0.51095 0.2442 0.0
C2587 C 0.33052 0.50539 0.23562 0.0
C2588 C 0.30533 0.5253 0.23713 0.0
C2589 C 0.3061 0.54928 0.24751 0.0
C2590 C 0.29841 0.43679 0.21481 0.0
C2591 C 0.32379 0.4271 0.20632 0.0
C2592 C 0.3008 0.46193 0.22441 0.0
C2593 C 0.32849 0.47831 0.22555 0.0
C2594 C 0.35401 0.46843 0.21714 0.0
C2595 C 0.35173 0.4429 0.20768 0.0
H2596 H 0.30785 0.62302 0.96752 0.0
H2597 H 0.30295 0.5258 0.95798 0.0
H2598 H 0.26265 0.61871 0.98345 0.0
H2599 H 0.25724 0.52172 0.97375 0.0
H2600 H 0.19681 0.52595 0.01743 0.0
H2601 H 0.24057 0.52576 0.00025 0.0
H2602 H 0.20784 0.60957 0.97975 0.0
H2603 H 0.16453 0.61017 -0.00295 0.0
C2604 C 0.29721 0.6007 0.96884 0.0
C2605 C 0.30896 0.57478 0.96142 0.0
C2606 C 0.27112 0.5983 0.97786 0.0
C2607 C 0.25614 0.56997 0.97964 0.0
C2608 C 0.26835 0.54384 0.9726 0.0
C2609 C 0.29452 0.54622 0.96356 0.0
C2610 C 0.19866 0.54404 0.00908 0.0
C2611 C 0.17745 0.56832 0.00874 0.0
C2612 C 0.22373 0.54391 -0.00076 0.0
C2613 C 0.22791 0.56798 -0.01112 0.0
C2614 C 0.20562 0.59114 -0.0121 0.0
C2615 C 0.18068 0.59135 -0.00226 0.0
H2616 H 0.20652 0.55601 0.72141 0.0
H2617 H 0.10976 0.53656 0.71674 0.0
H2618 H 0.21018 0.51755 0.74134 0.0
H2619 H 0.11362 0.4972 0.73606 0.0
H2620 H 0.12309 0.44713 0.78035 0.0
H2621 H 0.12005 0.48876 0.76205 0.0
H2622 H 0.20958 0.464 0.74484 0.0
H2623 H 0.21314 0.42345 0.76362 0.0
C2624 C 0.1861 0.54336 0.72459 0.0
C2625 C 0.15787 0.54929 0.71755 0.0
C2626 C 0.1882 0.5212 0.73594 0.0
C2627 C 0.1622 0.50418 0.7403 0.0
C2628 C 0.13398 0.51024 0.73322 0.0
C2629 C 0.1318 0.5327 0.72207 0.0
C2630 C 0.1421 0.45068 0.77266 0.0
C2631 C 0.16833 0.43208 0.77339 0.0
C2632 C 0.14034 0.47443 0.76212 0.0
C2633 C 0.16455 0.47973 0.75192 0.0
C2634 C 0.19076 0.46101 0.75269 0.0
C2635 C 0.19272 0.4376 0.76338 0.0
H2636 H 0.1863 0.46247 0.46434 0.0
H2637 H 0.2031 0.36597 0.45706 0.0
H2638 H 0.22563 0.46322 0.48389 0.0
H2639 H 0.24358 0.36694 0.47589 0.0
H2640 H 0.29322 0.36991 0.5206 0.0
H2641 H 0.25287 0.36952 0.50164 0.0
H2642 H 0.27833 0.46156 0.48815 0.0
H2643 H 0.31742 0.46242 0.50776 0.0
C2644 C 0.19867 0.44151 0.46683 0.0
C2645 C 0.19158 0.41415 0.45926 0.0
C2646 C 0.22138 0.44194 0.47796 0.0
C2647 C 0.2379 0.41513 0.48152 0.0
C2648 C 0.23094 0.38787 0.47374 0.0
C2649 C 0.20784 0.38733 0.46286 0.0
C2650 C 0.29016 0.39 0.51355 0.0
C2651 C 0.30838 0.41619 0.51564 0.0
C2652 C 0.26713 0.38977 0.5026 0.0
C2653 C 0.26226 0.41551 0.49328 0.0
C2654 C 0.2809 0.44156 0.4953 0.0
C2655 C 0.3035 0.442 0.50646 0.0
loop_
_geom_bond_atom_site_label_1
_geom_bond_atom_site_label_2
_geom_bond_distance
_geom_bond_site_symmetry_2
_ccdc_geom_bond_type
O0 Zn1 1.953 . S
O0 C16 1.225 . S
Zn1 O0 1.953 . S
Zn1 O2 1.949 . S
Zn1 O8 1.919 . S
Zn1 O13 1.924 . S
O2 Zn1 1.949 . S
O2 Zn3 1.923 . S
O2 Zn4 1.950 . S
O2 Zn5 1.945 . S
Zn3 O2 1.923 . S
Zn3 O6 1.933 . S
Zn3 O9 1.941 . S
Zn3 O10 1.965 . S
Zn4 O2 1.950 . S
Zn4 O11 1.938 . S
Zn4 O12 1.906 . S
Zn4 O22 1.953 . S
Zn5 O2 1.945 . S
Zn5 O7 1.932 . S
Zn5 O14 1.977 . S
Zn5 O15 1.910 . S
O6 Zn3 1.933 . S
O6 C17 1.226 . S
O7 Zn5 1.932 . S
O7 C17 1.307 . S
O8 Zn1 1.919 . S
O8 C19 1.253 . S
O9 Zn3 1.941 . S
O9 C19 1.283 . S
O10 Zn3 1.965 . S
O10 C18 1.303 . S
O11 Zn4 1.938 . S
O11 C18 1.247 . S
O12 Zn4 1.906 . S
O12 C20 1.304 . S
O13 Zn1 1.924 . S
O13 C21 1.311 . S
O14 Zn5 1.977 . S
O14 C20 1.272 . S
O15 Zn5 1.910 . S
O15 C21 1.231 . S
C16 O0 1.225 . S
C16 O22 1.298 . S
C17 O6 1.226 . S
C17 O7 1.307 . S
C18 O10 1.303 . S
C18 O11 1.247 . S
C19 O8 1.253 . S
C19 O9 1.283 . S
C20 O12 1.304 . S
C20 O14 1.272 . S
C21 O13 1.311 . S
C21 O15 1.231 . S
O22 Zn4 1.953 . S
O22 C16 1.298 . S
O23 Zn24 1.953 . S
O23 C39 1.225 . S
Zn24 O23 1.953 . S
Zn24 O25 1.949 . S
Zn24 O31 1.919 . S
Zn24 O36 1.924 . S
O25 Zn24 1.949 . S
O25 Zn26 1.923 . S
O25 Zn27 1.950 . S
O25 Zn28 1.945 . S
Zn26 O25 1.923 . S
Zn26 O29 1.933 . S
Zn26 O32 1.941 . S
Zn26 O33 1.965 . S
Zn27 O25 1.950 . S
Zn27 O34 1.938 . S
Zn27 O35 1.906 . S
Zn27 O45 1.953 . S
Zn28 O25 1.945 . S
Zn28 O30 1.932 . S
Zn28 O37 1.977 . S
Zn28 O38 1.910 . S
O29 Zn26 1.933 . S
O29 C40 1.226 . S
O30 Zn28 1.932 . S
O30 C40 1.307 . S
O31 Zn24 1.919 . S
O31 C42 1.253 . S
O32 Zn26 1.941 . S
O32 C42 1.283 . S
O33 Zn26 1.965 . S
O33 C41 1.303 . S
O34 Zn27 1.938 . S
O34 C41 1.247 . S
O35 Zn27 1.906 . S
O35 C43 1.304 . S
O36 Zn24 1.924 . S
O36 C44 1.311 . S
O37 Zn28 1.977 . S
O37 C43 1.272 . S
O38 Zn28 1.910 . S
O38 C44 1.231 . S
C39 O23 1.225 . S
C39 O45 1.298 . S
C40 O29 1.226 . S
C40 O30 1.307 . S
C41 O33 1.303 . S
C41 O34 1.247 . S
C42 O31 1.253 . S
C42 O32 1.283 . S
C43 O35 1.304 . S
C43 O37 1.272 . S
C44 O36 1.311 . S
C44 O38 1.231 . S
O45 Zn27 1.953 . S
O45 C39 1.298 . S
O46 Zn47 1.953 . S
O46 C62 1.225 . S
Zn47 O46 1.953 . S
Zn47 O48 1.949 . S
Zn47 O54 1.919 . S
Zn47 O59 1.924 . S
O48 Zn47 1.949 . S
O48 Zn49 1.923 . S
O48 Zn50 1.950 . S
O48 Zn51 1.945 . S
Zn49 O48 1.923 . S
Zn49 O52 1.933 . S
Zn49 O55 1.941 . S
Zn49 O56 1.965 . S
Zn50 O48 1.950 . S
Zn50 O57 1.938 . S
Zn50 O58 1.906 . S
Zn50 O68 1.953 . S
Zn51 O48 1.945 . S
Zn51 O53 1.932 . S
Zn51 O60 1.977 . S
Zn51 O61 1.910 . S
O52 Zn49 1.933 . S
O52 C63 1.226 . S
O53 Zn51 1.932 . S
O53 C63 1.307 . S
O54 Zn47 1.919 . S
O54 C65 1.253 . S
O55 Zn49 1.941 . S
O55 C65 1.283 . S
O56 Zn49 1.965 . S
O56 C64 1.303 . S
O57 Zn50 1.938 . S
O57 C64 1.247 . S
O58 Zn50 1.906 . S
O58 C66 1.304 . S
O59 Zn47 1.924 . S
O59 C67 1.311 . S
O60 Zn51 1.977 . S
O60 C66 1.272 . S
O61 Zn51 1.910 . S
O61 C67 1.231 . S
C62 O46 1.225 . S
C62 O68 1.298 . S
C63 O52 1.226 . S
C63 O53 1.307 . S
C64 O56 1.303 . S
C64 O57 1.247 . S
C65 O54 1.253 . S
C65 O55 1.283 . S
C66 O58 1.304 . S
C66 O60 1.272 . S
C67 O59 1.311 . S
C67 O61 1.231 . S
O68 Zn50 1.953 . S
O68 C62 1.298 . S
O69 Zn70 1.953 . S
O69 C85 1.225 . S
Zn70 O69 1.953 . S
Zn70 O71 1.949 . S
Zn70 O77 1.919 . S
Zn70 O82 1.924 . S
O71 Zn70 1.949 . S
O71 Zn72 1.923 . S
O71 Zn73 1.950 . S
O71 Zn74 1.945 . S
Zn72 O71 1.923 . S
Zn72 O75 1.933 . S
Zn72 O78 1.941 . S
Zn72 O79 1.965 . S
Zn73 O71 1.950 . S
Zn73 O80 1.938 . S
Zn73 O81 1.906 . S
Zn73 O91 1.953 . S
Zn74 O71 1.945 . S
Zn74 O76 1.932 . S
Zn74 O83 1.977 . S
Zn74 O84 1.910 . S
O75 Zn72 1.933 . S
O75 C86 1.226 . S
O76 Zn74 1.932 . S
O76 C86 1.307 . S
O77 Zn70 1.919 . S
O77 C88 1.253 . S
O78 Zn72 1.941 . S
O78 C88 1.283 . S
O79 Zn72 1.965 . S
O79 C87 1.303 . S
O80 Zn73 1.938 . S
O80 C87 1.247 . S
O81 Zn73 1.906 . S
O81 C89 1.304 . S
O82 Zn70 1.924 . S
O82 C90 1.311 . S
O83 Zn74 1.977 . S
O83 C89 1.272 . S
O84 Zn74 1.910 . S
O84 C90 1.231 . S
C85 O69 1.225 . S
C85 O91 1.298 . S
C86 O75 1.226 . S
C86 O76 1.307 . S
C87 O79 1.303 . S
C87 O80 1.247 . S
C88 O77 1.253 . S
C88 O78 1.283 . S
C89 O81 1.304 . S
C89 O83 1.272 . S
C90 O82 1.311 . S
C90 O84 1.231 . S
O91 Zn73 1.953 . S
O91 C85 1.298 . S
O92 Zn93 1.953 . S
O92 C108 1.225 . S
Zn93 O92 1.953 . S
Zn93 O94 1.949 . S
Zn93 O100 1.919 . S
Zn93 O105 1.924 . S
O94 Zn93 1.949 . S
O94 Zn95 1.923 . S
O94 Zn96 1.950 . S
O94 Zn97 1.945 . S
Zn95 O94 1.923 . S
Zn95 O98 1.933 . S
Zn95 O101 1.941 . S
Zn95 O102 1.965 . S
Zn96 O94 1.950 . S
Zn96 O103 1.938 . S
Zn96 O104 1.906 . S
Zn96 O114 1.953 . S
Zn97 O94 1.945 . S
Zn97 O99 1.932 . S
Zn97 O106 1.977 . S
Zn97 O107 1.910 . S
O98 Zn95 1.933 . S
O98 C109 1.226 . S
O99 Zn97 1.932 . S
O99 C109 1.307 . S
O100 Zn93 1.919 . S
O100 C111 1.253 . S
O101 Zn95 1.941 . S
O101 C111 1.283 . S
O102 Zn95 1.965 . S
O102 C110 1.303 . S
O103 Zn96 1.938 . S
O103 C110 1.247 . S
O104 Zn96 1.906 . S
O104 C112 1.304 . S
O105 Zn93 1.924 . S
O105 C113 1.311 . S
O106 Zn97 1.977 . S
O106 C112 1.272 . S
O107 Zn97 1.910 . S
O107 C113 1.231 . S
C108 O92 1.225 . S
C108 O114 1.298 . S
C109 O98 1.226 . S
C109 O99 1.307 . S
C110 O102 1.303 . S
C110 O103 1.247 . S
C111 O100 1.253 . S
C111 O101 1.283 . S
C112 O104 1.304 . S
C112 O106 1.272 . S
C113 O105 1.311 . S
C113 O107 1.231 . S
O114 Zn96 1.953 . S
O114 C108 1.298 . S
O115 Zn116 1.953 . S
O115 C131 1.225 . S
Zn116 O115 1.953 . S
Zn116 O117 1.949 . S
Zn116 O123 1.919 . S
Zn116 O128 1.924 . S
O117 Zn116 1.949 . S
O117 Zn118 1.923 . S
O117 Zn119 1.950 . S
O117 Zn120 1.945 . S
Zn118 O117 1.923 . S
Zn118 O121 1.933 . S
Zn118 O124 1.941 . S
Zn118 O125 1.965 . S
Zn119 O117 1.950 . S
Zn119 O126 1.938 . S
Zn119 O127 1.906 . S
Zn119 O137 1.953 . S
Zn120 O117 1.945 . S
Zn120 O122 1.932 . S
Zn120 O129 1.977 . S
Zn120 O130 1.910 . S
O121 Zn118 1.933 . S
O121 C132 1.226 . S
O122 Zn120 1.932 . S
O122 C132 1.307 . S
O123 Zn116 1.919 . S
O123 C134 1.253 . S
O124 Zn118 1.941 . S
O124 C134 1.283 . S
O125 Zn118 1.965 . S
O125 C133 1.303 . S
O126 Zn119 1.938 . S
O126 C133 1.247 . S
O127 Zn119 1.906 . S
O127 C135 1.304 . S
O128 Zn116 1.924 . S
O128 C136 1.311 . S
O129 Zn120 1.977 . S
O129 C135 1.272 . S
O130 Zn120 1.910 . S
O130 C136 1.231 . S
C131 O115 1.225 . S
C131 O137 1.298 . S
C132 O121 1.226 . S
C132 O122 1.307 . S
C133 O125 1.303 . S
C133 O126 1.247 . S
C134 O123 1.253 . S
C134 O124 1.283 . S
C135 O127 1.304 . S
C135 O129 1.272 . S
C136 O128 1.311 . S
C136 O130 1.231 . S
O137 Zn119 1.953 . S
O137 C131 1.298 . S
O138 Zn139 1.953 . S
O138 C154 1.225 . S
Zn139 O138 1.953 . S
Zn139 O140 1.949 . S
Zn139 O146 1.919 . S
Zn139 O151 1.924 . S
O140 Zn139 1.949 . S
O140 Zn141 1.923 . S
O140 Zn142 1.950 . S
O140 Zn143 1.945 . S
Zn141 O140 1.923 . S
Zn141 O144 1.933 . S
Zn141 O147 1.941 . S
Zn141 O148 1.965 . S
Zn142 O140 1.950 . S
Zn142 O149 1.938 . S
Zn142 O150 1.906 . S
Zn142 O160 1.953 . S
Zn143 O140 1.945 . S
Zn143 O145 1.932 . S
Zn143 O152 1.977 . S
Zn143 O153 1.910 . S
O144 Zn141 1.933 . S
O144 C155 1.226 . S
O145 Zn143 1.932 . S
O145 C155 1.307 . S
O146 Zn139 1.919 . S
O146 C157 1.253 . S
O147 Zn141 1.941 . S
O147 C157 1.283 . S
O148 Zn141 1.965 . S
O148 C156 1.303 . S
O149 Zn142 1.938 . S
O149 C156 1.247 . S
O150 Zn142 1.906 . S
O150 C158 1.304 . S
O151 Zn139 1.924 . S
O151 C159 1.311 . S
O152 Zn143 1.977 . S
O152 C158 1.272 . S
O153 Zn143 1.910 . S
O153 C159 1.231 . S
C154 O138 1.225 . S
C154 O160 1.298 . S
C155 O144 1.226 . S
C155 O145 1.307 . S
C156 O148 1.303 . S
C156 O149 1.247 . S
C157 O146 1.253 . S
C157 O147 1.283 . S
C158 O150 1.304 . S
C158 O152 1.272 . S
C159 O151 1.311 . S
C159 O153 1.231 . S
O160 Zn142 1.953 . S
O160 C154 1.298 . S
O161 Zn162 1.953 . S
O161 C177 1.225 . S
Zn162 O161 1.953 . S
Zn162 O163 1.949 . S
Zn162 O169 1.919 . S
Zn162 O174 1.924 . S
O163 Zn162 1.949 . S
O163 Zn164 1.923 . S
O163 Zn165 1.950 . S
O163 Zn166 1.945 . S
Zn164 O163 1.923 . S
Zn164 O167 1.933 . S
Zn164 O170 1.941 . S
Zn164 O171 1.965 . S
Zn165 O163 1.950 . S
Zn165 O172 1.938 . S
Zn165 O173 1.906 . S
Zn165 O183 1.953 . S
Zn166 O163 1.945 . S
Zn166 O168 1.932 . S
Zn166 O175 1.977 . S
Zn166 O176 1.910 . S
O167 Zn164 1.933 . S
O167 C178 1.226 . S
O168 Zn166 1.932 . S
O168 C178 1.307 . S
O169 Zn162 1.919 . S
O169 C180 1.253 . S
O170 Zn164 1.941 . S
O170 C180 1.283 . S
O171 Zn164 1.965 . S
O171 C179 1.303 . S
O172 Zn165 1.938 . S
O172 C179 1.247 . S
O173 Zn165 1.906 . S
O173 C181 1.304 . S
O174 Zn162 1.924 . S
O174 C182 1.311 . S
O175 Zn166 1.977 . S
O175 C181 1.272 . S
O176 Zn166 1.910 . S
O176 C182 1.231 . S
C177 O161 1.225 . S
C177 O183 1.298 . S
C178 O167 1.226 . S
C178 O168 1.307 . S
C179 O171 1.303 . S
C179 O172 1.247 . S
C180 O169 1.253 . S
C180 O170 1.283 . S
C181 O173 1.304 . S
C181 O175 1.272 . S
C182 O174 1.311 . S
C182 O176 1.231 . S
O183 Zn165 1.953 . S
O183 C177 1.298 . S
O184 Zn185 1.953 . S
O184 C200 1.225 . S
Zn185 O184 1.953 . S
Zn185 O186 1.949 . S
Zn185 O192 1.919 . S
Zn185 O197 1.924 . S
O186 Zn185 1.949 . S
O186 Zn187 1.923 . S
O186 Zn188 1.950 . S
O186 Zn189 1.945 . S
Zn187 O186 1.923 . S
Zn187 O190 1.933 . S
Zn187 O193 1.941 . S
Zn187 O194 1.965 . S
Zn188 O186 1.950 . S
Zn188 O195 1.938 . S
Zn188 O196 1.906 . S
Zn188 O206 1.953 . S
Zn189 O186 1.945 . S
Zn189 O191 1.932 . S
Zn189 O198 1.977 . S
Zn189 O199 1.910 . S
O190 Zn187 1.933 . S
O190 C201 1.226 . S
O191 Zn189 1.932 . S
O191 C201 1.307 . S
O192 Zn185 1.919 . S
O192 C203 1.253 . S
O193 Zn187 1.941 . S
O193 C203 1.283 . S
O194 Zn187 1.965 . S
O194 C202 1.303 . S
O195 Zn188 1.938 . S
O195 C202 1.247 . S
O196 Zn188 1.906 . S
O196 C204 1.304 . S
O197 Zn185 1.924 . S
O197 C205 1.311 . S
O198 Zn189 1.977 . S
O198 C204 1.272 . S
O199 Zn189 1.910 . S
O199 C205 1.231 . S
C200 O184 1.225 . S
C200 O206 1.298 . S
C201 O190 1.226 . S
C201 O191 1.307 . S
C202 O194 1.303 . S
C202 O195 1.247 . S
C203 O192 1.253 . S
C203 O193 1.283 . S
C204 O196 1.304 . S
C204 O198 1.272 . S
C205 O197 1.311 . S
C205 O199 1.231 . S
O206 Zn188 1.953 . S
O206 C200 1.298 . S
O207 Zn208 1.953 . S
O207 C223 1.225 . S
Zn208 O207 1.953 . S
Zn208 O209 1.949 . S
Zn208 O215 1.919 . S
Zn208 O220 1.924 . S
O209 Zn208 1.949 . S
O209 Zn210 1.923 . S
O209 Zn211 1.950 . S
O209 Zn212 1.945 . S
Zn210 O209 1.923 . S
Zn210 O213 1.933 . S
Zn210 O216 1.941 . S
Zn210 O217 1.965 . S
Zn211 O209 1.950 . S
Zn211 O218 1.938 . S
Zn211 O219 1.906 . S
Zn211 O229 1.953 . S
Zn212 O209 1.945 . S
Zn212 O214 1.932 . S
Zn212 O221 1.977 . S
Zn212 O222 1.910 . S
O213 Zn210 1.933 . S
O213 C224 1.226 . S
O214 Zn212 1.932 . S
O214 C224 1.307 . S
O215 Zn208 1.919 . S
O215 C226 1.253 . S
O216 Zn210 1.941 . S
O216 C226 1.283 . S
O217 Zn210 1.965 . S
O217 C225 1.303 . S
O218 Zn211 1.938 . S
O218 C225 1.247 . S
O219 Zn211 1.906 . S
O219 C227 1.304 . S
O220 Zn208 1.924 . S
O220 C228 1.311 . S
O221 Zn212 1.977 . S
O221 C227 1.272 . S
O222 Zn212 1.910 . S
O222 C228 1.231 . S
C223 O207 1.225 . S
C223 O229 1.298 . S
C224 O213 1.226 . S
C224 O214 1.307 . S
C225 O217 1.303 . S
C225 O218 1.247 . S
C226 O215 1.253 . S
C226 O216 1.283 . S
C227 O219 1.304 . S
C227 O221 1.272 . S
C228 O220 1.311 . S
C228 O222 1.231 . S
O229 Zn211 1.953 . S
O229 C223 1.298 . S
O230 Zn231 1.953 . S
O230 C246 1.225 . S
Zn231 O230 1.953 . S
Zn231 O232 1.949 . S
Zn231 O238 1.919 . S
Zn231 O243 1.924 . S
O232 Zn231 1.949 . S
O232 Zn233 1.923 . S
O232 Zn234 1.950 . S
O232 Zn235 1.945 . S
Zn233 O232 1.923 . S
Zn233 O236 1.933 . S
Zn233 O239 1.941 . S
Zn233 O240 1.965 . S
Zn234 O232 1.950 . S
Zn234 O241 1.938 . S
Zn234 O242 1.906 . S
Zn234 O252 1.953 . S
Zn235 O232 1.945 . S
Zn235 O237 1.932 . S
Zn235 O244 1.977 . S
Zn235 O245 1.910 . S
O236 Zn233 1.933 . S
O236 C247 1.226 . S
O237 Zn235 1.932 . S
O237 C247 1.307 . S
O238 Zn231 1.919 . S
O238 C249 1.253 . S
O239 Zn233 1.941 . S
O239 C249 1.283 . S
O240 Zn233 1.965 . S
O240 C248 1.303 . S
O241 Zn234 1.938 . S
O241 C248 1.247 . S
O242 Zn234 1.906 . S
O242 C250 1.304 . S
O243 Zn231 1.924 . S
O243 C251 1.311 . S
O244 Zn235 1.977 . S
O244 C250 1.272 . S
O245 Zn235 1.910 . S
O245 C251 1.231 . S
C246 O230 1.225 . S
C246 O252 1.298 . S
C247 O236 1.226 . S
C247 O237 1.307 . S
C248 O240 1.303 . S
C248 O241 1.247 . S
C249 O238 1.253 . S
C249 O239 1.283 . S
C250 O242 1.304 . S
C250 O244 1.272 . S
C251 O243 1.311 . S
C251 O245 1.231 . S
O252 Zn234 1.953 . S
O252 C246 1.298 . S
O253 Zn254 1.953 . S
O253 C269 1.225 . S
Zn254 O253 1.953 . S
Zn254 O255 1.949 . S
Zn254 O261 1.919 . S
Zn254 O266 1.924 . S
O255 Zn254 1.949 . S
O255 Zn256 1.923 . S
O255 Zn257 1.950 . S
O255 Zn258 1.945 . S
Zn256 O255 1.923 . S
Zn256 O259 1.933 . S
Zn256 O262 1.941 . S
Zn256 O263 1.965 . S
Zn257 O255 1.950 . S
Zn257 O264 1.938 . S
Zn257 O265 1.906 . S
Zn257 O275 1.953 . S
Zn258 O255 1.945 . S
Zn258 O260 1.932 . S
Zn258 O267 1.977 . S
Zn258 O268 1.910 . S
O259 Zn256 1.933 . S
O259 C270 1.226 . S
O260 Zn258 1.932 . S
O260 C270 1.307 . S
O261 Zn254 1.919 . S
O261 C272 1.253 . S
O262 Zn256 1.941 . S
O262 C272 1.283 . S
O263 Zn256 1.965 . S
O263 C271 1.303 . S
O264 Zn257 1.938 . S
O264 C271 1.247 . S
O265 Zn257 1.906 . S
O265 C273 1.304 . S
O266 Zn254 1.924 . S
O266 C274 1.311 . S
O267 Zn258 1.977 . S
O267 C273 1.272 . S
O268 Zn258 1.910 . S
O268 C274 1.231 . S
C269 O253 1.225 . S
C269 O275 1.298 . S
C270 O259 1.226 . S
C270 O260 1.307 . S
C271 O263 1.303 . S
C271 O264 1.247 . S
C272 O261 1.253 . S
C272 O262 1.283 . S
C273 O265 1.304 . S
C273 O267 1.272 . S
C274 O266 1.311 . S
C274 O268 1.231 . S
O275 Zn257 1.953 . S
O275 C269 1.298 . S
O276 Zn277 1.953 . S
O276 C292 1.225 . S
Zn277 O276 1.953 . S
Zn277 O278 1.949 . S
Zn277 O284 1.919 . S
Zn277 O289 1.924 . S
O278 Zn277 1.949 . S
O278 Zn279 1.923 . S
O278 Zn280 1.950 . S
O278 Zn281 1.945 . S
Zn279 O278 1.923 . S
Zn279 O282 1.933 . S
Zn279 O285 1.941 . S
Zn279 O286 1.965 . S
Zn280 O278 1.950 . S
Zn280 O287 1.938 . S
Zn280 O288 1.906 . S
Zn280 O298 1.953 . S
Zn281 O278 1.945 . S
Zn281 O283 1.932 . S
Zn281 O290 1.977 . S
Zn281 O291 1.910 . S
O282 Zn279 1.933 . S
O282 C293 1.226 . S
O283 Zn281 1.932 . S
O283 C293 1.307 . S
O284 Zn277 1.919 . S
O284 C295 1.253 . S
O285 Zn279 1.941 . S
O285 C295 1.283 . S
O286 Zn279 1.965 . S
O286 C294 1.303 . S
O287 Zn280 1.938 . S
O287 C294 1.247 . S
O288 Zn280 1.906 . S
O288 C296 1.304 . S
O289 Zn277 1.924 . S
O289 C297 1.311 . S
O290 Zn281 1.977 . S
O290 C296 1.272 . S
O291 Zn281 1.910 . S
O291 C297 1.231 . S
C292 O276 1.225 . S
C292 O298 1.298 . S
C293 O282 1.226 . S
C293 O283 1.307 . S
C294 O286 1.303 . S
C294 O287 1.247 . S
C295 O284 1.253 . S
C295 O285 1.283 . S
C296 O288 1.304 . S
C296 O290 1.272 . S
C297 O289 1.311 . S
C297 O291 1.231 . S
O298 Zn280 1.953 . S
O298 C292 1.298 . S
O299 Zn300 1.953 . S
O299 C315 1.225 . S
Zn300 O299 1.953 . S
Zn300 O301 1.949 . S
Zn300 O307 1.919 . S
Zn300 O312 1.924 . S
O301 Zn300 1.949 . S
O301 Zn302 1.923 . S
O301 Zn303 1.950 . S
O301 Zn304 1.945 . S
Zn302 O301 1.923 . S
Zn302 O305 1.933 . S
Zn302 O308 1.941 . S
Zn302 O309 1.965 . S
Zn303 O301 1.950 . S
Zn303 O310 1.938 . S
Zn303 O311 1.906 . S
Zn303 O321 1.953 . S
Zn304 O301 1.945 . S
Zn304 O306 1.932 . S
Zn304 O313 1.977 . S
Zn304 O314 1.910 . S
O305 Zn302 1.933 . S
O305 C316 1.226 . S
O306 Zn304 1.932 . S
O306 C316 1.307 . S
O307 Zn300 1.919 . S
O307 C318 1.253 . S
O308 Zn302 1.941 . S
O308 C318 1.283 . S
O309 Zn302 1.965 . S
O309 C317 1.303 . S
O310 Zn303 1.938 . S
O310 C317 1.247 . S
O311 Zn303 1.906 . S
O311 C319 1.304 . S
O312 Zn300 1.924 . S
O312 C320 1.311 . S
O313 Zn304 1.977 . S
O313 C319 1.272 . S
O314 Zn304 1.910 . S
O314 C320 1.231 . S
C315 O299 1.225 . S
C315 O321 1.298 . S
C316 O305 1.226 . S
C316 O306 1.307 . S
C317 O309 1.303 . S
C317 O310 1.247 . S
C318 O307 1.253 . S
C318 O308 1.283 . S
C319 O311 1.304 . S
C319 O313 1.272 . S
C320 O312 1.311 . S
C320 O314 1.231 . S
O321 Zn303 1.953 . S
O321 C315 1.298 . S
O322 Zn323 1.953 . S
O322 C338 1.225 . S
Zn323 O322 1.953 . S
Zn323 O324 1.949 . S
Zn323 O330 1.919 . S
Zn323 O335 1.924 . S
O324 Zn323 1.949 . S
O324 Zn325 1.923 . S
O324 Zn326 1.950 . S
O324 Zn327 1.945 . S
Zn325 O324 1.923 . S
Zn325 O328 1.933 . S
Zn325 O331 1.941 . S
Zn325 O332 1.965 . S
Zn326 O324 1.950 . S
Zn326 O333 1.938 . S
Zn326 O334 1.906 . S
Zn326 O344 1.953 . S
Zn327 O324 1.945 . S
Zn327 O329 1.932 . S
Zn327 O336 1.977 . S
Zn327 O337 1.910 . S
O328 Zn325 1.933 . S
O328 C339 1.226 . S
O329 Zn327 1.932 . S
O329 C339 1.307 . S
O330 Zn323 1.919 . S
O330 C341 1.253 . S
O331 Zn325 1.941 . S
O331 C341 1.283 . S
O332 Zn325 1.965 . S
O332 C340 1.303 . S
O333 Zn326 1.938 . S
O333 C340 1.247 . S
O334 Zn326 1.906 . S
O334 C342 1.304 . S
O335 Zn323 1.924 . S
O335 C343 1.311 . S
O336 Zn327 1.977 . S
O336 C342 1.272 . S
O337 Zn327 1.910 . S
O337 C343 1.231 . S
C338 O322 1.225 . S
C338 O344 1.298 . S
C339 O328 1.226 . S
C339 O329 1.307 . S
C340 O332 1.303 . S
C340 O333 1.247 . S
C341 O330 1.253 . S
C341 O331 1.283 . S
C342 O334 1.304 . S
C342 O336 1.272 . S
C343 O335 1.311 . S
C343 O337 1.231 . S
O344 Zn326 1.953 . S
O344 C338 1.298 . S
O345 Zn346 1.953 . S
O345 C361 1.225 . S
Zn346 O345 1.953 . S
Zn346 O347 1.949 . S
Zn346 O353 1.919 . S
Zn346 O358 1.924 . S
O347 Zn346 1.949 . S
O347 Zn348 1.923 . S
O347 Zn349 1.950 . S
O347 Zn350 1.945 . S
Zn348 O347 1.923 . S
Zn348 O351 1.933 . S
Zn348 O354 1.941 . S
Zn348 O355 1.965 . S
Zn349 O347 1.950 . S
Zn349 O356 1.938 . S
Zn349 O357 1.906 . S
Zn349 O367 1.953 . S
Zn350 O347 1.945 . S
Zn350 O352 1.932 . S
Zn350 O359 1.977 . S
Zn350 O360 1.910 . S
O351 Zn348 1.933 . S
O351 C362 1.226 . S
O352 Zn350 1.932 . S
O352 C362 1.307 . S
O353 Zn346 1.919 . S
O353 C364 1.253 . S
O354 Zn348 1.941 . S
O354 C364 1.283 . S
O355 Zn348 1.965 . S
O355 C363 1.303 . S
O356 Zn349 1.938 . S
O356 C363 1.247 . S
O357 Zn349 1.906 . S
O357 C365 1.304 . S
O358 Zn346 1.924 . S
O358 C366 1.311 . S
O359 Zn350 1.977 . S
O359 C365 1.272 . S
O360 Zn350 1.910 . S
O360 C366 1.231 . S
C361 O345 1.225 . S
C361 O367 1.298 . S
C362 O351 1.226 . S
C362 O352 1.307 . S
C363 O355 1.303 . S
C363 O356 1.247 . S
C364 O353 1.253 . S
C364 O354 1.283 . S
C365 O357 1.304 . S
C365 O359 1.272 . S
C366 O358 1.311 . S
C366 O360 1.231 . S
O367 Zn349 1.953 . S
O367 C361 1.298 . S
O368 Zn369 1.953 . S
O368 C384 1.225 . S
Zn369 O368 1.953 . S
Zn369 O370 1.949 . S
Zn369 O376 1.919 . S
Zn369 O381 1.924 . S
O370 Zn369 1.949 . S
O370 Zn371 1.923 . S
O370 Zn372 1.950 . S
O370 Zn373 1.945 . S
Zn371 O370 1.923 . S
Zn371 O374 1.933 . S
Zn371 O377 1.941 . S
Zn371 O378 1.965 . S
Zn372 O370 1.950 . S
Zn372 O379 1.938 . S
Zn372 O380 1.906 . S
Zn372 O390 1.953 . S
Zn373 O370 1.945 . S
Zn373 O375 1.932 . S
Zn373 O382 1.977 . S
Zn373 O383 1.910 . S
O374 Zn371 1.933 . S
O374 C385 1.226 . S
O375 Zn373 1.932 . S
O375 C385 1.307 . S
O376 Zn369 1.919 . S
O376 C387 1.253 . S
O377 Zn371 1.941 . S
O377 C387 1.283 . S
O378 Zn371 1.965 . S
O378 C386 1.303 . S
O379 Zn372 1.938 . S
O379 C386 1.247 . S
O380 Zn372 1.906 . S
O380 C388 1.304 . S
O381 Zn369 1.924 . S
O381 C389 1.311 . S
O382 Zn373 1.977 . S
O382 C388 1.272 . S
O383 Zn373 1.910 . S
O383 C389 1.231 . S
C384 O368 1.225 . S
C384 O390 1.298 . S
C385 O374 1.226 . S
C385 O375 1.307 . S
C386 O378 1.303 . S
C386 O379 1.247 . S
C387 O376 1.253 . S
C387 O377 1.283 . S
C388 O380 1.304 . S
C388 O382 1.272 . S
C389 O381 1.311 . S
C389 O383 1.231 . S
O390 Zn372 1.953 . S
O390 C384 1.298 . S
O391 Zn392 1.953 . S
O391 C407 1.225 . S
Zn392 O391 1.953 . S
Zn392 O393 1.949 . S
Zn392 O399 1.919 . S
Zn392 O404 1.924 . S
O393 Zn392 1.949 . S
O393 Zn394 1.923 . S
O393 Zn395 1.950 . S
O393 Zn396 1.945 . S
Zn394 O393 1.923 . S
Zn394 O397 1.933 . S
Zn394 O400 1.941 . S
Zn394 O401 1.965 . S
Zn395 O393 1.950 . S
Zn395 O402 1.938 . S
Zn395 O403 1.906 . S
Zn395 O413 1.953 . S
Zn396 O393 1.945 . S
Zn396 O398 1.932 . S
Zn396 O405 1.977 . S
Zn396 O406 1.910 . S
O397 Zn394 1.933 . S
O397 C408 1.226 . S
O398 Zn396 1.932 . S
O398 C408 1.307 . S
O399 Zn392 1.919 . S
O399 C410 1.253 . S
O400 Zn394 1.941 . S
O400 C410 1.283 . S
O401 Zn394 1.965 . S
O401 C409 1.303 . S
O402 Zn395 1.938 . S
O402 C409 1.247 . S
O403 Zn395 1.906 . S
O403 C411 1.304 . S
O404 Zn392 1.924 . S
O404 C412 1.311 . S
O405 Zn396 1.977 . S
O405 C411 1.272 . S
O406 Zn396 1.910 . S
O406 C412 1.231 . S
C407 O391 1.225 . S
C407 O413 1.298 . S
C408 O397 1.226 . S
C408 O398 1.307 . S
C409 O401 1.303 . S
C409 O402 1.247 . S
C410 O399 1.253 . S
C410 O400 1.283 . S
C411 O403 1.304 . S
C411 O405 1.272 . S
C412 O404 1.311 . S
C412 O406 1.231 . S
O413 Zn395 1.953 . S
O413 C407 1.298 . S
O414 Zn415 1.953 . S
O414 C430 1.225 . S
Zn415 O414 1.953 . S
Zn415 O416 1.949 . S
Zn415 O422 1.919 . S
Zn415 O427 1.924 . S
O416 Zn415 1.949 . S
O416 Zn417 1.923 . S
O416 Zn418 1.950 . S
O416 Zn419 1.945 . S
Zn417 O416 1.923 . S
Zn417 O420 1.933 . S
Zn417 O423 1.941 . S
Zn417 O424 1.965 . S
Zn418 O416 1.950 . S
Zn418 O425 1.938 . S
Zn418 O426 1.906 . S
Zn418 O436 1.953 . S
Zn419 O416 1.945 . S
Zn419 O421 1.932 . S
Zn419 O428 1.977 . S
Zn419 O429 1.910 . S
O420 Zn417 1.933 . S
O420 C431 1.226 . S
O421 Zn419 1.932 . S
O421 C431 1.307 . S
O422 Zn415 1.919 . S
O422 C433 1.253 . S
O423 Zn417 1.941 . S
O423 C433 1.283 . S
O424 Zn417 1.965 . S
O424 C432 1.303 . S
O425 Zn418 1.938 . S
O425 C432 1.247 . S
O426 Zn418 1.906 . S
O426 C434 1.304 . S
O427 Zn415 1.924 . S
O427 C435 1.311 . S
O428 Zn419 1.977 . S
O428 C434 1.272 . S
O429 Zn419 1.910 . S
O429 C435 1.231 . S
C430 O414 1.225 . S
C430 O436 1.298 . S
C431 O420 1.226 . S
C431 O421 1.307 . S
C432 O424 1.303 . S
C432 O425 1.247 . S
C433 O422 1.253 . S
C433 O423 1.283 . S
C434 O426 1.304 . S
C434 O428 1.272 . S
C435 O427 1.311 . S
C435 O429 1.231 . S
O436 Zn418 1.953 . S
O436 C430 1.298 . S
O437 Zn438 1.953 . S
O437 C453 1.225 . S
Zn438 O437 1.953 . S
Zn438 O439 1.949 . S
Zn438 O445 1.919 . S
Zn438 O450 1.924 . S
O439 Zn438 1.949 . S
O439 Zn440 1.923 . S
O439 Zn441 1.950 . S
O439 Zn442 1.945 . S
Zn440 O439 1.923 . S
Zn440 O443 1.933 . S
Zn440 O446 1.941 . S
Zn440 O447 1.965 . S
Zn441 O439 1.950 . S
Zn441 O448 1.938 . S
Zn441 O449 1.906 . S
Zn441 O459 1.953 . S
Zn442 O439 1.945 . S
Zn442 O444 1.932 . S
Zn442 O451 1.977 . S
Zn442 O452 1.910 . S
O443 Zn440 1.933 . S
O443 C454 1.226 . S
O444 Zn442 1.932 . S
O444 C454 1.307 . S
O445 Zn438 1.919 . S
O445 C456 1.253 . S
O446 Zn440 1.941 . S
O446 C456 1.283 . S
O447 Zn440 1.965 . S
O447 C455 1.303 . S
O448 Zn441 1.938 . S
O448 C455 1.247 . S
O449 Zn441 1.906 . S
O449 C457 1.304 . S
O450 Zn438 1.924 . S
O450 C458 1.311 . S
O451 Zn442 1.977 . S
O451 C457 1.272 . S
O452 Zn442 1.910 . S
O452 C458 1.231 . S
C453 O437 1.225 . S
C453 O459 1.298 . S
C454 O443 1.226 . S
C454 O444 1.307 . S
C455 O447 1.303 . S
C455 O448 1.247 . S
C456 O445 1.253 . S
C456 O446 1.283 . S
C457 O449 1.304 . S
C457 O451 1.272 . S
C458 O450 1.311 . S
C458 O452 1.231 . S
O459 Zn441 1.953 . S
O459 C453 1.298 . S
O460 Zn461 1.953 . S
O460 C476 1.225 . S
Zn461 O460 1.953 . S
Zn461 O462 1.949 . S
Zn461 O468 1.919 . S
Zn461 O473 1.924 . S
O462 Zn461 1.949 . S
O462 Zn463 1.923 . S
O462 Zn464 1.950 . S
O462 Zn465 1.945 . S
Zn463 O462 1.923 . S
Zn463 O466 1.933 . S
Zn463 O469 1.941 . S
Zn463 O470 1.965 . S
Zn464 O462 1.950 . S
Zn464 O471 1.938 . S
Zn464 O472 1.906 . S
Zn464 O482 1.953 . S
Zn465 O462 1.945 . S
Zn465 O467 1.932 . S
Zn465 O474 1.977 . S
Zn465 O475 1.910 . S
O466 Zn463 1.933 . S
O466 C477 1.226 . S
O467 Zn465 1.932 . S
O467 C477 1.307 . S
O468 Zn461 1.919 . S
O468 C479 1.253 . S
O469 Zn463 1.941 . S
O469 C479 1.283 . S
O470 Zn463 1.965 . S
O470 C478 1.303 . S
O471 Zn464 1.938 . S
O471 C478 1.247 . S
O472 Zn464 1.906 . S
O472 C480 1.304 . S
O473 Zn461 1.924 . S
O473 C481 1.311 . S
O474 Zn465 1.977 . S
O474 C480 1.272 . S
O475 Zn465 1.910 . S
O475 C481 1.231 . S
C476 O460 1.225 . S
C476 O482 1.298 . S
C477 O466 1.226 . S
C477 O467 1.307 . S
C478 O470 1.303 . S
C478 O471 1.247 . S
C479 O468 1.253 . S
C479 O469 1.283 . S
C480 O472 1.304 . S
C480 O474 1.272 . S
C481 O473 1.311 . S
C481 O475 1.231 . S
O482 Zn464 1.953 . S
O482 C476 1.298 . S
O483 Zn484 1.953 . S
O483 C499 1.225 . S
Zn484 O483 1.953 . S
Zn484 O485 1.949 . S
Zn484 O491 1.919 . S
Zn484 O496 1.924 . S
O485 Zn484 1.949 . S
O485 Zn486 1.923 . S
O485 Zn487 1.950 . S
O485 Zn488 1.945 . S
Zn486 O485 1.923 . S
Zn486 O489 1.933 . S
Zn486 O492 1.941 . S
Zn486 O493 1.965 . S
Zn487 O485 1.950 . S
Zn487 O494 1.938 . S
Zn487 O495 1.906 . S
Zn487 O505 1.953 . S
Zn488 O485 1.945 . S
Zn488 O490 1.932 . S
Zn488 O497 1.977 . S
Zn488 O498 1.910 . S
O489 Zn486 1.933 . S
O489 C500 1.226 . S
O490 Zn488 1.932 . S
O490 C500 1.307 . S
O491 Zn484 1.919 . S
O491 C502 1.253 . S
O492 Zn486 1.941 . S
O492 C502 1.283 . S
O493 Zn486 1.965 . S
O493 C501 1.303 . S
O494 Zn487 1.938 . S
O494 C501 1.247 . S
O495 Zn487 1.906 . S
O495 C503 1.304 . S
O496 Zn484 1.924 . S
O496 C504 1.311 . S
O497 Zn488 1.977 . S
O497 C503 1.272 . S
O498 Zn488 1.910 . S
O498 C504 1.231 . S
C499 O483 1.225 . S
C499 O505 1.298 . S
C500 O489 1.226 . S
C500 O490 1.307 . S
C501 O493 1.303 . S
C501 O494 1.247 . S
C502 O491 1.253 . S
C502 O492 1.283 . S
C503 O495 1.304 . S
C503 O497 1.272 . S
C504 O496 1.311 . S
C504 O498 1.231 . S
O505 Zn487 1.953 . S
O505 C499 1.298 . S
O506 Zn507 1.953 . S
O506 C522 1.225 . S
Zn507 O506 1.953 . S
Zn507 O508 1.949 . S
Zn507 O514 1.919 . S
Zn507 O519 1.924 . S
O508 Zn507 1.949 . S
O508 Zn509 1.923 . S
O508 Zn510 1.950 . S
O508 Zn511 1.945 . S
Zn509 O508 1.923 . S
Zn509 O512 1.933 . S
Zn509 O515 1.941 . S
Zn509 O516 1.965 . S
Zn510 O508 1.950 . S
Zn510 O517 1.938 . S
Zn510 O518 1.906 . S
Zn510 O528 1.953 . S
Zn511 O508 1.945 . S
Zn511 O513 1.932 . S
Zn511 O520 1.977 . S
Zn511 O521 1.910 . S
O512 Zn509 1.933 . S
O512 C523 1.226 . S
O513 Zn511 1.932 . S
O513 C523 1.307 . S
O514 Zn507 1.919 . S
O514 C525 1.253 . S
O515 Zn509 1.941 . S
O515 C525 1.283 . S
O516 Zn509 1.965 . S
O516 C524 1.303 . S
O517 Zn510 1.938 . S
O517 C524 1.247 . S
O518 Zn510 1.906 . S
O518 C526 1.304 . S
O519 Zn507 1.924 . S
O519 C527 1.311 . S
O520 Zn511 1.977 . S
O520 C526 1.272 . S
O521 Zn511 1.910 . S
O521 C527 1.231 . S
C522 O506 1.225 . S
C522 O528 1.298 . S
C523 O512 1.226 . S
C523 O513 1.307 . S
C524 O516 1.303 . S
C524 O517 1.247 . S
C525 O514 1.253 . S
C525 O515 1.283 . S
C526 O518 1.304 . S
C526 O520 1.272 . S
C527 O519 1.311 . S
C527 O521 1.231 . S
O528 Zn510 1.953 . S
O528 C522 1.298 . S
O529 Zn530 1.953 . S
O529 C545 1.225 . S
Zn530 O529 1.953 . S
Zn530 O531 1.949 . S
Zn530 O537 1.919 . S
Zn530 O542 1.924 . S
O531 Zn530 1.949 . S
O531 Zn532 1.923 . S
O531 Zn533 1.950 . S
O531 Zn534 1.945 . S
Zn532 O531 1.923 . S
Zn532 O535 1.933 . S
Zn532 O538 1.941 . S
Zn532 O539 1.965 . S
Zn533 O531 1.950 . S
Zn533 O540 1.938 . S
Zn533 O541 1.906 . S
Zn533 O551 1.953 . S
Zn534 O531 1.945 . S
Zn534 O536 1.932 . S
Zn534 O543 1.977 . S
Zn534 O544 1.910 . S
O535 Zn532 1.933 . S
O535 C546 1.226 . S
O536 Zn534 1.932 . S
O536 C546 1.307 . S
O537 Zn530 1.919 . S
O537 C548 1.253 . S
O538 Zn532 1.941 . S
O538 C548 1.283 . S
O539 Zn532 1.965 . S
O539 C547 1.303 . S
O540 Zn533 1.938 . S
O540 C547 1.247 . S
O541 Zn533 1.906 . S
O541 C549 1.304 . S
O542 Zn530 1.924 . S
O542 C550 1.311 . S
O543 Zn534 1.977 . S
O543 C549 1.272 . S
O544 Zn534 1.910 . S
O544 C550 1.231 . S
C545 O529 1.225 . S
C545 O551 1.298 . S
C546 O535 1.226 . S
C546 O536 1.307 . S
C547 O539 1.303 . S
C547 O540 1.247 . S
C548 O537 1.253 . S
C548 O538 1.283 . S
C549 O541 1.304 . S
C549 O543 1.272 . S
C550 O542 1.311 . S
C550 O544 1.231 . S
O551 Zn533 1.953 . S
O551 C545 1.298 . S
O552 Zn553 1.953 . S
O552 C568 1.225 . S
Zn553 O552 1.953 . S
Zn553 O554 1.949 . S
Zn553 O560 1.919 . S
Zn553 O565 1.924 . S
O554 Zn553 1.949 . S
O554 Zn555 1.923 . S
O554 Zn556 1.950 . S
O554 Zn557 1.945 . S
Zn555 O554 1.923 . S
Zn555 O558 1.933 . S
Zn555 O561 1.941 . S
Zn555 O562 1.965 . S
Zn556 O554 1.950 . S
Zn556 O563 1.938 . S
Zn556 O564 1.906 . S
Zn556 O574 1.953 . S
Zn557 O554 1.945 . S
Zn557 O559 1.932 . S
Zn557 O566 1.977 . S
Zn557 O567 1.910 . S
O558 Zn555 1.933 . S
O558 C569 1.226 . S
O559 Zn557 1.932 . S
O559 C569 1.307 . S
O560 Zn553 1.919 . S
O560 C571 1.253 . S
O561 Zn555 1.941 . S
O561 C571 1.283 . S
O562 Zn555 1.965 . S
O562 C570 1.303 . S
O563 Zn556 1.938 . S
O563 C570 1.247 . S
O564 Zn556 1.906 . S
O564 C572 1.304 . S
O565 Zn553 1.924 . S
O565 C573 1.311 . S
O566 Zn557 1.977 . S
O566 C572 1.272 . S
O567 Zn557 1.910 . S
O567 C573 1.231 . S
C568 O552 1.225 . S
C568 O574 1.298 . S
C569 O558 1.226 . S
C569 O559 1.307 . S
C570 O562 1.303 . S
C570 O563 1.247 . S
C571 O560 1.253 . S
C571 O561 1.283 . S
C572 O564 1.304 . S
C572 O566 1.272 . S
C573 O565 1.311 . S
C573 O567 1.231 . S
O574 Zn556 1.953 . S
O574 C568 1.298 . S
O575 Zn576 1.953 . S
O575 C591 1.225 . S
Zn576 O575 1.953 . S
Zn576 O577 1.949 . S
Zn576 O583 1.919 . S
Zn576 O588 1.924 . S
O577 Zn576 1.949 . S
O577 Zn578 1.923 . S
O577 Zn579 1.950 . S
O577 Zn580 1.945 . S
Zn578 O577 1.923 . S
Zn578 O581 1.933 . S
Zn578 O584 1.941 . S
Zn578 O585 1.965 . S
Zn579 O577 1.950 . S
Zn579 O586 1.938 . S
Zn579 O587 1.906 . S
Zn579 O597 1.953 . S
Zn580 O577 1.945 . S
Zn580 O582 1.932 . S
Zn580 O589 1.977 . S
Zn580 O590 1.910 . S
O581 Zn578 1.933 . S
O581 C592 1.226 . S
O582 Zn580 1.932 . S
O582 C592 1.307 . S
O583 Zn576 1.919 . S
O583 C594 1.253 . S
O584 Zn578 1.941 . S
O584 C594 1.283 . S
O585 Zn578 1.965 . S
O585 C593 1.303 . S
O586 Zn579 1.938 . S
O586 C593 1.247 . S
O587 Zn579 1.906 . S
O587 C595 1.304 . S
O588 Zn576 1.924 . S
O588 C596 1.311 . S
O589 Zn580 1.977 . S
O589 C595 1.272 . S
O590 Zn580 1.910 . S
O590 C596 1.231 . S
C591 O575 1.225 . S
C591 O597 1.298 . S
C592 O581 1.226 . S
C592 O582 1.307 . S
C593 O585 1.303 . S
C593 O586 1.247 . S
C594 O583 1.253 . S
C594 O584 1.283 . S
C595 O587 1.304 . S
C595 O589 1.272 . S
C596 O588 1.311 . S
C596 O590 1.231 . S
O597 Zn579 1.953 . S
O597 C591 1.298 . S
O598 Zn599 1.953 . S
O598 C614 1.225 . S
Zn599 O598 1.953 . S
Zn599 O600 1.949 . S
Zn599 O606 1.919 . S
Zn599 O611 1.924 . S
O600 Zn599 1.949 . S
O600 Zn601 1.923 . S
O600 Zn602 1.950 . S
O600 Zn603 1.945 . S
Zn601 O600 1.923 . S
Zn601 O604 1.933 . S
Zn601 O607 1.941 . S
Zn601 O608 1.965 . S
Zn602 O600 1.950 . S
Zn602 O609 1.938 . S
Zn602 O610 1.906 . S
Zn602 O620 1.953 . S
Zn603 O600 1.945 . S
Zn603 O605 1.932 . S
Zn603 O612 1.977 . S
Zn603 O613 1.910 . S
O604 Zn601 1.933 . S
O604 C615 1.226 . S
O605 Zn603 1.932 . S
O605 C615 1.307 . S
O606 Zn599 1.919 . S
O606 C617 1.253 . S
O607 Zn601 1.941 . S
O607 C617 1.283 . S
O608 Zn601 1.965 . S
O608 C616 1.303 . S
O609 Zn602 1.938 . S
O609 C616 1.247 . S
O610 Zn602 1.906 . S
O610 C618 1.304 . S
O611 Zn599 1.924 . S
O611 C619 1.311 . S
O612 Zn603 1.977 . S
O612 C618 1.272 . S
O613 Zn603 1.910 . S
O613 C619 1.231 . S
C614 O598 1.225 . S
C614 O620 1.298 . S
C615 O604 1.226 . S
C615 O605 1.307 . S
C616 O608 1.303 . S
C616 O609 1.247 . S
C617 O606 1.253 . S
C617 O607 1.283 . S
C618 O610 1.304 . S
C618 O612 1.272 . S
C619 O611 1.311 . S
C619 O613 1.231 . S
O620 Zn602 1.953 . S
O620 C614 1.298 . S
O621 Zn622 1.953 . S
O621 C637 1.225 . S
Zn622 O621 1.953 . S
Zn622 O623 1.949 . S
Zn622 O629 1.919 . S
Zn622 O634 1.924 . S
O623 Zn622 1.949 . S
O623 Zn624 1.923 . S
O623 Zn625 1.950 . S
O623 Zn626 1.945 . S
Zn624 O623 1.923 . S
Zn624 O627 1.933 . S
Zn624 O630 1.941 . S
Zn624 O631 1.965 . S
Zn625 O623 1.950 . S
Zn625 O632 1.938 . S
Zn625 O633 1.906 . S
Zn625 O643 1.953 . S
Zn626 O623 1.945 . S
Zn626 O628 1.932 . S
Zn626 O635 1.977 . S
Zn626 O636 1.910 . S
O627 Zn624 1.933 . S
O627 C638 1.226 . S
O628 Zn626 1.932 . S
O628 C638 1.307 . S
O629 Zn622 1.919 . S
O629 C640 1.253 . S
O630 Zn624 1.941 . S
O630 C640 1.283 . S
O631 Zn624 1.965 . S
O631 C639 1.303 . S
O632 Zn625 1.938 . S
O632 C639 1.247 . S
O633 Zn625 1.906 . S
O633 C641 1.304 . S
O634 Zn622 1.924 . S
O634 C642 1.311 . S
O635 Zn626 1.977 . S
O635 C641 1.272 . S
O636 Zn626 1.910 . S
O636 C642 1.231 . S
C637 O621 1.225 . S
C637 O643 1.298 . S
C638 O627 1.226 . S
C638 O628 1.307 . S
C639 O631 1.303 . S
C639 O632 1.247 . S
C640 O629 1.253 . S
C640 O630 1.283 . S
C641 O633 1.304 . S
C641 O635 1.272 . S
C642 O634 1.311 . S
C642 O636 1.231 . S
O643 Zn625 1.953 . S
O643 C637 1.298 . S
O644 Zn645 1.953 . S
O644 C660 1.225 . S
Zn645 O644 1.953 . S
Zn645 O646 1.949 . S
Zn645 O652 1.919 . S
Zn645 O657 1.924 . S
O646 Zn645 1.949 . S
O646 Zn647 1.923 . S
O646 Zn648 1.950 . S
O646 Zn649 1.945 . S
Zn647 O646 1.923 . S
Zn647 O650 1.933 . S
Zn647 O653 1.941 . S
Zn647 O654 1.965 . S
Zn648 O646 1.950 . S
Zn648 O655 1.938 . S
Zn648 O656 1.906 . S
Zn648 O666 1.953 . S
Zn649 O646 1.945 . S
Zn649 O651 1.932 . S
Zn649 O658 1.977 . S
Zn649 O659 1.910 . S
O650 Zn647 1.933 . S
O650 C661 1.226 . S
O651 Zn649 1.932 . S
O651 C661 1.307 . S
O652 Zn645 1.919 . S
O652 C663 1.253 . S
O653 Zn647 1.941 . S
O653 C663 1.283 . S
O654 Zn647 1.965 . S
O654 C662 1.303 . S
O655 Zn648 1.938 . S
O655 C662 1.247 . S
O656 Zn648 1.906 . S
O656 C664 1.304 . S
O657 Zn645 1.924 . S
O657 C665 1.311 . S
O658 Zn649 1.977 . S
O658 C664 1.272 . S
O659 Zn649 1.910 . S
O659 C665 1.231 . S
C660 O644 1.225 . S
C660 O666 1.298 . S
C661 O650 1.226 . S
C661 O651 1.307 . S
C662 O654 1.303 . S
C662 O655 1.247 . S
C663 O652 1.253 . S
C663 O653 1.283 . S
C664 O656 1.304 . S
C664 O658 1.272 . S
C665 O657 1.311 . S
C665 O659 1.231 . S
O666 Zn648 1.953 . S
O666 C660 1.298 . S
O667 Zn668 1.953 . S
O667 C683 1.225 . S
Zn668 O667 1.953 . S
Zn668 O669 1.949 . S
Zn668 O675 1.919 . S
Zn668 O680 1.924 . S
O669 Zn668 1.949 . S
O669 Zn670 1.923 . S
O669 Zn671 1.950 . S
O669 Zn672 1.945 . S
Zn670 O669 1.923 . S
Zn670 O673 1.933 . S
Zn670 O676 1.941 . S
Zn670 O677 1.965 . S
Zn671 O669 1.950 . S
Zn671 O678 1.938 . S
Zn671 O679 1.906 . S
Zn671 O689 1.953 . S
Zn672 O669 1.945 . S
Zn672 O674 1.932 . S
Zn672 O681 1.977 . S
Zn672 O682 1.910 . S
O673 Zn670 1.933 . S
O673 C684 1.226 . S
O674 Zn672 1.932 . S
O674 C684 1.307 . S
O675 Zn668 1.919 . S
O675 C686 1.253 . S
O676 Zn670 1.941 . S
O676 C686 1.283 . S
O677 Zn670 1.965 . S
O677 C685 1.303 . S
O678 Zn671 1.938 . S
O678 C685 1.247 . S
O679 Zn671 1.906 . S
O679 C687 1.304 . S
O680 Zn668 1.924 . S
O680 C688 1.311 . S
O681 Zn672 1.977 . S
O681 C687 1.272 . S
O682 Zn672 1.910 . S
O682 C688 1.231 . S
C683 O667 1.225 . S
C683 O689 1.298 . S
C684 O673 1.226 . S
C684 O674 1.307 . S
C685 O677 1.303 . S
C685 O678 1.247 . S
C686 O675 1.253 . S
C686 O676 1.283 . S
C687 O679 1.304 . S
C687 O681 1.272 . S
C688 O680 1.311 . S
C688 O682 1.231 . S
O689 Zn671 1.953 . S
O689 C683 1.298 . S
O690 Zn691 1.953 . S
O690 C706 1.225 . S
Zn691 O690 1.953 . S
Zn691 O692 1.949 . S
Zn691 O698 1.919 . S
Zn691 O703 1.924 . S
O692 Zn691 1.949 . S
O692 Zn693 1.923 . S
O692 Zn694 1.950 . S
O692 Zn695 1.945 . S
Zn693 O692 1.923 . S
Zn693 O696 1.933 . S
Zn693 O699 1.941 . S
Zn693 O700 1.965 . S
Zn694 O692 1.950 . S
Zn694 O701 1.938 . S
Zn694 O702 1.906 . S
Zn694 O712 1.953 . S
Zn695 O692 1.945 . S
Zn695 O697 1.932 . S
Zn695 O704 1.977 . S
Zn695 O705 1.910 . S
O696 Zn693 1.933 . S
O696 C707 1.226 . S
O697 Zn695 1.932 . S
O697 C707 1.307 . S
O698 Zn691 1.919 . S
O698 C709 1.253 . S
O699 Zn693 1.941 . S
O699 C709 1.283 . S
O700 Zn693 1.965 . S
O700 C708 1.303 . S
O701 Zn694 1.938 . S
O701 C708 1.247 . S
O702 Zn694 1.906 . S
O702 C710 1.304 . S
O703 Zn691 1.924 . S
O703 C711 1.311 . S
O704 Zn695 1.977 . S
O704 C710 1.272 . S
O705 Zn695 1.910 . S
O705 C711 1.231 . S
C706 O690 1.225 . S
C706 O712 1.298 . S
C707 O696 1.226 . S
C707 O697 1.307 . S
C708 O700 1.303 . S
C708 O701 1.247 . S
C709 O698 1.253 . S
C709 O699 1.283 . S
C710 O702 1.304 . S
C710 O704 1.272 . S
C711 O703 1.311 . S
C711 O705 1.231 . S
O712 Zn694 1.953 . S
O712 C706 1.298 . S
O713 Zn714 1.953 . S
O713 C729 1.225 . S
Zn714 O713 1.953 . S
Zn714 O715 1.949 . S
Zn714 O721 1.919 . S
Zn714 O726 1.924 . S
O715 Zn714 1.949 . S
O715 Zn716 1.923 . S
O715 Zn717 1.950 . S
O715 Zn718 1.945 . S
Zn716 O715 1.923 . S
Zn716 O719 1.933 . S
Zn716 O722 1.941 . S
Zn716 O723 1.965 . S
Zn717 O715 1.950 . S
Zn717 O724 1.938 . S
Zn717 O725 1.906 . S
Zn717 O735 1.953 . S
Zn718 O715 1.945 . S
Zn718 O720 1.932 . S
Zn718 O727 1.977 . S
Zn718 O728 1.910 . S
O719 Zn716 1.933 . S
O719 C730 1.226 . S
O720 Zn718 1.932 . S
O720 C730 1.307 . S
O721 Zn714 1.919 . S
O721 C732 1.253 . S
O722 Zn716 1.941 . S
O722 C732 1.283 . S
O723 Zn716 1.965 . S
O723 C731 1.303 . S
O724 Zn717 1.938 . S
O724 C731 1.247 . S
O725 Zn717 1.906 . S
O725 C733 1.304 . S
O726 Zn714 1.924 . S
O726 C734 1.311 . S
O727 Zn718 1.977 . S
O727 C733 1.272 . S
O728 Zn718 1.910 . S
O728 C734 1.231 . S
C729 O713 1.225 . S
C729 O735 1.298 . S
C730 O719 1.226 . S
C730 O720 1.307 . S
C731 O723 1.303 . S
C731 O724 1.247 . S
C732 O721 1.253 . S
C732 O722 1.283 . S
C733 O725 1.304 . S
C733 O727 1.272 . S
C734 O726 1.311 . S
C734 O728 1.231 . S
O735 Zn717 1.953 . S
O735 C729 1.298 . S
H736 C744 0.950 . S
H737 C749 0.950 . S
H738 C746 0.950 . S
H739 C748 0.950 . S
H740 C750 0.950 . S
H741 C752 0.950 . S
H742 C754 0.950 . S
H743 C755 0.950 . S
C744 H736 0.950 . S
C744 C745 1.386 . S
C744 C746 1.391 . S
C745 C744 1.386 . S
C745 C749 1.393 . S
C746 H738 0.950 . S
C746 C744 1.391 . S
C746 C747 1.400 . S
C747 C746 1.400 . S
C747 C748 1.398 . S
C747 C753 1.491 . S
C748 H739 0.950 . S
C748 C747 1.398 . S
C748 C749 1.391 . S
C749 H737 0.950 . S
C749 C745 1.393 . S
C749 C748 1.391 . S
C750 H740 0.950 . S
C750 C751 1.386 . S
C750 C752 1.391 . S
C751 C750 1.386 . S
C751 C755 1.393 . S
C752 H741 0.950 . S
C752 C750 1.391 . S
C752 C753 1.400 . S
C753 C747 1.491 . S
C753 C752 1.400 . S
C753 C754 1.398 . S
C754 H742 0.950 . S
C754 C753 1.398 . S
C754 C755 1.391 . S
C755 H743 0.950 . S
C755 C751 1.393 . S
C755 C754 1.391 . S
H756 C764 0.958 . S
H757 C769 0.950 . S
H758 C766 0.950 . S
H759 C768 0.950 . S
H760 C770 0.950 . S
H761 C772 0.950 . S
H762 C774 0.950 . S
H763 C775 0.950 . S
C764 H756 0.958 . S
C764 C765 1.353 1_655 S
C764 C766 1.416 . S
C765 C764 1.353 1_455 S
C765 C769 1.393 . S
C766 H758 0.950 . S
C766 C764 1.416 . S
C766 C767 1.400 . S
C767 C766 1.400 . S
C767 C768 1.398 1_655 S
C767 C773 1.491 . S
C768 H759 0.950 . S
C768 C767 1.398 1_455 S
C768 C769 1.391 . S
C769 H757 0.950 . S
C769 C765 1.393 . S
C769 C768 1.391 . S
C770 H760 0.950 . S
C770 C771 1.386 . S
C770 C772 1.391 . S
C771 C770 1.386 . S
C771 C775 1.393 . S
C772 H761 0.950 . S
C772 C770 1.391 . S
C772 C773 1.400 . S
C773 C767 1.491 . S
C773 C772 1.400 . S
C773 C774 1.398 . S
C774 H762 0.950 . S
C774 C773 1.398 . S
C774 C775 1.391 . S
C775 H763 0.950 . S
C775 C771 1.393 . S
C775 C774 1.391 . S
H776 C784 0.950 . S
H777 C789 0.950 . S
H778 C786 0.950 . S
H779 C788 0.950 . S
H780 C790 0.950 . S
H781 C792 0.950 . S
H782 C794 0.950 . S
H783 C795 0.950 . S
C784 H776 0.950 . S
C784 C785 1.386 . S
C784 C786 1.391 . S
C785 C784 1.386 . S
C785 C789 1.393 . S
C786 H778 0.950 . S
C786 C784 1.391 . S
C786 C787 1.400 . S
C787 C786 1.400 . S
C787 C788 1.398 . S
C787 C793 1.491 . S
C788 H779 0.950 . S
C788 C787 1.398 . S
C788 C789 1.391 . S
C789 H777 0.950 . S
C789 C785 1.393 . S
C789 C788 1.391 . S
C790 H780 0.950 . S
C790 C791 1.386 . S
C790 C792 1.391 . S
C791 C790 1.386 . S
C791 C795 1.393 . S
C792 H781 0.950 . S
C792 C790 1.391 . S
C792 C793 1.400 . S
C793 C787 1.491 . S
C793 C792 1.400 . S
C793 C794 1.398 . S
C794 H782 0.950 . S
C794 C793 1.398 . S
C794 C795 1.391 . S
C795 H783 0.950 . S
C795 C791 1.393 . S
C795 C794 1.391 . S
H796 C804 0.950 . S
H797 C809 0.950 . S
H798 C806 0.950 . S
H799 C808 0.950 . S
H800 C810 0.950 . S
H801 C812 0.950 . S
H802 C814 0.950 . S
H803 C815 0.950 . S
C804 H796 0.950 . S
C804 C805 1.386 . S
C804 C806 1.391 . S
C805 C804 1.386 . S
C805 C809 1.393 . S
C806 H798 0.950 . S
C806 C804 1.391 . S
C806 C807 1.400 . S
C807 C806 1.400 . S
C807 C808 1.398 . S
C807 C813 1.491 . S
C808 H799 0.950 . S
C808 C807 1.398 . S
C808 C809 1.391 . S
C809 H797 0.950 . S
C809 C805 1.393 . S
C809 C808 1.391 . S
C810 H800 0.950 . S
C810 C811 1.386 . S
C810 C812 1.391 . S
C811 C810 1.386 . S
C811 C815 1.393 . S
C812 H801 0.950 . S
C812 C810 1.391 . S
C812 C813 1.400 . S
C813 C807 1.491 . S
C813 C812 1.400 . S
C813 C814 1.398 . S
C814 H802 0.950 . S
C814 C813 1.398 . S
C814 C815 1.391 . S
C815 H803 0.950 . S
C815 C811 1.393 . S
C815 C814 1.391 . S
H816 C824 0.950 . S
H817 C829 0.950 . S
H818 C826 0.950 . S
H819 C828 0.950 . S
H820 C830 0.950 . S
H821 C832 0.950 . S
H822 C834 0.950 . S
H823 C835 0.950 . S
C824 H816 0.950 . S
C824 C825 1.386 . S
C824 C826 1.391 . S
C825 C824 1.386 . S
C825 C829 1.393 . S
C826 H818 0.950 . S
C826 C824 1.391 . S
C826 C827 1.400 . S
C827 C826 1.400 . S
C827 C828 1.398 . S
C827 C833 1.491 . S
C828 H819 0.950 . S
C828 C827 1.398 . S
C828 C829 1.391 . S
C829 H817 0.950 . S
C829 C825 1.393 . S
C829 C828 1.391 . S
C830 H820 0.950 . S
C830 C831 1.386 . S
C830 C832 1.391 . S
C831 C830 1.386 . S
C831 C835 1.393 . S
C832 H821 0.950 . S
C832 C830 1.391 . S
C832 C833 1.400 . S
C833 C827 1.491 . S
C833 C832 1.400 . S
C833 C834 1.398 . S
C834 H822 0.950 . S
C834 C833 1.398 . S
C834 C835 1.391 . S
C835 H823 0.950 . S
C835 C831 1.393 . S
C835 C834 1.391 . S
H836 C844 0.950 . S
H837 C849 0.950 . S
H838 C846 0.950 . S
H839 C848 0.950 . S
H840 C850 0.950 . S
H841 C852 0.950 . S
H842 C854 0.950 . S
H843 C855 0.950 . S
C844 H836 0.950 . S
C844 C845 1.386 . S
C844 C846 1.391 . S
C845 C844 1.386 . S
C845 C849 1.393 . S
C846 H838 0.950 . S
C846 C844 1.391 . S
C846 C847 1.400 . S
C847 C846 1.400 . S
C847 C848 1.398 . S
C847 C853 1.491 . S
C848 H839 0.950 . S
C848 C847 1.398 . S
C848 C849 1.391 . S
C849 H837 0.950 . S
C849 C845 1.393 . S
C849 C848 1.391 . S
C850 H840 0.950 . S
C850 C851 1.386 . S
C850 C852 1.391 . S
C851 C850 1.386 . S
C851 C855 1.393 . S
C852 H841 0.950 . S
C852 C850 1.391 . S
C852 C853 1.400 . S
C853 C847 1.491 . S
C853 C852 1.400 . S
C853 C854 1.398 . S
C854 H842 0.950 . S
C854 C853 1.398 . S
C854 C855 1.391 . S
C855 H843 0.950 . S
C855 C851 1.393 . S
C855 C854 1.391 . S
H856 C864 0.950 . S
H857 C869 0.950 . S
H858 C866 0.950 . S
H859 C868 0.950 . S
H860 C870 0.950 . S
H861 C872 0.950 . S
H862 C874 0.950 . S
H863 C875 0.950 . S
C864 H856 0.950 . S
C864 C865 1.386 . S
C864 C866 1.391 . S
C865 C864 1.386 . S
C865 C869 1.393 . S
C866 H858 0.950 . S
C866 C864 1.391 . S
C866 C867 1.400 . S
C867 C866 1.400 . S
C867 C868 1.398 . S
C867 C873 1.491 . S
C868 H859 0.950 . S
C868 C867 1.398 . S
C868 C869 1.391 . S
C869 H857 0.950 . S
C869 C865 1.393 . S
C869 C868 1.391 . S
C870 H860 0.950 . S
C870 C871 1.386 . S
C870 C872 1.391 . S
C871 C870 1.386 . S
C871 C875 1.393 . S
C872 H861 0.950 . S
C872 C870 1.391 . S
C872 C873 1.400 . S
C873 C867 1.491 . S
C873 C872 1.400 . S
C873 C874 1.398 . S
C874 H862 0.950 . S
C874 C873 1.398 . S
C874 C875 1.391 . S
C875 H863 0.950 . S
C875 C871 1.393 . S
C875 C874 1.391 . S
H876 C884 0.950 . S
H877 C889 0.950 . S
H878 C886 0.950 . S
H879 C888 0.950 . S
H880 C890 0.950 . S
H881 C892 0.950 . S
H882 C894 0.950 . S
H883 C895 0.950 . S
C884 H876 0.950 . S
C884 C885 1.386 . S
C884 C886 1.391 . S
C885 C884 1.386 . S
C885 C889 1.393 1_455 S
C886 H878 0.950 . S
C886 C884 1.391 . S
C886 C887 1.400 1_455 S
C887 C886 1.400 1_655 S
C887 C888 1.398 . S
C887 C893 1.491 . S
C888 H879 0.950 . S
C888 C887 1.398 . S
C888 C889 1.391 . S
C889 H877 0.950 . S
C889 C885 1.393 1_655 S
C889 C888 1.391 . S
C890 H880 0.950 . S
C890 C891 1.386 . S
C890 C892 1.391 . S
C891 C890 1.386 . S
C891 C895 1.393 . S
C892 H881 0.950 . S
C892 C890 1.391 . S
C892 C893 1.400 . S
C893 C887 1.491 . S
C893 C892 1.400 . S
C893 C894 1.398 . S
C894 H882 0.950 . S
C894 C893 1.398 . S
C894 C895 1.391 . S
C895 H883 0.950 . S
C895 C891 1.393 . S
C895 C894 1.391 . S
H896 C904 0.950 . S
H897 C909 0.950 . S
H898 C906 0.950 . S
H899 C908 0.950 . S
H900 C910 0.950 . S
H901 C912 0.950 . S
H902 C914 0.950 . S
H903 C915 0.950 . S
C904 H896 0.950 . S
C904 C905 1.386 . S
C904 C906 1.391 . S
C905 C904 1.386 . S
C905 C909 1.393 . S
C906 H898 0.950 . S
C906 C904 1.391 . S
C906 C907 1.400 . S
C907 C906 1.400 . S
C907 C908 1.398 . S
C907 C913 1.491 . S
C908 H899 0.950 . S
C908 C907 1.398 . S
C908 C909 1.391 . S
C909 H897 0.950 . S
C909 C905 1.393 . S
C909 C908 1.391 . S
C910 H900 0.950 . S
C910 C911 1.386 . S
C910 C912 1.391 . S
C911 C910 1.386 . S
C911 C915 1.393 . S
C912 H901 0.950 . S
C912 C910 1.391 . S
C912 C913 1.400 . S
C913 C907 1.491 . S
C913 C912 1.400 . S
C913 C914 1.398 . S
C914 H902 0.950 . S
C914 C913 1.398 . S
C914 C915 1.391 . S
C915 H903 0.950 . S
C915 C911 1.393 . S
C915 C914 1.391 . S
H916 C924 0.950 . S
H917 C929 0.950 . S
H918 C926 0.950 . S
H919 C928 0.950 . S
H920 C930 0.950 . S
H921 C932 0.950 . S
H922 C934 0.950 . S
H923 C935 0.950 . S
C924 H916 0.950 . S
C924 C925 1.386 . S
C924 C926 1.391 . S
C925 C924 1.386 . S
C925 C929 1.393 1_655 S
C926 H918 0.950 . S
C926 C924 1.391 . S
C926 C927 1.400 1_655 S
C927 C926 1.400 1_455 S
C927 C928 1.398 . S
C927 C933 1.491 . S
C928 H919 0.950 . S
C928 C927 1.398 . S
C928 C929 1.391 . S
C929 H917 0.950 . S
C929 C925 1.393 1_455 S
C929 C928 1.391 . S
C930 H920 0.950 . S
C930 C931 1.386 . S
C930 C932 1.391 . S
C931 C930 1.386 . S
C931 C935 1.393 . S
C932 H921 0.950 . S
C932 C930 1.391 . S
C932 C933 1.400 . S
C933 C927 1.491 . S
C933 C932 1.400 . S
C933 C934 1.398 . S
C934 H922 0.950 . S
C934 C933 1.398 . S
C934 C935 1.391 . S
C935 H923 0.950 . S
C935 C931 1.393 . S
C935 C934 1.391 . S
H936 C944 0.950 . S
H937 C949 0.950 . S
H938 C946 0.950 . S
H939 C948 0.950 . S
H940 C950 0.950 . S
H941 C952 0.950 . S
H942 C954 0.950 . S
H943 C955 0.950 . S
C944 H936 0.950 . S
C944 C945 1.386 . S
C944 C946 1.391 . S
C945 C944 1.386 . S
C945 C949 1.393 . S
C946 H938 0.950 . S
C946 C944 1.391 . S
C946 C947 1.400 . S
C947 C946 1.400 . S
C947 C948 1.398 . S
C947 C953 1.491 . S
C948 H939 0.950 . S
C948 C947 1.398 . S
C948 C949 1.391 . S
C949 H937 0.950 . S
C949 C945 1.393 . S
C949 C948 1.391 . S
C950 H940 0.950 . S
C950 C951 1.386 . S
C950 C952 1.391 . S
C951 C950 1.386 . S
C951 C955 1.393 . S
C952 H941 0.950 . S
C952 C950 1.391 . S
C952 C953 1.400 . S
C953 C947 1.491 . S
C953 C952 1.400 . S
C953 C954 1.398 . S
C954 H942 0.950 . S
C954 C953 1.398 . S
C954 C955 1.391 . S
C955 H943 0.950 . S
C955 C951 1.393 . S
C955 C954 1.391 . S
H956 C964 0.950 . S
H957 C969 0.950 . S
H958 C966 0.950 . S
H959 C968 0.950 . S
H960 C970 0.950 . S
H961 C972 0.950 . S
H962 C974 0.950 . S
H963 C975 0.950 . S
C964 H956 0.950 . S
C964 C965 1.386 . S
C964 C966 1.391 . S
C965 C964 1.386 . S
C965 C969 1.393 . S
C966 H958 0.950 . S
C966 C964 1.391 . S
C966 C967 1.400 . S
C967 C966 1.400 . S
C967 C968 1.398 . S
C967 C973 1.491 . S
C968 H959 0.950 . S
C968 C967 1.398 . S
C968 C969 1.391 . S
C969 H957 0.950 . S
C969 C965 1.393 . S
C969 C968 1.391 . S
C970 H960 0.950 . S
C970 C971 1.386 . S
C970 C972 1.391 . S
C971 C970 1.386 . S
C971 C975 1.393 . S
C972 H961 0.950 . S
C972 C970 1.391 . S
C972 C973 1.400 . S
C973 C967 1.491 . S
C973 C972 1.400 . S
C973 C974 1.398 . S
C974 H962 0.950 . S
C974 C973 1.398 . S
C974 C975 1.391 . S
C975 H963 0.950 . S
C975 C971 1.393 . S
C975 C974 1.391 . S
H976 C984 0.950 . S
H977 C989 0.950 . S
H978 C986 0.950 . S
H979 C988 0.950 . S
H980 C990 0.950 . S
H981 C992 0.950 . S
H982 C994 0.950 . S
H983 C995 0.950 . S
C984 H976 0.950 . S
C984 C985 1.386 . S
C984 C986 1.391 . S
C985 C984 1.386 . S
C985 C989 1.393 . S
C986 H978 0.950 . S
C986 C984 1.391 . S
C986 C987 1.400 . S
C987 C986 1.400 . S
C987 C988 1.398 . S
C987 C993 1.491 . S
C988 H979 0.950 . S
C988 C987 1.398 . S
C988 C989 1.391 . S
C989 H977 0.950 . S
C989 C985 1.393 . S
C989 C988 1.391 . S
C990 H980 0.950 . S
C990 C991 1.386 . S
C990 C992 1.391 . S
C991 C990 1.386 . S
C991 C995 1.393 . S
C992 H981 0.950 . S
C992 C990 1.391 . S
C992 C993 1.400 . S
C993 C987 1.491 . S
C993 C992 1.400 . S
C993 C994 1.398 . S
C994 H982 0.950 . S
C994 C993 1.398 . S
C994 C995 1.391 . S
C995 H983 0.950 . S
C995 C991 1.393 . S
C995 C994 1.391 . S
H996 C1004 0.950 . S
H997 C1009 0.950 . S
H998 C1006 0.950 . S
H999 C1008 0.950 . S
H1000 C1010 0.950 . S
H1001 C1012 0.950 . S
H1002 C1014 0.950 . S
H1003 C1015 0.950 . S
C1004 H996 0.950 . S
C1004 C1005 1.386 . S
C1004 C1006 1.391 . S
C1005 C1004 1.386 . S
C1005 C1009 1.393 . S
C1006 H998 0.950 . S
C1006 C1004 1.391 . S
C1006 C1007 1.400 . S
C1007 C1006 1.400 . S
C1007 C1008 1.398 . S
C1007 C1013 1.491 . S
C1008 H999 0.950 . S
C1008 C1007 1.398 . S
C1008 C1009 1.391 . S
C1009 H997 0.950 . S
C1009 C1005 1.393 . S
C1009 C1008 1.391 . S
C1010 H1000 0.950 . S
C1010 C1011 1.386 . S
C1010 C1012 1.391 . S
C1011 C1010 1.386 . S
C1011 C1015 1.393 . S
C1012 H1001 0.950 . S
C1012 C1010 1.391 . S
C1012 C1013 1.400 . S
C1013 C1007 1.491 . S
C1013 C1012 1.400 . S
C1013 C1014 1.398 . S
C1014 H1002 0.950 . S
C1014 C1013 1.398 . S
C1014 C1015 1.391 . S
C1015 H1003 0.950 . S
C1015 C1011 1.393 . S
C1015 C1014 1.391 . S
H1016 C1024 0.950 . S
H1017 C1029 0.950 . S
H1018 C1026 0.950 . S
H1019 C1028 0.950 . S
H1020 C1030 0.950 . S
H1021 C1032 0.950 . S
H1022 C1034 0.950 . S
H1023 C1035 0.950 . S
C1024 H1016 0.950 . S
C1024 C1025 1.386 . S
C1024 C1026 1.391 . S
C1025 C1024 1.386 . S
C1025 C1029 1.393 . S
C1026 H1018 0.950 . S
C1026 C1024 1.391 . S
C1026 C1027 1.400 . S
C1027 C1026 1.400 . S
C1027 C1028 1.398 . S
C1027 C1033 1.491 . S
C1028 H1019 0.950 . S
C1028 C1027 1.398 . S
C1028 C1029 1.391 . S
C1029 H1017 0.950 . S
C1029 C1025 1.393 . S
C1029 C1028 1.391 . S
C1030 H1020 0.950 . S
C1030 C1031 1.386 . S
C1030 C1032 1.391 . S
C1031 C1030 1.386 . S
C1031 C1035 1.393 . S
C1032 H1021 0.950 . S
C1032 C1030 1.391 . S
C1032 C1033 1.400 . S
C1033 C1027 1.491 . S
C1033 C1032 1.400 . S
C1033 C1034 1.398 . S
C1034 H1022 0.950 . S
C1034 C1033 1.398 . S
C1034 C1035 1.391 . S
C1035 H1023 0.950 . S
C1035 C1031 1.393 . S
C1035 C1034 1.391 . S
H1036 C1044 0.950 . S
H1037 C1049 0.950 . S
H1038 C1046 0.950 . S
H1039 C1048 0.950 . S
H1040 C1050 0.950 . S
H1041 C1052 0.950 . S
H1042 C1054 0.950 . S
H1043 C1055 0.950 . S
C1044 H1036 0.950 . S
C1044 C1045 1.386 . S
C1044 C1046 1.391 . S
C1045 C1044 1.386 . S
C1045 C1049 1.393 . S
C1046 H1038 0.950 . S
C1046 C1044 1.391 . S
C1046 C1047 1.400 . S
C1047 C1046 1.400 . S
C1047 C1048 1.398 . S
C1047 C1053 1.491 . S
C1048 H1039 0.950 . S
C1048 C1047 1.398 . S
C1048 C1049 1.391 . S
C1049 H1037 0.950 . S
C1049 C1045 1.393 . S
C1049 C1048 1.391 . S
C1050 H1040 0.950 . S
C1050 C1051 1.386 . S
C1050 C1052 1.391 1_655 S
C1051 C1050 1.386 . S
C1051 C1055 1.393 . S
C1052 H1041 0.950 . S
C1052 C1050 1.391 1_455 S
C1052 C1053 1.400 . S
C1053 C1047 1.491 . S
C1053 C1052 1.400 . S
C1053 C1054 1.398 . S
C1054 H1042 0.950 . S
C1054 C1053 1.398 . S
C1054 C1055 1.391 1_455 S
C1055 H1043 0.950 . S
C1055 C1051 1.393 . S
C1055 C1054 1.391 1_655 S
H1056 C1064 0.950 . S
H1057 C1069 0.950 . S
H1058 C1066 0.950 . S
H1059 C1068 0.950 . S
H1060 C1070 0.950 . S
H1061 C1072 0.950 . S
H1062 C1074 0.950 . S
H1063 C1075 0.950 . S
C1064 H1056 0.950 . S
C1064 C1065 1.386 . S
C1064 C1066 1.391 . S
C1065 C1064 1.386 . S
C1065 C1069 1.393 . S
C1066 H1058 0.950 . S
C1066 C1064 1.391 . S
C1066 C1067 1.400 . S
C1067 C1066 1.400 . S
C1067 C1068 1.398 . S
C1067 C1073 1.491 . S
C1068 H1059 0.950 . S
C1068 C1067 1.398 . S
C1068 C1069 1.391 . S
C1069 H1057 0.950 . S
C1069 C1065 1.393 . S
C1069 C1068 1.391 . S
C1070 H1060 0.950 . S
C1070 C1071 1.386 . S
C1070 C1072 1.391 . S
C1071 C1070 1.386 . S
C1071 C1075 1.393 . S
C1072 H1061 0.950 . S
C1072 C1070 1.391 . S
C1072 C1073 1.400 . S
C1073 C1067 1.491 . S
C1073 C1072 1.400 . S
C1073 C1074 1.398 . S
C1074 H1062 0.950 . S
C1074 C1073 1.398 . S
C1074 C1075 1.391 . S
C1075 H1063 0.950 . S
C1075 C1071 1.393 . S
C1075 C1074 1.391 . S
H1076 C1084 0.950 . S
H1077 C1089 0.950 . S
H1078 C1086 0.950 . S
H1079 C1088 0.950 . S
H1080 C1090 0.950 . S
H1081 C1092 0.950 . S
H1082 C1094 0.950 . S
H1083 C1095 0.950 . S
C1084 H1076 0.950 . S
C1084 C1085 1.386 . S
C1084 C1086 1.391 . S
C1085 C1084 1.386 . S
C1085 C1089 1.393 . S
C1086 H1078 0.950 . S
C1086 C1084 1.391 . S
C1086 C1087 1.400 . S
C1087 C1086 1.400 . S
C1087 C1088 1.398 . S
C1087 C1093 1.491 . S
C1088 H1079 0.950 . S
C1088 C1087 1.398 . S
C1088 C1089 1.391 . S
C1089 H1077 0.950 . S
C1089 C1085 1.393 . S
C1089 C1088 1.391 . S
C1090 H1080 0.950 . S
C1090 C1091 1.386 . S
C1090 C1092 1.391 . S
C1091 C1090 1.386 . S
C1091 C1095 1.393 . S
C1092 H1081 0.950 . S
C1092 C1090 1.391 . S
C1092 C1093 1.400 . S
C1093 C1087 1.491 . S
C1093 C1092 1.400 . S
C1093 C1094 1.398 . S
C1094 H1082 0.950 . S
C1094 C1093 1.398 . S
C1094 C1095 1.391 . S
C1095 H1083 0.950 . S
C1095 C1091 1.393 . S
C1095 C1094 1.391 . S
H1096 C1104 0.950 . S
H1097 C1109 0.950 . S
H1098 C1106 0.950 . S
H1099 C1108 0.950 . S
H1100 C1110 0.950 . S
H1101 C1112 0.950 . S
H1102 C1114 0.950 . S
H1103 C1115 0.950 . S
C1104 H1096 0.950 . S
C1104 C1105 1.386 . S
C1104 C1106 1.391 . S
C1105 C1104 1.386 . S
C1105 C1109 1.393 . S
C1106 H1098 0.950 . S
C1106 C1104 1.391 . S
C1106 C1107 1.400 . S
C1107 C1106 1.400 . S
C1107 C1108 1.398 . S
C1107 C1113 1.491 . S
C1108 H1099 0.950 . S
C1108 C1107 1.398 . S
C1108 C1109 1.391 . S
C1109 H1097 0.950 . S
C1109 C1105 1.393 . S
C1109 C1108 1.391 . S
C1110 H1100 0.950 . S
C1110 C1111 1.386 . S
C1110 C1112 1.391 . S
C1111 C1110 1.386 . S
C1111 C1115 1.393 . S
C1112 H1101 0.950 . S
C1112 C1110 1.391 . S
C1112 C1113 1.400 . S
C1113 C1107 1.491 . S
C1113 C1112 1.400 . S
C1113 C1114 1.398 . S
C1114 H1102 0.950 . S
C1114 C1113 1.398 . S
C1114 C1115 1.391 . S
C1115 H1103 0.950 . S
C1115 C1111 1.393 . S
C1115 C1114 1.391 . S
H1116 C1124 0.950 . S
H1117 C1129 0.950 . S
H1118 C1126 0.950 . S
H1119 C1128 0.950 . S
H1120 C1130 0.950 . S
H1121 C1132 0.950 . S
H1122 C1134 0.950 . S
H1123 C1135 0.950 . S
C1124 H1116 0.950 . S
C1124 C1125 1.386 . S
C1124 C1126 1.391 1_655 S
C1125 C1124 1.386 . S
C1125 C1129 1.393 . S
C1126 H1118 0.950 . S
C1126 C1124 1.391 1_455 S
C1126 C1127 1.400 . S
C1127 C1126 1.400 . S
C1127 C1128 1.398 1_455 S
C1127 C1133 1.491 . S
C1128 H1119 0.950 . S
C1128 C1127 1.398 1_655 S
C1128 C1129 1.391 . S
C1129 H1117 0.950 . S
C1129 C1125 1.393 . S
C1129 C1128 1.391 . S
C1130 H1120 0.950 . S
C1130 C1131 1.386 . S
C1130 C1132 1.391 . S
C1131 C1130 1.386 . S
C1131 C1135 1.393 . S
C1132 H1121 0.950 . S
C1132 C1130 1.391 . S
C1132 C1133 1.400 . S
C1133 C1127 1.491 . S
C1133 C1132 1.400 . S
C1133 C1134 1.398 . S
C1134 H1122 0.950 . S
C1134 C1133 1.398 . S
C1134 C1135 1.391 . S
C1135 H1123 0.950 . S
C1135 C1131 1.393 . S
C1135 C1134 1.391 . S
H1136 C1144 0.950 . S
H1137 C1149 0.950 . S
H1138 C1146 0.950 . S
H1139 C1148 0.950 . S
H1140 C1150 0.950 . S
H1141 C1152 0.950 . S
H1142 C1154 0.950 . S
H1143 C1155 0.950 . S
C1144 H1136 0.950 . S
C1144 C1145 1.386 . S
C1144 C1146 1.391 . S
C1145 C1144 1.386 . S
C1145 C1149 1.393 . S
C1146 H1138 0.950 . S
C1146 C1144 1.391 . S
C1146 C1147 1.400 . S
C1147 C1146 1.400 . S
C1147 C1148 1.398 . S
C1147 C1153 1.491 . S
C1148 H1139 0.950 . S
C1148 C1147 1.398 . S
C1148 C1149 1.391 . S
C1149 H1137 0.950 . S
C1149 C1145 1.393 . S
C1149 C1148 1.391 . S
C1150 H1140 0.950 . S
C1150 C1151 1.386 . S
C1150 C1152 1.391 . S
C1151 C1150 1.386 . S
C1151 C1155 1.393 . S
C1152 H1141 0.950 . S
C1152 C1150 1.391 . S
C1152 C1153 1.400 . S
C1153 C1147 1.491 . S
C1153 C1152 1.400 . S
C1153 C1154 1.398 . S
C1154 H1142 0.950 . S
C1154 C1153 1.398 . S
C1154 C1155 1.391 . S
C1155 H1143 0.950 . S
C1155 C1151 1.393 . S
C1155 C1154 1.391 . S
H1156 C1164 0.950 . S
H1157 C1169 0.950 . S
H1158 C1166 0.950 . S
H1159 C1168 0.950 . S
H1160 C1170 0.950 . S
H1161 C1172 0.950 . S
H1162 C1174 0.951 1_455 S
H1163 C1175 0.950 . S
C1164 H1156 0.950 . S
C1164 C1165 1.386 . S
C1164 C1166 1.391 . S
C1165 C1164 1.386 . S
C1165 C1169 1.393 . S
C1166 H1158 0.950 . S
C1166 C1164 1.391 . S
C1166 C1167 1.400 . S
C1167 C1166 1.400 . S
C1167 C1168 1.398 . S
C1167 C1173 1.491 . S
C1168 H1159 0.950 . S
C1168 C1167 1.398 . S
C1168 C1169 1.391 . S
C1169 H1157 0.950 . S
C1169 C1165 1.393 . S
C1169 C1168 1.391 . S
C1170 H1160 0.950 . S
C1170 C1171 1.386 . S
C1170 C1172 1.391 1_655 S
C1171 C1170 1.386 . S
C1171 C1175 1.393 . S
C1172 H1161 0.950 . S
C1172 C1170 1.391 1_455 S
C1172 C1173 1.400 . S
C1173 C1167 1.491 . S
C1173 C1172 1.400 . S
C1173 C1174 1.401 1_455 S
C1174 H1162 0.951 1_655 S
C1174 C1173 1.401 1_655 S
C1174 C1175 1.388 . S
C1175 H1163 0.950 . S
C1175 C1171 1.393 . S
C1175 C1174 1.388 . S
H1176 C1184 0.950 . S
H1177 C1189 0.950 . S
H1178 C1186 0.950 . S
H1179 C1188 0.950 . S
H1180 C1190 0.950 . S
H1181 C1192 0.950 . S
H1182 C1194 0.950 . S
H1183 C1195 0.950 . S
C1184 H1176 0.950 . S
C1184 C1185 1.386 . S
C1184 C1186 1.391 . S
C1185 C1184 1.386 . S
C1185 C1189 1.393 . S
C1186 H1178 0.950 . S
C1186 C1184 1.391 . S
C1186 C1187 1.400 . S
C1187 C1186 1.400 . S
C1187 C1188 1.398 . S
C1187 C1193 1.491 . S
C1188 H1179 0.950 . S
C1188 C1187 1.398 . S
C1188 C1189 1.391 . S
C1189 H1177 0.950 . S
C1189 C1185 1.393 . S
C1189 C1188 1.391 . S
C1190 H1180 0.950 . S
C1190 C1191 1.386 . S
C1190 C1192 1.391 . S
C1191 C1190 1.386 . S
C1191 C1195 1.393 . S
C1192 H1181 0.950 . S
C1192 C1190 1.391 . S
C1192 C1193 1.400 . S
C1193 C1187 1.491 . S
C1193 C1192 1.400 . S
C1193 C1194 1.398 . S
C1194 H1182 0.950 . S
C1194 C1193 1.398 . S
C1194 C1195 1.391 . S
C1195 H1183 0.950 . S
C1195 C1191 1.393 . S
C1195 C1194 1.391 . S
H1196 C1204 0.950 . S
H1197 C1209 0.950 . S
H1198 C1206 0.950 . S
H1199 C1208 0.950 . S
H1200 C1210 0.950 . S
H1201 C1212 0.950 . S
H1202 C1214 0.950 . S
H1203 C1215 0.950 . S
C1204 H1196 0.950 . S
C1204 C1205 1.386 . S
C1204 C1206 1.391 . S
C1205 C1204 1.386 . S
C1205 C1209 1.393 . S
C1206 H1198 0.950 . S
C1206 C1204 1.391 . S
C1206 C1207 1.400 . S
C1207 C1206 1.400 . S
C1207 C1208 1.398 . S
C1207 C1213 1.491 . S
C1208 H1199 0.950 . S
C1208 C1207 1.398 . S
C1208 C1209 1.391 . S
C1209 H1197 0.950 . S
C1209 C1205 1.393 . S
C1209 C1208 1.391 . S
C1210 H1200 0.950 . S
C1210 C1211 1.386 . S
C1210 C1212 1.391 . S
C1211 C1210 1.386 . S
C1211 C1215 1.393 . S
C1212 H1201 0.950 . S
C1212 C1210 1.391 . S
C1212 C1213 1.400 . S
C1213 C1207 1.491 . S
C1213 C1212 1.400 . S
C1213 C1214 1.398 . S
C1214 H1202 0.950 . S
C1214 C1213 1.398 . S
C1214 C1215 1.391 . S
C1215 H1203 0.950 . S
C1215 C1211 1.393 . S
C1215 C1214 1.391 . S
H1216 C1224 0.950 . S
H1217 C1229 0.950 . S
H1218 C1226 0.950 . S
H1219 C1228 0.950 . S
H1220 C1230 0.950 . S
H1221 C1232 0.950 . S
H1222 C1234 0.950 . S
H1223 C1235 0.950 . S
C1224 H1216 0.950 . S
C1224 C1225 1.386 . S
C1224 C1226 1.391 . S
C1225 C1224 1.386 . S
C1225 C1229 1.393 . S
C1226 H1218 0.950 . S
C1226 C1224 1.391 . S
C1226 C1227 1.400 . S
C1227 C1226 1.400 . S
C1227 C1228 1.398 . S
C1227 C1233 1.491 . S
C1228 H1219 0.950 . S
C1228 C1227 1.398 . S
C1228 C1229 1.391 . S
C1229 H1217 0.950 . S
C1229 C1225 1.393 . S
C1229 C1228 1.391 . S
C1230 H1220 0.950 . S
C1230 C1231 1.386 . S
C1230 C1232 1.391 . S
C1231 C1230 1.386 . S
C1231 C1235 1.393 . S
C1232 H1221 0.950 . S
C1232 C1230 1.391 . S
C1232 C1233 1.400 . S
C1233 C1227 1.491 . S
C1233 C1232 1.400 . S
C1233 C1234 1.398 . S
C1234 H1222 0.950 . S
C1234 C1233 1.398 . S
C1234 C1235 1.391 . S
C1235 H1223 0.950 . S
C1235 C1231 1.393 . S
C1235 C1234 1.391 . S
H1236 C1244 0.950 . S
H1237 C1249 0.950 . S
H1238 C1246 0.950 . S
H1239 C1248 0.950 . S
H1240 C1250 0.950 . S
H1241 C1252 0.950 . S
H1242 C1254 0.950 . S
H1243 C1255 0.950 . S
C1244 H1236 0.950 . S
C1244 C1245 1.386 . S
C1244 C1246 1.391 . S
C1245 C1244 1.386 . S
C1245 C1249 1.393 . S
C1246 H1238 0.950 . S
C1246 C1244 1.391 . S
C1246 C1247 1.400 . S
C1247 C1246 1.400 . S
C1247 C1248 1.398 . S
C1247 C1253 1.491 . S
C1248 H1239 0.950 . S
C1248 C1247 1.398 . S
C1248 C1249 1.391 . S
C1249 H1237 0.950 . S
C1249 C1245 1.393 . S
C1249 C1248 1.391 . S
C1250 H1240 0.950 . S
C1250 C1251 1.386 . S
C1250 C1252 1.391 . S
C1251 C1250 1.386 . S
C1251 C1255 1.393 . S
C1252 H1241 0.950 . S
C1252 C1250 1.391 . S
C1252 C1253 1.400 . S
C1253 C1247 1.491 . S
C1253 C1252 1.400 . S
C1253 C1254 1.398 . S
C1254 H1242 0.950 . S
C1254 C1253 1.398 . S
C1254 C1255 1.391 . S
C1255 H1243 0.950 . S
C1255 C1251 1.393 . S
C1255 C1254 1.391 . S
H1256 C1264 0.950 . S
H1257 C1269 0.950 . S
H1258 C1266 0.950 . S
H1259 C1268 0.950 . S
H1260 C1270 0.950 . S
H1261 C1272 0.950 . S
H1262 C1274 0.950 . S
H1263 C1275 0.950 . S
C1264 H1256 0.950 . S
C1264 C1265 1.386 . S
C1264 C1266 1.391 . S
C1265 C1264 1.386 . S
C1265 C1269 1.393 . S
C1266 H1258 0.950 . S
C1266 C1264 1.391 . S
C1266 C1267 1.400 . S
C1267 C1266 1.400 . S
C1267 C1268 1.398 . S
C1267 C1273 1.491 . S
C1268 H1259 0.950 . S
C1268 C1267 1.398 . S
C1268 C1269 1.391 . S
C1269 H1257 0.950 . S
C1269 C1265 1.393 . S
C1269 C1268 1.391 . S
C1270 H1260 0.950 . S
C1270 C1271 1.386 . S
C1270 C1272 1.391 . S
C1271 C1270 1.386 . S
C1271 C1275 1.393 . S
C1272 H1261 0.950 . S
C1272 C1270 1.391 . S
C1272 C1273 1.400 . S
C1273 C1267 1.491 . S
C1273 C1272 1.400 . S
C1273 C1274 1.398 . S
C1274 H1262 0.950 . S
C1274 C1273 1.398 . S
C1274 C1275 1.391 . S
C1275 H1263 0.950 . S
C1275 C1271 1.393 . S
C1275 C1274 1.391 . S
H1276 C1284 0.950 1_655 S
H1277 C1289 0.950 . S
H1278 C1286 0.950 . S
H1279 C1288 0.950 . S
H1280 C1290 0.950 . S
H1281 C1292 0.950 . S
H1282 C1294 0.950 . S
H1283 C1295 0.950 . S
C1284 H1276 0.950 1_455 S
C1284 C1285 1.386 . S
C1284 C1286 1.391 1_455 S
C1285 C1284 1.386 . S
C1285 C1289 1.393 . S
C1286 H1278 0.950 . S
C1286 C1284 1.391 1_655 S
C1286 C1287 1.400 . S
C1287 C1286 1.400 . S
C1287 C1288 1.398 1_655 S
C1287 C1293 1.491 . S
C1288 H1279 0.950 . S
C1288 C1287 1.398 1_455 S
C1288 C1289 1.391 . S
C1289 H1277 0.950 . S
C1289 C1285 1.393 . S
C1289 C1288 1.391 . S
C1290 H1280 0.950 . S
C1290 C1291 1.386 . S
C1290 C1292 1.391 . S
C1291 C1290 1.386 . S
C1291 C1295 1.393 . S
C1292 H1281 0.950 . S
C1292 C1290 1.391 . S
C1292 C1293 1.400 . S
C1293 C1287 1.491 . S
C1293 C1292 1.400 . S
C1293 C1294 1.398 . S
C1294 H1282 0.950 . S
C1294 C1293 1.398 . S
C1294 C1295 1.391 . S
C1295 H1283 0.950 . S
C1295 C1291 1.393 . S
C1295 C1294 1.391 . S
H1296 C1304 0.950 . S
H1297 C1309 0.950 . S
H1298 C1306 0.950 . S
H1299 C1308 0.950 . S
H1300 C1310 0.950 . S
H1301 C1312 0.950 . S
H1302 C1314 0.950 . S
H1303 C1315 0.950 . S
C1304 H1296 0.950 . S
C1304 C1305 1.386 . S
C1304 C1306 1.391 . S
C1305 C1304 1.386 . S
C1305 C1309 1.393 . S
C1306 H1298 0.950 . S
C1306 C1304 1.391 . S
C1306 C1307 1.400 . S
C1307 C1306 1.400 . S
C1307 C1308 1.398 . S
C1307 C1313 1.491 . S
C1308 H1299 0.950 . S
C1308 C1307 1.398 . S
C1308 C1309 1.391 . S
C1309 H1297 0.950 . S
C1309 C1305 1.393 . S
C1309 C1308 1.391 . S
C1310 H1300 0.950 . S
C1310 C1311 1.386 . S
C1310 C1312 1.391 . S
C1311 C1310 1.386 . S
C1311 C1315 1.393 . S
C1312 H1301 0.950 . S
C1312 C1310 1.391 . S
C1312 C1313 1.400 . S
C1313 C1307 1.491 . S
C1313 C1312 1.400 . S
C1313 C1314 1.398 . S
C1314 H1302 0.950 . S
C1314 C1313 1.398 . S
C1314 C1315 1.391 . S
C1315 H1303 0.950 . S
C1315 C1311 1.393 . S
C1315 C1314 1.391 . S
H1316 C1324 0.950 . S
H1317 C1329 0.950 . S
H1318 C1326 0.950 . S
H1319 C1328 0.950 . S
H1320 C1330 0.950 . S
H1321 C1332 0.950 . S
H1322 C1334 0.951 . S
H1323 C1335 0.950 . S
C1324 H1316 0.950 . S
C1324 C1325 1.386 . S
C1324 C1326 1.391 . S
C1325 C1324 1.386 . S
C1325 C1329 1.393 . S
C1326 H1318 0.950 . S
C1326 C1324 1.391 . S
C1326 C1327 1.400 . S
C1327 C1326 1.400 . S
C1327 C1328 1.398 . S
C1327 C1333 1.491 . S
C1328 H1319 0.950 . S
C1328 C1327 1.398 . S
C1328 C1329 1.391 . S
C1329 H1317 0.950 . S
C1329 C1325 1.393 . S
C1329 C1328 1.391 . S
C1330 H1320 0.950 . S
C1330 C1331 1.386 . S
C1330 C1332 1.391 1_455 S
C1331 C1330 1.386 . S
C1331 C1335 1.393 . S
C1332 H1321 0.950 . S
C1332 C1330 1.391 1_655 S
C1332 C1333 1.400 . S
C1333 C1327 1.491 . S
C1333 C1332 1.400 . S
C1333 C1334 1.400 . S
C1334 H1322 0.951 . S
C1334 C1333 1.400 . S
C1334 C1335 1.388 1_655 S
C1335 H1323 0.950 . S
C1335 C1331 1.393 . S
C1335 C1334 1.388 1_455 S
H1336 C1344 0.950 . S
H1337 C1349 0.950 . S
H1338 C1346 0.950 . S
H1339 C1348 0.950 . S
H1340 C1350 0.950 . S
H1341 C1352 0.950 . S
H1342 C1354 0.950 . S
H1343 C1355 0.950 . S
C1344 H1336 0.950 . S
C1344 C1345 1.386 . S
C1344 C1346 1.391 . S
C1345 C1344 1.386 . S
C1345 C1349 1.393 . S
C1346 H1338 0.950 . S
C1346 C1344 1.391 . S
C1346 C1347 1.400 . S
C1347 C1346 1.400 . S
C1347 C1348 1.398 . S
C1347 C1353 1.491 . S
C1348 H1339 0.950 . S
C1348 C1347 1.398 . S
C1348 C1349 1.391 . S
C1349 H1337 0.950 . S
C1349 C1345 1.393 . S
C1349 C1348 1.391 . S
C1350 H1340 0.950 . S
C1350 C1351 1.386 . S
C1350 C1352 1.391 . S
C1351 C1350 1.386 . S
C1351 C1355 1.393 . S
C1352 H1341 0.950 . S
C1352 C1350 1.391 . S
C1352 C1353 1.400 . S
C1353 C1347 1.491 . S
C1353 C1352 1.400 . S
C1353 C1354 1.398 . S
C1354 H1342 0.950 . S
C1354 C1353 1.398 . S
C1354 C1355 1.391 . S
C1355 H1343 0.950 . S
C1355 C1351 1.393 . S
C1355 C1354 1.391 . S
H1356 C1364 0.950 . S
H1357 C1369 0.950 . S
H1358 C1366 0.950 . S
H1359 C1368 0.950 . S
H1360 C1370 0.950 . S
H1361 C1372 0.950 . S
H1362 C1374 0.950 . S
H1363 C1375 0.950 . S
C1364 H1356 0.950 . S
C1364 C1365 1.386 . S
C1364 C1366 1.391 . S
C1365 C1364 1.386 . S
C1365 C1369 1.393 . S
C1366 H1358 0.950 . S
C1366 C1364 1.391 . S
C1366 C1367 1.400 . S
C1367 C1366 1.400 . S
C1367 C1368 1.398 . S
C1367 C1373 1.491 . S
C1368 H1359 0.950 . S
C1368 C1367 1.398 . S
C1368 C1369 1.391 . S
C1369 H1357 0.950 . S
C1369 C1365 1.393 . S
C1369 C1368 1.391 . S
C1370 H1360 0.950 . S
C1370 C1371 1.386 . S
C1370 C1372 1.391 . S
C1371 C1370 1.386 . S
C1371 C1375 1.393 . S
C1372 H1361 0.950 . S
C1372 C1370 1.391 . S
C1372 C1373 1.400 . S
C1373 C1367 1.491 . S
C1373 C1372 1.400 . S
C1373 C1374 1.398 . S
C1374 H1362 0.950 . S
C1374 C1373 1.398 . S
C1374 C1375 1.391 . S
C1375 H1363 0.950 . S
C1375 C1371 1.393 . S
C1375 C1374 1.391 . S
H1376 C1384 0.950 . S
H1377 C1389 0.950 . S
H1378 C1386 0.950 1_655 S
H1379 C1388 0.950 . S
H1380 C1390 0.950 . S
H1381 C1392 0.950 1_455 S
H1382 C1394 0.950 . S
H1383 C1395 0.950 . S
C1384 H1376 0.950 . S
C1384 C1385 1.386 . S
C1384 C1386 1.391 . S
C1385 C1384 1.386 . S
C1385 C1389 1.393 . S
C1386 H1378 0.950 1_455 S
C1386 C1384 1.391 . S
C1386 C1387 1.400 . S
C1387 C1386 1.400 . S
C1387 C1388 1.398 . S
C1387 C1393 1.491 1_455 S
C1388 H1379 0.950 . S
C1388 C1387 1.398 . S
C1388 C1389 1.391 . S
C1389 H1377 0.950 . S
C1389 C1385 1.393 . S
C1389 C1388 1.391 . S
C1390 H1380 0.950 . S
C1390 C1391 1.386 . S
C1390 C1392 1.391 . S
C1391 C1390 1.386 . S
C1391 C1395 1.393 . S
C1392 H1381 0.950 1_655 S
C1392 C1390 1.391 . S
C1392 C1393 1.400 . S
C1393 C1387 1.491 1_655 S
C1393 C1392 1.400 . S
C1393 C1394 1.398 . S
C1394 H1382 0.950 . S
C1394 C1393 1.398 . S
C1394 C1395 1.391 . S
C1395 H1383 0.950 . S
C1395 C1391 1.393 . S
C1395 C1394 1.391 . S
H1396 C1404 0.950 . S
H1397 C1409 0.950 . S
H1398 C1406 0.950 1_455 S
H1399 C1408 0.950 . S
H1400 C1410 0.950 . S
H1401 C1412 0.950 1_655 S
H1402 C1414 0.950 . S
H1403 C1415 0.950 . S
C1404 H1396 0.950 . S
C1404 C1405 1.386 . S
C1404 C1406 1.391 . S
C1405 C1404 1.386 . S
C1405 C1409 1.393 . S
C1406 H1398 0.950 1_655 S
C1406 C1404 1.391 . S
C1406 C1407 1.400 . S
C1407 C1406 1.400 . S
C1407 C1408 1.398 . S
C1407 C1413 1.491 1_655 S
C1408 H1399 0.950 . S
C1408 C1407 1.398 . S
C1408 C1409 1.391 . S
C1409 H1397 0.950 . S
C1409 C1405 1.393 . S
C1409 C1408 1.391 . S
C1410 H1400 0.950 . S
C1410 C1411 1.386 . S
C1410 C1412 1.391 . S
C1411 C1410 1.386 . S
C1411 C1415 1.393 . S
C1412 H1401 0.950 1_455 S
C1412 C1410 1.391 . S
C1412 C1413 1.400 . S
C1413 C1407 1.491 1_455 S
C1413 C1412 1.400 . S
C1413 C1414 1.398 . S
C1414 H1402 0.950 . S
C1414 C1413 1.398 . S
C1414 C1415 1.391 . S
C1415 H1403 0.950 . S
C1415 C1411 1.393 . S
C1415 C1414 1.391 . S
H1416 C1424 0.950 . S
H1417 C1429 0.950 . S
H1418 C1426 0.950 . S
H1419 C1428 0.950 . S
H1420 C1430 0.950 . S
H1421 C1432 0.950 . S
H1422 C1434 0.950 . S
H1423 C1435 0.950 . S
C1424 H1416 0.950 . S
C1424 C1425 1.386 . S
C1424 C1426 1.391 . S
C1425 C1424 1.386 . S
C1425 C1429 1.393 . S
C1426 H1418 0.950 . S
C1426 C1424 1.391 . S
C1426 C1427 1.400 . S
C1427 C1426 1.400 . S
C1427 C1428 1.398 . S
C1427 C1433 1.491 . S
C1428 H1419 0.950 . S
C1428 C1427 1.398 . S
C1428 C1429 1.391 . S
C1429 H1417 0.950 . S
C1429 C1425 1.393 . S
C1429 C1428 1.391 . S
C1430 H1420 0.950 . S
C1430 C1431 1.386 . S
C1430 C1432 1.391 . S
C1431 C1430 1.386 . S
C1431 C1435 1.393 . S
C1432 H1421 0.950 . S
C1432 C1430 1.391 . S
C1432 C1433 1.400 . S
C1433 C1427 1.491 . S
C1433 C1432 1.400 . S
C1433 C1434 1.398 . S
C1434 H1422 0.950 . S
C1434 C1433 1.398 . S
C1434 C1435 1.391 . S
C1435 H1423 0.950 . S
C1435 C1431 1.393 . S
C1435 C1434 1.391 . S
H1436 C1444 0.950 . S
H1437 C1449 0.950 . S
H1438 C1446 0.950 . S
H1439 C1448 0.950 . S
H1440 C1450 0.950 . S
H1441 C1452 0.950 . S
H1442 C1454 0.950 . S
H1443 C1455 0.950 . S
C1444 H1436 0.950 . S
C1444 C1445 1.386 . S
C1444 C1446 1.391 . S
C1445 C1444 1.386 . S
C1445 C1449 1.393 . S
C1446 H1438 0.950 . S
C1446 C1444 1.391 . S
C1446 C1447 1.400 . S
C1447 C1446 1.400 . S
C1447 C1448 1.398 . S
C1447 C1453 1.491 . S
C1448 H1439 0.950 . S
C1448 C1447 1.398 . S
C1448 C1449 1.391 . S
C1449 H1437 0.950 . S
C1449 C1445 1.393 . S
C1449 C1448 1.391 . S
C1450 H1440 0.950 . S
C1450 C1451 1.386 . S
C1450 C1452 1.391 . S
C1451 C1450 1.386 . S
C1451 C1455 1.393 . S
C1452 H1441 0.950 . S
C1452 C1450 1.391 . S
C1452 C1453 1.400 . S
C1453 C1447 1.491 . S
C1453 C1452 1.400 . S
C1453 C1454 1.398 . S
C1454 H1442 0.950 . S
C1454 C1453 1.398 . S
C1454 C1455 1.391 . S
C1455 H1443 0.950 . S
C1455 C1451 1.393 . S
C1455 C1454 1.391 . S
H1456 C1464 0.950 . S
H1457 C1469 0.950 . S
H1458 C1466 0.950 . S
H1459 C1468 0.950 1_455 S
H1460 C1470 0.950 . S
H1461 C1472 0.950 . S
H1462 C1474 0.950 1_655 S
H1463 C1475 0.950 . S
C1464 H1456 0.950 . S
C1464 C1465 1.386 . S
C1464 C1466 1.391 . S
C1465 C1464 1.386 . S
C1465 C1469 1.393 . S
C1466 H1458 0.950 . S
C1466 C1464 1.391 . S
C1466 C1467 1.400 . S
C1467 C1466 1.400 . S
C1467 C1468 1.398 . S
C1467 C1473 1.491 1_655 S
C1468 H1459 0.950 1_655 S
C1468 C1467 1.398 . S
C1468 C1469 1.391 . S
C1469 H1457 0.950 . S
C1469 C1465 1.393 . S
C1469 C1468 1.391 . S
C1470 H1460 0.950 . S
C1470 C1471 1.386 . S
C1470 C1472 1.391 . S
C1471 C1470 1.386 . S
C1471 C1475 1.393 . S
C1472 H1461 0.950 . S
C1472 C1470 1.391 . S
C1472 C1473 1.400 . S
C1473 C1467 1.491 1_455 S
C1473 C1472 1.400 . S
C1473 C1474 1.398 . S
C1474 H1462 0.950 1_455 S
C1474 C1473 1.398 . S
C1474 C1475 1.391 . S
C1475 H1463 0.950 . S
C1475 C1471 1.393 . S
C1475 C1474 1.391 . S
H1476 C1484 0.950 . S
H1477 C1489 0.950 . S
H1478 C1486 0.950 . S
H1479 C1488 0.950 . S
H1480 C1490 0.950 . S
H1481 C1492 0.950 . S
H1482 C1494 0.950 . S
H1483 C1495 0.950 . S
C1484 H1476 0.950 . S
C1484 C1485 1.386 . S
C1484 C1486 1.391 . S
C1485 C1484 1.386 . S
C1485 C1489 1.393 . S
C1486 H1478 0.950 . S
C1486 C1484 1.391 . S
C1486 C1487 1.400 . S
C1487 C1486 1.400 . S
C1487 C1488 1.398 . S
C1487 C1493 1.491 . S
C1488 H1479 0.950 . S
C1488 C1487 1.398 . S
C1488 C1489 1.391 . S
C1489 H1477 0.950 . S
C1489 C1485 1.393 . S
C1489 C1488 1.391 . S
C1490 H1480 0.950 . S
C1490 C1491 1.386 . S
C1490 C1492 1.391 . S
C1491 C1490 1.386 . S
C1491 C1495 1.393 . S
C1492 H1481 0.950 . S
C1492 C1490 1.391 . S
C1492 C1493 1.400 . S
C1493 C1487 1.491 . S
C1493 C1492 1.400 . S
C1493 C1494 1.398 . S
C1494 H1482 0.950 . S
C1494 C1493 1.398 . S
C1494 C1495 1.391 . S
C1495 H1483 0.950 . S
C1495 C1491 1.393 . S
C1495 C1494 1.391 . S
H1496 C1504 0.950 . S
H1497 C1509 0.950 . S
H1498 C1506 0.950 . S
H1499 C1508 0.950 . S
H1500 C1510 0.950 . S
H1501 C1512 0.950 . S
H1502 C1514 0.950 . S
H1503 C1515 0.950 . S
C1504 H1496 0.950 . S
C1504 C1505 1.386 . S
C1504 C1506 1.391 . S
C1505 C1504 1.386 . S
C1505 C1509 1.393 . S
C1506 H1498 0.950 . S
C1506 C1504 1.391 . S
C1506 C1507 1.400 . S
C1507 C1506 1.400 . S
C1507 C1508 1.398 . S
C1507 C1513 1.491 . S
C1508 H1499 0.950 . S
C1508 C1507 1.398 . S
C1508 C1509 1.391 . S
C1509 H1497 0.950 . S
C1509 C1505 1.393 . S
C1509 C1508 1.391 . S
C1510 H1500 0.950 . S
C1510 C1511 1.386 . S
C1510 C1512 1.391 . S
C1511 C1510 1.386 . S
C1511 C1515 1.393 . S
C1512 H1501 0.950 . S
C1512 C1510 1.391 . S
C1512 C1513 1.400 . S
C1513 C1507 1.491 . S
C1513 C1512 1.400 . S
C1513 C1514 1.398 . S
C1514 H1502 0.950 . S
C1514 C1513 1.398 . S
C1514 C1515 1.391 . S
C1515 H1503 0.950 . S
C1515 C1511 1.393 . S
C1515 C1514 1.391 . S
H1516 C1524 0.950 . S
H1517 C1529 0.950 . S
H1518 C1526 0.950 1_655 S
H1519 C1528 0.950 . S
H1520 C1530 0.950 . S
H1521 C1532 0.950 1_455 S
H1522 C1534 0.950 . S
H1523 C1535 0.950 . S
C1524 H1516 0.950 . S
C1524 C1525 1.386 . S
C1524 C1526 1.391 . S
C1525 C1524 1.386 . S
C1525 C1529 1.393 . S
C1526 H1518 0.950 1_455 S
C1526 C1524 1.391 . S
C1526 C1527 1.400 . S
C1527 C1526 1.400 . S
C1527 C1528 1.398 . S
C1527 C1533 1.491 1_455 S
C1528 H1519 0.950 . S
C1528 C1527 1.398 . S
C1528 C1529 1.391 . S
C1529 H1517 0.950 . S
C1529 C1525 1.393 . S
C1529 C1528 1.391 . S
C1530 H1520 0.950 . S
C1530 C1531 1.386 . S
C1530 C1532 1.391 . S
C1531 C1530 1.386 . S
C1531 C1535 1.393 . S
C1532 H1521 0.950 1_655 S
C1532 C1530 1.391 . S
C1532 C1533 1.400 . S
C1533 C1527 1.491 1_655 S
C1533 C1532 1.400 . S
C1533 C1534 1.398 . S
C1534 H1522 0.950 . S
C1534 C1533 1.398 . S
C1534 C1535 1.391 . S
C1535 H1523 0.950 . S
C1535 C1531 1.393 . S
C1535 C1534 1.391 . S
H1536 C1544 0.950 . S
H1537 C1549 0.950 . S
H1538 C1546 0.950 . S
H1539 C1548 0.950 . S
H1540 C1550 0.950 . S
H1541 C1552 0.950 . S
H1542 C1554 0.950 . S
H1543 C1555 0.950 . S
C1544 H1536 0.950 . S
C1544 C1545 1.386 . S
C1544 C1546 1.391 . S
C1545 C1544 1.386 . S
C1545 C1549 1.393 . S
C1546 H1538 0.950 . S
C1546 C1544 1.391 . S
C1546 C1547 1.400 . S
C1547 C1546 1.400 . S
C1547 C1548 1.398 . S
C1547 C1553 1.491 1_455 S
C1548 H1539 0.950 . S
C1548 C1547 1.398 . S
C1548 C1549 1.391 . S
C1549 H1537 0.950 . S
C1549 C1545 1.393 . S
C1549 C1548 1.391 . S
C1550 H1540 0.950 . S
C1550 C1551 1.386 . S
C1550 C1552 1.391 . S
C1551 C1550 1.386 . S
C1551 C1555 1.393 . S
C1552 H1541 0.950 . S
C1552 C1550 1.391 . S
C1552 C1553 1.400 . S
C1553 C1547 1.491 1_655 S
C1553 C1552 1.400 . S
C1553 C1554 1.398 . S
C1554 H1542 0.950 . S
C1554 C1553 1.398 . S
C1554 C1555 1.391 . S
C1555 H1543 0.950 . S
C1555 C1551 1.393 . S
C1555 C1554 1.391 . S
H1556 C1564 0.950 . S
H1557 C1569 0.950 . S
H1558 C1566 0.950 1_455 S
H1559 C1568 0.950 . S
H1560 C1570 0.950 . S
H1561 C1572 0.950 1_655 S
H1562 C1574 0.950 . S
H1563 C1575 0.950 . S
C1564 H1556 0.950 . S
C1564 C1565 1.386 . S
C1564 C1566 1.391 . S
C1565 C1564 1.386 . S
C1565 C1569 1.393 . S
C1566 H1558 0.950 1_655 S
C1566 C1564 1.391 . S
C1566 C1567 1.400 . S
C1567 C1566 1.400 . S
C1567 C1568 1.398 . S
C1567 C1573 1.491 1_655 S
C1568 H1559 0.950 . S
C1568 C1567 1.398 . S
C1568 C1569 1.391 . S
C1569 H1557 0.950 . S
C1569 C1565 1.393 . S
C1569 C1568 1.391 . S
C1570 H1560 0.950 . S
C1570 C1571 1.386 . S
C1570 C1572 1.391 . S
C1571 C1570 1.386 . S
C1571 C1575 1.393 . S
C1572 H1561 0.950 1_455 S
C1572 C1570 1.391 . S
C1572 C1573 1.400 . S
C1573 C1567 1.491 1_455 S
C1573 C1572 1.400 . S
C1573 C1574 1.398 . S
C1574 H1562 0.950 . S
C1574 C1573 1.398 . S
C1574 C1575 1.391 . S
C1575 H1563 0.950 . S
C1575 C1571 1.393 . S
C1575 C1574 1.391 . S
H1576 C1584 0.950 . S
H1577 C1589 0.950 . S
H1578 C1586 0.950 . S
H1579 C1588 0.950 . S
H1580 C1590 0.950 . S
H1581 C1592 0.950 . S
H1582 C1594 0.950 . S
H1583 C1595 0.950 . S
C1584 H1576 0.950 . S
C1584 C1585 1.386 . S
C1584 C1586 1.391 . S
C1585 C1584 1.386 . S
C1585 C1589 1.393 . S
C1586 H1578 0.950 . S
C1586 C1584 1.391 . S
C1586 C1587 1.400 . S
C1587 C1586 1.400 . S
C1587 C1588 1.398 . S
C1587 C1593 1.491 . S
C1588 H1579 0.950 . S
C1588 C1587 1.398 . S
C1588 C1589 1.391 . S
C1589 H1577 0.950 . S
C1589 C1585 1.393 . S
C1589 C1588 1.391 . S
C1590 H1580 0.950 . S
C1590 C1591 1.386 . S
C1590 C1592 1.391 . S
C1591 C1590 1.386 . S
C1591 C1595 1.393 . S
C1592 H1581 0.950 . S
C1592 C1590 1.391 . S
C1592 C1593 1.400 . S
C1593 C1587 1.491 . S
C1593 C1592 1.400 . S
C1593 C1594 1.398 . S
C1594 H1582 0.950 . S
C1594 C1593 1.398 . S
C1594 C1595 1.391 . S
C1595 H1583 0.950 . S
C1595 C1591 1.393 . S
C1595 C1594 1.391 . S
H1596 C1604 0.950 . S
H1597 C1609 0.950 . S
H1598 C1606 0.950 . S
H1599 C1608 0.950 . S
H1600 C1610 0.950 . S
H1601 C1612 0.950 . S
H1602 C1614 0.950 . S
H1603 C1615 0.950 . S
C1604 H1596 0.950 . S
C1604 C1605 1.386 . S
C1604 C1606 1.391 . S
C1605 C1604 1.386 . S
C1605 C1609 1.393 . S
C1606 H1598 0.950 . S
C1606 C1604 1.391 . S
C1606 C1607 1.400 . S
C1607 C1606 1.400 . S
C1607 C1608 1.398 . S
C1607 C1613 1.491 . S
C1608 H1599 0.950 . S
C1608 C1607 1.398 . S
C1608 C1609 1.391 . S
C1609 H1597 0.950 . S
C1609 C1605 1.393 . S
C1609 C1608 1.391 . S
C1610 H1600 0.950 . S
C1610 C1611 1.386 . S
C1610 C1612 1.391 . S
C1611 C1610 1.386 . S
C1611 C1615 1.393 . S
C1612 H1601 0.950 . S
C1612 C1610 1.391 . S
C1612 C1613 1.400 . S
C1613 C1607 1.491 . S
C1613 C1612 1.400 . S
C1613 C1614 1.398 . S
C1614 H1602 0.950 . S
C1614 C1613 1.398 . S
C1614 C1615 1.391 . S
C1615 H1603 0.950 . S
C1615 C1611 1.393 . S
C1615 C1614 1.391 . S
H1616 C1624 0.950 . S
H1617 C1629 0.950 . S
H1618 C1626 0.950 . S
H1619 C1628 0.950 1_655 S
H1620 C1630 0.950 . S
H1621 C1632 0.950 . S
H1622 C1634 0.950 1_455 S
H1623 C1635 0.950 . S
C1624 H1616 0.950 . S
C1624 C1625 1.386 . S
C1624 C1626 1.391 . S
C1625 C1624 1.386 . S
C1625 C1629 1.393 . S
C1626 H1618 0.950 . S
C1626 C1624 1.391 . S
C1626 C1627 1.400 . S
C1627 C1626 1.400 . S
C1627 C1628 1.398 . S
C1627 C1633 1.491 1_455 S
C1628 H1619 0.950 1_455 S
C1628 C1627 1.398 . S
C1628 C1629 1.391 . S
C1629 H1617 0.950 . S
C1629 C1625 1.393 . S
C1629 C1628 1.391 . S
C1630 H1620 0.950 . S
C1630 C1631 1.386 . S
C1630 C1632 1.391 . S
C1631 C1630 1.386 . S
C1631 C1635 1.393 . S
C1632 H1621 0.950 . S
C1632 C1630 1.391 . S
C1632 C1633 1.400 . S
C1633 C1627 1.491 1_655 S
C1633 C1632 1.400 . S
C1633 C1634 1.398 . S
C1634 H1622 0.950 1_655 S
C1634 C1633 1.398 . S
C1634 C1635 1.391 . S
C1635 H1623 0.950 . S
C1635 C1631 1.393 . S
C1635 C1634 1.391 . S
H1636 C1644 0.950 . S
H1637 C1649 0.950 . S
H1638 C1646 0.950 . S
H1639 C1648 0.950 . S
H1640 C1650 0.950 . S
H1641 C1652 0.950 . S
H1642 C1654 0.950 . S
H1643 C1655 0.950 . S
C1644 H1636 0.950 . S
C1644 C1645 1.386 . S
C1644 C1646 1.391 . S
C1645 C1644 1.386 . S
C1645 C1649 1.393 . S
C1646 H1638 0.950 . S
C1646 C1644 1.391 . S
C1646 C1647 1.400 . S
C1647 C1646 1.400 . S
C1647 C1648 1.398 . S
C1647 C1653 1.491 . S
C1648 H1639 0.950 . S
C1648 C1647 1.398 . S
C1648 C1649 1.391 . S
C1649 H1637 0.950 . S
C1649 C1645 1.393 . S
C1649 C1648 1.391 . S
C1650 H1640 0.950 . S
C1650 C1651 1.386 . S
C1650 C1652 1.391 . S
C1651 C1650 1.386 . S
C1651 C1655 1.393 . S
C1652 H1641 0.950 . S
C1652 C1650 1.391 . S
C1652 C1653 1.400 . S
C1653 C1647 1.491 . S
C1653 C1652 1.400 . S
C1653 C1654 1.398 . S
C1654 H1642 0.950 . S
C1654 C1653 1.398 . S
C1654 C1655 1.391 . S
C1655 H1643 0.950 . S
C1655 C1651 1.393 . S
C1655 C1654 1.391 . S
H1656 C1664 0.950 . S
H1657 C1669 0.950 . S
H1658 C1666 0.950 . S
H1659 C1668 0.950 . S
H1660 C1670 0.950 . S
H1661 C1672 0.950 . S
H1662 C1674 0.950 . S
H1663 C1675 0.950 . S
C1664 H1656 0.950 . S
C1664 C1665 1.386 . S
C1664 C1666 1.391 . S
C1665 C1664 1.386 . S
C1665 C1669 1.393 . S
C1666 H1658 0.950 . S
C1666 C1664 1.391 . S
C1666 C1667 1.400 . S
C1667 C1666 1.400 . S
C1667 C1668 1.398 . S
C1667 C1673 1.491 . S
C1668 H1659 0.950 . S
C1668 C1667 1.398 . S
C1668 C1669 1.391 . S
C1669 H1657 0.950 . S
C1669 C1665 1.393 . S
C1669 C1668 1.391 . S
C1670 H1660 0.950 . S
C1670 C1671 1.386 . S
C1670 C1672 1.391 . S
C1671 C1670 1.386 . S
C1671 C1675 1.393 . S
C1672 H1661 0.950 . S
C1672 C1670 1.391 . S
C1672 C1673 1.400 . S
C1673 C1667 1.491 . S
C1673 C1672 1.400 . S
C1673 C1674 1.398 . S
C1674 H1662 0.950 . S
C1674 C1673 1.398 . S
C1674 C1675 1.391 . S
C1675 H1663 0.950 . S
C1675 C1671 1.393 . S
C1675 C1674 1.391 . S
H1676 C1684 0.950 . S
H1677 C1689 0.950 . S
H1678 C1686 0.950 . S
H1679 C1688 0.950 . S
H1680 C1690 0.950 . S
H1681 C1692 0.950 . S
H1682 C1694 0.950 . S
H1683 C1695 0.950 . S
C1684 H1676 0.950 . S
C1684 C1685 1.386 . S
C1684 C1686 1.391 . S
C1685 C1684 1.386 . S
C1685 C1689 1.393 . S
C1686 H1678 0.950 . S
C1686 C1684 1.391 . S
C1686 C1687 1.400 . S
C1687 C1686 1.400 . S
C1687 C1688 1.398 . S
C1687 C1693 1.491 1_655 S
C1688 H1679 0.950 . S
C1688 C1687 1.398 . S
C1688 C1689 1.391 . S
C1689 H1677 0.950 . S
C1689 C1685 1.393 . S
C1689 C1688 1.391 . S
C1690 H1680 0.950 . S
C1690 C1691 1.386 . S
C1690 C1692 1.391 . S
C1691 C1690 1.386 . S
C1691 C1695 1.393 . S
C1692 H1681 0.950 . S
C1692 C1690 1.391 . S
C1692 C1693 1.400 . S
C1693 C1687 1.491 1_455 S
C1693 C1692 1.400 . S
C1693 C1694 1.398 . S
C1694 H1682 0.950 . S
C1694 C1693 1.398 . S
C1694 C1695 1.391 . S
C1695 H1683 0.950 . S
C1695 C1691 1.393 . S
C1695 C1694 1.391 . S
H1696 C1704 0.950 . S
H1697 C1709 0.950 . S
H1698 C1706 0.950 . S
H1699 C1708 0.950 . S
H1700 C1710 0.950 . S
H1701 C1712 0.950 . S
H1702 C1714 0.950 . S
H1703 C1715 0.950 . S
C1704 H1696 0.950 . S
C1704 C1705 1.386 . S
C1704 C1706 1.391 . S
C1705 C1704 1.386 . S
C1705 C1709 1.393 . S
C1706 H1698 0.950 . S
C1706 C1704 1.391 . S
C1706 C1707 1.400 . S
C1707 C1706 1.400 . S
C1707 C1708 1.398 . S
C1707 C1713 1.491 . S
C1708 H1699 0.950 . S
C1708 C1707 1.398 . S
C1708 C1709 1.391 . S
C1709 H1697 0.950 . S
C1709 C1705 1.393 . S
C1709 C1708 1.391 . S
C1710 H1700 0.950 . S
C1710 C1711 1.386 . S
C1710 C1712 1.391 . S
C1711 C1710 1.386 . S
C1711 C1715 1.393 . S
C1712 H1701 0.950 . S
C1712 C1710 1.391 . S
C1712 C1713 1.400 . S
C1713 C1707 1.491 . S
C1713 C1712 1.400 . S
C1713 C1714 1.398 . S
C1714 H1702 0.950 . S
C1714 C1713 1.398 . S
C1714 C1715 1.391 . S
C1715 H1703 0.950 . S
C1715 C1711 1.393 . S
C1715 C1714 1.391 . S
H1716 C1724 0.950 . S
H1717 C1729 0.950 . S
H1718 C1726 0.950 . S
H1719 C1728 0.950 . S
H1720 C1730 0.950 . S
H1721 C1732 0.950 . S
H1722 C1734 0.950 . S
H1723 C1735 0.950 . S
C1724 H1716 0.950 . S
C1724 C1725 1.386 . S
C1724 C1726 1.391 . S
C1725 C1724 1.386 . S
C1725 C1729 1.393 1_545 S
C1726 H1718 0.950 . S
C1726 C1724 1.391 . S
C1726 C1727 1.400 . S
C1727 C1726 1.400 . S
C1727 C1728 1.398 1_545 S
C1727 C1733 1.491 1_645 S
C1728 H1719 0.950 . S
C1728 C1727 1.398 1_565 S
C1728 C1729 1.391 . S
C1729 H1717 0.950 . S
C1729 C1725 1.393 1_565 S
C1729 C1728 1.391 . S
C1730 H1720 0.950 . S
C1730 C1731 1.386 . S
C1730 C1732 1.391 . S
C1731 C1730 1.386 . S
C1731 C1735 1.393 1_565 S
C1732 H1721 0.950 . S
C1732 C1730 1.391 . S
C1732 C1733 1.400 . S
C1733 C1727 1.491 1_465 S
C1733 C1732 1.400 . S
C1733 C1734 1.398 1_565 S
C1734 H1722 0.950 . S
C1734 C1733 1.398 1_545 S
C1734 C1735 1.391 . S
C1735 H1723 0.950 . S
C1735 C1731 1.393 1_545 S
C1735 C1734 1.391 . S
H1736 C1744 0.950 . S
H1737 C1749 0.950 . S
H1738 C1746 0.950 . S
H1739 C1748 0.950 . S
H1740 C1750 0.950 . S
H1741 C1752 0.950 . S
H1742 C1754 0.950 . S
H1743 C1755 0.950 . S
C1744 H1736 0.950 . S
C1744 C1745 1.386 . S
C1744 C1746 1.391 . S
C1745 C1744 1.386 . S
C1745 C1749 1.393 . S
C1746 H1738 0.950 . S
C1746 C1744 1.391 . S
C1746 C1747 1.400 . S
C1747 C1746 1.400 . S
C1747 C1748 1.398 . S
C1747 C1753 1.491 . S
C1748 H1739 0.950 . S
C1748 C1747 1.398 . S
C1748 C1749 1.391 . S
C1749 H1737 0.950 . S
C1749 C1745 1.393 . S
C1749 C1748 1.391 . S
C1750 H1740 0.950 . S
C1750 C1751 1.386 . S
C1750 C1752 1.391 . S
C1751 C1750 1.386 . S
C1751 C1755 1.393 . S
C1752 H1741 0.950 . S
C1752 C1750 1.391 . S
C1752 C1753 1.400 . S
C1753 C1747 1.491 . S
C1753 C1752 1.400 . S
C1753 C1754 1.398 . S
C1754 H1742 0.950 . S
C1754 C1753 1.398 . S
C1754 C1755 1.391 . S
C1755 H1743 0.950 . S
C1755 C1751 1.393 . S
C1755 C1754 1.391 . S
H1756 C1764 0.950 . S
H1757 C1769 0.950 . S
H1758 C1766 0.950 1_556 S
H1759 C1768 0.950 . S
H1760 C1770 0.950 . S
H1761 C1772 0.950 1_554 S
H1762 C1774 0.950 . S
H1763 C1775 0.950 . S
C1764 H1756 0.950 . S
C1764 C1765 1.386 . S
C1764 C1766 1.391 . S
C1765 C1764 1.386 . S
C1765 C1769 1.393 . S
C1766 H1758 0.950 1_554 S
C1766 C1764 1.391 . S
C1766 C1767 1.400 . S
C1767 C1766 1.400 . S
C1767 C1768 1.398 1_545 S
C1767 C1773 1.491 1_544 S
C1768 H1759 0.950 . S
C1768 C1767 1.398 1_565 S
C1768 C1769 1.391 1_565 S
C1769 H1757 0.950 . S
C1769 C1765 1.393 . S
C1769 C1768 1.391 1_545 S
C1770 H1760 0.950 . S
C1770 C1771 1.386 . S
C1770 C1772 1.391 . S
C1771 C1770 1.386 . S
C1771 C1775 1.393 . S
C1772 H1761 0.950 1_556 S
C1772 C1770 1.391 . S
C1772 C1773 1.400 . S
C1773 C1767 1.491 1_566 S
C1773 C1772 1.400 . S
C1773 C1774 1.398 1_565 S
C1774 H1762 0.950 . S
C1774 C1773 1.398 1_545 S
C1774 C1775 1.391 1_545 S
C1775 H1763 0.950 . S
C1775 C1771 1.393 . S
C1775 C1774 1.391 1_565 S
H1776 C1784 0.950 . S
H1777 C1789 0.950 . S
H1778 C1786 0.950 . S
H1779 C1788 0.950 . S
H1780 C1790 0.950 . S
H1781 C1792 0.950 . S
H1782 C1794 0.950 . S
H1783 C1795 0.950 . S
C1784 H1776 0.950 . S
C1784 C1785 1.386 . S
C1784 C1786 1.391 . S
C1785 C1784 1.386 . S
C1785 C1789 1.393 . S
C1786 H1778 0.950 . S
C1786 C1784 1.391 . S
C1786 C1787 1.400 . S
C1787 C1786 1.400 . S
C1787 C1788 1.398 . S
C1787 C1793 1.491 . S
C1788 H1779 0.950 . S
C1788 C1787 1.398 . S
C1788 C1789 1.391 . S
C1789 H1777 0.950 . S
C1789 C1785 1.393 . S
C1789 C1788 1.391 . S
C1790 H1780 0.950 . S
C1790 C1791 1.386 . S
C1790 C1792 1.391 . S
C1791 C1790 1.386 . S
C1791 C1795 1.393 . S
C1792 H1781 0.950 . S
C1792 C1790 1.391 . S
C1792 C1793 1.400 . S
C1793 C1787 1.491 . S
C1793 C1792 1.400 . S
C1793 C1794 1.398 . S
C1794 H1782 0.950 . S
C1794 C1793 1.398 . S
C1794 C1795 1.391 . S
C1795 H1783 0.950 . S
C1795 C1791 1.393 . S
C1795 C1794 1.391 . S
H1796 C1804 0.950 . S
H1797 C1809 0.950 . S
H1798 C1806 0.950 . S
H1799 C1808 0.950 . S
H1800 C1810 0.950 . S
H1801 C1812 0.950 . S
H1802 C1814 0.950 . S
H1803 C1815 0.950 . S
C1804 H1796 0.950 . S
C1804 C1805 1.386 1_565 S
C1804 C1806 1.391 . S
C1805 C1804 1.386 1_545 S
C1805 C1809 1.393 . S
C1806 H1798 0.950 . S
C1806 C1804 1.391 . S
C1806 C1807 1.400 1_565 S
C1807 C1806 1.400 1_545 S
C1807 C1808 1.398 . S
C1807 C1813 1.491 1_545 S
C1808 H1799 0.950 . S
C1808 C1807 1.398 . S
C1808 C1809 1.391 . S
C1809 H1797 0.950 . S
C1809 C1805 1.393 . S
C1809 C1808 1.391 . S
C1810 H1800 0.950 . S
C1810 C1811 1.386 1_545 S
C1810 C1812 1.391 . S
C1811 C1810 1.386 1_565 S
C1811 C1815 1.393 . S
C1812 H1801 0.950 . S
C1812 C1810 1.391 . S
C1812 C1813 1.400 1_545 S
C1813 C1807 1.491 1_565 S
C1813 C1812 1.400 1_565 S
C1813 C1814 1.398 . S
C1814 H1802 0.950 . S
C1814 C1813 1.398 . S
C1814 C1815 1.391 . S
C1815 H1803 0.950 . S
C1815 C1811 1.393 . S
C1815 C1814 1.391 . S
H1816 C1824 0.950 . S
H1817 C1829 0.950 . S
H1818 C1826 0.950 . S
H1819 C1828 0.950 . S
H1820 C1830 0.950 . S
H1821 C1832 0.950 . S
H1822 C1834 0.950 . S
H1823 C1835 0.950 . S
C1824 H1816 0.950 . S
C1824 C1825 1.386 . S
C1824 C1826 1.391 . S
C1825 C1824 1.386 . S
C1825 C1829 1.393 . S
C1826 H1818 0.950 . S
C1826 C1824 1.391 . S
C1826 C1827 1.400 . S
C1827 C1826 1.400 . S
C1827 C1828 1.398 . S
C1827 C1833 1.491 . S
C1828 H1819 0.950 . S
C1828 C1827 1.398 . S
C1828 C1829 1.391 . S
C1829 H1817 0.950 . S
C1829 C1825 1.393 . S
C1829 C1828 1.391 . S
C1830 H1820 0.950 . S
C1830 C1831 1.386 . S
C1830 C1832 1.391 . S
C1831 C1830 1.386 . S
C1831 C1835 1.393 . S
C1832 H1821 0.950 . S
C1832 C1830 1.391 . S
C1832 C1833 1.400 . S
C1833 C1827 1.491 . S
C1833 C1832 1.400 . S
C1833 C1834 1.398 . S
C1834 H1822 0.950 . S
C1834 C1833 1.398 . S
C1834 C1835 1.391 . S
C1835 H1823 0.950 . S
C1835 C1831 1.393 . S
C1835 C1834 1.391 . S
H1836 C1844 0.950 . S
H1837 C1849 0.950 . S
H1838 C1846 0.940 1_554 S
H1839 C1848 0.950 . S
H1840 C1850 0.950 . S
H1841 C1852 0.940 1_556 S
H1842 C1854 0.950 . S
H1843 C1855 0.950 . S
C1844 H1836 0.950 . S
C1844 C1845 1.386 . S
C1844 C1846 1.391 . S
C1845 C1844 1.386 . S
C1845 C1849 1.393 1_545 S
C1846 H1838 0.940 1_556 S
C1846 C1844 1.391 . S
C1846 C1847 1.400 . S
C1847 C1846 1.400 . S
C1847 C1848 1.398 1_545 S
C1847 C1853 1.491 1_446 S
C1848 H1839 0.950 . S
C1848 C1847 1.398 1_565 S
C1848 C1849 1.391 . S
C1849 H1837 0.950 . S
C1849 C1845 1.393 1_565 S
C1849 C1848 1.391 . S
C1850 H1840 0.950 . S
C1850 C1851 1.386 . S
C1850 C1852 1.391 . S
C1851 C1850 1.386 . S
C1851 C1855 1.393 1_565 S
C1852 H1841 0.940 1_554 S
C1852 C1850 1.391 . S
C1852 C1853 1.400 . S
C1853 C1847 1.491 1_664 S
C1853 C1852 1.400 . S
C1853 C1854 1.398 1_565 S
C1854 H1842 0.950 . S
C1854 C1853 1.398 1_545 S
C1854 C1855 1.391 . S
C1855 H1843 0.950 . S
C1855 C1851 1.393 1_545 S
C1855 C1854 1.391 . S
H1856 C1864 0.950 . S
H1857 C1869 0.950 . S
H1858 C1866 0.950 . S
H1859 C1868 0.950 . S
H1860 C1870 0.950 . S
H1861 C1872 0.950 . S
H1862 C1874 0.950 . S
H1863 C1875 0.950 . S
C1864 H1856 0.950 . S
C1864 C1865 1.386 . S
C1864 C1866 1.391 . S
C1865 C1864 1.386 . S
C1865 C1869 1.393 . S
C1866 H1858 0.950 . S
C1866 C1864 1.391 . S
C1866 C1867 1.400 . S
C1867 C1866 1.400 . S
C1867 C1868 1.398 . S
C1867 C1873 1.491 . S
C1868 H1859 0.950 . S
C1868 C1867 1.398 . S
C1868 C1869 1.391 . S
C1869 H1857 0.950 . S
C1869 C1865 1.393 . S
C1869 C1868 1.391 . S
C1870 H1860 0.950 . S
C1870 C1871 1.386 . S
C1870 C1872 1.391 . S
C1871 C1870 1.386 . S
C1871 C1875 1.393 . S
C1872 H1861 0.950 . S
C1872 C1870 1.391 . S
C1872 C1873 1.400 . S
C1873 C1867 1.491 . S
C1873 C1872 1.400 . S
C1873 C1874 1.398 . S
C1874 H1862 0.950 . S
C1874 C1873 1.398 . S
C1874 C1875 1.391 . S
C1875 H1863 0.950 . S
C1875 C1871 1.393 . S
C1875 C1874 1.391 . S
H1876 C1884 0.950 . S
H1877 C1889 0.950 . S
H1878 C1886 0.950 . S
H1879 C1888 0.950 . S
H1880 C1890 0.950 . S
H1881 C1892 0.950 . S
H1882 C1894 0.950 . S
H1883 C1895 0.950 . S
C1884 H1876 0.950 . S
C1884 C1885 1.386 . S
C1884 C1886 1.391 . S
C1885 C1884 1.386 . S
C1885 C1889 1.393 . S
C1886 H1878 0.950 . S
C1886 C1884 1.391 . S
C1886 C1887 1.400 . S
C1887 C1886 1.400 . S
C1887 C1888 1.398 . S
C1887 C1893 1.491 . S
C1888 H1879 0.950 . S
C1888 C1887 1.398 . S
C1888 C1889 1.391 . S
C1889 H1877 0.950 . S
C1889 C1885 1.393 . S
C1889 C1888 1.391 . S
C1890 H1880 0.950 . S
C1890 C1891 1.386 . S
C1890 C1892 1.391 . S
C1891 C1890 1.386 . S
C1891 C1895 1.393 . S
C1892 H1881 0.950 . S
C1892 C1890 1.391 . S
C1892 C1893 1.400 . S
C1893 C1887 1.491 . S
C1893 C1892 1.400 . S
C1893 C1894 1.398 . S
C1894 H1882 0.950 . S
C1894 C1893 1.398 . S
C1894 C1895 1.391 . S
C1895 H1883 0.950 . S
C1895 C1891 1.393 . S
C1895 C1894 1.391 . S
H1896 C1904 0.950 . S
H1897 C1909 0.950 . S
H1898 C1906 0.950 . S
H1899 C1908 0.950 . S
H1900 C1910 0.950 . S
H1901 C1912 0.950 . S
H1902 C1914 0.950 . S
H1903 C1915 0.950 . S
C1904 H1896 0.950 . S
C1904 C1905 1.386 . S
C1904 C1906 1.391 . S
C1905 C1904 1.386 . S
C1905 C1909 1.393 . S
C1906 H1898 0.950 . S
C1906 C1904 1.391 . S
C1906 C1907 1.400 . S
C1907 C1906 1.400 . S
C1907 C1908 1.398 . S
C1907 C1913 1.491 . S
C1908 H1899 0.950 . S
C1908 C1907 1.398 . S
C1908 C1909 1.391 . S
C1909 H1897 0.950 . S
C1909 C1905 1.393 . S
C1909 C1908 1.391 . S
C1910 H1900 0.950 . S
C1910 C1911 1.386 . S
C1910 C1912 1.391 . S
C1911 C1910 1.386 . S
C1911 C1915 1.393 . S
C1912 H1901 0.950 . S
C1912 C1910 1.391 . S
C1912 C1913 1.400 . S
C1913 C1907 1.491 . S
C1913 C1912 1.400 . S
C1913 C1914 1.398 . S
C1914 H1902 0.950 . S
C1914 C1913 1.398 . S
C1914 C1915 1.391 . S
C1915 H1903 0.950 . S
C1915 C1911 1.393 . S
C1915 C1914 1.391 . S
H1916 C1924 0.950 . S
H1917 C1929 0.950 . S
H1918 C1926 0.950 . S
H1919 C1928 0.950 . S
H1920 C1930 0.950 . S
H1921 C1932 0.950 . S
H1922 C1934 0.950 . S
H1923 C1935 0.950 . S
C1924 H1916 0.950 . S
C1924 C1925 1.386 . S
C1924 C1926 1.391 . S
C1925 C1924 1.386 . S
C1925 C1929 1.393 . S
C1926 H1918 0.950 . S
C1926 C1924 1.391 . S
C1926 C1927 1.400 . S
C1927 C1926 1.400 . S
C1927 C1928 1.398 . S
C1927 C1933 1.491 . S
C1928 H1919 0.950 . S
C1928 C1927 1.398 . S
C1928 C1929 1.391 . S
C1929 H1917 0.950 . S
C1929 C1925 1.393 . S
C1929 C1928 1.391 . S
C1930 H1920 0.950 . S
C1930 C1931 1.386 . S
C1930 C1932 1.391 . S
C1931 C1930 1.386 . S
C1931 C1935 1.393 . S
C1932 H1921 0.950 . S
C1932 C1930 1.391 . S
C1932 C1933 1.400 . S
C1933 C1927 1.491 . S
C1933 C1932 1.400 . S
C1933 C1934 1.398 . S
C1934 H1922 0.950 . S
C1934 C1933 1.398 . S
C1934 C1935 1.391 . S
C1935 H1923 0.950 . S
C1935 C1931 1.393 . S
C1935 C1934 1.391 . S
H1936 C1944 0.950 . S
H1937 C1949 0.950 . S
H1938 C1946 0.950 . S
H1939 C1948 0.950 . S
H1940 C1950 0.950 . S
H1941 C1952 0.950 . S
H1942 C1954 0.950 . S
H1943 C1955 0.950 . S
C1944 H1936 0.950 . S
C1944 C1945 1.386 . S
C1944 C1946 1.391 . S
C1945 C1944 1.386 . S
C1945 C1949 1.393 . S
C1946 H1938 0.950 . S
C1946 C1944 1.391 . S
C1946 C1947 1.400 . S
C1947 C1946 1.400 . S
C1947 C1948 1.398 . S
C1947 C1953 1.491 1_554 S
C1948 H1939 0.950 . S
C1948 C1947 1.398 . S
C1948 C1949 1.391 . S
C1949 H1937 0.950 . S
C1949 C1945 1.393 . S
C1949 C1948 1.391 . S
C1950 H1940 0.950 . S
C1950 C1951 1.386 . S
C1950 C1952 1.391 . S
C1951 C1950 1.386 . S
C1951 C1955 1.393 . S
C1952 H1941 0.950 . S
C1952 C1950 1.391 . S
C1952 C1953 1.400 . S
C1953 C1947 1.491 1_556 S
C1953 C1952 1.400 . S
C1953 C1954 1.398 . S
C1954 H1942 0.950 . S
C1954 C1953 1.398 . S
C1954 C1955 1.391 . S
C1955 H1943 0.950 . S
C1955 C1951 1.393 . S
C1955 C1954 1.391 . S
H1956 C1964 0.950 . S
H1957 C1969 0.950 . S
H1958 C1966 0.959 . S
H1959 C1968 0.950 . S
H1960 C1970 0.950 . S
H1961 C1972 0.959 . S
H1962 C1974 0.950 . S
H1963 C1975 0.950 . S
C1964 H1956 0.950 . S
C1964 C1965 1.386 . S
C1964 C1966 1.391 . S
C1965 C1964 1.386 . S
C1965 C1969 1.393 . S
C1966 H1958 0.959 . S
C1966 C1964 1.391 . S
C1966 C1967 1.400 . S
C1967 C1966 1.400 . S
C1967 C1968 1.398 . S
C1967 C1973 1.491 1_655 S
C1968 H1959 0.950 . S
C1968 C1967 1.398 . S
C1968 C1969 1.391 . S
C1969 H1957 0.950 . S
C1969 C1965 1.393 . S
C1969 C1968 1.391 . S
C1970 H1960 0.950 . S
C1970 C1971 1.386 . S
C1970 C1972 1.391 . S
C1971 C1970 1.386 . S
C1971 C1975 1.393 . S
C1972 H1961 0.959 . S
C1972 C1970 1.391 . S
C1972 C1973 1.400 . S
C1973 C1967 1.491 1_455 S
C1973 C1972 1.400 . S
C1973 C1974 1.398 . S
C1974 H1962 0.950 . S
C1974 C1973 1.398 . S
C1974 C1975 1.391 . S
C1975 H1963 0.950 . S
C1975 C1971 1.393 . S
C1975 C1974 1.391 . S
H1976 C1984 0.950 . S
H1977 C1989 0.950 . S
H1978 C1986 0.950 . S
H1979 C1988 0.950 1_655 S
H1980 C1990 0.950 . S
H1981 C1992 0.950 . S
H1982 C1994 0.950 1_455 S
H1983 C1995 0.950 . S
C1984 H1976 0.950 . S
C1984 C1985 1.386 . S
C1984 C1986 1.391 . S
C1985 C1984 1.386 . S
C1985 C1989 1.393 . S
C1986 H1978 0.950 . S
C1986 C1984 1.391 . S
C1986 C1987 1.400 . S
C1987 C1986 1.400 . S
C1987 C1988 1.398 . S
C1987 C1993 1.491 1_454 S
C1988 H1979 0.950 1_455 S
C1988 C1987 1.398 . S
C1988 C1989 1.391 . S
C1989 H1977 0.950 . S
C1989 C1985 1.393 . S
C1989 C1988 1.391 . S
C1990 H1980 0.950 . S
C1990 C1991 1.386 . S
C1990 C1992 1.391 . S
C1991 C1990 1.386 . S
C1991 C1995 1.393 . S
C1992 H1981 0.950 . S
C1992 C1990 1.391 . S
C1992 C1993 1.400 . S
C1993 C1987 1.491 1_656 S
C1993 C1992 1.400 . S
C1993 C1994 1.398 . S
C1994 H1982 0.950 1_655 S
C1994 C1993 1.398 . S
C1994 C1995 1.391 . S
C1995 H1983 0.950 . S
C1995 C1991 1.393 . S
C1995 C1994 1.391 . S
H1996 C2004 0.950 . S
H1997 C2009 0.950 . S
H1998 C2006 0.950 . S
H1999 C2008 0.950 . S
H2000 C2010 0.950 . S
H2001 C2012 0.950 . S
H2002 C2014 0.950 . S
H2003 C2015 0.950 . S
C2004 H1996 0.950 . S
C2004 C2005 1.386 . S
C2004 C2006 1.391 . S
C2005 C2004 1.386 . S
C2005 C2009 1.393 . S
C2006 H1998 0.950 . S
C2006 C2004 1.391 . S
C2006 C2007 1.400 . S
C2007 C2006 1.400 . S
C2007 C2008 1.398 . S
C2007 C2013 1.491 . S
C2008 H1999 0.950 . S
C2008 C2007 1.398 . S
C2008 C2009 1.391 . S
C2009 H1997 0.950 . S
C2009 C2005 1.393 . S
C2009 C2008 1.391 . S
C2010 H2000 0.950 . S
C2010 C2011 1.386 . S
C2010 C2012 1.391 . S
C2011 C2010 1.386 . S
C2011 C2015 1.393 . S
C2012 H2001 0.950 . S
C2012 C2010 1.391 . S
C2012 C2013 1.400 . S
C2013 C2007 1.491 . S
C2013 C2012 1.400 . S
C2013 C2014 1.398 . S
C2014 H2002 0.950 . S
C2014 C2013 1.398 . S
C2014 C2015 1.391 . S
C2015 H2003 0.950 . S
C2015 C2011 1.393 . S
C2015 C2014 1.391 . S
H2016 C2024 0.950 . S
H2017 C2029 0.950 . S
H2018 C2026 0.950 . S
H2019 C2028 0.950 . S
H2020 C2030 0.950 . S
H2021 C2032 0.950 . S
H2022 C2034 0.950 . S
H2023 C2035 0.950 . S
C2024 H2016 0.950 . S
C2024 C2025 1.386 . S
C2024 C2026 1.391 . S
C2025 C2024 1.386 . S
C2025 C2029 1.393 . S
C2026 H2018 0.950 . S
C2026 C2024 1.391 . S
C2026 C2027 1.400 . S
C2027 C2026 1.400 . S
C2027 C2028 1.398 . S
C2027 C2033 1.491 . S
C2028 H2019 0.950 . S
C2028 C2027 1.398 . S
C2028 C2029 1.391 . S
C2029 H2017 0.950 . S
C2029 C2025 1.393 . S
C2029 C2028 1.391 . S
C2030 H2020 0.950 . S
C2030 C2031 1.386 . S
C2030 C2032 1.391 1_565 S
C2031 C2030 1.386 . S
C2031 C2035 1.393 . S
C2032 H2021 0.950 . S
C2032 C2030 1.391 1_545 S
C2032 C2033 1.400 . S
C2033 C2027 1.491 . S
C2033 C2032 1.400 . S
C2033 C2034 1.398 1_545 S
C2034 H2022 0.950 . S
C2034 C2033 1.398 1_565 S
C2034 C2035 1.391 . S
C2035 H2023 0.950 . S
C2035 C2031 1.393 . S
C2035 C2034 1.391 . S
H2036 C2044 0.950 . S
H2037 C2049 0.950 . S
H2038 C2046 0.950 . S
H2039 C2048 0.950 . S
H2040 C2050 0.950 . S
H2041 C2052 0.950 . S
H2042 C2054 0.950 . S
H2043 C2055 0.950 . S
C2044 H2036 0.950 . S
C2044 C2045 1.386 . S
C2044 C2046 1.391 . S
C2045 C2044 1.386 . S
C2045 C2049 1.393 . S
C2046 H2038 0.950 . S
C2046 C2044 1.391 . S
C2046 C2047 1.400 . S
C2047 C2046 1.400 . S
C2047 C2048 1.398 . S
C2047 C2053 1.491 . S
C2048 H2039 0.950 . S
C2048 C2047 1.398 . S
C2048 C2049 1.391 . S
C2049 H2037 0.950 . S
C2049 C2045 1.393 . S
C2049 C2048 1.391 . S
C2050 H2040 0.950 . S
C2050 C2051 1.386 1_545 S
C2050 C2052 1.391 . S
C2051 C2050 1.386 1_565 S
C2051 C2055 1.393 . S
C2052 H2041 0.950 . S
C2052 C2050 1.391 . S
C2052 C2053 1.400 . S
C2053 C2047 1.491 . S
C2053 C2052 1.400 . S
C2053 C2054 1.398 1_545 S
C2054 H2042 0.950 . S
C2054 C2053 1.398 1_565 S
C2054 C2055 1.391 . S
C2055 H2043 0.950 . S
C2055 C2051 1.393 . S
C2055 C2054 1.391 . S
H2056 C2064 0.950 . S
H2057 C2069 0.950 . S
H2058 C2066 0.950 . S
H2059 C2068 0.950 1_565 S
H2060 C2070 0.950 . S
H2061 C2072 0.950 . S
H2062 C2074 0.950 . S
H2063 C2075 0.950 . S
C2064 H2056 0.950 . S
C2064 C2065 1.386 . S
C2064 C2066 1.391 1_545 S
C2065 C2064 1.386 . S
C2065 C2069 1.393 . S
C2066 H2058 0.950 . S
C2066 C2064 1.391 1_565 S
C2066 C2067 1.400 . S
C2067 C2066 1.400 . S
C2067 C2068 1.398 1_565 S
C2067 C2073 1.491 . S
C2068 H2059 0.950 1_545 S
C2068 C2067 1.398 1_545 S
C2068 C2069 1.391 . S
C2069 H2057 0.950 . S
C2069 C2065 1.393 . S
C2069 C2068 1.391 . S
C2070 H2060 0.950 . S
C2070 C2071 1.386 . S
C2070 C2072 1.391 . S
C2071 C2070 1.386 . S
C2071 C2075 1.393 . S
C2072 H2061 0.950 . S
C2072 C2070 1.391 . S
C2072 C2073 1.400 . S
C2073 C2067 1.491 . S
C2073 C2072 1.400 . S
C2073 C2074 1.398 . S
C2074 H2062 0.950 . S
C2074 C2073 1.398 . S
C2074 C2075 1.391 . S
C2075 H2063 0.950 . S
C2075 C2071 1.393 . S
C2075 C2074 1.391 . S
H2076 C2084 0.950 . S
H2077 C2089 0.950 . S
H2078 C2086 0.950 . S
H2079 C2088 0.950 . S
H2080 C2090 0.950 . S
H2081 C2092 0.950 . S
H2082 C2094 0.950 . S
H2083 C2095 0.950 . S
C2084 H2076 0.950 . S
C2084 C2085 1.386 . S
C2084 C2086 1.391 . S
C2085 C2084 1.386 . S
C2085 C2089 1.393 . S
C2086 H2078 0.950 . S
C2086 C2084 1.391 . S
C2086 C2087 1.400 . S
C2087 C2086 1.400 . S
C2087 C2088 1.398 . S
C2087 C2093 1.491 . S
C2088 H2079 0.950 . S
C2088 C2087 1.398 . S
C2088 C2089 1.391 . S
C2089 H2077 0.950 . S
C2089 C2085 1.393 . S
C2089 C2088 1.391 . S
C2090 H2080 0.950 . S
C2090 C2091 1.386 . S
C2090 C2092 1.391 1_545 S
C2091 C2090 1.386 . S
C2091 C2095 1.393 . S
C2092 H2081 0.950 . S
C2092 C2090 1.391 1_565 S
C2092 C2093 1.400 . S
C2093 C2087 1.491 . S
C2093 C2092 1.400 . S
C2093 C2094 1.398 1_565 S
C2094 H2082 0.950 . S
C2094 C2093 1.398 1_545 S
C2094 C2095 1.391 . S
C2095 H2083 0.950 . S
C2095 C2091 1.393 . S
C2095 C2094 1.391 . S
H2096 C2104 0.950 . S
H2097 C2109 0.950 . S
H2098 C2106 0.950 . S
H2099 C2108 0.950 . S
H2100 C2110 0.950 . S
H2101 C2112 0.950 . S
H2102 C2114 0.950 . S
H2103 C2115 0.950 . S
C2104 H2096 0.950 . S
C2104 C2105 1.386 . S
C2104 C2106 1.391 . S
C2105 C2104 1.386 . S
C2105 C2109 1.393 . S
C2106 H2098 0.950 . S
C2106 C2104 1.391 . S
C2106 C2107 1.400 . S
C2107 C2106 1.400 . S
C2107 C2108 1.398 . S
C2107 C2113 1.491 . S
C2108 H2099 0.950 . S
C2108 C2107 1.398 . S
C2108 C2109 1.391 . S
C2109 H2097 0.950 . S
C2109 C2105 1.393 . S
C2109 C2108 1.391 . S
C2110 H2100 0.950 . S
C2110 C2111 1.386 . S
C2110 C2112 1.391 1_545 S
C2111 C2110 1.386 . S
C2111 C2115 1.393 . S
C2112 H2101 0.950 . S
C2112 C2110 1.391 1_565 S
C2112 C2113 1.400 . S
C2113 C2107 1.491 . S
C2113 C2112 1.400 . S
C2113 C2114 1.398 . S
C2114 H2102 0.950 . S
C2114 C2113 1.398 . S
C2114 C2115 1.391 1_565 S
C2115 H2103 0.950 . S
C2115 C2111 1.393 . S
C2115 C2114 1.391 1_545 S
H2116 C2124 0.950 . S
H2117 C2129 0.950 . S
H2118 C2126 0.950 . S
H2119 C2128 0.950 . S
H2120 C2130 0.950 . S
H2121 C2132 0.950 . S
H2122 C2134 0.950 . S
H2123 C2135 0.950 . S
C2124 H2116 0.950 . S
C2124 C2125 1.386 . S
C2124 C2126 1.391 . S
C2125 C2124 1.386 . S
C2125 C2129 1.393 1_545 S
C2126 H2118 0.950 . S
C2126 C2124 1.391 . S
C2126 C2127 1.400 1_545 S
C2127 C2126 1.400 1_565 S
C2127 C2128 1.398 . S
C2127 C2133 1.491 . S
C2128 H2119 0.950 . S
C2128 C2127 1.398 . S
C2128 C2129 1.391 . S
C2129 H2117 0.950 . S
C2129 C2125 1.393 1_565 S
C2129 C2128 1.391 . S
C2130 H2120 0.950 . S
C2130 C2131 1.386 . S
C2130 C2132 1.391 . S
C2131 C2130 1.386 . S
C2131 C2135 1.393 . S
C2132 H2121 0.950 . S
C2132 C2130 1.391 . S
C2132 C2133 1.400 . S
C2133 C2127 1.491 . S
C2133 C2132 1.400 . S
C2133 C2134 1.398 . S
C2134 H2122 0.950 . S
C2134 C2133 1.398 . S
C2134 C2135 1.391 . S
C2135 H2123 0.950 . S
C2135 C2131 1.393 . S
C2135 C2134 1.391 . S
H2136 C2144 0.950 1_545 S
H2137 C2149 0.950 . S
H2138 C2146 0.950 . S
H2139 C2148 0.950 . S
H2140 C2150 0.950 . S
H2141 C2152 0.950 . S
H2142 C2154 0.950 . S
H2143 C2155 0.950 . S
C2144 H2136 0.950 1_565 S
C2144 C2145 1.384 . S
C2144 C2146 1.392 1_565 S
C2145 C2144 1.384 . S
C2145 C2149 1.393 . S
C2146 H2138 0.950 . S
C2146 C2144 1.392 1_545 S
C2146 C2147 1.400 . S
C2147 C2146 1.400 . S
C2147 C2148 1.398 1_545 S
C2147 C2153 1.491 . S
C2148 H2139 0.950 . S
C2148 C2147 1.398 1_565 S
C2148 C2149 1.391 . S
C2149 H2137 0.950 . S
C2149 C2145 1.393 . S
C2149 C2148 1.391 . S
C2150 H2140 0.950 . S
C2150 C2151 1.386 . S
C2150 C2152 1.391 . S
C2151 C2150 1.386 . S
C2151 C2155 1.393 . S
C2152 H2141 0.950 . S
C2152 C2150 1.391 . S
C2152 C2153 1.400 . S
C2153 C2147 1.491 . S
C2153 C2152 1.400 . S
C2153 C2154 1.398 . S
C2154 H2142 0.950 . S
C2154 C2153 1.398 . S
C2154 C2155 1.391 . S
C2155 H2143 0.950 . S
C2155 C2151 1.393 . S
C2155 C2154 1.391 . S
H2156 C2164 0.950 . S
H2157 C2169 0.950 . S
H2158 C2166 0.950 . S
H2159 C2168 0.950 . S
H2160 C2170 0.950 . S
H2161 C2172 0.950 . S
H2162 C2174 0.950 . S
H2163 C2175 0.950 . S
C2164 H2156 0.950 . S
C2164 C2165 1.386 . S
C2164 C2166 1.391 1_565 S
C2165 C2164 1.386 . S
C2165 C2169 1.393 . S
C2166 H2158 0.950 . S
C2166 C2164 1.391 1_545 S
C2166 C2167 1.400 . S
C2167 C2166 1.400 . S
C2167 C2168 1.398 . S
C2167 C2173 1.491 . S
C2168 H2159 0.950 . S
C2168 C2167 1.398 . S
C2168 C2169 1.391 1_545 S
C2169 H2157 0.950 . S
C2169 C2165 1.393 . S
C2169 C2168 1.391 1_565 S
C2170 H2160 0.950 . S
C2170 C2171 1.386 . S
C2170 C2172 1.391 . S
C2171 C2170 1.386 . S
C2171 C2175 1.393 . S
C2172 H2161 0.950 . S
C2172 C2170 1.391 . S
C2172 C2173 1.400 . S
C2173 C2167 1.491 . S
C2173 C2172 1.400 . S
C2173 C2174 1.398 . S
C2174 H2162 0.950 . S
C2174 C2173 1.398 . S
C2174 C2175 1.391 . S
C2175 H2163 0.950 . S
C2175 C2171 1.393 . S
C2175 C2174 1.391 . S
H2176 C2184 0.950 . S
H2177 C2189 0.950 . S
H2178 C2186 0.950 . S
H2179 C2188 0.950 . S
H2180 C2190 0.950 . S
H2181 C2192 0.950 . S
H2182 C2194 0.950 . S
H2183 C2195 0.950 . S
C2184 H2176 0.950 . S
C2184 C2185 1.386 . S
C2184 C2186 1.391 . S
C2185 C2184 1.386 . S
C2185 C2189 1.393 . S
C2186 H2178 0.950 . S
C2186 C2184 1.391 . S
C2186 C2187 1.400 . S
C2187 C2186 1.400 . S
C2187 C2188 1.398 . S
C2187 C2193 1.491 . S
C2188 H2179 0.950 . S
C2188 C2187 1.398 . S
C2188 C2189 1.391 . S
C2189 H2177 0.950 . S
C2189 C2185 1.393 . S
C2189 C2188 1.391 . S
C2190 H2180 0.950 . S
C2190 C2191 1.386 . S
C2190 C2192 1.391 . S
C2191 C2190 1.386 . S
C2191 C2195 1.393 . S
C2192 H2181 0.950 . S
C2192 C2190 1.391 . S
C2192 C2193 1.400 . S
C2193 C2187 1.491 . S
C2193 C2192 1.400 . S
C2193 C2194 1.398 . S
C2194 H2182 0.950 . S
C2194 C2193 1.398 . S
C2194 C2195 1.391 . S
C2195 H2183 0.950 . S
C2195 C2191 1.393 . S
C2195 C2194 1.391 . S
H2196 C2204 0.950 . S
H2197 C2209 0.950 . S
H2198 C2206 0.950 . S
H2199 C2208 0.950 . S
H2200 C2210 0.950 . S
H2201 C2212 0.950 . S
H2202 C2214 0.950 . S
H2203 C2215 0.950 . S
C2204 H2196 0.950 . S
C2204 C2205 1.386 . S
C2204 C2206 1.391 . S
C2205 C2204 1.386 . S
C2205 C2209 1.393 . S
C2206 H2198 0.950 . S
C2206 C2204 1.391 . S
C2206 C2207 1.400 . S
C2207 C2206 1.400 . S
C2207 C2208 1.398 . S
C2207 C2213 1.491 . S
C2208 H2199 0.950 . S
C2208 C2207 1.398 . S
C2208 C2209 1.391 . S
C2209 H2197 0.950 . S
C2209 C2205 1.393 . S
C2209 C2208 1.391 . S
C2210 H2200 0.950 . S
C2210 C2211 1.386 . S
C2210 C2212 1.391 . S
C2211 C2210 1.386 . S
C2211 C2215 1.393 . S
C2212 H2201 0.950 . S
C2212 C2210 1.391 . S
C2212 C2213 1.400 . S
C2213 C2207 1.491 . S
C2213 C2212 1.400 . S
C2213 C2214 1.398 . S
C2214 H2202 0.950 . S
C2214 C2213 1.398 . S
C2214 C2215 1.391 . S
C2215 H2203 0.950 . S
C2215 C2211 1.393 . S
C2215 C2214 1.391 . S
H2216 C2224 0.950 . S
H2217 C2229 0.950 . S
H2218 C2226 0.950 . S
H2219 C2228 0.950 . S
H2220 C2230 0.950 . S
H2221 C2232 0.950 . S
H2222 C2234 0.950 . S
H2223 C2235 0.950 . S
C2224 H2216 0.950 . S
C2224 C2225 1.386 . S
C2224 C2226 1.391 . S
C2225 C2224 1.386 . S
C2225 C2229 1.393 . S
C2226 H2218 0.950 . S
C2226 C2224 1.391 . S
C2226 C2227 1.400 . S
C2227 C2226 1.400 . S
C2227 C2228 1.398 . S
C2227 C2233 1.491 . S
C2228 H2219 0.950 . S
C2228 C2227 1.398 . S
C2228 C2229 1.391 . S
C2229 H2217 0.950 . S
C2229 C2225 1.393 . S
C2229 C2228 1.391 . S
C2230 H2220 0.950 . S
C2230 C2231 1.386 . S
C2230 C2232 1.391 . S
C2231 C2230 1.386 . S
C2231 C2235 1.393 . S
C2232 H2221 0.950 . S
C2232 C2230 1.391 . S
C2232 C2233 1.400 . S
C2233 C2227 1.491 . S
C2233 C2232 1.400 . S
C2233 C2234 1.398 . S
C2234 H2222 0.950 . S
C2234 C2233 1.398 . S
C2234 C2235 1.391 . S
C2235 H2223 0.950 . S
C2235 C2231 1.393 . S
C2235 C2234 1.391 . S
H2236 C2244 0.950 . S
H2237 C2249 0.950 . S
H2238 C2246 0.950 . S
H2239 C2248 0.950 . S
H2240 C2250 0.950 . S
H2241 C2252 0.950 . S
H2242 C2254 0.950 . S
H2243 C2255 0.950 . S
C2244 H2236 0.950 . S
C2244 C2245 1.386 . S
C2244 C2246 1.391 . S
C2245 C2244 1.386 . S
C2245 C2249 1.393 . S
C2246 H2238 0.950 . S
C2246 C2244 1.391 . S
C2246 C2247 1.400 . S
C2247 C2246 1.400 . S
C2247 C2248 1.398 . S
C2247 C2253 1.491 . S
C2248 H2239 0.950 . S
C2248 C2247 1.398 . S
C2248 C2249 1.391 . S
C2249 H2237 0.950 . S
C2249 C2245 1.393 . S
C2249 C2248 1.391 . S
C2250 H2240 0.950 . S
C2250 C2251 1.386 . S
C2250 C2252 1.391 . S
C2251 C2250 1.386 . S
C2251 C2255 1.393 . S
C2252 H2241 0.950 . S
C2252 C2250 1.391 . S
C2252 C2253 1.400 . S
C2253 C2247 1.491 . S
C2253 C2252 1.400 . S
C2253 C2254 1.398 . S
C2254 H2242 0.950 . S
C2254 C2253 1.398 . S
C2254 C2255 1.391 . S
C2255 H2243 0.950 . S
C2255 C2251 1.393 . S
C2255 C2254 1.391 . S
H2256 C2264 0.950 . S
H2257 C2269 0.950 . S
H2258 C2266 0.950 . S
H2259 C2268 0.950 . S
H2260 C2270 0.950 . S
H2261 C2272 0.950 . S
H2262 C2274 0.950 . S
H2263 C2275 0.950 . S
C2264 H2256 0.950 . S
C2264 C2265 1.386 . S
C2264 C2266 1.391 . S
C2265 C2264 1.386 . S
C2265 C2269 1.393 . S
C2266 H2258 0.950 . S
C2266 C2264 1.391 . S
C2266 C2267 1.400 . S
C2267 C2266 1.400 . S
C2267 C2268 1.398 . S
C2267 C2273 1.491 . S
C2268 H2259 0.950 . S
C2268 C2267 1.398 . S
C2268 C2269 1.391 . S
C2269 H2257 0.950 . S
C2269 C2265 1.393 . S
C2269 C2268 1.391 . S
C2270 H2260 0.950 . S
C2270 C2271 1.386 . S
C2270 C2272 1.391 . S
C2271 C2270 1.386 . S
C2271 C2275 1.393 . S
C2272 H2261 0.950 . S
C2272 C2270 1.391 . S
C2272 C2273 1.400 . S
C2273 C2267 1.491 . S
C2273 C2272 1.400 . S
C2273 C2274 1.398 . S
C2274 H2262 0.950 . S
C2274 C2273 1.398 . S
C2274 C2275 1.391 . S
C2275 H2263 0.950 . S
C2275 C2271 1.393 . S
C2275 C2274 1.391 . S
H2276 C2284 0.950 . S
H2277 C2289 0.950 . S
H2278 C2286 0.950 . S
H2279 C2288 0.950 . S
H2280 C2290 0.950 . S
H2281 C2292 0.950 . S
H2282 C2294 0.950 . S
H2283 C2295 0.950 . S
C2284 H2276 0.950 . S
C2284 C2285 1.386 . S
C2284 C2286 1.391 . S
C2285 C2284 1.386 . S
C2285 C2289 1.393 . S
C2286 H2278 0.950 . S
C2286 C2284 1.391 . S
C2286 C2287 1.400 . S
C2287 C2286 1.400 . S
C2287 C2288 1.398 . S
C2287 C2293 1.491 . S
C2288 H2279 0.950 . S
C2288 C2287 1.398 . S
C2288 C2289 1.391 . S
C2289 H2277 0.950 . S
C2289 C2285 1.393 . S
C2289 C2288 1.391 . S
C2290 H2280 0.950 . S
C2290 C2291 1.386 . S
C2290 C2292 1.391 . S
C2291 C2290 1.386 . S
C2291 C2295 1.393 . S
C2292 H2281 0.950 . S
C2292 C2290 1.391 . S
C2292 C2293 1.400 . S
C2293 C2287 1.491 . S
C2293 C2292 1.400 . S
C2293 C2294 1.398 . S
C2294 H2282 0.950 . S
C2294 C2293 1.398 . S
C2294 C2295 1.391 . S
C2295 H2283 0.950 . S
C2295 C2291 1.393 . S
C2295 C2294 1.391 . S
H2296 C2304 0.950 . S
H2297 C2309 0.950 . S
H2298 C2306 0.950 . S
H2299 C2308 0.950 . S
H2300 C2310 0.950 . S
H2301 C2312 0.950 . S
H2302 C2314 0.950 . S
H2303 C2315 0.950 . S
C2304 H2296 0.950 . S
C2304 C2305 1.386 . S
C2304 C2306 1.391 . S
C2305 C2304 1.386 . S
C2305 C2309 1.393 . S
C2306 H2298 0.950 . S
C2306 C2304 1.391 . S
C2306 C2307 1.400 . S
C2307 C2306 1.400 . S
C2307 C2308 1.398 . S
C2307 C2313 1.491 . S
C2308 H2299 0.950 . S
C2308 C2307 1.398 . S
C2308 C2309 1.391 . S
C2309 H2297 0.950 . S
C2309 C2305 1.393 . S
C2309 C2308 1.391 . S
C2310 H2300 0.950 . S
C2310 C2311 1.386 . S
C2310 C2312 1.391 . S
C2311 C2310 1.386 . S
C2311 C2315 1.393 . S
C2312 H2301 0.950 . S
C2312 C2310 1.391 . S
C2312 C2313 1.400 . S
C2313 C2307 1.491 . S
C2313 C2312 1.400 . S
C2313 C2314 1.398 . S
C2314 H2302 0.950 . S
C2314 C2313 1.398 . S
C2314 C2315 1.391 . S
C2315 H2303 0.950 . S
C2315 C2311 1.393 . S
C2315 C2314 1.391 . S
H2316 C2324 0.950 . S
H2317 C2329 0.950 . S
H2318 C2326 0.950 . S
H2319 C2328 0.950 . S
H2320 C2330 0.950 . S
H2321 C2332 0.950 . S
H2322 C2334 0.950 . S
H2323 C2335 0.950 . S
C2324 H2316 0.950 . S
C2324 C2325 1.386 . S
C2324 C2326 1.391 . S
C2325 C2324 1.386 . S
C2325 C2329 1.393 . S
C2326 H2318 0.950 . S
C2326 C2324 1.391 . S
C2326 C2327 1.400 . S
C2327 C2326 1.400 . S
C2327 C2328 1.398 . S
C2327 C2333 1.491 . S
C2328 H2319 0.950 . S
C2328 C2327 1.398 . S
C2328 C2329 1.391 . S
C2329 H2317 0.950 . S
C2329 C2325 1.393 . S
C2329 C2328 1.391 . S
C2330 H2320 0.950 . S
C2330 C2331 1.386 . S
C2330 C2332 1.391 . S
C2331 C2330 1.386 . S
C2331 C2335 1.393 . S
C2332 H2321 0.950 . S
C2332 C2330 1.391 . S
C2332 C2333 1.400 . S
C2333 C2327 1.491 . S
C2333 C2332 1.400 . S
C2333 C2334 1.398 . S
C2334 H2322 0.950 . S
C2334 C2333 1.398 . S
C2334 C2335 1.391 . S
C2335 H2323 0.950 . S
C2335 C2331 1.393 . S
C2335 C2334 1.391 . S
H2336 C2344 0.950 . S
H2337 C2349 0.950 . S
H2338 C2346 0.950 . S
H2339 C2348 0.950 . S
H2340 C2350 0.950 . S
H2341 C2352 0.950 . S
H2342 C2354 0.950 . S
H2343 C2355 0.950 . S
C2344 H2336 0.950 . S
C2344 C2345 1.386 . S
C2344 C2346 1.391 . S
C2345 C2344 1.386 . S
C2345 C2349 1.393 . S
C2346 H2338 0.950 . S
C2346 C2344 1.391 . S
C2346 C2347 1.400 . S
C2347 C2346 1.400 . S
C2347 C2348 1.398 . S
C2347 C2353 1.491 1_545 S
C2348 H2339 0.950 . S
C2348 C2347 1.398 . S
C2348 C2349 1.391 . S
C2349 H2337 0.950 . S
C2349 C2345 1.393 . S
C2349 C2348 1.391 . S
C2350 H2340 0.950 . S
C2350 C2351 1.386 . S
C2350 C2352 1.391 . S
C2351 C2350 1.386 . S
C2351 C2355 1.393 . S
C2352 H2341 0.950 . S
C2352 C2350 1.391 . S
C2352 C2353 1.400 . S
C2353 C2347 1.491 1_565 S
C2353 C2352 1.400 . S
C2353 C2354 1.398 . S
C2354 H2342 0.950 . S
C2354 C2353 1.398 . S
C2354 C2355 1.391 . S
C2355 H2343 0.950 . S
C2355 C2351 1.393 . S
C2355 C2354 1.391 . S
H2356 C2364 0.950 . S
H2357 C2369 0.950 . S
H2358 C2366 0.950 . S
H2359 C2368 0.950 . S
H2360 C2370 0.950 . S
H2361 C2372 0.950 . S
H2362 C2374 0.950 . S
H2363 C2375 0.950 . S
C2364 H2356 0.950 . S
C2364 C2365 1.386 . S
C2364 C2366 1.391 . S
C2365 C2364 1.386 . S
C2365 C2369 1.393 . S
C2366 H2358 0.950 . S
C2366 C2364 1.391 . S
C2366 C2367 1.400 . S
C2367 C2366 1.400 . S
C2367 C2368 1.398 . S
C2367 C2373 1.491 . S
C2368 H2359 0.950 . S
C2368 C2367 1.398 . S
C2368 C2369 1.391 . S
C2369 H2357 0.950 . S
C2369 C2365 1.393 . S
C2369 C2368 1.391 . S
C2370 H2360 0.950 . S
C2370 C2371 1.386 . S
C2370 C2372 1.391 . S
C2371 C2370 1.386 . S
C2371 C2375 1.393 . S
C2372 H2361 0.950 . S
C2372 C2370 1.391 . S
C2372 C2373 1.400 . S
C2373 C2367 1.491 . S
C2373 C2372 1.400 . S
C2373 C2374 1.398 . S
C2374 H2362 0.950 . S
C2374 C2373 1.398 . S
C2374 C2375 1.391 . S
C2375 H2363 0.950 . S
C2375 C2371 1.393 . S
C2375 C2374 1.391 . S
H2376 C2384 0.950 . S
H2377 C2389 0.950 . S
H2378 C2386 0.950 . S
H2379 C2388 0.952 1_565 S
H2380 C2390 0.950 . S
H2381 C2392 0.950 . S
H2382 C2394 0.952 1_545 S
H2383 C2395 0.950 . S
C2384 H2376 0.950 . S
C2384 C2385 1.386 . S
C2384 C2386 1.391 . S
C2385 C2384 1.386 . S
C2385 C2389 1.393 . S
C2386 H2378 0.950 . S
C2386 C2384 1.391 . S
C2386 C2387 1.400 . S
C2387 C2386 1.400 . S
C2387 C2388 1.398 . S
C2387 C2393 1.491 1_545 S
C2388 H2379 0.952 1_545 S
C2388 C2387 1.398 . S
C2388 C2389 1.391 . S
C2389 H2377 0.950 . S
C2389 C2385 1.393 . S
C2389 C2388 1.391 . S
C2390 H2380 0.950 . S
C2390 C2391 1.386 . S
C2390 C2392 1.391 . S
C2391 C2390 1.386 . S
C2391 C2395 1.393 . S
C2392 H2381 0.950 . S
C2392 C2390 1.391 . S
C2392 C2393 1.400 . S
C2393 C2387 1.491 1_565 S
C2393 C2392 1.400 . S
C2393 C2394 1.398 . S
C2394 H2382 0.952 1_565 S
C2394 C2393 1.398 . S
C2394 C2395 1.391 . S
C2395 H2383 0.950 . S
C2395 C2391 1.393 . S
C2395 C2394 1.391 . S
H2396 C2404 0.950 . S
H2397 C2409 0.950 . S
H2398 C2406 0.950 . S
H2399 C2408 0.950 1_554 S
H2400 C2410 0.950 . S
H2401 C2412 0.950 . S
H2402 C2414 0.950 1_556 S
H2403 C2415 0.950 . S
C2404 H2396 0.950 . S
C2404 C2405 1.386 . S
C2404 C2406 1.391 . S
C2405 C2404 1.386 . S
C2405 C2409 1.393 . S
C2406 H2398 0.950 . S
C2406 C2404 1.391 . S
C2406 C2407 1.400 . S
C2407 C2406 1.400 . S
C2407 C2408 1.398 . S
C2407 C2413 1.491 1_556 S
C2408 H2399 0.950 1_556 S
C2408 C2407 1.398 . S
C2408 C2409 1.391 . S
C2409 H2397 0.950 . S
C2409 C2405 1.393 . S
C2409 C2408 1.391 . S
C2410 H2400 0.950 . S
C2410 C2411 1.386 . S
C2410 C2412 1.391 . S
C2411 C2410 1.386 . S
C2411 C2415 1.393 . S
C2412 H2401 0.950 . S
C2412 C2410 1.391 . S
C2412 C2413 1.400 . S
C2413 C2407 1.491 1_554 S
C2413 C2412 1.400 . S
C2413 C2414 1.398 . S
C2414 H2402 0.950 1_554 S
C2414 C2413 1.398 . S
C2414 C2415 1.391 . S
C2415 H2403 0.950 . S
C2415 C2411 1.393 . S
C2415 C2414 1.391 . S
H2416 C2424 0.950 . S
H2417 C2429 0.950 . S
H2418 C2426 0.950 1_545 S
H2419 C2428 0.950 . S
H2420 C2430 0.950 . S
H2421 C2432 0.950 1_565 S
H2422 C2434 0.950 . S
H2423 C2435 0.950 . S
C2424 H2416 0.950 . S
C2424 C2425 1.386 . S
C2424 C2426 1.391 . S
C2425 C2424 1.386 . S
C2425 C2429 1.393 . S
C2426 H2418 0.950 1_565 S
C2426 C2424 1.391 . S
C2426 C2427 1.400 . S
C2427 C2426 1.400 . S
C2427 C2428 1.398 . S
C2427 C2433 1.491 1_565 S
C2428 H2419 0.950 . S
C2428 C2427 1.398 . S
C2428 C2429 1.391 . S
C2429 H2417 0.950 . S
C2429 C2425 1.393 . S
C2429 C2428 1.391 . S
C2430 H2420 0.950 . S
C2430 C2431 1.386 . S
C2430 C2432 1.391 . S
C2431 C2430 1.386 . S
C2431 C2435 1.393 . S
C2432 H2421 0.950 1_545 S
C2432 C2430 1.391 . S
C2432 C2433 1.400 . S
C2433 C2427 1.491 1_545 S
C2433 C2432 1.400 . S
C2433 C2434 1.398 . S
C2434 H2422 0.950 . S
C2434 C2433 1.398 . S
C2434 C2435 1.391 . S
C2435 H2423 0.950 . S
C2435 C2431 1.393 . S
C2435 C2434 1.391 . S
H2436 C2444 0.950 . S
H2437 C2449 0.950 . S
H2438 C2446 0.950 . S
H2439 C2448 0.950 . S
H2440 C2450 0.950 . S
H2441 C2452 0.950 . S
H2442 C2454 0.950 . S
H2443 C2455 0.950 . S
C2444 H2436 0.950 . S
C2444 C2445 1.386 . S
C2444 C2446 1.391 . S
C2445 C2444 1.386 . S
C2445 C2449 1.393 . S
C2446 H2438 0.950 . S
C2446 C2444 1.391 . S
C2446 C2447 1.400 . S
C2447 C2446 1.400 . S
C2447 C2448 1.398 . S
C2447 C2453 1.491 . S
C2448 H2439 0.950 . S
C2448 C2447 1.398 . S
C2448 C2449 1.391 . S
C2449 H2437 0.950 . S
C2449 C2445 1.393 . S
C2449 C2448 1.391 . S
C2450 H2440 0.950 . S
C2450 C2451 1.386 . S
C2450 C2452 1.391 . S
C2451 C2450 1.386 . S
C2451 C2455 1.393 . S
C2452 H2441 0.950 . S
C2452 C2450 1.391 . S
C2452 C2453 1.400 . S
C2453 C2447 1.491 . S
C2453 C2452 1.400 . S
C2453 C2454 1.398 . S
C2454 H2442 0.950 . S
C2454 C2453 1.398 . S
C2454 C2455 1.391 . S
C2455 H2443 0.950 . S
C2455 C2451 1.393 . S
C2455 C2454 1.391 . S
H2456 C2464 0.950 . S
H2457 C2469 0.950 . S
H2458 C2466 0.950 . S
H2459 C2468 0.950 1_545 S
H2460 C2470 0.950 . S
H2461 C2472 0.950 . S
H2462 C2474 0.950 1_565 S
H2463 C2475 0.950 . S
C2464 H2456 0.950 . S
C2464 C2465 1.386 . S
C2464 C2466 1.391 . S
C2465 C2464 1.386 . S
C2465 C2469 1.393 . S
C2466 H2458 0.950 . S
C2466 C2464 1.391 . S
C2466 C2467 1.400 . S
C2467 C2466 1.400 . S
C2467 C2468 1.398 . S
C2467 C2473 1.491 1_565 S
C2468 H2459 0.950 1_565 S
C2468 C2467 1.398 . S
C2468 C2469 1.391 . S
C2469 H2457 0.950 . S
C2469 C2465 1.393 . S
C2469 C2468 1.391 . S
C2470 H2460 0.950 . S
C2470 C2471 1.386 . S
C2470 C2472 1.391 . S
C2471 C2470 1.386 . S
C2471 C2475 1.393 . S
C2472 H2461 0.950 . S
C2472 C2470 1.391 . S
C2472 C2473 1.400 . S
C2473 C2467 1.491 1_545 S
C2473 C2472 1.400 . S
C2473 C2474 1.398 . S
C2474 H2462 0.950 1_545 S
C2474 C2473 1.398 . S
C2474 C2475 1.391 . S
C2475 H2463 0.950 . S
C2475 C2471 1.393 . S
C2475 C2474 1.391 . S
H2476 C2484 0.950 . S
H2477 C2489 0.950 . S
H2478 C2486 0.950 . S
H2479 C2488 0.955 1_556 S
H2480 C2490 0.950 . S
H2481 C2492 0.950 . S
H2482 C2494 0.955 1_554 S
H2483 C2495 0.950 . S
C2484 H2476 0.950 . S
C2484 C2485 1.386 . S
C2484 C2486 1.391 . S
C2485 C2484 1.386 . S
C2485 C2489 1.393 . S
C2486 H2478 0.950 . S
C2486 C2484 1.391 . S
C2486 C2487 1.400 . S
C2487 C2486 1.400 . S
C2487 C2488 1.396 . S
C2487 C2493 1.491 1_554 S
C2488 H2479 0.955 1_554 S
C2488 C2487 1.396 . S
C2488 C2489 1.387 . S
C2489 H2477 0.950 . S
C2489 C2485 1.393 . S
C2489 C2488 1.387 . S
C2490 H2480 0.950 . S
C2490 C2491 1.386 . S
C2490 C2492 1.391 . S
C2491 C2490 1.386 . S
C2491 C2495 1.393 . S
C2492 H2481 0.950 . S
C2492 C2490 1.391 . S
C2492 C2493 1.400 . S
C2493 C2487 1.491 1_556 S
C2493 C2492 1.400 . S
C2493 C2494 1.396 . S
C2494 H2482 0.955 1_556 S
C2494 C2493 1.396 . S
C2494 C2495 1.387 . S
C2495 H2483 0.950 . S
C2495 C2491 1.393 . S
C2495 C2494 1.387 . S
H2496 C2504 0.950 . S
H2497 C2509 0.950 . S
H2498 C2506 0.950 . S
H2499 C2508 0.950 . S
H2500 C2510 0.950 . S
H2501 C2512 0.950 . S
H2502 C2514 0.950 . S
H2503 C2515 0.950 . S
C2504 H2496 0.950 . S
C2504 C2505 1.386 . S
C2504 C2506 1.391 . S
C2505 C2504 1.386 . S
C2505 C2509 1.393 . S
C2506 H2498 0.950 . S
C2506 C2504 1.391 . S
C2506 C2507 1.400 . S
C2507 C2506 1.400 . S
C2507 C2508 1.398 . S
C2507 C2513 1.491 . S
C2508 H2499 0.950 . S
C2508 C2507 1.398 . S
C2508 C2509 1.391 . S
C2509 H2497 0.950 . S
C2509 C2505 1.393 . S
C2509 C2508 1.391 . S
C2510 H2500 0.950 . S
C2510 C2511 1.386 . S
C2510 C2512 1.391 . S
C2511 C2510 1.386 . S
C2511 C2515 1.393 . S
C2512 H2501 0.950 . S
C2512 C2510 1.391 . S
C2512 C2513 1.400 . S
C2513 C2507 1.491 . S
C2513 C2512 1.400 . S
C2513 C2514 1.398 . S
C2514 H2502 0.950 . S
C2514 C2513 1.398 . S
C2514 C2515 1.391 . S
C2515 H2503 0.950 . S
C2515 C2511 1.393 . S
C2515 C2514 1.391 . S
H2516 C2524 0.950 . S
H2517 C2529 0.950 . S
H2518 C2526 0.950 1_554 S
H2519 C2528 0.950 . S
H2520 C2530 0.950 . S
H2521 C2532 0.950 1_556 S
H2522 C2534 0.950 . S
H2523 C2535 0.950 . S
C2524 H2516 0.950 . S
C2524 C2525 1.386 . S
C2524 C2526 1.391 . S
C2525 C2524 1.386 . S
C2525 C2529 1.393 . S
C2526 H2518 0.950 1_556 S
C2526 C2524 1.391 . S
C2526 C2527 1.400 . S
C2527 C2526 1.400 . S
C2527 C2528 1.398 . S
C2527 C2533 1.491 1_556 S
C2528 H2519 0.950 . S
C2528 C2527 1.398 . S
C2528 C2529 1.391 . S
C2529 H2517 0.950 . S
C2529 C2525 1.393 . S
C2529 C2528 1.391 . S
C2530 H2520 0.950 . S
C2530 C2531 1.386 . S
C2530 C2532 1.391 . S
C2531 C2530 1.386 . S
C2531 C2535 1.393 . S
C2532 H2521 0.950 1_554 S
C2532 C2530 1.391 . S
C2532 C2533 1.400 . S
C2533 C2527 1.491 1_554 S
C2533 C2532 1.400 . S
C2533 C2534 1.398 . S
C2534 H2522 0.950 . S
C2534 C2533 1.398 . S
C2534 C2535 1.391 . S
C2535 H2523 0.950 . S
C2535 C2531 1.393 . S
C2535 C2534 1.391 . S
H2536 C2544 0.950 . S
H2537 C2549 0.950 . S
H2538 C2546 0.950 . S
H2539 C2548 0.950 . S
H2540 C2550 0.950 . S
H2541 C2552 0.950 . S
H2542 C2554 0.950 . S
H2543 C2555 0.950 . S
C2544 H2536 0.950 . S
C2544 C2545 1.386 . S
C2544 C2546 1.391 . S
C2545 C2544 1.386 . S
C2545 C2549 1.393 . S
C2546 H2538 0.950 . S
C2546 C2544 1.391 . S
C2546 C2547 1.400 . S
C2547 C2546 1.400 . S
C2547 C2548 1.398 . S
C2547 C2553 1.491 . S
C2548 H2539 0.950 . S
C2548 C2547 1.398 . S
C2548 C2549 1.391 . S
C2549 H2537 0.950 . S
C2549 C2545 1.393 . S
C2549 C2548 1.391 . S
C2550 H2540 0.950 . S
C2550 C2551 1.386 . S
C2550 C2552 1.391 . S
C2551 C2550 1.386 . S
C2551 C2555 1.393 . S
C2552 H2541 0.950 . S
C2552 C2550 1.391 . S
C2552 C2553 1.400 . S
C2553 C2547 1.491 . S
C2553 C2552 1.400 . S
C2553 C2554 1.398 . S
C2554 H2542 0.950 . S
C2554 C2553 1.398 . S
C2554 C2555 1.391 . S
C2555 H2543 0.950 . S
C2555 C2551 1.393 . S
C2555 C2554 1.391 . S
H2556 C2564 0.950 . S
H2557 C2569 0.950 . S
H2558 C2566 0.950 . S
H2559 C2568 0.950 . S
H2560 C2570 0.950 . S
H2561 C2572 0.950 . S
H2562 C2574 0.950 . S
H2563 C2575 0.950 . S
C2564 H2556 0.950 . S
C2564 C2565 1.386 . S
C2564 C2566 1.391 . S
C2565 C2564 1.386 . S
C2565 C2569 1.393 . S
C2566 H2558 0.950 . S
C2566 C2564 1.391 . S
C2566 C2567 1.400 . S
C2567 C2566 1.400 . S
C2567 C2568 1.398 . S
C2567 C2573 1.491 . S
C2568 H2559 0.950 . S
C2568 C2567 1.398 . S
C2568 C2569 1.391 . S
C2569 H2557 0.950 . S
C2569 C2565 1.393 . S
C2569 C2568 1.391 . S
C2570 H2560 0.950 . S
C2570 C2571 1.386 . S
C2570 C2572 1.391 . S
C2571 C2570 1.386 . S
C2571 C2575 1.393 . S
C2572 H2561 0.950 . S
C2572 C2570 1.391 . S
C2572 C2573 1.400 . S
C2573 C2567 1.491 . S
C2573 C2572 1.400 . S
C2573 C2574 1.398 . S
C2574 H2562 0.950 . S
C2574 C2573 1.398 . S
C2574 C2575 1.391 . S
C2575 H2563 0.950 . S
C2575 C2571 1.393 . S
C2575 C2574 1.391 . S
H2576 C2584 0.950 . S
H2577 C2589 0.950 . S
H2578 C2586 0.950 . S
H2579 C2588 0.950 . S
H2580 C2590 0.950 . S
H2581 C2592 0.950 . S
H2582 C2594 0.950 . S
H2583 C2595 0.950 . S
C2584 H2576 0.950 . S
C2584 C2585 1.386 . S
C2584 C2586 1.391 . S
C2585 C2584 1.386 . S
C2585 C2589 1.393 . S
C2586 H2578 0.950 . S
C2586 C2584 1.391 . S
C2586 C2587 1.400 . S
C2587 C2586 1.400 . S
C2587 C2588 1.398 . S
C2587 C2593 1.491 . S
C2588 H2579 0.950 . S
C2588 C2587 1.398 . S
C2588 C2589 1.391 . S
C2589 H2577 0.950 . S
C2589 C2585 1.393 . S
C2589 C2588 1.391 . S
C2590 H2580 0.950 . S
C2590 C2591 1.386 . S
C2590 C2592 1.391 . S
C2591 C2590 1.386 . S
C2591 C2595 1.393 . S
C2592 H2581 0.950 . S
C2592 C2590 1.391 . S
C2592 C2593 1.400 . S
C2593 C2587 1.491 . S
C2593 C2592 1.400 . S
C2593 C2594 1.398 . S
C2594 H2582 0.950 . S
C2594 C2593 1.398 . S
C2594 C2595 1.391 . S
C2595 H2583 0.950 . S
C2595 C2591 1.393 . S
C2595 C2594 1.391 . S
H2596 C2604 0.950 . S
H2597 C2609 0.950 . S
H2598 C2606 0.950 1_554 S
H2599 C2608 0.950 . S
H2600 C2610 0.950 . S
H2601 C2612 0.950 1_556 S
H2602 C2614 0.950 . S
H2603 C2615 0.950 . S
C2604 H2596 0.950 . S
C2604 C2605 1.386 . S
C2604 C2606 1.391 . S
C2605 C2604 1.386 . S
C2605 C2609 1.393 . S
C2606 H2598 0.950 1_556 S
C2606 C2604 1.391 . S
C2606 C2607 1.400 . S
C2607 C2606 1.400 . S
C2607 C2608 1.398 . S
C2607 C2613 1.491 1_556 S
C2608 H2599 0.950 . S
C2608 C2607 1.398 . S
C2608 C2609 1.391 . S
C2609 H2597 0.950 . S
C2609 C2605 1.393 . S
C2609 C2608 1.391 . S
C2610 H2600 0.950 . S
C2610 C2611 1.386 . S
C2610 C2612 1.391 . S
C2611 C2610 1.386 . S
C2611 C2615 1.393 . S
C2612 H2601 0.950 1_554 S
C2612 C2610 1.391 . S
C2612 C2613 1.400 . S
C2613 C2607 1.491 1_554 S
C2613 C2612 1.400 . S
C2613 C2614 1.398 . S
C2614 H2602 0.950 . S
C2614 C2613 1.398 . S
C2614 C2615 1.391 . S
C2615 H2603 0.950 . S
C2615 C2611 1.393 . S
C2615 C2614 1.391 . S
H2616 C2624 0.950 . S
H2617 C2629 0.950 . S
H2618 C2626 0.950 . S
H2619 C2628 0.950 . S
H2620 C2630 0.950 . S
H2621 C2632 0.950 . S
H2622 C2634 0.950 . S
H2623 C2635 0.950 . S
C2624 H2616 0.950 . S
C2624 C2625 1.386 . S
C2624 C2626 1.391 . S
C2625 C2624 1.386 . S
C2625 C2629 1.393 . S
C2626 H2618 0.950 . S
C2626 C2624 1.391 . S
C2626 C2627 1.400 . S
C2627 C2626 1.400 . S
C2627 C2628 1.398 . S
C2627 C2633 1.491 . S
C2628 H2619 0.950 . S
C2628 C2627 1.398 . S
C2628 C2629 1.391 . S
C2629 H2617 0.950 . S
C2629 C2625 1.393 . S
C2629 C2628 1.391 . S
C2630 H2620 0.950 . S
C2630 C2631 1.386 . S
C2630 C2632 1.391 . S
C2631 C2630 1.386 . S
C2631 C2635 1.393 . S
C2632 H2621 0.950 . S
C2632 C2630 1.391 . S
C2632 C2633 1.400 . S
C2633 C2627 1.491 . S
C2633 C2632 1.400 . S
C2633 C2634 1.398 . S
C2634 H2622 0.950 . S
C2634 C2633 1.398 . S
C2634 C2635 1.391 . S
C2635 H2623 0.950 . S
C2635 C2631 1.393 . S
C2635 C2634 1.391 . S
H2636 C2644 0.950 . S
H2637 C2649 0.950 . S
H2638 C2646 0.950 . S
H2639 C2648 0.950 . S
H2640 C2650 0.950 . S
H2641 C2652 0.950 . S
H2642 C2654 0.950 . S
H2643 C2655 0.950 . S
C2644 H2636 0.950 . S
C2644 C2645 1.386 . S
C2644 C2646 1.391 . S
C2645 C2644 1.386 . S
C2645 C2649 1.393 . S
C2646 H2638 0.950 . S
C2646 C2644 1.391 . S
C2646 C2647 1.400 . S
C2647 C2646 1.400 . S
C2647 C2648 1.398 . S
C2647 C2653 1.491 . S
C2648 H2639 0.950 . S
C2648 C2647 1.398 . S
C2648 C2649 1.391 . S
C2649 H2637 0.950 . S
C2649 C2645 1.393 . S
C2649 C2648 1.391 . S
C2650 H2640 0.950 . S
C2650 C2651 1.386 . S
C2650 C2652 1.391 . S
C2651 C2650 1.386 . S
C2651 C2655 1.393 . S
C2652 H2641 0.950 . S
C2652 C2650 1.391 . S
C2652 C2653 1.400 . S
C2653 C2647 1.491 . S
C2653 C2652 1.400 . S
C2653 C2654 1.398 . S
C2654 H2642 0.950 . S
C2654 C2653 1.398 . S
C2654 C2655 1.391 . S
C2655 H2643 0.950 . S
C2655 C2651 1.393 . S
C2655 C2654 1.391 . S
C745 C20 0.748 . S
C751 C637 0.691 . S
C765 C43 0.682 . S
C771 C200 0.721 . S
C785 C66 0.716 . S
C791 C591 0.705 . S
C805 C246 0.718 . S
C811 C89 0.687 . S
C825 C112 0.747 . S
C831 C683 0.691 . S
C845 C338 0.717 . S
C851 C135 0.689 . S
C865 C729 0.694 . S
C871 C158 0.740 . S
C885 C181 0.748 . S
C891 C292 0.691 . S
C905 C204 0.746 . S
C911 C453 0.692 . S
C925 C227 0.685 . S
C931 C16 0.720 . S
C945 C407 0.704 . S
C951 C250 0.721 . S
C965 C62 0.721 . S
C971 C273 0.682 . S
C985 C296 0.690 . S
C991 C499 0.717 . S
C1005 C319 0.726 . S
C1011 C154 0.702 . S
C1025 C342 0.743 . S
C1031 C545 0.694 . S
C1045 C108 0.707 . S
C1051 C365 0.711 . S
C1065 C269 0.696 . S
C1071 C388 0.739 . S
C1085 C568 0.704 . S
C1091 C411 0.720 . S
C1105 C223 0.721 . S
C1111 C434 0.682 . S
C1125 C457 0.699 . S
C1131 C614 0.714 . S
C1145 C315 0.693 . S
C1151 C480 0.743 . S
C1165 C706 0.710 . S
C1171 C503 0.705 . S
C1185 C361 0.719 . S
C1191 C526 0.684 . S
C1205 C549 0.710 . S
C1211 C660 0.709 . S
C1225 C572 0.704 . S
C1231 C85 0.710 . S
C1245 C595 0.734 . S
C1251 C384 0.696 . S
C1265 C618 0.682 . S
C1271 C39 0.720 . S
C1285 C641 0.731 . S
C1291 C430 0.698 . S
C1305 C131 0.721 . S
C1311 C664 0.682 . S
C1325 C522 0.707 . S
C1331 C687 0.714 . S
C1345 C710 0.723 . S
C1351 C177 0.701 . S
C1365 C733 0.734 . S
C1371 C476 0.696 . S
C1385 C21 1.250 . S
C1391 C435 1.250 . S
C1405 C458 1.262 . S
C1411 C44 1.262 . S
C1425 C67 1.254 . S
C1431 C389 1.254 . S
C1445 C90 1.259 . S
C1451 C412 1.258 . S
C1465 C527 1.262 . S
C1471 C113 1.262 . S
C1485 C136 1.261 . S
C1491 C550 1.261 . S
C1505 C481 1.248 . S
C1511 C159 1.249 . S
C1525 C182 1.260 . S
C1531 C504 1.260 . S
C1545 C619 1.242 . S
C1551 C205 1.242 . S
C1565 C228 1.257 . S
C1571 C642 1.258 . S
C1585 C251 1.248 . S
C1591 C573 1.248 . S
C1605 C274 1.262 . S
C1611 C596 1.262 . S
C1625 C711 1.251 . S
C1631 C297 1.252 . S
C1645 C734 1.244 . S
C1651 C320 1.244 . S
C1665 C343 1.249 . S
C1671 C665 1.248 . S
C1685 C366 1.242 . S
C1691 C688 1.242 . S
C1705 C17 1.539 . S
C1711 C569 1.539 . S
C1725 C224 1.536 . S
C1731 C40 1.536 . S
C1745 C63 1.534 . S
C1751 C615 1.534 . S
C1765 C86 1.525 . S
C1771 C270 1.525 . S
C1785 C661 1.525 . S
C1791 C109 1.525 . S
C1805 C316 1.530 . S
C1811 C132 1.530 . S
C1825 C155 1.536 . S
C1831 C707 1.536 . S
C1845 C178 1.529 . S
C1851 C362 1.529 . S
C1865 C385 1.531 . S
C1871 C201 1.531 . S
C1885 C431 1.539 . S
C1891 C247 1.539 . S
C1905 C477 1.538 . S
C1911 C293 1.538 . S
C1925 C339 1.540 . S
C1931 C523 1.540 . S
C1945 C408 1.532 . S
C1951 C592 1.532 . S
C1965 C454 1.531 . S
C1971 C638 1.531 . S
C1985 C684 1.532 . S
C1991 C500 1.532 . S
C2005 C730 1.534 . S
C2011 C546 1.534 . S
C2025 C18 1.767 . S
C2031 C133 1.781 . S
C2045 C156 1.770 . S
C2051 C41 1.783 . S
C2065 C179 1.768 . S
C2071 C64 1.782 . S
C2085 C110 1.767 . S
C2091 C87 1.780 . S
C2105 C202 1.767 . S
C2111 C317 1.779 . S
C2125 C225 1.771 . S
C2131 C340 1.769 . S
C2145 C363 1.781 . S
C2151 C248 1.768 . S
C2165 C271 1.772 . S
C2171 C294 1.783 . S
C2185 C386 1.783 . S
C2191 C501 1.770 . S
C2205 C409 1.767 . S
C2211 C524 1.780 . S
C2225 C432 1.770 . S
C2231 C547 1.770 . S
C2245 C478 1.782 . S
C2251 C455 1.769 . S
C2265 C570 1.774 . S
C2271 C685 1.783 . S
C2285 C593 1.773 . S
C2291 C708 1.783 . S
C2305 C731 1.783 . S
C2311 C616 1.770 . S
C2325 C639 1.770 . S
C2331 C662 1.771 . S
C2345 C19 1.461 . S
C2351 C111 1.460 . S
C2365 C42 1.472 . S
C2371 C134 1.474 . S
C2385 C157 1.480 . S
C2391 C65 1.479 . S
C2405 C180 1.467 . S
C2411 C88 1.469 . S
C2425 C203 1.481 . S
C2431 C295 1.479 . S
C2445 C318 1.463 . S
C2451 C226 1.461 . S
C2465 C341 1.461 . S
C2471 C249 1.463 . S
C2485 C364 1.475 . S
C2491 C272 1.473 . S
C2505 C387 1.481 . S
C2511 C479 1.479 . S
C2525 C502 1.465 . S
C2531 C410 1.463 . S
C2545 C433 1.481 . S
C2551 C525 1.482 . S
C2565 C548 1.483 . S
C2571 C456 1.483 . S
C2585 C663 1.462 . S
C2591 C571 1.461 . S
C2605 C594 1.460 . S
C2611 C686 1.461 . S
C2625 C617 1.482 . S
C2631 C709 1.480 . S
C2645 C640 1.483 . S
C2651 C732 1.483 . S
