# Generated by pormake.
# Topology afi, (4)-cn, num edge types: 1
# Building blocks:
#     Node 0, Type 0, BuildingBlock: KUFVIS_clean_sbu_0, # of connection points: 4
#     Node 1, Type 0, BuildingBlock: KUFVIS_clean_sbu_0, # of connection points: 4
#     Node 2, Type 0, BuildingBlock: KUFVIS_clean_sbu_0, # of connection points: 4
#     Node 3, Type 0, BuildingBlock: KUFVIS_clean_sbu_0, # of connection points: 4
#     Node 4, Type 0, BuildingBlock: KUFVIS_clean_sbu_0, # of connection points: 4
#     Node 5, Type 0, BuildingBlock: KUFVIS_clean_sbu_0, # of connection points: 4
#     Node 6, Type 0, BuildingBlock: KUFVIS_clean_sbu_0, # of connection points: 4
#     Node 7, Type 0, BuildingBlock: KUFVIS_clean_sbu_0, # of connection points: 4
#     Node 8, Type 0, BuildingBlock: KUFVIS_clean_sbu_0, # of connection points: 4
#     Node 9, Type 0, BuildingBlock: KUFVIS_clean_sbu_0, # of connection points: 4
#     Node 10, Type 0, BuildingBlock: KUFVIS_clean_sbu_0, # of connection points: 4
#     Node 11, Type 0, BuildingBlock: KUFVIS_clean_sbu_0, # of connection points: 4
#     Node 12, Type 0, BuildingBlock: KUFVIS_clean_sbu_0, # of connection points: 4
#     Node 13, Type 0, BuildingBlock: KUFVIS_clean_sbu_0, # of connection points: 4
#     Node 14, Type 0, BuildingBlock: KUFVIS_clean_sbu_0, # of connection points: 4
#     Node 15, Type 0, BuildingBlock: KUFVIS_clean_sbu_0, # of connection points: 4
#     Node 16, Type 0, BuildingBlock: KUFVIS_clean_sbu_0, # of connection points: 4
#     Node 17, Type 0, BuildingBlock: KUFVIS_clean_sbu_0, # of connection points: 4
#     Node 18, Type 0, BuildingBlock: KUFVIS_clean_sbu_0, # of connection points: 4
#     Node 19, Type 0, BuildingBlock: KUFVIS_clean_sbu_0, # of connection points: 4
#     Node 20, Type 0, BuildingBlock: KUFVIS_clean_sbu_0, # of connection points: 4
#     Node 21, Type 0, BuildingBlock: KUFVIS_clean_sbu_0, # of connection points: 4
#     Node 22, Type 0, BuildingBlock: KUFVIS_clean_sbu_0, # of connection points: 4
#     Node 23, Type 0, BuildingBlock: KUFVIS_clean_sbu_0, # of connection points: 4
#     Edge 24, Type (0, 0), BuildingBlock: XIVTED_clean_linker_0, # of connection points: 2
#     Edge 25, Type (0, 0), BuildingBlock: XIVTED_clean_linker_0, # of connection points: 2
#     Edge 26, Type (0, 0), BuildingBlock: XIVTED_clean_linker_0, # of connection points: 2
#     Edge 27, Type (0, 0), BuildingBlock: XIVTED_clean_linker_0, # of connection points: 2
#     Edge 28, Type (0, 0), BuildingBlock: XIVTED_clean_linker_0, # of connection points: 2
#     Edge 29, Type (0, 0), BuildingBlock: XIVTED_clean_linker_0, # of connection points: 2
#     Edge 30, Type (0, 0), BuildingBlock: XIVTED_clean_linker_0, # of connection points: 2
#     Edge 31, Type (0, 0), BuildingBlock: XIVTED_clean_linker_0, # of connection points: 2
#     Edge 32, Type (0, 0), BuildingBlock: XIVTED_clean_linker_0, # of connection points: 2
#     Edge 33, Type (0, 0), BuildingBlock: XIVTED_clean_linker_0, # of connection points: 2
#     Edge 34, Type (0, 0), BuildingBlock: XIVTED_clean_linker_0, # of connection points: 2
#     Edge 35, Type (0, 0), BuildingBlock: XIVTED_clean_linker_0, # of connection points: 2
#     Edge 36, Type (0, 0), BuildingBlock: XIVTED_clean_linker_0, # of connection points: 2
#     Edge 37, Type (0, 0), BuildingBlock: XIVTED_clean_linker_0, # of connection points: 2
#     Edge 38, Type (0, 0), BuildingBlock: XIVTED_clean_linker_0, # of connection points: 2
#     Edge 39, Type (0, 0), BuildingBlock: XIVTED_clean_linker_0, # of connection points: 2
#     Edge 40, Type (0, 0), BuildingBlock: XIVTED_clean_linker_0, # of connection points: 2
#     Edge 41, Type (0, 0), BuildingBlock: XIVTED_clean_linker_0, # of connection points: 2
#     Edge 42, Type (0, 0), BuildingBlock: XIVTED_clean_linker_0, # of connection points: 2
#     Edge 43, Type (0, 0), BuildingBlock: XIVTED_clean_linker_0, # of connection points: 2
#     Edge 44, Type (0, 0), BuildingBlock: XIVTED_clean_linker_0, # of connection points: 2
#     Edge 45, Type (0, 0), BuildingBlock: XIVTED_clean_linker_0, # of connection points: 2
#     Edge 46, Type (0, 0), BuildingBlock: XIVTED_clean_linker_0, # of connection points: 2
#     Edge 47, Type (0, 0), BuildingBlock: XIVTED_clean_linker_0, # of connection points: 2
#     Edge 48, Type (0, 0), BuildingBlock: XIVTED_clean_linker_0, # of connection points: 2
#     Edge 49, Type (0, 0), BuildingBlock: XIVTED_clean_linker_0, # of connection points: 2
#     Edge 50, Type (0, 0), BuildingBlock: XIVTED_clean_linker_0, # of connection points: 2
#     Edge 51, Type (0, 0), BuildingBlock: XIVTED_clean_linker_0, # of connection points: 2
#     Edge 52, Type (0, 0), BuildingBlock: XIVTED_clean_linker_0, # of connection points: 2
#     Edge 53, Type (0, 0), BuildingBlock: XIVTED_clean_linker_0, # of connection points: 2
#     Edge 54, Type (0, 0), BuildingBlock: XIVTED_clean_linker_0, # of connection points: 2
#     Edge 55, Type (0, 0), BuildingBlock: XIVTED_clean_linker_0, # of connection points: 2
#     Edge 56, Type (0, 0), BuildingBlock: XIVTED_clean_linker_0, # of connection points: 2
#     Edge 57, Type (0, 0), BuildingBlock: XIVTED_clean_linker_0, # of connection points: 2
#     Edge 58, Type (0, 0), BuildingBlock: XIVTED_clean_linker_0, # of connection points: 2
#     Edge 59, Type (0, 0), BuildingBlock: XIVTED_clean_linker_0, # of connection points: 2
#     Edge 60, Type (0, 0), BuildingBlock: XIVTED_clean_linker_0, # of connection points: 2
#     Edge 61, Type (0, 0), BuildingBlock: XIVTED_clean_linker_0, # of connection points: 2
#     Edge 62, Type (0, 0), BuildingBlock: XIVTED_clean_linker_0, # of connection points: 2
#     Edge 63, Type (0, 0), BuildingBlock: XIVTED_clean_linker_0, # of connection points: 2
#     Edge 64, Type (0, 0), BuildingBlock: XIVTED_clean_linker_0, # of connection points: 2
#     Edge 65, Type (0, 0), BuildingBlock: XIVTED_clean_linker_0, # of connection points: 2
#     Edge 66, Type (0, 0), BuildingBlock: XIVTED_clean_linker_0, # of connection points: 2
#     Edge 67, Type (0, 0), BuildingBlock: XIVTED_clean_linker_0, # of connection points: 2
#     Edge 68, Type (0, 0), BuildingBlock: XIVTED_clean_linker_0, # of connection points: 2
#     Edge 69, Type (0, 0), BuildingBlock: XIVTED_clean_linker_0, # of connection points: 2
#     Edge 70, Type (0, 0), BuildingBlock: XIVTED_clean_linker_0, # of connection points: 2
#     Edge 71, Type (0, 0), BuildingBlock: XIVTED_clean_linker_0, # of connection points: 2
# Relax obj value: 0.074
# Max RMSD: 0.079
# Mean RMSD: 0.079
data_MOF--net-afi--node1-KUFVIS_clean_sbu_0--edge1-XIVTED_clean_linker_0
_symmetry_space_group_name_H-M    P1
_symmetry_Int_Tables_number       1
_symmetry_cell_setting            triclinic
loop_
_symmetry_equiv_pos_as_xyz
'x, y, z'
_cell_length_a     67.669364
_cell_length_b     67.684147
_cell_length_c     39.379544
_cell_angle_alpha  89.999858
_cell_angle_beta   90.000405
_cell_angle_gamma 120.0325
loop_
_atom_site_label
_atom_site_type_symbol
_atom_site_fract_x
_atom_site_fract_y
_atom_site_fract_z
_atom_type_partial_charge
Mn0 Mn 0.4694 0.12577 0.199 0.0
Mn1 Mn 0.51476 0.16947 0.15998 0.0
C2 C 0.50595 0.13931 0.21989 0.0
C3 C 0.44436 0.08683 0.20789 0.0
C4 C 0.48176 0.17592 0.20401 0.0
O5 O 0.45681 0.12583 0.15169 0.0
O6 O 0.4886 0.15487 0.12806 0.0
C7 C 0.52475 0.1435 0.10901 0.0
N8 N 0.53165 0.15838 0.13557 0.0
C9 C 0.56928 0.16294 0.13432 0.0
C10 C 0.56261 0.14777 0.10682 0.0
C11 C 0.54025 0.138 0.09415 0.0
C12 C 0.55317 0.16799 0.14784 0.0
H13 H 0.50755 0.13588 0.0993 0.0
C14 C 0.46764 0.13897 0.12678 0.0
O15 O 0.43887 0.102 0.21637 0.0
O16 O 0.46374 0.09419 0.19248 0.0
N17 N 0.54117 0.18473 0.18839 0.0
C18 C 0.54424 0.19746 0.21678 0.0
C19 C 0.56536 0.20758 0.23363 0.0
C20 C 0.58311 0.20457 0.22105 0.0
C21 C 0.57957 0.19148 0.19171 0.0
C22 C 0.55821 0.18195 0.17585 0.0
H23 H 0.5306 0.1997 0.22667 0.0
O24 O 0.48839 0.12873 0.23975 0.0
O25 O 0.50161 0.14212 0.18869 0.0
O26 O 0.4691 0.15503 0.2123 0.0
O27 O 0.49903 0.183 0.18448 0.0
C28 C 0.59619 0.18699 0.17812 0.0
C29 C 0.59106 0.17276 0.14942 0.0
H30 H 0.57444 0.1433 0.09549 0.0
H31 H 0.53495 0.12619 0.07305 0.0
H32 H 0.56792 0.21757 0.25635 0.0
H33 H 0.59929 0.21222 0.2343 0.0
H34 H 0.61284 0.19406 0.18992 0.0
H35 H 0.60385 0.16912 0.13955 0.0
Mn36 Mn 0.34917 0.46417 0.19932 0.0
Mn37 Mn 0.35326 0.50967 0.15723 0.0
C38 C 0.37415 0.5009 0.21791 0.0
C39 C 0.36022 0.43718 0.2103 0.0
C40 C 0.31356 0.4795 0.20311 0.0
O41 O 0.33523 0.45059 0.1529 0.0
O42 O 0.34016 0.48261 0.12698 0.0
C43 C 0.38817 0.51636 0.10614 0.0
N44 N 0.3811 0.52468 0.13202 0.0
C45 C 0.41515 0.56149 0.12817 0.0
C46 C 0.42274 0.55335 0.10134 0.0
C47 C 0.40921 0.53068 0.09033 0.0
C48 C 0.39394 0.5465 0.14273 0.0
H49 H 0.37784 0.49893 0.09767 0.0
C50 C 0.33365 0.46127 0.12715 0.0
O51 O 0.34035 0.43385 0.21933 0.0
O52 O 0.37325 0.45561 0.19321 0.0
N53 N 0.36591 0.53697 0.18385 0.0
C54 C 0.35698 0.54155 0.21177 0.0
C55 C 0.36892 0.56319 0.22696 0.0
C56 C 0.38982 0.57992 0.21318 0.0
C57 C 0.39861 0.57484 0.18435 0.0
C58 C 0.38587 0.55302 0.17017 0.0
H59 H 0.34096 0.52872 0.22252 0.0
O60 O 0.36659 0.4838 0.23875 0.0
O61 O 0.36665 0.49608 0.18689 0.0
O62 O 0.32102 0.46642 0.21254 0.0
O63 O 0.32414 0.49596 0.18233 0.0
C64 C 0.41979 0.59036 0.16967 0.0
C65 C 0.42805 0.5837 0.14159 0.0
H66 H 0.43904 0.56428 0.08926 0.0
H67 H 0.415 0.52425 0.06974 0.0
H68 H 0.36208 0.56696 0.24929 0.0
H69 H 0.39906 0.59653 0.2251 0.0
H70 H 0.43005 0.60733 0.18015 0.0
H71 H 0.44453 0.59566 0.13088 0.0
Mn72 Mn 0.89301 0.3456 0.19803 0.0
Mn73 Mn 0.84884 0.34672 0.15975 0.0
C74 C 0.8791 0.36808 0.21964 0.0
C75 C 0.93204 0.35999 0.20674 0.0
C76 C 0.84307 0.30725 0.20308 0.0
O77 O 0.89307 0.33333 0.15049 0.0
O78 O 0.86362 0.33559 0.12745 0.0
C79 C 0.87419 0.38292 0.10882 0.0
N80 N 0.85944 0.37468 0.1355 0.0
C81 C 0.85385 0.40711 0.13426 0.0
C82 C 0.86889 0.41589 0.10663 0.0
C83 C 0.87913 0.40375 0.09391 0.0
C84 C 0.84941 0.38616 0.14785 0.0
H85 H 0.88212 0.37366 0.09901 0.0
C86 C 0.87974 0.33087 0.1258 0.0
O87 O 0.9171 0.33918 0.21495 0.0
O88 O 0.92442 0.37187 0.19162 0.0
N89 N 0.83336 0.35742 0.18851 0.0
C90 C 0.82086 0.34759 0.21704 0.0
C91 C 0.81037 0.35819 0.23398 0.0
C92 C 0.81273 0.37866 0.22131 0.0
C93 C 0.82562 0.3884 0.19185 0.0
C94 C 0.8356 0.37702 0.17597 0.0
H95 H 0.81907 0.3319 0.22693 0.0
O96 O 0.88987 0.36115 0.23914 0.0
O97 O 0.87629 0.36118 0.1883 0.0
O98 O 0.86403 0.31568 0.21114 0.0
O99 O 0.83573 0.3174 0.18401 0.0
C100 C 0.8294 0.40922 0.17808 0.0
C101 C 0.84352 0.41858 0.14933 0.0
H102 H 0.87289 0.43203 0.09523 0.0
H103 H 0.89083 0.41047 0.0727 0.0
H104 H 0.80054 0.35063 0.2568 0.0
H105 H 0.80475 0.38686 0.23457 0.0
H106 H 0.82187 0.41838 0.1898 0.0
H107 H 0.84664 0.43481 0.13936 0.0
Mn108 Mn 0.55068 0.88804 0.20033 0.0
Mn109 Mn 0.50461 0.84383 0.1635 0.0
C110 C 0.51464 0.87433 0.22329 0.0
C111 C 0.57565 0.92706 0.20838 0.0
C112 C 0.53897 0.83808 0.20522 0.0
O113 O 0.56216 0.88778 0.15227 0.0
O114 O 0.52993 0.85842 0.13017 0.0
C115 C 0.493 0.86922 0.11374 0.0
N116 N 0.48692 0.85455 0.14047 0.0
C117 C 0.44926 0.84991 0.14197 0.0
C118 C 0.45508 0.86486 0.11431 0.0
C119 C 0.47705 0.87456 0.10016 0.0
C120 C 0.46577 0.84499 0.15414 0.0
H121 H 0.50991 0.8768 0.10291 0.0
C122 C 0.5508 0.87443 0.12783 0.0
O123 O 0.58153 0.91207 0.21619 0.0
O124 O 0.5559 0.91947 0.19403 0.0
N125 N 0.47897 0.82856 0.19336 0.0
C126 C 0.47672 0.81596 0.22159 0.0
C127 C 0.45608 0.80586 0.23972 0.0
C128 C 0.43798 0.80878 0.2286 0.0
C129 C 0.44066 0.82174 0.19939 0.0
C130 C 0.46156 0.83122 0.18217 0.0
H131 H 0.49064 0.81381 0.23038 0.0
O132 O 0.53265 0.88518 0.2422 0.0
O133 O 0.51825 0.87137 0.1918 0.0
O134 O 0.55163 0.85905 0.21306 0.0
O135 O 0.5212 0.83068 0.1867 0.0
C136 C 0.42366 0.82613 0.18721 0.0
C137 C 0.42795 0.84019 0.15851 0.0
H138 H 0.44291 0.86922 0.10398 0.0
H139 H 0.48171 0.88621 0.07893 0.0
H140 H 0.45417 0.79597 0.26233 0.0
H141 H 0.42218 0.80118 0.24287 0.0
H142 H 0.40737 0.8191 0.20009 0.0
H143 H 0.41487 0.84373 0.14972 0.0
Mn144 Mn 0.66836 0.54602 0.19883 0.0
Mn145 Mn 0.66259 0.49895 0.15979 0.0
C146 C 0.64396 0.50998 0.22056 0.0
C147 C 0.65621 0.57237 0.20862 0.0
C148 C 0.70333 0.52971 0.20363 0.0
O149 O 0.68049 0.55804 0.15126 0.0
O150 O 0.67661 0.5256 0.12858 0.0
C151 C 0.6282 0.49314 0.10827 0.0
N152 N 0.63474 0.48459 0.13452 0.0
C153 C 0.5998 0.44849 0.13126 0.0
C154 C 0.59276 0.45687 0.10405 0.0
C155 C 0.60701 0.4793 0.09256 0.0
C156 C 0.62119 0.463 0.14571 0.0
H157 H 0.63906 0.51038 0.09942 0.0
C158 C 0.68254 0.54678 0.12681 0.0
O159 O 0.67679 0.5771 0.21636 0.0
O160 O 0.64342 0.55312 0.19338 0.0
N161 N 0.64898 0.47189 0.18704 0.0
C162 C 0.65744 0.46707 0.21528 0.0
C163 C 0.6448 0.44563 0.23087 0.0
C164 C 0.62367 0.42934 0.21719 0.0
C165 C 0.61535 0.43464 0.18805 0.0
C166 C 0.62878 0.45624 0.17347 0.0
H167 H 0.67358 0.4796 0.22606 0.0
O168 O 0.65248 0.52773 0.24021 0.0
O169 O 0.65041 0.51373 0.18901 0.0
O170 O 0.69742 0.54452 0.21035 0.0
O171 O 0.69129 0.51205 0.1855 0.0
C172 C 0.59397 0.41959 0.17347 0.0
C173 C 0.5862 0.42651 0.14509 0.0
H174 H 0.57635 0.44631 0.09203 0.0
H175 H 0.60164 0.48592 0.07169 0.0
H176 H 0.65127 0.44171 0.25348 0.0
H177 H 0.61387 0.41289 0.22945 0.0
H178 H 0.58319 0.40281 0.18426 0.0
H179 H 0.56958 0.41492 0.13445 0.0
Mn180 Mn 0.12598 0.66696 0.19914 0.0
Mn181 Mn 0.1704 0.66617 0.16108 0.0
C182 C 0.13983 0.64432 0.22045 0.0
C183 C 0.08682 0.65241 0.20697 0.0
C184 C 0.17583 0.70539 0.20481 0.0
O185 O 0.12628 0.67965 0.15178 0.0
O186 O 0.15562 0.67721 0.12866 0.0
C187 C 0.14533 0.62995 0.11004 0.0
N188 N 0.15998 0.63822 0.13684 0.0
C189 C 0.16539 0.60567 0.13616 0.0
C190 C 0.15045 0.59687 0.10843 0.0
C191 C 0.14036 0.60906 0.09535 0.0
C192 C 0.16989 0.6267 0.14951 0.0
H193 H 0.13748 0.63923 0.10001 0.0
C194 C 0.13958 0.68204 0.12704 0.0
O195 O 0.10165 0.67311 0.21587 0.0
O196 O 0.09468 0.64073 0.19184 0.0
N197 N 0.18584 0.65554 0.19004 0.0
C198 C 0.19829 0.66543 0.21858 0.0
C199 C 0.20868 0.65485 0.23579 0.0
C200 C 0.20624 0.63428 0.22342 0.0
C201 C 0.1934 0.62445 0.19395 0.0
C202 C 0.18358 0.63587 0.17772 0.0
H203 H 0.20011 0.68118 0.22829 0.0
O204 O 0.12883 0.65095 0.24003 0.0
O205 O 0.14284 0.65158 0.18931 0.0
O206 O 0.15486 0.69676 0.21296 0.0
O207 O 0.18327 0.69547 0.18542 0.0
C208 C 0.18947 0.60349 0.18055 0.0
C209 C 0.17549 0.59411 0.15165 0.0
H210 H 0.1464 0.58066 0.09722 0.0
H211 H 0.12873 0.60231 0.07406 0.0
H212 H 0.21848 0.66247 0.25861 0.0
H213 H 0.21413 0.62608 0.23691 0.0
H214 H 0.19678 0.59422 0.19263 0.0
H215 H 0.17228 0.5778 0.14193 0.0
Mn216 Mn 0.88962 0.54507 0.31244 0.0
Mn217 Mn 0.84842 0.49859 0.35286 0.0
C218 C 0.87764 0.50874 0.29164 0.0
C219 C 0.92811 0.57136 0.30189 0.0
C220 C 0.83831 0.5288 0.30806 0.0
O221 O 0.88993 0.55774 0.35965 0.0
O222 O 0.86142 0.52566 0.38322 0.0
C223 C 0.87713 0.49325 0.40467 0.0
N224 N 0.86182 0.48441 0.37873 0.0
C225 C 0.85951 0.4479 0.3842 0.0
C226 C 0.87516 0.45657 0.41111 0.0
C227 C 0.88405 0.47936 0.42132 0.0
C228 C 0.85316 0.4625 0.36869 0.0
H229 H 0.88399 0.51075 0.41262 0.0
C230 C 0.87675 0.54683 0.38442 0.0
O231 O 0.91217 0.57594 0.29408 0.0
O232 O 0.92176 0.55226 0.31753 0.0
N233 N 0.83453 0.47111 0.32658 0.0
C234 C 0.82116 0.46599 0.29838 0.0
C235 C 0.81176 0.44416 0.2839 0.0
C236 C 0.816 0.42777 0.29872 0.0
C237 C 0.82972 0.4334 0.32782 0.0
C238 C 0.83863 0.45543 0.34114 0.0
H239 H 0.81794 0.47856 0.28681 0.0
O240 O 0.88684 0.52628 0.27158 0.0
O241 O 0.87523 0.51283 0.32316 0.0
O242 O 0.859 0.54352 0.30095 0.0
O243 O 0.83279 0.5114 0.32672 0.0
C244 C 0.83533 0.4182 0.34368 0.0
C245 C 0.85028 0.42546 0.37176 0.0
H246 H 0.88062 0.44595 0.42392 0.0
H247 H 0.8962 0.48621 0.44197 0.0
H248 H 0.8013 0.43999 0.26131 0.0
H249 H 0.80884 0.411 0.28737 0.0
H250 H 0.82856 0.401 0.33409 0.0
H251 H 0.8548 0.41374 0.38333 0.0
Mn252 Mn 0.35012 0.88877 0.31105 0.0
Mn253 Mn 0.34992 0.84438 0.35082 0.0
C254 C 0.37277 0.87445 0.2914 0.0
C255 C 0.36496 0.92784 0.30207 0.0
C256 C 0.31131 0.83907 0.30576 0.0
O257 O 0.33709 0.88905 0.35792 0.0
O258 O 0.33881 0.85962 0.38224 0.0
C259 C 0.38565 0.86941 0.40254 0.0
N260 N 0.37756 0.85465 0.37586 0.0
C261 C 0.40976 0.84871 0.37817 0.0
C262 C 0.41838 0.86377 0.40579 0.0
C263 C 0.40628 0.87418 0.41798 0.0
C264 C 0.389 0.84444 0.36403 0.0
H265 H 0.37643 0.8775 0.41192 0.0
C266 C 0.33426 0.87587 0.38304 0.0
O267 O 0.34429 0.913 0.29305 0.0
O268 O 0.37647 0.9201 0.31797 0.0
N269 N 0.36062 0.82856 0.3228 0.0
C270 C 0.351 0.81608 0.29418 0.0
C271 C 0.3616 0.80543 0.27773 0.0
C272 C 0.38189 0.80763 0.29093 0.0
C273 C 0.39143 0.82051 0.32047 0.0
C274 C 0.38004 0.83064 0.33587 0.0
H275 H 0.33547 0.81444 0.28384 0.0
O276 O 0.36645 0.88533 0.27101 0.0
O277 O 0.36511 0.87175 0.32228 0.0
O278 O 0.32028 0.85999 0.2972 0.0
O279 O 0.32088 0.83159 0.32577 0.0
C280 C 0.41207 0.82415 0.33475 0.0
C281 C 0.42123 0.83824 0.36358 0.0
H282 H 0.43438 0.86765 0.41759 0.0
H283 H 0.41288 0.88591 0.43918 0.0
H284 H 0.35419 0.79561 0.25485 0.0
H285 H 0.3901 0.79953 0.27802 0.0
H286 H 0.42126 0.81654 0.32337 0.0
H287 H 0.43733 0.84124 0.37395 0.0
Mn288 Mn 0.465 0.34504 0.31246 0.0
Mn289 Mn 0.51047 0.34895 0.35445 0.0
C290 C 0.50172 0.36977 0.29368 0.0
C291 C 0.43828 0.35644 0.3015 0.0
C292 C 0.48017 0.30928 0.30859 0.0
O293 O 0.45144 0.3313 0.35896 0.0
O294 O 0.48338 0.33587 0.3847 0.0
C295 C 0.51716 0.38381 0.40562 0.0
N296 N 0.52549 0.37676 0.37973 0.0
C297 C 0.5623 0.4108 0.38363 0.0
C298 C 0.55416 0.41837 0.41047 0.0
C299 C 0.53148 0.40483 0.42147 0.0
C300 C 0.54731 0.3896 0.36904 0.0
H301 H 0.49972 0.37348 0.41407 0.0
C302 C 0.46209 0.32959 0.38464 0.0
O303 O 0.43471 0.33648 0.29252 0.0
O304 O 0.45677 0.36934 0.31854 0.0
N305 N 0.5378 0.36159 0.32788 0.0
C306 C 0.5424 0.3527 0.29994 0.0
C307 C 0.56405 0.36466 0.28477 0.0
C308 C 0.58077 0.38555 0.29857 0.0
C309 C 0.57568 0.39431 0.32742 0.0
C310 C 0.55385 0.38155 0.34159 0.0
H311 H 0.52957 0.33669 0.28916 0.0
O312 O 0.48458 0.36223 0.27291 0.0
O313 O 0.49695 0.36239 0.32477 0.0
O314 O 0.46704 0.31673 0.29936 0.0
O315 O 0.49672 0.31987 0.32923 0.0
C316 C 0.5912 0.41547 0.34214 0.0
C317 C 0.58452 0.42371 0.37023 0.0
H318 H 0.56508 0.43466 0.42258 0.0
H319 H 0.52504 0.41061 0.44206 0.0
H320 H 0.56783 0.35785 0.26241 0.0
H321 H 0.5974 0.39482 0.28665 0.0
H322 H 0.60817 0.42575 0.33167 0.0
H323 H 0.59648 0.44018 0.38097 0.0
Mn324 Mn 0.12924 0.46752 0.31168 0.0
Mn325 Mn 0.1728 0.51326 0.35019 0.0
C326 C 0.14227 0.50394 0.29063 0.0
C327 C 0.09032 0.44215 0.30321 0.0
C328 C 0.17948 0.48033 0.30635 0.0
O329 O 0.12972 0.45515 0.35902 0.0
O330 O 0.15851 0.48725 0.38237 0.0
C331 C 0.14684 0.52323 0.40121 0.0
N332 N 0.1616 0.53008 0.37451 0.0
C333 C 0.16585 0.56757 0.37539 0.0
C334 C 0.15079 0.56095 0.40304 0.0
C335 C 0.14124 0.53868 0.41597 0.0
C336 C 0.171 0.55152 0.36199 0.0
H337 H 0.1394 0.50609 0.41113 0.0
C338 C 0.14286 0.4662 0.38384 0.0
O339 O 0.1056 0.43685 0.29455 0.0
O340 O 0.09757 0.46152 0.3186 0.0
N341 N 0.18775 0.53951 0.32146 0.0
C342 C 0.20039 0.54253 0.29297 0.0
C343 C 0.21031 0.56355 0.27591 0.0
C344 C 0.2072 0.58126 0.28835 0.0
C345 C 0.19417 0.57777 0.31776 0.0
C346 C 0.18485 0.55651 0.33385 0.0
H347 H 0.20271 0.52892 0.2832 0.0
O348 O 0.13175 0.48632 0.27089 0.0
O349 O 0.14532 0.49974 0.32177 0.0
O350 O 0.1586 0.46754 0.29808 0.0
O351 O 0.18646 0.49761 0.32581 0.0
C352 C 0.18958 0.59435 0.33122 0.0
C353 C 0.17545 0.58926 0.36004 0.0
H354 H 0.14625 0.57275 0.41429 0.0
H355 H 0.12952 0.53341 0.43718 0.0
H356 H 0.22025 0.56608 0.25313 0.0
H357 H 0.21473 0.59738 0.27497 0.0
H358 H 0.19649 0.61092 0.31924 0.0
H359 H 0.17173 0.60201 0.36981 0.0
Mn360 Mn 0.66963 0.12482 0.31207 0.0
Mn361 Mn 0.66885 0.16911 0.3505 0.0
C362 C 0.64726 0.13895 0.29071 0.0
C363 C 0.65498 0.08576 0.30341 0.0
C364 C 0.70827 0.17462 0.30719 0.0
O365 O 0.68191 0.12468 0.35958 0.0
O366 O 0.67973 0.15412 0.38283 0.0
C367 C 0.63244 0.14385 0.4012 0.0
N368 N 0.64081 0.15861 0.37454 0.0
C369 C 0.6082 0.16392 0.37498 0.0
C370 C 0.59929 0.14887 0.40258 0.0
C371 C 0.61146 0.13879 0.41571 0.0
C372 C 0.62931 0.16853 0.36184 0.0
H373 H 0.64169 0.13598 0.41126 0.0
C374 C 0.68436 0.13794 0.3844 0.0
O375 O 0.6758 0.1006 0.29505 0.0
O376 O 0.64323 0.09351 0.31859 0.0
N377 N 0.65835 0.18471 0.32162 0.0
C378 C 0.66834 0.19724 0.29319 0.0
C379 C 0.65776 0.20762 0.2759 0.0
C380 C 0.63709 0.20506 0.28808 0.0
C381 C 0.62718 0.19214 0.31745 0.0
C382 C 0.63859 0.18234 0.33376 0.0
H383 H 0.68414 0.19913 0.28361 0.0
O384 O 0.65401 0.1281 0.27104 0.0
O385 O 0.6543 0.14171 0.32195 0.0
O386 O 0.69962 0.15367 0.29895 0.0
O387 O 0.69826 0.18206 0.32639 0.0
C388 C 0.60612 0.18809 0.33065 0.0
C389 C 0.59665 0.17402 0.35943 0.0
H390 H 0.58301 0.14474 0.41363 0.0
H391 H 0.60464 0.12707 0.43688 0.0
H392 H 0.66546 0.21748 0.25316 0.0
H393 H 0.62889 0.21292 0.27449 0.0
H394 H 0.59686 0.19538 0.31849 0.0
H395 H 0.58027 0.17072 0.36899 0.0
Mn396 Mn 0.55199 0.66573 0.31065 0.0
Mn397 Mn 0.50611 0.66415 0.3476 0.0
C398 C 0.51574 0.64271 0.28861 0.0
C399 C 0.5771 0.65177 0.30348 0.0
C400 C 0.53998 0.70367 0.30438 0.0
O401 O 0.56385 0.6784 0.35823 0.0
O402 O 0.53167 0.67546 0.38056 0.0
C403 C 0.49498 0.62799 0.3987 0.0
N404 N 0.48865 0.63612 0.37168 0.0
C405 C 0.45087 0.60323 0.37178 0.0
C406 C 0.45695 0.59456 0.39974 0.0
C407 C 0.47911 0.60699 0.41322 0.0
C408 C 0.46734 0.62436 0.35862 0.0
H409 H 0.51202 0.63745 0.40906 0.0
C410 C 0.55261 0.68057 0.38268 0.0
O411 O 0.58278 0.67241 0.29459 0.0
O412 O 0.55746 0.63981 0.31824 0.0
N413 N 0.48024 0.65322 0.31812 0.0
C414 C 0.47776 0.66303 0.28943 0.0
C415 C 0.45691 0.65223 0.27187 0.0
C416 C 0.43883 0.63153 0.28402 0.0
C417 C 0.44178 0.62178 0.31362 0.0
C418 C 0.46289 0.63342 0.33022 0.0
H419 H 0.49165 0.67889 0.27991 0.0
O420 O 0.5336 0.64963 0.26942 0.0
O421 O 0.51963 0.64992 0.31979 0.0
O422 O 0.55261 0.69532 0.29663 0.0
O423 O 0.52244 0.69353 0.32341 0.0
C424 C 0.4248 0.6007 0.32683 0.0
C425 C 0.42934 0.59144 0.35591 0.0
H426 H 0.44483 0.57828 0.41082 0.0
H427 H 0.48395 0.60036 0.43469 0.0
H428 H 0.45479 0.6598 0.24895 0.0
H429 H 0.42283 0.62319 0.27029 0.0
H430 H 0.40834 0.59128 0.31446 0.0
H431 H 0.41628 0.57504 0.36548 0.0
Mn432 Mn 0.54963 0.88722 0.81169 0.0
Mn433 Mn 0.50429 0.84315 0.85011 0.0
C434 C 0.51314 0.8734 0.79036 0.0
C435 C 0.57434 0.92626 0.80312 0.0
C436 C 0.53796 0.83728 0.80677 0.0
O437 O 0.562 0.88721 0.85918 0.0
O438 O 0.5302 0.85793 0.88244 0.0
C439 C 0.49348 0.86863 0.90085 0.0
N440 N 0.48696 0.85387 0.87418 0.0
C441 C 0.44916 0.8489 0.87466 0.0
C442 C 0.45545 0.86395 0.90227 0.0
C443 C 0.47771 0.87386 0.91539 0.0
C444 C 0.46553 0.84411 0.86149 0.0
H445 H 0.51061 0.87636 0.9109 0.0
C446 C 0.55109 0.87397 0.88397 0.0
O447 O 0.58014 0.91131 0.79469 0.0
O448 O 0.55485 0.91863 0.81829 0.0
N449 N 0.47814 0.82775 0.82124 0.0
C450 C 0.47547 0.81519 0.79278 0.0
C451 C 0.45451 0.80498 0.77549 0.0
C452 C 0.43652 0.80773 0.78768 0.0
C453 C 0.43965 0.82066 0.81709 0.0
C454 C 0.46087 0.83029 0.83341 0.0
H455 H 0.4893 0.81316 0.78319 0.0
O456 O 0.53077 0.88414 0.77069 0.0
O457 O 0.51738 0.87056 0.82158 0.0
O458 O 0.55043 0.85821 0.7985 0.0
O459 O 0.52052 0.82998 0.82599 0.0
C460 C 0.42277 0.82489 0.83032 0.0
C461 C 0.42751 0.83897 0.85911 0.0
H462 H 0.4434 0.86822 0.91334 0.0
H463 H 0.48271 0.88559 0.93657 0.0
H464 H 0.45225 0.79512 0.75272 0.0
H465 H 0.42046 0.80003 0.77408 0.0
H466 H 0.40623 0.81774 0.81816 0.0
H467 H 0.41453 0.84241 0.8687 0.0
Mn468 Mn 0.66739 0.54606 0.8109 0.0
Mn469 Mn 0.66521 0.49993 0.84791 0.0
C470 C 0.64434 0.50992 0.7885 0.0
C471 C 0.65388 0.57145 0.80298 0.0
C472 C 0.7052 0.53381 0.80553 0.0
O473 O 0.67968 0.55773 0.8587 0.0
O474 O 0.67645 0.52541 0.88098 0.0
C475 C 0.62878 0.48878 0.89856 0.0
N476 N 0.63702 0.4825 0.87164 0.0
C477 C 0.60426 0.44465 0.87171 0.0
C478 C 0.59547 0.45068 0.89956 0.0
C479 C 0.60777 0.47286 0.913 0.0
C480 C 0.62539 0.46117 0.8586 0.0
H481 H 0.63817 0.50582 0.90892 0.0
C482 C 0.68168 0.54639 0.88316 0.0
O483 O 0.67459 0.57694 0.79479 0.0
O484 O 0.64155 0.55182 0.8176 0.0
N485 N 0.65437 0.47415 0.81831 0.0
C486 C 0.66427 0.47174 0.78967 0.0
C487 C 0.65357 0.4509 0.77207 0.0
C488 C 0.6329 0.43276 0.78419 0.0
C489 C 0.62307 0.43564 0.81375 0.0
C490 C 0.63457 0.45676 0.83031 0.0
H491 H 0.68012 0.48567 0.7802 0.0
O492 O 0.65164 0.52786 0.7694 0.0
O493 O 0.65124 0.51364 0.81986 0.0
O494 O 0.69703 0.54656 0.79762 0.0
O495 O 0.69476 0.51616 0.82423 0.0
C496 C 0.60206 0.41857 0.82699 0.0
C497 C 0.59265 0.42307 0.85595 0.0
H498 H 0.57919 0.43851 0.9106 0.0
H499 H 0.60105 0.47767 0.93439 0.0
H500 H 0.6612 0.44884 0.74917 0.0
H501 H 0.62464 0.41675 0.77046 0.0
H502 H 0.59278 0.40206 0.81473 0.0
H503 H 0.57628 0.40994 0.86552 0.0
Mn504 Mn 0.12679 0.66749 0.81171 0.0
Mn505 Mn 0.17114 0.66682 0.8501 0.0
C506 C 0.14092 0.64517 0.79028 0.0
C507 C 0.08769 0.65271 0.80319 0.0
C508 C 0.1766 0.70608 0.80653 0.0
O509 O 0.12669 0.67988 0.85911 0.0
O510 O 0.15623 0.67785 0.88232 0.0
C511 C 0.14598 0.63065 0.90116 0.0
N512 N 0.16071 0.63891 0.87446 0.0
C513 C 0.1664 0.60655 0.87569 0.0
C514 C 0.15138 0.59775 0.90334 0.0
C515 C 0.14111 0.60985 0.91608 0.0
C516 C 0.17079 0.62748 0.8621 0.0
H517 H 0.138 0.63987 0.91097 0.0
C518 C 0.14004 0.68247 0.88385 0.0
O519 O 0.10246 0.67353 0.79471 0.0
O520 O 0.09553 0.64107 0.81842 0.0
N521 N 0.18674 0.65622 0.82142 0.0
C522 C 0.19922 0.66606 0.79288 0.0
C523 C 0.20976 0.65552 0.77593 0.0
C524 C 0.20745 0.63506 0.78859 0.0
C525 C 0.19458 0.6253 0.81806 0.0
C526 C 0.18457 0.63664 0.83397 0.0
H527 H 0.20096 0.68173 0.78298 0.0
O528 O 0.13001 0.6519 0.77071 0.0
O529 O 0.14371 0.65215 0.82157 0.0
O530 O 0.15563 0.69748 0.7984 0.0
O531 O 0.18405 0.69608 0.82572 0.0
C532 C 0.19084 0.60449 0.8318 0.0
C533 C 0.17675 0.59511 0.86058 0.0
H534 H 0.14743 0.58162 0.91474 0.0
H535 H 0.12942 0.60311 0.93731 0.0
H536 H 0.21957 0.6631 0.75311 0.0
H537 H 0.21547 0.6269 0.77532 0.0
H538 H 0.19837 0.59534 0.82004 0.0
H539 H 0.17367 0.57889 0.87053 0.0
Mn540 Mn 0.4691 0.12538 0.81128 0.0
Mn541 Mn 0.51456 0.16942 0.84954 0.0
C542 C 0.50558 0.13889 0.7901 0.0
C543 C 0.44404 0.08641 0.80276 0.0
C544 C 0.48117 0.17543 0.80575 0.0
O545 O 0.45674 0.12562 0.85872 0.0
O546 O 0.48861 0.15489 0.88183 0.0
C547 C 0.52508 0.14396 0.90069 0.0
N548 N 0.53172 0.15863 0.8739 0.0
C549 C 0.56944 0.1634 0.87473 0.0
C550 C 0.56303 0.14843 0.90245 0.0
C551 C 0.54075 0.13866 0.91545 0.0
C552 C 0.55316 0.16825 0.86131 0.0
H553 H 0.50794 0.13633 0.91066 0.0
C554 C 0.46769 0.13891 0.88346 0.0
O555 O 0.4385 0.10154 0.79429 0.0
O556 O 0.4635 0.09382 0.81799 0.0
N557 N 0.54076 0.18459 0.82072 0.0
C558 C 0.54356 0.19709 0.79215 0.0
C559 C 0.56456 0.20718 0.77498 0.0
C560 C 0.58246 0.20437 0.78742 0.0
C561 C 0.5792 0.1915 0.81692 0.0
C562 C 0.55795 0.18199 0.8331 0.0
H563 H 0.5298 0.19917 0.78237 0.0
O564 O 0.48795 0.1282 0.7704 0.0
O565 O 0.50134 0.14187 0.82126 0.0
O566 O 0.46858 0.15447 0.79776 0.0
O567 O 0.49855 0.18271 0.82507 0.0
C568 C 0.59598 0.18721 0.83039 0.0
C569 C 0.59112 0.1732 0.8593 0.0
H570 H 0.575 0.14413 0.91371 0.0
H571 H 0.53565 0.127 0.93673 0.0
H572 H 0.56692 0.217 0.75213 0.0
H573 H 0.59856 0.21201 0.77394 0.0
H574 H 0.61255 0.19427 0.81834 0.0
H575 H 0.60403 0.16971 0.86907 0.0
Mn576 Mn 0.34892 0.4641 0.81326 0.0
Mn577 Mn 0.35615 0.51092 0.85517 0.0
C578 C 0.37466 0.50036 0.79362 0.0
C579 C 0.35886 0.43631 0.80184 0.0
C580 C 0.31557 0.48248 0.80963 0.0
O581 O 0.33569 0.45108 0.86006 0.0
O582 O 0.34113 0.48355 0.88488 0.0
C583 C 0.38965 0.51421 0.9065 0.0
N584 N 0.38375 0.52385 0.88101 0.0
C585 C 0.41912 0.55935 0.88654 0.0
C586 C 0.42551 0.54984 0.91301 0.0
C587 C 0.41073 0.52716 0.92298 0.0
C588 C 0.39783 0.54568 0.87125 0.0
H589 H 0.37837 0.49677 0.9142 0.0
C590 C 0.33419 0.46211 0.88535 0.0
O591 O 0.33903 0.43339 0.79337 0.0
O592 O 0.37241 0.45475 0.81844 0.0
N593 N 0.37071 0.5387 0.82959 0.0
C594 C 0.36279 0.54471 0.80193 0.0
C595 C 0.37599 0.56658 0.78787 0.0
C596 C 0.39708 0.58209 0.80252 0.0
C597 C 0.4048 0.57558 0.83111 0.0
C598 C 0.39086 0.55359 0.84413 0.0
H599 H 0.34666 0.53281 0.79043 0.0
O600 O 0.36593 0.48308 0.77307 0.0
O601 O 0.36789 0.49608 0.82502 0.0
O602 O 0.321 0.46751 0.8017 0.0
O603 O 0.32771 0.49939 0.82904 0.0
C604 C 0.42609 0.5898 0.84659 0.0
C605 C 0.43325 0.58169 0.87427 0.0
H606 H 0.44182 0.55972 0.92564 0.0
H607 H 0.41559 0.51967 0.94328 0.0
H608 H 0.36997 0.57145 0.76569 0.0
H609 H 0.40732 0.59887 0.79143 0.0
H610 H 0.43727 0.60686 0.83701 0.0
H611 H 0.44981 0.59266 0.88561 0.0
Mn612 Mn 0.89308 0.34713 0.8103 0.0
Mn613 Mn 0.84835 0.34749 0.84806 0.0
C614 C 0.87906 0.3696 0.78883 0.0
C615 C 0.93227 0.3618 0.80263 0.0
C616 C 0.84338 0.30842 0.80444 0.0
O617 O 0.89276 0.33449 0.85771 0.0
O618 O 0.86326 0.3367 0.88066 0.0
C619 C 0.87287 0.38374 0.89925 0.0
N620 N 0.85834 0.37535 0.87232 0.0
C621 C 0.85209 0.40736 0.87323 0.0
C622 C 0.86689 0.41629 0.9011 0.0
C623 C 0.87735 0.40444 0.91411 0.0
C624 C 0.84809 0.38655 0.85969 0.0
H625 H 0.88097 0.3747 0.90927 0.0
C626 C 0.8794 0.33201 0.8824 0.0
O627 O 0.91749 0.34108 0.79375 0.0
O628 O 0.92435 0.37346 0.81763 0.0
N629 N 0.83275 0.35784 0.81892 0.0
C630 C 0.82056 0.34793 0.79019 0.0
C631 C 0.80992 0.35826 0.77293 0.0
C632 C 0.81183 0.37857 0.78549 0.0
C633 C 0.82441 0.3884 0.81517 0.0
C634 C 0.83455 0.37729 0.83136 0.0
H635 H 0.81912 0.33237 0.78036 0.0
O636 O 0.89019 0.36306 0.76937 0.0
O637 O 0.87601 0.36236 0.81999 0.0
O638 O 0.86437 0.31723 0.79633 0.0
O639 O 0.83579 0.31821 0.82378 0.0
C640 C 0.82774 0.40908 0.82885 0.0
C641 C 0.84157 0.41856 0.85786 0.0
H642 H 0.87054 0.43234 0.91247 0.0
H643 H 0.88888 0.41128 0.93551 0.0
H644 H 0.80034 0.35064 0.74995 0.0
H645 H 0.80375 0.38657 0.77197 0.0
H646 H 0.82009 0.41806 0.81688 0.0
H647 H 0.84434 0.43468 0.86777 0.0
Mn648 Mn 0.12985 0.46788 0.69833 0.0
Mn649 Mn 0.17175 0.5142 0.65854 0.0
C650 C 0.14206 0.50424 0.71913 0.0
C651 C 0.09123 0.44188 0.70844 0.0
C652 C 0.18104 0.4837 0.70394 0.0
O653 O 0.12971 0.45522 0.65119 0.0
O654 O 0.15889 0.48708 0.62822 0.0
C655 C 0.14367 0.51969 0.60577 0.0
N656 N 0.15874 0.52849 0.63202 0.0
C657 C 0.16124 0.56506 0.6261 0.0
C658 C 0.14585 0.55643 0.59887 0.0
C659 C 0.13699 0.53363 0.58873 0.0
C660 C 0.16737 0.5504 0.64199 0.0
H661 H 0.13682 0.50218 0.59788 0.0
C662 C 0.1433 0.46602 0.62676 0.0
O663 O 0.10698 0.43708 0.71648 0.0
O664 O 0.09784 0.46102 0.69277 0.0
N665 N 0.18553 0.54171 0.68475 0.0
C666 C 0.19862 0.5468 0.71325 0.0
C667 C 0.20796 0.56864 0.72767 0.0
C668 C 0.20394 0.58508 0.71249 0.0
C669 C 0.1905 0.57948 0.68309 0.0
C670 C 0.18165 0.55744 0.66984 0.0
H671 H 0.20164 0.53418 0.72514 0.0
O672 O 0.13256 0.48667 0.73912 0.0
O673 O 0.14464 0.50015 0.68768 0.0
O674 O 0.1602 0.46905 0.71036 0.0
O675 O 0.18697 0.50125 0.68543 0.0
C676 C 0.18509 0.59472 0.66688 0.0
C677 C 0.17041 0.5875 0.63848 0.0
H678 H 0.14057 0.5671 0.58576 0.0
H679 H 0.12503 0.52682 0.56783 0.0
H680 H 0.21819 0.57278 0.7505 0.0
H681 H 0.21104 0.60185 0.7238 0.0
H682 H 0.19181 0.61192 0.67643 0.0
H683 H 0.16605 0.59926 0.62663 0.0
Mn684 Mn 0.66962 0.12415 0.69978 0.0
Mn685 Mn 0.66871 0.16826 0.66093 0.0
C686 C 0.64698 0.13811 0.72069 0.0
C687 C 0.65527 0.08515 0.70865 0.0
C688 C 0.70804 0.17407 0.70471 0.0
O689 O 0.68213 0.12403 0.65244 0.0
O690 O 0.67989 0.15338 0.6289 0.0
C691 C 0.63258 0.14278 0.60994 0.0
N692 N 0.64076 0.15758 0.63657 0.0
C693 C 0.60803 0.1627 0.63552 0.0
C694 C 0.59932 0.14761 0.60795 0.0
C695 C 0.61164 0.1376 0.59514 0.0
C696 C 0.62911 0.16743 0.64897 0.0
H697 H 0.64195 0.13498 0.60011 0.0
C698 C 0.68464 0.13727 0.62757 0.0
O699 O 0.67602 0.10015 0.71708 0.0
O700 O 0.64339 0.0927 0.69332 0.0
N701 N 0.65794 0.18377 0.68948 0.0
C702 C 0.66775 0.19637 0.71793 0.0
C703 C 0.65702 0.2067 0.7349 0.0
C704 C 0.63638 0.20403 0.72241 0.0
C705 C 0.62664 0.19104 0.69303 0.0
C706 C 0.63821 0.18129 0.67703 0.0
H707 H 0.68354 0.19835 0.72774 0.0
O708 O 0.65376 0.12737 0.74056 0.0
O709 O 0.65416 0.14087 0.68952 0.0
O710 O 0.69946 0.15314 0.71298 0.0
O711 O 0.69803 0.18142 0.68534 0.0
C712 C 0.60561 0.18687 0.67953 0.0
C713 C 0.59633 0.17274 0.65076 0.0
H714 H 0.58307 0.14339 0.59668 0.0
H715 H 0.60497 0.12584 0.57398 0.0
H716 H 0.66458 0.21662 0.75766 0.0
H717 H 0.62806 0.21186 0.73575 0.0
H718 H 0.59624 0.19412 0.69143 0.0
H719 H 0.57997 0.16935 0.64096 0.0
Mn720 Mn 0.55091 0.66572 0.69853 0.0
Mn721 Mn 0.50522 0.66388 0.66059 0.0
C722 C 0.51459 0.64275 0.72017 0.0
C723 C 0.57574 0.65155 0.70688 0.0
C724 C 0.53867 0.70356 0.70393 0.0
O725 O 0.5631 0.67819 0.65102 0.0
O726 O 0.53113 0.6755 0.62818 0.0
C727 C 0.49492 0.62793 0.60946 0.0
N728 N 0.48821 0.63586 0.6363 0.0
C729 C 0.45068 0.60261 0.63573 0.0
C730 C 0.45715 0.59415 0.60796 0.0
C731 C 0.47937 0.60686 0.5948 0.0
C732 C 0.46682 0.62384 0.64903 0.0
H733 H 0.51201 0.6376 0.59937 0.0
C734 C 0.55207 0.68053 0.62642 0.0
O735 O 0.58152 0.6723 0.71535 0.0
O736 O 0.55626 0.63968 0.69167 0.0
N737 N 0.47905 0.65265 0.68951 0.0
C738 C 0.47618 0.66229 0.71809 0.0
C739 C 0.45523 0.65118 0.73538 0.0
C740 C 0.43745 0.63034 0.72307 0.0
C741 C 0.44079 0.62078 0.69358 0.0
C742 C 0.46197 0.63272 0.67726 0.0
H743 H 0.48985 0.67824 0.72776 0.0
O744 O 0.53232 0.64988 0.73966 0.0
O745 O 0.51863 0.6498 0.68891 0.0
O746 O 0.55146 0.69541 0.71184 0.0
O747 O 0.52112 0.69321 0.68496 0.0
C748 C 0.42414 0.59959 0.68024 0.0
C749 C 0.42907 0.59052 0.65131 0.0
H750 H 0.44529 0.5778 0.59678 0.0
H751 H 0.48453 0.60039 0.57348 0.0
H752 H 0.45281 0.65861 0.75823 0.0
H753 H 0.42137 0.62174 0.73661 0.0
H754 H 0.40762 0.58993 0.69239 0.0
H755 H 0.41626 0.57404 0.64163 0.0
Mn756 Mn 0.89014 0.54691 0.69933 0.0
Mn757 Mn 0.84636 0.50135 0.66086 0.0
C758 C 0.87677 0.51048 0.7206 0.0
C759 C 0.92905 0.57216 0.70796 0.0
C760 C 0.84005 0.53469 0.70424 0.0
O761 O 0.8899 0.55925 0.65192 0.0
O762 O 0.86092 0.52727 0.62856 0.0
C763 C 0.87195 0.4908 0.60998 0.0
N764 N 0.85722 0.48419 0.63669 0.0
C765 C 0.85213 0.44636 0.63568 0.0
C766 C 0.86716 0.45273 0.60804 0.0
C767 C 0.87713 0.47506 0.59517 0.0
C768 C 0.84742 0.46271 0.64916 0.0
H769 H 0.87969 0.50796 0.60009 0.0
C770 C 0.87674 0.54826 0.6271 0.0
O771 O 0.9138 0.57757 0.71634 0.0
O772 O 0.92179 0.55271 0.6928 0.0
N773 N 0.83112 0.47518 0.68971 0.0
C774 C 0.81862 0.47243 0.71825 0.0
C775 C 0.80839 0.4514 0.73535 0.0
C776 C 0.81102 0.43342 0.72283 0.0
C777 C 0.82391 0.43665 0.69334 0.0
C778 C 0.83361 0.45795 0.67729 0.0
H779 H 0.81663 0.48624 0.72806 0.0
O780 O 0.88735 0.52814 0.74026 0.0
O781 O 0.87383 0.51464 0.68936 0.0
O782 O 0.86093 0.54728 0.7126 0.0
O783 O 0.83294 0.51731 0.68497 0.0
C784 C 0.82796 0.41976 0.67972 0.0
C785 C 0.84207 0.42461 0.65091 0.0
H786 H 0.87135 0.4407 0.59672 0.0
H787 H 0.88883 0.48013 0.57395 0.0
H788 H 0.79856 0.44908 0.75819 0.0
H789 H 0.80325 0.41729 0.73623 0.0
H790 H 0.82067 0.40312 0.69158 0.0
H791 H 0.84539 0.41161 0.64105 0.0
Mn792 Mn 0.34995 0.88878 0.69817 0.0
Mn793 Mn 0.3506 0.84453 0.65938 0.0
C794 C 0.37222 0.87448 0.71936 0.0
C795 C 0.3647 0.92784 0.70712 0.0
C796 C 0.31121 0.839 0.70275 0.0
O797 O 0.33771 0.88911 0.65069 0.0
O798 O 0.33978 0.85966 0.62721 0.0
C799 C 0.38704 0.86986 0.60876 0.0
N800 N 0.37864 0.85503 0.63533 0.0
C801 C 0.41118 0.8496 0.63471 0.0
C802 C 0.42012 0.86472 0.60721 0.0
C803 C 0.40801 0.8749 0.59421 0.0
C804 C 0.39008 0.84501 0.6479 0.0
H805 H 0.37783 0.87779 0.59879 0.0
C806 C 0.33521 0.87589 0.62579 0.0
O807 O 0.34385 0.91302 0.7154 0.0
O808 O 0.37642 0.92008 0.69186 0.0
N809 N 0.36103 0.82879 0.68809 0.0
C810 C 0.35102 0.81618 0.71646 0.0
C811 C 0.36155 0.80571 0.73363 0.0
C812 C 0.38219 0.80825 0.72141 0.0
C813 C 0.39213 0.82124 0.69209 0.0
C814 C 0.38077 0.83113 0.67589 0.0
H815 H 0.33522 0.81431 0.72608 0.0
O816 O 0.3655 0.88531 0.73912 0.0
O817 O 0.3652 0.87184 0.68811 0.0
O818 O 0.31989 0.85993 0.71112 0.0
O819 O 0.3212 0.83157 0.68348 0.0
C820 C 0.41317 0.82526 0.67885 0.0
C821 C 0.42267 0.83941 0.65015 0.0
H822 H 0.4364 0.86884 0.59613 0.0
H823 H 0.41486 0.88668 0.5731 0.0
H824 H 0.35383 0.7958 0.75633 0.0
H825 H 0.39037 0.80034 0.73492 0.0
H826 H 0.42239 0.81791 0.69091 0.0
H827 H 0.43905 0.84269 0.64055 0.0
Mn828 Mn 0.46422 0.34519 0.69885 0.0
Mn829 Mn 0.50973 0.34811 0.65832 0.0
C830 C 0.50091 0.36963 0.71827 0.0
C831 C 0.43755 0.35691 0.70851 0.0
C832 C 0.47843 0.30879 0.70399 0.0
O833 O 0.45104 0.33138 0.6522 0.0
O834 O 0.4831 0.33569 0.62727 0.0
C835 C 0.51813 0.38334 0.60682 0.0
N836 N 0.52573 0.37587 0.63314 0.0
C837 C 0.56328 0.40893 0.62949 0.0
C838 C 0.55589 0.41692 0.60222 0.0
C839 C 0.5332 0.40409 0.5909 0.0
C840 C 0.54754 0.38805 0.64419 0.0
H841 H 0.5007 0.37351 0.59806 0.0
C842 C 0.46186 0.32963 0.62678 0.0
O843 O 0.43379 0.33695 0.71786 0.0
O844 O 0.4563 0.3697 0.69191 0.0
N845 N 0.53663 0.36006 0.68574 0.0
C846 C 0.54045 0.35091 0.7141 0.0
C847 C 0.56201 0.36223 0.72967 0.0
C848 C 0.57943 0.38269 0.71579 0.0
C849 C 0.57512 0.39171 0.68651 0.0
C850 C 0.55332 0.37965 0.67205 0.0
H851 H 0.52711 0.3352 0.72488 0.0
O852 O 0.48356 0.36244 0.7386 0.0
O853 O 0.49636 0.36212 0.68723 0.0
O854 O 0.46565 0.31671 0.71292 0.0
O855 O 0.49506 0.31899 0.68339 0.0
C856 C 0.59142 0.41245 0.67157 0.0
C857 C 0.58549 0.42109 0.64312 0.0
H858 H 0.56741 0.43299 0.59 0.0
H859 H 0.52735 0.41019 0.56996 0.0
H860 H 0.56518 0.35521 0.75236 0.0
H861 H 0.59599 0.39143 0.72797 0.0
H862 H 0.60844 0.42211 0.68213 0.0
H863 H 0.59805 0.43727 0.63225 0.0
H864 H 0.40014 0.06397 0.23151 0.0
H865 H 0.41036 0.9593 0.30153 0.0
H866 H 0.45786 0.05511 0.21084 0.0
H867 H 0.34459 0.95125 0.27686 0.0
H868 H 0.42873 0.99771 0.27747 0.0
H869 H 0.3798 0.02521 0.25558 0.0
C870 C 0.40843 0.05382 0.23173 0.0
C871 C 0.4307 0.06276 0.21905 0.0
C872 C 0.41027 0.98757 0.27747 0.0
C873 C 0.40786 0.01888 0.2473 0.0
C874 C 0.39975 0.96571 0.29148 0.0
C875 C 0.37589 0.95201 0.29117 0.0
C876 C 0.39688 0.99602 0.26349 0.0
C877 C 0.36304 0.96123 0.27754 0.0
C878 C 0.39685 0.03178 0.24549 0.0
C879 C 0.44068 0.0489 0.22012 0.0
N880 N 0.3737 0.98272 0.2643 0.0
N881 N 0.42931 0.0278 0.23434 0.0
H882 H 0.41551 0.34689 0.24138 0.0
H883 H 0.35005 0.41401 0.27008 0.0
H884 H 0.42825 0.38651 0.33287 0.0
H885 H 0.39016 0.42684 0.1791 0.0
H886 H 0.36742 0.39254 0.29335 0.0
H887 H 0.39473 0.36499 0.21799 0.0
C888 C 0.41353 0.35906 0.25679 0.0
C889 C 0.42352 0.36522 0.28913 0.0
C890 C 0.37214 0.39986 0.26815 0.0
C891 C 0.39959 0.3855 0.26279 0.0
C892 C 0.36218 0.41193 0.25476 0.0
C893 C 0.36869 0.42214 0.2226 0.0
C894 C 0.38813 0.39739 0.24879 0.0
C895 C 0.38472 0.41921 0.20399 0.0
C896 C 0.40188 0.36944 0.24332 0.0
C897 C 0.42077 0.38132 0.30785 0.0
N898 N 0.39379 0.40691 0.21725 0.0
N899 N 0.40887 0.39081 0.29451 0.0
H900 H 0.95541 0.3392 0.23051 0.0
H901 H 0.05794 0.45482 0.30271 0.0
H902 H 0.96322 0.40537 0.21 0.0
H903 H 0.06799 0.39839 0.27764 0.0
H904 H 0.01976 0.43409 0.27805 0.0
H905 H 0.99402 0.35815 0.25523 0.0
C906 C 0.96531 0.35767 0.23088 0.0
C907 C 0.95611 0.37073 0.21808 0.0
C908 C 0.03028 0.42619 0.2781 0.0
C909 C 0.99978 0.39234 0.24708 0.0
C910 C 0.05201 0.43791 0.29246 0.0
C911 C 0.06622 0.42834 0.29219 0.0
C912 C 0.02246 0.40454 0.26378 0.0
C913 C 0.0576 0.40641 0.27831 0.0
C914 C 0.98726 0.36842 0.24502 0.0
C915 C 0.96963 0.3946 0.21936 0.0
N916 N 0.03621 0.39518 0.26469 0.0
N917 N 0.99063 0.40461 0.23396 0.0
H918 H 0.62012 0.95013 0.23093 0.0
H919 H 0.60961 0.05425 0.30275 0.0
H920 H 0.56201 0.95865 0.21198 0.0
H921 H 0.67545 0.06248 0.27801 0.0
H922 H 0.59131 0.01598 0.2783 0.0
H923 H 0.64048 0.98883 0.25515 0.0
C924 C 0.61175 0.9602 0.23153 0.0
C925 C 0.58935 0.95117 0.21933 0.0
C926 C 0.60977 0.02612 0.27836 0.0
C927 C 0.61223 0.99499 0.24776 0.0
C928 C 0.62026 0.0479 0.2926 0.0
C929 C 0.64412 0.06162 0.2924 0.0
C930 C 0.62319 0.01776 0.26421 0.0
C931 C 0.657 0.05248 0.27864 0.0
C932 C 0.62335 0.98221 0.24539 0.0
C933 C 0.57928 0.96493 0.22088 0.0
N934 N 0.64637 0.03106 0.26514 0.0
N935 N 0.59068 0.986 0.23519 0.0
H936 H 0.5641 0.60666 0.30454 0.0
H937 H 0.67857 0.61624 0.23442 0.0
H938 H 0.62109 0.67267 0.27858 0.0
H939 H 0.61143 0.56022 0.21094 0.0
H940 H 0.66071 0.63696 0.25935 0.0
H941 H 0.58458 0.58867 0.28103 0.0
C942 C 0.58108 0.61743 0.29436 0.0
C943 C 0.59085 0.64123 0.29341 0.0
C944 C 0.65002 0.6202 0.24846 0.0
C945 C 0.61438 0.62063 0.26635 0.0
C946 C 0.66015 0.60841 0.23421 0.0
C947 C 0.64647 0.58649 0.22049 0.0
C948 C 0.62612 0.60968 0.24971 0.0
C949 C 0.62269 0.5771 0.22104 0.0
C950 C 0.59267 0.60711 0.28068 0.0
C951 C 0.61291 0.65425 0.27971 0.0
N952 N 0.6133 0.5886 0.23575 0.0
N953 N 0.62399 0.64378 0.26669 0.0
H954 H 0.0552 0.60713 0.20617 0.0
H955 H 0.94946 0.61527 0.27637 0.0
H956 H 0.06326 0.67272 0.23214 0.0
H957 H 0.96086 0.55937 0.29903 0.0
H958 H 0.98808 0.6363 0.25158 0.0
H959 H 0.01668 0.58862 0.22972 0.0
C960 C 0.04876 0.61769 0.21638 0.0
C961 C 0.06253 0.64153 0.21729 0.0
C962 C 0.98206 0.61949 0.26225 0.0
C963 C 0.01834 0.62034 0.24437 0.0
C964 C 0.96011 0.60752 0.2764 0.0
C965 C 0.95195 0.58555 0.28988 0.0
C966 C 0.99557 0.60912 0.26084 0.0
C967 C 0.96643 0.57628 0.28913 0.0
C968 C 0.02683 0.60708 0.23008 0.0
C969 C 0.05323 0.65428 0.23104 0.0
N970 N 0.98736 0.58797 0.27452 0.0
N971 N 0.03165 0.64353 0.24404 0.0
H972 H 0.56078 0.95797 0.8022 0.0
H973 H 0.67628 0.06199 0.73225 0.0
H974 H 0.61827 0.94939 0.77823 0.0
H975 H 0.60993 0.05368 0.71153 0.0
H976 H 0.65756 0.02324 0.75636 0.0
H977 H 0.58113 0.9963 0.77801 0.0
C978 C 0.57783 0.96425 0.79227 0.0
C979 C 0.58782 0.95041 0.79221 0.0
C980 C 0.64719 0.02992 0.74625 0.0
C981 C 0.6112 0.99436 0.76434 0.0
C982 C 0.65782 0.05196 0.73246 0.0
C983 C 0.64464 0.06105 0.71977 0.0
C984 C 0.62326 0.01719 0.74806 0.0
C985 C 0.62078 0.04735 0.72082 0.0
C986 C 0.58934 0.98607 0.77818 0.0
C987 C 0.60993 0.95948 0.77874 0.0
N988 N 0.61088 0.02625 0.73507 0.0
N989 N 0.62094 0.98094 0.76539 0.0
H990 H 0.6758 0.61589 0.78033 0.0
H991 H 0.56209 0.60628 0.70683 0.0
H992 H 0.60877 0.5584 0.79957 0.0
H993 H 0.61931 0.67203 0.73326 0.0
H994 H 0.58184 0.58792 0.73169 0.0
H995 H 0.65788 0.6366 0.75592 0.0
C996 C 0.65736 0.60773 0.77977 0.0
C997 C 0.64375 0.5854 0.79207 0.0
C998 C 0.59013 0.60638 0.7319 0.0
C999 C 0.62331 0.60866 0.76342 0.0
C1000 C 0.57897 0.61691 0.71743 0.0
C1001 C 0.58905 0.64076 0.71801 0.0
C1002 C 0.61172 0.61973 0.74667 0.0
C1003 C 0.61092 0.65359 0.73233 0.0
C1004 C 0.64719 0.61953 0.7658 0.0
C1005 C 0.61994 0.57561 0.79057 0.0
N1006 N 0.62159 0.64291 0.74607 0.0
N1007 N 0.6105 0.58718 0.77613 0.0
H1008 H 0.95154 0.61646 0.73116 0.0
H1009 H 0.05644 0.60729 0.80262 0.0
H1010 H 0.96111 0.55911 0.71113 0.0
H1011 H 0.06412 0.67287 0.7777 0.0
H1012 H 0.01818 0.58871 0.77813 0.0
H1013 H 0.99023 0.63714 0.75542 0.0
C1014 C 0.96184 0.60832 0.73154 0.0
C1015 C 0.95312 0.58605 0.71902 0.0
C1016 C 0.02819 0.60717 0.77817 0.0
C1017 C 0.9969 0.60929 0.74749 0.0
C1018 C 0.04997 0.61782 0.79243 0.0
C1019 C 0.06354 0.6417 0.79217 0.0
C1020 C 0.01967 0.62043 0.76396 0.0
C1021 C 0.05424 0.65442 0.77837 0.0
C1022 C 0.98384 0.62011 0.74542 0.0
C1023 C 0.96715 0.57628 0.72029 0.0
N1024 N 0.03281 0.64363 0.76485 0.0
N1025 N 0.98821 0.58784 0.73463 0.0
H1026 H 0.39983 0.06362 0.77919 0.0
H1027 H 0.41012 0.95915 0.70851 0.0
H1028 H 0.45744 0.0546 0.79989 0.0
H1029 H 0.34427 0.95125 0.73216 0.0
H1030 H 0.42843 0.99738 0.73314 0.0
H1031 H 0.37948 0.02495 0.75489 0.0
C1032 C 0.40809 0.05344 0.77895 0.0
C1033 C 0.43035 0.06232 0.79168 0.0
C1034 C 0.40997 0.98732 0.7328 0.0
C1035 C 0.40749 0.01853 0.76315 0.0
C1036 C 0.39948 0.96557 0.71846 0.0
C1037 C 0.3756 0.95195 0.7183 0.0
C1038 C 0.39654 0.99576 0.74667 0.0
C1039 C 0.36272 0.96117 0.73181 0.0
C1040 C 0.3965 0.03144 0.76504 0.0
C1041 C 0.44028 0.04844 0.79057 0.0
N1042 N 0.37336 0.98256 0.7454 0.0
N1043 N 0.42891 0.02738 0.7762 0.0
H1044 H 0.38651 0.42384 0.83466 0.0
H1045 H 0.4288 0.3878 0.67671 0.0
H1046 H 0.3503 0.41479 0.74063 0.0
H1047 H 0.41301 0.34655 0.76702 0.0
H1048 H 0.40645 0.40449 0.69949 0.0
H1049 H 0.40309 0.40169 0.81098 0.0
C1050 C 0.38188 0.41696 0.80921 0.0
C1051 C 0.36687 0.42089 0.78965 0.0
C1052 C 0.40775 0.3916 0.71402 0.0
C1053 C 0.38637 0.39653 0.76217 0.0
C1054 C 0.42047 0.38214 0.70113 0.0
C1055 C 0.42258 0.36569 0.71994 0.0
C1056 C 0.39786 0.38514 0.74639 0.0
C1057 C 0.41158 0.35902 0.75158 0.0
C1058 C 0.39131 0.40439 0.79578 0.0
C1059 C 0.36157 0.41184 0.75665 0.0
N1060 N 0.40005 0.36908 0.76414 0.0
N1061 N 0.37167 0.40042 0.74364 0.0
H1062 H 0.06946 0.39802 0.73405 0.0
H1063 H 0.96387 0.40712 0.80276 0.0
H1064 H 0.05876 0.45429 0.71087 0.0
H1065 H 0.95588 0.34136 0.7783 0.0
H1066 H 1.00243 0.42546 0.77935 0.0
H1067 H 0.03078 0.37732 0.75867 0.0
C1068 C 0.05894 0.40592 0.73386 0.0
C1069 C 0.06732 0.42789 0.72028 0.0
C1070 C 0.99228 0.40701 0.77929 0.0
C1071 C 0.02362 0.4047 0.74914 0.0
C1072 C 0.97033 0.3965 0.79292 0.0
C1073 C 0.95657 0.37265 0.7924 0.0
C1074 C 1.0008 0.39363 0.76546 0.0
C1075 C 0.96589 0.3598 0.7791 0.0
C1076 C 0.03696 0.39414 0.74793 0.0
C1077 C 0.05302 0.43737 0.72085 0.0
N1078 N 0.98749 0.37045 0.76617 0.0
N1079 N 0.03203 0.42585 0.73537 0.0
H1080 H 0.48596 0.21365 0.17258 0.0
H1081 H 0.48788 0.2776 0.33924 0.0
H1082 H 0.46746 0.17797 0.26834 0.0
H1083 H 0.46467 0.29169 0.24514 0.0
H1084 H 0.48439 0.24291 0.31384 0.0
H1085 H 0.48197 0.24447 0.19826 0.0
C1086 C 0.48085 0.21224 0.19895 0.0
C1087 C 0.477 0.19327 0.21841 0.0
C1088 C 0.47984 0.25349 0.29892 0.0
C1089 C 0.47297 0.22863 0.24804 0.0
C1090 C 0.48194 0.27332 0.31328 0.0
C1091 C 0.47658 0.28753 0.29421 0.0
C1092 C 0.47297 0.24819 0.26495 0.0
C1093 C 0.46887 0.28114 0.26074 0.0
C1094 C 0.47851 0.22976 0.21351 0.0
C1095 C 0.47042 0.19225 0.25245 0.0
N1096 N 0.46765 0.26211 0.24696 0.0
N1097 N 0.46899 0.20991 0.2664 0.0
H1098 H 0.2171 0.48457 0.33814 0.0
H1099 H 0.28194 0.48716 0.17214 0.0
H1100 H 0.18185 0.46622 0.24202 0.0
H1101 H 0.29577 0.46393 0.26643 0.0
H1102 H 0.24706 0.48346 0.19717 0.0
H1103 H 0.24812 0.48078 0.31277 0.0
C1104 C 0.21583 0.47953 0.31175 0.0
C1105 C 0.19693 0.47568 0.29209 0.0
C1106 C 0.25762 0.47896 0.21221 0.0
C1107 C 0.23251 0.47186 0.26283 0.0
C1108 C 0.27756 0.48119 0.19807 0.0
C1109 C 0.29176 0.47589 0.21731 0.0
C1110 C 0.25219 0.472 0.24613 0.0
C1111 C 0.28524 0.4681 0.25072 0.0
C1112 C 0.23346 0.4773 0.29738 0.0
C1113 C 0.19608 0.46918 0.25805 0.0
N1114 N 0.26609 0.46674 0.26429 0.0
N1115 N 0.21385 0.46786 0.24427 0.0
H1116 H 0.74162 0.21273 0.33827 0.0
H1117 H 0.80539 0.2737 0.17157 0.0
H1118 H 0.72566 0.17538 0.24402 0.0
H1119 H 0.84142 0.2905 0.26702 0.0
H1120 H 0.7746 0.23883 0.19717 0.0
H1121 H 0.77702 0.24287 0.31292 0.0
C1122 C 0.7457 0.2108 0.31232 0.0
C1123 C 0.73071 0.19158 0.29314 0.0
C1124 C 0.7894 0.24997 0.21235 0.0
C1125 C 0.77087 0.22615 0.26389 0.0
C1126 C 0.8069 0.26988 0.19784 0.0
C1127 C 0.82593 0.28496 0.21727 0.0
C1128 C 0.7906 0.24546 0.24682 0.0
C1129 C 0.82709 0.27923 0.25117 0.0
C1130 C 0.76593 0.22793 0.29796 0.0
C1131 C 0.73683 0.18988 0.25968 0.0
N1132 N 0.80943 0.26011 0.2651 0.0
N1133 N 0.75626 0.20717 0.24586 0.0
H1134 H 0.55616 0.83756 0.26796 0.0
H1135 H 0.55518 0.72016 0.24039 0.0
H1136 H 0.53355 0.79965 0.17428 0.0
H1137 H 0.53599 0.73742 0.3355 0.0
H1138 H 0.55899 0.75524 0.21534 0.0
H1139 H 0.56054 0.80654 0.29254 0.0
C1140 C 0.55254 0.82292 0.25241 0.0
C1141 C 0.54436 0.82104 0.21915 0.0
C1142 C 0.55426 0.75142 0.24181 0.0
C1143 C 0.54963 0.7859 0.24681 0.0
C1144 C 0.55221 0.73155 0.25612 0.0
C1145 C 0.54515 0.7259 0.28996 0.0
C1146 C 0.54978 0.76593 0.26179 0.0
C1147 C 0.54131 0.74111 0.30922 0.0
C1148 C 0.55492 0.80524 0.26647 0.0
C1149 C 0.53973 0.80164 0.20013 0.0
N1150 N 0.54372 0.76047 0.2949 0.0
N1151 N 0.54246 0.78481 0.2142 0.0
H1152 H 0.74023 0.56775 0.23261 0.0
H1153 H 0.79372 0.49565 0.30404 0.0
H1154 H 0.71511 0.49684 0.2084 0.0
H1155 H 0.83899 0.56641 0.2782 0.0
H1156 H 0.76224 0.49783 0.27885 0.0
H1157 H 0.77456 0.56959 0.25786 0.0
C1158 C 0.74187 0.55264 0.23256 0.0
C1159 C 0.72463 0.53208 0.21846 0.0
C1160 C 0.77904 0.51291 0.27864 0.0
C1161 C 0.76344 0.53406 0.24749 0.0
C1162 C 0.79713 0.51175 0.29315 0.0
C1163 C 0.81924 0.53086 0.2931 0.0
C1164 C 0.78273 0.5334 0.26421 0.0
C1165 C 0.8223 0.55121 0.27856 0.0
C1166 C 0.76147 0.55376 0.24678 0.0
C1167 C 0.72778 0.51308 0.21894 0.0
N1168 N 0.80417 0.55201 0.26475 0.0
N1169 N 0.74659 0.5145 0.23345 0.0
H1170 H 0.17691 0.72198 0.26869 0.0
H1171 H 0.29476 0.83844 0.24198 0.0
H1172 H 0.21378 0.73909 0.17393 0.0
H1173 H 0.27732 0.80114 0.33638 0.0
H1174 H 0.25938 0.80772 0.21681 0.0
H1175 H 0.20822 0.75695 0.29391 0.0
C1176 C 0.19137 0.73332 0.25306 0.0
C1177 C 0.19288 0.72764 0.21928 0.0
C1178 C 0.26324 0.80649 0.24315 0.0
C1179 C 0.22839 0.76755 0.24768 0.0
C1180 C 0.2833 0.824 0.25753 0.0
C1181 C 0.289 0.8222 0.2912 0.0
C1182 C 0.24858 0.78739 0.26287 0.0
C1183 C 0.27364 0.80305 0.31022 0.0
C1184 C 0.20923 0.75313 0.26748 0.0
C1185 C 0.21208 0.7428 0.20017 0.0
N1186 N 0.25411 0.7864 0.29582 0.0
N1187 N 0.22908 0.76208 0.21461 0.0
H1188 H 0.53377 0.73662 0.67236 0.0
H1189 H 0.53348 0.79949 0.83839 0.0
H1190 H 0.55444 0.7209 0.76744 0.0
H1191 H 0.55377 0.83584 0.74325 0.0
H1192 H 0.53823 0.76899 0.81326 0.0
H1193 H 0.53817 0.77172 0.69752 0.0
C1194 C 0.53945 0.74071 0.69846 0.0
C1195 C 0.54373 0.72587 0.71792 0.0
C1196 C 0.54195 0.78379 0.79805 0.0
C1197 C 0.5483 0.76566 0.74695 0.0
C1198 C 0.53915 0.80113 0.81229 0.0
C1199 C 0.54322 0.82016 0.7928 0.0
C1200 C 0.54819 0.78518 0.7638 0.0
C1201 C 0.55058 0.82149 0.75914 0.0
C1202 C 0.54204 0.76075 0.71271 0.0
C1203 C 0.55109 0.73196 0.75157 0.0
N1204 N 0.55243 0.804 0.74547 0.0
N1205 N 0.55274 0.75122 0.76527 0.0
H1206 H 0.73806 0.52871 0.83736 0.0
H1207 H 0.80245 0.53029 0.67215 0.0
H1208 H 0.72304 0.55024 0.74249 0.0
H1209 H 0.8381 0.54998 0.76791 0.0
H1210 H 0.77167 0.53468 0.69701 0.0
H1211 H 0.77347 0.53356 0.81269 0.0
C1212 C 0.74236 0.53467 0.81141 0.0
C1213 C 0.72764 0.53905 0.79186 0.0
C1214 C 0.78638 0.53835 0.71241 0.0
C1215 C 0.76778 0.54416 0.76338 0.0
C1216 C 0.80387 0.53575 0.69834 0.0
C1217 C 0.82278 0.53975 0.71808 0.0
C1218 C 0.78749 0.54432 0.74675 0.0
C1219 C 0.82384 0.54685 0.75183 0.0
C1220 C 0.76258 0.53752 0.79745 0.0
C1221 C 0.73401 0.54679 0.75842 0.0
N1222 N 0.8062 0.5485 0.76534 0.0
N1223 N 0.75343 0.54869 0.74498 0.0
H1224 H 0.27789 0.80094 0.67152 0.0
H1225 H 0.21406 0.73984 0.83815 0.0
H1226 H 0.2937 0.83817 0.76586 0.0
H1227 H 0.17825 0.72273 0.74249 0.0
H1228 H 0.24474 0.7748 0.8126 0.0
H1229 H 0.24249 0.77074 0.69676 0.0
C1230 C 0.27377 0.80283 0.69747 0.0
C1231 C 0.28873 0.82203 0.71671 0.0
C1232 C 0.23001 0.76357 0.79736 0.0
C1233 C 0.24856 0.78739 0.74583 0.0
C1234 C 0.21257 0.74361 0.81184 0.0
C1235 C 0.19364 0.72842 0.79234 0.0
C1236 C 0.22885 0.76803 0.76286 0.0
C1237 C 0.19251 0.73409 0.7584 0.0
C1238 C 0.25355 0.78567 0.71176 0.0
C1239 C 0.28257 0.82368 0.75016 0.0
N1240 N 0.21011 0.75326 0.74451 0.0
N1241 N 0.26313 0.80636 0.76391 0.0
H1242 H 0.46376 0.29236 0.76817 0.0
H1243 H 0.46519 0.17615 0.74211 0.0
H1244 H 0.48443 0.27595 0.67363 0.0
H1245 H 0.4862 0.21387 0.83609 0.0
H1246 H 0.46113 0.20718 0.71678 0.0
H1247 H 0.46094 0.25783 0.79357 0.0
C1248 C 0.46735 0.28131 0.75265 0.0
C1249 C 0.47447 0.28703 0.71884 0.0
C1250 C 0.46637 0.20845 0.74306 0.0
C1251 C 0.47092 0.24756 0.74746 0.0
C1252 C 0.46855 0.19076 0.75754 0.0
C1253 C 0.47615 0.19256 0.79115 0.0
C1254 C 0.47125 0.22772 0.76263 0.0
C1255 C 0.48047 0.21193 0.81 0.0
C1256 C 0.46584 0.26174 0.76717 0.0
C1257 C 0.47907 0.27222 0.69988 0.0
N1258 N 0.4779 0.22875 0.79552 0.0
N1259 N 0.47715 0.25311 0.71441 0.0
H1260 H 0.1795 0.44544 0.73256 0.0
H1261 H 0.30504 0.51635 0.80645 0.0
H1262 H 0.22551 0.51673 0.71095 0.0
H1263 H 0.27831 0.4456 0.7795 0.0
H1264 H 0.2716 0.51496 0.7814 0.0
H1265 H 0.21164 0.44339 0.75863 0.0
C1266 C 0.19623 0.4606 0.73331 0.0
C1267 C 0.19972 0.4813 0.71959 0.0
C1268 C 0.27302 0.49971 0.78095 0.0
C1269 C 0.23616 0.4791 0.74962 0.0
C1270 C 0.29212 0.50044 0.79536 0.0
C1271 C 0.29469 0.48109 0.79491 0.0
C1272 C 0.25597 0.47942 0.7663 0.0
C1273 C 0.27715 0.46097 0.78015 0.0
C1274 C 0.21451 0.45937 0.74801 0.0
C1275 C 0.22183 0.50038 0.72113 0.0
N1276 N 0.25841 0.4606 0.7665 0.0
N1277 N 0.23904 0.49884 0.73608 0.0
H1278 H 0.84207 0.29218 0.74024 0.0
H1279 H 0.72543 0.17464 0.76779 0.0
H1280 H 0.806 0.27426 0.8357 0.0
H1281 H 0.74132 0.21243 0.67395 0.0
H1282 H 0.76088 0.20555 0.79251 0.0
H1283 H 0.81083 0.25708 0.71513 0.0
C1284 C 0.82781 0.28063 0.75603 0.0
C1285 C 0.82649 0.28611 0.78999 0.0
C1286 C 0.75667 0.20685 0.76638 0.0
C1287 C 0.79109 0.24607 0.76173 0.0
C1288 C 0.73657 0.18923 0.75225 0.0
C1289 C 0.73042 0.19111 0.7189 0.0
C1290 C 0.7709 0.22614 0.7467 0.0
C1291 C 0.74537 0.21045 0.69988 0.0
C1292 C 0.81 0.26075 0.74169 0.0
C1293 C 0.80755 0.2707 0.80933 0.0
N1294 N 0.76495 0.22722 0.71402 0.0
N1295 N 0.7906 0.25135 0.79496 0.0
H1296 H 0.46574 0.17116 0.08879 0.0
H1297 H 0.44278 0.09905 0.91918 0.0
H1298 H 0.44536 0.09982 0.08887 0.0
H1299 H 0.46878 0.17154 0.92425 0.0
H1300 H 0.43392 0.09622 0.98027 0.0
H1301 H 0.45661 0.16864 0.02851 0.0
C1302 C 0.45874 0.15479 0.07615 0.0
C1303 C 0.45633 0.13569 0.09362 0.0
C1304 C 0.44102 0.11263 0.96779 0.0
C1305 C 0.44672 0.13279 0.02418 0.0
C1306 C 0.44588 0.11421 0.93293 0.0
C1307 C 0.45664 0.13559 0.91689 0.0
C1308 C 0.44689 0.13259 0.98639 0.0
C1309 C 0.46063 0.15477 0.93581 0.0
C1310 C 0.45366 0.15335 0.04166 0.0
C1311 C 0.44731 0.11488 0.07617 0.0
N1312 N 0.45599 0.15285 0.96953 0.0
N1313 N 0.44328 0.11407 0.04212 0.0
H1314 H 0.34652 0.43482 0.92007 0.0
H1315 H 0.29899 0.45907 0.09031 0.0
H1316 H 0.30334 0.46461 0.92605 0.0
H1317 H 0.34948 0.43809 0.08936 0.0
H1318 H 0.29188 0.44984 0.03006 0.0
H1319 H 0.33979 0.42533 0.9809 0.0
C1320 C 0.33497 0.43859 0.93392 0.0
C1321 C 0.32551 0.45057 0.91824 0.0
C1322 C 0.30417 0.44672 0.04303 0.0
C1323 C 0.31799 0.44012 0.98748 0.0
C1324 C 0.30807 0.45182 0.0775 0.0
C1325 C 0.32481 0.44931 0.09464 0.0
C1326 C 0.31757 0.43965 0.02526 0.0
C1327 C 0.3363 0.44008 0.07695 0.0
C1328 C 0.3313 0.43337 0.96865 0.0
C1329 C 0.31101 0.45545 0.93733 0.0
N1330 N 0.33283 0.43603 0.04293 0.0
N1331 N 0.30789 0.45043 0.97094 0.0
H1332 H 0.91934 0.34694 0.91793 0.0
H1333 H 0.84761 0.2968 0.08769 0.0
H1334 H 0.84681 0.30051 0.92329 0.0
H1335 H 0.91883 0.34822 0.08767 0.0
H1336 H 0.85006 0.29051 0.02727 0.0
H1337 H 0.92231 0.34068 0.9789 0.0
C1338 C 0.9042 0.33487 0.93172 0.0
C1339 C 0.88277 0.32433 0.91582 0.0
C1340 C 0.86534 0.30289 0.04043 0.0
C1341 C 0.88593 0.31728 0.98514 0.0
C1342 C 0.86394 0.30634 0.07499 0.0
C1343 C 0.88302 0.32307 0.09247 0.0
C1344 C 0.88583 0.31672 0.02291 0.0
C1345 C 0.90378 0.33508 0.07496 0.0
C1346 C 0.90585 0.33144 0.9665 0.0
C1347 C 0.86362 0.3091 0.93476 0.0
N1348 N 0.90455 0.33203 0.04085 0.0
N1349 N 0.86562 0.30622 0.9684 0.0
H1350 H 0.57592 0.91418 0.09183 0.0
H1351 H 0.55289 0.84184 0.92222 0.0
H1352 H 0.54863 0.84148 0.08668 0.0
H1353 H 0.5731 0.91314 0.92191 0.0
H1354 H 0.5617 0.84438 0.98262 0.0
H1355 H 0.5847 0.91686 0.0307 0.0
C1356 C 0.57247 0.89893 0.07804 0.0
C1357 C 0.5614 0.87755 0.09406 0.0
C1358 C 0.56468 0.85966 0.96939 0.0
C1359 C 0.57113 0.8804 0.02459 0.0
C1360 C 0.55978 0.85821 0.93485 0.0
C1361 C 0.56223 0.87728 0.91727 0.0
C1362 C 0.57149 0.8802 0.98682 0.0
C1363 C 0.57112 0.89809 0.93469 0.0
C1364 C 0.5773 0.90043 0.04318 0.0
C1365 C 0.557 0.85825 0.07512 0.0
N1366 N 0.57499 0.89892 0.96879 0.0
N1367 N 0.56167 0.86011 0.04141 0.0
H1368 H 0.71514 0.546 0.08824 0.0
H1369 H 0.66809 0.57227 0.91939 0.0
H1370 H 0.66776 0.57094 0.08913 0.0
H1371 H 0.71245 0.54375 0.92369 0.0
H1372 H 0.67465 0.58105 0.98046 0.0
H1373 H 0.72178 0.55481 0.02788 0.0
C1374 C 0.70658 0.55391 0.07575 0.0
C1375 C 0.69086 0.5577 0.09348 0.0
C1376 C 0.68338 0.57339 0.96781 0.0
C1377 C 0.69757 0.56698 0.02396 0.0
C1378 C 0.67977 0.56856 0.93297 0.0
C1379 C 0.68961 0.55711 0.91674 0.0
C1380 C 0.69699 0.5668 0.98619 0.0
C1381 C 0.70438 0.55239 0.93543 0.0
C1382 C 0.71024 0.55882 0.04122 0.0
C1383 C 0.68011 0.56789 0.07623 0.0
N1384 N 0.70741 0.55702 0.96913 0.0
N1385 N 0.68327 0.57174 0.04214 0.0
H1386 H 0.17211 0.71654 0.92204 0.0
H1387 H 0.09974 0.66683 0.09121 0.0
H1388 H 0.1008 0.66534 0.92162 0.0
H1389 H 0.17214 0.71387 0.08651 0.0
H1390 H 0.09695 0.67293 0.03014 0.0
H1391 H 0.16942 0.7231 0.98229 0.0
C1392 C 0.15571 0.70709 0.93461 0.0
C1393 C 0.13668 0.69035 0.91706 0.0
C1394 C 0.11333 0.68235 0.0427 0.0
C1395 C 0.13358 0.69701 0.98644 0.0
C1396 C 0.11487 0.67901 0.07754 0.0
C1397 C 0.13623 0.68977 0.09365 0.0
C1398 C 0.13329 0.69661 0.02421 0.0
C1399 C 0.1554 0.70513 0.07487 0.0
C1400 C 0.15417 0.71071 0.96907 0.0
C1401 C 0.11582 0.67848 0.93439 0.0
N1402 N 0.15351 0.7079 0.04115 0.0
N1403 N 0.11492 0.68168 0.96842 0.0
H1404 H 0.8442 0.54957 0.58923 0.0
H1405 H 0.91643 0.57336 0.41963 0.0
H1406 H 0.9158 0.57097 0.58909 0.0
H1407 H 0.84354 0.54475 0.42497 0.0
H1408 H 0.91911 0.58274 0.48049 0.0
H1409 H 0.84648 0.55854 0.52891 0.0
C1410 C 0.86057 0.55675 0.57652 0.0
C1411 C 0.87981 0.55946 0.59392 0.0
C1412 C 0.90262 0.57496 0.46809 0.0
C1413 C 0.88245 0.56892 0.52449 0.0
C1414 C 0.90113 0.5698 0.43337 0.0
C1415 C 0.87971 0.55815 0.41751 0.0
C1416 C 0.88255 0.56851 0.48673 0.0
C1417 C 0.86034 0.55358 0.4364 0.0
C1418 C 0.86187 0.56175 0.54203 0.0
C1419 C 0.90062 0.56875 0.57643 0.0
N1420 N 0.8622 0.55855 0.47002 0.0
N1421 N 0.90131 0.5727 0.54237 0.0
H1422 H 0.35085 0.91594 0.59034 0.0
H1423 H 0.29925 0.84455 0.42074 0.0
H1424 H 0.30315 0.84371 0.58504 0.0
H1425 H 0.35237 0.91512 0.42078 0.0
H1426 H 0.29296 0.84737 0.48107 0.0
H1427 H 0.34463 0.91911 0.52942 0.0
C1428 C 0.33851 0.90093 0.57659 0.0
C1429 C 0.32758 0.8795 0.59248 0.0
C1430 C 0.3057 0.86245 0.46791 0.0
C1431 C 0.32058 0.88289 0.52321 0.0
C1432 C 0.30915 0.86085 0.4334 0.0
C1433 C 0.32635 0.87961 0.41597 0.0
C1434 C 0.32001 0.8828 0.48544 0.0
C1435 C 0.33884 0.90033 0.43345 0.0
C1436 C 0.3351 0.90269 0.54183 0.0
C1437 C 0.31202 0.86051 0.57357 0.0
N1438 N 0.33578 0.90126 0.46752 0.0
N1439 N 0.30916 0.86261 0.53995 0.0
H1440 H 0.43644 0.34403 0.5914 0.0
H1441 H 0.45969 0.29505 0.42206 0.0
H1442 H 0.46247 0.2976 0.58658 0.0
H1443 H 0.43914 0.34585 0.42205 0.0
H1444 H 0.45017 0.2881 0.48224 0.0
H1445 H 0.42731 0.33769 0.53042 0.0
C1446 C 0.43943 0.33187 0.57775 0.0
C1447 C 0.45027 0.32136 0.59382 0.0
C1448 C 0.44722 0.30044 0.46909 0.0
C1449 C 0.44029 0.3143 0.5244 0.0
C1450 C 0.4525 0.30425 0.43466 0.0
C1451 C 0.45016 0.32099 0.41725 0.0
C1452 C 0.44017 0.31396 0.48659 0.0
C1453 C 0.44099 0.33265 0.43467 0.0
C1454 C 0.43443 0.32842 0.54294 0.0
C1455 C 0.4542 0.30609 0.57501 0.0
N1456 N 0.43678 0.32927 0.46867 0.0
N1457 N 0.44945 0.30322 0.5413 0.0
H1458 H 0.17639 0.4659 0.58849 0.0
H1459 H 0.10323 0.44053 0.41979 0.0
H1460 H 0.10422 0.44197 0.58928 0.0
H1461 H 0.17596 0.46779 0.42401 0.0
H1462 H 0.10084 0.43154 0.48078 0.0
H1463 H 0.17404 0.45672 0.52825 0.0
C1464 C 0.1599 0.45812 0.57602 0.0
C1465 C 0.1405 0.45474 0.59368 0.0
C1466 C 0.11722 0.43894 0.46813 0.0
C1467 C 0.13774 0.44505 0.52427 0.0
C1468 C 0.11854 0.44388 0.43332 0.0
C1469 C 0.13985 0.45505 0.41711 0.0
C1470 C 0.13736 0.44517 0.48649 0.0
C1471 C 0.15924 0.45935 0.43573 0.0
C1472 C 0.15855 0.453 0.54156 0.0
C1473 C 0.11954 0.4447 0.57644 0.0
N1474 N 0.15756 0.45464 0.46942 0.0
N1475 N 0.11878 0.44067 0.54241 0.0
H1476 H 0.66895 0.09789 0.41977 0.0
H1477 H 0.71915 0.16917 0.58982 0.0
H1478 H 0.71606 0.17023 0.42541 0.0
H1479 H 0.66708 0.09819 0.58943 0.0
H1480 H 0.72563 0.16669 0.52948 0.0
H1481 H 0.67496 0.09472 0.48077 0.0
C1482 C 0.68112 0.11293 0.43362 0.0
C1483 C 0.69193 0.13438 0.41779 0.0
C1484 C 0.71308 0.15146 0.54255 0.0
C1485 C 0.6987 0.131 0.48716 0.0
C1486 C 0.70951 0.15287 0.57706 0.0
C1487 C 0.69255 0.13388 0.59441 0.0
C1488 C 0.69912 0.13105 0.52493 0.0
C1489 C 0.68041 0.11317 0.57682 0.0
C1490 C 0.68441 0.11117 0.46842 0.0
C1491 C 0.70728 0.15342 0.43682 0.0
N1492 N 0.68357 0.11239 0.54275 0.0
N1493 N 0.71002 0.15132 0.47049 0.0
H1494 H 0.5779 0.66623 0.41876 0.0
H1495 H 0.55284 0.71396 0.5881 0.0
H1496 H 0.55048 0.71152 0.42351 0.0
H1497 H 0.57503 0.66439 0.58853 0.0
H1498 H 0.56194 0.72066 0.52783 0.0
H1499 H 0.58642 0.67226 0.47994 0.0
C1500 C 0.5744 0.67802 0.43247 0.0
C1501 C 0.56334 0.68829 0.41631 0.0
C1502 C 0.56528 0.7086 0.54105 0.0
C1503 C 0.57272 0.69505 0.4859 0.0
C1504 C 0.5602 0.7049 0.57553 0.0
C1505 C 0.56313 0.68857 0.5931 0.0
C1506 C 0.57276 0.6954 0.52368 0.0
C1507 C 0.57264 0.67721 0.57575 0.0
C1508 C 0.57907 0.68131 0.46738 0.0
C1509 C 0.55885 0.70315 0.43517 0.0
N1510 N 0.57668 0.68047 0.54171 0.0
N1511 N 0.56333 0.70589 0.46894 0.0
H1512 H 0.53106 0.12585 0.1835 0.0
H1513 H 0.6088 0.12597 0.32716 0.0
H1514 H 0.5291 0.15493 0.27988 0.0
H1515 H 0.63979 0.1544 0.23047 0.0
H1516 H 0.57524 0.12854 0.31051 0.0
H1517 H 0.56714 0.12824 0.20007 0.0
C1518 C 0.53855 0.13322 0.20786 0.0
C1519 C 0.52786 0.14133 0.22973 0.0
C1520 C 0.58955 0.13451 0.29319 0.0
C1521 C 0.56805 0.1427 0.24953 0.0
C1522 C 0.6087 0.13324 0.30271 0.0
C1523 C 0.62746 0.14112 0.28078 0.0
C1524 C 0.58874 0.14265 0.26087 0.0
C1525 C 0.62589 0.14884 0.24842 0.0
C1526 C 0.55895 0.13439 0.21732 0.0
C1527 C 0.5373 0.14919 0.26198 0.0
N1528 N 0.60674 0.14935 0.23929 0.0
N1529 N 0.55692 0.14961 0.27106 0.0
H1530 H 0.49013 0.60429 0.32507 0.0
H1531 H 0.41315 0.52517 0.18168 0.0
H1532 H 0.49344 0.63475 0.22766 0.0
H1533 H 0.38164 0.52493 0.27684 0.0
H1534 H 0.44707 0.56129 0.19789 0.0
H1535 H 0.45426 0.57051 0.30805 0.0
C1536 C 0.48298 0.60402 0.30036 0.0
C1537 C 0.49398 0.62271 0.27835 0.0
C1538 C 0.43257 0.55344 0.21494 0.0
C1539 C 0.45404 0.58373 0.25803 0.0
C1540 C 0.41323 0.53304 0.20566 0.0
C1541 C 0.39424 0.52283 0.22726 0.0
C1542 C 0.43327 0.56301 0.24673 0.0
C1543 C 0.39573 0.53275 0.2591 0.0
C1544 C 0.46272 0.58474 0.29063 0.0
C1545 C 0.48499 0.62091 0.24568 0.0
N1546 N 0.41501 0.55233 0.26802 0.0
N1547 N 0.46547 0.60165 0.23636 0.0
H1548 H 0.86248 0.4868 0.23087 0.0
H1549 H 0.86458 0.37494 0.28092 0.0
H1550 H 0.89142 0.48315 0.32647 0.0
H1551 H 0.89066 0.40657 0.18377 0.0
H1552 H 0.86348 0.40923 0.29894 0.0
H1553 H 0.86186 0.45165 0.21275 0.0
C1554 C 0.86826 0.47832 0.24822 0.0
C1555 C 0.87599 0.48714 0.28079 0.0
C1556 C 0.86889 0.40832 0.27343 0.0
C1557 C 0.87511 0.44724 0.26054 0.0
C1558 C 0.86954 0.38888 0.2632 0.0
C1559 C 0.87665 0.38759 0.23028 0.0
C1560 C 0.87519 0.42634 0.25043 0.0
C1561 C 0.88381 0.40643 0.20866 0.0
C1562 C 0.86788 0.45837 0.23793 0.0
C1563 C 0.88414 0.47611 0.30191 0.0
N1564 N 0.88256 0.42494 0.21887 0.0
N1565 N 0.88315 0.45647 0.29167 0.0
H1566 H 0.49275 0.85805 0.28393 0.0
H1567 H 0.4104 0.88749 0.32987 0.0
H1568 H 0.48844 0.88753 0.18921 0.0
H1569 H 0.38159 0.85894 0.23221 0.0
H1570 H 0.44431 0.885 0.3156 0.0
H1571 H 0.45722 0.85649 0.30253 0.0
C1572 C 0.48411 0.86386 0.26696 0.0
C1573 C 0.49287 0.87207 0.23453 0.0
C1574 C 0.43038 0.87888 0.29759 0.0
C1575 C 0.45275 0.8705 0.25545 0.0
C1576 C 0.41102 0.88015 0.30573 0.0
C1577 C 0.39277 0.87226 0.28284 0.0
C1578 C 0.43185 0.87053 0.26571 0.0
C1579 C 0.39506 0.86449 0.25091 0.0
C1580 C 0.46397 0.863 0.27752 0.0
C1581 C 0.48156 0.8801 0.21379 0.0
N1582 N 0.41438 0.86391 0.24314 0.0
N1583 N 0.46185 0.87882 0.22437 0.0
H1584 H 0.60436 0.48591 0.18593 0.0
H1585 H 0.52629 0.40878 0.32976 0.0
H1586 H 0.63644 0.48744 0.28115 0.0
H1587 H 0.52537 0.3771 0.23445 0.0
H1588 H 0.56234 0.44265 0.31307 0.0
H1589 H 0.57023 0.45051 0.20367 0.0
C1590 C 0.60432 0.47849 0.21031 0.0
C1591 C 0.62356 0.48876 0.23142 0.0
C1592 C 0.55434 0.42812 0.29611 0.0
C1593 C 0.58432 0.44944 0.25259 0.0
C1594 C 0.53401 0.40881 0.30566 0.0
C1595 C 0.52364 0.38978 0.28414 0.0
C1596 C 0.56365 0.42876 0.26412 0.0
C1597 C 0.53332 0.39122 0.25212 0.0
C1598 C 0.58486 0.45852 0.22045 0.0
C1599 C 0.62214 0.47951 0.26378 0.0
N1600 N 0.55283 0.41048 0.24293 0.0
N1601 N 0.60275 0.46027 0.27352 0.0
H1602 H 0.12712 0.60597 0.18386 0.0
H1603 H 0.12845 0.52864 0.32729 0.0
H1604 H 0.1553 0.63688 0.28069 0.0
H1605 H 0.15733 0.5271 0.23051 0.0
H1606 H 0.13017 0.56443 0.31088 0.0
H1607 H 0.13005 0.57259 0.20035 0.0
C1608 C 0.13439 0.60589 0.20833 0.0
C1609 C 0.1421 0.62458 0.23034 0.0
C1610 C 0.13642 0.55639 0.29349 0.0
C1611 C 0.14409 0.58608 0.25003 0.0
C1612 C 0.13563 0.53616 0.30287 0.0
C1613 C 0.14388 0.52568 0.28084 0.0
C1614 C 0.14448 0.56553 0.26122 0.0
C1615 C 0.15148 0.53514 0.24854 0.0
C1616 C 0.13587 0.58684 0.21774 0.0
C1617 C 0.14986 0.62303 0.26268 0.0
N1618 N 0.15154 0.55459 0.23955 0.0
N1619 N 0.1506 0.604 0.2717 0.0
H1620 H 0.4879 0.88666 0.82679 0.0
H1621 H 0.41071 0.88742 0.683 0.0
H1622 H 0.49015 0.85804 0.73015 0.0
H1623 H 0.37947 0.85871 0.77945 0.0
H1624 H 0.44413 0.8846 0.69963 0.0
H1625 H 0.45189 0.88438 0.81013 0.0
C1626 C 0.48048 0.87941 0.80235 0.0
C1627 C 0.49124 0.8714 0.78043 0.0
C1628 C 0.4298 0.87862 0.71689 0.0
C1629 C 0.45113 0.87016 0.76052 0.0
C1630 C 0.41072 0.88003 0.70739 0.0
C1631 C 0.39193 0.87216 0.72926 0.0
C1632 C 0.43049 0.87032 0.74914 0.0
C1633 C 0.3934 0.86428 0.76154 0.0
C1634 C 0.46013 0.87829 0.79283 0.0
C1635 C 0.4819 0.8637 0.74809 0.0
N1636 N 0.41247 0.86363 0.77067 0.0
N1637 N 0.46232 0.86334 0.73895 0.0
H1638 H 0.63671 0.48868 0.72683 0.0
H1639 H 0.5233 0.37627 0.77848 0.0
H1640 H 0.60572 0.48352 0.8244 0.0
H1641 H 0.52738 0.40834 0.68224 0.0
H1642 H 0.55915 0.4103 0.79575 0.0
H1643 H 0.60186 0.45371 0.70883 0.0
C1644 C 0.62278 0.47988 0.74463 0.0
C1645 C 0.62441 0.48825 0.77767 0.0
C1646 C 0.55238 0.40959 0.7706 0.0
C1647 C 0.58502 0.44853 0.75754 0.0
C1648 C 0.53203 0.39029 0.76079 0.0
C1649 C 0.52307 0.38918 0.72833 0.0
C1650 C 0.56381 0.42771 0.74767 0.0
C1651 C 0.53448 0.4081 0.70677 0.0
C1652 C 0.60302 0.46004 0.73441 0.0
C1653 C 0.60559 0.47683 0.7994 0.0
N1654 N 0.5545 0.42651 0.71658 0.0
N1655 N 0.58678 0.45731 0.78919 0.0
H1656 H 0.15564 0.63828 0.7292 0.0
H1657 H 0.15697 0.52606 0.78004 0.0
H1658 H 0.12939 0.60677 0.82637 0.0
H1659 H 0.12886 0.53014 0.68388 0.0
H1660 H 0.15782 0.56136 0.79796 0.0
H1661 H 0.1568 0.60398 0.71142 0.0
C1662 C 0.15065 0.62436 0.74698 0.0
C1663 C 0.14347 0.62568 0.77983 0.0
C1664 C 0.15192 0.55469 0.77271 0.0
C1665 C 0.14495 0.58691 0.75993 0.0
C1666 C 0.15141 0.53466 0.76254 0.0
C1667 C 0.14385 0.52591 0.72988 0.0
C1668 C 0.14497 0.56596 0.74992 0.0
C1669 C 0.136 0.53711 0.70855 0.0
C1670 C 0.15133 0.60492 0.73687 0.0
C1671 C 0.13627 0.60688 0.80153 0.0
N1672 N 0.13709 0.55681 0.71869 0.0
N1673 N 0.13753 0.58835 0.79143 0.0
H1674 H 0.6086 0.12496 0.68392 0.0
H1675 H 0.53063 0.12557 0.82687 0.0
H1676 H 0.63927 0.15364 0.78067 0.0
H1677 H 0.52868 0.154 0.72991 0.0
H1678 H 0.56666 0.12776 0.81058 0.0
H1679 H 0.57496 0.12754 0.70012 0.0
C1680 C 0.60841 0.13228 0.7083 0.0
C1681 C 0.62711 0.14022 0.73037 0.0
C1682 C 0.55848 0.13381 0.79312 0.0
C1683 C 0.58831 0.14179 0.74976 0.0
C1684 C 0.53811 0.13274 0.80242 0.0
C1685 C 0.52743 0.14074 0.78032 0.0
C1686 C 0.56758 0.14188 0.76084 0.0
C1687 C 0.53686 0.14835 0.74799 0.0
C1688 C 0.58921 0.13356 0.71755 0.0
C1689 C 0.62542 0.14802 0.76261 0.0
N1690 N 0.55646 0.14868 0.73908 0.0
N1691 N 0.60625 0.14855 0.77148 0.0
H1692 H 0.41465 0.52423 0.82769 0.0
H1693 H 0.48944 0.60427 0.68353 0.0
H1694 H 0.38124 0.52384 0.73436 0.0
H1695 H 0.49226 0.6344 0.78106 0.0
H1696 H 0.45407 0.56996 0.70076 0.0
H1697 H 0.4483 0.56026 0.81031 0.0
C1698 C 0.41431 0.53201 0.80382 0.0
C1699 C 0.39485 0.52187 0.78316 0.0
C1700 C 0.46231 0.58424 0.71814 0.0
C1701 C 0.43345 0.56195 0.76243 0.0
C1702 C 0.48226 0.60383 0.70828 0.0
C1703 C 0.49296 0.62256 0.73029 0.0
C1704 C 0.45375 0.58297 0.75089 0.0
C1705 C 0.48401 0.62054 0.76304 0.0
C1706 C 0.43347 0.55235 0.7939 0.0
C1707 C 0.39573 0.53164 0.75141 0.0
N1708 N 0.46488 0.60097 0.77251 0.0
N1709 N 0.4148 0.55123 0.74189 0.0
H1710 H 0.86419 0.37663 0.72788 0.0
H1711 H 0.86208 0.48827 0.78136 0.0
H1712 H 0.89031 0.40777 0.8253 0.0
H1713 H 0.88931 0.48453 0.68424 0.0
H1714 H 0.8614 0.4529 0.79844 0.0
H1715 H 0.86235 0.41071 0.71079 0.0
C1716 C 0.86906 0.39044 0.74583 0.0
C1717 C 0.87639 0.38906 0.77856 0.0
C1718 C 0.86702 0.45963 0.77315 0.0
C1719 C 0.87416 0.42759 0.75946 0.0
C1720 C 0.86743 0.47971 0.76346 0.0
C1721 C 0.87474 0.4886 0.73081 0.0
C1722 C 0.87381 0.44846 0.74989 0.0
C1723 C 0.88237 0.47746 0.70894 0.0
C1724 C 0.868 0.40976 0.73613 0.0
C1725 C 0.88338 0.40771 0.80051 0.0
N1726 N 0.88138 0.45773 0.71864 0.0
N1727 N 0.88177 0.42611 0.7908 0.0
loop_
_geom_bond_atom_site_label_1
_geom_bond_atom_site_label_2
_geom_bond_distance
_geom_bond_site_symmetry_2
_ccdc_geom_bond_type
Mn0 O5 2.095 . S
Mn0 O15 2.162 . S
Mn0 O16 2.297 . S
Mn0 O24 2.385 . S
Mn0 O25 2.209 . S
Mn0 O26 2.094 . S
Mn1 O6 2.121 . S
Mn1 N8 2.257 . S
Mn1 N17 2.282 . S
Mn1 O25 2.215 . S
Mn1 O27 2.117 . S
C2 O24 1.234 . S
C2 O25 1.283 . S
C3 O15 1.281 . S
C3 O16 1.236 . S
C4 O26 1.240 . S
C4 O27 1.264 . S
O5 Mn0 2.095 . S
O5 C14 1.250 . S
O6 Mn1 2.121 . S
O6 C14 1.258 . S
C7 N8 1.326 . S
C7 C11 1.460 . S
C7 H13 0.929 . S
N8 Mn1 2.257 . S
N8 C7 1.326 . S
N8 C12 1.362 . S
C9 C10 1.258 . S
C9 C12 1.431 . S
C9 C29 1.449 . S
C10 C9 1.258 . S
C10 C11 1.477 . S
C10 H30 0.931 . S
C11 C7 1.460 . S
C11 C10 1.477 . S
C11 H31 0.930 . S
C12 N8 1.362 . S
C12 C9 1.431 . S
C12 C22 1.476 . S
H13 C7 0.929 . S
C14 O5 1.250 . S
C14 O6 1.258 . S
O15 Mn0 2.162 . S
O15 C3 1.281 . S
O16 Mn0 2.297 . S
O16 C3 1.236 . S
N17 Mn1 2.282 . S
N17 C18 1.328 . S
N17 C22 1.318 . S
C18 N17 1.328 . S
C18 C19 1.457 . S
C18 H23 0.929 . S
C19 C18 1.457 . S
C19 C20 1.291 . S
C19 H32 0.931 . S
C20 C19 1.291 . S
C20 C21 1.373 . S
C20 H33 0.929 . S
C21 C20 1.373 . S
C21 C22 1.396 . S
C21 C28 1.403 . S
C22 C12 1.476 . S
C22 N17 1.318 . S
C22 C21 1.396 . S
H23 C18 0.929 . S
O24 Mn0 2.385 . S
O24 C2 1.234 . S
O25 Mn0 2.209 . S
O25 Mn1 2.215 . S
O25 C2 1.283 . S
O26 Mn0 2.094 . S
O26 C4 1.240 . S
O27 Mn1 2.117 . S
O27 C4 1.264 . S
C28 C21 1.403 . S
C28 C29 1.399 . S
C28 H34 0.929 . S
C29 C9 1.449 . S
C29 C28 1.399 . S
C29 H35 0.930 . S
H30 C10 0.931 . S
H31 C11 0.930 . S
H32 C19 0.931 . S
H33 C20 0.929 . S
H34 C28 0.929 . S
H35 C29 0.930 . S
Mn36 O41 2.095 . S
Mn36 O51 2.162 . S
Mn36 O52 2.297 . S
Mn36 O60 2.385 . S
Mn36 O61 2.209 . S
Mn36 O62 2.094 . S
Mn37 O42 2.121 . S
Mn37 N44 2.257 . S
Mn37 N53 2.282 . S
Mn37 O61 2.215 . S
Mn37 O63 2.117 . S
C38 O60 1.234 . S
C38 O61 1.283 . S
C39 O51 1.281 . S
C39 O52 1.236 . S
C40 O62 1.240 . S
C40 O63 1.264 . S
O41 Mn36 2.095 . S
O41 C50 1.250 . S
O42 Mn37 2.121 . S
O42 C50 1.258 . S
C43 N44 1.326 . S
C43 C47 1.460 . S
C43 H49 0.929 . S
N44 Mn37 2.257 . S
N44 C43 1.326 . S
N44 C48 1.362 . S
C45 C46 1.258 . S
C45 C48 1.431 . S
C45 C65 1.449 . S
C46 C45 1.258 . S
C46 C47 1.477 . S
C46 H66 0.931 . S
C47 C43 1.460 . S
C47 C46 1.477 . S
C47 H67 0.930 . S
C48 N44 1.362 . S
C48 C45 1.431 . S
C48 C58 1.476 . S
H49 C43 0.929 . S
C50 O41 1.250 . S
C50 O42 1.258 . S
O51 Mn36 2.162 . S
O51 C39 1.281 . S
O52 Mn36 2.297 . S
O52 C39 1.236 . S
N53 Mn37 2.282 . S
N53 C54 1.328 . S
N53 C58 1.318 . S
C54 N53 1.328 . S
C54 C55 1.457 . S
C54 H59 0.929 . S
C55 C54 1.457 . S
C55 C56 1.291 . S
C55 H68 0.931 . S
C56 C55 1.291 . S
C56 C57 1.373 . S
C56 H69 0.929 . S
C57 C56 1.373 . S
C57 C58 1.396 . S
C57 C64 1.403 . S
C58 C48 1.476 . S
C58 N53 1.318 . S
C58 C57 1.396 . S
H59 C54 0.929 . S
O60 Mn36 2.385 . S
O60 C38 1.234 . S
O61 Mn36 2.209 . S
O61 Mn37 2.215 . S
O61 C38 1.283 . S
O62 Mn36 2.094 . S
O62 C40 1.240 . S
O63 Mn37 2.117 . S
O63 C40 1.264 . S
C64 C57 1.403 . S
C64 C65 1.399 . S
C64 H70 0.929 . S
C65 C45 1.449 . S
C65 C64 1.399 . S
C65 H71 0.930 . S
H66 C46 0.931 . S
H67 C47 0.930 . S
H68 C55 0.931 . S
H69 C56 0.929 . S
H70 C64 0.929 . S
H71 C65 0.930 . S
Mn72 O77 2.095 . S
Mn72 O87 2.162 . S
Mn72 O88 2.297 . S
Mn72 O96 2.385 . S
Mn72 O97 2.209 . S
Mn72 O98 2.094 . S
Mn73 O78 2.121 . S
Mn73 N80 2.257 . S
Mn73 N89 2.282 . S
Mn73 O97 2.215 . S
Mn73 O99 2.117 . S
C74 O96 1.234 . S
C74 O97 1.283 . S
C75 O87 1.281 . S
C75 O88 1.236 . S
C76 O98 1.240 . S
C76 O99 1.264 . S
O77 Mn72 2.095 . S
O77 C86 1.250 . S
O78 Mn73 2.121 . S
O78 C86 1.258 . S
C79 N80 1.326 . S
C79 C83 1.460 . S
C79 H85 0.929 . S
N80 Mn73 2.257 . S
N80 C79 1.326 . S
N80 C84 1.362 . S
C81 C82 1.258 . S
C81 C84 1.431 . S
C81 C101 1.449 . S
C82 C81 1.258 . S
C82 C83 1.477 . S
C82 H102 0.931 . S
C83 C79 1.460 . S
C83 C82 1.477 . S
C83 H103 0.930 . S
C84 N80 1.362 . S
C84 C81 1.431 . S
C84 C94 1.476 . S
H85 C79 0.929 . S
C86 O77 1.250 . S
C86 O78 1.258 . S
O87 Mn72 2.162 . S
O87 C75 1.281 . S
O88 Mn72 2.297 . S
O88 C75 1.236 . S
N89 Mn73 2.282 . S
N89 C90 1.328 . S
N89 C94 1.318 . S
C90 N89 1.328 . S
C90 C91 1.457 . S
C90 H95 0.929 . S
C91 C90 1.457 . S
C91 C92 1.291 . S
C91 H104 0.931 . S
C92 C91 1.291 . S
C92 C93 1.373 . S
C92 H105 0.929 . S
C93 C92 1.373 . S
C93 C94 1.396 . S
C93 C100 1.403 . S
C94 C84 1.476 . S
C94 N89 1.318 . S
C94 C93 1.396 . S
H95 C90 0.929 . S
O96 Mn72 2.385 . S
O96 C74 1.234 . S
O97 Mn72 2.209 . S
O97 Mn73 2.215 . S
O97 C74 1.283 . S
O98 Mn72 2.094 . S
O98 C76 1.240 . S
O99 Mn73 2.117 . S
O99 C76 1.264 . S
C100 C93 1.403 . S
C100 C101 1.399 . S
C100 H106 0.929 . S
C101 C81 1.449 . S
C101 C100 1.399 . S
C101 H107 0.930 . S
H102 C82 0.931 . S
H103 C83 0.930 . S
H104 C91 0.931 . S
H105 C92 0.929 . S
H106 C100 0.929 . S
H107 C101 0.930 . S
Mn108 O113 2.095 . S
Mn108 O123 2.162 . S
Mn108 O124 2.297 . S
Mn108 O132 2.385 . S
Mn108 O133 2.209 . S
Mn108 O134 2.094 . S
Mn109 O114 2.121 . S
Mn109 N116 2.257 . S
Mn109 N125 2.282 . S
Mn109 O133 2.215 . S
Mn109 O135 2.117 . S
C110 O132 1.234 . S
C110 O133 1.283 . S
C111 O123 1.281 . S
C111 O124 1.236 . S
C112 O134 1.240 . S
C112 O135 1.264 . S
O113 Mn108 2.095 . S
O113 C122 1.250 . S
O114 Mn109 2.121 . S
O114 C122 1.258 . S
C115 N116 1.326 . S
C115 C119 1.460 . S
C115 H121 0.929 . S
N116 Mn109 2.257 . S
N116 C115 1.326 . S
N116 C120 1.362 . S
C117 C118 1.258 . S
C117 C120 1.431 . S
C117 C137 1.449 . S
C118 C117 1.258 . S
C118 C119 1.477 . S
C118 H138 0.931 . S
C119 C115 1.460 . S
C119 C118 1.477 . S
C119 H139 0.930 . S
C120 N116 1.362 . S
C120 C117 1.431 . S
C120 C130 1.476 . S
H121 C115 0.929 . S
C122 O113 1.250 . S
C122 O114 1.258 . S
O123 Mn108 2.162 . S
O123 C111 1.281 . S
O124 Mn108 2.297 . S
O124 C111 1.236 . S
N125 Mn109 2.282 . S
N125 C126 1.328 . S
N125 C130 1.318 . S
C126 N125 1.328 . S
C126 C127 1.457 . S
C126 H131 0.929 . S
C127 C126 1.457 . S
C127 C128 1.291 . S
C127 H140 0.931 . S
C128 C127 1.291 . S
C128 C129 1.373 . S
C128 H141 0.929 . S
C129 C128 1.373 . S
C129 C130 1.396 . S
C129 C136 1.403 . S
C130 C120 1.476 . S
C130 N125 1.318 . S
C130 C129 1.396 . S
H131 C126 0.929 . S
O132 Mn108 2.385 . S
O132 C110 1.234 . S
O133 Mn108 2.209 . S
O133 Mn109 2.215 . S
O133 C110 1.283 . S
O134 Mn108 2.094 . S
O134 C112 1.240 . S
O135 Mn109 2.117 . S
O135 C112 1.264 . S
C136 C129 1.403 . S
C136 C137 1.399 . S
C136 H142 0.929 . S
C137 C117 1.449 . S
C137 C136 1.399 . S
C137 H143 0.930 . S
H138 C118 0.931 . S
H139 C119 0.930 . S
H140 C127 0.931 . S
H141 C128 0.929 . S
H142 C136 0.929 . S
H143 C137 0.930 . S
Mn144 O149 2.095 . S
Mn144 O159 2.162 . S
Mn144 O160 2.297 . S
Mn144 O168 2.385 . S
Mn144 O169 2.209 . S
Mn144 O170 2.094 . S
Mn145 O150 2.121 . S
Mn145 N152 2.257 . S
Mn145 N161 2.282 . S
Mn145 O169 2.215 . S
Mn145 O171 2.117 . S
C146 O168 1.234 . S
C146 O169 1.283 . S
C147 O159 1.281 . S
C147 O160 1.236 . S
C148 O170 1.240 . S
C148 O171 1.264 . S
O149 Mn144 2.095 . S
O149 C158 1.250 . S
O150 Mn145 2.121 . S
O150 C158 1.258 . S
C151 N152 1.326 . S
C151 C155 1.460 . S
C151 H157 0.929 . S
N152 Mn145 2.257 . S
N152 C151 1.326 . S
N152 C156 1.362 . S
C153 C154 1.258 . S
C153 C156 1.431 . S
C153 C173 1.449 . S
C154 C153 1.258 . S
C154 C155 1.477 . S
C154 H174 0.931 . S
C155 C151 1.460 . S
C155 C154 1.477 . S
C155 H175 0.930 . S
C156 N152 1.362 . S
C156 C153 1.431 . S
C156 C166 1.476 . S
H157 C151 0.929 . S
C158 O149 1.250 . S
C158 O150 1.258 . S
O159 Mn144 2.162 . S
O159 C147 1.281 . S
O160 Mn144 2.297 . S
O160 C147 1.236 . S
N161 Mn145 2.282 . S
N161 C162 1.328 . S
N161 C166 1.318 . S
C162 N161 1.328 . S
C162 C163 1.457 . S
C162 H167 0.929 . S
C163 C162 1.457 . S
C163 C164 1.291 . S
C163 H176 0.931 . S
C164 C163 1.291 . S
C164 C165 1.373 . S
C164 H177 0.929 . S
C165 C164 1.373 . S
C165 C166 1.396 . S
C165 C172 1.403 . S
C166 C156 1.476 . S
C166 N161 1.318 . S
C166 C165 1.396 . S
H167 C162 0.929 . S
O168 Mn144 2.385 . S
O168 C146 1.234 . S
O169 Mn144 2.209 . S
O169 Mn145 2.215 . S
O169 C146 1.283 . S
O170 Mn144 2.094 . S
O170 C148 1.240 . S
O171 Mn145 2.117 . S
O171 C148 1.264 . S
C172 C165 1.403 . S
C172 C173 1.399 . S
C172 H178 0.929 . S
C173 C153 1.449 . S
C173 C172 1.399 . S
C173 H179 0.930 . S
H174 C154 0.931 . S
H175 C155 0.930 . S
H176 C163 0.931 . S
H177 C164 0.929 . S
H178 C172 0.929 . S
H179 C173 0.930 . S
Mn180 O185 2.095 . S
Mn180 O195 2.162 . S
Mn180 O196 2.297 . S
Mn180 O204 2.385 . S
Mn180 O205 2.209 . S
Mn180 O206 2.094 . S
Mn181 O186 2.121 . S
Mn181 N188 2.257 . S
Mn181 N197 2.282 . S
Mn181 O205 2.215 . S
Mn181 O207 2.117 . S
C182 O204 1.234 . S
C182 O205 1.283 . S
C183 O195 1.281 . S
C183 O196 1.236 . S
C184 O206 1.240 . S
C184 O207 1.264 . S
O185 Mn180 2.095 . S
O185 C194 1.250 . S
O186 Mn181 2.121 . S
O186 C194 1.258 . S
C187 N188 1.326 . S
C187 C191 1.460 . S
C187 H193 0.929 . S
N188 Mn181 2.257 . S
N188 C187 1.326 . S
N188 C192 1.362 . S
C189 C190 1.258 . S
C189 C192 1.431 . S
C189 C209 1.449 . S
C190 C189 1.258 . S
C190 C191 1.477 . S
C190 H210 0.931 . S
C191 C187 1.460 . S
C191 C190 1.477 . S
C191 H211 0.930 . S
C192 N188 1.362 . S
C192 C189 1.431 . S
C192 C202 1.476 . S
H193 C187 0.929 . S
C194 O185 1.250 . S
C194 O186 1.258 . S
O195 Mn180 2.162 . S
O195 C183 1.281 . S
O196 Mn180 2.297 . S
O196 C183 1.236 . S
N197 Mn181 2.282 . S
N197 C198 1.328 . S
N197 C202 1.318 . S
C198 N197 1.328 . S
C198 C199 1.457 . S
C198 H203 0.929 . S
C199 C198 1.457 . S
C199 C200 1.291 . S
C199 H212 0.931 . S
C200 C199 1.291 . S
C200 C201 1.373 . S
C200 H213 0.929 . S
C201 C200 1.373 . S
C201 C202 1.396 . S
C201 C208 1.403 . S
C202 C192 1.476 . S
C202 N197 1.318 . S
C202 C201 1.396 . S
H203 C198 0.929 . S
O204 Mn180 2.385 . S
O204 C182 1.234 . S
O205 Mn180 2.209 . S
O205 Mn181 2.215 . S
O205 C182 1.283 . S
O206 Mn180 2.094 . S
O206 C184 1.240 . S
O207 Mn181 2.117 . S
O207 C184 1.264 . S
C208 C201 1.403 . S
C208 C209 1.399 . S
C208 H214 0.929 . S
C209 C189 1.449 . S
C209 C208 1.399 . S
C209 H215 0.930 . S
H210 C190 0.931 . S
H211 C191 0.930 . S
H212 C199 0.931 . S
H213 C200 0.929 . S
H214 C208 0.929 . S
H215 C209 0.930 . S
Mn216 O221 2.095 . S
Mn216 O231 2.162 . S
Mn216 O232 2.297 . S
Mn216 O240 2.385 . S
Mn216 O241 2.209 . S
Mn216 O242 2.094 . S
Mn217 O222 2.121 . S
Mn217 N224 2.257 . S
Mn217 N233 2.282 . S
Mn217 O241 2.215 . S
Mn217 O243 2.117 . S
C218 O240 1.234 . S
C218 O241 1.283 . S
C219 O231 1.281 . S
C219 O232 1.236 . S
C220 O242 1.240 . S
C220 O243 1.264 . S
O221 Mn216 2.095 . S
O221 C230 1.250 . S
O222 Mn217 2.121 . S
O222 C230 1.258 . S
C223 N224 1.326 . S
C223 C227 1.460 . S
C223 H229 0.929 . S
N224 Mn217 2.257 . S
N224 C223 1.326 . S
N224 C228 1.362 . S
C225 C226 1.258 . S
C225 C228 1.431 . S
C225 C245 1.449 . S
C226 C225 1.258 . S
C226 C227 1.477 . S
C226 H246 0.931 . S
C227 C223 1.460 . S
C227 C226 1.477 . S
C227 H247 0.930 . S
C228 N224 1.362 . S
C228 C225 1.431 . S
C228 C238 1.476 . S
H229 C223 0.929 . S
C230 O221 1.250 . S
C230 O222 1.258 . S
O231 Mn216 2.162 . S
O231 C219 1.281 . S
O232 Mn216 2.297 . S
O232 C219 1.236 . S
N233 Mn217 2.282 . S
N233 C234 1.328 . S
N233 C238 1.318 . S
C234 N233 1.328 . S
C234 C235 1.457 . S
C234 H239 0.929 . S
C235 C234 1.457 . S
C235 C236 1.291 . S
C235 H248 0.931 . S
C236 C235 1.291 . S
C236 C237 1.373 . S
C236 H249 0.929 . S
C237 C236 1.373 . S
C237 C238 1.396 . S
C237 C244 1.403 . S
C238 C228 1.476 . S
C238 N233 1.318 . S
C238 C237 1.396 . S
H239 C234 0.929 . S
O240 Mn216 2.385 . S
O240 C218 1.234 . S
O241 Mn216 2.209 . S
O241 Mn217 2.215 . S
O241 C218 1.283 . S
O242 Mn216 2.094 . S
O242 C220 1.240 . S
O243 Mn217 2.117 . S
O243 C220 1.264 . S
C244 C237 1.403 . S
C244 C245 1.399 . S
C244 H250 0.929 . S
C245 C225 1.449 . S
C245 C244 1.399 . S
C245 H251 0.930 . S
H246 C226 0.931 . S
H247 C227 0.930 . S
H248 C235 0.931 . S
H249 C236 0.929 . S
H250 C244 0.929 . S
H251 C245 0.930 . S
Mn252 O257 2.095 . S
Mn252 O267 2.162 . S
Mn252 O268 2.297 . S
Mn252 O276 2.385 . S
Mn252 O277 2.209 . S
Mn252 O278 2.094 . S
Mn253 O258 2.121 . S
Mn253 N260 2.257 . S
Mn253 N269 2.282 . S
Mn253 O277 2.215 . S
Mn253 O279 2.117 . S
C254 O276 1.234 . S
C254 O277 1.283 . S
C255 O267 1.281 . S
C255 O268 1.236 . S
C256 O278 1.240 . S
C256 O279 1.264 . S
O257 Mn252 2.095 . S
O257 C266 1.250 . S
O258 Mn253 2.121 . S
O258 C266 1.258 . S
C259 N260 1.326 . S
C259 C263 1.460 . S
C259 H265 0.929 . S
N260 Mn253 2.257 . S
N260 C259 1.326 . S
N260 C264 1.362 . S
C261 C262 1.258 . S
C261 C264 1.431 . S
C261 C281 1.449 . S
C262 C261 1.258 . S
C262 C263 1.477 . S
C262 H282 0.931 . S
C263 C259 1.460 . S
C263 C262 1.477 . S
C263 H283 0.930 . S
C264 N260 1.362 . S
C264 C261 1.431 . S
C264 C274 1.476 . S
H265 C259 0.929 . S
C266 O257 1.250 . S
C266 O258 1.258 . S
O267 Mn252 2.162 . S
O267 C255 1.281 . S
O268 Mn252 2.297 . S
O268 C255 1.236 . S
N269 Mn253 2.282 . S
N269 C270 1.328 . S
N269 C274 1.318 . S
C270 N269 1.328 . S
C270 C271 1.457 . S
C270 H275 0.929 . S
C271 C270 1.457 . S
C271 C272 1.291 . S
C271 H284 0.931 . S
C272 C271 1.291 . S
C272 C273 1.373 . S
C272 H285 0.929 . S
C273 C272 1.373 . S
C273 C274 1.396 . S
C273 C280 1.403 . S
C274 C264 1.476 . S
C274 N269 1.318 . S
C274 C273 1.396 . S
H275 C270 0.929 . S
O276 Mn252 2.385 . S
O276 C254 1.234 . S
O277 Mn252 2.209 . S
O277 Mn253 2.215 . S
O277 C254 1.283 . S
O278 Mn252 2.094 . S
O278 C256 1.240 . S
O279 Mn253 2.117 . S
O279 C256 1.264 . S
C280 C273 1.403 . S
C280 C281 1.399 . S
C280 H286 0.929 . S
C281 C261 1.449 . S
C281 C280 1.399 . S
C281 H287 0.930 . S
H282 C262 0.931 . S
H283 C263 0.930 . S
H284 C271 0.931 . S
H285 C272 0.929 . S
H286 C280 0.929 . S
H287 C281 0.930 . S
Mn288 O293 2.095 . S
Mn288 O303 2.162 . S
Mn288 O304 2.297 . S
Mn288 O312 2.385 . S
Mn288 O313 2.209 . S
Mn288 O314 2.094 . S
Mn289 O294 2.121 . S
Mn289 N296 2.257 . S
Mn289 N305 2.282 . S
Mn289 O313 2.215 . S
Mn289 O315 2.117 . S
C290 O312 1.234 . S
C290 O313 1.283 . S
C291 O303 1.281 . S
C291 O304 1.236 . S
C292 O314 1.240 . S
C292 O315 1.264 . S
O293 Mn288 2.095 . S
O293 C302 1.250 . S
O294 Mn289 2.121 . S
O294 C302 1.258 . S
C295 N296 1.326 . S
C295 C299 1.460 . S
C295 H301 0.929 . S
N296 Mn289 2.257 . S
N296 C295 1.326 . S
N296 C300 1.362 . S
C297 C298 1.258 . S
C297 C300 1.431 . S
C297 C317 1.449 . S
C298 C297 1.258 . S
C298 C299 1.477 . S
C298 H318 0.931 . S
C299 C295 1.460 . S
C299 C298 1.477 . S
C299 H319 0.930 . S
C300 N296 1.362 . S
C300 C297 1.431 . S
C300 C310 1.476 . S
H301 C295 0.929 . S
C302 O293 1.250 . S
C302 O294 1.258 . S
O303 Mn288 2.162 . S
O303 C291 1.281 . S
O304 Mn288 2.297 . S
O304 C291 1.236 . S
N305 Mn289 2.282 . S
N305 C306 1.328 . S
N305 C310 1.318 . S
C306 N305 1.328 . S
C306 C307 1.457 . S
C306 H311 0.929 . S
C307 C306 1.457 . S
C307 C308 1.291 . S
C307 H320 0.931 . S
C308 C307 1.291 . S
C308 C309 1.373 . S
C308 H321 0.929 . S
C309 C308 1.373 . S
C309 C310 1.396 . S
C309 C316 1.403 . S
C310 C300 1.476 . S
C310 N305 1.318 . S
C310 C309 1.396 . S
H311 C306 0.929 . S
O312 Mn288 2.385 . S
O312 C290 1.234 . S
O313 Mn288 2.209 . S
O313 Mn289 2.215 . S
O313 C290 1.283 . S
O314 Mn288 2.094 . S
O314 C292 1.240 . S
O315 Mn289 2.117 . S
O315 C292 1.264 . S
C316 C309 1.403 . S
C316 C317 1.399 . S
C316 H322 0.929 . S
C317 C297 1.449 . S
C317 C316 1.399 . S
C317 H323 0.930 . S
H318 C298 0.931 . S
H319 C299 0.930 . S
H320 C307 0.931 . S
H321 C308 0.929 . S
H322 C316 0.929 . S
H323 C317 0.930 . S
Mn324 O329 2.095 . S
Mn324 O339 2.162 . S
Mn324 O340 2.297 . S
Mn324 O348 2.385 . S
Mn324 O349 2.209 . S
Mn324 O350 2.094 . S
Mn325 O330 2.121 . S
Mn325 N332 2.257 . S
Mn325 N341 2.282 . S
Mn325 O349 2.215 . S
Mn325 O351 2.117 . S
C326 O348 1.234 . S
C326 O349 1.283 . S
C327 O339 1.281 . S
C327 O340 1.236 . S
C328 O350 1.240 . S
C328 O351 1.264 . S
O329 Mn324 2.095 . S
O329 C338 1.250 . S
O330 Mn325 2.121 . S
O330 C338 1.258 . S
C331 N332 1.326 . S
C331 C335 1.460 . S
C331 H337 0.929 . S
N332 Mn325 2.257 . S
N332 C331 1.326 . S
N332 C336 1.362 . S
C333 C334 1.258 . S
C333 C336 1.431 . S
C333 C353 1.449 . S
C334 C333 1.258 . S
C334 C335 1.477 . S
C334 H354 0.931 . S
C335 C331 1.460 . S
C335 C334 1.477 . S
C335 H355 0.930 . S
C336 N332 1.362 . S
C336 C333 1.431 . S
C336 C346 1.476 . S
H337 C331 0.929 . S
C338 O329 1.250 . S
C338 O330 1.258 . S
O339 Mn324 2.162 . S
O339 C327 1.281 . S
O340 Mn324 2.297 . S
O340 C327 1.236 . S
N341 Mn325 2.282 . S
N341 C342 1.328 . S
N341 C346 1.318 . S
C342 N341 1.328 . S
C342 C343 1.457 . S
C342 H347 0.929 . S
C343 C342 1.457 . S
C343 C344 1.291 . S
C343 H356 0.931 . S
C344 C343 1.291 . S
C344 C345 1.373 . S
C344 H357 0.929 . S
C345 C344 1.373 . S
C345 C346 1.396 . S
C345 C352 1.403 . S
C346 C336 1.476 . S
C346 N341 1.318 . S
C346 C345 1.396 . S
H347 C342 0.929 . S
O348 Mn324 2.385 . S
O348 C326 1.234 . S
O349 Mn324 2.209 . S
O349 Mn325 2.215 . S
O349 C326 1.283 . S
O350 Mn324 2.094 . S
O350 C328 1.240 . S
O351 Mn325 2.117 . S
O351 C328 1.264 . S
C352 C345 1.403 . S
C352 C353 1.399 . S
C352 H358 0.929 . S
C353 C333 1.449 . S
C353 C352 1.399 . S
C353 H359 0.930 . S
H354 C334 0.931 . S
H355 C335 0.930 . S
H356 C343 0.931 . S
H357 C344 0.929 . S
H358 C352 0.929 . S
H359 C353 0.930 . S
Mn360 O365 2.095 . S
Mn360 O375 2.162 . S
Mn360 O376 2.297 . S
Mn360 O384 2.385 . S
Mn360 O385 2.209 . S
Mn360 O386 2.094 . S
Mn361 O366 2.121 . S
Mn361 N368 2.257 . S
Mn361 N377 2.282 . S
Mn361 O385 2.215 . S
Mn361 O387 2.117 . S
C362 O384 1.234 . S
C362 O385 1.283 . S
C363 O375 1.281 . S
C363 O376 1.236 . S
C364 O386 1.240 . S
C364 O387 1.264 . S
O365 Mn360 2.095 . S
O365 C374 1.250 . S
O366 Mn361 2.121 . S
O366 C374 1.258 . S
C367 N368 1.326 . S
C367 C371 1.460 . S
C367 H373 0.929 . S
N368 Mn361 2.257 . S
N368 C367 1.326 . S
N368 C372 1.362 . S
C369 C370 1.258 . S
C369 C372 1.431 . S
C369 C389 1.449 . S
C370 C369 1.258 . S
C370 C371 1.477 . S
C370 H390 0.931 . S
C371 C367 1.460 . S
C371 C370 1.477 . S
C371 H391 0.930 . S
C372 N368 1.362 . S
C372 C369 1.431 . S
C372 C382 1.476 . S
H373 C367 0.929 . S
C374 O365 1.250 . S
C374 O366 1.258 . S
O375 Mn360 2.162 . S
O375 C363 1.281 . S
O376 Mn360 2.297 . S
O376 C363 1.236 . S
N377 Mn361 2.282 . S
N377 C378 1.328 . S
N377 C382 1.318 . S
C378 N377 1.328 . S
C378 C379 1.457 . S
C378 H383 0.929 . S
C379 C378 1.457 . S
C379 C380 1.291 . S
C379 H392 0.931 . S
C380 C379 1.291 . S
C380 C381 1.373 . S
C380 H393 0.929 . S
C381 C380 1.373 . S
C381 C382 1.396 . S
C381 C388 1.403 . S
C382 C372 1.476 . S
C382 N377 1.318 . S
C382 C381 1.396 . S
H383 C378 0.929 . S
O384 Mn360 2.385 . S
O384 C362 1.234 . S
O385 Mn360 2.209 . S
O385 Mn361 2.215 . S
O385 C362 1.283 . S
O386 Mn360 2.094 . S
O386 C364 1.240 . S
O387 Mn361 2.117 . S
O387 C364 1.264 . S
C388 C381 1.403 . S
C388 C389 1.399 . S
C388 H394 0.929 . S
C389 C369 1.449 . S
C389 C388 1.399 . S
C389 H395 0.930 . S
H390 C370 0.931 . S
H391 C371 0.930 . S
H392 C379 0.931 . S
H393 C380 0.929 . S
H394 C388 0.929 . S
H395 C389 0.930 . S
Mn396 O401 2.095 . S
Mn396 O411 2.162 . S
Mn396 O412 2.297 . S
Mn396 O420 2.385 . S
Mn396 O421 2.209 . S
Mn396 O422 2.094 . S
Mn397 O402 2.121 . S
Mn397 N404 2.257 . S
Mn397 N413 2.282 . S
Mn397 O421 2.215 . S
Mn397 O423 2.117 . S
C398 O420 1.234 . S
C398 O421 1.283 . S
C399 O411 1.281 . S
C399 O412 1.236 . S
C400 O422 1.240 . S
C400 O423 1.264 . S
O401 Mn396 2.095 . S
O401 C410 1.250 . S
O402 Mn397 2.121 . S
O402 C410 1.258 . S
C403 N404 1.326 . S
C403 C407 1.460 . S
C403 H409 0.929 . S
N404 Mn397 2.257 . S
N404 C403 1.326 . S
N404 C408 1.362 . S
C405 C406 1.258 . S
C405 C408 1.431 . S
C405 C425 1.449 . S
C406 C405 1.258 . S
C406 C407 1.477 . S
C406 H426 0.931 . S
C407 C403 1.460 . S
C407 C406 1.477 . S
C407 H427 0.930 . S
C408 N404 1.362 . S
C408 C405 1.431 . S
C408 C418 1.476 . S
H409 C403 0.929 . S
C410 O401 1.250 . S
C410 O402 1.258 . S
O411 Mn396 2.162 . S
O411 C399 1.281 . S
O412 Mn396 2.297 . S
O412 C399 1.236 . S
N413 Mn397 2.282 . S
N413 C414 1.328 . S
N413 C418 1.318 . S
C414 N413 1.328 . S
C414 C415 1.457 . S
C414 H419 0.929 . S
C415 C414 1.457 . S
C415 C416 1.291 . S
C415 H428 0.931 . S
C416 C415 1.291 . S
C416 C417 1.373 . S
C416 H429 0.929 . S
C417 C416 1.373 . S
C417 C418 1.396 . S
C417 C424 1.403 . S
C418 C408 1.476 . S
C418 N413 1.318 . S
C418 C417 1.396 . S
H419 C414 0.929 . S
O420 Mn396 2.385 . S
O420 C398 1.234 . S
O421 Mn396 2.209 . S
O421 Mn397 2.215 . S
O421 C398 1.283 . S
O422 Mn396 2.094 . S
O422 C400 1.240 . S
O423 Mn397 2.117 . S
O423 C400 1.264 . S
C424 C417 1.403 . S
C424 C425 1.399 . S
C424 H430 0.929 . S
C425 C405 1.449 . S
C425 C424 1.399 . S
C425 H431 0.930 . S
H426 C406 0.931 . S
H427 C407 0.930 . S
H428 C415 0.931 . S
H429 C416 0.929 . S
H430 C424 0.929 . S
H431 C425 0.930 . S
Mn432 O437 2.095 . S
Mn432 O447 2.162 . S
Mn432 O448 2.297 . S
Mn432 O456 2.385 . S
Mn432 O457 2.209 . S
Mn432 O458 2.094 . S
Mn433 O438 2.121 . S
Mn433 N440 2.257 . S
Mn433 N449 2.282 . S
Mn433 O457 2.215 . S
Mn433 O459 2.117 . S
C434 O456 1.234 . S
C434 O457 1.283 . S
C435 O447 1.281 . S
C435 O448 1.236 . S
C436 O458 1.240 . S
C436 O459 1.264 . S
O437 Mn432 2.095 . S
O437 C446 1.250 . S
O438 Mn433 2.121 . S
O438 C446 1.258 . S
C439 N440 1.326 . S
C439 C443 1.460 . S
C439 H445 0.929 . S
N440 Mn433 2.257 . S
N440 C439 1.326 . S
N440 C444 1.362 . S
C441 C442 1.258 . S
C441 C444 1.431 . S
C441 C461 1.449 . S
C442 C441 1.258 . S
C442 C443 1.477 . S
C442 H462 0.931 . S
C443 C439 1.460 . S
C443 C442 1.477 . S
C443 H463 0.930 . S
C444 N440 1.362 . S
C444 C441 1.431 . S
C444 C454 1.476 . S
H445 C439 0.929 . S
C446 O437 1.250 . S
C446 O438 1.258 . S
O447 Mn432 2.162 . S
O447 C435 1.281 . S
O448 Mn432 2.297 . S
O448 C435 1.236 . S
N449 Mn433 2.282 . S
N449 C450 1.328 . S
N449 C454 1.318 . S
C450 N449 1.328 . S
C450 C451 1.457 . S
C450 H455 0.929 . S
C451 C450 1.457 . S
C451 C452 1.291 . S
C451 H464 0.931 . S
C452 C451 1.291 . S
C452 C453 1.373 . S
C452 H465 0.929 . S
C453 C452 1.373 . S
C453 C454 1.396 . S
C453 C460 1.403 . S
C454 C444 1.476 . S
C454 N449 1.318 . S
C454 C453 1.396 . S
H455 C450 0.929 . S
O456 Mn432 2.385 . S
O456 C434 1.234 . S
O457 Mn432 2.209 . S
O457 Mn433 2.215 . S
O457 C434 1.283 . S
O458 Mn432 2.094 . S
O458 C436 1.240 . S
O459 Mn433 2.117 . S
O459 C436 1.264 . S
C460 C453 1.403 . S
C460 C461 1.399 . S
C460 H466 0.929 . S
C461 C441 1.449 . S
C461 C460 1.399 . S
C461 H467 0.930 . S
H462 C442 0.931 . S
H463 C443 0.930 . S
H464 C451 0.931 . S
H465 C452 0.929 . S
H466 C460 0.929 . S
H467 C461 0.930 . S
Mn468 O473 2.095 . S
Mn468 O483 2.162 . S
Mn468 O484 2.297 . S
Mn468 O492 2.385 . S
Mn468 O493 2.209 . S
Mn468 O494 2.094 . S
Mn469 O474 2.121 . S
Mn469 N476 2.257 . S
Mn469 N485 2.282 . S
Mn469 O493 2.215 . S
Mn469 O495 2.117 . S
C470 O492 1.234 . S
C470 O493 1.283 . S
C471 O483 1.281 . S
C471 O484 1.236 . S
C472 O494 1.240 . S
C472 O495 1.264 . S
O473 Mn468 2.095 . S
O473 C482 1.250 . S
O474 Mn469 2.121 . S
O474 C482 1.258 . S
C475 N476 1.326 . S
C475 C479 1.460 . S
C475 H481 0.929 . S
N476 Mn469 2.257 . S
N476 C475 1.326 . S
N476 C480 1.362 . S
C477 C478 1.258 . S
C477 C480 1.431 . S
C477 C497 1.449 . S
C478 C477 1.258 . S
C478 C479 1.477 . S
C478 H498 0.931 . S
C479 C475 1.460 . S
C479 C478 1.477 . S
C479 H499 0.930 . S
C480 N476 1.362 . S
C480 C477 1.431 . S
C480 C490 1.476 . S
H481 C475 0.929 . S
C482 O473 1.250 . S
C482 O474 1.258 . S
O483 Mn468 2.162 . S
O483 C471 1.281 . S
O484 Mn468 2.297 . S
O484 C471 1.236 . S
N485 Mn469 2.282 . S
N485 C486 1.328 . S
N485 C490 1.318 . S
C486 N485 1.328 . S
C486 C487 1.457 . S
C486 H491 0.929 . S
C487 C486 1.457 . S
C487 C488 1.291 . S
C487 H500 0.931 . S
C488 C487 1.291 . S
C488 C489 1.373 . S
C488 H501 0.929 . S
C489 C488 1.373 . S
C489 C490 1.396 . S
C489 C496 1.403 . S
C490 C480 1.476 . S
C490 N485 1.318 . S
C490 C489 1.396 . S
H491 C486 0.929 . S
O492 Mn468 2.385 . S
O492 C470 1.234 . S
O493 Mn468 2.209 . S
O493 Mn469 2.215 . S
O493 C470 1.283 . S
O494 Mn468 2.094 . S
O494 C472 1.240 . S
O495 Mn469 2.117 . S
O495 C472 1.264 . S
C496 C489 1.403 . S
C496 C497 1.399 . S
C496 H502 0.929 . S
C497 C477 1.449 . S
C497 C496 1.399 . S
C497 H503 0.930 . S
H498 C478 0.931 . S
H499 C479 0.930 . S
H500 C487 0.931 . S
H501 C488 0.929 . S
H502 C496 0.929 . S
H503 C497 0.930 . S
Mn504 O509 2.095 . S
Mn504 O519 2.162 . S
Mn504 O520 2.297 . S
Mn504 O528 2.385 . S
Mn504 O529 2.209 . S
Mn504 O530 2.094 . S
Mn505 O510 2.121 . S
Mn505 N512 2.257 . S
Mn505 N521 2.282 . S
Mn505 O529 2.215 . S
Mn505 O531 2.117 . S
C506 O528 1.234 . S
C506 O529 1.283 . S
C507 O519 1.281 . S
C507 O520 1.236 . S
C508 O530 1.240 . S
C508 O531 1.264 . S
O509 Mn504 2.095 . S
O509 C518 1.250 . S
O510 Mn505 2.121 . S
O510 C518 1.258 . S
C511 N512 1.326 . S
C511 C515 1.460 . S
C511 H517 0.929 . S
N512 Mn505 2.257 . S
N512 C511 1.326 . S
N512 C516 1.362 . S
C513 C514 1.258 . S
C513 C516 1.431 . S
C513 C533 1.449 . S
C514 C513 1.258 . S
C514 C515 1.477 . S
C514 H534 0.931 . S
C515 C511 1.460 . S
C515 C514 1.477 . S
C515 H535 0.930 . S
C516 N512 1.362 . S
C516 C513 1.431 . S
C516 C526 1.476 . S
H517 C511 0.929 . S
C518 O509 1.250 . S
C518 O510 1.258 . S
O519 Mn504 2.162 . S
O519 C507 1.281 . S
O520 Mn504 2.297 . S
O520 C507 1.236 . S
N521 Mn505 2.282 . S
N521 C522 1.328 . S
N521 C526 1.318 . S
C522 N521 1.328 . S
C522 C523 1.457 . S
C522 H527 0.929 . S
C523 C522 1.457 . S
C523 C524 1.291 . S
C523 H536 0.931 . S
C524 C523 1.291 . S
C524 C525 1.373 . S
C524 H537 0.929 . S
C525 C524 1.373 . S
C525 C526 1.396 . S
C525 C532 1.403 . S
C526 C516 1.476 . S
C526 N521 1.318 . S
C526 C525 1.396 . S
H527 C522 0.929 . S
O528 Mn504 2.385 . S
O528 C506 1.234 . S
O529 Mn504 2.209 . S
O529 Mn505 2.215 . S
O529 C506 1.283 . S
O530 Mn504 2.094 . S
O530 C508 1.240 . S
O531 Mn505 2.117 . S
O531 C508 1.264 . S
C532 C525 1.403 . S
C532 C533 1.399 . S
C532 H538 0.929 . S
C533 C513 1.449 . S
C533 C532 1.399 . S
C533 H539 0.930 . S
H534 C514 0.931 . S
H535 C515 0.930 . S
H536 C523 0.931 . S
H537 C524 0.929 . S
H538 C532 0.929 . S
H539 C533 0.930 . S
Mn540 O545 2.095 . S
Mn540 O555 2.162 . S
Mn540 O556 2.297 . S
Mn540 O564 2.385 . S
Mn540 O565 2.209 . S
Mn540 O566 2.094 . S
Mn541 O546 2.121 . S
Mn541 N548 2.257 . S
Mn541 N557 2.282 . S
Mn541 O565 2.215 . S
Mn541 O567 2.117 . S
C542 O564 1.234 . S
C542 O565 1.283 . S
C543 O555 1.281 . S
C543 O556 1.236 . S
C544 O566 1.240 . S
C544 O567 1.264 . S
O545 Mn540 2.095 . S
O545 C554 1.250 . S
O546 Mn541 2.121 . S
O546 C554 1.258 . S
C547 N548 1.326 . S
C547 C551 1.460 . S
C547 H553 0.929 . S
N548 Mn541 2.257 . S
N548 C547 1.326 . S
N548 C552 1.362 . S
C549 C550 1.258 . S
C549 C552 1.431 . S
C549 C569 1.449 . S
C550 C549 1.258 . S
C550 C551 1.477 . S
C550 H570 0.931 . S
C551 C547 1.460 . S
C551 C550 1.477 . S
C551 H571 0.930 . S
C552 N548 1.362 . S
C552 C549 1.431 . S
C552 C562 1.476 . S
H553 C547 0.929 . S
C554 O545 1.250 . S
C554 O546 1.258 . S
O555 Mn540 2.162 . S
O555 C543 1.281 . S
O556 Mn540 2.297 . S
O556 C543 1.236 . S
N557 Mn541 2.282 . S
N557 C558 1.328 . S
N557 C562 1.318 . S
C558 N557 1.328 . S
C558 C559 1.457 . S
C558 H563 0.929 . S
C559 C558 1.457 . S
C559 C560 1.291 . S
C559 H572 0.931 . S
C560 C559 1.291 . S
C560 C561 1.373 . S
C560 H573 0.929 . S
C561 C560 1.373 . S
C561 C562 1.396 . S
C561 C568 1.403 . S
C562 C552 1.476 . S
C562 N557 1.318 . S
C562 C561 1.396 . S
H563 C558 0.929 . S
O564 Mn540 2.385 . S
O564 C542 1.234 . S
O565 Mn540 2.209 . S
O565 Mn541 2.215 . S
O565 C542 1.283 . S
O566 Mn540 2.094 . S
O566 C544 1.240 . S
O567 Mn541 2.117 . S
O567 C544 1.264 . S
C568 C561 1.403 . S
C568 C569 1.399 . S
C568 H574 0.929 . S
C569 C549 1.449 . S
C569 C568 1.399 . S
C569 H575 0.930 . S
H570 C550 0.931 . S
H571 C551 0.930 . S
H572 C559 0.931 . S
H573 C560 0.929 . S
H574 C568 0.929 . S
H575 C569 0.930 . S
Mn576 O581 2.095 . S
Mn576 O591 2.162 . S
Mn576 O592 2.297 . S
Mn576 O600 2.385 . S
Mn576 O601 2.209 . S
Mn576 O602 2.094 . S
Mn577 O582 2.121 . S
Mn577 N584 2.257 . S
Mn577 N593 2.282 . S
Mn577 O601 2.215 . S
Mn577 O603 2.117 . S
C578 O600 1.234 . S
C578 O601 1.283 . S
C579 O591 1.281 . S
C579 O592 1.236 . S
C580 O602 1.240 . S
C580 O603 1.264 . S
O581 Mn576 2.095 . S
O581 C590 1.250 . S
O582 Mn577 2.121 . S
O582 C590 1.258 . S
C583 N584 1.326 . S
C583 C587 1.460 . S
C583 H589 0.929 . S
N584 Mn577 2.257 . S
N584 C583 1.326 . S
N584 C588 1.362 . S
C585 C586 1.258 . S
C585 C588 1.431 . S
C585 C605 1.449 . S
C586 C585 1.258 . S
C586 C587 1.477 . S
C586 H606 0.931 . S
C587 C583 1.460 . S
C587 C586 1.477 . S
C587 H607 0.930 . S
C588 N584 1.362 . S
C588 C585 1.431 . S
C588 C598 1.476 . S
H589 C583 0.929 . S
C590 O581 1.250 . S
C590 O582 1.258 . S
O591 Mn576 2.162 . S
O591 C579 1.281 . S
O592 Mn576 2.297 . S
O592 C579 1.236 . S
N593 Mn577 2.282 . S
N593 C594 1.328 . S
N593 C598 1.318 . S
C594 N593 1.328 . S
C594 C595 1.457 . S
C594 H599 0.929 . S
C595 C594 1.457 . S
C595 C596 1.291 . S
C595 H608 0.931 . S
C596 C595 1.291 . S
C596 C597 1.373 . S
C596 H609 0.929 . S
C597 C596 1.373 . S
C597 C598 1.396 . S
C597 C604 1.403 . S
C598 C588 1.476 . S
C598 N593 1.318 . S
C598 C597 1.396 . S
H599 C594 0.929 . S
O600 Mn576 2.385 . S
O600 C578 1.234 . S
O601 Mn576 2.209 . S
O601 Mn577 2.215 . S
O601 C578 1.283 . S
O602 Mn576 2.094 . S
O602 C580 1.240 . S
O603 Mn577 2.117 . S
O603 C580 1.264 . S
C604 C597 1.403 . S
C604 C605 1.399 . S
C604 H610 0.929 . S
C605 C585 1.449 . S
C605 C604 1.399 . S
C605 H611 0.930 . S
H606 C586 0.931 . S
H607 C587 0.930 . S
H608 C595 0.931 . S
H609 C596 0.929 . S
H610 C604 0.929 . S
H611 C605 0.930 . S
Mn612 O617 2.095 . S
Mn612 O627 2.162 . S
Mn612 O628 2.297 . S
Mn612 O636 2.385 . S
Mn612 O637 2.209 . S
Mn612 O638 2.094 . S
Mn613 O618 2.121 . S
Mn613 N620 2.257 . S
Mn613 N629 2.282 . S
Mn613 O637 2.215 . S
Mn613 O639 2.117 . S
C614 O636 1.234 . S
C614 O637 1.283 . S
C615 O627 1.281 . S
C615 O628 1.236 . S
C616 O638 1.240 . S
C616 O639 1.264 . S
O617 Mn612 2.095 . S
O617 C626 1.250 . S
O618 Mn613 2.121 . S
O618 C626 1.258 . S
C619 N620 1.326 . S
C619 C623 1.460 . S
C619 H625 0.929 . S
N620 Mn613 2.257 . S
N620 C619 1.326 . S
N620 C624 1.362 . S
C621 C622 1.258 . S
C621 C624 1.431 . S
C621 C641 1.449 . S
C622 C621 1.258 . S
C622 C623 1.477 . S
C622 H642 0.931 . S
C623 C619 1.460 . S
C623 C622 1.477 . S
C623 H643 0.930 . S
C624 N620 1.362 . S
C624 C621 1.431 . S
C624 C634 1.476 . S
H625 C619 0.929 . S
C626 O617 1.250 . S
C626 O618 1.258 . S
O627 Mn612 2.162 . S
O627 C615 1.281 . S
O628 Mn612 2.297 . S
O628 C615 1.236 . S
N629 Mn613 2.282 . S
N629 C630 1.328 . S
N629 C634 1.318 . S
C630 N629 1.328 . S
C630 C631 1.457 . S
C630 H635 0.929 . S
C631 C630 1.457 . S
C631 C632 1.291 . S
C631 H644 0.931 . S
C632 C631 1.291 . S
C632 C633 1.373 . S
C632 H645 0.929 . S
C633 C632 1.373 . S
C633 C634 1.396 . S
C633 C640 1.403 . S
C634 C624 1.476 . S
C634 N629 1.318 . S
C634 C633 1.396 . S
H635 C630 0.929 . S
O636 Mn612 2.385 . S
O636 C614 1.234 . S
O637 Mn612 2.209 . S
O637 Mn613 2.215 . S
O637 C614 1.283 . S
O638 Mn612 2.094 . S
O638 C616 1.240 . S
O639 Mn613 2.117 . S
O639 C616 1.264 . S
C640 C633 1.403 . S
C640 C641 1.399 . S
C640 H646 0.929 . S
C641 C621 1.449 . S
C641 C640 1.399 . S
C641 H647 0.930 . S
H642 C622 0.931 . S
H643 C623 0.930 . S
H644 C631 0.931 . S
H645 C632 0.929 . S
H646 C640 0.929 . S
H647 C641 0.930 . S
Mn648 O653 2.095 . S
Mn648 O663 2.162 . S
Mn648 O664 2.297 . S
Mn648 O672 2.385 . S
Mn648 O673 2.209 . S
Mn648 O674 2.094 . S
Mn649 O654 2.121 . S
Mn649 N656 2.257 . S
Mn649 N665 2.282 . S
Mn649 O673 2.215 . S
Mn649 O675 2.117 . S
C650 O672 1.234 . S
C650 O673 1.283 . S
C651 O663 1.281 . S
C651 O664 1.236 . S
C652 O674 1.240 . S
C652 O675 1.264 . S
O653 Mn648 2.095 . S
O653 C662 1.250 . S
O654 Mn649 2.121 . S
O654 C662 1.258 . S
C655 N656 1.326 . S
C655 C659 1.460 . S
C655 H661 0.929 . S
N656 Mn649 2.257 . S
N656 C655 1.326 . S
N656 C660 1.362 . S
C657 C658 1.258 . S
C657 C660 1.431 . S
C657 C677 1.449 . S
C658 C657 1.258 . S
C658 C659 1.477 . S
C658 H678 0.931 . S
C659 C655 1.460 . S
C659 C658 1.477 . S
C659 H679 0.930 . S
C660 N656 1.362 . S
C660 C657 1.431 . S
C660 C670 1.476 . S
H661 C655 0.929 . S
C662 O653 1.250 . S
C662 O654 1.258 . S
O663 Mn648 2.162 . S
O663 C651 1.281 . S
O664 Mn648 2.297 . S
O664 C651 1.236 . S
N665 Mn649 2.282 . S
N665 C666 1.328 . S
N665 C670 1.318 . S
C666 N665 1.328 . S
C666 C667 1.457 . S
C666 H671 0.929 . S
C667 C666 1.457 . S
C667 C668 1.291 . S
C667 H680 0.931 . S
C668 C667 1.291 . S
C668 C669 1.373 . S
C668 H681 0.929 . S
C669 C668 1.373 . S
C669 C670 1.396 . S
C669 C676 1.403 . S
C670 C660 1.476 . S
C670 N665 1.318 . S
C670 C669 1.396 . S
H671 C666 0.929 . S
O672 Mn648 2.385 . S
O672 C650 1.234 . S
O673 Mn648 2.209 . S
O673 Mn649 2.215 . S
O673 C650 1.283 . S
O674 Mn648 2.094 . S
O674 C652 1.240 . S
O675 Mn649 2.117 . S
O675 C652 1.264 . S
C676 C669 1.403 . S
C676 C677 1.399 . S
C676 H682 0.929 . S
C677 C657 1.449 . S
C677 C676 1.399 . S
C677 H683 0.930 . S
H678 C658 0.931 . S
H679 C659 0.930 . S
H680 C667 0.931 . S
H681 C668 0.929 . S
H682 C676 0.929 . S
H683 C677 0.930 . S
Mn684 O689 2.095 . S
Mn684 O699 2.162 . S
Mn684 O700 2.297 . S
Mn684 O708 2.385 . S
Mn684 O709 2.209 . S
Mn684 O710 2.094 . S
Mn685 O690 2.121 . S
Mn685 N692 2.257 . S
Mn685 N701 2.282 . S
Mn685 O709 2.215 . S
Mn685 O711 2.117 . S
C686 O708 1.234 . S
C686 O709 1.283 . S
C687 O699 1.281 . S
C687 O700 1.236 . S
C688 O710 1.240 . S
C688 O711 1.264 . S
O689 Mn684 2.095 . S
O689 C698 1.250 . S
O690 Mn685 2.121 . S
O690 C698 1.258 . S
C691 N692 1.326 . S
C691 C695 1.460 . S
C691 H697 0.929 . S
N692 Mn685 2.257 . S
N692 C691 1.326 . S
N692 C696 1.362 . S
C693 C694 1.258 . S
C693 C696 1.431 . S
C693 C713 1.449 . S
C694 C693 1.258 . S
C694 C695 1.477 . S
C694 H714 0.931 . S
C695 C691 1.460 . S
C695 C694 1.477 . S
C695 H715 0.930 . S
C696 N692 1.362 . S
C696 C693 1.431 . S
C696 C706 1.476 . S
H697 C691 0.929 . S
C698 O689 1.250 . S
C698 O690 1.258 . S
O699 Mn684 2.162 . S
O699 C687 1.281 . S
O700 Mn684 2.297 . S
O700 C687 1.236 . S
N701 Mn685 2.282 . S
N701 C702 1.328 . S
N701 C706 1.318 . S
C702 N701 1.328 . S
C702 C703 1.457 . S
C702 H707 0.929 . S
C703 C702 1.457 . S
C703 C704 1.291 . S
C703 H716 0.931 . S
C704 C703 1.291 . S
C704 C705 1.373 . S
C704 H717 0.929 . S
C705 C704 1.373 . S
C705 C706 1.396 . S
C705 C712 1.403 . S
C706 C696 1.476 . S
C706 N701 1.318 . S
C706 C705 1.396 . S
H707 C702 0.929 . S
O708 Mn684 2.385 . S
O708 C686 1.234 . S
O709 Mn684 2.209 . S
O709 Mn685 2.215 . S
O709 C686 1.283 . S
O710 Mn684 2.094 . S
O710 C688 1.240 . S
O711 Mn685 2.117 . S
O711 C688 1.264 . S
C712 C705 1.403 . S
C712 C713 1.399 . S
C712 H718 0.929 . S
C713 C693 1.449 . S
C713 C712 1.399 . S
C713 H719 0.930 . S
H714 C694 0.931 . S
H715 C695 0.930 . S
H716 C703 0.931 . S
H717 C704 0.929 . S
H718 C712 0.929 . S
H719 C713 0.930 . S
Mn720 O725 2.095 . S
Mn720 O735 2.162 . S
Mn720 O736 2.297 . S
Mn720 O744 2.385 . S
Mn720 O745 2.209 . S
Mn720 O746 2.094 . S
Mn721 O726 2.121 . S
Mn721 N728 2.257 . S
Mn721 N737 2.282 . S
Mn721 O745 2.215 . S
Mn721 O747 2.117 . S
C722 O744 1.234 . S
C722 O745 1.283 . S
C723 O735 1.281 . S
C723 O736 1.236 . S
C724 O746 1.240 . S
C724 O747 1.264 . S
O725 Mn720 2.095 . S
O725 C734 1.250 . S
O726 Mn721 2.121 . S
O726 C734 1.258 . S
C727 N728 1.326 . S
C727 C731 1.460 . S
C727 H733 0.929 . S
N728 Mn721 2.257 . S
N728 C727 1.326 . S
N728 C732 1.362 . S
C729 C730 1.258 . S
C729 C732 1.431 . S
C729 C749 1.449 . S
C730 C729 1.258 . S
C730 C731 1.477 . S
C730 H750 0.931 . S
C731 C727 1.460 . S
C731 C730 1.477 . S
C731 H751 0.930 . S
C732 N728 1.362 . S
C732 C729 1.431 . S
C732 C742 1.476 . S
H733 C727 0.929 . S
C734 O725 1.250 . S
C734 O726 1.258 . S
O735 Mn720 2.162 . S
O735 C723 1.281 . S
O736 Mn720 2.297 . S
O736 C723 1.236 . S
N737 Mn721 2.282 . S
N737 C738 1.328 . S
N737 C742 1.318 . S
C738 N737 1.328 . S
C738 C739 1.457 . S
C738 H743 0.929 . S
C739 C738 1.457 . S
C739 C740 1.291 . S
C739 H752 0.931 . S
C740 C739 1.291 . S
C740 C741 1.373 . S
C740 H753 0.929 . S
C741 C740 1.373 . S
C741 C742 1.396 . S
C741 C748 1.403 . S
C742 C732 1.476 . S
C742 N737 1.318 . S
C742 C741 1.396 . S
H743 C738 0.929 . S
O744 Mn720 2.385 . S
O744 C722 1.234 . S
O745 Mn720 2.209 . S
O745 Mn721 2.215 . S
O745 C722 1.283 . S
O746 Mn720 2.094 . S
O746 C724 1.240 . S
O747 Mn721 2.117 . S
O747 C724 1.264 . S
C748 C741 1.403 . S
C748 C749 1.399 . S
C748 H754 0.929 . S
C749 C729 1.449 . S
C749 C748 1.399 . S
C749 H755 0.930 . S
H750 C730 0.931 . S
H751 C731 0.930 . S
H752 C739 0.931 . S
H753 C740 0.929 . S
H754 C748 0.929 . S
H755 C749 0.930 . S
Mn756 O761 2.095 . S
Mn756 O771 2.162 . S
Mn756 O772 2.297 . S
Mn756 O780 2.385 . S
Mn756 O781 2.209 . S
Mn756 O782 2.094 . S
Mn757 O762 2.121 . S
Mn757 N764 2.257 . S
Mn757 N773 2.282 . S
Mn757 O781 2.215 . S
Mn757 O783 2.117 . S
C758 O780 1.234 . S
C758 O781 1.283 . S
C759 O771 1.281 . S
C759 O772 1.236 . S
C760 O782 1.240 . S
C760 O783 1.264 . S
O761 Mn756 2.095 . S
O761 C770 1.250 . S
O762 Mn757 2.121 . S
O762 C770 1.258 . S
C763 N764 1.326 . S
C763 C767 1.460 . S
C763 H769 0.929 . S
N764 Mn757 2.257 . S
N764 C763 1.326 . S
N764 C768 1.362 . S
C765 C766 1.258 . S
C765 C768 1.431 . S
C765 C785 1.449 . S
C766 C765 1.258 . S
C766 C767 1.477 . S
C766 H786 0.931 . S
C767 C763 1.460 . S
C767 C766 1.477 . S
C767 H787 0.930 . S
C768 N764 1.362 . S
C768 C765 1.431 . S
C768 C778 1.476 . S
H769 C763 0.929 . S
C770 O761 1.250 . S
C770 O762 1.258 . S
O771 Mn756 2.162 . S
O771 C759 1.281 . S
O772 Mn756 2.297 . S
O772 C759 1.236 . S
N773 Mn757 2.282 . S
N773 C774 1.328 . S
N773 C778 1.318 . S
C774 N773 1.328 . S
C774 C775 1.457 . S
C774 H779 0.929 . S
C775 C774 1.457 . S
C775 C776 1.291 . S
C775 H788 0.931 . S
C776 C775 1.291 . S
C776 C777 1.373 . S
C776 H789 0.929 . S
C777 C776 1.373 . S
C777 C778 1.396 . S
C777 C784 1.403 . S
C778 C768 1.476 . S
C778 N773 1.318 . S
C778 C777 1.396 . S
H779 C774 0.929 . S
O780 Mn756 2.385 . S
O780 C758 1.234 . S
O781 Mn756 2.209 . S
O781 Mn757 2.215 . S
O781 C758 1.283 . S
O782 Mn756 2.094 . S
O782 C760 1.240 . S
O783 Mn757 2.117 . S
O783 C760 1.264 . S
C784 C777 1.403 . S
C784 C785 1.399 . S
C784 H790 0.929 . S
C785 C765 1.449 . S
C785 C784 1.399 . S
C785 H791 0.930 . S
H786 C766 0.931 . S
H787 C767 0.930 . S
H788 C775 0.931 . S
H789 C776 0.929 . S
H790 C784 0.929 . S
H791 C785 0.930 . S
Mn792 O797 2.095 . S
Mn792 O807 2.162 . S
Mn792 O808 2.297 . S
Mn792 O816 2.385 . S
Mn792 O817 2.209 . S
Mn792 O818 2.094 . S
Mn793 O798 2.121 . S
Mn793 N800 2.257 . S
Mn793 N809 2.282 . S
Mn793 O817 2.215 . S
Mn793 O819 2.117 . S
C794 O816 1.234 . S
C794 O817 1.283 . S
C795 O807 1.281 . S
C795 O808 1.236 . S
C796 O818 1.240 . S
C796 O819 1.264 . S
O797 Mn792 2.095 . S
O797 C806 1.250 . S
O798 Mn793 2.121 . S
O798 C806 1.258 . S
C799 N800 1.326 . S
C799 C803 1.460 . S
C799 H805 0.929 . S
N800 Mn793 2.257 . S
N800 C799 1.326 . S
N800 C804 1.362 . S
C801 C802 1.258 . S
C801 C804 1.431 . S
C801 C821 1.449 . S
C802 C801 1.258 . S
C802 C803 1.477 . S
C802 H822 0.931 . S
C803 C799 1.460 . S
C803 C802 1.477 . S
C803 H823 0.930 . S
C804 N800 1.362 . S
C804 C801 1.431 . S
C804 C814 1.476 . S
H805 C799 0.929 . S
C806 O797 1.250 . S
C806 O798 1.258 . S
O807 Mn792 2.162 . S
O807 C795 1.281 . S
O808 Mn792 2.297 . S
O808 C795 1.236 . S
N809 Mn793 2.282 . S
N809 C810 1.328 . S
N809 C814 1.318 . S
C810 N809 1.328 . S
C810 C811 1.457 . S
C810 H815 0.929 . S
C811 C810 1.457 . S
C811 C812 1.291 . S
C811 H824 0.931 . S
C812 C811 1.291 . S
C812 C813 1.373 . S
C812 H825 0.929 . S
C813 C812 1.373 . S
C813 C814 1.396 . S
C813 C820 1.403 . S
C814 C804 1.476 . S
C814 N809 1.318 . S
C814 C813 1.396 . S
H815 C810 0.929 . S
O816 Mn792 2.385 . S
O816 C794 1.234 . S
O817 Mn792 2.209 . S
O817 Mn793 2.215 . S
O817 C794 1.283 . S
O818 Mn792 2.094 . S
O818 C796 1.240 . S
O819 Mn793 2.117 . S
O819 C796 1.264 . S
C820 C813 1.403 . S
C820 C821 1.399 . S
C820 H826 0.929 . S
C821 C801 1.449 . S
C821 C820 1.399 . S
C821 H827 0.930 . S
H822 C802 0.931 . S
H823 C803 0.930 . S
H824 C811 0.931 . S
H825 C812 0.929 . S
H826 C820 0.929 . S
H827 C821 0.930 . S
Mn828 O833 2.095 . S
Mn828 O843 2.162 . S
Mn828 O844 2.297 . S
Mn828 O852 2.385 . S
Mn828 O853 2.209 . S
Mn828 O854 2.094 . S
Mn829 O834 2.121 . S
Mn829 N836 2.257 . S
Mn829 N845 2.282 . S
Mn829 O853 2.215 . S
Mn829 O855 2.117 . S
C830 O852 1.234 . S
C830 O853 1.283 . S
C831 O843 1.281 . S
C831 O844 1.236 . S
C832 O854 1.240 . S
C832 O855 1.264 . S
O833 Mn828 2.095 . S
O833 C842 1.250 . S
O834 Mn829 2.121 . S
O834 C842 1.258 . S
C835 N836 1.326 . S
C835 C839 1.460 . S
C835 H841 0.929 . S
N836 Mn829 2.257 . S
N836 C835 1.326 . S
N836 C840 1.362 . S
C837 C838 1.258 . S
C837 C840 1.431 . S
C837 C857 1.449 . S
C838 C837 1.258 . S
C838 C839 1.477 . S
C838 H858 0.931 . S
C839 C835 1.460 . S
C839 C838 1.477 . S
C839 H859 0.930 . S
C840 N836 1.362 . S
C840 C837 1.431 . S
C840 C850 1.476 . S
H841 C835 0.929 . S
C842 O833 1.250 . S
C842 O834 1.258 . S
O843 Mn828 2.162 . S
O843 C831 1.281 . S
O844 Mn828 2.297 . S
O844 C831 1.236 . S
N845 Mn829 2.282 . S
N845 C846 1.328 . S
N845 C850 1.318 . S
C846 N845 1.328 . S
C846 C847 1.457 . S
C846 H851 0.929 . S
C847 C846 1.457 . S
C847 C848 1.291 . S
C847 H860 0.931 . S
C848 C847 1.291 . S
C848 C849 1.373 . S
C848 H861 0.929 . S
C849 C848 1.373 . S
C849 C850 1.396 . S
C849 C856 1.403 . S
C850 C840 1.476 . S
C850 N845 1.318 . S
C850 C849 1.396 . S
H851 C846 0.929 . S
O852 Mn828 2.385 . S
O852 C830 1.234 . S
O853 Mn828 2.209 . S
O853 Mn829 2.215 . S
O853 C830 1.283 . S
O854 Mn828 2.094 . S
O854 C832 1.240 . S
O855 Mn829 2.117 . S
O855 C832 1.264 . S
C856 C849 1.403 . S
C856 C857 1.399 . S
C856 H862 0.929 . S
C857 C837 1.449 . S
C857 C856 1.399 . S
C857 H863 0.930 . S
H858 C838 0.931 . S
H859 C839 0.930 . S
H860 C847 0.931 . S
H861 C848 0.929 . S
H862 C856 0.929 . S
H863 C857 0.930 . S
H864 C870 0.930 . S
H865 C874 0.930 . S
H866 C879 0.929 . S
H867 C877 0.929 . S
H868 C872 0.929 . S
H869 C878 0.929 . S
C870 H864 0.930 . S
C870 C871 1.367 . S
C870 C878 1.378 . S
C871 C870 1.367 . S
C871 C879 1.433 . S
C872 H868 0.929 . S
C872 C874 1.378 . S
C872 C876 1.350 . S
C873 C876 1.463 1_545 S
C873 C878 1.350 . S
C873 N881 1.427 . S
C874 H865 0.930 . S
C874 C872 1.378 . S
C874 C875 1.367 . S
C875 C874 1.367 . S
C875 C877 1.433 . S
C876 C872 1.350 . S
C876 C873 1.463 1_565 S
C876 N880 1.427 . S
C877 H867 0.929 . S
C877 C875 1.433 . S
C877 N880 1.384 . S
C878 H869 0.929 . S
C878 C870 1.378 . S
C878 C873 1.350 . S
C879 H866 0.929 . S
C879 C871 1.433 . S
C879 N881 1.384 . S
N880 C876 1.427 . S
N880 C877 1.384 . S
N881 C873 1.427 . S
N881 C879 1.384 . S
H882 C888 0.930 . S
H883 C892 0.930 . S
H884 C897 0.929 . S
H885 C895 0.929 . S
H886 C890 0.929 . S
H887 C896 0.929 . S
C888 H882 0.930 . S
C888 C889 1.367 . S
C888 C896 1.378 . S
C889 C888 1.367 . S
C889 C897 1.433 . S
C890 H886 0.929 . S
C890 C892 1.378 . S
C890 C894 1.350 . S
C891 C894 1.463 . S
C891 C896 1.350 . S
C891 N899 1.427 . S
C892 H883 0.930 . S
C892 C890 1.378 . S
C892 C893 1.367 . S
C893 C892 1.367 . S
C893 C895 1.433 . S
C894 C890 1.350 . S
C894 C891 1.463 . S
C894 N898 1.427 . S
C895 H885 0.929 . S
C895 C893 1.433 . S
C895 N898 1.384 . S
C896 H887 0.929 . S
C896 C888 1.378 . S
C896 C891 1.350 . S
C897 H884 0.929 . S
C897 C889 1.433 . S
C897 N899 1.384 . S
N898 C894 1.427 . S
N898 C895 1.384 . S
N899 C891 1.427 . S
N899 C897 1.384 . S
H900 C906 0.930 . S
H901 C910 0.930 . S
H902 C915 0.929 . S
H903 C913 0.929 . S
H904 C908 0.929 . S
H905 C914 0.929 . S
C906 H900 0.930 . S
C906 C907 1.367 . S
C906 C914 1.378 . S
C907 C906 1.367 . S
C907 C915 1.433 . S
C908 H904 0.929 . S
C908 C910 1.378 . S
C908 C912 1.350 . S
C909 C912 1.463 1_655 S
C909 C914 1.350 . S
C909 N917 1.427 . S
C910 H901 0.930 . S
C910 C908 1.378 . S
C910 C911 1.367 . S
C911 C910 1.367 . S
C911 C913 1.433 . S
C912 C908 1.350 . S
C912 C909 1.463 1_455 S
C912 N916 1.427 . S
C913 H903 0.929 . S
C913 C911 1.433 . S
C913 N916 1.384 . S
C914 H905 0.929 . S
C914 C906 1.378 . S
C914 C909 1.350 . S
C915 H902 0.929 . S
C915 C907 1.433 . S
C915 N917 1.384 . S
N916 C912 1.427 . S
N916 C913 1.384 . S
N917 C909 1.427 . S
N917 C915 1.384 . S
H918 C924 0.930 . S
H919 C928 0.930 . S
H920 C933 0.929 . S
H921 C931 0.929 . S
H922 C926 0.929 . S
H923 C932 0.929 . S
C924 H918 0.930 . S
C924 C925 1.367 . S
C924 C932 1.378 . S
C925 C924 1.367 . S
C925 C933 1.433 . S
C926 H922 0.929 . S
C926 C928 1.378 . S
C926 C930 1.350 . S
C927 C930 1.463 1_565 S
C927 C932 1.350 . S
C927 N935 1.427 . S
C928 H919 0.930 . S
C928 C926 1.378 . S
C928 C929 1.367 . S
C929 C928 1.367 . S
C929 C931 1.433 . S
C930 C926 1.350 . S
C930 C927 1.463 1_545 S
C930 N934 1.427 . S
C931 H921 0.929 . S
C931 C929 1.433 . S
C931 N934 1.384 . S
C932 H923 0.929 . S
C932 C924 1.378 . S
C932 C927 1.350 . S
C933 H920 0.929 . S
C933 C925 1.433 . S
C933 N935 1.384 . S
N934 C930 1.427 . S
N934 C931 1.384 . S
N935 C927 1.427 . S
N935 C933 1.384 . S
H936 C942 0.930 . S
H937 C946 0.930 . S
H938 C951 0.929 . S
H939 C949 0.929 . S
H940 C944 0.929 . S
H941 C950 0.929 . S
C942 H936 0.930 . S
C942 C943 1.367 . S
C942 C950 1.378 . S
C943 C942 1.367 . S
C943 C951 1.433 . S
C944 H940 0.929 . S
C944 C946 1.378 . S
C944 C948 1.350 . S
C945 C948 1.463 . S
C945 C950 1.350 . S
C945 N953 1.427 . S
C946 H937 0.930 . S
C946 C944 1.378 . S
C946 C947 1.367 . S
C947 C946 1.367 . S
C947 C949 1.433 . S
C948 C944 1.350 . S
C948 C945 1.463 . S
C948 N952 1.427 . S
C949 H939 0.929 . S
C949 C947 1.433 . S
C949 N952 1.384 . S
C950 H941 0.929 . S
C950 C942 1.378 . S
C950 C945 1.350 . S
C951 H938 0.929 . S
C951 C943 1.433 . S
C951 N953 1.384 . S
N952 C948 1.427 . S
N952 C949 1.384 . S
N953 C945 1.427 . S
N953 C951 1.384 . S
H954 C960 0.930 . S
H955 C964 0.930 . S
H956 C969 0.929 . S
H957 C967 0.929 . S
H958 C962 0.929 . S
H959 C968 0.929 . S
C960 H954 0.930 . S
C960 C961 1.367 . S
C960 C968 1.378 . S
C961 C960 1.367 . S
C961 C969 1.433 . S
C962 H958 0.929 . S
C962 C964 1.378 . S
C962 C966 1.350 . S
C963 C966 1.463 1_455 S
C963 C968 1.350 . S
C963 N971 1.427 . S
C964 H955 0.930 . S
C964 C962 1.378 . S
C964 C965 1.367 . S
C965 C964 1.367 . S
C965 C967 1.433 . S
C966 C962 1.350 . S
C966 C963 1.463 1_655 S
C966 N970 1.427 . S
C967 H957 0.929 . S
C967 C965 1.433 . S
C967 N970 1.384 . S
C968 H959 0.929 . S
C968 C960 1.378 . S
C968 C963 1.350 . S
C969 H956 0.929 . S
C969 C961 1.433 . S
C969 N971 1.384 . S
N970 C966 1.427 . S
N970 C967 1.384 . S
N971 C963 1.427 . S
N971 C969 1.384 . S
H972 C978 0.930 . S
H973 C982 0.930 . S
H974 C987 0.929 . S
H975 C985 0.929 . S
H976 C980 0.929 . S
H977 C986 0.929 . S
C978 H972 0.930 . S
C978 C979 1.367 . S
C978 C986 1.378 . S
C979 C978 1.367 . S
C979 C987 1.433 . S
C980 H976 0.929 . S
C980 C982 1.378 . S
C980 C984 1.350 . S
C981 C984 1.463 1_565 S
C981 C986 1.350 . S
C981 N989 1.427 . S
C982 H973 0.930 . S
C982 C980 1.378 . S
C982 C983 1.367 . S
C983 C982 1.367 . S
C983 C985 1.433 . S
C984 C980 1.350 . S
C984 C981 1.463 1_545 S
C984 N988 1.427 . S
C985 H975 0.929 . S
C985 C983 1.433 . S
C985 N988 1.384 . S
C986 H977 0.929 . S
C986 C978 1.378 . S
C986 C981 1.350 . S
C987 H974 0.929 . S
C987 C979 1.433 . S
C987 N989 1.384 . S
N988 C984 1.427 . S
N988 C985 1.384 . S
N989 C981 1.427 . S
N989 C987 1.384 . S
H990 C996 0.930 . S
H991 C1000 0.930 . S
H992 C1005 0.929 . S
H993 C1003 0.929 . S
H994 C998 0.929 . S
H995 C1004 0.929 . S
C996 H990 0.930 . S
C996 C997 1.367 . S
C996 C1004 1.378 . S
C997 C996 1.367 . S
C997 C1005 1.433 . S
C998 H994 0.929 . S
C998 C1000 1.378 . S
C998 C1002 1.350 . S
C999 C1002 1.463 . S
C999 C1004 1.350 . S
C999 N1007 1.427 . S
C1000 H991 0.930 . S
C1000 C998 1.378 . S
C1000 C1001 1.367 . S
C1001 C1000 1.367 . S
C1001 C1003 1.433 . S
C1002 C998 1.350 . S
C1002 C999 1.463 . S
C1002 N1006 1.427 . S
C1003 H993 0.929 . S
C1003 C1001 1.433 . S
C1003 N1006 1.384 . S
C1004 H995 0.929 . S
C1004 C996 1.378 . S
C1004 C999 1.350 . S
C1005 H992 0.929 . S
C1005 C997 1.433 . S
C1005 N1007 1.384 . S
N1006 C1002 1.427 . S
N1006 C1003 1.384 . S
N1007 C999 1.427 . S
N1007 C1005 1.384 . S
H1008 C1014 0.930 . S
H1009 C1018 0.930 . S
H1010 C1023 0.929 . S
H1011 C1021 0.929 . S
H1012 C1016 0.929 . S
H1013 C1022 0.929 . S
C1014 H1008 0.930 . S
C1014 C1015 1.367 . S
C1014 C1022 1.378 . S
C1015 C1014 1.367 . S
C1015 C1023 1.433 . S
C1016 H1012 0.929 . S
C1016 C1018 1.378 . S
C1016 C1020 1.350 . S
C1017 C1020 1.463 1_655 S
C1017 C1022 1.350 . S
C1017 N1025 1.427 . S
C1018 H1009 0.930 . S
C1018 C1016 1.378 . S
C1018 C1019 1.367 . S
C1019 C1018 1.367 . S
C1019 C1021 1.433 . S
C1020 C1016 1.350 . S
C1020 C1017 1.463 1_455 S
C1020 N1024 1.427 . S
C1021 H1011 0.929 . S
C1021 C1019 1.433 . S
C1021 N1024 1.384 . S
C1022 H1013 0.929 . S
C1022 C1014 1.378 . S
C1022 C1017 1.350 . S
C1023 H1010 0.929 . S
C1023 C1015 1.433 . S
C1023 N1025 1.384 . S
N1024 C1020 1.427 . S
N1024 C1021 1.384 . S
N1025 C1017 1.427 . S
N1025 C1023 1.384 . S
H1026 C1032 0.930 . S
H1027 C1036 0.930 . S
H1028 C1041 0.929 . S
H1029 C1039 0.929 . S
H1030 C1034 0.929 . S
H1031 C1040 0.929 . S
C1032 H1026 0.930 . S
C1032 C1033 1.367 . S
C1032 C1040 1.378 . S
C1033 C1032 1.367 . S
C1033 C1041 1.433 . S
C1034 H1030 0.929 . S
C1034 C1036 1.378 . S
C1034 C1038 1.350 . S
C1035 C1038 1.463 1_545 S
C1035 C1040 1.350 . S
C1035 N1043 1.427 . S
C1036 H1027 0.930 . S
C1036 C1034 1.378 . S
C1036 C1037 1.367 . S
C1037 C1036 1.367 . S
C1037 C1039 1.433 . S
C1038 C1034 1.350 . S
C1038 C1035 1.463 1_565 S
C1038 N1042 1.427 . S
C1039 H1029 0.929 . S
C1039 C1037 1.433 . S
C1039 N1042 1.384 . S
C1040 H1031 0.929 . S
C1040 C1032 1.378 . S
C1040 C1035 1.350 . S
C1041 H1028 0.929 . S
C1041 C1033 1.433 . S
C1041 N1043 1.384 . S
N1042 C1038 1.427 . S
N1042 C1039 1.384 . S
N1043 C1035 1.427 . S
N1043 C1041 1.384 . S
H1044 C1050 0.930 . S
H1045 C1054 0.930 . S
H1046 C1059 0.929 . S
H1047 C1057 0.929 . S
H1048 C1052 0.929 . S
H1049 C1058 0.929 . S
C1050 H1044 0.930 . S
C1050 C1051 1.367 . S
C1050 C1058 1.378 . S
C1051 C1050 1.367 . S
C1051 C1059 1.433 . S
C1052 H1048 0.929 . S
C1052 C1054 1.378 . S
C1052 C1056 1.350 . S
C1053 C1056 1.463 . S
C1053 C1058 1.350 . S
C1053 N1061 1.427 . S
C1054 H1045 0.930 . S
C1054 C1052 1.378 . S
C1054 C1055 1.367 . S
C1055 C1054 1.367 . S
C1055 C1057 1.433 . S
C1056 C1052 1.350 . S
C1056 C1053 1.463 . S
C1056 N1060 1.427 . S
C1057 H1047 0.929 . S
C1057 C1055 1.433 . S
C1057 N1060 1.384 . S
C1058 H1049 0.929 . S
C1058 C1050 1.378 . S
C1058 C1053 1.350 . S
C1059 H1046 0.929 . S
C1059 C1051 1.433 . S
C1059 N1061 1.384 . S
N1060 C1056 1.427 . S
N1060 C1057 1.384 . S
N1061 C1053 1.427 . S
N1061 C1059 1.384 . S
H1062 C1068 0.930 . S
H1063 C1072 0.930 . S
H1064 C1077 0.929 . S
H1065 C1075 0.929 . S
H1066 C1070 0.929 . S
H1067 C1076 0.929 . S
C1068 H1062 0.930 . S
C1068 C1069 1.367 . S
C1068 C1076 1.378 . S
C1069 C1068 1.367 . S
C1069 C1077 1.433 . S
C1070 H1066 0.929 . S
C1070 C1072 1.378 . S
C1070 C1074 1.350 . S
C1071 C1074 1.463 1_455 S
C1071 C1076 1.350 . S
C1071 N1079 1.427 . S
C1072 H1063 0.930 . S
C1072 C1070 1.378 . S
C1072 C1073 1.367 . S
C1073 C1072 1.367 . S
C1073 C1075 1.433 . S
C1074 C1070 1.350 . S
C1074 C1071 1.463 1_655 S
C1074 N1078 1.427 . S
C1075 H1065 0.929 . S
C1075 C1073 1.433 . S
C1075 N1078 1.384 . S
C1076 H1067 0.929 . S
C1076 C1068 1.378 . S
C1076 C1071 1.350 . S
C1077 H1064 0.929 . S
C1077 C1069 1.433 . S
C1077 N1079 1.384 . S
N1078 C1074 1.427 . S
N1078 C1075 1.384 . S
N1079 C1071 1.427 . S
N1079 C1077 1.384 . S
H1080 C1086 0.930 . S
H1081 C1090 0.930 . S
H1082 C1095 0.929 . S
H1083 C1093 0.929 . S
H1084 C1088 0.929 . S
H1085 C1094 0.929 . S
C1086 H1080 0.930 . S
C1086 C1087 1.367 . S
C1086 C1094 1.378 . S
C1087 C1086 1.367 . S
C1087 C1095 1.433 . S
C1088 H1084 0.929 . S
C1088 C1090 1.378 . S
C1088 C1092 1.350 . S
C1089 C1092 1.463 . S
C1089 C1094 1.350 . S
C1089 N1097 1.427 . S
C1090 H1081 0.930 . S
C1090 C1088 1.378 . S
C1090 C1091 1.367 . S
C1091 C1090 1.367 . S
C1091 C1093 1.433 . S
C1092 C1088 1.350 . S
C1092 C1089 1.463 . S
C1092 N1096 1.427 . S
C1093 H1083 0.929 . S
C1093 C1091 1.433 . S
C1093 N1096 1.384 . S
C1094 H1085 0.929 . S
C1094 C1086 1.378 . S
C1094 C1089 1.350 . S
C1095 H1082 0.929 . S
C1095 C1087 1.433 . S
C1095 N1097 1.384 . S
N1096 C1092 1.427 . S
N1096 C1093 1.384 . S
N1097 C1089 1.427 . S
N1097 C1095 1.384 . S
H1098 C1104 0.930 . S
H1099 C1108 0.930 . S
H1100 C1113 0.929 . S
H1101 C1111 0.929 . S
H1102 C1106 0.929 . S
H1103 C1112 0.929 . S
C1104 H1098 0.930 . S
C1104 C1105 1.367 . S
C1104 C1112 1.378 . S
C1105 C1104 1.367 . S
C1105 C1113 1.433 . S
C1106 H1102 0.929 . S
C1106 C1108 1.378 . S
C1106 C1110 1.350 . S
C1107 C1110 1.463 . S
C1107 C1112 1.350 . S
C1107 N1115 1.427 . S
C1108 H1099 0.930 . S
C1108 C1106 1.378 . S
C1108 C1109 1.367 . S
C1109 C1108 1.367 . S
C1109 C1111 1.433 . S
C1110 C1106 1.350 . S
C1110 C1107 1.463 . S
C1110 N1114 1.427 . S
C1111 H1101 0.929 . S
C1111 C1109 1.433 . S
C1111 N1114 1.384 . S
C1112 H1103 0.929 . S
C1112 C1104 1.378 . S
C1112 C1107 1.350 . S
C1113 H1100 0.929 . S
C1113 C1105 1.433 . S
C1113 N1115 1.384 . S
N1114 C1110 1.427 . S
N1114 C1111 1.384 . S
N1115 C1107 1.427 . S
N1115 C1113 1.384 . S
H1116 C1122 0.930 . S
H1117 C1126 0.930 . S
H1118 C1131 0.929 . S
H1119 C1129 0.929 . S
H1120 C1124 0.929 . S
H1121 C1130 0.929 . S
C1122 H1116 0.930 . S
C1122 C1123 1.367 . S
C1122 C1130 1.378 . S
C1123 C1122 1.367 . S
C1123 C1131 1.433 . S
C1124 H1120 0.929 . S
C1124 C1126 1.378 . S
C1124 C1128 1.350 . S
C1125 C1128 1.463 . S
C1125 C1130 1.350 . S
C1125 N1133 1.427 . S
C1126 H1117 0.930 . S
C1126 C1124 1.378 . S
C1126 C1127 1.367 . S
C1127 C1126 1.367 . S
C1127 C1129 1.433 . S
C1128 C1124 1.350 . S
C1128 C1125 1.463 . S
C1128 N1132 1.427 . S
C1129 H1119 0.929 . S
C1129 C1127 1.433 . S
C1129 N1132 1.384 . S
C1130 H1121 0.929 . S
C1130 C1122 1.378 . S
C1130 C1125 1.350 . S
C1131 H1118 0.929 . S
C1131 C1123 1.433 . S
C1131 N1133 1.384 . S
N1132 C1128 1.427 . S
N1132 C1129 1.384 . S
N1133 C1125 1.427 . S
N1133 C1131 1.384 . S
H1134 C1140 0.930 . S
H1135 C1144 0.930 . S
H1136 C1149 0.929 . S
H1137 C1147 0.929 . S
H1138 C1142 0.929 . S
H1139 C1148 0.929 . S
C1140 H1134 0.930 . S
C1140 C1141 1.367 . S
C1140 C1148 1.378 . S
C1141 C1140 1.367 . S
C1141 C1149 1.433 . S
C1142 H1138 0.929 . S
C1142 C1144 1.378 . S
C1142 C1146 1.350 . S
C1143 C1146 1.463 . S
C1143 C1148 1.350 . S
C1143 N1151 1.427 . S
C1144 H1135 0.930 . S
C1144 C1142 1.378 . S
C1144 C1145 1.367 . S
C1145 C1144 1.367 . S
C1145 C1147 1.433 . S
C1146 C1142 1.350 . S
C1146 C1143 1.463 . S
C1146 N1150 1.427 . S
C1147 H1137 0.929 . S
C1147 C1145 1.433 . S
C1147 N1150 1.384 . S
C1148 H1139 0.929 . S
C1148 C1140 1.378 . S
C1148 C1143 1.350 . S
C1149 H1136 0.929 . S
C1149 C1141 1.433 . S
C1149 N1151 1.384 . S
N1150 C1146 1.427 . S
N1150 C1147 1.384 . S
N1151 C1143 1.427 . S
N1151 C1149 1.384 . S
H1152 C1158 0.930 . S
H1153 C1162 0.930 . S
H1154 C1167 0.929 . S
H1155 C1165 0.929 . S
H1156 C1160 0.929 . S
H1157 C1166 0.929 . S
C1158 H1152 0.930 . S
C1158 C1159 1.367 . S
C1158 C1166 1.378 . S
C1159 C1158 1.367 . S
C1159 C1167 1.433 . S
C1160 H1156 0.929 . S
C1160 C1162 1.378 . S
C1160 C1164 1.350 . S
C1161 C1164 1.463 . S
C1161 C1166 1.350 . S
C1161 N1169 1.427 . S
C1162 H1153 0.930 . S
C1162 C1160 1.378 . S
C1162 C1163 1.367 . S
C1163 C1162 1.367 . S
C1163 C1165 1.433 . S
C1164 C1160 1.350 . S
C1164 C1161 1.463 . S
C1164 N1168 1.427 . S
C1165 H1155 0.929 . S
C1165 C1163 1.433 . S
C1165 N1168 1.384 . S
C1166 H1157 0.929 . S
C1166 C1158 1.378 . S
C1166 C1161 1.350 . S
C1167 H1154 0.929 . S
C1167 C1159 1.433 . S
C1167 N1169 1.384 . S
N1168 C1164 1.427 . S
N1168 C1165 1.384 . S
N1169 C1161 1.427 . S
N1169 C1167 1.384 . S
H1170 C1176 0.930 . S
H1171 C1180 0.930 . S
H1172 C1185 0.929 . S
H1173 C1183 0.929 . S
H1174 C1178 0.929 . S
H1175 C1184 0.929 . S
C1176 H1170 0.930 . S
C1176 C1177 1.367 . S
C1176 C1184 1.378 . S
C1177 C1176 1.367 . S
C1177 C1185 1.433 . S
C1178 H1174 0.929 . S
C1178 C1180 1.378 . S
C1178 C1182 1.350 . S
C1179 C1182 1.463 . S
C1179 C1184 1.350 . S
C1179 N1187 1.427 . S
C1180 H1171 0.930 . S
C1180 C1178 1.378 . S
C1180 C1181 1.367 . S
C1181 C1180 1.367 . S
C1181 C1183 1.433 . S
C1182 C1178 1.350 . S
C1182 C1179 1.463 . S
C1182 N1186 1.427 . S
C1183 H1173 0.929 . S
C1183 C1181 1.433 . S
C1183 N1186 1.384 . S
C1184 H1175 0.929 . S
C1184 C1176 1.378 . S
C1184 C1179 1.350 . S
C1185 H1172 0.929 . S
C1185 C1177 1.433 . S
C1185 N1187 1.384 . S
N1186 C1182 1.427 . S
N1186 C1183 1.384 . S
N1187 C1179 1.427 . S
N1187 C1185 1.384 . S
H1188 C1194 0.930 . S
H1189 C1198 0.930 . S
H1190 C1203 0.929 . S
H1191 C1201 0.929 . S
H1192 C1196 0.929 . S
H1193 C1202 0.929 . S
C1194 H1188 0.930 . S
C1194 C1195 1.367 . S
C1194 C1202 1.378 . S
C1195 C1194 1.367 . S
C1195 C1203 1.433 . S
C1196 H1192 0.929 . S
C1196 C1198 1.378 . S
C1196 C1200 1.350 . S
C1197 C1200 1.463 . S
C1197 C1202 1.350 . S
C1197 N1205 1.427 . S
C1198 H1189 0.930 . S
C1198 C1196 1.378 . S
C1198 C1199 1.367 . S
C1199 C1198 1.367 . S
C1199 C1201 1.433 . S
C1200 C1196 1.350 . S
C1200 C1197 1.463 . S
C1200 N1204 1.427 . S
C1201 H1191 0.929 . S
C1201 C1199 1.433 . S
C1201 N1204 1.384 . S
C1202 H1193 0.929 . S
C1202 C1194 1.378 . S
C1202 C1197 1.350 . S
C1203 H1190 0.929 . S
C1203 C1195 1.433 . S
C1203 N1205 1.384 . S
N1204 C1200 1.427 . S
N1204 C1201 1.384 . S
N1205 C1197 1.427 . S
N1205 C1203 1.384 . S
H1206 C1212 0.930 . S
H1207 C1216 0.930 . S
H1208 C1221 0.929 . S
H1209 C1219 0.929 . S
H1210 C1214 0.929 . S
H1211 C1220 0.929 . S
C1212 H1206 0.930 . S
C1212 C1213 1.367 . S
C1212 C1220 1.378 . S
C1213 C1212 1.367 . S
C1213 C1221 1.433 . S
C1214 H1210 0.929 . S
C1214 C1216 1.378 . S
C1214 C1218 1.350 . S
C1215 C1218 1.463 . S
C1215 C1220 1.350 . S
C1215 N1223 1.427 . S
C1216 H1207 0.930 . S
C1216 C1214 1.378 . S
C1216 C1217 1.367 . S
C1217 C1216 1.367 . S
C1217 C1219 1.433 . S
C1218 C1214 1.350 . S
C1218 C1215 1.463 . S
C1218 N1222 1.427 . S
C1219 H1209 0.929 . S
C1219 C1217 1.433 . S
C1219 N1222 1.384 . S
C1220 H1211 0.929 . S
C1220 C1212 1.378 . S
C1220 C1215 1.350 . S
C1221 H1208 0.929 . S
C1221 C1213 1.433 . S
C1221 N1223 1.384 . S
N1222 C1218 1.427 . S
N1222 C1219 1.384 . S
N1223 C1215 1.427 . S
N1223 C1221 1.384 . S
H1224 C1230 0.930 . S
H1225 C1234 0.930 . S
H1226 C1239 0.929 . S
H1227 C1237 0.929 . S
H1228 C1232 0.929 . S
H1229 C1238 0.929 . S
C1230 H1224 0.930 . S
C1230 C1231 1.367 . S
C1230 C1238 1.378 . S
C1231 C1230 1.367 . S
C1231 C1239 1.433 . S
C1232 H1228 0.929 . S
C1232 C1234 1.378 . S
C1232 C1236 1.350 . S
C1233 C1236 1.463 . S
C1233 C1238 1.350 . S
C1233 N1241 1.427 . S
C1234 H1225 0.930 . S
C1234 C1232 1.378 . S
C1234 C1235 1.367 . S
C1235 C1234 1.367 . S
C1235 C1237 1.433 . S
C1236 C1232 1.350 . S
C1236 C1233 1.463 . S
C1236 N1240 1.427 . S
C1237 H1227 0.929 . S
C1237 C1235 1.433 . S
C1237 N1240 1.384 . S
C1238 H1229 0.929 . S
C1238 C1230 1.378 . S
C1238 C1233 1.350 . S
C1239 H1226 0.929 . S
C1239 C1231 1.433 . S
C1239 N1241 1.384 . S
N1240 C1236 1.427 . S
N1240 C1237 1.384 . S
N1241 C1233 1.427 . S
N1241 C1239 1.384 . S
H1242 C1248 0.930 . S
H1243 C1252 0.930 . S
H1244 C1257 0.929 . S
H1245 C1255 0.929 . S
H1246 C1250 0.929 . S
H1247 C1256 0.929 . S
C1248 H1242 0.930 . S
C1248 C1249 1.367 . S
C1248 C1256 1.378 . S
C1249 C1248 1.367 . S
C1249 C1257 1.433 . S
C1250 H1246 0.929 . S
C1250 C1252 1.378 . S
C1250 C1254 1.350 . S
C1251 C1254 1.463 . S
C1251 C1256 1.350 . S
C1251 N1259 1.427 . S
C1252 H1243 0.930 . S
C1252 C1250 1.378 . S
C1252 C1253 1.367 . S
C1253 C1252 1.367 . S
C1253 C1255 1.433 . S
C1254 C1250 1.350 . S
C1254 C1251 1.463 . S
C1254 N1258 1.427 . S
C1255 H1245 0.929 . S
C1255 C1253 1.433 . S
C1255 N1258 1.384 . S
C1256 H1247 0.929 . S
C1256 C1248 1.378 . S
C1256 C1251 1.350 . S
C1257 H1244 0.929 . S
C1257 C1249 1.433 . S
C1257 N1259 1.384 . S
N1258 C1254 1.427 . S
N1258 C1255 1.384 . S
N1259 C1251 1.427 . S
N1259 C1257 1.384 . S
H1260 C1266 0.930 . S
H1261 C1270 0.930 . S
H1262 C1275 0.929 . S
H1263 C1273 0.929 . S
H1264 C1268 0.929 . S
H1265 C1274 0.929 . S
C1266 H1260 0.930 . S
C1266 C1267 1.367 . S
C1266 C1274 1.378 . S
C1267 C1266 1.367 . S
C1267 C1275 1.433 . S
C1268 H1264 0.929 . S
C1268 C1270 1.378 . S
C1268 C1272 1.350 . S
C1269 C1272 1.463 . S
C1269 C1274 1.350 . S
C1269 N1277 1.427 . S
C1270 H1261 0.930 . S
C1270 C1268 1.378 . S
C1270 C1271 1.367 . S
C1271 C1270 1.367 . S
C1271 C1273 1.433 . S
C1272 C1268 1.350 . S
C1272 C1269 1.463 . S
C1272 N1276 1.427 . S
C1273 H1263 0.929 . S
C1273 C1271 1.433 . S
C1273 N1276 1.384 . S
C1274 H1265 0.929 . S
C1274 C1266 1.378 . S
C1274 C1269 1.350 . S
C1275 H1262 0.929 . S
C1275 C1267 1.433 . S
C1275 N1277 1.384 . S
N1276 C1272 1.427 . S
N1276 C1273 1.384 . S
N1277 C1269 1.427 . S
N1277 C1275 1.384 . S
H1278 C1284 0.930 . S
H1279 C1288 0.930 . S
H1280 C1293 0.929 . S
H1281 C1291 0.929 . S
H1282 C1286 0.929 . S
H1283 C1292 0.929 . S
C1284 H1278 0.930 . S
C1284 C1285 1.367 . S
C1284 C1292 1.378 . S
C1285 C1284 1.367 . S
C1285 C1293 1.433 . S
C1286 H1282 0.929 . S
C1286 C1288 1.378 . S
C1286 C1290 1.350 . S
C1287 C1290 1.463 . S
C1287 C1292 1.350 . S
C1287 N1295 1.427 . S
C1288 H1279 0.930 . S
C1288 C1286 1.378 . S
C1288 C1289 1.367 . S
C1289 C1288 1.367 . S
C1289 C1291 1.433 . S
C1290 C1286 1.350 . S
C1290 C1287 1.463 . S
C1290 N1294 1.427 . S
C1291 H1281 0.929 . S
C1291 C1289 1.433 . S
C1291 N1294 1.384 . S
C1292 H1283 0.929 . S
C1292 C1284 1.378 . S
C1292 C1287 1.350 . S
C1293 H1280 0.929 . S
C1293 C1285 1.433 . S
C1293 N1295 1.384 . S
N1294 C1290 1.427 . S
N1294 C1291 1.384 . S
N1295 C1287 1.427 . S
N1295 C1293 1.384 . S
H1296 C1302 0.930 . S
H1297 C1306 0.930 . S
H1298 C1311 0.929 . S
H1299 C1309 0.929 . S
H1300 C1304 0.929 . S
H1301 C1310 0.929 . S
C1302 H1296 0.930 . S
C1302 C1303 1.367 . S
C1302 C1310 1.378 . S
C1303 C1302 1.367 . S
C1303 C1311 1.433 . S
C1304 H1300 0.929 . S
C1304 C1306 1.378 . S
C1304 C1308 1.350 . S
C1305 C1308 1.463 1_554 S
C1305 C1310 1.350 . S
C1305 N1313 1.427 . S
C1306 H1297 0.930 . S
C1306 C1304 1.378 . S
C1306 C1307 1.367 . S
C1307 C1306 1.367 . S
C1307 C1309 1.433 . S
C1308 C1304 1.350 . S
C1308 C1305 1.463 1_556 S
C1308 N1312 1.427 . S
C1309 H1299 0.929 . S
C1309 C1307 1.433 . S
C1309 N1312 1.384 . S
C1310 H1301 0.929 . S
C1310 C1302 1.378 . S
C1310 C1305 1.350 . S
C1311 H1298 0.929 . S
C1311 C1303 1.433 . S
C1311 N1313 1.384 . S
N1312 C1308 1.427 . S
N1312 C1309 1.384 . S
N1313 C1305 1.427 . S
N1313 C1311 1.384 . S
H1314 C1320 0.930 . S
H1315 C1324 0.930 . S
H1316 C1329 0.929 . S
H1317 C1327 0.929 . S
H1318 C1322 0.929 . S
H1319 C1328 0.929 . S
C1320 H1314 0.930 . S
C1320 C1321 1.367 . S
C1320 C1328 1.378 . S
C1321 C1320 1.367 . S
C1321 C1329 1.433 . S
C1322 H1318 0.929 . S
C1322 C1324 1.378 . S
C1322 C1326 1.350 . S
C1323 C1326 1.463 1_556 S
C1323 C1328 1.350 . S
C1323 N1331 1.427 . S
C1324 H1315 0.930 . S
C1324 C1322 1.378 . S
C1324 C1325 1.367 . S
C1325 C1324 1.367 . S
C1325 C1327 1.433 . S
C1326 C1322 1.350 . S
C1326 C1323 1.463 1_554 S
C1326 N1330 1.427 . S
C1327 H1317 0.929 . S
C1327 C1325 1.433 . S
C1327 N1330 1.384 . S
C1328 H1319 0.929 . S
C1328 C1320 1.378 . S
C1328 C1323 1.350 . S
C1329 H1316 0.929 . S
C1329 C1321 1.433 . S
C1329 N1331 1.384 . S
N1330 C1326 1.427 . S
N1330 C1327 1.384 . S
N1331 C1323 1.427 . S
N1331 C1329 1.384 . S
H1332 C1338 0.930 . S
H1333 C1342 0.930 . S
H1334 C1347 0.929 . S
H1335 C1345 0.929 . S
H1336 C1340 0.929 . S
H1337 C1346 0.929 . S
C1338 H1332 0.930 . S
C1338 C1339 1.367 . S
C1338 C1346 1.378 . S
C1339 C1338 1.367 . S
C1339 C1347 1.433 . S
C1340 H1336 0.929 . S
C1340 C1342 1.378 . S
C1340 C1344 1.350 . S
C1341 C1344 1.463 1_556 S
C1341 C1346 1.350 . S
C1341 N1349 1.427 . S
C1342 H1333 0.930 . S
C1342 C1340 1.378 . S
C1342 C1343 1.367 . S
C1343 C1342 1.367 . S
C1343 C1345 1.433 . S
C1344 C1340 1.350 . S
C1344 C1341 1.463 1_554 S
C1344 N1348 1.427 . S
C1345 H1335 0.929 . S
C1345 C1343 1.433 . S
C1345 N1348 1.384 . S
C1346 H1337 0.929 . S
C1346 C1338 1.378 . S
C1346 C1341 1.350 . S
C1347 H1334 0.929 . S
C1347 C1339 1.433 . S
C1347 N1349 1.384 . S
N1348 C1344 1.427 . S
N1348 C1345 1.384 . S
N1349 C1341 1.427 . S
N1349 C1347 1.384 . S
H1350 C1356 0.930 . S
H1351 C1360 0.930 . S
H1352 C1365 0.929 . S
H1353 C1363 0.929 . S
H1354 C1358 0.929 . S
H1355 C1364 0.929 . S
C1356 H1350 0.930 . S
C1356 C1357 1.367 . S
C1356 C1364 1.378 . S
C1357 C1356 1.367 . S
C1357 C1365 1.433 . S
C1358 H1354 0.929 . S
C1358 C1360 1.378 . S
C1358 C1362 1.350 . S
C1359 C1362 1.463 1_554 S
C1359 C1364 1.350 . S
C1359 N1367 1.427 . S
C1360 H1351 0.930 . S
C1360 C1358 1.378 . S
C1360 C1361 1.367 . S
C1361 C1360 1.367 . S
C1361 C1363 1.433 . S
C1362 C1358 1.350 . S
C1362 C1359 1.463 1_556 S
C1362 N1366 1.427 . S
C1363 H1353 0.929 . S
C1363 C1361 1.433 . S
C1363 N1366 1.384 . S
C1364 H1355 0.929 . S
C1364 C1356 1.378 . S
C1364 C1359 1.350 . S
C1365 H1352 0.929 . S
C1365 C1357 1.433 . S
C1365 N1367 1.384 . S
N1366 C1362 1.427 . S
N1366 C1363 1.384 . S
N1367 C1359 1.427 . S
N1367 C1365 1.384 . S
H1368 C1374 0.930 . S
H1369 C1378 0.930 . S
H1370 C1383 0.929 . S
H1371 C1381 0.929 . S
H1372 C1376 0.929 . S
H1373 C1382 0.929 . S
C1374 H1368 0.930 . S
C1374 C1375 1.367 . S
C1374 C1382 1.378 . S
C1375 C1374 1.367 . S
C1375 C1383 1.433 . S
C1376 H1372 0.929 . S
C1376 C1378 1.378 . S
C1376 C1380 1.350 . S
C1377 C1380 1.463 1_554 S
C1377 C1382 1.350 . S
C1377 N1385 1.427 . S
C1378 H1369 0.930 . S
C1378 C1376 1.378 . S
C1378 C1379 1.367 . S
C1379 C1378 1.367 . S
C1379 C1381 1.433 . S
C1380 C1376 1.350 . S
C1380 C1377 1.463 1_556 S
C1380 N1384 1.427 . S
C1381 H1371 0.929 . S
C1381 C1379 1.433 . S
C1381 N1384 1.384 . S
C1382 H1373 0.929 . S
C1382 C1374 1.378 . S
C1382 C1377 1.350 . S
C1383 H1370 0.929 . S
C1383 C1375 1.433 . S
C1383 N1385 1.384 . S
N1384 C1380 1.427 . S
N1384 C1381 1.384 . S
N1385 C1377 1.427 . S
N1385 C1383 1.384 . S
H1386 C1392 0.930 . S
H1387 C1396 0.930 . S
H1388 C1401 0.929 . S
H1389 C1399 0.929 . S
H1390 C1394 0.929 . S
H1391 C1400 0.929 . S
C1392 H1386 0.930 . S
C1392 C1393 1.367 . S
C1392 C1400 1.378 . S
C1393 C1392 1.367 . S
C1393 C1401 1.433 . S
C1394 H1390 0.929 . S
C1394 C1396 1.378 . S
C1394 C1398 1.350 . S
C1395 C1398 1.463 1_556 S
C1395 C1400 1.350 . S
C1395 N1403 1.427 . S
C1396 H1387 0.930 . S
C1396 C1394 1.378 . S
C1396 C1397 1.367 . S
C1397 C1396 1.367 . S
C1397 C1399 1.433 . S
C1398 C1394 1.350 . S
C1398 C1395 1.463 1_554 S
C1398 N1402 1.427 . S
C1399 H1389 0.929 . S
C1399 C1397 1.433 . S
C1399 N1402 1.384 . S
C1400 H1391 0.929 . S
C1400 C1392 1.378 . S
C1400 C1395 1.350 . S
C1401 H1388 0.929 . S
C1401 C1393 1.433 . S
C1401 N1403 1.384 . S
N1402 C1398 1.427 . S
N1402 C1399 1.384 . S
N1403 C1395 1.427 . S
N1403 C1401 1.384 . S
H1404 C1410 0.930 . S
H1405 C1414 0.930 . S
H1406 C1419 0.929 . S
H1407 C1417 0.929 . S
H1408 C1412 0.929 . S
H1409 C1418 0.929 . S
C1410 H1404 0.930 . S
C1410 C1411 1.367 . S
C1410 C1418 1.378 . S
C1411 C1410 1.367 . S
C1411 C1419 1.433 . S
C1412 H1408 0.929 . S
C1412 C1414 1.378 . S
C1412 C1416 1.350 . S
C1413 C1416 1.463 . S
C1413 C1418 1.350 . S
C1413 N1421 1.427 . S
C1414 H1405 0.930 . S
C1414 C1412 1.378 . S
C1414 C1415 1.367 . S
C1415 C1414 1.367 . S
C1415 C1417 1.433 . S
C1416 C1412 1.350 . S
C1416 C1413 1.463 . S
C1416 N1420 1.427 . S
C1417 H1407 0.929 . S
C1417 C1415 1.433 . S
C1417 N1420 1.384 . S
C1418 H1409 0.929 . S
C1418 C1410 1.378 . S
C1418 C1413 1.350 . S
C1419 H1406 0.929 . S
C1419 C1411 1.433 . S
C1419 N1421 1.384 . S
N1420 C1416 1.427 . S
N1420 C1417 1.384 . S
N1421 C1413 1.427 . S
N1421 C1419 1.384 . S
H1422 C1428 0.930 . S
H1423 C1432 0.930 . S
H1424 C1437 0.929 . S
H1425 C1435 0.929 . S
H1426 C1430 0.929 . S
H1427 C1436 0.929 . S
C1428 H1422 0.930 . S
C1428 C1429 1.367 . S
C1428 C1436 1.378 . S
C1429 C1428 1.367 . S
C1429 C1437 1.433 . S
C1430 H1426 0.929 . S
C1430 C1432 1.378 . S
C1430 C1434 1.350 . S
C1431 C1434 1.463 . S
C1431 C1436 1.350 . S
C1431 N1439 1.427 . S
C1432 H1423 0.930 . S
C1432 C1430 1.378 . S
C1432 C1433 1.367 . S
C1433 C1432 1.367 . S
C1433 C1435 1.433 . S
C1434 C1430 1.350 . S
C1434 C1431 1.463 . S
C1434 N1438 1.427 . S
C1435 H1425 0.929 . S
C1435 C1433 1.433 . S
C1435 N1438 1.384 . S
C1436 H1427 0.929 . S
C1436 C1428 1.378 . S
C1436 C1431 1.350 . S
C1437 H1424 0.929 . S
C1437 C1429 1.433 . S
C1437 N1439 1.384 . S
N1438 C1434 1.427 . S
N1438 C1435 1.384 . S
N1439 C1431 1.427 . S
N1439 C1437 1.384 . S
H1440 C1446 0.930 . S
H1441 C1450 0.930 . S
H1442 C1455 0.929 . S
H1443 C1453 0.929 . S
H1444 C1448 0.929 . S
H1445 C1454 0.929 . S
C1446 H1440 0.930 . S
C1446 C1447 1.367 . S
C1446 C1454 1.378 . S
C1447 C1446 1.367 . S
C1447 C1455 1.433 . S
C1448 H1444 0.929 . S
C1448 C1450 1.378 . S
C1448 C1452 1.350 . S
C1449 C1452 1.463 . S
C1449 C1454 1.350 . S
C1449 N1457 1.427 . S
C1450 H1441 0.930 . S
C1450 C1448 1.378 . S
C1450 C1451 1.367 . S
C1451 C1450 1.367 . S
C1451 C1453 1.433 . S
C1452 C1448 1.350 . S
C1452 C1449 1.463 . S
C1452 N1456 1.427 . S
C1453 H1443 0.929 . S
C1453 C1451 1.433 . S
C1453 N1456 1.384 . S
C1454 H1445 0.929 . S
C1454 C1446 1.378 . S
C1454 C1449 1.350 . S
C1455 H1442 0.929 . S
C1455 C1447 1.433 . S
C1455 N1457 1.384 . S
N1456 C1452 1.427 . S
N1456 C1453 1.384 . S
N1457 C1449 1.427 . S
N1457 C1455 1.384 . S
H1458 C1464 0.930 . S
H1459 C1468 0.930 . S
H1460 C1473 0.929 . S
H1461 C1471 0.929 . S
H1462 C1466 0.929 . S
H1463 C1472 0.929 . S
C1464 H1458 0.930 . S
C1464 C1465 1.367 . S
C1464 C1472 1.378 . S
C1465 C1464 1.367 . S
C1465 C1473 1.433 . S
C1466 H1462 0.929 . S
C1466 C1468 1.378 . S
C1466 C1470 1.350 . S
C1467 C1470 1.463 . S
C1467 C1472 1.350 . S
C1467 N1475 1.427 . S
C1468 H1459 0.930 . S
C1468 C1466 1.378 . S
C1468 C1469 1.367 . S
C1469 C1468 1.367 . S
C1469 C1471 1.433 . S
C1470 C1466 1.350 . S
C1470 C1467 1.463 . S
C1470 N1474 1.427 . S
C1471 H1461 0.929 . S
C1471 C1469 1.433 . S
C1471 N1474 1.384 . S
C1472 H1463 0.929 . S
C1472 C1464 1.378 . S
C1472 C1467 1.350 . S
C1473 H1460 0.929 . S
C1473 C1465 1.433 . S
C1473 N1475 1.384 . S
N1474 C1470 1.427 . S
N1474 C1471 1.384 . S
N1475 C1467 1.427 . S
N1475 C1473 1.384 . S
H1476 C1482 0.930 . S
H1477 C1486 0.930 . S
H1478 C1491 0.929 . S
H1479 C1489 0.929 . S
H1480 C1484 0.929 . S
H1481 C1490 0.929 . S
C1482 H1476 0.930 . S
C1482 C1483 1.367 . S
C1482 C1490 1.378 . S
C1483 C1482 1.367 . S
C1483 C1491 1.433 . S
C1484 H1480 0.929 . S
C1484 C1486 1.378 . S
C1484 C1488 1.350 . S
C1485 C1488 1.463 . S
C1485 C1490 1.350 . S
C1485 N1493 1.427 . S
C1486 H1477 0.930 . S
C1486 C1484 1.378 . S
C1486 C1487 1.367 . S
C1487 C1486 1.367 . S
C1487 C1489 1.433 . S
C1488 C1484 1.350 . S
C1488 C1485 1.463 . S
C1488 N1492 1.427 . S
C1489 H1479 0.929 . S
C1489 C1487 1.433 . S
C1489 N1492 1.384 . S
C1490 H1481 0.929 . S
C1490 C1482 1.378 . S
C1490 C1485 1.350 . S
C1491 H1478 0.929 . S
C1491 C1483 1.433 . S
C1491 N1493 1.384 . S
N1492 C1488 1.427 . S
N1492 C1489 1.384 . S
N1493 C1485 1.427 . S
N1493 C1491 1.384 . S
H1494 C1500 0.930 . S
H1495 C1504 0.930 . S
H1496 C1509 0.929 . S
H1497 C1507 0.929 . S
H1498 C1502 0.929 . S
H1499 C1508 0.929 . S
C1500 H1494 0.930 . S
C1500 C1501 1.367 . S
C1500 C1508 1.378 . S
C1501 C1500 1.367 . S
C1501 C1509 1.433 . S
C1502 H1498 0.929 . S
C1502 C1504 1.378 . S
C1502 C1506 1.350 . S
C1503 C1506 1.463 . S
C1503 C1508 1.350 . S
C1503 N1511 1.427 . S
C1504 H1495 0.930 . S
C1504 C1502 1.378 . S
C1504 C1505 1.367 . S
C1505 C1504 1.367 . S
C1505 C1507 1.433 . S
C1506 C1502 1.350 . S
C1506 C1503 1.463 . S
C1506 N1510 1.427 . S
C1507 H1497 0.929 . S
C1507 C1505 1.433 . S
C1507 N1510 1.384 . S
C1508 H1499 0.929 . S
C1508 C1500 1.378 . S
C1508 C1503 1.350 . S
C1509 H1496 0.929 . S
C1509 C1501 1.433 . S
C1509 N1511 1.384 . S
N1510 C1506 1.427 . S
N1510 C1507 1.384 . S
N1511 C1503 1.427 . S
N1511 C1509 1.384 . S
H1512 C1518 0.930 . S
H1513 C1522 0.930 . S
H1514 C1527 0.929 . S
H1515 C1525 0.929 . S
H1516 C1520 0.929 . S
H1517 C1526 0.929 . S
C1518 H1512 0.930 . S
C1518 C1519 1.367 . S
C1518 C1526 1.378 . S
C1519 C1518 1.367 . S
C1519 C1527 1.433 . S
C1520 H1516 0.929 . S
C1520 C1522 1.378 . S
C1520 C1524 1.350 . S
C1521 C1524 1.463 . S
C1521 C1526 1.350 . S
C1521 N1529 1.427 . S
C1522 H1513 0.930 . S
C1522 C1520 1.378 . S
C1522 C1523 1.367 . S
C1523 C1522 1.367 . S
C1523 C1525 1.433 . S
C1524 C1520 1.350 . S
C1524 C1521 1.463 . S
C1524 N1528 1.427 . S
C1525 H1515 0.929 . S
C1525 C1523 1.433 . S
C1525 N1528 1.384 . S
C1526 H1517 0.929 . S
C1526 C1518 1.378 . S
C1526 C1521 1.350 . S
C1527 H1514 0.929 . S
C1527 C1519 1.433 . S
C1527 N1529 1.384 . S
N1528 C1524 1.427 . S
N1528 C1525 1.384 . S
N1529 C1521 1.427 . S
N1529 C1527 1.384 . S
H1530 C1536 0.930 . S
H1531 C1540 0.930 . S
H1532 C1545 0.929 . S
H1533 C1543 0.929 . S
H1534 C1538 0.929 . S
H1535 C1544 0.929 . S
C1536 H1530 0.930 . S
C1536 C1537 1.367 . S
C1536 C1544 1.378 . S
C1537 C1536 1.367 . S
C1537 C1545 1.433 . S
C1538 H1534 0.929 . S
C1538 C1540 1.378 . S
C1538 C1542 1.350 . S
C1539 C1542 1.463 . S
C1539 C1544 1.350 . S
C1539 N1547 1.427 . S
C1540 H1531 0.930 . S
C1540 C1538 1.378 . S
C1540 C1541 1.367 . S
C1541 C1540 1.367 . S
C1541 C1543 1.433 . S
C1542 C1538 1.350 . S
C1542 C1539 1.463 . S
C1542 N1546 1.427 . S
C1543 H1533 0.929 . S
C1543 C1541 1.433 . S
C1543 N1546 1.384 . S
C1544 H1535 0.929 . S
C1544 C1536 1.378 . S
C1544 C1539 1.350 . S
C1545 H1532 0.929 . S
C1545 C1537 1.433 . S
C1545 N1547 1.384 . S
N1546 C1542 1.427 . S
N1546 C1543 1.384 . S
N1547 C1539 1.427 . S
N1547 C1545 1.384 . S
H1548 C1554 0.930 . S
H1549 C1558 0.930 . S
H1550 C1563 0.929 . S
H1551 C1561 0.929 . S
H1552 C1556 0.929 . S
H1553 C1562 0.929 . S
C1554 H1548 0.930 . S
C1554 C1555 1.367 . S
C1554 C1562 1.378 . S
C1555 C1554 1.367 . S
C1555 C1563 1.433 . S
C1556 H1552 0.929 . S
C1556 C1558 1.378 . S
C1556 C1560 1.350 . S
C1557 C1560 1.463 . S
C1557 C1562 1.350 . S
C1557 N1565 1.427 . S
C1558 H1549 0.930 . S
C1558 C1556 1.378 . S
C1558 C1559 1.367 . S
C1559 C1558 1.367 . S
C1559 C1561 1.433 . S
C1560 C1556 1.350 . S
C1560 C1557 1.463 . S
C1560 N1564 1.427 . S
C1561 H1551 0.929 . S
C1561 C1559 1.433 . S
C1561 N1564 1.384 . S
C1562 H1553 0.929 . S
C1562 C1554 1.378 . S
C1562 C1557 1.350 . S
C1563 H1550 0.929 . S
C1563 C1555 1.433 . S
C1563 N1565 1.384 . S
N1564 C1560 1.427 . S
N1564 C1561 1.384 . S
N1565 C1557 1.427 . S
N1565 C1563 1.384 . S
H1566 C1572 0.930 . S
H1567 C1576 0.930 . S
H1568 C1581 0.929 . S
H1569 C1579 0.929 . S
H1570 C1574 0.929 . S
H1571 C1580 0.929 . S
C1572 H1566 0.930 . S
C1572 C1573 1.367 . S
C1572 C1580 1.378 . S
C1573 C1572 1.367 . S
C1573 C1581 1.433 . S
C1574 H1570 0.929 . S
C1574 C1576 1.378 . S
C1574 C1578 1.350 . S
C1575 C1578 1.463 . S
C1575 C1580 1.350 . S
C1575 N1583 1.427 . S
C1576 H1567 0.930 . S
C1576 C1574 1.378 . S
C1576 C1577 1.367 . S
C1577 C1576 1.367 . S
C1577 C1579 1.433 . S
C1578 C1574 1.350 . S
C1578 C1575 1.463 . S
C1578 N1582 1.427 . S
C1579 H1569 0.929 . S
C1579 C1577 1.433 . S
C1579 N1582 1.384 . S
C1580 H1571 0.929 . S
C1580 C1572 1.378 . S
C1580 C1575 1.350 . S
C1581 H1568 0.929 . S
C1581 C1573 1.433 . S
C1581 N1583 1.384 . S
N1582 C1578 1.427 . S
N1582 C1579 1.384 . S
N1583 C1575 1.427 . S
N1583 C1581 1.384 . S
H1584 C1590 0.930 . S
H1585 C1594 0.930 . S
H1586 C1599 0.929 . S
H1587 C1597 0.929 . S
H1588 C1592 0.929 . S
H1589 C1598 0.929 . S
C1590 H1584 0.930 . S
C1590 C1591 1.367 . S
C1590 C1598 1.378 . S
C1591 C1590 1.367 . S
C1591 C1599 1.433 . S
C1592 H1588 0.929 . S
C1592 C1594 1.378 . S
C1592 C1596 1.350 . S
C1593 C1596 1.463 . S
C1593 C1598 1.350 . S
C1593 N1601 1.427 . S
C1594 H1585 0.930 . S
C1594 C1592 1.378 . S
C1594 C1595 1.367 . S
C1595 C1594 1.367 . S
C1595 C1597 1.433 . S
C1596 C1592 1.350 . S
C1596 C1593 1.463 . S
C1596 N1600 1.427 . S
C1597 H1587 0.929 . S
C1597 C1595 1.433 . S
C1597 N1600 1.384 . S
C1598 H1589 0.929 . S
C1598 C1590 1.378 . S
C1598 C1593 1.350 . S
C1599 H1586 0.929 . S
C1599 C1591 1.433 . S
C1599 N1601 1.384 . S
N1600 C1596 1.427 . S
N1600 C1597 1.384 . S
N1601 C1593 1.427 . S
N1601 C1599 1.384 . S
H1602 C1608 0.930 . S
H1603 C1612 0.930 . S
H1604 C1617 0.929 . S
H1605 C1615 0.929 . S
H1606 C1610 0.929 . S
H1607 C1616 0.929 . S
C1608 H1602 0.930 . S
C1608 C1609 1.367 . S
C1608 C1616 1.378 . S
C1609 C1608 1.367 . S
C1609 C1617 1.433 . S
C1610 H1606 0.929 . S
C1610 C1612 1.378 . S
C1610 C1614 1.350 . S
C1611 C1614 1.463 . S
C1611 C1616 1.350 . S
C1611 N1619 1.427 . S
C1612 H1603 0.930 . S
C1612 C1610 1.378 . S
C1612 C1613 1.367 . S
C1613 C1612 1.367 . S
C1613 C1615 1.433 . S
C1614 C1610 1.350 . S
C1614 C1611 1.463 . S
C1614 N1618 1.427 . S
C1615 H1605 0.929 . S
C1615 C1613 1.433 . S
C1615 N1618 1.384 . S
C1616 H1607 0.929 . S
C1616 C1608 1.378 . S
C1616 C1611 1.350 . S
C1617 H1604 0.929 . S
C1617 C1609 1.433 . S
C1617 N1619 1.384 . S
N1618 C1614 1.427 . S
N1618 C1615 1.384 . S
N1619 C1611 1.427 . S
N1619 C1617 1.384 . S
H1620 C1626 0.930 . S
H1621 C1630 0.930 . S
H1622 C1635 0.929 . S
H1623 C1633 0.929 . S
H1624 C1628 0.929 . S
H1625 C1634 0.929 . S
C1626 H1620 0.930 . S
C1626 C1627 1.367 . S
C1626 C1634 1.378 . S
C1627 C1626 1.367 . S
C1627 C1635 1.433 . S
C1628 H1624 0.929 . S
C1628 C1630 1.378 . S
C1628 C1632 1.350 . S
C1629 C1632 1.463 . S
C1629 C1634 1.350 . S
C1629 N1637 1.427 . S
C1630 H1621 0.930 . S
C1630 C1628 1.378 . S
C1630 C1631 1.367 . S
C1631 C1630 1.367 . S
C1631 C1633 1.433 . S
C1632 C1628 1.350 . S
C1632 C1629 1.463 . S
C1632 N1636 1.427 . S
C1633 H1623 0.929 . S
C1633 C1631 1.433 . S
C1633 N1636 1.384 . S
C1634 H1625 0.929 . S
C1634 C1626 1.378 . S
C1634 C1629 1.350 . S
C1635 H1622 0.929 . S
C1635 C1627 1.433 . S
C1635 N1637 1.384 . S
N1636 C1632 1.427 . S
N1636 C1633 1.384 . S
N1637 C1629 1.427 . S
N1637 C1635 1.384 . S
H1638 C1644 0.930 . S
H1639 C1648 0.930 . S
H1640 C1653 0.929 . S
H1641 C1651 0.929 . S
H1642 C1646 0.929 . S
H1643 C1652 0.929 . S
C1644 H1638 0.930 . S
C1644 C1645 1.367 . S
C1644 C1652 1.378 . S
C1645 C1644 1.367 . S
C1645 C1653 1.433 . S
C1646 H1642 0.929 . S
C1646 C1648 1.378 . S
C1646 C1650 1.350 . S
C1647 C1650 1.463 . S
C1647 C1652 1.350 . S
C1647 N1655 1.427 . S
C1648 H1639 0.930 . S
C1648 C1646 1.378 . S
C1648 C1649 1.367 . S
C1649 C1648 1.367 . S
C1649 C1651 1.433 . S
C1650 C1646 1.350 . S
C1650 C1647 1.463 . S
C1650 N1654 1.427 . S
C1651 H1641 0.929 . S
C1651 C1649 1.433 . S
C1651 N1654 1.384 . S
C1652 H1643 0.929 . S
C1652 C1644 1.378 . S
C1652 C1647 1.350 . S
C1653 H1640 0.929 . S
C1653 C1645 1.433 . S
C1653 N1655 1.384 . S
N1654 C1650 1.427 . S
N1654 C1651 1.384 . S
N1655 C1647 1.427 . S
N1655 C1653 1.384 . S
H1656 C1662 0.930 . S
H1657 C1666 0.930 . S
H1658 C1671 0.929 . S
H1659 C1669 0.929 . S
H1660 C1664 0.929 . S
H1661 C1670 0.929 . S
C1662 H1656 0.930 . S
C1662 C1663 1.367 . S
C1662 C1670 1.378 . S
C1663 C1662 1.367 . S
C1663 C1671 1.433 . S
C1664 H1660 0.929 . S
C1664 C1666 1.378 . S
C1664 C1668 1.350 . S
C1665 C1668 1.463 . S
C1665 C1670 1.350 . S
C1665 N1673 1.427 . S
C1666 H1657 0.930 . S
C1666 C1664 1.378 . S
C1666 C1667 1.367 . S
C1667 C1666 1.367 . S
C1667 C1669 1.433 . S
C1668 C1664 1.350 . S
C1668 C1665 1.463 . S
C1668 N1672 1.427 . S
C1669 H1659 0.929 . S
C1669 C1667 1.433 . S
C1669 N1672 1.384 . S
C1670 H1661 0.929 . S
C1670 C1662 1.378 . S
C1670 C1665 1.350 . S
C1671 H1658 0.929 . S
C1671 C1663 1.433 . S
C1671 N1673 1.384 . S
N1672 C1668 1.427 . S
N1672 C1669 1.384 . S
N1673 C1665 1.427 . S
N1673 C1671 1.384 . S
H1674 C1680 0.930 . S
H1675 C1684 0.930 . S
H1676 C1689 0.929 . S
H1677 C1687 0.929 . S
H1678 C1682 0.929 . S
H1679 C1688 0.929 . S
C1680 H1674 0.930 . S
C1680 C1681 1.367 . S
C1680 C1688 1.378 . S
C1681 C1680 1.367 . S
C1681 C1689 1.433 . S
C1682 H1678 0.929 . S
C1682 C1684 1.378 . S
C1682 C1686 1.350 . S
C1683 C1686 1.463 . S
C1683 C1688 1.350 . S
C1683 N1691 1.427 . S
C1684 H1675 0.930 . S
C1684 C1682 1.378 . S
C1684 C1685 1.367 . S
C1685 C1684 1.367 . S
C1685 C1687 1.433 . S
C1686 C1682 1.350 . S
C1686 C1683 1.463 . S
C1686 N1690 1.427 . S
C1687 H1677 0.929 . S
C1687 C1685 1.433 . S
C1687 N1690 1.384 . S
C1688 H1679 0.929 . S
C1688 C1680 1.378 . S
C1688 C1683 1.350 . S
C1689 H1676 0.929 . S
C1689 C1681 1.433 . S
C1689 N1691 1.384 . S
N1690 C1686 1.427 . S
N1690 C1687 1.384 . S
N1691 C1683 1.427 . S
N1691 C1689 1.384 . S
H1692 C1698 0.930 . S
H1693 C1702 0.930 . S
H1694 C1707 0.929 . S
H1695 C1705 0.929 . S
H1696 C1700 0.929 . S
H1697 C1706 0.929 . S
C1698 H1692 0.930 . S
C1698 C1699 1.367 . S
C1698 C1706 1.378 . S
C1699 C1698 1.367 . S
C1699 C1707 1.433 . S
C1700 H1696 0.929 . S
C1700 C1702 1.378 . S
C1700 C1704 1.350 . S
C1701 C1704 1.463 . S
C1701 C1706 1.350 . S
C1701 N1709 1.427 . S
C1702 H1693 0.930 . S
C1702 C1700 1.378 . S
C1702 C1703 1.367 . S
C1703 C1702 1.367 . S
C1703 C1705 1.433 . S
C1704 C1700 1.350 . S
C1704 C1701 1.463 . S
C1704 N1708 1.427 . S
C1705 H1695 0.929 . S
C1705 C1703 1.433 . S
C1705 N1708 1.384 . S
C1706 H1697 0.929 . S
C1706 C1698 1.378 . S
C1706 C1701 1.350 . S
C1707 H1694 0.929 . S
C1707 C1699 1.433 . S
C1707 N1709 1.384 . S
N1708 C1704 1.427 . S
N1708 C1705 1.384 . S
N1709 C1701 1.427 . S
N1709 C1707 1.384 . S
H1710 C1716 0.930 . S
H1711 C1720 0.930 . S
H1712 C1725 0.929 . S
H1713 C1723 0.929 . S
H1714 C1718 0.929 . S
H1715 C1724 0.929 . S
C1716 H1710 0.930 . S
C1716 C1717 1.367 . S
C1716 C1724 1.378 . S
C1717 C1716 1.367 . S
C1717 C1725 1.433 . S
C1718 H1714 0.929 . S
C1718 C1720 1.378 . S
C1718 C1722 1.350 . S
C1719 C1722 1.463 . S
C1719 C1724 1.350 . S
C1719 N1727 1.427 . S
C1720 H1711 0.930 . S
C1720 C1718 1.378 . S
C1720 C1721 1.367 . S
C1721 C1720 1.367 . S
C1721 C1723 1.433 . S
C1722 C1718 1.350 . S
C1722 C1719 1.463 . S
C1722 N1726 1.427 . S
C1723 H1713 0.929 . S
C1723 C1721 1.433 . S
C1723 N1726 1.384 . S
C1724 H1715 0.929 . S
C1724 C1716 1.378 . S
C1724 C1719 1.350 . S
C1725 H1712 0.929 . S
C1725 C1717 1.433 . S
C1725 N1727 1.384 . S
N1726 C1722 1.427 . S
N1726 C1723 1.384 . S
N1727 C1719 1.427 . S
N1727 C1725 1.384 . S
C871 C3 1.506 . S
C875 C255 1.504 . S
C889 C291 1.505 . S
C893 C39 1.505 . S
C907 C75 1.507 . S
C911 C327 1.504 . S
C925 C111 1.506 . S
C929 C363 1.504 . S
C943 C399 1.505 . S
C947 C147 1.505 . S
C961 C183 1.505 . S
C965 C219 1.507 . S
C979 C435 1.504 . S
C983 C687 1.507 . S
C997 C471 1.507 . S
C1001 C723 1.505 . S
C1015 C759 1.506 . S
C1019 C507 1.504 . S
C1033 C543 1.507 . S
C1037 C795 1.505 . S
C1051 C579 1.508 . S
C1055 C831 1.507 . S
C1069 C651 1.507 . S
C1073 C615 1.504 . S
C1087 C4 1.349 . S
C1091 C292 1.343 . S
C1105 C328 1.348 . S
C1109 C40 1.343 . S
C1123 C364 1.348 . S
C1127 C76 1.344 . S
C1141 C112 1.346 . S
C1145 C400 1.346 . S
C1159 C148 1.349 . S
C1163 C220 1.343 . S
C1177 C184 1.345 . S
C1181 C256 1.346 . S
C1195 C724 1.345 . S
C1199 C436 1.347 . S
C1213 C472 1.345 . S
C1217 C760 1.347 . S
C1231 C796 1.344 . S
C1235 C508 1.347 . S
C1249 C832 1.346 . S
C1253 C544 1.346 . S
C1267 C652 1.349 . S
C1271 C580 1.343 . S
C1285 C616 1.346 . S
C1289 C688 1.345 . S
C1303 C14 1.486 . S
C1307 C554 1.501 . S
C1321 C590 1.502 . S
C1325 C50 1.486 . S
C1339 C626 1.495 . S
C1343 C86 1.493 . S
C1357 C122 1.498 . S
C1361 C446 1.490 . S
C1375 C158 1.487 . S
C1379 C482 1.501 . S
C1393 C518 1.497 . S
C1397 C194 1.490 . S
C1411 C770 1.489 . S
C1415 C230 1.499 . S
C1429 C806 1.496 . S
C1433 C266 1.491 . S
C1447 C842 1.489 . S
C1451 C302 1.499 . S
C1465 C662 1.487 . S
C1469 C338 1.501 . S
C1483 C374 1.490 . S
C1487 C698 1.498 . S
C1501 C410 1.500 . S
C1505 C734 1.488 . S
C1519 C2 1.421 . S
C1523 C362 1.418 . S
C1537 C398 1.420 . S
C1541 C38 1.421 . S
C1555 C218 1.417 . S
C1559 C74 1.420 . S
C1573 C110 1.421 . S
C1577 C254 1.417 . S
C1591 C146 1.422 . S
C1595 C290 1.418 . S
C1609 C182 1.421 . S
C1613 C326 1.418 . S
C1627 C434 1.421 . S
C1631 C794 1.419 . S
C1645 C470 1.419 . S
C1649 C830 1.418 . S
C1663 C506 1.420 . S
C1667 C650 1.417 . S
C1681 C686 1.418 . S
C1685 C542 1.421 . S
C1699 C578 1.418 . S
C1703 C722 1.422 . S
C1717 C614 1.418 . S
C1721 C758 1.418 . S
