# Generated by pormake.
# Topology lhb, (8)-cn, num edge types: 1
# Building blocks:
#     Node 0, Type 0, BuildingBlock: GIZVER_clean_sbu_0, # of connection points: 8
#     Node 1, Type 0, BuildingBlock: GIZVER_clean_sbu_0, # of connection points: 8
#     Node 2, Type 0, BuildingBlock: GIZVER_clean_sbu_0, # of connection points: 8
#     Node 3, Type 0, BuildingBlock: GIZVER_clean_sbu_0, # of connection points: 8
#     Node 4, Type 0, BuildingBlock: GIZVER_clean_sbu_0, # of connection points: 8
#     Node 5, Type 0, BuildingBlock: GIZVER_clean_sbu_0, # of connection points: 8
#     Node 6, Type 0, BuildingBlock: GIZVER_clean_sbu_0, # of connection points: 8
#     Node 7, Type 0, BuildingBlock: GIZVER_clean_sbu_0, # of connection points: 8
#     Edge 8, Type (0, 0), BuildingBlock: UVAHIK_clean_linker_0, # of connection points: 2
#     Edge 9, Type (0, 0), BuildingBlock: UVAHIK_clean_linker_0, # of connection points: 2
#     Edge 10, Type (0, 0), BuildingBlock: UVAHIK_clean_linker_0, # of connection points: 2
#     Edge 11, Type (0, 0), BuildingBlock: UVAHIK_clean_linker_0, # of connection points: 2
#     Edge 12, Type (0, 0), BuildingBlock: UVAHIK_clean_linker_0, # of connection points: 2
#     Edge 13, Type (0, 0), BuildingBlock: UVAHIK_clean_linker_0, # of connection points: 2
#     Edge 14, Type (0, 0), BuildingBlock: UVAHIK_clean_linker_0, # of connection points: 2
#     Edge 15, Type (0, 0), BuildingBlock: UVAHIK_clean_linker_0, # of connection points: 2
#     Edge 16, Type (0, 0), BuildingBlock: UVAHIK_clean_linker_0, # of connection points: 2
#     Edge 17, Type (0, 0), BuildingBlock: UVAHIK_clean_linker_0, # of connection points: 2
#     Edge 18, Type (0, 0), BuildingBlock: UVAHIK_clean_linker_0, # of connection points: 2
#     Edge 19, Type (0, 0), BuildingBlock: UVAHIK_clean_linker_0, # of connection points: 2
#     Edge 20, Type (0, 0), BuildingBlock: UVAHIK_clean_linker_0, # of connection points: 2
#     Edge 21, Type (0, 0), BuildingBlock: UVAHIK_clean_linker_0, # of connection points: 2
#     Edge 22, Type (0, 0), BuildingBlock: UVAHIK_clean_linker_0, # of connection points: 2
#     Edge 23, Type (0, 0), BuildingBlock: UVAHIK_clean_linker_0, # of connection points: 2
#     Edge 24, Type (0, 0), BuildingBlock: UVAHIK_clean_linker_0, # of connection points: 2
#     Edge 25, Type (0, 0), BuildingBlock: UVAHIK_clean_linker_0, # of connection points: 2
#     Edge 26, Type (0, 0), BuildingBlock: UVAHIK_clean_linker_0, # of connection points: 2
#     Edge 27, Type (0, 0), BuildingBlock: UVAHIK_clean_linker_0, # of connection points: 2
#     Edge 28, Type (0, 0), BuildingBlock: UVAHIK_clean_linker_0, # of connection points: 2
#     Edge 29, Type (0, 0), BuildingBlock: UVAHIK_clean_linker_0, # of connection points: 2
#     Edge 30, Type (0, 0), BuildingBlock: UVAHIK_clean_linker_0, # of connection points: 2
#     Edge 31, Type (0, 0), BuildingBlock: UVAHIK_clean_linker_0, # of connection points: 2
#     Edge 32, Type (0, 0), BuildingBlock: UVAHIK_clean_linker_0, # of connection points: 2
#     Edge 33, Type (0, 0), BuildingBlock: UVAHIK_clean_linker_0, # of connection points: 2
#     Edge 34, Type (0, 0), BuildingBlock: UVAHIK_clean_linker_0, # of connection points: 2
#     Edge 35, Type (0, 0), BuildingBlock: UVAHIK_clean_linker_0, # of connection points: 2
#     Edge 36, Type (0, 0), BuildingBlock: UVAHIK_clean_linker_0, # of connection points: 2
#     Edge 37, Type (0, 0), BuildingBlock: UVAHIK_clean_linker_0, # of connection points: 2
#     Edge 38, Type (0, 0), BuildingBlock: UVAHIK_clean_linker_0, # of connection points: 2
#     Edge 39, Type (0, 0), BuildingBlock: UVAHIK_clean_linker_0, # of connection points: 2
# Relax obj value: 0.106
# Max RMSD: 0.184
# Mean RMSD: 0.184
data_MOF--net-lhb--node1-GIZVER_clean_sbu_0--edge1-UVAHIK_clean_linker_0
_symmetry_space_group_name_H-M    P1
_symmetry_Int_Tables_number       1
_symmetry_cell_setting            triclinic
loop_
_symmetry_equiv_pos_as_xyz
'x, y, z'
_cell_length_a     31.345321
_cell_length_b     19.127234
_cell_length_c     91.006369
_cell_angle_alpha  98.030556
_cell_angle_beta   89.976504
_cell_angle_gamma 89.990359
loop_
_atom_site_label
_atom_site_type_symbol
_atom_site_fract_x
_atom_site_fract_y
_atom_site_fract_z
_atom_type_partial_charge
Co0 Co 0.00289 0.04773 1.00059 0.0
Co1 Co 0.92497 0.07278 1.00778 0.0
Co2 Co 0.97726 0.0367 0.03702 0.0
O3 O 0.9651 1.01656 1.01514 0.0
H4 H 0.95808 0.9674 1.01226 0.0
O5 O 0.98889 0.05722 0.05893 0.0
Co6 Co 0.95989 1.00682 0.07328 0.0
Co7 Co 0.03795 1.00766 0.06286 0.0
H8 H -0.00841 0.10705 0.06243 0.0
O9 O 0.89342 0.04426 0.99073 0.0
O10 O 0.95612 0.10256 0.99223 0.0
O11 O 0.90989 0.15543 1.02099 0.0
O12 O 0.95393 0.13668 0.03935 0.0
O13 O 0.92174 0.99606 0.04163 0.0
O14 O 0.93458 0.96454 0.087 0.0
O15 O 0.96331 0.07341 0.08998 0.0
O16 O 0.9486 0.93101 0.05786 0.0
O17 O 0.00084 0.93734 0.03441 0.0
O18 O 0.05691 0.92912 0.0489 0.0
O19 O 0.01696 0.96968 0.07897 0.0
O20 O 0.07198 0.04625 0.07788 0.0
C21 C 0.02364 1.00483 0.97979 0.0
C22 C 0.03676 0.12862 1.02636 0.0
C23 C 0.92878 0.17655 0.03313 0.0
C24 C 0.9221 0.08025 0.9847 0.0
C25 C 0.944 0.02229 0.09557 0.0
C26 C 0.92243 0.93886 0.0474 0.0
C27 C 0.03188 0.90218 0.03875 0.0
C28 C 0.0481 1.00857 0.08541 0.0
O29 O 0.03769 0.06599 0.98603 0.0
O30 O -0.00569 0.97259 0.98651 0.0
O31 O 0.03373 0.07453 0.03292 0.0
O32 O 0.01857 0.13041 1.0139 0.0
Co33 Co 0.28973 0.255 0.32204 0.0
Co34 Co 0.21103 0.24948 0.31261 0.0
Co35 Co 0.2683 0.28048 0.28599 0.0
O36 O 0.25735 0.30312 0.30795 0.0
H37 H 0.25297 0.35286 0.31124 0.0
O38 O 0.28057 0.25631 0.26408 0.0
Co39 Co 0.2441 0.28568 0.24914 0.0
Co40 Co 0.32169 0.31182 0.25698 0.0
H41 H 0.2875 0.20694 0.26151 0.0
O42 O 0.17753 0.28714 0.32765 0.0
O43 O 0.23471 0.21473 0.32873 0.0
O44 O 0.19186 0.17068 0.29882 0.0
O45 O 0.24739 0.17987 0.28413 0.0
O46 O 0.21011 0.31189 0.28192 0.0
O47 O 0.21041 0.30393 0.2344 0.0
O48 O 0.25484 0.21184 0.23484 0.0
O49 O 0.22634 0.36444 0.26254 0.0
O50 O 0.28844 0.38144 0.28738 0.0
O51 O 0.33808 0.39372 0.27033 0.0
O52 O 0.29088 0.34324 0.24157 0.0
O53 O 0.35317 0.28375 0.23988 0.0
C54 C 0.31006 0.27262 0.34394 0.0
C55 C 0.32663 0.18889 0.29616 0.0
C56 C 0.21678 0.14425 0.28857 0.0
C57 C 0.20331 0.25288 0.33527 0.0
C58 C 0.22543 0.2437 0.22807 0.0
C59 C 0.20001 0.35222 0.27251 0.0
C60 C 0.31635 0.41838 0.28165 0.0
C61 C 0.3249 0.32111 0.23401 0.0
O62 O 0.31852 0.21527 0.33511 0.0
O63 O 0.28717 0.32188 0.33896 0.0
O64 O 0.32544 0.24639 0.29058 0.0
O65 O 0.30099 0.17912 0.30664 0.0
Co66 Co 0.77934 0.74554 0.32244 0.0
Co67 Co 0.70234 0.73249 0.31271 0.0
Co68 Co 0.75927 0.76298 0.28584 0.0
O69 O 0.74676 0.78818 0.30763 0.0
H70 H 0.74088 0.83781 0.31051 0.0
O71 O 0.77302 0.73683 0.26406 0.0
Co72 Co 0.73727 0.76655 0.24899 0.0
Co73 Co 0.81493 0.79111 0.25695 0.0
H74 H 0.77918 0.68715 0.26161 0.0
O75 O 0.66601 0.77284 0.32621 0.0
O76 O 0.72454 0.70723 0.33 0.0
O77 O 0.68576 0.64965 0.29981 0.0
O78 O 0.73829 0.6624 0.2841 0.0
O79 O 0.70139 0.79461 0.28111 0.0
O80 O 0.70408 0.78537 0.23418 0.0
O81 O 0.74678 0.6913 0.23494 0.0
O82 O 0.72119 0.8466 0.26212 0.0
O83 O 0.78011 0.86344 0.28703 0.0
O84 O 0.83077 0.8738 0.2702 0.0
O85 O 0.78465 0.82158 0.2413 0.0
O86 O 0.8468 0.76222 0.23989 0.0
C87 C 0.80032 0.77068 0.34414 0.0
C88 C 0.81665 0.67314 0.29734 0.0
C89 C 0.7094 0.62501 0.28907 0.0
C90 C 0.69135 0.74537 0.33518 0.0
C91 C 0.718 0.72402 0.22807 0.0
C92 C 0.69309 0.83501 0.27152 0.0
C93 C 0.80867 0.89939 0.28136 0.0
C94 C 0.81849 0.79857 0.23378 0.0
O95 O 0.80871 0.71092 0.33614 0.0
O96 O 0.77675 0.81709 0.33849 0.0
O97 O 0.81579 0.7289 0.29112 0.0
O98 O 0.79076 0.66569 0.3079 0.0
Co99 Co 0.0123 0.53676 0.49851 0.0
Co100 Co 0.93552 0.56782 0.50679 0.0
Co101 Co 0.98979 0.54093 0.53576 0.0
O102 O 0.97622 0.51145 0.51401 0.0
H103 H 0.96732 0.46265 0.51207 0.0
O104 O 0.00136 0.56899 0.55767 0.0
Co105 Co 0.96808 0.52609 0.57249 0.0
Co106 Co 0.04648 0.51378 0.56263 0.0
H107 H 0.00688 0.61879 0.56041 0.0
O108 O 0.90296 0.54014 0.48988 0.0
O109 O 0.9663 0.59624 0.49105 0.0
O110 O 0.92034 0.6516 0.5199 0.0
O111 O 0.97336 0.6426 0.53587 0.0
O112 O 0.93166 0.51578 0.5407 0.0
O113 O 0.93856 0.49075 0.58605 0.0
O114 O 0.97337 0.59442 0.58911 0.0
O115 O 0.95354 0.4508 0.55757 0.0
O116 O 0.0068 0.43919 0.53528 0.0
O117 O 0.06522 0.43449 0.54884 0.0
O118 O 0.02198 0.48181 0.57896 0.0
O119 O 0.08058 0.55059 0.57756 0.0
C120 C 0.02931 0.49188 0.47746 0.0
C121 C 0.05968 0.60024 0.52084 0.0
C122 C 0.94435 0.67835 0.53043 0.0
C123 C 0.93154 0.5759 0.48375 0.0
C124 C 0.94891 0.54826 0.5945 0.0
C125 C 0.92496 0.4672 0.54863 0.0
C126 C 0.03901 0.40573 0.53927 0.0
C127 C 0.05411 0.5185 0.58537 0.0
O128 O 0.04536 0.55186 0.48343 0.0
O129 O -0.00036 0.46209 0.48455 0.0
O130 O 0.04909 0.5645 0.53103 0.0
O131 O 0.03203 0.61493 0.51152 0.0
Co132 Co 0.28281 0.75067 0.82379 0.0
Co133 Co 0.20399 0.74879 0.81415 0.0
Co134 Co 0.2624 0.77627 0.78762 0.0
O135 O 0.25212 0.79856 0.80952 0.0
H136 H 0.24935 0.84857 0.81285 0.0
O137 O 0.27325 0.75446 0.76571 0.0
Co138 Co 0.23487 0.78644 0.75144 0.0
Co139 Co 0.31376 0.80959 0.75814 0.0
H140 H 0.27994 0.70514 0.7629 0.0
O141 O 0.17069 0.78868 0.82922 0.0
O142 O 0.22654 0.71359 0.83034 0.0
O143 O 0.18461 0.66898 0.80066 0.0
O144 O 0.23942 0.6767 0.78557 0.0
O145 O 0.20537 0.81266 0.78375 0.0
O146 O 0.19974 0.80588 0.73709 0.0
O147 O 0.24243 0.71132 0.73726 0.0
O148 O 0.22027 0.86914 0.76486 0.0
O149 O 0.28521 0.87627 0.78941 0.0
O150 O 0.33032 0.89218 0.77118 0.0
O151 O 0.28147 0.84047 0.74301 0.0
O152 O 0.34378 0.78128 0.74069 0.0
C153 C 0.30052 0.76941 0.84582 0.0
C154 C 0.31925 0.6812 0.79796 0.0
C155 C 0.20885 0.64178 0.79028 0.0
C156 C 0.19553 0.75286 0.83682 0.0
C157 C 0.21319 0.74458 0.73073 0.0
C158 C 0.20229 0.86716 0.77734 0.0
C159 C 0.31097 0.91491 0.78315 0.0
C160 C 0.31467 0.81792 0.73506 0.0
O161 O 0.30976 0.71088 0.83749 0.0
O162 O 0.28016 0.81915 0.84013 0.0
O163 O 0.31855 0.73746 0.7919 0.0
O164 O 0.2937 0.67313 0.8086 0.0
Co165 Co 0.79226 0.26589 0.82135 0.0
Co166 Co 0.71433 0.25571 0.8109 0.0
Co167 Co 0.77175 0.2815 0.7843 0.0
O168 O 0.7606 0.30991 0.80636 0.0
H169 H 0.7554 0.35979 0.80911 0.0
O170 O 0.78388 0.25354 0.76244 0.0
Co171 Co 0.74631 0.28099 0.74747 0.0
Co172 Co 0.82395 0.31017 0.75494 0.0
H173 H 0.7924 0.20461 0.76024 0.0
O174 O 0.67994 0.29244 0.8258 0.0
O175 O 0.73761 0.22156 0.82715 0.0
O176 O 0.69543 0.17677 0.79697 0.0
O177 O 0.75466 0.17986 0.78377 0.0
O178 O 0.71232 0.30624 0.78008 0.0
O179 O 0.71188 0.29754 0.73284 0.0
O180 O 0.75755 0.20695 0.7332 0.0
O181 O 0.72754 0.35942 0.76074 0.0
O182 O 0.78844 0.3832 0.78449 0.0
O183 O 0.84038 0.3929 0.76814 0.0
O184 O 0.79177 0.34055 0.73972 0.0
O185 O 0.85489 0.28373 0.73758 0.0
C186 C 0.80973 0.28536 0.84361 0.0
C187 C 0.83726 0.21122 0.79803 0.0
C188 C 0.72198 0.14711 0.78762 0.0
C189 C 0.70544 0.2582 0.83353 0.0
C190 C 0.72729 0.23758 0.72654 0.0
C191 C 0.70143 0.34599 0.77066 0.0
C192 C 0.81699 0.41926 0.7789 0.0
C193 C 0.82592 0.32083 0.73199 0.0
O194 O 0.82023 0.22862 0.83496 0.0
O195 O 0.78616 0.33276 0.83827 0.0
O196 O 0.83031 0.2551 0.78898 0.0
O197 O 0.80683 0.19326 0.80609 0.0
Co198 Co 0.50252 0.0278 0.50066 0.0
Co199 Co 0.42381 0.04908 0.50691 0.0
Co200 Co 0.47482 1.01732 0.53662 0.0
O201 O 0.46437 0.99505 0.51465 0.0
H202 H 0.45968 0.94525 0.5117 0.0
O203 O 0.48463 0.03961 0.55858 0.0
Co204 Co 0.45212 0.9925 0.57259 0.0
Co205 Co 0.53089 0.9882 0.56388 0.0
H206 H 0.48857 0.08948 0.56185 0.0
O207 O 0.39392 0.01907 0.4896 0.0
O208 O 0.45574 0.07998 0.49166 0.0
O209 O 0.40682 0.13183 0.51983 0.0
O210 O 0.45118 0.11681 0.53834 0.0
O211 O 0.41879 0.97729 0.54078 0.0
O212 O 0.4227 0.95415 0.58579 0.0
O213 O 0.45258 0.0621 0.58889 0.0
O214 O 0.44344 0.91371 0.55751 0.0
O215 O 0.49889 0.91813 0.53453 0.0
O216 O 0.55061 0.90786 0.55072 0.0
O217 O 0.50715 0.95588 0.58026 0.0
O218 O 0.56363 0.02944 0.57878 0.0
C219 C 0.52688 0.98626 0.48035 0.0
C220 C 0.53528 0.10822 0.52604 0.0
C221 C 0.42558 0.15499 0.53189 0.0
C222 C 0.42243 0.05652 0.48386 0.0
C223 C 0.42987 1.01351 0.59414 0.0
C224 C 0.4191 0.92003 0.54647 0.0
C225 C 0.52818 0.88213 0.53971 0.0
C226 C 0.53813 0.99568 0.5866 0.0
O227 O 0.53858 0.04834 0.48681 0.0
O228 O 0.49695 0.95217 0.48639 0.0
O229 O 0.53155 0.05589 0.53311 0.0
O230 O 0.51499 0.11034 0.51402 0.0
Co231 Co 0.51217 0.51085 0.99813 0.0
Co232 Co 0.43437 0.53886 1.0057 0.0
Co233 Co 0.48633 0.5133 0.03493 0.0
O234 O 0.47498 0.48311 1.01312 0.0
H235 H 0.46679 0.43406 1.01103 0.0
O236 O 0.4963 0.54329 0.05693 0.0
Co237 Co 0.46256 0.5022 0.07185 0.0
Co238 Co 0.5412 0.48834 0.06219 0.0
H239 H 0.50202 0.59317 0.05952 0.0
O240 O 0.40358 0.50996 0.98855 0.0
O241 O 0.46612 0.56861 0.99036 0.0
O242 O 0.41717 0.62209 1.01865 0.0
O243 O 0.47023 0.61485 0.03465 0.0
O244 O 0.42738 0.48859 0.03929 0.0
O245 O 0.43277 0.46792 0.08543 0.0
O246 O 0.46804 0.57102 0.08843 0.0
O247 O 0.44815 0.42762 0.05691 0.0
O248 O 0.50268 0.41169 0.0349 0.0
O249 O 0.56054 0.40807 0.04876 0.0
O250 O 0.51609 0.45737 0.07848 0.0
O251 O 0.57487 0.52597 0.07713 0.0
C252 C 0.5312 0.46843 0.97713 0.0
C253 C 0.55683 0.57542 1.02106 0.0
C254 C 0.44099 0.64981 1.02914 0.0
C255 C 0.43237 0.54639 0.98269 0.0
C256 C 0.44329 0.52538 0.09384 0.0
C257 C 0.41902 0.4451 0.04828 0.0
C258 C 0.53471 0.37863 0.03914 0.0
C259 C 0.54823 0.494 0.08489 0.0
O260 O 0.54623 0.52846 0.9835 0.0
O261 O 0.50162 0.43651 0.98384 0.0
O262 O 0.5462 0.53699 1.03078 0.0
O263 O 0.52989 0.58932 1.01145 0.0
C264 C 0.04959 0.08261 0.10995 0.0
C265 C 0.05541 1.01605 0.10155 0.0
C266 C 0.06352 0.09585 0.12464 0.0
C267 C 0.14675 0.04304 0.1488 0.0
H268 H 0.08402 0.16254 0.17932 0.0
C269 C 0.21767 0.14157 0.20743 0.0
C270 C 0.20784 0.21144 0.21351 0.0
C271 C 0.19785 0.10997 0.19433 0.0
C272 C 0.10219 0.12962 0.1709 0.0
H273 H 0.08052 0.91092 0.10179 0.0
H274 H 0.10571 0.93421 0.12766 0.0
H275 H 0.04904 0.11829 0.15596 0.0
H276 H 0.17048 0.3035 0.21022 0.0
H277 H 0.13693 0.24939 0.1874 0.0
H278 H 0.20037 0.0563 0.16356 0.0
C279 C 0.08961 0.97583 0.12289 0.0
C280 C 0.08199 0.1039 0.15753 0.0
C281 C 0.0749 0.96223 0.10818 0.0
C282 C 0.17865 0.24943 0.20596 0.0
C283 C 0.15902 0.21807 0.1929 0.0
C284 C 0.16709 0.0691 0.16218 0.0
C285 C 0.08469 0.04328 0.1312 0.0
C286 C 0.10426 0.0616 0.14618 0.0
C287 C 0.16777 0.14756 0.187 0.0
C288 C 0.14536 0.11418 0.17328 0.0
H289 H 0.03561 0.12544 0.10495 0.0
H290 H 0.05976 0.14861 0.13059 0.0
H291 H 0.16496 1.01116 0.14022 0.0
H292 H 0.23987 0.11067 0.21299 0.0
H293 H 0.2053 0.05553 0.19016 0.0
C294 C 0.90317 0.0581 0.11929 0.0
C295 C 0.93758 0.02245 0.11169 0.0
C296 C 0.8901 0.04078 0.13317 0.0
C297 C 0.89525 0.88708 0.15405 0.0
H298 H 0.84976 1.01498 0.18711 0.0
C299 C 0.86459 0.79768 0.21112 0.0
C300 C 0.8281 0.82259 0.21922 0.0
C301 C 0.87592 0.82419 0.19807 0.0
C302 C 0.86195 0.97844 0.1779 0.0
H303 H 0.98558 0.94217 0.11274 0.0
H304 H 0.96513 0.91556 0.13706 0.0
H305 H 0.87522 0.06167 0.16493 0.0
H306 H 0.77445 0.89449 0.21963 0.0
H307 H 0.79423 0.94064 0.19679 0.0
H308 H 0.88228 0.80399 0.1669 0.0
C309 C 0.94738 0.95567 0.13236 0.0
C310 C 0.87662 1.00529 0.16518 0.0
C311 C 0.95988 0.97217 0.11853 0.0
C312 C 0.80278 0.87397 0.21371 0.0
C313 C 0.81432 0.90094 0.20067 0.0
C314 C 0.88078 0.86043 0.16671 0.0
C315 C 0.91116 0.9873 0.13962 0.0
C316 C 0.89409 0.96001 0.15315 0.0
C317 C 0.85122 0.87666 0.1927 0.0
C318 C 0.86437 0.90565 0.17891 0.0
H319 H 0.88464 0.0956 0.11407 0.0
H320 H 0.86199 0.06618 0.13837 0.0
H321 H 0.90716 0.85003 0.14488 0.0
H322 H 0.88498 0.75833 0.21499 0.0
H323 H 0.90478 0.80464 0.19237 0.0
C324 C 0.04116 0.385 0.45823 0.0
C325 C 0.04645 0.45766 0.46299 0.0
C326 C 0.06207 0.35217 0.44543 0.0
C327 C 0.15344 0.38172 0.42056 0.0
H328 H 0.09929 0.2379 0.39246 0.0
C329 C 0.19009 0.33298 0.35854 0.0
C330 C 0.19768 0.26392 0.35154 0.0
C331 C 0.17815 0.34578 0.37341 0.0
C332 C 0.11514 0.27693 0.40038 0.0
H333 H 0.0761 0.55331 0.4576 0.0
H334 H 0.11101 0.49723 0.43524 0.0
H335 H 0.06273 0.28282 0.41567 0.0
H336 H 0.19923 0.15383 0.35464 0.0
H337 H 0.17653 0.17621 0.38091 0.0
H338 H 0.20458 0.37876 0.40483 0.0
C339 C 0.09213 0.46462 0.44158 0.0
C340 C 0.09419 0.30289 0.41367 0.0
C341 C 0.07165 0.4971 0.45437 0.0
C342 C 0.19409 0.2076 0.35986 0.0
C343 C 0.18085 0.22034 0.37479 0.0
C344 C 0.17403 0.35643 0.40725 0.0
C345 C 0.08852 0.39142 0.43708 0.0
C346 C 0.1125 0.35727 0.42374 0.0
C347 C 0.17237 0.28967 0.38161 0.0
C348 C 0.15465 0.30511 0.39686 0.0
H349 H 0.02216 0.35303 0.46468 0.0
H350 H 0.0585 0.29573 0.44234 0.0
H351 H 0.16925 0.42193 0.42821 0.0
H352 H 0.19256 0.37732 0.35236 0.0
H353 H 0.17158 0.39961 0.37834 0.0
C354 C 0.8565 0.74817 0.36203 0.0
C355 C 0.81746 0.78079 0.35955 0.0
C356 C 0.86985 0.74038 0.37633 0.0
C357 C 0.8266 0.72617 0.41358 0.0
H358 H 0.9468 0.71478 0.42302 0.0
C359 C 0.88488 0.578 0.46126 0.0
C360 C 0.92117 0.60268 0.4695 0.0
C361 C 0.8727 0.60732 0.4486 0.0
C362 C 0.91303 0.71842 0.42077 0.0
H363 H 0.76296 0.83509 0.37037 0.0
H364 H 0.78631 0.82161 0.39568 0.0
H365 H 0.92519 0.76127 0.40068 0.0
H366 H 0.97335 0.67755 0.47064 0.0
H367 H 0.95183 0.72955 0.44881 0.0
H368 H 0.81445 0.68454 0.43385 0.0
C369 C 0.80645 0.80125 0.38639 0.0
C370 C 0.90056 0.74451 0.40777 0.0
C371 C 0.79321 0.80976 0.37191 0.0
C372 C 0.94538 0.65675 0.46455 0.0
C373 C 0.93298 0.68658 0.45194 0.0
C374 C 0.83908 0.70053 0.42667 0.0
C375 C 0.8446 0.76484 0.38876 0.0
C376 C 0.85721 0.74719 0.40375 0.0
C377 C 0.89618 0.66278 0.44381 0.0
C378 C 0.88259 0.69476 0.43033 0.0
H379 H 0.87601 0.72519 0.35276 0.0
H380 H 0.899 0.71132 0.3775 0.0
H381 H 0.79296 0.7269 0.4109 0.0
H382 H 0.86549 0.53621 0.46466 0.0
H383 H 0.84484 0.58598 0.44253 0.0
C384 C 0.05371 0.47736 0.61066 0.0
C385 C 0.0597 0.53069 0.60168 0.0
C386 C 0.06435 0.48984 0.62585 0.0
C387 C 0.07456 0.62477 0.65761 0.0
H388 H 0.17984 0.54053 0.66899 0.0
C389 C 0.17122 0.75489 0.7077 0.0
C390 C 0.19456 0.71287 0.71631 0.0
C391 C 0.15135 0.72491 0.69455 0.0
C392 C 0.14991 0.56362 0.6662 0.0
H393 H 0.07911 0.63952 0.60164 0.0
H394 H 0.09595 0.66155 0.62796 0.0
H395 H 0.14713 0.49803 0.64501 0.0
H396 H 0.21548 0.60611 0.71781 0.0
H397 H 0.1799 0.55327 0.69506 0.0
H398 H 0.07694 0.69074 0.67857 0.0
C399 C 0.08401 0.61 0.62332 0.0
C400 C 0.13118 0.53901 0.65245 0.0
C401 C 0.07451 0.59717 0.60824 0.0
C402 C 0.19798 0.64008 0.71137 0.0
C403 C 0.17757 0.6098 0.69828 0.0
C404 C 0.09282 0.64865 0.67142 0.0
C405 C 0.0798 0.55633 0.63222 0.0
C406 C 0.094 0.57073 0.64788 0.0
C407 C 0.15364 0.65172 0.68973 0.0
C408 C 0.13159 0.62015 0.67574 0.0
H409 H 0.04248 0.42565 0.60586 0.0
H410 H 0.06088 0.44769 0.63256 0.0
H411 H 0.04592 0.65017 0.65428 0.0
H412 H 0.16827 0.81126 0.7111 0.0
H413 H 0.13441 0.75957 0.68813 0.0
C414 C 0.81158 0.40695 0.71391 0.0
C415 C 0.83544 0.35038 0.71799 0.0
C416 C 0.82342 0.43953 0.70161 0.0
C417 C 0.91552 0.45585 0.67567 0.0
H418 H 0.82838 0.52884 0.65178 0.0
C419 C 0.95891 0.57934 0.62237 0.0
C420 C 0.93307 0.55565 0.61006 0.0
C421 C 0.94669 0.56712 0.63674 0.0
C422 C 0.8533 0.50862 0.65827 0.0
H423 H 0.8898 0.28241 0.71188 0.0
H424 H 0.90938 0.33695 0.69022 0.0
H425 H 0.80784 0.47651 0.67352 0.0
H426 H 0.87277 0.50572 0.60336 0.0
H427 H 0.85154 0.48544 0.6279 0.0
H428 H 0.96076 0.4847 0.65986 0.0
C429 C 0.88231 0.35809 0.69678 0.0
C430 C 0.84146 0.47917 0.67094 0.0
C431 C 0.87072 0.32604 0.70915 0.0
C432 C 0.89351 0.52473 0.61258 0.0
C433 C 0.88119 0.51321 0.62678 0.0
C434 C 0.92735 0.48483 0.66289 0.0
C435 C 0.85925 0.41606 0.69289 0.0
C436 C 0.87226 0.45115 0.67975 0.0
C437 C 0.90801 0.53216 0.63907 0.0
C438 C 0.89632 0.5104 0.65381 0.0
H439 H 0.78442 0.42762 0.7205 0.0
H440 H 0.80496 0.48436 0.6992 0.0
H441 H 0.94046 0.43653 0.68228 0.0
H442 H 0.98946 0.60341 0.62083 0.0
H443 H 0.96802 0.58344 0.64593 0.0
C444 C 0.1705 0.711 0.86029 0.0
C445 C 0.18948 0.76319 0.85304 0.0
C446 C 0.15668 0.72729 0.87507 0.0
C447 C 0.16564 0.86131 0.90878 0.0
H448 H 0.04809 0.813 0.91601 0.0
C449 C 0.07078 1.00957 0.95765 0.0
C450 C 0.04184 0.97188 0.96537 0.0
C451 C 0.09021 0.97763 0.94457 0.0
C452 C 0.08117 0.82609 0.91431 0.0
H453 H 0.20921 0.87254 0.85541 0.0
H454 H 0.18659 0.90041 0.88116 0.0
H455 H 0.08237 0.76502 0.89266 0.0
H456 H 0.01028 0.8709 0.96519 0.0
H457 H 0.04455 0.81481 0.94243 0.0
H458 H 0.16453 0.9229 0.93028 0.0
C459 C 0.18262 0.84685 0.87564 0.0
C460 C 0.10086 0.79838 0.90091 0.0
C461 C 0.19569 0.83091 0.86089 0.0
C462 C 0.03227 0.90163 0.9595 0.0
C463 C 0.05189 0.86948 0.94642 0.0
C464 C 0.14608 0.88867 0.92218 0.0
C465 C 0.16192 0.79589 0.88283 0.0
C466 C 0.14304 0.81692 0.89785 0.0
C467 C 0.08149 0.90685 0.93884 0.0
C468 C 0.10324 0.87282 0.92502 0.0
H469 H 0.16455 0.65883 0.85434 0.0
H470 H 0.14096 0.68683 0.88032 0.0
H471 H 0.19836 0.87584 0.90686 0.0
H472 H 0.07874 0.06388 0.96177 0.0
H473 H 0.11198 1.00878 0.93891 0.0
C474 C 0.79862 0.31818 0.87149 0.0
C475 C 0.82405 0.29004 0.85934 0.0
C476 C 0.80876 0.30452 0.88596 0.0
C477 C 0.85816 0.16476 0.90344 0.0
H478 H 0.8743 0.29694 0.93934 0.0
C479 C 0.87938 0.07337 0.96112 0.0
C480 C 0.91244 0.10492 0.97019 0.0
C481 C 0.86775 0.09965 0.94806 0.0
C482 C 0.8699 0.25942 0.92939 0.0
H483 H 0.88212 0.23145 0.85311 0.0
H484 H 0.89944 0.20839 0.87795 0.0
H485 H 0.85441 0.34081 0.91608 0.0
H486 H 0.95927 0.18916 0.97247 0.0
H487 H 0.93863 0.23543 0.94969 0.0
H488 H 0.87353 0.08339 0.91652 0.0
C489 C 0.87135 0.23956 0.8764 0.0
C490 C 0.85813 0.28455 0.91613 0.0
C491 C 0.86142 0.25323 0.86215 0.0
C492 C 0.93381 0.16325 0.96574 0.0
C493 C 0.92169 0.19028 0.95276 0.0
C494 C 0.86916 0.13966 0.91666 0.0
C495 C 0.84446 0.26265 0.88841 0.0
C496 C 0.85276 0.23744 0.90296 0.0
C497 C 0.88841 0.15891 0.94377 0.0
C498 C 0.87567 0.18657 0.9298 0.0
H499 H 0.76975 0.3468 0.86973 0.0
H500 H 0.78751 0.32329 0.89505 0.0
H501 H 0.85417 0.1271 0.89348 0.0
H502 H 0.86213 0.0285 0.96418 0.0
H503 H 0.8419 0.07429 0.94145 0.0
C504 C 0.68302 0.24451 0.70394 0.0
C505 C 0.70877 0.20424 0.71222 0.0
C506 C 0.66131 0.21284 0.69133 0.0
C507 C 0.65584 0.05124 0.66335 0.0
H508 H 0.54475 0.12868 0.65596 0.0
C509 C 0.55227 0.95197 0.61104 0.0
C510 C 0.54433 1.00762 0.60284 0.0
C511 C 0.56727 0.96634 0.62573 0.0
C512 C 0.57557 0.10608 0.65794 0.0
H513 H 0.73268 0.09896 0.71347 0.0
H514 H 0.6942 0.04311 0.69149 0.0
H515 H 0.58292 0.17226 0.67872 0.0
H516 H 0.54376 0.12124 0.60365 0.0
H517 H 0.5678 0.14625 0.62928 0.0
H518 H 0.64812 0.98537 0.64236 0.0
C519 C 0.69117 0.09957 0.69468 0.0
C520 C 0.59776 0.13155 0.67091 0.0
C521 C 0.7133 0.13158 0.70729 0.0
C522 C 0.54935 0.07742 0.60978 0.0
C523 C 0.56309 0.09174 0.62445 0.0
C524 C 0.63332 0.02518 0.6504 0.0
C525 C 0.6642 0.13964 0.68668 0.0
C526 C 0.63885 0.10624 0.6736 0.0
C527 C 0.57339 0.03653 0.63249 0.0
C528 C 0.59349 0.05382 0.64737 0.0
H529 H 0.6791 0.30074 0.7073 0.0
H530 H 0.64205 0.24606 0.68526 0.0
H531 H 0.68736 0.03049 0.66496 0.0
H532 H 0.54935 0.8977 0.60583 0.0
H533 H 0.575 0.92281 0.63169 0.0
C534 C 0.43617 0.05433 0.6218 0.0
C535 C 0.41316 0.02075 0.60956 0.0
C536 C 0.42391 0.04578 0.63635 0.0
C537 C 0.33396 0.9805 0.65818 0.0
H538 H 0.4238 0.93244 0.68421 0.0
C539 C 0.29696 0.89621 0.7158 0.0
C540 C 0.32299 0.844 0.72063 0.0
C541 C 0.30731 0.92572 0.70298 0.0
C542 C 0.39821 0.94518 0.67705 0.0
H543 H 0.35762 0.95634 0.60303 0.0
H544 H 0.33626 0.94215 0.62796 0.0
H545 H 0.44225 0.97474 0.66095 0.0
H546 H 0.37967 0.78034 0.71537 0.0
H547 H 0.39689 0.82989 0.69287 0.0
H548 H 0.28991 0.94771 0.67382 0.0
C549 C 0.36373 0.97495 0.62659 0.0
C550 C 0.40887 0.97072 0.66379 0.0
C551 C 0.37617 0.98285 0.6122 0.0
C552 C 0.35895 0.82069 0.71206 0.0
C553 C 0.36914 0.84983 0.6992 0.0
C554 C 0.32332 0.95466 0.67137 0.0
C555 C 0.38795 1.00455 0.63889 0.0
C556 C 0.37688 0.98733 0.654 0.0
C557 C 0.34382 0.90349 0.69455 0.0
C558 C 0.35526 0.93532 0.6809 0.0
H559 H 0.46473 0.08392 0.62014 0.0
H560 H 0.44309 0.07008 0.64556 0.0
H561 H 0.30836 0.99373 0.65107 0.0
H562 H 0.26911 0.91577 0.72213 0.0
H563 H 0.28713 0.96725 0.6999 0.0
C564 C 0.54573 0.36436 0.95746 0.0
C565 C 0.54902 0.43703 0.96256 0.0
C566 C 0.567 0.33462 0.94448 0.0
C567 C 0.65555 0.37494 0.9193 0.0
H568 H 0.60441 0.22835 0.89106 0.0
C569 C 0.68592 0.33453 0.85679 0.0
C570 C 0.69868 0.26767 0.84978 0.0
C571 C 0.67435 0.34488 0.87171 0.0
C572 C 0.61945 0.2682 0.89901 0.0
H573 H 0.57544 0.53587 0.95761 0.0
H574 H 0.61086 0.48512 0.93492 0.0
H575 H 0.56822 0.26784 0.91462 0.0
H576 H 0.7101 0.1592 0.85296 0.0
H577 H 0.68799 0.17696 0.87933 0.0
H578 H 0.70525 0.37838 0.9032 0.0
C579 C 0.5934 0.45015 0.94114 0.0
C580 C 0.59872 0.29105 0.91251 0.0
C581 C 0.57262 0.47955 0.95412 0.0
C582 C 0.70063 0.21131 0.85815 0.0
C583 C 0.68782 0.22136 0.87314 0.0
C584 C 0.67587 0.35279 0.90577 0.0
C585 C 0.59177 0.37704 0.93626 0.0
C586 C 0.61587 0.34631 0.92266 0.0
C587 C 0.67427 0.2883 0.87997 0.0
C588 C 0.65754 0.30041 0.89536 0.0
H589 H 0.52798 0.33011 0.96377 0.0
H590 H 0.56499 0.27814 0.94112 0.0
H591 H 0.67054 0.416 0.92698 0.0
H592 H 0.68433 0.37904 0.85063 0.0
H593 H 0.66393 0.39687 0.87669 0.0
C594 C 0.38743 0.54548 0.95985 0.0
C595 C 0.42339 0.57091 0.96816 0.0
C596 C 0.37629 0.57263 0.94689 0.0
C597 C 0.38877 0.72891 0.92739 0.0
H598 H 0.3445 0.60106 0.89412 0.0
C599 C 0.34331 0.80751 0.86894 0.0
C600 C 0.30811 0.77176 0.8619 0.0
C601 C 0.35774 0.79115 0.88273 0.0
C602 C 0.35625 0.63782 0.90336 0.0
H603 H 0.47637 0.64433 0.96907 0.0
H604 H 0.45692 0.69162 0.9463 0.0
H605 H 0.37115 0.55407 0.91579 0.0
H606 H 0.2601 0.69246 0.86383 0.0
H607 H 0.28307 0.66737 0.888 0.0
H608 H 0.37358 0.81278 0.91478 0.0
C609 C 0.43712 0.65098 0.94996 0.0
C610 C 0.37169 0.61071 0.91581 0.0
C611 C 0.44848 0.62339 0.96295 0.0
C612 C 0.28632 0.72265 0.86922 0.0
C613 C 0.30022 0.70703 0.88294 0.0
C614 C 0.37322 0.75622 0.91485 0.0
C615 C 0.40069 0.62619 0.94181 0.0
C616 C 0.3875 0.65578 0.92812 0.0
C617 C 0.33728 0.73847 0.88959 0.0
C618 C 0.35597 0.711 0.90279 0.0
H619 H 0.36725 0.50528 0.9635 0.0
H620 H 0.34775 0.55273 0.94103 0.0
H621 H 0.40053 0.76525 0.9367 0.0
H622 H 0.36143 0.84407 0.86332 0.0
H623 H 0.38644 0.81631 0.88751 0.0
C624 C 0.55049 0.45202 0.11004 0.0
C625 C 0.55363 0.50639 0.10119 0.0
C626 C 0.56225 0.46462 0.12511 0.0
C627 C 0.57365 0.6008 0.15692 0.0
H628 H 0.68059 0.51665 0.16678 0.0
C629 C 0.67624 0.73306 0.20501 0.0
C630 C 0.69975 0.6915 0.21368 0.0
C631 C 0.65539 0.70233 0.19214 0.0
C632 C 0.65027 0.53971 0.1644 0.0
H633 H 0.56893 0.61696 0.10123 0.0
H634 H 0.58756 0.63924 0.12741 0.0
H635 H 0.64493 0.47366 0.14334 0.0
H636 H 0.72036 0.58489 0.21547 0.0
H637 H 0.68321 0.53072 0.19311 0.0
H638 H 0.57865 0.66733 0.17775 0.0
C639 C 0.57698 0.58686 0.12276 0.0
C640 C 0.62983 0.51483 0.15097 0.0
C641 C 0.56645 0.57395 0.10777 0.0
C642 C 0.70273 0.61845 0.20897 0.0
C643 C 0.68138 0.58742 0.19613 0.0
C644 C 0.59366 0.62499 0.1704 0.0
C645 C 0.57593 0.53218 0.13151 0.0
C646 C 0.59203 0.54663 0.14694 0.0
C647 C 0.65687 0.62887 0.18765 0.0
C648 C 0.63307 0.5966 0.17412 0.0
H649 H 0.54097 0.39942 0.10518 0.0
H650 H 0.56127 0.42166 0.1317 0.0
H651 H 0.54451 0.62616 0.15404 0.0
H652 H 0.6736 0.78961 0.20822 0.0
H653 H 0.63807 0.73653 0.18571 0.0
C654 C 0.31396 0.40588 0.21538 0.0
C655 C 0.33478 0.34657 0.21961 0.0
C656 C 0.32633 0.43346 0.20249 0.0
C657 C 0.378 0.38335 0.16626 0.0
H658 H 0.39602 0.58417 0.16624 0.0
C659 C 0.38926 0.49865 0.11211 0.0
C660 C 0.42774 0.53273 0.10945 0.0
C661 C 0.37825 0.48581 0.12633 0.0
C662 C 0.39134 0.528 0.16613 0.0
H663 H 0.38434 0.26902 0.21334 0.0
H664 H 0.40498 0.31581 0.19076 0.0
H665 H 0.37532 0.53962 0.18936 0.0
H666 H 0.48275 0.58628 0.12004 0.0
H667 H 0.46321 0.56403 0.14528 0.0
H668 H 0.39292 0.37157 0.14308 0.0
C669 C 0.37939 0.34149 0.19747 0.0
C670 C 0.37912 0.50252 0.1793 0.0
C671 C 0.36752 0.31465 0.21044 0.0
C672 C 0.45311 0.5596 0.1217 0.0
C673 C 0.44192 0.54672 0.13612 0.0
C674 C 0.38943 0.40883 0.15313 0.0
C675 C 0.35929 0.40167 0.19339 0.0
C676 C 0.37225 0.42978 0.17951 0.0
C677 C 0.40517 0.50702 0.13842 0.0
C678 C 0.39603 0.4814 0.15285 0.0
H679 H 0.28877 0.43208 0.22221 0.0
H680 H 0.30985 0.47936 0.19957 0.0
H681 H 0.37277 0.3272 0.16597 0.0
H682 H 0.36861 0.47794 0.10298 0.0
H683 H 0.34938 0.45635 0.12777 0.0
C684 C 0.58617 0.98568 0.46195 0.0
C685 C 0.54853 0.95482 0.46646 0.0
C686 C 0.60759 0.9565 0.44908 0.0
C687 C 0.61555 0.79615 0.4205 0.0
H688 H 0.65959 0.93178 0.39643 0.0
C689 C 0.69912 0.72339 0.36205 0.0
C690 C 0.68169 0.76139 0.3513 0.0
C691 C 0.68827 0.74144 0.37716 0.0
C692 C 0.64775 0.89307 0.40306 0.0
H693 H 0.50423 0.86812 0.461 0.0
H694 H 0.54086 0.81835 0.43814 0.0
H695 H 0.62847 0.97323 0.42044 0.0
H696 H 0.63936 0.84821 0.34814 0.0
H697 H 0.62092 0.87849 0.37389 0.0
H698 H 0.6332 0.71625 0.40247 0.0
C699 C 0.55434 0.86444 0.44478 0.0
C700 C 0.63012 0.91683 0.41693 0.0
C701 C 0.53306 0.89336 0.45781 0.0
C702 C 0.65349 0.81733 0.35599 0.0
C703 C 0.64306 0.83536 0.37086 0.0
C704 C 0.63322 0.77227 0.4065 0.0
C705 C 0.59176 0.89604 0.44017 0.0
C706 C 0.61307 0.86897 0.42578 0.0
C707 C 0.66039 0.79829 0.38168 0.0
C708 C 0.64851 0.82076 0.39748 0.0
H709 H 0.59948 0.03235 0.46844 0.0
H710 H 0.63674 0.98157 0.44614 0.0
H711 H 0.60335 0.75765 0.4271 0.0
H712 H 0.72096 0.6801 0.35881 0.0
H713 H 0.70219 0.712 0.3853 0.0
C714 C 0.37981 0.05168 0.46032 0.0
C715 C 0.41303 0.08214 0.46945 0.0
C716 C 0.36835 0.07916 0.44738 0.0
C717 C 0.37228 0.24047 0.42919 0.0
H718 H 0.35431 0.1103 0.3931 0.0
C719 C 0.30158 0.30615 0.37187 0.0
C720 C 0.32548 0.27594 0.3595 0.0
C721 C 0.31205 0.2915 0.38623 0.0
C722 C 0.359 0.14739 0.40311 0.0
H723 H 0.46039 0.16561 0.47197 0.0
H724 H 0.44018 0.21374 0.44938 0.0
H725 H 0.37325 0.06471 0.41595 0.0
H726 H 0.38145 0.21274 0.35273 0.0
H727 H 0.39947 0.18812 0.3774 0.0
H728 H 0.35799 0.32321 0.4161 0.0
C729 C 0.42291 0.16864 0.45232 0.0
C730 C 0.3697 0.12121 0.41623 0.0
C731 C 0.43479 0.14052 0.46518 0.0
C732 C 0.3619 0.23611 0.36196 0.0
C733 C 0.37219 0.22155 0.37611 0.0
C734 C 0.36087 0.26673 0.41603 0.0
C735 C 0.38943 0.13842 0.44327 0.0
C736 C 0.37697 0.16728 0.42942 0.0
C737 C 0.34658 0.24661 0.38835 0.0
C738 C 0.35476 0.2204 0.40279 0.0
H739 H 0.36223 1.00685 0.46324 0.0
H740 H 0.34231 0.05471 0.44072 0.0
H741 H 0.37725 0.27737 0.4392 0.0
H742 H 0.27353 0.33726 0.37038 0.0
H743 H 0.29183 0.31192 0.3955 0.0
C744 C -0.00131 0.79241 1.0254 0.0
C745 C 0.03075 0.82422 0.0349 0.0
C746 C 0.98857 0.72118 1.02518 0.0
C747 C 0.02442 0.55254 0.03685 0.0
H748 H 0.90289 0.51879 0.03994 0.0
C749 C 0.96217 0.28272 0.04794 0.0
C750 C 0.93012 0.25377 0.0381 0.0
C751 C 0.9724 0.35444 0.04912 0.0
C752 C 0.9369 0.5272 0.03901 0.0
H753 H 0.08029 0.80381 0.05042 0.0
H754 H 0.06303 0.67946 0.04984 0.0
H755 H 0.92831 0.63615 0.0368 0.0
H756 H 0.88053 0.27934 1.02308 0.0
H757 H 0.89805 0.40397 1.02524 0.0
H758 H 0.033 0.4434 0.03894 0.0
C759 C 0.04534 0.70986 0.0427 0.0
C760 C 0.95148 0.59438 0.03712 0.0
C761 C 0.05534 0.78128 0.04299 0.0
C762 C 0.9056 0.29961 1.03069 0.0
C763 C 0.91568 0.37131 0.03193 0.0
C764 C 0.00983 0.48527 0.03872 0.0
C765 C 0.01062 0.67987 0.0343 0.0
C766 C -0.0046 0.60775 0.03593 0.0
C767 C 0.95043 0.39888 0.04063 0.0
C768 C 0.96587 0.47172 0.03976 0.0
H769 H 0.97937 0.82355 1.01887 0.0
H770 H 0.96232 0.69917 1.0183 0.0
H771 H 0.05841 0.56099 0.03587 0.0
H772 H 0.98153 0.24926 0.05393 0.0
H773 H -0.00129 0.37442 0.0562 0.0
C774 C 0.28644 0.52675 0.29668 0.0
C775 C 0.31633 0.49578 0.28621 0.0
C776 C 0.27772 0.59891 0.29799 0.0
C777 C 0.31276 0.76926 0.287 0.0
H778 H 0.19104 0.80398 0.28496 0.0
C779 C 0.24964 0.03571 0.27471 0.0
C780 C 0.21814 0.06663 0.28457 0.0
C781 C 0.25992 0.96444 0.27414 0.0
C782 C 0.22509 0.79528 0.28564 0.0
H783 H 0.36393 0.51792 0.27012 0.0
H784 H 0.34865 0.64353 0.27243 0.0
H785 H 0.21659 0.68637 0.28781 0.0
H786 H 0.16972 0.04502 0.3004 0.0
H787 H 0.18741 0.92068 0.29929 0.0
H788 H 0.32124 0.87825 0.2848 0.0
C789 C 0.33171 0.612 0.27954 0.0
C790 C 0.23975 0.72805 0.28737 0.0
C791 C 0.34044 0.53981 0.27822 0.0
C792 C 0.19423 0.02308 0.29271 0.0
C793 C 0.20446 0.95169 0.29211 0.0
C794 C 0.29809 0.8366 0.28529 0.0
C795 C 0.29886 0.64156 0.28892 0.0
C796 C 0.28373 0.71429 0.28806 0.0
C797 C 0.23865 0.92245 0.28331 0.0
C798 C 0.25408 0.85025 0.28455 0.0
H799 H 0.26761 0.49467 0.30316 0.0
H800 H 0.25296 0.62071 0.30559 0.0
H801 H 0.34681 0.76032 0.28758 0.0
H802 H 0.26841 0.06748 0.26815 0.0
H803 H 0.28572 0.94293 0.26697 0.0
C804 C 0.83344 0.02017 0.2777 0.0
C805 C 0.8092 0.97681 0.28581 0.0
C806 C 0.82508 0.09245 0.27894 0.0
C807 C 0.73344 0.20864 0.28646 0.0
H808 H 0.81486 0.35948 0.2844 0.0
C809 C 0.68734 0.50291 0.2926 0.0
C810 C 0.7113 0.54762 0.28476 0.0
C811 C 0.69776 0.43152 0.2917 0.0
C812 C 0.79174 0.31761 0.28473 0.0
H813 H 0.76081 0.97697 0.30292 0.0
H814 H 0.74673 0.10311 0.30516 0.0
H815 H 0.84046 0.24138 0.2871 0.0
H816 H 0.76191 0.55066 0.26853 0.0
H817 H 0.77956 0.426 0.26683 0.0
H818 H 0.68474 0.28434 0.28395 0.0
C819 C 0.77131 0.08072 0.29755 0.0
C820 C 0.80644 0.25024 0.2864 0.0
C821 C 0.77967 1.00852 0.29634 0.0
C822 C 0.74309 0.51796 0.27487 0.0
C823 C 0.75356 0.44663 0.27401 0.0
C824 C 0.71877 0.27582 0.28474 0.0
C825 C 0.79246 0.12264 0.28834 0.0
C826 C 0.7774 0.19517 0.28734 0.0
C827 C 0.73218 0.40341 0.28288 0.0
C828 C 0.74773 0.33107 0.28388 0.0
H829 H 0.85669 0.99768 0.26958 0.0
H830 H 0.84202 0.12354 0.27175 0.0
H831 H 0.71033 0.16678 0.28679 0.0
H832 H 0.66255 0.52385 0.30028 0.0
H833 H 0.68063 0.39957 0.29868 0.0
C834 C 0.92179 0.79892 0.52593 0.0
C835 C 0.94513 0.75589 0.53436 0.0
C836 C 0.93082 0.87084 0.52698 0.0
C837 C 0.9888 0.01918 0.54859 0.0
H838 H 0.00488 0.07949 0.50997 0.0
C839 C 0.06441 0.28625 0.54347 0.0
C840 C 0.03971 0.32833 0.53525 0.0
C841 C 0.05678 0.21383 0.54235 0.0
C842 C 0.0004 0.06341 0.52082 0.0
H843 H -0.00708 0.75605 0.55165 0.0
H844 H 0.00865 0.88121 0.55339 0.0
H845 H 0.97744 0.96153 0.51159 0.0
H846 H 0.99104 0.32648 0.51822 0.0
H847 H 0.97782 0.20043 0.5163 0.0
H848 H 0.0117 0.12115 0.55782 0.0
C849 C 0.98363 0.85939 0.54592 0.0
C850 C 0.98436 0.99621 0.52176 0.0
C851 C 0.97464 0.78752 0.54488 0.0
C852 C 0.0103 0.2956 0.52483 0.0
C853 C 0.00279 0.22327 0.52368 0.0
C854 C 0.00487 0.08638 0.54765 0.0
C855 C 0.96314 0.90101 0.53651 0.0
C856 C 0.97824 0.97355 0.53566 0.0
C857 C 0.02462 0.18234 0.53291 0.0
C858 C 0.01073 0.10918 0.53375 0.0
H859 H 0.89852 0.77645 0.51782 0.0
H860 H 0.9138 0.90223 0.51986 0.0
H861 H 0.98417 1.00323 0.55944 0.0
H862 H 0.08755 0.30974 0.55152 0.0
H863 H 0.07469 0.18303 0.54935 0.0
C864 C 0.3336 0.03731 0.77994 0.0
C865 C 0.30971 0.99237 0.78777 0.0
C866 C 0.32321 0.10878 0.78089 0.0
C867 C 0.25872 0.25382 0.80119 0.0
H868 H 0.25264 0.31658 0.7625 0.0
C869 C 0.18399 0.52122 0.79422 0.0
C870 C 0.20925 0.56394 0.7863 0.0
C871 C 0.19276 0.44919 0.79355 0.0
C872 C 0.25436 0.30002 0.77339 0.0
H873 H 0.25938 0.98941 0.80408 0.0
H874 H 0.24091 0.11358 0.80553 0.0
H875 H 0.27966 0.19901 0.76462 0.0
H876 H 0.26092 0.56278 0.77034 0.0
H877 H 0.27619 0.43781 0.76926 0.0
H878 H 0.23349 0.35505 0.80995 0.0
C879 C 0.26757 0.0936 0.79861 0.0
C880 C 0.27011 0.23281 0.77463 0.0
C881 C 0.27819 0.02218 0.79776 0.0
C882 C 0.24086 0.53169 0.77665 0.0
C883 C 0.24966 0.4598 0.77601 0.0
C884 C 0.24296 0.32111 0.79995 0.0
C885 C 0.28873 0.13689 0.78967 0.0
C886 C 0.27278 0.2091 0.78856 0.0
C887 C 0.22682 0.41836 0.78491 0.0
C888 C 0.24079 0.34509 0.78604 0.0
H889 H 0.35847 1.01649 0.77228 0.0
H890 H 0.34096 0.14135 0.77421 0.0
H891 H 0.26057 0.23729 0.81208 0.0
H892 H 0.15923 0.54409 0.8017 0.0
H893 H 0.17396 0.4182 0.80027 0.0
C894 C 0.78663 0.52822 0.79346 0.0
C895 C 0.81602 0.49684 0.78285 0.0
C896 C 0.77729 0.60001 0.79452 0.0
C897 C 0.7753 0.73685 0.77035 0.0
H898 H 0.74919 0.86219 0.80648 0.0
C899 C 0.74993 0.03624 0.77323 0.0
C900 C 0.721 0.06961 0.78376 0.0
C901 C 0.75726 0.96387 0.77216 0.0
C902 C 0.75566 0.82732 0.79628 0.0
H903 H 0.86204 0.51786 0.76616 0.0
H904 H 0.84615 0.64343 0.76821 0.0
H905 H 0.77665 0.74411 0.80802 0.0
H906 H 0.67396 0.05215 0.80038 0.0
H907 H 0.68647 0.92535 0.79835 0.0
H908 H 0.75447 0.82012 0.75861 0.0
C909 C 0.8295 0.61191 0.7754 0.0
C910 C 0.77169 0.76001 0.79718 0.0
C911 C 0.83888 0.54009 0.77434 0.0
C912 C 0.69666 0.02813 0.79222 0.0
C913 C 0.70412 0.95566 0.79118 0.0
C914 C 0.75927 0.80413 0.76945 0.0
C915 C 0.79729 0.6418 0.78502 0.0
C916 C 0.78189 0.71427 0.78422 0.0
C917 C 0.73577 0.92348 0.78159 0.0
C918 C 0.74944 0.85012 0.78241 0.0
H919 H 0.76868 0.49659 0.80029 0.0
H920 H 0.75239 0.62163 0.80207 0.0
H921 H 0.78191 0.70209 0.76015 0.0
H922 H 0.76892 0.06668 0.76645 0.0
H923 H 0.78185 0.94057 0.76466 0.0
C924 C 0.55097 0.76079 0.54378 0.0
C925 C 0.52765 0.80438 0.53547 0.0
C926 C 0.54101 0.68916 0.543 0.0
C927 C 0.47842 0.54214 0.52229 0.0
H928 H 0.47117 0.479 0.56093 0.0
C929 C 0.40127 0.27681 0.5288 0.0
C930 C 0.42629 0.23253 0.53644 0.0
C931 C 0.41061 0.34871 0.52976 0.0
C932 C 0.47321 0.49574 0.55007 0.0
H933 H 0.479 0.80476 0.51851 0.0
H934 H 0.46108 0.68065 0.51739 0.0
H935 H 0.49822 0.59681 0.55895 0.0
H936 H 0.47825 0.23086 0.55219 0.0
H937 H 0.49427 0.35601 0.55386 0.0
H938 H 0.4532 0.4411 0.51344 0.0
C939 C 0.48699 0.70161 0.52456 0.0
C940 C 0.48901 0.56305 0.54889 0.0
C941 C 0.49722 0.77307 0.52524 0.0
C942 C 0.45819 0.26319 0.54616 0.0
C943 C 0.46752 0.33512 0.54709 0.0
C944 C 0.46249 0.47492 0.52348 0.0
C945 C 0.50753 0.65956 0.5339 0.0
C946 C 0.49199 0.58698 0.53499 0.0
C947 C 0.44502 0.37796 0.53841 0.0
C948 C 0.45976 0.45092 0.53737 0.0
H949 H 0.57496 0.78277 0.55167 0.0
H950 H 0.55835 0.65765 0.55001 0.0
H951 H 0.48063 0.55858 0.51141 0.0
H952 H 0.37624 0.25521 0.52131 0.0
H953 H 0.39203 0.38083 0.52321 0.0
C954 C 0.46946 0.75963 0.04388 0.0
C955 C 0.4414 0.72743 0.03292 0.0
C956 C 0.47825 0.83159 0.045 0.0
C957 C 0.48209 0.96844 1.02088 0.0
H958 H 0.50396 0.0937 0.05738 0.0
C959 C 0.50766 0.26817 1.02436 0.0
C960 C 0.53562 0.30119 0.03526 0.0
C961 C 0.50018 0.19581 1.02313 0.0
C962 C 0.49866 0.05887 0.0471 0.0
H963 H 0.39723 0.74694 1.01556 0.0
H964 H 0.41215 0.87293 1.01773 0.0
H965 H 0.47641 0.97534 0.0585 0.0
H966 H 0.58089 0.2832 0.05239 0.0
H967 H 0.5681 0.15639 0.05007 0.0
H968 H 0.50419 0.05209 1.00948 0.0
C969 C 0.42815 0.84193 1.02516 0.0
C970 C 0.48258 0.9914 0.04775 0.0
C971 C 0.41931 0.7699 1.02404 0.0
C972 C 0.55893 0.25943 0.04395 0.0
C973 C 0.55131 0.18697 0.04274 0.0
C974 C 0.49815 0.03592 1.02023 0.0
C975 C 0.45903 0.87275 0.03523 0.0
C976 C 0.47402 0.94561 0.03464 0.0
C977 C 0.52055 0.15513 0.03275 0.0
C978 C 0.50654 0.0818 0.03333 0.0
H979 H 0.48674 0.72855 0.05099 0.0
H980 H 0.50216 0.85389 0.05289 0.0
H981 H 0.47672 0.93367 1.01059 0.0
H982 H 0.48952 0.29885 1.0174 0.0
H983 H 0.4763 0.17272 1.01531 0.0
C984 C 0.34268 0.44929 0.04115 0.0
C985 C 0.37395 0.42797 0.05065 0.0
C986 C 0.29978 0.43592 0.04341 0.0
C987 C 0.23206 0.31288 0.05997 0.0
H988 H 0.14272 0.42769 0.04596 0.0
C989 C 0.07116 0.19271 0.04885 0.0
C990 C 0.06082 0.18962 0.03375 0.0
C991 C 0.09953 0.24314 0.05552 0.0
C992 C 0.16728 0.3957 0.0501 0.0
H993 H 0.38465 0.37548 0.06997 0.0
H994 H 0.30935 0.35445 0.0743 0.0
H995 H 0.21478 0.47575 0.04986 0.0
H996 H 0.06805 0.24171 1.01422 0.0
H997 H 0.11952 0.32859 1.02576 0.0
H998 H 0.1853 0.23217 0.05977 0.0
C999 C 0.31817 0.38088 0.06497 0.0
C1000 C 0.20851 0.42282 0.05225 0.0
C1001 C 0.36133 0.39322 0.06254 0.0
C1002 C 0.07609 0.24226 1.02581 0.0
C1003 C 0.1051 0.29245 0.03247 0.0
C1004 C 0.1909 0.28631 0.05804 0.0
C1005 C 0.28694 0.40148 0.05532 0.0
C1006 C 0.24177 0.3803 0.0565 0.0
C1007 C 0.11872 0.29062 0.04715 0.0
C1008 C 0.15859 0.32629 0.05249 0.0
H1009 H 0.3513 0.47576 0.0318 0.0
H1010 H 0.27689 0.45063 0.03548 0.0
H1011 H 0.25679 0.27822 0.06308 0.0
H1012 H 0.05907 0.15393 0.05539 0.0
H1013 H 0.10895 0.24156 0.06693 0.0
C1014 C 0.8905 0.81897 0.04692 0.0
C1015 C 0.90005 0.87698 0.03963 0.0
C1016 C 0.86443 0.76481 0.04007 0.0
C1017 C 0.77695 0.75624 1.01388 0.0
H1018 H 0.764 0.56698 1.02387 0.0
C1019 C 0.616 0.62122 1.00673 0.0
C1020 C 0.60207 0.59303 1.01934 0.0
C1021 C 0.65894 0.6367 1.005 0.0
C1022 C 0.76741 0.61961 1.0209 0.0
H1023 H 0.89431 0.91979 1.01884 0.0
H1024 H 0.85146 0.82378 1.00664 0.0
H1025 H 0.83273 0.62743 1.02794 0.0
H1026 H 0.62225 0.55751 0.03989 0.0
H1027 H 0.69687 0.58824 0.03726 0.0
H1028 H 0.71159 0.75095 1.0077 0.0
C1029 C 0.86225 0.8214 1.01787 0.0
C1030 C 0.80666 0.65406 1.02322 0.0
C1031 C 0.88692 0.87647 1.02487 0.0
C1032 C 0.63203 0.5795 1.03007 0.0
C1033 C 0.67491 0.596 1.02844 0.0
C1034 C 0.73805 0.72201 1.01157 0.0
C1035 C 0.8484 0.76744 1.02571 0.0
C1036 C 0.81125 0.7238 1.02024 0.0
C1037 C 0.68867 0.62582 1.016 0.0
C1038 C 0.73234 0.65448 1.01558 0.0
H1039 H 0.90085 0.81765 0.05824 0.0
H1040 H 0.85435 0.72401 0.04645 0.0
H1041 H 0.77884 0.81042 1.01173 0.0
H1042 H 0.59378 0.63185 0.99821 0.0
H1043 H 0.6687 0.65897 0.99522 0.0
C1044 C 0.12609 0.35862 0.2825 0.0
C1045 C 0.15486 0.37157 0.27135 0.0
C1046 C 0.08278 0.37177 0.28107 0.0
C1047 C 0.01197 0.48456 0.26354 0.0
H1048 H 0.92425 0.37534 0.2801 0.0
C1049 C 0.85376 0.61097 0.27518 0.0
C1050 C 0.84109 0.61249 0.29002 0.0
C1051 C 0.88158 0.55942 0.26864 0.0
C1052 C 0.94835 0.40595 0.27533 0.0
H1053 H 0.16079 0.40807 0.2499 0.0
H1054 H 0.08481 0.43072 0.24738 0.0
H1055 H -0.00353 0.32732 0.2764 0.0
H1056 H 0.84446 0.5578 0.30928 0.0
H1057 H 0.89646 0.47061 0.29825 0.0
H1058 H 0.96545 0.56481 0.26321 0.0
C1059 C 0.09596 0.41063 0.25725 0.0
C1060 C 0.98958 0.37866 0.27323 0.0
C1061 C 0.13944 0.39796 0.25872 0.0
C1062 C 0.85425 0.55821 0.29787 0.0
C1063 C 0.88354 0.50778 0.29147 0.0
C1064 C 0.97103 0.51169 0.26562 0.0
C1065 C 0.06726 0.39794 0.26845 0.0
C1066 C 0.02208 0.41903 0.26784 0.0
C1067 C 0.89913 0.51048 0.27704 0.0
C1068 C 0.93914 0.47385 0.27201 0.0
H1069 H 0.13701 0.33837 0.29239 0.0
H1070 H 0.06163 0.36325 0.29007 0.0
H1071 H 0.03637 0.51742 0.25958 0.0
H1072 H 0.84399 0.65159 0.26875 0.0
H1073 H 0.89206 0.56152 0.25737 0.0
C1074 C 0.39062 0.85737 0.52274 0.0
C1075 C 0.40028 0.85688 0.53779 0.0
C1076 C 0.37007 0.80057 0.51461 0.0
C1077 C 0.28682 0.73502 0.50769 0.0
H1078 H 0.26559 0.55077 0.51919 0.0
C1079 C 0.13604 0.58893 0.52767 0.0
C1080 C 0.10537 0.60804 0.51771 0.0
C1081 C 0.17934 0.5947 0.52467 0.0
C1082 C 0.27136 0.60188 0.51573 0.0
H1083 H 0.39837 0.79453 0.55589 0.0
H1084 H 0.35676 0.69895 0.54223 0.0
H1085 H 0.3359 0.60509 0.52358 0.0
H1086 H 0.09609 0.64622 0.49657 0.0
H1087 H 0.17157 0.65321 0.49102 0.0
H1088 H 0.22222 0.73523 0.5009 0.0
C1089 C 0.36765 0.74123 0.53641 0.0
C1090 C 0.31156 0.6329 0.51824 0.0
C1091 C 0.39073 0.79664 0.54435 0.0
C1092 C 0.11886 0.63088 0.50447 0.0
C1093 C 0.16217 0.63499 0.50129 0.0
C1094 C 0.24701 0.70427 0.5052 0.0
C1095 C 0.35512 0.74465 0.52165 0.0
C1096 C 0.31884 0.70164 0.51503 0.0
C1097 C 0.19292 0.61894 0.51156 0.0
C1098 C 0.23802 0.63937 0.51001 0.0
H1099 H 0.39718 0.90283 0.5173 0.0
H1100 H 0.36238 0.80373 0.50311 0.0
H1101 H 0.29058 0.78834 0.50518 0.0
H1102 H 0.12667 0.57089 0.53797 0.0
H1103 H 0.20201 0.58346 0.53301 0.0
C1104 C 0.85545 0.44501 0.53611 0.0
C1105 C 0.88323 0.4324 0.54755 0.0
C1106 C 0.81479 0.41657 0.53525 0.0
C1107 C 0.73098 0.34812 0.55688 0.0
H1108 H 0.69112 0.26419 0.51804 0.0
C1109 C 0.58764 0.16204 0.54477 0.0
C1110 C 0.56509 0.16492 0.53153 0.0
C1111 C 0.62122 0.20832 0.54871 0.0
C1112 C 0.70148 0.28884 0.5289 0.0
H1113 H 0.89063 0.37942 0.56697 0.0
H1114 H 0.81875 0.32817 0.5653 0.0
H1115 H 0.76324 0.30996 0.52079 0.0
H1116 H 0.55602 0.22394 0.51306 0.0
H1117 H 0.61501 0.30492 0.51996 0.0
H1118 H 0.66907 0.32481 0.56498 0.0
C1119 C 0.82873 0.36109 0.55716 0.0
C1120 C 0.74282 0.31442 0.53049 0.0
C1121 C 0.86979 0.38975 0.55803 0.0
C1122 C 0.5736 0.21947 0.52312 0.0
C1123 C 0.60718 0.26583 0.52709 0.0
C1124 C 0.68942 0.32206 0.55529 0.0
C1125 C 0.80104 0.3745 0.54575 0.0
C1126 C 0.75786 0.34452 0.54446 0.0
C1127 C 0.63253 0.2581 0.53947 0.0
C1128 C 0.67443 0.29247 0.54126 0.0
H1129 H 0.86487 0.47757 0.52782 0.0
H1130 H 0.79384 0.42834 0.52645 0.0
H1131 H 0.7419 0.37181 0.56774 0.0
H1132 H 0.58106 0.12146 0.55167 0.0
H1133 H 0.6403 0.20142 0.55833 0.0
C1134 C 0.91506 0.21828 0.793 0.0
C1135 C 0.88178 0.19476 0.80141 0.0
C1136 C 0.95732 0.20377 0.79613 0.0
C1137 C 0.01846 0.07276 0.81292 0.0
H1138 H 0.11316 0.17947 0.79988 0.0
C1139 C 0.17135 0.93173 0.80047 0.0
C1140 C 0.18138 0.93003 0.78537 0.0
C1141 C 0.14681 0.98614 0.8078 0.0
C1142 C 0.08711 0.14977 0.80381 0.0
H1143 H 0.86682 0.13773 0.81976 0.0
H1144 H 0.94058 0.11655 0.82589 0.0
H1145 H 0.04294 0.23488 0.80365 0.0
H1146 H 0.17766 0.98775 0.76654 0.0
H1147 H 0.1321 0.08112 0.77915 0.0
H1148 H 0.06169 0.9871 0.81259 0.0
C1149 C 0.93406 0.14486 0.81663 0.0
C1150 C 0.04688 0.18107 0.80585 0.0
C1151 C 0.89168 0.15762 0.81322 0.0
C1152 C 0.16964 0.98714 0.7781 0.0
C1153 C 0.14419 0.04113 0.7854 0.0
C1154 C 0.05856 0.04212 0.81113 0.0
C1155 C 0.96738 0.16634 0.80791 0.0
C1156 C 0.01163 0.14143 0.80962 0.0
C1157 C 0.1307 0.03875 0.80006 0.0
C1158 C 0.09273 0.07902 0.80584 0.0
H1159 H 0.90854 0.24678 0.78377 0.0
H1160 H 0.98185 0.21952 0.78889 0.0
H1161 H -0.00773 0.04 0.81564 0.0
H1162 H 0.18066 0.88932 0.8065 0.0
H1163 H 0.13744 0.98384 0.81919 0.0
C1164 C 0.62807 0.35392 0.78119 0.0
C1165 C 0.65634 0.36638 0.76986 0.0
C1166 C 0.58499 0.3702 0.78028 0.0
C1167 C 0.51547 0.48981 0.7639 0.0
H1168 H 0.42646 0.38431 0.78074 0.0
C1169 C 0.35672 0.61932 0.77585 0.0
C1170 C 0.34436 0.62124 0.79073 0.0
C1171 C 0.38541 0.56871 0.76944 0.0
C1172 C 0.45094 0.41393 0.7759 0.0
H1173 H 0.66158 0.40447 0.74855 0.0
H1174 H 0.58603 0.43248 0.74692 0.0
H1175 H 0.49753 0.33245 0.77645 0.0
H1176 H 0.34898 0.56816 0.81019 0.0
H1177 H 0.4015 0.48173 0.79925 0.0
H1178 H 0.47021 0.57256 0.764 0.0
C1179 C 0.59738 0.41064 0.75656 0.0
C1180 C 0.49152 0.38446 0.77347 0.0
C1181 C 0.64062 0.39482 0.75752 0.0
C1182 C 0.35849 0.56816 0.79874 0.0
C1183 C 0.38815 0.51828 0.79241 0.0
C1184 C 0.4751 0.51907 0.76629 0.0
C1185 C 0.56922 0.39899 0.76799 0.0
C1186 C 0.52452 0.42329 0.76794 0.0
C1187 C 0.40335 0.52043 0.77793 0.0
C1188 C 0.4428 0.48247 0.77276 0.0
H1189 H 0.63924 0.33205 0.79085 0.0
H1190 H 0.5643 0.36218 0.78943 0.0
H1191 H 0.5403 0.52152 0.75984 0.0
H1192 H 0.34573 0.65873 0.76929 0.0
H1193 H 0.39573 0.57042 0.75813 0.0
C1194 C 0.63657 0.88438 0.2566 0.0
C1195 C 0.64841 0.85429 0.26921 0.0
C1196 C 0.59393 0.89956 0.25412 0.0
C1197 C 0.48323 0.87595 0.26757 0.0
H1198 H 0.47141 0.06929 0.26004 0.0
C1199 C 0.35823 0.0681 0.29443 0.0
C1200 C 0.34914 0.12847 0.28784 0.0
C1201 C 0.38448 1.01533 0.28712 0.0
C1202 C 0.47344 1.01442 0.26169 0.0
H1203 H 0.62491 0.81591 0.28907 0.0
H1204 H 0.55089 0.84578 0.28514 0.0
H1205 H 0.5395 1.0121 0.25643 0.0
H1206 H 0.35617 0.17721 0.26779 0.0
H1207 H 0.39915 0.08362 0.25478 0.0
H1208 H 0.41719 0.88064 0.27376 0.0
C1209 C 0.57424 0.85521 0.27687 0.0
C1210 C 0.51284 0.98152 0.25963 0.0
C1211 C 0.61679 0.83924 0.27925 0.0
C1212 C 0.36297 0.13183 0.27328 0.0
C1213 C 0.3878 0.07818 0.26581 0.0
C1214 C 0.44352 0.90903 0.26964 0.0
C1215 C 0.56244 0.88619 0.26436 0.0
C1216 C 0.51864 0.9132 0.26318 0.0
C1217 C 0.40121 0.0218 0.27301 0.0
C1218 C 0.4388 0.97973 0.26734 0.0
H1219 H 0.66015 0.89633 0.24861 0.0
H1220 H 0.58572 0.92311 0.24435 0.0
H1221 H 0.48674 0.82261 0.27012 0.0
H1222 H 0.34737 0.06376 0.30557 0.0
H1223 H 0.39423 0.97258 0.29301 0.0
loop_
_geom_bond_atom_site_label_1
_geom_bond_atom_site_label_2
_geom_bond_distance
_geom_bond_site_symmetry_2
_ccdc_geom_bond_type
Co0 O3 2.044 1_455 S
Co0 O10 2.264 1_455 S
Co0 O29 2.286 . S
Co0 O30 2.069 1_545 S
Co0 O32 2.015 . S
Co1 O3 2.128 . S
Co1 O9 2.073 . S
Co1 O10 2.327 . S
Co1 O11 1.976 . S
Co2 O3 2.087 1_454 S
Co2 O5 2.087 . S
Co2 O12 2.119 1_455 S
Co2 O13 2.140 1_445 S
Co2 O17 2.104 1_544 S
Co2 O31 2.147 . S
O3 Co0 2.044 1_655 S
O3 Co1 2.128 . S
O3 Co2 2.087 1_656 S
O3 H4 0.974 1_545 S
H4 O3 0.974 1_565 S
O5 Co2 2.087 . S
O5 Co6 2.040 1_445 S
O5 Co7 2.116 1_545 S
O5 H8 0.987 . S
Co6 O5 2.040 1_665 S
Co6 O14 2.286 . S
Co6 O15 2.069 1_565 S
Co6 O16 2.015 . S
Co6 O19 2.264 1_655 S
Co7 O5 2.116 1_565 S
Co7 O18 1.976 . S
Co7 O19 2.327 . S
Co7 O20 2.073 . S
H8 O5 0.987 . S
O9 Co1 2.073 . S
O9 C24 1.245 . S
O10 Co0 2.264 1_655 S
O10 Co1 2.327 . S
O10 C24 1.257 . S
O11 Co1 1.976 . S
O11 C23 1.251 1_556 S
O12 Co2 2.119 1_655 S
O12 C23 1.274 . S
O13 Co2 2.140 1_665 S
O13 C26 1.246 . S
O14 Co6 2.286 . S
O14 C25 1.259 1_565 S
O15 Co6 2.069 1_545 S
O15 C25 1.289 . S
O16 Co6 2.015 . S
O16 C26 1.257 . S
O17 Co2 2.104 1_566 S
O17 C27 1.274 1_556 S
O18 Co7 1.976 . S
O18 C27 1.251 . S
O19 Co6 2.264 1_455 S
O19 Co7 2.327 . S
O19 C28 1.257 . S
O20 Co7 2.073 . S
O20 C28 1.245 . S
C21 O29 1.259 1_565 S
C21 O30 1.289 . S
C22 O31 1.246 1_556 S
C22 O32 1.257 . S
C23 O11 1.251 1_554 S
C23 O12 1.274 . S
C24 O9 1.245 . S
C24 O10 1.257 . S
C25 O14 1.259 1_545 S
C25 O15 1.289 . S
C26 O13 1.246 . S
C26 O16 1.257 . S
C27 O17 1.274 1_554 S
C27 O18 1.251 . S
C28 O19 1.257 . S
C28 O20 1.245 . S
O29 Co0 2.286 . S
O29 C21 1.259 1_545 S
O30 Co0 2.069 1_565 S
O30 C21 1.289 . S
O31 Co2 2.147 . S
O31 C22 1.246 1_554 S
O32 Co0 2.015 . S
O32 C22 1.257 . S
Co33 O36 2.042 . S
Co33 O43 2.264 . S
Co33 O62 2.286 . S
Co33 O63 2.069 . S
Co33 O65 2.015 . S
Co34 O36 2.122 . S
Co34 O42 2.073 . S
Co34 O43 2.327 . S
Co34 O44 1.976 . S
Co35 O36 2.087 . S
Co35 O38 2.087 . S
Co35 O45 2.111 . S
Co35 O46 2.143 . S
Co35 O50 2.111 . S
Co35 O64 2.143 . S
O36 Co33 2.042 . S
O36 Co34 2.122 . S
O36 Co35 2.087 . S
O36 H37 0.980 . S
H37 O36 0.980 . S
O38 Co35 2.087 . S
O38 Co39 2.042 . S
O38 Co40 2.122 . S
O38 H41 0.980 . S
Co39 O38 2.042 . S
Co39 O47 2.286 . S
Co39 O48 2.069 . S
Co39 O49 2.015 . S
Co39 O52 2.264 . S
Co40 O38 2.122 . S
Co40 O51 1.976 . S
Co40 O52 2.327 . S
Co40 O53 2.073 . S
H41 O38 0.980 . S
O42 Co34 2.073 . S
O42 C57 1.245 . S
O43 Co33 2.264 . S
O43 Co34 2.327 . S
O43 C57 1.257 . S
O44 Co34 1.976 . S
O44 C56 1.251 . S
O45 Co35 2.111 . S
O45 C56 1.274 . S
O46 Co35 2.143 . S
O46 C59 1.246 . S
O47 Co39 2.286 . S
O47 C58 1.259 . S
O48 Co39 2.069 . S
O48 C58 1.289 . S
O49 Co39 2.015 . S
O49 C59 1.257 . S
O50 Co35 2.111 . S
O50 C60 1.274 . S
O51 Co40 1.976 . S
O51 C60 1.251 . S
O52 Co39 2.264 . S
O52 Co40 2.327 . S
O52 C61 1.257 . S
O53 Co40 2.073 . S
O53 C61 1.245 . S
C54 O62 1.259 . S
C54 O63 1.289 . S
C55 O64 1.246 . S
C55 O65 1.257 . S
C56 O44 1.251 . S
C56 O45 1.274 . S
C57 O42 1.245 . S
C57 O43 1.257 . S
C58 O47 1.259 . S
C58 O48 1.289 . S
C59 O46 1.246 . S
C59 O49 1.257 . S
C60 O50 1.274 . S
C60 O51 1.251 . S
C61 O52 1.257 . S
C61 O53 1.245 . S
O62 Co33 2.286 . S
O62 C54 1.259 . S
O63 Co33 2.069 . S
O63 C54 1.289 . S
O64 Co35 2.143 . S
O64 C55 1.246 . S
O65 Co33 2.015 . S
O65 C55 1.257 . S
Co66 O69 2.042 . S
Co66 O76 2.264 . S
Co66 O95 2.286 . S
Co66 O96 2.069 . S
Co66 O98 2.015 . S
Co67 O69 2.122 . S
Co67 O75 2.073 . S
Co67 O76 2.327 . S
Co67 O77 1.976 . S
Co68 O69 2.087 . S
Co68 O71 2.087 . S
Co68 O78 2.111 . S
Co68 O79 2.143 . S
Co68 O83 2.111 . S
Co68 O97 2.143 . S
O69 Co66 2.042 . S
O69 Co67 2.122 . S
O69 Co68 2.087 . S
O69 H70 0.980 . S
H70 O69 0.980 . S
O71 Co68 2.087 . S
O71 Co72 2.042 . S
O71 Co73 2.122 . S
O71 H74 0.980 . S
Co72 O71 2.042 . S
Co72 O80 2.286 . S
Co72 O81 2.069 . S
Co72 O82 2.015 . S
Co72 O85 2.264 . S
Co73 O71 2.122 . S
Co73 O84 1.976 . S
Co73 O85 2.327 . S
Co73 O86 2.073 . S
H74 O71 0.980 . S
O75 Co67 2.073 . S
O75 C90 1.245 . S
O76 Co66 2.264 . S
O76 Co67 2.327 . S
O76 C90 1.257 . S
O77 Co67 1.976 . S
O77 C89 1.251 . S
O78 Co68 2.111 . S
O78 C89 1.274 . S
O79 Co68 2.143 . S
O79 C92 1.246 . S
O80 Co72 2.286 . S
O80 C91 1.259 . S
O81 Co72 2.069 . S
O81 C91 1.289 . S
O82 Co72 2.015 . S
O82 C92 1.257 . S
O83 Co68 2.111 . S
O83 C93 1.274 . S
O84 Co73 1.976 . S
O84 C93 1.251 . S
O85 Co72 2.264 . S
O85 Co73 2.327 . S
O85 C94 1.257 . S
O86 Co73 2.073 . S
O86 C94 1.245 . S
C87 O95 1.259 . S
C87 O96 1.289 . S
C88 O97 1.246 . S
C88 O98 1.257 . S
C89 O77 1.251 . S
C89 O78 1.274 . S
C90 O75 1.245 . S
C90 O76 1.257 . S
C91 O80 1.259 . S
C91 O81 1.289 . S
C92 O79 1.246 . S
C92 O82 1.257 . S
C93 O83 1.274 . S
C93 O84 1.251 . S
C94 O85 1.257 . S
C94 O86 1.245 . S
O95 Co66 2.286 . S
O95 C87 1.259 . S
O96 Co66 2.069 . S
O96 C87 1.289 . S
O97 Co68 2.143 . S
O97 C88 1.246 . S
O98 Co66 2.015 . S
O98 C88 1.257 . S
Co99 O102 2.042 1_455 S
Co99 O109 2.264 1_455 S
Co99 O128 2.286 . S
Co99 O129 2.069 . S
Co99 O131 2.015 . S
Co100 O102 2.122 . S
Co100 O108 2.073 . S
Co100 O109 2.327 . S
Co100 O110 1.976 . S
Co101 O102 2.087 1_455 S
Co101 O104 2.087 . S
Co101 O111 2.111 1_455 S
Co101 O112 2.143 1_455 S
Co101 O116 2.111 . S
Co101 O130 2.143 . S
O102 Co99 2.042 1_655 S
O102 Co100 2.122 . S
O102 Co101 2.087 1_655 S
O102 H103 0.980 . S
H103 O102 0.980 . S
O104 Co101 2.087 . S
O104 Co105 2.042 1_455 S
O104 Co106 2.122 . S
O104 H107 0.980 . S
Co105 O104 2.042 1_655 S
Co105 O113 2.286 . S
Co105 O114 2.069 . S
Co105 O115 2.015 . S
Co105 O118 2.264 1_655 S
Co106 O104 2.122 . S
Co106 O117 1.976 . S
Co106 O118 2.327 . S
Co106 O119 2.073 . S
H107 O104 0.980 . S
O108 Co100 2.073 . S
O108 C123 1.245 . S
O109 Co99 2.264 1_655 S
O109 Co100 2.327 . S
O109 C123 1.257 . S
O110 Co100 1.976 . S
O110 C122 1.251 . S
O111 Co101 2.111 1_655 S
O111 C122 1.274 . S
O112 Co101 2.143 1_655 S
O112 C125 1.246 . S
O113 Co105 2.286 . S
O113 C124 1.259 . S
O114 Co105 2.069 . S
O114 C124 1.289 . S
O115 Co105 2.015 . S
O115 C125 1.257 . S
O116 Co101 2.111 . S
O116 C126 1.274 . S
O117 Co106 1.976 . S
O117 C126 1.251 . S
O118 Co105 2.264 1_455 S
O118 Co106 2.327 . S
O118 C127 1.257 . S
O119 Co106 2.073 . S
O119 C127 1.245 . S
C120 O128 1.259 . S
C120 O129 1.289 . S
C121 O130 1.246 . S
C121 O131 1.257 . S
C122 O110 1.251 . S
C122 O111 1.274 . S
C123 O108 1.245 . S
C123 O109 1.257 . S
C124 O113 1.259 . S
C124 O114 1.289 . S
C125 O112 1.246 . S
C125 O115 1.257 . S
C126 O116 1.274 . S
C126 O117 1.251 . S
C127 O118 1.257 . S
C127 O119 1.245 . S
O128 Co99 2.286 . S
O128 C120 1.259 . S
O129 Co99 2.069 . S
O129 C120 1.289 . S
O130 Co101 2.143 . S
O130 C121 1.246 . S
O131 Co99 2.015 . S
O131 C121 1.257 . S
Co132 O135 2.042 . S
Co132 O142 2.264 . S
Co132 O161 2.286 . S
Co132 O162 2.069 . S
Co132 O164 2.015 . S
Co133 O135 2.122 . S
Co133 O141 2.073 . S
Co133 O142 2.327 . S
Co133 O143 1.976 . S
Co134 O135 2.087 . S
Co134 O137 2.087 . S
Co134 O144 2.111 . S
Co134 O145 2.143 . S
Co134 O149 2.111 . S
Co134 O163 2.143 . S
O135 Co132 2.042 . S
O135 Co133 2.122 . S
O135 Co134 2.087 . S
O135 H136 0.980 . S
H136 O135 0.980 . S
O137 Co134 2.087 . S
O137 Co138 2.042 . S
O137 Co139 2.122 . S
O137 H140 0.980 . S
Co138 O137 2.042 . S
Co138 O146 2.286 . S
Co138 O147 2.069 . S
Co138 O148 2.015 . S
Co138 O151 2.264 . S
Co139 O137 2.122 . S
Co139 O150 1.976 . S
Co139 O151 2.327 . S
Co139 O152 2.073 . S
H140 O137 0.980 . S
O141 Co133 2.073 . S
O141 C156 1.245 . S
O142 Co132 2.264 . S
O142 Co133 2.327 . S
O142 C156 1.257 . S
O143 Co133 1.976 . S
O143 C155 1.251 . S
O144 Co134 2.111 . S
O144 C155 1.274 . S
O145 Co134 2.143 . S
O145 C158 1.246 . S
O146 Co138 2.286 . S
O146 C157 1.259 . S
O147 Co138 2.069 . S
O147 C157 1.289 . S
O148 Co138 2.015 . S
O148 C158 1.257 . S
O149 Co134 2.111 . S
O149 C159 1.274 . S
O150 Co139 1.976 . S
O150 C159 1.251 . S
O151 Co138 2.264 . S
O151 Co139 2.327 . S
O151 C160 1.257 . S
O152 Co139 2.073 . S
O152 C160 1.245 . S
C153 O161 1.259 . S
C153 O162 1.289 . S
C154 O163 1.246 . S
C154 O164 1.257 . S
C155 O143 1.251 . S
C155 O144 1.274 . S
C156 O141 1.245 . S
C156 O142 1.257 . S
C157 O146 1.259 . S
C157 O147 1.289 . S
C158 O145 1.246 . S
C158 O148 1.257 . S
C159 O149 1.274 . S
C159 O150 1.251 . S
C160 O151 1.257 . S
C160 O152 1.245 . S
O161 Co132 2.286 . S
O161 C153 1.259 . S
O162 Co132 2.069 . S
O162 C153 1.289 . S
O163 Co134 2.143 . S
O163 C154 1.246 . S
O164 Co132 2.015 . S
O164 C154 1.257 . S
Co165 O168 2.042 . S
Co165 O175 2.264 . S
Co165 O194 2.286 . S
Co165 O195 2.069 . S
Co165 O197 2.015 . S
Co166 O168 2.122 . S
Co166 O174 2.073 . S
Co166 O175 2.327 . S
Co166 O176 1.976 . S
Co167 O168 2.087 . S
Co167 O170 2.087 . S
Co167 O177 2.111 . S
Co167 O178 2.143 . S
Co167 O182 2.111 . S
Co167 O196 2.143 . S
O168 Co165 2.042 . S
O168 Co166 2.122 . S
O168 Co167 2.087 . S
O168 H169 0.980 . S
H169 O168 0.980 . S
O170 Co167 2.087 . S
O170 Co171 2.042 . S
O170 Co172 2.122 . S
O170 H173 0.980 . S
Co171 O170 2.042 . S
Co171 O179 2.286 . S
Co171 O180 2.069 . S
Co171 O181 2.015 . S
Co171 O184 2.264 . S
Co172 O170 2.122 . S
Co172 O183 1.976 . S
Co172 O184 2.327 . S
Co172 O185 2.073 . S
H173 O170 0.980 . S
O174 Co166 2.073 . S
O174 C189 1.245 . S
O175 Co165 2.264 . S
O175 Co166 2.327 . S
O175 C189 1.257 . S
O176 Co166 1.976 . S
O176 C188 1.251 . S
O177 Co167 2.111 . S
O177 C188 1.274 . S
O178 Co167 2.143 . S
O178 C191 1.246 . S
O179 Co171 2.286 . S
O179 C190 1.259 . S
O180 Co171 2.069 . S
O180 C190 1.289 . S
O181 Co171 2.015 . S
O181 C191 1.257 . S
O182 Co167 2.111 . S
O182 C192 1.274 . S
O183 Co172 1.976 . S
O183 C192 1.251 . S
O184 Co171 2.264 . S
O184 Co172 2.327 . S
O184 C193 1.257 . S
O185 Co172 2.073 . S
O185 C193 1.245 . S
C186 O194 1.259 . S
C186 O195 1.289 . S
C187 O196 1.246 . S
C187 O197 1.257 . S
C188 O176 1.251 . S
C188 O177 1.274 . S
C189 O174 1.245 . S
C189 O175 1.257 . S
C190 O179 1.259 . S
C190 O180 1.289 . S
C191 O178 1.246 . S
C191 O181 1.257 . S
C192 O182 1.274 . S
C192 O183 1.251 . S
C193 O184 1.257 . S
C193 O185 1.245 . S
O194 Co165 2.286 . S
O194 C186 1.259 . S
O195 Co165 2.069 . S
O195 C186 1.289 . S
O196 Co167 2.143 . S
O196 C187 1.246 . S
O197 Co165 2.015 . S
O197 C187 1.257 . S
Co198 O201 2.044 . S
Co198 O208 2.264 . S
Co198 O227 2.286 . S
Co198 O228 2.069 1_545 S
Co198 O230 2.015 . S
Co199 O201 2.129 . S
Co199 O207 2.073 . S
Co199 O208 2.327 . S
Co199 O209 1.976 . S
Co200 O201 2.087 . S
Co200 O203 2.087 . S
Co200 O210 2.121 . S
Co200 O211 2.140 1_545 S
Co200 O215 2.102 1_545 S
Co200 O229 2.147 . S
O201 Co198 2.044 . S
O201 Co199 2.129 . S
O201 Co200 2.087 . S
O201 H202 0.972 1_545 S
H202 O201 0.972 1_565 S
O203 Co200 2.087 . S
O203 Co204 2.040 1_545 S
O203 Co205 2.114 1_545 S
O203 H206 0.989 . S
Co204 O203 2.040 1_565 S
Co204 O212 2.286 . S
Co204 O213 2.069 1_565 S
Co204 O214 2.015 . S
Co204 O217 2.264 . S
Co205 O203 2.114 1_565 S
Co205 O216 1.976 . S
Co205 O217 2.327 . S
Co205 O218 2.073 . S
H206 O203 0.989 . S
O207 Co199 2.073 . S
O207 C222 1.245 . S
O208 Co198 2.264 . S
O208 Co199 2.327 . S
O208 C222 1.257 . S
O209 Co199 1.976 . S
O209 C221 1.251 . S
O210 Co200 2.121 . S
O210 C221 1.274 . S
O211 Co200 2.140 1_565 S
O211 C224 1.246 . S
O212 Co204 2.286 . S
O212 C223 1.259 1_565 S
O213 Co204 2.069 1_545 S
O213 C223 1.289 . S
O214 Co204 2.015 . S
O214 C224 1.257 . S
O215 Co200 2.102 1_565 S
O215 C225 1.274 . S
O216 Co205 1.976 . S
O216 C225 1.251 . S
O217 Co204 2.264 . S
O217 Co205 2.327 . S
O217 C226 1.257 . S
O218 Co205 2.073 . S
O218 C226 1.245 . S
C219 O227 1.259 1_565 S
C219 O228 1.289 . S
C220 O229 1.246 . S
C220 O230 1.257 . S
C221 O209 1.251 . S
C221 O210 1.274 . S
C222 O207 1.245 . S
C222 O208 1.257 . S
C223 O212 1.259 1_545 S
C223 O213 1.289 . S
C224 O211 1.246 . S
C224 O214 1.257 . S
C225 O215 1.274 . S
C225 O216 1.251 . S
C226 O217 1.257 . S
C226 O218 1.245 . S
O227 Co198 2.286 . S
O227 C219 1.259 1_545 S
O228 Co198 2.069 1_565 S
O228 C219 1.289 . S
O229 Co200 2.147 . S
O229 C220 1.246 . S
O230 Co198 2.015 . S
O230 C220 1.257 . S
Co231 O234 2.042 . S
Co231 O241 2.264 . S
Co231 O260 2.286 . S
Co231 O261 2.069 . S
Co231 O263 2.015 . S
Co232 O234 2.122 . S
Co232 O240 2.073 . S
Co232 O241 2.327 . S
Co232 O242 1.976 . S
Co233 O234 2.087 1_554 S
Co233 O236 2.087 . S
Co233 O243 2.111 . S
Co233 O244 2.143 . S
Co233 O248 2.111 1_554 S
Co233 O262 2.143 . S
O234 Co231 2.042 . S
O234 Co232 2.122 . S
O234 Co233 2.087 1_556 S
O234 H235 0.980 . S
H235 O234 0.980 . S
O236 Co233 2.087 . S
O236 Co237 2.042 . S
O236 Co238 2.122 . S
O236 H239 0.980 . S
Co237 O236 2.042 . S
Co237 O245 2.286 . S
Co237 O246 2.069 . S
Co237 O247 2.015 . S
Co237 O250 2.264 . S
Co238 O236 2.122 . S
Co238 O249 1.976 . S
Co238 O250 2.327 . S
Co238 O251 2.073 . S
H239 O236 0.980 . S
O240 Co232 2.073 . S
O240 C255 1.245 . S
O241 Co231 2.264 . S
O241 Co232 2.327 . S
O241 C255 1.257 . S
O242 Co232 1.976 . S
O242 C254 1.251 1_556 S
O243 Co233 2.111 . S
O243 C254 1.274 . S
O244 Co233 2.143 . S
O244 C257 1.246 . S
O245 Co237 2.286 . S
O245 C256 1.259 . S
O246 Co237 2.069 . S
O246 C256 1.289 . S
O247 Co237 2.015 . S
O247 C257 1.257 . S
O248 Co233 2.111 1_556 S
O248 C258 1.274 1_556 S
O249 Co238 1.976 . S
O249 C258 1.251 . S
O250 Co237 2.264 . S
O250 Co238 2.327 . S
O250 C259 1.257 . S
O251 Co238 2.073 . S
O251 C259 1.245 . S
C252 O260 1.259 . S
C252 O261 1.289 . S
C253 O262 1.246 1_556 S
C253 O263 1.257 . S
C254 O242 1.251 1_554 S
C254 O243 1.274 . S
C255 O240 1.245 . S
C255 O241 1.257 . S
C256 O245 1.259 . S
C256 O246 1.289 . S
C257 O244 1.246 . S
C257 O247 1.257 . S
C258 O248 1.274 1_554 S
C258 O249 1.251 . S
C259 O250 1.257 . S
C259 O251 1.245 . S
O260 Co231 2.286 . S
O260 C252 1.259 . S
O261 Co231 2.069 . S
O261 C252 1.289 . S
O262 Co233 2.143 . S
O262 C253 1.246 1_554 S
O263 Co231 2.015 . S
O263 C253 1.257 . S
C264 C265 1.349 1_545 S
C264 C266 1.327 . S
C264 H289 0.950 . S
C265 C264 1.349 1_565 S
C265 C281 1.349 . S
C266 C264 1.327 . S
C266 C285 1.429 . S
C266 H290 0.950 . S
C267 C284 1.574 . S
C267 C286 1.368 . S
C267 H291 0.949 1_545 S
H268 C272 0.949 . S
C269 C270 1.349 . S
C269 C271 1.327 . S
C269 H292 0.950 . S
C270 C269 1.349 . S
C270 C282 1.349 . S
C271 C269 1.327 . S
C271 C287 1.429 . S
C271 H293 0.950 . S
C272 H268 0.949 . S
C272 C280 1.574 . S
C272 C288 1.368 . S
H273 C281 0.950 . S
H274 C279 0.950 . S
H275 C280 0.949 . S
H276 C282 0.950 . S
H277 C283 0.950 . S
H278 C284 0.949 . S
C279 H274 0.950 . S
C279 C281 1.327 . S
C279 C285 1.429 1_565 S
C280 C272 1.574 . S
C280 H275 0.949 . S
C280 C286 1.368 . S
C281 C265 1.349 . S
C281 H273 0.950 . S
C281 C279 1.327 . S
C282 C270 1.349 . S
C282 H276 0.950 . S
C282 C283 1.327 . S
C283 H277 0.950 . S
C283 C282 1.327 . S
C283 C287 1.429 . S
C284 C267 1.574 . S
C284 H278 0.949 . S
C284 C288 1.368 . S
C285 C266 1.429 . S
C285 C279 1.429 1_545 S
C285 C286 1.523 . S
C286 C267 1.368 . S
C286 C280 1.368 . S
C286 C285 1.523 . S
C287 C271 1.429 . S
C287 C283 1.429 . S
C287 C288 1.523 . S
C288 C272 1.368 . S
C288 C284 1.368 . S
C288 C287 1.523 . S
H289 C264 0.950 . S
H290 C266 0.950 . S
H291 C267 0.949 1_565 S
H292 C269 0.950 . S
H293 C271 0.950 . S
C294 C295 1.349 . S
C294 C296 1.327 . S
C294 H319 0.950 . S
C295 C294 1.349 . S
C295 C311 1.349 1_545 S
C296 C294 1.327 . S
C296 C315 1.429 1_545 S
C296 H320 0.950 . S
C297 C314 1.574 . S
C297 C316 1.368 . S
C297 H321 0.949 . S
H298 C302 0.949 . S
C299 C300 1.349 . S
C299 C301 1.327 . S
C299 H322 0.950 . S
C300 C299 1.349 . S
C300 C312 1.349 . S
C301 C299 1.327 . S
C301 C317 1.429 . S
C301 H323 0.950 . S
C302 H298 0.949 . S
C302 C310 1.574 . S
C302 C318 1.368 . S
H303 C311 0.950 . S
H304 C309 0.950 . S
H305 C310 0.949 1_545 S
H306 C312 0.950 . S
H307 C313 0.950 . S
H308 C314 0.949 . S
C309 H304 0.950 . S
C309 C311 1.327 . S
C309 C315 1.429 . S
C310 C302 1.574 . S
C310 H305 0.949 1_565 S
C310 C316 1.368 . S
C311 C295 1.349 1_565 S
C311 H303 0.950 . S
C311 C309 1.327 . S
C312 C300 1.349 . S
C312 H306 0.950 . S
C312 C313 1.327 . S
C313 H307 0.950 . S
C313 C312 1.327 . S
C313 C317 1.429 . S
C314 C297 1.574 . S
C314 H308 0.949 . S
C314 C318 1.368 . S
C315 C296 1.429 1_565 S
C315 C309 1.429 . S
C315 C316 1.523 . S
C316 C297 1.368 . S
C316 C310 1.368 . S
C316 C315 1.523 . S
C317 C301 1.429 . S
C317 C313 1.429 . S
C317 C318 1.523 . S
C318 C302 1.368 . S
C318 C314 1.368 . S
C318 C317 1.523 . S
H319 C294 0.950 . S
H320 C296 0.950 . S
H321 C297 0.949 . S
H322 C299 0.950 . S
H323 C301 0.950 . S
C324 C325 1.349 . S
C324 C326 1.327 . S
C324 H349 0.950 . S
C325 C324 1.349 . S
C325 C341 1.349 . S
C326 C324 1.327 . S
C326 C345 1.429 . S
C326 H350 0.950 . S
C327 C344 1.574 . S
C327 C346 1.368 . S
C327 H351 0.949 . S
H328 C332 0.949 . S
C329 C330 1.349 . S
C329 C331 1.327 . S
C329 H352 0.950 . S
C330 C329 1.349 . S
C330 C342 1.349 . S
C331 C329 1.327 . S
C331 C347 1.429 . S
C331 H353 0.950 . S
C332 H328 0.949 . S
C332 C340 1.574 . S
C332 C348 1.368 . S
H333 C341 0.950 . S
H334 C339 0.950 . S
H335 C340 0.949 . S
H336 C342 0.950 . S
H337 C343 0.950 . S
H338 C344 0.949 . S
C339 H334 0.950 . S
C339 C341 1.327 . S
C339 C345 1.429 . S
C340 C332 1.574 . S
C340 H335 0.949 . S
C340 C346 1.368 . S
C341 C325 1.349 . S
C341 H333 0.950 . S
C341 C339 1.327 . S
C342 C330 1.349 . S
C342 H336 0.950 . S
C342 C343 1.327 . S
C343 H337 0.950 . S
C343 C342 1.327 . S
C343 C347 1.429 . S
C344 C327 1.574 . S
C344 H338 0.949 . S
C344 C348 1.368 . S
C345 C326 1.429 . S
C345 C339 1.429 . S
C345 C346 1.523 . S
C346 C327 1.368 . S
C346 C340 1.368 . S
C346 C345 1.523 . S
C347 C331 1.429 . S
C347 C343 1.429 . S
C347 C348 1.523 . S
C348 C332 1.368 . S
C348 C344 1.368 . S
C348 C347 1.523 . S
H349 C324 0.950 . S
H350 C326 0.950 . S
H351 C327 0.949 . S
H352 C329 0.950 . S
H353 C331 0.950 . S
C354 C355 1.349 . S
C354 C356 1.327 . S
C354 H379 0.950 . S
C355 C354 1.349 . S
C355 C371 1.349 . S
C356 C354 1.327 . S
C356 C375 1.429 . S
C356 H380 0.950 . S
C357 C374 1.574 . S
C357 C376 1.368 . S
C357 H381 0.949 . S
H358 C362 0.949 . S
C359 C360 1.349 . S
C359 C361 1.327 . S
C359 H382 0.950 . S
C360 C359 1.349 . S
C360 C372 1.349 . S
C361 C359 1.327 . S
C361 C377 1.429 . S
C361 H383 0.950 . S
C362 H358 0.949 . S
C362 C370 1.574 . S
C362 C378 1.368 . S
H363 C371 0.950 . S
H364 C369 0.950 . S
H365 C370 0.949 . S
H366 C372 0.950 . S
H367 C373 0.950 . S
H368 C374 0.949 . S
C369 H364 0.950 . S
C369 C371 1.327 . S
C369 C375 1.429 . S
C370 C362 1.574 . S
C370 H365 0.949 . S
C370 C376 1.368 . S
C371 C355 1.349 . S
C371 H363 0.950 . S
C371 C369 1.327 . S
C372 C360 1.349 . S
C372 H366 0.950 . S
C372 C373 1.327 . S
C373 H367 0.950 . S
C373 C372 1.327 . S
C373 C377 1.429 . S
C374 C357 1.574 . S
C374 H368 0.949 . S
C374 C378 1.368 . S
C375 C356 1.429 . S
C375 C369 1.429 . S
C375 C376 1.523 . S
C376 C357 1.368 . S
C376 C370 1.368 . S
C376 C375 1.523 . S
C377 C361 1.429 . S
C377 C373 1.429 . S
C377 C378 1.523 . S
C378 C362 1.368 . S
C378 C374 1.368 . S
C378 C377 1.523 . S
H379 C354 0.950 . S
H380 C356 0.950 . S
H381 C357 0.949 . S
H382 C359 0.950 . S
H383 C361 0.950 . S
C384 C385 1.349 . S
C384 C386 1.327 . S
C384 H409 0.950 . S
C385 C384 1.349 . S
C385 C401 1.349 . S
C386 C384 1.327 . S
C386 C405 1.429 . S
C386 H410 0.950 . S
C387 C404 1.574 . S
C387 C406 1.368 . S
C387 H411 0.949 . S
H388 C392 0.949 . S
C389 C390 1.349 . S
C389 C391 1.327 . S
C389 H412 0.950 . S
C390 C389 1.349 . S
C390 C402 1.349 . S
C391 C389 1.327 . S
C391 C407 1.429 . S
C391 H413 0.950 . S
C392 H388 0.949 . S
C392 C400 1.574 . S
C392 C408 1.368 . S
H393 C401 0.950 . S
H394 C399 0.950 . S
H395 C400 0.949 . S
H396 C402 0.950 . S
H397 C403 0.950 . S
H398 C404 0.949 . S
C399 H394 0.950 . S
C399 C401 1.327 . S
C399 C405 1.429 . S
C400 C392 1.574 . S
C400 H395 0.949 . S
C400 C406 1.368 . S
C401 C385 1.349 . S
C401 H393 0.950 . S
C401 C399 1.327 . S
C402 C390 1.349 . S
C402 H396 0.950 . S
C402 C403 1.327 . S
C403 H397 0.950 . S
C403 C402 1.327 . S
C403 C407 1.429 . S
C404 C387 1.574 . S
C404 H398 0.949 . S
C404 C408 1.368 . S
C405 C386 1.429 . S
C405 C399 1.429 . S
C405 C406 1.523 . S
C406 C387 1.368 . S
C406 C400 1.368 . S
C406 C405 1.523 . S
C407 C391 1.429 . S
C407 C403 1.429 . S
C407 C408 1.523 . S
C408 C392 1.368 . S
C408 C404 1.368 . S
C408 C407 1.523 . S
H409 C384 0.950 . S
H410 C386 0.950 . S
H411 C387 0.949 . S
H412 C389 0.950 . S
H413 C391 0.950 . S
C414 C415 1.349 . S
C414 C416 1.327 . S
C414 H439 0.950 . S
C415 C414 1.349 . S
C415 C431 1.349 . S
C416 C414 1.327 . S
C416 C435 1.429 . S
C416 H440 0.950 . S
C417 C434 1.574 . S
C417 C436 1.368 . S
C417 H441 0.949 . S
H418 C422 0.949 . S
C419 C420 1.349 . S
C419 C421 1.327 . S
C419 H442 0.950 . S
C420 C419 1.349 . S
C420 C432 1.349 . S
C421 C419 1.327 . S
C421 C437 1.429 . S
C421 H443 0.950 . S
C422 H418 0.949 . S
C422 C430 1.574 . S
C422 C438 1.368 . S
H423 C431 0.950 . S
H424 C429 0.950 . S
H425 C430 0.949 . S
H426 C432 0.950 . S
H427 C433 0.950 . S
H428 C434 0.949 . S
C429 H424 0.950 . S
C429 C431 1.327 . S
C429 C435 1.429 . S
C430 C422 1.574 . S
C430 H425 0.949 . S
C430 C436 1.368 . S
C431 C415 1.349 . S
C431 H423 0.950 . S
C431 C429 1.327 . S
C432 C420 1.349 . S
C432 H426 0.950 . S
C432 C433 1.327 . S
C433 H427 0.950 . S
C433 C432 1.327 . S
C433 C437 1.429 . S
C434 C417 1.574 . S
C434 H428 0.949 . S
C434 C438 1.368 . S
C435 C416 1.429 . S
C435 C429 1.429 . S
C435 C436 1.523 . S
C436 C417 1.368 . S
C436 C430 1.368 . S
C436 C435 1.523 . S
C437 C421 1.429 . S
C437 C433 1.429 . S
C437 C438 1.523 . S
C438 C422 1.368 . S
C438 C434 1.368 . S
C438 C437 1.523 . S
H439 C414 0.950 . S
H440 C416 0.950 . S
H441 C417 0.949 . S
H442 C419 0.950 . S
H443 C421 0.950 . S
C444 C445 1.349 . S
C444 C446 1.327 . S
C444 H469 0.950 . S
C445 C444 1.349 . S
C445 C461 1.349 . S
C446 C444 1.327 . S
C446 C465 1.429 . S
C446 H470 0.950 . S
C447 C464 1.574 . S
C447 C466 1.368 . S
C447 H471 0.949 . S
H448 C452 0.949 . S
C449 C450 1.349 . S
C449 C451 1.327 . S
C449 H472 0.950 . S
C450 C449 1.349 . S
C450 C462 1.349 . S
C451 C449 1.327 . S
C451 C467 1.429 . S
C451 H473 0.950 . S
C452 H448 0.949 . S
C452 C460 1.574 . S
C452 C468 1.368 . S
H453 C461 0.950 . S
H454 C459 0.950 . S
H455 C460 0.949 . S
H456 C462 0.950 . S
H457 C463 0.950 . S
H458 C464 0.949 . S
C459 H454 0.950 . S
C459 C461 1.327 . S
C459 C465 1.429 . S
C460 C452 1.574 . S
C460 H455 0.949 . S
C460 C466 1.368 . S
C461 C445 1.349 . S
C461 H453 0.950 . S
C461 C459 1.327 . S
C462 C450 1.349 . S
C462 H456 0.950 . S
C462 C463 1.327 . S
C463 H457 0.950 . S
C463 C462 1.327 . S
C463 C467 1.429 . S
C464 C447 1.574 . S
C464 H458 0.949 . S
C464 C468 1.368 . S
C465 C446 1.429 . S
C465 C459 1.429 . S
C465 C466 1.523 . S
C466 C447 1.368 . S
C466 C460 1.368 . S
C466 C465 1.523 . S
C467 C451 1.429 . S
C467 C463 1.429 . S
C467 C468 1.523 . S
C468 C452 1.368 . S
C468 C464 1.368 . S
C468 C467 1.523 . S
H469 C444 0.950 . S
H470 C446 0.950 . S
H471 C447 0.949 . S
H472 C449 0.950 . S
H473 C451 0.950 . S
C474 C475 1.349 . S
C474 C476 1.327 . S
C474 H499 0.950 . S
C475 C474 1.349 . S
C475 C491 1.349 . S
C476 C474 1.327 . S
C476 C495 1.429 . S
C476 H500 0.950 . S
C477 C494 1.574 . S
C477 C496 1.368 . S
C477 H501 0.949 . S
H478 C482 0.949 . S
C479 C480 1.349 . S
C479 C481 1.327 . S
C479 H502 0.950 1_545 S
C480 C479 1.349 . S
C480 C492 1.349 . S
C481 C479 1.327 . S
C481 C497 1.429 . S
C481 H503 0.950 . S
C482 H478 0.949 . S
C482 C490 1.574 . S
C482 C498 1.368 . S
H483 C491 0.950 . S
H484 C489 0.950 . S
H485 C490 0.949 . S
H486 C492 0.950 . S
H487 C493 0.950 . S
H488 C494 0.949 . S
C489 H484 0.950 . S
C489 C491 1.327 . S
C489 C495 1.429 . S
C490 C482 1.574 . S
C490 H485 0.949 . S
C490 C496 1.368 . S
C491 C475 1.349 . S
C491 H483 0.950 . S
C491 C489 1.327 . S
C492 C480 1.349 . S
C492 H486 0.950 . S
C492 C493 1.327 . S
C493 H487 0.950 . S
C493 C492 1.327 . S
C493 C497 1.429 . S
C494 C477 1.574 . S
C494 H488 0.949 . S
C494 C498 1.368 . S
C495 C476 1.429 . S
C495 C489 1.429 . S
C495 C496 1.523 . S
C496 C477 1.368 . S
C496 C490 1.368 . S
C496 C495 1.523 . S
C497 C481 1.429 . S
C497 C493 1.429 . S
C497 C498 1.523 . S
C498 C482 1.368 . S
C498 C494 1.368 . S
C498 C497 1.523 . S
H499 C474 0.950 . S
H500 C476 0.950 . S
H501 C477 0.949 . S
H502 C479 0.950 1_565 S
H503 C481 0.950 . S
C504 C505 1.349 . S
C504 C506 1.327 . S
C504 H529 0.950 . S
C505 C504 1.349 . S
C505 C521 1.349 . S
C506 C504 1.327 . S
C506 C525 1.429 . S
C506 H530 0.950 . S
C507 C524 1.574 . S
C507 C526 1.368 . S
C507 H531 0.949 . S
H508 C512 0.949 . S
C509 C510 1.349 . S
C509 C511 1.327 . S
C509 H532 0.950 . S
C510 C509 1.349 . S
C510 C522 1.349 1_565 S
C511 C509 1.327 . S
C511 C527 1.429 1_565 S
C511 H533 0.950 . S
C512 H508 0.949 . S
C512 C520 1.574 . S
C512 C528 1.368 . S
H513 C521 0.950 . S
H514 C519 0.950 . S
H515 C520 0.949 . S
H516 C522 0.950 . S
H517 C523 0.950 . S
H518 C524 0.949 1_565 S
C519 H514 0.950 . S
C519 C521 1.327 . S
C519 C525 1.429 . S
C520 C512 1.574 . S
C520 H515 0.949 . S
C520 C526 1.368 . S
C521 C505 1.349 . S
C521 H513 0.950 . S
C521 C519 1.327 . S
C522 C510 1.349 1_545 S
C522 H516 0.950 . S
C522 C523 1.327 . S
C523 H517 0.950 . S
C523 C522 1.327 . S
C523 C527 1.429 . S
C524 C507 1.574 . S
C524 H518 0.949 1_545 S
C524 C528 1.368 . S
C525 C506 1.429 . S
C525 C519 1.429 . S
C525 C526 1.523 . S
C526 C507 1.368 . S
C526 C520 1.368 . S
C526 C525 1.523 . S
C527 C511 1.429 1_545 S
C527 C523 1.429 . S
C527 C528 1.523 . S
C528 C512 1.368 . S
C528 C524 1.368 . S
C528 C527 1.523 . S
H529 C504 0.950 . S
H530 C506 0.950 . S
H531 C507 0.949 . S
H532 C509 0.950 . S
H533 C511 0.950 . S
C534 C535 1.349 1_565 S
C534 C536 1.327 . S
C534 H559 0.949 1_565 S
C535 C534 1.349 1_545 S
C535 C551 1.349 . S
C536 C534 1.327 . S
C536 C555 1.429 . S
C536 H560 0.950 . S
C537 C554 1.574 . S
C537 C556 1.368 . S
C537 H561 0.949 . S
H538 C542 0.949 . S
C539 C540 1.349 . S
C539 C541 1.327 . S
C539 H562 0.950 . S
C540 C539 1.349 . S
C540 C552 1.349 . S
C541 C539 1.327 . S
C541 C557 1.429 . S
C541 H563 0.950 . S
C542 H538 0.949 . S
C542 C550 1.574 . S
C542 C558 1.368 . S
H543 C551 0.950 . S
H544 C549 0.950 . S
H545 C550 0.949 . S
H546 C552 0.950 . S
H547 C553 0.950 . S
H548 C554 0.949 . S
C549 H544 0.950 . S
C549 C551 1.327 1_565 S
C549 C555 1.429 . S
C550 C542 1.574 . S
C550 H545 0.949 . S
C550 C556 1.368 . S
C551 C535 1.349 . S
C551 H543 0.950 . S
C551 C549 1.327 1_545 S
C552 C540 1.349 . S
C552 H546 0.950 . S
C552 C553 1.327 . S
C553 H547 0.950 . S
C553 C552 1.327 . S
C553 C557 1.429 . S
C554 C537 1.574 . S
C554 H548 0.949 . S
C554 C558 1.368 . S
C555 C536 1.429 . S
C555 C549 1.429 . S
C555 C556 1.523 . S
C556 C537 1.368 . S
C556 C550 1.368 . S
C556 C555 1.523 . S
C557 C541 1.429 . S
C557 C553 1.429 . S
C557 C558 1.523 . S
C558 C542 1.368 . S
C558 C554 1.368 . S
C558 C557 1.523 . S
H559 C534 0.949 1_545 S
H560 C536 0.950 . S
H561 C537 0.949 . S
H562 C539 0.950 . S
H563 C541 0.950 . S
C564 C565 1.349 . S
C564 C566 1.327 . S
C564 H589 0.950 . S
C565 C564 1.349 . S
C565 C581 1.349 . S
C566 C564 1.327 . S
C566 C585 1.429 . S
C566 H590 0.950 . S
C567 C584 1.574 . S
C567 C586 1.368 . S
C567 H591 0.949 . S
H568 C572 0.949 . S
C569 C570 1.349 . S
C569 C571 1.327 . S
C569 H592 0.950 . S
C570 C569 1.349 . S
C570 C582 1.349 . S
C571 C569 1.327 . S
C571 C587 1.429 . S
C571 H593 0.950 . S
C572 H568 0.949 . S
C572 C580 1.574 . S
C572 C588 1.368 . S
H573 C581 0.950 . S
H574 C579 0.950 . S
H575 C580 0.949 . S
H576 C582 0.950 . S
H577 C583 0.950 . S
H578 C584 0.949 . S
C579 H574 0.950 . S
C579 C581 1.327 . S
C579 C585 1.429 . S
C580 C572 1.574 . S
C580 H575 0.949 . S
C580 C586 1.368 . S
C581 C565 1.349 . S
C581 H573 0.950 . S
C581 C579 1.327 . S
C582 C570 1.349 . S
C582 H576 0.950 . S
C582 C583 1.327 . S
C583 H577 0.950 . S
C583 C582 1.327 . S
C583 C587 1.429 . S
C584 C567 1.574 . S
C584 H578 0.949 . S
C584 C588 1.368 . S
C585 C566 1.429 . S
C585 C579 1.429 . S
C585 C586 1.523 . S
C586 C567 1.368 . S
C586 C580 1.368 . S
C586 C585 1.523 . S
C587 C571 1.429 . S
C587 C583 1.429 . S
C587 C588 1.523 . S
C588 C572 1.368 . S
C588 C584 1.368 . S
C588 C587 1.523 . S
H589 C564 0.950 . S
H590 C566 0.950 . S
H591 C567 0.949 . S
H592 C569 0.950 . S
H593 C571 0.950 . S
C594 C595 1.349 . S
C594 C596 1.327 . S
C594 H619 0.950 . S
C595 C594 1.349 . S
C595 C611 1.349 . S
C596 C594 1.327 . S
C596 C615 1.429 . S
C596 H620 0.950 . S
C597 C614 1.574 . S
C597 C616 1.368 . S
C597 H621 0.949 . S
H598 C602 0.949 . S
C599 C600 1.349 . S
C599 C601 1.327 . S
C599 H622 0.950 . S
C600 C599 1.349 . S
C600 C612 1.349 . S
C601 C599 1.327 . S
C601 C617 1.429 . S
C601 H623 0.950 . S
C602 H598 0.949 . S
C602 C610 1.574 . S
C602 C618 1.368 . S
H603 C611 0.950 . S
H604 C609 0.950 . S
H605 C610 0.949 . S
H606 C612 0.950 . S
H607 C613 0.950 . S
H608 C614 0.949 . S
C609 H604 0.950 . S
C609 C611 1.327 . S
C609 C615 1.429 . S
C610 C602 1.574 . S
C610 H605 0.949 . S
C610 C616 1.368 . S
C611 C595 1.349 . S
C611 H603 0.950 . S
C611 C609 1.327 . S
C612 C600 1.349 . S
C612 H606 0.950 . S
C612 C613 1.327 . S
C613 H607 0.950 . S
C613 C612 1.327 . S
C613 C617 1.429 . S
C614 C597 1.574 . S
C614 H608 0.949 . S
C614 C618 1.368 . S
C615 C596 1.429 . S
C615 C609 1.429 . S
C615 C616 1.523 . S
C616 C597 1.368 . S
C616 C610 1.368 . S
C616 C615 1.523 . S
C617 C601 1.429 . S
C617 C613 1.429 . S
C617 C618 1.523 . S
C618 C602 1.368 . S
C618 C614 1.368 . S
C618 C617 1.523 . S
H619 C594 0.950 . S
H620 C596 0.950 . S
H621 C597 0.949 . S
H622 C599 0.950 . S
H623 C601 0.950 . S
C624 C625 1.349 . S
C624 C626 1.327 . S
C624 H649 0.950 . S
C625 C624 1.349 . S
C625 C641 1.349 . S
C626 C624 1.327 . S
C626 C645 1.429 . S
C626 H650 0.950 . S
C627 C644 1.574 . S
C627 C646 1.368 . S
C627 H651 0.949 . S
H628 C632 0.949 . S
C629 C630 1.349 . S
C629 C631 1.327 . S
C629 H652 0.950 . S
C630 C629 1.349 . S
C630 C642 1.349 . S
C631 C629 1.327 . S
C631 C647 1.429 . S
C631 H653 0.950 . S
C632 H628 0.949 . S
C632 C640 1.574 . S
C632 C648 1.368 . S
H633 C641 0.950 . S
H634 C639 0.950 . S
H635 C640 0.949 . S
H636 C642 0.950 . S
H637 C643 0.950 . S
H638 C644 0.949 . S
C639 H634 0.950 . S
C639 C641 1.327 . S
C639 C645 1.429 . S
C640 C632 1.574 . S
C640 H635 0.949 . S
C640 C646 1.368 . S
C641 C625 1.349 . S
C641 H633 0.950 . S
C641 C639 1.327 . S
C642 C630 1.349 . S
C642 H636 0.950 . S
C642 C643 1.327 . S
C643 H637 0.950 . S
C643 C642 1.327 . S
C643 C647 1.429 . S
C644 C627 1.574 . S
C644 H638 0.949 . S
C644 C648 1.368 . S
C645 C626 1.429 . S
C645 C639 1.429 . S
C645 C646 1.523 . S
C646 C627 1.368 . S
C646 C640 1.368 . S
C646 C645 1.523 . S
C647 C631 1.429 . S
C647 C643 1.429 . S
C647 C648 1.523 . S
C648 C632 1.368 . S
C648 C644 1.368 . S
C648 C647 1.523 . S
H649 C624 0.950 . S
H650 C626 0.950 . S
H651 C627 0.949 . S
H652 C629 0.950 . S
H653 C631 0.950 . S
C654 C655 1.349 . S
C654 C656 1.327 . S
C654 H679 0.950 . S
C655 C654 1.349 . S
C655 C671 1.349 . S
C656 C654 1.327 . S
C656 C675 1.429 . S
C656 H680 0.950 . S
C657 C674 1.574 . S
C657 C676 1.368 . S
C657 H681 0.949 . S
H658 C662 0.949 . S
C659 C660 1.349 . S
C659 C661 1.327 . S
C659 H682 0.950 . S
C660 C659 1.349 . S
C660 C672 1.349 . S
C661 C659 1.327 . S
C661 C677 1.429 . S
C661 H683 0.950 . S
C662 H658 0.949 . S
C662 C670 1.574 . S
C662 C678 1.368 . S
H663 C671 0.950 . S
H664 C669 0.950 . S
H665 C670 0.949 . S
H666 C672 0.950 . S
H667 C673 0.950 . S
H668 C674 0.949 . S
C669 H664 0.950 . S
C669 C671 1.327 . S
C669 C675 1.429 . S
C670 C662 1.574 . S
C670 H665 0.949 . S
C670 C676 1.368 . S
C671 C655 1.349 . S
C671 H663 0.950 . S
C671 C669 1.327 . S
C672 C660 1.349 . S
C672 H666 0.950 . S
C672 C673 1.327 . S
C673 H667 0.950 . S
C673 C672 1.327 . S
C673 C677 1.429 . S
C674 C657 1.574 . S
C674 H668 0.949 . S
C674 C678 1.368 . S
C675 C656 1.429 . S
C675 C669 1.429 . S
C675 C676 1.523 . S
C676 C657 1.368 . S
C676 C670 1.368 . S
C676 C675 1.523 . S
C677 C661 1.429 . S
C677 C673 1.429 . S
C677 C678 1.523 . S
C678 C662 1.368 . S
C678 C674 1.368 . S
C678 C677 1.523 . S
H679 C654 0.950 . S
H680 C656 0.950 . S
H681 C657 0.949 . S
H682 C659 0.950 . S
H683 C661 0.950 . S
C684 C685 1.349 . S
C684 C686 1.327 . S
C684 H709 0.950 1_565 S
C685 C684 1.349 . S
C685 C701 1.349 . S
C686 C684 1.327 . S
C686 C705 1.429 . S
C686 H710 0.950 . S
C687 C704 1.574 . S
C687 C706 1.368 . S
C687 H711 0.949 . S
H688 C692 0.949 . S
C689 C690 1.349 . S
C689 C691 1.327 . S
C689 H712 0.950 . S
C690 C689 1.349 . S
C690 C702 1.349 . S
C691 C689 1.327 . S
C691 C707 1.429 . S
C691 H713 0.950 . S
C692 H688 0.949 . S
C692 C700 1.574 . S
C692 C708 1.368 . S
H693 C701 0.950 . S
H694 C699 0.950 . S
H695 C700 0.949 . S
H696 C702 0.950 . S
H697 C703 0.950 . S
H698 C704 0.949 . S
C699 H694 0.950 . S
C699 C701 1.327 . S
C699 C705 1.429 . S
C700 C692 1.574 . S
C700 H695 0.949 . S
C700 C706 1.368 . S
C701 C685 1.349 . S
C701 H693 0.950 . S
C701 C699 1.327 . S
C702 C690 1.349 . S
C702 H696 0.950 . S
C702 C703 1.327 . S
C703 H697 0.950 . S
C703 C702 1.327 . S
C703 C707 1.429 . S
C704 C687 1.574 . S
C704 H698 0.949 . S
C704 C708 1.368 . S
C705 C686 1.429 . S
C705 C699 1.429 . S
C705 C706 1.523 . S
C706 C687 1.368 . S
C706 C700 1.368 . S
C706 C705 1.523 . S
C707 C691 1.429 . S
C707 C703 1.429 . S
C707 C708 1.523 . S
C708 C692 1.368 . S
C708 C704 1.368 . S
C708 C707 1.523 . S
H709 C684 0.950 1_545 S
H710 C686 0.950 . S
H711 C687 0.949 . S
H712 C689 0.950 . S
H713 C691 0.950 . S
C714 C715 1.349 . S
C714 C716 1.327 . S
C714 H739 0.950 1_545 S
C715 C714 1.349 . S
C715 C731 1.349 . S
C716 C714 1.327 . S
C716 C735 1.429 . S
C716 H740 0.950 . S
C717 C734 1.574 . S
C717 C736 1.368 . S
C717 H741 0.949 . S
H718 C722 0.949 . S
C719 C720 1.349 . S
C719 C721 1.327 . S
C719 H742 0.950 . S
C720 C719 1.349 . S
C720 C732 1.349 . S
C721 C719 1.327 . S
C721 C737 1.429 . S
C721 H743 0.950 . S
C722 H718 0.949 . S
C722 C730 1.574 . S
C722 C738 1.368 . S
H723 C731 0.950 . S
H724 C729 0.950 . S
H725 C730 0.949 . S
H726 C732 0.950 . S
H727 C733 0.950 . S
H728 C734 0.949 . S
C729 H724 0.950 . S
C729 C731 1.327 . S
C729 C735 1.429 . S
C730 C722 1.574 . S
C730 H725 0.949 . S
C730 C736 1.368 . S
C731 C715 1.349 . S
C731 H723 0.950 . S
C731 C729 1.327 . S
C732 C720 1.349 . S
C732 H726 0.950 . S
C732 C733 1.327 . S
C733 H727 0.950 . S
C733 C732 1.327 . S
C733 C737 1.429 . S
C734 C717 1.574 . S
C734 H728 0.949 . S
C734 C738 1.368 . S
C735 C716 1.429 . S
C735 C729 1.429 . S
C735 C736 1.523 . S
C736 C717 1.368 . S
C736 C730 1.368 . S
C736 C735 1.523 . S
C737 C721 1.429 . S
C737 C733 1.429 . S
C737 C738 1.523 . S
C738 C722 1.368 . S
C738 C734 1.368 . S
C738 C737 1.523 . S
H739 C714 0.950 1_565 S
H740 C716 0.950 . S
H741 C717 0.949 . S
H742 C719 0.950 . S
H743 C721 0.950 . S
C744 C745 1.349 1_556 S
C744 C746 1.327 . S
C744 H769 0.950 . S
C745 C744 1.349 1_554 S
C745 C761 1.349 1_455 S
C746 C744 1.327 . S
C746 C765 1.429 1_556 S
C746 H770 0.950 . S
C747 C764 1.574 . S
C747 C766 1.368 1_655 S
C747 H771 0.949 . S
H748 C752 0.949 . S
C749 C750 1.343 1_655 S
C749 C751 1.327 . S
C749 H772 0.950 . S
C750 C749 1.343 1_455 S
C750 C762 1.355 1_554 S
C751 C749 1.327 . S
C751 C767 1.429 1_655 S
C751 H773 0.950 . S
C752 H748 0.949 . S
C752 C760 1.574 . S
C752 C768 1.368 1_556 S
H753 C761 0.950 . S
H754 C759 0.950 . S
H755 C760 0.949 . S
H756 C762 0.950 . S
H757 C763 0.950 . S
H758 C764 0.949 . S
C759 H754 0.950 . S
C759 C761 1.327 . S
C759 C765 1.429 1_655 S
C760 C752 1.574 . S
C760 H755 0.949 . S
C760 C766 1.368 1_556 S
C761 C745 1.349 1_655 S
C761 H753 0.950 . S
C761 C759 1.327 . S
C762 C750 1.355 1_556 S
C762 H756 0.950 . S
C762 C763 1.327 . S
C763 H757 0.950 . S
C763 C762 1.327 . S
C763 C767 1.429 1_556 S
C764 C747 1.574 . S
C764 H758 0.949 . S
C764 C768 1.368 1_655 S
C765 C746 1.429 1_554 S
C765 C759 1.429 1_455 S
C765 C766 1.523 . S
C766 C747 1.368 1_455 S
C766 C760 1.368 1_554 S
C766 C765 1.523 . S
C767 C751 1.429 1_455 S
C767 C763 1.429 1_554 S
C767 C768 1.523 . S
C768 C752 1.368 1_554 S
C768 C764 1.368 1_455 S
C768 C767 1.523 . S
H769 C744 0.950 . S
H770 C746 0.950 . S
H771 C747 0.949 . S
H772 C749 0.950 . S
H773 C751 0.950 . S
C774 C775 1.349 . S
C774 C776 1.327 . S
C774 H799 0.950 . S
C775 C774 1.349 . S
C775 C791 1.349 . S
C776 C774 1.327 . S
C776 C795 1.429 . S
C776 H800 0.950 . S
C777 C794 1.574 . S
C777 C796 1.368 . S
C777 H801 0.949 . S
H778 C782 0.949 . S
C779 C780 1.349 1_565 S
C779 C781 1.327 . S
C779 H802 0.950 1_565 S
C780 C779 1.349 1_545 S
C780 C792 1.349 . S
C781 C779 1.327 . S
C781 C797 1.429 . S
C781 H803 0.950 . S
C782 H778 0.949 . S
C782 C790 1.574 . S
C782 C798 1.368 . S
H783 C791 0.950 . S
H784 C789 0.950 . S
H785 C790 0.949 . S
H786 C792 0.950 . S
H787 C793 0.950 . S
H788 C794 0.949 . S
C789 H784 0.950 . S
C789 C791 1.327 . S
C789 C795 1.429 . S
C790 C782 1.574 . S
C790 H785 0.949 . S
C790 C796 1.368 . S
C791 C775 1.349 . S
C791 H783 0.950 . S
C791 C789 1.327 . S
C792 C780 1.349 . S
C792 H786 0.950 . S
C792 C793 1.327 1_545 S
C793 H787 0.950 . S
C793 C792 1.327 1_565 S
C793 C797 1.429 . S
C794 C777 1.574 . S
C794 H788 0.949 . S
C794 C798 1.368 . S
C795 C776 1.429 . S
C795 C789 1.429 . S
C795 C796 1.523 . S
C796 C777 1.368 . S
C796 C790 1.368 . S
C796 C795 1.523 . S
C797 C781 1.429 . S
C797 C793 1.429 . S
C797 C798 1.523 . S
C798 C782 1.368 . S
C798 C794 1.368 . S
C798 C797 1.523 . S
H799 C774 0.950 . S
H800 C776 0.950 . S
H801 C777 0.949 . S
H802 C779 0.950 1_545 S
H803 C781 0.950 . S
C804 C805 1.349 . S
C804 C806 1.327 1_565 S
C804 H829 0.950 . S
C805 C804 1.349 . S
C805 C821 1.349 1_565 S
C806 C804 1.327 1_545 S
C806 C825 1.429 . S
C806 H830 0.950 . S
C807 C824 1.574 . S
C807 C826 1.368 . S
C807 H831 0.949 . S
H808 C812 0.949 . S
C809 C810 1.349 . S
C809 C811 1.327 . S
C809 H832 0.950 . S
C810 C809 1.349 . S
C810 C822 1.349 . S
C811 C809 1.327 . S
C811 C827 1.429 . S
C811 H833 0.950 . S
C812 H808 0.949 . S
C812 C820 1.574 . S
C812 C828 1.368 . S
H813 C821 0.950 1_565 S
H814 C819 0.950 . S
H815 C820 0.949 . S
H816 C822 0.950 . S
H817 C823 0.950 . S
H818 C824 0.949 . S
C819 H814 0.950 . S
C819 C821 1.327 . S
C819 C825 1.429 . S
C820 C812 1.574 . S
C820 H815 0.949 . S
C820 C826 1.368 . S
C821 C805 1.349 1_545 S
C821 H813 0.950 1_545 S
C821 C819 1.327 . S
C822 C810 1.349 . S
C822 H816 0.950 . S
C822 C823 1.327 . S
C823 H817 0.950 . S
C823 C822 1.327 . S
C823 C827 1.429 . S
C824 C807 1.574 . S
C824 H818 0.949 . S
C824 C828 1.368 . S
C825 C806 1.429 . S
C825 C819 1.429 . S
C825 C826 1.523 . S
C826 C807 1.368 . S
C826 C820 1.368 . S
C826 C825 1.523 . S
C827 C811 1.429 . S
C827 C823 1.429 . S
C827 C828 1.523 . S
C828 C812 1.368 . S
C828 C824 1.368 . S
C828 C827 1.523 . S
H829 C804 0.950 . S
H830 C806 0.950 . S
H831 C807 0.949 . S
H832 C809 0.950 . S
H833 C811 0.950 . S
C834 C835 1.340 1_655 S
C834 C836 1.327 . S
C834 H859 0.950 . S
C835 C834 1.340 1_455 S
C835 C851 1.358 . S
C836 C834 1.327 . S
C836 C855 1.429 1_655 S
C836 H860 0.950 . S
C837 C854 1.574 1_565 S
C837 C856 1.368 . S
C837 H861 0.949 . S
H838 C842 0.949 . S
C839 C840 1.349 . S
C839 C841 1.327 . S
C839 H862 0.950 . S
C840 C839 1.349 . S
C840 C852 1.349 1_455 S
C841 C839 1.327 . S
C841 C857 1.429 . S
C841 H863 0.950 . S
C842 H838 0.949 . S
C842 C850 1.574 1_545 S
C842 C858 1.368 1_655 S
H843 C851 0.950 . S
H844 C849 0.950 . S
H845 C850 0.949 . S
H846 C852 0.950 . S
H847 C853 0.950 . S
H848 C854 0.949 . S
C849 H844 0.950 . S
C849 C851 1.327 . S
C849 C855 1.429 . S
C850 C842 1.574 1_565 S
C850 H845 0.949 . S
C850 C856 1.368 1_655 S
C851 C835 1.358 . S
C851 H843 0.950 . S
C851 C849 1.327 . S
C852 C840 1.349 1_655 S
C852 H846 0.950 . S
C852 C853 1.327 . S
C853 H847 0.950 . S
C853 C852 1.327 . S
C853 C857 1.429 1_655 S
C854 C837 1.574 1_545 S
C854 H848 0.949 . S
C854 C858 1.368 . S
C855 C836 1.429 1_455 S
C855 C849 1.429 . S
C855 C856 1.523 . S
C856 C837 1.368 . S
C856 C850 1.368 1_455 S
C856 C855 1.523 . S
C857 C841 1.429 . S
C857 C853 1.429 1_455 S
C857 C858 1.523 . S
C858 C842 1.368 1_455 S
C858 C854 1.368 . S
C858 C857 1.523 . S
H859 C834 0.950 . S
H860 C836 0.950 . S
H861 C837 0.949 . S
H862 C839 0.950 . S
H863 C841 0.950 . S
C864 C865 1.349 . S
C864 C866 1.327 1_565 S
C864 H889 0.950 . S
C865 C864 1.349 . S
C865 C881 1.349 1_565 S
C866 C864 1.327 1_545 S
C866 C885 1.429 . S
C866 H890 0.950 . S
C867 C884 1.574 . S
C867 C886 1.368 . S
C867 H891 0.949 . S
H868 C872 0.949 . S
C869 C870 1.349 . S
C869 C871 1.327 . S
C869 H892 0.950 . S
C870 C869 1.349 . S
C870 C882 1.349 . S
C871 C869 1.327 . S
C871 C887 1.429 . S
C871 H893 0.950 . S
C872 H868 0.949 . S
C872 C880 1.574 . S
C872 C888 1.368 . S
H873 C881 0.950 1_565 S
H874 C879 0.950 . S
H875 C880 0.949 . S
H876 C882 0.950 . S
H877 C883 0.950 . S
H878 C884 0.949 . S
C879 H874 0.950 . S
C879 C881 1.327 . S
C879 C885 1.429 . S
C880 C872 1.574 . S
C880 H875 0.949 . S
C880 C886 1.368 . S
C881 C865 1.349 1_545 S
C881 H873 0.950 1_545 S
C881 C879 1.327 . S
C882 C870 1.349 . S
C882 H876 0.950 . S
C882 C883 1.327 . S
C883 H877 0.950 . S
C883 C882 1.327 . S
C883 C887 1.429 . S
C884 C867 1.574 . S
C884 H878 0.949 . S
C884 C888 1.368 . S
C885 C866 1.429 . S
C885 C879 1.429 . S
C885 C886 1.523 . S
C886 C867 1.368 . S
C886 C880 1.368 . S
C886 C885 1.523 . S
C887 C871 1.429 . S
C887 C883 1.429 . S
C887 C888 1.523 . S
C888 C872 1.368 . S
C888 C884 1.368 . S
C888 C887 1.523 . S
H889 C864 0.950 . S
H890 C866 0.950 . S
H891 C867 0.949 . S
H892 C869 0.950 . S
H893 C871 0.950 . S
C894 C895 1.349 . S
C894 C896 1.327 . S
C894 H919 0.950 . S
C895 C894 1.349 . S
C895 C911 1.349 . S
C896 C894 1.327 . S
C896 C915 1.429 . S
C896 H920 0.950 . S
C897 C914 1.574 . S
C897 C916 1.368 . S
C897 H921 0.949 . S
H898 C902 0.949 . S
C899 C900 1.349 . S
C899 C901 1.327 1_545 S
C899 H922 0.950 . S
C900 C899 1.349 . S
C900 C912 1.349 . S
C901 C899 1.327 1_565 S
C901 C917 1.429 . S
C901 H923 0.950 . S
C902 H898 0.949 . S
C902 C910 1.574 . S
C902 C918 1.368 . S
H903 C911 0.950 . S
H904 C909 0.950 . S
H905 C910 0.949 . S
H906 C912 0.950 . S
H907 C913 0.950 . S
H908 C914 0.949 . S
C909 H904 0.950 . S
C909 C911 1.327 . S
C909 C915 1.429 . S
C910 C902 1.574 . S
C910 H905 0.949 . S
C910 C916 1.368 . S
C911 C895 1.349 . S
C911 H903 0.950 . S
C911 C909 1.327 . S
C912 C900 1.349 . S
C912 H906 0.950 . S
C912 C913 1.327 1_545 S
C913 H907 0.950 . S
C913 C912 1.327 1_565 S
C913 C917 1.429 . S
C914 C897 1.574 . S
C914 H908 0.949 . S
C914 C918 1.368 . S
C915 C896 1.429 . S
C915 C909 1.429 . S
C915 C916 1.523 . S
C916 C897 1.368 . S
C916 C910 1.368 . S
C916 C915 1.523 . S
C917 C901 1.429 . S
C917 C913 1.429 . S
C917 C918 1.523 . S
C918 C902 1.368 . S
C918 C914 1.368 . S
C918 C917 1.523 . S
H919 C894 0.950 . S
H920 C896 0.950 . S
H921 C897 0.949 . S
H922 C899 0.950 . S
H923 C901 0.950 . S
C924 C925 1.349 . S
C924 C926 1.327 . S
C924 H949 0.950 . S
C925 C924 1.349 . S
C925 C941 1.349 . S
C926 C924 1.327 . S
C926 C945 1.429 . S
C926 H950 0.950 . S
C927 C944 1.574 . S
C927 C946 1.368 . S
C927 H951 0.949 . S
H928 C932 0.949 . S
C929 C930 1.349 . S
C929 C931 1.327 . S
C929 H952 0.950 . S
C930 C929 1.349 . S
C930 C942 1.349 . S
C931 C929 1.327 . S
C931 C947 1.429 . S
C931 H953 0.950 . S
C932 H928 0.949 . S
C932 C940 1.574 . S
C932 C948 1.368 . S
H933 C941 0.950 . S
H934 C939 0.950 . S
H935 C940 0.949 . S
H936 C942 0.950 . S
H937 C943 0.950 . S
H938 C944 0.949 . S
C939 H934 0.950 . S
C939 C941 1.327 . S
C939 C945 1.429 . S
C940 C932 1.574 . S
C940 H935 0.949 . S
C940 C946 1.368 . S
C941 C925 1.349 . S
C941 H933 0.950 . S
C941 C939 1.327 . S
C942 C930 1.349 . S
C942 H936 0.950 . S
C942 C943 1.327 . S
C943 H937 0.950 . S
C943 C942 1.327 . S
C943 C947 1.429 . S
C944 C927 1.574 . S
C944 H938 0.949 . S
C944 C948 1.368 . S
C945 C926 1.429 . S
C945 C939 1.429 . S
C945 C946 1.523 . S
C946 C927 1.368 . S
C946 C940 1.368 . S
C946 C945 1.523 . S
C947 C931 1.429 . S
C947 C943 1.429 . S
C947 C948 1.523 . S
C948 C932 1.368 . S
C948 C944 1.368 . S
C948 C947 1.523 . S
H949 C924 0.950 . S
H950 C926 0.950 . S
H951 C927 0.949 . S
H952 C929 0.950 . S
H953 C931 0.950 . S
C954 C955 1.349 . S
C954 C956 1.327 . S
C954 H979 0.950 . S
C955 C954 1.349 . S
C955 C971 1.349 1_554 S
C956 C954 1.327 . S
C956 C975 1.429 . S
C956 H980 0.950 . S
C957 C974 1.574 1_565 S
C957 C976 1.368 1_556 S
C957 H981 0.949 . S
H958 C962 0.949 . S
C959 C960 1.349 1_556 S
C959 C961 1.327 . S
C959 H982 0.950 . S
C960 C959 1.349 1_554 S
C960 C972 1.349 . S
C961 C959 1.327 . S
C961 C977 1.429 1_556 S
C961 H983 0.950 . S
C962 H958 0.949 . S
C962 C970 1.574 1_545 S
C962 C978 1.368 . S
H963 C971 0.950 . S
H964 C969 0.950 . S
H965 C970 0.949 . S
H966 C972 0.950 . S
H967 C973 0.950 . S
H968 C974 0.949 . S
C969 H964 0.950 . S
C969 C971 1.327 . S
C969 C975 1.429 1_556 S
C970 C962 1.574 1_565 S
C970 H965 0.949 . S
C970 C976 1.368 . S
C971 C955 1.349 1_556 S
C971 H963 0.950 . S
C971 C969 1.327 . S
C972 C960 1.349 . S
C972 H966 0.950 . S
C972 C973 1.327 . S
C973 H967 0.950 . S
C973 C972 1.327 . S
C973 C977 1.429 . S
C974 C957 1.574 1_545 S
C974 H968 0.949 . S
C974 C978 1.368 1_556 S
C975 C956 1.429 . S
C975 C969 1.429 1_554 S
C975 C976 1.523 . S
C976 C957 1.368 1_554 S
C976 C970 1.368 . S
C976 C975 1.523 . S
C977 C961 1.429 1_554 S
C977 C973 1.429 . S
C977 C978 1.523 . S
C978 C962 1.368 . S
C978 C974 1.368 1_554 S
C978 C977 1.523 . S
H979 C954 0.950 . S
H980 C956 0.950 . S
H981 C957 0.949 . S
H982 C959 0.950 . S
H983 C961 0.950 . S
C984 C985 1.349 1_556 S
C984 C986 1.327 . S
C984 H1009 0.950 . S
C985 C984 1.349 1_554 S
C985 C1001 1.349 . S
C986 C984 1.327 . S
C986 C1005 1.429 1_556 S
C986 H1010 0.950 . S
C987 C1004 1.574 . S
C987 C1006 1.368 . S
C987 H1011 0.949 . S
H988 C992 0.949 . S
C989 C990 1.349 1_554 S
C989 C991 1.327 . S
C989 H1012 0.950 . S
C990 C989 1.349 1_556 S
C990 C1002 1.349 . S
C991 C989 1.327 . S
C991 C1007 1.429 . S
C991 H1013 0.950 . S
C992 H988 0.949 . S
C992 C1000 1.574 . S
C992 C1008 1.368 1_556 S
H993 C1001 0.950 . S
H994 C999 0.950 . S
H995 C1000 0.949 . S
H996 C1002 0.950 . S
H997 C1003 0.950 . S
H998 C1004 0.949 . S
C999 H994 0.950 . S
C999 C1001 1.327 . S
C999 C1005 1.429 . S
C1000 C992 1.574 . S
C1000 H995 0.949 . S
C1000 C1006 1.368 1_556 S
C1001 C985 1.349 . S
C1001 H993 0.950 . S
C1001 C999 1.327 . S
C1002 C990 1.349 . S
C1002 H996 0.950 . S
C1002 C1003 1.327 . S
C1003 H997 0.950 . S
C1003 C1002 1.327 . S
C1003 C1007 1.429 1_556 S
C1004 C987 1.574 . S
C1004 H998 0.949 . S
C1004 C1008 1.368 . S
C1005 C986 1.429 1_554 S
C1005 C999 1.429 . S
C1005 C1006 1.523 . S
C1006 C987 1.368 . S
C1006 C1000 1.368 1_554 S
C1006 C1005 1.523 . S
C1007 C991 1.429 . S
C1007 C1003 1.429 1_554 S
C1007 C1008 1.523 . S
C1008 C992 1.368 1_554 S
C1008 C1004 1.368 . S
C1008 C1007 1.523 . S
H1009 C984 0.950 . S
H1010 C986 0.950 . S
H1011 C987 0.949 . S
H1012 C989 0.950 . S
H1013 C991 0.950 . S
C1014 C1015 1.349 . S
C1014 C1016 1.327 . S
C1014 H1039 0.950 . S
C1015 C1014 1.349 . S
C1015 C1031 1.349 1_554 S
C1016 C1014 1.327 . S
C1016 C1035 1.429 . S
C1016 H1040 0.950 . S
C1017 C1034 1.574 . S
C1017 C1036 1.368 1_556 S
C1017 H1041 0.949 . S
H1018 C1022 0.949 . S
C1019 C1020 1.349 . S
C1019 C1021 1.327 . S
C1019 H1042 0.950 . S
C1020 C1019 1.349 . S
C1020 C1032 1.349 1_556 S
C1021 C1019 1.327 . S
C1021 C1037 1.429 1_556 S
C1021 H1043 0.950 . S
C1022 H1018 0.949 . S
C1022 C1030 1.574 . S
C1022 C1038 1.368 . S
H1023 C1031 0.950 . S
H1024 C1029 0.950 . S
H1025 C1030 0.949 . S
H1026 C1032 0.950 . S
H1027 C1033 0.950 . S
H1028 C1034 0.949 . S
C1029 H1024 0.950 . S
C1029 C1031 1.327 . S
C1029 C1035 1.429 1_556 S
C1030 C1022 1.574 . S
C1030 H1025 0.949 . S
C1030 C1036 1.368 . S
C1031 C1015 1.349 1_556 S
C1031 H1023 0.950 . S
C1031 C1029 1.327 . S
C1032 C1020 1.349 1_554 S
C1032 H1026 0.950 . S
C1032 C1033 1.327 . S
C1033 H1027 0.950 . S
C1033 C1032 1.327 . S
C1033 C1037 1.429 . S
C1034 C1017 1.574 . S
C1034 H1028 0.949 . S
C1034 C1038 1.368 1_556 S
C1035 C1016 1.429 . S
C1035 C1029 1.429 1_554 S
C1035 C1036 1.523 . S
C1036 C1017 1.368 1_554 S
C1036 C1030 1.368 . S
C1036 C1035 1.523 . S
C1037 C1021 1.429 1_554 S
C1037 C1033 1.429 . S
C1037 C1038 1.523 . S
C1038 C1022 1.368 . S
C1038 C1034 1.368 1_554 S
C1038 C1037 1.523 . S
H1039 C1014 0.950 . S
H1040 C1016 0.950 . S
H1041 C1017 0.949 . S
H1042 C1019 0.950 . S
H1043 C1021 0.950 . S
C1044 C1045 1.349 . S
C1044 C1046 1.327 . S
C1044 H1069 0.950 . S
C1045 C1044 1.349 . S
C1045 C1061 1.349 . S
C1046 C1044 1.327 . S
C1046 C1065 1.429 . S
C1046 H1070 0.950 . S
C1047 C1064 1.574 1_455 S
C1047 C1066 1.368 . S
C1047 H1071 0.949 . S
H1048 C1052 0.949 1_655 S
C1049 C1050 1.349 . S
C1049 C1051 1.327 . S
C1049 H1072 0.950 . S
C1050 C1049 1.349 . S
C1050 C1062 1.349 . S
C1051 C1049 1.327 . S
C1051 C1067 1.429 . S
C1051 H1073 0.950 . S
C1052 H1048 0.949 1_455 S
C1052 C1060 1.574 . S
C1052 C1068 1.368 1_455 S
H1053 C1061 0.950 . S
H1054 C1059 0.950 . S
H1055 C1060 0.949 . S
H1056 C1062 0.950 . S
H1057 C1063 0.950 . S
H1058 C1064 0.949 . S
C1059 H1054 0.950 . S
C1059 C1061 1.327 . S
C1059 C1065 1.429 . S
C1060 C1052 1.574 . S
C1060 H1055 0.949 . S
C1060 C1066 1.368 . S
C1061 C1045 1.349 . S
C1061 H1053 0.950 . S
C1061 C1059 1.327 . S
C1062 C1050 1.349 . S
C1062 H1056 0.950 . S
C1062 C1063 1.327 . S
C1063 H1057 0.950 . S
C1063 C1062 1.327 . S
C1063 C1067 1.429 . S
C1064 C1047 1.574 1_655 S
C1064 H1058 0.949 . S
C1064 C1068 1.368 . S
C1065 C1046 1.429 . S
C1065 C1059 1.429 . S
C1065 C1066 1.523 . S
C1066 C1047 1.368 . S
C1066 C1060 1.368 . S
C1066 C1065 1.523 . S
C1067 C1051 1.429 . S
C1067 C1063 1.429 . S
C1067 C1068 1.523 . S
C1068 C1052 1.368 1_655 S
C1068 C1064 1.368 . S
C1068 C1067 1.523 . S
H1069 C1044 0.950 . S
H1070 C1046 0.950 . S
H1071 C1047 0.949 . S
H1072 C1049 0.950 . S
H1073 C1051 0.950 . S
C1074 C1075 1.349 . S
C1074 C1076 1.327 . S
C1074 H1099 0.950 . S
C1075 C1074 1.349 . S
C1075 C1091 1.349 . S
C1076 C1074 1.327 . S
C1076 C1095 1.429 . S
C1076 H1100 0.950 . S
C1077 C1094 1.574 . S
C1077 C1096 1.368 . S
C1077 H1101 0.949 . S
H1078 C1082 0.949 . S
C1079 C1080 1.349 . S
C1079 C1081 1.327 . S
C1079 H1102 0.950 . S
C1080 C1079 1.349 . S
C1080 C1092 1.349 . S
C1081 C1079 1.327 . S
C1081 C1097 1.429 . S
C1081 H1103 0.950 . S
C1082 H1078 0.949 . S
C1082 C1090 1.574 . S
C1082 C1098 1.368 . S
H1083 C1091 0.950 . S
H1084 C1089 0.950 . S
H1085 C1090 0.949 . S
H1086 C1092 0.950 . S
H1087 C1093 0.950 . S
H1088 C1094 0.949 . S
C1089 H1084 0.950 . S
C1089 C1091 1.327 . S
C1089 C1095 1.429 . S
C1090 C1082 1.574 . S
C1090 H1085 0.949 . S
C1090 C1096 1.368 . S
C1091 C1075 1.349 . S
C1091 H1083 0.950 . S
C1091 C1089 1.327 . S
C1092 C1080 1.349 . S
C1092 H1086 0.950 . S
C1092 C1093 1.327 . S
C1093 H1087 0.950 . S
C1093 C1092 1.327 . S
C1093 C1097 1.429 . S
C1094 C1077 1.574 . S
C1094 H1088 0.949 . S
C1094 C1098 1.368 . S
C1095 C1076 1.429 . S
C1095 C1089 1.429 . S
C1095 C1096 1.523 . S
C1096 C1077 1.368 . S
C1096 C1090 1.368 . S
C1096 C1095 1.523 . S
C1097 C1081 1.429 . S
C1097 C1093 1.429 . S
C1097 C1098 1.523 . S
C1098 C1082 1.368 . S
C1098 C1094 1.368 . S
C1098 C1097 1.523 . S
H1099 C1074 0.950 . S
H1100 C1076 0.950 . S
H1101 C1077 0.949 . S
H1102 C1079 0.950 . S
H1103 C1081 0.950 . S
C1104 C1105 1.349 . S
C1104 C1106 1.327 . S
C1104 H1129 0.950 . S
C1105 C1104 1.349 . S
C1105 C1121 1.349 . S
C1106 C1104 1.327 . S
C1106 C1125 1.429 . S
C1106 H1130 0.950 . S
C1107 C1124 1.574 . S
C1107 C1126 1.368 . S
C1107 H1131 0.949 . S
H1108 C1112 0.949 . S
C1109 C1110 1.349 . S
C1109 C1111 1.327 . S
C1109 H1132 0.950 . S
C1110 C1109 1.349 . S
C1110 C1122 1.349 . S
C1111 C1109 1.327 . S
C1111 C1127 1.429 . S
C1111 H1133 0.950 . S
C1112 H1108 0.949 . S
C1112 C1120 1.574 . S
C1112 C1128 1.368 . S
H1113 C1121 0.950 . S
H1114 C1119 0.950 . S
H1115 C1120 0.949 . S
H1116 C1122 0.950 . S
H1117 C1123 0.950 . S
H1118 C1124 0.949 . S
C1119 H1114 0.950 . S
C1119 C1121 1.327 . S
C1119 C1125 1.429 . S
C1120 C1112 1.574 . S
C1120 H1115 0.949 . S
C1120 C1126 1.368 . S
C1121 C1105 1.349 . S
C1121 H1113 0.950 . S
C1121 C1119 1.327 . S
C1122 C1110 1.349 . S
C1122 H1116 0.950 . S
C1122 C1123 1.327 . S
C1123 H1117 0.950 . S
C1123 C1122 1.327 . S
C1123 C1127 1.429 . S
C1124 C1107 1.574 . S
C1124 H1118 0.949 . S
C1124 C1128 1.368 . S
C1125 C1106 1.429 . S
C1125 C1119 1.429 . S
C1125 C1126 1.523 . S
C1126 C1107 1.368 . S
C1126 C1120 1.368 . S
C1126 C1125 1.523 . S
C1127 C1111 1.429 . S
C1127 C1123 1.429 . S
C1127 C1128 1.523 . S
C1128 C1112 1.368 . S
C1128 C1124 1.368 . S
C1128 C1127 1.523 . S
H1129 C1104 0.950 . S
H1130 C1106 0.950 . S
H1131 C1107 0.949 . S
H1132 C1109 0.950 . S
H1133 C1111 0.950 . S
C1134 C1135 1.349 . S
C1134 C1136 1.327 . S
C1134 H1159 0.950 . S
C1135 C1134 1.349 . S
C1135 C1151 1.349 . S
C1136 C1134 1.327 . S
C1136 C1155 1.429 . S
C1136 H1160 0.950 . S
C1137 C1154 1.574 1_655 S
C1137 C1156 1.368 1_565 S
C1137 H1161 0.949 . S
H1138 C1142 0.949 . S
C1139 C1140 1.349 . S
C1139 C1141 1.327 . S
C1139 H1162 0.950 . S
C1140 C1139 1.349 . S
C1140 C1152 1.349 . S
C1141 C1139 1.327 . S
C1141 C1157 1.429 . S
C1141 H1163 0.950 . S
C1142 H1138 0.949 . S
C1142 C1150 1.574 1_455 S
C1142 C1158 1.368 1_545 S
H1143 C1151 0.950 . S
H1144 C1149 0.950 . S
H1145 C1150 0.949 . S
H1146 C1152 0.950 . S
H1147 C1153 0.950 . S
H1148 C1154 0.949 . S
C1149 H1144 0.950 . S
C1149 C1151 1.327 . S
C1149 C1155 1.429 . S
C1150 C1142 1.574 1_655 S
C1150 H1145 0.949 . S
C1150 C1156 1.368 . S
C1151 C1135 1.349 . S
C1151 H1143 0.950 . S
C1151 C1149 1.327 . S
C1152 C1140 1.349 . S
C1152 H1146 0.950 . S
C1152 C1153 1.327 . S
C1153 H1147 0.950 . S
C1153 C1152 1.327 . S
C1153 C1157 1.429 . S
C1154 C1137 1.574 1_455 S
C1154 H1148 0.949 . S
C1154 C1158 1.368 . S
C1155 C1136 1.429 . S
C1155 C1149 1.429 . S
C1155 C1156 1.523 . S
C1156 C1137 1.368 1_545 S
C1156 C1150 1.368 . S
C1156 C1155 1.523 . S
C1157 C1141 1.429 . S
C1157 C1153 1.429 . S
C1157 C1158 1.523 . S
C1158 C1142 1.368 1_565 S
C1158 C1154 1.368 . S
C1158 C1157 1.523 . S
H1159 C1134 0.950 . S
H1160 C1136 0.950 . S
H1161 C1137 0.949 . S
H1162 C1139 0.950 . S
H1163 C1141 0.950 . S
C1164 C1165 1.349 . S
C1164 C1166 1.327 . S
C1164 H1189 0.950 . S
C1165 C1164 1.349 . S
C1165 C1181 1.349 . S
C1166 C1164 1.327 . S
C1166 C1185 1.429 . S
C1166 H1190 0.950 . S
C1167 C1184 1.574 . S
C1167 C1186 1.368 . S
C1167 H1191 0.949 . S
H1168 C1172 0.949 . S
C1169 C1170 1.349 . S
C1169 C1171 1.327 . S
C1169 H1192 0.950 . S
C1170 C1169 1.349 . S
C1170 C1182 1.349 . S
C1171 C1169 1.327 . S
C1171 C1187 1.429 . S
C1171 H1193 0.950 . S
C1172 H1168 0.949 . S
C1172 C1180 1.574 . S
C1172 C1188 1.368 . S
H1173 C1181 0.950 . S
H1174 C1179 0.950 . S
H1175 C1180 0.949 . S
H1176 C1182 0.950 . S
H1177 C1183 0.950 . S
H1178 C1184 0.949 . S
C1179 H1174 0.950 . S
C1179 C1181 1.327 . S
C1179 C1185 1.429 . S
C1180 C1172 1.574 . S
C1180 H1175 0.949 . S
C1180 C1186 1.368 . S
C1181 C1165 1.349 . S
C1181 H1173 0.950 . S
C1181 C1179 1.327 . S
C1182 C1170 1.349 . S
C1182 H1176 0.950 . S
C1182 C1183 1.327 . S
C1183 H1177 0.950 . S
C1183 C1182 1.327 . S
C1183 C1187 1.429 . S
C1184 C1167 1.574 . S
C1184 H1178 0.949 . S
C1184 C1188 1.368 . S
C1185 C1166 1.429 . S
C1185 C1179 1.429 . S
C1185 C1186 1.523 . S
C1186 C1167 1.368 . S
C1186 C1180 1.368 . S
C1186 C1185 1.523 . S
C1187 C1171 1.429 . S
C1187 C1183 1.429 . S
C1187 C1188 1.523 . S
C1188 C1172 1.368 . S
C1188 C1184 1.368 . S
C1188 C1187 1.523 . S
H1189 C1164 0.950 . S
H1190 C1166 0.950 . S
H1191 C1167 0.949 . S
H1192 C1169 0.950 . S
H1193 C1171 0.950 . S
C1194 C1195 1.349 . S
C1194 C1196 1.327 . S
C1194 H1219 0.950 . S
C1195 C1194 1.349 . S
C1195 C1211 1.349 . S
C1196 C1194 1.327 . S
C1196 C1215 1.429 . S
C1196 H1220 0.950 . S
C1197 C1214 1.574 . S
C1197 C1216 1.368 1_545 S
C1197 H1221 0.949 . S
H1198 C1202 0.949 . S
C1199 C1200 1.349 . S
C1199 C1201 1.327 . S
C1199 H1222 0.950 . S
C1200 C1199 1.349 . S
C1200 C1212 1.349 . S
C1201 C1199 1.327 . S
C1201 C1217 1.429 . S
C1201 H1223 0.950 . S
C1202 H1198 0.949 . S
C1202 C1210 1.574 . S
C1202 C1218 1.368 1_565 S
H1203 C1211 0.950 . S
H1204 C1209 0.950 . S
H1205 C1210 0.949 . S
H1206 C1212 0.950 . S
H1207 C1213 0.950 . S
H1208 C1214 0.949 . S
C1209 H1204 0.950 . S
C1209 C1211 1.327 . S
C1209 C1215 1.429 . S
C1210 C1202 1.574 . S
C1210 H1205 0.949 . S
C1210 C1216 1.368 . S
C1211 C1195 1.349 . S
C1211 H1203 0.950 . S
C1211 C1209 1.327 . S
C1212 C1200 1.349 . S
C1212 H1206 0.950 . S
C1212 C1213 1.327 . S
C1213 H1207 0.950 . S
C1213 C1212 1.327 . S
C1213 C1217 1.429 . S
C1214 C1197 1.574 . S
C1214 H1208 0.949 . S
C1214 C1218 1.368 . S
C1215 C1196 1.429 . S
C1215 C1209 1.429 . S
C1215 C1216 1.523 . S
C1216 C1197 1.368 1_565 S
C1216 C1210 1.368 . S
C1216 C1215 1.523 . S
C1217 C1201 1.429 . S
C1217 C1213 1.429 . S
C1217 C1218 1.523 . S
C1218 C1202 1.368 1_545 S
C1218 C1214 1.368 . S
C1218 C1217 1.523 . S
H1219 C1194 0.950 . S
H1220 C1196 0.950 . S
H1221 C1197 0.949 . S
H1222 C1199 0.950 . S
H1223 C1201 0.950 . S
C265 C28 1.673 . S
C270 C58 1.707 . S
C295 C25 2.194 . S
C300 C94 2.203 . S
C325 C120 1.707 . S
C330 C57 1.674 . S
C355 C87 2.195 . S
C360 C123 2.203 . S
C385 C127 1.673 . S
C390 C157 1.706 . S
C415 C193 2.203 . S
C420 C124 2.195 . S
C445 C156 1.673 . S
C450 C21 1.707 . S
C475 C186 2.195 . S
C480 C24 2.203 . S
C505 C190 1.706 . S
C510 C226 1.673 . S
C535 C223 2.195 . S
C540 C160 2.203 . S
C565 C252 1.707 . S
C570 C189 1.673 . S
C595 C255 2.203 . S
C600 C153 2.195 . S
C625 C259 1.673 . S
C630 C91 1.707 . S
C655 C61 2.203 . S
C660 C256 2.194 . S
C685 C219 1.707 . S
C690 C90 1.674 . S
C715 C222 2.203 . S
C720 C54 2.195 . S
C745 C27 1.047 . S
C750 C23 1.043 1_455 S
C775 C60 1.047 . S
C780 C56 1.047 . S
C805 C93 1.047 . S
C810 C89 1.047 . S
C835 C122 1.043 1_455 S
C840 C126 1.047 . S
C865 C159 1.047 . S
C870 C155 1.047 . S
C895 C192 1.047 . S
C900 C188 1.047 . S
C925 C225 1.047 . S
C930 C221 1.047 . S
C955 C254 1.047 . S
C960 C258 1.047 . S
C985 C257 0.562 . S
C990 C22 0.562 . S
C1015 C26 0.562 . S
C1020 C253 0.562 . S
C1045 C59 0.562 . S
C1050 C88 0.562 . S
C1075 C224 0.562 . S
C1080 C121 0.562 . S
C1105 C125 0.562 . S
C1110 C220 0.562 . S
C1135 C187 0.562 . S
C1140 C158 0.562 . S
C1165 C191 0.562 . S
C1170 C154 0.562 . S
C1195 C92 0.562 . S
C1200 C55 0.562 . S
