# Generated by pormake.
# Topology dft, (4)-cn, num edge types: 1
# Building blocks:
#     Node 0, Type 0, BuildingBlock: ICAMEG_clean_sbu_1, # of connection points: 4
#     Node 1, Type 0, BuildingBlock: ICAMEG_clean_sbu_1, # of connection points: 4
#     Node 2, Type 0, BuildingBlock: ICAMEG_clean_sbu_1, # of connection points: 4
#     Node 3, Type 0, BuildingBlock: ICAMEG_clean_sbu_1, # of connection points: 4
#     Node 4, Type 0, BuildingBlock: ICAMEG_clean_sbu_1, # of connection points: 4
#     Node 5, Type 0, BuildingBlock: ICAMEG_clean_sbu_1, # of connection points: 4
#     Node 6, Type 0, BuildingBlock: ICAMEG_clean_sbu_1, # of connection points: 4
#     Node 7, Type 0, BuildingBlock: ICAMEG_clean_sbu_1, # of connection points: 4
#     Edge 8, Type (0, 0), BuildingBlock: TEMPAE_clean_linker_10, # of connection points: 2
#     Edge 9, Type (0, 0), BuildingBlock: TEMPAE_clean_linker_10, # of connection points: 2
#     Edge 10, Type (0, 0), BuildingBlock: TEMPAE_clean_linker_10, # of connection points: 2
#     Edge 11, Type (0, 0), BuildingBlock: TEMPAE_clean_linker_10, # of connection points: 2
#     Edge 12, Type (0, 0), BuildingBlock: TEMPAE_clean_linker_10, # of connection points: 2
#     Edge 13, Type (0, 0), BuildingBlock: TEMPAE_clean_linker_10, # of connection points: 2
#     Edge 14, Type (0, 0), BuildingBlock: TEMPAE_clean_linker_10, # of connection points: 2
#     Edge 15, Type (0, 0), BuildingBlock: TEMPAE_clean_linker_10, # of connection points: 2
#     Edge 16, Type (0, 0), BuildingBlock: TEMPAE_clean_linker_10, # of connection points: 2
#     Edge 17, Type (0, 0), BuildingBlock: TEMPAE_clean_linker_10, # of connection points: 2
#     Edge 18, Type (0, 0), BuildingBlock: TEMPAE_clean_linker_10, # of connection points: 2
#     Edge 19, Type (0, 0), BuildingBlock: TEMPAE_clean_linker_10, # of connection points: 2
#     Edge 20, Type (0, 0), BuildingBlock: TEMPAE_clean_linker_10, # of connection points: 2
#     Edge 21, Type (0, 0), BuildingBlock: TEMPAE_clean_linker_10, # of connection points: 2
#     Edge 22, Type (0, 0), BuildingBlock: TEMPAE_clean_linker_10, # of connection points: 2
#     Edge 23, Type (0, 0), BuildingBlock: TEMPAE_clean_linker_10, # of connection points: 2
# Relax obj value: 0.222
# Max RMSD: 0.220
# Mean RMSD: 0.220
data_MOF--net-dft--node1-ICAMEG_clean_sbu_1--edge1-TEMPAE_clean_linker_10
_symmetry_space_group_name_H-M    P1
_symmetry_Int_Tables_number       1
_symmetry_cell_setting            triclinic
loop_
_symmetry_equiv_pos_as_xyz
'x, y, z'
_cell_length_a     34.724653
_cell_length_b     34.730277
_cell_length_c     47.904577
_cell_angle_alpha  90.107895
_cell_angle_beta   90.029171
_cell_angle_gamma 90.009034
loop_
_atom_site_label
_atom_site_type_symbol
_atom_site_fract_x
_atom_site_fract_y
_atom_site_fract_z
_atom_type_partial_charge
Co0 Co 0.27879 0.1065 0.15688 0.0
Co1 Co 0.3461 0.06043 0.19703 0.0
O2 O 0.32872 0.07959 0.16039 0.0
C3 C 0.28387 0.05686 0.10531 0.0
O4 O 0.30192 0.02978 0.11919 0.0
C5 C 0.42032 0.08431 0.16742 0.0
O6 O 0.4018 0.09875 0.14598 0.0
O7 O 0.34203 0.11371 0.2125 0.0
O8 O 0.28407 0.12889 0.19509 0.0
H9 H 0.33837 0.04951 0.30145 0.0
H10 H 0.3392 0.11777 0.11389 0.0
O11 O 0.27181 0.08681 0.11787 0.0
H12 H 0.30828 0.24807 0.14819 0.0
H13 H 0.17628 0.18387 0.10775 0.0
H14 H 0.21236 0.11782 0.19493 0.0
H15 H 0.27476 0.19132 0.16718 0.0
H16 H 0.23888 0.15093 0.1118 0.0
O17 O 0.40192 0.07012 0.188 0.0
H18 H 0.31784 0.07145 0.25484 0.0
H19 H 0.41093 0.01108 0.21743 0.0
H20 H 0.14974 0.15088 0.19189 0.0
H21 H 0.37335 0.17374 0.09424 0.0
H22 H 0.13132 0.18425 0.14806 0.0
H23 H 0.358 0.23949 0.11144 0.0
O24 O 0.25171 0.06081 0.17268 0.0
H25 H 0.38317 0.96187 0.1246 0.0
H26 H 0.3222 0.98222 0.21626 0.0
H27 H 0.32594 0.91667 0.19685 0.0
H28 H 0.35686 0.90606 0.15073 0.0
H29 H 0.37797 0.02695 0.14451 0.0
H30 H 0.43274 0.98894 0.26366 0.0
H31 H 0.39624 0.00797 0.30608 0.0
O32 O 0.29155 0.0488 0.20836 0.0
C33 C 0.31228 0.13512 0.21144 0.0
C34 C 0.35446 0.04095 0.28312 0.0
C35 C 0.40745 0.007 0.26192 0.0
N36 N 0.363 0.04243 0.2334 0.0
C37 C 0.34292 0.05321 0.25666 0.0
C38 C 0.39503 0.01976 0.23579 0.0
C39 C 0.38695 0.01767 0.28571 0.0
C40 C 0.33237 0.14626 0.12151 0.0
N41 N 0.30522 0.15117 0.14182 0.0
C42 C 0.3518 0.17786 0.11029 0.0
C43 C 0.34318 0.21474 0.11995 0.0
C44 C 0.31531 0.21957 0.14057 0.0
C45 C 0.29652 0.18729 0.15132 0.0
C46 C 0.18395 0.16938 0.12694 0.0
C47 C 0.20464 0.13228 0.17577 0.0
C48 C 0.21929 0.15044 0.1293 0.0
N49 N 0.22935 0.13235 0.15356 0.0
C50 C 0.16908 0.15092 0.17417 0.0
C51 C 0.15875 0.16962 0.14958 0.0
C52 C 0.25898 0.04522 0.19623 0.0
C53 C 0.3698 0.96607 0.14478 0.0
C54 C 0.33532 0.97802 0.19609 0.0
C55 C 0.33756 0.94073 0.18525 0.0
C56 C 0.35495 0.93479 0.15941 0.0
N57 N 0.35004 0.00862 0.18169 0.0
C58 C 0.36704 0.00295 0.1563 0.0
Co59 Co 0.02248 0.27289 0.6591 0.0
Co60 Co 0.06788 0.34066 0.69958 0.0
O61 O 0.04876 0.32308 0.66294 0.0
C62 C 0.07239 0.27929 0.60798 0.0
O63 O 0.09825 0.29897 0.62197 0.0
C64 C 0.04181 0.41404 0.67015 0.0
O65 O 0.02718 0.39484 0.64905 0.0
O66 O 0.01488 0.33537 0.71527 0.0
O67 O 0.99987 0.27767 0.69721 0.0
H68 H 0.08026 0.33247 0.8039 0.0
H69 H 0.01053 0.33275 0.6158 0.0
O70 O 0.04269 0.26619 0.62024 0.0
H71 H 0.88075 0.30179 0.65092 0.0
H72 H 0.94695 0.16984 0.60888 0.0
H73 H 0.01129 0.20616 0.69684 0.0
H74 H 0.93781 0.26847 0.66961 0.0
H75 H 0.97923 0.23275 0.61346 0.0
O76 O 0.0569 0.39631 0.6907 0.0
H77 H 0.0582 0.31176 0.7573 0.0
H78 H 0.11589 0.40652 0.72006 0.0
H79 H 0.97885 0.14324 0.69326 0.0
H80 H 0.9542 0.36652 0.59629 0.0
H81 H 0.94637 0.12469 0.64903 0.0
H82 H 0.88871 0.35119 0.61392 0.0
O83 O 0.0683 0.24625 0.675 0.0
H84 H 0.16511 0.3811 0.62732 0.0
H85 H 0.1467 0.31804 0.71835 0.0
H86 H 0.21204 0.32359 0.69888 0.0
H87 H 0.22167 0.35558 0.65308 0.0
H88 H 0.10029 0.37406 0.64725 0.0
H89 H 0.13811 0.42852 0.76629 0.0
H90 H 0.12049 0.39127 0.80861 0.0
O91 O 0.08075 0.28624 0.71062 0.0
C92 C 0.9938 0.30539 0.71402 0.0
C93 C 0.08821 0.34889 0.78561 0.0
C94 C 0.12063 0.40283 0.7645 0.0
N95 N 0.08589 0.35774 0.73594 0.0
C96 C 0.07588 0.33725 0.75915 0.0
C97 C 0.10782 0.39029 0.73838 0.0
C98 C 0.11075 0.38191 0.78824 0.0
C99 C 0.98215 0.32584 0.62353 0.0
N100 N 0.97757 0.29887 0.64397 0.0
C101 C 0.95034 0.34509 0.61242 0.0
C102 C 0.91361 0.33649 0.62233 0.0
C103 C 0.90912 0.30879 0.64308 0.0
C104 C 0.94159 0.29014 0.65368 0.0
C105 C 0.96102 0.17759 0.62826 0.0
C106 C 0.99715 0.19841 0.67753 0.0
C107 C 0.97955 0.21311 0.63093 0.0
N108 N 0.99715 0.22322 0.65541 0.0
C109 C 0.97888 0.16267 0.67562 0.0
C110 C 0.96068 0.15228 0.6508 0.0
C111 C 0.08419 0.25364 0.69844 0.0
C112 C 0.16134 0.36726 0.64736 0.0
C113 C 0.15048 0.33157 0.6983 0.0
C114 C 0.18765 0.33485 0.68744 0.0
C115 C 0.19304 0.35285 0.66178 0.0
N116 N 0.11946 0.34583 0.6841 0.0
C117 C 0.1246 0.36344 0.65889 0.0
Co118 Co 0.84987 0.02833 0.16258 0.0
Co119 Co 0.78279 0.07904 0.19904 0.0
O120 O 0.80091 0.05685 0.16366 0.0
C121 C 0.84879 0.07408 0.10938 0.0
O122 O 0.83151 0.1028 0.12204 0.0
C123 C 0.70864 0.04411 0.17779 0.0
O124 O 0.72528 0.0105 0.17417 0.0
O125 O 0.78322 0.02652 0.21609 0.0
O126 O 0.84215 0.0094 0.20151 0.0
H127 H 0.78366 0.09611 0.30321 0.0
H128 H 0.78963 0.01563 0.11966 0.0
O129 O 0.85905 0.04449 0.12307 0.0
H130 H 0.81632 0.88722 0.15888 0.0
H131 H 0.95228 0.94459 0.11904 0.0
H132 H 0.91452 0.0188 0.20249 0.0
H133 H 0.85131 0.94433 0.17602 0.0
H134 H 0.8902 0.97896 0.12044 0.0
O135 O 0.72786 0.07255 0.18709 0.0
H136 H 0.80603 0.06988 0.25819 0.0
H137 H 0.71989 0.13342 0.21534 0.0
H138 H 0.97676 0.98476 0.20197 0.0
H139 H 0.75393 0.95929 0.1019 0.0
H140 H 0.99598 0.94721 0.16008 0.0
H141 H 0.76718 0.8945 0.12158 0.0
O142 O 0.87745 0.07461 0.17719 0.0
H143 H 0.75244 0.17443 0.12347 0.0
H144 H 0.81214 0.15676 0.21592 0.0
H145 H 0.81292 0.22092 0.19408 0.0
H146 H 0.78276 0.23013 0.14754 0.0
H147 H 0.75296 0.11057 0.14589 0.0
H148 H 0.69632 0.15998 0.25992 0.0
H149 H 0.72841 0.1415 0.30427 0.0
O150 O 0.83704 0.08816 0.2122 0.0
C151 C 0.81265 0.00458 0.21689 0.0
C152 C 0.76948 0.10443 0.28402 0.0
C153 C 0.72043 0.14024 0.25973 0.0
N154 N 0.76441 0.10019 0.23413 0.0
C155 C 0.78205 0.08971 0.25846 0.0
C156 C 0.73382 0.12497 0.23455 0.0
C157 C 0.73846 0.12988 0.28461 0.0
C158 C 0.79565 0.98753 0.12826 0.0
N159 N 0.82262 0.9833 0.1488 0.0
C160 C 0.7753 0.95573 0.11815 0.0
C161 C 0.78273 0.91939 0.12921 0.0
C162 C 0.81029 0.91529 0.15014 0.0
C163 C 0.82999 0.94775 0.15978 0.0
C164 C 0.94424 0.96088 0.13742 0.0
C165 C 0.92262 1.00258 0.18414 0.0
C166 C 0.90918 0.98056 0.13829 0.0
N167 N 0.89865 1.00092 0.16153 0.0
C168 C 0.95797 0.98341 0.18396 0.0
C169 C 0.96874 0.96235 0.16045 0.0
C170 C 0.86987 0.09119 0.20037 0.0
C171 C 0.76567 0.1708 0.14375 0.0
C172 C 0.79943 0.16037 0.19553 0.0
C173 C 0.79972 0.19686 0.18334 0.0
C174 C 0.78274 0.20202 0.15725 0.0
N175 N 0.78278 0.12983 0.18213 0.0
C176 C 0.76594 0.13473 0.1566 0.0
Co177 Co 0.09745 0.84429 0.65864 0.0
Co178 Co 0.04565 0.77755 0.69457 0.0
O179 O 0.06847 0.79557 0.65943 0.0
C180 C 0.05218 0.84382 0.60505 0.0
O181 O 0.02294 0.82724 0.61752 0.0
C182 C 0.08082 0.70278 0.67478 0.0
O183 O 0.11487 0.71892 0.67236 0.0
O184 O 0.09789 0.77769 0.71218 0.0
O185 O 0.11596 0.83633 0.69767 0.0
H186 H 0.02695 0.77852 0.79857 0.0
H187 H 0.10991 0.78394 0.61572 0.0
O188 O 0.08178 0.85362 0.61899 0.0
H189 H 0.23826 0.80934 0.65578 0.0
H190 H 0.18273 0.94587 0.61587 0.0
H191 H 0.10738 0.90872 0.69876 0.0
H192 H 0.18137 0.8449 0.67261 0.0
H193 H 0.14763 0.8842 0.6169 0.0
O194 O 0.05198 0.72257 0.68268 0.0
H195 H 0.05408 0.80068 0.75384 0.0
H196 H 0.99046 0.71511 0.71026 0.0
H197 H 0.14218 0.97054 0.69863 0.0
H198 H 0.16603 0.74769 0.59829 0.0
H199 H 0.18031 0.98945 0.65701 0.0
H200 H 0.2308 0.76028 0.61838 0.0
O201 O 0.05134 0.87238 0.67308 0.0
H202 H 0.95141 0.74789 0.61789 0.0
H203 H 0.96778 0.80728 0.71065 0.0
H204 H 0.90402 0.80849 0.68811 0.0
H205 H 0.89547 0.7785 0.64139 0.0
H206 H 0.01488 0.74798 0.64104 0.0
H207 H 0.96301 0.69173 0.75454 0.0
H208 H 0.98107 0.72365 0.79911 0.0
O209 O 0.03672 0.83178 0.70768 0.0
C210 C 0.12015 0.80688 0.71316 0.0
C211 C 0.01882 0.76441 0.77928 0.0
C212 C 0.98297 0.71567 0.75457 0.0
N213 N 0.02381 0.75931 0.72942 0.0
C214 C 0.03405 0.77687 0.75388 0.0
C215 C 0.99875 0.72894 0.72956 0.0
C216 C 0.9931 0.73361 0.77957 0.0
C217 C 0.13799 0.78968 0.62451 0.0
N218 N 0.14233 0.81661 0.6451 0.0
C219 C 0.16967 0.76902 0.61459 0.0
C220 C 0.20599 0.77608 0.62587 0.0
C221 C 0.21021 0.80359 0.64686 0.0
C222 C 0.17786 0.82362 0.65631 0.0
C223 C 0.16619 0.93797 0.63413 0.0
C224 C 0.12384 0.9167 0.68053 0.0
C225 C 0.14607 0.90315 0.63478 0.0
N226 N 0.12539 0.89279 0.65786 0.0
C227 C 0.14346 0.95181 0.68057 0.0
C228 C 0.16483 0.9624 0.65721 0.0
C229 C 0.03442 0.86479 0.6961 0.0
C230 C 0.95476 0.76106 0.63824 0.0
C231 C 0.96447 0.79465 0.69021 0.0
C232 C 0.9282 0.79518 0.6776 0.0
C233 C 0.9234 0.77829 0.65142 0.0
N234 N 0.99514 0.77784 0.67711 0.0
C235 C 0.9906 0.76109 0.65149 0.0
Co236 Co 0.27462 0.01115 0.84451 0.0
Co237 Co 0.343 0.04515 0.79927 0.0
O238 O 0.32595 0.0338 0.83771 0.0
C239 C 0.28992 0.06299 0.89431 0.0
O240 O 0.31813 0.08055 0.88137 0.0
C241 C 0.41654 0.02515 0.83099 0.0
O242 O 0.39766 0.01832 0.85418 0.0
O243 O 0.33515 0.98993 0.78904 0.0
O244 O 0.27705 0.98203 0.80856 0.0
H245 H 0.33193 0.03813 0.69477 0.0
H246 H 0.33723 1.00206 0.88658 0.0
O247 O 0.2697 0.03784 0.88163 0.0
H248 H 0.29337 0.87026 0.86543 0.0
H249 H 0.16859 0.95039 0.90138 0.0
H250 H 0.20625 0.9984 0.80853 0.0
H251 H 0.26341 0.92597 0.84228 0.0
H252 H 0.23329 0.97753 0.89368 0.0
O253 O 0.3986 0.03384 0.80863 0.0
H254 H 0.31173 0.0262 0.74332 0.0
H255 H 0.41029 0.08558 0.77353 0.0
H256 H 0.14153 0.97087 0.81523 0.0
H257 H 0.36778 0.94724 0.91036 0.0
H258 H 0.12228 0.94664 0.86192 0.0
H259 H 0.34592 0.88068 0.89983 0.0
O260 O 0.25033 0.05572 0.82515 0.0
H261 H 0.3874 0.15537 0.86021 0.0
H262 H 0.32266 0.11974 0.7724 0.0
H263 H 0.33025 0.18816 0.78446 0.0
H264 H 0.36308 0.20649 0.8286 0.0
H265 H 0.37843 0.08746 0.84762 0.0
H266 H 0.43178 0.09775 0.72532 0.0
H267 H 0.39239 0.07413 0.68552 0.0
O268 O 0.28871 0.05785 0.78765 0.0
C269 C 0.30406 0.97103 0.79248 0.0
C270 C 0.34931 0.04862 0.71193 0.0
C271 C 0.40538 0.08203 0.72908 0.0
N272 N 0.35968 0.05525 0.76127 0.0
C273 C 0.33798 0.042 0.73948 0.0
C274 C 0.39312 0.0749 0.75635 0.0
C275 C 0.38325 0.0688 0.70676 0.0
C276 C 0.32737 0.97332 0.88192 0.0
N277 N 0.29846 0.96742 0.86305 0.0
C278 C 0.34487 0.94231 0.89544 0.0
C279 C 0.33261 0.90498 0.88953 0.0
C280 C 0.30313 0.89911 0.87025 0.0
C281 C 0.28634 0.93083 0.85714 0.0
C282 C 0.17661 0.96091 0.88094 0.0
C283 C 0.1982 0.98786 0.82892 0.0
C284 C 0.21315 0.97656 0.87649 0.0
N285 N 0.22363 0.98963 0.85068 0.0
C286 C 0.16144 0.97235 0.83259 0.0
C287 C 0.15066 0.95877 0.85879 0.0
C288 C 0.25741 0.06651 0.8002 0.0
C289 C 0.37318 0.14779 0.84085 0.0
C290 C 0.33664 0.12727 0.79176 0.0
C291 C 0.34103 0.16619 0.79842 0.0
C292 C 0.35948 0.17645 0.82315 0.0
N293 N 0.35025 0.09918 0.80915 0.0
C294 C 0.36823 0.10916 0.83348 0.0
Co295 Co 0.11544 0.27723 0.3462 0.0
Co296 Co 0.07332 0.35013 0.30964 0.0
O297 O 0.09156 0.32851 0.34511 0.0
C298 C 0.06537 0.2809 0.3972 0.0
O299 O 0.03953 0.30098 0.38355 0.0
C300 C 0.10351 0.43037 0.3124 0.0
O301 O 0.12371 0.42302 0.28984 0.0
O302 O 0.12664 0.34515 0.29419 0.0
O303 O 0.13833 0.28474 0.3084 0.0
H304 H 0.0639 0.35664 0.2051 0.0
H305 H 0.12989 0.33442 0.39106 0.0
O306 O 0.09505 0.26818 0.3847 0.0
H307 H 0.25848 0.29688 0.35691 0.0
H308 H 0.18505 0.16569 0.39078 0.0
H309 H 0.12287 0.21368 0.30509 0.0
H310 H 0.19996 0.26832 0.33637 0.0
H311 H 0.15675 0.23076 0.38945 0.0
O312 O 0.08464 0.40343 0.32423 0.0
H313 H 0.08516 0.32991 0.2502 0.0
H314 H 0.024 0.41736 0.29359 0.0
H315 H 0.15091 0.14852 0.30553 0.0
H316 H 0.18769 0.36362 0.41226 0.0
H317 H 0.1824 0.12415 0.34856 0.0
H318 H 0.25258 0.34489 0.39516 0.0
O319 O 0.06832 0.25466 0.32897 0.0
H320 H 0.97624 0.38691 0.38279 0.0
H321 H 0.99445 0.32804 0.29003 0.0
H322 H 0.92915 0.33248 0.30983 0.0
H323 H 0.91966 0.3623 0.35649 0.0
H324 H 0.04117 0.38109 0.36246 0.0
H325 H 1.00231 0.44519 0.24898 0.0
H326 H 0.02219 0.41473 0.2043 0.0
O327 O 0.06003 0.29754 0.29461 0.0
C328 C 0.14622 0.31409 0.29359 0.0
C329 C 0.05505 0.37018 0.22442 0.0
C330 C 0.02049 0.41988 0.24905 0.0
N331 N 0.05593 0.37206 0.27452 0.0
C332 C 0.06701 0.35518 0.25003 0.0
C333 C 0.03294 0.40403 0.27425 0.0
C334 C 0.03166 0.40278 0.22399 0.0
C335 C 0.15801 0.32605 0.38355 0.0
N336 N 0.1615 0.29962 0.36255 0.0
C337 C 0.19065 0.34271 0.39562 0.0
C338 C 0.22704 0.3322 0.38601 0.0
C339 C 0.23038 0.30526 0.36456 0.0
C340 C 0.19711 0.28923 0.35298 0.0
C341 C 0.1714 0.17599 0.3719 0.0
C342 C 0.13649 0.20334 0.32393 0.0
C343 C 0.15516 0.21276 0.37106 0.0
N344 N 0.13817 0.22611 0.34721 0.0
C345 C 0.15227 0.16636 0.32405 0.0
C346 C 0.16992 0.1527 0.34821 0.0
C347 C 0.05408 0.26442 0.30543 0.0
C348 C 0.97998 0.37389 0.36242 0.0
C349 C 0.9907 0.34052 0.3105 0.0
C350 C 0.95358 0.34322 0.32153 0.0
C351 C 0.94826 0.36002 0.34768 0.0
N352 N 0.02172 0.35413 0.32509 0.0
C353 C 0.01668 0.37067 0.35073 0.0
Co354 Co 0.85024 0.10405 0.8486 0.0
Co355 Co 0.778 0.06491 0.80928 0.0
O356 O 0.79916 0.07995 0.84575 0.0
C357 C 0.84291 0.05302 0.89929 0.0
O358 O 0.81669 0.03182 0.88695 0.0
C359 C 0.69752 0.09441 0.81306 0.0
O360 O 0.70476 0.11656 0.7915 0.0
O361 O 0.78292 0.11945 0.79637 0.0
O362 O 0.84276 0.13067 0.81216 0.0
H363 H 0.77268 0.06467 0.70446 0.0
H364 H 0.79174 0.11375 0.89341 0.0
O365 O 0.85976 0.07988 0.88602 0.0
H366 H 0.82932 0.24548 0.86661 0.0
H367 H 0.96078 0.17003 0.8975 0.0
H368 H 0.91403 0.11619 0.8084 0.0
H369 H 0.85864 0.18931 0.84343 0.0
H370 H 0.89597 0.14144 0.89423 0.0
O371 O 0.72455 0.07467 0.82403 0.0
H372 H 0.79889 0.08192 0.75066 0.0
H373 H 0.71104 0.01701 0.79042 0.0
H374 H 0.97893 0.14472 0.81075 0.0
H375 H 0.76203 0.16909 0.91735 0.0
H376 H 0.00268 0.172 0.85552 0.0
H377 H 0.78074 0.23558 0.90398 0.0
O378 O 0.87342 0.05899 0.82898 0.0
H379 H 0.73981 0.96079 0.87664 0.0
H380 H 0.8012 0.98826 0.78611 0.0
H381 H 0.79669 0.92121 0.8024 0.0
H382 H 0.7656 0.90705 0.84792 0.0
H383 H 0.74575 0.02754 0.85984 0.0
H384 H 0.68372 0.99927 0.74467 0.0
H385 H 0.71463 0.02309 0.70125 0.0
O386 O 0.83081 0.05335 0.79406 0.0
C387 C 0.81377 0.13938 0.79718 0.0
C388 C 0.75892 0.05414 0.72322 0.0
C389 C 0.709 0.01744 0.74579 0.0
N390 N 0.7565 0.05062 0.77324 0.0
C391 C 0.77364 0.06383 0.74945 0.0
C392 C 0.72457 0.02766 0.77164 0.0
C393 C 0.72636 0.0308 0.72144 0.0
C394 C 0.80034 0.14251 0.88761 0.0
N395 N 0.82724 0.14817 0.86723 0.0
C396 C 0.78328 0.17379 0.90119 0.0
C397 C 0.79377 0.21108 0.89366 0.0
C398 C 0.82103 0.21666 0.87273 0.0
C399 C 0.83751 0.1847 0.85964 0.0
C400 C 0.95075 0.15824 0.87787 0.0
C401 C 0.92409 0.128 0.82798 0.0
C402 C 0.91412 0.14182 0.87591 0.0
N403 N 0.90113 0.12712 0.85114 0.0
C404 C 0.96092 0.14408 0.82918 0.0
C405 C 0.97424 0.15935 0.85431 0.0
C406 C 0.86392 0.04681 0.80475 0.0
C407 C 0.75346 0.96658 0.85677 0.0
C408 C 0.78825 0.98249 0.80614 0.0
C409 C 0.78548 0.94438 0.81516 0.0
C410 C 0.76797 0.93645 0.84067 0.0
N411 N 0.77408 0.01195 0.82209 0.0
C412 C 0.75678 0.00434 0.84709 0.0
Co413 Co 0.02045 0.85355 0.3447 0.0
Co414 Co 0.05485 0.78506 0.29954 0.0
O415 O 0.04373 0.80246 0.33797 0.0
C416 C 0.07204 0.83891 0.39468 0.0
O417 O 0.08882 0.80972 0.38228 0.0
C418 C 0.03629 0.71162 0.33177 0.0
O419 O 0.0299 0.73059 0.35501 0.0
O420 O 0.99939 0.79197 0.28972 0.0
O421 O 0.99091 0.85021 0.309 0.0
H422 H 0.04635 0.79468 0.19506 0.0
H423 H 0.01246 0.79091 0.38691 0.0
O424 O 0.0476 0.8594 0.38158 0.0
H425 H 0.88004 0.8336 0.36686 0.0
H426 H 0.95925 0.95952 0.40159 0.0
H427 H 0.00614 0.92123 0.30846 0.0
H428 H 0.93515 0.86382 0.34315 0.0
H429 H 0.98711 0.8951 0.39397 0.0
O430 O 0.04437 0.72944 0.30926 0.0
H431 H 0.03469 0.8153 0.24359 0.0
H432 H 0.09593 0.71805 0.27383 0.0
H433 H 0.97791 0.98567 0.3151 0.0
H434 H 0.95827 0.76015 0.41124 0.0
H435 H 0.95422 0.00522 0.36193 0.0
H436 H 0.89138 0.7814 0.40128 0.0
O437 O 0.0644 0.87824 0.32483 0.0
H438 H 0.16644 0.74331 0.35998 0.0
H439 H 0.12885 0.80597 0.27197 0.0
H440 H 0.19752 0.79964 0.28359 0.0
H441 H 0.21684 0.76786 0.32784 0.0
H442 H 0.09827 0.75099 0.3478 0.0
H443 H 0.10783 0.69614 0.22564 0.0
H444 H 0.08316 0.73467 0.18583 0.0
O445 O 0.06667 0.83938 0.28753 0.0
C446 C 0.98005 0.82279 0.29319 0.0
C447 C 0.05731 0.77767 0.21222 0.0
C448 C 0.09177 0.72235 0.22939 0.0
N449 N 0.0647 0.76805 0.26155 0.0
C450 C 0.05085 0.78926 0.23976 0.0
C451 C 0.08478 0.73484 0.25665 0.0
C452 C 0.07794 0.74399 0.20706 0.0
C453 C 0.98362 0.80058 0.38252 0.0
N454 N 0.97723 0.82936 0.36369 0.0
C455 C 0.95294 0.78293 0.39635 0.0
C456 C 0.91542 0.79485 0.39074 0.0
C457 C 0.90905 0.82412 0.37146 0.0
C458 C 0.94044 0.84109 0.35804 0.0
C459 C 0.96951 0.95135 0.38109 0.0
C460 C 0.99584 0.92942 0.32891 0.0
C461 C 0.98556 0.91497 0.37668 0.0
N462 N 0.99832 0.90431 0.35079 0.0
C463 C 0.97993 0.96601 0.33254 0.0
C464 C 0.96667 0.97697 0.35883 0.0
C465 C 0.07493 0.87102 0.29983 0.0
C466 C 0.15843 0.75708 0.34057 0.0
C467 C 0.13681 0.79245 0.29137 0.0
C468 C 0.17586 0.78877 0.29778 0.0
C469 C 0.18668 0.77092 0.32258 0.0
N470 N 0.10912 0.77872 0.30906 0.0
C471 C 0.11965 0.76132 0.33345 0.0
C472 C 0.26188 0.08542 0.06013 0.0
C473 C 0.2814 0.05588 0.07432 0.0
C474 C 0.26218 0.0877 0.0309 0.0
C475 C 0.28225 0.05959 0.01525 0.0
C476 C 0.30119 0.02907 0.02931 0.0
C477 C 0.3006 0.02759 0.05869 0.0
C478 C 0.24155 0.12067 0.01681 0.0
C479 C 0.3226 0.99833 0.0133 0.0
C480 C 0.25573 0.04679 0.93878 0.0
C481 C 0.28595 0.06601 0.92515 0.0
C482 C 0.25418 0.04451 0.968 0.0
C483 C 0.28332 0.06225 0.98417 0.0
C484 C 0.31319 0.08287 0.97065 0.0
C485 C 0.31418 0.08447 0.94131 0.0
C486 C 0.22173 0.02241 0.98154 0.0
C487 C 0.34455 0.10257 0.9872 0.0
H488 H 0.24678 0.10738 0.07187 0.0
H489 H 0.31585 0.00474 0.0694 0.0
H490 H 0.26241 0.13802 0.0046 0.0
H491 H 0.2198 0.10942 0.00192 0.0
H492 H 0.22686 0.13991 0.03199 0.0
H493 H 0.33497 0.97598 0.02723 0.0
H494 H 0.30299 0.98417 0.99814 0.0
H495 H 0.34632 0.01161 0.00115 0.0
H496 H 0.23354 0.03268 0.92658 0.0
H497 H 0.33771 0.09927 0.93105 0.0
H498 H 0.20566 0.0414 0.99608 0.0
H499 H 0.23361 0.99831 0.99404 0.0
H500 H 0.20119 0.01044 0.96599 0.0
H501 H 0.33171 0.12328 0.0022 0.0
H502 H 0.36516 0.11827 0.97362 0.0
H503 H 0.36072 0.08095 0.99955 0.0
C504 C 0.04967 0.25048 0.56308 0.0
C505 C 0.07419 0.27623 0.57711 0.0
C506 C 0.0475 0.24981 0.53385 0.0
C507 C 0.07028 0.27562 0.51812 0.0
C508 C 0.09578 0.3011 0.53207 0.0
C509 C 0.09755 0.30101 0.56143 0.0
C510 C 0.02031 0.22186 0.51982 0.0
C511 C 0.12057 0.32905 0.516 0.0
C512 C 0.0898 0.25283 0.44183 0.0
C513 C 0.06366 0.27714 0.42805 0.0
C514 C 0.09201 0.25185 0.47106 0.0
C515 C 0.0675 0.27577 0.48705 0.0
C516 C 0.04034 0.29967 0.47335 0.0
C517 C 0.03867 0.30002 0.444 0.0
C518 C 0.12111 0.22568 0.4848 0.0
C519 C 0.01362 0.32551 0.48972 0.0
H520 H 0.03165 0.23105 0.575 0.0
H521 H 0.11634 0.32118 0.57208 0.0
H522 H 0.99846 0.23789 0.50758 0.0
H523 H 0.03638 0.20332 0.50496 0.0
H524 H 0.00517 0.20311 0.53504 0.0
H525 H 0.13931 0.34655 0.52989 0.0
H526 H 0.13903 0.31323 0.50096 0.0
H527 H 0.10203 0.34878 0.50371 0.0
H528 H 0.10913 0.23486 0.42975 0.0
H529 H 0.01857 0.31905 0.43356 0.0
H530 H 0.10643 0.2059 0.49952 0.0
H531 H 0.14186 0.24305 0.49714 0.0
H532 H 0.13745 0.20821 0.46938 0.0
H533 H 0.99635 0.30818 0.50458 0.0
H534 H 0.99366 0.34183 0.476 0.0
H535 H 0.03071 0.34633 0.50222 0.0
C536 C 0.8778 0.07258 0.94274 0.0
C537 C 0.84794 0.05159 0.93005 0.0
C538 C 0.87993 0.07657 0.97186 0.0
C539 C 0.85154 0.05913 0.98882 0.0
C540 C 0.82212 0.03671 0.97625 0.0
C541 C 0.82072 0.03313 0.94701 0.0
C542 C 0.912 0.10035 0.98441 0.0
C543 C 0.79146 0.01746 0.99366 0.0
C544 C 0.87264 0.04268 0.06568 0.0
C545 C 0.85226 0.07289 0.07848 0.0
C546 C 0.87298 0.03814 0.03659 0.0
C547 C 0.85254 0.0645 0.0197 0.0
C548 C 0.83281 0.09574 0.03235 0.0
C549 C 0.83292 0.09959 0.06161 0.0
C550 C 0.89455 0.00458 0.02398 0.0
C551 C 0.81085 0.12458 0.01499 0.0
H552 H 0.89915 0.08674 0.92986 0.0
H553 H 0.79743 0.01706 0.93743 0.0
H554 H 0.89972 0.12548 0.99562 0.0
H555 H 0.92819 0.08307 0.99994 0.0
H556 H 0.93251 0.111 0.96839 0.0
H557 H 0.77131 1.0 0.9808 0.0
H558 H 0.80495 0.99848 0.00949 0.0
H559 H 0.77464 0.03959 0.0051 0.0
H560 H 0.8879 0.02197 0.07845 0.0
H561 H 0.81699 0.1229 0.07127 0.0
H562 H 0.9158 0.01507 0.00847 0.0
H563 H 0.87416 0.98546 0.01273 0.0
H564 H 0.90996 0.9873 0.03996 0.0
H565 H 0.83022 0.13779 0.99928 0.0
H566 H 0.79798 0.14785 0.0279 0.0
H567 H 0.78745 0.10976 0.00341 0.0
C568 C 0.05623 0.87477 0.43859 0.0
C569 C 0.07422 0.8433 0.42552 0.0
C570 C 0.05237 0.87661 0.46773 0.0
C571 C 0.06715 0.84641 0.48437 0.0
C572 C 0.08677 0.81534 0.47145 0.0
C573 C 0.09006 0.81414 0.44219 0.0
C574 C 0.03149 0.91037 0.48064 0.0
C575 C 0.10332 0.78279 0.48851 0.0
C576 C 0.08557 0.86501 0.56142 0.0
C577 C 0.05379 0.84711 0.57412 0.0
C578 C 0.09008 0.86525 0.53233 0.0
C579 C 0.06203 0.84733 0.5153 0.0
C580 C 0.02931 0.8301 0.52784 0.0
C581 C 0.02558 0.83016 0.55711 0.0
C582 C 0.12534 0.88401 0.51986 0.0
C583 C 0.9986 0.81096 0.51033 0.0
H584 H 0.04417 0.89766 0.42598 0.0
H585 H 0.10387 0.78964 0.43236 0.0
H586 H 0.00553 0.90008 0.49186 0.0
H587 H 0.05023 0.92483 0.49622 0.0
H588 H 0.02243 0.93192 0.46483 0.0
H589 H 0.11897 0.76149 0.47543 0.0
H590 H 0.1234 0.79429 0.5045 0.0
H591 H 0.07982 0.76771 0.49974 0.0
H592 H 0.10753 0.87837 0.57426 0.0
H593 H 1.001 0.81617 0.56666 0.0
H594 H 0.11668 0.90646 0.50466 0.0
H595 H 0.14248 0.86226 0.5083 0.0
H596 H 0.14406 0.89748 0.53597 0.0
H597 H 0.98699 0.83166 0.49485 0.0
H598 H 0.97439 0.79988 0.52316 0.0
H599 H 0.0113 0.78661 0.49848 0.0
C600 C 0.48255 0.06889 0.1913 0.0
C601 C 0.46297 0.08005 0.16695 0.0
C602 C 0.52243 0.06227 0.19124 0.0
C603 C 0.54356 0.06671 0.16619 0.0
C604 C 0.52409 0.07806 0.14151 0.0
C605 C 0.48406 0.08476 0.1422 0.0
C606 C 0.54198 0.05069 0.21813 0.0
C607 C 0.54555 0.08298 0.11436 0.0
C608 C 0.6504 0.08647 0.17566 0.0
C609 C 0.66673 0.04968 0.17243 0.0
C610 C 0.61064 0.09252 0.17283 0.0
C611 C 0.58626 0.06111 0.16638 0.0
C612 C 0.60258 0.02412 0.16207 0.0
C613 C 0.64262 0.01881 0.16519 0.0
C614 C 0.59461 0.1324 0.17773 0.0
C615 C 0.57758 0.98993 0.15497 0.0
H616 H 0.46667 0.06526 0.21059 0.0
H617 H 0.46921 0.09303 0.12324 0.0
H618 H 0.55717 0.02286 0.2153 0.0
H619 H 0.56396 0.07249 0.22392 0.0
H620 H 0.52133 0.04775 0.2357 0.0
H621 H 0.52615 0.09102 0.09687 0.0
H622 H 0.56788 0.10561 0.11668 0.0
H623 H 0.56061 0.05584 0.10886 0.0
H624 H 0.66863 0.11073 0.18096 0.0
H625 H 0.65488 0.99034 0.16252 0.0
H626 H 0.57563 0.13218 0.19636 0.0
H627 H 0.57678 0.14148 0.15969 0.0
H628 H 0.61761 0.15416 0.18108 0.0
H629 H 0.55834 0.98335 0.17282 0.0
H630 H 0.59484 0.96385 0.15008 0.0
H631 H 0.55893 0.99666 0.1368 0.0
C632 C 0.041 0.4768 0.64386 0.0
C633 C 0.04555 0.45669 0.66904 0.0
C634 C 0.04748 0.51681 0.64245 0.0
C635 C 0.05836 0.53728 0.66685 0.0
C636 C 0.06249 0.51716 0.69236 0.0
C637 C 0.0562 0.47724 0.69311 0.0
C638 C 0.04298 0.53714 0.61483 0.0
C639 C 0.07345 0.53785 0.71897 0.0
C640 C 0.10632 0.63623 0.6641 0.0
C641 C 0.07528 0.66067 0.67025 0.0
C642 C 0.10106 0.59606 0.66192 0.0
C643 C 0.06397 0.57995 0.66617 0.0
C644 C 0.03242 0.60462 0.67156 0.0
C645 C 0.0384 0.6445 0.67337 0.0
C646 C 0.13538 0.57075 0.65586 0.0
C647 C 0.99245 0.58881 0.67641 0.0
H648 H 0.03314 0.46118 0.6251 0.0
H649 H 0.05972 0.46207 0.7127 0.0
H650 H 0.02037 0.55959 0.61646 0.0
H651 H 0.07025 0.55192 0.60926 0.0
H652 H 0.03515 0.51705 0.59767 0.0
H653 H 0.07586 0.51797 0.73703 0.0
H654 H 0.10141 0.55281 0.71622 0.0
H655 H 0.0516 0.56014 0.72394 0.0
H656 H 0.13486 0.64834 0.66152 0.0
H657 H 0.01403 0.66296 0.67786 0.0
H658 H 0.12902 0.55129 0.63805 0.0
H659 H 0.14156 0.55234 0.67422 0.0
H660 H 0.16158 0.58777 0.65091 0.0
H661 H 0.98364 0.57022 0.65868 0.0
H662 H 0.97065 0.61194 0.67905 0.0
H663 H 0.99237 0.57064 0.69544 0.0
C664 C 0.64756 0.0497 0.83227 0.0
C665 C 0.65695 0.0856 0.82064 0.0
C666 C 0.60901 0.03838 0.8359 0.0
C667 C 0.57897 0.06394 0.82845 0.0
C668 C 0.5883 0.10099 0.81803 0.0
C669 C 0.62713 0.11114 0.81386 0.0
C670 C 0.60049 0.99831 0.84641 0.0
C671 C 0.55721 0.12953 0.81054 0.0
C672 C 0.48051 0.02551 0.80706 0.0
C673 C 0.45892 0.03061 0.83152 0.0
C674 C 0.51983 0.03502 0.80611 0.0
C675 C 0.53787 0.05116 0.82996 0.0
C676 C 0.51633 0.05586 0.85487 0.0
C677 C 0.47724 0.04507 0.85545 0.0
C678 C 0.54187 0.02851 0.77935 0.0
C679 C 0.53413 0.07379 0.88054 0.0
H680 H 0.67034 0.02954 0.8373 0.0
H681 H 0.63415 0.13893 0.80493 0.0
H682 H 0.58082 0.99956 0.86462 0.0
H683 H 0.58565 0.98158 0.82983 0.0
H684 H 0.62702 0.9826 0.85259 0.0
H685 H 0.56916 0.15831 0.80532 0.0
H686 H 0.54067 0.1188 0.7923 0.0
H687 H 0.53665 0.13276 0.82811 0.0
H688 H 0.46646 0.01444 0.78848 0.0
H689 H 0.46055 0.04972 0.87428 0.0
H690 H 0.56835 0.01159 0.78356 0.0
H691 H 0.55101 0.05657 0.77053 0.0
H692 H 0.52446 0.01307 0.76341 0.0
H693 H 0.56041 0.05778 0.8867 0.0
H694 H 0.51394 0.0743 0.89852 0.0
H695 H 0.54304 0.10377 0.87585 0.0
C696 C 0.12054 0.50067 0.31242 0.0
C697 C 0.09545 0.471 0.32031 0.0
C698 C 0.11081 0.53957 0.31682 0.0
C699 C 0.07459 0.54911 0.32862 0.0
C700 C 0.04953 0.51922 0.33721 0.0
C701 C 0.06049 0.48061 0.33332 0.0
C702 C 0.13886 0.57049 0.30809 0.0
C703 C 0.01029 0.52797 0.3492 0.0
C704 C 0.05779 0.65123 0.35574 0.0
C705 C 0.04179 0.66927 0.33227 0.0
C706 C 0.06846 0.61212 0.35497 0.0
C707 C 0.06201 0.59026 0.33039 0.0
C708 C 0.04433 0.60803 0.30705 0.0
C709 C 0.03503 0.6474 0.30812 0.0
C710 C 0.08813 0.59464 0.38003 0.0
C711 C 0.0359 0.58564 0.28069 0.0
H712 H 0.14761 0.49349 0.30242 0.0
H713 H 0.04067 0.45793 0.33923 0.0
H714 H 0.12693 0.58675 0.29016 0.0
H715 H 0.14332 0.59132 0.32539 0.0
H716 H 0.16723 0.5584 0.3019 0.0
H717 H 0.995 0.50156 0.35613 0.0
H718 H 0.01285 0.5479 0.36721 0.0
H719 H 0.99241 0.54258 0.33319 0.0
H720 H 0.06372 0.66816 0.37429 0.0
H721 H 0.02277 0.66125 0.2899 0.0
H722 H 0.11773 0.5856 0.37426 0.0
H723 H 0.07252 0.56848 0.38694 0.0
H724 H 0.08994 0.61507 0.39785 0.0
H725 H 0.06328 0.57637 0.27085 0.0
H726 H 0.01935 0.60285 0.26528 0.0
H727 H 0.01928 0.55924 0.28569 0.0
C728 C 0.21617 0.31497 0.28607 0.0
C729 C 0.1793 0.30954 0.27489 0.0
C730 C 0.24754 0.29317 0.27641 0.0
C731 C 0.24179 0.26633 0.25453 0.0
C732 C 0.20577 0.26507 0.24057 0.0
C733 C 0.17473 0.28637 0.25122 0.0
C734 C 0.28527 0.29544 0.29194 0.0
C735 C 0.19864 0.23773 0.21655 0.0
C736 C 0.31765 0.20498 0.2191 0.0
C737 C 0.3082 0.16869 0.22979 0.0
C738 C 0.29842 0.23819 0.22844 0.0
C739 C 0.27008 0.23482 0.24951 0.0
C740 C 0.26442 0.19884 0.26289 0.0
C741 C 0.28315 0.16601 0.25251 0.0
C742 C 0.30523 0.27572 0.21343 0.0
C743 C 0.23534 0.19411 0.28606 0.0
H744 H 0.21954 0.33283 0.3045 0.0
H745 H 0.14606 0.28178 0.24284 0.0
H746 H 0.28697 0.27118 0.30694 0.0
H747 H 0.31006 0.29289 0.27748 0.0
H748 H 0.28787 0.32279 0.30387 0.0
H749 H 0.17169 0.24481 0.20515 0.0
H750 H 0.22304 0.23829 0.20161 0.0
H751 H 0.19612 0.20791 0.22464 0.0
H752 H 0.33698 0.20687 0.2014 0.0
H753 H 0.27548 0.13781 0.26046 0.0
H754 H 0.30409 0.30049 0.22805 0.0
H755 H 0.28224 0.27988 0.19762 0.0
H756 H 0.33344 0.27585 0.20249 0.0
H757 H 0.23817 0.21765 0.30161 0.0
H758 H 0.23859 0.16607 0.29695 0.0
H759 H 0.20584 0.19559 0.27721 0.0
C760 C 0.92411 0.31038 0.72277 0.0
C761 C 0.96073 0.30049 0.73267 0.0
C762 C 0.89109 0.29142 0.73267 0.0
C763 C 0.89507 0.26254 0.75327 0.0
C764 C 0.93161 0.25596 0.76564 0.0
C765 C 0.96414 0.27472 0.75489 0.0
C766 C 0.85287 0.29931 0.71884 0.0
C767 C 0.93709 0.22604 0.78814 0.0
C768 C 0.81583 0.20964 0.79148 0.0
C769 C 0.81901 0.17313 0.77926 0.0
C770 C 0.838 0.24065 0.78173 0.0
C771 C 0.86321 0.23488 0.75889 0.0
C772 C 0.86246 0.19934 0.74425 0.0
C773 C 0.84062 0.16868 0.75485 0.0
C774 C 0.83784 0.27788 0.798 0.0
C775 C 0.88823 0.19216 0.71937 0.0
H776 H 0.92167 0.33006 0.70531 0.0
H777 H 0.99261 0.26662 0.76214 0.0
H778 H 0.84708 0.27652 0.70312 0.0
H779 H 0.82905 0.29875 0.73425 0.0
H780 H 0.8528 0.32756 0.708 0.0
H781 H 0.9658 0.22836 0.79826 0.0
H782 H 0.91454 0.2288 0.80442 0.0
H783 H 0.93447 0.19686 0.77883 0.0
H784 H 0.79925 0.21291 0.81051 0.0
H785 H 0.84364 0.14024 0.74573 0.0
H786 H 0.84071 0.30307 0.78395 0.0
H787 H 0.86274 0.27813 0.81253 0.0
H788 H 0.81111 0.28105 0.81054 0.0
H789 H 0.88741 0.21693 0.70479 0.0
H790 H 0.87983 0.16569 0.70781 0.0
H791 H 0.91843 0.18875 0.72656 0.0
C792 C 0.90927 0.82602 0.29097 0.0
C793 C 0.94468 0.82995 0.2773 0.0
C794 C 0.87736 0.84838 0.28309 0.0
C795 C 0.88101 0.87444 0.26057 0.0
C796 C 0.91533 0.87458 0.24449 0.0
C797 C 0.947 0.85268 0.25332 0.0
C798 C 0.84163 0.84725 0.30095 0.0
C799 C 0.92016 0.90114 0.21981 0.0
C800 C 0.80379 0.93581 0.22712 0.0
C801 C 0.81514 0.9723 0.23648 0.0
C802 C 0.82258 0.9025 0.23671 0.0
C803 C 0.85261 0.90611 0.25654 0.0
C804 C 0.86006 0.94248 0.26892 0.0
C805 C 0.84149 0.97528 0.25845 0.0
C806 C 0.8135 0.86432 0.22318 0.0
C807 C 0.89108 0.94756 0.29074 0.0
H808 H 0.9076 0.80836 0.30955 0.0
H809 H 0.97459 0.85617 0.24304 0.0
H810 H 0.84338 0.87046 0.31686 0.0
H811 H 0.81525 0.8521 0.28839 0.0
H812 H 0.839 0.81934 0.31209 0.0
H813 H 0.94648 0.89439 0.20757 0.0
H814 H 0.89481 0.89926 0.20578 0.0
H815 H 0.92225 0.93133 0.2273 0.0
H816 H 0.78355 0.93364 0.20994 0.0
H817 H 0.85061 0.00361 0.2654 0.0
H818 H 0.81301 0.84092 0.2389 0.0
H819 H 0.83633 0.85727 0.2078 0.0
H820 H 0.7854 0.86495 0.21209 0.0
H821 H 0.88937 0.9245 0.30669 0.0
H822 H 0.889 0.97594 0.30138 0.0
H823 H 0.9198 0.94556 0.28067 0.0
C824 C 0.14921 0.83514 0.75511 0.0
C825 C 0.15224 0.80901 0.73298 0.0
C826 C 0.18205 0.85328 0.766 0.0
C827 C 0.21852 0.84569 0.75386 0.0
C828 C 0.22211 0.81594 0.73378 0.0
C829 C 0.18876 0.79752 0.72381 0.0
C830 C 0.177 0.88396 0.7881 0.0
C831 C 0.26034 0.8068 0.72042 0.0
C832 C 0.27343 0.93936 0.7522 0.0
C833 C 0.29605 0.93611 0.77621 0.0
C834 C 0.251 0.90827 0.74288 0.0
C835 C 0.25048 0.87361 0.75852 0.0
C836 C 0.27632 0.86904 0.78113 0.0
C837 C 0.29923 0.90036 0.78948 0.0
C838 C 0.22469 0.91407 0.71813 0.0
C839 C 0.27669 0.83293 0.79857 0.0
H840 H 0.12087 0.84438 0.7619 0.0
H841 H 0.19096 0.77747 0.70651 0.0
H842 H 0.19987 0.88178 0.80419 0.0
H843 H 0.17935 0.91282 0.77833 0.0
H844 H 0.14848 0.88192 0.7985 0.0
H845 H 0.25965 0.77882 0.70915 0.0
H846 H 0.2676 0.82974 0.7052 0.0
H847 H 0.28364 0.80605 0.73625 0.0
H848 H 0.27048 0.96721 0.74223 0.0
H849 H 0.31682 0.89796 0.80808 0.0
H850 H 0.19453 0.91681 0.72551 0.0
H851 H 0.226 0.88888 0.70389 0.0
H852 H 0.23215 0.94039 0.70614 0.0
H853 H 0.25318 0.83461 0.81421 0.0
H854 H 0.30436 0.82971 0.80999 0.0
H855 H 0.27176 0.80689 0.78562 0.0
C856 C 0.8806 0.00786 0.76232 0.0
C857 C 0.89224 0.0248 0.78763 0.0
C858 C 0.90589 0.98518 0.74644 0.0
C859 C 0.94424 0.97981 0.75563 0.0
C860 C 0.95687 0.99839 0.78038 0.0
C861 C 0.93066 0.02037 0.79623 0.0
C862 C 0.89093 0.96552 0.72045 0.0
C863 C 0.99776 0.99407 0.79059 0.0
C864 C 0.99067 0.88511 0.7349 0.0
C865 C 0.0124 0.89518 0.71125 0.0
C866 C 0.96894 0.91244 0.74957 0.0
C867 C 0.96946 0.95137 0.74098 0.0
C868 C 0.99224 0.96221 0.7177 0.0
C869 C 0.01317 0.93392 0.70292 0.0
C870 C 0.94469 0.89934 0.77397 0.0
C871 C 0.99422 0.0036 0.70829 0.0
H872 H 0.85127 0.01148 0.75509 0.0
H873 H 0.94023 0.03381 0.81546 0.0
H874 H 0.90984 0.97192 0.70241 0.0
H875 H 0.89121 0.93385 0.72351 0.0
H876 H 0.86108 0.97449 0.71519 0.0
H877 H 0.00444 0.01418 0.808 0.0
H878 H 1.00245 0.96419 0.798 0.0
H879 H 0.01836 0.99929 0.77331 0.0
H880 H 0.99016 0.85552 0.74198 0.0
H881 H 0.03025 0.9422 0.68498 0.0
H882 H 0.91389 0.90566 0.76982 0.0
H883 H 0.95296 0.91535 0.79311 0.0
H884 H 0.94771 0.86802 0.77812 0.0
H885 H 0.96556 0.01299 0.70067 0.0
H886 H 0.01558 0.00788 0.69132 0.0
H887 H 1.00196 0.02252 0.72612 0.0
C888 C 0.23853 1.00034 0.23433 0.0
C889 C 0.22857 0.02288 0.21108 0.0
C890 C 0.21109 0.9781 0.24847 0.0
C891 C 0.17209 0.97931 0.23997 0.0
C892 C 0.16133 0.0032 0.21727 0.0
C893 C 0.18977 0.02427 0.20282 0.0
C894 C 0.22417 0.95246 0.2721 0.0
C895 C 0.11985 0.00631 0.20815 0.0
C896 C 0.11356 0.89031 0.25789 0.0
C897 C 0.09727 0.90025 0.28378 0.0
C898 C 0.13705 0.91608 0.24315 0.0
C899 C 0.14345 0.95352 0.25388 0.0
C900 C 0.12529 0.96468 0.27914 0.0
C901 C 0.10285 0.93777 0.294 0.0
C902 C 0.15643 0.90252 0.21666 0.0
C903 C 0.1303 0.00475 0.29084 0.0
H904 H 0.2681 0.99953 0.24143 0.0
H905 H 0.18154 0.04207 0.18525 0.0
H906 H 0.20868 0.9601 0.29157 0.0
H907 H 0.21715 0.922 0.2672 0.0
H908 H 0.25562 0.95468 0.27605 0.0
H909 H 0.11561 0.02901 0.19214 0.0
H910 H 0.1101 0.97841 0.19934 0.0
H911 H 0.10119 0.01279 0.22636 0.0
H912 H 0.10882 0.86186 0.24929 0.0
H913 H 0.08985 0.94613 0.31366 0.0
H914 H 0.18815 0.90283 0.21953 0.0
H915 H 0.14966 0.92229 0.19919 0.0
H916 H 0.14751 0.87293 0.21062 0.0
H917 H 0.16023 0.00844 0.29849 0.0
H918 H 0.11025 0.01058 0.30841 0.0
H919 H 0.12548 0.02656 0.27431 0.0
C920 C 0.1044 0.18435 0.70505 0.0
C921 C 0.1067 0.2232 0.71308 0.0
C922 C 0.12541 0.15573 0.71933 0.0
C923 C 0.1502 0.16634 0.7416 0.0
C924 C 0.15243 0.20543 0.74983 0.0
C925 C 0.13021 0.2331 0.73588 0.0
C926 C 0.12126 0.11421 0.71049 0.0
C927 C 0.17908 0.21831 0.77298 0.0
C928 C 0.19137 0.09636 0.79524 0.0
C929 C 0.22842 0.08968 0.78454 0.0
C930 C 0.16474 0.11957 0.78076 0.0
C931 C 0.17572 0.13735 0.75534 0.0
C932 C 0.21267 0.1299 0.74414 0.0
C933 C 0.23816 0.10572 0.75856 0.0
C934 C 0.12516 0.12578 0.79296 0.0
C935 C 0.22601 0.14876 0.71744 0.0
H936 H 0.08587 0.17619 0.68782 0.0
H937 H 0.13177 0.26274 0.74276 0.0
H938 H 0.14878 0.10375 0.7015 0.0
H939 H 0.11474 0.09594 0.72887 0.0
H940 H 0.09815 0.11022 0.6947 0.0
H941 H 0.1776 0.24985 0.77676 0.0
H942 H 0.17175 0.20324 0.79266 0.0
H943 H 0.20923 0.21062 0.76768 0.0
H944 H 0.18317 0.08361 0.815 0.0
H945 H 0.26625 0.10019 0.74961 0.0
H946 H 0.10275 0.12107 0.77679 0.0
H947 H 0.12238 0.15595 0.8003 0.0
H948 H 0.11939 0.10628 0.81084 0.0
H949 H 0.20565 0.14232 0.70022 0.0
H950 H 0.25524 0.13913 0.71109 0.0
H951 H 0.2265 0.1805 0.72021 0.0
C952 C 0.02766 0.19757 0.29747 0.0
C953 C 0.03073 0.2362 0.28916 0.0
C954 C 0.00498 0.17122 0.28225 0.0
C955 C 0.98434 0.1839 0.25844 0.0
C956 C 0.98805 0.22259 0.24962 0.0
C957 C 0.01142 0.24805 0.26485 0.0
C958 C 1.00239 0.13002 0.29205 0.0
C959 C 0.96619 0.23757 0.22462 0.0
C960 C 0.93847 0.11453 0.20602 0.0
C961 C 0.90013 0.11369 0.2153 0.0
C962 C 0.96664 0.13619 0.22034 0.0
C963 C 0.95608 0.15801 0.2442 0.0
C964 C 0.91758 0.15684 0.25381 0.0
C965 C 0.89036 0.13448 0.2395 0.0
C966 C 0.00757 0.13609 0.20978 0.0
C967 C 0.90482 0.17997 0.2789 0.0
H968 H 0.04286 0.18788 0.31593 0.0
H969 H 0.0139 0.27759 0.25787 0.0
H970 H 0.97295 0.12414 0.29994 0.0
H971 H 0.00768 0.10998 0.2744 0.0
H972 H 0.02333 0.12367 0.30896 0.0
H973 H 0.9736 0.26792 0.21968 0.0
H974 H 0.97228 0.21954 0.20601 0.0
H975 H 0.93477 0.23582 0.22867 0.0
H976 H 0.94653 0.09823 0.18761 0.0
H977 H 0.86108 0.13377 0.24726 0.0
H978 H 0.02767 0.12864 0.22696 0.0
H979 H 0.01545 0.1653 0.2024 0.0
H980 H 0.01181 0.11538 0.19235 0.0
H981 H 0.92223 0.17204 0.29743 0.0
H982 H 0.87391 0.17549 0.28393 0.0
H983 H 0.90957 0.2111 0.27499 0.0
loop_
_geom_bond_atom_site_label_1
_geom_bond_atom_site_label_2
_geom_bond_distance
_geom_bond_site_symmetry_2
_ccdc_geom_bond_type
Co0 O2 2.143 . S
Co0 O8 2.074 . S
Co0 O11 2.093 . S
Co0 O24 2.097 . S
Co0 N41 2.151 . S
Co0 N49 2.214 . S
Co1 O2 2.160 . S
Co1 O7 2.058 . S
Co1 O17 2.057 . S
Co1 O32 2.037 . S
Co1 N36 2.145 . S
Co1 N57 2.257 . S
O2 Co0 2.143 . S
O2 Co1 2.160 . S
C3 O4 1.278 . S
C3 O11 1.224 . S
O4 C3 1.278 . S
C5 O6 1.245 . S
C5 O17 1.232 . S
O6 C5 1.245 . S
O7 Co1 2.058 . S
O7 C33 1.269 . S
O8 Co0 2.074 . S
O8 C33 1.257 . S
H9 C34 0.930 . S
H10 C40 0.930 . S
O11 Co0 2.093 . S
O11 C3 1.224 . S
H12 C44 0.929 . S
H13 C46 0.930 . S
H14 C47 0.930 . S
H15 C45 0.929 . S
H16 C48 0.928 . S
O17 Co1 2.057 . S
O17 C5 1.232 . S
H18 C37 0.929 . S
H19 C38 0.929 . S
H20 C50 0.931 . S
H21 C42 0.929 . S
H22 C51 0.930 . S
H23 C43 0.931 . S
O24 Co0 2.097 . S
O24 C52 1.214 . S
H25 C53 0.929 . S
H26 C54 0.929 . S
H27 C55 0.930 . S
H28 C56 0.929 . S
H29 C58 0.930 . S
H30 C35 0.930 . S
H31 C39 0.946 . S
O32 Co1 2.037 . S
O32 C52 1.234 . S
C33 O7 1.269 . S
C33 O8 1.257 . S
C34 H9 0.930 . S
C34 C37 1.388 . S
C34 C39 1.418 . S
C35 H30 0.930 . S
C35 C38 1.404 . S
C35 C39 1.353 . S
N36 Co1 2.145 . S
N36 C37 1.397 . S
N36 C38 1.334 . S
C37 H18 0.929 . S
C37 C34 1.388 . S
C37 N36 1.397 . S
C38 H19 0.929 . S
C38 C35 1.404 . S
C38 N36 1.334 . S
C39 H31 0.946 . S
C39 C34 1.418 . S
C39 C35 1.353 . S
C40 H10 0.930 . S
C40 N41 1.330 . S
C40 C42 1.446 . S
N41 Co0 2.151 . S
N41 C40 1.330 . S
N41 C45 1.418 . S
C42 H21 0.929 . S
C42 C40 1.446 . S
C42 C43 1.332 . S
C43 H23 0.931 . S
C43 C42 1.332 . S
C43 C44 1.267 . S
C44 H12 0.929 . S
C44 C43 1.267 . S
C44 C45 1.251 . S
C45 H15 0.929 . S
C45 N41 1.418 . S
C45 C44 1.251 . S
C46 H13 0.930 . S
C46 C48 1.406 . S
C46 C51 1.261 . S
C47 H14 0.930 . S
C47 N49 1.325 . S
C47 C50 1.357 . S
C48 H16 0.928 . S
C48 C46 1.406 . S
C48 N49 1.261 . S
N49 Co0 2.214 . S
N49 C47 1.325 . S
N49 C48 1.261 . S
C50 H20 0.931 . S
C50 C47 1.357 . S
C50 C51 1.312 . S
C51 H22 0.930 . S
C51 C46 1.261 . S
C51 C50 1.312 . S
C52 O24 1.214 . S
C52 O32 1.234 . S
C53 H25 0.929 . S
C53 C56 1.391 . S
C53 C58 1.391 1_565 S
C54 H26 0.929 . S
C54 C55 1.390 . S
C54 N57 1.391 1_565 S
C55 H27 0.930 . S
C55 C54 1.390 . S
C55 C56 1.392 . S
C56 H28 0.929 . S
C56 C53 1.391 . S
C56 C55 1.392 . S
N57 Co1 2.257 . S
N57 C54 1.391 1_545 S
N57 C58 1.388 . S
C58 H29 0.930 . S
C58 C53 1.391 1_545 S
C58 N57 1.388 . S
Co59 O61 2.143 . S
Co59 O67 2.074 1_455 S
Co59 O70 2.093 . S
Co59 O83 2.097 . S
Co59 N100 2.151 1_455 S
Co59 N108 2.214 . S
Co60 O61 2.160 . S
Co60 O66 2.058 . S
Co60 O76 2.057 . S
Co60 O91 2.037 . S
Co60 N95 2.145 . S
Co60 N116 2.257 . S
O61 Co59 2.143 . S
O61 Co60 2.160 . S
C62 O63 1.278 . S
C62 O70 1.224 . S
O63 C62 1.278 . S
C64 O65 1.245 . S
C64 O76 1.232 . S
O65 C64 1.245 . S
O66 Co60 2.058 . S
O66 C92 1.269 1_455 S
O67 Co59 2.074 1_655 S
O67 C92 1.257 . S
H68 C93 0.930 . S
H69 C99 0.930 . S
O70 Co59 2.093 . S
O70 C62 1.224 . S
H71 C103 0.929 . S
H72 C105 0.930 . S
H73 C106 0.930 . S
H74 C104 0.929 . S
H75 C107 0.928 . S
O76 Co60 2.057 . S
O76 C64 1.232 . S
H77 C96 0.929 . S
H78 C97 0.929 . S
H79 C109 0.931 1_455 S
H80 C101 0.929 . S
H81 C110 0.930 . S
H82 C102 0.931 . S
O83 Co59 2.097 . S
O83 C111 1.214 . S
H84 C112 0.929 . S
H85 C113 0.929 . S
H86 C114 0.930 . S
H87 C115 0.929 . S
H88 C117 0.930 . S
H89 C94 0.930 . S
H90 C98 0.930 . S
O91 Co60 2.037 . S
O91 C111 1.234 . S
C92 O66 1.269 1_655 S
C92 O67 1.257 . S
C93 H68 0.930 . S
C93 C96 1.388 . S
C93 C98 1.418 . S
C94 H89 0.930 . S
C94 C97 1.404 . S
C94 C98 1.353 . S
N95 Co60 2.145 . S
N95 C96 1.397 . S
N95 C97 1.334 . S
C96 H77 0.929 . S
C96 C93 1.388 . S
C96 N95 1.397 . S
C97 H78 0.929 . S
C97 C94 1.404 . S
C97 N95 1.334 . S
C98 H90 0.930 . S
C98 C93 1.418 . S
C98 C94 1.353 . S
C99 H69 0.930 . S
C99 N100 1.330 . S
C99 C101 1.446 . S
N100 Co59 2.151 1_655 S
N100 C99 1.330 . S
N100 C104 1.418 . S
C101 H80 0.929 . S
C101 C99 1.446 . S
C101 C102 1.332 . S
C102 H82 0.931 . S
C102 C101 1.332 . S
C102 C103 1.267 . S
C103 H71 0.929 . S
C103 C102 1.267 . S
C103 C104 1.251 . S
C104 H74 0.929 . S
C104 N100 1.418 . S
C104 C103 1.251 . S
C105 H72 0.930 . S
C105 C107 1.406 . S
C105 C110 1.261 . S
C106 H73 0.930 . S
C106 N108 1.325 . S
C106 C109 1.357 1_455 S
C107 H75 0.928 . S
C107 C105 1.406 . S
C107 N108 1.261 1_655 S
N108 Co59 2.214 . S
N108 C106 1.325 . S
N108 C107 1.261 1_455 S
C109 H79 0.931 1_655 S
C109 C106 1.357 1_655 S
C109 C110 1.312 . S
C110 H81 0.930 . S
C110 C105 1.261 . S
C110 C109 1.312 . S
C111 O83 1.214 . S
C111 O91 1.234 . S
C112 H84 0.929 . S
C112 C115 1.391 . S
C112 C117 1.391 . S
C113 H85 0.929 . S
C113 C114 1.390 . S
C113 N116 1.391 . S
C114 H86 0.930 . S
C114 C113 1.390 . S
C114 C115 1.392 . S
C115 H87 0.929 . S
C115 C112 1.391 . S
C115 C114 1.392 . S
N116 Co60 2.257 . S
N116 C113 1.391 . S
N116 C117 1.388 . S
C117 H88 0.930 . S
C117 C112 1.391 . S
C117 N116 1.388 . S
Co118 O120 2.143 . S
Co118 O126 2.074 1_545 S
Co118 O129 2.093 . S
Co118 O142 2.097 . S
Co118 N159 2.151 1_545 S
Co118 N167 2.214 . S
Co119 O120 2.160 . S
Co119 O125 2.058 . S
Co119 O135 2.057 . S
Co119 O150 2.037 . S
Co119 N154 2.145 . S
Co119 N175 2.257 . S
O120 Co118 2.143 . S
O120 Co119 2.160 . S
C121 O122 1.278 . S
C121 O129 1.224 . S
O122 C121 1.278 . S
C123 O124 1.245 . S
C123 O135 1.232 . S
O124 C123 1.245 . S
O125 Co119 2.058 . S
O125 C151 1.269 1_545 S
O126 Co118 2.074 1_565 S
O126 C151 1.257 . S
H127 C152 0.930 . S
H128 C158 0.930 . S
O129 Co118 2.093 . S
O129 C121 1.224 . S
H130 C162 0.929 . S
H131 C164 0.930 . S
H132 C165 0.930 . S
H133 C163 0.929 . S
H134 C166 0.928 . S
O135 Co119 2.057 . S
O135 C123 1.232 . S
H136 C155 0.929 . S
H137 C156 0.929 . S
H138 C168 0.931 1_545 S
H139 C160 0.929 . S
H140 C169 0.931 1_455 S
H141 C161 0.931 . S
O142 Co118 2.097 . S
O142 C170 1.214 . S
H143 C171 0.929 . S
H144 C172 0.929 . S
H145 C173 0.930 . S
H146 C174 0.929 . S
H147 C176 0.930 . S
H148 C153 0.930 . S
H149 C157 0.930 . S
O150 Co119 2.037 . S
O150 C170 1.234 . S
C151 O125 1.269 1_565 S
C151 O126 1.257 . S
C152 H127 0.930 . S
C152 C155 1.388 . S
C152 C157 1.418 . S
C153 H148 0.930 . S
C153 C156 1.404 . S
C153 C157 1.353 . S
N154 Co119 2.145 . S
N154 C155 1.397 . S
N154 C156 1.334 . S
C155 H136 0.929 . S
C155 C152 1.388 . S
C155 N154 1.397 . S
C156 H137 0.929 . S
C156 C153 1.404 . S
C156 N154 1.334 . S
C157 H149 0.930 . S
C157 C152 1.418 . S
C157 C153 1.353 . S
C158 H128 0.930 . S
C158 N159 1.330 . S
C158 C160 1.446 . S
N159 Co118 2.151 1_565 S
N159 C158 1.330 . S
N159 C163 1.418 . S
C160 H139 0.929 . S
C160 C158 1.446 . S
C160 C161 1.332 . S
C161 H141 0.931 . S
C161 C160 1.332 . S
C161 C162 1.267 . S
C162 H130 0.929 . S
C162 C161 1.267 . S
C162 C163 1.251 . S
C163 H133 0.929 . S
C163 N159 1.418 . S
C163 C162 1.251 . S
C164 H131 0.930 . S
C164 C166 1.406 . S
C164 C169 1.261 . S
C165 H132 0.930 . S
C165 N167 1.325 . S
C165 C168 1.357 1_545 S
C166 H134 0.928 . S
C166 C164 1.406 . S
C166 N167 1.261 1_565 S
N167 Co118 2.214 . S
N167 C165 1.325 . S
N167 C166 1.261 1_545 S
C168 H138 0.931 1_565 S
C168 C165 1.357 1_565 S
C168 C169 1.312 . S
C169 H140 0.931 1_655 S
C169 C164 1.261 . S
C169 C168 1.312 . S
C170 O142 1.214 . S
C170 O150 1.234 . S
C171 H143 0.929 . S
C171 C174 1.391 . S
C171 C176 1.391 . S
C172 H144 0.929 . S
C172 C173 1.390 . S
C172 N175 1.391 . S
C173 H145 0.930 . S
C173 C172 1.390 . S
C173 C174 1.392 . S
C174 H146 0.929 . S
C174 C171 1.391 . S
C174 C173 1.392 . S
N175 Co119 2.257 . S
N175 C172 1.391 . S
N175 C176 1.388 . S
C176 H147 0.930 . S
C176 C171 1.391 . S
C176 N175 1.388 . S
Co177 O179 2.143 . S
Co177 O185 2.074 . S
Co177 O188 2.093 . S
Co177 O201 2.097 . S
Co177 N218 2.151 . S
Co177 N226 2.214 . S
Co178 O179 2.160 . S
Co178 O184 2.058 . S
Co178 O194 2.057 . S
Co178 O209 2.037 . S
Co178 N213 2.145 . S
Co178 N234 2.257 . S
O179 Co177 2.143 . S
O179 Co178 2.160 . S
C180 O181 1.278 . S
C180 O188 1.224 . S
O181 C180 1.278 . S
C182 O183 1.245 . S
C182 O194 1.232 . S
O183 C182 1.245 . S
O184 Co178 2.058 . S
O184 C210 1.269 . S
O185 Co177 2.074 . S
O185 C210 1.257 . S
H186 C211 0.930 . S
H187 C217 0.930 . S
O188 Co177 2.093 . S
O188 C180 1.224 . S
H189 C221 0.929 . S
H190 C223 0.930 . S
H191 C224 0.930 . S
H192 C222 0.929 . S
H193 C225 0.928 . S
O194 Co178 2.057 . S
O194 C182 1.232 . S
H195 C214 0.929 . S
H196 C215 0.929 . S
H197 C227 0.931 . S
H198 C219 0.929 . S
H199 C228 0.931 1_545 S
H200 C220 0.931 . S
O201 Co177 2.097 . S
O201 C229 1.214 . S
H202 C230 0.929 . S
H203 C231 0.929 . S
H204 C232 0.930 . S
H205 C233 0.929 . S
H206 C235 0.930 . S
H207 C212 0.930 . S
H208 C216 0.946 . S
O209 Co178 2.037 . S
O209 C229 1.234 . S
C210 O184 1.269 . S
C210 O185 1.257 . S
C211 H186 0.930 . S
C211 C214 1.388 . S
C211 C216 1.418 . S
C212 H207 0.930 . S
C212 C215 1.404 . S
C212 C216 1.353 . S
N213 Co178 2.145 . S
N213 C214 1.397 . S
N213 C215 1.334 . S
C214 H195 0.929 . S
C214 C211 1.388 . S
C214 N213 1.397 . S
C215 H196 0.929 . S
C215 C212 1.404 . S
C215 N213 1.334 . S
C216 H208 0.946 . S
C216 C211 1.418 . S
C216 C212 1.353 . S
C217 H187 0.930 . S
C217 N218 1.330 . S
C217 C219 1.446 . S
N218 Co177 2.151 . S
N218 C217 1.330 . S
N218 C222 1.418 . S
C219 H198 0.929 . S
C219 C217 1.446 . S
C219 C220 1.332 . S
C220 H200 0.931 . S
C220 C219 1.332 . S
C220 C221 1.267 . S
C221 H189 0.929 . S
C221 C220 1.267 . S
C221 C222 1.251 . S
C222 H192 0.929 . S
C222 N218 1.418 . S
C222 C221 1.251 . S
C223 H190 0.930 . S
C223 C225 1.406 . S
C223 C228 1.261 . S
C224 H191 0.930 . S
C224 N226 1.325 . S
C224 C227 1.357 . S
C225 H193 0.928 . S
C225 C223 1.406 . S
C225 N226 1.261 . S
N226 Co177 2.214 . S
N226 C224 1.325 . S
N226 C225 1.261 . S
C227 H197 0.931 . S
C227 C224 1.357 . S
C227 C228 1.312 . S
C228 H199 0.931 1_565 S
C228 C223 1.261 . S
C228 C227 1.312 . S
C229 O201 1.214 . S
C229 O209 1.234 . S
C230 H202 0.929 . S
C230 C233 1.391 . S
C230 C235 1.391 1_655 S
C231 H203 0.929 . S
C231 C232 1.390 . S
C231 N234 1.391 1_655 S
C232 H204 0.930 . S
C232 C231 1.390 . S
C232 C233 1.392 . S
C233 H205 0.929 . S
C233 C230 1.391 . S
C233 C232 1.392 . S
N234 Co178 2.257 . S
N234 C231 1.391 1_455 S
N234 C235 1.388 . S
C235 H206 0.930 . S
C235 C230 1.391 1_455 S
C235 N234 1.388 . S
Co236 O238 2.143 . S
Co236 O244 2.074 1_545 S
Co236 O247 2.093 . S
Co236 O260 2.097 . S
Co236 N277 2.151 1_545 S
Co236 N285 2.214 . S
Co237 O238 2.160 . S
Co237 O243 2.058 . S
Co237 O253 2.057 . S
Co237 O268 2.037 . S
Co237 N272 2.145 . S
Co237 N293 2.257 . S
O238 Co236 2.143 . S
O238 Co237 2.160 . S
C239 O240 1.278 . S
C239 O247 1.224 . S
O240 C239 1.278 . S
C241 O242 1.245 . S
C241 O253 1.232 . S
O242 C241 1.245 . S
O243 Co237 2.058 . S
O243 C269 1.269 1_545 S
O244 Co236 2.074 1_565 S
O244 C269 1.257 . S
H245 C270 0.930 . S
H246 C276 0.930 . S
O247 Co236 2.093 . S
O247 C239 1.224 . S
H248 C280 0.929 . S
H249 C282 0.930 . S
H250 C283 0.930 . S
H251 C281 0.929 . S
H252 C284 0.928 . S
O253 Co237 2.057 . S
O253 C241 1.232 . S
H254 C273 0.929 . S
H255 C274 0.929 . S
H256 C286 0.931 1_545 S
H257 C278 0.929 . S
H258 C287 0.930 . S
H259 C279 0.931 . S
O260 Co236 2.097 . S
O260 C288 1.214 . S
H261 C289 0.929 . S
H262 C290 0.929 . S
H263 C291 0.930 . S
H264 C292 0.929 . S
H265 C294 0.930 . S
H266 C271 0.930 . S
H267 C275 0.930 . S
O268 Co237 2.037 . S
O268 C288 1.234 . S
C269 O243 1.269 1_565 S
C269 O244 1.257 . S
C270 H245 0.930 . S
C270 C273 1.388 . S
C270 C275 1.418 . S
C271 H266 0.930 . S
C271 C274 1.404 . S
C271 C275 1.353 . S
N272 Co237 2.145 . S
N272 C273 1.397 . S
N272 C274 1.334 . S
C273 H254 0.929 . S
C273 C270 1.388 . S
C273 N272 1.397 . S
C274 H255 0.929 . S
C274 C271 1.404 . S
C274 N272 1.334 . S
C275 H267 0.930 . S
C275 C270 1.418 . S
C275 C271 1.353 . S
C276 H246 0.930 . S
C276 N277 1.330 . S
C276 C278 1.446 . S
N277 Co236 2.151 1_565 S
N277 C276 1.330 . S
N277 C281 1.418 . S
C278 H257 0.929 . S
C278 C276 1.446 . S
C278 C279 1.332 . S
C279 H259 0.931 . S
C279 C278 1.332 . S
C279 C280 1.267 . S
C280 H248 0.929 . S
C280 C279 1.267 . S
C280 C281 1.251 . S
C281 H251 0.929 . S
C281 N277 1.418 . S
C281 C280 1.251 . S
C282 H249 0.930 . S
C282 C284 1.406 . S
C282 C287 1.261 . S
C283 H250 0.930 . S
C283 N285 1.325 . S
C283 C286 1.357 1_545 S
C284 H252 0.928 . S
C284 C282 1.406 . S
C284 N285 1.261 1_565 S
N285 Co236 2.214 . S
N285 C283 1.325 . S
N285 C284 1.261 1_545 S
C286 H256 0.931 1_565 S
C286 C283 1.357 1_565 S
C286 C287 1.312 . S
C287 H258 0.930 . S
C287 C282 1.261 . S
C287 C286 1.312 . S
C288 O260 1.214 . S
C288 O268 1.234 . S
C289 H261 0.929 . S
C289 C292 1.391 . S
C289 C294 1.391 . S
C290 H262 0.929 . S
C290 C291 1.390 . S
C290 N293 1.391 . S
C291 H263 0.930 . S
C291 C290 1.390 . S
C291 C292 1.392 . S
C292 H264 0.929 . S
C292 C289 1.391 . S
C292 C291 1.392 . S
N293 Co237 2.257 . S
N293 C290 1.391 . S
N293 C294 1.388 . S
C294 H265 0.930 . S
C294 C289 1.391 . S
C294 N293 1.388 . S
Co295 O297 2.143 . S
Co295 O303 2.074 . S
Co295 O306 2.093 . S
Co295 O319 2.097 . S
Co295 N336 2.151 . S
Co295 N344 2.214 . S
Co296 O297 2.160 . S
Co296 O302 2.058 . S
Co296 O312 2.057 . S
Co296 O327 2.037 . S
Co296 N331 2.145 . S
Co296 N352 2.257 . S
O297 Co295 2.143 . S
O297 Co296 2.160 . S
C298 O299 1.278 . S
C298 O306 1.224 . S
O299 C298 1.278 . S
C300 O301 1.245 . S
C300 O312 1.232 . S
O301 C300 1.245 . S
O302 Co296 2.058 . S
O302 C328 1.269 . S
O303 Co295 2.074 . S
O303 C328 1.257 . S
H304 C329 0.930 . S
H305 C335 0.930 . S
O306 Co295 2.093 . S
O306 C298 1.224 . S
H307 C339 0.929 . S
H308 C341 0.930 . S
H309 C342 0.930 . S
H310 C340 0.929 . S
H311 C343 0.928 . S
O312 Co296 2.057 . S
O312 C300 1.232 . S
H313 C332 0.929 . S
H314 C333 0.929 . S
H315 C345 0.931 . S
H316 C337 0.929 . S
H317 C346 0.930 . S
H318 C338 0.931 . S
O319 Co295 2.097 . S
O319 C347 1.214 . S
H320 C348 0.929 . S
H321 C349 0.929 . S
H322 C350 0.930 . S
H323 C351 0.929 . S
H324 C353 0.930 . S
H325 C330 0.930 . S
H326 C334 0.946 . S
O327 Co296 2.037 . S
O327 C347 1.234 . S
C328 O302 1.269 . S
C328 O303 1.257 . S
C329 H304 0.930 . S
C329 C332 1.388 . S
C329 C334 1.418 . S
C330 H325 0.930 . S
C330 C333 1.404 . S
C330 C334 1.353 . S
N331 Co296 2.145 . S
N331 C332 1.397 . S
N331 C333 1.334 . S
C332 H313 0.929 . S
C332 C329 1.388 . S
C332 N331 1.397 . S
C333 H314 0.929 . S
C333 C330 1.404 . S
C333 N331 1.334 . S
C334 H326 0.946 . S
C334 C329 1.418 . S
C334 C330 1.353 . S
C335 H305 0.930 . S
C335 N336 1.330 . S
C335 C337 1.446 . S
N336 Co295 2.151 . S
N336 C335 1.330 . S
N336 C340 1.418 . S
C337 H316 0.929 . S
C337 C335 1.446 . S
C337 C338 1.332 . S
C338 H318 0.931 . S
C338 C337 1.332 . S
C338 C339 1.267 . S
C339 H307 0.929 . S
C339 C338 1.267 . S
C339 C340 1.251 . S
C340 H310 0.929 . S
C340 N336 1.418 . S
C340 C339 1.251 . S
C341 H308 0.930 . S
C341 C343 1.406 . S
C341 C346 1.261 . S
C342 H309 0.930 . S
C342 N344 1.325 . S
C342 C345 1.357 . S
C343 H311 0.928 . S
C343 C341 1.406 . S
C343 N344 1.261 . S
N344 Co295 2.214 . S
N344 C342 1.325 . S
N344 C343 1.261 . S
C345 H315 0.931 . S
C345 C342 1.357 . S
C345 C346 1.312 . S
C346 H317 0.930 . S
C346 C341 1.261 . S
C346 C345 1.312 . S
C347 O319 1.214 . S
C347 O327 1.234 . S
C348 H320 0.929 . S
C348 C351 1.391 . S
C348 C353 1.391 1_655 S
C349 H321 0.929 . S
C349 C350 1.390 . S
C349 N352 1.391 1_655 S
C350 H322 0.930 . S
C350 C349 1.390 . S
C350 C351 1.392 . S
C351 H323 0.929 . S
C351 C348 1.391 . S
C351 C350 1.392 . S
N352 Co296 2.257 . S
N352 C349 1.391 1_455 S
N352 C353 1.388 . S
C353 H324 0.930 . S
C353 C348 1.391 1_455 S
C353 N352 1.388 . S
Co354 O356 2.143 . S
Co354 O362 2.074 . S
Co354 O365 2.093 . S
Co354 O378 2.097 . S
Co354 N395 2.151 . S
Co354 N403 2.214 . S
Co355 O356 2.160 . S
Co355 O361 2.058 . S
Co355 O371 2.057 . S
Co355 O386 2.037 . S
Co355 N390 2.145 . S
Co355 N411 2.257 . S
O356 Co354 2.143 . S
O356 Co355 2.160 . S
C357 O358 1.278 . S
C357 O365 1.224 . S
O358 C357 1.278 . S
C359 O360 1.245 . S
C359 O371 1.232 . S
O360 C359 1.245 . S
O361 Co355 2.058 . S
O361 C387 1.269 . S
O362 Co354 2.074 . S
O362 C387 1.257 . S
H363 C388 0.930 . S
H364 C394 0.930 . S
O365 Co354 2.093 . S
O365 C357 1.224 . S
H366 C398 0.929 . S
H367 C400 0.930 . S
H368 C401 0.930 . S
H369 C399 0.929 . S
H370 C402 0.928 . S
O371 Co355 2.057 . S
O371 C359 1.232 . S
H372 C391 0.929 . S
H373 C392 0.929 . S
H374 C404 0.931 . S
H375 C396 0.929 . S
H376 C405 0.931 1_455 S
H377 C397 0.931 . S
O378 Co354 2.097 . S
O378 C406 1.214 . S
H379 C407 0.929 . S
H380 C408 0.929 . S
H381 C409 0.930 . S
H382 C410 0.929 . S
H383 C412 0.930 . S
H384 C389 0.930 . S
H385 C393 0.946 . S
O386 Co355 2.037 . S
O386 C406 1.234 . S
C387 O361 1.269 . S
C387 O362 1.257 . S
C388 H363 0.930 . S
C388 C391 1.388 . S
C388 C393 1.418 . S
C389 H384 0.930 . S
C389 C392 1.404 . S
C389 C393 1.353 . S
N390 Co355 2.145 . S
N390 C391 1.397 . S
N390 C392 1.334 . S
C391 H372 0.929 . S
C391 C388 1.388 . S
C391 N390 1.397 . S
C392 H373 0.929 . S
C392 C389 1.404 . S
C392 N390 1.334 . S
C393 H385 0.946 . S
C393 C388 1.418 . S
C393 C389 1.353 . S
C394 H364 0.930 . S
C394 N395 1.330 . S
C394 C396 1.446 . S
N395 Co354 2.151 . S
N395 C394 1.330 . S
N395 C399 1.418 . S
C396 H375 0.929 . S
C396 C394 1.446 . S
C396 C397 1.332 . S
C397 H377 0.931 . S
C397 C396 1.332 . S
C397 C398 1.267 . S
C398 H366 0.929 . S
C398 C397 1.267 . S
C398 C399 1.251 . S
C399 H369 0.929 . S
C399 N395 1.418 . S
C399 C398 1.251 . S
C400 H367 0.930 . S
C400 C402 1.406 . S
C400 C405 1.261 . S
C401 H368 0.930 . S
C401 N403 1.325 . S
C401 C404 1.357 . S
C402 H370 0.928 . S
C402 C400 1.406 . S
C402 N403 1.261 . S
N403 Co354 2.214 . S
N403 C401 1.325 . S
N403 C402 1.261 . S
C404 H374 0.931 . S
C404 C401 1.357 . S
C404 C405 1.312 . S
C405 H376 0.931 1_655 S
C405 C400 1.261 . S
C405 C404 1.312 . S
C406 O378 1.214 . S
C406 O386 1.234 . S
C407 H379 0.929 . S
C407 C410 1.391 . S
C407 C412 1.391 1_565 S
C408 H380 0.929 . S
C408 C409 1.390 . S
C408 N411 1.391 1_565 S
C409 H381 0.930 . S
C409 C408 1.390 . S
C409 C410 1.392 . S
C410 H382 0.929 . S
C410 C407 1.391 . S
C410 C409 1.392 . S
N411 Co355 2.257 . S
N411 C408 1.391 1_545 S
N411 C412 1.388 . S
C412 H383 0.930 . S
C412 C407 1.391 1_545 S
C412 N411 1.388 . S
Co413 O415 2.143 . S
Co413 O421 2.074 1_455 S
Co413 O424 2.093 . S
Co413 O437 2.097 . S
Co413 N454 2.151 1_455 S
Co413 N462 2.214 . S
Co414 O415 2.160 . S
Co414 O420 2.058 . S
Co414 O430 2.057 . S
Co414 O445 2.037 . S
Co414 N449 2.145 . S
Co414 N470 2.257 . S
O415 Co413 2.143 . S
O415 Co414 2.160 . S
C416 O417 1.278 . S
C416 O424 1.224 . S
O417 C416 1.278 . S
C418 O419 1.245 . S
C418 O430 1.232 . S
O419 C418 1.245 . S
O420 Co414 2.058 . S
O420 C446 1.269 1_455 S
O421 Co413 2.074 1_655 S
O421 C446 1.257 . S
H422 C447 0.930 . S
H423 C453 0.930 . S
O424 Co413 2.093 . S
O424 C416 1.224 . S
H425 C457 0.929 . S
H426 C459 0.930 . S
H427 C460 0.930 . S
H428 C458 0.929 . S
H429 C461 0.928 . S
O430 Co414 2.057 . S
O430 C418 1.232 . S
H431 C450 0.929 . S
H432 C451 0.929 . S
H433 C463 0.931 1_455 S
H434 C455 0.929 . S
H435 C464 0.931 1_545 S
H436 C456 0.931 . S
O437 Co413 2.097 . S
O437 C465 1.214 . S
H438 C466 0.929 . S
H439 C467 0.929 . S
H440 C468 0.930 . S
H441 C469 0.929 . S
H442 C471 0.930 . S
H443 C448 0.930 . S
H444 C452 0.930 . S
O445 Co414 2.037 . S
O445 C465 1.234 . S
C446 O420 1.269 1_655 S
C446 O421 1.257 . S
C447 H422 0.930 . S
C447 C450 1.388 . S
C447 C452 1.418 . S
C448 H443 0.930 . S
C448 C451 1.404 . S
C448 C452 1.353 . S
N449 Co414 2.145 . S
N449 C450 1.397 . S
N449 C451 1.334 . S
C450 H431 0.929 . S
C450 C447 1.388 . S
C450 N449 1.397 . S
C451 H432 0.929 . S
C451 C448 1.404 . S
C451 N449 1.334 . S
C452 H444 0.930 . S
C452 C447 1.418 . S
C452 C448 1.353 . S
C453 H423 0.930 . S
C453 N454 1.330 . S
C453 C455 1.446 . S
N454 Co413 2.151 1_655 S
N454 C453 1.330 . S
N454 C458 1.418 . S
C455 H434 0.929 . S
C455 C453 1.446 . S
C455 C456 1.332 . S
C456 H436 0.931 . S
C456 C455 1.332 . S
C456 C457 1.267 . S
C457 H425 0.929 . S
C457 C456 1.267 . S
C457 C458 1.251 . S
C458 H428 0.929 . S
C458 N454 1.418 . S
C458 C457 1.251 . S
C459 H426 0.930 . S
C459 C461 1.406 . S
C459 C464 1.261 . S
C460 H427 0.930 . S
C460 N462 1.325 . S
C460 C463 1.357 1_455 S
C461 H429 0.928 . S
C461 C459 1.406 . S
C461 N462 1.261 1_655 S
N462 Co413 2.214 . S
N462 C460 1.325 . S
N462 C461 1.261 1_455 S
C463 H433 0.931 1_655 S
C463 C460 1.357 1_655 S
C463 C464 1.312 . S
C464 H435 0.931 1_565 S
C464 C459 1.261 . S
C464 C463 1.312 . S
C465 O437 1.214 . S
C465 O445 1.234 . S
C466 H438 0.929 . S
C466 C469 1.391 . S
C466 C471 1.391 . S
C467 H439 0.929 . S
C467 C468 1.390 . S
C467 N470 1.391 . S
C468 H440 0.930 . S
C468 C467 1.390 . S
C468 C469 1.392 . S
C469 H441 0.929 . S
C469 C466 1.391 . S
C469 C468 1.392 . S
N470 Co414 2.257 . S
N470 C467 1.391 . S
N470 C471 1.388 . S
C471 H442 0.930 . S
C471 C466 1.391 . S
C471 N470 1.388 . S
C472 C473 1.391 . S
C472 C474 1.394 . S
C472 H488 0.931 . S
C473 C472 1.391 . S
C473 C477 1.376 . S
C474 C472 1.394 . S
C474 C475 1.369 . S
C474 C478 1.531 . S
C475 C474 1.369 . S
C475 C476 1.410 . S
C475 C483 1.503 1_554 S
C476 C475 1.410 . S
C476 C477 1.392 . S
C476 C479 1.511 . S
C477 C473 1.376 . S
C477 C476 1.392 . S
C477 H489 0.929 . S
C478 C474 1.531 . S
C478 H490 0.960 1_554 S
C478 H491 0.962 . S
C478 H492 0.960 . S
C479 C476 1.511 . S
C479 H493 0.961 1_545 S
C479 H494 0.961 1_554 S
C479 H495 0.961 . S
C480 C481 1.370 . S
C480 C482 1.363 . S
C480 H496 0.931 . S
C481 C480 1.370 . S
C481 C485 1.408 . S
C482 C480 1.363 . S
C482 C483 1.370 . S
C482 C486 1.524 . S
C483 C475 1.503 1_556 S
C483 C482 1.370 . S
C483 C484 1.403 . S
C484 C483 1.403 . S
C484 C485 1.404 . S
C484 C487 1.539 . S
C485 C481 1.408 . S
C485 C484 1.404 . S
C485 H497 0.930 . S
C486 C482 1.524 . S
C486 H498 0.956 . S
C486 H499 0.957 1_546 S
C486 H500 0.961 1_545 S
C487 C484 1.539 . S
C487 H501 0.958 . S
C487 H502 0.961 . S
C487 H503 0.935 1_556 S
H488 C472 0.931 . S
H489 C477 0.929 . S
H490 C478 0.960 1_556 S
H491 C478 0.962 . S
H492 C478 0.960 . S
H493 C479 0.961 1_565 S
H494 C479 0.961 1_556 S
H495 C479 0.961 . S
H496 C480 0.931 . S
H497 C485 0.930 . S
H498 C486 0.956 . S
H499 C486 0.957 1_564 S
H500 C486 0.961 1_565 S
H501 C487 0.958 . S
H502 C487 0.961 . S
H503 C487 0.935 1_554 S
C504 C505 1.391 . S
C504 C506 1.394 . S
C504 H520 0.931 . S
C505 C504 1.391 . S
C505 C509 1.376 . S
C506 C504 1.394 . S
C506 C507 1.369 . S
C506 C510 1.531 . S
C507 C506 1.369 . S
C507 C508 1.410 . S
C507 C515 1.503 . S
C508 C507 1.410 . S
C508 C509 1.392 . S
C508 C511 1.511 1_455 S
C509 C505 1.376 . S
C509 C508 1.392 . S
C509 H521 0.929 . S
C510 C506 1.531 . S
C510 H522 0.960 . S
C510 H523 0.962 . S
C510 H524 0.960 . S
C511 C508 1.511 1_655 S
C511 H525 0.961 . S
C511 H526 0.961 1_655 S
C511 H527 0.961 . S
C512 C513 1.370 . S
C512 C514 1.363 . S
C512 H528 0.931 . S
C513 C512 1.370 . S
C513 C517 1.408 . S
C514 C512 1.363 . S
C514 C515 1.370 . S
C514 C518 1.524 . S
C515 C507 1.503 . S
C515 C514 1.370 . S
C515 C516 1.403 . S
C516 C515 1.403 . S
C516 C517 1.404 . S
C516 C519 1.539 . S
C517 C513 1.408 . S
C517 C516 1.404 . S
C517 H529 0.930 . S
C518 C514 1.524 . S
C518 H530 0.956 . S
C518 H531 0.961 . S
C518 H532 0.961 . S
C519 C516 1.539 . S
C519 H533 0.958 . S
C519 H534 0.961 1_455 S
C519 H535 0.960 . S
H520 C504 0.931 . S
H521 C509 0.929 . S
H522 C510 0.960 . S
H523 C510 0.962 . S
H524 C510 0.960 . S
H525 C511 0.961 . S
H526 C511 0.961 1_455 S
H527 C511 0.961 . S
H528 C512 0.931 . S
H529 C517 0.930 . S
H530 C518 0.956 . S
H531 C518 0.961 . S
H532 C518 0.961 . S
H533 C519 0.958 . S
H534 C519 0.961 1_655 S
H535 C519 0.960 . S
C536 C537 1.391 . S
C536 C538 1.394 . S
C536 H552 0.931 . S
C537 C536 1.391 . S
C537 C541 1.376 . S
C538 C536 1.394 . S
C538 C539 1.369 . S
C538 C542 1.531 . S
C539 C538 1.369 . S
C539 C540 1.410 . S
C539 C547 1.503 1_556 S
C540 C539 1.410 . S
C540 C541 1.392 . S
C540 C543 1.511 . S
C541 C537 1.376 . S
C541 C540 1.392 . S
C541 H553 0.929 . S
C542 C538 1.531 . S
C542 H554 0.960 1_556 S
C542 H555 0.962 . S
C542 H556 0.960 . S
C543 C540 1.511 . S
C543 H557 0.961 . S
C543 H558 0.961 1_556 S
C543 H559 0.961 . S
C544 C545 1.370 . S
C544 C546 1.363 . S
C544 H560 0.931 . S
C545 C544 1.370 . S
C545 C549 1.408 . S
C546 C544 1.363 . S
C546 C547 1.370 . S
C546 C550 1.524 1_545 S
C547 C539 1.503 1_554 S
C547 C546 1.370 . S
C547 C548 1.403 . S
C548 C547 1.403 . S
C548 C549 1.404 . S
C548 C551 1.539 . S
C549 C545 1.408 . S
C549 C548 1.404 . S
C549 H561 0.930 . S
C550 C546 1.524 1_565 S
C550 H562 0.956 . S
C550 H563 0.960 1_554 S
C550 H564 0.961 . S
C551 C548 1.539 . S
C551 H565 0.958 . S
C551 H566 0.961 . S
C551 H567 0.960 1_554 S
H552 C536 0.931 . S
H553 C541 0.929 . S
H554 C542 0.960 1_554 S
H555 C542 0.962 . S
H556 C542 0.960 . S
H557 C543 0.961 . S
H558 C543 0.961 1_554 S
H559 C543 0.961 . S
H560 C544 0.931 . S
H561 C549 0.930 . S
H562 C550 0.956 . S
H563 C550 0.960 1_556 S
H564 C550 0.961 . S
H565 C551 0.958 . S
H566 C551 0.961 . S
H567 C551 0.960 1_556 S
C568 C569 1.391 . S
C568 C570 1.394 . S
C568 H584 0.931 . S
C569 C568 1.391 . S
C569 C573 1.376 . S
C570 C568 1.394 . S
C570 C571 1.369 . S
C570 C574 1.552 . S
C571 C570 1.369 . S
C571 C572 1.410 . S
C571 C579 1.503 . S
C572 C571 1.410 . S
C572 C573 1.392 . S
C572 C575 1.511 . S
C573 C569 1.376 . S
C573 C572 1.392 . S
C573 H585 0.929 . S
C574 C570 1.552 . S
C574 H586 0.969 . S
C574 H587 0.943 1_455 S
C574 H588 0.950 1_455 S
C575 C572 1.511 . S
C575 H589 0.961 . S
C575 H590 0.961 . S
C575 H591 0.961 . S
C576 C577 1.370 . S
C576 C578 1.363 . S
C576 H592 0.931 . S
C577 C576 1.370 . S
C577 C581 1.408 . S
C578 C576 1.363 . S
C578 C579 1.370 . S
C578 C582 1.524 . S
C579 C571 1.503 . S
C579 C578 1.370 . S
C579 C580 1.403 . S
C580 C579 1.403 . S
C580 C581 1.404 . S
C580 C583 1.539 . S
C581 C577 1.408 . S
C581 C580 1.404 . S
C581 H593 0.930 . S
C582 C578 1.524 . S
C582 H594 0.956 . S
C582 H595 0.961 . S
C582 H596 0.961 . S
C583 C580 1.539 . S
C583 H597 0.958 . S
C583 H598 0.961 . S
C583 H599 0.960 . S
H584 C568 0.931 . S
H585 C573 0.929 . S
H586 C574 0.969 . S
H587 C574 0.943 1_655 S
H588 C574 0.950 1_655 S
H589 C575 0.961 . S
H590 C575 0.961 . S
H591 C575 0.961 . S
H592 C576 0.931 . S
H593 C581 0.930 . S
H594 C582 0.956 . S
H595 C582 0.961 . S
H596 C582 0.961 . S
H597 C583 0.958 . S
H598 C583 0.961 . S
H599 C583 0.960 . S
C600 C601 1.391 . S
C600 C602 1.394 . S
C600 H616 0.931 . S
C601 C600 1.391 . S
C601 C605 1.376 . S
C602 C600 1.394 . S
C602 C603 1.369 . S
C602 C606 1.531 . S
C603 C602 1.369 . S
C603 C604 1.410 . S
C603 C611 1.503 . S
C604 C603 1.410 . S
C604 C605 1.392 . S
C604 C607 1.511 . S
C605 C601 1.376 . S
C605 C604 1.392 . S
C605 H617 0.929 . S
C606 C602 1.531 . S
C606 H618 0.960 . S
C606 H619 0.962 . S
C606 H620 0.960 . S
C607 C604 1.511 . S
C607 H621 0.961 . S
C607 H622 0.961 . S
C607 H623 0.961 . S
C608 C609 1.370 . S
C608 C610 1.363 . S
C608 H624 0.931 . S
C609 C608 1.370 . S
C609 C613 1.408 1_545 S
C610 C608 1.363 . S
C610 C611 1.370 . S
C610 C614 1.524 . S
C611 C603 1.503 . S
C611 C610 1.370 . S
C611 C612 1.403 . S
C612 C611 1.403 . S
C612 C613 1.404 1_545 S
C612 C615 1.539 1_545 S
C613 C609 1.408 1_565 S
C613 C612 1.404 1_565 S
C613 H625 0.930 . S
C614 C610 1.524 . S
C614 H626 0.956 . S
C614 H627 0.961 . S
C614 H628 0.961 . S
C615 C612 1.539 1_565 S
C615 H629 0.958 . S
C615 H630 0.961 . S
C615 H631 0.960 . S
H616 C600 0.931 . S
H617 C605 0.929 . S
H618 C606 0.960 . S
H619 C606 0.962 . S
H620 C606 0.960 . S
H621 C607 0.961 . S
H622 C607 0.961 . S
H623 C607 0.961 . S
H624 C608 0.931 . S
H625 C613 0.930 . S
H626 C614 0.956 . S
H627 C614 0.961 . S
H628 C614 0.961 . S
H629 C615 0.958 . S
H630 C615 0.961 . S
H631 C615 0.960 . S
C632 C633 1.391 . S
C632 C634 1.394 . S
C632 H648 0.931 1_455 S
C633 C632 1.391 . S
C633 C637 1.376 . S
C634 C632 1.394 . S
C634 C635 1.369 . S
C634 C638 1.531 . S
C635 C634 1.369 . S
C635 C636 1.410 . S
C635 C643 1.503 . S
C636 C635 1.410 . S
C636 C637 1.392 . S
C636 C639 1.511 . S
C637 C633 1.376 . S
C637 C636 1.392 . S
C637 H649 0.929 . S
C638 C634 1.531 . S
C638 H650 0.960 . S
C638 H651 0.962 . S
C638 H652 0.960 1_455 S
C639 C636 1.511 . S
C639 H653 0.961 . S
C639 H654 0.961 . S
C639 H655 0.961 . S
C640 C641 1.370 . S
C640 C642 1.363 . S
C640 H656 0.931 . S
C641 C640 1.370 . S
C641 C645 1.408 . S
C642 C640 1.363 . S
C642 C643 1.370 . S
C642 C646 1.524 . S
C643 C635 1.503 . S
C643 C642 1.370 . S
C643 C644 1.403 . S
C644 C643 1.403 . S
C644 C645 1.404 . S
C644 C647 1.539 . S
C645 C641 1.408 . S
C645 C644 1.404 . S
C645 H657 0.930 . S
C646 C642 1.524 . S
C646 H658 0.956 . S
C646 H659 0.961 . S
C646 H660 0.961 . S
C647 C644 1.539 . S
C647 H661 0.958 1_455 S
C647 H662 0.961 . S
C647 H663 0.960 . S
H648 C632 0.931 1_655 S
H649 C637 0.929 . S
H650 C638 0.960 . S
H651 C638 0.962 . S
H652 C638 0.960 1_655 S
H653 C639 0.961 . S
H654 C639 0.961 . S
H655 C639 0.961 . S
H656 C640 0.931 . S
H657 C645 0.930 . S
H658 C646 0.956 . S
H659 C646 0.961 . S
H660 C646 0.961 . S
H661 C647 0.958 1_655 S
H662 C647 0.961 . S
H663 C647 0.960 . S
C664 C665 1.391 . S
C664 C666 1.394 . S
C664 H680 0.931 . S
C665 C664 1.391 . S
C665 C669 1.376 . S
C666 C664 1.394 . S
C666 C667 1.369 . S
C666 C670 1.531 . S
C667 C666 1.369 . S
C667 C668 1.410 . S
C667 C675 1.503 . S
C668 C667 1.410 . S
C668 C669 1.392 . S
C668 C671 1.511 . S
C669 C665 1.376 . S
C669 C668 1.392 . S
C669 H681 0.929 . S
C670 C666 1.531 . S
C670 H682 0.960 . S
C670 H683 0.962 1_545 S
C670 H684 0.960 1_545 S
C671 C668 1.511 . S
C671 H685 0.961 . S
C671 H686 0.961 . S
C671 H687 0.961 . S
C672 C673 1.370 . S
C672 C674 1.363 . S
C672 H688 0.931 . S
C673 C672 1.370 . S
C673 C677 1.408 . S
C674 C672 1.363 . S
C674 C675 1.370 . S
C674 C678 1.524 . S
C675 C667 1.503 . S
C675 C674 1.370 . S
C675 C676 1.403 . S
C676 C675 1.403 . S
C676 C677 1.404 . S
C676 C679 1.539 . S
C677 C673 1.408 . S
C677 C676 1.404 . S
C677 H689 0.930 . S
C678 C674 1.524 . S
C678 H690 0.956 . S
C678 H691 0.961 . S
C678 H692 0.961 . S
C679 C676 1.539 . S
C679 H693 0.958 . S
C679 H694 0.961 . S
C679 H695 0.960 . S
H680 C664 0.931 . S
H681 C669 0.929 . S
H682 C670 0.960 . S
H683 C670 0.962 1_565 S
H684 C670 0.960 1_565 S
H685 C671 0.961 . S
H686 C671 0.961 . S
H687 C671 0.961 . S
H688 C672 0.931 . S
H689 C677 0.930 . S
H690 C678 0.956 . S
H691 C678 0.961 . S
H692 C678 0.961 . S
H693 C679 0.958 . S
H694 C679 0.961 . S
H695 C679 0.960 . S
C696 C697 1.391 . S
C696 C698 1.394 . S
C696 H712 0.931 . S
C697 C696 1.391 . S
C697 C701 1.376 . S
C698 C696 1.394 . S
C698 C699 1.369 . S
C698 C702 1.531 . S
C699 C698 1.369 . S
C699 C700 1.410 . S
C699 C707 1.503 . S
C700 C699 1.410 . S
C700 C701 1.392 . S
C700 C703 1.511 1_455 S
C701 C697 1.376 . S
C701 C700 1.392 . S
C701 H713 0.929 . S
C702 C698 1.531 . S
C702 H714 0.960 . S
C702 H715 0.962 . S
C702 H716 0.960 . S
C703 C700 1.511 1_655 S
C703 H717 0.961 . S
C703 H718 0.961 . S
C703 H719 0.961 . S
C704 C705 1.370 . S
C704 C706 1.363 . S
C704 H720 0.931 . S
C705 C704 1.370 . S
C705 C709 1.408 . S
C706 C704 1.363 . S
C706 C707 1.370 . S
C706 C710 1.524 . S
C707 C699 1.503 . S
C707 C706 1.370 . S
C707 C708 1.403 . S
C708 C707 1.403 . S
C708 C709 1.404 . S
C708 C711 1.539 . S
C709 C705 1.408 . S
C709 C708 1.404 . S
C709 H721 0.930 . S
C710 C706 1.524 . S
C710 H722 0.956 . S
C710 H723 0.961 . S
C710 H724 0.961 . S
C711 C708 1.539 . S
C711 H725 0.958 . S
C711 H726 0.961 . S
C711 H727 0.960 . S
H712 C696 0.931 . S
H713 C701 0.929 . S
H714 C702 0.960 . S
H715 C702 0.962 . S
H716 C702 0.960 . S
H717 C703 0.961 . S
H718 C703 0.961 . S
H719 C703 0.961 . S
H720 C704 0.931 . S
H721 C709 0.930 . S
H722 C710 0.956 . S
H723 C710 0.961 . S
H724 C710 0.961 . S
H725 C711 0.958 . S
H726 C711 0.961 . S
H727 C711 0.960 . S
C728 C729 1.391 . S
C728 C730 1.394 . S
C728 H744 0.931 . S
C729 C728 1.391 . S
C729 C733 1.376 . S
C730 C728 1.394 . S
C730 C731 1.369 . S
C730 C734 1.531 . S
C731 C730 1.369 . S
C731 C732 1.410 . S
C731 C739 1.503 . S
C732 C731 1.410 . S
C732 C733 1.392 . S
C732 C735 1.511 . S
C733 C729 1.376 . S
C733 C732 1.392 . S
C733 H745 0.929 . S
C734 C730 1.531 . S
C734 H746 0.960 . S
C734 H747 0.962 . S
C734 H748 0.960 . S
C735 C732 1.511 . S
C735 H749 0.961 . S
C735 H750 0.961 . S
C735 H751 0.961 . S
C736 C737 1.370 . S
C736 C738 1.363 . S
C736 H752 0.931 . S
C737 C736 1.370 . S
C737 C741 1.408 . S
C738 C736 1.363 . S
C738 C739 1.370 . S
C738 C742 1.524 . S
C739 C731 1.503 . S
C739 C738 1.370 . S
C739 C740 1.403 . S
C740 C739 1.403 . S
C740 C741 1.404 . S
C740 C743 1.539 . S
C741 C737 1.408 . S
C741 C740 1.404 . S
C741 H753 0.930 . S
C742 C738 1.524 . S
C742 H754 0.956 . S
C742 H755 0.961 . S
C742 H756 0.961 . S
C743 C740 1.539 . S
C743 H757 0.958 . S
C743 H758 0.961 . S
C743 H759 0.960 . S
H744 C728 0.931 . S
H745 C733 0.929 . S
H746 C734 0.960 . S
H747 C734 0.962 . S
H748 C734 0.960 . S
H749 C735 0.961 . S
H750 C735 0.961 . S
H751 C735 0.961 . S
H752 C736 0.931 . S
H753 C741 0.930 . S
H754 C742 0.956 . S
H755 C742 0.961 . S
H756 C742 0.961 . S
H757 C743 0.958 . S
H758 C743 0.961 . S
H759 C743 0.960 . S
C760 C761 1.391 . S
C760 C762 1.394 . S
C760 H776 0.931 . S
C761 C760 1.391 . S
C761 C765 1.376 . S
C762 C760 1.394 . S
C762 C763 1.369 . S
C762 C766 1.531 . S
C763 C762 1.369 . S
C763 C764 1.410 . S
C763 C771 1.503 . S
C764 C763 1.410 . S
C764 C765 1.392 . S
C764 C767 1.511 . S
C765 C761 1.376 . S
C765 C764 1.392 . S
C765 H777 0.929 . S
C766 C762 1.531 . S
C766 H778 0.960 . S
C766 H779 0.962 . S
C766 H780 0.960 . S
C767 C764 1.511 . S
C767 H781 0.961 . S
C767 H782 0.961 . S
C767 H783 0.961 . S
C768 C769 1.370 . S
C768 C770 1.363 . S
C768 H784 0.931 . S
C769 C768 1.370 . S
C769 C773 1.408 . S
C770 C768 1.363 . S
C770 C771 1.370 . S
C770 C774 1.524 . S
C771 C763 1.503 . S
C771 C770 1.370 . S
C771 C772 1.403 . S
C772 C771 1.403 . S
C772 C773 1.404 . S
C772 C775 1.539 . S
C773 C769 1.408 . S
C773 C772 1.404 . S
C773 H785 0.930 . S
C774 C770 1.524 . S
C774 H786 0.956 . S
C774 H787 0.961 . S
C774 H788 0.961 . S
C775 C772 1.539 . S
C775 H789 0.958 . S
C775 H790 0.961 . S
C775 H791 0.960 . S
H776 C760 0.931 . S
H777 C765 0.929 . S
H778 C766 0.960 . S
H779 C766 0.962 . S
H780 C766 0.960 . S
H781 C767 0.961 . S
H782 C767 0.961 . S
H783 C767 0.961 . S
H784 C768 0.931 . S
H785 C773 0.930 . S
H786 C774 0.956 . S
H787 C774 0.961 . S
H788 C774 0.961 . S
H789 C775 0.958 . S
H790 C775 0.961 . S
H791 C775 0.960 . S
C792 C793 1.391 . S
C792 C794 1.394 . S
C792 H808 0.931 . S
C793 C792 1.391 . S
C793 C797 1.376 . S
C794 C792 1.394 . S
C794 C795 1.369 . S
C794 C798 1.531 . S
C795 C794 1.369 . S
C795 C796 1.410 . S
C795 C803 1.503 . S
C796 C795 1.410 . S
C796 C797 1.392 . S
C796 C799 1.511 . S
C797 C793 1.376 . S
C797 C796 1.392 . S
C797 H809 0.904 1_655 S
C798 C794 1.531 . S
C798 H810 0.960 . S
C798 H811 0.962 . S
C798 H812 0.960 . S
C799 C796 1.511 . S
C799 H813 0.961 . S
C799 H814 0.961 . S
C799 H815 0.961 . S
C800 C801 1.370 . S
C800 C802 1.363 . S
C800 H816 0.931 . S
C801 C800 1.370 . S
C801 C805 1.408 . S
C802 C800 1.363 . S
C802 C803 1.370 . S
C802 C806 1.524 . S
C803 C795 1.503 . S
C803 C802 1.370 . S
C803 C804 1.403 . S
C804 C803 1.403 . S
C804 C805 1.404 . S
C804 C807 1.539 . S
C805 C801 1.408 . S
C805 C804 1.404 . S
C805 H817 0.930 . S
C806 C802 1.524 . S
C806 H818 0.956 . S
C806 H819 0.961 . S
C806 H820 0.961 . S
C807 C804 1.539 . S
C807 H821 0.958 . S
C807 H822 0.961 . S
C807 H823 0.960 . S
H808 C792 0.931 . S
H809 C797 0.904 1_455 S
H810 C798 0.960 . S
H811 C798 0.962 . S
H812 C798 0.960 . S
H813 C799 0.961 . S
H814 C799 0.961 . S
H815 C799 0.961 . S
H816 C800 0.931 . S
H817 C805 0.930 . S
H818 C806 0.956 . S
H819 C806 0.961 . S
H820 C806 0.961 . S
H821 C807 0.958 . S
H822 C807 0.961 . S
H823 C807 0.960 . S
C824 C825 1.391 . S
C824 C826 1.394 . S
C824 H840 0.931 . S
C825 C824 1.391 . S
C825 C829 1.376 . S
C826 C824 1.394 . S
C826 C827 1.369 . S
C826 C830 1.531 . S
C827 C826 1.369 . S
C827 C828 1.410 . S
C827 C835 1.503 . S
C828 C827 1.410 . S
C828 C829 1.392 . S
C828 C831 1.511 . S
C829 C825 1.376 . S
C829 C828 1.392 . S
C829 H841 0.929 . S
C830 C826 1.531 . S
C830 H842 0.960 . S
C830 H843 0.962 . S
C830 H844 0.960 . S
C831 C828 1.511 . S
C831 H845 0.961 . S
C831 H846 0.961 . S
C831 H847 0.961 . S
C832 C833 1.370 . S
C832 C834 1.363 . S
C832 H848 0.931 1_565 S
C833 C832 1.370 . S
C833 C837 1.408 . S
C834 C832 1.363 . S
C834 C835 1.370 . S
C834 C838 1.524 . S
C835 C827 1.503 . S
C835 C834 1.370 . S
C835 C836 1.403 . S
C836 C835 1.403 . S
C836 C837 1.404 . S
C836 C839 1.539 . S
C837 C833 1.408 . S
C837 C836 1.404 . S
C837 H849 0.930 . S
C838 C834 1.524 . S
C838 H850 0.956 . S
C838 H851 0.961 . S
C838 H852 0.961 . S
C839 C836 1.539 . S
C839 H853 0.958 . S
C839 H854 0.961 . S
C839 H855 0.960 . S
H840 C824 0.931 . S
H841 C829 0.929 . S
H842 C830 0.960 . S
H843 C830 0.962 . S
H844 C830 0.960 . S
H845 C831 0.961 . S
H846 C831 0.961 . S
H847 C831 0.961 . S
H848 C832 0.931 1_545 S
H849 C837 0.930 . S
H850 C838 0.956 . S
H851 C838 0.961 . S
H852 C838 0.961 . S
H853 C839 0.958 . S
H854 C839 0.961 . S
H855 C839 0.960 . S
C856 C857 1.391 . S
C856 C858 1.394 1_545 S
C856 H872 0.931 . S
C857 C856 1.391 . S
C857 C861 1.376 1_545 S
C858 C856 1.394 1_565 S
C858 C859 1.369 . S
C858 C862 1.531 . S
C859 C858 1.369 . S
C859 C860 1.410 . S
C859 C867 1.503 . S
C860 C859 1.410 . S
C860 C861 1.392 . S
C860 C863 1.511 . S
C861 C857 1.376 1_565 S
C861 C860 1.392 . S
C861 H873 0.929 . S
C862 C858 1.531 . S
C862 H874 0.960 . S
C862 H875 0.962 . S
C862 H876 0.960 . S
C863 C860 1.511 . S
C863 H877 0.961 . S
C863 H878 0.961 . S
C863 H879 0.961 1_655 S
C864 C865 1.370 1_655 S
C864 C866 1.363 . S
C864 H880 0.931 . S
C865 C864 1.370 1_455 S
C865 C869 1.408 . S
C866 C864 1.363 . S
C866 C867 1.370 . S
C866 C870 1.524 . S
C867 C859 1.503 . S
C867 C866 1.370 . S
C867 C868 1.403 . S
C868 C867 1.403 . S
C868 C869 1.404 1_655 S
C868 C871 1.539 1_655 S
C869 C865 1.408 . S
C869 C868 1.404 1_455 S
C869 H881 0.930 . S
C870 C866 1.524 . S
C870 H882 0.956 . S
C870 H883 0.961 . S
C870 H884 0.961 . S
C871 C868 1.539 1_455 S
C871 H885 0.958 1_465 S
C871 H886 0.961 . S
C871 H887 0.960 1_465 S
H872 C856 0.931 . S
H873 C861 0.929 . S
H874 C862 0.960 . S
H875 C862 0.962 . S
H876 C862 0.960 . S
H877 C863 0.961 . S
H878 C863 0.961 . S
H879 C863 0.961 1_455 S
H880 C864 0.931 . S
H881 C869 0.930 . S
H882 C870 0.956 . S
H883 C870 0.961 . S
H884 C870 0.961 . S
H885 C871 0.958 1_645 S
H886 C871 0.961 . S
H887 C871 0.960 1_645 S
C888 C889 1.391 1_565 S
C888 C890 1.394 . S
C888 H904 0.931 . S
C889 C888 1.391 1_545 S
C889 C893 1.376 . S
C890 C888 1.394 . S
C890 C891 1.369 . S
C890 C894 1.531 . S
C891 C890 1.369 . S
C891 C892 1.410 . S
C891 C899 1.503 . S
C892 C891 1.410 . S
C892 C893 1.392 1_565 S
C892 C895 1.511 1_565 S
C893 C889 1.376 . S
C893 C892 1.392 1_545 S
C893 H905 0.929 . S
C894 C890 1.531 . S
C894 H906 0.960 . S
C894 H907 0.962 . S
C894 H908 0.960 . S
C895 C892 1.511 1_545 S
C895 H909 0.961 . S
C895 H910 0.961 1_545 S
C895 H911 0.961 . S
C896 C897 1.370 . S
C896 C898 1.363 . S
C896 H912 0.931 . S
C897 C896 1.370 . S
C897 C901 1.408 . S
C898 C896 1.363 . S
C898 C899 1.370 . S
C898 C902 1.524 . S
C899 C891 1.503 . S
C899 C898 1.370 . S
C899 C900 1.403 . S
C900 C899 1.403 . S
C900 C901 1.404 . S
C900 C903 1.539 . S
C901 C897 1.408 . S
C901 C900 1.404 . S
C901 H913 0.930 . S
C902 C898 1.524 . S
C902 H914 0.956 . S
C902 H915 0.961 . S
C902 H916 0.961 . S
C903 C900 1.539 . S
C903 H917 0.958 . S
C903 H918 0.961 . S
C903 H919 0.960 . S
H904 C888 0.931 . S
H905 C893 0.929 . S
H906 C894 0.960 . S
H907 C894 0.962 . S
H908 C894 0.960 . S
H909 C895 0.961 . S
H910 C895 0.961 1_565 S
H911 C895 0.961 . S
H912 C896 0.931 . S
H913 C901 0.930 . S
H914 C902 0.956 . S
H915 C902 0.961 . S
H916 C902 0.961 . S
H917 C903 0.958 . S
H918 C903 0.961 . S
H919 C903 0.960 . S
C920 C921 1.391 . S
C920 C922 1.394 . S
C920 H936 0.931 . S
C921 C920 1.391 . S
C921 C925 1.376 . S
C922 C920 1.394 . S
C922 C923 1.369 . S
C922 C926 1.531 . S
C923 C922 1.369 . S
C923 C924 1.410 . S
C923 C931 1.503 . S
C924 C923 1.410 . S
C924 C925 1.392 . S
C924 C927 1.511 . S
C925 C921 1.376 . S
C925 C924 1.392 . S
C925 H937 0.929 . S
C926 C922 1.531 . S
C926 H938 0.960 . S
C926 H939 0.962 . S
C926 H940 0.960 . S
C927 C924 1.511 . S
C927 H941 0.961 . S
C927 H942 0.961 . S
C927 H943 0.961 . S
C928 C929 1.370 . S
C928 C930 1.363 . S
C928 H944 0.931 . S
C929 C928 1.370 . S
C929 C933 1.408 . S
C930 C928 1.363 . S
C930 C931 1.370 . S
C930 C934 1.524 . S
C931 C923 1.503 . S
C931 C930 1.370 . S
C931 C932 1.403 . S
C932 C931 1.403 . S
C932 C933 1.404 . S
C932 C935 1.539 . S
C933 C929 1.408 . S
C933 C932 1.404 . S
C933 H945 0.930 . S
C934 C930 1.524 . S
C934 H946 0.956 . S
C934 H947 0.961 . S
C934 H948 0.961 . S
C935 C932 1.539 . S
C935 H949 0.958 . S
C935 H950 0.961 . S
C935 H951 0.960 . S
H936 C920 0.931 . S
H937 C925 0.929 . S
H938 C926 0.960 . S
H939 C926 0.962 . S
H940 C926 0.960 . S
H941 C927 0.961 . S
H942 C927 0.961 . S
H943 C927 0.961 . S
H944 C928 0.931 . S
H945 C933 0.930 . S
H946 C934 0.956 . S
H947 C934 0.961 . S
H948 C934 0.961 . S
H949 C935 0.958 . S
H950 C935 0.961 . S
H951 C935 0.960 . S
C952 C953 1.391 . S
C952 C954 1.394 1_455 S
C952 H968 0.931 . S
C953 C952 1.391 . S
C953 C957 1.376 1_455 S
C954 C952 1.394 1_655 S
C954 C955 1.369 . S
C954 C958 1.531 1_655 S
C955 C954 1.369 . S
C955 C956 1.410 . S
C955 C963 1.503 . S
C956 C955 1.410 . S
C956 C957 1.392 . S
C956 C959 1.511 . S
C957 C953 1.376 1_655 S
C957 C956 1.392 . S
C957 H969 0.929 . S
C958 C954 1.531 1_455 S
C958 H970 0.960 1_455 S
C958 H971 0.962 . S
C958 H972 0.960 . S
C959 C956 1.511 . S
C959 H973 0.961 . S
C959 H974 0.961 . S
C959 H975 0.961 . S
C960 C961 1.370 . S
C960 C962 1.363 . S
C960 H976 0.931 . S
C961 C960 1.370 . S
C961 C965 1.408 . S
C962 C960 1.363 . S
C962 C963 1.370 . S
C962 C966 1.524 . S
C963 C955 1.503 . S
C963 C962 1.370 . S
C963 C964 1.403 . S
C964 C963 1.403 . S
C964 C965 1.404 . S
C964 C967 1.539 . S
C965 C961 1.408 . S
C965 C964 1.404 . S
C965 H977 0.930 . S
C966 C962 1.524 . S
C966 H978 0.956 . S
C966 H979 0.961 . S
C966 H980 0.961 . S
C967 C964 1.539 . S
C967 H981 0.958 . S
C967 H982 0.961 . S
C967 H983 0.960 . S
H968 C952 0.931 . S
H969 C957 0.929 . S
H970 C958 0.960 1_655 S
H971 C958 0.962 . S
H972 C958 0.960 . S
H973 C959 0.961 . S
H974 C959 0.961 . S
H975 C959 0.961 . S
H976 C960 0.931 . S
H977 C965 0.930 . S
H978 C966 0.956 . S
H979 C966 0.961 . S
H980 C966 0.961 . S
H981 C967 0.958 . S
H982 C967 0.961 . S
H983 C967 0.960 . S
C473 C3 1.558 . S
C481 C239 1.566 . S
C505 C62 1.548 . S
C513 C298 1.562 . S
C537 C357 1.553 . S
C545 C121 1.566 . S
C569 C416 1.568 . S
C577 C180 1.563 . S
C601 C5 1.548 . S
C609 C123 1.585 . S
C633 C64 1.594 . S
C641 C182 1.569 . S
C665 C359 1.575 . S
C673 C241 1.569 . S
C697 C300 1.571 . S
C705 C418 1.581 . S
C729 C328 0.904 . S
C737 C33 0.949 . S
C761 C92 0.938 . S
C769 C387 0.961 . S
C793 C446 0.915 . S
C801 C151 0.957 . S
C825 C210 0.978 . S
C833 C269 0.951 . S
C857 C406 1.747 . S
C865 C229 1.752 . S
C889 C52 1.735 . S
C897 C465 1.753 . S
C921 C111 1.754 . S
C929 C288 1.744 . S
C953 C347 1.754 . S
C961 C170 1.745 . S
