# Generated by pormake.
# Topology umy, (4)-cn, num edge types: 1
# Building blocks:
#     Node 0, Type 0, BuildingBlock: AZAVOO_clean_sbu_0, # of connection points: 4
#     Node 1, Type 0, BuildingBlock: AZAVOO_clean_sbu_0, # of connection points: 4
#     Node 2, Type 0, BuildingBlock: AZAVOO_clean_sbu_0, # of connection points: 4
#     Node 3, Type 0, BuildingBlock: AZAVOO_clean_sbu_0, # of connection points: 4
#     Node 4, Type 0, BuildingBlock: AZAVOO_clean_sbu_0, # of connection points: 4
#     Node 5, Type 0, BuildingBlock: AZAVOO_clean_sbu_0, # of connection points: 4
#     Node 6, Type 0, BuildingBlock: AZAVOO_clean_sbu_0, # of connection points: 4
#     Node 7, Type 0, BuildingBlock: AZAVOO_clean_sbu_0, # of connection points: 4
#     Node 8, Type 0, BuildingBlock: AZAVOO_clean_sbu_0, # of connection points: 4
#     Node 9, Type 0, BuildingBlock: AZAVOO_clean_sbu_0, # of connection points: 4
#     Node 10, Type 0, BuildingBlock: AZAVOO_clean_sbu_0, # of connection points: 4
#     Node 11, Type 0, BuildingBlock: AZAVOO_clean_sbu_0, # of connection points: 4
#     Edge 12, Type (0, 0), BuildingBlock: XIVTED_clean_linker_0, # of connection points: 2
#     Edge 13, Type (0, 0), BuildingBlock: XIVTED_clean_linker_0, # of connection points: 2
#     Edge 14, Type (0, 0), BuildingBlock: XIVTED_clean_linker_0, # of connection points: 2
#     Edge 15, Type (0, 0), BuildingBlock: XIVTED_clean_linker_0, # of connection points: 2
#     Edge 16, Type (0, 0), BuildingBlock: XIVTED_clean_linker_0, # of connection points: 2
#     Edge 17, Type (0, 0), BuildingBlock: XIVTED_clean_linker_0, # of connection points: 2
#     Edge 18, Type (0, 0), BuildingBlock: XIVTED_clean_linker_0, # of connection points: 2
#     Edge 19, Type (0, 0), BuildingBlock: XIVTED_clean_linker_0, # of connection points: 2
#     Edge 20, Type (0, 0), BuildingBlock: XIVTED_clean_linker_0, # of connection points: 2
#     Edge 21, Type (0, 0), BuildingBlock: XIVTED_clean_linker_0, # of connection points: 2
#     Edge 22, Type (0, 0), BuildingBlock: XIVTED_clean_linker_0, # of connection points: 2
#     Edge 23, Type (0, 0), BuildingBlock: XIVTED_clean_linker_0, # of connection points: 2
#     Edge 24, Type (0, 0), BuildingBlock: XIVTED_clean_linker_0, # of connection points: 2
#     Edge 25, Type (0, 0), BuildingBlock: XIVTED_clean_linker_0, # of connection points: 2
#     Edge 26, Type (0, 0), BuildingBlock: XIVTED_clean_linker_0, # of connection points: 2
#     Edge 27, Type (0, 0), BuildingBlock: XIVTED_clean_linker_0, # of connection points: 2
#     Edge 28, Type (0, 0), BuildingBlock: XIVTED_clean_linker_0, # of connection points: 2
#     Edge 29, Type (0, 0), BuildingBlock: XIVTED_clean_linker_0, # of connection points: 2
#     Edge 30, Type (0, 0), BuildingBlock: XIVTED_clean_linker_0, # of connection points: 2
#     Edge 31, Type (0, 0), BuildingBlock: XIVTED_clean_linker_0, # of connection points: 2
#     Edge 32, Type (0, 0), BuildingBlock: XIVTED_clean_linker_0, # of connection points: 2
#     Edge 33, Type (0, 0), BuildingBlock: XIVTED_clean_linker_0, # of connection points: 2
#     Edge 34, Type (0, 0), BuildingBlock: XIVTED_clean_linker_0, # of connection points: 2
#     Edge 35, Type (0, 0), BuildingBlock: XIVTED_clean_linker_0, # of connection points: 2
# Relax obj value: 0.136
# Max RMSD: 0.150
# Mean RMSD: 0.150
data_MOF--net-umy--node1-AZAVOO_clean_sbu_0--edge1-XIVTED_clean_linker_0
_symmetry_space_group_name_H-M    P1
_symmetry_Int_Tables_number       1
_symmetry_cell_setting            triclinic
loop_
_symmetry_equiv_pos_as_xyz
'x, y, z'
_cell_length_a     40.693586
_cell_length_b     40.761928
_cell_length_c     45.316969
_cell_angle_alpha  89.946227
_cell_angle_beta   90.066192
_cell_angle_gamma 119.9294
loop_
_atom_site_label
_atom_site_type_symbol
_atom_site_fract_x
_atom_site_fract_y
_atom_site_fract_z
_atom_type_partial_charge
Mg0 Mg 0.12837 0.36906 0.08764 0.0
O1 O 0.15418 0.37451 0.1329 0.0
O2 O 0.21717 0.40736 0.13294 0.0
Mg3 Mg 0.23197 0.42594 0.08437 0.0
C4 C 0.18566 0.3885 0.14644 0.0
C5 C 0.06486 0.31686 0.12836 0.0
O6 O 0.08828 0.30347 0.12813 0.0
O7 O 0.1398 0.42934 0.09183 0.0
O8 O 0.2031 0.4622 0.08842 0.0
O9 O 0.13444 0.319 0.07712 0.0
O10 O 0.1784 0.37797 0.06739 0.0
C11 C 0.17106 0.46071 0.09104 0.0
C12 C 0.16785 0.34249 0.06705 0.0
O13 O 0.07179 0.34471 0.11168 0.0
Mg14 Mg 0.77163 0.14793 0.27646 0.0
O15 O 0.78622 0.17176 0.32293 0.0
O16 O 0.81292 0.23459 0.3224 0.0
Mg17 Mg 0.81417 0.25078 0.27357 0.0
C18 C 0.80078 0.2034 0.33629 0.0
C19 C 0.70597 0.06428 0.29509 0.0
O20 O 0.68294 0.0699 0.27824 0.0
O21 O 0.72044 0.15624 0.27687 0.0
O22 O 0.74881 0.2193 0.27289 0.0
O23 O 0.82939 0.1565 0.26968 0.0
O24 O 0.81277 0.19888 0.25796 0.0
C25 C 0.71892 0.18668 0.27443 0.0
C26 C 0.83864 0.18952 0.25909 0.0
O27 O 0.74043 0.08994 0.29751 0.0
Mg28 Mg 0.60577 0.74336 0.39888 0.0
O29 O 0.59898 0.76072 0.44524 0.0
O30 O 0.56203 0.78672 0.44486 0.0
Mg31 Mg 0.5429 0.78374 0.39679 0.0
C32 C 0.5824 0.77592 0.45857 0.0
C33 C 0.62317 0.69182 0.44123 0.0
O34 O 0.58844 0.67971 0.45057 0.0
O35 O 0.54685 0.6913 0.40295 0.0
O36 O 0.5113 0.71899 0.40036 0.0
O37 O 0.65312 0.80164 0.38943 0.0
O38 O 0.59286 0.78236 0.38025 0.0
C39 C 0.51456 0.68946 0.40259 0.0
C40 C 0.62755 0.80932 0.38031 0.0
O41 O 0.63604 0.71497 0.41979 0.0
Mg42 Mg 0.85223 0.62524 0.57609 0.0
O43 O 0.82539 0.61906 0.62146 0.0
O44 O 0.76392 0.57549 0.61986 0.0
Mg45 Mg 0.75039 0.55711 0.57148 0.0
C46 C 0.79342 0.59917 0.63403 0.0
C47 C 0.91686 0.68348 0.61546 0.0
O48 O 0.89163 0.69449 0.61773 0.0
O49 O 0.84862 0.56804 0.58276 0.0
O50 O 0.78632 0.52877 0.57738 0.0
O51 O 0.83924 0.67045 0.56286 0.0
O52 O 0.80043 0.6094 0.55573 0.0
C53 C 0.8199 0.5347 0.58165 0.0
C54 C 0.80678 0.64356 0.5536 0.0
O55 O 0.9099 0.65581 0.59863 0.0
Mg56 Mg 0.22481 0.85575 0.75102 0.0
O57 O 0.20636 0.82832 0.79615 0.0
O58 O 0.17597 0.76541 0.79376 0.0
Mg59 Mg 0.17694 0.75246 0.7444 0.0
C60 C 0.18931 0.79604 0.80856 0.0
C61 C 0.23783 0.91913 0.79257 0.0
O62 O 0.20147 0.89443 0.79466 0.0
O63 O 0.27354 0.84339 0.75239 0.0
O64 O 0.2421 0.78043 0.74664 0.0
O65 O 0.16869 0.85109 0.74261 0.0
O66 O 0.18251 0.80695 0.73035 0.0
C67 C 0.27304 0.81192 0.74966 0.0
C68 C 0.15802 0.81814 0.73131 0.0
O69 O 0.25805 0.91225 0.77501 0.0
Mg70 Mg 0.36713 0.23431 0.91542 0.0
O71 O 0.37643 0.21537 0.96035 0.0
O72 O 0.41019 0.18614 0.9572 0.0
Mg73 Mg 0.42514 0.18889 0.90801 0.0
C74 C 0.39219 0.19847 0.97232 0.0
C75 C 0.31526 0.24574 0.95704 0.0
O76 O 0.30378 0.20942 0.95883 0.0
O77 O 0.42755 0.28399 0.91736 0.0
O78 O 0.46035 0.25377 0.91146 0.0
O79 O 0.3169 0.17748 0.90658 0.0
O80 O 0.37555 0.19345 0.89447 0.0
C81 C 0.45894 0.2842 0.91483 0.0
C82 C 0.34027 0.16801 0.89548 0.0
O83 O 0.3425 0.26624 0.93972 0.0
Mg84 Mg 0.6055 0.84104 0.73845 0.0
O85 O 0.59735 0.81582 0.69259 0.0
O86 O 0.56259 0.7529 0.69389 0.0
Mg87 Mg 0.54681 0.7382 0.74279 0.0
C88 C 0.58134 0.78386 0.67967 0.0
C89 C 0.63628 0.92875 0.72735 0.0
O90 O 0.62369 0.92847 0.75409 0.0
O91 O 0.54559 0.83144 0.73682 0.0
O92 O 0.51151 0.76841 0.7412 0.0
O93 O 0.65553 0.83438 0.74593 0.0
O94 O 0.59702 0.79094 0.75797 0.0
C95 C 0.51378 0.80078 0.73887 0.0
C96 C 0.6325 0.80118 0.75656 0.0
O97 O 0.63108 0.89809 0.71601 0.0
Mg98 Mg 0.7584 0.6205 0.9114 0.0
O99 O 0.77914 0.61335 0.8666 0.0
O100 O 0.80292 0.57463 0.86953 0.0
Mg101 Mg 0.80115 0.56036 0.91887 0.0
C102 C 0.79384 0.59549 0.85463 0.0
C103 C 0.74639 0.67223 0.86952 0.0
O104 O 0.78304 0.68503 0.86784 0.0
O105 O 0.70816 0.56059 0.90834 0.0
O106 O 0.73616 0.52594 0.91566 0.0
O107 O 0.81497 0.67001 0.92155 0.0
O108 O 0.79829 0.61092 0.93269 0.0
C109 C 0.70651 0.52866 0.91152 0.0
C110 C 0.82393 0.64617 0.93253 0.0
O111 O 0.7266 0.64511 0.8871 0.0
Mg112 Mg 0.12876 0.75731 0.08813 0.0
O113 O 0.15555 0.77501 0.04274 0.0
O114 O 0.21852 0.8031 0.04443 0.0
Mg115 Mg 0.23218 0.80121 0.09352 0.0
C116 C 0.18766 0.79098 0.02999 0.0
C117 C 0.06532 0.74672 0.04716 0.0
O118 O 0.09042 0.78297 0.04561 0.0
O119 O 0.13844 0.70695 0.08617 0.0
O120 O 0.20156 0.73611 0.09107 0.0
O121 O 0.13659 0.81465 0.09682 0.0
O122 O 0.17899 0.79801 0.10832 0.0
C123 C 0.16929 0.70602 0.08832 0.0
C124 C 0.16956 0.82379 0.10753 0.0
O125 O 0.0717 0.72586 0.06442 0.0
Mg126 Mg 0.37711 0.1352 0.25208 0.0
O127 O 0.38393 0.16086 0.20627 0.0
O128 O 0.41857 0.22379 0.20751 0.0
Mg129 Mg 0.43586 0.23872 0.256 0.0
C130 C 0.39945 0.19286 0.19337 0.0
C131 C 0.32289 0.07018 0.21308 0.0
O132 O 0.31152 0.09514 0.21126 0.0
O133 O 0.43742 0.14532 0.24907 0.0
O134 O 0.47052 0.2084 0.25349 0.0
O135 O 0.32732 0.14233 0.26232 0.0
O136 O 0.3866 0.18573 0.27165 0.0
C137 C 0.46893 0.1764 0.2509 0.0
C138 C 0.35121 0.17572 0.2721 0.0
O139 O 0.35103 0.07741 0.2296 0.0
Mg140 Mg 0.22024 0.35074 0.42597 0.0
O141 O 0.20044 0.35634 0.38023 0.0
O142 O 0.17358 0.39242 0.38135 0.0
Mg143 Mg 0.17714 0.41092 0.42972 0.0
C144 C 0.18452 0.37248 0.36727 0.0
C145 C 0.27348 0.33811 0.38253 0.0
O146 O 0.28361 0.3728 0.37433 0.0
O147 O 0.27065 0.41029 0.42109 0.0
O148 O 0.24198 0.44483 0.42479 0.0
O149 O 0.16327 0.30226 0.43752 0.0
O150 O 0.18114 0.36217 0.44617 0.0
C151 C 0.27183 0.4422 0.42168 0.0
C152 C 0.15523 0.32713 0.44763 0.0
O153 O 0.25022 0.32295 0.4037 0.0
Mg154 Mg 0.86576 0.24168 0.61511 0.0
O155 O 0.83764 0.22303 0.57036 0.0
O156 O 0.77498 0.19783 0.57192 0.0
Mg157 Mg 0.76277 0.20302 0.62085 0.0
C158 C 0.80556 0.20804 0.5576 0.0
C159 C 0.92597 0.24452 0.57427 0.0
O160 O 0.89938 0.20872 0.57477 0.0
O161 O 0.8601 0.29462 0.61068 0.0
O162 O 0.79717 0.26738 0.61604 0.0
O163 O 0.85311 0.18269 0.62611 0.0
O164 O 0.81494 0.20498 0.63629 0.0
C165 C 0.82982 0.29669 0.6125 0.0
C166 C 0.82123 0.17713 0.63672 0.0
O167 O 0.92202 0.26796 0.5903 0.0
H168 H 0.10677 0.63438 0.08634 0.0
H169 H 0.23162 0.5327 0.09283 0.0
H170 H 0.22915 0.69338 0.0906 0.0
H171 H 0.10913 0.47094 0.09144 0.0
H172 H 0.2305 0.59176 0.09222 0.0
H173 H 0.10634 0.5741 0.08787 0.0
C174 C 0.13352 0.63472 0.08752 0.0
C175 C 0.16805 0.66909 0.08836 0.0
C176 C 0.20381 0.56533 0.09211 0.0
C177 C 0.1677 0.60028 0.09021 0.0
C178 C 0.20442 0.53149 0.09248 0.0
C179 C 0.17041 0.49668 0.09211 0.0
C180 C 0.16895 0.56457 0.09128 0.0
C181 C 0.13607 0.49708 0.09174 0.0
C182 C 0.13323 0.60029 0.08846 0.0
C183 C 0.20181 0.66771 0.08993 0.0
N184 N 0.13621 0.53052 0.09125 0.0
N185 N 0.20074 0.63395 0.09081 0.0
H186 H 0.70474 0.24528 0.27001 0.0
H187 H 0.47964 0.11483 0.25477 0.0
H188 H 0.64796 0.12311 0.27251 0.0
H189 H 0.5407 0.23695 0.2496 0.0
H190 H 0.54024 0.11619 0.26058 0.0
H191 H 0.64395 0.24172 0.26287 0.0
C192 C 0.67947 0.21762 0.26917 0.0
C193 C 0.68159 0.18443 0.27181 0.0
C194 C 0.54024 0.14261 0.25805 0.0
C195 C 0.61145 0.18015 0.26343 0.0
C196 C 0.5057 0.14186 0.2546 0.0
C197 C 0.505 0.17583 0.25185 0.0
C198 C 0.57419 0.17756 0.25872 0.0
C199 C 0.53968 0.21002 0.25185 0.0
C200 C 0.64465 0.21561 0.26499 0.0
C201 C 0.6477 0.14945 0.27058 0.0
N202 N 0.57272 0.20996 0.25534 0.0
N203 N 0.61397 0.14821 0.26642 0.0
H204 H 0.44193 0.67595 0.40295 0.0
H205 H 0.3433 0.45086 0.4165 0.0
H206 H 0.50665 0.6183 0.40763 0.0
H207 H 0.28436 0.51438 0.41956 0.0
H208 H 0.40345 0.51058 0.41149 0.0
H209 H 0.38401 0.61567 0.40711 0.0
C210 C 0.44406 0.65058 0.40485 0.0
C211 C 0.47938 0.65234 0.40497 0.0
C212 C 0.37727 0.51127 0.41329 0.0
C213 C 0.41251 0.58261 0.4098 0.0
C214 C 0.34295 0.47725 0.41613 0.0
C215 C 0.30866 0.47755 0.41853 0.0
C216 C 0.37715 0.54567 0.41273 0.0
C217 C 0.30995 0.51258 0.41787 0.0
C218 C 0.41079 0.61601 0.40726 0.0
C219 C 0.48005 0.6183 0.40746 0.0
N220 N 0.34354 0.54508 0.41503 0.0
N221 N 0.44702 0.58472 0.40979 0.0
H222 H 0.88616 0.53154 0.5851 0.0
H223 H 0.77278 0.31117 0.62366 0.0
H224 H 0.76422 0.46181 0.58971 0.0
H225 H 0.89017 0.36654 0.5965 0.0
H226 H 0.7729 0.37004 0.61744 0.0
H227 H 0.89147 0.47478 0.59416 0.0
C228 C 0.86059 0.50444 0.58799 0.0
C229 C 0.82467 0.50146 0.58659 0.0
C230 C 0.79872 0.36951 0.61274 0.0
C231 C 0.83063 0.43702 0.59716 0.0
C232 C 0.79873 0.33576 0.61633 0.0
C233 C 0.83142 0.33366 0.61021 0.0
C234 C 0.8316 0.40179 0.60289 0.0
C235 C 0.86427 0.36685 0.60128 0.0
C236 C 0.86368 0.47217 0.5931 0.0
C237 C 0.79252 0.46567 0.59046 0.0
N238 N 0.86351 0.39969 0.59771 0.0
N239 N 0.79633 0.43505 0.59562 0.0
H240 H 0.44078 0.74172 0.74032 0.0
H241 H 0.34589 0.87254 0.75068 0.0
H242 H 0.50575 0.86393 0.73927 0.0
H243 H 0.28289 0.75036 0.74705 0.0
H244 H 0.40492 0.87052 0.74768 0.0
H245 H 0.38278 0.74495 0.74343 0.0
C246 C 0.44292 0.76929 0.74067 0.0
C247 C 0.47833 0.80261 0.73956 0.0
C248 C 0.37814 0.8442 0.74757 0.0
C249 C 0.41168 0.80649 0.74326 0.0
C250 C 0.34441 0.84531 0.74937 0.0
C251 C 0.30927 0.81157 0.74906 0.0
C252 C 0.37671 0.80912 0.74552 0.0
C253 C 0.30919 0.77713 0.74728 0.0
C254 C 0.40969 0.7711 0.74247 0.0
C255 C 0.47912 0.83749 0.74005 0.0
N256 N 0.34232 0.77683 0.74556 0.0
N257 N 0.44629 0.83851 0.74193 0.0
H258 H 0.53066 0.29484 0.9147 0.0
H259 H 0.63535 0.52095 0.90848 0.0
H260 H 0.46992 0.35664 0.9154 0.0
H261 H 0.69256 0.45589 0.91377 0.0
H262 H 0.57435 0.4618 0.90959 0.0
H263 H 0.59009 0.35435 0.91339 0.0
C264 C 0.52974 0.32094 0.91463 0.0
C265 C 0.4951 0.32063 0.91511 0.0
C266 C 0.60032 0.4606 0.91049 0.0
C267 C 0.56354 0.38931 0.91353 0.0
C268 C 0.63515 0.49431 0.90977 0.0
C269 C 0.66921 0.49346 0.9111 0.0
C270 C 0.59962 0.42586 0.91245 0.0
C271 C 0.66716 0.45809 0.91279 0.0
C272 C 0.56383 0.35503 0.91387 0.0
C273 C 0.49594 0.35551 0.91508 0.0
N274 N 0.63303 0.42583 0.91343 0.0
N275 N 0.52966 0.38851 0.91422 0.0
H276 H 0.15608 0.27032 0.06696 0.0
H277 H 0.33126 0.31972 0.96005 0.0
H278 H 0.23557 0.38392 0.03837 0.0
H279 H 0.25627 0.20827 0.99515 0.0
H280 H 0.29803 0.3445 0.98956 0.0
H281 H 0.19421 0.24769 0.04215 0.0
C282 C 0.18175 0.29057 0.05568 0.0
C283 C 0.19259 0.32903 0.05465 0.0
C284 C 0.289 0.31466 0.99086 0.0
C285 C 0.23623 0.30329 0.02589 0.0
C286 C 0.3079 0.3005 0.97397 0.0
C287 C 0.29639 0.26183 0.97499 0.0
C288 C 0.25834 0.28993 0.00877 0.0
C289 C 0.26604 0.23824 0.99352 0.0
C290 C 0.20351 0.27763 0.04147 0.0
C291 C 0.22616 0.354 0.03974 0.0
N292 N 0.24802 0.25263 0.00955 0.0
N293 N 0.24665 0.34066 0.02575 0.0
H294 H 0.8995 0.17831 0.25858 0.0
H295 H 0.0113 0.33835 0.13693 0.0
H296 H 0.86296 0.25548 0.22834 0.0
H297 H 0.04611 0.26022 0.16822 0.0
H298 H 0.95938 0.31194 0.17284 0.0
H299 H 0.95701 0.21266 0.22917 0.0
C300 C 0.90383 0.20283 0.24609 0.0
C301 C 0.87623 0.21381 0.24568 0.0
C302 C 0.97849 0.3007 0.17186 0.0
C303 C 0.94172 0.25292 0.21153 0.0
C304 C 0.008 0.31564 0.15128 0.0
C305 C 0.03286 0.30123 0.14937 0.0
C306 C 0.9739 0.2712 0.19061 0.0
C307 C 0.02747 0.27203 0.1687 0.0
C308 C 0.93662 0.22235 0.22917 0.0
C309 C 0.88343 0.24591 0.22919 0.0
N310 N -0.00144 0.25794 0.1884 0.0
N311 N 0.91529 0.26409 0.21248 0.0
H312 H 0.58112 0.83165 0.35458 0.0
H313 H 0.74693 0.04537 0.33197 0.0
H314 H 0.69649 0.87437 0.38363 0.0
H315 H 0.63558 0.00016 0.29329 0.0
H316 H 0.72683 0.98445 0.35518 0.0
H317 H 0.59859 0.89458 0.33625 0.0
C318 C 0.61007 0.85435 0.35738 0.0
C319 C 0.63743 0.84776 0.37068 0.0
C320 C 0.70671 0.98781 0.34169 0.0
C321 C 0.65763 0.91979 0.3495 0.0
C322 C 0.71814 0.02265 0.3284 0.0
C323 C 0.69296 0.02783 0.31041 0.0
C324 C 0.66978 0.95777 0.33705 0.0
C325 C 0.65597 -0.00262 0.30684 0.0
C326 C 0.62004 0.89024 0.34677 0.0
C327 C 0.67453 0.87816 0.37345 0.0
N328 N 0.64552 0.96354 0.31996 0.0
N329 N 0.68357 0.91286 0.36288 0.0
H330 H 0.60462 0.63411 0.48069 0.0
H331 H 0.81755 0.71167 0.53398 0.0
H332 H 0.70051 0.73004 0.44034 0.0
H333 H 0.73187 0.59385 0.54152 0.0
H334 H 0.77209 0.72334 0.50713 0.0
H335 H 0.64863 0.6227 0.51016 0.0
C336 C 0.63487 0.65264 0.47795 0.0
C337 C 0.64894 0.6829 0.45792 0.0
C338 C 0.76329 0.69499 0.51488 0.0
C339 C 0.69914 0.67058 0.4919 0.0
C340 C 0.78909 0.68836 0.53036 0.0
C341 C 0.77855 0.6517 0.54003 0.0
C342 C 0.72654 0.66488 0.50944 0.0
C343 C 0.74131 0.62252 0.53454 0.0
C344 C 0.65989 0.64614 0.49475 0.0
C345 C 0.68841 0.70616 0.45531 0.0
N346 N 0.71661 0.62974 0.51966 0.0
N347 N 0.71212 0.69969 0.47227 0.0
H348 H 0.97325 0.66535 0.61888 0.0
H349 H 0.09946 0.83302 0.7314 0.0
H350 H 0.93987 0.74307 0.65345 0.0
H351 H 0.13005 0.75152 0.70087 0.0
H352 H 0.03952 0.79873 0.70466 0.0
H353 H 0.03011 0.69551 0.64971 0.0
C354 C 0.9779 0.6888 0.6329 0.0
C355 C 0.95183 0.70182 0.63347 0.0
C356 C 0.0592 0.78815 0.70399 0.0
C357 C 0.01677 0.73634 0.66893 0.0
C358 C 0.0934 0.80767 0.71934 0.0
C359 C 0.11987 0.7952 0.71828 0.0
C360 C 0.0515 0.75606 0.6873 0.0
C361 C 0.11048 0.76217 0.70231 0.0
C362 C 0.01031 0.70592 0.65059 0.0
C363 C 0.95924 0.73218 0.65219 0.0
N364 N 0.0772 0.74391 0.68726 0.0
N365 N -0.00895 0.74845 0.66911 0.0
H366 H 0.20126 0.93977 0.83228 0.0
H367 H 0.38165 0.14214 0.86624 0.0
H368 H 0.31136 0.97838 0.79331 0.0
H369 H 0.26868 0.10654 0.89778 0.0
H370 H 0.35814 0.08011 0.84349 0.0
H371 H 0.2272 -0.00154 0.86017 0.0
C372 C 0.23097 0.96058 0.8296 0.0
C373 C 0.25412 0.95426 0.81021 0.0
C374 C 0.33855 0.08578 0.85555 0.0
C375 C 0.28406 0.02173 0.84224 0.0
C376 C 0.35197 0.12114 0.86869 0.0
C377 C 0.32704 0.12957 0.88389 0.0
C378 C 0.29992 0.05862 0.85764 0.0
C379 C 0.28887 0.10132 0.88618 0.0
C380 C 0.24577 -0.00586 0.84559 0.0
C381 C 0.29246 0.98218 0.80788 0.0
N382 N 0.27645 0.06717 0.87308 0.0
N383 N 0.30621 0.01482 0.82363 0.0
H384 H 0.78107 0.72824 0.82853 0.0
H385 H 0.59314 0.7342 0.78665 0.0
H386 H 0.67148 0.65329 0.86682 0.0
H387 H 0.70487 0.81363 0.75418 0.0
H388 H 0.61967 0.69952 0.81186 0.0
H389 H 0.75212 0.75566 0.79747 0.0
C390 C 0.75087 0.71753 0.83044 0.0
C391 C 0.72872 0.68864 0.85052 0.0
C392 C 0.63829 0.72434 0.799 0.0
C393 C 0.69528 0.71991 0.81482 0.0
C394 C 0.62315 0.74405 0.78448 0.0
C395 C 0.64691 0.77703 0.76849 0.0
C396 C 0.67744 0.73775 0.79747 0.0
C397 C 0.68555 0.7885 0.76644 0.0
C398 C 0.73432 0.73317 0.8126 0.0
C399 C 0.68967 0.6757 0.85179 0.0
N400 N 0.69964 0.76904 0.78094 0.0
N401 N 0.67419 0.69156 0.83425 0.0
H402 H 0.8486 0.60395 0.96229 0.0
H403 H 0.04566 0.78478 0.00805 0.0
H404 H 0.88492 0.71794 0.93333 0.0
H405 H 0.00691 0.67297 0.04341 0.0
H406 H 0.98909 0.7594 0.97744 0.0
H407 H 0.90875 0.62725 0.98846 0.0
C408 C 0.86939 0.63381 0.96112 0.0
C409 C 0.86166 0.65909 0.94569 0.0
C410 C -0.00711 0.74033 0.99184 0.0
C411 C 0.93037 0.68594 0.97583 0.0
C412 C 0.02522 0.75482 0.00941 0.0
C413 C 0.03094 0.73099 0.02851 0.0
C414 C 0.96588 0.70165 0.99328 0.0
C415 C 0.00354 0.69239 0.02912 0.0
C416 C 0.90366 0.6471 0.9762 0.0
C417 C 0.8896 0.69747 0.94504 0.0
N418 N 0.97209 0.67891 0.01181 0.0
N419 N 0.92261 0.70973 0.96003 0.0
H420 H 0.33772 0.01128 0.21078 0.0
H421 H 0.15991 0.88555 0.10589 0.0
H422 H 0.26276 0.04832 0.17601 0.0
H423 H 0.23694 0.84897 0.13661 0.0
H424 H 0.19939 0.94668 0.12969 0.0
H425 H 0.30294 0.95253 0.18242 0.0
C426 C 0.31403 0.00711 0.19718 0.0
C427 C 0.303 0.03466 0.19592 0.0
C428 C 0.20785 0.9254 0.13106 0.0
C429 C 0.26321 0.9677 0.16342 0.0
C430 C 0.18532 0.89049 0.11742 0.0
C431 C 0.19508 0.86208 0.11933 0.0
C432 C 0.24026 0.9319 0.14692 0.0
C433 C 0.22836 0.87009 0.13454 0.0
C434 C 0.29424 0.97362 0.18096 0.0
C435 C 0.2722 0.02783 0.17782 0.0
N436 N 0.24962 0.90416 0.14794 0.0
N437 N 0.25335 -0.00496 0.1624 0.0
H438 H 0.27914 0.15747 0.28755 0.0
H439 H 0.33405 0.36343 0.34504 0.0
H440 H 0.39411 0.25104 0.28596 0.0
H441 H 0.24033 0.26116 0.38045 0.0
H442 H 0.35224 0.32468 0.31537 0.0
H443 H 0.25964 0.1978 0.31329 0.0
C444 C 0.30019 0.1866 0.2922 0.0
C445 C 0.33836 0.20088 0.2846 0.0
C446 C 0.32774 0.31085 0.3297 0.0
C447 C 0.31623 0.24698 0.31392 0.0
C448 C 0.31738 0.33287 0.3466 0.0
C449 C 0.28584 0.31545 0.36537 0.0
C450 C 0.30592 0.27122 0.33119 0.0
C451 C 0.2651 0.27575 0.3665 0.0
C452 C 0.28908 0.20947 0.30705 0.0
C453 C 0.36444 0.2388 0.29134 0.0
N454 N 0.27537 0.25495 0.34949 0.0
N455 N 0.35289 0.26057 0.3056 0.0
H456 H 0.13301 0.37299 0.47439 0.0
H457 H 0.94157 0.20043 0.53833 0.0
H458 H 0.09454 0.25567 0.45484 0.0
H459 H 0.98467 0.31678 0.56418 0.0
H460 H -0.00511 0.22074 0.50471 0.0
H461 H 0.07589 0.35352 0.50359 0.0
C462 C 0.11231 0.34313 0.47588 0.0
C463 C 0.11863 0.31588 0.46218 0.0
C464 C -0.00726 0.24188 0.5177 0.0
C465 C 0.05335 0.2934 0.49598 0.0
C466 C 0.9623 0.23031 0.53699 0.0
C467 C 0.95874 0.25695 0.55425 0.0
C468 C 0.01993 0.28042 0.51554 0.0
C469 C 0.98641 0.29526 0.55142 0.0
C470 C 0.07978 0.33204 0.49274 0.0
C471 C 0.09088 0.27763 0.46506 0.0
N472 N 0.01589 0.30586 0.53244 0.0
N473 N 0.05954 0.26751 0.48178 0.0
H474 H 0.75992 0.16228 0.67021 0.0
H475 H 0.67819 0.93963 0.67751 0.0
H476 H 0.81645 0.10788 0.63 0.0
H477 H 0.64976 -0.00011 0.74158 0.0
H478 H 0.72195 -0.00028 0.65402 0.0
H479 H 0.71264 0.1015 0.69077 0.0
C480 C 0.76225 0.13747 0.66553 0.0
C481 C 0.79216 0.14009 0.64835 0.0
C482 C 0.70604 -0.00026 0.67315 0.0
C483 C 0.73805 0.07049 0.67181 0.0
C484 C 0.68087 0.96547 0.68652 0.0
C485 C 0.66037 0.96475 0.71169 0.0
C486 C 0.71045 0.03355 0.68476 0.0
C487 C 0.6651 -0.00086 0.72233 0.0
C488 C 0.73534 0.10285 0.67741 0.0
C489 C 0.79391 0.10709 0.6432 0.0
N490 N 0.68967 0.03221 0.70878 0.0
N491 N 0.76709 0.07353 0.65483 0.0
H492 H 0.22591 0.35552 0.32917 0.0
H493 H 0.12604 0.37039 0.18323 0.0
H494 H 0.13898 0.3868 0.33092 0.0
H495 H 0.24274 0.39639 0.18376 0.0
H496 H 0.12443 0.36443 0.23686 0.0
H497 H 0.2261 0.35826 0.27527 0.0
C498 C 0.20653 0.36255 0.31825 0.0
C499 C 0.18235 0.37099 0.33464 0.0
C500 C 0.15035 0.37142 0.22522 0.0
C501 C 0.18248 0.37395 0.27295 0.0
C502 C 0.15134 0.37467 0.19458 0.0
C503 C 0.1847 0.38403 0.17892 0.0
C504 C 0.18269 0.37683 0.24039 0.0
C505 C 0.21654 0.38935 0.19493 0.0
C506 C 0.20693 0.36437 0.2875 0.0
C507 C 0.15812 0.3802 0.3192 0.0
N508 N 0.21469 0.38545 0.22484 0.0
N509 N 0.15867 0.38126 0.28919 0.0
H510 H 0.8647 0.24703 0.5199 0.0
H511 H 0.75514 0.14553 0.37324 0.0
H512 H 0.74522 0.16428 0.52085 0.0
H513 H 0.84777 0.2609 0.37367 0.0
H514 H 0.75564 0.14572 0.42726 0.0
H515 H 0.86352 0.24585 0.46609 0.0
C516 C 0.83821 0.22835 0.50883 0.0
C517 C 0.80492 0.20567 0.52497 0.0
C518 C 0.7758 0.17095 0.41548 0.0
C519 C 0.80366 0.20419 0.46327 0.0
C520 C 0.77575 0.17085 0.38469 0.0
C521 C 0.80156 0.20329 0.36893 0.0
C522 C 0.80235 0.2034 0.43063 0.0
C523 C 0.82735 0.23536 0.38494 0.0
C524 C 0.8376 0.22795 0.4781 0.0
C525 C 0.77147 0.18227 0.5093 0.0
N526 N 0.82732 0.2345 0.41495 0.0
N527 N 0.77173 0.18194 0.47925 0.0
H528 H 0.59549 0.84133 0.64168 0.0
H529 H 0.60083 0.73535 0.49642 0.0
H530 H 0.57119 0.72542 0.64337 0.0
H531 H 0.56909 0.82184 0.49498 0.0
H532 H 0.60136 0.73721 0.55037 0.0
H533 H 0.59706 0.84026 0.58783 0.0
C534 C 0.59071 0.81569 0.63074 0.0
C535 C 0.58318 0.78336 0.64707 0.0
C536 C 0.59435 0.75579 0.53819 0.0
C537 C 0.58526 0.78221 0.58543 0.0
C538 C 0.59428 0.75498 0.50742 0.0
C539 C 0.58486 0.7785 0.49114 0.0
C540 C 0.58568 0.7808 0.55282 0.0
C541 C 0.57638 0.80315 0.50664 0.0
C542 C 0.59142 0.8151 0.60001 0.0
C543 C 0.57695 0.7509 0.63165 0.0
N544 N 0.5772 0.80381 0.53664 0.0
N545 N 0.57837 0.75121 0.60163 0.0
H546 H 0.83559 0.65978 0.66999 0.0
H547 H 0.78651 0.53977 0.81702 0.0
H548 H 0.7492 0.54182 0.67188 0.0
H549 H 0.80849 0.65483 0.81853 0.0
H550 H 0.7855 0.54123 0.76281 0.0
H551 H 0.83741 0.65981 0.72417 0.0
C552 C 0.81679 0.63403 0.68183 0.0
C553 C 0.79194 0.60083 0.66652 0.0
C554 C 0.79077 0.56616 0.77513 0.0
C555 C 0.79492 0.60041 0.72809 0.0
C556 C 0.79175 0.56549 0.80594 0.0
C557 C 0.79762 0.59724 0.82219 0.0
C558 C 0.79664 0.59908 0.76059 0.0
C559 C 0.80378 0.62974 0.80677 0.0
C560 C 0.81792 0.63407 0.71263 0.0
C561 C 0.76838 0.56812 0.68288 0.0
N562 N 0.80337 0.62993 0.77679 0.0
N563 N 0.77079 0.56858 0.71282 0.0
H564 H 0.1418 0.73666 0.8445 0.0
H565 H 0.24724 0.83719 0.99374 0.0
H566 H 0.23306 0.85269 0.84704 0.0
H567 H 0.12958 0.7493 0.99187 0.0
H568 H 0.2471 0.83855 0.93957 0.0
H569 H 0.14119 0.73586 0.8987 0.0
C570 C 0.16164 0.7619 0.85641 0.0
C571 C 0.1874 0.79479 0.8412 0.0
C572 C 0.22134 0.81908 0.95113 0.0
C573 C 0.18727 0.79385 0.90296 0.0
C574 C 0.22144 0.81823 0.98198 0.0
C575 C 0.18838 0.79321 0.99736 0.0
C576 C 0.18821 0.7942 0.93562 0.0
C577 C 0.15569 0.76925 0.98096 0.0
C578 C 0.16122 0.76146 0.88727 0.0
C579 C 0.21252 0.82676 0.8578 0.0
N580 N 0.15651 0.77012 0.951 0.0
N581 N 0.21203 0.82539 0.88774 0.0
H582 H 0.41031 0.25213 0.15794 0.0
H583 H 0.40523 0.15068 0.00697 0.0
H584 H 0.38263 0.13522 0.1547 0.0
H585 H 0.37761 0.23998 0.0119 0.0
H586 H 0.40567 0.14859 0.06112 0.0
H587 H 0.40716 0.25251 0.1039 0.0
C588 C 0.40356 0.22658 0.14589 0.0
C589 C 0.39665 0.1936 0.16085 0.0
C590 C 0.39936 0.16848 0.05023 0.0
C591 C 0.39358 0.19403 0.09921 0.0
C592 C 0.39921 0.16976 0.0194 0.0
C593 C 0.39131 0.19547 0.00489 0.0
C594 C 0.39237 0.19364 0.06657 0.0
C595 C 0.38366 0.21955 0.02212 0.0
C596 C 0.40165 0.22678 0.11512 0.0
C597 C 0.38795 0.16123 0.1441 0.0
N598 N 0.38472 0.21828 0.05203 0.0
N599 N 0.38699 0.16236 0.11416 0.0
loop_
_geom_bond_atom_site_label_1
_geom_bond_atom_site_label_2
_geom_bond_distance
_geom_bond_site_symmetry_2
_ccdc_geom_bond_type
Mg0 O1 2.028 . S
Mg0 O7 1.986 . S
Mg0 O9 2.114 . S
Mg0 O10 2.251 . S
Mg0 O13 2.010 . S
O1 Mg0 2.028 . S
O1 C4 1.250 . S
O2 Mg3 2.028 . S
O2 C4 1.248 . S
Mg3 O2 2.028 . S
Mg3 O8 2.032 . S
Mg3 O10 2.079 . S
C4 O1 1.250 . S
C4 O2 1.248 . S
C5 O6 1.264 . S
C5 O13 1.249 1_655 S
O6 C5 1.264 . S
O7 Mg0 1.986 . S
O7 C11 1.246 . S
O8 Mg3 2.032 . S
O8 C11 1.259 . S
O9 Mg0 2.114 . S
O9 C12 1.252 . S
O10 Mg0 2.251 . S
O10 Mg3 2.079 . S
O10 C12 1.273 . S
C11 O7 1.246 . S
C11 O8 1.259 . S
C12 O9 1.252 . S
C12 O10 1.273 . S
O13 Mg0 2.010 . S
O13 C5 1.249 1_455 S
Mg14 O15 2.028 . S
Mg14 O21 1.986 . S
Mg14 O23 2.114 . S
Mg14 O24 2.251 . S
Mg14 O27 2.010 . S
O15 Mg14 2.028 . S
O15 C18 1.250 . S
O16 Mg17 2.028 . S
O16 C18 1.248 . S
Mg17 O16 2.028 . S
Mg17 O22 2.032 . S
Mg17 O24 2.079 . S
C18 O15 1.250 . S
C18 O16 1.248 . S
C19 O20 1.264 . S
C19 O27 1.249 1_565 S
O20 C19 1.264 . S
O21 Mg14 1.986 . S
O21 C25 1.246 . S
O22 Mg17 2.032 . S
O22 C25 1.259 . S
O23 Mg14 2.114 . S
O23 C26 1.252 . S
O24 Mg14 2.251 . S
O24 Mg17 2.079 . S
O24 C26 1.273 . S
C25 O21 1.246 . S
C25 O22 1.259 . S
C26 O23 1.252 . S
C26 O24 1.273 . S
O27 Mg14 2.010 . S
O27 C19 1.249 1_545 S
Mg28 O29 2.028 . S
Mg28 O35 1.986 . S
Mg28 O37 2.114 . S
Mg28 O38 2.251 . S
Mg28 O41 2.010 . S
O29 Mg28 2.028 . S
O29 C32 1.250 . S
O30 Mg31 2.028 . S
O30 C32 1.248 . S
Mg31 O30 2.028 . S
Mg31 O36 2.032 . S
Mg31 O38 2.079 . S
C32 O29 1.250 . S
C32 O30 1.248 . S
C33 O34 1.264 . S
C33 O41 1.249 . S
O34 C33 1.264 . S
O35 Mg28 1.986 . S
O35 C39 1.246 . S
O36 Mg31 2.032 . S
O36 C39 1.259 . S
O37 Mg28 2.114 . S
O37 C40 1.252 . S
O38 Mg28 2.251 . S
O38 Mg31 2.079 . S
O38 C40 1.273 . S
C39 O35 1.246 . S
C39 O36 1.259 . S
C40 O37 1.252 . S
C40 O38 1.273 . S
O41 Mg28 2.010 . S
O41 C33 1.249 . S
Mg42 O43 2.028 . S
Mg42 O49 1.986 . S
Mg42 O51 2.114 . S
Mg42 O52 2.251 . S
Mg42 O55 2.010 . S
O43 Mg42 2.028 . S
O43 C46 1.250 . S
O44 Mg45 2.028 . S
O44 C46 1.248 . S
Mg45 O44 2.028 . S
Mg45 O50 2.032 . S
Mg45 O52 2.079 . S
C46 O43 1.250 . S
C46 O44 1.248 . S
C47 O48 1.264 . S
C47 O55 1.249 1_455 S
O48 C47 1.264 . S
O49 Mg42 1.986 . S
O49 C53 1.246 . S
O50 Mg45 2.032 . S
O50 C53 1.259 . S
O51 Mg42 2.114 . S
O51 C54 1.252 . S
O52 Mg42 2.251 . S
O52 Mg45 2.079 . S
O52 C54 1.273 . S
C53 O49 1.246 . S
C53 O50 1.259 . S
C54 O51 1.252 . S
C54 O52 1.273 . S
O55 Mg42 2.010 . S
O55 C47 1.249 1_655 S
Mg56 O57 2.028 . S
Mg56 O63 1.986 . S
Mg56 O65 2.114 . S
Mg56 O66 2.251 . S
Mg56 O69 2.010 . S
O57 Mg56 2.028 . S
O57 C60 1.250 . S
O58 Mg59 2.028 . S
O58 C60 1.248 . S
Mg59 O58 2.028 . S
Mg59 O64 2.032 . S
Mg59 O66 2.079 . S
C60 O57 1.250 . S
C60 O58 1.248 . S
C61 O62 1.264 . S
C61 O69 1.249 1_545 S
O62 C61 1.264 . S
O63 Mg56 1.986 . S
O63 C67 1.246 . S
O64 Mg59 2.032 . S
O64 C67 1.259 . S
O65 Mg56 2.114 . S
O65 C68 1.252 . S
O66 Mg56 2.251 . S
O66 Mg59 2.079 . S
O66 C68 1.273 . S
C67 O63 1.246 . S
C67 O64 1.259 . S
C68 O65 1.252 . S
C68 O66 1.273 . S
O69 Mg56 2.010 . S
O69 C61 1.249 1_565 S
Mg70 O71 2.028 . S
Mg70 O77 1.986 . S
Mg70 O79 2.114 . S
Mg70 O80 2.251 . S
Mg70 O83 2.010 . S
O71 Mg70 2.028 . S
O71 C74 1.250 . S
O72 Mg73 2.028 . S
O72 C74 1.248 . S
Mg73 O72 2.028 . S
Mg73 O78 2.032 . S
Mg73 O80 2.079 . S
C74 O71 1.250 . S
C74 O72 1.248 . S
C75 O76 1.264 . S
C75 O83 1.249 . S
O76 C75 1.264 . S
O77 Mg70 1.986 . S
O77 C81 1.246 . S
O78 Mg73 2.032 . S
O78 C81 1.259 . S
O79 Mg70 2.114 . S
O79 C82 1.252 . S
O80 Mg70 2.251 . S
O80 Mg73 2.079 . S
O80 C82 1.273 . S
C81 O77 1.246 . S
C81 O78 1.259 . S
C82 O79 1.252 . S
C82 O80 1.273 . S
O83 Mg70 2.010 . S
O83 C75 1.249 . S
Mg84 O85 2.028 . S
Mg84 O91 1.986 . S
Mg84 O93 2.114 . S
Mg84 O94 2.251 . S
Mg84 O97 2.010 . S
O85 Mg84 2.028 . S
O85 C88 1.250 . S
O86 Mg87 2.028 . S
O86 C88 1.248 . S
Mg87 O86 2.028 . S
Mg87 O92 2.032 . S
Mg87 O94 2.079 . S
C88 O85 1.250 . S
C88 O86 1.248 . S
C89 O90 1.264 . S
C89 O97 1.249 1_545 S
O90 C89 1.264 . S
O91 Mg84 1.986 . S
O91 C95 1.246 . S
O92 Mg87 2.032 . S
O92 C95 1.259 . S
O93 Mg84 2.114 . S
O93 C96 1.252 . S
O94 Mg84 2.251 . S
O94 Mg87 2.079 . S
O94 C96 1.273 . S
C95 O91 1.246 . S
C95 O92 1.259 . S
C96 O93 1.252 . S
C96 O94 1.273 . S
O97 Mg84 2.010 . S
O97 C89 1.249 1_565 S
Mg98 O99 2.028 . S
Mg98 O105 1.986 . S
Mg98 O107 2.114 . S
Mg98 O108 2.251 . S
Mg98 O111 2.010 . S
O99 Mg98 2.028 . S
O99 C102 1.250 . S
O100 Mg101 2.028 . S
O100 C102 1.248 . S
Mg101 O100 2.028 . S
Mg101 O106 2.032 . S
Mg101 O108 2.079 . S
C102 O99 1.250 . S
C102 O100 1.248 . S
C103 O104 1.264 . S
C103 O111 1.249 . S
O104 C103 1.264 . S
O105 Mg98 1.986 . S
O105 C109 1.246 . S
O106 Mg101 2.032 . S
O106 C109 1.259 . S
O107 Mg98 2.114 . S
O107 C110 1.252 . S
O108 Mg98 2.251 . S
O108 Mg101 2.079 . S
O108 C110 1.273 . S
C109 O105 1.246 . S
C109 O106 1.259 . S
C110 O107 1.252 . S
C110 O108 1.273 . S
O111 Mg98 2.010 . S
O111 C103 1.249 . S
Mg112 O113 2.028 . S
Mg112 O119 1.986 . S
Mg112 O121 2.114 . S
Mg112 O122 2.251 . S
Mg112 O125 2.010 . S
O113 Mg112 2.028 . S
O113 C116 1.250 . S
O114 Mg115 2.028 . S
O114 C116 1.248 . S
Mg115 O114 2.028 . S
Mg115 O120 2.032 . S
Mg115 O122 2.079 . S
C116 O113 1.250 . S
C116 O114 1.248 . S
C117 O118 1.264 . S
C117 O125 1.249 1_655 S
O118 C117 1.264 . S
O119 Mg112 1.986 . S
O119 C123 1.246 . S
O120 Mg115 2.032 . S
O120 C123 1.259 . S
O121 Mg112 2.114 . S
O121 C124 1.252 . S
O122 Mg112 2.251 . S
O122 Mg115 2.079 . S
O122 C124 1.273 . S
C123 O119 1.246 . S
C123 O120 1.259 . S
C124 O121 1.252 . S
C124 O122 1.273 . S
O125 Mg112 2.010 . S
O125 C117 1.249 1_455 S
Mg126 O127 2.028 . S
Mg126 O133 1.986 . S
Mg126 O135 2.114 . S
Mg126 O136 2.251 . S
Mg126 O139 2.010 . S
O127 Mg126 2.028 . S
O127 C130 1.250 . S
O128 Mg129 2.028 . S
O128 C130 1.248 . S
Mg129 O128 2.028 . S
Mg129 O134 2.032 . S
Mg129 O136 2.079 . S
C130 O127 1.250 . S
C130 O128 1.248 . S
C131 O132 1.264 . S
C131 O139 1.249 1_565 S
O132 C131 1.264 . S
O133 Mg126 1.986 . S
O133 C137 1.246 . S
O134 Mg129 2.032 . S
O134 C137 1.259 . S
O135 Mg126 2.114 . S
O135 C138 1.252 . S
O136 Mg126 2.251 . S
O136 Mg129 2.079 . S
O136 C138 1.273 . S
C137 O133 1.246 . S
C137 O134 1.259 . S
C138 O135 1.252 . S
C138 O136 1.273 . S
O139 Mg126 2.010 . S
O139 C131 1.249 1_545 S
Mg140 O141 2.028 . S
Mg140 O147 1.986 . S
Mg140 O149 2.114 . S
Mg140 O150 2.251 . S
Mg140 O153 2.010 . S
O141 Mg140 2.028 . S
O141 C144 1.250 . S
O142 Mg143 2.028 . S
O142 C144 1.248 . S
Mg143 O142 2.028 . S
Mg143 O148 2.032 . S
Mg143 O150 2.079 . S
C144 O141 1.250 . S
C144 O142 1.248 . S
C145 O146 1.264 . S
C145 O153 1.249 . S
O146 C145 1.264 . S
O147 Mg140 1.986 . S
O147 C151 1.246 . S
O148 Mg143 2.032 . S
O148 C151 1.259 . S
O149 Mg140 2.114 . S
O149 C152 1.252 . S
O150 Mg140 2.251 . S
O150 Mg143 2.079 . S
O150 C152 1.273 . S
C151 O147 1.246 . S
C151 O148 1.259 . S
C152 O149 1.252 . S
C152 O150 1.273 . S
O153 Mg140 2.010 . S
O153 C145 1.249 . S
Mg154 O155 2.028 . S
Mg154 O161 1.986 . S
Mg154 O163 2.114 . S
Mg154 O164 2.251 . S
Mg154 O167 2.010 . S
O155 Mg154 2.028 . S
O155 C158 1.250 . S
O156 Mg157 2.028 . S
O156 C158 1.248 . S
Mg157 O156 2.028 . S
Mg157 O162 2.032 . S
Mg157 O164 2.079 . S
C158 O155 1.250 . S
C158 O156 1.248 . S
C159 O160 1.264 . S
C159 O167 1.249 1_455 S
O160 C159 1.264 . S
O161 Mg154 1.986 . S
O161 C165 1.246 . S
O162 Mg157 2.032 . S
O162 C165 1.259 . S
O163 Mg154 2.114 . S
O163 C166 1.252 . S
O164 Mg154 2.251 . S
O164 Mg157 2.079 . S
O164 C166 1.273 . S
C165 O161 1.246 . S
C165 O162 1.259 . S
C166 O163 1.252 . S
C166 O164 1.273 . S
O167 Mg154 2.010 . S
O167 C159 1.249 1_655 S
H168 C174 0.930 . S
H169 C178 0.930 . S
H170 C183 0.929 . S
H171 C181 0.929 . S
H172 C176 0.929 . S
H173 C182 0.929 . S
C174 H168 0.930 . S
C174 C175 1.367 . S
C174 C182 1.378 . S
C175 C174 1.367 . S
C175 C183 1.433 . S
C176 H172 0.929 . S
C176 C178 1.378 . S
C176 C180 1.350 . S
C177 C180 1.463 . S
C177 C182 1.350 . S
C177 N185 1.427 . S
C178 H169 0.930 . S
C178 C176 1.378 . S
C178 C179 1.367 . S
C179 C178 1.367 . S
C179 C181 1.433 . S
C180 C176 1.350 . S
C180 C177 1.463 . S
C180 N184 1.427 . S
C181 H171 0.929 . S
C181 C179 1.433 . S
C181 N184 1.384 . S
C182 H173 0.929 . S
C182 C174 1.378 . S
C182 C177 1.350 . S
C183 H170 0.929 . S
C183 C175 1.433 . S
C183 N185 1.384 . S
N184 C180 1.427 . S
N184 C181 1.384 . S
N185 C177 1.427 . S
N185 C183 1.384 . S
H186 C192 0.930 . S
H187 C196 0.930 . S
H188 C201 0.929 . S
H189 C199 0.929 . S
H190 C194 0.929 . S
H191 C200 0.929 . S
C192 H186 0.930 . S
C192 C193 1.367 . S
C192 C200 1.378 . S
C193 C192 1.367 . S
C193 C201 1.433 . S
C194 H190 0.929 . S
C194 C196 1.378 . S
C194 C198 1.350 . S
C195 C198 1.463 . S
C195 C200 1.350 . S
C195 N203 1.427 . S
C196 H187 0.930 . S
C196 C194 1.378 . S
C196 C197 1.367 . S
C197 C196 1.367 . S
C197 C199 1.433 . S
C198 C194 1.350 . S
C198 C195 1.463 . S
C198 N202 1.427 . S
C199 H189 0.929 . S
C199 C197 1.433 . S
C199 N202 1.384 . S
C200 H191 0.929 . S
C200 C192 1.378 . S
C200 C195 1.350 . S
C201 H188 0.929 . S
C201 C193 1.433 . S
C201 N203 1.384 . S
N202 C198 1.427 . S
N202 C199 1.384 . S
N203 C195 1.427 . S
N203 C201 1.384 . S
H204 C210 0.930 . S
H205 C214 0.930 . S
H206 C219 0.929 . S
H207 C217 0.929 . S
H208 C212 0.929 . S
H209 C218 0.929 . S
C210 H204 0.930 . S
C210 C211 1.367 . S
C210 C218 1.378 . S
C211 C210 1.367 . S
C211 C219 1.433 . S
C212 H208 0.929 . S
C212 C214 1.378 . S
C212 C216 1.350 . S
C213 C216 1.463 . S
C213 C218 1.350 . S
C213 N221 1.427 . S
C214 H205 0.930 . S
C214 C212 1.378 . S
C214 C215 1.367 . S
C215 C214 1.367 . S
C215 C217 1.433 . S
C216 C212 1.350 . S
C216 C213 1.463 . S
C216 N220 1.427 . S
C217 H207 0.929 . S
C217 C215 1.433 . S
C217 N220 1.384 . S
C218 H209 0.929 . S
C218 C210 1.378 . S
C218 C213 1.350 . S
C219 H206 0.929 . S
C219 C211 1.433 . S
C219 N221 1.384 . S
N220 C216 1.427 . S
N220 C217 1.384 . S
N221 C213 1.427 . S
N221 C219 1.384 . S
H222 C228 0.930 . S
H223 C232 0.930 . S
H224 C237 0.929 . S
H225 C235 0.929 . S
H226 C230 0.929 . S
H227 C236 0.929 . S
C228 H222 0.930 . S
C228 C229 1.367 . S
C228 C236 1.378 . S
C229 C228 1.367 . S
C229 C237 1.433 . S
C230 H226 0.929 . S
C230 C232 1.378 . S
C230 C234 1.350 . S
C231 C234 1.463 . S
C231 C236 1.350 . S
C231 N239 1.427 . S
C232 H223 0.930 . S
C232 C230 1.378 . S
C232 C233 1.367 . S
C233 C232 1.367 . S
C233 C235 1.433 . S
C234 C230 1.350 . S
C234 C231 1.463 . S
C234 N238 1.427 . S
C235 H225 0.929 . S
C235 C233 1.433 . S
C235 N238 1.384 . S
C236 H227 0.929 . S
C236 C228 1.378 . S
C236 C231 1.350 . S
C237 H224 0.929 . S
C237 C229 1.433 . S
C237 N239 1.384 . S
N238 C234 1.427 . S
N238 C235 1.384 . S
N239 C231 1.427 . S
N239 C237 1.384 . S
H240 C246 0.930 . S
H241 C250 0.930 . S
H242 C255 0.929 . S
H243 C253 0.929 . S
H244 C248 0.929 . S
H245 C254 0.929 . S
C246 H240 0.930 . S
C246 C247 1.367 . S
C246 C254 1.378 . S
C247 C246 1.367 . S
C247 C255 1.433 . S
C248 H244 0.929 . S
C248 C250 1.378 . S
C248 C252 1.350 . S
C249 C252 1.463 . S
C249 C254 1.350 . S
C249 N257 1.427 . S
C250 H241 0.930 . S
C250 C248 1.378 . S
C250 C251 1.367 . S
C251 C250 1.367 . S
C251 C253 1.433 . S
C252 C248 1.350 . S
C252 C249 1.463 . S
C252 N256 1.427 . S
C253 H243 0.929 . S
C253 C251 1.433 . S
C253 N256 1.384 . S
C254 H245 0.929 . S
C254 C246 1.378 . S
C254 C249 1.350 . S
C255 H242 0.929 . S
C255 C247 1.433 . S
C255 N257 1.384 . S
N256 C252 1.427 . S
N256 C253 1.384 . S
N257 C249 1.427 . S
N257 C255 1.384 . S
H258 C264 0.930 . S
H259 C268 0.930 . S
H260 C273 0.929 . S
H261 C271 0.929 . S
H262 C266 0.929 . S
H263 C272 0.929 . S
C264 H258 0.930 . S
C264 C265 1.367 . S
C264 C272 1.378 . S
C265 C264 1.367 . S
C265 C273 1.433 . S
C266 H262 0.929 . S
C266 C268 1.378 . S
C266 C270 1.350 . S
C267 C270 1.463 . S
C267 C272 1.350 . S
C267 N275 1.427 . S
C268 H259 0.930 . S
C268 C266 1.378 . S
C268 C269 1.367 . S
C269 C268 1.367 . S
C269 C271 1.433 . S
C270 C266 1.350 . S
C270 C267 1.463 . S
C270 N274 1.427 . S
C271 H261 0.929 . S
C271 C269 1.433 . S
C271 N274 1.384 . S
C272 H263 0.929 . S
C272 C264 1.378 . S
C272 C267 1.350 . S
C273 H260 0.929 . S
C273 C265 1.433 . S
C273 N275 1.384 . S
N274 C270 1.427 . S
N274 C271 1.384 . S
N275 C267 1.427 . S
N275 C273 1.384 . S
H276 C282 0.930 . S
H277 C286 0.930 . S
H278 C291 0.929 . S
H279 C289 0.929 . S
H280 C284 0.929 . S
H281 C290 0.929 . S
C282 H276 0.930 . S
C282 C283 1.367 . S
C282 C290 1.378 . S
C283 C282 1.367 . S
C283 C291 1.433 . S
C284 H280 0.929 . S
C284 C286 1.378 . S
C284 C288 1.350 . S
C285 C288 1.463 . S
C285 C290 1.350 . S
C285 N293 1.427 . S
C286 H277 0.930 . S
C286 C284 1.378 . S
C286 C287 1.367 1_554 S
C287 C286 1.367 1_556 S
C287 C289 1.433 . S
C288 C284 1.350 . S
C288 C285 1.463 . S
C288 N292 1.427 1_554 S
C289 H279 0.929 . S
C289 C287 1.433 . S
C289 N292 1.384 . S
C290 H281 0.929 . S
C290 C282 1.378 . S
C290 C285 1.350 . S
C291 H278 0.929 . S
C291 C283 1.433 . S
C291 N293 1.384 . S
N292 C288 1.427 1_556 S
N292 C289 1.384 . S
N293 C285 1.427 . S
N293 C291 1.384 . S
H294 C300 0.930 . S
H295 C304 0.930 . S
H296 C309 0.929 . S
H297 C307 0.939 . S
H298 C302 0.929 . S
H299 C308 0.929 . S
C300 H294 0.930 . S
C300 C301 1.367 . S
C300 C308 1.378 . S
C301 C300 1.367 . S
C301 C309 1.433 . S
C302 H298 0.929 . S
C302 C304 1.378 . S
C302 C306 1.350 . S
C303 C306 1.463 . S
C303 C308 1.350 . S
C303 N311 1.427 . S
C304 H295 0.930 . S
C304 C302 1.378 . S
C304 C305 1.367 . S
C305 C304 1.367 . S
C305 C307 1.433 . S
C306 C302 1.350 . S
C306 C303 1.463 . S
C306 N310 1.427 . S
C307 H297 0.939 . S
C307 C305 1.433 . S
C307 N310 1.384 . S
C308 H299 0.929 . S
C308 C300 1.378 . S
C308 C303 1.350 . S
C309 H296 0.929 . S
C309 C301 1.433 . S
C309 N311 1.384 . S
N310 C306 1.427 . S
N310 C307 1.384 . S
N311 C303 1.427 . S
N311 C309 1.384 . S
H312 C318 0.930 . S
H313 C322 0.930 1_545 S
H314 C327 0.929 . S
H315 C325 0.929 . S
H316 C320 0.929 . S
H317 C326 0.929 . S
C318 H312 0.930 . S
C318 C319 1.367 . S
C318 C326 1.378 . S
C319 C318 1.367 . S
C319 C327 1.433 . S
C320 H316 0.929 . S
C320 C322 1.378 . S
C320 C324 1.350 . S
C321 C324 1.463 . S
C321 C326 1.350 . S
C321 N329 1.427 . S
C322 H313 0.930 1_565 S
C322 C320 1.378 . S
C322 C323 1.367 . S
C323 C322 1.367 . S
C323 C325 1.433 . S
C324 C320 1.350 . S
C324 C321 1.463 . S
C324 N328 1.427 . S
C325 H315 0.929 . S
C325 C323 1.433 . S
C325 N328 1.384 . S
C326 H317 0.929 . S
C326 C318 1.378 . S
C326 C321 1.350 . S
C327 H314 0.929 . S
C327 C319 1.433 . S
C327 N329 1.384 . S
N328 C324 1.427 . S
N328 C325 1.384 . S
N329 C321 1.427 . S
N329 C327 1.384 . S
H330 C336 0.930 . S
H331 C340 0.930 . S
H332 C345 0.929 . S
H333 C343 0.929 . S
H334 C338 0.929 . S
H335 C344 0.929 . S
C336 H330 0.930 . S
C336 C337 1.367 . S
C336 C344 1.378 . S
C337 C336 1.367 . S
C337 C345 1.433 . S
C338 H334 0.929 . S
C338 C340 1.378 . S
C338 C342 1.350 . S
C339 C342 1.463 . S
C339 C344 1.350 . S
C339 N347 1.427 . S
C340 H331 0.930 . S
C340 C338 1.378 . S
C340 C341 1.367 . S
C341 C340 1.367 . S
C341 C343 1.433 . S
C342 C338 1.350 . S
C342 C339 1.463 . S
C342 N346 1.427 . S
C343 H333 0.929 . S
C343 C341 1.433 . S
C343 N346 1.384 . S
C344 H335 0.929 . S
C344 C336 1.378 . S
C344 C339 1.350 . S
C345 H332 0.929 . S
C345 C337 1.433 . S
C345 N347 1.384 . S
N346 C342 1.427 . S
N346 C343 1.384 . S
N347 C339 1.427 . S
N347 C345 1.384 . S
H348 C354 0.930 . S
H349 C358 0.930 . S
H350 C363 0.929 . S
H351 C361 0.929 . S
H352 C356 0.929 . S
H353 C362 0.929 . S
C354 H348 0.930 . S
C354 C355 1.367 . S
C354 C362 1.378 . S
C355 C354 1.367 . S
C355 C363 1.433 . S
C356 H352 0.929 . S
C356 C358 1.378 . S
C356 C360 1.350 . S
C357 C360 1.463 . S
C357 C362 1.350 . S
C357 N365 1.427 . S
C358 H349 0.930 . S
C358 C356 1.378 . S
C358 C359 1.367 . S
C359 C358 1.367 . S
C359 C361 1.433 . S
C360 C356 1.350 . S
C360 C357 1.463 . S
C360 N364 1.427 . S
C361 H351 0.929 . S
C361 C359 1.433 . S
C361 N364 1.384 . S
C362 H353 0.929 . S
C362 C354 1.378 . S
C362 C357 1.350 . S
C363 H350 0.929 . S
C363 C355 1.433 . S
C363 N365 1.384 . S
N364 C360 1.427 . S
N364 C361 1.384 . S
N365 C357 1.427 . S
N365 C363 1.384 . S
H366 C372 0.930 . S
H367 C376 0.930 . S
H368 C381 0.929 . S
H369 C379 0.929 . S
H370 C374 0.929 . S
H371 C380 0.929 . S
C372 H366 0.930 . S
C372 C373 1.367 . S
C372 C380 1.378 . S
C373 C372 1.367 . S
C373 C381 1.433 . S
C374 H370 0.929 . S
C374 C376 1.378 . S
C374 C378 1.350 . S
C375 C378 1.463 . S
C375 C380 1.350 . S
C375 N383 1.427 . S
C376 H367 0.930 . S
C376 C374 1.378 . S
C376 C377 1.367 . S
C377 C376 1.367 . S
C377 C379 1.433 . S
C378 C374 1.350 . S
C378 C375 1.463 . S
C378 N382 1.427 . S
C379 H369 0.929 . S
C379 C377 1.433 . S
C379 N382 1.384 . S
C380 H371 0.929 . S
C380 C372 1.378 . S
C380 C375 1.350 . S
C381 H368 0.929 . S
C381 C373 1.433 . S
C381 N383 1.384 . S
N382 C378 1.427 . S
N382 C379 1.384 . S
N383 C375 1.427 . S
N383 C381 1.384 . S
H384 C390 0.930 . S
H385 C394 0.930 . S
H386 C399 0.929 . S
H387 C397 0.929 . S
H388 C392 0.929 . S
H389 C398 0.929 . S
C390 H384 0.930 . S
C390 C391 1.367 . S
C390 C398 1.378 . S
C391 C390 1.367 . S
C391 C399 1.433 . S
C392 H388 0.929 . S
C392 C394 1.378 . S
C392 C396 1.350 . S
C393 C396 1.463 . S
C393 C398 1.350 . S
C393 N401 1.427 . S
C394 H385 0.930 . S
C394 C392 1.378 . S
C394 C395 1.367 . S
C395 C394 1.367 . S
C395 C397 1.433 . S
C396 C392 1.350 . S
C396 C393 1.463 . S
C396 N400 1.427 . S
C397 H387 0.929 . S
C397 C395 1.433 . S
C397 N400 1.384 . S
C398 H389 0.929 . S
C398 C390 1.378 . S
C398 C393 1.350 . S
C399 H386 0.929 . S
C399 C391 1.433 . S
C399 N401 1.384 . S
N400 C396 1.427 . S
N400 C397 1.384 . S
N401 C393 1.427 . S
N401 C399 1.384 . S
H402 C408 0.930 . S
H403 C412 0.930 . S
H404 C417 0.929 . S
H405 C415 0.929 . S
H406 C410 0.929 . S
H407 C416 0.929 . S
C408 H402 0.930 . S
C408 C409 1.367 . S
C408 C416 1.378 . S
C409 C408 1.367 . S
C409 C417 1.433 . S
C410 H406 0.929 . S
C410 C412 1.378 . S
C410 C414 1.350 1_554 S
C411 C414 1.463 . S
C411 C416 1.350 . S
C411 N419 1.427 . S
C412 H403 0.930 . S
C412 C410 1.378 . S
C412 C413 1.367 . S
C413 C412 1.367 . S
C413 C415 1.433 1_554 S
C414 C410 1.350 1_556 S
C414 C411 1.463 . S
C414 N418 1.427 . S
C415 H405 0.929 . S
C415 C413 1.433 1_556 S
C415 N418 1.384 . S
C416 H407 0.929 . S
C416 C408 1.378 . S
C416 C411 1.350 . S
C417 H404 0.929 . S
C417 C409 1.433 . S
C417 N419 1.384 . S
N418 C414 1.427 . S
N418 C415 1.384 . S
N419 C411 1.427 . S
N419 C417 1.384 . S
H420 C426 0.930 . S
H421 C430 0.930 . S
H422 C435 0.929 . S
H423 C433 0.929 . S
H424 C428 0.929 . S
H425 C434 0.929 . S
C426 H420 0.930 . S
C426 C427 1.367 . S
C426 C434 1.378 . S
C427 C426 1.367 . S
C427 C435 1.433 . S
C428 H424 0.929 . S
C428 C430 1.378 . S
C428 C432 1.350 . S
C429 C432 1.463 . S
C429 C434 1.350 . S
C429 N437 1.427 . S
C430 H421 0.930 . S
C430 C428 1.378 . S
C430 C431 1.367 . S
C431 C430 1.367 . S
C431 C433 1.433 . S
C432 C428 1.350 . S
C432 C429 1.463 . S
C432 N436 1.427 . S
C433 H423 0.929 . S
C433 C431 1.433 . S
C433 N436 1.384 . S
C434 H425 0.929 . S
C434 C426 1.378 . S
C434 C429 1.350 . S
C435 H422 0.929 . S
C435 C427 1.433 . S
C435 N437 1.384 . S
N436 C432 1.427 . S
N436 C433 1.384 . S
N437 C429 1.427 . S
N437 C435 1.384 . S
H438 C444 0.930 . S
H439 C448 0.930 . S
H440 C453 0.929 . S
H441 C451 0.929 . S
H442 C446 0.929 . S
H443 C452 0.929 . S
C444 H438 0.930 . S
C444 C445 1.367 . S
C444 C452 1.378 . S
C445 C444 1.367 . S
C445 C453 1.433 . S
C446 H442 0.929 . S
C446 C448 1.378 . S
C446 C450 1.350 . S
C447 C450 1.463 . S
C447 C452 1.350 . S
C447 N455 1.427 . S
C448 H439 0.930 . S
C448 C446 1.378 . S
C448 C449 1.367 . S
C449 C448 1.367 . S
C449 C451 1.433 . S
C450 C446 1.350 . S
C450 C447 1.463 . S
C450 N454 1.427 . S
C451 H441 0.929 . S
C451 C449 1.433 . S
C451 N454 1.384 . S
C452 H443 0.929 . S
C452 C444 1.378 . S
C452 C447 1.350 . S
C453 H440 0.929 . S
C453 C445 1.433 . S
C453 N455 1.384 . S
N454 C450 1.427 . S
N454 C451 1.384 . S
N455 C447 1.427 . S
N455 C453 1.384 . S
H456 C462 0.930 . S
H457 C466 0.931 1_655 S
H458 C471 0.929 . S
H459 C469 0.929 . S
H460 C464 0.929 . S
H461 C470 0.929 . S
C462 H456 0.930 . S
C462 C463 1.367 . S
C462 C470 1.378 . S
C463 C462 1.367 . S
C463 C471 1.433 . S
C464 H460 0.929 . S
C464 C466 1.378 . S
C464 C468 1.350 . S
C465 C468 1.463 . S
C465 C470 1.350 . S
C465 N473 1.427 . S
C466 H457 0.931 1_455 S
C466 C464 1.378 . S
C466 C467 1.367 . S
C467 C466 1.367 . S
C467 C469 1.433 . S
C468 C464 1.350 . S
C468 C465 1.463 . S
C468 N472 1.427 . S
C469 H459 0.929 . S
C469 C467 1.433 . S
C469 N472 1.384 . S
C470 H461 0.929 . S
C470 C462 1.378 . S
C470 C465 1.350 . S
C471 H458 0.929 . S
C471 C463 1.433 . S
C471 N473 1.384 . S
N472 C468 1.427 . S
N472 C469 1.384 . S
N473 C465 1.427 . S
N473 C471 1.384 . S
H474 C480 0.930 . S
H475 C484 0.930 1_565 S
H476 C489 0.929 . S
H477 C487 0.929 . S
H478 C482 0.929 . S
H479 C488 0.929 . S
C480 H474 0.930 . S
C480 C481 1.367 . S
C480 C488 1.378 . S
C481 C480 1.367 . S
C481 C489 1.433 . S
C482 H478 0.929 . S
C482 C484 1.378 . S
C482 C486 1.350 . S
C483 C486 1.463 . S
C483 C488 1.350 . S
C483 N491 1.427 . S
C484 H475 0.930 1_545 S
C484 C482 1.378 . S
C484 C485 1.367 . S
C485 C484 1.367 . S
C485 C487 1.433 . S
C486 C482 1.350 . S
C486 C483 1.463 . S
C486 N490 1.427 . S
C487 H477 0.929 . S
C487 C485 1.433 . S
C487 N490 1.384 . S
C488 H479 0.929 . S
C488 C480 1.378 . S
C488 C483 1.350 . S
C489 H476 0.929 . S
C489 C481 1.433 . S
C489 N491 1.384 . S
N490 C486 1.427 . S
N490 C487 1.384 . S
N491 C483 1.427 . S
N491 C489 1.384 . S
H492 C498 0.930 . S
H493 C502 0.930 . S
H494 C507 0.929 . S
H495 C505 0.929 . S
H496 C500 0.929 . S
H497 C506 0.929 . S
C498 H492 0.930 . S
C498 C499 1.367 . S
C498 C506 1.378 . S
C499 C498 1.367 . S
C499 C507 1.433 . S
C500 H496 0.929 . S
C500 C502 1.378 . S
C500 C504 1.350 . S
C501 C504 1.463 . S
C501 C506 1.350 . S
C501 N509 1.427 . S
C502 H493 0.930 . S
C502 C500 1.378 . S
C502 C503 1.367 . S
C503 C502 1.367 . S
C503 C505 1.433 . S
C504 C500 1.350 . S
C504 C501 1.463 . S
C504 N508 1.427 . S
C505 H495 0.929 . S
C505 C503 1.433 . S
C505 N508 1.384 . S
C506 H497 0.929 . S
C506 C498 1.378 . S
C506 C501 1.350 . S
C507 H494 0.929 . S
C507 C499 1.433 . S
C507 N509 1.384 . S
N508 C504 1.427 . S
N508 C505 1.384 . S
N509 C501 1.427 . S
N509 C507 1.384 . S
H510 C516 0.930 . S
H511 C520 0.930 . S
H512 C525 0.929 . S
H513 C523 0.929 . S
H514 C518 0.929 . S
H515 C524 0.929 . S
C516 H510 0.930 . S
C516 C517 1.367 . S
C516 C524 1.378 . S
C517 C516 1.367 . S
C517 C525 1.433 . S
C518 H514 0.929 . S
C518 C520 1.378 . S
C518 C522 1.350 . S
C519 C522 1.463 . S
C519 C524 1.350 . S
C519 N527 1.427 . S
C520 H511 0.930 . S
C520 C518 1.378 . S
C520 C521 1.367 . S
C521 C520 1.367 . S
C521 C523 1.433 . S
C522 C518 1.350 . S
C522 C519 1.463 . S
C522 N526 1.427 . S
C523 H513 0.929 . S
C523 C521 1.433 . S
C523 N526 1.384 . S
C524 H515 0.929 . S
C524 C516 1.378 . S
C524 C519 1.350 . S
C525 H512 0.929 . S
C525 C517 1.433 . S
C525 N527 1.384 . S
N526 C522 1.427 . S
N526 C523 1.384 . S
N527 C519 1.427 . S
N527 C525 1.384 . S
H528 C534 0.930 . S
H529 C538 0.930 . S
H530 C543 0.929 . S
H531 C541 0.929 . S
H532 C536 0.929 . S
H533 C542 0.929 . S
C534 H528 0.930 . S
C534 C535 1.367 . S
C534 C542 1.378 . S
C535 C534 1.367 . S
C535 C543 1.433 . S
C536 H532 0.929 . S
C536 C538 1.378 . S
C536 C540 1.350 . S
C537 C540 1.463 . S
C537 C542 1.350 . S
C537 N545 1.427 . S
C538 H529 0.930 . S
C538 C536 1.378 . S
C538 C539 1.367 . S
C539 C538 1.367 . S
C539 C541 1.433 . S
C540 C536 1.350 . S
C540 C537 1.463 . S
C540 N544 1.427 . S
C541 H531 0.929 . S
C541 C539 1.433 . S
C541 N544 1.384 . S
C542 H533 0.929 . S
C542 C534 1.378 . S
C542 C537 1.350 . S
C543 H530 0.929 . S
C543 C535 1.433 . S
C543 N545 1.384 . S
N544 C540 1.427 . S
N544 C541 1.384 . S
N545 C537 1.427 . S
N545 C543 1.384 . S
H546 C552 0.930 . S
H547 C556 0.930 . S
H548 C561 0.929 . S
H549 C559 0.929 . S
H550 C554 0.929 . S
H551 C560 0.929 . S
C552 H546 0.930 . S
C552 C553 1.367 . S
C552 C560 1.378 . S
C553 C552 1.367 . S
C553 C561 1.433 . S
C554 H550 0.929 . S
C554 C556 1.378 . S
C554 C558 1.350 . S
C555 C558 1.463 . S
C555 C560 1.350 . S
C555 N563 1.427 . S
C556 H547 0.930 . S
C556 C554 1.378 . S
C556 C557 1.367 . S
C557 C556 1.367 . S
C557 C559 1.433 . S
C558 C554 1.350 . S
C558 C555 1.463 . S
C558 N562 1.427 . S
C559 H549 0.929 . S
C559 C557 1.433 . S
C559 N562 1.384 . S
C560 H551 0.929 . S
C560 C552 1.378 . S
C560 C555 1.350 . S
C561 H548 0.929 . S
C561 C553 1.433 . S
C561 N563 1.384 . S
N562 C558 1.427 . S
N562 C559 1.384 . S
N563 C555 1.427 . S
N563 C561 1.384 . S
H564 C570 0.930 . S
H565 C574 0.930 . S
H566 C579 0.929 . S
H567 C577 0.929 . S
H568 C572 0.929 . S
H569 C578 0.929 . S
C570 H564 0.930 . S
C570 C571 1.367 . S
C570 C578 1.378 . S
C571 C570 1.367 . S
C571 C579 1.433 . S
C572 H568 0.929 . S
C572 C574 1.378 . S
C572 C576 1.350 . S
C573 C576 1.463 . S
C573 C578 1.350 . S
C573 N581 1.427 . S
C574 H565 0.930 . S
C574 C572 1.378 . S
C574 C575 1.367 . S
C575 C574 1.367 . S
C575 C577 1.433 . S
C576 C572 1.350 . S
C576 C573 1.463 . S
C576 N580 1.427 . S
C577 H567 0.929 . S
C577 C575 1.433 . S
C577 N580 1.384 . S
C578 H569 0.929 . S
C578 C570 1.378 . S
C578 C573 1.350 . S
C579 H566 0.929 . S
C579 C571 1.433 . S
C579 N581 1.384 . S
N580 C576 1.427 . S
N580 C577 1.384 . S
N581 C573 1.427 . S
N581 C579 1.384 . S
H582 C588 0.930 . S
H583 C592 0.930 . S
H584 C597 0.929 . S
H585 C595 0.929 . S
H586 C590 0.929 . S
H587 C596 0.929 . S
C588 H582 0.930 . S
C588 C589 1.367 . S
C588 C596 1.378 . S
C589 C588 1.367 . S
C589 C597 1.433 . S
C590 H586 0.929 . S
C590 C592 1.378 . S
C590 C594 1.350 . S
C591 C594 1.463 . S
C591 C596 1.350 . S
C591 N599 1.427 . S
C592 H583 0.930 . S
C592 C590 1.378 . S
C592 C593 1.367 . S
C593 C592 1.367 . S
C593 C595 1.433 . S
C594 C590 1.350 . S
C594 C591 1.463 . S
C594 N598 1.427 . S
C595 H585 0.929 . S
C595 C593 1.433 . S
C595 N598 1.384 . S
C596 H587 0.929 . S
C596 C588 1.378 . S
C596 C591 1.350 . S
C597 H584 0.929 . S
C597 C589 1.433 . S
C597 N599 1.384 . S
N598 C594 1.427 . S
N598 C595 1.384 . S
N599 C591 1.427 . S
N599 C597 1.384 . S
C175 C123 1.346 . S
C179 C11 1.347 . S
C193 C25 1.341 . S
C197 C137 1.350 . S
C211 C39 1.343 . S
C215 C151 1.346 . S
C229 C53 1.350 . S
C233 C165 1.343 . S
C247 C95 1.343 . S
C251 C67 1.349 . S
C265 C81 1.341 . S
C269 C109 1.349 . S
C283 C12 1.376 . S
C287 C75 1.268 . S
C301 C26 1.373 . S
C305 C5 1.250 . S
C319 C40 1.375 . S
C323 C19 1.272 . S
C337 C33 1.249 . S
C341 C54 1.372 . S
C355 C47 1.267 . S
C359 C68 1.376 . S
C373 C61 1.248 . S
C377 C82 1.370 . S
C391 C103 1.249 . S
C395 C96 1.369 . S
C409 C110 1.370 . S
C413 C117 1.257 . S
C427 C131 1.271 . S
C431 C124 1.376 . S
C445 C138 1.372 . S
C449 C145 1.249 . S
C463 C152 1.373 . S
C467 C159 1.268 . S
C481 C166 1.374 . S
C485 C89 1.270 . S
C499 C144 1.255 . S
C503 C4 1.256 . S
C517 C158 1.256 . S
C521 C18 1.256 . S
C535 C88 1.256 . S
C539 C32 1.256 . S
C553 C46 1.251 . S
C557 C102 1.247 . S
C571 C60 1.247 . S
C575 C116 1.245 1_556 S
C589 C130 1.245 . S
C593 C74 1.248 1_554 S
