# Generated by pormake.
# Topology why, (6)-cn, num edge types: 1
# Building blocks:
#     Node 0, Type 0, BuildingBlock: BETGAK_clean_sbu_0, # of connection points: 6
#     Node 1, Type 0, BuildingBlock: BETGAK_clean_sbu_0, # of connection points: 6
#     Node 2, Type 0, BuildingBlock: BETGAK_clean_sbu_0, # of connection points: 6
#     Node 3, Type 0, BuildingBlock: BETGAK_clean_sbu_0, # of connection points: 6
#     Node 4, Type 0, BuildingBlock: BETGAK_clean_sbu_0, # of connection points: 6
#     Node 5, Type 0, BuildingBlock: BETGAK_clean_sbu_0, # of connection points: 6
#     Node 6, Type 0, BuildingBlock: BETGAK_clean_sbu_0, # of connection points: 6
#     Node 7, Type 0, BuildingBlock: BETGAK_clean_sbu_0, # of connection points: 6
#     Node 8, Type 0, BuildingBlock: BETGAK_clean_sbu_0, # of connection points: 6
#     Node 9, Type 0, BuildingBlock: BETGAK_clean_sbu_0, # of connection points: 6
#     Node 10, Type 0, BuildingBlock: BETGAK_clean_sbu_0, # of connection points: 6
#     Node 11, Type 0, BuildingBlock: BETGAK_clean_sbu_0, # of connection points: 6
#     Node 12, Type 0, BuildingBlock: BETGAK_clean_sbu_0, # of connection points: 6
#     Node 13, Type 0, BuildingBlock: BETGAK_clean_sbu_0, # of connection points: 6
#     Node 14, Type 0, BuildingBlock: BETGAK_clean_sbu_0, # of connection points: 6
#     Node 15, Type 0, BuildingBlock: BETGAK_clean_sbu_0, # of connection points: 6
#     Edge 16, Type (0, 0), BuildingBlock: AJUNOK_clean_linker_0, # of connection points: 2
#     Edge 17, Type (0, 0), BuildingBlock: AJUNOK_clean_linker_0, # of connection points: 2
#     Edge 18, Type (0, 0), BuildingBlock: AJUNOK_clean_linker_0, # of connection points: 2
#     Edge 19, Type (0, 0), BuildingBlock: AJUNOK_clean_linker_0, # of connection points: 2
#     Edge 20, Type (0, 0), BuildingBlock: AJUNOK_clean_linker_0, # of connection points: 2
#     Edge 21, Type (0, 0), BuildingBlock: AJUNOK_clean_linker_0, # of connection points: 2
#     Edge 22, Type (0, 0), BuildingBlock: AJUNOK_clean_linker_0, # of connection points: 2
#     Edge 23, Type (0, 0), BuildingBlock: AJUNOK_clean_linker_0, # of connection points: 2
#     Edge 24, Type (0, 0), BuildingBlock: AJUNOK_clean_linker_0, # of connection points: 2
#     Edge 25, Type (0, 0), BuildingBlock: AJUNOK_clean_linker_0, # of connection points: 2
#     Edge 26, Type (0, 0), BuildingBlock: AJUNOK_clean_linker_0, # of connection points: 2
#     Edge 27, Type (0, 0), BuildingBlock: AJUNOK_clean_linker_0, # of connection points: 2
#     Edge 28, Type (0, 0), BuildingBlock: AJUNOK_clean_linker_0, # of connection points: 2
#     Edge 29, Type (0, 0), BuildingBlock: AJUNOK_clean_linker_0, # of connection points: 2
#     Edge 30, Type (0, 0), BuildingBlock: AJUNOK_clean_linker_0, # of connection points: 2
#     Edge 31, Type (0, 0), BuildingBlock: AJUNOK_clean_linker_0, # of connection points: 2
#     Edge 32, Type (0, 0), BuildingBlock: AJUNOK_clean_linker_0, # of connection points: 2
#     Edge 33, Type (0, 0), BuildingBlock: AJUNOK_clean_linker_0, # of connection points: 2
#     Edge 34, Type (0, 0), BuildingBlock: AJUNOK_clean_linker_0, # of connection points: 2
#     Edge 35, Type (0, 0), BuildingBlock: AJUNOK_clean_linker_0, # of connection points: 2
#     Edge 36, Type (0, 0), BuildingBlock: AJUNOK_clean_linker_0, # of connection points: 2
#     Edge 37, Type (0, 0), BuildingBlock: AJUNOK_clean_linker_0, # of connection points: 2
#     Edge 38, Type (0, 0), BuildingBlock: AJUNOK_clean_linker_0, # of connection points: 2
#     Edge 39, Type (0, 0), BuildingBlock: AJUNOK_clean_linker_0, # of connection points: 2
#     Edge 40, Type (0, 0), BuildingBlock: AJUNOK_clean_linker_0, # of connection points: 2
#     Edge 41, Type (0, 0), BuildingBlock: AJUNOK_clean_linker_0, # of connection points: 2
#     Edge 42, Type (0, 0), BuildingBlock: AJUNOK_clean_linker_0, # of connection points: 2
#     Edge 43, Type (0, 0), BuildingBlock: AJUNOK_clean_linker_0, # of connection points: 2
#     Edge 44, Type (0, 0), BuildingBlock: AJUNOK_clean_linker_0, # of connection points: 2
#     Edge 45, Type (0, 0), BuildingBlock: AJUNOK_clean_linker_0, # of connection points: 2
#     Edge 46, Type (0, 0), BuildingBlock: AJUNOK_clean_linker_0, # of connection points: 2
#     Edge 47, Type (0, 0), BuildingBlock: AJUNOK_clean_linker_0, # of connection points: 2
#     Edge 48, Type (0, 0), BuildingBlock: AJUNOK_clean_linker_0, # of connection points: 2
#     Edge 49, Type (0, 0), BuildingBlock: AJUNOK_clean_linker_0, # of connection points: 2
#     Edge 50, Type (0, 0), BuildingBlock: AJUNOK_clean_linker_0, # of connection points: 2
#     Edge 51, Type (0, 0), BuildingBlock: AJUNOK_clean_linker_0, # of connection points: 2
#     Edge 52, Type (0, 0), BuildingBlock: AJUNOK_clean_linker_0, # of connection points: 2
#     Edge 53, Type (0, 0), BuildingBlock: AJUNOK_clean_linker_0, # of connection points: 2
#     Edge 54, Type (0, 0), BuildingBlock: AJUNOK_clean_linker_0, # of connection points: 2
#     Edge 55, Type (0, 0), BuildingBlock: AJUNOK_clean_linker_0, # of connection points: 2
#     Edge 56, Type (0, 0), BuildingBlock: AJUNOK_clean_linker_0, # of connection points: 2
#     Edge 57, Type (0, 0), BuildingBlock: AJUNOK_clean_linker_0, # of connection points: 2
#     Edge 58, Type (0, 0), BuildingBlock: AJUNOK_clean_linker_0, # of connection points: 2
#     Edge 59, Type (0, 0), BuildingBlock: AJUNOK_clean_linker_0, # of connection points: 2
#     Edge 60, Type (0, 0), BuildingBlock: AJUNOK_clean_linker_0, # of connection points: 2
#     Edge 61, Type (0, 0), BuildingBlock: AJUNOK_clean_linker_0, # of connection points: 2
#     Edge 62, Type (0, 0), BuildingBlock: AJUNOK_clean_linker_0, # of connection points: 2
#     Edge 63, Type (0, 0), BuildingBlock: AJUNOK_clean_linker_0, # of connection points: 2
# Relax obj value: 0.550
# Max RMSD: 0.252
# Mean RMSD: 0.252
data_MOF--net-why--node1-BETGAK_clean_sbu_0--edge1-AJUNOK_clean_linker_0
_symmetry_space_group_name_H-M    P1
_symmetry_Int_Tables_number       1
_symmetry_cell_setting            triclinic
loop_
_symmetry_equiv_pos_as_xyz
'x, y, z'
_cell_length_a     38.464557
_cell_length_b     38.407336
_cell_length_c     32.091813
_cell_angle_alpha  89.541365
_cell_angle_beta   89.867854
_cell_angle_gamma 90.678549
loop_
_atom_site_label
_atom_site_type_symbol
_atom_site_fract_x
_atom_site_fract_y
_atom_site_fract_z
_atom_type_partial_charge
La0 La 0.51356 0.22803 0.04813 0.0
La1 La 0.48374 0.25741 0.09069 0.0
C2 C 0.54965 0.19155 1.00002 0.0
C3 C 0.55918 0.19765 0.95631 0.0
C4 C 0.57263 0.17076 0.9321 0.0
C5 C 0.58529 0.17796 0.89201 0.0
C6 C 0.58475 0.21213 0.87611 0.0
C7 C 0.56967 0.2386 0.89959 0.0
C8 C 0.55672 0.23135 0.93933 0.0
C9 C 0.49229 0.17316 0.11878 0.0
C10 C 0.55976 0.29782 0.07949 0.0
C11 C 0.43911 0.26264 0.14761 0.0
C12 C 0.40307 0.2745 0.14927 0.0
C13 C 0.39481 0.30959 0.14338 0.0
C14 C 0.36076 0.32046 0.14899 0.0
C15 C 0.3344 0.29638 0.1603 0.0
C16 C 0.34223 0.26084 0.16228 0.0
C17 C 0.37639 0.25003 0.15719 0.0
C18 C 0.48877 0.30307 0.02968 0.0
C19 C 0.43164 0.23441 1.01197 0.0
O20 O 0.5167 0.18561 1.00718 0.0
O21 O 0.56268 0.21428 0.02589 0.0
O22 O 0.50813 0.20372 0.11251 0.0
O23 O 0.50803 0.20439 0.11087 0.0
O24 O 0.55544 0.27445 0.04853 0.0
O25 O 0.53383 0.29168 0.10757 0.0
O26 O 0.46381 0.28572 0.14115 0.0
O27 O 0.44346 0.23475 0.1256 0.0
O28 O 0.48869 0.31123 0.0688 0.0
O29 O 0.48523 0.27068 0.02531 0.0
O30 O 0.4337 0.25278 0.04756 0.0
O31 O 0.46302 0.21942 1.00597 0.0
H32 H 0.57458 0.14463 0.94476 0.0
H33 H 0.59735 0.15736 0.87442 0.0
H34 H 0.56935 0.26514 0.88791 0.0
H35 H 0.54627 0.2524 0.95762 0.0
H36 H 0.4148 0.3289 0.13651 0.0
H37 H 0.35588 0.34817 0.14814 0.0
H38 H 0.32246 0.24182 0.17106 0.0
H39 H 0.38219 0.22266 0.16117 0.0
La40 La 0.75454 0.75122 0.30042 0.0
La41 La 0.72556 0.72197 0.34273 0.0
C42 C 0.79309 0.78563 0.25131 0.0
C43 C 0.78584 0.80394 0.21225 0.0
C44 C 0.80924 0.8292 0.19718 0.0
C45 C 0.80204 0.84707 0.16025 0.0
C46 C 0.77149 0.83963 0.13797 0.0
C47 C 0.7484 0.81383 0.15259 0.0
C48 C 0.75542 0.7962 0.18976 0.0
C49 C 0.80004 0.75094 0.38446 0.0
C50 C 0.68603 0.79934 0.33009 0.0
C51 C 0.70922 0.70885 0.4174 0.0
C52 C 0.67969 0.71433 0.44494 0.0
C53 C 0.64979 0.73132 0.4309 0.0
C54 C 0.6231 0.73891 0.45872 0.0
C55 C 0.62542 0.72827 0.50056 0.0
C56 C 0.65591 0.71193 0.5145 0.0
C57 C 0.68292 0.70532 0.48693 0.0
C58 C 0.68233 0.7154 0.28222 0.0
C59 C 0.74663 0.67118 0.26422 0.0
O60 O 0.7792 0.79879 0.28481 0.0
O61 O 0.78877 0.75194 0.24974 0.0
O62 O 0.7854 0.73089 0.35561 0.0
O63 O 0.78446 0.73166 0.3545 0.0
O64 O 0.71755 0.80061 0.31092 0.0
O65 O 0.68305 0.7669 0.34626 0.0
O66 O 0.72452 0.73751 0.40488 0.0
O67 O 0.70541 0.68648 0.38729 0.0
O68 O 0.68815 0.69122 0.30977 0.0
O69 O 0.70016 0.74304 0.28848 0.0
O70 O 0.73891 0.67038 0.30556 0.0
O71 O 0.75267 0.70459 0.25319 0.0
H72 H 0.8328 0.83536 0.21419 0.0
H73 H 0.82003 0.86708 0.14933 0.0
H74 H 0.72454 0.80813 0.13596 0.0
H75 H 0.737 0.77677 0.20117 0.0
H76 H 0.64674 0.73834 0.39852 0.0
H77 H 0.60012 0.7518 0.44718 0.0
H78 H 0.65831 0.7027 0.54634 0.0
H79 H 0.70614 0.69267 0.4983 0.0
La80 La 0.23249 0.99735 0.55048 0.0
La81 La 0.26117 0.96577 0.59453 0.0
C82 C 0.19829 1.03728 0.50418 0.0
C83 C 0.18294 1.03052 0.46359 0.0
C84 C 0.17397 1.0581 0.43713 0.0
C85 C 0.15909 1.05108 0.39843 0.0
C86 C 0.15323 1.01652 0.38629 0.0
C87 C 0.16322 0.98899 0.41224 0.0
C88 C 0.17822 0.99598 0.45065 0.0
C89 C 0.23029 1.04041 0.63568 0.0
C90 C 0.18261 0.92914 0.58219 0.0
C91 C 0.29173 0.95117 0.66159 0.0
C92 C 0.28699 0.92296 0.69158 0.0
C93 C 0.26271 0.89621 0.68393 0.0
C94 C 0.25442 0.87202 0.71506 0.0
C95 C 0.27068 0.87416 0.75399 0.0
C96 C 0.29475 0.90127 0.76155 0.0
C97 C 0.30268 0.92563 0.73058 0.0
C98 C 0.25067 0.91958 0.5363 0.0
C99 C 0.31271 0.98673 0.51391 0.0
O100 O 0.23214 1.03645 0.50456 0.0
O101 O 0.18458 1.01944 0.53512 0.0
O102 O 0.25113 1.02551 0.60814 0.0
O103 O 0.25034 1.02461 0.60686 0.0
O104 O 0.18668 0.9547 0.55334 0.0
O105 O 0.2098 0.93201 0.60871 0.0
O106 O 0.26469 0.9711 0.65907 0.0
O107 O 0.304 0.94327 0.62494 0.0
O108 O 0.25104 0.91244 0.57576 0.0
O109 O 0.25633 0.95149 0.52935 0.0
O110 O 0.31222 0.97357 0.5533 0.0
O111 O 0.2806 0.99847 0.50459 0.0
H112 H 0.17791 1.08485 0.44666 0.0
H113 H 0.15092 1.0725 0.37872 0.0
H114 H 0.15839 0.96221 0.40332 0.0
H115 H 0.18548 0.97446 0.47067 0.0
H116 H 0.24989 0.89418 0.65415 0.0
H117 H 0.23593 0.8513 0.7085 0.0
H118 H 0.30833 0.90301 0.79102 0.0
H119 H 0.32087 0.94664 0.73714 0.0
La120 La 0.98966 0.47084 0.80064 0.0
La121 La 1.02118 0.5019 0.84457 0.0
C122 C 0.94925 0.43614 0.75476 0.0
C123 C 0.95082 0.42659 0.71083 0.0
C124 C 0.92439 0.406 0.69363 0.0
C125 C 0.92843 0.39237 0.65378 0.0
C126 C 0.95909 0.39898 0.63089 0.0
C127 C 0.9845 0.42154 0.64722 0.0
C128 C 0.98028 0.43538 0.68696 0.0
C129 C 0.93623 0.49321 0.87087 0.0
C130 C 1.05764 0.42357 0.83203 0.0
C131 C 1.03498 0.53888 0.90768 0.0
C132 C 1.0482 0.53081 0.94962 0.0
C133 C 1.08412 0.52913 0.95643 0.0
C134 C 1.09697 0.5241 0.99639 0.0
C135 C 1.07424 0.52066 0.03061 0.0
C136 C 1.03821 0.52075 0.02364 0.0
C137 C 1.02526 0.52582 0.98342 0.0
C138 C 1.06581 0.49344 0.78496 0.0
C139 C 0.99661 0.55252 0.76436 0.0
O140 O 0.94559 0.46926 0.76213 0.0
O141 O 0.97338 0.42233 0.77802 0.0
O142 O 0.96653 0.47767 0.865 0.0
O143 O 0.96718 0.47771 0.86344 0.0
O144 O 1.03381 0.42786 0.8015 0.0
O145 O 1.05326 0.45 0.85976 0.0
O146 O 1.00406 0.52745 0.89889 0.0
O147 O 1.05613 0.53413 0.87684 0.0
O148 O 1.07365 0.49195 0.82418 0.0
O149 O 1.03385 0.49923 0.7793 0.0
O150 O 1.01214 0.55203 0.80213 0.0
O151 O 0.98396 0.52025 0.75661 0.0
H152 H 0.90143 0.39918 0.71169 0.0
H153 H 0.90844 0.37513 0.64168 0.0
H154 H 1.00857 0.42662 0.63054 0.0
H155 H 1.00076 0.45145 0.7 0.0
H156 H 1.10249 0.53307 0.93114 0.0
H157 H 0.12487 0.52554 1.0007 0.0
H158 H 1.02016 0.51872 0.04954 0.0
H159 H 0.99738 0.52701 0.97901 0.0
La160 La 0.76285 0.9705 0.93107 0.0
La161 La 0.73238 1.00306 0.97478 0.0
C162 C 0.79446 0.95539 0.86482 0.0
C163 C 0.78594 0.9318 0.83041 0.0
C164 C 0.7916 0.89592 0.83348 0.0
C165 C 0.78364 0.87442 0.79996 0.0
C166 C 0.76962 0.88842 0.763 0.0
C167 C 0.76241 0.92402 0.76084 0.0
C168 C 0.77083 0.94556 0.79402 0.0
C169 C 0.75082 0.92753 0.99403 0.0
C170 C 0.81371 0.99425 1.01087 0.0
C171 C 0.69724 1.0423 0.02046 0.0
C172 C 0.6818 1.03472 0.06115 0.0
C173 C 0.67508 1.06152 0.08928 0.0
C174 C 0.66061 1.05361 0.12826 0.0
C175 C 0.65287 1.01888 0.13906 0.0
C176 C 0.66058 0.99212 0.1113 0.0
C177 C 0.67513 0.99997 0.07269 0.0
C178 C 0.73066 1.04424 0.8877 0.0
C179 C 0.68385 0.93426 0.94184 0.0
O180 O 0.77297 0.98097 0.86833 0.0
O181 O 0.8024 0.94215 0.90111 0.0
O182 O 0.75056 0.91817 0.95528 0.0
O183 O 0.75836 0.95923 0.99691 0.0
O184 O 0.81357 0.98021 0.97212 0.0
O185 O 0.78116 1.00539 0.01983 0.0
O186 O 0.73109 1.04223 0.01998 0.0
O187 O 0.68408 1.02455 0.98956 0.0
O188 O 0.75116 1.0303 0.91636 0.0
O189 O 0.75032 1.02936 0.91771 0.0
O190 O 0.68729 0.95954 0.97082 0.0
O191 O 0.71166 0.93721 0.91592 0.0
H192 H 0.80305 0.8846 0.86118 0.0
H193 H 0.7906 0.84722 0.80207 0.0
H194 H 0.75204 0.93549 0.73259 0.0
H195 H 0.76607 0.97321 0.79084 0.0
H196 H 0.68058 1.08841 0.08091 0.0
H197 H 0.65429 1.07456 0.14928 0.0
H198 H 0.65462 0.96521 0.1192 0.0
H199 H 0.68078 0.97887 0.05163 0.0
La200 La 0.52217 0.50518 0.68171 0.0
La201 La 0.49088 0.4744 0.72403 0.0
C202 C 0.52983 0.55021 0.62468 0.0
C203 C 0.5354 0.58815 0.62413 0.0
C204 C 0.56899 0.60256 0.62512 0.0
C205 C 0.57388 0.63815 0.61846 0.0
C206 C 0.5453 0.65972 0.61037 0.0
C207 C 0.51157 0.64594 0.61385 0.0
C208 C 0.50665 0.61034 0.62027 0.0
C209 C 0.56557 0.49969 0.74417 0.0
C210 C 0.49754 0.55644 0.76036 0.0
C211 C 0.45108 0.43784 0.76969 0.0
C212 C 0.45222 0.42727 0.81355 0.0
C213 C 0.4247 0.40779 0.83077 0.0
C214 C 0.42814 0.39278 0.87027 0.0
C215 C 0.45913 0.39719 0.89282 0.0
C216 C 0.48562 0.41884 0.87682 0.0
C217 C 0.48222 0.43368 0.83722 0.0
C218 C 0.43784 0.49612 0.65329 0.0
C219 C 0.56047 0.42869 0.69305 0.0
O220 O 0.5549 0.53026 0.63749 0.0
O221 O 0.50003 0.54026 0.63979 0.0
O222 O 0.5749 0.49927 0.70533 0.0
O223 O 0.53318 0.50338 0.74753 0.0
O224 O 0.51584 0.55511 0.72445 0.0
O225 O 0.48288 0.52449 0.76672 0.0
O226 O 0.44662 0.47095 0.76252 0.0
O227 O 0.47584 0.42518 0.7466 0.0
O228 O 0.46818 0.48067 0.65936 0.0
O229 O 0.46889 0.48071 0.66098 0.0
O230 O 0.53658 0.43266 0.72374 0.0
O231 O 0.55537 0.45493 0.66502 0.0
H232 H 0.59155 0.58617 0.62852 0.0
H233 H 0.60026 0.6481 0.61547 0.0
H234 H 0.48924 0.6621 0.60766 0.0
H235 H 0.48034 0.59998 0.6198 0.0
H236 H 0.4014 0.40265 0.81282 0.0
H237 H 0.40755 0.3759 0.88213 0.0
H238 H 0.50988 0.42208 0.89351 0.0
H239 H 0.50379 0.44838 0.82399 0.0
La240 La 0.98496 0.26557 0.43045 0.0
La241 La 1.01342 0.23413 0.47212 0.0
C242 C 0.94026 0.27781 0.37535 0.0
C243 C 0.90861 0.29822 0.37842 0.0
C244 C 0.90338 0.32005 0.41275 0.0
C245 C 0.87345 0.34002 0.41545 0.0
C246 C 0.84857 0.33853 0.38367 0.0
C247 C 0.85295 0.31498 0.3507 0.0
C248 C 0.88281 0.2949 0.34815 0.0
C249 C 0.99115 0.30984 0.49182 0.0
C250 C 0.93206 0.24235 0.50882 0.0
C251 C 1.04753 0.19329 0.5179 0.0
C252 C 1.05733 0.19411 0.56185 0.0
C253 C 1.07868 0.16811 0.57804 0.0
C254 C 1.09328 0.17193 0.6175 0.0
C255 C 1.08679 0.20191 0.64095 0.0
C256 C 1.06318 0.22659 0.62607 0.0
C257 C 1.04852 0.22273 0.58656 0.0
C258 C 0.99143 0.18156 0.40091 0.0
C259 C 1.06163 0.30389 0.44304 0.0
O260 O 0.96949 0.29515 0.37846 0.0
O261 O 0.94002 0.24985 0.39851 0.0
O262 O 0.99178 0.31854 0.45283 0.0
O263 O 0.98701 0.27743 0.49627 0.0
O264 O 0.93492 0.26125 0.47346 0.0
O265 O 0.96284 0.22627 0.51483 0.0
O266 O 1.01441 0.18947 0.51035 0.0
O267 O 1.06161 0.21794 0.49498 0.0
O268 O 1.0075 0.2119 0.40721 0.0
O269 O 1.00745 0.21252 0.40873 0.0
O270 O 1.05678 0.27926 0.47302 0.0
O271 O 1.03562 0.29961 0.41495 0.0
H272 H 0.92285 0.32241 0.43687 0.0
H273 H 0.87062 0.35797 0.44107 0.0
H274 H 0.83436 0.31374 0.32541 0.0
H275 H 0.88622 0.27762 0.32196 0.0
H276 H 1.08558 0.14586 0.55932 0.0
H277 H 1.11145 0.15262 0.62863 0.0
H278 H 1.0581 0.24998 0.6436 0.0
H279 H 1.03195 0.24301 0.57433 0.0
La280 La 0.22656 0.732 0.18342 0.0
La281 La 0.25725 0.76229 0.22405 0.0
C282 C 0.21574 0.68673 0.12854 0.0
C283 C 0.19672 0.65373 0.13038 0.0
C284 C 0.17403 0.64618 0.16368 0.0
C285 C 0.15552 0.61472 0.16479 0.0
C286 C 0.15972 0.59048 0.13274 0.0
C287 C 0.184 0.59752 0.10075 0.0
C288 C 0.20241 0.62892 0.09967 0.0
C289 C 0.18205 0.73743 0.24503 0.0
C290 C 0.25075 0.68106 0.26314 0.0
C291 C 0.29491 0.79943 0.27033 0.0
C292 C 0.2887 0.80927 0.3137 0.0
C293 C 0.31568 0.8224 0.33846 0.0
C294 C 0.30855 0.83411 0.37874 0.0
C295 C 0.27437 0.83288 0.3943 0.0
C296 C 0.24774 0.81836 0.37005 0.0
C297 C 0.25491 0.80643 0.33014 0.0
C298 C 0.31044 0.73928 0.15381 0.0
C299 C 0.18746 0.80808 0.19374 0.0
O300 O 0.19732 0.71484 0.13212 0.0
O301 O 0.24331 0.68767 0.1519 0.0
O302 O 0.1734 0.73703 0.20611 0.0
O303 O 0.2144 0.73436 0.2491 0.0
O304 O 0.23163 0.68251 0.228 0.0
O305 O 0.26626 0.71266 0.26779 0.0
O306 O 0.30024 0.76637 0.26427 0.0
O307 O 0.27251 0.81201 0.24382 0.0
O308 O 0.28048 0.7555 0.1596 0.0
O309 O 0.27984 0.75542 0.16121 0.0
O310 O 0.21179 0.80427 0.22379 0.0
O311 O 0.19226 0.78166 0.16646 0.0
H312 H 0.16993 0.66496 0.18815 0.0
H313 H 0.13673 0.61004 0.18947 0.0
H314 H 0.1871 0.57979 0.07495 0.0
H315 H 0.22031 0.63425 0.07421 0.0
H316 H 0.34191 0.82458 0.32625 0.0
H317 H 0.32931 0.84574 0.39688 0.0
H318 H 0.22121 0.8174 0.38147 0.0
H319 H 0.23379 0.79614 0.31146 0.0
La320 La 1.01454 0.73123 0.55041 0.0
La321 La 0.98466 0.76103 0.59289 0.0
C322 C 1.04991 0.69196 0.50469 0.0
C323 C 1.05984 0.69348 0.46077 0.0
C324 C 1.08137 0.66785 0.44446 0.0
C325 C 1.0961 0.67244 0.40503 0.0
C326 C 1.08954 0.70282 0.38181 0.0
C327 C 1.06571 0.72708 0.39678 0.0
C328 C 1.05093 0.72243 0.43622 0.0
C329 C 0.99302 0.67729 0.62156 0.0
C330 C 1.06107 0.80093 0.58082 0.0
C331 C 0.94127 0.76725 0.65128 0.0
C332 C 0.90598 0.78006 0.65438 0.0
C333 C 0.89027 0.7972 0.62071 0.0
C334 C 0.85591 0.80811 0.62389 0.0
C335 C 0.83717 0.80243 0.66102 0.0
C336 C 0.8529 0.78402 0.69397 0.0
C337 C 0.88695 0.77273 0.69049 0.0
C338 C 0.98993 0.80685 0.53272 0.0
C339 C 0.93327 0.7373 0.51347 0.0
O340 O 1.01685 0.68717 0.51219 0.0
O341 O 1.06324 0.71676 0.52748 0.0
O342 O 1.00888 0.70781 0.61515 0.0
O343 O 1.00878 0.70842 0.61356 0.0
O344 O 1.05675 0.77728 0.55015 0.0
O345 O 1.03514 0.79509 0.60899 0.0
O346 O 0.96582 0.79005 0.64335 0.0
O347 O 0.94403 0.73962 0.62845 0.0
O348 O 0.98934 0.81475 0.57186 0.0
O349 O 0.98666 0.77444 0.52745 0.0
O350 O 0.93507 0.7554 0.54929 0.0
O351 O 0.96472 0.7227 0.50729 0.0
H352 H 1.08833 0.64534 0.46308 0.0
H353 H 0.1145 0.65349 0.39383 0.0
H354 H 1.06062 0.75078 0.37943 0.0
H355 H 1.03426 0.74238 0.44862 0.0
H356 H 0.90472 0.8028 0.59242 0.0
H357 H 0.84461 0.82257 0.59827 0.0
H358 H 0.83982 0.78025 0.7236 0.0
H359 H 0.89873 0.75905 0.71643 0.0
La360 La 0.25297 0.25556 0.80067 0.0
La361 La 0.22133 0.22573 0.84223 0.0
C362 C 0.29139 0.29267 0.7541 0.0
C363 C 0.28636 0.30388 0.71077 0.0
C364 C 0.31418 0.31771 0.68747 0.0
C365 C 0.30826 0.33176 0.64779 0.0
C366 C 0.27449 0.33209 0.63129 0.0
C367 C 0.24698 0.31687 0.65386 0.0
C368 C 0.25292 0.30264 0.69327 0.0
C369 C 0.30567 0.23185 0.87127 0.0
C370 C 0.18365 0.3023 0.83106 0.0
C371 C 0.20779 0.18015 0.89678 0.0
C372 C 0.18668 0.14848 0.89323 0.0
C373 C 0.16338 0.14447 0.8599 0.0
C374 C 0.1429 0.11439 0.85684 0.0
C375 C 0.1458 1.08783 0.88681 0.0
C376 C 0.1706 1.09128 0.91883 0.0
C377 C 0.19093 0.1214 0.92194 0.0
C378 C 0.17782 0.23262 0.77954 0.0
C379 C 0.24518 0.17409 0.76392 0.0
O380 O 0.29588 0.25937 0.75991 0.0
O381 O 0.2689 0.30519 0.78038 0.0
O382 O 0.27581 0.24822 0.86521 0.0
O383 O 0.27517 0.24818 0.86367 0.0
O384 O 0.20796 0.29822 0.80088 0.0
O385 O 0.1879 0.27572 0.85866 0.0
O386 O 0.19123 0.20948 0.89372 0.0
O387 O 0.23582 0.18026 0.87403 0.0
O388 O 0.16863 0.23264 0.8183 0.0
O389 O 0.21 0.22813 0.77635 0.0
O390 O 0.22582 0.17633 0.79885 0.0
O391 O 0.26141 0.20533 0.75822 0.0
H392 H 0.34011 0.31881 0.70054 0.0
H393 H 0.32963 0.34395 0.63089 0.0
H394 H 0.22072 0.31735 0.64174 0.0
H395 H 0.23113 0.29206 0.7109 0.0
H396 H 0.16039 0.16491 0.83683 0.0
H397 H 0.12374 1.11253 0.83225 0.0
H398 H 0.17273 1.0717 0.94315 0.0
H399 H 0.20924 0.12393 0.94738 0.0
La400 La 0.72928 0.49521 0.05019 0.0
La401 La 0.75984 0.46252 0.09243 0.0
C402 C 0.69567 0.53753 1.00578 0.0
C403 C 0.6861 0.53873 0.96174 0.0
C404 C 0.66272 0.56386 0.94784 0.0
C405 C 0.64812 0.56118 0.90825 0.0
C406 C 0.65641 0.53301 0.88248 0.0
C407 C 0.68236 0.50982 0.89492 0.0
C408 C 0.69712 0.51261 0.93452 0.0
C409 C 0.75151 0.54696 0.12192 0.0
C410 C 0.68125 0.42605 0.08066 0.0
C411 C 0.79711 0.4471 0.1545 0.0
C412 C 0.78913 0.43885 0.19833 0.0
C413 C 0.78905 0.40389 0.21103 0.0
C414 C 0.7837 0.39502 0.25249 0.0
C415 C 0.77881 0.42093 0.28254 0.0
C416 C 0.7769 0.45591 0.26967 0.0
C417 C 0.78202 0.46486 0.22771 0.0
C418 C 0.74967 0.42012 0.03078 0.0
C419 C 0.81107 0.48826 0.01326 0.0
O420 O 0.72875 0.54095 0.01386 0.0
O421 O 0.68136 0.512 0.02709 0.0
O422 O 0.73642 0.51618 0.11545 0.0
O423 O 0.73635 0.51553 0.11393 0.0
O424 O 0.6855 0.45063 0.0505 0.0
O425 O 0.70784 0.43024 0.10822 0.0
O426 O 0.79264 0.47889 0.14156 0.0
O427 O 0.7853 0.42481 0.12783 0.0
O428 O 0.74959 0.41056 0.06948 0.0
O429 O 0.75628 0.45218 0.02658 0.0
O430 O 0.81004 0.4711 0.05015 0.0
O431 O 0.7792 0.5019 1.00645 0.0
H432 H 0.65425 0.58434 0.96841 0.0
H433 H 0.6285 0.57966 0.89888 0.0
H434 H 0.68926 0.48811 0.87536 0.0
H435 H 0.71556 0.49328 0.94482 0.0
H436 H 0.79441 0.38332 0.18908 0.0
H437 H 0.78616 0.36789 0.26142 0.0
H438 H 0.77335 0.47634 0.29231 0.0
H439 H 0.78155 0.49208 0.21862 0.0
La440 La 0.48961 0.96562 0.30069 0.0
La441 La 0.52025 0.99685 0.34093 0.0
C442 C 0.45001 0.92964 0.2552 0.0
C443 C 0.45379 0.92073 0.21125 0.0
C444 C 0.42667 0.90452 0.18943 0.0
C445 C 0.43228 0.89299 0.14874 0.0
C446 C 0.46507 0.89751 0.12992 0.0
C447 C 0.49154 0.91526 0.15121 0.0
C448 C 0.48586 0.9269 0.19154 0.0
C449 C 0.43666 0.9876 0.37105 0.0
C450 C 0.55972 0.92053 0.33101 0.0
C451 C 0.52592 1.04286 0.39593 0.0
C452 C 0.53605 1.07983 0.39575 0.0
C453 C 0.57104 1.09015 0.39722 0.0
C454 C 0.57969 0.1251 0.40259 0.0
C455 C 0.55348 0.15013 0.40679 0.0
C456 C 0.51872 0.14029 0.40093 0.0
C457 C 0.51002 1.10531 0.3959 0.0
C458 C 0.56519 0.99099 0.28109 0.0
C459 C 0.49693 1.04729 0.26124 0.0
O460 O 0.44526 0.96258 0.2626 0.0
O461 O 0.47385 0.91651 0.27939 0.0
O462 O 0.46698 0.97214 0.36527 0.0
O463 O 0.46765 0.97219 0.36364 0.0
O464 O 0.53377 0.92248 0.30266 0.0
O465 O 0.55639 0.94831 0.3568 0.0
O466 O 0.5497 1.01953 0.3893 0.0
O467 O 0.49751 1.03616 0.37558 0.0
O468 O 0.57344 0.99265 0.32016 0.0
O469 O 0.53274 0.99335 0.27554 0.0
O470 O 0.51559 1.04618 0.29662 0.0
O471 O 0.48172 1.01547 0.25647 0.0
H472 H 0.40176 0.89965 0.20432 0.0
H473 H 0.41173 0.87885 0.1329 0.0
H474 H 0.51705 0.91875 0.13727 0.0
H475 H 0.50696 0.93931 0.20821 0.0
H476 H 0.59162 1.07115 0.3966 0.0
H477 H 0.60678 0.13198 0.40747 0.0
H478 H 0.49817 0.15916 0.40401 0.0
H479 H 0.48275 1.09805 0.39433 0.0
La480 La 0.26179 0.47017 0.43167 0.0
La481 La 0.23115 0.50065 0.47592 0.0
C482 C 0.29568 0.45657 0.36634 0.0
C483 C 0.29144 0.42949 0.33533 0.0
C484 C 0.26807 0.40171 0.34233 0.0
C485 C 0.26062 0.37835 0.31049 0.0
C486 C 0.27639 0.38265 0.27132 0.0
C487 C 0.2998 0.4106 0.2646 0.0
C488 C 0.30708 0.43399 0.29636 0.0
C489 C 0.25277 0.42417 0.49118 0.0
C490 C 0.31283 0.49417 0.51103 0.0
C491 C 0.19576 0.53845 0.5231 0.0
C492 C 0.18437 0.53203 0.56599 0.0
C493 C 0.17251 0.5593 0.59073 0.0
C494 C 0.15861 0.55211 0.6302 0.0
C495 C 0.15635 0.51759 0.64486 0.0
C496 C 0.1696 0.49057 0.62071 0.0
C497 C 0.18376 0.49778 0.58163 0.0
C498 C 0.25601 0.55572 0.40631 0.0
C499 C 0.18371 0.43134 0.44497 0.0
O500 O 0.26966 0.47768 0.36757 0.0
O501 O 0.30519 0.44692 0.4035 0.0
O502 O 0.25174 0.41685 0.45181 0.0
O503 O 0.2581 0.45624 0.49697 0.0
O504 O 0.31251 0.48074 0.47214 0.0
O505 O 0.28045 0.50541 0.5199 0.0
O506 O 0.22924 0.54245 0.51785 0.0
O507 O 0.18228 0.51702 0.49599 0.0
O508 O 0.23949 0.52547 0.41234 0.0
O509 O 0.23961 0.52489 0.41412 0.0
O510 O 0.18715 0.45629 0.4743 0.0
O511 O 0.21127 0.43478 0.41852 0.0
H512 H 0.25537 0.39826 0.37219 0.0
H513 H 0.24303 0.35666 0.3166 0.0
H514 H 0.31342 0.41377 0.2352 0.0
H515 H 0.32473 0.45568 0.29043 0.0
H516 H 0.17293 0.58584 0.57903 0.0
H517 H 0.14804 0.57319 0.64834 0.0
H518 H 0.16787 0.4638 0.63151 0.0
H519 H 0.19294 0.47645 0.56285 0.0
La520 La 1.02386 1.0066 0.18041 0.0
La521 La 0.99146 0.97504 0.22246 0.0
C522 C 1.03935 1.04424 0.11792 0.0
C523 C 1.04665 1.03567 0.07414 0.0
C524 C 1.0813 1.03195 0.06153 0.0
C525 C 1.08927 1.02491 0.02033 0.0
C526 C 1.06283 1.02174 0.99036 0.0
C527 C 1.02797 1.02429 1.00307 0.0
C528 C 1.01989 1.03107 0.04477 0.0
C529 C 1.06565 0.99783 0.24356 0.0
C530 C 0.99737 1.0569 0.25909 0.0
C531 C 0.95269 0.93769 0.26807 0.0
C532 C 0.95813 0.92525 0.31089 0.0
C533 C 0.93001 0.9206 0.33834 0.0
C534 C 0.93544 0.90647 0.37812 0.0
C535 C 0.96901 0.89687 0.39045 0.0
C536 C 0.99721 0.90294 0.36364 0.0
C537 C 0.99187 0.91722 0.3243 0.0
C538 C 0.93901 0.99849 0.15216 0.0
C539 C 1.06059 0.92873 0.19237 0.0
O540 O 1.0077 1.03981 0.13137 0.0
O541 O 1.06164 1.03266 0.14469 0.0
O542 O 1.07563 0.99719 0.20508 0.0
O543 O 1.03368 1.00368 0.2463 0.0
O544 O 1.01516 1.05646 0.22269 0.0
O545 O 0.98355 1.02461 0.26555 0.0
O546 O 0.94865 0.9712 0.26349 0.0
O547 O 0.97438 0.92533 0.24069 0.0
O548 O 0.96937 0.98313 0.15787 0.0
O549 O 0.97007 0.98309 0.15942 0.0
O550 O 1.03654 0.9328 0.22274 0.0
O551 O 1.056 0.95524 0.16452 0.0
H552 H 1.1025 1.03552 0.08332 0.0
H553 H 0.11647 1.02455 1.01154 0.0
H554 H 1.00718 1.02269 0.98043 0.0
H555 H 0.99288 1.03367 0.05369 0.0
H556 H 0.90387 0.92691 0.32859 0.0
H557 H 0.91336 0.90144 0.39839 0.0
H558 H 1.02324 0.89546 0.37264 0.0
H559 H 1.01409 0.92099 0.3039 0.0
La560 La 0.4862 0.76514 0.93059 0.0
La561 La 0.51629 0.73561 0.97163 0.0
C562 C 0.44005 0.76858 0.87538 0.0
C563 C 0.40316 0.77791 0.87514 0.0
C564 C 0.3928 0.81271 0.87428 0.0
C565 C 0.35782 0.82061 0.86938 0.0
C566 C 0.33276 0.79383 0.86518 0.0
C567 C 0.34273 0.75915 0.87027 0.0
C568 C 0.37775 0.75122 0.8747 0.0
C569 C 0.49156 0.81183 0.98788 0.0
C570 C 0.43563 0.74246 1.01111 0.0
C571 C 0.5532 0.69597 0.01561 0.0
C572 C 0.56503 0.69602 0.05871 0.0
C573 C 0.58898 0.67115 0.07178 0.0
C574 C 0.6034 0.67312 0.11149 0.0
C575 C 0.59388 0.69996 0.13859 0.0
C576 C 0.56906 0.72431 0.12575 0.0
C577 C 0.55465 0.72232 0.08596 0.0
C578 C 0.49486 0.6816 0.90158 0.0
C579 C 0.56231 0.80578 0.94105 0.0
O580 O 0.46349 0.79304 0.88087 0.0
O581 O 0.44666 0.74077 0.89714 0.0
O582 O 0.48942 0.81903 0.94843 0.0
O583 O 0.48999 0.77942 0.99558 0.0
O584 O 0.437 0.76082 0.97525 0.0
O585 O 0.46695 0.72713 0.01602 0.0
O586 O 0.51985 0.69138 1.01017 0.0
O587 O 0.56565 0.72137 0.99257 0.0
O588 O 0.51045 0.7123 0.90724 0.0
O589 O 0.51036 0.71296 0.90886 0.0
O590 O 0.55825 0.78168 0.97163 0.0
O591 O 0.53627 0.80001 0.91311 0.0
H592 H 0.41175 0.83378 0.87521 0.0
H593 H 0.35089 0.84767 0.86506 0.0
H594 H 0.32387 0.73815 0.86722 0.0
H595 H 0.38506 0.72407 0.87584 0.0
H596 H 0.59739 0.65092 0.05081 0.0
H597 H 0.62309 0.65454 0.1203 0.0
H598 H 0.56145 0.74527 0.14611 0.0
H599 H 0.53623 0.74182 0.076 0.0
La600 La 0.7235 0.22983 0.67916 0.0
La601 La 0.75495 0.25846 0.72233 0.0
C602 C 0.7093 0.19876 0.61249 0.0
C603 C 0.68116 0.20155 0.58264 0.0
C604 C 0.65395 0.22491 0.58937 0.0
C605 C 0.62974 0.23119 0.55805 0.0
C606 C 0.63252 0.21403 0.51984 0.0
C607 C 0.66 0.19081 0.51329 0.0
C608 C 0.68424 0.18475 0.54447 0.0
C609 C 0.6768 0.23824 0.73739 0.0
C610 C 0.74494 0.17823 0.75916 0.0
C611 C 0.79493 0.29436 0.76711 0.0
C612 C 0.78804 0.30971 0.80753 0.0
C613 C 0.81384 0.3284 0.82865 0.0
C614 C 0.80631 0.34302 0.86727 0.0
C615 C 0.77295 0.33899 0.88478 0.0
C616 C 0.74751 0.31946 0.86388 0.0
C617 C 0.75502 0.30505 0.82539 0.0
C618 C 0.7985 0.25987 0.63651 0.0
C619 C 0.68703 0.30761 0.69148 0.0
O620 O 0.72822 0.22701 0.61451 0.0
O621 O 0.70175 0.18607 0.64932 0.0
O622 O 0.67016 0.23812 0.6979 0.0
O623 O 0.70875 0.23402 0.74461 0.0
O624 O 0.73145 0.17884 0.72014 0.0
O625 O 0.75663 0.21052 0.76861 0.0
O626 O 0.79423 0.26042 0.76734 0.0
O627 O 0.77678 0.30729 0.73639 0.0
O628 O 0.78327 0.23951 0.66504 0.0
O629 O 0.78237 0.24043 0.66626 0.0
O630 O 0.71247 0.30364 0.7201 0.0
O631 O 0.68993 0.28059 0.66492 0.0
H632 H 0.65168 0.2386 0.61852 0.0
H633 H 0.60864 0.24897 0.56382 0.0
H634 H 0.66217 0.17655 0.48442 0.0
H635 H 0.70556 0.16722 0.53865 0.0
H636 H 0.83949 0.33195 0.81515 0.0
H637 H 0.8262 0.35818 0.88297 0.0
H638 H 0.72179 0.31567 0.87712 0.0
H639 H 0.73507 0.29042 0.80923 0.0
C640 C 0.60668 0.34841 0.0447 0.0
C641 C 0.59091 0.33062 0.08071 0.0
C642 C 0.63328 0.37754 0.04497 0.0
C643 C 0.64991 0.39344 0.08126 0.0
H644 H 0.59782 0.33997 0.0144 0.0
H645 H 0.64145 0.38753 0.01483 0.0
S646 S 0.62182 0.35915 0.18659 0.0
N647 N 0.59727 0.335 0.15573 0.0
N648 N 0.64553 0.38499 0.15613 0.0
C649 C 0.63487 0.37554 0.11756 0.0
C650 C 0.60688 0.34656 0.11733 0.0
C651 C 0.61651 0.82497 0.32807 0.0
C652 C 0.65417 0.83088 0.33064 0.0
C653 C 0.58825 0.85191 0.32765 0.0
C654 C 0.59227 0.88971 0.33169 0.0
H655 H 0.60805 0.79811 0.32541 0.0
H656 H 0.56188 0.84215 0.32459 0.0
S657 S 0.6841 0.92438 0.33969 0.0
N658 N 0.69135 0.88215 0.33637 0.0
N659 N 0.64151 0.92936 0.33817 0.0
C660 C 0.62977 0.89608 0.3348 0.0
C661 C 0.6587 0.86868 0.33366 0.0
C662 C 0.13678 0.87754 0.61809 0.0
C663 C 0.15111 0.89667 0.58216 0.0
C664 C 1.10926 0.84918 0.61785 0.0
C665 C 1.09219 0.83378 0.58152 0.0
H666 H 0.14678 0.88492 0.64828 0.0
H667 H 1.10165 0.83861 0.64791 0.0
S668 S 0.11774 0.87064 0.47643 0.0
N669 N 0.14238 0.89462 0.50737 0.0
N670 N 1.09538 0.84351 0.50677 0.0
C671 C 1.10672 0.85226 0.54532 0.0
C672 C 0.13388 0.88194 0.54567 0.0
C673 C 1.10666 0.37619 0.86836 0.0
C674 C 1.08986 0.39246 0.8323 0.0
C675 C 0.13446 0.34872 0.86807 0.0
C676 C 0.15155 0.33355 0.8317 0.0
H677 H 1.09773 0.38446 0.89866 0.0
H678 H 0.14313 0.33949 0.8982 0.0
S679 S 0.12121 0.36476 0.72636 0.0
N680 N 1.09602 0.38768 0.75731 0.0
N681 N 0.1461 0.34079 0.75682 0.0
C682 C 0.13543 0.35003 0.79545 0.0
C683 C 1.10632 0.37716 0.79574 0.0
C684 C 0.63884 0.88285 0.90506 0.0
C685 C 0.65229 0.90178 0.94121 0.0
C686 C 0.61131 0.85447 0.90471 0.0
C687 C 0.59327 0.83885 0.94065 0.0
H688 H 0.64962 0.8904 0.87511 0.0
H689 H 0.60452 0.84405 0.87454 0.0
S690 S 0.61603 0.87514 0.04609 0.0
N691 N 0.6415 0.8993 0.0157 0.0
N692 N 0.59452 0.84818 0.01534 0.0
C693 C 0.60688 0.85714 0.97707 0.0
C694 C 0.63406 0.88684 0.97728 0.0
C695 C 0.60839 0.38083 0.65598 0.0
C696 C 0.59287 0.39767 0.6923 0.0
C697 C 0.63631 0.35345 0.65571 0.0
C698 C 0.65494 0.33895 0.69158 0.0
H699 H 0.59824 0.38852 0.62592 0.0
H700 H 0.64378 0.3437 0.62548 0.0
S701 S 0.62837 0.37158 0.79734 0.0
N702 N 0.60192 0.39395 0.76703 0.0
N703 N 0.65222 0.34729 0.76638 0.0
C704 C 0.64008 0.35593 0.72807 0.0
C705 C 0.61081 0.38294 0.72845 0.0
C706 C 1.11358 0.34969 0.40802 0.0
C707 C 1.0929 0.33652 0.44326 0.0
C708 C 0.14121 0.37788 0.40863 0.0
C709 C 0.15217 0.39895 0.44421 0.0
H710 H 1.10886 0.33738 0.37832 0.0
H711 H 0.15418 0.38348 0.37933 0.0
S712 S 1.10765 0.37982 0.54678 0.0
N713 N 1.08836 0.35086 0.51654 0.0
N714 N 0.13571 0.40164 0.51718 0.0
C715 C 0.1312 0.38655 0.47949 0.0
C716 C 1.10383 0.35707 0.47915 0.0
C717 C 0.138 0.85462 0.15654 0.0
C718 C 0.15504 0.83908 0.19293 0.0
C719 C 1.11004 0.88196 0.1562 0.0
C720 C 1.09297 0.89773 0.19221 0.0
H721 H 0.14687 0.84584 0.12642 0.0
H722 H 1.10121 0.89056 0.12587 0.0
S723 S 0.12398 0.86883 0.29821 0.0
N724 N 0.14916 0.8454 0.26779 0.0
N725 N 1.09881 0.892 0.26721 0.0
C726 C 1.10936 0.88204 0.2288 0.0
C727 C 0.13863 0.85505 0.22913 0.0
C728 C 0.36707 0.21505 0.90896 0.0
C729 C 0.33503 0.23491 0.91056 0.0
C730 C 0.39601 0.21497 0.93968 0.0
C731 C 0.39783 0.2347 0.97787 0.0
H732 H 0.37037 0.19854 0.8821 0.0
H733 H 0.41791 0.19854 0.93275 0.0
S734 S 0.32294 0.29366 1.00254 0.0
N735 N 0.30976 0.27674 0.95796 0.0
N736 N 0.36114 0.27644 0.01325 0.0
C737 C 0.36598 0.25507 0.98037 0.0
C738 C 0.33632 0.25529 0.94853 0.0
C739 C 0.76238 0.61046 0.15774 0.0
C740 C 0.74761 0.57549 0.1618 0.0
C741 C 0.76174 0.63894 0.18886 0.0
C742 C 0.74678 0.63728 0.23029 0.0
H743 H 0.77517 0.6166 0.12847 0.0
H744 H 0.77392 0.66337 0.17968 0.0
S745 S 0.70272 0.55309 0.26291 0.0
N746 N 0.71588 0.54318 0.21541 0.0
N747 N 0.71536 0.5937 0.27164 0.0
C748 C 0.7317 0.60232 0.23548 0.0
C749 C 0.73189 0.57314 0.20304 0.0
C750 C 0.37496 1.00272 0.40813 0.0
C751 C 0.40807 0.98493 0.41111 0.0
C752 C 0.34649 1.00306 0.43943 0.0
C753 C 0.34638 0.98589 0.4797 0.0
H754 H 0.3704 1.01725 0.37966 0.0
H755 H 0.32356 1.01767 0.43132 0.0
S756 S 0.42498 0.93338 0.50888 0.0
N757 N 0.43657 0.94802 0.46221 0.0
N758 N 0.38592 0.94893 0.51874 0.0
C759 C 0.3794 0.9677 0.48374 0.0
C760 C 0.4086 0.96711 0.45121 0.0
C761 C 0.97828 0.61496 0.65921 0.0
C762 C 0.99636 0.6484 0.66137 0.0
C763 C 0.97848 0.58629 0.69055 0.0
C764 C 0.9966 0.58631 0.72998 0.0
H765 H 0.96309 0.61028 0.63143 0.0
H766 H 0.96357 0.56309 0.68314 0.0
S767 S 1.05005 0.6659 0.75679 0.0
N768 N 1.03446 0.67743 0.71077 0.0
N769 N 1.03458 0.62643 0.76732 0.0
C770 C 1.01505 0.61969 0.73315 0.0
C771 C 1.01506 0.64908 0.70063 0.0
C772 C 0.88209 0.97983 0.04003 0.0
C773 C 0.84734 0.99447 0.0452 0.0
C774 C 0.91107 0.97995 0.07153 0.0
C775 C 0.90961 0.99502 0.11302 0.0
H776 H 0.88743 0.96756 1.0105 0.0
H777 H 0.93525 0.96799 0.06251 0.0
S778 S 0.82619 1.03651 0.14714 0.0
N779 N 0.81596 1.02401 0.09959 0.0
N780 N 0.86686 1.0248 0.15479 0.0
C781 C 0.87507 1.00946 0.11815 0.0
C782 C 0.84582 1.00907 0.08652 0.0
C783 C 0.47888 0.61957 0.86436 0.0
C784 C 0.49791 0.6526 0.86206 0.0
C785 C 0.47881 0.59081 0.83354 0.0
C786 C 0.49772 0.59014 0.79451 0.0
H787 H 0.46304 0.61531 0.89189 0.0
H788 H 0.46308 0.56807 0.84109 0.0
S789 S 0.55407 0.66816 0.76748 0.0
N790 N 0.53789 0.68025 0.81285 0.0
N791 N 0.53764 0.62915 0.75743 0.0
C792 C 0.51722 0.62302 0.79125 0.0
C793 C 0.51741 0.65255 0.82317 0.0
C794 C 0.83944 0.27131 0.56745 0.0
C795 C 0.83213 0.25045 0.60455 0.0
C796 C 0.86941 0.26808 0.53845 0.0
C797 C 0.89783 0.24385 0.54216 0.0
H798 H 0.82109 0.29162 0.5602 0.0
H799 H 0.87038 0.28603 0.51228 0.0
S800 S 0.89694 0.182 0.63389 0.0
N801 N 0.86055 0.20348 0.64193 0.0
N802 N 0.91462 0.19811 0.59073 0.0
C803 C 0.89146 0.22279 0.57955 0.0
C804 C 0.86029 0.22577 0.60899 0.0
C805 C 0.27251 0.61741 0.36691 0.0
C806 C 0.25243 0.58499 0.36661 0.0
C807 C 0.27194 0.6462 0.33557 0.0
C808 C 0.25117 0.64747 0.29802 0.0
H809 H 0.28975 0.62116 0.39315 0.0
H810 H 0.28869 0.66845 0.34146 0.0
S811 S 0.19098 0.57145 0.27702 0.0
N812 N 0.2091 0.55876 0.32122 0.0
N813 N 0.20818 0.60989 0.26492 0.0
C814 C 0.23053 0.61525 0.29689 0.0
C815 C 0.23101 0.58573 0.32932 0.0
C816 C 0.83967 0.76264 0.45411 0.0
C817 C 0.8338 0.74226 0.41665 0.0
C818 C 0.86946 0.76037 0.48346 0.0
C819 C 0.8992 0.73777 0.47985 0.0
H820 H 0.82021 0.78181 0.46137 0.0
H821 H 0.86917 0.77776 0.50982 0.0
S822 S 0.90245 0.67788 0.38749 0.0
N823 N 0.86508 0.69762 0.37921 0.0
N824 N 0.91879 0.69398 0.43099 0.0
C825 C 0.89427 0.7172 0.44215 0.0
C826 C 0.86328 0.71918 0.41235 0.0
C827 C 0.2664 0.13316 0.69478 0.0
C828 C 0.24399 0.1398 0.73071 0.0
C829 C 0.26414 1.10257 0.66582 0.0
C830 C 0.23877 1.0741 0.66821 0.0
H831 H 0.28662 0.15229 0.68834 0.0
H832 H 0.28258 1.10197 0.64034 0.0
S833 S 0.17159 1.07607 0.75354 0.0
N834 N 0.19433 1.11172 0.76358 0.0
N835 N 0.18968 1.05841 0.71218 0.0
C836 C 0.21622 1.08095 0.70357 0.0
C837 C 0.21882 1.11156 0.73309 0.0
C838 C 0.84523 0.507 0.93921 0.0
C839 C 0.84482 0.48872 0.97885 0.0
C840 C 0.87396 0.50749 0.90806 0.0
C841 C 0.90716 0.4897 0.91059 0.0
H842 H 0.82232 0.52178 0.93145 0.0
H843 H 0.86952 0.52272 0.88009 0.0
S844 S 0.92368 0.43605 1.00683 0.0
N845 N 0.88442 0.45105 0.01679 0.0
N846 N 0.93547 0.45183 0.96075 0.0
C847 C 0.90742 0.47093 0.95009 0.0
C848 C 0.87795 0.47056 0.98236 0.0
C849 C 0.47667 1.08217 0.18839 0.0
C850 C 0.49662 1.08103 0.22655 0.0
C851 C 0.47631 1.11112 0.15727 0.0
C852 C 0.49583 0.14387 0.15843 0.0
H853 H 0.46041 1.0597 0.18181 0.0
H854 H 0.4597 1.10725 0.13048 0.0
S855 S 0.55456 0.15822 0.25038 0.0
N856 N 0.53792 0.11934 0.26153 0.0
N857 N 0.53738 0.17076 0.20558 0.0
C858 C 0.51631 0.14336 0.19644 0.0
C859 C 0.51657 1.11366 0.22866 0.0
C860 C 0.34705 0.51112 0.58509 0.0
C861 C 0.34672 0.49383 0.54515 0.0
C862 C 0.37571 0.51096 0.61618 0.0
C863 C 0.40893 0.49322 0.61344 0.0
H864 H 0.32411 0.5257 0.59313 0.0
H865 H 0.37119 0.5256 0.64431 0.0
S866 S 0.4254 0.44127 0.5167 0.0
N867 N 0.3863 0.45675 0.50684 0.0
N868 N 0.43714 0.45613 0.56286 0.0
C869 C 0.40921 0.47526 0.57371 0.0
C870 C 0.37984 0.47569 0.5414 0.0
C871 C 1.01376 0.15305 0.32207 0.0
C872 C 0.99527 0.15229 0.36176 0.0
C873 C 1.01422 0.12423 0.2905 0.0
C874 C 0.99655 1.09026 0.29373 0.0
H875 H 1.0284 0.17652 0.31461 0.0
H876 H 1.02932 0.12902 0.26251 0.0
S877 S 0.94486 1.07095 0.39062 0.0
N878 N 0.95901 1.11091 0.39983 0.0
N879 N 0.96034 1.06028 0.34451 0.0
C880 C 0.97854 1.08936 0.33331 0.0
C881 C 0.97785 0.11849 0.36504 0.0
C882 C 0.34085 0.76201 0.0754 0.0
C883 C 0.33987 0.74219 0.1143 0.0
C884 C 0.36983 0.76191 0.04373 0.0
C885 C 0.40225 0.74227 0.04607 0.0
H886 H 0.31876 0.7783 0.06874 0.0
H887 H 0.36648 0.77822 0.01642 0.0
S888 S 0.41645 0.68595 0.14037 0.0
N889 N 0.37782 0.70221 0.1505 0.0
N890 N 0.42871 0.70243 0.09494 0.0
C891 C 0.40138 0.7228 0.08478 0.0
C892 C 0.3721 0.72274 0.11664 0.0
C893 C 0.7237 1.11222 0.78649 0.0
C894 C 0.74405 0.14374 0.7923 0.0
C895 C 0.72126 1.08216 0.81585 0.0
C896 C 0.73948 1.07797 0.8552 0.0
H897 H 0.70821 1.1107 0.75845 0.0
H898 H 0.70382 1.06117 0.80705 0.0
S899 S 0.79691 0.15178 0.89048 0.0
N900 N 0.7829 0.16695 0.84524 0.0
N901 N 0.77917 1.11268 0.89699 0.0
C902 C 0.76024 1.10924 0.86166 0.0
C903 C 0.76223 0.14046 0.83195 0.0
C904 C 0.63606 0.24075 0.84388 0.0
C905 C 0.60527 0.22131 0.83882 0.0
C906 C 0.65843 0.24699 0.81029 0.0
C907 C 0.65043 0.23465 0.77035 0.0
H908 H 0.64353 0.25007 0.87441 0.0
H909 H 0.68248 0.261 0.81583 0.0
S910 S 0.57176 0.18416 0.7405 0.0
N911 N 0.56708 0.19066 0.79105 0.0
N912 N 0.60883 0.20341 0.72709 0.0
C913 C 0.61895 0.21645 0.76443 0.0
C914 C 0.59644 0.20942 0.79898 0.0
C915 C 0.76096 0.84671 0.0614 0.0
C916 C 0.76252 0.86109 0.10153 0.0
C917 C 0.75568 0.86805 0.02627 0.0
C918 C 0.75171 0.90418 0.03062 0.0
H919 H 0.76508 0.81911 0.05711 0.0
H920 H 0.75594 0.85645 0.99562 0.0
S921 S 0.749 0.95311 0.13007 0.0
N922 N 0.7564 0.91247 0.14419 0.0
N923 N 0.74613 0.95261 0.07879 0.0
C924 C 0.7512 0.91829 0.07101 0.0
C925 C 0.75675 0.8967 0.10638 0.0
C926 C 0.12425 1.00775 0.27458 0.0
C927 C 1.08877 0.99957 0.27962 0.0
C928 C 0.14556 1.01289 0.3094 0.0
C929 C 0.13189 1.00921 0.34978 0.0
H930 H 0.1353 1.01134 0.24374 0.0
H931 H 0.17261 1.02015 0.30484 0.0
S932 S 1.0415 0.98614 0.37955 0.0
N933 N 1.04138 0.98688 0.32811 0.0
N934 N 1.08181 0.9957 0.39327 0.0
C935 C 1.09694 0.99983 0.35518 0.0
C936 C 1.07522 0.99515 0.32005 0.0
C937 C 0.97203 0.31998 0.56421 0.0
C938 C 0.98406 0.33393 0.52612 0.0
C939 C 0.96344 0.34148 0.59729 0.0
C940 C 0.96687 0.37782 0.59388 0.0
H941 H 0.96893 0.29213 0.56865 0.0
H942 H 0.95461 0.32942 0.62613 0.0
S943 S 0.99861 0.42738 0.50144 0.0
N944 N 0.99985 0.38622 0.48696 0.0
N945 N 0.98387 0.42702 0.54987 0.0
C946 C 0.97943 0.39225 0.55626 0.0
C947 C 0.98794 0.3702 0.52217 0.0
C948 C 0.59926 0.99594 0.17162 0.0
C949 C 0.63249 1.01065 0.17654 0.0
C950 C 0.57817 0.98903 0.20603 0.0
C951 C 0.58978 0.996 0.24658 0.0
H952 H 0.58917 0.99054 0.14079 0.0
H953 H 0.55232 0.9787 0.20066 0.0
S954 S 0.67554 1.03333 0.27588 0.0
N955 N 0.6767 1.03147 0.22446 0.0
N956 N 0.63707 1.01759 0.28996 0.0
C957 C 0.62341 1.00987 0.2521 0.0
C958 C 0.64477 1.01752 0.21677 0.0
C959 C 0.47263 0.38649 0.96839 0.0
C960 C 0.46657 0.37373 0.92809 0.0
C961 C 0.48024 0.3636 1.00148 0.0
C962 C 0.48249 0.32751 0.99485 0.0
H963 H 0.4711 0.41415 0.97436 0.0
H964 H 0.48417 0.37416 0.03233 0.0
S965 S 0.47188 0.28215 0.8936 0.0
N966 N 0.46519 0.32357 0.88268 0.0
N967 N 0.48002 0.28066 0.944 0.0
C968 C 0.4775 0.31485 0.95417 0.0
C969 C 0.46939 0.33796 0.92098 0.0
C970 C 0.11798 0.22343 0.75016 0.0
C971 C 0.15413 0.22678 0.74416 0.0
C972 C 1.09586 0.21555 0.71663 0.0
C973 C 1.10944 0.2104 0.67647 0.0
H974 H 1.10681 0.22646 0.78092 0.0
H975 H 1.06816 0.2129 0.72219 0.0
S976 S 0.20155 0.21928 0.64363 0.0
N977 N 0.20196 0.22659 0.69419 0.0
N978 N 0.16048 0.21152 0.63187 0.0
C979 C 0.14528 0.21462 0.66996 0.0
C980 C 0.16762 0.22289 0.70367 0.0
C981 C 0.23794 0.90151 0.46442 0.0
C982 C 0.25308 0.8938 0.50308 0.0
C983 C 0.24372 0.88047 0.42991 0.0
C984 C 0.26551 0.85148 0.43274 0.0
H985 H 0.22225 0.92452 0.46055 0.0
H986 H 0.23231 0.88782 0.40031 0.0
S987 S 0.31019 0.8194 0.52739 0.0
N988 N 0.28932 0.85434 0.54302 0.0
N989 N 0.30114 0.81513 0.47735 0.0
C990 C 0.28006 0.84285 0.47147 0.0
C991 C 0.27351 0.86392 0.50697 0.0
C992 C 1.09949 0.7178 0.30641 0.0
C993 C 1.11255 0.7123 0.34675 0.0
C994 C 0.12199 0.72668 0.27333 0.0
C995 C 0.15796 0.7307 0.28001 0.0
H996 H 1.07194 0.71467 0.30036 0.0
H997 H 1.11126 0.72995 0.24239 0.0
S998 S 0.20389 0.72259 0.38138 0.0
N999 N 0.16278 0.71378 0.39234 0.0
N1000 N 0.20498 0.73075 0.33087 0.0
C1001 C 0.17089 0.72649 0.32074 0.0
C1002 C 0.14817 0.71719 0.35398 0.0
C1003 C 0.25415 0.38707 0.60007 0.0
C1004 C 0.26699 0.35344 0.59429 0.0
C1005 C 0.24886 0.40932 0.56614 0.0
C1006 C 0.25566 0.3985 0.52522 0.0
H1007 H 0.24902 0.39652 0.63119 0.0
H1008 H 0.23993 0.43544 0.57211 0.0
S1009 S 0.28847 0.31218 0.4938 0.0
N1010 N 0.28585 0.30979 0.54517 0.0
N1011 N 0.275 0.35149 0.48071 0.0
C1012 C 0.26748 0.36444 0.5189 0.0
C1013 C 0.27345 0.34192 0.5537 0.0
C1014 C 0.6253 0.51018 0.77345 0.0
C1015 C 0.58918 0.50648 0.77946 0.0
C1016 C 0.64731 0.51882 0.80683 0.0
C1017 C 0.6337 0.52435 0.84693 0.0
H1018 H 0.63654 0.50677 0.7428 0.0
H1019 H 0.67499 0.52164 0.8012 0.0
S1020 S 0.54159 0.51471 0.87982 0.0
N1021 N 0.54134 0.50697 0.82937 0.0
N1022 N 0.58258 0.52294 0.89149 0.0
C1023 C 0.59787 0.51976 0.85345 0.0
C1024 C 0.57563 0.51088 0.81985 0.0
C1025 C 0.50555 0.83239 0.05828 0.0
C1026 C 0.4873 0.83732 0.02098 0.0
C1027 C 0.49905 0.85317 0.09281 0.0
C1028 C 0.47352 0.879 0.09136 0.0
H1029 H 0.52448 0.81181 0.06104 0.0
H1030 H 0.51312 0.84807 0.1214 0.0
S1031 S 0.41913 0.90255 1.00059 0.0
N1032 N 0.44358 0.87045 0.98376 0.0
N1033 N 0.43057 0.90915 0.04955 0.0
C1034 C 0.45554 0.88469 0.05399 0.0
C1035 C 0.46272 0.86395 0.01843 0.0
C1036 C 1.10558 0.48878 0.67834 0.0
C1037 C 0.13591 0.50918 0.68238 0.0
C1038 C 1.0835 0.48305 0.71231 0.0
C1039 C 1.09143 0.49693 0.75146 0.0
H1040 H 1.09827 0.47824 0.64834 0.0
H1041 H 1.05985 0.46802 0.70782 0.0
S1042 S 0.16882 0.55031 0.77871 0.0
N1043 N 0.17354 0.54226 0.72851 0.0
N1044 N 0.13225 0.53061 0.7931 0.0
C1045 C 0.1224 0.51613 0.75642 0.0
C1046 C 0.14459 0.52258 0.72156 0.0
C1047 C 0.98389 0.84068 0.42281 0.0
C1048 C 0.97428 0.87547 0.42793 0.0
C1049 C 0.98928 0.8191 0.4572 0.0
C1050 C 0.98566 0.83161 0.498 0.0
H1051 H 0.98689 0.82998 0.39187 0.0
H1052 H 0.99615 0.79228 0.45165 0.0
S1053 S 0.96193 0.92136 0.52774 0.0
N1054 N 0.9618 0.92202 0.47623 0.0
N1055 N 0.97256 0.88134 0.54164 0.0
C1056 C 0.97661 0.86662 0.50363 0.0
C1057 C 0.97066 0.88859 0.46833 0.0
C1058 C 0.62841 0.73655 0.18744 0.0
C1059 C 0.61245 0.70436 0.17842 0.0
C1060 C 0.65016 0.74023 0.22201 0.0
C1061 C 0.6565 0.71189 0.24877 0.0
H1062 H 0.6253 0.75863 0.16661 0.0
H1063 H 0.66285 0.76518 0.22706 0.0
S1064 S 0.61836 0.62297 0.24069 0.0
N1065 N 0.60232 0.64442 0.20045 0.0
N1066 N 0.64348 0.65114 0.2654 0.0
C1067 C 0.6395 0.67997 0.24111 0.0
C1068 C 0.6174 0.67624 0.20588 0.0
C1069 C 0.77921 0.37199 0.99504 0.0
C1070 C 0.75216 0.39609 0.99621 0.0
C1071 C 0.78535 0.35275 0.959 0.0
C1072 C 0.7642 0.35683 0.92368 0.0
H1073 H 0.79664 0.36923 0.02131 0.0
H1074 H 0.80713 0.33513 0.95842 0.0
S1075 S 0.68796 0.41446 0.91352 0.0
N1076 N 0.70282 0.42165 0.96096 0.0
N1077 N 0.7139 0.38514 0.89313 0.0
C1078 C 0.73601 0.3797 0.92546 0.0
C1079 C 0.73013 0.39954 0.96186 0.0
C1080 C 0.29744 0.29853 0.22288 0.0
C1081 C 0.3031 0.30947 0.18141 0.0
C1082 C 0.28313 0.32115 0.25184 0.0
C1083 C 0.27394 0.35504 0.23986 0.0
H1084 H 0.30883 0.27475 0.23466 0.0
H1085 H 0.28399 0.31373 0.28447 0.0
S1086 S 0.26989 0.38985 0.13212 0.0
N1087 N 0.28825 0.3514 0.12742 0.0
N1088 N 0.26111 0.39422 0.18223 0.0
C1089 C 0.27273 0.36329 0.1972 0.0
C1090 C 0.28729 0.34023 0.16769 0.0
C1091 C 0.59881 0.7329 0.57094 0.0
C1092 C 0.59447 0.72729 0.52795 0.0
C1093 C 0.57783 0.71514 0.59993 0.0
C1094 C 0.55177 0.69199 0.5864 0.0
H1095 H 0.62146 0.74695 0.58218 0.0
H1096 H 0.58519 0.71565 0.6325 0.0
S1097 S 0.52232 0.67842 0.47779 0.0
N1098 N 0.55656 0.70448 0.4737 0.0
N1099 N 0.51655 0.67209 0.52823 0.0
C1100 C 0.54263 0.69222 0.54402 0.0
C1101 C 0.56427 0.70976 0.51452 0.0
C1102 C 0.26597 0.85336 0.82708 0.0
C1103 C 0.268 0.84541 0.78446 0.0
C1104 C 0.28182 0.83192 0.85666 0.0
C1105 C 0.29999 0.8023 0.84396 0.0
H1106 H 0.25668 0.87855 0.83685 0.0
H1107 H 0.28455 0.84137 0.88823 0.0
S1108 S 0.30138 0.76435 0.73812 0.0
N1109 N 0.28065 0.80146 0.73267 0.0
N1110 N 0.31022 0.76098 0.78825 0.0
C1111 C 0.29545 0.79047 0.80294 0.0
C1112 C 0.27947 0.81232 0.77288 0.0
C1113 C 1.09876 0.57231 0.1224 0.0
C1114 C 0.13371 0.56252 0.12633 0.0
C1115 C 1.07642 0.5541 0.09588 0.0
C1116 C 1.08858 0.52571 0.07286 0.0
H1117 H 1.09003 0.59694 0.13461 0.0
H1118 H 1.05151 0.5656 0.08881 0.0
S1119 S 0.17308 0.48191 0.08635 0.0
N1120 N 0.17599 0.51695 0.11574 0.0
N1121 N 0.13362 0.48224 0.06611 0.0
C1122 C 0.12086 0.51153 0.08369 0.0
C1123 C 0.14368 0.53019 0.11046 0.0
C1124 C 0.79077 0.88128 0.69106 0.0
C1125 C 0.77098 0.86778 0.7245 0.0
C1126 C 0.8079 0.85898 0.66405 0.0
C1127 C 0.80571 0.82272 0.67004 0.0
H1128 H 0.79737 0.90876 0.6893 0.0
H1129 H 0.82699 0.87039 0.64299 0.0
S1130 S 0.74493 0.77564 0.74083 0.0
N1131 N 0.74094 0.81705 0.75334 0.0
N1132 N 0.77309 0.77482 0.70189 0.0
C1133 C 0.77998 0.80941 0.69715 0.0
C1134 C 0.76267 0.83213 0.72486 0.0
C1135 C 0.76953 0.3797 0.34126 0.0
C1136 C 0.78459 0.41107 0.32654 0.0
C1137 C 0.78861 0.35721 0.36671 0.0
C1138 C 0.8226 0.3662 0.37887 0.0
H1139 H 0.7457 0.36992 0.32744 0.0
H1140 H 0.77875 0.33099 0.37198 0.0
S1141 S 0.86742 0.45102 0.36182 0.0
N1142 N 0.83064 0.45417 0.33577 0.0
N1143 N 0.86613 0.41231 0.38446 0.0
C1144 C 0.83437 0.40053 0.37199 0.0
C1145 C 0.81515 0.42319 0.34571 0.0
C1146 C 1.08403 1.07266 0.89745 0.0
C1147 C 0.1182 1.06104 0.89143 0.0
C1148 C 1.06149 1.05467 0.92446 0.0
C1149 C 1.07289 1.0249 0.94598 0.0
H1150 H 1.07655 1.0984 0.88699 0.0
H1151 H 1.03781 1.06751 0.93377 0.0
S1152 S 0.15335 0.97614 0.92497 0.0
N1153 N 0.15755 1.01226 0.89701 0.0
N1154 N 0.11477 0.97805 0.94755 0.0
C1155 C 1.10331 1.00881 0.93188 0.0
C1156 C 0.12638 1.02724 0.9047 0.0
C1157 C 0.61302 0.21754 0.44645 0.0
C1158 C 0.60436 0.21517 0.48898 0.0
C1159 C 0.59212 0.20131 0.41663 0.0
C1160 C 0.56227 0.18245 0.42892 0.0
H1161 H 0.63826 0.22766 0.43695 0.0
H1162 H 0.60197 0.19913 0.38511 0.0
S1163 S 0.52321 0.17859 0.53462 0.0
N1164 N 0.56002 0.20047 0.54043 0.0
N1165 N 0.52051 0.17017 0.48439 0.0
C1166 C 0.55001 0.18605 0.46998 0.0
C1167 C 0.57134 0.20241 0.50029 0.0
loop_
_geom_bond_atom_site_label_1
_geom_bond_atom_site_label_2
_geom_bond_distance
_geom_bond_site_symmetry_2
_ccdc_geom_bond_type
La0 C2 2.928 . S
La0 O20 2.521 . S
La0 O21 2.628 . S
La0 O22 2.554 1_556 S
La0 O23 2.757 1_556 S
La0 O24 2.470 1_556 S
La0 O29 2.482 . S
La0 O31 2.503 . S
La1 C11 2.928 . S
La1 O23 2.482 . S
La1 O25 2.503 . S
La1 O26 2.521 . S
La1 O27 2.628 . S
La1 O28 2.554 . S
La1 O29 2.757 1_554 S
La1 O30 2.470 . S
C2 La0 2.928 . S
C2 C3 1.503 . S
C2 O20 1.261 . S
C2 O21 1.243 . S
C3 C2 1.503 . S
C3 C4 1.394 . S
C3 C8 1.373 . S
C4 C3 1.394 . S
C4 C5 1.380 . S
C4 H32 0.930 . S
C5 C4 1.380 . S
C5 C6 1.376 . S
C5 H33 0.930 . S
C6 C5 1.376 . S
C6 C7 1.370 . S
C7 C6 1.370 . S
C7 C8 1.396 . S
C7 H34 0.929 . S
C8 C3 1.373 . S
C8 C7 1.396 . S
C8 H35 0.929 . S
C9 O22 1.240 . S
C9 O23 1.289 . S
C10 O24 1.258 . S
C10 O25 1.256 . S
C11 La1 2.928 . S
C11 C12 1.503 . S
C11 O26 1.261 . S
C11 O27 1.243 . S
C12 C11 1.503 . S
C12 C13 1.394 . S
C12 C17 1.373 . S
C13 C12 1.394 . S
C13 C14 1.380 . S
C13 H36 0.930 . S
C14 C13 1.380 . S
C14 C15 1.376 . S
C14 H37 0.930 . S
C15 C14 1.376 . S
C15 C16 1.370 . S
C16 C15 1.370 . S
C16 C17 1.396 . S
C16 H38 0.929 . S
C17 C12 1.373 . S
C17 C16 1.396 . S
C17 H39 0.929 . S
C18 O28 1.240 1_556 S
C18 O29 1.289 . S
C19 O30 1.258 . S
C19 O31 1.255 1_554 S
O20 La0 2.521 . S
O20 C2 1.261 . S
O21 La0 2.628 . S
O21 C2 1.243 . S
O22 La0 2.554 1_554 S
O22 C9 1.240 . S
O23 La0 2.757 1_554 S
O23 La1 2.482 . S
O23 C9 1.289 . S
O24 La0 2.470 1_554 S
O24 C10 1.258 . S
O25 La1 2.503 . S
O25 C10 1.256 . S
O26 La1 2.521 . S
O26 C11 1.261 . S
O27 La1 2.628 . S
O27 C11 1.243 . S
O28 La1 2.554 . S
O28 C18 1.240 1_554 S
O29 La0 2.482 . S
O29 La1 2.757 1_556 S
O29 C18 1.289 . S
O30 La1 2.470 . S
O30 C19 1.258 . S
O31 La0 2.503 . S
O31 C19 1.255 1_556 S
H32 C4 0.930 . S
H33 C5 0.930 . S
H34 C7 0.929 . S
H35 C8 0.929 . S
H36 C13 0.930 . S
H37 C14 0.930 . S
H38 C16 0.929 . S
H39 C17 0.929 . S
La40 C42 2.928 . S
La40 O60 2.521 . S
La40 O61 2.628 . S
La40 O62 2.554 . S
La40 O63 2.757 . S
La40 O64 2.470 . S
La40 O69 2.482 . S
La40 O71 2.503 . S
La41 C51 2.928 . S
La41 O63 2.482 . S
La41 O65 2.503 . S
La41 O66 2.521 . S
La41 O67 2.628 . S
La41 O68 2.554 . S
La41 O69 2.757 . S
La41 O70 2.470 . S
C42 La40 2.928 . S
C42 C43 1.503 . S
C42 O60 1.261 . S
C42 O61 1.243 . S
C43 C42 1.503 . S
C43 C44 1.394 . S
C43 C48 1.373 . S
C44 C43 1.394 . S
C44 C45 1.380 . S
C44 H72 0.930 . S
C45 C44 1.380 . S
C45 C46 1.376 . S
C45 H73 0.930 . S
C46 C45 1.376 . S
C46 C47 1.370 . S
C47 C46 1.370 . S
C47 C48 1.396 . S
C47 H74 0.929 . S
C48 C43 1.373 . S
C48 C47 1.396 . S
C48 H75 0.929 . S
C49 O62 1.240 . S
C49 O63 1.289 . S
C50 O64 1.258 . S
C50 O65 1.256 . S
C51 La41 2.928 . S
C51 C52 1.503 . S
C51 O66 1.261 . S
C51 O67 1.243 . S
C52 C51 1.503 . S
C52 C53 1.394 . S
C52 C57 1.373 . S
C53 C52 1.394 . S
C53 C54 1.380 . S
C53 H76 0.930 . S
C54 C53 1.380 . S
C54 C55 1.376 . S
C54 H77 0.930 . S
C55 C54 1.376 . S
C55 C56 1.370 . S
C56 C55 1.370 . S
C56 C57 1.396 . S
C56 H78 0.929 . S
C57 C52 1.373 . S
C57 C56 1.396 . S
C57 H79 0.929 . S
C58 O68 1.240 . S
C58 O69 1.289 . S
C59 O70 1.258 . S
C59 O71 1.256 . S
O60 La40 2.521 . S
O60 C42 1.261 . S
O61 La40 2.628 . S
O61 C42 1.243 . S
O62 La40 2.554 . S
O62 C49 1.240 . S
O63 La40 2.757 . S
O63 La41 2.482 . S
O63 C49 1.289 . S
O64 La40 2.470 . S
O64 C50 1.258 . S
O65 La41 2.503 . S
O65 C50 1.256 . S
O66 La41 2.521 . S
O66 C51 1.261 . S
O67 La41 2.628 . S
O67 C51 1.243 . S
O68 La41 2.554 . S
O68 C58 1.240 . S
O69 La40 2.482 . S
O69 La41 2.757 . S
O69 C58 1.289 . S
O70 La41 2.470 . S
O70 C59 1.258 . S
O71 La40 2.503 . S
O71 C59 1.256 . S
H72 C44 0.930 . S
H73 C45 0.930 . S
H74 C47 0.929 . S
H75 C48 0.929 . S
H76 C53 0.930 . S
H77 C54 0.930 . S
H78 C56 0.929 . S
H79 C57 0.929 . S
La80 C82 2.928 . S
La80 O100 2.521 . S
La80 O101 2.628 . S
La80 O102 2.554 . S
La80 O103 2.757 . S
La80 O104 2.470 . S
La80 O109 2.482 . S
La80 O111 2.503 . S
La81 C91 2.928 . S
La81 O103 2.482 . S
La81 O105 2.503 . S
La81 O106 2.521 . S
La81 O107 2.628 . S
La81 O108 2.554 . S
La81 O109 2.757 . S
La81 O110 2.470 . S
C82 La80 2.928 . S
C82 C83 1.503 . S
C82 O100 1.261 . S
C82 O101 1.243 . S
C83 C82 1.503 . S
C83 C84 1.394 . S
C83 C88 1.373 . S
C84 C83 1.394 . S
C84 C85 1.380 1_455 S
C84 H112 0.930 . S
C85 C84 1.380 1_655 S
C85 C86 1.376 . S
C85 H113 0.930 . S
C86 C85 1.376 . S
C86 C87 1.370 . S
C87 C86 1.370 . S
C87 C88 1.396 1_655 S
C87 H114 0.929 . S
C88 C83 1.373 . S
C88 C87 1.396 1_455 S
C88 H115 0.929 . S
C89 O102 1.240 . S
C89 O103 1.289 . S
C90 O104 1.258 . S
C90 O105 1.256 . S
C91 La81 2.928 . S
C91 C92 1.503 . S
C91 O106 1.261 . S
C91 O107 1.243 . S
C92 C91 1.503 . S
C92 C93 1.394 . S
C92 C97 1.373 . S
C93 C92 1.394 . S
C93 C94 1.380 . S
C93 H116 0.930 . S
C94 C93 1.380 . S
C94 C95 1.376 . S
C94 H117 0.930 . S
C95 C94 1.376 . S
C95 C96 1.370 . S
C96 C95 1.370 . S
C96 C97 1.396 . S
C96 H118 0.929 . S
C97 C92 1.373 . S
C97 C96 1.396 . S
C97 H119 0.929 . S
C98 O108 1.240 . S
C98 O109 1.289 . S
C99 O110 1.258 . S
C99 O111 1.256 . S
O100 La80 2.521 . S
O100 C82 1.261 . S
O101 La80 2.628 . S
O101 C82 1.243 . S
O102 La80 2.554 . S
O102 C89 1.240 . S
O103 La80 2.757 . S
O103 La81 2.482 . S
O103 C89 1.289 . S
O104 La80 2.470 . S
O104 C90 1.258 . S
O105 La81 2.503 . S
O105 C90 1.256 . S
O106 La81 2.521 . S
O106 C91 1.261 . S
O107 La81 2.628 . S
O107 C91 1.243 . S
O108 La81 2.554 . S
O108 C98 1.240 . S
O109 La80 2.482 . S
O109 La81 2.757 . S
O109 C98 1.289 . S
O110 La81 2.470 . S
O110 C99 1.258 . S
O111 La80 2.503 . S
O111 C99 1.256 . S
H112 C84 0.930 . S
H113 C85 0.930 . S
H114 C87 0.929 . S
H115 C88 0.929 . S
H116 C93 0.930 . S
H117 C94 0.930 . S
H118 C96 0.929 . S
H119 C97 0.929 . S
La120 C122 2.928 . S
La120 O140 2.521 . S
La120 O141 2.628 . S
La120 O142 2.554 . S
La120 O143 2.757 . S
La120 O144 2.470 . S
La120 O149 2.482 . S
La120 O151 2.503 . S
La121 C131 2.928 . S
La121 O143 2.482 . S
La121 O145 2.503 . S
La121 O146 2.521 . S
La121 O147 2.628 . S
La121 O148 2.554 . S
La121 O149 2.757 . S
La121 O150 2.470 . S
C122 La120 2.928 . S
C122 C123 1.503 . S
C122 O140 1.261 . S
C122 O141 1.243 . S
C123 C122 1.503 . S
C123 C124 1.394 . S
C123 C128 1.373 . S
C124 C123 1.394 . S
C124 C125 1.380 . S
C124 H152 0.930 . S
C125 C124 1.380 . S
C125 C126 1.376 . S
C125 H153 0.930 . S
C126 C125 1.376 . S
C126 C127 1.370 . S
C127 C126 1.370 . S
C127 C128 1.396 . S
C127 H154 0.929 . S
C128 C123 1.373 . S
C128 C127 1.396 . S
C128 H155 0.929 . S
C129 O142 1.240 . S
C129 O143 1.289 . S
C130 O144 1.258 . S
C130 O145 1.256 . S
C131 La121 2.928 . S
C131 C132 1.503 . S
C131 O146 1.261 . S
C131 O147 1.243 . S
C132 C131 1.503 . S
C132 C133 1.394 . S
C132 C137 1.373 . S
C133 C132 1.394 . S
C133 C134 1.380 . S
C133 H156 0.930 . S
C134 C133 1.380 . S
C134 C135 1.376 . S
C134 H157 0.930 . S
C135 C134 1.376 . S
C135 C136 1.370 . S
C136 C135 1.370 . S
C136 C137 1.396 . S
C136 H158 0.929 . S
C137 C132 1.373 . S
C137 C136 1.396 . S
C137 H159 0.929 . S
C138 O148 1.240 . S
C138 O149 1.289 . S
C139 O150 1.258 . S
C139 O151 1.256 . S
O140 La120 2.521 . S
O140 C122 1.261 . S
O141 La120 2.628 . S
O141 C122 1.243 . S
O142 La120 2.554 . S
O142 C129 1.240 . S
O143 La120 2.757 . S
O143 La121 2.482 . S
O143 C129 1.289 . S
O144 La120 2.470 . S
O144 C130 1.258 . S
O145 La121 2.503 . S
O145 C130 1.256 . S
O146 La121 2.521 . S
O146 C131 1.261 . S
O147 La121 2.628 . S
O147 C131 1.243 . S
O148 La121 2.554 . S
O148 C138 1.240 . S
O149 La120 2.482 . S
O149 La121 2.757 . S
O149 C138 1.289 . S
O150 La121 2.470 . S
O150 C139 1.258 . S
O151 La120 2.503 . S
O151 C139 1.256 . S
H152 C124 0.930 . S
H153 C125 0.930 . S
H154 C127 0.929 . S
H155 C128 0.929 . S
H156 C133 0.930 . S
H157 C134 0.930 . S
H158 C136 0.929 . S
H159 C137 0.929 . S
La160 C162 2.928 . S
La160 O180 2.521 . S
La160 O181 2.628 . S
La160 O182 2.554 . S
La160 O183 2.757 1_556 S
La160 O184 2.470 . S
La160 O189 2.482 . S
La160 O191 2.503 . S
La161 C171 2.928 . S
La161 O183 2.482 . S
La161 O185 2.503 . S
La161 O186 2.521 . S
La161 O187 2.628 . S
La161 O188 2.554 1_554 S
La161 O189 2.757 1_554 S
La161 O190 2.470 1_554 S
C162 La160 2.928 . S
C162 C163 1.503 . S
C162 O180 1.261 . S
C162 O181 1.243 . S
C163 C162 1.503 . S
C163 C164 1.394 . S
C163 C168 1.373 . S
C164 C163 1.394 . S
C164 C165 1.380 . S
C164 H192 0.930 . S
C165 C164 1.380 . S
C165 C166 1.376 . S
C165 H193 0.930 . S
C166 C165 1.376 . S
C166 C167 1.370 . S
C167 C166 1.370 . S
C167 C168 1.396 . S
C167 H194 0.929 . S
C168 C163 1.373 . S
C168 C167 1.396 . S
C168 H195 0.929 . S
C169 O182 1.240 1_554 S
C169 O183 1.289 . S
C170 O184 1.258 . S
C170 O185 1.255 1_556 S
C171 La161 2.928 . S
C171 C172 1.503 . S
C171 O186 1.261 . S
C171 O187 1.243 . S
C172 C171 1.503 . S
C172 C173 1.394 . S
C172 C177 1.373 . S
C173 C172 1.394 . S
C173 C174 1.380 . S
C173 H196 0.930 . S
C174 C173 1.380 . S
C174 C175 1.376 . S
C174 H197 0.930 . S
C175 C174 1.376 . S
C175 C176 1.370 . S
C176 C175 1.370 . S
C176 C177 1.396 . S
C176 H198 0.929 . S
C177 C172 1.373 . S
C177 C176 1.396 . S
C177 H199 0.929 . S
C178 O188 1.240 . S
C178 O189 1.289 . S
C179 O190 1.258 . S
C179 O191 1.256 . S
O180 La160 2.521 . S
O180 C162 1.261 . S
O181 La160 2.628 . S
O181 C162 1.243 . S
O182 La160 2.554 . S
O182 C169 1.240 1_556 S
O183 La160 2.757 1_554 S
O183 La161 2.482 . S
O183 C169 1.289 . S
O184 La160 2.470 . S
O184 C170 1.258 . S
O185 La161 2.503 . S
O185 C170 1.255 1_554 S
O186 La161 2.521 . S
O186 C171 1.261 . S
O187 La161 2.628 . S
O187 C171 1.243 . S
O188 La161 2.554 1_556 S
O188 C178 1.240 . S
O189 La160 2.482 . S
O189 La161 2.757 1_556 S
O189 C178 1.289 . S
O190 La161 2.470 1_556 S
O190 C179 1.258 . S
O191 La160 2.503 . S
O191 C179 1.256 . S
H192 C164 0.930 . S
H193 C165 0.930 . S
H194 C167 0.929 . S
H195 C168 0.929 . S
H196 C173 0.930 . S
H197 C174 0.930 . S
H198 C176 0.929 . S
H199 C177 0.929 . S
La200 C202 2.928 . S
La200 O220 2.521 . S
La200 O221 2.628 . S
La200 O222 2.554 . S
La200 O223 2.757 . S
La200 O224 2.470 . S
La200 O229 2.482 . S
La200 O231 2.503 . S
La201 C211 2.928 . S
La201 O223 2.482 . S
La201 O225 2.503 . S
La201 O226 2.521 . S
La201 O227 2.628 . S
La201 O228 2.554 . S
La201 O229 2.757 . S
La201 O230 2.470 . S
C202 La200 2.928 . S
C202 C203 1.503 . S
C202 O220 1.261 . S
C202 O221 1.243 . S
C203 C202 1.503 . S
C203 C204 1.394 . S
C203 C208 1.373 . S
C204 C203 1.394 . S
C204 C205 1.380 . S
C204 H232 0.930 . S
C205 C204 1.380 . S
C205 C206 1.376 . S
C205 H233 0.930 . S
C206 C205 1.376 . S
C206 C207 1.370 . S
C207 C206 1.370 . S
C207 C208 1.396 . S
C207 H234 0.929 . S
C208 C203 1.373 . S
C208 C207 1.396 . S
C208 H235 0.929 . S
C209 O222 1.240 . S
C209 O223 1.289 . S
C210 O224 1.258 . S
C210 O225 1.256 . S
C211 La201 2.928 . S
C211 C212 1.503 . S
C211 O226 1.261 . S
C211 O227 1.243 . S
C212 C211 1.503 . S
C212 C213 1.394 . S
C212 C217 1.373 . S
C213 C212 1.394 . S
C213 C214 1.380 . S
C213 H236 0.930 . S
C214 C213 1.380 . S
C214 C215 1.376 . S
C214 H237 0.930 . S
C215 C214 1.376 . S
C215 C216 1.370 . S
C216 C215 1.370 . S
C216 C217 1.396 . S
C216 H238 0.929 . S
C217 C212 1.373 . S
C217 C216 1.396 . S
C217 H239 0.929 . S
C218 O228 1.240 . S
C218 O229 1.289 . S
C219 O230 1.258 . S
C219 O231 1.256 . S
O220 La200 2.521 . S
O220 C202 1.261 . S
O221 La200 2.628 . S
O221 C202 1.243 . S
O222 La200 2.554 . S
O222 C209 1.240 . S
O223 La200 2.757 . S
O223 La201 2.482 . S
O223 C209 1.289 . S
O224 La200 2.470 . S
O224 C210 1.258 . S
O225 La201 2.503 . S
O225 C210 1.256 . S
O226 La201 2.521 . S
O226 C211 1.261 . S
O227 La201 2.628 . S
O227 C211 1.243 . S
O228 La201 2.554 . S
O228 C218 1.240 . S
O229 La200 2.482 . S
O229 La201 2.757 . S
O229 C218 1.289 . S
O230 La201 2.470 . S
O230 C219 1.258 . S
O231 La200 2.503 . S
O231 C219 1.256 . S
H232 C204 0.930 . S
H233 C205 0.930 . S
H234 C207 0.929 . S
H235 C208 0.929 . S
H236 C213 0.930 . S
H237 C214 0.930 . S
H238 C216 0.929 . S
H239 C217 0.929 . S
La240 C242 2.928 . S
La240 O260 2.521 . S
La240 O261 2.628 . S
La240 O262 2.554 . S
La240 O263 2.757 . S
La240 O264 2.470 . S
La240 O269 2.482 . S
La240 O271 2.503 . S
La241 C251 2.928 . S
La241 O263 2.482 . S
La241 O265 2.503 . S
La241 O266 2.521 . S
La241 O267 2.628 . S
La241 O268 2.554 . S
La241 O269 2.757 . S
La241 O270 2.470 . S
C242 La240 2.928 . S
C242 C243 1.503 . S
C242 O260 1.261 . S
C242 O261 1.243 . S
C243 C242 1.503 . S
C243 C244 1.394 . S
C243 C248 1.373 . S
C244 C243 1.394 . S
C244 C245 1.380 . S
C244 H272 0.930 . S
C245 C244 1.380 . S
C245 C246 1.376 . S
C245 H273 0.930 . S
C246 C245 1.376 . S
C246 C247 1.370 . S
C247 C246 1.370 . S
C247 C248 1.396 . S
C247 H274 0.929 . S
C248 C243 1.373 . S
C248 C247 1.396 . S
C248 H275 0.929 . S
C249 O262 1.240 . S
C249 O263 1.289 . S
C250 O264 1.258 . S
C250 O265 1.256 . S
C251 La241 2.928 . S
C251 C252 1.503 . S
C251 O266 1.261 . S
C251 O267 1.243 . S
C252 C251 1.503 . S
C252 C253 1.394 . S
C252 C257 1.373 . S
C253 C252 1.394 . S
C253 C254 1.380 1_655 S
C253 H276 0.930 . S
C254 C253 1.380 1_455 S
C254 C255 1.376 . S
C254 H277 0.930 . S
C255 C254 1.376 . S
C255 C256 1.370 . S
C256 C255 1.370 . S
C256 C257 1.396 1_455 S
C256 H278 0.929 . S
C257 C252 1.373 . S
C257 C256 1.396 1_655 S
C257 H279 0.929 . S
C258 O268 1.240 . S
C258 O269 1.289 . S
C259 O270 1.258 . S
C259 O271 1.256 . S
O260 La240 2.521 . S
O260 C242 1.261 . S
O261 La240 2.628 . S
O261 C242 1.243 . S
O262 La240 2.554 . S
O262 C249 1.240 . S
O263 La240 2.757 . S
O263 La241 2.482 . S
O263 C249 1.289 . S
O264 La240 2.470 . S
O264 C250 1.258 . S
O265 La241 2.503 . S
O265 C250 1.256 . S
O266 La241 2.521 . S
O266 C251 1.261 . S
O267 La241 2.628 . S
O267 C251 1.243 . S
O268 La241 2.554 . S
O268 C258 1.240 . S
O269 La240 2.482 . S
O269 La241 2.757 . S
O269 C258 1.289 . S
O270 La241 2.470 . S
O270 C259 1.258 . S
O271 La240 2.503 . S
O271 C259 1.256 . S
H272 C244 0.930 . S
H273 C245 0.930 . S
H274 C247 0.929 . S
H275 C248 0.929 . S
H276 C253 0.930 . S
H277 C254 0.930 . S
H278 C256 0.929 . S
H279 C257 0.929 . S
La280 C282 2.928 . S
La280 O300 2.521 . S
La280 O301 2.628 . S
La280 O302 2.554 . S
La280 O303 2.757 . S
La280 O304 2.470 . S
La280 O309 2.482 . S
La280 O311 2.503 . S
La281 C291 2.928 . S
La281 O303 2.482 . S
La281 O305 2.503 . S
La281 O306 2.521 . S
La281 O307 2.628 . S
La281 O308 2.554 . S
La281 O309 2.757 . S
La281 O310 2.470 . S
C282 La280 2.928 . S
C282 C283 1.503 . S
C282 O300 1.261 . S
C282 O301 1.243 . S
C283 C282 1.503 . S
C283 C284 1.394 . S
C283 C288 1.373 . S
C284 C283 1.394 . S
C284 C285 1.380 . S
C284 H312 0.930 . S
C285 C284 1.380 . S
C285 C286 1.376 . S
C285 H313 0.930 . S
C286 C285 1.376 . S
C286 C287 1.370 . S
C287 C286 1.370 . S
C287 C288 1.396 . S
C287 H314 0.929 . S
C288 C283 1.373 . S
C288 C287 1.396 . S
C288 H315 0.929 . S
C289 O302 1.240 . S
C289 O303 1.289 . S
C290 O304 1.258 . S
C290 O305 1.256 . S
C291 La281 2.928 . S
C291 C292 1.503 . S
C291 O306 1.261 . S
C291 O307 1.243 . S
C292 C291 1.503 . S
C292 C293 1.394 . S
C292 C297 1.373 . S
C293 C292 1.394 . S
C293 C294 1.380 . S
C293 H316 0.930 . S
C294 C293 1.380 . S
C294 C295 1.376 . S
C294 H317 0.930 . S
C295 C294 1.376 . S
C295 C296 1.370 . S
C296 C295 1.370 . S
C296 C297 1.396 . S
C296 H318 0.929 . S
C297 C292 1.373 . S
C297 C296 1.396 . S
C297 H319 0.929 . S
C298 O308 1.240 . S
C298 O309 1.289 . S
C299 O310 1.258 . S
C299 O311 1.256 . S
O300 La280 2.521 . S
O300 C282 1.261 . S
O301 La280 2.628 . S
O301 C282 1.243 . S
O302 La280 2.554 . S
O302 C289 1.240 . S
O303 La280 2.757 . S
O303 La281 2.482 . S
O303 C289 1.289 . S
O304 La280 2.470 . S
O304 C290 1.258 . S
O305 La281 2.503 . S
O305 C290 1.256 . S
O306 La281 2.521 . S
O306 C291 1.261 . S
O307 La281 2.628 . S
O307 C291 1.243 . S
O308 La281 2.554 . S
O308 C298 1.240 . S
O309 La280 2.482 . S
O309 La281 2.757 . S
O309 C298 1.289 . S
O310 La281 2.470 . S
O310 C299 1.258 . S
O311 La280 2.503 . S
O311 C299 1.256 . S
H312 C284 0.930 . S
H313 C285 0.930 . S
H314 C287 0.929 . S
H315 C288 0.929 . S
H316 C293 0.930 . S
H317 C294 0.930 . S
H318 C296 0.929 . S
H319 C297 0.929 . S
La320 C322 2.928 . S
La320 O340 2.521 . S
La320 O341 2.628 . S
La320 O342 2.554 . S
La320 O343 2.757 . S
La320 O344 2.470 . S
La320 O349 2.482 . S
La320 O351 2.503 . S
La321 C331 2.928 . S
La321 O343 2.482 . S
La321 O345 2.503 . S
La321 O346 2.521 . S
La321 O347 2.628 . S
La321 O348 2.554 . S
La321 O349 2.757 . S
La321 O350 2.470 . S
C322 La320 2.928 . S
C322 C323 1.503 . S
C322 O340 1.261 . S
C322 O341 1.243 . S
C323 C322 1.503 . S
C323 C324 1.394 . S
C323 C328 1.373 . S
C324 C323 1.394 . S
C324 C325 1.380 1_655 S
C324 H352 0.930 . S
C325 C324 1.380 1_455 S
C325 C326 1.376 . S
C325 H353 0.930 . S
C326 C325 1.376 . S
C326 C327 1.370 . S
C327 C326 1.370 . S
C327 C328 1.396 1_455 S
C327 H354 0.929 . S
C328 C323 1.373 . S
C328 C327 1.396 1_655 S
C328 H355 0.929 . S
C329 O342 1.240 . S
C329 O343 1.289 . S
C330 O344 1.258 . S
C330 O345 1.256 . S
C331 La321 2.928 . S
C331 C332 1.503 . S
C331 O346 1.261 . S
C331 O347 1.243 . S
C332 C331 1.503 . S
C332 C333 1.394 . S
C332 C337 1.373 . S
C333 C332 1.394 . S
C333 C334 1.380 . S
C333 H356 0.930 . S
C334 C333 1.380 . S
C334 C335 1.376 . S
C334 H357 0.930 . S
C335 C334 1.376 . S
C335 C336 1.370 . S
C336 C335 1.370 . S
C336 C337 1.396 . S
C336 H358 0.929 . S
C337 C332 1.373 . S
C337 C336 1.396 . S
C337 H359 0.929 . S
C338 O348 1.240 . S
C338 O349 1.289 . S
C339 O350 1.258 . S
C339 O351 1.256 . S
O340 La320 2.521 . S
O340 C322 1.261 . S
O341 La320 2.628 . S
O341 C322 1.243 . S
O342 La320 2.554 . S
O342 C329 1.240 . S
O343 La320 2.757 . S
O343 La321 2.482 . S
O343 C329 1.289 . S
O344 La320 2.470 . S
O344 C330 1.258 . S
O345 La321 2.503 . S
O345 C330 1.256 . S
O346 La321 2.521 . S
O346 C331 1.261 . S
O347 La321 2.628 . S
O347 C331 1.243 . S
O348 La321 2.554 . S
O348 C338 1.240 . S
O349 La320 2.482 . S
O349 La321 2.757 . S
O349 C338 1.289 . S
O350 La321 2.470 . S
O350 C339 1.258 . S
O351 La320 2.503 . S
O351 C339 1.256 . S
H352 C324 0.930 . S
H353 C325 0.930 . S
H354 C327 0.929 . S
H355 C328 0.929 . S
H356 C333 0.930 . S
H357 C334 0.930 . S
H358 C336 0.929 . S
H359 C337 0.929 . S
La360 C362 2.928 . S
La360 O380 2.521 . S
La360 O381 2.628 . S
La360 O382 2.554 . S
La360 O383 2.757 . S
La360 O384 2.470 . S
La360 O389 2.482 . S
La360 O391 2.503 . S
La361 C371 2.928 . S
La361 O383 2.482 . S
La361 O385 2.503 . S
La361 O386 2.521 . S
La361 O387 2.628 . S
La361 O388 2.554 . S
La361 O389 2.757 . S
La361 O390 2.470 . S
C362 La360 2.928 . S
C362 C363 1.503 . S
C362 O380 1.261 . S
C362 O381 1.243 . S
C363 C362 1.503 . S
C363 C364 1.394 . S
C363 C368 1.373 . S
C364 C363 1.394 . S
C364 C365 1.380 . S
C364 H392 0.930 . S
C365 C364 1.380 . S
C365 C366 1.376 . S
C365 H393 0.930 . S
C366 C365 1.376 . S
C366 C367 1.370 . S
C367 C366 1.370 . S
C367 C368 1.396 . S
C367 H394 0.929 . S
C368 C363 1.373 . S
C368 C367 1.396 . S
C368 H395 0.929 . S
C369 O382 1.240 . S
C369 O383 1.289 . S
C370 O384 1.258 . S
C370 O385 1.256 . S
C371 La361 2.928 . S
C371 C372 1.503 . S
C371 O386 1.261 . S
C371 O387 1.243 . S
C372 C371 1.503 . S
C372 C373 1.394 . S
C372 C377 1.373 . S
C373 C372 1.394 . S
C373 C374 1.386 . S
C373 H396 0.930 . S
C374 C373 1.386 . S
C374 C375 1.373 1_545 S
C374 H397 0.928 1_545 S
C375 C374 1.373 1_565 S
C375 C376 1.370 . S
C376 C375 1.370 . S
C376 C377 1.396 1_565 S
C376 H398 0.929 . S
C377 C372 1.373 . S
C377 C376 1.396 1_545 S
C377 H399 0.929 . S
C378 O388 1.240 . S
C378 O389 1.289 . S
C379 O390 1.258 . S
C379 O391 1.256 . S
O380 La360 2.521 . S
O380 C362 1.261 . S
O381 La360 2.628 . S
O381 C362 1.243 . S
O382 La360 2.554 . S
O382 C369 1.240 . S
O383 La360 2.757 . S
O383 La361 2.482 . S
O383 C369 1.289 . S
O384 La360 2.470 . S
O384 C370 1.258 . S
O385 La361 2.503 . S
O385 C370 1.256 . S
O386 La361 2.521 . S
O386 C371 1.261 . S
O387 La361 2.628 . S
O387 C371 1.243 . S
O388 La361 2.554 . S
O388 C378 1.240 . S
O389 La360 2.482 . S
O389 La361 2.757 . S
O389 C378 1.289 . S
O390 La361 2.470 . S
O390 C379 1.258 . S
O391 La360 2.503 . S
O391 C379 1.256 . S
H392 C364 0.930 . S
H393 C365 0.930 . S
H394 C367 0.929 . S
H395 C368 0.929 . S
H396 C373 0.930 . S
H397 C374 0.928 1_565 S
H398 C376 0.929 . S
H399 C377 0.929 . S
La400 C402 2.928 . S
La400 O420 2.521 . S
La400 O421 2.628 . S
La400 O422 2.554 1_556 S
La400 O423 2.757 1_556 S
La400 O424 2.470 1_556 S
La400 O429 2.482 . S
La400 O431 2.503 . S
La401 C411 2.928 . S
La401 O423 2.482 . S
La401 O425 2.503 . S
La401 O426 2.521 . S
La401 O427 2.628 . S
La401 O428 2.554 . S
La401 O429 2.757 1_554 S
La401 O430 2.470 . S
C402 La400 2.928 . S
C402 C403 1.503 . S
C402 O420 1.261 . S
C402 O421 1.243 . S
C403 C402 1.503 . S
C403 C404 1.394 . S
C403 C408 1.373 . S
C404 C403 1.394 . S
C404 C405 1.380 . S
C404 H432 0.930 . S
C405 C404 1.380 . S
C405 C406 1.376 . S
C405 H433 0.930 . S
C406 C405 1.376 . S
C406 C407 1.370 . S
C407 C406 1.370 . S
C407 C408 1.396 . S
C407 H434 0.929 . S
C408 C403 1.373 . S
C408 C407 1.396 . S
C408 H435 0.929 . S
C409 O422 1.240 . S
C409 O423 1.289 . S
C410 O424 1.258 . S
C410 O425 1.256 . S
C411 La401 2.928 . S
C411 C412 1.503 . S
C411 O426 1.261 . S
C411 O427 1.243 . S
C412 C411 1.503 . S
C412 C413 1.394 . S
C412 C417 1.373 . S
C413 C412 1.394 . S
C413 C414 1.380 . S
C413 H436 0.930 . S
C414 C413 1.380 . S
C414 C415 1.376 . S
C414 H437 0.930 . S
C415 C414 1.376 . S
C415 C416 1.370 . S
C416 C415 1.370 . S
C416 C417 1.396 . S
C416 H438 0.929 . S
C417 C412 1.373 . S
C417 C416 1.396 . S
C417 H439 0.929 . S
C418 O428 1.240 1_556 S
C418 O429 1.289 . S
C419 O430 1.258 . S
C419 O431 1.255 1_554 S
O420 La400 2.521 . S
O420 C402 1.261 . S
O421 La400 2.628 . S
O421 C402 1.243 . S
O422 La400 2.554 1_554 S
O422 C409 1.240 . S
O423 La400 2.757 1_554 S
O423 La401 2.482 . S
O423 C409 1.289 . S
O424 La400 2.470 1_554 S
O424 C410 1.258 . S
O425 La401 2.503 . S
O425 C410 1.256 . S
O426 La401 2.521 . S
O426 C411 1.261 . S
O427 La401 2.628 . S
O427 C411 1.243 . S
O428 La401 2.554 . S
O428 C418 1.240 1_554 S
O429 La400 2.482 . S
O429 La401 2.757 1_556 S
O429 C418 1.289 . S
O430 La401 2.470 . S
O430 C419 1.258 . S
O431 La400 2.503 . S
O431 C419 1.255 1_556 S
H432 C404 0.930 . S
H433 C405 0.930 . S
H434 C407 0.929 . S
H435 C408 0.929 . S
H436 C413 0.930 . S
H437 C414 0.930 . S
H438 C416 0.929 . S
H439 C417 0.929 . S
La440 C442 2.928 . S
La440 O460 2.521 . S
La440 O461 2.628 . S
La440 O462 2.554 . S
La440 O463 2.757 . S
La440 O464 2.470 . S
La440 O469 2.482 . S
La440 O471 2.503 . S
La441 C451 2.928 . S
La441 O463 2.482 . S
La441 O465 2.503 . S
La441 O466 2.521 . S
La441 O467 2.628 . S
La441 O468 2.554 . S
La441 O469 2.757 . S
La441 O470 2.470 . S
C442 La440 2.928 . S
C442 C443 1.503 . S
C442 O460 1.261 . S
C442 O461 1.243 . S
C443 C442 1.503 . S
C443 C444 1.394 . S
C443 C448 1.373 . S
C444 C443 1.394 . S
C444 C445 1.380 . S
C444 H472 0.930 . S
C445 C444 1.380 . S
C445 C446 1.376 . S
C445 H473 0.930 . S
C446 C445 1.376 . S
C446 C447 1.370 . S
C447 C446 1.370 . S
C447 C448 1.396 . S
C447 H474 0.929 . S
C448 C443 1.373 . S
C448 C447 1.396 . S
C448 H475 0.929 . S
C449 O462 1.240 . S
C449 O463 1.289 . S
C450 O464 1.258 . S
C450 O465 1.256 . S
C451 La441 2.928 . S
C451 C452 1.503 . S
C451 O466 1.261 . S
C451 O467 1.243 . S
C452 C451 1.503 . S
C452 C453 1.394 . S
C452 C457 1.373 . S
C453 C452 1.394 . S
C453 C454 1.386 . S
C453 H476 0.930 . S
C454 C453 1.386 . S
C454 C455 1.373 1_565 S
C454 H477 0.928 1_565 S
C455 C454 1.373 1_545 S
C455 C456 1.370 . S
C456 C455 1.370 . S
C456 C457 1.396 1_545 S
C456 H478 0.929 . S
C457 C452 1.373 . S
C457 C456 1.396 1_565 S
C457 H479 0.929 . S
C458 O468 1.240 . S
C458 O469 1.289 . S
C459 O470 1.258 . S
C459 O471 1.256 . S
O460 La440 2.521 . S
O460 C442 1.261 . S
O461 La440 2.628 . S
O461 C442 1.243 . S
O462 La440 2.554 . S
O462 C449 1.240 . S
O463 La440 2.757 . S
O463 La441 2.482 . S
O463 C449 1.289 . S
O464 La440 2.470 . S
O464 C450 1.258 . S
O465 La441 2.503 . S
O465 C450 1.256 . S
O466 La441 2.521 . S
O466 C451 1.261 . S
O467 La441 2.628 . S
O467 C451 1.243 . S
O468 La441 2.554 . S
O468 C458 1.240 . S
O469 La440 2.482 . S
O469 La441 2.757 . S
O469 C458 1.289 . S
O470 La441 2.470 . S
O470 C459 1.258 . S
O471 La440 2.503 . S
O471 C459 1.256 . S
H472 C444 0.930 . S
H473 C445 0.930 . S
H474 C447 0.929 . S
H475 C448 0.929 . S
H476 C453 0.930 . S
H477 C454 0.928 1_545 S
H478 C456 0.929 . S
H479 C457 0.929 . S
La480 C482 2.928 . S
La480 O500 2.521 . S
La480 O501 2.628 . S
La480 O502 2.554 . S
La480 O503 2.757 . S
La480 O504 2.470 . S
La480 O509 2.482 . S
La480 O511 2.503 . S
La481 C491 2.928 . S
La481 O503 2.482 . S
La481 O505 2.503 . S
La481 O506 2.521 . S
La481 O507 2.628 . S
La481 O508 2.554 . S
La481 O509 2.757 . S
La481 O510 2.470 . S
C482 La480 2.928 . S
C482 C483 1.503 . S
C482 O500 1.261 . S
C482 O501 1.243 . S
C483 C482 1.503 . S
C483 C484 1.394 . S
C483 C488 1.373 . S
C484 C483 1.394 . S
C484 C485 1.380 . S
C484 H512 0.930 . S
C485 C484 1.380 . S
C485 C486 1.376 . S
C485 H513 0.930 . S
C486 C485 1.376 . S
C486 C487 1.370 . S
C487 C486 1.370 . S
C487 C488 1.396 . S
C487 H514 0.929 . S
C488 C483 1.373 . S
C488 C487 1.396 . S
C488 H515 0.929 . S
C489 O502 1.240 . S
C489 O503 1.289 . S
C490 O504 1.258 . S
C490 O505 1.256 . S
C491 La481 2.928 . S
C491 C492 1.503 . S
C491 O506 1.261 . S
C491 O507 1.243 . S
C492 C491 1.503 . S
C492 C493 1.394 . S
C492 C497 1.373 . S
C493 C492 1.394 . S
C493 C494 1.380 1_455 S
C493 H516 0.930 . S
C494 C493 1.380 1_655 S
C494 C495 1.376 . S
C494 H517 0.930 . S
C495 C494 1.376 . S
C495 C496 1.370 . S
C496 C495 1.370 . S
C496 C497 1.396 1_655 S
C496 H518 0.929 . S
C497 C492 1.373 . S
C497 C496 1.396 1_455 S
C497 H519 0.929 . S
C498 O508 1.240 . S
C498 O509 1.289 . S
C499 O510 1.258 . S
C499 O511 1.256 . S
O500 La480 2.521 . S
O500 C482 1.261 . S
O501 La480 2.628 . S
O501 C482 1.243 . S
O502 La480 2.554 . S
O502 C489 1.240 . S
O503 La480 2.757 . S
O503 La481 2.482 . S
O503 C489 1.289 . S
O504 La480 2.470 . S
O504 C490 1.258 . S
O505 La481 2.503 . S
O505 C490 1.256 . S
O506 La481 2.521 . S
O506 C491 1.261 . S
O507 La481 2.628 . S
O507 C491 1.243 . S
O508 La481 2.554 . S
O508 C498 1.240 . S
O509 La480 2.482 . S
O509 La481 2.757 . S
O509 C498 1.289 . S
O510 La481 2.470 . S
O510 C499 1.258 . S
O511 La480 2.503 . S
O511 C499 1.256 . S
H512 C484 0.930 . S
H513 C485 0.930 . S
H514 C487 0.929 . S
H515 C488 0.929 . S
H516 C493 0.930 . S
H517 C494 0.930 . S
H518 C496 0.929 . S
H519 C497 0.929 . S
La520 C522 2.928 . S
La520 O540 2.521 . S
La520 O541 2.628 . S
La520 O542 2.554 . S
La520 O543 2.757 . S
La520 O544 2.470 . S
La520 O549 2.482 . S
La520 O551 2.503 . S
La521 C531 2.928 . S
La521 O543 2.482 . S
La521 O545 2.503 . S
La521 O546 2.521 . S
La521 O547 2.628 . S
La521 O548 2.554 . S
La521 O549 2.757 . S
La521 O550 2.470 . S
C522 La520 2.928 . S
C522 C523 1.503 . S
C522 O540 1.261 . S
C522 O541 1.243 . S
C523 C522 1.503 . S
C523 C524 1.394 . S
C523 C528 1.373 . S
C524 C523 1.394 . S
C524 C525 1.386 . S
C524 H552 0.930 . S
C525 C524 1.386 . S
C525 C526 1.373 1_565 S
C525 H553 0.928 1_565 S
C526 C525 1.373 1_545 S
C526 C527 1.370 . S
C527 C526 1.370 . S
C527 C528 1.396 1_545 S
C527 H554 0.929 . S
C528 C523 1.373 . S
C528 C527 1.396 1_565 S
C528 H555 0.929 . S
C529 O542 1.240 . S
C529 O543 1.289 . S
C530 O544 1.258 . S
C530 O545 1.256 . S
C531 La521 2.928 . S
C531 C532 1.503 . S
C531 O546 1.261 . S
C531 O547 1.243 . S
C532 C531 1.503 . S
C532 C533 1.394 . S
C532 C537 1.373 . S
C533 C532 1.394 . S
C533 C534 1.380 . S
C533 H556 0.930 . S
C534 C533 1.380 . S
C534 C535 1.376 . S
C534 H557 0.930 . S
C535 C534 1.376 . S
C535 C536 1.370 . S
C536 C535 1.370 . S
C536 C537 1.396 . S
C536 H558 0.929 . S
C537 C532 1.373 . S
C537 C536 1.396 . S
C537 H559 0.929 . S
C538 O548 1.240 . S
C538 O549 1.289 . S
C539 O550 1.258 . S
C539 O551 1.256 . S
O540 La520 2.521 . S
O540 C522 1.261 . S
O541 La520 2.628 . S
O541 C522 1.243 . S
O542 La520 2.554 . S
O542 C529 1.240 . S
O543 La520 2.757 . S
O543 La521 2.482 . S
O543 C529 1.289 . S
O544 La520 2.470 . S
O544 C530 1.258 . S
O545 La521 2.503 . S
O545 C530 1.256 . S
O546 La521 2.521 . S
O546 C531 1.261 . S
O547 La521 2.628 . S
O547 C531 1.243 . S
O548 La521 2.554 . S
O548 C538 1.240 . S
O549 La520 2.482 . S
O549 La521 2.757 . S
O549 C538 1.289 . S
O550 La521 2.470 . S
O550 C539 1.258 . S
O551 La520 2.503 . S
O551 C539 1.256 . S
H552 C524 0.930 . S
H553 C525 0.928 1_545 S
H554 C527 0.929 . S
H555 C528 0.929 . S
H556 C533 0.930 . S
H557 C534 0.930 . S
H558 C536 0.929 . S
H559 C537 0.929 . S
La560 C562 2.928 . S
La560 O580 2.521 . S
La560 O581 2.628 . S
La560 O582 2.554 . S
La560 O583 2.757 1_556 S
La560 O584 2.470 . S
La560 O589 2.482 . S
La560 O591 2.503 . S
La561 C571 2.928 . S
La561 O583 2.482 . S
La561 O585 2.503 . S
La561 O586 2.521 . S
La561 O587 2.628 . S
La561 O588 2.554 1_554 S
La561 O589 2.757 1_554 S
La561 O590 2.470 1_554 S
C562 La560 2.928 . S
C562 C563 1.503 . S
C562 O580 1.261 . S
C562 O581 1.243 . S
C563 C562 1.503 . S
C563 C564 1.394 . S
C563 C568 1.373 . S
C564 C563 1.394 . S
C564 C565 1.380 . S
C564 H592 0.930 . S
C565 C564 1.380 . S
C565 C566 1.376 . S
C565 H593 0.930 . S
C566 C565 1.376 . S
C566 C567 1.370 . S
C567 C566 1.370 . S
C567 C568 1.396 . S
C567 H594 0.929 . S
C568 C563 1.373 . S
C568 C567 1.396 . S
C568 H595 0.929 . S
C569 O582 1.240 1_554 S
C569 O583 1.289 . S
C570 O584 1.258 . S
C570 O585 1.255 1_556 S
C571 La561 2.928 . S
C571 C572 1.503 . S
C571 O586 1.261 . S
C571 O587 1.243 . S
C572 C571 1.503 . S
C572 C573 1.394 . S
C572 C577 1.373 . S
C573 C572 1.394 . S
C573 C574 1.380 . S
C573 H596 0.930 . S
C574 C573 1.380 . S
C574 C575 1.376 . S
C574 H597 0.930 . S
C575 C574 1.376 . S
C575 C576 1.370 . S
C576 C575 1.370 . S
C576 C577 1.396 . S
C576 H598 0.929 . S
C577 C572 1.373 . S
C577 C576 1.396 . S
C577 H599 0.929 . S
C578 O588 1.240 . S
C578 O589 1.289 . S
C579 O590 1.258 . S
C579 O591 1.256 . S
O580 La560 2.521 . S
O580 C562 1.261 . S
O581 La560 2.628 . S
O581 C562 1.243 . S
O582 La560 2.554 . S
O582 C569 1.240 1_556 S
O583 La560 2.757 1_554 S
O583 La561 2.482 . S
O583 C569 1.289 . S
O584 La560 2.470 . S
O584 C570 1.258 . S
O585 La561 2.503 . S
O585 C570 1.255 1_554 S
O586 La561 2.521 . S
O586 C571 1.261 . S
O587 La561 2.628 . S
O587 C571 1.243 . S
O588 La561 2.554 1_556 S
O588 C578 1.240 . S
O589 La560 2.482 . S
O589 La561 2.757 1_556 S
O589 C578 1.289 . S
O590 La561 2.470 1_556 S
O590 C579 1.258 . S
O591 La560 2.503 . S
O591 C579 1.256 . S
H592 C564 0.930 . S
H593 C565 0.930 . S
H594 C567 0.929 . S
H595 C568 0.929 . S
H596 C573 0.930 . S
H597 C574 0.930 . S
H598 C576 0.929 . S
H599 C577 0.929 . S
La600 C602 2.928 . S
La600 O620 2.521 . S
La600 O621 2.628 . S
La600 O622 2.554 . S
La600 O623 2.757 . S
La600 O624 2.470 . S
La600 O629 2.482 . S
La600 O631 2.503 . S
La601 C611 2.928 . S
La601 O623 2.482 . S
La601 O625 2.503 . S
La601 O626 2.521 . S
La601 O627 2.628 . S
La601 O628 2.554 . S
La601 O629 2.757 . S
La601 O630 2.470 . S
C602 La600 2.928 . S
C602 C603 1.503 . S
C602 O620 1.261 . S
C602 O621 1.243 . S
C603 C602 1.503 . S
C603 C604 1.394 . S
C603 C608 1.373 . S
C604 C603 1.394 . S
C604 C605 1.386 . S
C604 H632 0.930 . S
C605 C604 1.386 . S
C605 C606 1.373 1_545 S
C605 H633 0.928 1_545 S
C606 C605 1.373 1_565 S
C606 C607 1.370 . S
C607 C606 1.370 . S
C607 C608 1.396 1_565 S
C607 H634 0.929 . S
C608 C603 1.373 . S
C608 C607 1.396 1_545 S
C608 H635 0.929 . S
C609 O622 1.240 . S
C609 O623 1.289 . S
C610 O624 1.258 . S
C610 O625 1.256 . S
C611 La601 2.928 . S
C611 C612 1.503 . S
C611 O626 1.261 . S
C611 O627 1.243 . S
C612 C611 1.503 . S
C612 C613 1.394 . S
C612 C617 1.373 . S
C613 C612 1.394 . S
C613 C614 1.380 . S
C613 H636 0.930 . S
C614 C613 1.380 . S
C614 C615 1.376 . S
C614 H637 0.930 . S
C615 C614 1.376 . S
C615 C616 1.370 . S
C616 C615 1.370 . S
C616 C617 1.396 . S
C616 H638 0.929 . S
C617 C612 1.373 . S
C617 C616 1.396 . S
C617 H639 0.929 . S
C618 O628 1.240 . S
C618 O629 1.289 . S
C619 O630 1.258 . S
C619 O631 1.256 . S
O620 La600 2.521 . S
O620 C602 1.261 . S
O621 La600 2.628 . S
O621 C602 1.243 . S
O622 La600 2.554 . S
O622 C609 1.240 . S
O623 La600 2.757 . S
O623 La601 2.482 . S
O623 C609 1.289 . S
O624 La600 2.470 . S
O624 C610 1.258 . S
O625 La601 2.503 . S
O625 C610 1.256 . S
O626 La601 2.521 . S
O626 C611 1.261 . S
O627 La601 2.628 . S
O627 C611 1.243 . S
O628 La601 2.554 . S
O628 C618 1.240 . S
O629 La600 2.482 . S
O629 La601 2.757 . S
O629 C618 1.289 . S
O630 La601 2.470 . S
O630 C619 1.258 . S
O631 La600 2.503 . S
O631 C619 1.256 . S
H632 C604 0.930 . S
H633 C605 0.928 1_565 S
H634 C607 0.929 . S
H635 C608 0.929 . S
H636 C613 0.930 . S
H637 C614 0.930 . S
H638 C616 0.929 . S
H639 C617 0.929 . S
C640 C641 1.369 . S
C640 C642 1.419 . S
C640 H644 0.930 . S
C641 C640 1.369 . S
C641 C650 1.429 . S
C642 C640 1.419 . S
C642 C643 1.363 . S
C642 H645 0.929 . S
C643 C642 1.363 . S
C643 C649 1.428 . S
H644 C640 0.930 . S
H645 C642 0.929 . S
S646 N647 1.613 . S
S646 N648 1.610 . S
N647 S646 1.613 . S
N647 C650 1.350 . S
N648 S646 1.610 . S
N648 C649 1.351 . S
C649 C643 1.428 . S
C649 N648 1.351 . S
C649 C650 1.434 . S
C650 C641 1.429 . S
C650 N647 1.350 . S
C650 C649 1.434 . S
C651 C652 1.369 . S
C651 C653 1.419 . S
C651 H655 0.930 . S
C652 C651 1.369 . S
C652 C661 1.429 . S
C653 C651 1.419 . S
C653 C654 1.363 . S
C653 H656 0.929 . S
C654 C653 1.363 . S
C654 C660 1.428 . S
H655 C651 0.930 . S
H656 C653 0.929 . S
S657 N658 1.613 . S
S657 N659 1.610 . S
N658 S657 1.613 . S
N658 C661 1.350 . S
N659 S657 1.610 . S
N659 C660 1.351 . S
C660 C654 1.428 . S
C660 N659 1.351 . S
C660 C661 1.434 . S
C661 C652 1.429 . S
C661 N658 1.350 . S
C661 C660 1.434 . S
C662 C663 1.369 1_655 S
C662 C664 1.419 . S
C662 H666 0.930 . S
C663 C662 1.369 1_455 S
C663 C672 1.429 . S
C664 C662 1.419 . S
C664 C665 1.363 . S
C664 H667 0.929 . S
C665 C664 1.363 . S
C665 C671 1.428 1_655 S
H666 C662 0.930 . S
H667 C664 0.929 . S
S668 N669 1.613 . S
S668 N670 1.610 . S
N669 S668 1.613 . S
N669 C672 1.350 . S
N670 S668 1.610 . S
N670 C671 1.351 . S
C671 C665 1.428 1_455 S
C671 N670 1.351 . S
C671 C672 1.434 . S
C672 C663 1.429 . S
C672 N669 1.350 . S
C672 C671 1.434 . S
C673 C674 1.369 . S
C673 C675 1.419 1_655 S
C673 H677 0.930 . S
C674 C673 1.369 . S
C674 C683 1.429 . S
C675 C673 1.419 1_455 S
C675 C676 1.363 . S
C675 H678 0.929 . S
C676 C675 1.363 . S
C676 C682 1.428 . S
H677 C673 0.930 . S
H678 C675 0.929 . S
S679 N680 1.613 . S
S679 N681 1.635 . S
N680 S679 1.613 . S
N680 C683 1.350 . S
N681 S679 1.635 . S
N681 C682 1.349 1_655 S
C682 C676 1.428 . S
C682 N681 1.349 1_455 S
C682 C683 1.434 1_455 S
C683 C674 1.429 . S
C683 N680 1.350 . S
C683 C682 1.434 1_655 S
C684 C685 1.369 . S
C684 C686 1.419 . S
C684 H688 0.930 . S
C685 C684 1.369 . S
C685 C694 1.429 . S
C686 C684 1.419 . S
C686 C687 1.363 . S
C686 H689 0.929 . S
C687 C686 1.363 . S
C687 C693 1.428 . S
H688 C684 0.930 . S
H689 C686 0.929 . S
S690 N691 1.613 1_554 S
S690 N692 1.610 1_554 S
N691 S690 1.613 1_556 S
N691 C694 1.350 . S
N692 S690 1.610 1_556 S
N692 C693 1.351 . S
C693 C687 1.428 . S
C693 N692 1.351 . S
C693 C694 1.434 . S
C694 C685 1.429 . S
C694 N691 1.350 . S
C694 C693 1.434 . S
C695 C696 1.369 . S
C695 C697 1.419 . S
C695 H699 0.930 . S
C696 C695 1.369 . S
C696 C705 1.429 . S
C697 C695 1.419 . S
C697 C698 1.363 . S
C697 H700 0.929 . S
C698 C697 1.363 . S
C698 C704 1.428 . S
H699 C695 0.930 . S
H700 C697 0.929 . S
S701 N702 1.613 . S
S701 N703 1.610 . S
N702 S701 1.613 . S
N702 C705 1.350 . S
N703 S701 1.610 . S
N703 C704 1.351 . S
C704 C698 1.428 . S
C704 N703 1.351 . S
C704 C705 1.434 . S
C705 C696 1.429 . S
C705 N702 1.350 . S
C705 C704 1.434 . S
C706 C707 1.369 1_455 S
C706 C708 1.419 . S
C706 H710 0.930 . S
C707 C706 1.369 1_655 S
C707 C716 1.429 . S
C708 C706 1.419 . S
C708 C709 1.363 . S
C708 H711 0.929 . S
C709 C708 1.363 . S
C709 C715 1.428 1_455 S
H710 C706 0.930 . S
H711 C708 0.929 . S
S712 N713 1.613 . S
S712 N714 1.610 . S
N713 S712 1.613 . S
N713 C716 1.350 . S
N714 S712 1.610 . S
N714 C715 1.351 . S
C715 C709 1.428 1_655 S
C715 N714 1.351 . S
C715 C716 1.434 . S
C716 C707 1.429 . S
C716 N713 1.350 . S
C716 C715 1.434 . S
C717 C718 1.369 . S
C717 C719 1.419 1_455 S
C717 H721 0.930 . S
C718 C717 1.369 . S
C718 C727 1.429 . S
C719 C717 1.419 1_655 S
C719 C720 1.363 . S
C719 H722 0.929 . S
C720 C719 1.363 . S
C720 C726 1.428 . S
H721 C717 0.930 . S
H722 C719 0.929 . S
S723 N724 1.613 . S
S723 N725 1.610 1_455 S
N724 S723 1.613 . S
N724 C727 1.350 . S
N725 S723 1.610 1_655 S
N725 C726 1.351 . S
C726 C720 1.428 . S
C726 N725 1.351 . S
C726 C727 1.434 1_655 S
C727 C718 1.429 . S
C727 N724 1.350 . S
C727 C726 1.434 1_455 S
C728 C729 1.369 . S
C728 C730 1.419 . S
C728 H732 0.930 . S
C729 C728 1.369 . S
C729 C738 1.429 . S
C730 C728 1.419 . S
C730 C731 1.363 . S
C730 H733 0.929 . S
C731 C730 1.363 . S
C731 C737 1.428 . S
H732 C728 0.930 . S
H733 C730 0.929 . S
S734 N735 1.613 . S
S734 N736 1.610 . S
N735 S734 1.613 . S
N735 C738 1.350 . S
N736 S734 1.610 . S
N736 C737 1.351 . S
C737 C731 1.428 . S
C737 N736 1.351 . S
C737 C738 1.434 . S
C738 C729 1.429 . S
C738 N735 1.350 . S
C738 C737 1.434 . S
C739 C740 1.369 . S
C739 C741 1.419 . S
C739 H743 0.930 . S
C740 C739 1.369 . S
C740 C749 1.429 . S
C741 C739 1.419 . S
C741 C742 1.363 . S
C741 H744 0.929 . S
C742 C741 1.363 . S
C742 C748 1.428 . S
H743 C739 0.930 . S
H744 C741 0.929 . S
S745 N746 1.613 . S
S745 N747 1.610 . S
N746 S745 1.613 . S
N746 C749 1.350 . S
N747 S745 1.610 . S
N747 C748 1.351 . S
C748 C742 1.428 . S
C748 N747 1.351 . S
C748 C749 1.434 . S
C749 C740 1.429 . S
C749 N746 1.350 . S
C749 C748 1.434 . S
C750 C751 1.369 . S
C750 C752 1.419 . S
C750 H754 0.930 . S
C751 C750 1.369 . S
C751 C760 1.429 . S
C752 C750 1.419 . S
C752 C753 1.363 . S
C752 H755 0.929 . S
C753 C752 1.363 . S
C753 C759 1.428 . S
H754 C750 0.930 . S
H755 C752 0.929 . S
S756 N757 1.613 . S
S756 N758 1.610 . S
N757 S756 1.613 . S
N757 C760 1.350 . S
N758 S756 1.610 . S
N758 C759 1.351 . S
C759 C753 1.428 . S
C759 N758 1.351 . S
C759 C760 1.434 . S
C760 C751 1.429 . S
C760 N757 1.350 . S
C760 C759 1.434 . S
C761 C762 1.369 . S
C761 C763 1.419 . S
C761 H765 0.930 . S
C762 C761 1.369 . S
C762 C771 1.429 . S
C763 C761 1.419 . S
C763 C764 1.363 . S
C763 H766 0.929 . S
C764 C763 1.363 . S
C764 C770 1.428 . S
H765 C761 0.930 . S
H766 C763 0.929 . S
S767 N768 1.613 . S
S767 N769 1.610 . S
N768 S767 1.613 . S
N768 C771 1.350 . S
N769 S767 1.610 . S
N769 C770 1.351 . S
C770 C764 1.428 . S
C770 N769 1.351 . S
C770 C771 1.434 . S
C771 C762 1.429 . S
C771 N768 1.350 . S
C771 C770 1.434 . S
C772 C773 1.369 . S
C772 C774 1.419 . S
C772 H776 0.930 . S
C773 C772 1.369 . S
C773 C782 1.429 . S
C774 C772 1.419 . S
C774 C775 1.363 . S
C774 H777 0.929 . S
C775 C774 1.363 . S
C775 C781 1.428 . S
H776 C772 0.930 . S
H777 C774 0.929 . S
S778 N779 1.613 . S
S778 N780 1.610 . S
N779 S778 1.613 . S
N779 C782 1.350 . S
N780 S778 1.610 . S
N780 C781 1.351 . S
C781 C775 1.428 . S
C781 N780 1.351 . S
C781 C782 1.434 . S
C782 C773 1.429 . S
C782 N779 1.350 . S
C782 C781 1.434 . S
C783 C784 1.369 . S
C783 C785 1.419 . S
C783 H787 0.930 . S
C784 C783 1.369 . S
C784 C793 1.429 . S
C785 C783 1.419 . S
C785 C786 1.363 . S
C785 H788 0.929 . S
C786 C785 1.363 . S
C786 C792 1.428 . S
H787 C783 0.930 . S
H788 C785 0.929 . S
S789 N790 1.613 . S
S789 N791 1.610 . S
N790 S789 1.613 . S
N790 C793 1.350 . S
N791 S789 1.610 . S
N791 C792 1.351 . S
C792 C786 1.428 . S
C792 N791 1.351 . S
C792 C793 1.434 . S
C793 C784 1.429 . S
C793 N790 1.350 . S
C793 C792 1.434 . S
C794 C795 1.369 . S
C794 C796 1.419 . S
C794 H798 0.930 . S
C795 C794 1.369 . S
C795 C804 1.429 . S
C796 C794 1.419 . S
C796 C797 1.363 . S
C796 H799 0.929 . S
C797 C796 1.363 . S
C797 C803 1.428 . S
H798 C794 0.930 . S
H799 C796 0.929 . S
S800 N801 1.613 . S
S800 N802 1.610 . S
N801 S800 1.613 . S
N801 C804 1.350 . S
N802 S800 1.610 . S
N802 C803 1.351 . S
C803 C797 1.428 . S
C803 N802 1.351 . S
C803 C804 1.434 . S
C804 C795 1.429 . S
C804 N801 1.350 . S
C804 C803 1.434 . S
C805 C806 1.369 . S
C805 C807 1.419 . S
C805 H809 0.930 . S
C806 C805 1.369 . S
C806 C815 1.429 . S
C807 C805 1.419 . S
C807 C808 1.363 . S
C807 H810 0.929 . S
C808 C807 1.363 . S
C808 C814 1.428 . S
H809 C805 0.930 . S
H810 C807 0.929 . S
S811 N812 1.613 . S
S811 N813 1.610 . S
N812 S811 1.613 . S
N812 C815 1.350 . S
N813 S811 1.610 . S
N813 C814 1.351 . S
C814 C808 1.428 . S
C814 N813 1.351 . S
C814 C815 1.434 . S
C815 C806 1.429 . S
C815 N812 1.350 . S
C815 C814 1.434 . S
C816 C817 1.369 . S
C816 C818 1.419 . S
C816 H820 0.930 . S
C817 C816 1.369 . S
C817 C826 1.429 . S
C818 C816 1.419 . S
C818 C819 1.363 . S
C818 H821 0.929 . S
C819 C818 1.363 . S
C819 C825 1.428 . S
H820 C816 0.930 . S
H821 C818 0.929 . S
S822 N823 1.613 . S
S822 N824 1.610 . S
N823 S822 1.613 . S
N823 C826 1.350 . S
N824 S822 1.610 . S
N824 C825 1.351 . S
C825 C819 1.428 . S
C825 N824 1.351 . S
C825 C826 1.434 . S
C826 C817 1.429 . S
C826 N823 1.350 . S
C826 C825 1.434 . S
C827 C828 1.369 . S
C827 C829 1.419 1_545 S
C827 H831 0.930 . S
C828 C827 1.369 . S
C828 C837 1.429 1_545 S
C829 C827 1.419 1_565 S
C829 C830 1.363 . S
C829 H832 0.929 . S
C830 C829 1.363 . S
C830 C836 1.428 . S
H831 C827 0.930 . S
H832 C829 0.929 . S
S833 N834 1.613 . S
S833 N835 1.610 . S
N834 S833 1.613 . S
N834 C837 1.350 . S
N835 S833 1.610 . S
N835 C836 1.351 . S
C836 C830 1.428 . S
C836 N835 1.351 . S
C836 C837 1.434 . S
C837 C828 1.429 1_565 S
C837 N834 1.350 . S
C837 C836 1.434 . S
C838 C839 1.369 . S
C838 C840 1.419 . S
C838 H842 0.930 . S
C839 C838 1.369 . S
C839 C848 1.429 . S
C840 C838 1.419 . S
C840 C841 1.363 . S
C840 H843 0.929 . S
C841 C840 1.363 . S
C841 C847 1.428 . S
H842 C838 0.930 . S
H843 C840 0.929 . S
S844 N845 1.613 . S
S844 N846 1.610 . S
N845 S844 1.613 . S
N845 C848 1.350 . S
N846 S844 1.610 . S
N846 C847 1.351 . S
C847 C841 1.428 . S
C847 N846 1.351 . S
C847 C848 1.434 . S
C848 C839 1.429 . S
C848 N845 1.350 . S
C848 C847 1.434 . S
C849 C850 1.369 . S
C849 C851 1.419 1_565 S
C849 H853 0.930 . S
C850 C849 1.369 . S
C850 C859 1.429 1_565 S
C851 C849 1.419 1_545 S
C851 C852 1.363 . S
C851 H854 0.929 . S
C852 C851 1.363 . S
C852 C858 1.428 . S
H853 C849 0.930 . S
H854 C851 0.929 . S
S855 N856 1.613 . S
S855 N857 1.610 . S
N856 S855 1.613 . S
N856 C859 1.350 . S
N857 S855 1.610 . S
N857 C858 1.351 . S
C858 C852 1.428 . S
C858 N857 1.351 . S
C858 C859 1.434 . S
C859 C850 1.429 1_545 S
C859 N856 1.350 . S
C859 C858 1.434 . S
C860 C861 1.369 . S
C860 C862 1.419 . S
C860 H864 0.930 . S
C861 C860 1.369 . S
C861 C870 1.429 . S
C862 C860 1.419 . S
C862 C863 1.363 . S
C862 H865 0.929 . S
C863 C862 1.363 . S
C863 C869 1.428 . S
H864 C860 0.930 . S
H865 C862 0.929 . S
S866 N867 1.613 . S
S866 N868 1.610 . S
N867 S866 1.613 . S
N867 C870 1.350 . S
N868 S866 1.610 . S
N868 C869 1.351 . S
C869 C863 1.428 . S
C869 N868 1.351 . S
C869 C870 1.434 . S
C870 C861 1.429 . S
C870 N867 1.350 . S
C870 C869 1.434 . S
C871 C872 1.369 . S
C871 C873 1.419 . S
C871 H875 0.930 . S
C872 C871 1.369 . S
C872 C881 1.429 . S
C873 C871 1.419 . S
C873 C874 1.363 1_545 S
C873 H876 0.929 1_545 S
C874 C873 1.363 1_565 S
C874 C880 1.428 1_565 S
H875 C871 0.930 . S
H876 C873 0.929 1_565 S
S877 N878 1.613 . S
S877 N879 1.610 1_545 S
N878 S877 1.613 . S
N878 C881 1.350 . S
N879 S877 1.610 1_565 S
N879 C880 1.351 1_565 S
C880 C874 1.428 1_545 S
C880 N879 1.351 1_545 S
C880 C881 1.434 . S
C881 C872 1.429 . S
C881 N878 1.350 . S
C881 C880 1.434 . S
C882 C883 1.369 . S
C882 C884 1.419 . S
C882 H886 0.930 . S
C883 C882 1.369 . S
C883 C892 1.429 . S
C884 C882 1.419 . S
C884 C885 1.363 . S
C884 H887 0.929 . S
C885 C884 1.363 . S
C885 C891 1.428 . S
H886 C882 0.930 . S
H887 C884 0.929 . S
S888 N889 1.613 . S
S888 N890 1.610 . S
N889 S888 1.613 . S
N889 C892 1.350 . S
N890 S888 1.610 . S
N890 C891 1.351 . S
C891 C885 1.428 . S
C891 N890 1.351 . S
C891 C892 1.434 . S
C892 C883 1.429 . S
C892 N889 1.350 . S
C892 C891 1.434 . S
C893 C894 1.369 1_565 S
C893 C895 1.419 . S
C893 H897 0.930 . S
C894 C893 1.369 1_545 S
C894 C903 1.429 . S
C895 C893 1.419 . S
C895 C896 1.363 . S
C895 H898 0.929 . S
C896 C895 1.363 . S
C896 C902 1.428 . S
H897 C893 0.930 . S
H898 C895 0.929 . S
S899 N900 1.613 . S
S899 N901 1.610 1_545 S
N900 S899 1.613 . S
N900 C903 1.350 . S
N901 S899 1.610 1_565 S
N901 C902 1.351 . S
C902 C896 1.428 . S
C902 N901 1.351 . S
C902 C903 1.434 1_565 S
C903 C894 1.429 . S
C903 N900 1.350 . S
C903 C902 1.434 1_545 S
C904 C905 1.369 . S
C904 C906 1.419 . S
C904 H908 0.930 . S
C905 C904 1.369 . S
C905 C914 1.429 . S
C906 C904 1.419 . S
C906 C907 1.363 . S
C906 H909 0.929 . S
C907 C906 1.363 . S
C907 C913 1.428 . S
H908 C904 0.930 . S
H909 C906 0.929 . S
S910 N911 1.613 . S
S910 N912 1.610 . S
N911 S910 1.613 . S
N911 C914 1.350 . S
N912 S910 1.610 . S
N912 C913 1.351 . S
C913 C907 1.428 . S
C913 N912 1.351 . S
C913 C914 1.434 . S
C914 C905 1.429 . S
C914 N911 1.350 . S
C914 C913 1.434 . S
C915 C916 1.369 . S
C915 C917 1.419 . S
C915 H919 0.930 . S
C916 C915 1.369 . S
C916 C925 1.429 . S
C917 C915 1.419 . S
C917 C918 1.363 . S
C917 H920 0.929 . S
C918 C917 1.363 . S
C918 C924 1.428 . S
H919 C915 0.930 . S
H920 C917 0.929 . S
S921 N922 1.613 . S
S921 N923 1.610 . S
N922 S921 1.613 . S
N922 C925 1.350 . S
N923 S921 1.610 . S
N923 C924 1.351 . S
C924 C918 1.428 . S
C924 N923 1.351 . S
C924 C925 1.434 . S
C925 C916 1.429 . S
C925 N922 1.350 . S
C925 C924 1.434 . S
C926 C927 1.369 . S
C926 C928 1.419 . S
C926 H930 0.930 . S
C927 C926 1.369 . S
C927 C936 1.429 . S
C928 C926 1.419 . S
C928 C929 1.363 . S
C928 H931 0.929 . S
C929 C928 1.363 . S
C929 C935 1.428 . S
H930 C926 0.930 . S
H931 C928 0.929 . S
S932 N933 1.613 . S
S932 N934 1.610 . S
N933 S932 1.613 . S
N933 C936 1.350 . S
N934 S932 1.610 . S
N934 C935 1.351 . S
C935 C929 1.428 . S
C935 N934 1.351 . S
C935 C936 1.434 . S
C936 C927 1.429 . S
C936 N933 1.350 . S
C936 C935 1.434 . S
C937 C938 1.369 . S
C937 C939 1.419 . S
C937 H941 0.930 . S
C938 C937 1.369 . S
C938 C947 1.429 . S
C939 C937 1.419 . S
C939 C940 1.363 . S
C939 H942 0.929 . S
C940 C939 1.363 . S
C940 C946 1.428 . S
H941 C937 0.930 . S
H942 C939 0.929 . S
S943 N944 1.613 . S
S943 N945 1.610 . S
N944 S943 1.613 . S
N944 C947 1.350 . S
N945 S943 1.610 . S
N945 C946 1.351 . S
C946 C940 1.428 . S
C946 N945 1.351 . S
C946 C947 1.434 . S
C947 C938 1.429 . S
C947 N944 1.350 . S
C947 C946 1.434 . S
C948 C949 1.369 . S
C948 C950 1.419 . S
C948 H952 0.930 . S
C949 C948 1.369 . S
C949 C958 1.429 . S
C950 C948 1.419 . S
C950 C951 1.363 . S
C950 H953 0.929 . S
C951 C950 1.363 . S
C951 C957 1.428 . S
H952 C948 0.930 . S
H953 C950 0.929 . S
S954 N955 1.613 . S
S954 N956 1.610 . S
N955 S954 1.613 . S
N955 C958 1.350 . S
N956 S954 1.610 . S
N956 C957 1.351 . S
C957 C951 1.428 . S
C957 N956 1.351 . S
C957 C958 1.434 . S
C958 C949 1.429 . S
C958 N955 1.350 . S
C958 C957 1.434 . S
C959 C960 1.369 . S
C959 C961 1.419 . S
C959 H963 0.930 . S
C960 C959 1.369 . S
C960 C969 1.429 . S
C961 C959 1.419 . S
C961 C962 1.363 . S
C961 H964 0.929 . S
C962 C961 1.363 . S
C962 C968 1.428 . S
H963 C959 0.930 . S
H964 C961 0.929 . S
S965 N966 1.613 . S
S965 N967 1.610 . S
N966 S965 1.613 . S
N966 C969 1.350 . S
N967 S965 1.610 . S
N967 C968 1.351 . S
C968 C962 1.428 . S
C968 N967 1.351 . S
C968 C969 1.434 . S
C969 C960 1.429 . S
C969 N966 1.350 . S
C969 C968 1.434 . S
C970 C971 1.369 . S
C970 C972 1.419 . S
C970 H974 0.930 . S
C971 C970 1.369 . S
C971 C980 1.429 . S
C972 C970 1.419 . S
C972 C973 1.363 . S
C972 H975 0.929 . S
C973 C972 1.363 . S
C973 C979 1.428 . S
H974 C970 0.930 . S
H975 C972 0.929 . S
S976 N977 1.613 . S
S976 N978 1.610 . S
N977 S976 1.613 . S
N977 C980 1.350 . S
N978 S976 1.610 . S
N978 C979 1.351 . S
C979 C973 1.428 . S
C979 N978 1.351 . S
C979 C980 1.434 . S
C980 C971 1.429 . S
C980 N977 1.350 . S
C980 C979 1.434 . S
C981 C982 1.369 . S
C981 C983 1.419 . S
C981 H985 0.930 . S
C982 C981 1.369 . S
C982 C991 1.429 . S
C983 C981 1.419 . S
C983 C984 1.363 . S
C983 H986 0.929 . S
C984 C983 1.363 . S
C984 C990 1.428 . S
H985 C981 0.930 . S
H986 C983 0.929 . S
S987 N988 1.613 . S
S987 N989 1.610 . S
N988 S987 1.613 . S
N988 C991 1.350 . S
N989 S987 1.610 . S
N989 C990 1.351 . S
C990 C984 1.428 . S
C990 N989 1.351 . S
C990 C991 1.434 . S
C991 C982 1.429 . S
C991 N988 1.350 . S
C991 C990 1.434 . S
C992 C993 1.369 . S
C992 C994 1.419 . S
C992 H996 0.930 . S
C993 C992 1.369 . S
C993 C1002 1.429 . S
C994 C992 1.419 . S
C994 C995 1.363 . S
C994 H997 0.929 . S
C995 C994 1.363 . S
C995 C1001 1.428 . S
H996 C992 0.930 . S
H997 C994 0.929 . S
S998 N999 1.613 . S
S998 N1000 1.610 . S
N999 S998 1.613 . S
N999 C1002 1.350 . S
N1000 S998 1.610 . S
N1000 C1001 1.351 . S
C1001 C995 1.428 . S
C1001 N1000 1.351 . S
C1001 C1002 1.434 . S
C1002 C993 1.429 . S
C1002 N999 1.350 . S
C1002 C1001 1.434 . S
C1003 C1004 1.369 . S
C1003 C1005 1.419 . S
C1003 H1007 0.930 . S
C1004 C1003 1.369 . S
C1004 C1013 1.429 . S
C1005 C1003 1.419 . S
C1005 C1006 1.363 . S
C1005 H1008 0.929 . S
C1006 C1005 1.363 . S
C1006 C1012 1.428 . S
H1007 C1003 0.930 . S
H1008 C1005 0.929 . S
S1009 N1010 1.613 . S
S1009 N1011 1.610 . S
N1010 S1009 1.613 . S
N1010 C1013 1.350 . S
N1011 S1009 1.610 . S
N1011 C1012 1.351 . S
C1012 C1006 1.428 . S
C1012 N1011 1.351 . S
C1012 C1013 1.434 . S
C1013 C1004 1.429 . S
C1013 N1010 1.350 . S
C1013 C1012 1.434 . S
C1014 C1015 1.369 . S
C1014 C1016 1.419 . S
C1014 H1018 0.930 . S
C1015 C1014 1.369 . S
C1015 C1024 1.429 . S
C1016 C1014 1.419 . S
C1016 C1017 1.363 . S
C1016 H1019 0.929 . S
C1017 C1016 1.363 . S
C1017 C1023 1.428 . S
H1018 C1014 0.930 . S
H1019 C1016 0.929 . S
S1020 N1021 1.613 . S
S1020 N1022 1.610 . S
N1021 S1020 1.613 . S
N1021 C1024 1.350 . S
N1022 S1020 1.610 . S
N1022 C1023 1.351 . S
C1023 C1017 1.428 . S
C1023 N1022 1.351 . S
C1023 C1024 1.434 . S
C1024 C1015 1.429 . S
C1024 N1021 1.350 . S
C1024 C1023 1.434 . S
C1025 C1026 1.369 . S
C1025 C1027 1.419 . S
C1025 H1029 0.930 . S
C1026 C1025 1.369 . S
C1026 C1035 1.429 . S
C1027 C1025 1.419 . S
C1027 C1028 1.363 . S
C1027 H1030 0.929 . S
C1028 C1027 1.363 . S
C1028 C1034 1.428 . S
H1029 C1025 0.930 . S
H1030 C1027 0.929 . S
S1031 N1032 1.613 . S
S1031 N1033 1.610 . S
N1032 S1031 1.613 . S
N1032 C1035 1.350 . S
N1033 S1031 1.610 . S
N1033 C1034 1.351 . S
C1034 C1028 1.428 . S
C1034 N1033 1.351 . S
C1034 C1035 1.434 . S
C1035 C1026 1.429 . S
C1035 N1032 1.350 . S
C1035 C1034 1.434 . S
C1036 C1037 1.369 . S
C1036 C1038 1.419 . S
C1036 H1040 0.930 . S
C1037 C1036 1.369 . S
C1037 C1046 1.429 . S
C1038 C1036 1.419 . S
C1038 C1039 1.363 . S
C1038 H1041 0.929 . S
C1039 C1038 1.363 . S
C1039 C1045 1.428 . S
H1040 C1036 0.930 . S
H1041 C1038 0.929 . S
S1042 N1043 1.613 . S
S1042 N1044 1.610 . S
N1043 S1042 1.613 . S
N1043 C1046 1.350 . S
N1044 S1042 1.610 . S
N1044 C1045 1.351 . S
C1045 C1039 1.428 . S
C1045 N1044 1.351 . S
C1045 C1046 1.434 . S
C1046 C1037 1.429 . S
C1046 N1043 1.350 . S
C1046 C1045 1.434 . S
C1047 C1048 1.369 . S
C1047 C1049 1.419 . S
C1047 H1051 0.930 . S
C1048 C1047 1.369 . S
C1048 C1057 1.429 . S
C1049 C1047 1.419 . S
C1049 C1050 1.363 . S
C1049 H1052 0.929 . S
C1050 C1049 1.363 . S
C1050 C1056 1.428 . S
H1051 C1047 0.930 . S
H1052 C1049 0.929 . S
S1053 N1054 1.613 . S
S1053 N1055 1.610 . S
N1054 S1053 1.613 . S
N1054 C1057 1.350 . S
N1055 S1053 1.610 . S
N1055 C1056 1.351 . S
C1056 C1050 1.428 . S
C1056 N1055 1.351 . S
C1056 C1057 1.434 . S
C1057 C1048 1.429 . S
C1057 N1054 1.350 . S
C1057 C1056 1.434 . S
C1058 C1059 1.369 . S
C1058 C1060 1.419 . S
C1058 H1062 0.930 . S
C1059 C1058 1.369 . S
C1059 C1068 1.429 . S
C1060 C1058 1.419 . S
C1060 C1061 1.363 . S
C1060 H1063 0.929 . S
C1061 C1060 1.363 . S
C1061 C1067 1.428 . S
H1062 C1058 0.930 . S
H1063 C1060 0.929 . S
S1064 N1065 1.613 . S
S1064 N1066 1.610 . S
N1065 S1064 1.613 . S
N1065 C1068 1.350 . S
N1066 S1064 1.610 . S
N1066 C1067 1.351 . S
C1067 C1061 1.428 . S
C1067 N1066 1.351 . S
C1067 C1068 1.434 . S
C1068 C1059 1.429 . S
C1068 N1065 1.350 . S
C1068 C1067 1.434 . S
C1069 C1070 1.369 . S
C1069 C1071 1.419 . S
C1069 H1073 0.930 . S
C1070 C1069 1.369 . S
C1070 C1079 1.429 . S
C1071 C1069 1.419 . S
C1071 C1072 1.363 . S
C1071 H1074 0.929 . S
C1072 C1071 1.363 . S
C1072 C1078 1.428 . S
H1073 C1069 0.930 . S
H1074 C1071 0.929 . S
S1075 N1076 1.613 . S
S1075 N1077 1.610 . S
N1076 S1075 1.613 . S
N1076 C1079 1.350 . S
N1077 S1075 1.610 . S
N1077 C1078 1.351 . S
C1078 C1072 1.428 . S
C1078 N1077 1.351 . S
C1078 C1079 1.434 . S
C1079 C1070 1.429 . S
C1079 N1076 1.350 . S
C1079 C1078 1.434 . S
C1080 C1081 1.369 . S
C1080 C1082 1.419 . S
C1080 H1084 0.930 . S
C1081 C1080 1.369 . S
C1081 C1090 1.429 . S
C1082 C1080 1.419 . S
C1082 C1083 1.363 . S
C1082 H1085 0.929 . S
C1083 C1082 1.363 . S
C1083 C1089 1.428 . S
H1084 C1080 0.930 . S
H1085 C1082 0.929 . S
S1086 N1087 1.613 . S
S1086 N1088 1.610 . S
N1087 S1086 1.613 . S
N1087 C1090 1.350 . S
N1088 S1086 1.610 . S
N1088 C1089 1.351 . S
C1089 C1083 1.428 . S
C1089 N1088 1.351 . S
C1089 C1090 1.434 . S
C1090 C1081 1.429 . S
C1090 N1087 1.350 . S
C1090 C1089 1.434 . S
C1091 C1092 1.369 . S
C1091 C1093 1.419 . S
C1091 H1095 0.930 . S
C1092 C1091 1.369 . S
C1092 C1101 1.429 . S
C1093 C1091 1.419 . S
C1093 C1094 1.363 . S
C1093 H1096 0.929 . S
C1094 C1093 1.363 . S
C1094 C1100 1.428 . S
H1095 C1091 0.930 . S
H1096 C1093 0.929 . S
S1097 N1098 1.613 . S
S1097 N1099 1.610 . S
N1098 S1097 1.613 . S
N1098 C1101 1.350 . S
N1099 S1097 1.610 . S
N1099 C1100 1.351 . S
C1100 C1094 1.428 . S
C1100 N1099 1.351 . S
C1100 C1101 1.434 . S
C1101 C1092 1.429 . S
C1101 N1098 1.350 . S
C1101 C1100 1.434 . S
C1102 C1103 1.369 . S
C1102 C1104 1.419 . S
C1102 H1106 0.930 . S
C1103 C1102 1.369 . S
C1103 C1112 1.429 . S
C1104 C1102 1.419 . S
C1104 C1105 1.363 . S
C1104 H1107 0.929 . S
C1105 C1104 1.363 . S
C1105 C1111 1.428 . S
H1106 C1102 0.930 . S
H1107 C1104 0.929 . S
S1108 N1109 1.613 . S
S1108 N1110 1.610 . S
N1109 S1108 1.613 . S
N1109 C1112 1.350 . S
N1110 S1108 1.610 . S
N1110 C1111 1.351 . S
C1111 C1105 1.428 . S
C1111 N1110 1.351 . S
C1111 C1112 1.434 . S
C1112 C1103 1.429 . S
C1112 N1109 1.350 . S
C1112 C1111 1.434 . S
C1113 C1114 1.369 . S
C1113 C1115 1.406 1_454 S
C1113 H1117 0.930 . S
C1114 C1113 1.369 . S
C1114 C1123 1.429 1_554 S
C1115 C1113 1.406 1_656 S
C1115 C1116 1.376 . S
C1115 H1118 0.929 1_556 S
C1116 C1115 1.376 . S
C1116 C1122 1.428 . S
H1117 C1113 0.930 . S
H1118 C1115 0.929 1_554 S
S1119 N1120 1.613 1_655 S
S1119 N1121 1.610 . S
N1120 S1119 1.613 1_455 S
N1120 C1123 1.350 . S
N1121 S1119 1.610 . S
N1121 C1122 1.351 . S
C1122 C1116 1.428 . S
C1122 N1121 1.351 . S
C1122 C1123 1.434 1_655 S
C1123 C1114 1.429 1_556 S
C1123 N1120 1.350 . S
C1123 C1122 1.434 1_455 S
C1124 C1125 1.369 . S
C1124 C1126 1.419 . S
C1124 H1128 0.930 . S
C1125 C1124 1.369 . S
C1125 C1134 1.429 . S
C1126 C1124 1.419 . S
C1126 C1127 1.363 . S
C1126 H1129 0.929 . S
C1127 C1126 1.363 . S
C1127 C1133 1.428 . S
H1128 C1124 0.930 . S
H1129 C1126 0.929 . S
S1130 N1131 1.613 . S
S1130 N1132 1.610 . S
N1131 S1130 1.613 . S
N1131 C1134 1.350 . S
N1132 S1130 1.610 . S
N1132 C1133 1.351 . S
C1133 C1127 1.428 . S
C1133 N1132 1.351 . S
C1133 C1134 1.434 . S
C1134 C1125 1.429 . S
C1134 N1131 1.350 . S
C1134 C1133 1.434 . S
C1135 C1136 1.369 . S
C1135 C1137 1.419 . S
C1135 H1139 0.930 . S
C1136 C1135 1.369 . S
C1136 C1145 1.429 . S
C1137 C1135 1.419 . S
C1137 C1138 1.363 . S
C1137 H1140 0.929 . S
C1138 C1137 1.363 . S
C1138 C1144 1.428 . S
H1139 C1135 0.930 . S
H1140 C1137 0.929 . S
S1141 N1142 1.613 . S
S1141 N1143 1.610 . S
N1142 S1141 1.613 . S
N1142 C1145 1.350 . S
N1143 S1141 1.610 . S
N1143 C1144 1.351 . S
C1144 C1138 1.428 . S
C1144 N1143 1.351 . S
C1144 C1145 1.434 . S
C1145 C1136 1.429 . S
C1145 N1142 1.350 . S
C1145 C1144 1.434 . S
C1146 C1147 1.369 1_545 S
C1146 C1148 1.419 1_455 S
C1146 H1150 0.930 . S
C1147 C1146 1.369 1_565 S
C1147 C1156 1.429 1_556 S
C1148 C1146 1.419 1_655 S
C1148 C1149 1.363 1_556 S
C1148 H1151 0.929 . S
C1149 C1148 1.363 1_554 S
C1149 C1155 1.428 1_545 S
H1150 C1146 0.930 . S
H1151 C1148 0.929 . S
S1152 N1153 1.613 1_655 S
S1152 N1154 1.610 . S
N1153 S1152 1.613 1_455 S
N1153 C1156 1.350 . S
N1154 S1152 1.610 . S
N1154 C1155 1.351 . S
C1155 C1149 1.428 1_565 S
C1155 N1154 1.351 . S
C1155 C1156 1.434 1_655 S
C1156 C1147 1.429 1_554 S
C1156 N1153 1.350 . S
C1156 C1155 1.434 1_455 S
C1157 C1158 1.369 1_545 S
C1157 C1159 1.419 . S
C1157 H1161 0.930 . S
C1158 C1157 1.369 1_565 S
C1158 C1167 1.429 . S
C1159 C1157 1.419 . S
C1159 C1160 1.363 . S
C1159 H1162 0.929 . S
C1160 C1159 1.363 . S
C1160 C1166 1.428 1_545 S
H1161 C1157 0.930 . S
H1162 C1159 0.929 . S
S1163 N1164 1.613 . S
S1163 N1165 1.610 . S
N1164 S1163 1.613 . S
N1164 C1167 1.350 . S
N1165 S1163 1.610 . S
N1165 C1166 1.351 . S
C1166 C1160 1.428 1_565 S
C1166 N1165 1.351 . S
C1166 C1167 1.434 . S
C1167 C1158 1.429 . S
C1167 N1164 1.350 . S
C1167 C1166 1.434 . S
C641 C10 3.562 . S
C643 C410 3.560 . S
C652 C50 3.562 . S
C654 C450 3.560 . S
C663 C90 3.560 . S
C665 C330 3.563 . S
C674 C130 3.563 . S
C676 C370 3.560 . S
C685 C179 3.559 . S
C687 C579 3.563 . S
C696 C219 3.559 . S
C698 C619 3.563 . S
C707 C259 3.559 . S
C709 C499 3.563 . S
C718 C299 3.561 . S
C720 C539 3.561 . S
C729 C369 3.837 . S
C731 C19 3.687 1_556 S
C740 C409 3.837 . S
C742 C59 3.690 . S
C751 C449 3.837 . S
C753 C99 3.688 . S
C762 C329 3.834 . S
C764 C139 3.685 . S
C773 C170 3.686 1_554 S
C775 C538 3.835 . S
C784 C578 3.836 . S
C786 C210 3.686 . S
C795 C618 3.834 . S
C797 C250 3.686 . S
C806 C498 3.837 . S
C808 C290 3.688 . S
C817 C49 3.835 . S
C819 C339 3.687 . S
C828 C379 3.689 . S
C830 C89 3.837 . S
C839 C419 3.689 1_556 S
C841 C129 3.836 . S
C850 C459 3.690 . S
C852 C9 3.837 . S
C861 C490 3.688 . S
C863 C218 3.837 . S
C872 C258 3.835 . S
C874 C530 3.688 . S
C883 C298 3.836 . S
C885 C570 3.688 1_554 S
C894 C610 3.685 . S
C896 C178 3.835 . S
C905 C6 0.714 . S
C907 C609 0.634 . S
C916 C46 0.708 . S
C918 C169 0.644 . S
C927 C529 0.654 . S
C929 C86 0.698 . S
C938 C249 0.646 . S
C940 C126 0.697 . S
C949 C175 0.704 . S
C951 C458 0.637 . S
C960 C215 0.718 . S
C962 C18 0.638 . S
C971 C378 0.644 . S
C973 C255 0.710 . S
C982 C98 0.629 . S
C984 C295 0.713 . S
C993 C326 0.703 . S
C995 C289 0.648 . S
C1004 C366 0.715 . S
C1006 C489 0.633 . S
C1015 C209 0.633 . S
C1017 C406 0.716 . S
C1026 C569 0.639 . S
C1028 C446 0.702 . S
C1037 C495 0.708 . S
C1039 C138 0.635 . S
C1048 C535 0.692 . S
C1050 C338 0.645 . S
C1059 C575 0.689 . S
C1061 C58 0.654 . S
C1070 C418 0.657 . S
C1072 C615 0.691 . S
C1081 C15 2.238 . S
C1083 C486 2.242 . S
C1092 C55 2.244 . S
C1094 C206 2.237 . S
C1103 C95 2.243 . S
C1105 C566 2.238 . S
C1114 C286 2.246 . S
C1116 C135 2.236 . S
C1125 C166 2.235 . S
C1127 C335 2.245 . S
C1136 C415 2.245 . S
C1138 C246 2.237 . S
C1147 C375 2.246 . S
C1149 C526 2.236 . S
C1158 C606 2.246 . S
C1160 C455 2.236 . S
