# Generated by pormake.
# Topology ukb, (4)-cn, num edge types: 1
# Building blocks:
#     Node 0, Type 0, BuildingBlock: QUQFOY_clean_sbu_3, # of connection points: 4
#     Node 1, Type 0, BuildingBlock: QUQFOY_clean_sbu_3, # of connection points: 4
#     Node 2, Type 0, BuildingBlock: QUQFOY_clean_sbu_3, # of connection points: 4
#     Node 3, Type 0, BuildingBlock: QUQFOY_clean_sbu_3, # of connection points: 4
#     Node 4, Type 0, BuildingBlock: QUQFOY_clean_sbu_3, # of connection points: 4
#     Node 5, Type 0, BuildingBlock: QUQFOY_clean_sbu_3, # of connection points: 4
#     Node 6, Type 0, BuildingBlock: QUQFOY_clean_sbu_3, # of connection points: 4
#     Node 7, Type 0, BuildingBlock: QUQFOY_clean_sbu_3, # of connection points: 4
#     Node 8, Type 0, BuildingBlock: QUQFOY_clean_sbu_3, # of connection points: 4
#     Node 9, Type 0, BuildingBlock: QUQFOY_clean_sbu_3, # of connection points: 4
#     Node 10, Type 0, BuildingBlock: QUQFOY_clean_sbu_3, # of connection points: 4
#     Node 11, Type 0, BuildingBlock: QUQFOY_clean_sbu_3, # of connection points: 4
#     Node 12, Type 0, BuildingBlock: QUQFOY_clean_sbu_3, # of connection points: 4
#     Node 13, Type 0, BuildingBlock: QUQFOY_clean_sbu_3, # of connection points: 4
#     Node 14, Type 0, BuildingBlock: QUQFOY_clean_sbu_3, # of connection points: 4
#     Node 15, Type 0, BuildingBlock: QUQFOY_clean_sbu_3, # of connection points: 4
#     Edge 16, Type (0, 0), BuildingBlock: MIFKUJ_clean_linker_0, # of connection points: 2
#     Edge 17, Type (0, 0), BuildingBlock: MIFKUJ_clean_linker_0, # of connection points: 2
#     Edge 18, Type (0, 0), BuildingBlock: MIFKUJ_clean_linker_0, # of connection points: 2
#     Edge 19, Type (0, 0), BuildingBlock: MIFKUJ_clean_linker_0, # of connection points: 2
#     Edge 20, Type (0, 0), BuildingBlock: MIFKUJ_clean_linker_0, # of connection points: 2
#     Edge 21, Type (0, 0), BuildingBlock: MIFKUJ_clean_linker_0, # of connection points: 2
#     Edge 22, Type (0, 0), BuildingBlock: MIFKUJ_clean_linker_0, # of connection points: 2
#     Edge 23, Type (0, 0), BuildingBlock: MIFKUJ_clean_linker_0, # of connection points: 2
#     Edge 24, Type (0, 0), BuildingBlock: MIFKUJ_clean_linker_0, # of connection points: 2
#     Edge 25, Type (0, 0), BuildingBlock: MIFKUJ_clean_linker_0, # of connection points: 2
#     Edge 26, Type (0, 0), BuildingBlock: MIFKUJ_clean_linker_0, # of connection points: 2
#     Edge 27, Type (0, 0), BuildingBlock: MIFKUJ_clean_linker_0, # of connection points: 2
#     Edge 28, Type (0, 0), BuildingBlock: MIFKUJ_clean_linker_0, # of connection points: 2
#     Edge 29, Type (0, 0), BuildingBlock: MIFKUJ_clean_linker_0, # of connection points: 2
#     Edge 30, Type (0, 0), BuildingBlock: MIFKUJ_clean_linker_0, # of connection points: 2
#     Edge 31, Type (0, 0), BuildingBlock: MIFKUJ_clean_linker_0, # of connection points: 2
#     Edge 32, Type (0, 0), BuildingBlock: MIFKUJ_clean_linker_0, # of connection points: 2
#     Edge 33, Type (0, 0), BuildingBlock: MIFKUJ_clean_linker_0, # of connection points: 2
#     Edge 34, Type (0, 0), BuildingBlock: MIFKUJ_clean_linker_0, # of connection points: 2
#     Edge 35, Type (0, 0), BuildingBlock: MIFKUJ_clean_linker_0, # of connection points: 2
#     Edge 36, Type (0, 0), BuildingBlock: MIFKUJ_clean_linker_0, # of connection points: 2
#     Edge 37, Type (0, 0), BuildingBlock: MIFKUJ_clean_linker_0, # of connection points: 2
#     Edge 38, Type (0, 0), BuildingBlock: MIFKUJ_clean_linker_0, # of connection points: 2
#     Edge 39, Type (0, 0), BuildingBlock: MIFKUJ_clean_linker_0, # of connection points: 2
#     Edge 40, Type (0, 0), BuildingBlock: MIFKUJ_clean_linker_0, # of connection points: 2
#     Edge 41, Type (0, 0), BuildingBlock: MIFKUJ_clean_linker_0, # of connection points: 2
#     Edge 42, Type (0, 0), BuildingBlock: MIFKUJ_clean_linker_0, # of connection points: 2
#     Edge 43, Type (0, 0), BuildingBlock: MIFKUJ_clean_linker_0, # of connection points: 2
#     Edge 44, Type (0, 0), BuildingBlock: MIFKUJ_clean_linker_0, # of connection points: 2
#     Edge 45, Type (0, 0), BuildingBlock: MIFKUJ_clean_linker_0, # of connection points: 2
#     Edge 46, Type (0, 0), BuildingBlock: MIFKUJ_clean_linker_0, # of connection points: 2
#     Edge 47, Type (0, 0), BuildingBlock: MIFKUJ_clean_linker_0, # of connection points: 2
# Relax obj value: 0.084
# Max RMSD: 0.047
# Mean RMSD: 0.047
data_MOF--net-ukb--node1-QUQFOY_clean_sbu_3--edge1-MIFKUJ_clean_linker_0
_symmetry_space_group_name_H-M    P1
_symmetry_Int_Tables_number       1
_symmetry_cell_setting            triclinic
loop_
_symmetry_equiv_pos_as_xyz
'x, y, z'
_cell_length_a     58.933057
_cell_length_b     58.839239
_cell_length_c     51.147071
_cell_angle_alpha  90.125293
_cell_angle_beta   90.246912
_cell_angle_gamma 89.982547
loop_
_atom_site_label
_atom_site_type_symbol
_atom_site_fract_x
_atom_site_fract_y
_atom_site_fract_z
_atom_type_partial_charge
C0 C 0.52525 0.19249 0.11245 0.0
O1 O 0.5461 0.18776 0.11583 0.0
Cd2 Cd 0.56365 0.17197 0.15384 0.0
O3 O 0.51075 0.18859 0.13034 0.0
Cd4 Cd 0.51152 0.17312 0.17571 0.0
C5 C 0.54774 0.21509 0.1953 0.0
O6 O 0.53861 0.14294 0.16769 0.0
O7 O 0.53023 0.14807 0.20804 0.0
O8 O 0.47473 0.15532 0.16781 0.0
C9 C 0.54129 0.13686 0.1912 0.0
O10 O 0.56352 0.20397 0.18412 0.0
C11 C 0.46573 0.16265 0.18873 0.0
O12 O 0.52718 0.20843 0.19395 0.0
O13 O 0.47782 0.17556 0.20305 0.0
C14 C 0.29376 0.53323 0.615 0.0
O15 O 0.29832 0.5539 0.61989 0.0
Cd16 Cd 0.30904 0.56971 0.66107 0.0
O17 O 0.29516 0.51822 0.63292 0.0
Cd18 Cd 0.30579 0.51765 0.68029 0.0
C19 C 0.26205 0.55266 0.69551 0.0
O20 O 0.33694 0.54457 0.6779 0.0
O21 O 0.32603 0.53671 0.71676 0.0
O22 O 0.32459 0.48116 0.67321 0.0
C23 C 0.33982 0.54724 0.70222 0.0
O24 O 0.27431 0.56881 0.68691 0.0
C25 C 0.31594 0.47151 0.693 0.0
O26 O 0.26861 0.53207 0.6938 0.0
O27 O 0.30192 0.48309 0.70632 0.0
C28 C 0.95449 0.29233 0.10481 0.0
O29 O 0.9339 0.29858 0.10416 0.0
Cd30 Cd 0.9114 0.30167 0.14263 0.0
O31 O 0.96515 0.2905 0.12644 0.0
Cd32 Cd 0.95837 0.30053 0.17323 0.0
C33 C 0.92751 0.25275 0.17608 0.0
O34 O 0.92907 0.32971 0.16926 0.0
O35 O 0.93238 0.31402 0.20711 0.0
O36 O -0.00899 0.32542 0.17217 0.0
C37 C 0.92298 0.32902 0.19298 0.0
O38 O 0.91278 0.26386 0.16299 0.0
C39 C 0.00107 0.31685 0.1918 0.0
O40 O 0.94649 0.26169 0.18224 0.0
O41 O -0.00848 0.29997 0.20266 0.0
C42 C 0.18086 0.93909 0.59823 0.0
O43 O 0.17651 0.91814 0.60134 0.0
Cd44 Cd 0.16992 0.90024 0.64221 0.0
O45 O 0.18042 0.95276 0.61761 0.0
Cd46 Cd 0.17092 0.95097 0.66518 0.0
C47 C 0.21767 0.91906 0.67559 0.0
O48 O 0.1414 0.92212 0.66327 0.0
O49 O 0.15523 0.92879 0.70157 0.0
O50 O 0.14583 0.98333 0.66094 0.0
C51 C 0.14061 0.91852 0.68764 0.0
O52 O 0.20649 0.9031 0.66466 0.0
C53 C 0.15544 -0.00444 0.67818 0.0
O54 O 0.20925 0.93893 0.67784 0.0
O55 O 0.17302 -0.01264 0.68913 0.0
C56 C 0.52792 0.28875 0.86459 0.0
O57 O 0.54884 0.29311 0.86141 0.0
Cd58 Cd 0.56723 0.30066 0.82108 0.0
O59 O 0.51412 0.28915 0.84527 0.0
Cd60 Cd 0.51506 0.29814 0.79738 0.0
C61 C 0.54928 0.25246 0.78768 0.0
O62 O 0.54308 0.32798 0.80153 0.0
O63 O 0.53425 0.31938 0.76201 0.0
O64 O 0.47865 0.31633 0.80556 0.0
C65 C 0.54589 0.33162 0.77742 0.0
O66 O 0.56485 0.26403 0.7988 0.0
C67 C 0.46936 0.3097 0.78445 0.0
O68 O 0.52927 0.26039 0.78502 0.0
O69 O 0.48108 0.29696 0.76964 0.0
C70 C 0.18781 0.53529 0.36889 0.0
O71 O 0.1829 0.55604 0.36513 0.0
Cd72 Cd 0.1731 0.57194 0.32387 0.0
O73 O 0.18578 0.5208 0.35043 0.0
Cd74 Cd 0.17242 0.52 0.30402 0.0
C75 C 0.21896 0.55064 0.28931 0.0
O76 O 0.1433 0.54938 0.306 0.0
O77 O 0.15456 0.54009 0.26743 0.0
O78 O 0.14945 0.48699 0.31433 0.0
C79 C 0.14111 0.55162 0.28148 0.0
O80 O 0.20851 0.56728 0.29977 0.0
C81 C 0.15645 0.47478 0.29553 0.0
O82 O 0.21017 0.53085 0.2886 0.0
O83 O 0.17159 0.48336 0.28093 0.0
C84 C 0.95015 0.18113 0.8663 0.0
O85 O 0.92912 0.17648 0.86505 0.0
Cd86 Cd 0.90833 0.16998 0.82571 0.0
O87 O 0.9625 0.18038 0.84589 0.0
Cd88 Cd 0.95868 0.16914 0.79894 0.0
C89 C 0.92714 0.21666 0.7904 0.0
O90 O 0.92863 0.14137 0.80315 0.0
O91 O 0.9358 0.15171 0.76373 0.0
O92 O -0.00909 0.14386 0.80294 0.0
C93 C 0.92423 0.13939 0.779 0.0
O94 O 0.91167 0.20633 0.80303 0.0
C95 C 0.00255 0.15284 0.78488 0.0
O96 O 0.94635 0.20736 0.78625 0.0
O97 O -0.00593 0.17012 0.77358 0.0
C98 C 0.28352 0.94158 0.35372 0.0
O99 O 0.28825 0.92083 0.34952 0.0
Cd100 Cd 0.30119 0.90528 0.3091 0.0
O101 O 0.28623 0.95641 0.33588 0.0
Cd102 Cd 0.29938 0.95674 0.28967 0.0
C103 C 0.25522 0.92306 0.273 0.0
O104 O 0.33046 0.92949 0.29349 0.0
O105 O 0.31927 0.9368 0.25433 0.0
O106 O 0.31784 -0.00712 0.2993 0.0
C107 C 0.33335 0.9268 0.26916 0.0
O108 O 0.26717 0.90664 0.28168 0.0
C109 C 0.31111 0.00273 0.2786 0.0
O110 O 0.26205 0.94353 0.27512 0.0
O111 O 0.29836 -0.00862 0.26334 0.0
C112 C 0.44724 0.79794 0.86518 0.0
O113 O 0.42671 0.80399 0.8621 0.0
Cd114 Cd 0.40923 0.81217 0.82097 0.0
O115 O 0.46075 0.79735 0.84577 0.0
Cd116 Cd 0.45989 0.80661 0.79822 0.0
C117 C 0.42416 0.76231 0.78934 0.0
O118 O 0.43326 0.83843 0.79933 0.0
O119 O 0.4396 0.82389 0.76144 0.0
O120 O 0.49642 0.82513 0.80483 0.0
C121 C 0.42976 0.83906 0.77488 0.0
O122 O 0.40889 0.77531 0.79868 0.0
C123 C 0.50568 0.81677 0.7846 0.0
O124 O 0.44478 0.76879 0.78819 0.0
O125 O 0.49385 0.80303 0.77103 0.0
C126 C 0.68631 0.44575 0.36306 0.0
O127 O 0.68003 0.42517 0.361 0.0
Cd128 Cd 0.66577 0.40694 0.32276 0.0
O129 O 0.68438 0.45939 0.34382 0.0
Cd130 Cd 0.6701 0.45747 0.29773 0.0
C131 C 0.71176 0.41949 0.28376 0.0
O132 O 0.63828 0.43202 0.30484 0.0
O133 O 0.64715 0.43729 0.26465 0.0
O134 O 0.65249 0.49459 0.30366 0.0
C135 C 0.63395 0.42808 0.281 0.0
O136 O 0.69974 0.40495 0.29586 0.0
C137 C 0.66015 0.50307 0.28266 0.0
O138 O 0.70557 0.44022 0.28223 0.0
O139 O 0.67325 0.4906 0.26916 0.0
C140 C 0.02618 0.68513 0.86375 0.0
O141 O 0.0472 0.68049 0.86216 0.0
Cd142 Cd 0.06677 0.66638 0.82471 0.0
O143 O 0.01284 0.68164 0.84445 0.0
Cd144 Cd 0.01502 0.66673 0.79881 0.0
C145 C 0.05067 0.71037 0.78383 0.0
O146 O 0.04292 0.6375 0.80766 0.0
O147 O 0.0347 0.64207 0.76709 0.0
O148 O 0.9784 0.64916 0.80737 0.0
C149 C 0.04624 0.63158 0.78419 0.0
O150 O 0.06591 0.69972 0.79663 0.0
C151 C 0.9695 0.65481 0.78568 0.0
O152 O 0.03046 0.70271 0.78217 0.0
O153 O 0.98158 0.66664 0.77033 0.0
C154 C 0.78594 0.03301 0.35692 0.0
O155 O 0.79125 0.05356 0.35249 0.0
Cd156 Cd 0.80286 0.06858 0.31138 0.0
O157 O 0.78746 0.01807 0.33891 0.0
Cd158 Cd 0.79942 0.01695 0.29218 0.0
C159 C 0.75569 0.05141 0.27654 0.0
O160 O 0.83106 0.04373 0.29457 0.0
O161 O 0.81861 0.0362 0.25594 0.0
O162 O 0.81766 0.98066 0.30169 0.0
C163 C 0.83322 0.04618 0.27011 0.0
O164 O 0.76816 0.06752 0.28508 0.0
C165 C 0.81066 0.97073 0.28111 0.0
O166 O 0.76205 0.03076 0.27841 0.0
O167 O 0.79775 0.98207 0.26606 0.0
C168 C 0.44655 0.68251 0.10348 0.0
O169 O 0.42592 0.67647 0.10502 0.0
Cd170 Cd 0.40743 0.66929 0.14548 0.0
O171 O 0.45923 0.68262 0.12375 0.0
Cd172 Cd 0.45699 0.67119 0.17072 0.0
C173 C 0.42455 0.71759 0.17936 0.0
O174 O 0.42909 0.64061 0.167 0.0
O175 O 0.43493 0.65364 0.20582 0.0
O176 O 0.49247 0.65097 0.16365 0.0
C177 C 0.42516 0.63914 0.19128 0.0
O178 O 0.40908 0.70627 0.1677 0.0
C179 C 0.50209 0.65794 0.18442 0.0
O180 O 0.44428 0.70924 0.18275 0.0
O181 O 0.49092 0.67162 0.19868 0.0
C182 C 0.79088 0.44331 0.60579 0.0
O183 O 0.79555 0.42237 0.6085 0.0
Cd184 Cd 0.80485 0.40374 0.64858 0.0
O185 O 0.79159 0.45675 0.62536 0.0
Cd186 Cd 0.80121 0.45383 0.67273 0.0
C187 C 0.75705 0.41848 0.68316 0.0
O188 O 0.83265 0.42685 0.6693 0.0
O189 O 0.81965 0.43231 0.70803 0.0
O190 O 0.82063 0.49019 0.66869 0.0
C191 C 0.83434 0.42291 0.69356 0.0
O192 O 0.76958 0.40297 0.67349 0.0
C193 C 0.81203 0.49898 0.68906 0.0
O194 O 0.76351 0.43914 0.68351 0.0
O195 O 0.79773 0.487 0.70144 0.0
C196 C 0.02131 0.79181 0.10419 0.0
O197 O 0.04207 0.79736 0.10633 0.0
Cd198 Cd 0.06182 0.80642 0.14564 0.0
O199 O 0.00831 0.79186 0.12411 0.0
Cd200 Cd 0.01102 0.80212 0.17156 0.0
C201 C 0.04767 0.75821 0.18079 0.0
O202 O 0.03769 0.83307 0.1663 0.0
O203 O 0.03104 0.82384 0.20611 0.0
O204 O 0.97416 0.8204 0.1666 0.0
C205 C 0.0414 0.83669 0.19031 0.0
O206 O 0.0623 0.77024 0.16887 0.0
C207 C 0.96568 0.81209 0.18726 0.0
O208 O 0.0274 0.76529 0.18394 0.0
O209 O 0.97803 0.79837 0.20015 0.0
C210 C 0.68066 0.03114 0.60426 0.0
O211 O 0.67462 0.0514 0.60927 0.0
Cd212 Cd 0.66289 0.06616 0.65061 0.0
O213 O 0.68037 0.01598 0.62204 0.0
Cd214 Cd 0.67008 0.01461 0.66925 0.0
C215 C 0.71126 0.05258 0.68479 0.0
O216 O 0.63694 0.03946 0.66822 0.0
O217 O 0.65036 0.03224 0.70637 0.0
O218 O 0.65256 0.97749 0.66244 0.0
C219 C 0.63509 0.04174 0.69272 0.0
O220 O 0.69762 0.06784 0.67666 0.0
C221 C 0.6621 0.96806 0.68192 0.0
O222 O 0.70643 0.03154 0.68254 0.0
O223 O 0.67624 0.98 0.69477 0.0
H224 H 0.44565 0.16961 0.23608 0.0
H225 H 0.41229 0.15005 0.25321 0.0
H226 H 0.40184 0.11755 0.17849 0.0
H227 H 0.43526 0.13695 0.16118 0.0
H228 H 0.36032 0.12978 0.20609 0.0
H229 H 0.43243 0.09053 0.21927 0.0
H230 H 0.47201 0.08837 0.23493 0.0
H231 H 0.4502 0.10358 0.31304 0.0
H232 H 0.41049 0.10618 0.29772 0.0
H233 H 0.3117 0.02213 0.23028 0.0
H234 H 0.33134 0.0568 0.21748 0.0
H235 H 0.34862 0.06989 0.29826 0.0
H236 H 0.3299 0.03455 0.31094 0.0
H237 H 0.38436 0.07242 0.27157 0.0
H238 H 0.31136 0.1052 0.26058 0.0
H239 H 0.27165 0.10816 0.24564 0.0
H240 H 0.29351 0.10657 0.16569 0.0
H241 H 0.33335 0.10327 0.18013 0.0
C242 C 0.43594 0.15875 0.22308 0.0
C243 C 0.44327 0.15453 0.19739 0.0
C244 C 0.41687 0.14763 0.2329 0.0
C245 C 0.4048 0.13222 0.21716 0.0
C246 C 0.41095 0.12942 0.1909 0.0
C247 C 0.43012 0.14041 0.1811 0.0
C248 C 0.38806 0.11663 0.22895 0.0
C249 C 0.36543 0.11717 0.22039 0.0
C250 C 0.39475 0.10064 0.24806 0.0
C251 C 0.41856 0.09882 0.25731 0.0
C252 C 0.43611 0.09359 0.23974 0.0
C253 C 0.45855 0.09226 0.24856 0.0
C254 C 0.46363 0.0959 0.27495 0.0
C255 C 0.44625 0.10081 0.29259 0.0
C256 C 0.42378 0.10221 0.28386 0.0
C257 C 0.31928 0.03265 0.24537 0.0
C258 C 0.31945 0.02556 0.27157 0.0
C259 C 0.33039 0.05261 0.23805 0.0
C260 C 0.34138 0.06615 0.25691 0.0
C261 C 0.34035 0.05972 0.28332 0.0
C262 C 0.32963 0.03954 0.29057 0.0
C263 C 0.35626 0.08524 0.24873 0.0
C264 C 0.37879 0.08528 0.25779 0.0
C265 C 0.34932 0.10184 0.23029 0.0
C266 C 0.32536 0.10383 0.22147 0.0
C267 C 0.3077 0.10531 0.23981 0.0
C268 C 0.28516 0.10708 0.23143 0.0
C269 C 0.28006 0.10751 0.20473 0.0
C270 C 0.29749 0.10623 0.18636 0.0
C271 C 0.32006 0.10444 0.19464 0.0
H272 H 0.26259 0.10888 0.19829 0.0
H273 H 0.48102 0.09486 0.28174 0.0
H274 H 0.34167 0.44097 0.66581 0.0
H275 H 0.35958 0.4065 0.68286 0.0
H276 H 0.32622 0.41664 0.75685 0.0
H277 H 0.30803 0.45099 0.73989 0.0
H278 H 0.37363 0.41448 0.75978 0.0
H279 H 0.31246 0.37154 0.723 0.0
H280 H 0.28591 0.35923 0.68839 0.0
H281 H 0.34175 0.33562 0.642 0.0
H282 H 0.36868 0.3481 0.67617 0.0
H283 H 0.43579 0.32628 0.81567 0.0
H284 H 0.40172 0.34676 0.80174 0.0
H285 H 0.41922 0.33484 0.721 0.0
H286 H 0.45261 0.3133 0.7349 0.0
H287 H 0.3752 0.33578 0.72482 0.0
H288 H 0.43594 0.38403 0.75503 0.0
H289 H 0.4645 0.3982 0.78648 0.0
H290 H 0.41179 0.41417 0.84124 0.0
H291 H 0.38293 0.39981 0.81021 0.0
C292 C 0.33772 0.43557 0.68551 0.0
C293 C 0.32361 0.44879 0.70159 0.0
C294 C 0.34787 0.41581 0.69517 0.0
C295 C 0.34418 0.40904 0.7211 0.0
C296 C 0.3292 0.42157 0.73676 0.0
C297 C 0.31883 0.44117 0.72702 0.0
C298 C 0.35831 0.39087 0.73278 0.0
C299 C 0.37359 0.3971 0.7526 0.0
C300 C 0.35876 0.36849 0.72268 0.0
C301 C 0.34261 0.36092 0.70209 0.0
C302 C 0.31911 0.3639 0.70533 0.0
C303 C 0.30398 0.35685 0.68581 0.0
C304 C 0.31214 0.34669 0.66299 0.0
C305 C 0.33545 0.34351 0.65968 0.0
C306 C 0.35065 0.35054 0.67914 0.0
C307 C 0.43205 0.32759 0.79497 0.0
C308 C 0.44696 0.31849 0.77634 0.0
C309 C 0.41264 0.33937 0.78702 0.0
C310 C 0.40826 0.34294 0.76031 0.0
C311 C 0.42228 0.33244 0.74172 0.0
C312 C 0.44141 0.32017 0.74967 0.0
C313 C 0.39065 0.35944 0.75174 0.0
C314 C 0.37489 0.353 0.7324 0.0
C315 C 0.39003 0.3819 0.76181 0.0
C316 C 0.40733 0.3906 0.78045 0.0
C317 C 0.43047 0.39042 0.77385 0.0
C318 C 0.4467 0.3985 0.79159 0.0
C319 C 0.43997 0.40701 0.81587 0.0
C320 C 0.41698 0.40752 0.82245 0.0
C321 C 0.40068 0.39942 0.8048 0.0
H322 H 0.45256 0.41326 0.82958 0.0
H323 H 0.3004 0.34124 0.6479 0.0
H324 H 0.02585 0.30373 0.23479 0.0
H325 H 0.05695 0.32484 0.25576 0.0
H326 H 0.05398 0.37493 0.19445 0.0
H327 H 0.02319 0.35405 0.17335 0.0
H328 H 0.10149 0.3434 0.23753 0.0
H329 H 0.04939 0.42552 0.22685 0.0
H330 H 0.00935 0.43736 0.2229 0.0
H331 H -0.01147 0.37848 0.26606 0.0
H332 H 0.02845 0.3665 0.27062 0.0
H333 H 0.16406 0.44702 0.2534 0.0
H334 H 0.14186 0.41371 0.24035 0.0
H335 H 0.10263 0.41914 0.31111 0.0
H336 H 0.12454 0.45252 0.32414 0.0
H337 H 0.07608 0.41905 0.26907 0.0
H338 H 0.13727 0.37381 0.30111 0.0
H339 H 0.17702 0.36138 0.30594 0.0
H340 H 0.1797 0.34543 0.22406 0.0
H341 H 0.14005 0.35808 0.21864 0.0
C342 C 0.03215 0.31899 0.22552 0.0
C343 C 0.0219 0.32737 0.20259 0.0
C344 C 0.04995 0.33095 0.23745 0.0
C345 C 0.05755 0.35148 0.22671 0.0
C346 C 0.04824 0.35914 0.20306 0.0
C347 C 0.03061 0.3472 0.19108 0.0
C348 C 0.07327 0.36637 0.24142 0.0
C349 C 0.09603 0.35991 0.24457 0.0
C350 C 0.06592 0.38768 0.25095 0.0
C351 C 0.04189 0.39502 0.24886 0.0
C352 C 0.03627 0.41517 0.23561 0.0
C353 C 0.01359 0.4219 0.23325 0.0
C354 C -0.0036 0.40865 0.24415 0.0
C355 C 0.00185 0.38869 0.25754 0.0
C356 C 0.0245 0.38191 0.26 0.0
C357 C 0.15103 0.44082 0.26644 0.0
C358 C 0.14587 0.45255 0.28965 0.0
C359 C 0.13843 0.42171 0.25902 0.0
C360 C 0.12058 0.41395 0.27476 0.0
C361 C 0.11629 0.42488 0.29864 0.0
C362 C 0.12884 0.44396 0.30605 0.0
C363 C 0.10463 0.39641 0.26489 0.0
C364 C 0.08168 0.40245 0.26243 0.0
C365 C 0.11187 0.3747 0.25628 0.0
C366 C 0.13572 0.36707 0.25944 0.0
C367 C 0.14639 0.36783 0.28409 0.0
C368 C 0.16889 0.36071 0.28694 0.0
C369 C 0.18089 0.35266 0.26531 0.0
C370 C 0.17039 0.35168 0.24079 0.0
C371 C 0.14789 0.3588 0.23783 0.0
H372 H 0.19831 0.34716 0.26756 0.0
H373 H 0.97886 0.41386 0.24227 0.0
H374 H 0.17462 0.02908 0.70855 0.0
H375 H 0.15597 0.0634 0.72528 0.0
H376 H 0.09452 0.04467 0.68432 0.0
H377 H 0.11331 0.01131 0.66662 0.0
H378 H 0.09763 0.08745 0.68258 0.0
H379 H 0.10615 0.03166 0.75204 0.0
H380 H 0.12786 0.00679 0.78182 0.0
H381 H 0.16378 0.06471 0.81207 0.0
H382 H 0.14241 0.08988 0.78225 0.0
H383 H 0.01893 0.11124 0.79795 0.0
H384 H 0.05157 0.09171 0.7797 0.0
H385 H 0.06826 0.15136 0.73467 0.0
H386 H 0.03467 0.17072 0.75206 0.0
H387 H 0.09446 0.09513 0.77907 0.0
H388 H 0.09173 0.13515 0.67695 0.0
H389 H 0.06497 0.15488 0.64745 0.0
H390 H 0.00905 0.12006 0.68305 0.0
H391 H 0.03551 0.09998 0.71254 0.0
C392 C 0.15725 0.03255 0.70283 0.0
C393 C 0.14537 0.01743 0.68644 0.0
C394 C 0.14657 0.0521 0.71249 0.0
C395 C 0.12366 0.05647 0.70648 0.0
C396 C 0.11219 0.0418 0.68924 0.0
C397 C 0.12295 0.02261 0.6792 0.0
C398 C 0.11085 0.07519 0.7193 0.0
C399 C 0.09716 0.08929 0.70369 0.0
C400 C 0.11008 0.07766 0.74684 0.0
C401 C 0.12293 0.06258 0.76471 0.0
C402 C 0.11879 0.03905 0.76493 0.0
C403 C 0.13101 0.02491 0.78183 0.0
C404 C 0.14725 0.03416 0.79876 0.0
C405 C 0.15125 0.05757 0.79889 0.0
C406 C 0.13909 0.07177 0.78201 0.0
C407 C 0.02964 0.12033 0.78436 0.0
C408 C 0.02407 0.14242 0.77619 0.0
C409 C 0.04842 0.10916 0.774 0.0
C410 C 0.06227 0.11989 0.75548 0.0
C411 C 0.05757 0.14252 0.7485 0.0
C412 C 0.03844 0.1536 0.75852 0.0
C413 C 0.08042 0.10653 0.7424 0.0
C414 C 0.09532 0.09366 0.75794 0.0
C415 C 0.08159 0.10447 0.71483 0.0
C416 C 0.06555 0.11634 0.69715 0.0
C417 C 0.07372 0.13172 0.67844 0.0
C418 C 0.05861 0.14295 0.66173 0.0
C419 C 0.03532 0.1388 0.66345 0.0
C420 C 0.02709 0.12333 0.68181 0.0
C421 C 0.04212 0.11204 0.69853 0.0
H422 H 0.02365 0.14753 0.65051 0.0
H423 H 0.15669 0.02319 0.81183 0.0
H424 H 0.5232 0.81518 0.7354 0.0
H425 H 0.55741 0.83406 0.71988 0.0
H426 H 0.57375 0.85421 0.79899 0.0
H427 H 0.53885 0.83633 0.81434 0.0
H428 H 0.57561 0.88892 0.77069 0.0
H429 H 0.60719 0.81516 0.76111 0.0
H430 H 0.60917 0.77495 0.74769 0.0
H431 H 0.60457 0.79452 0.66702 0.0
H432 H 0.60223 0.83485 0.67995 0.0
H433 H 0.67194 0.94791 0.72866 0.0
H434 H 0.65313 0.91474 0.74747 0.0
H435 H 0.61679 0.904 0.67517 0.0
H436 H 0.63535 0.93727 0.65624 0.0
H437 H 0.63003 0.86229 0.7035 0.0
H438 H 0.59207 0.93536 0.71586 0.0
H439 H 0.59117 0.97544 0.73007 0.0
H440 H 0.60957 0.95546 0.80804 0.0
H441 H 0.61093 0.91527 0.79413 0.0
C442 C 0.53435 0.82321 0.74954 0.0
C443 C 0.5283 0.82445 0.77604 0.0
C444 C 0.55404 0.8339 0.74067 0.0
C445 C 0.56836 0.8455 0.75825 0.0
C446 C 0.56298 0.84549 0.78499 0.0
C447 C 0.54305 0.83523 0.79378 0.0
C448 C 0.58719 0.85997 0.7484 0.0
C449 C 0.58784 0.88279 0.75653 0.0
C450 C 0.60296 0.8523 0.72946 0.0
C451 C 0.60438 0.82805 0.72154 0.0
C452 C 0.60643 0.81089 0.74052 0.0
C453 C 0.60765 0.78807 0.73299 0.0
C454 C 0.60696 0.78218 0.70652 0.0
C455 C 0.60509 0.79911 0.68752 0.0
C456 C 0.60386 0.82196 0.69494 0.0
C457 C 0.66045 0.93812 0.71649 0.0
C458 C 0.65485 0.94539 0.69109 0.0
C459 C 0.64975 0.91916 0.72727 0.0
C460 C 0.63345 0.90711 0.71276 0.0
C461 C 0.62936 0.91308 0.68664 0.0
C462 C 0.63988 0.93217 0.67591 0.0
C463 C 0.61814 0.89084 0.72588 0.0
C464 C 0.61806 0.86796 0.71818 0.0
C465 C 0.603 0.89828 0.74546 0.0
C466 C 0.60187 0.92238 0.75389 0.0
C467 C 0.5961 0.93955 0.73597 0.0
C468 C 0.59548 0.96227 0.74398 0.0
C469 C 0.60038 0.968 0.76993 0.0
C470 C 0.60583 0.951 0.78794 0.0
C471 C 0.60653 0.92825 0.78001 0.0
H472 H 0.59989 0.9856 0.77609 0.0
H473 H 0.6079 0.7645 0.70073 0.0
H474 H 0.52067 0.658 0.23338 0.0
H475 H 0.55466 0.63782 0.24783 0.0
H476 H 0.56831 0.61795 0.16812 0.0
H477 H 0.53372 0.63725 0.1538 0.0
H478 H 0.56983 0.58285 0.19645 0.0
H479 H 0.60356 0.65585 0.20473 0.0
H480 H 0.60691 0.69598 0.21816 0.0
H481 H 0.60478 0.67633 0.29891 0.0
H482 H 0.60109 0.63609 0.28598 0.0
H483 H 0.66665 0.52159 0.23434 0.0
H484 H 0.64706 0.55454 0.21585 0.0
H485 H 0.61555 0.5676 0.29031 0.0
H486 H 0.63498 0.53462 0.30896 0.0
H487 H 0.62755 0.60814 0.26114 0.0
H488 H 0.58794 0.53596 0.25076 0.0
H489 H 0.58527 0.49593 0.23666 0.0
H490 H 0.59978 0.51549 0.15764 0.0
H491 H 0.60287 0.55562 0.17139 0.0
C492 C 0.53117 0.64971 0.21889 0.0
C493 C 0.52447 0.64903 0.19251 0.0
C494 C 0.55072 0.63828 0.22714 0.0
C495 C 0.56422 0.62644 0.20906 0.0
C496 C 0.55816 0.62687 0.18247 0.0
C497 C 0.5384 0.63793 0.17429 0.0
C498 C 0.58298 0.61147 0.21821 0.0
C499 C 0.58276 0.58865 0.21007 0.0
C500 C 0.59965 0.61875 0.23646 0.0
C501 C 0.60188 0.64294 0.24436 0.0
C502 C 0.60363 0.66009 0.22536 0.0
C503 C 0.60562 0.68286 0.23288 0.0
C504 C 0.60601 0.68871 0.25937 0.0
C505 C 0.60446 0.67178 0.27839 0.0
C506 C 0.60245 0.64898 0.27098 0.0
C507 C 0.65602 0.53181 0.24697 0.0
C508 C 0.65209 0.52534 0.27301 0.0
C509 C 0.64485 0.55063 0.23637 0.0
C510 C 0.62971 0.56331 0.25167 0.0
C511 C 0.6272 0.55802 0.27822 0.0
C512 C 0.63822 0.5391 0.28879 0.0
C513 C 0.61413 0.57987 0.2393 0.0
C514 C 0.61486 0.60274 0.24702 0.0
C515 C 0.598 0.57279 0.22045 0.0
C516 C 0.59591 0.54872 0.21215 0.0
C517 C 0.59074 0.53169 0.23042 0.0
C518 C 0.58913 0.50899 0.22249 0.0
C519 C 0.59243 0.50316 0.19628 0.0
C520 C 0.59728 0.52002 0.17794 0.0
C521 C 0.59896 0.54274 0.18579 0.0
H522 H 0.59117 0.48558 0.19018 0.0
H523 H 0.60756 0.70635 0.26515 0.0
H524 H 0.93629 0.63783 0.8171 0.0
H525 H 0.90168 0.61816 0.80334 0.0
H526 H 0.91796 0.6314 0.7226 0.0
H527 H 0.95201 0.65196 0.73633 0.0
H528 H 0.87376 0.63202 0.72809 0.0
H529 H 0.934 0.58124 0.75403 0.0
H530 H 0.96281 0.56535 0.78397 0.0
H531 H 0.91085 0.549 0.83944 0.0
H532 H 0.88175 0.56506 0.80994 0.0
H533 H 0.83747 0.53066 0.66362 0.0
H534 H 0.85601 0.56398 0.6827 0.0
H535 H 0.824 0.55028 0.75667 0.0
H536 H 0.80518 0.51699 0.73765 0.0
H537 H 0.87116 0.55218 0.75894 0.0
H538 H 0.8102 0.59746 0.72632 0.0
H539 H 0.78309 0.61164 0.69335 0.0
H540 H 0.83822 0.63631 0.64673 0.0
H541 H 0.86571 0.62198 0.67923 0.0
C542 C 0.93223 0.63694 0.79645 0.0
C543 C 0.94698 0.64614 0.77776 0.0
C544 C 0.91249 0.62564 0.7886 0.0
C545 C 0.90753 0.62277 0.7619 0.0
C546 C 0.92147 0.63329 0.7433 0.0
C547 C 0.94098 0.64498 0.75117 0.0
C548 C 0.88927 0.60704 0.75322 0.0
C549 C 0.87321 0.61454 0.73477 0.0
C550 C 0.88831 0.5843 0.76222 0.0
C551 C 0.90575 0.5746 0.77995 0.0
C552 C 0.92875 0.5744 0.7727 0.0
C553 C 0.94512 0.56534 0.78957 0.0
C554 C 0.93868 0.55624 0.81363 0.0
C555 C 0.91583 0.55611 0.82083 0.0
C556 C 0.89939 0.56518 0.80405 0.0
C557 C 0.83395 0.53504 0.68378 0.0
C558 C 0.82003 0.52111 0.6992 0.0
C559 C 0.84446 0.55416 0.69461 0.0
C560 C 0.84132 0.55959 0.72107 0.0
C561 C 0.82654 0.54638 0.73618 0.0
C562 C 0.81581 0.5274 0.72527 0.0
C563 C 0.85583 0.57706 0.73362 0.0
C564 C 0.87134 0.5698 0.7527 0.0
C565 C 0.85651 0.5998 0.72477 0.0
C566 C 0.84003 0.60849 0.70516 0.0
C567 C 0.81657 0.60573 0.70894 0.0
C568 C 0.80112 0.61384 0.69035 0.0
C569 C 0.80893 0.62484 0.66794 0.0
C570 C 0.8322 0.62779 0.66409 0.0
C571 C 0.84772 0.6197 0.68262 0.0
H572 H 0.79694 0.6311 0.65357 0.0
H573 H 0.95138 0.54923 0.82667 0.0
H574 H 0.82844 0.93831 0.3133 0.0
H575 H 0.84787 0.90336 0.30026 0.0
H576 H 0.83269 0.91771 0.21932 0.0
H577 H 0.81223 0.95197 0.23241 0.0
H578 H 0.83283 0.87393 0.22564 0.0
H579 H 0.88368 0.93469 0.24981 0.0
H580 H 0.89989 0.96402 0.27891 0.0
H581 H 0.91709 0.91287 0.33538 0.0
H582 H 0.90071 0.88325 0.30672 0.0
H583 H 0.9336 0.83686 0.16126 0.0
H584 H 0.90038 0.85556 0.18005 0.0
H585 H 0.91482 0.82466 0.25466 0.0
H586 H 0.948 0.8057 0.23596 0.0
H587 H 0.9129 0.8719 0.25587 0.0
H588 H 0.86743 0.81034 0.22457 0.0
H589 H 0.85306 0.78288 0.19202 0.0
H590 H 0.82797 0.83767 0.1447 0.0
H591 H 0.84248 0.86549 0.17678 0.0
C592 C 0.82884 0.93371 0.29278 0.0
C593 C 0.8191 0.94797 0.27382 0.0
C594 C 0.84003 0.9138 0.28533 0.0
C595 C 0.84233 0.90822 0.25874 0.0
C596 C 0.83126 0.92167 0.23994 0.0
C597 C 0.81962 0.94131 0.24744 0.0
C598 C 0.858 0.88985 0.25028 0.0
C599 C 0.85035 0.87351 0.23219 0.0
C600 C 0.88083 0.88906 0.25906 0.0
C601 C 0.89073 0.90682 0.27629 0.0
C602 C 0.89078 0.92973 0.26852 0.0
C603 C 0.90001 0.9464 0.28491 0.0
C604 C 0.90945 0.94032 0.30902 0.0
C605 C 0.90973 0.91755 0.31674 0.0
C606 C 0.90048 0.90082 0.30042 0.0
C607 C 0.92939 0.8336 0.18151 0.0
C608 C 0.94351 0.81997 0.1972 0.0
C609 C 0.91034 0.8442 0.19217 0.0
C610 C 0.90515 0.84146 0.21873 0.0
C611 C 0.91852 0.82691 0.2341 0.0
C612 C 0.93744 0.81609 0.22337 0.0
C613 C 0.88781 0.85616 0.23106 0.0
C614 C 0.89524 0.87196 0.24977 0.0
C615 C 0.86502 0.85671 0.22236 0.0
C616 C 0.85619 0.84002 0.20303 0.0
C617 C 0.85901 0.81656 0.20713 0.0
C618 C 0.85081 0.80092 0.18878 0.0
C619 C 0.83964 0.80853 0.16628 0.0
C620 C 0.83662 0.83179 0.16213 0.0
C621 C 0.8448 0.84751 0.18042 0.0
H622 H 0.83331 0.79639 0.1521 0.0
H623 H 0.91659 0.95325 0.32169 0.0
H624 H 0.51854 0.2469 0.21559 0.0
H625 H 0.52833 0.28422 0.23373 0.0
H626 H 0.59939 0.26974 0.22255 0.0
H627 H 0.58988 0.23249 0.20484 0.0
H628 H 0.59289 0.29058 0.26813 0.0
H629 H 0.56982 0.30083 0.17839 0.0
H630 H 0.54347 0.29776 0.14098 0.0
H631 H 0.49453 0.33848 0.18179 0.0
H632 H 0.52047 0.34145 0.21966 0.0
H633 H 0.62672 0.41114 0.2319 0.0
H634 H 0.60628 0.37643 0.22022 0.0
H635 H 0.58557 0.36837 0.30046 0.0
H636 H 0.60636 0.40285 0.31241 0.0
H637 H 0.56383 0.35926 0.22279 0.0
H638 H 0.59192 0.31242 0.31632 0.0
H639 H 0.62167 0.31505 0.35033 0.0
H640 H 0.66652 0.347 0.29561 0.0
H641 H 0.63719 0.34421 0.26121 0.0
C642 C 0.53626 0.25156 0.2173 0.0
C643 C 0.55341 0.23677 0.20855 0.0
C644 C 0.54181 0.27292 0.22757 0.0
C645 C 0.56457 0.27984 0.2292 0.0
C646 C 0.58172 0.26475 0.22146 0.0
C647 C 0.57622 0.24347 0.21122 0.0
C648 C 0.57075 0.30311 0.2378 0.0
C649 C 0.58633 0.3056 0.25841 0.0
C650 C 0.56248 0.3227 0.22482 0.0
C651 C 0.54697 0.32113 0.20197 0.0
C652 C 0.55337 0.30898 0.17946 0.0
C653 C 0.53852 0.30728 0.15816 0.0
C654 C 0.5173 0.31787 0.15903 0.0
C655 C 0.51094 0.33024 0.18117 0.0
C656 C 0.52571 0.33194 0.20256 0.0
C657 C 0.6175 0.4022 0.24699 0.0
C658 C 0.61847 0.4095 0.27316 0.0
C659 C 0.60573 0.38242 0.24025 0.0
C660 C 0.59474 0.36963 0.25955 0.0
C661 C 0.59425 0.37781 0.28534 0.0
C662 C 0.60611 0.39753 0.29213 0.0
C663 C 0.58595 0.34668 0.25312 0.0
C664 C 0.56997 0.34426 0.23288 0.0
C665 C 0.5943 0.32707 0.26597 0.0
C666 C 0.61226 0.32835 0.28633 0.0
C667 C 0.60817 0.31992 0.31155 0.0
C668 C 0.62495 0.32144 0.33088 0.0
C669 C 0.64594 0.33126 0.32516 0.0
C670 C 0.65023 0.33946 0.30005 0.0
C671 C 0.63354 0.33792 0.28063 0.0
H672 H 0.65888 0.33247 0.34017 0.0
H673 H 0.50581 0.31652 0.14253 0.0
H674 H 0.24696 0.59395 0.71226 0.0
H675 H 0.20959 0.60352 0.72926 0.0
H676 H 0.18868 0.53359 0.72067 0.0
H677 H 0.22642 0.52373 0.70438 0.0
H678 H 0.17063 0.60257 0.70692 0.0
H679 H 0.14694 0.52155 0.76489 0.0
H680 H 0.16577 0.49126 0.79027 0.0
H681 H 0.22139 0.53606 0.80749 0.0
H682 H 0.20276 0.56669 0.78251 0.0
H683 H 0.05537 0.61317 0.73637 0.0
H684 H 0.09059 0.59485 0.7225 0.0
H685 H 0.11735 0.6011 0.80086 0.0
H686 H 0.0819 0.61869 0.81503 0.0
H687 H 0.13201 0.56295 0.77978 0.0
H688 H 0.12858 0.6413 0.75393 0.0
H689 H 0.11184 0.67498 0.73264 0.0
H690 H 0.1149 0.64137 0.65812 0.0
H691 H 0.13138 0.60736 0.67906 0.0
C692 C 0.23448 0.58054 0.71415 0.0
C693 C 0.23966 0.55807 0.70694 0.0
C694 C 0.21308 0.58606 0.72383 0.0
C695 C 0.1963 0.56929 0.72634 0.0
C696 C 0.20144 0.54677 0.71932 0.0
C697 C 0.223 0.54117 0.70992 0.0
C698 C 0.17326 0.57574 0.73541 0.0
C699 C 0.1622 0.59382 0.72281 0.0
C700 C 0.16229 0.56455 0.75634 0.0
C701 C 0.17357 0.54631 0.77157 0.0
C702 C 0.16316 0.52494 0.77415 0.0
C703 C 0.1738 0.50771 0.78846 0.0
C704 C 0.1948 0.5117 0.8004 0.0
C705 C 0.20517 0.53296 0.79814 0.0
C706 C 0.19459 0.55025 0.78387 0.0
C707 C 0.06862 0.61026 0.75073 0.0
C708 C 0.06602 0.61763 0.7767 0.0
C709 C 0.08875 0.59986 0.74278 0.0
C710 C 0.10681 0.59708 0.76051 0.0
C711 C 0.10369 0.60314 0.78681 0.0
C712 C 0.08343 0.61326 0.79487 0.0
C713 C 0.1295 0.58973 0.75127 0.0
C714 C 0.14042 0.5715 0.76376 0.0
C715 C 0.14073 0.60124 0.73076 0.0
C716 C 0.13098 0.62172 0.71809 0.0
C717 C 0.12554 0.64105 0.73303 0.0
C718 C 0.11612 0.6602 0.72103 0.0
C719 C 0.11225 0.66029 0.69406 0.0
C720 C 0.11787 0.64126 0.67902 0.0
C721 C 0.12726 0.62205 0.69094 0.0
H722 H 0.10496 0.67513 0.6848 0.0
H723 H 0.20301 0.49834 0.81146 0.0
H724 H 0.83201 0.06447 0.22115 0.0
H725 H 0.8537 0.09674 0.20503 0.0
H726 H 0.89065 0.09985 0.27801 0.0
H727 H 0.86822 0.06805 0.29468 0.0
H728 H 0.87733 0.13989 0.2663 0.0
H729 H 0.9158 0.08256 0.21826 0.0
H730 H 0.92007 0.04901 0.18974 0.0
H731 H 0.88729 0.08459 0.12685 0.0
H732 H 0.88253 0.11827 0.1551 0.0
H733 H 0.94796 0.22807 0.21494 0.0
H734 H 0.93727 0.1902 0.23056 0.0
H735 H 0.88459 0.18664 0.17194 0.0
H736 H 0.8949 0.22451 0.15644 0.0
H737 H 0.91117 0.14561 0.17791 0.0
H738 H 0.86933 0.20099 0.22929 0.0
H739 H 0.86617 0.23439 0.25828 0.0
H740 H 0.90789 0.20126 0.31574 0.0
H741 H 0.91155 0.16778 0.28689 0.0
C742 C 0.84499 0.0718 0.23364 0.0
C743 C 0.84836 0.06378 0.25922 0.0
C744 C 0.85751 0.0902 0.22433 0.0
C745 C 0.87405 0.10063 0.24016 0.0
C746 C 0.87799 0.09211 0.26542 0.0
C747 C 0.86521 0.0739 0.2749 0.0
C748 C 0.88582 0.12153 0.2311 0.0
C749 C 0.88519 0.1409 0.2472 0.0
C750 C 0.8958 0.1231 0.20601 0.0
C751 C 0.89868 0.1029 0.18888 0.0
C752 C 0.90936 0.08318 0.1984 0.0
C753 C 0.91189 0.06415 0.18227 0.0
C754 C 0.90392 0.06465 0.15651 0.0
C755 C 0.89345 0.08422 0.14681 0.0
C756 C 0.89086 0.1033 0.16287 0.0
C757 C 0.93423 0.21914 0.20523 0.0
C758 C 0.92217 0.22933 0.18457 0.0
C759 C 0.92816 0.19754 0.21419 0.0
C760 C 0.91012 0.18572 0.20241 0.0
C761 C 0.89859 0.1955 0.18121 0.0
C762 C 0.90443 0.21719 0.1725 0.0
C763 C 0.90234 0.1637 0.21301 0.0
C764 C 0.90367 0.14426 0.19718 0.0
C765 C 0.89324 0.16195 0.23844 0.0
C766 C 0.89095 0.18202 0.25581 0.0
C767 C 0.878 0.20092 0.248 0.0
C768 C 0.87608 0.21984 0.26442 0.0
C769 C 0.88689 0.21998 0.2888 0.0
C770 C 0.89957 0.20115 0.29683 0.0
C771 C 0.90157 0.1822 0.28046 0.0
H772 H 0.88538 0.23464 0.30149 0.0
H773 H 0.90589 0.0499 0.14406 0.0
H774 H 0.24225 0.94282 0.71228 0.0
H775 H 0.2797 0.93308 0.73002 0.0
H776 H 0.28284 0.87505 0.67837 0.0
H777 H 0.24526 0.88414 0.66145 0.0
H778 H 0.29546 0.8625 0.7238 0.0
H779 H 0.31418 0.92597 0.66889 0.0
H780 H 0.31166 0.96533 0.65266 0.0
H781 H 0.33103 -0.00937 0.72833 0.0
H782 H 0.33339 0.95141 0.74511 0.0
H783 H 0.41113 0.83537 0.72615 0.0
H784 H 0.3766 0.85368 0.71008 0.0
H785 H 0.37146 0.89194 0.78178 0.0
H786 H 0.40593 0.87338 0.79832 0.0
H787 H 0.36022 0.91619 0.72988 0.0
H788 H 0.34213 0.85061 0.78323 0.0
H789 H 0.34705 0.81058 0.79628 0.0
H790 H 0.32785 0.78877 0.71914 0.0
H791 H 0.32325 0.82872 0.70549 0.0
C792 C 0.25102 0.92806 0.70465 0.0
C793 C 0.24077 0.91419 0.68556 0.0
C794 C 0.27247 0.92257 0.71471 0.0
C795 C 0.28423 0.9034 0.70541 0.0
C796 C 0.27411 0.88983 0.686 0.0
C797 C 0.2526 0.89508 0.6763 0.0
C798 C 0.30669 0.89679 0.71637 0.0
C799 C 0.3096 0.87428 0.72486 0.0
C800 C 0.32513 0.91219 0.71837 0.0
C801 C 0.3237 0.93577 0.70833 0.0
C802 C 0.31772 0.93993 0.68213 0.0
C803 C 0.31636 0.96222 0.67281 0.0
C804 C 0.32111 0.98047 0.68947 0.0
C805 C 0.32731 0.97648 0.71546 0.0
C806 C 0.32867 0.95423 0.72488 0.0
C807 C 0.40293 0.84799 0.73836 0.0
C808 C 0.4111 0.85276 0.76365 0.0
C809 C 0.38323 0.85843 0.72911 0.0
C810 C 0.37151 0.87401 0.74483 0.0
C811 C 0.38037 0.87998 0.76938 0.0
C812 C 0.39997 0.8693 0.77882 0.0
C813 C 0.34879 0.882 0.73666 0.0
C814 C 0.34589 0.90464 0.72887 0.0
C815 C 0.33039 0.8667 0.73491 0.0
C816 C 0.33255 0.84266 0.74328 0.0
C817 C 0.33912 0.83728 0.769 0.0
C818 C 0.34184 0.81461 0.77651 0.0
C819 C 0.33782 0.79714 0.75853 0.0
C820 C 0.33099 0.80232 0.73303 0.0
C821 C 0.32831 0.82497 0.7254 0.0
H822 H 0.33997 0.7796 0.76437 0.0
H823 H 0.32005 -0.00229 0.68222 0.0
H824 H 0.52767 0.2276 0.74954 0.0
H825 H 0.53829 0.1899 0.73316 0.0
H826 H 0.59313 0.18716 0.78931 0.0
H827 H 0.58327 0.22502 0.80479 0.0
H828 H 0.60829 0.17386 0.7457 0.0
H829 H 0.54146 0.15582 0.79492 0.0
H830 H 0.50126 0.15868 0.80771 0.0
H831 H 0.48067 0.13905 0.73026 0.0
H832 H 0.52077 0.13636 0.7169 0.0
H833 H 0.63586 0.05839 0.74254 0.0
H834 H 0.61624 0.0921 0.75883 0.0
H835 H 0.58117 0.09888 0.68513 0.0
H836 H 0.60101 0.06525 0.66841 0.0
H837 H 0.55466 0.10945 0.73495 0.0
H838 H 0.62361 0.12749 0.68744 0.0
H839 H 0.66427 0.12215 0.67799 0.0
H840 H 0.68111 0.14037 0.75706 0.0
H841 H 0.64048 0.14535 0.76712 0.0
C842 C 0.54192 0.21886 0.75841 0.0
C843 C 0.55471 0.2293 0.77834 0.0
C844 C 0.54791 0.19727 0.74915 0.0
C845 C 0.56642 0.18553 0.76014 0.0
C846 C 0.57888 0.19586 0.78037 0.0
C847 C 0.5732 0.21753 0.78924 0.0
C848 C 0.57356 0.1629 0.75009 0.0
C849 C 0.59651 0.15979 0.74367 0.0
C850 C 0.55822 0.14453 0.74686 0.0
C851 C 0.53411 0.14613 0.75484 0.0
C852 C 0.52835 0.15229 0.78056 0.0
C853 C 0.50559 0.15385 0.78792 0.0
C854 C 0.48842 0.14911 0.76979 0.0
C855 C 0.49398 0.14275 0.74427 0.0
C856 C 0.51673 0.14119 0.7368 0.0
C857 C 0.62363 0.06672 0.72995 0.0
C858 C 0.62022 0.05937 0.70406 0.0
C859 C 0.61241 0.08595 0.73932 0.0
C860 C 0.59744 0.09798 0.72307 0.0
C861 C 0.59265 0.08973 0.69792 0.0
C862 C 0.60408 0.07062 0.6884 0.0
C863 C 0.58923 0.12063 0.7312 0.0
C864 C 0.56623 0.12369 0.73704 0.0
C865 C 0.60453 0.13892 0.73433 0.0
C866 C 0.629 0.13658 0.72809 0.0
C867 C 0.63597 0.13019 0.70286 0.0
C868 C 0.65901 0.12724 0.69739 0.0
C869 C 0.67526 0.13087 0.71693 0.0
C870 C 0.6685 0.13754 0.74196 0.0
C871 C 0.64547 0.14044 0.74755 0.0
H872 H 0.69309 0.12857 0.71266 0.0
H873 H 0.4708 0.15032 0.77553 0.0
H874 H 0.40347 0.60443 0.1658 0.0
H875 H 0.37126 0.58209 0.18143 0.0
H876 H 0.37329 0.6184 0.25482 0.0
H877 H 0.40594 0.64012 0.2397 0.0
H878 H 0.36322 0.57602 0.26378 0.0
H879 H 0.33664 0.63323 0.20344 0.0
H880 H 0.33488 0.65341 0.16126 0.0
H881 H 0.31455 0.59178 0.12265 0.0
H882 H 0.31648 0.57115 0.16458 0.0
H883 H 0.24881 0.58354 0.3037 0.0
H884 H 0.28646 0.59085 0.28588 0.0
H885 H 0.27864 0.53441 0.23271 0.0
H886 H 0.24089 0.52655 0.25098 0.0
H887 H 0.29267 0.5797 0.21061 0.0
H888 H 0.31353 0.52476 0.27512 0.0
H889 H 0.31349 0.5074 0.31895 0.0
H890 H 0.34272 0.56804 0.35154 0.0
H891 H 0.34263 0.58592 0.30794 0.0
C892 C 0.3972 0.60744 0.18539 0.0
C893 C 0.40708 0.62419 0.20143 0.0
C894 C 0.37874 0.59472 0.19426 0.0
C895 C 0.36955 0.59886 0.21913 0.0
C896 C 0.38004 0.6149 0.23555 0.0
C897 C 0.39867 0.62739 0.22684 0.0
C898 C 0.34828 0.58756 0.22762 0.0
C899 C 0.34781 0.57686 0.25214 0.0
C900 C 0.3282 0.58823 0.21225 0.0
C901 C 0.32698 0.6006 0.18706 0.0
C902 C 0.33196 0.62395 0.18591 0.0
C903 C 0.33091 0.63547 0.16206 0.0
C904 C 0.32468 0.62387 0.13927 0.0
C905 C 0.31942 0.60073 0.14031 0.0
C906 C 0.32049 0.58912 0.1641 0.0
C907 C 0.25509 0.5726 0.28828 0.0
C908 C 0.24189 0.55451 0.27865 0.0
C909 C 0.27664 0.57674 0.27823 0.0
C910 C 0.28528 0.56309 0.25812 0.0
C911 C 0.27221 0.54503 0.24834 0.0
C912 C 0.25074 0.54056 0.25879 0.0
C913 C 0.30764 0.56863 0.24683 0.0
C914 C 0.30825 0.57837 0.22189 0.0
C915 C 0.32771 0.56744 0.26199 0.0
C916 C 0.32794 0.55673 0.28825 0.0
C917 C 0.31979 0.53447 0.29166 0.0
C918 C 0.31983 0.52452 0.31645 0.0
C919 C 0.32811 0.53661 0.338 0.0
C920 C 0.33635 0.55869 0.33481 0.0
C921 C 0.33634 0.56873 0.31005 0.0
H922 H 0.32815 0.52886 0.35718 0.0
H923 H 0.32387 0.63282 0.12083 0.0
H924 H 0.83557 0.40529 0.74287 0.0
H925 H 0.85747 0.37275 0.7582 0.0
H926 H 0.88927 0.36703 0.68262 0.0
H927 H 0.86684 0.39928 0.6669 0.0
H928 H 0.87509 0.32718 0.69754 0.0
H929 H 0.91922 0.38518 0.73774 0.0
H930 H 0.92682 0.41979 0.76359 0.0
H931 H 0.89876 0.38808 0.83171 0.0
H932 H 0.89068 0.35338 0.80619 0.0
H933 H 0.94654 0.23834 0.74873 0.0
H934 H 0.93654 0.27592 0.73126 0.0
H935 H 0.88762 0.28476 0.7929 0.0
H936 H 0.89711 0.24721 0.8101 0.0
H937 H 0.91635 0.32412 0.78223 0.0
H938 H 0.86774 0.26861 0.73929 0.0
H939 H 0.86073 0.23393 0.71333 0.0
H940 H 0.89898 0.26173 0.64968 0.0
H941 H 0.90652 0.29645 0.67548 0.0
C942 C 0.84743 0.39731 0.7296 0.0
C943 C 0.84942 0.40482 0.70365 0.0
C944 C 0.86007 0.37876 0.73844 0.0
C945 C 0.87523 0.36755 0.72166 0.0
C946 C 0.87769 0.37541 0.69592 0.0
C947 C 0.86492 0.39388 0.68699 0.0
C948 C 0.88721 0.3467 0.73052 0.0
C949 C 0.88456 0.3267 0.71576 0.0
C950 C 0.89933 0.34589 0.75449 0.0
C951 C 0.90421 0.36671 0.76998 0.0
C952 C 0.91452 0.38564 0.75819 0.0
C953 C 0.91894 0.40527 0.77279 0.0
C954 C 0.91324 0.40614 0.79926 0.0
C955 C 0.90316 0.38737 0.8112 0.0
C956 C 0.89869 0.36771 0.79668 0.0
C957 C 0.93381 0.24841 0.75865 0.0
C958 C 0.92247 0.23981 0.78064 0.0
C959 C 0.92813 0.26981 0.74866 0.0
C960 C 0.91135 0.28301 0.76083 0.0
C961 C 0.90066 0.27481 0.78332 0.0
C962 C 0.90599 0.25331 0.79299 0.0
C963 C 0.90385 0.30484 0.74943 0.0
C964 C 0.90728 0.32489 0.76375 0.0
C965 C 0.8926 0.30576 0.72501 0.0
C966 C 0.88794 0.28498 0.70943 0.0
C967 C 0.87484 0.26723 0.71986 0.0
C968 C 0.87073 0.24758 0.70516 0.0
C969 C 0.87947 0.24559 0.6799 0.0
C970 C 0.89227 0.26327 0.66927 0.0
C971 C 0.89646 0.28294 0.68392 0.0
H972 H 0.87627 0.23037 0.66855 0.0
H973 H 0.91667 0.42136 0.81054 0.0
H974 H 0.05016 0.85167 0.23989 0.0
H975 H 0.08333 0.87303 0.25504 0.0
H976 H 0.10867 0.87526 0.176 0.0
H977 H 0.07516 0.85484 0.1607 0.0
H978 H 0.1242 0.86048 0.25589 0.0
H979 H 0.14431 0.91833 0.1661 0.0
H980 H 0.12347 0.94106 0.13342 0.0
H981 H 0.06678 0.94649 0.1855 0.0
H982 H 0.08738 0.92407 0.21865 0.0
H983 H 0.2396 0.8826 0.25425 0.0
H984 H 0.20103 0.8733 0.24055 0.0
H985 H 0.18048 0.94268 0.25428 0.0
H986 H 0.21938 0.95232 0.26725 0.0
H987 H 0.15953 0.92695 0.21259 0.0
H988 H 0.1696 0.90133 0.29971 0.0
H989 H 0.18839 0.88171 0.33644 0.0
H990 H 0.18025 0.81769 0.29706 0.0
H991 H 0.16169 0.83697 0.2599 0.0
C992 C 0.06262 0.85711 0.22572 0.0
C993 C 0.06011 0.85156 0.19914 0.0
C994 C 0.08159 0.86928 0.23438 0.0
C995 C 0.0985 0.87592 0.21668 0.0
C996 C 0.09568 0.87084 0.19001 0.0
C997 C 0.07655 0.85901 0.18129 0.0
C998 C 0.12002 0.88621 0.22629 0.0
C999 C 0.13177 0.87514 0.24651 0.0
C1000 C 0.12979 0.90566 0.21455 0.0
C1001 C 0.11735 0.91935 0.19479 0.0
C1002 C 0.12745 0.92447 0.17064 0.0
C1003 C 0.11566 0.93728 0.15202 0.0
C1004 C 0.0938 0.94516 0.15735 0.0
C1005 C 0.08369 0.9403 0.18136 0.0
C1006 C 0.0954 0.92751 0.20005 0.0
C1007 C 0.22694 0.89595 0.25412 0.0
C1008 C 0.23247 0.91814 0.26209 0.0
C1009 C 0.20486 0.89059 0.2464 0.0
C1010 C 0.18773 0.90716 0.24703 0.0
C1011 C 0.1934 0.92959 0.25381 0.0
C1012 C 0.21562 0.93507 0.26122 0.0
C1013 C 0.16384 0.90071 0.24147 0.0
C1014 C 0.15172 0.91248 0.22208 0.0
C1015 C 0.15335 0.88236 0.25456 0.0
C1016 C 0.16438 0.87063 0.27694 0.0
C1017 C 0.17194 0.88308 0.29881 0.0
C1018 C 0.18254 0.87202 0.31971 0.0
C1019 C 0.18555 0.84847 0.31906 0.0
C1020 C 0.17792 0.83593 0.29752 0.0
C1021 C 0.16733 0.84691 0.27655 0.0
H1022 H 0.19376 0.83994 0.33526 0.0
H1023 H 0.0847 0.95507 0.1429 0.0
H1024 H 0.34347 0.56213 0.7528 0.0
H1025 H 0.36193 0.59699 0.76811 0.0
H1026 H 0.38667 0.60957 0.69023 0.0
H1027 H 0.36806 0.57495 0.6747 0.0
H1028 H 0.40469 0.61549 0.76891 0.0
H1029 H 0.37782 0.66566 0.67697 0.0
H1030 H 0.3489 0.66367 0.64198 0.0
H1031 H 0.3038 0.6282 0.69346 0.0
H1032 H 0.33228 0.63033 0.72886 0.0
H1033 H 0.45215 0.72767 0.77328 0.0
H1034 H 0.44104 0.68946 0.75908 0.0
H1035 H 0.37064 0.70656 0.77094 0.0
H1036 H 0.38149 0.74468 0.78487 0.0
H1037 H 0.37621 0.68531 0.72545 0.0
H1038 H 0.39894 0.67413 0.81465 0.0
H1039 H 0.42435 0.67502 0.85307 0.0
H1040 H 0.47225 0.63266 0.81285 0.0
H1041 H 0.44726 0.63178 0.77403 0.0
C1042 C 0.35318 0.57211 0.73903 0.0
C1043 C 0.35402 0.56599 0.71246 0.0
C1044 C 0.36378 0.59197 0.74783 0.0
C1045 C 0.37534 0.60602 0.73021 0.0
C1046 C 0.37755 0.59911 0.70407 0.0
C1047 C 0.36693 0.57931 0.69524 0.0
C1048 C 0.38313 0.62887 0.73855 0.0
C1049 C 0.39864 0.63078 0.75932 0.0
C1050 C 0.37478 0.64879 0.72638 0.0
C1051 C 0.35729 0.64794 0.70544 0.0
C1052 C 0.36169 0.65754 0.68084 0.0
C1053 C 0.34538 0.65638 0.66095 0.0
C1054 C 0.32456 0.64574 0.66547 0.0
C1055 C 0.31996 0.63636 0.68995 0.0
C1056 C 0.33618 0.63754 0.70993 0.0
C1057 C 0.43431 0.72331 0.77281 0.0
C1058 C 0.41772 0.73925 0.78026 0.0
C1059 C 0.428 0.70143 0.76482 0.0
C1060 C 0.40502 0.69513 0.76414 0.0
C1061 C 0.38847 0.71107 0.7713 0.0
C1062 C 0.39473 0.73286 0.77934 0.0
C1063 C 0.39802 0.67203 0.7557 0.0
C1064 C 0.38257 0.67006 0.73487 0.0
C1065 C 0.40605 0.65214 0.76824 0.0
C1066 C 0.42133 0.65309 0.79133 0.0
C1067 C 0.41501 0.66522 0.81388 0.0
C1068 C 0.42932 0.66568 0.83576 0.0
C1069 C 0.44991 0.65392 0.83538 0.0
C1070 C 0.4563 0.64177 0.8131 0.0
C1071 C 0.44207 0.64128 0.79116 0.0
H1072 H 0.46087 0.65411 0.8524 0.0
H1073 H 0.31198 0.64481 0.65002 0.0
H1074 H 0.89879 0.322 0.23757 0.0
H1075 H 0.86348 0.34058 0.25058 0.0
H1076 H 0.86671 0.38376 0.18271 0.0
H1077 H 0.90196 0.36495 0.16922 0.0
H1078 H 0.85359 0.40567 0.23388 0.0
H1079 H 0.83418 0.34391 0.17546 0.0
H1080 H 0.83623 0.30421 0.16008 0.0
H1081 H 0.80988 0.28105 0.23348 0.0
H1082 H 0.80801 0.32061 0.24945 0.0
H1083 H 0.73815 0.44167 0.24771 0.0
H1084 H 0.77449 0.42901 0.22966 0.0
H1085 H 0.77145 0.36856 0.27719 0.0
H1086 H 0.73497 0.3806 0.29439 0.0
H1087 H 0.78472 0.35717 0.23162 0.0
H1088 H 0.80599 0.41638 0.29209 0.0
H1089 H 0.80576 0.45504 0.31081 0.0
H1090 H 0.82982 0.48211 0.23813 0.0
H1091 H 0.82993 0.44361 0.21887 0.0
C1092 C 0.89217 0.33563 0.22556 0.0
C1093 C 0.90305 0.34192 0.20227 0.0
C1094 C 0.872 0.3462 0.23301 0.0
C1095 C 0.86251 0.3634 0.21749 0.0
C1096 C 0.87384 0.3705 0.1949 0.0
C1097 C 0.89389 0.3597 0.1872 0.0
C1098 C 0.83999 0.37279 0.22412 0.0
C1099 C 0.8384 0.39527 0.23303 0.0
C1100 C 0.82041 0.35897 0.22345 0.0
C1101 C 0.82114 0.3352 0.21372 0.0
C1102 C 0.82898 0.33034 0.18839 0.0
C1103 C 0.83009 0.30786 0.17956 0.0
C1104 C 0.82324 0.29011 0.19582 0.0
C1105 C 0.8152 0.29481 0.22092 0.0
C1106 C 0.81409 0.31726 0.22986 0.0
C1107 C 0.74525 0.42567 0.25423 0.0
C1108 C 0.73366 0.41213 0.27245 0.0
C1109 C 0.76608 0.4185 0.24401 0.0
C1110 C 0.77589 0.39792 0.25227 0.0
C1111 C 0.76424 0.38444 0.2704 0.0
C1112 C 0.74335 0.39138 0.28027 0.0
C1113 C 0.79815 0.39009 0.24207 0.0
C1114 C 0.79975 0.3678 0.23234 0.0
C1115 C 0.81778 0.40402 0.24243 0.0
C1116 C 0.81771 0.42716 0.25395 0.0
C1117 C 0.81106 0.4306 0.28004 0.0
C1118 C 0.81098 0.45248 0.29075 0.0
C1119 C 0.8177 0.47103 0.27564 0.0
C1120 C 0.82457 0.46773 0.24979 0.0
C1121 C 0.82466 0.44589 0.23897 0.0
H1122 H 0.81763 0.48795 0.28397 0.0
H1123 H 0.82412 0.27272 0.18895 0.0
H1124 H 0.08799 0.73617 0.79404 0.0
H1125 H 0.09729 0.77346 0.77654 0.0
H1126 H 0.03635 0.7725 0.72962 0.0
H1127 H 0.02659 0.73498 0.74742 0.0
H1128 H 0.0792 0.78603 0.70323 0.0
H1129 H 0.03368 0.80418 0.77807 0.0
H1130 H 0.02232 0.80092 0.82422 0.0
H1131 H 0.08793 0.82472 0.84872 0.0
H1132 H 0.09985 0.82772 0.80269 0.0
H1133 H 0.10326 0.89905 0.66537 0.0
H1134 H 0.08207 0.86608 0.68108 0.0
H1135 H 0.12583 0.86255 0.74887 0.0
H1136 H 0.14631 0.89611 0.73386 0.0
H1137 H 0.0853 0.85237 0.76296 0.0
H1138 H 0.13345 0.82884 0.69188 0.0
H1139 H 0.14835 0.82969 0.64691 0.0
H1140 H 0.08212 0.81393 0.6166 0.0
H1141 H 0.06676 0.81328 0.66142 0.0
C1142 C 0.07654 0.74375 0.77992 0.0
C1143 C 0.05651 0.73259 0.77214 0.0
C1144 C 0.08187 0.76513 0.77004 0.0
C1145 C 0.06741 0.77573 0.75201 0.0
C1146 C 0.04765 0.76453 0.74363 0.0
C1147 C 0.0421 0.74318 0.75383 0.0
C1148 C 0.07326 0.79857 0.74213 0.0
C1149 C 0.08005 0.80073 0.71605 0.0
C1150 C 0.07495 0.81743 0.75919 0.0
C1151 C 0.0677 0.81603 0.7869 0.0
C1152 C 0.04574 0.80857 0.79329 0.0
C1153 C 0.03919 0.80679 0.81945 0.0
C1154 C 0.0544 0.81259 0.8394 0.0
C1155 C 0.07617 0.82024 0.83324 0.0
C1156 C 0.08282 0.822 0.80712 0.0
C1157 C 0.10815 0.89137 0.68378 0.0
C1158 C 0.12654 0.9 0.69829 0.0
C1159 C 0.09612 0.87247 0.69268 0.0
C1160 C 0.10266 0.86148 0.71587 0.0
C1161 C 0.12047 0.87067 0.73089 0.0
C1162 C 0.13221 0.88984 0.72226 0.0
C1163 C 0.09176 0.83987 0.72404 0.0
C1164 C 0.08406 0.83788 0.74988 0.0
C1165 C 0.08969 0.821 0.70688 0.0
C1166 C 0.09891 0.82128 0.67996 0.0
C1167 C 0.12204 0.82571 0.67561 0.0
C1168 C 0.13057 0.82614 0.65015 0.0
C1169 C 0.11618 0.82194 0.6289 0.0
C1170 C 0.09324 0.81723 0.63308 0.0
C1171 C 0.08461 0.81682 0.65849 0.0
H1172 H 0.12282 0.82227 0.60921 0.0
H1173 H 0.04933 0.81118 0.85963 0.0
H1174 H 0.55047 0.11978 0.23975 0.0
H1175 H 0.58488 0.09986 0.25373 0.0
H1176 H 0.60977 0.10111 0.17453 0.0
H1177 H 0.57517 0.12036 0.16031 0.0
H1178 H 0.62265 0.06299 0.19736 0.0
H1179 H 0.62441 0.14262 0.21855 0.0
H1180 H 0.6102 0.1781 0.23837 0.0
H1181 H 0.61402 0.14787 0.31461 0.0
H1182 H 0.62794 0.11207 0.29516 0.0
H1183 H 0.74151 0.09225 0.25769 0.0
H1184 H 0.70384 0.10241 0.24178 0.0
H1185 H 0.68086 0.0338 0.25534 0.0
H1186 H 0.71893 0.0233 0.27047 0.0
H1187 H 0.66606 0.10405 0.26606 0.0
H1188 H 0.63636 0.02159 0.21436 0.0
H1189 H 0.65266 -0.01076 0.19004 0.0
H1190 H 0.70925 0.03053 0.16723 0.0
H1191 H 0.69316 0.06318 0.19112 0.0
C1192 C 0.5631 0.11543 0.22525 0.0
C1193 C 0.56028 0.12191 0.19901 0.0
C1194 C 0.58276 0.10409 0.23326 0.0
C1195 C 0.60011 0.09943 0.21527 0.0
C1196 C 0.59666 0.10458 0.18877 0.0
C1197 C 0.57689 0.11567 0.18069 0.0
C1198 C 0.62261 0.0912 0.22428 0.0
C1199 C 0.63211 0.07185 0.21251 0.0
C1200 C 0.63518 0.10306 0.24361 0.0
C1201 C 0.62697 0.12461 0.25538 0.0
C1202 C 0.62207 0.1435 0.23952 0.0
C1203 C 0.61409 0.16366 0.25068 0.0
C1204 C 0.61115 0.16521 0.27772 0.0
C1205 C 0.61626 0.14662 0.29366 0.0
C1206 C 0.6242 0.12639 0.28258 0.0
C1207 C 0.72851 0.07925 0.25707 0.0
C1208 C 0.73319 0.05697 0.26536 0.0
C1209 C 0.70694 0.0851 0.24804 0.0
C1210 C 0.68947 0.06889 0.24731 0.0
C1211 C 0.69413 0.04653 0.25532 0.0
C1212 C 0.71588 0.04056 0.26403 0.0
C1213 C 0.66628 0.07584 0.23908 0.0
C1214 C 0.65659 0.09498 0.25109 0.0
C1215 C 0.65392 0.06419 0.21939 0.0
C1216 C 0.66367 0.04473 0.20479 0.0
C1217 C 0.65225 0.02377 0.2041 0.0
C1218 C 0.66146 0.00538 0.1904 0.0
C1219 C 0.68202 0.00781 0.17718 0.0
C1220 C 0.69338 0.02865 0.17757 0.0
C1221 C 0.68424 0.04709 0.19122 0.0
H1222 H 0.68912 -0.00645 0.1666 0.0
H1223 H 0.60498 0.18084 0.28634 0.0
H1224 H 0.44699 0.74238 0.21683 0.0
H1225 H 0.4375 0.78065 0.23262 0.0
H1226 H 0.38159 0.78371 0.17809 0.0
H1227 H 0.39064 0.74548 0.16256 0.0
H1228 H 0.41025 0.82412 0.18049 0.0
H1229 H 0.36942 0.77119 0.23673 0.0
H1230 H 0.36734 0.73913 0.26761 0.0
H1231 H 0.41192 0.77421 0.32065 0.0
H1232 H 0.41451 0.80637 0.28988 0.0
H1233 H 0.33223 0.90673 0.22108 0.0
H1234 H 0.35408 0.87403 0.20638 0.0
H1235 H 0.39121 0.8739 0.27934 0.0
H1236 H 0.36849 0.90609 0.29466 0.0
H1237 H 0.37897 0.83354 0.26976 0.0
H1238 H 0.41619 0.88872 0.21825 0.0
H1239 H 0.42028 0.92116 0.18822 0.0
H1240 H 0.38664 0.88346 0.12743 0.0
H1241 H 0.38205 0.85089 0.1572 0.0
C1242 C 0.43274 0.75126 0.20816 0.0
C1243 C 0.41946 0.74088 0.18858 0.0
C1244 C 0.42736 0.77307 0.21719 0.0
C1245 C 0.40887 0.78492 0.20648 0.0
C1246 C 0.39597 0.77482 0.18651 0.0
C1247 C 0.40108 0.75293 0.1778 0.0
C1248 C 0.40219 0.80748 0.21667 0.0
C1249 C 0.40333 0.82629 0.19996 0.0
C1250 C 0.39402 0.81032 0.24239 0.0
C1251 C 0.39239 0.79103 0.26087 0.0
C1252 C 0.37895 0.77196 0.25487 0.0
C1253 C 0.37764 0.7538 0.27237 0.0
C1254 C 0.38955 0.75459 0.29603 0.0
C1255 C 0.40274 0.7736 0.30228 0.0
C1256 C 0.40413 0.79179 0.28483 0.0
C1257 C 0.34529 0.89998 0.23385 0.0
C1258 C 0.34862 0.90893 0.25905 0.0
C1259 C 0.35792 0.88132 0.22535 0.0
C1260 C 0.37459 0.87159 0.24157 0.0
C1261 C 0.37848 0.88107 0.26644 0.0
C1262 C 0.36554 0.89949 0.27515 0.0
C1263 C 0.38646 0.85044 0.23338 0.0
C1264 C 0.3863 0.83174 0.25044 0.0
C1265 C 0.39592 0.84785 0.2081 0.0
C1266 C 0.39865 0.86739 0.19005 0.0
C1267 C 0.40952 0.88739 0.19854 0.0
C1268 C 0.41195 0.9058 0.18155 0.0
C1269 C 0.40369 0.90439 0.15595 0.0
C1270 C 0.39303 0.88454 0.14727 0.0
C1271 C 0.39054 0.86608 0.16419 0.0
H1272 H 0.40559 0.91866 0.14283 0.0
H1273 H 0.38851 0.74052 0.30956 0.0
H1274 H 0.71984 0.44578 0.69001 0.0
H1275 H 0.68226 0.43445 0.70553 0.0
H1276 H 0.70648 0.36587 0.71664 0.0
H1277 H 0.74359 0.37686 0.70011 0.0
H1278 H 0.66794 0.36368 0.69491 0.0
H1279 H 0.69731 0.40511 0.7686 0.0
H1280 H 0.71378 0.43803 0.79181 0.0
H1281 H 0.65574 0.47845 0.77122 0.0
H1282 H 0.63905 0.44583 0.7476 0.0
H1283 H 0.58123 0.34868 0.80587 0.0
H1284 H 0.6153 0.3672 0.78932 0.0
H1285 H 0.58753 0.36529 0.71112 0.0
H1286 H 0.55372 0.3459 0.72747 0.0
H1287 H 0.62675 0.40424 0.76535 0.0
H1288 H 0.62897 0.35445 0.66778 0.0
H1289 H 0.61526 0.31812 0.64939 0.0
H1290 H 0.61532 0.28856 0.72608 0.0
H1291 H 0.62932 0.3246 0.74485 0.0
C1292 C 0.71713 0.42833 0.69589 0.0
C1293 C 0.73463 0.41219 0.69379 0.0
C1294 C 0.69567 0.42187 0.70485 0.0
C1295 C 0.69153 0.39932 0.71247 0.0
C1296 C 0.70916 0.38333 0.71072 0.0
C1297 C 0.73041 0.38965 0.70133 0.0
C1298 C 0.66879 0.39201 0.72171 0.0
C1299 C 0.65895 0.37264 0.71026 0.0
C1300 C 0.65705 0.40348 0.74194 0.0
C1301 C 0.66706 0.42311 0.7561 0.0
C1302 C 0.68814 0.42107 0.76885 0.0
C1303 C 0.6975 0.43966 0.78211 0.0
C1304 C 0.68585 0.46033 0.78292 0.0
C1305 C 0.66477 0.46244 0.77053 0.0
C1306 C 0.65535 0.4439 0.75723 0.0
C1307 C 0.58226 0.35243 0.78518 0.0
C1308 C 0.56496 0.34556 0.76788 0.0
C1309 C 0.60172 0.3631 0.77575 0.0
C1310 C 0.60418 0.36728 0.7489 0.0
C1311 C 0.58624 0.36178 0.73183 0.0
C1312 C 0.56691 0.35078 0.7412 0.0
C1313 C 0.62612 0.37584 0.7387 0.0
C1314 C 0.63572 0.39546 0.74985 0.0
C1315 C 0.63808 0.36413 0.71886 0.0
C1316 C 0.62992 0.3423 0.70772 0.0
C1317 C 0.62612 0.34016 0.68069 0.0
C1318 C 0.61829 0.31963 0.67021 0.0
C1319 C 0.61434 0.30107 0.68657 0.0
C1320 C 0.61831 0.30297 0.71344 0.0
C1321 C 0.62617 0.32345 0.72401 0.0
H1322 H 0.60826 0.2852 0.67842 0.0
H1323 H 0.69312 0.47471 0.7932 0.0
H1324 H 0.14363 0.56937 0.23236 0.0
H1325 H 0.12397 0.60297 0.21563 0.0
H1326 H 0.0874 0.60918 0.28811 0.0
H1327 H 0.10737 0.57576 0.3053 0.0
H1328 H 0.06142 0.61679 0.23617 0.0
H1329 H 0.12708 0.64048 0.28724 0.0
H1330 H 0.1676 0.63869 0.2993 0.0
H1331 H 0.18608 0.65656 0.22088 0.0
H1332 H 0.14564 0.65807 0.20824 0.0
H1333 H 0.02697 0.73247 0.21849 0.0
H1334 H 0.03972 0.69587 0.23593 0.0
H1335 H 0.09604 0.6961 0.18223 0.0
H1336 H 0.08394 0.73291 0.16556 0.0
H1337 H 0.11083 0.68459 0.22712 0.0
H1338 H 0.04752 0.66122 0.17447 0.0
H1339 H 0.00782 0.66101 0.15904 0.0
H1340 H 0.98543 0.64098 0.23538 0.0
H1341 H 0.025 0.64137 0.25136 0.0
C1342 C 0.13116 0.57765 0.24462 0.0
C1343 C 0.12717 0.57006 0.27023 0.0
C1344 C 0.11995 0.59681 0.23502 0.0
C1345 C 0.10434 0.60849 0.25071 0.0
C1346 C 0.09936 0.60028 0.27574 0.0
C1347 C 0.11085 0.58129 0.28554 0.0
C1348 C 0.09495 0.63043 0.24178 0.0
C1349 C 0.07204 0.63177 0.23449 0.0
C1350 C 0.10906 0.64967 0.23906 0.0
C1351 C 0.13336 0.64916 0.24674 0.0
C1352 C 0.13979 0.64384 0.27252 0.0
C1353 C 0.16274 0.6429 0.27947 0.0
C1354 C 0.17941 0.64745 0.26085 0.0
C1355 C 0.17315 0.65302 0.23527 0.0
C1356 C 0.15022 0.65392 0.22821 0.0
C1357 C 0.042 0.72463 0.21036 0.0
C1358 C 0.0545 0.73562 0.19075 0.0
C1359 C 0.04922 0.70365 0.22024 0.0
C1360 C 0.06877 0.69308 0.21026 0.0
C1361 C 0.08099 0.70393 0.19038 0.0
C1362 C 0.07402 0.72499 0.18083 0.0
C1363 C 0.07714 0.67116 0.22102 0.0
C1364 C 0.09999 0.66977 0.2288 0.0
C1365 C 0.063 0.65181 0.22372 0.0
C1366 C 0.0392 0.65157 0.21418 0.0
C1367 C 0.03411 0.65696 0.18802 0.0
C1368 C 0.01164 0.65677 0.17917 0.0
C1369 C -0.00589 0.65105 0.19624 0.0
C1370 C -0.00097 0.64545 0.22219 0.0
C1371 C 0.02148 0.64563 0.23115 0.0
H1372 H 0.97672 0.65091 0.18935 0.0
H1373 H 0.19717 0.64671 0.26627 0.0
H1374 H 0.91256 0.12912 0.7286 0.0
H1375 H 0.87733 0.11156 0.71316 0.0
H1376 H 0.85457 0.10493 0.79287 0.0
H1377 H 0.89005 0.12171 0.80843 0.0
H1378 H 0.84202 0.06922 0.76679 0.0
H1379 H 0.83722 0.14953 0.75315 0.0
H1380 H 0.84952 0.18694 0.73674 0.0
H1381 H 0.8453 0.16234 0.65778 0.0
H1382 H 0.83328 0.12468 0.67374 0.0
H1383 H 0.72198 0.09377 0.70581 0.0
H1384 H 0.75849 0.10618 0.72331 0.0
H1385 H 0.78706 0.04028 0.70611 0.0
H1386 H 0.7502 0.02747 0.68954 0.0
H1387 H 0.79667 0.11226 0.70167 0.0
H1388 H 0.83086 0.02853 0.74693 0.0
H1389 H 0.8162 -0.006 0.7683 0.0
H1390 H 0.75683 0.03047 0.79279 0.0
H1391 H 0.77126 0.06528 0.77186 0.0
C1392 C 0.90014 0.12367 0.74282 0.0
C1393 C 0.90397 0.12695 0.7697 0.0
C1394 C 0.87998 0.11373 0.73398 0.0
C1395 C 0.8631 0.10733 0.75183 0.0
C1396 C 0.86731 0.10977 0.77872 0.0
C1397 C 0.88759 0.11942 0.78759 0.0
C1398 C 0.84066 0.09907 0.74253 0.0
C1399 C 0.83212 0.07858 0.75249 0.0
C1400 C 0.82747 0.11155 0.72434 0.0
C1401 C 0.83458 0.13422 0.71466 0.0
C1402 C 0.83907 0.15206 0.7323 0.0
C1403 C 0.84597 0.17331 0.72308 0.0
C1404 C 0.84825 0.17699 0.69624 0.0
C1405 C 0.84356 0.15945 0.67856 0.0
C1406 C 0.83669 0.13815 0.68768 0.0
C1407 C 0.73599 0.08186 0.70594 0.0
C1408 C 0.73321 0.05963 0.69633 0.0
C1409 C 0.75689 0.08899 0.71588 0.0
C1410 C 0.77557 0.07417 0.71619 0.0
C1411 C 0.77283 0.05192 0.70658 0.0
C1412 C 0.75177 0.04463 0.69703 0.0
C1413 C 0.79796 0.08232 0.72588 0.0
C1414 C 0.80655 0.1028 0.7159 0.0
C1415 C 0.8108 0.07023 0.74475 0.0
C1416 C 0.80204 0.04943 0.75757 0.0
C1417 C 0.81471 0.02919 0.75694 0.0
C1418 C 0.80644 0.00957 0.76897 0.0
C1419 C 0.78556 0.01002 0.78181 0.0
C1420 C 0.77295 0.03012 0.78274 0.0
C1421 C 0.78116 0.04979 0.77077 0.0
H1422 H 0.77918 -0.00519 0.7911 0.0
H1423 H 0.85359 0.19344 0.68913 0.0
H1424 H 0.55255 0.21336 0.07727 0.0
H1425 H 0.54157 0.23301 0.03737 0.0
H1426 H 0.47131 0.21698 0.05154 0.0
H1427 H 0.48216 0.19735 0.09218 0.0
H1428 H 0.48978 0.2078 -0.00226 0.0
H1429 H 0.48133 0.26755 0.05993 0.0
H1430 H 0.49197 0.2913 0.09783 0.0
H1431 H 0.55221 0.31302 0.05817 0.0
H1432 H 0.54218 0.28911 0.02022 0.0
H1433 H 0.48546 0.27411 0.87944 0.0
H1434 H 0.47386 0.26134 0.92306 0.0
H1435 H 0.54097 0.27605 0.95262 0.0
H1436 H 0.55247 0.28906 0.90972 0.0
H1437 H 0.50983 0.28911 -0.01315 0.0
H1438 H 0.52461 0.22196 0.93277 0.0
H1439 H 0.5174 0.19668 0.89509 0.0
H1440 H 0.44836 0.18792 0.91961 0.0
H1441 H 0.45513 0.21338 0.95729 0.0
C1442 C 0.53474 0.2139 0.07199 0.0
C1443 C 0.51822 0.20377 0.0879 0.0
C1444 C 0.5285 0.22525 0.04923 0.0
C1445 C 0.50565 0.22659 0.04173 0.0
C1446 C 0.48903 0.21619 0.05718 0.0
C1447 C 0.49525 0.20504 0.08033 0.0
C1448 C 0.49978 0.23865 0.01732 0.0
C1449 C 0.49343 0.22576 -0.00459 0.0
C1450 C 0.50487 0.26198 0.0144 0.0
C1451 C 0.51099 0.27647 0.0372 0.0
C1452 C 0.49693 0.27726 0.05935 0.0
C1453 C 0.50285 0.29077 0.08084 0.0
C1454 C 0.52274 0.30367 0.08039 0.0
C1455 C 0.53678 0.30305 0.05847 0.0
C1456 C 0.53097 0.28954 0.03694 0.0
C1457 C 0.49763 0.27484 0.89534 0.0
C1458 C 0.51995 0.28244 0.89102 0.0
C1459 C 0.49099 0.2675 0.92021 0.0
C1460 C 0.5066 0.26761 0.94106 0.0
C1461 C 0.52859 0.27589 0.93689 0.0
C1462 C 0.53519 0.28321 0.91222 0.0
C1463 C 0.501 0.258 0.96702 0.0
C1464 C 0.50524 0.27139 -0.01074 0.0
C1465 C 0.49431 0.23506 0.97018 0.0
C1466 C 0.49027 0.21979 0.94759 0.0
C1467 C 0.50785 0.21477 0.92999 0.0
C1468 C 0.50386 0.2004 0.90867 0.0
C1469 C 0.48241 0.19077 0.9049 0.0
C1470 C 0.46494 0.19544 0.92251 0.0
C1471 C 0.46884 0.20984 0.94384 0.0
H1472 H 0.47935 0.17964 0.88839 0.0
H1473 H 0.52726 0.31419 0.09698 0.0
H1474 H 0.20017 0.56307 0.4091 0.0
H1475 H 0.22037 0.55287 0.44896 0.0
H1476 H 0.2186 0.4822 0.42672 0.0
H1477 H 0.19846 0.49226 0.38615 0.0
H1478 H 0.20708 0.49644 0.48425 0.0
H1479 H 0.26474 0.49996 0.4181 0.0
H1480 H 0.28353 0.51695 0.3798 0.0
H1481 H 0.29623 0.57805 0.42349 0.0
H1482 H 0.27723 0.56159 0.46191 0.0
H1483 H 0.28151 0.49101 0.59622 0.0
H1484 H 0.26637 0.48193 0.55266 0.0
H1485 H 0.27251 0.55242 0.53065 0.0
H1486 H 0.28799 0.56146 0.57344 0.0
H1487 H 0.28551 0.5265 0.49181 0.0
H1488 H 0.22164 0.52827 0.55218 0.0
H1489 H 0.20002 0.51524 0.59053 0.0
H1490 H 0.19702 0.44781 0.5584 0.0
H1491 H 0.21887 0.46042 0.51999 0.0
C1492 C 0.20378 0.5453 0.41267 0.0
C1493 C 0.1978 0.52849 0.39431 0.0
C1494 C 0.21538 0.53953 0.43547 0.0
C1495 C 0.22109 0.51686 0.44055 0.0
C1496 C 0.21433 0.49981 0.42299 0.0
C1497 C 0.20288 0.5056 0.39987 0.0
C1498 C 0.23503 0.51167 0.46383 0.0
C1499 C 0.22448 0.50234 0.48582 0.0
C1500 C 0.25754 0.51977 0.46577 0.0
C1501 C 0.26945 0.52956 0.44286 0.0
C1502 C 0.27142 0.51707 0.41949 0.0
C1503 C 0.28213 0.5266 0.39777 0.0
C1504 C 0.29102 0.54858 0.39921 0.0
C1505 C 0.28933 0.56103 0.42241 0.0
C1506 C 0.27864 0.55159 0.44418 0.0
C1507 C 0.27982 0.5045 0.58198 0.0
C1508 C 0.28585 0.52699 0.5884 0.0
C1509 C 0.27111 0.4993 0.55714 0.0
C1510 C 0.26814 0.51653 0.53845 0.0
C1511 C 0.27473 0.5388 0.54467 0.0
C1512 C 0.2835 0.54397 0.56928 0.0
C1513 C 0.2573 0.5121 0.5127 0.0
C1514 C 0.26845 0.51973 0.49016 0.0
C1515 C 0.23522 0.50274 0.51038 0.0
C1516 C 0.22213 0.49519 0.53344 0.0
C1517 C 0.21652 0.51062 0.55342 0.0
C1518 C 0.2042 0.50333 0.57514 0.0
C1519 C 0.19722 0.48069 0.57695 0.0
C1520 C 0.20249 0.46532 0.55701 0.0
C1521 C 0.21484 0.47253 0.53526 0.0
H1522 H 0.18768 0.47507 0.59378 0.0
H1523 H 0.29921 0.55598 0.38236 0.0
H1524 H 0.97766 0.25326 0.09599 0.0
H1525 H -0.0129 0.23707 0.0534 0.0
H1526 H 0.96546 0.29923 0.01594 0.0
H1527 H 0.95434 0.31458 0.05846 0.0
H1528 H 0.94523 0.26836 -0.00583 0.0
H1529 H 0.0232 0.27661 0.01442 0.0
H1530 H 0.05841 0.27425 0.04048 0.0
H1531 H 0.05364 0.20144 0.04104 0.0
H1532 H 0.01822 0.20335 0.0153 0.0
H1533 H -0.01068 0.20549 0.8743 0.0
H1534 H -0.0 0.22621 0.91419 0.0
H1535 H 0.94284 0.19702 0.95433 0.0
H1536 H 0.93193 0.17656 0.91477 0.0
H1537 H 0.00821 0.2169 0.96902 0.0
H1538 H 0.91302 0.24037 0.97883 0.0
H1539 H 0.87958 0.24536 0.95022 0.0
H1540 H 0.92302 0.26148 0.88568 0.0
H1541 H 0.95668 0.25697 0.914 0.0
C1542 C 0.97554 0.26362 0.07866 0.0
C1543 C 0.96519 0.28505 0.0803 0.0
C1544 C 0.98109 0.25444 0.05428 0.0
C1545 C 0.97709 0.26689 0.03125 0.0
C1546 C 0.96854 0.28915 0.0333 0.0
C1547 C 0.96227 0.29798 0.05756 0.0
C1548 C 0.97827 0.25557 0.00523 0.0
C1549 C 0.95926 0.25744 -0.01131 0.0
C1550 C -0.0034 0.24142 -0.00242 0.0
C1551 C 0.01795 0.24014 0.01302 0.0
C1552 C 0.02957 0.26009 0.02024 0.0
C1553 C 0.04958 0.25884 0.03494 0.0
C1554 C 0.05823 0.23772 0.04244 0.0
C1555 C 0.04691 0.2178 0.03521 0.0
C1556 C 0.02689 0.21895 0.02052 0.0
C1557 C 0.97938 0.20303 0.89184 0.0
C1558 C 0.95953 0.18974 0.89128 0.0
C1559 C 0.98556 0.21484 0.91459 0.0
C1560 C 0.97197 0.2134 0.93697 0.0
C1561 C 0.95336 0.19855 0.9371 0.0
C1562 C 0.94712 0.18692 0.91444 0.0
C1563 C 0.97502 0.22944 0.95901 0.0
C1564 C -0.00539 0.22831 0.97461 0.0
C1565 C 0.9576 0.24491 0.96553 0.0
C1566 C 0.93737 0.24815 0.94851 0.0
C1567 C 0.91542 0.24511 0.95858 0.0
C1568 C 0.89643 0.24784 0.9424 0.0
C1569 C 0.89918 0.25367 0.91613 0.0
C1570 C 0.92092 0.25689 0.90601 0.0
C1571 C 0.93995 0.25423 0.92211 0.0
H1572 H 0.88446 0.25574 0.90364 0.0
H1573 H 0.07373 0.23678 0.05383 0.0
H1574 H 0.2786 0.98433 0.3749 0.0
H1575 H 0.25898 -0.00559 0.41571 0.0
H1576 H 0.24453 0.9236 0.42928 0.0
H1577 H 0.26431 0.91335 0.38926 0.0
H1578 H 0.20566 0.95674 0.4316 0.0
H1579 H 0.28401 0.94284 0.46229 0.0
H1580 H 0.32491 0.95174 0.46307 0.0
H1581 H 0.31013 0.0204 0.48599 0.0
H1582 H 0.26909 0.01195 0.48499 0.0
H1583 H 0.18046 0.91492 0.55285 0.0
H1584 H 0.19469 0.92636 0.51048 0.0
H1585 H 0.21083 -0.00714 0.54103 0.0
H1586 H 0.19686 0.98128 0.58417 0.0
H1587 H 0.24571 0.97606 0.51423 0.0
H1588 H 0.16845 -0.01273 0.49551 0.0
H1589 H 0.12734 0.97962 0.4949 0.0
H1590 H 0.13838 0.91965 0.4487 0.0
H1591 H 0.1796 0.92672 0.44934 0.0
C1592 C 0.27137 0.97093 0.38673 0.0
C1593 C 0.27303 0.94804 0.37889 0.0
C1594 C 0.26019 0.97673 0.40994 0.0
C1595 C 0.25025 0.95972 0.42526 0.0
C1596 C 0.25203 0.93694 0.41756 0.0
C1597 C 0.26347 0.93112 0.39476 0.0
C1598 C 0.23771 0.96515 0.44939 0.0
C1599 C 0.21428 0.96111 0.44971 0.0
C1600 C 0.24891 0.97188 0.4726 0.0
C1601 C 0.27352 0.97687 0.47319 0.0
C1602 C 0.28948 0.9599 0.46722 0.0
C1603 C 0.31268 0.96484 0.46777 0.0
C1604 C 0.32011 0.98665 0.47447 0.0
C1605 C 0.30435 0.00354 0.48073 0.0
C1606 C 0.28113 -0.00132 0.48018 0.0
C1607 C 0.18676 0.93209 0.55064 0.0
C1608 C 0.18756 0.94716 0.57197 0.0
C1609 C 0.19475 0.93869 0.52625 0.0
C1610 C 0.20351 0.9606 0.52243 0.0
C1611 C 0.20399 0.97592 0.54352 0.0
C1612 C 0.19596 0.96929 0.5681 0.0
C1613 C 0.21372 0.96636 0.49683 0.0
C1614 C 0.23674 0.97252 0.49611 0.0
C1615 C 0.20203 0.9619 0.47313 0.0
C1616 C 0.17718 0.95754 0.47251 0.0
C1617 C 0.16215 0.97238 0.48533 0.0
C1618 C 0.13881 0.96815 0.48497 0.0
C1619 C 0.13026 0.94916 0.47178 0.0
C1620 C 0.14503 0.93438 0.45888 0.0
C1621 C 0.16839 0.93852 0.45919 0.0
H1622 H 0.11218 0.94591 0.47153 0.0
H1623 H 0.33808 -0.00956 0.47491 0.0
H1624 H 0.48812 0.77856 0.8785 0.0
H1625 H 0.49804 0.76041 0.92008 0.0
H1626 H 0.43318 0.78006 0.95172 0.0
H1627 H 0.42332 0.79849 0.9107 0.0
H1628 H 0.46566 0.78332 -0.01166 0.0
H1629 H 0.44114 0.72781 0.92257 0.0
H1630 H 0.44482 0.7088 0.87973 0.0
H1631 H 0.51233 0.68739 0.89985 0.0
H1632 H 0.50911 0.70652 0.9427 0.0
H1633 H 0.42761 0.67701 0.05519 0.0
H1634 H 0.438 0.69646 0.01495 0.0
H1635 H 0.49496 0.72761 0.05429 0.0
H1636 H 0.48463 0.70815 0.09487 0.0
H1637 H 0.47541 0.69964 0.98284 0.0
H1638 H 0.49442 0.78402 0.03393 0.0
H1639 H 0.48723 0.8035 0.07591 0.0
H1640 H 0.42486 0.76658 0.08445 0.0
H1641 H 0.43156 0.74715 0.04239 0.0
C1642 C 0.47615 0.77938 0.89449 0.0
C1643 C 0.45479 0.78973 0.89115 0.0
C1644 C 0.48184 0.76896 0.9182 0.0
C1645 C 0.46622 0.76862 0.93886 0.0
C1646 C 0.4455 0.7801 0.93605 0.0
C1647 C 0.43983 0.79053 0.91247 0.0
C1648 C 0.47018 0.75469 0.96255 0.0
C1649 C 0.46823 0.76508 -0.01284 0.0
C1650 C 0.47336 0.73086 0.96103 0.0
C1651 C 0.47499 0.71879 0.93566 0.0
C1652 C 0.45678 0.7191 0.9178 0.0
C1653 C 0.45878 0.70831 0.89354 0.0
C1654 C 0.47883 0.69698 0.88704 0.0
C1655 C 0.49684 0.69623 0.90489 0.0
C1656 C 0.49493 0.70703 0.92916 0.0
C1657 C 0.4426 0.68767 0.05522 0.0
C1658 C 0.45513 0.69128 0.07831 0.0
C1659 C 0.4486 0.69866 0.03214 0.0
C1660 C 0.46711 0.71362 0.03172 0.0
C1661 C 0.48053 0.71621 0.05428 0.0
C1662 C 0.47462 0.70506 0.07741 0.0
C1663 C 0.47047 0.72826 0.00855 0.0
C1664 C 0.4737 0.71798 0.98407 0.0
C1665 C 0.46805 0.75215 0.01013 0.0
C1666 C 0.46367 0.76394 0.03524 0.0
C1667 C 0.47917 0.78011 0.04478 0.0
C1668 C 0.47517 0.79114 0.06856 0.0
C1669 C 0.45564 0.78621 0.08289 0.0
C1670 C 0.44002 0.77032 0.07339 0.0
C1671 C 0.44392 0.75928 0.0496 0.0
H1672 H 0.4526 0.79474 0.10131 0.0
H1673 H 0.48044 0.68882 0.86817 0.0
H1674 H 0.79041 0.41972 0.55997 0.0
H1675 H 0.77615 0.43206 0.51777 0.0
H1676 H 0.76084 0.49821 0.54973 0.0
H1677 H 0.7749 0.48577 0.59263 0.0
H1678 H 0.7257 0.48221 0.52203 0.0
H1679 H 0.80301 0.49331 0.50466 0.0
H1680 H 0.8441 0.48549 0.50451 0.0
H1681 H 0.83302 0.42636 0.4568 0.0
H1682 H 0.79183 0.43359 0.45698 0.0
H1683 H 0.69327 0.48935 0.38122 0.0
H1684 H 0.71354 0.50062 0.42148 0.0
H1685 H 0.72571 0.43009 0.43933 0.0
H1686 H 0.70526 0.41871 0.40002 0.0
H1687 H 0.76584 0.46379 0.43957 0.0
H1688 H 0.68744 0.44935 0.47094 0.0
H1689 H 0.64655 0.45833 0.47123 0.0
H1690 H 0.66152 0.52757 0.49167 0.0
H1691 H 0.70255 0.51901 0.49115 0.0
C1692 C 0.78426 0.43699 0.5581 0.0
C1693 C 0.78378 0.45173 0.57975 0.0
C1694 C 0.77625 0.44411 0.53382 0.0
C1695 C 0.76777 0.4662 0.53044 0.0
C1696 C 0.76749 0.48115 0.55187 0.0
C1697 C 0.77556 0.47401 0.57633 0.0
C1698 C 0.75769 0.47257 0.50486 0.0
C1699 C 0.73471 0.47889 0.50397 0.0
C1700 C 0.76943 0.46849 0.48122 0.0
C1701 C 0.79426 0.46401 0.48087 0.0
C1702 C 0.8093 0.47856 0.49425 0.0
C1703 C 0.83263 0.47424 0.49414 0.0
C1704 C 0.84116 0.45544 0.48065 0.0
C1705 C 0.82638 0.44094 0.46721 0.0
C1706 C 0.80304 0.44518 0.46726 0.0
C1707 C 0.70018 0.4763 0.39386 0.0
C1708 C 0.6976 0.45314 0.38751 0.0
C1709 C 0.71173 0.48276 0.41674 0.0
C1710 C 0.72115 0.46613 0.43313 0.0
C1711 C 0.7186 0.44312 0.42679 0.0
C1712 C 0.70677 0.43667 0.40438 0.0
C1713 C 0.7338 0.47209 0.45713 0.0
C1714 C 0.75723 0.46806 0.45763 0.0
C1715 C 0.72259 0.47859 0.48029 0.0
C1716 C 0.698 0.48364 0.48063 0.0
C1717 C 0.682 0.46653 0.47522 0.0
C1718 C 0.65881 0.47153 0.47549 0.0
C1719 C 0.65144 0.49353 0.48136 0.0
C1720 C 0.66725 0.51056 0.48705 0.0
C1721 C 0.69047 0.50564 0.48677 0.0
H1722 H 0.63348 0.49737 0.48158 0.0
H1723 H 0.85922 0.45212 0.48061 0.0
H1724 H 0.98055 0.77122 0.09242 0.0
H1725 H 0.96887 0.7552 0.05008 0.0
H1726 H 0.03132 0.77882 0.0158 0.0
H1727 H 0.04284 0.79502 0.05746 0.0
H1728 H -0.00307 0.78446 0.9825 0.0
H1729 H 0.02546 0.72429 0.04 0.0
H1730 H 0.02439 0.70068 0.07979 0.0
H1731 H 0.95676 0.67905 0.06048 0.0
H1732 H 0.95737 0.70276 0.02071 0.0
H1733 H 0.05098 0.70731 0.90064 0.0
H1734 H 0.03733 0.72703 0.93942 0.0
H1735 H 0.96863 0.70762 0.92072 0.0
H1736 H 0.98213 0.68809 0.88106 0.0
H1737 H -0.00893 0.7004 0.97855 0.0
H1738 H 0.96922 0.75449 0.91328 0.0
H1739 H 0.97407 0.77734 0.87334 0.0
H1740 H 0.03236 0.80998 0.90725 0.0
H1741 H 0.02814 0.787 0.94719 0.0
C1742 C -0.00841 0.77329 0.07572 0.0
C1743 C 0.01274 0.78418 0.07838 0.0
C1744 C 0.98492 0.76408 0.05159 0.0
C1745 C -0.00068 0.76564 0.02985 0.0
C1746 C 0.01989 0.77745 0.03226 0.0
C1747 C 0.02654 0.78659 0.05621 0.0
C1748 C -0.00568 0.75366 0.00496 0.0
C1749 C -0.00467 0.76611 0.98162 0.0
C1750 C -0.00833 0.72975 0.00381 0.0
C1751 C -0.00866 0.71551 0.02763 0.0
C1752 C 0.01031 0.71462 0.04437 0.0
C1753 C 0.00979 0.70121 0.06688 0.0
C1754 C -0.00952 0.68844 0.07272 0.0
C1755 C 0.97167 0.689 0.05599 0.0
C1756 C 0.97209 0.70242 0.03346 0.0
C1757 C 0.03296 0.70708 0.90472 0.0
C1758 C 0.01763 0.6961 0.8878 0.0
C1759 C 0.0252 0.71844 0.92684 0.0
C1760 C 0.00202 0.71882 0.93273 0.0
C1761 C -0.01341 0.70751 0.91631 0.0
C1762 C -0.00568 0.69643 0.89375 0.0
C1763 C -0.00541 0.73118 0.9563 0.0
C1764 C -0.00849 0.71882 0.97939 0.0
C1765 C -0.00435 0.75515 0.95727 0.0
C1766 C -0.00159 0.76891 0.93319 0.0
C1767 C 0.98322 0.76635 0.91211 0.0
C1768 C 0.98584 0.77936 0.88949 0.0
C1769 C 0.00352 0.79509 0.88775 0.0
C1770 C 0.01867 0.79779 0.90861 0.0
C1771 C 0.01615 0.78479 0.93127 0.0
H1772 H 0.00542 0.80523 0.87028 0.0
H1773 H -0.00988 0.67806 0.09016 0.0
H1774 H 0.69413 -0.0104 0.58484 0.0
H1775 H 0.70998 0.98161 0.54151 0.0
H1776 H 0.70281 0.05238 0.52106 0.0
H1777 H 0.68656 0.06033 0.56364 0.0
H1778 H 0.69033 0.02705 0.48155 0.0
H1779 H 0.75415 0.02822 0.54245 0.0
H1780 H 0.77592 0.01481 0.58073 0.0
H1781 H 0.77955 0.9479 0.54729 0.0
H1782 H 0.75756 0.96088 0.50894 0.0
H1783 H 0.77415 0.06195 0.39618 0.0
H1784 H 0.75481 0.05288 0.43678 0.0
H1785 H 0.75631 0.98161 0.41721 0.0
H1786 H 0.77557 -0.00948 0.37592 0.0
H1787 H 0.76863 -0.00323 0.4738 0.0
H1788 H 0.71006 -0.00025 0.40834 0.0
H1789 H 0.69048 0.01607 0.37003 0.0
H1790 H 0.67849 0.07786 0.41261 0.0
H1791 H 0.69833 0.06205 0.45104 0.0
C1792 C 0.69577 0.00339 0.571 0.0
C1793 C 0.68914 0.02562 0.57776 0.0
C1794 C 0.70492 -0.00118 0.5463 0.0
C1795 C 0.70778 0.01644 0.52811 0.0
C1796 C 0.70069 0.03847 0.5347 0.0
C1797 C 0.69146 0.04301 0.55917 0.0
C1798 C 0.7187 0.01256 0.50239 0.0
C1799 C 0.7074 0.02032 0.47989 0.0
C1800 C 0.74076 0.0032 0.50003 0.0
C1801 C 0.75397 -0.00457 0.52303 0.0
C1802 C 0.75944 0.0106 0.54338 0.0
C1803 C 0.77185 0.00309 0.56506 0.0
C1804 C 0.77905 0.98049 0.56649 0.0
C1805 C 0.77392 0.96538 0.54619 0.0
C1806 C 0.76149 0.9728 0.52448 0.0
C1807 C 0.77064 0.04428 0.40049 0.0
C1808 C 0.77629 0.02696 0.38267 0.0
C1809 C 0.75956 0.03916 0.42372 0.0
C1810 C 0.75404 0.01663 0.42979 0.0
C1811 C 0.76046 -0.0009 0.41274 0.0
C1812 C 0.77138 0.00425 0.38919 0.0
C1813 C 0.74051 0.01206 0.45343 0.0
C1814 C 0.75129 0.00279 0.47543 0.0
C1815 C 0.71806 0.02027 0.45547 0.0
C1816 C 0.7058 0.02974 0.43253 0.0
C1817 C 0.70339 0.01688 0.40948 0.0
C1818 C 0.69222 0.02603 0.38775 0.0
C1819 C 0.68327 0.048 0.38888 0.0
C1820 C 0.68542 0.06085 0.41176 0.0
C1821 C 0.6966 0.05178 0.43354 0.0
H1822 H 0.67464 0.05506 0.37203 0.0
H1823 H 0.78865 0.97471 0.58329 0.0
loop_
_geom_bond_atom_site_label_1
_geom_bond_atom_site_label_2
_geom_bond_distance
_geom_bond_site_symmetry_2
_ccdc_geom_bond_type
C0 O1 1.306 . S
C0 O3 1.160 . S
O1 C0 1.306 . S
O1 Cd2 2.228 . S
Cd2 O1 2.228 . S
Cd2 O6 2.273 . S
Cd2 O10 2.277 . S
O3 C0 1.160 . S
O3 Cd4 2.203 . S
Cd4 O3 2.203 . S
Cd4 O6 2.411 . S
Cd4 O7 2.333 . S
Cd4 O8 2.352 . S
Cd4 O12 2.277 . S
Cd4 O13 2.356 . S
C5 O10 1.209 . S
C5 O12 1.226 . S
O6 Cd2 2.273 . S
O6 Cd4 2.411 . S
O6 C9 1.320 . S
O7 Cd4 2.333 . S
O7 C9 1.214 . S
O8 Cd4 2.352 . S
O8 C11 1.258 . S
C9 O6 1.320 . S
C9 O7 1.214 . S
O10 Cd2 2.277 . S
O10 C5 1.209 . S
C11 O8 1.258 . S
C11 O13 1.282 . S
O12 Cd4 2.277 . S
O12 C5 1.226 . S
O13 Cd4 2.356 . S
O13 C11 1.282 . S
C14 O15 1.306 . S
C14 O17 1.160 . S
O15 C14 1.306 . S
O15 Cd16 2.228 . S
Cd16 O15 2.228 . S
Cd16 O20 2.273 . S
Cd16 O24 2.277 . S
O17 C14 1.160 . S
O17 Cd18 2.203 . S
Cd18 O17 2.203 . S
Cd18 O20 2.411 . S
Cd18 O21 2.333 . S
Cd18 O22 2.352 . S
Cd18 O26 2.277 . S
Cd18 O27 2.356 . S
C19 O24 1.209 . S
C19 O26 1.226 . S
O20 Cd16 2.273 . S
O20 Cd18 2.411 . S
O20 C23 1.320 . S
O21 Cd18 2.333 . S
O21 C23 1.214 . S
O22 Cd18 2.352 . S
O22 C25 1.258 . S
C23 O20 1.320 . S
C23 O21 1.214 . S
O24 Cd16 2.277 . S
O24 C19 1.209 . S
C25 O22 1.258 . S
C25 O27 1.282 . S
O26 Cd18 2.277 . S
O26 C19 1.226 . S
O27 Cd18 2.356 . S
O27 C25 1.282 . S
C28 O29 1.306 . S
C28 O31 1.160 . S
O29 C28 1.306 . S
O29 Cd30 2.228 . S
Cd30 O29 2.228 . S
Cd30 O34 2.273 . S
Cd30 O38 2.277 . S
O31 C28 1.160 . S
O31 Cd32 2.203 . S
Cd32 O31 2.203 . S
Cd32 O34 2.411 . S
Cd32 O35 2.333 . S
Cd32 O36 2.352 1_655 S
Cd32 O40 2.277 . S
Cd32 O41 2.356 1_655 S
C33 O38 1.209 . S
C33 O40 1.226 . S
O34 Cd30 2.273 . S
O34 Cd32 2.411 . S
O34 C37 1.320 . S
O35 Cd32 2.333 . S
O35 C37 1.214 . S
O36 Cd32 2.352 1_455 S
O36 C39 1.258 . S
C37 O34 1.320 . S
C37 O35 1.214 . S
O38 Cd30 2.277 . S
O38 C33 1.209 . S
C39 O36 1.258 . S
C39 O41 1.282 . S
O40 Cd32 2.277 . S
O40 C33 1.226 . S
O41 Cd32 2.356 1_455 S
O41 C39 1.282 . S
C42 O43 1.306 . S
C42 O45 1.160 . S
O43 C42 1.306 . S
O43 Cd44 2.228 . S
Cd44 O43 2.228 . S
Cd44 O48 2.273 . S
Cd44 O52 2.277 . S
O45 C42 1.160 . S
O45 Cd46 2.203 . S
Cd46 O45 2.203 . S
Cd46 O48 2.411 . S
Cd46 O49 2.333 . S
Cd46 O50 2.352 1_565 S
Cd46 O54 2.277 . S
Cd46 O55 2.356 1_565 S
C47 O52 1.209 . S
C47 O54 1.226 . S
O48 Cd44 2.273 . S
O48 Cd46 2.411 . S
O48 C51 1.320 . S
O49 Cd46 2.333 . S
O49 C51 1.214 . S
O50 Cd46 2.352 1_545 S
O50 C53 1.258 . S
C51 O48 1.320 . S
C51 O49 1.214 . S
O52 Cd44 2.277 . S
O52 C47 1.209 . S
C53 O50 1.258 . S
C53 O55 1.282 . S
O54 Cd46 2.277 . S
O54 C47 1.226 . S
O55 Cd46 2.356 1_545 S
O55 C53 1.282 . S
C56 O57 1.306 . S
C56 O59 1.160 . S
O57 C56 1.306 . S
O57 Cd58 2.228 . S
Cd58 O57 2.228 . S
Cd58 O62 2.273 . S
Cd58 O66 2.277 . S
O59 C56 1.160 . S
O59 Cd60 2.203 . S
Cd60 O59 2.203 . S
Cd60 O62 2.411 . S
Cd60 O63 2.333 . S
Cd60 O64 2.352 . S
Cd60 O68 2.277 . S
Cd60 O69 2.356 . S
C61 O66 1.209 . S
C61 O68 1.226 . S
O62 Cd58 2.273 . S
O62 Cd60 2.411 . S
O62 C65 1.320 . S
O63 Cd60 2.333 . S
O63 C65 1.214 . S
O64 Cd60 2.352 . S
O64 C67 1.258 . S
C65 O62 1.320 . S
C65 O63 1.214 . S
O66 Cd58 2.277 . S
O66 C61 1.209 . S
C67 O64 1.258 . S
C67 O69 1.282 . S
O68 Cd60 2.277 . S
O68 C61 1.226 . S
O69 Cd60 2.356 . S
O69 C67 1.282 . S
C70 O71 1.306 . S
C70 O73 1.160 . S
O71 C70 1.306 . S
O71 Cd72 2.228 . S
Cd72 O71 2.228 . S
Cd72 O76 2.273 . S
Cd72 O80 2.277 . S
O73 C70 1.160 . S
O73 Cd74 2.203 . S
Cd74 O73 2.203 . S
Cd74 O76 2.411 . S
Cd74 O77 2.333 . S
Cd74 O78 2.352 . S
Cd74 O82 2.277 . S
Cd74 O83 2.356 . S
C75 O80 1.209 . S
C75 O82 1.226 . S
O76 Cd72 2.273 . S
O76 Cd74 2.411 . S
O76 C79 1.320 . S
O77 Cd74 2.333 . S
O77 C79 1.214 . S
O78 Cd74 2.352 . S
O78 C81 1.258 . S
C79 O76 1.320 . S
C79 O77 1.214 . S
O80 Cd72 2.277 . S
O80 C75 1.209 . S
C81 O78 1.258 . S
C81 O83 1.282 . S
O82 Cd74 2.277 . S
O82 C75 1.226 . S
O83 Cd74 2.356 . S
O83 C81 1.282 . S
C84 O85 1.306 . S
C84 O87 1.160 . S
O85 C84 1.306 . S
O85 Cd86 2.228 . S
Cd86 O85 2.228 . S
Cd86 O90 2.273 . S
Cd86 O94 2.277 . S
O87 C84 1.160 . S
O87 Cd88 2.203 . S
Cd88 O87 2.203 . S
Cd88 O90 2.411 . S
Cd88 O91 2.333 . S
Cd88 O92 2.352 1_655 S
Cd88 O96 2.277 . S
Cd88 O97 2.356 1_655 S
C89 O94 1.209 . S
C89 O96 1.226 . S
O90 Cd86 2.273 . S
O90 Cd88 2.411 . S
O90 C93 1.320 . S
O91 Cd88 2.333 . S
O91 C93 1.214 . S
O92 Cd88 2.352 1_455 S
O92 C95 1.258 . S
C93 O90 1.320 . S
C93 O91 1.214 . S
O94 Cd86 2.277 . S
O94 C89 1.209 . S
C95 O92 1.258 . S
C95 O97 1.282 . S
O96 Cd88 2.277 . S
O96 C89 1.226 . S
O97 Cd88 2.356 1_455 S
O97 C95 1.282 . S
C98 O99 1.306 . S
C98 O101 1.160 . S
O99 C98 1.306 . S
O99 Cd100 2.228 . S
Cd100 O99 2.228 . S
Cd100 O104 2.273 . S
Cd100 O108 2.277 . S
O101 C98 1.160 . S
O101 Cd102 2.203 . S
Cd102 O101 2.203 . S
Cd102 O104 2.411 . S
Cd102 O105 2.333 . S
Cd102 O106 2.352 1_565 S
Cd102 O110 2.277 . S
Cd102 O111 2.356 1_565 S
C103 O108 1.209 . S
C103 O110 1.226 . S
O104 Cd100 2.273 . S
O104 Cd102 2.411 . S
O104 C107 1.320 . S
O105 Cd102 2.333 . S
O105 C107 1.214 . S
O106 Cd102 2.352 1_545 S
O106 C109 1.258 . S
C107 O104 1.320 . S
C107 O105 1.214 . S
O108 Cd100 2.277 . S
O108 C103 1.209 . S
C109 O106 1.258 . S
C109 O111 1.282 . S
O110 Cd102 2.277 . S
O110 C103 1.226 . S
O111 Cd102 2.356 1_545 S
O111 C109 1.282 . S
C112 O113 1.306 . S
C112 O115 1.160 . S
O113 C112 1.306 . S
O113 Cd114 2.228 . S
Cd114 O113 2.228 . S
Cd114 O118 2.273 . S
Cd114 O122 2.277 . S
O115 C112 1.160 . S
O115 Cd116 2.203 . S
Cd116 O115 2.203 . S
Cd116 O118 2.411 . S
Cd116 O119 2.333 . S
Cd116 O120 2.352 . S
Cd116 O124 2.277 . S
Cd116 O125 2.356 . S
C117 O122 1.209 . S
C117 O124 1.226 . S
O118 Cd114 2.273 . S
O118 Cd116 2.411 . S
O118 C121 1.320 . S
O119 Cd116 2.333 . S
O119 C121 1.214 . S
O120 Cd116 2.352 . S
O120 C123 1.258 . S
C121 O118 1.320 . S
C121 O119 1.214 . S
O122 Cd114 2.277 . S
O122 C117 1.209 . S
C123 O120 1.258 . S
C123 O125 1.282 . S
O124 Cd116 2.277 . S
O124 C117 1.226 . S
O125 Cd116 2.356 . S
O125 C123 1.282 . S
C126 O127 1.306 . S
C126 O129 1.160 . S
O127 C126 1.306 . S
O127 Cd128 2.228 . S
Cd128 O127 2.228 . S
Cd128 O132 2.273 . S
Cd128 O136 2.277 . S
O129 C126 1.160 . S
O129 Cd130 2.203 . S
Cd130 O129 2.203 . S
Cd130 O132 2.411 . S
Cd130 O133 2.333 . S
Cd130 O134 2.352 . S
Cd130 O138 2.277 . S
Cd130 O139 2.356 . S
C131 O136 1.209 . S
C131 O138 1.226 . S
O132 Cd128 2.273 . S
O132 Cd130 2.411 . S
O132 C135 1.320 . S
O133 Cd130 2.333 . S
O133 C135 1.214 . S
O134 Cd130 2.352 . S
O134 C137 1.258 . S
C135 O132 1.320 . S
C135 O133 1.214 . S
O136 Cd128 2.277 . S
O136 C131 1.209 . S
C137 O134 1.258 . S
C137 O139 1.282 . S
O138 Cd130 2.277 . S
O138 C131 1.226 . S
O139 Cd130 2.356 . S
O139 C137 1.282 . S
C140 O141 1.306 . S
C140 O143 1.160 . S
O141 C140 1.306 . S
O141 Cd142 2.228 . S
Cd142 O141 2.228 . S
Cd142 O146 2.273 . S
Cd142 O150 2.277 . S
O143 C140 1.160 . S
O143 Cd144 2.203 . S
Cd144 O143 2.203 . S
Cd144 O146 2.411 . S
Cd144 O147 2.333 . S
Cd144 O148 2.352 1_455 S
Cd144 O152 2.277 . S
Cd144 O153 2.356 1_455 S
C145 O150 1.209 . S
C145 O152 1.226 . S
O146 Cd142 2.273 . S
O146 Cd144 2.411 . S
O146 C149 1.320 . S
O147 Cd144 2.333 . S
O147 C149 1.214 . S
O148 Cd144 2.352 1_655 S
O148 C151 1.258 . S
C149 O146 1.320 . S
C149 O147 1.214 . S
O150 Cd142 2.277 . S
O150 C145 1.209 . S
C151 O148 1.258 . S
C151 O153 1.282 . S
O152 Cd144 2.277 . S
O152 C145 1.226 . S
O153 Cd144 2.356 1_655 S
O153 C151 1.282 . S
C154 O155 1.306 . S
C154 O157 1.160 . S
O155 C154 1.306 . S
O155 Cd156 2.228 . S
Cd156 O155 2.228 . S
Cd156 O160 2.273 . S
Cd156 O164 2.277 . S
O157 C154 1.160 . S
O157 Cd158 2.203 . S
Cd158 O157 2.203 . S
Cd158 O160 2.411 . S
Cd158 O161 2.333 . S
Cd158 O162 2.352 1_545 S
Cd158 O166 2.277 . S
Cd158 O167 2.356 1_545 S
C159 O164 1.209 . S
C159 O166 1.226 . S
O160 Cd156 2.273 . S
O160 Cd158 2.411 . S
O160 C163 1.320 . S
O161 Cd158 2.333 . S
O161 C163 1.214 . S
O162 Cd158 2.352 1_565 S
O162 C165 1.258 . S
C163 O160 1.320 . S
C163 O161 1.214 . S
O164 Cd156 2.277 . S
O164 C159 1.209 . S
C165 O162 1.258 . S
C165 O167 1.282 . S
O166 Cd158 2.277 . S
O166 C159 1.226 . S
O167 Cd158 2.356 1_565 S
O167 C165 1.282 . S
C168 O169 1.306 . S
C168 O171 1.160 . S
O169 C168 1.306 . S
O169 Cd170 2.228 . S
Cd170 O169 2.228 . S
Cd170 O174 2.273 . S
Cd170 O178 2.277 . S
O171 C168 1.160 . S
O171 Cd172 2.203 . S
Cd172 O171 2.203 . S
Cd172 O174 2.411 . S
Cd172 O175 2.333 . S
Cd172 O176 2.352 . S
Cd172 O180 2.277 . S
Cd172 O181 2.356 . S
C173 O178 1.209 . S
C173 O180 1.226 . S
O174 Cd170 2.273 . S
O174 Cd172 2.411 . S
O174 C177 1.320 . S
O175 Cd172 2.333 . S
O175 C177 1.214 . S
O176 Cd172 2.352 . S
O176 C179 1.258 . S
C177 O174 1.320 . S
C177 O175 1.214 . S
O178 Cd170 2.277 . S
O178 C173 1.209 . S
C179 O176 1.258 . S
C179 O181 1.282 . S
O180 Cd172 2.277 . S
O180 C173 1.226 . S
O181 Cd172 2.356 . S
O181 C179 1.282 . S
C182 O183 1.306 . S
C182 O185 1.160 . S
O183 C182 1.306 . S
O183 Cd184 2.228 . S
Cd184 O183 2.228 . S
Cd184 O188 2.273 . S
Cd184 O192 2.277 . S
O185 C182 1.160 . S
O185 Cd186 2.203 . S
Cd186 O185 2.203 . S
Cd186 O188 2.411 . S
Cd186 O189 2.333 . S
Cd186 O190 2.352 . S
Cd186 O194 2.277 . S
Cd186 O195 2.356 . S
C187 O192 1.209 . S
C187 O194 1.226 . S
O188 Cd184 2.273 . S
O188 Cd186 2.411 . S
O188 C191 1.320 . S
O189 Cd186 2.333 . S
O189 C191 1.214 . S
O190 Cd186 2.352 . S
O190 C193 1.258 . S
C191 O188 1.320 . S
C191 O189 1.214 . S
O192 Cd184 2.277 . S
O192 C187 1.209 . S
C193 O190 1.258 . S
C193 O195 1.282 . S
O194 Cd186 2.277 . S
O194 C187 1.226 . S
O195 Cd186 2.356 . S
O195 C193 1.282 . S
C196 O197 1.306 . S
C196 O199 1.160 . S
O197 C196 1.306 . S
O197 Cd198 2.228 . S
Cd198 O197 2.228 . S
Cd198 O202 2.273 . S
Cd198 O206 2.277 . S
O199 C196 1.160 . S
O199 Cd200 2.203 . S
Cd200 O199 2.203 . S
Cd200 O202 2.411 . S
Cd200 O203 2.333 . S
Cd200 O204 2.352 1_455 S
Cd200 O208 2.277 . S
Cd200 O209 2.356 1_455 S
C201 O206 1.209 . S
C201 O208 1.226 . S
O202 Cd198 2.273 . S
O202 Cd200 2.411 . S
O202 C205 1.320 . S
O203 Cd200 2.333 . S
O203 C205 1.214 . S
O204 Cd200 2.352 1_655 S
O204 C207 1.258 . S
C205 O202 1.320 . S
C205 O203 1.214 . S
O206 Cd198 2.277 . S
O206 C201 1.209 . S
C207 O204 1.258 . S
C207 O209 1.282 . S
O208 Cd200 2.277 . S
O208 C201 1.226 . S
O209 Cd200 2.356 1_655 S
O209 C207 1.282 . S
C210 O211 1.306 . S
C210 O213 1.160 . S
O211 C210 1.306 . S
O211 Cd212 2.228 . S
Cd212 O211 2.228 . S
Cd212 O216 2.273 . S
Cd212 O220 2.277 . S
O213 C210 1.160 . S
O213 Cd214 2.203 . S
Cd214 O213 2.203 . S
Cd214 O216 2.411 . S
Cd214 O217 2.333 . S
Cd214 O218 2.352 1_545 S
Cd214 O222 2.277 . S
Cd214 O223 2.356 1_545 S
C215 O220 1.209 . S
C215 O222 1.226 . S
O216 Cd212 2.273 . S
O216 Cd214 2.411 . S
O216 C219 1.320 . S
O217 Cd214 2.333 . S
O217 C219 1.214 . S
O218 Cd214 2.352 1_565 S
O218 C221 1.258 . S
C219 O216 1.320 . S
C219 O217 1.214 . S
O220 Cd212 2.277 . S
O220 C215 1.209 . S
C221 O218 1.258 . S
C221 O223 1.282 . S
O222 Cd214 2.277 . S
O222 C215 1.226 . S
O223 Cd214 2.356 1_565 S
O223 C221 1.282 . S
H224 C242 0.951 . S
H225 C244 0.951 . S
H226 C246 0.950 . S
H227 C247 0.950 . S
H228 C249 0.950 . S
H229 C252 0.950 . S
H230 C253 0.950 . S
H231 C255 0.950 . S
H232 C256 0.950 . S
H233 C257 0.951 . S
H234 C259 0.951 . S
H235 C261 0.950 . S
H236 C262 0.950 . S
H237 C264 0.950 . S
H238 C267 0.950 . S
H239 C268 0.950 . S
H240 C270 0.950 . S
H241 C271 0.950 . S
C242 H224 0.951 . S
C242 C243 1.366 . S
C242 C244 1.388 . S
C243 C242 1.366 . S
C243 C247 1.385 . S
C244 H225 0.951 . S
C244 C242 1.388 . S
C244 C245 1.366 . S
C245 C244 1.366 . S
C245 C246 1.414 . S
C245 C248 1.499 . S
C246 H226 0.950 . S
C246 C245 1.414 . S
C246 C247 1.374 . S
C247 H227 0.950 . S
C247 C243 1.385 . S
C247 C246 1.374 . S
C248 C245 1.499 . S
C248 C249 1.373 . S
C248 C250 1.389 . S
C249 H228 0.950 . S
C249 C248 1.373 . S
C249 C265 1.377 . S
C250 C248 1.389 . S
C250 C251 1.524 . S
C250 C264 1.377 . S
C251 C250 1.524 . S
C251 C252 1.397 . S
C251 C256 1.363 . S
C252 H229 0.950 . S
C252 C251 1.397 . S
C252 C253 1.334 . S
C253 H230 0.950 . S
C253 C252 1.334 . S
C253 C254 1.287 . S
C254 C253 1.287 . S
C254 C255 1.524 . S
C254 H273 0.913 . S
C255 H231 0.950 . S
C255 C254 1.524 . S
C255 C256 1.415 . S
C256 H232 0.950 . S
C256 C251 1.363 . S
C256 C255 1.415 . S
C257 H233 0.951 . S
C257 C258 1.366 . S
C257 C259 1.388 . S
C258 C257 1.366 . S
C258 C262 1.385 . S
C259 H234 0.951 . S
C259 C257 1.388 . S
C259 C260 1.366 . S
C260 C259 1.366 . S
C260 C261 1.414 . S
C260 C263 1.499 . S
C261 H235 0.950 . S
C261 C260 1.414 . S
C261 C262 1.374 . S
C262 H236 0.950 . S
C262 C258 1.385 . S
C262 C261 1.374 . S
C263 C260 1.499 . S
C263 C264 1.373 . S
C263 C265 1.389 . S
C264 H237 0.950 . S
C264 C250 1.377 . S
C264 C263 1.373 . S
C265 C249 1.377 . S
C265 C263 1.389 . S
C265 C266 1.524 . S
C266 C265 1.524 . S
C266 C267 1.397 . S
C266 C271 1.363 . S
C267 H238 0.950 . S
C267 C266 1.397 . S
C267 C268 1.334 . S
C268 H239 0.950 . S
C268 C267 1.334 . S
C268 C269 1.287 . S
C269 C268 1.287 . S
C269 C270 1.524 . S
C269 H272 0.999 . S
C270 H240 0.950 . S
C270 C269 1.524 . S
C270 C271 1.415 . S
C271 H241 0.950 . S
C271 C266 1.363 . S
C271 C270 1.415 . S
H272 C269 0.999 . S
H273 C254 0.913 . S
H274 C292 0.951 . S
H275 C294 0.951 . S
H276 C296 0.950 . S
H277 C297 0.950 . S
H278 C299 0.950 . S
H279 C302 0.950 . S
H280 C303 0.950 . S
H281 C305 0.950 . S
H282 C306 0.950 . S
H283 C307 0.951 . S
H284 C309 0.951 . S
H285 C311 0.950 . S
H286 C312 0.950 . S
H287 C314 0.950 . S
H288 C317 0.950 . S
H289 C318 0.950 . S
H290 C320 0.950 . S
H291 C321 0.950 . S
C292 H274 0.951 . S
C292 C293 1.366 . S
C292 C294 1.388 . S
C293 C292 1.366 . S
C293 C297 1.385 . S
C294 H275 0.951 . S
C294 C292 1.388 . S
C294 C295 1.366 . S
C295 C294 1.366 . S
C295 C296 1.414 . S
C295 C298 1.499 . S
C296 H276 0.950 . S
C296 C295 1.414 . S
C296 C297 1.374 . S
C297 H277 0.950 . S
C297 C293 1.385 . S
C297 C296 1.374 . S
C298 C295 1.499 . S
C298 C299 1.373 . S
C298 C300 1.389 . S
C299 H278 0.950 . S
C299 C298 1.373 . S
C299 C315 1.377 . S
C300 C298 1.389 . S
C300 C301 1.524 . S
C300 C314 1.377 . S
C301 C300 1.524 . S
C301 C302 1.397 . S
C301 C306 1.363 . S
C302 H279 0.950 . S
C302 C301 1.397 . S
C302 C303 1.334 . S
C303 H280 0.950 . S
C303 C302 1.334 . S
C303 C304 1.287 . S
C304 C303 1.287 . S
C304 C305 1.524 . S
C304 H323 0.913 . S
C305 H281 0.950 . S
C305 C304 1.524 . S
C305 C306 1.415 . S
C306 H282 0.950 . S
C306 C301 1.363 . S
C306 C305 1.415 . S
C307 H283 0.951 . S
C307 C308 1.366 . S
C307 C309 1.388 . S
C308 C307 1.366 . S
C308 C312 1.385 . S
C309 H284 0.951 . S
C309 C307 1.388 . S
C309 C310 1.366 . S
C310 C309 1.366 . S
C310 C311 1.414 . S
C310 C313 1.499 . S
C311 H285 0.950 . S
C311 C310 1.414 . S
C311 C312 1.374 . S
C312 H286 0.950 . S
C312 C308 1.385 . S
C312 C311 1.374 . S
C313 C310 1.499 . S
C313 C314 1.373 . S
C313 C315 1.389 . S
C314 H287 0.950 . S
C314 C300 1.377 . S
C314 C313 1.373 . S
C315 C299 1.377 . S
C315 C313 1.389 . S
C315 C316 1.524 . S
C316 C315 1.524 . S
C316 C317 1.397 . S
C316 C321 1.363 . S
C317 H288 0.950 . S
C317 C316 1.397 . S
C317 C318 1.334 . S
C318 H289 0.950 . S
C318 C317 1.334 . S
C318 C319 1.287 . S
C319 C318 1.287 . S
C319 C320 1.524 . S
C319 H322 0.999 . S
C320 H290 0.950 . S
C320 C319 1.524 . S
C320 C321 1.415 . S
C321 H291 0.950 . S
C321 C316 1.363 . S
C321 C320 1.415 . S
H322 C319 0.999 . S
H323 C304 0.913 . S
H324 C342 0.951 . S
H325 C344 0.951 . S
H326 C346 0.950 . S
H327 C347 0.950 . S
H328 C349 0.950 . S
H329 C352 0.950 . S
H330 C353 0.950 . S
H331 C355 0.950 . S
H332 C356 0.950 . S
H333 C357 0.951 . S
H334 C359 0.951 . S
H335 C361 0.950 . S
H336 C362 0.950 . S
H337 C364 0.950 . S
H338 C367 0.950 . S
H339 C368 0.950 . S
H340 C370 0.950 . S
H341 C371 0.950 . S
C342 H324 0.951 . S
C342 C343 1.366 . S
C342 C344 1.388 . S
C343 C342 1.366 . S
C343 C347 1.385 . S
C344 H325 0.951 . S
C344 C342 1.388 . S
C344 C345 1.366 . S
C345 C344 1.366 . S
C345 C346 1.414 . S
C345 C348 1.499 . S
C346 H326 0.950 . S
C346 C345 1.414 . S
C346 C347 1.374 . S
C347 H327 0.950 . S
C347 C343 1.385 . S
C347 C346 1.374 . S
C348 C345 1.499 . S
C348 C349 1.373 . S
C348 C350 1.389 . S
C349 H328 0.950 . S
C349 C348 1.373 . S
C349 C365 1.377 . S
C350 C348 1.389 . S
C350 C351 1.524 . S
C350 C364 1.377 . S
C351 C350 1.524 . S
C351 C352 1.397 . S
C351 C356 1.363 . S
C352 H329 0.950 . S
C352 C351 1.397 . S
C352 C353 1.334 . S
C353 H330 0.950 . S
C353 C352 1.334 . S
C353 C354 1.287 . S
C354 C353 1.287 . S
C354 C355 1.524 . S
C354 H373 0.913 . S
C355 H331 0.950 . S
C355 C354 1.524 . S
C355 C356 1.415 . S
C356 H332 0.950 . S
C356 C351 1.363 . S
C356 C355 1.415 . S
C357 H333 0.951 . S
C357 C358 1.366 . S
C357 C359 1.388 . S
C358 C357 1.366 . S
C358 C362 1.385 . S
C359 H334 0.951 . S
C359 C357 1.388 . S
C359 C360 1.366 . S
C360 C359 1.366 . S
C360 C361 1.414 . S
C360 C363 1.499 . S
C361 H335 0.950 . S
C361 C360 1.414 . S
C361 C362 1.374 . S
C362 H336 0.950 . S
C362 C358 1.385 . S
C362 C361 1.374 . S
C363 C360 1.499 . S
C363 C364 1.373 . S
C363 C365 1.389 . S
C364 H337 0.950 . S
C364 C350 1.377 . S
C364 C363 1.373 . S
C365 C349 1.377 . S
C365 C363 1.389 . S
C365 C366 1.524 . S
C366 C365 1.524 . S
C366 C367 1.397 . S
C366 C371 1.363 . S
C367 H338 0.950 . S
C367 C366 1.397 . S
C367 C368 1.334 . S
C368 H339 0.950 . S
C368 C367 1.334 . S
C368 C369 1.287 . S
C369 C368 1.287 . S
C369 C370 1.524 . S
C369 H372 0.999 . S
C370 H340 0.950 . S
C370 C369 1.524 . S
C370 C371 1.415 . S
C371 H341 0.950 . S
C371 C366 1.363 . S
C371 C370 1.415 . S
H372 C369 0.999 . S
H373 C354 0.913 . S
H374 C392 0.951 . S
H375 C394 0.951 . S
H376 C396 0.950 . S
H377 C397 0.950 . S
H378 C399 0.950 . S
H379 C402 0.950 . S
H380 C403 0.950 . S
H381 C405 0.950 . S
H382 C406 0.950 . S
H383 C407 0.951 . S
H384 C409 0.951 . S
H385 C411 0.950 . S
H386 C412 0.950 . S
H387 C414 0.950 . S
H388 C417 0.950 . S
H389 C418 0.950 . S
H390 C420 0.950 . S
H391 C421 0.950 . S
C392 H374 0.951 . S
C392 C393 1.366 . S
C392 C394 1.388 . S
C393 C392 1.366 . S
C393 C397 1.385 . S
C394 H375 0.951 . S
C394 C392 1.388 . S
C394 C395 1.366 . S
C395 C394 1.366 . S
C395 C396 1.414 . S
C395 C398 1.499 . S
C396 H376 0.950 . S
C396 C395 1.414 . S
C396 C397 1.374 . S
C397 H377 0.950 . S
C397 C393 1.385 . S
C397 C396 1.374 . S
C398 C395 1.499 . S
C398 C399 1.373 . S
C398 C400 1.389 . S
C399 H378 0.950 . S
C399 C398 1.373 . S
C399 C415 1.377 . S
C400 C398 1.389 . S
C400 C401 1.524 . S
C400 C414 1.377 . S
C401 C400 1.524 . S
C401 C402 1.397 . S
C401 C406 1.363 . S
C402 H379 0.950 . S
C402 C401 1.397 . S
C402 C403 1.334 . S
C403 H380 0.950 . S
C403 C402 1.334 . S
C403 C404 1.287 . S
C404 C403 1.287 . S
C404 C405 1.524 . S
C404 H423 0.913 . S
C405 H381 0.950 . S
C405 C404 1.524 . S
C405 C406 1.415 . S
C406 H382 0.950 . S
C406 C401 1.363 . S
C406 C405 1.415 . S
C407 H383 0.951 . S
C407 C408 1.366 . S
C407 C409 1.388 . S
C408 C407 1.366 . S
C408 C412 1.385 . S
C409 H384 0.951 . S
C409 C407 1.388 . S
C409 C410 1.366 . S
C410 C409 1.366 . S
C410 C411 1.414 . S
C410 C413 1.499 . S
C411 H385 0.950 . S
C411 C410 1.414 . S
C411 C412 1.374 . S
C412 H386 0.950 . S
C412 C408 1.385 . S
C412 C411 1.374 . S
C413 C410 1.499 . S
C413 C414 1.373 . S
C413 C415 1.389 . S
C414 H387 0.950 . S
C414 C400 1.377 . S
C414 C413 1.373 . S
C415 C399 1.377 . S
C415 C413 1.389 . S
C415 C416 1.524 . S
C416 C415 1.524 . S
C416 C417 1.397 . S
C416 C421 1.363 . S
C417 H388 0.950 . S
C417 C416 1.397 . S
C417 C418 1.334 . S
C418 H389 0.950 . S
C418 C417 1.334 . S
C418 C419 1.287 . S
C419 C418 1.287 . S
C419 C420 1.524 . S
C419 H422 0.999 . S
C420 H390 0.950 . S
C420 C419 1.524 . S
C420 C421 1.415 . S
C421 H391 0.950 . S
C421 C416 1.363 . S
C421 C420 1.415 . S
H422 C419 0.999 . S
H423 C404 0.913 . S
H424 C442 0.951 . S
H425 C444 0.951 . S
H426 C446 0.950 . S
H427 C447 0.950 . S
H428 C449 0.950 . S
H429 C452 0.950 . S
H430 C453 0.950 . S
H431 C455 0.950 . S
H432 C456 0.950 . S
H433 C457 0.951 . S
H434 C459 0.951 . S
H435 C461 0.950 . S
H436 C462 0.950 . S
H437 C464 0.950 . S
H438 C467 0.950 . S
H439 C468 0.950 . S
H440 C470 0.950 . S
H441 C471 0.950 . S
C442 H424 0.951 . S
C442 C443 1.366 . S
C442 C444 1.388 . S
C443 C442 1.366 . S
C443 C447 1.385 . S
C444 H425 0.951 . S
C444 C442 1.388 . S
C444 C445 1.366 . S
C445 C444 1.366 . S
C445 C446 1.414 . S
C445 C448 1.499 . S
C446 H426 0.950 . S
C446 C445 1.414 . S
C446 C447 1.374 . S
C447 H427 0.950 . S
C447 C443 1.385 . S
C447 C446 1.374 . S
C448 C445 1.499 . S
C448 C449 1.373 . S
C448 C450 1.389 . S
C449 H428 0.950 . S
C449 C448 1.373 . S
C449 C465 1.377 . S
C450 C448 1.389 . S
C450 C451 1.524 . S
C450 C464 1.377 . S
C451 C450 1.524 . S
C451 C452 1.397 . S
C451 C456 1.363 . S
C452 H429 0.950 . S
C452 C451 1.397 . S
C452 C453 1.334 . S
C453 H430 0.950 . S
C453 C452 1.334 . S
C453 C454 1.287 . S
C454 C453 1.287 . S
C454 C455 1.524 . S
C454 H473 0.913 . S
C455 H431 0.950 . S
C455 C454 1.524 . S
C455 C456 1.415 . S
C456 H432 0.950 . S
C456 C451 1.363 . S
C456 C455 1.415 . S
C457 H433 0.951 . S
C457 C458 1.366 . S
C457 C459 1.388 . S
C458 C457 1.366 . S
C458 C462 1.385 . S
C459 H434 0.951 . S
C459 C457 1.388 . S
C459 C460 1.366 . S
C460 C459 1.366 . S
C460 C461 1.414 . S
C460 C463 1.499 . S
C461 H435 0.950 . S
C461 C460 1.414 . S
C461 C462 1.374 . S
C462 H436 0.950 . S
C462 C458 1.385 . S
C462 C461 1.374 . S
C463 C460 1.499 . S
C463 C464 1.373 . S
C463 C465 1.389 . S
C464 H437 0.950 . S
C464 C450 1.377 . S
C464 C463 1.373 . S
C465 C449 1.377 . S
C465 C463 1.389 . S
C465 C466 1.524 . S
C466 C465 1.524 . S
C466 C467 1.397 . S
C466 C471 1.363 . S
C467 H438 0.950 . S
C467 C466 1.397 . S
C467 C468 1.334 . S
C468 H439 0.950 . S
C468 C467 1.334 . S
C468 C469 1.287 . S
C469 C468 1.287 . S
C469 C470 1.524 . S
C469 H472 0.961 1_565 S
C470 H440 0.950 . S
C470 C469 1.524 . S
C470 C471 1.415 . S
C471 H441 0.950 . S
C471 C466 1.363 . S
C471 C470 1.415 . S
H472 C469 0.961 1_545 S
H473 C454 0.913 . S
H474 C492 0.951 . S
H475 C494 0.951 . S
H476 C496 0.950 . S
H477 C497 0.950 . S
H478 C499 0.950 . S
H479 C502 0.950 . S
H480 C503 0.950 . S
H481 C505 0.950 . S
H482 C506 0.950 . S
H483 C507 0.951 . S
H484 C509 0.951 . S
H485 C511 0.950 . S
H486 C512 0.950 . S
H487 C514 0.950 . S
H488 C517 0.950 . S
H489 C518 0.950 . S
H490 C520 0.950 . S
H491 C521 0.950 . S
C492 H474 0.951 . S
C492 C493 1.366 . S
C492 C494 1.388 . S
C493 C492 1.366 . S
C493 C497 1.385 . S
C494 H475 0.951 . S
C494 C492 1.388 . S
C494 C495 1.366 . S
C495 C494 1.366 . S
C495 C496 1.414 . S
C495 C498 1.499 . S
C496 H476 0.950 . S
C496 C495 1.414 . S
C496 C497 1.374 . S
C497 H477 0.950 . S
C497 C493 1.385 . S
C497 C496 1.374 . S
C498 C495 1.499 . S
C498 C499 1.373 . S
C498 C500 1.389 . S
C499 H478 0.950 . S
C499 C498 1.373 . S
C499 C515 1.377 . S
C500 C498 1.389 . S
C500 C501 1.524 . S
C500 C514 1.377 . S
C501 C500 1.524 . S
C501 C502 1.397 . S
C501 C506 1.363 . S
C502 H479 0.950 . S
C502 C501 1.397 . S
C502 C503 1.334 . S
C503 H480 0.950 . S
C503 C502 1.334 . S
C503 C504 1.287 . S
C504 C503 1.287 . S
C504 C505 1.524 . S
C504 H523 0.913 . S
C505 H481 0.950 . S
C505 C504 1.524 . S
C505 C506 1.415 . S
C506 H482 0.950 . S
C506 C501 1.363 . S
C506 C505 1.415 . S
C507 H483 0.951 . S
C507 C508 1.366 . S
C507 C509 1.388 . S
C508 C507 1.366 . S
C508 C512 1.385 . S
C509 H484 0.951 . S
C509 C507 1.388 . S
C509 C510 1.366 . S
C510 C509 1.366 . S
C510 C511 1.414 . S
C510 C513 1.499 . S
C511 H485 0.950 . S
C511 C510 1.414 . S
C511 C512 1.374 . S
C512 H486 0.950 . S
C512 C508 1.385 . S
C512 C511 1.374 . S
C513 C510 1.499 . S
C513 C514 1.373 . S
C513 C515 1.389 . S
C514 H487 0.950 . S
C514 C500 1.377 . S
C514 C513 1.373 . S
C515 C499 1.377 . S
C515 C513 1.389 . S
C515 C516 1.524 . S
C516 C515 1.524 . S
C516 C517 1.397 . S
C516 C521 1.363 . S
C517 H488 0.950 . S
C517 C516 1.397 . S
C517 C518 1.334 . S
C518 H489 0.950 . S
C518 C517 1.334 . S
C518 C519 1.287 . S
C519 C518 1.287 . S
C519 C520 1.524 . S
C519 H522 0.999 . S
C520 H490 0.950 . S
C520 C519 1.524 . S
C520 C521 1.415 . S
C521 H491 0.950 . S
C521 C516 1.363 . S
C521 C520 1.415 . S
H522 C519 0.999 . S
H523 C504 0.913 . S
H524 C542 0.951 . S
H525 C544 0.951 . S
H526 C546 0.950 . S
H527 C547 0.950 . S
H528 C549 0.950 . S
H529 C552 0.950 . S
H530 C553 0.950 . S
H531 C555 0.950 . S
H532 C556 0.950 . S
H533 C557 0.951 . S
H534 C559 0.951 . S
H535 C561 0.950 . S
H536 C562 0.950 . S
H537 C564 0.950 . S
H538 C567 0.950 . S
H539 C568 0.950 . S
H540 C570 0.950 . S
H541 C571 0.950 . S
C542 H524 0.951 . S
C542 C543 1.366 . S
C542 C544 1.388 . S
C543 C542 1.366 . S
C543 C547 1.385 . S
C544 H525 0.951 . S
C544 C542 1.388 . S
C544 C545 1.366 . S
C545 C544 1.366 . S
C545 C546 1.414 . S
C545 C548 1.499 . S
C546 H526 0.950 . S
C546 C545 1.414 . S
C546 C547 1.374 . S
C547 H527 0.950 . S
C547 C543 1.385 . S
C547 C546 1.374 . S
C548 C545 1.499 . S
C548 C549 1.373 . S
C548 C550 1.389 . S
C549 H528 0.950 . S
C549 C548 1.373 . S
C549 C565 1.377 . S
C550 C548 1.389 . S
C550 C551 1.524 . S
C550 C564 1.377 . S
C551 C550 1.524 . S
C551 C552 1.397 . S
C551 C556 1.363 . S
C552 H529 0.950 . S
C552 C551 1.397 . S
C552 C553 1.334 . S
C553 H530 0.950 . S
C553 C552 1.334 . S
C553 C554 1.287 . S
C554 C553 1.287 . S
C554 C555 1.524 . S
C554 H573 0.913 1_655 S
C555 H531 0.950 . S
C555 C554 1.524 . S
C555 C556 1.415 . S
C556 H532 0.950 . S
C556 C551 1.363 . S
C556 C555 1.415 . S
C557 H533 0.951 . S
C557 C558 1.366 . S
C557 C559 1.388 . S
C558 C557 1.366 . S
C558 C562 1.385 . S
C559 H534 0.951 . S
C559 C557 1.388 . S
C559 C560 1.366 . S
C560 C559 1.366 . S
C560 C561 1.414 . S
C560 C563 1.499 . S
C561 H535 0.950 . S
C561 C560 1.414 . S
C561 C562 1.374 . S
C562 H536 0.950 . S
C562 C558 1.385 . S
C562 C561 1.374 . S
C563 C560 1.499 . S
C563 C564 1.373 . S
C563 C565 1.389 . S
C564 H537 0.950 . S
C564 C550 1.377 . S
C564 C563 1.373 . S
C565 C549 1.377 . S
C565 C563 1.389 . S
C565 C566 1.524 . S
C566 C565 1.524 . S
C566 C567 1.397 . S
C566 C571 1.363 . S
C567 H538 0.950 . S
C567 C566 1.397 . S
C567 C568 1.334 . S
C568 H539 0.950 . S
C568 C567 1.334 . S
C568 C569 1.287 . S
C569 C568 1.287 . S
C569 C570 1.524 . S
C569 H572 0.999 . S
C570 H540 0.950 . S
C570 C569 1.524 . S
C570 C571 1.415 . S
C571 H541 0.950 . S
C571 C566 1.363 . S
C571 C570 1.415 . S
H572 C569 0.999 . S
H573 C554 0.913 1_455 S
H574 C592 0.951 . S
H575 C594 0.951 . S
H576 C596 0.950 . S
H577 C597 0.950 . S
H578 C599 0.950 . S
H579 C602 0.950 . S
H580 C603 0.950 . S
H581 C605 0.950 . S
H582 C606 0.950 . S
H583 C607 0.951 . S
H584 C609 0.951 . S
H585 C611 0.950 . S
H586 C612 0.950 . S
H587 C614 0.950 . S
H588 C617 0.950 . S
H589 C618 0.950 . S
H590 C620 0.950 . S
H591 C621 0.950 . S
C592 H574 0.951 . S
C592 C593 1.366 . S
C592 C594 1.388 . S
C593 C592 1.366 . S
C593 C597 1.385 . S
C594 H575 0.951 . S
C594 C592 1.388 . S
C594 C595 1.366 . S
C595 C594 1.366 . S
C595 C596 1.414 . S
C595 C598 1.499 . S
C596 H576 0.950 . S
C596 C595 1.414 . S
C596 C597 1.374 . S
C597 H577 0.950 . S
C597 C593 1.385 . S
C597 C596 1.374 . S
C598 C595 1.499 . S
C598 C599 1.373 . S
C598 C600 1.389 . S
C599 H578 0.950 . S
C599 C598 1.373 . S
C599 C615 1.377 . S
C600 C598 1.389 . S
C600 C601 1.524 . S
C600 C614 1.377 . S
C601 C600 1.524 . S
C601 C602 1.397 . S
C601 C606 1.363 . S
C602 H579 0.950 . S
C602 C601 1.397 . S
C602 C603 1.334 . S
C603 H580 0.950 . S
C603 C602 1.334 . S
C603 C604 1.287 . S
C604 C603 1.287 . S
C604 C605 1.524 . S
C604 H623 0.913 . S
C605 H581 0.950 . S
C605 C604 1.524 . S
C605 C606 1.415 . S
C606 H582 0.950 . S
C606 C601 1.363 . S
C606 C605 1.415 . S
C607 H583 0.951 . S
C607 C608 1.366 . S
C607 C609 1.388 . S
C608 C607 1.366 . S
C608 C612 1.385 . S
C609 H584 0.951 . S
C609 C607 1.388 . S
C609 C610 1.366 . S
C610 C609 1.366 . S
C610 C611 1.414 . S
C610 C613 1.499 . S
C611 H585 0.950 . S
C611 C610 1.414 . S
C611 C612 1.374 . S
C612 H586 0.950 . S
C612 C608 1.385 . S
C612 C611 1.374 . S
C613 C610 1.499 . S
C613 C614 1.373 . S
C613 C615 1.389 . S
C614 H587 0.950 . S
C614 C600 1.377 . S
C614 C613 1.373 . S
C615 C599 1.377 . S
C615 C613 1.389 . S
C615 C616 1.524 . S
C616 C615 1.524 . S
C616 C617 1.397 . S
C616 C621 1.363 . S
C617 H588 0.950 . S
C617 C616 1.397 . S
C617 C618 1.334 . S
C618 H589 0.950 . S
C618 C617 1.334 . S
C618 C619 1.287 . S
C619 C618 1.287 . S
C619 C620 1.524 . S
C619 H622 0.999 . S
C620 H590 0.950 . S
C620 C619 1.524 . S
C620 C621 1.415 . S
C621 H591 0.950 . S
C621 C616 1.363 . S
C621 C620 1.415 . S
H622 C619 0.999 . S
H623 C604 0.913 . S
H624 C642 0.951 . S
H625 C644 0.951 . S
H626 C646 0.950 . S
H627 C647 0.950 . S
H628 C649 0.950 . S
H629 C652 0.950 . S
H630 C653 0.950 . S
H631 C655 0.950 . S
H632 C656 0.950 . S
H633 C657 0.951 . S
H634 C659 0.951 . S
H635 C661 0.950 . S
H636 C662 0.950 . S
H637 C664 0.950 . S
H638 C667 0.950 . S
H639 C668 0.950 . S
H640 C670 0.950 . S
H641 C671 0.950 . S
C642 H624 0.951 . S
C642 C643 1.366 . S
C642 C644 1.388 . S
C643 C642 1.366 . S
C643 C647 1.385 . S
C644 H625 0.951 . S
C644 C642 1.388 . S
C644 C645 1.366 . S
C645 C644 1.366 . S
C645 C646 1.414 . S
C645 C648 1.499 . S
C646 H626 0.950 . S
C646 C645 1.414 . S
C646 C647 1.374 . S
C647 H627 0.950 . S
C647 C643 1.385 . S
C647 C646 1.374 . S
C648 C645 1.499 . S
C648 C649 1.373 . S
C648 C650 1.389 . S
C649 H628 0.950 . S
C649 C648 1.373 . S
C649 C665 1.377 . S
C650 C648 1.389 . S
C650 C651 1.524 . S
C650 C664 1.377 . S
C651 C650 1.524 . S
C651 C652 1.397 . S
C651 C656 1.363 . S
C652 H629 0.950 . S
C652 C651 1.397 . S
C652 C653 1.334 . S
C653 H630 0.950 . S
C653 C652 1.334 . S
C653 C654 1.287 . S
C654 C653 1.287 . S
C654 C655 1.524 . S
C654 H673 0.913 . S
C655 H631 0.950 . S
C655 C654 1.524 . S
C655 C656 1.415 . S
C656 H632 0.950 . S
C656 C651 1.363 . S
C656 C655 1.415 . S
C657 H633 0.951 . S
C657 C658 1.366 . S
C657 C659 1.388 . S
C658 C657 1.366 . S
C658 C662 1.385 . S
C659 H634 0.951 . S
C659 C657 1.388 . S
C659 C660 1.366 . S
C660 C659 1.366 . S
C660 C661 1.414 . S
C660 C663 1.499 . S
C661 H635 0.950 . S
C661 C660 1.414 . S
C661 C662 1.374 . S
C662 H636 0.950 . S
C662 C658 1.385 . S
C662 C661 1.374 . S
C663 C660 1.499 . S
C663 C664 1.373 . S
C663 C665 1.389 . S
C664 H637 0.950 . S
C664 C650 1.377 . S
C664 C663 1.373 . S
C665 C649 1.377 . S
C665 C663 1.389 . S
C665 C666 1.524 . S
C666 C665 1.524 . S
C666 C667 1.397 . S
C666 C671 1.363 . S
C667 H638 0.950 . S
C667 C666 1.397 . S
C667 C668 1.334 . S
C668 H639 0.950 . S
C668 C667 1.334 . S
C668 C669 1.287 . S
C669 C668 1.287 . S
C669 C670 1.524 . S
C669 H672 0.999 . S
C670 H640 0.950 . S
C670 C669 1.524 . S
C670 C671 1.415 . S
C671 H641 0.950 . S
C671 C666 1.363 . S
C671 C670 1.415 . S
H672 C669 0.999 . S
H673 C654 0.913 . S
H674 C692 0.951 . S
H675 C694 0.951 . S
H676 C696 0.950 . S
H677 C697 0.950 . S
H678 C699 0.950 . S
H679 C702 0.950 . S
H680 C703 0.950 . S
H681 C705 0.950 . S
H682 C706 0.950 . S
H683 C707 0.951 . S
H684 C709 0.951 . S
H685 C711 0.950 . S
H686 C712 0.950 . S
H687 C714 0.950 . S
H688 C717 0.950 . S
H689 C718 0.950 . S
H690 C720 0.950 . S
H691 C721 0.950 . S
C692 H674 0.951 . S
C692 C693 1.366 . S
C692 C694 1.388 . S
C693 C692 1.366 . S
C693 C697 1.385 . S
C694 H675 0.951 . S
C694 C692 1.388 . S
C694 C695 1.366 . S
C695 C694 1.366 . S
C695 C696 1.414 . S
C695 C698 1.499 . S
C696 H676 0.950 . S
C696 C695 1.414 . S
C696 C697 1.374 . S
C697 H677 0.950 . S
C697 C693 1.385 . S
C697 C696 1.374 . S
C698 C695 1.499 . S
C698 C699 1.373 . S
C698 C700 1.389 . S
C699 H678 0.950 . S
C699 C698 1.373 . S
C699 C715 1.377 . S
C700 C698 1.389 . S
C700 C701 1.524 . S
C700 C714 1.377 . S
C701 C700 1.524 . S
C701 C702 1.397 . S
C701 C706 1.363 . S
C702 H679 0.950 . S
C702 C701 1.397 . S
C702 C703 1.334 . S
C703 H680 0.950 . S
C703 C702 1.334 . S
C703 C704 1.287 . S
C704 C703 1.287 . S
C704 C705 1.524 . S
C704 H723 0.913 . S
C705 H681 0.950 . S
C705 C704 1.524 . S
C705 C706 1.415 . S
C706 H682 0.950 . S
C706 C701 1.363 . S
C706 C705 1.415 . S
C707 H683 0.951 . S
C707 C708 1.366 . S
C707 C709 1.388 . S
C708 C707 1.366 . S
C708 C712 1.385 . S
C709 H684 0.951 . S
C709 C707 1.388 . S
C709 C710 1.366 . S
C710 C709 1.366 . S
C710 C711 1.414 . S
C710 C713 1.499 . S
C711 H685 0.950 . S
C711 C710 1.414 . S
C711 C712 1.374 . S
C712 H686 0.950 . S
C712 C708 1.385 . S
C712 C711 1.374 . S
C713 C710 1.499 . S
C713 C714 1.373 . S
C713 C715 1.389 . S
C714 H687 0.950 . S
C714 C700 1.377 . S
C714 C713 1.373 . S
C715 C699 1.377 . S
C715 C713 1.389 . S
C715 C716 1.524 . S
C716 C715 1.524 . S
C716 C717 1.397 . S
C716 C721 1.363 . S
C717 H688 0.950 . S
C717 C716 1.397 . S
C717 C718 1.334 . S
C718 H689 0.950 . S
C718 C717 1.334 . S
C718 C719 1.287 . S
C719 C718 1.287 . S
C719 C720 1.524 . S
C719 H722 0.999 . S
C720 H690 0.950 . S
C720 C719 1.524 . S
C720 C721 1.415 . S
C721 H691 0.950 . S
C721 C716 1.363 . S
C721 C720 1.415 . S
H722 C719 0.999 . S
H723 C704 0.913 . S
H724 C742 0.951 . S
H725 C744 0.951 . S
H726 C746 0.950 . S
H727 C747 0.950 . S
H728 C749 0.950 . S
H729 C752 0.950 . S
H730 C753 0.950 . S
H731 C755 0.950 . S
H732 C756 0.950 . S
H733 C757 0.951 . S
H734 C759 0.951 . S
H735 C761 0.950 . S
H736 C762 0.950 . S
H737 C764 0.950 . S
H738 C767 0.950 . S
H739 C768 0.950 . S
H740 C770 0.950 . S
H741 C771 0.950 . S
C742 H724 0.951 . S
C742 C743 1.366 . S
C742 C744 1.388 . S
C743 C742 1.366 . S
C743 C747 1.385 . S
C744 H725 0.951 . S
C744 C742 1.388 . S
C744 C745 1.366 . S
C745 C744 1.366 . S
C745 C746 1.414 . S
C745 C748 1.499 . S
C746 H726 0.950 . S
C746 C745 1.414 . S
C746 C747 1.374 . S
C747 H727 0.950 . S
C747 C743 1.385 . S
C747 C746 1.374 . S
C748 C745 1.499 . S
C748 C749 1.373 . S
C748 C750 1.389 . S
C749 H728 0.950 . S
C749 C748 1.373 . S
C749 C765 1.377 . S
C750 C748 1.389 . S
C750 C751 1.524 . S
C750 C764 1.377 . S
C751 C750 1.524 . S
C751 C752 1.397 . S
C751 C756 1.363 . S
C752 H729 0.950 . S
C752 C751 1.397 . S
C752 C753 1.334 . S
C753 H730 0.950 . S
C753 C752 1.334 . S
C753 C754 1.287 . S
C754 C753 1.287 . S
C754 C755 1.524 . S
C754 H773 0.913 . S
C755 H731 0.950 . S
C755 C754 1.524 . S
C755 C756 1.415 . S
C756 H732 0.950 . S
C756 C751 1.363 . S
C756 C755 1.415 . S
C757 H733 0.951 . S
C757 C758 1.366 . S
C757 C759 1.388 . S
C758 C757 1.366 . S
C758 C762 1.385 . S
C759 H734 0.951 . S
C759 C757 1.388 . S
C759 C760 1.366 . S
C760 C759 1.366 . S
C760 C761 1.414 . S
C760 C763 1.499 . S
C761 H735 0.950 . S
C761 C760 1.414 . S
C761 C762 1.374 . S
C762 H736 0.950 . S
C762 C758 1.385 . S
C762 C761 1.374 . S
C763 C760 1.499 . S
C763 C764 1.373 . S
C763 C765 1.389 . S
C764 H737 0.950 . S
C764 C750 1.377 . S
C764 C763 1.373 . S
C765 C749 1.377 . S
C765 C763 1.389 . S
C765 C766 1.524 . S
C766 C765 1.524 . S
C766 C767 1.397 . S
C766 C771 1.363 . S
C767 H738 0.950 . S
C767 C766 1.397 . S
C767 C768 1.334 . S
C768 H739 0.950 . S
C768 C767 1.334 . S
C768 C769 1.287 . S
C769 C768 1.287 . S
C769 C770 1.524 . S
C769 H772 0.999 . S
C770 H740 0.950 . S
C770 C769 1.524 . S
C770 C771 1.415 . S
C771 H741 0.950 . S
C771 C766 1.363 . S
C771 C770 1.415 . S
H772 C769 0.999 . S
H773 C754 0.913 . S
H774 C792 0.951 . S
H775 C794 0.951 . S
H776 C796 0.950 . S
H777 C797 0.950 . S
H778 C799 0.950 . S
H779 C802 0.950 . S
H780 C803 0.950 . S
H781 C805 0.950 . S
H782 C806 0.950 . S
H783 C807 0.951 . S
H784 C809 0.951 . S
H785 C811 0.950 . S
H786 C812 0.950 . S
H787 C814 0.950 . S
H788 C817 0.950 . S
H789 C818 0.950 . S
H790 C820 0.950 . S
H791 C821 0.950 . S
C792 H774 0.951 . S
C792 C793 1.366 . S
C792 C794 1.388 . S
C793 C792 1.366 . S
C793 C797 1.385 . S
C794 H775 0.951 . S
C794 C792 1.388 . S
C794 C795 1.366 . S
C795 C794 1.366 . S
C795 C796 1.414 . S
C795 C798 1.499 . S
C796 H776 0.950 . S
C796 C795 1.414 . S
C796 C797 1.374 . S
C797 H777 0.950 . S
C797 C793 1.385 . S
C797 C796 1.374 . S
C798 C795 1.499 . S
C798 C799 1.373 . S
C798 C800 1.389 . S
C799 H778 0.950 . S
C799 C798 1.373 . S
C799 C815 1.377 . S
C800 C798 1.389 . S
C800 C801 1.524 . S
C800 C814 1.377 . S
C801 C800 1.524 . S
C801 C802 1.397 . S
C801 C806 1.363 . S
C802 H779 0.950 . S
C802 C801 1.397 . S
C802 C803 1.334 . S
C803 H780 0.950 . S
C803 C802 1.334 . S
C803 C804 1.287 . S
C804 C803 1.287 . S
C804 C805 1.524 . S
C804 H823 0.913 . S
C805 H781 0.950 . S
C805 C804 1.524 . S
C805 C806 1.415 . S
C806 H782 0.950 . S
C806 C801 1.363 . S
C806 C805 1.415 . S
C807 H783 0.951 . S
C807 C808 1.366 . S
C807 C809 1.388 . S
C808 C807 1.366 . S
C808 C812 1.385 . S
C809 H784 0.951 . S
C809 C807 1.388 . S
C809 C810 1.366 . S
C810 C809 1.366 . S
C810 C811 1.414 . S
C810 C813 1.499 . S
C811 H785 0.950 . S
C811 C810 1.414 . S
C811 C812 1.374 . S
C812 H786 0.950 . S
C812 C808 1.385 . S
C812 C811 1.374 . S
C813 C810 1.499 . S
C813 C814 1.373 . S
C813 C815 1.389 . S
C814 H787 0.950 . S
C814 C800 1.377 . S
C814 C813 1.373 . S
C815 C799 1.377 . S
C815 C813 1.389 . S
C815 C816 1.524 . S
C816 C815 1.524 . S
C816 C817 1.397 . S
C816 C821 1.363 . S
C817 H788 0.950 . S
C817 C816 1.397 . S
C817 C818 1.334 . S
C818 H789 0.950 . S
C818 C817 1.334 . S
C818 C819 1.287 . S
C819 C818 1.287 . S
C819 C820 1.524 . S
C819 H822 0.999 . S
C820 H790 0.950 . S
C820 C819 1.524 . S
C820 C821 1.415 . S
C821 H791 0.950 . S
C821 C816 1.363 . S
C821 C820 1.415 . S
H822 C819 0.999 . S
H823 C804 0.913 . S
H824 C842 0.951 . S
H825 C844 0.951 . S
H826 C846 0.950 . S
H827 C847 0.950 . S
H828 C849 0.950 . S
H829 C852 0.950 . S
H830 C853 0.950 . S
H831 C855 0.950 . S
H832 C856 0.950 . S
H833 C857 0.951 . S
H834 C859 0.951 . S
H835 C861 0.950 . S
H836 C862 0.950 . S
H837 C864 0.950 . S
H838 C867 0.950 . S
H839 C868 0.950 . S
H840 C870 0.950 . S
H841 C871 0.950 . S
C842 H824 0.951 . S
C842 C843 1.366 . S
C842 C844 1.388 . S
C843 C842 1.366 . S
C843 C847 1.385 . S
C844 H825 0.951 . S
C844 C842 1.388 . S
C844 C845 1.366 . S
C845 C844 1.366 . S
C845 C846 1.414 . S
C845 C848 1.499 . S
C846 H826 0.950 . S
C846 C845 1.414 . S
C846 C847 1.374 . S
C847 H827 0.950 . S
C847 C843 1.385 . S
C847 C846 1.374 . S
C848 C845 1.499 . S
C848 C849 1.373 . S
C848 C850 1.389 . S
C849 H828 0.950 . S
C849 C848 1.373 . S
C849 C865 1.377 . S
C850 C848 1.389 . S
C850 C851 1.524 . S
C850 C864 1.377 . S
C851 C850 1.524 . S
C851 C852 1.397 . S
C851 C856 1.363 . S
C852 H829 0.950 . S
C852 C851 1.397 . S
C852 C853 1.334 . S
C853 H830 0.950 . S
C853 C852 1.334 . S
C853 C854 1.287 . S
C854 C853 1.287 . S
C854 C855 1.524 . S
C854 H873 0.913 . S
C855 H831 0.950 . S
C855 C854 1.524 . S
C855 C856 1.415 . S
C856 H832 0.950 . S
C856 C851 1.363 . S
C856 C855 1.415 . S
C857 H833 0.951 . S
C857 C858 1.366 . S
C857 C859 1.388 . S
C858 C857 1.366 . S
C858 C862 1.385 . S
C859 H834 0.951 . S
C859 C857 1.388 . S
C859 C860 1.366 . S
C860 C859 1.366 . S
C860 C861 1.414 . S
C860 C863 1.499 . S
C861 H835 0.950 . S
C861 C860 1.414 . S
C861 C862 1.374 . S
C862 H836 0.950 . S
C862 C858 1.385 . S
C862 C861 1.374 . S
C863 C860 1.499 . S
C863 C864 1.373 . S
C863 C865 1.389 . S
C864 H837 0.950 . S
C864 C850 1.377 . S
C864 C863 1.373 . S
C865 C849 1.377 . S
C865 C863 1.389 . S
C865 C866 1.524 . S
C866 C865 1.524 . S
C866 C867 1.397 . S
C866 C871 1.363 . S
C867 H838 0.950 . S
C867 C866 1.397 . S
C867 C868 1.334 . S
C868 H839 0.950 . S
C868 C867 1.334 . S
C868 C869 1.287 . S
C869 C868 1.287 . S
C869 C870 1.524 . S
C869 H872 0.999 . S
C870 H840 0.950 . S
C870 C869 1.524 . S
C870 C871 1.415 . S
C871 H841 0.950 . S
C871 C866 1.363 . S
C871 C870 1.415 . S
H872 C869 0.999 . S
H873 C854 0.913 . S
H874 C892 0.951 . S
H875 C894 0.951 . S
H876 C896 0.950 . S
H877 C897 0.950 . S
H878 C899 0.950 . S
H879 C902 0.950 . S
H880 C903 0.950 . S
H881 C905 0.950 . S
H882 C906 0.950 . S
H883 C907 0.951 . S
H884 C909 0.951 . S
H885 C911 0.950 . S
H886 C912 0.950 . S
H887 C914 0.950 . S
H888 C917 0.950 . S
H889 C918 0.950 . S
H890 C920 0.950 . S
H891 C921 0.950 . S
C892 H874 0.951 . S
C892 C893 1.366 . S
C892 C894 1.388 . S
C893 C892 1.366 . S
C893 C897 1.385 . S
C894 H875 0.951 . S
C894 C892 1.388 . S
C894 C895 1.366 . S
C895 C894 1.366 . S
C895 C896 1.414 . S
C895 C898 1.499 . S
C896 H876 0.950 . S
C896 C895 1.414 . S
C896 C897 1.374 . S
C897 H877 0.950 . S
C897 C893 1.385 . S
C897 C896 1.374 . S
C898 C895 1.499 . S
C898 C899 1.373 . S
C898 C900 1.389 . S
C899 H878 0.950 . S
C899 C898 1.373 . S
C899 C915 1.377 . S
C900 C898 1.389 . S
C900 C901 1.524 . S
C900 C914 1.377 . S
C901 C900 1.524 . S
C901 C902 1.397 . S
C901 C906 1.363 . S
C902 H879 0.950 . S
C902 C901 1.397 . S
C902 C903 1.334 . S
C903 H880 0.950 . S
C903 C902 1.334 . S
C903 C904 1.287 . S
C904 C903 1.287 . S
C904 C905 1.524 . S
C904 H923 0.913 . S
C905 H881 0.950 . S
C905 C904 1.524 . S
C905 C906 1.415 . S
C906 H882 0.950 . S
C906 C901 1.363 . S
C906 C905 1.415 . S
C907 H883 0.951 . S
C907 C908 1.366 . S
C907 C909 1.388 . S
C908 C907 1.366 . S
C908 C912 1.385 . S
C909 H884 0.951 . S
C909 C907 1.388 . S
C909 C910 1.366 . S
C910 C909 1.366 . S
C910 C911 1.414 . S
C910 C913 1.499 . S
C911 H885 0.950 . S
C911 C910 1.414 . S
C911 C912 1.374 . S
C912 H886 0.950 . S
C912 C908 1.385 . S
C912 C911 1.374 . S
C913 C910 1.499 . S
C913 C914 1.373 . S
C913 C915 1.389 . S
C914 H887 0.950 . S
C914 C900 1.377 . S
C914 C913 1.373 . S
C915 C899 1.377 . S
C915 C913 1.389 . S
C915 C916 1.524 . S
C916 C915 1.524 . S
C916 C917 1.397 . S
C916 C921 1.363 . S
C917 H888 0.950 . S
C917 C916 1.397 . S
C917 C918 1.334 . S
C918 H889 0.950 . S
C918 C917 1.334 . S
C918 C919 1.287 . S
C919 C918 1.287 . S
C919 C920 1.524 . S
C919 H922 0.999 . S
C920 H890 0.950 . S
C920 C919 1.524 . S
C920 C921 1.415 . S
C921 H891 0.950 . S
C921 C916 1.363 . S
C921 C920 1.415 . S
H922 C919 0.999 . S
H923 C904 0.913 . S
H924 C942 0.951 . S
H925 C944 0.951 . S
H926 C946 0.950 . S
H927 C947 0.950 . S
H928 C949 0.950 . S
H929 C952 0.950 . S
H930 C953 0.950 . S
H931 C955 0.950 . S
H932 C956 0.950 . S
H933 C957 0.951 . S
H934 C959 0.951 . S
H935 C961 0.950 . S
H936 C962 0.950 . S
H937 C964 0.950 . S
H938 C967 0.950 . S
H939 C968 0.950 . S
H940 C970 0.950 . S
H941 C971 0.950 . S
C942 H924 0.951 . S
C942 C943 1.366 . S
C942 C944 1.388 . S
C943 C942 1.366 . S
C943 C947 1.385 . S
C944 H925 0.951 . S
C944 C942 1.388 . S
C944 C945 1.366 . S
C945 C944 1.366 . S
C945 C946 1.414 . S
C945 C948 1.499 . S
C946 H926 0.950 . S
C946 C945 1.414 . S
C946 C947 1.374 . S
C947 H927 0.950 . S
C947 C943 1.385 . S
C947 C946 1.374 . S
C948 C945 1.499 . S
C948 C949 1.373 . S
C948 C950 1.389 . S
C949 H928 0.950 . S
C949 C948 1.373 . S
C949 C965 1.377 . S
C950 C948 1.389 . S
C950 C951 1.524 . S
C950 C964 1.377 . S
C951 C950 1.524 . S
C951 C952 1.397 . S
C951 C956 1.363 . S
C952 H929 0.950 . S
C952 C951 1.397 . S
C952 C953 1.334 . S
C953 H930 0.950 . S
C953 C952 1.334 . S
C953 C954 1.287 . S
C954 C953 1.287 . S
C954 C955 1.524 . S
C954 H973 0.913 . S
C955 H931 0.950 . S
C955 C954 1.524 . S
C955 C956 1.415 . S
C956 H932 0.950 . S
C956 C951 1.363 . S
C956 C955 1.415 . S
C957 H933 0.951 . S
C957 C958 1.366 . S
C957 C959 1.388 . S
C958 C957 1.366 . S
C958 C962 1.385 . S
C959 H934 0.951 . S
C959 C957 1.388 . S
C959 C960 1.366 . S
C960 C959 1.366 . S
C960 C961 1.414 . S
C960 C963 1.499 . S
C961 H935 0.950 . S
C961 C960 1.414 . S
C961 C962 1.374 . S
C962 H936 0.950 . S
C962 C958 1.385 . S
C962 C961 1.374 . S
C963 C960 1.499 . S
C963 C964 1.373 . S
C963 C965 1.389 . S
C964 H937 0.950 . S
C964 C950 1.377 . S
C964 C963 1.373 . S
C965 C949 1.377 . S
C965 C963 1.389 . S
C965 C966 1.524 . S
C966 C965 1.524 . S
C966 C967 1.397 . S
C966 C971 1.363 . S
C967 H938 0.950 . S
C967 C966 1.397 . S
C967 C968 1.334 . S
C968 H939 0.950 . S
C968 C967 1.334 . S
C968 C969 1.287 . S
C969 C968 1.287 . S
C969 C970 1.524 . S
C969 H972 0.999 . S
C970 H940 0.950 . S
C970 C969 1.524 . S
C970 C971 1.415 . S
C971 H941 0.950 . S
C971 C966 1.363 . S
C971 C970 1.415 . S
H972 C969 0.999 . S
H973 C954 0.913 . S
H974 C992 0.951 . S
H975 C994 0.951 . S
H976 C996 0.950 . S
H977 C997 0.950 . S
H978 C999 0.950 . S
H979 C1002 0.950 . S
H980 C1003 0.950 . S
H981 C1005 0.950 . S
H982 C1006 0.950 . S
H983 C1007 0.951 . S
H984 C1009 0.951 . S
H985 C1011 0.950 . S
H986 C1012 0.950 . S
H987 C1014 0.950 . S
H988 C1017 0.950 . S
H989 C1018 0.950 . S
H990 C1020 0.950 . S
H991 C1021 0.950 . S
C992 H974 0.951 . S
C992 C993 1.366 . S
C992 C994 1.388 . S
C993 C992 1.366 . S
C993 C997 1.385 . S
C994 H975 0.951 . S
C994 C992 1.388 . S
C994 C995 1.366 . S
C995 C994 1.366 . S
C995 C996 1.414 . S
C995 C998 1.499 . S
C996 H976 0.950 . S
C996 C995 1.414 . S
C996 C997 1.374 . S
C997 H977 0.950 . S
C997 C993 1.385 . S
C997 C996 1.374 . S
C998 C995 1.499 . S
C998 C999 1.373 . S
C998 C1000 1.389 . S
C999 H978 0.950 . S
C999 C998 1.373 . S
C999 C1015 1.377 . S
C1000 C998 1.389 . S
C1000 C1001 1.524 . S
C1000 C1014 1.377 . S
C1001 C1000 1.524 . S
C1001 C1002 1.397 . S
C1001 C1006 1.363 . S
C1002 H979 0.950 . S
C1002 C1001 1.397 . S
C1002 C1003 1.334 . S
C1003 H980 0.950 . S
C1003 C1002 1.334 . S
C1003 C1004 1.287 . S
C1004 C1003 1.287 . S
C1004 C1005 1.524 . S
C1004 H1023 0.913 . S
C1005 H981 0.950 . S
C1005 C1004 1.524 . S
C1005 C1006 1.415 . S
C1006 H982 0.950 . S
C1006 C1001 1.363 . S
C1006 C1005 1.415 . S
C1007 H983 0.951 . S
C1007 C1008 1.366 . S
C1007 C1009 1.388 . S
C1008 C1007 1.366 . S
C1008 C1012 1.385 . S
C1009 H984 0.951 . S
C1009 C1007 1.388 . S
C1009 C1010 1.366 . S
C1010 C1009 1.366 . S
C1010 C1011 1.414 . S
C1010 C1013 1.499 . S
C1011 H985 0.950 . S
C1011 C1010 1.414 . S
C1011 C1012 1.374 . S
C1012 H986 0.950 . S
C1012 C1008 1.385 . S
C1012 C1011 1.374 . S
C1013 C1010 1.499 . S
C1013 C1014 1.373 . S
C1013 C1015 1.389 . S
C1014 H987 0.950 . S
C1014 C1000 1.377 . S
C1014 C1013 1.373 . S
C1015 C999 1.377 . S
C1015 C1013 1.389 . S
C1015 C1016 1.524 . S
C1016 C1015 1.524 . S
C1016 C1017 1.397 . S
C1016 C1021 1.363 . S
C1017 H988 0.950 . S
C1017 C1016 1.397 . S
C1017 C1018 1.334 . S
C1018 H989 0.950 . S
C1018 C1017 1.334 . S
C1018 C1019 1.287 . S
C1019 C1018 1.287 . S
C1019 C1020 1.524 . S
C1019 H1022 0.999 . S
C1020 H990 0.950 . S
C1020 C1019 1.524 . S
C1020 C1021 1.415 . S
C1021 H991 0.950 . S
C1021 C1016 1.363 . S
C1021 C1020 1.415 . S
H1022 C1019 0.999 . S
H1023 C1004 0.913 . S
H1024 C1042 0.951 . S
H1025 C1044 0.951 . S
H1026 C1046 0.950 . S
H1027 C1047 0.950 . S
H1028 C1049 0.950 . S
H1029 C1052 0.950 . S
H1030 C1053 0.950 . S
H1031 C1055 0.950 . S
H1032 C1056 0.950 . S
H1033 C1057 0.951 . S
H1034 C1059 0.951 . S
H1035 C1061 0.950 . S
H1036 C1062 0.950 . S
H1037 C1064 0.950 . S
H1038 C1067 0.950 . S
H1039 C1068 0.950 . S
H1040 C1070 0.950 . S
H1041 C1071 0.950 . S
C1042 H1024 0.951 . S
C1042 C1043 1.366 . S
C1042 C1044 1.388 . S
C1043 C1042 1.366 . S
C1043 C1047 1.385 . S
C1044 H1025 0.951 . S
C1044 C1042 1.388 . S
C1044 C1045 1.366 . S
C1045 C1044 1.366 . S
C1045 C1046 1.414 . S
C1045 C1048 1.499 . S
C1046 H1026 0.950 . S
C1046 C1045 1.414 . S
C1046 C1047 1.374 . S
C1047 H1027 0.950 . S
C1047 C1043 1.385 . S
C1047 C1046 1.374 . S
C1048 C1045 1.499 . S
C1048 C1049 1.373 . S
C1048 C1050 1.389 . S
C1049 H1028 0.950 . S
C1049 C1048 1.373 . S
C1049 C1065 1.377 . S
C1050 C1048 1.389 . S
C1050 C1051 1.524 . S
C1050 C1064 1.377 . S
C1051 C1050 1.524 . S
C1051 C1052 1.397 . S
C1051 C1056 1.363 . S
C1052 H1029 0.950 . S
C1052 C1051 1.397 . S
C1052 C1053 1.334 . S
C1053 H1030 0.950 . S
C1053 C1052 1.334 . S
C1053 C1054 1.287 . S
C1054 C1053 1.287 . S
C1054 C1055 1.524 . S
C1054 H1073 0.913 . S
C1055 H1031 0.950 . S
C1055 C1054 1.524 . S
C1055 C1056 1.415 . S
C1056 H1032 0.950 . S
C1056 C1051 1.363 . S
C1056 C1055 1.415 . S
C1057 H1033 0.951 . S
C1057 C1058 1.366 . S
C1057 C1059 1.388 . S
C1058 C1057 1.366 . S
C1058 C1062 1.385 . S
C1059 H1034 0.951 . S
C1059 C1057 1.388 . S
C1059 C1060 1.366 . S
C1060 C1059 1.366 . S
C1060 C1061 1.414 . S
C1060 C1063 1.499 . S
C1061 H1035 0.950 . S
C1061 C1060 1.414 . S
C1061 C1062 1.374 . S
C1062 H1036 0.950 . S
C1062 C1058 1.385 . S
C1062 C1061 1.374 . S
C1063 C1060 1.499 . S
C1063 C1064 1.373 . S
C1063 C1065 1.389 . S
C1064 H1037 0.950 . S
C1064 C1050 1.377 . S
C1064 C1063 1.373 . S
C1065 C1049 1.377 . S
C1065 C1063 1.389 . S
C1065 C1066 1.524 . S
C1066 C1065 1.524 . S
C1066 C1067 1.397 . S
C1066 C1071 1.363 . S
C1067 H1038 0.950 . S
C1067 C1066 1.397 . S
C1067 C1068 1.334 . S
C1068 H1039 0.950 . S
C1068 C1067 1.334 . S
C1068 C1069 1.287 . S
C1069 C1068 1.287 . S
C1069 C1070 1.524 . S
C1069 H1072 0.999 . S
C1070 H1040 0.950 . S
C1070 C1069 1.524 . S
C1070 C1071 1.415 . S
C1071 H1041 0.950 . S
C1071 C1066 1.363 . S
C1071 C1070 1.415 . S
H1072 C1069 0.999 . S
H1073 C1054 0.913 . S
H1074 C1092 0.951 . S
H1075 C1094 0.951 . S
H1076 C1096 0.950 . S
H1077 C1097 0.950 . S
H1078 C1099 0.950 . S
H1079 C1102 0.950 . S
H1080 C1103 0.950 . S
H1081 C1105 0.950 . S
H1082 C1106 0.950 . S
H1083 C1107 0.951 . S
H1084 C1109 0.951 . S
H1085 C1111 0.950 . S
H1086 C1112 0.950 . S
H1087 C1114 0.950 . S
H1088 C1117 0.950 . S
H1089 C1118 0.950 . S
H1090 C1120 0.950 . S
H1091 C1121 0.950 . S
C1092 H1074 0.951 . S
C1092 C1093 1.366 . S
C1092 C1094 1.388 . S
C1093 C1092 1.366 . S
C1093 C1097 1.385 . S
C1094 H1075 0.951 . S
C1094 C1092 1.388 . S
C1094 C1095 1.366 . S
C1095 C1094 1.366 . S
C1095 C1096 1.414 . S
C1095 C1098 1.499 . S
C1096 H1076 0.950 . S
C1096 C1095 1.414 . S
C1096 C1097 1.374 . S
C1097 H1077 0.950 . S
C1097 C1093 1.385 . S
C1097 C1096 1.374 . S
C1098 C1095 1.499 . S
C1098 C1099 1.373 . S
C1098 C1100 1.389 . S
C1099 H1078 0.950 . S
C1099 C1098 1.373 . S
C1099 C1115 1.377 . S
C1100 C1098 1.389 . S
C1100 C1101 1.524 . S
C1100 C1114 1.377 . S
C1101 C1100 1.524 . S
C1101 C1102 1.397 . S
C1101 C1106 1.363 . S
C1102 H1079 0.950 . S
C1102 C1101 1.397 . S
C1102 C1103 1.334 . S
C1103 H1080 0.950 . S
C1103 C1102 1.334 . S
C1103 C1104 1.287 . S
C1104 C1103 1.287 . S
C1104 C1105 1.524 . S
C1104 H1123 0.913 . S
C1105 H1081 0.950 . S
C1105 C1104 1.524 . S
C1105 C1106 1.415 . S
C1106 H1082 0.950 . S
C1106 C1101 1.363 . S
C1106 C1105 1.415 . S
C1107 H1083 0.951 . S
C1107 C1108 1.366 . S
C1107 C1109 1.388 . S
C1108 C1107 1.366 . S
C1108 C1112 1.385 . S
C1109 H1084 0.951 . S
C1109 C1107 1.388 . S
C1109 C1110 1.366 . S
C1110 C1109 1.366 . S
C1110 C1111 1.414 . S
C1110 C1113 1.499 . S
C1111 H1085 0.950 . S
C1111 C1110 1.414 . S
C1111 C1112 1.374 . S
C1112 H1086 0.950 . S
C1112 C1108 1.385 . S
C1112 C1111 1.374 . S
C1113 C1110 1.499 . S
C1113 C1114 1.373 . S
C1113 C1115 1.389 . S
C1114 H1087 0.950 . S
C1114 C1100 1.377 . S
C1114 C1113 1.373 . S
C1115 C1099 1.377 . S
C1115 C1113 1.389 . S
C1115 C1116 1.524 . S
C1116 C1115 1.524 . S
C1116 C1117 1.397 . S
C1116 C1121 1.363 . S
C1117 H1088 0.950 . S
C1117 C1116 1.397 . S
C1117 C1118 1.334 . S
C1118 H1089 0.950 . S
C1118 C1117 1.334 . S
C1118 C1119 1.287 . S
C1119 C1118 1.287 . S
C1119 C1120 1.524 . S
C1119 H1122 0.999 . S
C1120 H1090 0.950 . S
C1120 C1119 1.524 . S
C1120 C1121 1.415 . S
C1121 H1091 0.950 . S
C1121 C1116 1.363 . S
C1121 C1120 1.415 . S
H1122 C1119 0.999 . S
H1123 C1104 0.913 . S
H1124 C1142 0.951 . S
H1125 C1144 0.951 . S
H1126 C1146 0.950 . S
H1127 C1147 0.950 . S
H1128 C1149 0.950 . S
H1129 C1152 0.950 . S
H1130 C1153 0.950 . S
H1131 C1155 0.950 . S
H1132 C1156 0.950 . S
H1133 C1157 0.951 . S
H1134 C1159 0.951 . S
H1135 C1161 0.950 . S
H1136 C1162 0.950 . S
H1137 C1164 0.950 . S
H1138 C1167 0.950 . S
H1139 C1168 0.950 . S
H1140 C1170 0.950 . S
H1141 C1171 0.950 . S
C1142 H1124 0.951 . S
C1142 C1143 1.366 . S
C1142 C1144 1.388 . S
C1143 C1142 1.366 . S
C1143 C1147 1.385 . S
C1144 H1125 0.951 . S
C1144 C1142 1.388 . S
C1144 C1145 1.366 . S
C1145 C1144 1.366 . S
C1145 C1146 1.414 . S
C1145 C1148 1.499 . S
C1146 H1126 0.950 . S
C1146 C1145 1.414 . S
C1146 C1147 1.374 . S
C1147 H1127 0.950 . S
C1147 C1143 1.385 . S
C1147 C1146 1.374 . S
C1148 C1145 1.499 . S
C1148 C1149 1.373 . S
C1148 C1150 1.389 . S
C1149 H1128 0.950 . S
C1149 C1148 1.373 . S
C1149 C1165 1.377 . S
C1150 C1148 1.389 . S
C1150 C1151 1.524 . S
C1150 C1164 1.377 . S
C1151 C1150 1.524 . S
C1151 C1152 1.397 . S
C1151 C1156 1.363 . S
C1152 H1129 0.950 . S
C1152 C1151 1.397 . S
C1152 C1153 1.334 . S
C1153 H1130 0.950 . S
C1153 C1152 1.334 . S
C1153 C1154 1.287 . S
C1154 C1153 1.287 . S
C1154 C1155 1.524 . S
C1154 H1173 0.913 . S
C1155 H1131 0.950 . S
C1155 C1154 1.524 . S
C1155 C1156 1.415 . S
C1156 H1132 0.950 . S
C1156 C1151 1.363 . S
C1156 C1155 1.415 . S
C1157 H1133 0.951 . S
C1157 C1158 1.366 . S
C1157 C1159 1.388 . S
C1158 C1157 1.366 . S
C1158 C1162 1.385 . S
C1159 H1134 0.951 . S
C1159 C1157 1.388 . S
C1159 C1160 1.366 . S
C1160 C1159 1.366 . S
C1160 C1161 1.414 . S
C1160 C1163 1.499 . S
C1161 H1135 0.950 . S
C1161 C1160 1.414 . S
C1161 C1162 1.374 . S
C1162 H1136 0.950 . S
C1162 C1158 1.385 . S
C1162 C1161 1.374 . S
C1163 C1160 1.499 . S
C1163 C1164 1.373 . S
C1163 C1165 1.389 . S
C1164 H1137 0.950 . S
C1164 C1150 1.377 . S
C1164 C1163 1.373 . S
C1165 C1149 1.377 . S
C1165 C1163 1.389 . S
C1165 C1166 1.524 . S
C1166 C1165 1.524 . S
C1166 C1167 1.397 . S
C1166 C1171 1.363 . S
C1167 H1138 0.950 . S
C1167 C1166 1.397 . S
C1167 C1168 1.334 . S
C1168 H1139 0.950 . S
C1168 C1167 1.334 . S
C1168 C1169 1.287 . S
C1169 C1168 1.287 . S
C1169 C1170 1.524 . S
C1169 H1172 0.999 . S
C1170 H1140 0.950 . S
C1170 C1169 1.524 . S
C1170 C1171 1.415 . S
C1171 H1141 0.950 . S
C1171 C1166 1.363 . S
C1171 C1170 1.415 . S
H1172 C1169 0.999 . S
H1173 C1154 0.913 . S
H1174 C1192 0.951 . S
H1175 C1194 0.951 . S
H1176 C1196 0.950 . S
H1177 C1197 0.950 . S
H1178 C1199 0.950 . S
H1179 C1202 0.950 . S
H1180 C1203 0.950 . S
H1181 C1205 0.950 . S
H1182 C1206 0.950 . S
H1183 C1207 0.951 . S
H1184 C1209 0.951 . S
H1185 C1211 0.950 . S
H1186 C1212 0.950 . S
H1187 C1214 0.950 . S
H1188 C1217 0.950 . S
H1189 C1218 0.950 . S
H1190 C1220 0.950 . S
H1191 C1221 0.950 . S
C1192 H1174 0.951 . S
C1192 C1193 1.366 . S
C1192 C1194 1.388 . S
C1193 C1192 1.366 . S
C1193 C1197 1.385 . S
C1194 H1175 0.951 . S
C1194 C1192 1.388 . S
C1194 C1195 1.366 . S
C1195 C1194 1.366 . S
C1195 C1196 1.414 . S
C1195 C1198 1.499 . S
C1196 H1176 0.950 . S
C1196 C1195 1.414 . S
C1196 C1197 1.374 . S
C1197 H1177 0.950 . S
C1197 C1193 1.385 . S
C1197 C1196 1.374 . S
C1198 C1195 1.499 . S
C1198 C1199 1.373 . S
C1198 C1200 1.389 . S
C1199 H1178 0.950 . S
C1199 C1198 1.373 . S
C1199 C1215 1.377 . S
C1200 C1198 1.389 . S
C1200 C1201 1.524 . S
C1200 C1214 1.377 . S
C1201 C1200 1.524 . S
C1201 C1202 1.397 . S
C1201 C1206 1.363 . S
C1202 H1179 0.950 . S
C1202 C1201 1.397 . S
C1202 C1203 1.334 . S
C1203 H1180 0.950 . S
C1203 C1202 1.334 . S
C1203 C1204 1.287 . S
C1204 C1203 1.287 . S
C1204 C1205 1.524 . S
C1204 H1223 0.913 . S
C1205 H1181 0.950 . S
C1205 C1204 1.524 . S
C1205 C1206 1.415 . S
C1206 H1182 0.950 . S
C1206 C1201 1.363 . S
C1206 C1205 1.415 . S
C1207 H1183 0.951 . S
C1207 C1208 1.366 . S
C1207 C1209 1.388 . S
C1208 C1207 1.366 . S
C1208 C1212 1.385 . S
C1209 H1184 0.951 . S
C1209 C1207 1.388 . S
C1209 C1210 1.366 . S
C1210 C1209 1.366 . S
C1210 C1211 1.414 . S
C1210 C1213 1.499 . S
C1211 H1185 0.950 . S
C1211 C1210 1.414 . S
C1211 C1212 1.374 . S
C1212 H1186 0.950 . S
C1212 C1208 1.385 . S
C1212 C1211 1.374 . S
C1213 C1210 1.499 . S
C1213 C1214 1.373 . S
C1213 C1215 1.389 . S
C1214 H1187 0.950 . S
C1214 C1200 1.377 . S
C1214 C1213 1.373 . S
C1215 C1199 1.377 . S
C1215 C1213 1.389 . S
C1215 C1216 1.524 . S
C1216 C1215 1.524 . S
C1216 C1217 1.397 . S
C1216 C1221 1.363 . S
C1217 H1188 0.950 . S
C1217 C1216 1.397 . S
C1217 C1218 1.334 . S
C1218 H1189 0.950 . S
C1218 C1217 1.334 . S
C1218 C1219 1.287 . S
C1219 C1218 1.287 . S
C1219 C1220 1.524 . S
C1219 H1222 0.999 . S
C1220 H1190 0.950 . S
C1220 C1219 1.524 . S
C1220 C1221 1.415 . S
C1221 H1191 0.950 . S
C1221 C1216 1.363 . S
C1221 C1220 1.415 . S
H1222 C1219 0.999 . S
H1223 C1204 0.913 . S
H1224 C1242 0.951 . S
H1225 C1244 0.951 . S
H1226 C1246 0.950 . S
H1227 C1247 0.950 . S
H1228 C1249 0.950 . S
H1229 C1252 0.950 . S
H1230 C1253 0.950 . S
H1231 C1255 0.950 . S
H1232 C1256 0.950 . S
H1233 C1257 0.951 . S
H1234 C1259 0.951 . S
H1235 C1261 0.950 . S
H1236 C1262 0.950 . S
H1237 C1264 0.950 . S
H1238 C1267 0.950 . S
H1239 C1268 0.950 . S
H1240 C1270 0.950 . S
H1241 C1271 0.950 . S
C1242 H1224 0.951 . S
C1242 C1243 1.366 . S
C1242 C1244 1.388 . S
C1243 C1242 1.366 . S
C1243 C1247 1.385 . S
C1244 H1225 0.951 . S
C1244 C1242 1.388 . S
C1244 C1245 1.366 . S
C1245 C1244 1.366 . S
C1245 C1246 1.414 . S
C1245 C1248 1.499 . S
C1246 H1226 0.950 . S
C1246 C1245 1.414 . S
C1246 C1247 1.374 . S
C1247 H1227 0.950 . S
C1247 C1243 1.385 . S
C1247 C1246 1.374 . S
C1248 C1245 1.499 . S
C1248 C1249 1.373 . S
C1248 C1250 1.389 . S
C1249 H1228 0.950 . S
C1249 C1248 1.373 . S
C1249 C1265 1.377 . S
C1250 C1248 1.389 . S
C1250 C1251 1.524 . S
C1250 C1264 1.377 . S
C1251 C1250 1.524 . S
C1251 C1252 1.397 . S
C1251 C1256 1.363 . S
C1252 H1229 0.950 . S
C1252 C1251 1.397 . S
C1252 C1253 1.334 . S
C1253 H1230 0.950 . S
C1253 C1252 1.334 . S
C1253 C1254 1.287 . S
C1254 C1253 1.287 . S
C1254 C1255 1.524 . S
C1254 H1273 0.913 . S
C1255 H1231 0.950 . S
C1255 C1254 1.524 . S
C1255 C1256 1.415 . S
C1256 H1232 0.950 . S
C1256 C1251 1.363 . S
C1256 C1255 1.415 . S
C1257 H1233 0.951 . S
C1257 C1258 1.366 . S
C1257 C1259 1.388 . S
C1258 C1257 1.366 . S
C1258 C1262 1.385 . S
C1259 H1234 0.951 . S
C1259 C1257 1.388 . S
C1259 C1260 1.366 . S
C1260 C1259 1.366 . S
C1260 C1261 1.414 . S
C1260 C1263 1.499 . S
C1261 H1235 0.950 . S
C1261 C1260 1.414 . S
C1261 C1262 1.374 . S
C1262 H1236 0.950 . S
C1262 C1258 1.385 . S
C1262 C1261 1.374 . S
C1263 C1260 1.499 . S
C1263 C1264 1.373 . S
C1263 C1265 1.389 . S
C1264 H1237 0.950 . S
C1264 C1250 1.377 . S
C1264 C1263 1.373 . S
C1265 C1249 1.377 . S
C1265 C1263 1.389 . S
C1265 C1266 1.524 . S
C1266 C1265 1.524 . S
C1266 C1267 1.397 . S
C1266 C1271 1.363 . S
C1267 H1238 0.950 . S
C1267 C1266 1.397 . S
C1267 C1268 1.334 . S
C1268 H1239 0.950 . S
C1268 C1267 1.334 . S
C1268 C1269 1.287 . S
C1269 C1268 1.287 . S
C1269 C1270 1.524 . S
C1269 H1272 0.999 . S
C1270 H1240 0.950 . S
C1270 C1269 1.524 . S
C1270 C1271 1.415 . S
C1271 H1241 0.950 . S
C1271 C1266 1.363 . S
C1271 C1270 1.415 . S
H1272 C1269 0.999 . S
H1273 C1254 0.913 . S
H1274 C1292 0.951 . S
H1275 C1294 0.951 . S
H1276 C1296 0.950 . S
H1277 C1297 0.950 . S
H1278 C1299 0.950 . S
H1279 C1302 0.950 . S
H1280 C1303 0.950 . S
H1281 C1305 0.950 . S
H1282 C1306 0.950 . S
H1283 C1307 0.951 . S
H1284 C1309 0.951 . S
H1285 C1311 0.950 . S
H1286 C1312 0.950 . S
H1287 C1314 0.950 . S
H1288 C1317 0.950 . S
H1289 C1318 0.950 . S
H1290 C1320 0.950 . S
H1291 C1321 0.950 . S
C1292 H1274 0.951 . S
C1292 C1293 1.366 . S
C1292 C1294 1.388 . S
C1293 C1292 1.366 . S
C1293 C1297 1.385 . S
C1294 H1275 0.951 . S
C1294 C1292 1.388 . S
C1294 C1295 1.366 . S
C1295 C1294 1.366 . S
C1295 C1296 1.414 . S
C1295 C1298 1.499 . S
C1296 H1276 0.950 . S
C1296 C1295 1.414 . S
C1296 C1297 1.374 . S
C1297 H1277 0.950 . S
C1297 C1293 1.385 . S
C1297 C1296 1.374 . S
C1298 C1295 1.499 . S
C1298 C1299 1.373 . S
C1298 C1300 1.389 . S
C1299 H1278 0.950 . S
C1299 C1298 1.373 . S
C1299 C1315 1.377 . S
C1300 C1298 1.389 . S
C1300 C1301 1.524 . S
C1300 C1314 1.377 . S
C1301 C1300 1.524 . S
C1301 C1302 1.397 . S
C1301 C1306 1.363 . S
C1302 H1279 0.950 . S
C1302 C1301 1.397 . S
C1302 C1303 1.334 . S
C1303 H1280 0.950 . S
C1303 C1302 1.334 . S
C1303 C1304 1.287 . S
C1304 C1303 1.287 . S
C1304 C1305 1.524 . S
C1304 H1323 0.913 . S
C1305 H1281 0.950 . S
C1305 C1304 1.524 . S
C1305 C1306 1.415 . S
C1306 H1282 0.950 . S
C1306 C1301 1.363 . S
C1306 C1305 1.415 . S
C1307 H1283 0.951 . S
C1307 C1308 1.366 . S
C1307 C1309 1.388 . S
C1308 C1307 1.366 . S
C1308 C1312 1.385 . S
C1309 H1284 0.951 . S
C1309 C1307 1.388 . S
C1309 C1310 1.366 . S
C1310 C1309 1.366 . S
C1310 C1311 1.414 . S
C1310 C1313 1.499 . S
C1311 H1285 0.950 . S
C1311 C1310 1.414 . S
C1311 C1312 1.374 . S
C1312 H1286 0.950 . S
C1312 C1308 1.385 . S
C1312 C1311 1.374 . S
C1313 C1310 1.499 . S
C1313 C1314 1.373 . S
C1313 C1315 1.389 . S
C1314 H1287 0.950 . S
C1314 C1300 1.377 . S
C1314 C1313 1.373 . S
C1315 C1299 1.377 . S
C1315 C1313 1.389 . S
C1315 C1316 1.524 . S
C1316 C1315 1.524 . S
C1316 C1317 1.397 . S
C1316 C1321 1.363 . S
C1317 H1288 0.950 . S
C1317 C1316 1.397 . S
C1317 C1318 1.334 . S
C1318 H1289 0.950 . S
C1318 C1317 1.334 . S
C1318 C1319 1.287 . S
C1319 C1318 1.287 . S
C1319 C1320 1.524 . S
C1319 H1322 0.999 . S
C1320 H1290 0.950 . S
C1320 C1319 1.524 . S
C1320 C1321 1.415 . S
C1321 H1291 0.950 . S
C1321 C1316 1.363 . S
C1321 C1320 1.415 . S
H1322 C1319 0.999 . S
H1323 C1304 0.913 . S
H1324 C1342 0.951 . S
H1325 C1344 0.951 . S
H1326 C1346 0.950 . S
H1327 C1347 0.950 . S
H1328 C1349 0.950 . S
H1329 C1352 0.950 . S
H1330 C1353 0.950 . S
H1331 C1355 0.950 . S
H1332 C1356 0.950 . S
H1333 C1357 0.951 . S
H1334 C1359 0.951 . S
H1335 C1361 0.950 . S
H1336 C1362 0.950 . S
H1337 C1364 0.950 . S
H1338 C1367 0.950 . S
H1339 C1368 0.950 . S
H1340 C1370 0.950 . S
H1341 C1371 0.950 . S
C1342 H1324 0.951 . S
C1342 C1343 1.366 . S
C1342 C1344 1.388 . S
C1343 C1342 1.366 . S
C1343 C1347 1.385 . S
C1344 H1325 0.951 . S
C1344 C1342 1.388 . S
C1344 C1345 1.366 . S
C1345 C1344 1.366 . S
C1345 C1346 1.414 . S
C1345 C1348 1.499 . S
C1346 H1326 0.950 . S
C1346 C1345 1.414 . S
C1346 C1347 1.374 . S
C1347 H1327 0.950 . S
C1347 C1343 1.385 . S
C1347 C1346 1.374 . S
C1348 C1345 1.499 . S
C1348 C1349 1.373 . S
C1348 C1350 1.389 . S
C1349 H1328 0.950 . S
C1349 C1348 1.373 . S
C1349 C1365 1.377 . S
C1350 C1348 1.389 . S
C1350 C1351 1.524 . S
C1350 C1364 1.377 . S
C1351 C1350 1.524 . S
C1351 C1352 1.397 . S
C1351 C1356 1.363 . S
C1352 H1329 0.950 . S
C1352 C1351 1.397 . S
C1352 C1353 1.334 . S
C1353 H1330 0.950 . S
C1353 C1352 1.334 . S
C1353 C1354 1.287 . S
C1354 C1353 1.287 . S
C1354 C1355 1.524 . S
C1354 H1373 0.913 . S
C1355 H1331 0.950 . S
C1355 C1354 1.524 . S
C1355 C1356 1.415 . S
C1356 H1332 0.950 . S
C1356 C1351 1.363 . S
C1356 C1355 1.415 . S
C1357 H1333 0.951 . S
C1357 C1358 1.366 . S
C1357 C1359 1.388 . S
C1358 C1357 1.366 . S
C1358 C1362 1.385 . S
C1359 H1334 0.951 . S
C1359 C1357 1.388 . S
C1359 C1360 1.366 . S
C1360 C1359 1.366 . S
C1360 C1361 1.414 . S
C1360 C1363 1.499 . S
C1361 H1335 0.950 . S
C1361 C1360 1.414 . S
C1361 C1362 1.374 . S
C1362 H1336 0.950 . S
C1362 C1358 1.385 . S
C1362 C1361 1.374 . S
C1363 C1360 1.499 . S
C1363 C1364 1.373 . S
C1363 C1365 1.389 . S
C1364 H1337 0.950 . S
C1364 C1350 1.377 . S
C1364 C1363 1.373 . S
C1365 C1349 1.377 . S
C1365 C1363 1.389 . S
C1365 C1366 1.524 . S
C1366 C1365 1.524 . S
C1366 C1367 1.397 . S
C1366 C1371 1.363 . S
C1367 H1338 0.950 . S
C1367 C1366 1.397 . S
C1367 C1368 1.334 . S
C1368 H1339 0.950 . S
C1368 C1367 1.334 . S
C1368 C1369 1.287 . S
C1369 C1368 1.287 . S
C1369 C1370 1.524 . S
C1369 H1372 0.999 . S
C1370 H1340 0.950 . S
C1370 C1369 1.524 . S
C1370 C1371 1.415 . S
C1371 H1341 0.950 . S
C1371 C1366 1.363 . S
C1371 C1370 1.415 . S
H1372 C1369 0.999 . S
H1373 C1354 0.913 . S
H1374 C1392 0.951 . S
H1375 C1394 0.951 . S
H1376 C1396 0.950 . S
H1377 C1397 0.950 . S
H1378 C1399 0.950 . S
H1379 C1402 0.950 . S
H1380 C1403 0.950 . S
H1381 C1405 0.950 . S
H1382 C1406 0.950 . S
H1383 C1407 0.951 . S
H1384 C1409 0.951 . S
H1385 C1411 0.950 . S
H1386 C1412 0.950 . S
H1387 C1414 0.950 . S
H1388 C1417 0.950 . S
H1389 C1418 0.950 . S
H1390 C1420 0.950 . S
H1391 C1421 0.950 . S
C1392 H1374 0.951 . S
C1392 C1393 1.366 . S
C1392 C1394 1.388 . S
C1393 C1392 1.366 . S
C1393 C1397 1.385 . S
C1394 H1375 0.951 . S
C1394 C1392 1.388 . S
C1394 C1395 1.366 . S
C1395 C1394 1.366 . S
C1395 C1396 1.414 . S
C1395 C1398 1.499 . S
C1396 H1376 0.950 . S
C1396 C1395 1.414 . S
C1396 C1397 1.374 . S
C1397 H1377 0.950 . S
C1397 C1393 1.385 . S
C1397 C1396 1.374 . S
C1398 C1395 1.499 . S
C1398 C1399 1.373 . S
C1398 C1400 1.389 . S
C1399 H1378 0.950 . S
C1399 C1398 1.373 . S
C1399 C1415 1.377 . S
C1400 C1398 1.389 . S
C1400 C1401 1.524 . S
C1400 C1414 1.377 . S
C1401 C1400 1.524 . S
C1401 C1402 1.397 . S
C1401 C1406 1.363 . S
C1402 H1379 0.950 . S
C1402 C1401 1.397 . S
C1402 C1403 1.334 . S
C1403 H1380 0.950 . S
C1403 C1402 1.334 . S
C1403 C1404 1.287 . S
C1404 C1403 1.287 . S
C1404 C1405 1.524 . S
C1404 H1423 0.913 . S
C1405 H1381 0.950 . S
C1405 C1404 1.524 . S
C1405 C1406 1.415 . S
C1406 H1382 0.950 . S
C1406 C1401 1.363 . S
C1406 C1405 1.415 . S
C1407 H1383 0.951 . S
C1407 C1408 1.366 . S
C1407 C1409 1.388 . S
C1408 C1407 1.366 . S
C1408 C1412 1.385 . S
C1409 H1384 0.951 . S
C1409 C1407 1.388 . S
C1409 C1410 1.366 . S
C1410 C1409 1.366 . S
C1410 C1411 1.414 . S
C1410 C1413 1.499 . S
C1411 H1385 0.950 . S
C1411 C1410 1.414 . S
C1411 C1412 1.374 . S
C1412 H1386 0.950 . S
C1412 C1408 1.385 . S
C1412 C1411 1.374 . S
C1413 C1410 1.499 . S
C1413 C1414 1.373 . S
C1413 C1415 1.389 . S
C1414 H1387 0.950 . S
C1414 C1400 1.377 . S
C1414 C1413 1.373 . S
C1415 C1399 1.377 . S
C1415 C1413 1.389 . S
C1415 C1416 1.524 . S
C1416 C1415 1.524 . S
C1416 C1417 1.397 . S
C1416 C1421 1.363 . S
C1417 H1388 0.950 . S
C1417 C1416 1.397 . S
C1417 C1418 1.334 . S
C1418 H1389 0.950 . S
C1418 C1417 1.334 . S
C1418 C1419 1.287 . S
C1419 C1418 1.287 . S
C1419 C1420 1.524 . S
C1419 H1422 0.999 . S
C1420 H1390 0.950 . S
C1420 C1419 1.524 . S
C1420 C1421 1.415 . S
C1421 H1391 0.950 . S
C1421 C1416 1.363 . S
C1421 C1420 1.415 . S
H1422 C1419 0.999 . S
H1423 C1404 0.913 . S
H1424 C1442 0.951 . S
H1425 C1444 0.951 . S
H1426 C1446 0.950 . S
H1427 C1447 0.950 . S
H1428 C1449 0.950 . S
H1429 C1452 0.950 . S
H1430 C1453 0.950 . S
H1431 C1455 0.950 . S
H1432 C1456 0.950 . S
H1433 C1457 0.951 . S
H1434 C1459 0.951 . S
H1435 C1461 0.950 . S
H1436 C1462 0.950 . S
H1437 C1464 0.950 . S
H1438 C1467 0.950 . S
H1439 C1468 0.950 . S
H1440 C1470 0.950 . S
H1441 C1471 0.950 . S
C1442 H1424 0.951 . S
C1442 C1443 1.366 . S
C1442 C1444 1.388 . S
C1443 C1442 1.366 . S
C1443 C1447 1.385 . S
C1444 H1425 0.951 . S
C1444 C1442 1.388 . S
C1444 C1445 1.366 . S
C1445 C1444 1.366 . S
C1445 C1446 1.414 . S
C1445 C1448 1.499 . S
C1446 H1426 0.950 . S
C1446 C1445 1.414 . S
C1446 C1447 1.374 . S
C1447 H1427 0.950 . S
C1447 C1443 1.385 . S
C1447 C1446 1.374 . S
C1448 C1445 1.499 . S
C1448 C1449 1.373 . S
C1448 C1450 1.389 . S
C1449 H1428 0.950 . S
C1449 C1448 1.373 . S
C1449 C1465 1.377 1_554 S
C1450 C1448 1.389 . S
C1450 C1451 1.524 . S
C1450 C1464 1.377 1_554 S
C1451 C1450 1.524 . S
C1451 C1452 1.397 . S
C1451 C1456 1.363 . S
C1452 H1429 0.950 . S
C1452 C1451 1.397 . S
C1452 C1453 1.334 . S
C1453 H1430 0.950 . S
C1453 C1452 1.334 . S
C1453 C1454 1.287 . S
C1454 C1453 1.287 . S
C1454 C1455 1.524 . S
C1454 H1473 0.913 . S
C1455 H1431 0.950 . S
C1455 C1454 1.524 . S
C1455 C1456 1.415 . S
C1456 H1432 0.950 . S
C1456 C1451 1.363 . S
C1456 C1455 1.415 . S
C1457 H1433 0.951 . S
C1457 C1458 1.366 . S
C1457 C1459 1.388 . S
C1458 C1457 1.366 . S
C1458 C1462 1.385 . S
C1459 H1434 0.951 . S
C1459 C1457 1.388 . S
C1459 C1460 1.366 . S
C1460 C1459 1.366 . S
C1460 C1461 1.414 . S
C1460 C1463 1.499 . S
C1461 H1435 0.950 . S
C1461 C1460 1.414 . S
C1461 C1462 1.374 . S
C1462 H1436 0.950 . S
C1462 C1458 1.385 . S
C1462 C1461 1.374 . S
C1463 C1460 1.499 . S
C1463 C1464 1.373 . S
C1463 C1465 1.389 . S
C1464 H1437 0.950 . S
C1464 C1450 1.377 1_556 S
C1464 C1463 1.373 . S
C1465 C1449 1.377 1_556 S
C1465 C1463 1.389 . S
C1465 C1466 1.524 . S
C1466 C1465 1.524 . S
C1466 C1467 1.397 . S
C1466 C1471 1.363 . S
C1467 H1438 0.950 . S
C1467 C1466 1.397 . S
C1467 C1468 1.334 . S
C1468 H1439 0.950 . S
C1468 C1467 1.334 . S
C1468 C1469 1.287 . S
C1469 C1468 1.287 . S
C1469 C1470 1.524 . S
C1469 H1472 0.999 . S
C1470 H1440 0.950 . S
C1470 C1469 1.524 . S
C1470 C1471 1.415 . S
C1471 H1441 0.950 . S
C1471 C1466 1.363 . S
C1471 C1470 1.415 . S
H1472 C1469 0.999 . S
H1473 C1454 0.913 . S
H1474 C1492 0.951 . S
H1475 C1494 0.951 . S
H1476 C1496 0.950 . S
H1477 C1497 0.950 . S
H1478 C1499 0.950 . S
H1479 C1502 0.950 . S
H1480 C1503 0.950 . S
H1481 C1505 0.950 . S
H1482 C1506 0.950 . S
H1483 C1507 0.951 . S
H1484 C1509 0.951 . S
H1485 C1511 0.950 . S
H1486 C1512 0.950 . S
H1487 C1514 0.950 . S
H1488 C1517 0.950 . S
H1489 C1518 0.950 . S
H1490 C1520 0.950 . S
H1491 C1521 0.950 . S
C1492 H1474 0.951 . S
C1492 C1493 1.366 . S
C1492 C1494 1.388 . S
C1493 C1492 1.366 . S
C1493 C1497 1.385 . S
C1494 H1475 0.951 . S
C1494 C1492 1.388 . S
C1494 C1495 1.366 . S
C1495 C1494 1.366 . S
C1495 C1496 1.414 . S
C1495 C1498 1.499 . S
C1496 H1476 0.950 . S
C1496 C1495 1.414 . S
C1496 C1497 1.374 . S
C1497 H1477 0.950 . S
C1497 C1493 1.385 . S
C1497 C1496 1.374 . S
C1498 C1495 1.499 . S
C1498 C1499 1.373 . S
C1498 C1500 1.389 . S
C1499 H1478 0.950 . S
C1499 C1498 1.373 . S
C1499 C1515 1.377 . S
C1500 C1498 1.389 . S
C1500 C1501 1.524 . S
C1500 C1514 1.377 . S
C1501 C1500 1.524 . S
C1501 C1502 1.397 . S
C1501 C1506 1.363 . S
C1502 H1479 0.950 . S
C1502 C1501 1.397 . S
C1502 C1503 1.334 . S
C1503 H1480 0.950 . S
C1503 C1502 1.334 . S
C1503 C1504 1.287 . S
C1504 C1503 1.287 . S
C1504 C1505 1.524 . S
C1504 H1523 0.913 . S
C1505 H1481 0.950 . S
C1505 C1504 1.524 . S
C1505 C1506 1.415 . S
C1506 H1482 0.950 . S
C1506 C1501 1.363 . S
C1506 C1505 1.415 . S
C1507 H1483 0.951 . S
C1507 C1508 1.366 . S
C1507 C1509 1.388 . S
C1508 C1507 1.366 . S
C1508 C1512 1.385 . S
C1509 H1484 0.951 . S
C1509 C1507 1.388 . S
C1509 C1510 1.366 . S
C1510 C1509 1.366 . S
C1510 C1511 1.414 . S
C1510 C1513 1.499 . S
C1511 H1485 0.950 . S
C1511 C1510 1.414 . S
C1511 C1512 1.374 . S
C1512 H1486 0.950 . S
C1512 C1508 1.385 . S
C1512 C1511 1.374 . S
C1513 C1510 1.499 . S
C1513 C1514 1.373 . S
C1513 C1515 1.389 . S
C1514 H1487 0.950 . S
C1514 C1500 1.377 . S
C1514 C1513 1.373 . S
C1515 C1499 1.377 . S
C1515 C1513 1.389 . S
C1515 C1516 1.524 . S
C1516 C1515 1.524 . S
C1516 C1517 1.397 . S
C1516 C1521 1.363 . S
C1517 H1488 0.950 . S
C1517 C1516 1.397 . S
C1517 C1518 1.334 . S
C1518 H1489 0.950 . S
C1518 C1517 1.334 . S
C1518 C1519 1.287 . S
C1519 C1518 1.287 . S
C1519 C1520 1.524 . S
C1519 H1522 0.999 . S
C1520 H1490 0.950 . S
C1520 C1519 1.524 . S
C1520 C1521 1.415 . S
C1521 H1491 0.950 . S
C1521 C1516 1.363 . S
C1521 C1520 1.415 . S
H1522 C1519 0.999 . S
H1523 C1504 0.913 . S
H1524 C1542 0.951 . S
H1525 C1544 0.951 . S
H1526 C1546 0.950 . S
H1527 C1547 0.950 . S
H1528 C1549 0.950 . S
H1529 C1552 0.950 . S
H1530 C1553 0.950 . S
H1531 C1555 0.950 . S
H1532 C1556 0.950 . S
H1533 C1557 0.951 . S
H1534 C1559 0.951 . S
H1535 C1561 0.950 . S
H1536 C1562 0.950 . S
H1537 C1564 0.950 . S
H1538 C1567 0.950 . S
H1539 C1568 0.950 . S
H1540 C1570 0.950 . S
H1541 C1571 0.950 . S
C1542 H1524 0.951 . S
C1542 C1543 1.366 . S
C1542 C1544 1.388 . S
C1543 C1542 1.366 . S
C1543 C1547 1.385 . S
C1544 H1525 0.951 . S
C1544 C1542 1.388 . S
C1544 C1545 1.366 . S
C1545 C1544 1.366 . S
C1545 C1546 1.414 . S
C1545 C1548 1.499 . S
C1546 H1526 0.950 . S
C1546 C1545 1.414 . S
C1546 C1547 1.374 . S
C1547 H1527 0.950 . S
C1547 C1543 1.385 . S
C1547 C1546 1.374 . S
C1548 C1545 1.499 . S
C1548 C1549 1.373 . S
C1548 C1550 1.389 1_655 S
C1549 H1528 0.950 . S
C1549 C1548 1.373 . S
C1549 C1565 1.377 1_554 S
C1550 C1548 1.389 1_455 S
C1550 C1551 1.524 . S
C1550 C1564 1.377 1_554 S
C1551 C1550 1.524 . S
C1551 C1552 1.397 . S
C1551 C1556 1.363 . S
C1552 H1529 0.950 . S
C1552 C1551 1.397 . S
C1552 C1553 1.334 . S
C1553 H1530 0.950 . S
C1553 C1552 1.334 . S
C1553 C1554 1.287 . S
C1554 C1553 1.287 . S
C1554 C1555 1.524 . S
C1554 H1573 0.913 . S
C1555 H1531 0.950 . S
C1555 C1554 1.524 . S
C1555 C1556 1.415 . S
C1556 H1532 0.950 . S
C1556 C1551 1.363 . S
C1556 C1555 1.415 . S
C1557 H1533 0.951 . S
C1557 C1558 1.366 . S
C1557 C1559 1.388 . S
C1558 C1557 1.366 . S
C1558 C1562 1.385 . S
C1559 H1534 0.951 . S
C1559 C1557 1.388 . S
C1559 C1560 1.366 . S
C1560 C1559 1.366 . S
C1560 C1561 1.414 . S
C1560 C1563 1.499 . S
C1561 H1535 0.950 . S
C1561 C1560 1.414 . S
C1561 C1562 1.374 . S
C1562 H1536 0.950 . S
C1562 C1558 1.385 . S
C1562 C1561 1.374 . S
C1563 C1560 1.499 . S
C1563 C1564 1.373 1_655 S
C1563 C1565 1.389 . S
C1564 H1537 0.950 . S
C1564 C1550 1.377 1_556 S
C1564 C1563 1.373 1_455 S
C1565 C1549 1.377 1_556 S
C1565 C1563 1.389 . S
C1565 C1566 1.524 . S
C1566 C1565 1.524 . S
C1566 C1567 1.397 . S
C1566 C1571 1.363 . S
C1567 H1538 0.950 . S
C1567 C1566 1.397 . S
C1567 C1568 1.334 . S
C1568 H1539 0.950 . S
C1568 C1567 1.334 . S
C1568 C1569 1.287 . S
C1569 C1568 1.287 . S
C1569 C1570 1.524 . S
C1569 H1572 0.999 . S
C1570 H1540 0.950 . S
C1570 C1569 1.524 . S
C1570 C1571 1.415 . S
C1571 H1541 0.950 . S
C1571 C1566 1.363 . S
C1571 C1570 1.415 . S
H1572 C1569 0.999 . S
H1573 C1554 0.913 . S
H1574 C1592 0.951 . S
H1575 C1594 0.951 . S
H1576 C1596 0.950 . S
H1577 C1597 0.950 . S
H1578 C1599 0.950 . S
H1579 C1602 0.950 1_565 S
H1580 C1603 0.950 . S
H1581 C1605 0.950 . S
H1582 C1606 0.950 . S
H1583 C1607 0.951 . S
H1584 C1609 0.951 . S
H1585 C1611 0.950 . S
H1586 C1612 0.950 . S
H1587 C1614 0.950 . S
H1588 C1617 0.950 . S
H1589 C1618 0.950 . S
H1590 C1620 0.950 . S
H1591 C1621 0.950 . S
C1592 H1574 0.951 . S
C1592 C1593 1.366 1_545 S
C1592 C1594 1.388 . S
C1593 C1592 1.366 1_565 S
C1593 C1597 1.385 . S
C1594 H1575 0.951 . S
C1594 C1592 1.388 . S
C1594 C1595 1.366 1_545 S
C1595 C1594 1.366 1_565 S
C1595 C1596 1.414 . S
C1595 C1598 1.499 . S
C1596 H1576 0.950 . S
C1596 C1595 1.414 . S
C1596 C1597 1.374 . S
C1597 H1577 0.950 . S
C1597 C1593 1.385 . S
C1597 C1596 1.374 . S
C1598 C1595 1.499 . S
C1598 C1599 1.373 . S
C1598 C1600 1.389 1_565 S
C1599 H1578 0.950 . S
C1599 C1598 1.373 . S
C1599 C1615 1.377 . S
C1600 C1598 1.389 1_545 S
C1600 C1601 1.524 . S
C1600 C1614 1.377 . S
C1601 C1600 1.524 . S
C1601 C1602 1.397 . S
C1601 C1606 1.363 . S
C1602 H1579 0.950 1_545 S
C1602 C1601 1.397 . S
C1602 C1603 1.334 . S
C1603 H1580 0.950 . S
C1603 C1602 1.334 . S
C1603 C1604 1.287 . S
C1604 C1603 1.287 . S
C1604 C1605 1.524 . S
C1604 H1623 0.913 . S
C1605 H1581 0.950 . S
C1605 C1604 1.524 . S
C1605 C1606 1.415 . S
C1606 H1582 0.950 . S
C1606 C1601 1.363 . S
C1606 C1605 1.415 . S
C1607 H1583 0.951 . S
C1607 C1608 1.366 . S
C1607 C1609 1.388 . S
C1608 C1607 1.366 . S
C1608 C1612 1.385 1_565 S
C1609 H1584 0.951 . S
C1609 C1607 1.388 . S
C1609 C1610 1.366 . S
C1610 C1609 1.366 . S
C1610 C1611 1.414 1_565 S
C1610 C1613 1.499 . S
C1611 H1585 0.950 . S
C1611 C1610 1.414 1_545 S
C1611 C1612 1.374 . S
C1612 H1586 0.950 . S
C1612 C1608 1.385 1_545 S
C1612 C1611 1.374 . S
C1613 C1610 1.499 . S
C1613 C1614 1.373 1_565 S
C1613 C1615 1.389 . S
C1614 H1587 0.950 . S
C1614 C1600 1.377 . S
C1614 C1613 1.373 1_545 S
C1615 C1599 1.377 . S
C1615 C1613 1.389 . S
C1615 C1616 1.524 . S
C1616 C1615 1.524 . S
C1616 C1617 1.397 . S
C1616 C1621 1.363 . S
C1617 H1588 0.950 . S
C1617 C1616 1.397 . S
C1617 C1618 1.334 . S
C1618 H1589 0.950 . S
C1618 C1617 1.334 . S
C1618 C1619 1.287 . S
C1619 C1618 1.287 . S
C1619 C1620 1.524 . S
C1619 H1622 0.999 . S
C1620 H1590 0.950 . S
C1620 C1619 1.524 . S
C1620 C1621 1.415 . S
C1621 H1591 0.950 . S
C1621 C1616 1.363 . S
C1621 C1620 1.415 . S
H1622 C1619 0.999 . S
H1623 C1604 0.913 . S
H1624 C1642 0.951 . S
H1625 C1644 0.951 . S
H1626 C1646 0.950 . S
H1627 C1647 0.950 . S
H1628 C1649 0.950 . S
H1629 C1652 0.950 . S
H1630 C1653 0.950 . S
H1631 C1655 0.950 . S
H1632 C1656 0.950 . S
H1633 C1657 0.951 . S
H1634 C1659 0.951 . S
H1635 C1661 0.950 . S
H1636 C1662 0.950 . S
H1637 C1664 0.950 . S
H1638 C1667 0.950 . S
H1639 C1668 0.950 . S
H1640 C1670 0.950 . S
H1641 C1671 0.950 . S
C1642 H1624 0.951 . S
C1642 C1643 1.366 . S
C1642 C1644 1.388 . S
C1643 C1642 1.366 . S
C1643 C1647 1.385 . S
C1644 H1625 0.951 . S
C1644 C1642 1.388 . S
C1644 C1645 1.366 . S
C1645 C1644 1.366 . S
C1645 C1646 1.414 . S
C1645 C1648 1.499 . S
C1646 H1626 0.950 . S
C1646 C1645 1.414 . S
C1646 C1647 1.374 . S
C1647 H1627 0.950 . S
C1647 C1643 1.385 . S
C1647 C1646 1.374 . S
C1648 C1645 1.499 . S
C1648 C1649 1.373 . S
C1648 C1650 1.389 . S
C1649 H1628 0.950 . S
C1649 C1648 1.373 . S
C1649 C1665 1.377 1_556 S
C1650 C1648 1.389 . S
C1650 C1651 1.524 . S
C1650 C1664 1.377 1_556 S
C1651 C1650 1.524 . S
C1651 C1652 1.397 . S
C1651 C1656 1.363 . S
C1652 H1629 0.950 . S
C1652 C1651 1.397 . S
C1652 C1653 1.334 . S
C1653 H1630 0.950 . S
C1653 C1652 1.334 . S
C1653 C1654 1.287 . S
C1654 C1653 1.287 . S
C1654 C1655 1.524 . S
C1654 H1673 0.913 . S
C1655 H1631 0.950 . S
C1655 C1654 1.524 . S
C1655 C1656 1.415 . S
C1656 H1632 0.950 . S
C1656 C1651 1.363 . S
C1656 C1655 1.415 . S
C1657 H1633 0.951 . S
C1657 C1658 1.366 . S
C1657 C1659 1.388 . S
C1658 C1657 1.366 . S
C1658 C1662 1.385 . S
C1659 H1634 0.951 . S
C1659 C1657 1.388 . S
C1659 C1660 1.366 . S
C1660 C1659 1.366 . S
C1660 C1661 1.414 . S
C1660 C1663 1.499 . S
C1661 H1635 0.950 . S
C1661 C1660 1.414 . S
C1661 C1662 1.374 . S
C1662 H1636 0.950 . S
C1662 C1658 1.385 . S
C1662 C1661 1.374 . S
C1663 C1660 1.499 . S
C1663 C1664 1.373 . S
C1663 C1665 1.389 . S
C1664 H1637 0.950 . S
C1664 C1650 1.377 1_554 S
C1664 C1663 1.373 . S
C1665 C1649 1.377 1_554 S
C1665 C1663 1.389 . S
C1665 C1666 1.524 . S
C1666 C1665 1.524 . S
C1666 C1667 1.397 . S
C1666 C1671 1.363 . S
C1667 H1638 0.950 . S
C1667 C1666 1.397 . S
C1667 C1668 1.334 . S
C1668 H1639 0.950 . S
C1668 C1667 1.334 . S
C1668 C1669 1.287 . S
C1669 C1668 1.287 . S
C1669 C1670 1.524 . S
C1669 H1672 0.999 . S
C1670 H1640 0.950 . S
C1670 C1669 1.524 . S
C1670 C1671 1.415 . S
C1671 H1641 0.950 . S
C1671 C1666 1.363 . S
C1671 C1670 1.415 . S
H1672 C1669 0.999 . S
H1673 C1654 0.913 . S
H1674 C1692 0.951 . S
H1675 C1694 0.951 . S
H1676 C1696 0.950 . S
H1677 C1697 0.950 . S
H1678 C1699 0.950 . S
H1679 C1702 0.950 . S
H1680 C1703 0.950 . S
H1681 C1705 0.950 . S
H1682 C1706 0.950 . S
H1683 C1707 0.951 . S
H1684 C1709 0.951 . S
H1685 C1711 0.950 . S
H1686 C1712 0.950 . S
H1687 C1714 0.950 . S
H1688 C1717 0.950 . S
H1689 C1718 0.950 . S
H1690 C1720 0.950 . S
H1691 C1721 0.950 . S
C1692 H1674 0.951 . S
C1692 C1693 1.366 . S
C1692 C1694 1.388 . S
C1693 C1692 1.366 . S
C1693 C1697 1.385 . S
C1694 H1675 0.951 . S
C1694 C1692 1.388 . S
C1694 C1695 1.366 . S
C1695 C1694 1.366 . S
C1695 C1696 1.414 . S
C1695 C1698 1.499 . S
C1696 H1676 0.950 . S
C1696 C1695 1.414 . S
C1696 C1697 1.374 . S
C1697 H1677 0.950 . S
C1697 C1693 1.385 . S
C1697 C1696 1.374 . S
C1698 C1695 1.499 . S
C1698 C1699 1.373 . S
C1698 C1700 1.389 . S
C1699 H1678 0.950 . S
C1699 C1698 1.373 . S
C1699 C1715 1.377 . S
C1700 C1698 1.389 . S
C1700 C1701 1.524 . S
C1700 C1714 1.377 . S
C1701 C1700 1.524 . S
C1701 C1702 1.397 . S
C1701 C1706 1.363 . S
C1702 H1679 0.950 . S
C1702 C1701 1.397 . S
C1702 C1703 1.334 . S
C1703 H1680 0.950 . S
C1703 C1702 1.334 . S
C1703 C1704 1.287 . S
C1704 C1703 1.287 . S
C1704 C1705 1.524 . S
C1704 H1723 0.913 . S
C1705 H1681 0.950 . S
C1705 C1704 1.524 . S
C1705 C1706 1.415 . S
C1706 H1682 0.950 . S
C1706 C1701 1.363 . S
C1706 C1705 1.415 . S
C1707 H1683 0.951 . S
C1707 C1708 1.366 . S
C1707 C1709 1.388 . S
C1708 C1707 1.366 . S
C1708 C1712 1.385 . S
C1709 H1684 0.951 . S
C1709 C1707 1.388 . S
C1709 C1710 1.366 . S
C1710 C1709 1.366 . S
C1710 C1711 1.414 . S
C1710 C1713 1.499 . S
C1711 H1685 0.950 . S
C1711 C1710 1.414 . S
C1711 C1712 1.374 . S
C1712 H1686 0.950 . S
C1712 C1708 1.385 . S
C1712 C1711 1.374 . S
C1713 C1710 1.499 . S
C1713 C1714 1.373 . S
C1713 C1715 1.389 . S
C1714 H1687 0.950 . S
C1714 C1700 1.377 . S
C1714 C1713 1.373 . S
C1715 C1699 1.377 . S
C1715 C1713 1.389 . S
C1715 C1716 1.524 . S
C1716 C1715 1.524 . S
C1716 C1717 1.397 . S
C1716 C1721 1.363 . S
C1717 H1688 0.950 . S
C1717 C1716 1.397 . S
C1717 C1718 1.334 . S
C1718 H1689 0.950 . S
C1718 C1717 1.334 . S
C1718 C1719 1.287 . S
C1719 C1718 1.287 . S
C1719 C1720 1.524 . S
C1719 H1722 0.999 . S
C1720 H1690 0.950 . S
C1720 C1719 1.524 . S
C1720 C1721 1.415 . S
C1721 H1691 0.950 . S
C1721 C1716 1.363 . S
C1721 C1720 1.415 . S
H1722 C1719 0.999 . S
H1723 C1704 0.913 . S
H1724 C1742 0.951 . S
H1725 C1744 0.951 . S
H1726 C1746 0.950 . S
H1727 C1747 0.950 . S
H1728 C1749 0.950 . S
H1729 C1752 0.993 . S
H1730 C1753 0.944 1_455 S
H1731 C1755 0.950 . S
H1732 C1756 0.950 . S
H1733 C1757 0.951 . S
H1734 C1759 0.951 . S
H1735 C1761 0.950 . S
H1736 C1762 0.950 . S
H1737 C1764 0.971 . S
H1738 C1767 0.950 . S
H1739 C1768 0.950 . S
H1740 C1770 0.950 . S
H1741 C1771 0.950 . S
C1742 H1724 0.951 . S
C1742 C1743 1.366 1_655 S
C1742 C1744 1.388 . S
C1743 C1742 1.366 1_455 S
C1743 C1747 1.385 . S
C1744 H1725 0.951 . S
C1744 C1742 1.388 . S
C1744 C1745 1.366 1_655 S
C1745 C1744 1.366 1_455 S
C1745 C1746 1.414 . S
C1745 C1748 1.499 . S
C1746 H1726 0.950 . S
C1746 C1745 1.414 . S
C1746 C1747 1.374 . S
C1747 H1727 0.950 . S
C1747 C1743 1.385 . S
C1747 C1746 1.374 . S
C1748 C1745 1.499 . S
C1748 C1749 1.373 . S
C1748 C1750 1.393 . S
C1749 H1728 0.950 . S
C1749 C1748 1.373 . S
C1749 C1765 1.377 1_554 S
C1750 C1748 1.393 . S
C1750 C1751 1.521 1_455 S
C1750 C1764 1.375 1_454 S
C1751 C1750 1.521 1_655 S
C1751 C1752 1.372 1_655 S
C1751 C1756 1.363 . S
C1752 H1729 0.993 . S
C1752 C1751 1.372 1_455 S
C1752 C1753 1.317 1_455 S
C1753 H1730 0.944 1_655 S
C1753 C1752 1.317 1_655 S
C1753 C1754 1.287 . S
C1754 C1753 1.287 . S
C1754 C1755 1.524 . S
C1754 H1773 0.913 . S
C1755 H1731 0.950 . S
C1755 C1754 1.524 . S
C1755 C1756 1.415 . S
C1756 H1732 0.950 . S
C1756 C1751 1.363 . S
C1756 C1755 1.415 . S
C1757 H1733 0.951 . S
C1757 C1758 1.366 . S
C1757 C1759 1.388 . S
C1758 C1757 1.366 . S
C1758 C1762 1.385 1_455 S
C1759 H1734 0.951 . S
C1759 C1757 1.388 . S
C1759 C1760 1.366 . S
C1760 C1759 1.366 . S
C1760 C1761 1.414 1_455 S
C1760 C1763 1.499 . S
C1761 H1735 0.950 . S
C1761 C1760 1.414 1_655 S
C1761 C1762 1.374 . S
C1762 H1736 0.950 . S
C1762 C1758 1.385 1_655 S
C1762 C1761 1.374 . S
C1763 C1760 1.499 . S
C1763 C1764 1.355 1_455 S
C1763 C1765 1.389 . S
C1764 H1737 0.971 . S
C1764 C1750 1.375 1_656 S
C1764 C1763 1.355 1_655 S
C1765 C1749 1.377 1_556 S
C1765 C1763 1.389 . S
C1765 C1766 1.524 . S
C1766 C1765 1.524 . S
C1766 C1767 1.397 . S
C1766 C1771 1.363 . S
C1767 H1738 0.950 . S
C1767 C1766 1.397 . S
C1767 C1768 1.334 . S
C1768 H1739 0.950 . S
C1768 C1767 1.334 . S
C1768 C1769 1.287 . S
C1769 C1768 1.287 . S
C1769 C1770 1.524 . S
C1769 H1772 0.999 . S
C1770 H1740 0.950 . S
C1770 C1769 1.524 . S
C1770 C1771 1.415 . S
C1771 H1741 0.950 . S
C1771 C1766 1.363 . S
C1771 C1770 1.415 . S
H1772 C1769 0.999 . S
H1773 C1754 0.913 . S
H1774 C1792 0.958 . S
H1775 C1794 0.972 . S
H1776 C1796 0.950 . S
H1777 C1797 0.950 . S
H1778 C1799 0.950 . S
H1779 C1802 0.950 . S
H1780 C1803 0.950 . S
H1781 C1805 0.950 . S
H1782 C1806 0.950 . S
H1783 C1807 0.951 . S
H1784 C1809 0.951 . S
H1785 C1811 0.955 . S
H1786 C1812 0.958 . S
H1787 C1814 0.950 . S
H1788 C1817 0.950 . S
H1789 C1818 0.950 . S
H1790 C1820 0.950 . S
H1791 C1821 0.950 . S
C1792 H1774 0.958 . S
C1792 C1793 1.358 1_565 S
C1792 C1794 1.388 . S
C1793 C1792 1.358 1_545 S
C1793 C1797 1.385 . S
C1794 H1775 0.972 . S
C1794 C1792 1.388 . S
C1794 C1795 1.347 1_565 S
C1795 C1794 1.347 1_545 S
C1795 C1796 1.414 . S
C1795 C1798 1.499 . S
C1796 H1776 0.950 . S
C1796 C1795 1.414 . S
C1796 C1797 1.374 . S
C1797 H1777 0.950 . S
C1797 C1793 1.385 . S
C1797 C1796 1.374 . S
C1798 C1795 1.499 . S
C1798 C1799 1.373 . S
C1798 C1800 1.389 1_545 S
C1799 H1778 0.950 . S
C1799 C1798 1.373 . S
C1799 C1815 1.377 . S
C1800 C1798 1.389 1_565 S
C1800 C1801 1.524 . S
C1800 C1814 1.377 . S
C1801 C1800 1.524 . S
C1801 C1802 1.397 . S
C1801 C1806 1.363 . S
C1802 H1779 0.950 . S
C1802 C1801 1.397 . S
C1802 C1803 1.334 . S
C1803 H1780 0.950 . S
C1803 C1802 1.334 . S
C1803 C1804 1.287 . S
C1804 C1803 1.287 . S
C1804 C1805 1.524 . S
C1804 H1823 0.913 . S
C1805 H1781 0.950 . S
C1805 C1804 1.524 . S
C1805 C1806 1.415 . S
C1806 H1782 0.950 . S
C1806 C1801 1.363 . S
C1806 C1805 1.415 . S
C1807 H1783 0.951 . S
C1807 C1808 1.366 . S
C1807 C1809 1.388 . S
C1808 C1807 1.366 . S
C1808 C1812 1.377 1_545 S
C1809 H1784 0.951 . S
C1809 C1807 1.388 . S
C1809 C1810 1.366 . S
C1810 C1809 1.366 . S
C1810 C1811 1.410 1_545 S
C1810 C1813 1.499 . S
C1811 H1785 0.955 . S
C1811 C1810 1.410 1_565 S
C1811 C1812 1.374 . S
C1812 H1786 0.958 . S
C1812 C1808 1.377 1_565 S
C1812 C1811 1.374 . S
C1813 C1810 1.499 . S
C1813 C1814 1.373 1_545 S
C1813 C1815 1.389 . S
C1814 H1787 0.950 . S
C1814 C1800 1.377 . S
C1814 C1813 1.373 1_565 S
C1815 C1799 1.377 . S
C1815 C1813 1.389 . S
C1815 C1816 1.524 . S
C1816 C1815 1.524 . S
C1816 C1817 1.397 . S
C1816 C1821 1.363 . S
C1817 H1788 0.950 . S
C1817 C1816 1.397 . S
C1817 C1818 1.334 . S
C1818 H1789 0.950 . S
C1818 C1817 1.334 . S
C1818 C1819 1.287 . S
C1819 C1818 1.287 . S
C1819 C1820 1.524 . S
C1819 H1822 0.999 . S
C1820 H1790 0.950 . S
C1820 C1819 1.524 . S
C1820 C1821 1.415 . S
C1821 H1791 0.950 . S
C1821 C1816 1.363 . S
C1821 C1820 1.415 . S
H1822 C1819 0.999 . S
H1823 C1804 0.913 . S
C243 C11 1.240 . S
C258 C109 1.240 . S
C293 C25 1.239 . S
C308 C67 1.239 . S
C343 C39 1.239 . S
C358 C81 1.239 . S
C393 C53 1.239 . S
C408 C95 1.240 . S
C443 C123 1.239 . S
C458 C221 1.240 . S
C493 C179 1.239 . S
C508 C137 1.240 . S
C543 C151 1.240 . S
C558 C193 1.239 . S
C593 C165 1.239 . S
C608 C207 1.239 . S
C643 C5 1.424 . S
C658 C135 1.440 . S
C693 C19 1.424 . S
C708 C149 1.440 . S
C743 C163 1.440 . S
C758 C33 1.424 . S
C793 C47 1.424 . S
C808 C121 1.440 . S
C843 C61 1.423 . S
C858 C219 1.440 . S
C893 C177 1.440 . S
C908 C75 1.423 . S
C943 C191 1.440 . S
C958 C89 1.424 . S
C993 C205 1.440 . S
C1008 C103 1.424 . S
C1043 C23 1.440 . S
C1058 C117 1.424 . S
C1093 C37 1.440 . S
C1108 C131 1.424 . S
C1143 C145 1.424 . S
C1158 C51 1.440 . S
C1193 C9 1.440 . S
C1208 C159 1.424 . S
C1243 C173 1.424 . S
C1258 C107 1.440 . S
C1293 C187 1.424 . S
C1308 C65 1.440 . S
C1343 C79 1.440 . S
C1358 C201 1.424 . S
C1393 C93 1.440 . S
C1408 C215 1.424 . S
C1443 C0 1.584 . S
C1458 C56 1.583 . S
C1493 C70 1.583 . S
C1508 C14 1.583 . S
C1543 C28 1.583 . S
C1558 C84 1.584 . S
C1593 C98 1.583 . S
C1608 C42 1.583 . S
C1643 C112 1.583 . S
C1658 C168 1.583 . S
C1693 C182 1.583 . S
C1708 C126 1.583 . S
C1743 C196 1.583 . S
C1758 C140 1.583 . S
C1793 C210 1.583 . S
C1808 C154 1.584 . S
