# Generated by pormake.
# Topology wjw, (5)-cn, num edge types: 1
# Building blocks:
#     Node 0, Type 0, BuildingBlock: XOMCOT_clean_sbu_1, # of connection points: 5
#     Node 1, Type 0, BuildingBlock: XOMCOT_clean_sbu_1, # of connection points: 5
#     Node 2, Type 0, BuildingBlock: XOMCOT_clean_sbu_1, # of connection points: 5
#     Node 3, Type 0, BuildingBlock: XOMCOT_clean_sbu_1, # of connection points: 5
#     Node 4, Type 0, BuildingBlock: XOMCOT_clean_sbu_1, # of connection points: 5
#     Node 5, Type 0, BuildingBlock: XOMCOT_clean_sbu_1, # of connection points: 5
#     Node 6, Type 0, BuildingBlock: XOMCOT_clean_sbu_1, # of connection points: 5
#     Node 7, Type 0, BuildingBlock: XOMCOT_clean_sbu_1, # of connection points: 5
#     Node 8, Type 0, BuildingBlock: XOMCOT_clean_sbu_1, # of connection points: 5
#     Node 9, Type 0, BuildingBlock: XOMCOT_clean_sbu_1, # of connection points: 5
#     Node 10, Type 0, BuildingBlock: XOMCOT_clean_sbu_1, # of connection points: 5
#     Node 11, Type 0, BuildingBlock: XOMCOT_clean_sbu_1, # of connection points: 5
#     Edge 12, Type (0, 0), BuildingBlock: OJICUG_clean_linker_0, # of connection points: 2
#     Edge 13, Type (0, 0), BuildingBlock: OJICUG_clean_linker_0, # of connection points: 2
#     Edge 14, Type (0, 0), BuildingBlock: OJICUG_clean_linker_0, # of connection points: 2
#     Edge 15, Type (0, 0), BuildingBlock: OJICUG_clean_linker_0, # of connection points: 2
#     Edge 16, Type (0, 0), BuildingBlock: OJICUG_clean_linker_0, # of connection points: 2
#     Edge 17, Type (0, 0), BuildingBlock: OJICUG_clean_linker_0, # of connection points: 2
#     Edge 18, Type (0, 0), BuildingBlock: OJICUG_clean_linker_0, # of connection points: 2
#     Edge 19, Type (0, 0), BuildingBlock: OJICUG_clean_linker_0, # of connection points: 2
#     Edge 20, Type (0, 0), BuildingBlock: OJICUG_clean_linker_0, # of connection points: 2
#     Edge 21, Type (0, 0), BuildingBlock: OJICUG_clean_linker_0, # of connection points: 2
#     Edge 22, Type (0, 0), BuildingBlock: OJICUG_clean_linker_0, # of connection points: 2
#     Edge 23, Type (0, 0), BuildingBlock: OJICUG_clean_linker_0, # of connection points: 2
#     Edge 24, Type (0, 0), BuildingBlock: OJICUG_clean_linker_0, # of connection points: 2
#     Edge 25, Type (0, 0), BuildingBlock: OJICUG_clean_linker_0, # of connection points: 2
#     Edge 26, Type (0, 0), BuildingBlock: OJICUG_clean_linker_0, # of connection points: 2
#     Edge 27, Type (0, 0), BuildingBlock: OJICUG_clean_linker_0, # of connection points: 2
#     Edge 28, Type (0, 0), BuildingBlock: OJICUG_clean_linker_0, # of connection points: 2
#     Edge 29, Type (0, 0), BuildingBlock: OJICUG_clean_linker_0, # of connection points: 2
#     Edge 30, Type (0, 0), BuildingBlock: OJICUG_clean_linker_0, # of connection points: 2
#     Edge 31, Type (0, 0), BuildingBlock: OJICUG_clean_linker_0, # of connection points: 2
#     Edge 32, Type (0, 0), BuildingBlock: OJICUG_clean_linker_0, # of connection points: 2
#     Edge 33, Type (0, 0), BuildingBlock: OJICUG_clean_linker_0, # of connection points: 2
#     Edge 34, Type (0, 0), BuildingBlock: OJICUG_clean_linker_0, # of connection points: 2
#     Edge 35, Type (0, 0), BuildingBlock: OJICUG_clean_linker_0, # of connection points: 2
#     Edge 36, Type (0, 0), BuildingBlock: OJICUG_clean_linker_0, # of connection points: 2
#     Edge 37, Type (0, 0), BuildingBlock: OJICUG_clean_linker_0, # of connection points: 2
#     Edge 38, Type (0, 0), BuildingBlock: OJICUG_clean_linker_0, # of connection points: 2
#     Edge 39, Type (0, 0), BuildingBlock: OJICUG_clean_linker_0, # of connection points: 2
#     Edge 40, Type (0, 0), BuildingBlock: OJICUG_clean_linker_0, # of connection points: 2
#     Edge 41, Type (0, 0), BuildingBlock: OJICUG_clean_linker_0, # of connection points: 2
# Relax obj value: 0.186
# Max RMSD: 0.166
# Mean RMSD: 0.161
data_MOF--net-wjw--node1-XOMCOT_clean_sbu_1--edge1-OJICUG_clean_linker_0
_symmetry_space_group_name_H-M    P1
_symmetry_Int_Tables_number       1
_symmetry_cell_setting            triclinic
loop_
_symmetry_equiv_pos_as_xyz
'x, y, z'
_cell_length_a     30.907612
_cell_length_b     30.801233
_cell_length_c     26.269892
_cell_angle_alpha  90.070779
_cell_angle_beta   90.075285
_cell_angle_gamma 119.62855
loop_
_atom_site_label
_atom_site_type_symbol
_atom_site_fract_x
_atom_site_fract_y
_atom_site_fract_z
_atom_type_partial_charge
C0 C 0.25441 0.41273 0.27076 0.0
C1 C 0.28302 0.38986 0.27358 0.0
N2 N 0.25832 0.348 0.30132 0.0
N3 N 0.21187 0.38595 0.29745 0.0
C4 C 0.21464 0.34542 0.31324 0.0
H5 H 0.26545 0.44747 0.25145 0.0
Co6 Co 0.15837 0.39817 0.31463 0.0
C7 C 0.1956 0.3812 0.41232 0.0
O8 O 0.24042 0.41203 0.39503 0.0
N9 N 0.10439 0.40812 0.33053 0.0
C10 C 0.03023 0.39355 0.35772 0.0
C11 C 0.06319 0.37565 0.3561 0.0
C12 C 0.09558 0.44556 0.31693 0.0
N13 N 0.05056 0.43763 0.33311 0.0
O14 O 0.11231 0.33414 0.28766 0.0
H15 H 0.05722 0.34078 0.37211 0.0
H16 H 0.12139 0.47764 0.29491 0.0
O17 O 0.15715 0.37159 0.38493 0.0
C18 C 0.11274 0.33647 0.23906 0.0
O19 O 0.14851 0.37646 0.21715 0.0
N20 N 0.20184 0.46357 0.3358 0.0
C21 C 0.26982 0.56235 0.35762 0.0
C22 C 0.26104 0.54543 0.30716 0.0
C23 C 0.22583 0.49593 0.29708 0.0
C24 C 0.20424 0.48141 0.384 0.0
C25 C 0.23942 0.53049 0.39612 0.0
H26 H 0.21805 0.48295 0.25813 0.0
H27 H 0.17966 0.45774 0.41353 0.0
H28 H 0.18623 0.31583 0.33603 0.0
H29 H 0.32045 0.40459 0.25907 0.0
H30 H 0.99433 0.37576 0.37634 0.0
H31 H 0.28261 0.56941 0.27607 0.0
H32 H 0.2435 0.54313 0.43524 0.0
C33 C 0.85795 0.21175 0.60243 0.0
C34 C 0.90904 0.23288 0.60608 0.0
N35 N 0.91973 0.21682 0.64948 0.0
N36 N 0.83661 0.18246 0.64335 0.0
C37 C 0.87527 0.18569 0.67064 0.0
H38 H 0.83787 0.21968 0.57354 0.0
Co39 Co 0.76956 0.15221 0.66435 0.0
C40 C 0.78191 0.13054 0.77446 0.0
O41 O 0.7453 0.08411 0.77408 0.0
N42 N 0.70256 0.12244 0.68776 0.0
C43 C 0.64051 0.11471 0.73671 0.0
C44 C 0.69068 0.14069 0.72895 0.0
C45 C 0.65799 0.08493 0.6708 0.0
N46 N 0.61956 0.07932 0.70051 0.0
O47 O 0.76295 0.08803 0.65221 0.0
H48 H 0.71699 0.17187 0.75181 0.0
H49 H 0.65385 0.06199 0.6379 0.0
O50 O 0.79217 0.15695 0.73431 0.0
C51 C 0.75745 0.08417 0.60379 0.0
O52 O 0.75501 0.12003 0.57912 0.0
N53 N 0.77481 0.21453 0.66927 0.0
C54 C 0.76996 0.30221 0.67297 0.0
C55 C 0.80742 0.29811 0.69956 0.0
C56 C 0.80888 0.25359 0.69761 0.0
C57 C 0.74113 0.21921 0.63984 0.0
C58 C 0.73694 0.26194 0.64233 0.0
H59 H 0.83728 0.25051 0.71859 0.0
H60 H 0.71568 0.1884 0.61599 0.0
H61 H 0.87138 0.16735 0.70675 0.0
H62 H 0.93623 0.26068 0.58079 0.0
H63 H 0.62078 0.12171 0.76675 0.0
H64 H 0.83531 0.32871 0.72192 0.0
H65 H 0.70695 0.26226 0.62144 0.0
C66 C 0.62263 0.85109 0.95357 0.0
C67 C 0.64553 0.90201 0.95964 0.0
N68 N 0.68745 0.91696 0.98674 0.0
N69 N 0.64899 0.83319 0.97832 0.0
C70 C 0.68984 0.87504 0.9956 0.0
H71 H 0.58771 0.82928 0.93415 0.0
Co72 Co 0.63362 0.76596 0.99423 0.0
C73 C 0.64723 0.81751 0.09304 0.0
O74 O 0.62056 0.83615 0.074 0.0
N75 N 0.62019 0.70033 1.00965 0.0
C76 C 0.62944 0.63796 0.04009 0.0
C77 C 0.6513 0.68903 0.03494 0.0
C78 C 0.57952 0.65524 0.99973 0.0
N79 N 0.58406 0.6165 1.01811 0.0
O80 O 0.69841 0.78205 0.97082 0.0
H81 H 0.68752 0.71633 0.0493 0.0
H82 H 0.54708 0.65086 0.97951 0.0
O83 O 0.65601 0.78774 0.06596 0.0
C84 C 0.6975 0.7833 0.92218 0.0
O85 O 0.65745 0.77907 0.89996 0.0
N86 N 0.5682 0.74668 1.01109 0.0
C87 C 0.46936 0.72037 1.0241 0.0
C88 C 0.49735 0.71862 0.06536 0.0
C89 C 0.54672 0.73097 0.05778 0.0
C90 C 0.53935 0.74043 0.96963 0.0
C91 C 0.49024 0.72909 0.97527 0.0
H92 H 0.56748 0.72807 0.0894 0.0
H93 H 0.55527 0.74605 0.93195 0.0
H94 H 0.71816 0.87422 1.01921 0.0
H95 H 0.63087 0.92589 0.9478 0.0
H96 H 0.64531 0.61828 0.05984 0.0
H97 H 0.48164 0.70876 0.10321 0.0
H98 H 0.46995 0.72951 0.94185 0.0
C99 C 0.77829 0.61895 0.26464 0.0
C100 C 0.75495 0.64704 0.27008 0.0
N101 N 0.78284 0.68589 0.30097 0.0
N102 N 0.82051 0.63955 0.29279 0.0
C103 C 0.82308 0.68157 0.31229 0.0
H104 H 0.76354 0.5845 0.24347 0.0
Co105 Co 0.86721 0.61818 0.31026 0.0
C106 C 0.82651 0.63069 0.4083 0.0
O107 O 0.78212 0.60637 0.38728 0.0
N108 N 0.9152 0.59978 0.32808 0.0
C109 C 0.98517 0.60818 0.36144 0.0
C110 C 0.9545 0.62852 0.35824 0.0
C111 C 0.92276 0.56167 0.31352 0.0
N112 N 0.96542 0.56611 0.33332 0.0
O113 O 0.9201 0.68276 0.29159 0.0
H114 H 0.961 0.66288 0.37616 0.0
H115 H 0.89821 0.53202 0.288 0.0
O116 O 0.86506 0.63798 0.38264 0.0
C117 C 0.92169 0.68422 0.24292 0.0
O118 O 0.88551 0.6473 0.21753 0.0
N119 N 0.81675 0.5525 0.32143 0.0
C120 C 0.73826 0.45423 0.32285 0.0
C121 C 0.76185 0.47915 0.36831 0.0
C122 C 0.80257 0.52744 0.3665 0.0
C123 C 0.79831 0.52739 0.27693 0.0
C124 C 0.75908 0.4784 0.27664 0.0
H125 H 0.8218 0.54468 0.40146 0.0
H126 H 0.81383 0.54601 0.24121 0.0
H127 H 0.85208 0.70654 0.33815 0.0
H128 H 0.71832 0.63729 0.25594 0.0
H129 H 0.01935 0.62311 0.38321 0.0
H130 H 0.74882 0.46253 0.40531 0.0
H131 H 0.74524 0.46017 0.2403 0.0
C132 C 0.17267 0.80466 0.60024 0.0
C133 C 0.12151 0.7831 0.60321 0.0
N134 N 0.11028 0.80028 0.6455 0.0
N135 N 0.19355 0.83535 0.64048 0.0
C136 C 0.15453 0.83253 0.66662 0.0
H137 H 0.19311 0.79598 0.57248 0.0
Co138 Co 0.26042 0.86631 0.66264 0.0
C139 C 0.24614 0.88948 0.77216 0.0
O140 O 0.28271 0.93593 0.77204 0.0
N141 N 0.32712 0.89674 0.68716 0.0
C142 C 0.38879 0.90551 0.73757 0.0
C143 C 0.33864 0.87951 0.72936 0.0
C144 C 0.37184 0.93364 0.67006 0.0
N145 N 0.41006 0.93989 0.70063 0.0
O146 O 0.26706 0.93046 0.64844 0.0
H147 H 0.31213 0.84891 0.75253 0.0
H148 H 0.37624 0.95559 0.63634 0.0
O149 O 0.23679 0.86271 0.73222 0.0
C150 C 0.27244 0.93316 0.59997 0.0
O151 O 0.27458 0.89661 0.57634 0.0
N152 N 0.25543 0.8041 0.66926 0.0
C153 C 0.2594 0.71587 0.67347 0.0
C154 C 0.22227 0.72059 0.69988 0.0
C155 C 0.22118 0.76534 0.6976 0.0
C156 C 0.28922 0.79902 0.6405 0.0
C157 C 0.29289 0.75597 0.64318 0.0
H158 H 0.19276 0.76871 0.71809 0.0
H159 H 0.31487 0.82956 0.61668 0.0
H160 H 0.15806 0.85191 0.70204 0.0
H161 H 0.09467 0.75419 0.57841 0.0
H162 H 0.40826 0.89909 0.76834 0.0
H163 H 0.19419 0.6902 0.72212 0.0
H164 H 0.32269 0.75513 0.6225 0.0
C165 C 0.40804 0.17795 0.97102 0.0
C166 C 0.39077 0.12751 0.97599 0.0
N167 N 0.35074 0.10833 1.00662 0.0
N168 N 0.37984 0.19104 0.99941 0.0
C169 C 0.34431 0.1472 1.01939 0.0
H170 H 0.44006 0.20342 0.94898 0.0
Co171 Co 0.39231 0.25686 1.01375 0.0
C172 C 0.32225 0.2139 0.10615 0.0
O173 O 0.28191 0.21085 0.08602 0.0
N174 N 0.40491 0.32246 0.02799 0.0
C175 C 0.39597 0.38694 0.05222 0.0
C176 C 0.37412 0.33557 0.05112 0.0
C177 C 0.44516 0.36673 1.01507 0.0
N178 N 0.44086 0.40672 0.02958 0.0
O179 O 0.33058 0.24191 0.9821 0.0
H180 H 0.33775 0.30952 0.06581 0.0
H181 H 0.47671 0.36972 0.9944 0.0
O182 O 0.36247 0.23241 0.08043 0.0
C183 C 0.33505 0.24151 0.93374 0.0
O184 O 0.37652 0.24597 0.91519 0.0
N185 N 0.45464 0.2733 0.03954 0.0
C186 C 0.54687 0.28353 0.06044 0.0
C187 C 0.51246 0.27259 0.09968 0.0
C188 C 0.46658 0.26881 0.0886 0.0
C189 C 0.48946 0.28827 1.00209 0.0
C190 C 0.53607 0.29369 1.0117 0.0
H191 H 0.44074 0.261 0.11928 0.0
H192 H 0.47977 0.2932 0.96378 0.0
H193 H 0.31525 0.14366 0.0446 0.0
H194 H 0.40696 0.10671 0.95922 0.0
H195 H 0.38012 0.40803 0.06902 0.0
H196 H 0.5205 0.26577 0.13807 0.0
H197 H 0.56214 0.30254 0.98065 0.0
C198 C 0.62245 0.76873 0.45001 0.0
C199 C 0.65042 0.74545 0.44335 0.0
N200 N 0.68936 0.77441 0.41336 0.0
N201 N 0.64323 0.81203 0.42354 0.0
C202 C 0.68514 0.81508 0.40363 0.0
H203 H 0.58815 0.75337 0.47115 0.0
Co204 Co 0.62318 0.86057 0.40959 0.0
C205 C 0.63472 0.82351 0.30959 0.0
O206 O 0.60872 0.77862 0.32927 0.0
N207 N 0.60606 0.91036 0.39574 0.0
C208 C 0.61538 0.98373 0.37145 0.0
C209 C 0.63747 0.95447 0.37375 0.0
C210 C 0.56464 0.91354 0.40603 0.0
N211 N 0.56952 0.95797 0.39162 0.0
O212 O 0.68733 0.91157 0.43201 0.0
H213 H 0.67443 0.96489 0.36039 0.0
H214 H 0.53178 0.88422 0.42422 0.0
O215 O 0.64394 0.86213 0.33673 0.0
C216 C 0.68619 0.91047 0.48074 0.0
O217 O 0.64805 0.87286 0.50302 0.0
N218 N 0.5578 0.81189 0.39511 0.0
C219 C 0.45739 0.74087 0.38886 0.0
C220 C 0.48336 0.76769 0.34549 0.0
C221 C 0.53328 0.80443 0.34983 0.0
C222 C 0.53187 0.79009 0.43824 0.0
C223 C 0.48183 0.75407 0.43603 0.0
H224 H 0.55192 0.82676 0.31687 0.0
H225 H 0.55025 0.80119 0.47481 0.0
H226 H 0.71043 0.84511 0.37904 0.0
H227 H 0.64079 0.7084 0.45633 0.0
H228 H 0.6314 0.02078 0.35524 0.0
H229 H 0.46579 0.75996 0.30839 0.0
H230 H 0.4626 0.73666 0.47101 0.0
C231 C 0.85521 0.63267 0.77018 0.0
C232 C 0.90638 0.66025 0.76819 0.0
N233 N 0.91909 0.70024 0.73841 0.0
N234 N 0.83549 0.65466 0.7409 0.0
C235 C 0.8757 0.69713 0.72439 0.0
H236 H 0.8345 0.59807 0.79061 0.0
Co237 Co 0.76853 0.6348 0.72196 0.0
C238 C 0.82399 0.65182 0.62472 0.0
O239 O 0.84649 0.62956 0.64568 0.0
N240 N 0.70287 0.61722 0.70383 0.0
C241 C 0.63935 0.62365 0.6725 0.0
C242 C 0.69038 0.64615 0.67602 0.0
C243 C 0.65863 0.57708 0.71671 0.0
N244 N 0.61924 0.58011 0.69806 0.0
O245 O 0.77973 0.69879 0.74408 0.0
H246 H 0.7168 0.68178 0.65974 0.0
H247 H 0.65531 0.54668 0.74007 0.0
O248 O 0.7914 0.65727 0.6504 0.0
C249 C 0.77887 0.69735 0.79275 0.0
O250 O 0.77393 0.65703 0.81521 0.0
N251 N 0.75441 0.56997 0.70643 0.0
C252 C 0.74401 0.47561 0.69554 0.0
C253 C 0.74287 0.50244 0.65272 0.0
C254 C 0.7456 0.54858 0.65931 0.0
C255 C 0.7478 0.54164 0.74842 0.0
C256 C 0.74266 0.49433 0.74397 0.0
H257 H 0.74234 0.56754 0.62628 0.0
H258 H 0.74822 0.55669 0.78575 0.0
H259 H 0.87322 0.72365 0.69925 0.0
H260 H 0.93216 0.64988 0.78454 0.0
H261 H 0.61865 0.63798 0.65205 0.0
H262 H 0.74177 0.48942 0.61427 0.0
H263 H 0.73907 0.47354 0.77836 0.0
C264 C 0.23623 0.84033 0.12363 0.0
C265 C 0.26607 0.89151 0.12427 0.0
N266 N 0.24914 0.91099 0.08877 0.0
N267 N 0.20104 0.82745 0.0873 0.0
C268 C 0.20921 0.87152 0.06767 0.0
H269 H 0.24212 0.81404 0.14561 0.0
Co270 Co 0.16081 0.76274 0.06051 0.0
C271 C 0.13948 0.79034 0.95635 0.0
O272 O 0.09176 0.75737 0.95653 0.0
N273 N 0.12182 0.69765 0.03217 0.0
C274 C 0.10339 0.63604 0.97708 0.0
C275 C 0.13207 0.68607 0.98581 0.0
C276 C 0.08662 0.65285 0.05135 0.0
N277 N 0.07437 0.6146 1.01797 0.0
O278 O 0.10237 0.76546 0.0787 0.0
H279 H 0.16052 0.71206 0.96038 0.0
H280 H 0.07104 0.64829 0.08913 0.0
O281 O 0.16657 0.79351 0.99427 0.0
C282 C 0.09816 0.75895 0.12689 0.0
O283 O 0.13162 0.7521 0.15097 0.0
N284 N 0.21688 0.75794 0.04864 0.0
C285 C 0.29489 0.73882 0.04235 0.0
C286 C 0.29087 0.77073 1.0071 0.0
C287 C 0.25156 0.78052 1.01132 0.0
C288 C 0.22074 0.72728 0.08336 0.0
C289 C 0.25984 0.71736 0.08113 0.0
H290 H 0.24912 0.80588 0.98466 0.0
H291 H 0.19296 0.7104 0.11288 0.0
H292 H 0.18887 0.87463 0.03567 0.0
H293 H 0.29927 0.91255 0.14708 0.0
H294 H 0.10526 0.61665 0.94349 0.0
H295 H 0.31824 0.7884 0.97727 0.0
H296 H 0.2625 0.69291 0.10905 0.0
C297 C 0.40907 0.23415 0.42714 0.0
C298 C 0.39145 0.26747 0.4234 0.0
N299 N 0.35118 0.24706 0.39297 0.0
N300 N 0.38022 0.19321 0.39872 0.0
C301 C 0.34491 0.2023 0.37912 0.0
H302 H 0.44257 0.24067 0.44674 0.0
Co303 Co 0.39366 0.14097 0.38252 0.0
C304 C 0.31939 0.11484 0.29513 0.0
O305 O 0.27913 0.08767 0.32212 0.0
N306 N 0.40671 0.0882 0.36618 0.0
C307 C 0.4112 0.02679 0.32576 0.0
C308 C 0.39353 0.05991 0.32348 0.0
C309 C 0.43182 0.07066 0.39412 0.0
N310 N 0.43573 0.03385 0.37 0.0
O311 O 0.334 0.09343 0.41626 0.0
H312 H 0.37345 0.0635 0.29162 0.0
H313 H 0.44766 0.08505 0.43124 0.0
O314 O 0.36218 0.1341 0.31619 0.0
C315 C 0.34252 0.09778 0.46425 0.0
O316 O 0.38488 0.13515 0.48042 0.0
N317 N 0.45475 0.18807 0.35485 0.0
C318 C 0.54977 0.26759 0.33382 0.0
C319 C 0.50743 0.26301 0.30853 0.0
C320 C 0.46029 0.22258 0.31911 0.0
C321 C 0.49523 0.1917 0.37928 0.0
C322 C 0.54292 0.22954 0.36777 0.0
H323 H 0.42808 0.22121 0.30132 0.0
H324 H 0.49071 0.16676 0.41 0.0
H325 H 0.31588 0.17801 0.35349 0.0
H326 H 0.40863 0.30488 0.43907 0.0
H327 H 0.40842 1.00122 0.29595 0.0
H328 H 0.50978 0.29149 0.28284 0.0
H329 H 0.57372 0.22961 0.38737 0.0
C330 C 0.17539 0.38504 0.77288 0.0
C331 C 0.12422 0.35721 0.77179 0.0
N332 N 0.11107 0.31641 0.74298 0.0
N333 N 0.1947 0.36243 0.74397 0.0
C334 C 0.15432 0.3193 0.72879 0.0
H335 H 0.19635 0.42034 0.79222 0.0
Co336 Co 0.26132 0.38282 0.72341 0.0
C337 C 0.20254 0.3616 0.62734 0.0
O338 O 0.18023 0.38407 0.64824 0.0
N339 N 0.32668 0.40102 0.70385 0.0
C340 C 0.39006 0.39511 0.67148 0.0
C341 C 0.33906 0.37237 0.67537 0.0
C342 C 0.37094 0.44121 0.71679 0.0
N343 N 0.41026 0.43849 0.69753 0.0
O344 O 0.25218 0.31991 0.7472 0.0
H345 H 0.31259 0.33668 0.65906 0.0
H346 H 0.37434 0.47131 0.7408 0.0
O347 O 0.2364 0.35774 0.65254 0.0
C348 C 0.25463 0.3232 0.79581 0.0
O349 O 0.25954 0.36404 0.81711 0.0
N350 N 0.27373 0.4469 0.70645 0.0
C351 C 0.28262 0.54065 0.69475 0.0
C352 C 0.28225 0.51283 0.65205 0.0
C353 C 0.28023 0.46699 0.65893 0.0
C354 C 0.28156 0.47622 0.74802 0.0
C355 C 0.28588 0.52316 0.74318 0.0
H356 H 0.28234 0.44732 0.62588 0.0
H357 H 0.28275 0.46223 0.78543 0.0
H358 H 0.1565 0.29226 0.70415 0.0
H359 H 0.0987 0.36807 0.78781 0.0
H360 H 0.41069 0.38097 0.65062 0.0
H361 H 0.28181 0.52497 0.61356 0.0
H362 H 0.29052 0.54473 0.77732 0.0
C363 C 0.80076 0.17099 0.13289 0.0
C364 C 0.77441 0.11953 0.13137 0.0
N365 N 0.78986 0.10403 0.09079 0.0
N366 N 0.83226 0.18797 0.09303 0.0
C367 C 0.82569 0.14617 0.06903 0.0
H368 H 0.79424 0.19454 0.1587 0.0
Co369 Co 0.86467 0.25381 0.06755 0.0
C370 C 0.88241 0.23289 0.96037 0.0
O371 O 0.92946 0.26786 0.96095 0.0
N372 N 0.89602 0.31977 0.04004 0.0
C373 C 0.90286 0.37985 0.98825 0.0
C374 C 0.87733 0.32987 0.9981 0.0
C375 C 0.93345 0.36533 0.05529 0.0
N376 N 0.93862 0.40272 1.02377 0.0
O377 O 0.92759 0.25732 0.07725 0.0
H378 H 0.84566 0.30259 0.97654 0.0
H379 H 0.9561 0.37097 0.08876 0.0
O380 O 0.85546 0.22582 0.99945 0.0
C381 C 0.93474 0.26363 0.12528 0.0
O382 O 0.9016 0.268 0.15282 0.0
N383 N 0.80413 0.25199 0.06442 0.0
C384 C 0.71885 0.25964 0.0692 0.0
C385 C 0.72022 0.22324 0.03817 0.0
C386 C 0.7637 0.22002 0.03619 0.0
C387 C 0.80234 0.28577 0.09656 0.0
C388 C 0.76023 0.29083 0.09893 0.0
H389 H 0.76484 0.19201 1.01231 0.0
H390 H 0.83436 0.30951 0.11985 0.0
H391 H 0.84343 0.14644 0.0335 0.0
H392 H 0.74391 0.09558 0.15614 0.0
H393 H 0.89461 0.39809 0.9576 0.0
H394 H 0.68845 0.19837 1.01505 0.0
H395 H 0.75991 0.31875 0.12382 0.0
C396 C 0.97777 0.26053 0.2039 0.0
C397 C 0.97974 0.26955 0.15118 0.0
H398 H 0.01863 0.27354 0.27336 0.0
C399 C 0.02582 0.29104 0.12645 0.0
H400 H 0.94251 0.24318 0.22384 0.0
C401 C 0.06961 0.30838 0.15501 0.0
C402 C 0.06781 0.30426 0.20856 0.0
H403 H 0.02834 0.29818 0.08589 0.0
H404 H 0.10498 0.32844 0.13551 0.0
C405 C 0.02138 0.27753 0.23235 0.0
C406 C 0.74125 1.00266 0.49022 0.0
C407 C 0.71766 0.95506 0.51215 0.0
H408 H 0.77287 0.08104 0.50266 0.0
C409 C 0.71575 0.95096 0.56573 0.0
H410 H 0.74339 0.00713 0.44924 0.0
C411 C 0.73232 0.99339 0.59657 0.0
C412 C 0.75093 0.04048 0.5742 0.0
H413 H 0.69814 0.91463 0.58379 0.0
H414 H 0.72711 0.98889 0.63739 0.0
C415 C 0.75764 0.04495 0.52098 0.0
C416 C 0.73251 0.78287 0.83697 0.0
C417 C 0.73334 0.77712 0.89015 0.0
H418 H 0.74713 0.76237 0.7636 0.0
C419 C 0.76025 0.75548 0.9102 0.0
H420 H 0.71258 0.80012 0.82044 0.0
C421 C 0.78017 0.73407 0.87752 0.0
C422 C 0.77354 0.73406 0.82441 0.0
H423 H 0.76178 0.75074 0.9509 0.0
H424 H 0.79707 0.71381 0.89408 0.0
C425 C 0.75249 0.76149 0.80427 0.0
C426 C 1.00897 0.73813 0.13204 0.0
C427 C 0.05473 0.75313 0.15598 0.0
H428 H 0.93027 0.70541 0.14168 0.0
C429 C 0.05726 0.75553 0.20958 0.0
H430 H 1.00596 0.73623 0.09092 0.0
C431 C 0.01407 0.73808 0.23874 0.0
C432 C 0.96759 0.71769 0.21472 0.0
H433 H 0.09231 0.7678 0.22913 0.0
H434 H 0.01679 0.73651 0.27975 0.0
C435 C 0.96569 0.72047 0.16124 0.0
C436 C 0.32193 0.0652 0.55339 0.0
C437 C 0.31277 0.05697 0.50058 0.0
H438 H 0.31567 0.03221 0.62708 0.0
C439 C 0.2822 0.00807 0.48315 0.0
H440 H 0.34511 0.10263 0.5681 0.0
C441 C 0.26561 0.96799 0.51697 0.0
C442 C 0.27884 0.97596 0.56892 0.0
H443 H 0.27439 1.0004 0.44291 0.0
H444 H 0.2449 0.93041 0.50179 0.0
C445 C 0.30495 0.025 0.58737 0.0
C446 C 0.28567 0.26308 0.81083 0.0
C447 C 0.26092 0.28781 0.82868 0.0
H448 H 0.32814 0.22793 0.83087 0.0
C449 C 0.25141 0.28702 0.88123 0.0
H450 H 0.29355 0.26313 0.77065 0.0
C451 C 0.2712 0.26699 0.91583 0.0
C452 C 0.30113 0.24768 0.89841 0.0
H453 H 0.23189 0.30544 0.89599 0.0
H454 H 0.26676 0.27074 0.95622 0.0
C455 C 0.30572 0.24325 0.84549 0.0
C456 C 0.15013 0.35218 0.4954 0.0
C457 C 0.19176 0.36338 0.46538 0.0
H458 H 0.12095 0.34238 0.57092 0.0
C459 C 0.23355 0.36451 0.48852 0.0
H460 H 0.11754 0.35115 0.47879 0.0
C461 C 0.2353 0.35863 0.54114 0.0
C462 C 0.19563 0.35243 0.5718 0.0
H463 H 0.26629 0.37292 0.46634 0.0
H464 H 0.26929 0.3632 0.55809 0.0
C465 C 0.15222 0.34715 0.54821 0.0
C466 C 0.85271 0.20152 0.82064 0.0
C467 C 0.80915 0.15457 0.82233 0.0
H468 H 0.91071 0.26233 0.86239 0.0
C469 C 0.791 0.13261 0.8701 0.0
H470 H 0.86716 0.21995 0.78473 0.0
C471 C 0.81516 0.15775 0.91497 0.0
C472 C 0.85872 0.20478 0.91299 0.0
H473 H 0.75735 0.09671 0.87295 0.0
H474 H 0.79948 0.14047 0.95122 0.0
C475 C 0.87765 0.22595 0.86527 0.0
C476 C 0.65953 0.86904 0.22582 0.0
C477 C 0.64866 0.82686 0.25513 0.0
H478 H 0.66814 0.89909 0.15054 0.0
C479 C 0.64573 0.78463 0.23067 0.0
H480 H 0.66191 0.90199 0.24339 0.0
C481 C 0.65064 0.78342 0.17792 0.0
C482 C 0.65715 0.82389 0.14829 0.0
H483 H 0.63709 0.75123 0.25196 0.0
H484 H 0.64514 0.7493 0.16012 0.0
C485 C 0.66321 0.86734 0.17275 0.0
C486 C 0.78743 0.64979 0.53936 0.0
C487 C 0.82868 0.65855 0.56893 0.0
H488 H 0.75403 0.63285 0.46562 0.0
C489 C 0.8717 0.66416 0.5444 0.0
H490 H 0.7536 0.64463 0.55716 0.0
C491 C 0.87241 0.65814 0.49164 0.0
C492 C 0.82971 0.6454 0.46255 0.0
H493 H 0.90403 0.67059 0.56636 0.0
H494 H 0.90528 0.66057 0.4742 0.0
C495 C 0.78772 0.64265 0.48683 0.0
C496 C 0.14734 0.79563 0.86141 0.0
C497 C 0.16423 0.81802 0.90923 0.0
H498 H 0.1614 0.79949 0.78155 0.0
C499 C 0.20766 0.86512 0.91173 0.0
H500 H 0.11466 0.75898 0.85824 0.0
C501 C 0.23349 0.88931 0.86727 0.0
C502 C 0.21735 0.86619 0.81946 0.0
H503 H 0.22195 0.88312 0.94813 0.0
H504 H 0.26689 0.92538 0.87055 0.0
C505 C 0.17411 0.81899 0.81733 0.0
C506 C 0.2801 0.1722 0.1889 0.0
C507 C 0.31933 0.18643 0.154 0.0
H508 H 0.24876 0.13751 0.26078 0.0
C509 C 0.35548 0.17235 0.16416 0.0
H510 H 0.25126 0.18175 0.18204 0.0
C511 C 0.35433 0.14764 0.20913 0.0
C512 C 0.31608 0.13468 0.24466 0.0
H513 H 0.38473 0.17996 0.13716 0.0
H514 H 0.38373 0.13891 0.21633 0.0
C515 C 0.2784 0.14641 0.23373 0.0
C516 C 0.03853 0.55345 0.32737 0.0
C517 C 0.98649 0.53352 0.32738 0.0
H518 H 0.09962 0.53886 0.32873 0.0
C519 C 0.95597 0.48137 0.32549 0.0
H520 H 0.06314 0.59347 0.32827 0.0
C521 C 0.97699 0.44998 0.32614 0.0
C522 C 0.02906 0.46996 0.32786 0.0
H523 H 0.91586 0.46486 0.32564 0.0
H524 H 0.95239 0.40996 0.32592 0.0
C525 C 0.05952 0.52215 0.32725 0.0
C526 C 0.54053 0.02582 0.74422 0.0
C527 C 0.56713 0.04256 0.69846 0.0
H528 H 0.47062 0.98241 0.78059 0.0
C529 C 0.54083 0.02543 0.6522 0.0
H530 H 0.55943 0.0377 0.78054 0.0
C531 C 0.48879 0.99269 0.65222 0.0
C532 C 0.46261 0.97628 0.69851 0.0
H533 H 0.56026 0.03804 0.61631 0.0
H534 H 0.46925 0.97961 0.61635 0.0
C535 C 0.48938 0.99365 0.74424 0.0
C536 C 0.5282 0.47617 1.02157 0.0
C537 C 0.47684 0.45946 1.02358 0.0
H538 H 0.60224 0.5387 1.01801 0.0
C539 C 0.46141 0.49555 1.02129 0.0
H540 H 0.54162 0.44975 1.02352 0.0
C541 C 0.4963 0.54677 1.018 0.0
C542 C 0.54771 0.56351 1.01751 0.0
H543 H 0.42224 0.48422 1.02214 0.0
H544 H 0.48301 0.57335 1.01735 0.0
C545 C 0.56306 0.52738 1.01885 0.0
C546 C 0.48404 0.94329 0.37762 0.0
C547 C 0.53329 0.97462 0.39373 0.0
H548 H 0.41423 0.93799 0.357 0.0
C549 C 0.5481 0.02434 0.40693 0.0
H550 H 0.47181 0.905 0.36683 0.0
C551 C 0.51501 0.04291 0.40235 0.0
C552 C 0.46668 0.0125 0.38325 0.0
H553 H 0.58586 0.04922 0.41952 0.0
H554 H 0.5281 0.08185 0.41093 0.0
C555 C 0.45127 0.96223 0.37181 0.0
C556 C 0.54959 0.49274 0.70317 0.0
C557 C 0.56664 0.54432 0.70254 0.0
H558 H 0.48655 0.41871 0.702 0.0
C559 C 0.53112 0.56039 0.70348 0.0
H560 H 0.57584 0.47911 0.70224 0.0
C561 C 0.47992 0.52581 0.70377 0.0
C562 C 0.46288 0.47424 0.70224 0.0
H563 H 0.54297 0.59985 0.70356 0.0
H564 H 0.45367 0.53944 0.70333 0.0
C565 C 0.4984 0.45817 0.7026 0.0
C566 C 0.99515 0.48297 0.06977 0.0
C567 C 0.97412 0.45596 1.02443 0.0
H568 H 0.04335 0.55527 0.1037 0.0
C569 C 0.98623 0.48263 0.9784 0.0
H570 H 0.98642 0.46377 0.10597 0.0
C571 C 0.01722 0.53415 0.97728 0.0
C572 C 0.03875 0.56158 1.02196 0.0
H573 H 0.97184 0.46362 0.94251 0.0
H574 H 0.02436 0.55258 0.94074 0.0
C575 C 0.02714 0.53543 0.06856 0.0
C576 C 0.31204 0.30956 0.29544 0.0
C577 C 0.27913 0.31943 0.32343 0.0
H578 H 0.36023 0.27769 0.29603 0.0
C579 C 0.26982 0.30428 0.37471 0.0
H580 H 0.31976 0.32066 0.25592 0.0
C581 C 0.29411 0.28125 0.39791 0.0
C582 C 0.32706 0.27177 0.36988 0.0
H583 H 0.24483 0.31153 0.39724 0.0
H584 H 0.28703 0.27056 0.43758 0.0
C585 C 0.33524 0.2853 0.31829 0.0
C586 C 0.97271 0.24626 0.72647 0.0
C587 C 0.96781 0.23696 0.67373 0.0
H588 H 0.02232 0.27915 0.78986 0.0
C589 C 1.01085 0.25043 0.64497 0.0
H590 H 0.94048 0.23675 0.74959 0.0
C591 C 0.05779 0.27376 0.66836 0.0
C592 C 0.06269 0.28529 0.72069 0.0
H593 H 1.00818 0.24354 0.60436 0.0
H594 H 0.09041 0.28485 0.64507 0.0
C595 C 0.01959 0.27066 0.74957 0.0
C596 C 0.79139 0.03666 0.04021 0.0
C597 C 0.76468 0.0552 0.06737 0.0
H598 H 0.78737 0.97705 0.99367 0.0
C599 C 0.71246 0.02692 0.06813 0.0
H600 H 0.83164 0.05779 0.03896 0.0
C601 C 0.68748 0.98186 0.04144 0.0
C602 C 0.71403 0.9635 1.014 0.0
H603 H 0.69078 0.04044 0.088 0.0
H604 H 0.64719 0.96109 0.04233 0.0
C605 C 0.76625 0.99076 1.01435 0.0
C606 C 0.74235 0.73782 0.30387 0.0
C607 C 0.76545 0.71455 0.32898 0.0
H608 H 0.70245 0.7779 0.3119 0.0
C609 C 0.76718 0.71557 0.38251 0.0
H610 H 0.74066 0.73767 0.26269 0.0
C611 C 0.74315 0.73616 0.4105 0.0
C612 C 0.71901 0.75833 0.38539 0.0
H613 H 0.78515 0.69832 0.40262 0.0
H614 H 0.74272 0.73415 0.45167 0.0
C615 C 0.7204 0.76056 0.33191 0.0
C616 C 0.01878 0.76408 0.63996 0.0
C617 C 0.06206 0.78004 0.66931 0.0
H618 H 0.93901 0.72755 0.63956 0.0
C619 C 0.05729 0.77295 0.72234 0.0
H620 H 0.02129 0.76923 0.5991 0.0
C621 C 1.01046 0.74822 0.74528 0.0
C622 C 0.96723 0.73119 0.71588 0.0
H623 H 0.08964 0.78451 0.74598 0.0
H624 H 1.0079 0.74146 0.7859 0.0
C625 C 0.97183 0.74052 0.66315 0.0
C626 C 0.35125 0.03448 0.04217 0.0
C627 C 0.32472 0.05849 1.02724 0.0
H628 H 0.34796 0.96901 0.07433 0.0
C629 C 0.27281 0.03357 0.03388 0.0
H630 H 0.39131 0.05305 0.03801 0.0
C631 C 0.24786 0.9851 0.05407 0.0
C632 C 0.27457 0.96135 0.06942 0.0
H633 H 0.25157 0.05133 1.02265 0.0
H634 H 0.20778 0.96624 0.05814 0.0
C635 C 0.32654 0.98669 0.06349 0.0
C636 C 0.3722 0.69683 0.3487 0.0
C637 C 0.40627 0.69768 0.38482 0.0
H638 H 0.30149 0.65308 0.31203 0.0
C639 C 0.39242 0.65522 0.41515 0.0
H640 H 0.38122 0.7292 0.32545 0.0
C641 C 0.34658 0.61235 0.4082 0.0
C642 C 0.3138 0.61066 0.37032 0.0
H643 H 0.41792 0.65402 0.44265 0.0
H644 H 0.33808 0.57952 0.43051 0.0
C645 C 0.32645 0.65351 0.34127 0.0
C646 C 0.73354 0.40101 0.64552 0.0
C647 C 0.74912 0.4302 0.69006 0.0
H648 H 0.73114 0.341 0.60336 0.0
C649 C 0.77239 0.41716 0.72853 0.0
H650 H 0.71472 0.40874 0.61513 0.0
C651 C 0.7788 0.37573 0.72314 0.0
C652 C 0.7641 0.34716 0.67822 0.0
H653 H 0.78648 0.43914 0.7629 0.0
H654 H 0.79499 0.36615 0.7547 0.0
C655 C 0.74199 0.36091 0.6392 0.0
C656 C 0.41407 0.7413 0.07511 0.0
C657 C 0.42092 0.71803 0.03217 0.0
H658 H 0.36806 0.76585 0.11173 0.0
C659 C 0.38363 0.69809 0.99449 0.0
H660 H 0.44229 0.75782 0.10445 0.0
C661 C 0.34207 0.70433 0.99805 0.0
C662 C 0.33668 0.72934 0.03992 0.0
H663 H 0.38714 0.6789 0.96156 0.0
H664 H 0.31446 0.69022 0.96792 0.0
C665 C 0.372 0.74651 0.07911 0.0
C666 C 0.61229 0.34405 0.2854 0.0
C667 C 0.59977 0.31341 0.32873 0.0
H668 H 0.66344 0.41267 0.25037 0.0
C669 C 0.63482 0.32843 0.36868 0.0
H670 H 0.58735 0.33384 0.25313 0.0
C671 C 0.68043 0.37235 0.36555 0.0
C672 C 0.69185 0.40437 0.32354 0.0
H673 H 0.62708 0.30734 0.40356 0.0
H674 H 0.7062 0.38115 0.39686 0.0
C675 C 0.6571 0.38924 0.28329 0.0
C676 C 0.28524 0.65574 0.6388 0.0
C677 C 0.26428 0.67029 0.67827 0.0
H678 H 0.3107 0.60655 0.61391 0.0
C679 C 0.24968 0.64182 0.72314 0.0
H680 H 0.29593 0.6756 0.603 0.0
C681 C 0.25537 0.5999 0.72816 0.0
C682 C 0.27762 0.58614 0.68929 0.0
H683 H 0.23423 0.65194 0.75494 0.0
H684 H 0.24165 0.57816 0.76263 0.0
C685 C 0.29278 0.61499 0.64464 0.0
C686 C 0.63862 0.31941 0.05674 0.0
C687 C 0.59155 0.27922 0.06828 0.0
H688 H 0.71637 0.34441 0.04854 0.0
C689 C 0.58651 0.23285 0.08166 0.0
H690 H 0.64294 0.35526 0.04586 0.0
C691 C 0.62803 0.22629 0.08194 0.0
C692 C 0.67503 0.26633 0.06981 0.0
H693 H 0.5502 0.20126 0.0899 0.0
H694 H 0.62349 0.19004 0.09139 0.0
C695 C 0.68027 0.31314 0.05807 0.0
loop_
_geom_bond_atom_site_label_1
_geom_bond_atom_site_label_2
_geom_bond_distance
_geom_bond_site_symmetry_2
_ccdc_geom_bond_type
C0 C1 1.351 . S
C0 N3 1.368 . S
C0 H5 0.931 . S
C1 C0 1.351 . S
C1 N2 1.373 . S
C1 H29 0.930 . S
N2 C1 1.373 . S
N2 C4 1.340 . S
N3 C0 1.368 . S
N3 C4 1.321 . S
N3 Co6 2.135 . S
C4 N2 1.340 . S
C4 N3 1.321 . S
C4 H28 0.930 . S
H5 C0 0.931 . S
Co6 N3 2.135 . S
Co6 N9 2.121 . S
Co6 O14 2.055 . S
Co6 O17 2.039 . S
Co6 N20 2.140 . S
C7 O8 1.227 . S
C7 O17 1.265 . S
O8 C7 1.227 . S
N9 Co6 2.121 . S
N9 C11 1.375 . S
N9 C12 1.313 . S
C10 C11 1.338 . S
C10 N13 1.377 . S
C10 H30 0.930 . S
C11 N9 1.375 . S
C11 C10 1.338 . S
C11 H15 0.931 . S
C12 N9 1.313 . S
C12 N13 1.344 . S
C12 H16 0.930 . S
N13 C10 1.377 . S
N13 C12 1.344 . S
O14 Co6 2.055 . S
O14 C18 1.253 . S
H15 C11 0.931 . S
H16 C12 0.930 . S
O17 Co6 2.039 . S
O17 C7 1.265 . S
C18 O14 1.253 . S
C18 O19 1.227 . S
O19 C18 1.227 . S
N20 Co6 2.140 . S
N20 C23 1.346 . S
N20 C24 1.345 . S
C21 C22 1.387 . S
C21 C25 1.391 . S
C22 C21 1.387 . S
C22 C23 1.369 . S
C22 H31 0.929 . S
C23 N20 1.346 . S
C23 C22 1.369 . S
C23 H26 0.928 . S
C24 N20 1.345 . S
C24 C25 1.371 . S
C24 H27 0.931 . S
C25 C21 1.391 . S
C25 C24 1.371 . S
C25 H32 0.930 . S
H26 C23 0.928 . S
H27 C24 0.931 . S
H28 C4 0.930 . S
H29 C1 0.930 . S
H30 C10 0.930 . S
H31 C22 0.929 . S
H32 C25 0.930 . S
C33 C34 1.351 . S
C33 N36 1.368 . S
C33 H38 0.931 . S
C34 C33 1.351 . S
C34 N35 1.373 . S
C34 H62 0.930 . S
N35 C34 1.373 . S
N35 C37 1.340 . S
N36 C33 1.368 . S
N36 C37 1.321 . S
N36 Co39 2.135 . S
C37 N35 1.340 . S
C37 N36 1.321 . S
C37 H61 0.930 . S
H38 C33 0.931 . S
Co39 N36 2.135 . S
Co39 N42 2.121 . S
Co39 O47 2.055 . S
Co39 O50 2.039 . S
Co39 N53 2.140 . S
C40 O41 1.227 . S
C40 O50 1.265 . S
O41 C40 1.227 . S
N42 Co39 2.121 . S
N42 C44 1.375 . S
N42 C45 1.313 . S
C43 C44 1.338 . S
C43 N46 1.377 . S
C43 H63 0.930 . S
C44 N42 1.375 . S
C44 C43 1.338 . S
C44 H48 0.931 . S
C45 N42 1.313 . S
C45 N46 1.344 . S
C45 H49 0.930 . S
N46 C43 1.377 . S
N46 C45 1.344 . S
O47 Co39 2.055 . S
O47 C51 1.253 . S
H48 C44 0.931 . S
H49 C45 0.930 . S
O50 Co39 2.039 . S
O50 C40 1.265 . S
C51 O47 1.253 . S
C51 O52 1.227 . S
O52 C51 1.227 . S
N53 Co39 2.140 . S
N53 C56 1.346 . S
N53 C57 1.345 . S
C54 C55 1.387 . S
C54 C58 1.391 . S
C55 C54 1.387 . S
C55 C56 1.369 . S
C55 H64 0.929 . S
C56 N53 1.346 . S
C56 C55 1.369 . S
C56 H59 0.928 . S
C57 N53 1.345 . S
C57 C58 1.371 . S
C57 H60 0.931 . S
C58 C54 1.391 . S
C58 C57 1.371 . S
C58 H65 0.930 . S
H59 C56 0.928 . S
H60 C57 0.931 . S
H61 C37 0.930 . S
H62 C34 0.930 . S
H63 C43 0.930 . S
H64 C55 0.929 . S
H65 C58 0.930 . S
C66 C67 1.351 . S
C66 N69 1.368 . S
C66 H71 0.931 . S
C67 C66 1.351 . S
C67 N68 1.373 . S
C67 H95 0.930 . S
N68 C67 1.373 . S
N68 C70 1.340 1_556 S
N69 C66 1.368 . S
N69 C70 1.321 1_556 S
N69 Co72 2.135 1_556 S
C70 N68 1.340 1_554 S
C70 N69 1.321 1_554 S
C70 H94 0.930 . S
H71 C66 0.931 . S
Co72 N69 2.135 1_554 S
Co72 N75 2.121 . S
Co72 O80 2.055 1_554 S
Co72 O83 2.039 . S
Co72 N86 2.140 1_554 S
C73 O74 1.227 . S
C73 O83 1.265 . S
O74 C73 1.227 . S
N75 Co72 2.121 . S
N75 C77 1.375 . S
N75 C78 1.313 . S
C76 C77 1.338 . S
C76 N79 1.377 . S
C76 H96 0.930 . S
C77 N75 1.375 . S
C77 C76 1.338 . S
C77 H81 0.931 . S
C78 N75 1.313 . S
C78 N79 1.344 . S
C78 H82 0.930 1_554 S
N79 C76 1.377 . S
N79 C78 1.344 . S
O80 Co72 2.055 1_556 S
O80 C84 1.253 . S
H81 C77 0.931 . S
H82 C78 0.930 1_556 S
O83 Co72 2.039 . S
O83 C73 1.265 . S
C84 O80 1.253 . S
C84 O85 1.227 . S
O85 C84 1.227 . S
N86 Co72 2.140 1_556 S
N86 C89 1.346 1_556 S
N86 C90 1.345 . S
C87 C88 1.387 . S
C87 C91 1.391 . S
C88 C87 1.387 . S
C88 C89 1.369 1_556 S
C88 H97 0.929 1_556 S
C89 N86 1.346 1_554 S
C89 C88 1.369 1_554 S
C89 H92 0.928 . S
C90 N86 1.345 . S
C90 C91 1.371 . S
C90 H93 0.931 . S
C91 C87 1.391 . S
C91 C90 1.371 . S
C91 H98 0.930 . S
H92 C89 0.928 . S
H93 C90 0.931 . S
H94 C70 0.930 . S
H95 C67 0.930 . S
H96 C76 0.930 . S
H97 C88 0.929 1_554 S
H98 C91 0.930 . S
C99 C100 1.351 . S
C99 N102 1.368 . S
C99 H104 0.931 . S
C100 C99 1.351 . S
C100 N101 1.373 . S
C100 H128 0.930 . S
N101 C100 1.373 . S
N101 C103 1.340 . S
N102 C99 1.368 . S
N102 C103 1.321 . S
N102 Co105 2.135 . S
C103 N101 1.340 . S
C103 N102 1.321 . S
C103 H127 0.930 . S
H104 C99 0.931 . S
Co105 N102 2.135 . S
Co105 N108 2.121 . S
Co105 O113 2.055 . S
Co105 O116 2.039 . S
Co105 N119 2.140 . S
C106 O107 1.227 . S
C106 O116 1.265 . S
O107 C106 1.227 . S
N108 Co105 2.121 . S
N108 C110 1.375 . S
N108 C111 1.313 . S
C109 C110 1.338 . S
C109 N112 1.377 . S
C109 H129 0.930 . S
C110 N108 1.375 . S
C110 C109 1.338 . S
C110 H114 0.931 . S
C111 N108 1.313 . S
C111 N112 1.344 . S
C111 H115 0.930 . S
N112 C109 1.377 . S
N112 C111 1.344 . S
O113 Co105 2.055 . S
O113 C117 1.253 . S
H114 C110 0.931 . S
H115 C111 0.930 . S
O116 Co105 2.039 . S
O116 C106 1.265 . S
C117 O113 1.253 . S
C117 O118 1.227 . S
O118 C117 1.227 . S
N119 Co105 2.140 . S
N119 C122 1.346 . S
N119 C123 1.345 . S
C120 C121 1.387 . S
C120 C124 1.391 . S
C121 C120 1.387 . S
C121 C122 1.369 . S
C121 H130 0.929 . S
C122 N119 1.346 . S
C122 C121 1.369 . S
C122 H125 0.928 . S
C123 N119 1.345 . S
C123 C124 1.371 . S
C123 H126 0.931 . S
C124 C120 1.391 . S
C124 C123 1.371 . S
C124 H131 0.930 . S
H125 C122 0.928 . S
H126 C123 0.931 . S
H127 C103 0.930 . S
H128 C100 0.930 . S
H129 C109 0.930 . S
H130 C121 0.929 . S
H131 C124 0.930 . S
C132 C133 1.351 . S
C132 N135 1.368 . S
C132 H137 0.931 . S
C133 C132 1.351 . S
C133 N134 1.373 . S
C133 H161 0.930 . S
N134 C133 1.373 . S
N134 C136 1.340 . S
N135 C132 1.368 . S
N135 C136 1.321 . S
N135 Co138 2.135 . S
C136 N134 1.340 . S
C136 N135 1.321 . S
C136 H160 0.930 . S
H137 C132 0.931 . S
Co138 N135 2.135 . S
Co138 N141 2.121 . S
Co138 O146 2.055 . S
Co138 O149 2.039 . S
Co138 N152 2.140 . S
C139 O140 1.227 . S
C139 O149 1.265 . S
O140 C139 1.227 . S
N141 Co138 2.121 . S
N141 C143 1.375 . S
N141 C144 1.313 . S
C142 C143 1.338 . S
C142 N145 1.377 . S
C142 H162 0.930 . S
C143 N141 1.375 . S
C143 C142 1.338 . S
C143 H147 0.931 . S
C144 N141 1.313 . S
C144 N145 1.344 . S
C144 H148 0.930 . S
N145 C142 1.377 . S
N145 C144 1.344 . S
O146 Co138 2.055 . S
O146 C150 1.253 . S
H147 C143 0.931 . S
H148 C144 0.930 . S
O149 Co138 2.039 . S
O149 C139 1.265 . S
C150 O146 1.253 . S
C150 O151 1.227 . S
O151 C150 1.227 . S
N152 Co138 2.140 . S
N152 C155 1.346 . S
N152 C156 1.345 . S
C153 C154 1.387 . S
C153 C157 1.391 . S
C154 C153 1.387 . S
C154 C155 1.369 . S
C154 H163 0.929 . S
C155 N152 1.346 . S
C155 C154 1.369 . S
C155 H158 0.928 . S
C156 N152 1.345 . S
C156 C157 1.371 . S
C156 H159 0.931 . S
C157 C153 1.391 . S
C157 C156 1.371 . S
C157 H164 0.930 . S
H158 C155 0.928 . S
H159 C156 0.931 . S
H160 C136 0.930 . S
H161 C133 0.930 . S
H162 C142 0.930 . S
H163 C154 0.929 . S
H164 C157 0.930 . S
C165 C166 1.351 . S
C165 N168 1.368 . S
C165 H170 0.931 . S
C166 C165 1.351 . S
C166 N167 1.373 . S
C166 H194 0.930 . S
N167 C166 1.373 . S
N167 C169 1.340 1_556 S
N168 C165 1.368 . S
N168 C169 1.321 1_556 S
N168 Co171 2.135 1_556 S
C169 N167 1.340 1_554 S
C169 N168 1.321 1_554 S
C169 H193 0.930 . S
H170 C165 0.931 . S
Co171 N168 2.135 1_554 S
Co171 N174 2.121 . S
Co171 O179 2.055 1_554 S
Co171 O182 2.039 . S
Co171 N185 2.140 1_554 S
C172 O173 1.227 . S
C172 O182 1.265 . S
O173 C172 1.227 . S
N174 Co171 2.121 . S
N174 C176 1.375 . S
N174 C177 1.313 . S
C175 C176 1.338 . S
C175 N178 1.377 . S
C175 H195 0.930 . S
C176 N174 1.375 . S
C176 C175 1.338 . S
C176 H180 0.931 . S
C177 N174 1.313 . S
C177 N178 1.344 . S
C177 H181 0.930 1_554 S
N178 C175 1.377 . S
N178 C177 1.344 . S
O179 Co171 2.055 1_556 S
O179 C183 1.253 . S
H180 C176 0.931 . S
H181 C177 0.930 1_556 S
O182 Co171 2.039 . S
O182 C172 1.265 . S
C183 O179 1.253 . S
C183 O184 1.227 . S
O184 C183 1.227 . S
N185 Co171 2.140 1_556 S
N185 C188 1.346 1_556 S
N185 C189 1.345 . S
C186 C187 1.387 . S
C186 C190 1.391 . S
C187 C186 1.387 . S
C187 C188 1.369 1_556 S
C187 H196 0.929 1_556 S
C188 N185 1.346 1_554 S
C188 C187 1.369 1_554 S
C188 H191 0.928 . S
C189 N185 1.345 . S
C189 C190 1.371 . S
C189 H192 0.931 . S
C190 C186 1.391 . S
C190 C189 1.371 . S
C190 H197 0.930 . S
H191 C188 0.928 . S
H192 C189 0.931 . S
H193 C169 0.930 . S
H194 C166 0.930 . S
H195 C175 0.930 . S
H196 C187 0.929 1_554 S
H197 C190 0.930 . S
C198 C199 1.351 . S
C198 N201 1.368 . S
C198 H203 0.931 . S
C199 C198 1.351 . S
C199 N200 1.373 . S
C199 H227 0.930 . S
N200 C199 1.373 . S
N200 C202 1.340 . S
N201 C198 1.368 . S
N201 C202 1.321 . S
N201 Co204 2.135 . S
C202 N200 1.340 . S
C202 N201 1.321 . S
C202 H226 0.930 . S
H203 C198 0.931 . S
Co204 N201 2.135 . S
Co204 N207 2.121 . S
Co204 O212 2.055 . S
Co204 O215 2.039 . S
Co204 N218 2.140 . S
C205 O206 1.227 . S
C205 O215 1.265 . S
O206 C205 1.227 . S
N207 Co204 2.121 . S
N207 C209 1.375 . S
N207 C210 1.313 . S
C208 C209 1.338 . S
C208 N211 1.377 . S
C208 H228 0.930 . S
C209 N207 1.375 . S
C209 C208 1.338 . S
C209 H213 0.931 . S
C210 N207 1.313 . S
C210 N211 1.344 . S
C210 H214 0.930 . S
N211 C208 1.377 . S
N211 C210 1.344 . S
O212 Co204 2.055 . S
O212 C216 1.253 . S
H213 C209 0.931 . S
H214 C210 0.930 . S
O215 Co204 2.039 . S
O215 C205 1.265 . S
C216 O212 1.253 . S
C216 O217 1.227 . S
O217 C216 1.227 . S
N218 Co204 2.140 . S
N218 C221 1.346 . S
N218 C222 1.345 . S
C219 C220 1.387 . S
C219 C223 1.391 . S
C220 C219 1.387 . S
C220 C221 1.369 . S
C220 H229 0.929 . S
C221 N218 1.346 . S
C221 C220 1.369 . S
C221 H224 0.928 . S
C222 N218 1.345 . S
C222 C223 1.371 . S
C222 H225 0.931 . S
C223 C219 1.391 . S
C223 C222 1.371 . S
C223 H230 0.930 . S
H224 C221 0.928 . S
H225 C222 0.931 . S
H226 C202 0.930 . S
H227 C199 0.930 . S
H228 C208 0.930 . S
H229 C220 0.929 . S
H230 C223 0.930 . S
C231 C232 1.351 . S
C231 N234 1.368 . S
C231 H236 0.931 . S
C232 C231 1.351 . S
C232 N233 1.373 . S
C232 H260 0.930 . S
N233 C232 1.373 . S
N233 C235 1.340 . S
N234 C231 1.368 . S
N234 C235 1.321 . S
N234 Co237 2.135 . S
C235 N233 1.340 . S
C235 N234 1.321 . S
C235 H259 0.930 . S
H236 C231 0.931 . S
Co237 N234 2.135 . S
Co237 N240 2.121 . S
Co237 O245 2.055 . S
Co237 O248 2.039 . S
Co237 N251 2.140 . S
C238 O239 1.227 . S
C238 O248 1.265 . S
O239 C238 1.227 . S
N240 Co237 2.121 . S
N240 C242 1.375 . S
N240 C243 1.313 . S
C241 C242 1.338 . S
C241 N244 1.377 . S
C241 H261 0.930 . S
C242 N240 1.375 . S
C242 C241 1.338 . S
C242 H246 0.931 . S
C243 N240 1.313 . S
C243 N244 1.344 . S
C243 H247 0.930 . S
N244 C241 1.377 . S
N244 C243 1.344 . S
O245 Co237 2.055 . S
O245 C249 1.253 . S
H246 C242 0.931 . S
H247 C243 0.930 . S
O248 Co237 2.039 . S
O248 C238 1.265 . S
C249 O245 1.253 . S
C249 O250 1.227 . S
O250 C249 1.227 . S
N251 Co237 2.140 . S
N251 C254 1.346 . S
N251 C255 1.345 . S
C252 C253 1.387 . S
C252 C256 1.391 . S
C253 C252 1.387 . S
C253 C254 1.369 . S
C253 H262 0.929 . S
C254 N251 1.346 . S
C254 C253 1.369 . S
C254 H257 0.928 . S
C255 N251 1.345 . S
C255 C256 1.371 . S
C255 H258 0.931 . S
C256 C252 1.391 . S
C256 C255 1.371 . S
C256 H263 0.930 . S
H257 C254 0.928 . S
H258 C255 0.931 . S
H259 C235 0.930 . S
H260 C232 0.930 . S
H261 C241 0.930 . S
H262 C253 0.929 . S
H263 C256 0.930 . S
C264 C265 1.351 . S
C264 N267 1.368 . S
C264 H269 0.931 . S
C265 C264 1.351 . S
C265 N266 1.373 . S
C265 H293 0.930 . S
N266 C265 1.373 . S
N266 C268 1.340 1_554 S
N267 C264 1.368 . S
N267 C268 1.321 1_554 S
N267 Co270 2.135 1_554 S
C268 N266 1.340 1_556 S
C268 N267 1.321 1_556 S
C268 H292 0.930 . S
H269 C264 0.931 . S
Co270 N267 2.135 1_556 S
Co270 N273 2.121 . S
Co270 O278 2.055 1_556 S
Co270 O281 2.039 . S
Co270 N284 2.140 1_556 S
C271 O272 1.227 . S
C271 O281 1.265 . S
O272 C271 1.227 . S
N273 Co270 2.121 . S
N273 C275 1.375 . S
N273 C276 1.313 . S
C274 C275 1.338 . S
C274 N277 1.377 . S
C274 H294 0.930 . S
C275 N273 1.375 . S
C275 C274 1.338 . S
C275 H279 0.931 . S
C276 N273 1.313 . S
C276 N277 1.344 . S
C276 H280 0.930 1_556 S
N277 C274 1.377 . S
N277 C276 1.344 . S
O278 Co270 2.055 1_554 S
O278 C282 1.253 . S
H279 C275 0.931 . S
H280 C276 0.930 1_554 S
O281 Co270 2.039 . S
O281 C271 1.265 . S
C282 O278 1.253 . S
C282 O283 1.227 . S
O283 C282 1.227 . S
N284 Co270 2.140 1_554 S
N284 C287 1.346 1_554 S
N284 C288 1.345 . S
C285 C286 1.387 . S
C285 C289 1.391 . S
C286 C285 1.387 . S
C286 C287 1.369 1_554 S
C286 H295 0.929 1_554 S
C287 N284 1.346 1_556 S
C287 C286 1.369 1_556 S
C287 H290 0.928 . S
C288 N284 1.345 . S
C288 C289 1.371 . S
C288 H291 0.931 . S
C289 C285 1.391 . S
C289 C288 1.371 . S
C289 H296 0.930 . S
H290 C287 0.928 . S
H291 C288 0.931 . S
H292 C268 0.930 . S
H293 C265 0.930 . S
H294 C274 0.930 . S
H295 C286 0.929 1_556 S
H296 C289 0.930 . S
C297 C298 1.351 . S
C297 N300 1.368 . S
C297 H302 0.931 . S
C298 C297 1.351 . S
C298 N299 1.373 . S
C298 H326 0.930 . S
N299 C298 1.373 . S
N299 C301 1.340 . S
N300 C297 1.368 . S
N300 C301 1.321 . S
N300 Co303 2.135 . S
C301 N299 1.340 . S
C301 N300 1.321 . S
C301 H325 0.930 . S
H302 C297 0.931 . S
Co303 N300 2.135 . S
Co303 N306 2.121 . S
Co303 O311 2.055 . S
Co303 O314 2.039 . S
Co303 N317 2.140 . S
C304 O305 1.227 . S
C304 O314 1.265 . S
O305 C304 1.227 . S
N306 Co303 2.121 . S
N306 C308 1.375 . S
N306 C309 1.313 . S
C307 C308 1.338 . S
C307 N310 1.377 . S
C307 H327 0.930 . S
C308 N306 1.375 . S
C308 C307 1.338 . S
C308 H312 0.931 . S
C309 N306 1.313 . S
C309 N310 1.344 . S
C309 H313 0.930 . S
N310 C307 1.377 . S
N310 C309 1.344 . S
O311 Co303 2.055 . S
O311 C315 1.253 . S
H312 C308 0.931 . S
H313 C309 0.930 . S
O314 Co303 2.039 . S
O314 C304 1.265 . S
C315 O311 1.253 . S
C315 O316 1.227 . S
O316 C315 1.227 . S
N317 Co303 2.140 . S
N317 C320 1.346 . S
N317 C321 1.345 . S
C318 C319 1.387 . S
C318 C322 1.391 . S
C319 C318 1.387 . S
C319 C320 1.369 . S
C319 H328 0.929 . S
C320 N317 1.346 . S
C320 C319 1.369 . S
C320 H323 0.928 . S
C321 N317 1.345 . S
C321 C322 1.371 . S
C321 H324 0.931 . S
C322 C318 1.391 . S
C322 C321 1.371 . S
C322 H329 0.930 . S
H323 C320 0.928 . S
H324 C321 0.931 . S
H325 C301 0.930 . S
H326 C298 0.930 . S
H327 C307 0.930 . S
H328 C319 0.929 . S
H329 C322 0.930 . S
C330 C331 1.351 . S
C330 N333 1.368 . S
C330 H335 0.931 . S
C331 C330 1.351 . S
C331 N332 1.373 . S
C331 H359 0.930 . S
N332 C331 1.373 . S
N332 C334 1.340 . S
N333 C330 1.368 . S
N333 C334 1.321 . S
N333 Co336 2.135 . S
C334 N332 1.340 . S
C334 N333 1.321 . S
C334 H358 0.930 . S
H335 C330 0.931 . S
Co336 N333 2.135 . S
Co336 N339 2.121 . S
Co336 O344 2.055 . S
Co336 O347 2.039 . S
Co336 N350 2.140 . S
C337 O338 1.227 . S
C337 O347 1.265 . S
O338 C337 1.227 . S
N339 Co336 2.121 . S
N339 C341 1.375 . S
N339 C342 1.313 . S
C340 C341 1.338 . S
C340 N343 1.377 . S
C340 H360 0.930 . S
C341 N339 1.375 . S
C341 C340 1.338 . S
C341 H345 0.931 . S
C342 N339 1.313 . S
C342 N343 1.344 . S
C342 H346 0.930 . S
N343 C340 1.377 . S
N343 C342 1.344 . S
O344 Co336 2.055 . S
O344 C348 1.253 . S
H345 C341 0.931 . S
H346 C342 0.930 . S
O347 Co336 2.039 . S
O347 C337 1.265 . S
C348 O344 1.253 . S
C348 O349 1.227 . S
O349 C348 1.227 . S
N350 Co336 2.140 . S
N350 C353 1.346 . S
N350 C354 1.345 . S
C351 C352 1.387 . S
C351 C355 1.391 . S
C352 C351 1.387 . S
C352 C353 1.369 . S
C352 H361 0.929 . S
C353 N350 1.346 . S
C353 C352 1.369 . S
C353 H356 0.928 . S
C354 N350 1.345 . S
C354 C355 1.371 . S
C354 H357 0.931 . S
C355 C351 1.391 . S
C355 C354 1.371 . S
C355 H362 0.930 . S
H356 C353 0.928 . S
H357 C354 0.931 . S
H358 C334 0.930 . S
H359 C331 0.930 . S
H360 C340 0.930 . S
H361 C352 0.929 . S
H362 C355 0.930 . S
C363 C364 1.351 . S
C363 N366 1.368 . S
C363 H368 0.931 . S
C364 C363 1.351 . S
C364 N365 1.373 . S
C364 H392 0.930 . S
N365 C364 1.373 . S
N365 C367 1.340 1_554 S
N366 C363 1.368 . S
N366 C367 1.321 1_554 S
N366 Co369 2.135 1_554 S
C367 N365 1.340 1_556 S
C367 N366 1.321 1_556 S
C367 H391 0.930 . S
H368 C363 0.931 . S
Co369 N366 2.135 1_556 S
Co369 N372 2.121 . S
Co369 O377 2.055 1_556 S
Co369 O380 2.039 . S
Co369 N383 2.140 1_556 S
C370 O371 1.227 . S
C370 O380 1.265 . S
O371 C370 1.227 . S
N372 Co369 2.121 . S
N372 C374 1.375 . S
N372 C375 1.313 . S
C373 C374 1.338 . S
C373 N376 1.377 . S
C373 H393 0.930 . S
C374 N372 1.375 . S
C374 C373 1.338 . S
C374 H378 0.931 . S
C375 N372 1.313 . S
C375 N376 1.344 . S
C375 H379 0.930 1_556 S
N376 C373 1.377 . S
N376 C375 1.344 . S
O377 Co369 2.055 1_554 S
O377 C381 1.253 . S
H378 C374 0.931 . S
H379 C375 0.930 1_554 S
O380 Co369 2.039 . S
O380 C370 1.265 . S
C381 O377 1.253 . S
C381 O382 1.227 . S
O382 C381 1.227 . S
N383 Co369 2.140 1_554 S
N383 C386 1.346 1_554 S
N383 C387 1.345 . S
C384 C385 1.387 . S
C384 C388 1.391 . S
C385 C384 1.387 . S
C385 C386 1.369 1_554 S
C385 H394 0.929 1_554 S
C386 N383 1.346 1_556 S
C386 C385 1.369 1_556 S
C386 H389 0.928 . S
C387 N383 1.345 . S
C387 C388 1.371 . S
C387 H390 0.931 . S
C388 C384 1.391 . S
C388 C387 1.371 . S
C388 H395 0.930 . S
H389 C386 0.928 . S
H390 C387 0.931 . S
H391 C367 0.930 . S
H392 C364 0.930 . S
H393 C373 0.930 . S
H394 C385 0.929 1_556 S
H395 C388 0.930 . S
C396 C397 1.387 . S
C396 H400 0.950 . S
C396 C405 1.390 . S
C397 C396 1.387 . S
C397 C399 1.387 1_655 S
H398 C405 0.950 . S
C399 C397 1.387 1_455 S
C399 C401 1.390 . S
C399 H403 0.950 . S
H400 C396 0.950 . S
C401 C399 1.390 . S
C401 C402 1.387 . S
C401 H404 0.950 . S
C402 C401 1.387 . S
C402 C405 1.387 1_455 S
H403 C399 0.950 . S
H404 C401 0.950 . S
C405 C396 1.390 . S
C405 H398 0.950 . S
C405 C402 1.387 1_655 S
C406 C407 1.387 . S
C406 H410 0.950 . S
C406 C415 1.390 1_565 S
C407 C406 1.387 . S
C407 C409 1.387 . S
H408 C415 0.950 . S
C409 C407 1.387 . S
C409 C411 1.390 1_565 S
C409 H413 0.950 . S
H410 C406 0.950 . S
C411 C409 1.390 1_545 S
C411 C412 1.387 . S
C411 H414 0.950 . S
C412 C411 1.387 . S
C412 C415 1.387 . S
H413 C409 0.950 . S
H414 C411 0.950 . S
C415 C406 1.390 1_545 S
C415 H408 0.950 . S
C415 C412 1.387 . S
C416 C417 1.387 . S
C416 H420 0.950 . S
C416 C425 1.390 . S
C417 C416 1.387 . S
C417 C419 1.387 . S
H418 C425 0.950 . S
C419 C417 1.387 . S
C419 C421 1.390 . S
C419 H423 0.950 . S
H420 C416 0.950 . S
C421 C419 1.390 . S
C421 C422 1.387 . S
C421 H424 0.950 . S
C422 C421 1.387 . S
C422 C425 1.387 . S
H423 C419 0.950 . S
H424 C421 0.950 . S
C425 C416 1.390 . S
C425 H418 0.950 . S
C425 C422 1.387 . S
C426 C427 1.387 1_655 S
C426 H430 0.950 . S
C426 C435 1.390 . S
C427 C426 1.387 1_455 S
C427 C429 1.387 . S
H428 C435 0.950 . S
C429 C427 1.387 . S
C429 C431 1.390 . S
C429 H433 0.950 . S
H430 C426 0.950 . S
C431 C429 1.390 . S
C431 C432 1.387 1_455 S
C431 H434 0.950 . S
C432 C431 1.387 1_655 S
C432 C435 1.387 . S
H433 C429 0.950 . S
H434 C431 0.950 . S
C435 C426 1.390 . S
C435 H428 0.950 . S
C435 C432 1.387 . S
C436 C437 1.387 . S
C436 H440 0.950 . S
C436 C445 1.390 1_545 S
C437 C436 1.387 . S
C437 C439 1.387 . S
H438 C445 0.950 . S
C439 C437 1.387 . S
C439 C441 1.390 1_545 S
C439 H443 0.950 . S
H440 C436 0.950 . S
C441 C439 1.390 1_565 S
C441 C442 1.387 . S
C441 H444 0.950 . S
C442 C441 1.387 . S
C442 C445 1.387 . S
H443 C439 0.950 . S
H444 C441 0.950 . S
C445 C436 1.390 1_565 S
C445 H438 0.950 . S
C445 C442 1.387 . S
C446 C447 1.387 . S
C446 H450 0.950 . S
C446 C455 1.390 . S
C447 C446 1.387 . S
C447 C449 1.387 . S
H448 C455 0.950 . S
C449 C447 1.387 . S
C449 C451 1.390 . S
C449 H453 0.950 . S
H450 C446 0.950 . S
C451 C449 1.390 . S
C451 C452 1.387 . S
C451 H454 0.950 . S
C452 C451 1.387 . S
C452 C455 1.387 . S
H453 C449 0.950 . S
H454 C451 0.950 . S
C455 C446 1.390 . S
C455 H448 0.950 . S
C455 C452 1.387 . S
C456 C457 1.387 . S
C456 H460 0.950 . S
C456 C465 1.390 . S
C457 C456 1.387 . S
C457 C459 1.387 . S
H458 C465 0.950 . S
C459 C457 1.387 . S
C459 C461 1.390 . S
C459 H463 0.950 . S
H460 C456 0.950 . S
C461 C459 1.390 . S
C461 C462 1.387 . S
C461 H464 0.950 . S
C462 C461 1.387 . S
C462 C465 1.387 . S
H463 C459 0.950 . S
H464 C461 0.950 . S
C465 C456 1.390 . S
C465 H458 0.950 . S
C465 C462 1.387 . S
C466 C467 1.387 . S
C466 H470 0.950 . S
C466 C475 1.390 . S
C467 C466 1.387 . S
C467 C469 1.387 . S
H468 C475 0.950 . S
C469 C467 1.387 . S
C469 C471 1.390 . S
C469 H473 0.950 . S
H470 C466 0.950 . S
C471 C469 1.390 . S
C471 C472 1.387 . S
C471 H474 0.950 . S
C472 C471 1.387 . S
C472 C475 1.387 . S
H473 C469 0.950 . S
H474 C471 0.950 . S
C475 C466 1.390 . S
C475 H468 0.950 . S
C475 C472 1.387 . S
C476 C477 1.387 . S
C476 H480 0.950 . S
C476 C485 1.390 . S
C477 C476 1.387 . S
C477 C479 1.387 . S
H478 C485 0.950 . S
C479 C477 1.387 . S
C479 C481 1.390 . S
C479 H483 0.950 . S
H480 C476 0.950 . S
C481 C479 1.390 . S
C481 C482 1.387 . S
C481 H484 0.950 . S
C482 C481 1.387 . S
C482 C485 1.387 . S
H483 C479 0.950 . S
H484 C481 0.950 . S
C485 C476 1.390 . S
C485 H478 0.950 . S
C485 C482 1.387 . S
C486 C487 1.387 . S
C486 H490 0.950 . S
C486 C495 1.390 . S
C487 C486 1.387 . S
C487 C489 1.387 . S
H488 C495 0.950 . S
C489 C487 1.387 . S
C489 C491 1.390 . S
C489 H493 0.950 . S
H490 C486 0.950 . S
C491 C489 1.390 . S
C491 C492 1.387 . S
C491 H494 0.950 . S
C492 C491 1.387 . S
C492 C495 1.387 . S
H493 C489 0.950 . S
H494 C491 0.950 . S
C495 C486 1.390 . S
C495 H488 0.950 . S
C495 C492 1.387 . S
C496 C497 1.387 . S
C496 H500 0.950 . S
C496 C505 1.390 . S
C497 C496 1.387 . S
C497 C499 1.387 . S
H498 C505 0.950 . S
C499 C497 1.387 . S
C499 C501 1.390 . S
C499 H503 0.950 . S
H500 C496 0.950 . S
C501 C499 1.390 . S
C501 C502 1.387 . S
C501 H504 0.950 . S
C502 C501 1.387 . S
C502 C505 1.387 . S
H503 C499 0.950 . S
H504 C501 0.950 . S
C505 C496 1.390 . S
C505 H498 0.950 . S
C505 C502 1.387 . S
C506 C507 1.387 . S
C506 H510 0.950 . S
C506 C515 1.390 . S
C507 C506 1.387 . S
C507 C509 1.387 . S
H508 C515 0.950 . S
C509 C507 1.387 . S
C509 C511 1.390 . S
C509 H513 0.950 . S
H510 C506 0.950 . S
C511 C509 1.390 . S
C511 C512 1.387 . S
C511 H514 0.950 . S
C512 C511 1.387 . S
C512 C515 1.387 . S
H513 C509 0.950 . S
H514 C511 0.950 . S
C515 C506 1.390 . S
C515 H508 0.950 . S
C515 C512 1.387 . S
C516 C517 1.387 . S
C516 H520 0.950 . S
C516 C525 1.390 1_655 S
C517 C516 1.387 . S
C517 C519 1.387 . S
H518 C525 0.950 . S
C519 C517 1.387 . S
C519 C521 1.390 1_655 S
C519 H523 0.950 . S
H520 C516 0.950 . S
C521 C519 1.390 1_455 S
C521 C522 1.387 . S
C521 H524 0.950 . S
C522 C521 1.387 . S
C522 C525 1.387 . S
H523 C519 0.950 . S
H524 C521 0.950 . S
C525 C516 1.390 1_455 S
C525 H518 0.950 . S
C525 C522 1.387 . S
C526 C527 1.387 . S
C526 H530 0.950 . S
C526 C535 1.390 1_545 S
C527 C526 1.387 . S
C527 C529 1.387 . S
H528 C535 0.950 . S
C529 C527 1.387 . S
C529 C531 1.390 1_545 S
C529 H533 0.950 . S
H530 C526 0.950 . S
C531 C529 1.390 1_565 S
C531 C532 1.387 . S
C531 H534 0.950 . S
C532 C531 1.387 . S
C532 C535 1.387 . S
H533 C529 0.950 . S
H534 C531 0.950 . S
C535 C526 1.390 1_565 S
C535 H528 0.950 . S
C535 C532 1.387 . S
C536 C537 1.387 1_556 S
C536 H540 0.950 . S
C536 C545 1.390 . S
C537 C536 1.387 1_554 S
C537 C539 1.387 . S
H538 C545 0.950 . S
C539 C537 1.387 . S
C539 C541 1.390 . S
C539 H543 0.950 . S
H540 C536 0.950 . S
C541 C539 1.390 . S
C541 C542 1.387 . S
C541 H544 0.950 . S
C542 C541 1.387 . S
C542 C545 1.387 1_554 S
H543 C539 0.950 . S
H544 C541 0.950 . S
C545 C536 1.390 . S
C545 H538 0.950 . S
C545 C542 1.387 1_556 S
C546 C547 1.387 . S
C546 H550 0.950 . S
C546 C555 1.390 1_565 S
C547 C546 1.387 . S
C547 C549 1.387 . S
H548 C555 0.950 . S
C549 C547 1.387 . S
C549 C551 1.390 1_565 S
C549 H553 0.950 . S
H550 C546 0.950 . S
C551 C549 1.390 1_545 S
C551 C552 1.387 . S
C551 H554 0.950 . S
C552 C551 1.387 . S
C552 C555 1.387 . S
H553 C549 0.950 . S
H554 C551 0.950 . S
C555 C546 1.390 1_545 S
C555 H548 0.950 . S
C555 C552 1.387 . S
C556 C557 1.387 . S
C556 H560 0.950 . S
C556 C565 1.390 . S
C557 C556 1.387 . S
C557 C559 1.387 . S
H558 C565 0.950 . S
C559 C557 1.387 . S
C559 C561 1.390 . S
C559 H563 0.950 . S
H560 C556 0.950 . S
C561 C559 1.390 . S
C561 C562 1.387 . S
C561 H564 0.950 . S
C562 C561 1.387 . S
C562 C565 1.387 . S
H563 C559 0.950 . S
H564 C561 0.950 . S
C565 C556 1.390 . S
C565 H558 0.950 . S
C565 C562 1.387 . S
C566 C567 1.387 1_554 S
C566 H570 0.950 . S
C566 C575 1.390 1_655 S
C567 C566 1.387 1_556 S
C567 C569 1.387 . S
H568 C575 0.950 . S
C569 C567 1.387 . S
C569 C571 1.390 1_655 S
C569 H573 0.950 . S
H570 C566 0.950 . S
C571 C569 1.390 1_455 S
C571 C572 1.387 . S
C571 H574 0.950 . S
C572 C571 1.387 . S
C572 C575 1.387 1_556 S
H573 C569 0.950 . S
H574 C571 0.950 . S
C575 C566 1.390 1_455 S
C575 H568 0.950 . S
C575 C572 1.387 1_554 S
C576 C577 1.387 . S
C576 H580 0.950 . S
C576 C585 1.390 . S
C577 C576 1.387 . S
C577 C579 1.387 . S
H578 C585 0.950 . S
C579 C577 1.387 . S
C579 C581 1.390 . S
C579 H583 0.950 . S
H580 C576 0.950 . S
C581 C579 1.390 . S
C581 C582 1.387 . S
C581 H584 0.950 . S
C582 C581 1.387 . S
C582 C585 1.387 . S
H583 C579 0.950 . S
H584 C581 0.950 . S
C585 C576 1.390 . S
C585 H578 0.950 . S
C585 C582 1.387 . S
C586 C587 1.387 . S
C586 H590 0.950 . S
C586 C595 1.390 1_655 S
C587 C586 1.387 . S
C587 C589 1.387 . S
H588 C595 0.950 . S
C589 C587 1.387 . S
C589 C591 1.390 1_655 S
C589 H593 0.950 . S
H590 C586 0.950 . S
C591 C589 1.390 1_455 S
C591 C592 1.387 . S
C591 H594 0.950 . S
C592 C591 1.387 . S
C592 C595 1.387 . S
H593 C589 0.950 . S
H594 C591 0.950 . S
C595 C586 1.390 1_455 S
C595 H588 0.950 . S
C595 C592 1.387 . S
C596 C597 1.387 . S
C596 H600 0.950 . S
C596 C605 1.390 1_544 S
C597 C596 1.387 . S
C597 C599 1.387 . S
H598 C605 0.950 . S
C599 C597 1.387 . S
C599 C601 1.390 1_544 S
C599 H603 0.950 . S
H600 C596 0.950 . S
C601 C599 1.390 1_566 S
C601 C602 1.387 . S
C601 H604 0.950 . S
C602 C601 1.387 . S
C602 C605 1.387 . S
H603 C599 0.950 . S
H604 C601 0.950 . S
C605 C596 1.390 1_566 S
C605 H598 0.950 . S
C605 C602 1.387 . S
C606 C607 1.387 . S
C606 H610 0.950 . S
C606 C615 1.390 . S
C607 C606 1.387 . S
C607 C609 1.387 . S
H608 C615 0.950 . S
C609 C607 1.387 . S
C609 C611 1.390 . S
C609 H613 0.950 . S
H610 C606 0.950 . S
C611 C609 1.390 . S
C611 C612 1.387 . S
C611 H614 0.950 . S
C612 C611 1.387 . S
C612 C615 1.387 . S
H613 C609 0.950 . S
H614 C611 0.950 . S
C615 C606 1.390 . S
C615 H608 0.950 . S
C615 C612 1.387 . S
C616 C617 1.387 . S
C616 H620 0.950 . S
C616 C625 1.390 1_455 S
C617 C616 1.387 . S
C617 C619 1.387 . S
H618 C625 0.950 . S
C619 C617 1.387 . S
C619 C621 1.390 1_455 S
C619 H623 0.950 . S
H620 C616 0.950 . S
C621 C619 1.390 1_655 S
C621 C622 1.387 . S
C621 H624 0.950 . S
C622 C621 1.387 . S
C622 C625 1.387 . S
H623 C619 0.950 . S
H624 C621 0.950 . S
C625 C616 1.390 1_655 S
C625 H618 0.950 . S
C625 C622 1.387 . S
C626 C627 1.387 . S
C626 H630 0.950 . S
C626 C635 1.390 1_546 S
C627 C626 1.387 . S
C627 C629 1.387 . S
H628 C635 0.950 . S
C629 C627 1.387 . S
C629 C631 1.390 1_546 S
C629 H633 0.950 . S
H630 C626 0.950 . S
C631 C629 1.390 1_564 S
C631 C632 1.387 . S
C631 H634 0.950 . S
C632 C631 1.387 . S
C632 C635 1.387 . S
H633 C629 0.950 . S
H634 C631 0.950 . S
C635 C626 1.390 1_564 S
C635 H628 0.950 . S
C635 C632 1.387 . S
C636 C637 1.387 . S
C636 H640 0.950 . S
C636 C645 1.390 . S
C637 C636 1.387 . S
C637 C639 1.387 . S
H638 C645 0.950 . S
C639 C637 1.387 . S
C639 C641 1.390 . S
C639 H643 0.950 . S
H640 C636 0.950 . S
C641 C639 1.390 . S
C641 C642 1.387 . S
C641 H644 0.950 . S
C642 C641 1.387 . S
C642 C645 1.387 . S
H643 C639 0.950 . S
H644 C641 0.950 . S
C645 C636 1.390 . S
C645 H638 0.950 . S
C645 C642 1.387 . S
C646 C647 1.387 . S
C646 H650 0.950 . S
C646 C655 1.390 . S
C647 C646 1.387 . S
C647 C649 1.387 . S
H648 C655 0.950 . S
C649 C647 1.387 . S
C649 C651 1.390 . S
C649 H653 0.950 . S
H650 C646 0.950 . S
C651 C649 1.390 . S
C651 C652 1.387 . S
C651 H654 0.950 . S
C652 C651 1.387 . S
C652 C655 1.387 . S
H653 C649 0.950 . S
H654 C651 0.950 . S
C655 C646 1.390 . S
C655 H648 0.950 . S
C655 C652 1.387 . S
C656 C657 1.387 . S
C656 H660 0.950 . S
C656 C665 1.390 1_556 S
C657 C656 1.387 . S
C657 C659 1.387 . S
H658 C665 0.950 . S
C659 C657 1.387 . S
C659 C661 1.390 1_556 S
C659 H663 0.950 . S
H660 C656 0.950 . S
C661 C659 1.390 1_554 S
C661 C662 1.387 . S
C661 H664 0.950 . S
C662 C661 1.387 . S
C662 C665 1.387 . S
H663 C659 0.950 . S
H664 C661 0.950 . S
C665 C656 1.390 1_554 S
C665 H658 0.950 . S
C665 C662 1.387 . S
C666 C667 1.387 . S
C666 H670 0.950 . S
C666 C675 1.390 . S
C667 C666 1.387 . S
C667 C669 1.387 . S
H668 C675 0.950 . S
C669 C667 1.387 . S
C669 C671 1.390 . S
C669 H673 0.950 . S
H670 C666 0.950 . S
C671 C669 1.390 . S
C671 C672 1.387 . S
C671 H674 0.950 . S
C672 C671 1.387 . S
C672 C675 1.387 . S
H673 C669 0.950 . S
H674 C671 0.950 . S
C675 C666 1.390 . S
C675 H668 0.950 . S
C675 C672 1.387 . S
C676 C677 1.387 . S
C676 H680 0.950 . S
C676 C685 1.390 . S
C677 C676 1.387 . S
C677 C679 1.387 . S
H678 C685 0.950 . S
C679 C677 1.387 . S
C679 C681 1.390 . S
C679 H683 0.950 . S
H680 C676 0.950 . S
C681 C679 1.390 . S
C681 C682 1.387 . S
C681 H684 0.950 . S
C682 C681 1.387 . S
C682 C685 1.387 . S
H683 C679 0.950 . S
H684 C681 0.950 . S
C685 C676 1.390 . S
C685 H678 0.950 . S
C685 C682 1.387 . S
C686 C687 1.387 . S
C686 H690 0.950 . S
C686 C695 1.390 1_556 S
C687 C686 1.387 . S
C687 C689 1.387 . S
H688 C695 0.950 . S
C689 C687 1.387 . S
C689 C691 1.390 1_556 S
C689 H693 0.950 . S
H690 C686 0.950 . S
C691 C689 1.390 1_554 S
C691 C692 1.387 . S
C691 H694 0.950 . S
C692 C691 1.387 . S
C692 C695 1.387 . S
H693 C689 0.950 . S
H694 C691 0.950 . S
C695 C686 1.390 1_554 S
C695 H688 0.950 . S
C695 C692 1.387 . S
C397 C381 1.866 . S
C402 C18 1.864 . S
C407 C216 1.952 . S
C412 C51 1.952 . S
C417 C84 1.866 . S
C422 C249 1.864 . S
C427 C282 1.868 . S
C432 C117 1.864 . S
C437 C315 1.952 . S
C442 C150 1.952 . S
C447 C348 1.866 . S
C452 C183 1.864 . S
C457 C7 0.828 . S
C462 C337 0.828 . S
C467 C40 0.887 . S
C472 C370 0.886 . S
C477 C205 0.889 . S
C482 C73 0.890 . S
C487 C238 0.819 . S
C492 C106 0.819 . S
C497 C271 0.882 . S
C502 C139 0.889 . S
C507 C172 0.882 . S
C512 C304 0.889 . S
C517 N112 1.315 . S
C522 N13 1.315 . S
C527 N46 1.322 . S
C532 N145 1.322 . S
C537 N178 1.318 . S
C542 N79 1.318 . S
C547 N211 1.321 . S
C552 N310 1.321 . S
C557 N244 1.316 . S
C562 N343 1.316 . S
C567 N376 1.318 . S
C572 N277 1.318 . S
C577 N2 1.078 . S
C582 N299 1.079 . S
C587 N35 1.079 . S
C592 N332 1.078 . S
C597 N365 1.083 . S
C602 N68 1.085 . S
C607 N101 1.078 . S
C612 N200 1.079 . S
C617 N134 1.077 . S
C622 N233 1.080 . S
C627 N167 1.082 . S
C632 N266 1.083 . S
C637 C219 1.739 . S
C642 C21 1.738 . S
C647 C252 1.738 . S
C652 C54 1.739 . S
C657 C87 1.753 . S
C662 C285 1.754 . S
C667 C318 1.739 . S
C672 C120 1.738 . S
C677 C153 1.739 . S
C682 C351 1.739 . S
C687 C186 1.756 . S
C692 C384 1.756 . S
