# Generated by pormake.
# Topology fcn, (5)-cn, num edge types: 1
# Building blocks:
#     Node 0, Type 0, BuildingBlock: XOMCOT_clean_sbu_1, # of connection points: 5
#     Node 1, Type 0, BuildingBlock: XOMCOT_clean_sbu_1, # of connection points: 5
#     Node 2, Type 0, BuildingBlock: XOMCOT_clean_sbu_1, # of connection points: 5
#     Node 3, Type 0, BuildingBlock: XOMCOT_clean_sbu_1, # of connection points: 5
#     Node 4, Type 0, BuildingBlock: XOMCOT_clean_sbu_1, # of connection points: 5
#     Node 5, Type 0, BuildingBlock: XOMCOT_clean_sbu_1, # of connection points: 5
#     Node 6, Type 0, BuildingBlock: XOMCOT_clean_sbu_1, # of connection points: 5
#     Node 7, Type 0, BuildingBlock: XOMCOT_clean_sbu_1, # of connection points: 5
#     Node 8, Type 0, BuildingBlock: XOMCOT_clean_sbu_1, # of connection points: 5
#     Node 9, Type 0, BuildingBlock: XOMCOT_clean_sbu_1, # of connection points: 5
#     Node 10, Type 0, BuildingBlock: XOMCOT_clean_sbu_1, # of connection points: 5
#     Node 11, Type 0, BuildingBlock: XOMCOT_clean_sbu_1, # of connection points: 5
#     Node 12, Type 0, BuildingBlock: XOMCOT_clean_sbu_1, # of connection points: 5
#     Node 13, Type 0, BuildingBlock: XOMCOT_clean_sbu_1, # of connection points: 5
#     Node 14, Type 0, BuildingBlock: XOMCOT_clean_sbu_1, # of connection points: 5
#     Node 15, Type 0, BuildingBlock: XOMCOT_clean_sbu_1, # of connection points: 5
#     Node 16, Type 0, BuildingBlock: XOMCOT_clean_sbu_1, # of connection points: 5
#     Node 17, Type 0, BuildingBlock: XOMCOT_clean_sbu_1, # of connection points: 5
#     Node 18, Type 0, BuildingBlock: XOMCOT_clean_sbu_1, # of connection points: 5
#     Node 19, Type 0, BuildingBlock: XOMCOT_clean_sbu_1, # of connection points: 5
#     Node 20, Type 0, BuildingBlock: XOMCOT_clean_sbu_1, # of connection points: 5
#     Node 21, Type 0, BuildingBlock: XOMCOT_clean_sbu_1, # of connection points: 5
#     Node 22, Type 0, BuildingBlock: XOMCOT_clean_sbu_1, # of connection points: 5
#     Node 23, Type 0, BuildingBlock: XOMCOT_clean_sbu_1, # of connection points: 5
#     Node 24, Type 0, BuildingBlock: XOMCOT_clean_sbu_1, # of connection points: 5
#     Node 25, Type 0, BuildingBlock: XOMCOT_clean_sbu_1, # of connection points: 5
#     Node 26, Type 0, BuildingBlock: XOMCOT_clean_sbu_1, # of connection points: 5
#     Node 27, Type 0, BuildingBlock: XOMCOT_clean_sbu_1, # of connection points: 5
#     Node 28, Type 0, BuildingBlock: XOMCOT_clean_sbu_1, # of connection points: 5
#     Node 29, Type 0, BuildingBlock: XOMCOT_clean_sbu_1, # of connection points: 5
#     Node 30, Type 0, BuildingBlock: XOMCOT_clean_sbu_1, # of connection points: 5
#     Node 31, Type 0, BuildingBlock: XOMCOT_clean_sbu_1, # of connection points: 5
#     Node 32, Type 0, BuildingBlock: XOMCOT_clean_sbu_1, # of connection points: 5
#     Node 33, Type 0, BuildingBlock: XOMCOT_clean_sbu_1, # of connection points: 5
#     Node 34, Type 0, BuildingBlock: XOMCOT_clean_sbu_1, # of connection points: 5
#     Node 35, Type 0, BuildingBlock: XOMCOT_clean_sbu_1, # of connection points: 5
#     Node 36, Type 0, BuildingBlock: XOMCOT_clean_sbu_1, # of connection points: 5
#     Node 37, Type 0, BuildingBlock: XOMCOT_clean_sbu_1, # of connection points: 5
#     Node 38, Type 0, BuildingBlock: XOMCOT_clean_sbu_1, # of connection points: 5
#     Node 39, Type 0, BuildingBlock: XOMCOT_clean_sbu_1, # of connection points: 5
#     Node 40, Type 0, BuildingBlock: XOMCOT_clean_sbu_1, # of connection points: 5
#     Node 41, Type 0, BuildingBlock: XOMCOT_clean_sbu_1, # of connection points: 5
#     Node 42, Type 0, BuildingBlock: XOMCOT_clean_sbu_1, # of connection points: 5
#     Node 43, Type 0, BuildingBlock: XOMCOT_clean_sbu_1, # of connection points: 5
#     Node 44, Type 0, BuildingBlock: XOMCOT_clean_sbu_1, # of connection points: 5
#     Node 45, Type 0, BuildingBlock: XOMCOT_clean_sbu_1, # of connection points: 5
#     Node 46, Type 0, BuildingBlock: XOMCOT_clean_sbu_1, # of connection points: 5
#     Node 47, Type 0, BuildingBlock: XOMCOT_clean_sbu_1, # of connection points: 5
#     Edge 48, Type (0, 0), BuildingBlock: KIFKEQ_clean_linker_1, # of connection points: 2
#     Edge 49, Type (0, 0), BuildingBlock: KIFKEQ_clean_linker_1, # of connection points: 2
#     Edge 50, Type (0, 0), BuildingBlock: KIFKEQ_clean_linker_1, # of connection points: 2
#     Edge 51, Type (0, 0), BuildingBlock: KIFKEQ_clean_linker_1, # of connection points: 2
#     Edge 52, Type (0, 0), BuildingBlock: KIFKEQ_clean_linker_1, # of connection points: 2
#     Edge 53, Type (0, 0), BuildingBlock: KIFKEQ_clean_linker_1, # of connection points: 2
#     Edge 54, Type (0, 0), BuildingBlock: KIFKEQ_clean_linker_1, # of connection points: 2
#     Edge 55, Type (0, 0), BuildingBlock: KIFKEQ_clean_linker_1, # of connection points: 2
#     Edge 56, Type (0, 0), BuildingBlock: KIFKEQ_clean_linker_1, # of connection points: 2
#     Edge 57, Type (0, 0), BuildingBlock: KIFKEQ_clean_linker_1, # of connection points: 2
#     Edge 58, Type (0, 0), BuildingBlock: KIFKEQ_clean_linker_1, # of connection points: 2
#     Edge 59, Type (0, 0), BuildingBlock: KIFKEQ_clean_linker_1, # of connection points: 2
#     Edge 60, Type (0, 0), BuildingBlock: KIFKEQ_clean_linker_1, # of connection points: 2
#     Edge 61, Type (0, 0), BuildingBlock: KIFKEQ_clean_linker_1, # of connection points: 2
#     Edge 62, Type (0, 0), BuildingBlock: KIFKEQ_clean_linker_1, # of connection points: 2
#     Edge 63, Type (0, 0), BuildingBlock: KIFKEQ_clean_linker_1, # of connection points: 2
#     Edge 64, Type (0, 0), BuildingBlock: KIFKEQ_clean_linker_1, # of connection points: 2
#     Edge 65, Type (0, 0), BuildingBlock: KIFKEQ_clean_linker_1, # of connection points: 2
#     Edge 66, Type (0, 0), BuildingBlock: KIFKEQ_clean_linker_1, # of connection points: 2
#     Edge 67, Type (0, 0), BuildingBlock: KIFKEQ_clean_linker_1, # of connection points: 2
#     Edge 68, Type (0, 0), BuildingBlock: KIFKEQ_clean_linker_1, # of connection points: 2
#     Edge 69, Type (0, 0), BuildingBlock: KIFKEQ_clean_linker_1, # of connection points: 2
#     Edge 70, Type (0, 0), BuildingBlock: KIFKEQ_clean_linker_1, # of connection points: 2
#     Edge 71, Type (0, 0), BuildingBlock: KIFKEQ_clean_linker_1, # of connection points: 2
#     Edge 72, Type (0, 0), BuildingBlock: KIFKEQ_clean_linker_1, # of connection points: 2
#     Edge 73, Type (0, 0), BuildingBlock: KIFKEQ_clean_linker_1, # of connection points: 2
#     Edge 74, Type (0, 0), BuildingBlock: KIFKEQ_clean_linker_1, # of connection points: 2
#     Edge 75, Type (0, 0), BuildingBlock: KIFKEQ_clean_linker_1, # of connection points: 2
#     Edge 76, Type (0, 0), BuildingBlock: KIFKEQ_clean_linker_1, # of connection points: 2
#     Edge 77, Type (0, 0), BuildingBlock: KIFKEQ_clean_linker_1, # of connection points: 2
#     Edge 78, Type (0, 0), BuildingBlock: KIFKEQ_clean_linker_1, # of connection points: 2
#     Edge 79, Type (0, 0), BuildingBlock: KIFKEQ_clean_linker_1, # of connection points: 2
#     Edge 80, Type (0, 0), BuildingBlock: KIFKEQ_clean_linker_1, # of connection points: 2
#     Edge 81, Type (0, 0), BuildingBlock: KIFKEQ_clean_linker_1, # of connection points: 2
#     Edge 82, Type (0, 0), BuildingBlock: KIFKEQ_clean_linker_1, # of connection points: 2
#     Edge 83, Type (0, 0), BuildingBlock: KIFKEQ_clean_linker_1, # of connection points: 2
#     Edge 84, Type (0, 0), BuildingBlock: KIFKEQ_clean_linker_1, # of connection points: 2
#     Edge 85, Type (0, 0), BuildingBlock: KIFKEQ_clean_linker_1, # of connection points: 2
#     Edge 86, Type (0, 0), BuildingBlock: KIFKEQ_clean_linker_1, # of connection points: 2
#     Edge 87, Type (0, 0), BuildingBlock: KIFKEQ_clean_linker_1, # of connection points: 2
#     Edge 88, Type (0, 0), BuildingBlock: KIFKEQ_clean_linker_1, # of connection points: 2
#     Edge 89, Type (0, 0), BuildingBlock: KIFKEQ_clean_linker_1, # of connection points: 2
#     Edge 90, Type (0, 0), BuildingBlock: KIFKEQ_clean_linker_1, # of connection points: 2
#     Edge 91, Type (0, 0), BuildingBlock: KIFKEQ_clean_linker_1, # of connection points: 2
#     Edge 92, Type (0, 0), BuildingBlock: KIFKEQ_clean_linker_1, # of connection points: 2
#     Edge 93, Type (0, 0), BuildingBlock: KIFKEQ_clean_linker_1, # of connection points: 2
#     Edge 94, Type (0, 0), BuildingBlock: KIFKEQ_clean_linker_1, # of connection points: 2
#     Edge 95, Type (0, 0), BuildingBlock: KIFKEQ_clean_linker_1, # of connection points: 2
#     Edge 96, Type (0, 0), BuildingBlock: KIFKEQ_clean_linker_1, # of connection points: 2
#     Edge 97, Type (0, 0), BuildingBlock: KIFKEQ_clean_linker_1, # of connection points: 2
#     Edge 98, Type (0, 0), BuildingBlock: KIFKEQ_clean_linker_1, # of connection points: 2
#     Edge 99, Type (0, 0), BuildingBlock: KIFKEQ_clean_linker_1, # of connection points: 2
#     Edge 100, Type (0, 0), BuildingBlock: KIFKEQ_clean_linker_1, # of connection points: 2
#     Edge 101, Type (0, 0), BuildingBlock: KIFKEQ_clean_linker_1, # of connection points: 2
#     Edge 102, Type (0, 0), BuildingBlock: KIFKEQ_clean_linker_1, # of connection points: 2
#     Edge 103, Type (0, 0), BuildingBlock: KIFKEQ_clean_linker_1, # of connection points: 2
#     Edge 104, Type (0, 0), BuildingBlock: KIFKEQ_clean_linker_1, # of connection points: 2
#     Edge 105, Type (0, 0), BuildingBlock: KIFKEQ_clean_linker_1, # of connection points: 2
#     Edge 106, Type (0, 0), BuildingBlock: KIFKEQ_clean_linker_1, # of connection points: 2
#     Edge 107, Type (0, 0), BuildingBlock: KIFKEQ_clean_linker_1, # of connection points: 2
#     Edge 108, Type (0, 0), BuildingBlock: KIFKEQ_clean_linker_1, # of connection points: 2
#     Edge 109, Type (0, 0), BuildingBlock: KIFKEQ_clean_linker_1, # of connection points: 2
#     Edge 110, Type (0, 0), BuildingBlock: KIFKEQ_clean_linker_1, # of connection points: 2
#     Edge 111, Type (0, 0), BuildingBlock: KIFKEQ_clean_linker_1, # of connection points: 2
#     Edge 112, Type (0, 0), BuildingBlock: KIFKEQ_clean_linker_1, # of connection points: 2
#     Edge 113, Type (0, 0), BuildingBlock: KIFKEQ_clean_linker_1, # of connection points: 2
#     Edge 114, Type (0, 0), BuildingBlock: KIFKEQ_clean_linker_1, # of connection points: 2
#     Edge 115, Type (0, 0), BuildingBlock: KIFKEQ_clean_linker_1, # of connection points: 2
#     Edge 116, Type (0, 0), BuildingBlock: KIFKEQ_clean_linker_1, # of connection points: 2
#     Edge 117, Type (0, 0), BuildingBlock: KIFKEQ_clean_linker_1, # of connection points: 2
#     Edge 118, Type (0, 0), BuildingBlock: KIFKEQ_clean_linker_1, # of connection points: 2
#     Edge 119, Type (0, 0), BuildingBlock: KIFKEQ_clean_linker_1, # of connection points: 2
#     Edge 120, Type (0, 0), BuildingBlock: KIFKEQ_clean_linker_1, # of connection points: 2
#     Edge 121, Type (0, 0), BuildingBlock: KIFKEQ_clean_linker_1, # of connection points: 2
#     Edge 122, Type (0, 0), BuildingBlock: KIFKEQ_clean_linker_1, # of connection points: 2
#     Edge 123, Type (0, 0), BuildingBlock: KIFKEQ_clean_linker_1, # of connection points: 2
#     Edge 124, Type (0, 0), BuildingBlock: KIFKEQ_clean_linker_1, # of connection points: 2
#     Edge 125, Type (0, 0), BuildingBlock: KIFKEQ_clean_linker_1, # of connection points: 2
#     Edge 126, Type (0, 0), BuildingBlock: KIFKEQ_clean_linker_1, # of connection points: 2
#     Edge 127, Type (0, 0), BuildingBlock: KIFKEQ_clean_linker_1, # of connection points: 2
#     Edge 128, Type (0, 0), BuildingBlock: KIFKEQ_clean_linker_1, # of connection points: 2
#     Edge 129, Type (0, 0), BuildingBlock: KIFKEQ_clean_linker_1, # of connection points: 2
#     Edge 130, Type (0, 0), BuildingBlock: KIFKEQ_clean_linker_1, # of connection points: 2
#     Edge 131, Type (0, 0), BuildingBlock: KIFKEQ_clean_linker_1, # of connection points: 2
#     Edge 132, Type (0, 0), BuildingBlock: KIFKEQ_clean_linker_1, # of connection points: 2
#     Edge 133, Type (0, 0), BuildingBlock: KIFKEQ_clean_linker_1, # of connection points: 2
#     Edge 134, Type (0, 0), BuildingBlock: KIFKEQ_clean_linker_1, # of connection points: 2
#     Edge 135, Type (0, 0), BuildingBlock: KIFKEQ_clean_linker_1, # of connection points: 2
#     Edge 136, Type (0, 0), BuildingBlock: KIFKEQ_clean_linker_1, # of connection points: 2
#     Edge 137, Type (0, 0), BuildingBlock: KIFKEQ_clean_linker_1, # of connection points: 2
#     Edge 138, Type (0, 0), BuildingBlock: KIFKEQ_clean_linker_1, # of connection points: 2
#     Edge 139, Type (0, 0), BuildingBlock: KIFKEQ_clean_linker_1, # of connection points: 2
#     Edge 140, Type (0, 0), BuildingBlock: KIFKEQ_clean_linker_1, # of connection points: 2
#     Edge 141, Type (0, 0), BuildingBlock: KIFKEQ_clean_linker_1, # of connection points: 2
#     Edge 142, Type (0, 0), BuildingBlock: KIFKEQ_clean_linker_1, # of connection points: 2
#     Edge 143, Type (0, 0), BuildingBlock: KIFKEQ_clean_linker_1, # of connection points: 2
#     Edge 144, Type (0, 0), BuildingBlock: KIFKEQ_clean_linker_1, # of connection points: 2
#     Edge 145, Type (0, 0), BuildingBlock: KIFKEQ_clean_linker_1, # of connection points: 2
#     Edge 146, Type (0, 0), BuildingBlock: KIFKEQ_clean_linker_1, # of connection points: 2
#     Edge 147, Type (0, 0), BuildingBlock: KIFKEQ_clean_linker_1, # of connection points: 2
#     Edge 148, Type (0, 0), BuildingBlock: KIFKEQ_clean_linker_1, # of connection points: 2
#     Edge 149, Type (0, 0), BuildingBlock: KIFKEQ_clean_linker_1, # of connection points: 2
#     Edge 150, Type (0, 0), BuildingBlock: KIFKEQ_clean_linker_1, # of connection points: 2
#     Edge 151, Type (0, 0), BuildingBlock: KIFKEQ_clean_linker_1, # of connection points: 2
#     Edge 152, Type (0, 0), BuildingBlock: KIFKEQ_clean_linker_1, # of connection points: 2
#     Edge 153, Type (0, 0), BuildingBlock: KIFKEQ_clean_linker_1, # of connection points: 2
#     Edge 154, Type (0, 0), BuildingBlock: KIFKEQ_clean_linker_1, # of connection points: 2
#     Edge 155, Type (0, 0), BuildingBlock: KIFKEQ_clean_linker_1, # of connection points: 2
#     Edge 156, Type (0, 0), BuildingBlock: KIFKEQ_clean_linker_1, # of connection points: 2
#     Edge 157, Type (0, 0), BuildingBlock: KIFKEQ_clean_linker_1, # of connection points: 2
#     Edge 158, Type (0, 0), BuildingBlock: KIFKEQ_clean_linker_1, # of connection points: 2
#     Edge 159, Type (0, 0), BuildingBlock: KIFKEQ_clean_linker_1, # of connection points: 2
#     Edge 160, Type (0, 0), BuildingBlock: KIFKEQ_clean_linker_1, # of connection points: 2
#     Edge 161, Type (0, 0), BuildingBlock: KIFKEQ_clean_linker_1, # of connection points: 2
#     Edge 162, Type (0, 0), BuildingBlock: KIFKEQ_clean_linker_1, # of connection points: 2
#     Edge 163, Type (0, 0), BuildingBlock: KIFKEQ_clean_linker_1, # of connection points: 2
#     Edge 164, Type (0, 0), BuildingBlock: KIFKEQ_clean_linker_1, # of connection points: 2
#     Edge 165, Type (0, 0), BuildingBlock: KIFKEQ_clean_linker_1, # of connection points: 2
#     Edge 166, Type (0, 0), BuildingBlock: KIFKEQ_clean_linker_1, # of connection points: 2
#     Edge 167, Type (0, 0), BuildingBlock: KIFKEQ_clean_linker_1, # of connection points: 2
# Relax obj value: 0.272
# Max RMSD: 0.219
# Mean RMSD: 0.219
data_MOF--net-fcn--node1-XOMCOT_clean_sbu_1--edge1-KIFKEQ_clean_linker_1
_symmetry_space_group_name_H-M    P1
_symmetry_Int_Tables_number       1
_symmetry_cell_setting            triclinic
loop_
_symmetry_equiv_pos_as_xyz
'x, y, z'
_cell_length_a     75.290511
_cell_length_b     75.247338
_cell_length_c     75.27292
_cell_angle_alpha  89.945667
_cell_angle_beta   89.998777
_cell_angle_gamma 89.987499
loop_
_atom_site_label
_atom_site_type_symbol
_atom_site_fract_x
_atom_site_fract_y
_atom_site_fract_z
_atom_type_partial_charge
C0 C 0.0849 0.21894 0.28256 0.0
C1 C 0.07175 0.2312 0.28577 0.0
N2 N 0.05678 0.22571 0.2776 0.0
N3 N 0.07823 0.20574 0.27251 0.0
C4 C 0.06114 0.21023 0.26961 0.0
H5 H 0.09852 0.21964 0.28708 0.0
Co6 Co 0.09111 0.18667 0.26395 0.0
C7 C 0.06494 0.157 0.26725 0.0
O8 O 0.07614 0.14773 0.27694 0.0
N9 N 0.10465 0.16783 0.25448 0.0
C10 C 0.11364 0.14459 0.23847 0.0
C11 C 0.09919 0.15385 0.24458 0.0
C12 C 0.12255 0.16739 0.25301 0.0
N13 N 0.12836 0.15313 0.24383 0.0
O14 O 0.08777 0.19496 0.24037 0.0
H15 H 0.08568 0.15106 0.24076 0.0
H16 H 0.13118 0.17779 0.25779 0.0
O17 O 0.06935 0.17248 0.2617 0.0
C18 C 0.09735 0.20796 0.23546 0.0
O19 O 0.10821 0.2153 0.24699 0.0
N20 N 0.09506 0.17915 0.2876 0.0
C21 C 0.10281 0.16706 0.32182 0.0
C22 C 0.08518 0.17039 0.31668 0.0
C23 C 0.08162 0.17676 0.29959 0.0
C24 C 0.11223 0.17819 0.29319 0.0
C25 C 0.11643 0.17169 0.30998 0.0
H26 H 0.068 0.17933 0.29585 0.0
H27 H 0.12285 0.18255 0.28475 0.0
H28 H 0.0521 0.20225 0.26182 0.0
H29 H 0.07325 0.24338 0.29325 0.0
H30 H 0.11332 0.13308 0.22986 0.0
H31 H 0.07422 0.16788 0.32565 0.0
H32 H 0.13029 0.16984 0.31331 0.0
C33 C 0.04043 0.84095 0.54416 0.0
C34 C 0.02909 0.82686 0.547 0.0
N35 N 0.03523 0.8128 0.53777 0.0
N36 N 0.05359 0.83572 0.53322 0.0
C37 C 0.05006 0.81855 0.52953 0.0
H38 H 0.03898 0.85426 0.54938 0.0
Co39 Co 0.07104 0.85013 0.52381 0.0
C40 C 0.10243 0.82765 0.51868 0.0
O41 O 0.11197 0.8399 0.52667 0.0
N42 N 0.08869 0.8649 0.51342 0.0
C43 C 0.10677 0.87448 0.49206 0.0
C44 C 0.09488 0.86165 0.49688 0.0
C45 C 0.09706 0.88009 0.51826 0.0
N46 N 0.10823 0.88614 0.50552 0.0
O47 O 0.05941 0.84919 0.50149 0.0
H48 H 0.09081 0.85063 0.48861 0.0
H49 H 0.09494 0.88682 0.53069 0.0
O50 O 0.08557 0.82952 0.51749 0.0
C51 C 0.05057 0.86345 0.49956 0.0
O52 O 0.05043 0.87502 0.51264 0.0
N53 N 0.08092 0.85215 0.54639 0.0
C54 C 0.09233 0.85939 0.58081 0.0
C55 C 0.09386 0.84217 0.57372 0.0
C56 C 0.08773 0.83873 0.55653 0.0
C57 C 0.07748 0.86826 0.55379 0.0
C58 C 0.08353 0.87238 0.57072 0.0
H59 H 0.08838 0.82532 0.55146 0.0
H60 H 0.07022 0.87813 0.54628 0.0
H61 H 0.05776 0.81061 0.52035 0.0
H62 H 0.0172 0.827 0.55508 0.0
H63 H 0.11324 0.87545 0.47927 0.0
H64 H 0.09975 0.83148 0.58134 0.0
H65 H 0.08176 0.88581 0.57554 0.0
C66 C 0.41853 0.78741 0.78913 0.0
C67 C 0.43259 0.77582 0.78862 0.0
N68 N 0.44629 0.78385 0.78031 0.0
N69 N 0.42325 0.80273 0.78122 0.0
C70 C 0.44023 0.80023 0.77595 0.0
H71 H 0.40574 0.78502 0.79522 0.0
Co72 Co 0.40799 0.82192 0.78018 0.0
C73 C 0.4293 0.85274 0.76784 0.0
O74 O 0.42212 0.86281 0.7801 0.0
N75 N 0.39158 0.84148 0.77928 0.0
C76 C 0.3752 0.86533 0.78598 0.0
C77 C 0.38828 0.85411 0.79173 0.0
C78 C 0.38019 0.84572 0.76595 0.0
N79 N 0.37003 0.86002 0.76979 0.0
O80 O 0.39948 0.81329 0.75783 0.0
H81 H 0.3953 0.85588 0.80406 0.0
H82 H 0.37901 0.83838 0.75369 0.0
O83 O 0.42554 0.83616 0.76716 0.0
C84 C 0.38612 0.80291 0.75738 0.0
O85 O 0.37785 0.79909 0.77227 0.0
N86 N 0.41621 0.82887 0.80263 0.0
C87 C 0.42303 0.84188 0.83664 0.0
C88 C 0.4363 0.84212 0.82345 0.0
C89 C 0.43266 0.83541 0.80651 0.0
C90 C 0.40441 0.82564 0.81594 0.0
C91 C 0.40725 0.83254 0.83289 0.0
H92 H 0.44287 0.83597 0.79644 0.0
H93 H 0.39191 0.81924 0.81289 0.0
H94 H 0.44799 0.81025 0.76918 0.0
H95 H 0.4328 0.76267 0.79445 0.0
H96 H 0.37005 0.8767 0.79313 0.0
H97 H 0.4492 0.84797 0.82589 0.0
H98 H 0.39652 0.83157 0.84237 0.0
C99 C 0.47112 0.16212 0.03592 0.0
C100 C 0.48178 0.17635 0.04023 0.0
N101 N 0.47657 0.1905 0.03051 0.0
N102 N 0.45918 0.16733 0.02365 0.0
C103 C 0.46294 0.18456 0.02049 0.0
H104 H 0.47186 0.14889 0.0415 0.0
Co105 Co 0.4415 0.15382 0.01332 0.0
C106 C 0.41011 0.17774 0.01352 0.0
O107 O 0.40026 0.16493 0.02016 0.0
N108 N 0.42376 0.14008 0.00203 0.0
C109 C 0.40521 0.13234 0.9803 0.0
C110 C 0.41449 0.14604 0.98782 0.0
C111 C 0.42015 0.12243 0.00251 0.0
N112 N 0.40884 0.11748 0.9895 0.0
O113 O 0.45159 0.15809 0.99053 0.0
H114 H 0.41531 0.15932 0.98241 0.0
H115 H 0.42674 0.11302 0.01107 0.0
O116 O 0.42663 0.17506 0.01059 0.0
C117 C 0.46055 0.14497 0.9848 0.0
O118 O 0.46286 0.13121 0.99531 0.0
N119 N 0.43251 0.14875 0.0361 0.0
C120 C 0.42045 0.13819 0.06951 0.0
C121 C 0.41985 0.15613 0.06441 0.0
C122 C 0.4264 0.16121 0.0478 0.0
C123 C 0.43506 0.13171 0.04167 0.0
C124 C 0.42875 0.12602 0.05813 0.0
H125 H 0.42651 0.17515 0.0444 0.0
H126 H 0.44237 0.12254 0.03345 0.0
H127 H 0.45589 0.19252 0.01081 0.0
H128 H 0.4923 0.1763 0.05002 0.0
H129 H 0.39703 0.13309 0.96849 0.0
H130 H 0.41404 0.16613 0.07297 0.0
H131 H 0.43047 0.11225 0.06196 0.0
C132 C 0.07186 0.79327 0.22915 0.0
C133 C 0.06006 0.77985 0.22571 0.0
N134 N 0.04385 0.78502 0.23122 0.0
N135 N 0.06332 0.80705 0.23683 0.0
C136 C 0.04619 0.80158 0.23785 0.0
H137 H 0.08574 0.79311 0.22562 0.0
Co138 Co 0.07396 0.82881 0.2436 0.0
C139 C 0.04419 0.84041 0.25957 0.0
O140 O 0.04111 0.845 0.24301 0.0
N141 N 0.08444 0.85025 0.25028 0.0
C142 C 0.09228 0.8787 0.24971 0.0
C143 C 0.07991 0.86642 0.24409 0.0
C144 C 0.09933 0.85304 0.25988 0.0
N145 N 0.10463 0.87018 0.25952 0.0
O146 O 0.08966 0.81535 0.25949 0.0
H147 H 0.06887 0.86895 0.23524 0.0
H148 H 0.10701 0.84244 0.26574 0.0
O149 O 0.05799 0.83126 0.26308 0.0
C150 C 0.10297 0.80482 0.26005 0.0
O151 O 0.11124 0.80014 0.24544 0.0
N152 N 0.08888 0.82829 0.22349 0.0
C153 C 0.10529 0.83963 0.19205 0.0
C154 C 0.08713 0.83549 0.19243 0.0
C155 C 0.07921 0.83 0.20826 0.0
C156 C 0.10674 0.83147 0.22329 0.0
C157 C 0.11524 0.83686 0.20763 0.0
H158 H 0.06493 0.82851 0.20872 0.0
H159 H 0.11433 0.8313 0.23543 0.0
H160 H 0.0356 0.80953 0.24335 0.0
H161 H 0.06316 0.76747 0.2191 0.0
H162 H 0.09252 0.89263 0.24616 0.0
H163 H 0.07872 0.8378 0.18099 0.0
H164 H 0.12931 0.83981 0.20804 0.0
C165 C 0.45438 0.82375 0.45998 0.0
C166 C 0.46721 0.81097 0.4577 0.0
N167 N 0.46695 0.80008 0.4719 0.0
N168 N 0.44579 0.82089 0.47545 0.0
C169 C 0.45412 0.80663 0.48262 0.0
H170 H 0.45157 0.8344 0.45079 0.0
Co171 Co 0.42725 0.83459 0.48506 0.0
C172 C 0.41355 0.79698 0.49143 0.0
O173 O 0.42046 0.78977 0.47712 0.0
N174 N 0.40912 0.84842 0.49455 0.0
C175 C 0.38268 0.858 0.50344 0.0
C176 C 0.39216 0.84354 0.4977 0.0
C177 C 0.40959 0.86595 0.49831 0.0
N178 N 0.39363 0.87215 0.50377 0.0
O179 O 0.44009 0.83648 0.50694 0.0
H180 H 0.38675 0.83045 0.4954 0.0
H181 H 0.42128 0.8741 0.49645 0.0
O182 O 0.41561 0.81353 0.49452 0.0
C183 C 0.45183 0.84862 0.50776 0.0
O184 O 0.45495 0.85818 0.49347 0.0
N185 N 0.41472 0.83423 0.46341 0.0
C186 C 0.39449 0.84289 0.43346 0.0
C187 C 0.39024 0.82801 0.44388 0.0
C188 C 0.40047 0.82394 0.45888 0.0
C189 C 0.41913 0.84858 0.45326 0.0
C190 C 0.40939 0.853 0.43811 0.0
H191 H 0.39602 0.81327 0.46725 0.0
H192 H 0.42984 0.85718 0.45748 0.0
H193 H 0.45072 0.80105 0.49543 0.0
H194 H 0.4757 0.8095 0.44618 0.0
H195 H 0.36875 0.85805 0.50697 0.0
H196 H 0.37872 0.81995 0.44084 0.0
H197 H 0.4129 0.86485 0.43071 0.0
C198 C 0.41096 0.22941 0.71059 0.0
C199 C 0.42491 0.24079 0.70731 0.0
N200 N 0.4397 0.23366 0.71442 0.0
N201 N 0.41696 0.21525 0.7198 0.0
C202 C 0.43452 0.21821 0.72192 0.0
H203 H 0.39722 0.23151 0.70695 0.0
Co204 Co 0.40293 0.19738 0.7295 0.0
C205 C 0.43037 0.16784 0.7244 0.0
O206 O 0.42247 0.16054 0.71068 0.0
N207 N 0.38863 0.17962 0.74003 0.0
C208 C 0.37746 0.15431 0.75052 0.0
C209 C 0.39063 0.16176 0.74043 0.0
C210 C 0.37383 0.1826 0.74982 0.0
N211 N 0.36692 0.16741 0.75642 0.0
O212 O 0.40778 0.20631 0.75264 0.0
H213 H 0.40073 0.15422 0.73382 0.0
H214 H 0.36826 0.19565 0.75212 0.0
O215 O 0.42375 0.18168 0.73176 0.0
C216 C 0.39852 0.21977 0.75701 0.0
O217 O 0.38777 0.22672 0.74513 0.0
N218 N 0.39689 0.18946 0.7065 0.0
C219 C 0.38524 0.17471 0.6747 0.0
C220 C 0.40296 0.18019 0.67659 0.0
C221 C 0.40844 0.188 0.69256 0.0
C222 C 0.3792 0.18663 0.7038 0.0
C223 C 0.37313 0.17898 0.68815 0.0
H224 H 0.42224 0.19164 0.69418 0.0
H225 H 0.36969 0.1898 0.71406 0.0
H226 H 0.44324 0.20962 0.72947 0.0
H227 H 0.42423 0.25338 0.70036 0.0
H228 H 0.3755 0.14026 0.75299 0.0
H229 H 0.41268 0.17755 0.66632 0.0
H230 H 0.35914 0.17586 0.68683 0.0
C231 C 0.02778 0.14525 0.95733 0.0
C232 C 0.0167 0.15954 0.95493 0.0
N233 N 0.02365 0.17362 0.96352 0.0
N234 N 0.04174 0.15021 0.96735 0.0
C235 C 0.03882 0.16757 0.97107 0.0
H236 H 0.02591 0.13204 0.95199 0.0
Co237 Co 0.06004 0.13454 0.97302 0.0
C238 C 0.09157 0.15907 0.97632 0.0
O239 O 0.10094 0.15049 0.96441 0.0
N240 N 0.0785 0.11792 0.97894 0.0
C241 C 0.1029 0.10104 0.97817 0.0
C242 C 0.09328 0.11385 0.96952 0.0
C243 C 0.07946 0.10688 0.99323 0.0
N244 N 0.09423 0.09663 0.99311 0.0
O245 O 0.052 0.13416 0.99674 0.0
H246 H 0.09689 0.11938 0.95679 0.0
H247 H 0.06956 0.10627 0.0036 0.0
O248 O 0.07562 0.15432 0.97971 0.0
C249 C 0.03834 0.12493 0.00036 0.0
O250 O 0.03054 0.11596 0.98758 0.0
N251 N 0.06675 0.13457 0.94918 0.0
C252 C 0.0766 0.13116 0.91373 0.0
C253 C 0.07642 0.14792 0.92198 0.0
C254 C 0.07123 0.14938 0.93973 0.0
C255 C 0.06482 0.11862 0.94086 0.0
C256 C 0.07007 0.1165 0.92325 0.0
H257 H 0.07106 0.16231 0.94594 0.0
H258 H 0.06004 0.10726 0.94827 0.0
H259 H 0.04779 0.1757 0.9788 0.0
H260 H 0.0044 0.15951 0.94748 0.0
H261 H 0.11508 0.095 0.97347 0.0
H262 H 0.08058 0.15975 0.91491 0.0
H263 H 0.06981 0.10331 0.91753 0.0
C264 C 0.29256 0.09347 0.2198 0.0
C265 C 0.29412 0.07853 0.23011 0.0
N266 N 0.28572 0.06505 0.22187 0.0
N267 N 0.2833 0.08956 0.20502 0.0
C268 C 0.27915 0.07212 0.20666 0.0
H269 H 0.29781 0.10649 0.22289 0.0
Co270 Co 0.27877 0.10702 0.18816 0.0
C271 C 0.26762 0.08919 0.15474 0.0
O272 O 0.2757 0.10138 0.14524 0.0
N273 N 0.27415 0.12573 0.17145 0.0
C274 C 0.27669 0.14684 0.1507 0.0
C275 C 0.28564 0.13443 0.16061 0.0
C276 C 0.25824 0.13348 0.16781 0.0
N277 N 0.25948 0.14627 0.15528 0.0
O278 O 0.2558 0.10995 0.1978 0.0
H279 H 0.29963 0.13181 0.1593 0.0
H280 H 0.24582 0.12971 0.17394 0.0
O281 O 0.26871 0.08947 0.17171 0.0
C282 C 0.25328 0.12098 0.21032 0.0
O283 O 0.26689 0.12984 0.21671 0.0
N284 N 0.302 0.10426 0.17977 0.0
C285 C 0.3363 0.10665 0.1663 0.0
C286 C 0.32512 0.09255 0.16135 0.0
C287 C 0.30807 0.09138 0.16856 0.0
C288 C 0.31341 0.11658 0.18651 0.0
C289 C 0.33061 0.11815 0.17982 0.0
H290 H 0.29972 0.08043 0.16464 0.0
H291 H 0.30866 0.1261 0.19617 0.0
H292 H 0.27167 0.06472 0.19688 0.0
H293 H 0.30071 0.07773 0.24287 0.0
H294 H 0.28246 0.15581 0.14104 0.0
H295 H 0.32907 0.08307 0.15129 0.0
H296 H 0.33902 0.12882 0.18454 0.0
C297 C 0.16732 0.05264 0.46362 0.0
C298 C 0.18224 0.05766 0.47291 0.0
N299 N 0.19529 0.0459 0.4694 0.0
N300 N 0.171 0.03785 0.45425 0.0
C301 C 0.18808 0.03402 0.45808 0.0
H302 H 0.15452 0.05916 0.46388 0.0
Co303 Co 0.15528 0.02471 0.44071 0.0
C304 C 0.17531 0.01554 0.40833 0.0
O305 O 0.16184 0.02121 0.39877 0.0
N306 N 0.13923 0.0105 0.42737 0.0
C307 C 0.12899 0.98559 0.41508 0.0
C308 C 0.14337 0.99365 0.4227 0.0
C309 C 0.1219 0.01212 0.42268 0.0
N310 N 0.11539 0.99718 0.41503 0.0
O311 O 0.159 0.00498 0.45589 0.0
H312 H 0.15598 0.98728 0.42533 0.0
H313 H 0.11391 0.02369 0.42523 0.0
O314 O 0.17473 0.01659 0.4253 0.0
C315 C 0.14805 0.00448 0.46873 0.0
O316 O 0.13671 0.01764 0.47055 0.0
N317 N 0.15091 0.04499 0.42688 0.0
C318 C 0.14218 0.07681 0.40986 0.0
C319 C 0.15956 0.07001 0.40909 0.0
C320 C 0.16372 0.05423 0.41793 0.0
C321 C 0.13461 0.05238 0.42935 0.0
C322 C 0.12972 0.06788 0.42048 0.0
H323 H 0.17733 0.04969 0.4179 0.0
H324 H 0.12545 0.04646 0.43867 0.0
H325 H 0.19485 0.02232 0.45319 0.0
H326 H 0.18334 0.06904 0.48162 0.0
H327 H 0.12843 0.9719 0.41074 0.0
H328 H 0.16998 0.07693 0.40198 0.0
H329 H 0.11625 0.07267 0.42196 0.0
C330 C 0.21935 0.9206 0.71441 0.0
C331 C 0.2167 0.93399 0.72654 0.0
N332 N 0.22616 0.94829 0.72132 0.0
N333 N 0.23033 0.92645 0.70155 0.0
C334 C 0.23437 0.94328 0.70616 0.0
H335 H 0.21359 0.90744 0.71487 0.0
Co336 Co 0.23807 0.91324 0.68236 0.0
C337 C 0.24065 0.93871 0.65257 0.0
O338 O 0.23179 0.92747 0.64256 0.0
N339 N 0.24653 0.89956 0.66309 0.0
C340 C 0.26492 0.89041 0.64175 0.0
C341 C 0.26151 0.90349 0.65396 0.0
C342 C 0.24147 0.88361 0.6565 0.0
N343 N 0.25231 0.87789 0.64342 0.0
O344 O 0.26135 0.91298 0.692 0.0
H345 H 0.26983 0.91495 0.65642 0.0
H346 H 0.2305 0.87588 0.66145 0.0
O347 O 0.24355 0.93498 0.66892 0.0
C348 C 0.26259 0.89973 0.70243 0.0
O349 O 0.24858 0.88955 0.70465 0.0
N350 N 0.21463 0.91226 0.67429 0.0
C351 C 0.17937 0.90606 0.665 0.0
C352 C 0.18662 0.92324 0.66382 0.0
C353 C 0.20424 0.92615 0.66895 0.0
C354 C 0.20714 0.89615 0.67759 0.0
C355 C 0.18976 0.89257 0.67256 0.0
H356 H 0.20941 0.93953 0.66871 0.0
H357 H 0.21481 0.88594 0.68417 0.0
H358 H 0.24338 0.9516 0.69867 0.0
H359 H 0.2082 0.93331 0.73812 0.0
H360 H 0.27633 0.88967 0.63304 0.0
H361 H 0.1788 0.9343 0.65894 0.0
H362 H 0.18481 0.87916 0.67414 0.0
C363 C 0.33699 0.95948 0.95357 0.0
C364 C 0.32421 0.95755 0.96641 0.0
N365 N 0.31032 0.9678 0.96198 0.0
N366 N 0.33142 0.97112 0.94099 0.0
C367 C 0.31489 0.9758 0.94655 0.0
H368 H 0.34983 0.95311 0.95399 0.0
Co369 Co 0.34487 0.98021 0.92136 0.0
C370 C 0.31525 0.99284 0.90512 0.0
O371 O 0.31541 0.97639 0.89929 0.0
N372 N 0.35809 0.98935 0.90223 0.0
C373 C 0.36818 0.99507 0.87498 0.0
C374 C 0.35506 0.98675 0.88475 0.0
C375 C 0.37313 0.99921 0.90272 0.0
N376 N 0.37958 0.00273 0.8864 0.0
O377 O 0.356 0.99712 0.93706 0.0
H378 H 0.34427 0.97893 0.87942 0.0
H379 H 0.37954 0.00358 0.9148 0.0
O380 O 0.3269 0.99752 0.91647 0.0
C381 C 0.36352 0.99775 0.95222 0.0
O382 O 0.36596 0.9832 0.96154 0.0
N383 N 0.36226 0.96263 0.92431 0.0
C384 C 0.38597 0.9349 0.91838 0.0
C385 C 0.36773 0.93236 0.91606 0.0
C386 C 0.35614 0.94653 0.91873 0.0
C387 C 0.37995 0.96512 0.92753 0.0
C388 C 0.39211 0.95138 0.92446 0.0
H389 H 0.34222 0.94497 0.91554 0.0
H390 H 0.38501 0.97799 0.93125 0.0
H391 H 0.30651 0.98539 0.93992 0.0
H392 H 0.3251 0.94937 0.97822 0.0
H393 H 0.36967 0.99485 0.86067 0.0
H394 H 0.36261 0.91993 0.9109 0.0
H395 H 0.4062 0.95385 0.92596 0.0
C396 C 0.28221 0.91577 0.28437 0.0
C397 C 0.28715 0.92947 0.27334 0.0
N398 N 0.27713 0.94381 0.27721 0.0
N399 N 0.26924 0.92141 0.2953 0.0
C400 C 0.26629 0.93851 0.29057 0.0
H401 H 0.28751 0.90241 0.28424 0.0
Co402 Co 0.25762 0.9069 0.31153 0.0
C403 C 0.25265 0.92947 0.34346 0.0
O404 O 0.25865 0.91653 0.35355 0.0
N405 N 0.24516 0.89182 0.32742 0.0
C406 C 0.22239 0.88178 0.34349 0.0
C407 C 0.22975 0.89638 0.33546 0.0
C408 C 0.24645 0.87407 0.33032 0.0
N409 N 0.23287 0.8677 0.3402 0.0
O410 O 0.23581 0.91048 0.2992 0.0
H411 H 0.2236 0.90934 0.33471 0.0
H412 H 0.25624 0.86559 0.32424 0.0
O413 O 0.25202 0.92751 0.32657 0.0
C414 C 0.23119 0.89774 0.28912 0.0
O415 O 0.24246 0.88465 0.28656 0.0
N416 N 0.27956 0.9026 0.32311 0.0
C417 C 0.30979 0.89231 0.3419 0.0
C418 C 0.30425 0.91013 0.34183 0.0
C419 C 0.2894 0.91512 0.33182 0.0
C420 C 0.28626 0.88591 0.32101 0.0
C421 C 0.30113 0.88033 0.3306 0.0
H422 H 0.28557 0.92894 0.33153 0.0
H423 H 0.27991 0.87677 0.31198 0.0
H424 H 0.25635 0.94685 0.29674 0.0
H425 H 0.29705 0.92873 0.26295 0.0
H426 H 0.20997 0.88149 0.35073 0.0
H427 H 0.31117 0.92004 0.34962 0.0
H428 H 0.30535 0.8666 0.32966 0.0
C429 C 0.34454 0.04331 0.5312 0.0
C430 C 0.33122 0.04758 0.5194 0.0
N431 N 0.3164 0.03875 0.52423 0.0
N432 N 0.3381 0.03191 0.54341 0.0
C433 C 0.32101 0.02923 0.53872 0.0
H434 H 0.35799 0.04833 0.53107 0.0
Co435 Co 0.35073 0.02226 0.56222 0.0
C436 C 0.32305 0.02183 0.59058 0.0
O437 O 0.33333 0.03146 0.60089 0.0
N438 N 0.36396 0.01158 0.58068 0.0
C439 C 0.37239 0.99179 0.60107 0.0
C440 C 0.35819 1.00005 0.59324 0.0
C441 C 0.38181 0.00939 0.58072 0.0
N442 N 0.38724 0.99761 0.59311 0.0
O443 O 0.34955 0.99955 0.55136 0.0
H444 H 0.34461 0.9962 0.59555 0.0
H445 H 0.39053 0.01503 0.57077 0.0
O446 O 0.32848 0.01738 0.57507 0.0
C447 C 0.36224 0.99655 0.54061 0.0
O448 O 0.37348 0.00946 0.53716 0.0
N449 N 0.35279 0.04525 0.57233 0.0
C450 C 0.35718 0.07928 0.58662 0.0
C451 C 0.34044 0.07348 0.58082 0.0
C452 C 0.33856 0.05651 0.57356 0.0
C453 C 0.36934 0.05129 0.57647 0.0
C454 C 0.37179 0.06801 0.58401 0.0
H455 H 0.32555 0.05229 0.56922 0.0
H456 H 0.38087 0.04328 0.57389 0.0
H457 H 0.31214 0.02037 0.54575 0.0
H458 H 0.33228 0.05679 0.5084 0.0
H459 H 0.37175 0.98151 0.61112 0.0
H460 H 0.32884 0.08191 0.58193 0.0
H461 H 0.38504 0.07184 0.58806 0.0
C462 C 0.22834 0.09815 0.78004 0.0
C463 C 0.22871 0.08436 0.76813 0.0
N464 N 0.22741 0.069 0.77726 0.0
N465 N 0.22688 0.09153 0.79659 0.0
C466 C 0.22634 0.07372 0.79454 0.0
H467 H 0.22888 0.11216 0.77686 0.0
Co468 Co 0.22479 0.10565 0.81643 0.0
C469 C 0.23389 0.08331 0.84817 0.0
O470 O 0.22328 0.09266 0.85839 0.0
N471 N 0.22266 0.12073 0.83629 0.0
C472 C 0.21302 0.13915 0.8573 0.0
C473 C 0.20813 0.12882 0.84305 0.0
C474 C 0.23616 0.12651 0.8466 0.0
N475 N 0.23071 0.13768 0.85952 0.0
O476 O 0.24836 0.11399 0.81243 0.0
H477 H 0.19479 0.12761 0.83795 0.0
H478 H 0.24985 0.12279 0.84442 0.0
O479 O 0.23468 0.08654 0.83147 0.0
C480 C 0.25026 0.12963 0.80624 0.0
O481 O 0.23608 0.13947 0.80354 0.0
N482 N 0.20126 0.09831 0.81887 0.0
C483 C 0.16474 0.09857 0.82411 0.0
C484 C 0.17559 0.08646 0.83336 0.0
C485 C 0.1939 0.08629 0.83026 0.0
C486 C 0.19073 0.1083 0.80806 0.0
C487 C 0.17239 0.10851 0.81032 0.0
H488 H 0.20198 0.07719 0.83773 0.0
H489 H 0.19679 0.11729 0.79861 0.0
H490 H 0.22466 0.06446 0.80542 0.0
H491 H 0.22989 0.08556 0.75384 0.0
H492 H 0.20419 0.14728 0.8652 0.0
H493 H 0.17033 0.07817 0.84387 0.0
H494 H 0.1645 0.11746 0.80227 0.0
C495 C 0.1715 0.96485 0.04373 0.0
C496 C 0.18325 0.9641 0.02978 0.0
N497 N 0.19931 0.96909 0.03577 0.0
N498 N 0.17998 0.97057 0.05849 0.0
C499 C 0.19704 0.97276 0.05319 0.0
H500 H 0.15768 0.9612 0.04307 0.0
Co501 Co 0.16991 0.9755 0.08097 0.0
C502 C 0.198 0.99256 0.09351 0.0
O503 O 0.20058 0.9761 0.09877 0.0
N504 N 0.16023 0.98069 0.10326 0.0
C505 C 0.15211 0.97826 0.13154 0.0
C506 C 0.1631 0.97165 0.11846 0.0
C507 C 0.14784 0.99294 0.10748 0.0
N508 N 0.14243 0.99163 0.12454 0.0
O509 O 0.15222 0.99063 0.06921 0.0
H510 H 0.17201 0.96044 0.1197 0.0
H511 H 0.142 0.00193 0.09793 0.0
O512 O 0.18479 0.99582 0.08344 0.0
C513 C 0.13799 0.98995 0.05995 0.0
O514 O 0.13092 0.97455 0.05583 0.0
N515 N 0.15615 0.95452 0.08021 0.0
C516 C 0.1435 0.92257 0.09437 0.0
C517 C 0.16018 0.92341 0.08611 0.0
C518 C 0.16632 0.93954 0.07933 0.0
C519 C 0.13917 0.95357 0.0866 0.0
C520 C 0.13256 0.93767 0.09366 0.0
H521 H 0.18002 0.94042 0.07512 0.0
H522 H 0.13138 0.9655 0.0883 0.0
H523 H 0.20759 0.97734 0.06177 0.0
H524 H 0.1803 0.95999 0.01632 0.0
H525 H 0.15094 0.9732 0.14494 0.0
H526 H 0.16901 0.91205 0.08616 0.0
H527 H 0.1197 0.93777 0.1001 0.0
C528 C 0.19917 0.2809 0.08067 0.0
C529 C 0.21232 0.28338 0.06833 0.0
N530 N 0.20704 0.27606 0.05291 0.0
N531 N 0.18552 0.27184 0.07331 0.0
C532 C 0.19078 0.2692 0.0563 0.0
H533 H 0.19949 0.28613 0.094 0.0
Co534 Co 0.16347 0.26546 0.0838 0.0
C535 C 0.14917 0.25195 0.05379 0.0
O536 O 0.1436 0.26849 0.05308 0.0
N537 N 0.14165 0.25945 0.09369 0.0
C538 C 0.11374 0.26303 0.10247 0.0
C539 C 0.12667 0.26887 0.09096 0.0
C540 C 0.13746 0.24772 0.10662 0.0
N541 N 0.12062 0.24981 0.1124 0.0
O542 O 0.17575 0.24759 0.09844 0.0
H543 H 0.12561 0.28009 0.08204 0.0
H544 H 0.14701 0.23899 0.11288 0.0
O545 O 0.1598 0.2475 0.0662 0.0
C546 C 0.18803 0.24761 0.11019 0.0
O547 O 0.19515 0.2626 0.11546 0.0
N548 N 0.16536 0.28381 0.10066 0.0
C549 C 0.15802 0.31318 0.12208 0.0
C550 C 0.16129 0.31527 0.10385 0.0
C551 C 0.16466 0.30038 0.09336 0.0
C552 C 0.16273 0.28156 0.11849 0.0
C553 C 0.15933 0.29611 0.12947 0.0
H554 H 0.16564 0.30193 0.0791 0.0
H555 H 0.16206 0.26842 0.1242 0.0
H556 H 0.18266 0.26283 0.04636 0.0
H557 H 0.22477 0.29018 0.07061 0.0
H558 H 0.10065 0.26875 0.1041 0.0
H559 H 0.15989 0.32809 0.09746 0.0
H560 H 0.15674 0.29387 0.14344 0.0
C561 C 0.70783 0.21808 0.91978 0.0
C562 C 0.72007 0.21439 0.93283 0.0
N563 N 0.71682 0.22506 0.94685 0.0
N564 N 0.6968 0.23092 0.92555 0.0
C565 C 0.70261 0.23498 0.94205 0.0
H566 H 0.70705 0.21191 0.90683 0.0
Co567 Co 0.67907 0.24113 0.91175 0.0
C568 C 0.64933 0.24525 0.93709 0.0
O569 O 0.63893 0.23708 0.92568 0.0
N570 N 0.66191 0.25229 0.89714 0.0
C571 C 0.64388 0.27337 0.88665 0.0
C572 C 0.65116 0.266 0.90164 0.0
C573 C 0.66155 0.25234 0.87913 0.0
N574 N 0.65047 0.26479 0.87247 0.0
O575 O 0.69128 0.26335 0.91246 0.0
H576 H 0.64983 0.27158 0.91477 0.0
H577 H 0.67056 0.2447 0.87096 0.0
O578 O 0.66571 0.24777 0.93323 0.0
C579 C 0.70251 0.2658 0.90007 0.0
O580 O 0.7057 0.25266 0.88903 0.0
N581 N 0.66746 0.2186 0.91046 0.0
C582 C 0.64992 0.18585 0.90759 0.0
C583 C 0.65484 0.19259 0.92426 0.0
C584 C 0.66391 0.20878 0.92537 0.0
C585 C 0.66418 0.21144 0.89415 0.0
C586 C 0.65513 0.19533 0.8924 0.0
H587 H 0.66778 0.21362 0.93833 0.0
H588 H 0.66868 0.218 0.88231 0.0
H589 H 0.69682 0.24533 0.95017 0.0
H590 H 0.73047 0.20449 0.93206 0.0
H591 H 0.63513 0.28478 0.88621 0.0
H592 H 0.65176 0.18541 0.93634 0.0
H593 H 0.65199 0.19057 0.8792 0.0
C594 C 0.02913 0.45902 0.15853 0.0
C595 C 0.03062 0.47239 0.1709 0.0
N596 N 0.02221 0.4672 0.18582 0.0
N597 N 0.01979 0.44548 0.1656 0.0
C598 C 0.0157 0.45085 0.18223 0.0
H599 H 0.0346 0.45907 0.14525 0.0
Co600 Co 0.01422 0.42474 0.1534 0.0
C601 C 0.01143 0.40109 0.18649 0.0
O602 O 0.02677 0.393 0.18476 0.0
N603 N 0.00825 0.40394 0.14066 0.0
C604 C 0.00634 0.376 0.13119 0.0
C605 C 0.0126 0.38692 0.14435 0.0
C606 C 0.99947 0.40296 0.125 0.0
N607 N 0.99804 0.38607 0.11897 0.0
O608 O 0.99045 0.43316 0.15064 0.0
H609 H 0.02066 0.38261 0.15532 0.0
H610 H 0.99442 0.41444 0.11801 0.0
O611 O 0.00662 0.41303 0.17537 0.0
C612 C 0.98807 0.44446 0.13828 0.0
O613 O 0.00173 0.44907 0.12843 0.0
N614 N 0.0381 0.41736 0.15521 0.0
C615 C 0.07312 0.40525 0.15481 0.0
C616 C 0.06563 0.41207 0.17046 0.0
C617 C 0.04818 0.41849 0.17026 0.0
C618 C 0.0458 0.41251 0.13956 0.0
C619 C 0.06313 0.40609 0.1391 0.0
H620 H 0.04255 0.42372 0.18239 0.0
H621 H 0.03829 0.41314 0.12733 0.0
H622 H 0.00804 0.443 0.19153 0.0
H623 H 0.03774 0.48477 0.16919 0.0
H624 H 0.00849 0.36181 0.13033 0.0
H625 H 0.07308 0.4122 0.18277 0.0
H626 H 0.06835 0.40117 0.12664 0.0
C627 C 0.78418 0.78098 0.39699 0.0
C628 C 0.7717 0.78455 0.40984 0.0
N629 N 0.7767 0.77636 0.42498 0.0
N630 N 0.79701 0.77069 0.40403 0.0
C631 C 0.79203 0.76794 0.42102 0.0
H632 H 0.78412 0.78581 0.38345 0.0
Co633 Co 0.81696 0.76271 0.39212 0.0
C634 C 0.84496 0.76604 0.41991 0.0
O635 O 0.85433 0.77643 0.40945 0.0
N636 N 0.83676 0.75383 0.37966 0.0
C637 C 0.85977 0.73665 0.37242 0.0
C638 C 0.84985 0.7433 0.38612 0.0
C639 C 0.83856 0.75249 0.36183 0.0
N640 N 0.85261 0.74239 0.35713 0.0
O641 O 0.80873 0.73892 0.39433 0.0
H642 H 0.85134 0.73916 0.39975 0.0
H643 H 0.82883 0.75733 0.35244 0.0
O644 O 0.82992 0.76008 0.41465 0.0
C645 C 0.79642 0.73445 0.38368 0.0
O646 O 0.79022 0.74634 0.37248 0.0
N647 N 0.82426 0.78664 0.38926 0.0
C648 C 0.83266 0.82238 0.3838 0.0
C649 C 0.82929 0.81594 0.40094 0.0
C650 C 0.82473 0.79813 0.40334 0.0
C651 C 0.82615 0.79306 0.37242 0.0
C652 C 0.83066 0.81079 0.36939 0.0
H653 H 0.82163 0.79356 0.4166 0.0
H654 H 0.82373 0.78466 0.36115 0.0
H655 H 0.79951 0.75985 0.43026 0.0
H656 H 0.76011 0.79291 0.40824 0.0
H657 H 0.8708 0.7275 0.37362 0.0
H658 H 0.83005 0.82461 0.4124 0.0
H659 H 0.83278 0.8153 0.35589 0.0
C660 C 0.97273 0.02357 0.1672 0.0
C661 C 0.96871 0.01203 0.18083 0.0
N662 N 0.97668 0.01797 0.19572 0.0
N663 N 0.98298 0.03678 0.17357 0.0
C664 C 0.98525 0.03297 0.1909 0.0
H665 H 0.96861 0.02233 0.15349 0.0
Co666 Co 0.99275 0.05517 0.16072 0.0
C667 C 0.99171 0.08651 0.18445 0.0
O668 O 0.98517 0.09602 0.17133 0.0
N669 N 0.00338 0.07361 0.14756 0.0
C670 C 0.02364 0.0938 0.13999 0.0
C671 C 0.01784 0.08268 0.15318 0.0
C672 C 0.00098 0.07919 0.13066 0.0
N673 N 0.01303 0.09155 0.12581 0.0
O674 O 0.0159 0.04574 0.16497 0.0
H675 H 0.02418 0.0809 0.16595 0.0
H676 H 0.99143 0.07358 0.12159 0.0
O677 O 0.99474 0.0699 0.18222 0.0
C678 C 0.02135 0.03701 0.15157 0.0
O679 O 0.01045 0.03486 0.13809 0.0
N680 N 0.9697 0.06324 0.15537 0.0
C681 C 0.93694 0.07496 0.14256 0.0
C682 C 0.94148 0.07708 0.16057 0.0
C683 C 0.95769 0.0705 0.16685 0.0
C684 C 0.96456 0.059 0.13857 0.0
C685 C 0.94837 0.06488 0.1318 0.0
H686 H 0.96064 0.07163 0.18083 0.0
H687 H 0.97327 0.05118 0.13025 0.0
H688 H 0.99303 0.04108 0.19984 0.0
H689 H 0.96084 1.00005 0.17976 0.0
H690 H 0.03507 0.10249 0.14064 0.0
H691 H 0.93295 0.0842 0.16967 0.0
H692 H 0.94501 0.06175 0.11818 0.0
C693 C 0.28158 0.70486 0.59363 0.0
C694 C 0.27124 0.70045 0.57917 0.0
N695 N 0.27464 0.7121 0.56595 0.0
N696 N 0.29155 0.71914 0.5895 0.0
C697 C 0.28701 0.72326 0.57265 0.0
H698 H 0.28163 0.69826 0.6064 0.0
Co699 Co 0.30686 0.73202 0.60401 0.0
C700 C 0.33979 0.73489 0.58297 0.0
O701 O 0.34898 0.72992 0.59697 0.0
N702 N 0.32223 0.74609 0.61847 0.0
C703 C 0.33788 0.77031 0.62524 0.0
C704 C 0.32834 0.76184 0.61234 0.0
C705 C 0.32818 0.74555 0.63552 0.0
N706 N 0.33789 0.7601 0.63992 0.0
O707 O 0.29447 0.75317 0.59807 0.0
H708 H 0.32569 0.76715 0.59925 0.0
H709 H 0.32529 0.735 0.64474 0.0
O710 O 0.32285 0.73586 0.58384 0.0
C711 C 0.27944 0.75592 0.60524 0.0
O712 O 0.2723 0.74331 0.61498 0.0
N713 N 0.31811 0.7107 0.61062 0.0
C714 C 0.33361 0.67957 0.62315 0.0
C715 C 0.33413 0.68371 0.605 0.0
C716 C 0.326 0.69926 0.59893 0.0
C717 C 0.3156 0.70567 0.62782 0.0
C718 C 0.32378 0.69047 0.63456 0.0
H719 H 0.32612 0.7021 0.58486 0.0
H720 H 0.30718 0.71353 0.63637 0.0
H721 H 0.29226 0.73469 0.5657 0.0
H722 H 0.26194 0.68952 0.57854 0.0
H723 H 0.34376 0.78336 0.62397 0.0
H724 H 0.34115 0.67528 0.5957 0.0
H725 H 0.32242 0.68723 0.64852 0.0
C726 C 0.04027 0.54181 0.32741 0.0
C727 C 0.0413 0.52896 0.31458 0.0
N728 N 0.03143 0.5341 0.30056 0.0
N729 N 0.02973 0.55524 0.32183 0.0
C730 C 0.02457 0.55005 0.30535 0.0
H731 H 0.04713 0.54129 0.33998 0.0
Co732 Co 0.02356 0.57602 0.33517 0.0
C733 C 0.00795 0.58978 0.30785 0.0
O734 O 0.02489 0.59377 0.30641 0.0
N735 N 0.01705 0.5962 0.34859 0.0
C736 C 0.011 0.62389 0.3573 0.0
C737 C 0.01802 0.6135 0.34388 0.0
C738 C 0.00958 0.59648 0.36495 0.0
N739 N 0.00585 0.61305 0.37056 0.0
O740 O 0.00962 0.56126 0.3509 0.0
H741 H 0.0234 0.61831 0.33146 0.0
H742 H 0.00671 0.58479 0.37278 0.0
O743 O 0.00312 0.57978 0.32067 0.0
C744 C 0.01055 0.54821 0.36169 0.0
O745 O 0.02583 0.54045 0.36492 0.0
N746 N 0.04469 0.57447 0.34812 0.0
C747 C 0.07775 0.58426 0.36149 0.0
C748 C 0.07517 0.58219 0.34323 0.0
C749 C 0.05848 0.57773 0.33685 0.0
C750 C 0.04713 0.57517 0.36608 0.0
C751 C 0.06366 0.58022 0.37308 0.0
H752 H 0.05618 0.57809 0.32267 0.0
H753 H 0.0361 0.57324 0.37503 0.0
H754 H 0.01597 0.55781 0.29694 0.0
H755 H 0.04873 0.51673 0.31574 0.0
H756 H 0.01003 0.63824 0.35746 0.0
H757 H 0.08548 0.58567 0.3338 0.0
H758 H 0.06513 0.58197 0.38728 0.0
C759 C 0.45769 0.45786 0.83552 0.0
C760 C 0.45529 0.4706 0.82262 0.0
N761 N 0.46582 0.4666 0.80869 0.0
N762 N 0.46954 0.44578 0.8297 0.0
C763 C 0.47439 0.45152 0.81339 0.0
H764 H 0.45124 0.45739 0.84835 0.0
Co765 Co 0.47741 0.42624 0.8426 0.0
C766 C 0.47931 0.40137 0.81049 0.0
O767 O 0.46437 0.3929 0.81349 0.0
N768 N 0.48583 0.40659 0.85589 0.0
C769 C 0.49268 0.37954 0.86573 0.0
C770 C 0.48527 0.38906 0.85207 0.0
C771 C 0.49348 0.40726 0.87213 0.0
N772 N 0.49784 0.391 0.87844 0.0
O773 O 0.50043 0.43645 0.8435 0.0
H774 H 0.47948 0.38322 0.84043 0.0
H775 H 0.4952 0.41942 0.87951 0.0
O776 O 0.48429 0.41394 0.82077 0.0
C777 C 0.50162 0.44723 0.85645 0.0
O778 O 0.48756 0.45008 0.86639 0.0
N779 N 0.45416 0.41729 0.84327 0.0
C780 C 0.41905 0.40749 0.84985 0.0
C781 C 0.4246 0.41172 0.83254 0.0
C782 C 0.44219 0.41711 0.82961 0.0
C783 C 0.4486 0.41417 0.86021 0.0
C784 C 0.4313 0.40895 0.86375 0.0
H785 H 0.44617 0.42127 0.81644 0.0
H786 H 0.45755 0.41606 0.87126 0.0
H787 H 0.4839 0.44469 0.80507 0.0
H788 H 0.44664 0.48205 0.82355 0.0
H789 H 0.49402 0.36523 0.86621 0.0
H790 H 0.41539 0.41117 0.8215 0.0
H791 H 0.42765 0.4059 0.87733 0.0
C792 C 0.59578 0.72295 0.78391 0.0
C793 C 0.58229 0.73509 0.78612 0.0
N794 N 0.56819 0.72988 0.7763 0.0
N795 N 0.59023 0.71001 0.77292 0.0
C796 C 0.57352 0.71465 0.76835 0.0
H797 H 0.60876 0.7234 0.79005 0.0
Co798 Co 0.60328 0.69043 0.76541 0.0
C799 C 0.57119 0.66508 0.76908 0.0
O800 O 0.57441 0.65905 0.78511 0.0
N801 N 0.61639 0.67056 0.75744 0.0
C802 C 0.62582 0.64285 0.75364 0.0
C803 C 0.61306 0.65335 0.76121 0.0
C804 C 0.63148 0.67014 0.74766 0.0
N805 N 0.63758 0.65337 0.74517 0.0
O806 O 0.6013 0.69857 0.74171 0.0
H807 H 0.60243 0.64857 0.76949 0.0
H808 H 0.63816 0.68198 0.74304 0.0
O809 O 0.58147 0.67655 0.76189 0.0
C810 C 0.61291 0.71045 0.7386 0.0
O811 O 0.62385 0.71497 0.75144 0.0
N812 N 0.60686 0.68364 0.7891 0.0
C813 C 0.61739 0.6738 0.82311 0.0
C814 C 0.5996 0.67824 0.81969 0.0
C815 C 0.59468 0.68364 0.80256 0.0
C816 C 0.62444 0.68148 0.79288 0.0
C817 C 0.62996 0.6763 0.80966 0.0
H818 H 0.58109 0.68755 0.80003 0.0
H819 H 0.63434 0.68367 0.78273 0.0
H820 H 0.56558 0.70696 0.75922 0.0
H821 H 0.58291 0.74669 0.79455 0.0
H822 H 0.62637 0.62853 0.75458 0.0
H823 H 0.58957 0.67706 0.82993 0.0
H824 H 0.64396 0.67395 0.81201 0.0
C825 C 0.52987 0.34242 0.04424 0.0
C826 C 0.51859 0.32813 0.04585 0.0
N827 N 0.52522 0.31456 0.03619 0.0
N828 N 0.54359 0.33786 0.03372 0.0
C829 C 0.54031 0.32092 0.02886 0.0
H830 H 0.52844 0.3552 0.05065 0.0
Co831 Co 0.56288 0.35214 0.02823 0.0
C832 C 0.59056 0.32224 0.02853 0.0
O833 O 0.59825 0.32632 0.04363 0.0
N834 N 0.58238 0.36675 0.02235 0.0
C835 C 0.60899 0.37959 0.02116 0.0
C836 C 0.59914 0.36627 0.02878 0.0
C837 C 0.58242 0.38066 0.01098 0.0
N838 N 0.59844 0.38865 0.00993 0.0
O839 O 0.55545 0.35248 0.00407 0.0
H840 H 0.60381 0.35748 0.03905 0.0
H841 H 0.57086 0.38501 0.00371 0.0
O842 O 0.5774 0.33132 0.02279 0.0
C843 C 0.54297 0.36343 0.00087 0.0
O844 O 0.53657 0.3729 0.01408 0.0
N845 N 0.56899 0.35283 0.05234 0.0
C846 C 0.57604 0.35796 0.08832 0.0
C847 C 0.57322 0.34079 0.08155 0.0
C848 C 0.56941 0.33853 0.06351 0.0
C849 C 0.5702 0.36962 0.05899 0.0
C850 C 0.57411 0.37248 0.07679 0.0
H851 H 0.56688 0.32532 0.05848 0.0
H852 H 0.56838 0.38095 0.05032 0.0
H853 H 0.54887 0.31342 0.02011 0.0
H854 H 0.50673 0.32767 0.05395 0.0
H855 H 0.62265 0.38282 0.02427 0.0
H856 H 0.57403 0.32921 0.09007 0.0
H857 H 0.57614 0.386 0.08127 0.0
C858 C 0.90739 0.2834 0.28912 0.0
C859 C 0.92149 0.27183 0.28928 0.0
N860 N 0.93595 0.28056 0.28337 0.0
N861 N 0.91292 0.29931 0.28309 0.0
C862 C 0.93041 0.29724 0.27975 0.0
H863 H 0.89389 0.28044 0.29304 0.0
Co864 Co 0.89769 0.31817 0.28017 0.0
C865 C 0.91884 0.34894 0.26799 0.0
O866 O 0.90929 0.35939 0.27819 0.0
N867 N 0.88139 0.33708 0.277 0.0
C868 C 0.8604 0.35779 0.27962 0.0
C869 C 0.87127 0.34627 0.28868 0.0
C870 C 0.87637 0.34347 0.26095 0.0
N871 N 0.86353 0.35589 0.26215 0.0
O872 O 0.8909 0.30866 0.25761 0.0
H873 H 0.871 0.34454 0.30285 0.0
H874 H 0.88177 0.33882 0.24848 0.0
O875 O 0.91604 0.33215 0.26804 0.0
C876 C 0.87662 0.29982 0.25575 0.0
O877 O 0.86642 0.29717 0.26966 0.0
N878 N 0.90428 0.32638 0.30281 0.0
C879 C 0.90887 0.34082 0.33647 0.0
C880 C 0.92244 0.342 0.32374 0.0
C881 C 0.92003 0.33431 0.30704 0.0
C882 C 0.89241 0.32248 0.31589 0.0
C883 C 0.89416 0.32999 0.33274 0.0
H884 H 0.93069 0.33519 0.29751 0.0
H885 H 0.88069 0.31478 0.31274 0.0
H886 H 0.93884 0.30762 0.27447 0.0
H887 H 0.92116 0.2581 0.29358 0.0
H888 H 0.85012 0.36601 0.28541 0.0
H889 H 0.93453 0.34933 0.32642 0.0
H890 H 0.88349 0.32832 0.34223 0.0
C891 C 0.97023 0.66546 0.52727 0.0
C892 C 0.98354 0.6777 0.52973 0.0
N893 N 0.97757 0.69367 0.52434 0.0
N894 N 0.95585 0.6735 0.52012 0.0
C895 C 0.96081 0.69072 0.51863 0.0
H896 H 0.97093 0.65171 0.53131 0.0
Co897 Co 0.93305 0.6639 0.51549 0.0
C898 C 0.91862 0.69618 0.50581 0.0
O899 O 0.91626 0.69769 0.52304 0.0
N900 N 0.91047 0.65499 0.51156 0.0
C901 C 0.88265 0.64816 0.51844 0.0
C902 C 0.89659 0.65936 0.52198 0.0
C903 C 0.9046 0.64135 0.50151 0.0
N904 N 0.88777 0.63673 0.50568 0.0
O905 O 0.94266 0.65138 0.49465 0.0
H906 H 0.89707 0.66917 0.53245 0.0
H907 H 0.91301 0.63381 0.49263 0.0
O908 O 0.92742 0.68302 0.49983 0.0
C909 C 0.95537 0.64056 0.49146 0.0
O910 O 0.96489 0.634 0.5045 0.0
N911 N 0.93685 0.64525 0.53165 0.0
C912 C 0.92748 0.62154 0.55864 0.0
C913 C 0.93119 0.63943 0.56247 0.0
C914 C 0.93579 0.65105 0.54875 0.0
C915 C 0.93474 0.62762 0.52785 0.0
C916 C 0.93041 0.6155 0.54123 0.0
H917 H 0.93667 0.66513 0.5515 0.0
H918 H 0.93449 0.62301 0.5143 0.0
H919 H 0.95207 0.70115 0.51419 0.0
H920 H 0.99646 0.675 0.53541 0.0
H921 H 0.87012 0.64772 0.52549 0.0
H922 H 0.92884 0.6449 0.57555 0.0
H923 H 0.9279 0.6018 0.53764 0.0
C924 C 0.59177 0.2868 0.71384 0.0
C925 C 0.57744 0.2756 0.71255 0.0
N926 N 0.56276 0.28487 0.71665 0.0
N927 N 0.58628 0.3031 0.71904 0.0
C928 C 0.5684 0.30149 0.72036 0.0
H929 H 0.60528 0.28323 0.71071 0.0
Co930 Co 0.60044 0.32332 0.72384 0.0
C931 C 0.57365 0.34421 0.73481 0.0
O932 O 0.57596 0.34966 0.71838 0.0
N933 N 0.6143 0.34338 0.72863 0.0
C934 C 0.62958 0.36813 0.72369 0.0
C935 C 0.61633 0.35721 0.71743 0.0
C936 C 0.62619 0.34633 0.74178 0.0
N937 N 0.63586 0.36118 0.73896 0.0
O938 O 0.61208 0.31033 0.74295 0.0
H939 H 0.60934 0.35867 0.70496 0.0
H940 H 0.62872 0.33711 0.75251 0.0
O941 O 0.58326 0.33152 0.74061 0.0
C942 C 0.62236 0.29712 0.74574 0.0
O943 O 0.6287 0.28785 0.7324 0.0
N944 N 0.61689 0.31678 0.70627 0.0
C945 C 0.63845 0.32138 0.67644 0.0
C946 C 0.62001 0.31925 0.67469 0.0
C947 C 0.60951 0.31718 0.68976 0.0
C948 C 0.63492 0.31746 0.70825 0.0
C949 C 0.64597 0.31957 0.69344 0.0
H950 H 0.59522 0.31768 0.68835 0.0
H951 H 0.64077 0.31822 0.72133 0.0
H952 H 0.55961 0.31216 0.72424 0.0
H953 H 0.57774 0.26178 0.70857 0.0
H954 H 0.6347 0.37986 0.71712 0.0
H955 H 0.61346 0.32099 0.662 0.0
H956 H 0.66012 0.32114 0.69545 0.0
C957 C 0.9588 0.32164 0.95587 0.0
C958 C 0.9708 0.30823 0.95276 0.0
N959 N 0.96673 0.29437 0.96338 0.0
N960 N 0.94711 0.31629 0.96831 0.0
C961 C 0.95235 0.29968 0.97277 0.0
H962 H 0.95854 0.33452 0.94947 0.0
Co963 Co 0.92858 0.33034 0.97674 0.0
C964 C 0.90233 0.29959 0.98129 0.0
O965 O 0.8925 0.3034 0.96739 0.0
N966 N 0.91032 0.34495 0.98568 0.0
C967 C 0.88518 0.35621 0.99644 0.0
C968 C 0.8929 0.34166 0.98863 0.0
C969 C 0.91271 0.36176 0.99158 0.0
N970 N 0.89766 0.36882 0.99827 0.0
O971 O 0.93987 0.33169 0.9994 0.0
H972 H 0.88595 0.32963 0.98547 0.0
H973 H 0.92533 0.36862 0.99121 0.0
O974 O 0.91584 0.30917 0.98512 0.0
C975 C 0.95253 0.34281 0.00088 0.0
O976 O 0.95788 0.35137 0.98662 0.0
N977 N 0.91809 0.33024 0.95391 0.0
C978 C 0.90352 0.33407 0.92 0.0
C979 C 0.90854 0.31725 0.9263 0.0
C980 C 0.91639 0.31571 0.94313 0.0
C981 C 0.91434 0.34675 0.94741 0.0
C982 C 0.90687 0.34894 0.93064 0.0
H983 H 0.92074 0.30278 0.94768 0.0
H984 H 0.91722 0.35843 0.95521 0.0
H985 H 0.94559 0.29154 0.98251 0.0
H986 H 0.98178 0.30874 0.9435 0.0
H987 H 0.87138 0.35751 0.00029 0.0
H988 H 0.90657 0.3055 0.91824 0.0
H989 H 0.90345 0.3622 0.92618 0.0
C990 C 0.91 0.70418 0.1912 0.0
C991 C 0.92305 0.71697 0.19109 0.0
N992 N 0.93407 0.714 0.20493 0.0
N993 N 0.91287 0.693 0.20487 0.0
C994 C 0.92752 0.69933 0.21305 0.0
H995 H 0.89896 0.7032 0.18205 0.0
Co996 Co 0.89798 0.67461 0.21199 0.0
C997 C 0.92759 0.64738 0.21766 0.0
O998 O 0.925 0.6387 0.20278 0.0
N999 N 0.88263 0.65633 0.21981 0.0
C1000 C 0.87112 0.63013 0.22746 0.0
C1001 C 0.88466 0.63851 0.21856 0.0
C1002 C 0.86736 0.65838 0.22909 0.0
N1003 N 0.8603 0.64266 0.23404 0.0
O1004 O 0.89587 0.68557 0.23452 0.0
H1005 H 0.89511 0.63182 0.21152 0.0
H1006 H 0.8617 0.67111 0.23259 0.0
O1007 O 0.9182 0.66103 0.22148 0.0
C1008 C 0.88544 0.6988 0.23577 0.0
O1009 O 0.87683 0.70418 0.22156 0.0
N1010 N 0.89924 0.66459 0.18907 0.0
C1011 C 0.89785 0.64857 0.15576 0.0
C1012 C 0.91403 0.65489 0.16247 0.0
C1013 C 0.91436 0.66329 0.17907 0.0
C1014 C 0.88323 0.66047 0.18172 0.0
C1015 C 0.88224 0.65222 0.16524 0.0
H1016 H 0.92691 0.66795 0.18428 0.0
H1017 H 0.87107 0.66325 0.18884 0.0
H1018 H 0.93282 0.69364 0.22514 0.0
H1019 H 0.9242 0.72765 0.18153 0.0
H1020 H 0.86927 0.61593 0.22889 0.0
H1021 H 0.92635 0.65278 0.15536 0.0
H1022 H 0.86934 0.64846 0.1601 0.0
C1023 C 0.53434 0.65575 0.45461 0.0
C1024 C 0.52219 0.66941 0.45457 0.0
N1025 N 0.52835 0.6825 0.46514 0.0
N1026 N 0.54814 0.6602 0.46508 0.0
C1027 C 0.54409 0.67652 0.47139 0.0
H1028 H 0.53324 0.64333 0.44746 0.0
Co1029 Co 0.56756 0.64565 0.46994 0.0
C1030 C 0.59473 0.67581 0.47085 0.0
O1031 O 0.60222 0.67221 0.45553 0.0
N1032 N 0.58685 0.63057 0.47548 0.0
C1033 C 0.61343 0.61809 0.4787 0.0
C1034 C 0.60431 0.63229 0.4718 0.0
C1035 C 0.58574 0.61501 0.48447 0.0
N1036 N 0.60176 0.60714 0.48672 0.0
O1037 O 0.55992 0.64395 0.49405 0.0
H1038 H 0.61023 0.64286 0.46426 0.0
H1039 H 0.57333 0.60945 0.48904 0.0
O1040 O 0.58182 0.66638 0.47664 0.0
C1041 C 0.54664 0.63405 0.49743 0.0
O1042 O 0.53868 0.62586 0.48424 0.0
N1043 N 0.57439 0.64662 0.44574 0.0
C1044 C 0.58672 0.64622 0.41075 0.0
C1045 C 0.58019 0.66196 0.41833 0.0
C1046 C 0.57379 0.66181 0.43576 0.0
C1047 C 0.5787 0.63088 0.43788 0.0
C1048 C 0.58526 0.63042 0.42057 0.0
H1049 H 0.56928 0.67415 0.44156 0.0
H1050 H 0.57767 0.61859 0.44524 0.0
H1051 H 0.55238 0.68376 0.48063 0.0
H1052 H 0.5099 0.66977 0.44712 0.0
H1053 H 0.62765 0.61616 0.47793 0.0
H1054 H 0.58046 0.67437 0.41105 0.0
H1055 H 0.5899 0.61786 0.41532 0.0
C1056 C 0.7942 0.59019 0.70347 0.0
C1057 C 0.79534 0.57821 0.71727 0.0
N1058 N 0.78521 0.564 0.71326 0.0
N1059 N 0.78342 0.58358 0.69081 0.0
C1060 C 0.7781 0.56763 0.69717 0.0
H1061 H 0.80073 0.60297 0.7027 0.0
Co1062 Co 0.77685 0.59553 0.67015 0.0
C1063 C 0.77157 0.56164 0.64814 0.0
O1064 O 0.78672 0.56235 0.63955 0.0
N1065 N 0.76972 0.60788 0.64947 0.0
C1066 C 0.76435 0.61608 0.62157 0.0
C1067 C 0.77077 0.6028 0.6323 0.0
C1068 C 0.76277 0.62444 0.64874 0.0
N1069 N 0.7593 0.62975 0.63192 0.0
O1070 O 0.75388 0.59963 0.68013 0.0
H1071 H 0.77628 0.59051 0.62757 0.0
H1072 H 0.76077 0.63266 0.66032 0.0
O1073 O 0.76762 0.5735 0.65966 0.0
C1074 C 0.75264 0.61304 0.69036 0.0
O1075 O 0.767 0.6224 0.69367 0.0
N1076 N 0.8001 0.59276 0.66098 0.0
C1077 C 0.83286 0.59175 0.64391 0.0
C1078 C 0.82665 0.57679 0.65314 0.0
C1079 C 0.81025 0.57771 0.66198 0.0
C1080 C 0.8073 0.60799 0.65426 0.0
C1081 C 0.82341 0.60768 0.64528 0.0
H1082 H 0.80523 0.56602 0.66866 0.0
H1083 H 0.80021 0.62043 0.65526 0.0
H1084 H 0.76891 0.55896 0.69031 0.0
H1085 H 0.8032 0.57974 0.7292 0.0
H1086 H 0.76348 0.6156 0.60724 0.0
H1087 H 0.8339 0.56437 0.65278 0.0
H1088 H 0.82821 0.61972 0.63899 0.0
C1089 C 0.65413 0.54586 0.9672 0.0
C1090 C 0.66786 0.54615 0.97927 0.0
N1091 N 0.68097 0.53561 0.97311 0.0
N1092 N 0.65866 0.53533 0.95346 0.0
C1093 C 0.67498 0.52914 0.9575 0.0
H1094 H 0.64171 0.55301 0.96823 0.0
Co1095 Co 0.6448 0.5309 0.93357 0.0
C1096 C 0.67505 0.52959 0.90667 0.0
O1097 O 0.67205 0.54536 0.89985 0.0
N1098 N 0.63057 0.52599 0.91348 0.0
C1099 C 0.61975 0.52424 0.88595 0.0
C1100 C 0.63234 0.532 0.89661 0.0
C1101 C 0.61641 0.51496 0.91273 0.0
N1102 N 0.60979 0.51355 0.89616 0.0
O1103 O 0.6424 0.50686 0.9411 0.0
H1104 H 0.64171 0.54185 0.89224 0.0
H1105 H 0.6111 0.50787 0.92403 0.0
O1106 O 0.66572 0.52384 0.91966 0.0
C1107 C 0.63111 0.50496 0.95355 0.0
O1108 O 0.62261 0.51908 0.95931 0.0
N1109 N 0.64612 0.55505 0.92745 0.0
C1110 C 0.6445 0.59117 0.91925 0.0
C1111 C 0.66065 0.58325 0.92429 0.0
C1112 C 0.66114 0.56517 0.92852 0.0
C1113 C 0.63009 0.56295 0.92456 0.0
C1114 C 0.62902 0.58081 0.91997 0.0
H1115 H 0.67366 0.55919 0.93226 0.0
H1116 H 0.61801 0.55523 0.92538 0.0
H1117 H 0.6825 0.52036 0.94897 0.0
H1118 H 0.66812 0.55348 0.99162 0.0
H1119 H 0.61778 0.5266 0.8719 0.0
H1120 H 0.67287 0.59082 0.92464 0.0
H1121 H 0.61617 0.58611 0.9163 0.0
C1122 C 0.71596 0.40151 0.21439 0.0
C1123 C 0.71498 0.41446 0.22719 0.0
N1124 N 0.72164 0.42966 0.22042 0.0
N1125 N 0.72318 0.40845 0.19958 0.0
C1126 C 0.72662 0.42559 0.20363 0.0
H1127 H 0.71165 0.38786 0.21572 0.0
Co1128 Co 0.72688 0.39536 0.17908 0.0
C1129 C 0.72539 0.42698 0.15333 0.0
O1130 O 0.70901 0.42501 0.14773 0.0
N1131 N 0.7309 0.38176 0.15845 0.0
C1132 C 0.72939 0.37031 0.13122 0.0
C1133 C 0.72374 0.38383 0.14211 0.0
C1134 C 0.74082 0.36685 0.1571 0.0
N1135 N 0.74019 0.35969 0.1407 0.0
O1136 O 0.75144 0.39451 0.18446 0.0
H1137 H 0.71435 0.39399 0.13843 0.0
H1138 H 0.74781 0.36084 0.16809 0.0
O1139 O 0.73178 0.41659 0.16514 0.0
C1140 C 0.75564 0.38225 0.19529 0.0
O1141 O 0.74317 0.37154 0.20119 0.0
N1142 N 0.70238 0.39523 0.17492 0.0
C1143 C 0.66586 0.39056 0.17107 0.0
C1144 C 0.67298 0.40755 0.1741 0.0
C1145 C 0.69132 0.40954 0.17637 0.0
C1146 C 0.69551 0.37855 0.17338 0.0
C1147 C 0.6774 0.37594 0.17107 0.0
H1148 H 0.69664 0.42257 0.17925 0.0
H1149 H 0.70418 0.36711 0.17381 0.0
H1150 H 0.73236 0.43495 0.19436 0.0
H1151 H 0.70989 0.41269 0.24052 0.0
H1152 H 0.72565 0.36831 0.11748 0.0
H1153 H 0.66448 0.41914 0.1747 0.0
H1154 H 0.67262 0.36256 0.1688 0.0
C1155 C 0.84477 0.46108 0.47096 0.0
C1156 C 0.83016 0.45588 0.48059 0.0
N1157 N 0.81664 0.46696 0.47673 0.0
N1158 N 0.84044 0.47522 0.46084 0.0
C1159 C 0.82324 0.47859 0.46472 0.0
H1160 H 0.85787 0.45523 0.47167 0.0
Co1161 Co 0.85611 0.48828 0.44693 0.0
C1162 C 0.83903 0.49242 0.41194 0.0
O1163 O 0.85422 0.48804 0.40451 0.0
N1164 N 0.87209 0.50232 0.43338 0.0
C1165 C 0.88147 0.52657 0.41915 0.0
C1166 C 0.86722 0.51839 0.42691 0.0
C1167 C 0.88966 0.50125 0.42949 0.0
N1168 N 0.89562 0.51582 0.42081 0.0
O1169 O 0.84881 0.50938 0.45856 0.0
H1170 H 0.85404 0.52401 0.42793 0.0
H1171 H 0.89825 0.49049 0.43345 0.0
O1172 O 0.83761 0.49231 0.42891 0.0
C1173 C 0.85588 0.51341 0.47332 0.0
O1174 O 0.86633 0.5018 0.48113 0.0
N1175 N 0.86381 0.467 0.43622 0.0
C1176 C 0.87705 0.43509 0.42274 0.0
C1177 C 0.8595 0.44037 0.41926 0.0
C1178 C 0.853 0.45614 0.4265 0.0
C1179 C 0.88025 0.46125 0.44112 0.0
C1180 C 0.88732 0.44555 0.43423 0.0
H1181 H 0.83922 0.45947 0.42438 0.0
H1182 H 0.88785 0.46878 0.45069 0.0
H1183 H 0.81583 0.48955 0.45908 0.0
H1184 H 0.82974 0.4452 0.49023 0.0
H1185 H 0.8814 0.53946 0.41276 0.0
H1186 H 0.8509 0.43255 0.4108 0.0
H1187 H 0.90061 0.44156 0.43802 0.0
C1188 C 0.78261 0.42189 0.78927 0.0
C1189 C 0.78516 0.43468 0.77659 0.0
N1190 N 0.77975 0.45042 0.78315 0.0
N1191 N 0.77542 0.42922 0.80399 0.0
C1192 C 0.7739 0.44671 0.7998 0.0
H1193 H 0.78642 0.40818 0.78783 0.0
Co1194 Co 0.76916 0.41714 0.82535 0.0
C1195 C 0.75693 0.4456 0.84211 0.0
O1196 O 0.77355 0.44462 0.84735 0.0
N1197 N 0.76287 0.40542 0.84643 0.0
C1198 C 0.76569 0.39316 0.87314 0.0
C1199 C 0.77245 0.40561 0.86155 0.0
C1200 C 0.75015 0.39306 0.84926 0.0
N1201 N 0.75178 0.38508 0.86527 0.0
O1202 O 0.75132 0.40371 0.81203 0.0
H1203 H 0.78436 0.4134 0.86351 0.0
H1204 H 0.74053 0.38917 0.83935 0.0
O1205 O 0.75151 0.43466 0.83039 0.0
C1206 C 0.75068 0.39186 0.7999 0.0
O1207 O 0.76537 0.38494 0.79357 0.0
N1208 N 0.78763 0.40044 0.8222 0.0
C1209 C 0.81762 0.38062 0.83168 0.0
C1210 C 0.81917 0.3984 0.82623 0.0
C1211 C 0.80401 0.40816 0.82212 0.0
C1212 C 0.786 0.38266 0.82565 0.0
C1213 C 0.80084 0.37251 0.83047 0.0
H1214 H 0.80524 0.42236 0.8203 0.0
H1215 H 0.77303 0.37658 0.82647 0.0
H1216 H 0.76883 0.45661 0.80887 0.0
H1217 H 0.79055 0.43239 0.76348 0.0
H1218 H 0.77145 0.3894 0.88577 0.0
H1219 H 0.83185 0.40519 0.82647 0.0
H1220 H 0.79885 0.35891 0.83469 0.0
C1221 C 0.83225 0.51485 0.02468 0.0
C1222 C 0.81826 0.51697 0.01315 0.0
N1223 N 0.80319 0.51787 0.02273 0.0
N1224 N 0.82609 0.51435 0.04152 0.0
C1225 C 0.80833 0.51634 0.03985 0.0
H1226 H 0.84603 0.51423 0.0209 0.0
Co1227 Co 0.83888 0.51175 0.06281 0.0
C1228 C 0.81085 0.50085 0.08136 0.0
O1229 O 0.81134 0.51801 0.08455 0.0
N1230 N 0.85119 0.50865 0.08418 0.0
C1231 C 0.86513 0.51404 0.10962 0.0
C1232 C 0.85281 0.52038 0.09761 0.0
C1233 C 0.86201 0.49506 0.08863 0.0
N1234 N 0.87108 0.49818 0.10377 0.0
O1235 O 0.85284 0.49301 0.05157 0.0
H1236 H 0.84638 0.53323 0.09798 0.0
H1237 H 0.86391 0.48341 0.08048 0.0
O1238 O 0.82226 0.49427 0.07072 0.0
C1239 C 0.86624 0.49106 0.04133 0.0
O1240 O 0.8747 0.50493 0.03497 0.0
N1241 N 0.85473 0.53036 0.05624 0.0
C1242 C 0.87244 0.56281 0.06002 0.0
C1243 C 0.8557 0.56197 0.05187 0.0
C1244 C 0.84682 0.54577 0.0508 0.0
C1245 C 0.87211 0.53063 0.06156 0.0
C1246 C 0.88113 0.54671 0.06373 0.0
H1247 H 0.83294 0.54602 0.04722 0.0
H1248 H 0.87854 0.51861 0.06607 0.0
H1249 H 0.79929 0.51656 0.05098 0.0
H1250 H 0.81921 0.51815 0.99886 0.0
H1251 H 0.87025 0.52116 0.12101 0.0
H1252 H 0.84864 0.57392 0.04807 0.0
H1253 H 0.89405 0.54643 0.07003 0.0
C1254 C 0.7176 0.57635 0.28656 0.0
C1255 C 0.71641 0.56318 0.27401 0.0
N1256 N 0.72341 0.54825 0.28089 0.0
N1257 N 0.72544 0.5699 0.30139 0.0
C1258 C 0.72868 0.55264 0.29748 0.0
H1259 H 0.71249 0.58965 0.28496 0.0
Co1260 Co 0.73075 0.58212 0.32274 0.0
C1261 C 0.74504 0.55379 0.33927 0.0
O1262 O 0.72836 0.55272 0.3443 0.0
N1263 N 0.73599 0.59385 0.34385 0.0
C1264 C 0.73211 0.60501 0.37085 0.0
C1265 C 0.72605 0.59278 0.3587 0.0
C1266 C 0.74825 0.60647 0.34737 0.0
N1267 N 0.74603 0.61366 0.36364 0.0
O1268 O 0.74801 0.59649 0.30964 0.0
H1269 H 0.71451 0.58435 0.36017 0.0
H1270 H 0.75772 0.61133 0.33772 0.0
O1271 O 0.74935 0.56571 0.32803 0.0
C1272 C 0.74818 0.60818 0.2973 0.0
O1273 O 0.73332 0.61403 0.29033 0.0
N1274 N 0.71165 0.59789 0.31928 0.0
C1275 C 0.68107 0.61781 0.32586 0.0
C1276 C 0.67999 0.59951 0.32254 0.0
C1277 C 0.69547 0.58978 0.31954 0.0
C1278 C 0.71289 0.61586 0.32168 0.0
C1279 C 0.69772 0.62609 0.3247 0.0
H1280 H 0.69467 0.57545 0.31878 0.0
H1281 H 0.72571 0.62222 0.32268 0.0
H1282 H 0.73492 0.5434 0.3065 0.0
H1283 H 0.71039 0.56439 0.261 0.0
H1284 H 0.72624 0.60787 0.38366 0.0
H1285 H 0.66751 0.59245 0.3238 0.0
H1286 H 0.69918 0.64017 0.3273 0.0
C1287 C 0.66586 0.46147 0.53241 0.0
C1288 C 0.68026 0.46021 0.52132 0.0
N1289 N 0.69489 0.46479 0.53055 0.0
N1290 N 0.6713 0.4668 0.54857 0.0
C1291 C 0.6891 0.4688 0.54709 0.0
H1292 H 0.65222 0.45851 0.529 0.0
Co1293 Co 0.65533 0.46899 0.56705 0.0
C1294 C 0.6745 0.48384 0.59833 0.0
O1295 O 0.66382 0.47537 0.60922 0.0
N1296 N 0.63815 0.47105 0.58539 0.0
C1297 C 0.61799 0.46542 0.60636 0.0
C1298 C 0.63026 0.45807 0.59504 0.0
C1299 C 0.63025 0.48617 0.59117 0.0
N1300 N 0.61794 0.4831 0.60384 0.0
O1301 O 0.64801 0.49139 0.55744 0.0
H1302 H 0.63288 0.44403 0.59397 0.0
H1303 H 0.63343 0.49928 0.5862 0.0
O1304 O 0.67295 0.48173 0.58151 0.0
C1305 C 0.63367 0.49276 0.54857 0.0
O1306 O 0.62359 0.47865 0.54656 0.0
N1307 N 0.66236 0.44641 0.57527 0.0
C1308 C 0.66633 0.41158 0.58754 0.0
C1309 C 0.67761 0.4252 0.59354 0.0
C1310 C 0.67571 0.44244 0.5869 0.0
C1311 C 0.65262 0.4331 0.56784 0.0
C1312 C 0.65435 0.4156 0.57378 0.0
H1313 H 0.68482 0.45242 0.59149 0.0
H1314 H 0.64272 0.43629 0.55793 0.0
H1315 H 0.69767 0.47264 0.55797 0.0
H1316 H 0.67998 0.4563 0.50749 0.0
H1317 H 0.60923 0.4582 0.6152 0.0
H1318 H 0.68735 0.42287 0.60385 0.0
H1319 H 0.64589 0.40548 0.56806 0.0
C1320 C 0.70861 0.7929 0.57047 0.0
C1321 C 0.71974 0.7966 0.55645 0.0
N1322 N 0.71646 0.78478 0.54339 0.0
N1323 N 0.6983 0.77892 0.56619 0.0
C1324 C 0.70346 0.77418 0.54973 0.0
H1325 H 0.70805 0.79992 0.58299 0.0
Co1326 Co 0.68146 0.76817 0.58036 0.0
C1327 C 0.6513 0.76024 0.55702 0.0
O1328 O 0.64086 0.76737 0.56907 0.0
N1329 N 0.6646 0.75644 0.59487 0.0
C1330 C 0.64851 0.73356 0.60449 0.0
C1331 C 0.6596 0.73953 0.59143 0.0
C1332 C 0.65643 0.76029 0.61043 0.0
N1333 N 0.64646 0.74661 0.61653 0.0
O1334 O 0.69507 0.74686 0.5802 0.0
H1335 H 0.66414 0.73175 0.58025 0.0
H1336 H 0.65808 0.77261 0.61749 0.0
O1337 O 0.66814 0.76019 0.5594 0.0
C1338 C 0.70524 0.74576 0.59366 0.0
O1339 O 0.70596 0.75931 0.60465 0.0
N1340 N 0.66928 0.78989 0.58145 0.0
C1341 C 0.65428 0.82332 0.58647 0.0
C1342 C 0.65438 0.81551 0.56957 0.0
C1343 C 0.66237 0.79889 0.56724 0.0
C1344 C 0.67095 0.79818 0.59741 0.0
C1345 C 0.66319 0.81469 0.60036 0.0
H1346 H 0.66309 0.79338 0.55402 0.0
H1347 H 0.67858 0.79198 0.60788 0.0
H1348 H 0.69805 0.76287 0.54272 0.0
H1349 H 0.72937 0.80725 0.55589 0.0
H1350 H 0.64318 0.72024 0.60543 0.0
H1351 H 0.64818 0.82204 0.55834 0.0
H1352 H 0.66428 0.82071 0.61338 0.0
C1353 C 0.21402 0.71393 0.416 0.0
C1354 C 0.22586 0.71148 0.42963 0.0
N1355 N 0.21841 0.71746 0.44475 0.0
N1356 N 0.19897 0.72142 0.42229 0.0
C1357 C 0.20211 0.72336 0.43992 0.0
H1358 H 0.21614 0.70984 0.40244 0.0
Co1359 Co 0.17836 0.72714 0.40884 0.0
C1360 C 0.16231 0.74129 0.4362 0.0
O1361 O 0.15778 0.72442 0.43657 0.0
N1362 N 0.15805 0.73324 0.39539 0.0
C1363 C 0.1302 0.7352 0.38548 0.0
C1364 C 0.14116 0.72797 0.39832 0.0
C1365 C 0.157 0.74355 0.38065 0.0
N1366 N 0.14031 0.74486 0.37434 0.0
O1367 O 0.19258 0.74294 0.39447 0.0
H1368 H 0.13707 0.71919 0.40894 0.0
H1369 H 0.16823 0.74987 0.37434 0.0
O1370 O 0.17328 0.74641 0.42437 0.0
C1371 C 0.20484 0.74408 0.38284 0.0
O1372 O 0.2123 0.7297 0.3764 0.0
N1373 N 0.18155 0.70701 0.39458 0.0
C1374 C 0.17177 0.6749 0.37907 0.0
C1375 C 0.17574 0.67581 0.39718 0.0
C1376 C 0.18016 0.69204 0.40471 0.0
C1377 C 0.17947 0.70614 0.37657 0.0
C1378 C 0.17439 0.69011 0.36853 0.0
H1379 H 0.18072 0.69297 0.41903 0.0
H1380 H 0.17989 0.71806 0.3686 0.0
H1381 H 0.19271 0.72907 0.4491 0.0
H1382 H 0.23877 0.70529 0.42849 0.0
H1383 H 0.11605 0.73307 0.3841 0.0
H1384 H 0.17344 0.66456 0.40588 0.0
H1385 H 0.17123 0.68994 0.35449 0.0
C1386 C 0.53586 0.96604 0.65879 0.0
C1387 C 0.53651 0.97863 0.67192 0.0
N1388 N 0.53152 0.97099 0.68729 0.0
N1389 N 0.53046 0.95035 0.66568 0.0
C1390 C 0.52806 0.95383 0.68318 0.0
H1391 H 0.53954 0.96826 0.64514 0.0
Co1392 Co 0.5263 0.92888 0.65323 0.0
C1393 C 0.51265 0.91115 0.68062 0.0
O1394 O 0.52933 0.90599 0.68051 0.0
N1395 N 0.5217 0.90758 0.64105 0.0
C1396 C 0.52546 0.88113 0.62846 0.0
C1397 C 0.53216 0.89304 0.64066 0.0
C1398 C 0.50854 0.90404 0.62935 0.0
N1399 N 0.51068 0.8882 0.62119 0.0
O1400 O 0.5091 0.94136 0.63866 0.0
H1401 H 0.54441 0.89166 0.64803 0.0
H1402 H 0.49794 0.91323 0.62628 0.0
O1403 O 0.50775 0.92288 0.66943 0.0
C1404 C 0.50825 0.95269 0.62605 0.0
O1405 O 0.52277 0.95919 0.61892 0.0
N1406 N 0.54563 0.9333 0.6378 0.0
C1407 C 0.57737 0.92545 0.62026 0.0
C1408 C 0.57747 0.93289 0.63737 0.0
C1409 C 0.56148 0.93591 0.64615 0.0
C1410 C 0.54531 0.92876 0.62022 0.0
C1411 C 0.56101 0.92455 0.61127 0.0
H1412 H 0.56188 0.93883 0.6602 0.0
H1413 H 0.53284 0.92632 0.61357 0.0
H1414 H 0.52351 0.9441 0.69272 0.0
H1415 H 0.54064 0.99231 0.67029 0.0
H1416 H 0.53164 0.86878 0.62445 0.0
H1417 H 0.5897 0.93473 0.64469 0.0
H1418 H 0.55995 0.91892 0.5981 0.0
C1419 C 0.28628 0.27822 0.91203 0.0
C1420 C 0.27239 0.28106 0.92359 0.0
N1421 N 0.27737 0.27539 0.93984 0.0
N1422 N 0.29992 0.27085 0.92098 0.0
C1423 C 0.29409 0.26923 0.93786 0.0
H1424 H 0.28637 0.28105 0.89794 0.0
Co1425 Co 0.32092 0.26295 0.91105 0.0
C1426 C 0.34772 0.26606 0.93964 0.0
O1427 O 0.3584 0.27467 0.92882 0.0
N1428 N 0.34226 0.25418 0.90079 0.0
C1429 C 0.36476 0.23548 0.89599 0.0
C1430 C 0.35178 0.24058 0.90772 0.0
C1431 C 0.34966 0.25683 0.8846 0.0
N1432 N 0.36337 0.24571 0.88142 0.0
O1433 O 0.31286 0.23923 0.91393 0.0
H1434 H 0.34886 0.23406 0.9202 0.0
H1435 H 0.34437 0.26562 0.87462 0.0
O1436 O 0.33217 0.26169 0.9344 0.0
C1437 C 0.30864 0.23173 0.89942 0.0
O1438 O 0.31079 0.24043 0.88442 0.0
N1439 N 0.32749 0.28657 0.90711 0.0
C1440 C 0.33542 0.32118 0.89646 0.0
C1441 C 0.33497 0.31662 0.9146 0.0
C1442 C 0.33062 0.29926 0.91967 0.0
C1443 C 0.32566 0.29134 0.88978 0.0
C1444 C 0.33012 0.30833 0.88405 0.0
H1445 H 0.3297 0.29611 0.93364 0.0
H1446 H 0.32068 0.28181 0.88028 0.0
H1447 H 0.30169 0.26305 0.94838 0.0
H1448 H 0.25964 0.28683 0.9203 0.0
H1449 H 0.37398 0.22458 0.89774 0.0
H1450 H 0.33795 0.32632 0.92478 0.0
H1451 H 0.32982 0.31109 0.86995 0.0
C1452 C 0.46782 0.53937 0.66456 0.0
C1453 C 0.46418 0.52694 0.67743 0.0
N1454 N 0.47307 0.53142 0.69232 0.0
N1455 N 0.47886 0.55173 0.67128 0.0
C1456 C 0.48201 0.54646 0.68817 0.0
H1457 H 0.4626 0.53957 0.65118 0.0
Co1458 Co 0.48682 0.57133 0.65845 0.0
C1459 C 0.48808 0.59608 0.69053 0.0
O1460 O 0.47278 0.6038 0.68737 0.0
N1461 N 0.49531 0.59078 0.64512 0.0
C1462 C 0.5015 0.61763 0.63436 0.0
C1463 C 0.4946 0.60839 0.64853 0.0
C1464 C 0.50267 0.58973 0.62878 0.0
N1465 N 0.50656 0.60586 0.62188 0.0
O1466 O 0.50996 0.56098 0.65746 0.0
H1467 H 0.48878 0.61439 0.66012 0.0
H1468 H 0.50475 0.57734 0.62189 0.0
O1469 O 0.49383 0.58377 0.68032 0.0
C1470 C 0.51138 0.54966 0.64498 0.0
O1471 O 0.49727 0.54609 0.63533 0.0
N1472 N 0.46337 0.5806 0.65806 0.0
C1473 C 0.42868 0.59331 0.65385 0.0
C1474 C 0.43426 0.58601 0.6701 0.0
C1475 C 0.45157 0.57943 0.67183 0.0
C1476 C 0.45759 0.58619 0.6418 0.0
C1477 C 0.44059 0.59303 0.63954 0.0
H1478 H 0.4556 0.5738 0.68442 0.0
H1479 H 0.46617 0.58541 0.63034 0.0
H1480 H 0.49031 0.55373 0.69737 0.0
H1481 H 0.45568 0.51545 0.6759 0.0
H1482 H 0.50199 0.63194 0.6331 0.0
H1483 H 0.42536 0.58537 0.68139 0.0
H1484 H 0.43703 0.59834 0.62665 0.0
C1485 C 0.78878 0.19728 0.08736 0.0
C1486 C 0.77701 0.19718 0.07343 0.0
N1487 N 0.78151 0.21031 0.0621 0.0
N1488 N 0.80077 0.21033 0.08486 0.0
C1489 C 0.79603 0.21807 0.06933 0.0
H1490 H 0.78845 0.18859 0.09881 0.0
Co1491 Co 0.81807 0.21618 0.10153 0.0
C1492 C 0.85006 0.22407 0.07878 0.0
O1493 O 0.86047 0.21389 0.08832 0.0
N1494 N 0.83539 0.2222 0.1192 0.0
C1495 C 0.85851 0.22171 0.13779 0.0
C1496 C 0.85034 0.21332 0.12389 0.0
C1497 C 0.83476 0.23587 0.13096 0.0
N1498 N 0.84871 0.23593 0.14229 0.0
O1499 O 0.80811 0.23937 0.10339 0.0
H1500 H 0.85511 0.20117 0.11794 0.0
H1501 H 0.82421 0.24559 0.13143 0.0
O1502 O 0.83354 0.22533 0.08258 0.0
C1503 C 0.79312 0.24127 0.11095 0.0
O1504 O 0.78481 0.22716 0.11703 0.0
N1505 N 0.82686 0.19293 0.10002 0.0
C1506 C 0.84259 0.15962 0.10228 0.0
C1507 C 0.84248 0.16897 0.08614 0.0
C1508 C 0.83411 0.18551 0.08516 0.0
C1509 C 0.82475 0.18303 0.11505 0.0
C1510 C 0.83277 0.1664 0.11659 0.0
H1511 H 0.83408 0.19262 0.07269 0.0
H1512 H 0.81792 0.18869 0.12636 0.0
H1513 H 0.80271 0.22954 0.06379 0.0
H1514 H 0.76598 0.18811 0.07181 0.0
H1515 H 0.87042 0.21726 0.14451 0.0
H1516 H 0.84932 0.16383 0.07457 0.0
H1517 H 0.8323 0.15952 0.12922 0.0
C1518 C 0.53501 0.04492 0.83091 0.0
C1519 C 0.53707 0.03129 0.81896 0.0
N1520 N 0.53019 0.03646 0.8033 0.0
N1521 N 0.52685 0.05883 0.82293 0.0
C1522 C 0.52415 0.05316 0.80606 0.0
H1523 H 0.53936 0.04458 0.84457 0.0
Co1524 Co 0.52021 0.081 0.83307 0.0
C1525 C 0.51138 0.09585 0.80227 0.0
O1526 O 0.52838 0.09959 0.80362 0.0
N1527 N 0.51369 0.10286 0.84282 0.0
C1528 C 0.51587 0.13078 0.85207 0.0
C1529 C 0.52271 0.11818 0.84073 0.0
C1530 C 0.50127 0.10653 0.85522 0.0
N1531 N 0.50246 0.12336 0.86135 0.0
O1532 O 0.5007 0.06892 0.84535 0.0
H1533 H 0.53425 0.11975 0.83233 0.0
H1534 H 0.49258 0.09658 0.86086 0.0
O1535 O 0.50442 0.08564 0.81385 0.0
C1536 C 0.49877 0.05666 0.85695 0.0
O1537 O 0.51268 0.04928 0.86442 0.0
N1538 N 0.53687 0.07845 0.85152 0.0
C1539 C 0.56405 0.09057 0.87366 0.0
C1540 C 0.56758 0.08571 0.85603 0.0
C1541 C 0.55375 0.07993 0.84515 0.0
C1542 C 0.53342 0.08165 0.86906 0.0
C1543 C 0.54688 0.08768 0.88038 0.0
H1544 H 0.5562 0.07837 0.83108 0.0
H1545 H 0.51997 0.08145 0.87401 0.0
H1546 H 0.51805 0.06114 0.79583 0.0
H1547 H 0.54298 0.01846 0.82171 0.0
H1548 H 0.52102 0.14407 0.85394 0.0
H1549 H 0.58049 0.08805 0.85014 0.0
H1550 H 0.54358 0.09131 0.89391 0.0
C1551 C 0.95929 0.97928 0.35013 0.0
C1552 C 0.96027 0.98886 0.33464 0.0
N1553 N 0.96463 0.97764 0.32139 0.0
N1554 N 0.96304 0.96215 0.34667 0.0
C1555 C 0.96617 0.96147 0.32904 0.0
H1556 H 0.95613 0.98443 0.36317 0.0
Co1557 Co 0.96367 0.94525 0.3642 0.0
C1558 C 0.97205 0.91063 0.34716 0.0
O1559 O 0.96045 0.90266 0.35749 0.0
N1560 N 0.96443 0.92844 0.38275 0.0
C1561 C 0.95889 0.91084 0.40589 0.0
C1562 C 0.95175 0.92297 0.39426 0.0
C1563 C 0.97917 0.91955 0.38791 0.0
N1564 N 0.97616 0.90874 0.40187 0.0
O1565 O 0.98721 0.95264 0.36989 0.0
H1566 H 0.93825 0.92765 0.39475 0.0
H1567 H 0.99195 0.921 0.38149 0.0
O1568 O 0.97399 0.92754 0.34793 0.0
C1569 C 0.99021 0.96227 0.38344 0.0
O1570 O 0.97692 0.96669 0.39385 0.0
N1571 N 0.94012 0.93927 0.35866 0.0
C1572 C 0.90491 0.92825 0.35779 0.0
C1573 C 0.917 0.92256 0.34472 0.0
C1574 C 0.93446 0.92876 0.34504 0.0
C1575 C 0.92799 0.94741 0.36931 0.0
C1576 C 0.91026 0.942 0.36922 0.0
H1577 H 0.94344 0.92441 0.33479 0.0
H1578 H 0.93242 0.95705 0.379 0.0
H1579 H 0.96983 0.94948 0.322 0.0
H1580 H 0.95784 0.00297 0.33322 0.0
H1581 H 0.95208 0.90471 0.41698 0.0
H1582 H 0.91352 0.91252 0.33505 0.0
H1583 H 0.90121 0.94771 0.37882 0.0
H1584 H 0.05095 0.12478 0.27649 0.0
H1585 H 0.04418 0.16837 0.2397 0.0
H1586 H 0.0293 0.10737 0.25987 0.0
H1587 H 0.0231 0.15084 0.22278 0.0
H1588 H 0.01584 0.07479 0.20895 0.0
H1589 H 0.03002 0.09231 0.23212 0.0
H1590 H 0.99532 0.13648 0.22 0.0
H1591 H 0.98165 0.11914 0.19636 0.0
C1592 C 0.04465 0.13075 0.265 0.0
C1593 C 0.04946 0.14787 0.25928 0.0
C1594 C 0.03233 0.12071 0.2554 0.0
C1595 C 0.02463 0.12754 0.2398 0.0
C1596 C 0.02859 0.14514 0.2348 0.0
C1597 C 0.04079 0.15522 0.24448 0.0
C1598 C 0.01101 0.08812 0.21148 0.0
C1599 C 0.99784 0.09569 0.20067 0.0
C1600 C 0.01908 0.09817 0.22485 0.0
C1601 C 0.014 0.11595 0.2278 0.0
C1602 C -0.00013 0.123 0.21782 0.0
C1603 C 0.99196 0.11303 0.20433 0.0
H1604 H 0.13732 0.73364 0.46106 0.0
H1605 H 0.1694 0.7768 0.44084 0.0
H1606 H 0.12333 0.75373 0.48206 0.0
H1607 H 0.15517 0.79705 0.46197 0.0
H1608 H 0.13811 0.82324 0.51421 0.0
H1609 H 0.15314 0.80213 0.49485 0.0
H1610 H 0.10254 0.77931 0.48043 0.0
H1611 H 0.08741 0.80038 0.49988 0.0
C1612 C 0.14144 0.74743 0.46111 0.0
C1613 C 0.15446 0.75365 0.44925 0.0
C1614 C 0.13332 0.75894 0.47311 0.0
C1615 C 0.13809 0.77694 0.4736 0.0
C1616 C 0.15134 0.78317 0.46196 0.0
C1617 C 0.15942 0.77163 0.44983 0.0
C1618 C 0.13017 0.8136 0.50708 0.0
C1619 C 0.11154 0.81351 0.50857 0.0
C1620 C 0.1388 0.80163 0.49587 0.0
C1621 C 0.12901 0.7892 0.48602 0.0
C1622 C 0.11043 0.7887 0.48794 0.0
C1623 C 0.10177 0.80076 0.49907 0.0
H1624 H 0.47807 0.92054 0.68749 0.0
H1625 H 0.51859 0.8824 0.70169 0.0
H1626 H 0.45741 0.90594 0.70798 0.0
H1627 H 0.49806 0.86797 0.72204 0.0
H1628 H 0.45037 0.83612 0.74313 0.0
H1629 H 0.46995 0.85018 0.72128 0.0
H1630 H 0.4549 0.90192 0.74097 0.0
H1631 H 0.43541 0.88801 0.76267 0.0
C1632 C 0.48256 0.90908 0.69496 0.0
C1633 C 0.49997 0.90268 0.69302 0.0
C1634 C 0.47077 0.90076 0.70671 0.0
C1635 C 0.47613 0.88578 0.71656 0.0
C1636 C 0.49348 0.87933 0.71447 0.0
C1637 C 0.50528 0.88773 0.70291 0.0
C1638 C 0.45126 0.85048 0.74278 0.0
C1639 C 0.4414 0.86093 0.75469 0.0
C1640 C 0.46248 0.85853 0.73031 0.0
C1641 C 0.46389 0.87716 0.7294 0.0
C1642 C 0.45392 0.88756 0.74121 0.0
C1643 C 0.44287 0.87954 0.75375 0.0
H1644 H 0.37713 0.19018 0.02203 0.0
H1645 H 0.42372 0.2027 0.99097 0.0
H1646 H 0.36152 0.21525 0.00875 0.0
H1647 H 0.40796 0.22723 0.97711 0.0
H1648 H 0.37922 0.27352 0.95607 0.0
H1649 H 0.39434 0.25542 0.97828 0.0
H1650 H 0.34867 0.22066 0.98082 0.0
H1651 H 0.33339 0.23914 0.95931 0.0
C1652 C 0.38408 0.19839 0.01247 0.0
C1653 C 0.40157 0.19433 0.00737 0.0
C1654 C 0.37511 0.21272 0.00478 0.0
C1655 C 0.38334 0.22317 0.99164 0.0
C1656 C 0.40119 0.21966 0.98731 0.0
C1657 C 0.41024 0.20548 0.99517 0.0
C1658 C 0.37226 0.26227 0.96174 0.0
C1659 C 0.35521 0.25762 0.95574 0.0
C1660 C 0.38098 0.25179 0.97436 0.0
C1661 C 0.37292 0.23633 0.98111 0.0
C1662 C 0.35532 0.23251 0.97608 0.0
C1663 C 0.34653 0.2431 0.96363 0.0
H1664 H 0.05433 0.84993 0.29307 0.0
H1665 H 0.00916 0.84869 0.25774 0.0
H1666 H 0.0368 0.86683 0.31476 0.0
H1667 H 0.99159 0.86514 0.27958 0.0
H1668 H 0.96324 0.8784 0.33343 0.0
H1669 H 0.98062 0.85999 0.3131 0.0
H1670 H 0.02187 0.89977 0.31222 0.0
H1671 H 0.00429 0.91849 0.33231 0.0
C1672 C 0.04055 0.8529 0.29015 0.0
C1673 C 0.03304 0.84797 0.27379 0.0
C1674 C 0.03062 0.8627 0.30244 0.0
C1675 C 0.01292 0.86734 0.29874 0.0
C1676 C 0.0052 0.8617 0.28273 0.0
C1677 C 0.01523 0.85229 0.27029 0.0
C1678 C 0.976 0.88325 0.32887 0.0
C1679 C 0.98241 0.8999 0.33441 0.0
C1680 C 0.9859 0.87272 0.31725 0.0
C1681 C 0.00259 0.87844 0.31124 0.0
C1682 C 0.00909 0.89502 0.31683 0.0
C1683 C 0.99899 0.90577 0.32817 0.0
H1684 H 0.32758 0.75741 0.55729 0.0
H1685 H 0.37351 0.7266 0.57272 0.0
H1686 H 0.34483 0.771 0.53329 0.0
H1687 H 0.39058 0.73997 0.54848 0.0
H1688 H 0.40898 0.76076 0.49212 0.0
H1689 H 0.39001 0.74358 0.51238 0.0
H1690 H 0.3733 0.79213 0.53784 0.0
H1691 H 0.39252 0.80917 0.5183 0.0
C1692 C 0.34122 0.75325 0.55531 0.0
C1693 C 0.34927 0.74108 0.56695 0.0
C1694 C 0.35107 0.76106 0.54163 0.0
C1695 C 0.369 0.75653 0.53915 0.0
C1696 C 0.37674 0.74358 0.5501 0.0
C1697 C 0.367 0.73604 0.564 0.0
C1698 C 0.40122 0.76775 0.50201 0.0
C1699 C 0.40214 0.78636 0.50345 0.0
C1700 C 0.3904 0.75793 0.51356 0.0
C1701 C 0.38006 0.76661 0.52643 0.0
C1702 C 0.38091 0.78517 0.52779 0.0
C1703 C 0.39197 0.79491 0.51658 0.0
H1704 H 0.43869 0.13286 0.71999 0.0
H1705 H 0.4529 0.17938 0.75051 0.0
H1706 H 0.45883 0.11488 0.73789 0.0
H1707 H 0.47333 0.16128 0.76826 0.0
H1708 H 0.52072 0.12488 0.78292 0.0
H1709 H 0.5021 0.14235 0.763 0.0
H1710 H 0.45862 0.10601 0.77172 0.0
H1711 H 0.4772 0.08852 0.792 0.0
C1712 C 0.44631 0.13933 0.73033 0.0
C1713 C 0.44419 0.15757 0.73385 0.0
C1714 C 0.45772 0.12897 0.74065 0.0
C1715 C 0.46749 0.13669 0.75448 0.0
C1716 C 0.46594 0.15504 0.75761 0.0
C1717 C 0.45427 0.16538 0.74748 0.0
C1718 C 0.50724 0.12047 0.78049 0.0
C1719 C 0.5004 0.1053 0.78903 0.0
C1720 C 0.49658 0.13057 0.76918 0.0
C1721 C 0.47896 0.12555 0.76592 0.0
C1722 C 0.47223 0.11009 0.77399 0.0
C1723 C 0.48282 0.10012 0.78559 0.0
H1724 H 0.07569 0.18313 0.99858 0.0
H1725 H 0.12683 0.16726 0.97784 0.0
H1726 H 0.09022 0.20576 0.01679 0.0
H1727 H 0.14126 0.18977 0.99613 0.0
H1728 H 0.15976 0.21739 0.04873 0.0
H1729 H 0.14593 0.19518 0.02937 0.0
H1730 H 0.10777 0.23425 0.01179 0.0
H1731 H 0.12154 0.25639 0.03092 0.0
C1732 C 0.08999 0.18452 0.99783 0.0
C1733 C 0.10008 0.17342 0.98672 0.0
C1734 C 0.0983 0.19749 0.00822 0.0
C1735 C 0.11688 0.19946 0.0079 0.0
C1736 C 0.12694 0.18843 0.99676 0.0
C1737 C 0.11864 0.17564 0.98619 0.0
C1738 C 0.14852 0.22125 0.04063 0.0
C1739 C 0.14177 0.23864 0.04136 0.0
C1740 C 0.14063 0.20857 0.02953 0.0
C1741 C 0.12571 0.21299 0.01917 0.0
C1742 C 0.11912 0.23042 0.01978 0.0
C1743 C 0.12712 0.24312 0.03066 0.0
H1744 H 0.2599 0.08715 0.11942 0.0
H1745 H 0.25248 0.0593 0.16913 0.0
H1746 H 0.24336 0.06405 0.10397 0.0
H1747 H 0.23583 0.03619 0.15358 0.0
H1748 H 0.22546 0.98913 0.11671 0.0
H1749 H 0.2422 0.01256 0.13128 0.0
H1750 H 0.21237 0.05208 0.10225 0.0
H1751 H 0.19549 0.02851 0.08751 0.0
C1752 C 0.25476 0.07609 0.12707 0.0
C1753 C 0.2576 0.07502 0.14552 0.0
C1754 C 0.24517 0.06293 0.1182 0.0
C1755 C 0.23832 0.04832 0.12755 0.0
C1756 C 0.24113 0.04723 0.146 0.0
C1757 C 0.25061 0.06048 0.15492 0.0
C1758 C 0.2225 0.0028 0.1133 0.0
C1759 C 0.2091 0.00696 0.10096 0.0
C1760 C 0.23202 0.01622 0.12178 0.0
C1761 C 0.22847 0.03414 0.11806 0.0
C1762 C 0.21543 0.03836 0.10534 0.0
C1763 C 0.20577 0.02488 0.0969 0.0
H1764 H 0.19678 0.98975 0.42205 0.0
H1765 H 0.18672 0.01992 0.37432 0.0
H1766 H 0.21762 0.97106 0.40592 0.0
H1767 H 0.20837 0.002 0.35832 0.0
H1768 H 0.22675 0.95107 0.33018 0.0
H1769 H 0.21033 0.97392 0.34602 0.0
H1770 H 0.24452 0.96673 0.39169 0.0
H1771 H 0.26019 0.94312 0.37607 0.0
C1772 C 0.19943 0.99268 0.40821 0.0
C1773 C 0.19003 0.00616 0.39939 0.0
C1774 C 0.21147 0.98202 0.39891 0.0
C1775 C 0.21465 0.98481 0.38066 0.0
C1776 C 0.20597 0.99906 0.37219 0.0
C1777 C 0.19366 0.00947 0.3814 0.0
C1778 C 0.2309 0.95459 0.34351 0.0
C1779 C 0.24463 0.94523 0.35196 0.0
C1780 C 0.22153 0.96778 0.35263 0.0
C1781 C 0.22591 0.97217 0.3703 0.0
C1782 C 0.2404 0.96345 0.37831 0.0
C1783 C 0.24951 0.95001 0.36931 0.0
H1784 H 0.30351 0.99445 0.57676 0.0
H1785 H 0.30714 0.02913 0.62233 0.0
H1786 H 0.28109 0.97682 0.59198 0.0
H1787 H 0.28433 0.01179 0.63739 0.0
H1788 H 0.26612 0.96051 0.66664 0.0
H1789 H 0.28338 0.98304 0.65108 0.0
H1790 H 0.2517 0.97483 0.6039 0.0
H1791 H 0.2348 0.95195 0.61933 0.0
C1792 C 0.29922 0.99857 0.58986 0.0
C1793 C 0.30729 0.01305 0.59841 0.0
C1794 C 0.28629 0.98849 0.5986 0.0
C1795 C 0.28102 0.99275 0.61603 0.0
C1796 C 0.28834 0.0079 0.62413 0.0
C1797 C 0.30134 0.01791 0.61544 0.0
C1798 C 0.26266 0.96372 0.65304 0.0
C1799 C 0.24924 0.95429 0.64417 0.0
C1800 C 0.2725 0.97671 0.64411 0.0
C1801 C 0.26906 0.98064 0.62614 0.0
C1802 C 0.25496 0.97189 0.61761 0.0
C1803 C 0.2452 0.95884 0.6265 0.0
H1804 H 0.25505 0.05861 0.83155 0.0
H1805 H 0.23853 0.07672 0.88346 0.0
H1806 H 0.27453 0.03664 0.84558 0.0
H1807 H 0.25783 0.05482 0.89735 0.0
H1808 H 0.30999 0.02761 0.9148 0.0
H1809 H 0.29016 0.04924 0.90081 0.0
H1810 H 0.27231 0.00912 0.86394 0.0
H1811 H 0.29209 0.98756 0.87779 0.0
C1812 C 0.2555 0.05786 0.84591 0.0
C1813 C 0.24521 0.06942 0.85636 0.0
C1814 C 0.2666 0.04525 0.85395 0.0
C1815 C 0.26776 0.04406 0.87259 0.0
C1816 C 0.25741 0.05556 0.88298 0.0
C1817 C 0.24623 0.06802 0.87498 0.0
C1818 C 0.30176 0.02339 0.90377 0.0
C1819 C 0.30261 0.00585 0.89744 0.0
C1820 C 0.29038 0.03576 0.89579 0.0
C1821 C 0.27972 0.0309 0.88121 0.0
C1822 C 0.28051 0.01333 0.87498 0.0
C1823 C 0.29176 0.00095 0.88304 0.0
H1824 H 0.57787 0.30967 0.99693 0.0
H1825 H 0.62131 0.30356 0.03401 0.0
H1826 H 0.59237 0.28913 0.97663 0.0
H1827 H 0.63569 0.28277 0.01372 0.0
H1828 H 0.66506 0.26796 0.96086 0.0
H1829 H 0.65051 0.28464 0.98458 0.0
H1830 H 0.601 0.25812 0.97291 0.0
H1831 H 0.61539 0.24169 0.9491 0.0
C1832 C 0.5904 0.30378 0.00087 0.0
C1833 C 0.59847 0.30836 0.01706 0.0
C1834 C 0.59867 0.29191 0.98925 0.0
C1835 C 0.61522 0.28436 0.99354 0.0
C1836 C 0.62305 0.28853 0.00995 0.0
C1837 C 0.61474 0.30036 0.02162 0.0
C1838 C 0.65113 0.26553 0.96352 0.0
C1839 C 0.64134 0.25367 0.95294 0.0
C1840 C 0.64281 0.27503 0.97716 0.0
C1841 C 0.62454 0.27285 0.98049 0.0
C1842 C 0.615 0.26035 0.97046 0.0
C1843 C 0.62329 0.25088 0.95686 0.0
H1844 H 0.97806 0.41373 0.19354 0.0
H1845 H 0.01584 0.37363 0.20986 0.0
H1846 H 0.95613 0.40118 0.21382 0.0
H1847 H 0.99397 0.36128 0.23026 0.0
H1848 H 0.9428 0.33158 0.24673 0.0
H1849 H 0.9657 0.34483 0.22794 0.0
H1850 H 0.95006 0.39714 0.24561 0.0
H1851 H 0.92708 0.384 0.26416 0.0
C1852 C 0.98176 0.40238 0.20159 0.0
C1853 C 0.99868 0.39464 0.2 0.0
C1854 C 0.96921 0.39522 0.21325 0.0
C1855 C 0.97329 0.38015 0.22355 0.0
C1856 C 0.99035 0.37271 0.2223 0.0
C1857 C 0.00292 0.3799 0.21069 0.0
C1858 C 0.94428 0.3459 0.24663 0.0
C1859 C 0.93309 0.35672 0.25691 0.0
C1860 C 0.95746 0.35348 0.23595 0.0
C1861 C 0.95967 0.37204 0.23528 0.0
C1862 C 0.94856 0.38282 0.24567 0.0
C1863 C 0.93544 0.37526 0.25638 0.0
H1864 H 0.90584 0.72943 0.51271 0.0
H1865 H 0.90931 0.68967 0.47147 0.0
H1866 H 0.88698 0.74773 0.49342 0.0
H1867 H 0.8902 0.70778 0.45247 0.0
H1868 H 0.83765 0.734 0.43525 0.0
H1869 H 0.856 0.71804 0.45679 0.0
H1870 H 0.89083 0.76337 0.46088 0.0
H1871 H 0.87273 0.77929 0.439 0.0
C1872 C 0.90271 0.72469 0.49949 0.0
C1873 C 0.90907 0.70816 0.49356 0.0
C1874 C 0.89193 0.73513 0.48852 0.0
C1875 C 0.88702 0.729 0.47162 0.0
C1876 C 0.89366 0.71266 0.46555 0.0
C1877 C 0.90473 0.70241 0.47636 0.0
C1878 C 0.84899 0.74072 0.44101 0.0
C1879 C 0.85383 0.75786 0.43538 0.0
C1880 C 0.85956 0.73153 0.4532 0.0
C1881 C 0.87489 0.73945 0.46025 0.0
C1882 C 0.87908 0.757 0.45556 0.0
C1883 C 0.86872 0.76608 0.44308 0.0
H1884 H 0.01598 0.60222 0.27516 0.0
H1885 H 0.97173 0.59387 0.31075 0.0
H1886 H 0.99639 0.61643 0.25385 0.0
H1887 H 0.95188 0.60823 0.2891 0.0
H1888 H 0.92932 0.65453 0.25339 0.0
H1889 H 0.94795 0.63962 0.27558 0.0
H1890 H 0.9713 0.60743 0.23426 0.0
H1891 H 0.95291 0.62224 0.21219 0.0
C1892 C 0.002 0.60331 0.27838 0.0
C1893 C 0.99536 0.59691 0.29462 0.0
C1894 C 0.99077 0.61142 0.26612 0.0
C1895 C 0.97263 0.61346 0.26982 0.0
C1896 C 0.96586 0.60694 0.286 0.0
C1897 C 0.97715 0.59858 0.29827 0.0
C1898 C 0.93856 0.64439 0.24905 0.0
C1899 C 0.93971 0.63962 0.23103 0.0
C1900 C 0.94904 0.63572 0.26177 0.0
C1901 C 0.96099 0.62233 0.25663 0.0
C1902 C 0.96228 0.61777 0.23859 0.0
C1903 C 0.95173 0.62627 0.22596 0.0
H1904 H 0.47892 0.36831 0.79561 0.0
H1905 H 0.50924 0.41706 0.79713 0.0
H1906 H 0.50197 0.35453 0.77747 0.0
H1907 H 0.53223 0.40322 0.7788 0.0
H1908 H 0.55819 0.37637 0.72949 0.0
H1909 H 0.53507 0.39055 0.74719 0.0
H1910 H 0.53481 0.34563 0.7829 0.0
H1911 H 0.55819 0.3314 0.76522 0.0
C1912 C 0.49037 0.37618 0.79187 0.0
C1913 C 0.49225 0.3938 0.7978 0.0
C1914 C 0.50364 0.3682 0.78164 0.0
C1915 C 0.51892 0.37776 0.77689 0.0
C1916 C 0.52055 0.39557 0.78228 0.0
C1917 C 0.50741 0.40347 0.79275 0.0
C1918 C 0.55324 0.3695 0.74114 0.0
C1919 C 0.55997 0.35275 0.74598 0.0
C1920 C 0.54007 0.37768 0.7513 0.0
C1921 C 0.53315 0.36916 0.76636 0.0
C1922 C 0.53985 0.3524 0.77124 0.0
C1923 C 0.55327 0.34432 0.76122 0.0
H1924 H 0.47873 0.61614 0.71914 0.0
H1925 H 0.52436 0.59484 0.69161 0.0
H1926 H 0.4984 0.63298 0.73872 0.0
H1927 H 0.544 0.61187 0.71111 0.0
H1928 H 0.5692 0.66381 0.73284 0.0
H1929 H 0.54903 0.64588 0.71483 0.0
H1930 H 0.52281 0.6274 0.76237 0.0
H1931 H 0.54311 0.64516 0.78048 0.0
C1932 C 0.49296 0.61489 0.71742 0.0
C1933 C 0.50001 0.60419 0.70384 0.0
C1934 C 0.5042 0.62451 0.72863 0.0
C1935 C 0.52268 0.62386 0.72628 0.0
C1936 C 0.52976 0.61276 0.71305 0.0
C1937 C 0.51854 0.60288 0.70202 0.0
C1938 C 0.55902 0.65609 0.73946 0.0
C1939 C 0.55775 0.65589 0.75809 0.0
C1940 C 0.5476 0.64569 0.72915 0.0
C1941 C 0.53451 0.63513 0.73724 0.0
C1942 C 0.53281 0.63542 0.75582 0.0
C1943 C 0.54441 0.64558 0.76615 0.0
H1944 H 0.88439 0.22372 0.06728 0.0
H1945 H 0.83301 0.24659 0.05566 0.0
H1946 H 0.89739 0.24039 0.04286 0.0
H1947 H 0.84617 0.26355 0.0313 0.0
H1948 H 0.87232 0.27925 0.97911 0.0
H1949 H 0.85978 0.25997 0.0019 0.0
H1950 H 0.9045 0.27122 0.03604 0.0
H1951 H 0.91722 0.29029 0.01317 0.0
C1952 C 0.87584 0.23229 0.05951 0.0
C1953 C 0.85764 0.23386 0.06348 0.0
C1954 C 0.88334 0.24193 0.04555 0.0
C1955 C 0.87285 0.25335 0.03518 0.0
C1956 C 0.85458 0.25471 0.03893 0.0
C1957 C 0.84705 0.24507 0.05295 0.0
C1958 C 0.8796 0.27747 0.9914 0.0
C1959 C 0.89575 0.2864 0.99434 0.0
C1960 C 0.87232 0.26652 0.00451 0.0
C1961 C 0.88105 0.26418 0.02084 0.0
C1962 C 0.89749 0.27263 0.02355 0.0
C1963 C 0.90477 0.28361 0.01045 0.0
H1964 H 0.62326 0.69703 0.46354 0.0
H1965 H 0.58333 0.68682 0.50355 0.0
H1966 H 0.63678 0.71933 0.48269 0.0
H1967 H 0.59706 0.70891 0.52278 0.0
H1968 H 0.61641 0.75954 0.54757 0.0
H1969 H 0.60235 0.74078 0.52537 0.0
H1970 H 0.65366 0.71976 0.51059 0.0
H1971 H 0.66784 0.7388 0.53268 0.0
C1972 C 0.61731 0.69958 0.47638 0.0
C1973 C 0.60225 0.69008 0.48205 0.0
C1974 C 0.62514 0.7123 0.48738 0.0
C1975 C 0.61804 0.71585 0.50426 0.0
C1976 C 0.60273 0.70663 0.50976 0.0
C1977 C 0.59492 0.69389 0.49878 0.0
C1978 C 0.62475 0.75108 0.53946 0.0
C1979 C 0.64324 0.75053 0.542 0.0
C1980 C 0.61665 0.74025 0.5268 0.0
C1981 C 0.62685 0.72862 0.5164 0.0
C1982 C 0.64544 0.72866 0.51835 0.0
C1983 C 0.65357 0.73953 0.53103 0.0
H1984 H 0.70079 0.50172 0.58043 0.0
H1985 H 0.68116 0.49061 0.63326 0.0
H1986 H 0.72452 0.51981 0.59317 0.0
H1987 H 0.70497 0.50835 0.64591 0.0
H1988 H 0.7373 0.55839 0.65998 0.0
H1989 H 0.71405 0.53932 0.64796 0.0
H1990 H 0.75162 0.51674 0.61093 0.0
H1991 H 0.77479 0.53597 0.62271 0.0
C1992 C 0.70157 0.50307 0.59474 0.0
C1993 C 0.68906 0.49473 0.60581 0.0
C1994 C 0.71522 0.51334 0.60205 0.0
C1995 C 0.71663 0.51551 0.62057 0.0
C1996 C 0.70414 0.50713 0.6316 0.0
C1997 C 0.69053 0.49687 0.62431 0.0
C1998 C 0.74065 0.54924 0.64939 0.0
C1999 C 0.75789 0.54879 0.64226 0.0
C2000 C 0.72733 0.53828 0.64252 0.0
C2001 C 0.73095 0.52662 0.62838 0.0
C2002 C 0.74832 0.52581 0.6216 0.0
C2003 C 0.76163 0.53674 0.62848 0.0
H2004 H 0.7619 0.46149 0.87404 0.0
H2005 H 0.72433 0.45759 0.83082 0.0
H2006 H 0.74189 0.48146 0.88976 0.0
H2007 H 0.70432 0.47799 0.8466 0.0
H2008 H 0.68732 0.53228 0.87273 0.0
H2009 H 0.70651 0.51155 0.85683 0.0
H2010 H 0.71011 0.47874 0.90374 0.0
H2011 H 0.6906 0.49935 0.9197 0.0
C2012 C 0.7494 0.46499 0.86783 0.0
C2013 C 0.7447 0.45803 0.85114 0.0
C2014 C 0.73791 0.47631 0.87692 0.0
C2015 C 0.72159 0.4812 0.86941 0.0
C2016 C 0.7169 0.47443 0.85263 0.0
C2017 C 0.72829 0.46277 0.84364 0.0
C2018 C 0.69226 0.5207 0.87972 0.0
C2019 C 0.68752 0.51749 0.89752 0.0
C2020 C 0.7031 0.50877 0.87054 0.0
C2021 C 0.70968 0.49354 0.87904 0.0
C2022 C 0.7052 0.49043 0.89691 0.0
C2023 C 0.69406 0.5022 0.90602 0.0
H2024 H 0.71678 0.45268 0.12908 0.0
H2025 H 0.76167 0.42797 0.15505 0.0
H2026 H 0.73707 0.47019 0.11076 0.0
H2027 H 0.78186 0.44545 0.1367 0.0
H2028 H 0.8112 0.46472 0.08634 0.0
H2029 H 0.79018 0.4471 0.10394 0.0
H2030 H 0.75971 0.49445 0.11492 0.0
H2031 H 0.78058 0.51198 0.09748 0.0
C2032 C 0.73094 0.4511 0.131 0.0
C2033 C 0.73758 0.43894 0.14354 0.0
C2034 C 0.74256 0.46111 0.1205 0.0
C2035 C 0.76104 0.45903 0.12219 0.0
C2036 C 0.76768 0.44711 0.13493 0.0
C2037 C 0.75608 0.43726 0.14557 0.0
C2038 C 0.79991 0.47129 0.09237 0.0
C2039 C 0.79756 0.48972 0.09058 0.0
C2040 C 0.78798 0.46125 0.10255 0.0
C2041 C 0.77337 0.46944 0.11086 0.0
C2042 C 0.77078 0.48777 0.1086 0.0
C2043 C 0.78279 0.4978 0.09866 0.0
H2044 H 0.83855 0.49523 0.37581 0.0
H2045 H 0.80641 0.50477 0.42242 0.0
H2046 H 0.81558 0.50838 0.35721 0.0
H2047 H 0.7835 0.51816 0.40375 0.0
H2048 H 0.7395 0.52771 0.36378 0.0
H2049 H 0.76165 0.51122 0.38062 0.0
H2050 H 0.80343 0.5382 0.35197 0.0
H2051 H 0.78121 0.5546 0.33491 0.0
C2052 C 0.82653 0.50003 0.3821 0.0
C2053 C 0.82434 0.499 0.40064 0.0
C2054 C 0.81342 0.50768 0.37142 0.0
C2055 C 0.79777 0.51442 0.37899 0.0
C2056 C 0.79534 0.51293 0.39748 0.0
C2057 C 0.80849 0.50532 0.40819 0.0
C2058 C 0.7534 0.53001 0.36091 0.0
C2059 C 0.75859 0.54254 0.34804 0.0
C2060 C 0.7661 0.52063 0.37067 0.0
C2061 C 0.78429 0.5235 0.36776 0.0
C2062 C 0.7895 0.53558 0.35444 0.0
C2063 C 0.77678 0.54501 0.34469 0.0
H2064 H 0.09941 0.26672 0.13594 0.0
H2065 H 0.12585 0.21687 0.1257 0.0
H2066 H 0.0906 0.25606 0.16525 0.0
H2067 H 0.11706 0.20618 0.15518 0.0
H2068 H 0.08668 0.18961 0.20597 0.0
H2069 H 0.08937 0.19906 0.17489 0.0
H2070 H 0.11066 0.24946 0.19207 0.0
H2071 H 0.10821 0.24003 0.22297 0.0
C2072 C 0.10295 0.25332 0.13977 0.0
C2073 C 0.11335 0.24261 0.12855 0.0
C2074 C 0.09804 0.24728 0.1566 0.0
C2075 C 0.10323 0.23035 0.16247 0.0
C2076 C 0.11279 0.21925 0.15091 0.0
C2077 C 0.11792 0.22539 0.13414 0.0
C2078 C 0.09171 0.20279 0.20307 0.0
C2079 C 0.09729 0.21409 0.21684 0.0
C2080 C 0.09332 0.20813 0.18533 0.0
C2081 C 0.10018 0.22498 0.18113 0.0
C2082 C 0.10516 0.23647 0.19495 0.0
C2083 C 0.10385 0.23103 0.21262 0.0
H2084 H 0.97074 0.87863 0.42077 0.0
H2085 H 0.01089 0.91692 0.40606 0.0
H2086 H 0.9914 0.8651 0.4419 0.0
H2087 H 0.03154 0.90321 0.42687 0.0
H2088 H 0.0435 0.89641 0.48742 0.0
H2089 H 0.02785 0.90475 0.4605 0.0
H2090 H 0.02219 0.84941 0.44642 0.0
H2091 H 0.03827 0.84093 0.47363 0.0
C2092 C 0.98406 0.88393 0.42182 0.0
C2093 C 0.9891 0.899 0.41199 0.0
C2094 C 0.99593 0.87606 0.43373 0.0
C2095 C 0.01297 0.88324 0.43607 0.0
C2096 C 0.01841 0.89752 0.42535 0.0
C2097 C 0.00661 0.9053 0.41339 0.0
C2098 C 0.03905 0.88598 0.47855 0.0
C2099 C 0.04193 0.86802 0.48264 0.0
C2100 C 0.03026 0.89078 0.46304 0.0
C2101 C 0.02394 0.87772 0.45136 0.0
C2102 C 0.02701 0.8597 0.45525 0.0
C2103 C 0.03617 0.85487 0.47073 0.0
H2104 H 0.3307 0.74577 0.67257 0.0
H2105 H 0.36354 0.78478 0.64609 0.0
H2106 H 0.34331 0.75462 0.70097 0.0
H2107 H 0.37498 0.79448 0.67435 0.0
H2108 H 0.40413 0.80036 0.72598 0.0
H2109 H 0.39354 0.78812 0.69799 0.0
H2110 H 0.34246 0.77749 0.72206 0.0
H2111 H 0.35347 0.78886 0.75024 0.0
C2112 C 0.34057 0.7562 0.67269 0.0
C2113 C 0.34586 0.76463 0.65685 0.0
C2114 C 0.34767 0.76148 0.68909 0.0
C2115 C 0.36013 0.77542 0.69011 0.0
C2116 C 0.36562 0.78356 0.67423 0.0
C2117 C 0.35875 0.77815 0.65789 0.0
C2118 C 0.39065 0.79536 0.72527 0.0
C2119 C 0.37962 0.79563 0.7403 0.0
C2120 C 0.38451 0.78841 0.70917 0.0
C2121 C 0.36704 0.78185 0.70759 0.0
C2122 C 0.35606 0.78209 0.72273 0.0
C2123 C 0.36232 0.78877 0.73891 0.0
H2124 H 0.46851 0.11516 0.9663 0.0
H2125 H 0.46474 0.17221 0.9608 0.0
H2126 H 0.47651 0.11263 0.9351 0.0
H2127 H 0.4732 0.1696 0.92933 0.0
H2128 H 0.51443 0.14958 0.88331 0.0
H2129 H 0.50261 0.15718 0.91248 0.0
H2130 H 0.45981 0.11986 0.90499 0.0
H2131 H 0.47113 0.11264 0.87554 0.0
C2132 C 0.46951 0.12719 0.95845 0.0
C2133 C 0.46607 0.1439 0.96601 0.0
C2134 C 0.47394 0.12571 0.94055 0.0
C2135 C 0.4753 0.14091 0.92984 0.0
C2136 C 0.47217 0.1577 0.93737 0.0
C2137 C 0.46736 0.15917 0.9553 0.0
C2138 C 0.5022 0.14335 0.88756 0.0
C2139 C 0.49394 0.13019 0.87712 0.0
C2140 C 0.49547 0.14772 0.90432 0.0
C2141 C 0.48048 0.13891 0.91101 0.0
C2142 C 0.47156 0.12665 0.90018 0.0
C2143 C 0.47812 0.12245 0.88337 0.0
H2144 H 0.11209 0.76658 0.37005 0.0
H2145 H 0.15622 0.74301 0.34241 0.0
H2146 H 0.10344 0.78238 0.34306 0.0
H2147 H 0.14704 0.75746 0.31498 0.0
H2148 H 0.13643 0.79571 0.2705 0.0
H2149 H 0.14561 0.78242 0.29849 0.0
H2150 H 0.09077 0.78166 0.31584 0.0
H2151 H 0.08205 0.79633 0.28838 0.0
C2152 C 0.11976 0.76463 0.35803 0.0
C2153 C 0.13483 0.75369 0.35826 0.0
C2154 C 0.11477 0.77357 0.34245 0.0
C2155 C 0.12446 0.77138 0.32653 0.0
C2156 C 0.13942 0.76006 0.32688 0.0
C2157 C 0.14465 0.75157 0.34258 0.0
C2158 C 0.12641 0.7928 0.28041 0.0
C2159 C 0.10855 0.79706 0.27727 0.0
C2160 C 0.13161 0.78497 0.29648 0.0
C2161 C 0.11899 0.78063 0.30967 0.0
C2162 C 0.10106 0.785 0.30638 0.0
C2163 C 0.09597 0.79333 0.29052 0.0
H2164 H 0.47536 0.87543 0.51372 0.0
H2165 H 0.44872 0.832 0.54022 0.0
H2166 H 0.48903 0.88413 0.54163 0.0
H2167 H 0.46244 0.84089 0.56838 0.0
H2168 H 0.50651 0.85386 0.61081 0.0
H2169 H 0.49222 0.84325 0.58356 0.0
H2170 H 0.47876 0.89729 0.56971 0.0
H2171 H 0.49331 0.90786 0.59647 0.0
C2172 C 0.47245 0.86767 0.52549 0.0
C2173 C 0.46086 0.85305 0.52472 0.0
C2174 C 0.48021 0.87276 0.54154 0.0
C2175 C 0.47667 0.86334 0.55728 0.0
C2176 C 0.46547 0.84839 0.55647 0.0
C2177 C 0.45757 0.84334 0.54036 0.0
C2178 C 0.50047 0.86344 0.60194 0.0
C2179 C 0.50109 0.88171 0.60588 0.0
C2180 C 0.49217 0.85736 0.58641 0.0
C2181 C 0.48448 0.86944 0.5744 0.0
C2182 C 0.48476 0.88765 0.57855 0.0
C2183 C 0.49293 0.8937 0.59407 0.0
H2184 H 0.37531 0.21478 0.86753 0.0
H2185 H 0.37175 0.27113 0.85749 0.0
H2186 H 0.38743 0.21018 0.83796 0.0
H2187 H 0.38435 0.26668 0.82792 0.0
H2188 H 0.37883 0.24705 0.77011 0.0
H2189 H 0.37358 0.25449 0.80095 0.0
H2190 H 0.41115 0.21417 0.8172 0.0
H2191 H 0.41596 0.20625 0.78609 0.0
C2192 C 0.37755 0.22625 0.85915 0.0
C2193 C 0.37244 0.24331 0.86476 0.0
C2194 C 0.38457 0.22363 0.84218 0.0
C2195 C 0.38678 0.23804 0.83047 0.0
C2196 C 0.3825 0.25523 0.83646 0.0
C2197 C 0.37532 0.25781 0.85338 0.0
C2198 C 0.38617 0.2399 0.78021 0.0
C2199 C 0.39765 0.22591 0.77564 0.0
C2200 C 0.38326 0.24428 0.79797 0.0
C2201 C 0.39185 0.23487 0.81163 0.0
C2202 C 0.40409 0.22149 0.80702 0.0
C2203 C 0.40694 0.21703 0.78919 0.0
H2204 H 0.05086 0.14234 0.02956 0.0
H2205 H 0.01257 0.10286 0.01307 0.0
H2206 H 0.04305 0.13693 0.06051 0.0
H2207 H 0.00512 0.09712 0.044 0.0
H2208 H 0.98753 0.09808 0.10133 0.0
H2209 H 0.99194 0.10892 0.07104 0.0
H2210 H 0.04842 0.11244 0.08067 0.0
H2211 H 0.04399 0.10179 0.11078 0.0
C2212 C 0.0407 0.13259 0.03254 0.0
C2213 C 0.03246 0.12288 0.01891 0.0
C2214 C 0.03629 0.12944 0.05026 0.0
C2215 C 0.0236 0.11649 0.05469 0.0
C2216 C 0.01482 0.10732 0.04101 0.0
C2217 C 0.01919 0.11052 0.02328 0.0
C2218 C 0.00085 0.10124 0.09694 0.0
C2219 C 0.01542 0.09904 0.1084 0.0
C2220 C 0.00338 0.10745 0.07964 0.0
C2221 C 0.02052 0.11153 0.07348 0.0
C2222 C 0.035 0.10974 0.08511 0.0
C2223 C 0.03247 0.1036 0.10238 0.0
H2224 H 0.24304 0.14415 0.23633 0.0
H2225 H 0.22231 0.10696 0.19782 0.0
H2226 H 0.21281 0.15167 0.24528 0.0
H2227 H 0.19217 0.11474 0.20651 0.0
H2228 H 0.14118 0.12008 0.23839 0.0
H2229 H 0.17163 0.11182 0.23123 0.0
H2230 H 0.187 0.16712 0.23299 0.0
H2231 H 0.15653 0.17535 0.24021 0.0
C2232 C 0.23204 0.13755 0.22981 0.0
C2233 C 0.23506 0.12495 0.21638 0.0
C2234 C 0.21474 0.14195 0.23485 0.0
C2235 C 0.20011 0.13383 0.22658 0.0
C2236 C 0.20316 0.12106 0.21331 0.0
C2237 C 0.22044 0.11666 0.20828 0.0
C2238 C 0.15104 0.13047 0.23714 0.0
C2239 C 0.14643 0.14837 0.23982 0.0
C2240 C 0.16848 0.12575 0.23305 0.0
C2241 C 0.18171 0.13882 0.23151 0.0
C2242 C 0.17715 0.15671 0.23435 0.0
C2243 C 0.15969 0.16143 0.23847 0.0
H2244 H 0.10361 0.91529 0.52665 0.0
H2245 H 0.13578 0.89456 0.48382 0.0
H2246 H 0.11735 0.94419 0.52286 0.0
H2247 H 0.14825 0.92365 0.479 0.0
H2248 H 0.17123 0.97665 0.47209 0.0
H2249 H 0.16546 0.94802 0.4862 0.0
H2250 H 0.11356 0.96677 0.50234 0.0
H2251 H 0.11984 0.99544 0.48929 0.0
C2252 C 0.11369 0.91675 0.51652 0.0
C2253 C 0.11812 0.90259 0.50517 0.0
C2254 C 0.12146 0.93347 0.51421 0.0
C2255 C 0.13361 0.93649 0.50031 0.0
C2256 C 0.139 0.92198 0.48988 0.0
C2257 C 0.13151 0.90524 0.49242 0.0
C2258 C 0.15878 0.97469 0.47902 0.0
C2259 C 0.1459 0.98817 0.47939 0.0
C2260 C 0.15539 0.95826 0.48702 0.0
C2261 C 0.13889 0.95487 0.49519 0.0
C2262 C 0.12651 0.96882 0.49643 0.0
C2263 C 0.13004 0.9853 0.48877 0.0
H2264 H 0.36678 0.86068 0.73384 0.0
H2265 H 0.34058 0.8759 0.78256 0.0
H2266 H 0.34137 0.87201 0.71679 0.0
H2267 H 0.31557 0.88733 0.76564 0.0
H2268 H 0.2659 0.87871 0.73135 0.0
H2269 H 0.29287 0.87037 0.74695 0.0
H2270 H 0.32391 0.90229 0.71077 0.0
H2271 H 0.29659 0.91086 0.69498 0.0
C2272 C 0.35568 0.8665 0.74087 0.0
C2273 C 0.35565 0.86735 0.75954 0.0
C2274 C 0.34127 0.87314 0.73113 0.0
C2275 C 0.32656 0.88048 0.73995 0.0
C2276 C 0.32673 0.88165 0.75854 0.0
C2277 C 0.34111 0.87521 0.76821 0.0
C2278 C 0.27843 0.88403 0.7267 0.0
C2279 C 0.27915 0.89548 0.71198 0.0
C2280 C 0.29386 0.8793 0.73569 0.0
C2281 C 0.31041 0.88575 0.73009 0.0
C2282 C 0.31126 0.89713 0.71529 0.0
C2283 C 0.29568 0.90211 0.70637 0.0
H2284 H 0.40499 0.10439 0.95645 0.0
H2285 H 0.40105 0.09045 0.01191 0.0
H2286 H 0.39465 0.07497 0.94818 0.0
H2287 H 0.39014 0.06087 0.0037 0.0
H2288 H 0.38589 0.00408 0.98032 0.0
H2289 H 0.39779 0.03274 0.98992 0.0
H2290 H 0.36749 0.05898 0.94876 0.0
H2291 H 0.35617 0.03051 0.93887 0.0
C2292 C 0.40172 0.09503 0.96688 0.0
C2293 C 0.40354 0.09975 0.98482 0.0
C2294 C 0.39576 0.07816 0.96216 0.0
C2295 C 0.39126 0.06563 0.97527 0.0
C2296 C 0.39358 0.07017 0.99326 0.0
C2297 C 0.39976 0.08708 0.99799 0.0
C2298 C 0.38178 0.016 0.97337 0.0
C2299 C 0.37021 0.01501 0.95875 0.0
C2300 C 0.38853 0.03242 0.97892 0.0
C2301 C 0.38375 0.04815 0.97 0.0
C2302 C 0.37182 0.04711 0.95567 0.0
C2303 C 0.36522 0.03076 0.95006 0.0
H2304 H 0.21548 0.86818 0.2756 0.0
H2305 H 0.20449 0.92267 0.29006 0.0
H2306 H 0.1841 0.86346 0.26948 0.0
H2307 H 0.17288 0.91788 0.28352 0.0
H2308 H 0.12232 0.89959 0.24764 0.0
H2309 H 0.15276 0.90816 0.25489 0.0
H2310 H 0.15646 0.86423 0.29152 0.0
H2311 H 0.12591 0.856 0.28497 0.0
C2312 C 0.20642 0.87925 0.27723 0.0
C2313 C 0.21249 0.8958 0.28337 0.0
C2314 C 0.18843 0.87648 0.27383 0.0
C2315 C 0.17611 0.89025 0.27623 0.0
C2316 C 0.18217 0.90706 0.28161 0.0
C2317 C 0.20022 0.90978 0.28533 0.0
C2318 C 0.12939 0.89198 0.25757 0.0
C2319 C 0.12164 0.87685 0.26547 0.0
C2320 C 0.14687 0.89689 0.26165 0.0
C2321 C 0.15697 0.88666 0.27352 0.0
C2322 C 0.14901 0.87214 0.28207 0.0
C2323 C 0.13151 0.86739 0.27823 0.0
H2324 H 0.3894 0.98605 0.51916 0.0
H2325 H 0.34322 0.96611 0.54685 0.0
H2326 H 0.39677 0.95602 0.50974 0.0
H2327 H 0.35074 0.93594 0.5375 0.0
H2328 H 0.36091 0.88723 0.50212 0.0
H2329 H 0.35278 0.91737 0.51044 0.0
H2330 H 0.40742 0.92839 0.52393 0.0
H2331 H 0.41559 0.8981 0.51577 0.0
C2332 C 0.38075 0.97527 0.52316 0.0
C2333 C 0.36572 0.97847 0.53378 0.0
C2334 C 0.38507 0.95804 0.51786 0.0
C2335 C 0.37443 0.9436 0.52299 0.0
C2336 C 0.35914 0.94682 0.53324 0.0
C2337 C 0.35484 0.96409 0.53862 0.0
C2338 C 0.3712 0.89597 0.50703 0.0
C2339 C 0.38892 0.89016 0.50835 0.0
C2340 C 0.36651 0.91327 0.51177 0.0
C2341 C 0.37944 0.92524 0.51786 0.0
C2342 C 0.39719 0.91953 0.51905 0.0
C2343 C 0.40188 0.90218 0.51437 0.0
H2344 H 0.28085 0.11076 0.80188 0.0
H2345 H 0.25971 0.16409 0.80006 0.0
H2346 H 0.3095 0.12177 0.79187 0.0
H2347 H 0.28863 0.17532 0.79079 0.0
H2348 H 0.33533 0.18357 0.75138 0.0
H2349 H 0.30721 0.17561 0.76553 0.0
H2350 H 0.33495 0.1381 0.79917 0.0
H2351 H 0.36274 0.14559 0.78432 0.0
C2352 C 0.28243 0.1249 0.79964 0.0
C2353 C 0.26802 0.13654 0.80163 0.0
C2354 C 0.29892 0.13127 0.79401 0.0
C2355 C 0.30145 0.14949 0.7905 0.0
C2356 C 0.28711 0.16119 0.79306 0.0
C2357 C 0.27055 0.15476 0.79846 0.0
C2358 C 0.33534 0.17389 0.76203 0.0
C2359 C 0.35105 0.16504 0.76669 0.0
C2360 C 0.31927 0.16931 0.77019 0.0
C2361 C 0.31872 0.15597 0.78335 0.0
C2362 C 0.33475 0.14803 0.78875 0.0
C2363 C 0.35069 0.15239 0.78038 0.0
H2364 H 0.10796 0.99362 0.0397 0.0
H2365 H 0.15005 0.02407 0.06409 0.0
H2366 H 0.09639 0.02061 0.02598 0.0
H2367 H 0.13832 0.05109 0.05051 0.0
H2368 H 0.12775 0.08753 0.00194 0.0
H2369 H 0.13717 0.06257 0.02021 0.0
H2370 H 0.08231 0.04984 0.03117 0.0
H2371 H 0.07288 0.07481 0.01245 0.0
C2372 C 0.11464 0.00609 0.04231 0.0
C2373 C 0.13007 0.0066 0.05285 0.0
C2374 C 0.10792 0.02161 0.03453 0.0
C2375 C 0.11648 0.03802 0.03704 0.0
C2376 C 0.13154 0.03863 0.04809 0.0
C2377 C 0.13823 0.02313 0.05593 0.0
C2378 C 0.11769 0.07946 0.0083 0.0
C2379 C 0.09956 0.08305 0.00559 0.0
C2380 C 0.12309 0.06524 0.01895 0.0
C2381 C 0.11051 0.05413 0.02714 0.0
C2382 C 0.09235 0.05804 0.02491 0.0
C2383 C 0.08693 0.07242 0.01433 0.0
H2384 H 0.23268 0.16101 0.17413 0.0
H2385 H 0.25539 0.15781 0.12164 0.0
H2386 H 0.21188 0.18387 0.16368 0.0
H2387 H 0.23459 0.18045 0.11113 0.0
H2388 H 0.18676 0.21433 0.09546 0.0
H2389 H 0.20113 0.18727 0.10667 0.0
H2390 H 0.21868 0.21588 0.15314 0.0
H2391 H 0.20464 0.24284 0.1419 0.0
C2392 C 0.23293 0.16492 0.16028 0.0
C2393 C 0.24571 0.15779 0.1487 0.0
C2394 C 0.22113 0.17803 0.15433 0.0
C2395 C 0.22167 0.18395 0.1366 0.0
C2396 C 0.23378 0.17606 0.12481 0.0
C2397 C 0.24577 0.16322 0.13084 0.0
C2398 C 0.19347 0.21473 0.10818 0.0
C2399 C 0.19473 0.23073 0.11773 0.0
C2400 C 0.20171 0.19929 0.11456 0.0
C2401 C 0.21101 0.1995 0.13077 0.0
C2402 C 0.21147 0.21528 0.1407 0.0
C2403 C 0.20355 0.23075 0.13418 0.0
H2404 H 0.69617 0.29715 0.91776 0.0
H2405 H 0.72653 0.27467 0.87455 0.0
H2406 H 0.70731 0.32676 0.91003 0.0
H2407 H 0.73769 0.30401 0.86703 0.0
H2408 H 0.73736 0.35934 0.84455 0.0
H2409 H 0.72512 0.3311 0.85413 0.0
H2410 H 0.73502 0.34512 0.90885 0.0
H2411 H 0.74687 0.37386 0.89924 0.0
C2412 C 0.70535 0.29848 0.90676 0.0
C2413 C 0.71037 0.28355 0.89671 0.0
C2414 C 0.71174 0.31543 0.90236 0.0
C2415 C 0.72319 0.31777 0.88777 0.0
C2416 C 0.72859 0.30273 0.87811 0.0
C2417 C 0.72228 0.28587 0.88252 0.0
C2418 C 0.73663 0.35666 0.85865 0.0
C2419 C 0.74313 0.36896 0.87112 0.0
C2420 C 0.72982 0.3403 0.86414 0.0
C2421 C 0.72931 0.33575 0.88224 0.0
C2422 C 0.73522 0.34824 0.8948 0.0
C2423 C 0.74212 0.36464 0.88929 0.0
H2424 H 0.95717 0.44048 0.15741 0.0
H2425 H 0.97876 0.46524 0.11028 0.0
H2426 H 0.92776 0.45255 0.15009 0.0
H2427 H 0.94967 0.47719 0.10312 0.0
H2428 H 0.8935 0.47817 0.08394 0.0
H2429 H 0.92083 0.46415 0.0935 0.0
H2430 H 0.91208 0.48295 0.14695 0.0
H2431 H 0.88413 0.49678 0.13743 0.0
C2432 C 0.95566 0.44848 0.14554 0.0
C2433 C 0.97027 0.45182 0.13437 0.0
C2434 C 0.93887 0.45545 0.14141 0.0
C2435 C 0.93642 0.46566 0.12596 0.0
C2436 C 0.95109 0.46912 0.11497 0.0
C2437 C 0.9678 0.46233 0.11914 0.0
C2438 C 0.89705 0.47904 0.09783 0.0
C2439 C 0.88652 0.48862 0.10993 0.0
C2440 C 0.9129 0.47115 0.10326 0.0
C2441 C 0.91868 0.47262 0.12092 0.0
C2442 C 0.9079 0.48159 0.13325 0.0
C2443 C 0.892 0.4896 0.12778 0.0
H2444 H 0.78002 0.62406 0.35853 0.0
H2445 H 0.73054 0.6397 0.38291 0.0
H2446 H 0.79285 0.65303 0.36609 0.0
H2447 H 0.74333 0.66853 0.39046 0.0
H2448 H 0.76439 0.72384 0.37107 0.0
H2449 H 0.75283 0.69366 0.36907 0.0
H2450 H 0.80068 0.67349 0.39342 0.0
H2451 H 0.81226 0.70392 0.39569 0.0
C2452 C 0.77201 0.63359 0.36573 0.0
C2453 C 0.75429 0.62965 0.37009 0.0
C2454 C 0.77936 0.65008 0.37015 0.0
C2455 C 0.76903 0.66299 0.37878 0.0
C2456 C 0.75154 0.65881 0.38373 0.0
C2457 C 0.74428 0.64226 0.37954 0.0
C2458 C 0.7724 0.713 0.37613 0.0
C2459 C 0.78923 0.71621 0.38351 0.0
C2460 C 0.76573 0.69575 0.37509 0.0
C2461 C 0.77585 0.68129 0.38114 0.0
C2462 C 0.79265 0.68444 0.38865 0.0
C2463 C 0.79921 0.70181 0.39001 0.0
H2464 H 0.03888 0.02949 0.12113 0.0
H2465 H 0.04608 0.03174 0.17804 0.0
H2466 H 0.06966 0.02055 0.11748 0.0
H2467 H 0.07721 0.02233 0.17428 0.0
H2468 H 0.12126 0.97987 0.15148 0.0
H2469 H 0.09285 0.99262 0.16066 0.0
H2470 H 0.10039 0.036 0.12394 0.0
H2471 H 0.12899 0.0237 0.11513 0.0
C2472 C 0.04702 0.02799 0.1329 0.0
C2473 C 0.04004 0.03126 0.14989 0.0
C2474 C 0.0647 0.02301 0.13077 0.0
C2475 C 0.0758 0.02091 0.14559 0.0
C2476 C 0.06887 0.02392 0.16266 0.0
C2477 C 0.05114 0.0293 0.16479 0.0
C2478 C 0.11717 0.9924 0.14573 0.0
C2479 C 0.1273 0.00055 0.13226 0.0
C2480 C 0.10087 0.99967 0.151 0.0
C2481 C 0.09439 0.01513 0.14282 0.0
C2482 C 0.10502 0.02392 0.13027 0.0
C2483 C 0.12134 0.01679 0.12515 0.0
H2484 H 0.24657 0.76596 0.61674 0.0
H2485 H 0.29531 0.78677 0.59469 0.0
H2486 H 0.23632 0.79615 0.62249 0.0
H2487 H 0.28543 0.8168 0.60103 0.0
H2488 H 0.26289 0.87059 0.60993 0.0
H2489 H 0.26587 0.84122 0.59646 0.0
H2490 H 0.24481 0.81736 0.64431 0.0
H2491 H 0.24151 0.84663 0.65744 0.0
C2492 C 0.25498 0.77699 0.61289 0.0
C2493 C 0.27185 0.774 0.60552 0.0
C2494 C 0.24916 0.79428 0.61628 0.0
C2495 C 0.26017 0.8089 0.61254 0.0
C2496 C 0.27651 0.8059 0.60398 0.0
C2497 C 0.28225 0.78863 0.60042 0.0
C2498 C 0.25872 0.85903 0.61742 0.0
C2499 C 0.2521 0.86086 0.63476 0.0
C2500 C 0.26043 0.84222 0.60974 0.0
C2501 C 0.25571 0.82689 0.61933 0.0
C2502 C 0.24831 0.82886 0.63638 0.0
C2503 C 0.24646 0.84566 0.64398 0.0
H2504 H 0.91124 0.54801 0.41892 0.0
H2505 H 0.92022 0.49225 0.40897 0.0
H2506 H 0.93984 0.55511 0.40573 0.0
H2507 H 0.94906 0.49938 0.39557 0.0
H2508 H 0.00648 0.52048 0.38519 0.0
H2509 H 0.97943 0.5119 0.40114 0.0
H2510 H 0.95089 0.55447 0.37527 0.0
H2511 H 0.97768 0.56315 0.35964 0.0
C2512 C 0.91935 0.53726 0.41388 0.0
C2513 C 0.91335 0.5196 0.4147 0.0
C2514 C 0.93574 0.54133 0.40632 0.0
C2515 C 0.94658 0.52784 0.39932 0.0
C2516 C 0.94102 0.51006 0.4009 0.0
C2517 C 0.92454 0.50597 0.40855 0.0
C2518 C 0.99441 0.52799 0.38294 0.0
C2519 C 0.99427 0.54254 0.37118 0.0
C2520 C 0.97892 0.52303 0.39201 0.0
C2521 C 0.96307 0.53261 0.38959 0.0
C2522 C 0.96295 0.54701 0.37769 0.0
C2523 C 0.97833 0.55191 0.36862 0.0
H2524 H 0.51422 0.45034 0.88975 0.0
H2525 H 0.52725 0.46144 0.83506 0.0
H2526 H 0.54144 0.4647 0.89937 0.0
H2527 H 0.55404 0.47712 0.84461 0.0
H2528 H 0.60761 0.49401 0.86631 0.0
H2529 H 0.58243 0.47609 0.8565 0.0
H2530 H 0.55303 0.49262 0.90309 0.0
H2531 H 0.57869 0.50947 0.9132 0.0
C2532 C 0.52295 0.45603 0.8798 0.0
C2533 C 0.5187 0.45498 0.86171 0.0
C2534 C 0.53849 0.46442 0.8853 0.0
C2535 C 0.54988 0.47245 0.87284 0.0
C2536 C 0.54575 0.47096 0.85462 0.0
C2537 C 0.53038 0.46208 0.8491 0.0
C2538 C 0.59572 0.49365 0.87439 0.0
C2539 C 0.595 0.50299 0.89049 0.0
C2540 C 0.58125 0.48349 0.86876 0.0
C2541 C 0.56559 0.48281 0.87896 0.0
C2542 C 0.56495 0.49237 0.89505 0.0
C2543 C 0.57958 0.50215 0.90085 0.0
H2544 H 0.64117 0.72911 0.72651 0.0
H2545 H 0.58959 0.70965 0.71063 0.0
H2546 H 0.64612 0.74063 0.69695 0.0
H2547 H 0.59415 0.72205 0.68094 0.0
H2548 H 0.62143 0.72229 0.62586 0.0
H2549 H 0.61102 0.71582 0.65552 0.0
H2550 H 0.63911 0.76179 0.67537 0.0
H2551 H 0.65079 0.76742 0.64593 0.0
C2552 C 0.63072 0.72758 0.71674 0.0
C2553 C 0.61505 0.71835 0.72082 0.0
C2554 C 0.63348 0.73439 0.69977 0.0
C2555 C 0.62051 0.73238 0.68648 0.0
C2556 C 0.60453 0.72363 0.69076 0.0
C2557 C 0.60188 0.71656 0.70775 0.0
C2558 C 0.62552 0.73101 0.63651 0.0
C2559 C 0.63756 0.745 0.63346 0.0
C2560 C 0.61923 0.72746 0.65356 0.0
C2561 C 0.62451 0.73805 0.66798 0.0
C2562 C 0.63521 0.75302 0.66467 0.0
C2563 C 0.64177 0.75639 0.64765 0.0
H2564 H 0.5494 0.34373 0.97092 0.0
H2565 H 0.52311 0.39133 0.98941 0.0
H2566 H 0.53953 0.35027 0.94057 0.0
H2567 H 0.51343 0.39781 0.95924 0.0
H2568 H 0.51605 0.41313 0.90048 0.0
H2569 H 0.52778 0.40613 0.92981 0.0
H2570 H 0.50956 0.35204 0.92445 0.0
H2571 H 0.49734 0.359 0.89539 0.0
C2572 C 0.54154 0.35556 0.96851 0.0
C2573 C 0.53697 0.36698 0.98254 0.0
C2574 C 0.53588 0.35926 0.95118 0.0
C2575 C 0.52581 0.37459 0.94759 0.0
C2576 C 0.52136 0.38602 0.96161 0.0
C2577 C 0.52679 0.38221 0.9789 0.0
C2578 C 0.51437 0.39977 0.90553 0.0
C2579 C 0.50556 0.3867 0.89549 0.0
C2580 C 0.52118 0.39576 0.92232 0.0
C2581 C 0.51954 0.37856 0.92938 0.0
C2582 C 0.51118 0.36536 0.91923 0.0
C2583 C 0.50419 0.3694 0.90253 0.0
H2584 H 0.84785 0.2792 0.24757 0.0
H2585 H 0.89385 0.30421 0.22403 0.0
H2586 H 0.84043 0.26595 0.219 0.0
H2587 H 0.8862 0.29125 0.19535 0.0
H2588 H 0.88075 0.24475 0.15582 0.0
H2589 H 0.88667 0.2619 0.1825 0.0
H2590 H 0.83047 0.27172 0.1887 0.0
H2591 H 0.8245 0.25392 0.16218 0.0
C2592 C 0.85629 0.28201 0.23626 0.0
C2593 C 0.87156 0.2926 0.23815 0.0
C2594 C 0.85194 0.27453 0.21983 0.0
C2595 C 0.86275 0.27746 0.20487 0.0
C2596 C 0.87774 0.28849 0.20666 0.0
C2597 C 0.88209 0.29596 0.2231 0.0
C2598 C 0.86964 0.25056 0.16285 0.0
C2599 C 0.85214 0.24776 0.15697 0.0
C2600 C 0.87305 0.26059 0.17806 0.0
C2601 C 0.85904 0.26815 0.18782 0.0
C2602 C 0.84155 0.26589 0.18161 0.0
C2603 C 0.83813 0.25586 0.16631 0.0
H2604 H 0.95409 0.66212 0.46225 0.0
H2605 H 0.96818 0.6092 0.47909 0.0
H2606 H 0.9662 0.65609 0.4328 0.0
H2607 H 0.97901 0.6025 0.44944 0.0
H2608 H 0.01541 0.60014 0.40239 0.0
H2609 H 0.00243 0.60703 0.43112 0.0
H2610 H 0.96518 0.64264 0.40549 0.0
H2611 H 0.97933 0.63646 0.37688 0.0
C2612 C 0.9594 0.64903 0.45947 0.0
C2613 C 0.96033 0.63617 0.47296 0.0
C2614 C 0.96632 0.64549 0.44253 0.0
C2615 C 0.97396 0.62883 0.43856 0.0
C2616 C 0.97392 0.61571 0.45196 0.0
C2617 C 0.96747 0.61943 0.46897 0.0
C2618 C 0.0045 0.6095 0.40302 0.0
C2619 C 0.99835 0.61777 0.3875 0.0
C2620 C 0.99684 0.61335 0.41948 0.0
C2621 C 0.98242 0.62524 0.42086 0.0
C2622 C 0.97636 0.63361 0.40519 0.0
C2623 C 0.98438 0.63006 0.38873 0.0
H2624 H 0.64496 0.29763 0.85894 0.0
H2625 H 0.64997 0.24242 0.84438 0.0
H2626 H 0.63909 0.3054 0.82814 0.0
H2627 H 0.64362 0.25006 0.81342 0.0
H2628 H 0.64675 0.27246 0.7569 0.0
H2629 H 0.65461 0.26472 0.78738 0.0
H2630 H 0.61616 0.30271 0.80678 0.0
H2631 H 0.60879 0.31084 0.77643 0.0
C2632 C 0.64464 0.28712 0.84914 0.0
C2633 C 0.64774 0.26938 0.85409 0.0
C2634 C 0.64123 0.29156 0.83146 0.0
C2635 C 0.64065 0.27835 0.81827 0.0
C2636 C 0.64412 0.26062 0.82317 0.0
C2637 C 0.64771 0.2562 0.84089 0.0
C2638 C 0.64001 0.27919 0.76769 0.0
C2639 C 0.62717 0.2923 0.76421 0.0
C2640 C 0.64444 0.27467 0.78518 0.0
C2641 C 0.63606 0.2831 0.79959 0.0
C2642 C 0.62315 0.29616 0.79606 0.0
C2643 C 0.61882 0.30076 0.77861 0.0
H2644 H 0.98068 0.36443 0.00789 0.0
H2645 H 0.9402 0.33299 0.03375 0.0
H2646 H 0.99107 0.37482 0.03665 0.0
H2647 H 0.95036 0.34374 0.06262 0.0
H2648 H 0.98541 0.35311 0.11171 0.0
H2649 H 0.97471 0.34206 0.08332 0.0
H2650 H 0.98183 0.39421 0.06035 0.0
H2651 H 0.99333 0.40507 0.08856 0.0
C2652 C 0.97401 0.35969 0.01973 0.0
C2653 C 0.95961 0.34787 0.01851 0.0
C2654 C 0.97987 0.36579 0.03624 0.0
C2655 C 0.97144 0.36029 0.05197 0.0
C2656 C 0.95725 0.34816 0.05078 0.0
C2657 C 0.95141 0.342 0.03423 0.0
C2658 C 0.98483 0.36222 0.1006 0.0
C2659 C 0.99043 0.37997 0.10244 0.0
C2660 C 0.97847 0.35591 0.08434 0.0
C2661 C 0.9775 0.36719 0.06949 0.0
C2662 C 0.98268 0.38506 0.07143 0.0
C2663 C 0.98907 0.39137 0.0877 0.0
H2664 H 0.90408 0.69447 0.26653 0.0
H2665 H 0.85838 0.72128 0.24438 0.0
H2666 H 0.89688 0.70635 0.29574 0.0
H2667 H 0.85079 0.73263 0.27369 0.0
H2668 H 0.8501 0.7617 0.32695 0.0
H2669 H 0.85918 0.75253 0.29712 0.0
H2670 H 0.87488 0.70129 0.31791 0.0
H2671 H 0.86621 0.71063 0.34752 0.0
C2672 C 0.89249 0.7029 0.26791 0.0
C2673 C 0.88174 0.70687 0.25321 0.0
C2674 C 0.8883 0.70963 0.28466 0.0
C2675 C 0.87315 0.7203 0.28709 0.0
C2676 C 0.86266 0.72463 0.27226 0.0
C2677 C 0.86696 0.71804 0.25547 0.0
C2678 C 0.85548 0.74849 0.32504 0.0
C2679 C 0.8576 0.73694 0.33953 0.0
C2680 C 0.86065 0.74322 0.308 0.0
C2681 C 0.8679 0.72622 0.30515 0.0
C2682 C 0.86979 0.71463 0.31968 0.0
C2683 C 0.86477 0.71996 0.33666 0.0
H2684 H 0.56344 0.64378 0.52824 0.0
H2685 H 0.51688 0.61671 0.50843 0.0
H2686 H 0.55453 0.63673 0.55864 0.0
H2687 H 0.50774 0.61014 0.53869 0.0
H2688 H 0.50558 0.58456 0.59269 0.0
H2689 H 0.5161 0.59155 0.56306 0.0
H2690 H 0.53261 0.6435 0.581 0.0
H2691 H 0.52294 0.63616 0.61097 0.0
C2692 C 0.55122 0.63648 0.53038 0.0
C2693 C 0.5409 0.63074 0.51593 0.0
C2694 C 0.54608 0.63249 0.5478 0.0
C2695 C 0.53048 0.62275 0.55112 0.0
C2696 C 0.52003 0.61733 0.53663 0.0
C2697 C 0.52521 0.62122 0.51926 0.0
C2698 C 0.51169 0.59737 0.59049 0.0
C2699 C 0.51331 0.6098 0.60434 0.0
C2700 C 0.51753 0.60148 0.57336 0.0
C2701 C 0.52504 0.61816 0.56957 0.0
C2702 C 0.52698 0.63048 0.58346 0.0
C2703 C 0.52122 0.62634 0.60063 0.0
H2704 H 0.65814 0.67246 0.72213 0.0
H2705 H 0.65409 0.62121 0.74797 0.0
H2706 H 0.68558 0.6628 0.70782 0.0
H2707 H 0.68102 0.61164 0.73333 0.0
H2708 H 0.72106 0.59487 0.69058 0.0
H2709 H 0.69258 0.60492 0.70265 0.0
H2710 H 0.71658 0.65472 0.71795 0.0
H2711 H 0.74494 0.64475 0.70597 0.0
C2712 C 0.66298 0.6592 0.72483 0.0
C2713 C 0.65368 0.6477 0.73629 0.0
C2714 C 0.6787 0.65365 0.71655 0.0
C2715 C 0.68538 0.63643 0.71938 0.0
C2716 C 0.67604 0.62489 0.73064 0.0
C2717 C 0.66049 0.63046 0.73905 0.0
C2718 C 0.72022 0.60797 0.69649 0.0
C2719 C 0.73527 0.61895 0.69743 0.0
C2720 C 0.70395 0.6137 0.70342 0.0
C2721 C 0.70236 0.63062 0.71122 0.0
C2722 C 0.71734 0.6417 0.71186 0.0
C2723 C 0.73363 0.6359 0.70513 0.0
H2724 H 0.60763 0.49756 0.97989 0.0
H2725 H 0.64459 0.47244 0.94385 0.0
H2726 H 0.5998 0.46877 0.99209 0.0
H2727 H 0.63646 0.44334 0.95599 0.0
H2728 H 0.63121 0.39842 0.99853 0.0
H2729 H 0.63931 0.42615 0.98384 0.0
H2730 H 0.58415 0.44193 0.98331 0.0
H2731 H 0.57614 0.41465 0.99862 0.0
C2732 C 0.61405 0.48587 0.9745 0.0
C2733 C 0.62672 0.48728 0.96088 0.0
C2734 C 0.60944 0.46933 0.98142 0.0
C2735 C 0.61737 0.45376 0.97489 0.0
C2736 C 0.63018 0.45513 0.96134 0.0
C2737 C 0.6348 0.47176 0.95437 0.0
C2738 C 0.62082 0.40783 0.99534 0.0
C2739 C 0.60304 0.40436 0.99996 0.0
C2740 C 0.62544 0.42362 0.98672 0.0
C2741 C 0.61239 0.43629 0.98254 0.0
C2742 C 0.59455 0.43255 0.9866 0.0
C2743 C 0.58993 0.41679 0.99521 0.0
H2744 H 0.85595 0.33942 0.23109 0.0
H2745 H 0.84595 0.38721 0.26125 0.0
H2746 H 0.83259 0.34764 0.21031 0.0
H2747 H 0.82225 0.39525 0.24056 0.0
H2748 H 0.78256 0.40669 0.19621 0.0
H2749 H 0.81251 0.40228 0.2084 0.0
H2750 H 0.80004 0.3472 0.21874 0.0
H2751 H 0.77036 0.3516 0.20684 0.0
C2752 C 0.84917 0.35196 0.23299 0.0
C2753 C 0.85258 0.36255 0.24798 0.0
C2754 C 0.83572 0.35659 0.22113 0.0
C2755 C 0.8255 0.37193 0.224 0.0
C2756 C 0.82997 0.38337 0.23803 0.0
C2757 C 0.84339 0.37868 0.24996 0.0
C2758 C 0.7864 0.39361 0.20086 0.0
C2759 C 0.77417 0.37951 0.2008 0.0
C2760 C 0.80346 0.39111 0.20782 0.0
C2761 C 0.80857 0.3744 0.2144 0.0
C2762 C 0.79655 0.36016 0.21352 0.0
C2763 C 0.77949 0.36273 0.20689 0.0
H2764 H 0.88855 0.62065 0.4737 0.0
H2765 H 0.86789 0.61569 0.52695 0.0
H2766 H 0.87681 0.5912 0.46648 0.0
H2767 H 0.85605 0.58637 0.51975 0.0
H2768 H 0.86758 0.52633 0.50509 0.0
H2769 H 0.87187 0.55743 0.5131 0.0
H2770 H 0.848 0.57368 0.46353 0.0
H2771 H 0.84359 0.54259 0.45549 0.0
C2772 C 0.88125 0.61336 0.48373 0.0
C2773 C 0.87908 0.62045 0.50082 0.0
C2774 C 0.87442 0.59661 0.47959 0.0
C2775 C 0.86552 0.58654 0.49258 0.0
C2776 C 0.86289 0.59385 0.50952 0.0
C2777 C 0.86953 0.61069 0.51358 0.0
C2778 C 0.8629 0.53653 0.49606 0.0
C2779 C 0.85543 0.532 0.47959 0.0
C2780 C 0.8653 0.55433 0.50068 0.0
C2781 C 0.86042 0.56793 0.48884 0.0
C2782 C 0.85206 0.56343 0.47279 0.0
C2783 C 0.84945 0.54563 0.46827 0.0
H2784 H 0.64236 0.35744 0.77418 0.0
H2785 H 0.66521 0.37674 0.72524 0.0
H2786 H 0.66997 0.36472 0.78988 0.0
H2787 H 0.69258 0.3841 0.74085 0.0
H2788 H 0.74497 0.37292 0.76956 0.0
H2789 H 0.71669 0.36588 0.75553 0.0
H2790 H 0.68879 0.39207 0.79822 0.0
H2791 H 0.7172 0.39926 0.81235 0.0
C2792 C 0.65323 0.36332 0.76682 0.0
C2793 C 0.65158 0.36655 0.74849 0.0
C2794 C 0.66896 0.36757 0.77581 0.0
C2795 C 0.68345 0.37488 0.76656 0.0
C2796 C 0.6817 0.37833 0.74829 0.0
C2797 C 0.66594 0.37429 0.73939 0.0
C2798 C 0.73284 0.37711 0.77605 0.0
C2799 C 0.73337 0.38673 0.79205 0.0
C2800 C 0.71663 0.37316 0.76794 0.0
C2801 C 0.70054 0.37855 0.7757 0.0
C2802 C 0.70099 0.38772 0.79196 0.0
C2803 C 0.71726 0.39188 0.8 0.0
H2804 H 0.87839 0.37685 0.02722 0.0
H2805 H 0.91111 0.39983 0.98626 0.0
H2806 H 0.87219 0.40632 0.03903 0.0
H2807 H 0.90425 0.42957 0.99733 0.0
H2808 H 0.89857 0.48072 0.02852 0.0
H2809 H 0.90771 0.45097 0.01956 0.0
H2810 H 0.8553 0.4312 0.03245 0.0
H2811 H 0.84662 0.46068 0.04227 0.0
C2812 C 0.88417 0.38831 0.02072 0.0
C2813 C 0.89512 0.38616 0.0058 0.0
C2814 C 0.88054 0.40523 0.02738 0.0
C2815 C 0.88747 0.42047 0.01902 0.0
C2816 C 0.89883 0.41821 0.0043 0.0
C2817 C 0.90274 0.4012 0.99787 0.0
C2818 C 0.88906 0.46995 0.0295 0.0
C2819 C 0.87188 0.47301 0.03609 0.0
C2820 C 0.89426 0.4529 0.02426 0.0
C2821 C 0.88228 0.43856 0.02522 0.0
C2822 C 0.86507 0.44174 0.03185 0.0
C2823 C 0.86001 0.4587 0.03738 0.0
H2824 H 0.7793 0.58993 0.29509 0.0
H2825 H 0.75543 0.64064 0.28302 0.0
H2826 H 0.80657 0.59922 0.28057 0.0
H2827 H 0.78313 0.65065 0.26965 0.0
H2828 H 0.82757 0.65599 0.22866 0.0
H2829 H 0.80061 0.64837 0.24499 0.0
H2830 H 0.83182 0.61572 0.2807 0.0
H2831 H 0.85828 0.62239 0.26328 0.0
C2832 C 0.78008 0.60325 0.28966 0.0
C2833 C 0.76526 0.61453 0.29008 0.0
C2834 C 0.79579 0.6087 0.2814 0.0
C2835 C 0.79726 0.62577 0.27378 0.0
C2836 C 0.78252 0.63726 0.27488 0.0
C2837 C 0.76664 0.63161 0.28271 0.0
C2838 C 0.8285 0.64727 0.24008 0.0
C2839 C 0.84481 0.63964 0.24472 0.0
C2840 C 0.8131 0.64295 0.24957 0.0
C2841 C 0.81382 0.63125 0.26424 0.0
C2842 C 0.83047 0.62431 0.26924 0.0
C2843 C 0.84571 0.62824 0.25941 0.0
H2844 H 0.60164 0.50167 0.53393 0.0
H2845 H 0.65383 0.52278 0.54506 0.0
H2846 H 0.59344 0.52959 0.51951 0.0
H2847 H 0.64559 0.55067 0.53064 0.0
H2848 H 0.63149 0.58687 0.4833 0.0
H2849 H 0.63878 0.55982 0.49926 0.0
H2850 H 0.58846 0.56215 0.52659 0.0
H2851 H 0.58121 0.58963 0.51094 0.0
C2852 C 0.61134 0.51228 0.53336 0.0
C2853 C 0.62843 0.50997 0.54055 0.0
C2854 C 0.60659 0.52831 0.5252 0.0
C2855 C 0.61889 0.54228 0.52387 0.0
C2856 C 0.63589 0.54006 0.53129 0.0
C2857 C 0.64058 0.52412 0.53963 0.0
C2858 C 0.622 0.58186 0.49284 0.0
C2859 C 0.60576 0.59067 0.49583 0.0
C2860 C 0.62621 0.56627 0.50199 0.0
C2861 C 0.61426 0.55892 0.51426 0.0
C2862 C 0.5979 0.56746 0.51711 0.0
C2863 C 0.59373 0.58321 0.50807 0.0
H2864 H 0.76234 0.6449 0.59924 0.0
H2865 H 0.73953 0.65288 0.65135 0.0
H2866 H 0.74961 0.67294 0.58936 0.0
H2867 H 0.72714 0.68111 0.64147 0.0
H2868 H 0.72501 0.73893 0.62314 0.0
H2869 H 0.73838 0.71088 0.63207 0.0
H2870 H 0.71952 0.68642 0.58375 0.0
H2871 H 0.70608 0.71463 0.5747 0.0
C2872 C 0.75453 0.65251 0.60858 0.0
C2873 C 0.75199 0.64652 0.62614 0.0
C2874 C 0.74726 0.66862 0.60289 0.0
C2875 C 0.73741 0.67921 0.61463 0.0
C2876 C 0.73489 0.67332 0.63218 0.0
C2877 C 0.74204 0.65715 0.63785 0.0
C2878 C 0.72379 0.72763 0.61433 0.0
C2879 C 0.71444 0.729 0.59821 0.0
C2880 C 0.73135 0.71152 0.61953 0.0
C2881 C 0.72987 0.69643 0.60869 0.0
C2882 C 0.72094 0.69787 0.59233 0.0
C2883 C 0.71323 0.714 0.58717 0.0
H2884 H 0.22994 0.75267 0.35764 0.0
H2885 H 0.19112 0.776 0.39294 0.0
H2886 H 0.23725 0.78231 0.3463 0.0
H2887 H 0.19858 0.80533 0.38189 0.0
H2888 H 0.20071 0.8524 0.34508 0.0
H2889 H 0.19464 0.82217 0.35463 0.0
H2890 H 0.2509 0.811 0.35552 0.0
H2891 H 0.25701 0.84149 0.34587 0.0
C2892 C 0.22303 0.76408 0.36303 0.0
C2893 C 0.20989 0.76192 0.37614 0.0
C2894 C 0.22727 0.78105 0.3566 0.0
C2895 C 0.21839 0.79616 0.36308 0.0
C2896 C 0.20545 0.79396 0.37635 0.0
C2897 C 0.20125 0.7771 0.38278 0.0
C2898 C 0.21182 0.84358 0.34743 0.0
C2899 C 0.22937 0.84946 0.34497 0.0
C2900 C 0.20834 0.82621 0.35288 0.0
C2901 C 0.22229 0.81423 0.35607 0.0
C2902 C 0.23985 0.81988 0.35309 0.0
C2903 C 0.24335 0.83734 0.34758 0.0
H2904 H 0.4759 0.94452 0.64009 0.0
H2905 H 0.50079 0.97491 0.59815 0.0
H2906 H 0.44701 0.95541 0.63084 0.0
H2907 H 0.47166 0.98542 0.58851 0.0
H2908 H 0.418 0.01597 0.59103 0.0
H2909 H 0.4478 0.00485 0.59788 0.0
H2910 H 0.42592 0.95259 0.60744 0.0
H2911 H 0.39633 0.96386 0.60104 0.0
C2912 C 0.4752 0.9534 0.62877 0.0
C2913 C 0.49067 0.95887 0.61988 0.0
C2914 C 0.45859 0.95956 0.62338 0.0
C2915 C 0.45699 0.97123 0.60887 0.0
C2916 C 0.47245 0.97661 0.59987 0.0
C2917 C 0.48913 0.9705 0.60533 0.0
C2918 C 0.41969 0.0021 0.59446 0.0
C2919 C 0.40489 0.99085 0.59581 0.0
C2920 C 0.43671 0.99569 0.59833 0.0
C2921 C 0.43921 0.97786 0.60344 0.0
C2922 C 0.42442 0.96649 0.60402 0.0
C2923 C 0.40746 0.97293 0.60034 0.0
H2924 H 0.28463 0.2183 0.923 0.0
H2925 H 0.31311 0.20618 0.87473 0.0
H2926 H 0.26598 0.19186 0.91857 0.0
H2927 H 0.29492 0.17972 0.87055 0.0
H2928 H 0.26441 0.12958 0.8698 0.0
H2929 H 0.28521 0.14944 0.8846 0.0
H2930 H 0.24336 0.1879 0.89198 0.0
H2931 H 0.22267 0.1685 0.87662 0.0
C2932 C 0.28727 0.20964 0.91181 0.0
C2933 C 0.30014 0.21421 0.89911 0.0
C2934 C 0.27661 0.19462 0.90926 0.0
C2935 C 0.27907 0.18382 0.89424 0.0
C2936 C 0.29289 0.18772 0.88234 0.0
C2937 C 0.30321 0.20289 0.88466 0.0
C2938 C 0.25955 0.1422 0.87463 0.0
C2939 C 0.24194 0.14764 0.87144 0.0
C2940 C 0.27144 0.15346 0.88331 0.0
C2941 C 0.26588 0.1702 0.88928 0.0
C2942 C 0.24793 0.17497 0.88762 0.0
C2943 C 0.23608 0.16383 0.87873 0.0
H2944 H 0.60342 0.48199 0.63669 0.0
H2945 H 0.60421 0.51229 0.58797 0.0
H2946 H 0.57917 0.50056 0.64783 0.0
H2947 H 0.58014 0.53093 0.59916 0.0
H2948 H 0.52012 0.53519 0.61327 0.0
H2949 H 0.54808 0.5217 0.60451 0.0
H2950 H 0.56993 0.53281 0.65635 0.0
H2951 H 0.54168 0.54665 0.66521 0.0
C2952 C 0.59858 0.49278 0.6285 0.0
C2953 C 0.60557 0.49558 0.6114 0.0
C2954 C 0.58484 0.5035 0.63493 0.0
C2955 C 0.57771 0.51708 0.62429 0.0
C2956 C 0.58532 0.52046 0.60758 0.0
C2957 C 0.59918 0.50987 0.60122 0.0
C2958 C 0.53087 0.53484 0.62284 0.0
C2959 C 0.52868 0.54188 0.63998 0.0
C2960 C 0.54695 0.52726 0.61773 0.0
C2961 C 0.5612 0.52633 0.6297 0.0
C2962 C 0.55912 0.53339 0.64688 0.0
C2963 C 0.54302 0.5413 0.65192 0.0
H2964 H 0.77175 0.34642 0.15146 0.0
H2965 H 0.72703 0.33602 0.11712 0.0
H2966 H 0.78498 0.31799 0.14286 0.0
H2967 H 0.74028 0.30767 0.10845 0.0
H2968 H 0.75892 0.2495 0.1193 0.0
H2969 H 0.74648 0.27884 0.12525 0.0
H2970 H 0.79762 0.30272 0.11506 0.0
H2971 H 0.81012 0.27332 0.10897 0.0
C2972 C 0.7648 0.33807 0.14205 0.0
C2973 C 0.74835 0.34338 0.13499 0.0
C2974 C 0.77242 0.32191 0.13702 0.0
C2975 C 0.76362 0.31066 0.12501 0.0
C2976 C 0.74728 0.31606 0.1178 0.0
C2977 C 0.73978 0.33233 0.12265 0.0
C2978 C 0.7675 0.26101 0.11823 0.0
C2979 C 0.78549 0.25913 0.11369 0.0
C2980 C 0.76035 0.2778 0.12153 0.0
C2981 C 0.7711 0.29301 0.12061 0.0
C2982 C 0.78908 0.29117 0.11596 0.0
C2983 C 0.79619 0.27438 0.11239 0.0
H2984 H 0.38562 0.02807 0.86171 0.0
H2985 H 0.41112 0.99614 0.90174 0.0
H2986 H 0.41384 0.04271 0.85519 0.0
H2987 H 0.43963 0.00948 0.89451 0.0
H2988 H 0.48722 0.04453 0.88901 0.0
H2989 H 0.45803 0.03299 0.89655 0.0
H2990 H 0.44098 0.04132 0.84222 0.0
H2991 H 0.46981 0.05422 0.83531 0.0
C2992 C 0.3974 0.02409 0.86894 0.0
C2993 C 0.39626 0.01112 0.88228 0.0
C2994 C 0.41367 0.03234 0.86516 0.0
C2995 C 0.42932 0.02744 0.87429 0.0
C2996 C 0.42801 0.01415 0.88747 0.0
C2997 C 0.41167 0.00632 0.89157 0.0
C2998 C 0.47712 0.04402 0.87877 0.0
C2999 C 0.48078 0.05025 0.86159 0.0
C3000 C 0.46035 0.03719 0.883 0.0
C3001 C 0.44691 0.03586 0.87 0.0
C3002 C 0.45067 0.04231 0.85279 0.0
C3003 C 0.46729 0.04963 0.84873 0.0
H3004 H 0.00253 0.97628 0.41454 0.0
H3005 H 0.01913 0.96183 0.36156 0.0
H3006 H 0.03272 0.98555 0.4215 0.0
H3007 H 0.04915 0.97182 0.36821 0.0
H3008 H 0.10454 0.97154 0.39214 0.0
H3009 H 0.07434 0.96359 0.38456 0.0
H3010 H 0.05483 0.00727 0.41629 0.0
H3011 H 0.08509 0.0145 0.4249 0.0
C3012 C 0.0126 0.97526 0.40432 0.0
C3013 C 0.00847 0.96824 0.38753 0.0
C3014 C 0.02991 0.98071 0.40826 0.0
C3015 C 0.04346 0.97947 0.39543 0.0
C3016 C 0.03919 0.97268 0.37854 0.0
C3017 C 0.02194 0.96702 0.37468 0.0
C3018 C 0.09387 0.97939 0.39769 0.0
C3019 C 0.0974 0.99355 0.40936 0.0
C3020 C 0.07646 0.97497 0.39309 0.0
C3021 C 0.06204 0.98474 0.39982 0.0
C3022 C 0.06556 0.99924 0.41108 0.0
C3023 C 0.08301 0.00357 0.41583 0.0
H3024 H 0.11773 0.10272 0.41871 0.0
H3025 H 0.1548 0.08756 0.3774 0.0
H3026 H 0.10717 0.1271 0.40004 0.0
H3027 H 0.14498 0.11271 0.35957 0.0
H3028 H 0.08365 0.14076 0.3382 0.0
H3029 H 0.09325 0.12173 0.36261 0.0
H3030 H 0.14171 0.15181 0.36732 0.0
H3031 H 0.13179 0.17174 0.34369 0.0
C3032 C 0.12373 0.10455 0.40578 0.0
C3033 C 0.13703 0.09292 0.39955 0.0
C3034 C 0.11778 0.11866 0.39525 0.0
C3035 C 0.12539 0.12168 0.37855 0.0
C3036 C 0.13912 0.11065 0.37256 0.0
C3037 C 0.14479 0.09632 0.38287 0.0
C3038 C 0.09603 0.14385 0.34483 0.0
C3039 C 0.10706 0.15766 0.3387 0.0
C3040 C 0.10153 0.13286 0.35874 0.0
C3041 C 0.11821 0.13535 0.36659 0.0
C3042 C 0.12881 0.14969 0.3613 0.0
C3043 C 0.12317 0.16093 0.34766 0.0
H3044 H 0.15441 0.88218 0.67715 0.0
H3045 H 0.1646 0.91975 0.63477 0.0
H3046 H 0.12968 0.86986 0.66008 0.0
H3047 H 0.13927 0.90801 0.61845 0.0
H3048 H 0.12377 0.84701 0.59413 0.0
H3049 H 0.14069 0.85916 0.61884 0.0
H3050 H 0.09842 0.89606 0.63014 0.0
H3051 H 0.08074 0.88327 0.60606 0.0
C3052 C 0.15118 0.88809 0.66444 0.0
C3053 C 0.1618 0.90171 0.65716 0.0
C3054 C 0.13692 0.88115 0.65484 0.0
C3055 C 0.13277 0.88807 0.6381 0.0
C3056 C 0.14226 0.90265 0.63149 0.0
C3057 C 0.1567 0.9094 0.6409 0.0
C3058 C 0.11767 0.85718 0.60225 0.0
C3059 C 0.10096 0.86432 0.59786 0.0
C3060 C 0.12743 0.86417 0.61633 0.0
C3061 C 0.12075 0.87849 0.62615 0.0
C3062 C 0.10371 0.88498 0.62263 0.0
C3063 C 0.09375 0.87777 0.60874 0.0
H3064 H 0.40686 0.83698 0.86941 0.0
H3065 H 0.4428 0.8724 0.8418 0.0
H3066 H 0.40244 0.85916 0.89197 0.0
H3067 H 0.4404 0.89345 0.86572 0.0
H3068 H 0.40659 0.93814 0.88942 0.0
H3069 H 0.42055 0.91443 0.87287 0.0
H3070 H 0.40749 0.87742 0.91506 0.0
H3071 H 0.39209 0.90129 0.93075 0.0
C3072 C 0.41413 0.84932 0.86821 0.0
C3073 C 0.42452 0.85301 0.85309 0.0
C3074 C 0.4119 0.86204 0.88155 0.0
C3075 C 0.42056 0.87861 0.88055 0.0
C3076 C 0.43279 0.88129 0.86665 0.0
C3077 C 0.43449 0.86886 0.85297 0.0
C3078 C 0.40716 0.925 0.8953 0.0
C3079 C 0.39831 0.92146 0.91127 0.0
C3080 C 0.41527 0.91128 0.88586 0.0
C3081 C 0.41508 0.89368 0.89236 0.0
C3082 C 0.40751 0.89057 0.90924 0.0
C3083 C 0.3989 0.90427 0.91843 0.0
H3084 H 0.40089 0.10814 0.07462 0.0
H3085 H 0.42055 0.15451 0.10215 0.0
H3086 H 0.38414 0.09959 0.10085 0.0
H3087 H 0.4037 0.1459 0.12851 0.0
H3088 H 0.36091 0.08315 0.15288 0.0
H3089 H 0.38471 0.08975 0.13179 0.0
H3090 H 0.37204 0.14565 0.13503 0.0
H3091 H 0.34838 0.13914 0.15584 0.0
C3092 C 0.40198 0.1163 0.08642 0.0
C3093 C 0.41193 0.1321 0.08623 0.0
C3094 C 0.39239 0.11136 0.10149 0.0
C3095 C 0.39252 0.1221 0.11675 0.0
C3096 C 0.40313 0.13748 0.11686 0.0
C3097 C 0.41273 0.14244 0.10175 0.0
C3098 C 0.36337 0.09686 0.14923 0.0
C3099 C 0.35266 0.11059 0.15599 0.0
C3100 C 0.377 0.10063 0.13717 0.0
C3101 C 0.38019 0.11821 0.13164 0.0
C3102 C 0.37014 0.132 0.13918 0.0
C3103 C 0.35654 0.12824 0.15118 0.0
H3104 H 0.09796 0.83429 0.15652 0.0
H3105 H 0.12988 0.86648 0.19176 0.0
H3106 H 0.10774 0.85235 0.13135 0.0
H3107 H 0.13992 0.88403 0.16664 0.0
H3108 H 0.16543 0.90468 0.11704 0.0
H3109 H 0.15757 0.88233 0.13898 0.0
H3110 H 0.10305 0.88405 0.12132 0.0
H3111 H 0.11101 0.90626 0.09889 0.0
C3112 C 0.10716 0.84507 0.15893 0.0
C3113 C 0.11308 0.84886 0.17628 0.0
C3114 C 0.11275 0.85541 0.14448 0.0
C3115 C 0.12457 0.86963 0.14699 0.0
C3116 C 0.131 0.873 0.16419 0.0
C3117 C 0.1253 0.86282 0.17864 0.0
C3118 C 0.15184 0.89999 0.11743 0.0
C3119 C 0.13886 0.90727 0.1061 0.0
C3120 C 0.14731 0.88731 0.13021 0.0
C3121 C 0.12967 0.88151 0.13201 0.0
C3122 C 0.11679 0.88817 0.1202 0.0
C3123 C 0.12131 0.90099 0.10743 0.0
H3124 H 0.33759 0.86959 0.33526 0.0
H3125 H 0.31317 0.90049 0.37696 0.0
H3126 H 0.35855 0.85711 0.35683 0.0
H3127 H 0.33414 0.88816 0.39839 0.0
H3128 H 0.35839 0.84542 0.43424 0.0
H3129 H 0.33877 0.85761 0.41148 0.0
H3130 H 0.3839 0.8668 0.37731 0.0
H3131 H 0.40361 0.85445 0.40012 0.0
C3132 C 0.33679 0.8738 0.34899 0.0
C3133 C 0.32372 0.88602 0.35441 0.0
C3134 C 0.34883 0.86673 0.3613 0.0
C3135 C 0.34786 0.87154 0.37931 0.0
C3136 C 0.33506 0.88404 0.38464 0.0
C3137 C 0.32319 0.89126 0.37232 0.0
C3138 C 0.36411 0.84978 0.42177 0.0
C3139 C 0.38254 0.84892 0.41895 0.0
C3140 C 0.3529 0.85695 0.40882 0.0
C3141 C 0.35982 0.86329 0.39268 0.0
C3142 C 0.37819 0.86197 0.38961 0.0
C3143 C 0.38946 0.85499 0.40268 0.0
H3144 H 0.3854 0.10257 0.58553 0.0
H3145 H 0.33383 0.09498 0.60969 0.0
H3146 H 0.39094 0.12751 0.60529 0.0
H3147 H 0.3388 0.12073 0.62834 0.0
H3148 H 0.36498 0.14512 0.67703 0.0
H3149 H 0.35672 0.12469 0.6537 0.0
H3150 H 0.38456 0.15711 0.61527 0.0
H3151 H 0.39322 0.1776 0.63906 0.0
C3152 C 0.37513 0.10635 0.59485 0.0
C3153 C 0.35933 0.09643 0.59625 0.0
C3154 C 0.3782 0.12087 0.606 0.0
C3155 C 0.36545 0.12595 0.61865 0.0
C3156 C 0.34911 0.1169 0.61906 0.0
C3157 C 0.34614 0.10224 0.60813 0.0
C3158 C 0.36908 0.14812 0.66356 0.0
C3159 C 0.37961 0.16308 0.65986 0.0
C3160 C 0.36428 0.1364 0.65012 0.0
C3161 C 0.36977 0.13933 0.63252 0.0
C3162 C 0.38019 0.15441 0.62871 0.0
C3163 C 0.38513 0.16615 0.64229 0.0
H3164 H 0.10602 0.14791 0.90093 0.0
H3165 H 0.067 0.10817 0.88683 0.0
H3166 H 0.12297 0.14064 0.87467 0.0
H3167 H 0.08448 0.10053 0.86054 0.0
H3168 H 0.13958 0.07648 0.8392 0.0
H3169 H 0.11432 0.08581 0.85724 0.0
H3170 H 0.12357 0.14037 0.84209 0.0
H3171 H 0.14922 0.13139 0.82502 0.0
C3172 C 0.10073 0.13798 0.89198 0.0
C3173 C 0.08515 0.12858 0.89613 0.0
C3174 C 0.11052 0.13377 0.87687 0.0
C3175 C 0.10507 0.11998 0.86555 0.0
C3176 C 0.08906 0.11111 0.86914 0.0
C3177 C 0.07912 0.11546 0.88423 0.0
C3178 C 0.13607 0.09043 0.83949 0.0
C3179 C 0.14675 0.10316 0.8309 0.0
C3180 C 0.12145 0.09575 0.84966 0.0
C3181 C 0.11721 0.11387 0.85132 0.0
C3182 C 0.12673 0.12634 0.84128 0.0
C3183 C 0.14136 0.12109 0.83127 0.0
H3184 H 0.16827 0.34824 0.12187 0.0
H3185 H 0.13036 0.31211 0.14536 0.0
H3186 H 0.15194 0.37339 0.13433 0.0
H3187 H 0.11407 0.33699 0.15756 0.0
H3188 H 0.08599 0.38222 0.17983 0.0
H3189 H 0.11115 0.36209 0.17671 0.0
H3190 H 0.124 0.38623 0.12619 0.0
H3191 H 0.0995 0.4069 0.12979 0.0
C3192 C 0.15665 0.34566 0.12996 0.0
C3193 C 0.15054 0.32818 0.1325 0.0
C3194 C 0.14729 0.36005 0.13708 0.0
C3195 C 0.13157 0.35726 0.1468 0.0
C3196 C 0.12624 0.3397 0.15038 0.0
C3197 C 0.13561 0.32536 0.14334 0.0
C3198 C 0.09458 0.38366 0.16838 0.0
C3199 C 0.09052 0.39592 0.15487 0.0
C3200 C 0.10889 0.37197 0.16649 0.0
C3201 C 0.11938 0.37225 0.15102 0.0
C3202 C 0.11627 0.3856 0.13831 0.0
C3203 C 0.10204 0.39734 0.14025 0.0
H3204 H 0.60005 0.08528 0.87641 0.0
H3205 H 0.55805 0.12076 0.89274 0.0
H3206 H 0.62209 0.10623 0.88772 0.0
H3207 H 0.57992 0.14173 0.90375 0.0
H3208 H 0.62225 0.17497 0.92866 0.0
H3209 H 0.60276 0.14948 0.92433 0.0
H3210 H 0.63294 0.13441 0.87789 0.0
H3211 H 0.65292 0.1593 0.88276 0.0
C3212 C 0.59552 0.09742 0.88268 0.0
C3213 C 0.57729 0.10135 0.88363 0.0
C3214 C 0.60815 0.10948 0.88906 0.0
C3215 C 0.60284 0.12582 0.89646 0.0
C3216 C 0.58456 0.12923 0.89836 0.0
C3217 C 0.57196 0.11714 0.89205 0.0
C3218 C 0.62499 0.16598 0.91777 0.0
C3219 C 0.63908 0.16934 0.90596 0.0
C3220 C 0.61367 0.15145 0.91517 0.0
C3221 C 0.61613 0.13992 0.90066 0.0
C3222 C 0.63068 0.14287 0.88931 0.0
C3223 C 0.64202 0.15734 0.89194 0.0
H3224 H 0.88873 0.92224 0.38989 0.0
H3225 H 0.88333 0.91055 0.33385 0.0
H3226 H 0.86661 0.90009 0.3967 0.0
H3227 H 0.86229 0.88713 0.34096 0.0
H3228 H 0.82228 0.84623 0.35818 0.0
H3229 H 0.83493 0.87558 0.35226 0.0
H3230 H 0.8703 0.86896 0.39705 0.0
H3231 H 0.8575 0.84006 0.40305 0.0
C3232 C 0.88259 0.91533 0.3789 0.0
C3233 C 0.88831 0.91801 0.36128 0.0
C3234 C 0.87005 0.90231 0.3829 0.0
C3235 C 0.86314 0.89136 0.36948 0.0
C3236 C 0.86744 0.8952 0.3517 0.0
C3237 C 0.87977 0.90849 0.34763 0.0
C3238 C 0.83265 0.8512 0.36682 0.0
C3239 C 0.83895 0.84084 0.38105 0.0
C3240 C 0.83989 0.86799 0.36344 0.0
C3241 C 0.85362 0.8747 0.37418 0.0
C3242 C 0.85947 0.86449 0.38872 0.0
C3243 C 0.85218 0.84782 0.39215 0.0
H3244 H 0.87701 0.15687 0.09213 0.0
H3245 H 0.83544 0.128 0.11911 0.0
H3246 H 0.89826 0.13415 0.10034 0.0
H3247 H 0.8567 0.1047 0.12695 0.0
H3248 H 0.90463 0.08225 0.15841 0.0
H3249 H 0.88076 0.10061 0.14675 0.0
H3250 H 0.9087 0.10526 0.0968 0.0
H3251 H 0.93319 0.0884 0.1089 0.0
C3252 C 0.8723 0.14534 0.09935 0.0
C3253 C 0.85455 0.14421 0.10495 0.0
C3254 C 0.88451 0.13224 0.10408 0.0
C3255 C 0.87927 0.11752 0.11437 0.0
C3256 C 0.86129 0.11598 0.11929 0.0
C3257 C 0.84908 0.12925 0.11472 0.0
C3258 C 0.90578 0.08729 0.14498 0.0
C3259 C 0.92108 0.08396 0.13477 0.0
C3260 C 0.89189 0.09759 0.13816 0.0
C3261 C 0.89284 0.10464 0.12086 0.0
C3262 C 0.90765 0.10042 0.11031 0.0
C3263 C 0.92163 0.09041 0.11721 0.0
H3264 H 0.33317 0.64493 0.6123 0.0
H3265 H 0.35767 0.6806 0.64981 0.0
H3266 H 0.3525 0.62089 0.62244 0.0
H3267 H 0.37774 0.65717 0.65923 0.0
H3268 H 0.41021 0.61293 0.67845 0.0
H3269 H 0.38374 0.63073 0.67353 0.0
H3270 H 0.38162 0.61231 0.61914 0.0
H3271 H 0.40689 0.59327 0.62461 0.0
C3272 C 0.3427 0.64754 0.62276 0.0
C3273 C 0.34403 0.66454 0.63026 0.0
C3274 C 0.35387 0.63385 0.62852 0.0
C3275 C 0.36691 0.63702 0.64158 0.0
C3276 C 0.36772 0.65398 0.64943 0.0
C3277 C 0.3563 0.66752 0.64395 0.0
C3278 C 0.40375 0.61221 0.66562 0.0
C3279 C 0.411 0.60194 0.65181 0.0
C3280 C 0.3887 0.62269 0.66269 0.0
C3281 C 0.38071 0.62342 0.64578 0.0
C3282 C 0.38726 0.61218 0.63237 0.0
C3283 C 0.40205 0.60144 0.63541 0.0
H3284 H 0.14044 0.676 0.36141 0.0
H3285 H 0.17867 0.63937 0.38356 0.0
H3286 H 0.11901 0.65187 0.35858 0.0
H3287 H 0.15709 0.6151 0.38061 0.0
H3288 H 0.11252 0.57728 0.35337 0.0
H3289 H 0.13747 0.59805 0.35625 0.0
H3290 H 0.10366 0.63449 0.38479 0.0
H3291 H 0.07885 0.61379 0.38204 0.0
C3292 C 0.1445 0.66267 0.36506 0.0
C3293 C 0.16124 0.65955 0.37267 0.0
C3294 C 0.13213 0.64893 0.36372 0.0
C3295 C 0.13631 0.63177 0.36976 0.0
C3296 C 0.15353 0.62827 0.37599 0.0
C3297 C 0.16587 0.6421 0.37757 0.0
C3298 C 0.11063 0.58949 0.36075 0.0
C3299 C 0.09378 0.59394 0.36751 0.0
C3300 C 0.12485 0.60137 0.3623 0.0
C3301 C 0.12231 0.61798 0.37038 0.0
C3302 C 0.10583 0.62186 0.37823 0.0
C3303 C 0.09172 0.60991 0.37691 0.0
H3304 H 0.32527 0.34097 0.86721 0.0
H3305 H 0.36186 0.34103 0.91158 0.0
H3306 H 0.34123 0.36603 0.85416 0.0
H3307 H 0.37689 0.3666 0.89901 0.0
H3308 H 0.40025 0.38246 0.83149 0.0
H3309 H 0.37482 0.36561 0.84261 0.0
H3310 H 0.37223 0.39967 0.88863 0.0
H3311 H 0.3973 0.41685 0.87731 0.0
C3312 C 0.3365 0.34641 0.87435 0.0
C3313 C 0.34247 0.33863 0.89033 0.0
C3314 C 0.34548 0.36087 0.86691 0.0
C3315 C 0.36025 0.36816 0.87557 0.0
C3316 C 0.36537 0.36134 0.89216 0.0
C3317 C 0.35667 0.34667 0.89941 0.0
C3318 C 0.39378 0.38682 0.84358 0.0
C3319 C 0.401 0.40068 0.85375 0.0
C3320 C 0.37924 0.37717 0.84995 0.0
C3321 C 0.37183 0.38122 0.8666 0.0
C3322 C 0.37789 0.39619 0.87586 0.0
C3323 C 0.39226 0.40594 0.86941 0.0
H3324 H 0.61764 0.61611 0.921 0.0
H3325 H 0.67004 0.60748 0.89901 0.0
H3326 H 0.6128 0.64003 0.89985 0.0
H3327 H 0.66581 0.63244 0.87923 0.0
H3328 H 0.63858 0.64514 0.82659 0.0
H3329 H 0.64784 0.63028 0.85342 0.0
H3330 H 0.61806 0.66803 0.88486 0.0
H3331 H 0.60848 0.683 0.85745 0.0
C3332 C 0.62833 0.61959 0.91202 0.0
C3333 C 0.6439 0.60923 0.91117 0.0
C3334 C 0.62565 0.63355 0.90009 0.0
C3335 C 0.63868 0.63767 0.88739 0.0
C3336 C 0.65525 0.62912 0.88844 0.0
C3337 C 0.65777 0.6149 0.90003 0.0
C3338 C 0.63425 0.65052 0.83922 0.0
C3339 C 0.62295 0.66533 0.83994 0.0
C3340 C 0.63969 0.64207 0.85467 0.0
C3341 C 0.63403 0.64818 0.87137 0.0
C3342 C 0.6227 0.66305 0.87219 0.0
C3343 C 0.61716 0.67155 0.85656 0.0
H3344 H 0.64367 0.36345 0.18124 0.0
H3345 H 0.64523 0.41156 0.14985 0.0
H3346 H 0.61612 0.35479 0.16649 0.0
H3347 H 0.6175 0.40317 0.13565 0.0
H3348 H 0.59956 0.33756 0.10701 0.0
H3349 H 0.61581 0.34614 0.13347 0.0
H3350 H 0.58456 0.39406 0.13743 0.0
H3351 H 0.56764 0.38516 0.11123 0.0
C3352 C 0.6379 0.37241 0.17155 0.0
C3353 C 0.64691 0.38795 0.16632 0.0
C3354 C 0.62209 0.36749 0.16324 0.0
C3355 C 0.61486 0.37819 0.14979 0.0
C3356 C 0.62273 0.39471 0.14607 0.0
C3357 C 0.63866 0.39953 0.15422 0.0
C3358 C 0.59555 0.34953 0.1139 0.0
C3359 C 0.58258 0.36088 0.10671 0.0
C3360 C 0.6049 0.35446 0.12911 0.0
C3361 C 0.60157 0.37089 0.13732 0.0
C3362 C 0.58749 0.38143 0.13118 0.0
C3363 C 0.57794 0.37638 0.11611 0.0
H3364 H 0.91984 0.37523 0.33837 0.0
H3365 H 0.89746 0.33313 0.37042 0.0
H3366 H 0.91503 0.39614 0.3623 0.0
H3367 H 0.8926 0.35426 0.39458 0.0
H3368 H 0.86082 0.40305 0.41651 0.0
H3369 H 0.87185 0.37865 0.39842 0.0
H3370 H 0.92185 0.40607 0.39187 0.0
H3371 H 0.9105 0.43089 0.40922 0.0
C3372 C 0.91441 0.37028 0.35075 0.0
C3373 C 0.90893 0.35249 0.3524 0.0
C3374 C 0.91163 0.38233 0.36452 0.0
C3375 C 0.90329 0.37692 0.38033 0.0
C3376 C 0.89878 0.3589 0.38244 0.0
C3377 C 0.90157 0.34681 0.36861 0.0
C3378 C 0.87419 0.40386 0.41125 0.0
C3379 C 0.88465 0.41908 0.41405 0.0
C3380 C 0.88062 0.38973 0.4011 0.0
C3381 C 0.8977 0.39046 0.39356 0.0
C3382 C 0.90855 0.4052 0.39727 0.0
C3383 C 0.90209 0.41937 0.40737 0.0
H3384 H 0.83275 0.60032 0.60924 0.0
H3385 H 0.86724 0.58132 0.65088 0.0
H3386 H 0.85783 0.60245 0.58912 0.0
H3387 H 0.89278 0.58332 0.63049 0.0
H3388 H 0.93093 0.62037 0.59515 0.0
H3389 H 0.90926 0.60854 0.61619 0.0
H3390 H 0.87979 0.58544 0.57278 0.0
H3391 H 0.90063 0.59801 0.55178 0.0
C3392 C 0.84575 0.59635 0.61397 0.0
C3393 C 0.84814 0.5908 0.6316 0.0
C3394 C 0.86013 0.59739 0.6024 0.0
C3395 C 0.87733 0.59297 0.60816 0.0
C3396 C 0.87968 0.58685 0.6257 0.0
C3397 C 0.86513 0.58562 0.63731 0.0
C3398 C 0.91997 0.61254 0.59011 0.0
C3399 C 0.91743 0.61049 0.57169 0.0
C3400 C 0.90766 0.60558 0.60221 0.0
C3401 C 0.89261 0.59636 0.59612 0.0
C3402 C 0.89107 0.59278 0.57787 0.0
C3403 C 0.90324 0.59983 0.5658 0.0
H3404 H 0.63748 0.39003 0.59301 0.0
H3405 H 0.69394 0.39308 0.60341 0.0
H3406 H 0.6355 0.36383 0.61151 0.0
H3407 H 0.69156 0.36717 0.62285 0.0
H3408 H 0.63561 0.3133 0.6409 0.0
H3409 H 0.64586 0.33169 0.61619 0.0
H3410 H 0.67498 0.36474 0.65283 0.0
H3411 H 0.66436 0.34689 0.67753 0.0
C3412 C 0.64961 0.38492 0.59877 0.0
C3413 C 0.66587 0.39395 0.5967 0.0
C3414 C 0.64842 0.36983 0.60949 0.0
C3415 C 0.66337 0.36347 0.61866 0.0
C3416 C 0.67981 0.37187 0.616 0.0
C3417 C 0.68109 0.38683 0.60498 0.0
C3418 C 0.6445 0.32426 0.64367 0.0
C3419 C 0.64883 0.32879 0.66128 0.0
C3420 C 0.6504 0.33474 0.6295 0.0
C3421 C 0.661 0.34977 0.63264 0.0
C3422 C 0.66691 0.35317 0.65 0.0
C3423 C 0.66083 0.34284 0.66419 0.0
H3424 H 0.91203 0.35719 0.89354 0.0
H3425 H 0.874 0.31676 0.90787 0.0
H3426 H 0.89334 0.36608 0.8686 0.0
H3427 H 0.85504 0.32585 0.88301 0.0
H3428 H 0.82704 0.34496 0.83184 0.0
H3429 H 0.85005 0.33069 0.85001 0.0
H3430 H 0.8649 0.38191 0.87106 0.0
H3431 H 0.84198 0.39596 0.85371 0.0
C3432 C 0.89982 0.34997 0.89111 0.0
C3433 C 0.8943 0.33648 0.90276 0.0
C3434 C 0.8891 0.35508 0.87687 0.0
C3435 C 0.87254 0.3469 0.87406 0.0
C3436 C 0.86773 0.33237 0.88479 0.0
C3437 C 0.87856 0.32717 0.89904 0.0
C3438 C 0.8353 0.35317 0.84027 0.0
C3439 C 0.83269 0.3717 0.84104 0.0
C3440 C 0.8485 0.34498 0.85063 0.0
C3441 C 0.85945 0.3552 0.86179 0.0
C3442 C 0.85705 0.37369 0.86225 0.0
C3443 C 0.84385 0.38178 0.85215 0.0
H3444 H 0.90697 0.57412 0.06675 0.0
H3445 H 0.85199 0.58999 0.07297 0.0
H3446 H 0.91562 0.5971 0.08815 0.0
H3447 H 0.86088 0.61304 0.09318 0.0
H3448 H 0.87839 0.6187 0.15132 0.0
H3449 H 0.87457 0.60119 0.12456 0.0
H3450 H 0.91202 0.63458 0.09684 0.0
H3451 H 0.91567 0.65272 0.12388 0.0
C3452 C 0.89679 0.58272 0.07215 0.0
C3453 C 0.87869 0.57976 0.06827 0.0
C3454 C 0.90182 0.59599 0.08423 0.0
C3455 C 0.88883 0.60654 0.09242 0.0
C3456 C 0.8711 0.60493 0.08708 0.0
C3457 C 0.86606 0.5917 0.07524 0.0
C3458 C 0.88573 0.62249 0.13953 0.0
C3459 C 0.89698 0.63737 0.13958 0.0
C3460 C 0.88361 0.61239 0.12425 0.0
C3461 C 0.89277 0.61678 0.10865 0.0
C3462 C 0.90476 0.63107 0.10876 0.0
C3463 C 0.90684 0.64136 0.12418 0.0
H3464 H 0.58647 0.62101 0.38436 0.0
H3465 H 0.60949 0.67172 0.39831 0.0
H3466 H 0.60761 0.6181 0.36016 0.0
H3467 H 0.62987 0.66935 0.37338 0.0
H3468 H 0.68098 0.6408 0.35375 0.0
H3469 H 0.65561 0.65144 0.37029 0.0
H3470 H 0.62031 0.62672 0.33235 0.0
H3471 H 0.64601 0.6158 0.31577 0.0
C3472 C 0.59577 0.63174 0.38203 0.0
C3473 C 0.59654 0.64639 0.39359 0.0
C3474 C 0.60776 0.63019 0.36794 0.0
C3475 C 0.62069 0.64336 0.36498 0.0
C3476 C 0.62034 0.65878 0.37552 0.0
C3477 C 0.60847 0.66024 0.38971 0.0
C3478 C 0.66785 0.63812 0.34853 0.0
C3479 C 0.66554 0.62734 0.33348 0.0
C3480 C 0.6532 0.64426 0.35806 0.0
C3481 C 0.63585 0.63982 0.35278 0.0
C3482 C 0.6335 0.63011 0.33698 0.0
C3483 C 0.64821 0.62389 0.32745 0.0
H3484 H 0.65377 0.85395 0.56638 0.0
H3485 H 0.63273 0.8304 0.6143 0.0
H3486 H 0.63818 0.88179 0.57328 0.0
H3487 H 0.61721 0.85776 0.62104 0.0
H3488 H 0.60354 0.90928 0.64002 0.0
H3489 H 0.62461 0.88747 0.63039 0.0
H3490 H 0.60757 0.89437 0.57609 0.0
H3491 H 0.58724 0.91782 0.58544 0.0
C3492 C 0.64577 0.85471 0.57831 0.0
C3493 C 0.64465 0.84012 0.58996 0.0
C3494 C 0.63689 0.87061 0.58226 0.0
C3495 C 0.62678 0.8721 0.59789 0.0
C3496 C 0.62536 0.85729 0.6092 0.0
C3497 C 0.63421 0.84155 0.60531 0.0
C3498 C 0.6046 0.907 0.62589 0.0
C3499 C 0.59314 0.91531 0.61362 0.0
C3500 C 0.6166 0.89407 0.62041 0.0
C3501 C 0.61726 0.8887 0.6026 0.0
C3502 C 0.60718 0.89807 0.58998 0.0
C3503 C 0.59533 0.91137 0.59543 0.0
H3504 H 0.94461 0.24668 0.27532 0.0
H3505 H 0.96713 0.29818 0.28672 0.0
H3506 H 0.97435 0.23408 0.27314 0.0
H3507 H 0.99701 0.28562 0.28421 0.0
H3508 H 0.04439 0.24973 0.30151 0.0
H3509 H 0.01537 0.26397 0.30169 0.0
H3510 H 0.00117 0.23581 0.25381 0.0
H3511 H 0.03029 0.22177 0.25337 0.0
C3512 C 0.95593 0.25531 0.27735 0.0
C3513 C 0.95355 0.27339 0.2813 0.0
C3514 C 0.97296 0.24813 0.27591 0.0
C3515 C 0.98799 0.25887 0.27851 0.0
C3516 C 0.98564 0.27701 0.28227 0.0
C3517 C 0.96858 0.28423 0.28356 0.0
C3518 C 0.03523 0.24673 0.29085 0.0
C3519 C 0.03973 0.23449 0.27747 0.0
C3520 C 0.01858 0.25491 0.29098 0.0
C3521 C 0.006 0.25096 0.27779 0.0
C3522 C 0.01053 0.23892 0.26429 0.0
C3523 C 0.02722 0.23082 0.26409 0.0
H3524 H 0.05207 0.78142 0.53328 0.0
H3525 H 0.00014 0.80518 0.53837 0.0
H3526 H 0.03837 0.75218 0.52961 0.0
H3527 H 0.98642 0.77595 0.53484 0.0
H3528 H 0.96973 0.72421 0.50655 0.0
H3529 H 0.98378 0.75309 0.51011 0.0
H3530 H 0.02018 0.73075 0.54836 0.0
H3531 H 0.00589 0.70194 0.5453 0.0
C3532 C 0.03774 0.78037 0.53359 0.0
C3533 C 0.02716 0.79555 0.53611 0.0
C3534 C 0.02991 0.76365 0.53162 0.0
C3535 C 0.01134 0.76183 0.5319 0.0
C3536 C 0.00077 0.77701 0.53442 0.0
C3537 C 0.00861 0.79369 0.53662 0.0
C3538 C 0.98058 0.72539 0.51588 0.0
C3539 C 0.98651 0.71062 0.52573 0.0
C3540 C 0.98866 0.74198 0.51786 0.0
C3541 C 0.00301 0.74416 0.52957 0.0
C3542 C 0.00923 0.7294 0.53913 0.0
C3543 C 0.00103 0.71284 0.53731 0.0
H3544 H 0.55833 0.76223 0.78968 0.0
H3545 H 0.53826 0.71729 0.75992 0.0
H3546 H 0.52907 0.77549 0.78922 0.0
H3547 H 0.50934 0.73111 0.75871 0.0
H3548 H 0.4556 0.74902 0.77984 0.0
H3549 H 0.48522 0.73669 0.77788 0.0
H3550 H 0.50682 0.78953 0.77158 0.0
H3551 H 0.47712 0.802 0.77463 0.0
C3552 C 0.54786 0.75512 0.78293 0.0
C3553 C 0.55095 0.73842 0.77504 0.0
C3554 C 0.531 0.76293 0.78248 0.0
C3555 C 0.51674 0.75437 0.77401 0.0
C3556 C 0.5199 0.73797 0.76566 0.0
C3557 C 0.5367 0.73008 0.76623 0.0
C3558 C 0.46661 0.75809 0.77819 0.0
C3559 C 0.46386 0.77657 0.77763 0.0
C3560 C 0.48367 0.75096 0.77679 0.0
C3561 C 0.4985 0.76208 0.77458 0.0
C3562 C 0.49575 0.78056 0.77353 0.0
C3563 C 0.47865 0.78772 0.77506 0.0
H3564 H 0.49125 0.30394 0.04217 0.0
H3565 H 0.54315 0.2845 0.02714 0.0
H3566 H 0.47969 0.27383 0.04103 0.0
H3567 H 0.53134 0.25456 0.02504 0.0
H3568 H 0.5092 0.20077 0.04208 0.0
H3569 H 0.52084 0.23088 0.04351 0.0
H3570 H 0.47213 0.25085 0.0206 0.0
H3571 H 0.46012 0.22095 0.0201 0.0
C3572 C 0.50022 0.29331 0.03858 0.0
C3573 C 0.51818 0.29676 0.03479 0.0
C3574 C 0.49351 0.27602 0.0377 0.0
C3575 C 0.50457 0.26174 0.03293 0.0
C3576 C 0.52249 0.2652 0.02898 0.0
C3577 C 0.52922 0.28247 0.02995 0.0
C3578 C 0.50088 0.21157 0.03752 0.0
C3579 C 0.48369 0.20832 0.03098 0.0
C3580 C 0.50766 0.22885 0.03813 0.0
C3581 C 0.49744 0.24332 0.03214 0.0
C3582 C 0.4803 0.24006 0.02552 0.0
C3583 C 0.47349 0.22281 0.02501 0.0
H3584 H 0.96123 0.70418 0.22676 0.0
H3585 H 0.94166 0.74806 0.19522 0.0
H3586 H 0.98684 0.72182 0.23528 0.0
H3587 H 0.96778 0.76525 0.2029 0.0
H3588 H 0.01 0.79787 0.23041 0.0
H3589 H 0.98279 0.78091 0.22593 0.0
H3590 H 0.01354 0.73252 0.22271 0.0
H3591 H 0.04046 0.74925 0.22817 0.0
C3592 C 0.96229 0.71757 0.22164 0.0
C3593 C 0.94926 0.72455 0.21018 0.0
C3594 C 0.97715 0.72766 0.22638 0.0
C3595 C 0.9795 0.74498 0.21971 0.0
C3596 C 0.96637 0.75206 0.20848 0.0
C3597 C 0.95145 0.74203 0.20383 0.0
C3598 C 0.01094 0.78359 0.22906 0.0
C3599 C 0.02754 0.77501 0.22951 0.0
C3600 C 0.99532 0.77386 0.22626 0.0
C3601 C 0.99591 0.75531 0.22382 0.0
C3602 C 0.01247 0.74673 0.22471 0.0
C3603 C 0.02802 0.75642 0.22759 0.0
H3604 H 0.49311 0.68981 0.46462 0.0
H3605 H 0.54449 0.71366 0.47354 0.0
H3606 H 0.47899 0.71866 0.46848 0.0
H3607 H 0.53029 0.74253 0.4779 0.0
H3608 H 0.49964 0.79284 0.45876 0.0
H3609 H 0.51498 0.76431 0.45914 0.0
H3610 H 0.47239 0.74182 0.49033 0.0
H3611 H 0.45682 0.77028 0.48952 0.0
C3612 C 0.5014 0.7012 0.46748 0.0
C3613 C 0.51996 0.69941 0.46862 0.0
C3614 C 0.49327 0.71772 0.46992 0.0
C3615 C 0.5035 0.73294 0.4735 0.0
C3616 C 0.52204 0.73111 0.47501 0.0
C3617 C 0.53017 0.71453 0.47267 0.0
C3618 C 0.49359 0.78184 0.46577 0.0
C3619 C 0.47694 0.78383 0.47399 0.0
C3620 C 0.50247 0.76551 0.46614 0.0
C3621 C 0.49487 0.75073 0.47468 0.0
C3622 C 0.47851 0.75288 0.48345 0.0
C3623 C 0.46967 0.76925 0.48316 0.0
H3624 H 0.53301 0.30153 0.7054 0.0
H3625 H 0.55222 0.253 0.72895 0.0
H3626 H 0.50298 0.28928 0.70447 0.0
H3627 H 0.52223 0.24096 0.7291 0.0
H3628 H 0.47078 0.21629 0.71089 0.0
H3629 H 0.5005 0.22905 0.71126 0.0
H3630 H 0.47782 0.28115 0.72016 0.0
H3631 H 0.44813 0.26828 0.71872 0.0
C3632 C 0.53068 0.28833 0.71064 0.0
C3633 C 0.54488 0.27814 0.71712 0.0
C3634 C 0.51347 0.28128 0.71021 0.0
C3635 C 0.51002 0.26399 0.7166 0.0
C3636 C 0.52429 0.25408 0.72357 0.0
C3637 C 0.54151 0.261 0.72363 0.0
C3638 C 0.47225 0.23046 0.71291 0.0
C3639 C 0.45722 0.2413 0.71475 0.0
C3640 C 0.48929 0.23782 0.71326 0.0
C3641 C 0.49175 0.25621 0.71587 0.0
C3642 C 0.47659 0.26702 0.71779 0.0
C3643 C 0.45953 0.25967 0.71706 0.0
H3644 H 0.02673 0.19821 0.98983 0.0
H3645 H 0.00407 0.18941 0.93791 0.0
H3646 H 0.0135 0.22802 0.99042 0.0
H3647 H 0.99065 0.21877 0.93863 0.0
H3648 H 0.98506 0.27854 0.93678 0.0
H3649 H -4e-05 0.2499 0.93748 0.0
H3650 H 0.98329 0.24235 0.99185 0.0
H3651 H 0.96865 0.27142 0.9913 0.0
C3652 C 0.01901 0.20265 0.97854 0.0
C3653 C 0.0164 0.19139 0.96386 0.0
C3654 C 0.01129 0.21963 0.97894 0.0
C3655 C 0.00102 0.22578 0.96456 0.0
C3656 C 0.99861 0.21455 0.94985 0.0
C3657 C 0.00617 0.19762 0.94952 0.0
C3658 C 0.98471 0.27093 0.94898 0.0
C3659 C 0.97562 0.27734 0.96399 0.0
C3660 C 0.99313 0.25439 0.94932 0.0
C3661 C 0.99276 0.24378 0.96469 0.0
C3662 C 0.98392 0.25026 0.97983 0.0
C3663 C 0.97537 0.26682 0.97945 0.0
H3664 H 0.2586 0.04166 0.21677 0.0
H3665 H 0.30979 0.04756 0.24187 0.0
H3666 H 0.25594 0.01172 0.22954 0.0
H3667 H 0.30701 0.01813 0.25484 0.0
H3668 H 0.30553 0.95854 0.26076 0.0
H3669 H 0.30704 0.98715 0.24586 0.0
H3670 H 0.25223 0.99724 0.25937 0.0
H3671 H 0.25054 0.96817 0.27392 0.0
C3672 C 0.26931 0.03653 0.22489 0.0
C3673 C 0.28436 0.04703 0.22838 0.0
C3674 C 0.26771 0.01949 0.23235 0.0
C3675 C 0.28125 0.01253 0.24325 0.0
C3676 C 0.2964 0.02296 0.2464 0.0
C3677 C 0.29792 0.03994 0.23909 0.0
C3678 C 0.29371 0.96671 0.26042 0.0
C3679 C 0.27791 0.96098 0.26859 0.0
C3680 C 0.29463 0.98323 0.25199 0.0
C3681 C 0.27978 0.99454 0.25145 0.0
C3682 C 0.26388 0.98879 0.25942 0.0
C3683 C 0.26297 0.97222 0.26796 0.0
H3684 H 0.22485 0.03149 0.45473 0.0
H3685 H 0.20576 0.05922 0.50118 0.0
H3686 H 0.25436 0.02966 0.46795 0.0
H3687 H 0.23538 0.05791 0.51413 0.0
H3688 H 0.28455 0.03362 0.5402 0.0
H3689 H 0.2553 0.03541 0.52654 0.0
H3690 H 0.27955 0.0487 0.47624 0.0
H3691 H 0.3089 0.04633 0.48981 0.0
C3692 C 0.22694 0.03721 0.46775 0.0
C3693 C 0.21291 0.04544 0.47691 0.0
C3694 C 0.24391 0.03632 0.47524 0.0
C3695 C 0.2472 0.0436 0.49211 0.0
C3696 C 0.23322 0.05199 0.5012 0.0
C3697 C 0.21628 0.05293 0.49368 0.0
C3698 C 0.28369 0.03672 0.52619 0.0
C3699 C 0.2991 0.03978 0.51609 0.0
C3700 C 0.26689 0.03797 0.5184 0.0
C3701 C 0.2651 0.04226 0.50032 0.0
C3702 C 0.28049 0.04523 0.49018 0.0
C3703 C 0.29731 0.04405 0.49799 0.0
H3704 H 0.21964 0.95576 0.75602 0.0
H3705 H 0.23437 0.9799 0.70602 0.0
H3706 H 0.2196 0.98492 0.77003 0.0
H3707 H 0.23517 0.00885 0.72021 0.0
H3708 H 0.21449 0.05953 0.74517 0.0
H3709 H 0.21442 0.03003 0.73205 0.0
H3710 H 0.23912 0.00885 0.77938 0.0
H3711 H 0.23898 0.03851 0.7926 0.0
C3712 C 0.2229 0.96724 0.748 0.0
C3713 C 0.22692 0.96543 0.72984 0.0
C3714 C 0.22309 0.98395 0.7561 0.0
C3715 C 0.22731 0.99923 0.74623 0.0
C3716 C 0.2316 0.99738 0.72815 0.0
C3717 C 0.23137 0.98071 0.72005 0.0
C3718 C 0.22001 0.04861 0.75274 0.0
C3719 C 0.22687 0.05137 0.76987 0.0
C3720 C 0.22 0.03169 0.74521 0.0
C3721 C 0.22693 0.0171 0.75458 0.0
C3722 C 0.23354 0.01979 0.77186 0.0
C3723 C 0.23347 0.03676 0.77944 0.0
H3724 H 0.30827 0.97327 0.99719 0.0
H3725 H 0.27653 0.96738 0.95001 0.0
H3726 H 0.28151 0.97541 0.01522 0.0
H3727 H 0.24952 0.96821 0.96797 0.0
H3728 H 0.20259 0.98213 0.00257 0.0
H3729 H 0.22953 0.98381 0.98469 0.0
H3730 H 0.25905 0.95931 0.02758 0.0
H3731 H 0.23221 0.95888 0.04566 0.0
C3732 C 0.29545 0.97233 0.99075 0.0
C3733 C 0.29439 0.97014 0.97227 0.0
C3734 C 0.28005 0.97337 0.00107 0.0
C3735 C 0.26313 0.97175 0.99324 0.0
C3736 C 0.26217 0.96982 0.9746 0.0
C3737 C 0.27763 0.96924 0.96423 0.0
C3738 C 0.21493 0.97722 0.00811 0.0
C3739 C 0.21538 0.97038 0.02547 0.0
C3740 C 0.2304 0.97804 0.99784 0.0
C3741 C 0.24668 0.97162 0.0045 0.0
C3742 C 0.247 0.96478 0.02197 0.0
C3743 C 0.23159 0.96439 0.03238 0.0
H3744 H 0.28955 0.27847 0.97347 0.0
H3745 H 0.2416 0.27241 0.94263 0.0
H3746 H 0.27206 0.27836 0.00075 0.0
H3747 H 0.22401 0.27261 0.96995 0.0
H3748 H 0.20263 0.2536 0.0249 0.0
H3749 H 0.21932 0.25351 0.9971 0.0
H3750 H 0.25005 0.29834 0.01533 0.0
H3751 H 0.23326 0.29875 0.04285 0.0
C3752 C 0.27528 0.27705 0.97253 0.0
C3753 C 0.26696 0.27546 0.9559 0.0
C3754 C 0.26524 0.27715 0.98813 0.0
C3755 C 0.24666 0.27552 0.98747 0.0
C3756 C 0.23832 0.27378 0.97087 0.0
C3757 C 0.24836 0.27384 0.95523 0.0
C3758 C 0.21279 0.26358 0.02293 0.0
C3759 C 0.21661 0.27611 0.03627 0.0
C3760 C 0.22237 0.26349 0.007 0.0
C3761 C 0.23607 0.27584 0.0041 0.0
C3762 C 0.23978 0.28846 0.01731 0.0
C3763 C 0.23014 0.28864 0.03315 0.0
H3764 H 0.74654 0.20586 0.05506 0.0
H3765 H 0.79541 0.22558 0.03246 0.0
H3766 H 0.73126 0.21144 0.02719 0.0
H3767 H 0.77992 0.23174 0.00452 0.0
H3768 H 0.75127 0.21586 0.95219 0.0
H3769 H 0.76704 0.2144 0.98036 0.0
H3770 H 0.72059 0.2345 0.00738 0.0
H3771 H 0.70458 0.23538 0.97919 0.0
C3772 C 0.75403 0.21146 0.04415 0.0
C3773 C 0.77227 0.21505 0.04595 0.0
C3774 C 0.74519 0.2149 0.0282 0.0
C3775 C 0.75434 0.22202 0.01356 0.0
C3776 C 0.7725 0.22607 0.01548 0.0
C3777 C 0.78136 0.22269 0.03152 0.0
C3778 C 0.74437 0.21992 0.96412 0.0
C3779 C 0.72655 0.22553 0.9634 0.0
C3780 C 0.75352 0.21931 0.98028 0.0
C3781 C 0.74509 0.22427 0.99618 0.0
C3782 C 0.72743 0.23038 0.99541 0.0
C3783 C 0.71828 0.23104 0.97922 0.0
H3784 H 0.02162 0.45323 0.21897 0.0
H3785 H 0.02104 0.50287 0.19021 0.0
H3786 H 0.02239 0.46951 0.24705 0.0
H3787 H 0.02198 0.51917 0.21828 0.0
H3788 H 0.00754 0.5411 0.27395 0.0
H3789 H 0.00383 0.52487 0.24624 0.0
H3790 H 0.04558 0.48876 0.26162 0.0
H3791 H 0.04975 0.50497 0.28899 0.0
C3792 C 0.02142 0.46761 0.21866 0.0
C3793 C 0.02136 0.47677 0.20238 0.0
C3794 C 0.02201 0.47693 0.23471 0.0
C3795 C 0.02234 0.49562 0.23485 0.0
C3796 C 0.02165 0.50479 0.2186 0.0
C3797 C 0.02128 0.49546 0.20254 0.0
C3798 C 0.01607 0.52981 0.27151 0.0
C3799 C 0.02896 0.52449 0.28403 0.0
C3800 C 0.01386 0.52047 0.25557 0.0
C3801 C 0.02432 0.50546 0.25183 0.0
C3802 C 0.0371 0.50008 0.26427 0.0
C3803 C 0.03947 0.50949 0.28007 0.0
H3804 H 0.74927 0.79685 0.53456 0.0
H3805 H 0.70324 0.76992 0.51333 0.0
H3806 H 0.76369 0.79491 0.5057 0.0
H3807 H 0.718 0.76722 0.48475 0.0
H3808 H 0.74183 0.78292 0.43124 0.0
H3809 H 0.72727 0.78532 0.45999 0.0
H3810 H 0.7769 0.77319 0.48616 0.0
H3811 H 0.79164 0.77165 0.45747 0.0
C3812 C 0.7422 0.79053 0.52377 0.0
C3813 C 0.72508 0.78354 0.52633 0.0
C3814 C 0.75057 0.78922 0.50727 0.0
C3815 C 0.74202 0.78086 0.49293 0.0
C3816 C 0.72489 0.7739 0.49546 0.0
C3817 C 0.71651 0.77525 0.51195 0.0
C3818 C 0.74968 0.78092 0.44311 0.0
C3819 C 0.76793 0.77712 0.44199 0.0
C3820 C 0.74128 0.78209 0.45961 0.0
C3821 C 0.75092 0.77945 0.47538 0.0
C3822 C 0.76913 0.77551 0.47427 0.0
C3823 C 0.77754 0.77438 0.45778 0.0
H3824 H 0.95058 0.99729 0.2095 0.0
H3825 H 0.00142 0.02096 0.22165 0.0
H3826 H 0.94864 0.98597 0.23983 0.0
H3827 H 0.99939 0.0098 0.25193 0.0
H3828 H 0.97674 0.00886 0.30858 0.0
H3829 H 0.98036 0.01721 0.27757 0.0
H3830 H 0.96282 0.96499 0.26144 0.0
H3831 H 0.95878 0.95676 0.29266 0.0
C3832 C 0.96144 0.99987 0.21854 0.0
C3833 C 0.97605 0.01022 0.21321 0.0
C3834 C 0.96033 0.99338 0.23591 0.0
C3835 C 0.97379 0.99715 0.24827 0.0
C3836 C 0.98866 0.00697 0.24277 0.0
C3837 C 0.98979 0.01342 0.22543 0.0
C3838 C 0.97357 0.99919 0.29843 0.0
C3839 C 0.96738 0.9822 0.30304 0.0
C3840 C 0.97584 0.00389 0.28067 0.0
C3841 C 0.97192 0.99173 0.26709 0.0
C3842 C 0.96585 0.97466 0.27165 0.0
C3843 C 0.96368 0.96991 0.28949 0.0
H3844 H 0.28719 0.72892 0.5365 0.0
H3845 H 0.24322 0.69734 0.55567 0.0
H3846 H 0.27305 0.73113 0.50765 0.0
H3847 H 0.22956 0.69873 0.52642 0.0
H3848 H 0.20131 0.71893 0.47667 0.0
H3849 H 0.21473 0.71824 0.50611 0.0
H3850 H 0.26673 0.71379 0.48224 0.0
H3851 H 0.25349 0.71548 0.45297 0.0
C3852 C 0.27451 0.72243 0.53464 0.0
C3853 C 0.26639 0.71298 0.54859 0.0
C3854 C 0.26648 0.72352 0.51793 0.0
C3855 C 0.25015 0.71506 0.51461 0.0
C3856 C 0.24202 0.70559 0.52852 0.0
C3857 C 0.25001 0.70459 0.54529 0.0
C3858 C 0.21562 0.71805 0.47766 0.0
C3859 C 0.22625 0.71723 0.4623 0.0
C3860 C 0.22332 0.71742 0.4946 0.0
C3861 C 0.24184 0.71592 0.49662 0.0
C3862 C 0.25245 0.71518 0.48127 0.0
C3863 C 0.24478 0.7159 0.46439 0.0
H3864 H 0.44059 0.48703 0.79316 0.0
H3865 H 0.49437 0.46816 0.78666 0.0
H3866 H 0.44288 0.50332 0.76531 0.0
H3867 H 0.49651 0.48415 0.75845 0.0
H3868 H 0.4987 0.53041 0.71771 0.0
H3869 H 0.49733 0.515 0.74633 0.0
H3870 H 0.44465 0.49622 0.73361 0.0
H3871 H 0.44584 0.5119 0.70537 0.0
C3872 C 0.45294 0.48642 0.78584 0.0
C3873 C 0.46729 0.47627 0.79218 0.0
C3874 C 0.4542 0.49562 0.76977 0.0
C3875 C 0.46986 0.49498 0.75962 0.0
C3876 C 0.4843 0.48501 0.76602 0.0
C3877 C 0.48301 0.47569 0.78209 0.0
C3878 C 0.4868 0.5231 0.72111 0.0
C3879 C 0.4724 0.52237 0.70922 0.0
C3880 C 0.48608 0.51413 0.73742 0.0
C3881 C 0.47087 0.5044 0.74226 0.0
C3882 C 0.45649 0.50374 0.73038 0.0
C3883 C 0.45726 0.51258 0.71408 0.0
H3884 H 0.78569 0.56126 0.74919 0.0
H3885 H 0.77968 0.53061 0.70114 0.0
H3886 H 0.78358 0.534 0.76687 0.0
H3887 H 0.77746 0.50343 0.71877 0.0
H3888 H 0.79973 0.45908 0.75428 0.0
H3889 H 0.79955 0.48667 0.73776 0.0
H3890 H 0.76165 0.50878 0.77459 0.0
H3891 H 0.76129 0.48072 0.79109 0.0
C3892 C 0.78388 0.54871 0.74242 0.0
C3893 C 0.78296 0.54808 0.72375 0.0
C3894 C 0.7825 0.53314 0.75254 0.0
C3895 C 0.78044 0.51657 0.7442 0.0
C3896 C 0.7792 0.51599 0.72557 0.0
C3897 C 0.78033 0.53156 0.71547 0.0
C3898 C 0.7911 0.46959 0.75886 0.0
C3899 C 0.7803 0.46737 0.77399 0.0
C3900 C 0.79106 0.48551 0.74933 0.0
C3901 C 0.78044 0.49982 0.75473 0.0
C3902 C 0.77 0.49795 0.77012 0.0
C3903 C 0.76985 0.48186 0.77961 0.0
H3904 H 0.79095 0.50885 0.99009 0.0
H3905 H 0.77481 0.53179 0.04016 0.0
H3906 H 0.76109 0.51305 0.97853 0.0
H3907 H 0.74471 0.53526 0.02884 0.0
H3908 H 0.69913 0.55779 0.99486 0.0
H3909 H 0.72859 0.55311 0.00738 0.0
H3910 H 0.7312 0.5017 0.98197 0.0
H3911 H 0.70177 0.50646 0.96938 0.0
C3912 C 0.78106 0.51479 0.99864 0.0
C3913 C 0.78536 0.52003 0.01605 0.0
C3914 C 0.76385 0.51698 0.99209 0.0
C3915 C 0.75049 0.52445 0.00277 0.0
C3916 C 0.75474 0.52962 0.0202 0.0
C3917 C 0.77197 0.52743 0.02676 0.0
C3918 C 0.70589 0.54541 0.99212 0.0
C3919 C 0.69811 0.53253 0.98107 0.0
C3920 C 0.72279 0.54271 0.9993 0.0
C3921 C 0.73228 0.52705 0.99563 0.0
C3922 C 0.72438 0.51405 0.9848 0.0
C3923 C 0.7075 0.51677 0.97759 0.0
H3924 H 0.72303 0.5159 0.2968 0.0
H3925 H 0.72633 0.54172 0.24565 0.0
H3926 H 0.72383 0.48694 0.28224 0.0
H3927 H 0.72666 0.51279 0.23107 0.0
H3928 H 0.74377 0.45717 0.21255 0.0
H3929 H 0.74529 0.48593 0.22742 0.0
H3930 H 0.70357 0.46959 0.26324 0.0
H3931 H 0.70185 0.44104 0.24834 0.0
C3932 C 0.72406 0.5154 0.28247 0.0
C3933 C 0.72454 0.53112 0.27239 0.0
C3934 C 0.72434 0.49882 0.27412 0.0
C3935 C 0.72522 0.49758 0.25549 0.0
C3936 C 0.7261 0.51329 0.24544 0.0
C3937 C 0.72571 0.52987 0.25379 0.0
C3938 C 0.73483 0.45973 0.2235 0.0
C3939 C 0.72272 0.44668 0.22922 0.0
C3940 C 0.73573 0.47621 0.23205 0.0
C3941 C 0.72461 0.47999 0.24656 0.0
C3942 C 0.71255 0.46697 0.25231 0.0
C3943 C 0.71159 0.45055 0.24373 0.0
H3944 H 0.79856 0.43827 0.48848 0.0
H3945 H 0.79525 0.49529 0.48317 0.0
H3946 H 0.76948 0.43783 0.50271 0.0
H3947 H 0.7659 0.49484 0.49721 0.0
H3948 H 0.72166 0.48709 0.53983 0.0
H3949 H 0.75169 0.48792 0.52711 0.0
H3950 H 0.73842 0.44357 0.49326 0.0
H3951 H 0.70874 0.44264 0.50604 0.0
C3952 C 0.79163 0.45072 0.49039 0.0
C3953 C 0.7992 0.4668 0.48467 0.0
C3954 C 0.77492 0.45046 0.49844 0.0
C3955 C 0.7654 0.46631 0.50108 0.0
C3956 C 0.77299 0.48244 0.49548 0.0
C3957 C 0.78968 0.48267 0.48725 0.0
C3958 C 0.72528 0.47745 0.5298 0.0
C3959 C 0.71284 0.46486 0.52387 0.0
C3960 C 0.74237 0.47802 0.52241 0.0
C3961 C 0.74739 0.46582 0.50915 0.0
C3962 C 0.73501 0.45306 0.50352 0.0
C3963 C 0.71795 0.45262 0.51074 0.0
H3964 H 0.53517 0.95602 0.71997 0.0
H3965 H 0.52442 0.00571 0.69332 0.0
H3966 H 0.5337 0.97119 0.74868 0.0
H3967 H 0.52352 0.02089 0.72177 0.0
H3968 H 0.50658 0.04014 0.77626 0.0
H3969 H 0.50577 0.02345 0.74856 0.0
H3970 H 0.55123 0.99286 0.76562 0.0
H3971 H 0.55208 0.00957 0.7933 0.0
C3972 C 0.5324 0.97013 0.72023 0.0
C3973 C 0.53003 0.97966 0.70433 0.0
C3974 C 0.53173 0.97887 0.73665 0.0
C3975 C 0.52854 0.99728 0.73753 0.0
C3976 C 0.52584 0.00669 0.72163 0.0
C3977 C 0.52657 0.998 0.70527 0.0
C3978 C 0.51649 0.02995 0.77408 0.0
C3979 C 0.52946 0.02631 0.78702 0.0
C3980 C 0.516 0.02034 0.7582 0.0
C3981 C 0.52847 0.00683 0.75484 0.0
C3982 C 0.54127 0.00299 0.76788 0.0
C3983 C 0.54177 0.01262 0.78376 0.0
loop_
_geom_bond_atom_site_label_1
_geom_bond_atom_site_label_2
_geom_bond_distance
_geom_bond_site_symmetry_2
_ccdc_geom_bond_type
C0 C1 1.351 . S
C0 N3 1.368 . S
C0 H5 0.931 . S
C1 C0 1.351 . S
C1 N2 1.373 . S
C1 H29 0.930 . S
N2 C1 1.373 . S
N2 C4 1.340 . S
N3 C0 1.368 . S
N3 C4 1.321 . S
N3 Co6 2.135 . S
C4 N2 1.340 . S
C4 N3 1.321 . S
C4 H28 0.930 . S
H5 C0 0.931 . S
Co6 N3 2.135 . S
Co6 N9 2.121 . S
Co6 O14 2.055 . S
Co6 O17 2.039 . S
Co6 N20 2.140 . S
C7 O8 1.227 . S
C7 O17 1.265 . S
O8 C7 1.227 . S
N9 Co6 2.121 . S
N9 C11 1.375 . S
N9 C12 1.313 . S
C10 C11 1.338 . S
C10 N13 1.377 . S
C10 H30 0.930 . S
C11 N9 1.375 . S
C11 C10 1.338 . S
C11 H15 0.931 . S
C12 N9 1.313 . S
C12 N13 1.344 . S
C12 H16 0.930 . S
N13 C10 1.377 . S
N13 C12 1.344 . S
O14 Co6 2.055 . S
O14 C18 1.253 . S
H15 C11 0.931 . S
H16 C12 0.930 . S
O17 Co6 2.039 . S
O17 C7 1.265 . S
C18 O14 1.253 . S
C18 O19 1.227 . S
O19 C18 1.227 . S
N20 Co6 2.140 . S
N20 C23 1.346 . S
N20 C24 1.345 . S
C21 C22 1.387 . S
C21 C25 1.391 . S
C22 C21 1.387 . S
C22 C23 1.369 . S
C22 H31 0.929 . S
C23 N20 1.346 . S
C23 C22 1.369 . S
C23 H26 0.928 . S
C24 N20 1.345 . S
C24 C25 1.371 . S
C24 H27 0.931 . S
C25 C21 1.391 . S
C25 C24 1.371 . S
C25 H32 0.930 . S
H26 C23 0.928 . S
H27 C24 0.931 . S
H28 C4 0.930 . S
H29 C1 0.930 . S
H30 C10 0.930 . S
H31 C22 0.929 . S
H32 C25 0.930 . S
C33 C34 1.351 . S
C33 N36 1.368 . S
C33 H38 0.931 . S
C34 C33 1.351 . S
C34 N35 1.373 . S
C34 H62 0.930 . S
N35 C34 1.373 . S
N35 C37 1.340 . S
N36 C33 1.368 . S
N36 C37 1.321 . S
N36 Co39 2.135 . S
C37 N35 1.340 . S
C37 N36 1.321 . S
C37 H61 0.930 . S
H38 C33 0.931 . S
Co39 N36 2.135 . S
Co39 N42 2.121 . S
Co39 O47 2.055 . S
Co39 O50 2.039 . S
Co39 N53 2.140 . S
C40 O41 1.227 . S
C40 O50 1.265 . S
O41 C40 1.227 . S
N42 Co39 2.121 . S
N42 C44 1.375 . S
N42 C45 1.313 . S
C43 C44 1.338 . S
C43 N46 1.377 . S
C43 H63 0.930 . S
C44 N42 1.375 . S
C44 C43 1.338 . S
C44 H48 0.931 . S
C45 N42 1.313 . S
C45 N46 1.344 . S
C45 H49 0.930 . S
N46 C43 1.377 . S
N46 C45 1.344 . S
O47 Co39 2.055 . S
O47 C51 1.253 . S
H48 C44 0.931 . S
H49 C45 0.930 . S
O50 Co39 2.039 . S
O50 C40 1.265 . S
C51 O47 1.253 . S
C51 O52 1.227 . S
O52 C51 1.227 . S
N53 Co39 2.140 . S
N53 C56 1.346 . S
N53 C57 1.345 . S
C54 C55 1.387 . S
C54 C58 1.391 . S
C55 C54 1.387 . S
C55 C56 1.369 . S
C55 H64 0.929 . S
C56 N53 1.346 . S
C56 C55 1.369 . S
C56 H59 0.928 . S
C57 N53 1.345 . S
C57 C58 1.371 . S
C57 H60 0.931 . S
C58 C54 1.391 . S
C58 C57 1.371 . S
C58 H65 0.930 . S
H59 C56 0.928 . S
H60 C57 0.931 . S
H61 C37 0.930 . S
H62 C34 0.930 . S
H63 C43 0.930 . S
H64 C55 0.929 . S
H65 C58 0.930 . S
C66 C67 1.351 . S
C66 N69 1.368 . S
C66 H71 0.931 . S
C67 C66 1.351 . S
C67 N68 1.373 . S
C67 H95 0.930 . S
N68 C67 1.373 . S
N68 C70 1.340 . S
N69 C66 1.368 . S
N69 C70 1.321 . S
N69 Co72 2.135 . S
C70 N68 1.340 . S
C70 N69 1.321 . S
C70 H94 0.930 . S
H71 C66 0.931 . S
Co72 N69 2.135 . S
Co72 N75 2.121 . S
Co72 O80 2.055 . S
Co72 O83 2.039 . S
Co72 N86 2.140 . S
C73 O74 1.227 . S
C73 O83 1.265 . S
O74 C73 1.227 . S
N75 Co72 2.121 . S
N75 C77 1.375 . S
N75 C78 1.313 . S
C76 C77 1.338 . S
C76 N79 1.377 . S
C76 H96 0.930 . S
C77 N75 1.375 . S
C77 C76 1.338 . S
C77 H81 0.931 . S
C78 N75 1.313 . S
C78 N79 1.344 . S
C78 H82 0.930 . S
N79 C76 1.377 . S
N79 C78 1.344 . S
O80 Co72 2.055 . S
O80 C84 1.253 . S
H81 C77 0.931 . S
H82 C78 0.930 . S
O83 Co72 2.039 . S
O83 C73 1.265 . S
C84 O80 1.253 . S
C84 O85 1.227 . S
O85 C84 1.227 . S
N86 Co72 2.140 . S
N86 C89 1.346 . S
N86 C90 1.345 . S
C87 C88 1.387 . S
C87 C91 1.391 . S
C88 C87 1.387 . S
C88 C89 1.369 . S
C88 H97 0.929 . S
C89 N86 1.346 . S
C89 C88 1.369 . S
C89 H92 0.928 . S
C90 N86 1.345 . S
C90 C91 1.371 . S
C90 H93 0.931 . S
C91 C87 1.391 . S
C91 C90 1.371 . S
C91 H98 0.930 . S
H92 C89 0.928 . S
H93 C90 0.931 . S
H94 C70 0.930 . S
H95 C67 0.930 . S
H96 C76 0.930 . S
H97 C88 0.929 . S
H98 C91 0.930 . S
C99 C100 1.351 . S
C99 N102 1.368 . S
C99 H104 0.931 . S
C100 C99 1.351 . S
C100 N101 1.373 . S
C100 H128 0.930 . S
N101 C100 1.373 . S
N101 C103 1.340 . S
N102 C99 1.368 . S
N102 C103 1.321 . S
N102 Co105 2.135 . S
C103 N101 1.340 . S
C103 N102 1.321 . S
C103 H127 0.930 . S
H104 C99 0.931 . S
Co105 N102 2.135 . S
Co105 N108 2.121 . S
Co105 O113 2.055 . S
Co105 O116 2.039 . S
Co105 N119 2.140 . S
C106 O107 1.227 . S
C106 O116 1.265 . S
O107 C106 1.227 . S
N108 Co105 2.121 . S
N108 C110 1.375 . S
N108 C111 1.313 . S
C109 C110 1.338 . S
C109 N112 1.377 . S
C109 H129 0.930 . S
C110 N108 1.375 . S
C110 C109 1.338 . S
C110 H114 0.931 . S
C111 N108 1.313 . S
C111 N112 1.344 . S
C111 H115 0.930 . S
N112 C109 1.377 . S
N112 C111 1.344 . S
O113 Co105 2.055 . S
O113 C117 1.253 . S
H114 C110 0.931 . S
H115 C111 0.930 . S
O116 Co105 2.039 . S
O116 C106 1.265 . S
C117 O113 1.253 . S
C117 O118 1.227 . S
O118 C117 1.227 . S
N119 Co105 2.140 . S
N119 C122 1.346 . S
N119 C123 1.345 . S
C120 C121 1.387 . S
C120 C124 1.391 . S
C121 C120 1.387 . S
C121 C122 1.369 . S
C121 H130 0.929 . S
C122 N119 1.346 . S
C122 C121 1.369 . S
C122 H125 0.928 . S
C123 N119 1.345 . S
C123 C124 1.371 . S
C123 H126 0.931 . S
C124 C120 1.391 . S
C124 C123 1.371 . S
C124 H131 0.930 . S
H125 C122 0.928 . S
H126 C123 0.931 . S
H127 C103 0.930 . S
H128 C100 0.930 . S
H129 C109 0.930 . S
H130 C121 0.929 . S
H131 C124 0.930 . S
C132 C133 1.351 . S
C132 N135 1.368 . S
C132 H137 0.931 . S
C133 C132 1.351 . S
C133 N134 1.373 . S
C133 H161 0.930 . S
N134 C133 1.373 . S
N134 C136 1.340 . S
N135 C132 1.368 . S
N135 C136 1.321 . S
N135 Co138 2.135 . S
C136 N134 1.340 . S
C136 N135 1.321 . S
C136 H160 0.930 . S
H137 C132 0.931 . S
Co138 N135 2.135 . S
Co138 N141 2.121 . S
Co138 O146 2.055 . S
Co138 O149 2.039 . S
Co138 N152 2.140 . S
C139 O140 1.227 . S
C139 O149 1.265 . S
O140 C139 1.227 . S
N141 Co138 2.121 . S
N141 C143 1.375 . S
N141 C144 1.313 . S
C142 C143 1.338 . S
C142 N145 1.377 . S
C142 H162 0.930 . S
C143 N141 1.375 . S
C143 C142 1.338 . S
C143 H147 0.931 . S
C144 N141 1.313 . S
C144 N145 1.344 . S
C144 H148 0.930 . S
N145 C142 1.377 . S
N145 C144 1.344 . S
O146 Co138 2.055 . S
O146 C150 1.253 . S
H147 C143 0.931 . S
H148 C144 0.930 . S
O149 Co138 2.039 . S
O149 C139 1.265 . S
C150 O146 1.253 . S
C150 O151 1.227 . S
O151 C150 1.227 . S
N152 Co138 2.140 . S
N152 C155 1.346 . S
N152 C156 1.345 . S
C153 C154 1.387 . S
C153 C157 1.391 . S
C154 C153 1.387 . S
C154 C155 1.369 . S
C154 H163 0.929 . S
C155 N152 1.346 . S
C155 C154 1.369 . S
C155 H158 0.928 . S
C156 N152 1.345 . S
C156 C157 1.371 . S
C156 H159 0.931 . S
C157 C153 1.391 . S
C157 C156 1.371 . S
C157 H164 0.930 . S
H158 C155 0.928 . S
H159 C156 0.931 . S
H160 C136 0.930 . S
H161 C133 0.930 . S
H162 C142 0.930 . S
H163 C154 0.929 . S
H164 C157 0.930 . S
C165 C166 1.351 . S
C165 N168 1.368 . S
C165 H170 0.931 . S
C166 C165 1.351 . S
C166 N167 1.373 . S
C166 H194 0.930 . S
N167 C166 1.373 . S
N167 C169 1.340 . S
N168 C165 1.368 . S
N168 C169 1.321 . S
N168 Co171 2.135 . S
C169 N167 1.340 . S
C169 N168 1.321 . S
C169 H193 0.930 . S
H170 C165 0.931 . S
Co171 N168 2.135 . S
Co171 N174 2.121 . S
Co171 O179 2.055 . S
Co171 O182 2.039 . S
Co171 N185 2.140 . S
C172 O173 1.227 . S
C172 O182 1.265 . S
O173 C172 1.227 . S
N174 Co171 2.121 . S
N174 C176 1.375 . S
N174 C177 1.313 . S
C175 C176 1.338 . S
C175 N178 1.377 . S
C175 H195 0.930 . S
C176 N174 1.375 . S
C176 C175 1.338 . S
C176 H180 0.931 . S
C177 N174 1.313 . S
C177 N178 1.344 . S
C177 H181 0.930 . S
N178 C175 1.377 . S
N178 C177 1.344 . S
O179 Co171 2.055 . S
O179 C183 1.253 . S
H180 C176 0.931 . S
H181 C177 0.930 . S
O182 Co171 2.039 . S
O182 C172 1.265 . S
C183 O179 1.253 . S
C183 O184 1.227 . S
O184 C183 1.227 . S
N185 Co171 2.140 . S
N185 C188 1.346 . S
N185 C189 1.345 . S
C186 C187 1.387 . S
C186 C190 1.391 . S
C187 C186 1.387 . S
C187 C188 1.369 . S
C187 H196 0.929 . S
C188 N185 1.346 . S
C188 C187 1.369 . S
C188 H191 0.928 . S
C189 N185 1.345 . S
C189 C190 1.371 . S
C189 H192 0.931 . S
C190 C186 1.391 . S
C190 C189 1.371 . S
C190 H197 0.930 . S
H191 C188 0.928 . S
H192 C189 0.931 . S
H193 C169 0.930 . S
H194 C166 0.930 . S
H195 C175 0.930 . S
H196 C187 0.929 . S
H197 C190 0.930 . S
C198 C199 1.351 . S
C198 N201 1.368 . S
C198 H203 0.931 . S
C199 C198 1.351 . S
C199 N200 1.373 . S
C199 H227 0.930 . S
N200 C199 1.373 . S
N200 C202 1.340 . S
N201 C198 1.368 . S
N201 C202 1.321 . S
N201 Co204 2.135 . S
C202 N200 1.340 . S
C202 N201 1.321 . S
C202 H226 0.930 . S
H203 C198 0.931 . S
Co204 N201 2.135 . S
Co204 N207 2.121 . S
Co204 O212 2.055 . S
Co204 O215 2.039 . S
Co204 N218 2.140 . S
C205 O206 1.227 . S
C205 O215 1.265 . S
O206 C205 1.227 . S
N207 Co204 2.121 . S
N207 C209 1.375 . S
N207 C210 1.313 . S
C208 C209 1.338 . S
C208 N211 1.377 . S
C208 H228 0.930 . S
C209 N207 1.375 . S
C209 C208 1.338 . S
C209 H213 0.931 . S
C210 N207 1.313 . S
C210 N211 1.344 . S
C210 H214 0.930 . S
N211 C208 1.377 . S
N211 C210 1.344 . S
O212 Co204 2.055 . S
O212 C216 1.253 . S
H213 C209 0.931 . S
H214 C210 0.930 . S
O215 Co204 2.039 . S
O215 C205 1.265 . S
C216 O212 1.253 . S
C216 O217 1.227 . S
O217 C216 1.227 . S
N218 Co204 2.140 . S
N218 C221 1.346 . S
N218 C222 1.345 . S
C219 C220 1.387 . S
C219 C223 1.391 . S
C220 C219 1.387 . S
C220 C221 1.369 . S
C220 H229 0.929 . S
C221 N218 1.346 . S
C221 C220 1.369 . S
C221 H224 0.928 . S
C222 N218 1.345 . S
C222 C223 1.371 . S
C222 H225 0.931 . S
C223 C219 1.391 . S
C223 C222 1.371 . S
C223 H230 0.930 . S
H224 C221 0.928 . S
H225 C222 0.931 . S
H226 C202 0.930 . S
H227 C199 0.930 . S
H228 C208 0.930 . S
H229 C220 0.929 . S
H230 C223 0.930 . S
C231 C232 1.351 . S
C231 N234 1.368 . S
C231 H236 0.931 . S
C232 C231 1.351 . S
C232 N233 1.373 . S
C232 H260 0.930 . S
N233 C232 1.373 . S
N233 C235 1.340 . S
N234 C231 1.368 . S
N234 C235 1.321 . S
N234 Co237 2.135 . S
C235 N233 1.340 . S
C235 N234 1.321 . S
C235 H259 0.930 . S
H236 C231 0.931 . S
Co237 N234 2.135 . S
Co237 N240 2.121 . S
Co237 O245 2.055 . S
Co237 O248 2.039 . S
Co237 N251 2.140 . S
C238 O239 1.227 . S
C238 O248 1.265 . S
O239 C238 1.227 . S
N240 Co237 2.121 . S
N240 C242 1.375 . S
N240 C243 1.313 . S
C241 C242 1.338 . S
C241 N244 1.377 . S
C241 H261 0.930 . S
C242 N240 1.375 . S
C242 C241 1.338 . S
C242 H246 0.931 . S
C243 N240 1.313 . S
C243 N244 1.344 . S
C243 H247 0.930 . S
N244 C241 1.377 . S
N244 C243 1.344 . S
O245 Co237 2.055 . S
O245 C249 1.253 . S
H246 C242 0.931 . S
H247 C243 0.930 . S
O248 Co237 2.039 . S
O248 C238 1.265 . S
C249 O245 1.253 . S
C249 O250 1.227 . S
O250 C249 1.227 . S
N251 Co237 2.140 . S
N251 C254 1.346 . S
N251 C255 1.345 . S
C252 C253 1.387 . S
C252 C256 1.391 . S
C253 C252 1.387 . S
C253 C254 1.369 . S
C253 H262 0.929 . S
C254 N251 1.346 . S
C254 C253 1.369 . S
C254 H257 0.928 . S
C255 N251 1.345 . S
C255 C256 1.371 . S
C255 H258 0.931 . S
C256 C252 1.391 . S
C256 C255 1.371 . S
C256 H263 0.930 . S
H257 C254 0.928 . S
H258 C255 0.931 . S
H259 C235 0.930 . S
H260 C232 0.930 . S
H261 C241 0.930 . S
H262 C253 0.929 . S
H263 C256 0.930 . S
C264 C265 1.351 . S
C264 N267 1.368 . S
C264 H269 0.931 . S
C265 C264 1.351 . S
C265 N266 1.373 . S
C265 H293 0.930 . S
N266 C265 1.373 . S
N266 C268 1.340 . S
N267 C264 1.368 . S
N267 C268 1.321 . S
N267 Co270 2.135 . S
C268 N266 1.340 . S
C268 N267 1.321 . S
C268 H292 0.930 . S
H269 C264 0.931 . S
Co270 N267 2.135 . S
Co270 N273 2.121 . S
Co270 O278 2.055 . S
Co270 O281 2.039 . S
Co270 N284 2.140 . S
C271 O272 1.227 . S
C271 O281 1.265 . S
O272 C271 1.227 . S
N273 Co270 2.121 . S
N273 C275 1.375 . S
N273 C276 1.313 . S
C274 C275 1.338 . S
C274 N277 1.377 . S
C274 H294 0.930 . S
C275 N273 1.375 . S
C275 C274 1.338 . S
C275 H279 0.931 . S
C276 N273 1.313 . S
C276 N277 1.344 . S
C276 H280 0.930 . S
N277 C274 1.377 . S
N277 C276 1.344 . S
O278 Co270 2.055 . S
O278 C282 1.253 . S
H279 C275 0.931 . S
H280 C276 0.930 . S
O281 Co270 2.039 . S
O281 C271 1.265 . S
C282 O278 1.253 . S
C282 O283 1.227 . S
O283 C282 1.227 . S
N284 Co270 2.140 . S
N284 C287 1.346 . S
N284 C288 1.345 . S
C285 C286 1.387 . S
C285 C289 1.391 . S
C286 C285 1.387 . S
C286 C287 1.369 . S
C286 H295 0.929 . S
C287 N284 1.346 . S
C287 C286 1.369 . S
C287 H290 0.928 . S
C288 N284 1.345 . S
C288 C289 1.371 . S
C288 H291 0.931 . S
C289 C285 1.391 . S
C289 C288 1.371 . S
C289 H296 0.930 . S
H290 C287 0.928 . S
H291 C288 0.931 . S
H292 C268 0.930 . S
H293 C265 0.930 . S
H294 C274 0.930 . S
H295 C286 0.929 . S
H296 C289 0.930 . S
C297 C298 1.351 . S
C297 N300 1.368 . S
C297 H302 0.931 . S
C298 C297 1.351 . S
C298 N299 1.373 . S
C298 H326 0.930 . S
N299 C298 1.373 . S
N299 C301 1.340 . S
N300 C297 1.368 . S
N300 C301 1.321 . S
N300 Co303 2.135 . S
C301 N299 1.340 . S
C301 N300 1.321 . S
C301 H325 0.930 . S
H302 C297 0.931 . S
Co303 N300 2.135 . S
Co303 N306 2.121 . S
Co303 O311 2.055 . S
Co303 O314 2.039 . S
Co303 N317 2.140 . S
C304 O305 1.227 . S
C304 O314 1.265 . S
O305 C304 1.227 . S
N306 Co303 2.121 . S
N306 C308 1.375 . S
N306 C309 1.313 . S
C307 C308 1.338 . S
C307 N310 1.377 . S
C307 H327 0.930 . S
C308 N306 1.375 . S
C308 C307 1.338 . S
C308 H312 0.931 . S
C309 N306 1.313 . S
C309 N310 1.344 . S
C309 H313 0.930 . S
N310 C307 1.377 . S
N310 C309 1.344 . S
O311 Co303 2.055 . S
O311 C315 1.253 . S
H312 C308 0.931 . S
H313 C309 0.930 . S
O314 Co303 2.039 . S
O314 C304 1.265 . S
C315 O311 1.253 . S
C315 O316 1.227 . S
O316 C315 1.227 . S
N317 Co303 2.140 . S
N317 C320 1.346 . S
N317 C321 1.345 . S
C318 C319 1.387 . S
C318 C322 1.391 . S
C319 C318 1.387 . S
C319 C320 1.369 . S
C319 H328 0.929 . S
C320 N317 1.346 . S
C320 C319 1.369 . S
C320 H323 0.928 . S
C321 N317 1.345 . S
C321 C322 1.371 . S
C321 H324 0.931 . S
C322 C318 1.391 . S
C322 C321 1.371 . S
C322 H329 0.930 . S
H323 C320 0.928 . S
H324 C321 0.931 . S
H325 C301 0.930 . S
H326 C298 0.930 . S
H327 C307 0.930 . S
H328 C319 0.929 . S
H329 C322 0.930 . S
C330 C331 1.351 . S
C330 N333 1.368 . S
C330 H335 0.931 . S
C331 C330 1.351 . S
C331 N332 1.373 . S
C331 H359 0.930 . S
N332 C331 1.373 . S
N332 C334 1.340 . S
N333 C330 1.368 . S
N333 C334 1.321 . S
N333 Co336 2.135 . S
C334 N332 1.340 . S
C334 N333 1.321 . S
C334 H358 0.930 . S
H335 C330 0.931 . S
Co336 N333 2.135 . S
Co336 N339 2.121 . S
Co336 O344 2.055 . S
Co336 O347 2.039 . S
Co336 N350 2.140 . S
C337 O338 1.227 . S
C337 O347 1.265 . S
O338 C337 1.227 . S
N339 Co336 2.121 . S
N339 C341 1.375 . S
N339 C342 1.313 . S
C340 C341 1.338 . S
C340 N343 1.377 . S
C340 H360 0.930 . S
C341 N339 1.375 . S
C341 C340 1.338 . S
C341 H345 0.931 . S
C342 N339 1.313 . S
C342 N343 1.344 . S
C342 H346 0.930 . S
N343 C340 1.377 . S
N343 C342 1.344 . S
O344 Co336 2.055 . S
O344 C348 1.253 . S
H345 C341 0.931 . S
H346 C342 0.930 . S
O347 Co336 2.039 . S
O347 C337 1.265 . S
C348 O344 1.253 . S
C348 O349 1.227 . S
O349 C348 1.227 . S
N350 Co336 2.140 . S
N350 C353 1.346 . S
N350 C354 1.345 . S
C351 C352 1.387 . S
C351 C355 1.391 . S
C352 C351 1.387 . S
C352 C353 1.369 . S
C352 H361 0.929 . S
C353 N350 1.346 . S
C353 C352 1.369 . S
C353 H356 0.928 . S
C354 N350 1.345 . S
C354 C355 1.371 . S
C354 H357 0.931 . S
C355 C351 1.391 . S
C355 C354 1.371 . S
C355 H362 0.930 . S
H356 C353 0.928 . S
H357 C354 0.931 . S
H358 C334 0.930 . S
H359 C331 0.930 . S
H360 C340 0.930 . S
H361 C352 0.929 . S
H362 C355 0.930 . S
C363 C364 1.351 . S
C363 N366 1.368 . S
C363 H368 0.931 . S
C364 C363 1.351 . S
C364 N365 1.373 . S
C364 H392 0.930 . S
N365 C364 1.373 . S
N365 C367 1.340 . S
N366 C363 1.368 . S
N366 C367 1.321 . S
N366 Co369 2.135 . S
C367 N365 1.340 . S
C367 N366 1.321 . S
C367 H391 0.930 . S
H368 C363 0.931 . S
Co369 N366 2.135 . S
Co369 N372 2.121 . S
Co369 O377 2.055 . S
Co369 O380 2.039 . S
Co369 N383 2.140 . S
C370 O371 1.227 . S
C370 O380 1.265 . S
O371 C370 1.227 . S
N372 Co369 2.121 . S
N372 C374 1.375 . S
N372 C375 1.313 . S
C373 C374 1.338 . S
C373 N376 1.377 . S
C373 H393 0.930 . S
C374 N372 1.375 . S
C374 C373 1.338 . S
C374 H378 0.931 . S
C375 N372 1.313 . S
C375 N376 1.344 . S
C375 H379 0.930 . S
N376 C373 1.377 . S
N376 C375 1.344 . S
O377 Co369 2.055 . S
O377 C381 1.253 . S
H378 C374 0.931 . S
H379 C375 0.930 . S
O380 Co369 2.039 . S
O380 C370 1.265 . S
C381 O377 1.253 . S
C381 O382 1.227 . S
O382 C381 1.227 . S
N383 Co369 2.140 . S
N383 C386 1.346 . S
N383 C387 1.345 . S
C384 C385 1.387 . S
C384 C388 1.391 . S
C385 C384 1.387 . S
C385 C386 1.369 . S
C385 H394 0.929 . S
C386 N383 1.346 . S
C386 C385 1.369 . S
C386 H389 0.928 . S
C387 N383 1.345 . S
C387 C388 1.371 . S
C387 H390 0.931 . S
C388 C384 1.391 . S
C388 C387 1.371 . S
C388 H395 0.930 . S
H389 C386 0.928 . S
H390 C387 0.931 . S
H391 C367 0.930 . S
H392 C364 0.930 . S
H393 C373 0.930 . S
H394 C385 0.929 . S
H395 C388 0.930 . S
C396 C397 1.351 . S
C396 N399 1.368 . S
C396 H401 0.931 . S
C397 C396 1.351 . S
C397 N398 1.373 . S
C397 H425 0.930 . S
N398 C397 1.373 . S
N398 C400 1.340 . S
N399 C396 1.368 . S
N399 C400 1.321 . S
N399 Co402 2.135 . S
C400 N398 1.340 . S
C400 N399 1.321 . S
C400 H424 0.930 . S
H401 C396 0.931 . S
Co402 N399 2.135 . S
Co402 N405 2.121 . S
Co402 O410 2.055 . S
Co402 O413 2.039 . S
Co402 N416 2.140 . S
C403 O404 1.227 . S
C403 O413 1.265 . S
O404 C403 1.227 . S
N405 Co402 2.121 . S
N405 C407 1.375 . S
N405 C408 1.313 . S
C406 C407 1.338 . S
C406 N409 1.377 . S
C406 H426 0.930 . S
C407 N405 1.375 . S
C407 C406 1.338 . S
C407 H411 0.931 . S
C408 N405 1.313 . S
C408 N409 1.344 . S
C408 H412 0.930 . S
N409 C406 1.377 . S
N409 C408 1.344 . S
O410 Co402 2.055 . S
O410 C414 1.253 . S
H411 C407 0.931 . S
H412 C408 0.930 . S
O413 Co402 2.039 . S
O413 C403 1.265 . S
C414 O410 1.253 . S
C414 O415 1.227 . S
O415 C414 1.227 . S
N416 Co402 2.140 . S
N416 C419 1.346 . S
N416 C420 1.345 . S
C417 C418 1.387 . S
C417 C421 1.391 . S
C418 C417 1.387 . S
C418 C419 1.369 . S
C418 H427 0.929 . S
C419 N416 1.346 . S
C419 C418 1.369 . S
C419 H422 0.928 . S
C420 N416 1.345 . S
C420 C421 1.371 . S
C420 H423 0.931 . S
C421 C417 1.391 . S
C421 C420 1.371 . S
C421 H428 0.930 . S
H422 C419 0.928 . S
H423 C420 0.931 . S
H424 C400 0.930 . S
H425 C397 0.930 . S
H426 C406 0.930 . S
H427 C418 0.929 . S
H428 C421 0.930 . S
C429 C430 1.351 . S
C429 N432 1.368 . S
C429 H434 0.931 . S
C430 C429 1.351 . S
C430 N431 1.373 . S
C430 H458 0.930 . S
N431 C430 1.373 . S
N431 C433 1.340 . S
N432 C429 1.368 . S
N432 C433 1.321 . S
N432 Co435 2.135 . S
C433 N431 1.340 . S
C433 N432 1.321 . S
C433 H457 0.930 . S
H434 C429 0.931 . S
Co435 N432 2.135 . S
Co435 N438 2.121 . S
Co435 O443 2.055 . S
Co435 O446 2.039 . S
Co435 N449 2.140 . S
C436 O437 1.227 . S
C436 O446 1.265 . S
O437 C436 1.227 . S
N438 Co435 2.121 . S
N438 C440 1.375 . S
N438 C441 1.313 . S
C439 C440 1.338 . S
C439 N442 1.377 . S
C439 H459 0.930 . S
C440 N438 1.375 . S
C440 C439 1.338 . S
C440 H444 0.931 . S
C441 N438 1.313 . S
C441 N442 1.344 . S
C441 H445 0.930 . S
N442 C439 1.377 . S
N442 C441 1.344 . S
O443 Co435 2.055 . S
O443 C447 1.253 . S
H444 C440 0.931 . S
H445 C441 0.930 . S
O446 Co435 2.039 . S
O446 C436 1.265 . S
C447 O443 1.253 . S
C447 O448 1.227 . S
O448 C447 1.227 . S
N449 Co435 2.140 . S
N449 C452 1.346 . S
N449 C453 1.345 . S
C450 C451 1.387 . S
C450 C454 1.391 . S
C451 C450 1.387 . S
C451 C452 1.369 . S
C451 H460 0.929 . S
C452 N449 1.346 . S
C452 C451 1.369 . S
C452 H455 0.928 . S
C453 N449 1.345 . S
C453 C454 1.371 . S
C453 H456 0.931 . S
C454 C450 1.391 . S
C454 C453 1.371 . S
C454 H461 0.930 . S
H455 C452 0.928 . S
H456 C453 0.931 . S
H457 C433 0.930 . S
H458 C430 0.930 . S
H459 C439 0.930 . S
H460 C451 0.929 . S
H461 C454 0.930 . S
C462 C463 1.351 . S
C462 N465 1.368 . S
C462 H467 0.931 . S
C463 C462 1.351 . S
C463 N464 1.373 . S
C463 H491 0.930 . S
N464 C463 1.373 . S
N464 C466 1.340 . S
N465 C462 1.368 . S
N465 C466 1.321 . S
N465 Co468 2.135 . S
C466 N464 1.340 . S
C466 N465 1.321 . S
C466 H490 0.930 . S
H467 C462 0.931 . S
Co468 N465 2.135 . S
Co468 N471 2.121 . S
Co468 O476 2.055 . S
Co468 O479 2.039 . S
Co468 N482 2.140 . S
C469 O470 1.227 . S
C469 O479 1.265 . S
O470 C469 1.227 . S
N471 Co468 2.121 . S
N471 C473 1.375 . S
N471 C474 1.313 . S
C472 C473 1.338 . S
C472 N475 1.377 . S
C472 H492 0.930 . S
C473 N471 1.375 . S
C473 C472 1.338 . S
C473 H477 0.931 . S
C474 N471 1.313 . S
C474 N475 1.344 . S
C474 H478 0.930 . S
N475 C472 1.377 . S
N475 C474 1.344 . S
O476 Co468 2.055 . S
O476 C480 1.253 . S
H477 C473 0.931 . S
H478 C474 0.930 . S
O479 Co468 2.039 . S
O479 C469 1.265 . S
C480 O476 1.253 . S
C480 O481 1.227 . S
O481 C480 1.227 . S
N482 Co468 2.140 . S
N482 C485 1.346 . S
N482 C486 1.345 . S
C483 C484 1.387 . S
C483 C487 1.391 . S
C484 C483 1.387 . S
C484 C485 1.369 . S
C484 H493 0.929 . S
C485 N482 1.346 . S
C485 C484 1.369 . S
C485 H488 0.928 . S
C486 N482 1.345 . S
C486 C487 1.371 . S
C486 H489 0.931 . S
C487 C483 1.391 . S
C487 C486 1.371 . S
C487 H494 0.930 . S
H488 C485 0.928 . S
H489 C486 0.931 . S
H490 C466 0.930 . S
H491 C463 0.930 . S
H492 C472 0.930 . S
H493 C484 0.929 . S
H494 C487 0.930 . S
C495 C496 1.351 . S
C495 N498 1.368 . S
C495 H500 0.931 . S
C496 C495 1.351 . S
C496 N497 1.373 . S
C496 H524 0.930 . S
N497 C496 1.373 . S
N497 C499 1.340 . S
N498 C495 1.368 . S
N498 C499 1.321 . S
N498 Co501 2.135 . S
C499 N497 1.340 . S
C499 N498 1.321 . S
C499 H523 0.930 . S
H500 C495 0.931 . S
Co501 N498 2.135 . S
Co501 N504 2.121 . S
Co501 O509 2.055 . S
Co501 O512 2.039 . S
Co501 N515 2.140 . S
C502 O503 1.227 . S
C502 O512 1.265 . S
O503 C502 1.227 . S
N504 Co501 2.121 . S
N504 C506 1.375 . S
N504 C507 1.313 . S
C505 C506 1.338 . S
C505 N508 1.377 . S
C505 H525 0.930 . S
C506 N504 1.375 . S
C506 C505 1.338 . S
C506 H510 0.931 . S
C507 N504 1.313 . S
C507 N508 1.344 . S
C507 H511 0.930 . S
N508 C505 1.377 . S
N508 C507 1.344 . S
O509 Co501 2.055 . S
O509 C513 1.253 . S
H510 C506 0.931 . S
H511 C507 0.930 . S
O512 Co501 2.039 . S
O512 C502 1.265 . S
C513 O509 1.253 . S
C513 O514 1.227 . S
O514 C513 1.227 . S
N515 Co501 2.140 . S
N515 C518 1.346 . S
N515 C519 1.345 . S
C516 C517 1.387 . S
C516 C520 1.391 . S
C517 C516 1.387 . S
C517 C518 1.369 . S
C517 H526 0.929 . S
C518 N515 1.346 . S
C518 C517 1.369 . S
C518 H521 0.928 . S
C519 N515 1.345 . S
C519 C520 1.371 . S
C519 H522 0.931 . S
C520 C516 1.391 . S
C520 C519 1.371 . S
C520 H527 0.930 . S
H521 C518 0.928 . S
H522 C519 0.931 . S
H523 C499 0.930 . S
H524 C496 0.930 . S
H525 C505 0.930 . S
H526 C517 0.929 . S
H527 C520 0.930 . S
C528 C529 1.351 . S
C528 N531 1.368 . S
C528 H533 0.931 . S
C529 C528 1.351 . S
C529 N530 1.373 . S
C529 H557 0.930 . S
N530 C529 1.373 . S
N530 C532 1.340 . S
N531 C528 1.368 . S
N531 C532 1.321 . S
N531 Co534 2.135 . S
C532 N530 1.340 . S
C532 N531 1.321 . S
C532 H556 0.930 . S
H533 C528 0.931 . S
Co534 N531 2.135 . S
Co534 N537 2.121 . S
Co534 O542 2.055 . S
Co534 O545 2.039 . S
Co534 N548 2.140 . S
C535 O536 1.227 . S
C535 O545 1.265 . S
O536 C535 1.227 . S
N537 Co534 2.121 . S
N537 C539 1.375 . S
N537 C540 1.313 . S
C538 C539 1.338 . S
C538 N541 1.377 . S
C538 H558 0.930 . S
C539 N537 1.375 . S
C539 C538 1.338 . S
C539 H543 0.931 . S
C540 N537 1.313 . S
C540 N541 1.344 . S
C540 H544 0.930 . S
N541 C538 1.377 . S
N541 C540 1.344 . S
O542 Co534 2.055 . S
O542 C546 1.253 . S
H543 C539 0.931 . S
H544 C540 0.930 . S
O545 Co534 2.039 . S
O545 C535 1.265 . S
C546 O542 1.253 . S
C546 O547 1.227 . S
O547 C546 1.227 . S
N548 Co534 2.140 . S
N548 C551 1.346 . S
N548 C552 1.345 . S
C549 C550 1.387 . S
C549 C553 1.391 . S
C550 C549 1.387 . S
C550 C551 1.369 . S
C550 H559 0.929 . S
C551 N548 1.346 . S
C551 C550 1.369 . S
C551 H554 0.928 . S
C552 N548 1.345 . S
C552 C553 1.371 . S
C552 H555 0.931 . S
C553 C549 1.391 . S
C553 C552 1.371 . S
C553 H560 0.930 . S
H554 C551 0.928 . S
H555 C552 0.931 . S
H556 C532 0.930 . S
H557 C529 0.930 . S
H558 C538 0.930 . S
H559 C550 0.929 . S
H560 C553 0.930 . S
C561 C562 1.351 . S
C561 N564 1.368 . S
C561 H566 0.931 . S
C562 C561 1.351 . S
C562 N563 1.373 . S
C562 H590 0.930 . S
N563 C562 1.373 . S
N563 C565 1.340 . S
N564 C561 1.368 . S
N564 C565 1.321 . S
N564 Co567 2.135 . S
C565 N563 1.340 . S
C565 N564 1.321 . S
C565 H589 0.930 . S
H566 C561 0.931 . S
Co567 N564 2.135 . S
Co567 N570 2.121 . S
Co567 O575 2.055 . S
Co567 O578 2.039 . S
Co567 N581 2.140 . S
C568 O569 1.227 . S
C568 O578 1.265 . S
O569 C568 1.227 . S
N570 Co567 2.121 . S
N570 C572 1.375 . S
N570 C573 1.313 . S
C571 C572 1.338 . S
C571 N574 1.377 . S
C571 H591 0.930 . S
C572 N570 1.375 . S
C572 C571 1.338 . S
C572 H576 0.931 . S
C573 N570 1.313 . S
C573 N574 1.344 . S
C573 H577 0.930 . S
N574 C571 1.377 . S
N574 C573 1.344 . S
O575 Co567 2.055 . S
O575 C579 1.253 . S
H576 C572 0.931 . S
H577 C573 0.930 . S
O578 Co567 2.039 . S
O578 C568 1.265 . S
C579 O575 1.253 . S
C579 O580 1.227 . S
O580 C579 1.227 . S
N581 Co567 2.140 . S
N581 C584 1.346 . S
N581 C585 1.345 . S
C582 C583 1.387 . S
C582 C586 1.391 . S
C583 C582 1.387 . S
C583 C584 1.369 . S
C583 H592 0.929 . S
C584 N581 1.346 . S
C584 C583 1.369 . S
C584 H587 0.928 . S
C585 N581 1.345 . S
C585 C586 1.371 . S
C585 H588 0.931 . S
C586 C582 1.391 . S
C586 C585 1.371 . S
C586 H593 0.930 . S
H587 C584 0.928 . S
H588 C585 0.931 . S
H589 C565 0.930 . S
H590 C562 0.930 . S
H591 C571 0.930 . S
H592 C583 0.929 . S
H593 C586 0.930 . S
C594 C595 1.351 . S
C594 N597 1.368 . S
C594 H599 0.931 . S
C595 C594 1.351 . S
C595 N596 1.373 . S
C595 H623 0.930 . S
N596 C595 1.373 . S
N596 C598 1.340 . S
N597 C594 1.368 . S
N597 C598 1.321 . S
N597 Co600 2.135 . S
C598 N596 1.340 . S
C598 N597 1.321 . S
C598 H622 0.930 . S
H599 C594 0.931 . S
Co600 N597 2.135 . S
Co600 N603 2.121 . S
Co600 O608 2.055 . S
Co600 O611 2.039 . S
Co600 N614 2.140 . S
C601 O602 1.227 . S
C601 O611 1.265 . S
O602 C601 1.227 . S
N603 Co600 2.121 . S
N603 C605 1.375 . S
N603 C606 1.313 . S
C604 C605 1.338 . S
C604 N607 1.377 . S
C604 H624 0.930 . S
C605 N603 1.375 . S
C605 C604 1.338 . S
C605 H609 0.931 . S
C606 N603 1.313 . S
C606 N607 1.344 . S
C606 H610 0.930 . S
N607 C604 1.377 . S
N607 C606 1.344 . S
O608 Co600 2.055 . S
O608 C612 1.253 . S
H609 C605 0.931 . S
H610 C606 0.930 . S
O611 Co600 2.039 . S
O611 C601 1.265 . S
C612 O608 1.253 . S
C612 O613 1.227 . S
O613 C612 1.227 . S
N614 Co600 2.140 . S
N614 C617 1.346 . S
N614 C618 1.345 . S
C615 C616 1.387 . S
C615 C619 1.391 . S
C616 C615 1.387 . S
C616 C617 1.369 . S
C616 H625 0.929 . S
C617 N614 1.346 . S
C617 C616 1.369 . S
C617 H620 0.928 . S
C618 N614 1.345 . S
C618 C619 1.371 . S
C618 H621 0.931 . S
C619 C615 1.391 . S
C619 C618 1.371 . S
C619 H626 0.930 . S
H620 C617 0.928 . S
H621 C618 0.931 . S
H622 C598 0.930 . S
H623 C595 0.930 . S
H624 C604 0.930 . S
H625 C616 0.929 . S
H626 C619 0.930 . S
C627 C628 1.351 . S
C627 N630 1.368 . S
C627 H632 0.931 . S
C628 C627 1.351 . S
C628 N629 1.373 . S
C628 H656 0.930 . S
N629 C628 1.373 . S
N629 C631 1.340 . S
N630 C627 1.368 . S
N630 C631 1.321 . S
N630 Co633 2.135 . S
C631 N629 1.340 . S
C631 N630 1.321 . S
C631 H655 0.930 . S
H632 C627 0.931 . S
Co633 N630 2.135 . S
Co633 N636 2.121 . S
Co633 O641 2.055 . S
Co633 O644 2.039 . S
Co633 N647 2.140 . S
C634 O635 1.227 . S
C634 O644 1.265 . S
O635 C634 1.227 . S
N636 Co633 2.121 . S
N636 C638 1.375 . S
N636 C639 1.313 . S
C637 C638 1.338 . S
C637 N640 1.377 . S
C637 H657 0.930 . S
C638 N636 1.375 . S
C638 C637 1.338 . S
C638 H642 0.931 . S
C639 N636 1.313 . S
C639 N640 1.344 . S
C639 H643 0.930 . S
N640 C637 1.377 . S
N640 C639 1.344 . S
O641 Co633 2.055 . S
O641 C645 1.253 . S
H642 C638 0.931 . S
H643 C639 0.930 . S
O644 Co633 2.039 . S
O644 C634 1.265 . S
C645 O641 1.253 . S
C645 O646 1.227 . S
O646 C645 1.227 . S
N647 Co633 2.140 . S
N647 C650 1.346 . S
N647 C651 1.345 . S
C648 C649 1.387 . S
C648 C652 1.391 . S
C649 C648 1.387 . S
C649 C650 1.369 . S
C649 H658 0.929 . S
C650 N647 1.346 . S
C650 C649 1.369 . S
C650 H653 0.928 . S
C651 N647 1.345 . S
C651 C652 1.371 . S
C651 H654 0.931 . S
C652 C648 1.391 . S
C652 C651 1.371 . S
C652 H659 0.930 . S
H653 C650 0.928 . S
H654 C651 0.931 . S
H655 C631 0.930 . S
H656 C628 0.930 . S
H657 C637 0.930 . S
H658 C649 0.929 . S
H659 C652 0.930 . S
C660 C661 1.351 . S
C660 N663 1.368 . S
C660 H665 0.931 . S
C661 C660 1.351 . S
C661 N662 1.373 . S
C661 H689 0.930 . S
N662 C661 1.373 . S
N662 C664 1.340 . S
N663 C660 1.368 . S
N663 C664 1.321 . S
N663 Co666 2.135 . S
C664 N662 1.340 . S
C664 N663 1.321 . S
C664 H688 0.930 . S
H665 C660 0.931 . S
Co666 N663 2.135 . S
Co666 N669 2.121 . S
Co666 O674 2.055 . S
Co666 O677 2.039 . S
Co666 N680 2.140 . S
C667 O668 1.227 . S
C667 O677 1.265 . S
O668 C667 1.227 . S
N669 Co666 2.121 . S
N669 C671 1.375 . S
N669 C672 1.313 . S
C670 C671 1.338 . S
C670 N673 1.377 . S
C670 H690 0.930 . S
C671 N669 1.375 . S
C671 C670 1.338 . S
C671 H675 0.931 . S
C672 N669 1.313 . S
C672 N673 1.344 . S
C672 H676 0.930 . S
N673 C670 1.377 . S
N673 C672 1.344 . S
O674 Co666 2.055 . S
O674 C678 1.253 . S
H675 C671 0.931 . S
H676 C672 0.930 . S
O677 Co666 2.039 . S
O677 C667 1.265 . S
C678 O674 1.253 . S
C678 O679 1.227 . S
O679 C678 1.227 . S
N680 Co666 2.140 . S
N680 C683 1.346 . S
N680 C684 1.345 . S
C681 C682 1.387 . S
C681 C685 1.391 . S
C682 C681 1.387 . S
C682 C683 1.369 . S
C682 H691 0.929 . S
C683 N680 1.346 . S
C683 C682 1.369 . S
C683 H686 0.928 . S
C684 N680 1.345 . S
C684 C685 1.371 . S
C684 H687 0.931 . S
C685 C681 1.391 . S
C685 C684 1.371 . S
C685 H692 0.930 . S
H686 C683 0.928 . S
H687 C684 0.931 . S
H688 C664 0.930 . S
H689 C661 0.930 . S
H690 C670 0.930 . S
H691 C682 0.929 . S
H692 C685 0.930 . S
C693 C694 1.351 . S
C693 N696 1.368 . S
C693 H698 0.931 . S
C694 C693 1.351 . S
C694 N695 1.373 . S
C694 H722 0.930 . S
N695 C694 1.373 . S
N695 C697 1.340 . S
N696 C693 1.368 . S
N696 C697 1.321 . S
N696 Co699 2.135 . S
C697 N695 1.340 . S
C697 N696 1.321 . S
C697 H721 0.930 . S
H698 C693 0.931 . S
Co699 N696 2.135 . S
Co699 N702 2.121 . S
Co699 O707 2.055 . S
Co699 O710 2.039 . S
Co699 N713 2.140 . S
C700 O701 1.227 . S
C700 O710 1.265 . S
O701 C700 1.227 . S
N702 Co699 2.121 . S
N702 C704 1.375 . S
N702 C705 1.313 . S
C703 C704 1.338 . S
C703 N706 1.377 . S
C703 H723 0.930 . S
C704 N702 1.375 . S
C704 C703 1.338 . S
C704 H708 0.931 . S
C705 N702 1.313 . S
C705 N706 1.344 . S
C705 H709 0.930 . S
N706 C703 1.377 . S
N706 C705 1.344 . S
O707 Co699 2.055 . S
O707 C711 1.253 . S
H708 C704 0.931 . S
H709 C705 0.930 . S
O710 Co699 2.039 . S
O710 C700 1.265 . S
C711 O707 1.253 . S
C711 O712 1.227 . S
O712 C711 1.227 . S
N713 Co699 2.140 . S
N713 C716 1.346 . S
N713 C717 1.345 . S
C714 C715 1.387 . S
C714 C718 1.391 . S
C715 C714 1.387 . S
C715 C716 1.369 . S
C715 H724 0.929 . S
C716 N713 1.346 . S
C716 C715 1.369 . S
C716 H719 0.928 . S
C717 N713 1.345 . S
C717 C718 1.371 . S
C717 H720 0.931 . S
C718 C714 1.391 . S
C718 C717 1.371 . S
C718 H725 0.930 . S
H719 C716 0.928 . S
H720 C717 0.931 . S
H721 C697 0.930 . S
H722 C694 0.930 . S
H723 C703 0.930 . S
H724 C715 0.929 . S
H725 C718 0.930 . S
C726 C727 1.351 . S
C726 N729 1.368 . S
C726 H731 0.931 . S
C727 C726 1.351 . S
C727 N728 1.373 . S
C727 H755 0.930 . S
N728 C727 1.373 . S
N728 C730 1.340 . S
N729 C726 1.368 . S
N729 C730 1.321 . S
N729 Co732 2.135 . S
C730 N728 1.340 . S
C730 N729 1.321 . S
C730 H754 0.930 . S
H731 C726 0.931 . S
Co732 N729 2.135 . S
Co732 N735 2.121 . S
Co732 O740 2.055 . S
Co732 O743 2.039 . S
Co732 N746 2.140 . S
C733 O734 1.227 . S
C733 O743 1.265 . S
O734 C733 1.227 . S
N735 Co732 2.121 . S
N735 C737 1.375 . S
N735 C738 1.313 . S
C736 C737 1.338 . S
C736 N739 1.377 . S
C736 H756 0.930 . S
C737 N735 1.375 . S
C737 C736 1.338 . S
C737 H741 0.931 . S
C738 N735 1.313 . S
C738 N739 1.344 . S
C738 H742 0.930 . S
N739 C736 1.377 . S
N739 C738 1.344 . S
O740 Co732 2.055 . S
O740 C744 1.253 . S
H741 C737 0.931 . S
H742 C738 0.930 . S
O743 Co732 2.039 . S
O743 C733 1.265 . S
C744 O740 1.253 . S
C744 O745 1.227 . S
O745 C744 1.227 . S
N746 Co732 2.140 . S
N746 C749 1.346 . S
N746 C750 1.345 . S
C747 C748 1.387 . S
C747 C751 1.391 . S
C748 C747 1.387 . S
C748 C749 1.369 . S
C748 H757 0.929 . S
C749 N746 1.346 . S
C749 C748 1.369 . S
C749 H752 0.928 . S
C750 N746 1.345 . S
C750 C751 1.371 . S
C750 H753 0.931 . S
C751 C747 1.391 . S
C751 C750 1.371 . S
C751 H758 0.930 . S
H752 C749 0.928 . S
H753 C750 0.931 . S
H754 C730 0.930 . S
H755 C727 0.930 . S
H756 C736 0.930 . S
H757 C748 0.929 . S
H758 C751 0.930 . S
C759 C760 1.351 . S
C759 N762 1.368 . S
C759 H764 0.931 . S
C760 C759 1.351 . S
C760 N761 1.373 . S
C760 H788 0.930 . S
N761 C760 1.373 . S
N761 C763 1.340 . S
N762 C759 1.368 . S
N762 C763 1.321 . S
N762 Co765 2.135 . S
C763 N761 1.340 . S
C763 N762 1.321 . S
C763 H787 0.930 . S
H764 C759 0.931 . S
Co765 N762 2.135 . S
Co765 N768 2.121 . S
Co765 O773 2.055 . S
Co765 O776 2.039 . S
Co765 N779 2.140 . S
C766 O767 1.227 . S
C766 O776 1.265 . S
O767 C766 1.227 . S
N768 Co765 2.121 . S
N768 C770 1.375 . S
N768 C771 1.313 . S
C769 C770 1.338 . S
C769 N772 1.377 . S
C769 H789 0.930 . S
C770 N768 1.375 . S
C770 C769 1.338 . S
C770 H774 0.931 . S
C771 N768 1.313 . S
C771 N772 1.344 . S
C771 H775 0.930 . S
N772 C769 1.377 . S
N772 C771 1.344 . S
O773 Co765 2.055 . S
O773 C777 1.253 . S
H774 C770 0.931 . S
H775 C771 0.930 . S
O776 Co765 2.039 . S
O776 C766 1.265 . S
C777 O773 1.253 . S
C777 O778 1.227 . S
O778 C777 1.227 . S
N779 Co765 2.140 . S
N779 C782 1.346 . S
N779 C783 1.345 . S
C780 C781 1.387 . S
C780 C784 1.391 . S
C781 C780 1.387 . S
C781 C782 1.369 . S
C781 H790 0.929 . S
C782 N779 1.346 . S
C782 C781 1.369 . S
C782 H785 0.928 . S
C783 N779 1.345 . S
C783 C784 1.371 . S
C783 H786 0.931 . S
C784 C780 1.391 . S
C784 C783 1.371 . S
C784 H791 0.930 . S
H785 C782 0.928 . S
H786 C783 0.931 . S
H787 C763 0.930 . S
H788 C760 0.930 . S
H789 C769 0.930 . S
H790 C781 0.929 . S
H791 C784 0.930 . S
C792 C793 1.351 . S
C792 N795 1.368 . S
C792 H797 0.931 . S
C793 C792 1.351 . S
C793 N794 1.373 . S
C793 H821 0.930 . S
N794 C793 1.373 . S
N794 C796 1.340 . S
N795 C792 1.368 . S
N795 C796 1.321 . S
N795 Co798 2.135 . S
C796 N794 1.340 . S
C796 N795 1.321 . S
C796 H820 0.930 . S
H797 C792 0.931 . S
Co798 N795 2.135 . S
Co798 N801 2.121 . S
Co798 O806 2.055 . S
Co798 O809 2.039 . S
Co798 N812 2.140 . S
C799 O800 1.227 . S
C799 O809 1.265 . S
O800 C799 1.227 . S
N801 Co798 2.121 . S
N801 C803 1.375 . S
N801 C804 1.313 . S
C802 C803 1.338 . S
C802 N805 1.377 . S
C802 H822 0.930 . S
C803 N801 1.375 . S
C803 C802 1.338 . S
C803 H807 0.931 . S
C804 N801 1.313 . S
C804 N805 1.344 . S
C804 H808 0.930 . S
N805 C802 1.377 . S
N805 C804 1.344 . S
O806 Co798 2.055 . S
O806 C810 1.253 . S
H807 C803 0.931 . S
H808 C804 0.930 . S
O809 Co798 2.039 . S
O809 C799 1.265 . S
C810 O806 1.253 . S
C810 O811 1.227 . S
O811 C810 1.227 . S
N812 Co798 2.140 . S
N812 C815 1.346 . S
N812 C816 1.345 . S
C813 C814 1.387 . S
C813 C817 1.391 . S
C814 C813 1.387 . S
C814 C815 1.369 . S
C814 H823 0.929 . S
C815 N812 1.346 . S
C815 C814 1.369 . S
C815 H818 0.928 . S
C816 N812 1.345 . S
C816 C817 1.371 . S
C816 H819 0.931 . S
C817 C813 1.391 . S
C817 C816 1.371 . S
C817 H824 0.930 . S
H818 C815 0.928 . S
H819 C816 0.931 . S
H820 C796 0.930 . S
H821 C793 0.930 . S
H822 C802 0.930 . S
H823 C814 0.929 . S
H824 C817 0.930 . S
C825 C826 1.351 . S
C825 N828 1.368 . S
C825 H830 0.931 . S
C826 C825 1.351 . S
C826 N827 1.373 . S
C826 H854 0.930 . S
N827 C826 1.373 . S
N827 C829 1.340 . S
N828 C825 1.368 . S
N828 C829 1.321 . S
N828 Co831 2.135 . S
C829 N827 1.340 . S
C829 N828 1.321 . S
C829 H853 0.930 . S
H830 C825 0.931 . S
Co831 N828 2.135 . S
Co831 N834 2.121 . S
Co831 O839 2.055 . S
Co831 O842 2.039 . S
Co831 N845 2.140 . S
C832 O833 1.227 . S
C832 O842 1.265 . S
O833 C832 1.227 . S
N834 Co831 2.121 . S
N834 C836 1.375 . S
N834 C837 1.313 . S
C835 C836 1.338 . S
C835 N838 1.377 . S
C835 H855 0.930 . S
C836 N834 1.375 . S
C836 C835 1.338 . S
C836 H840 0.931 . S
C837 N834 1.313 . S
C837 N838 1.344 . S
C837 H841 0.930 . S
N838 C835 1.377 . S
N838 C837 1.344 . S
O839 Co831 2.055 . S
O839 C843 1.253 . S
H840 C836 0.931 . S
H841 C837 0.930 . S
O842 Co831 2.039 . S
O842 C832 1.265 . S
C843 O839 1.253 . S
C843 O844 1.227 . S
O844 C843 1.227 . S
N845 Co831 2.140 . S
N845 C848 1.346 . S
N845 C849 1.345 . S
C846 C847 1.387 . S
C846 C850 1.391 . S
C847 C846 1.387 . S
C847 C848 1.369 . S
C847 H856 0.929 . S
C848 N845 1.346 . S
C848 C847 1.369 . S
C848 H851 0.928 . S
C849 N845 1.345 . S
C849 C850 1.371 . S
C849 H852 0.931 . S
C850 C846 1.391 . S
C850 C849 1.371 . S
C850 H857 0.930 . S
H851 C848 0.928 . S
H852 C849 0.931 . S
H853 C829 0.930 . S
H854 C826 0.930 . S
H855 C835 0.930 . S
H856 C847 0.929 . S
H857 C850 0.930 . S
C858 C859 1.351 . S
C858 N861 1.368 . S
C858 H863 0.931 . S
C859 C858 1.351 . S
C859 N860 1.373 . S
C859 H887 0.930 . S
N860 C859 1.373 . S
N860 C862 1.340 . S
N861 C858 1.368 . S
N861 C862 1.321 . S
N861 Co864 2.135 . S
C862 N860 1.340 . S
C862 N861 1.321 . S
C862 H886 0.930 . S
H863 C858 0.931 . S
Co864 N861 2.135 . S
Co864 N867 2.121 . S
Co864 O872 2.055 . S
Co864 O875 2.039 . S
Co864 N878 2.140 . S
C865 O866 1.227 . S
C865 O875 1.265 . S
O866 C865 1.227 . S
N867 Co864 2.121 . S
N867 C869 1.375 . S
N867 C870 1.313 . S
C868 C869 1.338 . S
C868 N871 1.377 . S
C868 H888 0.930 . S
C869 N867 1.375 . S
C869 C868 1.338 . S
C869 H873 0.931 . S
C870 N867 1.313 . S
C870 N871 1.344 . S
C870 H874 0.930 . S
N871 C868 1.377 . S
N871 C870 1.344 . S
O872 Co864 2.055 . S
O872 C876 1.253 . S
H873 C869 0.931 . S
H874 C870 0.930 . S
O875 Co864 2.039 . S
O875 C865 1.265 . S
C876 O872 1.253 . S
C876 O877 1.227 . S
O877 C876 1.227 . S
N878 Co864 2.140 . S
N878 C881 1.346 . S
N878 C882 1.345 . S
C879 C880 1.387 . S
C879 C883 1.391 . S
C880 C879 1.387 . S
C880 C881 1.369 . S
C880 H889 0.929 . S
C881 N878 1.346 . S
C881 C880 1.369 . S
C881 H884 0.928 . S
C882 N878 1.345 . S
C882 C883 1.371 . S
C882 H885 0.931 . S
C883 C879 1.391 . S
C883 C882 1.371 . S
C883 H890 0.930 . S
H884 C881 0.928 . S
H885 C882 0.931 . S
H886 C862 0.930 . S
H887 C859 0.930 . S
H888 C868 0.930 . S
H889 C880 0.929 . S
H890 C883 0.930 . S
C891 C892 1.351 . S
C891 N894 1.368 . S
C891 H896 0.931 . S
C892 C891 1.351 . S
C892 N893 1.373 . S
C892 H920 0.930 . S
N893 C892 1.373 . S
N893 C895 1.340 . S
N894 C891 1.368 . S
N894 C895 1.321 . S
N894 Co897 2.135 . S
C895 N893 1.340 . S
C895 N894 1.321 . S
C895 H919 0.930 . S
H896 C891 0.931 . S
Co897 N894 2.135 . S
Co897 N900 2.121 . S
Co897 O905 2.055 . S
Co897 O908 2.039 . S
Co897 N911 2.140 . S
C898 O899 1.227 . S
C898 O908 1.265 . S
O899 C898 1.227 . S
N900 Co897 2.121 . S
N900 C902 1.375 . S
N900 C903 1.313 . S
C901 C902 1.338 . S
C901 N904 1.377 . S
C901 H921 0.930 . S
C902 N900 1.375 . S
C902 C901 1.338 . S
C902 H906 0.931 . S
C903 N900 1.313 . S
C903 N904 1.344 . S
C903 H907 0.930 . S
N904 C901 1.377 . S
N904 C903 1.344 . S
O905 Co897 2.055 . S
O905 C909 1.253 . S
H906 C902 0.931 . S
H907 C903 0.930 . S
O908 Co897 2.039 . S
O908 C898 1.265 . S
C909 O905 1.253 . S
C909 O910 1.227 . S
O910 C909 1.227 . S
N911 Co897 2.140 . S
N911 C914 1.346 . S
N911 C915 1.345 . S
C912 C913 1.387 . S
C912 C916 1.391 . S
C913 C912 1.387 . S
C913 C914 1.369 . S
C913 H922 0.929 . S
C914 N911 1.346 . S
C914 C913 1.369 . S
C914 H917 0.928 . S
C915 N911 1.345 . S
C915 C916 1.371 . S
C915 H918 0.931 . S
C916 C912 1.391 . S
C916 C915 1.371 . S
C916 H923 0.930 . S
H917 C914 0.928 . S
H918 C915 0.931 . S
H919 C895 0.930 . S
H920 C892 0.930 . S
H921 C901 0.930 . S
H922 C913 0.929 . S
H923 C916 0.930 . S
C924 C925 1.351 . S
C924 N927 1.368 . S
C924 H929 0.931 . S
C925 C924 1.351 . S
C925 N926 1.373 . S
C925 H953 0.930 . S
N926 C925 1.373 . S
N926 C928 1.340 . S
N927 C924 1.368 . S
N927 C928 1.321 . S
N927 Co930 2.135 . S
C928 N926 1.340 . S
C928 N927 1.321 . S
C928 H952 0.930 . S
H929 C924 0.931 . S
Co930 N927 2.135 . S
Co930 N933 2.121 . S
Co930 O938 2.055 . S
Co930 O941 2.039 . S
Co930 N944 2.140 . S
C931 O932 1.227 . S
C931 O941 1.265 . S
O932 C931 1.227 . S
N933 Co930 2.121 . S
N933 C935 1.375 . S
N933 C936 1.313 . S
C934 C935 1.338 . S
C934 N937 1.377 . S
C934 H954 0.930 . S
C935 N933 1.375 . S
C935 C934 1.338 . S
C935 H939 0.931 . S
C936 N933 1.313 . S
C936 N937 1.344 . S
C936 H940 0.930 . S
N937 C934 1.377 . S
N937 C936 1.344 . S
O938 Co930 2.055 . S
O938 C942 1.253 . S
H939 C935 0.931 . S
H940 C936 0.930 . S
O941 Co930 2.039 . S
O941 C931 1.265 . S
C942 O938 1.253 . S
C942 O943 1.227 . S
O943 C942 1.227 . S
N944 Co930 2.140 . S
N944 C947 1.346 . S
N944 C948 1.345 . S
C945 C946 1.387 . S
C945 C949 1.391 . S
C946 C945 1.387 . S
C946 C947 1.369 . S
C946 H955 0.929 . S
C947 N944 1.346 . S
C947 C946 1.369 . S
C947 H950 0.928 . S
C948 N944 1.345 . S
C948 C949 1.371 . S
C948 H951 0.931 . S
C949 C945 1.391 . S
C949 C948 1.371 . S
C949 H956 0.930 . S
H950 C947 0.928 . S
H951 C948 0.931 . S
H952 C928 0.930 . S
H953 C925 0.930 . S
H954 C934 0.930 . S
H955 C946 0.929 . S
H956 C949 0.930 . S
C957 C958 1.351 . S
C957 N960 1.368 . S
C957 H962 0.931 . S
C958 C957 1.351 . S
C958 N959 1.373 . S
C958 H986 0.930 . S
N959 C958 1.373 . S
N959 C961 1.340 . S
N960 C957 1.368 . S
N960 C961 1.321 . S
N960 Co963 2.135 . S
C961 N959 1.340 . S
C961 N960 1.321 . S
C961 H985 0.930 . S
H962 C957 0.931 . S
Co963 N960 2.135 . S
Co963 N966 2.121 . S
Co963 O971 2.055 . S
Co963 O974 2.039 . S
Co963 N977 2.140 . S
C964 O965 1.227 . S
C964 O974 1.265 . S
O965 C964 1.227 . S
N966 Co963 2.121 . S
N966 C968 1.375 . S
N966 C969 1.313 . S
C967 C968 1.338 . S
C967 N970 1.377 . S
C967 H987 0.930 . S
C968 N966 1.375 . S
C968 C967 1.338 . S
C968 H972 0.931 . S
C969 N966 1.313 . S
C969 N970 1.344 . S
C969 H973 0.930 . S
N970 C967 1.377 . S
N970 C969 1.344 . S
O971 Co963 2.055 . S
O971 C975 1.253 . S
H972 C968 0.931 . S
H973 C969 0.930 . S
O974 Co963 2.039 . S
O974 C964 1.265 . S
C975 O971 1.253 . S
C975 O976 1.227 . S
O976 C975 1.227 . S
N977 Co963 2.140 . S
N977 C980 1.346 . S
N977 C981 1.345 . S
C978 C979 1.387 . S
C978 C982 1.391 . S
C979 C978 1.387 . S
C979 C980 1.369 . S
C979 H988 0.929 . S
C980 N977 1.346 . S
C980 C979 1.369 . S
C980 H983 0.928 . S
C981 N977 1.345 . S
C981 C982 1.371 . S
C981 H984 0.931 . S
C982 C978 1.391 . S
C982 C981 1.371 . S
C982 H989 0.930 . S
H983 C980 0.928 . S
H984 C981 0.931 . S
H985 C961 0.930 . S
H986 C958 0.930 . S
H987 C967 0.930 . S
H988 C979 0.929 . S
H989 C982 0.930 . S
C990 C991 1.351 . S
C990 N993 1.368 . S
C990 H995 0.931 . S
C991 C990 1.351 . S
C991 N992 1.373 . S
C991 H1019 0.930 . S
N992 C991 1.373 . S
N992 C994 1.340 . S
N993 C990 1.368 . S
N993 C994 1.321 . S
N993 Co996 2.135 . S
C994 N992 1.340 . S
C994 N993 1.321 . S
C994 H1018 0.930 . S
H995 C990 0.931 . S
Co996 N993 2.135 . S
Co996 N999 2.121 . S
Co996 O1004 2.055 . S
Co996 O1007 2.039 . S
Co996 N1010 2.140 . S
C997 O998 1.227 . S
C997 O1007 1.265 . S
O998 C997 1.227 . S
N999 Co996 2.121 . S
N999 C1001 1.375 . S
N999 C1002 1.313 . S
C1000 C1001 1.338 . S
C1000 N1003 1.377 . S
C1000 H1020 0.930 . S
C1001 N999 1.375 . S
C1001 C1000 1.338 . S
C1001 H1005 0.931 . S
C1002 N999 1.313 . S
C1002 N1003 1.344 . S
C1002 H1006 0.930 . S
N1003 C1000 1.377 . S
N1003 C1002 1.344 . S
O1004 Co996 2.055 . S
O1004 C1008 1.253 . S
H1005 C1001 0.931 . S
H1006 C1002 0.930 . S
O1007 Co996 2.039 . S
O1007 C997 1.265 . S
C1008 O1004 1.253 . S
C1008 O1009 1.227 . S
O1009 C1008 1.227 . S
N1010 Co996 2.140 . S
N1010 C1013 1.346 . S
N1010 C1014 1.345 . S
C1011 C1012 1.387 . S
C1011 C1015 1.391 . S
C1012 C1011 1.387 . S
C1012 C1013 1.369 . S
C1012 H1021 0.929 . S
C1013 N1010 1.346 . S
C1013 C1012 1.369 . S
C1013 H1016 0.928 . S
C1014 N1010 1.345 . S
C1014 C1015 1.371 . S
C1014 H1017 0.931 . S
C1015 C1011 1.391 . S
C1015 C1014 1.371 . S
C1015 H1022 0.930 . S
H1016 C1013 0.928 . S
H1017 C1014 0.931 . S
H1018 C994 0.930 . S
H1019 C991 0.930 . S
H1020 C1000 0.930 . S
H1021 C1012 0.929 . S
H1022 C1015 0.930 . S
C1023 C1024 1.351 . S
C1023 N1026 1.368 . S
C1023 H1028 0.931 . S
C1024 C1023 1.351 . S
C1024 N1025 1.373 . S
C1024 H1052 0.930 . S
N1025 C1024 1.373 . S
N1025 C1027 1.340 . S
N1026 C1023 1.368 . S
N1026 C1027 1.321 . S
N1026 Co1029 2.135 . S
C1027 N1025 1.340 . S
C1027 N1026 1.321 . S
C1027 H1051 0.930 . S
H1028 C1023 0.931 . S
Co1029 N1026 2.135 . S
Co1029 N1032 2.121 . S
Co1029 O1037 2.055 . S
Co1029 O1040 2.039 . S
Co1029 N1043 2.140 . S
C1030 O1031 1.227 . S
C1030 O1040 1.265 . S
O1031 C1030 1.227 . S
N1032 Co1029 2.121 . S
N1032 C1034 1.375 . S
N1032 C1035 1.313 . S
C1033 C1034 1.338 . S
C1033 N1036 1.377 . S
C1033 H1053 0.930 . S
C1034 N1032 1.375 . S
C1034 C1033 1.338 . S
C1034 H1038 0.931 . S
C1035 N1032 1.313 . S
C1035 N1036 1.344 . S
C1035 H1039 0.930 . S
N1036 C1033 1.377 . S
N1036 C1035 1.344 . S
O1037 Co1029 2.055 . S
O1037 C1041 1.253 . S
H1038 C1034 0.931 . S
H1039 C1035 0.930 . S
O1040 Co1029 2.039 . S
O1040 C1030 1.265 . S
C1041 O1037 1.253 . S
C1041 O1042 1.227 . S
O1042 C1041 1.227 . S
N1043 Co1029 2.140 . S
N1043 C1046 1.346 . S
N1043 C1047 1.345 . S
C1044 C1045 1.387 . S
C1044 C1048 1.391 . S
C1045 C1044 1.387 . S
C1045 C1046 1.369 . S
C1045 H1054 0.929 . S
C1046 N1043 1.346 . S
C1046 C1045 1.369 . S
C1046 H1049 0.928 . S
C1047 N1043 1.345 . S
C1047 C1048 1.371 . S
C1047 H1050 0.931 . S
C1048 C1044 1.391 . S
C1048 C1047 1.371 . S
C1048 H1055 0.930 . S
H1049 C1046 0.928 . S
H1050 C1047 0.931 . S
H1051 C1027 0.930 . S
H1052 C1024 0.930 . S
H1053 C1033 0.930 . S
H1054 C1045 0.929 . S
H1055 C1048 0.930 . S
C1056 C1057 1.351 . S
C1056 N1059 1.368 . S
C1056 H1061 0.931 . S
C1057 C1056 1.351 . S
C1057 N1058 1.373 . S
C1057 H1085 0.930 . S
N1058 C1057 1.373 . S
N1058 C1060 1.340 . S
N1059 C1056 1.368 . S
N1059 C1060 1.321 . S
N1059 Co1062 2.135 . S
C1060 N1058 1.340 . S
C1060 N1059 1.321 . S
C1060 H1084 0.930 . S
H1061 C1056 0.931 . S
Co1062 N1059 2.135 . S
Co1062 N1065 2.121 . S
Co1062 O1070 2.055 . S
Co1062 O1073 2.039 . S
Co1062 N1076 2.140 . S
C1063 O1064 1.227 . S
C1063 O1073 1.265 . S
O1064 C1063 1.227 . S
N1065 Co1062 2.121 . S
N1065 C1067 1.375 . S
N1065 C1068 1.313 . S
C1066 C1067 1.338 . S
C1066 N1069 1.377 . S
C1066 H1086 0.930 . S
C1067 N1065 1.375 . S
C1067 C1066 1.338 . S
C1067 H1071 0.931 . S
C1068 N1065 1.313 . S
C1068 N1069 1.344 . S
C1068 H1072 0.930 . S
N1069 C1066 1.377 . S
N1069 C1068 1.344 . S
O1070 Co1062 2.055 . S
O1070 C1074 1.253 . S
H1071 C1067 0.931 . S
H1072 C1068 0.930 . S
O1073 Co1062 2.039 . S
O1073 C1063 1.265 . S
C1074 O1070 1.253 . S
C1074 O1075 1.227 . S
O1075 C1074 1.227 . S
N1076 Co1062 2.140 . S
N1076 C1079 1.346 . S
N1076 C1080 1.345 . S
C1077 C1078 1.387 . S
C1077 C1081 1.391 . S
C1078 C1077 1.387 . S
C1078 C1079 1.369 . S
C1078 H1087 0.929 . S
C1079 N1076 1.346 . S
C1079 C1078 1.369 . S
C1079 H1082 0.928 . S
C1080 N1076 1.345 . S
C1080 C1081 1.371 . S
C1080 H1083 0.931 . S
C1081 C1077 1.391 . S
C1081 C1080 1.371 . S
C1081 H1088 0.930 . S
H1082 C1079 0.928 . S
H1083 C1080 0.931 . S
H1084 C1060 0.930 . S
H1085 C1057 0.930 . S
H1086 C1066 0.930 . S
H1087 C1078 0.929 . S
H1088 C1081 0.930 . S
C1089 C1090 1.351 . S
C1089 N1092 1.368 . S
C1089 H1094 0.931 . S
C1090 C1089 1.351 . S
C1090 N1091 1.373 . S
C1090 H1118 0.930 . S
N1091 C1090 1.373 . S
N1091 C1093 1.340 . S
N1092 C1089 1.368 . S
N1092 C1093 1.321 . S
N1092 Co1095 2.135 . S
C1093 N1091 1.340 . S
C1093 N1092 1.321 . S
C1093 H1117 0.930 . S
H1094 C1089 0.931 . S
Co1095 N1092 2.135 . S
Co1095 N1098 2.121 . S
Co1095 O1103 2.055 . S
Co1095 O1106 2.039 . S
Co1095 N1109 2.140 . S
C1096 O1097 1.227 . S
C1096 O1106 1.265 . S
O1097 C1096 1.227 . S
N1098 Co1095 2.121 . S
N1098 C1100 1.375 . S
N1098 C1101 1.313 . S
C1099 C1100 1.338 . S
C1099 N1102 1.377 . S
C1099 H1119 0.930 . S
C1100 N1098 1.375 . S
C1100 C1099 1.338 . S
C1100 H1104 0.931 . S
C1101 N1098 1.313 . S
C1101 N1102 1.344 . S
C1101 H1105 0.930 . S
N1102 C1099 1.377 . S
N1102 C1101 1.344 . S
O1103 Co1095 2.055 . S
O1103 C1107 1.253 . S
H1104 C1100 0.931 . S
H1105 C1101 0.930 . S
O1106 Co1095 2.039 . S
O1106 C1096 1.265 . S
C1107 O1103 1.253 . S
C1107 O1108 1.227 . S
O1108 C1107 1.227 . S
N1109 Co1095 2.140 . S
N1109 C1112 1.346 . S
N1109 C1113 1.345 . S
C1110 C1111 1.387 . S
C1110 C1114 1.391 . S
C1111 C1110 1.387 . S
C1111 C1112 1.369 . S
C1111 H1120 0.929 . S
C1112 N1109 1.346 . S
C1112 C1111 1.369 . S
C1112 H1115 0.928 . S
C1113 N1109 1.345 . S
C1113 C1114 1.371 . S
C1113 H1116 0.931 . S
C1114 C1110 1.391 . S
C1114 C1113 1.371 . S
C1114 H1121 0.930 . S
H1115 C1112 0.928 . S
H1116 C1113 0.931 . S
H1117 C1093 0.930 . S
H1118 C1090 0.930 . S
H1119 C1099 0.930 . S
H1120 C1111 0.929 . S
H1121 C1114 0.930 . S
C1122 C1123 1.351 . S
C1122 N1125 1.368 . S
C1122 H1127 0.931 . S
C1123 C1122 1.351 . S
C1123 N1124 1.373 . S
C1123 H1151 0.930 . S
N1124 C1123 1.373 . S
N1124 C1126 1.340 . S
N1125 C1122 1.368 . S
N1125 C1126 1.321 . S
N1125 Co1128 2.135 . S
C1126 N1124 1.340 . S
C1126 N1125 1.321 . S
C1126 H1150 0.930 . S
H1127 C1122 0.931 . S
Co1128 N1125 2.135 . S
Co1128 N1131 2.121 . S
Co1128 O1136 2.055 . S
Co1128 O1139 2.039 . S
Co1128 N1142 2.140 . S
C1129 O1130 1.227 . S
C1129 O1139 1.265 . S
O1130 C1129 1.227 . S
N1131 Co1128 2.121 . S
N1131 C1133 1.375 . S
N1131 C1134 1.313 . S
C1132 C1133 1.338 . S
C1132 N1135 1.377 . S
C1132 H1152 0.930 . S
C1133 N1131 1.375 . S
C1133 C1132 1.338 . S
C1133 H1137 0.931 . S
C1134 N1131 1.313 . S
C1134 N1135 1.344 . S
C1134 H1138 0.930 . S
N1135 C1132 1.377 . S
N1135 C1134 1.344 . S
O1136 Co1128 2.055 . S
O1136 C1140 1.253 . S
H1137 C1133 0.931 . S
H1138 C1134 0.930 . S
O1139 Co1128 2.039 . S
O1139 C1129 1.265 . S
C1140 O1136 1.253 . S
C1140 O1141 1.227 . S
O1141 C1140 1.227 . S
N1142 Co1128 2.140 . S
N1142 C1145 1.346 . S
N1142 C1146 1.345 . S
C1143 C1144 1.387 . S
C1143 C1147 1.391 . S
C1144 C1143 1.387 . S
C1144 C1145 1.369 . S
C1144 H1153 0.929 . S
C1145 N1142 1.346 . S
C1145 C1144 1.369 . S
C1145 H1148 0.928 . S
C1146 N1142 1.345 . S
C1146 C1147 1.371 . S
C1146 H1149 0.931 . S
C1147 C1143 1.391 . S
C1147 C1146 1.371 . S
C1147 H1154 0.930 . S
H1148 C1145 0.928 . S
H1149 C1146 0.931 . S
H1150 C1126 0.930 . S
H1151 C1123 0.930 . S
H1152 C1132 0.930 . S
H1153 C1144 0.929 . S
H1154 C1147 0.930 . S
C1155 C1156 1.351 . S
C1155 N1158 1.368 . S
C1155 H1160 0.931 . S
C1156 C1155 1.351 . S
C1156 N1157 1.373 . S
C1156 H1184 0.930 . S
N1157 C1156 1.373 . S
N1157 C1159 1.340 . S
N1158 C1155 1.368 . S
N1158 C1159 1.321 . S
N1158 Co1161 2.135 . S
C1159 N1157 1.340 . S
C1159 N1158 1.321 . S
C1159 H1183 0.930 . S
H1160 C1155 0.931 . S
Co1161 N1158 2.135 . S
Co1161 N1164 2.121 . S
Co1161 O1169 2.055 . S
Co1161 O1172 2.039 . S
Co1161 N1175 2.140 . S
C1162 O1163 1.227 . S
C1162 O1172 1.265 . S
O1163 C1162 1.227 . S
N1164 Co1161 2.121 . S
N1164 C1166 1.375 . S
N1164 C1167 1.313 . S
C1165 C1166 1.338 . S
C1165 N1168 1.377 . S
C1165 H1185 0.930 . S
C1166 N1164 1.375 . S
C1166 C1165 1.338 . S
C1166 H1170 0.931 . S
C1167 N1164 1.313 . S
C1167 N1168 1.344 . S
C1167 H1171 0.930 . S
N1168 C1165 1.377 . S
N1168 C1167 1.344 . S
O1169 Co1161 2.055 . S
O1169 C1173 1.253 . S
H1170 C1166 0.931 . S
H1171 C1167 0.930 . S
O1172 Co1161 2.039 . S
O1172 C1162 1.265 . S
C1173 O1169 1.253 . S
C1173 O1174 1.227 . S
O1174 C1173 1.227 . S
N1175 Co1161 2.140 . S
N1175 C1178 1.346 . S
N1175 C1179 1.345 . S
C1176 C1177 1.387 . S
C1176 C1180 1.391 . S
C1177 C1176 1.387 . S
C1177 C1178 1.369 . S
C1177 H1186 0.929 . S
C1178 N1175 1.346 . S
C1178 C1177 1.369 . S
C1178 H1181 0.928 . S
C1179 N1175 1.345 . S
C1179 C1180 1.371 . S
C1179 H1182 0.931 . S
C1180 C1176 1.391 . S
C1180 C1179 1.371 . S
C1180 H1187 0.930 . S
H1181 C1178 0.928 . S
H1182 C1179 0.931 . S
H1183 C1159 0.930 . S
H1184 C1156 0.930 . S
H1185 C1165 0.930 . S
H1186 C1177 0.929 . S
H1187 C1180 0.930 . S
C1188 C1189 1.351 . S
C1188 N1191 1.368 . S
C1188 H1193 0.931 . S
C1189 C1188 1.351 . S
C1189 N1190 1.373 . S
C1189 H1217 0.930 . S
N1190 C1189 1.373 . S
N1190 C1192 1.340 . S
N1191 C1188 1.368 . S
N1191 C1192 1.321 . S
N1191 Co1194 2.135 . S
C1192 N1190 1.340 . S
C1192 N1191 1.321 . S
C1192 H1216 0.930 . S
H1193 C1188 0.931 . S
Co1194 N1191 2.135 . S
Co1194 N1197 2.121 . S
Co1194 O1202 2.055 . S
Co1194 O1205 2.039 . S
Co1194 N1208 2.140 . S
C1195 O1196 1.227 . S
C1195 O1205 1.265 . S
O1196 C1195 1.227 . S
N1197 Co1194 2.121 . S
N1197 C1199 1.375 . S
N1197 C1200 1.313 . S
C1198 C1199 1.338 . S
C1198 N1201 1.377 . S
C1198 H1218 0.930 . S
C1199 N1197 1.375 . S
C1199 C1198 1.338 . S
C1199 H1203 0.931 . S
C1200 N1197 1.313 . S
C1200 N1201 1.344 . S
C1200 H1204 0.930 . S
N1201 C1198 1.377 . S
N1201 C1200 1.344 . S
O1202 Co1194 2.055 . S
O1202 C1206 1.253 . S
H1203 C1199 0.931 . S
H1204 C1200 0.930 . S
O1205 Co1194 2.039 . S
O1205 C1195 1.265 . S
C1206 O1202 1.253 . S
C1206 O1207 1.227 . S
O1207 C1206 1.227 . S
N1208 Co1194 2.140 . S
N1208 C1211 1.346 . S
N1208 C1212 1.345 . S
C1209 C1210 1.387 . S
C1209 C1213 1.391 . S
C1210 C1209 1.387 . S
C1210 C1211 1.369 . S
C1210 H1219 0.929 . S
C1211 N1208 1.346 . S
C1211 C1210 1.369 . S
C1211 H1214 0.928 . S
C1212 N1208 1.345 . S
C1212 C1213 1.371 . S
C1212 H1215 0.931 . S
C1213 C1209 1.391 . S
C1213 C1212 1.371 . S
C1213 H1220 0.930 . S
H1214 C1211 0.928 . S
H1215 C1212 0.931 . S
H1216 C1192 0.930 . S
H1217 C1189 0.930 . S
H1218 C1198 0.930 . S
H1219 C1210 0.929 . S
H1220 C1213 0.930 . S
C1221 C1222 1.351 . S
C1221 N1224 1.368 . S
C1221 H1226 0.931 . S
C1222 C1221 1.351 . S
C1222 N1223 1.373 . S
C1222 H1250 0.930 . S
N1223 C1222 1.373 . S
N1223 C1225 1.340 . S
N1224 C1221 1.368 . S
N1224 C1225 1.321 . S
N1224 Co1227 2.135 . S
C1225 N1223 1.340 . S
C1225 N1224 1.321 . S
C1225 H1249 0.930 . S
H1226 C1221 0.931 . S
Co1227 N1224 2.135 . S
Co1227 N1230 2.121 . S
Co1227 O1235 2.055 . S
Co1227 O1238 2.039 . S
Co1227 N1241 2.140 . S
C1228 O1229 1.227 . S
C1228 O1238 1.265 . S
O1229 C1228 1.227 . S
N1230 Co1227 2.121 . S
N1230 C1232 1.375 . S
N1230 C1233 1.313 . S
C1231 C1232 1.338 . S
C1231 N1234 1.377 . S
C1231 H1251 0.930 . S
C1232 N1230 1.375 . S
C1232 C1231 1.338 . S
C1232 H1236 0.931 . S
C1233 N1230 1.313 . S
C1233 N1234 1.344 . S
C1233 H1237 0.930 . S
N1234 C1231 1.377 . S
N1234 C1233 1.344 . S
O1235 Co1227 2.055 . S
O1235 C1239 1.253 . S
H1236 C1232 0.931 . S
H1237 C1233 0.930 . S
O1238 Co1227 2.039 . S
O1238 C1228 1.265 . S
C1239 O1235 1.253 . S
C1239 O1240 1.227 . S
O1240 C1239 1.227 . S
N1241 Co1227 2.140 . S
N1241 C1244 1.346 . S
N1241 C1245 1.345 . S
C1242 C1243 1.387 . S
C1242 C1246 1.391 . S
C1243 C1242 1.387 . S
C1243 C1244 1.369 . S
C1243 H1252 0.929 . S
C1244 N1241 1.346 . S
C1244 C1243 1.369 . S
C1244 H1247 0.928 . S
C1245 N1241 1.345 . S
C1245 C1246 1.371 . S
C1245 H1248 0.931 . S
C1246 C1242 1.391 . S
C1246 C1245 1.371 . S
C1246 H1253 0.930 . S
H1247 C1244 0.928 . S
H1248 C1245 0.931 . S
H1249 C1225 0.930 . S
H1250 C1222 0.930 . S
H1251 C1231 0.930 . S
H1252 C1243 0.929 . S
H1253 C1246 0.930 . S
C1254 C1255 1.351 . S
C1254 N1257 1.368 . S
C1254 H1259 0.931 . S
C1255 C1254 1.351 . S
C1255 N1256 1.373 . S
C1255 H1283 0.930 . S
N1256 C1255 1.373 . S
N1256 C1258 1.340 . S
N1257 C1254 1.368 . S
N1257 C1258 1.321 . S
N1257 Co1260 2.135 . S
C1258 N1256 1.340 . S
C1258 N1257 1.321 . S
C1258 H1282 0.930 . S
H1259 C1254 0.931 . S
Co1260 N1257 2.135 . S
Co1260 N1263 2.121 . S
Co1260 O1268 2.055 . S
Co1260 O1271 2.039 . S
Co1260 N1274 2.140 . S
C1261 O1262 1.227 . S
C1261 O1271 1.265 . S
O1262 C1261 1.227 . S
N1263 Co1260 2.121 . S
N1263 C1265 1.375 . S
N1263 C1266 1.313 . S
C1264 C1265 1.338 . S
C1264 N1267 1.377 . S
C1264 H1284 0.930 . S
C1265 N1263 1.375 . S
C1265 C1264 1.338 . S
C1265 H1269 0.931 . S
C1266 N1263 1.313 . S
C1266 N1267 1.344 . S
C1266 H1270 0.930 . S
N1267 C1264 1.377 . S
N1267 C1266 1.344 . S
O1268 Co1260 2.055 . S
O1268 C1272 1.253 . S
H1269 C1265 0.931 . S
H1270 C1266 0.930 . S
O1271 Co1260 2.039 . S
O1271 C1261 1.265 . S
C1272 O1268 1.253 . S
C1272 O1273 1.227 . S
O1273 C1272 1.227 . S
N1274 Co1260 2.140 . S
N1274 C1277 1.346 . S
N1274 C1278 1.345 . S
C1275 C1276 1.387 . S
C1275 C1279 1.391 . S
C1276 C1275 1.387 . S
C1276 C1277 1.369 . S
C1276 H1285 0.929 . S
C1277 N1274 1.346 . S
C1277 C1276 1.369 . S
C1277 H1280 0.928 . S
C1278 N1274 1.345 . S
C1278 C1279 1.371 . S
C1278 H1281 0.931 . S
C1279 C1275 1.391 . S
C1279 C1278 1.371 . S
C1279 H1286 0.930 . S
H1280 C1277 0.928 . S
H1281 C1278 0.931 . S
H1282 C1258 0.930 . S
H1283 C1255 0.930 . S
H1284 C1264 0.930 . S
H1285 C1276 0.929 . S
H1286 C1279 0.930 . S
C1287 C1288 1.351 . S
C1287 N1290 1.368 . S
C1287 H1292 0.931 . S
C1288 C1287 1.351 . S
C1288 N1289 1.373 . S
C1288 H1316 0.930 . S
N1289 C1288 1.373 . S
N1289 C1291 1.340 . S
N1290 C1287 1.368 . S
N1290 C1291 1.321 . S
N1290 Co1293 2.135 . S
C1291 N1289 1.340 . S
C1291 N1290 1.321 . S
C1291 H1315 0.930 . S
H1292 C1287 0.931 . S
Co1293 N1290 2.135 . S
Co1293 N1296 2.121 . S
Co1293 O1301 2.055 . S
Co1293 O1304 2.039 . S
Co1293 N1307 2.140 . S
C1294 O1295 1.227 . S
C1294 O1304 1.265 . S
O1295 C1294 1.227 . S
N1296 Co1293 2.121 . S
N1296 C1298 1.375 . S
N1296 C1299 1.313 . S
C1297 C1298 1.338 . S
C1297 N1300 1.377 . S
C1297 H1317 0.930 . S
C1298 N1296 1.375 . S
C1298 C1297 1.338 . S
C1298 H1302 0.931 . S
C1299 N1296 1.313 . S
C1299 N1300 1.344 . S
C1299 H1303 0.930 . S
N1300 C1297 1.377 . S
N1300 C1299 1.344 . S
O1301 Co1293 2.055 . S
O1301 C1305 1.253 . S
H1302 C1298 0.931 . S
H1303 C1299 0.930 . S
O1304 Co1293 2.039 . S
O1304 C1294 1.265 . S
C1305 O1301 1.253 . S
C1305 O1306 1.227 . S
O1306 C1305 1.227 . S
N1307 Co1293 2.140 . S
N1307 C1310 1.346 . S
N1307 C1311 1.345 . S
C1308 C1309 1.387 . S
C1308 C1312 1.391 . S
C1309 C1308 1.387 . S
C1309 C1310 1.369 . S
C1309 H1318 0.929 . S
C1310 N1307 1.346 . S
C1310 C1309 1.369 . S
C1310 H1313 0.928 . S
C1311 N1307 1.345 . S
C1311 C1312 1.371 . S
C1311 H1314 0.931 . S
C1312 C1308 1.391 . S
C1312 C1311 1.371 . S
C1312 H1319 0.930 . S
H1313 C1310 0.928 . S
H1314 C1311 0.931 . S
H1315 C1291 0.930 . S
H1316 C1288 0.930 . S
H1317 C1297 0.930 . S
H1318 C1309 0.929 . S
H1319 C1312 0.930 . S
C1320 C1321 1.351 . S
C1320 N1323 1.368 . S
C1320 H1325 0.931 . S
C1321 C1320 1.351 . S
C1321 N1322 1.373 . S
C1321 H1349 0.930 . S
N1322 C1321 1.373 . S
N1322 C1324 1.340 . S
N1323 C1320 1.368 . S
N1323 C1324 1.321 . S
N1323 Co1326 2.135 . S
C1324 N1322 1.340 . S
C1324 N1323 1.321 . S
C1324 H1348 0.930 . S
H1325 C1320 0.931 . S
Co1326 N1323 2.135 . S
Co1326 N1329 2.121 . S
Co1326 O1334 2.055 . S
Co1326 O1337 2.039 . S
Co1326 N1340 2.140 . S
C1327 O1328 1.227 . S
C1327 O1337 1.265 . S
O1328 C1327 1.227 . S
N1329 Co1326 2.121 . S
N1329 C1331 1.375 . S
N1329 C1332 1.313 . S
C1330 C1331 1.338 . S
C1330 N1333 1.377 . S
C1330 H1350 0.930 . S
C1331 N1329 1.375 . S
C1331 C1330 1.338 . S
C1331 H1335 0.931 . S
C1332 N1329 1.313 . S
C1332 N1333 1.344 . S
C1332 H1336 0.930 . S
N1333 C1330 1.377 . S
N1333 C1332 1.344 . S
O1334 Co1326 2.055 . S
O1334 C1338 1.253 . S
H1335 C1331 0.931 . S
H1336 C1332 0.930 . S
O1337 Co1326 2.039 . S
O1337 C1327 1.265 . S
C1338 O1334 1.253 . S
C1338 O1339 1.227 . S
O1339 C1338 1.227 . S
N1340 Co1326 2.140 . S
N1340 C1343 1.346 . S
N1340 C1344 1.345 . S
C1341 C1342 1.387 . S
C1341 C1345 1.391 . S
C1342 C1341 1.387 . S
C1342 C1343 1.369 . S
C1342 H1351 0.929 . S
C1343 N1340 1.346 . S
C1343 C1342 1.369 . S
C1343 H1346 0.928 . S
C1344 N1340 1.345 . S
C1344 C1345 1.371 . S
C1344 H1347 0.931 . S
C1345 C1341 1.391 . S
C1345 C1344 1.371 . S
C1345 H1352 0.930 . S
H1346 C1343 0.928 . S
H1347 C1344 0.931 . S
H1348 C1324 0.930 . S
H1349 C1321 0.930 . S
H1350 C1330 0.930 . S
H1351 C1342 0.929 . S
H1352 C1345 0.930 . S
C1353 C1354 1.351 . S
C1353 N1356 1.368 . S
C1353 H1358 0.931 . S
C1354 C1353 1.351 . S
C1354 N1355 1.373 . S
C1354 H1382 0.930 . S
N1355 C1354 1.373 . S
N1355 C1357 1.340 . S
N1356 C1353 1.368 . S
N1356 C1357 1.321 . S
N1356 Co1359 2.135 . S
C1357 N1355 1.340 . S
C1357 N1356 1.321 . S
C1357 H1381 0.930 . S
H1358 C1353 0.931 . S
Co1359 N1356 2.135 . S
Co1359 N1362 2.121 . S
Co1359 O1367 2.055 . S
Co1359 O1370 2.039 . S
Co1359 N1373 2.140 . S
C1360 O1361 1.227 . S
C1360 O1370 1.265 . S
O1361 C1360 1.227 . S
N1362 Co1359 2.121 . S
N1362 C1364 1.375 . S
N1362 C1365 1.313 . S
C1363 C1364 1.338 . S
C1363 N1366 1.377 . S
C1363 H1383 0.930 . S
C1364 N1362 1.375 . S
C1364 C1363 1.338 . S
C1364 H1368 0.931 . S
C1365 N1362 1.313 . S
C1365 N1366 1.344 . S
C1365 H1369 0.930 . S
N1366 C1363 1.377 . S
N1366 C1365 1.344 . S
O1367 Co1359 2.055 . S
O1367 C1371 1.253 . S
H1368 C1364 0.931 . S
H1369 C1365 0.930 . S
O1370 Co1359 2.039 . S
O1370 C1360 1.265 . S
C1371 O1367 1.253 . S
C1371 O1372 1.227 . S
O1372 C1371 1.227 . S
N1373 Co1359 2.140 . S
N1373 C1376 1.346 . S
N1373 C1377 1.345 . S
C1374 C1375 1.387 . S
C1374 C1378 1.391 . S
C1375 C1374 1.387 . S
C1375 C1376 1.369 . S
C1375 H1384 0.929 . S
C1376 N1373 1.346 . S
C1376 C1375 1.369 . S
C1376 H1379 0.928 . S
C1377 N1373 1.345 . S
C1377 C1378 1.371 . S
C1377 H1380 0.931 . S
C1378 C1374 1.391 . S
C1378 C1377 1.371 . S
C1378 H1385 0.930 . S
H1379 C1376 0.928 . S
H1380 C1377 0.931 . S
H1381 C1357 0.930 . S
H1382 C1354 0.930 . S
H1383 C1363 0.930 . S
H1384 C1375 0.929 . S
H1385 C1378 0.930 . S
C1386 C1387 1.351 . S
C1386 N1389 1.368 . S
C1386 H1391 0.931 . S
C1387 C1386 1.351 . S
C1387 N1388 1.373 . S
C1387 H1415 0.930 . S
N1388 C1387 1.373 . S
N1388 C1390 1.340 . S
N1389 C1386 1.368 . S
N1389 C1390 1.321 . S
N1389 Co1392 2.135 . S
C1390 N1388 1.340 . S
C1390 N1389 1.321 . S
C1390 H1414 0.930 . S
H1391 C1386 0.931 . S
Co1392 N1389 2.135 . S
Co1392 N1395 2.121 . S
Co1392 O1400 2.055 . S
Co1392 O1403 2.039 . S
Co1392 N1406 2.140 . S
C1393 O1394 1.227 . S
C1393 O1403 1.265 . S
O1394 C1393 1.227 . S
N1395 Co1392 2.121 . S
N1395 C1397 1.375 . S
N1395 C1398 1.313 . S
C1396 C1397 1.338 . S
C1396 N1399 1.377 . S
C1396 H1416 0.930 . S
C1397 N1395 1.375 . S
C1397 C1396 1.338 . S
C1397 H1401 0.931 . S
C1398 N1395 1.313 . S
C1398 N1399 1.344 . S
C1398 H1402 0.930 . S
N1399 C1396 1.377 . S
N1399 C1398 1.344 . S
O1400 Co1392 2.055 . S
O1400 C1404 1.253 . S
H1401 C1397 0.931 . S
H1402 C1398 0.930 . S
O1403 Co1392 2.039 . S
O1403 C1393 1.265 . S
C1404 O1400 1.253 . S
C1404 O1405 1.227 . S
O1405 C1404 1.227 . S
N1406 Co1392 2.140 . S
N1406 C1409 1.346 . S
N1406 C1410 1.345 . S
C1407 C1408 1.387 . S
C1407 C1411 1.391 . S
C1408 C1407 1.387 . S
C1408 C1409 1.369 . S
C1408 H1417 0.929 . S
C1409 N1406 1.346 . S
C1409 C1408 1.369 . S
C1409 H1412 0.928 . S
C1410 N1406 1.345 . S
C1410 C1411 1.371 . S
C1410 H1413 0.931 . S
C1411 C1407 1.391 . S
C1411 C1410 1.371 . S
C1411 H1418 0.930 . S
H1412 C1409 0.928 . S
H1413 C1410 0.931 . S
H1414 C1390 0.930 . S
H1415 C1387 0.930 . S
H1416 C1396 0.930 . S
H1417 C1408 0.929 . S
H1418 C1411 0.930 . S
C1419 C1420 1.351 . S
C1419 N1422 1.368 . S
C1419 H1424 0.931 . S
C1420 C1419 1.351 . S
C1420 N1421 1.373 . S
C1420 H1448 0.930 . S
N1421 C1420 1.373 . S
N1421 C1423 1.340 . S
N1422 C1419 1.368 . S
N1422 C1423 1.321 . S
N1422 Co1425 2.135 . S
C1423 N1421 1.340 . S
C1423 N1422 1.321 . S
C1423 H1447 0.930 . S
H1424 C1419 0.931 . S
Co1425 N1422 2.135 . S
Co1425 N1428 2.121 . S
Co1425 O1433 2.055 . S
Co1425 O1436 2.039 . S
Co1425 N1439 2.140 . S
C1426 O1427 1.227 . S
C1426 O1436 1.265 . S
O1427 C1426 1.227 . S
N1428 Co1425 2.121 . S
N1428 C1430 1.375 . S
N1428 C1431 1.313 . S
C1429 C1430 1.338 . S
C1429 N1432 1.377 . S
C1429 H1449 0.930 . S
C1430 N1428 1.375 . S
C1430 C1429 1.338 . S
C1430 H1434 0.931 . S
C1431 N1428 1.313 . S
C1431 N1432 1.344 . S
C1431 H1435 0.930 . S
N1432 C1429 1.377 . S
N1432 C1431 1.344 . S
O1433 Co1425 2.055 . S
O1433 C1437 1.253 . S
H1434 C1430 0.931 . S
H1435 C1431 0.930 . S
O1436 Co1425 2.039 . S
O1436 C1426 1.265 . S
C1437 O1433 1.253 . S
C1437 O1438 1.227 . S
O1438 C1437 1.227 . S
N1439 Co1425 2.140 . S
N1439 C1442 1.346 . S
N1439 C1443 1.345 . S
C1440 C1441 1.387 . S
C1440 C1444 1.391 . S
C1441 C1440 1.387 . S
C1441 C1442 1.369 . S
C1441 H1450 0.929 . S
C1442 N1439 1.346 . S
C1442 C1441 1.369 . S
C1442 H1445 0.928 . S
C1443 N1439 1.345 . S
C1443 C1444 1.371 . S
C1443 H1446 0.931 . S
C1444 C1440 1.391 . S
C1444 C1443 1.371 . S
C1444 H1451 0.930 . S
H1445 C1442 0.928 . S
H1446 C1443 0.931 . S
H1447 C1423 0.930 . S
H1448 C1420 0.930 . S
H1449 C1429 0.930 . S
H1450 C1441 0.929 . S
H1451 C1444 0.930 . S
C1452 C1453 1.351 . S
C1452 N1455 1.368 . S
C1452 H1457 0.931 . S
C1453 C1452 1.351 . S
C1453 N1454 1.373 . S
C1453 H1481 0.930 . S
N1454 C1453 1.373 . S
N1454 C1456 1.340 . S
N1455 C1452 1.368 . S
N1455 C1456 1.321 . S
N1455 Co1458 2.135 . S
C1456 N1454 1.340 . S
C1456 N1455 1.321 . S
C1456 H1480 0.930 . S
H1457 C1452 0.931 . S
Co1458 N1455 2.135 . S
Co1458 N1461 2.121 . S
Co1458 O1466 2.055 . S
Co1458 O1469 2.039 . S
Co1458 N1472 2.140 . S
C1459 O1460 1.227 . S
C1459 O1469 1.265 . S
O1460 C1459 1.227 . S
N1461 Co1458 2.121 . S
N1461 C1463 1.375 . S
N1461 C1464 1.313 . S
C1462 C1463 1.338 . S
C1462 N1465 1.377 . S
C1462 H1482 0.930 . S
C1463 N1461 1.375 . S
C1463 C1462 1.338 . S
C1463 H1467 0.931 . S
C1464 N1461 1.313 . S
C1464 N1465 1.344 . S
C1464 H1468 0.930 . S
N1465 C1462 1.377 . S
N1465 C1464 1.344 . S
O1466 Co1458 2.055 . S
O1466 C1470 1.253 . S
H1467 C1463 0.931 . S
H1468 C1464 0.930 . S
O1469 Co1458 2.039 . S
O1469 C1459 1.265 . S
C1470 O1466 1.253 . S
C1470 O1471 1.227 . S
O1471 C1470 1.227 . S
N1472 Co1458 2.140 . S
N1472 C1475 1.346 . S
N1472 C1476 1.345 . S
C1473 C1474 1.387 . S
C1473 C1477 1.391 . S
C1474 C1473 1.387 . S
C1474 C1475 1.369 . S
C1474 H1483 0.929 . S
C1475 N1472 1.346 . S
C1475 C1474 1.369 . S
C1475 H1478 0.928 . S
C1476 N1472 1.345 . S
C1476 C1477 1.371 . S
C1476 H1479 0.931 . S
C1477 C1473 1.391 . S
C1477 C1476 1.371 . S
C1477 H1484 0.930 . S
H1478 C1475 0.928 . S
H1479 C1476 0.931 . S
H1480 C1456 0.930 . S
H1481 C1453 0.930 . S
H1482 C1462 0.930 . S
H1483 C1474 0.929 . S
H1484 C1477 0.930 . S
C1485 C1486 1.351 . S
C1485 N1488 1.368 . S
C1485 H1490 0.931 . S
C1486 C1485 1.351 . S
C1486 N1487 1.373 . S
C1486 H1514 0.930 . S
N1487 C1486 1.373 . S
N1487 C1489 1.340 . S
N1488 C1485 1.368 . S
N1488 C1489 1.321 . S
N1488 Co1491 2.135 . S
C1489 N1487 1.340 . S
C1489 N1488 1.321 . S
C1489 H1513 0.930 . S
H1490 C1485 0.931 . S
Co1491 N1488 2.135 . S
Co1491 N1494 2.121 . S
Co1491 O1499 2.055 . S
Co1491 O1502 2.039 . S
Co1491 N1505 2.140 . S
C1492 O1493 1.227 . S
C1492 O1502 1.265 . S
O1493 C1492 1.227 . S
N1494 Co1491 2.121 . S
N1494 C1496 1.375 . S
N1494 C1497 1.313 . S
C1495 C1496 1.338 . S
C1495 N1498 1.377 . S
C1495 H1515 0.930 . S
C1496 N1494 1.375 . S
C1496 C1495 1.338 . S
C1496 H1500 0.931 . S
C1497 N1494 1.313 . S
C1497 N1498 1.344 . S
C1497 H1501 0.930 . S
N1498 C1495 1.377 . S
N1498 C1497 1.344 . S
O1499 Co1491 2.055 . S
O1499 C1503 1.253 . S
H1500 C1496 0.931 . S
H1501 C1497 0.930 . S
O1502 Co1491 2.039 . S
O1502 C1492 1.265 . S
C1503 O1499 1.253 . S
C1503 O1504 1.227 . S
O1504 C1503 1.227 . S
N1505 Co1491 2.140 . S
N1505 C1508 1.346 . S
N1505 C1509 1.345 . S
C1506 C1507 1.387 . S
C1506 C1510 1.391 . S
C1507 C1506 1.387 . S
C1507 C1508 1.369 . S
C1507 H1516 0.929 . S
C1508 N1505 1.346 . S
C1508 C1507 1.369 . S
C1508 H1511 0.928 . S
C1509 N1505 1.345 . S
C1509 C1510 1.371 . S
C1509 H1512 0.931 . S
C1510 C1506 1.391 . S
C1510 C1509 1.371 . S
C1510 H1517 0.930 . S
H1511 C1508 0.928 . S
H1512 C1509 0.931 . S
H1513 C1489 0.930 . S
H1514 C1486 0.930 . S
H1515 C1495 0.930 . S
H1516 C1507 0.929 . S
H1517 C1510 0.930 . S
C1518 C1519 1.351 . S
C1518 N1521 1.368 . S
C1518 H1523 0.931 . S
C1519 C1518 1.351 . S
C1519 N1520 1.373 . S
C1519 H1547 0.930 . S
N1520 C1519 1.373 . S
N1520 C1522 1.340 . S
N1521 C1518 1.368 . S
N1521 C1522 1.321 . S
N1521 Co1524 2.135 . S
C1522 N1520 1.340 . S
C1522 N1521 1.321 . S
C1522 H1546 0.930 . S
H1523 C1518 0.931 . S
Co1524 N1521 2.135 . S
Co1524 N1527 2.121 . S
Co1524 O1532 2.055 . S
Co1524 O1535 2.039 . S
Co1524 N1538 2.140 . S
C1525 O1526 1.227 . S
C1525 O1535 1.265 . S
O1526 C1525 1.227 . S
N1527 Co1524 2.121 . S
N1527 C1529 1.375 . S
N1527 C1530 1.313 . S
C1528 C1529 1.338 . S
C1528 N1531 1.377 . S
C1528 H1548 0.930 . S
C1529 N1527 1.375 . S
C1529 C1528 1.338 . S
C1529 H1533 0.931 . S
C1530 N1527 1.313 . S
C1530 N1531 1.344 . S
C1530 H1534 0.930 . S
N1531 C1528 1.377 . S
N1531 C1530 1.344 . S
O1532 Co1524 2.055 . S
O1532 C1536 1.253 . S
H1533 C1529 0.931 . S
H1534 C1530 0.930 . S
O1535 Co1524 2.039 . S
O1535 C1525 1.265 . S
C1536 O1532 1.253 . S
C1536 O1537 1.227 . S
O1537 C1536 1.227 . S
N1538 Co1524 2.140 . S
N1538 C1541 1.346 . S
N1538 C1542 1.345 . S
C1539 C1540 1.387 . S
C1539 C1543 1.391 . S
C1540 C1539 1.387 . S
C1540 C1541 1.369 . S
C1540 H1549 0.929 . S
C1541 N1538 1.346 . S
C1541 C1540 1.369 . S
C1541 H1544 0.928 . S
C1542 N1538 1.345 . S
C1542 C1543 1.371 . S
C1542 H1545 0.931 . S
C1543 C1539 1.391 . S
C1543 C1542 1.371 . S
C1543 H1550 0.930 . S
H1544 C1541 0.928 . S
H1545 C1542 0.931 . S
H1546 C1522 0.930 . S
H1547 C1519 0.930 . S
H1548 C1528 0.930 . S
H1549 C1540 0.929 . S
H1550 C1543 0.930 . S
C1551 C1552 1.351 . S
C1551 N1554 1.368 . S
C1551 H1556 0.931 . S
C1552 C1551 1.351 . S
C1552 N1553 1.373 . S
C1552 H1580 0.930 . S
N1553 C1552 1.373 . S
N1553 C1555 1.340 . S
N1554 C1551 1.368 . S
N1554 C1555 1.321 . S
N1554 Co1557 2.135 . S
C1555 N1553 1.340 . S
C1555 N1554 1.321 . S
C1555 H1579 0.930 . S
H1556 C1551 0.931 . S
Co1557 N1554 2.135 . S
Co1557 N1560 2.121 . S
Co1557 O1565 2.055 . S
Co1557 O1568 2.039 . S
Co1557 N1571 2.140 . S
C1558 O1559 1.227 . S
C1558 O1568 1.265 . S
O1559 C1558 1.227 . S
N1560 Co1557 2.121 . S
N1560 C1562 1.375 . S
N1560 C1563 1.313 . S
C1561 C1562 1.338 . S
C1561 N1564 1.377 . S
C1561 H1581 0.930 . S
C1562 N1560 1.375 . S
C1562 C1561 1.338 . S
C1562 H1566 0.931 . S
C1563 N1560 1.313 . S
C1563 N1564 1.344 . S
C1563 H1567 0.930 . S
N1564 C1561 1.377 . S
N1564 C1563 1.344 . S
O1565 Co1557 2.055 . S
O1565 C1569 1.253 . S
H1566 C1562 0.931 . S
H1567 C1563 0.930 . S
O1568 Co1557 2.039 . S
O1568 C1558 1.265 . S
C1569 O1565 1.253 . S
C1569 O1570 1.227 . S
O1570 C1569 1.227 . S
N1571 Co1557 2.140 . S
N1571 C1574 1.346 . S
N1571 C1575 1.345 . S
C1572 C1573 1.387 . S
C1572 C1576 1.391 . S
C1573 C1572 1.387 . S
C1573 C1574 1.369 . S
C1573 H1582 0.929 . S
C1574 N1571 1.346 . S
C1574 C1573 1.369 . S
C1574 H1577 0.928 . S
C1575 N1571 1.345 . S
C1575 C1576 1.371 . S
C1575 H1578 0.931 . S
C1576 C1572 1.391 . S
C1576 C1575 1.371 . S
C1576 H1583 0.930 . S
H1577 C1574 0.928 . S
H1578 C1575 0.931 . S
H1579 C1555 0.930 . S
H1580 C1552 0.930 . S
H1581 C1561 0.930 . S
H1582 C1573 0.929 . S
H1583 C1576 0.930 . S
H1584 C1592 0.950 . S
H1585 C1597 0.950 . S
H1586 C1594 0.950 . S
H1587 C1596 0.950 . S
H1588 C1598 0.950 . S
H1589 C1600 0.950 . S
H1590 C1602 0.950 . S
H1591 C1603 0.950 1_655 S
C1592 H1584 0.950 . S
C1592 C1593 1.386 . S
C1592 C1594 1.391 . S
C1593 C1592 1.386 . S
C1593 C1597 1.393 . S
C1594 H1586 0.950 . S
C1594 C1592 1.391 . S
C1594 C1595 1.400 . S
C1595 C1594 1.400 . S
C1595 C1596 1.398 . S
C1595 C1601 1.491 . S
C1596 H1587 0.950 . S
C1596 C1595 1.398 . S
C1596 C1597 1.391 . S
C1597 H1585 0.950 . S
C1597 C1593 1.393 . S
C1597 C1596 1.391 . S
C1598 H1588 0.950 . S
C1598 C1599 1.386 . S
C1598 C1600 1.391 . S
C1599 C1598 1.386 . S
C1599 C1603 1.393 . S
C1600 H1589 0.950 . S
C1600 C1598 1.391 . S
C1600 C1601 1.400 . S
C1601 C1595 1.491 . S
C1601 C1600 1.400 . S
C1601 C1602 1.398 . S
C1602 H1590 0.950 . S
C1602 C1601 1.398 . S
C1602 C1603 1.391 . S
C1603 H1591 0.950 1_455 S
C1603 C1599 1.393 . S
C1603 C1602 1.391 . S
H1604 C1612 0.950 . S
H1605 C1617 0.950 . S
H1606 C1614 0.950 . S
H1607 C1616 0.950 . S
H1608 C1618 0.950 . S
H1609 C1620 0.950 . S
H1610 C1622 0.950 . S
H1611 C1623 0.950 . S
C1612 H1604 0.950 . S
C1612 C1613 1.386 . S
C1612 C1614 1.391 . S
C1613 C1612 1.386 . S
C1613 C1617 1.393 . S
C1614 H1606 0.950 . S
C1614 C1612 1.391 . S
C1614 C1615 1.400 . S
C1615 C1614 1.400 . S
C1615 C1616 1.398 . S
C1615 C1621 1.491 . S
C1616 H1607 0.950 . S
C1616 C1615 1.398 . S
C1616 C1617 1.391 . S
C1617 H1605 0.950 . S
C1617 C1613 1.393 . S
C1617 C1616 1.391 . S
C1618 H1608 0.950 . S
C1618 C1619 1.386 . S
C1618 C1620 1.391 . S
C1619 C1618 1.386 . S
C1619 C1623 1.393 . S
C1620 H1609 0.950 . S
C1620 C1618 1.391 . S
C1620 C1621 1.400 . S
C1621 C1615 1.491 . S
C1621 C1620 1.400 . S
C1621 C1622 1.398 . S
C1622 H1610 0.950 . S
C1622 C1621 1.398 . S
C1622 C1623 1.391 . S
C1623 H1611 0.950 . S
C1623 C1619 1.393 . S
C1623 C1622 1.391 . S
H1624 C1632 0.950 . S
H1625 C1637 0.950 . S
H1626 C1634 0.950 . S
H1627 C1636 0.950 . S
H1628 C1638 0.950 . S
H1629 C1640 0.950 . S
H1630 C1642 0.950 . S
H1631 C1643 0.950 . S
C1632 H1624 0.950 . S
C1632 C1633 1.386 . S
C1632 C1634 1.391 . S
C1633 C1632 1.386 . S
C1633 C1637 1.393 . S
C1634 H1626 0.950 . S
C1634 C1632 1.391 . S
C1634 C1635 1.400 . S
C1635 C1634 1.400 . S
C1635 C1636 1.398 . S
C1635 C1641 1.491 . S
C1636 H1627 0.950 . S
C1636 C1635 1.398 . S
C1636 C1637 1.391 . S
C1637 H1625 0.950 . S
C1637 C1633 1.393 . S
C1637 C1636 1.391 . S
C1638 H1628 0.950 . S
C1638 C1639 1.386 . S
C1638 C1640 1.391 . S
C1639 C1638 1.386 . S
C1639 C1643 1.393 . S
C1640 H1629 0.950 . S
C1640 C1638 1.391 . S
C1640 C1641 1.400 . S
C1641 C1635 1.491 . S
C1641 C1640 1.400 . S
C1641 C1642 1.398 . S
C1642 H1630 0.950 . S
C1642 C1641 1.398 . S
C1642 C1643 1.391 . S
C1643 H1631 0.950 . S
C1643 C1639 1.393 . S
C1643 C1642 1.391 . S
H1644 C1652 0.950 . S
H1645 C1657 0.950 . S
H1646 C1654 0.950 . S
H1647 C1656 0.950 . S
H1648 C1658 0.950 . S
H1649 C1660 0.950 . S
H1650 C1662 0.950 . S
H1651 C1663 0.950 . S
C1652 H1644 0.950 . S
C1652 C1653 1.386 . S
C1652 C1654 1.391 . S
C1653 C1652 1.386 . S
C1653 C1657 1.393 . S
C1654 H1646 0.950 . S
C1654 C1652 1.391 . S
C1654 C1655 1.400 . S
C1655 C1654 1.400 . S
C1655 C1656 1.398 . S
C1655 C1661 1.491 . S
C1656 H1647 0.950 . S
C1656 C1655 1.398 . S
C1656 C1657 1.391 . S
C1657 H1645 0.950 . S
C1657 C1653 1.393 . S
C1657 C1656 1.391 . S
C1658 H1648 0.950 . S
C1658 C1659 1.386 . S
C1658 C1660 1.391 . S
C1659 C1658 1.386 . S
C1659 C1663 1.393 . S
C1660 H1649 0.950 . S
C1660 C1658 1.391 . S
C1660 C1661 1.400 . S
C1661 C1655 1.491 . S
C1661 C1660 1.400 . S
C1661 C1662 1.398 . S
C1662 H1650 0.950 . S
C1662 C1661 1.398 . S
C1662 C1663 1.391 . S
C1663 H1651 0.950 . S
C1663 C1659 1.393 . S
C1663 C1662 1.391 . S
H1664 C1672 0.950 . S
H1665 C1677 0.950 . S
H1666 C1674 0.950 . S
H1667 C1676 0.950 . S
H1668 C1678 0.950 . S
H1669 C1680 0.950 . S
H1670 C1682 0.950 . S
H1671 C1683 0.950 . S
C1672 H1664 0.950 . S
C1672 C1673 1.386 . S
C1672 C1674 1.391 . S
C1673 C1672 1.386 . S
C1673 C1677 1.393 . S
C1674 H1666 0.950 . S
C1674 C1672 1.391 . S
C1674 C1675 1.400 . S
C1675 C1674 1.400 . S
C1675 C1676 1.398 . S
C1675 C1681 1.491 . S
C1676 H1667 0.950 . S
C1676 C1675 1.398 . S
C1676 C1677 1.391 . S
C1677 H1665 0.950 . S
C1677 C1673 1.393 . S
C1677 C1676 1.391 . S
C1678 H1668 0.950 . S
C1678 C1679 1.386 1_655 S
C1678 C1680 1.391 1_655 S
C1679 C1678 1.386 1_455 S
C1679 C1683 1.393 . S
C1680 H1669 0.950 . S
C1680 C1678 1.391 1_455 S
C1680 C1681 1.400 . S
C1681 C1675 1.491 . S
C1681 C1680 1.400 . S
C1681 C1682 1.398 . S
C1682 H1670 0.950 . S
C1682 C1681 1.398 . S
C1682 C1683 1.391 . S
C1683 H1671 0.950 . S
C1683 C1679 1.393 . S
C1683 C1682 1.391 . S
H1684 C1692 0.950 . S
H1685 C1697 0.950 . S
H1686 C1694 0.950 . S
H1687 C1696 0.950 . S
H1688 C1698 0.950 . S
H1689 C1700 0.950 . S
H1690 C1702 0.950 . S
H1691 C1703 0.950 . S
C1692 H1684 0.950 . S
C1692 C1693 1.386 . S
C1692 C1694 1.391 . S
C1693 C1692 1.386 . S
C1693 C1697 1.393 . S
C1694 H1686 0.950 . S
C1694 C1692 1.391 . S
C1694 C1695 1.400 . S
C1695 C1694 1.400 . S
C1695 C1696 1.398 . S
C1695 C1701 1.491 . S
C1696 H1687 0.950 . S
C1696 C1695 1.398 . S
C1696 C1697 1.391 . S
C1697 H1685 0.950 . S
C1697 C1693 1.393 . S
C1697 C1696 1.391 . S
C1698 H1688 0.950 . S
C1698 C1699 1.386 . S
C1698 C1700 1.391 . S
C1699 C1698 1.386 . S
C1699 C1703 1.393 . S
C1700 H1689 0.950 . S
C1700 C1698 1.391 . S
C1700 C1701 1.400 . S
C1701 C1695 1.491 . S
C1701 C1700 1.400 . S
C1701 C1702 1.398 . S
C1702 H1690 0.950 . S
C1702 C1701 1.398 . S
C1702 C1703 1.391 . S
C1703 H1691 0.950 . S
C1703 C1699 1.393 . S
C1703 C1702 1.391 . S
H1704 C1712 0.950 . S
H1705 C1717 0.950 . S
H1706 C1714 0.950 . S
H1707 C1716 0.950 . S
H1708 C1718 0.950 . S
H1709 C1720 0.950 . S
H1710 C1722 0.950 . S
H1711 C1723 0.950 . S
C1712 H1704 0.950 . S
C1712 C1713 1.386 . S
C1712 C1714 1.391 . S
C1713 C1712 1.386 . S
C1713 C1717 1.393 . S
C1714 H1706 0.950 . S
C1714 C1712 1.391 . S
C1714 C1715 1.400 . S
C1715 C1714 1.400 . S
C1715 C1716 1.398 . S
C1715 C1721 1.491 . S
C1716 H1707 0.950 . S
C1716 C1715 1.398 . S
C1716 C1717 1.391 . S
C1717 H1705 0.950 . S
C1717 C1713 1.393 . S
C1717 C1716 1.391 . S
C1718 H1708 0.950 . S
C1718 C1719 1.386 . S
C1718 C1720 1.391 . S
C1719 C1718 1.386 . S
C1719 C1723 1.393 . S
C1720 H1709 0.950 . S
C1720 C1718 1.391 . S
C1720 C1721 1.400 . S
C1721 C1715 1.491 . S
C1721 C1720 1.400 . S
C1721 C1722 1.398 . S
C1722 H1710 0.950 . S
C1722 C1721 1.398 . S
C1722 C1723 1.391 . S
C1723 H1711 0.950 . S
C1723 C1719 1.393 . S
C1723 C1722 1.391 . S
H1724 C1732 0.950 . S
H1725 C1737 0.950 1_556 S
H1726 C1734 0.950 . S
H1727 C1736 0.950 . S
H1728 C1738 0.950 . S
H1729 C1740 0.950 . S
H1730 C1742 0.950 . S
H1731 C1743 0.950 . S
C1732 H1724 0.950 . S
C1732 C1733 1.386 . S
C1732 C1734 1.391 . S
C1733 C1732 1.386 . S
C1733 C1737 1.393 . S
C1734 H1726 0.950 . S
C1734 C1732 1.391 . S
C1734 C1735 1.400 . S
C1735 C1734 1.400 . S
C1735 C1736 1.398 . S
C1735 C1741 1.491 . S
C1736 H1727 0.950 . S
C1736 C1735 1.398 . S
C1736 C1737 1.391 . S
C1737 H1725 0.950 1_554 S
C1737 C1733 1.393 . S
C1737 C1736 1.391 . S
C1738 H1728 0.950 . S
C1738 C1739 1.386 . S
C1738 C1740 1.391 . S
C1739 C1738 1.386 . S
C1739 C1743 1.393 . S
C1740 H1729 0.950 . S
C1740 C1738 1.391 . S
C1740 C1741 1.400 . S
C1741 C1735 1.491 . S
C1741 C1740 1.400 . S
C1741 C1742 1.398 . S
C1742 H1730 0.950 . S
C1742 C1741 1.398 . S
C1742 C1743 1.391 . S
C1743 H1731 0.950 . S
C1743 C1739 1.393 . S
C1743 C1742 1.391 . S
H1744 C1752 0.950 . S
H1745 C1757 0.950 . S
H1746 C1754 0.950 . S
H1747 C1756 0.950 . S
H1748 C1758 0.950 . S
H1749 C1760 0.950 . S
H1750 C1762 0.950 . S
H1751 C1763 0.950 . S
C1752 H1744 0.950 . S
C1752 C1753 1.386 . S
C1752 C1754 1.391 . S
C1753 C1752 1.386 . S
C1753 C1757 1.393 . S
C1754 H1746 0.950 . S
C1754 C1752 1.391 . S
C1754 C1755 1.400 . S
C1755 C1754 1.400 . S
C1755 C1756 1.398 . S
C1755 C1761 1.491 . S
C1756 H1747 0.950 . S
C1756 C1755 1.398 . S
C1756 C1757 1.391 . S
C1757 H1745 0.950 . S
C1757 C1753 1.393 . S
C1757 C1756 1.391 . S
C1758 H1748 0.950 . S
C1758 C1759 1.386 . S
C1758 C1760 1.391 . S
C1759 C1758 1.386 . S
C1759 C1763 1.393 . S
C1760 H1749 0.950 . S
C1760 C1758 1.391 . S
C1760 C1761 1.400 . S
C1761 C1755 1.491 . S
C1761 C1760 1.400 . S
C1761 C1762 1.398 . S
C1762 H1750 0.950 . S
C1762 C1761 1.398 . S
C1762 C1763 1.391 . S
C1763 H1751 0.950 . S
C1763 C1759 1.393 . S
C1763 C1762 1.391 . S
H1764 C1772 0.950 . S
H1765 C1777 0.950 . S
H1766 C1774 0.950 . S
H1767 C1776 0.950 . S
H1768 C1778 0.950 . S
H1769 C1780 0.950 . S
H1770 C1782 0.950 . S
H1771 C1783 0.950 . S
C1772 H1764 0.950 . S
C1772 C1773 1.386 . S
C1772 C1774 1.391 . S
C1773 C1772 1.386 . S
C1773 C1777 1.393 . S
C1774 H1766 0.950 . S
C1774 C1772 1.391 . S
C1774 C1775 1.400 . S
C1775 C1774 1.400 . S
C1775 C1776 1.398 . S
C1775 C1781 1.491 . S
C1776 H1767 0.950 . S
C1776 C1775 1.398 . S
C1776 C1777 1.391 . S
C1777 H1765 0.950 . S
C1777 C1773 1.393 . S
C1777 C1776 1.391 . S
C1778 H1768 0.950 . S
C1778 C1779 1.386 . S
C1778 C1780 1.391 . S
C1779 C1778 1.386 . S
C1779 C1783 1.393 . S
C1780 H1769 0.950 . S
C1780 C1778 1.391 . S
C1780 C1781 1.400 . S
C1781 C1775 1.491 . S
C1781 C1780 1.400 . S
C1781 C1782 1.398 . S
C1782 H1770 0.950 . S
C1782 C1781 1.398 . S
C1782 C1783 1.391 . S
C1783 H1771 0.950 . S
C1783 C1779 1.393 . S
C1783 C1782 1.391 . S
H1784 C1792 0.950 . S
H1785 C1797 0.950 . S
H1786 C1794 0.950 . S
H1787 C1796 0.950 . S
H1788 C1798 0.950 . S
H1789 C1800 0.950 . S
H1790 C1802 0.950 . S
H1791 C1803 0.950 . S
C1792 H1784 0.950 . S
C1792 C1793 1.386 . S
C1792 C1794 1.391 . S
C1793 C1792 1.386 . S
C1793 C1797 1.393 1_565 S
C1794 H1786 0.950 . S
C1794 C1792 1.391 . S
C1794 C1795 1.400 . S
C1795 C1794 1.400 . S
C1795 C1796 1.398 . S
C1795 C1801 1.491 . S
C1796 H1787 0.950 . S
C1796 C1795 1.398 . S
C1796 C1797 1.391 1_565 S
C1797 H1785 0.950 . S
C1797 C1793 1.393 1_545 S
C1797 C1796 1.391 1_545 S
C1798 H1788 0.950 . S
C1798 C1799 1.386 . S
C1798 C1800 1.391 . S
C1799 C1798 1.386 . S
C1799 C1803 1.393 . S
C1800 H1789 0.950 . S
C1800 C1798 1.391 . S
C1800 C1801 1.400 . S
C1801 C1795 1.491 . S
C1801 C1800 1.400 . S
C1801 C1802 1.398 . S
C1802 H1790 0.950 . S
C1802 C1801 1.398 . S
C1802 C1803 1.391 . S
C1803 H1791 0.950 . S
C1803 C1799 1.393 . S
C1803 C1802 1.391 . S
H1804 C1812 0.950 . S
H1805 C1817 0.950 . S
H1806 C1814 0.950 . S
H1807 C1816 0.950 . S
H1808 C1818 0.950 . S
H1809 C1820 0.950 . S
H1810 C1822 0.950 . S
H1811 C1823 0.950 1_565 S
C1812 H1804 0.950 . S
C1812 C1813 1.386 . S
C1812 C1814 1.391 . S
C1813 C1812 1.386 . S
C1813 C1817 1.393 . S
C1814 H1806 0.950 . S
C1814 C1812 1.391 . S
C1814 C1815 1.400 . S
C1815 C1814 1.400 . S
C1815 C1816 1.398 . S
C1815 C1821 1.491 . S
C1816 H1807 0.950 . S
C1816 C1815 1.398 . S
C1816 C1817 1.391 . S
C1817 H1805 0.950 . S
C1817 C1813 1.393 . S
C1817 C1816 1.391 . S
C1818 H1808 0.950 . S
C1818 C1819 1.386 . S
C1818 C1820 1.391 . S
C1819 C1818 1.386 . S
C1819 C1823 1.393 . S
C1820 H1809 0.950 . S
C1820 C1818 1.391 . S
C1820 C1821 1.400 . S
C1821 C1815 1.491 . S
C1821 C1820 1.400 . S
C1821 C1822 1.398 . S
C1822 H1810 0.950 . S
C1822 C1821 1.398 . S
C1822 C1823 1.391 . S
C1823 H1811 0.950 1_545 S
C1823 C1819 1.393 . S
C1823 C1822 1.391 . S
H1824 C1832 0.950 . S
H1825 C1837 0.950 1_554 S
H1826 C1834 0.950 . S
H1827 C1836 0.950 . S
H1828 C1838 0.950 . S
H1829 C1840 0.950 . S
H1830 C1842 0.950 . S
H1831 C1843 0.950 . S
C1832 H1824 0.950 . S
C1832 C1833 1.386 . S
C1832 C1834 1.391 . S
C1833 C1832 1.386 . S
C1833 C1837 1.393 . S
C1834 H1826 0.950 . S
C1834 C1832 1.391 . S
C1834 C1835 1.400 . S
C1835 C1834 1.400 . S
C1835 C1836 1.398 . S
C1835 C1841 1.491 . S
C1836 H1827 0.950 . S
C1836 C1835 1.398 . S
C1836 C1837 1.391 . S
C1837 H1825 0.950 1_556 S
C1837 C1833 1.393 . S
C1837 C1836 1.391 . S
C1838 H1828 0.950 . S
C1838 C1839 1.386 . S
C1838 C1840 1.391 . S
C1839 C1838 1.386 . S
C1839 C1843 1.393 . S
C1840 H1829 0.950 . S
C1840 C1838 1.391 . S
C1840 C1841 1.400 . S
C1841 C1835 1.491 . S
C1841 C1840 1.400 . S
C1841 C1842 1.398 . S
C1842 H1830 0.950 . S
C1842 C1841 1.398 . S
C1842 C1843 1.391 . S
C1843 H1831 0.950 . S
C1843 C1839 1.393 . S
C1843 C1842 1.391 . S
H1844 C1852 0.950 . S
H1845 C1857 0.951 . S
H1846 C1854 0.950 . S
H1847 C1856 0.950 . S
H1848 C1858 0.950 . S
H1849 C1860 0.950 . S
H1850 C1862 0.950 . S
H1851 C1863 0.950 . S
C1852 H1844 0.950 . S
C1852 C1853 1.386 . S
C1852 C1854 1.391 . S
C1853 C1852 1.386 . S
C1853 C1857 1.392 1_655 S
C1854 H1846 0.950 . S
C1854 C1852 1.391 . S
C1854 C1855 1.400 . S
C1855 C1854 1.400 . S
C1855 C1856 1.398 . S
C1855 C1861 1.491 . S
C1856 H1847 0.950 . S
C1856 C1855 1.398 . S
C1856 C1857 1.390 1_655 S
C1857 H1845 0.951 . S
C1857 C1853 1.392 1_455 S
C1857 C1856 1.390 1_455 S
C1858 H1848 0.950 . S
C1858 C1859 1.386 . S
C1858 C1860 1.391 . S
C1859 C1858 1.386 . S
C1859 C1863 1.393 . S
C1860 H1849 0.950 . S
C1860 C1858 1.391 . S
C1860 C1861 1.400 . S
C1861 C1855 1.491 . S
C1861 C1860 1.400 . S
C1861 C1862 1.398 . S
C1862 H1850 0.950 . S
C1862 C1861 1.398 . S
C1862 C1863 1.391 . S
C1863 H1851 0.950 . S
C1863 C1859 1.393 . S
C1863 C1862 1.391 . S
H1864 C1872 0.950 . S
H1865 C1877 0.950 . S
H1866 C1874 0.950 . S
H1867 C1876 0.950 . S
H1868 C1878 0.950 . S
H1869 C1880 0.950 . S
H1870 C1882 0.950 . S
H1871 C1883 0.950 . S
C1872 H1864 0.950 . S
C1872 C1873 1.386 . S
C1872 C1874 1.391 . S
C1873 C1872 1.386 . S
C1873 C1877 1.393 . S
C1874 H1866 0.950 . S
C1874 C1872 1.391 . S
C1874 C1875 1.400 . S
C1875 C1874 1.400 . S
C1875 C1876 1.398 . S
C1875 C1881 1.491 . S
C1876 H1867 0.950 . S
C1876 C1875 1.398 . S
C1876 C1877 1.391 . S
C1877 H1865 0.950 . S
C1877 C1873 1.393 . S
C1877 C1876 1.391 . S
C1878 H1868 0.950 . S
C1878 C1879 1.386 . S
C1878 C1880 1.391 . S
C1879 C1878 1.386 . S
C1879 C1883 1.393 . S
C1880 H1869 0.950 . S
C1880 C1878 1.391 . S
C1880 C1881 1.400 . S
C1881 C1875 1.491 . S
C1881 C1880 1.400 . S
C1881 C1882 1.398 . S
C1882 H1870 0.950 . S
C1882 C1881 1.398 . S
C1882 C1883 1.391 . S
C1883 H1871 0.950 . S
C1883 C1879 1.393 . S
C1883 C1882 1.391 . S
H1884 C1892 0.950 . S
H1885 C1897 0.950 . S
H1886 C1894 0.950 . S
H1887 C1896 0.950 . S
H1888 C1898 0.950 . S
H1889 C1900 0.950 . S
H1890 C1902 0.950 . S
H1891 C1903 0.950 . S
C1892 H1884 0.950 . S
C1892 C1893 1.386 1_455 S
C1892 C1894 1.391 1_455 S
C1893 C1892 1.386 1_655 S
C1893 C1897 1.393 . S
C1894 H1886 0.950 . S
C1894 C1892 1.391 1_655 S
C1894 C1895 1.400 . S
C1895 C1894 1.400 . S
C1895 C1896 1.398 . S
C1895 C1901 1.491 . S
C1896 H1887 0.950 . S
C1896 C1895 1.398 . S
C1896 C1897 1.391 . S
C1897 H1885 0.950 . S
C1897 C1893 1.393 . S
C1897 C1896 1.391 . S
C1898 H1888 0.950 . S
C1898 C1899 1.386 . S
C1898 C1900 1.391 . S
C1899 C1898 1.386 . S
C1899 C1903 1.393 . S
C1900 H1889 0.950 . S
C1900 C1898 1.391 . S
C1900 C1901 1.400 . S
C1901 C1895 1.491 . S
C1901 C1900 1.400 . S
C1901 C1902 1.398 . S
C1902 H1890 0.950 . S
C1902 C1901 1.398 . S
C1902 C1903 1.391 . S
C1903 H1891 0.950 . S
C1903 C1899 1.393 . S
C1903 C1902 1.391 . S
H1904 C1912 0.950 . S
H1905 C1917 0.950 . S
H1906 C1914 0.950 . S
H1907 C1916 0.950 . S
H1908 C1918 0.950 . S
H1909 C1920 0.950 . S
H1910 C1922 0.950 . S
H1911 C1923 0.950 . S
C1912 H1904 0.950 . S
C1912 C1913 1.386 . S
C1912 C1914 1.391 . S
C1913 C1912 1.386 . S
C1913 C1917 1.393 . S
C1914 H1906 0.950 . S
C1914 C1912 1.391 . S
C1914 C1915 1.400 . S
C1915 C1914 1.400 . S
C1915 C1916 1.398 . S
C1915 C1921 1.491 . S
C1916 H1907 0.950 . S
C1916 C1915 1.398 . S
C1916 C1917 1.391 . S
C1917 H1905 0.950 . S
C1917 C1913 1.393 . S
C1917 C1916 1.391 . S
C1918 H1908 0.950 . S
C1918 C1919 1.386 . S
C1918 C1920 1.391 . S
C1919 C1918 1.386 . S
C1919 C1923 1.393 . S
C1920 H1909 0.950 . S
C1920 C1918 1.391 . S
C1920 C1921 1.400 . S
C1921 C1915 1.491 . S
C1921 C1920 1.400 . S
C1921 C1922 1.398 . S
C1922 H1910 0.950 . S
C1922 C1921 1.398 . S
C1922 C1923 1.391 . S
C1923 H1911 0.950 . S
C1923 C1919 1.393 . S
C1923 C1922 1.391 . S
H1924 C1932 0.950 . S
H1925 C1937 0.950 . S
H1926 C1934 0.950 . S
H1927 C1936 0.950 . S
H1928 C1938 0.950 . S
H1929 C1940 0.950 . S
H1930 C1942 0.950 . S
H1931 C1943 0.950 . S
C1932 H1924 0.950 . S
C1932 C1933 1.386 . S
C1932 C1934 1.391 . S
C1933 C1932 1.386 . S
C1933 C1937 1.393 . S
C1934 H1926 0.950 . S
C1934 C1932 1.391 . S
C1934 C1935 1.400 . S
C1935 C1934 1.400 . S
C1935 C1936 1.398 . S
C1935 C1941 1.491 . S
C1936 H1927 0.950 . S
C1936 C1935 1.398 . S
C1936 C1937 1.391 . S
C1937 H1925 0.950 . S
C1937 C1933 1.393 . S
C1937 C1936 1.391 . S
C1938 H1928 0.950 . S
C1938 C1939 1.386 . S
C1938 C1940 1.391 . S
C1939 C1938 1.386 . S
C1939 C1943 1.393 . S
C1940 H1929 0.950 . S
C1940 C1938 1.391 . S
C1940 C1941 1.400 . S
C1941 C1935 1.491 . S
C1941 C1940 1.400 . S
C1941 C1942 1.398 . S
C1942 H1930 0.950 . S
C1942 C1941 1.398 . S
C1942 C1943 1.391 . S
C1943 H1931 0.950 . S
C1943 C1939 1.393 . S
C1943 C1942 1.391 . S
H1944 C1952 0.950 . S
H1945 C1957 0.950 . S
H1946 C1954 0.950 . S
H1947 C1956 0.950 . S
H1948 C1958 0.950 . S
H1949 C1960 0.950 . S
H1950 C1962 0.950 . S
H1951 C1963 0.950 . S
C1952 H1944 0.950 . S
C1952 C1953 1.386 . S
C1952 C1954 1.391 . S
C1953 C1952 1.386 . S
C1953 C1957 1.393 . S
C1954 H1946 0.950 . S
C1954 C1952 1.391 . S
C1954 C1955 1.400 . S
C1955 C1954 1.400 . S
C1955 C1956 1.398 . S
C1955 C1961 1.491 . S
C1956 H1947 0.950 . S
C1956 C1955 1.398 . S
C1956 C1957 1.391 . S
C1957 H1945 0.950 . S
C1957 C1953 1.393 . S
C1957 C1956 1.391 . S
C1958 H1948 0.950 . S
C1958 C1959 1.386 1_556 S
C1958 C1960 1.391 1_556 S
C1959 C1958 1.386 1_554 S
C1959 C1963 1.393 . S
C1960 H1949 0.950 . S
C1960 C1958 1.391 1_554 S
C1960 C1961 1.400 . S
C1961 C1955 1.491 . S
C1961 C1960 1.400 . S
C1961 C1962 1.398 . S
C1962 H1950 0.950 . S
C1962 C1961 1.398 . S
C1962 C1963 1.391 . S
C1963 H1951 0.950 . S
C1963 C1959 1.393 . S
C1963 C1962 1.391 . S
H1964 C1972 0.950 . S
H1965 C1977 0.950 . S
H1966 C1974 0.950 . S
H1967 C1976 0.950 . S
H1968 C1978 0.950 . S
H1969 C1980 0.950 . S
H1970 C1982 0.950 . S
H1971 C1983 0.950 . S
C1972 H1964 0.950 . S
C1972 C1973 1.386 . S
C1972 C1974 1.391 . S
C1973 C1972 1.386 . S
C1973 C1977 1.393 . S
C1974 H1966 0.950 . S
C1974 C1972 1.391 . S
C1974 C1975 1.400 . S
C1975 C1974 1.400 . S
C1975 C1976 1.398 . S
C1975 C1981 1.491 . S
C1976 H1967 0.950 . S
C1976 C1975 1.398 . S
C1976 C1977 1.391 . S
C1977 H1965 0.950 . S
C1977 C1973 1.393 . S
C1977 C1976 1.391 . S
C1978 H1968 0.950 . S
C1978 C1979 1.386 . S
C1978 C1980 1.391 . S
C1979 C1978 1.386 . S
C1979 C1983 1.393 . S
C1980 H1969 0.950 . S
C1980 C1978 1.391 . S
C1980 C1981 1.400 . S
C1981 C1975 1.491 . S
C1981 C1980 1.400 . S
C1981 C1982 1.398 . S
C1982 H1970 0.950 . S
C1982 C1981 1.398 . S
C1982 C1983 1.391 . S
C1983 H1971 0.950 . S
C1983 C1979 1.393 . S
C1983 C1982 1.391 . S
H1984 C1992 0.950 . S
H1985 C1997 0.950 . S
H1986 C1994 0.950 . S
H1987 C1996 0.950 . S
H1988 C1998 0.950 . S
H1989 C2000 0.950 . S
H1990 C2002 0.950 . S
H1991 C2003 0.950 . S
C1992 H1984 0.950 . S
C1992 C1993 1.386 . S
C1992 C1994 1.391 . S
C1993 C1992 1.386 . S
C1993 C1997 1.393 . S
C1994 H1986 0.950 . S
C1994 C1992 1.391 . S
C1994 C1995 1.400 . S
C1995 C1994 1.400 . S
C1995 C1996 1.398 . S
C1995 C2001 1.491 . S
C1996 H1987 0.950 . S
C1996 C1995 1.398 . S
C1996 C1997 1.391 . S
C1997 H1985 0.950 . S
C1997 C1993 1.393 . S
C1997 C1996 1.391 . S
C1998 H1988 0.950 . S
C1998 C1999 1.386 . S
C1998 C2000 1.391 . S
C1999 C1998 1.386 . S
C1999 C2003 1.393 . S
C2000 H1989 0.950 . S
C2000 C1998 1.391 . S
C2000 C2001 1.400 . S
C2001 C1995 1.491 . S
C2001 C2000 1.400 . S
C2001 C2002 1.398 . S
C2002 H1990 0.950 . S
C2002 C2001 1.398 . S
C2002 C2003 1.391 . S
C2003 H1991 0.950 . S
C2003 C1999 1.393 . S
C2003 C2002 1.391 . S
H2004 C2012 0.950 . S
H2005 C2017 0.950 . S
H2006 C2014 0.950 . S
H2007 C2016 0.950 . S
H2008 C2018 0.950 . S
H2009 C2020 0.950 . S
H2010 C2022 0.950 . S
H2011 C2023 0.950 . S
C2012 H2004 0.950 . S
C2012 C2013 1.386 . S
C2012 C2014 1.391 . S
C2013 C2012 1.386 . S
C2013 C2017 1.393 . S
C2014 H2006 0.950 . S
C2014 C2012 1.391 . S
C2014 C2015 1.400 . S
C2015 C2014 1.400 . S
C2015 C2016 1.398 . S
C2015 C2021 1.491 . S
C2016 H2007 0.950 . S
C2016 C2015 1.398 . S
C2016 C2017 1.391 . S
C2017 H2005 0.950 . S
C2017 C2013 1.393 . S
C2017 C2016 1.391 . S
C2018 H2008 0.950 . S
C2018 C2019 1.386 . S
C2018 C2020 1.391 . S
C2019 C2018 1.386 . S
C2019 C2023 1.393 . S
C2020 H2009 0.950 . S
C2020 C2018 1.391 . S
C2020 C2021 1.400 . S
C2021 C2015 1.491 . S
C2021 C2020 1.400 . S
C2021 C2022 1.398 . S
C2022 H2010 0.950 . S
C2022 C2021 1.398 . S
C2022 C2023 1.391 . S
C2023 H2011 0.950 . S
C2023 C2019 1.393 . S
C2023 C2022 1.391 . S
H2024 C2032 0.950 . S
H2025 C2037 0.950 . S
H2026 C2034 0.950 . S
H2027 C2036 0.950 . S
H2028 C2038 0.950 . S
H2029 C2040 0.950 . S
H2030 C2042 0.950 . S
H2031 C2043 0.950 . S
C2032 H2024 0.950 . S
C2032 C2033 1.386 . S
C2032 C2034 1.391 . S
C2033 C2032 1.386 . S
C2033 C2037 1.393 . S
C2034 H2026 0.950 . S
C2034 C2032 1.391 . S
C2034 C2035 1.400 . S
C2035 C2034 1.400 . S
C2035 C2036 1.398 . S
C2035 C2041 1.491 . S
C2036 H2027 0.950 . S
C2036 C2035 1.398 . S
C2036 C2037 1.391 . S
C2037 H2025 0.950 . S
C2037 C2033 1.393 . S
C2037 C2036 1.391 . S
C2038 H2028 0.950 . S
C2038 C2039 1.386 . S
C2038 C2040 1.391 . S
C2039 C2038 1.386 . S
C2039 C2043 1.393 . S
C2040 H2029 0.950 . S
C2040 C2038 1.391 . S
C2040 C2041 1.400 . S
C2041 C2035 1.491 . S
C2041 C2040 1.400 . S
C2041 C2042 1.398 . S
C2042 H2030 0.950 . S
C2042 C2041 1.398 . S
C2042 C2043 1.391 . S
C2043 H2031 0.950 . S
C2043 C2039 1.393 . S
C2043 C2042 1.391 . S
H2044 C2052 0.950 . S
H2045 C2057 0.950 . S
H2046 C2054 0.950 . S
H2047 C2056 0.950 . S
H2048 C2058 0.950 . S
H2049 C2060 0.950 . S
H2050 C2062 0.950 . S
H2051 C2063 0.950 . S
C2052 H2044 0.950 . S
C2052 C2053 1.386 . S
C2052 C2054 1.391 . S
C2053 C2052 1.386 . S
C2053 C2057 1.393 . S
C2054 H2046 0.950 . S
C2054 C2052 1.391 . S
C2054 C2055 1.400 . S
C2055 C2054 1.400 . S
C2055 C2056 1.398 . S
C2055 C2061 1.491 . S
C2056 H2047 0.950 . S
C2056 C2055 1.398 . S
C2056 C2057 1.391 . S
C2057 H2045 0.950 . S
C2057 C2053 1.393 . S
C2057 C2056 1.391 . S
C2058 H2048 0.950 . S
C2058 C2059 1.386 . S
C2058 C2060 1.391 . S
C2059 C2058 1.386 . S
C2059 C2063 1.393 . S
C2060 H2049 0.950 . S
C2060 C2058 1.391 . S
C2060 C2061 1.400 . S
C2061 C2055 1.491 . S
C2061 C2060 1.400 . S
C2061 C2062 1.398 . S
C2062 H2050 0.950 . S
C2062 C2061 1.398 . S
C2062 C2063 1.391 . S
C2063 H2051 0.950 . S
C2063 C2059 1.393 . S
C2063 C2062 1.391 . S
H2064 C2072 0.950 . S
H2065 C2077 0.950 . S
H2066 C2074 0.950 . S
H2067 C2076 0.950 . S
H2068 C2078 0.950 . S
H2069 C2080 0.950 . S
H2070 C2082 0.950 . S
H2071 C2083 0.950 . S
C2072 H2064 0.950 . S
C2072 C2073 1.386 . S
C2072 C2074 1.391 . S
C2073 C2072 1.386 . S
C2073 C2077 1.393 . S
C2074 H2066 0.950 . S
C2074 C2072 1.391 . S
C2074 C2075 1.400 . S
C2075 C2074 1.400 . S
C2075 C2076 1.398 . S
C2075 C2081 1.491 . S
C2076 H2067 0.950 . S
C2076 C2075 1.398 . S
C2076 C2077 1.391 . S
C2077 H2065 0.950 . S
C2077 C2073 1.393 . S
C2077 C2076 1.391 . S
C2078 H2068 0.950 . S
C2078 C2079 1.386 . S
C2078 C2080 1.391 . S
C2079 C2078 1.386 . S
C2079 C2083 1.393 . S
C2080 H2069 0.950 . S
C2080 C2078 1.391 . S
C2080 C2081 1.400 . S
C2081 C2075 1.491 . S
C2081 C2080 1.400 . S
C2081 C2082 1.398 . S
C2082 H2070 0.950 . S
C2082 C2081 1.398 . S
C2082 C2083 1.391 . S
C2083 H2071 0.950 . S
C2083 C2079 1.393 . S
C2083 C2082 1.391 . S
H2084 C2092 0.950 . S
H2085 C2097 0.950 . S
H2086 C2094 0.950 . S
H2087 C2096 0.950 . S
H2088 C2098 0.950 . S
H2089 C2100 0.950 . S
H2090 C2102 0.897 1_655 S
H2091 C2103 0.950 1_655 S
C2092 H2084 0.950 . S
C2092 C2093 1.412 . S
C2092 C2094 1.391 . S
C2093 C2092 1.412 . S
C2093 C2097 1.356 1_655 S
C2094 H2086 0.950 . S
C2094 C2092 1.391 . S
C2094 C2095 1.400 1_655 S
C2095 C2094 1.400 1_455 S
C2095 C2096 1.398 . S
C2095 C2101 1.491 . S
C2096 H2087 0.950 . S
C2096 C2095 1.398 . S
C2096 C2097 1.391 . S
C2097 H2085 0.950 . S
C2097 C2093 1.356 1_455 S
C2097 C2096 1.391 . S
C2098 H2088 0.950 . S
C2098 C2099 1.386 . S
C2098 C2100 1.391 . S
C2099 C2098 1.386 . S
C2099 C2103 1.393 . S
C2100 H2089 0.950 . S
C2100 C2098 1.391 . S
C2100 C2101 1.400 . S
C2101 C2095 1.491 . S
C2101 C2100 1.400 . S
C2101 C2102 1.437 . S
C2102 H2090 0.897 1_455 S
C2102 C2101 1.437 . S
C2102 C2103 1.406 . S
C2103 H2091 0.950 1_455 S
C2103 C2099 1.393 . S
C2103 C2102 1.406 . S
H2104 C2112 0.950 . S
H2105 C2117 0.950 . S
H2106 C2114 0.950 . S
H2107 C2116 0.950 . S
H2108 C2118 0.950 . S
H2109 C2120 0.950 . S
H2110 C2122 0.950 . S
H2111 C2123 0.950 . S
C2112 H2104 0.950 . S
C2112 C2113 1.386 . S
C2112 C2114 1.391 . S
C2113 C2112 1.386 . S
C2113 C2117 1.393 . S
C2114 H2106 0.950 . S
C2114 C2112 1.391 . S
C2114 C2115 1.400 . S
C2115 C2114 1.400 . S
C2115 C2116 1.398 . S
C2115 C2121 1.491 . S
C2116 H2107 0.950 . S
C2116 C2115 1.398 . S
C2116 C2117 1.391 . S
C2117 H2105 0.950 . S
C2117 C2113 1.393 . S
C2117 C2116 1.391 . S
C2118 H2108 0.950 . S
C2118 C2119 1.386 . S
C2118 C2120 1.391 . S
C2119 C2118 1.386 . S
C2119 C2123 1.393 . S
C2120 H2109 0.950 . S
C2120 C2118 1.391 . S
C2120 C2121 1.400 . S
C2121 C2115 1.491 . S
C2121 C2120 1.400 . S
C2121 C2122 1.398 . S
C2122 H2110 0.950 . S
C2122 C2121 1.398 . S
C2122 C2123 1.391 . S
C2123 H2111 0.950 . S
C2123 C2119 1.393 . S
C2123 C2122 1.391 . S
H2124 C2132 0.950 1_554 S
H2125 C2137 0.950 . S
H2126 C2134 0.950 . S
H2127 C2136 0.950 . S
H2128 C2138 0.950 . S
H2129 C2140 0.950 . S
H2130 C2142 0.950 . S
H2131 C2143 0.950 . S
C2132 H2124 0.950 1_556 S
C2132 C2133 1.386 1_556 S
C2132 C2134 1.391 . S
C2133 C2132 1.386 1_554 S
C2133 C2137 1.393 1_554 S
C2134 H2126 0.950 . S
C2134 C2132 1.391 . S
C2134 C2135 1.400 . S
C2135 C2134 1.400 . S
C2135 C2136 1.398 . S
C2135 C2141 1.491 . S
C2136 H2127 0.950 . S
C2136 C2135 1.398 . S
C2136 C2137 1.391 . S
C2137 H2125 0.950 . S
C2137 C2133 1.393 1_556 S
C2137 C2136 1.391 . S
C2138 H2128 0.950 . S
C2138 C2139 1.386 . S
C2138 C2140 1.391 . S
C2139 C2138 1.386 . S
C2139 C2143 1.393 . S
C2140 H2129 0.950 . S
C2140 C2138 1.391 . S
C2140 C2141 1.400 . S
C2141 C2135 1.491 . S
C2141 C2140 1.400 . S
C2141 C2142 1.398 . S
C2142 H2130 0.950 . S
C2142 C2141 1.398 . S
C2142 C2143 1.391 . S
C2143 H2131 0.950 . S
C2143 C2139 1.393 . S
C2143 C2142 1.391 . S
H2144 C2152 0.950 . S
H2145 C2157 0.950 . S
H2146 C2154 0.950 . S
H2147 C2156 0.950 . S
H2148 C2158 0.950 . S
H2149 C2160 0.950 . S
H2150 C2162 0.950 . S
H2151 C2163 0.950 . S
C2152 H2144 0.950 . S
C2152 C2153 1.386 . S
C2152 C2154 1.391 . S
C2153 C2152 1.386 . S
C2153 C2157 1.393 . S
C2154 H2146 0.950 . S
C2154 C2152 1.391 . S
C2154 C2155 1.400 . S
C2155 C2154 1.400 . S
C2155 C2156 1.398 . S
C2155 C2161 1.491 . S
C2156 H2147 0.950 . S
C2156 C2155 1.398 . S
C2156 C2157 1.391 . S
C2157 H2145 0.950 . S
C2157 C2153 1.393 . S
C2157 C2156 1.391 . S
C2158 H2148 0.950 . S
C2158 C2159 1.386 . S
C2158 C2160 1.391 . S
C2159 C2158 1.386 . S
C2159 C2163 1.393 . S
C2160 H2149 0.950 . S
C2160 C2158 1.391 . S
C2160 C2161 1.400 . S
C2161 C2155 1.491 . S
C2161 C2160 1.400 . S
C2161 C2162 1.398 . S
C2162 H2150 0.950 . S
C2162 C2161 1.398 . S
C2162 C2163 1.391 . S
C2163 H2151 0.950 . S
C2163 C2159 1.393 . S
C2163 C2162 1.391 . S
H2164 C2172 0.950 . S
H2165 C2177 0.950 . S
H2166 C2174 0.950 . S
H2167 C2176 0.950 . S
H2168 C2178 0.950 . S
H2169 C2180 0.950 . S
H2170 C2182 0.950 . S
H2171 C2183 0.950 . S
C2172 H2164 0.950 . S
C2172 C2173 1.386 . S
C2172 C2174 1.391 . S
C2173 C2172 1.386 . S
C2173 C2177 1.393 . S
C2174 H2166 0.950 . S
C2174 C2172 1.391 . S
C2174 C2175 1.400 . S
C2175 C2174 1.400 . S
C2175 C2176 1.398 . S
C2175 C2181 1.491 . S
C2176 H2167 0.950 . S
C2176 C2175 1.398 . S
C2176 C2177 1.391 . S
C2177 H2165 0.950 . S
C2177 C2173 1.393 . S
C2177 C2176 1.391 . S
C2178 H2168 0.950 . S
C2178 C2179 1.386 . S
C2178 C2180 1.391 . S
C2179 C2178 1.386 . S
C2179 C2183 1.393 . S
C2180 H2169 0.950 . S
C2180 C2178 1.391 . S
C2180 C2181 1.400 . S
C2181 C2175 1.491 . S
C2181 C2180 1.400 . S
C2181 C2182 1.398 . S
C2182 H2170 0.950 . S
C2182 C2181 1.398 . S
C2182 C2183 1.391 . S
C2183 H2171 0.950 . S
C2183 C2179 1.393 . S
C2183 C2182 1.391 . S
H2184 C2192 0.950 . S
H2185 C2197 0.950 . S
H2186 C2194 0.950 . S
H2187 C2196 0.950 . S
H2188 C2198 0.950 . S
H2189 C2200 0.950 . S
H2190 C2202 0.950 . S
H2191 C2203 0.950 . S
C2192 H2184 0.950 . S
C2192 C2193 1.386 . S
C2192 C2194 1.391 . S
C2193 C2192 1.386 . S
C2193 C2197 1.393 . S
C2194 H2186 0.950 . S
C2194 C2192 1.391 . S
C2194 C2195 1.400 . S
C2195 C2194 1.400 . S
C2195 C2196 1.398 . S
C2195 C2201 1.491 . S
C2196 H2187 0.950 . S
C2196 C2195 1.398 . S
C2196 C2197 1.391 . S
C2197 H2185 0.950 . S
C2197 C2193 1.393 . S
C2197 C2196 1.391 . S
C2198 H2188 0.950 . S
C2198 C2199 1.386 . S
C2198 C2200 1.391 . S
C2199 C2198 1.386 . S
C2199 C2203 1.393 . S
C2200 H2189 0.950 . S
C2200 C2198 1.391 . S
C2200 C2201 1.400 . S
C2201 C2195 1.491 . S
C2201 C2200 1.400 . S
C2201 C2202 1.398 . S
C2202 H2190 0.950 . S
C2202 C2201 1.398 . S
C2202 C2203 1.391 . S
C2203 H2191 0.950 . S
C2203 C2199 1.393 . S
C2203 C2202 1.391 . S
H2204 C2212 0.950 . S
H2205 C2217 0.950 1_556 S
H2206 C2214 0.950 . S
H2207 C2216 0.950 . S
H2208 C2218 0.950 . S
H2209 C2220 0.950 . S
H2210 C2222 0.939 1_655 S
H2211 C2223 0.950 . S
C2212 H2204 0.950 . S
C2212 C2213 1.386 1_554 S
C2212 C2214 1.391 . S
C2213 C2212 1.386 1_556 S
C2213 C2217 1.393 1_556 S
C2214 H2206 0.950 . S
C2214 C2212 1.391 . S
C2214 C2215 1.400 . S
C2215 C2214 1.400 . S
C2215 C2216 1.398 . S
C2215 C2221 1.491 . S
C2216 H2207 0.950 . S
C2216 C2215 1.398 . S
C2216 C2217 1.391 . S
C2217 H2205 0.950 1_554 S
C2217 C2213 1.393 1_554 S
C2217 C2216 1.391 . S
C2218 H2208 0.950 . S
C2218 C2219 1.374 1_455 S
C2218 C2220 1.391 . S
C2219 C2218 1.374 1_655 S
C2219 C2223 1.398 . S
C2220 H2209 0.950 . S
C2220 C2218 1.391 . S
C2220 C2221 1.400 . S
C2221 C2215 1.491 . S
C2221 C2220 1.400 . S
C2221 C2222 1.425 . S
C2222 H2210 0.939 1_455 S
C2222 C2221 1.425 . S
C2222 C2223 1.376 1_455 S
C2223 H2211 0.950 . S
C2223 C2219 1.398 . S
C2223 C2222 1.376 1_655 S
H2224 C2232 0.950 . S
H2225 C2237 0.950 . S
H2226 C2234 0.950 . S
H2227 C2236 0.950 . S
H2228 C2238 0.950 . S
H2229 C2240 0.950 . S
H2230 C2242 0.950 . S
H2231 C2243 0.950 . S
C2232 H2224 0.950 . S
C2232 C2233 1.386 . S
C2232 C2234 1.391 . S
C2233 C2232 1.386 . S
C2233 C2237 1.393 . S
C2234 H2226 0.950 . S
C2234 C2232 1.391 . S
C2234 C2235 1.400 . S
C2235 C2234 1.400 . S
C2235 C2236 1.398 . S
C2235 C2241 1.491 . S
C2236 H2227 0.950 . S
C2236 C2235 1.398 . S
C2236 C2237 1.391 . S
C2237 H2225 0.950 . S
C2237 C2233 1.393 . S
C2237 C2236 1.391 . S
C2238 H2228 0.950 . S
C2238 C2239 1.386 . S
C2238 C2240 1.391 . S
C2239 C2238 1.386 . S
C2239 C2243 1.393 . S
C2240 H2229 0.950 . S
C2240 C2238 1.391 . S
C2240 C2241 1.400 . S
C2241 C2235 1.491 . S
C2241 C2240 1.400 . S
C2241 C2242 1.398 . S
C2242 H2230 0.950 . S
C2242 C2241 1.398 . S
C2242 C2243 1.391 . S
C2243 H2231 0.950 . S
C2243 C2239 1.393 . S
C2243 C2242 1.391 . S
H2244 C2252 0.950 . S
H2245 C2257 0.950 . S
H2246 C2254 0.950 . S
H2247 C2256 0.950 . S
H2248 C2258 0.950 . S
H2249 C2260 0.950 . S
H2250 C2262 0.950 . S
H2251 C2263 0.950 1_545 S
C2252 H2244 0.950 . S
C2252 C2253 1.386 . S
C2252 C2254 1.391 . S
C2253 C2252 1.386 . S
C2253 C2257 1.393 . S
C2254 H2246 0.950 . S
C2254 C2252 1.391 . S
C2254 C2255 1.400 . S
C2255 C2254 1.400 . S
C2255 C2256 1.398 . S
C2255 C2261 1.491 . S
C2256 H2247 0.950 . S
C2256 C2255 1.398 . S
C2256 C2257 1.391 . S
C2257 H2245 0.950 . S
C2257 C2253 1.393 . S
C2257 C2256 1.391 . S
C2258 H2248 0.950 . S
C2258 C2259 1.386 1_565 S
C2258 C2260 1.391 . S
C2259 C2258 1.386 1_545 S
C2259 C2263 1.393 1_545 S
C2260 H2249 0.950 . S
C2260 C2258 1.391 . S
C2260 C2261 1.400 . S
C2261 C2255 1.491 . S
C2261 C2260 1.400 . S
C2261 C2262 1.398 . S
C2262 H2250 0.950 . S
C2262 C2261 1.398 . S
C2262 C2263 1.391 . S
C2263 H2251 0.950 1_565 S
C2263 C2259 1.393 1_565 S
C2263 C2262 1.391 . S
H2264 C2272 0.950 . S
H2265 C2277 0.950 . S
H2266 C2274 0.950 . S
H2267 C2276 0.950 . S
H2268 C2278 0.950 . S
H2269 C2280 0.950 . S
H2270 C2282 0.950 . S
H2271 C2283 0.950 . S
C2272 H2264 0.950 . S
C2272 C2273 1.386 . S
C2272 C2274 1.391 . S
C2273 C2272 1.386 . S
C2273 C2277 1.393 . S
C2274 H2266 0.950 . S
C2274 C2272 1.391 . S
C2274 C2275 1.400 . S
C2275 C2274 1.400 . S
C2275 C2276 1.398 . S
C2275 C2281 1.491 . S
C2276 H2267 0.950 . S
C2276 C2275 1.398 . S
C2276 C2277 1.391 . S
C2277 H2265 0.950 . S
C2277 C2273 1.393 . S
C2277 C2276 1.391 . S
C2278 H2268 0.950 . S
C2278 C2279 1.386 . S
C2278 C2280 1.391 . S
C2279 C2278 1.386 . S
C2279 C2283 1.393 . S
C2280 H2269 0.950 . S
C2280 C2278 1.391 . S
C2280 C2281 1.400 . S
C2281 C2275 1.491 . S
C2281 C2280 1.400 . S
C2281 C2282 1.398 . S
C2282 H2270 0.950 . S
C2282 C2281 1.398 . S
C2282 C2283 1.391 . S
C2283 H2271 0.950 . S
C2283 C2279 1.393 . S
C2283 C2282 1.391 . S
H2284 C2292 0.950 . S
H2285 C2297 0.950 . S
H2286 C2294 0.950 . S
H2287 C2296 0.956 . S
H2288 C2298 0.976 . S
H2289 C2300 0.950 . S
H2290 C2302 0.950 . S
H2291 C2303 0.950 . S
C2292 H2284 0.950 . S
C2292 C2293 1.371 1_556 S
C2292 C2294 1.391 . S
C2293 C2292 1.371 1_554 S
C2293 C2297 1.400 . S
C2294 H2286 0.950 . S
C2294 C2292 1.391 . S
C2294 C2295 1.400 . S
C2295 C2294 1.400 . S
C2295 C2296 1.386 1_556 S
C2295 C2301 1.491 . S
C2296 H2287 0.956 . S
C2296 C2295 1.386 1_554 S
C2296 C2297 1.397 . S
C2297 H2285 0.950 . S
C2297 C2293 1.400 . S
C2297 C2296 1.397 . S
C2298 H2288 0.976 . S
C2298 C2299 1.392 . S
C2298 C2300 1.360 1_565 S
C2299 C2298 1.392 . S
C2299 C2303 1.393 1_565 S
C2300 H2289 0.950 . S
C2300 C2298 1.360 1_545 S
C2300 C2301 1.400 . S
C2301 C2295 1.491 . S
C2301 C2300 1.400 . S
C2301 C2302 1.398 . S
C2302 H2290 0.950 . S
C2302 C2301 1.398 . S
C2302 C2303 1.391 . S
C2303 H2291 0.950 . S
C2303 C2299 1.393 1_545 S
C2303 C2302 1.391 . S
H2304 C2312 0.950 . S
H2305 C2317 0.950 . S
H2306 C2314 0.950 . S
H2307 C2316 0.950 . S
H2308 C2318 0.950 . S
H2309 C2320 0.950 . S
H2310 C2322 0.950 . S
H2311 C2323 0.950 . S
C2312 H2304 0.950 . S
C2312 C2313 1.386 . S
C2312 C2314 1.391 . S
C2313 C2312 1.386 . S
C2313 C2317 1.393 . S
C2314 H2306 0.950 . S
C2314 C2312 1.391 . S
C2314 C2315 1.400 . S
C2315 C2314 1.400 . S
C2315 C2316 1.398 . S
C2315 C2321 1.491 . S
C2316 H2307 0.950 . S
C2316 C2315 1.398 . S
C2316 C2317 1.391 . S
C2317 H2305 0.950 . S
C2317 C2313 1.393 . S
C2317 C2316 1.391 . S
C2318 H2308 0.950 . S
C2318 C2319 1.386 . S
C2318 C2320 1.391 . S
C2319 C2318 1.386 . S
C2319 C2323 1.393 . S
C2320 H2309 0.950 . S
C2320 C2318 1.391 . S
C2320 C2321 1.400 . S
C2321 C2315 1.491 . S
C2321 C2320 1.400 . S
C2321 C2322 1.398 . S
C2322 H2310 0.950 . S
C2322 C2321 1.398 . S
C2322 C2323 1.391 . S
C2323 H2311 0.950 . S
C2323 C2319 1.393 . S
C2323 C2322 1.391 . S
H2324 C2332 0.928 1_545 S
H2325 C2337 0.948 1_545 S
H2326 C2334 0.950 . S
H2327 C2336 0.950 . S
H2328 C2338 0.950 . S
H2329 C2340 0.950 . S
H2330 C2342 0.950 . S
H2331 C2343 0.950 . S
C2332 H2324 0.928 1_565 S
C2332 C2333 1.386 1_565 S
C2332 C2334 1.391 . S
C2333 C2332 1.386 1_545 S
C2333 C2337 1.393 1_545 S
C2334 H2326 0.950 . S
C2334 C2332 1.391 . S
C2334 C2335 1.400 . S
C2335 C2334 1.400 . S
C2335 C2336 1.398 . S
C2335 C2341 1.491 . S
C2336 H2327 0.950 . S
C2336 C2335 1.398 . S
C2336 C2337 1.391 . S
C2337 H2325 0.948 1_565 S
C2337 C2333 1.393 1_565 S
C2337 C2336 1.391 . S
C2338 H2328 0.950 . S
C2338 C2339 1.386 . S
C2338 C2340 1.391 . S
C2339 C2338 1.386 . S
C2339 C2343 1.393 . S
C2340 H2329 0.950 . S
C2340 C2338 1.391 . S
C2340 C2341 1.400 . S
C2341 C2335 1.491 . S
C2341 C2340 1.400 . S
C2341 C2342 1.398 . S
C2342 H2330 0.950 . S
C2342 C2341 1.398 . S
C2342 C2343 1.391 . S
C2343 H2331 0.950 . S
C2343 C2339 1.393 . S
C2343 C2342 1.391 . S
H2344 C2352 0.950 . S
H2345 C2357 0.950 . S
H2346 C2354 0.950 . S
H2347 C2356 0.950 . S
H2348 C2358 0.950 . S
H2349 C2360 0.950 . S
H2350 C2362 0.950 . S
H2351 C2363 0.950 . S
C2352 H2344 0.950 . S
C2352 C2353 1.386 . S
C2352 C2354 1.391 . S
C2353 C2352 1.386 . S
C2353 C2357 1.393 . S
C2354 H2346 0.950 . S
C2354 C2352 1.391 . S
C2354 C2355 1.400 . S
C2355 C2354 1.400 . S
C2355 C2356 1.398 . S
C2355 C2361 1.491 . S
C2356 H2347 0.950 . S
C2356 C2355 1.398 . S
C2356 C2357 1.391 . S
C2357 H2345 0.950 . S
C2357 C2353 1.393 . S
C2357 C2356 1.391 . S
C2358 H2348 0.950 . S
C2358 C2359 1.386 . S
C2358 C2360 1.391 . S
C2359 C2358 1.386 . S
C2359 C2363 1.393 . S
C2360 H2349 0.950 . S
C2360 C2358 1.391 . S
C2360 C2361 1.400 . S
C2361 C2355 1.491 . S
C2361 C2360 1.400 . S
C2361 C2362 1.398 . S
C2362 H2350 0.950 . S
C2362 C2361 1.398 . S
C2362 C2363 1.391 . S
C2363 H2351 0.950 . S
C2363 C2359 1.393 . S
C2363 C2362 1.391 . S
H2364 C2372 0.953 1_566 S
H2365 C2377 0.950 . S
H2366 C2374 0.903 1_556 S
H2367 C2376 0.950 . S
H2368 C2378 0.950 . S
H2369 C2380 0.950 . S
H2370 C2382 0.950 . S
H2371 C2383 0.950 . S
C2372 H2364 0.953 1_544 S
C2372 C2373 1.387 1_545 S
C2372 C2374 1.400 . S
C2373 C2372 1.387 1_565 S
C2373 C2377 1.393 1_565 S
C2374 H2366 0.903 1_554 S
C2374 C2372 1.400 . S
C2374 C2375 1.434 . S
C2375 C2374 1.434 . S
C2375 C2376 1.398 . S
C2375 C2381 1.491 . S
C2376 H2367 0.950 . S
C2376 C2375 1.398 . S
C2376 C2377 1.391 . S
C2377 H2365 0.950 . S
C2377 C2373 1.393 1_545 S
C2377 C2376 1.391 . S
C2378 H2368 0.950 . S
C2378 C2379 1.386 1_554 S
C2378 C2380 1.391 . S
C2379 C2378 1.386 1_556 S
C2379 C2383 1.393 . S
C2380 H2369 0.950 . S
C2380 C2378 1.391 . S
C2380 C2381 1.400 . S
C2381 C2375 1.491 . S
C2381 C2380 1.400 . S
C2381 C2382 1.398 1_554 S
C2382 H2370 0.950 . S
C2382 C2381 1.398 1_556 S
C2382 C2383 1.391 . S
C2383 H2371 0.950 . S
C2383 C2379 1.393 . S
C2383 C2382 1.391 . S
H2384 C2392 0.950 . S
H2385 C2397 0.950 . S
H2386 C2394 0.950 . S
H2387 C2396 0.950 . S
H2388 C2398 0.950 . S
H2389 C2400 0.950 . S
H2390 C2402 0.950 . S
H2391 C2403 0.950 . S
C2392 H2384 0.950 . S
C2392 C2393 1.386 . S
C2392 C2394 1.391 . S
C2393 C2392 1.386 . S
C2393 C2397 1.393 . S
C2394 H2386 0.950 . S
C2394 C2392 1.391 . S
C2394 C2395 1.400 . S
C2395 C2394 1.400 . S
C2395 C2396 1.398 . S
C2395 C2401 1.491 . S
C2396 H2387 0.950 . S
C2396 C2395 1.398 . S
C2396 C2397 1.391 . S
C2397 H2385 0.950 . S
C2397 C2393 1.393 . S
C2397 C2396 1.391 . S
C2398 H2388 0.950 . S
C2398 C2399 1.386 . S
C2398 C2400 1.391 . S
C2399 C2398 1.386 . S
C2399 C2403 1.393 . S
C2400 H2389 0.950 . S
C2400 C2398 1.391 . S
C2400 C2401 1.400 . S
C2401 C2395 1.491 . S
C2401 C2400 1.400 . S
C2401 C2402 1.398 . S
C2402 H2390 0.950 . S
C2402 C2401 1.398 . S
C2402 C2403 1.391 . S
C2403 H2391 0.950 . S
C2403 C2399 1.393 . S
C2403 C2402 1.391 . S
H2404 C2412 0.950 . S
H2405 C2417 0.950 . S
H2406 C2414 0.950 . S
H2407 C2416 0.950 . S
H2408 C2418 0.950 . S
H2409 C2420 0.950 . S
H2410 C2422 0.950 . S
H2411 C2423 0.950 . S
C2412 H2404 0.950 . S
C2412 C2413 1.386 . S
C2412 C2414 1.391 . S
C2413 C2412 1.386 . S
C2413 C2417 1.393 . S
C2414 H2406 0.950 . S
C2414 C2412 1.391 . S
C2414 C2415 1.400 . S
C2415 C2414 1.400 . S
C2415 C2416 1.398 . S
C2415 C2421 1.491 . S
C2416 H2407 0.950 . S
C2416 C2415 1.398 . S
C2416 C2417 1.391 . S
C2417 H2405 0.950 . S
C2417 C2413 1.393 . S
C2417 C2416 1.391 . S
C2418 H2408 0.950 . S
C2418 C2419 1.386 . S
C2418 C2420 1.391 . S
C2419 C2418 1.386 . S
C2419 C2423 1.393 . S
C2420 H2409 0.950 . S
C2420 C2418 1.391 . S
C2420 C2421 1.400 . S
C2421 C2415 1.491 . S
C2421 C2420 1.400 . S
C2421 C2422 1.398 . S
C2422 H2410 0.950 . S
C2422 C2421 1.398 . S
C2422 C2423 1.391 . S
C2423 H2411 0.950 . S
C2423 C2419 1.393 . S
C2423 C2422 1.391 . S
H2424 C2432 0.924 1_455 S
H2425 C2437 0.950 1_455 S
H2426 C2434 0.950 . S
H2427 C2436 0.950 . S
H2428 C2438 0.950 . S
H2429 C2440 0.950 . S
H2430 C2442 0.950 . S
H2431 C2443 0.950 . S
C2432 H2424 0.924 1_655 S
C2432 C2433 1.386 1_655 S
C2432 C2434 1.391 . S
C2433 C2432 1.386 1_455 S
C2433 C2437 1.393 1_455 S
C2434 H2426 0.950 . S
C2434 C2432 1.391 . S
C2434 C2435 1.400 . S
C2435 C2434 1.400 . S
C2435 C2436 1.398 . S
C2435 C2441 1.491 . S
C2436 H2427 0.950 . S
C2436 C2435 1.398 . S
C2436 C2437 1.391 . S
C2437 H2425 0.950 1_655 S
C2437 C2433 1.393 1_655 S
C2437 C2436 1.391 . S
C2438 H2428 0.950 . S
C2438 C2439 1.386 . S
C2438 C2440 1.391 . S
C2439 C2438 1.386 . S
C2439 C2443 1.393 . S
C2440 H2429 0.950 . S
C2440 C2438 1.391 . S
C2440 C2441 1.400 . S
C2441 C2435 1.491 . S
C2441 C2440 1.400 . S
C2441 C2442 1.398 . S
C2442 H2430 0.950 . S
C2442 C2441 1.398 . S
C2442 C2443 1.391 . S
C2443 H2431 0.950 . S
C2443 C2439 1.393 . S
C2443 C2442 1.391 . S
H2444 C2452 0.950 . S
H2445 C2457 0.950 . S
H2446 C2454 0.950 . S
H2447 C2456 0.950 . S
H2448 C2458 0.950 . S
H2449 C2460 0.950 . S
H2450 C2462 0.950 . S
H2451 C2463 0.950 . S
C2452 H2444 0.950 . S
C2452 C2453 1.386 . S
C2452 C2454 1.391 . S
C2453 C2452 1.386 . S
C2453 C2457 1.393 . S
C2454 H2446 0.950 . S
C2454 C2452 1.391 . S
C2454 C2455 1.400 . S
C2455 C2454 1.400 . S
C2455 C2456 1.398 . S
C2455 C2461 1.491 . S
C2456 H2447 0.950 . S
C2456 C2455 1.398 . S
C2456 C2457 1.391 . S
C2457 H2445 0.950 . S
C2457 C2453 1.393 . S
C2457 C2456 1.391 . S
C2458 H2448 0.950 . S
C2458 C2459 1.386 . S
C2458 C2460 1.391 . S
C2459 C2458 1.386 . S
C2459 C2463 1.393 . S
C2460 H2449 0.950 . S
C2460 C2458 1.391 . S
C2460 C2461 1.400 . S
C2461 C2455 1.491 . S
C2461 C2460 1.400 . S
C2461 C2462 1.398 . S
C2462 H2450 0.950 . S
C2462 C2461 1.398 . S
C2462 C2463 1.391 . S
C2463 H2451 0.950 . S
C2463 C2459 1.393 . S
C2463 C2462 1.391 . S
H2464 C2472 0.950 . S
H2465 C2477 0.950 1_665 S
H2466 C2474 0.950 . S
H2467 C2476 0.950 1_565 S
H2468 C2478 0.950 . S
H2469 C2480 0.950 . S
H2470 C2482 0.950 . S
H2471 C2483 0.950 . S
C2472 H2464 0.950 . S
C2472 C2473 1.386 1_455 S
C2472 C2474 1.391 . S
C2473 C2472 1.386 1_655 S
C2473 C2477 1.393 1_655 S
C2474 H2466 0.950 . S
C2474 C2472 1.391 . S
C2474 C2475 1.400 . S
C2475 C2474 1.400 . S
C2475 C2476 1.398 . S
C2475 C2481 1.491 . S
C2476 H2467 0.950 1_545 S
C2476 C2475 1.398 . S
C2476 C2477 1.391 . S
C2477 H2465 0.950 1_445 S
C2477 C2473 1.393 1_455 S
C2477 C2476 1.391 . S
C2478 H2468 0.950 . S
C2478 C2479 1.386 . S
C2478 C2480 1.391 . S
C2479 C2478 1.386 . S
C2479 C2483 1.393 1_565 S
C2480 H2469 0.950 . S
C2480 C2478 1.391 . S
C2480 C2481 1.400 1_565 S
C2481 C2475 1.491 . S
C2481 C2480 1.400 1_545 S
C2481 C2482 1.398 . S
C2482 H2470 0.950 . S
C2482 C2481 1.398 . S
C2482 C2483 1.391 . S
C2483 H2471 0.950 . S
C2483 C2479 1.393 1_545 S
C2483 C2482 1.391 . S
H2484 C2492 0.950 . S
H2485 C2497 0.950 . S
H2486 C2494 0.950 . S
H2487 C2496 0.950 . S
H2488 C2498 0.950 . S
H2489 C2500 0.950 . S
H2490 C2502 0.950 . S
H2491 C2503 0.950 . S
C2492 H2484 0.950 . S
C2492 C2493 1.386 . S
C2492 C2494 1.391 . S
C2493 C2492 1.386 . S
C2493 C2497 1.393 . S
C2494 H2486 0.950 . S
C2494 C2492 1.391 . S
C2494 C2495 1.400 . S
C2495 C2494 1.400 . S
C2495 C2496 1.398 . S
C2495 C2501 1.491 . S
C2496 H2487 0.950 . S
C2496 C2495 1.398 . S
C2496 C2497 1.391 . S
C2497 H2485 0.950 . S
C2497 C2493 1.393 . S
C2497 C2496 1.391 . S
C2498 H2488 0.950 . S
C2498 C2499 1.386 . S
C2498 C2500 1.391 . S
C2499 C2498 1.386 . S
C2499 C2503 1.393 . S
C2500 H2489 0.950 . S
C2500 C2498 1.391 . S
C2500 C2501 1.400 . S
C2501 C2495 1.491 . S
C2501 C2500 1.400 . S
C2501 C2502 1.398 . S
C2502 H2490 0.950 . S
C2502 C2501 1.398 . S
C2502 C2503 1.391 . S
C2503 H2491 0.950 . S
C2503 C2499 1.393 . S
C2503 C2502 1.391 . S
H2504 C2512 0.950 . S
H2505 C2517 0.950 . S
H2506 C2514 0.950 . S
H2507 C2516 0.950 . S
H2508 C2518 0.966 . S
H2509 C2520 0.950 . S
H2510 C2522 0.950 . S
H2511 C2523 0.950 . S
C2512 H2504 0.950 . S
C2512 C2513 1.386 . S
C2512 C2514 1.391 . S
C2513 C2512 1.386 . S
C2513 C2517 1.393 . S
C2514 H2506 0.950 . S
C2514 C2512 1.391 . S
C2514 C2515 1.400 . S
C2515 C2514 1.400 . S
C2515 C2516 1.398 . S
C2515 C2521 1.491 . S
C2516 H2507 0.950 . S
C2516 C2515 1.398 . S
C2516 C2517 1.391 . S
C2517 H2505 0.950 . S
C2517 C2513 1.393 . S
C2517 C2516 1.391 . S
C2518 H2508 0.966 . S
C2518 C2519 1.390 . S
C2518 C2520 1.371 1_455 S
C2519 C2518 1.390 . S
C2519 C2523 1.393 1_455 S
C2520 H2509 0.950 . S
C2520 C2518 1.371 1_655 S
C2520 C2521 1.400 . S
C2521 C2515 1.491 . S
C2521 C2520 1.400 . S
C2521 C2522 1.398 . S
C2522 H2510 0.950 . S
C2522 C2521 1.398 . S
C2522 C2523 1.391 . S
C2523 H2511 0.950 . S
C2523 C2519 1.393 1_655 S
C2523 C2522 1.391 . S
H2524 C2532 0.950 . S
H2525 C2537 0.950 . S
H2526 C2534 0.950 . S
H2527 C2536 0.950 . S
H2528 C2538 0.950 . S
H2529 C2540 0.950 . S
H2530 C2542 0.950 . S
H2531 C2543 0.950 . S
C2532 H2524 0.950 . S
C2532 C2533 1.386 . S
C2532 C2534 1.391 . S
C2533 C2532 1.386 . S
C2533 C2537 1.393 . S
C2534 H2526 0.950 . S
C2534 C2532 1.391 . S
C2534 C2535 1.400 . S
C2535 C2534 1.400 . S
C2535 C2536 1.398 . S
C2535 C2541 1.491 . S
C2536 H2527 0.950 . S
C2536 C2535 1.398 . S
C2536 C2537 1.391 . S
C2537 H2525 0.950 . S
C2537 C2533 1.393 . S
C2537 C2536 1.391 . S
C2538 H2528 0.950 . S
C2538 C2539 1.386 . S
C2538 C2540 1.391 . S
C2539 C2538 1.386 . S
C2539 C2543 1.393 . S
C2540 H2529 0.950 . S
C2540 C2538 1.391 . S
C2540 C2541 1.400 . S
C2541 C2535 1.491 . S
C2541 C2540 1.400 . S
C2541 C2542 1.398 . S
C2542 H2530 0.950 . S
C2542 C2541 1.398 . S
C2542 C2543 1.391 . S
C2543 H2531 0.950 . S
C2543 C2539 1.393 . S
C2543 C2542 1.391 . S
H2544 C2552 0.950 . S
H2545 C2557 0.950 . S
H2546 C2554 0.950 . S
H2547 C2556 0.950 . S
H2548 C2558 0.950 . S
H2549 C2560 0.950 . S
H2550 C2562 0.950 . S
H2551 C2563 0.950 . S
C2552 H2544 0.950 . S
C2552 C2553 1.386 . S
C2552 C2554 1.391 . S
C2553 C2552 1.386 . S
C2553 C2557 1.393 . S
C2554 H2546 0.950 . S
C2554 C2552 1.391 . S
C2554 C2555 1.400 . S
C2555 C2554 1.400 . S
C2555 C2556 1.398 . S
C2555 C2561 1.491 . S
C2556 H2547 0.950 . S
C2556 C2555 1.398 . S
C2556 C2557 1.391 . S
C2557 H2545 0.950 . S
C2557 C2553 1.393 . S
C2557 C2556 1.391 . S
C2558 H2548 0.950 . S
C2558 C2559 1.386 . S
C2558 C2560 1.391 . S
C2559 C2558 1.386 . S
C2559 C2563 1.393 . S
C2560 H2549 0.950 . S
C2560 C2558 1.391 . S
C2560 C2561 1.400 . S
C2561 C2555 1.491 . S
C2561 C2560 1.400 . S
C2561 C2562 1.398 . S
C2562 H2550 0.950 . S
C2562 C2561 1.398 . S
C2562 C2563 1.391 . S
C2563 H2551 0.950 . S
C2563 C2559 1.393 . S
C2563 C2562 1.391 . S
H2564 C2572 0.950 1_554 S
H2565 C2577 0.950 . S
H2566 C2574 0.950 . S
H2567 C2576 0.950 . S
H2568 C2578 0.950 . S
H2569 C2580 0.950 . S
H2570 C2582 0.950 . S
H2571 C2583 0.950 . S
C2572 H2564 0.950 1_556 S
C2572 C2573 1.386 1_556 S
C2572 C2574 1.391 . S
C2573 C2572 1.386 1_554 S
C2573 C2577 1.393 1_554 S
C2574 H2566 0.950 . S
C2574 C2572 1.391 . S
C2574 C2575 1.400 . S
C2575 C2574 1.400 . S
C2575 C2576 1.398 . S
C2575 C2581 1.491 . S
C2576 H2567 0.950 . S
C2576 C2575 1.398 . S
C2576 C2577 1.391 . S
C2577 H2565 0.950 . S
C2577 C2573 1.393 1_556 S
C2577 C2576 1.391 . S
C2578 H2568 0.950 . S
C2578 C2579 1.386 . S
C2578 C2580 1.391 . S
C2579 C2578 1.386 . S
C2579 C2583 1.393 . S
C2580 H2569 0.950 . S
C2580 C2578 1.391 . S
C2580 C2581 1.400 . S
C2581 C2575 1.491 . S
C2581 C2580 1.400 . S
C2581 C2582 1.398 . S
C2582 H2570 0.950 . S
C2582 C2581 1.398 . S
C2582 C2583 1.391 . S
C2583 H2571 0.950 . S
C2583 C2579 1.393 . S
C2583 C2582 1.391 . S
H2584 C2592 0.950 . S
H2585 C2597 0.950 . S
H2586 C2594 0.950 . S
H2587 C2596 0.950 . S
H2588 C2598 0.950 . S
H2589 C2600 0.950 . S
H2590 C2602 0.950 . S
H2591 C2603 0.950 . S
C2592 H2584 0.950 . S
C2592 C2593 1.386 . S
C2592 C2594 1.391 . S
C2593 C2592 1.386 . S
C2593 C2597 1.393 . S
C2594 H2586 0.950 . S
C2594 C2592 1.391 . S
C2594 C2595 1.400 . S
C2595 C2594 1.400 . S
C2595 C2596 1.398 . S
C2595 C2601 1.491 . S
C2596 H2587 0.950 . S
C2596 C2595 1.398 . S
C2596 C2597 1.391 . S
C2597 H2585 0.950 . S
C2597 C2593 1.393 . S
C2597 C2596 1.391 . S
C2598 H2588 0.950 . S
C2598 C2599 1.386 . S
C2598 C2600 1.391 . S
C2599 C2598 1.386 . S
C2599 C2603 1.393 . S
C2600 H2589 0.950 . S
C2600 C2598 1.391 . S
C2600 C2601 1.400 . S
C2601 C2595 1.491 . S
C2601 C2600 1.400 . S
C2601 C2602 1.398 . S
C2602 H2590 0.950 . S
C2602 C2601 1.398 . S
C2602 C2603 1.391 . S
C2603 H2591 0.950 . S
C2603 C2599 1.393 . S
C2603 C2602 1.391 . S
H2604 C2612 0.950 . S
H2605 C2617 0.950 . S
H2606 C2614 0.950 . S
H2607 C2616 0.950 . S
H2608 C2618 0.950 . S
H2609 C2620 0.941 1_455 S
H2610 C2622 0.950 . S
H2611 C2623 0.950 . S
C2612 H2604 0.950 . S
C2612 C2613 1.386 . S
C2612 C2614 1.391 . S
C2613 C2612 1.386 . S
C2613 C2617 1.393 . S
C2614 H2606 0.950 . S
C2614 C2612 1.391 . S
C2614 C2615 1.400 . S
C2615 C2614 1.400 . S
C2615 C2616 1.398 . S
C2615 C2621 1.491 . S
C2616 H2607 0.950 . S
C2616 C2615 1.398 . S
C2616 C2617 1.391 . S
C2617 H2605 0.950 . S
C2617 C2613 1.393 . S
C2617 C2616 1.391 . S
C2618 H2608 0.950 . S
C2618 C2619 1.389 . S
C2618 C2620 1.378 1_455 S
C2619 C2618 1.389 . S
C2619 C2623 1.384 1_455 S
C2620 H2609 0.941 1_655 S
C2620 C2618 1.378 1_655 S
C2620 C2621 1.427 . S
C2621 C2615 1.491 . S
C2621 C2620 1.427 . S
C2621 C2622 1.398 . S
C2622 H2610 0.950 . S
C2622 C2621 1.398 . S
C2622 C2623 1.391 . S
C2623 H2611 0.950 . S
C2623 C2619 1.384 1_655 S
C2623 C2622 1.391 . S
H2624 C2632 0.950 . S
H2625 C2637 0.950 . S
H2626 C2634 0.950 . S
H2627 C2636 0.950 . S
H2628 C2638 0.950 . S
H2629 C2640 0.950 . S
H2630 C2642 0.950 . S
H2631 C2643 0.950 . S
C2632 H2624 0.950 . S
C2632 C2633 1.386 . S
C2632 C2634 1.391 . S
C2633 C2632 1.386 . S
C2633 C2637 1.393 . S
C2634 H2626 0.950 . S
C2634 C2632 1.391 . S
C2634 C2635 1.400 . S
C2635 C2634 1.400 . S
C2635 C2636 1.398 . S
C2635 C2641 1.491 . S
C2636 H2627 0.950 . S
C2636 C2635 1.398 . S
C2636 C2637 1.391 . S
C2637 H2625 0.950 . S
C2637 C2633 1.393 . S
C2637 C2636 1.391 . S
C2638 H2628 0.950 . S
C2638 C2639 1.386 . S
C2638 C2640 1.391 . S
C2639 C2638 1.386 . S
C2639 C2643 1.393 . S
C2640 H2629 0.950 . S
C2640 C2638 1.391 . S
C2640 C2641 1.400 . S
C2641 C2635 1.491 . S
C2641 C2640 1.400 . S
C2641 C2642 1.398 . S
C2642 H2630 0.950 . S
C2642 C2641 1.398 . S
C2642 C2643 1.391 . S
C2643 H2631 0.950 . S
C2643 C2639 1.393 . S
C2643 C2642 1.391 . S
H2644 C2652 0.950 1_456 S
H2645 C2657 0.950 . S
H2646 C2654 0.958 . S
H2647 C2656 0.950 . S
H2648 C2658 0.950 . S
H2649 C2660 0.950 . S
H2650 C2662 0.950 . S
H2651 C2663 0.950 . S
C2652 H2644 0.950 1_654 S
C2652 C2653 1.386 1_554 S
C2652 C2654 1.389 1_655 S
C2653 C2652 1.386 1_556 S
C2653 C2657 1.393 1_556 S
C2654 H2646 0.958 . S
C2654 C2652 1.389 1_455 S
C2654 C2655 1.394 1_455 S
C2655 C2654 1.394 1_655 S
C2655 C2656 1.398 . S
C2655 C2661 1.491 . S
C2656 H2647 0.950 . S
C2656 C2655 1.398 . S
C2656 C2657 1.391 . S
C2657 H2645 0.950 . S
C2657 C2653 1.393 1_554 S
C2657 C2656 1.391 . S
C2658 H2648 0.950 . S
C2658 C2659 1.386 1_655 S
C2658 C2660 1.391 . S
C2659 C2658 1.386 1_455 S
C2659 C2663 1.393 . S
C2660 H2649 0.950 . S
C2660 C2658 1.391 . S
C2660 C2661 1.400 . S
C2661 C2655 1.491 . S
C2661 C2660 1.400 . S
C2661 C2662 1.398 1_655 S
C2662 H2650 0.950 . S
C2662 C2661 1.398 1_455 S
C2662 C2663 1.391 . S
C2663 H2651 0.950 . S
C2663 C2659 1.393 . S
C2663 C2662 1.391 . S
H2664 C2672 0.950 . S
H2665 C2677 0.950 . S
H2666 C2674 0.950 . S
H2667 C2676 0.950 . S
H2668 C2678 0.950 . S
H2669 C2680 0.950 . S
H2670 C2682 0.950 . S
H2671 C2683 0.950 . S
C2672 H2664 0.950 . S
C2672 C2673 1.386 . S
C2672 C2674 1.391 . S
C2673 C2672 1.386 . S
C2673 C2677 1.393 . S
C2674 H2666 0.950 . S
C2674 C2672 1.391 . S
C2674 C2675 1.400 . S
C2675 C2674 1.400 . S
C2675 C2676 1.398 . S
C2675 C2681 1.491 . S
C2676 H2667 0.950 . S
C2676 C2675 1.398 . S
C2676 C2677 1.391 . S
C2677 H2665 0.950 . S
C2677 C2673 1.393 . S
C2677 C2676 1.391 . S
C2678 H2668 0.950 . S
C2678 C2679 1.386 . S
C2678 C2680 1.391 . S
C2679 C2678 1.386 . S
C2679 C2683 1.393 . S
C2680 H2669 0.950 . S
C2680 C2678 1.391 . S
C2680 C2681 1.400 . S
C2681 C2675 1.491 . S
C2681 C2680 1.400 . S
C2681 C2682 1.398 . S
C2682 H2670 0.950 . S
C2682 C2681 1.398 . S
C2682 C2683 1.391 . S
C2683 H2671 0.950 . S
C2683 C2679 1.393 . S
C2683 C2682 1.391 . S
H2684 C2692 0.950 . S
H2685 C2697 0.950 . S
H2686 C2694 0.950 . S
H2687 C2696 0.950 . S
H2688 C2698 0.950 . S
H2689 C2700 0.950 . S
H2690 C2702 0.950 . S
H2691 C2703 0.950 . S
C2692 H2684 0.950 . S
C2692 C2693 1.386 . S
C2692 C2694 1.391 . S
C2693 C2692 1.386 . S
C2693 C2697 1.393 . S
C2694 H2686 0.950 . S
C2694 C2692 1.391 . S
C2694 C2695 1.400 . S
C2695 C2694 1.400 . S
C2695 C2696 1.398 . S
C2695 C2701 1.491 . S
C2696 H2687 0.950 . S
C2696 C2695 1.398 . S
C2696 C2697 1.391 . S
C2697 H2685 0.950 . S
C2697 C2693 1.393 . S
C2697 C2696 1.391 . S
C2698 H2688 0.950 . S
C2698 C2699 1.386 . S
C2698 C2700 1.391 . S
C2699 C2698 1.386 . S
C2699 C2703 1.393 . S
C2700 H2689 0.950 . S
C2700 C2698 1.391 . S
C2700 C2701 1.400 . S
C2701 C2695 1.491 . S
C2701 C2700 1.400 . S
C2701 C2702 1.398 . S
C2702 H2690 0.950 . S
C2702 C2701 1.398 . S
C2702 C2703 1.391 . S
C2703 H2691 0.950 . S
C2703 C2699 1.393 . S
C2703 C2702 1.391 . S
H2704 C2712 0.950 . S
H2705 C2717 0.950 . S
H2706 C2714 0.950 . S
H2707 C2716 0.950 . S
H2708 C2718 0.950 . S
H2709 C2720 0.950 . S
H2710 C2722 0.950 . S
H2711 C2723 0.950 . S
C2712 H2704 0.950 . S
C2712 C2713 1.386 . S
C2712 C2714 1.391 . S
C2713 C2712 1.386 . S
C2713 C2717 1.393 . S
C2714 H2706 0.950 . S
C2714 C2712 1.391 . S
C2714 C2715 1.400 . S
C2715 C2714 1.400 . S
C2715 C2716 1.398 . S
C2715 C2721 1.491 . S
C2716 H2707 0.950 . S
C2716 C2715 1.398 . S
C2716 C2717 1.391 . S
C2717 H2705 0.950 . S
C2717 C2713 1.393 . S
C2717 C2716 1.391 . S
C2718 H2708 0.950 . S
C2718 C2719 1.386 . S
C2718 C2720 1.391 . S
C2719 C2718 1.386 . S
C2719 C2723 1.393 . S
C2720 H2709 0.950 . S
C2720 C2718 1.391 . S
C2720 C2721 1.400 . S
C2721 C2715 1.491 . S
C2721 C2720 1.400 . S
C2721 C2722 1.398 . S
C2722 H2710 0.950 . S
C2722 C2721 1.398 . S
C2722 C2723 1.391 . S
C2723 H2711 0.950 . S
C2723 C2719 1.393 . S
C2723 C2722 1.391 . S
H2724 C2732 0.950 1_554 S
H2725 C2737 0.950 . S
H2726 C2734 0.952 . S
H2727 C2736 0.950 . S
H2728 C2738 0.950 . S
H2729 C2740 0.950 . S
H2730 C2742 0.950 . S
H2731 C2743 0.950 . S
C2732 H2724 0.950 1_556 S
C2732 C2733 1.386 . S
C2732 C2734 1.391 1_556 S
C2733 C2732 1.386 . S
C2733 C2737 1.393 . S
C2734 H2726 0.952 . S
C2734 C2732 1.391 1_554 S
C2734 C2735 1.398 1_554 S
C2735 C2734 1.398 1_556 S
C2735 C2736 1.398 . S
C2735 C2741 1.491 . S
C2736 H2727 0.950 . S
C2736 C2735 1.398 . S
C2736 C2737 1.391 . S
C2737 H2725 0.950 . S
C2737 C2733 1.393 . S
C2737 C2736 1.391 . S
C2738 H2728 0.950 . S
C2738 C2739 1.386 1_556 S
C2738 C2740 1.391 . S
C2739 C2738 1.386 1_554 S
C2739 C2743 1.393 . S
C2740 H2729 0.950 . S
C2740 C2738 1.391 . S
C2740 C2741 1.400 . S
C2741 C2735 1.491 . S
C2741 C2740 1.400 . S
C2741 C2742 1.398 1_556 S
C2742 H2730 0.950 . S
C2742 C2741 1.398 1_554 S
C2742 C2743 1.391 . S
C2743 H2731 0.950 . S
C2743 C2739 1.393 . S
C2743 C2742 1.391 . S
H2744 C2752 0.950 . S
H2745 C2757 0.950 . S
H2746 C2754 0.950 . S
H2747 C2756 0.950 . S
H2748 C2758 0.950 . S
H2749 C2760 0.950 . S
H2750 C2762 0.950 . S
H2751 C2763 0.950 . S
C2752 H2744 0.950 . S
C2752 C2753 1.386 . S
C2752 C2754 1.391 . S
C2753 C2752 1.386 . S
C2753 C2757 1.393 . S
C2754 H2746 0.950 . S
C2754 C2752 1.391 . S
C2754 C2755 1.400 . S
C2755 C2754 1.400 . S
C2755 C2756 1.398 . S
C2755 C2761 1.491 . S
C2756 H2747 0.950 . S
C2756 C2755 1.398 . S
C2756 C2757 1.391 . S
C2757 H2745 0.950 . S
C2757 C2753 1.393 . S
C2757 C2756 1.391 . S
C2758 H2748 0.950 . S
C2758 C2759 1.386 . S
C2758 C2760 1.391 . S
C2759 C2758 1.386 . S
C2759 C2763 1.393 . S
C2760 H2749 0.950 . S
C2760 C2758 1.391 . S
C2760 C2761 1.400 . S
C2761 C2755 1.491 . S
C2761 C2760 1.400 . S
C2761 C2762 1.398 . S
C2762 H2750 0.950 . S
C2762 C2761 1.398 . S
C2762 C2763 1.391 . S
C2763 H2751 0.950 . S
C2763 C2759 1.393 . S
C2763 C2762 1.391 . S
H2764 C2772 0.950 . S
H2765 C2777 0.950 . S
H2766 C2774 0.950 . S
H2767 C2776 0.950 . S
H2768 C2778 0.950 . S
H2769 C2780 0.950 . S
H2770 C2782 0.950 . S
H2771 C2783 0.950 . S
C2772 H2764 0.950 . S
C2772 C2773 1.386 . S
C2772 C2774 1.391 . S
C2773 C2772 1.386 . S
C2773 C2777 1.393 . S
C2774 H2766 0.950 . S
C2774 C2772 1.391 . S
C2774 C2775 1.400 . S
C2775 C2774 1.400 . S
C2775 C2776 1.398 . S
C2775 C2781 1.491 . S
C2776 H2767 0.950 . S
C2776 C2775 1.398 . S
C2776 C2777 1.391 . S
C2777 H2765 0.950 . S
C2777 C2773 1.393 . S
C2777 C2776 1.391 . S
C2778 H2768 0.950 . S
C2778 C2779 1.386 . S
C2778 C2780 1.391 . S
C2779 C2778 1.386 . S
C2779 C2783 1.393 . S
C2780 H2769 0.950 . S
C2780 C2778 1.391 . S
C2780 C2781 1.400 . S
C2781 C2775 1.491 . S
C2781 C2780 1.400 . S
C2781 C2782 1.398 . S
C2782 H2770 0.950 . S
C2782 C2781 1.398 . S
C2782 C2783 1.391 . S
C2783 H2771 0.950 . S
C2783 C2779 1.393 . S
C2783 C2782 1.391 . S
H2784 C2792 0.950 . S
H2785 C2797 0.950 . S
H2786 C2794 0.950 . S
H2787 C2796 0.950 . S
H2788 C2798 0.950 . S
H2789 C2800 0.950 . S
H2790 C2802 0.950 . S
H2791 C2803 0.950 . S
C2792 H2784 0.950 . S
C2792 C2793 1.386 . S
C2792 C2794 1.391 . S
C2793 C2792 1.386 . S
C2793 C2797 1.393 . S
C2794 H2786 0.950 . S
C2794 C2792 1.391 . S
C2794 C2795 1.400 . S
C2795 C2794 1.400 . S
C2795 C2796 1.398 . S
C2795 C2801 1.491 . S
C2796 H2787 0.950 . S
C2796 C2795 1.398 . S
C2796 C2797 1.391 . S
C2797 H2785 0.950 . S
C2797 C2793 1.393 . S
C2797 C2796 1.391 . S
C2798 H2788 0.950 . S
C2798 C2799 1.386 . S
C2798 C2800 1.391 . S
C2799 C2798 1.386 . S
C2799 C2803 1.393 . S
C2800 H2789 0.950 . S
C2800 C2798 1.391 . S
C2800 C2801 1.400 . S
C2801 C2795 1.491 . S
C2801 C2800 1.400 . S
C2801 C2802 1.398 . S
C2802 H2790 0.950 . S
C2802 C2801 1.398 . S
C2802 C2803 1.391 . S
C2803 H2791 0.950 . S
C2803 C2799 1.393 . S
C2803 C2802 1.391 . S
H2804 C2812 0.950 . S
H2805 C2817 0.968 . S
H2806 C2814 0.950 . S
H2807 C2816 0.950 . S
H2808 C2818 0.950 . S
H2809 C2820 0.950 . S
H2810 C2822 0.950 . S
H2811 C2823 0.950 . S
C2812 H2804 0.950 . S
C2812 C2813 1.379 1_554 S
C2812 C2814 1.391 . S
C2813 C2812 1.379 1_556 S
C2813 C2817 1.392 . S
C2814 H2806 0.950 . S
C2814 C2812 1.391 . S
C2814 C2815 1.400 . S
C2815 C2814 1.400 . S
C2815 C2816 1.398 . S
C2815 C2821 1.491 . S
C2816 H2807 0.950 . S
C2816 C2815 1.398 . S
C2816 C2817 1.377 1_554 S
C2817 H2805 0.968 . S
C2817 C2813 1.392 . S
C2817 C2816 1.377 1_556 S
C2818 H2808 0.950 . S
C2818 C2819 1.386 . S
C2818 C2820 1.391 . S
C2819 C2818 1.386 . S
C2819 C2823 1.393 . S
C2820 H2809 0.950 . S
C2820 C2818 1.391 . S
C2820 C2821 1.400 . S
C2821 C2815 1.491 . S
C2821 C2820 1.400 . S
C2821 C2822 1.398 . S
C2822 H2810 0.950 . S
C2822 C2821 1.398 . S
C2822 C2823 1.391 . S
C2823 H2811 0.950 . S
C2823 C2819 1.393 . S
C2823 C2822 1.391 . S
H2824 C2832 0.950 . S
H2825 C2837 0.950 . S
H2826 C2834 0.950 . S
H2827 C2836 0.950 . S
H2828 C2838 0.950 . S
H2829 C2840 0.950 . S
H2830 C2842 0.950 . S
H2831 C2843 0.950 . S
C2832 H2824 0.950 . S
C2832 C2833 1.386 . S
C2832 C2834 1.391 . S
C2833 C2832 1.386 . S
C2833 C2837 1.393 . S
C2834 H2826 0.950 . S
C2834 C2832 1.391 . S
C2834 C2835 1.400 . S
C2835 C2834 1.400 . S
C2835 C2836 1.398 . S
C2835 C2841 1.491 . S
C2836 H2827 0.950 . S
C2836 C2835 1.398 . S
C2836 C2837 1.391 . S
C2837 H2825 0.950 . S
C2837 C2833 1.393 . S
C2837 C2836 1.391 . S
C2838 H2828 0.950 . S
C2838 C2839 1.386 . S
C2838 C2840 1.391 . S
C2839 C2838 1.386 . S
C2839 C2843 1.393 . S
C2840 H2829 0.950 . S
C2840 C2838 1.391 . S
C2840 C2841 1.400 . S
C2841 C2835 1.491 . S
C2841 C2840 1.400 . S
C2841 C2842 1.398 . S
C2842 H2830 0.950 . S
C2842 C2841 1.398 . S
C2842 C2843 1.391 . S
C2843 H2831 0.950 . S
C2843 C2839 1.393 . S
C2843 C2842 1.391 . S
H2844 C2852 0.950 . S
H2845 C2857 0.950 . S
H2846 C2854 0.950 . S
H2847 C2856 0.950 . S
H2848 C2858 0.950 . S
H2849 C2860 0.950 . S
H2850 C2862 0.950 . S
H2851 C2863 0.950 . S
C2852 H2844 0.950 . S
C2852 C2853 1.386 . S
C2852 C2854 1.391 . S
C2853 C2852 1.386 . S
C2853 C2857 1.393 . S
C2854 H2846 0.950 . S
C2854 C2852 1.391 . S
C2854 C2855 1.400 . S
C2855 C2854 1.400 . S
C2855 C2856 1.398 . S
C2855 C2861 1.491 . S
C2856 H2847 0.950 . S
C2856 C2855 1.398 . S
C2856 C2857 1.391 . S
C2857 H2845 0.950 . S
C2857 C2853 1.393 . S
C2857 C2856 1.391 . S
C2858 H2848 0.950 . S
C2858 C2859 1.386 . S
C2858 C2860 1.391 . S
C2859 C2858 1.386 . S
C2859 C2863 1.393 . S
C2860 H2849 0.950 . S
C2860 C2858 1.391 . S
C2860 C2861 1.400 . S
C2861 C2855 1.491 . S
C2861 C2860 1.400 . S
C2861 C2862 1.398 . S
C2862 H2850 0.950 . S
C2862 C2861 1.398 . S
C2862 C2863 1.391 . S
C2863 H2851 0.950 . S
C2863 C2859 1.393 . S
C2863 C2862 1.391 . S
H2864 C2872 0.950 . S
H2865 C2877 0.950 . S
H2866 C2874 0.950 . S
H2867 C2876 0.950 . S
H2868 C2878 0.950 . S
H2869 C2880 0.950 . S
H2870 C2882 0.950 . S
H2871 C2883 0.950 . S
C2872 H2864 0.950 . S
C2872 C2873 1.386 . S
C2872 C2874 1.391 . S
C2873 C2872 1.386 . S
C2873 C2877 1.393 . S
C2874 H2866 0.950 . S
C2874 C2872 1.391 . S
C2874 C2875 1.400 . S
C2875 C2874 1.400 . S
C2875 C2876 1.398 . S
C2875 C2881 1.491 . S
C2876 H2867 0.950 . S
C2876 C2875 1.398 . S
C2876 C2877 1.391 . S
C2877 H2865 0.950 . S
C2877 C2873 1.393 . S
C2877 C2876 1.391 . S
C2878 H2868 0.950 . S
C2878 C2879 1.386 . S
C2878 C2880 1.391 . S
C2879 C2878 1.386 . S
C2879 C2883 1.393 . S
C2880 H2869 0.950 . S
C2880 C2878 1.391 . S
C2880 C2881 1.400 . S
C2881 C2875 1.491 . S
C2881 C2880 1.400 . S
C2881 C2882 1.398 . S
C2882 H2870 0.950 . S
C2882 C2881 1.398 . S
C2882 C2883 1.391 . S
C2883 H2871 0.950 . S
C2883 C2879 1.393 . S
C2883 C2882 1.391 . S
H2884 C2892 0.950 . S
H2885 C2897 0.950 . S
H2886 C2894 0.950 . S
H2887 C2896 0.950 . S
H2888 C2898 0.950 . S
H2889 C2900 0.950 . S
H2890 C2902 0.950 . S
H2891 C2903 0.950 . S
C2892 H2884 0.950 . S
C2892 C2893 1.386 . S
C2892 C2894 1.391 . S
C2893 C2892 1.386 . S
C2893 C2897 1.393 . S
C2894 H2886 0.950 . S
C2894 C2892 1.391 . S
C2894 C2895 1.400 . S
C2895 C2894 1.400 . S
C2895 C2896 1.398 . S
C2895 C2901 1.491 . S
C2896 H2887 0.950 . S
C2896 C2895 1.398 . S
C2896 C2897 1.391 . S
C2897 H2885 0.950 . S
C2897 C2893 1.393 . S
C2897 C2896 1.391 . S
C2898 H2888 0.950 . S
C2898 C2899 1.386 . S
C2898 C2900 1.391 . S
C2899 C2898 1.386 . S
C2899 C2903 1.393 . S
C2900 H2889 0.950 . S
C2900 C2898 1.391 . S
C2900 C2901 1.400 . S
C2901 C2895 1.491 . S
C2901 C2900 1.400 . S
C2901 C2902 1.398 . S
C2902 H2890 0.950 . S
C2902 C2901 1.398 . S
C2902 C2903 1.391 . S
C2903 H2891 0.950 . S
C2903 C2899 1.393 . S
C2903 C2902 1.391 . S
H2904 C2912 0.950 . S
H2905 C2917 0.950 . S
H2906 C2914 0.950 . S
H2907 C2916 0.950 . S
H2908 C2918 0.950 . S
H2909 C2920 0.950 . S
H2910 C2922 0.950 . S
H2911 C2923 0.950 . S
C2912 H2904 0.950 . S
C2912 C2913 1.386 . S
C2912 C2914 1.391 . S
C2913 C2912 1.386 . S
C2913 C2917 1.393 . S
C2914 H2906 0.950 . S
C2914 C2912 1.391 . S
C2914 C2915 1.400 . S
C2915 C2914 1.400 . S
C2915 C2916 1.398 . S
C2915 C2921 1.491 . S
C2916 H2907 0.950 . S
C2916 C2915 1.398 . S
C2916 C2917 1.391 . S
C2917 H2905 0.950 . S
C2917 C2913 1.393 . S
C2917 C2916 1.391 . S
C2918 H2908 0.950 . S
C2918 C2919 1.387 . S
C2918 C2920 1.391 1_545 S
C2919 C2918 1.387 . S
C2919 C2923 1.387 1_545 S
C2920 H2909 0.950 . S
C2920 C2918 1.391 1_565 S
C2920 C2921 1.400 . S
C2921 C2915 1.491 . S
C2921 C2920 1.400 . S
C2921 C2922 1.398 . S
C2922 H2910 0.950 . S
C2922 C2921 1.398 . S
C2922 C2923 1.391 . S
C2923 H2911 0.950 . S
C2923 C2919 1.387 1_565 S
C2923 C2922 1.391 . S
H2924 C2932 0.950 . S
H2925 C2937 0.950 . S
H2926 C2934 0.950 . S
H2927 C2936 0.950 . S
H2928 C2938 0.950 . S
H2929 C2940 0.950 . S
H2930 C2942 0.950 . S
H2931 C2943 0.950 . S
C2932 H2924 0.950 . S
C2932 C2933 1.386 . S
C2932 C2934 1.391 . S
C2933 C2932 1.386 . S
C2933 C2937 1.393 . S
C2934 H2926 0.950 . S
C2934 C2932 1.391 . S
C2934 C2935 1.400 . S
C2935 C2934 1.400 . S
C2935 C2936 1.398 . S
C2935 C2941 1.491 . S
C2936 H2927 0.950 . S
C2936 C2935 1.398 . S
C2936 C2937 1.391 . S
C2937 H2925 0.950 . S
C2937 C2933 1.393 . S
C2937 C2936 1.391 . S
C2938 H2928 0.950 . S
C2938 C2939 1.386 . S
C2938 C2940 1.391 . S
C2939 C2938 1.386 . S
C2939 C2943 1.393 . S
C2940 H2929 0.950 . S
C2940 C2938 1.391 . S
C2940 C2941 1.400 . S
C2941 C2935 1.491 . S
C2941 C2940 1.400 . S
C2941 C2942 1.398 . S
C2942 H2930 0.950 . S
C2942 C2941 1.398 . S
C2942 C2943 1.391 . S
C2943 H2931 0.950 . S
C2943 C2939 1.393 . S
C2943 C2942 1.391 . S
H2944 C2952 0.950 . S
H2945 C2957 0.950 . S
H2946 C2954 0.950 . S
H2947 C2956 0.950 . S
H2948 C2958 0.950 . S
H2949 C2960 0.950 . S
H2950 C2962 0.950 . S
H2951 C2963 0.950 . S
C2952 H2944 0.950 . S
C2952 C2953 1.386 . S
C2952 C2954 1.391 . S
C2953 C2952 1.386 . S
C2953 C2957 1.393 . S
C2954 H2946 0.950 . S
C2954 C2952 1.391 . S
C2954 C2955 1.400 . S
C2955 C2954 1.400 . S
C2955 C2956 1.398 . S
C2955 C2961 1.491 . S
C2956 H2947 0.950 . S
C2956 C2955 1.398 . S
C2956 C2957 1.391 . S
C2957 H2945 0.950 . S
C2957 C2953 1.393 . S
C2957 C2956 1.391 . S
C2958 H2948 0.950 . S
C2958 C2959 1.386 . S
C2958 C2960 1.391 . S
C2959 C2958 1.386 . S
C2959 C2963 1.393 . S
C2960 H2949 0.950 . S
C2960 C2958 1.391 . S
C2960 C2961 1.400 . S
C2961 C2955 1.491 . S
C2961 C2960 1.400 . S
C2961 C2962 1.398 . S
C2962 H2950 0.950 . S
C2962 C2961 1.398 . S
C2962 C2963 1.391 . S
C2963 H2951 0.950 . S
C2963 C2959 1.393 . S
C2963 C2962 1.391 . S
H2964 C2972 0.950 . S
H2965 C2977 0.950 . S
H2966 C2974 0.950 . S
H2967 C2976 0.950 . S
H2968 C2978 0.950 . S
H2969 C2980 0.950 . S
H2970 C2982 0.950 . S
H2971 C2983 0.950 . S
C2972 H2964 0.950 . S
C2972 C2973 1.386 . S
C2972 C2974 1.391 . S
C2973 C2972 1.386 . S
C2973 C2977 1.393 . S
C2974 H2966 0.950 . S
C2974 C2972 1.391 . S
C2974 C2975 1.400 . S
C2975 C2974 1.400 . S
C2975 C2976 1.398 . S
C2975 C2981 1.491 . S
C2976 H2967 0.950 . S
C2976 C2975 1.398 . S
C2976 C2977 1.391 . S
C2977 H2965 0.950 . S
C2977 C2973 1.393 . S
C2977 C2976 1.391 . S
C2978 H2968 0.950 . S
C2978 C2979 1.386 . S
C2978 C2980 1.391 . S
C2979 C2978 1.386 . S
C2979 C2983 1.393 . S
C2980 H2969 0.950 . S
C2980 C2978 1.391 . S
C2980 C2981 1.400 . S
C2981 C2975 1.491 . S
C2981 C2980 1.400 . S
C2981 C2982 1.398 . S
C2982 H2970 0.950 . S
C2982 C2981 1.398 . S
C2982 C2983 1.391 . S
C2983 H2971 0.950 . S
C2983 C2979 1.393 . S
C2983 C2982 1.391 . S
H2984 C2992 0.950 . S
H2985 C2997 0.950 . S
H2986 C2994 0.950 . S
H2987 C2996 0.950 . S
H2988 C2998 0.950 . S
H2989 C3000 0.950 1_565 S
H2990 C3002 0.950 . S
H2991 C3003 0.950 . S
C2992 H2984 0.950 . S
C2992 C2993 1.359 1_545 S
C2992 C2994 1.391 . S
C2993 C2992 1.359 1_565 S
C2993 C2997 1.411 . S
C2994 H2986 0.950 . S
C2994 C2992 1.391 . S
C2994 C2995 1.400 . S
C2995 C2994 1.400 . S
C2995 C2996 1.398 1_545 S
C2995 C3001 1.491 . S
C2996 H2987 0.950 . S
C2996 C2995 1.398 1_565 S
C2996 C2997 1.391 . S
C2997 H2985 0.950 . S
C2997 C2993 1.411 . S
C2997 C2996 1.391 . S
C2998 H2988 0.950 . S
C2998 C2999 1.386 . S
C2998 C3000 1.391 . S
C2999 C2998 1.386 . S
C2999 C3003 1.393 . S
C3000 H2989 0.950 1_545 S
C3000 C2998 1.391 . S
C3000 C3001 1.400 . S
C3001 C2995 1.491 . S
C3001 C3000 1.400 . S
C3001 C3002 1.398 . S
C3002 H2990 0.950 . S
C3002 C3001 1.398 . S
C3002 C3003 1.391 . S
C3003 H2991 0.950 . S
C3003 C2999 1.393 . S
C3003 C3002 1.391 . S
H3004 C3012 0.950 1_655 S
H3005 C3017 0.950 . S
H3006 C3014 0.950 . S
H3007 C3016 0.950 . S
H3008 C3018 0.950 . S
H3009 C3020 0.947 1_545 S
H3010 C3022 0.950 . S
H3011 C3023 0.950 . S
C3012 H3004 0.950 1_455 S
C3012 C3013 1.386 1_455 S
C3012 C3014 1.391 . S
C3013 C3012 1.386 1_655 S
C3013 C3017 1.393 1_655 S
C3014 H3006 0.950 . S
C3014 C3012 1.391 . S
C3014 C3015 1.400 . S
C3015 C3014 1.400 . S
C3015 C3016 1.398 . S
C3015 C3021 1.491 . S
C3016 H3007 0.950 . S
C3016 C3015 1.398 . S
C3016 C3017 1.391 . S
C3017 H3005 0.950 . S
C3017 C3013 1.393 1_455 S
C3017 C3016 1.391 . S
C3018 H3008 0.950 . S
C3018 C3019 1.386 . S
C3018 C3020 1.386 1_545 S
C3019 C3018 1.386 . S
C3019 C3023 1.393 1_545 S
C3020 H3009 0.947 1_565 S
C3020 C3018 1.386 1_565 S
C3020 C3021 1.409 . S
C3021 C3015 1.491 . S
C3021 C3020 1.409 . S
C3021 C3022 1.398 . S
C3022 H3010 0.950 . S
C3022 C3021 1.398 . S
C3022 C3023 1.391 . S
C3023 H3011 0.950 . S
C3023 C3019 1.393 1_565 S
C3023 C3022 1.391 . S
H3024 C3032 0.950 . S
H3025 C3037 0.950 . S
H3026 C3034 0.950 . S
H3027 C3036 0.950 . S
H3028 C3038 0.950 . S
H3029 C3040 0.950 . S
H3030 C3042 0.950 . S
H3031 C3043 0.950 . S
C3032 H3024 0.950 . S
C3032 C3033 1.386 . S
C3032 C3034 1.391 . S
C3033 C3032 1.386 . S
C3033 C3037 1.393 . S
C3034 H3026 0.950 . S
C3034 C3032 1.391 . S
C3034 C3035 1.400 . S
C3035 C3034 1.400 . S
C3035 C3036 1.398 . S
C3035 C3041 1.491 . S
C3036 H3027 0.950 . S
C3036 C3035 1.398 . S
C3036 C3037 1.391 . S
C3037 H3025 0.950 . S
C3037 C3033 1.393 . S
C3037 C3036 1.391 . S
C3038 H3028 0.950 . S
C3038 C3039 1.386 . S
C3038 C3040 1.391 . S
C3039 C3038 1.386 . S
C3039 C3043 1.393 . S
C3040 H3029 0.950 . S
C3040 C3038 1.391 . S
C3040 C3041 1.400 . S
C3041 C3035 1.491 . S
C3041 C3040 1.400 . S
C3041 C3042 1.398 . S
C3042 H3030 0.950 . S
C3042 C3041 1.398 . S
C3042 C3043 1.391 . S
C3043 H3031 0.950 . S
C3043 C3039 1.393 . S
C3043 C3042 1.391 . S
H3044 C3052 0.950 . S
H3045 C3057 0.950 . S
H3046 C3054 0.950 . S
H3047 C3056 0.950 . S
H3048 C3058 0.950 . S
H3049 C3060 0.950 . S
H3050 C3062 0.950 . S
H3051 C3063 0.950 . S
C3052 H3044 0.950 . S
C3052 C3053 1.386 . S
C3052 C3054 1.391 . S
C3053 C3052 1.386 . S
C3053 C3057 1.393 . S
C3054 H3046 0.950 . S
C3054 C3052 1.391 . S
C3054 C3055 1.400 . S
C3055 C3054 1.400 . S
C3055 C3056 1.398 . S
C3055 C3061 1.491 . S
C3056 H3047 0.950 . S
C3056 C3055 1.398 . S
C3056 C3057 1.391 . S
C3057 H3045 0.950 . S
C3057 C3053 1.393 . S
C3057 C3056 1.391 . S
C3058 H3048 0.950 . S
C3058 C3059 1.386 . S
C3058 C3060 1.391 . S
C3059 C3058 1.386 . S
C3059 C3063 1.393 . S
C3060 H3049 0.950 . S
C3060 C3058 1.391 . S
C3060 C3061 1.400 . S
C3061 C3055 1.491 . S
C3061 C3060 1.400 . S
C3061 C3062 1.398 . S
C3062 H3050 0.950 . S
C3062 C3061 1.398 . S
C3062 C3063 1.391 . S
C3063 H3051 0.950 . S
C3063 C3059 1.393 . S
C3063 C3062 1.391 . S
H3064 C3072 0.950 . S
H3065 C3077 0.950 . S
H3066 C3074 0.950 . S
H3067 C3076 0.950 . S
H3068 C3078 0.950 . S
H3069 C3080 0.950 . S
H3070 C3082 0.950 . S
H3071 C3083 0.950 . S
C3072 H3064 0.950 . S
C3072 C3073 1.386 . S
C3072 C3074 1.391 . S
C3073 C3072 1.386 . S
C3073 C3077 1.393 . S
C3074 H3066 0.950 . S
C3074 C3072 1.391 . S
C3074 C3075 1.400 . S
C3075 C3074 1.400 . S
C3075 C3076 1.398 . S
C3075 C3081 1.491 . S
C3076 H3067 0.950 . S
C3076 C3075 1.398 . S
C3076 C3077 1.391 . S
C3077 H3065 0.950 . S
C3077 C3073 1.393 . S
C3077 C3076 1.391 . S
C3078 H3068 0.950 . S
C3078 C3079 1.386 . S
C3078 C3080 1.391 . S
C3079 C3078 1.386 . S
C3079 C3083 1.393 . S
C3080 H3069 0.950 . S
C3080 C3078 1.391 . S
C3080 C3081 1.400 . S
C3081 C3075 1.491 . S
C3081 C3080 1.400 . S
C3081 C3082 1.398 . S
C3082 H3070 0.950 . S
C3082 C3081 1.398 . S
C3082 C3083 1.391 . S
C3083 H3071 0.950 . S
C3083 C3079 1.393 . S
C3083 C3082 1.391 . S
H3084 C3092 0.950 . S
H3085 C3097 0.950 . S
H3086 C3094 0.950 . S
H3087 C3096 0.950 . S
H3088 C3098 0.950 . S
H3089 C3100 0.950 . S
H3090 C3102 0.950 . S
H3091 C3103 0.950 . S
C3092 H3084 0.950 . S
C3092 C3093 1.386 . S
C3092 C3094 1.391 . S
C3093 C3092 1.386 . S
C3093 C3097 1.393 . S
C3094 H3086 0.950 . S
C3094 C3092 1.391 . S
C3094 C3095 1.400 . S
C3095 C3094 1.400 . S
C3095 C3096 1.398 . S
C3095 C3101 1.491 . S
C3096 H3087 0.950 . S
C3096 C3095 1.398 . S
C3096 C3097 1.391 . S
C3097 H3085 0.950 . S
C3097 C3093 1.393 . S
C3097 C3096 1.391 . S
C3098 H3088 0.950 . S
C3098 C3099 1.386 . S
C3098 C3100 1.391 . S
C3099 C3098 1.386 . S
C3099 C3103 1.393 . S
C3100 H3089 0.950 . S
C3100 C3098 1.391 . S
C3100 C3101 1.400 . S
C3101 C3095 1.491 . S
C3101 C3100 1.400 . S
C3101 C3102 1.398 . S
C3102 H3090 0.950 . S
C3102 C3101 1.398 . S
C3102 C3103 1.391 . S
C3103 H3091 0.950 . S
C3103 C3099 1.393 . S
C3103 C3102 1.391 . S
H3104 C3112 0.950 . S
H3105 C3117 0.950 . S
H3106 C3114 0.950 . S
H3107 C3116 0.950 . S
H3108 C3118 0.950 . S
H3109 C3120 0.950 . S
H3110 C3122 0.950 . S
H3111 C3123 0.950 . S
C3112 H3104 0.950 . S
C3112 C3113 1.386 . S
C3112 C3114 1.391 . S
C3113 C3112 1.386 . S
C3113 C3117 1.393 . S
C3114 H3106 0.950 . S
C3114 C3112 1.391 . S
C3114 C3115 1.400 . S
C3115 C3114 1.400 . S
C3115 C3116 1.398 . S
C3115 C3121 1.491 . S
C3116 H3107 0.950 . S
C3116 C3115 1.398 . S
C3116 C3117 1.391 . S
C3117 H3105 0.950 . S
C3117 C3113 1.393 . S
C3117 C3116 1.391 . S
C3118 H3108 0.950 . S
C3118 C3119 1.386 . S
C3118 C3120 1.391 . S
C3119 C3118 1.386 . S
C3119 C3123 1.393 . S
C3120 H3109 0.950 . S
C3120 C3118 1.391 . S
C3120 C3121 1.400 . S
C3121 C3115 1.491 . S
C3121 C3120 1.400 . S
C3121 C3122 1.398 . S
C3122 H3110 0.950 . S
C3122 C3121 1.398 . S
C3122 C3123 1.391 . S
C3123 H3111 0.950 . S
C3123 C3119 1.393 . S
C3123 C3122 1.391 . S
H3124 C3132 0.950 . S
H3125 C3137 0.950 . S
H3126 C3134 0.950 . S
H3127 C3136 0.950 . S
H3128 C3138 0.950 . S
H3129 C3140 0.950 . S
H3130 C3142 0.950 . S
H3131 C3143 0.950 . S
C3132 H3124 0.950 . S
C3132 C3133 1.386 . S
C3132 C3134 1.391 . S
C3133 C3132 1.386 . S
C3133 C3137 1.393 . S
C3134 H3126 0.950 . S
C3134 C3132 1.391 . S
C3134 C3135 1.400 . S
C3135 C3134 1.400 . S
C3135 C3136 1.398 . S
C3135 C3141 1.491 . S
C3136 H3127 0.950 . S
C3136 C3135 1.398 . S
C3136 C3137 1.391 . S
C3137 H3125 0.950 . S
C3137 C3133 1.393 . S
C3137 C3136 1.391 . S
C3138 H3128 0.950 . S
C3138 C3139 1.386 . S
C3138 C3140 1.391 . S
C3139 C3138 1.386 . S
C3139 C3143 1.393 . S
C3140 H3129 0.950 . S
C3140 C3138 1.391 . S
C3140 C3141 1.400 . S
C3141 C3135 1.491 . S
C3141 C3140 1.400 . S
C3141 C3142 1.398 . S
C3142 H3130 0.950 . S
C3142 C3141 1.398 . S
C3142 C3143 1.391 . S
C3143 H3131 0.950 . S
C3143 C3139 1.393 . S
C3143 C3142 1.391 . S
H3144 C3152 0.950 . S
H3145 C3157 0.950 . S
H3146 C3154 0.950 . S
H3147 C3156 0.950 . S
H3148 C3158 0.950 . S
H3149 C3160 0.950 . S
H3150 C3162 0.950 . S
H3151 C3163 0.950 . S
C3152 H3144 0.950 . S
C3152 C3153 1.386 . S
C3152 C3154 1.391 . S
C3153 C3152 1.386 . S
C3153 C3157 1.393 . S
C3154 H3146 0.950 . S
C3154 C3152 1.391 . S
C3154 C3155 1.400 . S
C3155 C3154 1.400 . S
C3155 C3156 1.398 . S
C3155 C3161 1.491 . S
C3156 H3147 0.950 . S
C3156 C3155 1.398 . S
C3156 C3157 1.391 . S
C3157 H3145 0.950 . S
C3157 C3153 1.393 . S
C3157 C3156 1.391 . S
C3158 H3148 0.950 . S
C3158 C3159 1.386 . S
C3158 C3160 1.391 . S
C3159 C3158 1.386 . S
C3159 C3163 1.393 . S
C3160 H3149 0.950 . S
C3160 C3158 1.391 . S
C3160 C3161 1.400 . S
C3161 C3155 1.491 . S
C3161 C3160 1.400 . S
C3161 C3162 1.398 . S
C3162 H3150 0.950 . S
C3162 C3161 1.398 . S
C3162 C3163 1.391 . S
C3163 H3151 0.950 . S
C3163 C3159 1.393 . S
C3163 C3162 1.391 . S
H3164 C3172 0.950 . S
H3165 C3177 0.950 . S
H3166 C3174 0.950 . S
H3167 C3176 0.950 . S
H3168 C3178 0.950 . S
H3169 C3180 0.950 . S
H3170 C3182 0.950 . S
H3171 C3183 0.950 . S
C3172 H3164 0.950 . S
C3172 C3173 1.386 . S
C3172 C3174 1.391 . S
C3173 C3172 1.386 . S
C3173 C3177 1.393 . S
C3174 H3166 0.950 . S
C3174 C3172 1.391 . S
C3174 C3175 1.400 . S
C3175 C3174 1.400 . S
C3175 C3176 1.398 . S
C3175 C3181 1.491 . S
C3176 H3167 0.950 . S
C3176 C3175 1.398 . S
C3176 C3177 1.391 . S
C3177 H3165 0.950 . S
C3177 C3173 1.393 . S
C3177 C3176 1.391 . S
C3178 H3168 0.950 . S
C3178 C3179 1.386 . S
C3178 C3180 1.391 . S
C3179 C3178 1.386 . S
C3179 C3183 1.393 . S
C3180 H3169 0.950 . S
C3180 C3178 1.391 . S
C3180 C3181 1.400 . S
C3181 C3175 1.491 . S
C3181 C3180 1.400 . S
C3181 C3182 1.398 . S
C3182 H3170 0.950 . S
C3182 C3181 1.398 . S
C3182 C3183 1.391 . S
C3183 H3171 0.950 . S
C3183 C3179 1.393 . S
C3183 C3182 1.391 . S
H3184 C3192 0.950 . S
H3185 C3197 0.950 . S
H3186 C3194 0.950 . S
H3187 C3196 0.950 . S
H3188 C3198 0.950 . S
H3189 C3200 0.950 . S
H3190 C3202 0.950 . S
H3191 C3203 0.950 . S
C3192 H3184 0.950 . S
C3192 C3193 1.386 . S
C3192 C3194 1.391 . S
C3193 C3192 1.386 . S
C3193 C3197 1.393 . S
C3194 H3186 0.950 . S
C3194 C3192 1.391 . S
C3194 C3195 1.400 . S
C3195 C3194 1.400 . S
C3195 C3196 1.398 . S
C3195 C3201 1.491 . S
C3196 H3187 0.950 . S
C3196 C3195 1.398 . S
C3196 C3197 1.391 . S
C3197 H3185 0.950 . S
C3197 C3193 1.393 . S
C3197 C3196 1.391 . S
C3198 H3188 0.950 . S
C3198 C3199 1.386 . S
C3198 C3200 1.391 . S
C3199 C3198 1.386 . S
C3199 C3203 1.393 . S
C3200 H3189 0.950 . S
C3200 C3198 1.391 . S
C3200 C3201 1.400 . S
C3201 C3195 1.491 . S
C3201 C3200 1.400 . S
C3201 C3202 1.398 . S
C3202 H3190 0.950 . S
C3202 C3201 1.398 . S
C3202 C3203 1.391 . S
C3203 H3191 0.950 . S
C3203 C3199 1.393 . S
C3203 C3202 1.391 . S
H3204 C3212 0.950 . S
H3205 C3217 0.950 . S
H3206 C3214 0.950 . S
H3207 C3216 0.950 . S
H3208 C3218 0.950 . S
H3209 C3220 0.950 . S
H3210 C3222 0.950 . S
H3211 C3223 0.950 . S
C3212 H3204 0.950 . S
C3212 C3213 1.386 . S
C3212 C3214 1.391 . S
C3213 C3212 1.386 . S
C3213 C3217 1.393 . S
C3214 H3206 0.950 . S
C3214 C3212 1.391 . S
C3214 C3215 1.400 . S
C3215 C3214 1.400 . S
C3215 C3216 1.398 . S
C3215 C3221 1.491 . S
C3216 H3207 0.950 . S
C3216 C3215 1.398 . S
C3216 C3217 1.391 . S
C3217 H3205 0.950 . S
C3217 C3213 1.393 . S
C3217 C3216 1.391 . S
C3218 H3208 0.950 . S
C3218 C3219 1.386 . S
C3218 C3220 1.391 . S
C3219 C3218 1.386 . S
C3219 C3223 1.393 . S
C3220 H3209 0.950 . S
C3220 C3218 1.391 . S
C3220 C3221 1.400 . S
C3221 C3215 1.491 . S
C3221 C3220 1.400 . S
C3221 C3222 1.398 . S
C3222 H3210 0.950 . S
C3222 C3221 1.398 . S
C3222 C3223 1.391 . S
C3223 H3211 0.950 . S
C3223 C3219 1.393 . S
C3223 C3222 1.391 . S
H3224 C3232 0.950 . S
H3225 C3237 0.950 . S
H3226 C3234 0.950 . S
H3227 C3236 0.950 . S
H3228 C3238 0.950 . S
H3229 C3240 0.950 . S
H3230 C3242 0.950 . S
H3231 C3243 0.950 . S
C3232 H3224 0.950 . S
C3232 C3233 1.386 . S
C3232 C3234 1.391 . S
C3233 C3232 1.386 . S
C3233 C3237 1.393 . S
C3234 H3226 0.950 . S
C3234 C3232 1.391 . S
C3234 C3235 1.400 . S
C3235 C3234 1.400 . S
C3235 C3236 1.398 . S
C3235 C3241 1.491 . S
C3236 H3227 0.950 . S
C3236 C3235 1.398 . S
C3236 C3237 1.391 . S
C3237 H3225 0.950 . S
C3237 C3233 1.393 . S
C3237 C3236 1.391 . S
C3238 H3228 0.950 . S
C3238 C3239 1.386 . S
C3238 C3240 1.391 . S
C3239 C3238 1.386 . S
C3239 C3243 1.393 . S
C3240 H3229 0.950 . S
C3240 C3238 1.391 . S
C3240 C3241 1.400 . S
C3241 C3235 1.491 . S
C3241 C3240 1.400 . S
C3241 C3242 1.398 . S
C3242 H3230 0.950 . S
C3242 C3241 1.398 . S
C3242 C3243 1.391 . S
C3243 H3231 0.950 . S
C3243 C3239 1.393 . S
C3243 C3242 1.391 . S
H3244 C3252 0.950 . S
H3245 C3257 0.950 . S
H3246 C3254 0.950 . S
H3247 C3256 0.950 . S
H3248 C3258 0.950 . S
H3249 C3260 0.950 . S
H3250 C3262 0.950 . S
H3251 C3263 0.950 . S
C3252 H3244 0.950 . S
C3252 C3253 1.386 . S
C3252 C3254 1.391 . S
C3253 C3252 1.386 . S
C3253 C3257 1.393 . S
C3254 H3246 0.950 . S
C3254 C3252 1.391 . S
C3254 C3255 1.400 . S
C3255 C3254 1.400 . S
C3255 C3256 1.398 . S
C3255 C3261 1.491 . S
C3256 H3247 0.950 . S
C3256 C3255 1.398 . S
C3256 C3257 1.391 . S
C3257 H3245 0.950 . S
C3257 C3253 1.393 . S
C3257 C3256 1.391 . S
C3258 H3248 0.950 . S
C3258 C3259 1.386 . S
C3258 C3260 1.391 . S
C3259 C3258 1.386 . S
C3259 C3263 1.393 . S
C3260 H3249 0.950 . S
C3260 C3258 1.391 . S
C3260 C3261 1.400 . S
C3261 C3255 1.491 . S
C3261 C3260 1.400 . S
C3261 C3262 1.398 . S
C3262 H3250 0.950 . S
C3262 C3261 1.398 . S
C3262 C3263 1.391 . S
C3263 H3251 0.950 . S
C3263 C3259 1.393 . S
C3263 C3262 1.391 . S
H3264 C3272 0.950 . S
H3265 C3277 0.950 . S
H3266 C3274 0.950 . S
H3267 C3276 0.950 . S
H3268 C3278 0.950 . S
H3269 C3280 0.950 . S
H3270 C3282 0.950 . S
H3271 C3283 0.950 . S
C3272 H3264 0.950 . S
C3272 C3273 1.386 . S
C3272 C3274 1.391 . S
C3273 C3272 1.386 . S
C3273 C3277 1.393 . S
C3274 H3266 0.950 . S
C3274 C3272 1.391 . S
C3274 C3275 1.400 . S
C3275 C3274 1.400 . S
C3275 C3276 1.398 . S
C3275 C3281 1.491 . S
C3276 H3267 0.950 . S
C3276 C3275 1.398 . S
C3276 C3277 1.391 . S
C3277 H3265 0.950 . S
C3277 C3273 1.393 . S
C3277 C3276 1.391 . S
C3278 H3268 0.950 . S
C3278 C3279 1.386 . S
C3278 C3280 1.391 . S
C3279 C3278 1.386 . S
C3279 C3283 1.393 . S
C3280 H3269 0.950 . S
C3280 C3278 1.391 . S
C3280 C3281 1.400 . S
C3281 C3275 1.491 . S
C3281 C3280 1.400 . S
C3281 C3282 1.398 . S
C3282 H3270 0.950 . S
C3282 C3281 1.398 . S
C3282 C3283 1.391 . S
C3283 H3271 0.950 . S
C3283 C3279 1.393 . S
C3283 C3282 1.391 . S
H3284 C3292 0.950 . S
H3285 C3297 0.950 . S
H3286 C3294 0.950 . S
H3287 C3296 0.950 . S
H3288 C3298 0.950 . S
H3289 C3300 0.950 . S
H3290 C3302 0.950 . S
H3291 C3303 0.950 . S
C3292 H3284 0.950 . S
C3292 C3293 1.386 . S
C3292 C3294 1.391 . S
C3293 C3292 1.386 . S
C3293 C3297 1.393 . S
C3294 H3286 0.950 . S
C3294 C3292 1.391 . S
C3294 C3295 1.400 . S
C3295 C3294 1.400 . S
C3295 C3296 1.398 . S
C3295 C3301 1.491 . S
C3296 H3287 0.950 . S
C3296 C3295 1.398 . S
C3296 C3297 1.391 . S
C3297 H3285 0.950 . S
C3297 C3293 1.393 . S
C3297 C3296 1.391 . S
C3298 H3288 0.950 . S
C3298 C3299 1.386 . S
C3298 C3300 1.391 . S
C3299 C3298 1.386 . S
C3299 C3303 1.393 . S
C3300 H3289 0.950 . S
C3300 C3298 1.391 . S
C3300 C3301 1.400 . S
C3301 C3295 1.491 . S
C3301 C3300 1.400 . S
C3301 C3302 1.398 . S
C3302 H3290 0.950 . S
C3302 C3301 1.398 . S
C3302 C3303 1.391 . S
C3303 H3291 0.950 . S
C3303 C3299 1.393 . S
C3303 C3302 1.391 . S
H3304 C3312 0.950 . S
H3305 C3317 0.950 . S
H3306 C3314 0.950 . S
H3307 C3316 0.950 . S
H3308 C3318 0.950 . S
H3309 C3320 0.950 . S
H3310 C3322 0.950 . S
H3311 C3323 0.950 . S
C3312 H3304 0.950 . S
C3312 C3313 1.386 . S
C3312 C3314 1.391 . S
C3313 C3312 1.386 . S
C3313 C3317 1.393 . S
C3314 H3306 0.950 . S
C3314 C3312 1.391 . S
C3314 C3315 1.400 . S
C3315 C3314 1.400 . S
C3315 C3316 1.398 . S
C3315 C3321 1.491 . S
C3316 H3307 0.950 . S
C3316 C3315 1.398 . S
C3316 C3317 1.391 . S
C3317 H3305 0.950 . S
C3317 C3313 1.393 . S
C3317 C3316 1.391 . S
C3318 H3308 0.950 . S
C3318 C3319 1.386 . S
C3318 C3320 1.391 . S
C3319 C3318 1.386 . S
C3319 C3323 1.393 . S
C3320 H3309 0.950 . S
C3320 C3318 1.391 . S
C3320 C3321 1.400 . S
C3321 C3315 1.491 . S
C3321 C3320 1.400 . S
C3321 C3322 1.398 . S
C3322 H3310 0.950 . S
C3322 C3321 1.398 . S
C3322 C3323 1.391 . S
C3323 H3311 0.950 . S
C3323 C3319 1.393 . S
C3323 C3322 1.391 . S
H3324 C3332 0.950 . S
H3325 C3337 0.950 . S
H3326 C3334 0.950 . S
H3327 C3336 0.950 . S
H3328 C3338 0.950 . S
H3329 C3340 0.950 . S
H3330 C3342 0.950 . S
H3331 C3343 0.950 . S
C3332 H3324 0.950 . S
C3332 C3333 1.386 . S
C3332 C3334 1.391 . S
C3333 C3332 1.386 . S
C3333 C3337 1.393 . S
C3334 H3326 0.950 . S
C3334 C3332 1.391 . S
C3334 C3335 1.400 . S
C3335 C3334 1.400 . S
C3335 C3336 1.398 . S
C3335 C3341 1.491 . S
C3336 H3327 0.950 . S
C3336 C3335 1.398 . S
C3336 C3337 1.391 . S
C3337 H3325 0.950 . S
C3337 C3333 1.393 . S
C3337 C3336 1.391 . S
C3338 H3328 0.950 . S
C3338 C3339 1.386 . S
C3338 C3340 1.391 . S
C3339 C3338 1.386 . S
C3339 C3343 1.393 . S
C3340 H3329 0.950 . S
C3340 C3338 1.391 . S
C3340 C3341 1.400 . S
C3341 C3335 1.491 . S
C3341 C3340 1.400 . S
C3341 C3342 1.398 . S
C3342 H3330 0.950 . S
C3342 C3341 1.398 . S
C3342 C3343 1.391 . S
C3343 H3331 0.950 . S
C3343 C3339 1.393 . S
C3343 C3342 1.391 . S
H3344 C3352 0.950 . S
H3345 C3357 0.950 . S
H3346 C3354 0.950 . S
H3347 C3356 0.950 . S
H3348 C3358 0.950 . S
H3349 C3360 0.950 . S
H3350 C3362 0.950 . S
H3351 C3363 0.950 . S
C3352 H3344 0.950 . S
C3352 C3353 1.386 . S
C3352 C3354 1.391 . S
C3353 C3352 1.386 . S
C3353 C3357 1.393 . S
C3354 H3346 0.950 . S
C3354 C3352 1.391 . S
C3354 C3355 1.400 . S
C3355 C3354 1.400 . S
C3355 C3356 1.398 . S
C3355 C3361 1.491 . S
C3356 H3347 0.950 . S
C3356 C3355 1.398 . S
C3356 C3357 1.391 . S
C3357 H3345 0.950 . S
C3357 C3353 1.393 . S
C3357 C3356 1.391 . S
C3358 H3348 0.950 . S
C3358 C3359 1.386 . S
C3358 C3360 1.391 . S
C3359 C3358 1.386 . S
C3359 C3363 1.393 . S
C3360 H3349 0.950 . S
C3360 C3358 1.391 . S
C3360 C3361 1.400 . S
C3361 C3355 1.491 . S
C3361 C3360 1.400 . S
C3361 C3362 1.398 . S
C3362 H3350 0.950 . S
C3362 C3361 1.398 . S
C3362 C3363 1.391 . S
C3363 H3351 0.950 . S
C3363 C3359 1.393 . S
C3363 C3362 1.391 . S
H3364 C3372 0.950 . S
H3365 C3377 0.950 . S
H3366 C3374 0.950 . S
H3367 C3376 0.950 . S
H3368 C3378 0.950 . S
H3369 C3380 0.950 . S
H3370 C3382 0.950 . S
H3371 C3383 0.950 . S
C3372 H3364 0.950 . S
C3372 C3373 1.386 . S
C3372 C3374 1.391 . S
C3373 C3372 1.386 . S
C3373 C3377 1.393 . S
C3374 H3366 0.950 . S
C3374 C3372 1.391 . S
C3374 C3375 1.400 . S
C3375 C3374 1.400 . S
C3375 C3376 1.398 . S
C3375 C3381 1.491 . S
C3376 H3367 0.950 . S
C3376 C3375 1.398 . S
C3376 C3377 1.391 . S
C3377 H3365 0.950 . S
C3377 C3373 1.393 . S
C3377 C3376 1.391 . S
C3378 H3368 0.950 . S
C3378 C3379 1.386 . S
C3378 C3380 1.391 . S
C3379 C3378 1.386 . S
C3379 C3383 1.393 . S
C3380 H3369 0.950 . S
C3380 C3378 1.391 . S
C3380 C3381 1.400 . S
C3381 C3375 1.491 . S
C3381 C3380 1.400 . S
C3381 C3382 1.398 . S
C3382 H3370 0.950 . S
C3382 C3381 1.398 . S
C3382 C3383 1.391 . S
C3383 H3371 0.950 . S
C3383 C3379 1.393 . S
C3383 C3382 1.391 . S
H3384 C3392 0.950 . S
H3385 C3397 0.950 . S
H3386 C3394 0.950 . S
H3387 C3396 0.950 . S
H3388 C3398 0.950 . S
H3389 C3400 0.950 . S
H3390 C3402 0.950 . S
H3391 C3403 0.950 . S
C3392 H3384 0.950 . S
C3392 C3393 1.386 . S
C3392 C3394 1.391 . S
C3393 C3392 1.386 . S
C3393 C3397 1.393 . S
C3394 H3386 0.950 . S
C3394 C3392 1.391 . S
C3394 C3395 1.400 . S
C3395 C3394 1.400 . S
C3395 C3396 1.398 . S
C3395 C3401 1.491 . S
C3396 H3387 0.950 . S
C3396 C3395 1.398 . S
C3396 C3397 1.391 . S
C3397 H3385 0.950 . S
C3397 C3393 1.393 . S
C3397 C3396 1.391 . S
C3398 H3388 0.950 . S
C3398 C3399 1.386 . S
C3398 C3400 1.391 . S
C3399 C3398 1.386 . S
C3399 C3403 1.393 . S
C3400 H3389 0.950 . S
C3400 C3398 1.391 . S
C3400 C3401 1.400 . S
C3401 C3395 1.491 . S
C3401 C3400 1.400 . S
C3401 C3402 1.398 . S
C3402 H3390 0.950 . S
C3402 C3401 1.398 . S
C3402 C3403 1.391 . S
C3403 H3391 0.950 . S
C3403 C3399 1.393 . S
C3403 C3402 1.391 . S
H3404 C3412 0.950 . S
H3405 C3417 0.950 . S
H3406 C3414 0.950 . S
H3407 C3416 0.950 . S
H3408 C3418 0.950 . S
H3409 C3420 0.950 . S
H3410 C3422 0.950 . S
H3411 C3423 0.950 . S
C3412 H3404 0.950 . S
C3412 C3413 1.386 . S
C3412 C3414 1.391 . S
C3413 C3412 1.386 . S
C3413 C3417 1.393 . S
C3414 H3406 0.950 . S
C3414 C3412 1.391 . S
C3414 C3415 1.400 . S
C3415 C3414 1.400 . S
C3415 C3416 1.398 . S
C3415 C3421 1.491 . S
C3416 H3407 0.950 . S
C3416 C3415 1.398 . S
C3416 C3417 1.391 . S
C3417 H3405 0.950 . S
C3417 C3413 1.393 . S
C3417 C3416 1.391 . S
C3418 H3408 0.950 . S
C3418 C3419 1.386 . S
C3418 C3420 1.391 . S
C3419 C3418 1.386 . S
C3419 C3423 1.393 . S
C3420 H3409 0.950 . S
C3420 C3418 1.391 . S
C3420 C3421 1.400 . S
C3421 C3415 1.491 . S
C3421 C3420 1.400 . S
C3421 C3422 1.398 . S
C3422 H3410 0.950 . S
C3422 C3421 1.398 . S
C3422 C3423 1.391 . S
C3423 H3411 0.950 . S
C3423 C3419 1.393 . S
C3423 C3422 1.391 . S
H3424 C3432 0.950 . S
H3425 C3437 0.950 . S
H3426 C3434 0.950 . S
H3427 C3436 0.950 . S
H3428 C3438 0.950 . S
H3429 C3440 0.950 . S
H3430 C3442 0.950 . S
H3431 C3443 0.950 . S
C3432 H3424 0.950 . S
C3432 C3433 1.386 . S
C3432 C3434 1.391 . S
C3433 C3432 1.386 . S
C3433 C3437 1.393 . S
C3434 H3426 0.950 . S
C3434 C3432 1.391 . S
C3434 C3435 1.400 . S
C3435 C3434 1.400 . S
C3435 C3436 1.398 . S
C3435 C3441 1.491 . S
C3436 H3427 0.950 . S
C3436 C3435 1.398 . S
C3436 C3437 1.391 . S
C3437 H3425 0.950 . S
C3437 C3433 1.393 . S
C3437 C3436 1.391 . S
C3438 H3428 0.950 . S
C3438 C3439 1.386 . S
C3438 C3440 1.391 . S
C3439 C3438 1.386 . S
C3439 C3443 1.393 . S
C3440 H3429 0.950 . S
C3440 C3438 1.391 . S
C3440 C3441 1.400 . S
C3441 C3435 1.491 . S
C3441 C3440 1.400 . S
C3441 C3442 1.398 . S
C3442 H3430 0.950 . S
C3442 C3441 1.398 . S
C3442 C3443 1.391 . S
C3443 H3431 0.950 . S
C3443 C3439 1.393 . S
C3443 C3442 1.391 . S
H3444 C3452 0.950 . S
H3445 C3457 0.950 . S
H3446 C3454 0.950 . S
H3447 C3456 0.950 . S
H3448 C3458 0.950 . S
H3449 C3460 0.950 . S
H3450 C3462 0.950 . S
H3451 C3463 0.950 . S
C3452 H3444 0.950 . S
C3452 C3453 1.386 . S
C3452 C3454 1.391 . S
C3453 C3452 1.386 . S
C3453 C3457 1.393 . S
C3454 H3446 0.950 . S
C3454 C3452 1.391 . S
C3454 C3455 1.400 . S
C3455 C3454 1.400 . S
C3455 C3456 1.398 . S
C3455 C3461 1.491 . S
C3456 H3447 0.950 . S
C3456 C3455 1.398 . S
C3456 C3457 1.391 . S
C3457 H3445 0.950 . S
C3457 C3453 1.393 . S
C3457 C3456 1.391 . S
C3458 H3448 0.950 . S
C3458 C3459 1.386 . S
C3458 C3460 1.391 . S
C3459 C3458 1.386 . S
C3459 C3463 1.393 . S
C3460 H3449 0.950 . S
C3460 C3458 1.391 . S
C3460 C3461 1.400 . S
C3461 C3455 1.491 . S
C3461 C3460 1.400 . S
C3461 C3462 1.398 . S
C3462 H3450 0.950 . S
C3462 C3461 1.398 . S
C3462 C3463 1.391 . S
C3463 H3451 0.950 . S
C3463 C3459 1.393 . S
C3463 C3462 1.391 . S
H3464 C3472 0.950 . S
H3465 C3477 0.950 . S
H3466 C3474 0.950 . S
H3467 C3476 0.950 . S
H3468 C3478 0.950 . S
H3469 C3480 0.950 . S
H3470 C3482 0.950 . S
H3471 C3483 0.950 . S
C3472 H3464 0.950 . S
C3472 C3473 1.386 . S
C3472 C3474 1.391 . S
C3473 C3472 1.386 . S
C3473 C3477 1.393 . S
C3474 H3466 0.950 . S
C3474 C3472 1.391 . S
C3474 C3475 1.400 . S
C3475 C3474 1.400 . S
C3475 C3476 1.398 . S
C3475 C3481 1.491 . S
C3476 H3467 0.950 . S
C3476 C3475 1.398 . S
C3476 C3477 1.391 . S
C3477 H3465 0.950 . S
C3477 C3473 1.393 . S
C3477 C3476 1.391 . S
C3478 H3468 0.950 . S
C3478 C3479 1.386 . S
C3478 C3480 1.391 . S
C3479 C3478 1.386 . S
C3479 C3483 1.393 . S
C3480 H3469 0.950 . S
C3480 C3478 1.391 . S
C3480 C3481 1.400 . S
C3481 C3475 1.491 . S
C3481 C3480 1.400 . S
C3481 C3482 1.398 . S
C3482 H3470 0.950 . S
C3482 C3481 1.398 . S
C3482 C3483 1.391 . S
C3483 H3471 0.950 . S
C3483 C3479 1.393 . S
C3483 C3482 1.391 . S
H3484 C3492 0.950 . S
H3485 C3497 0.950 . S
H3486 C3494 0.950 . S
H3487 C3496 0.950 . S
H3488 C3498 0.950 . S
H3489 C3500 0.950 . S
H3490 C3502 0.950 . S
H3491 C3503 0.950 . S
C3492 H3484 0.950 . S
C3492 C3493 1.386 . S
C3492 C3494 1.391 . S
C3493 C3492 1.386 . S
C3493 C3497 1.393 . S
C3494 H3486 0.950 . S
C3494 C3492 1.391 . S
C3494 C3495 1.400 . S
C3495 C3494 1.400 . S
C3495 C3496 1.398 . S
C3495 C3501 1.491 . S
C3496 H3487 0.950 . S
C3496 C3495 1.398 . S
C3496 C3497 1.391 . S
C3497 H3485 0.950 . S
C3497 C3493 1.393 . S
C3497 C3496 1.391 . S
C3498 H3488 0.950 . S
C3498 C3499 1.386 . S
C3498 C3500 1.391 . S
C3499 C3498 1.386 . S
C3499 C3503 1.393 . S
C3500 H3489 0.950 . S
C3500 C3498 1.391 . S
C3500 C3501 1.400 . S
C3501 C3495 1.491 . S
C3501 C3500 1.400 . S
C3501 C3502 1.398 . S
C3502 H3490 0.950 . S
C3502 C3501 1.398 . S
C3502 C3503 1.391 . S
C3503 H3491 0.950 . S
C3503 C3499 1.393 . S
C3503 C3502 1.391 . S
H3504 C3512 0.950 . S
H3505 C3517 0.950 . S
H3506 C3514 0.950 . S
H3507 C3516 0.950 . S
H3508 C3518 0.950 . S
H3509 C3520 0.950 . S
H3510 C3522 0.950 . S
H3511 C3523 0.950 . S
C3512 H3504 0.950 . S
C3512 C3513 1.386 . S
C3512 C3514 1.391 . S
C3513 C3512 1.386 . S
C3513 C3517 1.393 . S
C3514 H3506 0.950 . S
C3514 C3512 1.391 . S
C3514 C3515 1.400 . S
C3515 C3514 1.400 . S
C3515 C3516 1.398 . S
C3515 C3521 1.491 1_655 S
C3516 H3507 0.950 . S
C3516 C3515 1.398 . S
C3516 C3517 1.391 . S
C3517 H3505 0.950 . S
C3517 C3513 1.393 . S
C3517 C3516 1.391 . S
C3518 H3508 0.950 . S
C3518 C3519 1.386 . S
C3518 C3520 1.391 . S
C3519 C3518 1.386 . S
C3519 C3523 1.393 . S
C3520 H3509 0.950 . S
C3520 C3518 1.391 . S
C3520 C3521 1.400 . S
C3521 C3515 1.491 1_455 S
C3521 C3520 1.400 . S
C3521 C3522 1.398 . S
C3522 H3510 0.950 . S
C3522 C3521 1.398 . S
C3522 C3523 1.391 . S
C3523 H3511 0.950 . S
C3523 C3519 1.393 . S
C3523 C3522 1.391 . S
H3524 C3532 0.950 . S
H3525 C3537 0.950 1_655 S
H3526 C3534 0.950 . S
H3527 C3536 0.950 . S
H3528 C3538 0.950 . S
H3529 C3540 0.950 . S
H3530 C3542 0.950 . S
H3531 C3543 0.950 1_455 S
C3532 H3524 0.950 . S
C3532 C3533 1.386 . S
C3532 C3534 1.391 . S
C3533 C3532 1.386 . S
C3533 C3537 1.393 . S
C3534 H3526 0.950 . S
C3534 C3532 1.391 . S
C3534 C3535 1.400 . S
C3535 C3534 1.400 . S
C3535 C3536 1.398 1_455 S
C3535 C3541 1.491 1_455 S
C3536 H3527 0.950 . S
C3536 C3535 1.398 1_655 S
C3536 C3537 1.391 1_655 S
C3537 H3525 0.950 1_455 S
C3537 C3533 1.393 . S
C3537 C3536 1.391 1_455 S
C3538 H3528 0.950 . S
C3538 C3539 1.386 . S
C3538 C3540 1.391 . S
C3539 C3538 1.386 . S
C3539 C3543 1.393 . S
C3540 H3529 0.950 . S
C3540 C3538 1.391 . S
C3540 C3541 1.400 . S
C3541 C3535 1.491 1_655 S
C3541 C3540 1.400 . S
C3541 C3542 1.398 1_655 S
C3542 H3530 0.950 . S
C3542 C3541 1.398 1_455 S
C3542 C3543 1.391 1_455 S
C3543 H3531 0.950 1_655 S
C3543 C3539 1.393 . S
C3543 C3542 1.391 1_655 S
H3544 C3552 0.950 . S
H3545 C3557 0.950 . S
H3546 C3554 0.950 . S
H3547 C3556 0.950 . S
H3548 C3558 0.950 . S
H3549 C3560 0.950 . S
H3550 C3562 0.950 . S
H3551 C3563 0.950 . S
C3552 H3544 0.950 . S
C3552 C3553 1.386 . S
C3552 C3554 1.391 . S
C3553 C3552 1.386 . S
C3553 C3557 1.393 . S
C3554 H3546 0.950 . S
C3554 C3552 1.391 . S
C3554 C3555 1.400 . S
C3555 C3554 1.400 . S
C3555 C3556 1.398 . S
C3555 C3561 1.491 . S
C3556 H3547 0.950 . S
C3556 C3555 1.398 . S
C3556 C3557 1.391 . S
C3557 H3545 0.950 . S
C3557 C3553 1.393 . S
C3557 C3556 1.391 . S
C3558 H3548 0.950 . S
C3558 C3559 1.386 . S
C3558 C3560 1.391 . S
C3559 C3558 1.386 . S
C3559 C3563 1.393 . S
C3560 H3549 0.950 . S
C3560 C3558 1.391 . S
C3560 C3561 1.400 . S
C3561 C3555 1.491 . S
C3561 C3560 1.400 . S
C3561 C3562 1.398 . S
C3562 H3550 0.950 . S
C3562 C3561 1.398 . S
C3562 C3563 1.391 . S
C3563 H3551 0.950 . S
C3563 C3559 1.393 . S
C3563 C3562 1.391 . S
H3564 C3572 0.950 . S
H3565 C3577 0.950 . S
H3566 C3574 0.950 . S
H3567 C3576 0.950 . S
H3568 C3578 0.950 . S
H3569 C3580 0.950 . S
H3570 C3582 0.950 . S
H3571 C3583 0.950 . S
C3572 H3564 0.950 . S
C3572 C3573 1.386 . S
C3572 C3574 1.391 . S
C3573 C3572 1.386 . S
C3573 C3577 1.393 . S
C3574 H3566 0.950 . S
C3574 C3572 1.391 . S
C3574 C3575 1.400 . S
C3575 C3574 1.400 . S
C3575 C3576 1.398 . S
C3575 C3581 1.491 . S
C3576 H3567 0.950 . S
C3576 C3575 1.398 . S
C3576 C3577 1.391 . S
C3577 H3565 0.950 . S
C3577 C3573 1.393 . S
C3577 C3576 1.391 . S
C3578 H3568 0.950 . S
C3578 C3579 1.386 . S
C3578 C3580 1.391 . S
C3579 C3578 1.386 . S
C3579 C3583 1.393 . S
C3580 H3569 0.950 . S
C3580 C3578 1.391 . S
C3580 C3581 1.400 . S
C3581 C3575 1.491 . S
C3581 C3580 1.400 . S
C3581 C3582 1.398 . S
C3582 H3570 0.950 . S
C3582 C3581 1.398 . S
C3582 C3583 1.391 . S
C3583 H3571 0.950 . S
C3583 C3579 1.393 . S
C3583 C3582 1.391 . S
H3584 C3592 0.950 . S
H3585 C3597 0.950 . S
H3586 C3594 0.928 1_455 S
H3587 C3596 0.950 . S
H3588 C3598 0.950 . S
H3589 C3600 0.928 1_655 S
H3590 C3602 0.950 . S
H3591 C3603 0.950 . S
C3592 H3584 0.950 . S
C3592 C3593 1.386 . S
C3592 C3594 1.391 . S
C3593 C3592 1.386 . S
C3593 C3597 1.393 . S
C3594 H3586 0.928 1_655 S
C3594 C3592 1.391 . S
C3594 C3595 1.400 . S
C3595 C3594 1.400 . S
C3595 C3596 1.398 . S
C3595 C3601 1.491 1_655 S
C3596 H3587 0.950 . S
C3596 C3595 1.398 . S
C3596 C3597 1.391 . S
C3597 H3585 0.950 . S
C3597 C3593 1.393 . S
C3597 C3596 1.391 . S
C3598 H3588 0.950 . S
C3598 C3599 1.386 . S
C3598 C3600 1.391 . S
C3599 C3598 1.386 . S
C3599 C3603 1.393 . S
C3600 H3589 0.928 1_455 S
C3600 C3598 1.391 . S
C3600 C3601 1.400 . S
C3601 C3595 1.491 1_455 S
C3601 C3600 1.400 . S
C3601 C3602 1.398 . S
C3602 H3590 0.950 . S
C3602 C3601 1.398 . S
C3602 C3603 1.391 . S
C3603 H3591 0.950 . S
C3603 C3599 1.393 . S
C3603 C3602 1.391 . S
H3604 C3612 0.950 . S
H3605 C3617 0.950 . S
H3606 C3614 0.950 . S
H3607 C3616 0.950 . S
H3608 C3618 0.950 . S
H3609 C3620 0.950 . S
H3610 C3622 0.950 . S
H3611 C3623 0.950 . S
C3612 H3604 0.950 . S
C3612 C3613 1.386 . S
C3612 C3614 1.391 . S
C3613 C3612 1.386 . S
C3613 C3617 1.393 . S
C3614 H3606 0.950 . S
C3614 C3612 1.391 . S
C3614 C3615 1.400 . S
C3615 C3614 1.400 . S
C3615 C3616 1.398 . S
C3615 C3621 1.491 . S
C3616 H3607 0.950 . S
C3616 C3615 1.398 . S
C3616 C3617 1.391 . S
C3617 H3605 0.950 . S
C3617 C3613 1.393 . S
C3617 C3616 1.391 . S
C3618 H3608 0.950 . S
C3618 C3619 1.386 . S
C3618 C3620 1.391 . S
C3619 C3618 1.386 . S
C3619 C3623 1.393 . S
C3620 H3609 0.950 . S
C3620 C3618 1.391 . S
C3620 C3621 1.400 . S
C3621 C3615 1.491 . S
C3621 C3620 1.400 . S
C3621 C3622 1.398 . S
C3622 H3610 0.950 . S
C3622 C3621 1.398 . S
C3622 C3623 1.391 . S
C3623 H3611 0.950 . S
C3623 C3619 1.393 . S
C3623 C3622 1.391 . S
H3624 C3632 0.950 . S
H3625 C3637 0.950 . S
H3626 C3634 0.950 . S
H3627 C3636 0.950 . S
H3628 C3638 0.950 . S
H3629 C3640 0.950 . S
H3630 C3642 0.950 . S
H3631 C3643 0.950 . S
C3632 H3624 0.950 . S
C3632 C3633 1.386 . S
C3632 C3634 1.391 . S
C3633 C3632 1.386 . S
C3633 C3637 1.393 . S
C3634 H3626 0.950 . S
C3634 C3632 1.391 . S
C3634 C3635 1.400 . S
C3635 C3634 1.400 . S
C3635 C3636 1.398 . S
C3635 C3641 1.491 . S
C3636 H3627 0.950 . S
C3636 C3635 1.398 . S
C3636 C3637 1.391 . S
C3637 H3625 0.950 . S
C3637 C3633 1.393 . S
C3637 C3636 1.391 . S
C3638 H3628 0.950 . S
C3638 C3639 1.386 . S
C3638 C3640 1.391 . S
C3639 C3638 1.386 . S
C3639 C3643 1.393 . S
C3640 H3629 0.950 . S
C3640 C3638 1.391 . S
C3640 C3641 1.400 . S
C3641 C3635 1.491 . S
C3641 C3640 1.400 . S
C3641 C3642 1.398 . S
C3642 H3630 0.950 . S
C3642 C3641 1.398 . S
C3642 C3643 1.391 . S
C3643 H3631 0.950 . S
C3643 C3639 1.393 . S
C3643 C3642 1.391 . S
H3644 C3652 0.950 . S
H3645 C3657 0.950 . S
H3646 C3654 0.968 . S
H3647 C3656 0.950 . S
H3648 C3658 0.950 . S
H3649 C3660 0.968 . S
H3650 C3662 0.950 . S
H3651 C3663 0.950 . S
C3652 H3644 0.950 . S
C3652 C3653 1.386 . S
C3652 C3654 1.391 . S
C3653 C3652 1.386 . S
C3653 C3657 1.393 . S
C3654 H3646 0.968 . S
C3654 C3652 1.391 . S
C3654 C3655 1.400 . S
C3655 C3654 1.400 . S
C3655 C3656 1.398 . S
C3655 C3661 1.491 1_455 S
C3656 H3647 0.950 . S
C3656 C3655 1.398 . S
C3656 C3657 1.391 . S
C3657 H3645 0.950 . S
C3657 C3653 1.393 . S
C3657 C3656 1.391 . S
C3658 H3648 0.950 . S
C3658 C3659 1.386 . S
C3658 C3660 1.391 . S
C3659 C3658 1.386 . S
C3659 C3663 1.393 . S
C3660 H3649 0.968 . S
C3660 C3658 1.391 . S
C3660 C3661 1.400 . S
C3661 C3655 1.491 1_655 S
C3661 C3660 1.400 . S
C3661 C3662 1.398 . S
C3662 H3650 0.950 . S
C3662 C3661 1.398 . S
C3662 C3663 1.391 . S
C3663 H3651 0.950 . S
C3663 C3659 1.393 . S
C3663 C3662 1.391 . S
H3664 C3672 0.950 . S
H3665 C3677 0.950 . S
H3666 C3674 0.950 . S
H3667 C3676 0.950 . S
H3668 C3678 0.950 . S
H3669 C3680 0.950 . S
H3670 C3682 0.950 . S
H3671 C3683 0.950 . S
C3672 H3664 0.950 . S
C3672 C3673 1.386 . S
C3672 C3674 1.391 . S
C3673 C3672 1.386 . S
C3673 C3677 1.393 . S
C3674 H3666 0.950 . S
C3674 C3672 1.391 . S
C3674 C3675 1.400 . S
C3675 C3674 1.400 . S
C3675 C3676 1.398 . S
C3675 C3681 1.491 1_545 S
C3676 H3667 0.950 . S
C3676 C3675 1.398 . S
C3676 C3677 1.391 . S
C3677 H3665 0.950 . S
C3677 C3673 1.393 . S
C3677 C3676 1.391 . S
C3678 H3668 0.950 . S
C3678 C3679 1.386 . S
C3678 C3680 1.391 . S
C3679 C3678 1.386 . S
C3679 C3683 1.393 . S
C3680 H3669 0.950 . S
C3680 C3678 1.391 . S
C3680 C3681 1.400 . S
C3681 C3675 1.491 1_565 S
C3681 C3680 1.400 . S
C3681 C3682 1.398 . S
C3682 H3670 0.950 . S
C3682 C3681 1.398 . S
C3682 C3683 1.391 . S
C3683 H3671 0.950 . S
C3683 C3679 1.393 . S
C3683 C3682 1.391 . S
H3684 C3692 0.950 . S
H3685 C3697 0.950 . S
H3686 C3694 0.950 . S
H3687 C3696 0.950 . S
H3688 C3698 0.950 . S
H3689 C3700 0.950 . S
H3690 C3702 0.950 . S
H3691 C3703 0.950 . S
C3692 H3684 0.950 . S
C3692 C3693 1.386 . S
C3692 C3694 1.391 . S
C3693 C3692 1.386 . S
C3693 C3697 1.393 . S
C3694 H3686 0.950 . S
C3694 C3692 1.391 . S
C3694 C3695 1.400 . S
C3695 C3694 1.400 . S
C3695 C3696 1.398 . S
C3695 C3701 1.491 . S
C3696 H3687 0.950 . S
C3696 C3695 1.398 . S
C3696 C3697 1.391 . S
C3697 H3685 0.950 . S
C3697 C3693 1.393 . S
C3697 C3696 1.391 . S
C3698 H3688 0.950 . S
C3698 C3699 1.386 . S
C3698 C3700 1.391 . S
C3699 C3698 1.386 . S
C3699 C3703 1.393 . S
C3700 H3689 0.950 . S
C3700 C3698 1.391 . S
C3700 C3701 1.400 . S
C3701 C3695 1.491 . S
C3701 C3700 1.400 . S
C3701 C3702 1.398 . S
C3702 H3690 0.950 . S
C3702 C3701 1.398 . S
C3702 C3703 1.391 . S
C3703 H3691 0.950 . S
C3703 C3699 1.393 . S
C3703 C3702 1.391 . S
H3704 C3712 0.950 . S
H3705 C3717 0.950 . S
H3706 C3714 0.950 . S
H3707 C3716 0.980 . S
H3708 C3718 0.950 . S
H3709 C3720 0.950 . S
H3710 C3722 0.980 . S
H3711 C3723 0.950 . S
C3712 H3704 0.950 . S
C3712 C3713 1.386 . S
C3712 C3714 1.391 . S
C3713 C3712 1.386 . S
C3713 C3717 1.393 . S
C3714 H3706 0.950 . S
C3714 C3712 1.391 . S
C3714 C3715 1.400 . S
C3715 C3714 1.400 . S
C3715 C3716 1.398 . S
C3715 C3721 1.491 1_565 S
C3716 H3707 0.980 . S
C3716 C3715 1.398 . S
C3716 C3717 1.391 . S
C3717 H3705 0.950 . S
C3717 C3713 1.393 . S
C3717 C3716 1.391 . S
C3718 H3708 0.950 . S
C3718 C3719 1.386 . S
C3718 C3720 1.391 . S
C3719 C3718 1.386 . S
C3719 C3723 1.393 . S
C3720 H3709 0.950 . S
C3720 C3718 1.391 . S
C3720 C3721 1.400 . S
C3721 C3715 1.491 1_545 S
C3721 C3720 1.400 . S
C3721 C3722 1.398 . S
C3722 H3710 0.980 . S
C3722 C3721 1.398 . S
C3722 C3723 1.391 . S
C3723 H3711 0.950 . S
C3723 C3719 1.393 . S
C3723 C3722 1.391 . S
H3724 C3732 0.950 1_554 S
H3725 C3737 0.950 . S
H3726 C3734 0.950 . S
H3727 C3736 0.950 . S
H3728 C3738 0.950 1_556 S
H3729 C3740 0.950 . S
H3730 C3742 0.950 . S
H3731 C3743 0.950 . S
C3732 H3724 0.950 1_556 S
C3732 C3733 1.386 . S
C3732 C3734 1.391 1_556 S
C3733 C3732 1.386 . S
C3733 C3737 1.393 . S
C3734 H3726 0.950 . S
C3734 C3732 1.391 1_554 S
C3734 C3735 1.400 1_554 S
C3735 C3734 1.400 1_556 S
C3735 C3736 1.398 . S
C3735 C3741 1.491 1_556 S
C3736 H3727 0.950 . S
C3736 C3735 1.398 . S
C3736 C3737 1.391 . S
C3737 H3725 0.950 . S
C3737 C3733 1.393 . S
C3737 C3736 1.391 . S
C3738 H3728 0.950 1_554 S
C3738 C3739 1.386 . S
C3738 C3740 1.391 1_554 S
C3739 C3738 1.386 . S
C3739 C3743 1.393 . S
C3740 H3729 0.950 . S
C3740 C3738 1.391 1_556 S
C3740 C3741 1.400 1_556 S
C3741 C3735 1.491 1_554 S
C3741 C3740 1.400 1_554 S
C3741 C3742 1.398 . S
C3742 H3730 0.950 . S
C3742 C3741 1.398 . S
C3742 C3743 1.391 . S
C3743 H3731 0.950 . S
C3743 C3739 1.393 . S
C3743 C3742 1.391 . S
H3744 C3752 0.950 . S
H3745 C3757 0.950 . S
H3746 C3754 0.950 . S
H3747 C3756 0.950 . S
H3748 C3758 0.950 . S
H3749 C3760 0.950 . S
H3750 C3762 0.950 . S
H3751 C3763 0.950 . S
C3752 H3744 0.950 . S
C3752 C3753 1.386 . S
C3752 C3754 1.391 . S
C3753 C3752 1.386 . S
C3753 C3757 1.393 . S
C3754 H3746 0.950 . S
C3754 C3752 1.391 . S
C3754 C3755 1.400 . S
C3755 C3754 1.400 . S
C3755 C3756 1.398 . S
C3755 C3761 1.491 1_556 S
C3756 H3747 0.950 . S
C3756 C3755 1.398 . S
C3756 C3757 1.391 . S
C3757 H3745 0.950 . S
C3757 C3753 1.393 . S
C3757 C3756 1.391 . S
C3758 H3748 0.950 . S
C3758 C3759 1.386 . S
C3758 C3760 1.391 . S
C3759 C3758 1.386 . S
C3759 C3763 1.393 . S
C3760 H3749 0.950 . S
C3760 C3758 1.391 . S
C3760 C3761 1.400 . S
C3761 C3755 1.491 1_554 S
C3761 C3760 1.400 . S
C3761 C3762 1.398 . S
C3762 H3750 0.950 . S
C3762 C3761 1.398 . S
C3762 C3763 1.391 . S
C3763 H3751 0.950 . S
C3763 C3759 1.393 . S
C3763 C3762 1.391 . S
H3764 C3772 0.950 . S
H3765 C3777 0.950 . S
H3766 C3774 0.950 . S
H3767 C3776 0.950 . S
H3768 C3778 0.950 . S
H3769 C3780 0.950 . S
H3770 C3782 0.950 . S
H3771 C3783 0.950 . S
C3772 H3764 0.950 . S
C3772 C3773 1.386 . S
C3772 C3774 1.391 . S
C3773 C3772 1.386 . S
C3773 C3777 1.393 . S
C3774 H3766 0.950 . S
C3774 C3772 1.391 . S
C3774 C3775 1.400 . S
C3775 C3774 1.400 . S
C3775 C3776 1.398 . S
C3775 C3781 1.491 1_554 S
C3776 H3767 0.950 . S
C3776 C3775 1.398 . S
C3776 C3777 1.391 . S
C3777 H3765 0.950 . S
C3777 C3773 1.393 . S
C3777 C3776 1.391 . S
C3778 H3768 0.950 . S
C3778 C3779 1.386 . S
C3778 C3780 1.391 . S
C3779 C3778 1.386 . S
C3779 C3783 1.393 . S
C3780 H3769 0.950 . S
C3780 C3778 1.391 . S
C3780 C3781 1.400 . S
C3781 C3775 1.491 1_556 S
C3781 C3780 1.400 . S
C3781 C3782 1.398 . S
C3782 H3770 0.950 . S
C3782 C3781 1.398 . S
C3782 C3783 1.391 . S
C3783 H3771 0.950 . S
C3783 C3779 1.393 . S
C3783 C3782 1.391 . S
H3784 C3792 0.950 . S
H3785 C3797 0.950 . S
H3786 C3794 0.950 . S
H3787 C3796 0.950 . S
H3788 C3798 0.950 . S
H3789 C3800 0.950 . S
H3790 C3802 0.950 . S
H3791 C3803 0.950 . S
C3792 H3784 0.950 . S
C3792 C3793 1.386 . S
C3792 C3794 1.391 . S
C3793 C3792 1.386 . S
C3793 C3797 1.393 . S
C3794 H3786 0.950 . S
C3794 C3792 1.391 . S
C3794 C3795 1.400 . S
C3795 C3794 1.400 . S
C3795 C3796 1.398 . S
C3795 C3801 1.491 . S
C3796 H3787 0.950 . S
C3796 C3795 1.398 . S
C3796 C3797 1.391 . S
C3797 H3785 0.950 . S
C3797 C3793 1.393 . S
C3797 C3796 1.391 . S
C3798 H3788 0.950 . S
C3798 C3799 1.386 . S
C3798 C3800 1.391 . S
C3799 C3798 1.386 . S
C3799 C3803 1.393 . S
C3800 H3789 0.950 . S
C3800 C3798 1.391 . S
C3800 C3801 1.400 . S
C3801 C3795 1.491 . S
C3801 C3800 1.400 . S
C3801 C3802 1.398 . S
C3802 H3790 0.950 . S
C3802 C3801 1.398 . S
C3802 C3803 1.391 . S
C3803 H3791 0.950 . S
C3803 C3799 1.393 . S
C3803 C3802 1.391 . S
H3804 C3812 0.950 . S
H3805 C3817 0.950 . S
H3806 C3814 0.950 . S
H3807 C3816 0.950 . S
H3808 C3818 0.950 . S
H3809 C3820 0.950 . S
H3810 C3822 0.950 . S
H3811 C3823 0.950 . S
C3812 H3804 0.950 . S
C3812 C3813 1.386 . S
C3812 C3814 1.391 . S
C3813 C3812 1.386 . S
C3813 C3817 1.393 . S
C3814 H3806 0.950 . S
C3814 C3812 1.391 . S
C3814 C3815 1.400 . S
C3815 C3814 1.400 . S
C3815 C3816 1.398 . S
C3815 C3821 1.491 . S
C3816 H3807 0.950 . S
C3816 C3815 1.398 . S
C3816 C3817 1.391 . S
C3817 H3805 0.950 . S
C3817 C3813 1.393 . S
C3817 C3816 1.391 . S
C3818 H3808 0.950 . S
C3818 C3819 1.386 . S
C3818 C3820 1.391 . S
C3819 C3818 1.386 . S
C3819 C3823 1.393 . S
C3820 H3809 0.950 . S
C3820 C3818 1.391 . S
C3820 C3821 1.400 . S
C3821 C3815 1.491 . S
C3821 C3820 1.400 . S
C3821 C3822 1.398 . S
C3822 H3810 0.950 . S
C3822 C3821 1.398 . S
C3822 C3823 1.391 . S
C3823 H3811 0.950 . S
C3823 C3819 1.393 . S
C3823 C3822 1.391 . S
H3824 C3832 0.950 . S
H3825 C3837 0.950 . S
H3826 C3834 0.950 . S
H3827 C3836 0.950 . S
H3828 C3838 0.950 . S
H3829 C3840 0.950 . S
H3830 C3842 0.950 . S
H3831 C3843 0.950 . S
C3832 H3824 0.950 . S
C3832 C3833 1.386 . S
C3832 C3834 1.391 1_545 S
C3833 C3832 1.386 . S
C3833 C3837 1.393 . S
C3834 H3826 0.950 . S
C3834 C3832 1.391 1_565 S
C3834 C3835 1.400 1_565 S
C3835 C3834 1.400 1_545 S
C3835 C3836 1.398 . S
C3835 C3841 1.491 1_545 S
C3836 H3827 0.950 . S
C3836 C3835 1.398 . S
C3836 C3837 1.391 . S
C3837 H3825 0.950 . S
C3837 C3833 1.393 . S
C3837 C3836 1.391 . S
C3838 H3828 0.950 . S
C3838 C3839 1.386 . S
C3838 C3840 1.391 1_565 S
C3839 C3838 1.386 . S
C3839 C3843 1.393 . S
C3840 H3829 0.950 . S
C3840 C3838 1.391 1_545 S
C3840 C3841 1.400 1_545 S
C3841 C3835 1.491 1_565 S
C3841 C3840 1.400 1_565 S
C3841 C3842 1.398 . S
C3842 H3830 0.950 . S
C3842 C3841 1.398 . S
C3842 C3843 1.391 . S
C3843 H3831 0.950 . S
C3843 C3839 1.393 . S
C3843 C3842 1.391 . S
H3844 C3852 0.950 . S
H3845 C3857 0.950 . S
H3846 C3854 0.950 . S
H3847 C3856 0.950 . S
H3848 C3858 0.950 . S
H3849 C3860 0.950 . S
H3850 C3862 0.950 . S
H3851 C3863 0.950 . S
C3852 H3844 0.950 . S
C3852 C3853 1.386 . S
C3852 C3854 1.391 . S
C3853 C3852 1.386 . S
C3853 C3857 1.393 . S
C3854 H3846 0.950 . S
C3854 C3852 1.391 . S
C3854 C3855 1.400 . S
C3855 C3854 1.400 . S
C3855 C3856 1.398 . S
C3855 C3861 1.491 . S
C3856 H3847 0.950 . S
C3856 C3855 1.398 . S
C3856 C3857 1.391 . S
C3857 H3845 0.950 . S
C3857 C3853 1.393 . S
C3857 C3856 1.391 . S
C3858 H3848 0.950 . S
C3858 C3859 1.386 . S
C3858 C3860 1.391 . S
C3859 C3858 1.386 . S
C3859 C3863 1.393 . S
C3860 H3849 0.950 . S
C3860 C3858 1.391 . S
C3860 C3861 1.400 . S
C3861 C3855 1.491 . S
C3861 C3860 1.400 . S
C3861 C3862 1.398 . S
C3862 H3850 0.950 . S
C3862 C3861 1.398 . S
C3862 C3863 1.391 . S
C3863 H3851 0.950 . S
C3863 C3859 1.393 . S
C3863 C3862 1.391 . S
H3864 C3872 0.950 . S
H3865 C3877 0.950 . S
H3866 C3874 0.950 . S
H3867 C3876 0.950 . S
H3868 C3878 0.950 . S
H3869 C3880 0.950 . S
H3870 C3882 0.950 . S
H3871 C3883 0.950 . S
C3872 H3864 0.950 . S
C3872 C3873 1.386 . S
C3872 C3874 1.391 . S
C3873 C3872 1.386 . S
C3873 C3877 1.393 . S
C3874 H3866 0.950 . S
C3874 C3872 1.391 . S
C3874 C3875 1.400 . S
C3875 C3874 1.400 . S
C3875 C3876 1.398 . S
C3875 C3881 1.491 . S
C3876 H3867 0.950 . S
C3876 C3875 1.398 . S
C3876 C3877 1.391 . S
C3877 H3865 0.950 . S
C3877 C3873 1.393 . S
C3877 C3876 1.391 . S
C3878 H3868 0.950 . S
C3878 C3879 1.386 . S
C3878 C3880 1.391 . S
C3879 C3878 1.386 . S
C3879 C3883 1.393 . S
C3880 H3869 0.950 . S
C3880 C3878 1.391 . S
C3880 C3881 1.400 . S
C3881 C3875 1.491 . S
C3881 C3880 1.400 . S
C3881 C3882 1.398 . S
C3882 H3870 0.950 . S
C3882 C3881 1.398 . S
C3882 C3883 1.391 . S
C3883 H3871 0.950 . S
C3883 C3879 1.393 . S
C3883 C3882 1.391 . S
H3884 C3892 0.950 . S
H3885 C3897 0.950 . S
H3886 C3894 0.950 . S
H3887 C3896 0.950 . S
H3888 C3898 0.950 . S
H3889 C3900 0.950 . S
H3890 C3902 0.950 . S
H3891 C3903 0.950 . S
C3892 H3884 0.950 . S
C3892 C3893 1.386 . S
C3892 C3894 1.391 . S
C3893 C3892 1.386 . S
C3893 C3897 1.393 . S
C3894 H3886 0.950 . S
C3894 C3892 1.391 . S
C3894 C3895 1.400 . S
C3895 C3894 1.400 . S
C3895 C3896 1.398 . S
C3895 C3901 1.491 . S
C3896 H3887 0.950 . S
C3896 C3895 1.398 . S
C3896 C3897 1.391 . S
C3897 H3885 0.950 . S
C3897 C3893 1.393 . S
C3897 C3896 1.391 . S
C3898 H3888 0.950 . S
C3898 C3899 1.386 . S
C3898 C3900 1.391 . S
C3899 C3898 1.386 . S
C3899 C3903 1.393 . S
C3900 H3889 0.950 . S
C3900 C3898 1.391 . S
C3900 C3901 1.400 . S
C3901 C3895 1.491 . S
C3901 C3900 1.400 . S
C3901 C3902 1.398 . S
C3902 H3890 0.950 . S
C3902 C3901 1.398 . S
C3902 C3903 1.391 . S
C3903 H3891 0.950 . S
C3903 C3899 1.393 . S
C3903 C3902 1.391 . S
H3904 C3912 0.950 . S
H3905 C3917 0.950 . S
H3906 C3914 0.950 1_556 S
H3907 C3916 0.950 . S
H3908 C3918 0.950 . S
H3909 C3920 0.950 1_554 S
H3910 C3922 0.950 . S
H3911 C3923 0.950 . S
C3912 H3904 0.950 . S
C3912 C3913 1.386 . S
C3912 C3914 1.391 . S
C3913 C3912 1.386 . S
C3913 C3917 1.393 . S
C3914 H3906 0.950 1_554 S
C3914 C3912 1.391 . S
C3914 C3915 1.400 . S
C3915 C3914 1.400 . S
C3915 C3916 1.398 . S
C3915 C3921 1.491 1_554 S
C3916 H3907 0.950 . S
C3916 C3915 1.398 . S
C3916 C3917 1.391 . S
C3917 H3905 0.950 . S
C3917 C3913 1.393 . S
C3917 C3916 1.391 . S
C3918 H3908 0.950 . S
C3918 C3919 1.386 . S
C3918 C3920 1.391 . S
C3919 C3918 1.386 . S
C3919 C3923 1.393 . S
C3920 H3909 0.950 1_556 S
C3920 C3918 1.391 . S
C3920 C3921 1.400 . S
C3921 C3915 1.491 1_556 S
C3921 C3920 1.400 . S
C3921 C3922 1.398 . S
C3922 H3910 0.950 . S
C3922 C3921 1.398 . S
C3922 C3923 1.391 . S
C3923 H3911 0.950 . S
C3923 C3919 1.393 . S
C3923 C3922 1.391 . S
H3924 C3932 0.950 . S
H3925 C3937 0.950 . S
H3926 C3934 0.950 . S
H3927 C3936 0.950 . S
H3928 C3938 0.950 . S
H3929 C3940 0.950 . S
H3930 C3942 0.950 . S
H3931 C3943 0.950 . S
C3932 H3924 0.950 . S
C3932 C3933 1.386 . S
C3932 C3934 1.391 . S
C3933 C3932 1.386 . S
C3933 C3937 1.393 . S
C3934 H3926 0.950 . S
C3934 C3932 1.391 . S
C3934 C3935 1.400 . S
C3935 C3934 1.400 . S
C3935 C3936 1.398 . S
C3935 C3941 1.491 . S
C3936 H3927 0.950 . S
C3936 C3935 1.398 . S
C3936 C3937 1.391 . S
C3937 H3925 0.950 . S
C3937 C3933 1.393 . S
C3937 C3936 1.391 . S
C3938 H3928 0.950 . S
C3938 C3939 1.386 . S
C3938 C3940 1.391 . S
C3939 C3938 1.386 . S
C3939 C3943 1.393 . S
C3940 H3929 0.950 . S
C3940 C3938 1.391 . S
C3940 C3941 1.400 . S
C3941 C3935 1.491 . S
C3941 C3940 1.400 . S
C3941 C3942 1.398 . S
C3942 H3930 0.950 . S
C3942 C3941 1.398 . S
C3942 C3943 1.391 . S
C3943 H3931 0.950 . S
C3943 C3939 1.393 . S
C3943 C3942 1.391 . S
H3944 C3952 0.950 . S
H3945 C3957 0.950 . S
H3946 C3954 0.950 . S
H3947 C3956 0.950 . S
H3948 C3958 0.950 . S
H3949 C3960 0.950 . S
H3950 C3962 0.950 . S
H3951 C3963 0.950 . S
C3952 H3944 0.950 . S
C3952 C3953 1.386 . S
C3952 C3954 1.391 . S
C3953 C3952 1.386 . S
C3953 C3957 1.393 . S
C3954 H3946 0.950 . S
C3954 C3952 1.391 . S
C3954 C3955 1.400 . S
C3955 C3954 1.400 . S
C3955 C3956 1.398 . S
C3955 C3961 1.491 . S
C3956 H3947 0.950 . S
C3956 C3955 1.398 . S
C3956 C3957 1.391 . S
C3957 H3945 0.950 . S
C3957 C3953 1.393 . S
C3957 C3956 1.391 . S
C3958 H3948 0.950 . S
C3958 C3959 1.386 . S
C3958 C3960 1.391 . S
C3959 C3958 1.386 . S
C3959 C3963 1.393 . S
C3960 H3949 0.950 . S
C3960 C3958 1.391 . S
C3960 C3961 1.400 . S
C3961 C3955 1.491 . S
C3961 C3960 1.400 . S
C3961 C3962 1.398 . S
C3962 H3950 0.950 . S
C3962 C3961 1.398 . S
C3962 C3963 1.391 . S
C3963 H3951 0.950 . S
C3963 C3959 1.393 . S
C3963 C3962 1.391 . S
H3964 C3972 0.950 . S
H3965 C3977 0.950 . S
H3966 C3974 0.950 . S
H3967 C3976 0.961 . S
H3968 C3978 0.950 . S
H3969 C3980 0.950 . S
H3970 C3982 0.961 . S
H3971 C3983 0.950 . S
C3972 H3964 0.950 . S
C3972 C3973 1.386 . S
C3972 C3974 1.391 . S
C3973 C3972 1.386 . S
C3973 C3977 1.393 . S
C3974 H3966 0.950 . S
C3974 C3972 1.391 . S
C3974 C3975 1.400 . S
C3975 C3974 1.400 . S
C3975 C3976 1.395 1_565 S
C3975 C3981 1.491 1_565 S
C3976 H3967 0.961 . S
C3976 C3975 1.395 1_545 S
C3976 C3977 1.384 1_545 S
C3977 H3965 0.950 . S
C3977 C3973 1.393 . S
C3977 C3976 1.384 1_565 S
C3978 H3968 0.950 . S
C3978 C3979 1.386 . S
C3978 C3980 1.391 . S
C3979 C3978 1.386 . S
C3979 C3983 1.393 . S
C3980 H3969 0.950 . S
C3980 C3978 1.391 . S
C3980 C3981 1.400 . S
C3981 C3975 1.491 1_545 S
C3981 C3980 1.400 . S
C3981 C3982 1.395 1_545 S
C3982 H3970 0.961 . S
C3982 C3981 1.395 1_565 S
C3982 C3983 1.384 1_565 S
C3983 H3971 0.950 . S
C3983 C3979 1.393 . S
C3983 C3982 1.384 1_545 S
C1593 C7 2.184 . S
C1599 C667 2.185 1_455 S
C1613 C1360 2.184 . S
C1619 C40 2.186 . S
C1633 C1393 2.186 . S
C1639 C73 2.184 . S
C1653 C106 2.185 1_556 S
C1659 C1426 2.186 . S
C1673 C139 2.185 . S
C1679 C1558 2.186 1_455 S
C1693 C700 2.186 . S
C1699 C172 2.186 . S
C1713 C205 2.184 . S
C1719 C1525 2.186 . S
C1733 C238 2.186 1_554 S
C1739 C535 2.185 . S
C1753 C271 2.184 . S
C1759 C502 2.186 1_545 S
C1773 C304 2.185 1_565 S
C1779 C403 2.184 . S
C1793 C436 2.186 1_565 S
C1799 C337 2.185 . S
C1813 C469 2.186 . S
C1819 C370 2.184 1_545 S
C1833 C832 2.186 1_556 S
C1839 C568 2.185 . S
C1853 C601 2.186 1_655 S
C1859 C865 2.185 . S
C1873 C898 2.184 . S
C1879 C634 2.184 . S
C1893 C733 2.184 1_655 S
C1899 C997 2.184 . S
C1913 C766 2.184 . S
C1919 C931 2.185 . S
C1933 C1459 2.185 . S
C1939 C799 2.184 . S
C1953 C1492 2.185 . S
C1959 C964 2.186 1_554 S
C1973 C1030 2.184 . S
C1979 C1327 2.186 . S
C1993 C1294 2.185 . S
C1999 C1063 2.184 . S
C2013 C1195 2.184 . S
C2019 C1096 2.186 . S
C2033 C1129 2.185 . S
C2039 C1228 2.184 . S
C2053 C1162 2.184 . S
C2059 C1261 2.186 . S
C2073 N541 1.274 . S
C2079 C18 1.202 . S
C2093 N1564 1.283 . S
C2099 C51 1.199 . S
C2113 N706 1.273 . S
C2119 C84 1.158 . S
C2133 C117 1.158 . S
C2139 N1531 1.276 . S
C2153 N1366 1.278 . S
C2159 C150 1.191 . S
C2173 C183 1.158 . S
C2179 N1399 1.276 . S
C2193 N1432 1.276 . S
C2199 C216 1.197 . S
C2213 C249 1.202 . S
C2219 N673 1.281 . S
C2233 C282 1.162 . S
C2239 N13 1.278 . S
C2253 N46 1.272 . S
C2259 C315 1.159 . S
C2273 N79 1.273 . S
C2279 C348 1.158 . S
C2293 N112 1.287 . S
C2299 C381 1.191 . S
C2313 C414 1.157 . S
C2319 N145 1.275 . S
C2333 C447 1.160 . S
C2339 N178 1.277 . S
C2353 C480 1.201 . S
C2359 N211 1.274 . S
C2373 C513 1.180 . S
C2379 N244 1.268 . S
C2393 N277 1.268 . S
C2399 C546 1.184 . S
C2413 C579 1.177 . S
C2419 N1201 1.279 . S
C2433 C612 1.200 . S
C2439 N1234 1.270 . S
C2453 N1267 1.278 . S
C2459 C645 1.162 . S
C2473 C678 1.164 . S
C2479 N508 1.278 . S
C2493 C711 1.157 . S
C2499 N343 1.275 . S
C2513 N1168 1.277 . S
C2519 C744 1.193 . S
C2533 C777 1.159 . S
C2539 N1102 1.272 . S
C2553 C810 1.158 . S
C2559 N1333 1.273 . S
C2573 C843 1.194 . S
C2579 N772 1.269 . S
C2593 C876 1.182 . S
C2599 N1498 1.268 . S
C2613 C909 1.197 . S
C2619 N739 1.283 . S
C2633 N574 1.279 . S
C2639 C942 1.178 . S
C2653 C975 1.188 . S
C2659 N607 1.268 . S
C2673 C1008 1.201 . S
C2679 N640 1.274 . S
C2693 C1041 1.175 . S
C2699 N1465 1.279 . S
C2713 N805 1.277 . S
C2719 C1074 1.161 . S
C2733 C1107 1.186 . S
C2739 N838 1.268 . S
C2753 N871 1.275 . S
C2759 C1140 1.157 . S
C2773 N904 1.276 . S
C2779 C1173 1.197 . S
C2793 N937 1.278 . S
C2799 C1206 1.185 . S
C2813 N970 1.284 . S
C2819 C1239 1.196 . S
C2833 C1272 1.192 . S
C2839 N1003 1.277 . S
C2853 C1305 1.157 . S
C2859 N1036 1.275 . S
C2873 N1069 1.270 . S
C2879 C1338 1.199 . S
C2893 C1371 1.164 . S
C2899 N409 1.270 . S
C2913 C1404 1.199 . S
C2919 N442 1.282 . S
C2933 C1437 1.187 . S
C2939 N475 1.268 . S
C2953 N1300 1.271 . S
C2959 C1470 1.201 . S
C2973 N1135 1.278 . S
C2979 C1503 1.163 . S
C2993 N376 1.290 . S
C2999 C1536 1.184 . S
C3013 C1569 1.157 . S
C3019 N310 1.274 . S
C3033 C318 1.275 . S
C3039 C21 1.272 . S
C3053 C351 1.265 . S
C3059 C54 1.282 . S
C3073 C87 1.287 . S
C3079 C384 1.261 . S
C3093 C120 1.278 . S
C3099 C285 1.271 . S
C3113 C153 1.260 . S
C3119 C516 1.288 . S
C3133 C417 1.284 . S
C3139 C186 1.264 . S
C3153 C450 1.284 . S
C3159 C219 1.264 . S
C3173 C252 1.263 . S
C3179 C483 1.285 . S
C3193 C549 1.271 . S
C3199 C615 1.276 . S
C3213 C1539 1.265 . S
C3219 C582 1.283 . S
C3233 C1572 1.284 . S
C3239 C648 1.265 . S
C3253 C1506 1.265 . S
C3259 C681 1.284 . S
C3273 C714 1.260 . S
C3279 C1473 1.288 . S
C3293 C1374 1.286 . S
C3299 C747 1.262 . S
C3313 C1440 1.269 . S
C3319 C780 1.278 . S
C3333 C1110 1.286 . S
C3339 C813 1.262 . S
C3353 C1143 1.265 . S
C3359 C846 1.283 . S
C3373 C879 1.266 . S
C3379 C1176 1.283 . S
C3393 C1077 1.284 . S
C3399 C912 1.265 . S
C3413 C1308 1.284 . S
C3419 C945 1.264 . S
C3433 C978 1.288 . S
C3439 C1209 1.260 . S
C3453 C1242 1.280 . S
C3459 C1011 1.268 . S
C3473 C1044 1.272 . S
C3479 C1275 1.275 . S
C3493 C1341 1.263 . S
C3499 C1407 1.284 . S
C3513 N860 1.452 . S
C3519 N2 1.460 . S
C3533 N35 1.455 . S
C3539 N893 1.440 . S
C3553 N794 1.440 . S
C3559 N68 1.454 . S
C3573 N827 1.441 . S
C3579 N101 1.455 . S
C3593 N992 1.457 . S
C3599 N134 1.442 . S
C3613 N1025 1.437 . S
C3619 N167 1.451 . S
C3633 N926 1.452 . S
C3639 N200 1.438 . S
C3653 N233 1.456 . S
C3659 N959 1.458 . S
C3673 N266 1.456 . S
C3679 N398 1.459 . S
C3693 N299 1.460 . S
C3699 N431 1.449 . S
C3713 N332 1.448 . S
C3719 N464 1.460 . S
C3733 N365 1.443 . S
C3739 N497 1.458 . S
C3753 N1421 1.443 . S
C3759 N530 1.435 . S
C3773 N1487 1.452 . S
C3779 N563 1.460 . S
C3793 N596 1.448 . S
C3799 N728 1.436 . S
C3813 N1322 1.441 . S
C3819 N629 1.456 . S
C3833 N662 1.436 . S
C3839 N1553 1.449 . S
C3853 N695 1.451 . S
C3859 N1355 1.437 . S
C3873 N761 1.435 . S
C3879 N1454 1.443 . S
C3893 N1058 1.450 . S
C3899 N1190 1.460 . S
C3913 N1223 1.453 . S
C3919 N1091 1.460 . S
C3933 N1256 1.442 . S
C3939 N1124 1.435 . S
C3953 N1157 1.439 . S
C3959 N1289 1.436 . S
C3973 N1388 1.443 . S
C3979 N1520 1.435 . S
