# Generated by pormake.
# Topology wmi, (6)-cn, num edge types: 1
# Building blocks:
#     Node 0, Type 0, BuildingBlock: UKALOJ_clean_sbu_0, # of connection points: 6
#     Node 1, Type 0, BuildingBlock: UKALOJ_clean_sbu_0, # of connection points: 6
#     Node 2, Type 0, BuildingBlock: UKALOJ_clean_sbu_0, # of connection points: 6
#     Node 3, Type 0, BuildingBlock: UKALOJ_clean_sbu_0, # of connection points: 6
#     Node 4, Type 0, BuildingBlock: UKALOJ_clean_sbu_0, # of connection points: 6
#     Node 5, Type 0, BuildingBlock: UKALOJ_clean_sbu_0, # of connection points: 6
#     Node 6, Type 0, BuildingBlock: UKALOJ_clean_sbu_0, # of connection points: 6
#     Node 7, Type 0, BuildingBlock: UKALOJ_clean_sbu_0, # of connection points: 6
#     Node 8, Type 0, BuildingBlock: UKALOJ_clean_sbu_0, # of connection points: 6
#     Node 9, Type 0, BuildingBlock: UKALOJ_clean_sbu_0, # of connection points: 6
#     Node 10, Type 0, BuildingBlock: UKALOJ_clean_sbu_0, # of connection points: 6
#     Node 11, Type 0, BuildingBlock: UKALOJ_clean_sbu_0, # of connection points: 6
#     Node 12, Type 0, BuildingBlock: UKALOJ_clean_sbu_0, # of connection points: 6
#     Node 13, Type 0, BuildingBlock: UKALOJ_clean_sbu_0, # of connection points: 6
#     Node 14, Type 0, BuildingBlock: UKALOJ_clean_sbu_0, # of connection points: 6
#     Node 15, Type 0, BuildingBlock: UKALOJ_clean_sbu_0, # of connection points: 6
#     Node 16, Type 0, BuildingBlock: UKALOJ_clean_sbu_0, # of connection points: 6
#     Node 17, Type 0, BuildingBlock: UKALOJ_clean_sbu_0, # of connection points: 6
#     Edge 18, Type (0, 0), BuildingBlock: KIFKEQ_clean_linker_1, # of connection points: 2
#     Edge 19, Type (0, 0), BuildingBlock: KIFKEQ_clean_linker_1, # of connection points: 2
#     Edge 20, Type (0, 0), BuildingBlock: KIFKEQ_clean_linker_1, # of connection points: 2
#     Edge 21, Type (0, 0), BuildingBlock: KIFKEQ_clean_linker_1, # of connection points: 2
#     Edge 22, Type (0, 0), BuildingBlock: KIFKEQ_clean_linker_1, # of connection points: 2
#     Edge 23, Type (0, 0), BuildingBlock: KIFKEQ_clean_linker_1, # of connection points: 2
#     Edge 24, Type (0, 0), BuildingBlock: KIFKEQ_clean_linker_1, # of connection points: 2
#     Edge 25, Type (0, 0), BuildingBlock: KIFKEQ_clean_linker_1, # of connection points: 2
#     Edge 26, Type (0, 0), BuildingBlock: KIFKEQ_clean_linker_1, # of connection points: 2
#     Edge 27, Type (0, 0), BuildingBlock: KIFKEQ_clean_linker_1, # of connection points: 2
#     Edge 28, Type (0, 0), BuildingBlock: KIFKEQ_clean_linker_1, # of connection points: 2
#     Edge 29, Type (0, 0), BuildingBlock: KIFKEQ_clean_linker_1, # of connection points: 2
#     Edge 30, Type (0, 0), BuildingBlock: KIFKEQ_clean_linker_1, # of connection points: 2
#     Edge 31, Type (0, 0), BuildingBlock: KIFKEQ_clean_linker_1, # of connection points: 2
#     Edge 32, Type (0, 0), BuildingBlock: KIFKEQ_clean_linker_1, # of connection points: 2
#     Edge 33, Type (0, 0), BuildingBlock: KIFKEQ_clean_linker_1, # of connection points: 2
#     Edge 34, Type (0, 0), BuildingBlock: KIFKEQ_clean_linker_1, # of connection points: 2
#     Edge 35, Type (0, 0), BuildingBlock: KIFKEQ_clean_linker_1, # of connection points: 2
#     Edge 36, Type (0, 0), BuildingBlock: KIFKEQ_clean_linker_1, # of connection points: 2
#     Edge 37, Type (0, 0), BuildingBlock: KIFKEQ_clean_linker_1, # of connection points: 2
#     Edge 38, Type (0, 0), BuildingBlock: KIFKEQ_clean_linker_1, # of connection points: 2
#     Edge 39, Type (0, 0), BuildingBlock: KIFKEQ_clean_linker_1, # of connection points: 2
#     Edge 40, Type (0, 0), BuildingBlock: KIFKEQ_clean_linker_1, # of connection points: 2
#     Edge 41, Type (0, 0), BuildingBlock: KIFKEQ_clean_linker_1, # of connection points: 2
#     Edge 42, Type (0, 0), BuildingBlock: KIFKEQ_clean_linker_1, # of connection points: 2
#     Edge 43, Type (0, 0), BuildingBlock: KIFKEQ_clean_linker_1, # of connection points: 2
#     Edge 44, Type (0, 0), BuildingBlock: KIFKEQ_clean_linker_1, # of connection points: 2
#     Edge 45, Type (0, 0), BuildingBlock: KIFKEQ_clean_linker_1, # of connection points: 2
#     Edge 46, Type (0, 0), BuildingBlock: KIFKEQ_clean_linker_1, # of connection points: 2
#     Edge 47, Type (0, 0), BuildingBlock: KIFKEQ_clean_linker_1, # of connection points: 2
#     Edge 48, Type (0, 0), BuildingBlock: KIFKEQ_clean_linker_1, # of connection points: 2
#     Edge 49, Type (0, 0), BuildingBlock: KIFKEQ_clean_linker_1, # of connection points: 2
#     Edge 50, Type (0, 0), BuildingBlock: KIFKEQ_clean_linker_1, # of connection points: 2
#     Edge 51, Type (0, 0), BuildingBlock: KIFKEQ_clean_linker_1, # of connection points: 2
#     Edge 52, Type (0, 0), BuildingBlock: KIFKEQ_clean_linker_1, # of connection points: 2
#     Edge 53, Type (0, 0), BuildingBlock: KIFKEQ_clean_linker_1, # of connection points: 2
#     Edge 54, Type (0, 0), BuildingBlock: KIFKEQ_clean_linker_1, # of connection points: 2
#     Edge 55, Type (0, 0), BuildingBlock: KIFKEQ_clean_linker_1, # of connection points: 2
#     Edge 56, Type (0, 0), BuildingBlock: KIFKEQ_clean_linker_1, # of connection points: 2
#     Edge 57, Type (0, 0), BuildingBlock: KIFKEQ_clean_linker_1, # of connection points: 2
#     Edge 58, Type (0, 0), BuildingBlock: KIFKEQ_clean_linker_1, # of connection points: 2
#     Edge 59, Type (0, 0), BuildingBlock: KIFKEQ_clean_linker_1, # of connection points: 2
#     Edge 60, Type (0, 0), BuildingBlock: KIFKEQ_clean_linker_1, # of connection points: 2
#     Edge 61, Type (0, 0), BuildingBlock: KIFKEQ_clean_linker_1, # of connection points: 2
#     Edge 62, Type (0, 0), BuildingBlock: KIFKEQ_clean_linker_1, # of connection points: 2
#     Edge 63, Type (0, 0), BuildingBlock: KIFKEQ_clean_linker_1, # of connection points: 2
#     Edge 64, Type (0, 0), BuildingBlock: KIFKEQ_clean_linker_1, # of connection points: 2
#     Edge 65, Type (0, 0), BuildingBlock: KIFKEQ_clean_linker_1, # of connection points: 2
#     Edge 66, Type (0, 0), BuildingBlock: KIFKEQ_clean_linker_1, # of connection points: 2
#     Edge 67, Type (0, 0), BuildingBlock: KIFKEQ_clean_linker_1, # of connection points: 2
#     Edge 68, Type (0, 0), BuildingBlock: KIFKEQ_clean_linker_1, # of connection points: 2
#     Edge 69, Type (0, 0), BuildingBlock: KIFKEQ_clean_linker_1, # of connection points: 2
#     Edge 70, Type (0, 0), BuildingBlock: KIFKEQ_clean_linker_1, # of connection points: 2
#     Edge 71, Type (0, 0), BuildingBlock: KIFKEQ_clean_linker_1, # of connection points: 2
# Relax obj value: 0.110
# Max RMSD: 0.177
# Mean RMSD: 0.177
data_MOF--net-wmi--node1-UKALOJ_clean_sbu_0--edge1-KIFKEQ_clean_linker_1
_symmetry_space_group_name_H-M    P1
_symmetry_Int_Tables_number       1
_symmetry_cell_setting            triclinic
loop_
_symmetry_equiv_pos_as_xyz
'x, y, z'
_cell_length_a     29.010048
_cell_length_b     28.978862
_cell_length_c     120.92097
_cell_angle_alpha  90.024354
_cell_angle_beta   90.002175
_cell_angle_gamma 119.98957
loop_
_atom_site_label
_atom_site_type_symbol
_atom_site_fract_x
_atom_site_fract_y
_atom_site_fract_z
_atom_type_partial_charge
Zn0 Zn 0.43935 0.0099 0.09367 0.0
O1 O 0.5183 0.06872 0.092 0.0
C2 C 0.41089 0.0898 0.0995 0.0
Zn3 Zn 0.44141 0.01914 0.11206 0.0
C4 C 0.5452 0.09068 0.10066 0.0
O5 O 0.52265 0.07874 0.1101 0.0
C6 C 0.33672 0.93493 0.1048 0.0
O7 O 0.46682 0.9633 0.11475 0.0
O8 O 0.46632 0.95596 0.09664 0.0
N9 N 0.44419 0.03532 0.1287 0.0
C10 C 0.42117 0.00363 0.13757 0.0
C11 C 0.45336 0.08389 0.143 0.0
N12 N 0.46457 0.08516 0.13215 0.0
N13 N 0.42635 0.03319 0.14661 0.0
C14 C 0.44933 0.01854 0.06765 0.0
C15 C 0.40634 0.93612 0.06344 0.0
N16 N 0.43328 0.99073 0.0772 0.0
N17 N 0.40683 0.93963 0.07452 0.0
N18 N 0.43276 0.98498 0.05885 0.0
H19 H 0.52215 0.09221 0.06584 0.0
H20 H 0.46481 0.09215 0.06005 0.0
H21 H 0.4754 0.09598 0.07486 0.0
C22 C 0.47925 0.07816 0.06708 0.0
C23 C 0.3891 0.94401 0.1372 0.0
H24 H 0.39502 0.92798 0.12936 0.0
H25 H 0.40036 0.92687 0.14418 0.0
H26 H 0.34636 0.93131 0.13818 0.0
O27 O 0.36112 0.9589 0.11354 0.0
O28 O 0.36039 0.94953 0.09556 0.0
C29 C 0.4762 0.94424 0.10613 0.0
O30 O 0.41496 0.06615 0.09102 0.0
O31 O 0.41821 0.07634 0.10906 0.0
Zn32 Zn 0.01643 0.44533 0.09325 0.0
O33 O 0.95838 0.46747 0.09105 0.0
C34 C 0.93399 0.33955 0.09949 0.0
Zn35 Zn 0.00724 0.44113 0.11171 0.0
C36 C 0.93905 0.47623 0.0997 0.0
O37 O 0.9519 0.46754 0.10923 0.0
C38 C 0.08824 0.4151 0.10529 0.0
O39 O 0.06565 0.52093 0.11402 0.0
O40 O 0.072 0.52614 0.09587 0.0
N41 N -0.00938 0.43054 0.12843 0.0
C42 C 0.02212 0.44115 0.13742 0.0
C43 C 0.94197 0.39308 0.14282 0.0
N44 N 0.94083 0.40107 0.13186 0.0
N45 N -0.00748 0.41805 0.14653 0.0
C46 C 0.00917 0.44593 0.06714 0.0
C47 C 0.08981 0.47147 0.06296 0.0
N48 N 0.03628 0.45478 0.07672 0.0
N49 N 0.08635 0.47088 0.07406 0.0
N50 N 0.04201 0.45619 0.05839 0.0
H51 H 0.94311 0.4587 0.06575 0.0
H52 H 0.93369 0.39939 0.05893 0.0
H53 H 0.92995 0.40149 0.07389 0.0
C54 C 0.95045 0.42472 0.0664 0.0
C55 C 0.08175 0.46986 0.13721 0.0
H56 H 0.09789 0.48443 0.12886 0.0
H57 H 0.09755 0.50442 0.14291 0.0
H58 H 0.0958 0.44287 0.14025 0.0
O59 O 0.06355 0.41698 0.11377 0.0
O60 O 0.07567 0.42443 0.09584 0.0
C61 C 0.08485 0.54838 0.10531 0.0
O62 O 0.95885 0.36542 0.09093 0.0
O63 O 0.94722 0.36163 0.10894 0.0
Zn64 Zn 0.58314 0.58268 0.11186 0.0
O65 O 0.50348 0.55969 0.11469 0.0
C66 C 0.6094 0.69049 0.1046 0.0
Zn67 Zn 0.57588 0.58692 0.09354 0.0
C68 C 0.47579 0.55687 0.10632 0.0
O69 O 0.49724 0.56882 0.0968 0.0
C70 C 0.68205 0.60735 0.09914 0.0
O71 O 0.54749 0.50502 0.09217 0.0
O72 O 0.55919 0.50097 0.11004 0.0
N73 N 0.56305 0.59325 0.07704 0.0
C74 C 0.57691 0.57898 0.06752 0.0
C75 C 0.53263 0.6169 0.06322 0.0
N76 N 0.5356 0.61678 0.07431 0.0
N77 N 0.55832 0.59359 0.05867 0.0
C78 C 0.58883 0.60304 0.1374 0.0
C79 C 0.6353 0.56894 0.14273 0.0
N80 N 0.59696 0.57993 0.12848 0.0
N81 N 0.62544 0.55839 0.13186 0.0
N82 N 0.61252 0.59668 0.14643 0.0
H83 H 0.53328 0.62435 0.14399 0.0
H84 H 0.59291 0.67858 0.13843 0.0
H85 H 0.54154 0.63184 0.12922 0.0
C86 C 0.56241 0.63616 0.13714 0.0
C87 C 0.60638 0.54882 0.06704 0.0
H88 H 0.60149 0.52672 0.07482 0.0
H89 H 0.59223 0.52051 0.05999 0.0
H90 H 0.64946 0.57742 0.06596 0.0
O91 O 0.65449 0.60311 0.09062 0.0
O92 O 0.66208 0.60326 0.10869 0.0
C93 C 0.54428 0.47793 0.10069 0.0
O94 O 0.60532 0.66395 0.11326 0.0
O95 O 0.60208 0.66826 0.09522 0.0
Zn96 Zn 0.01855 0.44574 0.92312 0.0
O97 O 0.96166 0.4686 0.9212 0.0
C98 C 0.93699 0.33702 0.92938 0.0
Zn99 Zn 0.0087 0.43811 0.94158 0.0
C100 C 0.93907 0.47236 0.92987 0.0
O101 O 0.94977 0.45983 0.93922 0.0
C102 C 0.09287 0.4175 0.93482 0.0
O103 O 0.06485 0.51926 0.94389 0.0
O104 O 0.07473 0.52691 0.92578 0.0
N105 N -0.01022 0.42656 0.95814 0.0
C106 C 0.017 0.44631 0.96767 0.0
C107 C 0.93762 0.38801 0.97202 0.0
N108 N 0.94049 0.39055 0.96092 0.0
N109 N 0.98501 0.42273 0.97649 0.0
C110 C 0.00451 0.42875 0.89744 0.0
C111 C 0.08452 0.4724 0.89174 0.0
N112 N 0.03535 0.45319 0.90634 0.0
N113 N 0.08503 0.48057 0.90274 0.0
N114 N 0.03447 0.43952 0.88819 0.0
H115 H 0.92866 0.40688 0.90493 0.0
H116 H 0.92794 0.40212 0.89 0.0
H117 H 0.93317 0.35377 0.89834 0.0
C118 C 0.94506 0.39634 0.89773 0.0
C119 C 0.07516 0.48635 0.96827 0.0
H120 H 0.09631 0.48303 0.96095 0.0
H121 H 0.08029 0.52694 0.96837 0.0
H122 H 0.09299 0.48092 0.97593 0.0
O123 O 0.06917 0.41866 0.94357 0.0
O124 O 0.07761 0.42524 0.9255 0.0
C125 C 0.08572 0.5479 0.93537 0.0
O126 O 0.96011 0.36507 0.92092 0.0
O127 O 0.95147 0.35744 0.93893 0.0
Zn128 Zn 0.58563 0.58776 0.92314 0.0
O129 O 0.56308 0.50712 0.92125 0.0
C130 C 0.69192 0.61328 0.93018 0.0
Zn131 Zn 0.58895 0.58475 0.94164 0.0
C132 C 0.55454 0.48051 0.93011 0.0
O133 O 0.56407 0.50381 0.93944 0.0
C134 C 0.61354 0.69044 0.93487 0.0
O135 O 0.50864 0.56261 0.94344 0.0
O136 O 0.50417 0.56275 0.92524 0.0
N137 N 0.59827 0.5771 0.95825 0.0
C138 C 0.57765 0.58512 0.96758 0.0
C139 C 0.63527 0.56392 0.97247 0.0
N140 N 0.63386 0.56376 0.96135 0.0
N141 N 0.6003 0.57706 0.9766 0.0
C142 C 0.60536 0.59116 0.89759 0.0
C143 C 0.56264 0.62815 0.89165 0.0
N144 N 0.5802 0.59754 0.90636 0.0
N145 N 0.55342 0.62023 0.9026 0.0
N146 N 0.59562 0.61076 0.88827 0.0
H147 H 0.62553 0.53616 0.90523 0.0
H148 H 0.63269 0.54127 0.89034 0.0
H149 H 0.67985 0.594 0.89904 0.0
C150 C 0.63738 0.56367 0.8981 0.0
C151 C 0.53776 0.60352 0.9678 0.0
H152 H 0.54297 0.62902 0.96054 0.0
H153 H 0.49716 0.5682 0.96745 0.0
H154 H 0.54141 0.62583 0.97552 0.0
O155 O 0.61098 0.66472 0.94357 0.0
O156 O 0.60602 0.66799 0.92548 0.0
C157 C 0.48155 0.55398 0.93464 0.0
O158 O 0.66623 0.61026 0.92146 0.0
O159 O 0.66908 0.60546 0.9395 0.0
Zn160 Zn 0.44804 0.02089 0.94196 0.0
O161 O 0.47411 0.9657 0.94271 0.0
C162 C 0.34121 0.93657 0.93646 0.0
Zn163 Zn 0.44004 0.01108 0.92361 0.0
C164 C 0.47761 0.94309 0.93401 0.0
O165 O 0.46343 0.95281 0.92473 0.0
C166 C 0.4155 0.0928 0.93178 0.0
O167 O 0.51992 0.06774 0.92057 0.0
O168 O 0.52708 0.08033 0.93853 0.0
N169 N 0.42443 -0.00358 0.90698 0.0
C170 C 0.43259 0.02885 0.89827 0.0
C171 C 0.38362 0.94906 0.89264 0.0
N172 N 0.39435 0.94689 0.90341 0.0
N173 N 0.40732 4e-05 0.8892 0.0
C174 C 0.44586 0.01045 0.96792 0.0
C175 C 0.50586 0.08915 0.97234 0.0
N176 N 0.4642 0.03842 0.95845 0.0
N177 N 0.5014 0.08726 0.96125 0.0
N178 N 0.47135 0.04151 0.97673 0.0
H179 H 0.40929 0.93125 0.96115 0.0
H180 H 0.41013 0.93413 0.97612 0.0
H181 H 0.36506 0.94756 0.96838 0.0
C182 C 0.40546 0.95233 0.96844 0.0
C183 C 0.46083 0.08848 0.89882 0.0
H184 H 0.49169 0.1056 0.89229 0.0
H185 H 0.43193 0.10217 0.8972 0.0
H186 H 0.48016 0.10373 0.90692 0.0
O187 O 0.41824 0.07054 0.92296 0.0
O188 O 0.42384 0.07748 0.94101 0.0
C189 C 0.54818 0.09103 0.92899 0.0
O190 O 0.36896 0.9596 0.94499 0.0
O191 O 0.36114 0.95265 0.92692 0.0
Zn192 Zn 0.10885 0.35668 0.44496 0.0
O193 O 0.13401 0.30091 0.44767 0.0
C194 C 0.00299 0.27249 0.43848 0.0
Zn195 Zn 0.10486 0.34487 0.42657 0.0
C196 C 0.14126 0.27975 0.43914 0.0
O197 O 0.12993 0.28977 0.42961 0.0
C198 C 0.07908 0.42706 0.43217 0.0
O199 O 0.18454 0.40218 0.42443 0.0
O200 O 0.18984 0.41554 0.44244 0.0
N201 N 0.09512 0.32342 0.41014 0.0
C202 C 0.11337 0.34955 0.40046 0.0
C203 C 0.05889 0.26822 0.39659 0.0
N204 N 0.06155 0.27291 0.40767 0.0
N205 N 0.09117 0.31566 0.39184 0.0
C206 C 0.09295 0.34376 0.47065 0.0
C207 C 0.12538 0.42442 0.47581 0.0
N208 N 0.11405 0.37464 0.4616 0.0
N209 N 0.13458 0.42475 0.46487 0.0
N210 N 0.09955 0.37408 0.47966 0.0
H211 H 0.07567 0.26797 0.47721 0.0
H212 H 0.01905 0.27096 0.47233 0.0
H213 H 0.06444 0.26735 0.46257 0.0
C214 C 0.06138 0.28408 0.47057 0.0
C215 C 0.15052 0.4083 0.39948 0.0
H216 H 0.19187 0.41587 0.39878 0.0
H217 H 0.14142 0.42419 0.39195 0.0
H218 H 0.14805 0.42947 0.40689 0.0
O219 O 0.08271 0.40256 0.42379 0.0
O220 O 0.0859 0.41395 0.44181 0.0
C221 C 0.21194 0.42569 0.43295 0.0
O222 O 0.02887 0.2972 0.44703 0.0
O223 O 0.02523 0.28603 0.42908 0.0
Zn224 Zn 0.68231 0.78563 0.42642 0.0
O225 O 0.62455 0.80815 0.42552 0.0
C226 C 0.60062 0.67867 0.43172 0.0
Zn227 Zn 0.67591 0.77728 0.44482 0.0
C228 C 0.60619 0.81494 0.43452 0.0
O229 O 0.62012 0.80421 0.44372 0.0
C230 C 0.75586 0.75301 0.43657 0.0
O231 O 0.73474 0.85671 0.44791 0.0
O232 O 0.73794 0.86551 0.42982 0.0
N233 N 0.66093 0.76207 0.46145 0.0
C234 C 0.69313 0.7699 0.47018 0.0
C235 C 0.61322 0.72356 0.47588 0.0
N236 N 0.61133 0.7336 0.46506 0.0
N237 N 0.6641 0.74614 0.47931 0.0
C238 C 0.67316 0.78635 0.40041 0.0
C239 C 0.75527 0.83357 0.39626 0.0
N240 N 0.70089 0.80069 0.40997 0.0
N241 N 0.7518 0.82997 0.40734 0.0
N242 N 0.7066 0.80643 0.39162 0.0
H243 H 0.59558 0.75756 0.4077 0.0
H244 H 0.59866 0.76881 0.39294 0.0
H245 H 0.60095 0.71216 0.39849 0.0
C246 C 0.61363 0.75472 0.39986 0.0
C247 C 0.75259 0.79612 0.46961 0.0
H248 H 0.77076 0.82659 0.47622 0.0
H249 H 0.76459 0.76582 0.47112 0.0
H250 H 0.76829 0.81544 0.46154 0.0
O251 O 0.73282 0.75263 0.44551 0.0
O252 O 0.74139 0.76457 0.42759 0.0
C253 C 0.75227 0.88595 0.43937 0.0
O254 O 0.62452 0.70663 0.4233 0.0
O255 O 0.6152 0.69836 0.44135 0.0
Zn256 Zn 0.24727 0.92403 0.42661 0.0
O257 O 0.22529 0.84426 0.42455 0.0
C258 C 0.35296 0.9497 0.43396 0.0
Zn259 Zn 0.24887 0.91927 0.44508 0.0
C260 C 0.21837 0.81644 0.43317 0.0
O261 O 0.22735 0.83821 0.4427 0.0
C262 C 0.27317 0.02569 0.4383 0.0
O263 O 0.16788 0.89422 0.44663 0.0
O264 O 0.16605 0.89883 0.42848 0.0
N265 N 0.257 0.91347 0.46189 0.0
C266 C 0.24883 0.93809 0.47053 0.0
C267 C 0.28733 0.89739 0.47681 0.0
N268 N 0.28065 0.88797 0.46584 0.0
N269 N 0.26822 0.92925 0.47998 0.0
C270 C 0.25047 0.91682 0.40052 0.0
C271 C 0.22549 0.9722 0.39611 0.0
N272 N 0.24058 0.93485 0.41002 0.0
N273 N 0.22483 0.96899 0.40721 0.0
N274 N 0.24125 0.93975 0.39169 0.0
H275 H 0.29456 0.88222 0.40752 0.0
H276 H 0.23745 0.83776 0.39939 0.0
H277 H 0.29685 0.88707 0.39254 0.0
C278 C 0.27149 0.87908 0.39996 0.0
C279 C 0.21965 0.96849 0.46976 0.0
H280 H 0.1913 0.95429 0.46277 0.0
H281 H 0.19776 0.96463 0.47755 0.0
H282 H 0.24862 0.01117 0.4684 0.0
O283 O 0.26879 -0.00057 0.44701 0.0
O284 O 0.26752 0.00361 0.42896 0.0
C285 C 0.14201 0.88735 0.43773 0.0
O286 O 0.32828 0.94653 0.42505 0.0
O287 O 0.32915 0.94216 0.44317 0.0
Zn288 Zn 0.68247 0.7802 0.25623 0.0
O289 O 0.62408 0.80094 0.25373 0.0
C290 C 0.60412 0.67354 0.26426 0.0
Zn291 Zn 0.67554 0.77903 0.27467 0.0
C292 C 0.60221 0.80659 0.26231 0.0
O293 O 0.61481 0.7975 0.27179 0.0
C294 C 0.76026 0.75864 0.26859 0.0
O295 O 0.72982 0.86084 0.27568 0.0
O296 O 0.73799 0.86252 0.25754 0.0
N297 N 0.65804 0.77342 0.2912 0.0
C298 C 0.68625 0.7892 0.3007 0.0
C299 C 0.60406 0.74821 0.30503 0.0
N300 N 0.6071 0.74795 0.29396 0.0
N301 N 0.65306 0.7737 0.30957 0.0
C302 C 0.66445 0.75487 0.23091 0.0
C303 C 0.74317 0.80013 0.22454 0.0
N304 N 0.69654 0.78193 0.23948 0.0
N305 N 0.74537 0.81017 0.23547 0.0
N306 N 0.69287 0.76517 0.22144 0.0
H307 H 0.5893 0.7328 0.23877 0.0
H308 H 0.58584 0.72257 0.22398 0.0
H309 H 0.59499 0.67875 0.23308 0.0
C310 C 0.60519 0.72058 0.23174 0.0
C311 C 0.74579 0.82129 0.30112 0.0
H312 H 0.76238 0.84163 0.29315 0.0
H313 H 0.75903 0.85128 0.30785 0.0
H314 H 0.7618 0.79425 0.30269 0.0
O315 O 0.73755 0.76261 0.27724 0.0
O316 O 0.74326 0.76223 0.25912 0.0
C317 C 0.74958 0.88669 0.2668 0.0
O318 O 0.62486 0.69823 0.25532 0.0
O319 O 0.62029 0.69793 0.27339 0.0
Zn320 Zn 0.25162 0.92471 0.25641 0.0
O321 O 0.22993 0.84467 0.25479 0.0
C322 C 0.35888 0.95197 0.26294 0.0
Zn323 Zn 0.25711 0.92456 0.2749 0.0
C324 C 0.22216 0.81898 0.26374 0.0
O325 O 0.23208 0.84316 0.27297 0.0
C326 C 0.27998 0.02887 0.26762 0.0
O327 O 0.17689 0.90242 0.27711 0.0
O328 O 0.17037 0.89919 0.25892 0.0
N329 N 0.26858 0.91788 0.29147 0.0
C330 C 0.24969 0.92639 0.30099 0.0
C331 C 0.30658 0.9033 0.30532 0.0
N332 N 0.30368 0.90334 0.29422 0.0
N333 N 0.27298 0.91743 0.3098 0.0
C334 C 0.26826 0.92504 0.23083 0.0
C335 C 0.2239 0.96019 0.22482 0.0
N336 N 0.24391 0.93229 0.23963 0.0
N337 N 0.21607 0.95381 0.23584 0.0
N338 N 0.25697 0.94291 0.22145 0.0
H339 H 0.291 0.8723 0.23866 0.0
H340 H 0.2954 0.87476 0.22372 0.0
H341 H 0.34356 0.92938 0.23186 0.0
C342 C 0.30112 0.89845 0.23133 0.0
C343 C 0.2108 0.94597 0.30161 0.0
H344 H 0.16984 0.91117 0.30173 0.0
H345 H 0.21691 0.96952 0.30926 0.0
H346 H 0.21467 0.97057 0.29426 0.0
O347 O 0.27928 0.00522 0.27653 0.0
O348 O 0.27119 0.00439 0.25845 0.0
C349 C 0.1488 0.892 0.26841 0.0
O350 O 0.33211 0.94787 0.25433 0.0
O351 O 0.33714 0.94521 0.27236 0.0
Zn352 Zn 0.11102 0.355 0.27491 0.0
O353 O 0.133 0.2968 0.27627 0.0
C354 C 0.00667 0.27491 0.26739 0.0
Zn355 Zn 0.11021 0.35365 0.25638 0.0
C356 C 0.14383 0.28134 0.26731 0.0
O357 O 0.13678 0.29789 0.25805 0.0
C358 C 0.08264 0.4314 0.26418 0.0
O359 O 0.19009 0.4131 0.25487 0.0
O360 O 0.19232 0.41164 0.27305 0.0
N361 N 0.10218 0.34165 0.23948 0.0
C362 C 0.10762 0.37426 0.23098 0.0
C363 C 0.07596 0.29612 0.22436 0.0
N364 N 0.08275 0.29319 0.23531 0.0
N365 N 0.0908 0.34651 0.22139 0.0
C366 C 0.10856 0.34095 0.30094 0.0
C367 C 0.13348 0.42067 0.3059 0.0
N368 N 0.1182 0.37013 0.29163 0.0
N369 N 0.13392 0.41961 0.29479 0.0
N370 N 0.1179 0.3719 0.30999 0.0
H371 H 0.12191 0.27501 0.30141 0.0
H372 H 0.06273 0.26377 0.30854 0.0
H373 H 0.06441 0.26314 0.29353 0.0
C374 C 0.08775 0.28216 0.30111 0.0
C375 C 0.13187 0.43342 0.23203 0.0
H376 H 0.1597 0.44888 0.23912 0.0
H377 H 0.15338 0.45362 0.22435 0.0
H378 H 0.09989 0.44304 0.23345 0.0
O379 O 0.08586 0.4107 0.25518 0.0
O380 O 0.09052 0.41449 0.27325 0.0
C381 C 0.21616 0.42847 0.26385 0.0
O382 O 0.03042 0.29631 0.2764 0.0
O383 O 0.03089 0.2924 0.25825 0.0
Zn384 Zn 0.78469 0.68209 0.75986 0.0
O385 O 0.86487 0.73855 0.75897 0.0
C386 C 0.75888 0.76452 0.7652 0.0
Zn387 Zn 0.78399 0.69096 0.77824 0.0
C388 C 0.89037 0.76059 0.76776 0.0
O389 O 0.86597 0.74991 0.777 0.0
C390 C 0.67951 0.60832 0.7701 0.0
O391 O 0.8081 0.63441 0.78123 0.0
O392 O 0.80796 0.62569 0.76317 0.0
N393 N 0.78331 0.70554 0.79493 0.0
C394 C 0.75628 0.67298 0.80344 0.0
C395 C 0.79615 0.75229 0.8097 0.0
N396 N 0.80819 0.75476 0.79886 0.0
N397 N 0.76316 0.70144 0.81279 0.0
C398 C 0.794 0.69165 0.73384 0.0
C399 C 0.76139 0.6098 0.7296 0.0
N400 N 0.7813 0.66372 0.74338 0.0
N401 N 0.76112 0.61297 0.74068 0.0
N402 N 0.78164 0.65852 0.72502 0.0
H403 H 0.84262 0.76939 0.74108 0.0
H404 H 0.84832 0.7668 0.72622 0.0
H405 H 0.78975 0.76286 0.73236 0.0
C406 C 0.82056 0.75116 0.73334 0.0
C407 C 0.72539 0.61338 0.80268 0.0
H408 H 0.74016 0.5987 0.79589 0.0
H409 H 0.72782 0.59523 0.81058 0.0
H410 H 0.68308 0.60027 0.80102 0.0
O411 O 0.70304 0.63099 0.77901 0.0
O412 O 0.70445 0.62369 0.76101 0.0
C413 C 0.81709 0.61426 0.77276 0.0
O414 O 0.76458 0.7413 0.75682 0.0
O415 O 0.76261 0.74937 0.77487 0.0
Zn416 Zn 0.35956 0.11727 0.76107 0.0
O417 O 0.30154 0.13898 0.75853 0.0
C418 C 0.27873 0.01046 0.7678 0.0
Zn419 Zn 0.3483 0.11398 0.77947 0.0
C420 C 0.27765 0.14364 0.76689 0.0
O421 O 0.28811 0.13345 0.77652 0.0
C422 C 0.43359 0.0922 0.77359 0.0
O423 O 0.40286 0.19591 0.78125 0.0
O424 O 0.41472 0.19823 0.76322 0.0
N425 N 0.33089 0.10505 0.79616 0.0
C426 C 0.36174 0.11305 0.80513 0.0
C427 C 0.28142 0.07445 0.8107 0.0
N428 N 0.28099 0.08138 0.79968 0.0
N429 N 0.33164 0.09353 0.81434 0.0
C430 C 0.35141 0.11617 0.73504 0.0
C431 C 0.43051 0.13642 0.73064 0.0
N432 N 0.37878 0.12394 0.74455 0.0
N433 N 0.42788 0.13663 0.74175 0.0
N434 N 0.38311 0.12384 0.72621 0.0
H435 H 0.27199 0.07263 0.74164 0.0
H436 H 0.28823 0.13369 0.73466 0.0
H437 H 0.27554 0.07601 0.72668 0.0
C438 C 0.29329 0.0982 0.73446 0.0
C439 C 0.42128 0.14185 0.80493 0.0
H440 H 0.43714 0.16933 0.79779 0.0
H441 H 0.43764 0.16457 0.81271 0.0
H442 H 0.43457 0.11225 0.80423 0.0
O443 O 0.40958 0.09628 0.78198 0.0
O444 O 0.419 0.09726 0.76399 0.0
C445 C 0.42425 0.22209 0.77248 0.0
O446 O 0.30212 0.03684 0.75918 0.0
O447 O 0.29239 0.03267 0.77723 0.0
Zn448 Zn 0.93018 0.25806 0.77842 0.0
O449 O 0.85003 0.23448 0.78126 0.0
C450 C 0.95553 0.3658 0.77175 0.0
Zn451 Zn 0.9209 0.26269 0.76015 0.0
C452 C 0.82171 0.23188 0.773 0.0
O453 O 0.84253 0.24433 0.76344 0.0
C454 C 0.02792 0.28343 0.76538 0.0
O455 O 0.89291 0.18096 0.75833 0.0
O456 O 0.90636 0.17642 0.77613 0.0
N457 N 0.9095 0.27218 0.74371 0.0
C458 C 0.91419 0.25081 0.73415 0.0
C459 C 0.89506 0.31076 0.72995 0.0
N460 N 0.89739 0.30919 0.74104 0.0
N461 N 0.90529 0.27444 0.72541 0.0
C462 C 0.93494 0.27645 0.80405 0.0
C463 C 0.98424 0.24534 0.80922 0.0
N464 N 0.94393 0.25426 0.79506 0.0
N465 N 0.9742 0.23459 0.79835 0.0
N466 N 0.95988 0.27141 0.81301 0.0
H467 H 0.88756 0.3052 0.79583 0.0
H468 H 0.87488 0.29188 0.81035 0.0
H469 H 0.93475 0.34972 0.80598 0.0
C470 C 0.90629 0.30748 0.80392 0.0
C471 C 0.93011 0.2091 0.73339 0.0
H472 H 0.95491 0.21149 0.74058 0.0
H473 H 0.89369 0.16923 0.73339 0.0
H474 H 0.95223 0.21346 0.72561 0.0
O475 O -0.00107 0.27905 0.75712 0.0
O476 O 0.00965 0.27933 0.77511 0.0
C477 C 0.89085 0.15368 0.76675 0.0
O478 O 0.95224 0.33895 0.78029 0.0
O479 O 0.94727 0.34388 0.76233 0.0
Zn480 Zn 0.34076 0.10891 0.60898 0.0
O481 O 0.39867 0.1898 0.61001 0.0
C482 C 0.42091 0.0846 0.60185 0.0
Zn483 Zn 0.3435 0.11042 0.59045 0.0
C484 C 0.4153 0.21592 0.60105 0.0
O485 O 0.39972 0.19218 0.59179 0.0
C486 C 0.26503 0.00445 0.59841 0.0
O487 O 0.28502 0.13188 0.58861 0.0
O488 O 0.28384 0.13298 0.60678 0.0
N489 N 0.35597 0.11272 0.57361 0.0
C490 C 0.32314 0.08667 0.56506 0.0
C491 C 0.40192 0.12866 0.55862 0.0
N492 N 0.40486 0.13898 0.56955 0.0
N493 N 0.35109 0.09546 0.55557 0.0
C494 C 0.35524 0.11787 0.63502 0.0
C495 C 0.27388 0.08203 0.63985 0.0
N496 N 0.32573 0.10366 0.62568 0.0
N497 N 0.2753 0.08137 0.62875 0.0
N498 N 0.32343 0.10462 0.64409 0.0
H499 H 0.43129 0.1665 0.62711 0.0
H500 H 0.43074 0.17622 0.64189 0.0
H501 H 0.42822 0.11707 0.63641 0.0
C502 C 0.41484 0.14644 0.63511 0.0
C503 C 0.26374 0.0549 0.56595 0.0
H504 H 0.24919 0.06714 0.5732 0.0
H505 H 0.24503 0.05939 0.55832 0.0
H506 H 0.25139 0.01234 0.5669 0.0
O507 O 0.28597 0.02949 0.58952 0.0
O508 O 0.2814 0.02821 0.60761 0.0
C509 C 0.26827 0.14122 0.59755 0.0
O510 O 0.39967 0.08759 0.61082 0.0
O511 O 0.40365 0.09122 0.59267 0.0
Zn512 Zn 0.91544 0.25585 0.58962 0.0
O513 O 0.89445 0.1761 0.58723 0.0
C514 C 0.01964 0.28068 0.598 0.0
Zn515 Zn 0.91431 0.25189 0.60812 0.0
C516 C 0.88254 0.14847 0.596 0.0
O517 O 0.88889 0.17084 0.60536 0.0
C518 C 0.9399 0.35764 0.60172 0.0
O519 O 0.83456 0.23067 0.609 0.0
O520 O 0.83298 0.22973 0.59077 0.0
N521 N 0.91782 0.23919 0.62474 0.0
C522 C 0.90422 0.25441 0.63417 0.0
C523 C 0.93713 0.20582 0.63871 0.0
N524 N 0.93825 0.2091 0.62763 0.0
N525 N 0.91608 0.23391 0.64312 0.0
C526 C 0.94211 0.2634 0.5643 0.0
C527 C 0.89666 0.29645 0.55782 0.0
N528 N 0.91452 0.26807 0.57281 0.0
N529 N 0.88619 0.28843 0.56873 0.0
N530 N 0.93201 0.28149 0.5548 0.0
H531 H 0.96401 0.21035 0.57223 0.0
H532 H 0.97534 0.21767 0.55747 0.0
H533 H 0.01825 0.27049 0.56672 0.0
C534 C 0.97664 0.23871 0.56524 0.0
C535 C 0.87749 0.28722 0.63445 0.0
H536 H 0.85731 0.28451 0.62651 0.0
H537 H 0.84812 0.2741 0.64129 0.0
H538 H 0.90798 0.32961 0.63577 0.0
O539 O 0.9367 0.33215 0.61051 0.0
O540 O 0.93396 0.33513 0.59237 0.0
C541 C 0.80893 0.22166 0.59999 0.0
O542 O -0.00312 0.27949 0.58895 0.0
O543 O -0.00601 0.27155 0.60699 0.0
Zn544 Zn 0.77338 0.68855 0.60798 0.0
O545 O 0.79942 0.63317 0.60988 0.0
C546 C 0.66931 0.60475 0.60071 0.0
Zn547 Zn 0.77185 0.68192 0.58951 0.0
C548 C 0.80769 0.61385 0.60117 0.0
O549 O 0.79757 0.62604 0.59172 0.0
C550 C 0.74288 0.76089 0.59641 0.0
O551 O 0.85158 0.73986 0.588 0.0
O552 O 0.85356 0.74873 0.6061 0.0
N553 N 0.7645 0.66801 0.57271 0.0
C554 C 0.7715 0.70013 0.56401 0.0
C555 C 0.73832 0.62117 0.55775 0.0
N556 N 0.74415 0.61902 0.56876 0.0
N557 N 0.75474 0.67158 0.55453 0.0
C558 C 0.77375 0.67733 0.63394 0.0
C559 C 0.78841 0.75428 0.63879 0.0
N560 N 0.77887 0.70499 0.6246 0.0
N561 N 0.78811 0.75276 0.62768 0.0
N562 N 0.77961 0.7075 0.64294 0.0
H563 H 0.73393 0.59814 0.62714 0.0
H564 H 0.79747 0.61855 0.63341 0.0
H565 H 0.74049 0.60098 0.64208 0.0
C566 C 0.76025 0.62027 0.63419 0.0
C567 C 0.79708 0.75953 0.56478 0.0
H568 H 0.82431 0.77519 0.57195 0.0
H569 H 0.8195 0.77857 0.5571 0.0
H570 H 0.76577 0.77034 0.56584 0.0
O571 O 0.74851 0.73986 0.58769 0.0
O572 O 0.74897 0.74476 0.60575 0.0
C573 C 0.87728 0.76116 0.59681 0.0
O574 O 0.69394 0.62709 0.60957 0.0
O575 O 0.69238 0.62167 0.59144 0.0
H576 H 0.46748 0.87279 0.12199 0.0
H577 H 0.55168 0.95156 0.09216 0.0
H578 H 0.51381 0.82169 0.12235 0.0
H579 H 0.60064 0.90398 0.09287 0.0
H580 H 0.61422 0.74625 0.12334 0.0
H581 H 0.59244 0.81722 0.12462 0.0
H582 H 0.58206 0.81872 0.08894 0.0
H583 H 0.60617 0.75049 0.08769 0.0
C584 C 0.49641 0.87951 0.11561 0.0
C585 C 0.50503 0.91472 0.10688 0.0
C586 C 0.52353 0.8509 0.11587 0.0
C587 C 0.56069 0.85821 0.10755 0.0
C588 C 0.57126 0.89601 0.09922 0.0
C589 C 0.54319 0.92331 0.0988 0.0
C590 C 0.60892 0.76305 0.11578 0.0
C591 C 0.61106 0.74213 0.10542 0.0
C592 C 0.59576 0.80326 0.11651 0.0
C593 C 0.58427 0.82302 0.10691 0.0
C594 C 0.59094 0.80505 0.09654 0.0
C595 C 0.60465 0.76549 0.09581 0.0
H596 H 0.27949 0.88292 0.12329 0.0
H597 H 0.27905 0.87264 0.08762 0.0
H598 H 0.20861 0.79003 0.1242 0.0
H599 H 0.21102 0.78023 0.08851 0.0
H600 H 0.07866 0.61666 0.09118 0.0
H601 H 0.12541 0.7132 0.09212 0.0
H602 H 0.20644 0.70786 0.12175 0.0
H603 H 0.15614 0.61047 0.12116 0.0
C604 C 0.26358 0.86121 0.11565 0.0
C605 C 0.28555 0.88472 0.1054 0.0
C606 C 0.22342 0.80784 0.11617 0.0
C607 C 0.20489 0.77721 0.10646 0.0
C608 C 0.22382 0.80237 0.09618 0.0
C609 C 0.2633 0.8556 0.09566 0.0
C610 C 0.1066 0.63627 0.09788 0.0
C611 C 0.11507 0.60659 0.10595 0.0
C612 C 0.13329 0.69157 0.09844 0.0
C613 C 0.17032 0.7185 0.10691 0.0
C614 C 0.17771 0.68851 0.11518 0.0
C615 C 0.14969 0.63286 0.11477 0.0
H616 H 0.14476 0.39936 0.08921 0.0
H617 H 0.14541 0.43037 0.12419 0.0
H618 H 0.23865 0.42608 0.09019 0.0
H619 H 0.23963 0.45956 0.12507 0.0
H620 H 0.41185 0.49638 0.12323 0.0
H621 H 0.31471 0.44677 0.12348 0.0
H622 H 0.31241 0.5148 0.0918 0.0
H623 H 0.40898 0.56258 0.09139 0.0
C624 C 0.16464 0.41066 0.09716 0.0
C625 C 0.13818 0.41412 0.10656 0.0
C626 C 0.21853 0.42658 0.0977 0.0
C627 C 0.24695 0.44688 0.10761 0.0
C628 C 0.21902 0.44452 0.11728 0.0
C629 C 0.16489 0.4278 0.11677 0.0
C630 C 0.39043 0.50107 0.11639 0.0
C631 C 0.41783 0.53327 0.10728 0.0
C632 C 0.33487 0.47245 0.1165 0.0
C633 C 0.30586 0.47594 0.10755 0.0
C634 C 0.33351 0.50976 0.09865 0.0
C635 C 0.38887 0.53785 0.09849 0.0
H636 H 0.93828 0.53678 0.91362 0.0
H637 H 0.86756 0.4669 0.94512 0.0
H638 H 0.89153 0.58695 0.91367 0.0
H639 H 0.81877 0.51494 0.94495 0.0
H640 H 0.75968 0.62607 0.94709 0.0
H641 H 0.82798 0.6007 0.94676 0.0
H642 H 0.80528 0.57364 0.9115 0.0
H643 H 0.73961 0.60164 0.91179 0.0
C644 C 0.91192 0.53141 0.92045 0.0
C645 C 0.90612 0.49768 0.92933 0.0
C646 C 0.88534 0.56035 0.92051 0.0
C647 C 0.85184 0.55548 0.92937 0.0
C648 C 0.84543 0.52088 0.93814 0.0
C649 C 0.87265 0.49262 0.93817 0.0
C650 C 0.7706 0.61639 0.93922 0.0
C651 C 0.74319 0.61443 0.92949 0.0
C652 C 0.80925 0.60121 0.93904 0.0
C653 C 0.82067 0.58327 0.92917 0.0
C654 C 0.79738 0.58695 0.91927 0.0
C655 C 0.75937 0.6029 0.91943 0.0
H656 H 0.40775 0.14381 0.91338 0.0
H657 H 0.42244 0.15624 0.94898 0.0
H658 H 0.43127 0.2371 0.91234 0.0
H659 H 0.44836 0.24913 0.94794 0.0
H660 H 0.48253 0.41418 0.9449 0.0
H661 H 0.43185 0.31764 0.94445 0.0
H662 H 0.51221 0.31842 0.91423 0.0
H663 H 0.56028 0.41584 0.91434 0.0
C664 C 0.41486 0.16608 0.92099 0.0
C665 C 0.41425 0.14297 0.93125 0.0
C666 C 0.42901 0.21972 0.92039 0.0
C667 C 0.44308 0.25112 0.93002 0.0
C668 C 0.4376 0.22644 0.94033 0.0
C669 C 0.42286 0.17288 0.94094 0.0
C670 C 0.48941 0.39361 0.93818 0.0
C671 C 0.52613 0.42211 0.92979 0.0
C672 C 0.46027 0.33825 0.9379 0.0
C673 C 0.46828 0.30999 0.92939 0.0
C674 C 0.50437 0.33877 0.92084 0.0
C675 C 0.53256 0.39447 0.92097 0.0
H676 H 0.61175 0.09583 0.91184 0.0
H677 H 0.6157 0.16141 0.94416 0.0
H678 H 0.70889 0.14316 0.91149 0.0
H679 H 0.71226 0.2101 0.94366 0.0
H680 H 0.88118 0.26426 0.9455 0.0
H681 H 0.78714 0.19719 0.94477 0.0
H682 H 0.78345 0.23061 0.91005 0.0
H683 H 0.87739 0.29544 0.9107 0.0
C684 C 0.6334 0.12114 0.91877 0.0
C685 C 0.60627 0.12508 0.92802 0.0
C686 C 0.689 0.14798 0.9186 0.0
C687 C 0.71838 0.17963 0.92764 0.0
C688 C 0.69096 0.18471 0.93672 0.0
C689 C 0.63558 0.1575 0.93693 0.0
C690 C 0.86068 0.25598 0.93763 0.0
C691 C 0.88652 0.28615 0.9282 0.0
C692 C 0.80663 0.21801 0.93724 0.0
C693 C 0.77738 0.20997 0.92745 0.0
C694 C 0.8046 0.23594 0.91775 0.0
C695 C 0.85875 0.27337 0.91812 0.0
H696 H 0.28275 0.08549 0.45672 0.0
H697 H 0.26544 0.08184 0.42118 0.0
H698 H 0.26131 0.1568 0.4578 0.0
H699 H 0.24238 0.15078 0.42225 0.0
H700 H 0.13457 0.21094 0.45539 0.0
H701 H 0.18118 0.16008 0.45589 0.0
H702 H 0.26402 0.23776 0.42573 0.0
H703 H 0.21481 0.28507 0.42491 0.0
C704 C 0.27515 0.10037 0.44915 0.0
C705 C 0.27446 0.07711 0.43891 0.0
C706 C 0.26251 0.14095 0.44977 0.0
C707 C 0.249 0.15882 0.44015 0.0
C708 C 0.25291 0.13854 0.42985 0.0
C709 C 0.26596 0.09855 0.42923 0.0
C710 C 0.16266 0.21666 0.44889 0.0
C711 C 0.17004 0.25033 0.43994 0.0
C712 C 0.18995 0.18827 0.44923 0.0
C713 C 0.22597 0.19435 0.44076 0.0
C714 C 0.23548 0.23083 0.43221 0.0
C715 C 0.20724 0.25786 0.43172 0.0
H716 H 0.9511 0.22056 0.45744 0.0
H717 H 0.94044 0.21008 0.42178 0.0
H718 H 0.88078 0.12755 0.45878 0.0
H719 H 0.87265 0.11758 0.42307 0.0
H720 H 0.82754 0.94728 0.45477 0.0
H721 H 0.87781 0.04481 0.45556 0.0
H722 H 0.78748 0.05134 0.42771 0.0
H723 H 0.74056 0.95491 0.42654 0.0
C724 C 0.93297 0.19882 0.4499 0.0
C725 C 0.95193 0.22233 0.4395 0.0
C726 C 0.89315 0.14537 0.45067 0.0
C727 C 0.87178 0.11471 0.44104 0.0
C728 C 0.88772 0.13981 0.43068 0.0
C729 C 0.927 0.19307 0.42993 0.0
C730 C 0.81893 0.96997 0.44884 0.0
C731 C 0.7817 0.94411 0.44039 0.0
C732 C 0.847 0.02566 0.44936 0.0
C733 C 0.8371 0.05601 0.4416 0.0
C734 C 0.79729 0.02943 0.43361 0.0
C735 C 0.77049 0.97419 0.43291 0.0
H736 H 0.07572 0.81935 0.42231 0.0
H737 H 0.07756 0.89035 0.45381 0.0
H738 H 0.97917 0.76917 0.42266 0.0
H739 H 0.98038 0.84301 0.45387 0.0
H740 H 0.80632 0.7406 0.45454 0.0
H741 H 0.89902 0.76221 0.45526 0.0
H742 H 0.91107 0.78689 0.41984 0.0
H743 H 0.8187 0.76265 0.41909 0.0
C744 C 0.0552 0.82486 0.42922 0.0
C745 C 0.08372 0.85947 0.43793 0.0
C746 C -0.00014 0.79601 0.42945 0.0
C747 C 0.97175 0.80231 0.43823 0.0
C748 C 0.00058 0.8364 0.44706 0.0
C749 C 0.05617 0.86422 0.44696 0.0
C750 C 0.82844 0.74892 0.44688 0.0
C751 C 0.80558 0.75099 0.43679 0.0
C752 C 0.88174 0.76199 0.44731 0.0
C753 C 0.91302 0.7777 0.43766 0.0
C754 C 0.88847 0.77482 0.42746 0.0
C755 C 0.83524 0.76111 0.42702 0.0
H756 H 0.4277 0.9642 0.27958 0.0
H757 H 0.40508 0.93989 0.24433 0.0
H758 H 0.49445 0.93684 0.27897 0.0
H759 H 0.469 0.90964 0.24377 0.0
H760 H 0.60014 0.86876 0.24568 0.0
H761 H 0.55417 0.91979 0.24565 0.0
H762 H 0.4824 0.85011 0.27715 0.0
H763 H 0.53038 0.80132 0.27738 0.0
C764 C 0.43772 0.9541 0.27166 0.0
C765 C 0.40986 0.95258 0.26204 0.0
C766 C 0.47545 0.93773 0.27132 0.0
C767 C 0.48546 0.91898 0.2614 0.0
C768 C 0.46205 0.92336 0.25158 0.0
C769 C 0.42501 0.94057 0.2519 0.0
C770 C 0.57401 0.86399 0.25253 0.0
C771 C 0.56848 0.83094 0.26151 0.0
C772 C 0.54793 0.89345 0.25254 0.0
C773 C 0.51524 0.88975 0.26147 0.0
C774 C 0.50859 0.8553 0.27029 0.0
C775 C 0.5353 0.82657 0.27036 0.0
H776 H 0.15466 0.75278 0.27924 0.0
H777 H 0.22464 0.75417 0.24764 0.0
H778 H 0.10342 0.65621 0.27879 0.0
H779 H 0.17603 0.65688 0.24747 0.0
H780 H 0.09376 0.49384 0.28186 0.0
H781 H 0.1197 0.58676 0.28136 0.0
H782 H 0.09352 0.5766 0.246 0.0
H783 H 0.06961 0.48309 0.24647 0.0
C784 C 0.1598 0.73217 0.27229 0.0
C785 C 0.19437 0.7606 0.26358 0.0
C786 C 0.13029 0.67682 0.272 0.0
C787 C 0.13578 0.64856 0.26314 0.0
C788 C 0.17002 0.67726 0.25434 0.0
C789 C 0.19859 0.73289 0.2545 0.0
C790 C 0.0922 0.51087 0.27399 0.0
C791 C 0.08125 0.48152 0.26414 0.0
C792 C 0.10695 0.56445 0.27371 0.0
C793 C 0.11004 0.58968 0.26359 0.0
C794 C 0.09329 0.55877 0.25388 0.0
C795 C 0.07911 0.50509 0.25416 0.0
H796 H 0.54259 0.61962 0.28186 0.0
H797 H 0.55153 0.61112 0.24631 0.0
H798 H 0.44942 0.55371 0.28132 0.0
H799 H 0.45776 0.54264 0.24577 0.0
H800 H 0.28101 0.49812 0.24804 0.0
H801 H 0.37821 0.54593 0.24776 0.0
H802 H 0.37892 0.46896 0.27837 0.0
H803 H 0.28255 0.4244 0.27896 0.0
C804 C 0.52511 0.60228 0.27393 0.0
C805 C 0.55411 0.62188 0.26408 0.0
C806 C 0.47135 0.56408 0.27362 0.0
C807 C 0.44553 0.54375 0.26346 0.0
C808 C 0.47603 0.55888 0.2537 0.0
C809 C 0.52992 0.59772 0.25401 0.0
C810 C 0.30226 0.49205 0.25473 0.0
C811 C 0.27458 0.45883 0.26365 0.0
C812 C 0.35785 0.51865 0.2545 0.0
C813 C 0.38658 0.51141 0.26307 0.0
C814 C 0.35835 0.47653 0.27177 0.0
C815 C 0.30307 0.4511 0.27213 0.0
H816 H 0.80553 0.5405 0.78833 0.0
H817 H 0.8968 0.6259 0.75965 0.0
H818 H 0.85367 0.49115 0.78905 0.0
H819 H 0.94748 0.5802 0.76077 0.0
H820 H 0.95661 0.42893 0.75506 0.0
H821 H 0.93123 0.49619 0.75634 0.0
H822 H 0.93282 0.48809 0.79206 0.0
H823 H 0.95592 0.41806 0.79072 0.0
C824 C 0.83633 0.54899 0.78229 0.0
C825 C 0.84647 0.58546 0.77374 0.0
C826 C 0.86449 0.52144 0.78276 0.0
C827 C 0.90418 0.53119 0.77487 0.0
C828 C 0.91619 0.57035 0.76677 0.0
C829 C 0.88712 0.59652 0.76611 0.0
C830 C 0.95292 0.44232 0.76321 0.0
C831 C 0.95716 0.41731 0.77278 0.0
C832 C 0.93849 0.48132 0.76396 0.0
C833 C 0.9289 0.49704 0.77432 0.0
C834 C 0.93843 0.47584 0.78394 0.0
C835 C 0.95238 0.43621 0.78318 0.0
H836 H 0.61364 0.56089 0.7879 0.0
H837 H 0.62935 0.54169 0.7529 0.0
H838 H 0.54222 0.46824 0.78899 0.0
H839 H 0.56032 0.44972 0.75402 0.0
H840 H 0.42494 0.28769 0.75664 0.0
H841 H 0.47265 0.38433 0.7566 0.0
H842 H 0.53964 0.38493 0.78862 0.0
H843 H 0.48846 0.28752 0.78892 0.0
C844 C 0.60136 0.53721 0.78042 0.0
C845 C 0.62799 0.55823 0.77038 0.0
C846 C 0.56074 0.48404 0.78106 0.0
C847 C 0.54625 0.45109 0.77166 0.0
C848 C 0.56992 0.47371 0.76144 0.0
C849 C 0.60993 0.52673 0.7608 0.0
C850 C 0.44992 0.30859 0.76367 0.0
C851 C 0.45423 0.28048 0.77268 0.0
C852 C 0.4772 0.36398 0.76366 0.0
C853 C 0.51068 0.39258 0.77253 0.0
C854 C 0.51373 0.36427 0.78171 0.0
C855 C 0.48514 0.30857 0.78184 0.0
H856 H 0.49554 0.1172 0.79206 0.0
H857 H 0.48752 0.07055 0.75788 0.0
H858 H 0.58925 0.14497 0.79259 0.0
H859 H 0.58147 0.09694 0.75848 0.0
H860 H 0.75941 0.17614 0.79056 0.0
H861 H 0.6623 0.12773 0.79135 0.0
H862 H 0.65672 0.18642 0.7588 0.0
H863 H 0.75318 0.23329 0.75789 0.0
C864 C 0.51315 0.11082 0.78479 0.0
C865 C 0.48431 0.09265 0.77488 0.0
C866 C 0.56713 0.12688 0.78508 0.0
C867 C 0.59305 0.12454 0.77548 0.0
C868 C 0.56282 0.10073 0.76592 0.0
C869 C 0.50893 0.08513 0.7656 0.0
C870 C 0.73733 0.17901 0.78363 0.0
C871 C 0.76379 0.20846 0.77416 0.0
C872 C 0.68178 0.15107 0.78406 0.0
C873 C 0.65186 0.15239 0.77505 0.0
C874 C 0.67856 0.18319 0.76574 0.0
C875 C 0.73388 0.21074 0.76528 0.0
H876 H 0.0849 0.29403 0.58038 0.0
H877 H 0.06936 0.26724 0.61568 0.0
H878 H 0.15397 0.26948 0.5799 0.0
H879 H 0.13598 0.24083 0.61517 0.0
H880 H 0.26856 0.20823 0.61309 0.0
H881 H 0.22241 0.25859 0.61268 0.0
H882 H 0.15178 0.18654 0.58123 0.0
H883 H 0.20114 0.13859 0.58137 0.0
C884 C 0.09682 0.28383 0.58805 0.0
C885 C 0.07073 0.28126 0.59801 0.0
C886 C 0.13602 0.26927 0.58777 0.0
C887 C 0.14957 0.25181 0.59744 0.0
C888 C 0.1269 0.25419 0.60754 0.0
C889 C 0.08831 0.26924 0.60783 0.0
C890 C 0.24295 0.20299 0.60611 0.0
C891 C 0.23739 0.16873 0.59736 0.0
C892 C 0.21662 0.232 0.60585 0.0
C893 C 0.18299 0.2264 0.59697 0.0
C894 C 0.17803 0.19255 0.58812 0.0
C895 C 0.20553 0.1644 0.58826 0.0
H896 H 0.74647 0.8226 0.61366 0.0
H897 H 0.73676 0.81315 0.57799 0.0
H898 H 0.77241 0.91547 0.61285 0.0
H899 H 0.76092 0.90669 0.57715 0.0
H900 H 0.89105 0.0851 0.58029 0.0
H901 H 0.8424 0.9877 0.57973 0.0
H902 H 0.75634 0.98436 0.60923 0.0
H903 H 0.80735 0.08079 0.61014 0.0
C904 C 0.7481 0.83989 0.60562 0.0
C905 C 0.74117 0.81086 0.59586 0.0
C906 C 0.76287 0.89347 0.60515 0.0
C907 C 0.77005 0.9191 0.5949 0.0
C908 C 0.75743 0.88856 0.58517 0.0
C909 C 0.74311 0.83483 0.58565 0.0
C910 C 0.86194 0.06319 0.58666 0.0
C911 C 0.85395 0.09008 0.59542 0.0
C912 C 0.83344 0.00751 0.58627 0.0
C913 C 0.79557 0.97802 0.59449 0.0
C914 C 0.78609 0.00554 0.60293 0.0
C915 C 0.81544 0.06084 0.60348 0.0
H916 H 0.20736 0.942 0.61579 0.0
H917 H 0.20909 0.95014 0.58013 0.0
H918 H 0.11364 0.8742 0.6153 0.0
H919 H 0.11514 0.88572 0.57962 0.0
H920 H 0.94172 0.83566 0.61175 0.0
H921 H 0.03849 0.88316 0.61218 0.0
H922 H 0.04031 0.80249 0.58219 0.0
H923 H 0.94363 0.75757 0.58147 0.0
C924 C 0.18804 0.92865 0.60783 0.0
C925 C 0.21509 0.95287 0.598 0.0
C926 C 0.13413 0.89034 0.60755 0.0
C927 C 0.1063 0.87619 0.59746 0.0
C928 C 0.13497 0.89589 0.58757 0.0
C929 C 0.18904 0.93336 0.58785 0.0
C930 C 0.96302 0.82876 0.6052 0.0
C931 C 0.93548 0.79371 0.59651 0.0
C932 C 0.01841 0.85515 0.60553 0.0
C933 C 0.04732 0.84608 0.5973 0.0
C934 C 0.01947 0.81089 0.58859 0.0
C935 C 0.96409 0.78536 0.58815 0.0
H936 H 0.51683 0.0644 0.04756 0.0
H937 H 0.36116 0.92623 0.04328 0.0
H938 H 0.52413 0.07861 0.0277 0.0
H939 H 0.37022 0.93724 0.02335 0.0
H940 H 0.37953 -0.0021 0.98825 0.0
H941 H 0.36952 0.98631 1.00829 0.0
H942 H 0.53887 0.04664 1.01132 0.0
H943 H 0.54832 0.06063 0.99136 0.0
C944 C 0.48371 0.03757 0.04243 0.0
C945 C 0.43766 -0.00488 0.04709 0.0
C946 C 0.48841 0.04486 0.03095 0.0
C947 C 0.44778 0.00907 0.02381 0.0
C948 C 0.40197 0.96637 0.02851 0.0
C949 C 0.39695 0.95969 0.03996 0.0
C950 C 0.41423 0.00791 0.99326 0.0
C951 C 0.46455 0.02953 0.98834 0.0
C952 C 0.40871 0.00135 1.00474 0.0
C953 C 0.45342 0.01563 1.01153 0.0
C954 C 0.50364 0.03629 1.00647 0.0
C955 C 0.50914 0.04373 0.99503 0.0
H956 H 0.96231 0.34434 0.99098 0.0
H957 H 0.0314 0.51449 0.98829 0.0
H958 H 0.97502 0.35241 1.01105 0.0
H959 H 0.04361 0.52288 1.0085 0.0
H960 H -0.00859 0.49603 0.04624 0.0
H961 H 0.97928 0.48985 0.02602 0.0
H962 H 0.05697 0.3961 0.02414 0.0
H963 H 0.06954 0.40307 0.04422 0.0
C964 C 0.98061 0.3835 0.99473 0.0
C965 C -0.00341 0.42886 0.98814 0.0
C966 C 0.98785 0.38816 1.00618 0.0
C967 C 0.01017 0.43825 1.01133 0.0
C968 C 0.02604 0.48377 1.00474 0.0
C969 C 0.01969 0.47913 0.99321 0.0
C970 C 0.00516 0.47365 0.04146 0.0
C971 C 0.03078 0.44943 0.04673 0.0
C972 C -0.00115 0.47061 0.02993 0.0
C973 C 0.01727 0.44254 0.02353 0.0
C974 C 0.04215 0.41774 0.02886 0.0
C975 C 0.04933 0.42167 0.04032 0.0
H976 H 0.67589 0.635 0.99144 0.0
H977 H 0.50735 0.52916 0.98778 0.0
H978 H 0.66502 0.63898 1.01135 0.0
H979 H 0.49588 0.53004 1.00781 0.0
H980 H 0.48618 0.57947 0.0431 0.0
H981 H 0.49549 0.57789 0.02315 0.0
H982 H 0.64984 0.59163 0.02755 0.0
H983 H 0.6423 0.59825 0.04738 0.0
C984 C 0.63643 0.61262 0.99499 0.0
C985 C 0.59237 0.5823 0.98815 0.0
C986 C 0.63011 0.61422 1.00641 0.0
C987 C 0.57958 0.58432 1.01133 0.0
C988 C 0.53532 0.55429 1.00439 0.0
C989 C 0.54166 0.55363 0.99291 0.0
C990 C 0.52206 0.58204 0.03978 0.0
C991 C 0.56287 0.58765 0.04692 0.0
C992 C 0.52726 0.58064 0.02831 0.0
C993 C 0.57337 0.58441 0.02361 0.0
C994 C 0.61394 0.58929 0.03078 0.0
C995 C 0.60907 0.59164 0.04225 0.0
H996 H 0.01045 0.28607 0.37761 0.0
H997 H 0.18148 0.36559 0.37966 0.0
H998 H 0.01596 0.29698 0.35749 0.0
H999 H 0.18734 0.37602 0.3594 0.0
H1000 H 0.16085 0.32317 0.32174 0.0
H1001 H 0.15584 0.31013 0.34195 0.0
H1002 H 0.05448 0.37928 0.34435 0.0
H1003 H 0.06049 0.39296 0.3243 0.0
C1004 C 0.04922 0.30617 0.3737 0.0
C1005 C 0.09555 0.32567 0.38013 0.0
C1006 C 0.05241 0.31236 0.36223 0.0
C1007 C 0.10205 0.33717 0.35689 0.0
C1008 C 0.14856 0.35644 0.36331 0.0
C1009 C 0.14533 0.35112 0.37486 0.0
C1010 C 0.13698 0.3347 0.32663 0.0
C1011 C 0.11051 0.35843 0.32154 0.0
C1012 C 0.13458 0.32789 0.33815 0.0
C1013 C 0.10487 0.34385 0.34469 0.0
C1014 C 0.07745 0.36639 0.33951 0.0
C1015 C 0.08076 0.37413 0.32808 0.0
H1016 H 0.62809 0.7225 0.37999 0.0
H1017 H 0.76558 0.8795 0.37627 0.0
H1018 H 0.61516 0.71678 0.35998 0.0
H1019 H 0.75449 0.87172 0.35619 0.0
H1020 H 0.73655 0.77851 0.32128 0.0
H1021 H 0.74989 0.78884 0.34127 0.0
H1022 H 0.60222 0.78906 0.34485 0.0
H1023 H 0.59037 0.78256 0.3248 0.0
C1024 C 0.65476 0.75632 0.37501 0.0
C1025 C 0.69681 0.80235 0.37984 0.0
C1026 C 0.64787 0.75254 0.36352 0.0
C1027 C 0.68388 0.79386 0.35663 0.0
C1028 C 0.72635 0.83935 0.36137 0.0
C1029 C 0.73252 0.8437 0.37284 0.0
C1030 C 0.70795 0.78291 0.3262 0.0
C1031 C 0.66322 0.78151 0.32132 0.0
C1032 C 0.71519 0.78787 0.33768 0.0
C1033 C 0.67703 0.78974 0.34451 0.0
C1034 C 0.63206 0.78755 0.33972 0.0
C1035 C 0.62544 0.78389 0.32826 0.0
H1036 H 0.18171 0.87386 0.32169 0.0
H1037 H 0.35211 0.97184 0.32419 0.0
H1038 H 0.17424 0.87725 0.34193 0.0
H1039 H 0.34498 0.97603 0.34429 0.0
H1040 H 0.29653 0.02048 0.3777 0.0
H1041 H 0.3033 0.01533 0.35761 0.0
H1042 H 0.2067 0.84398 0.35922 0.0
H1043 H 0.20075 0.8495 0.37946 0.0
C1044 C 0.21732 0.8968 0.32658 0.0
C1045 C 0.26741 0.92321 0.32145 0.0
C1046 C 0.21321 0.89822 0.33812 0.0
C1047 C 0.25909 0.92681 0.34466 0.0
C1048 C 0.30899 0.95392 0.33946 0.0
C1049 C 0.3131 0.95163 0.32799 0.0
C1050 C 0.27738 0.98178 0.37374 0.0
C1051 C 0.24877 0.93536 0.38007 0.0
C1052 C 0.28116 0.97878 0.36228 0.0
C1053 C 0.25536 0.92928 0.35687 0.0
C1054 C 0.22668 0.88266 0.3632 0.0
C1055 C 0.22378 0.88567 0.37474 0.0
H1056 H 0.76903 0.73338 0.71378 0.0
H1057 H 0.80015 0.60368 0.70941 0.0
H1058 H 0.77141 0.7455 0.69391 0.0
H1059 H 0.79767 0.6123 0.68946 0.0
H1060 H 0.8359 0.67031 0.65371 0.0
H1061 H 0.84018 0.66094 0.67373 0.0
H1062 H 0.72136 0.70807 0.67816 0.0
H1063 H 0.72003 0.72005 0.65823 0.0
C1064 C 0.77752 0.70813 0.70862 0.0
C1065 C 0.78603 0.66858 0.71326 0.0
C1066 C 0.77744 0.71408 0.69713 0.0
C1067 C 0.78442 0.67968 0.68995 0.0
C1068 C 0.79307 0.64023 0.69463 0.0
C1069 C 0.79406 0.63495 0.7061 0.0
C1070 C 0.81037 0.67785 0.65903 0.0
C1071 C 0.77733 0.69541 0.65451 0.0
C1072 C 0.81269 0.67258 0.6705 0.0
C1073 C 0.78141 0.68413 0.67768 0.0
C1074 C 0.74716 0.70016 0.67301 0.0
C1075 C 0.74571 0.70636 0.66159 0.0
H1076 H 0.2675 0.121 0.65977 0.0
H1077 H 0.40398 0.10098 0.6552 0.0
H1078 H 0.27987 0.12404 0.67964 0.0
H1079 H 0.41969 0.10912 0.675 0.0
H1080 H 0.40288 0.06713 0.71138 0.0
H1081 H 0.38909 0.06351 0.69143 0.0
H1082 H 0.3283 0.17218 0.69479 0.0
H1083 H 0.33953 0.17265 0.71483 0.0
C1084 C 0.30099 0.11849 0.663 0.0
C1085 C 0.33535 0.11191 0.65579 0.0
C1086 C 0.30847 0.12078 0.67444 0.0
C1087 C 0.351 0.11711 0.67907 0.0
C1088 C 0.38602 0.11144 0.67183 0.0
C1089 C 0.37789 0.10817 0.66036 0.0
C1090 C 0.38597 0.08959 0.70779 0.0
C1091 C 0.37151 0.11951 0.71458 0.0
C1092 C 0.37866 0.08819 0.69634 0.0
C1093 C 0.35789 0.11788 0.69135 0.0
C1094 C 0.34345 0.14793 0.69825 0.0
C1095 C 0.34982 0.14837 0.70974 0.0
H1096 H 0.89717 0.15984 0.65857 0.0
H1097 H 0.92378 0.31927 0.65452 0.0
H1098 H 0.89583 0.1688 0.6785 0.0
H1099 H 0.91731 0.32663 0.67437 0.0
H1100 H 0.96291 0.34991 0.71052 0.0
H1101 H 0.96414 0.33945 0.69053 0.0
H1102 H 0.85055 0.1712 0.69397 0.0
H1103 H 0.85249 0.18214 0.71406 0.0
C1104 C 0.90145 0.19643 0.66193 0.0
C1105 C 0.90945 0.23834 0.65485 0.0
C1106 C 0.90016 0.20143 0.6734 0.0
C1107 C 0.90629 0.24841 0.67819 0.0
C1108 C 0.91317 0.29001 0.67108 0.0
C1109 C 0.91546 0.28532 0.65959 0.0
C1110 C 0.93883 0.31072 0.70693 0.0
C1111 C 0.90815 0.26671 0.71375 0.0
C1112 C 0.93885 0.30466 0.69546 0.0
C1113 C 0.90702 0.2545 0.69049 0.0
C1114 C 0.87633 0.21034 0.69742 0.0
C1115 C 0.87726 0.21636 0.70893 0.0
H1116 H 0.20579 0.92878 0.20205 0.0
H1117 H 0.36007 0.97708 0.21605 0.0
H1118 H 0.24486 0.94675 0.18346 0.0
H1119 H 0.39851 0.9929 0.19762 0.0
H1120 H 0.43905 0.97207 0.16177 0.0
H1121 H 0.39507 0.94462 0.17987 0.0
H1122 H 0.31106 0.02956 0.17315 0.0
H1123 H 0.3551 0.05657 0.1551 0.0
C1124 C 0.24777 0.94222 0.20113 0.0
C1125 C 0.27935 0.94962 0.21051 0.0
C1126 C 0.27015 0.95263 0.19053 0.0
C1127 C 0.32467 0.97066 0.18907 0.0
C1128 C 0.35615 0.97776 0.19844 0.0
C1129 C 0.33391 0.96799 0.20903 0.0
C1130 C 0.41069 0.98415 0.16417 0.0
C1131 C 0.39996 0.01597 0.1571 0.0
C1132 C 0.38584 0.96886 0.17452 0.0
C1133 C 0.3494 0.98473 0.17791 0.0
C1134 C 0.33836 0.01612 0.17072 0.0
C1135 C 0.36374 0.03191 0.16046 0.0
H1136 H 0.05623 0.49449 0.16108 0.0
H1137 H 0.96709 0.32471 0.15603 0.0
H1138 H 0.08535 0.48081 0.17929 0.0
H1139 H -0.00405 0.31062 0.17413 0.0
H1140 H 0.10259 0.30888 0.20186 0.0
H1141 H 0.08188 0.32862 0.18345 0.0
H1142 H 0.04011 0.43909 0.19783 0.0
H1143 H 0.05867 0.41783 0.2162 0.0
C1144 C 0.04335 0.45435 0.16386 0.0
C1145 C 0.00983 0.41061 0.15719 0.0
C1146 C 0.05962 0.44644 0.17427 0.0
C1147 C 0.04322 0.39463 0.1781 0.0
C1148 C 0.00981 0.351 0.17136 0.0
C1149 C -0.00704 0.35894 0.16106 0.0
C1150 C 0.08955 0.33781 0.20107 0.0
C1151 C 0.08381 0.36281 0.21051 0.0
C1152 C 0.07755 0.34899 0.19054 0.0
C1153 C 0.05963 0.38564 0.18919 0.0
C1154 C 0.05482 0.41146 0.19859 0.0
C1155 C 0.06614 0.39971 0.20913 0.0
H1156 H 0.62201 0.66202 0.21616 0.0
H1157 H 0.73011 0.81544 0.20199 0.0
H1158 H 0.59907 0.62307 0.19772 0.0
H1159 H 0.70858 0.77595 0.18347 0.0
H1160 H 0.70724 0.66565 0.1552 0.0
H1161 H 0.72432 0.70868 0.17337 0.0
H1162 H 0.55524 0.62744 0.17977 0.0
H1163 H 0.53864 0.58449 0.16152 0.0
C1164 C 0.63964 0.68786 0.20911 0.0
C1165 C 0.67665 0.74232 0.21054 0.0
C1166 C 0.62691 0.66535 0.19853 0.0
C1167 C 0.6518 0.69648 0.18914 0.0
C1168 C 0.68887 0.7509 0.19055 0.0
C1169 C 0.7011 0.77352 0.20113 0.0
C1170 C 0.67393 0.65737 0.16052 0.0
C1171 C 0.62172 0.62233 0.15702 0.0
C1172 C 0.68355 0.68215 0.17085 0.0
C1173 C 0.64109 0.67166 0.17797 0.0
C1174 C 0.58873 0.63623 0.17447 0.0
C1175 C 0.57914 0.612 0.16404 0.0
H1176 H 0.96453 0.33657 0.88264 0.0
H1177 H 0.07445 0.49023 0.86885 0.0
H1178 H 0.94337 0.2981 0.86419 0.0
H1179 H 0.05479 0.4511 0.85025 0.0
H1180 H 0.05422 0.34085 0.82196 0.0
H1181 H 0.0704 0.38414 0.84009 0.0
H1182 H 0.90107 0.30216 0.84619 0.0
H1183 H 0.88537 0.25884 0.82802 0.0
C1184 C 0.98284 0.36265 0.87566 0.0
C1185 C 0.01969 0.41707 0.87721 0.0
C1186 C 0.9712 0.34035 0.86506 0.0
C1187 C -0.00294 0.37158 0.85574 0.0
C1188 C 0.03424 0.42594 0.85727 0.0
C1189 C 0.04539 0.44839 0.86789 0.0
C1190 C 0.02064 0.3324 0.8272 0.0
C1191 C 0.96861 0.29702 0.82362 0.0
C1192 C 0.02976 0.3574 0.83752 0.0
C1193 C 0.987 0.34683 0.84455 0.0
C1194 C 0.93484 0.31108 0.84097 0.0
C1195 C 0.92575 0.28662 0.83057 0.0
H1196 H 0.5472 0.60368 0.86882 0.0
H1197 H 0.69806 0.64028 0.88301 0.0
H1198 H 0.58756 0.62443 0.85046 0.0
H1199 H 0.73734 0.6564 0.86475 0.0
H1200 H 0.80903 0.74284 0.83242 0.0
H1201 H 0.76793 0.71935 0.85066 0.0
H1202 H 0.6215 0.59771 0.83585 0.0
H1203 H 0.66149 0.62453 0.81766 0.0
C1204 C 0.58865 0.61483 0.86798 0.0
C1205 C 0.61877 0.61848 0.87737 0.0
C1206 C 0.61182 0.62635 0.85744 0.0
C1207 C 0.66587 0.64181 0.85602 0.0
C1208 C 0.6958 0.64506 0.86545 0.0
C1209 C 0.67279 0.63428 0.87597 0.0
C1210 C 0.76813 0.71095 0.83311 0.0
C1211 C 0.73924 0.68446 0.82359 0.0
C1212 C 0.74456 0.69703 0.84358 0.0
C1213 C 0.69132 0.65602 0.84484 0.0
C1214 C 0.66242 0.62961 0.83528 0.0
C1215 C 0.68585 0.64409 0.8248 0.0
H1216 H 0.29066 0.10357 0.8336 0.0
H1217 H 0.4031 0.06291 0.81996 0.0
H1218 H 0.31074 0.08502 0.85224 0.0
H1219 H 0.42455 0.04638 0.83845 0.0
H1220 H 0.48175 0.06442 0.87445 0.0
H1221 H 0.46585 0.09292 0.85642 0.0
H1222 H 0.29643 0.00289 0.86236 0.0
H1223 H 0.31284 0.97503 0.88037 0.0
C1224 C 0.32036 0.09168 0.83461 0.0
C1225 C 0.34662 0.08659 0.82533 0.0
C1226 C 0.33175 0.08092 0.84525 0.0
C1227 C 0.3697 0.06482 0.84682 0.0
C1228 C 0.39614 0.06002 0.83754 0.0
C1229 C 0.3843 0.07018 0.82693 0.0
C1230 C 0.44132 0.05159 0.87192 0.0
C1231 C 0.39848 0.0181 0.87877 0.0
C1232 C 0.43211 0.06742 0.8616 0.0
C1233 C 0.37987 0.05035 0.85799 0.0
C1234 C 0.33712 0.0173 0.86495 0.0
C1235 C 0.34637 0.00102 0.8752 0.0
H1236 H 0.03522 0.31359 0.54957 0.0
H1237 H 0.8823 0.26924 0.53531 0.0
H1238 H 0.07467 0.33126 0.53116 0.0
H1239 H 0.9222 0.28868 0.51685 0.0
H1240 H 0.03062 0.39897 0.48881 0.0
H1241 H 0.98851 0.37216 0.50702 0.0
H1242 H 0.07189 0.28591 0.51294 0.0
H1243 H 0.11403 0.31323 0.49465 0.0
C1244 C 0.00959 0.30593 0.54251 0.0
C1245 C 0.95514 0.28841 0.54391 0.0
C1246 C 0.0324 0.31667 0.53194 0.0
C1247 C 0.00156 0.31127 0.52254 0.0
C1248 C 0.9471 0.29354 0.52393 0.0
C1249 C 0.92422 0.28225 0.53448 0.0
C1250 C 0.03968 0.37419 0.49403 0.0
C1251 C 0.075 0.35767 0.49036 0.0
C1252 C 0.01539 0.35851 0.5044 0.0
C1253 C 0.02658 0.32658 0.5114 0.0
C1254 C 0.06251 0.31053 0.50774 0.0
C1255 C 0.08628 0.32572 0.49728 0.0
H1256 H 0.72786 0.82147 0.49397 0.0
H1257 H 0.6388 0.65208 0.48842 0.0
H1258 H 0.75564 0.80656 0.5122 0.0
H1259 H 0.66626 0.63669 0.50658 0.0
H1260 H 0.768 0.63303 0.53525 0.0
H1261 H 0.75003 0.6532 0.5166 0.0
H1262 H 0.70774 0.76456 0.53032 0.0
H1263 H 0.72359 0.74291 0.54886 0.0
C1264 C 0.71489 0.78115 0.49664 0.0
C1265 C 0.68172 0.73787 0.48984 0.0
C1266 C 0.73036 0.77253 0.50706 0.0
C1267 C 0.71335 0.72044 0.51079 0.0
C1268 C 0.68057 0.67726 0.50388 0.0
C1269 C 0.66456 0.68592 0.49356 0.0
C1270 C 0.75543 0.66223 0.53424 0.0
C1271 C 0.74888 0.68752 0.54354 0.0
C1272 C 0.74501 0.67367 0.5236 0.0
C1273 C 0.72789 0.71081 0.522 0.0
C1274 C 0.72202 0.73666 0.53127 0.0
C1275 C 0.73177 0.72469 0.54192 0.0
H1276 H 0.2622 0.88178 0.49949 0.0
H1277 H 0.2927 0.0306 0.48514 0.0
H1278 H 0.28037 0.92219 0.51783 0.0
H1279 H 0.3063 0.06982 0.50341 0.0
H1280 H 0.39058 0.14332 0.53601 0.0
H1281 H 0.36839 0.10278 0.51769 0.0
H1282 H 0.2505 0.95373 0.53226 0.0
H1283 H 0.2762 0.99319 0.5505 0.0
C1284 C 0.27145 0.92275 0.50029 0.0
C1285 C 0.27423 0.95227 0.49086 0.0
C1286 C 0.28146 0.94593 0.51082 0.0
C1287 C 0.29444 -0.00061 0.5122 0.0
C1288 C 0.29682 0.02874 0.50273 0.0
C1289 C 0.28755 0.00573 0.49221 0.0
C1290 C 0.35969 0.10199 0.53525 0.0
C1291 C 0.33402 0.07214 0.54472 0.0
C1292 C 0.34654 0.07872 0.52473 0.0
C1293 C 0.30715 0.02485 0.52339 0.0
C1294 C 0.28124 -0.00485 0.5329 0.0
C1295 C 0.29498 0.01828 0.54342 0.0
H1296 H 0.48988 0.41472 0.08315 0.0
H1297 H 0.54098 0.40904 0.11645 0.0
H1298 H 0.44314 0.31777 0.08225 0.0
H1299 H 0.49602 0.3124 0.11541 0.0
H1300 H 0.386 0.14089 0.11528 0.0
H1301 H 0.41012 0.23433 0.11503 0.0
H1302 H 0.46147 0.24646 0.08106 0.0
H1303 H 0.43524 0.15267 0.08119 0.0
C1304 C 0.49161 0.39277 0.09024 0.0
C1305 C 0.51925 0.41949 0.09987 0.0
C1306 C 0.46473 0.3372 0.08972 0.0
C1307 C 0.46528 0.30721 0.09879 0.0
C1308 C 0.49352 0.33412 0.10837 0.0
C1309 C 0.51995 0.3896 0.10893 0.0
C1310 C 0.40078 0.16313 0.10765 0.0
C1311 C 0.40958 0.13975 0.09831 0.0
C1312 C 0.41524 0.21682 0.10755 0.0
C1313 C 0.43935 0.24828 0.09814 0.0
C1314 C 0.44315 0.2235 0.08846 0.0
C1315 C 0.42803 0.16957 0.08852 0.0
H1316 H 0.60793 0.10022 0.08308 0.0
H1317 H 0.61373 0.15647 0.11645 0.0
H1318 H 0.70461 0.14902 0.08227 0.0
H1319 H 0.71042 0.20729 0.11548 0.0
H1320 H 0.88134 0.26507 0.11542 0.0
H1321 H 0.78725 0.19783 0.11519 0.0
H1322 H 0.77689 0.23701 0.08111 0.0
H1323 H 0.8712 0.30218 0.08122 0.0
C1324 C 0.62989 0.12376 0.09019 0.0
C1325 C 0.60333 0.12478 0.09983 0.0
C1326 C 0.68532 0.15161 0.08972 0.0
C1327 C 0.71534 0.1816 0.09884 0.0
C1328 C 0.6886 0.1834 0.1084 0.0
C1329 C 0.63317 0.15496 0.10892 0.0
C1330 C 0.85924 0.25792 0.10778 0.0
C1331 C 0.88328 0.28929 0.09839 0.0
C1332 C 0.80523 0.21997 0.10769 0.0
C1333 C 0.7742 0.2133 0.09825 0.0
C1334 C 0.79951 0.24111 0.08853 0.0
C1335 C 0.85373 0.27849 0.08858 0.0
H1336 H 0.73139 0.60014 0.08033 0.0
H1337 H 0.74593 0.61145 0.11594 0.0
H1338 H 0.80223 0.578 0.07953 0.0
H1339 H 0.81315 0.58616 0.11525 0.0
H1340 H 0.9455 0.55435 0.11282 0.0
H1341 H 0.8962 0.60144 0.1113 0.0
H1342 H 0.81055 0.50341 0.08316 0.0
H1343 H 0.86371 0.45955 0.08423 0.0
C1344 C 0.75035 0.59891 0.08796 0.0
C1345 C 0.73257 0.60689 0.0982 0.0
C1346 C 0.79041 0.58542 0.08752 0.0
C1347 C 0.81292 0.57911 0.09733 0.0
C1348 C 0.79757 0.59105 0.10748 0.0
C1349 C 0.75843 0.60532 0.10789 0.0
C1350 C 0.91601 0.54297 0.10633 0.0
C1351 C 0.90729 0.50264 0.0988 0.0
C1352 C 0.88767 0.5699 0.10544 0.0
C1353 C 0.84853 0.55584 0.09721 0.0
C1354 C 0.84074 0.51601 0.08951 0.0
C1355 C 0.8705 0.49021 0.09021 0.0
H1356 H 0.41198 0.48 0.92051 0.0
H1357 H 0.42043 0.5653 0.95039 0.0
H1358 H 0.31557 0.43129 0.92161 0.0
H1359 H 0.32332 0.51964 0.95112 0.0
H1360 H 0.14815 0.41833 0.95333 0.0
H1361 H 0.2415 0.44192 0.95399 0.0
H1362 H 0.24687 0.4464 0.91821 0.0
H1363 H 0.15395 0.41977 0.91761 0.0
C1364 C 0.39291 0.48902 0.9272 0.0
C1365 C 0.42329 0.52714 0.93523 0.0
C1366 C 0.3376 0.46108 0.92786 0.0
C1367 C 0.31125 0.47183 0.93637 0.0
C1368 C 0.342 0.50957 0.94453 0.0
C1369 C 0.39759 0.53643 0.94404 0.0
C1370 C 0.16898 0.42259 0.94563 0.0
C1371 C 0.14386 0.4179 0.93542 0.0
C1372 C 0.22273 0.43693 0.946 0.0
C1373 C 0.25233 0.44734 0.93616 0.0
C1374 C 0.22573 0.4384 0.92598 0.0
C1375 C 0.17211 0.42333 0.92563 0.0
H1376 H 0.47762 0.87582 0.91821 0.0
H1377 H 0.53602 0.93695 0.95095 0.0
H1378 H 0.52304 0.82444 0.91888 0.0
H1379 H 0.58337 0.88749 0.95145 0.0
H1380 H 0.59216 0.73186 0.95306 0.0
H1381 H 0.56526 0.79876 0.95306 0.0
H1382 H 0.60827 0.83118 0.91853 0.0
H1383 H 0.63302 0.76229 0.91843 0.0
C1384 C 0.50035 0.87841 0.92552 0.0
C1385 C 0.50284 0.90993 0.93456 0.0
C1386 C 0.52704 0.84959 0.92586 0.0
C1387 C 0.55738 0.85229 0.93518 0.0
C1388 C 0.55998 0.88409 0.94419 0.0
C1389 C 0.53273 0.91235 0.94391 0.0
C1390 C 0.59738 0.75433 0.94555 0.0
C1391 C 0.61375 0.74121 0.93569 0.0
C1392 C 0.58189 0.79278 0.94554 0.0
C1393 C 0.58328 0.81934 0.93571 0.0
C1394 C 0.60508 0.81014 0.92615 0.0
C1395 C 0.61989 0.77118 0.92612 0.0
H1396 H 0.27741 0.87703 0.91963 0.0
H1397 H 0.29168 0.8795 0.95523 0.0
H1398 H 0.21056 0.78437 0.92022 0.0
H1399 H 0.22114 0.78635 0.95594 0.0
H1400 H 0.15992 0.60642 0.95107 0.0
H1401 H 0.21264 0.70351 0.95229 0.0
H1402 H 0.1279 0.71606 0.92402 0.0
H1403 H 0.07925 0.61971 0.92234 0.0
C1404 C 0.26492 0.8582 0.92766 0.0
C1405 C 0.29066 0.88551 0.93737 0.0
C1406 C 0.22596 0.80467 0.92801 0.0
C1407 C 0.21061 0.7771 0.93813 0.0
C1408 C 0.23296 0.80577 0.94797 0.0
C1409 C 0.27286 0.85945 0.94759 0.0
C1410 C 0.15325 0.63036 0.9451 0.0
C1411 C 0.11696 0.60609 0.93643 0.0
C1412 C 0.18275 0.68596 0.94588 0.0
C1413 C 0.17516 0.71812 0.93817 0.0
C1414 C 0.13639 0.69306 0.92988 0.0
C1415 C 0.10836 0.63778 0.9289 0.0
H1416 H 0.21202 0.74696 0.4491 0.0
H1417 H 0.16922 0.75434 0.41518 0.0
H1418 H 0.16644 0.65031 0.44796 0.0
H1419 H 0.12167 0.65742 0.41416 0.0
H1420 H 0.10809 0.49002 0.41385 0.0
H1421 H 0.13705 0.58443 0.41355 0.0
H1422 H 0.08016 0.57366 0.44703 0.0
H1423 H 0.05341 0.47953 0.44748 0.0
C1424 C 0.19279 0.72787 0.4414 0.0
C1425 C 0.19446 0.7582 0.43222 0.0
C1426 C 0.16595 0.67241 0.44079 0.0
C1427 C 0.13957 0.64598 0.43102 0.0
C1428 C 0.14176 0.67645 0.42179 0.0
C1429 C 0.16915 0.73201 0.42237 0.0
C1430 C 0.10021 0.50739 0.42102 0.0
C1431 C 0.07937 0.47768 0.43076 0.0
C1432 C 0.11696 0.5617 0.42087 0.0
C1433 C 0.11238 0.58697 0.43039 0.0
C1434 C 0.08597 0.55575 0.43969 0.0
C1435 C 0.06995 0.50168 0.4399 0.0
H1436 H 0.54842 0.60147 0.4472 0.0
H1437 H 0.5369 0.64424 0.4135 0.0
H1438 H 0.45455 0.53361 0.44684 0.0
H1439 H 0.44277 0.57803 0.41327 0.0
H1440 H 0.27435 0.4374 0.41509 0.0
H1441 H 0.37115 0.48809 0.41407 0.0
H1442 H 0.37732 0.54319 0.44757 0.0
H1443 H 0.28085 0.49109 0.44871 0.0
C1444 C 0.5261 0.5955 0.43963 0.0
C1445 C 0.54973 0.62861 0.43043 0.0
C1446 C 0.47221 0.55711 0.43946 0.0
C1447 C 0.44085 0.55159 0.43015 0.0
C1448 C 0.46571 0.58127 0.42059 0.0
C1449 C 0.51981 0.61924 0.42071 0.0
C1450 C 0.29642 0.46061 0.42221 0.0
C1451 C 0.27003 0.46038 0.43198 0.0
C1452 C 0.35189 0.48953 0.42163 0.0
C1453 C 0.38203 0.51911 0.43078 0.0
C1454 C 0.35543 0.51964 0.44047 0.0
C1455 C 0.30006 0.49038 0.44108 0.0
H1456 H 0.60747 0.88487 0.44951 0.0
H1457 H 0.53514 0.80603 0.41879 0.0
H1458 H 0.56 0.93412 0.44861 0.0
H1459 H 0.4842 0.85204 0.41823 0.0
H1460 H 0.41174 0.95317 0.41586 0.0
H1461 H 0.48222 0.9306 0.41563 0.0
H1462 H 0.47645 0.92101 0.45137 0.0
H1463 H 0.40953 0.94691 0.45158 0.0
C1464 C 0.58038 0.87732 0.44268 0.0
C1465 C 0.57403 0.84109 0.43432 0.0
C1466 C 0.55321 0.9056 0.44214 0.0
C1467 C 0.51786 0.89707 0.43338 0.0
C1468 C 0.51182 0.8607 0.42499 0.0
C1469 C 0.54023 0.83355 0.42538 0.0
C1470 C 0.42701 0.94807 0.42366 0.0
C1471 C 0.40439 0.95088 0.43372 0.0
C1472 C 0.46684 0.93429 0.42354 0.0
C1473 C 0.48411 0.92236 0.43346 0.0
C1474 C 0.46466 0.92999 0.44354 0.0
C1475 C 0.42576 0.94467 0.44366 0.0
H1476 H 0.81608 0.76284 0.28728 0.0
H1477 H 0.82164 0.75947 0.25157 0.0
H1478 H 0.90926 0.78587 0.28808 0.0
H1479 H 0.9144 0.78538 0.25232 0.0
H1480 H 0.07798 0.8154 0.25491 0.0
H1481 H 0.98163 0.76829 0.25616 0.0
H1482 H -0.008 0.86241 0.28486 0.0
H1483 H 0.08908 0.90661 0.28401 0.0
C1484 C 0.83685 0.76602 0.27962 0.0
C1485 C 0.81165 0.75992 0.26936 0.0
C1486 C 0.89047 0.77997 0.28007 0.0
C1487 C 0.91989 0.78856 0.27027 0.0
C1488 C 0.89332 0.77866 0.26007 0.0
C1489 C 0.83981 0.764 0.25963 0.0
C1490 C 0.05951 0.82597 0.26147 0.0
C1491 C 0.0906 0.86536 0.26922 0.0
C1492 C 0.00424 0.79898 0.2622 0.0
C1493 C 0.97867 0.81195 0.2705 0.0
C1494 C 0.0101 0.85075 0.27843 0.0
C1495 C 0.06567 0.8767 0.27788 0.0
H1496 H 0.27534 0.08493 0.2501 0.0
H1497 H 0.28314 0.08707 0.28581 0.0
H1498 H 0.24913 0.15175 0.25049 0.0
H1499 H 0.25984 0.15712 0.28621 0.0
H1500 H 0.13432 0.20957 0.28302 0.0
H1501 H 0.18041 0.15859 0.28358 0.0
H1502 H 0.26446 0.2365 0.25354 0.0
H1503 H 0.21556 0.2842 0.25264 0.0
C1504 C 0.27329 0.10107 0.25805 0.0
C1505 C 0.28024 0.07987 0.26794 0.0
C1506 C 0.25844 0.13986 0.25828 0.0
C1507 C 0.25122 0.15925 0.2684 0.0
C1508 C 0.26344 0.14188 0.27827 0.0
C1509 C 0.27758 0.1023 0.27805 0.0
C1510 C 0.16235 0.2152 0.27651 0.0
C1511 C 0.17051 0.24964 0.26765 0.0
C1512 C 0.18947 0.18673 0.27691 0.0
C1513 C 0.22626 0.19325 0.26859 0.0
C1514 C 0.23557 0.22936 0.25995 0.0
C1515 C 0.20747 0.25667 0.25941 0.0
H1516 H 0.81699 0.94857 0.28309 0.0
H1517 H 0.75191 0.95577 0.25147 0.0
H1518 H 0.8696 0.04554 0.28357 0.0
H1519 H 0.80103 0.05253 0.25224 0.0
H1520 H 0.95408 0.21352 0.24967 0.0
H1521 H 0.88627 0.12092 0.2499 0.0
H1522 H 0.87386 0.12761 0.28547 0.0
H1523 H 0.94509 0.22043 0.28527 0.0
C1524 C 0.81371 0.97114 0.2763 0.0
C1525 C 0.78157 0.94504 0.26714 0.0
C1526 C 0.84315 0.02672 0.27663 0.0
C1527 C 0.83983 0.05724 0.26792 0.0
C1528 C 0.80582 0.03061 0.25896 0.0
C1529 C 0.77764 0.97514 0.2585 0.0
C1530 C 0.93625 0.19572 0.25754 0.0
C1531 C 0.95573 0.2241 0.26748 0.0
C1532 C 0.89684 0.1423 0.25768 0.0
C1533 C 0.87501 0.11612 0.26774 0.0
C1534 C 0.89093 0.14599 0.2776 0.0
C1535 C 0.93123 0.19943 0.27748 0.0
H1536 H 0.7321 0.81577 0.7806 0.0
H1537 H 0.78922 0.82931 0.74709 0.0
H1538 H 0.75695 0.90942 0.78034 0.0
H1539 H 0.81573 0.92328 0.74696 0.0
H1540 H 0.84003 0.09087 0.74886 0.0
H1541 H 0.79526 -0.00604 0.74773 0.0
H1542 H 0.84319 0.9879 0.7813 0.0
H1543 H 0.88644 0.08438 0.78254 0.0
C1544 C 0.74883 0.83845 0.77309 0.0
C1545 C 0.75935 0.81538 0.76392 0.0
C1546 C 0.76365 0.89226 0.77298 0.0
C1547 C 0.78977 0.92419 0.76375 0.0
C1548 C 0.79578 0.8999 0.75421 0.0
C1549 C 0.78044 0.84588 0.75428 0.0
C1550 C 0.84112 0.06881 0.75599 0.0
C1551 C 0.86687 0.09531 0.76579 0.0
C1552 C 0.81539 0.01326 0.75534 0.0
C1553 C 0.81506 0.98308 0.76446 0.0
C1554 C 0.84145 0.00977 0.77421 0.0
C1555 C 0.86687 0.06519 0.77488 0.0
H1556 H 0.21739 0.96931 0.74942 0.0
H1557 H 0.2257 0.93777 0.78407 0.0
H1558 H 0.12353 0.90311 0.74921 0.0
H1559 H 0.13194 0.86954 0.78376 0.0
H1560 H 0.95541 0.7668 0.75094 0.0
H1561 H 0.05209 0.81505 0.75067 0.0
H1562 H 0.05406 0.87736 0.78328 0.0
H1563 H 0.95718 0.82703 0.78374 0.0
C1564 C 0.19969 0.94666 0.75689 0.0
C1565 C 0.2286 0.9594 0.76682 0.0
C1566 C 0.14567 0.90863 0.75678 0.0
C1567 C 0.11984 0.88206 0.76656 0.0
C1568 C 0.15029 0.89064 0.77618 0.0
C1569 C 0.20416 0.92919 0.77633 0.0
C1570 C 0.9765 0.79104 0.75804 0.0
C1571 C 0.94877 0.79353 0.76734 0.0
C1572 C 0.03196 0.81859 0.75788 0.0
C1573 C 0.06093 0.84981 0.76697 0.0
C1574 C 0.03306 0.85264 0.77624 0.0
C1575 C 0.97754 0.82447 0.77645 0.0
H1576 H 0.21225 0.14843 0.78243 0.0
H1577 H 0.26448 0.1913 0.74861 0.0
H1578 H 0.16062 0.1932 0.781 0.0
H1579 H 0.21384 0.2376 0.74727 0.0
H1580 H 0.10737 0.30984 0.78034 0.0
H1581 H 0.17368 0.2818 0.77984 0.0
H1582 H 0.12348 0.22057 0.74676 0.0
H1583 H 0.05857 0.25038 0.74712 0.0
C1584 C 0.21264 0.16738 0.77468 0.0
C1585 C 0.24235 0.16626 0.76563 0.0
C1586 C 0.18363 0.1937 0.7739 0.0
C1587 C 0.184 0.21992 0.76408 0.0
C1588 C 0.21275 0.21778 0.75494 0.0
C1589 C 0.24157 0.19109 0.7557 0.0
C1590 C 0.11172 0.29195 0.77284 0.0
C1591 C 0.07732 0.28158 0.76384 0.0
C1592 C 0.14923 0.2753 0.77259 0.0
C1593 C 0.15259 0.24742 0.7634 0.0
C1594 C 0.12177 0.24176 0.75398 0.0
C1595 C 0.08462 0.259 0.75418 0.0
H1596 H 0.47879 0.08625 0.58406 0.0
H1597 H 0.47836 0.08388 0.61982 0.0
H1598 H 0.5718 0.1129 0.58395 0.0
H1599 H 0.57164 0.10734 0.61972 0.0
H1600 H 0.74792 0.23314 0.6156 0.0
H1601 H 0.6511 0.1867 0.61652 0.0
H1602 H 0.64281 0.10015 0.58668 0.0
H1603 H 0.73938 0.14961 0.58542 0.0
C1604 C 0.49814 0.08956 0.59193 0.0
C1605 C 0.47151 0.0842 0.60196 0.0
C1606 C 0.55178 0.10464 0.59186 0.0
C1607 C 0.57986 0.1136 0.60184 0.0
C1608 C 0.55169 0.10257 0.61188 0.0
C1609 C 0.498 0.08832 0.61195 0.0
C1610 C 0.72509 0.20457 0.6092 0.0
C1611 C 0.75072 0.19572 0.60031 0.0
C1612 C 0.66964 0.17719 0.60981 0.0
C1613 C 0.63883 0.13937 0.60169 0.0
C1614 C 0.66499 0.12972 0.59296 0.0
C1615 C 0.72032 0.15815 0.5922 0.0
H1616 H 0.93716 0.41581 0.58441 0.0
H1617 H 0.94042 0.41346 0.62014 0.0
H1618 H 0.91198 0.48328 0.58493 0.0
H1619 H 0.91832 0.48437 0.6207 0.0
H1620 H 0.79722 0.54291 0.61719 0.0
H1621 H 0.84174 0.49034 0.61798 0.0
H1622 H 0.92841 0.56775 0.58812 0.0
H1623 H 0.88073 0.61659 0.58698 0.0
C1624 C 0.93432 0.43108 0.59241 0.0
C1625 C 0.93989 0.40854 0.60224 0.0
C1626 C 0.92007 0.47031 0.59272 0.0
C1627 C 0.91212 0.48897 0.60287 0.0
C1628 C 0.92255 0.46988 0.61273 0.0
C1629 C 0.93602 0.42978 0.61241 0.0
C1630 C 0.82556 0.54809 0.61079 0.0
C1631 C 0.83461 0.58247 0.60187 0.0
C1632 C 0.85175 0.51867 0.6113 0.0
C1633 C 0.88859 0.52433 0.60306 0.0
C1634 C 0.89925 0.56096 0.59444 0.0
C1635 C 0.87195 0.58902 0.59377 0.0
H1636 H 0.487 0.27821 0.61677 0.0
H1637 H 0.41325 0.28466 0.58625 0.0
H1638 H 0.539 0.37534 0.61716 0.0
H1639 H 0.46189 0.38132 0.58697 0.0
H1640 H 0.61381 0.54266 0.58328 0.0
H1641 H 0.54696 0.44969 0.58385 0.0
H1642 H 0.54166 0.45703 0.61955 0.0
H1643 H 0.61172 0.55031 0.61898 0.0
C1644 C 0.48176 0.3006 0.6102 0.0
C1645 C 0.44731 0.27427 0.60135 0.0
C1646 C 0.51083 0.35622 0.61049 0.0
C1647 C 0.50486 0.38643 0.60207 0.0
C1648 C 0.46865 0.35959 0.59345 0.0
C1649 C 0.44078 0.30416 0.59302 0.0
C1650 C 0.5977 0.52491 0.59126 0.0
C1651 C 0.61881 0.55363 0.6011 0.0
C1652 C 0.5589 0.47131 0.5916 0.0
C1653 C 0.53941 0.44531 0.60177 0.0
C1654 C 0.55693 0.47539 0.61158 0.0
C1655 C 0.59654 0.52906 0.61125 0.0
loop_
_geom_bond_atom_site_label_1
_geom_bond_atom_site_label_2
_geom_bond_distance
_geom_bond_site_symmetry_2
_ccdc_geom_bond_type
Zn0 O1 2.055 . S
Zn0 O8 2.046 1_545 S
Zn0 N16 2.036 . S
Zn0 O28 2.053 1_545 S
Zn0 O30 2.066 . S
O1 Zn0 2.055 . S
O1 C4 1.259 . S
C2 O30 1.256 . S
C2 O31 1.244 . S
Zn3 O5 2.046 . S
Zn3 O7 2.055 1_545 S
Zn3 N9 2.036 . S
Zn3 O27 2.066 1_545 S
Zn3 O31 2.053 . S
C4 O1 1.259 . S
C4 O5 1.254 . S
O5 Zn3 2.046 . S
O5 C4 1.254 . S
C6 O27 1.256 . S
C6 O28 1.244 . S
O7 Zn3 2.055 1_565 S
O7 C29 1.259 . S
O8 Zn0 2.046 1_565 S
O8 C29 1.254 . S
N9 Zn3 2.036 . S
N9 C10 1.298 1_545 S
N9 N12 1.398 . S
C10 N9 1.298 1_565 S
C10 N13 1.367 . S
C10 C23 1.481 . S
C11 N12 1.299 . S
C11 N13 1.379 1_545 S
N12 N9 1.398 . S
N12 C11 1.299 . S
N13 C10 1.367 . S
N13 C11 1.379 1_565 S
C14 N16 1.298 . S
C14 N18 1.367 . S
C14 C22 1.481 . S
C15 N17 1.299 . S
C15 N18 1.379 1_565 S
N16 Zn0 2.036 . S
N16 C14 1.298 . S
N16 N17 1.398 1_545 S
N17 C15 1.299 . S
N17 N16 1.398 1_565 S
N18 C14 1.367 . S
N18 C15 1.379 1_545 S
H19 C22 0.980 . S
H20 C22 0.981 . S
H21 C22 0.981 . S
C22 C14 1.481 . S
C22 H19 0.980 . S
C22 H20 0.981 . S
C22 H21 0.981 . S
C23 C10 1.481 . S
C23 H24 0.980 . S
C23 H25 0.981 . S
C23 H26 0.981 . S
H24 C23 0.980 . S
H25 C23 0.981 . S
H26 C23 0.981 . S
O27 Zn3 2.066 1_565 S
O27 C6 1.256 . S
O28 Zn0 2.053 1_565 S
O28 C6 1.244 . S
C29 O7 1.259 . S
C29 O8 1.254 . S
O30 Zn0 2.066 . S
O30 C2 1.256 . S
O31 C2 1.244 . S
O31 Zn3 2.053 . S
Zn32 O33 2.055 1_455 S
Zn32 O40 2.046 . S
Zn32 N48 2.036 . S
Zn32 O60 2.053 . S
Zn32 O62 2.066 1_455 S
O33 Zn32 2.055 1_655 S
O33 C36 1.259 . S
C34 O62 1.256 . S
C34 O63 1.244 . S
Zn35 O37 2.046 1_455 S
Zn35 O39 2.055 . S
Zn35 N41 2.036 . S
Zn35 O59 2.066 . S
Zn35 O63 2.053 1_455 S
C36 O33 1.259 . S
C36 O37 1.254 . S
O37 Zn35 2.046 1_655 S
O37 C36 1.254 . S
C38 O59 1.256 . S
C38 O60 1.244 . S
O39 Zn35 2.055 . S
O39 C61 1.259 . S
O40 Zn32 2.046 . S
O40 C61 1.254 . S
N41 Zn35 2.036 . S
N41 C42 1.298 . S
N41 N44 1.398 1_455 S
C42 N41 1.298 . S
C42 N45 1.367 . S
C42 C55 1.481 . S
C43 N44 1.299 1_455 S
C43 N45 1.379 . S
N44 N41 1.398 1_655 S
N44 C43 1.299 1_655 S
N45 C42 1.367 . S
N45 C43 1.379 . S
C46 N48 1.298 . S
C46 N50 1.367 . S
C46 C54 1.481 1_455 S
C47 N49 1.299 . S
C47 N50 1.379 . S
N48 Zn32 2.036 . S
N48 C46 1.298 . S
N48 N49 1.398 . S
N49 C47 1.299 . S
N49 N48 1.398 . S
N50 C46 1.367 . S
N50 C47 1.379 . S
H51 C54 0.980 . S
H52 C54 0.981 . S
H53 C54 0.981 . S
C54 C46 1.481 1_655 S
C54 H51 0.980 . S
C54 H52 0.981 . S
C54 H53 0.981 . S
C55 C42 1.481 . S
C55 H56 0.980 . S
C55 H57 0.981 . S
C55 H58 0.981 . S
H56 C55 0.980 . S
H57 C55 0.981 . S
H58 C55 0.981 . S
O59 Zn35 2.066 . S
O59 C38 1.256 . S
O60 Zn32 2.053 . S
O60 C38 1.244 . S
C61 O39 1.259 . S
C61 O40 1.254 . S
O62 Zn32 2.066 1_655 S
O62 C34 1.256 . S
O63 C34 1.244 . S
O63 Zn35 2.053 1_655 S
Zn64 O65 2.055 . S
Zn64 O72 2.046 . S
Zn64 N80 2.036 . S
Zn64 O92 2.053 . S
Zn64 O94 2.066 . S
O65 Zn64 2.055 . S
O65 C68 1.259 . S
C66 O94 1.256 . S
C66 O95 1.244 . S
Zn67 O69 2.046 . S
Zn67 O71 2.055 . S
Zn67 N73 2.036 . S
Zn67 O91 2.066 . S
Zn67 O95 2.053 . S
C68 O65 1.259 . S
C68 O69 1.254 . S
O69 Zn67 2.046 . S
O69 C68 1.254 . S
C70 O91 1.256 . S
C70 O92 1.244 . S
O71 Zn67 2.055 . S
O71 C93 1.259 . S
O72 Zn64 2.046 . S
O72 C93 1.254 . S
N73 Zn67 2.036 . S
N73 C74 1.298 . S
N73 N76 1.398 . S
C74 N73 1.298 . S
C74 N77 1.367 . S
C74 C87 1.481 . S
C75 N76 1.299 . S
C75 N77 1.379 . S
N76 N73 1.398 . S
N76 C75 1.299 . S
N77 C74 1.367 . S
N77 C75 1.379 . S
C78 N80 1.298 . S
C78 N82 1.367 . S
C78 C86 1.481 . S
C79 N81 1.299 . S
C79 N82 1.379 . S
N80 Zn64 2.036 . S
N80 C78 1.298 . S
N80 N81 1.398 . S
N81 C79 1.299 . S
N81 N80 1.398 . S
N82 C78 1.367 . S
N82 C79 1.379 . S
H83 C86 0.980 . S
H84 C86 0.981 . S
H85 C86 0.981 . S
C86 C78 1.481 . S
C86 H83 0.980 . S
C86 H84 0.981 . S
C86 H85 0.981 . S
C87 C74 1.481 . S
C87 H88 0.980 . S
C87 H89 0.981 . S
C87 H90 0.981 . S
H88 C87 0.980 . S
H89 C87 0.981 . S
H90 C87 0.981 . S
O91 Zn67 2.066 . S
O91 C70 1.256 . S
O92 Zn64 2.053 . S
O92 C70 1.244 . S
C93 O71 1.259 . S
C93 O72 1.254 . S
O94 Zn64 2.066 . S
O94 C66 1.256 . S
O95 C66 1.244 . S
O95 Zn67 2.053 . S
Zn96 O97 2.055 1_455 S
Zn96 O104 2.046 . S
Zn96 N112 2.036 . S
Zn96 O124 2.053 . S
Zn96 O126 2.066 1_455 S
O97 Zn96 2.055 1_655 S
O97 C100 1.259 . S
C98 O126 1.256 . S
C98 O127 1.244 . S
Zn99 O101 2.046 1_455 S
Zn99 O103 2.055 . S
Zn99 N105 2.036 . S
Zn99 O123 2.066 . S
Zn99 O127 2.053 1_455 S
C100 O97 1.259 . S
C100 O101 1.254 . S
O101 Zn99 2.046 1_655 S
O101 C100 1.254 . S
C102 O123 1.256 . S
C102 O124 1.244 . S
O103 Zn99 2.055 . S
O103 C125 1.259 . S
O104 Zn96 2.046 . S
O104 C125 1.254 . S
N105 Zn99 2.036 . S
N105 C106 1.298 . S
N105 N108 1.398 1_455 S
C106 N105 1.298 . S
C106 N109 1.367 . S
C106 C119 1.481 . S
C107 N108 1.299 . S
C107 N109 1.379 1_655 S
N108 N105 1.398 1_655 S
N108 C107 1.299 . S
N109 C106 1.367 . S
N109 C107 1.379 1_455 S
C110 N112 1.298 1_655 S
C110 N114 1.367 . S
C110 C118 1.481 . S
C111 N113 1.299 . S
C111 N114 1.379 1_455 S
N112 Zn96 2.036 . S
N112 C110 1.298 1_455 S
N112 N113 1.398 . S
N113 C111 1.299 . S
N113 N112 1.398 . S
N114 C110 1.367 . S
N114 C111 1.379 1_655 S
H115 C118 0.980 . S
H116 C118 0.981 . S
H117 C118 0.981 . S
C118 C110 1.481 . S
C118 H115 0.980 . S
C118 H116 0.981 . S
C118 H117 0.981 . S
C119 C106 1.481 . S
C119 H120 0.980 . S
C119 H121 0.981 . S
C119 H122 0.981 . S
H120 C119 0.980 . S
H121 C119 0.981 . S
H122 C119 0.981 . S
O123 Zn99 2.066 . S
O123 C102 1.256 . S
O124 Zn96 2.053 . S
O124 C102 1.244 . S
C125 O103 1.259 . S
C125 O104 1.254 . S
O126 Zn96 2.066 1_655 S
O126 C98 1.256 . S
O127 C98 1.244 . S
O127 Zn99 2.053 1_655 S
Zn128 O129 2.055 . S
Zn128 O136 2.046 . S
Zn128 N144 2.036 . S
Zn128 O156 2.053 . S
Zn128 O158 2.066 . S
O129 Zn128 2.055 . S
O129 C132 1.259 . S
C130 O158 1.256 . S
C130 O159 1.244 . S
Zn131 O133 2.046 . S
Zn131 O135 2.055 . S
Zn131 N137 2.036 . S
Zn131 O155 2.066 . S
Zn131 O159 2.053 . S
C132 O129 1.259 . S
C132 O133 1.254 . S
O133 Zn131 2.046 . S
O133 C132 1.254 . S
C134 O155 1.256 . S
C134 O156 1.244 . S
O135 Zn131 2.055 . S
O135 C157 1.259 . S
O136 Zn128 2.046 . S
O136 C157 1.254 . S
N137 Zn131 2.036 . S
N137 C138 1.298 . S
N137 N140 1.398 . S
C138 N137 1.298 . S
C138 N141 1.367 . S
C138 C151 1.481 . S
C139 N140 1.299 . S
C139 N141 1.379 . S
N140 N137 1.398 . S
N140 C139 1.299 . S
N141 C138 1.367 . S
N141 C139 1.379 . S
C142 N144 1.298 . S
C142 N146 1.367 . S
C142 C150 1.481 . S
C143 N145 1.299 . S
C143 N146 1.379 . S
N144 Zn128 2.036 . S
N144 C142 1.298 . S
N144 N145 1.398 . S
N145 C143 1.299 . S
N145 N144 1.398 . S
N146 C142 1.367 . S
N146 C143 1.379 . S
H147 C150 0.980 . S
H148 C150 0.981 . S
H149 C150 0.981 . S
C150 C142 1.481 . S
C150 H147 0.980 . S
C150 H148 0.981 . S
C150 H149 0.981 . S
C151 C138 1.481 . S
C151 H152 0.980 . S
C151 H153 0.981 . S
C151 H154 0.981 . S
H152 C151 0.980 . S
H153 C151 0.981 . S
H154 C151 0.981 . S
O155 Zn131 2.066 . S
O155 C134 1.256 . S
O156 Zn128 2.053 . S
O156 C134 1.244 . S
C157 O135 1.259 . S
C157 O136 1.254 . S
O158 Zn128 2.066 . S
O158 C130 1.256 . S
O159 C130 1.244 . S
O159 Zn131 2.053 . S
Zn160 O161 2.055 1_545 S
Zn160 O168 2.046 . S
Zn160 N176 2.036 . S
Zn160 O188 2.053 . S
Zn160 O190 2.066 1_545 S
O161 Zn160 2.055 1_565 S
O161 C164 1.259 . S
C162 O190 1.256 . S
C162 O191 1.244 . S
Zn163 O165 2.046 1_545 S
Zn163 O167 2.055 . S
Zn163 N169 2.036 . S
Zn163 O187 2.066 . S
Zn163 O191 2.053 1_545 S
C164 O161 1.259 . S
C164 O165 1.254 . S
O165 Zn163 2.046 1_565 S
O165 C164 1.254 . S
C166 O187 1.256 . S
C166 O188 1.244 . S
O167 Zn163 2.055 . S
O167 C189 1.259 . S
O168 Zn160 2.046 . S
O168 C189 1.254 . S
N169 Zn163 2.036 . S
N169 C170 1.298 . S
N169 N172 1.398 1_545 S
C170 N169 1.298 . S
C170 N173 1.367 . S
C170 C183 1.481 . S
C171 N172 1.299 1_545 S
C171 N173 1.379 . S
N172 N169 1.398 1_565 S
N172 C171 1.299 1_565 S
N173 C170 1.367 . S
N173 C171 1.379 . S
C174 N176 1.298 . S
C174 N178 1.367 . S
C174 C182 1.481 1_545 S
C175 N177 1.299 . S
C175 N178 1.379 . S
N176 Zn160 2.036 . S
N176 C174 1.298 . S
N176 N177 1.398 . S
N177 C175 1.299 . S
N177 N176 1.398 . S
N178 C174 1.367 . S
N178 C175 1.379 . S
H179 C182 0.980 . S
H180 C182 0.981 . S
H181 C182 0.981 . S
C182 C174 1.481 1_565 S
C182 H179 0.980 . S
C182 H180 0.981 . S
C182 H181 0.981 . S
C183 C170 1.481 . S
C183 H184 0.980 . S
C183 H185 0.981 . S
C183 H186 0.981 . S
H184 C183 0.980 . S
H185 C183 0.981 . S
H186 C183 0.981 . S
O187 Zn163 2.066 . S
O187 C166 1.256 . S
O188 Zn160 2.053 . S
O188 C166 1.244 . S
C189 O167 1.259 . S
C189 O168 1.254 . S
O190 Zn160 2.066 1_565 S
O190 C162 1.256 . S
O191 C162 1.244 . S
O191 Zn163 2.053 1_565 S
Zn192 O193 2.055 . S
Zn192 O200 2.046 . S
Zn192 N208 2.036 . S
Zn192 O220 2.053 . S
Zn192 O222 2.066 . S
O193 Zn192 2.055 . S
O193 C196 1.259 . S
C194 O222 1.256 . S
C194 O223 1.244 . S
Zn195 O197 2.046 . S
Zn195 O199 2.055 . S
Zn195 N201 2.036 . S
Zn195 O219 2.066 . S
Zn195 O223 2.053 . S
C196 O193 1.259 . S
C196 O197 1.254 . S
O197 Zn195 2.046 . S
O197 C196 1.254 . S
C198 O219 1.256 . S
C198 O220 1.244 . S
O199 Zn195 2.055 . S
O199 C221 1.259 . S
O200 Zn192 2.046 . S
O200 C221 1.254 . S
N201 Zn195 2.036 . S
N201 C202 1.298 . S
N201 N204 1.398 . S
C202 N201 1.298 . S
C202 N205 1.367 . S
C202 C215 1.481 . S
C203 N204 1.299 . S
C203 N205 1.379 . S
N204 N201 1.398 . S
N204 C203 1.299 . S
N205 C202 1.367 . S
N205 C203 1.379 . S
C206 N208 1.298 . S
C206 N210 1.367 . S
C206 C214 1.481 . S
C207 N209 1.299 . S
C207 N210 1.379 . S
N208 Zn192 2.036 . S
N208 C206 1.298 . S
N208 N209 1.398 . S
N209 C207 1.299 . S
N209 N208 1.398 . S
N210 C206 1.367 . S
N210 C207 1.379 . S
H211 C214 0.980 . S
H212 C214 0.981 . S
H213 C214 0.981 . S
C214 C206 1.481 . S
C214 H211 0.980 . S
C214 H212 0.981 . S
C214 H213 0.981 . S
C215 C202 1.481 . S
C215 H216 0.980 . S
C215 H217 0.981 . S
C215 H218 0.981 . S
H216 C215 0.980 . S
H217 C215 0.981 . S
H218 C215 0.981 . S
O219 Zn195 2.066 . S
O219 C198 1.256 . S
O220 Zn192 2.053 . S
O220 C198 1.244 . S
C221 O199 1.259 . S
C221 O200 1.254 . S
O222 Zn192 2.066 . S
O222 C194 1.256 . S
O223 C194 1.244 . S
O223 Zn195 2.053 . S
Zn224 O225 2.055 . S
Zn224 O232 2.046 . S
Zn224 N240 2.036 . S
Zn224 O252 2.053 . S
Zn224 O254 2.066 . S
O225 Zn224 2.055 . S
O225 C228 1.259 . S
C226 O254 1.256 . S
C226 O255 1.244 . S
Zn227 O229 2.046 . S
Zn227 O231 2.055 . S
Zn227 N233 2.036 . S
Zn227 O251 2.066 . S
Zn227 O255 2.053 . S
C228 O225 1.259 . S
C228 O229 1.254 . S
O229 Zn227 2.046 . S
O229 C228 1.254 . S
C230 O251 1.256 . S
C230 O252 1.244 . S
O231 Zn227 2.055 . S
O231 C253 1.259 . S
O232 Zn224 2.046 . S
O232 C253 1.254 . S
N233 Zn227 2.036 . S
N233 C234 1.298 . S
N233 N236 1.398 . S
C234 N233 1.298 . S
C234 N237 1.367 . S
C234 C247 1.481 . S
C235 N236 1.299 . S
C235 N237 1.379 . S
N236 N233 1.398 . S
N236 C235 1.299 . S
N237 C234 1.367 . S
N237 C235 1.379 . S
C238 N240 1.298 . S
C238 N242 1.367 . S
C238 C246 1.481 . S
C239 N241 1.299 . S
C239 N242 1.379 . S
N240 Zn224 2.036 . S
N240 C238 1.298 . S
N240 N241 1.398 . S
N241 C239 1.299 . S
N241 N240 1.398 . S
N242 C238 1.367 . S
N242 C239 1.379 . S
H243 C246 0.980 . S
H244 C246 0.981 . S
H245 C246 0.981 . S
C246 C238 1.481 . S
C246 H243 0.980 . S
C246 H244 0.981 . S
C246 H245 0.981 . S
C247 C234 1.481 . S
C247 H248 0.980 . S
C247 H249 0.981 . S
C247 H250 0.981 . S
H248 C247 0.980 . S
H249 C247 0.981 . S
H250 C247 0.981 . S
O251 Zn227 2.066 . S
O251 C230 1.256 . S
O252 Zn224 2.053 . S
O252 C230 1.244 . S
C253 O231 1.259 . S
C253 O232 1.254 . S
O254 Zn224 2.066 . S
O254 C226 1.256 . S
O255 C226 1.244 . S
O255 Zn227 2.053 . S
Zn256 O257 2.055 . S
Zn256 O264 2.046 . S
Zn256 N272 2.036 . S
Zn256 O284 2.053 . S
Zn256 O286 2.066 . S
O257 Zn256 2.055 . S
O257 C260 1.259 . S
C258 O286 1.256 . S
C258 O287 1.244 . S
Zn259 O261 2.046 . S
Zn259 O263 2.055 . S
Zn259 N265 2.036 . S
Zn259 O283 2.066 . S
Zn259 O287 2.053 . S
C260 O257 1.259 . S
C260 O261 1.254 . S
O261 Zn259 2.046 . S
O261 C260 1.254 . S
C262 O283 1.256 . S
C262 O284 1.244 . S
O263 Zn259 2.055 . S
O263 C285 1.259 . S
O264 Zn256 2.046 . S
O264 C285 1.254 . S
N265 Zn259 2.036 . S
N265 C266 1.298 . S
N265 N268 1.398 . S
C266 N265 1.298 . S
C266 N269 1.367 . S
C266 C279 1.481 . S
C267 N268 1.299 . S
C267 N269 1.379 . S
N268 N265 1.398 . S
N268 C267 1.299 . S
N269 C266 1.367 . S
N269 C267 1.379 . S
C270 N272 1.298 . S
C270 N274 1.367 . S
C270 C278 1.481 . S
C271 N273 1.299 . S
C271 N274 1.379 . S
N272 Zn256 2.036 . S
N272 C270 1.298 . S
N272 N273 1.398 . S
N273 C271 1.299 . S
N273 N272 1.398 . S
N274 C270 1.367 . S
N274 C271 1.379 . S
H275 C278 0.980 . S
H276 C278 0.981 . S
H277 C278 0.981 . S
C278 C270 1.481 . S
C278 H275 0.980 . S
C278 H276 0.981 . S
C278 H277 0.981 . S
C279 C266 1.481 . S
C279 H280 0.980 . S
C279 H281 0.981 . S
C279 H282 0.981 . S
H280 C279 0.980 . S
H281 C279 0.981 . S
H282 C279 0.981 . S
O283 Zn259 2.066 . S
O283 C262 1.256 . S
O284 Zn256 2.053 . S
O284 C262 1.244 . S
C285 O263 1.259 . S
C285 O264 1.254 . S
O286 Zn256 2.066 . S
O286 C258 1.256 . S
O287 C258 1.244 . S
O287 Zn259 2.053 . S
Zn288 O289 2.055 . S
Zn288 O296 2.046 . S
Zn288 N304 2.036 . S
Zn288 O316 2.053 . S
Zn288 O318 2.066 . S
O289 Zn288 2.055 . S
O289 C292 1.259 . S
C290 O318 1.256 . S
C290 O319 1.244 . S
Zn291 O293 2.046 . S
Zn291 O295 2.055 . S
Zn291 N297 2.036 . S
Zn291 O315 2.066 . S
Zn291 O319 2.053 . S
C292 O289 1.259 . S
C292 O293 1.254 . S
O293 Zn291 2.046 . S
O293 C292 1.254 . S
C294 O315 1.256 . S
C294 O316 1.244 . S
O295 Zn291 2.055 . S
O295 C317 1.259 . S
O296 Zn288 2.046 . S
O296 C317 1.254 . S
N297 Zn291 2.036 . S
N297 C298 1.298 . S
N297 N300 1.398 . S
C298 N297 1.298 . S
C298 N301 1.367 . S
C298 C311 1.481 . S
C299 N300 1.299 . S
C299 N301 1.379 . S
N300 N297 1.398 . S
N300 C299 1.299 . S
N301 C298 1.367 . S
N301 C299 1.379 . S
C302 N304 1.298 . S
C302 N306 1.367 . S
C302 C310 1.481 . S
C303 N305 1.299 . S
C303 N306 1.379 . S
N304 Zn288 2.036 . S
N304 C302 1.298 . S
N304 N305 1.398 . S
N305 C303 1.299 . S
N305 N304 1.398 . S
N306 C302 1.367 . S
N306 C303 1.379 . S
H307 C310 0.980 . S
H308 C310 0.981 . S
H309 C310 0.981 . S
C310 C302 1.481 . S
C310 H307 0.980 . S
C310 H308 0.981 . S
C310 H309 0.981 . S
C311 C298 1.481 . S
C311 H312 0.980 . S
C311 H313 0.981 . S
C311 H314 0.981 . S
H312 C311 0.980 . S
H313 C311 0.981 . S
H314 C311 0.981 . S
O315 Zn291 2.066 . S
O315 C294 1.256 . S
O316 Zn288 2.053 . S
O316 C294 1.244 . S
C317 O295 1.259 . S
C317 O296 1.254 . S
O318 Zn288 2.066 . S
O318 C290 1.256 . S
O319 C290 1.244 . S
O319 Zn291 2.053 . S
Zn320 O321 2.055 . S
Zn320 O328 2.046 . S
Zn320 N336 2.036 . S
Zn320 O348 2.053 . S
Zn320 O350 2.066 . S
O321 Zn320 2.055 . S
O321 C324 1.259 . S
C322 O350 1.256 . S
C322 O351 1.244 . S
Zn323 O325 2.046 . S
Zn323 O327 2.055 . S
Zn323 N329 2.036 . S
Zn323 O347 2.066 . S
Zn323 O351 2.053 . S
C324 O321 1.259 . S
C324 O325 1.254 . S
O325 Zn323 2.046 . S
O325 C324 1.254 . S
C326 O347 1.256 . S
C326 O348 1.244 . S
O327 Zn323 2.055 . S
O327 C349 1.259 . S
O328 Zn320 2.046 . S
O328 C349 1.254 . S
N329 Zn323 2.036 . S
N329 C330 1.298 . S
N329 N332 1.398 . S
C330 N329 1.298 . S
C330 N333 1.367 . S
C330 C343 1.481 . S
C331 N332 1.299 . S
C331 N333 1.379 . S
N332 N329 1.398 . S
N332 C331 1.299 . S
N333 C330 1.367 . S
N333 C331 1.379 . S
C334 N336 1.298 . S
C334 N338 1.367 . S
C334 C342 1.481 . S
C335 N337 1.299 . S
C335 N338 1.379 . S
N336 Zn320 2.036 . S
N336 C334 1.298 . S
N336 N337 1.398 . S
N337 C335 1.299 . S
N337 N336 1.398 . S
N338 C334 1.367 . S
N338 C335 1.379 . S
H339 C342 0.980 . S
H340 C342 0.981 . S
H341 C342 0.981 . S
C342 C334 1.481 . S
C342 H339 0.980 . S
C342 H340 0.981 . S
C342 H341 0.981 . S
C343 C330 1.481 . S
C343 H344 0.980 . S
C343 H345 0.981 . S
C343 H346 0.981 . S
H344 C343 0.980 . S
H345 C343 0.981 . S
H346 C343 0.981 . S
O347 Zn323 2.066 . S
O347 C326 1.256 . S
O348 Zn320 2.053 . S
O348 C326 1.244 . S
C349 O327 1.259 . S
C349 O328 1.254 . S
O350 Zn320 2.066 . S
O350 C322 1.256 . S
O351 C322 1.244 . S
O351 Zn323 2.053 . S
Zn352 O353 2.055 . S
Zn352 O360 2.046 . S
Zn352 N368 2.036 . S
Zn352 O380 2.053 . S
Zn352 O382 2.066 . S
O353 Zn352 2.055 . S
O353 C356 1.259 . S
C354 O382 1.256 . S
C354 O383 1.244 . S
Zn355 O357 2.046 . S
Zn355 O359 2.055 . S
Zn355 N361 2.036 . S
Zn355 O379 2.066 . S
Zn355 O383 2.053 . S
C356 O353 1.259 . S
C356 O357 1.254 . S
O357 Zn355 2.046 . S
O357 C356 1.254 . S
C358 O379 1.256 . S
C358 O380 1.244 . S
O359 Zn355 2.055 . S
O359 C381 1.259 . S
O360 Zn352 2.046 . S
O360 C381 1.254 . S
N361 Zn355 2.036 . S
N361 C362 1.298 . S
N361 N364 1.398 . S
C362 N361 1.298 . S
C362 N365 1.367 . S
C362 C375 1.481 . S
C363 N364 1.299 . S
C363 N365 1.379 . S
N364 N361 1.398 . S
N364 C363 1.299 . S
N365 C362 1.367 . S
N365 C363 1.379 . S
C366 N368 1.298 . S
C366 N370 1.367 . S
C366 C374 1.481 . S
C367 N369 1.299 . S
C367 N370 1.379 . S
N368 Zn352 2.036 . S
N368 C366 1.298 . S
N368 N369 1.398 . S
N369 C367 1.299 . S
N369 N368 1.398 . S
N370 C366 1.367 . S
N370 C367 1.379 . S
H371 C374 0.980 . S
H372 C374 0.981 . S
H373 C374 0.981 . S
C374 C366 1.481 . S
C374 H371 0.980 . S
C374 H372 0.981 . S
C374 H373 0.981 . S
C375 C362 1.481 . S
C375 H376 0.980 . S
C375 H377 0.981 . S
C375 H378 0.981 . S
H376 C375 0.980 . S
H377 C375 0.981 . S
H378 C375 0.981 . S
O379 Zn355 2.066 . S
O379 C358 1.256 . S
O380 Zn352 2.053 . S
O380 C358 1.244 . S
C381 O359 1.259 . S
C381 O360 1.254 . S
O382 Zn352 2.066 . S
O382 C354 1.256 . S
O383 C354 1.244 . S
O383 Zn355 2.053 . S
Zn384 O385 2.055 . S
Zn384 O392 2.046 . S
Zn384 N400 2.036 . S
Zn384 O412 2.053 . S
Zn384 O414 2.066 . S
O385 Zn384 2.055 . S
O385 C388 1.259 . S
C386 O414 1.256 . S
C386 O415 1.244 . S
Zn387 O389 2.046 . S
Zn387 O391 2.055 . S
Zn387 N393 2.036 . S
Zn387 O411 2.066 . S
Zn387 O415 2.053 . S
C388 O385 1.259 . S
C388 O389 1.254 . S
O389 Zn387 2.046 . S
O389 C388 1.254 . S
C390 O411 1.256 . S
C390 O412 1.244 . S
O391 Zn387 2.055 . S
O391 C413 1.259 . S
O392 Zn384 2.046 . S
O392 C413 1.254 . S
N393 Zn387 2.036 . S
N393 C394 1.298 . S
N393 N396 1.398 . S
C394 N393 1.298 . S
C394 N397 1.367 . S
C394 C407 1.481 . S
C395 N396 1.299 . S
C395 N397 1.379 . S
N396 N393 1.398 . S
N396 C395 1.299 . S
N397 C394 1.367 . S
N397 C395 1.379 . S
C398 N400 1.298 . S
C398 N402 1.367 . S
C398 C406 1.481 . S
C399 N401 1.299 . S
C399 N402 1.379 . S
N400 Zn384 2.036 . S
N400 C398 1.298 . S
N400 N401 1.398 . S
N401 C399 1.299 . S
N401 N400 1.398 . S
N402 C398 1.367 . S
N402 C399 1.379 . S
H403 C406 0.980 . S
H404 C406 0.981 . S
H405 C406 0.981 . S
C406 C398 1.481 . S
C406 H403 0.980 . S
C406 H404 0.981 . S
C406 H405 0.981 . S
C407 C394 1.481 . S
C407 H408 0.980 . S
C407 H409 0.981 . S
C407 H410 0.981 . S
H408 C407 0.980 . S
H409 C407 0.981 . S
H410 C407 0.981 . S
O411 Zn387 2.066 . S
O411 C390 1.256 . S
O412 Zn384 2.053 . S
O412 C390 1.244 . S
C413 O391 1.259 . S
C413 O392 1.254 . S
O414 Zn384 2.066 . S
O414 C386 1.256 . S
O415 C386 1.244 . S
O415 Zn387 2.053 . S
Zn416 O417 2.055 . S
Zn416 O424 2.046 . S
Zn416 N432 2.036 . S
Zn416 O444 2.053 . S
Zn416 O446 2.066 . S
O417 Zn416 2.055 . S
O417 C420 1.259 . S
C418 O446 1.256 . S
C418 O447 1.244 . S
Zn419 O421 2.046 . S
Zn419 O423 2.055 . S
Zn419 N425 2.036 . S
Zn419 O443 2.066 . S
Zn419 O447 2.053 . S
C420 O417 1.259 . S
C420 O421 1.254 . S
O421 Zn419 2.046 . S
O421 C420 1.254 . S
C422 O443 1.256 . S
C422 O444 1.244 . S
O423 Zn419 2.055 . S
O423 C445 1.259 . S
O424 Zn416 2.046 . S
O424 C445 1.254 . S
N425 Zn419 2.036 . S
N425 C426 1.298 . S
N425 N428 1.398 . S
C426 N425 1.298 . S
C426 N429 1.367 . S
C426 C439 1.481 . S
C427 N428 1.299 . S
C427 N429 1.379 . S
N428 N425 1.398 . S
N428 C427 1.299 . S
N429 C426 1.367 . S
N429 C427 1.379 . S
C430 N432 1.298 . S
C430 N434 1.367 . S
C430 C438 1.481 . S
C431 N433 1.299 . S
C431 N434 1.379 . S
N432 Zn416 2.036 . S
N432 C430 1.298 . S
N432 N433 1.398 . S
N433 C431 1.299 . S
N433 N432 1.398 . S
N434 C430 1.367 . S
N434 C431 1.379 . S
H435 C438 0.980 . S
H436 C438 0.981 . S
H437 C438 0.981 . S
C438 C430 1.481 . S
C438 H435 0.980 . S
C438 H436 0.981 . S
C438 H437 0.981 . S
C439 C426 1.481 . S
C439 H440 0.980 . S
C439 H441 0.981 . S
C439 H442 0.981 . S
H440 C439 0.980 . S
H441 C439 0.981 . S
H442 C439 0.981 . S
O443 Zn419 2.066 . S
O443 C422 1.256 . S
O444 Zn416 2.053 . S
O444 C422 1.244 . S
C445 O423 1.259 . S
C445 O424 1.254 . S
O446 Zn416 2.066 . S
O446 C418 1.256 . S
O447 C418 1.244 . S
O447 Zn419 2.053 . S
Zn448 O449 2.055 . S
Zn448 O456 2.046 . S
Zn448 N464 2.036 . S
Zn448 O476 2.053 . S
Zn448 O478 2.066 . S
O449 Zn448 2.055 . S
O449 C452 1.259 . S
C450 O478 1.256 . S
C450 O479 1.244 . S
Zn451 O453 2.046 . S
Zn451 O455 2.055 . S
Zn451 N457 2.036 . S
Zn451 O475 2.066 . S
Zn451 O479 2.053 . S
C452 O449 1.259 . S
C452 O453 1.254 . S
O453 Zn451 2.046 . S
O453 C452 1.254 . S
C454 O475 1.256 . S
C454 O476 1.244 . S
O455 Zn451 2.055 . S
O455 C477 1.259 . S
O456 Zn448 2.046 . S
O456 C477 1.254 . S
N457 Zn451 2.036 . S
N457 C458 1.298 . S
N457 N460 1.398 . S
C458 N457 1.298 . S
C458 N461 1.367 . S
C458 C471 1.481 . S
C459 N460 1.299 . S
C459 N461 1.379 . S
N460 N457 1.398 . S
N460 C459 1.299 . S
N461 C458 1.367 . S
N461 C459 1.379 . S
C462 N464 1.298 . S
C462 N466 1.367 . S
C462 C470 1.481 . S
C463 N465 1.299 . S
C463 N466 1.379 . S
N464 Zn448 2.036 . S
N464 C462 1.298 . S
N464 N465 1.398 . S
N465 C463 1.299 . S
N465 N464 1.398 . S
N466 C462 1.367 . S
N466 C463 1.379 . S
H467 C470 0.980 . S
H468 C470 0.981 . S
H469 C470 0.981 . S
C470 C462 1.481 . S
C470 H467 0.980 . S
C470 H468 0.981 . S
C470 H469 0.981 . S
C471 C458 1.481 . S
C471 H472 0.980 . S
C471 H473 0.981 . S
C471 H474 0.981 . S
H472 C471 0.980 . S
H473 C471 0.981 . S
H474 C471 0.981 . S
O475 Zn451 2.066 . S
O475 C454 1.256 . S
O476 Zn448 2.053 . S
O476 C454 1.244 . S
C477 O455 1.259 . S
C477 O456 1.254 . S
O478 Zn448 2.066 . S
O478 C450 1.256 . S
O479 C450 1.244 . S
O479 Zn451 2.053 . S
Zn480 O481 2.055 . S
Zn480 O488 2.046 . S
Zn480 N496 2.036 . S
Zn480 O508 2.053 . S
Zn480 O510 2.066 . S
O481 Zn480 2.055 . S
O481 C484 1.259 . S
C482 O510 1.256 . S
C482 O511 1.244 . S
Zn483 O485 2.046 . S
Zn483 O487 2.055 . S
Zn483 N489 2.036 . S
Zn483 O507 2.066 . S
Zn483 O511 2.053 . S
C484 O481 1.259 . S
C484 O485 1.254 . S
O485 Zn483 2.046 . S
O485 C484 1.254 . S
C486 O507 1.256 . S
C486 O508 1.244 . S
O487 Zn483 2.055 . S
O487 C509 1.259 . S
O488 Zn480 2.046 . S
O488 C509 1.254 . S
N489 Zn483 2.036 . S
N489 C490 1.298 . S
N489 N492 1.398 . S
C490 N489 1.298 . S
C490 N493 1.367 . S
C490 C503 1.481 . S
C491 N492 1.299 . S
C491 N493 1.379 . S
N492 N489 1.398 . S
N492 C491 1.299 . S
N493 C490 1.367 . S
N493 C491 1.379 . S
C494 N496 1.298 . S
C494 N498 1.367 . S
C494 C502 1.481 . S
C495 N497 1.299 . S
C495 N498 1.379 . S
N496 Zn480 2.036 . S
N496 C494 1.298 . S
N496 N497 1.398 . S
N497 C495 1.299 . S
N497 N496 1.398 . S
N498 C494 1.367 . S
N498 C495 1.379 . S
H499 C502 0.980 . S
H500 C502 0.981 . S
H501 C502 0.981 . S
C502 C494 1.481 . S
C502 H499 0.980 . S
C502 H500 0.981 . S
C502 H501 0.981 . S
C503 C490 1.481 . S
C503 H504 0.980 . S
C503 H505 0.981 . S
C503 H506 0.981 . S
H504 C503 0.980 . S
H505 C503 0.981 . S
H506 C503 0.981 . S
O507 Zn483 2.066 . S
O507 C486 1.256 . S
O508 Zn480 2.053 . S
O508 C486 1.244 . S
C509 O487 1.259 . S
C509 O488 1.254 . S
O510 Zn480 2.066 . S
O510 C482 1.256 . S
O511 C482 1.244 . S
O511 Zn483 2.053 . S
Zn512 O513 2.055 . S
Zn512 O520 2.046 . S
Zn512 N528 2.036 . S
Zn512 O540 2.053 . S
Zn512 O542 2.066 . S
O513 Zn512 2.055 . S
O513 C516 1.259 . S
C514 O542 1.256 . S
C514 O543 1.244 . S
Zn515 O517 2.046 . S
Zn515 O519 2.055 . S
Zn515 N521 2.036 . S
Zn515 O539 2.066 . S
Zn515 O543 2.053 . S
C516 O513 1.259 . S
C516 O517 1.254 . S
O517 Zn515 2.046 . S
O517 C516 1.254 . S
C518 O539 1.256 . S
C518 O540 1.244 . S
O519 Zn515 2.055 . S
O519 C541 1.259 . S
O520 Zn512 2.046 . S
O520 C541 1.254 . S
N521 Zn515 2.036 . S
N521 C522 1.298 . S
N521 N524 1.398 . S
C522 N521 1.298 . S
C522 N525 1.367 . S
C522 C535 1.481 . S
C523 N524 1.299 . S
C523 N525 1.379 . S
N524 N521 1.398 . S
N524 C523 1.299 . S
N525 C522 1.367 . S
N525 C523 1.379 . S
C526 N528 1.298 . S
C526 N530 1.367 . S
C526 C534 1.481 . S
C527 N529 1.299 . S
C527 N530 1.379 . S
N528 Zn512 2.036 . S
N528 C526 1.298 . S
N528 N529 1.398 . S
N529 C527 1.299 . S
N529 N528 1.398 . S
N530 C526 1.367 . S
N530 C527 1.379 . S
H531 C534 0.980 . S
H532 C534 0.981 . S
H533 C534 0.981 . S
C534 C526 1.481 . S
C534 H531 0.980 . S
C534 H532 0.981 . S
C534 H533 0.981 . S
C535 C522 1.481 . S
C535 H536 0.980 . S
C535 H537 0.981 . S
C535 H538 0.981 . S
H536 C535 0.980 . S
H537 C535 0.981 . S
H538 C535 0.981 . S
O539 Zn515 2.066 . S
O539 C518 1.256 . S
O540 Zn512 2.053 . S
O540 C518 1.244 . S
C541 O519 1.259 . S
C541 O520 1.254 . S
O542 Zn512 2.066 . S
O542 C514 1.256 . S
O543 C514 1.244 . S
O543 Zn515 2.053 . S
Zn544 O545 2.055 . S
Zn544 O552 2.046 . S
Zn544 N560 2.036 . S
Zn544 O572 2.053 . S
Zn544 O574 2.066 . S
O545 Zn544 2.055 . S
O545 C548 1.259 . S
C546 O574 1.256 . S
C546 O575 1.244 . S
Zn547 O549 2.046 . S
Zn547 O551 2.055 . S
Zn547 N553 2.036 . S
Zn547 O571 2.066 . S
Zn547 O575 2.053 . S
C548 O545 1.259 . S
C548 O549 1.254 . S
O549 Zn547 2.046 . S
O549 C548 1.254 . S
C550 O571 1.256 . S
C550 O572 1.244 . S
O551 Zn547 2.055 . S
O551 C573 1.259 . S
O552 Zn544 2.046 . S
O552 C573 1.254 . S
N553 Zn547 2.036 . S
N553 C554 1.298 . S
N553 N556 1.398 . S
C554 N553 1.298 . S
C554 N557 1.367 . S
C554 C567 1.481 . S
C555 N556 1.299 . S
C555 N557 1.379 . S
N556 N553 1.398 . S
N556 C555 1.299 . S
N557 C554 1.367 . S
N557 C555 1.379 . S
C558 N560 1.298 . S
C558 N562 1.367 . S
C558 C566 1.481 . S
C559 N561 1.299 . S
C559 N562 1.379 . S
N560 Zn544 2.036 . S
N560 C558 1.298 . S
N560 N561 1.398 . S
N561 C559 1.299 . S
N561 N560 1.398 . S
N562 C558 1.367 . S
N562 C559 1.379 . S
H563 C566 0.980 . S
H564 C566 0.981 . S
H565 C566 0.981 . S
C566 C558 1.481 . S
C566 H563 0.980 . S
C566 H564 0.981 . S
C566 H565 0.981 . S
C567 C554 1.481 . S
C567 H568 0.980 . S
C567 H569 0.981 . S
C567 H570 0.981 . S
H568 C567 0.980 . S
H569 C567 0.981 . S
H570 C567 0.981 . S
O571 Zn547 2.066 . S
O571 C550 1.256 . S
O572 Zn544 2.053 . S
O572 C550 1.244 . S
C573 O551 1.259 . S
C573 O552 1.254 . S
O574 Zn544 2.066 . S
O574 C546 1.256 . S
O575 C546 1.244 . S
O575 Zn547 2.053 . S
H576 C584 0.950 . S
H577 C589 0.950 . S
H578 C586 0.950 . S
H579 C588 0.950 . S
H580 C590 0.950 . S
H581 C592 0.950 . S
H582 C594 0.950 . S
H583 C595 0.950 . S
C584 H576 0.950 . S
C584 C585 1.386 . S
C584 C586 1.391 . S
C585 C584 1.386 . S
C585 C589 1.393 . S
C586 H578 0.950 . S
C586 C584 1.391 . S
C586 C587 1.400 . S
C587 C586 1.400 . S
C587 C588 1.398 . S
C587 C593 1.491 . S
C588 H579 0.950 . S
C588 C587 1.398 . S
C588 C589 1.391 . S
C589 H577 0.950 . S
C589 C585 1.393 . S
C589 C588 1.391 . S
C590 H580 0.950 . S
C590 C591 1.386 . S
C590 C592 1.391 . S
C591 C590 1.386 . S
C591 C595 1.393 . S
C592 H581 0.950 . S
C592 C590 1.391 . S
C592 C593 1.400 . S
C593 C587 1.491 . S
C593 C592 1.400 . S
C593 C594 1.398 . S
C594 H582 0.950 . S
C594 C593 1.398 . S
C594 C595 1.391 . S
C595 H583 0.950 . S
C595 C591 1.393 . S
C595 C594 1.391 . S
H596 C604 0.950 . S
H597 C609 0.950 . S
H598 C606 0.950 . S
H599 C608 0.950 . S
H600 C610 0.950 . S
H601 C612 0.950 . S
H602 C614 0.950 . S
H603 C615 0.950 . S
C604 H596 0.950 . S
C604 C605 1.386 . S
C604 C606 1.391 . S
C605 C604 1.386 . S
C605 C609 1.393 . S
C606 H598 0.950 . S
C606 C604 1.391 . S
C606 C607 1.400 . S
C607 C606 1.400 . S
C607 C608 1.398 . S
C607 C613 1.491 . S
C608 H599 0.950 . S
C608 C607 1.398 . S
C608 C609 1.391 . S
C609 H597 0.950 . S
C609 C605 1.393 . S
C609 C608 1.391 . S
C610 H600 0.950 . S
C610 C611 1.386 . S
C610 C612 1.391 . S
C611 C610 1.386 . S
C611 C615 1.393 . S
C612 H601 0.950 . S
C612 C610 1.391 . S
C612 C613 1.400 . S
C613 C607 1.491 . S
C613 C612 1.400 . S
C613 C614 1.398 . S
C614 H602 0.950 . S
C614 C613 1.398 . S
C614 C615 1.391 . S
C615 H603 0.950 . S
C615 C611 1.393 . S
C615 C614 1.391 . S
H616 C624 0.950 . S
H617 C629 0.950 . S
H618 C626 0.950 . S
H619 C628 0.950 . S
H620 C630 0.950 . S
H621 C632 0.950 . S
H622 C634 0.950 . S
H623 C635 0.950 . S
C624 H616 0.950 . S
C624 C625 1.386 . S
C624 C626 1.391 . S
C625 C624 1.386 . S
C625 C629 1.393 . S
C626 H618 0.950 . S
C626 C624 1.391 . S
C626 C627 1.400 . S
C627 C626 1.400 . S
C627 C628 1.398 . S
C627 C633 1.491 . S
C628 H619 0.950 . S
C628 C627 1.398 . S
C628 C629 1.391 . S
C629 H617 0.950 . S
C629 C625 1.393 . S
C629 C628 1.391 . S
C630 H620 0.950 . S
C630 C631 1.386 . S
C630 C632 1.391 . S
C631 C630 1.386 . S
C631 C635 1.393 . S
C632 H621 0.950 . S
C632 C630 1.391 . S
C632 C633 1.400 . S
C633 C627 1.491 . S
C633 C632 1.400 . S
C633 C634 1.398 . S
C634 H622 0.950 . S
C634 C633 1.398 . S
C634 C635 1.391 . S
C635 H623 0.950 . S
C635 C631 1.393 . S
C635 C634 1.391 . S
H636 C644 0.950 . S
H637 C649 0.950 . S
H638 C646 0.950 . S
H639 C648 0.950 . S
H640 C650 0.950 . S
H641 C652 0.950 . S
H642 C654 0.950 . S
H643 C655 0.950 . S
C644 H636 0.950 . S
C644 C645 1.386 . S
C644 C646 1.391 . S
C645 C644 1.386 . S
C645 C649 1.393 . S
C646 H638 0.950 . S
C646 C644 1.391 . S
C646 C647 1.400 . S
C647 C646 1.400 . S
C647 C648 1.398 . S
C647 C653 1.491 . S
C648 H639 0.950 . S
C648 C647 1.398 . S
C648 C649 1.391 . S
C649 H637 0.950 . S
C649 C645 1.393 . S
C649 C648 1.391 . S
C650 H640 0.950 . S
C650 C651 1.386 . S
C650 C652 1.391 . S
C651 C650 1.386 . S
C651 C655 1.393 . S
C652 H641 0.950 . S
C652 C650 1.391 . S
C652 C653 1.400 . S
C653 C647 1.491 . S
C653 C652 1.400 . S
C653 C654 1.398 . S
C654 H642 0.950 . S
C654 C653 1.398 . S
C654 C655 1.391 . S
C655 H643 0.950 . S
C655 C651 1.393 . S
C655 C654 1.391 . S
H656 C664 0.950 . S
H657 C669 0.950 . S
H658 C666 0.950 . S
H659 C668 0.950 . S
H660 C670 0.950 . S
H661 C672 0.950 . S
H662 C674 0.950 . S
H663 C675 0.950 . S
C664 H656 0.950 . S
C664 C665 1.386 . S
C664 C666 1.391 . S
C665 C664 1.386 . S
C665 C669 1.393 . S
C666 H658 0.950 . S
C666 C664 1.391 . S
C666 C667 1.400 . S
C667 C666 1.400 . S
C667 C668 1.398 . S
C667 C673 1.491 . S
C668 H659 0.950 . S
C668 C667 1.398 . S
C668 C669 1.391 . S
C669 H657 0.950 . S
C669 C665 1.393 . S
C669 C668 1.391 . S
C670 H660 0.950 . S
C670 C671 1.386 . S
C670 C672 1.391 . S
C671 C670 1.386 . S
C671 C675 1.393 . S
C672 H661 0.950 . S
C672 C670 1.391 . S
C672 C673 1.400 . S
C673 C667 1.491 . S
C673 C672 1.400 . S
C673 C674 1.398 . S
C674 H662 0.950 . S
C674 C673 1.398 . S
C674 C675 1.391 . S
C675 H663 0.950 . S
C675 C671 1.393 . S
C675 C674 1.391 . S
H676 C684 0.950 . S
H677 C689 0.950 . S
H678 C686 0.950 . S
H679 C688 0.950 . S
H680 C690 0.950 . S
H681 C692 0.950 . S
H682 C694 0.950 . S
H683 C695 0.950 . S
C684 H676 0.950 . S
C684 C685 1.386 . S
C684 C686 1.391 . S
C685 C684 1.386 . S
C685 C689 1.393 . S
C686 H678 0.950 . S
C686 C684 1.391 . S
C686 C687 1.400 . S
C687 C686 1.400 . S
C687 C688 1.398 . S
C687 C693 1.491 . S
C688 H679 0.950 . S
C688 C687 1.398 . S
C688 C689 1.391 . S
C689 H677 0.950 . S
C689 C685 1.393 . S
C689 C688 1.391 . S
C690 H680 0.950 . S
C690 C691 1.386 . S
C690 C692 1.391 . S
C691 C690 1.386 . S
C691 C695 1.393 . S
C692 H681 0.950 . S
C692 C690 1.391 . S
C692 C693 1.400 . S
C693 C687 1.491 . S
C693 C692 1.400 . S
C693 C694 1.398 . S
C694 H682 0.950 . S
C694 C693 1.398 . S
C694 C695 1.391 . S
C695 H683 0.950 . S
C695 C691 1.393 . S
C695 C694 1.391 . S
H696 C704 0.950 . S
H697 C709 0.950 1_565 S
H698 C706 0.950 . S
H699 C708 0.950 . S
H700 C710 0.950 . S
H701 C712 0.950 . S
H702 C714 0.950 . S
H703 C715 0.950 . S
C704 H696 0.950 . S
C704 C705 1.386 . S
C704 C706 1.391 . S
C705 C704 1.386 . S
C705 C709 1.393 . S
C706 H698 0.950 . S
C706 C704 1.391 . S
C706 C707 1.400 . S
C707 C706 1.400 . S
C707 C708 1.398 . S
C707 C713 1.491 . S
C708 H699 0.950 . S
C708 C707 1.398 . S
C708 C709 1.391 . S
C709 H697 0.950 1_545 S
C709 C705 1.393 . S
C709 C708 1.391 . S
C710 H700 0.950 . S
C710 C711 1.386 . S
C710 C712 1.391 . S
C711 C710 1.386 . S
C711 C715 1.393 . S
C712 H701 0.950 . S
C712 C710 1.391 . S
C712 C713 1.400 . S
C713 C707 1.491 . S
C713 C712 1.400 . S
C713 C714 1.398 . S
C714 H702 0.950 . S
C714 C713 1.398 . S
C714 C715 1.391 . S
C715 H703 0.950 . S
C715 C711 1.393 . S
C715 C714 1.391 . S
H716 C724 0.950 . S
H717 C729 0.950 . S
H718 C726 0.950 . S
H719 C728 0.935 1_455 S
H720 C730 0.950 . S
H721 C732 0.950 . S
H722 C734 0.950 . S
H723 C735 0.950 . S
C724 H716 0.950 . S
C724 C725 1.386 1_655 S
C724 C726 1.391 . S
C725 C724 1.386 1_455 S
C725 C729 1.393 . S
C726 H718 0.950 . S
C726 C724 1.391 . S
C726 C727 1.400 . S
C727 C726 1.400 . S
C727 C728 1.422 . S
C727 C733 1.491 . S
C728 H719 0.935 1_655 S
C728 C727 1.422 . S
C728 C729 1.382 1_655 S
C729 H717 0.950 . S
C729 C725 1.393 . S
C729 C728 1.382 1_455 S
C730 H720 0.950 . S
C730 C731 1.386 . S
C730 C732 1.391 1_565 S
C731 C730 1.386 . S
C731 C735 1.393 1_565 S
C732 H721 0.950 . S
C732 C730 1.391 1_545 S
C732 C733 1.400 . S
C733 C727 1.491 . S
C733 C732 1.400 . S
C733 C734 1.398 . S
C734 H722 0.950 . S
C734 C733 1.398 . S
C734 C735 1.391 . S
C735 H723 0.950 . S
C735 C731 1.393 1_545 S
C735 C734 1.391 . S
H736 C744 0.950 . S
H737 C749 0.950 . S
H738 C746 0.950 . S
H739 C748 0.950 . S
H740 C750 0.950 . S
H741 C752 0.950 . S
H742 C754 0.950 . S
H743 C755 0.950 . S
C744 H736 0.950 . S
C744 C745 1.386 . S
C744 C746 1.391 . S
C745 C744 1.386 . S
C745 C749 1.393 . S
C746 H738 0.950 . S
C746 C744 1.391 . S
C746 C747 1.400 1_455 S
C747 C746 1.400 1_655 S
C747 C748 1.398 . S
C747 C753 1.491 . S
C748 H739 0.950 . S
C748 C747 1.398 . S
C748 C749 1.391 1_655 S
C749 H737 0.950 . S
C749 C745 1.393 . S
C749 C748 1.391 1_455 S
C750 H740 0.950 . S
C750 C751 1.386 . S
C750 C752 1.391 . S
C751 C750 1.386 . S
C751 C755 1.393 . S
C752 H741 0.950 . S
C752 C750 1.391 . S
C752 C753 1.400 . S
C753 C747 1.491 . S
C753 C752 1.400 . S
C753 C754 1.398 . S
C754 H742 0.950 . S
C754 C753 1.398 . S
C754 C755 1.391 . S
C755 H743 0.950 . S
C755 C751 1.393 . S
C755 C754 1.391 . S
H756 C764 0.950 . S
H757 C769 0.950 . S
H758 C766 0.950 . S
H759 C768 0.950 . S
H760 C770 0.950 . S
H761 C772 0.950 . S
H762 C774 0.950 . S
H763 C775 0.950 . S
C764 H756 0.950 . S
C764 C765 1.386 . S
C764 C766 1.391 . S
C765 C764 1.386 . S
C765 C769 1.393 . S
C766 H758 0.950 . S
C766 C764 1.391 . S
C766 C767 1.400 . S
C767 C766 1.400 . S
C767 C768 1.398 . S
C767 C773 1.491 . S
C768 H759 0.950 . S
C768 C767 1.398 . S
C768 C769 1.391 . S
C769 H757 0.950 . S
C769 C765 1.393 . S
C769 C768 1.391 . S
C770 H760 0.950 . S
C770 C771 1.386 . S
C770 C772 1.391 . S
C771 C770 1.386 . S
C771 C775 1.393 . S
C772 H761 0.950 . S
C772 C770 1.391 . S
C772 C773 1.400 . S
C773 C767 1.491 . S
C773 C772 1.400 . S
C773 C774 1.398 . S
C774 H762 0.950 . S
C774 C773 1.398 . S
C774 C775 1.391 . S
C775 H763 0.950 . S
C775 C771 1.393 . S
C775 C774 1.391 . S
H776 C784 0.950 . S
H777 C789 0.950 . S
H778 C786 0.950 . S
H779 C788 0.950 . S
H780 C790 0.950 . S
H781 C792 0.950 . S
H782 C794 0.950 . S
H783 C795 0.950 . S
C784 H776 0.950 . S
C784 C785 1.386 . S
C784 C786 1.391 . S
C785 C784 1.386 . S
C785 C789 1.393 . S
C786 H778 0.950 . S
C786 C784 1.391 . S
C786 C787 1.400 . S
C787 C786 1.400 . S
C787 C788 1.398 . S
C787 C793 1.491 . S
C788 H779 0.950 . S
C788 C787 1.398 . S
C788 C789 1.391 . S
C789 H777 0.950 . S
C789 C785 1.393 . S
C789 C788 1.391 . S
C790 H780 0.950 . S
C790 C791 1.386 . S
C790 C792 1.391 . S
C791 C790 1.386 . S
C791 C795 1.393 . S
C792 H781 0.950 . S
C792 C790 1.391 . S
C792 C793 1.400 . S
C793 C787 1.491 . S
C793 C792 1.400 . S
C793 C794 1.398 . S
C794 H782 0.950 . S
C794 C793 1.398 . S
C794 C795 1.391 . S
C795 H783 0.950 . S
C795 C791 1.393 . S
C795 C794 1.391 . S
H796 C804 0.950 . S
H797 C809 0.950 . S
H798 C806 0.950 . S
H799 C808 0.950 . S
H800 C810 0.950 . S
H801 C812 0.950 . S
H802 C814 0.950 . S
H803 C815 0.950 . S
C804 H796 0.950 . S
C804 C805 1.386 . S
C804 C806 1.391 . S
C805 C804 1.386 . S
C805 C809 1.393 . S
C806 H798 0.950 . S
C806 C804 1.391 . S
C806 C807 1.400 . S
C807 C806 1.400 . S
C807 C808 1.398 . S
C807 C813 1.491 . S
C808 H799 0.950 . S
C808 C807 1.398 . S
C808 C809 1.391 . S
C809 H797 0.950 . S
C809 C805 1.393 . S
C809 C808 1.391 . S
C810 H800 0.950 . S
C810 C811 1.386 . S
C810 C812 1.391 . S
C811 C810 1.386 . S
C811 C815 1.393 . S
C812 H801 0.950 . S
C812 C810 1.391 . S
C812 C813 1.400 . S
C813 C807 1.491 . S
C813 C812 1.400 . S
C813 C814 1.398 . S
C814 H802 0.950 . S
C814 C813 1.398 . S
C814 C815 1.391 . S
C815 H803 0.950 . S
C815 C811 1.393 . S
C815 C814 1.391 . S
H816 C824 0.950 . S
H817 C829 0.950 . S
H818 C826 0.950 . S
H819 C828 0.950 . S
H820 C830 0.950 . S
H821 C832 0.950 . S
H822 C834 0.950 . S
H823 C835 0.950 . S
C824 H816 0.950 . S
C824 C825 1.386 . S
C824 C826 1.391 . S
C825 C824 1.386 . S
C825 C829 1.393 . S
C826 H818 0.950 . S
C826 C824 1.391 . S
C826 C827 1.400 . S
C827 C826 1.400 . S
C827 C828 1.398 . S
C827 C833 1.491 . S
C828 H819 0.950 . S
C828 C827 1.398 . S
C828 C829 1.391 . S
C829 H817 0.950 . S
C829 C825 1.393 . S
C829 C828 1.391 . S
C830 H820 0.950 . S
C830 C831 1.386 . S
C830 C832 1.391 . S
C831 C830 1.386 . S
C831 C835 1.393 . S
C832 H821 0.950 . S
C832 C830 1.391 . S
C832 C833 1.400 . S
C833 C827 1.491 . S
C833 C832 1.400 . S
C833 C834 1.398 . S
C834 H822 0.950 . S
C834 C833 1.398 . S
C834 C835 1.391 . S
C835 H823 0.950 . S
C835 C831 1.393 . S
C835 C834 1.391 . S
H836 C844 0.950 . S
H837 C849 0.950 . S
H838 C846 0.950 . S
H839 C848 0.950 . S
H840 C850 0.950 . S
H841 C852 0.950 . S
H842 C854 0.950 . S
H843 C855 0.950 . S
C844 H836 0.950 . S
C844 C845 1.386 . S
C844 C846 1.391 . S
C845 C844 1.386 . S
C845 C849 1.393 . S
C846 H838 0.950 . S
C846 C844 1.391 . S
C846 C847 1.400 . S
C847 C846 1.400 . S
C847 C848 1.398 . S
C847 C853 1.491 . S
C848 H839 0.950 . S
C848 C847 1.398 . S
C848 C849 1.391 . S
C849 H837 0.950 . S
C849 C845 1.393 . S
C849 C848 1.391 . S
C850 H840 0.950 . S
C850 C851 1.386 . S
C850 C852 1.391 . S
C851 C850 1.386 . S
C851 C855 1.393 . S
C852 H841 0.950 . S
C852 C850 1.391 . S
C852 C853 1.400 . S
C853 C847 1.491 . S
C853 C852 1.400 . S
C853 C854 1.398 . S
C854 H842 0.950 . S
C854 C853 1.398 . S
C854 C855 1.391 . S
C855 H843 0.950 . S
C855 C851 1.393 . S
C855 C854 1.391 . S
H856 C864 0.950 . S
H857 C869 0.950 . S
H858 C866 0.950 . S
H859 C868 0.950 . S
H860 C870 0.950 . S
H861 C872 0.950 . S
H862 C874 0.950 . S
H863 C875 0.950 . S
C864 H856 0.950 . S
C864 C865 1.386 . S
C864 C866 1.391 . S
C865 C864 1.386 . S
C865 C869 1.393 . S
C866 H858 0.950 . S
C866 C864 1.391 . S
C866 C867 1.400 . S
C867 C866 1.400 . S
C867 C868 1.398 . S
C867 C873 1.491 . S
C868 H859 0.950 . S
C868 C867 1.398 . S
C868 C869 1.391 . S
C869 H857 0.950 . S
C869 C865 1.393 . S
C869 C868 1.391 . S
C870 H860 0.950 . S
C870 C871 1.386 . S
C870 C872 1.391 . S
C871 C870 1.386 . S
C871 C875 1.393 . S
C872 H861 0.950 . S
C872 C870 1.391 . S
C872 C873 1.400 . S
C873 C867 1.491 . S
C873 C872 1.400 . S
C873 C874 1.398 . S
C874 H862 0.950 . S
C874 C873 1.398 . S
C874 C875 1.391 . S
C875 H863 0.950 . S
C875 C871 1.393 . S
C875 C874 1.391 . S
H876 C884 0.948 . S
H877 C889 0.950 . S
H878 C886 0.950 . S
H879 C888 0.950 . S
H880 C890 0.950 . S
H881 C892 0.950 . S
H882 C894 0.950 . S
H883 C895 0.950 . S
C884 H876 0.948 . S
C884 C885 1.386 . S
C884 C886 1.391 . S
C885 C884 1.386 . S
C885 C889 1.393 . S
C886 H878 0.950 . S
C886 C884 1.391 . S
C886 C887 1.400 . S
C887 C886 1.400 . S
C887 C888 1.398 . S
C887 C893 1.491 . S
C888 H879 0.950 . S
C888 C887 1.398 . S
C888 C889 1.391 . S
C889 H877 0.950 . S
C889 C885 1.393 . S
C889 C888 1.391 . S
C890 H880 0.950 . S
C890 C891 1.386 . S
C890 C892 1.391 . S
C891 C890 1.386 . S
C891 C895 1.393 . S
C892 H881 0.950 . S
C892 C890 1.391 . S
C892 C893 1.400 . S
C893 C887 1.491 . S
C893 C892 1.400 . S
C893 C894 1.398 . S
C894 H882 0.950 . S
C894 C893 1.398 . S
C894 C895 1.391 . S
C895 H883 0.950 . S
C895 C891 1.393 . S
C895 C894 1.391 . S
H896 C904 0.950 . S
H897 C909 0.950 . S
H898 C906 0.950 . S
H899 C908 0.950 . S
H900 C910 0.950 . S
H901 C912 0.950 1_565 S
H902 C914 0.950 . S
H903 C915 0.950 . S
C904 H896 0.950 . S
C904 C905 1.386 . S
C904 C906 1.391 . S
C905 C904 1.386 . S
C905 C909 1.393 . S
C906 H898 0.950 . S
C906 C904 1.391 . S
C906 C907 1.400 . S
C907 C906 1.400 . S
C907 C908 1.398 . S
C907 C913 1.491 . S
C908 H899 0.950 . S
C908 C907 1.398 . S
C908 C909 1.391 . S
C909 H897 0.950 . S
C909 C905 1.393 . S
C909 C908 1.391 . S
C910 H900 0.950 . S
C910 C911 1.386 . S
C910 C912 1.391 . S
C911 C910 1.386 . S
C911 C915 1.393 . S
C912 H901 0.950 1_545 S
C912 C910 1.391 . S
C912 C913 1.400 1_545 S
C913 C907 1.491 . S
C913 C912 1.400 1_565 S
C913 C914 1.398 . S
C914 H902 0.950 . S
C914 C913 1.398 . S
C914 C915 1.391 1_565 S
C915 H903 0.950 . S
C915 C911 1.393 . S
C915 C914 1.391 1_545 S
H916 C924 0.950 . S
H917 C929 0.950 . S
H918 C926 0.950 . S
H919 C928 0.946 1_545 S
H920 C930 0.950 . S
H921 C932 0.950 . S
H922 C934 0.950 . S
H923 C935 0.950 . S
C924 H916 0.950 . S
C924 C925 1.386 1_565 S
C924 C926 1.391 . S
C925 C924 1.386 1_545 S
C925 C929 1.393 . S
C926 H918 0.950 . S
C926 C924 1.391 . S
C926 C927 1.400 . S
C927 C926 1.400 . S
C927 C928 1.405 . S
C927 C933 1.491 . S
C928 H919 0.946 1_565 S
C928 C927 1.405 . S
C928 C929 1.388 1_565 S
C929 H917 0.950 . S
C929 C925 1.393 . S
C929 C928 1.388 1_545 S
C930 H920 0.950 . S
C930 C931 1.386 . S
C930 C932 1.391 1_655 S
C931 C930 1.386 . S
C931 C935 1.393 1_655 S
C932 H921 0.950 . S
C932 C930 1.391 1_455 S
C932 C933 1.400 . S
C933 C927 1.491 . S
C933 C932 1.400 . S
C933 C934 1.398 . S
C934 H922 0.950 . S
C934 C933 1.398 . S
C934 C935 1.391 . S
C935 H923 0.950 . S
C935 C931 1.393 1_455 S
C935 C934 1.391 . S
H936 C944 0.950 . S
H937 C949 0.950 . S
H938 C946 0.950 . S
H939 C948 0.950 . S
H940 C950 0.950 . S
H941 C952 0.950 . S
H942 C954 0.950 . S
H943 C955 0.950 . S
C944 H936 0.950 . S
C944 C945 1.386 . S
C944 C946 1.391 . S
C945 C944 1.386 . S
C945 C949 1.393 . S
C946 H938 0.950 . S
C946 C944 1.391 . S
C946 C947 1.400 . S
C947 C946 1.400 . S
C947 C948 1.398 . S
C947 C953 1.491 1_554 S
C948 H939 0.950 . S
C948 C947 1.398 . S
C948 C949 1.391 . S
C949 H937 0.950 . S
C949 C945 1.393 . S
C949 C948 1.391 . S
C950 H940 0.950 . S
C950 C951 1.386 . S
C950 C952 1.391 . S
C951 C950 1.386 . S
C951 C955 1.393 . S
C952 H941 0.950 . S
C952 C950 1.391 . S
C952 C953 1.400 . S
C953 C947 1.491 1_556 S
C953 C952 1.400 . S
C953 C954 1.398 . S
C954 H942 0.950 . S
C954 C953 1.398 . S
C954 C955 1.391 . S
C955 H943 0.950 . S
C955 C951 1.393 . S
C955 C954 1.391 . S
H956 C964 0.950 . S
H957 C969 0.950 . S
H958 C966 0.950 . S
H959 C968 0.950 . S
H960 C970 0.936 1_655 S
H961 C972 0.950 . S
H962 C974 0.950 . S
H963 C975 0.950 . S
C964 H956 0.950 . S
C964 C965 1.386 . S
C964 C966 1.391 . S
C965 C964 1.386 . S
C965 C969 1.393 . S
C966 H958 0.950 . S
C966 C964 1.391 . S
C966 C967 1.400 . S
C967 C966 1.400 . S
C967 C968 1.398 . S
C967 C973 1.491 1_556 S
C968 H959 0.950 . S
C968 C967 1.398 . S
C968 C969 1.391 . S
C969 H957 0.950 . S
C969 C965 1.393 . S
C969 C968 1.391 . S
C970 H960 0.936 1_455 S
C970 C971 1.386 . S
C970 C972 1.391 . S
C971 C970 1.386 . S
C971 C975 1.393 . S
C972 H961 0.950 . S
C972 C970 1.391 . S
C972 C973 1.400 . S
C973 C967 1.491 1_554 S
C973 C972 1.400 . S
C973 C974 1.398 . S
C974 H962 0.950 . S
C974 C973 1.398 . S
C974 C975 1.391 . S
C975 H963 0.950 . S
C975 C971 1.393 . S
C975 C974 1.391 . S
H976 C984 0.950 . S
H977 C989 0.950 . S
H978 C986 0.950 . S
H979 C988 0.950 . S
H980 C990 0.950 . S
H981 C992 0.950 . S
H982 C994 0.950 . S
H983 C995 0.950 . S
C984 H976 0.950 . S
C984 C985 1.386 . S
C984 C986 1.391 . S
C985 C984 1.386 . S
C985 C989 1.393 . S
C986 H978 0.950 . S
C986 C984 1.391 . S
C986 C987 1.400 . S
C987 C986 1.400 . S
C987 C988 1.398 . S
C987 C993 1.491 1_556 S
C988 H979 0.950 . S
C988 C987 1.398 . S
C988 C989 1.391 . S
C989 H977 0.950 . S
C989 C985 1.393 . S
C989 C988 1.391 . S
C990 H980 0.950 . S
C990 C991 1.386 . S
C990 C992 1.391 . S
C991 C990 1.386 . S
C991 C995 1.393 . S
C992 H981 0.950 . S
C992 C990 1.391 . S
C992 C993 1.400 . S
C993 C987 1.491 1_554 S
C993 C992 1.400 . S
C993 C994 1.398 . S
C994 H982 0.950 . S
C994 C993 1.398 . S
C994 C995 1.391 . S
C995 H983 0.950 . S
C995 C991 1.393 . S
C995 C994 1.391 . S
H996 C1004 0.950 . S
H997 C1009 0.950 . S
H998 C1006 0.950 . S
H999 C1008 0.950 . S
H1000 C1010 0.950 . S
H1001 C1012 0.950 . S
H1002 C1014 0.950 . S
H1003 C1015 0.950 . S
C1004 H996 0.950 . S
C1004 C1005 1.386 . S
C1004 C1006 1.391 . S
C1005 C1004 1.386 . S
C1005 C1009 1.393 . S
C1006 H998 0.950 . S
C1006 C1004 1.391 . S
C1006 C1007 1.400 . S
C1007 C1006 1.400 . S
C1007 C1008 1.398 . S
C1007 C1013 1.491 . S
C1008 H999 0.950 . S
C1008 C1007 1.398 . S
C1008 C1009 1.391 . S
C1009 H997 0.950 . S
C1009 C1005 1.393 . S
C1009 C1008 1.391 . S
C1010 H1000 0.950 . S
C1010 C1011 1.386 . S
C1010 C1012 1.391 . S
C1011 C1010 1.386 . S
C1011 C1015 1.393 . S
C1012 H1001 0.950 . S
C1012 C1010 1.391 . S
C1012 C1013 1.400 . S
C1013 C1007 1.491 . S
C1013 C1012 1.400 . S
C1013 C1014 1.398 . S
C1014 H1002 0.950 . S
C1014 C1013 1.398 . S
C1014 C1015 1.391 . S
C1015 H1003 0.950 . S
C1015 C1011 1.393 . S
C1015 C1014 1.391 . S
H1016 C1024 0.950 . S
H1017 C1029 0.950 . S
H1018 C1026 0.950 . S
H1019 C1028 0.950 . S
H1020 C1030 0.950 . S
H1021 C1032 0.950 . S
H1022 C1034 0.950 . S
H1023 C1035 0.950 . S
C1024 H1016 0.950 . S
C1024 C1025 1.386 . S
C1024 C1026 1.391 . S
C1025 C1024 1.386 . S
C1025 C1029 1.393 . S
C1026 H1018 0.950 . S
C1026 C1024 1.391 . S
C1026 C1027 1.400 . S
C1027 C1026 1.400 . S
C1027 C1028 1.398 . S
C1027 C1033 1.491 . S
C1028 H1019 0.950 . S
C1028 C1027 1.398 . S
C1028 C1029 1.391 . S
C1029 H1017 0.950 . S
C1029 C1025 1.393 . S
C1029 C1028 1.391 . S
C1030 H1020 0.950 . S
C1030 C1031 1.386 . S
C1030 C1032 1.391 . S
C1031 C1030 1.386 . S
C1031 C1035 1.393 . S
C1032 H1021 0.950 . S
C1032 C1030 1.391 . S
C1032 C1033 1.400 . S
C1033 C1027 1.491 . S
C1033 C1032 1.400 . S
C1033 C1034 1.398 . S
C1034 H1022 0.950 . S
C1034 C1033 1.398 . S
C1034 C1035 1.391 . S
C1035 H1023 0.950 . S
C1035 C1031 1.393 . S
C1035 C1034 1.391 . S
H1036 C1044 0.950 . S
H1037 C1049 0.950 . S
H1038 C1046 0.950 . S
H1039 C1048 0.950 . S
H1040 C1050 0.950 . S
H1041 C1052 0.950 . S
H1042 C1054 0.950 . S
H1043 C1055 0.950 . S
C1044 H1036 0.950 . S
C1044 C1045 1.386 . S
C1044 C1046 1.391 . S
C1045 C1044 1.386 . S
C1045 C1049 1.393 . S
C1046 H1038 0.950 . S
C1046 C1044 1.391 . S
C1046 C1047 1.400 . S
C1047 C1046 1.400 . S
C1047 C1048 1.398 . S
C1047 C1053 1.491 . S
C1048 H1039 0.950 . S
C1048 C1047 1.398 . S
C1048 C1049 1.391 . S
C1049 H1037 0.950 . S
C1049 C1045 1.393 . S
C1049 C1048 1.391 . S
C1050 H1040 0.950 . S
C1050 C1051 1.386 . S
C1050 C1052 1.391 . S
C1051 C1050 1.386 . S
C1051 C1055 1.393 . S
C1052 H1041 0.950 . S
C1052 C1050 1.391 . S
C1052 C1053 1.400 . S
C1053 C1047 1.491 . S
C1053 C1052 1.400 . S
C1053 C1054 1.398 . S
C1054 H1042 0.950 . S
C1054 C1053 1.398 . S
C1054 C1055 1.391 . S
C1055 H1043 0.950 . S
C1055 C1051 1.393 . S
C1055 C1054 1.391 . S
H1056 C1064 0.950 . S
H1057 C1069 0.950 . S
H1058 C1066 0.950 . S
H1059 C1068 0.950 . S
H1060 C1070 0.950 . S
H1061 C1072 0.950 . S
H1062 C1074 0.950 . S
H1063 C1075 0.950 . S
C1064 H1056 0.950 . S
C1064 C1065 1.386 . S
C1064 C1066 1.391 . S
C1065 C1064 1.386 . S
C1065 C1069 1.393 . S
C1066 H1058 0.950 . S
C1066 C1064 1.391 . S
C1066 C1067 1.400 . S
C1067 C1066 1.400 . S
C1067 C1068 1.398 . S
C1067 C1073 1.491 . S
C1068 H1059 0.950 . S
C1068 C1067 1.398 . S
C1068 C1069 1.391 . S
C1069 H1057 0.950 . S
C1069 C1065 1.393 . S
C1069 C1068 1.391 . S
C1070 H1060 0.950 . S
C1070 C1071 1.386 . S
C1070 C1072 1.391 . S
C1071 C1070 1.386 . S
C1071 C1075 1.393 . S
C1072 H1061 0.950 . S
C1072 C1070 1.391 . S
C1072 C1073 1.400 . S
C1073 C1067 1.491 . S
C1073 C1072 1.400 . S
C1073 C1074 1.398 . S
C1074 H1062 0.950 . S
C1074 C1073 1.398 . S
C1074 C1075 1.391 . S
C1075 H1063 0.950 . S
C1075 C1071 1.393 . S
C1075 C1074 1.391 . S
H1076 C1084 0.950 . S
H1077 C1089 0.950 . S
H1078 C1086 0.950 . S
H1079 C1088 0.950 . S
H1080 C1090 0.950 . S
H1081 C1092 0.950 . S
H1082 C1094 0.950 . S
H1083 C1095 0.950 . S
C1084 H1076 0.950 . S
C1084 C1085 1.386 . S
C1084 C1086 1.391 . S
C1085 C1084 1.386 . S
C1085 C1089 1.393 . S
C1086 H1078 0.950 . S
C1086 C1084 1.391 . S
C1086 C1087 1.400 . S
C1087 C1086 1.400 . S
C1087 C1088 1.398 . S
C1087 C1093 1.491 . S
C1088 H1079 0.950 . S
C1088 C1087 1.398 . S
C1088 C1089 1.391 . S
C1089 H1077 0.950 . S
C1089 C1085 1.393 . S
C1089 C1088 1.391 . S
C1090 H1080 0.950 . S
C1090 C1091 1.386 . S
C1090 C1092 1.391 . S
C1091 C1090 1.386 . S
C1091 C1095 1.393 . S
C1092 H1081 0.950 . S
C1092 C1090 1.391 . S
C1092 C1093 1.400 . S
C1093 C1087 1.491 . S
C1093 C1092 1.400 . S
C1093 C1094 1.398 . S
C1094 H1082 0.950 . S
C1094 C1093 1.398 . S
C1094 C1095 1.391 . S
C1095 H1083 0.950 . S
C1095 C1091 1.393 . S
C1095 C1094 1.391 . S
H1096 C1104 0.950 . S
H1097 C1109 0.950 . S
H1098 C1106 0.950 . S
H1099 C1108 0.950 . S
H1100 C1110 0.950 . S
H1101 C1112 0.950 . S
H1102 C1114 0.950 . S
H1103 C1115 0.950 . S
C1104 H1096 0.950 . S
C1104 C1105 1.386 . S
C1104 C1106 1.391 . S
C1105 C1104 1.386 . S
C1105 C1109 1.393 . S
C1106 H1098 0.950 . S
C1106 C1104 1.391 . S
C1106 C1107 1.400 . S
C1107 C1106 1.400 . S
C1107 C1108 1.398 . S
C1107 C1113 1.491 . S
C1108 H1099 0.950 . S
C1108 C1107 1.398 . S
C1108 C1109 1.391 . S
C1109 H1097 0.950 . S
C1109 C1105 1.393 . S
C1109 C1108 1.391 . S
C1110 H1100 0.950 . S
C1110 C1111 1.386 . S
C1110 C1112 1.391 . S
C1111 C1110 1.386 . S
C1111 C1115 1.393 . S
C1112 H1101 0.950 . S
C1112 C1110 1.391 . S
C1112 C1113 1.400 . S
C1113 C1107 1.491 . S
C1113 C1112 1.400 . S
C1113 C1114 1.398 . S
C1114 H1102 0.950 . S
C1114 C1113 1.398 . S
C1114 C1115 1.391 . S
C1115 H1103 0.950 . S
C1115 C1111 1.393 . S
C1115 C1114 1.391 . S
H1116 C1124 0.950 . S
H1117 C1129 0.950 . S
H1118 C1126 0.950 . S
H1119 C1128 0.950 . S
H1120 C1130 0.950 . S
H1121 C1132 0.950 . S
H1122 C1134 0.950 1_545 S
H1123 C1135 0.950 1_545 S
C1124 H1116 0.950 . S
C1124 C1125 1.386 . S
C1124 C1126 1.391 . S
C1125 C1124 1.386 . S
C1125 C1129 1.393 . S
C1126 H1118 0.950 . S
C1126 C1124 1.391 . S
C1126 C1127 1.400 . S
C1127 C1126 1.400 . S
C1127 C1128 1.398 . S
C1127 C1133 1.491 . S
C1128 H1119 0.950 . S
C1128 C1127 1.398 . S
C1128 C1129 1.391 . S
C1129 H1117 0.950 . S
C1129 C1125 1.393 . S
C1129 C1128 1.391 . S
C1130 H1120 0.950 . S
C1130 C1131 1.386 . S
C1130 C1132 1.391 . S
C1131 C1130 1.386 . S
C1131 C1135 1.393 . S
C1132 H1121 0.950 . S
C1132 C1130 1.391 . S
C1132 C1133 1.400 . S
C1133 C1127 1.491 . S
C1133 C1132 1.400 . S
C1133 C1134 1.398 . S
C1134 H1122 0.950 1_565 S
C1134 C1133 1.398 . S
C1134 C1135 1.391 . S
C1135 H1123 0.950 1_565 S
C1135 C1131 1.393 . S
C1135 C1134 1.391 . S
H1136 C1144 0.950 . S
H1137 C1149 0.950 . S
H1138 C1146 0.950 . S
H1139 C1148 0.950 . S
H1140 C1150 0.950 . S
H1141 C1152 0.950 . S
H1142 C1154 0.950 . S
H1143 C1155 0.950 . S
C1144 H1136 0.950 . S
C1144 C1145 1.386 . S
C1144 C1146 1.391 . S
C1145 C1144 1.386 . S
C1145 C1149 1.393 . S
C1146 H1138 0.950 . S
C1146 C1144 1.391 . S
C1146 C1147 1.400 . S
C1147 C1146 1.400 . S
C1147 C1148 1.398 . S
C1147 C1153 1.491 . S
C1148 H1139 0.950 . S
C1148 C1147 1.398 . S
C1148 C1149 1.391 . S
C1149 H1137 0.950 . S
C1149 C1145 1.393 . S
C1149 C1148 1.391 . S
C1150 H1140 0.950 . S
C1150 C1151 1.386 . S
C1150 C1152 1.391 . S
C1151 C1150 1.386 . S
C1151 C1155 1.393 . S
C1152 H1141 0.950 . S
C1152 C1150 1.391 . S
C1152 C1153 1.400 . S
C1153 C1147 1.491 . S
C1153 C1152 1.400 . S
C1153 C1154 1.398 . S
C1154 H1142 0.950 . S
C1154 C1153 1.398 . S
C1154 C1155 1.391 . S
C1155 H1143 0.950 . S
C1155 C1151 1.393 . S
C1155 C1154 1.391 . S
H1156 C1164 0.950 . S
H1157 C1169 0.950 . S
H1158 C1166 0.950 . S
H1159 C1168 0.950 . S
H1160 C1170 0.950 . S
H1161 C1172 0.950 . S
H1162 C1174 0.950 . S
H1163 C1175 0.950 . S
C1164 H1156 0.950 . S
C1164 C1165 1.386 . S
C1164 C1166 1.391 . S
C1165 C1164 1.386 . S
C1165 C1169 1.393 . S
C1166 H1158 0.950 . S
C1166 C1164 1.391 . S
C1166 C1167 1.400 . S
C1167 C1166 1.400 . S
C1167 C1168 1.398 . S
C1167 C1173 1.491 . S
C1168 H1159 0.950 . S
C1168 C1167 1.398 . S
C1168 C1169 1.391 . S
C1169 H1157 0.950 . S
C1169 C1165 1.393 . S
C1169 C1168 1.391 . S
C1170 H1160 0.950 . S
C1170 C1171 1.386 . S
C1170 C1172 1.391 . S
C1171 C1170 1.386 . S
C1171 C1175 1.393 . S
C1172 H1161 0.950 . S
C1172 C1170 1.391 . S
C1172 C1173 1.400 . S
C1173 C1167 1.491 . S
C1173 C1172 1.400 . S
C1173 C1174 1.398 . S
C1174 H1162 0.950 . S
C1174 C1173 1.398 . S
C1174 C1175 1.391 . S
C1175 H1163 0.950 . S
C1175 C1171 1.393 . S
C1175 C1174 1.391 . S
H1176 C1184 0.950 . S
H1177 C1189 0.950 . S
H1178 C1186 0.950 . S
H1179 C1188 0.950 1_455 S
H1180 C1190 0.950 . S
H1181 C1192 0.950 1_455 S
H1182 C1194 0.950 . S
H1183 C1195 0.950 . S
C1184 H1176 0.950 . S
C1184 C1185 1.386 . S
C1184 C1186 1.391 . S
C1185 C1184 1.386 . S
C1185 C1189 1.393 1_655 S
C1186 H1178 0.950 . S
C1186 C1184 1.391 . S
C1186 C1187 1.400 . S
C1187 C1186 1.400 . S
C1187 C1188 1.398 . S
C1187 C1193 1.491 . S
C1188 H1179 0.950 1_655 S
C1188 C1187 1.398 . S
C1188 C1189 1.391 1_655 S
C1189 H1177 0.950 . S
C1189 C1185 1.393 1_455 S
C1189 C1188 1.391 1_455 S
C1190 H1180 0.950 . S
C1190 C1191 1.386 . S
C1190 C1192 1.391 . S
C1191 C1190 1.386 . S
C1191 C1195 1.393 . S
C1192 H1181 0.950 1_655 S
C1192 C1190 1.391 . S
C1192 C1193 1.400 . S
C1193 C1187 1.491 . S
C1193 C1192 1.400 . S
C1193 C1194 1.398 . S
C1194 H1182 0.950 . S
C1194 C1193 1.398 . S
C1194 C1195 1.391 . S
C1195 H1183 0.950 . S
C1195 C1191 1.393 . S
C1195 C1194 1.391 . S
H1196 C1204 0.950 . S
H1197 C1209 0.950 . S
H1198 C1206 0.950 . S
H1199 C1208 0.950 . S
H1200 C1210 0.950 . S
H1201 C1212 0.950 . S
H1202 C1214 0.950 . S
H1203 C1215 0.950 . S
C1204 H1196 0.950 . S
C1204 C1205 1.386 . S
C1204 C1206 1.391 . S
C1205 C1204 1.386 . S
C1205 C1209 1.393 . S
C1206 H1198 0.950 . S
C1206 C1204 1.391 . S
C1206 C1207 1.400 . S
C1207 C1206 1.400 . S
C1207 C1208 1.398 . S
C1207 C1213 1.491 . S
C1208 H1199 0.950 . S
C1208 C1207 1.398 . S
C1208 C1209 1.391 . S
C1209 H1197 0.950 . S
C1209 C1205 1.393 . S
C1209 C1208 1.391 . S
C1210 H1200 0.950 . S
C1210 C1211 1.386 . S
C1210 C1212 1.391 . S
C1211 C1210 1.386 . S
C1211 C1215 1.393 . S
C1212 H1201 0.950 . S
C1212 C1210 1.391 . S
C1212 C1213 1.400 . S
C1213 C1207 1.491 . S
C1213 C1212 1.400 . S
C1213 C1214 1.398 . S
C1214 H1202 0.950 . S
C1214 C1213 1.398 . S
C1214 C1215 1.391 . S
C1215 H1203 0.950 . S
C1215 C1211 1.393 . S
C1215 C1214 1.391 . S
H1216 C1224 0.950 . S
H1217 C1229 0.950 . S
H1218 C1226 0.950 . S
H1219 C1228 0.950 . S
H1220 C1230 0.950 . S
H1221 C1232 0.950 . S
H1222 C1234 0.950 . S
H1223 C1235 0.950 . S
C1224 H1216 0.950 . S
C1224 C1225 1.386 . S
C1224 C1226 1.391 . S
C1225 C1224 1.386 . S
C1225 C1229 1.393 . S
C1226 H1218 0.950 . S
C1226 C1224 1.391 . S
C1226 C1227 1.400 . S
C1227 C1226 1.400 . S
C1227 C1228 1.398 . S
C1227 C1233 1.491 . S
C1228 H1219 0.950 . S
C1228 C1227 1.398 . S
C1228 C1229 1.391 . S
C1229 H1217 0.950 . S
C1229 C1225 1.393 . S
C1229 C1228 1.391 . S
C1230 H1220 0.950 . S
C1230 C1231 1.386 . S
C1230 C1232 1.391 . S
C1231 C1230 1.386 . S
C1231 C1235 1.393 . S
C1232 H1221 0.950 . S
C1232 C1230 1.391 . S
C1232 C1233 1.400 . S
C1233 C1227 1.491 . S
C1233 C1232 1.400 . S
C1233 C1234 1.398 . S
C1234 H1222 0.950 . S
C1234 C1233 1.398 . S
C1234 C1235 1.391 . S
C1235 H1223 0.950 . S
C1235 C1231 1.393 . S
C1235 C1234 1.391 . S
H1236 C1244 0.950 . S
H1237 C1249 0.950 . S
H1238 C1246 0.950 . S
H1239 C1248 0.950 . S
H1240 C1250 0.950 . S
H1241 C1252 0.950 . S
H1242 C1254 0.950 . S
H1243 C1255 0.950 . S
C1244 H1236 0.950 . S
C1244 C1245 1.386 . S
C1244 C1246 1.391 1_655 S
C1245 C1244 1.386 . S
C1245 C1249 1.393 . S
C1246 H1238 0.950 . S
C1246 C1244 1.391 1_455 S
C1246 C1247 1.400 . S
C1247 C1246 1.400 . S
C1247 C1248 1.398 1_455 S
C1247 C1253 1.491 . S
C1248 H1239 0.950 . S
C1248 C1247 1.398 1_655 S
C1248 C1249 1.391 . S
C1249 H1237 0.950 . S
C1249 C1245 1.393 . S
C1249 C1248 1.391 . S
C1250 H1240 0.950 . S
C1250 C1251 1.386 . S
C1250 C1252 1.391 . S
C1251 C1250 1.386 . S
C1251 C1255 1.393 . S
C1252 H1241 0.950 . S
C1252 C1250 1.391 . S
C1252 C1253 1.400 . S
C1253 C1247 1.491 . S
C1253 C1252 1.400 . S
C1253 C1254 1.398 . S
C1254 H1242 0.950 . S
C1254 C1253 1.398 . S
C1254 C1255 1.391 . S
C1255 H1243 0.950 . S
C1255 C1251 1.393 . S
C1255 C1254 1.391 . S
H1256 C1264 0.950 . S
H1257 C1269 0.950 . S
H1258 C1266 0.950 . S
H1259 C1268 0.950 . S
H1260 C1270 0.950 . S
H1261 C1272 0.950 . S
H1262 C1274 0.950 . S
H1263 C1275 0.950 . S
C1264 H1256 0.950 . S
C1264 C1265 1.386 . S
C1264 C1266 1.391 . S
C1265 C1264 1.386 . S
C1265 C1269 1.393 . S
C1266 H1258 0.950 . S
C1266 C1264 1.391 . S
C1266 C1267 1.400 . S
C1267 C1266 1.400 . S
C1267 C1268 1.398 . S
C1267 C1273 1.491 . S
C1268 H1259 0.950 . S
C1268 C1267 1.398 . S
C1268 C1269 1.391 . S
C1269 H1257 0.950 . S
C1269 C1265 1.393 . S
C1269 C1268 1.391 . S
C1270 H1260 0.950 . S
C1270 C1271 1.386 . S
C1270 C1272 1.391 . S
C1271 C1270 1.386 . S
C1271 C1275 1.393 . S
C1272 H1261 0.950 . S
C1272 C1270 1.391 . S
C1272 C1273 1.400 . S
C1273 C1267 1.491 . S
C1273 C1272 1.400 . S
C1273 C1274 1.398 . S
C1274 H1262 0.950 . S
C1274 C1273 1.398 . S
C1274 C1275 1.391 . S
C1275 H1263 0.950 . S
C1275 C1271 1.393 . S
C1275 C1274 1.391 . S
H1276 C1284 0.950 . S
H1277 C1289 0.950 . S
H1278 C1286 0.950 . S
H1279 C1288 0.950 . S
H1280 C1290 0.950 . S
H1281 C1292 0.950 . S
H1282 C1294 0.950 1_565 S
H1283 C1295 0.950 . S
C1284 H1276 0.950 . S
C1284 C1285 1.386 . S
C1284 C1286 1.391 . S
C1285 C1284 1.386 . S
C1285 C1289 1.393 1_565 S
C1286 H1278 0.950 . S
C1286 C1284 1.391 . S
C1286 C1287 1.400 1_565 S
C1287 C1286 1.400 1_545 S
C1287 C1288 1.398 . S
C1287 C1293 1.491 . S
C1288 H1279 0.950 . S
C1288 C1287 1.398 . S
C1288 C1289 1.391 . S
C1289 H1277 0.950 . S
C1289 C1285 1.393 1_545 S
C1289 C1288 1.391 . S
C1290 H1280 0.950 . S
C1290 C1291 1.386 . S
C1290 C1292 1.391 . S
C1291 C1290 1.386 . S
C1291 C1295 1.393 . S
C1292 H1281 0.950 . S
C1292 C1290 1.391 . S
C1292 C1293 1.400 . S
C1293 C1287 1.491 . S
C1293 C1292 1.400 . S
C1293 C1294 1.398 . S
C1294 H1282 0.950 1_545 S
C1294 C1293 1.398 . S
C1294 C1295 1.391 . S
C1295 H1283 0.950 . S
C1295 C1291 1.393 . S
C1295 C1294 1.391 . S
H1296 C1304 0.950 . S
H1297 C1309 0.950 . S
H1298 C1306 0.950 . S
H1299 C1308 0.950 . S
H1300 C1310 0.950 . S
H1301 C1312 0.950 . S
H1302 C1314 0.950 . S
H1303 C1315 0.950 . S
C1304 H1296 0.950 . S
C1304 C1305 1.386 . S
C1304 C1306 1.391 . S
C1305 C1304 1.386 . S
C1305 C1309 1.393 . S
C1306 H1298 0.950 . S
C1306 C1304 1.391 . S
C1306 C1307 1.400 . S
C1307 C1306 1.400 . S
C1307 C1308 1.398 . S
C1307 C1313 1.491 . S
C1308 H1299 0.950 . S
C1308 C1307 1.398 . S
C1308 C1309 1.391 . S
C1309 H1297 0.950 . S
C1309 C1305 1.393 . S
C1309 C1308 1.391 . S
C1310 H1300 0.950 . S
C1310 C1311 1.386 . S
C1310 C1312 1.391 . S
C1311 C1310 1.386 . S
C1311 C1315 1.393 . S
C1312 H1301 0.950 . S
C1312 C1310 1.391 . S
C1312 C1313 1.400 . S
C1313 C1307 1.491 . S
C1313 C1312 1.400 . S
C1313 C1314 1.398 . S
C1314 H1302 0.950 . S
C1314 C1313 1.398 . S
C1314 C1315 1.391 . S
C1315 H1303 0.950 . S
C1315 C1311 1.393 . S
C1315 C1314 1.391 . S
H1316 C1324 0.950 . S
H1317 C1329 0.950 . S
H1318 C1326 0.950 . S
H1319 C1328 0.950 . S
H1320 C1330 0.950 . S
H1321 C1332 0.950 . S
H1322 C1334 0.950 . S
H1323 C1335 0.950 . S
C1324 H1316 0.950 . S
C1324 C1325 1.386 . S
C1324 C1326 1.391 . S
C1325 C1324 1.386 . S
C1325 C1329 1.393 . S
C1326 H1318 0.950 . S
C1326 C1324 1.391 . S
C1326 C1327 1.400 . S
C1327 C1326 1.400 . S
C1327 C1328 1.398 . S
C1327 C1333 1.491 . S
C1328 H1319 0.950 . S
C1328 C1327 1.398 . S
C1328 C1329 1.391 . S
C1329 H1317 0.950 . S
C1329 C1325 1.393 . S
C1329 C1328 1.391 . S
C1330 H1320 0.950 . S
C1330 C1331 1.386 . S
C1330 C1332 1.391 . S
C1331 C1330 1.386 . S
C1331 C1335 1.393 . S
C1332 H1321 0.950 . S
C1332 C1330 1.391 . S
C1332 C1333 1.400 . S
C1333 C1327 1.491 . S
C1333 C1332 1.400 . S
C1333 C1334 1.398 . S
C1334 H1322 0.950 . S
C1334 C1333 1.398 . S
C1334 C1335 1.391 . S
C1335 H1323 0.950 . S
C1335 C1331 1.393 . S
C1335 C1334 1.391 . S
H1336 C1344 0.950 . S
H1337 C1349 0.950 . S
H1338 C1346 0.950 . S
H1339 C1348 0.950 . S
H1340 C1350 0.950 . S
H1341 C1352 0.950 . S
H1342 C1354 0.950 . S
H1343 C1355 0.950 . S
C1344 H1336 0.950 . S
C1344 C1345 1.386 . S
C1344 C1346 1.391 . S
C1345 C1344 1.386 . S
C1345 C1349 1.393 . S
C1346 H1338 0.950 . S
C1346 C1344 1.391 . S
C1346 C1347 1.400 . S
C1347 C1346 1.400 . S
C1347 C1348 1.398 . S
C1347 C1353 1.491 . S
C1348 H1339 0.950 . S
C1348 C1347 1.398 . S
C1348 C1349 1.391 . S
C1349 H1337 0.950 . S
C1349 C1345 1.393 . S
C1349 C1348 1.391 . S
C1350 H1340 0.950 . S
C1350 C1351 1.386 . S
C1350 C1352 1.391 . S
C1351 C1350 1.386 . S
C1351 C1355 1.393 . S
C1352 H1341 0.950 . S
C1352 C1350 1.391 . S
C1352 C1353 1.400 . S
C1353 C1347 1.491 . S
C1353 C1352 1.400 . S
C1353 C1354 1.398 . S
C1354 H1342 0.950 . S
C1354 C1353 1.398 . S
C1354 C1355 1.391 . S
C1355 H1343 0.950 . S
C1355 C1351 1.393 . S
C1355 C1354 1.391 . S
H1356 C1364 0.950 . S
H1357 C1369 0.950 . S
H1358 C1366 0.950 . S
H1359 C1368 0.950 . S
H1360 C1370 0.950 . S
H1361 C1372 0.950 . S
H1362 C1374 0.950 . S
H1363 C1375 0.950 . S
C1364 H1356 0.950 . S
C1364 C1365 1.386 . S
C1364 C1366 1.391 . S
C1365 C1364 1.386 . S
C1365 C1369 1.393 . S
C1366 H1358 0.950 . S
C1366 C1364 1.391 . S
C1366 C1367 1.400 . S
C1367 C1366 1.400 . S
C1367 C1368 1.398 . S
C1367 C1373 1.491 . S
C1368 H1359 0.950 . S
C1368 C1367 1.398 . S
C1368 C1369 1.391 . S
C1369 H1357 0.950 . S
C1369 C1365 1.393 . S
C1369 C1368 1.391 . S
C1370 H1360 0.950 . S
C1370 C1371 1.386 . S
C1370 C1372 1.391 . S
C1371 C1370 1.386 . S
C1371 C1375 1.393 . S
C1372 H1361 0.950 . S
C1372 C1370 1.391 . S
C1372 C1373 1.400 . S
C1373 C1367 1.491 . S
C1373 C1372 1.400 . S
C1373 C1374 1.398 . S
C1374 H1362 0.950 . S
C1374 C1373 1.398 . S
C1374 C1375 1.391 . S
C1375 H1363 0.950 . S
C1375 C1371 1.393 . S
C1375 C1374 1.391 . S
H1376 C1384 0.950 . S
H1377 C1389 0.950 . S
H1378 C1386 0.950 . S
H1379 C1388 0.950 . S
H1380 C1390 0.950 . S
H1381 C1392 0.950 . S
H1382 C1394 0.950 . S
H1383 C1395 0.950 . S
C1384 H1376 0.950 . S
C1384 C1385 1.386 . S
C1384 C1386 1.391 . S
C1385 C1384 1.386 . S
C1385 C1389 1.393 . S
C1386 H1378 0.950 . S
C1386 C1384 1.391 . S
C1386 C1387 1.400 . S
C1387 C1386 1.400 . S
C1387 C1388 1.398 . S
C1387 C1393 1.491 . S
C1388 H1379 0.950 . S
C1388 C1387 1.398 . S
C1388 C1389 1.391 . S
C1389 H1377 0.950 . S
C1389 C1385 1.393 . S
C1389 C1388 1.391 . S
C1390 H1380 0.950 . S
C1390 C1391 1.386 . S
C1390 C1392 1.391 . S
C1391 C1390 1.386 . S
C1391 C1395 1.393 . S
C1392 H1381 0.950 . S
C1392 C1390 1.391 . S
C1392 C1393 1.400 . S
C1393 C1387 1.491 . S
C1393 C1392 1.400 . S
C1393 C1394 1.398 . S
C1394 H1382 0.950 . S
C1394 C1393 1.398 . S
C1394 C1395 1.391 . S
C1395 H1383 0.950 . S
C1395 C1391 1.393 . S
C1395 C1394 1.391 . S
H1396 C1404 0.950 . S
H1397 C1409 0.950 . S
H1398 C1406 0.950 . S
H1399 C1408 0.950 . S
H1400 C1410 0.950 . S
H1401 C1412 0.950 . S
H1402 C1414 0.950 . S
H1403 C1415 0.950 . S
C1404 H1396 0.950 . S
C1404 C1405 1.386 . S
C1404 C1406 1.391 . S
C1405 C1404 1.386 . S
C1405 C1409 1.393 . S
C1406 H1398 0.950 . S
C1406 C1404 1.391 . S
C1406 C1407 1.400 . S
C1407 C1406 1.400 . S
C1407 C1408 1.398 . S
C1407 C1413 1.491 . S
C1408 H1399 0.950 . S
C1408 C1407 1.398 . S
C1408 C1409 1.391 . S
C1409 H1397 0.950 . S
C1409 C1405 1.393 . S
C1409 C1408 1.391 . S
C1410 H1400 0.950 . S
C1410 C1411 1.386 . S
C1410 C1412 1.391 . S
C1411 C1410 1.386 . S
C1411 C1415 1.393 . S
C1412 H1401 0.950 . S
C1412 C1410 1.391 . S
C1412 C1413 1.400 . S
C1413 C1407 1.491 . S
C1413 C1412 1.400 . S
C1413 C1414 1.398 . S
C1414 H1402 0.950 . S
C1414 C1413 1.398 . S
C1414 C1415 1.391 . S
C1415 H1403 0.950 . S
C1415 C1411 1.393 . S
C1415 C1414 1.391 . S
H1416 C1424 0.950 . S
H1417 C1429 0.950 . S
H1418 C1426 0.950 . S
H1419 C1428 0.950 . S
H1420 C1430 0.950 . S
H1421 C1432 0.950 . S
H1422 C1434 0.950 . S
H1423 C1435 0.950 . S
C1424 H1416 0.950 . S
C1424 C1425 1.386 . S
C1424 C1426 1.391 . S
C1425 C1424 1.386 . S
C1425 C1429 1.393 . S
C1426 H1418 0.950 . S
C1426 C1424 1.391 . S
C1426 C1427 1.400 . S
C1427 C1426 1.400 . S
C1427 C1428 1.398 . S
C1427 C1433 1.491 . S
C1428 H1419 0.950 . S
C1428 C1427 1.398 . S
C1428 C1429 1.391 . S
C1429 H1417 0.950 . S
C1429 C1425 1.393 . S
C1429 C1428 1.391 . S
C1430 H1420 0.950 . S
C1430 C1431 1.386 . S
C1430 C1432 1.391 . S
C1431 C1430 1.386 . S
C1431 C1435 1.393 . S
C1432 H1421 0.950 . S
C1432 C1430 1.391 . S
C1432 C1433 1.400 . S
C1433 C1427 1.491 . S
C1433 C1432 1.400 . S
C1433 C1434 1.398 . S
C1434 H1422 0.950 . S
C1434 C1433 1.398 . S
C1434 C1435 1.391 . S
C1435 H1423 0.950 . S
C1435 C1431 1.393 . S
C1435 C1434 1.391 . S
H1436 C1444 0.950 . S
H1437 C1449 0.950 . S
H1438 C1446 0.950 . S
H1439 C1448 0.950 . S
H1440 C1450 0.950 . S
H1441 C1452 0.950 . S
H1442 C1454 0.950 . S
H1443 C1455 0.950 . S
C1444 H1436 0.950 . S
C1444 C1445 1.386 . S
C1444 C1446 1.391 . S
C1445 C1444 1.386 . S
C1445 C1449 1.393 . S
C1446 H1438 0.950 . S
C1446 C1444 1.391 . S
C1446 C1447 1.400 . S
C1447 C1446 1.400 . S
C1447 C1448 1.398 . S
C1447 C1453 1.491 . S
C1448 H1439 0.950 . S
C1448 C1447 1.398 . S
C1448 C1449 1.391 . S
C1449 H1437 0.950 . S
C1449 C1445 1.393 . S
C1449 C1448 1.391 . S
C1450 H1440 0.950 . S
C1450 C1451 1.386 . S
C1450 C1452 1.391 . S
C1451 C1450 1.386 . S
C1451 C1455 1.393 . S
C1452 H1441 0.950 . S
C1452 C1450 1.391 . S
C1452 C1453 1.400 . S
C1453 C1447 1.491 . S
C1453 C1452 1.400 . S
C1453 C1454 1.398 . S
C1454 H1442 0.950 . S
C1454 C1453 1.398 . S
C1454 C1455 1.391 . S
C1455 H1443 0.950 . S
C1455 C1451 1.393 . S
C1455 C1454 1.391 . S
H1456 C1464 0.950 . S
H1457 C1469 0.950 . S
H1458 C1466 0.950 . S
H1459 C1468 0.950 . S
H1460 C1470 0.950 . S
H1461 C1472 0.950 . S
H1462 C1474 0.950 . S
H1463 C1475 0.950 . S
C1464 H1456 0.950 . S
C1464 C1465 1.386 . S
C1464 C1466 1.391 . S
C1465 C1464 1.386 . S
C1465 C1469 1.393 . S
C1466 H1458 0.950 . S
C1466 C1464 1.391 . S
C1466 C1467 1.400 . S
C1467 C1466 1.400 . S
C1467 C1468 1.398 . S
C1467 C1473 1.491 . S
C1468 H1459 0.950 . S
C1468 C1467 1.398 . S
C1468 C1469 1.391 . S
C1469 H1457 0.950 . S
C1469 C1465 1.393 . S
C1469 C1468 1.391 . S
C1470 H1460 0.950 . S
C1470 C1471 1.386 . S
C1470 C1472 1.391 . S
C1471 C1470 1.386 . S
C1471 C1475 1.393 . S
C1472 H1461 0.950 . S
C1472 C1470 1.391 . S
C1472 C1473 1.400 . S
C1473 C1467 1.491 . S
C1473 C1472 1.400 . S
C1473 C1474 1.398 . S
C1474 H1462 0.950 . S
C1474 C1473 1.398 . S
C1474 C1475 1.391 . S
C1475 H1463 0.950 . S
C1475 C1471 1.393 . S
C1475 C1474 1.391 . S
H1476 C1484 0.950 . S
H1477 C1489 0.950 . S
H1478 C1486 0.950 . S
H1479 C1488 0.950 . S
H1480 C1490 0.950 . S
H1481 C1492 0.950 . S
H1482 C1494 0.945 1_655 S
H1483 C1495 0.950 . S
C1484 H1476 0.950 . S
C1484 C1485 1.386 . S
C1484 C1486 1.391 . S
C1485 C1484 1.386 . S
C1485 C1489 1.393 . S
C1486 H1478 0.950 . S
C1486 C1484 1.391 . S
C1486 C1487 1.400 . S
C1487 C1486 1.400 . S
C1487 C1488 1.398 . S
C1487 C1493 1.491 . S
C1488 H1479 0.950 . S
C1488 C1487 1.398 . S
C1488 C1489 1.391 . S
C1489 H1477 0.950 . S
C1489 C1485 1.393 . S
C1489 C1488 1.391 . S
C1490 H1480 0.950 . S
C1490 C1491 1.386 . S
C1490 C1492 1.391 1_455 S
C1491 C1490 1.386 . S
C1491 C1495 1.393 . S
C1492 H1481 0.950 . S
C1492 C1490 1.391 1_655 S
C1492 C1493 1.400 . S
C1493 C1487 1.491 . S
C1493 C1492 1.400 . S
C1493 C1494 1.398 1_655 S
C1494 H1482 0.945 1_455 S
C1494 C1493 1.398 1_455 S
C1494 C1495 1.391 . S
C1495 H1483 0.950 . S
C1495 C1491 1.393 . S
C1495 C1494 1.391 . S
H1496 C1504 0.950 . S
H1497 C1509 0.950 . S
H1498 C1506 0.950 . S
H1499 C1508 0.950 . S
H1500 C1510 0.950 . S
H1501 C1512 0.950 . S
H1502 C1514 0.950 . S
H1503 C1515 0.950 . S
C1504 H1496 0.950 . S
C1504 C1505 1.386 . S
C1504 C1506 1.391 . S
C1505 C1504 1.386 . S
C1505 C1509 1.393 . S
C1506 H1498 0.950 . S
C1506 C1504 1.391 . S
C1506 C1507 1.400 . S
C1507 C1506 1.400 . S
C1507 C1508 1.398 . S
C1507 C1513 1.491 . S
C1508 H1499 0.950 . S
C1508 C1507 1.398 . S
C1508 C1509 1.391 . S
C1509 H1497 0.950 . S
C1509 C1505 1.393 . S
C1509 C1508 1.391 . S
C1510 H1500 0.950 . S
C1510 C1511 1.386 . S
C1510 C1512 1.391 . S
C1511 C1510 1.386 . S
C1511 C1515 1.393 . S
C1512 H1501 0.950 . S
C1512 C1510 1.391 . S
C1512 C1513 1.400 . S
C1513 C1507 1.491 . S
C1513 C1512 1.400 . S
C1513 C1514 1.398 . S
C1514 H1502 0.950 . S
C1514 C1513 1.398 . S
C1514 C1515 1.391 . S
C1515 H1503 0.950 . S
C1515 C1511 1.393 . S
C1515 C1514 1.391 . S
H1516 C1524 0.950 . S
H1517 C1529 0.950 . S
H1518 C1526 0.950 . S
H1519 C1528 0.950 . S
H1520 C1530 0.945 . S
H1521 C1532 0.950 . S
H1522 C1534 0.950 . S
H1523 C1535 0.950 . S
C1524 H1516 0.950 . S
C1524 C1525 1.386 . S
C1524 C1526 1.391 1_565 S
C1525 C1524 1.386 . S
C1525 C1529 1.393 1_565 S
C1526 H1518 0.950 . S
C1526 C1524 1.391 1_545 S
C1526 C1527 1.400 . S
C1527 C1526 1.400 . S
C1527 C1528 1.398 . S
C1527 C1533 1.491 . S
C1528 H1519 0.950 . S
C1528 C1527 1.398 . S
C1528 C1529 1.391 . S
C1529 H1517 0.950 . S
C1529 C1525 1.393 1_545 S
C1529 C1528 1.391 . S
C1530 H1520 0.945 . S
C1530 C1531 1.386 1_655 S
C1530 C1532 1.391 . S
C1531 C1530 1.386 1_455 S
C1531 C1535 1.393 . S
C1532 H1521 0.950 . S
C1532 C1530 1.391 . S
C1532 C1533 1.400 . S
C1533 C1527 1.491 . S
C1533 C1532 1.400 . S
C1533 C1534 1.398 . S
C1534 H1522 0.950 . S
C1534 C1533 1.398 . S
C1534 C1535 1.391 1_655 S
C1535 H1523 0.950 . S
C1535 C1531 1.393 . S
C1535 C1534 1.391 1_455 S
H1536 C1544 0.950 . S
H1537 C1549 0.950 . S
H1538 C1546 0.950 . S
H1539 C1548 0.950 . S
H1540 C1550 0.950 . S
H1541 C1552 0.950 . S
H1542 C1554 0.950 . S
H1543 C1555 0.950 . S
C1544 H1536 0.950 . S
C1544 C1545 1.386 . S
C1544 C1546 1.391 . S
C1545 C1544 1.386 . S
C1545 C1549 1.393 . S
C1546 H1538 0.950 . S
C1546 C1544 1.391 . S
C1546 C1547 1.400 . S
C1547 C1546 1.400 . S
C1547 C1548 1.398 . S
C1547 C1553 1.491 . S
C1548 H1539 0.950 . S
C1548 C1547 1.398 . S
C1548 C1549 1.391 . S
C1549 H1537 0.950 . S
C1549 C1545 1.393 . S
C1549 C1548 1.391 . S
C1550 H1540 0.950 . S
C1550 C1551 1.386 . S
C1550 C1552 1.391 . S
C1551 C1550 1.386 . S
C1551 C1555 1.393 . S
C1552 H1541 0.950 . S
C1552 C1550 1.391 . S
C1552 C1553 1.400 1_545 S
C1553 C1547 1.491 . S
C1553 C1552 1.400 1_565 S
C1553 C1554 1.398 . S
C1554 H1542 0.950 . S
C1554 C1553 1.398 . S
C1554 C1555 1.391 1_565 S
C1555 H1543 0.950 . S
C1555 C1551 1.393 . S
C1555 C1554 1.391 1_545 S
H1556 C1564 0.950 . S
H1557 C1569 0.950 . S
H1558 C1566 0.950 . S
H1559 C1568 0.950 . S
H1560 C1570 0.950 . S
H1561 C1572 0.950 . S
H1562 C1574 0.950 . S
H1563 C1575 0.950 . S
C1564 H1556 0.950 . S
C1564 C1565 1.386 . S
C1564 C1566 1.391 1_545 S
C1565 C1564 1.386 . S
C1565 C1569 1.393 1_545 S
C1566 H1558 0.950 . S
C1566 C1564 1.391 1_565 S
C1566 C1567 1.400 . S
C1567 C1566 1.400 . S
C1567 C1568 1.398 . S
C1567 C1573 1.491 . S
C1568 H1559 0.950 . S
C1568 C1567 1.398 . S
C1568 C1569 1.391 . S
C1569 H1557 0.950 . S
C1569 C1565 1.393 1_565 S
C1569 C1568 1.391 . S
C1570 H1560 0.950 . S
C1570 C1571 1.386 1_455 S
C1570 C1572 1.391 . S
C1571 C1570 1.386 1_655 S
C1571 C1575 1.393 . S
C1572 H1561 0.950 . S
C1572 C1570 1.391 . S
C1572 C1573 1.400 . S
C1573 C1567 1.491 . S
C1573 C1572 1.400 . S
C1573 C1574 1.398 . S
C1574 H1562 0.950 . S
C1574 C1573 1.398 . S
C1574 C1575 1.391 1_455 S
C1575 H1563 0.950 . S
C1575 C1571 1.393 . S
C1575 C1574 1.391 1_655 S
H1576 C1584 0.950 . S
H1577 C1589 0.950 . S
H1578 C1586 0.950 . S
H1579 C1588 0.950 . S
H1580 C1590 0.950 . S
H1581 C1592 0.950 . S
H1582 C1594 0.950 . S
H1583 C1595 0.950 1_655 S
C1584 H1576 0.950 . S
C1584 C1585 1.386 . S
C1584 C1586 1.391 . S
C1585 C1584 1.386 . S
C1585 C1589 1.393 . S
C1586 H1578 0.950 . S
C1586 C1584 1.391 . S
C1586 C1587 1.400 . S
C1587 C1586 1.400 . S
C1587 C1588 1.398 . S
C1587 C1593 1.491 . S
C1588 H1579 0.950 . S
C1588 C1587 1.398 . S
C1588 C1589 1.391 . S
C1589 H1577 0.950 . S
C1589 C1585 1.393 . S
C1589 C1588 1.391 . S
C1590 H1580 0.950 . S
C1590 C1591 1.386 . S
C1590 C1592 1.391 . S
C1591 C1590 1.386 . S
C1591 C1595 1.393 . S
C1592 H1581 0.950 . S
C1592 C1590 1.391 . S
C1592 C1593 1.400 . S
C1593 C1587 1.491 . S
C1593 C1592 1.400 . S
C1593 C1594 1.398 . S
C1594 H1582 0.950 . S
C1594 C1593 1.398 . S
C1594 C1595 1.391 . S
C1595 H1583 0.950 1_455 S
C1595 C1591 1.393 . S
C1595 C1594 1.391 . S
H1596 C1604 0.950 . S
H1597 C1609 0.950 . S
H1598 C1606 0.950 . S
H1599 C1608 0.950 . S
H1600 C1610 0.950 . S
H1601 C1612 0.950 . S
H1602 C1614 0.950 . S
H1603 C1615 0.950 . S
C1604 H1596 0.950 . S
C1604 C1605 1.386 . S
C1604 C1606 1.391 . S
C1605 C1604 1.386 . S
C1605 C1609 1.393 . S
C1606 H1598 0.950 . S
C1606 C1604 1.391 . S
C1606 C1607 1.400 . S
C1607 C1606 1.400 . S
C1607 C1608 1.398 . S
C1607 C1613 1.491 . S
C1608 H1599 0.950 . S
C1608 C1607 1.398 . S
C1608 C1609 1.391 . S
C1609 H1597 0.950 . S
C1609 C1605 1.393 . S
C1609 C1608 1.391 . S
C1610 H1600 0.950 . S
C1610 C1611 1.386 . S
C1610 C1612 1.391 . S
C1611 C1610 1.386 . S
C1611 C1615 1.393 . S
C1612 H1601 0.950 . S
C1612 C1610 1.391 . S
C1612 C1613 1.400 . S
C1613 C1607 1.491 . S
C1613 C1612 1.400 . S
C1613 C1614 1.398 . S
C1614 H1602 0.950 . S
C1614 C1613 1.398 . S
C1614 C1615 1.391 . S
C1615 H1603 0.950 . S
C1615 C1611 1.393 . S
C1615 C1614 1.391 . S
H1616 C1624 0.950 . S
H1617 C1629 0.950 . S
H1618 C1626 0.950 . S
H1619 C1628 0.950 . S
H1620 C1630 0.950 . S
H1621 C1632 0.950 . S
H1622 C1634 0.950 . S
H1623 C1635 0.950 . S
C1624 H1616 0.950 . S
C1624 C1625 1.386 . S
C1624 C1626 1.391 . S
C1625 C1624 1.386 . S
C1625 C1629 1.393 . S
C1626 H1618 0.950 . S
C1626 C1624 1.391 . S
C1626 C1627 1.400 . S
C1627 C1626 1.400 . S
C1627 C1628 1.398 . S
C1627 C1633 1.491 . S
C1628 H1619 0.950 . S
C1628 C1627 1.398 . S
C1628 C1629 1.391 . S
C1629 H1617 0.950 . S
C1629 C1625 1.393 . S
C1629 C1628 1.391 . S
C1630 H1620 0.950 . S
C1630 C1631 1.386 . S
C1630 C1632 1.391 . S
C1631 C1630 1.386 . S
C1631 C1635 1.393 . S
C1632 H1621 0.950 . S
C1632 C1630 1.391 . S
C1632 C1633 1.400 . S
C1633 C1627 1.491 . S
C1633 C1632 1.400 . S
C1633 C1634 1.398 . S
C1634 H1622 0.950 . S
C1634 C1633 1.398 . S
C1634 C1635 1.391 . S
C1635 H1623 0.950 . S
C1635 C1631 1.393 . S
C1635 C1634 1.391 . S
H1636 C1644 0.950 . S
H1637 C1649 0.950 . S
H1638 C1646 0.950 . S
H1639 C1648 0.950 . S
H1640 C1650 0.950 . S
H1641 C1652 0.950 . S
H1642 C1654 0.950 . S
H1643 C1655 0.950 . S
C1644 H1636 0.950 . S
C1644 C1645 1.386 . S
C1644 C1646 1.391 . S
C1645 C1644 1.386 . S
C1645 C1649 1.393 . S
C1646 H1638 0.950 . S
C1646 C1644 1.391 . S
C1646 C1647 1.400 . S
C1647 C1646 1.400 . S
C1647 C1648 1.398 . S
C1647 C1653 1.491 . S
C1648 H1639 0.950 . S
C1648 C1647 1.398 . S
C1648 C1649 1.391 . S
C1649 H1637 0.950 . S
C1649 C1645 1.393 . S
C1649 C1648 1.391 . S
C1650 H1640 0.950 . S
C1650 C1651 1.386 . S
C1650 C1652 1.391 . S
C1651 C1650 1.386 . S
C1651 C1655 1.393 . S
C1652 H1641 0.950 . S
C1652 C1650 1.391 . S
C1652 C1653 1.400 . S
C1653 C1647 1.491 . S
C1653 C1652 1.400 . S
C1653 C1654 1.398 . S
C1654 H1642 0.950 . S
C1654 C1653 1.398 . S
C1654 C1655 1.391 . S
C1655 H1643 0.950 . S
C1655 C1651 1.393 . S
C1655 C1654 1.391 . S
C585 C29 0.829 . S
C591 C66 0.828 . S
C605 C6 0.839 . S
C611 C61 0.835 . S
C625 C38 0.821 . S
C631 C68 0.829 . S
C645 C100 0.836 . S
C651 C130 0.835 . S
C665 C166 0.841 . S
C671 C132 0.836 . S
C685 C189 0.838 . S
C691 C98 0.842 . S
C705 C262 0.828 1_545 S
C711 C196 0.833 . S
C725 C194 0.828 . S
C731 C253 0.833 . S
C745 C285 0.826 . S
C751 C230 0.820 . S
C765 C322 0.823 . S
C771 C292 0.827 . S
C785 C324 0.836 . S
C791 C358 0.835 . S
C805 C290 0.827 . S
C811 C381 0.832 . S
C825 C413 0.834 . S
C831 C450 0.838 . S
C845 C390 0.838 . S
C851 C445 0.837 . S
C865 C422 0.828 . S
C871 C452 0.829 . S
C885 C514 0.840 1_455 S
C891 C509 0.835 . S
C905 C550 0.822 . S
C911 C516 0.830 . S
C925 C486 0.831 . S
C931 C573 0.834 . S
C945 N18 1.529 . S
C951 N178 1.529 . S
C965 N109 1.559 . S
C971 N50 1.559 . S
C985 N141 1.557 . S
C991 N77 1.557 . S
C1005 N205 1.559 . S
C1011 N370 1.559 . S
C1025 N242 1.542 . S
C1031 N301 1.544 . S
C1045 N333 1.529 . S
C1051 N274 1.529 . S
C1065 N402 1.554 . S
C1071 N562 1.555 . S
C1085 N498 1.536 . S
C1091 N434 1.535 . S
C1105 N525 1.539 . S
C1111 N461 1.538 . S
C1125 N338 1.644 . S
C1131 N13 1.646 . S
C1145 N45 1.638 . S
C1151 N365 1.651 . S
C1165 N306 1.651 . S
C1171 N82 1.638 . S
C1185 N114 1.646 . S
C1191 N466 1.644 . S
C1205 N146 1.636 . S
C1211 N397 1.653 . S
C1225 N429 1.639 . S
C1231 N173 1.650 . S
C1245 N530 1.648 . S
C1251 N210 1.642 . S
C1265 N237 1.637 . S
C1271 N557 1.653 . S
C1285 N269 1.638 . S
C1291 N493 1.651 . S
C1305 C93 1.434 . S
C1311 C2 1.427 . S
C1325 C4 1.434 . S
C1331 C34 1.428 . S
C1345 C70 1.427 . S
C1351 C36 1.434 . S
C1365 C157 1.430 . S
C1371 C102 1.416 . S
C1385 C164 1.428 . S
C1391 C134 1.413 . S
C1405 C162 1.419 . S
C1411 C125 1.432 . S
C1425 C260 1.432 . S
C1431 C198 1.420 . S
C1445 C226 1.416 . S
C1451 C221 1.428 . S
C1465 C228 1.430 . S
C1471 C258 1.416 . S
C1485 C294 1.427 . S
C1491 C349 1.435 . S
C1505 C326 1.413 1_545 S
C1511 C356 1.428 . S
C1525 C317 1.435 . S
C1531 C354 1.427 . S
C1545 C386 1.415 . S
C1551 C477 1.428 . S
C1565 C418 1.426 . S
C1571 C388 1.434 . S
C1585 C420 1.433 . S
C1591 C454 1.422 1_455 S
C1605 C482 1.414 . S
C1611 C541 1.428 . S
C1625 C518 1.414 . S
C1631 C548 1.428 . S
C1645 C484 1.434 . S
C1651 C546 1.428 . S
