# Generated by pormake.
# Topology ulh, (4)-cn, num edge types: 1
# Building blocks:
#     Node 0, Type 0, BuildingBlock: CEKHIL_clean_sbu_0, # of connection points: 4
#     Node 1, Type 0, BuildingBlock: CEKHIL_clean_sbu_0, # of connection points: 4
#     Node 2, Type 0, BuildingBlock: CEKHIL_clean_sbu_0, # of connection points: 4
#     Node 3, Type 0, BuildingBlock: CEKHIL_clean_sbu_0, # of connection points: 4
#     Node 4, Type 0, BuildingBlock: CEKHIL_clean_sbu_0, # of connection points: 4
#     Node 5, Type 0, BuildingBlock: CEKHIL_clean_sbu_0, # of connection points: 4
#     Node 6, Type 0, BuildingBlock: CEKHIL_clean_sbu_0, # of connection points: 4
#     Node 7, Type 0, BuildingBlock: CEKHIL_clean_sbu_0, # of connection points: 4
#     Node 8, Type 0, BuildingBlock: CEKHIL_clean_sbu_0, # of connection points: 4
#     Node 9, Type 0, BuildingBlock: CEKHIL_clean_sbu_0, # of connection points: 4
#     Node 10, Type 0, BuildingBlock: CEKHIL_clean_sbu_0, # of connection points: 4
#     Node 11, Type 0, BuildingBlock: CEKHIL_clean_sbu_0, # of connection points: 4
#     Node 12, Type 0, BuildingBlock: CEKHIL_clean_sbu_0, # of connection points: 4
#     Node 13, Type 0, BuildingBlock: CEKHIL_clean_sbu_0, # of connection points: 4
#     Node 14, Type 0, BuildingBlock: CEKHIL_clean_sbu_0, # of connection points: 4
#     Node 15, Type 0, BuildingBlock: CEKHIL_clean_sbu_0, # of connection points: 4
#     Node 16, Type 0, BuildingBlock: CEKHIL_clean_sbu_0, # of connection points: 4
#     Node 17, Type 0, BuildingBlock: CEKHIL_clean_sbu_0, # of connection points: 4
#     Node 18, Type 0, BuildingBlock: CEKHIL_clean_sbu_0, # of connection points: 4
#     Node 19, Type 0, BuildingBlock: CEKHIL_clean_sbu_0, # of connection points: 4
#     Node 20, Type 0, BuildingBlock: CEKHIL_clean_sbu_0, # of connection points: 4
#     Node 21, Type 0, BuildingBlock: CEKHIL_clean_sbu_0, # of connection points: 4
#     Node 22, Type 0, BuildingBlock: CEKHIL_clean_sbu_0, # of connection points: 4
#     Node 23, Type 0, BuildingBlock: CEKHIL_clean_sbu_0, # of connection points: 4
#     Node 24, Type 0, BuildingBlock: CEKHIL_clean_sbu_0, # of connection points: 4
#     Node 25, Type 0, BuildingBlock: CEKHIL_clean_sbu_0, # of connection points: 4
#     Node 26, Type 0, BuildingBlock: CEKHIL_clean_sbu_0, # of connection points: 4
#     Node 27, Type 0, BuildingBlock: CEKHIL_clean_sbu_0, # of connection points: 4
#     Node 28, Type 0, BuildingBlock: CEKHIL_clean_sbu_0, # of connection points: 4
#     Node 29, Type 0, BuildingBlock: CEKHIL_clean_sbu_0, # of connection points: 4
#     Node 30, Type 0, BuildingBlock: CEKHIL_clean_sbu_0, # of connection points: 4
#     Node 31, Type 0, BuildingBlock: CEKHIL_clean_sbu_0, # of connection points: 4
#     Node 32, Type 0, BuildingBlock: CEKHIL_clean_sbu_0, # of connection points: 4
#     Node 33, Type 0, BuildingBlock: CEKHIL_clean_sbu_0, # of connection points: 4
#     Node 34, Type 0, BuildingBlock: CEKHIL_clean_sbu_0, # of connection points: 4
#     Node 35, Type 0, BuildingBlock: CEKHIL_clean_sbu_0, # of connection points: 4
#     Node 36, Type 0, BuildingBlock: CEKHIL_clean_sbu_0, # of connection points: 4
#     Node 37, Type 0, BuildingBlock: CEKHIL_clean_sbu_0, # of connection points: 4
#     Node 38, Type 0, BuildingBlock: CEKHIL_clean_sbu_0, # of connection points: 4
#     Node 39, Type 0, BuildingBlock: CEKHIL_clean_sbu_0, # of connection points: 4
#     Node 40, Type 0, BuildingBlock: CEKHIL_clean_sbu_0, # of connection points: 4
#     Node 41, Type 0, BuildingBlock: CEKHIL_clean_sbu_0, # of connection points: 4
#     Node 42, Type 0, BuildingBlock: CEKHIL_clean_sbu_0, # of connection points: 4
#     Node 43, Type 0, BuildingBlock: CEKHIL_clean_sbu_0, # of connection points: 4
#     Node 44, Type 0, BuildingBlock: CEKHIL_clean_sbu_0, # of connection points: 4
#     Node 45, Type 0, BuildingBlock: CEKHIL_clean_sbu_0, # of connection points: 4
#     Node 46, Type 0, BuildingBlock: CEKHIL_clean_sbu_0, # of connection points: 4
#     Node 47, Type 0, BuildingBlock: CEKHIL_clean_sbu_0, # of connection points: 4
#     Node 48, Type 0, BuildingBlock: CEKHIL_clean_sbu_0, # of connection points: 4
#     Node 49, Type 0, BuildingBlock: CEKHIL_clean_sbu_0, # of connection points: 4
#     Node 50, Type 0, BuildingBlock: CEKHIL_clean_sbu_0, # of connection points: 4
#     Node 51, Type 0, BuildingBlock: CEKHIL_clean_sbu_0, # of connection points: 4
#     Node 52, Type 0, BuildingBlock: CEKHIL_clean_sbu_0, # of connection points: 4
#     Node 53, Type 0, BuildingBlock: CEKHIL_clean_sbu_0, # of connection points: 4
#     Node 54, Type 0, BuildingBlock: CEKHIL_clean_sbu_0, # of connection points: 4
#     Node 55, Type 0, BuildingBlock: CEKHIL_clean_sbu_0, # of connection points: 4
#     Node 56, Type 0, BuildingBlock: CEKHIL_clean_sbu_0, # of connection points: 4
#     Node 57, Type 0, BuildingBlock: CEKHIL_clean_sbu_0, # of connection points: 4
#     Node 58, Type 0, BuildingBlock: CEKHIL_clean_sbu_0, # of connection points: 4
#     Node 59, Type 0, BuildingBlock: CEKHIL_clean_sbu_0, # of connection points: 4
#     Node 60, Type 0, BuildingBlock: CEKHIL_clean_sbu_0, # of connection points: 4
#     Node 61, Type 0, BuildingBlock: CEKHIL_clean_sbu_0, # of connection points: 4
#     Node 62, Type 0, BuildingBlock: CEKHIL_clean_sbu_0, # of connection points: 4
#     Node 63, Type 0, BuildingBlock: CEKHIL_clean_sbu_0, # of connection points: 4
#     Node 64, Type 0, BuildingBlock: CEKHIL_clean_sbu_0, # of connection points: 4
#     Node 65, Type 0, BuildingBlock: CEKHIL_clean_sbu_0, # of connection points: 4
#     Node 66, Type 0, BuildingBlock: CEKHIL_clean_sbu_0, # of connection points: 4
#     Node 67, Type 0, BuildingBlock: CEKHIL_clean_sbu_0, # of connection points: 4
#     Node 68, Type 0, BuildingBlock: CEKHIL_clean_sbu_0, # of connection points: 4
#     Node 69, Type 0, BuildingBlock: CEKHIL_clean_sbu_0, # of connection points: 4
#     Node 70, Type 0, BuildingBlock: CEKHIL_clean_sbu_0, # of connection points: 4
#     Node 71, Type 0, BuildingBlock: CEKHIL_clean_sbu_0, # of connection points: 4
#     Node 72, Type 0, BuildingBlock: CEKHIL_clean_sbu_0, # of connection points: 4
#     Node 73, Type 0, BuildingBlock: CEKHIL_clean_sbu_0, # of connection points: 4
#     Node 74, Type 0, BuildingBlock: CEKHIL_clean_sbu_0, # of connection points: 4
#     Node 75, Type 0, BuildingBlock: CEKHIL_clean_sbu_0, # of connection points: 4
#     Node 76, Type 0, BuildingBlock: CEKHIL_clean_sbu_0, # of connection points: 4
#     Node 77, Type 0, BuildingBlock: CEKHIL_clean_sbu_0, # of connection points: 4
#     Node 78, Type 0, BuildingBlock: CEKHIL_clean_sbu_0, # of connection points: 4
#     Node 79, Type 0, BuildingBlock: CEKHIL_clean_sbu_0, # of connection points: 4
#     Node 80, Type 0, BuildingBlock: CEKHIL_clean_sbu_0, # of connection points: 4
#     Node 81, Type 0, BuildingBlock: CEKHIL_clean_sbu_0, # of connection points: 4
#     Node 82, Type 0, BuildingBlock: CEKHIL_clean_sbu_0, # of connection points: 4
#     Node 83, Type 0, BuildingBlock: CEKHIL_clean_sbu_0, # of connection points: 4
#     Node 84, Type 0, BuildingBlock: CEKHIL_clean_sbu_0, # of connection points: 4
#     Node 85, Type 0, BuildingBlock: CEKHIL_clean_sbu_0, # of connection points: 4
#     Node 86, Type 0, BuildingBlock: CEKHIL_clean_sbu_0, # of connection points: 4
#     Node 87, Type 0, BuildingBlock: CEKHIL_clean_sbu_0, # of connection points: 4
#     Node 88, Type 0, BuildingBlock: CEKHIL_clean_sbu_0, # of connection points: 4
#     Node 89, Type 0, BuildingBlock: CEKHIL_clean_sbu_0, # of connection points: 4
#     Node 90, Type 0, BuildingBlock: CEKHIL_clean_sbu_0, # of connection points: 4
#     Node 91, Type 0, BuildingBlock: CEKHIL_clean_sbu_0, # of connection points: 4
#     Node 92, Type 0, BuildingBlock: CEKHIL_clean_sbu_0, # of connection points: 4
#     Node 93, Type 0, BuildingBlock: CEKHIL_clean_sbu_0, # of connection points: 4
#     Node 94, Type 0, BuildingBlock: CEKHIL_clean_sbu_0, # of connection points: 4
#     Node 95, Type 0, BuildingBlock: CEKHIL_clean_sbu_0, # of connection points: 4
#     Edge 96, Type (0, 0), None
#     Edge 97, Type (0, 0), None
#     Edge 98, Type (0, 0), None
#     Edge 99, Type (0, 0), None
#     Edge 100, Type (0, 0), None
#     Edge 101, Type (0, 0), None
#     Edge 102, Type (0, 0), None
#     Edge 103, Type (0, 0), None
#     Edge 104, Type (0, 0), None
#     Edge 105, Type (0, 0), None
#     Edge 106, Type (0, 0), None
#     Edge 107, Type (0, 0), None
#     Edge 108, Type (0, 0), None
#     Edge 109, Type (0, 0), None
#     Edge 110, Type (0, 0), None
#     Edge 111, Type (0, 0), None
#     Edge 112, Type (0, 0), None
#     Edge 113, Type (0, 0), None
#     Edge 114, Type (0, 0), None
#     Edge 115, Type (0, 0), None
#     Edge 116, Type (0, 0), None
#     Edge 117, Type (0, 0), None
#     Edge 118, Type (0, 0), None
#     Edge 119, Type (0, 0), None
#     Edge 120, Type (0, 0), None
#     Edge 121, Type (0, 0), None
#     Edge 122, Type (0, 0), None
#     Edge 123, Type (0, 0), None
#     Edge 124, Type (0, 0), None
#     Edge 125, Type (0, 0), None
#     Edge 126, Type (0, 0), None
#     Edge 127, Type (0, 0), None
#     Edge 128, Type (0, 0), None
#     Edge 129, Type (0, 0), None
#     Edge 130, Type (0, 0), None
#     Edge 131, Type (0, 0), None
#     Edge 132, Type (0, 0), None
#     Edge 133, Type (0, 0), None
#     Edge 134, Type (0, 0), None
#     Edge 135, Type (0, 0), None
#     Edge 136, Type (0, 0), None
#     Edge 137, Type (0, 0), None
#     Edge 138, Type (0, 0), None
#     Edge 139, Type (0, 0), None
#     Edge 140, Type (0, 0), None
#     Edge 141, Type (0, 0), None
#     Edge 142, Type (0, 0), None
#     Edge 143, Type (0, 0), None
#     Edge 144, Type (0, 0), None
#     Edge 145, Type (0, 0), None
#     Edge 146, Type (0, 0), None
#     Edge 147, Type (0, 0), None
#     Edge 148, Type (0, 0), None
#     Edge 149, Type (0, 0), None
#     Edge 150, Type (0, 0), None
#     Edge 151, Type (0, 0), None
#     Edge 152, Type (0, 0), None
#     Edge 153, Type (0, 0), None
#     Edge 154, Type (0, 0), None
#     Edge 155, Type (0, 0), None
#     Edge 156, Type (0, 0), None
#     Edge 157, Type (0, 0), None
#     Edge 158, Type (0, 0), None
#     Edge 159, Type (0, 0), None
#     Edge 160, Type (0, 0), None
#     Edge 161, Type (0, 0), None
#     Edge 162, Type (0, 0), None
#     Edge 163, Type (0, 0), None
#     Edge 164, Type (0, 0), None
#     Edge 165, Type (0, 0), None
#     Edge 166, Type (0, 0), None
#     Edge 167, Type (0, 0), None
#     Edge 168, Type (0, 0), None
#     Edge 169, Type (0, 0), None
#     Edge 170, Type (0, 0), None
#     Edge 171, Type (0, 0), None
#     Edge 172, Type (0, 0), None
#     Edge 173, Type (0, 0), None
#     Edge 174, Type (0, 0), None
#     Edge 175, Type (0, 0), None
#     Edge 176, Type (0, 0), None
#     Edge 177, Type (0, 0), None
#     Edge 178, Type (0, 0), None
#     Edge 179, Type (0, 0), None
#     Edge 180, Type (0, 0), None
#     Edge 181, Type (0, 0), None
#     Edge 182, Type (0, 0), None
#     Edge 183, Type (0, 0), None
#     Edge 184, Type (0, 0), None
#     Edge 185, Type (0, 0), None
#     Edge 186, Type (0, 0), None
#     Edge 187, Type (0, 0), None
#     Edge 188, Type (0, 0), None
#     Edge 189, Type (0, 0), None
#     Edge 190, Type (0, 0), None
#     Edge 191, Type (0, 0), None
#     Edge 192, Type (0, 0), None
#     Edge 193, Type (0, 0), None
#     Edge 194, Type (0, 0), None
#     Edge 195, Type (0, 0), None
#     Edge 196, Type (0, 0), None
#     Edge 197, Type (0, 0), None
#     Edge 198, Type (0, 0), None
#     Edge 199, Type (0, 0), None
#     Edge 200, Type (0, 0), None
#     Edge 201, Type (0, 0), None
#     Edge 202, Type (0, 0), None
#     Edge 203, Type (0, 0), None
#     Edge 204, Type (0, 0), None
#     Edge 205, Type (0, 0), None
#     Edge 206, Type (0, 0), None
#     Edge 207, Type (0, 0), None
#     Edge 208, Type (0, 0), None
#     Edge 209, Type (0, 0), None
#     Edge 210, Type (0, 0), None
#     Edge 211, Type (0, 0), None
#     Edge 212, Type (0, 0), None
#     Edge 213, Type (0, 0), None
#     Edge 214, Type (0, 0), None
#     Edge 215, Type (0, 0), None
#     Edge 216, Type (0, 0), None
#     Edge 217, Type (0, 0), None
#     Edge 218, Type (0, 0), None
#     Edge 219, Type (0, 0), None
#     Edge 220, Type (0, 0), None
#     Edge 221, Type (0, 0), None
#     Edge 222, Type (0, 0), None
#     Edge 223, Type (0, 0), None
#     Edge 224, Type (0, 0), None
#     Edge 225, Type (0, 0), None
#     Edge 226, Type (0, 0), None
#     Edge 227, Type (0, 0), None
#     Edge 228, Type (0, 0), None
#     Edge 229, Type (0, 0), None
#     Edge 230, Type (0, 0), None
#     Edge 231, Type (0, 0), None
#     Edge 232, Type (0, 0), None
#     Edge 233, Type (0, 0), None
#     Edge 234, Type (0, 0), None
#     Edge 235, Type (0, 0), None
#     Edge 236, Type (0, 0), None
#     Edge 237, Type (0, 0), None
#     Edge 238, Type (0, 0), None
#     Edge 239, Type (0, 0), None
#     Edge 240, Type (0, 0), None
#     Edge 241, Type (0, 0), None
#     Edge 242, Type (0, 0), None
#     Edge 243, Type (0, 0), None
#     Edge 244, Type (0, 0), None
#     Edge 245, Type (0, 0), None
#     Edge 246, Type (0, 0), None
#     Edge 247, Type (0, 0), None
#     Edge 248, Type (0, 0), None
#     Edge 249, Type (0, 0), None
#     Edge 250, Type (0, 0), None
#     Edge 251, Type (0, 0), None
#     Edge 252, Type (0, 0), None
#     Edge 253, Type (0, 0), None
#     Edge 254, Type (0, 0), None
#     Edge 255, Type (0, 0), None
#     Edge 256, Type (0, 0), None
#     Edge 257, Type (0, 0), None
#     Edge 258, Type (0, 0), None
#     Edge 259, Type (0, 0), None
#     Edge 260, Type (0, 0), None
#     Edge 261, Type (0, 0), None
#     Edge 262, Type (0, 0), None
#     Edge 263, Type (0, 0), None
#     Edge 264, Type (0, 0), None
#     Edge 265, Type (0, 0), None
#     Edge 266, Type (0, 0), None
#     Edge 267, Type (0, 0), None
#     Edge 268, Type (0, 0), None
#     Edge 269, Type (0, 0), None
#     Edge 270, Type (0, 0), None
#     Edge 271, Type (0, 0), None
#     Edge 272, Type (0, 0), None
#     Edge 273, Type (0, 0), None
#     Edge 274, Type (0, 0), None
#     Edge 275, Type (0, 0), None
#     Edge 276, Type (0, 0), None
#     Edge 277, Type (0, 0), None
#     Edge 278, Type (0, 0), None
#     Edge 279, Type (0, 0), None
#     Edge 280, Type (0, 0), None
#     Edge 281, Type (0, 0), None
#     Edge 282, Type (0, 0), None
#     Edge 283, Type (0, 0), None
#     Edge 284, Type (0, 0), None
#     Edge 285, Type (0, 0), None
#     Edge 286, Type (0, 0), None
#     Edge 287, Type (0, 0), None
# Relax obj value: 0.194
# Max RMSD: 0.231
# Mean RMSD: 0.231
data_MOF--net-ulh--node1-CEKHIL_clean_sbu_0--edge1-none
_symmetry_space_group_name_H-M    P1
_symmetry_Int_Tables_number       1
_symmetry_cell_setting            triclinic
loop_
_symmetry_equiv_pos_as_xyz
'x, y, z'
_cell_length_a     36.339014
_cell_length_b     36.339119
_cell_length_c     36.339377
_cell_angle_alpha  89.999919
_cell_angle_beta   89.999807
_cell_angle_gamma 89.999625
loop_
_atom_site_label
_atom_site_type_symbol
_atom_site_fract_x
_atom_site_fract_y
_atom_site_fract_z
_atom_type_partial_charge
Co0 Co 0.03622 0.31318 0.08856 0.0
O1 O 0.9922 0.29646 0.10882 0.0
O2 O 0.03974 0.25976 0.10256 0.0
C3 C 0.03777 0.36555 0.12268 0.0
O4 O 0.08496 0.32998 0.06638 0.0
Co5 Co 0.01242 0.38607 0.04656 0.0
O6 O 0.0667 0.3835 0.0388 0.0
C7 C 0.99477 0.31681 0.01712 0.0
C8 C 0.00582 0.2644 0.11367 0.0
C9 C 0.09129 0.35982 0.04771 0.0
O10 O 0.01933 0.30048 0.03662 0.0
O11 O 0.97904 0.3456 0.02942 0.0
O12 O 0.05104 0.33554 0.13673 0.0
O13 O 0.02087 0.36072 0.09212 0.0
Co14 Co 0.93088 0.28622 0.33854 0.0
O15 O 0.9476 0.2422 0.3588 0.0
O16 O 0.9843 0.28975 0.35255 0.0
C17 C 0.87851 0.28776 0.37266 0.0
O18 O 0.91408 0.33496 0.31637 0.0
Co19 Co 0.85799 0.26242 0.29654 0.0
O20 O 0.86055 0.31671 0.28879 0.0
C21 C 0.92725 0.24478 0.26711 0.0
C22 C 0.97966 0.25582 0.36366 0.0
C23 C 0.88423 0.34129 0.2977 0.0
O24 O 0.94358 0.26934 0.28661 0.0
O25 O 0.89846 0.22904 0.27941 0.0
O26 O 0.90852 0.30104 0.38671 0.0
O27 O 0.88334 0.27087 0.34211 0.0
Co28 Co 0.95783 0.18088 0.58855 0.0
O29 O 0.00185 0.1976 0.60881 0.0
O30 O 0.9543 0.2343 0.60256 0.0
C31 C 0.95629 0.12851 0.62267 0.0
O32 O 0.9091 0.16408 0.56637 0.0
Co33 Co 0.98164 0.10799 0.54655 0.0
O34 O 0.92735 0.11056 0.53879 0.0
C35 C -0.00072 0.17726 0.51712 0.0
C36 C 0.98823 0.22967 0.61366 0.0
C37 C 0.90276 0.13424 0.5477 0.0
O38 O 0.97472 0.19358 0.53661 0.0
O39 O 0.01502 0.14846 0.52942 0.0
O40 O 0.94301 0.15852 0.63672 0.0
O41 O 0.97318 0.13334 0.59211 0.0
Co42 Co 0.06317 0.20784 0.83855 0.0
O43 O 0.04645 0.25186 0.85881 0.0
O44 O 0.00974 0.20431 0.85256 0.0
C45 C 0.11554 0.2063 0.87266 0.0
O46 O 0.07997 0.15911 0.81637 0.0
Co47 Co 0.13605 0.23165 0.79654 0.0
O48 O 0.13349 0.17736 0.78879 0.0
C49 C 0.06678 0.24928 0.76711 0.0
C50 C 0.01438 0.23824 0.86367 0.0
C51 C 0.10981 0.15277 0.7977 0.0
O52 O 0.05046 0.22473 0.78661 0.0
O53 O 0.09558 0.26502 0.77941 0.0
O54 O 0.08553 0.19302 0.88671 0.0
O55 O 0.11071 0.22319 0.84211 0.0
Co56 Co 0.03621 0.68088 0.90551 0.0
O57 O 0.9922 0.69759 0.88525 0.0
O58 O 0.03974 0.7343 0.8915 0.0
C59 C 0.03776 0.6285 0.87139 0.0
O60 O 0.08495 0.66408 0.92769 0.0
Co61 Co 0.01242 0.60799 0.94752 0.0
O62 O 0.06671 0.61055 0.95527 0.0
C63 C 0.99478 0.67725 0.97695 0.0
C64 C 0.00582 0.72966 0.88039 0.0
C65 C 0.09129 0.63424 0.94636 0.0
O66 O 0.01933 0.69358 0.95745 0.0
O67 O 0.97904 0.64845 0.96465 0.0
O68 O 0.05104 0.65851 0.85734 0.0
O69 O 0.02087 0.63334 0.90195 0.0
Co70 Co 0.56316 0.28621 0.15548 0.0
O71 O 0.54645 0.2422 0.13521 0.0
O72 O 0.50974 0.28974 0.14147 0.0
C73 C 0.61554 0.28776 0.12138 0.0
O74 O 0.57996 0.33494 0.17767 0.0
Co75 Co 0.63605 0.2624 0.1975 0.0
O76 O 0.63348 0.31669 0.20526 0.0
C77 C 0.56678 0.24475 0.2269 0.0
C78 C 0.51439 0.25581 0.13036 0.0
C79 C 0.6098 0.34128 0.19635 0.0
O80 O 0.55045 0.26932 0.20742 0.0
O81 O 0.59557 0.22902 0.21459 0.0
O82 O 0.58553 0.30104 0.10732 0.0
O83 O 0.6107 0.27086 0.15193 0.0
Co84 Co 0.95784 0.81318 0.4055 0.0
O85 O 0.00186 0.79647 0.38524 0.0
O86 O 0.95432 0.75976 0.39149 0.0
C87 C 0.95629 0.86556 0.37138 0.0
O88 O 0.90911 0.82998 0.42767 0.0
Co89 Co 0.98164 0.88607 0.4475 0.0
O90 O 0.92735 0.88351 0.45526 0.0
C91 C -0.00072 0.81681 0.47694 0.0
C92 C 0.98824 0.7644 0.38038 0.0
C93 C 0.90276 0.85982 0.44635 0.0
O94 O 0.97473 0.80048 0.45743 0.0
O95 O 0.01502 0.84561 0.46464 0.0
O96 O 0.94302 0.83555 0.35733 0.0
O97 O 0.97319 0.86072 0.40193 0.0
Co98 Co 0.43088 0.20784 0.65549 0.0
O99 O 0.44759 0.25185 0.63522 0.0
O100 O 0.4843 0.20431 0.64148 0.0
C101 C 0.3785 0.20629 0.62137 0.0
O102 O 0.41408 0.1591 0.67767 0.0
Co103 Co 0.35799 0.23164 0.69749 0.0
O104 O 0.36055 0.17735 0.70526 0.0
C105 C 0.42725 0.24929 0.72692 0.0
C106 C 0.47966 0.23823 0.63037 0.0
C107 C 0.38424 0.15277 0.69635 0.0
O108 O 0.44358 0.22473 0.70742 0.0
O109 O 0.39845 0.26502 0.71461 0.0
O110 O 0.40852 0.19301 0.60733 0.0
O111 O 0.38334 0.22319 0.65193 0.0
Co112 Co 0.08858 0.03623 0.31315 0.0
O113 O 0.10885 0.99222 0.29644 0.0
O114 O 0.10259 0.03975 0.25973 0.0
C115 C 0.1227 0.03778 0.36552 0.0
O116 O 0.06639 0.08496 0.32995 0.0
Co117 Co 0.04658 0.01242 0.38604 0.0
O118 O 0.03881 0.0667 0.38347 0.0
C119 C 0.01716 0.99477 0.31678 0.0
C120 C 0.1137 0.00583 0.26437 0.0
C121 C 0.04772 0.09129 0.35979 0.0
O122 O 0.03665 0.01933 0.30045 0.0
O123 O 0.02949 0.97903 0.34557 0.0
O124 O 0.13675 0.05106 0.33551 0.0
O125 O 0.09215 0.02088 0.36069 0.0
Co126 Co 0.20784 0.33858 0.56317 0.0
O127 O 0.25186 0.35885 0.54646 0.0
O128 O 0.20432 0.35259 0.50975 0.0
C129 C 0.20628 0.37269 0.61555 0.0
O130 O 0.1591 0.3164 0.57996 0.0
Co131 Co 0.23164 0.29657 0.63606 0.0
O132 O 0.17735 0.28881 0.63349 0.0
C133 C 0.24929 0.26715 0.5668 0.0
C134 C 0.23824 0.3637 0.5144 0.0
C135 C 0.15276 0.29772 0.6098 0.0
O136 O 0.22473 0.28665 0.55047 0.0
O137 O 0.26503 0.27946 0.59559 0.0
O138 O 0.19301 0.38674 0.58554 0.0
O139 O 0.22318 0.34214 0.61071 0.0
Co140 Co 0.90547 0.45784 0.81317 0.0
O141 O 0.8852 0.50185 0.79646 0.0
O142 O 0.89146 0.45432 0.75975 0.0
C143 C 0.87135 0.45629 0.86554 0.0
O144 O 0.92766 0.40911 0.82996 0.0
Co145 Co 0.94747 0.48165 0.88606 0.0
O146 O 0.95524 0.42736 0.88349 0.0
C147 C 0.97689 0.49929 0.8168 0.0
C148 C 0.88035 0.48824 0.76439 0.0
C149 C 0.94633 0.40277 0.8598 0.0
O150 O 0.95741 0.47473 0.80047 0.0
O151 O 0.96458 0.51503 0.84559 0.0
O152 O 0.85731 0.44301 0.83553 0.0
O153 O 0.9019 0.47319 0.86071 0.0
Co154 Co 0.78621 0.15547 0.06316 0.0
O155 O 0.7422 0.13519 0.04645 0.0
O156 O 0.78973 0.14146 0.00974 0.0
C157 C 0.78777 0.12136 0.11554 0.0
O158 O 0.83495 0.17765 0.07995 0.0
Co159 Co 0.76241 0.19748 0.13605 0.0
O160 O 0.81669 0.20525 0.13347 0.0
C161 C 0.74475 0.22688 0.06679 0.0
C162 C 0.75581 0.13034 0.01438 0.0
C163 C 0.84128 0.19634 0.10979 0.0
O164 O 0.76932 0.2074 0.05046 0.0
O165 O 0.72901 0.21456 0.09557 0.0
O166 O 0.80104 0.10731 0.08553 0.0
O167 O 0.77087 0.15191 0.1107 0.0
Co168 Co 0.08858 0.95784 0.68089 0.0
O169 O 0.10885 0.00185 0.6976 0.0
O170 O 0.1026 0.95431 0.73431 0.0
C171 C 0.12269 0.95629 0.62851 0.0
O172 O 0.0664 0.9091 0.6641 0.0
Co173 Co 0.04656 0.98165 0.60801 0.0
O174 O 0.0388 0.92736 0.61058 0.0
C175 C 0.01717 -0.0007 0.67728 0.0
C176 C 0.1137 0.98823 0.72967 0.0
C177 C 0.04771 0.90277 0.63426 0.0
O178 O 0.03665 0.97473 0.6936 0.0
O179 O 0.02949 0.01504 0.64849 0.0
O180 O 0.13674 0.94301 0.65852 0.0
O181 O 0.09213 0.97319 0.63335 0.0
Co182 Co 0.28623 0.33859 0.9309 0.0
O183 O 0.24222 0.35886 0.94761 0.0
O184 O 0.28975 0.35259 0.98432 0.0
C185 C 0.28778 0.3727 0.87852 0.0
O186 O 0.33496 0.3164 0.9141 0.0
Co187 Co 0.26241 0.29658 0.85802 0.0
O188 O 0.3167 0.28881 0.86058 0.0
C189 C 0.24476 0.26718 0.92728 0.0
C190 C 0.25583 0.36371 0.97968 0.0
C191 C 0.34129 0.29772 0.88426 0.0
O192 O 0.26933 0.28666 0.94361 0.0
O193 O 0.22902 0.27951 0.8985 0.0
O194 O 0.30106 0.38675 0.90853 0.0
O195 O 0.27088 0.34215 0.88336 0.0
Co196 Co 0.90548 0.53623 0.18091 0.0
O197 O 0.88521 0.49221 0.19762 0.0
O198 O 0.89147 0.53976 0.23433 0.0
C199 C 0.87137 0.53778 0.12853 0.0
O200 O 0.92767 0.58496 0.16411 0.0
Co201 Co 0.9475 0.51242 0.10803 0.0
O202 O 0.95526 0.56671 0.11059 0.0
C203 C 0.97689 0.49476 0.17729 0.0
C204 C 0.88036 0.50583 0.22969 0.0
C205 C 0.94635 0.59129 0.13428 0.0
O206 O 0.95741 0.51933 0.19362 0.0
O207 O 0.96456 0.47903 0.14851 0.0
O208 O 0.85732 0.55105 0.15854 0.0
O209 O 0.90193 0.52088 0.13337 0.0
Co210 Co 0.70783 0.15547 0.43089 0.0
O211 O 0.75184 0.1352 0.44761 0.0
O212 O 0.7043 0.14146 0.48432 0.0
C213 C 0.70627 0.12136 0.37852 0.0
O214 O 0.65909 0.17766 0.41409 0.0
Co215 Co 0.73164 0.19747 0.35801 0.0
O216 O 0.67735 0.20524 0.36057 0.0
C217 C 0.74929 0.22688 0.42727 0.0
C218 C 0.73822 0.13035 0.47967 0.0
C219 C 0.65276 0.19633 0.38425 0.0
O220 O 0.72472 0.2074 0.44359 0.0
O221 O 0.76503 0.21456 0.39848 0.0
O222 O 0.693 0.10731 0.40853 0.0
O223 O 0.72317 0.15191 0.38335 0.0
Co224 Co 0.31315 0.08858 0.03621 0.0
O225 O 0.29644 0.10885 0.9922 0.0
O226 O 0.25973 0.10259 0.03974 0.0
C227 C 0.36553 0.12269 0.03777 0.0
O228 O 0.32995 0.06639 0.08494 0.0
Co229 Co 0.38603 0.04657 0.01239 0.0
O230 O 0.38347 0.0388 0.06667 0.0
C231 C 0.31676 0.01717 0.99474 0.0
C232 C 0.26437 0.11371 0.00582 0.0
C233 C 0.35979 0.04771 0.09127 0.0
O234 O 0.30044 0.03665 0.01931 0.0
O235 O 0.34555 0.02949 0.979 0.0
O236 O 0.33552 0.13674 0.05104 0.0
O237 O 0.36069 0.09214 0.02086 0.0
Co238 Co 0.81315 0.90549 0.45782 0.0
O239 O 0.79644 0.8852 0.50182 0.0
O240 O 0.75973 0.89147 0.45429 0.0
C241 C 0.86553 0.8714 0.45624 0.0
O242 O 0.82995 0.92768 0.40909 0.0
Co243 Co 0.88603 0.94751 0.48164 0.0
O244 O 0.88347 0.95527 0.42735 0.0
C245 C 0.81676 0.97689 0.49929 0.0
C246 C 0.76437 0.88035 0.48821 0.0
C247 C 0.85979 0.94636 0.40276 0.0
O248 O 0.80044 0.95741 0.47472 0.0
O249 O 0.84554 0.96457 0.51503 0.0
O250 O 0.83552 0.85733 0.44298 0.0
O251 O 0.86069 0.90193 0.47316 0.0
Co252 Co 0.33857 0.06315 0.70782 0.0
O253 O 0.35885 0.04645 0.75183 0.0
O254 O 0.35259 0.00973 0.7043 0.0
C255 C 0.37266 0.11553 0.70624 0.0
O256 O 0.31638 0.07995 0.65909 0.0
Co257 Co 0.29655 0.13603 0.73164 0.0
O258 O 0.28879 0.13347 0.67735 0.0
C259 C 0.26717 0.06677 0.74929 0.0
C260 C 0.3637 0.01438 0.73822 0.0
C261 C 0.2977 0.10979 0.65276 0.0
O262 O 0.28665 0.05044 0.72472 0.0
O263 O 0.27949 0.09555 0.76503 0.0
O264 O 0.38673 0.08552 0.69298 0.0
O265 O 0.34212 0.11069 0.72316 0.0
Co266 Co 0.18091 0.58857 0.95783 0.0
O267 O 0.19762 0.60886 0.00184 0.0
O268 O 0.23433 0.60259 0.9543 0.0
C269 C 0.12853 0.62266 0.95625 0.0
O270 O 0.16411 0.56638 0.9091 0.0
Co271 Co 0.10803 0.54655 0.98165 0.0
O272 O 0.11059 0.53879 0.92736 0.0
C273 C 0.1773 0.51717 -0.0007 0.0
C274 C 0.22968 0.61371 0.98822 0.0
C275 C 0.13427 0.5477 0.90277 0.0
O276 O 0.19362 0.53665 0.97473 0.0
O277 O 0.14852 0.52949 0.01504 0.0
O278 O 0.15854 0.63673 0.94299 0.0
O279 O 0.13337 0.59212 0.97317 0.0
Co280 Co 0.15551 0.93089 0.20782 0.0
O281 O 0.13525 0.94761 0.25184 0.0
O282 O 0.1415 0.98432 0.20429 0.0
C283 C 0.12139 0.87852 0.20628 0.0
O284 O 0.17769 0.91409 0.15909 0.0
Co285 Co 0.19751 0.858 0.23162 0.0
O286 O 0.20527 0.86056 0.17733 0.0
C287 C 0.22693 0.92726 0.24927 0.0
C288 C 0.1304 0.97968 0.23822 0.0
C289 C 0.19636 0.88425 0.15275 0.0
O290 O 0.20744 0.94359 0.22471 0.0
O291 O 0.21462 0.89847 0.265 0.0
O292 O 0.10734 0.90853 0.193 0.0
O293 O 0.15194 0.88335 0.22317 0.0
Co294 Co 0.68088 0.90546 0.0362 0.0
O295 O 0.69759 0.88519 0.99219 0.0
O296 O 0.7343 0.89146 0.03972 0.0
C297 C 0.6285 0.87135 0.03776 0.0
O298 O 0.66409 0.92765 0.08494 0.0
Co299 Co 0.60799 0.94747 0.0124 0.0
O300 O 0.61056 0.95524 0.06669 0.0
C301 C 0.67725 0.97689 0.99475 0.0
C302 C 0.72966 0.88034 0.0058 0.0
C303 C 0.63425 0.94633 0.09127 0.0
O304 O 0.69358 0.9574 0.01931 0.0
O305 O 0.64845 0.96457 0.97901 0.0
O306 O 0.65852 0.8573 0.05103 0.0
O307 O 0.63334 0.9019 0.02086 0.0
Co308 Co 0.33855 0.43089 0.78622 0.0
O309 O 0.35882 0.4476 0.7422 0.0
O310 O 0.35256 0.48431 0.78974 0.0
C311 C 0.37268 0.37852 0.78777 0.0
O312 O 0.31637 0.4141 0.83495 0.0
Co313 Co 0.29656 0.35799 0.76242 0.0
O314 O 0.28878 0.36057 0.81671 0.0
C315 C 0.26713 0.42725 0.74477 0.0
C316 C 0.36367 0.47967 0.75582 0.0
C317 C 0.29768 0.38426 0.84129 0.0
O318 O 0.28662 0.44359 0.76933 0.0
O319 O 0.27944 0.39846 0.72904 0.0
O320 O 0.38672 0.40853 0.80104 0.0
O321 O 0.34212 0.38335 0.77087 0.0
Co322 Co 0.6555 0.06316 0.28621 0.0
O323 O 0.63523 0.04645 0.2422 0.0
O324 O 0.6415 0.00974 0.28974 0.0
C325 C 0.62137 0.11553 0.28776 0.0
O326 O 0.67768 0.07995 0.33495 0.0
Co327 Co 0.69749 0.13606 0.26242 0.0
O328 O 0.70527 0.13348 0.3167 0.0
C329 C 0.72692 0.0668 0.24477 0.0
C330 C 0.63038 0.01438 0.25581 0.0
C331 C 0.69637 0.10979 0.34128 0.0
O332 O 0.70743 0.05047 0.26932 0.0
O333 O 0.71462 0.0956 0.22903 0.0
O334 O 0.60733 0.08552 0.30104 0.0
O335 O 0.65193 0.1107 0.27087 0.0
Co336 Co 0.03622 0.81317 0.58858 0.0
O337 O 0.99222 0.79646 0.60887 0.0
O338 O 0.03975 0.75974 0.60257 0.0
C339 C 0.03782 0.86554 0.62268 0.0
O340 O 0.08495 0.82996 0.56637 0.0
Co341 Co 0.0124 0.88606 0.54658 0.0
O342 O 0.06669 0.88349 0.5388 0.0
C343 C 0.99469 0.81679 0.5172 0.0
C344 C 0.00583 0.76439 0.6137 0.0
C345 C 0.09128 0.85981 0.5477 0.0
O346 O 0.0193 0.80048 0.53665 0.0
O347 O 0.97898 0.84561 0.52948 0.0
O348 O 0.05109 0.83552 0.63674 0.0
O349 O 0.02089 0.86071 0.59215 0.0
Co350 Co 0.93089 0.78621 0.83856 0.0
O351 O 0.9476 0.74219 0.85883 0.0
O352 O 0.98431 0.78973 0.85258 0.0
C353 C 0.87851 0.78776 0.87267 0.0
O354 O 0.9141 0.83494 0.81638 0.0
Co355 Co 0.85801 0.7624 0.79654 0.0
O356 O 0.86058 0.81669 0.78878 0.0
C357 C 0.92728 0.74476 0.76714 0.0
C358 C 0.97967 0.75581 0.86369 0.0
C359 C 0.88426 0.84128 0.7977 0.0
O360 O 0.9436 0.76932 0.78663 0.0
O361 O 0.89849 0.72902 0.77945 0.0
O362 O 0.90852 0.80103 0.88672 0.0
O363 O 0.88335 0.77086 0.84211 0.0
Co364 Co 0.95783 0.68089 0.08859 0.0
O365 O 0.00184 0.6976 0.10888 0.0
O366 O 0.95431 0.73432 0.10258 0.0
C367 C 0.95624 0.62853 0.12269 0.0
O368 O 0.90911 0.6641 0.06638 0.0
Co369 Co 0.98166 0.60801 0.0466 0.0
O370 O 0.92737 0.61057 0.03882 0.0
C371 C -0.00064 0.67727 0.01721 0.0
C372 C 0.98823 0.72968 0.11371 0.0
C373 C 0.90278 0.63426 0.04771 0.0
O374 O 0.97476 0.69358 0.03666 0.0
O375 O 0.01508 0.64845 0.02949 0.0
O376 O 0.94297 0.65854 0.13675 0.0
O377 O 0.97317 0.63335 0.09216 0.0
Co378 Co 0.06317 0.70785 0.33856 0.0
O379 O 0.04646 0.75187 0.35883 0.0
O380 O 0.00975 0.70433 0.35258 0.0
C381 C 0.11555 0.7063 0.37267 0.0
O382 O 0.07996 0.65911 0.31638 0.0
Co383 Co 0.13606 0.73165 0.29655 0.0
O384 O 0.13349 0.67736 0.28879 0.0
C385 C 0.0668 0.7493 0.26714 0.0
C386 C 0.01439 0.73825 0.36368 0.0
C387 C 0.1098 0.65278 0.29771 0.0
O388 O 0.05047 0.72474 0.28663 0.0
O389 O 0.09559 0.76504 0.27946 0.0
O390 O 0.08554 0.69303 0.38673 0.0
O391 O 0.11071 0.7232 0.34212 0.0
Co392 Co 0.03622 0.18089 0.40547 0.0
O393 O 0.99221 0.1976 0.38518 0.0
O394 O 0.03974 0.23432 0.39147 0.0
C395 C 0.03782 0.12852 0.37137 0.0
O396 O 0.08494 0.16411 0.42768 0.0
Co397 Co 0.01241 0.108 0.44747 0.0
O398 O 0.06669 0.11057 0.45525 0.0
C399 C 0.99469 0.17727 0.47685 0.0
C400 C 0.00582 0.22967 0.38035 0.0
C401 C 0.09128 0.13426 0.44635 0.0
O402 O 0.01929 0.19358 0.4574 0.0
O403 O 0.97898 0.14844 0.46458 0.0
O404 O 0.05108 0.15854 0.35731 0.0
O405 O 0.02088 0.13335 0.4019 0.0
Co406 Co 0.56318 0.78622 0.6555 0.0
O407 O 0.54646 0.74221 0.63524 0.0
O408 O 0.50976 0.78975 0.6415 0.0
C409 C 0.61555 0.78776 0.62137 0.0
O410 O 0.57999 0.83495 0.67768 0.0
Co411 Co 0.63607 0.76241 0.69749 0.0
O412 O 0.63352 0.8167 0.70526 0.0
C413 C 0.56681 0.74478 0.72693 0.0
C414 C 0.51439 0.75583 0.63039 0.0
C415 C 0.60983 0.84129 0.69635 0.0
O416 O 0.55049 0.76933 0.70744 0.0
O417 O 0.59561 0.72904 0.71463 0.0
O418 O 0.58554 0.80104 0.60733 0.0
O419 O 0.61072 0.77087 0.65193 0.0
Co420 Co 0.95783 0.31317 0.90548 0.0
O421 O 0.00184 0.29647 0.88519 0.0
O422 O 0.95431 0.25975 0.89148 0.0
C423 C 0.95623 0.36554 0.87138 0.0
O424 O 0.90911 0.32996 0.92769 0.0
Co425 Co 0.98165 0.38606 0.94748 0.0
O426 O 0.92736 0.38349 0.95526 0.0
C427 C -0.00064 0.3168 0.97686 0.0
C428 C 0.98823 0.26439 0.88036 0.0
C429 C 0.90277 0.3598 0.94636 0.0
O430 O 0.97476 0.30048 0.95741 0.0
O431 O 0.01507 0.34562 0.96459 0.0
O432 O 0.94297 0.33553 0.85733 0.0
O433 O 0.97317 0.36071 0.90192 0.0
Co434 Co 0.43088 0.70783 0.15551 0.0
O435 O 0.4476 0.75184 0.13525 0.0
O436 O 0.48431 0.7043 0.1415 0.0
C437 C 0.37851 0.70629 0.12138 0.0
O438 O 0.41408 0.65909 0.17768 0.0
Co439 Co 0.35799 0.73164 0.1975 0.0
O440 O 0.36055 0.67735 0.20527 0.0
C441 C 0.42726 0.74927 0.22695 0.0
C442 C 0.47967 0.73822 0.13039 0.0
C443 C 0.38423 0.65276 0.19636 0.0
O444 O 0.44358 0.72471 0.20744 0.0
O445 O 0.39846 0.76501 0.21465 0.0
O446 O 0.40852 0.69301 0.10734 0.0
O447 O 0.38334 0.72318 0.15194 0.0
Co448 Co 0.08856 0.53621 0.81318 0.0
O449 O 0.10885 0.49221 0.79647 0.0
O450 O 0.10255 0.53973 0.75975 0.0
C451 C 0.12268 0.53781 0.86554 0.0
O452 O 0.06635 0.58494 0.82998 0.0
Co453 Co 0.04658 0.5124 0.88608 0.0
O454 O 0.03879 0.56669 0.88351 0.0
C455 C 0.01716 0.4947 0.81682 0.0
C456 C 0.11368 0.50582 0.7644 0.0
C457 C 0.04767 0.59127 0.85982 0.0
O458 O 0.03663 0.51929 0.8005 0.0
O459 O 0.02941 0.479 0.84565 0.0
O460 O 0.13672 0.55107 0.83553 0.0
O461 O 0.09214 0.52088 0.86072 0.0
Co462 Co 0.20783 0.83858 0.06314 0.0
O463 O 0.25184 0.85886 0.04643 0.0
O464 O 0.20431 0.85259 0.00972 0.0
C465 C 0.20625 0.87267 0.11552 0.0
O466 O 0.1591 0.81639 0.07994 0.0
Co467 Co 0.23165 0.79656 0.13602 0.0
O468 O 0.17736 0.7888 0.13346 0.0
C469 C 0.2493 0.76717 0.06676 0.0
C470 C 0.23823 0.8637 0.01436 0.0
C471 C 0.15277 0.79771 0.10978 0.0
O472 O 0.22473 0.78665 0.05043 0.0
O473 O 0.26504 0.7795 0.09554 0.0
O474 O 0.19299 0.88674 0.08551 0.0
O475 O 0.22317 0.84213 0.11068 0.0
Co476 Co 0.9055 0.95785 0.31317 0.0
O477 O 0.88521 0.00185 0.29646 0.0
O478 O 0.89151 0.95433 0.25975 0.0
C479 C 0.87138 0.95625 0.36553 0.0
O480 O 0.92771 0.90912 0.32997 0.0
Co481 Co 0.94748 0.98166 0.38607 0.0
O482 O 0.95527 0.92737 0.3835 0.0
C483 C 0.9769 -0.00064 0.31681 0.0
C484 C 0.88038 0.98824 0.26439 0.0
C485 C 0.94638 0.90279 0.35981 0.0
O486 O 0.95743 0.97477 0.30049 0.0
O487 O 0.96465 0.01506 0.34565 0.0
O488 O 0.85733 0.94299 0.33552 0.0
O489 O 0.90192 0.97318 0.36071 0.0
Co490 Co 0.78622 0.65548 0.56316 0.0
O491 O 0.74221 0.63521 0.54644 0.0
O492 O 0.78975 0.64146 0.50974 0.0
C493 C 0.78777 0.62137 0.61553 0.0
O494 O 0.83496 0.67766 0.57995 0.0
Co495 Co 0.76241 0.69749 0.63604 0.0
O496 O 0.8167 0.70526 0.63347 0.0
C497 C 0.74477 0.7269 0.56677 0.0
C498 C 0.75583 0.63035 0.51438 0.0
C499 C 0.84129 0.69634 0.60979 0.0
O500 O 0.76933 0.70741 0.55045 0.0
O501 O 0.72903 0.71459 0.59556 0.0
O502 O 0.80105 0.60732 0.58553 0.0
O503 O 0.77087 0.65192 0.61069 0.0
Co504 Co 0.08855 0.45785 0.18088 0.0
O505 O 0.10884 0.50185 0.1976 0.0
O506 O 0.10255 0.45432 0.23431 0.0
C507 C 0.12268 0.45629 0.12852 0.0
O508 O 0.06636 0.40912 0.16409 0.0
Co509 Co 0.04657 0.48166 0.10799 0.0
O510 O 0.03878 0.42737 0.11056 0.0
C511 C 0.01716 0.49935 0.17726 0.0
C512 C 0.11367 0.48824 0.22967 0.0
C513 C 0.04768 0.40279 0.13425 0.0
O514 O 0.03663 0.47476 0.19357 0.0
O515 O 0.0294 0.51506 0.14842 0.0
O516 O 0.13672 0.443 0.15853 0.0
O517 O 0.09213 0.47319 0.13335 0.0
Co518 Co 0.28621 0.83859 0.43087 0.0
O519 O 0.2422 0.85886 0.44758 0.0
O520 O 0.28973 0.8526 0.48429 0.0
C521 C 0.28778 0.8727 0.37849 0.0
O522 O 0.33495 0.8164 0.41409 0.0
Co523 Co 0.26242 0.79657 0.35798 0.0
O524 O 0.31671 0.78881 0.36056 0.0
C525 C 0.24476 0.76717 0.42725 0.0
C526 C 0.25581 0.86371 0.47965 0.0
C527 C 0.34129 0.79772 0.38425 0.0
O528 O 0.26932 0.78666 0.44358 0.0
O529 O 0.22903 0.77948 0.39845 0.0
O530 O 0.30105 0.88675 0.4085 0.0
O531 O 0.27087 0.84214 0.38333 0.0
Co532 Co 0.9055 0.03621 0.68087 0.0
O533 O 0.88522 0.9922 0.69759 0.0
O534 O 0.89151 0.03974 0.7343 0.0
C535 C 0.87137 0.03777 0.62851 0.0
O536 O 0.9277 0.08494 0.66408 0.0
Co537 Co 0.94748 0.0124 0.60798 0.0
O538 O 0.95527 0.06669 0.61055 0.0
C539 C 0.9769 0.99471 0.67725 0.0
C540 C 0.88039 0.00582 0.72966 0.0
C541 C 0.94638 0.09127 0.63424 0.0
O542 O 0.95743 0.0193 0.69356 0.0
O543 O 0.96466 0.979 0.64841 0.0
O544 O 0.85734 0.05105 0.65852 0.0
O545 O 0.90192 0.02087 0.63334 0.0
Co546 Co 0.70784 0.65546 0.93089 0.0
O547 O 0.75185 0.63518 0.9476 0.0
O548 O 0.70432 0.64145 0.98431 0.0
C549 C 0.70628 0.62134 0.87851 0.0
O550 O 0.65911 0.67765 0.9141 0.0
Co551 Co 0.73165 0.69746 0.858 0.0
O552 O 0.67736 0.70523 0.86057 0.0
C553 C 0.7493 0.72687 0.92725 0.0
C554 C 0.73824 0.63034 0.97967 0.0
C555 C 0.65277 0.69632 0.88426 0.0
O556 O 0.72474 0.70739 0.94359 0.0
O557 O 0.76504 0.71454 0.89847 0.0
O558 O 0.693 0.6073 0.90853 0.0
O559 O 0.72318 0.65189 0.88335 0.0
Co560 Co 0.31318 0.58858 0.53621 0.0
O561 O 0.29647 0.60885 0.4922 0.0
O562 O 0.25975 0.60259 0.53973 0.0
C563 C 0.36555 0.6227 0.53777 0.0
O564 O 0.32997 0.5664 0.58495 0.0
Co565 Co 0.38607 0.54658 0.51241 0.0
O566 O 0.3835 0.53881 0.5667 0.0
C567 C 0.31681 0.51716 0.49476 0.0
C568 C 0.2644 0.6137 0.50581 0.0
C569 C 0.35981 0.54772 0.59128 0.0
O570 O 0.30048 0.53665 0.51932 0.0
O571 O 0.3456 0.52947 0.47902 0.0
O572 O 0.33554 0.63675 0.55104 0.0
O573 O 0.36072 0.59215 0.52087 0.0
Co574 Co 0.81316 0.40548 0.95784 0.0
O575 O 0.79646 0.3852 0.00185 0.0
O576 O 0.75974 0.39147 0.95432 0.0
C577 C 0.86554 0.37139 0.95625 0.0
O578 O 0.82995 0.42768 0.90911 0.0
Co579 Co 0.88606 0.44749 0.98164 0.0
O580 O 0.88347 0.45528 0.92736 0.0
C581 C 0.81679 0.47688 -0.00069 0.0
C582 C 0.76439 0.38035 0.98824 0.0
C583 C 0.85978 0.44638 0.90278 0.0
O584 O 0.80046 0.45741 0.97475 0.0
O585 O 0.84558 0.46456 0.01504 0.0
O586 O 0.83553 0.35732 0.943 0.0
O587 O 0.86071 0.40193 0.97318 0.0
Co588 Co 0.33855 0.56316 0.20782 0.0
O589 O 0.35882 0.54644 0.25183 0.0
O590 O 0.35256 0.50973 0.2043 0.0
C591 C 0.37265 0.61553 0.20624 0.0
O592 O 0.31636 0.57995 0.15909 0.0
Co593 Co 0.29654 0.63604 0.23163 0.0
O594 O 0.28878 0.63348 0.17735 0.0
C595 C 0.26713 0.56678 0.24928 0.0
C596 C 0.36367 0.51438 0.23822 0.0
C597 C 0.29769 0.6098 0.15276 0.0
O598 O 0.28662 0.55045 0.22471 0.0
O599 O 0.27944 0.59557 0.26502 0.0
O600 O 0.38671 0.58552 0.19299 0.0
O601 O 0.34211 0.6107 0.22317 0.0
Co602 Co 0.18089 0.08858 0.45782 0.0
O603 O 0.19759 0.10886 0.50183 0.0
O604 O 0.23431 0.10259 0.4543 0.0
C605 C 0.12851 0.12268 0.45624 0.0
O606 O 0.1641 0.06638 0.40909 0.0
Co607 Co 0.108 0.04657 0.48162 0.0
O608 O 0.11058 0.03878 0.42734 0.0
C609 C 0.17726 0.01717 0.49929 0.0
C610 C 0.22966 0.11371 0.48822 0.0
C611 C 0.13427 0.04769 0.40276 0.0
O612 O 0.19359 0.03666 0.47473 0.0
O613 O 0.14847 0.0295 0.51502 0.0
O614 O 0.15852 0.13674 0.44298 0.0
O615 O 0.13334 0.09214 0.47316 0.0
Co616 Co 0.15547 0.43088 0.70785 0.0
O617 O 0.13519 0.44759 0.75185 0.0
O618 O 0.14148 0.48431 0.70432 0.0
C619 C 0.12135 0.37851 0.70627 0.0
O620 O 0.17768 0.41409 0.65912 0.0
Co621 Co 0.19746 0.35798 0.73165 0.0
O622 O 0.20525 0.36056 0.67737 0.0
C623 C 0.22686 0.42724 0.74936 0.0
C624 C 0.13035 0.47966 0.73824 0.0
C625 C 0.19636 0.38425 0.65278 0.0
O626 O 0.2074 0.44356 0.72477 0.0
O627 O 0.2146 0.39841 0.76506 0.0
O628 O 0.10731 0.40852 0.69299 0.0
O629 O 0.1519 0.38334 0.72318 0.0
Co630 Co 0.6809 0.40547 0.53623 0.0
O631 O 0.69761 0.38519 0.49222 0.0
O632 O 0.73432 0.39145 0.53976 0.0
C633 C 0.62852 0.37136 0.53778 0.0
O634 O 0.6641 0.42766 0.58496 0.0
Co635 Co 0.60802 0.44748 0.5124 0.0
O636 O 0.61058 0.45524 0.56669 0.0
C637 C 0.67729 0.47688 0.49476 0.0
C638 C 0.72968 0.38034 0.50584 0.0
C639 C 0.63426 0.44633 0.59129 0.0
O640 O 0.69361 0.45739 0.51933 0.0
O641 O 0.6485 0.46456 0.47902 0.0
O642 O 0.65853 0.35731 0.55106 0.0
O643 O 0.63336 0.40191 0.52088 0.0
Co644 Co 0.33859 0.93088 0.28619 0.0
O645 O 0.35888 0.94758 0.24219 0.0
O646 O 0.35258 0.9843 0.28972 0.0
C647 C 0.37271 0.87851 0.28777 0.0
O648 O 0.31638 0.91409 0.33492 0.0
Co649 Co 0.2966 0.85798 0.26239 0.0
O650 O 0.2888 0.86056 0.31668 0.0
C651 C 0.2672 0.92724 0.24468 0.0
C652 C 0.36371 0.97966 0.2558 0.0
C653 C 0.29769 0.88426 0.34126 0.0
O654 O 0.28666 0.94356 0.26927 0.0
O655 O 0.27946 0.89841 0.22898 0.0
O656 O 0.38675 0.90852 0.30105 0.0
O657 O 0.34217 0.88334 0.27086 0.0
Co658 Co 0.65547 0.56316 0.78622 0.0
O659 O 0.6352 0.54645 0.7422 0.0
O660 O 0.64146 0.50973 0.78974 0.0
C661 C 0.62136 0.61553 0.78777 0.0
O662 O 0.67767 0.57995 0.83495 0.0
Co663 Co 0.69748 0.63605 0.76241 0.0
O664 O 0.70527 0.63347 0.8167 0.0
C665 C 0.72689 0.56679 0.74475 0.0
C666 C 0.63035 0.51438 0.75582 0.0
C667 C 0.69636 0.60978 0.84128 0.0
O668 O 0.7074 0.55045 0.76931 0.0
O669 O 0.71456 0.59558 0.72902 0.0
O670 O 0.60731 0.58552 0.80105 0.0
O671 O 0.65191 0.6107 0.77087 0.0
Co672 Co 0.53621 0.31316 0.58855 0.0
O673 O 0.4922 0.29645 0.60882 0.0
O674 O 0.53974 0.25974 0.60256 0.0
C675 C 0.53776 0.36554 0.62267 0.0
O676 O 0.58495 0.32996 0.56637 0.0
Co677 Co 0.51242 0.38605 0.54655 0.0
O678 O 0.56671 0.38348 0.53878 0.0
C679 C 0.49477 0.31679 0.51712 0.0
C680 C 0.50581 0.26438 0.61367 0.0
C681 C 0.59129 0.35979 0.54768 0.0
O682 O 0.51932 0.30046 0.53662 0.0
O683 O 0.47904 0.34559 0.52942 0.0
O684 O 0.55104 0.33553 0.63672 0.0
O685 O 0.52087 0.3607 0.59211 0.0
Co686 Co 0.43088 0.28623 0.83856 0.0
O687 O 0.44759 0.24222 0.85886 0.0
O688 O 0.48431 0.28975 0.85255 0.0
C689 C 0.37852 0.28783 0.87267 0.0
O690 O 0.41409 0.33496 0.81635 0.0
Co691 Co 0.35799 0.26242 0.79658 0.0
O692 O 0.36056 0.3167 0.78879 0.0
C693 C 0.42725 0.2447 0.76718 0.0
C694 C 0.47966 0.25583 0.86368 0.0
C695 C 0.38425 0.34129 0.79768 0.0
O696 O 0.44357 0.2693 0.78664 0.0
O697 O 0.39842 0.229 0.77945 0.0
O698 O 0.40853 0.30109 0.88673 0.0
O699 O 0.38334 0.2709 0.84214 0.0
Co700 Co 0.45784 0.18088 0.08854 0.0
O701 O 0.50185 0.1976 0.10881 0.0
O702 O 0.45431 0.23431 0.10255 0.0
C703 C 0.45629 0.12851 0.12265 0.0
O704 O 0.4091 0.16409 0.06635 0.0
Co705 Co 0.48163 0.10799 0.04653 0.0
O706 O 0.42735 0.11056 0.03876 0.0
C707 C 0.49929 0.17726 0.01711 0.0
C708 C 0.48823 0.22966 0.11366 0.0
C709 C 0.40277 0.13426 0.04767 0.0
O710 O 0.47473 0.19359 0.03661 0.0
O711 O 0.51502 0.14846 0.02941 0.0
O712 O 0.44301 0.15852 0.1367 0.0
O713 O 0.47318 0.13334 0.0921 0.0
Co714 Co 0.56317 0.20782 0.33856 0.0
O715 O 0.54646 0.25183 0.35885 0.0
O716 O 0.50974 0.2043 0.35255 0.0
C717 C 0.61553 0.20622 0.37266 0.0
O718 O 0.57996 0.15909 0.31635 0.0
Co719 Co 0.63606 0.23163 0.29657 0.0
O720 O 0.63349 0.17735 0.28878 0.0
C721 C 0.56679 0.24934 0.26717 0.0
C722 C 0.51439 0.23822 0.36368 0.0
C723 C 0.6098 0.15276 0.29767 0.0
O724 O 0.55048 0.22475 0.28663 0.0
O725 O 0.59563 0.26505 0.27943 0.0
O726 O 0.58552 0.19296 0.38672 0.0
O727 O 0.61071 0.22316 0.34213 0.0
Co728 Co 0.53622 0.68087 0.4055 0.0
O729 O 0.4922 0.69759 0.38524 0.0
O730 O 0.53975 0.73429 0.3915 0.0
C731 C 0.53776 0.6285 0.37138 0.0
O732 O 0.58496 0.66407 0.42767 0.0
Co733 Co 0.51241 0.60798 0.4475 0.0
O734 O 0.5667 0.61054 0.45526 0.0
C735 C 0.49478 0.67725 0.47694 0.0
C736 C 0.50582 0.72966 0.38039 0.0
C737 C 0.59129 0.63422 0.44635 0.0
O738 O 0.51934 0.69357 0.45744 0.0
O739 O 0.47904 0.64845 0.46465 0.0
O740 O 0.55104 0.65851 0.35733 0.0
O741 O 0.52087 0.63333 0.40193 0.0
Co742 Co 0.06316 0.28622 0.65547 0.0
O743 O 0.04646 0.24222 0.63517 0.0
O744 O 0.00973 0.28974 0.64147 0.0
C745 C 0.11553 0.28783 0.62138 0.0
O746 O 0.07994 0.33495 0.67768 0.0
Co747 Co 0.13604 0.26241 0.69747 0.0
O748 O 0.13347 0.31669 0.70526 0.0
C749 C 0.06678 0.24469 0.72685 0.0
C750 C 0.01438 0.25582 0.63034 0.0
C751 C 0.10978 0.34128 0.69637 0.0
O752 O 0.05046 0.26929 0.70739 0.0
O753 O 0.0956 0.22899 0.71458 0.0
O754 O 0.08552 0.30109 0.60731 0.0
O755 O 0.1107 0.27089 0.65191 0.0
Co756 Co 0.45784 0.81317 0.90549 0.0
O757 O 0.50186 0.79645 0.88523 0.0
O758 O 0.45431 0.75975 0.89149 0.0
C759 C 0.4563 0.86554 0.87137 0.0
O760 O 0.4091 0.82997 0.92766 0.0
Co761 Co 0.48165 0.88606 0.94749 0.0
O762 O 0.42736 0.8835 0.95525 0.0
C763 C 0.49928 0.8168 0.97693 0.0
C764 C 0.48824 0.76439 0.88038 0.0
C765 C 0.40277 0.85982 0.94634 0.0
O766 O 0.47472 0.80047 0.95743 0.0
O767 O 0.51502 0.8456 0.96464 0.0
O768 O 0.44303 0.83553 0.85732 0.0
O769 O 0.47319 0.86071 0.90192 0.0
Co770 Co 0.93088 0.20784 0.15546 0.0
O771 O 0.94759 0.25185 0.13517 0.0
O772 O 0.98431 0.20432 0.14147 0.0
C773 C 0.87851 0.20624 0.12136 0.0
O774 O 0.9141 0.15911 0.17767 0.0
Co775 Co 0.858 0.23165 0.19746 0.0
O776 O 0.86057 0.17736 0.20524 0.0
C777 C 0.92726 0.24937 0.22684 0.0
C778 C 0.97966 0.23824 0.13034 0.0
C779 C 0.88426 0.15278 0.19634 0.0
O780 O 0.94357 0.22477 0.20739 0.0
O781 O 0.89843 0.26507 0.21458 0.0
O782 O 0.90853 0.19298 0.10731 0.0
O783 O 0.88334 0.22317 0.1519 0.0
Co784 Co 0.58858 0.03622 0.81314 0.0
O785 O 0.60885 0.99221 0.79643 0.0
O786 O 0.6026 0.03975 0.75972 0.0
C787 C 0.62269 0.03777 0.86552 0.0
O788 O 0.56639 0.08495 0.82994 0.0
Co789 Co 0.54656 0.01241 0.88602 0.0
O790 O 0.53879 0.0667 0.88346 0.0
C791 C 0.51717 0.99476 0.81676 0.0
C792 C 0.61371 0.00583 0.76436 0.0
C793 C 0.54771 0.09129 0.85977 0.0
O794 O 0.53665 0.01933 0.80043 0.0
O795 O 0.52949 0.97902 0.84554 0.0
O796 O 0.63674 0.05104 0.83552 0.0
O797 O 0.59213 0.02087 0.86068 0.0
Co798 Co 0.70784 0.33855 0.06318 0.0
O799 O 0.75185 0.35883 0.04647 0.0
O800 O 0.70432 0.35254 0.00976 0.0
C801 C 0.70628 0.37268 0.11555 0.0
O802 O 0.65911 0.31635 0.07998 0.0
Co803 Co 0.73164 0.29657 0.13608 0.0
O804 O 0.67736 0.28878 0.13351 0.0
C805 C 0.74934 0.26715 0.06682 0.0
C806 C 0.73824 0.36366 0.0144 0.0
C807 C 0.65278 0.29767 0.10981 0.0
O808 O 0.72476 0.28662 0.0505 0.0
O809 O 0.76505 0.27939 0.09565 0.0
O810 O 0.693 0.38671 0.08553 0.0
O811 O 0.72319 0.34213 0.11072 0.0
Co812 Co 0.40548 0.45783 0.31315 0.0
O813 O 0.38521 0.50184 0.29644 0.0
O814 O 0.39147 0.4543 0.25973 0.0
C815 C 0.37137 0.45628 0.36553 0.0
O816 O 0.42766 0.40909 0.32995 0.0
Co817 Co 0.44749 0.48164 0.38604 0.0
O818 O 0.45526 0.42735 0.38347 0.0
C819 C 0.4769 0.49928 0.31677 0.0
C820 C 0.38036 0.48822 0.26437 0.0
C821 C 0.44634 0.40276 0.35979 0.0
O822 O 0.45741 0.47472 0.30045 0.0
O823 O 0.46458 0.51502 0.34556 0.0
O824 O 0.35732 0.44301 0.33553 0.0
O825 O 0.40192 0.47318 0.36069 0.0
Co826 Co 0.28621 0.1555 0.56317 0.0
O827 O 0.24221 0.13521 0.54646 0.0
O828 O 0.28974 0.14151 0.50974 0.0
C829 C 0.28781 0.12138 0.61553 0.0
O830 O 0.33494 0.1777 0.57996 0.0
Co831 Co 0.2624 0.19747 0.63607 0.0
O832 O 0.31669 0.20527 0.6335 0.0
C833 C 0.2447 0.22689 0.56681 0.0
C834 C 0.25582 0.13038 0.51438 0.0
C835 C 0.34127 0.19638 0.6098 0.0
O836 O 0.26929 0.20742 0.55049 0.0
O837 O 0.22899 0.21463 0.59564 0.0
O838 O 0.30107 0.10733 0.58551 0.0
O839 O 0.27088 0.15192 0.61071 0.0
Co840 Co 0.58858 0.95782 0.18088 0.0
O841 O 0.60886 0.00183 0.19759 0.0
O842 O 0.60258 0.9543 0.23431 0.0
C843 C 0.62267 0.95623 0.12851 0.0
O844 O 0.56638 0.90909 0.16409 0.0
Co845 Co 0.54657 0.98163 0.10799 0.0
O846 O 0.5388 0.92734 0.11057 0.0
C847 C 0.51717 -0.00071 0.17725 0.0
C848 C 0.6137 0.98822 0.22966 0.0
C849 C 0.54771 0.90275 0.13425 0.0
O850 O 0.53665 0.97472 0.19358 0.0
O851 O 0.52949 0.01503 0.14847 0.0
O852 O 0.63674 0.94298 0.15852 0.0
O853 O 0.59213 0.97316 0.13334 0.0
Co854 Co 0.78622 0.33854 0.43089 0.0
O855 O 0.74222 0.35882 0.44761 0.0
O856 O 0.78975 0.35253 0.48432 0.0
C857 C 0.78778 0.37268 0.37853 0.0
O858 O 0.83495 0.31634 0.41408 0.0
Co859 Co 0.7624 0.29658 0.35799 0.0
O860 O 0.81669 0.28878 0.36055 0.0
C861 C 0.74471 0.26715 0.42725 0.0
C862 C 0.75583 0.36365 0.47968 0.0
C863 C 0.84127 0.29767 0.38424 0.0
O864 O 0.7693 0.28661 0.44357 0.0
O865 O 0.729 0.2794 0.39842 0.0
O866 O 0.80107 0.38671 0.40854 0.0
O867 O 0.77087 0.34213 0.38335 0.0
Co868 Co 0.40548 0.53623 0.68089 0.0
O869 O 0.3852 0.49222 0.6976 0.0
O870 O 0.39147 0.53975 0.73431 0.0
C871 C 0.37138 0.53782 0.62852 0.0
O872 O 0.42767 0.58496 0.6641 0.0
Co873 Co 0.44749 0.51242 0.60801 0.0
O874 O 0.45526 0.56671 0.61058 0.0
C875 C 0.47689 0.49476 0.67727 0.0
C876 C 0.38036 0.50583 0.72967 0.0
C877 C 0.44635 0.5913 0.63426 0.0
O878 O 0.45741 0.51933 0.69359 0.0
O879 O 0.46456 0.47902 0.64848 0.0
O880 O 0.35732 0.55107 0.65853 0.0
O881 O 0.40192 0.52089 0.63335 0.0
Co882 Co 0.20783 0.15552 0.93087 0.0
O883 O 0.25184 0.13524 0.94759 0.0
O884 O 0.2043 0.14152 0.9843 0.0
C885 C 0.20628 0.12139 0.87851 0.0
O886 O 0.15911 0.17771 0.91407 0.0
Co887 Co 0.23165 0.1975 0.85798 0.0
O888 O 0.17736 0.20528 0.86054 0.0
C889 C 0.24934 0.22691 0.92725 0.0
C890 C 0.23822 0.1304 0.97966 0.0
C891 C 0.15278 0.19639 0.88424 0.0
O892 O 0.22475 0.20744 0.94356 0.0
O893 O 0.26505 0.21467 0.89841 0.0
O894 O 0.19299 0.10735 0.90852 0.0
O895 O 0.22318 0.15194 0.88334 0.0
Co896 Co 0.81316 0.08855 0.53622 0.0
O897 O 0.79645 0.10884 0.49222 0.0
O898 O 0.75973 0.10255 0.53975 0.0
C899 C 0.86553 0.12266 0.53781 0.0
O900 O 0.82995 0.06635 0.58495 0.0
Co901 Co 0.88605 0.04656 0.51241 0.0
O902 O 0.88348 0.03878 0.56669 0.0
C903 C 0.81678 0.01716 0.49471 0.0
C904 C 0.76438 0.11367 0.50583 0.0
C905 C 0.85979 0.04767 0.59128 0.0
O906 O 0.80047 0.03662 0.5193 0.0
O907 O 0.84562 0.02941 0.479 0.0
O908 O 0.83552 0.13671 0.55108 0.0
O909 O 0.8607 0.09212 0.52088 0.0
Co910 Co 0.31317 0.9055 0.95782 0.0
O911 O 0.29646 0.88522 0.00183 0.0
O912 O 0.25974 0.89151 0.95429 0.0
C913 C 0.36554 0.8714 0.95623 0.0
O914 O 0.32996 0.9277 0.90909 0.0
Co915 Co 0.38605 0.9475 0.98163 0.0
O916 O 0.3835 0.95526 0.92735 0.0
C917 C 0.31679 0.9769 -0.00067 0.0
C918 C 0.26439 0.88039 0.98821 0.0
C919 C 0.35981 0.94636 0.90276 0.0
O920 O 0.30048 0.95743 0.97473 0.0
O921 O 0.34562 0.96465 0.01504 0.0
O922 O 0.33552 0.85734 0.94297 0.0
O923 O 0.36071 0.90193 0.97316 0.0
Co924 Co 0.83858 0.06318 0.20784 0.0
O925 O 0.85887 0.04647 0.25184 0.0
O926 O 0.85258 0.00975 0.20432 0.0
C927 C 0.87268 0.11555 0.20624 0.0
O928 O 0.81636 0.07996 0.15911 0.0
Co929 Co 0.79658 0.13607 0.23164 0.0
O930 O 0.78878 0.13349 0.17735 0.0
C931 C 0.76719 0.0668 0.24935 0.0
C932 C 0.8637 0.0144 0.23823 0.0
C933 C 0.79768 0.10979 0.15277 0.0
O934 O 0.78665 0.05048 0.22476 0.0
O935 O 0.77945 0.09564 0.26506 0.0
O936 O 0.88673 0.08553 0.19298 0.0
O937 O 0.84214 0.11072 0.22317 0.0
Co938 Co 0.68089 0.58854 0.45783 0.0
O939 O 0.6976 0.60882 0.50184 0.0
O940 O 0.73432 0.60254 0.45431 0.0
C941 C 0.62852 0.62264 0.45624 0.0
O942 O 0.6641 0.56634 0.40911 0.0
Co943 Co 0.60801 0.54654 0.48165 0.0
O944 O 0.61056 0.53878 0.42736 0.0
C945 C 0.67727 0.51715 0.49935 0.0
C946 C 0.72967 0.61366 0.48823 0.0
C947 C 0.63425 0.54768 0.40277 0.0
O948 O 0.69358 0.53661 0.47475 0.0
O949 O 0.64844 0.5294 0.51506 0.0
O950 O 0.65854 0.6367 0.44298 0.0
O951 O 0.63335 0.59211 0.47317 0.0
Co952 Co 0.65551 0.93089 0.70781 0.0
O953 O 0.63525 0.94761 0.75183 0.0
O954 O 0.64151 0.98432 0.70429 0.0
C955 C 0.62141 0.87852 0.70624 0.0
O956 O 0.6777 0.9141 0.65908 0.0
Co957 Co 0.69752 0.85801 0.73162 0.0
O958 O 0.70528 0.86057 0.67733 0.0
C959 C 0.72694 0.92727 0.74927 0.0
C960 C 0.6304 0.97967 0.73821 0.0
C961 C 0.69637 0.88425 0.65275 0.0
O962 O 0.70745 0.94359 0.7247 0.0
O963 O 0.71463 0.89848 0.76501 0.0
O964 O 0.60735 0.90853 0.69298 0.0
O965 O 0.65196 0.88335 0.72316 0.0
Co966 Co 0.18087 0.90551 0.5362 0.0
O967 O 0.19758 0.88522 0.49219 0.0
O968 O 0.2343 0.89152 0.53972 0.0
C969 C 0.12851 0.87139 0.5378 0.0
O970 O 0.16409 0.9277 0.58493 0.0
Co971 Co 0.10797 0.94749 0.51241 0.0
O972 O 0.11055 0.95528 0.5667 0.0
C973 C 0.17723 0.97691 0.4947 0.0
C974 C 0.22965 0.88039 0.5058 0.0
C975 C 0.13425 0.94638 0.59128 0.0
O976 O 0.19355 0.95744 0.51928 0.0
O977 O 0.14839 0.96466 0.479 0.0
O978 O 0.15852 0.85734 0.55105 0.0
O979 O 0.13333 0.90193 0.52087 0.0
Co980 Co 0.83855 0.4309 0.28624 0.0
O981 O 0.85882 0.44761 0.24223 0.0
O982 O 0.85255 0.48432 0.28977 0.0
C983 C 0.87265 0.37853 0.28781 0.0
O984 O 0.81636 0.4141 0.33497 0.0
Co985 Co 0.79654 0.35801 0.26242 0.0
O986 O 0.78877 0.36058 0.31671 0.0
C987 C 0.76713 0.42728 0.24477 0.0
C988 C 0.86367 0.47968 0.25584 0.0
C989 C 0.79768 0.38426 0.3413 0.0
O990 O 0.78662 0.4436 0.26934 0.0
O991 O 0.77945 0.39849 0.22904 0.0
O992 O 0.88671 0.40854 0.30107 0.0
O993 O 0.84211 0.38336 0.27089 0.0
Co994 Co 0.1555 0.06317 0.78622 0.0
O995 O 0.13522 0.04646 0.74221 0.0
O996 O 0.14151 0.00975 0.78974 0.0
C997 C 0.12139 0.11554 0.78781 0.0
O998 O 0.1777 0.07997 0.83495 0.0
Co999 Co 0.19749 0.13606 0.7624 0.0
O1000 O 0.20527 0.1335 0.81669 0.0
C1001 C 0.2269 0.0668 0.74471 0.0
C1002 C 0.13039 0.01439 0.75583 0.0
C1003 C 0.19638 0.10981 0.84128 0.0
O1004 O 0.20743 0.05049 0.7693 0.0
O1005 O 0.21465 0.09563 0.729 0.0
O1006 O 0.10734 0.08553 0.80107 0.0
O1007 O 0.15193 0.11071 0.77088 0.0
Co1008 Co 0.53622 0.81315 0.08857 0.0
O1009 O 0.49221 0.79645 0.10887 0.0
O1010 O 0.53974 0.75973 0.10257 0.0
C1011 C 0.53782 0.86552 0.12267 0.0
O1012 O 0.58494 0.82994 0.06635 0.0
Co1013 Co 0.5124 0.88604 0.04657 0.0
O1014 O 0.56669 0.88347 0.03878 0.0
C1015 C 0.49469 0.81678 0.0172 0.0
C1016 C 0.50582 0.76437 0.1137 0.0
C1017 C 0.59127 0.85977 0.04767 0.0
O1018 O 0.51929 0.80046 0.03665 0.0
O1019 O 0.47898 0.8456 0.02947 0.0
O1020 O 0.55108 0.83551 0.13673 0.0
O1021 O 0.52088 0.86069 0.09214 0.0
Co1022 Co 0.4309 0.78622 0.33858 0.0
O1023 O 0.4476 0.74221 0.35888 0.0
O1024 O 0.48432 0.78973 0.35258 0.0
C1025 C 0.37852 0.78783 0.37267 0.0
O1026 O 0.41412 0.83494 0.31636 0.0
Co1027 Co 0.35801 0.76241 0.29658 0.0
O1028 O 0.36059 0.81669 0.28879 0.0
C1029 C 0.42727 0.74468 0.26721 0.0
C1030 C 0.47967 0.75582 0.36371 0.0
C1031 C 0.38428 0.84127 0.29768 0.0
O1032 O 0.44359 0.76928 0.28666 0.0
O1033 O 0.39845 0.72898 0.27949 0.0
O1034 O 0.40854 0.80109 0.38673 0.0
O1035 O 0.38335 0.77089 0.34214 0.0
Co1036 Co 0.45784 0.6809 0.58858 0.0
O1037 O 0.50184 0.6976 0.60887 0.0
O1038 O 0.45432 0.73432 0.60257 0.0
C1039 C 0.45624 0.62853 0.62268 0.0
O1040 O 0.40911 0.66411 0.56636 0.0
Co1041 Co 0.48165 0.608 0.54659 0.0
O1042 O 0.42737 0.61058 0.53879 0.0
C1043 C 0.49937 0.67727 0.51721 0.0
C1044 C 0.48823 0.72967 0.61371 0.0
C1045 C 0.40278 0.63427 0.54768 0.0
O1046 O 0.47477 0.69359 0.53666 0.0
O1047 O 0.51508 0.64844 0.52949 0.0
O1048 O 0.44297 0.65854 0.63673 0.0
O1049 O 0.47317 0.63336 0.59215 0.0
Co1050 Co 0.56317 0.70783 0.83857 0.0
O1051 O 0.54647 0.75183 0.85887 0.0
O1052 O 0.50974 0.70431 0.85257 0.0
C1053 C 0.61554 0.70622 0.87268 0.0
O1054 O 0.57995 0.6591 0.81636 0.0
Co1055 Co 0.63607 0.73163 0.79658 0.0
O1056 O 0.63349 0.67735 0.78879 0.0
C1057 C 0.56681 0.74936 0.7672 0.0
C1058 C 0.5144 0.73823 0.8637 0.0
C1059 C 0.60979 0.65277 0.79768 0.0
O1060 O 0.55048 0.72476 0.78665 0.0
O1061 O 0.59563 0.76506 0.77947 0.0
O1062 O 0.58553 0.69296 0.88673 0.0
O1063 O 0.61071 0.72316 0.84214 0.0
Co1064 Co 0.53622 0.18088 0.90546 0.0
O1065 O 0.49222 0.1976 0.88517 0.0
O1066 O 0.53974 0.23431 0.89147 0.0
C1067 C 0.53782 0.12852 0.87136 0.0
O1068 O 0.58495 0.16409 0.92767 0.0
Co1069 Co 0.5124 0.108 0.94745 0.0
O1070 O 0.56669 0.11056 0.95523 0.0
C1071 C 0.4947 0.17726 0.97684 0.0
C1072 C 0.50583 0.22967 0.88035 0.0
C1073 C 0.59128 0.13424 0.94633 0.0
O1074 O 0.5193 0.19357 0.95739 0.0
O1075 O 0.47899 0.14843 0.96458 0.0
O1076 O 0.55108 0.15853 0.8573 0.0
O1077 O 0.52088 0.13335 0.90189 0.0
Co1078 Co 0.06318 0.78623 0.15549 0.0
O1079 O 0.04646 0.74223 0.1352 0.0
O1080 O 0.00975 0.78975 0.1415 0.0
C1081 C 0.11554 0.78783 0.12137 0.0
O1082 O 0.07997 0.83496 0.17769 0.0
Co1083 Co 0.13607 0.76242 0.19746 0.0
O1084 O 0.1335 0.8167 0.20526 0.0
C1085 C 0.06681 0.74472 0.22688 0.0
C1086 C 0.01439 0.75584 0.13038 0.0
C1087 C 0.10981 0.84129 0.19637 0.0
O1088 O 0.05049 0.76931 0.20741 0.0
O1089 O 0.09564 0.72901 0.21462 0.0
O1090 O 0.08552 0.80109 0.10732 0.0
O1091 O 0.11071 0.77089 0.15191 0.0
Co1092 Co 0.45783 0.31316 0.40547 0.0
O1093 O 0.50184 0.29645 0.38518 0.0
O1094 O 0.45431 0.25973 0.39148 0.0
C1095 C 0.45624 0.36553 0.37137 0.0
O1096 O 0.40911 0.32995 0.42768 0.0
Co1097 Co 0.48166 0.38605 0.44747 0.0
O1098 O 0.42737 0.38349 0.45524 0.0
C1099 C 0.49936 0.31678 0.47685 0.0
C1100 C 0.48823 0.26438 0.38035 0.0
C1101 C 0.40278 0.3598 0.44635 0.0
O1102 O 0.47476 0.30047 0.4574 0.0
O1103 O 0.51507 0.34561 0.46459 0.0
O1104 O 0.44298 0.33551 0.35731 0.0
O1105 O 0.47317 0.3607 0.4019 0.0
Co1106 Co 0.93089 0.70783 0.65548 0.0
O1107 O 0.9476 0.75184 0.63519 0.0
O1108 O 0.98432 0.70431 0.64149 0.0
C1109 C 0.87852 0.70624 0.62137 0.0
O1110 O 0.9141 0.6591 0.67768 0.0
Co1111 Co 0.858 0.73165 0.69747 0.0
O1112 O 0.86056 0.67736 0.70525 0.0
C1113 C 0.92727 0.74935 0.72687 0.0
C1114 C 0.97967 0.73823 0.63037 0.0
C1115 C 0.88425 0.65277 0.69635 0.0
O1116 O 0.94358 0.72475 0.70741 0.0
O1117 O 0.89844 0.76506 0.71462 0.0
O1118 O 0.90854 0.69298 0.60732 0.0
O1119 O 0.88335 0.72317 0.65191 0.0
Co1120 Co 0.58856 0.5362 0.31318 0.0
O1121 O 0.60884 0.4922 0.29646 0.0
O1122 O 0.60255 0.53973 0.25975 0.0
C1123 C 0.62266 0.53779 0.36554 0.0
O1124 O 0.56635 0.58493 0.32997 0.0
Co1125 Co 0.54656 0.51239 0.38606 0.0
O1126 O 0.53877 0.56668 0.3835 0.0
C1127 C 0.51716 0.49469 0.31679 0.0
C1128 C 0.61368 0.50581 0.26439 0.0
C1129 C 0.54767 0.59126 0.3598 0.0
O1130 O 0.53663 0.51929 0.30048 0.0
O1131 O 0.52941 0.47899 0.34563 0.0
O1132 O 0.63672 0.55106 0.33553 0.0
O1133 O 0.59212 0.52086 0.36071 0.0
Co1134 Co 0.70783 0.83855 0.56315 0.0
O1135 O 0.75184 0.85884 0.54644 0.0
O1136 O 0.7043 0.85254 0.50972 0.0
C1137 C 0.70625 0.87266 0.61551 0.0
O1138 O 0.65911 0.81634 0.57995 0.0
Co1139 Co 0.73165 0.79656 0.63604 0.0
O1140 O 0.67737 0.78877 0.63348 0.0
C1141 C 0.74935 0.76716 0.56677 0.0
C1142 C 0.73822 0.86367 0.51437 0.0
C1143 C 0.65278 0.79766 0.60979 0.0
O1144 O 0.72475 0.78662 0.55046 0.0
O1145 O 0.76506 0.77942 0.5956 0.0
O1146 O 0.69298 0.88671 0.5855 0.0
O1147 O 0.72318 0.84212 0.61069 0.0
Co1148 Co 0.40551 0.95784 0.81316 0.0
O1149 O 0.38522 0.00184 0.79645 0.0
O1150 O 0.39151 0.95431 0.75973 0.0
C1151 C 0.3714 0.95625 0.86552 0.0
O1152 O 0.42771 0.90911 0.82995 0.0
Co1153 Co 0.4475 0.98165 0.88605 0.0
O1154 O 0.45529 0.92736 0.88348 0.0
C1155 C 0.4769 -0.00065 0.81678 0.0
C1156 C 0.38039 0.98823 0.76437 0.0
C1157 C 0.4464 0.90278 0.85979 0.0
O1158 O 0.45743 0.97476 0.80047 0.0
O1159 O 0.46465 0.01506 0.84561 0.0
O1160 O 0.35735 0.94298 0.83551 0.0
O1161 O 0.40194 0.97318 0.8607 0.0
Co1162 Co 0.28623 0.65551 0.06316 0.0
O1163 O 0.24222 0.63522 0.04645 0.0
O1164 O 0.28975 0.64152 0.00974 0.0
C1165 C 0.28781 0.62139 0.11552 0.0
O1166 O 0.33495 0.67771 0.07996 0.0
Co1167 Co 0.26241 0.69749 0.13605 0.0
O1168 O 0.31669 0.70528 0.1335 0.0
C1169 C 0.24472 0.7269 0.06679 0.0
C1170 C 0.25584 0.63039 0.01438 0.0
C1171 C 0.34128 0.69639 0.1098 0.0
O1172 O 0.26931 0.70744 0.05048 0.0
O1173 O 0.22901 0.71466 0.09563 0.0
O1174 O 0.30108 0.60734 0.08551 0.0
O1175 O 0.27088 0.65193 0.1107 0.0
Co1176 Co 0.58855 0.45783 0.68087 0.0
O1177 O 0.60884 0.50183 0.69759 0.0
O1178 O 0.60254 0.45431 0.7343 0.0
C1179 C 0.62267 0.45623 0.62852 0.0
O1180 O 0.56634 0.4091 0.66408 0.0
Co1181 Co 0.54657 0.48164 0.60798 0.0
O1182 O 0.53878 0.42735 0.61055 0.0
C1183 C 0.51716 0.49934 0.67724 0.0
C1184 C 0.61367 0.48822 0.72966 0.0
C1185 C 0.54767 0.40277 0.63424 0.0
O1186 O 0.53662 0.47475 0.69356 0.0
O1187 O 0.5294 0.51505 0.6484 0.0
O1188 O 0.63672 0.44297 0.65853 0.0
O1189 O 0.59213 0.47316 0.63334 0.0
Co1190 Co 0.78621 0.83854 0.93086 0.0
O1191 O 0.7422 0.85882 0.94757 0.0
O1192 O 0.78973 0.85253 0.98429 0.0
C1193 C 0.78778 0.87268 0.87849 0.0
O1194 O 0.83494 0.81635 0.91407 0.0
Co1195 Co 0.76241 0.79657 0.85796 0.0
O1196 O 0.8167 0.78878 0.86053 0.0
C1197 C 0.74471 0.76714 0.92722 0.0
C1198 C 0.75581 0.86366 0.97964 0.0
C1199 C 0.84128 0.79767 0.88423 0.0
O1200 O 0.76929 0.78661 0.94354 0.0
O1201 O 0.72901 0.77938 0.89838 0.0
O1202 O 0.80105 0.88671 0.90851 0.0
O1203 O 0.77087 0.84213 0.88332 0.0
Co1204 Co 0.4055 0.03621 0.18086 0.0
O1205 O 0.38521 0.99221 0.19756 0.0
O1206 O 0.39151 0.03973 0.23428 0.0
C1207 C 0.37138 0.03781 0.1285 0.0
O1208 O 0.4277 0.08494 0.16407 0.0
Co1209 Co 0.44748 0.01241 0.10796 0.0
O1210 O 0.45527 0.06669 0.11053 0.0
C1211 C 0.4769 0.9947 0.17722 0.0
C1212 C 0.38039 0.00581 0.22964 0.0
C1213 C 0.44638 0.09128 0.13423 0.0
O1214 O 0.45743 0.01929 0.19354 0.0
O1215 O 0.46466 0.979 0.14838 0.0
O1216 O 0.35733 0.05107 0.15851 0.0
O1217 O 0.40192 0.02088 0.13332 0.0
Co1218 Co 0.20785 0.6555 0.43087 0.0
O1219 O 0.25186 0.63522 0.44758 0.0
O1220 O 0.20432 0.64151 0.4843 0.0
C1221 C 0.20628 0.62137 0.3785 0.0
O1222 O 0.15912 0.6777 0.41408 0.0
Co1223 Co 0.23165 0.69748 0.35797 0.0
O1224 O 0.17737 0.70527 0.36054 0.0
C1225 C 0.24935 0.7269 0.42723 0.0
C1226 C 0.23824 0.63039 0.47965 0.0
C1227 C 0.15278 0.69638 0.38424 0.0
O1228 O 0.22477 0.70743 0.44355 0.0
O1229 O 0.26506 0.71465 0.3984 0.0
O1230 O 0.193 0.60734 0.40852 0.0
O1231 O 0.22319 0.65192 0.38333 0.0
Co1232 Co 0.81319 0.58856 0.03622 0.0
O1233 O 0.79648 0.60884 0.99221 0.0
O1234 O 0.75976 0.60254 0.03974 0.0
C1235 C 0.86555 0.62267 0.03782 0.0
O1236 O 0.82997 0.56636 0.08495 0.0
Co1237 Co 0.88609 0.54657 0.01243 0.0
O1238 O 0.88351 0.53879 0.06672 0.0
C1239 C 0.81683 0.51715 0.99472 0.0
C1240 C 0.7644 0.61366 0.00582 0.0
C1241 C 0.85981 0.54768 0.09129 0.0
O1242 O 0.80051 0.53662 0.0193 0.0
O1243 O 0.84567 0.52939 0.97902 0.0
O1244 O 0.83553 0.63672 0.05107 0.0
O1245 O 0.86073 0.59213 0.02089 0.0
Co1246 Co 0.31318 0.4055 0.45784 0.0
O1247 O 0.29648 0.38522 0.50185 0.0
O1248 O 0.25976 0.39151 0.45432 0.0
C1249 C 0.36555 0.37139 0.45624 0.0
O1250 O 0.32997 0.4277 0.40911 0.0
Co1251 Co 0.38608 0.44749 0.48163 0.0
O1252 O 0.3835 0.45527 0.42735 0.0
C1253 C 0.31682 0.47689 0.49935 0.0
C1254 C 0.2644 0.38039 0.48824 0.0
C1255 C 0.35981 0.44638 0.40277 0.0
O1256 O 0.3005 0.45743 0.47476 0.0
O1257 O 0.34566 0.46464 0.51505 0.0
O1258 O 0.33553 0.35734 0.44299 0.0
O1259 O 0.36073 0.40193 0.47318 0.0
Co1260 Co 0.83855 0.56318 0.70784 0.0
O1261 O 0.85884 0.54647 0.75185 0.0
O1262 O 0.85254 0.50975 0.70432 0.0
C1263 C 0.87266 0.61554 0.70624 0.0
O1264 O 0.81635 0.57996 0.65911 0.0
Co1265 Co 0.79656 0.63607 0.73163 0.0
O1266 O 0.78878 0.6335 0.67735 0.0
C1267 C 0.76715 0.56681 0.74934 0.0
C1268 C 0.86367 0.5144 0.73823 0.0
C1269 C 0.79767 0.6098 0.65277 0.0
O1270 O 0.78662 0.55049 0.72476 0.0
O1271 O 0.7794 0.59565 0.76504 0.0
O1272 O 0.88672 0.58553 0.69298 0.0
O1273 O 0.84212 0.61072 0.72317 0.0
Co1274 Co 0.68087 0.08855 0.95783 0.0
O1275 O 0.69758 0.10883 0.00184 0.0
O1276 O 0.7343 0.10254 0.95431 0.0
C1277 C 0.62851 0.12266 0.95623 0.0
O1278 O 0.66409 0.06635 0.9091 0.0
Co1279 Co 0.60797 0.04656 0.98162 0.0
O1280 O 0.61055 0.03877 0.92734 0.0
C1281 C 0.67723 0.01715 -0.00066 0.0
C1282 C 0.72965 0.11366 0.98823 0.0
C1283 C 0.63425 0.04767 0.90276 0.0
O1284 O 0.69355 0.03662 0.97475 0.0
O1285 O 0.6484 0.02941 0.01504 0.0
O1286 O 0.65852 0.13671 0.94298 0.0
O1287 O 0.63333 0.09212 0.97316 0.0
Co1288 Co 0.65548 0.43088 0.20784 0.0
O1289 O 0.63519 0.44758 0.25184 0.0
O1290 O 0.64148 0.48431 0.20432 0.0
C1291 C 0.62138 0.37851 0.20624 0.0
O1292 O 0.67769 0.41409 0.15911 0.0
Co1293 Co 0.69747 0.35799 0.23165 0.0
O1294 O 0.70526 0.36056 0.17737 0.0
C1295 C 0.72687 0.42726 0.24936 0.0
C1296 C 0.63036 0.47966 0.23823 0.0
C1297 C 0.69637 0.38425 0.15278 0.0
O1298 O 0.7074 0.44357 0.22476 0.0
O1299 O 0.71461 0.39842 0.26506 0.0
O1300 O 0.60732 0.40852 0.19298 0.0
O1301 O 0.65191 0.38334 0.22317 0.0
Co1302 Co 0.18089 0.40551 0.03623 0.0
O1303 O 0.1976 0.38522 0.99222 0.0
O1304 O 0.23432 0.39151 0.03976 0.0
C1305 C 0.12853 0.3714 0.03782 0.0
O1306 O 0.1641 0.42771 0.08496 0.0
Co1307 Co 0.10801 0.4475 0.01242 0.0
O1308 O 0.11057 0.45528 0.0667 0.0
C1309 C 0.17727 0.4769 0.99472 0.0
C1310 C 0.22967 0.38039 0.00584 0.0
C1311 C 0.13426 0.44639 0.09129 0.0
O1312 O 0.19358 0.45743 0.01931 0.0
O1313 O 0.14844 0.46465 0.97901 0.0
O1314 O 0.15854 0.35734 0.05108 0.0
O1315 O 0.13335 0.40194 0.02089 0.0
Co1316 Co 0.83858 0.93088 0.78622 0.0
O1317 O 0.85888 0.94759 0.74221 0.0
O1318 O 0.85258 0.98431 0.78974 0.0
C1319 C 0.87268 0.87851 0.78781 0.0
O1320 O 0.81637 0.9141 0.83494 0.0
Co1321 Co 0.79659 0.858 0.76239 0.0
O1322 O 0.7888 0.86057 0.81668 0.0
C1323 C 0.76721 0.92727 0.74468 0.0
C1324 C 0.86371 0.97966 0.75582 0.0
C1325 C 0.79769 0.88426 0.84126 0.0
O1326 O 0.78666 0.94358 0.76928 0.0
O1327 O 0.77947 0.89844 0.72898 0.0
O1328 O 0.88674 0.90852 0.80108 0.0
O1329 O 0.84215 0.88334 0.77088 0.0
Co1330 Co 0.15548 0.56317 0.28622 0.0
O1331 O 0.13518 0.54647 0.24222 0.0
O1332 O 0.14148 0.50974 0.28975 0.0
C1333 C 0.12138 0.61554 0.28782 0.0
O1334 O 0.17769 0.57996 0.33495 0.0
Co1335 Co 0.19748 0.63605 0.2624 0.0
O1336 O 0.20527 0.63348 0.31669 0.0
C1337 C 0.22686 0.56678 0.2447 0.0
C1338 C 0.13035 0.51439 0.25583 0.0
C1339 C 0.19637 0.6098 0.34127 0.0
O1340 O 0.2074 0.55047 0.26929 0.0
O1341 O 0.2146 0.59561 0.22899 0.0
O1342 O 0.10732 0.58553 0.30108 0.0
O1343 O 0.15192 0.61071 0.27089 0.0
loop_
_geom_bond_atom_site_label_1
_geom_bond_atom_site_label_2
_geom_bond_distance
_geom_bond_site_symmetry_2
_ccdc_geom_bond_type
Co0 O1 2.216 1_455 S
Co0 O2 2.091 . S
Co0 O4 2.004 . S
Co0 O10 2.021 . S
Co0 O12 2.137 . S
Co0 O13 2.244 . S
O1 Co0 2.216 1_655 S
O1 C8 1.247 1_655 S
O2 Co0 2.091 . S
O2 C8 1.261 . S
C3 O12 1.247 . S
C3 O13 1.272 . S
O4 Co0 2.004 . S
O4 C9 1.259 . S
Co5 O6 2.061 . S
Co5 O11 2.052 . S
Co5 O13 2.135 . S
O6 Co5 2.061 . S
O6 C9 1.235 . S
C7 O10 1.238 . S
C7 O11 1.241 . S
C8 O1 1.247 1_455 S
C8 O2 1.261 . S
C9 O4 1.259 . S
C9 O6 1.235 . S
O10 Co0 2.021 . S
O10 C7 1.238 . S
O11 Co5 2.052 . S
O11 C7 1.241 . S
O12 Co0 2.137 . S
O12 C3 1.247 . S
O13 Co0 2.244 . S
O13 C3 1.272 . S
O13 Co5 2.135 . S
Co14 O15 2.216 . S
Co14 O16 2.091 . S
Co14 O18 2.004 . S
Co14 O24 2.021 . S
Co14 O26 2.137 . S
Co14 O27 2.244 . S
O15 Co14 2.216 . S
O15 C22 1.247 . S
O16 Co14 2.091 . S
O16 C22 1.261 . S
C17 O26 1.247 . S
C17 O27 1.272 . S
O18 Co14 2.004 . S
O18 C23 1.259 . S
Co19 O20 2.061 . S
Co19 O25 2.052 . S
Co19 O27 2.135 . S
O20 Co19 2.061 . S
O20 C23 1.235 . S
C21 O24 1.238 . S
C21 O25 1.241 . S
C22 O15 1.247 . S
C22 O16 1.261 . S
C23 O18 1.259 . S
C23 O20 1.235 . S
O24 Co14 2.021 . S
O24 C21 1.238 . S
O25 Co19 2.052 . S
O25 C21 1.241 . S
O26 Co14 2.137 . S
O26 C17 1.247 . S
O27 Co14 2.244 . S
O27 C17 1.272 . S
O27 Co19 2.135 . S
Co28 O29 2.216 1_655 S
Co28 O30 2.091 . S
Co28 O32 2.004 . S
Co28 O38 2.021 . S
Co28 O40 2.137 . S
Co28 O41 2.244 . S
O29 Co28 2.216 1_455 S
O29 C36 1.247 1_455 S
O30 Co28 2.091 . S
O30 C36 1.261 . S
C31 O40 1.247 . S
C31 O41 1.272 . S
O32 Co28 2.004 . S
O32 C37 1.259 . S
Co33 O34 2.061 . S
Co33 O39 2.052 . S
Co33 O41 2.135 . S
O34 Co33 2.061 . S
O34 C37 1.235 . S
C35 O38 1.238 . S
C35 O39 1.241 . S
C36 O29 1.247 1_655 S
C36 O30 1.261 . S
C37 O32 1.259 . S
C37 O34 1.235 . S
O38 Co28 2.021 . S
O38 C35 1.238 . S
O39 Co33 2.052 . S
O39 C35 1.241 . S
O40 Co28 2.137 . S
O40 C31 1.247 . S
O41 Co28 2.244 . S
O41 C31 1.272 . S
O41 Co33 2.135 . S
Co42 O43 2.216 . S
Co42 O44 2.091 . S
Co42 O46 2.004 . S
Co42 O52 2.021 . S
Co42 O54 2.137 . S
Co42 O55 2.244 . S
O43 Co42 2.216 . S
O43 C50 1.247 . S
O44 Co42 2.091 . S
O44 C50 1.261 . S
C45 O54 1.247 . S
C45 O55 1.272 . S
O46 Co42 2.004 . S
O46 C51 1.259 . S
Co47 O48 2.061 . S
Co47 O53 2.052 . S
Co47 O55 2.135 . S
O48 Co47 2.061 . S
O48 C51 1.235 . S
C49 O52 1.238 . S
C49 O53 1.241 . S
C50 O43 1.247 . S
C50 O44 1.261 . S
C51 O46 1.259 . S
C51 O48 1.235 . S
O52 Co42 2.021 . S
O52 C49 1.238 . S
O53 Co47 2.052 . S
O53 C49 1.241 . S
O54 Co42 2.137 . S
O54 C45 1.247 . S
O55 Co42 2.244 . S
O55 C45 1.272 . S
O55 Co47 2.135 . S
Co56 O57 2.216 1_455 S
Co56 O58 2.091 . S
Co56 O60 2.004 . S
Co56 O66 2.021 . S
Co56 O68 2.137 . S
Co56 O69 2.244 . S
O57 Co56 2.216 1_655 S
O57 C64 1.247 1_655 S
O58 Co56 2.091 . S
O58 C64 1.261 . S
C59 O68 1.247 . S
C59 O69 1.272 . S
O60 Co56 2.004 . S
O60 C65 1.259 . S
Co61 O62 2.061 . S
Co61 O67 2.052 . S
Co61 O69 2.135 . S
O62 Co61 2.061 . S
O62 C65 1.235 . S
C63 O66 1.238 . S
C63 O67 1.241 . S
C64 O57 1.247 1_455 S
C64 O58 1.261 . S
C65 O60 1.259 . S
C65 O62 1.235 . S
O66 Co56 2.021 . S
O66 C63 1.238 . S
O67 Co61 2.052 . S
O67 C63 1.241 . S
O68 Co56 2.137 . S
O68 C59 1.247 . S
O69 Co56 2.244 . S
O69 C59 1.272 . S
O69 Co61 2.135 . S
Co70 O71 2.216 . S
Co70 O72 2.091 . S
Co70 O74 2.004 . S
Co70 O80 2.021 . S
Co70 O82 2.137 . S
Co70 O83 2.244 . S
O71 Co70 2.216 . S
O71 C78 1.247 . S
O72 Co70 2.091 . S
O72 C78 1.261 . S
C73 O82 1.247 . S
C73 O83 1.272 . S
O74 Co70 2.004 . S
O74 C79 1.259 . S
Co75 O76 2.061 . S
Co75 O81 2.052 . S
Co75 O83 2.135 . S
O76 Co75 2.061 . S
O76 C79 1.235 . S
C77 O80 1.238 . S
C77 O81 1.241 . S
C78 O71 1.247 . S
C78 O72 1.261 . S
C79 O74 1.259 . S
C79 O76 1.235 . S
O80 Co70 2.021 . S
O80 C77 1.238 . S
O81 Co75 2.052 . S
O81 C77 1.241 . S
O82 Co70 2.137 . S
O82 C73 1.247 . S
O83 Co70 2.244 . S
O83 C73 1.272 . S
O83 Co75 2.135 . S
Co84 O85 2.216 1_655 S
Co84 O86 2.091 . S
Co84 O88 2.004 . S
Co84 O94 2.021 . S
Co84 O96 2.137 . S
Co84 O97 2.244 . S
O85 Co84 2.216 1_455 S
O85 C92 1.247 1_455 S
O86 Co84 2.091 . S
O86 C92 1.261 . S
C87 O96 1.247 . S
C87 O97 1.272 . S
O88 Co84 2.004 . S
O88 C93 1.259 . S
Co89 O90 2.061 . S
Co89 O95 2.052 . S
Co89 O97 2.135 . S
O90 Co89 2.061 . S
O90 C93 1.235 . S
C91 O94 1.238 . S
C91 O95 1.241 . S
C92 O85 1.247 1_655 S
C92 O86 1.261 . S
C93 O88 1.259 . S
C93 O90 1.235 . S
O94 Co84 2.021 . S
O94 C91 1.238 . S
O95 Co89 2.052 . S
O95 C91 1.241 . S
O96 Co84 2.137 . S
O96 C87 1.247 . S
O97 Co84 2.244 . S
O97 C87 1.272 . S
O97 Co89 2.135 . S
Co98 O99 2.216 . S
Co98 O100 2.091 . S
Co98 O102 2.004 . S
Co98 O108 2.021 . S
Co98 O110 2.137 . S
Co98 O111 2.244 . S
O99 Co98 2.216 . S
O99 C106 1.247 . S
O100 Co98 2.091 . S
O100 C106 1.261 . S
C101 O110 1.247 . S
C101 O111 1.272 . S
O102 Co98 2.004 . S
O102 C107 1.259 . S
Co103 O104 2.061 . S
Co103 O109 2.052 . S
Co103 O111 2.135 . S
O104 Co103 2.061 . S
O104 C107 1.235 . S
C105 O108 1.238 . S
C105 O109 1.241 . S
C106 O99 1.247 . S
C106 O100 1.261 . S
C107 O102 1.259 . S
C107 O104 1.235 . S
O108 Co98 2.021 . S
O108 C105 1.238 . S
O109 Co103 2.052 . S
O109 C105 1.241 . S
O110 Co98 2.137 . S
O110 C101 1.247 . S
O111 Co98 2.244 . S
O111 C101 1.272 . S
O111 Co103 2.135 . S
Co112 O113 2.216 1_545 S
Co112 O114 2.091 . S
Co112 O116 2.004 . S
Co112 O122 2.021 . S
Co112 O124 2.137 . S
Co112 O125 2.244 . S
O113 Co112 2.216 1_565 S
O113 C120 1.247 1_565 S
O114 Co112 2.091 . S
O114 C120 1.261 . S
C115 O124 1.247 . S
C115 O125 1.272 . S
O116 Co112 2.004 . S
O116 C121 1.259 . S
Co117 O118 2.061 . S
Co117 O123 2.052 . S
Co117 O125 2.135 . S
O118 Co117 2.061 . S
O118 C121 1.235 . S
C119 O122 1.238 . S
C119 O123 1.241 . S
C120 O113 1.247 1_545 S
C120 O114 1.261 . S
C121 O116 1.259 . S
C121 O118 1.235 . S
O122 Co112 2.021 . S
O122 C119 1.238 . S
O123 Co117 2.052 . S
O123 C119 1.241 . S
O124 Co112 2.137 . S
O124 C115 1.247 . S
O125 Co112 2.244 . S
O125 C115 1.272 . S
O125 Co117 2.135 . S
Co126 O127 2.216 . S
Co126 O128 2.091 . S
Co126 O130 2.004 . S
Co126 O136 2.021 . S
Co126 O138 2.137 . S
Co126 O139 2.244 . S
O127 Co126 2.216 . S
O127 C134 1.247 . S
O128 Co126 2.091 . S
O128 C134 1.261 . S
C129 O138 1.247 . S
C129 O139 1.272 . S
O130 Co126 2.004 . S
O130 C135 1.259 . S
Co131 O132 2.061 . S
Co131 O137 2.052 . S
Co131 O139 2.135 . S
O132 Co131 2.061 . S
O132 C135 1.235 . S
C133 O136 1.238 . S
C133 O137 1.241 . S
C134 O127 1.247 . S
C134 O128 1.261 . S
C135 O130 1.259 . S
C135 O132 1.235 . S
O136 Co126 2.021 . S
O136 C133 1.238 . S
O137 Co131 2.052 . S
O137 C133 1.241 . S
O138 Co126 2.137 . S
O138 C129 1.247 . S
O139 Co126 2.244 . S
O139 C129 1.272 . S
O139 Co131 2.135 . S
Co140 O141 2.216 . S
Co140 O142 2.091 . S
Co140 O144 2.004 . S
Co140 O150 2.021 . S
Co140 O152 2.137 . S
Co140 O153 2.244 . S
O141 Co140 2.216 . S
O141 C148 1.247 . S
O142 Co140 2.091 . S
O142 C148 1.261 . S
C143 O152 1.247 . S
C143 O153 1.272 . S
O144 Co140 2.004 . S
O144 C149 1.259 . S
Co145 O146 2.061 . S
Co145 O151 2.052 . S
Co145 O153 2.135 . S
O146 Co145 2.061 . S
O146 C149 1.235 . S
C147 O150 1.238 . S
C147 O151 1.241 . S
C148 O141 1.247 . S
C148 O142 1.261 . S
C149 O144 1.259 . S
C149 O146 1.235 . S
O150 Co140 2.021 . S
O150 C147 1.238 . S
O151 Co145 2.052 . S
O151 C147 1.241 . S
O152 Co140 2.137 . S
O152 C143 1.247 . S
O153 Co140 2.244 . S
O153 C143 1.272 . S
O153 Co145 2.135 . S
Co154 O155 2.216 . S
Co154 O156 2.091 . S
Co154 O158 2.004 . S
Co154 O164 2.021 . S
Co154 O166 2.137 . S
Co154 O167 2.244 . S
O155 Co154 2.216 . S
O155 C162 1.247 . S
O156 Co154 2.091 . S
O156 C162 1.261 . S
C157 O166 1.247 . S
C157 O167 1.272 . S
O158 Co154 2.004 . S
O158 C163 1.259 . S
Co159 O160 2.061 . S
Co159 O165 2.052 . S
Co159 O167 2.135 . S
O160 Co159 2.061 . S
O160 C163 1.235 . S
C161 O164 1.238 . S
C161 O165 1.241 . S
C162 O155 1.247 . S
C162 O156 1.261 . S
C163 O158 1.259 . S
C163 O160 1.235 . S
O164 Co154 2.021 . S
O164 C161 1.238 . S
O165 Co159 2.052 . S
O165 C161 1.241 . S
O166 Co154 2.137 . S
O166 C157 1.247 . S
O167 Co154 2.244 . S
O167 C157 1.272 . S
O167 Co159 2.135 . S
Co168 O169 2.216 1_565 S
Co168 O170 2.091 . S
Co168 O172 2.004 . S
Co168 O178 2.021 . S
Co168 O180 2.137 . S
Co168 O181 2.244 . S
O169 Co168 2.216 1_545 S
O169 C176 1.247 1_545 S
O170 Co168 2.091 . S
O170 C176 1.261 . S
C171 O180 1.247 . S
C171 O181 1.272 . S
O172 Co168 2.004 . S
O172 C177 1.259 . S
Co173 O174 2.061 . S
Co173 O179 2.052 . S
Co173 O181 2.135 . S
O174 Co173 2.061 . S
O174 C177 1.235 . S
C175 O178 1.238 . S
C175 O179 1.241 . S
C176 O169 1.247 1_565 S
C176 O170 1.261 . S
C177 O172 1.259 . S
C177 O174 1.235 . S
O178 Co168 2.021 . S
O178 C175 1.238 . S
O179 Co173 2.052 . S
O179 C175 1.241 . S
O180 Co168 2.137 . S
O180 C171 1.247 . S
O181 Co168 2.244 . S
O181 C171 1.272 . S
O181 Co173 2.135 . S
Co182 O183 2.216 . S
Co182 O184 2.091 . S
Co182 O186 2.004 . S
Co182 O192 2.021 . S
Co182 O194 2.137 . S
Co182 O195 2.244 . S
O183 Co182 2.216 . S
O183 C190 1.247 . S
O184 Co182 2.091 . S
O184 C190 1.261 . S
C185 O194 1.247 . S
C185 O195 1.272 . S
O186 Co182 2.004 . S
O186 C191 1.259 . S
Co187 O188 2.061 . S
Co187 O193 2.052 . S
Co187 O195 2.135 . S
O188 Co187 2.061 . S
O188 C191 1.235 . S
C189 O192 1.238 . S
C189 O193 1.241 . S
C190 O183 1.247 . S
C190 O184 1.261 . S
C191 O186 1.259 . S
C191 O188 1.235 . S
O192 Co182 2.021 . S
O192 C189 1.238 . S
O193 Co187 2.052 . S
O193 C189 1.241 . S
O194 Co182 2.137 . S
O194 C185 1.247 . S
O195 Co182 2.244 . S
O195 C185 1.272 . S
O195 Co187 2.135 . S
Co196 O197 2.216 . S
Co196 O198 2.091 . S
Co196 O200 2.004 . S
Co196 O206 2.021 . S
Co196 O208 2.137 . S
Co196 O209 2.244 . S
O197 Co196 2.216 . S
O197 C204 1.247 . S
O198 Co196 2.091 . S
O198 C204 1.261 . S
C199 O208 1.247 . S
C199 O209 1.272 . S
O200 Co196 2.004 . S
O200 C205 1.259 . S
Co201 O202 2.061 . S
Co201 O207 2.052 . S
Co201 O209 2.135 . S
O202 Co201 2.061 . S
O202 C205 1.235 . S
C203 O206 1.238 . S
C203 O207 1.241 . S
C204 O197 1.247 . S
C204 O198 1.261 . S
C205 O200 1.259 . S
C205 O202 1.235 . S
O206 Co196 2.021 . S
O206 C203 1.238 . S
O207 Co201 2.052 . S
O207 C203 1.241 . S
O208 Co196 2.137 . S
O208 C199 1.247 . S
O209 Co196 2.244 . S
O209 C199 1.272 . S
O209 Co201 2.135 . S
Co210 O211 2.216 . S
Co210 O212 2.091 . S
Co210 O214 2.004 . S
Co210 O220 2.021 . S
Co210 O222 2.137 . S
Co210 O223 2.244 . S
O211 Co210 2.216 . S
O211 C218 1.247 . S
O212 Co210 2.091 . S
O212 C218 1.261 . S
C213 O222 1.247 . S
C213 O223 1.272 . S
O214 Co210 2.004 . S
O214 C219 1.259 . S
Co215 O216 2.061 . S
Co215 O221 2.052 . S
Co215 O223 2.135 . S
O216 Co215 2.061 . S
O216 C219 1.235 . S
C217 O220 1.238 . S
C217 O221 1.241 . S
C218 O211 1.247 . S
C218 O212 1.261 . S
C219 O214 1.259 . S
C219 O216 1.235 . S
O220 Co210 2.021 . S
O220 C217 1.238 . S
O221 Co215 2.052 . S
O221 C217 1.241 . S
O222 Co210 2.137 . S
O222 C213 1.247 . S
O223 Co210 2.244 . S
O223 C213 1.272 . S
O223 Co215 2.135 . S
Co224 O225 2.216 1_554 S
Co224 O226 2.091 . S
Co224 O228 2.004 . S
Co224 O234 2.021 . S
Co224 O236 2.137 . S
Co224 O237 2.244 . S
O225 Co224 2.216 1_556 S
O225 C232 1.247 1_556 S
O226 Co224 2.091 . S
O226 C232 1.261 . S
C227 O236 1.247 . S
C227 O237 1.272 . S
O228 Co224 2.004 . S
O228 C233 1.259 . S
Co229 O230 2.061 . S
Co229 O235 2.052 . S
Co229 O237 2.135 . S
O230 Co229 2.061 . S
O230 C233 1.235 . S
C231 O234 1.238 . S
C231 O235 1.241 . S
C232 O225 1.247 1_554 S
C232 O226 1.261 . S
C233 O228 1.259 . S
C233 O230 1.235 . S
O234 Co224 2.021 . S
O234 C231 1.238 . S
O235 Co229 2.052 . S
O235 C231 1.241 . S
O236 Co224 2.137 . S
O236 C227 1.247 . S
O237 Co224 2.244 . S
O237 C227 1.272 . S
O237 Co229 2.135 . S
Co238 O239 2.216 . S
Co238 O240 2.091 . S
Co238 O242 2.004 . S
Co238 O248 2.021 . S
Co238 O250 2.137 . S
Co238 O251 2.244 . S
O239 Co238 2.216 . S
O239 C246 1.247 . S
O240 Co238 2.091 . S
O240 C246 1.261 . S
C241 O250 1.247 . S
C241 O251 1.272 . S
O242 Co238 2.004 . S
O242 C247 1.259 . S
Co243 O244 2.061 . S
Co243 O249 2.052 . S
Co243 O251 2.135 . S
O244 Co243 2.061 . S
O244 C247 1.235 . S
C245 O248 1.238 . S
C245 O249 1.241 . S
C246 O239 1.247 . S
C246 O240 1.261 . S
C247 O242 1.259 . S
C247 O244 1.235 . S
O248 Co238 2.021 . S
O248 C245 1.238 . S
O249 Co243 2.052 . S
O249 C245 1.241 . S
O250 Co238 2.137 . S
O250 C241 1.247 . S
O251 Co238 2.244 . S
O251 C241 1.272 . S
O251 Co243 2.135 . S
Co252 O253 2.216 . S
Co252 O254 2.091 . S
Co252 O256 2.004 . S
Co252 O262 2.021 . S
Co252 O264 2.137 . S
Co252 O265 2.244 . S
O253 Co252 2.216 . S
O253 C260 1.247 . S
O254 Co252 2.091 . S
O254 C260 1.261 . S
C255 O264 1.247 . S
C255 O265 1.272 . S
O256 Co252 2.004 . S
O256 C261 1.259 . S
Co257 O258 2.061 . S
Co257 O263 2.052 . S
Co257 O265 2.135 . S
O258 Co257 2.061 . S
O258 C261 1.235 . S
C259 O262 1.238 . S
C259 O263 1.241 . S
C260 O253 1.247 . S
C260 O254 1.261 . S
C261 O256 1.259 . S
C261 O258 1.235 . S
O262 Co252 2.021 . S
O262 C259 1.238 . S
O263 Co257 2.052 . S
O263 C259 1.241 . S
O264 Co252 2.137 . S
O264 C255 1.247 . S
O265 Co252 2.244 . S
O265 C255 1.272 . S
O265 Co257 2.135 . S
Co266 O267 2.216 1_556 S
Co266 O268 2.091 . S
Co266 O270 2.004 . S
Co266 O276 2.021 . S
Co266 O278 2.137 . S
Co266 O279 2.244 . S
O267 Co266 2.216 1_554 S
O267 C274 1.247 1_554 S
O268 Co266 2.091 . S
O268 C274 1.261 . S
C269 O278 1.247 . S
C269 O279 1.272 . S
O270 Co266 2.004 . S
O270 C275 1.259 . S
Co271 O272 2.061 . S
Co271 O277 2.052 . S
Co271 O279 2.135 . S
O272 Co271 2.061 . S
O272 C275 1.235 . S
C273 O276 1.238 . S
C273 O277 1.241 . S
C274 O267 1.247 1_556 S
C274 O268 1.261 . S
C275 O270 1.259 . S
C275 O272 1.235 . S
O276 Co266 2.021 . S
O276 C273 1.238 . S
O277 Co271 2.052 . S
O277 C273 1.241 . S
O278 Co266 2.137 . S
O278 C269 1.247 . S
O279 Co266 2.244 . S
O279 C269 1.272 . S
O279 Co271 2.135 . S
Co280 O281 2.216 . S
Co280 O282 2.091 . S
Co280 O284 2.004 . S
Co280 O290 2.021 . S
Co280 O292 2.137 . S
Co280 O293 2.244 . S
O281 Co280 2.216 . S
O281 C288 1.247 . S
O282 Co280 2.091 . S
O282 C288 1.261 . S
C283 O292 1.247 . S
C283 O293 1.272 . S
O284 Co280 2.004 . S
O284 C289 1.259 . S
Co285 O286 2.061 . S
Co285 O291 2.052 . S
Co285 O293 2.135 . S
O286 Co285 2.061 . S
O286 C289 1.235 . S
C287 O290 1.238 . S
C287 O291 1.241 . S
C288 O281 1.247 . S
C288 O282 1.261 . S
C289 O284 1.259 . S
C289 O286 1.235 . S
O290 Co280 2.021 . S
O290 C287 1.238 . S
O291 Co285 2.052 . S
O291 C287 1.241 . S
O292 Co280 2.137 . S
O292 C283 1.247 . S
O293 Co280 2.244 . S
O293 C283 1.272 . S
O293 Co285 2.135 . S
Co294 O295 2.216 1_554 S
Co294 O296 2.091 . S
Co294 O298 2.004 . S
Co294 O304 2.021 . S
Co294 O306 2.137 . S
Co294 O307 2.244 . S
O295 Co294 2.216 1_556 S
O295 C302 1.247 1_556 S
O296 Co294 2.091 . S
O296 C302 1.261 . S
C297 O306 1.247 . S
C297 O307 1.272 . S
O298 Co294 2.004 . S
O298 C303 1.259 . S
Co299 O300 2.061 . S
Co299 O305 2.052 . S
Co299 O307 2.135 . S
O300 Co299 2.061 . S
O300 C303 1.235 . S
C301 O304 1.238 . S
C301 O305 1.241 . S
C302 O295 1.247 1_554 S
C302 O296 1.261 . S
C303 O298 1.259 . S
C303 O300 1.235 . S
O304 Co294 2.021 . S
O304 C301 1.238 . S
O305 Co299 2.052 . S
O305 C301 1.241 . S
O306 Co294 2.137 . S
O306 C297 1.247 . S
O307 Co294 2.244 . S
O307 C297 1.272 . S
O307 Co299 2.135 . S
Co308 O309 2.216 . S
Co308 O310 2.091 . S
Co308 O312 2.004 . S
Co308 O318 2.021 . S
Co308 O320 2.137 . S
Co308 O321 2.244 . S
O309 Co308 2.216 . S
O309 C316 1.247 . S
O310 Co308 2.091 . S
O310 C316 1.261 . S
C311 O320 1.247 . S
C311 O321 1.272 . S
O312 Co308 2.004 . S
O312 C317 1.259 . S
Co313 O314 2.061 . S
Co313 O319 2.052 . S
Co313 O321 2.135 . S
O314 Co313 2.061 . S
O314 C317 1.235 . S
C315 O318 1.238 . S
C315 O319 1.241 . S
C316 O309 1.247 . S
C316 O310 1.261 . S
C317 O312 1.259 . S
C317 O314 1.235 . S
O318 Co308 2.021 . S
O318 C315 1.238 . S
O319 Co313 2.052 . S
O319 C315 1.241 . S
O320 Co308 2.137 . S
O320 C311 1.247 . S
O321 Co308 2.244 . S
O321 C311 1.272 . S
O321 Co313 2.135 . S
Co322 O323 2.216 . S
Co322 O324 2.091 . S
Co322 O326 2.004 . S
Co322 O332 2.021 . S
Co322 O334 2.137 . S
Co322 O335 2.244 . S
O323 Co322 2.216 . S
O323 C330 1.247 . S
O324 Co322 2.091 . S
O324 C330 1.261 . S
C325 O334 1.247 . S
C325 O335 1.272 . S
O326 Co322 2.004 . S
O326 C331 1.259 . S
Co327 O328 2.061 . S
Co327 O333 2.052 . S
Co327 O335 2.135 . S
O328 Co327 2.061 . S
O328 C331 1.235 . S
C329 O332 1.238 . S
C329 O333 1.241 . S
C330 O323 1.247 . S
C330 O324 1.261 . S
C331 O326 1.259 . S
C331 O328 1.235 . S
O332 Co322 2.021 . S
O332 C329 1.238 . S
O333 Co327 2.052 . S
O333 C329 1.241 . S
O334 Co322 2.137 . S
O334 C325 1.247 . S
O335 Co322 2.244 . S
O335 C325 1.272 . S
O335 Co327 2.135 . S
Co336 O337 2.216 1_455 S
Co336 O338 2.091 . S
Co336 O340 2.004 . S
Co336 O346 2.021 . S
Co336 O348 2.137 . S
Co336 O349 2.244 . S
O337 Co336 2.216 1_655 S
O337 C344 1.247 1_655 S
O338 Co336 2.091 . S
O338 C344 1.261 . S
C339 O348 1.247 . S
C339 O349 1.272 . S
O340 Co336 2.004 . S
O340 C345 1.259 . S
Co341 O342 2.061 . S
Co341 O347 2.052 . S
Co341 O349 2.135 . S
O342 Co341 2.061 . S
O342 C345 1.235 . S
C343 O346 1.238 . S
C343 O347 1.241 . S
C344 O337 1.247 1_455 S
C344 O338 1.261 . S
C345 O340 1.259 . S
C345 O342 1.235 . S
O346 Co336 2.021 . S
O346 C343 1.238 . S
O347 Co341 2.052 . S
O347 C343 1.241 . S
O348 Co336 2.137 . S
O348 C339 1.247 . S
O349 Co336 2.244 . S
O349 C339 1.272 . S
O349 Co341 2.135 . S
Co350 O351 2.216 . S
Co350 O352 2.091 . S
Co350 O354 2.004 . S
Co350 O360 2.021 . S
Co350 O362 2.137 . S
Co350 O363 2.244 . S
O351 Co350 2.216 . S
O351 C358 1.247 . S
O352 Co350 2.091 . S
O352 C358 1.261 . S
C353 O362 1.247 . S
C353 O363 1.272 . S
O354 Co350 2.004 . S
O354 C359 1.259 . S
Co355 O356 2.061 . S
Co355 O361 2.052 . S
Co355 O363 2.135 . S
O356 Co355 2.061 . S
O356 C359 1.235 . S
C357 O360 1.238 . S
C357 O361 1.241 . S
C358 O351 1.247 . S
C358 O352 1.261 . S
C359 O354 1.259 . S
C359 O356 1.235 . S
O360 Co350 2.021 . S
O360 C357 1.238 . S
O361 Co355 2.052 . S
O361 C357 1.241 . S
O362 Co350 2.137 . S
O362 C353 1.247 . S
O363 Co350 2.244 . S
O363 C353 1.272 . S
O363 Co355 2.135 . S
Co364 O365 2.216 1_655 S
Co364 O366 2.091 . S
Co364 O368 2.004 . S
Co364 O374 2.021 . S
Co364 O376 2.137 . S
Co364 O377 2.244 . S
O365 Co364 2.216 1_455 S
O365 C372 1.247 1_455 S
O366 Co364 2.091 . S
O366 C372 1.261 . S
C367 O376 1.247 . S
C367 O377 1.272 . S
O368 Co364 2.004 . S
O368 C373 1.259 . S
Co369 O370 2.061 . S
Co369 O375 2.052 . S
Co369 O377 2.135 . S
O370 Co369 2.061 . S
O370 C373 1.235 . S
C371 O374 1.238 . S
C371 O375 1.241 . S
C372 O365 1.247 1_655 S
C372 O366 1.261 . S
C373 O368 1.259 . S
C373 O370 1.235 . S
O374 Co364 2.021 . S
O374 C371 1.238 . S
O375 Co369 2.052 . S
O375 C371 1.241 . S
O376 Co364 2.137 . S
O376 C367 1.247 . S
O377 Co364 2.244 . S
O377 C367 1.272 . S
O377 Co369 2.135 . S
Co378 O379 2.216 . S
Co378 O380 2.091 . S
Co378 O382 2.004 . S
Co378 O388 2.021 . S
Co378 O390 2.137 . S
Co378 O391 2.244 . S
O379 Co378 2.216 . S
O379 C386 1.247 . S
O380 Co378 2.091 . S
O380 C386 1.261 . S
C381 O390 1.247 . S
C381 O391 1.272 . S
O382 Co378 2.004 . S
O382 C387 1.259 . S
Co383 O384 2.061 . S
Co383 O389 2.052 . S
Co383 O391 2.135 . S
O384 Co383 2.061 . S
O384 C387 1.235 . S
C385 O388 1.238 . S
C385 O389 1.241 . S
C386 O379 1.247 . S
C386 O380 1.261 . S
C387 O382 1.259 . S
C387 O384 1.235 . S
O388 Co378 2.021 . S
O388 C385 1.238 . S
O389 Co383 2.052 . S
O389 C385 1.241 . S
O390 Co378 2.137 . S
O390 C381 1.247 . S
O391 Co378 2.244 . S
O391 C381 1.272 . S
O391 Co383 2.135 . S
Co392 O393 2.216 1_455 S
Co392 O394 2.091 . S
Co392 O396 2.004 . S
Co392 O402 2.021 . S
Co392 O404 2.137 . S
Co392 O405 2.244 . S
O393 Co392 2.216 1_655 S
O393 C400 1.247 1_655 S
O394 Co392 2.091 . S
O394 C400 1.261 . S
C395 O404 1.247 . S
C395 O405 1.272 . S
O396 Co392 2.004 . S
O396 C401 1.259 . S
Co397 O398 2.061 . S
Co397 O403 2.052 . S
Co397 O405 2.135 . S
O398 Co397 2.061 . S
O398 C401 1.235 . S
C399 O402 1.238 . S
C399 O403 1.241 . S
C400 O393 1.247 1_455 S
C400 O394 1.261 . S
C401 O396 1.259 . S
C401 O398 1.235 . S
O402 Co392 2.021 . S
O402 C399 1.238 . S
O403 Co397 2.052 . S
O403 C399 1.241 . S
O404 Co392 2.137 . S
O404 C395 1.247 . S
O405 Co392 2.244 . S
O405 C395 1.272 . S
O405 Co397 2.135 . S
Co406 O407 2.216 . S
Co406 O408 2.091 . S
Co406 O410 2.004 . S
Co406 O416 2.021 . S
Co406 O418 2.137 . S
Co406 O419 2.244 . S
O407 Co406 2.216 . S
O407 C414 1.247 . S
O408 Co406 2.091 . S
O408 C414 1.261 . S
C409 O418 1.247 . S
C409 O419 1.272 . S
O410 Co406 2.004 . S
O410 C415 1.259 . S
Co411 O412 2.061 . S
Co411 O417 2.052 . S
Co411 O419 2.135 . S
O412 Co411 2.061 . S
O412 C415 1.235 . S
C413 O416 1.238 . S
C413 O417 1.241 . S
C414 O407 1.247 . S
C414 O408 1.261 . S
C415 O410 1.259 . S
C415 O412 1.235 . S
O416 Co406 2.021 . S
O416 C413 1.238 . S
O417 Co411 2.052 . S
O417 C413 1.241 . S
O418 Co406 2.137 . S
O418 C409 1.247 . S
O419 Co406 2.244 . S
O419 C409 1.272 . S
O419 Co411 2.135 . S
Co420 O421 2.216 1_655 S
Co420 O422 2.091 . S
Co420 O424 2.004 . S
Co420 O430 2.021 . S
Co420 O432 2.137 . S
Co420 O433 2.244 . S
O421 Co420 2.216 1_455 S
O421 C428 1.247 1_455 S
O422 Co420 2.091 . S
O422 C428 1.261 . S
C423 O432 1.247 . S
C423 O433 1.272 . S
O424 Co420 2.004 . S
O424 C429 1.259 . S
Co425 O426 2.061 . S
Co425 O431 2.052 . S
Co425 O433 2.135 . S
O426 Co425 2.061 . S
O426 C429 1.235 . S
C427 O430 1.238 . S
C427 O431 1.241 . S
C428 O421 1.247 1_655 S
C428 O422 1.261 . S
C429 O424 1.259 . S
C429 O426 1.235 . S
O430 Co420 2.021 . S
O430 C427 1.238 . S
O431 Co425 2.052 . S
O431 C427 1.241 . S
O432 Co420 2.137 . S
O432 C423 1.247 . S
O433 Co420 2.244 . S
O433 C423 1.272 . S
O433 Co425 2.135 . S
Co434 O435 2.216 . S
Co434 O436 2.091 . S
Co434 O438 2.004 . S
Co434 O444 2.021 . S
Co434 O446 2.137 . S
Co434 O447 2.244 . S
O435 Co434 2.216 . S
O435 C442 1.247 . S
O436 Co434 2.091 . S
O436 C442 1.261 . S
C437 O446 1.247 . S
C437 O447 1.272 . S
O438 Co434 2.004 . S
O438 C443 1.259 . S
Co439 O440 2.061 . S
Co439 O445 2.052 . S
Co439 O447 2.135 . S
O440 Co439 2.061 . S
O440 C443 1.235 . S
C441 O444 1.238 . S
C441 O445 1.241 . S
C442 O435 1.247 . S
C442 O436 1.261 . S
C443 O438 1.259 . S
C443 O440 1.235 . S
O444 Co434 2.021 . S
O444 C441 1.238 . S
O445 Co439 2.052 . S
O445 C441 1.241 . S
O446 Co434 2.137 . S
O446 C437 1.247 . S
O447 Co434 2.244 . S
O447 C437 1.272 . S
O447 Co439 2.135 . S
Co448 O449 2.216 . S
Co448 O450 2.091 . S
Co448 O452 2.004 . S
Co448 O458 2.021 . S
Co448 O460 2.137 . S
Co448 O461 2.244 . S
O449 Co448 2.216 . S
O449 C456 1.247 . S
O450 Co448 2.091 . S
O450 C456 1.261 . S
C451 O460 1.247 . S
C451 O461 1.272 . S
O452 Co448 2.004 . S
O452 C457 1.259 . S
Co453 O454 2.061 . S
Co453 O459 2.052 . S
Co453 O461 2.135 . S
O454 Co453 2.061 . S
O454 C457 1.235 . S
C455 O458 1.238 . S
C455 O459 1.241 . S
C456 O449 1.247 . S
C456 O450 1.261 . S
C457 O452 1.259 . S
C457 O454 1.235 . S
O458 Co448 2.021 . S
O458 C455 1.238 . S
O459 Co453 2.052 . S
O459 C455 1.241 . S
O460 Co448 2.137 . S
O460 C451 1.247 . S
O461 Co448 2.244 . S
O461 C451 1.272 . S
O461 Co453 2.135 . S
Co462 O463 2.216 . S
Co462 O464 2.091 . S
Co462 O466 2.004 . S
Co462 O472 2.021 . S
Co462 O474 2.137 . S
Co462 O475 2.244 . S
O463 Co462 2.216 . S
O463 C470 1.247 . S
O464 Co462 2.091 . S
O464 C470 1.261 . S
C465 O474 1.247 . S
C465 O475 1.272 . S
O466 Co462 2.004 . S
O466 C471 1.259 . S
Co467 O468 2.061 . S
Co467 O473 2.052 . S
Co467 O475 2.135 . S
O468 Co467 2.061 . S
O468 C471 1.235 . S
C469 O472 1.238 . S
C469 O473 1.241 . S
C470 O463 1.247 . S
C470 O464 1.261 . S
C471 O466 1.259 . S
C471 O468 1.235 . S
O472 Co462 2.021 . S
O472 C469 1.238 . S
O473 Co467 2.052 . S
O473 C469 1.241 . S
O474 Co462 2.137 . S
O474 C465 1.247 . S
O475 Co462 2.244 . S
O475 C465 1.272 . S
O475 Co467 2.135 . S
Co476 O477 2.216 1_565 S
Co476 O478 2.091 . S
Co476 O480 2.004 . S
Co476 O486 2.021 . S
Co476 O488 2.137 . S
Co476 O489 2.244 . S
O477 Co476 2.216 1_545 S
O477 C484 1.247 1_545 S
O478 Co476 2.091 . S
O478 C484 1.261 . S
C479 O488 1.247 . S
C479 O489 1.272 . S
O480 Co476 2.004 . S
O480 C485 1.259 . S
Co481 O482 2.061 . S
Co481 O487 2.052 . S
Co481 O489 2.135 . S
O482 Co481 2.061 . S
O482 C485 1.235 . S
C483 O486 1.238 . S
C483 O487 1.241 . S
C484 O477 1.247 1_565 S
C484 O478 1.261 . S
C485 O480 1.259 . S
C485 O482 1.235 . S
O486 Co476 2.021 . S
O486 C483 1.238 . S
O487 Co481 2.052 . S
O487 C483 1.241 . S
O488 Co476 2.137 . S
O488 C479 1.247 . S
O489 Co476 2.244 . S
O489 C479 1.272 . S
O489 Co481 2.135 . S
Co490 O491 2.216 . S
Co490 O492 2.091 . S
Co490 O494 2.004 . S
Co490 O500 2.021 . S
Co490 O502 2.137 . S
Co490 O503 2.244 . S
O491 Co490 2.216 . S
O491 C498 1.247 . S
O492 Co490 2.091 . S
O492 C498 1.261 . S
C493 O502 1.247 . S
C493 O503 1.272 . S
O494 Co490 2.004 . S
O494 C499 1.259 . S
Co495 O496 2.061 . S
Co495 O501 2.052 . S
Co495 O503 2.135 . S
O496 Co495 2.061 . S
O496 C499 1.235 . S
C497 O500 1.238 . S
C497 O501 1.241 . S
C498 O491 1.247 . S
C498 O492 1.261 . S
C499 O494 1.259 . S
C499 O496 1.235 . S
O500 Co490 2.021 . S
O500 C497 1.238 . S
O501 Co495 2.052 . S
O501 C497 1.241 . S
O502 Co490 2.137 . S
O502 C493 1.247 . S
O503 Co490 2.244 . S
O503 C493 1.272 . S
O503 Co495 2.135 . S
Co504 O505 2.216 . S
Co504 O506 2.091 . S
Co504 O508 2.004 . S
Co504 O514 2.021 . S
Co504 O516 2.137 . S
Co504 O517 2.244 . S
O505 Co504 2.216 . S
O505 C512 1.247 . S
O506 Co504 2.091 . S
O506 C512 1.261 . S
C507 O516 1.247 . S
C507 O517 1.272 . S
O508 Co504 2.004 . S
O508 C513 1.259 . S
Co509 O510 2.061 . S
Co509 O515 2.052 . S
Co509 O517 2.135 . S
O510 Co509 2.061 . S
O510 C513 1.235 . S
C511 O514 1.238 . S
C511 O515 1.241 . S
C512 O505 1.247 . S
C512 O506 1.261 . S
C513 O508 1.259 . S
C513 O510 1.235 . S
O514 Co504 2.021 . S
O514 C511 1.238 . S
O515 Co509 2.052 . S
O515 C511 1.241 . S
O516 Co504 2.137 . S
O516 C507 1.247 . S
O517 Co504 2.244 . S
O517 C507 1.272 . S
O517 Co509 2.135 . S
Co518 O519 2.216 . S
Co518 O520 2.091 . S
Co518 O522 2.004 . S
Co518 O528 2.021 . S
Co518 O530 2.137 . S
Co518 O531 2.244 . S
O519 Co518 2.216 . S
O519 C526 1.247 . S
O520 Co518 2.091 . S
O520 C526 1.261 . S
C521 O530 1.247 . S
C521 O531 1.272 . S
O522 Co518 2.004 . S
O522 C527 1.259 . S
Co523 O524 2.061 . S
Co523 O529 2.052 . S
Co523 O531 2.135 . S
O524 Co523 2.061 . S
O524 C527 1.235 . S
C525 O528 1.238 . S
C525 O529 1.241 . S
C526 O519 1.247 . S
C526 O520 1.261 . S
C527 O522 1.259 . S
C527 O524 1.235 . S
O528 Co518 2.021 . S
O528 C525 1.238 . S
O529 Co523 2.052 . S
O529 C525 1.241 . S
O530 Co518 2.137 . S
O530 C521 1.247 . S
O531 Co518 2.244 . S
O531 C521 1.272 . S
O531 Co523 2.135 . S
Co532 O533 2.216 1_545 S
Co532 O534 2.091 . S
Co532 O536 2.004 . S
Co532 O542 2.021 . S
Co532 O544 2.137 . S
Co532 O545 2.244 . S
O533 Co532 2.216 1_565 S
O533 C540 1.247 1_565 S
O534 Co532 2.091 . S
O534 C540 1.261 . S
C535 O544 1.247 . S
C535 O545 1.272 . S
O536 Co532 2.004 . S
O536 C541 1.259 . S
Co537 O538 2.061 . S
Co537 O543 2.052 . S
Co537 O545 2.135 . S
O538 Co537 2.061 . S
O538 C541 1.235 . S
C539 O542 1.238 . S
C539 O543 1.241 . S
C540 O533 1.247 1_545 S
C540 O534 1.261 . S
C541 O536 1.259 . S
C541 O538 1.235 . S
O542 Co532 2.021 . S
O542 C539 1.238 . S
O543 Co537 2.052 . S
O543 C539 1.241 . S
O544 Co532 2.137 . S
O544 C535 1.247 . S
O545 Co532 2.244 . S
O545 C535 1.272 . S
O545 Co537 2.135 . S
Co546 O547 2.216 . S
Co546 O548 2.091 . S
Co546 O550 2.004 . S
Co546 O556 2.021 . S
Co546 O558 2.137 . S
Co546 O559 2.244 . S
O547 Co546 2.216 . S
O547 C554 1.247 . S
O548 Co546 2.091 . S
O548 C554 1.261 . S
C549 O558 1.247 . S
C549 O559 1.272 . S
O550 Co546 2.004 . S
O550 C555 1.259 . S
Co551 O552 2.061 . S
Co551 O557 2.052 . S
Co551 O559 2.135 . S
O552 Co551 2.061 . S
O552 C555 1.235 . S
C553 O556 1.238 . S
C553 O557 1.241 . S
C554 O547 1.247 . S
C554 O548 1.261 . S
C555 O550 1.259 . S
C555 O552 1.235 . S
O556 Co546 2.021 . S
O556 C553 1.238 . S
O557 Co551 2.052 . S
O557 C553 1.241 . S
O558 Co546 2.137 . S
O558 C549 1.247 . S
O559 Co546 2.244 . S
O559 C549 1.272 . S
O559 Co551 2.135 . S
Co560 O561 2.216 . S
Co560 O562 2.091 . S
Co560 O564 2.004 . S
Co560 O570 2.021 . S
Co560 O572 2.137 . S
Co560 O573 2.244 . S
O561 Co560 2.216 . S
O561 C568 1.247 . S
O562 Co560 2.091 . S
O562 C568 1.261 . S
C563 O572 1.247 . S
C563 O573 1.272 . S
O564 Co560 2.004 . S
O564 C569 1.259 . S
Co565 O566 2.061 . S
Co565 O571 2.052 . S
Co565 O573 2.135 . S
O566 Co565 2.061 . S
O566 C569 1.235 . S
C567 O570 1.238 . S
C567 O571 1.241 . S
C568 O561 1.247 . S
C568 O562 1.261 . S
C569 O564 1.259 . S
C569 O566 1.235 . S
O570 Co560 2.021 . S
O570 C567 1.238 . S
O571 Co565 2.052 . S
O571 C567 1.241 . S
O572 Co560 2.137 . S
O572 C563 1.247 . S
O573 Co560 2.244 . S
O573 C563 1.272 . S
O573 Co565 2.135 . S
Co574 O575 2.216 1_556 S
Co574 O576 2.091 . S
Co574 O578 2.004 . S
Co574 O584 2.021 . S
Co574 O586 2.137 . S
Co574 O587 2.244 . S
O575 Co574 2.216 1_554 S
O575 C582 1.247 1_554 S
O576 Co574 2.091 . S
O576 C582 1.261 . S
C577 O586 1.247 . S
C577 O587 1.272 . S
O578 Co574 2.004 . S
O578 C583 1.259 . S
Co579 O580 2.061 . S
Co579 O585 2.052 . S
Co579 O587 2.135 . S
O580 Co579 2.061 . S
O580 C583 1.235 . S
C581 O584 1.238 . S
C581 O585 1.241 . S
C582 O575 1.247 1_556 S
C582 O576 1.261 . S
C583 O578 1.259 . S
C583 O580 1.235 . S
O584 Co574 2.021 . S
O584 C581 1.238 . S
O585 Co579 2.052 . S
O585 C581 1.241 . S
O586 Co574 2.137 . S
O586 C577 1.247 . S
O587 Co574 2.244 . S
O587 C577 1.272 . S
O587 Co579 2.135 . S
Co588 O589 2.216 . S
Co588 O590 2.091 . S
Co588 O592 2.004 . S
Co588 O598 2.021 . S
Co588 O600 2.137 . S
Co588 O601 2.244 . S
O589 Co588 2.216 . S
O589 C596 1.247 . S
O590 Co588 2.091 . S
O590 C596 1.261 . S
C591 O600 1.247 . S
C591 O601 1.272 . S
O592 Co588 2.004 . S
O592 C597 1.259 . S
Co593 O594 2.061 . S
Co593 O599 2.052 . S
Co593 O601 2.135 . S
O594 Co593 2.061 . S
O594 C597 1.235 . S
C595 O598 1.238 . S
C595 O599 1.241 . S
C596 O589 1.247 . S
C596 O590 1.261 . S
C597 O592 1.259 . S
C597 O594 1.235 . S
O598 Co588 2.021 . S
O598 C595 1.238 . S
O599 Co593 2.052 . S
O599 C595 1.241 . S
O600 Co588 2.137 . S
O600 C591 1.247 . S
O601 Co588 2.244 . S
O601 C591 1.272 . S
O601 Co593 2.135 . S
Co602 O603 2.216 . S
Co602 O604 2.091 . S
Co602 O606 2.004 . S
Co602 O612 2.021 . S
Co602 O614 2.137 . S
Co602 O615 2.244 . S
O603 Co602 2.216 . S
O603 C610 1.247 . S
O604 Co602 2.091 . S
O604 C610 1.261 . S
C605 O614 1.247 . S
C605 O615 1.272 . S
O606 Co602 2.004 . S
O606 C611 1.259 . S
Co607 O608 2.061 . S
Co607 O613 2.052 . S
Co607 O615 2.135 . S
O608 Co607 2.061 . S
O608 C611 1.235 . S
C609 O612 1.238 . S
C609 O613 1.241 . S
C610 O603 1.247 . S
C610 O604 1.261 . S
C611 O606 1.259 . S
C611 O608 1.235 . S
O612 Co602 2.021 . S
O612 C609 1.238 . S
O613 Co607 2.052 . S
O613 C609 1.241 . S
O614 Co602 2.137 . S
O614 C605 1.247 . S
O615 Co602 2.244 . S
O615 C605 1.272 . S
O615 Co607 2.135 . S
Co616 O617 2.216 . S
Co616 O618 2.091 . S
Co616 O620 2.004 . S
Co616 O626 2.021 . S
Co616 O628 2.137 . S
Co616 O629 2.244 . S
O617 Co616 2.216 . S
O617 C624 1.247 . S
O618 Co616 2.091 . S
O618 C624 1.261 . S
C619 O628 1.247 . S
C619 O629 1.272 . S
O620 Co616 2.004 . S
O620 C625 1.259 . S
Co621 O622 2.061 . S
Co621 O627 2.052 . S
Co621 O629 2.135 . S
O622 Co621 2.061 . S
O622 C625 1.235 . S
C623 O626 1.238 . S
C623 O627 1.241 . S
C624 O617 1.247 . S
C624 O618 1.261 . S
C625 O620 1.259 . S
C625 O622 1.235 . S
O626 Co616 2.021 . S
O626 C623 1.238 . S
O627 Co621 2.052 . S
O627 C623 1.241 . S
O628 Co616 2.137 . S
O628 C619 1.247 . S
O629 Co616 2.244 . S
O629 C619 1.272 . S
O629 Co621 2.135 . S
Co630 O631 2.216 . S
Co630 O632 2.091 . S
Co630 O634 2.004 . S
Co630 O640 2.021 . S
Co630 O642 2.137 . S
Co630 O643 2.244 . S
O631 Co630 2.216 . S
O631 C638 1.247 . S
O632 Co630 2.091 . S
O632 C638 1.261 . S
C633 O642 1.247 . S
C633 O643 1.272 . S
O634 Co630 2.004 . S
O634 C639 1.259 . S
Co635 O636 2.061 . S
Co635 O641 2.052 . S
Co635 O643 2.135 . S
O636 Co635 2.061 . S
O636 C639 1.235 . S
C637 O640 1.238 . S
C637 O641 1.241 . S
C638 O631 1.247 . S
C638 O632 1.261 . S
C639 O634 1.259 . S
C639 O636 1.235 . S
O640 Co630 2.021 . S
O640 C637 1.238 . S
O641 Co635 2.052 . S
O641 C637 1.241 . S
O642 Co630 2.137 . S
O642 C633 1.247 . S
O643 Co630 2.244 . S
O643 C633 1.272 . S
O643 Co635 2.135 . S
Co644 O645 2.216 . S
Co644 O646 2.091 . S
Co644 O648 2.004 . S
Co644 O654 2.021 . S
Co644 O656 2.137 . S
Co644 O657 2.244 . S
O645 Co644 2.216 . S
O645 C652 1.247 . S
O646 Co644 2.091 . S
O646 C652 1.261 . S
C647 O656 1.247 . S
C647 O657 1.272 . S
O648 Co644 2.004 . S
O648 C653 1.259 . S
Co649 O650 2.061 . S
Co649 O655 2.052 . S
Co649 O657 2.135 . S
O650 Co649 2.061 . S
O650 C653 1.235 . S
C651 O654 1.238 . S
C651 O655 1.241 . S
C652 O645 1.247 . S
C652 O646 1.261 . S
C653 O648 1.259 . S
C653 O650 1.235 . S
O654 Co644 2.021 . S
O654 C651 1.238 . S
O655 Co649 2.052 . S
O655 C651 1.241 . S
O656 Co644 2.137 . S
O656 C647 1.247 . S
O657 Co644 2.244 . S
O657 C647 1.272 . S
O657 Co649 2.135 . S
Co658 O659 2.216 . S
Co658 O660 2.091 . S
Co658 O662 2.004 . S
Co658 O668 2.021 . S
Co658 O670 2.137 . S
Co658 O671 2.244 . S
O659 Co658 2.216 . S
O659 C666 1.247 . S
O660 Co658 2.091 . S
O660 C666 1.261 . S
C661 O670 1.247 . S
C661 O671 1.272 . S
O662 Co658 2.004 . S
O662 C667 1.259 . S
Co663 O664 2.061 . S
Co663 O669 2.052 . S
Co663 O671 2.135 . S
O664 Co663 2.061 . S
O664 C667 1.235 . S
C665 O668 1.238 . S
C665 O669 1.241 . S
C666 O659 1.247 . S
C666 O660 1.261 . S
C667 O662 1.259 . S
C667 O664 1.235 . S
O668 Co658 2.021 . S
O668 C665 1.238 . S
O669 Co663 2.052 . S
O669 C665 1.241 . S
O670 Co658 2.137 . S
O670 C661 1.247 . S
O671 Co658 2.244 . S
O671 C661 1.272 . S
O671 Co663 2.135 . S
Co672 O673 2.216 . S
Co672 O674 2.091 . S
Co672 O676 2.004 . S
Co672 O682 2.021 . S
Co672 O684 2.137 . S
Co672 O685 2.244 . S
O673 Co672 2.216 . S
O673 C680 1.247 . S
O674 Co672 2.091 . S
O674 C680 1.261 . S
C675 O684 1.247 . S
C675 O685 1.272 . S
O676 Co672 2.004 . S
O676 C681 1.259 . S
Co677 O678 2.061 . S
Co677 O683 2.052 . S
Co677 O685 2.135 . S
O678 Co677 2.061 . S
O678 C681 1.235 . S
C679 O682 1.238 . S
C679 O683 1.241 . S
C680 O673 1.247 . S
C680 O674 1.261 . S
C681 O676 1.259 . S
C681 O678 1.235 . S
O682 Co672 2.021 . S
O682 C679 1.238 . S
O683 Co677 2.052 . S
O683 C679 1.241 . S
O684 Co672 2.137 . S
O684 C675 1.247 . S
O685 Co672 2.244 . S
O685 C675 1.272 . S
O685 Co677 2.135 . S
Co686 O687 2.216 . S
Co686 O688 2.091 . S
Co686 O690 2.004 . S
Co686 O696 2.021 . S
Co686 O698 2.137 . S
Co686 O699 2.244 . S
O687 Co686 2.216 . S
O687 C694 1.247 . S
O688 Co686 2.091 . S
O688 C694 1.261 . S
C689 O698 1.247 . S
C689 O699 1.272 . S
O690 Co686 2.004 . S
O690 C695 1.259 . S
Co691 O692 2.061 . S
Co691 O697 2.052 . S
Co691 O699 2.135 . S
O692 Co691 2.061 . S
O692 C695 1.235 . S
C693 O696 1.238 . S
C693 O697 1.241 . S
C694 O687 1.247 . S
C694 O688 1.261 . S
C695 O690 1.259 . S
C695 O692 1.235 . S
O696 Co686 2.021 . S
O696 C693 1.238 . S
O697 Co691 2.052 . S
O697 C693 1.241 . S
O698 Co686 2.137 . S
O698 C689 1.247 . S
O699 Co686 2.244 . S
O699 C689 1.272 . S
O699 Co691 2.135 . S
Co700 O701 2.216 . S
Co700 O702 2.091 . S
Co700 O704 2.004 . S
Co700 O710 2.021 . S
Co700 O712 2.137 . S
Co700 O713 2.244 . S
O701 Co700 2.216 . S
O701 C708 1.247 . S
O702 Co700 2.091 . S
O702 C708 1.261 . S
C703 O712 1.247 . S
C703 O713 1.272 . S
O704 Co700 2.004 . S
O704 C709 1.259 . S
Co705 O706 2.061 . S
Co705 O711 2.052 . S
Co705 O713 2.135 . S
O706 Co705 2.061 . S
O706 C709 1.235 . S
C707 O710 1.238 . S
C707 O711 1.241 . S
C708 O701 1.247 . S
C708 O702 1.261 . S
C709 O704 1.259 . S
C709 O706 1.235 . S
O710 Co700 2.021 . S
O710 C707 1.238 . S
O711 Co705 2.052 . S
O711 C707 1.241 . S
O712 Co700 2.137 . S
O712 C703 1.247 . S
O713 Co700 2.244 . S
O713 C703 1.272 . S
O713 Co705 2.135 . S
Co714 O715 2.216 . S
Co714 O716 2.091 . S
Co714 O718 2.004 . S
Co714 O724 2.021 . S
Co714 O726 2.137 . S
Co714 O727 2.244 . S
O715 Co714 2.216 . S
O715 C722 1.247 . S
O716 Co714 2.091 . S
O716 C722 1.261 . S
C717 O726 1.247 . S
C717 O727 1.272 . S
O718 Co714 2.004 . S
O718 C723 1.259 . S
Co719 O720 2.061 . S
Co719 O725 2.052 . S
Co719 O727 2.135 . S
O720 Co719 2.061 . S
O720 C723 1.235 . S
C721 O724 1.238 . S
C721 O725 1.241 . S
C722 O715 1.247 . S
C722 O716 1.261 . S
C723 O718 1.259 . S
C723 O720 1.235 . S
O724 Co714 2.021 . S
O724 C721 1.238 . S
O725 Co719 2.052 . S
O725 C721 1.241 . S
O726 Co714 2.137 . S
O726 C717 1.247 . S
O727 Co714 2.244 . S
O727 C717 1.272 . S
O727 Co719 2.135 . S
Co728 O729 2.216 . S
Co728 O730 2.091 . S
Co728 O732 2.004 . S
Co728 O738 2.021 . S
Co728 O740 2.137 . S
Co728 O741 2.244 . S
O729 Co728 2.216 . S
O729 C736 1.247 . S
O730 Co728 2.091 . S
O730 C736 1.261 . S
C731 O740 1.247 . S
C731 O741 1.272 . S
O732 Co728 2.004 . S
O732 C737 1.259 . S
Co733 O734 2.061 . S
Co733 O739 2.052 . S
Co733 O741 2.135 . S
O734 Co733 2.061 . S
O734 C737 1.235 . S
C735 O738 1.238 . S
C735 O739 1.241 . S
C736 O729 1.247 . S
C736 O730 1.261 . S
C737 O732 1.259 . S
C737 O734 1.235 . S
O738 Co728 2.021 . S
O738 C735 1.238 . S
O739 Co733 2.052 . S
O739 C735 1.241 . S
O740 Co728 2.137 . S
O740 C731 1.247 . S
O741 Co728 2.244 . S
O741 C731 1.272 . S
O741 Co733 2.135 . S
Co742 O743 2.216 . S
Co742 O744 2.091 . S
Co742 O746 2.004 . S
Co742 O752 2.021 . S
Co742 O754 2.137 . S
Co742 O755 2.244 . S
O743 Co742 2.216 . S
O743 C750 1.247 . S
O744 Co742 2.091 . S
O744 C750 1.261 . S
C745 O754 1.247 . S
C745 O755 1.272 . S
O746 Co742 2.004 . S
O746 C751 1.259 . S
Co747 O748 2.061 . S
Co747 O753 2.052 . S
Co747 O755 2.135 . S
O748 Co747 2.061 . S
O748 C751 1.235 . S
C749 O752 1.238 . S
C749 O753 1.241 . S
C750 O743 1.247 . S
C750 O744 1.261 . S
C751 O746 1.259 . S
C751 O748 1.235 . S
O752 Co742 2.021 . S
O752 C749 1.238 . S
O753 Co747 2.052 . S
O753 C749 1.241 . S
O754 Co742 2.137 . S
O754 C745 1.247 . S
O755 Co742 2.244 . S
O755 C745 1.272 . S
O755 Co747 2.135 . S
Co756 O757 2.216 . S
Co756 O758 2.091 . S
Co756 O760 2.004 . S
Co756 O766 2.021 . S
Co756 O768 2.137 . S
Co756 O769 2.244 . S
O757 Co756 2.216 . S
O757 C764 1.247 . S
O758 Co756 2.091 . S
O758 C764 1.261 . S
C759 O768 1.247 . S
C759 O769 1.272 . S
O760 Co756 2.004 . S
O760 C765 1.259 . S
Co761 O762 2.061 . S
Co761 O767 2.052 . S
Co761 O769 2.135 . S
O762 Co761 2.061 . S
O762 C765 1.235 . S
C763 O766 1.238 . S
C763 O767 1.241 . S
C764 O757 1.247 . S
C764 O758 1.261 . S
C765 O760 1.259 . S
C765 O762 1.235 . S
O766 Co756 2.021 . S
O766 C763 1.238 . S
O767 Co761 2.052 . S
O767 C763 1.241 . S
O768 Co756 2.137 . S
O768 C759 1.247 . S
O769 Co756 2.244 . S
O769 C759 1.272 . S
O769 Co761 2.135 . S
Co770 O771 2.216 . S
Co770 O772 2.091 . S
Co770 O774 2.004 . S
Co770 O780 2.021 . S
Co770 O782 2.137 . S
Co770 O783 2.244 . S
O771 Co770 2.216 . S
O771 C778 1.247 . S
O772 Co770 2.091 . S
O772 C778 1.261 . S
C773 O782 1.247 . S
C773 O783 1.272 . S
O774 Co770 2.004 . S
O774 C779 1.259 . S
Co775 O776 2.061 . S
Co775 O781 2.052 . S
Co775 O783 2.135 . S
O776 Co775 2.061 . S
O776 C779 1.235 . S
C777 O780 1.238 . S
C777 O781 1.241 . S
C778 O771 1.247 . S
C778 O772 1.261 . S
C779 O774 1.259 . S
C779 O776 1.235 . S
O780 Co770 2.021 . S
O780 C777 1.238 . S
O781 Co775 2.052 . S
O781 C777 1.241 . S
O782 Co770 2.137 . S
O782 C773 1.247 . S
O783 Co770 2.244 . S
O783 C773 1.272 . S
O783 Co775 2.135 . S
Co784 O785 2.216 1_545 S
Co784 O786 2.091 . S
Co784 O788 2.004 . S
Co784 O794 2.021 . S
Co784 O796 2.137 . S
Co784 O797 2.244 . S
O785 Co784 2.216 1_565 S
O785 C792 1.247 1_565 S
O786 Co784 2.091 . S
O786 C792 1.261 . S
C787 O796 1.247 . S
C787 O797 1.272 . S
O788 Co784 2.004 . S
O788 C793 1.259 . S
Co789 O790 2.061 . S
Co789 O795 2.052 . S
Co789 O797 2.135 . S
O790 Co789 2.061 . S
O790 C793 1.235 . S
C791 O794 1.238 . S
C791 O795 1.241 . S
C792 O785 1.247 1_545 S
C792 O786 1.261 . S
C793 O788 1.259 . S
C793 O790 1.235 . S
O794 Co784 2.021 . S
O794 C791 1.238 . S
O795 Co789 2.052 . S
O795 C791 1.241 . S
O796 Co784 2.137 . S
O796 C787 1.247 . S
O797 Co784 2.244 . S
O797 C787 1.272 . S
O797 Co789 2.135 . S
Co798 O799 2.216 . S
Co798 O800 2.091 . S
Co798 O802 2.004 . S
Co798 O808 2.021 . S
Co798 O810 2.137 . S
Co798 O811 2.244 . S
O799 Co798 2.216 . S
O799 C806 1.247 . S
O800 Co798 2.091 . S
O800 C806 1.261 . S
C801 O810 1.247 . S
C801 O811 1.272 . S
O802 Co798 2.004 . S
O802 C807 1.259 . S
Co803 O804 2.061 . S
Co803 O809 2.052 . S
Co803 O811 2.135 . S
O804 Co803 2.061 . S
O804 C807 1.235 . S
C805 O808 1.238 . S
C805 O809 1.241 . S
C806 O799 1.247 . S
C806 O800 1.261 . S
C807 O802 1.259 . S
C807 O804 1.235 . S
O808 Co798 2.021 . S
O808 C805 1.238 . S
O809 Co803 2.052 . S
O809 C805 1.241 . S
O810 Co798 2.137 . S
O810 C801 1.247 . S
O811 Co798 2.244 . S
O811 C801 1.272 . S
O811 Co803 2.135 . S
Co812 O813 2.216 . S
Co812 O814 2.091 . S
Co812 O816 2.004 . S
Co812 O822 2.021 . S
Co812 O824 2.137 . S
Co812 O825 2.244 . S
O813 Co812 2.216 . S
O813 C820 1.247 . S
O814 Co812 2.091 . S
O814 C820 1.261 . S
C815 O824 1.247 . S
C815 O825 1.272 . S
O816 Co812 2.004 . S
O816 C821 1.259 . S
Co817 O818 2.061 . S
Co817 O823 2.052 . S
Co817 O825 2.135 . S
O818 Co817 2.061 . S
O818 C821 1.235 . S
C819 O822 1.238 . S
C819 O823 1.241 . S
C820 O813 1.247 . S
C820 O814 1.261 . S
C821 O816 1.259 . S
C821 O818 1.235 . S
O822 Co812 2.021 . S
O822 C819 1.238 . S
O823 Co817 2.052 . S
O823 C819 1.241 . S
O824 Co812 2.137 . S
O824 C815 1.247 . S
O825 Co812 2.244 . S
O825 C815 1.272 . S
O825 Co817 2.135 . S
Co826 O827 2.216 . S
Co826 O828 2.091 . S
Co826 O830 2.004 . S
Co826 O836 2.021 . S
Co826 O838 2.137 . S
Co826 O839 2.244 . S
O827 Co826 2.216 . S
O827 C834 1.247 . S
O828 Co826 2.091 . S
O828 C834 1.261 . S
C829 O838 1.247 . S
C829 O839 1.272 . S
O830 Co826 2.004 . S
O830 C835 1.259 . S
Co831 O832 2.061 . S
Co831 O837 2.052 . S
Co831 O839 2.135 . S
O832 Co831 2.061 . S
O832 C835 1.235 . S
C833 O836 1.238 . S
C833 O837 1.241 . S
C834 O827 1.247 . S
C834 O828 1.261 . S
C835 O830 1.259 . S
C835 O832 1.235 . S
O836 Co826 2.021 . S
O836 C833 1.238 . S
O837 Co831 2.052 . S
O837 C833 1.241 . S
O838 Co826 2.137 . S
O838 C829 1.247 . S
O839 Co826 2.244 . S
O839 C829 1.272 . S
O839 Co831 2.135 . S
Co840 O841 2.216 1_565 S
Co840 O842 2.091 . S
Co840 O844 2.004 . S
Co840 O850 2.021 . S
Co840 O852 2.137 . S
Co840 O853 2.244 . S
O841 Co840 2.216 1_545 S
O841 C848 1.247 1_545 S
O842 Co840 2.091 . S
O842 C848 1.261 . S
C843 O852 1.247 . S
C843 O853 1.272 . S
O844 Co840 2.004 . S
O844 C849 1.259 . S
Co845 O846 2.061 . S
Co845 O851 2.052 . S
Co845 O853 2.135 . S
O846 Co845 2.061 . S
O846 C849 1.235 . S
C847 O850 1.238 . S
C847 O851 1.241 . S
C848 O841 1.247 1_565 S
C848 O842 1.261 . S
C849 O844 1.259 . S
C849 O846 1.235 . S
O850 Co840 2.021 . S
O850 C847 1.238 . S
O851 Co845 2.052 . S
O851 C847 1.241 . S
O852 Co840 2.137 . S
O852 C843 1.247 . S
O853 Co840 2.244 . S
O853 C843 1.272 . S
O853 Co845 2.135 . S
Co854 O855 2.216 . S
Co854 O856 2.091 . S
Co854 O858 2.004 . S
Co854 O864 2.021 . S
Co854 O866 2.137 . S
Co854 O867 2.244 . S
O855 Co854 2.216 . S
O855 C862 1.247 . S
O856 Co854 2.091 . S
O856 C862 1.261 . S
C857 O866 1.247 . S
C857 O867 1.272 . S
O858 Co854 2.004 . S
O858 C863 1.259 . S
Co859 O860 2.061 . S
Co859 O865 2.052 . S
Co859 O867 2.135 . S
O860 Co859 2.061 . S
O860 C863 1.235 . S
C861 O864 1.238 . S
C861 O865 1.241 . S
C862 O855 1.247 . S
C862 O856 1.261 . S
C863 O858 1.259 . S
C863 O860 1.235 . S
O864 Co854 2.021 . S
O864 C861 1.238 . S
O865 Co859 2.052 . S
O865 C861 1.241 . S
O866 Co854 2.137 . S
O866 C857 1.247 . S
O867 Co854 2.244 . S
O867 C857 1.272 . S
O867 Co859 2.135 . S
Co868 O869 2.216 . S
Co868 O870 2.091 . S
Co868 O872 2.004 . S
Co868 O878 2.021 . S
Co868 O880 2.137 . S
Co868 O881 2.244 . S
O869 Co868 2.216 . S
O869 C876 1.247 . S
O870 Co868 2.091 . S
O870 C876 1.261 . S
C871 O880 1.247 . S
C871 O881 1.272 . S
O872 Co868 2.004 . S
O872 C877 1.259 . S
Co873 O874 2.061 . S
Co873 O879 2.052 . S
Co873 O881 2.135 . S
O874 Co873 2.061 . S
O874 C877 1.235 . S
C875 O878 1.238 . S
C875 O879 1.241 . S
C876 O869 1.247 . S
C876 O870 1.261 . S
C877 O872 1.259 . S
C877 O874 1.235 . S
O878 Co868 2.021 . S
O878 C875 1.238 . S
O879 Co873 2.052 . S
O879 C875 1.241 . S
O880 Co868 2.137 . S
O880 C871 1.247 . S
O881 Co868 2.244 . S
O881 C871 1.272 . S
O881 Co873 2.135 . S
Co882 O883 2.216 . S
Co882 O884 2.091 . S
Co882 O886 2.004 . S
Co882 O892 2.021 . S
Co882 O894 2.137 . S
Co882 O895 2.244 . S
O883 Co882 2.216 . S
O883 C890 1.247 . S
O884 Co882 2.091 . S
O884 C890 1.261 . S
C885 O894 1.247 . S
C885 O895 1.272 . S
O886 Co882 2.004 . S
O886 C891 1.259 . S
Co887 O888 2.061 . S
Co887 O893 2.052 . S
Co887 O895 2.135 . S
O888 Co887 2.061 . S
O888 C891 1.235 . S
C889 O892 1.238 . S
C889 O893 1.241 . S
C890 O883 1.247 . S
C890 O884 1.261 . S
C891 O886 1.259 . S
C891 O888 1.235 . S
O892 Co882 2.021 . S
O892 C889 1.238 . S
O893 Co887 2.052 . S
O893 C889 1.241 . S
O894 Co882 2.137 . S
O894 C885 1.247 . S
O895 Co882 2.244 . S
O895 C885 1.272 . S
O895 Co887 2.135 . S
Co896 O897 2.216 . S
Co896 O898 2.091 . S
Co896 O900 2.004 . S
Co896 O906 2.021 . S
Co896 O908 2.137 . S
Co896 O909 2.244 . S
O897 Co896 2.216 . S
O897 C904 1.247 . S
O898 Co896 2.091 . S
O898 C904 1.261 . S
C899 O908 1.247 . S
C899 O909 1.272 . S
O900 Co896 2.004 . S
O900 C905 1.259 . S
Co901 O902 2.061 . S
Co901 O907 2.052 . S
Co901 O909 2.135 . S
O902 Co901 2.061 . S
O902 C905 1.235 . S
C903 O906 1.238 . S
C903 O907 1.241 . S
C904 O897 1.247 . S
C904 O898 1.261 . S
C905 O900 1.259 . S
C905 O902 1.235 . S
O906 Co896 2.021 . S
O906 C903 1.238 . S
O907 Co901 2.052 . S
O907 C903 1.241 . S
O908 Co896 2.137 . S
O908 C899 1.247 . S
O909 Co896 2.244 . S
O909 C899 1.272 . S
O909 Co901 2.135 . S
Co910 O911 2.216 1_556 S
Co910 O912 2.091 . S
Co910 O914 2.004 . S
Co910 O920 2.021 . S
Co910 O922 2.137 . S
Co910 O923 2.244 . S
O911 Co910 2.216 1_554 S
O911 C918 1.247 1_554 S
O912 Co910 2.091 . S
O912 C918 1.261 . S
C913 O922 1.247 . S
C913 O923 1.272 . S
O914 Co910 2.004 . S
O914 C919 1.259 . S
Co915 O916 2.061 . S
Co915 O921 2.052 . S
Co915 O923 2.135 . S
O916 Co915 2.061 . S
O916 C919 1.235 . S
C917 O920 1.238 . S
C917 O921 1.241 . S
C918 O911 1.247 1_556 S
C918 O912 1.261 . S
C919 O914 1.259 . S
C919 O916 1.235 . S
O920 Co910 2.021 . S
O920 C917 1.238 . S
O921 Co915 2.052 . S
O921 C917 1.241 . S
O922 Co910 2.137 . S
O922 C913 1.247 . S
O923 Co910 2.244 . S
O923 C913 1.272 . S
O923 Co915 2.135 . S
Co924 O925 2.216 . S
Co924 O926 2.091 . S
Co924 O928 2.004 . S
Co924 O934 2.021 . S
Co924 O936 2.137 . S
Co924 O937 2.244 . S
O925 Co924 2.216 . S
O925 C932 1.247 . S
O926 Co924 2.091 . S
O926 C932 1.261 . S
C927 O936 1.247 . S
C927 O937 1.272 . S
O928 Co924 2.004 . S
O928 C933 1.259 . S
Co929 O930 2.061 . S
Co929 O935 2.052 . S
Co929 O937 2.135 . S
O930 Co929 2.061 . S
O930 C933 1.235 . S
C931 O934 1.238 . S
C931 O935 1.241 . S
C932 O925 1.247 . S
C932 O926 1.261 . S
C933 O928 1.259 . S
C933 O930 1.235 . S
O934 Co924 2.021 . S
O934 C931 1.238 . S
O935 Co929 2.052 . S
O935 C931 1.241 . S
O936 Co924 2.137 . S
O936 C927 1.247 . S
O937 Co924 2.244 . S
O937 C927 1.272 . S
O937 Co929 2.135 . S
Co938 O939 2.216 . S
Co938 O940 2.091 . S
Co938 O942 2.004 . S
Co938 O948 2.021 . S
Co938 O950 2.137 . S
Co938 O951 2.244 . S
O939 Co938 2.216 . S
O939 C946 1.247 . S
O940 Co938 2.091 . S
O940 C946 1.261 . S
C941 O950 1.247 . S
C941 O951 1.272 . S
O942 Co938 2.004 . S
O942 C947 1.259 . S
Co943 O944 2.061 . S
Co943 O949 2.052 . S
Co943 O951 2.135 . S
O944 Co943 2.061 . S
O944 C947 1.235 . S
C945 O948 1.238 . S
C945 O949 1.241 . S
C946 O939 1.247 . S
C946 O940 1.261 . S
C947 O942 1.259 . S
C947 O944 1.235 . S
O948 Co938 2.021 . S
O948 C945 1.238 . S
O949 Co943 2.052 . S
O949 C945 1.241 . S
O950 Co938 2.137 . S
O950 C941 1.247 . S
O951 Co938 2.244 . S
O951 C941 1.272 . S
O951 Co943 2.135 . S
Co952 O953 2.216 . S
Co952 O954 2.091 . S
Co952 O956 2.004 . S
Co952 O962 2.021 . S
Co952 O964 2.137 . S
Co952 O965 2.244 . S
O953 Co952 2.216 . S
O953 C960 1.247 . S
O954 Co952 2.091 . S
O954 C960 1.261 . S
C955 O964 1.247 . S
C955 O965 1.272 . S
O956 Co952 2.004 . S
O956 C961 1.259 . S
Co957 O958 2.061 . S
Co957 O963 2.052 . S
Co957 O965 2.135 . S
O958 Co957 2.061 . S
O958 C961 1.235 . S
C959 O962 1.238 . S
C959 O963 1.241 . S
C960 O953 1.247 . S
C960 O954 1.261 . S
C961 O956 1.259 . S
C961 O958 1.235 . S
O962 Co952 2.021 . S
O962 C959 1.238 . S
O963 Co957 2.052 . S
O963 C959 1.241 . S
O964 Co952 2.137 . S
O964 C955 1.247 . S
O965 Co952 2.244 . S
O965 C955 1.272 . S
O965 Co957 2.135 . S
Co966 O967 2.216 . S
Co966 O968 2.091 . S
Co966 O970 2.004 . S
Co966 O976 2.021 . S
Co966 O978 2.137 . S
Co966 O979 2.244 . S
O967 Co966 2.216 . S
O967 C974 1.247 . S
O968 Co966 2.091 . S
O968 C974 1.261 . S
C969 O978 1.247 . S
C969 O979 1.272 . S
O970 Co966 2.004 . S
O970 C975 1.259 . S
Co971 O972 2.061 . S
Co971 O977 2.052 . S
Co971 O979 2.135 . S
O972 Co971 2.061 . S
O972 C975 1.235 . S
C973 O976 1.238 . S
C973 O977 1.241 . S
C974 O967 1.247 . S
C974 O968 1.261 . S
C975 O970 1.259 . S
C975 O972 1.235 . S
O976 Co966 2.021 . S
O976 C973 1.238 . S
O977 Co971 2.052 . S
O977 C973 1.241 . S
O978 Co966 2.137 . S
O978 C969 1.247 . S
O979 Co966 2.244 . S
O979 C969 1.272 . S
O979 Co971 2.135 . S
Co980 O981 2.216 . S
Co980 O982 2.091 . S
Co980 O984 2.004 . S
Co980 O990 2.021 . S
Co980 O992 2.137 . S
Co980 O993 2.244 . S
O981 Co980 2.216 . S
O981 C988 1.247 . S
O982 Co980 2.091 . S
O982 C988 1.261 . S
C983 O992 1.247 . S
C983 O993 1.272 . S
O984 Co980 2.004 . S
O984 C989 1.259 . S
Co985 O986 2.061 . S
Co985 O991 2.052 . S
Co985 O993 2.135 . S
O986 Co985 2.061 . S
O986 C989 1.235 . S
C987 O990 1.238 . S
C987 O991 1.241 . S
C988 O981 1.247 . S
C988 O982 1.261 . S
C989 O984 1.259 . S
C989 O986 1.235 . S
O990 Co980 2.021 . S
O990 C987 1.238 . S
O991 Co985 2.052 . S
O991 C987 1.241 . S
O992 Co980 2.137 . S
O992 C983 1.247 . S
O993 Co980 2.244 . S
O993 C983 1.272 . S
O993 Co985 2.135 . S
Co994 O995 2.216 . S
Co994 O996 2.091 . S
Co994 O998 2.004 . S
Co994 O1004 2.021 . S
Co994 O1006 2.137 . S
Co994 O1007 2.244 . S
O995 Co994 2.216 . S
O995 C1002 1.247 . S
O996 Co994 2.091 . S
O996 C1002 1.261 . S
C997 O1006 1.247 . S
C997 O1007 1.272 . S
O998 Co994 2.004 . S
O998 C1003 1.259 . S
Co999 O1000 2.061 . S
Co999 O1005 2.052 . S
Co999 O1007 2.135 . S
O1000 Co999 2.061 . S
O1000 C1003 1.235 . S
C1001 O1004 1.238 . S
C1001 O1005 1.241 . S
C1002 O995 1.247 . S
C1002 O996 1.261 . S
C1003 O998 1.259 . S
C1003 O1000 1.235 . S
O1004 Co994 2.021 . S
O1004 C1001 1.238 . S
O1005 Co999 2.052 . S
O1005 C1001 1.241 . S
O1006 Co994 2.137 . S
O1006 C997 1.247 . S
O1007 Co994 2.244 . S
O1007 C997 1.272 . S
O1007 Co999 2.135 . S
Co1008 O1009 2.216 . S
Co1008 O1010 2.091 . S
Co1008 O1012 2.004 . S
Co1008 O1018 2.021 . S
Co1008 O1020 2.137 . S
Co1008 O1021 2.244 . S
O1009 Co1008 2.216 . S
O1009 C1016 1.247 . S
O1010 Co1008 2.091 . S
O1010 C1016 1.261 . S
C1011 O1020 1.247 . S
C1011 O1021 1.272 . S
O1012 Co1008 2.004 . S
O1012 C1017 1.259 . S
Co1013 O1014 2.061 . S
Co1013 O1019 2.052 . S
Co1013 O1021 2.135 . S
O1014 Co1013 2.061 . S
O1014 C1017 1.235 . S
C1015 O1018 1.238 . S
C1015 O1019 1.241 . S
C1016 O1009 1.247 . S
C1016 O1010 1.261 . S
C1017 O1012 1.259 . S
C1017 O1014 1.235 . S
O1018 Co1008 2.021 . S
O1018 C1015 1.238 . S
O1019 Co1013 2.052 . S
O1019 C1015 1.241 . S
O1020 Co1008 2.137 . S
O1020 C1011 1.247 . S
O1021 Co1008 2.244 . S
O1021 C1011 1.272 . S
O1021 Co1013 2.135 . S
Co1022 O1023 2.216 . S
Co1022 O1024 2.091 . S
Co1022 O1026 2.004 . S
Co1022 O1032 2.021 . S
Co1022 O1034 2.137 . S
Co1022 O1035 2.244 . S
O1023 Co1022 2.216 . S
O1023 C1030 1.247 . S
O1024 Co1022 2.091 . S
O1024 C1030 1.261 . S
C1025 O1034 1.247 . S
C1025 O1035 1.272 . S
O1026 Co1022 2.004 . S
O1026 C1031 1.259 . S
Co1027 O1028 2.061 . S
Co1027 O1033 2.052 . S
Co1027 O1035 2.135 . S
O1028 Co1027 2.061 . S
O1028 C1031 1.235 . S
C1029 O1032 1.238 . S
C1029 O1033 1.241 . S
C1030 O1023 1.247 . S
C1030 O1024 1.261 . S
C1031 O1026 1.259 . S
C1031 O1028 1.235 . S
O1032 Co1022 2.021 . S
O1032 C1029 1.238 . S
O1033 Co1027 2.052 . S
O1033 C1029 1.241 . S
O1034 Co1022 2.137 . S
O1034 C1025 1.247 . S
O1035 Co1022 2.244 . S
O1035 C1025 1.272 . S
O1035 Co1027 2.135 . S
Co1036 O1037 2.216 . S
Co1036 O1038 2.091 . S
Co1036 O1040 2.004 . S
Co1036 O1046 2.021 . S
Co1036 O1048 2.137 . S
Co1036 O1049 2.244 . S
O1037 Co1036 2.216 . S
O1037 C1044 1.247 . S
O1038 Co1036 2.091 . S
O1038 C1044 1.261 . S
C1039 O1048 1.247 . S
C1039 O1049 1.272 . S
O1040 Co1036 2.004 . S
O1040 C1045 1.259 . S
Co1041 O1042 2.061 . S
Co1041 O1047 2.052 . S
Co1041 O1049 2.135 . S
O1042 Co1041 2.061 . S
O1042 C1045 1.235 . S
C1043 O1046 1.238 . S
C1043 O1047 1.241 . S
C1044 O1037 1.247 . S
C1044 O1038 1.261 . S
C1045 O1040 1.259 . S
C1045 O1042 1.235 . S
O1046 Co1036 2.021 . S
O1046 C1043 1.238 . S
O1047 Co1041 2.052 . S
O1047 C1043 1.241 . S
O1048 Co1036 2.137 . S
O1048 C1039 1.247 . S
O1049 Co1036 2.244 . S
O1049 C1039 1.272 . S
O1049 Co1041 2.135 . S
Co1050 O1051 2.216 . S
Co1050 O1052 2.091 . S
Co1050 O1054 2.004 . S
Co1050 O1060 2.021 . S
Co1050 O1062 2.137 . S
Co1050 O1063 2.244 . S
O1051 Co1050 2.216 . S
O1051 C1058 1.247 . S
O1052 Co1050 2.091 . S
O1052 C1058 1.261 . S
C1053 O1062 1.247 . S
C1053 O1063 1.272 . S
O1054 Co1050 2.004 . S
O1054 C1059 1.259 . S
Co1055 O1056 2.061 . S
Co1055 O1061 2.052 . S
Co1055 O1063 2.135 . S
O1056 Co1055 2.061 . S
O1056 C1059 1.235 . S
C1057 O1060 1.238 . S
C1057 O1061 1.241 . S
C1058 O1051 1.247 . S
C1058 O1052 1.261 . S
C1059 O1054 1.259 . S
C1059 O1056 1.235 . S
O1060 Co1050 2.021 . S
O1060 C1057 1.238 . S
O1061 Co1055 2.052 . S
O1061 C1057 1.241 . S
O1062 Co1050 2.137 . S
O1062 C1053 1.247 . S
O1063 Co1050 2.244 . S
O1063 C1053 1.272 . S
O1063 Co1055 2.135 . S
Co1064 O1065 2.216 . S
Co1064 O1066 2.091 . S
Co1064 O1068 2.004 . S
Co1064 O1074 2.021 . S
Co1064 O1076 2.137 . S
Co1064 O1077 2.244 . S
O1065 Co1064 2.216 . S
O1065 C1072 1.247 . S
O1066 Co1064 2.091 . S
O1066 C1072 1.261 . S
C1067 O1076 1.247 . S
C1067 O1077 1.272 . S
O1068 Co1064 2.004 . S
O1068 C1073 1.259 . S
Co1069 O1070 2.061 . S
Co1069 O1075 2.052 . S
Co1069 O1077 2.135 . S
O1070 Co1069 2.061 . S
O1070 C1073 1.235 . S
C1071 O1074 1.238 . S
C1071 O1075 1.241 . S
C1072 O1065 1.247 . S
C1072 O1066 1.261 . S
C1073 O1068 1.259 . S
C1073 O1070 1.235 . S
O1074 Co1064 2.021 . S
O1074 C1071 1.238 . S
O1075 Co1069 2.052 . S
O1075 C1071 1.241 . S
O1076 Co1064 2.137 . S
O1076 C1067 1.247 . S
O1077 Co1064 2.244 . S
O1077 C1067 1.272 . S
O1077 Co1069 2.135 . S
Co1078 O1079 2.216 . S
Co1078 O1080 2.091 . S
Co1078 O1082 2.004 . S
Co1078 O1088 2.021 . S
Co1078 O1090 2.137 . S
Co1078 O1091 2.244 . S
O1079 Co1078 2.216 . S
O1079 C1086 1.247 . S
O1080 Co1078 2.091 . S
O1080 C1086 1.261 . S
C1081 O1090 1.247 . S
C1081 O1091 1.272 . S
O1082 Co1078 2.004 . S
O1082 C1087 1.259 . S
Co1083 O1084 2.061 . S
Co1083 O1089 2.052 . S
Co1083 O1091 2.135 . S
O1084 Co1083 2.061 . S
O1084 C1087 1.235 . S
C1085 O1088 1.238 . S
C1085 O1089 1.241 . S
C1086 O1079 1.247 . S
C1086 O1080 1.261 . S
C1087 O1082 1.259 . S
C1087 O1084 1.235 . S
O1088 Co1078 2.021 . S
O1088 C1085 1.238 . S
O1089 Co1083 2.052 . S
O1089 C1085 1.241 . S
O1090 Co1078 2.137 . S
O1090 C1081 1.247 . S
O1091 Co1078 2.244 . S
O1091 C1081 1.272 . S
O1091 Co1083 2.135 . S
Co1092 O1093 2.216 . S
Co1092 O1094 2.091 . S
Co1092 O1096 2.004 . S
Co1092 O1102 2.021 . S
Co1092 O1104 2.137 . S
Co1092 O1105 2.244 . S
O1093 Co1092 2.216 . S
O1093 C1100 1.247 . S
O1094 Co1092 2.091 . S
O1094 C1100 1.261 . S
C1095 O1104 1.247 . S
C1095 O1105 1.272 . S
O1096 Co1092 2.004 . S
O1096 C1101 1.259 . S
Co1097 O1098 2.061 . S
Co1097 O1103 2.052 . S
Co1097 O1105 2.135 . S
O1098 Co1097 2.061 . S
O1098 C1101 1.235 . S
C1099 O1102 1.238 . S
C1099 O1103 1.241 . S
C1100 O1093 1.247 . S
C1100 O1094 1.261 . S
C1101 O1096 1.259 . S
C1101 O1098 1.235 . S
O1102 Co1092 2.021 . S
O1102 C1099 1.238 . S
O1103 Co1097 2.052 . S
O1103 C1099 1.241 . S
O1104 Co1092 2.137 . S
O1104 C1095 1.247 . S
O1105 Co1092 2.244 . S
O1105 C1095 1.272 . S
O1105 Co1097 2.135 . S
Co1106 O1107 2.216 . S
Co1106 O1108 2.091 . S
Co1106 O1110 2.004 . S
Co1106 O1116 2.021 . S
Co1106 O1118 2.137 . S
Co1106 O1119 2.244 . S
O1107 Co1106 2.216 . S
O1107 C1114 1.247 . S
O1108 Co1106 2.091 . S
O1108 C1114 1.261 . S
C1109 O1118 1.247 . S
C1109 O1119 1.272 . S
O1110 Co1106 2.004 . S
O1110 C1115 1.259 . S
Co1111 O1112 2.061 . S
Co1111 O1117 2.052 . S
Co1111 O1119 2.135 . S
O1112 Co1111 2.061 . S
O1112 C1115 1.235 . S
C1113 O1116 1.238 . S
C1113 O1117 1.241 . S
C1114 O1107 1.247 . S
C1114 O1108 1.261 . S
C1115 O1110 1.259 . S
C1115 O1112 1.235 . S
O1116 Co1106 2.021 . S
O1116 C1113 1.238 . S
O1117 Co1111 2.052 . S
O1117 C1113 1.241 . S
O1118 Co1106 2.137 . S
O1118 C1109 1.247 . S
O1119 Co1106 2.244 . S
O1119 C1109 1.272 . S
O1119 Co1111 2.135 . S
Co1120 O1121 2.216 . S
Co1120 O1122 2.091 . S
Co1120 O1124 2.004 . S
Co1120 O1130 2.021 . S
Co1120 O1132 2.137 . S
Co1120 O1133 2.244 . S
O1121 Co1120 2.216 . S
O1121 C1128 1.247 . S
O1122 Co1120 2.091 . S
O1122 C1128 1.261 . S
C1123 O1132 1.247 . S
C1123 O1133 1.272 . S
O1124 Co1120 2.004 . S
O1124 C1129 1.259 . S
Co1125 O1126 2.061 . S
Co1125 O1131 2.052 . S
Co1125 O1133 2.135 . S
O1126 Co1125 2.061 . S
O1126 C1129 1.235 . S
C1127 O1130 1.238 . S
C1127 O1131 1.241 . S
C1128 O1121 1.247 . S
C1128 O1122 1.261 . S
C1129 O1124 1.259 . S
C1129 O1126 1.235 . S
O1130 Co1120 2.021 . S
O1130 C1127 1.238 . S
O1131 Co1125 2.052 . S
O1131 C1127 1.241 . S
O1132 Co1120 2.137 . S
O1132 C1123 1.247 . S
O1133 Co1120 2.244 . S
O1133 C1123 1.272 . S
O1133 Co1125 2.135 . S
Co1134 O1135 2.216 . S
Co1134 O1136 2.091 . S
Co1134 O1138 2.004 . S
Co1134 O1144 2.021 . S
Co1134 O1146 2.137 . S
Co1134 O1147 2.244 . S
O1135 Co1134 2.216 . S
O1135 C1142 1.247 . S
O1136 Co1134 2.091 . S
O1136 C1142 1.261 . S
C1137 O1146 1.247 . S
C1137 O1147 1.272 . S
O1138 Co1134 2.004 . S
O1138 C1143 1.259 . S
Co1139 O1140 2.061 . S
Co1139 O1145 2.052 . S
Co1139 O1147 2.135 . S
O1140 Co1139 2.061 . S
O1140 C1143 1.235 . S
C1141 O1144 1.238 . S
C1141 O1145 1.241 . S
C1142 O1135 1.247 . S
C1142 O1136 1.261 . S
C1143 O1138 1.259 . S
C1143 O1140 1.235 . S
O1144 Co1134 2.021 . S
O1144 C1141 1.238 . S
O1145 Co1139 2.052 . S
O1145 C1141 1.241 . S
O1146 Co1134 2.137 . S
O1146 C1137 1.247 . S
O1147 Co1134 2.244 . S
O1147 C1137 1.272 . S
O1147 Co1139 2.135 . S
Co1148 O1149 2.216 1_565 S
Co1148 O1150 2.091 . S
Co1148 O1152 2.004 . S
Co1148 O1158 2.021 . S
Co1148 O1160 2.137 . S
Co1148 O1161 2.244 . S
O1149 Co1148 2.216 1_545 S
O1149 C1156 1.247 1_545 S
O1150 Co1148 2.091 . S
O1150 C1156 1.261 . S
C1151 O1160 1.247 . S
C1151 O1161 1.272 . S
O1152 Co1148 2.004 . S
O1152 C1157 1.259 . S
Co1153 O1154 2.061 . S
Co1153 O1159 2.052 . S
Co1153 O1161 2.135 . S
O1154 Co1153 2.061 . S
O1154 C1157 1.235 . S
C1155 O1158 1.238 . S
C1155 O1159 1.241 . S
C1156 O1149 1.247 1_565 S
C1156 O1150 1.261 . S
C1157 O1152 1.259 . S
C1157 O1154 1.235 . S
O1158 Co1148 2.021 . S
O1158 C1155 1.238 . S
O1159 Co1153 2.052 . S
O1159 C1155 1.241 . S
O1160 Co1148 2.137 . S
O1160 C1151 1.247 . S
O1161 Co1148 2.244 . S
O1161 C1151 1.272 . S
O1161 Co1153 2.135 . S
Co1162 O1163 2.216 . S
Co1162 O1164 2.091 . S
Co1162 O1166 2.004 . S
Co1162 O1172 2.021 . S
Co1162 O1174 2.137 . S
Co1162 O1175 2.244 . S
O1163 Co1162 2.216 . S
O1163 C1170 1.247 . S
O1164 Co1162 2.091 . S
O1164 C1170 1.261 . S
C1165 O1174 1.247 . S
C1165 O1175 1.272 . S
O1166 Co1162 2.004 . S
O1166 C1171 1.259 . S
Co1167 O1168 2.061 . S
Co1167 O1173 2.052 . S
Co1167 O1175 2.135 . S
O1168 Co1167 2.061 . S
O1168 C1171 1.235 . S
C1169 O1172 1.238 . S
C1169 O1173 1.241 . S
C1170 O1163 1.247 . S
C1170 O1164 1.261 . S
C1171 O1166 1.259 . S
C1171 O1168 1.235 . S
O1172 Co1162 2.021 . S
O1172 C1169 1.238 . S
O1173 Co1167 2.052 . S
O1173 C1169 1.241 . S
O1174 Co1162 2.137 . S
O1174 C1165 1.247 . S
O1175 Co1162 2.244 . S
O1175 C1165 1.272 . S
O1175 Co1167 2.135 . S
Co1176 O1177 2.216 . S
Co1176 O1178 2.091 . S
Co1176 O1180 2.004 . S
Co1176 O1186 2.021 . S
Co1176 O1188 2.137 . S
Co1176 O1189 2.244 . S
O1177 Co1176 2.216 . S
O1177 C1184 1.247 . S
O1178 Co1176 2.091 . S
O1178 C1184 1.261 . S
C1179 O1188 1.247 . S
C1179 O1189 1.272 . S
O1180 Co1176 2.004 . S
O1180 C1185 1.259 . S
Co1181 O1182 2.061 . S
Co1181 O1187 2.052 . S
Co1181 O1189 2.135 . S
O1182 Co1181 2.061 . S
O1182 C1185 1.235 . S
C1183 O1186 1.238 . S
C1183 O1187 1.241 . S
C1184 O1177 1.247 . S
C1184 O1178 1.261 . S
C1185 O1180 1.259 . S
C1185 O1182 1.235 . S
O1186 Co1176 2.021 . S
O1186 C1183 1.238 . S
O1187 Co1181 2.052 . S
O1187 C1183 1.241 . S
O1188 Co1176 2.137 . S
O1188 C1179 1.247 . S
O1189 Co1176 2.244 . S
O1189 C1179 1.272 . S
O1189 Co1181 2.135 . S
Co1190 O1191 2.216 . S
Co1190 O1192 2.091 . S
Co1190 O1194 2.004 . S
Co1190 O1200 2.021 . S
Co1190 O1202 2.137 . S
Co1190 O1203 2.244 . S
O1191 Co1190 2.216 . S
O1191 C1198 1.247 . S
O1192 Co1190 2.091 . S
O1192 C1198 1.261 . S
C1193 O1202 1.247 . S
C1193 O1203 1.272 . S
O1194 Co1190 2.004 . S
O1194 C1199 1.259 . S
Co1195 O1196 2.061 . S
Co1195 O1201 2.052 . S
Co1195 O1203 2.135 . S
O1196 Co1195 2.061 . S
O1196 C1199 1.235 . S
C1197 O1200 1.238 . S
C1197 O1201 1.241 . S
C1198 O1191 1.247 . S
C1198 O1192 1.261 . S
C1199 O1194 1.259 . S
C1199 O1196 1.235 . S
O1200 Co1190 2.021 . S
O1200 C1197 1.238 . S
O1201 Co1195 2.052 . S
O1201 C1197 1.241 . S
O1202 Co1190 2.137 . S
O1202 C1193 1.247 . S
O1203 Co1190 2.244 . S
O1203 C1193 1.272 . S
O1203 Co1195 2.135 . S
Co1204 O1205 2.216 1_545 S
Co1204 O1206 2.091 . S
Co1204 O1208 2.004 . S
Co1204 O1214 2.021 . S
Co1204 O1216 2.137 . S
Co1204 O1217 2.244 . S
O1205 Co1204 2.216 1_565 S
O1205 C1212 1.247 1_565 S
O1206 Co1204 2.091 . S
O1206 C1212 1.261 . S
C1207 O1216 1.247 . S
C1207 O1217 1.272 . S
O1208 Co1204 2.004 . S
O1208 C1213 1.259 . S
Co1209 O1210 2.061 . S
Co1209 O1215 2.052 . S
Co1209 O1217 2.135 . S
O1210 Co1209 2.061 . S
O1210 C1213 1.235 . S
C1211 O1214 1.238 . S
C1211 O1215 1.241 . S
C1212 O1205 1.247 1_545 S
C1212 O1206 1.261 . S
C1213 O1208 1.259 . S
C1213 O1210 1.235 . S
O1214 Co1204 2.021 . S
O1214 C1211 1.238 . S
O1215 Co1209 2.052 . S
O1215 C1211 1.241 . S
O1216 Co1204 2.137 . S
O1216 C1207 1.247 . S
O1217 Co1204 2.244 . S
O1217 C1207 1.272 . S
O1217 Co1209 2.135 . S
Co1218 O1219 2.216 . S
Co1218 O1220 2.091 . S
Co1218 O1222 2.004 . S
Co1218 O1228 2.021 . S
Co1218 O1230 2.137 . S
Co1218 O1231 2.244 . S
O1219 Co1218 2.216 . S
O1219 C1226 1.247 . S
O1220 Co1218 2.091 . S
O1220 C1226 1.261 . S
C1221 O1230 1.247 . S
C1221 O1231 1.272 . S
O1222 Co1218 2.004 . S
O1222 C1227 1.259 . S
Co1223 O1224 2.061 . S
Co1223 O1229 2.052 . S
Co1223 O1231 2.135 . S
O1224 Co1223 2.061 . S
O1224 C1227 1.235 . S
C1225 O1228 1.238 . S
C1225 O1229 1.241 . S
C1226 O1219 1.247 . S
C1226 O1220 1.261 . S
C1227 O1222 1.259 . S
C1227 O1224 1.235 . S
O1228 Co1218 2.021 . S
O1228 C1225 1.238 . S
O1229 Co1223 2.052 . S
O1229 C1225 1.241 . S
O1230 Co1218 2.137 . S
O1230 C1221 1.247 . S
O1231 Co1218 2.244 . S
O1231 C1221 1.272 . S
O1231 Co1223 2.135 . S
Co1232 O1233 2.216 1_554 S
Co1232 O1234 2.091 . S
Co1232 O1236 2.004 . S
Co1232 O1242 2.021 . S
Co1232 O1244 2.137 . S
Co1232 O1245 2.244 . S
O1233 Co1232 2.216 1_556 S
O1233 C1240 1.247 1_556 S
O1234 Co1232 2.091 . S
O1234 C1240 1.261 . S
C1235 O1244 1.247 . S
C1235 O1245 1.272 . S
O1236 Co1232 2.004 . S
O1236 C1241 1.259 . S
Co1237 O1238 2.061 . S
Co1237 O1243 2.052 . S
Co1237 O1245 2.135 . S
O1238 Co1237 2.061 . S
O1238 C1241 1.235 . S
C1239 O1242 1.238 . S
C1239 O1243 1.241 . S
C1240 O1233 1.247 1_554 S
C1240 O1234 1.261 . S
C1241 O1236 1.259 . S
C1241 O1238 1.235 . S
O1242 Co1232 2.021 . S
O1242 C1239 1.238 . S
O1243 Co1237 2.052 . S
O1243 C1239 1.241 . S
O1244 Co1232 2.137 . S
O1244 C1235 1.247 . S
O1245 Co1232 2.244 . S
O1245 C1235 1.272 . S
O1245 Co1237 2.135 . S
Co1246 O1247 2.216 . S
Co1246 O1248 2.091 . S
Co1246 O1250 2.004 . S
Co1246 O1256 2.021 . S
Co1246 O1258 2.137 . S
Co1246 O1259 2.244 . S
O1247 Co1246 2.216 . S
O1247 C1254 1.247 . S
O1248 Co1246 2.091 . S
O1248 C1254 1.261 . S
C1249 O1258 1.247 . S
C1249 O1259 1.272 . S
O1250 Co1246 2.004 . S
O1250 C1255 1.259 . S
Co1251 O1252 2.061 . S
Co1251 O1257 2.052 . S
Co1251 O1259 2.135 . S
O1252 Co1251 2.061 . S
O1252 C1255 1.235 . S
C1253 O1256 1.238 . S
C1253 O1257 1.241 . S
C1254 O1247 1.247 . S
C1254 O1248 1.261 . S
C1255 O1250 1.259 . S
C1255 O1252 1.235 . S
O1256 Co1246 2.021 . S
O1256 C1253 1.238 . S
O1257 Co1251 2.052 . S
O1257 C1253 1.241 . S
O1258 Co1246 2.137 . S
O1258 C1249 1.247 . S
O1259 Co1246 2.244 . S
O1259 C1249 1.272 . S
O1259 Co1251 2.135 . S
Co1260 O1261 2.216 . S
Co1260 O1262 2.091 . S
Co1260 O1264 2.004 . S
Co1260 O1270 2.021 . S
Co1260 O1272 2.137 . S
Co1260 O1273 2.244 . S
O1261 Co1260 2.216 . S
O1261 C1268 1.247 . S
O1262 Co1260 2.091 . S
O1262 C1268 1.261 . S
C1263 O1272 1.247 . S
C1263 O1273 1.272 . S
O1264 Co1260 2.004 . S
O1264 C1269 1.259 . S
Co1265 O1266 2.061 . S
Co1265 O1271 2.052 . S
Co1265 O1273 2.135 . S
O1266 Co1265 2.061 . S
O1266 C1269 1.235 . S
C1267 O1270 1.238 . S
C1267 O1271 1.241 . S
C1268 O1261 1.247 . S
C1268 O1262 1.261 . S
C1269 O1264 1.259 . S
C1269 O1266 1.235 . S
O1270 Co1260 2.021 . S
O1270 C1267 1.238 . S
O1271 Co1265 2.052 . S
O1271 C1267 1.241 . S
O1272 Co1260 2.137 . S
O1272 C1263 1.247 . S
O1273 Co1260 2.244 . S
O1273 C1263 1.272 . S
O1273 Co1265 2.135 . S
Co1274 O1275 2.216 1_556 S
Co1274 O1276 2.091 . S
Co1274 O1278 2.004 . S
Co1274 O1284 2.021 . S
Co1274 O1286 2.137 . S
Co1274 O1287 2.244 . S
O1275 Co1274 2.216 1_554 S
O1275 C1282 1.247 1_554 S
O1276 Co1274 2.091 . S
O1276 C1282 1.261 . S
C1277 O1286 1.247 . S
C1277 O1287 1.272 . S
O1278 Co1274 2.004 . S
O1278 C1283 1.259 . S
Co1279 O1280 2.061 . S
Co1279 O1285 2.052 . S
Co1279 O1287 2.135 . S
O1280 Co1279 2.061 . S
O1280 C1283 1.235 . S
C1281 O1284 1.238 . S
C1281 O1285 1.241 . S
C1282 O1275 1.247 1_556 S
C1282 O1276 1.261 . S
C1283 O1278 1.259 . S
C1283 O1280 1.235 . S
O1284 Co1274 2.021 . S
O1284 C1281 1.238 . S
O1285 Co1279 2.052 . S
O1285 C1281 1.241 . S
O1286 Co1274 2.137 . S
O1286 C1277 1.247 . S
O1287 Co1274 2.244 . S
O1287 C1277 1.272 . S
O1287 Co1279 2.135 . S
Co1288 O1289 2.216 . S
Co1288 O1290 2.091 . S
Co1288 O1292 2.004 . S
Co1288 O1298 2.021 . S
Co1288 O1300 2.137 . S
Co1288 O1301 2.244 . S
O1289 Co1288 2.216 . S
O1289 C1296 1.247 . S
O1290 Co1288 2.091 . S
O1290 C1296 1.261 . S
C1291 O1300 1.247 . S
C1291 O1301 1.272 . S
O1292 Co1288 2.004 . S
O1292 C1297 1.259 . S
Co1293 O1294 2.061 . S
Co1293 O1299 2.052 . S
Co1293 O1301 2.135 . S
O1294 Co1293 2.061 . S
O1294 C1297 1.235 . S
C1295 O1298 1.238 . S
C1295 O1299 1.241 . S
C1296 O1289 1.247 . S
C1296 O1290 1.261 . S
C1297 O1292 1.259 . S
C1297 O1294 1.235 . S
O1298 Co1288 2.021 . S
O1298 C1295 1.238 . S
O1299 Co1293 2.052 . S
O1299 C1295 1.241 . S
O1300 Co1288 2.137 . S
O1300 C1291 1.247 . S
O1301 Co1288 2.244 . S
O1301 C1291 1.272 . S
O1301 Co1293 2.135 . S
Co1302 O1303 2.216 1_554 S
Co1302 O1304 2.091 . S
Co1302 O1306 2.004 . S
Co1302 O1312 2.021 . S
Co1302 O1314 2.137 . S
Co1302 O1315 2.244 . S
O1303 Co1302 2.216 1_556 S
O1303 C1310 1.247 1_556 S
O1304 Co1302 2.091 . S
O1304 C1310 1.261 . S
C1305 O1314 1.247 . S
C1305 O1315 1.272 . S
O1306 Co1302 2.004 . S
O1306 C1311 1.259 . S
Co1307 O1308 2.061 . S
Co1307 O1313 2.052 . S
Co1307 O1315 2.135 . S
O1308 Co1307 2.061 . S
O1308 C1311 1.235 . S
C1309 O1312 1.238 . S
C1309 O1313 1.241 . S
C1310 O1303 1.247 1_554 S
C1310 O1304 1.261 . S
C1311 O1306 1.259 . S
C1311 O1308 1.235 . S
O1312 Co1302 2.021 . S
O1312 C1309 1.238 . S
O1313 Co1307 2.052 . S
O1313 C1309 1.241 . S
O1314 Co1302 2.137 . S
O1314 C1305 1.247 . S
O1315 Co1302 2.244 . S
O1315 C1305 1.272 . S
O1315 Co1307 2.135 . S
Co1316 O1317 2.216 . S
Co1316 O1318 2.091 . S
Co1316 O1320 2.004 . S
Co1316 O1326 2.021 . S
Co1316 O1328 2.137 . S
Co1316 O1329 2.244 . S
O1317 Co1316 2.216 . S
O1317 C1324 1.247 . S
O1318 Co1316 2.091 . S
O1318 C1324 1.261 . S
C1319 O1328 1.247 . S
C1319 O1329 1.272 . S
O1320 Co1316 2.004 . S
O1320 C1325 1.259 . S
Co1321 O1322 2.061 . S
Co1321 O1327 2.052 . S
Co1321 O1329 2.135 . S
O1322 Co1321 2.061 . S
O1322 C1325 1.235 . S
C1323 O1326 1.238 . S
C1323 O1327 1.241 . S
C1324 O1317 1.247 . S
C1324 O1318 1.261 . S
C1325 O1320 1.259 . S
C1325 O1322 1.235 . S
O1326 Co1316 2.021 . S
O1326 C1323 1.238 . S
O1327 Co1321 2.052 . S
O1327 C1323 1.241 . S
O1328 Co1316 2.137 . S
O1328 C1319 1.247 . S
O1329 Co1316 2.244 . S
O1329 C1319 1.272 . S
O1329 Co1321 2.135 . S
Co1330 O1331 2.216 . S
Co1330 O1332 2.091 . S
Co1330 O1334 2.004 . S
Co1330 O1340 2.021 . S
Co1330 O1342 2.137 . S
Co1330 O1343 2.244 . S
O1331 Co1330 2.216 . S
O1331 C1338 1.247 . S
O1332 Co1330 2.091 . S
O1332 C1338 1.261 . S
C1333 O1342 1.247 . S
C1333 O1343 1.272 . S
O1334 Co1330 2.004 . S
O1334 C1339 1.259 . S
Co1335 O1336 2.061 . S
Co1335 O1341 2.052 . S
Co1335 O1343 2.135 . S
O1336 Co1335 2.061 . S
O1336 C1339 1.235 . S
C1337 O1340 1.238 . S
C1337 O1341 1.241 . S
C1338 O1331 1.247 . S
C1338 O1332 1.261 . S
C1339 O1334 1.259 . S
C1339 O1336 1.235 . S
O1340 Co1330 2.021 . S
O1340 C1337 1.238 . S
O1341 Co1335 2.052 . S
O1341 C1337 1.241 . S
O1342 Co1330 2.137 . S
O1342 C1333 1.247 . S
O1343 Co1330 2.244 . S
O1343 C1333 1.272 . S
O1343 Co1335 2.135 . S
C7 C427 1.315 1_454 S
C777 C21 1.315 . S
C35 C399 1.315 1_655 S
C49 C749 1.315 . S
C371 C63 1.315 1_654 S
C77 C721 1.315 . S
C343 C91 1.315 1_455 S
C105 C693 1.315 . S
C483 C119 1.315 1_665 S
C133 C833 1.315 . S
C147 C455 1.315 1_655 S
C161 C805 1.315 . S
C175 C539 1.315 1_465 S
C889 C189 1.315 . S
C511 C203 1.315 1_455 S
C217 C861 1.315 . S
C917 C231 1.315 1_566 S
C903 C245 1.315 1_545 S
C259 C1001 1.315 . S
C1309 C273 1.315 1_554 S
C651 C287 1.315 . S
C301 C1281 1.315 1_564 S
C315 C623 1.315 . S
C329 C931 1.315 . S
C357 C1113 1.315 . S
C385 C1085 1.315 . S
C413 C1057 1.315 . S
C441 C1029 1.315 . S
C1169 C469 1.315 . S
C497 C1141 1.315 . S
C1225 C525 1.315 . S
C553 C1197 1.315 . S
C567 C1253 1.315 . S
C581 C1239 1.315 1_556 S
C595 C1337 1.315 . S
C973 C609 1.315 1_565 S
C945 C637 1.315 . S
C665 C1267 1.315 . S
C679 C1099 1.315 . S
C1071 C707 1.315 1_556 S
C735 C1043 1.315 . S
C763 C1015 1.315 1_556 S
C1155 C791 1.315 1_565 S
C1127 C819 1.315 . S
C847 C1211 1.315 1_565 S
C1183 C875 1.315 . S
C959 C1323 1.315 . S
C987 C1295 1.315 . S
C8 C778 1.488 1_455 S
C22 C400 1.488 1_655 S
C36 C750 1.488 1_655 S
C428 C50 1.488 1_655 S
C64 C358 1.488 1_455 S
C78 C708 1.488 . S
C92 C386 1.488 1_655 S
C680 C106 1.488 . S
C120 C288 1.488 1_545 S
C134 C1254 1.488 . S
C1268 C148 1.488 . S
C162 C1282 1.488 1_554 S
C1002 C176 1.488 1_545 S
C1310 C190 1.488 1_554 S
C204 C988 1.488 . S
C904 C218 1.488 . S
C890 C232 1.488 1_556 S
C1142 C246 1.488 . S
C260 C1156 1.488 1_545 S
C274 C1170 1.488 1_556 S
C302 C1198 1.488 1_554 S
C316 C876 1.488 . S
C848 C330 1.488 1_565 S
C344 C1114 1.488 1_455 S
C1086 C372 1.488 1_455 S
C1044 C414 1.488 . S
C442 C1016 1.488 . S
C456 C624 1.488 . S
C470 C918 1.488 1_554 S
C484 C932 1.488 1_565 S
C498 C946 1.488 . S
C512 C1338 1.488 . S
C974 C526 1.488 . S
C1324 C540 1.488 1_565 S
C1240 C554 1.488 1_554 S
C1226 C568 1.488 . S
C582 C806 1.488 1_556 S
C596 C820 1.488 . S
C610 C834 1.488 . S
C862 C638 1.488 . S
C1212 C652 1.488 1_545 S
C1184 C666 1.488 . S
C694 C1072 1.488 . S
C722 C1100 1.488 . S
C1030 C736 1.488 . S
C1058 C764 1.488 . S
C960 C792 1.488 1_565 S
C1296 C1128 1.488 . S
C9 C1305 1.380 . S
C23 C983 1.381 . S
C899 C37 1.380 . S
C997 C51 1.381 . S
C65 C269 1.380 . S
C79 C1291 1.380 . S
C241 C93 1.380 . S
C255 C107 1.380 . S
C395 C121 1.380 . S
C135 C745 1.380 . S
C149 C423 1.380 . S
C163 C773 1.381 . S
C339 C177 1.380 . S
C191 C689 1.381 . S
C367 C205 1.380 . S
C219 C717 1.380 . S
C233 C1207 1.380 . S
C479 C247 1.380 . S
C261 C829 1.381 . S
C451 C275 1.380 . S
C289 C465 1.381 . S
C843 C303 1.380 . S
C185 C317 1.380 . S
C213 C331 1.381 . S
C969 C345 1.380 . S
C359 C1319 1.381 . S
C1235 C373 1.380 . S
C387 C1333 1.381 . S
C605 C401 1.380 . S
C955 C415 1.380 . S
C429 C577 1.380 . S
C443 C591 1.380 . S
C457 C59 1.380 . S
C471 C1081 1.381 . S
C87 C485 1.380 . S
C499 C1109 1.380 . S
C3 C513 1.380 . S
C527 C1025 1.380 . S
C31 C541 1.380 . S
C1053 C555 1.381 . S
C569 C871 1.381 . S
C583 C143 1.380 . S
C1165 C597 1.380 . S
C611 C115 1.380 . S
C129 C625 1.380 . S
C639 C1179 1.381 . S
C521 C653 1.381 . S
C667 C549 1.380 . S
C633 C681 1.381 . S
C695 C311 1.380 . S
C709 C227 1.380 . S
C723 C325 1.380 . S
C737 C941 1.381 . S
C619 C751 1.381 . S
C913 C765 1.380 . S
C779 C927 1.381 . S
C1067 C793 1.380 . S
C73 C807 1.381 . S
C1095 C821 1.381 . S
C835 C101 1.380 . S
C1011 C849 1.380 . S
C863 C17 1.380 . S
C1039 C877 1.381 . S
C45 C891 1.381 . S
C535 C905 1.380 . S
C919 C1151 1.380 . S
C933 C157 1.381 . S
C1123 C947 1.381 . S
C961 C1137 1.381 . S
C171 C975 1.380 . S
C857 C989 1.380 . S
C1003 C885 1.381 . S
C1017 C297 1.380 . S
C647 C1031 1.380 . S
C563 C1045 1.381 . S
C1059 C661 1.380 . S
C1073 C1277 1.380 . S
C283 C1087 1.381 . S
C1249 C1101 1.381 . S
C1263 C1115 1.381 . S
C731 C1129 1.381 . S
C1143 C409 1.380 . S
C1157 C759 1.380 . S
C1171 C437 1.381 . S
C675 C1185 1.381 . S
C1199 C353 1.381 . S
C1213 C703 1.380 . S
C1227 C381 1.380 . S
C199 C1241 1.380 . S
C1255 C815 1.381 . S
C1269 C493 1.380 . S
C1283 C787 1.380 . S
C1297 C801 1.380 . S
C507 C1311 1.380 . S
C1193 C1325 1.381 . S
C1221 C1339 1.380 . S
