# Generated by pormake.
# Topology bcs, (6)-cn, num edge types: 1
# Building blocks:
#     Node 0, Type 0, BuildingBlock: BETGAK_clean_sbu_0, # of connection points: 6
#     Node 1, Type 0, BuildingBlock: BETGAK_clean_sbu_0, # of connection points: 6
#     Node 2, Type 0, BuildingBlock: BETGAK_clean_sbu_0, # of connection points: 6
#     Node 3, Type 0, BuildingBlock: BETGAK_clean_sbu_0, # of connection points: 6
#     Node 4, Type 0, BuildingBlock: BETGAK_clean_sbu_0, # of connection points: 6
#     Node 5, Type 0, BuildingBlock: BETGAK_clean_sbu_0, # of connection points: 6
#     Node 6, Type 0, BuildingBlock: BETGAK_clean_sbu_0, # of connection points: 6
#     Node 7, Type 0, BuildingBlock: BETGAK_clean_sbu_0, # of connection points: 6
#     Node 8, Type 0, BuildingBlock: BETGAK_clean_sbu_0, # of connection points: 6
#     Node 9, Type 0, BuildingBlock: BETGAK_clean_sbu_0, # of connection points: 6
#     Node 10, Type 0, BuildingBlock: BETGAK_clean_sbu_0, # of connection points: 6
#     Node 11, Type 0, BuildingBlock: BETGAK_clean_sbu_0, # of connection points: 6
#     Node 12, Type 0, BuildingBlock: BETGAK_clean_sbu_0, # of connection points: 6
#     Node 13, Type 0, BuildingBlock: BETGAK_clean_sbu_0, # of connection points: 6
#     Node 14, Type 0, BuildingBlock: BETGAK_clean_sbu_0, # of connection points: 6
#     Node 15, Type 0, BuildingBlock: BETGAK_clean_sbu_0, # of connection points: 6
#     Edge 16, Type (0, 0), BuildingBlock: ZUJKAS_clean_linker_0, # of connection points: 2
#     Edge 17, Type (0, 0), BuildingBlock: ZUJKAS_clean_linker_0, # of connection points: 2
#     Edge 18, Type (0, 0), BuildingBlock: ZUJKAS_clean_linker_0, # of connection points: 2
#     Edge 19, Type (0, 0), BuildingBlock: ZUJKAS_clean_linker_0, # of connection points: 2
#     Edge 20, Type (0, 0), BuildingBlock: ZUJKAS_clean_linker_0, # of connection points: 2
#     Edge 21, Type (0, 0), BuildingBlock: ZUJKAS_clean_linker_0, # of connection points: 2
#     Edge 22, Type (0, 0), BuildingBlock: ZUJKAS_clean_linker_0, # of connection points: 2
#     Edge 23, Type (0, 0), BuildingBlock: ZUJKAS_clean_linker_0, # of connection points: 2
#     Edge 24, Type (0, 0), BuildingBlock: ZUJKAS_clean_linker_0, # of connection points: 2
#     Edge 25, Type (0, 0), BuildingBlock: ZUJKAS_clean_linker_0, # of connection points: 2
#     Edge 26, Type (0, 0), BuildingBlock: ZUJKAS_clean_linker_0, # of connection points: 2
#     Edge 27, Type (0, 0), BuildingBlock: ZUJKAS_clean_linker_0, # of connection points: 2
#     Edge 28, Type (0, 0), BuildingBlock: ZUJKAS_clean_linker_0, # of connection points: 2
#     Edge 29, Type (0, 0), BuildingBlock: ZUJKAS_clean_linker_0, # of connection points: 2
#     Edge 30, Type (0, 0), BuildingBlock: ZUJKAS_clean_linker_0, # of connection points: 2
#     Edge 31, Type (0, 0), BuildingBlock: ZUJKAS_clean_linker_0, # of connection points: 2
#     Edge 32, Type (0, 0), BuildingBlock: ZUJKAS_clean_linker_0, # of connection points: 2
#     Edge 33, Type (0, 0), BuildingBlock: ZUJKAS_clean_linker_0, # of connection points: 2
#     Edge 34, Type (0, 0), BuildingBlock: ZUJKAS_clean_linker_0, # of connection points: 2
#     Edge 35, Type (0, 0), BuildingBlock: ZUJKAS_clean_linker_0, # of connection points: 2
#     Edge 36, Type (0, 0), BuildingBlock: ZUJKAS_clean_linker_0, # of connection points: 2
#     Edge 37, Type (0, 0), BuildingBlock: ZUJKAS_clean_linker_0, # of connection points: 2
#     Edge 38, Type (0, 0), BuildingBlock: ZUJKAS_clean_linker_0, # of connection points: 2
#     Edge 39, Type (0, 0), BuildingBlock: ZUJKAS_clean_linker_0, # of connection points: 2
#     Edge 40, Type (0, 0), BuildingBlock: ZUJKAS_clean_linker_0, # of connection points: 2
#     Edge 41, Type (0, 0), BuildingBlock: ZUJKAS_clean_linker_0, # of connection points: 2
#     Edge 42, Type (0, 0), BuildingBlock: ZUJKAS_clean_linker_0, # of connection points: 2
#     Edge 43, Type (0, 0), BuildingBlock: ZUJKAS_clean_linker_0, # of connection points: 2
#     Edge 44, Type (0, 0), BuildingBlock: ZUJKAS_clean_linker_0, # of connection points: 2
#     Edge 45, Type (0, 0), BuildingBlock: ZUJKAS_clean_linker_0, # of connection points: 2
#     Edge 46, Type (0, 0), BuildingBlock: ZUJKAS_clean_linker_0, # of connection points: 2
#     Edge 47, Type (0, 0), BuildingBlock: ZUJKAS_clean_linker_0, # of connection points: 2
#     Edge 48, Type (0, 0), BuildingBlock: ZUJKAS_clean_linker_0, # of connection points: 2
#     Edge 49, Type (0, 0), BuildingBlock: ZUJKAS_clean_linker_0, # of connection points: 2
#     Edge 50, Type (0, 0), BuildingBlock: ZUJKAS_clean_linker_0, # of connection points: 2
#     Edge 51, Type (0, 0), BuildingBlock: ZUJKAS_clean_linker_0, # of connection points: 2
#     Edge 52, Type (0, 0), BuildingBlock: ZUJKAS_clean_linker_0, # of connection points: 2
#     Edge 53, Type (0, 0), BuildingBlock: ZUJKAS_clean_linker_0, # of connection points: 2
#     Edge 54, Type (0, 0), BuildingBlock: ZUJKAS_clean_linker_0, # of connection points: 2
#     Edge 55, Type (0, 0), BuildingBlock: ZUJKAS_clean_linker_0, # of connection points: 2
#     Edge 56, Type (0, 0), BuildingBlock: ZUJKAS_clean_linker_0, # of connection points: 2
#     Edge 57, Type (0, 0), BuildingBlock: ZUJKAS_clean_linker_0, # of connection points: 2
#     Edge 58, Type (0, 0), BuildingBlock: ZUJKAS_clean_linker_0, # of connection points: 2
#     Edge 59, Type (0, 0), BuildingBlock: ZUJKAS_clean_linker_0, # of connection points: 2
#     Edge 60, Type (0, 0), BuildingBlock: ZUJKAS_clean_linker_0, # of connection points: 2
#     Edge 61, Type (0, 0), BuildingBlock: ZUJKAS_clean_linker_0, # of connection points: 2
#     Edge 62, Type (0, 0), BuildingBlock: ZUJKAS_clean_linker_0, # of connection points: 2
#     Edge 63, Type (0, 0), BuildingBlock: ZUJKAS_clean_linker_0, # of connection points: 2
# Relax obj value: 0.155
# Max RMSD: 0.240
# Mean RMSD: 0.189
data_MOF--net-bcs--node1-BETGAK_clean_sbu_0--edge1-ZUJKAS_clean_linker_0
_symmetry_space_group_name_H-M    P1
_symmetry_Int_Tables_number       1
_symmetry_cell_setting            triclinic
loop_
_symmetry_equiv_pos_as_xyz
'x, y, z'
_cell_length_a     53.077947
_cell_length_b     55.263007
_cell_length_c     48.041352
_cell_angle_alpha  89.45199
_cell_angle_beta   94.497555
_cell_angle_gamma 115.37343
loop_
_atom_site_label
_atom_site_type_symbol
_atom_site_fract_x
_atom_site_fract_y
_atom_site_fract_z
_atom_type_partial_charge
La0 La 0.05561 0.01166 0.03487 0.0
La1 La 1.01829 0.99901 0.97884 0.0
C2 C 0.08249 0.00953 0.07947 0.0
C3 C 0.1055 1.00155 0.08541 0.0
C4 C 0.13315 0.01885 0.08017 0.0
C5 C 0.15419 0.01 0.08316 0.0
C6 C 0.14791 0.98374 0.09134 0.0
C7 C 0.12054 0.96683 0.09759 0.0
C8 C 0.09957 0.97569 0.09477 0.0
C9 C 0.0737 0.04656 0.9949 0.0
C10 C 0.06021 0.97238 0.9884 0.0
C11 C 0.99949 0.00533 0.93138 0.0
C12 C 0.97384 0.00819 0.92191 0.0
C13 C 0.94723 0.98645 0.92198 0.0
C14 C 0.92306 0.99051 0.91694 0.0
C15 C 0.92522 0.01636 0.91211 0.0
C16 C 0.9517 0.03778 0.91075 0.0
C17 C 0.97578 0.0337 0.91539 0.0
C18 C 0.9907 0.96683 0.01865 0.0
C19 C 1.01093 0.03406 0.02742 0.0
O20 O 0.08836 0.03151 0.06553 0.0
O21 O 0.05834 0.99031 0.07036 0.0
O22 O 0.0775 0.05293 0.02128 0.0
O23 O 0.06152 0.02145 0.99194 0.0
O24 O 0.06768 0.98333 0.01401 0.0
O25 O 0.04256 0.97709 0.97062 0.0
O26 O 0.99626 0.98179 0.94059 0.0
O27 O 1.01786 0.0252 0.94735 0.0
O28 O 0.9804 0.96571 0.99306 0.0
O29 O 1.01498 0.98534 0.01991 0.0
O30 O 1.00874 0.02875 1.00017 0.0
O31 O 1.02509 0.02553 0.04575 0.0
H32 H 0.13847 0.039 0.07312 0.0
H33 H 0.17516 0.02342 0.0783 0.0
H34 H 0.11529 0.94666 0.10456 0.0
H35 H 0.07855 0.96205 0.09928 0.0
H36 H 0.94502 0.9665 0.92685 0.0
H37 H 0.90277 0.97372 0.9179 0.0
H38 H 0.95376 0.05782 0.90652 0.0
H39 H 0.99599 0.05073 0.91495 0.0
La40 La 0.32547 0.71575 0.26847 0.0
La41 La 0.27734 0.72944 0.25505 0.0
C42 C 0.36469 0.7065 0.29096 0.0
C43 C 0.36863 0.69221 0.31542 0.0
C44 C 0.38722 0.68044 0.31485 0.0
C45 C 0.39025 0.66545 0.33722 0.0
C46 C 0.37468 0.66201 0.3605 0.0
C47 C 0.35598 0.67382 0.36101 0.0
C48 C 0.35304 0.68893 0.3386 0.0
C49 C 0.28846 0.68716 0.22813 0.0
C50 C 0.27162 0.69156 0.30314 0.0
C51 C 0.23895 0.7376 0.22929 0.0
C52 C 0.24006 0.76065 0.21328 0.0
C53 C 0.25934 0.78667 0.22189 0.0
C54 C 0.26111 0.80853 0.20614 0.0
C55 C 0.24397 0.80474 0.18124 0.0
C56 C 0.22519 0.77854 0.17231 0.0
C57 C 0.22322 0.75665 0.18828 0.0
C58 C 0.31308 0.75834 0.2958 0.0
C59 C 0.3327 0.75644 0.22167 0.0
O60 O 0.3467 0.69135 0.27112 0.0
O61 O 0.36179 0.72842 0.29579 0.0
O62 O 0.31514 0.69515 0.22722 0.0
O63 O 0.28377 0.69468 0.25079 0.0
O64 O 0.29913 0.7001 0.30379 0.0
O65 O 0.25748 0.69616 0.28158 0.0
O66 O 0.24535 0.74192 0.25626 0.0
O67 O 0.25109 0.72413 0.21841 0.0
O68 O 0.28655 0.75205 0.29452 0.0
O69 O 0.31901 0.75084 0.27366 0.0
O70 O 0.3061 0.75142 0.22339 0.0
O71 O 0.3459 0.74663 0.23947 0.0
H72 H 0.39913 0.68256 0.29693 0.0
H73 H 0.40447 0.65617 0.3361 0.0
H74 H 0.34387 0.67159 0.37879 0.0
H75 H 0.33859 0.69795 0.33935 0.0
H76 H 0.27302 0.79015 0.24086 0.0
H77 H 0.2755 0.82842 0.21385 0.0
H78 H 0.21204 0.77493 0.15297 0.0
H79 H 0.2087 0.73662 0.18105 0.0
La80 La 0.51508 0.9999 0.53553 0.0
La81 La 0.54082 1.00101 0.48282 0.0
C82 C 0.50511 0.00829 0.58353 0.0
C83 C 0.49438 0.02771 0.59103 0.0
C84 C 0.46576 0.01862 0.59457 0.0
C85 C 0.45332 0.03632 0.59226 0.0
C86 C 0.46939 0.06336 0.58657 0.0
C87 C 0.49843 0.07293 0.58587 0.0
C88 C 0.51088 0.05531 0.58822 0.0
C89 C 0.48429 0.96211 0.49877 0.0
C90 C 0.50055 0.03081 0.48649 0.0
C91 C 0.55147 0.99401 0.43465 0.0
C92 C 0.5644 0.9767 0.42663 0.0
C93 C 0.58985 0.988 0.41424 0.0
C94 C 0.60656 0.97423 0.41404 0.0
C95 C 0.59792 0.94901 0.42624 0.0
C96 C 0.57149 0.93691 0.43666 0.0
C97 C 0.55487 0.95063 0.43689 0.0
C98 C 0.57158 0.03849 0.51985 0.0
C99 C 0.55544 0.97003 0.53168 0.0
O100 O 0.48763 0.98823 0.56733 0.0
O101 O 0.5304 0.01852 0.57502 0.0
O102 O 0.47414 0.97387 0.51473 0.0
O103 O 0.51012 0.97058 0.50462 0.0
O104 O 0.50203 0.02829 0.51395 0.0
O105 O 0.51243 0.01994 0.47042 0.0
O106 O 0.56801 0.01441 0.45093 0.0
O107 O 0.5264 0.98179 0.44349 0.0
O108 O 0.58165 0.0264 0.5042 0.0
O109 O 0.54582 0.03033 0.51373 0.0
O110 O 0.55401 0.97269 0.50423 0.0
O111 O 0.54335 0.98068 0.54785 0.0
H112 H 0.45261 0.99749 0.59684 0.0
H113 H 0.43088 0.02852 0.59313 0.0
H114 H 0.51137 0.09389 0.58235 0.0
H115 H 0.53308 0.06311 0.58579 0.0
H116 H 0.5977 0.00821 0.40655 0.0
H117 H 0.62686 0.98391 0.40579 0.0
H118 H 0.56408 0.9172 0.44554 0.0
H119 H 0.5354 0.94141 0.44675 0.0
La120 La 0.29798 0.23695 0.75782 0.0
La121 La 0.26738 0.27163 0.75466 0.0
C122 C 0.3205 0.20803 0.74337 0.0
C123 C 0.33578 0.20903 0.71874 0.0
C124 C 0.36349 0.22832 0.71705 0.0
C125 C 0.37711 0.22988 0.69295 0.0
C126 C 0.36323 0.21228 0.67013 0.0
C127 C 0.33549 0.19322 0.67173 0.0
C128 C 0.32195 0.19152 0.69584 0.0
C129 C 0.31438 0.27471 0.79648 0.0
C130 C 0.31609 0.28744 0.71717 0.0
C131 C 0.24227 0.29861 0.76766 0.0
C132 C 0.22195 0.29322 0.78877 0.0
C133 C 0.19328 0.27709 0.78206 0.0
C134 C 0.17443 0.27059 0.80263 0.0
C135 C 0.18394 0.28008 0.83022 0.0
C136 C 0.2126 0.29594 0.83694 0.0
C137 C 0.23138 0.30254 0.81643 0.0
C138 C 0.25107 0.23346 0.71626 0.0
C139 C 0.24942 0.22152 0.7959 0.0
O140 O 0.33257 0.22782 0.76177 0.0
O141 O 0.29382 0.20175 0.73803 0.0
O142 O 0.31437 0.25145 0.80058 0.0
O143 O 0.30741 0.27655 0.77124 0.0
O144 O 0.31528 0.2635 0.72258 0.0
O145 O 0.30092 0.29672 0.73021 0.0
O146 O 0.23402 0.28205 0.74601 0.0
O147 O 0.26791 0.30395 0.77743 0.0
O148 O 0.25163 0.25687 0.71179 0.0
O149 O 0.25787 0.232 0.74159 0.0
O150 O 0.2493 0.24491 0.78954 0.0
O151 O 0.26541 0.21261 0.78377 0.0
H152 H 0.37468 0.24223 0.73428 0.0
H153 H 0.39857 0.24465 0.69223 0.0
H154 H 0.32453 0.17898 0.65468 0.0
H155 H 0.30061 0.17647 0.69655 0.0
H156 H 0.18538 0.26949 0.76092 0.0
H157 H 0.15237 0.25859 0.7969 0.0
H158 H 0.22043 0.30427 0.85786 0.0
H159 H 0.25331 0.31502 0.82229 0.0
La160 La 0.05203 0.98933 0.513 0.0
La161 La 1.00865 0.01178 0.49665 0.0
C162 C 0.09362 0.9833 0.53489 0.0
C163 C 0.0999 0.96489 0.55402 0.0
C164 C 0.0945 0.93869 0.5456 0.0
C165 C 0.10221 0.92239 0.56357 0.0
C166 C 0.11552 0.93186 0.5904 0.0
C167 C 0.12052 0.95795 0.59886 0.0
C168 C 0.1129 0.97424 0.58089 0.0
C169 C 1.00651 0.95593 0.48435 0.0
C170 C 0.99641 0.97034 0.54468 0.0
C171 C 0.97461 0.02767 0.47219 0.0
C172 C 0.97138 0.04495 0.44959 0.0
C173 C 0.98232 0.0729 0.45365 0.0
C174 C 0.97528 0.08855 0.43428 0.0
C175 C 0.95705 0.0767 0.41038 0.0
C176 C 0.94708 0.0489 0.40573 0.0
C177 C 0.95405 0.03322 0.42517 0.0
C178 C 0.04448 0.03415 0.5398 0.0
C179 C 0.06423 0.03096 0.46362 0.0
O180 O 0.08203 0.97432 0.50961 0.0
O181 O 0.08312 0.99821 0.54603 0.0
O182 O 1.02219 0.94842 0.50085 0.0
O183 O 1.01839 0.98095 0.48167 0.0
O184 O 1.02351 0.97587 0.54668 0.0
O185 O 0.98494 0.97938 0.52396 0.0
O186 O 0.99131 0.03949 0.49431 0.0
O187 O 0.97629 0.00561 0.46514 0.0
O188 O 1.01875 0.03092 0.53851 0.0
O189 O 0.04916 0.02602 0.51745 0.0
O190 O 0.04102 0.03346 0.46808 0.0
O191 O 0.07218 0.01444 0.47815 0.0
H192 H 0.08457 0.93082 0.52504 0.0
H193 H 0.0977 0.90232 0.55643 0.0
H194 H 0.13107 0.96613 0.61913 0.0
H195 H 0.11763 0.99442 0.5879 0.0
H196 H 0.99559 0.08267 0.47228 0.0
H197 H 0.9837 0.10994 0.43833 0.0
H198 H 0.93281 0.03904 0.3877 0.0
H199 H 0.94495 0.01171 0.42161 0.0
La200 La 0.22702 0.73718 0.8101 0.0
La201 La 0.25618 0.73924 0.75892 0.0
C202 C 0.207 0.74724 0.8522 0.0
C203 C 0.19598 0.76615 0.86092 0.0
C204 C 0.17414 0.75724 0.87859 0.0
C205 C 0.16374 0.77476 0.88805 0.0
C206 C 0.17499 0.80167 0.88006 0.0
C207 C 0.19677 0.81053 0.86207 0.0
C208 C 0.20712 0.79291 0.85252 0.0
C209 C 0.20073 0.69739 0.77302 0.0
C210 C 0.2203 0.77088 0.75796 0.0
C211 C 0.27126 0.72634 0.71541 0.0
C212 C 0.29383 0.71977 0.70834 0.0
C213 C 0.31767 0.72615 0.72689 0.0
C214 C 0.33908 0.71972 0.71971 0.0
C215 C 0.33676 0.7067 0.69398 0.0
C216 C 0.31262 0.70017 0.67567 0.0
C217 C 0.29135 0.70673 0.68281 0.0
C218 C 0.28396 0.78037 0.79373 0.0
C219 C 0.26652 0.70779 0.81241 0.0
O220 O 0.19199 0.72967 0.83253 0.0
O221 O 0.23376 0.75711 0.84885 0.0
O222 O 0.20051 0.69423 0.7998 0.0
O223 O 0.21417 0.72174 0.76844 0.0
O224 O 0.22137 0.76906 0.78559 0.0
O225 O 0.22847 0.75636 0.74259 0.0
O226 O 0.27882 0.75116 0.72365 0.0
O227 O 0.25305 0.70903 0.73096 0.0
O228 O 0.28528 0.78096 0.76691 0.0
O229 O 0.26974 0.75644 0.80032 0.0
O230 O 0.2696 0.71336 0.78556 0.0
O231 O 0.25183 0.71655 0.82718 0.0
H232 H 0.16528 0.7367 0.88535 0.0
H233 H 0.14723 0.76731 0.90213 0.0
H234 H 0.20568 0.83102 0.85523 0.0
H235 H 0.2239 0.80022 0.83873 0.0
H236 H 0.3197 0.73612 0.74682 0.0
H237 H 0.35747 0.72509 0.73416 0.0
H238 H 0.30992 0.68957 0.65601 0.0
H239 H 0.27287 0.70149 0.66847 0.0
La240 La 0.54797 0.98417 0.99924 0.0
La241 La 0.51488 0.01647 0.01943 0.0
C242 C 0.57061 0.95933 0.97287 0.0
C243 C 0.58501 0.94472 0.95811 0.0
C244 C 0.60865 0.94234 0.97113 0.0
C245 C 0.62256 0.92932 0.95766 0.0
C246 C 0.61363 0.91783 0.93032 0.0
C247 C 0.58985 0.92025 0.91732 0.0
C248 C 0.57593 0.93334 0.93085 0.0
C249 C 0.57004 0.01599 0.04424 0.0
C250 C 0.55701 0.04142 0.97372 0.0
C251 C 0.49166 0.04112 0.04512 0.0
C252 C 0.4769 0.05538 0.05979 0.0
C253 C 0.44923 0.05107 0.05092 0.0
C254 C 0.4354 0.06439 0.06403 0.0
C255 C 0.44844 0.08274 0.08684 0.0
C256 C 0.47618 0.08693 0.09577 0.0
C257 C 0.49006 0.07365 0.08255 0.0
C258 C 0.4937 0.98542 0.9739 0.0
C259 C 0.50585 0.95972 0.04472 0.0
O260 O 0.57893 0.96957 0.99821 0.0
O261 O 0.54888 0.96287 0.96229 0.0
O262 O 0.57297 0.99434 0.03946 0.0
O263 O 0.55697 0.0202 0.0232 0.0
O264 O 0.55924 0.01842 0.97142 0.0
O265 O 0.5433 0.04631 0.99326 0.0
O266 O 0.47897 0.02297 0.02521 0.0
O267 O 0.5178 0.04517 0.0509 0.0
O268 O 0.49123 0.00737 0.97853 0.0
O269 O 0.50601 0.98063 0.9952 0.0
O270 O 0.50655 0.98379 0.04883 0.0
O271 O 0.51712 0.95403 0.02342 0.0
H272 H 0.61672 0.9508 0.99195 0.0
H273 H 0.64081 0.92876 0.96879 0.0
H274 H 0.58154 0.9117 0.8966 0.0
H275 H 0.55792 0.93453 0.91982 0.0
H276 H 0.43804 0.03727 0.03361 0.0
H277 H 0.4141 0.05984 0.05633 0.0
H278 H 0.48759 0.10092 0.11285 0.0
H279 H 0.5113 0.07782 0.0902 0.0
La280 La 0.29985 0.25244 0.28266 0.0
La281 La 0.26359 0.25267 0.23005 0.0
C282 C 0.31913 0.23442 0.32388 0.0
C283 C 0.33511 0.21824 0.33201 0.0
C284 C 0.36409 0.23066 0.33968 0.0
C285 C 0.37826 0.21578 0.35085 0.0
C286 C 0.3639 0.18797 0.35499 0.0
C287 C 0.33497 0.17555 0.34681 0.0
C288 C 0.32085 0.1904 0.33561 0.0
C289 C 0.32375 0.29242 0.24853 0.0
C290 C 0.30189 0.22123 0.22557 0.0
C291 C 0.24383 0.27031 0.1889 0.0
C292 C 0.22671 0.28535 0.18075 0.0
C293 C 0.20354 0.27391 0.16094 0.0
C294 C 0.18939 0.28881 0.14992 0.0
C295 C 0.19803 0.31581 0.15822 0.0
C296 C 0.22083 0.32703 0.17865 0.0
C297 C 0.23495 0.31208 0.18971 0.0
C298 C 0.23991 0.21264 0.26413 0.0
C299 C 0.26153 0.28372 0.28736 0.0
O300 O 0.33238 0.25853 0.3142 0.0
O301 O 0.29408 0.22174 0.3111 0.0
O302 O 0.32936 0.2942 0.27554 0.0
O303 O 0.30716 0.26852 0.24197 0.0
O304 O 0.30754 0.22556 0.25318 0.0
O305 O 0.28629 0.23163 0.21136 0.0
O306 O 0.23127 0.24588 0.19799 0.0
O307 O 0.26845 0.28365 0.20228 0.0
O308 O 0.23426 0.21081 0.23714 0.0
O309 O 0.25631 0.23659 0.27062 0.0
O310 O 0.25585 0.2795 0.25972 0.0
O311 O 0.27716 0.27332 0.30144 0.0
H312 H 0.3758 0.25207 0.33766 0.0
H313 H 0.40054 0.22622 0.35639 0.0
H314 H 0.32283 0.15439 0.34995 0.0
H315 H 0.29846 0.18008 0.33056 0.0
H316 H 0.19686 0.25355 0.15323 0.0
H317 H 0.17225 0.27935 0.13408 0.0
H318 H 0.22797 0.34753 0.18606 0.0
H319 H 0.25275 0.32172 0.20484 0.0
La320 La 0.55369 0.49249 0.01536 0.0
La321 La 0.51409 0.52081 1.00493 0.0
C322 C 0.5849 0.4717 0.03548 0.0
C323 C 0.60308 0.45897 0.04708 0.0
C324 C 0.59821 0.43312 0.03803 0.0
C325 C 0.6147 0.42067 0.04941 0.0
C326 C 0.63636 0.43348 0.0706 0.0
C327 C 0.64119 0.4595 0.07956 0.0
C328 C 0.62491 0.4721 0.06785 0.0
C329 C 0.51823 0.47655 0.97065 0.0
C330 C 0.49809 0.47541 0.04868 0.0
C331 C 0.48211 0.54022 0.9833 0.0
C332 C 0.46322 0.55183 0.9706 0.0
C333 C 0.46239 0.57446 0.98288 0.0
C334 C 0.44543 0.58603 0.97044 0.0
C335 C 0.42902 0.57553 0.94514 0.0
C336 C 0.42987 0.55282 0.9329 0.0
C337 C 0.4466 0.54105 0.94553 0.0
C338 C 0.54887 0.53623 0.04994 0.0
C339 C 0.57035 0.53855 0.97209 0.0
O340 O 0.55967 0.45769 0.02367 0.0
O341 O 0.59284 0.49768 0.03542 0.0
O342 O 0.54209 0.47521 0.97305 0.0
O343 O 0.51385 0.48354 0.99389 0.0
O344 O 0.52403 0.47749 0.04824 0.0
O345 O 0.48811 0.48844 0.03095 0.0
O346 O 0.50321 0.5534 1.0016 0.0
O347 O 0.47872 0.51579 0.97769 0.0
O348 O 0.52518 0.53797 0.04756 0.0
O349 O 0.5536 0.52941 0.02675 0.0
O350 O 0.54525 0.53817 0.9738 0.0
O351 O 0.57948 0.52396 0.98843 0.0
H352 H 0.58165 0.42249 0.02196 0.0
H353 H 0.61048 0.401 0.04127 0.0
H354 H 0.65719 0.47007 0.09609 0.0
H355 H 0.62905 0.49195 0.07548 0.0
H356 H 0.47498 0.58335 1.00212 0.0
H357 H 0.44565 0.60362 0.98041 0.0
H358 H 0.4174 0.54395 0.91359 0.0
H359 H 0.44682 0.52371 0.93542 0.0
La360 La 0.81336 0.26931 0.24874 0.0
La361 La 0.83881 0.26902 0.1958 0.0
C362 C 0.80076 0.28397 0.2928 0.0
C363 C 0.77782 0.28962 0.30061 0.0
C364 C 0.75377 0.28298 0.28232 0.0
C365 C 0.73178 0.28813 0.29025 0.0
C366 C 0.73369 0.30007 0.31652 0.0
C367 C 0.75806 0.30692 0.33457 0.0
C368 C 0.77995 0.30167 0.32665 0.0
C369 C 0.78335 0.2267 0.21641 0.0
C370 C 0.79956 0.29832 0.19491 0.0
C371 C 0.85729 0.2573 0.15356 0.0
C372 C 0.86856 0.23818 0.14584 0.0
C373 C 0.8955 0.24817 0.13656 0.0
C374 C 0.90638 0.23075 0.12796 0.0
C375 C 0.89047 0.20281 0.12816 0.0
C376 C 0.8636 0.19279 0.13796 0.0
C377 C 0.85277 0.21027 0.14675 0.0
C378 C 0.86671 0.31078 0.23016 0.0
C379 C 0.84894 0.23769 0.24834 0.0
O380 O 0.79397 0.25893 0.28608 0.0
O381 O 0.8171 0.30067 0.27542 0.0
O382 O 0.78361 0.22741 0.24335 0.0
O383 O 0.79708 0.2502 0.20834 0.0
O384 O 0.79888 0.29451 0.22225 0.0
O385 O 0.8124 0.28814 0.17928 0.0
O386 O 0.87276 0.27611 0.17196 0.0
O387 O 0.83071 0.24759 0.15774 0.0
O388 O 0.86453 0.31251 0.20323 0.0
O389 O 0.85445 0.28667 0.23637 0.0
O390 O 0.84551 0.23797 0.2207 0.0
O391 O 0.84243 0.25334 0.26391 0.0
H392 H 0.75199 0.27371 0.26203 0.0
H393 H 0.71321 0.28253 0.27599 0.0
H394 H 0.76037 0.31667 0.35468 0.0
H395 H 0.79856 0.30705 0.34084 0.0
H396 H 0.90813 0.26958 0.13575 0.0
H397 H 0.92735 0.23926 0.12116 0.0
H398 H 0.85063 0.17142 0.13821 0.0
H399 H 0.83193 0.20191 0.15388 0.0
La400 La 0.04472 0.48248 0.49334 0.0
La401 La 1.01417 0.51938 0.51057 0.0
C402 C 0.059 0.44908 0.46986 0.0
C403 C 0.07936 0.44086 0.45599 0.0
C404 C 0.09841 0.43322 0.47154 0.0
C405 C 0.11424 0.42192 0.45846 0.0
C406 C 0.11163 0.41728 0.4291 0.0
C407 C 0.09268 0.42527 0.41366 0.0
C408 C 0.07702 0.43669 0.42673 0.0
C409 C 0.06731 0.51547 0.53744 0.0
C410 C 0.0676 0.54317 0.47719 0.0
C411 C 0.99096 0.54423 0.53585 0.0
C412 C 0.97646 0.55877 0.55056 0.0
C413 C 0.94848 0.554 0.54254 0.0
C414 C 0.93471 0.56705 0.55624 0.0
C415 C 0.9481 0.58557 0.57888 0.0
C416 C 0.97618 0.59026 0.58691 0.0
C417 C 0.98999 0.57725 0.57309 0.0
C418 C 1.00239 0.49769 0.45916 0.0
C419 C 0.99044 0.45764 0.52701 0.0
O420 O 0.06127 0.45351 0.49701 0.0
O421 O 0.04821 0.46371 0.45637 0.0
O422 O 0.08124 0.50744 0.52169 0.0
O423 O 0.04169 0.50347 0.52957 0.0
O424 O 0.06294 0.51851 0.46939 0.0
O425 O 0.05368 0.54852 0.49627 0.0
O426 O 0.97806 0.52571 0.51623 0.0
O427 O 1.01743 0.54904 0.54091 0.0
O428 O 1.00144 0.52009 0.46565 0.0
O429 O 1.00794 0.488 0.48122 0.0
O430 O 0.99052 0.48152 0.53006 0.0
O431 O 1.00875 0.4531 0.51311 0.0
H432 H 0.10076 0.43546 0.49408 0.0
H433 H 0.12855 0.41676 0.4717 0.0
H434 H 0.08904 0.42198 0.39126 0.0
H435 H 0.06224 0.44148 0.41376 0.0
H436 H 0.93696 0.53994 0.52552 0.0
H437 H 0.91316 0.56211 0.54921 0.0
H438 H 0.98788 0.60438 0.60379 0.0
H439 H 1.01142 0.58169 0.58021 0.0
La440 La 0.80692 0.73396 0.25926 0.0
La441 La 0.76894 0.76088 0.25018 0.0
C442 C 0.83857 0.71248 0.25123 0.0
C443 C 0.85352 0.71396 0.2264 0.0
C444 C 0.88246 0.72188 0.22908 0.0
C445 C 0.89694 0.72466 0.20533 0.0
C446 C 0.88258 0.71926 0.17856 0.0
C447 C 0.85373 0.7123 0.17604 0.0
C448 C 0.8394 0.70988 0.19967 0.0
C449 C 0.80832 0.76402 0.30188 0.0
C450 C 0.82216 0.78245 0.21681 0.0
C451 C 0.74724 0.79296 0.25355 0.0
C452 C 0.73449 0.79741 0.27763 0.0
C453 C 0.71708 0.81053 0.27499 0.0
C454 C 0.70529 0.81461 0.29846 0.0
C455 C 0.71073 0.80542 0.32471 0.0
C456 C 0.7277 0.79173 0.32697 0.0
C457 C 0.73958 0.78788 0.30365 0.0
C458 C 0.75422 0.71713 0.22001 0.0
C459 C 0.75143 0.71127 0.28839 0.0
O460 O 0.84702 0.73522 0.26518 0.0
O461 O 0.81117 0.69956 0.24781 0.0
O462 O 0.81191 0.74232 0.3041 0.0
O463 O 0.80611 0.76899 0.27641 0.0
O464 O 0.83035 0.76622 0.23135 0.0
O465 O 0.79732 0.78206 0.21887 0.0
O466 O 0.73405 0.7692 0.24166 0.0
O467 O 0.7741 0.80004 0.25775 0.0
O468 O 0.73668 0.72546 0.22838 0.0
O469 O 0.77881 0.73446 0.22576 0.0
O470 O 0.75176 0.73521 0.28522 0.0
O471 O 0.76908 0.70457 0.27609 0.0
H472 H 0.89383 0.7259 0.24952 0.0
H473 H 0.91924 0.73042 0.20795 0.0
H474 H 0.84182 0.7075 0.15588 0.0
H475 H 0.81717 0.70451 0.19692 0.0
H476 H 0.71293 0.81789 0.25498 0.0
H477 H 0.69263 0.82564 0.29621 0.0
H478 H 0.73204 0.78424 0.34682 0.0
H479 H 0.75308 0.77777 0.30608 0.0
La480 La 0.78532 0.26478 0.76538 0.0
La481 La 0.74191 0.28396 0.74873 0.0
C482 C 0.82019 0.25267 0.79302 0.0
C483 C 0.81651 0.22959 0.81008 0.0
C484 C 0.78991 0.20822 0.81072 0.0
C485 C 0.78657 0.18521 0.82516 0.0
C486 C 0.80988 0.18313 0.8389 0.0
C487 C 0.83638 0.20504 0.83898 0.0
C488 C 0.83964 0.22816 0.82468 0.0
C489 C 0.7495 0.23755 0.72387 0.0
C490 C 0.72834 0.24347 0.79611 0.0
C491 C 0.70749 0.2977 0.72272 0.0
C492 C 0.70906 0.31596 0.69991 0.0
C493 C 0.69886 0.33516 0.70336 0.0
C494 C 0.7004 0.35309 0.68232 0.0
C495 C 0.71209 0.35203 0.65736 0.0
C496 C 0.7226 0.33296 0.65398 0.0
C497 C 0.72126 0.31511 0.6752 0.0
C498 C 0.77905 0.31097 0.78966 0.0
C499 C 0.79781 0.30341 0.71699 0.0
O500 O 0.81319 0.24708 0.76633 0.0
O501 O 0.81029 0.26865 0.80265 0.0
O502 O 0.77541 0.24148 0.7263 0.0
O503 O 0.74389 0.24648 0.74528 0.0
O504 O 0.75474 0.24715 0.7967 0.0
O505 O 0.71727 0.25351 0.77633 0.0
O506 O 0.72165 0.30924 0.74616 0.0
O507 O 0.7102 0.27595 0.71652 0.0
O508 O 0.75283 0.3058 0.78936 0.0
O509 O 0.78334 0.30194 0.76772 0.0
O510 O 0.77099 0.29855 0.71539 0.0
O511 O 0.80946 0.29631 0.73883 0.0
H512 H 0.77184 0.20899 0.79936 0.0
H513 H 0.76589 0.16879 0.82497 0.0
H514 H 0.85483 0.2039 0.84901 0.0
H515 H 0.8603 0.24454 0.82427 0.0
H516 H 0.68951 0.33617 0.72233 0.0
H517 H 0.69161 0.36725 0.68523 0.0
H518 H 0.73167 0.33178 0.63489 0.0
H519 H 0.72958 0.30062 0.67219 0.0
La520 La 0.80014 0.75201 0.78173 0.0
La521 La 0.76281 0.75146 0.72943 0.0
C522 C 0.8207 0.7353 0.8231 0.0
C523 C 0.83581 0.71837 0.83136 0.0
C524 C 0.86524 0.72938 0.835 0.0
C525 C 0.87905 0.71423 0.84633 0.0
C526 C 0.86389 0.68764 0.85469 0.0
C527 C 0.83447 0.67652 0.85044 0.0
C528 C 0.8207 0.69161 0.83908 0.0
C529 C 0.82284 0.79179 0.74718 0.0
C530 C 0.80165 0.72058 0.72449 0.0
C531 C 0.74296 0.76923 0.68848 0.0
C532 C 0.7249 0.78326 0.68019 0.0
C533 C 0.70524 0.77356 0.65691 0.0
C534 C 0.69062 0.78809 0.64611 0.0
C535 C 0.69523 0.81299 0.65814 0.0
C536 C 0.71438 0.82231 0.68205 0.0
C537 C 0.72903 0.80772 0.69286 0.0
C538 C 0.74022 0.71131 0.76379 0.0
C539 C 0.76103 0.78266 0.78669 0.0
O540 O 0.83418 0.75842 0.81149 0.0
O541 O 0.79486 0.72301 0.81215 0.0
O542 O 0.82874 0.79392 0.77415 0.0
O543 O 0.8065 0.76775 0.74088 0.0
O544 O 0.8075 0.72489 0.75212 0.0
O545 O 0.78576 0.7308 0.71052 0.0
O546 O 0.73115 0.74436 0.69656 0.0
O547 O 0.7669 0.7831 0.70287 0.0
O548 O 0.73297 0.70999 0.73711 0.0
O549 O 0.75654 0.73533 0.7701 0.0
O550 O 0.75457 0.7777 0.75923 0.0
O551 O 0.77762 0.77315 0.8006 0.0
H552 H 0.87767 0.75001 0.82982 0.0
H553 H 0.90167 0.72376 0.84943 0.0
H554 H 0.82189 0.65606 0.85607 0.0
H555 H 0.79804 0.68243 0.837 0.0
H556 H 0.70168 0.75492 0.64651 0.0
H557 H 0.67576 0.77978 0.6281 0.0
H558 H 0.71886 0.8414 0.69194 0.0
H559 H 0.74418 0.81601 0.71068 0.0
La560 La 0.5249 0.48582 0.47795 0.0
La561 La 0.54413 0.51813 0.53065 0.0
C562 C 0.5223 0.46479 0.43096 0.0
C563 C 0.53575 0.44886 0.42041 0.0
C564 C 0.52025 0.42694 0.40221 0.0
C565 C 0.53207 0.41023 0.39389 0.0
C566 C 0.55946 0.41517 0.40391 0.0
C567 C 0.57506 0.43739 0.42183 0.0
C568 C 0.56333 0.45415 0.42995 0.0
C569 C 0.49441 0.46301 0.51973 0.0
C570 C 0.57428 0.48319 0.51855 0.0
C571 C 0.55021 0.54292 0.57621 0.0
C572 C 0.53394 0.55456 0.58943 0.0
C573 C 0.54789 0.57756 0.60658 0.0
C574 C 0.53317 0.59094 0.61649 0.0
C575 C 0.50436 0.58159 0.60908 0.0
C576 C 0.49031 0.55812 0.59247 0.0
C577 C 0.505 0.54461 0.58282 0.0
C578 C 0.57408 0.53939 0.48814 0.0
C579 C 0.49304 0.51834 0.4918 0.0
O580 O 0.50472 0.45316 0.44975 0.0
O581 O 0.53872 0.48985 0.43773 0.0
O582 O 0.48488 0.46061 0.49377 0.0
O583 O 0.5207 0.47627 0.52147 0.0
O584 O 0.56121 0.47888 0.49323 0.0
O585 O 0.5684 0.49572 0.53843 0.0
O586 O 0.56074 0.55453 0.55336 0.0
O587 O 0.53903 0.51678 0.57359 0.0
O588 O 0.58444 0.54062 0.51363 0.0
O589 O 0.54781 0.52741 0.48729 0.0
O590 O 0.50472 0.52045 0.51754 0.0
O591 O 0.50134 0.50901 0.47099 0.0
H592 H 0.49885 0.42248 0.39485 0.0
H593 H 0.51961 0.39314 0.38015 0.0
H594 H 0.59638 0.44187 0.42949 0.0
H595 H 0.57575 0.47103 0.44394 0.0
H596 H 0.5703 0.58559 0.61162 0.0
H597 H 0.54446 0.60911 0.62911 0.0
H598 H 0.46803 0.55036 0.58678 0.0
H599 H 0.49388 0.52678 0.56971 0.0
La600 La 1.01583 0.49721 0.03187 0.0
La601 La 0.05042 0.51109 0.98337 0.0
C602 C 0.99022 0.50104 0.07188 0.0
C603 C 0.97659 0.51901 0.07397 0.0
C604 C 0.94864 0.50884 0.08045 0.0
C605 C 0.93394 0.5246 0.07683 0.0
C606 C 0.947 0.55051 0.06636 0.0
C607 C 0.97525 0.56092 0.06094 0.0
C608 C 0.98991 0.54537 0.06474 0.0
C609 C 0.99883 0.45985 0.99247 0.0
C610 C 1.00654 0.5342 0.98254 0.0
C611 C 0.07536 0.50727 0.94284 0.0
C612 C 0.08397 0.486 0.93765 0.0
C613 C 0.11084 0.49233 0.92963 0.0
C614 C 0.12075 0.47264 0.92965 0.0
C615 C 0.10391 0.44655 0.93795 0.0
C616 C 0.07673 0.44016 0.94512 0.0
C617 C 0.06686 0.4597 0.94502 0.0
C618 C 0.06758 0.54832 0.02311 0.0
C619 C 0.05921 0.4736 0.03209 0.0
O620 O 0.97871 0.48254 0.05213 0.0
O621 O 1.01756 0.51275 0.07198 0.0
O622 O 0.99705 0.45504 0.01891 0.0
O623 O 1.00832 0.48473 0.98911 0.0
O624 O 1.00245 0.52534 0.00842 0.0
O625 O 1.02348 0.52924 0.96726 0.0
O626 O 0.08831 0.52229 0.96506 0.0
O627 O 0.04828 0.49977 0.94146 0.0
O628 O 0.06964 0.55324 0.99673 0.0
O629 O 0.05795 0.52341 0.02611 0.0
O630 O 0.06157 0.48093 1.00558 0.0
O631 O 0.04402 0.48037 0.04815 0.0
H632 H 0.93793 0.48841 0.08718 0.0
H633 H 0.91218 0.51628 0.08134 0.0
H634 H 0.98599 0.58108 0.05349 0.0
H635 H 1.01138 0.55371 0.05928 0.0
H636 H 0.12446 0.51265 0.92438 0.0
H637 H 0.14181 0.47797 0.924 0.0
H638 H 0.06314 0.42007 0.95105 0.0
H639 H 0.04615 0.45436 0.95173 0.0
H640 H 0.22159 0.23567 0.83383 0.0
H641 H 0.19049 0.20682 0.8676 0.0
H642 H 0.20146 0.13935 0.83628 0.0
H643 H 0.23326 0.16812 0.80342 0.0
H644 H 0.1416 0.16345 0.8619 0.0
H645 H 0.21949 0.13462 0.91767 0.0
H646 H 0.22915 0.16103 0.89272 0.0
H647 H 0.21516 0.1265 0.88106 0.0
C648 C 0.21755 0.21473 0.83432 0.0
C649 C 0.2303 0.20431 0.81625 0.0
C650 C 0.1997 0.19823 0.85359 0.0
C651 C 0.19413 0.17099 0.85503 0.0
C652 C 0.20615 0.16044 0.83633 0.0
H653 H 0.07857 0.03423 0.94117 0.0
H654 H 0.10623 0.06509 0.90639 0.0
C655 C 0.22426 0.17695 0.81741 0.0
C656 C 0.1755 0.15343 0.87573 0.0
H657 H 0.1718 0.10882 0.92691 0.0
C658 C 0.14831 0.15168 0.87624 0.0
C659 C 0.18425 0.13813 0.89466 0.0
C660 C 0.2137 0.14036 0.89674 0.0
C661 C 0.12953 0.13462 0.89464 0.0
C662 C 0.13808 0.11884 0.91281 0.0
C663 C 0.16526 0.12075 0.91262 0.0
C664 C 0.11936 0.10059 0.93276 0.0
C665 C 0.10057 0.13329 0.89455 0.0
C666 C 0.11745 0.11045 0.95891 0.0
C667 C 0.10186 0.0929 0.97882 0.0
C668 C 0.08787 0.06521 0.97286 0.0
C669 C 0.0891 0.05548 0.94631 0.0
C670 C 0.10487 0.07304 0.92646 0.0
H671 H 0.09657 0.14584 0.87818 0.0
H672 H 0.0847 0.11223 0.89111 0.0
H673 H 0.09784 0.14022 0.91524 0.0
H674 H 0.12861 0.13164 0.96415 0.0
H675 H 0.10124 0.10094 0.9991 0.0
H676 H 0.20143 0.00867 0.11556 0.0
H677 H 0.23513 0.98928 0.12332 0.0
H678 H 0.17613 0.91646 0.08018 0.0
H679 H 0.14308 0.93599 0.07153 0.0
H680 H 0.22456 0.94682 0.15461 0.0
H681 H 0.24724 0.92253 0.05146 0.0
H682 H 0.23263 0.94625 0.05596 0.0
H683 H 0.2102 0.91082 0.05227 0.0
C684 C 0.1961 0.98884 0.10703 0.0
C685 C 0.1696 0.97366 0.09323 0.0
C686 C 0.21532 0.97782 0.11145 0.0
C687 C 0.20834 0.95162 0.10191 0.0
C688 C 0.18234 0.93698 0.08703 0.0
H689 H 0.19954 0.81127 0.15607 0.0
H690 H 0.19972 0.85146 0.13462 0.0
C691 C 0.16323 0.94796 0.08257 0.0
C692 C 0.22563 0.93765 0.1113 0.0
H693 H 0.24511 0.89038 0.08862 0.0
C694 C 0.23014 0.9353 0.14018 0.0
C695 C 0.23304 0.92272 0.09248 0.0
C696 C 0.23077 0.92599 0.06132 0.0
C697 C 0.23895 0.91623 0.15065 0.0
C698 C 0.24327 0.89929 0.13173 0.0
C699 C 0.24147 0.90336 0.10298 0.0
C700 C 0.24452 0.87453 0.14135 0.0
C701 C 0.24114 0.91258 0.18178 0.0
C702 C 0.26983 0.87431 0.15157 0.0
C703 C 0.26988 0.85121 0.16357 0.0
C704 C 0.24457 0.82821 0.16566 0.0
C705 C 0.21942 0.82842 0.15443 0.0
C706 C 0.21944 0.85139 0.1423 0.0
H707 H 0.23965 0.92894 0.19376 0.0
H708 H 0.22404 0.89322 0.18712 0.0
H709 H 0.2613 0.91182 0.18841 0.0
H710 H 0.28932 0.89216 0.15096 0.0
H711 H 0.28965 0.85152 0.17166 0.0
H712 H 0.49483 0.92081 0.48249 0.0
H713 H 0.46733 0.88556 0.44761 0.0
H714 H 0.41139 0.92314 0.43049 0.0
H715 H 0.43765 0.9571 0.4671 0.0
H716 H 0.38223 0.874 0.43233 0.0
H717 H 0.467 0.88545 0.36625 0.0
H718 H 0.47506 0.87782 0.40117 0.0
H719 H 0.47213 0.90874 0.39448 0.0
C720 C 0.47662 0.92142 0.4712 0.0
C721 C 0.46815 0.94144 0.47734 0.0
C722 C 0.46113 0.9015 0.45102 0.0
C723 C 0.43764 0.90197 0.4358 0.0
C724 C 0.42943 0.92229 0.44187 0.0
H725 H 0.3575 0.80458 0.28536 0.0
H726 H 0.38809 0.83931 0.31968 0.0
C727 C 0.44437 0.94167 0.46273 0.0
C728 C 0.42068 0.88058 0.41465 0.0
H729 H 0.42473 0.845 0.35885 0.0
C730 C 0.39156 0.86792 0.41606 0.0
C731 C 0.43268 0.8728 0.39311 0.0
C732 C 0.46338 0.88716 0.38847 0.0
C733 C 0.37413 0.8478 0.39669 0.0
C734 C 0.38628 0.83878 0.37629 0.0
C735 C 0.4154 0.85151 0.37476 0.0
C736 C 0.36905 0.81694 0.3557 0.0
C737 C 0.34286 0.83728 0.39785 0.0
C738 C 0.34876 0.79247 0.36444 0.0
C739 C 0.33064 0.77319 0.34482 0.0
C740 C 0.33352 0.77753 0.31626 0.0
C741 C 0.35503 0.801 0.30742 0.0
C742 C 0.37247 0.82075 0.327 0.0
H743 H 0.33728 0.85221 0.40778 0.0
H744 H 0.33172 0.83207 0.37668 0.0
H745 H 0.33521 0.81911 0.41068 0.0
H746 H 0.3465 0.78848 0.38643 0.0
H747 H 0.31435 0.75491 0.35191 0.0
H748 H 0.4142 0.21212 0.67187 0.0
H749 H 0.43343 0.19803 0.63455 0.0
H750 H 0.36576 0.19528 0.57657 0.0
H751 H 0.34591 0.20889 0.61452 0.0
H752 H 0.36566 0.14898 0.57837 0.0
H753 H 0.47445 0.21865 0.56685 0.0
H754 H 0.47102 0.21499 0.60355 0.0
H755 H 0.45099 0.22923 0.5829 0.0
C756 C 0.40409 0.20972 0.65093 0.0
C757 C 0.37845 0.21128 0.64609 0.0
C758 C 0.41525 0.20186 0.62942 0.0
C759 C 0.40124 0.19586 0.60256 0.0
C760 C 0.377 0.19993 0.59708 0.0
H761 H 0.47875 0.09808 0.54373 0.0
H762 H 0.45828 0.12985 0.53456 0.0
C763 C 0.36562 0.20755 0.61875 0.0
C764 C 0.40829 0.17954 0.58311 0.0
H765 H 0.46518 0.16982 0.56928 0.0
C766 C 0.38733 0.15395 0.57525 0.0
C767 C 0.4363 0.18601 0.57807 0.0
C768 C 0.45931 0.2139 0.58306 0.0
C769 C 0.39427 0.13359 0.56673 0.0
C770 C 0.42277 0.13898 0.56668 0.0
C771 C 0.44331 0.16548 0.57019 0.0
C772 C 0.43192 0.11727 0.56897 0.0
C773 C 0.37114 0.10603 0.56009 0.0
C774 C 0.42381 0.09971 0.59132 0.0
C775 C 0.4355 0.08173 0.59667 0.0
C776 C 0.45582 0.08131 0.58001 0.0
C777 C 0.46342 0.09838 0.55717 0.0
C778 C 0.45158 0.1163 0.55173 0.0
H779 H 0.35237 0.10741 0.5497 0.0
H780 H 0.37781 0.09415 0.54638 0.0
H781 H 0.36493 0.09523 0.57981 0.0
H782 H 0.40936 0.10074 0.60548 0.0
H783 H 0.42947 0.06892 0.6145 0.0
H784 H 0.11342 0.92685 0.64735 0.0
H785 H 0.13119 0.90108 0.67815 0.0
H786 H 0.15598 0.8723 0.60691 0.0
H787 H 0.13913 0.89862 0.57609 0.0
H788 H 0.11678 0.84624 0.67947 0.0
H789 H 0.228 0.90283 0.6583 0.0
H790 H 0.20186 0.91477 0.64848 0.0
H791 H 0.20492 0.88964 0.62728 0.0
C792 C 0.12287 0.91523 0.63821 0.0
C793 C 0.12498 0.91504 0.60916 0.0
C794 C 0.13287 0.90035 0.65587 0.0
C795 C 0.14539 0.88509 0.64496 0.0
C796 C 0.14692 0.88433 0.61594 0.0
H797 H 0.21709 0.77919 0.70208 0.0
H798 H 0.19848 0.80731 0.67722 0.0
C799 C 0.13693 0.89916 0.59826 0.0
C800 C 0.15677 0.8699 0.66382 0.0
H801 H 0.21634 0.86224 0.68272 0.0
C802 C 0.1386 0.8499 0.6804 0.0
C803 C 0.18529 0.87474 0.66517 0.0
C804 C 0.20624 0.89683 0.64908 0.0
C805 C 0.14794 0.83395 0.69741 0.0
C806 C 0.17632 0.83841 0.69823 0.0
C807 C 0.19458 0.85879 0.6821 0.0
C808 C 0.18722 0.82112 0.71417 0.0
C809 C 0.12713 0.81179 0.71351 0.0
C810 C 0.18732 0.81956 0.74344 0.0
C811 C 0.19806 0.80333 0.75794 0.0
C812 C 0.20892 0.78842 0.74338 0.0
C813 C 0.20886 0.79025 0.7141 0.0
C814 C 0.19824 0.80641 0.69975 0.0
H815 H 0.10519 0.8074 0.70618 0.0
H816 H 0.13002 0.79314 0.71166 0.0
H817 H 0.13049 0.81785 0.73595 0.0
H818 H 0.17937 0.83109 0.7551 0.0
H819 H 0.19787 0.80248 0.78046 0.0
H820 H 0.33859 0.80706 0.78435 0.0
H821 H 0.37629 0.84037 0.81475 0.0
H822 H 0.31734 0.8334 0.87485 0.0
H823 H 0.27978 0.79906 0.84485 0.0
H824 H 0.38457 0.88751 0.83092 0.0
H825 H 0.37735 0.82795 0.92566 0.0
H826 H 0.35854 0.813 0.89274 0.0
H827 H 0.3449 0.82952 0.91538 0.0
C828 C 0.33375 0.8125 0.80419 0.0
C829 C 0.30636 0.80034 0.81247 0.0
C830 C 0.3553 0.83154 0.82154 0.0
C831 C 0.34987 0.83914 0.84739 0.0
C832 C 0.32232 0.82727 0.85548 0.0
H833 H 0.45472 0.98856 0.93575 0.0
H834 H 0.42129 0.95307 0.90418 0.0
C835 C 0.30081 0.80774 0.83831 0.0
C836 C 0.37288 0.86032 0.86507 0.0
H837 H 0.405 0.8752 0.93115 0.0
C838 C 0.38916 0.88469 0.85279 0.0
C839 C 0.37933 0.85657 0.89348 0.0
C840 C 0.3643 0.83024 0.9075 0.0
C841 C 0.41127 0.9055 0.86816 0.0
C842 C 0.41663 0.90234 0.89697 0.0
C843 C 0.40075 0.87779 0.90914 0.0
C844 C 0.43803 0.92439 0.91508 0.0
C845 C 0.42892 0.93044 0.85312 0.0
C846 C 0.45827 0.92001 0.93229 0.0
C847 C 0.47704 0.94014 0.95089 0.0
C848 C 0.476 0.96506 0.95243 0.0
C849 C 0.45621 0.96964 0.93478 0.0
C850 C 0.43719 0.9494 0.91655 0.0
H851 H 0.42875 0.92603 0.83057 0.0
H852 H 0.42018 0.94532 0.85469 0.0
H853 H 0.45095 0.93956 0.86227 0.0
H854 H 0.45927 0.90085 0.93166 0.0
H855 H 0.49189 0.93599 0.96449 0.0
H856 H 0.40724 0.09807 0.06418 0.0
H857 H 0.38324 0.12081 0.08663 0.0
H858 H 0.42992 0.12319 0.16477 0.0
H859 H 0.45418 0.1007 0.14244 0.0
H860 H 0.34863 0.11122 0.12472 0.0
H861 H 0.44262 0.19852 0.16791 0.0
H862 H 0.44479 0.17468 0.14403 0.0
H863 H 0.4422 0.16782 0.18074 0.0
C864 C 0.41257 0.10326 0.08619 0.0
C865 C 0.4333 0.09724 0.101 0.0
C866 C 0.39866 0.11658 0.09919 0.0
C867 C 0.40473 0.12478 0.1277 0.0
C868 C 0.42505 0.11837 0.14265 0.0
H869 H 0.3395 0.20185 0.24729 0.0
H870 H 0.36285 0.17912 0.22357 0.0
C871 C 0.43909 0.10517 0.12964 0.0
C872 C 0.38948 0.13927 0.14161 0.0
H873 H 0.39946 0.19295 0.18456 0.0
C874 C 0.36 0.12921 0.1376 0.0
C875 C 0.40353 0.16302 0.1587 0.0
C876 C 0.43502 0.17682 0.16289 0.0
C877 C 0.34463 0.14135 0.15033 0.0
C878 C 0.35868 0.16488 0.16767 0.0
C879 C 0.38813 0.175 0.1716 0.0
C880 C 0.34346 0.17897 0.18223 0.0
C881 C 0.31316 0.12811 0.14567 0.0
C882 C 0.32444 0.1873 0.16753 0.0
C883 C 0.31086 0.20059 0.18127 0.0
C884 C 0.31563 0.20621 0.2104 0.0
C885 C 0.33476 0.19797 0.22499 0.0
C886 C 0.34841 0.18487 0.21125 0.0
H887 H 0.3052 0.1067 0.13918 0.0
H888 H 0.30333 0.12936 0.16484 0.0
H889 H 0.30645 0.13842 0.12876 0.0
H890 H 0.32034 0.18398 0.14515 0.0
H891 H 0.29669 0.20664 0.1689 0.0
H892 H 0.06045 0.07334 0.43636 0.0
H893 H 0.0908 0.10234 0.40253 0.0
H894 H 0.13981 0.05699 0.40801 0.0
H895 H 0.11003 0.02838 0.44274 0.0
H896 H 0.17357 0.10815 0.40731 0.0
H897 H 0.09105 0.08852 0.3216 0.0
H898 H 0.08333 0.10123 0.35238 0.0
H899 H 0.08479 0.06924 0.35289 0.0
C900 C 0.07756 0.06934 0.43031 0.0
C901 C 0.08252 0.04824 0.44228 0.0
C902 C 0.09488 0.08592 0.41068 0.0
C903 C 0.11738 0.08165 0.40195 0.0
C904 C 0.12255 0.06075 0.41408 0.0
H905 H 0.20275 0.16011 0.25371 0.0
H906 H 0.17453 0.12761 0.28693 0.0
C907 C 0.1054 0.04429 0.43398 0.0
C908 C 0.13587 0.09939 0.38084 0.0
H909 H 0.13474 0.12618 0.3164 0.0
C910 C 0.16502 0.1119 0.38736 0.0
C911 C 0.12507 0.10409 0.35442 0.0
C912 C 0.09439 0.08983 0.34476 0.0
C913 C 0.18339 0.12932 0.36873 0.0
C914 C 0.17242 0.1352 0.34299 0.0
C915 C 0.14335 0.12214 0.33617 0.0
C916 C 0.19056 0.15481 0.32289 0.0
C917 C 0.21445 0.14075 0.37671 0.0
C918 C 0.20904 0.18115 0.33169 0.0
C919 C 0.22543 0.19962 0.31275 0.0
C920 C 0.22347 0.19246 0.28436 0.0
C921 C 0.20487 0.16624 0.27545 0.0
C922 C 0.18864 0.14765 0.29447 0.0
H923 H 0.21968 0.12771 0.39155 0.0
H924 H 0.22642 0.1433 0.35811 0.0
H925 H 0.2214 0.16061 0.38724 0.0
H926 H 0.21045 0.18767 0.35316 0.0
H927 H 0.23924 0.21975 0.3203 0.0
H928 H 0.92198 0.20964 0.08361 0.0
H929 H 0.94125 0.18006 0.06681 0.0
H930 H 0.90345 0.1243 0.13118 0.0
H931 H 0.88455 0.15409 0.14866 0.0
H932 H 0.97786 0.16212 0.09681 0.0
H933 H 0.87759 0.07764 0.05825 0.0
H934 H 0.88038 0.11068 0.06589 0.0
H935 H 0.87928 0.08848 0.0938 0.0
C936 C 0.91792 0.19123 0.09445 0.0
C937 C 0.90173 0.18437 0.11762 0.0
C938 C 0.92882 0.17425 0.08465 0.0
C939 C 0.92355 0.14986 0.09754 0.0
C940 C 0.90737 0.14282 0.1206 0.0
H941 H 1.01432 0.05266 0.08084 0.0
H942 H 0.99299 0.08048 0.09773 0.0
C943 C 0.89654 0.15988 0.13054 0.0
C944 C 0.93568 0.13225 0.08722 0.0
H945 H 0.91859 0.07061 0.05772 0.0
C946 C 0.96492 0.14211 0.08826 0.0
C947 C 0.91874 0.10629 0.07577 0.0
C948 C 0.88725 0.09513 0.07307 0.0
C949 C 0.97768 0.12658 0.07848 0.0
C950 C 0.96074 0.10037 0.06763 0.0
C951 C 0.93151 0.09063 0.06624 0.0
C952 C 0.97305 0.08287 0.05744 0.0
C953 C 1.00919 0.13851 0.0794 0.0
C954 C 0.96833 0.07439 0.02928 0.0
C955 C 0.98047 0.0584 0.0195 0.0
C956 C 0.99736 0.05039 0.03778 0.0
C957 C 1.00154 0.0585 0.06612 0.0
C958 C 0.98948 0.07454 0.07583 0.0
H959 H 1.01873 0.1607 0.08182 0.0
H960 H 1.01728 0.13053 0.0975 0.0
H961 H 1.01609 0.13306 0.06015 0.0
H962 H 0.95557 0.08047 0.01478 0.0
H963 H 0.97668 0.05243 0.99759 0.0
H964 H 0.0871 0.54202 0.4272 0.0
H965 H 0.12986 0.5748 0.40946 0.0
H966 H 0.14402 0.62669 0.4812 0.0
H967 H 0.10074 0.59354 0.49943 0.0
H968 H 0.15276 0.65197 0.42627 0.0
H969 H 0.20933 0.58871 0.44525 0.0
H970 H 0.17486 0.57023 0.42848 0.0
H971 H 0.17894 0.58423 0.46313 0.0
C972 C 0.09914 0.56046 0.43919 0.0
C973 C 0.09078 0.56516 0.46482 0.0
C974 C 0.12364 0.57907 0.42911 0.0
C975 C 0.14039 0.60268 0.44449 0.0
C976 C 0.13145 0.60829 0.46934 0.0
H977 H 0.29294 0.68955 0.35668 0.0
H978 H 0.26613 0.67246 0.39766 0.0
C979 C 0.1067 0.58954 0.47954 0.0
C980 C 0.16694 0.62117 0.43371 0.0
H981 H 0.22392 0.61968 0.40702 0.0
C982 C 0.16886 0.64543 0.42281 0.0
C983 C 0.18815 0.61279 0.42971 0.0
C984 C 0.1879 0.58768 0.44254 0.0
C985 C 0.18991 0.66007 0.40538 0.0
C986 C 0.20903 0.64986 0.39858 0.0
C987 C 0.20895 0.62722 0.41197 0.0
C988 C 0.22577 0.65964 0.37437 0.0
C989 C 0.19046 0.68546 0.39299 0.0
C990 C 0.21183 0.65688 0.34779 0.0
C991 C 0.2269 0.66624 0.32453 0.0
C992 C 0.25628 0.67843 0.32736 0.0
C993 C 0.27032 0.68012 0.35386 0.0
C994 C 0.25509 0.67064 0.37728 0.0
H995 H 0.18154 0.6952 0.40688 0.0
H996 H 0.2121 0.6999 0.38922 0.0
H997 H 0.17755 0.68051 0.37273 0.0
H998 H 0.18917 0.64767 0.34506 0.0
H999 H 0.21543 0.66436 0.30438 0.0
H1000 H 0.56713 0.96359 0.58746 0.0
H1001 H 0.59112 0.93771 0.60823 0.0
H1002 H 0.59971 0.91308 0.52601 0.0
H1003 H 0.57654 0.93956 0.50512 0.0
H1004 H 0.57903 0.88608 0.60779 0.0
H1005 H 0.67831 0.93714 0.55774 0.0
H1006 H 0.65211 0.94984 0.55606 0.0
H1007 H 0.6485 0.92297 0.53279 0.0
C1008 C 0.57425 0.95282 0.57372 0.0
C1009 C 0.56994 0.95396 0.5445 0.0
C1010 C 0.58802 0.93791 0.58569 0.0
C1011 C 0.59796 0.92367 0.56887 0.0
C1012 C 0.5932 0.92441 0.53966 0.0
H1013 H 0.68155 0.81818 0.60235 0.0
H1014 H 0.65768 0.84408 0.58166 0.0
C1015 C 0.57964 0.93948 0.52767 0.0
C1016 C 0.61257 0.90763 0.58193 0.0
H1017 H 0.67198 0.89743 0.5819 0.0
C1018 C 0.59945 0.88876 0.6022 0.0
C1019 C 0.63926 0.91078 0.57479 0.0
C1020 C 0.6555 0.93145 0.55436 0.0
C1021 C 0.6118 0.87284 0.61495 0.0
C1022 C 0.63848 0.87601 0.60782 0.0
C1023 C 0.65159 0.89482 0.58752 0.0
C1024 C 0.653 0.85993 0.62091 0.0
C1025 C 0.59569 0.85219 0.63543 0.0
C1026 C 0.65887 0.86017 0.65004 0.0
C1027 C 0.6724 0.84506 0.66209 0.0
C1028 C 0.68068 0.82929 0.64538 0.0
C1029 C 0.67511 0.82946 0.61616 0.0
C1030 C 0.66159 0.84456 0.60416 0.0
H1031 H 0.57293 0.8469 0.63261 0.0
H1032 H 0.59866 0.83362 0.63323 0.0
H1033 H 0.6033 0.86045 0.65701 0.0
H1034 H 0.65318 0.87223 0.66359 0.0
H1035 H 0.67608 0.84555 0.6846 0.0
H1036 H 0.48571 0.49205 0.93524 0.0
H1037 H 0.44452 0.46254 0.90475 0.0
H1038 H 0.45879 0.39428 0.93106 0.0
H1039 H 0.4997 0.4236 0.9615 0.0
H1040 H 0.44756 0.41798 0.86186 0.0
H1041 H 0.37213 0.38373 0.94388 0.0
H1042 H 0.4014 0.4165 0.94519 0.0
H1043 H 0.40718 0.38744 0.95324 0.0
C1044 C 0.4798 0.47073 0.93451 0.0
C1045 C 0.49539 0.45983 0.95063 0.0
C1046 C 0.45651 0.45402 0.91715 0.0
C1047 C 0.44865 0.42637 0.91617 0.0
C1048 C 0.46457 0.41561 0.93191 0.0
H1049 H 0.33768 0.27578 0.84923 0.0
H1050 H 0.36674 0.31567 0.87833 0.0
C1051 C 0.48791 0.43229 0.94901 0.0
C1052 C 0.42427 0.40835 0.8982 0.0
H1053 H 0.35882 0.35813 0.90133 0.0
C1054 C 0.42785 0.40523 0.87015 0.0
C1055 C 0.39893 0.39185 0.90948 0.0
C1056 C 0.39441 0.39501 0.93958 0.0
C1057 C 0.40716 0.38471 0.85328 0.0
C1058 C 0.38209 0.36744 0.86484 0.0
C1059 C 0.37803 0.37148 0.8926 0.0
C1060 C 0.36124 0.34352 0.84921 0.0
C1061 C 0.41309 0.38066 0.82388 0.0
C1062 C 0.34784 0.34605 0.8238 0.0
C1063 C 0.33169 0.32341 0.80703 0.0
C1064 C 0.32829 0.29793 0.81574 0.0
C1065 C 0.34014 0.29525 0.84204 0.0
C1066 C 0.35659 0.31795 0.85867 0.0
H1067 H 0.43553 0.39224 0.82028 0.0
H1068 H 0.40708 0.35915 0.81926 0.0
H1069 H 0.40063 0.38744 0.80886 0.0
H1070 H 0.35083 0.36561 0.81643 0.0
H1071 H 0.32286 0.32603 0.78677 0.0
H1072 H 0.81061 0.81432 0.29947 0.0
H1073 H 0.83356 0.85036 0.33468 0.0
H1074 H 0.84895 0.79546 0.3902 0.0
H1075 H 0.82481 0.75912 0.35567 0.0
H1076 H 0.84135 0.83542 0.4186 0.0
H1077 H 0.91817 0.87675 0.33818 0.0
H1078 H 0.88341 0.87315 0.32818 0.0
H1079 H 0.88947 0.84388 0.33443 0.0
C1080 C 0.81802 0.80975 0.31952 0.0
C1081 C 0.81652 0.78414 0.32466 0.0
C1082 C 0.83122 0.83036 0.33956 0.0
C1083 C 0.84362 0.82566 0.36463 0.0
C1084 C 0.83967 0.7995 0.37086 0.0
H1085 H 0.99814 0.91009 0.45757 0.0
H1086 H 0.95576 0.87954 0.42972 0.0
C1087 C 0.82607 0.77882 0.35103 0.0
C1088 C 0.86449 0.84814 0.38219 0.0
H1089 H 0.93081 0.89775 0.38227 0.0
C1090 C 0.86074 0.8494 0.41065 0.0
C1091 C 0.88991 0.86601 0.37167 0.0
C1092 C 0.89571 0.86488 0.34152 0.0
C1093 C 0.8822 0.86756 0.4291 0.0
C1094 C 0.90775 0.88484 0.41861 0.0
C1095 C 0.91108 0.88433 0.39005 0.0
C1096 C 0.93224 0.90229 0.43703 0.0
C1097 C 0.87805 0.86731 0.45982 0.0
C1098 C 0.93273 0.9249 0.4504 0.0
C1099 C 0.95688 0.9423 0.46616 0.0
C1100 C 0.98083 0.93746 0.4684 0.0
C1101 C 0.97998 0.91437 0.45575 0.0
C1102 C 0.95589 0.89699 0.43993 0.0
H1103 H 0.85829 0.85038 0.46505 0.0
H1104 H 0.89585 0.86592 0.47235 0.0
H1105 H 0.87743 0.88632 0.46602 0.0
H1106 H 0.91462 0.92923 0.44838 0.0
H1107 H 0.9565 0.95906 0.47704 0.0
H1108 H 0.50621 0.60177 0.66112 0.0
H1109 H 0.48022 0.62624 0.67582 0.0
H1110 H 0.4432 0.6207 0.59149 0.0
H1111 H 0.46874 0.59585 0.5768 0.0
H1112 H 0.48015 0.67378 0.65821 0.0
H1113 H 0.37529 0.58907 0.63642 0.0
H1114 H 0.40721 0.58488 0.63692 0.0
H1115 H 0.39564 0.59805 0.6067 0.0
C1116 C 0.49254 0.60584 0.64577 0.0
C1117 C 0.48914 0.5967 0.61795 0.0
C1118 C 0.47776 0.61977 0.65416 0.0
C1119 C 0.45949 0.6248 0.63482 0.0
C1120 C 0.4567 0.61638 0.60684 0.0
H1121 H 0.35732 0.71007 0.64302 0.0
H1122 H 0.38983 0.69249 0.62931 0.0
C1123 C 0.47125 0.60224 0.5985 0.0
C1124 C 0.44311 0.63861 0.64399 0.0
H1125 H 0.37633 0.63129 0.6476 0.0
C1126 C 0.45745 0.66449 0.65602 0.0
C1127 C 0.41352 0.62626 0.64121 0.0
C1128 C 0.39698 0.59794 0.62987 0.0
C1129 C 0.44285 0.67853 0.66498 0.0
C1130 C 0.41339 0.66631 0.66168 0.0
C1131 C 0.39903 0.64049 0.64981 0.0
C1132 C 0.39681 0.67979 0.67073 0.0
C1133 C 0.45873 0.70633 0.67772 0.0
C1134 C 0.39043 0.67852 0.69858 0.0
C1135 C 0.37158 0.68813 0.70643 0.0
C1136 C 0.35892 0.6991 0.68644 0.0
C1137 C 0.36637 0.70129 0.65876 0.0
C1138 C 0.38507 0.69152 0.65093 0.0
H1139 H 0.48173 0.71366 0.67732 0.0
H1140 H 0.45209 0.72048 0.66633 0.0
H1141 H 0.45372 0.70634 0.69973 0.0
H1142 H 0.39923 0.6692 0.71397 0.0
H1143 H 0.36603 0.68591 0.72783 0.0
H1144 H 0.55864 0.09159 0.97141 0.0
H1145 H 0.58549 0.12788 0.94119 0.0
H1146 H 0.61728 0.07697 0.90395 0.0
H1147 H 0.59032 0.04049 0.9336 0.0
H1148 H 0.64342 0.15187 0.9384 0.0
H1149 H 0.58796 0.10564 0.83632 0.0
H1150 H 0.5737 0.09322 0.8692 0.0
H1151 H 0.59998 0.08465 0.85665 0.0
C1152 C 0.57114 0.08801 0.95662 0.0
C1153 C 0.57224 0.0631 0.95484 0.0
C1154 C 0.58647 0.10877 0.93944 0.0
C1155 C 0.60298 0.10489 0.92016 0.0
C1156 C 0.60416 0.08012 0.91833 0.0
H1157 H 0.74272 0.21719 0.83843 0.0
H1158 H 0.7116 0.18515 0.86976 0.0
C1159 C 0.58882 0.05934 0.93541 0.0
C1160 C 0.61987 0.12702 0.9026 0.0
H1161 H 0.63177 0.14398 0.83491 0.0
C1162 C 0.64074 0.15032 0.91576 0.0
C1163 C 0.61604 0.12492 0.87314 0.0
C1164 C 0.59303 0.10087 0.85796 0.0
C1165 C 0.65855 0.17136 0.90013 0.0
C1166 C 0.65552 0.16872 0.87069 0.0
C1167 C 0.63412 0.14577 0.85753 0.0
C1168 C 0.67463 0.1893 0.85302 0.0
C1169 C 0.68037 0.19622 0.91519 0.0
C1170 C 0.66399 0.20193 0.83311 0.0
C1171 C 0.68163 0.22007 0.81503 0.0
C1172 C 0.71017 0.22571 0.81649 0.0
C1173 C 0.72085 0.2133 0.83679 0.0
C1174 C 0.70316 0.19513 0.85484 0.0
H1175 H 0.67511 0.19812 0.93675 0.0
H1176 H 0.70083 0.19514 0.91666 0.0
H1177 H 0.68272 0.21451 0.90371 0.0
H1178 H 0.64196 0.19752 0.83136 0.0
H1179 H 0.67273 0.22926 0.79962 0.0
H1180 H 0.05648 0.45251 0.08441 0.0
H1181 H 0.08026 0.42638 0.10456 0.0
H1182 H 0.1194 0.43165 0.02806 0.0
H1183 H 0.09505 0.45738 0.00739 0.0
H1184 H 0.10155 0.38175 0.04773 0.0
H1185 H 0.16036 0.45305 0.13498 0.0
H1186 H 0.12335 0.4425 0.13488 0.0
H1187 H 0.1418 0.46155 0.10636 0.0
C1188 C 0.07016 0.44822 0.07175 0.0
C1189 C 0.07381 0.45733 0.04418 0.0
C1190 C 0.084 0.43334 0.08347 0.0
C1191 C 0.10225 0.42732 0.06819 0.0
C1192 C 0.10562 0.43602 0.04048 0.0
H1193 H 0.2217 0.36939 0.14487 0.0
H1194 H 0.19896 0.3957 0.12267 0.0
C1195 C 0.09165 0.45084 0.02865 0.0
C1196 C 0.11733 0.41162 0.08096 0.0
H1197 H 0.15975 0.40969 0.13779 0.0
C1198 C 0.11435 0.38798 0.06738 0.0
C1199 C 0.13457 0.41973 0.10642 0.0
C1200 C 0.14049 0.44573 0.12137 0.0
C1201 C 0.1274 0.37207 0.07872 0.0
C1202 C 0.1436 0.37955 0.10482 0.0
C1203 C 0.14711 0.40354 0.11805 0.0
C1204 C 0.15741 0.36312 0.11857 0.0
C1205 C 0.12411 0.34768 0.06219 0.0
C1206 C 0.14184 0.33592 0.12436 0.0
C1207 C 0.15484 0.32073 0.13724 0.0
C1208 C 0.18388 0.33227 0.14504 0.0
C1209 C 0.19932 0.35966 0.13963 0.0
C1210 C 0.1863 0.37481 0.12669 0.0
H1211 H 0.11875 0.34927 0.03963 0.0
H1212 H 0.14353 0.34465 0.06446 0.0
H1213 H 0.10684 0.32972 0.06995 0.0
H1214 H 0.11944 0.3264 0.1192 0.0
H1215 H 0.14197 0.29994 0.14144 0.0
H1216 H 0.56018 0.5732 0.93652 0.0
H1217 H 0.58968 0.60148 0.90161 0.0
H1218 H 0.65186 0.57258 0.92454 0.0
H1219 H 0.62233 0.54396 0.95943 0.0
H1220 H 0.6433 0.64252 0.90771 0.0
H1221 H 0.64131 0.5609 0.83991 0.0
H1222 H 0.61746 0.55483 0.86673 0.0
H1223 H 0.65287 0.55976 0.87584 0.0
C1224 C 0.58007 0.57269 0.93417 0.0
C1225 C 0.58867 0.55603 0.95088 0.0
C1226 C 0.597 0.58899 0.91412 0.0
C1227 C 0.62292 0.58899 0.90997 0.0
C1228 C 0.63174 0.57262 0.9268 0.0
H1229 H 0.75242 0.67617 0.79616 0.0
H1230 H 0.72463 0.64701 0.83204 0.0
C1231 C 0.61484 0.55633 0.94695 0.0
C1232 C 0.64076 0.60648 0.88842 0.0
H1233 H 0.67145 0.60524 0.8286 0.0
C1234 C 0.64936 0.63432 0.89038 0.0
C1235 C 0.64888 0.59595 0.86575 0.0
C1236 C 0.63949 0.56622 0.86167 0.0
C1237 C 0.66598 0.6518 0.87068 0.0
C1238 C 0.67386 0.64126 0.84784 0.0
C1239 C 0.66547 0.61344 0.84599 0.0
C1240 C 0.69059 0.65871 0.82562 0.0
C1241 C 0.67545 0.68154 0.87488 0.0
C1242 C 0.68065 0.67472 0.80952 0.0
C1243 C 0.69657 0.69141 0.78908 0.0
C1244 C 0.72273 0.69239 0.78416 0.0
C1245 C 0.73245 0.676 0.79974 0.0
C1246 C 0.71651 0.65926 0.82017 0.0
H1247 H 0.67461 0.68686 0.89693 0.0
H1248 H 0.69714 0.69301 0.86888 0.0
H1249 H 0.66142 0.6879 0.8616 0.0
H1250 H 0.66052 0.67432 0.81275 0.0
H1251 H 0.6886 0.70385 0.77733 0.0
H1252 H 0.78722 0.30299 0.13883 0.0
H1253 H 0.76012 0.3257 0.11742 0.0
H1254 H 0.74992 0.35029 0.19908 0.0
H1255 H 0.77604 0.32684 0.22059 0.0
H1256 H 0.70253 0.33392 0.16941 0.0
H1257 H 0.78275 0.40295 0.10381 0.0
H1258 H 0.7743 0.36856 0.09595 0.0
H1259 H 0.79052 0.38291 0.12988 0.0
C1260 C 0.7794 0.31339 0.15226 0.0
C1261 C 0.78407 0.31313 0.18151 0.0
C1262 C 0.764 0.32661 0.13993 0.0
C1263 C 0.75329 0.34036 0.15646 0.0
C1264 C 0.75794 0.34004 0.18568 0.0
H1265 H 0.69192 0.45597 0.09191 0.0
H1266 H 0.71909 0.43355 0.11338 0.0
C1267 C 0.77303 0.32661 0.19801 0.0
C1268 C 0.73648 0.35431 0.14362 0.0
H1269 H 0.73678 0.40017 0.09497 0.0
C1270 C 0.71016 0.34849 0.15322 0.0
C1271 C 0.74634 0.37374 0.12272 0.0
C1272 C 0.77514 0.38264 0.11269 0.0
C1273 C 0.69352 0.36121 0.14254 0.0
C1274 C 0.70284 0.37977 0.12078 0.0
C1275 C 0.72928 0.38579 0.11136 0.0
C1276 C 0.68579 0.39346 0.10784 0.0
C1277 C 0.6665 0.35511 0.15547 0.0
C1278 C 0.65787 0.37867 0.09714 0.0
C1279 C 0.64192 0.39155 0.08544 0.0
C1280 C 0.65354 0.41969 0.08335 0.0
C1281 C 0.68177 0.4344 0.09352 0.0
C1282 C 0.69757 0.4215 0.10561 0.0
H1283 H 0.667 0.348 0.17713 0.0
H1284 H 0.66208 0.37299 0.15601 0.0
H1285 H 0.64902 0.33892 0.14302 0.0
H1286 H 0.64829 0.35702 0.09771 0.0
H1287 H 0.6203 0.37926 0.07832 0.0
H1288 H 0.98726 0.51447 0.40923 0.0
H1289 H 0.96521 0.48704 0.3663 0.0
H1290 H 0.96986 0.41877 0.40629 0.0
H1291 H 0.99161 0.44578 0.44895 0.0
H1292 H 0.98742 0.44729 0.33558 0.0
H1293 H 0.88266 0.4026 0.3776 0.0
H1294 H 0.90895 0.43563 0.38834 0.0
H1295 H 0.91253 0.40653 0.40093 0.0
C1296 C 0.98385 0.4937 0.40868 0.0
C1297 C 0.99129 0.48232 0.43238 0.0
C1298 C 0.97131 0.47809 0.3842 0.0
C1299 C 0.9659 0.45089 0.3832 0.0
C1300 C 0.97389 0.43972 0.40664 0.0
H1301 H 0.87611 0.30685 0.28598 0.0
H1302 H 0.90038 0.34292 0.32076 0.0
C1303 C 0.98644 0.45525 0.43096 0.0
C1304 C 0.95071 0.43351 0.35836 0.0
H1305 H 0.8875 0.38302 0.33611 0.0
C1306 C 0.96547 0.43347 0.33539 0.0
C1307 C 0.92218 0.41544 0.35838 0.0
C1308 C 0.90544 0.41496 0.38251 0.0
C1309 C 0.95264 0.41502 0.31284 0.0
C1310 C 0.92416 0.39648 0.31312 0.0
C1311 C 0.90929 0.39718 0.33582 0.0
C1312 C 0.90984 0.37489 0.29126 0.0
C1313 C 0.97005 0.41469 0.28962 0.0
C1314 C 0.90685 0.38072 0.26295 0.0
C1315 C 0.89299 0.35996 0.24287 0.0
C1316 C 0.88168 0.33308 0.25084 0.0
C1317 C 0.88458 0.32736 0.27916 0.0
C1318 C 0.89844 0.34799 0.2991 0.0
H1319 H 0.99282 0.4259 0.29562 0.0
H1320 H 0.96563 0.39383 0.28355 0.0
H1321 H 0.96478 0.42424 0.27105 0.0
H1322 H 0.91492 0.4013 0.25641 0.0
H1323 H 0.8909 0.36494 0.22121 0.0
H1324 H 0.63053 0.56462 0.48867 0.0
H1325 H 0.65848 0.5919 0.45228 0.0
H1326 H 0.58315 0.57536 0.39937 0.0
H1327 H 0.55494 0.54758 0.43579 0.0
H1328 H 0.62624 0.5731 0.37062 0.0
H1329 H 0.66471 0.66663 0.43496 0.0
H1330 H 0.67134 0.64067 0.45204 0.0
H1331 H 0.63587 0.63608 0.44396 0.0
C1332 C 0.6199 0.56669 0.46924 0.0
C1333 C 0.59058 0.55422 0.46512 0.0
C1334 C 0.6359 0.58239 0.44851 0.0
C1335 C 0.62289 0.58615 0.42335 0.0
C1336 C 0.5936 0.57289 0.41873 0.0
H1337 H 0.70954 0.71659 0.31349 0.0
H1338 H 0.67685 0.68523 0.34414 0.0
C1339 C 0.57752 0.55705 0.4395 0.0
C1340 C 0.63999 0.6044 0.40228 0.0
H1341 H 0.68775 0.66879 0.39384 0.0
C1342 C 0.63957 0.59407 0.37558 0.0
C1343 C 0.65703 0.63186 0.40866 0.0
C1344 C 0.65712 0.64457 0.43636 0.0
C1345 C 0.65632 0.61033 0.35531 0.0
C1346 C 0.67434 0.63751 0.36215 0.0
C1347 C 0.67419 0.64792 0.38865 0.0
C1348 C 0.6934 0.65571 0.34222 0.0
C1349 C 0.65423 0.59831 0.32668 0.0
C1350 C 0.71375 0.64968 0.33096 0.0
C1351 C 0.73241 0.66753 0.3132 0.0
C1352 C 0.73135 0.69197 0.30668 0.0
C1353 C 0.711 0.69797 0.31806 0.0
C1354 C 0.69225 0.68004 0.33561 0.0
H1355 H 0.63406 0.58034 0.32227 0.0
H1356 H 0.65624 0.61306 0.31015 0.0
H1357 H 0.67136 0.59199 0.32557 0.0
H1358 H 0.71556 0.63138 0.33631 0.0
H1359 H 0.74791 0.66233 0.30495 0.0
H1360 H 0.77285 0.3163 0.84496 0.0
H1361 H 0.81061 0.33659 0.88237 0.0
H1362 H 0.87187 0.35581 0.82178 0.0
H1363 H 0.83452 0.33474 0.78489 0.0
H1364 H 0.88666 0.33535 0.86768 0.0
H1365 H 0.85621 0.41567 0.89729 0.0
H1366 H 0.82967 0.38219 0.90016 0.0
H1367 H 0.84073 0.39468 0.86638 0.0
C1368 C 0.79441 0.32506 0.83979 0.0
C1369 C 0.80092 0.32423 0.8122 0.0
C1370 C 0.81591 0.33662 0.86106 0.0
C1371 C 0.84402 0.34798 0.85475 0.0
C1372 C 0.85035 0.34709 0.82712 0.0
H1373 H 0.99023 0.46906 0.93773 0.0
H1374 H 0.95402 0.43848 0.90389 0.0
C1375 C 0.82901 0.3352 0.80606 0.0
C1376 C 0.86717 0.36126 0.87654 0.0
H1377 H 0.89555 0.4146 0.92248 0.0
C1378 C 0.88853 0.35256 0.87984 0.0
C1379 C 0.86962 0.38386 0.89213 0.0
C1380 C 0.848 0.39485 0.88872 0.0
C1381 C 0.91255 0.36622 0.89797 0.0
C1382 C 0.91497 0.38883 0.91328 0.0
C1383 C 0.89342 0.39717 0.91054 0.0
C1384 C 0.94012 0.40501 0.93162 0.0
C1385 C 0.93565 0.35712 0.89996 0.0
C1386 C 0.94476 0.39584 0.95795 0.0
C1387 C 0.96543 0.41328 0.97735 0.0
C1388 C 0.98147 0.44005 0.97058 0.0
C1389 C 0.97809 0.44854 0.94349 0.0
C1390 C 0.95743 0.43115 0.92418 0.0
H1391 H 0.93166 0.34068 0.88466 0.0
H1392 H 0.9559 0.37421 0.89634 0.0
H1393 H 0.9377 0.34996 0.92131 0.0
H1394 H 0.93139 0.37573 0.96402 0.0
H1395 H 0.96775 0.40625 0.9981 0.0
H1396 H 0.81316 0.8193 0.18405 0.0
H1397 H 0.84466 0.85076 0.15253 0.0
H1398 H 0.9063 0.82094 0.17469 0.0
H1399 H 0.87469 0.78895 0.20587 0.0
H1400 H 0.89716 0.89141 0.16308 0.0
H1401 H 0.89989 0.81551 0.09003 0.0
H1402 H 0.87478 0.80704 0.1159 0.0
H1403 H 0.91006 0.81197 0.12582 0.0
C1404 C 0.83334 0.81926 0.18214 0.0
C1405 C 0.84126 0.80141 0.19742 0.0
C1406 C 0.85139 0.83737 0.16416 0.0
C1407 C 0.87774 0.83804 0.16093 0.0
C1408 C 0.88587 0.82047 0.17638 0.0
H1409 H 1.00649 0.97022 0.07508 0.0
H1410 H 0.98149 0.93924 0.11104 0.0
C1411 C 0.86779 0.80227 0.19434 0.0
C1412 C 0.89659 0.85722 0.14146 0.0
H1413 H 0.92993 0.86079 0.08248 0.0
C1414 C 0.90441 0.88474 0.14549 0.0
C1415 C 0.90583 0.84849 0.11836 0.0
C1416 C 0.89705 0.81914 0.11203 0.0
C1417 C 0.92098 0.90373 0.12696 0.0
C1418 C 0.93049 0.89503 0.10402 0.0
C1419 C 0.92288 0.86751 0.10018 0.0
C1420 C 0.94656 0.91376 0.08256 0.0
C1421 C 0.92726 0.9328 0.13158 0.0
C1422 C 0.93575 0.90946 0.05451 0.0
C1423 C 0.95031 0.92677 0.03399 0.0
C1424 C 0.97609 0.94878 0.04097 0.0
C1425 C 0.987 0.95317 0.06901 0.0
C1426 C 0.97247 0.93568 0.08963 0.0
H1427 H 0.91291 0.93522 0.14579 0.0
H1428 H 0.94895 0.94368 0.14125 0.0
H1429 H 0.92557 0.94232 0.1115 0.0
H1430 H 0.91583 0.89277 0.04847 0.0
H1431 H 0.94129 0.92289 0.01256 0.0
H1432 H 0.83528 0.17518 0.88762 0.0
H1433 H 0.83817 0.13376 0.90171 0.0
H1434 H 0.78091 0.09141 0.8313 0.0
H1435 H 0.77879 0.13288 0.81637 0.0
H1436 H 0.7993 0.07949 0.9125 0.0
H1437 H 0.85546 0.08908 0.81662 0.0
H1438 H 0.84823 0.1158 0.82948 0.0
H1439 H 0.8207 0.08708 0.81172 0.0
C1440 C 0.82305 0.15697 0.87534 0.0
C1441 C 0.80723 0.15738 0.85064 0.0
C1442 C 0.82447 0.13331 0.88356 0.0
C1443 C 0.81004 0.10975 0.86726 0.0
C1444 C 0.79237 0.10953 0.84394 0.0
H1445 H 0.87861 0.99165 0.87619 0.0
H1446 H 0.84082 0.00578 0.86641 0.0
C1447 C 0.79107 0.13322 0.83558 0.0
C1448 C 0.81677 0.08681 0.8726 0.0
H1449 H 0.85566 0.05716 0.84846 0.0
C1450 C 0.81109 0.0741 0.89828 0.0
C1451 C 0.83213 0.07993 0.85391 0.0
C1452 C 0.83972 0.09373 0.82646 0.0
C1453 C 0.82173 0.05564 0.90644 0.0
C1454 C 0.83859 0.05012 0.88852 0.0
C1455 C 0.84251 0.06134 0.86202 0.0
C1456 C 0.8567 0.03718 0.89845 0.0
C1457 C 0.81587 0.04311 0.93462 0.0
C1458 C 0.87771 0.04991 0.91995 0.0
C1459 C 0.89927 0.04212 0.92528 0.0
C1460 C 0.90015 0.0215 0.90918 0.0
C1461 C 0.8782 0.00756 0.88887 0.0
C1462 C 0.85667 0.01554 0.88336 0.0
H1463 H 0.7955 0.04137 0.94098 0.0
H1464 H 0.81567 0.02293 0.93461 0.0
H1465 H 0.83245 0.05604 0.95048 0.0
H1466 H 0.87853 0.06708 0.93136 0.0
H1467 H 0.91593 0.05296 0.94121 0.0
H1468 H 0.69994 0.19607 0.73274 0.0
H1469 H 0.66792 0.16267 0.69801 0.0
H1470 H 0.71903 0.20706 0.63281 0.0
H1471 H 0.75234 0.23893 0.66798 0.0
H1472 H 0.63551 0.16019 0.65605 0.0
H1473 H 0.71845 0.13762 0.61684 0.0
H1474 H 0.72498 0.15943 0.64676 0.0
H1475 H 0.72588 0.17208 0.61188 0.0
C1476 C 0.70421 0.19852 0.71094 0.0
C1477 C 0.72864 0.21954 0.70283 0.0
C1478 C 0.68593 0.17954 0.69111 0.0
C1479 C 0.6915 0.18178 0.66281 0.0
C1480 C 0.71492 0.20412 0.6546 0.0
H1481 H 0.56522 0.08303 0.53275 0.0
H1482 H 0.59375 0.11815 0.56744 0.0
C1483 C 0.73376 0.22247 0.67457 0.0
C1484 C 0.67325 0.1604 0.64217 0.0
H1485 H 0.67482 0.1202 0.58959 0.0
C1486 C 0.6441 0.15125 0.64169 0.0
C1487 C 0.68432 0.14821 0.62382 0.0
C1488 C 0.71508 0.15464 0.62507 0.0
C1489 C 0.62576 0.13038 0.6234 0.0
C1490 C 0.63696 0.11943 0.60384 0.0
C1491 C 0.66611 0.12865 0.60434 0.0
C1492 C 0.61914 0.09808 0.58296 0.0
C1493 C 0.59471 0.11981 0.6261 0.0
C1494 C 0.62461 0.07563 0.57907 0.0
C1495 C 0.60933 0.05637 0.55822 0.0
C1496 C 0.58776 0.05881 0.54153 0.0
C1497 C 0.58174 0.08079 0.54565 0.0
C1498 C 0.59778 0.10064 0.56574 0.0
H1499 H 0.59039 0.12321 0.64762 0.0
H1500 H 0.58595 0.13064 0.61174 0.0
H1501 H 0.5836 0.09803 0.62092 0.0
H1502 H 0.64088 0.07306 0.59204 0.0
H1503 H 0.61406 0.03936 0.55543 0.0
H1504 H 0.60883 0.9245 0.47208 0.0
H1505 H 0.63668 0.89872 0.47526 0.0
H1506 H 0.65692 0.91778 0.39011 0.0
H1507 H 0.62911 0.94332 0.38676 0.0
H1508 H 0.62402 0.85437 0.44185 0.0
H1509 H 0.73187 0.92839 0.42892 0.0
H1510 H 0.70553 0.93785 0.44018 0.0
H1511 H 0.70809 0.93342 0.40353 0.0
C1512 C 0.61945 0.92331 0.45415 0.0
C1513 C 0.61667 0.9356 0.42903 0.0
C1514 C 0.63551 0.90886 0.45612 0.0
C1515 C 0.64919 0.90681 0.43312 0.0
C1516 C 0.64717 0.91983 0.40838 0.0
H1517 H 0.6592 0.80346 0.33054 0.0
H1518 H 0.64581 0.82257 0.36898 0.0
C1519 C 0.63115 0.93424 0.40638 0.0
C1520 C 0.66226 0.88814 0.43301 0.0
H1521 H 0.71789 0.88385 0.40704 0.0
C1522 C 0.64496 0.86075 0.43526 0.0
C1523 C 0.68976 0.89651 0.42521 0.0
C1524 C 0.70994 0.92571 0.42465 0.0
C1525 C 0.65316 0.84144 0.42613 0.0
C1526 C 0.679 0.85 0.41423 0.0
C1527 C 0.6978 0.87725 0.41572 0.0
C1528 C 0.68444 0.83254 0.39494 0.0
C1529 C 0.63324 0.81224 0.42739 0.0
C1530 C 0.71048 0.83162 0.39681 0.0
C1531 C 0.71846 0.82136 0.37447 0.0
C1532 C 0.70046 0.81189 0.34997 0.0
C1533 C 0.67361 0.81101 0.34901 0.0
C1534 C 0.66573 0.82142 0.37124 0.0
H1535 H 0.62169 0.80844 0.44647 0.0
H1536 H 0.61752 0.80669 0.4091 0.0
H1537 H 0.64432 0.79916 0.42723 0.0
H1538 H 0.72531 0.84041 0.41478 0.0
H1539 H 0.73941 0.8225 0.37572 0.0
H1540 H 0.86549 0.20206 0.22465 0.0
H1541 H 0.88345 0.17265 0.24913 0.0
H1542 H 0.87696 0.20472 0.3283 0.0
H1543 H 0.85887 0.23367 0.30434 0.0
H1544 H 0.9308 0.18523 0.28707 0.0
H1545 H 0.83395 0.12433 0.33773 0.0
H1546 H 0.83468 0.14609 0.30923 0.0
H1547 H 0.84608 0.15961 0.3443 0.0
C1548 C 0.86784 0.20278 0.24727 0.0
C1549 C 0.86052 0.22013 0.26247 0.0
C1550 C 0.87812 0.18598 0.26123 0.0
C1551 C 0.88104 0.18608 0.29059 0.0
C1552 C 0.87427 0.20377 0.30569 0.0
H1553 H 0.94158 0.11591 0.42482 0.0
H1554 H 0.92399 0.14172 0.3941 0.0
C1555 C 0.86406 0.22049 0.29185 0.0
C1556 C 0.89153 0.16814 0.30573 0.0
H1557 H 0.87544 0.12089 0.35608 0.0
C1558 C 0.91858 0.17089 0.30188 0.0
C1559 C 0.87558 0.14942 0.32509 0.0
C1560 C 0.84586 0.14445 0.32917 0.0
C1561 C 0.9305 0.15623 0.31768 0.0
C1562 C 0.91481 0.1381 0.33759 0.0
C1563 C 0.88753 0.1349 0.34094 0.0
C1564 C 0.92655 0.12286 0.35586 0.0
C1565 C 0.96015 0.16098 0.31369 0.0
C1566 C 0.93379 0.10355 0.34462 0.0
C1567 C 0.94399 0.08875 0.36218 0.0
C1568 C 0.94718 0.093 0.39137 0.0
C1569 C 0.93992 0.11242 0.40247 0.0
C1570 C 0.92964 0.12708 0.38493 0.0
H1571 H 0.9713 0.17944 0.30193 0.0
H1572 H 0.97211 0.16262 0.33417 0.0
H1573 H 0.95987 0.14375 0.30179 0.0
H1574 H 0.93119 0.09965 0.32228 0.0
H1575 H 0.94943 0.07403 0.35291 0.0
H1576 H 0.78594 0.20599 0.16592 0.0
H1577 H 0.74784 0.17028 0.13789 0.0
H1578 H 0.69095 0.16488 0.19969 0.0
H1579 H 0.72937 0.19954 0.22827 0.0
H1580 H 0.68173 0.11743 0.18442 0.0
H1581 H 0.68682 0.17425 0.08804 0.0
H1582 H 0.71945 0.17285 0.09766 0.0
H1583 H 0.70656 0.19007 0.12029 0.0
C1584 C 0.76525 0.19733 0.17328 0.0
C1585 C 0.7605 0.20564 0.19903 0.0
C1586 C 0.7434 0.17701 0.15721 0.0
C1587 C 0.71623 0.16525 0.16626 0.0
C1588 C 0.71162 0.17362 0.19212 0.0
H1589 H 0.57294 0.0661 0.05187 0.0
H1590 H 0.60588 0.10176 0.08388 0.0
C1591 C 0.73357 0.19345 0.20844 0.0
C1592 C 0.69278 0.1436 0.14941 0.0
H1593 H 0.65954 0.12686 0.08389 0.0
C1594 C 0.67675 0.11963 0.16249 0.0
C1595 C 0.68577 0.14652 0.1209 0.0
C1596 C 0.70036 0.17243 0.106 0.0
C1597 C 0.65438 0.0984 0.14783 0.0
C1598 C 0.64851 0.10072 0.11892 0.0
C1599 C 0.66415 0.12488 0.10597 0.0
C1600 C 0.62672 0.07825 0.1015 0.0
C1601 C 0.63698 0.074 0.16373 0.0
C1602 C 0.62715 0.05301 0.10087 0.0
C1603 C 0.60783 0.03242 0.08316 0.0
C1604 C 0.58812 0.03683 0.06517 0.0
C1605 C 0.58755 0.06198 0.06584 0.0
C1606 C 0.60657 0.08245 0.08396 0.0
H1607 H 0.63751 0.07911 0.18615 0.0
H1608 H 0.61484 0.06466 0.15493 0.0
H1609 H 0.64569 0.05904 0.16264 0.0
H1610 H 0.64298 0.04942 0.11347 0.0
H1611 H 0.60899 0.01333 0.08284 0.0
H1612 H 0.76108 0.79159 0.84414 0.0
H1613 H 0.73665 0.81346 0.86799 0.0
H1614 H 0.70543 0.83031 0.78829 0.0
H1615 H 0.72893 0.80789 0.76458 0.0
H1616 H 0.73824 0.86118 0.87279 0.0
H1617 H 0.63324 0.80069 0.82123 0.0
H1618 H 0.6622 0.7925 0.81731 0.0
H1619 H 0.65778 0.81779 0.79619 0.0
C1620 C 0.74898 0.79986 0.83156 0.0
C1621 C 0.7472 0.79748 0.80207 0.0
C1622 C 0.73481 0.81253 0.84538 0.0
C1623 C 0.71805 0.82334 0.83044 0.0
C1624 C 0.71699 0.82158 0.80097 0.0
H1625 H 0.61772 0.91095 0.87309 0.0
H1626 H 0.64232 0.88887 0.85045 0.0
C1627 C 0.73095 0.80882 0.78719 0.0
C1628 C 0.70231 0.83673 0.8454 0.0
H1629 H 0.6386 0.83957 0.84666 0.0
C1630 C 0.71637 0.85614 0.86704 0.0
C1631 C 0.67354 0.83078 0.83856 0.0
C1632 C 0.65572 0.80912 0.81728 0.0
C1633 C 0.70323 0.86984 0.881 0.0
C1634 C 0.67453 0.86404 0.87398 0.0
C1635 C 0.66045 0.84457 0.85243 0.0
C1636 C 0.65886 0.87774 0.8885 0.0
C1637 C 0.72081 0.89121 0.90264 0.0
C1638 C 0.65875 0.87897 0.91789 0.0
C1639 C 0.64433 0.89163 0.93113 0.0
C1640 C 0.62899 0.9037 0.91576 0.0
C1641 C 0.62873 0.90201 0.88627 0.0
C1642 C 0.64316 0.88929 0.87304 0.0
H1643 H 0.74344 0.89924 0.89942 0.0
H1644 H 0.71476 0.90812 0.90225 0.0
H1645 H 0.71783 0.88241 0.92366 0.0
H1646 H 0.66954 0.86968 0.93088 0.0
H1647 H 0.64492 0.89143 0.95368 0.0
H1648 H 1.01159 0.94689 0.58966 0.0
H1649 H 0.98181 0.91771 0.62392 0.0
H1650 H 0.9103 0.92484 0.58271 0.0
H1651 H 0.93999 0.95427 0.54841 0.0
H1652 H 0.91253 0.9297 0.6407 0.0
H1653 H 0.92577 0.83947 0.61072 0.0
H1654 H 0.95816 0.86835 0.61936 0.0
H1655 H 0.93586 0.86863 0.58931 0.0
C1656 C 0.98954 0.94232 0.58779 0.0
C1657 C 0.9783 0.95299 0.56605 0.0
C1658 C 0.97244 0.92543 0.6074 0.0
C1659 C 0.94361 0.91863 0.60578 0.0
C1660 C 0.93241 0.92963 0.58443 0.0
H1661 H 0.81879 0.78557 0.69037 0.0
H1662 H 0.84714 0.81691 0.65662 0.0
C1663 C 0.94948 0.94649 0.56475 0.0
C1664 C 0.92522 0.90016 0.62636 0.0
H1665 H 0.9028 0.83687 0.65184 0.0
C1666 C 0.91039 0.90939 0.6431 0.0
C1667 C 0.92199 0.87346 0.62934 0.0
C1668 C 0.93605 0.86173 0.61107 0.0
C1669 C 0.8929 0.89293 0.66292 0.0
C1670 C 0.89035 0.86649 0.66651 0.0
C1671 C 0.90486 0.85715 0.64943 0.0
C1672 C 0.87235 0.84796 0.68733 0.0
C1673 C 0.87685 0.90386 0.67941 0.0
C1674 C 0.87687 0.85473 0.71606 0.0
C1675 C 0.86045 0.83681 0.73547 0.0
C1676 C 0.83925 0.81161 0.72665 0.0
C1677 C 0.83473 0.80489 0.69792 0.0
C1678 C 0.85108 0.82279 0.67855 0.0
H1679 H 0.87493 0.92111 0.66901 0.0
H1680 H 0.85555 0.88819 0.68238 0.0
H1681 H 0.88812 0.91095 0.7003 0.0
H1682 H 0.89349 0.87369 0.7236 0.0
H1683 H 0.86468 0.84252 0.75745 0.0
H1684 H 0.12053 0.79165 0.88641 0.0
H1685 H 0.10296 0.82168 0.90573 0.0
H1686 H 0.18716 0.88386 0.91779 0.0
H1687 H 0.20496 0.85391 0.89852 0.0
H1688 H 0.11454 0.84608 0.95788 0.0
H1689 H 0.1459 0.92217 0.87556 0.0
H1690 H 0.14592 0.88976 0.87141 0.0
H1691 H 0.17414 0.91595 0.89175 0.0
C1692 C 0.13536 0.8117 0.89322 0.0
C1693 C 0.16419 0.82036 0.89083 0.0
C1694 C 0.12526 0.82887 0.9042 0.0
C1695 C 0.14368 0.85513 0.91294 0.0
C1696 C 0.17247 0.86387 0.91065 0.0
H1697 H 0.09839 0.95789 0.01716 0.0
H1698 H 0.11962 0.92991 1.0 0.0
C1699 C 0.18261 0.84672 0.8996 0.0
C1700 C 0.13269 0.87309 0.92485 0.0
H1701 H 0.1279 0.93236 0.91514 0.0
C1702 C 0.11749 0.86497 0.94857 0.0
C1703 C 0.13629 0.89761 0.91251 0.0
C1704 C 0.15122 0.90684 0.88625 0.0
C1705 C 0.10585 0.88069 0.96029 0.0
C1706 C 0.1099 0.90542 0.94825 0.0
C1707 C 0.12506 0.91353 0.92453 0.0
C1708 C 0.09732 0.92253 0.95898 0.0
C1709 C 0.08861 0.8703 0.98496 0.0
C1710 C 0.07816 0.92814 0.94149 0.0
C1711 C 0.06612 0.94419 0.95114 0.0
C1712 C 0.07306 0.95517 0.97852 0.0
C1713 C 0.09244 0.94969 0.99601 0.0
C1714 C 0.1045 0.93357 0.98628 0.0
H1715 H 0.08206 0.84848 0.98751 0.0
H1716 H 0.10126 0.88087 1.00429 0.0
H1717 H 0.06962 0.87406 0.98272 0.0
H1718 H 0.07235 0.9199 0.92034 0.0
H1719 H 0.05136 0.94798 0.937 0.0
H1720 H 0.99328 0.41475 0.55347 0.0
H1721 H 0.95709 0.38204 0.58087 0.0
H1722 H 0.90121 0.41778 0.55537 0.0
H1723 H 0.93716 0.45056 0.52858 0.0
H1724 H 0.93465 0.40757 0.62407 0.0
H1725 H 0.85316 0.33218 0.5504 0.0
H1726 H 0.88955 0.34881 0.54315 0.0
H1727 H 0.86819 0.36669 0.54031 0.0
C1728 C 0.973 0.41507 0.55321 0.0
C1729 C 0.96795 0.43521 0.53936 0.0
C1730 C 0.95244 0.39647 0.56873 0.0
C1731 C 0.92658 0.39754 0.56979 0.0
C1732 C 0.92095 0.41653 0.55442 0.0
H1733 H 0.78565 0.32894 0.67209 0.0
H1734 H 0.81649 0.35187 0.6353 0.0
C1735 C 0.94155 0.43532 0.53939 0.0
C1736 C 0.90724 0.38214 0.59039 0.0
H1737 H 0.84222 0.33235 0.5973 0.0
C1738 C 0.91456 0.3909 0.61835 0.0
C1739 C 0.88087 0.36106 0.58247 0.0
C1740 C 0.87233 0.35141 0.55247 0.0
C1741 C 0.89598 0.37916 0.63882 0.0
C1742 C 0.86978 0.35758 0.6311 0.0
C1743 C 0.86237 0.34889 0.60304 0.0
C1744 C 0.85055 0.34303 0.65226 0.0
C1745 C 0.90433 0.39038 0.66838 0.0
C1746 C 0.85943 0.33019 0.67341 0.0
C1747 C 0.84218 0.31748 0.69439 0.0
C1748 C 0.8155 0.31702 0.6944 0.0
C1749 C 0.80619 0.32917 0.67268 0.0
C1750 C 0.82369 0.34216 0.65169 0.0
H1751 H 0.92068 0.41139 0.66906 0.0
H1752 H 0.88606 0.38979 0.67865 0.0
H1753 H 0.91306 0.3782 0.68064 0.0
H1754 H 0.87985 0.33015 0.67379 0.0
H1755 H 0.84984 0.30791 0.71053 0.0
H1756 H 0.49755 0.0444 0.43146 0.0
H1757 H 0.47511 0.07138 0.41022 0.0
H1758 H 0.44917 0.08166 0.49032 0.0
H1759 H 0.47152 0.05453 0.51179 0.0
H1760 H 0.40632 0.06904 0.44752 0.0
H1761 H 0.50299 0.15271 0.41633 0.0
H1762 H 0.49824 0.12041 0.40379 0.0
H1763 H 0.50362 0.12788 0.44072 0.0
C1764 C 0.48715 0.0524 0.44468 0.0
C1765 C 0.48657 0.04724 0.47348 0.0
C1766 C 0.47442 0.06805 0.43246 0.0
C1767 C 0.46069 0.07906 0.44861 0.0
C1768 C 0.4597 0.07362 0.47731 0.0
H1769 H 0.40766 0.20434 0.39644 0.0
H1770 H 0.43059 0.17832 0.41892 0.0
C1771 C 0.47258 0.05807 0.4896 0.0
C1772 C 0.44702 0.09576 0.43549 0.0
H1773 H 0.45991 0.15253 0.39818 0.0
C1774 C 0.4181 0.08732 0.4368 0.0
C1775 C 0.46225 0.11991 0.42174 0.0
C1776 C 0.49353 0.13097 0.42072 0.0
C1777 C 0.40403 0.10188 0.42433 0.0
C1778 C 0.41909 0.12555 0.40974 0.0
C1779 C 0.44814 0.13431 0.409 0.0
C1780 C 0.40519 0.14158 0.39539 0.0
C1781 C 0.37314 0.09196 0.42736 0.0
C1782 C 0.38348 0.13003 0.37409 0.0
C1783 C 0.37042 0.14501 0.36088 0.0
C1784 C 0.37865 0.17213 0.36847 0.0
C1785 C 0.40077 0.18374 0.38955 0.0
C1786 C 0.41388 0.16875 0.40267 0.0
H1787 H 0.36641 0.07831 0.44519 0.0
H1788 H 0.3676 0.10892 0.43047 0.0
H1789 H 0.36122 0.08066 0.40806 0.0
H1790 H 0.37673 0.10937 0.36743 0.0
H1791 H 0.354 0.13529 0.34443 0.0
H1792 H 0.57832 0.51181 0.07639 0.0
H1793 H 0.61987 0.53286 0.10952 0.0
H1794 H 0.60628 0.60437 0.11186 0.0
H1795 H 0.5658 0.58382 0.07743 0.0
H1796 H 0.66728 0.58852 0.0955 0.0
H1797 H 0.62075 0.582 0.19652 0.0
H1798 H 0.60343 0.55821 0.16783 0.0
H1799 H 0.60351 0.59073 0.16701 0.0
C1800 C 0.58471 0.53218 0.08357 0.0
C1801 C 0.56994 0.54673 0.07361 0.0
C1802 C 0.60796 0.54394 0.10283 0.0
C1803 C 0.61608 0.57014 0.11282 0.0
C1804 C 0.60015 0.58405 0.1043 0.0
H1805 H 0.73768 0.71283 0.16526 0.0
H1806 H 0.71068 0.67097 0.13858 0.0
C1807 C 0.5771 0.57236 0.0848 0.0
C1808 C 0.64246 0.58413 0.13024 0.0
H1809 H 0.66735 0.61584 0.19355 0.0
C1810 C 0.66756 0.59399 0.11719 0.0
C1811 C 0.64261 0.59076 0.15851 0.0
C1812 C 0.61618 0.57973 0.17348 0.0
C1813 C 0.69259 0.61241 0.13114 0.0
C1814 C 0.69219 0.62106 0.15859 0.0
C1815 C 0.66758 0.6092 0.17243 0.0
C1816 C 0.71499 0.64555 0.17146 0.0
C1817 C 0.71886 0.62353 0.11593 0.0
C1818 C 0.72701 0.64513 0.19842 0.0
C1819 C 0.74253 0.66908 0.21356 0.0
C1820 C 0.74592 0.69352 0.20189 0.0
C1821 C 0.73564 0.6941 0.1743 0.0
C1822 C 0.72036 0.67023 0.15908 0.0
H1823 H 0.71842 0.60889 0.1 0.0
H1824 H 0.72042 0.64182 0.10495 0.0
H1825 H 0.7378 0.62898 0.13064 0.0
H1826 H 0.72273 0.62626 0.20841 0.0
H1827 H 0.74993 0.66829 0.23504 0.0
H1828 H 0.23024 0.23231 0.6625 0.0
H1829 H 0.1969 0.19269 0.63531 0.0
H1830 H 0.20177 0.142 0.70239 0.0
H1831 H 0.23542 0.18138 0.72942 0.0
H1832 H 0.19772 0.1194 0.64968 0.0
H1833 H 0.1169 0.15648 0.65961 0.0
H1834 H 0.14698 0.1802 0.6438 0.0
H1835 H 0.15053 0.17093 0.6794 0.0
C1836 C 0.22456 0.21266 0.67116 0.0
C1837 C 0.23498 0.20982 0.6981 0.0
C1838 C 0.2055 0.19013 0.65573 0.0
C1839 C 0.19647 0.16463 0.66725 0.0
C1840 C 0.20838 0.16159 0.69333 0.0
H1841 H 0.03744 0.04341 0.59362 0.0
H1842 H 0.07432 0.06995 0.62962 0.0
C1843 C 0.22757 0.18408 0.70868 0.0
C1844 C 0.17304 0.14149 0.65305 0.0
H1845 H 0.10531 0.12032 0.62706 0.0
C1846 C 0.17739 0.11938 0.6449 0.0
C1847 C 0.14633 0.14119 0.64788 0.0
C1848 C 0.13975 0.16333 0.6584 0.0
C1849 C 0.156 0.0975 0.63018 0.0
C1850 C 0.13 0.09828 0.62289 0.0
C1851 C 0.1253 0.11979 0.63243 0.0
C1852 C 0.10829 0.07859 0.6032 0.0
C1853 C 0.16158 0.07391 0.62258 0.0
C1854 C 0.11521 0.07443 0.57665 0.0
C1855 C 0.09435 0.05905 0.55643 0.0
C1856 C 0.06616 0.04817 0.56218 0.0
C1857 C 0.05911 0.0518 0.58881 0.0
C1858 C 0.08011 0.0668 0.6093 0.0
H1859 H 0.17663 0.0714 0.63844 0.0
H1860 H 0.14207 0.05499 0.62068 0.0
H1861 H 0.17115 0.07753 0.60232 0.0
H1862 H 0.13661 0.08406 0.57108 0.0
H1863 H 0.10021 0.05665 0.53588 0.0
H1864 H 0.70272 0.3204 0.28461 0.0
H1865 H 0.66758 0.33381 0.30009 0.0
H1866 H 0.67823 0.30724 0.38299 0.0
H1867 H 0.71284 0.29309 0.36763 0.0
H1868 H 0.61495 0.30029 0.33466 0.0
H1869 H 0.70073 0.39302 0.38377 0.0
H1870 H 0.70617 0.37491 0.35552 0.0
H1871 H 0.70255 0.36158 0.3899 0.0
C1872 C 0.69712 0.31684 0.30596 0.0
C1873 C 0.7107 0.30595 0.32501 0.0
C1874 C 0.67714 0.32455 0.31473 0.0
C1875 C 0.67062 0.32154 0.3426 0.0
C1876 C 0.68323 0.30972 0.3614 0.0
H1877 H 0.5887 0.39456 0.43759 0.0
H1878 H 0.6129 0.36828 0.42333 0.0
C1879 C 0.7031 0.3019 0.35265 0.0
C1880 C 0.65242 0.33281 0.35265 0.0
H1881 H 0.65461 0.38665 0.38836 0.0
C1882 C 0.62345 0.31911 0.34647 0.0
C1883 C 0.66388 0.35729 0.36804 0.0
C1884 C 0.69504 0.37276 0.37468 0.0
C1885 C 0.60539 0.32935 0.35557 0.0
C1886 C 0.61689 0.3541 0.37062 0.0
C1887 C 0.64591 0.36762 0.3769 0.0
C1888 C 0.59949 0.36699 0.37942 0.0
C1889 C 0.57426 0.31349 0.34931 0.0
C1890 C 0.58385 0.37472 0.35941 0.0
C1891 C 0.57001 0.38968 0.36749 0.0
C1892 C 0.57199 0.3974 0.39564 0.0
C1893 C 0.58713 0.38908 0.41571 0.0
C1894 C 0.60079 0.374 0.40764 0.0
H1895 H 0.5686 0.29195 0.3452 0.0
H1896 H 0.56264 0.31523 0.36686 0.0
H1897 H 0.56733 0.32139 0.33037 0.0
H1898 H 0.58321 0.37008 0.33744 0.0
H1899 H 0.55874 0.39613 0.35161 0.0
H1900 H 0.49104 0.90594 0.03867 0.0
H1901 H 0.46079 0.87007 0.06749 0.0
H1902 H 0.45269 0.92854 0.1204 0.0
H1903 H 0.48311 0.96447 0.09215 0.0
H1904 H 0.46379 0.89029 0.14969 0.0
H1905 H 0.3755 0.84382 0.06823 0.0
H1906 H 0.40883 0.84756 0.05809 0.0
H1907 H 0.40346 0.87681 0.06509 0.0
C1908 C 0.48299 0.91119 0.05656 0.0
C1909 C 0.48939 0.93806 0.06305 0.0
C1910 C 0.46552 0.89066 0.07281 0.0
C1911 C 0.45417 0.89672 0.09569 0.0
C1912 C 0.46111 0.92351 0.10265 0.0
H1913 H 0.31827 0.79093 0.19028 0.0
H1914 H 0.3475 0.82481 0.15891 0.0
C1915 C 0.47852 0.944 0.08647 0.0
C1916 C 0.43538 0.87526 0.11283 0.0
H1917 H 0.37207 0.8208 0.11074 0.0
C1918 C 0.44373 0.87508 0.14121 0.0
C1919 C 0.40905 0.85582 0.10171 0.0
C1920 C 0.39847 0.85604 0.07167 0.0
C1921 C 0.42657 0.8557 0.15881 0.0
C1922 C 0.40067 0.83567 0.1475 0.0
C1923 C 0.3921 0.83606 0.1192 0.0
C1924 C 0.38229 0.81413 0.16485 0.0
C1925 C 0.43613 0.85716 0.18945 0.0
C1926 C 0.39194 0.79654 0.17782 0.0
C1927 C 0.37548 0.7774 0.19582 0.0
C1928 C 0.3489 0.77529 0.20087 0.0
C1929 C 0.3387 0.79213 0.18684 0.0
C1930 C 0.35534 0.81147 0.16895 0.0
H1931 H 0.45226 0.87749 0.19601 0.0
H1932 H 0.4183 0.85176 0.20261 0.0
H1933 H 0.4455 0.84283 0.19346 0.0
H1934 H 0.41242 0.79789 0.17435 0.0
H1935 H 0.38376 0.76445 0.20601 0.0
H1936 H 0.95804 0.53567 0.9976 0.0
H1937 H 0.93283 0.55997 0.97514 0.0
H1938 H 0.9969 0.59401 0.91789 0.0
H1939 H 1.02111 0.56854 0.93893 0.0
H1940 H 0.9474 0.61274 0.9706 0.0
H1941 H 0.92902 0.56872 0.8639 0.0
H1942 H 0.94135 0.55509 0.89334 0.0
H1943 H 0.9654 0.58373 0.87593 0.0
C1944 C 0.96673 0.54826 0.98016 0.0
C1945 C 0.99161 0.54994 0.97004 0.0
C1946 C 0.95232 0.56228 0.96738 0.0
C1947 C 0.96266 0.57883 0.94455 0.0
C1948 C 0.98787 0.58096 0.9349 0.0
H1949 H 0.91406 0.68724 0.84321 0.0
H1950 H 0.93765 0.66173 0.86579 0.0
C1951 C 1.00191 0.56648 0.94719 0.0
C1952 C 0.94759 0.59436 0.9314 0.0
H1953 H 0.92073 0.60752 0.86883 0.0
C1954 C 0.94136 0.61137 0.94837 0.0
C1955 C 0.93962 0.59283 0.90232 0.0
C1956 C 0.94392 0.57391 0.88286 0.0
C1957 C 0.92818 0.62719 0.93717 0.0
C1958 C 0.92054 0.62591 0.90803 0.0
C1959 C 0.92664 0.6088 0.89108 0.0
C1960 C 0.90618 0.64198 0.89468 0.0
C1961 C 0.92326 0.64568 0.95668 0.0
C1962 C 0.88032 0.63942 0.90296 0.0
C1963 C 0.86676 0.65412 0.8901 0.0
C1964 C 0.87852 0.67182 0.86838 0.0
C1965 C 0.90437 0.67421 0.86002 0.0
C1966 C 0.91788 0.65943 0.87286 0.0
H1967 H 0.9373 0.65021 0.97623 0.0
H1968 H 0.92651 0.66484 0.94658 0.0
H1969 H 0.90136 0.63585 0.96251 0.0
H1970 H 0.87038 0.6258 0.91927 0.0
H1971 H 0.84711 0.65178 0.89749 0.0
H1972 H 0.44237 0.46197 0.05454 0.0
H1973 H 0.41251 0.43206 0.0884 0.0
H1974 H 0.48225 0.41883 0.12481 0.0
H1975 H 0.51205 0.44821 0.09076 0.0
H1976 H 0.43639 0.37243 0.11827 0.0
H1977 H 0.40866 0.44591 0.16976 0.0
H1978 H 0.3999 0.44282 0.13272 0.0
H1979 H 0.43599 0.45577 0.14617 0.0
C1980 C 0.45147 0.45286 0.06984 0.0
C1981 C 0.4798 0.45775 0.06982 0.0
C1982 C 0.43433 0.43582 0.0894 0.0
C1983 C 0.44508 0.42338 0.10968 0.0
C1984 C 0.47332 0.42816 0.10958 0.0
H1985 H 0.36567 0.34306 0.25939 0.0
H1986 H 0.39484 0.37459 0.22594 0.0
C1987 C 0.49042 0.44509 0.09001 0.0
C1988 C 0.42688 0.40478 0.13042 0.0
H1989 H 0.38357 0.40028 0.18152 0.0
C1990 C 0.4249 0.37861 0.1321 0.0
C1991 C 0.41208 0.41273 0.14893 0.0
C1992 C 0.41442 0.44091 0.14958 0.0
C1993 C 0.40845 0.36023 0.15129 0.0
C1994 C 0.39286 0.36787 0.16912 0.0
C1995 C 0.39515 0.39417 0.16775 0.0
C1996 C 0.37438 0.34897 0.18946 0.0
C1997 C 0.40851 0.33297 0.15267 0.0
C1998 C 0.35263 0.32417 0.1803 0.0
C1999 C 0.33607 0.30609 0.19942 0.0
C2000 C 0.34047 0.31242 0.22825 0.0
C2001 C 0.3617 0.33752 0.23738 0.0
C2002 C 0.37839 0.35559 0.21821 0.0
H2003 H 0.42735 0.33302 0.14402 0.0
H2004 H 0.40778 0.32603 0.17448 0.0
H2005 H 0.38984 0.31832 0.14007 0.0
H2006 H 0.34849 0.31869 0.15828 0.0
H2007 H 0.31997 0.28695 0.1916 0.0
H2008 H 0.3968 0.59584 0.97002 0.0
H2009 H 0.36837 0.61691 0.94789 0.0
H2010 H 0.39343 0.60638 0.86738 0.0
H2011 H 0.42141 0.58482 0.88932 0.0
H2012 H 0.38069 0.66102 0.91959 0.0
H2013 H 0.31132 0.57665 0.84847 0.0
H2014 H 0.33468 0.57305 0.87578 0.0
H2015 H 0.34751 0.58731 0.84301 0.0
C2016 C 0.39627 0.59795 0.94758 0.0
C2017 C 0.41137 0.58834 0.93153 0.0
C2018 C 0.37988 0.61 0.93488 0.0
C2019 C 0.37806 0.61288 0.90574 0.0
C2020 C 0.39352 0.60372 0.88973 0.0
H2021 H 0.30001 0.68809 0.78935 0.0
H2022 H 0.32647 0.66564 0.81258 0.0
C2023 C 0.4097 0.59142 0.90238 0.0
C2024 C 0.36072 0.62612 0.89234 0.0
H2025 H 0.30955 0.6185 0.84036 0.0
C2026 C 0.365 0.65156 0.9024 0.0
C2027 C 0.34008 0.61401 0.86983 0.0
C2028 C 0.3329 0.58615 0.85882 0.0
C2029 C 0.34992 0.66533 0.89032 0.0
C2030 C 0.32955 0.65333 0.86763 0.0
C2031 C 0.32516 0.62787 0.85764 0.0
C2032 C 0.31292 0.66696 0.85362 0.0
C2033 C 0.35659 0.693 0.90155 0.0
C2034 C 0.29591 0.67495 0.86865 0.0
C2035 C 0.28063 0.68788 0.85535 0.0
C2036 C 0.2818 0.69303 0.82657 0.0
C2037 C 0.29848 0.68456 0.8115 0.0
C2038 C 0.31371 0.67166 0.82481 0.0
H2039 H 0.37744 0.70217 0.91345 0.0
H2040 H 0.35617 0.70647 0.8844 0.0
H2041 H 0.34069 0.69164 0.91592 0.0
H2042 H 0.29429 0.67109 0.89073 0.0
H2043 H 0.26801 0.69394 0.86771 0.0
H2044 H 0.03952 0.52442 0.57881 0.0
H2045 H 0.05977 0.55335 0.6207 0.0
H2046 H 0.14255 0.57591 0.59434 0.0
H2047 H 0.12235 0.54675 0.55261 0.0
H2048 H 0.13969 0.56368 0.64972 0.0
H2049 H 0.09227 0.63439 0.62575 0.0
H2050 H 0.06739 0.59992 0.62624 0.0
H2051 H 0.09218 0.61069 0.60013 0.0
C2052 C 0.06201 0.53583 0.58181 0.0
C2053 C 0.07936 0.53358 0.56231 0.0
C2054 C 0.07358 0.55237 0.60575 0.0
C2055 C 0.10271 0.56716 0.61056 0.0
C2056 C 0.12003 0.56478 0.59111 0.0
H2057 H 0.19798 0.70509 0.71728 0.0
H2058 H 0.17341 0.67202 0.6798 0.0
C2059 C 0.10847 0.54817 0.56724 0.0
C2060 C 0.11528 0.58486 0.63594 0.0
H2061 H 0.11746 0.6399 0.66988 0.0
C2062 C 0.13477 0.58031 0.65418 0.0
C2063 C 0.10902 0.60668 0.64169 0.0
C2064 C 0.08928 0.61344 0.62233 0.0
C2065 C 0.1483 0.59705 0.6778 0.0
C2066 C 0.14187 0.61874 0.68366 0.0
C2067 C 0.1222 0.62313 0.66556 0.0
C2068 C 0.15686 0.6384 0.7071 0.0
C2069 C 0.1701 0.59196 0.69571 0.0
C2070 C 0.15576 0.63063 0.73515 0.0
C2071 C 0.17009 0.64964 0.75681 0.0
C2072 C 0.18559 0.67672 0.75073 0.0
C2073 C 0.18639 0.68438 0.7227 0.0
C2074 C 0.17223 0.66548 0.70119 0.0
H2075 H 0.17694 0.57831 0.68504 0.0
H2076 H 0.18874 0.61102 0.70139 0.0
H2077 H 0.16118 0.5825 0.71529 0.0
H2078 H 0.14363 0.60994 0.74031 0.0
H2079 H 0.16895 0.64321 0.77822 0.0
H2080 H 0.32159 0.33648 0.69944 0.0
H2081 H 0.35338 0.36536 0.66652 0.0
H2082 H 0.38579 0.30694 0.6558 0.0
H2083 H 0.35399 0.27772 0.68887 0.0
H2084 H 0.42766 0.36286 0.6651 0.0
H2085 H 0.34508 0.34999 0.58043 0.0
H2086 H 0.33856 0.35835 0.61438 0.0
H2087 H 0.33974 0.32682 0.60855 0.0
C2088 C 0.33537 0.32963 0.69007 0.0
C2089 C 0.3351 0.30467 0.69674 0.0
C2090 C 0.35351 0.3462 0.6712 0.0
C2091 C 0.37175 0.33819 0.65857 0.0
C2092 C 0.3718 0.31344 0.66531 0.0
H2093 H 0.45603 0.41154 0.51167 0.0
H2094 H 0.42836 0.38096 0.54621 0.0
C2095 C 0.35354 0.29674 0.68413 0.0
C2096 C 0.39064 0.35575 0.63827 0.0
H2097 H 0.39042 0.38371 0.57471 0.0
C2098 C 0.41963 0.36736 0.64523 0.0
C2099 C 0.38006 0.36132 0.61232 0.0
C2100 C 0.34918 0.34834 0.60324 0.0
C2101 C 0.43838 0.38474 0.62701 0.0
C2102 C 0.42774 0.39106 0.60136 0.0
C2103 C 0.39868 0.37909 0.59438 0.0
C2104 C 0.44614 0.40944 0.581 0.0
C2105 C 0.46935 0.39567 0.63527 0.0
C2106 C 0.46553 0.43572 0.58891 0.0
C2107 C 0.48189 0.45304 0.5692 0.0
C2108 C 0.47856 0.44465 0.54114 0.0
C2109 C 0.459 0.41853 0.53319 0.0
C2110 C 0.44316 0.40105 0.55293 0.0
H2111 H 0.47413 0.38279 0.65069 0.0
H2112 H 0.48135 0.39743 0.61684 0.0
H2113 H 0.47669 0.41586 0.64517 0.0
H2114 H 0.46762 0.44307 0.61016 0.0
H2115 H 0.49634 0.4732 0.57573 0.0
H2116 H 0.2329 0.66228 0.23235 0.0
H2117 H 0.19583 0.64386 0.19469 0.0
H2118 H 0.25765 0.667 0.13435 0.0
H2119 H 0.29514 0.68515 0.17237 0.0
H2120 H 0.18328 0.66934 0.14923 0.0
H2121 H 0.20999 0.58731 0.11647 0.0
H2122 H 0.22463 0.60622 0.14881 0.0
H2123 H 0.2376 0.62063 0.11627 0.0
C2124 C 0.23861 0.66327 0.21106 0.0
C2125 C 0.26678 0.67491 0.20514 0.0
C2126 C 0.21743 0.65291 0.18959 0.0
C2127 C 0.22403 0.654 0.16181 0.0
C2128 C 0.2522 0.66568 0.15575 0.0
H2129 H 0.10015 0.60171 0.01788 0.0
H2130 H 0.1373 0.63119 0.05199 0.0
C2131 C 0.27353 0.67594 0.17737 0.0
C2132 C 0.20108 0.64222 0.13958 0.0
H2133 H 0.17096 0.58993 0.09252 0.0
C2134 C 0.18068 0.65215 0.13658 0.0
C2135 C 0.19773 0.61967 0.12339 0.0
C2136 C 0.21848 0.60762 0.12643 0.0
C2137 C 0.15663 0.63966 0.11816 0.0
C2138 C 0.15317 0.61691 0.1024 0.0
C2139 C 0.17386 0.60744 0.10481 0.0
C2140 C 0.12767 0.6016 0.08411 0.0
C2141 C 0.13457 0.6501 0.11635 0.0
C2142 C 0.10961 0.57565 0.0914 0.0
C2143 C 0.08852 0.55884 0.07207 0.0
C2144 C 0.08542 0.56774 0.04511 0.0
C2145 C 0.10223 0.59439 0.03852 0.0
C2146 C 0.12336 0.61124 0.05794 0.0
H2147 H 0.13933 0.6666 0.13183 0.0
H2148 H 0.13298 0.65763 0.09509 0.0
H2149 H 0.11386 0.63362 0.11983 0.0
H2150 H 0.11277 0.56795 0.11156 0.0
H2151 H 0.07583 0.5384 0.07769 0.0
H2152 H 0.72611 0.40558 0.65977 0.0
H2153 H 0.71144 0.43059 0.62497 0.0
H2154 H 0.67963 0.36215 0.56822 0.0
H2155 H 0.69383 0.33684 0.60305 0.0
H2156 H 0.71523 0.44095 0.5622 0.0
H2157 H 0.61123 0.37298 0.598 0.0
H2158 H 0.64368 0.37791 0.61728 0.0
H2159 H 0.63217 0.35746 0.5859 0.0
C2160 C 0.71674 0.39617 0.63955 0.0
C2161 C 0.7106 0.36919 0.6342 0.0
C2162 C 0.70862 0.41052 0.61966 0.0
C2163 C 0.69429 0.398 0.59431 0.0
C2164 C 0.69073 0.37201 0.58776 0.0
H2165 H 0.58352 0.44635 0.48872 0.0
H2166 H 0.61625 0.42692 0.50218 0.0
C2167 C 0.69888 0.35764 0.60764 0.0
C2168 C 0.67839 0.40998 0.57764 0.0
H2169 H 0.61245 0.40586 0.56639 0.0
C2170 C 0.69272 0.43313 0.56268 0.0
C2171 C 0.64911 0.39982 0.5789 0.0
C2172 C 0.63303 0.3758 0.59601 0.0
C2173 C 0.67832 0.44661 0.54905 0.0
C2174 C 0.64919 0.43655 0.55065 0.0
C2175 C 0.63482 0.41313 0.56505 0.0
C2176 C 0.63332 0.45126 0.53999 0.0
C2177 C 0.69414 0.47181 0.53362 0.0
C2178 C 0.63243 0.47131 0.5569 0.0
C2179 C 0.61363 0.48218 0.54952 0.0
C2180 C 0.59552 0.47312 0.52509 0.0
C2181 C 0.5973 0.45376 0.5076 0.0
C2182 C 0.61599 0.44273 0.51515 0.0
H2183 H 0.71623 0.4755 0.53184 0.0
H2184 H 0.68372 0.47051 0.51235 0.0
H2185 H 0.69389 0.48918 0.54481 0.0
H2186 H 0.64548 0.47773 0.57637 0.0
H2187 H 0.61289 0.49723 0.56328 0.0
H2188 H 0.87483 0.73305 0.12434 0.0
H2189 H 0.88503 0.71447 0.08282 0.0
H2190 H 0.93138 0.68126 0.13535 0.0
H2191 H 0.92064 0.69863 0.17655 0.0
H2192 H 0.95183 0.69861 0.08027 0.0
H2193 H 0.83791 0.63072 0.07966 0.0
H2194 H 0.84938 0.66634 0.07683 0.0
H2195 H 0.85606 0.65284 0.10921 0.0
C2196 C 0.88779 0.72233 0.12694 0.0
C2197 C 0.89623 0.71663 0.15379 0.0
C2198 C 0.89371 0.71194 0.10321 0.0
C2199 C 0.90844 0.69614 0.10622 0.0
C2200 C 0.91993 0.69345 0.13269 0.0
H2201 H 0.91471 0.55991 0.10205 0.0
H2202 H 0.89929 0.59567 0.09896 0.0
C2203 C 0.91383 0.70353 0.15631 0.0
C2204 C 0.90756 0.67793 0.08366 0.0
H2205 H 0.86675 0.61322 0.06237 0.0
C2206 C 0.93311 0.68031 0.07511 0.0
C2207 C 0.88293 0.65417 0.07721 0.0
C2208 C 0.85493 0.65063 0.08613 0.0
C2209 C 0.9354 0.65824 0.06358 0.0
C2210 C 0.91125 0.63352 0.06008 0.0
C2211 C 0.88511 0.63224 0.06521 0.0
C2212 C 0.91389 0.60815 0.05802 0.0
C2213 C 0.96413 0.66073 0.05849 0.0
C2214 C 0.92581 0.60253 0.03543 0.0
C2215 C 0.93511 0.58248 0.03746 0.0
C2216 C 0.93194 0.56742 0.06177 0.0
C2217 C 0.91733 0.5712 0.08308 0.0
C2218 C 0.90848 0.59157 0.08127 0.0
H2219 H 0.98092 0.68084 0.06472 0.0
H2220 H 0.96859 0.64546 0.07034 0.0
H2221 H 0.965 0.65725 0.03595 0.0
H2222 H 0.92966 0.61483 0.01716 0.0
H2223 H 0.94626 0.5798 0.02077 0.0
H2224 H 0.90529 0.59957 0.55805 0.0
H2225 H 0.88139 0.62168 0.58176 0.0
H2226 H 0.9313 0.62577 0.65816 0.0
H2227 H 0.95545 0.60393 0.63458 0.0
H2228 H 0.84823 0.61192 0.6211 0.0
H2229 H 0.94219 0.70048 0.66189 0.0
H2230 H 0.94415 0.67683 0.63762 0.0
H2231 H 0.94291 0.67015 0.67443 0.0
C2232 C 0.91138 0.60501 0.57994 0.0
C2233 C 0.93298 0.59967 0.59385 0.0
C2234 C 0.89751 0.61797 0.59368 0.0
C2235 C 0.90447 0.62648 0.62208 0.0
C2236 C 0.92568 0.62073 0.63615 0.0
H2237 H 0.84057 0.7022 0.7451 0.0
H2238 H 0.86396 0.68002 0.72048 0.0
C2239 C 0.93966 0.60789 0.6224 0.0
C2240 C 0.88925 0.64058 0.63682 0.0
H2241 H 0.89945 0.69413 0.68015 0.0
C2242 C 0.85969 0.63002 0.6338 0.0
C2243 C 0.90338 0.66447 0.65373 0.0
C2244 C 0.93489 0.67882 0.65691 0.0
C2245 C 0.84437 0.64178 0.64727 0.0
C2246 C 0.85851 0.66545 0.66441 0.0
C2247 C 0.88804 0.67607 0.66738 0.0
C2248 C 0.84332 0.67922 0.67962 0.0
C2249 C 0.81286 0.62801 0.6436 0.0
C2250 C 0.82358 0.68702 0.66554 0.0
C2251 C 0.81001 0.7 0.6798 0.0
C2252 C 0.81544 0.70583 0.70889 0.0
C2253 C 0.83527 0.69812 0.72288 0.0
C2254 C 0.84895 0.68535 0.70861 0.0
H2255 H 0.80513 0.60659 0.63721 0.0
H2256 H 0.80355 0.62916 0.66316 0.0
H2257 H 0.80535 0.63797 0.62696 0.0
H2258 H 0.81891 0.68352 0.64322 0.0
H2259 H 0.79528 0.70563 0.66785 0.0
H2260 H 0.46436 0.53124 0.52952 0.0
H2261 H 0.42842 0.5474 0.51937 0.0
H2262 H 0.43515 0.54084 0.43105 0.0
H2263 H 0.47022 0.52406 0.44095 0.0
H2264 H 0.4365 0.59206 0.49582 0.0
H2265 H 0.35263 0.51296 0.43077 0.0
H2266 H 0.37895 0.50666 0.45162 0.0
H2267 H 0.38508 0.51929 0.41678 0.0
C2268 C 0.45784 0.53287 0.50796 0.0
C2269 C 0.47026 0.52659 0.48604 0.0
C2270 C 0.43716 0.54189 0.5022 0.0
C2271 C 0.4286 0.54472 0.47446 0.0
C2272 C 0.4406 0.53788 0.45261 0.0
H2273 H 0.42341 0.66439 0.38523 0.0
H2274 H 0.42946 0.63495 0.42035 0.0
C2275 C 0.46102 0.52866 0.45832 0.0
C2276 C 0.41065 0.55869 0.46799 0.0
H2277 H 0.36242 0.55971 0.41752 0.0
C2278 C 0.41958 0.58461 0.47941 0.0
C2279 C 0.38802 0.54883 0.44719 0.0
C2280 C 0.37548 0.52025 0.4362 0.0
C2281 C 0.40893 0.60204 0.46802 0.0
C2282 C 0.38947 0.59345 0.44431 0.0
C2283 C 0.37789 0.5665 0.4353 0.0
C2284 C 0.3852 0.61289 0.42557 0.0
C2285 C 0.42005 0.63006 0.48033 0.0
C2286 C 0.35825 0.6099 0.41639 0.0
C2287 C 0.35473 0.62651 0.39583 0.0
C2288 C 0.37812 0.64605 0.38404 0.0
C2289 C 0.40503 0.64936 0.39381 0.0
C2290 C 0.40852 0.63282 0.41422 0.0
H2291 H 0.42472 0.63012 0.50329 0.0
H2292 H 0.43994 0.64289 0.47125 0.0
H2293 H 0.40499 0.63895 0.47596 0.0
H2294 H 0.34001 0.59433 0.42461 0.0
H2295 H 0.33373 0.6234 0.3884 0.0
H2296 H 0.13746 0.2888 0.82224 0.0
H2297 H 0.11732 0.30338 0.85849 0.0
H2298 H 0.16575 0.28179 0.92177 0.0
H2299 H 0.1863 0.26716 0.88526 0.0
H2300 H 0.09345 0.29165 0.91078 0.0
H2301 H 0.2063 0.36435 0.91809 0.0
H2302 H 0.19154 0.33869 0.89103 0.0
H2303 H 0.1979 0.33007 0.9262 0.0
C2304 C 0.14273 0.28575 0.84383 0.0
C2305 C 0.16408 0.27772 0.85104 0.0
C2306 C 0.13117 0.29411 0.8646 0.0
C2307 C 0.14083 0.29443 0.89268 0.0
C2308 C 0.15855 0.28215 0.90011 0.0
H2309 H 0.09931 0.41088 0.97907 0.0
H2310 H 0.11049 0.37226 0.97713 0.0
C2311 C 0.17028 0.27389 0.87928 0.0
C2312 C 0.13818 0.31361 0.91195 0.0
H2313 H 0.17493 0.3786 0.93471 0.0
C2314 C 0.11128 0.31035 0.91703 0.0
C2315 C 0.16164 0.33814 0.91949 0.0
C2316 C 0.19099 0.34326 0.91337 0.0
C2317 C 0.10694 0.33179 0.92731 0.0
C2318 C 0.13024 0.35674 0.93305 0.0
C2319 C 0.15729 0.35927 0.93036 0.0
C2320 C 0.12664 0.38142 0.93648 0.0
C2321 C 0.0774 0.32841 0.92944 0.0
C2322 C 0.13318 0.39973 0.91475 0.0
C2323 C 0.12698 0.42172 0.91583 0.0
C2324 C 0.11408 0.4256 0.93863 0.0
C2325 C 0.10891 0.40801 0.96108 0.0
C2326 C 0.11522 0.38603 0.96003 0.0
H2327 H 0.06155 0.3083 0.92187 0.0
H2328 H 0.0743 0.33122 0.95154 0.0
H2329 H 0.07368 0.34384 0.9171 0.0
H2330 H 0.14203 0.39636 0.89641 0.0
H2331 H 0.13099 0.43488 0.89822 0.0
H2332 H 0.2339 0.31351 0.26575 0.0
H2333 H 0.21059 0.33598 0.29 0.0
H2334 H 0.2321 0.30859 0.36861 0.0
H2335 H 0.25653 0.28717 0.34449 0.0
H2336 H 0.16811 0.32322 0.31681 0.0
H2337 H 0.25341 0.38111 0.39628 0.0
H2338 H 0.25881 0.36316 0.36801 0.0
H2339 H 0.24364 0.34594 0.39889 0.0
C2340 C 0.23411 0.3125 0.28829 0.0
C2341 C 0.2478 0.29853 0.30286 0.0
C2342 C 0.22046 0.32544 0.30235 0.0
C2343 C 0.2196 0.32503 0.33174 0.0
C2344 C 0.2329 0.31063 0.34626 0.0
H2345 H 0.13443 0.38276 0.45102 0.0
H2346 H 0.15967 0.36154 0.42816 0.0
C2347 C 0.24689 0.29797 0.33222 0.0
C2348 C 0.20413 0.33878 0.34664 0.0
H2349 H 0.20873 0.3793 0.40304 0.0
C2350 C 0.17736 0.33562 0.33554 0.0
C2351 C 0.21535 0.35525 0.3714 0.0
C2352 C 0.24447 0.36182 0.38418 0.0
C2353 C 0.16184 0.34761 0.34821 0.0
C2354 C 0.17298 0.36388 0.37301 0.0
C2355 C 0.19963 0.36695 0.38425 0.0
C2356 C 0.15751 0.37779 0.38741 0.0
C2357 C 0.13307 0.34198 0.33507 0.0
C2358 C 0.14778 0.39497 0.37296 0.0
C2359 C 0.13342 0.40766 0.38625 0.0
C2360 C 0.1279 0.40391 0.41481 0.0
C2361 C 0.13807 0.38694 0.42929 0.0
C2362 C 0.15261 0.3744 0.416 0.0
H2363 H 0.12416 0.3234 0.32178 0.0
H2364 H 0.11845 0.33995 0.35119 0.0
H2365 H 0.13448 0.35884 0.32156 0.0
H2366 H 0.15163 0.39899 0.35123 0.0
H2367 H 0.12703 0.42083 0.37389 0.0
loop_
_geom_bond_atom_site_label_1
_geom_bond_atom_site_label_2
_geom_bond_distance
_geom_bond_site_symmetry_2
_ccdc_geom_bond_type
La0 C2 2.928 1_545 S
La0 O20 2.521 . S
La0 O21 2.628 1_545 S
La0 O22 2.551 1_554 S
La0 O23 2.757 1_554 S
La0 O24 2.470 1_544 S
La0 O29 2.482 1_445 S
La0 O31 2.503 . S
La1 C11 2.928 1_565 S
La1 O23 2.482 1_665 S
La1 O25 2.503 . S
La1 O26 2.521 . S
La1 O27 2.628 1_565 S
La1 O28 2.544 1_556 S
La1 O29 2.757 1_556 S
La1 O30 2.470 1_566 S
C2 La0 2.928 1_565 S
C2 C3 1.503 . S
C2 O20 1.261 1_565 S
C2 O21 1.243 . S
C3 C2 1.503 . S
C3 C4 1.394 . S
C3 C8 1.373 . S
C4 C3 1.394 . S
C4 C5 1.380 . S
C4 H32 0.930 1_565 S
C5 C4 1.380 . S
C5 C6 1.376 . S
C5 H33 0.930 . S
C6 C5 1.376 . S
C6 C7 1.370 . S
C7 C6 1.370 . S
C7 C8 1.396 . S
C7 H34 0.929 . S
C8 C3 1.373 . S
C8 C7 1.396 . S
C8 H35 0.929 . S
C9 O22 1.242 . S
C9 O23 1.289 . S
C10 O24 1.258 . S
C10 O25 1.256 1_455 S
C11 La1 2.928 1_545 S
C11 C12 1.503 . S
C11 O26 1.261 1_545 S
C11 O27 1.243 . S
C12 C11 1.503 . S
C12 C13 1.394 . S
C12 C17 1.373 . S
C13 C12 1.394 . S
C13 C14 1.380 . S
C13 H36 0.930 1_545 S
C14 C13 1.380 . S
C14 C15 1.376 . S
C14 H37 0.930 . S
C15 C14 1.376 . S
C15 C16 1.370 . S
C16 C15 1.370 . S
C16 C17 1.396 . S
C16 H38 0.929 . S
C17 C12 1.373 . S
C17 C16 1.396 . S
C17 H39 0.929 . S
C18 O28 1.248 . S
C18 O29 1.289 . S
C19 O30 1.258 . S
C19 O31 1.256 1_655 S
O20 La0 2.521 . S
O20 C2 1.261 1_545 S
O21 La0 2.628 1_565 S
O21 C2 1.243 . S
O22 La0 2.551 1_556 S
O22 C9 1.242 . S
O23 La0 2.757 1_556 S
O23 La1 2.482 1_445 S
O23 C9 1.289 . S
O24 La0 2.470 1_566 S
O24 C10 1.258 . S
O25 La1 2.503 . S
O25 C10 1.256 1_655 S
O26 La1 2.521 . S
O26 C11 1.261 1_565 S
O27 La1 2.628 1_545 S
O27 C11 1.243 . S
O28 La1 2.544 1_554 S
O28 C18 1.248 . S
O29 La0 2.482 1_665 S
O29 La1 2.757 1_554 S
O29 C18 1.289 . S
O30 La1 2.470 1_544 S
O30 C19 1.258 . S
O31 La0 2.503 . S
O31 C19 1.256 1_455 S
H32 C4 0.930 1_545 S
H33 C5 0.930 . S
H34 C7 0.929 . S
H35 C8 0.929 . S
H36 C13 0.930 1_565 S
H37 C14 0.930 . S
H38 C16 0.929 . S
H39 C17 0.929 . S
La40 C42 2.928 . S
La40 O60 2.521 . S
La40 O61 2.628 . S
La40 O62 2.554 . S
La40 O63 2.757 . S
La40 O64 2.470 . S
La40 O69 2.482 . S
La40 O71 2.503 . S
La41 C51 2.928 . S
La41 O63 2.482 . S
La41 O65 2.503 . S
La41 O66 2.521 . S
La41 O67 2.628 . S
La41 O68 2.554 . S
La41 O69 2.757 . S
La41 O70 2.470 . S
C42 La40 2.928 . S
C42 C43 1.503 . S
C42 O60 1.261 . S
C42 O61 1.243 . S
C43 C42 1.503 . S
C43 C44 1.394 . S
C43 C48 1.373 . S
C44 C43 1.394 . S
C44 C45 1.380 . S
C44 H72 0.930 . S
C45 C44 1.380 . S
C45 C46 1.376 . S
C45 H73 0.930 . S
C46 C45 1.376 . S
C46 C47 1.370 . S
C47 C46 1.370 . S
C47 C48 1.396 . S
C47 H74 0.929 . S
C48 C43 1.373 . S
C48 C47 1.396 . S
C48 H75 0.929 . S
C49 O62 1.240 . S
C49 O63 1.289 . S
C50 O64 1.258 . S
C50 O65 1.256 . S
C51 La41 2.928 . S
C51 C52 1.503 . S
C51 O66 1.261 . S
C51 O67 1.243 . S
C52 C51 1.503 . S
C52 C53 1.394 . S
C52 C57 1.373 . S
C53 C52 1.394 . S
C53 C54 1.380 . S
C53 H76 0.930 . S
C54 C53 1.380 . S
C54 C55 1.376 . S
C54 H77 0.930 . S
C55 C54 1.376 . S
C55 C56 1.370 . S
C56 C55 1.370 . S
C56 C57 1.396 . S
C56 H78 0.929 . S
C57 C52 1.373 . S
C57 C56 1.396 . S
C57 H79 0.929 . S
C58 O68 1.240 . S
C58 O69 1.289 . S
C59 O70 1.258 . S
C59 O71 1.256 . S
O60 La40 2.521 . S
O60 C42 1.261 . S
O61 La40 2.628 . S
O61 C42 1.243 . S
O62 La40 2.554 . S
O62 C49 1.240 . S
O63 La40 2.757 . S
O63 La41 2.482 . S
O63 C49 1.289 . S
O64 La40 2.470 . S
O64 C50 1.258 . S
O65 La41 2.503 . S
O65 C50 1.256 . S
O66 La41 2.521 . S
O66 C51 1.261 . S
O67 La41 2.628 . S
O67 C51 1.243 . S
O68 La41 2.554 . S
O68 C58 1.240 . S
O69 La40 2.482 . S
O69 La41 2.757 . S
O69 C58 1.289 . S
O70 La41 2.470 . S
O70 C59 1.258 . S
O71 La40 2.503 . S
O71 C59 1.256 . S
H72 C44 0.930 . S
H73 C45 0.930 . S
H74 C47 0.929 . S
H75 C48 0.929 . S
H76 C53 0.930 . S
H77 C54 0.930 . S
H78 C56 0.929 . S
H79 C57 0.929 . S
La80 C82 2.928 1_565 S
La80 O100 2.521 . S
La80 O101 2.628 1_565 S
La80 O102 2.554 . S
La80 O103 2.757 . S
La80 O104 2.470 1_565 S
La80 O109 2.482 1_565 S
La80 O111 2.503 . S
La81 C91 2.928 1_545 S
La81 O103 2.482 1_545 S
La81 O105 2.503 . S
La81 O106 2.521 . S
La81 O107 2.628 1_545 S
La81 O108 2.554 . S
La81 O109 2.757 . S
La81 O110 2.470 1_545 S
C82 La80 2.928 1_545 S
C82 C83 1.503 . S
C82 O100 1.261 1_545 S
C82 O101 1.243 . S
C83 C82 1.503 . S
C83 C84 1.394 . S
C83 C88 1.373 . S
C84 C83 1.394 . S
C84 C85 1.380 . S
C84 H112 0.930 1_545 S
C85 C84 1.380 . S
C85 C86 1.376 . S
C85 H113 0.930 . S
C86 C85 1.376 . S
C86 C87 1.370 . S
C87 C86 1.370 . S
C87 C88 1.396 . S
C87 H114 0.929 . S
C88 C83 1.373 . S
C88 C87 1.396 . S
C88 H115 0.929 . S
C89 O102 1.240 . S
C89 O103 1.289 . S
C90 O104 1.258 . S
C90 O105 1.256 . S
C91 La81 2.928 1_565 S
C91 C92 1.503 . S
C91 O106 1.261 1_565 S
C91 O107 1.243 . S
C92 C91 1.503 . S
C92 C93 1.394 . S
C92 C97 1.373 . S
C93 C92 1.394 . S
C93 C94 1.380 . S
C93 H116 0.930 1_565 S
C94 C93 1.380 . S
C94 C95 1.376 . S
C94 H117 0.930 . S
C95 C94 1.376 . S
C95 C96 1.370 . S
C96 C95 1.370 . S
C96 C97 1.396 . S
C96 H118 0.929 . S
C97 C92 1.373 . S
C97 C96 1.396 . S
C97 H119 0.929 . S
C98 O108 1.240 . S
C98 O109 1.289 . S
C99 O110 1.258 . S
C99 O111 1.256 . S
O100 La80 2.521 . S
O100 C82 1.261 1_565 S
O101 La80 2.628 1_545 S
O101 C82 1.243 . S
O102 La80 2.554 . S
O102 C89 1.240 . S
O103 La80 2.757 . S
O103 La81 2.482 1_565 S
O103 C89 1.289 . S
O104 La80 2.470 1_545 S
O104 C90 1.258 . S
O105 La81 2.503 . S
O105 C90 1.256 . S
O106 La81 2.521 . S
O106 C91 1.261 1_545 S
O107 La81 2.628 1_565 S
O107 C91 1.243 . S
O108 La81 2.554 . S
O108 C98 1.240 . S
O109 La80 2.482 1_545 S
O109 La81 2.757 . S
O109 C98 1.289 . S
O110 La81 2.470 1_565 S
O110 C99 1.258 . S
O111 La80 2.503 . S
O111 C99 1.256 . S
H112 C84 0.930 1_565 S
H113 C85 0.930 . S
H114 C87 0.929 . S
H115 C88 0.929 . S
H116 C93 0.930 1_545 S
H117 C94 0.930 . S
H118 C96 0.929 . S
H119 C97 0.929 . S
La120 C122 2.928 . S
La120 O140 2.521 . S
La120 O141 2.628 . S
La120 O142 2.554 . S
La120 O143 2.757 . S
La120 O144 2.470 . S
La120 O149 2.482 . S
La120 O151 2.503 . S
La121 C131 2.928 . S
La121 O143 2.482 . S
La121 O145 2.503 . S
La121 O146 2.521 . S
La121 O147 2.628 . S
La121 O148 2.554 . S
La121 O149 2.757 . S
La121 O150 2.470 . S
C122 La120 2.928 . S
C122 C123 1.503 . S
C122 O140 1.261 . S
C122 O141 1.243 . S
C123 C122 1.503 . S
C123 C124 1.394 . S
C123 C128 1.373 . S
C124 C123 1.394 . S
C124 C125 1.380 . S
C124 H152 0.930 . S
C125 C124 1.380 . S
C125 C126 1.376 . S
C125 H153 0.930 . S
C126 C125 1.376 . S
C126 C127 1.370 . S
C127 C126 1.370 . S
C127 C128 1.396 . S
C127 H154 0.929 . S
C128 C123 1.373 . S
C128 C127 1.396 . S
C128 H155 0.929 . S
C129 O142 1.240 . S
C129 O143 1.289 . S
C130 O144 1.258 . S
C130 O145 1.256 . S
C131 La121 2.928 . S
C131 C132 1.503 . S
C131 O146 1.261 . S
C131 O147 1.243 . S
C132 C131 1.503 . S
C132 C133 1.394 . S
C132 C137 1.373 . S
C133 C132 1.394 . S
C133 C134 1.380 . S
C133 H156 0.930 . S
C134 C133 1.380 . S
C134 C135 1.376 . S
C134 H157 0.930 . S
C135 C134 1.376 . S
C135 C136 1.370 . S
C136 C135 1.370 . S
C136 C137 1.396 . S
C136 H158 0.929 . S
C137 C132 1.373 . S
C137 C136 1.396 . S
C137 H159 0.929 . S
C138 O148 1.240 . S
C138 O149 1.289 . S
C139 O150 1.258 . S
C139 O151 1.256 . S
O140 La120 2.521 . S
O140 C122 1.261 . S
O141 La120 2.628 . S
O141 C122 1.243 . S
O142 La120 2.554 . S
O142 C129 1.240 . S
O143 La120 2.757 . S
O143 La121 2.482 . S
O143 C129 1.289 . S
O144 La120 2.470 . S
O144 C130 1.258 . S
O145 La121 2.503 . S
O145 C130 1.256 . S
O146 La121 2.521 . S
O146 C131 1.261 . S
O147 La121 2.628 . S
O147 C131 1.243 . S
O148 La121 2.554 . S
O148 C138 1.240 . S
O149 La120 2.482 . S
O149 La121 2.757 . S
O149 C138 1.289 . S
O150 La121 2.470 . S
O150 C139 1.258 . S
O151 La120 2.503 . S
O151 C139 1.256 . S
H152 C124 0.930 . S
H153 C125 0.930 . S
H154 C127 0.929 . S
H155 C128 0.929 . S
H156 C133 0.930 . S
H157 C134 0.930 . S
H158 C136 0.929 . S
H159 C137 0.929 . S
La160 C162 2.928 . S
La160 O180 2.521 . S
La160 O181 2.628 . S
La160 O182 2.554 1_455 S
La160 O183 2.757 1_455 S
La160 O184 2.470 1_455 S
La160 O189 2.482 1_565 S
La160 O191 2.503 1_565 S
La161 C171 2.928 . S
La161 O183 2.482 1_545 S
La161 O185 2.503 1_545 S
La161 O186 2.521 . S
La161 O187 2.628 . S
La161 O188 2.554 1_655 S
La161 O189 2.757 1_655 S
La161 O190 2.470 1_655 S
C162 La160 2.928 . S
C162 C163 1.503 . S
C162 O180 1.261 . S
C162 O181 1.243 . S
C163 C162 1.503 . S
C163 C164 1.394 . S
C163 C168 1.373 . S
C164 C163 1.394 . S
C164 C165 1.380 . S
C164 H192 0.930 . S
C165 C164 1.380 . S
C165 C166 1.376 . S
C165 H193 0.930 . S
C166 C165 1.376 . S
C166 C167 1.370 . S
C167 C166 1.370 . S
C167 C168 1.396 . S
C167 H194 0.929 . S
C168 C163 1.373 . S
C168 C167 1.396 . S
C168 H195 0.929 . S
C169 O182 1.240 . S
C169 O183 1.289 . S
C170 O184 1.258 . S
C170 O185 1.256 . S
C171 La161 2.928 . S
C171 C172 1.503 . S
C171 O186 1.261 . S
C171 O187 1.243 . S
C172 C171 1.503 . S
C172 C173 1.394 . S
C172 C177 1.373 . S
C173 C172 1.394 . S
C173 C174 1.380 . S
C173 H196 0.930 . S
C174 C173 1.380 . S
C174 C175 1.376 . S
C174 H197 0.930 . S
C175 C174 1.376 . S
C175 C176 1.370 . S
C176 C175 1.370 . S
C176 C177 1.396 . S
C176 H198 0.929 . S
C177 C172 1.373 . S
C177 C176 1.396 . S
C177 H199 0.929 . S
C178 O188 1.240 . S
C178 O189 1.289 . S
C179 O190 1.258 . S
C179 O191 1.256 . S
O180 La160 2.521 . S
O180 C162 1.261 . S
O181 La160 2.628 . S
O181 C162 1.243 . S
O182 La160 2.554 1_655 S
O182 C169 1.240 . S
O183 La160 2.757 1_655 S
O183 La161 2.482 1_565 S
O183 C169 1.289 . S
O184 La160 2.470 1_655 S
O184 C170 1.258 . S
O185 La161 2.503 1_565 S
O185 C170 1.256 . S
O186 La161 2.521 . S
O186 C171 1.261 . S
O187 La161 2.628 . S
O187 C171 1.243 . S
O188 La161 2.554 1_455 S
O188 C178 1.240 . S
O189 La160 2.482 1_545 S
O189 La161 2.757 1_455 S
O189 C178 1.289 . S
O190 La161 2.470 1_455 S
O190 C179 1.258 . S
O191 La160 2.503 1_545 S
O191 C179 1.256 . S
H192 C164 0.930 . S
H193 C165 0.930 . S
H194 C167 0.929 . S
H195 C168 0.929 . S
H196 C173 0.930 . S
H197 C174 0.930 . S
H198 C176 0.929 . S
H199 C177 0.929 . S
La200 C202 2.928 . S
La200 O220 2.521 . S
La200 O221 2.628 . S
La200 O222 2.554 . S
La200 O223 2.757 . S
La200 O224 2.470 . S
La200 O229 2.482 . S
La200 O231 2.503 . S
La201 C211 2.928 . S
La201 O223 2.482 . S
La201 O225 2.503 . S
La201 O226 2.521 . S
La201 O227 2.628 . S
La201 O228 2.554 . S
La201 O229 2.757 . S
La201 O230 2.470 . S
C202 La200 2.928 . S
C202 C203 1.503 . S
C202 O220 1.261 . S
C202 O221 1.243 . S
C203 C202 1.503 . S
C203 C204 1.394 . S
C203 C208 1.373 . S
C204 C203 1.394 . S
C204 C205 1.380 . S
C204 H232 0.930 . S
C205 C204 1.380 . S
C205 C206 1.376 . S
C205 H233 0.930 . S
C206 C205 1.376 . S
C206 C207 1.370 . S
C207 C206 1.370 . S
C207 C208 1.396 . S
C207 H234 0.929 . S
C208 C203 1.373 . S
C208 C207 1.396 . S
C208 H235 0.929 . S
C209 O222 1.240 . S
C209 O223 1.289 . S
C210 O224 1.258 . S
C210 O225 1.256 . S
C211 La201 2.928 . S
C211 C212 1.503 . S
C211 O226 1.261 . S
C211 O227 1.243 . S
C212 C211 1.503 . S
C212 C213 1.394 . S
C212 C217 1.373 . S
C213 C212 1.394 . S
C213 C214 1.380 . S
C213 H236 0.930 . S
C214 C213 1.380 . S
C214 C215 1.376 . S
C214 H237 0.930 . S
C215 C214 1.376 . S
C215 C216 1.370 . S
C216 C215 1.370 . S
C216 C217 1.396 . S
C216 H238 0.929 . S
C217 C212 1.373 . S
C217 C216 1.396 . S
C217 H239 0.929 . S
C218 O228 1.240 . S
C218 O229 1.289 . S
C219 O230 1.258 . S
C219 O231 1.256 . S
O220 La200 2.521 . S
O220 C202 1.261 . S
O221 La200 2.628 . S
O221 C202 1.243 . S
O222 La200 2.554 . S
O222 C209 1.240 . S
O223 La200 2.757 . S
O223 La201 2.482 . S
O223 C209 1.289 . S
O224 La200 2.470 . S
O224 C210 1.258 . S
O225 La201 2.503 . S
O225 C210 1.256 . S
O226 La201 2.521 . S
O226 C211 1.261 . S
O227 La201 2.628 . S
O227 C211 1.243 . S
O228 La201 2.554 . S
O228 C218 1.240 . S
O229 La200 2.482 . S
O229 La201 2.757 . S
O229 C218 1.289 . S
O230 La201 2.470 . S
O230 C219 1.258 . S
O231 La200 2.503 . S
O231 C219 1.256 . S
H232 C204 0.930 . S
H233 C205 0.930 . S
H234 C207 0.929 . S
H235 C208 0.929 . S
H236 C213 0.930 . S
H237 C214 0.930 . S
H238 C216 0.929 . S
H239 C217 0.929 . S
La240 C242 2.928 1_554 S
La240 O260 2.521 1_554 S
La240 O261 2.628 1_554 S
La240 O262 2.554 1_565 S
La240 O263 2.757 1_565 S
La240 O264 2.470 1_564 S
La240 O269 2.482 1_554 S
La240 O271 2.503 . S
La241 C251 2.928 1_556 S
La241 O263 2.482 1_556 S
La241 O265 2.503 . S
La241 O266 2.521 1_556 S
La241 O267 2.628 1_556 S
La241 O268 2.554 1_545 S
La241 O269 2.757 1_545 S
La241 O270 2.470 1_546 S
C242 La240 2.928 1_556 S
C242 C243 1.503 . S
C242 O260 1.261 . S
C242 O261 1.243 . S
C243 C242 1.503 . S
C243 C244 1.394 . S
C243 C248 1.373 . S
C244 C243 1.394 . S
C244 C245 1.380 . S
C244 H272 0.930 . S
C245 C244 1.380 . S
C245 C246 1.376 . S
C245 H273 0.930 . S
C246 C245 1.376 . S
C246 C247 1.370 . S
C247 C246 1.370 . S
C247 C248 1.396 . S
C247 H274 0.929 . S
C248 C243 1.373 . S
C248 C247 1.396 . S
C248 H275 0.929 . S
C249 O262 1.240 . S
C249 O263 1.289 . S
C250 O264 1.258 . S
C250 O265 1.256 . S
C251 La241 2.928 1_554 S
C251 C252 1.503 . S
C251 O266 1.261 . S
C251 O267 1.243 . S
C252 C251 1.503 . S
C252 C253 1.394 . S
C252 C257 1.373 . S
C253 C252 1.394 . S
C253 C254 1.380 . S
C253 H276 0.930 . S
C254 C253 1.380 . S
C254 C255 1.376 . S
C254 H277 0.930 . S
C255 C254 1.376 . S
C255 C256 1.370 . S
C256 C255 1.370 . S
C256 C257 1.396 . S
C256 H278 0.929 . S
C257 C252 1.373 . S
C257 C256 1.396 . S
C257 H279 0.929 . S
C258 O268 1.240 . S
C258 O269 1.289 . S
C259 O270 1.258 . S
C259 O271 1.256 . S
O260 La240 2.521 1_556 S
O260 C242 1.261 . S
O261 La240 2.628 1_556 S
O261 C242 1.243 . S
O262 La240 2.554 1_545 S
O262 C249 1.240 . S
O263 La240 2.757 1_545 S
O263 La241 2.482 1_554 S
O263 C249 1.289 . S
O264 La240 2.470 1_546 S
O264 C250 1.258 . S
O265 La241 2.503 . S
O265 C250 1.256 . S
O266 La241 2.521 1_554 S
O266 C251 1.261 . S
O267 La241 2.628 1_554 S
O267 C251 1.243 . S
O268 La241 2.554 1_565 S
O268 C258 1.240 . S
O269 La240 2.482 1_556 S
O269 La241 2.757 1_565 S
O269 C258 1.289 . S
O270 La241 2.470 1_564 S
O270 C259 1.258 . S
O271 La240 2.503 . S
O271 C259 1.256 . S
H272 C244 0.930 . S
H273 C245 0.930 . S
H274 C247 0.929 . S
H275 C248 0.929 . S
H276 C253 0.930 . S
H277 C254 0.930 . S
H278 C256 0.929 . S
H279 C257 0.929 . S
La280 C282 2.928 . S
La280 O300 2.521 . S
La280 O301 2.628 . S
La280 O302 2.554 . S
La280 O303 2.757 . S
La280 O304 2.470 . S
La280 O309 2.482 . S
La280 O311 2.503 . S
La281 C291 2.928 . S
La281 O303 2.482 . S
La281 O305 2.503 . S
La281 O306 2.521 . S
La281 O307 2.628 . S
La281 O308 2.554 . S
La281 O309 2.757 . S
La281 O310 2.470 . S
C282 La280 2.928 . S
C282 C283 1.503 . S
C282 O300 1.261 . S
C282 O301 1.243 . S
C283 C282 1.503 . S
C283 C284 1.394 . S
C283 C288 1.373 . S
C284 C283 1.394 . S
C284 C285 1.380 . S
C284 H312 0.930 . S
C285 C284 1.380 . S
C285 C286 1.376 . S
C285 H313 0.930 . S
C286 C285 1.376 . S
C286 C287 1.370 . S
C287 C286 1.370 . S
C287 C288 1.396 . S
C287 H314 0.929 . S
C288 C283 1.373 . S
C288 C287 1.396 . S
C288 H315 0.929 . S
C289 O302 1.240 . S
C289 O303 1.289 . S
C290 O304 1.258 . S
C290 O305 1.256 . S
C291 La281 2.928 . S
C291 C292 1.503 . S
C291 O306 1.261 . S
C291 O307 1.243 . S
C292 C291 1.503 . S
C292 C293 1.394 . S
C292 C297 1.373 . S
C293 C292 1.394 . S
C293 C294 1.380 . S
C293 H316 0.930 . S
C294 C293 1.380 . S
C294 C295 1.376 . S
C294 H317 0.930 . S
C295 C294 1.376 . S
C295 C296 1.370 . S
C296 C295 1.370 . S
C296 C297 1.396 . S
C296 H318 0.929 . S
C297 C292 1.373 . S
C297 C296 1.396 . S
C297 H319 0.929 . S
C298 O308 1.240 . S
C298 O309 1.289 . S
C299 O310 1.258 . S
C299 O311 1.256 . S
O300 La280 2.521 . S
O300 C282 1.261 . S
O301 La280 2.628 . S
O301 C282 1.243 . S
O302 La280 2.554 . S
O302 C289 1.240 . S
O303 La280 2.757 . S
O303 La281 2.482 . S
O303 C289 1.289 . S
O304 La280 2.470 . S
O304 C290 1.258 . S
O305 La281 2.503 . S
O305 C290 1.256 . S
O306 La281 2.521 . S
O306 C291 1.261 . S
O307 La281 2.628 . S
O307 C291 1.243 . S
O308 La281 2.554 . S
O308 C298 1.240 . S
O309 La280 2.482 . S
O309 La281 2.757 . S
O309 C298 1.289 . S
O310 La281 2.470 . S
O310 C299 1.258 . S
O311 La280 2.503 . S
O311 C299 1.256 . S
H312 C284 0.930 . S
H313 C285 0.930 . S
H314 C287 0.929 . S
H315 C288 0.929 . S
H316 C293 0.930 . S
H317 C294 0.930 . S
H318 C296 0.929 . S
H319 C297 0.929 . S
La320 C322 2.928 1_556 S
La320 O340 2.521 1_556 S
La320 O341 2.628 1_556 S
La320 O342 2.554 . S
La320 O343 2.757 . S
La320 O344 2.470 1_556 S
La320 O349 2.482 1_556 S
La320 O351 2.503 . S
La321 C331 2.928 1_554 S
La321 O343 2.482 1_554 S
La321 O345 2.503 . S
La321 O346 2.521 1_554 S
La321 O347 2.628 1_554 S
La321 O348 2.554 . S
La321 O349 2.757 . S
La321 O350 2.470 1_554 S
C322 La320 2.928 1_554 S
C322 C323 1.503 . S
C322 O340 1.261 . S
C322 O341 1.243 . S
C323 C322 1.503 . S
C323 C324 1.394 . S
C323 C328 1.373 . S
C324 C323 1.394 . S
C324 C325 1.380 . S
C324 H352 0.930 . S
C325 C324 1.380 . S
C325 C326 1.376 . S
C325 H353 0.930 . S
C326 C325 1.376 . S
C326 C327 1.370 . S
C327 C326 1.370 . S
C327 C328 1.396 . S
C327 H354 0.929 . S
C328 C323 1.373 . S
C328 C327 1.396 . S
C328 H355 0.929 . S
C329 O342 1.240 . S
C329 O343 1.289 . S
C330 O344 1.258 . S
C330 O345 1.256 . S
C331 La321 2.928 1_556 S
C331 C332 1.503 . S
C331 O346 1.261 . S
C331 O347 1.243 . S
C332 C331 1.503 . S
C332 C333 1.394 . S
C332 C337 1.373 . S
C333 C332 1.394 . S
C333 C334 1.380 . S
C333 H356 0.930 . S
C334 C333 1.380 . S
C334 C335 1.376 . S
C334 H357 0.930 . S
C335 C334 1.376 . S
C335 C336 1.370 . S
C336 C335 1.370 . S
C336 C337 1.396 . S
C336 H358 0.929 . S
C337 C332 1.373 . S
C337 C336 1.396 . S
C337 H359 0.929 . S
C338 O348 1.240 . S
C338 O349 1.289 . S
C339 O350 1.258 . S
C339 O351 1.256 . S
O340 La320 2.521 1_554 S
O340 C322 1.261 . S
O341 La320 2.628 1_554 S
O341 C322 1.243 . S
O342 La320 2.554 . S
O342 C329 1.240 . S
O343 La320 2.757 . S
O343 La321 2.482 1_556 S
O343 C329 1.289 . S
O344 La320 2.470 1_554 S
O344 C330 1.258 . S
O345 La321 2.503 . S
O345 C330 1.256 . S
O346 La321 2.521 1_556 S
O346 C331 1.261 . S
O347 La321 2.628 1_556 S
O347 C331 1.243 . S
O348 La321 2.554 . S
O348 C338 1.240 . S
O349 La320 2.482 1_554 S
O349 La321 2.757 . S
O349 C338 1.289 . S
O350 La321 2.470 1_556 S
O350 C339 1.258 . S
O351 La320 2.503 . S
O351 C339 1.256 . S
H352 C324 0.930 . S
H353 C325 0.930 . S
H354 C327 0.929 . S
H355 C328 0.929 . S
H356 C333 0.930 . S
H357 C334 0.930 . S
H358 C336 0.929 . S
H359 C337 0.929 . S
La360 C362 2.928 . S
La360 O380 2.521 . S
La360 O381 2.628 . S
La360 O382 2.554 . S
La360 O383 2.757 . S
La360 O384 2.470 . S
La360 O389 2.482 . S
La360 O391 2.503 . S
La361 C371 2.928 . S
La361 O383 2.482 . S
La361 O385 2.503 . S
La361 O386 2.521 . S
La361 O387 2.628 . S
La361 O388 2.554 . S
La361 O389 2.757 . S
La361 O390 2.470 . S
C362 La360 2.928 . S
C362 C363 1.503 . S
C362 O380 1.261 . S
C362 O381 1.243 . S
C363 C362 1.503 . S
C363 C364 1.394 . S
C363 C368 1.373 . S
C364 C363 1.394 . S
C364 C365 1.380 . S
C364 H392 0.930 . S
C365 C364 1.380 . S
C365 C366 1.376 . S
C365 H393 0.930 . S
C366 C365 1.376 . S
C366 C367 1.370 . S
C367 C366 1.370 . S
C367 C368 1.396 . S
C367 H394 0.929 . S
C368 C363 1.373 . S
C368 C367 1.396 . S
C368 H395 0.929 . S
C369 O382 1.240 . S
C369 O383 1.289 . S
C370 O384 1.258 . S
C370 O385 1.256 . S
C371 La361 2.928 . S
C371 C372 1.503 . S
C371 O386 1.261 . S
C371 O387 1.243 . S
C372 C371 1.503 . S
C372 C373 1.394 . S
C372 C377 1.373 . S
C373 C372 1.394 . S
C373 C374 1.380 . S
C373 H396 0.930 . S
C374 C373 1.380 . S
C374 C375 1.376 . S
C374 H397 0.930 . S
C375 C374 1.376 . S
C375 C376 1.370 . S
C376 C375 1.370 . S
C376 C377 1.396 . S
C376 H398 0.929 . S
C377 C372 1.373 . S
C377 C376 1.396 . S
C377 H399 0.929 . S
C378 O388 1.240 . S
C378 O389 1.289 . S
C379 O390 1.258 . S
C379 O391 1.256 . S
O380 La360 2.521 . S
O380 C362 1.261 . S
O381 La360 2.628 . S
O381 C362 1.243 . S
O382 La360 2.554 . S
O382 C369 1.240 . S
O383 La360 2.757 . S
O383 La361 2.482 . S
O383 C369 1.289 . S
O384 La360 2.470 . S
O384 C370 1.258 . S
O385 La361 2.503 . S
O385 C370 1.256 . S
O386 La361 2.521 . S
O386 C371 1.261 . S
O387 La361 2.628 . S
O387 C371 1.243 . S
O388 La361 2.554 . S
O388 C378 1.240 . S
O389 La360 2.482 . S
O389 La361 2.757 . S
O389 C378 1.289 . S
O390 La361 2.470 . S
O390 C379 1.258 . S
O391 La360 2.503 . S
O391 C379 1.256 . S
H392 C364 0.930 . S
H393 C365 0.930 . S
H394 C367 0.929 . S
H395 C368 0.929 . S
H396 C373 0.930 . S
H397 C374 0.930 . S
H398 C376 0.929 . S
H399 C377 0.929 . S
La400 C402 2.928 . S
La400 O420 2.521 . S
La400 O421 2.628 . S
La400 O422 2.554 . S
La400 O423 2.757 . S
La400 O424 2.470 . S
La400 O429 2.482 1_455 S
La400 O431 2.503 1_455 S
La401 C411 2.928 . S
La401 O423 2.482 1_655 S
La401 O425 2.503 1_655 S
La401 O426 2.521 . S
La401 O427 2.628 . S
La401 O428 2.554 . S
La401 O429 2.757 . S
La401 O430 2.470 . S
C402 La400 2.928 . S
C402 C403 1.503 . S
C402 O420 1.261 . S
C402 O421 1.243 . S
C403 C402 1.503 . S
C403 C404 1.394 . S
C403 C408 1.373 . S
C404 C403 1.394 . S
C404 C405 1.380 . S
C404 H432 0.930 . S
C405 C404 1.380 . S
C405 C406 1.376 . S
C405 H433 0.930 . S
C406 C405 1.376 . S
C406 C407 1.370 . S
C407 C406 1.370 . S
C407 C408 1.396 . S
C407 H434 0.929 . S
C408 C403 1.373 . S
C408 C407 1.396 . S
C408 H435 0.929 . S
C409 O422 1.240 . S
C409 O423 1.289 . S
C410 O424 1.258 . S
C410 O425 1.256 . S
C411 La401 2.928 . S
C411 C412 1.503 . S
C411 O426 1.261 . S
C411 O427 1.243 . S
C412 C411 1.503 . S
C412 C413 1.394 . S
C412 C417 1.373 . S
C413 C412 1.394 . S
C413 C414 1.380 . S
C413 H436 0.930 . S
C414 C413 1.380 . S
C414 C415 1.376 . S
C414 H437 0.930 . S
C415 C414 1.376 . S
C415 C416 1.370 . S
C416 C415 1.370 . S
C416 C417 1.396 . S
C416 H438 0.929 . S
C417 C412 1.373 . S
C417 C416 1.396 . S
C417 H439 0.929 . S
C418 O428 1.240 . S
C418 O429 1.289 . S
C419 O430 1.258 . S
C419 O431 1.256 . S
O420 La400 2.521 . S
O420 C402 1.261 . S
O421 La400 2.628 . S
O421 C402 1.243 . S
O422 La400 2.554 . S
O422 C409 1.240 . S
O423 La400 2.757 . S
O423 La401 2.482 1_455 S
O423 C409 1.289 . S
O424 La400 2.470 . S
O424 C410 1.258 . S
O425 La401 2.503 1_455 S
O425 C410 1.256 . S
O426 La401 2.521 . S
O426 C411 1.261 . S
O427 La401 2.628 . S
O427 C411 1.243 . S
O428 La401 2.554 . S
O428 C418 1.240 . S
O429 La400 2.482 1_655 S
O429 La401 2.757 . S
O429 C418 1.289 . S
O430 La401 2.470 . S
O430 C419 1.258 . S
O431 La400 2.503 1_655 S
O431 C419 1.256 . S
H432 C404 0.930 . S
H433 C405 0.930 . S
H434 C407 0.929 . S
H435 C408 0.929 . S
H436 C413 0.930 . S
H437 C414 0.930 . S
H438 C416 0.929 . S
H439 C417 0.929 . S
La440 C442 2.928 . S
La440 O460 2.521 . S
La440 O461 2.628 . S
La440 O462 2.554 . S
La440 O463 2.757 . S
La440 O464 2.470 . S
La440 O469 2.482 . S
La440 O471 2.503 . S
La441 C451 2.928 . S
La441 O463 2.482 . S
La441 O465 2.503 . S
La441 O466 2.521 . S
La441 O467 2.628 . S
La441 O468 2.554 . S
La441 O469 2.757 . S
La441 O470 2.470 . S
C442 La440 2.928 . S
C442 C443 1.503 . S
C442 O460 1.261 . S
C442 O461 1.243 . S
C443 C442 1.503 . S
C443 C444 1.394 . S
C443 C448 1.373 . S
C444 C443 1.394 . S
C444 C445 1.380 . S
C444 H472 0.930 . S
C445 C444 1.380 . S
C445 C446 1.376 . S
C445 H473 0.930 . S
C446 C445 1.376 . S
C446 C447 1.370 . S
C447 C446 1.370 . S
C447 C448 1.396 . S
C447 H474 0.929 . S
C448 C443 1.373 . S
C448 C447 1.396 . S
C448 H475 0.929 . S
C449 O462 1.240 . S
C449 O463 1.289 . S
C450 O464 1.258 . S
C450 O465 1.256 . S
C451 La441 2.928 . S
C451 C452 1.503 . S
C451 O466 1.261 . S
C451 O467 1.243 . S
C452 C451 1.503 . S
C452 C453 1.394 . S
C452 C457 1.373 . S
C453 C452 1.394 . S
C453 C454 1.380 . S
C453 H476 0.930 . S
C454 C453 1.380 . S
C454 C455 1.376 . S
C454 H477 0.930 . S
C455 C454 1.376 . S
C455 C456 1.370 . S
C456 C455 1.370 . S
C456 C457 1.396 . S
C456 H478 0.929 . S
C457 C452 1.373 . S
C457 C456 1.396 . S
C457 H479 0.929 . S
C458 O468 1.240 . S
C458 O469 1.289 . S
C459 O470 1.258 . S
C459 O471 1.256 . S
O460 La440 2.521 . S
O460 C442 1.261 . S
O461 La440 2.628 . S
O461 C442 1.243 . S
O462 La440 2.554 . S
O462 C449 1.240 . S
O463 La440 2.757 . S
O463 La441 2.482 . S
O463 C449 1.289 . S
O464 La440 2.470 . S
O464 C450 1.258 . S
O465 La441 2.503 . S
O465 C450 1.256 . S
O466 La441 2.521 . S
O466 C451 1.261 . S
O467 La441 2.628 . S
O467 C451 1.243 . S
O468 La441 2.554 . S
O468 C458 1.240 . S
O469 La440 2.482 . S
O469 La441 2.757 . S
O469 C458 1.289 . S
O470 La441 2.470 . S
O470 C459 1.258 . S
O471 La440 2.503 . S
O471 C459 1.256 . S
H472 C444 0.930 . S
H473 C445 0.930 . S
H474 C447 0.929 . S
H475 C448 0.929 . S
H476 C453 0.930 . S
H477 C454 0.930 . S
H478 C456 0.929 . S
H479 C457 0.929 . S
La480 C482 2.928 . S
La480 O500 2.521 . S
La480 O501 2.628 . S
La480 O502 2.554 . S
La480 O503 2.757 . S
La480 O504 2.470 . S
La480 O509 2.482 . S
La480 O511 2.503 . S
La481 C491 2.928 . S
La481 O503 2.482 . S
La481 O505 2.503 . S
La481 O506 2.521 . S
La481 O507 2.628 . S
La481 O508 2.554 . S
La481 O509 2.757 . S
La481 O510 2.470 . S
C482 La480 2.928 . S
C482 C483 1.503 . S
C482 O500 1.261 . S
C482 O501 1.243 . S
C483 C482 1.503 . S
C483 C484 1.394 . S
C483 C488 1.373 . S
C484 C483 1.394 . S
C484 C485 1.380 . S
C484 H512 0.930 . S
C485 C484 1.380 . S
C485 C486 1.376 . S
C485 H513 0.930 . S
C486 C485 1.376 . S
C486 C487 1.370 . S
C487 C486 1.370 . S
C487 C488 1.396 . S
C487 H514 0.929 . S
C488 C483 1.373 . S
C488 C487 1.396 . S
C488 H515 0.929 . S
C489 O502 1.240 . S
C489 O503 1.289 . S
C490 O504 1.258 . S
C490 O505 1.256 . S
C491 La481 2.928 . S
C491 C492 1.503 . S
C491 O506 1.261 . S
C491 O507 1.243 . S
C492 C491 1.503 . S
C492 C493 1.394 . S
C492 C497 1.373 . S
C493 C492 1.394 . S
C493 C494 1.380 . S
C493 H516 0.930 . S
C494 C493 1.380 . S
C494 C495 1.376 . S
C494 H517 0.930 . S
C495 C494 1.376 . S
C495 C496 1.370 . S
C496 C495 1.370 . S
C496 C497 1.396 . S
C496 H518 0.929 . S
C497 C492 1.373 . S
C497 C496 1.396 . S
C497 H519 0.929 . S
C498 O508 1.240 . S
C498 O509 1.289 . S
C499 O510 1.258 . S
C499 O511 1.256 . S
O500 La480 2.521 . S
O500 C482 1.261 . S
O501 La480 2.628 . S
O501 C482 1.243 . S
O502 La480 2.554 . S
O502 C489 1.240 . S
O503 La480 2.757 . S
O503 La481 2.482 . S
O503 C489 1.289 . S
O504 La480 2.470 . S
O504 C490 1.258 . S
O505 La481 2.503 . S
O505 C490 1.256 . S
O506 La481 2.521 . S
O506 C491 1.261 . S
O507 La481 2.628 . S
O507 C491 1.243 . S
O508 La481 2.554 . S
O508 C498 1.240 . S
O509 La480 2.482 . S
O509 La481 2.757 . S
O509 C498 1.289 . S
O510 La481 2.470 . S
O510 C499 1.258 . S
O511 La480 2.503 . S
O511 C499 1.256 . S
H512 C484 0.930 . S
H513 C485 0.930 . S
H514 C487 0.929 . S
H515 C488 0.929 . S
H516 C493 0.930 . S
H517 C494 0.930 . S
H518 C496 0.929 . S
H519 C497 0.929 . S
La520 C522 2.928 . S
La520 O540 2.521 . S
La520 O541 2.628 . S
La520 O542 2.554 . S
La520 O543 2.757 . S
La520 O544 2.470 . S
La520 O549 2.482 . S
La520 O551 2.503 . S
La521 C531 2.928 . S
La521 O543 2.482 . S
La521 O545 2.503 . S
La521 O546 2.521 . S
La521 O547 2.628 . S
La521 O548 2.554 . S
La521 O549 2.757 . S
La521 O550 2.470 . S
C522 La520 2.928 . S
C522 C523 1.503 . S
C522 O540 1.261 . S
C522 O541 1.243 . S
C523 C522 1.503 . S
C523 C524 1.394 . S
C523 C528 1.373 . S
C524 C523 1.394 . S
C524 C525 1.380 . S
C524 H552 0.930 . S
C525 C524 1.380 . S
C525 C526 1.376 . S
C525 H553 0.930 . S
C526 C525 1.376 . S
C526 C527 1.370 . S
C527 C526 1.370 . S
C527 C528 1.396 . S
C527 H554 0.929 . S
C528 C523 1.373 . S
C528 C527 1.396 . S
C528 H555 0.929 . S
C529 O542 1.240 . S
C529 O543 1.289 . S
C530 O544 1.258 . S
C530 O545 1.256 . S
C531 La521 2.928 . S
C531 C532 1.503 . S
C531 O546 1.261 . S
C531 O547 1.243 . S
C532 C531 1.503 . S
C532 C533 1.394 . S
C532 C537 1.373 . S
C533 C532 1.394 . S
C533 C534 1.380 . S
C533 H556 0.930 . S
C534 C533 1.380 . S
C534 C535 1.376 . S
C534 H557 0.930 . S
C535 C534 1.376 . S
C535 C536 1.370 . S
C536 C535 1.370 . S
C536 C537 1.396 . S
C536 H558 0.929 . S
C537 C532 1.373 . S
C537 C536 1.396 . S
C537 H559 0.929 . S
C538 O548 1.240 . S
C538 O549 1.289 . S
C539 O550 1.258 . S
C539 O551 1.256 . S
O540 La520 2.521 . S
O540 C522 1.261 . S
O541 La520 2.628 . S
O541 C522 1.243 . S
O542 La520 2.554 . S
O542 C529 1.240 . S
O543 La520 2.757 . S
O543 La521 2.482 . S
O543 C529 1.289 . S
O544 La520 2.470 . S
O544 C530 1.258 . S
O545 La521 2.503 . S
O545 C530 1.256 . S
O546 La521 2.521 . S
O546 C531 1.261 . S
O547 La521 2.628 . S
O547 C531 1.243 . S
O548 La521 2.554 . S
O548 C538 1.240 . S
O549 La520 2.482 . S
O549 La521 2.757 . S
O549 C538 1.289 . S
O550 La521 2.470 . S
O550 C539 1.258 . S
O551 La520 2.503 . S
O551 C539 1.256 . S
H552 C524 0.930 . S
H553 C525 0.930 . S
H554 C527 0.929 . S
H555 C528 0.929 . S
H556 C533 0.930 . S
H557 C534 0.930 . S
H558 C536 0.929 . S
H559 C537 0.929 . S
La560 C562 2.928 . S
La560 O580 2.521 . S
La560 O581 2.628 . S
La560 O582 2.554 . S
La560 O583 2.757 . S
La560 O584 2.470 . S
La560 O589 2.482 . S
La560 O591 2.503 . S
La561 C571 2.928 . S
La561 O583 2.482 . S
La561 O585 2.503 . S
La561 O586 2.521 . S
La561 O587 2.628 . S
La561 O588 2.554 . S
La561 O589 2.757 . S
La561 O590 2.470 . S
C562 La560 2.928 . S
C562 C563 1.503 . S
C562 O580 1.261 . S
C562 O581 1.243 . S
C563 C562 1.503 . S
C563 C564 1.394 . S
C563 C568 1.373 . S
C564 C563 1.394 . S
C564 C565 1.380 . S
C564 H592 0.930 . S
C565 C564 1.380 . S
C565 C566 1.376 . S
C565 H593 0.930 . S
C566 C565 1.376 . S
C566 C567 1.370 . S
C567 C566 1.370 . S
C567 C568 1.396 . S
C567 H594 0.929 . S
C568 C563 1.373 . S
C568 C567 1.396 . S
C568 H595 0.929 . S
C569 O582 1.240 . S
C569 O583 1.289 . S
C570 O584 1.258 . S
C570 O585 1.256 . S
C571 La561 2.928 . S
C571 C572 1.503 . S
C571 O586 1.261 . S
C571 O587 1.243 . S
C572 C571 1.503 . S
C572 C573 1.394 . S
C572 C577 1.373 . S
C573 C572 1.394 . S
C573 C574 1.380 . S
C573 H596 0.930 . S
C574 C573 1.380 . S
C574 C575 1.376 . S
C574 H597 0.930 . S
C575 C574 1.376 . S
C575 C576 1.370 . S
C576 C575 1.370 . S
C576 C577 1.396 . S
C576 H598 0.929 . S
C577 C572 1.373 . S
C577 C576 1.396 . S
C577 H599 0.929 . S
C578 O588 1.240 . S
C578 O589 1.289 . S
C579 O590 1.258 . S
C579 O591 1.256 . S
O580 La560 2.521 . S
O580 C562 1.261 . S
O581 La560 2.628 . S
O581 C562 1.243 . S
O582 La560 2.554 . S
O582 C569 1.240 . S
O583 La560 2.757 . S
O583 La561 2.482 . S
O583 C569 1.289 . S
O584 La560 2.470 . S
O584 C570 1.258 . S
O585 La561 2.503 . S
O585 C570 1.256 . S
O586 La561 2.521 . S
O586 C571 1.261 . S
O587 La561 2.628 . S
O587 C571 1.243 . S
O588 La561 2.554 . S
O588 C578 1.240 . S
O589 La560 2.482 . S
O589 La561 2.757 . S
O589 C578 1.289 . S
O590 La561 2.470 . S
O590 C579 1.258 . S
O591 La560 2.503 . S
O591 C579 1.256 . S
H592 C564 0.930 . S
H593 C565 0.930 . S
H594 C567 0.929 . S
H595 C568 0.929 . S
H596 C573 0.930 . S
H597 C574 0.930 . S
H598 C576 0.929 . S
H599 C577 0.929 . S
La600 C602 2.928 . S
La600 O620 2.521 . S
La600 O621 2.628 . S
La600 O622 2.554 1_554 S
La600 O623 2.757 1_554 S
La600 O624 2.470 1_554 S
La600 O629 2.482 1_655 S
La600 O631 2.503 . S
La601 C611 2.928 . S
La601 O623 2.482 1_455 S
La601 O625 2.503 . S
La601 O626 2.521 . S
La601 O627 2.628 . S
La601 O628 2.554 1_556 S
La601 O629 2.757 1_556 S
La601 O630 2.470 1_556 S
C602 La600 2.928 . S
C602 C603 1.503 . S
C602 O620 1.261 . S
C602 O621 1.243 . S
C603 C602 1.503 . S
C603 C604 1.394 . S
C603 C608 1.373 . S
C604 C603 1.394 . S
C604 C605 1.380 . S
C604 H632 0.930 . S
C605 C604 1.380 . S
C605 C606 1.376 . S
C605 H633 0.930 . S
C606 C605 1.376 . S
C606 C607 1.370 . S
C607 C606 1.370 . S
C607 C608 1.396 . S
C607 H634 0.929 . S
C608 C603 1.373 . S
C608 C607 1.396 . S
C608 H635 0.929 . S
C609 O622 1.240 . S
C609 O623 1.289 . S
C610 O624 1.258 . S
C610 O625 1.256 1_655 S
C611 La601 2.928 . S
C611 C612 1.503 . S
C611 O626 1.261 . S
C611 O627 1.243 . S
C612 C611 1.503 . S
C612 C613 1.394 . S
C612 C617 1.373 . S
C613 C612 1.394 . S
C613 C614 1.380 . S
C613 H636 0.930 . S
C614 C613 1.380 . S
C614 C615 1.376 . S
C614 H637 0.930 . S
C615 C614 1.376 . S
C615 C616 1.370 . S
C616 C615 1.370 . S
C616 C617 1.396 . S
C616 H638 0.929 . S
C617 C612 1.373 . S
C617 C616 1.396 . S
C617 H639 0.929 . S
C618 O628 1.240 . S
C618 O629 1.289 . S
C619 O630 1.258 . S
C619 O631 1.256 1_455 S
O620 La600 2.521 . S
O620 C602 1.261 . S
O621 La600 2.628 . S
O621 C602 1.243 . S
O622 La600 2.554 1_556 S
O622 C609 1.240 . S
O623 La600 2.757 1_556 S
O623 La601 2.482 1_655 S
O623 C609 1.289 . S
O624 La600 2.470 1_556 S
O624 C610 1.258 . S
O625 La601 2.503 . S
O625 C610 1.256 1_455 S
O626 La601 2.521 . S
O626 C611 1.261 . S
O627 La601 2.628 . S
O627 C611 1.243 . S
O628 La601 2.554 1_554 S
O628 C618 1.240 . S
O629 La600 2.482 1_455 S
O629 La601 2.757 1_554 S
O629 C618 1.289 . S
O630 La601 2.470 1_554 S
O630 C619 1.258 . S
O631 La600 2.503 . S
O631 C619 1.256 1_655 S
H632 C604 0.930 . S
H633 C605 0.930 . S
H634 C607 0.929 . S
H635 C608 0.929 . S
H636 C613 0.930 . S
H637 C614 0.930 . S
H638 C616 0.929 . S
H639 C617 0.929 . S
H640 C648 0.929 . S
H641 C650 0.930 . S
H642 C652 0.930 . S
H643 C655 0.929 . S
H644 C658 0.930 . S
H645 C660 0.960 . S
H646 C660 0.960 . S
H647 C660 0.960 . S
C648 H640 0.929 . S
C648 C649 1.377 . S
C648 C650 1.384 . S
C649 C648 1.377 . S
C649 C655 1.390 . S
C650 H641 0.930 . S
C650 C648 1.384 . S
C650 C651 1.372 . S
C651 C650 1.372 . S
C651 C652 1.400 . S
C651 C656 1.490 . S
C652 H642 0.930 . S
C652 C651 1.400 . S
C652 C655 1.386 . S
H653 C669 0.930 . S
H654 C670 0.931 . S
C655 H643 0.929 . S
C655 C649 1.390 . S
C655 C652 1.386 . S
C656 C651 1.490 . S
C656 C658 1.395 . S
C656 C659 1.403 . S
H657 C663 0.930 . S
C658 H644 0.930 . S
C658 C656 1.395 . S
C658 C661 1.403 . S
C659 C656 1.403 . S
C659 C660 1.524 . S
C659 C663 1.400 . S
C660 H645 0.960 . S
C660 H646 0.960 . S
C660 H647 0.960 . S
C660 C659 1.524 . S
C661 C658 1.403 . S
C661 C662 1.392 . S
C661 C665 1.495 . S
C662 C661 1.392 . S
C662 C663 1.385 . S
C662 C664 1.478 . S
C663 H657 0.930 . S
C663 C659 1.400 . S
C663 C662 1.385 . S
C664 C662 1.478 . S
C664 C666 1.381 . S
C664 C670 1.383 . S
C665 C661 1.495 . S
C665 H671 0.959 . S
C665 H672 0.961 . S
C665 H673 0.960 . S
C666 C664 1.381 . S
C666 C667 1.394 . S
C666 H674 0.930 . S
C667 C666 1.394 . S
C667 C668 1.383 . S
C667 H675 0.929 . S
C668 C667 1.383 . S
C668 C669 1.377 . S
C669 H653 0.930 . S
C669 C668 1.377 . S
C669 C670 1.379 . S
C670 H654 0.931 . S
C670 C664 1.383 . S
C670 C669 1.379 . S
H671 C665 0.959 . S
H672 C665 0.961 . S
H673 C665 0.960 . S
H674 C666 0.930 . S
H675 C667 0.929 . S
H676 C684 0.929 . S
H677 C686 0.930 . S
H678 C688 0.930 . S
H679 C691 0.929 . S
H680 C694 0.930 . S
H681 C696 0.960 . S
H682 C696 0.960 . S
H683 C696 0.960 . S
C684 H676 0.929 . S
C684 C685 1.377 . S
C684 C686 1.384 . S
C685 C684 1.377 . S
C685 C691 1.390 . S
C686 H677 0.930 . S
C686 C684 1.384 . S
C686 C687 1.372 . S
C687 C686 1.372 . S
C687 C688 1.400 . S
C687 C692 1.490 . S
C688 H678 0.930 . S
C688 C687 1.400 . S
C688 C691 1.386 . S
H689 C705 0.930 . S
H690 C706 0.931 . S
C691 H679 0.929 . S
C691 C685 1.390 . S
C691 C688 1.386 . S
C692 C687 1.490 . S
C692 C694 1.395 . S
C692 C695 1.403 . S
H693 C699 0.930 . S
C694 H680 0.930 . S
C694 C692 1.395 . S
C694 C697 1.403 . S
C695 C692 1.403 . S
C695 C696 1.524 . S
C695 C699 1.400 . S
C696 H681 0.960 . S
C696 H682 0.960 . S
C696 H683 0.960 . S
C696 C695 1.524 . S
C697 C694 1.403 . S
C697 C698 1.392 . S
C697 C701 1.495 . S
C698 C697 1.392 . S
C698 C699 1.385 . S
C698 C700 1.478 . S
C699 H693 0.930 . S
C699 C695 1.400 . S
C699 C698 1.385 . S
C700 C698 1.478 . S
C700 C702 1.381 . S
C700 C706 1.383 . S
C701 C697 1.495 . S
C701 H707 0.959 . S
C701 H708 0.961 . S
C701 H709 0.960 . S
C702 C700 1.381 . S
C702 C703 1.394 . S
C702 H710 0.930 . S
C703 C702 1.394 . S
C703 C704 1.383 . S
C703 H711 0.929 . S
C704 C703 1.383 . S
C704 C705 1.377 . S
C705 H689 0.930 . S
C705 C704 1.377 . S
C705 C706 1.379 . S
C706 H690 0.931 . S
C706 C700 1.383 . S
C706 C705 1.379 . S
H707 C701 0.959 . S
H708 C701 0.961 . S
H709 C701 0.960 . S
H710 C702 0.930 . S
H711 C703 0.929 . S
H712 C720 0.929 . S
H713 C722 0.930 . S
H714 C724 0.930 . S
H715 C727 0.929 . S
H716 C730 0.930 . S
H717 C732 0.960 . S
H718 C732 0.960 . S
H719 C732 0.960 . S
C720 H712 0.929 . S
C720 C721 1.377 . S
C720 C722 1.384 . S
C721 C720 1.377 . S
C721 C727 1.390 . S
C722 H713 0.930 . S
C722 C720 1.384 . S
C722 C723 1.372 . S
C723 C722 1.372 . S
C723 C724 1.400 . S
C723 C728 1.490 . S
C724 H714 0.930 . S
C724 C723 1.400 . S
C724 C727 1.386 . S
H725 C741 0.930 . S
H726 C742 0.931 . S
C727 H715 0.929 . S
C727 C721 1.390 . S
C727 C724 1.386 . S
C728 C723 1.490 . S
C728 C730 1.395 . S
C728 C731 1.403 . S
H729 C735 0.930 . S
C730 H716 0.930 . S
C730 C728 1.395 . S
C730 C733 1.403 . S
C731 C728 1.403 . S
C731 C732 1.524 . S
C731 C735 1.400 . S
C732 H717 0.960 . S
C732 H718 0.960 . S
C732 H719 0.960 . S
C732 C731 1.524 . S
C733 C730 1.403 . S
C733 C734 1.392 . S
C733 C737 1.495 . S
C734 C733 1.392 . S
C734 C735 1.385 . S
C734 C736 1.478 . S
C735 H729 0.930 . S
C735 C731 1.400 . S
C735 C734 1.385 . S
C736 C734 1.478 . S
C736 C738 1.381 . S
C736 C742 1.383 . S
C737 C733 1.495 . S
C737 H743 0.959 . S
C737 H744 0.961 . S
C737 H745 0.960 . S
C738 C736 1.381 . S
C738 C739 1.394 . S
C738 H746 0.930 . S
C739 C738 1.394 . S
C739 C740 1.383 . S
C739 H747 0.929 . S
C740 C739 1.383 . S
C740 C741 1.377 . S
C741 H725 0.930 . S
C741 C740 1.377 . S
C741 C742 1.379 . S
C742 H726 0.931 . S
C742 C736 1.383 . S
C742 C741 1.379 . S
H743 C737 0.959 . S
H744 C737 0.961 . S
H745 C737 0.960 . S
H746 C738 0.930 . S
H747 C739 0.929 . S
H748 C756 0.929 . S
H749 C758 0.930 . S
H750 C760 0.930 . S
H751 C763 0.929 . S
H752 C766 0.930 . S
H753 C768 0.960 . S
H754 C768 0.960 . S
H755 C768 0.960 . S
C756 H748 0.929 . S
C756 C757 1.377 . S
C756 C758 1.384 . S
C757 C756 1.377 . S
C757 C763 1.390 . S
C758 H749 0.930 . S
C758 C756 1.384 . S
C758 C759 1.372 . S
C759 C758 1.372 . S
C759 C760 1.400 . S
C759 C764 1.490 . S
C760 H750 0.930 . S
C760 C759 1.400 . S
C760 C763 1.386 . S
H761 C777 0.930 . S
H762 C778 0.931 . S
C763 H751 0.929 . S
C763 C757 1.390 . S
C763 C760 1.386 . S
C764 C759 1.490 . S
C764 C766 1.395 . S
C764 C767 1.403 . S
H765 C771 0.930 . S
C766 H752 0.930 . S
C766 C764 1.395 . S
C766 C769 1.403 . S
C767 C764 1.403 . S
C767 C768 1.524 . S
C767 C771 1.400 . S
C768 H753 0.960 . S
C768 H754 0.960 . S
C768 H755 0.960 . S
C768 C767 1.524 . S
C769 C766 1.403 . S
C769 C770 1.392 . S
C769 C773 1.495 . S
C770 C769 1.392 . S
C770 C771 1.385 . S
C770 C772 1.478 . S
C771 H765 0.930 . S
C771 C767 1.400 . S
C771 C770 1.385 . S
C772 C770 1.478 . S
C772 C774 1.381 . S
C772 C778 1.383 . S
C773 C769 1.495 . S
C773 H779 0.959 . S
C773 H780 0.961 . S
C773 H781 0.960 . S
C774 C772 1.381 . S
C774 C775 1.394 . S
C774 H782 0.930 . S
C775 C774 1.394 . S
C775 C776 1.383 . S
C775 H783 0.929 . S
C776 C775 1.383 . S
C776 C777 1.377 . S
C777 H761 0.930 . S
C777 C776 1.377 . S
C777 C778 1.379 . S
C778 H762 0.931 . S
C778 C772 1.383 . S
C778 C777 1.379 . S
H779 C773 0.959 . S
H780 C773 0.961 . S
H781 C773 0.960 . S
H782 C774 0.930 . S
H783 C775 0.929 . S
H784 C792 0.929 . S
H785 C794 0.930 . S
H786 C796 0.930 . S
H787 C799 0.929 . S
H788 C802 0.930 . S
H789 C804 0.960 . S
H790 C804 0.960 . S
H791 C804 0.960 . S
C792 H784 0.929 . S
C792 C793 1.377 . S
C792 C794 1.384 . S
C793 C792 1.377 . S
C793 C799 1.390 . S
C794 H785 0.930 . S
C794 C792 1.384 . S
C794 C795 1.372 . S
C795 C794 1.372 . S
C795 C796 1.400 . S
C795 C800 1.490 . S
C796 H786 0.930 . S
C796 C795 1.400 . S
C796 C799 1.386 . S
H797 C813 0.930 . S
H798 C814 0.931 . S
C799 H787 0.929 . S
C799 C793 1.390 . S
C799 C796 1.386 . S
C800 C795 1.490 . S
C800 C802 1.395 . S
C800 C803 1.403 . S
H801 C807 0.930 . S
C802 H788 0.930 . S
C802 C800 1.395 . S
C802 C805 1.403 . S
C803 C800 1.403 . S
C803 C804 1.524 . S
C803 C807 1.400 . S
C804 H789 0.960 . S
C804 H790 0.960 . S
C804 H791 0.960 . S
C804 C803 1.524 . S
C805 C802 1.403 . S
C805 C806 1.392 . S
C805 C809 1.495 . S
C806 C805 1.392 . S
C806 C807 1.385 . S
C806 C808 1.478 . S
C807 H801 0.930 . S
C807 C803 1.400 . S
C807 C806 1.385 . S
C808 C806 1.478 . S
C808 C810 1.381 . S
C808 C814 1.383 . S
C809 C805 1.495 . S
C809 H815 0.959 . S
C809 H816 0.961 . S
C809 H817 0.960 . S
C810 C808 1.381 . S
C810 C811 1.394 . S
C810 H818 0.930 . S
C811 C810 1.394 . S
C811 C812 1.383 . S
C811 H819 0.929 . S
C812 C811 1.383 . S
C812 C813 1.377 . S
C813 H797 0.930 . S
C813 C812 1.377 . S
C813 C814 1.379 . S
C814 H798 0.931 . S
C814 C808 1.383 . S
C814 C813 1.379 . S
H815 C809 0.959 . S
H816 C809 0.961 . S
H817 C809 0.960 . S
H818 C810 0.930 . S
H819 C811 0.929 . S
H820 C828 0.929 . S
H821 C830 0.930 . S
H822 C832 0.930 . S
H823 C835 0.929 . S
H824 C838 0.930 . S
H825 C840 0.960 . S
H826 C840 0.960 . S
H827 C840 0.960 . S
C828 H820 0.929 . S
C828 C829 1.377 . S
C828 C830 1.384 . S
C829 C828 1.377 . S
C829 C835 1.390 . S
C830 H821 0.930 . S
C830 C828 1.384 . S
C830 C831 1.372 . S
C831 C830 1.372 . S
C831 C832 1.400 . S
C831 C836 1.490 . S
C832 H822 0.930 . S
C832 C831 1.400 . S
C832 C835 1.386 . S
H833 C849 0.930 . S
H834 C850 0.931 . S
C835 H823 0.929 . S
C835 C829 1.390 . S
C835 C832 1.386 . S
C836 C831 1.490 . S
C836 C838 1.395 . S
C836 C839 1.403 . S
H837 C843 0.930 . S
C838 H824 0.930 . S
C838 C836 1.395 . S
C838 C841 1.403 . S
C839 C836 1.403 . S
C839 C840 1.524 . S
C839 C843 1.400 . S
C840 H825 0.960 . S
C840 H826 0.960 . S
C840 H827 0.960 . S
C840 C839 1.524 . S
C841 C838 1.403 . S
C841 C842 1.392 . S
C841 C845 1.495 . S
C842 C841 1.392 . S
C842 C843 1.385 . S
C842 C844 1.478 . S
C843 H837 0.930 . S
C843 C839 1.400 . S
C843 C842 1.385 . S
C844 C842 1.478 . S
C844 C846 1.381 . S
C844 C850 1.383 . S
C845 C841 1.495 . S
C845 H851 0.959 . S
C845 H852 0.961 . S
C845 H853 0.960 . S
C846 C844 1.381 . S
C846 C847 1.394 . S
C846 H854 0.930 . S
C847 C846 1.394 . S
C847 C848 1.383 . S
C847 H855 0.929 . S
C848 C847 1.383 . S
C848 C849 1.377 . S
C849 H833 0.930 . S
C849 C848 1.377 . S
C849 C850 1.379 . S
C850 H834 0.931 . S
C850 C844 1.383 . S
C850 C849 1.379 . S
H851 C845 0.959 . S
H852 C845 0.961 . S
H853 C845 0.960 . S
H854 C846 0.930 . S
H855 C847 0.929 . S
H856 C864 0.929 . S
H857 C866 0.930 . S
H858 C868 0.930 . S
H859 C871 0.929 . S
H860 C874 0.930 . S
H861 C876 0.960 . S
H862 C876 0.960 . S
H863 C876 0.960 . S
C864 H856 0.929 . S
C864 C865 1.377 . S
C864 C866 1.384 . S
C865 C864 1.377 . S
C865 C871 1.390 . S
C866 H857 0.930 . S
C866 C864 1.384 . S
C866 C867 1.372 . S
C867 C866 1.372 . S
C867 C868 1.400 . S
C867 C872 1.490 . S
C868 H858 0.930 . S
C868 C867 1.400 . S
C868 C871 1.386 . S
H869 C885 0.930 . S
H870 C886 0.931 . S
C871 H859 0.929 . S
C871 C865 1.390 . S
C871 C868 1.386 . S
C872 C867 1.490 . S
C872 C874 1.395 . S
C872 C875 1.403 . S
H873 C879 0.930 . S
C874 H860 0.930 . S
C874 C872 1.395 . S
C874 C877 1.403 . S
C875 C872 1.403 . S
C875 C876 1.524 . S
C875 C879 1.400 . S
C876 H861 0.960 . S
C876 H862 0.960 . S
C876 H863 0.960 . S
C876 C875 1.524 . S
C877 C874 1.403 . S
C877 C878 1.392 . S
C877 C881 1.495 . S
C878 C877 1.392 . S
C878 C879 1.385 . S
C878 C880 1.478 . S
C879 H873 0.930 . S
C879 C875 1.400 . S
C879 C878 1.385 . S
C880 C878 1.478 . S
C880 C882 1.381 . S
C880 C886 1.383 . S
C881 C877 1.495 . S
C881 H887 0.959 . S
C881 H888 0.961 . S
C881 H889 0.960 . S
C882 C880 1.381 . S
C882 C883 1.394 . S
C882 H890 0.930 . S
C883 C882 1.394 . S
C883 C884 1.383 . S
C883 H891 0.929 . S
C884 C883 1.383 . S
C884 C885 1.377 . S
C885 H869 0.930 . S
C885 C884 1.377 . S
C885 C886 1.379 . S
C886 H870 0.931 . S
C886 C880 1.383 . S
C886 C885 1.379 . S
H887 C881 0.959 . S
H888 C881 0.961 . S
H889 C881 0.960 . S
H890 C882 0.930 . S
H891 C883 0.929 . S
H892 C900 0.929 . S
H893 C902 0.930 . S
H894 C904 0.930 . S
H895 C907 0.929 . S
H896 C910 0.930 . S
H897 C912 0.960 . S
H898 C912 0.960 . S
H899 C912 0.960 . S
C900 H892 0.929 . S
C900 C901 1.377 . S
C900 C902 1.384 . S
C901 C900 1.377 . S
C901 C907 1.390 . S
C902 H893 0.930 . S
C902 C900 1.384 . S
C902 C903 1.372 . S
C903 C902 1.372 . S
C903 C904 1.400 . S
C903 C908 1.490 . S
C904 H894 0.930 . S
C904 C903 1.400 . S
C904 C907 1.386 . S
H905 C921 0.930 . S
H906 C922 0.931 . S
C907 H895 0.929 . S
C907 C901 1.390 . S
C907 C904 1.386 . S
C908 C903 1.490 . S
C908 C910 1.395 . S
C908 C911 1.403 . S
H909 C915 0.930 . S
C910 H896 0.930 . S
C910 C908 1.395 . S
C910 C913 1.403 . S
C911 C908 1.403 . S
C911 C912 1.524 . S
C911 C915 1.400 . S
C912 H897 0.960 . S
C912 H898 0.960 . S
C912 H899 0.960 . S
C912 C911 1.524 . S
C913 C910 1.403 . S
C913 C914 1.392 . S
C913 C917 1.495 . S
C914 C913 1.392 . S
C914 C915 1.385 . S
C914 C916 1.478 . S
C915 H909 0.930 . S
C915 C911 1.400 . S
C915 C914 1.385 . S
C916 C914 1.478 . S
C916 C918 1.381 . S
C916 C922 1.383 . S
C917 C913 1.495 . S
C917 H923 0.959 . S
C917 H924 0.961 . S
C917 H925 0.960 . S
C918 C916 1.381 . S
C918 C919 1.394 . S
C918 H926 0.930 . S
C919 C918 1.394 . S
C919 C920 1.383 . S
C919 H927 0.929 . S
C920 C919 1.383 . S
C920 C921 1.377 . S
C921 H905 0.930 . S
C921 C920 1.377 . S
C921 C922 1.379 . S
C922 H906 0.931 . S
C922 C916 1.383 . S
C922 C921 1.379 . S
H923 C917 0.959 . S
H924 C917 0.961 . S
H925 C917 0.960 . S
H926 C918 0.930 . S
H927 C919 0.929 . S
H928 C936 0.929 . S
H929 C938 0.930 . S
H930 C940 0.930 . S
H931 C943 0.929 . S
H932 C946 0.930 . S
H933 C948 0.960 . S
H934 C948 0.960 . S
H935 C948 0.960 . S
C936 H928 0.929 . S
C936 C937 1.377 . S
C936 C938 1.384 . S
C937 C936 1.377 . S
C937 C943 1.390 . S
C938 H929 0.930 . S
C938 C936 1.384 . S
C938 C939 1.372 . S
C939 C938 1.372 . S
C939 C940 1.400 . S
C939 C944 1.490 . S
C940 H930 0.930 . S
C940 C939 1.400 . S
C940 C943 1.386 . S
H941 C957 0.930 . S
H942 C958 0.931 . S
C943 H931 0.929 . S
C943 C937 1.390 . S
C943 C940 1.386 . S
C944 C939 1.490 . S
C944 C946 1.395 . S
C944 C947 1.403 . S
H945 C951 0.930 . S
C946 H932 0.930 . S
C946 C944 1.395 . S
C946 C949 1.403 . S
C947 C944 1.403 . S
C947 C948 1.524 . S
C947 C951 1.400 . S
C948 H933 0.960 . S
C948 H934 0.960 . S
C948 H935 0.960 . S
C948 C947 1.524 . S
C949 C946 1.403 . S
C949 C950 1.392 . S
C949 C953 1.495 1_655 S
C950 C949 1.392 . S
C950 C951 1.385 . S
C950 C952 1.478 . S
C951 H945 0.930 . S
C951 C947 1.400 . S
C951 C950 1.385 . S
C952 C950 1.478 . S
C952 C954 1.381 . S
C952 C958 1.383 . S
C953 C949 1.495 1_455 S
C953 H959 0.959 . S
C953 H960 0.961 . S
C953 H961 0.960 . S
C954 C952 1.381 . S
C954 C955 1.394 . S
C954 H962 0.930 . S
C955 C954 1.394 . S
C955 C956 1.383 . S
C955 H963 0.929 . S
C956 C955 1.383 . S
C956 C957 1.377 . S
C957 H941 0.930 . S
C957 C956 1.377 . S
C957 C958 1.379 . S
C958 H942 0.931 . S
C958 C952 1.383 . S
C958 C957 1.379 . S
H959 C953 0.959 . S
H960 C953 0.961 . S
H961 C953 0.960 . S
H962 C954 0.930 . S
H963 C955 0.929 . S
H964 C972 0.929 . S
H965 C974 0.930 . S
H966 C976 0.930 . S
H967 C979 0.929 . S
H968 C982 0.930 . S
H969 C984 0.960 . S
H970 C984 0.960 . S
H971 C984 0.960 . S
C972 H964 0.929 . S
C972 C973 1.377 . S
C972 C974 1.384 . S
C973 C972 1.377 . S
C973 C979 1.390 . S
C974 H965 0.930 . S
C974 C972 1.384 . S
C974 C975 1.372 . S
C975 C974 1.372 . S
C975 C976 1.400 . S
C975 C980 1.490 . S
C976 H966 0.930 . S
C976 C975 1.400 . S
C976 C979 1.386 . S
H977 C993 0.930 . S
H978 C994 0.931 . S
C979 H967 0.929 . S
C979 C973 1.390 . S
C979 C976 1.386 . S
C980 C975 1.490 . S
C980 C982 1.395 . S
C980 C983 1.403 . S
H981 C987 0.930 . S
C982 H968 0.930 . S
C982 C980 1.395 . S
C982 C985 1.403 . S
C983 C980 1.403 . S
C983 C984 1.524 . S
C983 C987 1.400 . S
C984 H969 0.960 . S
C984 H970 0.960 . S
C984 H971 0.960 . S
C984 C983 1.524 . S
C985 C982 1.403 . S
C985 C986 1.392 . S
C985 C989 1.495 . S
C986 C985 1.392 . S
C986 C987 1.385 . S
C986 C988 1.478 . S
C987 H981 0.930 . S
C987 C983 1.400 . S
C987 C986 1.385 . S
C988 C986 1.478 . S
C988 C990 1.381 . S
C988 C994 1.383 . S
C989 C985 1.495 . S
C989 H995 0.959 . S
C989 H996 0.961 . S
C989 H997 0.960 . S
C990 C988 1.381 . S
C990 C991 1.394 . S
C990 H998 0.930 . S
C991 C990 1.394 . S
C991 C992 1.383 . S
C991 H999 0.929 . S
C992 C991 1.383 . S
C992 C993 1.377 . S
C993 H977 0.930 . S
C993 C992 1.377 . S
C993 C994 1.379 . S
C994 H978 0.931 . S
C994 C988 1.383 . S
C994 C993 1.379 . S
H995 C989 0.959 . S
H996 C989 0.961 . S
H997 C989 0.960 . S
H998 C990 0.930 . S
H999 C991 0.929 . S
H1000 C1008 0.929 . S
H1001 C1010 0.930 . S
H1002 C1012 0.930 . S
H1003 C1015 0.929 . S
H1004 C1018 0.930 . S
H1005 C1020 0.960 . S
H1006 C1020 0.960 . S
H1007 C1020 0.960 . S
C1008 H1000 0.929 . S
C1008 C1009 1.377 . S
C1008 C1010 1.384 . S
C1009 C1008 1.377 . S
C1009 C1015 1.390 . S
C1010 H1001 0.930 . S
C1010 C1008 1.384 . S
C1010 C1011 1.372 . S
C1011 C1010 1.372 . S
C1011 C1012 1.400 . S
C1011 C1016 1.490 . S
C1012 H1002 0.930 . S
C1012 C1011 1.400 . S
C1012 C1015 1.386 . S
H1013 C1029 0.930 . S
H1014 C1030 0.931 . S
C1015 H1003 0.929 . S
C1015 C1009 1.390 . S
C1015 C1012 1.386 . S
C1016 C1011 1.490 . S
C1016 C1018 1.395 . S
C1016 C1019 1.403 . S
H1017 C1023 0.930 . S
C1018 H1004 0.930 . S
C1018 C1016 1.395 . S
C1018 C1021 1.403 . S
C1019 C1016 1.403 . S
C1019 C1020 1.524 . S
C1019 C1023 1.400 . S
C1020 H1005 0.960 . S
C1020 H1006 0.960 . S
C1020 H1007 0.960 . S
C1020 C1019 1.524 . S
C1021 C1018 1.403 . S
C1021 C1022 1.392 . S
C1021 C1025 1.495 . S
C1022 C1021 1.392 . S
C1022 C1023 1.385 . S
C1022 C1024 1.478 . S
C1023 H1017 0.930 . S
C1023 C1019 1.400 . S
C1023 C1022 1.385 . S
C1024 C1022 1.478 . S
C1024 C1026 1.381 . S
C1024 C1030 1.383 . S
C1025 C1021 1.495 . S
C1025 H1031 0.959 . S
C1025 H1032 0.961 . S
C1025 H1033 0.960 . S
C1026 C1024 1.381 . S
C1026 C1027 1.394 . S
C1026 H1034 0.930 . S
C1027 C1026 1.394 . S
C1027 C1028 1.383 . S
C1027 H1035 0.929 . S
C1028 C1027 1.383 . S
C1028 C1029 1.377 . S
C1029 H1013 0.930 . S
C1029 C1028 1.377 . S
C1029 C1030 1.379 . S
C1030 H1014 0.931 . S
C1030 C1024 1.383 . S
C1030 C1029 1.379 . S
H1031 C1025 0.959 . S
H1032 C1025 0.961 . S
H1033 C1025 0.960 . S
H1034 C1026 0.930 . S
H1035 C1027 0.929 . S
H1036 C1044 0.929 . S
H1037 C1046 0.930 . S
H1038 C1048 0.930 . S
H1039 C1051 0.929 . S
H1040 C1054 0.930 . S
H1041 C1056 0.960 . S
H1042 C1056 0.960 . S
H1043 C1056 0.960 . S
C1044 H1036 0.929 . S
C1044 C1045 1.377 . S
C1044 C1046 1.384 . S
C1045 C1044 1.377 . S
C1045 C1051 1.390 . S
C1046 H1037 0.930 . S
C1046 C1044 1.384 . S
C1046 C1047 1.372 . S
C1047 C1046 1.372 . S
C1047 C1048 1.400 . S
C1047 C1052 1.490 . S
C1048 H1038 0.930 . S
C1048 C1047 1.400 . S
C1048 C1051 1.386 . S
H1049 C1065 0.930 . S
H1050 C1066 0.931 . S
C1051 H1039 0.929 . S
C1051 C1045 1.390 . S
C1051 C1048 1.386 . S
C1052 C1047 1.490 . S
C1052 C1054 1.395 . S
C1052 C1055 1.403 . S
H1053 C1059 0.930 . S
C1054 H1040 0.930 . S
C1054 C1052 1.395 . S
C1054 C1057 1.403 . S
C1055 C1052 1.403 . S
C1055 C1056 1.524 . S
C1055 C1059 1.400 . S
C1056 H1041 0.960 . S
C1056 H1042 0.960 . S
C1056 H1043 0.960 . S
C1056 C1055 1.524 . S
C1057 C1054 1.403 . S
C1057 C1058 1.392 . S
C1057 C1061 1.495 . S
C1058 C1057 1.392 . S
C1058 C1059 1.385 . S
C1058 C1060 1.478 . S
C1059 H1053 0.930 . S
C1059 C1055 1.400 . S
C1059 C1058 1.385 . S
C1060 C1058 1.478 . S
C1060 C1062 1.381 . S
C1060 C1066 1.383 . S
C1061 C1057 1.495 . S
C1061 H1067 0.959 . S
C1061 H1068 0.961 . S
C1061 H1069 0.960 . S
C1062 C1060 1.381 . S
C1062 C1063 1.394 . S
C1062 H1070 0.930 . S
C1063 C1062 1.394 . S
C1063 C1064 1.383 . S
C1063 H1071 0.929 . S
C1064 C1063 1.383 . S
C1064 C1065 1.377 . S
C1065 H1049 0.930 . S
C1065 C1064 1.377 . S
C1065 C1066 1.379 . S
C1066 H1050 0.931 . S
C1066 C1060 1.383 . S
C1066 C1065 1.379 . S
H1067 C1061 0.959 . S
H1068 C1061 0.961 . S
H1069 C1061 0.960 . S
H1070 C1062 0.930 . S
H1071 C1063 0.929 . S
H1072 C1080 0.929 . S
H1073 C1082 0.930 . S
H1074 C1084 0.930 . S
H1075 C1087 0.929 . S
H1076 C1090 0.930 . S
H1077 C1092 0.960 . S
H1078 C1092 0.960 . S
H1079 C1092 0.960 . S
C1080 H1072 0.929 . S
C1080 C1081 1.377 . S
C1080 C1082 1.384 . S
C1081 C1080 1.377 . S
C1081 C1087 1.390 . S
C1082 H1073 0.930 . S
C1082 C1080 1.384 . S
C1082 C1083 1.372 . S
C1083 C1082 1.372 . S
C1083 C1084 1.400 . S
C1083 C1088 1.490 . S
C1084 H1074 0.930 . S
C1084 C1083 1.400 . S
C1084 C1087 1.386 . S
H1085 C1101 0.930 . S
H1086 C1102 0.931 . S
C1087 H1075 0.929 . S
C1087 C1081 1.390 . S
C1087 C1084 1.386 . S
C1088 C1083 1.490 . S
C1088 C1090 1.395 . S
C1088 C1091 1.403 . S
H1089 C1095 0.930 . S
C1090 H1076 0.930 . S
C1090 C1088 1.395 . S
C1090 C1093 1.403 . S
C1091 C1088 1.403 . S
C1091 C1092 1.524 . S
C1091 C1095 1.400 . S
C1092 H1077 0.960 . S
C1092 H1078 0.960 . S
C1092 H1079 0.960 . S
C1092 C1091 1.524 . S
C1093 C1090 1.403 . S
C1093 C1094 1.392 . S
C1093 C1097 1.495 . S
C1094 C1093 1.392 . S
C1094 C1095 1.385 . S
C1094 C1096 1.478 . S
C1095 H1089 0.930 . S
C1095 C1091 1.400 . S
C1095 C1094 1.385 . S
C1096 C1094 1.478 . S
C1096 C1098 1.381 . S
C1096 C1102 1.383 . S
C1097 C1093 1.495 . S
C1097 H1103 0.959 . S
C1097 H1104 0.961 . S
C1097 H1105 0.960 . S
C1098 C1096 1.381 . S
C1098 C1099 1.394 . S
C1098 H1106 0.930 . S
C1099 C1098 1.394 . S
C1099 C1100 1.383 . S
C1099 H1107 0.929 . S
C1100 C1099 1.383 . S
C1100 C1101 1.377 . S
C1101 H1085 0.930 . S
C1101 C1100 1.377 . S
C1101 C1102 1.379 . S
C1102 H1086 0.931 . S
C1102 C1096 1.383 . S
C1102 C1101 1.379 . S
H1103 C1097 0.959 . S
H1104 C1097 0.961 . S
H1105 C1097 0.960 . S
H1106 C1098 0.930 . S
H1107 C1099 0.929 . S
H1108 C1116 0.929 . S
H1109 C1118 0.930 . S
H1110 C1120 0.930 . S
H1111 C1123 0.929 . S
H1112 C1126 0.930 . S
H1113 C1128 0.960 . S
H1114 C1128 0.960 . S
H1115 C1128 0.960 . S
C1116 H1108 0.929 . S
C1116 C1117 1.377 . S
C1116 C1118 1.384 . S
C1117 C1116 1.377 . S
C1117 C1123 1.390 . S
C1118 H1109 0.930 . S
C1118 C1116 1.384 . S
C1118 C1119 1.372 . S
C1119 C1118 1.372 . S
C1119 C1120 1.400 . S
C1119 C1124 1.490 . S
C1120 H1110 0.930 . S
C1120 C1119 1.400 . S
C1120 C1123 1.386 . S
H1121 C1137 0.930 . S
H1122 C1138 0.931 . S
C1123 H1111 0.929 . S
C1123 C1117 1.390 . S
C1123 C1120 1.386 . S
C1124 C1119 1.490 . S
C1124 C1126 1.395 . S
C1124 C1127 1.403 . S
H1125 C1131 0.930 . S
C1126 H1112 0.930 . S
C1126 C1124 1.395 . S
C1126 C1129 1.403 . S
C1127 C1124 1.403 . S
C1127 C1128 1.524 . S
C1127 C1131 1.400 . S
C1128 H1113 0.960 . S
C1128 H1114 0.960 . S
C1128 H1115 0.960 . S
C1128 C1127 1.524 . S
C1129 C1126 1.403 . S
C1129 C1130 1.392 . S
C1129 C1133 1.495 . S
C1130 C1129 1.392 . S
C1130 C1131 1.385 . S
C1130 C1132 1.478 . S
C1131 H1125 0.930 . S
C1131 C1127 1.400 . S
C1131 C1130 1.385 . S
C1132 C1130 1.478 . S
C1132 C1134 1.381 . S
C1132 C1138 1.383 . S
C1133 C1129 1.495 . S
C1133 H1139 0.959 . S
C1133 H1140 0.961 . S
C1133 H1141 0.960 . S
C1134 C1132 1.381 . S
C1134 C1135 1.394 . S
C1134 H1142 0.930 . S
C1135 C1134 1.394 . S
C1135 C1136 1.383 . S
C1135 H1143 0.929 . S
C1136 C1135 1.383 . S
C1136 C1137 1.377 . S
C1137 H1121 0.930 . S
C1137 C1136 1.377 . S
C1137 C1138 1.379 . S
C1138 H1122 0.931 . S
C1138 C1132 1.383 . S
C1138 C1137 1.379 . S
H1139 C1133 0.959 . S
H1140 C1133 0.961 . S
H1141 C1133 0.960 . S
H1142 C1134 0.930 . S
H1143 C1135 0.929 . S
H1144 C1152 0.929 . S
H1145 C1154 0.930 . S
H1146 C1156 0.930 . S
H1147 C1159 0.929 . S
H1148 C1162 0.930 . S
H1149 C1164 0.960 . S
H1150 C1164 0.960 . S
H1151 C1164 0.960 . S
C1152 H1144 0.929 . S
C1152 C1153 1.377 . S
C1152 C1154 1.384 . S
C1153 C1152 1.377 . S
C1153 C1159 1.390 . S
C1154 H1145 0.930 . S
C1154 C1152 1.384 . S
C1154 C1155 1.372 . S
C1155 C1154 1.372 . S
C1155 C1156 1.400 . S
C1155 C1160 1.490 . S
C1156 H1146 0.930 . S
C1156 C1155 1.400 . S
C1156 C1159 1.386 . S
H1157 C1173 0.930 . S
H1158 C1174 0.931 . S
C1159 H1147 0.929 . S
C1159 C1153 1.390 . S
C1159 C1156 1.386 . S
C1160 C1155 1.490 . S
C1160 C1162 1.395 . S
C1160 C1163 1.403 . S
H1161 C1167 0.930 . S
C1162 H1148 0.930 . S
C1162 C1160 1.395 . S
C1162 C1165 1.403 . S
C1163 C1160 1.403 . S
C1163 C1164 1.524 . S
C1163 C1167 1.400 . S
C1164 H1149 0.960 . S
C1164 H1150 0.960 . S
C1164 H1151 0.960 . S
C1164 C1163 1.524 . S
C1165 C1162 1.403 . S
C1165 C1166 1.392 . S
C1165 C1169 1.495 . S
C1166 C1165 1.392 . S
C1166 C1167 1.385 . S
C1166 C1168 1.478 . S
C1167 H1161 0.930 . S
C1167 C1163 1.400 . S
C1167 C1166 1.385 . S
C1168 C1166 1.478 . S
C1168 C1170 1.381 . S
C1168 C1174 1.383 . S
C1169 C1165 1.495 . S
C1169 H1175 0.959 . S
C1169 H1176 0.961 . S
C1169 H1177 0.960 . S
C1170 C1168 1.381 . S
C1170 C1171 1.394 . S
C1170 H1178 0.930 . S
C1171 C1170 1.394 . S
C1171 C1172 1.383 . S
C1171 H1179 0.929 . S
C1172 C1171 1.383 . S
C1172 C1173 1.377 . S
C1173 H1157 0.930 . S
C1173 C1172 1.377 . S
C1173 C1174 1.379 . S
C1174 H1158 0.931 . S
C1174 C1168 1.383 . S
C1174 C1173 1.379 . S
H1175 C1169 0.959 . S
H1176 C1169 0.961 . S
H1177 C1169 0.960 . S
H1178 C1170 0.930 . S
H1179 C1171 0.929 . S
H1180 C1188 0.929 1_655 S
H1181 C1190 0.930 . S
H1182 C1192 0.930 . S
H1183 C1195 0.929 . S
H1184 C1198 0.930 . S
H1185 C1200 0.960 . S
H1186 C1200 0.960 . S
H1187 C1200 0.960 . S
C1188 H1180 0.929 1_455 S
C1188 C1189 1.377 . S
C1188 C1190 1.384 . S
C1189 C1188 1.377 . S
C1189 C1195 1.390 . S
C1190 H1181 0.930 . S
C1190 C1188 1.384 . S
C1190 C1191 1.372 . S
C1191 C1190 1.372 . S
C1191 C1192 1.400 . S
C1191 C1196 1.490 . S
C1192 H1182 0.930 . S
C1192 C1191 1.400 . S
C1192 C1195 1.386 . S
H1193 C1209 0.930 . S
H1194 C1210 0.931 . S
C1195 H1183 0.929 . S
C1195 C1189 1.390 . S
C1195 C1192 1.386 . S
C1196 C1191 1.490 . S
C1196 C1198 1.395 . S
C1196 C1199 1.403 . S
H1197 C1203 0.930 . S
C1198 H1184 0.930 . S
C1198 C1196 1.395 . S
C1198 C1201 1.403 . S
C1199 C1196 1.403 . S
C1199 C1200 1.524 . S
C1199 C1203 1.400 . S
C1200 H1185 0.960 . S
C1200 H1186 0.960 . S
C1200 H1187 0.960 . S
C1200 C1199 1.524 . S
C1201 C1198 1.403 . S
C1201 C1202 1.392 . S
C1201 C1205 1.495 . S
C1202 C1201 1.392 . S
C1202 C1203 1.385 . S
C1202 C1204 1.478 . S
C1203 H1197 0.930 . S
C1203 C1199 1.400 . S
C1203 C1202 1.385 . S
C1204 C1202 1.478 . S
C1204 C1206 1.381 . S
C1204 C1210 1.383 . S
C1205 C1201 1.495 . S
C1205 H1211 0.959 . S
C1205 H1212 0.961 . S
C1205 H1213 0.960 . S
C1206 C1204 1.381 . S
C1206 C1207 1.394 . S
C1206 H1214 0.930 . S
C1207 C1206 1.394 . S
C1207 C1208 1.383 . S
C1207 H1215 0.929 . S
C1208 C1207 1.383 . S
C1208 C1209 1.377 . S
C1209 H1193 0.930 . S
C1209 C1208 1.377 . S
C1209 C1210 1.379 . S
C1210 H1194 0.931 . S
C1210 C1204 1.383 . S
C1210 C1209 1.379 . S
H1211 C1205 0.959 . S
H1212 C1205 0.961 . S
H1213 C1205 0.960 . S
H1214 C1206 0.930 . S
H1215 C1207 0.929 . S
H1216 C1224 0.929 . S
H1217 C1226 0.930 . S
H1218 C1228 0.930 . S
H1219 C1231 0.929 . S
H1220 C1234 0.930 . S
H1221 C1236 0.960 . S
H1222 C1236 0.960 . S
H1223 C1236 0.960 . S
C1224 H1216 0.929 . S
C1224 C1225 1.377 . S
C1224 C1226 1.384 . S
C1225 C1224 1.377 . S
C1225 C1231 1.390 . S
C1226 H1217 0.930 . S
C1226 C1224 1.384 . S
C1226 C1227 1.372 . S
C1227 C1226 1.372 . S
C1227 C1228 1.400 . S
C1227 C1232 1.490 . S
C1228 H1218 0.930 . S
C1228 C1227 1.400 . S
C1228 C1231 1.386 . S
H1229 C1245 0.930 . S
H1230 C1246 0.931 . S
C1231 H1219 0.929 . S
C1231 C1225 1.390 . S
C1231 C1228 1.386 . S
C1232 C1227 1.490 . S
C1232 C1234 1.395 . S
C1232 C1235 1.403 . S
H1233 C1239 0.930 . S
C1234 H1220 0.930 . S
C1234 C1232 1.395 . S
C1234 C1237 1.403 . S
C1235 C1232 1.403 . S
C1235 C1236 1.524 . S
C1235 C1239 1.400 . S
C1236 H1221 0.960 . S
C1236 H1222 0.960 . S
C1236 H1223 0.960 . S
C1236 C1235 1.524 . S
C1237 C1234 1.403 . S
C1237 C1238 1.392 . S
C1237 C1241 1.495 . S
C1238 C1237 1.392 . S
C1238 C1239 1.385 . S
C1238 C1240 1.478 . S
C1239 H1233 0.930 . S
C1239 C1235 1.400 . S
C1239 C1238 1.385 . S
C1240 C1238 1.478 . S
C1240 C1242 1.381 . S
C1240 C1246 1.383 . S
C1241 C1237 1.495 . S
C1241 H1247 0.959 . S
C1241 H1248 0.961 . S
C1241 H1249 0.960 . S
C1242 C1240 1.381 . S
C1242 C1243 1.394 . S
C1242 H1250 0.930 . S
C1243 C1242 1.394 . S
C1243 C1244 1.383 . S
C1243 H1251 0.929 . S
C1244 C1243 1.383 . S
C1244 C1245 1.377 . S
C1245 H1229 0.930 . S
C1245 C1244 1.377 . S
C1245 C1246 1.379 . S
C1246 H1230 0.931 . S
C1246 C1240 1.383 . S
C1246 C1245 1.379 . S
H1247 C1241 0.959 . S
H1248 C1241 0.961 . S
H1249 C1241 0.960 . S
H1250 C1242 0.930 . S
H1251 C1243 0.929 . S
H1252 C1260 0.929 . S
H1253 C1262 0.930 . S
H1254 C1264 0.930 . S
H1255 C1267 0.929 . S
H1256 C1270 0.930 . S
H1257 C1272 0.960 . S
H1258 C1272 0.960 . S
H1259 C1272 0.960 . S
C1260 H1252 0.929 . S
C1260 C1261 1.377 . S
C1260 C1262 1.384 . S
C1261 C1260 1.377 . S
C1261 C1267 1.390 . S
C1262 H1253 0.930 . S
C1262 C1260 1.384 . S
C1262 C1263 1.372 . S
C1263 C1262 1.372 . S
C1263 C1264 1.400 . S
C1263 C1268 1.490 . S
C1264 H1254 0.930 . S
C1264 C1263 1.400 . S
C1264 C1267 1.386 . S
H1265 C1281 0.930 . S
H1266 C1282 0.931 . S
C1267 H1255 0.929 . S
C1267 C1261 1.390 . S
C1267 C1264 1.386 . S
C1268 C1263 1.490 . S
C1268 C1270 1.395 . S
C1268 C1271 1.403 . S
H1269 C1275 0.930 . S
C1270 H1256 0.930 . S
C1270 C1268 1.395 . S
C1270 C1273 1.403 . S
C1271 C1268 1.403 . S
C1271 C1272 1.524 . S
C1271 C1275 1.400 . S
C1272 H1257 0.960 . S
C1272 H1258 0.960 . S
C1272 H1259 0.960 . S
C1272 C1271 1.524 . S
C1273 C1270 1.403 . S
C1273 C1274 1.392 . S
C1273 C1277 1.495 . S
C1274 C1273 1.392 . S
C1274 C1275 1.385 . S
C1274 C1276 1.478 . S
C1275 H1269 0.930 . S
C1275 C1271 1.400 . S
C1275 C1274 1.385 . S
C1276 C1274 1.478 . S
C1276 C1278 1.381 . S
C1276 C1282 1.383 . S
C1277 C1273 1.495 . S
C1277 H1283 0.959 . S
C1277 H1284 0.961 . S
C1277 H1285 0.960 . S
C1278 C1276 1.381 . S
C1278 C1279 1.394 . S
C1278 H1286 0.930 . S
C1279 C1278 1.394 . S
C1279 C1280 1.383 . S
C1279 H1287 0.929 . S
C1280 C1279 1.383 . S
C1280 C1281 1.377 . S
C1281 H1265 0.930 . S
C1281 C1280 1.377 . S
C1281 C1282 1.379 . S
C1282 H1266 0.931 . S
C1282 C1276 1.383 . S
C1282 C1281 1.379 . S
H1283 C1277 0.959 . S
H1284 C1277 0.961 . S
H1285 C1277 0.960 . S
H1286 C1278 0.930 . S
H1287 C1279 0.929 . S
H1288 C1296 0.929 . S
H1289 C1298 0.930 . S
H1290 C1300 0.930 . S
H1291 C1303 0.929 . S
H1292 C1306 0.930 . S
H1293 C1308 0.960 . S
H1294 C1308 0.960 . S
H1295 C1308 0.960 . S
C1296 H1288 0.929 . S
C1296 C1297 1.377 . S
C1296 C1298 1.384 . S
C1297 C1296 1.377 . S
C1297 C1303 1.390 . S
C1298 H1289 0.930 . S
C1298 C1296 1.384 . S
C1298 C1299 1.372 . S
C1299 C1298 1.372 . S
C1299 C1300 1.400 . S
C1299 C1304 1.490 . S
C1300 H1290 0.930 . S
C1300 C1299 1.400 . S
C1300 C1303 1.386 . S
H1301 C1317 0.930 . S
H1302 C1318 0.931 . S
C1303 H1291 0.929 . S
C1303 C1297 1.390 . S
C1303 C1300 1.386 . S
C1304 C1299 1.490 . S
C1304 C1306 1.395 . S
C1304 C1307 1.403 . S
H1305 C1311 0.930 . S
C1306 H1292 0.930 . S
C1306 C1304 1.395 . S
C1306 C1309 1.403 . S
C1307 C1304 1.403 . S
C1307 C1308 1.524 . S
C1307 C1311 1.400 . S
C1308 H1293 0.960 . S
C1308 H1294 0.960 . S
C1308 H1295 0.960 . S
C1308 C1307 1.524 . S
C1309 C1306 1.403 . S
C1309 C1310 1.392 . S
C1309 C1313 1.495 . S
C1310 C1309 1.392 . S
C1310 C1311 1.385 . S
C1310 C1312 1.478 . S
C1311 H1305 0.930 . S
C1311 C1307 1.400 . S
C1311 C1310 1.385 . S
C1312 C1310 1.478 . S
C1312 C1314 1.381 . S
C1312 C1318 1.383 . S
C1313 C1309 1.495 . S
C1313 H1319 0.959 . S
C1313 H1320 0.961 . S
C1313 H1321 0.960 . S
C1314 C1312 1.381 . S
C1314 C1315 1.394 . S
C1314 H1322 0.930 . S
C1315 C1314 1.394 . S
C1315 C1316 1.383 . S
C1315 H1323 0.929 . S
C1316 C1315 1.383 . S
C1316 C1317 1.377 . S
C1317 H1301 0.930 . S
C1317 C1316 1.377 . S
C1317 C1318 1.379 . S
C1318 H1302 0.931 . S
C1318 C1312 1.383 . S
C1318 C1317 1.379 . S
H1319 C1313 0.959 . S
H1320 C1313 0.961 . S
H1321 C1313 0.960 . S
H1322 C1314 0.930 . S
H1323 C1315 0.929 . S
H1324 C1332 0.929 . S
H1325 C1334 0.930 . S
H1326 C1336 0.930 . S
H1327 C1339 0.929 . S
H1328 C1342 0.930 . S
H1329 C1344 0.960 . S
H1330 C1344 0.960 . S
H1331 C1344 0.960 . S
C1332 H1324 0.929 . S
C1332 C1333 1.377 . S
C1332 C1334 1.384 . S
C1333 C1332 1.377 . S
C1333 C1339 1.390 . S
C1334 H1325 0.930 . S
C1334 C1332 1.384 . S
C1334 C1335 1.372 . S
C1335 C1334 1.372 . S
C1335 C1336 1.400 . S
C1335 C1340 1.490 . S
C1336 H1326 0.930 . S
C1336 C1335 1.400 . S
C1336 C1339 1.386 . S
H1337 C1353 0.930 . S
H1338 C1354 0.931 . S
C1339 H1327 0.929 . S
C1339 C1333 1.390 . S
C1339 C1336 1.386 . S
C1340 C1335 1.490 . S
C1340 C1342 1.395 . S
C1340 C1343 1.403 . S
H1341 C1347 0.930 . S
C1342 H1328 0.930 . S
C1342 C1340 1.395 . S
C1342 C1345 1.403 . S
C1343 C1340 1.403 . S
C1343 C1344 1.524 . S
C1343 C1347 1.400 . S
C1344 H1329 0.960 . S
C1344 H1330 0.960 . S
C1344 H1331 0.960 . S
C1344 C1343 1.524 . S
C1345 C1342 1.403 . S
C1345 C1346 1.392 . S
C1345 C1349 1.495 . S
C1346 C1345 1.392 . S
C1346 C1347 1.385 . S
C1346 C1348 1.478 . S
C1347 H1341 0.930 . S
C1347 C1343 1.400 . S
C1347 C1346 1.385 . S
C1348 C1346 1.478 . S
C1348 C1350 1.381 . S
C1348 C1354 1.383 . S
C1349 C1345 1.495 . S
C1349 H1355 0.959 . S
C1349 H1356 0.961 . S
C1349 H1357 0.960 . S
C1350 C1348 1.381 . S
C1350 C1351 1.394 . S
C1350 H1358 0.930 . S
C1351 C1350 1.394 . S
C1351 C1352 1.383 . S
C1351 H1359 0.929 . S
C1352 C1351 1.383 . S
C1352 C1353 1.377 . S
C1353 H1337 0.930 . S
C1353 C1352 1.377 . S
C1353 C1354 1.379 . S
C1354 H1338 0.931 . S
C1354 C1348 1.383 . S
C1354 C1353 1.379 . S
H1355 C1349 0.959 . S
H1356 C1349 0.961 . S
H1357 C1349 0.960 . S
H1358 C1350 0.930 . S
H1359 C1351 0.929 . S
H1360 C1368 0.929 . S
H1361 C1370 0.930 . S
H1362 C1372 0.930 . S
H1363 C1375 0.929 . S
H1364 C1378 0.930 . S
H1365 C1380 0.960 . S
H1366 C1380 0.960 . S
H1367 C1380 0.960 . S
C1368 H1360 0.929 . S
C1368 C1369 1.377 . S
C1368 C1370 1.384 . S
C1369 C1368 1.377 . S
C1369 C1375 1.390 . S
C1370 H1361 0.930 . S
C1370 C1368 1.384 . S
C1370 C1371 1.372 . S
C1371 C1370 1.372 . S
C1371 C1372 1.400 . S
C1371 C1376 1.490 . S
C1372 H1362 0.930 . S
C1372 C1371 1.400 . S
C1372 C1375 1.386 . S
H1373 C1389 0.930 . S
H1374 C1390 0.931 . S
C1375 H1363 0.929 . S
C1375 C1369 1.390 . S
C1375 C1372 1.386 . S
C1376 C1371 1.490 . S
C1376 C1378 1.395 . S
C1376 C1379 1.403 . S
H1377 C1383 0.930 . S
C1378 H1364 0.930 . S
C1378 C1376 1.395 . S
C1378 C1381 1.403 . S
C1379 C1376 1.403 . S
C1379 C1380 1.524 . S
C1379 C1383 1.400 . S
C1380 H1365 0.960 . S
C1380 H1366 0.960 . S
C1380 H1367 0.960 . S
C1380 C1379 1.524 . S
C1381 C1378 1.403 . S
C1381 C1382 1.392 . S
C1381 C1385 1.495 . S
C1382 C1381 1.392 . S
C1382 C1383 1.385 . S
C1382 C1384 1.478 . S
C1383 H1377 0.930 . S
C1383 C1379 1.400 . S
C1383 C1382 1.385 . S
C1384 C1382 1.478 . S
C1384 C1386 1.381 . S
C1384 C1390 1.383 . S
C1385 C1381 1.495 . S
C1385 H1391 0.959 . S
C1385 H1392 0.961 . S
C1385 H1393 0.960 . S
C1386 C1384 1.381 . S
C1386 C1387 1.394 . S
C1386 H1394 0.930 . S
C1387 C1386 1.394 . S
C1387 C1388 1.383 . S
C1387 H1395 0.929 . S
C1388 C1387 1.383 . S
C1388 C1389 1.377 . S
C1389 H1373 0.930 . S
C1389 C1388 1.377 . S
C1389 C1390 1.379 . S
C1390 H1374 0.931 . S
C1390 C1384 1.383 . S
C1390 C1389 1.379 . S
H1391 C1385 0.959 . S
H1392 C1385 0.961 . S
H1393 C1385 0.960 . S
H1394 C1386 0.930 . S
H1395 C1387 0.929 . S
H1396 C1404 0.929 . S
H1397 C1406 0.930 . S
H1398 C1408 0.930 . S
H1399 C1411 0.929 . S
H1400 C1414 0.930 . S
H1401 C1416 0.960 . S
H1402 C1416 0.960 . S
H1403 C1416 0.960 . S
C1404 H1396 0.929 . S
C1404 C1405 1.377 . S
C1404 C1406 1.384 . S
C1405 C1404 1.377 . S
C1405 C1411 1.390 . S
C1406 H1397 0.930 . S
C1406 C1404 1.384 . S
C1406 C1407 1.372 . S
C1407 C1406 1.372 . S
C1407 C1408 1.400 . S
C1407 C1412 1.490 . S
C1408 H1398 0.930 . S
C1408 C1407 1.400 . S
C1408 C1411 1.386 . S
H1409 C1425 0.930 . S
H1410 C1426 0.931 . S
C1411 H1399 0.929 . S
C1411 C1405 1.390 . S
C1411 C1408 1.386 . S
C1412 C1407 1.490 . S
C1412 C1414 1.395 . S
C1412 C1415 1.403 . S
H1413 C1419 0.930 . S
C1414 H1400 0.930 . S
C1414 C1412 1.395 . S
C1414 C1417 1.403 . S
C1415 C1412 1.403 . S
C1415 C1416 1.524 . S
C1415 C1419 1.400 . S
C1416 H1401 0.960 . S
C1416 H1402 0.960 . S
C1416 H1403 0.960 . S
C1416 C1415 1.524 . S
C1417 C1414 1.403 . S
C1417 C1418 1.392 . S
C1417 C1421 1.495 . S
C1418 C1417 1.392 . S
C1418 C1419 1.385 . S
C1418 C1420 1.478 . S
C1419 H1413 0.930 . S
C1419 C1415 1.400 . S
C1419 C1418 1.385 . S
C1420 C1418 1.478 . S
C1420 C1422 1.381 . S
C1420 C1426 1.383 . S
C1421 C1417 1.495 . S
C1421 H1427 0.959 . S
C1421 H1428 0.961 . S
C1421 H1429 0.960 . S
C1422 C1420 1.381 . S
C1422 C1423 1.394 . S
C1422 H1430 0.930 . S
C1423 C1422 1.394 . S
C1423 C1424 1.383 . S
C1423 H1431 0.929 . S
C1424 C1423 1.383 . S
C1424 C1425 1.377 . S
C1425 H1409 0.930 . S
C1425 C1424 1.377 . S
C1425 C1426 1.379 . S
C1426 H1410 0.931 . S
C1426 C1420 1.383 . S
C1426 C1425 1.379 . S
H1427 C1421 0.959 . S
H1428 C1421 0.961 . S
H1429 C1421 0.960 . S
H1430 C1422 0.930 . S
H1431 C1423 0.929 . S
H1432 C1440 0.929 . S
H1433 C1442 0.930 . S
H1434 C1444 0.930 . S
H1435 C1447 0.929 . S
H1436 C1450 0.930 . S
H1437 C1452 0.960 . S
H1438 C1452 0.960 . S
H1439 C1452 0.960 . S
C1440 H1432 0.929 . S
C1440 C1441 1.377 . S
C1440 C1442 1.384 . S
C1441 C1440 1.377 . S
C1441 C1447 1.390 . S
C1442 H1433 0.930 . S
C1442 C1440 1.384 . S
C1442 C1443 1.372 . S
C1443 C1442 1.372 . S
C1443 C1444 1.400 . S
C1443 C1448 1.490 . S
C1444 H1434 0.930 . S
C1444 C1443 1.400 . S
C1444 C1447 1.386 . S
H1445 C1461 0.930 . S
H1446 C1462 0.931 . S
C1447 H1435 0.929 . S
C1447 C1441 1.390 . S
C1447 C1444 1.386 . S
C1448 C1443 1.490 . S
C1448 C1450 1.395 . S
C1448 C1451 1.403 . S
H1449 C1455 0.930 . S
C1450 H1436 0.930 . S
C1450 C1448 1.395 . S
C1450 C1453 1.403 . S
C1451 C1448 1.403 . S
C1451 C1452 1.524 . S
C1451 C1455 1.400 . S
C1452 H1437 0.960 . S
C1452 H1438 0.960 . S
C1452 H1439 0.960 . S
C1452 C1451 1.524 . S
C1453 C1450 1.403 . S
C1453 C1454 1.392 . S
C1453 C1457 1.495 . S
C1454 C1453 1.392 . S
C1454 C1455 1.385 . S
C1454 C1456 1.478 . S
C1455 H1449 0.930 . S
C1455 C1451 1.400 . S
C1455 C1454 1.385 . S
C1456 C1454 1.478 . S
C1456 C1458 1.381 . S
C1456 C1462 1.383 . S
C1457 C1453 1.495 . S
C1457 H1463 0.959 . S
C1457 H1464 0.961 . S
C1457 H1465 0.960 . S
C1458 C1456 1.381 . S
C1458 C1459 1.394 . S
C1458 H1466 0.930 . S
C1459 C1458 1.394 . S
C1459 C1460 1.383 . S
C1459 H1467 0.929 . S
C1460 C1459 1.383 . S
C1460 C1461 1.377 . S
C1461 H1445 0.930 . S
C1461 C1460 1.377 . S
C1461 C1462 1.379 . S
C1462 H1446 0.931 . S
C1462 C1456 1.383 . S
C1462 C1461 1.379 . S
H1463 C1457 0.959 . S
H1464 C1457 0.961 . S
H1465 C1457 0.960 . S
H1466 C1458 0.930 . S
H1467 C1459 0.929 . S
H1468 C1476 0.929 . S
H1469 C1478 0.930 . S
H1470 C1480 0.930 . S
H1471 C1483 0.929 . S
H1472 C1486 0.930 . S
H1473 C1488 0.960 . S
H1474 C1488 0.960 . S
H1475 C1488 0.960 . S
C1476 H1468 0.929 . S
C1476 C1477 1.377 . S
C1476 C1478 1.384 . S
C1477 C1476 1.377 . S
C1477 C1483 1.390 . S
C1478 H1469 0.930 . S
C1478 C1476 1.384 . S
C1478 C1479 1.372 . S
C1479 C1478 1.372 . S
C1479 C1480 1.400 . S
C1479 C1484 1.490 . S
C1480 H1470 0.930 . S
C1480 C1479 1.400 . S
C1480 C1483 1.386 . S
H1481 C1497 0.930 . S
H1482 C1498 0.931 . S
C1483 H1471 0.929 . S
C1483 C1477 1.390 . S
C1483 C1480 1.386 . S
C1484 C1479 1.490 . S
C1484 C1486 1.395 . S
C1484 C1487 1.403 . S
H1485 C1491 0.930 . S
C1486 H1472 0.930 . S
C1486 C1484 1.395 . S
C1486 C1489 1.403 . S
C1487 C1484 1.403 . S
C1487 C1488 1.524 . S
C1487 C1491 1.400 . S
C1488 H1473 0.960 . S
C1488 H1474 0.960 . S
C1488 H1475 0.960 . S
C1488 C1487 1.524 . S
C1489 C1486 1.403 . S
C1489 C1490 1.392 . S
C1489 C1493 1.495 . S
C1490 C1489 1.392 . S
C1490 C1491 1.385 . S
C1490 C1492 1.478 . S
C1491 H1485 0.930 . S
C1491 C1487 1.400 . S
C1491 C1490 1.385 . S
C1492 C1490 1.478 . S
C1492 C1494 1.381 . S
C1492 C1498 1.383 . S
C1493 C1489 1.495 . S
C1493 H1499 0.959 . S
C1493 H1500 0.961 . S
C1493 H1501 0.960 . S
C1494 C1492 1.381 . S
C1494 C1495 1.394 . S
C1494 H1502 0.930 . S
C1495 C1494 1.394 . S
C1495 C1496 1.383 . S
C1495 H1503 0.929 . S
C1496 C1495 1.383 . S
C1496 C1497 1.377 . S
C1497 H1481 0.930 . S
C1497 C1496 1.377 . S
C1497 C1498 1.379 . S
C1498 H1482 0.931 . S
C1498 C1492 1.383 . S
C1498 C1497 1.379 . S
H1499 C1493 0.959 . S
H1500 C1493 0.961 . S
H1501 C1493 0.960 . S
H1502 C1494 0.930 . S
H1503 C1495 0.929 . S
H1504 C1512 0.929 . S
H1505 C1514 0.930 . S
H1506 C1516 0.930 . S
H1507 C1519 0.929 . S
H1508 C1522 0.930 . S
H1509 C1524 0.960 . S
H1510 C1524 0.960 . S
H1511 C1524 0.960 . S
C1512 H1504 0.929 . S
C1512 C1513 1.377 . S
C1512 C1514 1.384 . S
C1513 C1512 1.377 . S
C1513 C1519 1.390 . S
C1514 H1505 0.930 . S
C1514 C1512 1.384 . S
C1514 C1515 1.372 . S
C1515 C1514 1.372 . S
C1515 C1516 1.400 . S
C1515 C1520 1.490 . S
C1516 H1506 0.930 . S
C1516 C1515 1.400 . S
C1516 C1519 1.386 . S
H1517 C1533 0.930 . S
H1518 C1534 0.931 . S
C1519 H1507 0.929 . S
C1519 C1513 1.390 . S
C1519 C1516 1.386 . S
C1520 C1515 1.490 . S
C1520 C1522 1.395 . S
C1520 C1523 1.403 . S
H1521 C1527 0.930 . S
C1522 H1508 0.930 . S
C1522 C1520 1.395 . S
C1522 C1525 1.403 . S
C1523 C1520 1.403 . S
C1523 C1524 1.524 . S
C1523 C1527 1.400 . S
C1524 H1509 0.960 . S
C1524 H1510 0.960 . S
C1524 H1511 0.960 . S
C1524 C1523 1.524 . S
C1525 C1522 1.403 . S
C1525 C1526 1.392 . S
C1525 C1529 1.495 . S
C1526 C1525 1.392 . S
C1526 C1527 1.385 . S
C1526 C1528 1.478 . S
C1527 H1521 0.930 . S
C1527 C1523 1.400 . S
C1527 C1526 1.385 . S
C1528 C1526 1.478 . S
C1528 C1530 1.381 . S
C1528 C1534 1.383 . S
C1529 C1525 1.495 . S
C1529 H1535 0.959 . S
C1529 H1536 0.961 . S
C1529 H1537 0.960 . S
C1530 C1528 1.381 . S
C1530 C1531 1.394 . S
C1530 H1538 0.930 . S
C1531 C1530 1.394 . S
C1531 C1532 1.383 . S
C1531 H1539 0.929 . S
C1532 C1531 1.383 . S
C1532 C1533 1.377 . S
C1533 H1517 0.930 . S
C1533 C1532 1.377 . S
C1533 C1534 1.379 . S
C1534 H1518 0.931 . S
C1534 C1528 1.383 . S
C1534 C1533 1.379 . S
H1535 C1529 0.959 . S
H1536 C1529 0.961 . S
H1537 C1529 0.960 . S
H1538 C1530 0.930 . S
H1539 C1531 0.929 . S
H1540 C1548 0.929 . S
H1541 C1550 0.930 . S
H1542 C1552 0.930 . S
H1543 C1555 0.929 . S
H1544 C1558 0.930 . S
H1545 C1560 0.960 . S
H1546 C1560 0.960 . S
H1547 C1560 0.960 . S
C1548 H1540 0.929 . S
C1548 C1549 1.377 . S
C1548 C1550 1.384 . S
C1549 C1548 1.377 . S
C1549 C1555 1.390 . S
C1550 H1541 0.930 . S
C1550 C1548 1.384 . S
C1550 C1551 1.372 . S
C1551 C1550 1.372 . S
C1551 C1552 1.400 . S
C1551 C1556 1.490 . S
C1552 H1542 0.930 . S
C1552 C1551 1.400 . S
C1552 C1555 1.386 . S
H1553 C1569 0.930 . S
H1554 C1570 0.931 . S
C1555 H1543 0.929 . S
C1555 C1549 1.390 . S
C1555 C1552 1.386 . S
C1556 C1551 1.490 . S
C1556 C1558 1.395 . S
C1556 C1559 1.403 . S
H1557 C1563 0.930 . S
C1558 H1544 0.930 . S
C1558 C1556 1.395 . S
C1558 C1561 1.403 . S
C1559 C1556 1.403 . S
C1559 C1560 1.524 . S
C1559 C1563 1.400 . S
C1560 H1545 0.960 . S
C1560 H1546 0.960 . S
C1560 H1547 0.960 . S
C1560 C1559 1.524 . S
C1561 C1558 1.403 . S
C1561 C1562 1.392 . S
C1561 C1565 1.495 . S
C1562 C1561 1.392 . S
C1562 C1563 1.385 . S
C1562 C1564 1.478 . S
C1563 H1557 0.930 . S
C1563 C1559 1.400 . S
C1563 C1562 1.385 . S
C1564 C1562 1.478 . S
C1564 C1566 1.381 . S
C1564 C1570 1.383 . S
C1565 C1561 1.495 . S
C1565 H1571 0.959 . S
C1565 H1572 0.961 . S
C1565 H1573 0.960 . S
C1566 C1564 1.381 . S
C1566 C1567 1.394 . S
C1566 H1574 0.930 . S
C1567 C1566 1.394 . S
C1567 C1568 1.383 . S
C1567 H1575 0.929 . S
C1568 C1567 1.383 . S
C1568 C1569 1.377 . S
C1569 H1553 0.930 . S
C1569 C1568 1.377 . S
C1569 C1570 1.379 . S
C1570 H1554 0.931 . S
C1570 C1564 1.383 . S
C1570 C1569 1.379 . S
H1571 C1565 0.959 . S
H1572 C1565 0.961 . S
H1573 C1565 0.960 . S
H1574 C1566 0.930 . S
H1575 C1567 0.929 . S
H1576 C1584 0.929 . S
H1577 C1586 0.930 . S
H1578 C1588 0.930 . S
H1579 C1591 0.929 . S
H1580 C1594 0.930 . S
H1581 C1596 0.960 . S
H1582 C1596 0.960 . S
H1583 C1596 0.960 . S
C1584 H1576 0.929 . S
C1584 C1585 1.377 . S
C1584 C1586 1.384 . S
C1585 C1584 1.377 . S
C1585 C1591 1.390 . S
C1586 H1577 0.930 . S
C1586 C1584 1.384 . S
C1586 C1587 1.372 . S
C1587 C1586 1.372 . S
C1587 C1588 1.400 . S
C1587 C1592 1.490 . S
C1588 H1578 0.930 . S
C1588 C1587 1.400 . S
C1588 C1591 1.386 . S
H1589 C1605 0.930 . S
H1590 C1606 0.931 . S
C1591 H1579 0.929 . S
C1591 C1585 1.390 . S
C1591 C1588 1.386 . S
C1592 C1587 1.490 . S
C1592 C1594 1.395 . S
C1592 C1595 1.403 . S
H1593 C1599 0.930 . S
C1594 H1580 0.930 . S
C1594 C1592 1.395 . S
C1594 C1597 1.403 . S
C1595 C1592 1.403 . S
C1595 C1596 1.524 . S
C1595 C1599 1.400 . S
C1596 H1581 0.960 . S
C1596 H1582 0.960 . S
C1596 H1583 0.960 . S
C1596 C1595 1.524 . S
C1597 C1594 1.403 . S
C1597 C1598 1.392 . S
C1597 C1601 1.495 . S
C1598 C1597 1.392 . S
C1598 C1599 1.385 . S
C1598 C1600 1.478 . S
C1599 H1593 0.930 . S
C1599 C1595 1.400 . S
C1599 C1598 1.385 . S
C1600 C1598 1.478 . S
C1600 C1602 1.381 . S
C1600 C1606 1.383 . S
C1601 C1597 1.495 . S
C1601 H1607 0.959 . S
C1601 H1608 0.961 . S
C1601 H1609 0.960 . S
C1602 C1600 1.381 . S
C1602 C1603 1.394 . S
C1602 H1610 0.930 . S
C1603 C1602 1.394 . S
C1603 C1604 1.383 . S
C1603 H1611 0.929 . S
C1604 C1603 1.383 . S
C1604 C1605 1.377 . S
C1605 H1589 0.930 . S
C1605 C1604 1.377 . S
C1605 C1606 1.379 . S
C1606 H1590 0.931 . S
C1606 C1600 1.383 . S
C1606 C1605 1.379 . S
H1607 C1601 0.959 . S
H1608 C1601 0.961 . S
H1609 C1601 0.960 . S
H1610 C1602 0.930 . S
H1611 C1603 0.929 . S
H1612 C1620 0.929 . S
H1613 C1622 0.930 . S
H1614 C1624 0.930 . S
H1615 C1627 0.929 . S
H1616 C1630 0.930 . S
H1617 C1632 0.960 . S
H1618 C1632 0.960 . S
H1619 C1632 0.960 . S
C1620 H1612 0.929 . S
C1620 C1621 1.377 . S
C1620 C1622 1.384 . S
C1621 C1620 1.377 . S
C1621 C1627 1.390 . S
C1622 H1613 0.930 . S
C1622 C1620 1.384 . S
C1622 C1623 1.372 . S
C1623 C1622 1.372 . S
C1623 C1624 1.400 . S
C1623 C1628 1.490 . S
C1624 H1614 0.930 . S
C1624 C1623 1.400 . S
C1624 C1627 1.386 . S
H1625 C1641 0.930 . S
H1626 C1642 0.931 . S
C1627 H1615 0.929 . S
C1627 C1621 1.390 . S
C1627 C1624 1.386 . S
C1628 C1623 1.490 . S
C1628 C1630 1.395 . S
C1628 C1631 1.403 . S
H1629 C1635 0.930 . S
C1630 H1616 0.930 . S
C1630 C1628 1.395 . S
C1630 C1633 1.403 . S
C1631 C1628 1.403 . S
C1631 C1632 1.524 . S
C1631 C1635 1.400 . S
C1632 H1617 0.960 . S
C1632 H1618 0.960 . S
C1632 H1619 0.960 . S
C1632 C1631 1.524 . S
C1633 C1630 1.403 . S
C1633 C1634 1.392 . S
C1633 C1637 1.495 . S
C1634 C1633 1.392 . S
C1634 C1635 1.385 . S
C1634 C1636 1.478 . S
C1635 H1629 0.930 . S
C1635 C1631 1.400 . S
C1635 C1634 1.385 . S
C1636 C1634 1.478 . S
C1636 C1638 1.381 . S
C1636 C1642 1.383 . S
C1637 C1633 1.495 . S
C1637 H1643 0.959 . S
C1637 H1644 0.961 . S
C1637 H1645 0.960 . S
C1638 C1636 1.381 . S
C1638 C1639 1.394 . S
C1638 H1646 0.930 . S
C1639 C1638 1.394 . S
C1639 C1640 1.383 . S
C1639 H1647 0.929 . S
C1640 C1639 1.383 . S
C1640 C1641 1.377 . S
C1641 H1625 0.930 . S
C1641 C1640 1.377 . S
C1641 C1642 1.379 . S
C1642 H1626 0.931 . S
C1642 C1636 1.383 . S
C1642 C1641 1.379 . S
H1643 C1637 0.959 . S
H1644 C1637 0.961 . S
H1645 C1637 0.960 . S
H1646 C1638 0.930 . S
H1647 C1639 0.929 . S
H1648 C1656 0.929 . S
H1649 C1658 0.930 . S
H1650 C1660 0.930 . S
H1651 C1663 0.929 . S
H1652 C1666 0.930 . S
H1653 C1668 0.960 . S
H1654 C1668 0.960 . S
H1655 C1668 0.960 . S
C1656 H1648 0.929 . S
C1656 C1657 1.377 . S
C1656 C1658 1.384 . S
C1657 C1656 1.377 . S
C1657 C1663 1.390 . S
C1658 H1649 0.930 . S
C1658 C1656 1.384 . S
C1658 C1659 1.372 . S
C1659 C1658 1.372 . S
C1659 C1660 1.400 . S
C1659 C1664 1.490 . S
C1660 H1650 0.930 . S
C1660 C1659 1.400 . S
C1660 C1663 1.386 . S
H1661 C1677 0.930 . S
H1662 C1678 0.931 . S
C1663 H1651 0.929 . S
C1663 C1657 1.390 . S
C1663 C1660 1.386 . S
C1664 C1659 1.490 . S
C1664 C1666 1.395 . S
C1664 C1667 1.403 . S
H1665 C1671 0.930 . S
C1666 H1652 0.930 . S
C1666 C1664 1.395 . S
C1666 C1669 1.403 . S
C1667 C1664 1.403 . S
C1667 C1668 1.524 . S
C1667 C1671 1.400 . S
C1668 H1653 0.960 . S
C1668 H1654 0.960 . S
C1668 H1655 0.960 . S
C1668 C1667 1.524 . S
C1669 C1666 1.403 . S
C1669 C1670 1.392 . S
C1669 C1673 1.495 . S
C1670 C1669 1.392 . S
C1670 C1671 1.385 . S
C1670 C1672 1.478 . S
C1671 H1665 0.930 . S
C1671 C1667 1.400 . S
C1671 C1670 1.385 . S
C1672 C1670 1.478 . S
C1672 C1674 1.381 . S
C1672 C1678 1.383 . S
C1673 C1669 1.495 . S
C1673 H1679 0.959 . S
C1673 H1680 0.961 . S
C1673 H1681 0.960 . S
C1674 C1672 1.381 . S
C1674 C1675 1.394 . S
C1674 H1682 0.930 . S
C1675 C1674 1.394 . S
C1675 C1676 1.383 . S
C1675 H1683 0.929 . S
C1676 C1675 1.383 . S
C1676 C1677 1.377 . S
C1677 H1661 0.930 . S
C1677 C1676 1.377 . S
C1677 C1678 1.379 . S
C1678 H1662 0.931 . S
C1678 C1672 1.383 . S
C1678 C1677 1.379 . S
H1679 C1673 0.959 . S
H1680 C1673 0.961 . S
H1681 C1673 0.960 . S
H1682 C1674 0.930 . S
H1683 C1675 0.929 . S
H1684 C1692 0.929 . S
H1685 C1694 0.930 . S
H1686 C1696 0.930 . S
H1687 C1699 0.929 . S
H1688 C1702 0.930 . S
H1689 C1704 0.960 . S
H1690 C1704 0.960 . S
H1691 C1704 0.960 . S
C1692 H1684 0.929 . S
C1692 C1693 1.377 . S
C1692 C1694 1.384 . S
C1693 C1692 1.377 . S
C1693 C1699 1.390 . S
C1694 H1685 0.930 . S
C1694 C1692 1.384 . S
C1694 C1695 1.372 . S
C1695 C1694 1.372 . S
C1695 C1696 1.400 . S
C1695 C1700 1.490 . S
C1696 H1686 0.930 . S
C1696 C1695 1.400 . S
C1696 C1699 1.386 . S
H1697 C1713 0.930 . S
H1698 C1714 0.931 . S
C1699 H1687 0.929 . S
C1699 C1693 1.390 . S
C1699 C1696 1.386 . S
C1700 C1695 1.490 . S
C1700 C1702 1.395 . S
C1700 C1703 1.403 . S
H1701 C1707 0.930 . S
C1702 H1688 0.930 . S
C1702 C1700 1.395 . S
C1702 C1705 1.403 . S
C1703 C1700 1.403 . S
C1703 C1704 1.524 . S
C1703 C1707 1.400 . S
C1704 H1689 0.960 . S
C1704 H1690 0.960 . S
C1704 H1691 0.960 . S
C1704 C1703 1.524 . S
C1705 C1702 1.403 . S
C1705 C1706 1.392 . S
C1705 C1709 1.495 . S
C1706 C1705 1.392 . S
C1706 C1707 1.385 . S
C1706 C1708 1.478 . S
C1707 H1701 0.930 . S
C1707 C1703 1.400 . S
C1707 C1706 1.385 . S
C1708 C1706 1.478 . S
C1708 C1710 1.381 . S
C1708 C1714 1.383 . S
C1709 C1705 1.495 . S
C1709 H1715 0.959 . S
C1709 H1716 0.961 . S
C1709 H1717 0.960 . S
C1710 C1708 1.381 . S
C1710 C1711 1.394 . S
C1710 H1718 0.930 1_455 S
C1711 C1710 1.394 . S
C1711 C1712 1.383 . S
C1711 H1719 0.929 1_455 S
C1712 C1711 1.383 . S
C1712 C1713 1.377 . S
C1713 H1697 0.930 . S
C1713 C1712 1.377 . S
C1713 C1714 1.379 . S
C1714 H1698 0.931 . S
C1714 C1708 1.383 . S
C1714 C1713 1.379 . S
H1715 C1709 0.959 . S
H1716 C1709 0.961 . S
H1717 C1709 0.960 . S
H1718 C1710 0.930 1_655 S
H1719 C1711 0.929 1_655 S
H1720 C1728 0.929 . S
H1721 C1730 0.930 . S
H1722 C1732 0.930 . S
H1723 C1735 0.929 . S
H1724 C1738 0.930 . S
H1725 C1740 0.960 . S
H1726 C1740 0.960 . S
H1727 C1740 0.960 . S
C1728 H1720 0.929 . S
C1728 C1729 1.377 . S
C1728 C1730 1.384 . S
C1729 C1728 1.377 . S
C1729 C1735 1.390 . S
C1730 H1721 0.930 . S
C1730 C1728 1.384 . S
C1730 C1731 1.372 . S
C1731 C1730 1.372 . S
C1731 C1732 1.400 . S
C1731 C1736 1.490 . S
C1732 H1722 0.930 . S
C1732 C1731 1.400 . S
C1732 C1735 1.386 . S
H1733 C1749 0.930 . S
H1734 C1750 0.931 . S
C1735 H1723 0.929 . S
C1735 C1729 1.390 . S
C1735 C1732 1.386 . S
C1736 C1731 1.490 . S
C1736 C1738 1.395 . S
C1736 C1739 1.403 . S
H1737 C1743 0.930 . S
C1738 H1724 0.930 . S
C1738 C1736 1.395 . S
C1738 C1741 1.403 . S
C1739 C1736 1.403 . S
C1739 C1740 1.524 . S
C1739 C1743 1.400 . S
C1740 H1725 0.960 . S
C1740 H1726 0.960 . S
C1740 H1727 0.960 . S
C1740 C1739 1.524 . S
C1741 C1738 1.403 . S
C1741 C1742 1.392 . S
C1741 C1745 1.495 . S
C1742 C1741 1.392 . S
C1742 C1743 1.385 . S
C1742 C1744 1.478 . S
C1743 H1737 0.930 . S
C1743 C1739 1.400 . S
C1743 C1742 1.385 . S
C1744 C1742 1.478 . S
C1744 C1746 1.381 . S
C1744 C1750 1.383 . S
C1745 C1741 1.495 . S
C1745 H1751 0.959 . S
C1745 H1752 0.961 . S
C1745 H1753 0.960 . S
C1746 C1744 1.381 . S
C1746 C1747 1.394 . S
C1746 H1754 0.930 . S
C1747 C1746 1.394 . S
C1747 C1748 1.383 . S
C1747 H1755 0.929 . S
C1748 C1747 1.383 . S
C1748 C1749 1.377 . S
C1749 H1733 0.930 . S
C1749 C1748 1.377 . S
C1749 C1750 1.379 . S
C1750 H1734 0.931 . S
C1750 C1744 1.383 . S
C1750 C1749 1.379 . S
H1751 C1745 0.959 . S
H1752 C1745 0.961 . S
H1753 C1745 0.960 . S
H1754 C1746 0.930 . S
H1755 C1747 0.929 . S
H1756 C1764 0.929 . S
H1757 C1766 0.930 . S
H1758 C1768 0.930 . S
H1759 C1771 0.929 . S
H1760 C1774 0.930 . S
H1761 C1776 0.960 . S
H1762 C1776 0.960 . S
H1763 C1776 0.960 . S
C1764 H1756 0.929 . S
C1764 C1765 1.377 . S
C1764 C1766 1.384 . S
C1765 C1764 1.377 . S
C1765 C1771 1.390 . S
C1766 H1757 0.930 . S
C1766 C1764 1.384 . S
C1766 C1767 1.372 . S
C1767 C1766 1.372 . S
C1767 C1768 1.400 . S
C1767 C1772 1.490 . S
C1768 H1758 0.930 . S
C1768 C1767 1.400 . S
C1768 C1771 1.386 . S
H1769 C1785 0.930 . S
H1770 C1786 0.931 . S
C1771 H1759 0.929 . S
C1771 C1765 1.390 . S
C1771 C1768 1.386 . S
C1772 C1767 1.490 . S
C1772 C1774 1.395 . S
C1772 C1775 1.403 . S
H1773 C1779 0.930 . S
C1774 H1760 0.930 . S
C1774 C1772 1.395 . S
C1774 C1777 1.403 . S
C1775 C1772 1.403 . S
C1775 C1776 1.524 . S
C1775 C1779 1.400 . S
C1776 H1761 0.960 . S
C1776 H1762 0.960 . S
C1776 H1763 0.960 . S
C1776 C1775 1.524 . S
C1777 C1774 1.403 . S
C1777 C1778 1.392 . S
C1777 C1781 1.495 . S
C1778 C1777 1.392 . S
C1778 C1779 1.385 . S
C1778 C1780 1.478 . S
C1779 H1773 0.930 . S
C1779 C1775 1.400 . S
C1779 C1778 1.385 . S
C1780 C1778 1.478 . S
C1780 C1782 1.381 . S
C1780 C1786 1.383 . S
C1781 C1777 1.495 . S
C1781 H1787 0.959 . S
C1781 H1788 0.961 . S
C1781 H1789 0.960 . S
C1782 C1780 1.381 . S
C1782 C1783 1.394 . S
C1782 H1790 0.930 . S
C1783 C1782 1.394 . S
C1783 C1784 1.383 . S
C1783 H1791 0.929 . S
C1784 C1783 1.383 . S
C1784 C1785 1.377 . S
C1785 H1769 0.930 . S
C1785 C1784 1.377 . S
C1785 C1786 1.379 . S
C1786 H1770 0.931 . S
C1786 C1780 1.383 . S
C1786 C1785 1.379 . S
H1787 C1781 0.959 . S
H1788 C1781 0.961 . S
H1789 C1781 0.960 . S
H1790 C1782 0.930 . S
H1791 C1783 0.929 . S
H1792 C1800 0.929 . S
H1793 C1802 0.930 . S
H1794 C1804 0.930 . S
H1795 C1807 0.929 . S
H1796 C1810 0.930 . S
H1797 C1812 0.960 . S
H1798 C1812 0.960 . S
H1799 C1812 0.960 . S
C1800 H1792 0.929 . S
C1800 C1801 1.377 . S
C1800 C1802 1.384 . S
C1801 C1800 1.377 . S
C1801 C1807 1.390 . S
C1802 H1793 0.930 . S
C1802 C1800 1.384 . S
C1802 C1803 1.372 . S
C1803 C1802 1.372 . S
C1803 C1804 1.400 . S
C1803 C1808 1.490 . S
C1804 H1794 0.930 . S
C1804 C1803 1.400 . S
C1804 C1807 1.386 . S
H1805 C1821 0.930 . S
H1806 C1822 0.931 . S
C1807 H1795 0.929 . S
C1807 C1801 1.390 . S
C1807 C1804 1.386 . S
C1808 C1803 1.490 . S
C1808 C1810 1.395 . S
C1808 C1811 1.403 . S
H1809 C1815 0.930 . S
C1810 H1796 0.930 . S
C1810 C1808 1.395 . S
C1810 C1813 1.403 . S
C1811 C1808 1.403 . S
C1811 C1812 1.524 . S
C1811 C1815 1.400 . S
C1812 H1797 0.960 . S
C1812 H1798 0.960 . S
C1812 H1799 0.960 . S
C1812 C1811 1.524 . S
C1813 C1810 1.403 . S
C1813 C1814 1.392 . S
C1813 C1817 1.495 . S
C1814 C1813 1.392 . S
C1814 C1815 1.385 . S
C1814 C1816 1.478 . S
C1815 H1809 0.930 . S
C1815 C1811 1.400 . S
C1815 C1814 1.385 . S
C1816 C1814 1.478 . S
C1816 C1818 1.381 . S
C1816 C1822 1.383 . S
C1817 C1813 1.495 . S
C1817 H1823 0.959 . S
C1817 H1824 0.961 . S
C1817 H1825 0.960 . S
C1818 C1816 1.381 . S
C1818 C1819 1.394 . S
C1818 H1826 0.930 . S
C1819 C1818 1.394 . S
C1819 C1820 1.383 . S
C1819 H1827 0.929 . S
C1820 C1819 1.383 . S
C1820 C1821 1.377 . S
C1821 H1805 0.930 . S
C1821 C1820 1.377 . S
C1821 C1822 1.379 . S
C1822 H1806 0.931 . S
C1822 C1816 1.383 . S
C1822 C1821 1.379 . S
H1823 C1817 0.959 . S
H1824 C1817 0.961 . S
H1825 C1817 0.960 . S
H1826 C1818 0.930 . S
H1827 C1819 0.929 . S
H1828 C1836 0.929 . S
H1829 C1838 0.930 . S
H1830 C1840 0.930 . S
H1831 C1843 0.929 . S
H1832 C1846 0.930 . S
H1833 C1848 0.960 . S
H1834 C1848 0.960 . S
H1835 C1848 0.960 . S
C1836 H1828 0.929 . S
C1836 C1837 1.377 . S
C1836 C1838 1.384 . S
C1837 C1836 1.377 . S
C1837 C1843 1.390 . S
C1838 H1829 0.930 . S
C1838 C1836 1.384 . S
C1838 C1839 1.372 . S
C1839 C1838 1.372 . S
C1839 C1840 1.400 . S
C1839 C1844 1.490 . S
C1840 H1830 0.930 . S
C1840 C1839 1.400 . S
C1840 C1843 1.386 . S
H1841 C1857 0.930 . S
H1842 C1858 0.931 . S
C1843 H1831 0.929 . S
C1843 C1837 1.390 . S
C1843 C1840 1.386 . S
C1844 C1839 1.490 . S
C1844 C1846 1.395 . S
C1844 C1847 1.403 . S
H1845 C1851 0.930 . S
C1846 H1832 0.930 . S
C1846 C1844 1.395 . S
C1846 C1849 1.403 . S
C1847 C1844 1.403 . S
C1847 C1848 1.524 . S
C1847 C1851 1.400 . S
C1848 H1833 0.960 . S
C1848 H1834 0.960 . S
C1848 H1835 0.960 . S
C1848 C1847 1.524 . S
C1849 C1846 1.403 . S
C1849 C1850 1.392 . S
C1849 C1853 1.495 . S
C1850 C1849 1.392 . S
C1850 C1851 1.385 . S
C1850 C1852 1.478 . S
C1851 H1845 0.930 . S
C1851 C1847 1.400 . S
C1851 C1850 1.385 . S
C1852 C1850 1.478 . S
C1852 C1854 1.381 . S
C1852 C1858 1.383 . S
C1853 C1849 1.495 . S
C1853 H1859 0.959 . S
C1853 H1860 0.961 . S
C1853 H1861 0.960 . S
C1854 C1852 1.381 . S
C1854 C1855 1.394 . S
C1854 H1862 0.930 . S
C1855 C1854 1.394 . S
C1855 C1856 1.383 . S
C1855 H1863 0.929 . S
C1856 C1855 1.383 . S
C1856 C1857 1.377 . S
C1857 H1841 0.930 . S
C1857 C1856 1.377 . S
C1857 C1858 1.379 . S
C1858 H1842 0.931 . S
C1858 C1852 1.383 . S
C1858 C1857 1.379 . S
H1859 C1853 0.959 . S
H1860 C1853 0.961 . S
H1861 C1853 0.960 . S
H1862 C1854 0.930 . S
H1863 C1855 0.929 . S
H1864 C1872 0.929 . S
H1865 C1874 0.930 . S
H1866 C1876 0.930 . S
H1867 C1879 0.929 . S
H1868 C1882 0.930 . S
H1869 C1884 0.960 . S
H1870 C1884 0.960 . S
H1871 C1884 0.960 . S
C1872 H1864 0.929 . S
C1872 C1873 1.377 . S
C1872 C1874 1.384 . S
C1873 C1872 1.377 . S
C1873 C1879 1.390 . S
C1874 H1865 0.930 . S
C1874 C1872 1.384 . S
C1874 C1875 1.372 . S
C1875 C1874 1.372 . S
C1875 C1876 1.400 . S
C1875 C1880 1.490 . S
C1876 H1866 0.930 . S
C1876 C1875 1.400 . S
C1876 C1879 1.386 . S
H1877 C1893 0.930 . S
H1878 C1894 0.931 . S
C1879 H1867 0.929 . S
C1879 C1873 1.390 . S
C1879 C1876 1.386 . S
C1880 C1875 1.490 . S
C1880 C1882 1.395 . S
C1880 C1883 1.403 . S
H1881 C1887 0.930 . S
C1882 H1868 0.930 . S
C1882 C1880 1.395 . S
C1882 C1885 1.403 . S
C1883 C1880 1.403 . S
C1883 C1884 1.524 . S
C1883 C1887 1.400 . S
C1884 H1869 0.960 . S
C1884 H1870 0.960 . S
C1884 H1871 0.960 . S
C1884 C1883 1.524 . S
C1885 C1882 1.403 . S
C1885 C1886 1.392 . S
C1885 C1889 1.495 . S
C1886 C1885 1.392 . S
C1886 C1887 1.385 . S
C1886 C1888 1.478 . S
C1887 H1881 0.930 . S
C1887 C1883 1.400 . S
C1887 C1886 1.385 . S
C1888 C1886 1.478 . S
C1888 C1890 1.381 . S
C1888 C1894 1.383 . S
C1889 C1885 1.495 . S
C1889 H1895 0.959 . S
C1889 H1896 0.961 . S
C1889 H1897 0.960 . S
C1890 C1888 1.381 . S
C1890 C1891 1.394 . S
C1890 H1898 0.930 . S
C1891 C1890 1.394 . S
C1891 C1892 1.383 . S
C1891 H1899 0.929 . S
C1892 C1891 1.383 . S
C1892 C1893 1.377 . S
C1893 H1877 0.930 . S
C1893 C1892 1.377 . S
C1893 C1894 1.379 . S
C1894 H1878 0.931 . S
C1894 C1888 1.383 . S
C1894 C1893 1.379 . S
H1895 C1889 0.959 . S
H1896 C1889 0.961 . S
H1897 C1889 0.960 . S
H1898 C1890 0.930 . S
H1899 C1891 0.929 . S
H1900 C1908 0.929 . S
H1901 C1910 0.930 . S
H1902 C1912 0.930 . S
H1903 C1915 0.929 . S
H1904 C1918 0.930 . S
H1905 C1920 0.960 . S
H1906 C1920 0.960 . S
H1907 C1920 0.960 . S
C1908 H1900 0.929 . S
C1908 C1909 1.377 . S
C1908 C1910 1.384 . S
C1909 C1908 1.377 . S
C1909 C1915 1.390 . S
C1910 H1901 0.930 . S
C1910 C1908 1.384 . S
C1910 C1911 1.372 . S
C1911 C1910 1.372 . S
C1911 C1912 1.400 . S
C1911 C1916 1.490 . S
C1912 H1902 0.930 . S
C1912 C1911 1.400 . S
C1912 C1915 1.386 . S
H1913 C1929 0.930 . S
H1914 C1930 0.931 . S
C1915 H1903 0.929 . S
C1915 C1909 1.390 . S
C1915 C1912 1.386 . S
C1916 C1911 1.490 . S
C1916 C1918 1.395 . S
C1916 C1919 1.403 . S
H1917 C1923 0.930 . S
C1918 H1904 0.930 . S
C1918 C1916 1.395 . S
C1918 C1921 1.403 . S
C1919 C1916 1.403 . S
C1919 C1920 1.524 . S
C1919 C1923 1.400 . S
C1920 H1905 0.960 . S
C1920 H1906 0.960 . S
C1920 H1907 0.960 . S
C1920 C1919 1.524 . S
C1921 C1918 1.403 . S
C1921 C1922 1.392 . S
C1921 C1925 1.495 . S
C1922 C1921 1.392 . S
C1922 C1923 1.385 . S
C1922 C1924 1.478 . S
C1923 H1917 0.930 . S
C1923 C1919 1.400 . S
C1923 C1922 1.385 . S
C1924 C1922 1.478 . S
C1924 C1926 1.381 . S
C1924 C1930 1.383 . S
C1925 C1921 1.495 . S
C1925 H1931 0.959 . S
C1925 H1932 0.961 . S
C1925 H1933 0.960 . S
C1926 C1924 1.381 . S
C1926 C1927 1.394 . S
C1926 H1934 0.930 . S
C1927 C1926 1.394 . S
C1927 C1928 1.383 . S
C1927 H1935 0.929 . S
C1928 C1927 1.383 . S
C1928 C1929 1.377 . S
C1929 H1913 0.930 . S
C1929 C1928 1.377 . S
C1929 C1930 1.379 . S
C1930 H1914 0.931 . S
C1930 C1924 1.383 . S
C1930 C1929 1.379 . S
H1931 C1925 0.959 . S
H1932 C1925 0.961 . S
H1933 C1925 0.960 . S
H1934 C1926 0.930 . S
H1935 C1927 0.929 . S
H1936 C1944 0.929 . S
H1937 C1946 0.930 . S
H1938 C1948 0.930 . S
H1939 C1951 0.929 1_455 S
H1940 C1954 0.930 . S
H1941 C1956 0.960 . S
H1942 C1956 0.960 . S
H1943 C1956 0.960 . S
C1944 H1936 0.929 . S
C1944 C1945 1.377 . S
C1944 C1946 1.384 . S
C1945 C1944 1.377 . S
C1945 C1951 1.390 . S
C1946 H1937 0.930 . S
C1946 C1944 1.384 . S
C1946 C1947 1.372 . S
C1947 C1946 1.372 . S
C1947 C1948 1.400 . S
C1947 C1952 1.490 . S
C1948 H1938 0.930 . S
C1948 C1947 1.400 . S
C1948 C1951 1.386 . S
H1949 C1965 0.930 . S
H1950 C1966 0.931 . S
C1951 H1939 0.929 1_655 S
C1951 C1945 1.390 . S
C1951 C1948 1.386 . S
C1952 C1947 1.490 . S
C1952 C1954 1.395 . S
C1952 C1955 1.403 . S
H1953 C1959 0.930 . S
C1954 H1940 0.930 . S
C1954 C1952 1.395 . S
C1954 C1957 1.403 . S
C1955 C1952 1.403 . S
C1955 C1956 1.524 . S
C1955 C1959 1.400 . S
C1956 H1941 0.960 . S
C1956 H1942 0.960 . S
C1956 H1943 0.960 . S
C1956 C1955 1.524 . S
C1957 C1954 1.403 . S
C1957 C1958 1.392 . S
C1957 C1961 1.495 . S
C1958 C1957 1.392 . S
C1958 C1959 1.385 . S
C1958 C1960 1.478 . S
C1959 H1953 0.930 . S
C1959 C1955 1.400 . S
C1959 C1958 1.385 . S
C1960 C1958 1.478 . S
C1960 C1962 1.381 . S
C1960 C1966 1.383 . S
C1961 C1957 1.495 . S
C1961 H1967 0.959 . S
C1961 H1968 0.961 . S
C1961 H1969 0.960 . S
C1962 C1960 1.381 . S
C1962 C1963 1.394 . S
C1962 H1970 0.930 . S
C1963 C1962 1.394 . S
C1963 C1964 1.383 . S
C1963 H1971 0.929 . S
C1964 C1963 1.383 . S
C1964 C1965 1.377 . S
C1965 H1949 0.930 . S
C1965 C1964 1.377 . S
C1965 C1966 1.379 . S
C1966 H1950 0.931 . S
C1966 C1960 1.383 . S
C1966 C1965 1.379 . S
H1967 C1961 0.959 . S
H1968 C1961 0.961 . S
H1969 C1961 0.960 . S
H1970 C1962 0.930 . S
H1971 C1963 0.929 . S
H1972 C1980 0.929 . S
H1973 C1982 0.930 . S
H1974 C1984 0.930 . S
H1975 C1987 0.929 . S
H1976 C1990 0.930 . S
H1977 C1992 0.960 . S
H1978 C1992 0.960 . S
H1979 C1992 0.960 . S
C1980 H1972 0.929 . S
C1980 C1981 1.377 . S
C1980 C1982 1.384 . S
C1981 C1980 1.377 . S
C1981 C1987 1.390 . S
C1982 H1973 0.930 . S
C1982 C1980 1.384 . S
C1982 C1983 1.372 . S
C1983 C1982 1.372 . S
C1983 C1984 1.400 . S
C1983 C1988 1.490 . S
C1984 H1974 0.930 . S
C1984 C1983 1.400 . S
C1984 C1987 1.386 . S
H1985 C2001 0.930 . S
H1986 C2002 0.931 . S
C1987 H1975 0.929 . S
C1987 C1981 1.390 . S
C1987 C1984 1.386 . S
C1988 C1983 1.490 . S
C1988 C1990 1.395 . S
C1988 C1991 1.403 . S
H1989 C1995 0.930 . S
C1990 H1976 0.930 . S
C1990 C1988 1.395 . S
C1990 C1993 1.403 . S
C1991 C1988 1.403 . S
C1991 C1992 1.524 . S
C1991 C1995 1.400 . S
C1992 H1977 0.960 . S
C1992 H1978 0.960 . S
C1992 H1979 0.960 . S
C1992 C1991 1.524 . S
C1993 C1990 1.403 . S
C1993 C1994 1.392 . S
C1993 C1997 1.495 . S
C1994 C1993 1.392 . S
C1994 C1995 1.385 . S
C1994 C1996 1.478 . S
C1995 H1989 0.930 . S
C1995 C1991 1.400 . S
C1995 C1994 1.385 . S
C1996 C1994 1.478 . S
C1996 C1998 1.381 . S
C1996 C2002 1.383 . S
C1997 C1993 1.495 . S
C1997 H2003 0.959 . S
C1997 H2004 0.961 . S
C1997 H2005 0.960 . S
C1998 C1996 1.381 . S
C1998 C1999 1.394 . S
C1998 H2006 0.930 . S
C1999 C1998 1.394 . S
C1999 C2000 1.383 . S
C1999 H2007 0.929 . S
C2000 C1999 1.383 . S
C2000 C2001 1.377 . S
C2001 H1985 0.930 . S
C2001 C2000 1.377 . S
C2001 C2002 1.379 . S
C2002 H1986 0.931 . S
C2002 C1996 1.383 . S
C2002 C2001 1.379 . S
H2003 C1997 0.959 . S
H2004 C1997 0.961 . S
H2005 C1997 0.960 . S
H2006 C1998 0.930 . S
H2007 C1999 0.929 . S
H2008 C2016 0.929 . S
H2009 C2018 0.930 . S
H2010 C2020 0.930 . S
H2011 C2023 0.929 . S
H2012 C2026 0.930 . S
H2013 C2028 0.960 . S
H2014 C2028 0.960 . S
H2015 C2028 0.960 . S
C2016 H2008 0.929 . S
C2016 C2017 1.377 . S
C2016 C2018 1.384 . S
C2017 C2016 1.377 . S
C2017 C2023 1.390 . S
C2018 H2009 0.930 . S
C2018 C2016 1.384 . S
C2018 C2019 1.372 . S
C2019 C2018 1.372 . S
C2019 C2020 1.400 . S
C2019 C2024 1.490 . S
C2020 H2010 0.930 . S
C2020 C2019 1.400 . S
C2020 C2023 1.386 . S
H2021 C2037 0.930 . S
H2022 C2038 0.931 . S
C2023 H2011 0.929 . S
C2023 C2017 1.390 . S
C2023 C2020 1.386 . S
C2024 C2019 1.490 . S
C2024 C2026 1.395 . S
C2024 C2027 1.403 . S
H2025 C2031 0.930 . S
C2026 H2012 0.930 . S
C2026 C2024 1.395 . S
C2026 C2029 1.403 . S
C2027 C2024 1.403 . S
C2027 C2028 1.524 . S
C2027 C2031 1.400 . S
C2028 H2013 0.960 . S
C2028 H2014 0.960 . S
C2028 H2015 0.960 . S
C2028 C2027 1.524 . S
C2029 C2026 1.403 . S
C2029 C2030 1.392 . S
C2029 C2033 1.495 . S
C2030 C2029 1.392 . S
C2030 C2031 1.385 . S
C2030 C2032 1.478 . S
C2031 H2025 0.930 . S
C2031 C2027 1.400 . S
C2031 C2030 1.385 . S
C2032 C2030 1.478 . S
C2032 C2034 1.381 . S
C2032 C2038 1.383 . S
C2033 C2029 1.495 . S
C2033 H2039 0.959 . S
C2033 H2040 0.961 . S
C2033 H2041 0.960 . S
C2034 C2032 1.381 . S
C2034 C2035 1.394 . S
C2034 H2042 0.930 . S
C2035 C2034 1.394 . S
C2035 C2036 1.383 . S
C2035 H2043 0.929 . S
C2036 C2035 1.383 . S
C2036 C2037 1.377 . S
C2037 H2021 0.930 . S
C2037 C2036 1.377 . S
C2037 C2038 1.379 . S
C2038 H2022 0.931 . S
C2038 C2032 1.383 . S
C2038 C2037 1.379 . S
H2039 C2033 0.959 . S
H2040 C2033 0.961 . S
H2041 C2033 0.960 . S
H2042 C2034 0.930 . S
H2043 C2035 0.929 . S
H2044 C2052 0.929 . S
H2045 C2054 0.930 . S
H2046 C2056 0.930 . S
H2047 C2059 0.929 . S
H2048 C2062 0.930 . S
H2049 C2064 0.960 . S
H2050 C2064 0.960 . S
H2051 C2064 0.960 . S
C2052 H2044 0.929 . S
C2052 C2053 1.377 . S
C2052 C2054 1.384 . S
C2053 C2052 1.377 . S
C2053 C2059 1.390 . S
C2054 H2045 0.930 . S
C2054 C2052 1.384 . S
C2054 C2055 1.372 . S
C2055 C2054 1.372 . S
C2055 C2056 1.400 . S
C2055 C2060 1.490 . S
C2056 H2046 0.930 . S
C2056 C2055 1.400 . S
C2056 C2059 1.386 . S
H2057 C2073 0.930 . S
H2058 C2074 0.931 . S
C2059 H2047 0.929 . S
C2059 C2053 1.390 . S
C2059 C2056 1.386 . S
C2060 C2055 1.490 . S
C2060 C2062 1.395 . S
C2060 C2063 1.403 . S
H2061 C2067 0.930 . S
C2062 H2048 0.930 . S
C2062 C2060 1.395 . S
C2062 C2065 1.403 . S
C2063 C2060 1.403 . S
C2063 C2064 1.524 . S
C2063 C2067 1.400 . S
C2064 H2049 0.960 . S
C2064 H2050 0.960 . S
C2064 H2051 0.960 . S
C2064 C2063 1.524 . S
C2065 C2062 1.403 . S
C2065 C2066 1.392 . S
C2065 C2069 1.495 . S
C2066 C2065 1.392 . S
C2066 C2067 1.385 . S
C2066 C2068 1.478 . S
C2067 H2061 0.930 . S
C2067 C2063 1.400 . S
C2067 C2066 1.385 . S
C2068 C2066 1.478 . S
C2068 C2070 1.381 . S
C2068 C2074 1.383 . S
C2069 C2065 1.495 . S
C2069 H2075 0.959 . S
C2069 H2076 0.961 . S
C2069 H2077 0.960 . S
C2070 C2068 1.381 . S
C2070 C2071 1.394 . S
C2070 H2078 0.930 . S
C2071 C2070 1.394 . S
C2071 C2072 1.383 . S
C2071 H2079 0.929 . S
C2072 C2071 1.383 . S
C2072 C2073 1.377 . S
C2073 H2057 0.930 . S
C2073 C2072 1.377 . S
C2073 C2074 1.379 . S
C2074 H2058 0.931 . S
C2074 C2068 1.383 . S
C2074 C2073 1.379 . S
H2075 C2069 0.959 . S
H2076 C2069 0.961 . S
H2077 C2069 0.960 . S
H2078 C2070 0.930 . S
H2079 C2071 0.929 . S
H2080 C2088 0.929 . S
H2081 C2090 0.930 . S
H2082 C2092 0.930 . S
H2083 C2095 0.929 . S
H2084 C2098 0.930 . S
H2085 C2100 0.960 . S
H2086 C2100 0.960 . S
H2087 C2100 0.960 . S
C2088 H2080 0.929 . S
C2088 C2089 1.377 . S
C2088 C2090 1.384 . S
C2089 C2088 1.377 . S
C2089 C2095 1.390 . S
C2090 H2081 0.930 . S
C2090 C2088 1.384 . S
C2090 C2091 1.372 . S
C2091 C2090 1.372 . S
C2091 C2092 1.400 . S
C2091 C2096 1.490 . S
C2092 H2082 0.930 . S
C2092 C2091 1.400 . S
C2092 C2095 1.386 . S
H2093 C2109 0.930 . S
H2094 C2110 0.931 . S
C2095 H2083 0.929 . S
C2095 C2089 1.390 . S
C2095 C2092 1.386 . S
C2096 C2091 1.490 . S
C2096 C2098 1.395 . S
C2096 C2099 1.403 . S
H2097 C2103 0.930 . S
C2098 H2084 0.930 . S
C2098 C2096 1.395 . S
C2098 C2101 1.403 . S
C2099 C2096 1.403 . S
C2099 C2100 1.524 . S
C2099 C2103 1.400 . S
C2100 H2085 0.960 . S
C2100 H2086 0.960 . S
C2100 H2087 0.960 . S
C2100 C2099 1.524 . S
C2101 C2098 1.403 . S
C2101 C2102 1.392 . S
C2101 C2105 1.495 . S
C2102 C2101 1.392 . S
C2102 C2103 1.385 . S
C2102 C2104 1.478 . S
C2103 H2097 0.930 . S
C2103 C2099 1.400 . S
C2103 C2102 1.385 . S
C2104 C2102 1.478 . S
C2104 C2106 1.381 . S
C2104 C2110 1.383 . S
C2105 C2101 1.495 . S
C2105 H2111 0.959 . S
C2105 H2112 0.961 . S
C2105 H2113 0.960 . S
C2106 C2104 1.381 . S
C2106 C2107 1.394 . S
C2106 H2114 0.930 . S
C2107 C2106 1.394 . S
C2107 C2108 1.383 . S
C2107 H2115 0.929 . S
C2108 C2107 1.383 . S
C2108 C2109 1.377 . S
C2109 H2093 0.930 . S
C2109 C2108 1.377 . S
C2109 C2110 1.379 . S
C2110 H2094 0.931 . S
C2110 C2104 1.383 . S
C2110 C2109 1.379 . S
H2111 C2105 0.959 . S
H2112 C2105 0.961 . S
H2113 C2105 0.960 . S
H2114 C2106 0.930 . S
H2115 C2107 0.929 . S
H2116 C2124 0.929 . S
H2117 C2126 0.930 . S
H2118 C2128 0.930 . S
H2119 C2131 0.929 . S
H2120 C2134 0.930 . S
H2121 C2136 0.960 . S
H2122 C2136 0.960 . S
H2123 C2136 0.960 . S
C2124 H2116 0.929 . S
C2124 C2125 1.377 . S
C2124 C2126 1.384 . S
C2125 C2124 1.377 . S
C2125 C2131 1.390 . S
C2126 H2117 0.930 . S
C2126 C2124 1.384 . S
C2126 C2127 1.372 . S
C2127 C2126 1.372 . S
C2127 C2128 1.400 . S
C2127 C2132 1.490 . S
C2128 H2118 0.930 . S
C2128 C2127 1.400 . S
C2128 C2131 1.386 . S
H2129 C2145 0.930 . S
H2130 C2146 0.931 . S
C2131 H2119 0.929 . S
C2131 C2125 1.390 . S
C2131 C2128 1.386 . S
C2132 C2127 1.490 . S
C2132 C2134 1.395 . S
C2132 C2135 1.403 . S
H2133 C2139 0.930 . S
C2134 H2120 0.930 . S
C2134 C2132 1.395 . S
C2134 C2137 1.403 . S
C2135 C2132 1.403 . S
C2135 C2136 1.524 . S
C2135 C2139 1.400 . S
C2136 H2121 0.960 . S
C2136 H2122 0.960 . S
C2136 H2123 0.960 . S
C2136 C2135 1.524 . S
C2137 C2134 1.403 . S
C2137 C2138 1.392 . S
C2137 C2141 1.495 . S
C2138 C2137 1.392 . S
C2138 C2139 1.385 . S
C2138 C2140 1.478 . S
C2139 H2133 0.930 . S
C2139 C2135 1.400 . S
C2139 C2138 1.385 . S
C2140 C2138 1.478 . S
C2140 C2142 1.381 . S
C2140 C2146 1.383 . S
C2141 C2137 1.495 . S
C2141 H2147 0.959 . S
C2141 H2148 0.961 . S
C2141 H2149 0.960 . S
C2142 C2140 1.381 . S
C2142 C2143 1.394 . S
C2142 H2150 0.930 . S
C2143 C2142 1.394 . S
C2143 C2144 1.383 . S
C2143 H2151 0.929 . S
C2144 C2143 1.383 . S
C2144 C2145 1.377 . S
C2145 H2129 0.930 . S
C2145 C2144 1.377 . S
C2145 C2146 1.379 . S
C2146 H2130 0.931 . S
C2146 C2140 1.383 . S
C2146 C2145 1.379 . S
H2147 C2141 0.959 . S
H2148 C2141 0.961 . S
H2149 C2141 0.960 . S
H2150 C2142 0.930 . S
H2151 C2143 0.929 . S
H2152 C2160 0.929 . S
H2153 C2162 0.930 . S
H2154 C2164 0.930 . S
H2155 C2167 0.929 . S
H2156 C2170 0.930 . S
H2157 C2172 0.960 . S
H2158 C2172 0.960 . S
H2159 C2172 0.960 . S
C2160 H2152 0.929 . S
C2160 C2161 1.377 . S
C2160 C2162 1.384 . S
C2161 C2160 1.377 . S
C2161 C2167 1.390 . S
C2162 H2153 0.930 . S
C2162 C2160 1.384 . S
C2162 C2163 1.372 . S
C2163 C2162 1.372 . S
C2163 C2164 1.400 . S
C2163 C2168 1.490 . S
C2164 H2154 0.930 . S
C2164 C2163 1.400 . S
C2164 C2167 1.386 . S
H2165 C2181 0.930 . S
H2166 C2182 0.931 . S
C2167 H2155 0.929 . S
C2167 C2161 1.390 . S
C2167 C2164 1.386 . S
C2168 C2163 1.490 . S
C2168 C2170 1.395 . S
C2168 C2171 1.403 . S
H2169 C2175 0.930 . S
C2170 H2156 0.930 . S
C2170 C2168 1.395 . S
C2170 C2173 1.403 . S
C2171 C2168 1.403 . S
C2171 C2172 1.524 . S
C2171 C2175 1.400 . S
C2172 H2157 0.960 . S
C2172 H2158 0.960 . S
C2172 H2159 0.960 . S
C2172 C2171 1.524 . S
C2173 C2170 1.403 . S
C2173 C2174 1.392 . S
C2173 C2177 1.495 . S
C2174 C2173 1.392 . S
C2174 C2175 1.385 . S
C2174 C2176 1.478 . S
C2175 H2169 0.930 . S
C2175 C2171 1.400 . S
C2175 C2174 1.385 . S
C2176 C2174 1.478 . S
C2176 C2178 1.381 . S
C2176 C2182 1.383 . S
C2177 C2173 1.495 . S
C2177 H2183 0.959 . S
C2177 H2184 0.961 . S
C2177 H2185 0.960 . S
C2178 C2176 1.381 . S
C2178 C2179 1.394 . S
C2178 H2186 0.930 . S
C2179 C2178 1.394 . S
C2179 C2180 1.383 . S
C2179 H2187 0.929 . S
C2180 C2179 1.383 . S
C2180 C2181 1.377 . S
C2181 H2165 0.930 . S
C2181 C2180 1.377 . S
C2181 C2182 1.379 . S
C2182 H2166 0.931 . S
C2182 C2176 1.383 . S
C2182 C2181 1.379 . S
H2183 C2177 0.959 . S
H2184 C2177 0.961 . S
H2185 C2177 0.960 . S
H2186 C2178 0.930 . S
H2187 C2179 0.929 . S
H2188 C2196 0.929 . S
H2189 C2198 0.930 . S
H2190 C2200 0.930 . S
H2191 C2203 0.929 . S
H2192 C2206 0.930 . S
H2193 C2208 0.960 . S
H2194 C2208 0.960 . S
H2195 C2208 0.960 . S
C2196 H2188 0.929 . S
C2196 C2197 1.377 . S
C2196 C2198 1.384 . S
C2197 C2196 1.377 . S
C2197 C2203 1.390 . S
C2198 H2189 0.930 . S
C2198 C2196 1.384 . S
C2198 C2199 1.372 . S
C2199 C2198 1.372 . S
C2199 C2200 1.400 . S
C2199 C2204 1.490 . S
C2200 H2190 0.930 . S
C2200 C2199 1.400 . S
C2200 C2203 1.386 . S
H2201 C2217 0.930 . S
H2202 C2218 0.931 . S
C2203 H2191 0.929 . S
C2203 C2197 1.390 . S
C2203 C2200 1.386 . S
C2204 C2199 1.490 . S
C2204 C2206 1.395 . S
C2204 C2207 1.403 . S
H2205 C2211 0.930 . S
C2206 H2192 0.930 . S
C2206 C2204 1.395 . S
C2206 C2209 1.403 . S
C2207 C2204 1.403 . S
C2207 C2208 1.524 . S
C2207 C2211 1.400 . S
C2208 H2193 0.960 . S
C2208 H2194 0.960 . S
C2208 H2195 0.960 . S
C2208 C2207 1.524 . S
C2209 C2206 1.403 . S
C2209 C2210 1.392 . S
C2209 C2213 1.495 . S
C2210 C2209 1.392 . S
C2210 C2211 1.385 . S
C2210 C2212 1.478 . S
C2211 H2205 0.930 . S
C2211 C2207 1.400 . S
C2211 C2210 1.385 . S
C2212 C2210 1.478 . S
C2212 C2214 1.381 . S
C2212 C2218 1.383 . S
C2213 C2209 1.495 . S
C2213 H2219 0.959 . S
C2213 H2220 0.961 . S
C2213 H2221 0.960 . S
C2214 C2212 1.381 . S
C2214 C2215 1.394 . S
C2214 H2222 0.930 . S
C2215 C2214 1.394 . S
C2215 C2216 1.383 . S
C2215 H2223 0.929 . S
C2216 C2215 1.383 . S
C2216 C2217 1.377 . S
C2217 H2201 0.930 . S
C2217 C2216 1.377 . S
C2217 C2218 1.379 . S
C2218 H2202 0.931 . S
C2218 C2212 1.383 . S
C2218 C2217 1.379 . S
H2219 C2213 0.959 . S
H2220 C2213 0.961 . S
H2221 C2213 0.960 . S
H2222 C2214 0.930 . S
H2223 C2215 0.929 . S
H2224 C2232 0.929 . S
H2225 C2234 0.930 . S
H2226 C2236 0.930 . S
H2227 C2239 0.929 . S
H2228 C2242 0.930 . S
H2229 C2244 0.960 . S
H2230 C2244 0.960 . S
H2231 C2244 0.960 . S
C2232 H2224 0.929 . S
C2232 C2233 1.377 . S
C2232 C2234 1.384 . S
C2233 C2232 1.377 . S
C2233 C2239 1.390 . S
C2234 H2225 0.930 . S
C2234 C2232 1.384 . S
C2234 C2235 1.372 . S
C2235 C2234 1.372 . S
C2235 C2236 1.400 . S
C2235 C2240 1.490 . S
C2236 H2226 0.930 . S
C2236 C2235 1.400 . S
C2236 C2239 1.386 . S
H2237 C2253 0.930 . S
H2238 C2254 0.931 . S
C2239 H2227 0.929 . S
C2239 C2233 1.390 . S
C2239 C2236 1.386 . S
C2240 C2235 1.490 . S
C2240 C2242 1.395 . S
C2240 C2243 1.403 . S
H2241 C2247 0.930 . S
C2242 H2228 0.930 . S
C2242 C2240 1.395 . S
C2242 C2245 1.403 . S
C2243 C2240 1.403 . S
C2243 C2244 1.524 . S
C2243 C2247 1.400 . S
C2244 H2229 0.960 . S
C2244 H2230 0.960 . S
C2244 H2231 0.960 . S
C2244 C2243 1.524 . S
C2245 C2242 1.403 . S
C2245 C2246 1.392 . S
C2245 C2249 1.495 . S
C2246 C2245 1.392 . S
C2246 C2247 1.385 . S
C2246 C2248 1.478 . S
C2247 H2241 0.930 . S
C2247 C2243 1.400 . S
C2247 C2246 1.385 . S
C2248 C2246 1.478 . S
C2248 C2250 1.381 . S
C2248 C2254 1.383 . S
C2249 C2245 1.495 . S
C2249 H2255 0.959 . S
C2249 H2256 0.961 . S
C2249 H2257 0.960 . S
C2250 C2248 1.381 . S
C2250 C2251 1.394 . S
C2250 H2258 0.930 . S
C2251 C2250 1.394 . S
C2251 C2252 1.383 . S
C2251 H2259 0.929 . S
C2252 C2251 1.383 . S
C2252 C2253 1.377 . S
C2253 H2237 0.930 . S
C2253 C2252 1.377 . S
C2253 C2254 1.379 . S
C2254 H2238 0.931 . S
C2254 C2248 1.383 . S
C2254 C2253 1.379 . S
H2255 C2249 0.959 . S
H2256 C2249 0.961 . S
H2257 C2249 0.960 . S
H2258 C2250 0.930 . S
H2259 C2251 0.929 . S
H2260 C2268 0.929 . S
H2261 C2270 0.930 . S
H2262 C2272 0.930 . S
H2263 C2275 0.929 . S
H2264 C2278 0.930 . S
H2265 C2280 0.960 . S
H2266 C2280 0.960 . S
H2267 C2280 0.960 . S
C2268 H2260 0.929 . S
C2268 C2269 1.377 . S
C2268 C2270 1.384 . S
C2269 C2268 1.377 . S
C2269 C2275 1.390 . S
C2270 H2261 0.930 . S
C2270 C2268 1.384 . S
C2270 C2271 1.372 . S
C2271 C2270 1.372 . S
C2271 C2272 1.400 . S
C2271 C2276 1.490 . S
C2272 H2262 0.930 . S
C2272 C2271 1.400 . S
C2272 C2275 1.386 . S
H2273 C2289 0.930 . S
H2274 C2290 0.931 . S
C2275 H2263 0.929 . S
C2275 C2269 1.390 . S
C2275 C2272 1.386 . S
C2276 C2271 1.490 . S
C2276 C2278 1.395 . S
C2276 C2279 1.403 . S
H2277 C2283 0.930 . S
C2278 H2264 0.930 . S
C2278 C2276 1.395 . S
C2278 C2281 1.403 . S
C2279 C2276 1.403 . S
C2279 C2280 1.524 . S
C2279 C2283 1.400 . S
C2280 H2265 0.960 . S
C2280 H2266 0.960 . S
C2280 H2267 0.960 . S
C2280 C2279 1.524 . S
C2281 C2278 1.403 . S
C2281 C2282 1.392 . S
C2281 C2285 1.495 . S
C2282 C2281 1.392 . S
C2282 C2283 1.385 . S
C2282 C2284 1.478 . S
C2283 H2277 0.930 . S
C2283 C2279 1.400 . S
C2283 C2282 1.385 . S
C2284 C2282 1.478 . S
C2284 C2286 1.381 . S
C2284 C2290 1.383 . S
C2285 C2281 1.495 . S
C2285 H2291 0.959 . S
C2285 H2292 0.961 . S
C2285 H2293 0.960 . S
C2286 C2284 1.381 . S
C2286 C2287 1.394 . S
C2286 H2294 0.930 . S
C2287 C2286 1.394 . S
C2287 C2288 1.383 . S
C2287 H2295 0.929 . S
C2288 C2287 1.383 . S
C2288 C2289 1.377 . S
C2289 H2273 0.930 . S
C2289 C2288 1.377 . S
C2289 C2290 1.379 . S
C2290 H2274 0.931 . S
C2290 C2284 1.383 . S
C2290 C2289 1.379 . S
H2291 C2285 0.959 . S
H2292 C2285 0.961 . S
H2293 C2285 0.960 . S
H2294 C2286 0.930 . S
H2295 C2287 0.929 . S
H2296 C2304 0.929 . S
H2297 C2306 0.930 . S
H2298 C2308 0.930 . S
H2299 C2311 0.929 . S
H2300 C2314 0.930 . S
H2301 C2316 0.960 . S
H2302 C2316 0.960 . S
H2303 C2316 0.960 . S
C2304 H2296 0.929 . S
C2304 C2305 1.377 . S
C2304 C2306 1.384 . S
C2305 C2304 1.377 . S
C2305 C2311 1.390 . S
C2306 H2297 0.930 . S
C2306 C2304 1.384 . S
C2306 C2307 1.372 . S
C2307 C2306 1.372 . S
C2307 C2308 1.400 . S
C2307 C2312 1.490 . S
C2308 H2298 0.930 . S
C2308 C2307 1.400 . S
C2308 C2311 1.386 . S
H2309 C2325 0.930 . S
H2310 C2326 0.931 . S
C2311 H2299 0.929 . S
C2311 C2305 1.390 . S
C2311 C2308 1.386 . S
C2312 C2307 1.490 . S
C2312 C2314 1.395 . S
C2312 C2315 1.403 . S
H2313 C2319 0.930 . S
C2314 H2300 0.930 . S
C2314 C2312 1.395 . S
C2314 C2317 1.403 . S
C2315 C2312 1.403 . S
C2315 C2316 1.524 . S
C2315 C2319 1.400 . S
C2316 H2301 0.960 . S
C2316 H2302 0.960 . S
C2316 H2303 0.960 . S
C2316 C2315 1.524 . S
C2317 C2314 1.403 . S
C2317 C2318 1.392 . S
C2317 C2321 1.495 . S
C2318 C2317 1.392 . S
C2318 C2319 1.385 . S
C2318 C2320 1.478 . S
C2319 H2313 0.930 . S
C2319 C2315 1.400 . S
C2319 C2318 1.385 . S
C2320 C2318 1.478 . S
C2320 C2322 1.381 . S
C2320 C2326 1.383 . S
C2321 C2317 1.495 . S
C2321 H2327 0.959 . S
C2321 H2328 0.961 . S
C2321 H2329 0.960 . S
C2322 C2320 1.381 . S
C2322 C2323 1.394 . S
C2322 H2330 0.930 . S
C2323 C2322 1.394 . S
C2323 C2324 1.383 . S
C2323 H2331 0.929 . S
C2324 C2323 1.383 . S
C2324 C2325 1.377 . S
C2325 H2309 0.930 . S
C2325 C2324 1.377 . S
C2325 C2326 1.379 . S
C2326 H2310 0.931 . S
C2326 C2320 1.383 . S
C2326 C2325 1.379 . S
H2327 C2321 0.959 . S
H2328 C2321 0.961 . S
H2329 C2321 0.960 . S
H2330 C2322 0.930 . S
H2331 C2323 0.929 . S
H2332 C2340 0.929 . S
H2333 C2342 0.930 . S
H2334 C2344 0.930 . S
H2335 C2347 0.929 . S
H2336 C2350 0.930 . S
H2337 C2352 0.960 . S
H2338 C2352 0.960 . S
H2339 C2352 0.960 . S
C2340 H2332 0.929 . S
C2340 C2341 1.377 . S
C2340 C2342 1.384 . S
C2341 C2340 1.377 . S
C2341 C2347 1.390 . S
C2342 H2333 0.930 . S
C2342 C2340 1.384 . S
C2342 C2343 1.372 . S
C2343 C2342 1.372 . S
C2343 C2344 1.400 . S
C2343 C2348 1.490 . S
C2344 H2334 0.930 . S
C2344 C2343 1.400 . S
C2344 C2347 1.386 . S
H2345 C2361 0.930 . S
H2346 C2362 0.931 . S
C2347 H2335 0.929 . S
C2347 C2341 1.390 . S
C2347 C2344 1.386 . S
C2348 C2343 1.490 . S
C2348 C2350 1.395 . S
C2348 C2351 1.403 . S
H2349 C2355 0.930 . S
C2350 H2336 0.930 . S
C2350 C2348 1.395 . S
C2350 C2353 1.403 . S
C2351 C2348 1.403 . S
C2351 C2352 1.524 . S
C2351 C2355 1.400 . S
C2352 H2337 0.960 . S
C2352 H2338 0.960 . S
C2352 H2339 0.960 . S
C2352 C2351 1.524 . S
C2353 C2350 1.403 . S
C2353 C2354 1.392 . S
C2353 C2357 1.495 . S
C2354 C2353 1.392 . S
C2354 C2355 1.385 . S
C2354 C2356 1.478 . S
C2355 H2349 0.930 . S
C2355 C2351 1.400 . S
C2355 C2354 1.385 . S
C2356 C2354 1.478 . S
C2356 C2358 1.381 . S
C2356 C2362 1.383 . S
C2357 C2353 1.495 . S
C2357 H2363 0.959 . S
C2357 H2364 0.961 . S
C2357 H2365 0.960 . S
C2358 C2356 1.381 . S
C2358 C2359 1.394 . S
C2358 H2366 0.930 . S
C2359 C2358 1.394 . S
C2359 C2360 1.383 . S
C2359 H2367 0.929 . S
C2360 C2359 1.383 . S
C2360 C2361 1.377 . S
C2361 H2345 0.930 . S
C2361 C2360 1.377 . S
C2361 C2362 1.379 . S
C2362 H2346 0.931 . S
C2362 C2356 1.383 . S
C2362 C2361 1.379 . S
H2363 C2357 0.959 . S
H2364 C2357 0.961 . S
H2365 C2357 0.960 . S
H2366 C2358 0.930 . S
H2367 C2359 0.929 . S
C649 C139 1.681 . S
C668 C9 1.707 . S
C685 C6 0.233 . S
C704 C55 0.149 . S
C721 C89 0.336 . S
C740 C58 0.389 . S
C757 C126 0.495 . S
C776 C86 0.558 . S
C793 C166 1.934 . S
C812 C210 1.862 . S
C829 C218 0.473 . S
C848 C258 0.460 . S
C865 C255 2.969 . S
C884 C290 2.928 . S
C901 C179 1.571 . S
C920 C298 1.590 . S
C937 C375 2.159 . S
C956 C19 2.132 . S
C973 C410 1.237 . S
C992 C50 1.193 . S
C1009 C99 2.097 . S
C1028 C535 2.113 . S
C1045 C329 0.652 . S
C1064 C129 0.617 . S
C1081 C449 0.470 . S
C1100 C169 0.467 . S
C1117 C575 0.937 . S
C1136 C215 0.950 . S
C1153 C250 1.924 . S
C1172 C490 1.961 . S
C1189 C619 2.237 . S
C1208 C295 2.262 . S
C1225 C339 1.719 . S
C1244 C538 1.734 . S
C1261 C370 2.457 . S
C1280 C326 2.509 . S
C1297 C418 0.813 . S
C1316 C378 0.804 . S
C1333 C578 1.611 . S
C1352 C459 1.567 . S
C1369 C498 0.918 . S
C1388 C609 0.949 . S
C1405 C450 1.682 . S
C1424 C18 1.698 . S
C1441 C486 0.176 . S
C1460 C15 0.295 . S
C1477 C489 0.415 . S
C1496 C98 0.398 . S
C1513 C95 0.497 . S
C1532 C455 0.548 . S
C1549 C379 1.883 . S
C1568 C175 1.942 . S
C1585 C369 0.496 . S
C1604 C249 0.424 . S
C1621 C539 2.926 . S
C1640 C246 2.967 . S
C1657 C170 1.570 . S
C1676 C529 1.569 . S
C1693 C206 2.160 . S
C1712 C10 2.143 . S
C1729 C419 1.226 . S
C1748 C499 1.173 . S
C1765 C90 2.097 . S
C1784 C286 2.090 . S
C1801 C338 0.646 . S
C1820 C458 0.665 . S
C1837 C138 0.447 . S
C1856 C178 0.527 . S
C1873 C366 0.946 . S
C1892 C566 0.958 . S
C1909 C259 1.918 . S
C1928 C59 1.931 . S
C1945 C610 2.235 . S
C1964 C526 2.268 . S
C1981 C330 1.711 . S
C2000 C289 1.719 . S
C2017 C335 2.501 . S
C2036 C219 2.446 . S
C2053 C409 0.824 . S
C2072 C209 0.815 . S
C2089 C130 1.592 . S
C2108 C569 1.619 . S
C2125 C49 0.913 . S
C2144 C618 0.942 . S
C2161 C495 1.209 . S
C2180 C570 1.217 . S
C2197 C446 0.439 . S
C2216 C606 0.375 . S
C2233 C415 3.048 . S
C2252 C530 3.016 . S
C2269 C579 1.196 . S
C2288 C46 1.212 . S
C2305 C135 0.449 . S
C2324 C615 0.347 . S
C2341 C299 3.008 . S
C2360 C406 3.039 . S
