# Generated by pormake.
# Topology uoq, (4)-cn, num edge types: 1
# Building blocks:
#     Node 0, Type 0, BuildingBlock: AZAVOO_clean_sbu_0, # of connection points: 4
#     Node 1, Type 0, BuildingBlock: AZAVOO_clean_sbu_0, # of connection points: 4
#     Node 2, Type 0, BuildingBlock: AZAVOO_clean_sbu_0, # of connection points: 4
#     Node 3, Type 0, BuildingBlock: AZAVOO_clean_sbu_0, # of connection points: 4
#     Node 4, Type 0, BuildingBlock: AZAVOO_clean_sbu_0, # of connection points: 4
#     Node 5, Type 0, BuildingBlock: AZAVOO_clean_sbu_0, # of connection points: 4
#     Node 6, Type 0, BuildingBlock: AZAVOO_clean_sbu_0, # of connection points: 4
#     Node 7, Type 0, BuildingBlock: AZAVOO_clean_sbu_0, # of connection points: 4
#     Node 8, Type 0, BuildingBlock: AZAVOO_clean_sbu_0, # of connection points: 4
#     Node 9, Type 0, BuildingBlock: AZAVOO_clean_sbu_0, # of connection points: 4
#     Node 10, Type 0, BuildingBlock: AZAVOO_clean_sbu_0, # of connection points: 4
#     Node 11, Type 0, BuildingBlock: AZAVOO_clean_sbu_0, # of connection points: 4
#     Edge 12, Type (0, 0), BuildingBlock: EYOCIG_clean_linker_4, # of connection points: 2
#     Edge 13, Type (0, 0), BuildingBlock: EYOCIG_clean_linker_4, # of connection points: 2
#     Edge 14, Type (0, 0), BuildingBlock: EYOCIG_clean_linker_4, # of connection points: 2
#     Edge 15, Type (0, 0), BuildingBlock: EYOCIG_clean_linker_4, # of connection points: 2
#     Edge 16, Type (0, 0), BuildingBlock: EYOCIG_clean_linker_4, # of connection points: 2
#     Edge 17, Type (0, 0), BuildingBlock: EYOCIG_clean_linker_4, # of connection points: 2
#     Edge 18, Type (0, 0), BuildingBlock: EYOCIG_clean_linker_4, # of connection points: 2
#     Edge 19, Type (0, 0), BuildingBlock: EYOCIG_clean_linker_4, # of connection points: 2
#     Edge 20, Type (0, 0), BuildingBlock: EYOCIG_clean_linker_4, # of connection points: 2
#     Edge 21, Type (0, 0), BuildingBlock: EYOCIG_clean_linker_4, # of connection points: 2
#     Edge 22, Type (0, 0), BuildingBlock: EYOCIG_clean_linker_4, # of connection points: 2
#     Edge 23, Type (0, 0), BuildingBlock: EYOCIG_clean_linker_4, # of connection points: 2
#     Edge 24, Type (0, 0), BuildingBlock: EYOCIG_clean_linker_4, # of connection points: 2
#     Edge 25, Type (0, 0), BuildingBlock: EYOCIG_clean_linker_4, # of connection points: 2
#     Edge 26, Type (0, 0), BuildingBlock: EYOCIG_clean_linker_4, # of connection points: 2
#     Edge 27, Type (0, 0), BuildingBlock: EYOCIG_clean_linker_4, # of connection points: 2
#     Edge 28, Type (0, 0), BuildingBlock: EYOCIG_clean_linker_4, # of connection points: 2
#     Edge 29, Type (0, 0), BuildingBlock: EYOCIG_clean_linker_4, # of connection points: 2
#     Edge 30, Type (0, 0), BuildingBlock: EYOCIG_clean_linker_4, # of connection points: 2
#     Edge 31, Type (0, 0), BuildingBlock: EYOCIG_clean_linker_4, # of connection points: 2
#     Edge 32, Type (0, 0), BuildingBlock: EYOCIG_clean_linker_4, # of connection points: 2
#     Edge 33, Type (0, 0), BuildingBlock: EYOCIG_clean_linker_4, # of connection points: 2
#     Edge 34, Type (0, 0), BuildingBlock: EYOCIG_clean_linker_4, # of connection points: 2
#     Edge 35, Type (0, 0), BuildingBlock: EYOCIG_clean_linker_4, # of connection points: 2
# Relax obj value: 0.084
# Max RMSD: 0.082
# Mean RMSD: 0.082
data_MOF--net-uoq--node1-AZAVOO_clean_sbu_0--edge1-EYOCIG_clean_linker_4
_symmetry_space_group_name_H-M    P1
_symmetry_Int_Tables_number       1
_symmetry_cell_setting            triclinic
loop_
_symmetry_equiv_pos_as_xyz
'x, y, z'
_cell_length_a     47.020369
_cell_length_b     47.142562
_cell_length_c     19.590893
_cell_angle_alpha  89.963639
_cell_angle_beta   90.060308
_cell_angle_gamma 120.2372
loop_
_atom_site_label
_atom_site_type_symbol
_atom_site_fract_x
_atom_site_fract_y
_atom_site_fract_z
_atom_type_partial_charge
Mg0 Mg 0.29696 0.4435 0.22826 0.0
O1 O 0.26535 0.44057 0.32033 0.0
O2 O 0.29636 0.45139 0.41426 0.0
Mg3 Mg 0.34782 0.46236 0.38243 0.0
C4 C 0.26931 0.44406 0.38483 0.0
C5 C 0.25666 0.43115 0.09865 0.0
O6 O 0.28669 0.45279 0.07974 0.0
O7 O 0.29199 0.3939 0.25679 0.0
O8 O 0.32704 0.40931 0.34516 0.0
O9 O 0.316 0.49762 0.21835 0.0
O10 O 0.33991 0.47632 0.28044 0.0
C11 C 0.30749 0.38776 0.30266 0.0
C12 C 0.33912 0.50181 0.26005 0.0
O13 O 0.25148 0.42028 0.15943 0.0
Mg14 Mg 0.84249 0.30248 0.56061 0.0
O15 O 0.81379 0.27094 0.65284 0.0
O16 O 0.83428 0.30185 0.74671 0.0
Mg17 Mg 0.87495 0.35321 0.71468 0.0
C18 C 0.81439 0.27486 0.71735 0.0
C19 C 0.81453 0.26215 0.43092 0.0
O20 O 0.82319 0.29208 0.41151 0.0
O21 O 0.88723 0.29753 0.58893 0.0
O22 O 0.90715 0.33247 0.67728 0.0
O23 O 0.80738 0.32146 0.55096 0.0
O24 O 0.85288 0.34531 0.61281 0.0
C25 C 0.90901 0.31296 0.63478 0.0
C26 C 0.82652 0.34453 0.59257 0.0
O27 O 0.81999 0.25709 0.49197 0.0
Mg28 Mg 0.52974 0.84773 0.89411 0.0
O29 O 0.53278 0.81936 -0.0134 0.0
O30 O 0.52255 0.83992 0.08036 0.0
Mg31 Mg 0.51171 0.88027 0.04803 0.0
C32 C 0.5296 0.82008 0.05113 0.0
C33 C 0.54214 0.81996 0.76434 0.0
O34 O 0.52106 0.82882 0.74469 0.0
O35 O 0.57975 0.89258 0.92172 0.0
O36 O 0.56476 0.91251 0.00986 0.0
O37 O 0.47532 0.8126 0.88504 0.0
O38 O 0.49731 0.85811 0.94636 0.0
C39 C 0.58617 0.91441 0.96724 0.0
C40 C 0.47152 0.83178 0.92642 0.0
O41 O 0.55255 0.82522 0.82552 0.0
Mg42 Mg 0.67105 0.53529 0.22692 0.0
O43 O 0.70274 0.53824 0.31902 0.0
O44 O 0.67182 0.52747 0.41296 0.0
Mg45 Mg 0.62035 0.51653 0.38117 0.0
C46 C 0.69883 0.53477 0.38352 0.0
C47 C 0.71133 0.54716 0.09753 0.0
O48 O 0.68136 0.52519 0.0789 0.0
O49 O 0.67609 0.58494 0.25534 0.0
O50 O 0.64113 0.56956 0.34376 0.0
O51 O 0.65193 0.48114 0.21724 0.0
O52 O 0.62814 0.50254 0.27922 0.0
C53 C 0.66065 0.59109 0.30122 0.0
C54 C 0.62887 0.47702 0.25895 0.0
O55 O 0.71647 0.55842 0.158 0.0
Mg56 Mg 0.12575 0.67637 0.56166 0.0
O57 O 0.15423 0.70782 0.65422 0.0
O58 O 0.13355 0.67683 0.74792 0.0
Mg59 Mg 0.09296 0.62549 0.71544 0.0
C60 C 0.1535 0.70384 0.71874 0.0
C61 C 0.15353 0.71673 0.43191 0.0
O62 O 0.14433 0.68673 0.41216 0.0
O63 O 0.08094 0.6813 0.58929 0.0
O64 O 0.06086 0.64629 0.67749 0.0
O65 O 0.16088 0.6574 0.55259 0.0
O66 O 0.11525 0.63349 0.61386 0.0
C67 C 0.05908 0.66583 0.63489 0.0
C68 C 0.14165 0.63429 0.59399 0.0
O69 O 0.14845 0.72183 0.49316 0.0
Mg70 Mg 0.43841 0.13108 0.8947 0.0
O71 O 0.43555 0.1597 -0.0132 0.0
O72 O 0.44605 0.13945 0.08081 0.0
Mg73 Mg 0.45691 0.09907 0.04902 0.0
C74 C 0.43889 0.15917 0.05134 0.0
C75 C 0.42604 0.15883 0.76482 0.0
O76 O 0.44742 0.15029 0.74562 0.0
O77 O 0.38851 0.08626 0.92297 0.0
O78 O 0.40377 0.06663 0.01135 0.0
O79 O 0.49279 0.16625 0.8851 0.0
O80 O 0.47101 0.12092 0.94704 0.0
C81 C 0.38224 0.06456 0.96878 0.0
C82 C 0.49673 0.1472 0.92671 0.0
O83 O 0.41541 0.15334 0.82578 0.0
Mg84 Mg 0.53 0.6771 0.40598 0.0
O85 O 0.53309 0.70862 0.31365 0.0
O86 O 0.52242 0.6777 0.21984 0.0
Mg87 Mg 0.51131 0.62636 0.25197 0.0
C88 C 0.52972 0.70468 0.24913 0.0
C89 C 0.54214 0.7174 0.53537 0.0
O90 O 0.52035 0.68748 0.55433 0.0
O91 O 0.57979 0.68202 0.37808 0.0
O92 O 0.56438 0.64701 0.28987 0.0
O93 O 0.47568 0.65798 0.41532 0.0
O94 O 0.49724 0.63423 0.35377 0.0
C95 C 0.58595 0.66649 0.33245 0.0
C96 C 0.47161 0.63491 0.37386 0.0
O97 O 0.55316 0.72249 0.4747 0.0
Mg98 Mg 0.84188 0.53448 0.73892 0.0
O99 O 0.81351 0.53741 0.64619 0.0
O100 O 0.83422 0.52718 0.55263 0.0
Mg101 Mg 0.87469 0.51646 0.58534 0.0
C102 C 0.8143 0.53421 0.58168 0.0
C103 C 0.81392 0.5469 0.86845 0.0
O104 O 0.82281 0.5259 0.88825 0.0
O105 O 0.8868 0.58438 0.71132 0.0
O106 O 0.90687 0.56944 0.62333 0.0
O107 O 0.8067 0.4802 0.748 0.0
O108 O 0.85238 0.50214 0.68689 0.0
C109 C 0.9087 0.59081 0.66584 0.0
C110 C 0.82597 0.47641 0.70674 0.0
O111 O 0.81923 0.55723 0.80726 0.0
Mg112 Mg 0.29708 0.84799 0.07346 0.0
O113 O 0.26544 0.81939 0.98115 0.0
O114 O 0.29635 0.83998 0.88729 0.0
Mg115 Mg 0.3478 0.88066 0.91938 0.0
C116 C 0.26934 0.82004 0.91663 0.0
C117 C 0.2568 0.82003 0.20328 0.0
O118 O 0.28689 0.82904 0.22276 0.0
O119 O 0.29196 0.89259 0.04567 0.0
O120 O 0.32692 0.91262 0.9573 0.0
O121 O 0.31624 0.81307 0.08262 0.0
O122 O 0.34002 0.85853 0.02108 0.0
C123 C 0.30737 0.91439 -4e-05 0.0
C124 C 0.33932 0.83224 0.04105 0.0
O125 O 0.25161 0.82529 0.14218 0.0
Mg126 Mg 0.4383 0.30177 0.40611 0.0
O127 O 0.43521 0.27042 0.31355 0.0
O128 O 0.44572 0.30144 0.21992 0.0
Mg129 Mg 0.45669 0.35269 0.25239 0.0
C130 C 0.43853 0.27445 0.24905 0.0
C131 C 0.42603 0.26134 0.53548 0.0
O132 O 0.44754 0.29129 0.55483 0.0
O133 O 0.38843 0.29675 0.37845 0.0
O134 O 0.40365 0.33187 0.29045 0.0
O135 O 0.49265 0.32098 0.41529 0.0
O136 O 0.47093 0.34473 0.35404 0.0
C137 C 0.38216 0.3123 0.333 0.0
C138 C 0.49661 0.34408 0.37394 0.0
O139 O 0.41527 0.25628 0.47458 0.0
Mg140 Mg 0.12626 0.44415 0.73971 0.0
O141 O 0.15464 0.44128 0.64708 0.0
O142 O 0.13394 0.4516 0.55347 0.0
Mg143 Mg 0.09349 0.46232 0.58608 0.0
C144 C 0.15386 0.44454 0.58258 0.0
C145 C 0.15403 0.43146 0.86931 0.0
O146 O 0.14502 0.45235 0.88919 0.0
O147 O 0.08133 0.3943 0.71193 0.0
O148 O 0.06126 0.40932 0.62393 0.0
O149 O 0.16146 0.49842 0.74902 0.0
O150 O 0.11579 0.47656 0.68774 0.0
C151 C 0.05942 0.38792 0.66641 0.0
C152 C 0.14219 0.50226 0.70775 0.0
O153 O 0.14887 0.4213 0.808 0.0
Mg154 Mg 0.67131 0.13083 0.07224 0.0
O155 O 0.70268 0.15942 0.97972 0.0
O156 O 0.67147 0.13886 0.88612 0.0
Mg157 Mg 0.62011 0.09821 0.91861 0.0
C158 C 0.69858 0.15877 0.91524 0.0
C159 C 0.71183 0.15894 0.20159 0.0
O160 O 0.68179 0.15017 0.22088 0.0
O161 O 0.67634 0.08625 0.04405 0.0
O162 O 0.64114 0.06625 0.95596 0.0
O163 O 0.65225 0.1658 0.08189 0.0
O164 O 0.62824 0.12035 0.02033 0.0
C165 C 0.66082 0.06448 -0.00165 0.0
C166 C 0.62906 0.14667 0.04044 0.0
O167 O 0.71694 0.15347 0.14063 0.0
C168 C 0.31282 0.3352 0.31181 0.0
C169 C 0.30714 0.35712 0.30171 0.0
C170 C 0.32969 0.318 0.32476 0.0
C171 C 0.35149 0.31205 0.33458 0.0
C172 C 0.96702 0.31822 0.64421 0.0
C173 C 0.93933 0.31252 0.63389 0.0
C174 C 0.0012 0.33521 0.65756 0.0
C175 C 0.029 0.35713 0.66769 0.0
C176 C 0.63886 0.97261 0.97578 0.0
C177 C 0.61697 0.94483 0.96576 0.0
C178 C 0.65577 0.00671 -0.01098 0.0
C179 C 0.66138 0.03429 -0.00074 0.0
C180 C 0.65529 0.64363 0.31053 0.0
C181 C 0.661 0.62174 0.3003 0.0
C182 C 0.63839 0.66076 0.32374 0.0
C183 C 0.61661 0.66671 0.33378 0.0
C184 C 0.96689 0.64356 0.65706 0.0
C185 C 0.9391 0.62162 0.66717 0.0
C186 C 0.00107 0.66057 0.6438 0.0
C187 C 0.02877 0.66629 0.63368 0.0
C188 C 0.3126 0.97225 -0.00888 0.0
C189 C 0.30691 0.94462 0.0012 0.0
C190 C 0.32957 0.00635 0.97787 0.0
C191 C 0.35147 0.03411 0.96765 0.0
C192 C 0.18869 0.41904 0.95796 0.0
C193 C 0.173 0.42354 0.91489 0.0
C194 C 0.20968 0.41891 0.00956 0.0
C195 C 0.22977 0.42324 0.05284 0.0
C196 C 0.77993 0.21507 0.34202 0.0
C197 C 0.79561 0.23525 0.38519 0.0
C198 C 0.75891 0.19391 0.29042 0.0
C199 C 0.73877 0.17807 0.24724 0.0
C200 C 0.55441 0.78533 0.67566 0.0
C201 C 0.54999 0.801 0.71872 0.0
C202 C 0.55447 0.76434 0.62415 0.0
C203 C 0.55011 0.74427 0.58101 0.0
C204 C 0.75828 0.55941 0.00857 0.0
C205 C 0.73822 0.55512 0.0518 0.0
C206 C 0.77926 0.55927 0.95702 0.0
C207 C 0.79495 0.55481 0.91399 0.0
C208 C 0.18854 0.76383 0.34334 0.0
C209 C 0.1727 0.74363 0.38634 0.0
C210 C 0.2097 0.78501 0.29196 0.0
C211 C 0.22989 0.80086 0.24892 0.0
C212 C 0.41372 0.19335 0.67578 0.0
C213 C 0.41814 0.1777 0.719 0.0
C214 C 0.4137 0.21434 0.62419 0.0
C215 C 0.41808 0.23445 0.58107 0.0
C216 C 0.19688 0.43933 0.50479 0.0
C217 C 0.1774 0.44163 0.54099 0.0
C218 C 0.221 0.43919 0.46206 0.0
C219 C 0.24277 0.44131 0.42599 0.0
C220 C 0.77105 0.22643 0.79474 0.0
C221 C 0.79066 0.24827 0.75864 0.0
C222 C 0.74684 0.20216 0.83751 0.0
C223 C 0.72506 0.18252 0.87373 0.0
C224 C 0.53478 0.77705 0.1288 0.0
C225 C 0.5325 0.79652 0.0926 0.0
C226 C 0.53483 0.75293 0.1716 0.0
C227 C 0.53259 0.73117 0.20778 0.0
C228 C 0.74717 0.53962 0.46085 0.0
C229 C 0.7254 0.53751 0.4247 0.0
C230 C 0.77128 0.53945 0.5037 0.0
C231 C 0.79075 0.53714 0.54 0.0
C232 C 0.19671 0.75225 0.79644 0.0
C233 C 0.17715 0.7304 0.76026 0.0
C234 C 0.22092 0.77657 0.8392 0.0
C235 C 0.24276 0.79624 0.87532 0.0
C236 C 0.4337 0.20228 0.12859 0.0
C237 C 0.43598 0.18278 0.09254 0.0
C238 C 0.4336 0.22636 0.17133 0.0
C239 C 0.43576 0.24806 0.20755 0.0
C240 C 0.38573 0.55964 0.30435 0.0
C241 C 0.3638 0.53396 0.28244 0.0
C242 C 0.41385 0.58797 0.32961 0.0
C243 C 0.43944 0.61009 0.35158 0.0
C244 C 0.81534 0.419 0.66232 0.0
C245 C 0.81876 0.44444 0.68431 0.0
C246 C 0.8155 0.391 0.637 0.0
C247 C 0.81916 0.36914 0.61505 0.0
C248 C 0.41397 0.82117 0.97085 0.0
C249 C 0.43947 0.82458 0.94884 0.0
C250 C 0.38592 0.82135 -0.00377 0.0
C251 C 0.36401 0.82498 0.01832 0.0
C252 C 0.58233 0.41927 0.30372 0.0
C253 C 0.60423 0.44491 0.28159 0.0
C254 C 0.55425 0.39099 0.32927 0.0
C255 C 0.52872 0.36889 0.35142 0.0
C256 C 0.15261 0.58775 0.63851 0.0
C257 C 0.14896 0.60963 0.61656 0.0
C258 C 0.15279 0.55973 0.6637 0.0
C259 C 0.14939 0.53426 0.68553 0.0
C260 C 0.58247 0.15772 -0.00397 0.0
C261 C 0.60438 0.15402 0.01794 0.0
C262 C 0.55439 0.15792 0.9708 0.0
C263 C 0.52885 0.15449 0.9489 0.0
loop_
_geom_bond_atom_site_label_1
_geom_bond_atom_site_label_2
_geom_bond_distance
_geom_bond_site_symmetry_2
_ccdc_geom_bond_type
Mg0 O1 2.028 . S
Mg0 O7 1.986 . S
Mg0 O9 2.114 . S
Mg0 O10 2.251 . S
Mg0 O13 2.010 . S
O1 Mg0 2.028 . S
O1 C4 1.250 . S
O2 Mg3 2.028 . S
O2 C4 1.248 . S
Mg3 O2 2.028 . S
Mg3 O8 2.032 . S
Mg3 O10 2.079 . S
C4 O1 1.250 . S
C4 O2 1.248 . S
C5 O6 1.264 . S
C5 O13 1.249 . S
O6 C5 1.264 . S
O7 Mg0 1.986 . S
O7 C11 1.246 . S
O8 Mg3 2.032 . S
O8 C11 1.259 . S
O9 Mg0 2.114 . S
O9 C12 1.252 . S
O10 Mg0 2.251 . S
O10 Mg3 2.079 . S
O10 C12 1.273 . S
C11 O7 1.246 . S
C11 O8 1.259 . S
C12 O9 1.252 . S
C12 O10 1.273 . S
O13 Mg0 2.010 . S
O13 C5 1.249 . S
Mg14 O15 2.028 . S
Mg14 O21 1.986 . S
Mg14 O23 2.114 . S
Mg14 O24 2.251 . S
Mg14 O27 2.010 . S
O15 Mg14 2.028 . S
O15 C18 1.250 . S
O16 Mg17 2.028 . S
O16 C18 1.248 . S
Mg17 O16 2.028 . S
Mg17 O22 2.032 . S
Mg17 O24 2.079 . S
C18 O15 1.250 . S
C18 O16 1.248 . S
C19 O20 1.264 . S
C19 O27 1.249 . S
O20 C19 1.264 . S
O21 Mg14 1.986 . S
O21 C25 1.246 . S
O22 Mg17 2.032 . S
O22 C25 1.259 . S
O23 Mg14 2.114 . S
O23 C26 1.252 . S
O24 Mg14 2.251 . S
O24 Mg17 2.079 . S
O24 C26 1.273 . S
C25 O21 1.246 . S
C25 O22 1.259 . S
C26 O23 1.252 . S
C26 O24 1.273 . S
O27 Mg14 2.010 . S
O27 C19 1.249 . S
Mg28 O29 2.028 . S
Mg28 O35 1.986 . S
Mg28 O37 2.114 . S
Mg28 O38 2.251 1_556 S
Mg28 O41 2.010 . S
O29 Mg28 2.028 . S
O29 C32 1.250 1_556 S
O30 Mg31 2.028 . S
O30 C32 1.248 . S
Mg31 O30 2.028 . S
Mg31 O36 2.032 . S
Mg31 O38 2.079 . S
C32 O29 1.250 1_554 S
C32 O30 1.248 . S
C33 O34 1.264 . S
C33 O41 1.249 . S
O34 C33 1.264 . S
O35 Mg28 1.986 . S
O35 C39 1.246 . S
O36 Mg31 2.032 . S
O36 C39 1.259 1_554 S
O37 Mg28 2.114 . S
O37 C40 1.252 . S
O38 Mg28 2.251 1_554 S
O38 Mg31 2.079 . S
O38 C40 1.273 1_554 S
C39 O35 1.246 . S
C39 O36 1.259 1_556 S
C40 O37 1.252 . S
C40 O38 1.273 1_556 S
O41 Mg28 2.010 . S
O41 C33 1.249 . S
Mg42 O43 2.028 . S
Mg42 O49 1.986 . S
Mg42 O51 2.114 . S
Mg42 O52 2.251 . S
Mg42 O55 2.010 . S
O43 Mg42 2.028 . S
O43 C46 1.250 . S
O44 Mg45 2.028 . S
O44 C46 1.248 . S
Mg45 O44 2.028 . S
Mg45 O50 2.032 . S
Mg45 O52 2.079 . S
C46 O43 1.250 . S
C46 O44 1.248 . S
C47 O48 1.264 . S
C47 O55 1.249 . S
O48 C47 1.264 . S
O49 Mg42 1.986 . S
O49 C53 1.246 . S
O50 Mg45 2.032 . S
O50 C53 1.259 . S
O51 Mg42 2.114 . S
O51 C54 1.252 . S
O52 Mg42 2.251 . S
O52 Mg45 2.079 . S
O52 C54 1.273 . S
C53 O49 1.246 . S
C53 O50 1.259 . S
C54 O51 1.252 . S
C54 O52 1.273 . S
O55 Mg42 2.010 . S
O55 C47 1.249 . S
Mg56 O57 2.028 . S
Mg56 O63 1.986 . S
Mg56 O65 2.114 . S
Mg56 O66 2.251 . S
Mg56 O69 2.010 . S
O57 Mg56 2.028 . S
O57 C60 1.250 . S
O58 Mg59 2.028 . S
O58 C60 1.248 . S
Mg59 O58 2.028 . S
Mg59 O64 2.032 . S
Mg59 O66 2.079 . S
C60 O57 1.250 . S
C60 O58 1.248 . S
C61 O62 1.264 . S
C61 O69 1.249 . S
O62 C61 1.264 . S
O63 Mg56 1.986 . S
O63 C67 1.246 . S
O64 Mg59 2.032 . S
O64 C67 1.259 . S
O65 Mg56 2.114 . S
O65 C68 1.252 . S
O66 Mg56 2.251 . S
O66 Mg59 2.079 . S
O66 C68 1.273 . S
C67 O63 1.246 . S
C67 O64 1.259 . S
C68 O65 1.252 . S
C68 O66 1.273 . S
O69 Mg56 2.010 . S
O69 C61 1.249 . S
Mg70 O71 2.028 . S
Mg70 O77 1.986 . S
Mg70 O79 2.114 . S
Mg70 O80 2.251 1_556 S
Mg70 O83 2.010 . S
O71 Mg70 2.028 . S
O71 C74 1.250 1_556 S
O72 Mg73 2.028 . S
O72 C74 1.248 . S
Mg73 O72 2.028 . S
Mg73 O78 2.032 . S
Mg73 O80 2.079 . S
C74 O71 1.250 1_554 S
C74 O72 1.248 . S
C75 O76 1.264 . S
C75 O83 1.249 . S
O76 C75 1.264 . S
O77 Mg70 1.986 . S
O77 C81 1.246 . S
O78 Mg73 2.032 . S
O78 C81 1.259 1_554 S
O79 Mg70 2.114 . S
O79 C82 1.252 . S
O80 Mg70 2.251 1_554 S
O80 Mg73 2.079 . S
O80 C82 1.273 1_554 S
C81 O77 1.246 . S
C81 O78 1.259 1_556 S
C82 O79 1.252 . S
C82 O80 1.273 1_556 S
O83 Mg70 2.010 . S
O83 C75 1.249 . S
Mg84 O85 2.028 . S
Mg84 O91 1.986 . S
Mg84 O93 2.114 . S
Mg84 O94 2.251 . S
Mg84 O97 2.010 . S
O85 Mg84 2.028 . S
O85 C88 1.250 . S
O86 Mg87 2.028 . S
O86 C88 1.248 . S
Mg87 O86 2.028 . S
Mg87 O92 2.032 . S
Mg87 O94 2.079 . S
C88 O85 1.250 . S
C88 O86 1.248 . S
C89 O90 1.264 . S
C89 O97 1.249 . S
O90 C89 1.264 . S
O91 Mg84 1.986 . S
O91 C95 1.246 . S
O92 Mg87 2.032 . S
O92 C95 1.259 . S
O93 Mg84 2.114 . S
O93 C96 1.252 . S
O94 Mg84 2.251 . S
O94 Mg87 2.079 . S
O94 C96 1.273 . S
C95 O91 1.246 . S
C95 O92 1.259 . S
C96 O93 1.252 . S
C96 O94 1.273 . S
O97 Mg84 2.010 . S
O97 C89 1.249 . S
Mg98 O99 2.028 . S
Mg98 O105 1.986 . S
Mg98 O107 2.114 . S
Mg98 O108 2.251 . S
Mg98 O111 2.010 . S
O99 Mg98 2.028 . S
O99 C102 1.250 . S
O100 Mg101 2.028 . S
O100 C102 1.248 . S
Mg101 O100 2.028 . S
Mg101 O106 2.032 . S
Mg101 O108 2.079 . S
C102 O99 1.250 . S
C102 O100 1.248 . S
C103 O104 1.264 . S
C103 O111 1.249 . S
O104 C103 1.264 . S
O105 Mg98 1.986 . S
O105 C109 1.246 . S
O106 Mg101 2.032 . S
O106 C109 1.259 . S
O107 Mg98 2.114 . S
O107 C110 1.252 . S
O108 Mg98 2.251 . S
O108 Mg101 2.079 . S
O108 C110 1.273 . S
C109 O105 1.246 . S
C109 O106 1.259 . S
C110 O107 1.252 . S
C110 O108 1.273 . S
O111 Mg98 2.010 . S
O111 C103 1.249 . S
Mg112 O113 2.028 . S
Mg112 O119 1.986 . S
Mg112 O121 2.114 . S
Mg112 O122 2.251 1_554 S
Mg112 O125 2.010 . S
O113 Mg112 2.028 . S
O113 C116 1.250 1_554 S
O114 Mg115 2.028 . S
O114 C116 1.248 . S
Mg115 O114 2.028 . S
Mg115 O120 2.032 . S
Mg115 O122 2.079 . S
C116 O113 1.250 1_556 S
C116 O114 1.248 . S
C117 O118 1.264 . S
C117 O125 1.249 . S
O118 C117 1.264 . S
O119 Mg112 1.986 . S
O119 C123 1.246 . S
O120 Mg115 2.032 . S
O120 C123 1.259 1_556 S
O121 Mg112 2.114 . S
O121 C124 1.252 . S
O122 Mg112 2.251 1_556 S
O122 Mg115 2.079 . S
O122 C124 1.273 1_556 S
C123 O119 1.246 . S
C123 O120 1.259 1_554 S
C124 O121 1.252 . S
C124 O122 1.273 1_554 S
O125 Mg112 2.010 . S
O125 C117 1.249 . S
Mg126 O127 2.028 . S
Mg126 O133 1.986 . S
Mg126 O135 2.114 . S
Mg126 O136 2.251 . S
Mg126 O139 2.010 . S
O127 Mg126 2.028 . S
O127 C130 1.250 . S
O128 Mg129 2.028 . S
O128 C130 1.248 . S
Mg129 O128 2.028 . S
Mg129 O134 2.032 . S
Mg129 O136 2.079 . S
C130 O127 1.250 . S
C130 O128 1.248 . S
C131 O132 1.264 . S
C131 O139 1.249 . S
O132 C131 1.264 . S
O133 Mg126 1.986 . S
O133 C137 1.246 . S
O134 Mg129 2.032 . S
O134 C137 1.259 . S
O135 Mg126 2.114 . S
O135 C138 1.252 . S
O136 Mg126 2.251 . S
O136 Mg129 2.079 . S
O136 C138 1.273 . S
C137 O133 1.246 . S
C137 O134 1.259 . S
C138 O135 1.252 . S
C138 O136 1.273 . S
O139 Mg126 2.010 . S
O139 C131 1.249 . S
Mg140 O141 2.028 . S
Mg140 O147 1.986 . S
Mg140 O149 2.114 . S
Mg140 O150 2.251 . S
Mg140 O153 2.010 . S
O141 Mg140 2.028 . S
O141 C144 1.250 . S
O142 Mg143 2.028 . S
O142 C144 1.248 . S
Mg143 O142 2.028 . S
Mg143 O148 2.032 . S
Mg143 O150 2.079 . S
C144 O141 1.250 . S
C144 O142 1.248 . S
C145 O146 1.264 . S
C145 O153 1.249 . S
O146 C145 1.264 . S
O147 Mg140 1.986 . S
O147 C151 1.246 . S
O148 Mg143 2.032 . S
O148 C151 1.259 . S
O149 Mg140 2.114 . S
O149 C152 1.252 . S
O150 Mg140 2.251 . S
O150 Mg143 2.079 . S
O150 C152 1.273 . S
C151 O147 1.246 . S
C151 O148 1.259 . S
C152 O149 1.252 . S
C152 O150 1.273 . S
O153 Mg140 2.010 . S
O153 C145 1.249 . S
Mg154 O155 2.028 . S
Mg154 O161 1.986 . S
Mg154 O163 2.114 . S
Mg154 O164 2.251 1_554 S
Mg154 O167 2.010 . S
O155 Mg154 2.028 . S
O155 C158 1.250 1_554 S
O156 Mg157 2.028 . S
O156 C158 1.248 . S
Mg157 O156 2.028 . S
Mg157 O162 2.032 . S
Mg157 O164 2.079 . S
C158 O155 1.250 1_556 S
C158 O156 1.248 . S
C159 O160 1.264 . S
C159 O167 1.249 . S
O160 C159 1.264 . S
O161 Mg154 1.986 . S
O161 C165 1.246 . S
O162 Mg157 2.032 . S
O162 C165 1.259 1_556 S
O163 Mg154 2.114 . S
O163 C166 1.252 . S
O164 Mg154 2.251 1_556 S
O164 Mg157 2.079 . S
O164 C166 1.273 1_556 S
C165 O161 1.246 . S
C165 O162 1.259 1_554 S
C166 O163 1.252 . S
C166 O164 1.273 1_554 S
O167 Mg154 2.010 . S
O167 C159 1.249 . S
C168 C169 1.170 . S
C168 C170 1.380 . S
C169 C168 1.170 . S
C170 C168 1.380 . S
C170 C171 1.170 . S
C171 C170 1.170 . S
C172 C173 1.170 . S
C172 C174 1.380 1_655 S
C173 C172 1.170 . S
C174 C172 1.380 1_455 S
C174 C175 1.170 . S
C175 C174 1.170 . S
C176 C177 1.170 . S
C176 C178 1.380 1_566 S
C177 C176 1.170 . S
C178 C176 1.380 1_544 S
C178 C179 1.170 . S
C179 C178 1.170 . S
C180 C181 1.170 . S
C180 C182 1.380 . S
C181 C180 1.170 . S
C182 C180 1.380 . S
C182 C183 1.170 . S
C183 C182 1.170 . S
C184 C185 1.170 . S
C184 C186 1.380 1_655 S
C185 C184 1.170 . S
C186 C184 1.380 1_455 S
C186 C187 1.170 . S
C187 C186 1.170 . S
C188 C189 1.170 . S
C188 C190 1.380 1_564 S
C189 C188 1.170 . S
C190 C188 1.380 1_546 S
C190 C191 1.170 . S
C191 C190 1.170 . S
C192 C193 1.170 . S
C192 C194 1.380 1_556 S
C193 C192 1.170 . S
C194 C192 1.380 1_554 S
C194 C195 1.170 . S
C195 C194 1.170 . S
C196 C197 1.170 . S
C196 C198 1.380 . S
C197 C196 1.170 . S
C198 C196 1.380 . S
C198 C199 1.170 . S
C199 C198 1.170 . S
C200 C201 1.170 . S
C200 C202 1.380 . S
C201 C200 1.170 . S
C202 C200 1.380 . S
C202 C203 1.170 . S
C203 C202 1.170 . S
C204 C205 1.170 . S
C204 C206 1.380 1_554 S
C205 C204 1.170 . S
C206 C204 1.380 1_556 S
C206 C207 1.170 . S
C207 C206 1.170 . S
C208 C209 1.170 . S
C208 C210 1.380 . S
C209 C208 1.170 . S
C210 C208 1.380 . S
C210 C211 1.170 . S
C211 C210 1.170 . S
C212 C213 1.170 . S
C212 C214 1.380 . S
C213 C212 1.170 . S
C214 C212 1.380 . S
C214 C215 1.170 . S
C215 C214 1.170 . S
C216 C217 1.170 . S
C216 C218 1.380 . S
C217 C216 1.170 . S
C218 C216 1.380 . S
C218 C219 1.170 . S
C219 C218 1.170 . S
C220 C221 1.170 . S
C220 C222 1.380 . S
C221 C220 1.170 . S
C222 C220 1.380 . S
C222 C223 1.170 . S
C223 C222 1.170 . S
C224 C225 1.170 . S
C224 C226 1.380 . S
C225 C224 1.170 . S
C226 C224 1.380 . S
C226 C227 1.170 . S
C227 C226 1.170 . S
C228 C229 1.170 . S
C228 C230 1.380 . S
C229 C228 1.170 . S
C230 C228 1.380 . S
C230 C231 1.170 . S
C231 C230 1.170 . S
C232 C233 1.170 . S
C232 C234 1.380 . S
C233 C232 1.170 . S
C234 C232 1.380 . S
C234 C235 1.170 . S
C235 C234 1.170 . S
C236 C237 1.170 . S
C236 C238 1.380 . S
C237 C236 1.170 . S
C238 C236 1.380 . S
C238 C239 1.170 . S
C239 C238 1.170 . S
C240 C241 1.170 . S
C240 C242 1.380 . S
C241 C240 1.170 . S
C242 C240 1.380 . S
C242 C243 1.170 . S
C243 C242 1.170 . S
C244 C245 1.170 . S
C244 C246 1.380 . S
C245 C244 1.170 . S
C246 C244 1.380 . S
C246 C247 1.170 . S
C247 C246 1.170 . S
C248 C249 1.170 . S
C248 C250 1.380 1_556 S
C249 C248 1.170 . S
C250 C248 1.380 1_554 S
C250 C251 1.170 . S
C251 C250 1.170 . S
C252 C253 1.170 . S
C252 C254 1.380 . S
C253 C252 1.170 . S
C254 C252 1.380 . S
C254 C255 1.170 . S
C255 C254 1.170 . S
C256 C257 1.170 . S
C256 C258 1.380 . S
C257 C256 1.170 . S
C258 C256 1.380 . S
C258 C259 1.170 . S
C259 C258 1.170 . S
C260 C261 1.170 . S
C260 C262 1.380 1_554 S
C261 C260 1.170 . S
C262 C260 1.380 1_556 S
C262 C263 1.170 . S
C263 C262 1.170 . S
C169 C11 1.370 . S
C171 C137 1.388 . S
C173 C25 1.377 . S
C175 C151 1.396 . S
C177 C39 1.401 . S
C179 C165 1.388 . S
C181 C53 1.361 . S
C183 C95 1.373 . S
C185 C109 1.402 . S
C187 C67 1.396 . S
C189 C123 1.400 . S
C191 C81 1.385 . S
C193 C145 1.294 . S
C195 C5 1.223 . S
C197 C19 1.292 . S
C199 C159 1.266 . S
C201 C33 1.217 . S
C203 C89 1.275 . S
C205 C47 1.230 . S
C207 C103 1.299 . S
C209 C61 1.237 . S
C211 C117 1.238 . S
C213 C75 1.217 . S
C215 C131 1.285 . S
C217 C144 1.150 . S
C219 C4 1.119 . S
C221 C18 1.161 . S
C223 C158 1.110 . S
C225 C32 1.118 . S
C227 C88 1.155 . S
C229 C46 1.136 . S
C231 C102 1.133 . S
C233 C60 1.110 . S
C235 C116 1.162 . S
C237 C74 1.126 . S
C239 C130 1.144 . S
C241 C12 1.558 . S
C243 C96 1.558 . S
C245 C110 1.554 . S
C247 C26 1.554 . S
C249 C40 1.551 . S
C251 C124 1.550 . S
C253 C54 1.550 . S
C255 C138 1.551 . S
C257 C68 1.557 . S
C259 C152 1.557 . S
C261 C166 1.558 . S
C263 C82 1.558 . S
