# Generated by pormake.
# Topology qtz-x, (6)-cn, num edge types: 1
# Building blocks:
#     Node 0, Type 0, BuildingBlock: NUHQIS_clean_sbu_0, # of connection points: 6
#     Node 1, Type 0, BuildingBlock: NUHQIS_clean_sbu_0, # of connection points: 6
#     Node 2, Type 0, BuildingBlock: NUHQIS_clean_sbu_0, # of connection points: 6
#     Edge 3, Type (0, 0), BuildingBlock: KIFKEQ_clean_linker_1, # of connection points: 2
#     Edge 4, Type (0, 0), BuildingBlock: KIFKEQ_clean_linker_1, # of connection points: 2
#     Edge 5, Type (0, 0), BuildingBlock: KIFKEQ_clean_linker_1, # of connection points: 2
#     Edge 6, Type (0, 0), BuildingBlock: KIFKEQ_clean_linker_1, # of connection points: 2
#     Edge 7, Type (0, 0), BuildingBlock: KIFKEQ_clean_linker_1, # of connection points: 2
#     Edge 8, Type (0, 0), BuildingBlock: KIFKEQ_clean_linker_1, # of connection points: 2
#     Edge 9, Type (0, 0), BuildingBlock: KIFKEQ_clean_linker_1, # of connection points: 2
#     Edge 10, Type (0, 0), BuildingBlock: KIFKEQ_clean_linker_1, # of connection points: 2
#     Edge 11, Type (0, 0), BuildingBlock: KIFKEQ_clean_linker_1, # of connection points: 2
# Relax obj value: 0.236
# Max RMSD: 0.261
# Mean RMSD: 0.244
data_MOF--net-qtz-x--node1-NUHQIS_clean_sbu_0--edge1-KIFKEQ_clean_linker_1
_symmetry_space_group_name_H-M    P1
_symmetry_Int_Tables_number       1
_symmetry_cell_setting            triclinic
loop_
_symmetry_equiv_pos_as_xyz
'x, y, z'
_cell_length_a     15.47009
_cell_length_b     15.495962
_cell_length_c     53.475964
_cell_angle_alpha  67.765327
_cell_angle_beta   115.12021
_cell_angle_gamma 120.73566
loop_
_atom_site_label
_atom_site_type_symbol
_atom_site_fract_x
_atom_site_fract_y
_atom_site_fract_z
_atom_type_partial_charge
Tb0 Tb 1.00642 0.56735 0.21014 0.0
Eu1 Eu 0.234 0.70353 0.19532 0.0
C2 C 0.11117 0.8079 0.19996 0.0
C3 C 1.01271 0.64321 0.14648 0.0
C4 C 0.82913 0.44217 0.2547 0.0
C5 C 0.88603 0.48913 0.29956 0.0
C6 C 0.89575 0.51257 0.27261 0.0
C7 C 0.75236 0.34845 0.26407 0.0
C8 C 0.74305 0.32455 0.29107 0.0
C9 C 0.81027 0.39417 0.30935 0.0
C10 C 0.84548 0.46127 0.22748 0.0
O11 O 1.02883 0.46825 0.19575 0.0
O12 O 0.2077 0.53726 0.21176 0.0
O13 O 0.27335 0.70804 0.24039 0.0
O14 O 0.1297 0.56192 0.25003 0.0
C15 C 0.11776 0.46041 0.20383 0.0
O16 O 0.3653 0.70545 0.18889 0.0
O17 O 0.36075 0.8487 0.18342 0.0
O18 O 0.16139 0.81199 0.1847 0.0
O19 O 0.06544 0.72145 0.21625 0.0
O20 O 0.9593 0.61686 0.16396 0.0
O21 O 0.11258 0.66272 0.15487 0.0
C22 C 0.22284 0.63531 0.25838 0.0
O23 O 0.86702 0.55419 0.21215 0.0
O24 O 0.90675 0.42461 0.2287 0.0
C25 C 0.42082 0.83665 0.15129 0.0
C26 C 0.43828 0.87397 0.09734 0.0
C27 C 0.50831 0.84245 0.12182 0.0
C28 C 0.49977 0.82423 0.14854 0.0
C29 C 0.35202 0.87025 0.12689 0.0
C30 C 0.36126 0.88955 0.10016 0.0
C31 C 0.40439 0.80422 0.17924 0.0
H32 H 0.93841 0.54539 0.31274 0.0
H33 H 0.95666 0.58496 0.26597 0.0
H34 H 0.70134 0.29237 0.25076 0.0
H35 H 0.68519 0.24991 0.29789 0.0
H36 H 0.56897 0.83063 0.12028 0.0
H37 H 0.55297 0.79753 0.16704 0.0
H38 H 0.28919 0.87873 0.1284 0.0
H39 H 0.30559 0.91274 0.08166 0.0
Tb40 Tb 0.87697 0.1624 0.57533 0.0
Eu41 Eu 0.73332 0.93088 0.56117 0.0
C42 C 0.98033 0.0466 0.56947 0.0
C43 C 0.78991 0.13523 0.512 0.0
C44 C 1.00856 0.35282 0.61883 0.0
C45 C 0.111 0.46637 0.65204 0.0
C46 C 0.08689 0.44707 0.62579 0.0
C47 C 0.95429 0.27801 0.63833 0.0
C48 C 0.9784 0.29705 0.66456 0.0
C49 C 0.05733 0.39136 0.6718 0.0
C50 C 0.98804 0.32924 0.59218 0.0
O51 O 0.7246 0.10875 0.58092 0.0
O52 O 0.62452 0.005 0.54893 0.0
O53 O 0.73927 0.91118 0.60581 0.0
O54 O 0.89472 0.05203 0.61515 0.0
C55 C 0.63306 0.05924 0.5643 0.0
O56 O 0.58066 0.80832 0.54629 0.0
O57 O 0.72232 0.78823 0.55847 0.0
O58 O 0.9045 -0.04047 0.57685 0.0
O59 O 0.972 0.13365 0.56179 0.0
O60 O 0.81923 0.19435 0.52915 0.0
O61 O 0.76837 0.03686 0.52085 0.0
C62 C 0.8198 -0.03327 0.62374 0.0
O63 O 1.02492 0.26615 0.59487 0.0
O64 O 0.89178 0.30477 0.5756 0.0
C65 C 0.58861 0.73012 0.51788 0.0
C66 C 0.51497 0.69714 0.46263 0.0
C67 C 0.45687 0.63063 0.48206 0.0
C68 C 0.49337 0.64721 0.50944 0.0
C69 C 0.64787 0.79519 0.49878 0.0
C70 C 0.6117 0.77867 0.47152 0.0
C71 C 0.62181 0.75446 0.54552 0.0
H72 H 0.173 0.53932 0.65706 0.0
H73 H 0.13036 0.50511 0.61109 0.0
H74 H 0.89386 0.20442 0.63335 0.0
H75 H 0.93453 0.23815 0.67907 0.0
H76 H 0.38156 0.56779 0.47584 0.0
H77 H 0.44598 0.5969 0.52378 0.0
H78 H 0.72137 0.86017 0.50476 0.0
H79 H 0.6593 0.83044 0.45731 0.0
Tb80 Tb 0.80635 0.84602 0.8757 0.0
Eu81 Eu 0.94776 0.71592 0.89406 0.0
C82 C 1.04745 -0.04471 0.88716 0.0
C83 C 0.85741 0.81465 0.82898 0.0
C84 C 0.64095 0.93469 0.88276 0.0
C85 C 0.57691 0.01593 0.89772 0.0
C86 C 0.62236 0.01845 0.87953 0.0
C87 C 0.61158 0.84753 0.90397 0.0
C88 C 0.56599 0.84476 0.92202 0.0
C89 C 0.54938 0.92941 0.91941 0.0
C90 C 0.69958 0.94145 0.86595 0.0
O91 O 0.71002 0.68592 0.88902 0.0
O92 O 0.77858 0.61724 0.87529 0.0
O93 O 0.90639 0.68362 0.9332 0.0
O94 O 0.86989 0.82295 0.92172 0.0
C95 C 0.70133 0.61042 0.88132 0.0
O96 O 0.96157 0.57248 0.90332 0.0
O97 O 0.10044 0.71597 0.90487 0.0
O98 O 0.05336 0.8713 0.90488 0.0
O99 O 0.9578 -0.04591 0.86889 0.0
O100 O 0.78892 0.82242 0.83559 0.0
O101 O 0.93471 0.79199 0.84833 0.0
C102 C 0.88879 0.74479 0.94018 0.0
O103 O 0.80112 -0.02348 0.87734 0.0
O104 O 0.66313 0.86054 0.85595 0.0
C105 C 0.08974 0.59508 0.88584 0.0
C106 C 0.12899 0.54273 0.84781 0.0
C107 C 0.11675 0.47579 0.87384 0.0
C108 C 0.09748 0.50197 0.89275 0.0
C109 C 0.10356 0.66257 0.86006 0.0
C110 C 0.12337 0.63688 0.84131 0.0
C111 C 0.06081 0.61907 0.90455 0.0
H112 H 0.56476 0.08215 0.89508 0.0
H113 H 0.64546 0.08675 0.86344 0.0
H114 H 0.6269 0.7827 0.90714 0.0
H115 H 0.54789 0.77779 0.93882 0.0
H116 H 0.12102 0.4029 0.87944 0.0
H117 H 0.08654 0.44869 0.91248 0.0
H118 H 0.09667 0.73435 0.85407 0.0
H119 H 0.13033 0.68926 0.82122 0.0
H120 H 0.99991 0.82685 0.22453 0.0
H121 H 0.22032 0.0057 0.17531 0.0
H122 H 1.00154 -0.01613 0.22548 0.0
H123 H 0.22133 0.16262 0.17618 0.0
H124 H 0.28511 0.42493 0.21189 0.0
H125 H 0.28236 0.26766 0.21063 0.0
H126 H 0.94483 0.12136 0.19321 0.0
H127 H 0.94738 0.27822 0.19462 0.0
C128 C 1.04849 0.89954 0.21383 0.0
C129 C 0.11004 0.90343 0.19986 0.0
C130 C 1.04899 -0.01041 0.21426 0.0
C131 C 0.1117 0.08591 0.20095 0.0
C132 C 0.17306 0.08981 0.18692 0.0
C133 C 0.1719 -0.00032 0.18627 0.0
C134 C 0.21027 0.35922 0.20785 0.0
C135 C 0.11648 0.36439 0.20339 0.0
C136 C 0.20867 0.26923 0.20694 0.0
C137 C 0.11336 0.18188 0.20178 0.0
C138 C 1.01968 0.18687 0.1975 0.0
C139 C 1.02116 0.27709 0.19817 0.0
H140 H 0.62119 0.17375 0.59008 0.0
H141 H 0.42754 0.94324 0.53904 0.0
H142 H 0.46364 0.16898 0.59172 0.0
H143 H 0.27001 0.9392 0.54057 0.0
H144 H 1.01737 0.88197 0.57677 0.0
H145 H 0.17493 0.88522 0.57535 0.0
H146 H 0.3167 0.2164 0.55951 0.0
H147 H 0.16031 0.21345 0.56114 0.0
C148 C 0.5451 0.12238 0.5791 0.0
C149 C 0.53716 0.05903 0.56438 0.0
C150 C 0.45477 0.11995 0.57996 0.0
C151 C 0.35428 0.05361 0.56631 0.0
C152 C 0.34626 -0.00969 0.55157 0.0
C153 C 0.43664 -0.00672 0.55051 0.0
C154 C 0.08228 -0.04456 0.57308 0.0
C155 C 0.07612 0.0474 0.56911 0.0
C156 C 0.17226 -0.04269 0.57207 0.0
C157 C 0.25834 0.0511 0.56732 0.0
C158 C 0.25228 0.14287 0.56352 0.0
C159 C 0.16223 0.14108 0.56432 0.0
H160 H 0.06149 0.14495 0.85586 0.0
H161 H 0.25056 -0.01746 0.91682 0.0
H162 H 0.22004 0.30285 0.85351 0.0
H163 H 0.40926 0.14153 0.91464 0.0
H164 H 0.51571 0.58153 0.88351 0.0
H165 H 0.35795 0.42222 0.88503 0.0
H166 H 0.51035 0.26345 0.87988 0.0
H167 H 0.6692 0.42321 0.87854 0.0
C168 C 0.13678 0.14296 0.86885 0.0
C169 C 0.14353 0.05133 0.88657 0.0
C170 C 0.22744 0.23352 0.86755 0.0
C171 C 0.32662 0.23419 0.88389 0.0
C172 C 0.33365 0.14271 0.90162 0.0
C173 C 0.2428 0.05202 0.90302 0.0
C174 C 0.51564 0.51275 0.88265 0.0
C175 C 0.6048 0.51467 0.88096 0.0
C176 C 0.42513 0.42172 0.88338 0.0
C177 C 0.42227 0.33069 0.88264 0.0
C178 C 0.51108 0.33253 0.88077 0.0
C179 C 0.60153 0.42398 0.87979 0.0
H180 H 0.39325 0.77207 0.94224 0.0
H181 H 0.61989 0.08614 0.94508 0.0
H182 H 0.35319 0.76173 0.98305 0.0
H183 H 0.5788 0.07592 0.9857 0.0
H184 H 0.43199 0.03181 1.05131 0.0
H185 H 0.44154 0.04974 1.00484 0.0
H186 H 0.46313 0.75893 1.03324 0.0
H187 H 0.45282 0.74088 0.0793 0.0
C188 C 0.43374 0.83923 0.95139 0.0
C189 C 0.51126 0.92926 0.94073 0.0
C190 C 0.41071 0.83331 0.97473 0.0
C191 C 0.46423 0.91741 0.98789 0.0
C192 C 0.53607 0.00989 0.97599 0.0
C193 C 0.55949 0.01573 0.95267 0.0
C194 C 0.43801 -0.02842 1.04746 0.0
C195 C 0.44246 0.8853 0.06897 0.0
C196 C 0.44389 -0.01799 1.02095 0.0
C197 C 0.45253 0.90551 1.01534 0.0
C198 C 0.4551 0.81858 1.03676 0.0
C199 C 0.45052 0.80879 0.06326 0.0
H200 H 0.88649 0.33735 0.48707 0.0
H201 H 0.68364 0.03479 0.46842 0.0
H202 H 0.88848 0.40729 0.4377 0.0
H203 H 0.68535 0.10458 0.41939 0.0
H204 H 0.63383 0.28125 0.32781 0.0
H205 H 0.62466 0.22462 0.37617 0.0
H206 H 0.96129 0.38844 0.4061 0.0
H207 H 0.97166 0.44239 0.35793 0.0
C208 C 0.8414 0.28605 0.47242 0.0
C209 C 0.78513 0.18048 0.48174 0.0
C210 C 0.84313 0.32597 0.44421 0.0
C211 C 0.78712 0.26145 0.42464 0.0
C212 C 0.72855 0.15651 0.43384 0.0
C213 C 0.7281 0.11645 0.46203 0.0
C214 C 0.70623 0.30481 0.34463 0.0
C215 C 0.80362 0.36599 0.33874 0.0
C216 C 0.70074 0.27267 0.37237 0.0
C217 C 0.79224 0.30188 0.39497 0.0
C218 C 0.88922 0.36564 0.38911 0.0
C219 C 0.89497 0.39681 0.3614 0.0
H220 H 1.00172 0.8373 0.80763 0.0
H221 H 0.69474 0.83369 0.78181 0.0
H222 H 0.9907 0.86848 0.75847 0.0
H223 H 0.68409 0.86512 0.73232 0.0
H224 H 0.66653 0.81714 0.64907 0.0
H225 H 0.67296 0.77798 0.69853 0.0
H226 H 0.99068 0.01188 0.71633 0.0
H227 H 0.98477 0.05091 0.66721 0.0
C228 C 0.93164 0.84297 0.7915 0.0
C229 C 0.84915 0.83318 0.79879 0.0
C230 C 0.92566 0.86135 0.76325 0.0
C231 C 0.83666 0.8695 0.74146 0.0
C232 C 0.7534 0.85843 0.74865 0.0
C233 C 0.75984 0.8411 0.777 0.0
C234 C 0.73815 0.85942 0.6636 0.0
C235 C 0.82538 0.93663 0.65412 0.0
C236 C 0.74142 0.83761 0.69188 0.0
C237 C 0.83235 0.89174 0.71137 0.0
C238 C 0.91988 -0.03209 0.70195 0.0
C239 C 0.91632 -0.00966 0.67371 0.0
H240 H 0.85966 0.85582 0.96311 0.0
H241 H 0.9216 0.59033 0.98452 0.0
H242 H 0.86731 0.82725 1.01197 0.0
H243 H 0.92962 0.5624 1.03337 0.0
H244 H 0.86798 0.49458 0.11597 0.0
H245 H 0.82249 0.51519 0.06469 0.0
H246 H 1.00996 0.84204 0.05728 0.0
H247 H 0.05502 0.82066 0.10822 0.0
C248 C 0.87483 0.7913 0.97817 0.0
C249 C 0.89113 0.72604 0.96984 0.0
C250 C 0.87909 0.77494 1.0062 0.0
C251 C 0.89892 0.69248 1.02658 0.0
C252 C 0.91273 0.6258 1.01813 0.0
C253 C 0.90912 0.64248 0.99014 0.0
C254 C 0.89596 0.57092 0.1031 0.0
C255 C 0.96301 0.65637 0.11577 0.0
C256 C 0.87133 0.58272 0.07388 0.0
C257 C 0.91292 0.68028 0.0569 0.0
C258 C 0.9755 0.76611 0.0696 0.0
C259 C 1.00106 0.75406 0.09875 0.0
H260 H 0.41759 0.76705 0.28457 0.0
H261 H 0.1344 0.5091 0.30133 0.0
H262 H 0.49007 0.7777 0.33416 0.0
H263 H 0.20641 0.5211 0.35081 0.0
H264 H 0.41205 0.51813 0.4433 0.0
H265 H 0.34433 0.49865 0.39441 0.0
H266 H 0.45634 0.82775 0.36599 0.0
H267 H 0.52317 0.84723 0.41461 0.0
C268 C 0.37094 0.71226 0.29881 0.0
C269 C 0.27016 0.63723 0.2889 0.0
C270 C 0.41227 0.71881 0.32724 0.0
C271 C 0.35383 0.65062 0.34644 0.0
C272 C 0.25401 0.57408 0.33666 0.0
C273 C 0.21262 0.56748 0.30823 0.0
C274 C 0.42161 0.58623 0.42659 0.0
C275 C 0.47366 0.68427 0.43294 0.0
C276 C 0.3829 0.57507 0.39858 0.0
C277 C 0.39552 0.66169 0.37629 0.0
C278 C 0.44719 0.75954 0.38266 0.0
C279 C 0.48559 0.77068 0.41059 0.0
H280 H 0.26208 0.6606 0.8149 0.0
H281 H 1.01955 0.35723 0.83206 0.0
H282 H 0.25893 0.62103 0.77442 0.0
H283 H 1.01579 0.31773 0.7915 0.0
H284 H 0.0723 0.25987 0.72356 0.0
H285 H 0.10602 0.29172 0.76892 0.0
H286 H 0.13217 0.60042 0.72831 0.0
H287 H 0.09852 0.5687 0.68316 0.0
C288 C 0.20876 0.58513 0.81015 0.0
C289 C 0.13988 0.51264 0.82638 0.0
C290 C 0.20675 0.56252 0.78693 0.0
C291 C 0.13567 0.46695 0.77938 0.0
C292 C 0.07172 0.39201 0.79675 0.0
C293 C 0.07387 0.41462 0.82003 0.0
C294 C 0.08511 0.33449 0.72434 0.0
C295 C 0.08245 0.41171 0.69969 0.0
C296 C 0.10465 0.35275 0.75035 0.0
C297 C 0.12216 0.44869 0.7523 0.0
C298 C 0.12116 0.52629 0.72772 0.0
C299 C 0.10162 0.50806 0.70177 0.0
loop_
_geom_bond_atom_site_label_1
_geom_bond_atom_site_label_2
_geom_bond_distance
_geom_bond_site_symmetry_2
_ccdc_geom_bond_type
Tb0 C10 2.825 . S
Tb0 O11 2.347 . S
Tb0 O14 2.366 1_655 S
Tb0 O19 2.418 . S
Tb0 O20 2.384 . S
Tb0 O23 2.479 . S
Tb0 O24 2.471 . S
Eu1 O12 2.418 . S
Eu1 O13 2.384 . S
Eu1 O16 2.479 . S
Eu1 O17 2.471 . S
Eu1 O18 2.347 . S
Eu1 O21 2.366 1_455 S
Eu1 C31 2.825 . S
C2 O18 1.259 1_655 S
C2 O19 1.265 . S
C3 O20 1.255 . S
C3 O21 1.265 . S
C4 C6 1.380 . S
C4 C7 1.374 . S
C4 C10 1.507 . S
C5 C6 1.384 . S
C5 C9 1.387 . S
C5 H32 0.930 . S
C6 C4 1.380 . S
C6 C5 1.384 . S
C6 H33 0.931 . S
C7 C4 1.374 . S
C7 C8 1.390 . S
C7 H34 0.930 . S
C8 C7 1.390 . S
C8 C9 1.391 . S
C8 H35 0.930 . S
C9 C5 1.387 . S
C9 C8 1.391 . S
C10 Tb0 2.825 . S
C10 C4 1.507 . S
C10 O23 1.238 . S
C10 O24 1.247 . S
O11 Tb0 2.347 . S
O11 C15 1.259 1_655 S
O12 Eu1 2.418 . S
O12 C15 1.265 . S
O13 Eu1 2.384 . S
O13 C22 1.255 . S
O14 Tb0 2.366 1_455 S
O14 C22 1.265 . S
C15 O11 1.259 1_455 S
C15 O12 1.265 . S
O16 Eu1 2.479 . S
O16 C31 1.238 . S
O17 Eu1 2.471 . S
O17 C31 1.247 . S
O18 Eu1 2.347 . S
O18 C2 1.259 1_455 S
O19 Tb0 2.418 . S
O19 C2 1.265 . S
O20 Tb0 2.384 . S
O20 C3 1.255 . S
O21 Eu1 2.366 1_655 S
O21 C3 1.265 . S
C22 O13 1.255 . S
C22 O14 1.265 . S
O23 Tb0 2.479 . S
O23 C10 1.238 . S
O24 Tb0 2.471 . S
O24 C10 1.247 . S
C25 C28 1.380 . S
C25 C29 1.374 . S
C25 C31 1.507 . S
C26 C27 1.387 . S
C26 C30 1.391 1_565 S
C27 C26 1.387 . S
C27 C28 1.384 . S
C27 H36 0.930 . S
C28 C25 1.380 . S
C28 C27 1.384 . S
C28 H37 0.931 . S
C29 C25 1.374 . S
C29 C30 1.390 1_565 S
C29 H38 0.930 . S
C30 C26 1.391 1_545 S
C30 C29 1.390 1_545 S
C30 H39 0.930 . S
C31 Eu1 2.825 . S
C31 O16 1.238 . S
C31 O17 1.247 . S
C31 C25 1.507 . S
H32 C5 0.930 . S
H33 C6 0.931 . S
H34 C7 0.930 . S
H35 C8 0.930 . S
H36 C27 0.930 . S
H37 C28 0.931 . S
H38 C29 0.930 . S
H39 C30 0.930 . S
Tb40 C50 2.825 . S
Tb40 O51 2.347 . S
Tb40 O54 2.366 . S
Tb40 O59 2.418 . S
Tb40 O60 2.384 . S
Tb40 O63 2.479 . S
Tb40 O64 2.471 . S
Eu41 O52 2.418 . S
Eu41 O53 2.384 . S
Eu41 O56 2.479 . S
Eu41 O57 2.471 . S
Eu41 O58 2.347 . S
Eu41 O61 2.367 . S
Eu41 C71 2.825 . S
C42 O58 1.259 1_545 S
C42 O59 1.265 . S
C43 O60 1.255 . S
C43 O61 1.263 1_545 S
C44 C46 1.380 1_655 S
C44 C47 1.374 . S
C44 C50 1.507 . S
C45 C46 1.384 . S
C45 C49 1.387 1_455 S
C45 H72 0.930 . S
C46 C44 1.380 1_455 S
C46 C45 1.384 . S
C46 H73 0.931 . S
C47 C44 1.374 . S
C47 C48 1.390 . S
C47 H74 0.930 . S
C48 C47 1.390 . S
C48 C49 1.391 . S
C48 H75 0.930 . S
C49 C45 1.387 1_655 S
C49 C48 1.391 . S
C50 Tb40 2.825 . S
C50 C44 1.507 . S
C50 O63 1.238 . S
C50 O64 1.247 . S
O51 Tb40 2.347 . S
O51 C55 1.259 1_545 S
O52 Eu41 2.418 . S
O52 C55 1.265 . S
O53 Eu41 2.384 . S
O53 C62 1.255 . S
O54 Tb40 2.366 . S
O54 C62 1.265 1_545 S
C55 O51 1.259 1_565 S
C55 O52 1.265 . S
O56 Eu41 2.479 . S
O56 C71 1.238 . S
O57 Eu41 2.471 . S
O57 C71 1.247 . S
O58 Eu41 2.347 . S
O58 C42 1.259 1_565 S
O59 Tb40 2.418 . S
O59 C42 1.265 . S
O60 Tb40 2.384 . S
O60 C43 1.255 . S
O61 Eu41 2.367 . S
O61 C43 1.263 1_565 S
C62 O53 1.255 . S
C62 O54 1.265 1_565 S
O63 Tb40 2.479 . S
O63 C50 1.238 . S
O64 Tb40 2.471 . S
O64 C50 1.247 . S
C65 C68 1.380 . S
C65 C69 1.374 . S
C65 C71 1.507 . S
C66 C67 1.387 . S
C66 C70 1.391 . S
C67 C66 1.387 . S
C67 C68 1.384 . S
C67 H76 0.930 . S
C68 C65 1.380 . S
C68 C67 1.384 . S
C68 H77 0.931 . S
C69 C65 1.374 . S
C69 C70 1.390 . S
C69 H78 0.930 . S
C70 C66 1.391 . S
C70 C69 1.390 . S
C70 H79 0.930 . S
C71 Eu41 2.825 . S
C71 O56 1.238 . S
C71 O57 1.247 . S
C71 C65 1.507 . S
H72 C45 0.930 . S
H73 C46 0.931 . S
H74 C47 0.930 . S
H75 C48 0.930 . S
H76 C67 0.930 . S
H77 C68 0.931 . S
H78 C69 0.930 . S
H79 C70 0.930 . S
Tb80 C90 2.825 . S
Tb80 O91 2.347 1_545 S
Tb80 O94 2.366 1_545 S
Tb80 O99 2.418 1_655 S
Tb80 O100 2.384 1_545 S
Tb80 O103 2.479 . S
Tb80 O104 2.471 1_545 S
Eu81 O92 2.418 . S
Eu81 O93 2.384 . S
Eu81 O96 2.479 . S
Eu81 O97 2.471 1_655 S
Eu81 O98 2.347 1_655 S
Eu81 O101 2.366 . S
Eu81 C111 2.825 1_655 S
C82 O98 1.259 1_545 S
C82 O99 1.265 . S
C83 O100 1.255 . S
C83 O101 1.265 . S
C84 C86 1.380 . S
C84 C87 1.374 1_545 S
C84 C90 1.507 . S
C85 C86 1.384 . S
C85 C89 1.387 . S
C85 H112 0.930 . S
C86 C84 1.380 . S
C86 C85 1.384 . S
C86 H113 0.931 . S
C87 C84 1.374 1_565 S
C87 C88 1.390 . S
C87 H114 0.930 . S
C88 C87 1.390 . S
C88 C89 1.391 1_565 S
C88 H115 0.930 . S
C89 C85 1.387 . S
C89 C88 1.391 1_545 S
C90 Tb80 2.825 . S
C90 C84 1.507 . S
C90 O103 1.238 . S
C90 O104 1.247 1_545 S
O91 Tb80 2.347 1_565 S
O91 C95 1.259 . S
O92 Eu81 2.418 . S
O92 C95 1.265 . S
O93 Eu81 2.384 . S
O93 C102 1.255 . S
O94 Tb80 2.366 1_565 S
O94 C102 1.265 . S
C95 O91 1.259 . S
C95 O92 1.265 . S
O96 Eu81 2.479 . S
O96 C111 1.238 1_655 S
O97 Eu81 2.471 1_455 S
O97 C111 1.247 . S
O98 Eu81 2.347 1_455 S
O98 C82 1.259 1_565 S
O99 Tb80 2.418 1_455 S
O99 C82 1.265 . S
O100 Tb80 2.384 1_565 S
O100 C83 1.255 . S
O101 Eu81 2.366 . S
O101 C83 1.265 . S
C102 O93 1.255 . S
C102 O94 1.265 . S
O103 Tb80 2.479 . S
O103 C90 1.238 . S
O104 Tb80 2.471 1_565 S
O104 C90 1.247 1_565 S
C105 C108 1.380 . S
C105 C109 1.374 . S
C105 C111 1.507 . S
C106 C107 1.387 . S
C106 C110 1.391 . S
C107 C106 1.387 . S
C107 C108 1.384 . S
C107 H116 0.930 . S
C108 C105 1.380 . S
C108 C107 1.384 . S
C108 H117 0.931 1_455 S
C109 C105 1.374 . S
C109 C110 1.390 . S
C109 H118 0.930 . S
C110 C106 1.391 . S
C110 C109 1.390 . S
C110 H119 0.930 . S
C111 Eu81 2.825 1_455 S
C111 O96 1.238 1_455 S
C111 O97 1.247 . S
C111 C105 1.507 . S
H112 C85 0.930 . S
H113 C86 0.931 . S
H114 C87 0.930 . S
H115 C88 0.930 . S
H116 C107 0.930 . S
H117 C108 0.931 1_655 S
H118 C109 0.930 . S
H119 C110 0.930 . S
H120 C128 0.950 . S
H121 C133 0.950 . S
H122 C130 0.950 . S
H123 C132 0.950 . S
H124 C134 0.950 . S
H125 C136 0.950 . S
H126 C138 0.950 . S
H127 C139 0.950 . S
C128 H120 0.950 . S
C128 C129 1.386 1_655 S
C128 C130 1.391 1_565 S
C129 C128 1.386 1_455 S
C129 C133 1.393 1_565 S
C130 H122 0.950 . S
C130 C128 1.391 1_545 S
C130 C131 1.400 1_655 S
C131 C130 1.400 1_455 S
C131 C132 1.398 . S
C131 C137 1.491 1_455 S
C132 H123 0.950 . S
C132 C131 1.398 . S
C132 C133 1.391 . S
C133 H121 0.950 . S
C133 C129 1.393 1_545 S
C133 C132 1.391 . S
C134 H124 0.950 . S
C134 C135 1.386 1_455 S
C134 C136 1.391 . S
C135 C134 1.386 1_655 S
C135 C139 1.393 . S
C136 H125 0.950 . S
C136 C134 1.391 . S
C136 C137 1.400 1_455 S
C137 C131 1.491 1_655 S
C137 C136 1.400 1_655 S
C137 C138 1.398 . S
C138 H126 0.950 . S
C138 C137 1.398 . S
C138 C139 1.391 . S
C139 H127 0.950 . S
C139 C135 1.393 . S
C139 C138 1.391 . S
H140 C148 0.950 . S
H141 C153 0.950 . S
H142 C150 0.950 . S
H143 C152 0.950 . S
H144 C154 0.950 1_655 S
H145 C156 0.950 . S
H146 C158 0.950 . S
H147 C159 0.950 . S
C148 H140 0.950 . S
C148 C149 1.386 . S
C148 C150 1.391 . S
C149 C148 1.386 . S
C149 C153 1.393 1_545 S
C150 H142 0.950 . S
C150 C148 1.391 . S
C150 C151 1.400 . S
C151 C150 1.400 . S
C151 C152 1.398 1_545 S
C151 C157 1.491 . S
C152 H143 0.950 . S
C152 C151 1.398 1_565 S
C152 C153 1.391 . S
C153 H141 0.950 . S
C153 C149 1.393 1_565 S
C153 C152 1.391 . S
C154 H144 0.950 1_455 S
C154 C155 1.386 . S
C154 C156 1.391 . S
C155 C154 1.386 . S
C155 C159 1.393 1_565 S
C156 H145 0.950 . S
C156 C154 1.391 . S
C156 C157 1.400 1_565 S
C157 C151 1.491 . S
C157 C156 1.400 1_545 S
C157 C158 1.398 . S
C158 H146 0.950 . S
C158 C157 1.398 . S
C158 C159 1.391 . S
C159 H147 0.950 . S
C159 C155 1.393 1_545 S
C159 C158 1.391 . S
H160 C168 0.950 . S
H161 C173 0.950 . S
H162 C170 0.950 . S
H163 C172 0.950 . S
H164 C174 0.950 . S
H165 C176 0.950 . S
H166 C178 0.950 . S
H167 C179 0.950 . S
C168 H160 0.950 . S
C168 C169 1.386 . S
C168 C170 1.391 . S
C169 C168 1.386 . S
C169 C173 1.393 . S
C170 H162 0.950 . S
C170 C168 1.391 . S
C170 C171 1.400 . S
C171 C170 1.400 . S
C171 C172 1.398 . S
C171 C177 1.491 . S
C172 H163 0.950 . S
C172 C171 1.398 . S
C172 C173 1.391 . S
C173 H161 0.950 . S
C173 C169 1.393 . S
C173 C172 1.391 . S
C174 H164 0.950 . S
C174 C175 1.386 . S
C174 C176 1.391 . S
C175 C174 1.386 . S
C175 C179 1.393 . S
C176 H165 0.950 . S
C176 C174 1.391 . S
C176 C177 1.400 . S
C177 C171 1.491 . S
C177 C176 1.400 . S
C177 C178 1.398 . S
C178 H166 0.950 . S
C178 C177 1.398 . S
C178 C179 1.391 . S
C179 H167 0.950 . S
C179 C175 1.393 . S
C179 C178 1.391 . S
H180 C188 0.950 1_565 S
H181 C193 0.950 . S
H182 C190 0.950 1_565 S
H183 C192 0.950 . S
H184 C194 0.950 . S
H185 C196 0.950 . S
H186 C198 0.950 . S
H187 C199 0.950 . S
C188 H180 0.950 1_545 S
C188 C189 1.386 . S
C188 C190 1.391 . S
C189 C188 1.386 . S
C189 C193 1.393 . S
C190 H182 0.950 1_545 S
C190 C188 1.391 . S
C190 C191 1.400 . S
C191 C190 1.400 . S
C191 C192 1.398 . S
C191 C197 1.491 . S
C192 H183 0.950 . S
C192 C191 1.398 . S
C192 C193 1.391 . S
C193 H181 0.950 . S
C193 C189 1.393 . S
C193 C192 1.391 . S
C194 H184 0.950 . S
C194 C195 1.386 . S
C194 C196 1.391 . S
C195 C194 1.386 . S
C195 C199 1.393 1_544 S
C196 H185 0.950 . S
C196 C194 1.391 . S
C196 C197 1.400 1_554 S
C197 C191 1.491 . S
C197 C196 1.400 1_556 S
C197 C198 1.398 1_545 S
C198 H186 0.950 . S
C198 C197 1.398 1_565 S
C198 C199 1.391 . S
C199 H187 0.950 . S
C199 C195 1.393 1_566 S
C199 C198 1.391 . S
H200 C208 0.950 . S
H201 C213 0.950 . S
H202 C210 0.950 . S
H203 C212 0.950 . S
H204 C214 0.950 . S
H205 C216 0.950 . S
H206 C218 0.950 . S
H207 C219 0.950 . S
C208 H200 0.950 . S
C208 C209 1.386 . S
C208 C210 1.391 . S
C209 C208 1.386 . S
C209 C213 1.393 . S
C210 H202 0.950 . S
C210 C208 1.391 . S
C210 C211 1.400 . S
C211 C210 1.400 . S
C211 C212 1.398 . S
C211 C217 1.491 . S
C212 H203 0.950 . S
C212 C211 1.398 . S
C212 C213 1.391 . S
C213 H201 0.950 . S
C213 C209 1.393 . S
C213 C212 1.391 . S
C214 H204 0.950 . S
C214 C215 1.386 . S
C214 C216 1.391 . S
C215 C214 1.386 . S
C215 C219 1.393 . S
C216 H205 0.950 . S
C216 C214 1.391 . S
C216 C217 1.400 . S
C217 C211 1.491 . S
C217 C216 1.400 . S
C217 C218 1.398 . S
C218 H206 0.950 . S
C218 C217 1.398 . S
C218 C219 1.391 . S
C219 H207 0.950 . S
C219 C215 1.393 . S
C219 C218 1.391 . S
H220 C228 0.950 1_545 S
H221 C233 0.950 . S
H222 C230 0.950 1_545 S
H223 C232 0.950 . S
H224 C234 0.950 . S
H225 C236 0.950 . S
H226 C238 0.950 1_545 S
H227 C239 0.950 . S
C228 H220 0.950 1_565 S
C228 C229 1.386 . S
C228 C230 1.391 . S
C229 C228 1.386 . S
C229 C233 1.393 . S
C230 H222 0.950 1_565 S
C230 C228 1.391 . S
C230 C231 1.400 . S
C231 C230 1.400 . S
C231 C232 1.398 . S
C231 C237 1.491 . S
C232 H223 0.950 . S
C232 C231 1.398 . S
C232 C233 1.391 . S
C233 H221 0.950 . S
C233 C229 1.393 . S
C233 C232 1.391 . S
C234 H224 0.950 . S
C234 C235 1.386 . S
C234 C236 1.391 . S
C235 C234 1.386 . S
C235 C239 1.393 . S
C236 H225 0.950 . S
C236 C234 1.391 . S
C236 C237 1.400 . S
C237 C231 1.491 . S
C237 C236 1.400 . S
C237 C238 1.398 . S
C238 H226 0.950 1_565 S
C238 C237 1.398 . S
C238 C239 1.391 . S
C239 H227 0.950 . S
C239 C235 1.393 . S
C239 C238 1.391 . S
H240 C248 0.950 . S
H241 C253 0.950 . S
H242 C250 0.950 . S
H243 C252 0.950 . S
H244 C254 0.950 . S
H245 C256 0.950 . S
H246 C258 0.950 . S
H247 C259 0.950 . S
C248 H240 0.950 . S
C248 C249 1.386 . S
C248 C250 1.391 . S
C249 C248 1.386 . S
C249 C253 1.393 . S
C250 H242 0.950 . S
C250 C248 1.391 . S
C250 C251 1.400 . S
C251 C250 1.400 . S
C251 C252 1.398 . S
C251 C257 1.491 1_556 S
C252 H243 0.950 . S
C252 C251 1.398 . S
C252 C253 1.391 . S
C253 H241 0.950 . S
C253 C249 1.393 . S
C253 C252 1.391 . S
C254 H244 0.950 . S
C254 C255 1.386 . S
C254 C256 1.391 . S
C255 C254 1.386 . S
C255 C259 1.393 . S
C256 H245 0.950 . S
C256 C254 1.391 . S
C256 C257 1.400 . S
C257 C251 1.491 1_554 S
C257 C256 1.400 . S
C257 C258 1.398 . S
C258 H246 0.950 . S
C258 C257 1.398 . S
C258 C259 1.391 . S
C259 H247 0.950 . S
C259 C255 1.393 . S
C259 C258 1.391 . S
H260 C268 0.950 . S
H261 C273 0.950 . S
H262 C270 0.950 . S
H263 C272 0.950 . S
H264 C274 0.950 . S
H265 C276 0.950 . S
H266 C278 0.950 . S
H267 C279 0.950 . S
C268 H260 0.950 . S
C268 C269 1.386 . S
C268 C270 1.391 . S
C269 C268 1.386 . S
C269 C273 1.393 . S
C270 H262 0.950 . S
C270 C268 1.391 . S
C270 C271 1.400 . S
C271 C270 1.400 . S
C271 C272 1.398 . S
C271 C277 1.491 . S
C272 H263 0.950 . S
C272 C271 1.398 . S
C272 C273 1.391 . S
C273 H261 0.950 . S
C273 C269 1.393 . S
C273 C272 1.391 . S
C274 H264 0.950 . S
C274 C275 1.386 . S
C274 C276 1.391 . S
C275 C274 1.386 . S
C275 C279 1.393 . S
C276 H265 0.950 . S
C276 C274 1.391 . S
C276 C277 1.400 . S
C277 C271 1.491 . S
C277 C276 1.400 . S
C277 C278 1.398 . S
C278 H266 0.950 . S
C278 C277 1.398 . S
C278 C279 1.391 . S
C279 H267 0.950 . S
C279 C275 1.393 . S
C279 C278 1.391 . S
H280 C288 0.950 . S
H281 C293 0.950 . S
H282 C290 0.950 . S
H283 C292 0.950 1_655 S
H284 C294 0.950 . S
H285 C296 0.950 . S
H286 C298 0.950 . S
H287 C299 0.950 . S
C288 H280 0.950 . S
C288 C289 1.386 . S
C288 C290 1.391 . S
C289 C288 1.386 . S
C289 C293 1.393 . S
C290 H282 0.950 . S
C290 C288 1.391 . S
C290 C291 1.400 . S
C291 C290 1.400 . S
C291 C292 1.398 . S
C291 C297 1.491 . S
C292 H283 0.950 1_455 S
C292 C291 1.398 . S
C292 C293 1.391 . S
C293 H281 0.950 . S
C293 C289 1.393 . S
C293 C292 1.391 . S
C294 H284 0.950 . S
C294 C295 1.386 . S
C294 C296 1.391 . S
C295 C294 1.386 . S
C295 C299 1.393 1_655 S
C296 H285 0.950 . S
C296 C294 1.391 . S
C296 C297 1.400 1_655 S
C297 C291 1.491 . S
C297 C296 1.400 1_455 S
C297 C298 1.398 . S
C298 H286 0.950 . S
C298 C297 1.398 . S
C298 C299 1.391 . S
C299 H287 0.950 . S
C299 C295 1.393 1_455 S
C299 C298 1.391 . S
C129 C2 1.570 1_455 S
C135 C15 1.570 1_655 S
C149 C55 1.646 1_545 S
C155 C42 1.646 1_465 S
C169 C82 1.346 . S
C175 C95 1.346 . S
C189 C89 0.975 . S
C195 C26 0.977 1_545 S
C209 C43 1.879 . S
C215 C9 1.845 . S
C229 C83 2.407 . S
C235 C62 2.371 . S
C249 C102 2.335 . S
C255 C3 2.292 . S
C269 C22 1.855 . S
C275 C66 1.760 . S
C289 C106 1.012 . S
C295 C49 1.035 . S
