# Generated by pormake.
# Topology uob, (4)-cn, num edge types: 1
# Building blocks:
#     Node 0, Type 0, BuildingBlock: CEKHIL_clean_sbu_0, # of connection points: 4
#     Node 1, Type 0, BuildingBlock: CEKHIL_clean_sbu_0, # of connection points: 4
#     Node 2, Type 0, BuildingBlock: CEKHIL_clean_sbu_0, # of connection points: 4
#     Node 3, Type 0, BuildingBlock: CEKHIL_clean_sbu_0, # of connection points: 4
#     Node 4, Type 0, BuildingBlock: CEKHIL_clean_sbu_0, # of connection points: 4
#     Node 5, Type 0, BuildingBlock: CEKHIL_clean_sbu_0, # of connection points: 4
#     Node 6, Type 0, BuildingBlock: CEKHIL_clean_sbu_0, # of connection points: 4
#     Node 7, Type 0, BuildingBlock: CEKHIL_clean_sbu_0, # of connection points: 4
#     Node 8, Type 0, BuildingBlock: CEKHIL_clean_sbu_0, # of connection points: 4
#     Node 9, Type 0, BuildingBlock: CEKHIL_clean_sbu_0, # of connection points: 4
#     Node 10, Type 0, BuildingBlock: CEKHIL_clean_sbu_0, # of connection points: 4
#     Node 11, Type 0, BuildingBlock: CEKHIL_clean_sbu_0, # of connection points: 4
#     Node 12, Type 0, BuildingBlock: CEKHIL_clean_sbu_0, # of connection points: 4
#     Node 13, Type 0, BuildingBlock: CEKHIL_clean_sbu_0, # of connection points: 4
#     Node 14, Type 0, BuildingBlock: CEKHIL_clean_sbu_0, # of connection points: 4
#     Node 15, Type 0, BuildingBlock: CEKHIL_clean_sbu_0, # of connection points: 4
#     Edge 16, Type (0, 0), BuildingBlock: UVAHIK_clean_linker_0, # of connection points: 2
#     Edge 17, Type (0, 0), BuildingBlock: UVAHIK_clean_linker_0, # of connection points: 2
#     Edge 18, Type (0, 0), BuildingBlock: UVAHIK_clean_linker_0, # of connection points: 2
#     Edge 19, Type (0, 0), BuildingBlock: UVAHIK_clean_linker_0, # of connection points: 2
#     Edge 20, Type (0, 0), BuildingBlock: UVAHIK_clean_linker_0, # of connection points: 2
#     Edge 21, Type (0, 0), BuildingBlock: UVAHIK_clean_linker_0, # of connection points: 2
#     Edge 22, Type (0, 0), BuildingBlock: UVAHIK_clean_linker_0, # of connection points: 2
#     Edge 23, Type (0, 0), BuildingBlock: UVAHIK_clean_linker_0, # of connection points: 2
#     Edge 24, Type (0, 0), BuildingBlock: UVAHIK_clean_linker_0, # of connection points: 2
#     Edge 25, Type (0, 0), BuildingBlock: UVAHIK_clean_linker_0, # of connection points: 2
#     Edge 26, Type (0, 0), BuildingBlock: UVAHIK_clean_linker_0, # of connection points: 2
#     Edge 27, Type (0, 0), BuildingBlock: UVAHIK_clean_linker_0, # of connection points: 2
#     Edge 28, Type (0, 0), BuildingBlock: UVAHIK_clean_linker_0, # of connection points: 2
#     Edge 29, Type (0, 0), BuildingBlock: UVAHIK_clean_linker_0, # of connection points: 2
#     Edge 30, Type (0, 0), BuildingBlock: UVAHIK_clean_linker_0, # of connection points: 2
#     Edge 31, Type (0, 0), BuildingBlock: UVAHIK_clean_linker_0, # of connection points: 2
#     Edge 32, Type (0, 0), BuildingBlock: UVAHIK_clean_linker_0, # of connection points: 2
#     Edge 33, Type (0, 0), BuildingBlock: UVAHIK_clean_linker_0, # of connection points: 2
#     Edge 34, Type (0, 0), BuildingBlock: UVAHIK_clean_linker_0, # of connection points: 2
#     Edge 35, Type (0, 0), BuildingBlock: UVAHIK_clean_linker_0, # of connection points: 2
#     Edge 36, Type (0, 0), BuildingBlock: UVAHIK_clean_linker_0, # of connection points: 2
#     Edge 37, Type (0, 0), BuildingBlock: UVAHIK_clean_linker_0, # of connection points: 2
#     Edge 38, Type (0, 0), BuildingBlock: UVAHIK_clean_linker_0, # of connection points: 2
#     Edge 39, Type (0, 0), BuildingBlock: UVAHIK_clean_linker_0, # of connection points: 2
#     Edge 40, Type (0, 0), BuildingBlock: UVAHIK_clean_linker_0, # of connection points: 2
#     Edge 41, Type (0, 0), BuildingBlock: UVAHIK_clean_linker_0, # of connection points: 2
#     Edge 42, Type (0, 0), BuildingBlock: UVAHIK_clean_linker_0, # of connection points: 2
#     Edge 43, Type (0, 0), BuildingBlock: UVAHIK_clean_linker_0, # of connection points: 2
#     Edge 44, Type (0, 0), BuildingBlock: UVAHIK_clean_linker_0, # of connection points: 2
#     Edge 45, Type (0, 0), BuildingBlock: UVAHIK_clean_linker_0, # of connection points: 2
#     Edge 46, Type (0, 0), BuildingBlock: UVAHIK_clean_linker_0, # of connection points: 2
#     Edge 47, Type (0, 0), BuildingBlock: UVAHIK_clean_linker_0, # of connection points: 2
# Relax obj value: 0.175
# Max RMSD: 0.201
# Mean RMSD: 0.201
data_MOF--net-uob--node1-CEKHIL_clean_sbu_0--edge1-UVAHIK_clean_linker_0
_symmetry_space_group_name_H-M    P1
_symmetry_Int_Tables_number       1
_symmetry_cell_setting            triclinic
loop_
_symmetry_equiv_pos_as_xyz
'x, y, z'
_cell_length_a     68.519205
_cell_length_b     68.566039
_cell_length_c     34.446497
_cell_angle_alpha  90.00138
_cell_angle_beta   89.959876
_cell_angle_gamma 90.045553
loop_
_atom_site_label
_atom_site_type_symbol
_atom_site_fract_x
_atom_site_fract_y
_atom_site_fract_z
_atom_type_partial_charge
Co0 Co 0.13877 0.06813 0.27787 0.0
O1 O 0.16675 0.07065 0.27733 0.0
O2 O 0.15042 0.04778 0.3091 0.0
C3 C 0.13346 0.07243 0.21396 0.0
O4 O 0.11013 0.06045 0.28389 0.0
Co5 Co 0.11251 0.10327 0.25462 0.0
O6 O 0.09163 0.08319 0.25456 0.0
C7 C 0.1324 0.10355 0.33007 0.0
C8 C 0.16715 0.05562 0.30027 0.0
C9 C 0.09359 0.06665 0.27105 0.0
O10 O 0.13742 0.08565 0.32487 0.0
O11 O 0.12381 0.11372 0.30404 0.0
O12 O 0.139 0.05547 0.22685 0.0
O13 O 0.13371 0.08637 0.23908 0.0
Co14 Co 0.94512 0.63509 0.52334 0.0
O15 O 0.94343 0.66312 0.52289 0.0
O16 O 0.96496 0.64608 0.55687 0.0
C17 C 0.94178 0.63065 0.459 0.0
O18 O 0.95199 0.60626 0.52954 0.0
Co19 Co 0.91019 0.60944 0.49635 0.0
O20 O 0.9299 0.58826 0.49721 0.0
C21 C 0.90854 0.62883 0.57235 0.0
C22 C 0.95777 0.663 0.54749 0.0
C23 C 0.94597 0.58988 0.51556 0.0
O24 O 0.92644 0.63416 0.5685 0.0
O25 O 0.89897 0.61986 0.5459 0.0
O26 O 0.95881 0.63514 0.47323 0.0
O27 O 0.92748 0.63083 0.48329 0.0
Co28 Co 0.37443 0.44393 0.77945 0.0
O29 O 0.34652 0.44094 0.78007 0.0
O30 O 0.36275 0.46395 0.81158 0.0
C31 C 0.37907 0.43981 0.71532 0.0
O32 O 0.40305 0.45206 0.78424 0.0
Co33 Co 0.4012 0.40946 0.75413 0.0
O34 O 0.42125 0.43028 0.75145 0.0
C35 C 0.38337 0.40903 0.83171 0.0
C36 C 0.34608 0.45579 0.80344 0.0
C37 C 0.41935 0.44652 0.76908 0.0
O38 O 0.37647 0.42625 0.82608 0.0
O39 O 0.39284 0.39941 0.80609 0.0
O40 O 0.37357 0.45673 0.72856 0.0
O41 O 0.37929 0.42584 0.74036 0.0
Co42 Co 0.56368 0.87314 0.02148 0.0
O43 O 0.56673 0.84526 0.02149 0.0
O44 O 0.54342 0.86117 0.05273 0.0
C45 C 0.56819 0.87803 0.95749 0.0
O46 O 0.55549 0.90172 0.02674 0.0
Co47 Co 0.59833 0.90005 -0.00277 0.0
O48 O 0.57761 0.92016 -0.00471 0.0
C49 C 0.59825 0.88201 0.07467 0.0
C50 C 0.55165 0.8446 0.0443 0.0
C51 C 0.56125 0.91816 0.01252 0.0
O52 O 0.58109 0.87502 0.0686 0.0
O53 O 0.608 0.89157 0.04934 0.0
O54 O 0.55119 0.87248 0.97025 0.0
O55 O 0.582 0.87821 0.98287 0.0
Co56 Co 0.13585 0.44299 0.01818 0.0
O57 O 0.16364 0.43965 0.02315 0.0
O58 O 0.14933 0.46452 -0.00631 0.0
C59 C 0.12742 0.43521 0.07943 0.0
O60 O 0.10776 0.45178 0.00865 0.0
Co61 Co 0.10786 0.40748 0.02866 0.0
O62 O 0.08723 0.42766 0.02615 0.0
C63 C 0.13149 0.41075 0.95787 0.0
C64 C 0.16541 0.45565 0.00324 0.0
C65 C 0.09045 0.44507 0.0148 0.0
O66 O 0.13663 0.42811 0.96766 0.0
O67 O 0.12126 0.39957 0.97956 0.0
O68 O 0.13377 0.45269 0.07168 0.0
O69 O 0.12861 0.42285 0.05137 0.0
Co70 Co 0.56411 0.63856 0.27585 0.0
O71 O 0.56647 0.66649 0.27455 0.0
O72 O 0.54378 0.64961 0.24349 0.0
C73 C 0.56839 0.63462 0.3402 0.0
O74 O 0.55673 0.60974 0.27178 0.0
Co75 Co 0.5994 0.61309 0.30197 0.0
O76 O 0.57939 0.59215 0.30351 0.0
C77 C 0.59976 0.63127 0.22466 0.0
C78 C 0.55157 0.66648 0.2513 0.0
C79 C 0.56299 0.59357 0.28625 0.0
O80 O 0.58186 0.63651 0.22924 0.0
O81 O 0.60982 0.62316 0.25147 0.0
O82 O 0.55131 0.63952 0.32689 0.0
O83 O 0.58229 0.6345 0.31501 0.0
Co84 Co 0.375 0.06438 0.52368 0.0
O85 O 0.34708 0.06708 0.52483 0.0
O86 O 0.363 0.04398 0.49299 0.0
C87 C 0.38058 0.06901 0.58737 0.0
O88 O 0.40359 0.05652 0.51721 0.0
Co89 Co 0.40181 0.09933 0.54628 0.0
O90 O 0.42217 0.07883 0.54769 0.0
C91 C 0.38274 0.09897 0.46987 0.0
C92 C 0.34641 0.05203 0.50199 0.0
C93 C 0.42012 0.06242 0.53074 0.0
O94 O 0.37615 0.08171 0.4764 0.0
O95 O 0.39244 0.10891 0.49469 0.0
O96 O 0.37504 0.05195 0.57495 0.0
O97 O 0.3803 0.0828 0.56194 0.0
Co98 Co 0.94118 0.86965 0.77694 0.0
O99 O 0.94068 0.84155 0.77819 0.0
O100 O 0.9616 0.85932 0.74411 0.0
C101 C 0.93765 0.87517 0.84089 0.0
O102 O 0.94675 0.89867 0.76981 0.0
Co103 Co 0.90476 0.89366 0.80171 0.0
O104 O 0.92319 0.91598 0.79948 0.0
C105 C 0.90501 0.87446 0.72561 0.0
C106 C 0.95507 0.84215 0.75363 0.0
C107 C 0.9396 0.91493 0.7821 0.0
O108 O 0.92289 0.86949 0.73117 0.0
O109 O 0.89468 0.8832 0.75119 0.0
O110 O 0.95474 0.87074 0.82691 0.0
O111 O 0.92327 0.87369 0.81689 0.0
Co112 Co 0.6386 0.56504 0.77441 0.0
O113 O 0.66661 0.56704 0.77357 0.0
O114 O 0.64999 0.54394 0.80407 0.0
C115 C 0.63316 0.57071 0.71102 0.0
O116 O 0.60984 0.55783 0.78039 0.0
Co117 Co 0.61285 0.60101 0.75415 0.0
O118 O 0.59176 0.58117 0.75194 0.0
C119 C 0.63245 0.59924 0.82993 0.0
C120 C 0.66681 0.55172 0.79574 0.0
C121 C 0.59343 0.56441 0.76763 0.0
O122 O 0.63784 0.58165 0.82264 0.0
O123 O 0.62346 0.60997 0.80536 0.0
O124 O 0.63826 0.55336 0.72247 0.0
O125 O 0.63383 0.58414 0.73719 0.0
Co126 Co 0.444 0.13828 0.02256 0.0
O127 O 0.4415 0.16622 0.02328 0.0
O128 O 0.46392 0.14958 0.05552 0.0
C129 C 0.44052 0.13389 0.95821 0.0
O130 O 0.45153 0.10952 0.02747 0.0
Co131 Co 0.4093 0.1122 -0.00457 0.0
O132 O 0.42975 0.09178 -0.00633 0.0
C133 C 0.40847 0.12955 0.07343 0.0
C134 C 0.45615 0.16638 0.04715 0.0
C135 C 0.44581 0.09334 0.01209 0.0
O136 O 0.42579 0.13637 0.06845 0.0
O137 O 0.39896 0.12028 0.04735 0.0
O138 O 0.45739 0.13906 0.97224 0.0
O139 O 0.42626 0.13384 0.98264 0.0
Co140 Co 0.87529 0.94619 0.2784 0.0
O141 O 0.84735 0.94369 0.27723 0.0
O142 O 0.86343 0.96668 0.30909 0.0
C143 C 0.88081 0.94149 0.21463 0.0
O144 O 0.90392 0.95381 0.28486 0.0
Co145 Co 0.90158 0.91091 0.256 0.0
O146 O 0.9224 0.93106 0.25543 0.0
C147 C 0.88116 0.91092 0.33111 0.0
C148 C 0.84677 0.95875 0.30004 0.0
C149 C 0.92045 0.94761 0.27191 0.0
O150 O 0.87625 0.92883 0.32569 0.0
O151 O 0.88993 0.90069 0.30537 0.0
O152 O 0.87545 0.9586 0.22704 0.0
O153 O 0.88041 0.92775 0.24014 0.0
Co154 Co 0.0699 0.37297 0.52364 0.0
O155 O 0.07347 0.34519 0.5273 0.0
O156 O 0.0515 0.362 0.56046 0.0
C157 C 0.07132 0.37488 0.45854 0.0
O158 O 0.0613 0.4015 0.52634 0.0
Co159 Co 0.10207 0.39973 0.48831 0.0
O160 O 0.08083 0.41935 0.48771 0.0
C161 C 0.10686 0.38429 0.5674 0.0
C162 C 0.05955 0.34524 0.55288 0.0
C163 C 0.06562 0.41753 0.50875 0.0
O164 O 0.08961 0.37689 0.56635 0.0
O165 O 0.11486 0.39321 0.53892 0.0
O166 O 0.05499 0.37008 0.47535 0.0
O167 O 0.08622 0.37664 0.48107 0.0
Co168 Co 0.63895 0.94332 0.52363 0.0
O169 O 0.66692 0.94096 0.52407 0.0
O170 O 0.6505 0.96363 0.49204 0.0
C171 C 0.63381 0.93919 0.58761 0.0
O172 O 0.61024 0.95081 0.51769 0.0
Co173 Co 0.6126 0.90835 0.5483 0.0
O174 O 0.59206 0.9287 0.54972 0.0
C175 C 0.63092 0.90832 0.47104 0.0
C176 C 0.66726 0.95591 0.50092 0.0
C177 C 0.59387 0.94493 0.532 0.0
O178 O 0.63762 0.9256 0.47692 0.0
O179 O 0.62144 0.89854 0.49647 0.0
O180 O 0.63909 0.95619 0.57445 0.0
O181 O 0.6341 0.92517 0.56267 0.0
Co182 Co 0.0598 0.13468 0.77654 0.0
O183 O 0.06524 0.16217 0.78042 0.0
O184 O 0.04035 0.14939 0.74828 0.0
C185 C 0.06457 0.12673 0.83919 0.0
O186 O 0.04917 0.10717 0.76733 0.0
Co187 Co 0.09309 0.10476 0.79306 0.0
O188 O 0.07218 0.08528 0.78439 0.0
C189 C 0.09393 0.12756 0.72131 0.0
C190 C 0.05015 0.16487 0.75827 0.0
C191 C 0.0551 0.0895 0.77236 0.0
O192 O 0.07642 0.1334 0.72818 0.0
O193 O 0.10387 0.11742 0.74537 0.0
O194 O 0.04806 0.13444 0.82859 0.0
O195 O 0.07803 0.12642 0.81305 0.0
Co196 Co 0.8739 0.56659 0.01647 0.0
O197 O 0.84594 0.56845 0.02041 0.0
O198 O 0.86181 0.54516 -0.011 0.0
C199 C 0.88121 0.57299 0.07888 0.0
O200 O 0.90244 0.55943 0.00743 0.0
Co201 Co 0.90009 0.60289 0.03224 0.0
O202 O 0.92173 0.58372 0.02887 0.0
C203 C 0.87645 0.60109 0.96132 0.0
C204 C 0.8452 0.55292 -0.00118 0.0
C205 C 0.91938 0.56654 0.01546 0.0
O206 O 0.87309 0.5829 0.96773 0.0
O207 O 0.88533 0.6121 0.98557 0.0
O208 O 0.87582 0.55548 0.06891 0.0
O209 O 0.87975 0.58605 0.05216 0.0
Co210 Co 0.44625 0.3725 0.28044 0.0
O211 O 0.44341 0.34459 0.28083 0.0
O212 O 0.46639 0.36062 0.24878 0.0
C213 C 0.44207 0.37764 0.34441 0.0
O214 O 0.45416 0.40114 0.27461 0.0
Co215 Co 0.41144 0.3991 0.30483 0.0
O216 O 0.43201 0.41943 0.30621 0.0
C217 C 0.41126 0.38063 0.22787 0.0
C218 C 0.45828 0.34401 0.25749 0.0
C219 C 0.44832 0.41755 0.28878 0.0
O220 O 0.42858 0.37402 0.23371 0.0
O221 O 0.40149 0.39012 0.25324 0.0
O222 O 0.45904 0.37216 0.33137 0.0
O223 O 0.42811 0.37754 0.31936 0.0
C224 C 0.31015 0.05438 0.49644 0.0
C225 C 0.32771 0.04565 0.48455 0.0
C226 C 0.29269 0.05026 0.47724 0.0
C227 C 0.25577 0.03426 0.44116 0.0
H228 H 0.25839 0.03579 0.32879 0.0
C229 C 0.18586 0.03469 0.34719 0.0
C230 C 0.18571 0.04886 0.3177 0.0
C231 C 0.20327 0.02992 0.36626 0.0
C232 C 0.25739 0.03529 0.36016 0.0
H233 H 0.34058 0.02513 0.44411 0.0
H234 H 0.30996 0.01782 0.41056 0.0
H235 H 0.28845 0.03541 0.36652 0.0
H236 H 0.20383 0.06857 0.28409 0.0
H237 H 0.23399 0.06044 0.31735 0.0
H238 H 0.22472 0.03521 0.43487 0.0
C239 C 0.30977 0.02801 0.43457 0.0
C240 C 0.27465 0.03483 0.38181 0.0
C241 C 0.32729 0.0321 0.45395 0.0
C242 C 0.20342 0.0576 0.30669 0.0
C243 C 0.22079 0.05281 0.32562 0.0
C244 C 0.23851 0.03474 0.41952 0.0
C245 C 0.29232 0.03732 0.44557 0.0
C246 C 0.27406 0.03485 0.42262 0.0
C247 C 0.2209 0.03917 0.35611 0.0
C248 C 0.23911 0.0358 0.37876 0.0
H249 H 0.30995 0.06489 0.51991 0.0
H250 H 0.27962 0.05792 0.48621 0.0
H251 H 0.25477 0.03397 0.47254 0.0
H252 H 0.17245 0.02768 0.35631 0.0
H253 H 0.20288 0.0192 0.38933 0.0
C254 C 0.95913 0.8059 0.75174 0.0
C255 C 0.962 0.8242 0.73425 0.0
C256 C 0.9632 0.78874 0.73131 0.0
C257 C 0.96037 0.76968 0.63507 0.0
H258 H 0.99179 0.72636 0.67123 0.0
C259 C 0.96322 0.69893 0.54621 0.0
C260 C 0.9641 0.68123 0.56647 0.0
C261 C 0.96666 0.71659 0.56532 0.0
C262 C 0.98272 0.73817 0.66084 0.0
H263 H 0.9718 0.83893 0.68208 0.0
H264 H 0.97829 0.80885 0.6459 0.0
H265 H 0.99098 0.75671 0.70843 0.0
H266 H 0.96956 0.66793 0.62236 0.0
H267 H 0.97446 0.69868 0.65643 0.0
H268 H 0.95089 0.75116 0.58919 0.0
C269 C 0.97323 0.80786 0.67564 0.0
C270 C 0.98244 0.75561 0.68207 0.0
C271 C 0.96961 0.82503 0.6964 0.0
C272 C 0.96904 0.68141 0.60598 0.0
C273 C 0.97191 0.69912 0.62545 0.0
C274 C 0.96026 0.75217 0.61438 0.0
C275 C 0.96977 0.78957 0.69272 0.0
C276 C 0.97123 0.77149 0.66936 0.0
C277 C 0.97037 0.71704 0.60557 0.0
C278 C 0.9714 0.73607 0.62691 0.0
H279 H 0.95326 0.80485 0.78087 0.0
H280 H 0.96029 0.77481 0.74499 0.0
H281 H 0.95134 0.78163 0.62502 0.0
H282 H 0.95959 0.69915 0.51561 0.0
H283 H 0.96599 0.7299 0.5485 0.0
C284 C 0.32761 0.47469 0.85408 0.0
C285 C 0.32761 0.46187 0.82224 0.0
C286 C 0.31028 0.47858 0.87432 0.0
C287 C 0.2749 0.47152 0.92683 0.0
H288 H 0.22517 0.47514 0.87363 0.0
C289 C 0.20166 0.4519 -0.00079 0.0
C290 C 0.18469 0.46202 -0.01162 0.0
C291 C 0.21952 0.45593 0.98128 0.0
C292 C 0.23892 0.47447 0.88905 0.0
H293 H 0.30934 0.44366 0.7858 0.0
H294 H 0.27929 0.4504 0.82086 0.0
H295 H 0.25535 0.47539 0.83618 0.0
H296 H 0.17334 0.48496 0.95146 0.0
H297 H 0.2046 0.49213 0.9203 0.0
H298 H 0.25844 0.47035 0.97968 0.0
C299 C 0.29256 0.45759 0.83019 0.0
C300 C 0.25623 0.47439 0.86751 0.0
C301 C 0.30985 0.45362 0.81019 0.0
C302 C 0.18615 0.4769 0.96045 0.0
C303 C 0.20403 0.4809 0.94239 0.0
C304 C 0.25757 0.47157 0.94838 0.0
C305 C 0.29259 0.46986 0.86289 0.0
C306 C 0.27441 0.47246 0.88605 0.0
C307 C 0.22085 0.47016 0.952 0.0
C308 C 0.23935 0.47261 0.9297 0.0
H309 H 0.34108 0.48125 0.86413 0.0
H310 H 0.31077 0.48824 0.89918 0.0
H311 H 0.28862 0.46989 0.94205 0.0
H312 H 0.20104 0.44033 0.02059 0.0
H313 H 0.23208 0.44722 -0.01086 0.0
C314 C 0.55469 0.80848 0.05156 0.0
C315 C 0.54533 0.82593 0.06201 0.0
C316 C 0.55037 0.79106 0.07074 0.0
C317 C 0.53209 0.7731 0.1645 0.0
H318 H 0.5351 0.72301 0.11255 0.0
C319 C 0.53194 0.68451 0.20109 0.0
C320 C 0.54502 0.68477 0.2325 0.0
C321 C 0.52764 0.70172 0.18084 0.0
C322 C 0.53388 0.73684 0.12754 0.0
H323 H 0.52351 0.83864 0.09991 0.0
H324 H 0.51579 0.80809 0.13333 0.0
H325 H 0.53481 0.75289 0.07425 0.0
H326 H 0.56322 0.70341 0.26824 0.0
H327 H 0.55587 0.73319 0.2331 0.0
H328 H 0.5313 0.75706 0.2178 0.0
C329 C 0.52667 0.80796 0.11052 0.0
C330 C 0.53395 0.75401 0.10557 0.0
C331 C 0.531 0.82544 0.09121 0.0
C332 C 0.55308 0.70268 0.24417 0.0
C333 C 0.54874 0.71983 0.22413 0.0
C334 C 0.53198 0.75594 0.18646 0.0
C335 C 0.53654 0.7906 0.10092 0.0
C336 C 0.53361 0.77237 0.12381 0.0
C337 C 0.53623 0.71956 0.19179 0.0
C338 C 0.53342 0.73761 0.16832 0.0
H339 H 0.56583 0.80833 0.02922 0.0
H340 H 0.55849 0.7781 0.0629 0.0
H341 H 0.53191 0.78695 0.17961 0.0
H342 H 0.5255 0.67093 0.19137 0.0
H343 H 0.5178 0.70102 0.15629 0.0
C344 C 0.68509 0.53144 0.84442 0.0
C345 C 0.68524 0.54485 0.81354 0.0
C346 C 0.70235 0.52704 0.8644 0.0
C347 C 0.73727 0.5334 0.91805 0.0
H348 H 0.78753 0.5319 0.86633 0.0
C349 C 0.80886 0.55492 -0.00625 0.0
C350 C 0.82641 0.54585 0.98287 0.0
C351 C 0.79138 0.55024 0.97509 0.0
C352 C 0.77364 0.53194 0.88134 0.0
H353 H 0.70373 0.56344 0.77828 0.0
H354 H 0.73365 0.55587 0.81296 0.0
H355 H 0.75771 0.53125 0.82791 0.0
H356 H 0.8392 0.52401 0.94512 0.0
H357 H 0.80858 0.51568 0.9127 0.0
H358 H 0.75321 0.53431 0.97148 0.0
C359 C 0.72032 0.5486 0.82173 0.0
C360 C 0.75652 0.5318 0.85924 0.0
C361 C 0.7031 0.55305 0.80195 0.0
C362 C 0.82593 0.5313 0.95412 0.0
C363 C 0.8084 0.52662 0.93536 0.0
C364 C 0.75439 0.53352 0.94017 0.0
C365 C 0.72012 0.53586 0.85371 0.0
C366 C 0.73814 0.53307 0.87726 0.0
C367 C 0.79098 0.53635 0.94504 0.0
C368 C 0.7728 0.53333 0.92205 0.0
H369 H 0.67154 0.52489 0.85408 0.0
H370 H 0.70172 0.51701 0.88865 0.0
H371 H 0.72339 0.53449 0.93293 0.0
H372 H 0.80871 0.5662 0.01577 0.0
H373 H 0.77834 0.55821 0.98303 0.0
C374 C 0.45528 0.30788 0.25025 0.0
C375 C 0.46436 0.32541 0.23922 0.0
C376 C 0.45917 0.29056 0.23038 0.0
C377 C 0.4752 0.27307 0.13465 0.0
H378 H 0.47381 0.22275 0.18599 0.0
C379 C 0.476 0.18464 0.0967 0.0
C380 C 0.46248 0.18475 0.06604 0.0
C381 C 0.48027 0.20186 0.11696 0.0
C382 C 0.47455 0.23665 0.17113 0.0
H383 H 0.48523 0.33835 0.19952 0.0
H384 H 0.4922 0.30797 0.1649 0.0
H385 H 0.47472 0.25247 0.22472 0.0
H386 H 0.44337 0.20313 0.03173 0.0
H387 H 0.45064 0.23293 0.06699 0.0
H388 H 0.47492 0.25725 0.08107 0.0
C389 C 0.48188 0.3077 0.18872 0.0
C390 C 0.47484 0.25372 0.19338 0.0
C391 C 0.478 0.32508 0.20872 0.0
C392 C 0.45387 0.20252 0.05519 0.0
C393 C 0.45816 0.21968 0.07529 0.0
C394 C 0.47494 0.256 0.11241 0.0
C395 C 0.47225 0.29028 0.19891 0.0
C396 C 0.47466 0.27216 0.17543 0.0
C397 C 0.47117 0.21955 0.10684 0.0
C398 C 0.47411 0.23758 0.13036 0.0
H399 H 0.44468 0.3076 0.27358 0.0
H400 H 0.45127 0.27753 0.23875 0.0
H401 H 0.47494 0.28698 0.11979 0.0
H402 H 0.48288 0.17118 0.10577 0.0
H403 H 0.49052 0.20127 0.14085 0.0
C404 C 0.81049 0.95666 0.30535 0.0
C405 C 0.82809 0.96529 0.31732 0.0
C406 C 0.79302 0.96092 0.32437 0.0
C407 C 0.7561 0.97709 0.36006 0.0
H408 H 0.75847 0.97594 0.47246 0.0
C409 C 0.68596 0.97673 0.45367 0.0
C410 C 0.68581 0.96268 0.4834 0.0
C411 C 0.7034 0.98149 0.43459 0.0
C412 C 0.75754 0.97633 0.44109 0.0
H413 H 0.84102 0.98581 0.3577 0.0
H414 H 0.81036 0.99339 0.39092 0.0
H415 H 0.78861 0.97617 0.43493 0.0
H416 H 0.70393 0.94319 0.51739 0.0
H417 H 0.73412 0.95131 0.48411 0.0
H418 H 0.72504 0.97613 0.36617 0.0
C419 C 0.81016 0.98315 0.367 0.0
C420 C 0.77485 0.97671 0.41954 0.0
C421 C 0.8277 0.97891 0.34781 0.0
C422 C 0.70353 0.95408 0.49461 0.0
C423 C 0.72091 0.95885 0.47567 0.0
C424 C 0.73879 0.97667 0.38161 0.0
C425 C 0.79265 0.97393 0.35593 0.0
C426 C 0.77435 0.97654 0.37873 0.0
C427 C 0.72105 0.97237 0.44497 0.0
C428 C 0.7393 0.97573 0.42238 0.0
H429 H 0.81027 0.94611 0.28195 0.0
H430 H 0.77992 0.95332 0.31535 0.0
H431 H 0.75517 0.97727 0.32868 0.0
H432 H 0.67255 0.98364 0.44438 0.0
H433 H 0.70302 0.99212 0.41134 0.0
C434 C 0.06221 0.3092 0.56234 0.0
C435 C 0.05401 0.32711 0.5736 0.0
C436 C 0.05814 0.29216 0.58301 0.0
C437 C 0.04298 0.27486 0.67943 0.0
H438 H 0.03767 0.22541 0.6258 0.0
C439 C 0.03167 0.1867 0.7127 0.0
C440 C 0.04572 0.18439 0.74204 0.0
C441 C 0.02934 0.20471 0.69405 0.0
C442 C 0.03883 0.23909 0.64132 0.0
H443 H 0.03484 0.34111 0.6152 0.0
H444 H 0.02766 0.3112 0.65144 0.0
H445 H 0.03932 0.25555 0.58853 0.0
H446 H 0.06778 0.1994 0.7759 0.0
H447 H 0.06381 0.23064 0.74341 0.0
H448 H 0.04262 0.25835 0.73225 0.0
C449 C 0.03734 0.31043 0.62663 0.0
C450 C 0.04001 0.25638 0.6199 0.0
C451 C 0.04136 0.32752 0.60574 0.0
C452 C 0.0568 0.20067 0.75344 0.0
C453 C 0.05445 0.21865 0.73492 0.0
C454 C 0.04183 0.25755 0.70089 0.0
C455 C 0.04579 0.29255 0.61561 0.0
C456 C 0.04249 0.27444 0.63863 0.0
C457 C 0.04097 0.22082 0.70445 0.0
C458 C 0.04009 0.23941 0.68207 0.0
H459 H 0.07207 0.30836 0.53779 0.0
H460 H 0.06514 0.27874 0.57403 0.0
H461 H 0.04499 0.28849 0.6948 0.0
H462 H 0.0229 0.17444 0.70323 0.0
H463 H 0.01865 0.20593 0.67104 0.0
C464 C 0.07611 0.03753 0.29908 0.0
C465 C 0.07594 0.05429 0.27557 0.0
C466 C 0.05928 0.0261 0.30319 0.0
C467 C 0.02543 0.99839 0.28749 0.0
H468 H 0.97453 0.0231 0.28721 0.0
C469 C 0.95537 0.95507 0.2565 0.0
C470 C 0.93809 0.95999 0.27625 0.0
C471 C 0.97209 0.96654 0.26021 0.0
C472 C 0.9886 0.01593 0.28786 0.0
H473 H 0.05794 0.07197 0.23747 0.0
H474 H 0.02896 0.05193 0.24388 0.0
H475 H 1.00383 0.04317 0.28825 0.0
H476 H 0.92494 0.98089 0.3156 0.0
H477 H 0.95431 1.00079 0.32264 0.0
H478 H 0.01021 0.97115 0.28785 0.0
C479 C 0.04187 0.04783 0.26005 0.0
C480 C 0.00544 0.02746 0.28791 0.0
C481 C 0.0586 0.05928 0.25615 0.0
C482 C 0.93797 0.97671 0.29987 0.0
C483 C 0.9548 0.98816 0.30379 0.0
C484 C 0.00859 0.98686 0.28769 0.0
C485 C 0.04194 0.03113 0.2837 0.0
C486 C 0.02407 0.01884 0.28698 0.0
C487 C 0.97208 0.98319 0.28399 0.0
C488 C 0.98995 0.99548 0.28712 0.0
H489 H 0.08919 0.0333 0.31457 0.0
H490 H 0.05981 0.01344 0.32193 0.0
H491 H 0.0395 0.99122 0.28655 0.0
H492 H 0.95599 0.94242 0.23771 0.0
H493 H 0.98495 0.96249 0.24379 0.0
C494 C 0.9522 0.55432 0.50398 0.0
C495 C 0.95808 0.57209 0.52076 0.0
C496 C 0.96365 0.5376 0.50779 0.0
C497 C 0.9854 0.50175 0.53495 0.0
H498 H 0.04137 0.50677 0.52222 0.0
C499 C 0.03764 0.43508 0.5411 0.0
C500 C 0.05286 0.43487 0.51366 0.0
C501 C 0.02611 0.45178 0.54604 0.0
C502 C 0.02575 0.50509 0.52567 0.0
H503 H 0.98061 0.58602 0.55527 0.0
H504 H 1.00052 0.5567 0.56225 0.0
H505 H 0.02113 0.53591 0.52338 0.0
H506 H 0.06751 0.45201 0.46931 0.0
H507 H 0.0473 0.48072 0.4774 0.0
H508 H 0.98996 0.47086 0.53559 0.0
C509 C 0.98711 0.55582 0.54572 0.0
C510 C 0.01416 0.52184 0.52687 0.0
C511 C 0.97564 0.57262 0.54185 0.0
C512 C 0.05608 0.45165 0.49102 0.0
C513 C 0.04455 0.46823 0.49585 0.0
C514 C 0.997 0.48497 0.53364 0.0
C515 C 0.98128 0.53811 0.52857 0.0
C516 C 0.99379 0.52038 0.53084 0.0
C517 C 0.0295 0.4686 0.52358 0.0
C518 C 0.01729 0.48642 0.52827 0.0
H519 H 0.93882 0.55331 0.48737 0.0
H520 H 0.95886 0.52435 0.49356 0.0
H521 H 0.96979 0.50008 0.5387 0.0
H522 H 0.03478 0.42245 0.5591 0.0
H523 H 0.01471 0.45159 0.56785 0.0
C524 C 0.43697 0.47577 0.7964 0.0
C525 C 0.43686 0.45917 0.77241 0.0
C526 C 0.45381 0.48727 0.79968 0.0
C527 C 0.48772 0.51502 0.78294 0.0
H528 H 0.53832 0.4897 0.78073 0.0
C529 C 0.5584 0.5576 0.75198 0.0
C530 C 0.57561 0.55227 0.77151 0.0
C531 C 0.5415 0.54637 0.75548 0.0
C532 C 0.52434 0.49703 0.7819 0.0
H533 H 0.45431 0.442 0.73233 0.0
H534 H 0.48325 0.46212 0.73748 0.0
H535 H 0.5088 0.46999 0.78199 0.0
H536 H 0.58844 0.53088 0.81023 0.0
H537 H 0.55878 0.51142 0.81688 0.0
H538 H 0.50329 0.54207 0.78351 0.0
C539 C 0.47058 0.46602 0.75461 0.0
C540 C 0.50737 0.48572 0.78209 0.0
C541 C 0.45387 0.45452 0.75147 0.0
C542 C 0.57548 0.53538 0.79466 0.0
C543 C 0.55847 0.52418 0.79836 0.0
C544 C 0.5047 0.52634 0.78293 0.0
C545 C 0.47086 0.48246 0.77894 0.0
C546 C 0.48885 0.49456 0.78191 0.0
C547 C 0.54126 0.52956 0.7788 0.0
C548 C 0.52323 0.5175 0.78175 0.0
H549 H 0.42415 0.47977 0.81297 0.0
H550 H 0.45356 0.49978 0.81888 0.0
H551 H 0.47372 0.52233 0.78261 0.0
H552 H 0.55799 0.5704 0.73356 0.0
H553 H 0.52868 0.55073 0.73929 0.0
C554 C 0.53163 0.9355 0.0391 0.0
C555 C 0.5488 0.93576 0.01669 0.0
C556 C 0.52035 0.95243 0.04326 0.0
C557 C 0.49363 0.9872 0.0269 0.0
H558 H 0.51973 0.03735 0.0329 0.0
C559 C 0.45348 0.05879 -0.00557 0.0
C560 C 0.45795 0.07555 0.01628 0.0
C561 C 0.46442 0.04178 -0.00146 0.0
C562 C 0.51217 0.02349 0.03177 0.0
H563 H 0.56728 0.95403 0.98047 0.0
H564 H 0.54759 0.98313 0.98718 0.0
H565 H 0.53893 0.00749 0.03411 0.0
H566 H 0.47759 0.08749 0.05954 0.0
H567 H 0.49662 0.05758 0.06709 0.0
H568 H 0.46685 1.00319 0.025 0.0
C569 C 0.54303 0.97006 0.00237 0.0
C570 C 0.5232 0.00635 0.03197 0.0
C571 C 0.55427 0.95325 -0.0017 0.0
C572 C 0.47378 0.07488 0.04219 0.0
C573 C 0.48472 0.05774 0.04645 0.0
C574 C 0.48259 1.00434 0.02685 0.0
C575 C 0.526 0.96994 0.02507 0.0
C576 C 0.5141 0.98801 0.02871 0.0
C577 C 0.48009 0.04095 0.02476 0.0
C578 C 0.49174 0.02272 0.02847 0.0
H579 H 0.52698 0.9223 0.0537 0.0
H580 H 0.50735 0.95186 0.0611 0.0
H581 H 0.48614 0.97336 0.0242 0.0
H582 H 0.44155 0.0588 0.97384 0.0
H583 H 0.46073 0.02932 0.98065 0.0
C584 C 0.05462 0.44974 0.00489 0.0
C585 C 0.07333 0.45794 0.00885 0.0
C586 C 0.03819 0.46161 0.00163 0.0
C587 C 0.02187 0.51228 0.98169 0.0
H588 H 0.97583 0.49543 0.0381 0.0
C589 C 0.95574 0.56237 0.01318 0.0
C590 C 0.93696 0.55424 0.00963 0.0
C591 C 0.97235 0.5507 0.00964 0.0
C592 C 0.98847 0.50022 0.02177 0.0
H593 H 0.08945 0.48512 0.0116 0.0
H594 H 0.06061 0.50594 0.00683 0.0
H595 H 1.005 0.47527 0.03879 0.0
H596 H 0.921 0.52744 -0.00124 0.0
H597 H 0.95006 0.50706 -0.00724 0.0
H598 H 0.0053 0.53753 0.96554 0.0
C599 C 0.05871 0.49028 0.00561 0.0
C600 C 1.00522 0.48865 0.0221 0.0
C601 C 0.07525 0.47835 0.00849 0.0
C602 C 0.93522 0.53419 0.00173 0.0
C603 C 0.95186 0.52249 -0.00152 0.0
C604 C 1.00511 0.52394 0.9816 0.0
C605 C 0.03994 0.48202 0.00269 0.0
C606 C 0.02215 0.49449 0.00202 0.0
C607 C 0.9706 0.53059 0.00275 0.0
C608 C 0.98823 0.51802 0.00164 0.0
H609 H 0.05262 0.43407 0.00446 0.0
H610 H 0.02405 0.45472 -0.00158 0.0
H611 H 0.03454 0.51712 0.96551 0.0
H612 H 0.95767 0.57776 0.01915 0.0
H613 H 0.98657 0.55734 0.01343 0.0
C614 C 0.45539 0.45257 0.30364 0.0
C615 C 0.46065 0.43524 0.28443 0.0
C616 C 0.46653 0.46946 0.29947 0.0
C617 C 0.48582 0.50608 0.26998 0.0
H618 H 0.54226 0.50316 0.27263 0.0
C619 C 0.5346 0.575 0.25791 0.0
C620 C 0.55099 0.57563 0.28243 0.0
C621 C 0.52372 0.55779 0.25405 0.0
C622 C 0.5265 0.50425 0.27202 0.0
H623 H 0.48198 0.42217 0.24583 0.0
H624 H 0.50141 0.45188 0.23819 0.0
H625 H 0.5231 0.47323 0.27401 0.0
H626 H 0.56849 0.55869 0.32275 0.0
H627 H 0.54937 0.52908 0.3167 0.0
H628 H 0.48916 0.5371 0.26972 0.0
C629 C 0.48867 0.45225 0.2568 0.0
C630 C 0.51552 0.48705 0.27229 0.0
C631 C 0.47751 0.43524 0.26108 0.0
C632 C 0.55609 0.55873 0.30325 0.0
C633 C 0.54519 0.54164 0.29957 0.0
C634 C 0.49679 0.52327 0.26988 0.0
C635 C 0.48324 0.4696 0.27582 0.0
C636 C 0.49502 0.48776 0.272 0.0
C637 C 0.52892 0.54088 0.27479 0.0
C638 C 0.51727 0.52259 0.27159 0.0
H639 H 0.44264 0.45313 0.32222 0.0
H640 H 0.46215 0.48238 0.31532 0.0
H641 H 0.47006 0.50717 0.26901 0.0
H642 H 0.53029 0.58771 0.24135 0.0
H643 H 0.51136 0.55769 0.23448 0.0
C644 C 0.43739 0.03302 0.50333 0.0
C645 C 0.43769 0.04998 0.52629 0.0
C646 C 0.45423 0.02162 0.49915 0.0
C647 C 0.48843 0.99431 0.51536 0.0
H648 H 0.53909 0.01958 0.51232 0.0
C649 C 0.55911 0.95259 0.54825 0.0
C650 C 0.57618 0.95717 0.52743 0.0
C651 C 0.54227 0.96378 0.54399 0.0
C652 C 0.52509 0.01225 0.5126 0.0
H653 H 0.45593 0.068 0.56339 0.0
H654 H 0.4849 0.04806 0.55674 0.0
H655 H 0.50958 0.03929 0.51088 0.0
H656 H 0.58884 0.97723 0.48572 0.0
H657 H 0.55924 0.99668 0.47784 0.0
H658 H 0.50394 0.96726 0.51652 0.0
C659 C 0.47188 0.04378 0.5411 0.0
C660 C 0.50814 0.02357 0.51229 0.0
C661 C 0.45515 0.05516 0.54514 0.0
C662 C 0.57598 0.97333 0.50229 0.0
C663 C 0.55902 0.9845 0.49786 0.0
C664 C 0.50539 0.98298 0.51547 0.0
C665 C 0.4717 0.02692 0.51794 0.0
C666 C 0.48961 0.01477 0.51449 0.0
C667 C 0.54194 0.97983 0.51863 0.0
C668 C 0.52393 0.99182 0.5149 0.0
H669 H 0.42422 0.02862 0.48834 0.0
H670 H 0.45362 0.00879 0.48088 0.0
H671 H 0.47444 0.98703 0.51725 0.0
H672 H 0.55875 0.94039 0.56821 0.0
H673 H 0.52957 0.96001 0.56116 0.0
C674 C 0.04954 0.05515 0.75197 0.0
C675 C 0.04177 0.07301 0.76453 0.0
C676 C 0.03772 0.03867 0.74889 0.0
C677 C 0.98633 0.02112 0.74871 0.0
H678 H 0.01044 0.9735 0.78606 0.0
C679 C 0.94275 0.95132 0.78709 0.0
C680 C 0.95076 0.93325 0.77601 0.0
C681 C 0.95335 0.96857 0.78239 0.0
C682 C 1.00355 0.9866 0.77505 0.0
H683 H 0.01536 0.08788 0.78223 0.0
H684 H 0.99463 0.05881 0.778 0.0
H685 H 0.02941 1.0034 0.78351 0.0
H686 H 0.9762 0.9193 0.75075 0.0
H687 H 0.9947 0.94947 0.74263 0.0
H688 H 0.96027 1.00419 0.74128 0.0
C689 C 0.00985 0.05764 0.76984 0.0
C690 C 0.01444 1.00378 0.77349 0.0
C691 C 0.02169 0.07429 0.77235 0.0
C692 C 0.96958 0.93292 0.7597 0.0
C693 C 0.98022 0.9502 0.75519 0.0
C694 C 0.97537 1.00389 0.75052 0.0
C695 C 0.01786 0.03951 0.759 0.0
C696 C 0.00603 0.02127 0.76018 0.0
C697 C 0.97226 0.9682 0.76669 0.0
C698 C 0.98389 0.98644 0.76368 0.0
H699 H 0.06492 0.05382 0.7451 0.0
H700 H 0.04429 0.02515 0.73926 0.0
H701 H 0.97942 0.03425 0.73796 0.0
H702 H 0.92831 0.95218 0.79976 0.0
H703 H 0.9469 0.98217 0.79197 0.0
C704 C 0.09504 0.14655 0.65916 0.0
C705 C 0.10265 0.13178 0.68298 0.0
C706 C 0.10239 0.14939 0.62172 0.0
C707 C 0.14215 0.13359 0.55363 0.0
H708 H 0.10152 0.14019 0.47652 0.0
C709 C 0.14393 0.1017 0.39913 0.0
C710 C 0.13524 0.1124 0.3689 0.0
C711 C 0.14404 0.10903 0.43699 0.0
C712 C 0.11315 0.13874 0.49763 0.0
H713 H 0.12442 0.10888 0.68677 0.0
H714 H 0.13659 0.11322 0.62132 0.0
H715 H 0.09371 0.14428 0.54462 0.0
H716 H 0.1213 0.1399 0.35431 0.0
H717 H 0.12139 0.15249 0.42037 0.0
H718 H 0.16121 0.1267 0.50614 0.0
C719 C 0.12537 0.12305 0.63163 0.0
C720 C 0.10869 0.14114 0.53681 0.0
C721 C 0.11824 0.12042 0.66918 0.0
C722 C 0.12789 0.13113 0.37692 0.0
C723 C 0.12792 0.13838 0.41476 0.0
C724 C 0.14654 0.13091 0.51435 0.0
C725 C 0.11728 0.1373 0.60709 0.0
C726 C 0.12297 0.13804 0.56543 0.0
C727 C 0.13541 0.12714 0.44533 0.0
C728 C 0.13194 0.13298 0.4861 0.0
H729 H 0.08322 0.15575 0.66922 0.0
H730 H 0.09608 0.16078 0.60395 0.0
H731 H 0.15363 0.13153 0.5748 0.0
H732 H 0.1499 0.08731 0.39396 0.0
H733 H 0.14982 0.09999 0.46006 0.0
C734 C 0.88422 0.61962 0.62305 0.0
C735 C 0.89883 0.63236 0.60988 0.0
C736 C 0.87655 0.62157 0.66039 0.0
C737 C 0.89127 0.64159 0.75525 0.0
H738 H 0.84129 0.62023 0.7869 0.0
C739 C 0.87527 0.62918 0.915 0.0
C740 C 0.87127 0.60946 0.92306 0.0
C741 C 0.8733 0.63644 0.87742 0.0
C742 C 0.85521 0.6264 0.77838 0.0
H743 H 0.91572 0.65814 0.62393 0.0
H744 H 0.90169 0.66218 0.68845 0.0
H745 H 0.84781 0.62606 0.71806 0.0
H746 H 0.86025 0.58241 0.89861 0.0
H747 H 0.85703 0.59514 0.83279 0.0
H748 H 0.89877 0.64168 0.81534 0.0
C749 C 0.89672 0.65013 0.67072 0.0
C750 C 0.85903 0.62963 0.739 0.0
C751 C 0.90471 0.64789 0.6337 0.0
C752 C 0.8637 0.5976 0.89333 0.0
C753 C 0.86168 0.60493 0.85568 0.0
C754 C 0.88733 0.63867 0.79447 0.0
C755 C 0.88306 0.63657 0.68511 0.0
C756 C 0.8774 0.63659 0.72685 0.0
C757 C 0.86721 0.62419 0.84714 0.0
C758 C 0.86954 0.63046 0.80633 0.0
H759 H 0.87942 0.60749 0.60528 0.0
H760 H 0.86631 0.61065 0.67042 0.0
H761 H 0.9057 0.64663 0.74729 0.0
H762 H 0.88078 0.63885 0.93731 0.0
H763 H 0.87741 0.65143 0.87164 0.0
C764 C 0.39281 0.39406 0.17208 0.0
C765 C 0.40269 0.37836 0.18904 0.0
C766 C 0.38611 0.39281 0.13399 0.0
C767 C 0.39406 0.36393 0.04361 0.0
H768 H 0.3563 0.40138 0.00596 0.0
C769 C 0.36383 0.40183 0.89126 0.0
C770 C 0.38137 0.40037 0.87051 0.0
C771 C 0.36245 0.39431 0.92891 0.0
C772 C 0.36656 0.39042 0.01555 0.0
H773 H 0.41236 0.34861 0.18085 0.0
H774 H 0.39938 0.34575 0.11517 0.0
H775 H 0.35933 0.39589 0.07469 0.0
H776 H 0.41116 0.39003 0.87218 0.0
H777 H 0.40947 0.37844 0.93837 0.0
H778 H 0.40024 0.35735 0.98445 0.0
C779 C 0.39761 0.35947 0.13027 0.0
C780 C 0.36865 0.3876 0.05545 0.0
C781 C 0.40494 0.36099 0.16804 0.0
C782 C 0.39742 0.39114 0.8876 0.0
C783 C 0.39629 0.38426 0.92559 0.0
C784 C 0.39142 0.36617 0.00369 0.0
C785 C 0.38854 0.37556 0.11223 0.0
C786 C 0.38325 0.37519 0.07015 0.0
C787 C 0.37884 0.38585 0.94708 0.0
C788 C 0.37847 0.3803 -0.01096 0.0
H789 H 0.39108 0.40768 0.18766 0.0
H790 H 0.37978 0.40578 0.12134 0.0
H791 H 0.4054 0.35409 0.05324 0.0
H792 H 0.35119 0.40875 0.87833 0.0
H793 H 0.34859 0.39542 0.94378 0.0
C794 C 0.64979 0.90262 0.40987 0.0
C795 C 0.63282 0.89986 0.43198 0.0
C796 C 0.65081 0.89556 0.37181 0.0
C797 C 0.62191 0.86661 0.298 0.0
H798 H 0.65032 0.89938 0.22606 0.0
C799 C 0.60571 0.86248 0.13411 0.0
C800 C 0.60673 0.88011 0.11363 0.0
C801 C 0.61345 0.86112 0.17159 0.0
C802 C 0.64199 0.89023 0.24559 0.0
H803 H 0.60372 0.88759 0.43223 0.0
H804 H 0.60473 0.87674 0.36559 0.0
H805 H 0.65466 0.90406 0.29474 0.0
H806 H 0.61634 0.91014 0.11576 0.0
H807 H 0.62828 0.90845 0.18168 0.0
H808 H 0.60753 0.85435 0.24902 0.0
C809 C 0.61779 0.88327 0.3775 0.0
C810 C 0.64488 0.8926 0.28541 0.0
C811 C 0.61706 0.88971 0.41582 0.0
C812 C 0.61559 0.89632 0.13095 0.0
C813 C 0.62269 0.8952 0.16876 0.0
C814 C 0.61844 0.86478 0.25824 0.0
C815 C 0.63459 0.88626 0.35462 0.0
C816 C 0.63431 0.88133 0.31234 0.0
C817 C 0.62171 0.8776 0.18985 0.0
C818 C 0.62787 0.87709 0.23146 0.0
H819 H 0.66222 0.91026 0.42199 0.0
H820 H 0.66423 0.89775 0.35581 0.0
H821 H 0.61414 0.85695 0.31747 0.0
H822 H 0.59907 0.84973 0.121 0.0
H823 H 0.61277 0.84717 0.18619 0.0
C824 C 0.12315 0.40098 0.62211 0.0
C825 C 0.11757 0.38358 0.6041 0.0
C826 C 0.13187 0.40063 0.65863 0.0
C827 C 0.13649 0.36779 0.74421 0.0
H828 H 0.16119 0.41429 0.78499 0.0
C829 C 0.15342 0.41021 0.89957 0.0
C830 C 0.13657 0.40365 0.91879 0.0
C831 C 0.15748 0.40398 0.86172 0.0
C832 C 0.15476 0.40091 0.77434 0.0
H833 H 0.11777 0.35212 0.60797 0.0
H834 H 0.13441 0.35124 0.67055 0.0
H835 H 0.15873 0.40991 0.71564 0.0
H836 H 0.11089 0.38537 0.9139 0.0
H837 H 0.11708 0.37561 0.84782 0.0
H838 H 0.13366 0.35821 0.80277 0.0
C839 C 0.13118 0.3653 0.65788 0.0
C840 C 0.15292 0.39859 0.73424 0.0
C841 C 0.12178 0.36572 0.62189 0.0
C842 C 0.12408 0.39054 0.89991 0.0
C843 C 0.12783 0.38473 0.86194 0.0
C844 C 0.13902 0.36976 0.78418 0.0
C845 C 0.1358 0.38279 0.67745 0.0
C846 C 0.14252 0.38267 0.71871 0.0
C847 C 0.14449 0.39148 0.84203 0.0
C848 C 0.1469 0.38698 0.79993 0.0
H849 H 0.11991 0.41491 0.60872 0.0
H850 H 0.13462 0.41449 0.67261 0.0
H851 H 0.12859 0.35515 0.73396 0.0
H852 H 0.16342 0.42017 0.91376 0.0
H853 H 0.17064 0.40923 0.8478 0.0
C854 C 0.62709 0.62493 0.17806 0.0
C855 C 0.60883 0.63346 0.18586 0.0
C856 C 0.63465 0.62486 0.14046 0.0
C857 C 0.63561 0.61187 0.0563 0.0
H858 H 0.6332 0.65476 0.98317 0.0
C859 C 0.6245 0.62275 0.8831 0.0
C860 C 0.63568 0.60701 0.86944 0.0
C861 C 0.62583 0.62868 0.92174 0.0
C862 C 0.63389 0.64261 0.00319 0.0
H863 H 0.58485 0.6498 0.16062 0.0
H864 H 0.59813 0.64963 0.09487 0.0
H865 H 0.62656 0.66069 0.0519 0.0
H866 H 0.65814 0.58611 0.8848 0.0
H867 H 0.66094 0.59687 0.95199 0.0
H868 H 0.64168 0.59349 0.00791 0.0
C869 C 0.60653 0.643 0.11798 0.0
C870 C 0.63017 0.64605 0.04251 0.0
C871 C 0.59887 0.64295 0.15559 0.0
C872 C 0.64909 0.59809 0.89464 0.0
C873 C 0.65064 0.60422 0.93319 0.0
C874 C 0.63906 0.60837 0.01704 0.0
C875 C 0.62422 0.63346 0.10991 0.0
C876 C 0.63061 0.63062 0.06926 0.0
C877 C 0.63859 0.61919 0.94755 0.0
C878 C 0.63779 0.6236 -0.0102 0.0
H879 H 0.63526 0.61762 0.20068 0.0
H880 H 0.64841 0.61757 0.13504 0.0
H881 H 0.6358 0.59964 0.07623 0.0
H882 H 0.614 0.62992 0.86445 0.0
H883 H 0.61611 0.64006 0.93173 0.0
C884 C 0.39561 0.11743 0.41348 0.0
C885 C 0.38015 0.10733 0.43092 0.0
C886 C 0.39401 0.12412 0.37545 0.0
C887 C 0.36456 0.11618 0.28579 0.0
H888 H 0.40088 0.15511 0.24812 0.0
C889 C 0.39063 0.11486 0.12877 0.0
C890 C 0.39963 0.13118 0.11214 0.0
C891 C 0.38386 0.11552 0.16689 0.0
C892 C 0.39022 0.14452 0.25772 0.0
H893 H 0.35049 0.09714 0.42348 0.0
H894 H 0.34702 0.11007 0.35785 0.0
H895 H 0.39606 0.15136 0.31688 0.0
H896 H 0.4076 0.16139 0.12085 0.0
H897 H 0.39439 0.16321 0.18651 0.0
H898 H 0.35758 0.11038 0.22666 0.0
C899 C 0.36081 0.11205 0.3726 0.0
C900 C 0.3878 0.14201 0.29763 0.0
C901 C 0.36269 0.10475 0.41034 0.0
C902 C 0.40087 0.14855 0.13343 0.0
C903 C 0.39343 0.14947 0.17121 0.0
C904 C 0.36639 0.11923 0.24588 0.0
C905 C 0.37663 0.12146 0.3542 0.0
C906 C 0.37583 0.12702 0.31227 0.0
C907 C 0.38532 0.13278 0.18899 0.0
C908 C 0.38011 0.13264 0.23115 0.0
H909 H 0.40931 0.1194 0.42869 0.0
H910 H 0.4068 0.13069 0.36245 0.0
H911 H 0.35505 0.10455 0.29541 0.0
H912 H 0.3897 0.10123 0.11292 0.0
H913 H 0.37829 0.10214 0.1793 0.0
C914 C 0.90463 0.85739 0.66144 0.0
C915 C 0.89662 0.87137 0.6866 0.0
C916 C 0.8986 0.85639 0.62278 0.0
C917 C 0.86282 0.87697 0.55114 0.0
H918 H 0.90684 0.87186 0.48113 0.0
C919 C 0.86817 0.91247 0.39929 0.0
C920 C 0.87761 0.90197 0.36964 0.0
C921 C 0.86674 0.90473 0.43673 0.0
C922 C 0.89429 0.87297 0.50015 0.0
H923 H 0.87523 0.89453 0.69164 0.0
H924 H 0.86533 0.89341 0.62404 0.0
H925 H 0.91116 0.86496 0.54949 0.0
H926 H 0.8918 0.87451 0.35568 0.0
H927 H 0.88941 0.86119 0.42097 0.0
H928 H 0.84637 0.88621 0.50143 0.0
C929 C 0.8759 0.88283 0.63411 0.0
C930 C 0.89672 0.86892 0.53948 0.0
C931 C 0.88167 0.88358 0.67295 0.0
C932 C 0.88463 0.88313 0.37783 0.0
C933 C 0.88329 0.87547 0.41524 0.0
C934 C 0.86046 0.88128 0.51171 0.0
C935 C 0.88473 0.86963 0.60821 0.0
C936 C 0.88115 0.87125 0.5657 0.0
C937 C 0.8748 0.88639 0.44528 0.0
C938 C 0.87629 0.87966 0.48602 0.0
H939 H 0.91597 0.84757 0.67135 0.0
H940 H 0.90533 0.84566 0.60399 0.0
H941 H 0.8504 0.87857 0.57031 0.0
H942 H 0.86244 0.92695 0.39396 0.0
H943 H 0.86023 0.91352 0.45942 0.0
C944 C 0.07964 0.10119 0.88053 0.0
C945 C 0.06757 0.11761 0.87742 0.0
C946 C 0.08403 0.09326 0.91672 0.0
C947 C 0.07206 0.09622 0.02276 0.0
H948 H 0.1253 0.0776 0.03265 0.0
C949 C 0.11483 0.09261 0.16657 0.0
C950 C 0.12465 0.07515 0.1752 0.0
C951 C 0.10593 0.09527 0.13059 0.0
C952 C 0.11032 0.08249 0.03019 0.0
H953 H 0.05007 0.13836 0.9094 0.0
H954 H 0.0587 0.12536 0.97321 0.0
H955 H 0.11311 0.08729 0.9694 0.0
H956 H 0.13297 0.04681 0.15278 0.0
H957 H 0.11793 0.05183 0.08884 0.0
H958 H 0.06999 0.09251 0.08449 0.0
C959 C 0.06429 0.11808 0.94765 0.0
C960 C 0.10321 0.08798 -0.00614 0.0
C961 C 0.05942 0.12566 0.91114 0.0
C962 C 0.12552 0.06042 0.1469 0.0
C963 C 0.11691 0.06326 0.11046 0.0
C964 C 0.07934 0.09107 0.05928 0.0
C965 C 0.07702 0.10199 0.95094 0.0
C966 C 0.08402 0.09508 -0.01042 0.0
C967 C 0.10697 0.08069 0.10215 0.0
C968 C 0.09858 0.08432 0.06329 0.0
H969 H 0.08586 0.09447 0.85497 0.0
H970 H 0.09325 0.08046 0.91776 0.0
H971 H 0.05713 0.10124 0.02068 0.0
H972 H 0.11393 0.10429 0.18762 0.0
H973 H 0.0986 0.10895 0.12465 0.0
C974 C 0.95414 0.61945 0.39375 0.0
C975 C 0.9386 0.6245 0.41846 0.0
C976 C 0.95039 0.61318 0.35567 0.0
C977 C 0.91371 0.61791 0.2795 0.0
H978 H 0.93329 0.56934 0.23691 0.0
C979 C 0.89731 0.5967 0.12304 0.0
C980 C 0.89042 0.57768 0.11651 0.0
C981 C 0.90575 0.60175 0.15835 0.0
C982 C 0.92772 0.58292 0.24855 0.0
H983 H 0.9071 0.62693 0.42287 0.0
H984 H 0.9007 0.61638 0.35691 0.0
H985 H 0.94375 0.57994 0.30189 0.0
H986 H 0.88754 0.54882 0.14152 0.0
H987 H 0.90205 0.55784 0.20422 0.0
H988 H 0.89735 0.62087 0.22721 0.0
C989 C 0.91571 0.61721 0.3667 0.0
C990 C 0.93386 0.58906 0.28541 0.0
C991 C 0.91939 0.6232 0.40454 0.0
C992 C 0.89261 0.56362 0.14587 0.0
C993 C 0.90106 0.56874 0.18155 0.0
C994 C 0.90771 0.61189 0.24283 0.0
C995 C 0.93111 0.61221 0.34181 0.0
C996 C 0.92662 0.60647 0.30138 0.0
C997 C 0.90741 0.58797 0.18829 0.0
C998 C 0.91449 0.59426 0.22701 0.0
H999 H 0.96908 0.62019 0.4039 0.0
H1000 H 0.96251 0.60943 0.3369 0.0
H1001 H 0.90799 0.63145 0.29108 0.0
H1002 H 0.89605 0.60786 0.10096 0.0
H1003 H 0.9108 0.61659 0.16239 0.0
C1004 C 0.39327 0.41826 0.66474 0.0
C1005 C 0.38778 0.43708 0.67648 0.0
C1006 C 0.40265 0.41529 0.6294 0.0
C1007 C 0.40877 0.43597 0.53274 0.0
H1008 H 0.44834 0.39565 0.52526 0.0
C1009 C 0.455 0.39037 0.40796 0.0
C1010 C 0.43922 0.38651 0.38307 0.0
C1011 C 0.45188 0.39976 0.4436 0.0
C1012 C 0.43759 0.4072 0.52682 0.0
H1013 H 0.38773 0.46763 0.66025 0.0
H1014 H 0.40411 0.46238 0.59769 0.0
H1015 H 0.43748 0.4068 0.58893 0.0
H1016 H 0.40787 0.38922 0.37609 0.0
H1017 H 0.40246 0.40519 0.43788 0.0
H1018 H 0.40863 0.43611 0.47062 0.0
C1019 C 0.4011 0.44994 0.61613 0.0
C1020 C 0.43121 0.41344 0.56328 0.0
C1021 C 0.39169 0.45294 0.65181 0.0
C1022 C 0.42036 0.39207 0.39449 0.0
C1023 C 0.41727 0.40144 0.4298 0.0
C1024 C 0.41517 0.42974 0.49628 0.0
C1025 C 0.40682 0.43106 0.60476 0.0
C1026 C 0.41617 0.42732 0.5666 0.0
C1027 C 0.43296 0.40551 0.45471 0.0
C1028 C 0.42907 0.41473 0.49294 0.0
H1029 H 0.39037 0.40571 0.68297 0.0
H1030 H 0.40637 0.40051 0.62111 0.0
H1031 H 0.39722 0.44671 0.53429 0.0
H1032 H 0.46972 0.38634 0.39976 0.0
H1033 H 0.46426 0.40269 0.46225 0.0
C1034 C 0.61955 0.9175 0.63796 0.0
C1035 C 0.62473 0.9364 0.62608 0.0
C1036 C 0.60984 0.91448 0.67294 0.0
C1037 C 0.60209 0.93564 0.76878 0.0
H1038 H 0.56351 0.8943 0.77577 0.0
C1039 C 0.55561 0.88997 0.89307 0.0
C1040 C 0.57122 0.88666 0.91868 0.0
C1041 C 0.55889 0.89912 0.85723 0.0
C1042 C 0.57397 0.90613 0.77431 0.0
H1043 H 0.62385 0.96702 0.64165 0.0
H1044 H 0.60688 0.96168 0.70352 0.0
H1045 H 0.57484 0.90523 0.71224 0.0
H1046 H 0.60245 0.89007 0.92668 0.0
H1047 H 0.60812 0.90564 0.8646 0.0
H1048 H 0.60148 0.93629 0.83087 0.0
C1049 C 0.6104 0.94922 0.68551 0.0
C1050 C 0.58063 0.91225 0.73795 0.0
C1051 C 0.62015 0.95227 0.65023 0.0
C1052 C 0.59008 0.89251 0.90775 0.0
C1053 C 0.59332 0.90164 0.87226 0.0
C1054 C 0.59541 0.92954 0.80513 0.0
C1055 C 0.60501 0.93027 0.69704 0.0
C1056 C 0.59533 0.92651 0.73488 0.0
C1057 C 0.57779 0.90517 0.84664 0.0
C1058 C 0.58188 0.91418 0.80831 0.0
H1059 H 0.62296 0.90494 0.62012 0.0
H1060 H 0.60638 0.89965 0.68139 0.0
H1061 H 0.61338 0.94669 0.76743 0.0
H1062 H 0.5409 0.8857 0.90086 0.0
H1063 H 0.54664 0.90162 0.83801 0.0
C1064 C 0.05696 0.38615 0.39517 0.0
C1065 C 0.07301 0.37966 0.41701 0.0
C1066 C 0.05956 0.39211 0.35653 0.0
C1067 C 0.09235 0.38562 0.27368 0.0
H1068 H 0.07719 0.43749 0.24039 0.0
C1069 C 0.10896 0.41147 0.11989 0.0
C1070 C 0.11764 0.42995 0.11623 0.0
C1071 C 0.10021 0.40581 0.15457 0.0
C1072 C 0.08148 0.42297 0.24935 0.0
H1073 H 0.10411 0.37388 0.41568 0.0
H1074 H 0.1085 0.38377 0.34855 0.0
H1075 H 0.06749 0.4257 0.30496 0.0
H1076 H 0.12335 0.45729 0.14568 0.0
H1077 H 0.10838 0.44712 0.2072 0.0
H1078 H 0.1069 0.38293 0.21922 0.0
C1079 C 0.09399 0.3844 0.36104 0.0
C1080 C 0.07574 0.41616 0.286 0.0
C1081 C 0.09148 0.3788 0.39951 0.0
C1082 C 0.11687 0.44291 0.14778 0.0
C1083 C 0.10816 0.43715 0.18282 0.0
C1084 C 0.09796 0.39232 0.23719 0.0
C1085 C 0.07814 0.39124 0.33922 0.0
C1086 C 0.08151 0.39757 0.29871 0.0
C1087 C 0.10006 0.41837 0.18672 0.0
C1088 C 0.09286 0.41117 0.22477 0.0
H1089 H 0.04261 0.3871 0.40821 0.0
H1090 H 0.04711 0.39732 0.34017 0.0
H1091 H 0.09693 0.3712 0.28277 0.0
H1092 H 0.10909 0.40118 0.09606 0.0
H1093 H 0.09379 0.39139 0.15639 0.0
C1094 C 0.61964 0.59382 0.66234 0.0
C1095 C 0.62422 0.57457 0.67278 0.0
C1096 C 0.61028 0.59782 0.62735 0.0
C1097 C 0.60244 0.57826 0.52981 0.0
H1098 H 0.56506 0.62067 0.52387 0.0
C1099 C 0.55607 0.62368 0.40565 0.0
C1100 C 0.57157 0.62673 0.3796 0.0
C1101 C 0.55953 0.61511 0.44199 0.0
C1102 C 0.57521 0.60859 0.52508 0.0
H1103 H 0.62256 0.54433 0.65476 0.0
H1104 H 0.60614 0.55133 0.59311 0.0
H1105 H 0.57621 0.60917 0.58718 0.0
H1106 H 0.60283 0.6236 0.37147 0.0
H1107 H 0.60879 0.60889 0.43425 0.0
H1108 H 0.60168 0.57788 0.46773 0.0
C1109 C 0.60991 0.56334 0.61211 0.0
C1110 C 0.58177 0.60214 0.56129 0.0
C1111 C 0.61934 0.55933 0.64731 0.0
C1112 C 0.59052 0.62131 0.39069 0.0
C1113 C 0.59394 0.61271 0.42661 0.0
C1114 C 0.59589 0.58471 0.49365 0.0
C1115 C 0.6052 0.58266 0.60186 0.0
C1116 C 0.59595 0.58734 0.56399 0.0
C1117 C 0.57851 0.60932 0.45256 0.0
C1118 C 0.58273 0.60038 0.49087 0.0
H1119 H 0.62329 0.6059 0.68126 0.0
H1120 H 0.60733 0.61288 0.61998 0.0
H1121 H 0.61335 0.56685 0.53081 0.0
H1122 H 0.5413 0.62768 0.39781 0.0
H1123 H 0.54737 0.61272 0.46153 0.0
C1124 C 0.39543 0.09101 0.63647 0.0
C1125 C 0.38956 0.07213 0.62582 0.0
C1126 C 0.4047 0.09433 0.6718 0.0
C1127 C 0.40926 0.07491 0.76978 0.0
H1128 H 0.44915 0.11495 0.77743 0.0
C1129 C 0.4542 0.12097 0.89542 0.0
C1130 C 0.4381 0.12525 0.91925 0.0
C1131 C 0.45147 0.1115 0.85974 0.0
C1132 C 0.43829 0.10349 0.77582 0.0
H1133 H 0.38885 0.04185 0.64381 0.0
H1134 H 0.40503 0.04772 0.70628 0.0
H1135 H 0.43909 0.10308 0.71372 0.0
H1136 H 0.40659 0.12335 0.92415 0.0
H1137 H 0.40186 0.10722 0.86228 0.0
H1138 H 0.40819 0.07558 0.83183 0.0
C1139 C 0.4024 0.05993 0.68704 0.0
C1140 C 0.43238 0.09683 0.73934 0.0
C1141 C 0.39311 0.05657 0.65141 0.0
C1142 C 0.41931 0.12015 0.9066 0.0
C1143 C 0.41661 0.1107 0.87127 0.0
C1144 C 0.41518 0.08155 0.80623 0.0
C1145 C 0.40836 0.07887 0.69749 0.0
C1146 C 0.41725 0.08304 0.7359 0.0
C1147 C 0.43262 0.10609 0.84756 0.0
C1148 C 0.42919 0.09648 0.80957 0.0
H1149 H 0.39284 0.10334 0.61751 0.0
H1150 H 0.40863 0.10916 0.67932 0.0
H1151 H 0.3976 0.06426 0.76816 0.0
H1152 H 0.46887 0.12465 0.90458 0.0
H1153 H 0.46409 0.10817 0.84199 0.0
C1154 C 0.89185 0.95342 0.14905 0.0
C1155 C 0.88924 0.93813 0.17572 0.0
C1156 C 0.90032 0.9498 0.11268 0.0
C1157 C 0.92991 0.91302 0.05935 0.0
H1158 H 0.90356 0.93285 0.96806 0.0
C1159 C 0.91607 0.88897 0.8921 0.0
C1160 C 0.93496 0.88424 0.87944 0.0
C1161 C 0.91318 0.89841 0.92745 0.0
C1162 C 0.91112 0.92724 -0.0067 0.0
H1163 H 0.89341 0.90711 0.1852 0.0
H1164 H 0.90783 0.90084 0.12221 0.0
H1165 H 0.89371 0.94428 0.03218 0.0
H1166 H 0.96571 0.88566 0.89394 0.0
H1167 H 0.96064 0.90217 0.95627 0.0
H1168 H 0.94661 0.89521 0.02062 0.0
C1169 C 0.90375 0.91567 0.12937 0.0
C1170 C 0.90562 0.93396 0.03 0.0
C1171 C 0.89528 0.91925 0.16542 0.0
C1172 C 0.95097 0.88903 0.90309 0.0
C1173 C 0.94806 0.8985 0.93869 0.0
C1174 C 0.9354 0.90629 0.02265 0.0
C1175 C 0.9064 0.93086 0.10254 0.0
C1176 C 0.91449 0.92641 0.06351 0.0
C1177 C 0.92911 0.90339 0.95112 0.0
C1178 C 0.92559 0.91282 -0.01068 0.0
H1179 H 0.88742 0.96813 0.1563 0.0
H1180 H 0.90221 0.96181 0.0926 0.0
H1181 H 0.93728 0.9072 0.08463 0.0
H1182 H 0.90342 0.88541 0.87465 0.0
H1183 H 0.89837 0.90152 0.93654 0.0
loop_
_geom_bond_atom_site_label_1
_geom_bond_atom_site_label_2
_geom_bond_distance
_geom_bond_site_symmetry_2
_ccdc_geom_bond_type
Co0 O1 2.216 . S
Co0 O2 2.091 . S
Co0 O4 2.004 . S
Co0 O10 2.021 . S
Co0 O12 2.137 . S
Co0 O13 2.244 . S
O1 Co0 2.216 . S
O1 C8 1.247 . S
O2 Co0 2.091 . S
O2 C8 1.261 . S
C3 O12 1.247 . S
C3 O13 1.272 . S
O4 Co0 2.004 . S
O4 C9 1.259 . S
Co5 O6 2.061 . S
Co5 O11 2.052 . S
Co5 O13 2.135 . S
O6 Co5 2.061 . S
O6 C9 1.235 . S
C7 O10 1.238 . S
C7 O11 1.241 . S
C8 O1 1.247 . S
C8 O2 1.261 . S
C9 O4 1.259 . S
C9 O6 1.235 . S
O10 Co0 2.021 . S
O10 C7 1.238 . S
O11 Co5 2.052 . S
O11 C7 1.241 . S
O12 Co0 2.137 . S
O12 C3 1.247 . S
O13 Co0 2.244 . S
O13 C3 1.272 . S
O13 Co5 2.135 . S
Co14 O15 2.216 . S
Co14 O16 2.091 . S
Co14 O18 2.004 . S
Co14 O24 2.021 . S
Co14 O26 2.137 . S
Co14 O27 2.244 . S
O15 Co14 2.216 . S
O15 C22 1.247 . S
O16 Co14 2.091 . S
O16 C22 1.261 . S
C17 O26 1.247 . S
C17 O27 1.272 . S
O18 Co14 2.004 . S
O18 C23 1.259 . S
Co19 O20 2.061 . S
Co19 O25 2.052 . S
Co19 O27 2.135 . S
O20 Co19 2.061 . S
O20 C23 1.235 . S
C21 O24 1.238 . S
C21 O25 1.241 . S
C22 O15 1.247 . S
C22 O16 1.261 . S
C23 O18 1.259 . S
C23 O20 1.235 . S
O24 Co14 2.021 . S
O24 C21 1.238 . S
O25 Co19 2.052 . S
O25 C21 1.241 . S
O26 Co14 2.137 . S
O26 C17 1.247 . S
O27 Co14 2.244 . S
O27 C17 1.272 . S
O27 Co19 2.135 . S
Co28 O29 2.216 . S
Co28 O30 2.091 . S
Co28 O32 2.004 . S
Co28 O38 2.021 . S
Co28 O40 2.137 . S
Co28 O41 2.244 . S
O29 Co28 2.216 . S
O29 C36 1.247 . S
O30 Co28 2.091 . S
O30 C36 1.261 . S
C31 O40 1.247 . S
C31 O41 1.272 . S
O32 Co28 2.004 . S
O32 C37 1.259 . S
Co33 O34 2.061 . S
Co33 O39 2.052 . S
Co33 O41 2.135 . S
O34 Co33 2.061 . S
O34 C37 1.235 . S
C35 O38 1.238 . S
C35 O39 1.241 . S
C36 O29 1.247 . S
C36 O30 1.261 . S
C37 O32 1.259 . S
C37 O34 1.235 . S
O38 Co28 2.021 . S
O38 C35 1.238 . S
O39 Co33 2.052 . S
O39 C35 1.241 . S
O40 Co28 2.137 . S
O40 C31 1.247 . S
O41 Co28 2.244 . S
O41 C31 1.272 . S
O41 Co33 2.135 . S
Co42 O43 2.216 . S
Co42 O44 2.091 . S
Co42 O46 2.004 . S
Co42 O52 2.021 . S
Co42 O54 2.137 1_554 S
Co42 O55 2.244 . S
O43 Co42 2.216 . S
O43 C50 1.247 . S
O44 Co42 2.091 . S
O44 C50 1.261 . S
C45 O54 1.247 . S
C45 O55 1.272 1_556 S
O46 Co42 2.004 . S
O46 C51 1.259 . S
Co47 O48 2.061 . S
Co47 O53 2.052 . S
Co47 O55 2.135 . S
O48 Co47 2.061 . S
O48 C51 1.235 . S
C49 O52 1.238 . S
C49 O53 1.241 . S
C50 O43 1.247 . S
C50 O44 1.261 . S
C51 O46 1.259 . S
C51 O48 1.235 . S
O52 Co42 2.021 . S
O52 C49 1.238 . S
O53 Co47 2.052 . S
O53 C49 1.241 . S
O54 Co42 2.137 1_556 S
O54 C45 1.247 . S
O55 Co42 2.244 . S
O55 C45 1.272 1_554 S
O55 Co47 2.135 . S
Co56 O57 2.216 . S
Co56 O58 2.091 1_554 S
Co56 O60 2.004 . S
Co56 O66 2.021 1_554 S
Co56 O68 2.137 . S
Co56 O69 2.244 . S
O57 Co56 2.216 . S
O57 C64 1.246 1_554 S
O58 Co56 2.091 1_556 S
O58 C64 1.261 . S
C59 O68 1.247 . S
C59 O69 1.272 . S
O60 Co56 2.004 . S
O60 C65 1.259 . S
Co61 O62 2.061 . S
Co61 O67 2.052 1_554 S
Co61 O69 2.135 . S
O62 Co61 2.061 . S
O62 C65 1.235 . S
C63 O66 1.238 . S
C63 O67 1.241 . S
C64 O57 1.246 1_556 S
C64 O58 1.261 . S
C65 O60 1.259 . S
C65 O62 1.235 . S
O66 Co56 2.021 1_556 S
O66 C63 1.238 . S
O67 Co61 2.052 1_556 S
O67 C63 1.241 . S
O68 Co56 2.137 . S
O68 C59 1.247 . S
O69 Co56 2.244 . S
O69 C59 1.272 . S
O69 Co61 2.135 . S
Co70 O71 2.216 . S
Co70 O72 2.091 . S
Co70 O74 2.004 . S
Co70 O80 2.021 . S
Co70 O82 2.137 . S
Co70 O83 2.244 . S
O71 Co70 2.216 . S
O71 C78 1.247 . S
O72 Co70 2.091 . S
O72 C78 1.261 . S
C73 O82 1.247 . S
C73 O83 1.272 . S
O74 Co70 2.004 . S
O74 C79 1.259 . S
Co75 O76 2.061 . S
Co75 O81 2.052 . S
Co75 O83 2.135 . S
O76 Co75 2.061 . S
O76 C79 1.235 . S
C77 O80 1.238 . S
C77 O81 1.241 . S
C78 O71 1.247 . S
C78 O72 1.261 . S
C79 O74 1.259 . S
C79 O76 1.235 . S
O80 Co70 2.021 . S
O80 C77 1.238 . S
O81 Co75 2.052 . S
O81 C77 1.241 . S
O82 Co70 2.137 . S
O82 C73 1.247 . S
O83 Co70 2.244 . S
O83 C73 1.272 . S
O83 Co75 2.135 . S
Co84 O85 2.216 . S
Co84 O86 2.091 . S
Co84 O88 2.004 . S
Co84 O94 2.021 . S
Co84 O96 2.137 . S
Co84 O97 2.244 . S
O85 Co84 2.216 . S
O85 C92 1.247 . S
O86 Co84 2.091 . S
O86 C92 1.261 . S
C87 O96 1.247 . S
C87 O97 1.272 . S
O88 Co84 2.004 . S
O88 C93 1.259 . S
Co89 O90 2.061 . S
Co89 O95 2.052 . S
Co89 O97 2.135 . S
O90 Co89 2.061 . S
O90 C93 1.235 . S
C91 O94 1.238 . S
C91 O95 1.241 . S
C92 O85 1.247 . S
C92 O86 1.261 . S
C93 O88 1.259 . S
C93 O90 1.235 . S
O94 Co84 2.021 . S
O94 C91 1.238 . S
O95 Co89 2.052 . S
O95 C91 1.241 . S
O96 Co84 2.137 . S
O96 C87 1.247 . S
O97 Co84 2.244 . S
O97 C87 1.272 . S
O97 Co89 2.135 . S
Co98 O99 2.216 . S
Co98 O100 2.091 . S
Co98 O102 2.004 . S
Co98 O108 2.021 . S
Co98 O110 2.137 . S
Co98 O111 2.244 . S
O99 Co98 2.216 . S
O99 C106 1.247 . S
O100 Co98 2.091 . S
O100 C106 1.261 . S
C101 O110 1.247 . S
C101 O111 1.272 . S
O102 Co98 2.004 . S
O102 C107 1.259 . S
Co103 O104 2.061 . S
Co103 O109 2.052 . S
Co103 O111 2.135 . S
O104 Co103 2.061 . S
O104 C107 1.235 . S
C105 O108 1.238 . S
C105 O109 1.241 . S
C106 O99 1.247 . S
C106 O100 1.261 . S
C107 O102 1.259 . S
C107 O104 1.235 . S
O108 Co98 2.021 . S
O108 C105 1.238 . S
O109 Co103 2.052 . S
O109 C105 1.241 . S
O110 Co98 2.137 . S
O110 C101 1.247 . S
O111 Co98 2.244 . S
O111 C101 1.272 . S
O111 Co103 2.135 . S
Co112 O113 2.216 . S
Co112 O114 2.091 . S
Co112 O116 2.004 . S
Co112 O122 2.021 . S
Co112 O124 2.137 . S
Co112 O125 2.244 . S
O113 Co112 2.216 . S
O113 C120 1.247 . S
O114 Co112 2.091 . S
O114 C120 1.261 . S
C115 O124 1.247 . S
C115 O125 1.272 . S
O116 Co112 2.004 . S
O116 C121 1.259 . S
Co117 O118 2.061 . S
Co117 O123 2.052 . S
Co117 O125 2.135 . S
O118 Co117 2.061 . S
O118 C121 1.235 . S
C119 O122 1.238 . S
C119 O123 1.241 . S
C120 O113 1.247 . S
C120 O114 1.261 . S
C121 O116 1.259 . S
C121 O118 1.235 . S
O122 Co112 2.021 . S
O122 C119 1.238 . S
O123 Co117 2.052 . S
O123 C119 1.241 . S
O124 Co112 2.137 . S
O124 C115 1.247 . S
O125 Co112 2.244 . S
O125 C115 1.272 . S
O125 Co117 2.135 . S
Co126 O127 2.216 . S
Co126 O128 2.091 . S
Co126 O130 2.004 . S
Co126 O136 2.021 . S
Co126 O138 2.137 1_554 S
Co126 O139 2.244 . S
O127 Co126 2.216 . S
O127 C134 1.247 . S
O128 Co126 2.091 . S
O128 C134 1.261 . S
C129 O138 1.247 . S
C129 O139 1.272 1_556 S
O130 Co126 2.004 . S
O130 C135 1.259 . S
Co131 O132 2.061 . S
Co131 O137 2.052 . S
Co131 O139 2.135 . S
O132 Co131 2.061 . S
O132 C135 1.235 . S
C133 O136 1.238 . S
C133 O137 1.241 . S
C134 O127 1.247 . S
C134 O128 1.261 . S
C135 O130 1.259 . S
C135 O132 1.235 . S
O136 Co126 2.021 . S
O136 C133 1.238 . S
O137 Co131 2.052 . S
O137 C133 1.241 . S
O138 Co126 2.137 1_556 S
O138 C129 1.247 . S
O139 Co126 2.244 . S
O139 C129 1.272 1_554 S
O139 Co131 2.135 . S
Co140 O141 2.216 . S
Co140 O142 2.091 . S
Co140 O144 2.004 . S
Co140 O150 2.021 . S
Co140 O152 2.137 . S
Co140 O153 2.244 . S
O141 Co140 2.216 . S
O141 C148 1.247 . S
O142 Co140 2.091 . S
O142 C148 1.261 . S
C143 O152 1.247 . S
C143 O153 1.272 . S
O144 Co140 2.004 . S
O144 C149 1.259 . S
Co145 O146 2.061 . S
Co145 O151 2.052 . S
Co145 O153 2.135 . S
O146 Co145 2.061 . S
O146 C149 1.235 . S
C147 O150 1.238 . S
C147 O151 1.241 . S
C148 O141 1.247 . S
C148 O142 1.261 . S
C149 O144 1.259 . S
C149 O146 1.235 . S
O150 Co140 2.021 . S
O150 C147 1.238 . S
O151 Co145 2.052 . S
O151 C147 1.241 . S
O152 Co140 2.137 . S
O152 C143 1.247 . S
O153 Co140 2.244 . S
O153 C143 1.272 . S
O153 Co145 2.135 . S
Co154 O155 2.216 . S
Co154 O156 2.091 . S
Co154 O158 2.004 . S
Co154 O164 2.021 . S
Co154 O166 2.137 . S
Co154 O167 2.244 . S
O155 Co154 2.216 . S
O155 C162 1.247 . S
O156 Co154 2.091 . S
O156 C162 1.261 . S
C157 O166 1.247 . S
C157 O167 1.272 . S
O158 Co154 2.004 . S
O158 C163 1.259 . S
Co159 O160 2.061 . S
Co159 O165 2.052 . S
Co159 O167 2.135 . S
O160 Co159 2.061 . S
O160 C163 1.235 . S
C161 O164 1.238 . S
C161 O165 1.241 . S
C162 O155 1.247 . S
C162 O156 1.261 . S
C163 O158 1.259 . S
C163 O160 1.235 . S
O164 Co154 2.021 . S
O164 C161 1.238 . S
O165 Co159 2.052 . S
O165 C161 1.241 . S
O166 Co154 2.137 . S
O166 C157 1.247 . S
O167 Co154 2.244 . S
O167 C157 1.272 . S
O167 Co159 2.135 . S
Co168 O169 2.216 . S
Co168 O170 2.091 . S
Co168 O172 2.004 . S
Co168 O178 2.021 . S
Co168 O180 2.137 . S
Co168 O181 2.244 . S
O169 Co168 2.216 . S
O169 C176 1.247 . S
O170 Co168 2.091 . S
O170 C176 1.261 . S
C171 O180 1.247 . S
C171 O181 1.272 . S
O172 Co168 2.004 . S
O172 C177 1.259 . S
Co173 O174 2.061 . S
Co173 O179 2.052 . S
Co173 O181 2.135 . S
O174 Co173 2.061 . S
O174 C177 1.235 . S
C175 O178 1.238 . S
C175 O179 1.241 . S
C176 O169 1.247 . S
C176 O170 1.261 . S
C177 O172 1.259 . S
C177 O174 1.235 . S
O178 Co168 2.021 . S
O178 C175 1.238 . S
O179 Co173 2.052 . S
O179 C175 1.241 . S
O180 Co168 2.137 . S
O180 C171 1.247 . S
O181 Co168 2.244 . S
O181 C171 1.272 . S
O181 Co173 2.135 . S
Co182 O183 2.216 . S
Co182 O184 2.091 . S
Co182 O186 2.004 . S
Co182 O192 2.021 . S
Co182 O194 2.137 . S
Co182 O195 2.244 . S
O183 Co182 2.216 . S
O183 C190 1.247 . S
O184 Co182 2.091 . S
O184 C190 1.261 . S
C185 O194 1.247 . S
C185 O195 1.272 . S
O186 Co182 2.004 . S
O186 C191 1.259 . S
Co187 O188 2.061 . S
Co187 O193 2.052 . S
Co187 O195 2.135 . S
O188 Co187 2.061 . S
O188 C191 1.235 . S
C189 O192 1.238 . S
C189 O193 1.241 . S
C190 O183 1.247 . S
C190 O184 1.261 . S
C191 O186 1.259 . S
C191 O188 1.235 . S
O192 Co182 2.021 . S
O192 C189 1.238 . S
O193 Co187 2.052 . S
O193 C189 1.241 . S
O194 Co182 2.137 . S
O194 C185 1.247 . S
O195 Co182 2.244 . S
O195 C185 1.272 . S
O195 Co187 2.135 . S
Co196 O197 2.216 . S
Co196 O198 2.091 1_554 S
Co196 O200 2.004 . S
Co196 O206 2.021 1_554 S
Co196 O208 2.137 . S
Co196 O209 2.244 . S
O197 Co196 2.216 . S
O197 C204 1.246 1_554 S
O198 Co196 2.091 1_556 S
O198 C204 1.261 . S
C199 O208 1.247 . S
C199 O209 1.272 . S
O200 Co196 2.004 . S
O200 C205 1.259 . S
Co201 O202 2.061 . S
Co201 O207 2.052 1_554 S
Co201 O209 2.135 . S
O202 Co201 2.061 . S
O202 C205 1.235 . S
C203 O206 1.238 . S
C203 O207 1.241 . S
C204 O197 1.246 1_556 S
C204 O198 1.261 . S
C205 O200 1.259 . S
C205 O202 1.235 . S
O206 Co196 2.021 1_556 S
O206 C203 1.238 . S
O207 Co201 2.052 1_556 S
O207 C203 1.241 . S
O208 Co196 2.137 . S
O208 C199 1.247 . S
O209 Co196 2.244 . S
O209 C199 1.272 . S
O209 Co201 2.135 . S
Co210 O211 2.216 . S
Co210 O212 2.091 . S
Co210 O214 2.004 . S
Co210 O220 2.021 . S
Co210 O222 2.137 . S
Co210 O223 2.244 . S
O211 Co210 2.216 . S
O211 C218 1.247 . S
O212 Co210 2.091 . S
O212 C218 1.261 . S
C213 O222 1.247 . S
C213 O223 1.272 . S
O214 Co210 2.004 . S
O214 C219 1.259 . S
Co215 O216 2.061 . S
Co215 O221 2.052 . S
Co215 O223 2.135 . S
O216 Co215 2.061 . S
O216 C219 1.235 . S
C217 O220 1.238 . S
C217 O221 1.241 . S
C218 O211 1.247 . S
C218 O212 1.261 . S
C219 O214 1.259 . S
C219 O216 1.235 . S
O220 Co210 2.021 . S
O220 C217 1.238 . S
O221 Co215 2.052 . S
O221 C217 1.241 . S
O222 Co210 2.137 . S
O222 C213 1.247 . S
O223 Co210 2.244 . S
O223 C213 1.272 . S
O223 Co215 2.135 . S
C224 C225 1.349 . S
C224 C226 1.327 . S
C224 H249 0.950 . S
C225 C224 1.349 . S
C225 C241 1.349 . S
C226 C224 1.327 . S
C226 C245 1.429 . S
C226 H250 0.950 . S
C227 C244 1.574 . S
C227 C246 1.368 . S
C227 H251 0.949 . S
H228 C232 0.949 . S
C229 C230 1.349 . S
C229 C231 1.327 . S
C229 H252 0.950 . S
C230 C229 1.349 . S
C230 C242 1.349 . S
C231 C229 1.327 . S
C231 C247 1.429 . S
C231 H253 0.950 . S
C232 H228 0.949 . S
C232 C240 1.574 . S
C232 C248 1.368 . S
H233 C241 0.950 . S
H234 C239 0.950 . S
H235 C240 0.949 . S
H236 C242 0.950 . S
H237 C243 0.950 . S
H238 C244 0.949 . S
C239 H234 0.950 . S
C239 C241 1.327 . S
C239 C245 1.429 . S
C240 C232 1.574 . S
C240 H235 0.949 . S
C240 C246 1.368 . S
C241 C225 1.349 . S
C241 H233 0.950 . S
C241 C239 1.327 . S
C242 C230 1.349 . S
C242 H236 0.950 . S
C242 C243 1.327 . S
C243 H237 0.950 . S
C243 C242 1.327 . S
C243 C247 1.429 . S
C244 C227 1.574 . S
C244 H238 0.949 . S
C244 C248 1.368 . S
C245 C226 1.429 . S
C245 C239 1.429 . S
C245 C246 1.523 . S
C246 C227 1.368 . S
C246 C240 1.368 . S
C246 C245 1.523 . S
C247 C231 1.429 . S
C247 C243 1.429 . S
C247 C248 1.523 . S
C248 C232 1.368 . S
C248 C244 1.368 . S
C248 C247 1.523 . S
H249 C224 0.950 . S
H250 C226 0.950 . S
H251 C227 0.949 . S
H252 C229 0.950 . S
H253 C231 0.950 . S
C254 C255 1.349 . S
C254 C256 1.327 . S
C254 H279 0.950 . S
C255 C254 1.349 . S
C255 C271 1.349 . S
C256 C254 1.327 . S
C256 C275 1.429 . S
C256 H280 0.950 . S
C257 C274 1.574 . S
C257 C276 1.368 . S
C257 H281 0.949 . S
H258 C262 0.949 . S
C259 C260 1.349 . S
C259 C261 1.327 . S
C259 H282 0.950 . S
C260 C259 1.349 . S
C260 C272 1.349 . S
C261 C259 1.327 . S
C261 C277 1.429 . S
C261 H283 0.950 . S
C262 H258 0.949 . S
C262 C270 1.574 . S
C262 C278 1.368 . S
H263 C271 0.950 . S
H264 C269 0.950 . S
H265 C270 0.949 . S
H266 C272 0.950 . S
H267 C273 0.950 . S
H268 C274 0.949 . S
C269 H264 0.950 . S
C269 C271 1.327 . S
C269 C275 1.429 . S
C270 C262 1.574 . S
C270 H265 0.949 . S
C270 C276 1.368 . S
C271 C255 1.349 . S
C271 H263 0.950 . S
C271 C269 1.327 . S
C272 C260 1.349 . S
C272 H266 0.950 . S
C272 C273 1.327 . S
C273 H267 0.950 . S
C273 C272 1.327 . S
C273 C277 1.429 . S
C274 C257 1.574 . S
C274 H268 0.949 . S
C274 C278 1.368 . S
C275 C256 1.429 . S
C275 C269 1.429 . S
C275 C276 1.523 . S
C276 C257 1.368 . S
C276 C270 1.368 . S
C276 C275 1.523 . S
C277 C261 1.429 . S
C277 C273 1.429 . S
C277 C278 1.523 . S
C278 C262 1.368 . S
C278 C274 1.368 . S
C278 C277 1.523 . S
H279 C254 0.950 . S
H280 C256 0.950 . S
H281 C257 0.949 . S
H282 C259 0.950 . S
H283 C261 0.950 . S
C284 C285 1.349 . S
C284 C286 1.327 . S
C284 H309 0.950 . S
C285 C284 1.349 . S
C285 C301 1.349 . S
C286 C284 1.327 . S
C286 C305 1.429 . S
C286 H310 0.950 . S
C287 C304 1.574 . S
C287 C306 1.368 . S
C287 H311 0.949 . S
H288 C292 0.949 . S
C289 C290 1.349 . S
C289 C291 1.327 . S
C289 H312 0.950 1_556 S
C290 C289 1.349 . S
C290 C302 1.349 . S
C291 C289 1.327 . S
C291 C307 1.429 . S
C291 H313 0.950 . S
C292 H288 0.949 . S
C292 C300 1.574 . S
C292 C308 1.368 . S
H293 C301 0.950 . S
H294 C299 0.950 . S
H295 C300 0.949 . S
H296 C302 0.950 . S
H297 C303 0.950 . S
H298 C304 0.949 . S
C299 H294 0.950 . S
C299 C301 1.327 . S
C299 C305 1.429 . S
C300 C292 1.574 . S
C300 H295 0.949 . S
C300 C306 1.368 . S
C301 C285 1.349 . S
C301 H293 0.950 . S
C301 C299 1.327 . S
C302 C290 1.349 . S
C302 H296 0.950 . S
C302 C303 1.327 . S
C303 H297 0.950 . S
C303 C302 1.327 . S
C303 C307 1.429 . S
C304 C287 1.574 . S
C304 H298 0.949 . S
C304 C308 1.368 . S
C305 C286 1.429 . S
C305 C299 1.429 . S
C305 C306 1.523 . S
C306 C287 1.368 . S
C306 C300 1.368 . S
C306 C305 1.523 . S
C307 C291 1.429 . S
C307 C303 1.429 . S
C307 C308 1.523 . S
C308 C292 1.368 . S
C308 C304 1.368 . S
C308 C307 1.523 . S
H309 C284 0.950 . S
H310 C286 0.950 . S
H311 C287 0.949 . S
H312 C289 0.950 1_554 S
H313 C291 0.950 . S
C314 C315 1.349 . S
C314 C316 1.327 . S
C314 H339 0.950 . S
C315 C314 1.349 . S
C315 C331 1.349 . S
C316 C314 1.327 . S
C316 C335 1.429 . S
C316 H340 0.950 . S
C317 C334 1.574 . S
C317 C336 1.368 . S
C317 H341 0.949 . S
H318 C322 0.949 . S
C319 C320 1.349 . S
C319 C321 1.327 . S
C319 H342 0.950 . S
C320 C319 1.349 . S
C320 C332 1.349 . S
C321 C319 1.327 . S
C321 C337 1.429 . S
C321 H343 0.950 . S
C322 H318 0.949 . S
C322 C330 1.574 . S
C322 C338 1.368 . S
H323 C331 0.950 . S
H324 C329 0.950 . S
H325 C330 0.949 . S
H326 C332 0.950 . S
H327 C333 0.950 . S
H328 C334 0.949 . S
C329 H324 0.950 . S
C329 C331 1.327 . S
C329 C335 1.429 . S
C330 C322 1.574 . S
C330 H325 0.949 . S
C330 C336 1.368 . S
C331 C315 1.349 . S
C331 H323 0.950 . S
C331 C329 1.327 . S
C332 C320 1.349 . S
C332 H326 0.950 . S
C332 C333 1.327 . S
C333 H327 0.950 . S
C333 C332 1.327 . S
C333 C337 1.429 . S
C334 C317 1.574 . S
C334 H328 0.949 . S
C334 C338 1.368 . S
C335 C316 1.429 . S
C335 C329 1.429 . S
C335 C336 1.523 . S
C336 C317 1.368 . S
C336 C330 1.368 . S
C336 C335 1.523 . S
C337 C321 1.429 . S
C337 C333 1.429 . S
C337 C338 1.523 . S
C338 C322 1.368 . S
C338 C334 1.368 . S
C338 C337 1.523 . S
H339 C314 0.950 . S
H340 C316 0.950 . S
H341 C317 0.949 . S
H342 C319 0.950 . S
H343 C321 0.950 . S
C344 C345 1.349 . S
C344 C346 1.327 . S
C344 H369 0.950 . S
C345 C344 1.349 . S
C345 C361 1.349 . S
C346 C344 1.327 . S
C346 C365 1.429 . S
C346 H370 0.950 . S
C347 C364 1.574 . S
C347 C366 1.368 . S
C347 H371 0.949 . S
H348 C352 0.949 . S
C349 C350 1.349 . S
C349 C351 1.327 . S
C349 H372 0.950 1_556 S
C350 C349 1.349 . S
C350 C362 1.349 . S
C351 C349 1.327 . S
C351 C367 1.429 . S
C351 H373 0.950 . S
C352 H348 0.949 . S
C352 C360 1.574 . S
C352 C368 1.368 . S
H353 C361 0.950 . S
H354 C359 0.950 . S
H355 C360 0.949 . S
H356 C362 0.950 . S
H357 C363 0.950 . S
H358 C364 0.949 . S
C359 H354 0.950 . S
C359 C361 1.327 . S
C359 C365 1.429 . S
C360 C352 1.574 . S
C360 H355 0.949 . S
C360 C366 1.368 . S
C361 C345 1.349 . S
C361 H353 0.950 . S
C361 C359 1.327 . S
C362 C350 1.349 . S
C362 H356 0.950 . S
C362 C363 1.327 . S
C363 H357 0.950 . S
C363 C362 1.327 . S
C363 C367 1.429 . S
C364 C347 1.574 . S
C364 H358 0.949 . S
C364 C368 1.368 . S
C365 C346 1.429 . S
C365 C359 1.429 . S
C365 C366 1.523 . S
C366 C347 1.368 . S
C366 C360 1.368 . S
C366 C365 1.523 . S
C367 C351 1.429 . S
C367 C363 1.429 . S
C367 C368 1.523 . S
C368 C352 1.368 . S
C368 C364 1.368 . S
C368 C367 1.523 . S
H369 C344 0.950 . S
H370 C346 0.950 . S
H371 C347 0.949 . S
H372 C349 0.950 1_554 S
H373 C351 0.950 . S
C374 C375 1.349 . S
C374 C376 1.327 . S
C374 H399 0.950 . S
C375 C374 1.349 . S
C375 C391 1.349 . S
C376 C374 1.327 . S
C376 C395 1.429 . S
C376 H400 0.950 . S
C377 C394 1.574 . S
C377 C396 1.368 . S
C377 H401 0.949 . S
H378 C382 0.949 . S
C379 C380 1.349 . S
C379 C381 1.327 . S
C379 H402 0.950 . S
C380 C379 1.349 . S
C380 C392 1.349 . S
C381 C379 1.327 . S
C381 C397 1.429 . S
C381 H403 0.950 . S
C382 H378 0.949 . S
C382 C390 1.574 . S
C382 C398 1.368 . S
H383 C391 0.950 . S
H384 C389 0.950 . S
H385 C390 0.949 . S
H386 C392 0.950 . S
H387 C393 0.950 . S
H388 C394 0.949 . S
C389 H384 0.950 . S
C389 C391 1.327 . S
C389 C395 1.429 . S
C390 C382 1.574 . S
C390 H385 0.949 . S
C390 C396 1.368 . S
C391 C375 1.349 . S
C391 H383 0.950 . S
C391 C389 1.327 . S
C392 C380 1.349 . S
C392 H386 0.950 . S
C392 C393 1.327 . S
C393 H387 0.950 . S
C393 C392 1.327 . S
C393 C397 1.429 . S
C394 C377 1.574 . S
C394 H388 0.949 . S
C394 C398 1.368 . S
C395 C376 1.429 . S
C395 C389 1.429 . S
C395 C396 1.523 . S
C396 C377 1.368 . S
C396 C390 1.368 . S
C396 C395 1.523 . S
C397 C381 1.429 . S
C397 C393 1.429 . S
C397 C398 1.523 . S
C398 C382 1.368 . S
C398 C394 1.368 . S
C398 C397 1.523 . S
H399 C374 0.950 . S
H400 C376 0.950 . S
H401 C377 0.949 . S
H402 C379 0.950 . S
H403 C381 0.950 . S
C404 C405 1.349 . S
C404 C406 1.327 . S
C404 H429 0.950 . S
C405 C404 1.349 . S
C405 C421 1.349 . S
C406 C404 1.327 . S
C406 C425 1.429 . S
C406 H430 0.950 . S
C407 C424 1.574 . S
C407 C426 1.368 . S
C407 H431 0.949 . S
H408 C412 0.949 . S
C409 C410 1.349 . S
C409 C411 1.327 . S
C409 H432 0.950 . S
C410 C409 1.349 . S
C410 C422 1.349 . S
C411 C409 1.327 . S
C411 C427 1.429 . S
C411 H433 0.950 . S
C412 H408 0.949 . S
C412 C420 1.574 . S
C412 C428 1.368 . S
H413 C421 0.950 . S
H414 C419 0.950 . S
H415 C420 0.949 . S
H416 C422 0.950 . S
H417 C423 0.950 . S
H418 C424 0.949 . S
C419 H414 0.950 . S
C419 C421 1.327 . S
C419 C425 1.429 . S
C420 C412 1.574 . S
C420 H415 0.949 . S
C420 C426 1.368 . S
C421 C405 1.349 . S
C421 H413 0.950 . S
C421 C419 1.327 . S
C422 C410 1.349 . S
C422 H416 0.950 . S
C422 C423 1.327 . S
C423 H417 0.950 . S
C423 C422 1.327 . S
C423 C427 1.429 . S
C424 C407 1.574 . S
C424 H418 0.949 . S
C424 C428 1.368 . S
C425 C406 1.429 . S
C425 C419 1.429 . S
C425 C426 1.523 . S
C426 C407 1.368 . S
C426 C420 1.368 . S
C426 C425 1.523 . S
C427 C411 1.429 . S
C427 C423 1.429 . S
C427 C428 1.523 . S
C428 C412 1.368 . S
C428 C424 1.368 . S
C428 C427 1.523 . S
H429 C404 0.950 . S
H430 C406 0.950 . S
H431 C407 0.949 . S
H432 C409 0.950 . S
H433 C411 0.950 . S
C434 C435 1.349 . S
C434 C436 1.327 . S
C434 H459 0.950 . S
C435 C434 1.349 . S
C435 C451 1.349 . S
C436 C434 1.327 . S
C436 C455 1.429 . S
C436 H460 0.950 . S
C437 C454 1.574 . S
C437 C456 1.368 . S
C437 H461 0.949 . S
H438 C442 0.949 . S
C439 C440 1.349 . S
C439 C441 1.327 . S
C439 H462 0.950 . S
C440 C439 1.349 . S
C440 C452 1.349 . S
C441 C439 1.327 . S
C441 C457 1.429 . S
C441 H463 0.950 . S
C442 H438 0.949 . S
C442 C450 1.574 . S
C442 C458 1.368 . S
H443 C451 0.950 . S
H444 C449 0.950 . S
H445 C450 0.949 . S
H446 C452 0.950 . S
H447 C453 0.950 . S
H448 C454 0.949 . S
C449 H444 0.950 . S
C449 C451 1.327 . S
C449 C455 1.429 . S
C450 C442 1.574 . S
C450 H445 0.949 . S
C450 C456 1.368 . S
C451 C435 1.349 . S
C451 H443 0.950 . S
C451 C449 1.327 . S
C452 C440 1.349 . S
C452 H446 0.950 . S
C452 C453 1.327 . S
C453 H447 0.950 . S
C453 C452 1.327 . S
C453 C457 1.429 . S
C454 C437 1.574 . S
C454 H448 0.949 . S
C454 C458 1.368 . S
C455 C436 1.429 . S
C455 C449 1.429 . S
C455 C456 1.523 . S
C456 C437 1.368 . S
C456 C450 1.368 . S
C456 C455 1.523 . S
C457 C441 1.429 . S
C457 C453 1.429 . S
C457 C458 1.523 . S
C458 C442 1.368 . S
C458 C454 1.368 . S
C458 C457 1.523 . S
H459 C434 0.950 . S
H460 C436 0.950 . S
H461 C437 0.949 . S
H462 C439 0.950 . S
H463 C441 0.950 . S
C464 C465 1.349 . S
C464 C466 1.327 . S
C464 H489 0.950 . S
C465 C464 1.349 . S
C465 C481 1.349 . S
C466 C464 1.327 . S
C466 C485 1.429 . S
C466 H490 0.950 . S
C467 C484 1.574 1_455 S
C467 C486 1.368 1_565 S
C467 H491 0.949 . S
H468 C472 0.949 . S
C469 C470 1.349 . S
C469 C471 1.327 . S
C469 H492 0.950 . S
C470 C469 1.349 . S
C470 C482 1.349 . S
C471 C469 1.327 . S
C471 C487 1.429 . S
C471 H493 0.950 . S
C472 H468 0.949 . S
C472 C480 1.574 1_655 S
C472 C488 1.368 1_545 S
H473 C481 0.950 . S
H474 C479 0.950 . S
H475 C480 0.949 . S
H476 C482 0.950 . S
H477 C483 0.950 . S
H478 C484 0.949 . S
C479 H474 0.950 . S
C479 C481 1.327 . S
C479 C485 1.429 . S
C480 C472 1.574 1_455 S
C480 H475 0.949 . S
C480 C486 1.368 . S
C481 C465 1.349 . S
C481 H473 0.950 . S
C481 C479 1.327 . S
C482 C470 1.349 . S
C482 H476 0.950 . S
C482 C483 1.327 . S
C483 H477 0.950 . S
C483 C482 1.327 . S
C483 C487 1.429 . S
C484 C467 1.574 1_655 S
C484 H478 0.949 . S
C484 C488 1.368 . S
C485 C466 1.429 . S
C485 C479 1.429 . S
C485 C486 1.523 . S
C486 C467 1.368 1_545 S
C486 C480 1.368 . S
C486 C485 1.523 . S
C487 C471 1.429 . S
C487 C483 1.429 . S
C487 C488 1.523 . S
C488 C472 1.368 1_565 S
C488 C484 1.368 . S
C488 C487 1.523 . S
H489 C464 0.950 . S
H490 C466 0.950 . S
H491 C467 0.949 . S
H492 C469 0.950 . S
H493 C471 0.950 . S
C494 C495 1.349 . S
C494 C496 1.327 . S
C494 H519 0.950 . S
C495 C494 1.349 . S
C495 C511 1.349 . S
C496 C494 1.327 . S
C496 C515 1.429 . S
C496 H520 0.950 . S
C497 C514 1.574 . S
C497 C516 1.368 . S
C497 H521 0.949 . S
H498 C502 0.949 . S
C499 C500 1.349 . S
C499 C501 1.327 . S
C499 H522 0.950 . S
C500 C499 1.349 . S
C500 C512 1.349 . S
C501 C499 1.327 . S
C501 C517 1.429 . S
C501 H523 0.950 . S
C502 H498 0.949 . S
C502 C510 1.574 . S
C502 C518 1.368 . S
H503 C511 0.950 . S
H504 C509 0.950 . S
H505 C510 0.949 . S
H506 C512 0.950 . S
H507 C513 0.950 . S
H508 C514 0.949 . S
C509 H504 0.950 . S
C509 C511 1.327 . S
C509 C515 1.429 . S
C510 C502 1.574 . S
C510 H505 0.949 . S
C510 C516 1.368 1_455 S
C511 C495 1.349 . S
C511 H503 0.950 . S
C511 C509 1.327 . S
C512 C500 1.349 . S
C512 H506 0.950 . S
C512 C513 1.327 . S
C513 H507 0.950 . S
C513 C512 1.327 . S
C513 C517 1.429 . S
C514 C497 1.574 . S
C514 H508 0.949 . S
C514 C518 1.368 1_655 S
C515 C496 1.429 . S
C515 C509 1.429 . S
C515 C516 1.523 . S
C516 C497 1.368 . S
C516 C510 1.368 1_655 S
C516 C515 1.523 . S
C517 C501 1.429 . S
C517 C513 1.429 . S
C517 C518 1.523 . S
C518 C502 1.368 . S
C518 C514 1.368 1_455 S
C518 C517 1.523 . S
H519 C494 0.950 . S
H520 C496 0.950 . S
H521 C497 0.949 . S
H522 C499 0.950 . S
H523 C501 0.950 . S
C524 C525 1.349 . S
C524 C526 1.327 . S
C524 H549 0.950 . S
C525 C524 1.349 . S
C525 C541 1.349 . S
C526 C524 1.327 . S
C526 C545 1.429 . S
C526 H550 0.950 . S
C527 C544 1.574 . S
C527 C546 1.368 . S
C527 H551 0.949 . S
H528 C532 0.949 . S
C529 C530 1.349 . S
C529 C531 1.327 . S
C529 H552 0.950 . S
C530 C529 1.349 . S
C530 C542 1.349 . S
C531 C529 1.327 . S
C531 C547 1.429 . S
C531 H553 0.950 . S
C532 H528 0.949 . S
C532 C540 1.574 . S
C532 C548 1.368 . S
H533 C541 0.950 . S
H534 C539 0.950 . S
H535 C540 0.949 . S
H536 C542 0.950 . S
H537 C543 0.950 . S
H538 C544 0.949 . S
C539 H534 0.950 . S
C539 C541 1.327 . S
C539 C545 1.429 . S
C540 C532 1.574 . S
C540 H535 0.949 . S
C540 C546 1.368 . S
C541 C525 1.349 . S
C541 H533 0.950 . S
C541 C539 1.327 . S
C542 C530 1.349 . S
C542 H536 0.950 . S
C542 C543 1.327 . S
C543 H537 0.950 . S
C543 C542 1.327 . S
C543 C547 1.429 . S
C544 C527 1.574 . S
C544 H538 0.949 . S
C544 C548 1.368 . S
C545 C526 1.429 . S
C545 C539 1.429 . S
C545 C546 1.523 . S
C546 C527 1.368 . S
C546 C540 1.368 . S
C546 C545 1.523 . S
C547 C531 1.429 . S
C547 C543 1.429 . S
C547 C548 1.523 . S
C548 C532 1.368 . S
C548 C544 1.368 . S
C548 C547 1.523 . S
H549 C524 0.950 . S
H550 C526 0.950 . S
H551 C527 0.949 . S
H552 C529 0.950 . S
H553 C531 0.950 . S
C554 C555 1.349 . S
C554 C556 1.327 . S
C554 H579 0.950 . S
C555 C554 1.349 . S
C555 C571 1.349 . S
C556 C554 1.327 . S
C556 C575 1.429 . S
C556 H580 0.950 . S
C557 C574 1.574 1_565 S
C557 C576 1.368 . S
C557 H581 0.949 . S
H558 C562 0.949 . S
C559 C560 1.349 . S
C559 C561 1.327 . S
C559 H582 0.950 . S
C560 C559 1.349 . S
C560 C572 1.349 . S
C561 C559 1.327 . S
C561 C577 1.429 . S
C561 H583 0.950 . S
C562 H558 0.949 . S
C562 C570 1.574 1_545 S
C562 C578 1.368 . S
H563 C571 0.950 . S
H564 C569 0.950 . S
H565 C570 0.949 . S
H566 C572 0.950 . S
H567 C573 0.950 . S
H568 C574 0.949 . S
C569 H564 0.950 . S
C569 C571 1.327 . S
C569 C575 1.429 . S
C570 C562 1.574 1_565 S
C570 H565 0.949 . S
C570 C576 1.368 . S
C571 C555 1.349 . S
C571 H563 0.950 . S
C571 C569 1.327 . S
C572 C560 1.349 . S
C572 H566 0.950 . S
C572 C573 1.327 . S
C573 H567 0.950 . S
C573 C572 1.327 . S
C573 C577 1.429 . S
C574 C557 1.574 1_545 S
C574 H568 0.949 . S
C574 C578 1.368 . S
C575 C556 1.429 . S
C575 C569 1.429 . S
C575 C576 1.523 . S
C576 C557 1.368 . S
C576 C570 1.368 . S
C576 C575 1.523 . S
C577 C561 1.429 . S
C577 C573 1.429 . S
C577 C578 1.523 . S
C578 C562 1.368 . S
C578 C574 1.368 . S
C578 C577 1.523 . S
H579 C554 0.950 . S
H580 C556 0.950 . S
H581 C557 0.949 . S
H582 C559 0.950 . S
H583 C561 0.950 . S
C584 C585 1.349 1_556 S
C584 C586 1.327 . S
C584 H609 0.950 . S
C585 C584 1.349 1_554 S
C585 C601 1.349 . S
C586 C584 1.327 . S
C586 C605 1.429 1_556 S
C586 H610 0.950 . S
C587 C604 1.574 1_455 S
C587 C606 1.368 . S
C587 H611 0.949 . S
H588 C592 0.949 . S
C589 C590 1.349 . S
C589 C591 1.327 . S
C589 H612 0.950 . S
C590 C589 1.349 . S
C590 C602 1.349 1_554 S
C591 C589 1.327 . S
C591 C607 1.429 . S
C591 H613 0.950 . S
C592 H588 0.949 . S
C592 C600 1.574 1_655 S
C592 C608 1.368 1_556 S
H593 C601 0.950 . S
H594 C599 0.950 . S
H595 C600 0.949 . S
H596 C602 0.950 . S
H597 C603 0.950 . S
H598 C604 0.949 . S
C599 H594 0.950 . S
C599 C601 1.327 . S
C599 C605 1.429 . S
C600 C592 1.574 1_455 S
C600 H595 0.949 . S
C600 C606 1.368 1_556 S
C601 C585 1.349 . S
C601 H593 0.950 . S
C601 C599 1.327 . S
C602 C590 1.349 1_556 S
C602 H596 0.950 . S
C602 C603 1.327 . S
C603 H597 0.950 . S
C603 C602 1.327 . S
C603 C607 1.429 1_556 S
C604 C587 1.574 1_655 S
C604 H598 0.949 . S
C604 C608 1.368 . S
C605 C586 1.429 1_554 S
C605 C599 1.429 . S
C605 C606 1.523 . S
C606 C587 1.368 . S
C606 C600 1.368 1_554 S
C606 C605 1.523 . S
C607 C591 1.429 . S
C607 C603 1.429 1_554 S
C607 C608 1.523 . S
C608 C592 1.368 1_554 S
C608 C604 1.368 . S
C608 C607 1.523 . S
H609 C584 0.950 . S
H610 C586 0.950 . S
H611 C587 0.949 . S
H612 C589 0.950 . S
H613 C591 0.950 . S
C614 C615 1.349 . S
C614 C616 1.327 . S
C614 H639 0.950 . S
C615 C614 1.349 . S
C615 C631 1.349 . S
C616 C614 1.327 . S
C616 C635 1.429 . S
C616 H640 0.950 . S
C617 C634 1.574 . S
C617 C636 1.368 . S
C617 H641 0.949 . S
H618 C622 0.949 . S
C619 C620 1.349 . S
C619 C621 1.327 . S
C619 H642 0.950 . S
C620 C619 1.349 . S
C620 C632 1.349 . S
C621 C619 1.327 . S
C621 C637 1.429 . S
C621 H643 0.950 . S
C622 H618 0.949 . S
C622 C630 1.574 . S
C622 C638 1.368 . S
H623 C631 0.950 . S
H624 C629 0.950 . S
H625 C630 0.949 . S
H626 C632 0.950 . S
H627 C633 0.950 . S
H628 C634 0.949 . S
C629 H624 0.950 . S
C629 C631 1.327 . S
C629 C635 1.429 . S
C630 C622 1.574 . S
C630 H625 0.949 . S
C630 C636 1.368 . S
C631 C615 1.349 . S
C631 H623 0.950 . S
C631 C629 1.327 . S
C632 C620 1.349 . S
C632 H626 0.950 . S
C632 C633 1.327 . S
C633 H627 0.950 . S
C633 C632 1.327 . S
C633 C637 1.429 . S
C634 C617 1.574 . S
C634 H628 0.949 . S
C634 C638 1.368 . S
C635 C616 1.429 . S
C635 C629 1.429 . S
C635 C636 1.523 . S
C636 C617 1.368 . S
C636 C630 1.368 . S
C636 C635 1.523 . S
C637 C621 1.429 . S
C637 C633 1.429 . S
C637 C638 1.523 . S
C638 C622 1.368 . S
C638 C634 1.368 . S
C638 C637 1.523 . S
H639 C614 0.950 . S
H640 C616 0.950 . S
H641 C617 0.949 . S
H642 C619 0.950 . S
H643 C621 0.950 . S
C644 C645 1.349 . S
C644 C646 1.327 . S
C644 H669 0.950 . S
C645 C644 1.349 . S
C645 C661 1.349 . S
C646 C644 1.327 . S
C646 C665 1.429 . S
C646 H670 0.950 . S
C647 C664 1.574 . S
C647 C666 1.368 1_565 S
C647 H671 0.949 . S
H648 C652 0.949 . S
C649 C650 1.349 . S
C649 C651 1.327 . S
C649 H672 0.950 . S
C650 C649 1.349 . S
C650 C662 1.349 . S
C651 C649 1.327 . S
C651 C667 1.429 . S
C651 H673 0.950 . S
C652 H648 0.949 . S
C652 C660 1.574 . S
C652 C668 1.368 1_545 S
H653 C661 0.950 . S
H654 C659 0.950 . S
H655 C660 0.949 . S
H656 C662 0.950 . S
H657 C663 0.950 . S
H658 C664 0.949 . S
C659 H654 0.950 . S
C659 C661 1.327 . S
C659 C665 1.429 . S
C660 C652 1.574 . S
C660 H655 0.949 . S
C660 C666 1.368 . S
C661 C645 1.349 . S
C661 H653 0.950 . S
C661 C659 1.327 . S
C662 C650 1.349 . S
C662 H656 0.950 . S
C662 C663 1.327 . S
C663 H657 0.950 . S
C663 C662 1.327 . S
C663 C667 1.429 . S
C664 C647 1.574 . S
C664 H658 0.949 . S
C664 C668 1.368 . S
C665 C646 1.429 . S
C665 C659 1.429 . S
C665 C666 1.523 . S
C666 C647 1.368 1_545 S
C666 C660 1.368 . S
C666 C665 1.523 . S
C667 C651 1.429 . S
C667 C663 1.429 . S
C667 C668 1.523 . S
C668 C652 1.368 1_565 S
C668 C664 1.368 . S
C668 C667 1.523 . S
H669 C644 0.950 . S
H670 C646 0.950 . S
H671 C647 0.949 . S
H672 C649 0.950 . S
H673 C651 0.950 . S
C674 C675 1.349 . S
C674 C676 1.327 . S
C674 H699 0.950 . S
C675 C674 1.349 . S
C675 C691 1.349 . S
C676 C674 1.327 . S
C676 C695 1.429 . S
C676 H700 0.950 . S
C677 C694 1.574 1_545 S
C677 C696 1.368 1_655 S
C677 H701 0.949 . S
H678 C682 0.949 . S
C679 C680 1.349 . S
C679 C681 1.327 . S
C679 H702 0.950 . S
C680 C679 1.349 . S
C680 C692 1.349 . S
C681 C679 1.327 . S
C681 C697 1.429 . S
C681 H703 0.950 . S
C682 H678 0.949 . S
C682 C690 1.574 1_565 S
C682 C698 1.368 1_455 S
H683 C691 0.950 . S
H684 C689 0.950 . S
H685 C690 0.949 . S
H686 C692 0.950 . S
H687 C693 0.950 . S
H688 C694 0.949 . S
C689 H684 0.950 . S
C689 C691 1.327 . S
C689 C695 1.429 . S
C690 C682 1.574 1_545 S
C690 H685 0.949 . S
C690 C696 1.368 . S
C691 C675 1.349 . S
C691 H683 0.950 . S
C691 C689 1.327 . S
C692 C680 1.349 . S
C692 H686 0.950 . S
C692 C693 1.327 . S
C693 H687 0.950 . S
C693 C692 1.327 . S
C693 C697 1.429 . S
C694 C677 1.574 1_565 S
C694 H688 0.949 . S
C694 C698 1.368 . S
C695 C676 1.429 . S
C695 C689 1.429 . S
C695 C696 1.523 . S
C696 C677 1.368 1_455 S
C696 C690 1.368 . S
C696 C695 1.523 . S
C697 C681 1.429 . S
C697 C693 1.429 . S
C697 C698 1.523 . S
C698 C682 1.368 1_655 S
C698 C694 1.368 . S
C698 C697 1.523 . S
H699 C674 0.950 . S
H700 C676 0.950 . S
H701 C677 0.949 . S
H702 C679 0.950 . S
H703 C681 0.950 . S
C704 C705 1.349 . S
C704 C706 1.327 . S
C704 H729 0.950 . S
C705 C704 1.349 . S
C705 C721 1.349 . S
C706 C704 1.327 . S
C706 C725 1.429 . S
C706 H730 0.950 . S
C707 C724 1.574 . S
C707 C726 1.368 . S
C707 H731 0.949 . S
H708 C712 0.949 . S
C709 C710 1.349 . S
C709 C711 1.327 . S
C709 H732 0.950 . S
C710 C709 1.349 . S
C710 C722 1.349 . S
C711 C709 1.327 . S
C711 C727 1.429 . S
C711 H733 0.950 . S
C712 H708 0.949 . S
C712 C720 1.574 . S
C712 C728 1.368 . S
H713 C721 0.950 . S
H714 C719 0.950 . S
H715 C720 0.949 . S
H716 C722 0.950 . S
H717 C723 0.950 . S
H718 C724 0.949 . S
C719 H714 0.950 . S
C719 C721 1.327 . S
C719 C725 1.429 . S
C720 C712 1.574 . S
C720 H715 0.949 . S
C720 C726 1.368 . S
C721 C705 1.349 . S
C721 H713 0.950 . S
C721 C719 1.327 . S
C722 C710 1.349 . S
C722 H716 0.950 . S
C722 C723 1.327 . S
C723 H717 0.950 . S
C723 C722 1.327 . S
C723 C727 1.429 . S
C724 C707 1.574 . S
C724 H718 0.949 . S
C724 C728 1.368 . S
C725 C706 1.429 . S
C725 C719 1.429 . S
C725 C726 1.523 . S
C726 C707 1.368 . S
C726 C720 1.368 . S
C726 C725 1.523 . S
C727 C711 1.429 . S
C727 C723 1.429 . S
C727 C728 1.523 . S
C728 C712 1.368 . S
C728 C724 1.368 . S
C728 C727 1.523 . S
H729 C704 0.950 . S
H730 C706 0.950 . S
H731 C707 0.949 . S
H732 C709 0.950 . S
H733 C711 0.950 . S
C734 C735 1.349 . S
C734 C736 1.327 . S
C734 H759 0.950 . S
C735 C734 1.349 . S
C735 C751 1.349 . S
C736 C734 1.327 . S
C736 C755 1.429 . S
C736 H760 0.950 . S
C737 C754 1.574 . S
C737 C756 1.368 . S
C737 H761 0.949 . S
H738 C742 0.949 . S
C739 C740 1.349 . S
C739 C741 1.327 . S
C739 H762 0.950 . S
C740 C739 1.349 . S
C740 C752 1.349 . S
C741 C739 1.327 . S
C741 C757 1.429 . S
C741 H763 0.950 . S
C742 H738 0.949 . S
C742 C750 1.574 . S
C742 C758 1.368 . S
H743 C751 0.950 . S
H744 C749 0.950 . S
H745 C750 0.949 . S
H746 C752 0.950 . S
H747 C753 0.950 . S
H748 C754 0.949 . S
C749 H744 0.950 . S
C749 C751 1.327 . S
C749 C755 1.429 . S
C750 C742 1.574 . S
C750 H745 0.949 . S
C750 C756 1.368 . S
C751 C735 1.349 . S
C751 H743 0.950 . S
C751 C749 1.327 . S
C752 C740 1.349 . S
C752 H746 0.950 . S
C752 C753 1.327 . S
C753 H747 0.950 . S
C753 C752 1.327 . S
C753 C757 1.429 . S
C754 C737 1.574 . S
C754 H748 0.949 . S
C754 C758 1.368 . S
C755 C736 1.429 . S
C755 C749 1.429 . S
C755 C756 1.523 . S
C756 C737 1.368 . S
C756 C750 1.368 . S
C756 C755 1.523 . S
C757 C741 1.429 . S
C757 C753 1.429 . S
C757 C758 1.523 . S
C758 C742 1.368 . S
C758 C754 1.368 . S
C758 C757 1.523 . S
H759 C734 0.950 . S
H760 C736 0.950 . S
H761 C737 0.949 . S
H762 C739 0.950 . S
H763 C741 0.950 . S
C764 C765 1.349 . S
C764 C766 1.327 . S
C764 H789 0.950 . S
C765 C764 1.349 . S
C765 C781 1.349 . S
C766 C764 1.327 . S
C766 C785 1.429 . S
C766 H790 0.950 . S
C767 C784 1.574 . S
C767 C786 1.368 . S
C767 H791 0.949 . S
H768 C772 0.949 1_556 S
C769 C770 1.349 . S
C769 C771 1.327 . S
C769 H792 0.950 . S
C770 C769 1.349 . S
C770 C782 1.349 . S
C771 C769 1.327 . S
C771 C787 1.429 . S
C771 H793 0.950 . S
C772 H768 0.949 1_554 S
C772 C780 1.574 . S
C772 C788 1.368 1_554 S
H773 C781 0.950 . S
H774 C779 0.950 . S
H775 C780 0.949 . S
H776 C782 0.950 . S
H777 C783 0.950 . S
H778 C784 0.949 1_556 S
C779 H774 0.950 . S
C779 C781 1.327 . S
C779 C785 1.429 . S
C780 C772 1.574 . S
C780 H775 0.949 . S
C780 C786 1.368 . S
C781 C765 1.349 . S
C781 H773 0.950 . S
C781 C779 1.327 . S
C782 C770 1.349 . S
C782 H776 0.950 . S
C782 C783 1.327 . S
C783 H777 0.950 . S
C783 C782 1.327 . S
C783 C787 1.429 . S
C784 C767 1.574 . S
C784 H778 0.949 1_554 S
C784 C788 1.368 1_554 S
C785 C766 1.429 . S
C785 C779 1.429 . S
C785 C786 1.523 . S
C786 C767 1.368 . S
C786 C780 1.368 . S
C786 C785 1.523 . S
C787 C771 1.429 . S
C787 C783 1.429 . S
C787 C788 1.523 . S
C788 C772 1.368 1_556 S
C788 C784 1.368 1_556 S
C788 C787 1.523 . S
H789 C764 0.950 . S
H790 C766 0.950 . S
H791 C767 0.949 . S
H792 C769 0.950 . S
H793 C771 0.950 . S
C794 C795 1.349 . S
C794 C796 1.327 . S
C794 H819 0.950 . S
C795 C794 1.349 . S
C795 C811 1.349 . S
C796 C794 1.327 . S
C796 C815 1.429 . S
C796 H820 0.950 . S
C797 C814 1.574 . S
C797 C816 1.368 . S
C797 H821 0.949 . S
H798 C802 0.949 . S
C799 C800 1.349 . S
C799 C801 1.327 . S
C799 H822 0.950 . S
C800 C799 1.349 . S
C800 C812 1.349 . S
C801 C799 1.327 . S
C801 C817 1.429 . S
C801 H823 0.950 . S
C802 H798 0.949 . S
C802 C810 1.574 . S
C802 C818 1.368 . S
H803 C811 0.950 . S
H804 C809 0.950 . S
H805 C810 0.949 . S
H806 C812 0.950 . S
H807 C813 0.950 . S
H808 C814 0.949 . S
C809 H804 0.950 . S
C809 C811 1.327 . S
C809 C815 1.429 . S
C810 C802 1.574 . S
C810 H805 0.949 . S
C810 C816 1.368 . S
C811 C795 1.349 . S
C811 H803 0.950 . S
C811 C809 1.327 . S
C812 C800 1.349 . S
C812 H806 0.950 . S
C812 C813 1.327 . S
C813 H807 0.950 . S
C813 C812 1.327 . S
C813 C817 1.429 . S
C814 C797 1.574 . S
C814 H808 0.949 . S
C814 C818 1.368 . S
C815 C796 1.429 . S
C815 C809 1.429 . S
C815 C816 1.523 . S
C816 C797 1.368 . S
C816 C810 1.368 . S
C816 C815 1.523 . S
C817 C801 1.429 . S
C817 C813 1.429 . S
C817 C818 1.523 . S
C818 C802 1.368 . S
C818 C814 1.368 . S
C818 C817 1.523 . S
H819 C794 0.950 . S
H820 C796 0.950 . S
H821 C797 0.949 . S
H822 C799 0.950 . S
H823 C801 0.950 . S
C824 C825 1.349 . S
C824 C826 1.327 . S
C824 H849 0.950 . S
C825 C824 1.349 . S
C825 C841 1.349 . S
C826 C824 1.327 . S
C826 C845 1.429 . S
C826 H850 0.950 . S
C827 C844 1.574 . S
C827 C846 1.368 . S
C827 H851 0.949 . S
H828 C832 0.949 . S
C829 C830 1.349 . S
C829 C831 1.327 . S
C829 H852 0.950 . S
C830 C829 1.349 . S
C830 C842 1.349 . S
C831 C829 1.327 . S
C831 C847 1.429 . S
C831 H853 0.950 . S
C832 H828 0.949 . S
C832 C840 1.574 . S
C832 C848 1.368 . S
H833 C841 0.950 . S
H834 C839 0.950 . S
H835 C840 0.949 . S
H836 C842 0.950 . S
H837 C843 0.950 . S
H838 C844 0.949 . S
C839 H834 0.950 . S
C839 C841 1.327 . S
C839 C845 1.429 . S
C840 C832 1.574 . S
C840 H835 0.949 . S
C840 C846 1.368 . S
C841 C825 1.349 . S
C841 H833 0.950 . S
C841 C839 1.327 . S
C842 C830 1.349 . S
C842 H836 0.950 . S
C842 C843 1.327 . S
C843 H837 0.950 . S
C843 C842 1.327 . S
C843 C847 1.429 . S
C844 C827 1.574 . S
C844 H838 0.949 . S
C844 C848 1.368 . S
C845 C826 1.429 . S
C845 C839 1.429 . S
C845 C846 1.523 . S
C846 C827 1.368 . S
C846 C840 1.368 . S
C846 C845 1.523 . S
C847 C831 1.429 . S
C847 C843 1.429 . S
C847 C848 1.523 . S
C848 C832 1.368 . S
C848 C844 1.368 . S
C848 C847 1.523 . S
H849 C824 0.950 . S
H850 C826 0.950 . S
H851 C827 0.949 . S
H852 C829 0.950 . S
H853 C831 0.950 . S
C854 C855 1.349 . S
C854 C856 1.327 . S
C854 H879 0.950 . S
C855 C854 1.349 . S
C855 C871 1.349 . S
C856 C854 1.327 . S
C856 C875 1.429 . S
C856 H880 0.950 . S
C857 C874 1.574 . S
C857 C876 1.368 . S
C857 H881 0.949 . S
H858 C862 0.949 1_556 S
C859 C860 1.349 . S
C859 C861 1.327 . S
C859 H882 0.950 . S
C860 C859 1.349 . S
C860 C872 1.349 . S
C861 C859 1.327 . S
C861 C877 1.429 . S
C861 H883 0.950 . S
C862 H858 0.949 1_554 S
C862 C870 1.574 . S
C862 C878 1.368 1_554 S
H863 C871 0.950 . S
H864 C869 0.950 . S
H865 C870 0.949 . S
H866 C872 0.950 . S
H867 C873 0.950 . S
H868 C874 0.949 1_556 S
C869 H864 0.950 . S
C869 C871 1.327 . S
C869 C875 1.429 . S
C870 C862 1.574 . S
C870 H865 0.949 . S
C870 C876 1.368 . S
C871 C855 1.349 . S
C871 H863 0.950 . S
C871 C869 1.327 . S
C872 C860 1.349 . S
C872 H866 0.950 . S
C872 C873 1.327 . S
C873 H867 0.950 . S
C873 C872 1.327 . S
C873 C877 1.429 . S
C874 C857 1.574 . S
C874 H868 0.949 1_554 S
C874 C878 1.368 1_554 S
C875 C856 1.429 . S
C875 C869 1.429 . S
C875 C876 1.523 . S
C876 C857 1.368 . S
C876 C870 1.368 . S
C876 C875 1.523 . S
C877 C861 1.429 . S
C877 C873 1.429 . S
C877 C878 1.523 . S
C878 C862 1.368 1_556 S
C878 C874 1.368 1_556 S
C878 C877 1.523 . S
H879 C854 0.950 . S
H880 C856 0.950 . S
H881 C857 0.949 . S
H882 C859 0.950 . S
H883 C861 0.950 . S
C884 C885 1.349 . S
C884 C886 1.327 . S
C884 H909 0.950 . S
C885 C884 1.349 . S
C885 C901 1.349 . S
C886 C884 1.327 . S
C886 C905 1.429 . S
C886 H910 0.950 . S
C887 C904 1.574 . S
C887 C906 1.368 . S
C887 H911 0.949 . S
H888 C892 0.949 . S
C889 C890 1.349 . S
C889 C891 1.327 . S
C889 H912 0.950 . S
C890 C889 1.349 . S
C890 C902 1.349 . S
C891 C889 1.327 . S
C891 C907 1.429 . S
C891 H913 0.950 . S
C892 H888 0.949 . S
C892 C900 1.574 . S
C892 C908 1.368 . S
H893 C901 0.950 . S
H894 C899 0.950 . S
H895 C900 0.949 . S
H896 C902 0.950 . S
H897 C903 0.950 . S
H898 C904 0.949 . S
C899 H894 0.950 . S
C899 C901 1.327 . S
C899 C905 1.429 . S
C900 C892 1.574 . S
C900 H895 0.949 . S
C900 C906 1.368 . S
C901 C885 1.349 . S
C901 H893 0.950 . S
C901 C899 1.327 . S
C902 C890 1.349 . S
C902 H896 0.950 . S
C902 C903 1.327 . S
C903 H897 0.950 . S
C903 C902 1.327 . S
C903 C907 1.429 . S
C904 C887 1.574 . S
C904 H898 0.949 . S
C904 C908 1.368 . S
C905 C886 1.429 . S
C905 C899 1.429 . S
C905 C906 1.523 . S
C906 C887 1.368 . S
C906 C900 1.368 . S
C906 C905 1.523 . S
C907 C891 1.429 . S
C907 C903 1.429 . S
C907 C908 1.523 . S
C908 C892 1.368 . S
C908 C904 1.368 . S
C908 C907 1.523 . S
H909 C884 0.950 . S
H910 C886 0.950 . S
H911 C887 0.949 . S
H912 C889 0.950 . S
H913 C891 0.950 . S
C914 C915 1.349 . S
C914 C916 1.327 . S
C914 H939 0.950 . S
C915 C914 1.349 . S
C915 C931 1.349 . S
C916 C914 1.327 . S
C916 C935 1.429 . S
C916 H940 0.950 . S
C917 C934 1.574 . S
C917 C936 1.368 . S
C917 H941 0.949 . S
H918 C922 0.949 . S
C919 C920 1.349 . S
C919 C921 1.327 . S
C919 H942 0.950 . S
C920 C919 1.349 . S
C920 C932 1.349 . S
C921 C919 1.327 . S
C921 C937 1.429 . S
C921 H943 0.950 . S
C922 H918 0.949 . S
C922 C930 1.574 . S
C922 C938 1.368 . S
H923 C931 0.950 . S
H924 C929 0.950 . S
H925 C930 0.949 . S
H926 C932 0.950 . S
H927 C933 0.950 . S
H928 C934 0.949 . S
C929 H924 0.950 . S
C929 C931 1.327 . S
C929 C935 1.429 . S
C930 C922 1.574 . S
C930 H925 0.949 . S
C930 C936 1.368 . S
C931 C915 1.349 . S
C931 H923 0.950 . S
C931 C929 1.327 . S
C932 C920 1.349 . S
C932 H926 0.950 . S
C932 C933 1.327 . S
C933 H927 0.950 . S
C933 C932 1.327 . S
C933 C937 1.429 . S
C934 C917 1.574 . S
C934 H928 0.949 . S
C934 C938 1.368 . S
C935 C916 1.429 . S
C935 C929 1.429 . S
C935 C936 1.523 . S
C936 C917 1.368 . S
C936 C930 1.368 . S
C936 C935 1.523 . S
C937 C921 1.429 . S
C937 C933 1.429 . S
C937 C938 1.523 . S
C938 C922 1.368 . S
C938 C934 1.368 . S
C938 C937 1.523 . S
H939 C914 0.950 . S
H940 C916 0.950 . S
H941 C917 0.949 . S
H942 C919 0.950 . S
H943 C921 0.950 . S
C944 C945 1.349 . S
C944 C946 1.327 . S
C944 H969 0.950 . S
C945 C944 1.349 . S
C945 C961 1.349 . S
C946 C944 1.327 . S
C946 C965 1.429 . S
C946 H970 0.950 . S
C947 C964 1.574 . S
C947 C966 1.368 1_554 S
C947 H971 0.949 . S
H948 C952 0.949 . S
C949 C950 1.349 . S
C949 C951 1.327 . S
C949 H972 0.950 . S
C950 C949 1.349 . S
C950 C962 1.349 . S
C951 C949 1.327 . S
C951 C967 1.429 . S
C951 H973 0.950 . S
C952 H948 0.949 . S
C952 C960 1.574 . S
C952 C968 1.368 . S
H953 C961 0.950 . S
H954 C959 0.950 . S
H955 C960 0.949 1_556 S
H956 C962 0.950 . S
H957 C963 0.950 . S
H958 C964 0.949 . S
C959 H954 0.950 . S
C959 C961 1.327 . S
C959 C965 1.429 . S
C960 C952 1.574 . S
C960 H955 0.949 1_554 S
C960 C966 1.368 1_554 S
C961 C945 1.349 . S
C961 H953 0.950 . S
C961 C959 1.327 . S
C962 C950 1.349 . S
C962 H956 0.950 . S
C962 C963 1.327 . S
C963 H957 0.950 . S
C963 C962 1.327 . S
C963 C967 1.429 . S
C964 C947 1.574 . S
C964 H958 0.949 . S
C964 C968 1.368 . S
C965 C946 1.429 . S
C965 C959 1.429 . S
C965 C966 1.523 . S
C966 C947 1.368 1_556 S
C966 C960 1.368 1_556 S
C966 C965 1.523 . S
C967 C951 1.429 . S
C967 C963 1.429 . S
C967 C968 1.523 . S
C968 C952 1.368 . S
C968 C964 1.368 . S
C968 C967 1.523 . S
H969 C944 0.950 . S
H970 C946 0.950 . S
H971 C947 0.949 . S
H972 C949 0.950 . S
H973 C951 0.950 . S
C974 C975 1.349 . S
C974 C976 1.327 . S
C974 H999 0.950 . S
C975 C974 1.349 . S
C975 C991 1.349 . S
C976 C974 1.327 . S
C976 C995 1.429 . S
C976 H1000 0.950 . S
C977 C994 1.574 . S
C977 C996 1.368 . S
C977 H1001 0.949 . S
H978 C982 0.949 . S
C979 C980 1.349 . S
C979 C981 1.327 . S
C979 H1002 0.950 . S
C980 C979 1.349 . S
C980 C992 1.349 . S
C981 C979 1.327 . S
C981 C997 1.429 . S
C981 H1003 0.950 . S
C982 H978 0.949 . S
C982 C990 1.574 . S
C982 C998 1.368 . S
H983 C991 0.950 . S
H984 C989 0.950 . S
H985 C990 0.949 . S
H986 C992 0.950 . S
H987 C993 0.950 . S
H988 C994 0.949 . S
C989 H984 0.950 . S
C989 C991 1.327 . S
C989 C995 1.429 . S
C990 C982 1.574 . S
C990 H985 0.949 . S
C990 C996 1.368 . S
C991 C975 1.349 . S
C991 H983 0.950 . S
C991 C989 1.327 . S
C992 C980 1.349 . S
C992 H986 0.950 . S
C992 C993 1.327 . S
C993 H987 0.950 . S
C993 C992 1.327 . S
C993 C997 1.429 . S
C994 C977 1.574 . S
C994 H988 0.949 . S
C994 C998 1.368 . S
C995 C976 1.429 . S
C995 C989 1.429 . S
C995 C996 1.523 . S
C996 C977 1.368 . S
C996 C990 1.368 . S
C996 C995 1.523 . S
C997 C981 1.429 . S
C997 C993 1.429 . S
C997 C998 1.523 . S
C998 C982 1.368 . S
C998 C994 1.368 . S
C998 C997 1.523 . S
H999 C974 0.950 . S
H1000 C976 0.950 . S
H1001 C977 0.949 . S
H1002 C979 0.950 . S
H1003 C981 0.950 . S
C1004 C1005 1.349 . S
C1004 C1006 1.327 . S
C1004 H1029 0.950 . S
C1005 C1004 1.349 . S
C1005 C1021 1.349 . S
C1006 C1004 1.327 . S
C1006 C1025 1.429 . S
C1006 H1030 0.950 . S
C1007 C1024 1.574 . S
C1007 C1026 1.368 . S
C1007 H1031 0.949 . S
H1008 C1012 0.949 . S
C1009 C1010 1.349 . S
C1009 C1011 1.327 . S
C1009 H1032 0.950 . S
C1010 C1009 1.349 . S
C1010 C1022 1.349 . S
C1011 C1009 1.327 . S
C1011 C1027 1.429 . S
C1011 H1033 0.950 . S
C1012 H1008 0.949 . S
C1012 C1020 1.574 . S
C1012 C1028 1.368 . S
H1013 C1021 0.950 . S
H1014 C1019 0.950 . S
H1015 C1020 0.949 . S
H1016 C1022 0.950 . S
H1017 C1023 0.950 . S
H1018 C1024 0.949 . S
C1019 H1014 0.950 . S
C1019 C1021 1.327 . S
C1019 C1025 1.429 . S
C1020 C1012 1.574 . S
C1020 H1015 0.949 . S
C1020 C1026 1.368 . S
C1021 C1005 1.349 . S
C1021 H1013 0.950 . S
C1021 C1019 1.327 . S
C1022 C1010 1.349 . S
C1022 H1016 0.950 . S
C1022 C1023 1.327 . S
C1023 H1017 0.950 . S
C1023 C1022 1.327 . S
C1023 C1027 1.429 . S
C1024 C1007 1.574 . S
C1024 H1018 0.949 . S
C1024 C1028 1.368 . S
C1025 C1006 1.429 . S
C1025 C1019 1.429 . S
C1025 C1026 1.523 . S
C1026 C1007 1.368 . S
C1026 C1020 1.368 . S
C1026 C1025 1.523 . S
C1027 C1011 1.429 . S
C1027 C1023 1.429 . S
C1027 C1028 1.523 . S
C1028 C1012 1.368 . S
C1028 C1024 1.368 . S
C1028 C1027 1.523 . S
H1029 C1004 0.950 . S
H1030 C1006 0.950 . S
H1031 C1007 0.949 . S
H1032 C1009 0.950 . S
H1033 C1011 0.950 . S
C1034 C1035 1.349 . S
C1034 C1036 1.327 . S
C1034 H1059 0.950 . S
C1035 C1034 1.349 . S
C1035 C1051 1.349 . S
C1036 C1034 1.327 . S
C1036 C1055 1.429 . S
C1036 H1060 0.950 . S
C1037 C1054 1.574 . S
C1037 C1056 1.368 . S
C1037 H1061 0.949 . S
H1038 C1042 0.949 . S
C1039 C1040 1.349 . S
C1039 C1041 1.327 . S
C1039 H1062 0.950 . S
C1040 C1039 1.349 . S
C1040 C1052 1.349 . S
C1041 C1039 1.327 . S
C1041 C1057 1.429 . S
C1041 H1063 0.950 . S
C1042 H1038 0.949 . S
C1042 C1050 1.574 . S
C1042 C1058 1.368 . S
H1043 C1051 0.950 . S
H1044 C1049 0.950 . S
H1045 C1050 0.949 . S
H1046 C1052 0.950 . S
H1047 C1053 0.950 . S
H1048 C1054 0.949 . S
C1049 H1044 0.950 . S
C1049 C1051 1.327 . S
C1049 C1055 1.429 . S
C1050 C1042 1.574 . S
C1050 H1045 0.949 . S
C1050 C1056 1.368 . S
C1051 C1035 1.349 . S
C1051 H1043 0.950 . S
C1051 C1049 1.327 . S
C1052 C1040 1.349 . S
C1052 H1046 0.950 . S
C1052 C1053 1.327 . S
C1053 H1047 0.950 . S
C1053 C1052 1.327 . S
C1053 C1057 1.429 . S
C1054 C1037 1.574 . S
C1054 H1048 0.949 . S
C1054 C1058 1.368 . S
C1055 C1036 1.429 . S
C1055 C1049 1.429 . S
C1055 C1056 1.523 . S
C1056 C1037 1.368 . S
C1056 C1050 1.368 . S
C1056 C1055 1.523 . S
C1057 C1041 1.429 . S
C1057 C1053 1.429 . S
C1057 C1058 1.523 . S
C1058 C1042 1.368 . S
C1058 C1054 1.368 . S
C1058 C1057 1.523 . S
H1059 C1034 0.950 . S
H1060 C1036 0.950 . S
H1061 C1037 0.949 . S
H1062 C1039 0.950 . S
H1063 C1041 0.950 . S
C1064 C1065 1.349 . S
C1064 C1066 1.327 . S
C1064 H1089 0.950 . S
C1065 C1064 1.349 . S
C1065 C1081 1.349 . S
C1066 C1064 1.327 . S
C1066 C1085 1.429 . S
C1066 H1090 0.950 . S
C1067 C1084 1.574 . S
C1067 C1086 1.368 . S
C1067 H1091 0.949 . S
H1068 C1072 0.949 . S
C1069 C1070 1.349 . S
C1069 C1071 1.327 . S
C1069 H1092 0.950 . S
C1070 C1069 1.349 . S
C1070 C1082 1.349 . S
C1071 C1069 1.327 . S
C1071 C1087 1.429 . S
C1071 H1093 0.950 . S
C1072 H1068 0.949 . S
C1072 C1080 1.574 . S
C1072 C1088 1.368 . S
H1073 C1081 0.950 . S
H1074 C1079 0.950 . S
H1075 C1080 0.949 . S
H1076 C1082 0.950 . S
H1077 C1083 0.950 . S
H1078 C1084 0.949 . S
C1079 H1074 0.950 . S
C1079 C1081 1.327 . S
C1079 C1085 1.429 . S
C1080 C1072 1.574 . S
C1080 H1075 0.949 . S
C1080 C1086 1.368 . S
C1081 C1065 1.349 . S
C1081 H1073 0.950 . S
C1081 C1079 1.327 . S
C1082 C1070 1.349 . S
C1082 H1076 0.950 . S
C1082 C1083 1.327 . S
C1083 H1077 0.950 . S
C1083 C1082 1.327 . S
C1083 C1087 1.429 . S
C1084 C1067 1.574 . S
C1084 H1078 0.949 . S
C1084 C1088 1.368 . S
C1085 C1066 1.429 . S
C1085 C1079 1.429 . S
C1085 C1086 1.523 . S
C1086 C1067 1.368 . S
C1086 C1080 1.368 . S
C1086 C1085 1.523 . S
C1087 C1071 1.429 . S
C1087 C1083 1.429 . S
C1087 C1088 1.523 . S
C1088 C1072 1.368 . S
C1088 C1084 1.368 . S
C1088 C1087 1.523 . S
H1089 C1064 0.950 . S
H1090 C1066 0.950 . S
H1091 C1067 0.949 . S
H1092 C1069 0.950 . S
H1093 C1071 0.950 . S
C1094 C1095 1.349 . S
C1094 C1096 1.327 . S
C1094 H1119 0.950 . S
C1095 C1094 1.349 . S
C1095 C1111 1.349 . S
C1096 C1094 1.327 . S
C1096 C1115 1.429 . S
C1096 H1120 0.950 . S
C1097 C1114 1.574 . S
C1097 C1116 1.368 . S
C1097 H1121 0.949 . S
H1098 C1102 0.949 . S
C1099 C1100 1.349 . S
C1099 C1101 1.327 . S
C1099 H1122 0.950 . S
C1100 C1099 1.349 . S
C1100 C1112 1.349 . S
C1101 C1099 1.327 . S
C1101 C1117 1.429 . S
C1101 H1123 0.950 . S
C1102 H1098 0.949 . S
C1102 C1110 1.574 . S
C1102 C1118 1.368 . S
H1103 C1111 0.950 . S
H1104 C1109 0.950 . S
H1105 C1110 0.949 . S
H1106 C1112 0.950 . S
H1107 C1113 0.950 . S
H1108 C1114 0.949 . S
C1109 H1104 0.950 . S
C1109 C1111 1.327 . S
C1109 C1115 1.429 . S
C1110 C1102 1.574 . S
C1110 H1105 0.949 . S
C1110 C1116 1.368 . S
C1111 C1095 1.349 . S
C1111 H1103 0.950 . S
C1111 C1109 1.327 . S
C1112 C1100 1.349 . S
C1112 H1106 0.950 . S
C1112 C1113 1.327 . S
C1113 H1107 0.950 . S
C1113 C1112 1.327 . S
C1113 C1117 1.429 . S
C1114 C1097 1.574 . S
C1114 H1108 0.949 . S
C1114 C1118 1.368 . S
C1115 C1096 1.429 . S
C1115 C1109 1.429 . S
C1115 C1116 1.523 . S
C1116 C1097 1.368 . S
C1116 C1110 1.368 . S
C1116 C1115 1.523 . S
C1117 C1101 1.429 . S
C1117 C1113 1.429 . S
C1117 C1118 1.523 . S
C1118 C1102 1.368 . S
C1118 C1114 1.368 . S
C1118 C1117 1.523 . S
H1119 C1094 0.950 . S
H1120 C1096 0.950 . S
H1121 C1097 0.949 . S
H1122 C1099 0.950 . S
H1123 C1101 0.950 . S
C1124 C1125 1.349 . S
C1124 C1126 1.327 . S
C1124 H1149 0.950 . S
C1125 C1124 1.349 . S
C1125 C1141 1.349 . S
C1126 C1124 1.327 . S
C1126 C1145 1.429 . S
C1126 H1150 0.950 . S
C1127 C1144 1.574 . S
C1127 C1146 1.368 . S
C1127 H1151 0.949 . S
H1128 C1132 0.949 . S
C1129 C1130 1.349 . S
C1129 C1131 1.327 . S
C1129 H1152 0.950 . S
C1130 C1129 1.349 . S
C1130 C1142 1.349 . S
C1131 C1129 1.327 . S
C1131 C1147 1.429 . S
C1131 H1153 0.950 . S
C1132 H1128 0.949 . S
C1132 C1140 1.574 . S
C1132 C1148 1.368 . S
H1133 C1141 0.950 . S
H1134 C1139 0.950 . S
H1135 C1140 0.949 . S
H1136 C1142 0.950 . S
H1137 C1143 0.950 . S
H1138 C1144 0.949 . S
C1139 H1134 0.950 . S
C1139 C1141 1.327 . S
C1139 C1145 1.429 . S
C1140 C1132 1.574 . S
C1140 H1135 0.949 . S
C1140 C1146 1.368 . S
C1141 C1125 1.349 . S
C1141 H1133 0.950 . S
C1141 C1139 1.327 . S
C1142 C1130 1.349 . S
C1142 H1136 0.950 . S
C1142 C1143 1.327 . S
C1143 H1137 0.950 . S
C1143 C1142 1.327 . S
C1143 C1147 1.429 . S
C1144 C1127 1.574 . S
C1144 H1138 0.949 . S
C1144 C1148 1.368 . S
C1145 C1126 1.429 . S
C1145 C1139 1.429 . S
C1145 C1146 1.523 . S
C1146 C1127 1.368 . S
C1146 C1140 1.368 . S
C1146 C1145 1.523 . S
C1147 C1131 1.429 . S
C1147 C1143 1.429 . S
C1147 C1148 1.523 . S
C1148 C1132 1.368 . S
C1148 C1144 1.368 . S
C1148 C1147 1.523 . S
H1149 C1124 0.950 . S
H1150 C1126 0.950 . S
H1151 C1127 0.949 . S
H1152 C1129 0.950 . S
H1153 C1131 0.950 . S
C1154 C1155 1.349 . S
C1154 C1156 1.327 . S
C1154 H1179 0.950 . S
C1155 C1154 1.349 . S
C1155 C1171 1.349 . S
C1156 C1154 1.327 . S
C1156 C1175 1.429 . S
C1156 H1180 0.950 . S
C1157 C1174 1.574 . S
C1157 C1176 1.368 . S
C1157 H1181 0.949 . S
H1158 C1162 0.949 1_556 S
C1159 C1160 1.349 . S
C1159 C1161 1.327 . S
C1159 H1182 0.950 . S
C1160 C1159 1.349 . S
C1160 C1172 1.349 . S
C1161 C1159 1.327 . S
C1161 C1177 1.429 . S
C1161 H1183 0.950 . S
C1162 H1158 0.949 1_554 S
C1162 C1170 1.574 . S
C1162 C1178 1.368 1_554 S
H1163 C1171 0.950 . S
H1164 C1169 0.950 . S
H1165 C1170 0.949 . S
H1166 C1172 0.950 . S
H1167 C1173 0.950 . S
H1168 C1174 0.940 1_556 S
C1169 H1164 0.950 . S
C1169 C1171 1.327 . S
C1169 C1175 1.429 . S
C1170 C1162 1.574 . S
C1170 H1165 0.949 . S
C1170 C1176 1.368 . S
C1171 C1155 1.349 . S
C1171 H1163 0.950 . S
C1171 C1169 1.327 . S
C1172 C1160 1.349 . S
C1172 H1166 0.950 . S
C1172 C1173 1.327 . S
C1173 H1167 0.950 . S
C1173 C1172 1.327 . S
C1173 C1177 1.429 . S
C1174 C1157 1.574 . S
C1174 H1168 0.940 1_554 S
C1174 C1178 1.368 1_554 S
C1175 C1156 1.429 . S
C1175 C1169 1.429 . S
C1175 C1176 1.523 . S
C1176 C1157 1.368 . S
C1176 C1170 1.368 . S
C1176 C1175 1.523 . S
C1177 C1161 1.429 . S
C1177 C1173 1.429 . S
C1177 C1178 1.523 . S
C1178 C1162 1.368 1_556 S
C1178 C1174 1.368 1_556 S
C1178 C1177 1.523 . S
H1179 C1154 0.950 . S
H1180 C1156 0.950 . S
H1181 C1157 0.949 . S
H1182 C1159 0.950 . S
H1183 C1161 0.950 . S
C225 C92 1.473 . S
C230 C8 1.473 . S
C255 C106 1.473 . S
C260 C22 1.473 . S
C285 C36 1.473 . S
C290 C64 1.474 . S
C315 C50 1.473 . S
C320 C78 1.473 . S
C345 C120 1.473 . S
C350 C204 1.474 . S
C375 C218 1.473 . S
C380 C134 1.473 . S
C405 C148 1.473 . S
C410 C176 1.473 . S
C435 C162 1.473 . S
C440 C190 1.473 . S
C465 C9 1.382 . S
C470 C149 1.382 . S
C495 C23 1.382 . S
C500 C163 1.382 . S
C525 C37 1.382 . S
C530 C121 1.382 . S
C555 C51 1.382 . S
C560 C135 1.382 . S
C585 C65 1.382 . S
C590 C205 1.382 . S
C615 C219 1.382 . S
C620 C79 1.382 . S
C645 C93 1.382 . S
C650 C177 1.382 . S
C675 C191 1.382 . S
C680 C107 1.382 . S
C705 C189 0.271 . S
C710 C7 0.271 . S
C735 C21 0.271 . S
C740 C203 0.271 . S
C765 C217 0.271 . S
C770 C35 0.271 . S
C795 C175 0.271 . S
C800 C49 0.271 . S
C825 C161 0.271 . S
C830 C63 0.271 . S
C855 C77 0.271 . S
C860 C119 0.271 . S
C885 C91 0.271 . S
C890 C133 0.271 . S
C915 C105 0.271 . S
C920 C147 0.271 . S
C945 C185 1.463 . S
C950 C3 1.463 . S
C975 C17 1.463 . S
C980 C199 1.463 . S
C1005 C31 1.463 . S
C1010 C213 1.463 . S
C1035 C171 1.463 . S
C1040 C45 1.463 . S
C1065 C157 1.463 . S
C1070 C59 1.463 . S
C1095 C115 1.463 . S
C1100 C73 1.463 . S
C1125 C87 1.463 . S
C1130 C129 1.463 . S
C1155 C143 1.463 . S
C1160 C101 1.463 . S
