# Generated by pormake.
# Topology smu, (6)-cn, num edge types: 1
# Building blocks:
#     Node 0, Type 0, BuildingBlock: CUWYAW_clean_sbu_0, # of connection points: 6
#     Node 1, Type 0, BuildingBlock: CUWYAW_clean_sbu_0, # of connection points: 6
#     Node 2, Type 0, BuildingBlock: CUWYAW_clean_sbu_0, # of connection points: 6
#     Node 3, Type 0, BuildingBlock: CUWYAW_clean_sbu_0, # of connection points: 6
#     Node 4, Type 0, BuildingBlock: CUWYAW_clean_sbu_0, # of connection points: 6
#     Node 5, Type 0, BuildingBlock: CUWYAW_clean_sbu_0, # of connection points: 6
#     Edge 6, Type (0, 0), BuildingBlock: XIVTED_clean_linker_0, # of connection points: 2
#     Edge 7, Type (0, 0), BuildingBlock: XIVTED_clean_linker_0, # of connection points: 2
#     Edge 8, Type (0, 0), BuildingBlock: XIVTED_clean_linker_0, # of connection points: 2
#     Edge 9, Type (0, 0), BuildingBlock: XIVTED_clean_linker_0, # of connection points: 2
#     Edge 10, Type (0, 0), BuildingBlock: XIVTED_clean_linker_0, # of connection points: 2
#     Edge 11, Type (0, 0), BuildingBlock: XIVTED_clean_linker_0, # of connection points: 2
#     Edge 12, Type (0, 0), BuildingBlock: XIVTED_clean_linker_0, # of connection points: 2
#     Edge 13, Type (0, 0), BuildingBlock: XIVTED_clean_linker_0, # of connection points: 2
#     Edge 14, Type (0, 0), BuildingBlock: XIVTED_clean_linker_0, # of connection points: 2
#     Edge 15, Type (0, 0), BuildingBlock: XIVTED_clean_linker_0, # of connection points: 2
#     Edge 16, Type (0, 0), BuildingBlock: XIVTED_clean_linker_0, # of connection points: 2
#     Edge 17, Type (0, 0), BuildingBlock: XIVTED_clean_linker_0, # of connection points: 2
#     Edge 18, Type (0, 0), BuildingBlock: XIVTED_clean_linker_0, # of connection points: 2
#     Edge 19, Type (0, 0), BuildingBlock: XIVTED_clean_linker_0, # of connection points: 2
#     Edge 20, Type (0, 0), BuildingBlock: XIVTED_clean_linker_0, # of connection points: 2
#     Edge 21, Type (0, 0), BuildingBlock: XIVTED_clean_linker_0, # of connection points: 2
#     Edge 22, Type (0, 0), BuildingBlock: XIVTED_clean_linker_0, # of connection points: 2
#     Edge 23, Type (0, 0), BuildingBlock: XIVTED_clean_linker_0, # of connection points: 2
# Relax obj value: 0.221
# Max RMSD: 0.313
# Mean RMSD: 0.313
data_MOF--net-smu--node1-CUWYAW_clean_sbu_0--edge1-XIVTED_clean_linker_0
_symmetry_space_group_name_H-M    P1
_symmetry_Int_Tables_number       1
_symmetry_cell_setting            triclinic
loop_
_symmetry_equiv_pos_as_xyz
'x, y, z'
_cell_length_a     39.639242
_cell_length_b     39.707043
_cell_length_c     26.339742
_cell_angle_alpha  90.28781
_cell_angle_beta   89.719013
_cell_angle_gamma 119.78449
loop_
_atom_site_label
_atom_site_type_symbol
_atom_site_fract_x
_atom_site_fract_y
_atom_site_fract_z
_atom_type_partial_charge
C0 C 0.26441 0.99048 0.33733 0.0
Eu1 Eu 0.31722 0.05867 0.30523 0.0
C2 C 0.22374 0.9641 0.32223 0.0
C3 C 0.19804 0.93692 0.35713 0.0
C4 C 0.15827 0.91536 0.34656 0.0
C5 C 0.14313 0.92033 0.30059 0.0
C6 C 0.16927 0.94724 0.26516 0.0
C7 C 0.20916 0.96899 0.27597 0.0
C8 C 0.35369 0.11327 0.40371 0.0
C9 C 0.27829 0.10982 0.28556 0.0
C10 C 0.41515 0.21303 0.26395 0.0
Eu11 Eu 0.36754 0.1387 0.27712 0.0
C12 C 0.44951 0.25196 0.27302 0.0
C13 C 0.46887 0.27506 0.23087 0.0
C14 C 0.49732 0.31407 0.23687 0.0
C15 C 0.50763 0.33129 0.28542 0.0
C16 C 0.48902 0.30762 0.32794 0.0
C17 C 0.46016 0.26846 0.3218 0.0
C18 C 0.33125 0.08837 0.19523 0.0
C19 C 0.40825 0.08769 0.30193 0.0
O20 O 0.29174 0.99551 0.30494 0.0
O21 O 0.27042 0.02304 0.35761 0.0
O22 O 0.34919 0.10993 0.35522 0.0
O23 O 0.34851 0.10885 0.35467 0.0
O24 O 0.27383 0.07539 0.27384 0.0
O25 O 0.31274 0.13852 0.29763 0.0
O26 O 0.3868 0.19886 0.29709 0.0
O27 O 0.41835 0.18627 0.23872 0.0
O28 O 0.33588 0.12298 0.19932 0.0
O29 O 0.34643 0.08227 0.23287 0.0
O30 O 0.41269 0.1228 0.29844 0.0
O31 O 0.37338 0.05585 0.30141 0.0
H32 H 0.20854 0.93328 0.39345 0.0
H33 H 0.13926 0.89574 0.37546 0.0
H34 H 0.15895 0.95171 0.22924 0.0
H35 H 0.22848 0.99031 0.24874 0.0
H36 H 0.46079 0.26334 0.19281 0.0
H37 H 0.51005 0.33104 0.20295 0.0
H38 H 0.49638 0.31939 0.366 0.0
H39 H 0.44554 0.25142 0.35507 0.0
C40 C 0.74122 0.75902 0.30272 0.0
Eu41 Eu 0.76322 0.7074 0.29371 0.0
C42 C 0.76294 0.80225 0.302 0.0
C43 C 0.77073 0.82379 0.34716 0.0
C44 C 0.79179 0.86448 0.3462 0.0
C45 C 0.80546 0.88474 0.30001 0.0
C46 C 0.79751 0.86307 0.25488 0.0
C47 C 0.77655 0.82249 0.25584 0.0
C48 C 0.77183 0.67354 0.39561 0.0
C49 C 0.85549 0.75237 0.28371 0.0
C50 C 0.83222 0.61907 0.28865 0.0
Eu51 Eu 0.79999 0.66269 0.28271 0.0
C52 C 0.83461 0.58294 0.28515 0.0
C53 C 0.85028 0.57514 0.24159 0.0
C54 C 0.86052 0.54604 0.24201 0.0
C55 C 0.8557 0.5242 0.28616 0.0
C56 C 0.83829 0.53088 0.32891 0.0
C57 C 0.82795 0.55986 0.32841 0.0
C58 C 0.7822 0.6859 0.1924 0.0
C59 C 0.70634 0.61518 0.29491 0.0
O60 O 0.74072 0.74197 0.25993 0.0
O61 O 0.74577 0.74151 0.34187 0.0
O62 O 0.79006 0.69032 0.35449 0.0
O63 O 0.78999 0.69052 0.35402 0.0
O64 O 0.8245 0.75349 0.26738 0.0
O65 O 0.85194 0.71976 0.30031 0.0
O66 O 0.81321 0.62387 0.32607 0.0
O67 O 0.83261 0.6375 0.24752 0.0
O68 O 0.81567 0.68896 0.20206 0.0
O69 O 0.76033 0.67138 0.22987 0.0
O70 O 0.73865 0.61352 0.29113 0.0
O71 O 0.70675 0.64887 0.29505 0.0
H72 H 0.7607 0.80917 0.3833 0.0
H73 H 0.79767 0.88003 0.38188 0.0
H74 H 0.80683 0.87742 0.2185 0.0
H75 H 0.77101 0.80705 0.2201 0.0
H76 H 0.85625 0.59265 0.20778 0.0
H77 H 0.87311 0.54132 0.20802 0.0
H78 H 0.83442 0.51511 0.36386 0.0
H79 H 0.81658 0.56548 0.36293 0.0
C80 C 0.04568 0.29284 0.26634 0.0
Eu81 Eu 0.97265 0.26628 0.28645 0.0
C82 C 0.07051 0.27475 0.27104 0.0
C83 C 0.07679 0.26246 0.31827 0.0
C84 C 0.09673 0.24169 0.32126 0.0
C85 C 0.11072 0.23246 0.27712 0.0
C86 C 0.10484 0.24522 0.22999 0.0
C87 C 0.0851 0.26621 0.22704 0.0
C88 C 0.94354 0.24037 0.38088 0.0
C89 C 0.91738 0.17312 0.28717 0.0
C90 C 0.81471 0.21033 0.28929 0.0
Eu91 Eu 0.88854 0.23264 0.28594 0.0
C92 C 0.7727 0.19766 0.29135 0.0
C93 C 0.75001 0.18541 0.2472 0.0
C94 C 0.70999 0.17222 0.24942 0.0
C95 C 0.69168 0.17164 0.2958 0.0
C96 C 0.71498 0.18491 0.33976 0.0
C97 C 0.75485 0.19734 0.3376 0.0
C98 C 0.92611 0.24813 0.19284 0.0
C99 C 0.93751 0.3236 0.3069 0.0
O100 O 0.01831 0.27698 0.23201 0.0
O101 O 0.03359 0.30144 0.30839 0.0
O102 O 0.96785 0.23321 0.35704 0.0
O103 O 0.93215 0.25785 0.35118 0.0
O104 O 0.94903 0.20169 0.26587 0.0
O105 O 0.89109 0.18006 0.30687 0.0
O106 O 0.8316 0.19955 0.32296 0.0
O107 O 0.83776 0.2331 0.25374 0.0
O108 O 0.89672 0.21447 0.20403 0.0
O109 O 0.93423 0.26913 0.23099 0.0
O110 O 0.90419 0.29161 0.31387 0.0
O111 O 0.96902 0.32241 0.29199 0.0
H112 H 0.06555 0.26807 0.35292 0.0
H113 H 0.10035 0.23203 0.35817 0.0
H114 H 0.11566 0.23916 0.19531 0.0
H115 H 0.08049 0.27511 0.1901 0.0
H116 H 0.76307 0.18519 0.21106 0.0
H117 H 0.69337 0.16168 0.21476 0.0
H118 H 0.7026 0.18599 0.37602 0.0
H119 H 0.77185 0.20707 0.37212 0.0
C120 C 0.06995 0.4195 0.75598 0.0
Eu121 Eu 0.09113 0.36885 0.7803 0.0
C122 C 0.08853 0.46247 0.76102 0.0
C123 C 0.10988 0.4823 0.80447 0.0
C124 C 0.12794 0.523 0.8078 0.0
C125 C 0.12513 0.54491 0.76776 0.0
C126 C 0.10412 0.52485 0.72415 0.0
C127 C 0.08614 0.48427 0.72086 0.0
C128 C 0.09536 0.35015 0.88033 0.0
C129 C 0.18216 0.40379 0.79675 0.0
C130 C 0.1522 0.27134 0.82285 0.0
Eu131 Eu 0.12129 0.31271 0.79488 0.0
C132 C 0.15243 0.23517 0.81016 0.0
C133 C 0.16736 0.23087 0.76357 0.0
C134 C 0.17469 0.20024 0.75609 0.0
C135 C 0.16721 0.17327 0.795 0.0
C136 C 0.14905 0.17572 0.83982 0.0
C137 C 0.14197 0.20653 0.84743 0.0
C138 C 0.10073 0.31443 0.69733 0.0
C139 C 0.03038 0.27611 0.78008 0.0
O140 O 0.08647 0.4068 0.72417 0.0
O141 O 0.05883 0.39898 0.79765 0.0
O142 O 0.10511 0.38477 0.86462 0.0
O143 O 0.08544 0.32841 0.84229 0.0
O144 O 0.15612 0.40908 0.77275 0.0
O145 O 0.17208 0.3704 0.81858 0.0
O146 O 0.12087 0.2683 0.84411 0.0
O147 O 0.16833 0.29984 0.79018 0.0
O148 O 0.10179 0.2856 0.71833 0.0
O149 O 0.11663 0.34395 0.72661 0.0
O150 O 0.05773 0.27155 0.80194 0.0
O151 O 0.03672 0.31027 0.76291 0.0
H152 H 0.11265 0.46637 0.83592 0.0
H153 H 0.14354 0.53722 0.84213 0.0
H154 H 0.10182 0.54058 0.69213 0.0
H155 H 0.07041 0.46986 0.68665 0.0
H156 H 0.17541 0.25229 0.73384 0.0
H157 H 0.18872 0.19937 0.72113 0.0
H158 H 0.14199 0.15485 0.87005 0.0
H159 H 0.13012 0.20901 0.8835 0.0
C160 C 0.36997 0.95093 0.7671 0.0
Eu161 Eu 0.29648 0.92776 0.78269 0.0
C162 C 0.39456 0.93235 0.77146 0.0
C163 C 0.41545 0.93636 0.81623 0.0
C164 C 0.43826 0.91864 0.82088 0.0
C165 C 0.4411 0.89656 0.78079 0.0
C166 C 0.42026 0.89261 0.73593 0.0
C167 C 0.3974 0.91036 0.73126 0.0
C168 C 0.26567 0.92294 0.87807 0.0
C169 C 0.23731 0.83627 0.79058 0.0
C170 C 0.13747 0.87135 0.79877 0.0
Eu171 Eu 0.21151 0.90155 0.78123 0.0
C172 C 0.10278 0.87531 0.79086 0.0
C173 C 0.08337 0.86555 0.74399 0.0
C174 C 0.0457 0.85965 0.74029 0.0
C175 C 0.02669 0.86332 0.78339 0.0
C176 C 0.04765 0.87694 0.82894 0.0
C177 C 0.08527 0.88261 0.83271 0.0
C178 C 0.2448 0.92263 0.68785 0.0
C179 C 0.26686 0.99165 0.77541 0.0
O180 O 0.34405 0.93859 0.73088 0.0
O181 O 0.35654 0.95721 0.80935 0.0
O182 O 0.2897 0.91076 0.86643 0.0
O183 O 0.25768 0.93465 0.83801 0.0
O184 O 0.27293 0.86251 0.77714 0.0
O185 O 0.21154 0.84666 0.80251 0.0
O186 O 0.16418 0.89534 0.83027 0.0
O187 O 0.15178 0.86227 0.75952 0.0
O188 O 0.21539 0.9259 0.70281 0.0
O189 O 0.25287 0.90436 0.72088 0.0
O190 O 0.23178 0.96423 0.78815 0.0
O191 O 0.29606 0.98476 0.76747 0.0
H192 H 0.4141 0.95314 0.84792 0.0
H193 H 0.45343 0.92199 0.85626 0.0
H194 H 0.42215 0.87637 0.70396 0.0
H195 H 0.38201 0.90686 0.69603 0.0
H196 H 0.09611 0.85983 0.71092 0.0
H197 H 0.03049 0.84913 0.70462 0.0
H198 H 0.03416 0.88096 0.86253 0.0
H199 H 0.09963 0.89029 0.86927 0.0
C200 C 0.59603 0.65746 0.75543 0.0
Eu201 Eu 0.65409 0.72609 0.77936 0.0
C202 C 0.55297 0.6347 0.75925 0.0
C203 C 0.53575 0.5987 0.784 0.0
C204 C 0.49532 0.5762 0.78866 0.0
C205 C 0.4708 0.58903 0.7686 0.0
C206 C 0.48812 0.62514 0.74352 0.0
C207 C 0.52875 0.64778 0.73898 0.0
C208 C 0.68483 0.74188 0.87427 0.0
C209 C 0.62175 0.78642 0.79886 0.0
C210 C 0.75677 0.88105 0.829 0.0
Eu211 Eu 0.71221 0.8104 0.79689 0.0
C212 C 0.79318 0.91719 0.81738 0.0
C213 C 0.79954 0.93473 0.76942 0.0
C214 C 0.8294 0.97293 0.76235 0.0
C215 C 0.85359 0.99427 0.80303 0.0
C216 C 0.84943 0.97528 0.84959 0.0
C217 C 0.81933 0.93718 0.85675 0.0
C218 C 0.71071 0.78888 0.69789 0.0
C219 C 0.74364 0.75234 0.7778 0.0
O220 O 0.61194 0.68647 0.72363 0.0
O221 O 0.61491 0.66537 0.79819 0.0
O222 O 0.67789 0.71158 0.84796 0.0
O223 O 0.6745 0.76297 0.85027 0.0
O224 O 0.61257 0.74992 0.791 0.0
O225 O 0.65803 0.81419 0.80316 0.0
O226 O 0.75906 0.85143 0.84659 0.0
O227 O 0.72792 0.87092 0.79736 0.0
O228 O 0.74083 0.81633 0.7204 0.0
O229 O 0.68136 0.77663 0.72706 0.0
O230 O 0.74778 0.78148 0.80633 0.0
O231 O 0.71061 0.72918 0.75399 0.0
H232 H 0.55369 0.58782 0.79978 0.0
H233 H 0.48332 0.54837 0.8074 0.0
H234 H 0.47033 0.63624 0.728 0.0
H235 H 0.54114 0.6755 0.71984 0.0
H236 H 0.78004 0.91985 0.73813 0.0
H237 H 0.83164 0.98648 0.72597 0.0
H238 H 0.86825 0.99047 0.88132 0.0
H239 H 0.8152 0.92411 0.89393 0.0
H240 H 0.24274 0.97627 0.90034 0.0
H241 H 0.32897 0.01914 0.1835 0.0
H242 H 0.29575 0.91571 0.96918 0.0
H243 H 0.3022 0.09732 0.10338 0.0
H244 H 0.30924 0.9766 0.10919 0.0
H245 H 0.25609 0.01556 0.97754 0.0
C246 C 0.25667 0.97075 0.93194 0.0
C247 C 0.26821 0.9425 0.92789 0.0
C248 C 0.30759 1.00298 0.10766 0.0
C249 C 0.28369 0.98783 1.01702 0.0
C250 C 0.31885 0.0274 0.15023 0.0
C251 C 0.31757 0.06218 0.14979 0.0
C252 C 0.2945 0.01292 0.06382 0.0
C253 C 0.30387 0.07097 0.10548 0.0
C254 C 0.26452 0.99348 0.976 0.0
C255 C 0.28628 0.93701 0.97034 0.0
N256 N 0.29291 0.04658 0.06435 0.0
N257 N 0.29347 0.95941 1.01286 0.0
H258 H 0.6608 0.71739 0.65426 0.0
H259 H 0.80124 0.75182 0.41492 0.0
H260 H 0.76795 0.8236 0.62739 0.0
H261 H 0.71267 0.63821 0.46301 0.0
H262 H 0.78222 0.78059 0.48412 0.0
H263 H 0.6722 0.6899 0.57651 0.0
C264 C 0.68632 0.73513 0.63173 0.0
C265 C 0.71341 0.77278 0.64767 0.0
C266 C 0.76656 0.74938 0.47922 0.0
C267 C 0.72681 0.74169 0.55834 0.0
C268 C 0.77718 0.73296 0.43934 0.0
C269 C 0.75792 0.69251 0.43252 0.0
C270 C 0.7366 0.72528 0.51291 0.0
C271 C 0.72786 0.66952 0.46649 0.0
C272 C 0.69301 0.71938 0.58741 0.0
C273 C 0.74624 0.79438 0.61676 0.0
N274 N 0.71809 0.68614 0.5051 0.0
N275 N 0.75202 0.77859 0.57387 0.0
H276 H 0.97987 0.32158 0.16973 0.0
H277 H 0.05502 0.27426 0.91054 0.0
H278 H 0.93015 0.2052 0.11039 0.0
H279 H 0.09016 0.38994 0.96362 0.0
H280 H 1.01411 0.24768 0.9862 0.0
H281 H 0.02382 0.34566 0.09759 0.0
C282 C 0.97802 0.30094 0.14126 0.0
C283 C 0.95091 0.26119 0.14623 0.0
C284 C 0.03099 0.27886 0.98157 0.0
C285 C 1.00211 0.28904 0.0625 0.0
C286 C 0.05465 0.29418 0.93848 0.0
C287 C 0.0761 0.33458 0.93039 0.0
C288 C 0.02878 0.30401 1.01737 0.0
C289 C 0.07427 0.35873 0.96805 0.0
C290 C 1.00336 0.31485 0.09992 0.0
C291 C 0.95025 0.23607 0.10798 0.0
N292 N 0.05096 0.34309 1.00959 0.0
N293 N 0.97553 0.25041 0.06773 0.0
H294 H 0.33627 0.11738 0.50053 0.0
H295 H 0.22003 0.90606 0.58968 0.0
H296 H 0.33754 0.0358 0.3934 0.0
H297 H 0.318 0.98643 0.67919 0.0
H298 H 0.24828 0.94923 0.51569 0.0
H299 H 0.31396 0.06754 0.5667 0.0
C300 C 0.33115 0.08869 0.49061 0.0
C301 C 0.33726 0.08041 0.44066 0.0
C302 C 0.2639 0.95689 0.55134 0.0
C303 C 0.3118 0.02308 0.51668 0.0
C304 C 0.24802 0.93218 0.59347 0.0
C305 C 0.26687 0.94222 0.64081 0.0
C306 C 0.298 0.99281 0.55719 0.0
C307 C 0.30245 0.97714 0.64377 0.0
C308 C 0.31866 0.06041 0.52852 0.0
C309 C 0.33122 0.04294 0.43057 0.0
N310 N 0.3163 1.00155 0.60308 0.0
N311 N 0.31819 0.01539 0.46804 0.0
H312 H 0.64743 0.72476 0.96567 0.0
H313 H 0.82635 0.7243 0.10795 0.0
H314 H 0.76089 0.76962 0.89865 0.0
H315 H 0.71231 0.68052 0.17349 0.0
H316 H 0.80527 0.74678 1.03391 0.0
H317 H 0.67317 0.71599 0.04609 0.0
C318 C 0.67811 0.73412 0.96845 0.0
C319 C 0.70218 0.74857 0.92562 0.0
C320 C 0.78492 0.73238 0.06463 0.0
C321 C 0.73165 0.7369 1.01684 0.0
C322 C 0.79695 0.71941 0.10677 0.0
C323 C 0.77101 0.70018 0.14681 0.0
C324 C 0.74665 0.72606 0.06247 0.0
C325 C 0.73329 0.69497 0.14342 0.0
C326 C 0.69274 0.72855 1.01414 0.0
C327 C 0.7414 0.7588 0.93081 0.0
N328 N 0.72228 0.70762 0.10214 0.0
N329 N 0.75482 0.75247 0.97526 0.0
H330 H 0.96746 0.31081 0.42827 0.0
H331 H 0.07337 0.2522 0.63617 0.0
H332 H 0.94512 0.19459 0.45507 0.0
H333 H 0.07395 0.36068 0.65055 0.0
H334 H 0.02855 0.23415 0.56622 0.0
H335 H 1.00483 0.33189 0.50805 0.0
C336 C 0.96893 0.28938 0.45203 0.0
C337 C 0.95274 0.25068 0.43527 0.0
C338 C 0.03816 0.26195 0.58446 0.0
C339 C 0.99679 0.27496 0.5252 0.0
C340 C 0.06425 0.27258 0.62449 0.0
C341 C 0.07742 0.30802 0.65016 0.0
C342 C 0.0249 0.28697 0.56852 0.0
C343 C 0.06448 0.33303 0.63235 0.0
C344 C 0.9908 0.30159 0.49716 0.0
C345 C 0.9567 0.22453 0.46673 0.0
N346 N 0.03891 0.32206 0.59251 0.0
N347 N 0.97862 0.2372 0.50953 0.0
H348 H 0.45069 0.09275 0.21934 0.0
H349 H 0.6405 0.13368 0.37503 0.0
H350 H 0.45069 0.08541 0.38227 0.0
H351 H 0.64338 0.17492 0.22267 0.0
H352 H 0.57032 0.10815 0.37732 0.0
H353 H 0.51973 0.11194 0.21802 0.0
C354 C 0.46495 0.09362 0.25472 0.0
C355 C 0.4447 0.08618 0.30083 0.0
C356 C 0.58639 0.12269 0.34338 0.0
C357 C 0.52428 0.10986 0.29997 0.0
C358 C 0.62672 0.13771 0.34207 0.0
C359 C 0.64856 0.15655 0.29839 0.0
C360 C 0.56728 0.12584 0.30049 0.0
C361 C 0.62821 0.15992 0.25681 0.0
C362 C 0.50454 0.1053 0.25406 0.0
C363 C 0.46499 0.08959 0.34584 0.0
N364 N 0.58893 0.1446 0.25884 0.0
N365 N 0.50371 0.10126 0.34434 0.0
H366 H 0.68225 0.567 0.21479 0.0
H367 H 0.50963 0.38414 0.3568 0.0
H368 H 0.65058 0.57604 0.36873 0.0
H369 H 0.57212 0.37673 0.22638 0.0
H370 H 0.55445 0.45446 0.35979 0.0
H371 H 0.63311 0.49828 0.21404 0.0
C372 C 0.66401 0.55463 0.24801 0.0
C373 C 0.66989 0.5774 0.29146 0.0
C374 C 0.55819 0.43731 0.33056 0.0
C375 C 0.61428 0.49795 0.29176 0.0
C376 C 0.53279 0.39698 0.32899 0.0
C377 C 0.53643 0.37395 0.29077 0.0
C378 C 0.58727 0.45502 0.29335 0.0
C379 C 0.56705 0.39289 0.2557 0.0
C380 C 0.63632 0.51523 0.24787 0.0
C381 C 0.64622 0.55967 0.33402 0.0
N382 N 0.59086 0.43203 0.25765 0.0
N383 N 0.6195 0.52087 0.33324 0.0
H384 H 0.89488 0.33753 0.37506 0.0
H385 H 0.92199 0.5302 0.24244 0.0
H386 H 0.97451 0.39112 0.25031 0.0
H387 H 0.82406 0.45426 0.33647 0.0
H388 H 0.94742 0.48551 0.25109 0.0
H389 H 0.87692 0.38776 0.37075 0.0
C390 C 0.90941 0.36058 0.3475 0.0
C391 C 0.93631 0.36011 0.31298 0.0
C392 C 0.92038 0.47872 0.26976 0.0
C393 C 0.91506 0.41765 0.30706 0.0
C394 C 0.90555 0.50404 0.26451 0.0
C395 C 0.87067 0.49624 0.28882 0.0
C396 C 0.90049 0.44546 0.29995 0.0
C397 C 0.85132 0.46211 0.31771 0.0
C398 C 0.89876 0.38905 0.3447 0.0
C399 C 0.95401 0.39064 0.27801 0.0
N400 N 0.86652 0.43821 0.32254 0.0
N401 N 0.94277 0.41805 0.27555 0.0
H402 H 0.09471 0.59007 0.73621 0.0
H403 H 0.27992 0.79775 0.79703 0.0
H404 H 0.19644 0.59912 0.80819 0.0
H405 H 0.16308 0.77735 0.77953 0.0
H406 H 0.25408 0.72683 0.79269 0.0
H407 H 0.12366 0.66036 0.74177 0.0
C408 C 0.12329 0.60678 0.75294 0.0
C409 C 0.14305 0.58827 0.77159 0.0
C410 C 0.23425 0.73807 0.78995 0.0
C411 C 0.17662 0.66967 0.77844 0.0
C412 C 0.24898 0.77852 0.79229 0.0
C413 C 0.2237 0.79373 0.78897 0.0
C414 C 0.1941 0.71281 0.78298 0.0
C415 C 0.18381 0.76725 0.78284 0.0
C416 C 0.13974 0.64707 0.75646 0.0
C417 C 0.17988 0.61191 0.79363 0.0
N418 N 0.17045 0.72846 0.77969 0.0
N419 N 0.19555 0.65131 0.7962 0.0
H420 H 0.5127 0.92729 0.82578 0.0
H421 H 0.54513 0.74655 0.76603 0.0
H422 H 0.42766 0.82496 0.74636 0.0
H423 H 0.6297 0.854 0.83623 0.0
H424 H 0.4994 0.77163 0.76287 0.0
H425 H 0.55375 0.89809 0.83386 0.0
C426 C 0.50242 0.8985 0.81035 0.0
C427 C 0.46641 0.87862 0.78553 0.0
C428 C 0.52792 0.78951 0.77921 0.0
C429 C 0.51397 0.84483 0.79414 0.0
C430 C 0.55393 0.7751 0.78133 0.0
C431 C 0.59145 0.79818 0.80125 0.0
C432 C 0.5395 0.82713 0.79741 0.0
C433 C 0.60129 0.83512 0.82017 0.0
C434 C 0.52609 0.88185 0.81471 0.0
C435 C 0.45529 0.84161 0.7654 0.0
N436 N 0.57566 0.84834 0.81763 0.0
N437 N 0.47892 0.82592 0.77016 0.0
H438 H 0.24016 0.40991 0.85887 0.0
H439 H 0.41377 0.5778 0.69955 0.0
H440 H 0.21984 0.46683 0.73328 0.0
H441 H 0.42852 0.544 0.84968 0.0
H442 H 0.34333 0.53556 0.70829 0.0
H443 H 0.30965 0.45666 0.85335 0.0
C444 C 0.25024 0.43244 0.83034 0.0
C445 C 0.22394 0.43443 0.7966 0.0
C446 C 0.36203 0.5376 0.73939 0.0
C447 C 0.30399 0.48794 0.7895 0.0
C448 C 0.40233 0.56188 0.73455 0.0
C449 C 0.4275 0.56455 0.77381 0.0
C450 C 0.34656 0.5155 0.78369 0.0
C451 C 0.41063 0.5425 0.81789 0.0
C452 C 0.29001 0.45918 0.82721 0.0
C453 C 0.23892 0.46432 0.76036 0.0
N454 N 0.37144 0.51889 0.82146 0.0
N455 N 0.27793 0.48963 0.75746 0.0
H456 H 0.2159 0.08691 0.2199 0.0
H457 H 0.16389 0.23937 0.34832 0.0
H458 H 0.26781 0.15266 0.3562 0.0
H459 H 0.10584 0.17457 0.21354 0.0
H460 H 0.19858 0.20342 0.35358 0.0
H461 H 0.17089 0.11317 0.21907 0.0
C462 C 0.21718 0.10608 0.25016 0.0
C463 C 0.24567 0.11786 0.288 0.0
C464 C 0.17813 0.19676 0.32288 0.0
C465 C 0.19514 0.14826 0.28704 0.0
C466 C 0.15811 0.21728 0.32002 0.0
C467 C 0.13178 0.21009 0.28048 0.0
C468 C 0.17213 0.16868 0.28584 0.0
C469 C 0.12623 0.18149 0.24435 0.0
C470 C 0.19183 0.12134 0.24948 0.0
C471 C 0.24651 0.14311 0.32604 0.0
N472 N 0.14629 0.1619 0.2478 0.0
N473 N 0.22194 0.15756 0.32437 0.0
H474 H 0.90396 0.7711 0.3623 0.0
H475 H 0.0968 0.94386 0.25026 0.0
H476 H 0.8975 0.80987 0.21192 0.0
H477 H 0.09077 0.84569 0.32862 0.0
H478 H 0.02538 0.9081 0.24319 0.0
H479 H 0.97387 0.81471 0.36225 0.0
C480 C 0.91723 0.7896 0.32961 0.0
C481 C 0.89492 0.78669 0.28693 0.0
C482 C 0.04 0.89458 0.2616 0.0
C483 C 0.97547 0.83649 0.28643 0.0
C484 C 0.08075 0.91478 0.26552 0.0
C485 C 0.10018 0.8982 0.29105 0.0
C486 C 0.01862 0.85794 0.28416 0.0
C487 C 0.07745 0.86046 0.3102 0.0
C488 C 0.9572 0.8142 0.32948 0.0
C489 C 0.91369 0.81147 0.24569 0.0
N490 N 0.03811 0.842 0.30698 0.0
N491 N 0.95323 0.83526 0.24617 0.0
H492 H 0.88233 0.12476 0.36535 0.0
H493 H 0.86664 0.93424 0.23776 0.0
H494 H 0.93521 0.12957 0.22013 0.0
H495 H 0.79307 0.93491 0.35874 0.0
H496 H 0.89946 1.00543 0.23535 0.0
H497 H 0.8593 0.05568 0.36973 0.0
C498 C 0.88943 0.11123 0.33441 0.0
C499 C 0.91032 0.13292 0.29197 0.0
C500 C 0.87623 0.98987 0.26246 0.0
C501 C 0.8833 0.05296 0.29647 0.0
C502 C 0.85727 0.94918 0.26378 0.0
C503 C 0.82689 0.92819 0.29868 0.0
C504 C 0.86501 0.00982 0.29653 0.0
C505 C 0.81666 0.94946 0.33186 0.0
C506 C 0.87608 0.07163 0.33688 0.0
C507 C 0.91917 0.11388 0.2535 0.0
N508 N 0.8356 0.98884 0.32991 0.0
N509 N 0.90519 0.07473 0.25635 0.0
H510 H 0.20155 0.15362 0.8701 0.0
H511 H 0.25354 0.02231 0.69216 0.0
H512 H 0.17023 0.13238 0.71162 0.0
H513 H 0.2837 0.04411 0.85033 0.0
H514 H 0.23009 0.06891 0.69528 0.0
H515 H 0.2345 0.11606 0.86206 0.0
C516 C 0.20106 0.1406 0.83369 0.0
C517 C 0.18304 0.14633 0.79144 0.0
C518 C 0.24293 0.06447 0.72896 0.0
C519 C 0.22215 0.10417 0.78157 0.0
C520 C 0.25713 0.03858 0.72682 0.0
C521 C 0.27138 0.03028 0.77075 0.0
C522 C 0.24264 0.08166 0.77559 0.0
C523 C 0.27383 0.05061 0.81539 0.0
C524 C 0.22049 0.11961 0.82896 0.0
C525 C 0.18418 0.12925 0.74506 0.0
N526 N 0.25905 0.07499 0.81689 0.0
N527 N 0.20349 0.10901 0.74134 0.0
H528 H 0.97435 0.82102 0.85743 0.0
H529 H 0.7874 0.7741 0.69247 0.0
H530 H 0.98115 0.86715 0.70721 0.0
H531 H 0.78257 0.73326 0.84483 0.0
H532 H 0.85804 0.80143 0.69234 0.0
H533 H 0.90393 0.78618 0.85148 0.0
C534 C 0.96109 0.82443 0.82345 0.0
C535 C 0.9839 0.84708 0.78267 0.0
C536 C 0.84146 0.78559 0.72533 0.0
C537 C 0.90282 0.80582 0.77489 0.0
C538 C 0.80107 0.76921 0.72491 0.0
C539 C 0.77934 0.7511 0.7685 0.0
C540 C 0.85993 0.7838 0.76982 0.0
C541 C 0.79844 0.74672 0.81033 0.0
C542 C 0.92075 0.80394 0.81977 0.0
C543 C 0.96479 0.84959 0.73927 0.0
N544 N 0.83774 0.76346 0.81027 0.0
N545 N 0.92534 0.82907 0.73644 0.0
H546 H 1.002 0.23002 0.69719 0.0
H547 H 0.86714 0.04948 0.87494 0.0
H548 H 0.97783 0.23991 0.85429 0.0
H549 H 0.89769 0.03707 0.72109 0.0
H550 H 0.90353 0.11954 0.86549 0.0
H551 H 0.95652 0.15998 0.70082 0.0
C552 C 0.98554 0.21765 0.73167 0.0
C553 C 0.99277 0.24067 0.77516 0.0
C554 C 0.90232 0.10157 0.83371 0.0
C555 C 0.94245 0.16066 0.78058 0.0
C556 C 0.88195 0.0614 0.83931 0.0
C557 C 0.87929 0.03707 0.79878 0.0
C558 C 0.92019 0.11789 0.78715 0.0
C559 C 0.89848 0.05456 0.75319 0.0
C560 C 0.96024 0.1776 0.73411 0.0
C561 C 0.97214 0.22316 0.81963 0.0
N562 N 0.91808 0.0939 0.74858 0.0
N563 N 0.94823 0.18413 0.82139 0.0
loop_
_geom_bond_atom_site_label_1
_geom_bond_atom_site_label_2
_geom_bond_distance
_geom_bond_site_symmetry_2
_ccdc_geom_bond_type
C0 Eu1 2.835 1_565 S
C0 C2 1.500 . S
C0 O20 1.257 1_565 S
C0 O21 1.260 . S
Eu1 C0 2.835 1_545 S
Eu1 O20 2.473 . S
Eu1 O21 2.480 1_545 S
Eu1 O22 2.430 . S
Eu1 O23 2.670 . S
Eu1 O24 2.394 . S
Eu1 O29 2.355 . S
Eu1 O31 2.374 . S
C2 C0 1.500 . S
C2 C3 1.377 . S
C2 C7 1.377 . S
C3 C2 1.377 . S
C3 C4 1.395 . S
C3 H32 0.931 . S
C4 C3 1.395 . S
C4 C5 1.383 . S
C4 H33 0.931 . S
C5 C4 1.383 . S
C5 C6 1.394 . S
C6 C5 1.394 . S
C6 C7 1.378 . S
C6 H34 0.931 . S
C7 C2 1.377 . S
C7 C6 1.378 . S
C7 H35 0.931 . S
C8 O22 1.259 . S
C8 O23 1.270 . S
C9 O24 1.251 . S
C9 O25 1.251 . S
C10 Eu11 2.835 . S
C10 C12 1.500 . S
C10 O26 1.257 . S
C10 O27 1.260 . S
Eu11 C10 2.835 . S
Eu11 O23 2.355 . S
Eu11 O25 2.374 . S
Eu11 O26 2.473 . S
Eu11 O27 2.480 . S
Eu11 O28 2.430 . S
Eu11 O29 2.670 . S
Eu11 O30 2.394 . S
C12 C10 1.500 . S
C12 C13 1.377 . S
C12 C17 1.377 . S
C13 C12 1.377 . S
C13 C14 1.395 . S
C13 H36 0.931 . S
C14 C13 1.395 . S
C14 C15 1.383 . S
C14 H37 0.931 . S
C15 C14 1.383 . S
C15 C16 1.394 . S
C16 C15 1.394 . S
C16 C17 1.378 . S
C16 H38 0.931 . S
C17 C12 1.377 . S
C17 C16 1.378 . S
C17 H39 0.931 . S
C18 O28 1.259 . S
C18 O29 1.270 . S
C19 O30 1.251 . S
C19 O31 1.251 . S
O20 C0 1.257 1_545 S
O20 Eu1 2.473 . S
O21 C0 1.260 . S
O21 Eu1 2.480 1_565 S
O22 Eu1 2.430 . S
O22 C8 1.259 . S
O23 Eu1 2.670 . S
O23 C8 1.270 . S
O23 Eu11 2.355 . S
O24 Eu1 2.394 . S
O24 C9 1.251 . S
O25 C9 1.251 . S
O25 Eu11 2.374 . S
O26 C10 1.257 . S
O26 Eu11 2.473 . S
O27 C10 1.260 . S
O27 Eu11 2.480 . S
O28 Eu11 2.430 . S
O28 C18 1.259 . S
O29 Eu1 2.355 . S
O29 Eu11 2.670 . S
O29 C18 1.270 . S
O30 Eu11 2.394 . S
O30 C19 1.251 . S
O31 Eu1 2.374 . S
O31 C19 1.251 . S
H32 C3 0.931 . S
H33 C4 0.931 . S
H34 C6 0.931 . S
H35 C7 0.931 . S
H36 C13 0.931 . S
H37 C14 0.931 . S
H38 C16 0.931 . S
H39 C17 0.931 . S
C40 Eu41 2.835 . S
C40 C42 1.500 . S
C40 O60 1.257 . S
C40 O61 1.260 . S
Eu41 C40 2.835 . S
Eu41 O60 2.473 . S
Eu41 O61 2.480 . S
Eu41 O62 2.430 . S
Eu41 O63 2.670 . S
Eu41 O64 2.394 . S
Eu41 O69 2.355 . S
Eu41 O71 2.374 . S
C42 C40 1.500 . S
C42 C43 1.377 . S
C42 C47 1.377 . S
C43 C42 1.377 . S
C43 C44 1.395 . S
C43 H72 0.931 . S
C44 C43 1.395 . S
C44 C45 1.383 . S
C44 H73 0.931 . S
C45 C44 1.383 . S
C45 C46 1.394 . S
C46 C45 1.394 . S
C46 C47 1.378 . S
C46 H74 0.931 . S
C47 C42 1.377 . S
C47 C46 1.378 . S
C47 H75 0.931 . S
C48 O62 1.259 . S
C48 O63 1.270 . S
C49 O64 1.251 . S
C49 O65 1.251 . S
C50 Eu51 2.835 . S
C50 C52 1.500 . S
C50 O66 1.257 . S
C50 O67 1.260 . S
Eu51 C50 2.835 . S
Eu51 O63 2.355 . S
Eu51 O65 2.374 . S
Eu51 O66 2.473 . S
Eu51 O67 2.480 . S
Eu51 O68 2.430 . S
Eu51 O69 2.670 . S
Eu51 O70 2.394 . S
C52 C50 1.500 . S
C52 C53 1.377 . S
C52 C57 1.377 . S
C53 C52 1.377 . S
C53 C54 1.395 . S
C53 H76 0.931 . S
C54 C53 1.395 . S
C54 C55 1.383 . S
C54 H77 0.931 . S
C55 C54 1.383 . S
C55 C56 1.394 . S
C56 C55 1.394 . S
C56 C57 1.378 . S
C56 H78 0.931 . S
C57 C52 1.377 . S
C57 C56 1.378 . S
C57 H79 0.931 . S
C58 O68 1.259 . S
C58 O69 1.270 . S
C59 O70 1.251 . S
C59 O71 1.251 . S
O60 C40 1.257 . S
O60 Eu41 2.473 . S
O61 C40 1.260 . S
O61 Eu41 2.480 . S
O62 Eu41 2.430 . S
O62 C48 1.259 . S
O63 Eu41 2.670 . S
O63 C48 1.270 . S
O63 Eu51 2.355 . S
O64 Eu41 2.394 . S
O64 C49 1.251 . S
O65 C49 1.251 . S
O65 Eu51 2.374 . S
O66 C50 1.257 . S
O66 Eu51 2.473 . S
O67 C50 1.260 . S
O67 Eu51 2.480 . S
O68 Eu51 2.430 . S
O68 C58 1.259 . S
O69 Eu41 2.355 . S
O69 Eu51 2.670 . S
O69 C58 1.270 . S
O70 Eu51 2.394 . S
O70 C59 1.251 . S
O71 Eu41 2.374 . S
O71 C59 1.251 . S
H72 C43 0.931 . S
H73 C44 0.931 . S
H74 C46 0.931 . S
H75 C47 0.931 . S
H76 C53 0.931 . S
H77 C54 0.931 . S
H78 C56 0.931 . S
H79 C57 0.931 . S
C80 Eu81 2.835 1_455 S
C80 C82 1.500 . S
C80 O100 1.257 1_455 S
C80 O101 1.260 . S
Eu81 C80 2.835 1_655 S
Eu81 O100 2.473 . S
Eu81 O101 2.480 1_655 S
Eu81 O102 2.430 . S
Eu81 O103 2.670 . S
Eu81 O104 2.394 . S
Eu81 O109 2.355 . S
Eu81 O111 2.374 . S
C82 C80 1.500 . S
C82 C83 1.377 . S
C82 C87 1.377 . S
C83 C82 1.377 . S
C83 C84 1.395 . S
C83 H112 0.931 . S
C84 C83 1.395 . S
C84 C85 1.383 . S
C84 H113 0.931 . S
C85 C84 1.383 . S
C85 C86 1.394 . S
C86 C85 1.394 . S
C86 C87 1.378 . S
C86 H114 0.931 . S
C87 C82 1.377 . S
C87 C86 1.378 . S
C87 H115 0.931 . S
C88 O102 1.259 . S
C88 O103 1.270 . S
C89 O104 1.251 . S
C89 O105 1.251 . S
C90 Eu91 2.835 . S
C90 C92 1.500 . S
C90 O106 1.257 . S
C90 O107 1.260 . S
Eu91 C90 2.835 . S
Eu91 O103 2.355 . S
Eu91 O105 2.374 . S
Eu91 O106 2.473 . S
Eu91 O107 2.480 . S
Eu91 O108 2.430 . S
Eu91 O109 2.670 . S
Eu91 O110 2.394 . S
C92 C90 1.500 . S
C92 C93 1.377 . S
C92 C97 1.377 . S
C93 C92 1.377 . S
C93 C94 1.395 . S
C93 H116 0.931 . S
C94 C93 1.395 . S
C94 C95 1.383 . S
C94 H117 0.931 . S
C95 C94 1.383 . S
C95 C96 1.394 . S
C96 C95 1.394 . S
C96 C97 1.378 . S
C96 H118 0.931 . S
C97 C92 1.377 . S
C97 C96 1.378 . S
C97 H119 0.931 . S
C98 O108 1.259 . S
C98 O109 1.270 . S
C99 O110 1.251 . S
C99 O111 1.251 . S
O100 C80 1.257 1_655 S
O100 Eu81 2.473 . S
O101 C80 1.260 . S
O101 Eu81 2.480 1_455 S
O102 Eu81 2.430 . S
O102 C88 1.259 . S
O103 Eu81 2.670 . S
O103 C88 1.270 . S
O103 Eu91 2.355 . S
O104 Eu81 2.394 . S
O104 C89 1.251 . S
O105 C89 1.251 . S
O105 Eu91 2.374 . S
O106 C90 1.257 . S
O106 Eu91 2.473 . S
O107 C90 1.260 . S
O107 Eu91 2.480 . S
O108 Eu91 2.430 . S
O108 C98 1.259 . S
O109 Eu81 2.355 . S
O109 Eu91 2.670 . S
O109 C98 1.270 . S
O110 Eu91 2.394 . S
O110 C99 1.251 . S
O111 Eu81 2.374 . S
O111 C99 1.251 . S
H112 C83 0.931 . S
H113 C84 0.931 . S
H114 C86 0.931 . S
H115 C87 0.931 . S
H116 C93 0.931 . S
H117 C94 0.931 . S
H118 C96 0.931 . S
H119 C97 0.931 . S
C120 Eu121 2.835 . S
C120 C122 1.500 . S
C120 O140 1.257 . S
C120 O141 1.260 . S
Eu121 C120 2.835 . S
Eu121 O140 2.473 . S
Eu121 O141 2.480 . S
Eu121 O142 2.430 . S
Eu121 O143 2.670 . S
Eu121 O144 2.394 . S
Eu121 O149 2.355 . S
Eu121 O151 2.374 . S
C122 C120 1.500 . S
C122 C123 1.377 . S
C122 C127 1.377 . S
C123 C122 1.377 . S
C123 C124 1.395 . S
C123 H152 0.931 . S
C124 C123 1.395 . S
C124 C125 1.383 . S
C124 H153 0.931 . S
C125 C124 1.383 . S
C125 C126 1.394 . S
C126 C125 1.394 . S
C126 C127 1.378 . S
C126 H154 0.931 . S
C127 C122 1.377 . S
C127 C126 1.378 . S
C127 H155 0.931 . S
C128 O142 1.259 . S
C128 O143 1.270 . S
C129 O144 1.251 . S
C129 O145 1.251 . S
C130 Eu131 2.835 . S
C130 C132 1.500 . S
C130 O146 1.257 . S
C130 O147 1.260 . S
Eu131 C130 2.835 . S
Eu131 O143 2.355 . S
Eu131 O145 2.374 . S
Eu131 O146 2.473 . S
Eu131 O147 2.480 . S
Eu131 O148 2.430 . S
Eu131 O149 2.670 . S
Eu131 O150 2.394 . S
C132 C130 1.500 . S
C132 C133 1.377 . S
C132 C137 1.377 . S
C133 C132 1.377 . S
C133 C134 1.395 . S
C133 H156 0.931 . S
C134 C133 1.395 . S
C134 C135 1.383 . S
C134 H157 0.931 . S
C135 C134 1.383 . S
C135 C136 1.394 . S
C136 C135 1.394 . S
C136 C137 1.378 . S
C136 H158 0.931 . S
C137 C132 1.377 . S
C137 C136 1.378 . S
C137 H159 0.931 . S
C138 O148 1.259 . S
C138 O149 1.270 . S
C139 O150 1.251 . S
C139 O151 1.251 . S
O140 C120 1.257 . S
O140 Eu121 2.473 . S
O141 C120 1.260 . S
O141 Eu121 2.480 . S
O142 Eu121 2.430 . S
O142 C128 1.259 . S
O143 Eu121 2.670 . S
O143 C128 1.270 . S
O143 Eu131 2.355 . S
O144 Eu121 2.394 . S
O144 C129 1.251 . S
O145 C129 1.251 . S
O145 Eu131 2.374 . S
O146 C130 1.257 . S
O146 Eu131 2.473 . S
O147 C130 1.260 . S
O147 Eu131 2.480 . S
O148 Eu131 2.430 . S
O148 C138 1.259 . S
O149 Eu121 2.355 . S
O149 Eu131 2.670 . S
O149 C138 1.270 . S
O150 Eu131 2.394 . S
O150 C139 1.251 . S
O151 Eu121 2.374 . S
O151 C139 1.251 . S
H152 C123 0.931 . S
H153 C124 0.931 . S
H154 C126 0.931 . S
H155 C127 0.931 . S
H156 C133 0.931 . S
H157 C134 0.931 . S
H158 C136 0.931 . S
H159 C137 0.931 . S
C160 Eu161 2.835 . S
C160 C162 1.500 . S
C160 O180 1.257 . S
C160 O181 1.260 . S
Eu161 C160 2.835 . S
Eu161 O180 2.473 . S
Eu161 O181 2.480 . S
Eu161 O182 2.430 . S
Eu161 O183 2.670 . S
Eu161 O184 2.394 . S
Eu161 O189 2.355 . S
Eu161 O191 2.374 . S
C162 C160 1.500 . S
C162 C163 1.377 . S
C162 C167 1.377 . S
C163 C162 1.377 . S
C163 C164 1.395 . S
C163 H192 0.931 . S
C164 C163 1.395 . S
C164 C165 1.383 . S
C164 H193 0.931 . S
C165 C164 1.383 . S
C165 C166 1.394 . S
C166 C165 1.394 . S
C166 C167 1.378 . S
C166 H194 0.931 . S
C167 C162 1.377 . S
C167 C166 1.378 . S
C167 H195 0.931 . S
C168 O182 1.259 . S
C168 O183 1.270 . S
C169 O184 1.251 . S
C169 O185 1.251 . S
C170 Eu171 2.835 . S
C170 C172 1.500 . S
C170 O186 1.257 . S
C170 O187 1.260 . S
Eu171 C170 2.835 . S
Eu171 O183 2.355 . S
Eu171 O185 2.374 . S
Eu171 O186 2.473 . S
Eu171 O187 2.480 . S
Eu171 O188 2.430 . S
Eu171 O189 2.670 . S
Eu171 O190 2.394 . S
C172 C170 1.500 . S
C172 C173 1.377 . S
C172 C177 1.377 . S
C173 C172 1.377 . S
C173 C174 1.395 . S
C173 H196 0.931 . S
C174 C173 1.395 . S
C174 C175 1.383 . S
C174 H197 0.931 1_455 S
C175 C174 1.383 . S
C175 C176 1.394 . S
C176 C175 1.394 . S
C176 C177 1.378 . S
C176 H198 0.931 . S
C177 C172 1.377 . S
C177 C176 1.378 . S
C177 H199 0.931 . S
C178 O188 1.259 . S
C178 O189 1.270 . S
C179 O190 1.251 . S
C179 O191 1.251 . S
O180 C160 1.257 . S
O180 Eu161 2.473 . S
O181 C160 1.260 . S
O181 Eu161 2.480 . S
O182 Eu161 2.430 . S
O182 C168 1.259 . S
O183 Eu161 2.670 . S
O183 C168 1.270 . S
O183 Eu171 2.355 . S
O184 Eu161 2.394 . S
O184 C169 1.251 . S
O185 C169 1.251 . S
O185 Eu171 2.374 . S
O186 C170 1.257 . S
O186 Eu171 2.473 . S
O187 C170 1.260 . S
O187 Eu171 2.480 . S
O188 Eu171 2.430 . S
O188 C178 1.259 . S
O189 Eu161 2.355 . S
O189 Eu171 2.670 . S
O189 C178 1.270 . S
O190 Eu171 2.394 . S
O190 C179 1.251 . S
O191 Eu161 2.374 . S
O191 C179 1.251 . S
H192 C163 0.931 . S
H193 C164 0.931 . S
H194 C166 0.931 . S
H195 C167 0.931 . S
H196 C173 0.931 . S
H197 C174 0.931 1_655 S
H198 C176 0.931 . S
H199 C177 0.931 . S
C200 Eu201 2.835 . S
C200 C202 1.500 . S
C200 O220 1.257 . S
C200 O221 1.260 . S
Eu201 C200 2.835 . S
Eu201 O220 2.473 . S
Eu201 O221 2.480 . S
Eu201 O222 2.430 . S
Eu201 O223 2.670 . S
Eu201 O224 2.394 . S
Eu201 O229 2.355 . S
Eu201 O231 2.374 . S
C202 C200 1.500 . S
C202 C203 1.377 . S
C202 C207 1.377 . S
C203 C202 1.377 . S
C203 C204 1.395 . S
C203 H232 0.931 . S
C204 C203 1.395 . S
C204 C205 1.383 . S
C204 H233 0.931 . S
C205 C204 1.383 . S
C205 C206 1.394 . S
C206 C205 1.394 . S
C206 C207 1.378 . S
C206 H234 0.931 . S
C207 C202 1.377 . S
C207 C206 1.378 . S
C207 H235 0.931 . S
C208 O222 1.259 . S
C208 O223 1.270 . S
C209 O224 1.251 . S
C209 O225 1.251 . S
C210 Eu211 2.835 . S
C210 C212 1.500 . S
C210 O226 1.257 . S
C210 O227 1.260 . S
Eu211 C210 2.835 . S
Eu211 O223 2.355 . S
Eu211 O225 2.374 . S
Eu211 O226 2.473 . S
Eu211 O227 2.480 . S
Eu211 O228 2.430 . S
Eu211 O229 2.670 . S
Eu211 O230 2.394 . S
C212 C210 1.500 . S
C212 C213 1.377 . S
C212 C217 1.377 . S
C213 C212 1.377 . S
C213 C214 1.395 . S
C213 H236 0.931 . S
C214 C213 1.395 . S
C214 C215 1.383 . S
C214 H237 0.931 1_565 S
C215 C214 1.383 . S
C215 C216 1.394 . S
C216 C215 1.394 . S
C216 C217 1.378 . S
C216 H238 0.931 . S
C217 C212 1.377 . S
C217 C216 1.378 . S
C217 H239 0.931 . S
C218 O228 1.259 . S
C218 O229 1.270 . S
C219 O230 1.251 . S
C219 O231 1.251 . S
O220 C200 1.257 . S
O220 Eu201 2.473 . S
O221 C200 1.260 . S
O221 Eu201 2.480 . S
O222 Eu201 2.430 . S
O222 C208 1.259 . S
O223 Eu201 2.670 . S
O223 C208 1.270 . S
O223 Eu211 2.355 . S
O224 Eu201 2.394 . S
O224 C209 1.251 . S
O225 C209 1.251 . S
O225 Eu211 2.374 . S
O226 C210 1.257 . S
O226 Eu211 2.473 . S
O227 C210 1.260 . S
O227 Eu211 2.480 . S
O228 Eu211 2.430 . S
O228 C218 1.259 . S
O229 Eu201 2.355 . S
O229 Eu211 2.670 . S
O229 C218 1.270 . S
O230 Eu211 2.394 . S
O230 C219 1.251 . S
O231 Eu201 2.374 . S
O231 C219 1.251 . S
H232 C203 0.931 . S
H233 C204 0.931 . S
H234 C206 0.931 . S
H235 C207 0.931 . S
H236 C213 0.931 . S
H237 C214 0.931 1_545 S
H238 C216 0.931 . S
H239 C217 0.931 . S
H240 C246 0.930 . S
H241 C250 0.930 . S
H242 C255 0.929 . S
H243 C253 0.929 . S
H244 C248 0.929 . S
H245 C254 0.929 1_545 S
C246 H240 0.930 . S
C246 C247 1.367 . S
C246 C254 1.378 . S
C247 C246 1.367 . S
C247 C255 1.433 . S
C248 H244 0.929 . S
C248 C250 1.378 1_565 S
C248 C252 1.350 1_565 S
C249 C252 1.463 1_566 S
C249 C254 1.350 . S
C249 N257 1.427 . S
C250 H241 0.930 . S
C250 C248 1.378 1_545 S
C250 C251 1.367 . S
C251 C250 1.367 . S
C251 C253 1.433 . S
C252 C248 1.350 1_545 S
C252 C249 1.463 1_544 S
C252 N256 1.427 . S
C253 H243 0.929 . S
C253 C251 1.433 . S
C253 N256 1.384 . S
C254 H245 0.929 1_565 S
C254 C246 1.378 . S
C254 C249 1.350 . S
C255 H242 0.929 . S
C255 C247 1.433 . S
C255 N257 1.384 . S
N256 C252 1.427 . S
N256 C253 1.384 . S
N257 C249 1.427 . S
N257 C255 1.384 . S
H258 C264 0.930 . S
H259 C268 0.930 . S
H260 C273 0.929 . S
H261 C271 0.929 . S
H262 C266 0.929 . S
H263 C272 0.929 . S
C264 H258 0.930 . S
C264 C265 1.367 . S
C264 C272 1.378 . S
C265 C264 1.367 . S
C265 C273 1.433 . S
C266 H262 0.929 . S
C266 C268 1.378 . S
C266 C270 1.350 . S
C267 C270 1.463 . S
C267 C272 1.350 . S
C267 N275 1.427 . S
C268 H259 0.930 . S
C268 C266 1.378 . S
C268 C269 1.367 . S
C269 C268 1.367 . S
C269 C271 1.433 . S
C270 C266 1.350 . S
C270 C267 1.463 . S
C270 N274 1.427 . S
C271 H261 0.929 . S
C271 C269 1.433 . S
C271 N274 1.384 . S
C272 H263 0.929 . S
C272 C264 1.378 . S
C272 C267 1.350 . S
C273 H260 0.929 . S
C273 C265 1.433 . S
C273 N275 1.384 . S
N274 C270 1.427 . S
N274 C271 1.384 . S
N275 C267 1.427 . S
N275 C273 1.384 . S
H276 C282 0.930 . S
H277 C286 0.930 . S
H278 C291 0.929 . S
H279 C289 0.929 . S
H280 C284 0.929 1_655 S
H281 C290 0.929 . S
C282 H276 0.930 . S
C282 C283 1.367 . S
C282 C290 1.378 1_655 S
C283 C282 1.367 . S
C283 C291 1.433 . S
C284 H280 0.929 1_455 S
C284 C286 1.378 . S
C284 C288 1.350 . S
C285 C288 1.463 1_654 S
C285 C290 1.350 1_655 S
C285 N293 1.427 . S
C286 H277 0.930 . S
C286 C284 1.378 . S
C286 C287 1.367 . S
C287 C286 1.367 . S
C287 C289 1.433 . S
C288 C284 1.350 . S
C288 C285 1.463 1_456 S
C288 N292 1.427 . S
C289 H279 0.929 . S
C289 C287 1.433 . S
C289 N292 1.384 . S
C290 H281 0.929 . S
C290 C282 1.378 1_455 S
C290 C285 1.350 1_455 S
C291 H278 0.929 . S
C291 C283 1.433 . S
C291 N293 1.384 . S
N292 C288 1.427 . S
N292 C289 1.384 . S
N293 C285 1.427 . S
N293 C291 1.384 . S
H294 C300 0.930 . S
H295 C304 0.930 . S
H296 C309 0.929 . S
H297 C307 0.929 . S
H298 C302 0.929 . S
H299 C308 0.929 . S
C300 H294 0.930 . S
C300 C301 1.367 . S
C300 C308 1.378 . S
C301 C300 1.367 . S
C301 C309 1.433 . S
C302 H298 0.929 . S
C302 C304 1.378 . S
C302 C306 1.350 . S
C303 C306 1.463 1_545 S
C303 C308 1.350 . S
C303 N311 1.427 . S
C304 H295 0.930 . S
C304 C302 1.378 . S
C304 C305 1.367 . S
C305 C304 1.367 . S
C305 C307 1.433 . S
C306 C302 1.350 . S
C306 C303 1.463 1_565 S
C306 N310 1.427 1_565 S
C307 H297 0.929 . S
C307 C305 1.433 . S
C307 N310 1.384 1_565 S
C308 H299 0.929 . S
C308 C300 1.378 . S
C308 C303 1.350 . S
C309 H296 0.929 . S
C309 C301 1.433 . S
C309 N311 1.384 . S
N310 C306 1.427 1_545 S
N310 C307 1.384 1_545 S
N311 C303 1.427 . S
N311 C309 1.384 . S
H312 C318 0.930 . S
H313 C322 0.930 . S
H314 C327 0.929 . S
H315 C325 0.929 . S
H316 C320 0.929 1_556 S
H317 C326 0.929 1_554 S
C318 H312 0.930 . S
C318 C319 1.367 . S
C318 C326 1.378 . S
C319 C318 1.367 . S
C319 C327 1.433 . S
C320 H316 0.929 1_554 S
C320 C322 1.378 . S
C320 C324 1.350 . S
C321 C324 1.463 1_556 S
C321 C326 1.350 . S
C321 N329 1.427 . S
C322 H313 0.930 . S
C322 C320 1.378 . S
C322 C323 1.367 . S
C323 C322 1.367 . S
C323 C325 1.433 . S
C324 C320 1.350 . S
C324 C321 1.463 1_554 S
C324 N328 1.427 . S
C325 H315 0.929 . S
C325 C323 1.433 . S
C325 N328 1.384 . S
C326 H317 0.929 1_556 S
C326 C318 1.378 . S
C326 C321 1.350 . S
C327 H314 0.929 . S
C327 C319 1.433 . S
C327 N329 1.384 . S
N328 C324 1.427 . S
N328 C325 1.384 . S
N329 C321 1.427 . S
N329 C327 1.384 . S
H330 C336 0.930 . S
H331 C340 0.930 . S
H332 C345 0.929 . S
H333 C343 0.929 . S
H334 C338 0.929 1_655 S
H335 C344 0.929 1_455 S
C336 H330 0.930 . S
C336 C337 1.367 . S
C336 C344 1.378 . S
C337 C336 1.367 . S
C337 C345 1.433 . S
C338 H334 0.929 1_455 S
C338 C340 1.378 . S
C338 C342 1.350 . S
C339 C342 1.463 1_655 S
C339 C344 1.350 . S
C339 N347 1.427 . S
C340 H331 0.930 . S
C340 C338 1.378 . S
C340 C341 1.367 . S
C341 C340 1.367 . S
C341 C343 1.433 . S
C342 C338 1.350 . S
C342 C339 1.463 1_455 S
C342 N346 1.427 . S
C343 H333 0.929 . S
C343 C341 1.433 . S
C343 N346 1.384 . S
C344 H335 0.929 1_655 S
C344 C336 1.378 . S
C344 C339 1.350 . S
C345 H332 0.929 . S
C345 C337 1.433 . S
C345 N347 1.384 . S
N346 C342 1.427 . S
N346 C343 1.384 . S
N347 C339 1.427 . S
N347 C345 1.384 . S
H348 C354 0.930 . S
H349 C358 0.930 . S
H350 C363 0.929 . S
H351 C361 0.929 . S
H352 C356 0.929 . S
H353 C362 0.929 . S
C354 H348 0.930 . S
C354 C355 1.367 . S
C354 C362 1.378 . S
C355 C354 1.367 . S
C355 C363 1.433 . S
C356 H352 0.929 . S
C356 C358 1.378 . S
C356 C360 1.350 . S
C357 C360 1.463 . S
C357 C362 1.350 . S
C357 N365 1.427 . S
C358 H349 0.930 . S
C358 C356 1.378 . S
C358 C359 1.367 . S
C359 C358 1.367 . S
C359 C361 1.433 . S
C360 C356 1.350 . S
C360 C357 1.463 . S
C360 N364 1.427 . S
C361 H351 0.929 . S
C361 C359 1.433 . S
C361 N364 1.384 . S
C362 H353 0.929 . S
C362 C354 1.378 . S
C362 C357 1.350 . S
C363 H350 0.929 . S
C363 C355 1.433 . S
C363 N365 1.384 . S
N364 C360 1.427 . S
N364 C361 1.384 . S
N365 C357 1.427 . S
N365 C363 1.384 . S
H366 C372 0.930 . S
H367 C376 0.930 . S
H368 C381 0.929 . S
H369 C379 0.929 . S
H370 C374 0.929 . S
H371 C380 0.929 . S
C372 H366 0.930 . S
C372 C373 1.367 . S
C372 C380 1.378 . S
C373 C372 1.367 . S
C373 C381 1.433 . S
C374 H370 0.929 . S
C374 C376 1.378 . S
C374 C378 1.350 . S
C375 C378 1.463 . S
C375 C380 1.350 . S
C375 N383 1.427 . S
C376 H367 0.930 . S
C376 C374 1.378 . S
C376 C377 1.367 . S
C377 C376 1.367 . S
C377 C379 1.433 . S
C378 C374 1.350 . S
C378 C375 1.463 . S
C378 N382 1.427 . S
C379 H369 0.929 . S
C379 C377 1.433 . S
C379 N382 1.384 . S
C380 H371 0.929 . S
C380 C372 1.378 . S
C380 C375 1.350 . S
C381 H368 0.929 . S
C381 C373 1.433 . S
C381 N383 1.384 . S
N382 C378 1.427 . S
N382 C379 1.384 . S
N383 C375 1.427 . S
N383 C381 1.384 . S
H384 C390 0.930 . S
H385 C394 0.930 . S
H386 C399 0.929 . S
H387 C397 0.929 . S
H388 C392 0.929 . S
H389 C398 0.929 . S
C390 H384 0.930 . S
C390 C391 1.367 . S
C390 C398 1.378 . S
C391 C390 1.367 . S
C391 C399 1.433 . S
C392 H388 0.929 . S
C392 C394 1.378 . S
C392 C396 1.350 . S
C393 C396 1.463 . S
C393 C398 1.350 . S
C393 N401 1.427 . S
C394 H385 0.930 . S
C394 C392 1.378 . S
C394 C395 1.367 . S
C395 C394 1.367 . S
C395 C397 1.433 . S
C396 C392 1.350 . S
C396 C393 1.463 . S
C396 N400 1.427 . S
C397 H387 0.929 . S
C397 C395 1.433 . S
C397 N400 1.384 . S
C398 H389 0.929 . S
C398 C390 1.378 . S
C398 C393 1.350 . S
C399 H386 0.929 . S
C399 C391 1.433 . S
C399 N401 1.384 . S
N400 C396 1.427 . S
N400 C397 1.384 . S
N401 C393 1.427 . S
N401 C399 1.384 . S
H402 C408 0.930 . S
H403 C412 0.930 . S
H404 C417 0.929 . S
H405 C415 0.929 . S
H406 C410 0.929 . S
H407 C416 0.929 . S
C408 H402 0.930 . S
C408 C409 1.367 . S
C408 C416 1.378 . S
C409 C408 1.367 . S
C409 C417 1.433 . S
C410 H406 0.929 . S
C410 C412 1.378 . S
C410 C414 1.350 . S
C411 C414 1.463 . S
C411 C416 1.350 . S
C411 N419 1.427 . S
C412 H403 0.930 . S
C412 C410 1.378 . S
C412 C413 1.367 . S
C413 C412 1.367 . S
C413 C415 1.433 . S
C414 C410 1.350 . S
C414 C411 1.463 . S
C414 N418 1.427 . S
C415 H405 0.929 . S
C415 C413 1.433 . S
C415 N418 1.384 . S
C416 H407 0.929 . S
C416 C408 1.378 . S
C416 C411 1.350 . S
C417 H404 0.929 . S
C417 C409 1.433 . S
C417 N419 1.384 . S
N418 C414 1.427 . S
N418 C415 1.384 . S
N419 C411 1.427 . S
N419 C417 1.384 . S
H420 C426 0.930 . S
H421 C430 0.930 . S
H422 C435 0.929 . S
H423 C433 0.929 . S
H424 C428 0.929 . S
H425 C434 0.929 . S
C426 H420 0.930 . S
C426 C427 1.367 . S
C426 C434 1.378 . S
C427 C426 1.367 . S
C427 C435 1.433 . S
C428 H424 0.929 . S
C428 C430 1.378 . S
C428 C432 1.350 . S
C429 C432 1.463 . S
C429 C434 1.350 . S
C429 N437 1.427 . S
C430 H421 0.930 . S
C430 C428 1.378 . S
C430 C431 1.367 . S
C431 C430 1.367 . S
C431 C433 1.433 . S
C432 C428 1.350 . S
C432 C429 1.463 . S
C432 N436 1.427 . S
C433 H423 0.929 . S
C433 C431 1.433 . S
C433 N436 1.384 . S
C434 H425 0.929 . S
C434 C426 1.378 . S
C434 C429 1.350 . S
C435 H422 0.929 . S
C435 C427 1.433 . S
C435 N437 1.384 . S
N436 C432 1.427 . S
N436 C433 1.384 . S
N437 C429 1.427 . S
N437 C435 1.384 . S
H438 C444 0.930 . S
H439 C448 0.930 . S
H440 C453 0.929 . S
H441 C451 0.929 . S
H442 C446 0.929 . S
H443 C452 0.929 . S
C444 H438 0.930 . S
C444 C445 1.367 . S
C444 C452 1.378 . S
C445 C444 1.367 . S
C445 C453 1.433 . S
C446 H442 0.929 . S
C446 C448 1.378 . S
C446 C450 1.350 . S
C447 C450 1.463 . S
C447 C452 1.350 . S
C447 N455 1.427 . S
C448 H439 0.930 . S
C448 C446 1.378 . S
C448 C449 1.367 . S
C449 C448 1.367 . S
C449 C451 1.433 . S
C450 C446 1.350 . S
C450 C447 1.463 . S
C450 N454 1.427 . S
C451 H441 0.929 . S
C451 C449 1.433 . S
C451 N454 1.384 . S
C452 H443 0.929 . S
C452 C444 1.378 . S
C452 C447 1.350 . S
C453 H440 0.929 . S
C453 C445 1.433 . S
C453 N455 1.384 . S
N454 C450 1.427 . S
N454 C451 1.384 . S
N455 C447 1.427 . S
N455 C453 1.384 . S
H456 C462 0.930 . S
H457 C466 0.930 . S
H458 C471 0.929 . S
H459 C469 0.929 . S
H460 C464 0.929 . S
H461 C470 0.929 . S
C462 H456 0.930 . S
C462 C463 1.367 . S
C462 C470 1.378 . S
C463 C462 1.367 . S
C463 C471 1.433 . S
C464 H460 0.929 . S
C464 C466 1.378 . S
C464 C468 1.350 . S
C465 C468 1.463 . S
C465 C470 1.350 . S
C465 N473 1.427 . S
C466 H457 0.930 . S
C466 C464 1.378 . S
C466 C467 1.367 . S
C467 C466 1.367 . S
C467 C469 1.433 . S
C468 C464 1.350 . S
C468 C465 1.463 . S
C468 N472 1.427 . S
C469 H459 0.929 . S
C469 C467 1.433 . S
C469 N472 1.384 . S
C470 H461 0.929 . S
C470 C462 1.378 . S
C470 C465 1.350 . S
C471 H458 0.929 . S
C471 C463 1.433 . S
C471 N473 1.384 . S
N472 C468 1.427 . S
N472 C469 1.384 . S
N473 C465 1.427 . S
N473 C471 1.384 . S
H474 C480 0.930 . S
H475 C484 0.930 . S
H476 C489 0.929 . S
H477 C487 0.929 . S
H478 C482 0.929 1_655 S
H479 C488 0.929 . S
C480 H474 0.930 . S
C480 C481 1.367 . S
C480 C488 1.378 . S
C481 C480 1.367 . S
C481 C489 1.433 . S
C482 H478 0.929 1_455 S
C482 C484 1.378 . S
C482 C486 1.350 1_455 S
C483 C486 1.463 . S
C483 C488 1.350 . S
C483 N491 1.427 . S
C484 H475 0.930 . S
C484 C482 1.378 . S
C484 C485 1.367 . S
C485 C484 1.367 . S
C485 C487 1.433 . S
C486 C482 1.350 1_655 S
C486 C483 1.463 . S
C486 N490 1.427 1_655 S
C487 H477 0.929 . S
C487 C485 1.433 . S
C487 N490 1.384 . S
C488 H479 0.929 . S
C488 C480 1.378 . S
C488 C483 1.350 . S
C489 H476 0.929 . S
C489 C481 1.433 . S
C489 N491 1.384 . S
N490 C486 1.427 1_455 S
N490 C487 1.384 . S
N491 C483 1.427 . S
N491 C489 1.384 . S
H492 C498 0.930 . S
H493 C502 0.930 . S
H494 C507 0.929 . S
H495 C505 0.929 . S
H496 C500 0.929 1_545 S
H497 C506 0.929 . S
C498 H492 0.930 . S
C498 C499 1.367 . S
C498 C506 1.378 . S
C499 C498 1.367 . S
C499 C507 1.433 . S
C500 H496 0.929 1_565 S
C500 C502 1.378 . S
C500 C504 1.350 1_565 S
C501 C504 1.463 . S
C501 C506 1.350 . S
C501 N509 1.427 . S
C502 H493 0.930 . S
C502 C500 1.378 . S
C502 C503 1.367 . S
C503 C502 1.367 . S
C503 C505 1.433 . S
C504 C500 1.350 1_545 S
C504 C501 1.463 . S
C504 N508 1.427 1_545 S
C505 H495 0.929 . S
C505 C503 1.433 . S
C505 N508 1.384 . S
C506 H497 0.929 . S
C506 C498 1.378 . S
C506 C501 1.350 . S
C507 H494 0.929 . S
C507 C499 1.433 . S
C507 N509 1.384 . S
N508 C504 1.427 1_565 S
N508 C505 1.384 . S
N509 C501 1.427 . S
N509 C507 1.384 . S
H510 C516 0.930 . S
H511 C520 0.930 . S
H512 C525 0.929 . S
H513 C523 0.929 . S
H514 C518 0.929 . S
H515 C524 0.929 . S
C516 H510 0.930 . S
C516 C517 1.367 . S
C516 C524 1.378 . S
C517 C516 1.367 . S
C517 C525 1.433 . S
C518 H514 0.929 . S
C518 C520 1.378 . S
C518 C522 1.350 . S
C519 C522 1.463 . S
C519 C524 1.350 . S
C519 N527 1.427 . S
C520 H511 0.930 . S
C520 C518 1.378 . S
C520 C521 1.367 1_545 S
C521 C520 1.367 1_565 S
C521 C523 1.433 . S
C522 C518 1.350 . S
C522 C519 1.463 . S
C522 N526 1.427 . S
C523 H513 0.929 . S
C523 C521 1.433 . S
C523 N526 1.384 1_565 S
C524 H515 0.929 . S
C524 C516 1.378 . S
C524 C519 1.350 . S
C525 H512 0.929 . S
C525 C517 1.433 . S
C525 N527 1.384 . S
N526 C522 1.427 . S
N526 C523 1.384 1_545 S
N527 C519 1.427 . S
N527 C525 1.384 . S
H528 C534 0.930 . S
H529 C538 0.930 . S
H530 C543 0.929 . S
H531 C541 0.929 . S
H532 C536 0.929 . S
H533 C542 0.929 . S
C534 H528 0.930 . S
C534 C535 1.367 . S
C534 C542 1.378 . S
C535 C534 1.367 . S
C535 C543 1.433 . S
C536 H532 0.929 . S
C536 C538 1.378 . S
C536 C540 1.350 . S
C537 C540 1.463 . S
C537 C542 1.350 . S
C537 N545 1.427 . S
C538 H529 0.930 . S
C538 C536 1.378 . S
C538 C539 1.367 . S
C539 C538 1.367 . S
C539 C541 1.433 . S
C540 C536 1.350 . S
C540 C537 1.463 . S
C540 N544 1.427 . S
C541 H531 0.929 . S
C541 C539 1.433 . S
C541 N544 1.384 . S
C542 H533 0.929 . S
C542 C534 1.378 . S
C542 C537 1.350 . S
C543 H530 0.929 . S
C543 C535 1.433 . S
C543 N545 1.384 . S
N544 C540 1.427 . S
N544 C541 1.384 . S
N545 C537 1.427 . S
N545 C543 1.384 . S
H546 C552 0.930 . S
H547 C556 0.930 . S
H548 C561 0.929 . S
H549 C559 0.929 . S
H550 C554 0.929 . S
H551 C560 0.922 1_455 S
C552 H546 0.930 . S
C552 C553 1.367 . S
C552 C560 1.378 1_455 S
C553 C552 1.367 . S
C553 C561 1.433 1_455 S
C554 H550 0.929 . S
C554 C556 1.378 . S
C554 C558 1.350 . S
C555 C558 1.463 . S
C555 C560 1.350 . S
C555 N563 1.427 . S
C556 H547 0.930 . S
C556 C554 1.378 . S
C556 C557 1.367 . S
C557 C556 1.367 . S
C557 C559 1.433 . S
C558 C554 1.350 . S
C558 C555 1.463 . S
C558 N562 1.427 . S
C559 H549 0.929 . S
C559 C557 1.433 . S
C559 N562 1.384 . S
C560 H551 0.922 1_655 S
C560 C552 1.378 1_655 S
C560 C555 1.350 . S
C561 H548 0.929 . S
C561 C553 1.433 1_655 S
C561 N563 1.384 . S
N562 C558 1.427 . S
N562 C559 1.384 . S
N563 C555 1.427 . S
N563 C561 1.384 . S
C247 C168 2.206 . S
C251 C18 2.552 . S
C265 C218 2.565 . S
C269 C48 2.201 . S
C283 C98 2.552 . S
C287 C128 2.205 . S
C301 C8 2.218 . S
C305 C178 2.569 . S
C319 C208 2.213 . S
C323 C58 2.554 . S
C337 C88 2.203 . S
C341 C138 2.562 . S
C355 C19 1.983 . S
C359 C95 1.940 . S
C373 C59 1.982 . S
C377 C15 1.938 . S
C391 C99 1.982 . S
C395 C55 1.935 . S
C409 C125 1.880 . S
C413 C169 1.847 . S
C427 C165 1.876 . S
C431 C209 1.848 . S
C445 C129 1.840 . S
C449 C205 1.876 . S
C463 C9 1.086 . S
C467 C85 1.097 . S
C481 C49 1.066 . S
C485 C5 1.087 . S
C499 C89 1.067 . S
C503 C45 1.091 . S
C517 C135 1.177 . S
C521 C179 1.202 . S
C535 C175 1.173 1_655 S
C539 C219 1.199 . S
C553 C139 1.197 . S
C557 C215 1.169 1_545 S
