# Generated by pormake.
# Topology sxa, (6)-cn, num edge types: 1
# Building blocks:
#     Node 0, Type 0, BuildingBlock: JUFBIX_clean_sbu_0, # of connection points: 6
#     Node 1, Type 0, BuildingBlock: JUFBIX_clean_sbu_0, # of connection points: 6
#     Node 2, Type 0, BuildingBlock: JUFBIX_clean_sbu_0, # of connection points: 6
#     Node 3, Type 0, BuildingBlock: JUFBIX_clean_sbu_0, # of connection points: 6
#     Edge 4, Type (0, 0), BuildingBlock: FUNLAD_clean_linker_1, # of connection points: 2
#     Edge 5, Type (0, 0), BuildingBlock: FUNLAD_clean_linker_1, # of connection points: 2
#     Edge 6, Type (0, 0), BuildingBlock: FUNLAD_clean_linker_1, # of connection points: 2
#     Edge 7, Type (0, 0), BuildingBlock: FUNLAD_clean_linker_1, # of connection points: 2
#     Edge 8, Type (0, 0), BuildingBlock: FUNLAD_clean_linker_1, # of connection points: 2
#     Edge 9, Type (0, 0), BuildingBlock: FUNLAD_clean_linker_1, # of connection points: 2
#     Edge 10, Type (0, 0), BuildingBlock: FUNLAD_clean_linker_1, # of connection points: 2
#     Edge 11, Type (0, 0), BuildingBlock: FUNLAD_clean_linker_1, # of connection points: 2
#     Edge 12, Type (0, 0), BuildingBlock: FUNLAD_clean_linker_1, # of connection points: 2
#     Edge 13, Type (0, 0), BuildingBlock: FUNLAD_clean_linker_1, # of connection points: 2
#     Edge 14, Type (0, 0), BuildingBlock: FUNLAD_clean_linker_1, # of connection points: 2
#     Edge 15, Type (0, 0), BuildingBlock: FUNLAD_clean_linker_1, # of connection points: 2
# Relax obj value: 0.387
# Max RMSD: 0.291
# Mean RMSD: 0.291
data_MOF--net-sxa--node1-JUFBIX_clean_sbu_0--edge1-FUNLAD_clean_linker_1
_symmetry_space_group_name_H-M    P1
_symmetry_Int_Tables_number       1
_symmetry_cell_setting            triclinic
loop_
_symmetry_equiv_pos_as_xyz
'x, y, z'
_cell_length_a     29.80965
_cell_length_b     28.092373
_cell_length_c     16.029252
_cell_angle_alpha  86.916926
_cell_angle_beta   75.359161
_cell_angle_gamma 85.209298
loop_
_atom_site_label
_atom_site_type_symbol
_atom_site_fract_x
_atom_site_fract_y
_atom_site_fract_z
_atom_type_partial_charge
Co0 Co 0.0003 0.81628 0.18883 0.0
C1 C 0.01533 0.90313 0.24338 0.0
Co2 Co 0.02795 0.80835 0.3056 0.0
C3 C 0.94279 0.79764 0.07928 0.0
C4 C -0.01518 0.85562 1.02793 0.0
N5 N 0.97592 0.82313 0.09423 0.0
N6 N 0.93001 0.81329 1.00755 0.0
C7 C 0.95578 0.85018 0.97508 0.0
H8 H 0.92571 0.77048 0.12384 0.0
H9 H 0.00926 0.88284 1.0207 0.0
C10 C 0.01371 0.72187 0.2381 0.0
N11 N 0.05785 0.80108 0.39808 0.0
C12 C 0.09821 0.81936 0.40143 0.0
C13 C 0.04959 0.76939 0.46551 0.0
N14 N 0.11601 0.79965 0.46647 0.0
C15 C 0.08501 0.76842 0.50745 0.0
C16 C 0.93224 0.81618 0.34736 0.0
O17 O -0.00024 0.75097 0.18565 0.0
O18 O 0.02738 0.73825 0.29985 0.0
O19 O 0.96665 0.81127 0.38193 0.0
O20 O 0.9396 0.81959 0.26546 0.0
O21 O 0.02895 0.87913 0.30399 0.0
H22 H 0.02098 0.7465 0.48056 0.0
H23 H 0.11559 0.84504 0.35407 0.0
O24 O 0.00086 0.88106 0.19009 0.0
O25 O 0.06052 0.81287 0.11375 0.0
O26 O 0.0862 0.80467 0.23056 0.0
C27 C 0.09398 0.80627 0.14925 0.0
H28 H 0.95198 0.87298 0.92029 0.0
H29 H 0.08813 0.74532 0.56219 0.0
Co30 Co 0.50399 0.27324 0.20978 0.0
C31 C 0.5175 0.36224 0.24948 0.0
Co32 Co 0.53965 0.26891 0.31386 0.0
C33 C 0.44905 0.23894 0.10997 0.0
C34 C 0.48261 0.30021 1.04727 0.0
N35 N 0.47667 0.27239 0.11988 0.0
N36 N 0.4368 0.24471 1.03459 0.0
C37 C 0.45761 0.28345 0.99494 0.0
H38 H 0.43743 0.21158 0.15881 0.0
H39 H 0.50352 0.33071 1.03358 0.0
C40 C 0.52807 0.17988 0.25862 0.0
N41 N 0.57108 0.2684 0.40085 0.0
C42 C 0.60608 0.29554 0.40326 0.0
C43 C 0.56858 0.23704 0.46833 0.0
N44 N 0.62638 0.28163 0.46772 0.0
C45 C 0.60259 0.24498 0.50947 0.0
C46 C 0.44375 0.27224 0.37532 0.0
O47 O 0.51169 0.20761 0.20771 0.0
O48 O 0.54112 0.1981 0.31921 0.0
O49 O 0.48193 0.27326 0.39635 0.0
O50 O 0.44422 0.27012 0.29553 0.0
O51 O 0.53869 0.33971 0.30168 0.0
H52 H 0.54474 0.20903 0.48463 0.0
H53 H 0.61772 0.32382 0.35634 0.0
O54 O 0.49644 0.33871 0.20827 0.0
O55 O 0.56302 0.27699 0.12733 0.0
O56 O 0.59648 0.26488 0.23392 0.0
C57 C 0.59975 0.27103 0.15403 0.0
H58 H 0.45332 0.29965 0.93435 0.0
H59 H 0.60966 0.22468 0.56459 0.0
Co60 Co 0.01124 0.32681 0.82023 0.0
C61 C 0.03005 0.41407 0.88069 0.0
Co62 Co 0.04024 0.3209 0.93393 0.0
C63 C 0.94881 0.30929 0.71672 0.0
C64 C -0.0085 0.36597 0.66058 0.0
N65 N -0.01507 0.33285 0.72582 0.0
N66 N 0.93169 0.32705 0.65028 0.0
C67 C 0.95874 0.36258 0.61406 0.0
H68 H 0.93363 0.2812 0.7611 0.0
H69 H 0.01695 0.39237 0.65001 0.0
C70 C 0.02116 0.23336 0.88763 0.0
N71 N 0.0618 0.31372 1.03163 0.0
C72 C 0.1055 0.31726 1.03702 0.0
C73 C 0.03971 0.29462 0.10879 0.0
N74 N 0.11225 0.29896 0.11275 0.0
C75 C 0.07075 0.2857 0.15893 0.0
C76 C 0.94412 0.33337 0.97157 0.0
O77 O 0.00817 0.25622 0.82546 0.0
O78 O 0.03627 0.25641 0.93862 0.0
O79 O 0.97803 0.32868 1.00628 0.0
O80 O 0.95191 0.333 0.89061 0.0
O81 O 0.04483 0.38557 0.93304 0.0
H82 H 0.00452 0.28372 0.12503 0.0
H83 H 0.13244 0.3297 0.9837 0.0
O84 O 0.01399 0.39698 0.82243 0.0
O85 O 0.07148 0.32078 0.7465 0.0
O86 O 0.10288 0.31264 0.85708 0.0
C87 C 0.10746 0.31409 0.77548 0.0
H88 H 0.9545 0.38543 0.55968 0.0
H89 H 0.06454 0.26642 0.22064 0.0
Co90 Co 0.51626 0.78277 0.83514 0.0
C91 C 0.52584 0.86678 0.91405 0.0
Co92 Co 0.54166 0.77063 0.95387 0.0
C93 C 0.44763 0.77193 0.73692 0.0
C94 C 0.494 0.82477 0.67677 0.0
N95 N 0.4871 0.79155 0.74183 0.0
N96 N 0.42908 0.79213 0.67326 0.0
C97 C 0.45864 0.82522 0.63469 0.0
H98 H 0.43119 0.74501 0.78268 0.0
H99 H 0.52149 0.84901 0.6637 0.0
C100 C 0.5315 0.68598 0.88726 0.0
N101 N 0.56436 0.76219 1.05058 0.0
C102 C 0.59227 0.79092 0.07484 0.0
C103 C 0.55677 0.72715 0.11257 0.0
N104 N 0.60284 0.77514 0.14858 0.0
C105 C 0.58121 0.73463 0.17246 0.0
C106 C 0.44819 0.77697 0.9884 0.0
O107 O 0.51655 0.71219 0.83056 0.0
O108 O 0.54556 0.70588 0.94366 0.0
O109 O 0.48068 0.76829 1.02594 0.0
O110 O 0.45769 0.78403 0.90766 0.0
O111 O 0.53772 0.83585 0.96594 0.0
H112 H 0.53592 0.69741 0.11292 0.0
H113 H 0.60704 0.82133 1.0363 0.0
O114 O 0.5157 0.8527 0.84672 0.0
O115 O 0.57781 0.78218 0.76131 0.0
O116 O 0.60311 0.77294 0.87984 0.0
C117 C 0.61148 0.77804 0.79783 0.0
H118 H 0.45444 0.8493 0.58181 0.0
H119 H 0.58461 0.71121 0.22673 0.0
H120 H 0.00455 0.49061 0.86808 0.0
C121 C 0.02623 0.46597 0.8983 0.0
H122 H 0.06578 0.4557 0.99145 0.0
H123 H 0.07805 0.67698 1.04033 0.0
H124 H 0.13953 0.67183 0.90825 0.0
H125 H 0.15235 0.60049 0.81952 0.0
H126 H 0.10324 0.53395 0.86185 0.0
C127 C 0.04429 0.48073 0.96139 0.0
C128 C 0.03117 0.52734 1.00478 0.0
C129 C 0.05996 0.56589 0.97945 0.0
C130 C 0.05254 0.60706 1.03087 0.0
C131 C 0.08189 0.64504 1.00354 0.0
C132 C 0.11745 0.64245 0.92806 0.0
C133 C 0.12469 0.60225 0.87813 0.0
C134 C 0.09641 0.56429 0.90324 0.0
H135 H 0.0383 0.64499 0.25102 0.0
C136 C 0.01856 0.67026 0.21794 0.0
H137 H -0.01616 0.68216 0.11767 0.0
H138 H 0.96984 0.45981 0.07318 0.0
H139 H 0.90828 0.46508 0.20513 0.0
H140 H 0.89532 0.53657 0.29349 0.0
H141 H 0.94426 0.60318 0.25084 0.0
C142 C 0.00317 0.65644 0.15083 0.0
C143 C 0.01639 0.6097 0.10799 0.0
C144 C -0.01234 0.57112 0.13343 0.0
C145 C -0.00491 0.52992 0.08206 0.0
C146 C 0.96589 0.49186 0.10968 0.0
C147 C 0.93033 0.49448 0.18518 0.0
C148 C 0.92299 0.53477 0.23489 0.0
C149 C 0.95119 0.57277 0.20961 0.0
H150 H 0.5459 0.43344 0.24952 0.0
C151 C 0.52298 0.41361 0.22372 0.0
H152 H 0.48297 0.41247 0.13187 0.0
H153 H 0.48065 0.64134 0.07795 0.0
H154 H 0.42769 0.64386 0.22033 0.0
H155 H 0.41509 0.57086 0.31341 0.0
H156 H 0.45585 0.49487 0.26492 0.0
C157 C 0.50475 0.4331 0.15908 0.0
C158 C 0.51808 0.4787 0.11041 0.0
C159 C 0.49412 0.52276 0.13936 0.0
C160 C 0.50143 0.5649 0.0854 0.0
C161 C 0.47687 0.60838 0.11637 0.0
C162 C 0.44616 0.61028 0.19783 0.0
C163 C 0.43902 0.56916 0.25021 0.0
C164 C 0.46254 0.52579 0.22158 0.0
H165 H 0.50212 0.61707 0.87307 0.0
C166 C 0.52708 0.63349 0.89929 0.0
H167 H 0.57291 0.62587 0.98144 0.0
H168 H 0.56975 0.40028 1.03442 0.0
H169 H 0.62312 0.39792 0.89228 0.0
H170 H 0.63583 0.47096 0.79936 0.0
H171 H 0.59481 0.54698 0.84784 0.0
C172 C 0.54799 0.60879 0.95601 0.0
C173 C 0.53286 0.5631 1.00234 0.0
C174 C 0.55666 0.51899 0.9733 0.0
C175 C 0.54921 0.4768 1.02709 0.0
C176 C 0.57372 0.43329 0.9961 0.0
C177 C 0.60461 0.43147 0.91478 0.0
C178 C 0.61182 0.47263 0.86251 0.0
C179 C 0.58825 0.516 0.89112 0.0
H180 H 0.51536 0.9461 0.89245 0.0
C181 C 0.52302 0.91794 0.93699 0.0
H182 H 0.53761 0.90001 1.05795 0.0
H183 H 0.6117 0.08084 0.15973 0.0
H184 H 0.6829 1.03015 0.11755 0.0
H185 H 0.68465 0.95501 1.04363 0.0
H186 H 0.61534 0.93052 1.01004 0.0
C187 C 0.52943 0.92871 1.01476 0.0
C188 C 0.52897 0.97769 1.04767 0.0
C189 C 0.56966 0.9916 1.06814 0.0
C190 C 0.56856 1.0348 0.11195 0.0
C191 C 0.61022 0.04819 0.1282 0.0
C192 C 0.65146 1.01943 0.1041 0.0
C193 C 0.65245 0.97712 1.06249 0.0
C194 C 0.61227 0.96332 1.04414 0.0
H195 H 0.54145 0.10154 0.28775 0.0
C196 C 0.53286 0.12778 0.24093 0.0
H197 H 0.51778 0.14108 0.1192 0.0
H198 H 0.44359 0.96046 1.02582 0.0
H199 H 0.37217 1.01055 1.06983 0.0
H200 H 0.37021 0.08516 0.14519 0.0
H201 H 0.43979 0.11006 0.17759 0.0
C202 C 0.52645 0.11401 0.16478 0.0
C203 C 0.52655 0.06402 0.13662 0.0
C204 C 0.48569 0.04967 0.11741 0.0
C205 C 0.48683 1.00661 0.07326 0.0
C206 C 0.44508 0.99306 1.0575 0.0
C207 C 0.40368 1.02144 0.08276 0.0
C208 C 0.4026 0.06349 0.12512 0.0
C209 C 0.44289 0.07751 0.14273 0.0
H210 H 0.03757 0.97541 0.26207 0.0
C211 C 0.01962 0.95549 0.22583 0.0
H212 H -0.01432 0.95637 0.1244 0.0
H213 H 0.94034 0.16554 1.02979 0.0
H214 H 0.86455 0.14453 0.11301 0.0
H215 H 0.85539 0.06933 0.20034 0.0
H216 H 0.92231 1.015 0.20591 0.0
C217 C 0.00491 0.97652 0.15794 0.0
C218 C 0.01264 1.02602 0.1207 0.0
C219 C 0.97331 0.05756 0.11696 0.0
C220 C 0.97855 0.1008 1.06556 0.0
C221 C 0.93856 0.13192 1.06601 0.0
C222 C 0.8947 0.12036 0.11385 0.0
C223 C 0.88954 0.07802 0.16299 0.0
C224 C 0.92822 0.04699 0.16509 0.0
H225 H -0.00166 0.16067 0.87356 0.0
C226 C 0.01618 0.18138 0.90877 0.0
H227 H 0.04977 0.18259 1.01044 0.0
H228 H 0.09566 0.97319 0.10815 0.0
H229 H 0.1715 0.99447 1.02574 0.0
H230 H 0.1807 0.06971 0.93878 0.0
H231 H 0.1138 0.12399 0.93283 0.0
C232 C 0.03076 0.16164 0.97771 0.0
C233 C 0.02327 0.1125 1.0168 0.0
C234 C 0.06267 0.08116 1.02103 0.0
C235 C 0.05741 1.03787 0.07231 0.0
C236 C 0.09743 1.00684 0.07206 0.0
C237 C 0.14132 1.01857 1.02471 0.0
C238 C 0.14652 0.06097 0.97579 0.0
C239 C 0.10782 0.09192 0.97342 0.0
H240 H 0.36674 0.75235 0.69341 0.0
C241 C 0.38467 0.78209 0.65762 0.0
H242 H 0.38135 0.83841 0.56611 0.0
H243 H 0.23676 0.76409 0.38672 0.0
H244 H 0.30787 0.75532 0.27397 0.0
H245 H 0.38344 0.76778 0.3023 0.0
H246 H 0.38858 0.78774 0.44467 0.0
C247 C 0.36362 0.8091 0.60345 0.0
C248 C 0.3169 0.79979 0.58817 0.0
C249 C 0.31371 0.78957 0.50384 0.0
C250 C 0.26958 0.78368 0.48664 0.0
C251 C 0.26867 0.77072 0.40294 0.0
C252 C 0.30939 0.76517 0.33754 0.0
C253 C 0.35196 0.77212 0.35354 0.0
C254 C 0.35435 0.78387 0.43556 0.0
H255 H 0.17955 0.8375 0.44584 0.0
C256 C 0.16073 0.80845 0.48212 0.0
H257 H 0.16234 0.75233 0.57473 0.0
H258 H 0.30803 0.82308 0.75562 0.0
H259 H 0.23713 0.82989 0.86914 0.0
H260 H 0.16156 0.81768 0.84059 0.0
H261 H 0.15622 0.7998 0.69736 0.0
C262 C 0.1809 0.78111 0.53724 0.0
C263 C 0.22778 0.78922 0.55313 0.0
C264 C 0.23102 0.7988 0.63775 0.0
C265 C 0.27516 0.80465 0.65498 0.0
C266 C 0.27614 0.81661 0.7392 0.0
C267 C 0.23554 0.82102 0.8051 0.0
C268 C 0.19296 0.81421 0.78897 0.0
C269 C 0.19047 0.80366 0.70641 0.0
H270 H 0.15278 0.3143 0.64411 0.0
C271 C 0.15316 0.30839 0.71157 0.0
H272 H 0.19546 0.28668 0.7964 0.0
H273 H 0.34969 0.17889 0.50304 0.0
H274 H 0.3189 0.11273 0.59817 0.0
H275 H 0.25076 0.12584 0.72116 0.0
H276 H 0.21302 0.20524 0.75061 0.0
C277 C 0.19411 0.2952 0.7301 0.0
C278 C 0.23767 0.28789 0.65867 0.0
C279 C 0.25961 0.2413 0.6423 0.0
C280 C 0.29887 0.2336 0.57059 0.0
C281 C 0.31978 0.18667 0.55615 0.0
C282 C 0.30247 0.14839 0.61025 0.0
C283 C 0.2641 0.15579 0.67961 0.0
C284 C 0.24276 0.20157 0.69574 0.0
H285 H 0.40289 0.29339 0.50403 0.0
C286 C 0.40022 0.27786 0.44491 0.0
H287 H 0.35542 0.24546 0.38573 0.0
H288 H 0.20861 0.38262 0.67688 0.0
H289 H 0.23876 0.44845 0.58068 0.0
H290 H 0.30393 0.43451 0.45265 0.0
H291 H 0.33985 0.35477 0.42073 0.0
C292 C 0.3586 0.2644 0.44099 0.0
C293 C 0.31665 0.27246 0.51525 0.0
C294 C 0.29504 0.31916 0.53209 0.0
C295 C 0.25616 0.32697 0.60439 0.0
C296 C 0.23689 0.37432 0.62125 0.0
C297 C 0.2541 0.41253 0.56689 0.0
C298 C 0.29089 0.4047 0.49496 0.0
C299 C 0.3113 0.35871 0.47754 0.0
H300 H 0.8755 0.28022 0.66182 0.0
C301 C 0.89009 0.31278 0.6308 0.0
H302 H 0.88047 0.37238 0.54907 0.0
H303 H 0.74649 0.27224 0.37265 0.0
H304 H 0.81416 0.27986 0.25332 0.0
H305 H 0.886 0.3088 0.27546 0.0
H306 H 0.89075 0.3296 0.41776 0.0
C307 C 0.86677 0.33976 0.5811 0.0
C308 C 0.8219 0.32565 0.56717 0.0
C309 C 0.8192 0.31458 0.48326 0.0
C310 C 0.77729 0.29888 0.47011 0.0
C311 C 0.77665 0.28584 0.38623 0.0
C312 C 0.81548 0.28967 0.31703 0.0
C313 C 0.85594 0.3059 0.32953 0.0
C314 C 0.85813 0.31788 0.41157 0.0
H315 H 0.67837 0.33415 0.44943 0.0
C316 C 0.66735 0.30057 0.48193 0.0
H317 H 0.68379 0.2431 0.5622 0.0
H318 H 0.81203 0.35242 0.73332 0.0
H319 H 0.74348 0.34745 0.85195 0.0
H320 H 0.672 0.31737 0.83056 0.0
H321 H 0.66808 0.29362 0.68946 0.0
C322 C 0.69406 0.27665 0.52908 0.0
C323 C 0.73759 0.29534 0.54071 0.0
C324 C 0.73991 0.30776 0.62413 0.0
C325 C 0.78174 0.32366 0.63714 0.0
C326 C 0.78192 0.33839 0.72024 0.0
C327 C 0.74263 0.3361 0.78892 0.0
C328 C 0.70234 0.31928 0.77682 0.0
C329 C 0.70068 0.30551 0.69551 0.0
H330 H 0.85671 0.83129 0.36762 0.0
C331 C 0.88344 0.81751 0.3995 0.0
H332 H 0.89667 0.7848 0.5132 0.0
H333 H 0.7032 0.85512 0.75963 0.0
H334 H 0.75756 0.8947 0.81634 0.0
H335 H 0.84099 0.89057 0.74259 0.0
H336 H 0.87041 0.84729 0.6109 0.0
C337 C 0.87038 0.79889 0.48042 0.0
C338 C 0.82002 0.79802 0.52812 0.0
C339 C 0.80331 0.82238 0.60657 0.0
C340 C 0.75523 0.82345 0.65081 0.0
C341 C 0.73946 0.85086 0.72572 0.0
C342 C 0.77027 0.87441 0.75845 0.0
C343 C 0.81722 0.87217 0.71683 0.0
C344 C 0.83366 0.84694 0.64141 0.0
H345 H 0.68723 0.76595 0.77982 0.0
C346 C 0.66053 0.77891 0.74739 0.0
H347 H 0.64718 0.81049 0.63302 0.0
H348 H 0.84059 0.74177 0.38646 0.0
H349 H 0.78624 0.7022 0.32981 0.0
H350 H 0.7029 0.70591 0.40404 0.0
H351 H 0.67353 0.74896 0.53588 0.0
C352 C 0.67354 0.79739 0.66633 0.0
C353 C 0.72386 0.79853 0.61851 0.0
C354 C 0.74057 0.77417 0.54002 0.0
C355 C 0.78863 0.77318 0.49568 0.0
C356 C 0.80435 0.74594 0.42056 0.0
C357 C 0.77356 0.72236 0.38784 0.0
C358 C 0.72666 0.72436 0.42974 0.0
C359 C 0.71024 0.74949 0.50527 0.0
H360 H 0.38954 0.76258 0.10016 0.0
C361 C 0.39948 0.77874 1.03558 0.0
H362 H 0.3775 0.81456 0.93134 0.0
H363 H 0.18747 0.7225 1.00509 0.0
H364 H 0.22952 0.68478 0.87237 0.0
H365 H 0.3128 0.69592 0.81113 0.0
H366 H 0.35437 0.74456 0.88239 0.0
C367 C 0.36748 0.7984 0.99596 0.0
C368 C 0.31789 0.79306 1.03196 0.0
C369 C 0.29442 0.76462 0.98857 0.0
C370 C 0.24664 0.75852 1.02313 0.0
C371 C 0.22377 0.72904 0.98044 0.0
C372 C 0.24754 0.70694 0.90452 0.0
C373 C 0.29441 0.71318 0.87009 0.0
C374 C 0.31782 0.74141 0.91154 0.0
H375 H 0.15195 0.81641 1.0344 0.0
C376 C 0.14185 0.79988 0.09865 0.0
H377 H 0.16283 0.76002 0.19984 0.0
H378 H 0.35254 0.85456 0.1239 0.0
H379 H 0.31011 0.89362 0.25467 0.0
H380 H 0.22713 0.88159 0.31695 0.0
H381 H 0.18636 0.83044 0.2486 0.0
C382 C 0.17328 0.77662 0.13563 0.0
C383 C 0.22298 0.78139 0.0999 0.0
C384 C 0.24636 0.81018 0.14284 0.0
C385 C 0.29403 0.81655 0.10799 0.0
C386 C 0.31646 0.84736 0.14914 0.0
C387 C 0.29242 0.87036 0.2239 0.0
C388 C 0.24573 0.86358 0.25894 0.0
C389 C 0.22278 0.83398 0.21913 0.0
H390 H 0.15539 0.26623 0.19416 0.0
C391 C 0.1556 0.28242 0.13085 0.0
H392 H 0.19596 0.29316 1.00302 0.0
H393 H 0.35797 0.23668 0.21361 0.0
H394 H 0.3295 0.30779 0.2965 0.0
H395 H 0.2575 0.35365 0.28317 0.0
H396 H 0.21445 0.32994 0.18488 0.0
C397 C 0.19504 0.28014 1.0682 0.0
C398 C 0.23675 0.25205 0.08067 0.0
C399 C 0.26091 0.26679 0.13909 0.0
C400 C 0.30312 0.24146 0.14461 0.0
C401 C 0.32673 0.25606 0.20419 0.0
C402 C 0.31036 0.29623 0.25325 0.0
C403 C 0.26985 0.32216 0.24556 0.0
C404 C 0.24525 0.30782 0.18924 0.0
H405 H 0.38469 0.24266 0.96311 0.0
C406 C 0.39929 0.22378 1.01243 0.0
H407 H 0.38636 0.17356 0.11727 0.0
H408 H 0.19467 0.21034 0.97171 0.0
H409 H 0.22648 0.14244 0.88257 0.0
H410 H 0.30292 0.10207 0.88576 0.0
H411 H 0.34765 0.12933 0.98009 0.0
C412 C 0.37313 0.19332 1.06765 0.0
C413 C 0.32257 0.20441 0.08663 0.0
C414 C 0.29706 0.18774 1.03262 0.0
C415 C 0.2536 0.21137 1.03009 0.0
C416 C 0.22841 0.19416 0.9753 0.0
C417 C 0.24622 0.15511 0.92394 0.0
C418 C 0.28925 0.13239 0.92579 0.0
C419 C 0.3146 0.14841 0.97953 0.0
H420 H 0.6481 0.29581 1.03393 0.0
C421 C 0.64572 0.27742 0.09616 0.0
H422 H 0.681 0.2495 0.18896 0.0
H423 H 0.86159 0.28932 0.86394 0.0
H424 H 0.83552 0.22924 0.78783 0.0
H425 H 0.75968 0.19567 0.84731 0.0
H426 H 0.70989 0.22163 0.98388 0.0
C427 C 0.6838 0.26721 0.12599 0.0
C428 C 0.72792 0.28896 0.08646 0.0
C429 C 0.75612 0.27361 1.0063 0.0
C430 C 0.79968 0.29304 0.97222 0.0
C431 C 0.82795 0.27623 0.89277 0.0
C432 C 0.81345 0.24158 0.84841 0.0
C433 C 0.77078 0.22266 0.88189 0.0
C434 C 0.7424 0.23814 0.96014 0.0
H435 H 0.88891 0.31727 0.08776 0.0
C436 C 0.89593 0.33322 1.02287 0.0
H437 H 0.86874 0.36108 0.91935 0.0
H438 H 0.68065 0.32766 0.24008 0.0
H439 H 0.70649 0.38791 0.31655 0.0
H440 H 0.78196 0.42223 0.25641 0.0
H441 H 0.8317 0.3965 0.11955 0.0
C442 C 0.86123 0.34534 0.98444 0.0
C443 C 0.81471 0.32755 1.01888 0.0
C444 C 0.786 0.34369 0.09807 0.0
C445 C 0.74258 0.32411 0.13225 0.0
C446 C 0.71429 0.34083 0.21167 0.0
C447 C 0.72861 0.37563 0.25597 0.0
C448 C 0.77106 0.39497 0.2221 0.0
C449 C 0.79944 0.37957 0.14378 0.0
H450 H 0.87987 0.76448 0.99808 0.0
C451 C 0.88768 0.80188 0.99021 0.0
H452 H 0.85932 0.87287 0.99967 0.0
H453 H 0.68927 0.72384 1.02809 0.0
H454 H 0.72138 0.71198 0.87567 0.0
H455 H 0.79119 0.7516 0.79581 0.0
H456 H 0.83003 0.80224 0.86956 0.0
C457 C 0.85246 0.83552 0.99916 0.0
C458 C 0.80533 0.82102 1.04129 0.0
C459 C 0.78264 0.79247 0.99705 0.0
C460 C 0.74202 0.77061 1.04269 0.0
C461 C 0.72027 0.74162 0.997 0.0
C462 C 0.73826 0.73458 0.90915 0.0
C463 C 0.77767 0.75667 0.86433 0.0
C464 C 0.79974 0.78538 0.90744 0.0
H465 H 0.64549 0.82953 0.16751 0.0
C466 C 0.64059 0.79142 0.17626 0.0
H467 H 0.67434 0.72298 0.17657 0.0
H468 H 0.84023 0.87493 0.14566 0.0
H469 H 0.80736 0.88778 0.29774 0.0
H470 H 0.73614 0.85026 0.37643 0.0
H471 H 0.69698 0.80009 0.30245 0.0
C472 C 0.67782 0.76122 0.17518 0.0
C473 C 0.72363 0.7786 0.13202 0.0
C474 C 0.74566 0.80804 0.17586 0.0
C475 C 0.78668 0.82941 0.13044 0.0
C476 C 0.8087 0.85796 0.17636 0.0
C477 C 0.79027 0.86556 0.26396 0.0
C478 C 0.75008 0.84459 0.3082 0.0
C479 C 0.72788 0.81608 0.26498 0.0
loop_
_geom_bond_atom_site_label_1
_geom_bond_atom_site_label_2
_geom_bond_distance
_geom_bond_site_symmetry_2
_ccdc_geom_bond_type
Co0 N5 2.057 1_455 S
Co0 O17 2.021 . S
Co0 O20 2.062 1_455 S
Co0 O24 2.117 . S
Co0 O25 2.020 . S
C1 O21 1.259 . S
C1 O24 1.258 . S
Co2 N11 2.057 . S
Co2 O18 2.117 . S
Co2 O19 2.018 . S
Co2 O21 2.021 . S
Co2 O26 2.062 . S
C3 N5 1.316 . S
C3 N6 1.347 1_554 S
C3 H8 0.931 . S
C4 N5 1.375 . S
C4 C7 1.350 1_554 S
C4 H9 0.930 . S
N5 Co0 2.057 1_655 S
N5 C3 1.316 . S
N5 C4 1.375 . S
N6 C3 1.347 1_556 S
N6 C7 1.373 . S
C7 C4 1.350 1_556 S
C7 N6 1.373 . S
C7 H28 0.931 . S
H8 C3 0.931 . S
H9 C4 0.930 . S
C10 O17 1.259 . S
C10 O18 1.258 . S
N11 Co2 2.057 . S
N11 C12 1.316 . S
N11 C13 1.375 . S
C12 N11 1.316 . S
C12 N14 1.347 . S
C12 H23 0.931 . S
C13 N11 1.375 . S
C13 C15 1.350 . S
C13 H22 0.930 . S
N14 C12 1.347 . S
N14 C15 1.373 . S
C15 C13 1.350 . S
C15 N14 1.373 . S
C15 H29 0.931 . S
C16 O19 1.258 1_655 S
C16 O20 1.255 . S
O17 Co0 2.021 . S
O17 C10 1.259 . S
O18 Co2 2.117 . S
O18 C10 1.258 . S
O19 Co2 2.018 . S
O19 C16 1.258 1_455 S
O20 Co0 2.062 1_655 S
O20 C16 1.255 . S
O21 C1 1.259 . S
O21 Co2 2.021 . S
H22 C13 0.930 . S
H23 C12 0.931 . S
O24 Co0 2.117 . S
O24 C1 1.258 . S
O25 Co0 2.020 . S
O25 C27 1.256 . S
O26 Co2 2.062 . S
O26 C27 1.255 . S
C27 O25 1.256 . S
C27 O26 1.255 . S
H28 C7 0.931 . S
H29 C15 0.931 . S
Co30 N35 2.057 . S
Co30 O47 2.021 . S
Co30 O50 2.062 . S
Co30 O54 2.117 . S
Co30 O55 2.020 . S
C31 O51 1.259 . S
C31 O54 1.258 . S
Co32 N41 2.057 . S
Co32 O48 2.117 . S
Co32 O49 2.020 . S
Co32 O51 2.021 . S
Co32 O56 2.062 . S
C33 N35 1.316 . S
C33 N36 1.347 1_554 S
C33 H38 0.931 . S
C34 N35 1.375 . S
C34 C37 1.350 1_554 S
C34 H39 0.930 . S
N35 Co30 2.057 . S
N35 C33 1.316 . S
N35 C34 1.375 . S
N36 C33 1.347 1_556 S
N36 C37 1.373 . S
C37 C34 1.350 1_556 S
C37 N36 1.373 . S
C37 H58 0.931 . S
H38 C33 0.931 . S
H39 C34 0.930 . S
C40 O47 1.259 . S
C40 O48 1.258 . S
N41 Co32 2.057 . S
N41 C42 1.316 . S
N41 C43 1.375 . S
C42 N41 1.316 . S
C42 N44 1.347 . S
C42 H53 0.931 . S
C43 N41 1.375 . S
C43 C45 1.350 . S
C43 H52 0.930 . S
N44 C42 1.347 . S
N44 C45 1.373 . S
C45 C43 1.350 . S
C45 N44 1.373 . S
C45 H59 0.931 . S
C46 O49 1.256 . S
C46 O50 1.255 . S
O47 Co30 2.021 . S
O47 C40 1.259 . S
O48 Co32 2.117 . S
O48 C40 1.258 . S
O49 Co32 2.020 . S
O49 C46 1.256 . S
O50 Co30 2.062 . S
O50 C46 1.255 . S
O51 C31 1.259 . S
O51 Co32 2.021 . S
H52 C43 0.930 . S
H53 C42 0.931 . S
O54 Co30 2.117 . S
O54 C31 1.258 . S
O55 Co30 2.020 . S
O55 C57 1.256 . S
O56 Co32 2.062 . S
O56 C57 1.255 . S
C57 O55 1.256 . S
C57 O56 1.255 . S
H58 C37 0.931 . S
H59 C45 0.931 . S
Co60 N65 2.057 1_455 S
Co60 O77 2.021 . S
Co60 O80 2.062 1_455 S
Co60 O84 2.117 . S
Co60 O85 2.020 . S
C61 O81 1.259 . S
C61 O84 1.258 . S
Co62 N71 2.057 . S
Co62 O78 2.117 . S
Co62 O79 2.020 1_455 S
Co62 O81 2.021 . S
Co62 O86 2.062 . S
C63 N65 1.316 . S
C63 N66 1.347 . S
C63 H68 0.931 . S
C64 N65 1.375 . S
C64 C67 1.350 . S
C64 H69 0.930 . S
N65 Co60 2.057 1_655 S
N65 C63 1.316 . S
N65 C64 1.375 . S
N66 C63 1.347 . S
N66 C67 1.373 . S
C67 C64 1.350 . S
C67 N66 1.373 . S
C67 H88 0.931 . S
H68 C63 0.931 . S
H69 C64 0.930 . S
C70 O77 1.259 . S
C70 O78 1.258 . S
N71 Co62 2.057 . S
N71 C72 1.316 . S
N71 C73 1.375 . S
C72 N71 1.316 . S
C72 N74 1.347 1_556 S
C72 H83 0.931 . S
C73 N71 1.375 . S
C73 C75 1.350 1_556 S
C73 H82 0.930 . S
N74 C72 1.347 1_554 S
N74 C75 1.373 . S
C75 C73 1.350 1_554 S
C75 N74 1.373 . S
C75 H89 0.931 . S
C76 O79 1.256 . S
C76 O80 1.255 . S
O77 Co60 2.021 . S
O77 C70 1.259 . S
O78 Co62 2.117 . S
O78 C70 1.258 . S
O79 Co62 2.020 1_655 S
O79 C76 1.256 . S
O80 Co60 2.062 1_655 S
O80 C76 1.255 . S
O81 C61 1.259 . S
O81 Co62 2.021 . S
H82 C73 0.930 . S
H83 C72 0.931 . S
O84 Co60 2.117 . S
O84 C61 1.258 . S
O85 Co60 2.020 . S
O85 C87 1.256 . S
O86 Co62 2.062 . S
O86 C87 1.255 . S
C87 O85 1.256 . S
C87 O86 1.255 . S
H88 C67 0.931 . S
H89 C75 0.931 . S
Co90 N95 2.057 . S
Co90 O107 2.021 . S
Co90 O110 2.062 . S
Co90 O114 2.117 . S
Co90 O115 2.020 . S
C91 O111 1.259 . S
C91 O114 1.258 . S
Co92 N101 2.057 . S
Co92 O108 2.117 . S
Co92 O109 2.020 . S
Co92 O111 2.021 . S
Co92 O116 2.062 . S
C93 N95 1.316 . S
C93 N96 1.347 . S
C93 H98 0.931 . S
C94 N95 1.375 . S
C94 C97 1.350 . S
C94 H99 0.930 . S
N95 Co90 2.057 . S
N95 C93 1.316 . S
N95 C94 1.375 . S
N96 C93 1.347 . S
N96 C97 1.373 . S
C97 C94 1.350 . S
C97 N96 1.373 . S
C97 H118 0.931 . S
H98 C93 0.931 . S
H99 C94 0.930 . S
C100 O107 1.259 . S
C100 O108 1.258 . S
N101 Co92 2.057 . S
N101 C102 1.316 . S
N101 C103 1.375 . S
C102 N101 1.316 . S
C102 N104 1.347 1_556 S
C102 H113 0.931 . S
C103 N101 1.375 . S
C103 C105 1.350 1_556 S
C103 H112 0.930 . S
N104 C102 1.347 1_554 S
N104 C105 1.373 . S
C105 C103 1.350 1_554 S
C105 N104 1.373 . S
C105 H119 0.931 . S
C106 O109 1.256 . S
C106 O110 1.255 . S
O107 Co90 2.021 . S
O107 C100 1.259 . S
O108 Co92 2.117 . S
O108 C100 1.258 . S
O109 Co92 2.020 . S
O109 C106 1.256 . S
O110 Co90 2.062 . S
O110 C106 1.255 . S
O111 C91 1.259 . S
O111 Co92 2.021 . S
H112 C103 0.930 . S
H113 C102 0.931 . S
O114 Co90 2.117 . S
O114 C91 1.258 . S
O115 Co90 2.020 . S
O115 C117 1.256 . S
O116 Co92 2.062 . S
O116 C117 1.255 . S
C117 O115 1.256 . S
C117 O116 1.255 . S
H118 C97 0.931 . S
H119 C105 0.931 . S
H120 C121 0.951 . S
C121 H120 0.951 . S
C121 C127 1.265 . S
H122 C127 0.950 . S
H123 C131 0.949 . S
H124 C132 0.950 . S
H125 C133 0.951 . S
H126 C134 0.951 . S
C127 C121 1.265 . S
C127 H122 0.950 . S
C127 C128 1.478 . S
C128 C127 1.478 . S
C128 C129 1.397 . S
C128 C145 1.394 1_556 S
C129 C128 1.397 . S
C129 C130 1.438 . S
C129 C134 1.429 . S
C130 C129 1.438 . S
C130 C131 1.428 . S
C130 C143 1.394 1_556 S
C131 H123 0.949 . S
C131 C130 1.428 . S
C131 C132 1.345 . S
C132 H124 0.950 . S
C132 C131 1.345 . S
C132 C133 1.424 . S
C133 H125 0.951 . S
C133 C132 1.424 . S
C133 C134 1.347 . S
C134 H126 0.951 . S
C134 C129 1.429 . S
C134 C133 1.347 . S
H135 C136 0.951 . S
C136 H135 0.951 . S
C136 C142 1.265 . S
H137 C142 0.950 1_655 S
H138 C146 0.949 . S
H139 C147 0.950 . S
H140 C148 0.951 . S
H141 C149 0.951 . S
C142 C136 1.265 . S
C142 H137 0.950 1_455 S
C142 C143 1.478 . S
C143 C130 1.394 1_554 S
C143 C142 1.478 . S
C143 C144 1.397 . S
C144 C143 1.397 . S
C144 C145 1.438 . S
C144 C149 1.429 . S
C145 C128 1.394 1_554 S
C145 C144 1.438 . S
C145 C146 1.428 . S
C146 H138 0.949 . S
C146 C145 1.428 . S
C146 C147 1.345 . S
C147 H139 0.950 . S
C147 C146 1.345 . S
C147 C148 1.424 . S
C148 H140 0.951 . S
C148 C147 1.424 . S
C148 C149 1.347 . S
C149 H141 0.951 . S
C149 C144 1.429 . S
C149 C148 1.347 . S
H150 C151 0.951 . S
C151 H150 0.951 . S
C151 C157 1.265 . S
H152 C157 0.950 . S
H153 C161 0.949 . S
H154 C162 0.950 . S
H155 C163 0.951 . S
H156 C164 0.951 . S
C157 C151 1.265 . S
C157 H152 0.950 . S
C157 C158 1.478 . S
C158 C157 1.478 . S
C158 C159 1.397 . S
C158 C175 1.394 1_554 S
C159 C158 1.397 . S
C159 C160 1.438 . S
C159 C164 1.429 . S
C160 C159 1.438 . S
C160 C161 1.428 . S
C160 C173 1.394 1_554 S
C161 H153 0.949 . S
C161 C160 1.428 . S
C161 C162 1.345 . S
C162 H154 0.950 . S
C162 C161 1.345 . S
C162 C163 1.424 . S
C163 H155 0.951 . S
C163 C162 1.424 . S
C163 C164 1.347 . S
C164 H156 0.951 . S
C164 C159 1.429 . S
C164 C163 1.347 . S
H165 C166 0.951 . S
C166 H165 0.951 . S
C166 C172 1.265 . S
H167 C172 0.950 . S
H168 C176 0.949 . S
H169 C177 0.950 . S
H170 C178 0.951 . S
H171 C179 0.951 . S
C172 C166 1.265 . S
C172 H167 0.950 . S
C172 C173 1.478 . S
C173 C160 1.394 1_556 S
C173 C172 1.478 . S
C173 C174 1.397 . S
C174 C173 1.397 . S
C174 C175 1.438 . S
C174 C179 1.429 . S
C175 C158 1.394 1_556 S
C175 C174 1.438 . S
C175 C176 1.428 . S
C176 H168 0.949 . S
C176 C175 1.428 . S
C176 C177 1.345 . S
C177 H169 0.950 . S
C177 C176 1.345 . S
C177 C178 1.424 . S
C178 H170 0.951 . S
C178 C177 1.424 . S
C178 C179 1.347 . S
C179 H171 0.951 . S
C179 C174 1.429 . S
C179 C178 1.347 . S
H180 C181 0.951 . S
C181 H180 0.951 . S
C181 C187 1.265 . S
H182 C187 0.950 . S
H183 C191 0.944 1_554 S
H184 C192 0.950 . S
H185 C193 0.951 . S
H186 C194 0.951 . S
C187 C181 1.265 . S
C187 H182 0.950 . S
C187 C188 1.478 . S
C188 C187 1.478 . S
C188 C189 1.397 . S
C188 C205 1.394 1_556 S
C189 C188 1.397 . S
C189 C190 1.438 1_565 S
C189 C194 1.429 . S
C190 C189 1.438 1_545 S
C190 C191 1.428 . S
C190 C203 1.394 1_556 S
C191 H183 0.944 1_556 S
C191 C190 1.428 . S
C191 C192 1.345 . S
C192 H184 0.950 . S
C192 C191 1.345 . S
C192 C193 1.424 1_545 S
C193 H185 0.951 . S
C193 C192 1.424 1_565 S
C193 C194 1.347 . S
C194 H186 0.951 . S
C194 C189 1.429 . S
C194 C193 1.347 . S
H195 C196 0.951 . S
C196 H195 0.951 . S
C196 C202 1.265 . S
H197 C202 0.950 . S
H198 C206 0.944 1_556 S
H199 C207 0.950 . S
H200 C208 0.951 . S
H201 C209 0.951 . S
C202 C196 1.265 . S
C202 H197 0.950 . S
C202 C203 1.478 . S
C203 C190 1.394 1_554 S
C203 C202 1.478 . S
C203 C204 1.397 . S
C204 C203 1.397 . S
C204 C205 1.438 1_545 S
C204 C209 1.429 . S
C205 C188 1.394 1_554 S
C205 C204 1.438 1_565 S
C205 C206 1.428 . S
C206 H198 0.944 1_554 S
C206 C205 1.428 . S
C206 C207 1.345 . S
C207 H199 0.950 . S
C207 C206 1.345 . S
C207 C208 1.424 1_565 S
C208 H200 0.951 . S
C208 C207 1.424 1_545 S
C208 C209 1.347 . S
C209 H201 0.951 . S
C209 C204 1.429 . S
C209 C208 1.347 . S
H210 C211 0.951 . S
C211 H210 0.951 . S
C211 C217 1.265 . S
H212 C217 0.950 . S
H213 C221 0.949 1_545 S
H214 C222 0.950 . S
H215 C223 0.951 . S
H216 C224 0.951 . S
C217 C211 1.265 . S
C217 H212 0.950 . S
C217 C218 1.478 . S
C218 C217 1.478 . S
C218 C219 1.397 1_554 S
C218 C235 1.373 1_565 S
C219 C218 1.397 1_556 S
C219 C220 1.458 . S
C219 C224 1.429 . S
C220 C219 1.458 . S
C220 C221 1.430 . S
C220 C233 1.374 1_565 S
C221 H213 0.949 1_565 S
C221 C220 1.430 . S
C221 C222 1.345 . S
C222 H214 0.950 . S
C222 C221 1.345 . S
C222 C223 1.424 . S
C223 H215 0.951 . S
C223 C222 1.424 . S
C223 C224 1.347 . S
C224 H216 0.951 . S
C224 C219 1.429 . S
C224 C223 1.347 . S
H225 C226 0.951 . S
C226 H225 0.951 . S
C226 C232 1.265 . S
H227 C232 0.950 1_655 S
H228 C236 0.949 1_565 S
H229 C237 0.950 . S
H230 C238 0.951 1_655 S
H231 C239 0.951 . S
C232 C226 1.265 . S
C232 H227 0.950 1_455 S
C232 C233 1.478 . S
C233 C220 1.374 1_545 S
C233 C232 1.478 . S
C233 C234 1.397 1_556 S
C234 C233 1.397 1_554 S
C234 C235 1.458 . S
C234 C239 1.429 . S
C235 C218 1.373 1_545 S
C235 C234 1.458 . S
C235 C236 1.430 . S
C236 H228 0.949 1_545 S
C236 C235 1.430 . S
C236 C237 1.345 . S
C237 H229 0.950 . S
C237 C236 1.345 . S
C237 C238 1.424 . S
C238 H230 0.951 1_455 S
C238 C237 1.424 . S
C238 C239 1.347 . S
C239 H231 0.951 . S
C239 C234 1.429 . S
C239 C238 1.347 . S
H240 C241 0.951 . S
C241 H240 0.951 . S
C241 C247 1.265 . S
H242 C247 0.950 . S
H243 C251 0.949 . S
H244 C252 0.950 . S
H245 C253 0.951 . S
H246 C254 0.951 . S
C247 C241 1.265 . S
C247 H242 0.950 . S
C247 C248 1.478 . S
C248 C247 1.478 . S
C248 C249 1.397 . S
C248 C265 1.394 . S
C249 C248 1.397 . S
C249 C250 1.438 . S
C249 C254 1.429 . S
C250 C249 1.438 . S
C250 C251 1.428 . S
C250 C263 1.394 . S
C251 H243 0.949 . S
C251 C250 1.428 . S
C251 C252 1.345 . S
C252 H244 0.950 . S
C252 C251 1.345 . S
C252 C253 1.424 . S
C253 H245 0.951 . S
C253 C252 1.424 . S
C253 C254 1.347 . S
C254 H246 0.951 . S
C254 C249 1.429 . S
C254 C253 1.347 . S
H255 C256 0.951 . S
C256 H255 0.951 . S
C256 C262 1.265 . S
H257 C262 0.950 . S
H258 C266 0.949 . S
H259 C267 0.950 . S
H260 C268 0.951 . S
H261 C269 0.951 . S
C262 C256 1.265 . S
C262 H257 0.950 . S
C262 C263 1.478 . S
C263 C250 1.394 . S
C263 C262 1.478 . S
C263 C264 1.397 . S
C264 C263 1.397 . S
C264 C265 1.438 . S
C264 C269 1.429 . S
C265 C248 1.394 . S
C265 C264 1.438 . S
C265 C266 1.428 . S
C266 H258 0.949 . S
C266 C265 1.428 . S
C266 C267 1.345 . S
C267 H259 0.950 . S
C267 C266 1.345 . S
C267 C268 1.424 . S
C268 H260 0.951 . S
C268 C267 1.424 . S
C268 C269 1.347 . S
C269 H261 0.951 . S
C269 C264 1.429 . S
C269 C268 1.347 . S
H270 C271 0.951 . S
C271 H270 0.951 . S
C271 C277 1.265 . S
H272 C277 0.950 . S
H273 C281 0.949 . S
H274 C282 0.950 . S
H275 C283 0.951 . S
H276 C284 0.951 . S
C277 C271 1.265 . S
C277 H272 0.950 . S
C277 C278 1.478 . S
C278 C277 1.478 . S
C278 C279 1.397 . S
C278 C295 1.394 . S
C279 C278 1.397 . S
C279 C280 1.438 . S
C279 C284 1.429 . S
C280 C279 1.438 . S
C280 C281 1.428 . S
C280 C293 1.394 . S
C281 H273 0.949 . S
C281 C280 1.428 . S
C281 C282 1.345 . S
C282 H274 0.950 . S
C282 C281 1.345 . S
C282 C283 1.424 . S
C283 H275 0.951 . S
C283 C282 1.424 . S
C283 C284 1.347 . S
C284 H276 0.951 . S
C284 C279 1.429 . S
C284 C283 1.347 . S
H285 C286 0.951 . S
C286 H285 0.951 . S
C286 C292 1.265 . S
H287 C292 0.950 . S
H288 C296 0.949 . S
H289 C297 0.950 . S
H290 C298 0.951 . S
H291 C299 0.951 . S
C292 C286 1.265 . S
C292 H287 0.950 . S
C292 C293 1.478 . S
C293 C280 1.394 . S
C293 C292 1.478 . S
C293 C294 1.397 . S
C294 C293 1.397 . S
C294 C295 1.438 . S
C294 C299 1.429 . S
C295 C278 1.394 . S
C295 C294 1.438 . S
C295 C296 1.428 . S
C296 H288 0.949 . S
C296 C295 1.428 . S
C296 C297 1.345 . S
C297 H289 0.950 . S
C297 C296 1.345 . S
C297 C298 1.424 . S
C298 H290 0.951 . S
C298 C297 1.424 . S
C298 C299 1.347 . S
C299 H291 0.951 . S
C299 C294 1.429 . S
C299 C298 1.347 . S
H300 C301 0.951 . S
C301 H300 0.951 . S
C301 C307 1.265 . S
H302 C307 0.950 . S
H303 C311 0.949 . S
H304 C312 0.950 . S
H305 C313 0.951 . S
H306 C314 0.951 . S
C307 C301 1.265 . S
C307 H302 0.950 . S
C307 C308 1.478 . S
C308 C307 1.478 . S
C308 C309 1.397 . S
C308 C325 1.394 . S
C309 C308 1.397 . S
C309 C310 1.438 . S
C309 C314 1.429 . S
C310 C309 1.438 . S
C310 C311 1.428 . S
C310 C323 1.394 . S
C311 H303 0.949 . S
C311 C310 1.428 . S
C311 C312 1.345 . S
C312 H304 0.950 . S
C312 C311 1.345 . S
C312 C313 1.424 . S
C313 H305 0.951 . S
C313 C312 1.424 . S
C313 C314 1.347 . S
C314 H306 0.951 . S
C314 C309 1.429 . S
C314 C313 1.347 . S
H315 C316 0.951 . S
C316 H315 0.951 . S
C316 C322 1.265 . S
H317 C322 0.950 . S
H318 C326 0.949 . S
H319 C327 0.950 . S
H320 C328 0.951 . S
H321 C329 0.951 . S
C322 C316 1.265 . S
C322 H317 0.950 . S
C322 C323 1.478 . S
C323 C310 1.394 . S
C323 C322 1.478 . S
C323 C324 1.397 . S
C324 C323 1.397 . S
C324 C325 1.438 . S
C324 C329 1.429 . S
C325 C308 1.394 . S
C325 C324 1.438 . S
C325 C326 1.428 . S
C326 H318 0.949 . S
C326 C325 1.428 . S
C326 C327 1.345 . S
C327 H319 0.950 . S
C327 C326 1.345 . S
C327 C328 1.424 . S
C328 H320 0.951 . S
C328 C327 1.424 . S
C328 C329 1.347 . S
C329 H321 0.951 . S
C329 C324 1.429 . S
C329 C328 1.347 . S
H330 C331 0.951 . S
C331 H330 0.951 . S
C331 C337 1.265 . S
H332 C337 0.950 . S
H333 C341 0.949 . S
H334 C342 0.950 . S
H335 C343 0.951 . S
H336 C344 0.951 . S
C337 C331 1.265 . S
C337 H332 0.950 . S
C337 C338 1.478 . S
C338 C337 1.478 . S
C338 C339 1.397 . S
C338 C355 1.394 . S
C339 C338 1.397 . S
C339 C340 1.438 . S
C339 C344 1.429 . S
C340 C339 1.438 . S
C340 C341 1.428 . S
C340 C353 1.394 . S
C341 H333 0.949 . S
C341 C340 1.428 . S
C341 C342 1.345 . S
C342 H334 0.950 . S
C342 C341 1.345 . S
C342 C343 1.424 . S
C343 H335 0.951 . S
C343 C342 1.424 . S
C343 C344 1.347 . S
C344 H336 0.951 . S
C344 C339 1.429 . S
C344 C343 1.347 . S
H345 C346 0.951 . S
C346 H345 0.951 . S
C346 C352 1.265 . S
H347 C352 0.950 . S
H348 C356 0.949 . S
H349 C357 0.950 . S
H350 C358 0.951 . S
H351 C359 0.951 . S
C352 C346 1.265 . S
C352 H347 0.950 . S
C352 C353 1.478 . S
C353 C340 1.394 . S
C353 C352 1.478 . S
C353 C354 1.397 . S
C354 C353 1.397 . S
C354 C355 1.438 . S
C354 C359 1.429 . S
C355 C338 1.394 . S
C355 C354 1.438 . S
C355 C356 1.428 . S
C356 H348 0.949 . S
C356 C355 1.428 . S
C356 C357 1.345 . S
C357 H349 0.950 . S
C357 C356 1.345 . S
C357 C358 1.424 . S
C358 H350 0.951 . S
C358 C357 1.424 . S
C358 C359 1.347 . S
C359 H351 0.951 . S
C359 C354 1.429 . S
C359 C358 1.347 . S
H360 C361 0.951 1_554 S
C361 H360 0.951 1_556 S
C361 C367 1.265 . S
H362 C367 0.950 . S
H363 C371 0.949 . S
H364 C372 0.950 . S
H365 C373 0.951 . S
H366 C374 0.951 . S
C367 C361 1.265 . S
C367 H362 0.950 . S
C367 C368 1.478 . S
C368 C367 1.478 . S
C368 C369 1.397 . S
C368 C385 1.394 1_556 S
C369 C368 1.397 . S
C369 C370 1.438 . S
C369 C374 1.429 . S
C370 C369 1.438 . S
C370 C371 1.428 . S
C370 C383 1.394 1_556 S
C371 H363 0.949 . S
C371 C370 1.428 . S
C371 C372 1.345 . S
C372 H364 0.950 . S
C372 C371 1.345 . S
C372 C373 1.424 . S
C373 H365 0.951 . S
C373 C372 1.424 . S
C373 C374 1.347 . S
C374 H366 0.951 . S
C374 C369 1.429 . S
C374 C373 1.347 . S
H375 C376 0.951 1_556 S
C376 H375 0.951 1_554 S
C376 C382 1.265 . S
H377 C382 0.950 . S
H378 C386 0.949 . S
H379 C387 0.950 . S
H380 C388 0.951 . S
H381 C389 0.951 . S
C382 C376 1.265 . S
C382 H377 0.950 . S
C382 C383 1.478 . S
C383 C370 1.394 1_554 S
C383 C382 1.478 . S
C383 C384 1.397 . S
C384 C383 1.397 . S
C384 C385 1.438 . S
C384 C389 1.429 . S
C385 C368 1.394 1_554 S
C385 C384 1.438 . S
C385 C386 1.428 . S
C386 H378 0.949 . S
C386 C385 1.428 . S
C386 C387 1.345 . S
C387 H379 0.950 . S
C387 C386 1.345 . S
C387 C388 1.424 . S
C388 H380 0.951 . S
C388 C387 1.424 . S
C388 C389 1.347 . S
C389 H381 0.951 . S
C389 C384 1.429 . S
C389 C388 1.347 . S
H390 C391 0.951 . S
C391 H390 0.951 . S
C391 C397 1.265 1_554 S
H392 C397 0.950 . S
H393 C401 0.949 . S
H394 C402 0.950 . S
H395 C403 0.951 . S
H396 C404 0.951 . S
C397 C391 1.265 1_556 S
C397 H392 0.950 . S
C397 C398 1.478 . S
C398 C397 1.478 . S
C398 C399 1.397 . S
C398 C415 1.394 1_556 S
C399 C398 1.397 . S
C399 C400 1.438 . S
C399 C404 1.429 . S
C400 C399 1.438 . S
C400 C401 1.428 . S
C400 C413 1.394 1_556 S
C401 H393 0.949 . S
C401 C400 1.428 . S
C401 C402 1.345 . S
C402 H394 0.950 . S
C402 C401 1.345 . S
C402 C403 1.424 . S
C403 H395 0.951 . S
C403 C402 1.424 . S
C403 C404 1.347 . S
C404 H396 0.951 . S
C404 C399 1.429 . S
C404 C403 1.347 . S
H405 C406 0.951 . S
C406 H405 0.951 . S
C406 C412 1.265 1_556 S
H407 C412 0.950 . S
H408 C416 0.949 . S
H409 C417 0.950 . S
H410 C418 0.951 . S
H411 C419 0.951 . S
C412 C406 1.265 1_554 S
C412 H407 0.950 . S
C412 C413 1.478 . S
C413 C400 1.394 1_554 S
C413 C412 1.478 . S
C413 C414 1.397 . S
C414 C413 1.397 . S
C414 C415 1.438 . S
C414 C419 1.429 . S
C415 C398 1.394 1_554 S
C415 C414 1.438 . S
C415 C416 1.428 . S
C416 H408 0.949 . S
C416 C415 1.428 . S
C416 C417 1.345 . S
C417 H409 0.950 . S
C417 C416 1.345 . S
C417 C418 1.424 . S
C418 H410 0.951 . S
C418 C417 1.424 . S
C418 C419 1.347 . S
C419 H411 0.951 . S
C419 C414 1.429 . S
C419 C418 1.347 . S
H420 C421 0.951 1_556 S
C421 H420 0.951 1_554 S
C421 C427 1.265 . S
H422 C427 0.950 . S
H423 C431 0.949 . S
H424 C432 0.950 . S
H425 C433 0.951 . S
H426 C434 0.951 1_554 S
C427 C421 1.265 . S
C427 H422 0.950 . S
C427 C428 1.478 . S
C428 C427 1.478 . S
C428 C429 1.397 . S
C428 C445 1.394 . S
C429 C428 1.397 . S
C429 C430 1.438 1_554 S
C429 C434 1.428 1_554 S
C430 C429 1.438 1_556 S
C430 C431 1.428 . S
C430 C443 1.394 . S
C431 H423 0.949 . S
C431 C430 1.428 . S
C431 C432 1.345 . S
C432 H424 0.950 . S
C432 C431 1.345 . S
C432 C433 1.424 . S
C433 H425 0.951 . S
C433 C432 1.424 . S
C433 C434 1.347 . S
C434 H426 0.951 1_556 S
C434 C429 1.428 1_556 S
C434 C433 1.347 . S
H435 C436 0.951 1_554 S
C436 H435 0.951 1_556 S
C436 C442 1.265 . S
H437 C442 0.950 . S
H438 C446 0.949 . S
H439 C447 0.950 . S
H440 C448 0.951 . S
H441 C449 0.951 1_556 S
C442 C436 1.265 . S
C442 H437 0.950 . S
C442 C443 1.478 . S
C443 C430 1.394 . S
C443 C442 1.478 . S
C443 C444 1.397 . S
C444 C443 1.397 . S
C444 C445 1.438 1_556 S
C444 C449 1.428 1_556 S
C445 C428 1.394 . S
C445 C444 1.438 1_554 S
C445 C446 1.428 . S
C446 H438 0.949 . S
C446 C445 1.428 . S
C446 C447 1.345 . S
C447 H439 0.950 . S
C447 C446 1.345 . S
C447 C448 1.424 . S
C448 H440 0.951 . S
C448 C447 1.424 . S
C448 C449 1.347 . S
C449 H441 0.951 1_554 S
C449 C444 1.428 1_554 S
C449 C448 1.347 . S
H450 C451 0.951 1_554 S
C451 H450 0.951 1_556 S
C451 C457 1.265 . S
H452 C457 0.950 . S
H453 C461 0.949 . S
H454 C462 0.950 . S
H455 C463 0.951 . S
H456 C464 0.951 . S
C457 C451 1.265 . S
C457 H452 0.950 . S
C457 C458 1.478 . S
C458 C457 1.478 . S
C458 C459 1.397 . S
C458 C475 1.394 1_556 S
C459 C458 1.397 . S
C459 C460 1.438 . S
C459 C464 1.429 . S
C460 C459 1.438 . S
C460 C461 1.428 . S
C460 C473 1.394 1_556 S
C461 H453 0.949 . S
C461 C460 1.428 . S
C461 C462 1.345 . S
C462 H454 0.950 . S
C462 C461 1.345 . S
C462 C463 1.424 . S
C463 H455 0.951 . S
C463 C462 1.424 . S
C463 C464 1.347 . S
C464 H456 0.951 . S
C464 C459 1.429 . S
C464 C463 1.347 . S
H465 C466 0.951 1_556 S
C466 H465 0.951 1_554 S
C466 C472 1.265 . S
H467 C472 0.950 . S
H468 C476 0.949 . S
H469 C477 0.950 . S
H470 C478 0.951 . S
H471 C479 0.951 . S
C472 C466 1.265 . S
C472 H467 0.950 . S
C472 C473 1.478 . S
C473 C460 1.394 1_554 S
C473 C472 1.478 . S
C473 C474 1.397 . S
C474 C473 1.397 . S
C474 C475 1.438 . S
C474 C479 1.429 . S
C475 C458 1.394 1_554 S
C475 C474 1.438 . S
C475 C476 1.428 . S
C476 H468 0.949 . S
C476 C475 1.428 . S
C476 C477 1.345 . S
C477 H469 0.950 . S
C477 C476 1.345 . S
C477 C478 1.424 . S
C478 H470 0.951 . S
C478 C477 1.424 . S
C478 C479 1.347 . S
C479 H471 0.951 . S
C479 C474 1.429 . S
C479 C478 1.347 . S
C121 C61 2.217 . S
C136 C10 2.217 . S
C151 C31 2.299 . S
C166 C100 2.299 . S
C181 C91 2.262 . S
C196 C40 2.262 . S
C211 C1 2.299 . S
C226 C70 2.299 . S
C241 N96 1.541 . S
C256 N14 1.541 . S
C271 C87 1.569 . S
C286 C46 1.569 . S
C301 N66 1.548 . S
C316 N44 1.548 . S
C331 C16 1.574 . S
C346 C117 1.574 . S
C361 C106 0.985 . S
C376 C27 0.985 . S
C391 N74 0.618 . S
C406 N36 0.618 . S
C421 C57 0.980 . S
C436 C76 0.980 . S
C451 N6 0.422 . S
C466 N104 0.422 . S
