# Generated by pormake.
# Topology wkf, (6)-cn, num edge types: 1
# Building blocks:
#     Node 0, Type 0, BuildingBlock: KUMBOL_clean_sbu_1, # of connection points: 6
#     Node 1, Type 0, BuildingBlock: KUMBOL_clean_sbu_1, # of connection points: 6
#     Node 2, Type 0, BuildingBlock: KUMBOL_clean_sbu_1, # of connection points: 6
#     Node 3, Type 0, BuildingBlock: KUMBOL_clean_sbu_1, # of connection points: 6
#     Node 4, Type 0, BuildingBlock: KUMBOL_clean_sbu_1, # of connection points: 6
#     Node 5, Type 0, BuildingBlock: KUMBOL_clean_sbu_1, # of connection points: 6
#     Node 6, Type 0, BuildingBlock: KUMBOL_clean_sbu_1, # of connection points: 6
#     Node 7, Type 0, BuildingBlock: KUMBOL_clean_sbu_1, # of connection points: 6
#     Node 8, Type 0, BuildingBlock: KUMBOL_clean_sbu_1, # of connection points: 6
#     Node 9, Type 0, BuildingBlock: KUMBOL_clean_sbu_1, # of connection points: 6
#     Node 10, Type 0, BuildingBlock: KUMBOL_clean_sbu_1, # of connection points: 6
#     Node 11, Type 0, BuildingBlock: KUMBOL_clean_sbu_1, # of connection points: 6
#     Edge 12, Type (0, 0), BuildingBlock: EZIPEK_clean_linker_0, # of connection points: 2
#     Edge 13, Type (0, 0), BuildingBlock: EZIPEK_clean_linker_0, # of connection points: 2
#     Edge 14, Type (0, 0), BuildingBlock: EZIPEK_clean_linker_0, # of connection points: 2
#     Edge 15, Type (0, 0), BuildingBlock: EZIPEK_clean_linker_0, # of connection points: 2
#     Edge 16, Type (0, 0), BuildingBlock: EZIPEK_clean_linker_0, # of connection points: 2
#     Edge 17, Type (0, 0), BuildingBlock: EZIPEK_clean_linker_0, # of connection points: 2
#     Edge 18, Type (0, 0), BuildingBlock: EZIPEK_clean_linker_0, # of connection points: 2
#     Edge 19, Type (0, 0), BuildingBlock: EZIPEK_clean_linker_0, # of connection points: 2
#     Edge 20, Type (0, 0), BuildingBlock: EZIPEK_clean_linker_0, # of connection points: 2
#     Edge 21, Type (0, 0), BuildingBlock: EZIPEK_clean_linker_0, # of connection points: 2
#     Edge 22, Type (0, 0), BuildingBlock: EZIPEK_clean_linker_0, # of connection points: 2
#     Edge 23, Type (0, 0), BuildingBlock: EZIPEK_clean_linker_0, # of connection points: 2
#     Edge 24, Type (0, 0), BuildingBlock: EZIPEK_clean_linker_0, # of connection points: 2
#     Edge 25, Type (0, 0), BuildingBlock: EZIPEK_clean_linker_0, # of connection points: 2
#     Edge 26, Type (0, 0), BuildingBlock: EZIPEK_clean_linker_0, # of connection points: 2
#     Edge 27, Type (0, 0), BuildingBlock: EZIPEK_clean_linker_0, # of connection points: 2
#     Edge 28, Type (0, 0), BuildingBlock: EZIPEK_clean_linker_0, # of connection points: 2
#     Edge 29, Type (0, 0), BuildingBlock: EZIPEK_clean_linker_0, # of connection points: 2
#     Edge 30, Type (0, 0), BuildingBlock: EZIPEK_clean_linker_0, # of connection points: 2
#     Edge 31, Type (0, 0), BuildingBlock: EZIPEK_clean_linker_0, # of connection points: 2
#     Edge 32, Type (0, 0), BuildingBlock: EZIPEK_clean_linker_0, # of connection points: 2
#     Edge 33, Type (0, 0), BuildingBlock: EZIPEK_clean_linker_0, # of connection points: 2
#     Edge 34, Type (0, 0), BuildingBlock: EZIPEK_clean_linker_0, # of connection points: 2
#     Edge 35, Type (0, 0), BuildingBlock: EZIPEK_clean_linker_0, # of connection points: 2
#     Edge 36, Type (0, 0), BuildingBlock: EZIPEK_clean_linker_0, # of connection points: 2
#     Edge 37, Type (0, 0), BuildingBlock: EZIPEK_clean_linker_0, # of connection points: 2
#     Edge 38, Type (0, 0), BuildingBlock: EZIPEK_clean_linker_0, # of connection points: 2
#     Edge 39, Type (0, 0), BuildingBlock: EZIPEK_clean_linker_0, # of connection points: 2
#     Edge 40, Type (0, 0), BuildingBlock: EZIPEK_clean_linker_0, # of connection points: 2
#     Edge 41, Type (0, 0), BuildingBlock: EZIPEK_clean_linker_0, # of connection points: 2
#     Edge 42, Type (0, 0), BuildingBlock: EZIPEK_clean_linker_0, # of connection points: 2
#     Edge 43, Type (0, 0), BuildingBlock: EZIPEK_clean_linker_0, # of connection points: 2
#     Edge 44, Type (0, 0), BuildingBlock: EZIPEK_clean_linker_0, # of connection points: 2
#     Edge 45, Type (0, 0), BuildingBlock: EZIPEK_clean_linker_0, # of connection points: 2
#     Edge 46, Type (0, 0), BuildingBlock: EZIPEK_clean_linker_0, # of connection points: 2
#     Edge 47, Type (0, 0), BuildingBlock: EZIPEK_clean_linker_0, # of connection points: 2
# Relax obj value: 0.327
# Max RMSD: 0.290
# Mean RMSD: 0.279
data_MOF--net-wkf--node1-KUMBOL_clean_sbu_1--edge1-EZIPEK_clean_linker_0
_symmetry_space_group_name_H-M    P1
_symmetry_Int_Tables_number       1
_symmetry_cell_setting            triclinic
loop_
_symmetry_equiv_pos_as_xyz
'x, y, z'
_cell_length_a     22.708563
_cell_length_b     22.730317
_cell_length_c     69.449074
_cell_angle_alpha  89.909917
_cell_angle_beta   89.919815
_cell_angle_gamma 119.36992
loop_
_atom_site_label
_atom_site_type_symbol
_atom_site_fract_x
_atom_site_fract_y
_atom_site_fract_z
_atom_type_partial_charge
C0 C 0.72805 0.98911 0.3587 0.0
C1 C 0.71091 1.00864 0.32547 0.0
C2 C 0.68877 0.99654 0.34484 0.0
C3 C 0.77531 1.01862 0.32071 0.0
C4 C 0.79062 0.99405 0.35375 0.0
C5 C 0.81514 1.01128 0.33484 0.0
N6 N 0.70178 0.97006 0.37659 0.0
C7 C 0.73264 0.94975 0.38982 0.0
C8 C 0.82505 0.9783 0.36772 0.0
C9 C 0.79519 0.95461 0.38572 0.0
Gd10 Gd 0.43348 0.91326 0.35956 0.0
Gd11 Gd 0.60191 0.97309 0.38347 0.0
N12 N 0.62548 0.9831 0.34985 0.0
C13 C 0.66582 1.00528 0.31128 0.0
C14 C 0.57987 0.97368 0.33577 0.0
C15 C 0.59936 0.98559 0.3164 0.0
H16 H 0.52797 0.95547 0.33921 0.0
H17 H 0.56282 0.97892 0.30542 0.0
H18 H 0.30513 0.83369 0.39231 0.0
H19 H 0.70957 0.93078 0.40371 0.0
H20 H 0.2257 0.85949 0.40962 0.0
H21 H 0.68058 1.0137 0.29625 0.0
H22 H 0.79332 1.02862 0.30596 0.0
H23 H 0.46132 0.99538 0.31668 0.0
H24 H 0.87337 0.9818 0.3645 0.0
H25 H 0.8202 0.93992 0.39641 0.0
H26 H 0.25644 0.06338 0.38025 0.0
H27 H 0.86342 1.01605 0.33082 0.0
H28 H 0.38293 0.13145 0.32166 0.0
H29 H 0.4418 0.08443 0.30263 0.0
N30 N 0.41679 0.99542 0.34371 0.0
C31 C 0.37737 1.01509 0.35355 0.0
C32 C 0.43501 1.01553 0.32499 0.0
C33 C 0.39151 0.0929 0.32793 0.0
C34 C 0.4244 0.06605 0.31706 0.0
C35 C 0.36556 0.06605 0.34613 0.0
H36 H 0.31594 0.12511 0.35122 0.0
N37 N 0.34651 0.92315 0.37513 0.0
C38 C 0.34168 0.97825 0.36977 0.0
C39 C 0.25576 0.95199 0.39408 0.0
C40 C 0.29625 0.99418 0.37922 0.0
C41 C 0.30331 0.87892 0.38865 0.0
C42 C 0.25834 0.89343 0.39854 0.0
O43 O 0.57457 0.86696 0.37398 0.0
O44 O 0.48591 0.84336 0.3532 0.0
O45 O 0.33118 0.83441 0.35252 0.0
O46 O 0.40453 0.87354 0.32992 0.0
O47 O 0.61165 0.07284 0.37042 0.0
O48 O 0.50957 1.03364 0.35487 0.0
O49 O 0.43769 0.95127 0.39079 0.0
O50 O 0.54929 1.02877 0.39364 0.0
O51 O 0.69133 1.04598 0.39884 0.0
O52 O 0.61396 0.95775 0.4136 0.0
O53 O 0.41496 0.84212 0.38457 0.0
O54 O 0.51714 0.88234 0.39976 0.0
C55 C 0.53191 0.82767 0.36074 0.0
C56 C 0.57025 0.08596 0.35985 0.0
C57 C 0.28713 0.83425 0.32119 0.0
C58 C 0.20158 0.7886 0.29487 0.0
C59 C 0.21472 0.88311 0.31423 0.0
C60 C 0.26413 0.87997 0.3253 0.0
C61 C 0.18424 0.83847 0.2991 0.0
C62 C 0.25426 0.78698 0.3059 0.0
C63 C 0.3408 0.83374 0.33408 0.0
C64 C 0.29022 1.04968 0.37297 0.0
C65 C 0.32444 0.08519 0.35642 0.0
H66 H 0.22041 0.96275 0.40168 0.0
C67 C 0.48701 1.0048 0.39923 0.0
C68 C 0.45182 0.83804 0.3986 0.0
C69 C 0.65905 0.05992 0.43044 0.0
C70 C 0.69281 0.17149 0.44302 0.0
C71 C 0.62094 0.07287 0.46214 0.0
C72 C 0.62379 1.03145 0.44768 0.0
C73 C 0.65635 0.14307 0.45998 0.0
C74 C 0.68979 0.12966 0.42785 0.0
C75 C 0.66581 1.01768 0.41545 0.0
H76 H 0.19888 0.91969 0.31771 0.0
H77 H 0.28283 0.91246 0.3375 0.0
H78 H 0.14513 0.84151 0.29095 0.0
H79 H 0.26848 0.74892 0.30286 0.0
H80 H 0.59407 1.05065 0.4754 0.0
H81 H 0.59902 0.97742 0.45005 0.0
H82 H 0.65947 0.1749 0.47197 0.0
H83 H 0.71904 0.15264 0.41492 0.0
C84 C 0.79102 0.69608 0.52836 0.0
C85 C 0.76396 0.68123 0.49445 0.0
C86 C 0.74878 0.65797 0.51366 0.0
C87 C 0.81903 0.74543 0.49057 0.0
C88 C 0.84856 0.75902 0.52446 0.0
C89 C 0.8611 0.78444 0.50557 0.0
N90 N 0.77885 0.66911 0.54628 0.0
C91 C 0.82521 0.69946 0.56061 0.0
C92 C 0.89307 0.79328 0.53954 0.0
C93 C 0.88218 0.76256 0.55759 0.0
Gd94 Gd 0.57323 0.40351 0.52611 0.0
Gd95 Gd 0.67546 0.56993 0.55134 0.0
N96 N 0.69673 0.59561 0.51795 0.0
C97 C 0.72543 0.63806 0.47963 0.0
C98 C 0.66267 0.55193 0.50336 0.0
C99 C 0.67566 0.57253 0.4841 0.0
H100 H 0.62687 0.50046 0.50635 0.0
H101 H 0.64781 0.5375 0.4727 0.0
H102 H 0.51064 0.27014 0.5575 0.0
H103 H 0.81756 0.67582 0.57458 0.0
H104 H 0.39997 0.1915 0.57192 0.0
H105 H 0.73574 0.65373 0.46469 0.0
H106 H 0.83086 0.76436 0.47593 0.0
H107 H 0.53567 0.4405 0.48187 0.0
H108 H 0.93724 0.84221 0.53725 0.0
H109 H 0.9177 0.78739 0.56916 0.0
H110 H 0.24253 0.23476 0.53761 0.0
H111 H 0.90463 0.83297 0.50231 0.0
H112 H 0.32269 0.36887 0.48064 0.0
H113 H 0.43442 0.42671 0.46467 0.0
N114 N 0.48174 0.39325 0.50758 0.0
C115 C 0.41971 0.35442 0.51575 0.0
C116 C 0.48692 0.41461 0.48886 0.0
C117 C 0.36685 0.37462 0.48823 0.0
C118 C 0.42979 0.40706 0.47913 0.0
C119 C 0.36089 0.34584 0.50647 0.0
H120 H 0.25231 0.29833 0.50811 0.0
N121 N 0.47092 0.31766 0.53915 0.0
C122 C 0.41437 0.3166 0.53221 0.0
C123 C 0.34557 0.22794 0.5548 0.0
C124 C 0.35016 0.27157 0.5399 0.0
C125 C 0.46594 0.27105 0.55259 0.0
C126 C 0.4035 0.22672 0.56088 0.0
O127 O 0.75538 0.54215 0.54287 0.0
O128 O 0.69521 0.45655 0.52103 0.0
O129 O 0.55364 0.30133 0.51987 0.0
O130 O 0.58889 0.37358 0.49703 0.0
O131 O 0.58945 0.5823 0.53687 0.0
O132 O 0.52864 0.48065 0.52118 0.0
O133 O 0.53383 0.40304 0.55664 0.0
O134 O 0.56598 0.51418 0.56038 0.0
O135 O 0.68665 0.65956 0.56575 0.0
O136 O 0.69625 0.58328 0.5819 0.0
O137 O 0.61709 0.38246 0.55316 0.0
O138 O 0.68358 0.48579 0.56775 0.0
C139 C 0.75503 0.50156 0.52925 0.0
C140 C 0.53636 0.54159 0.52613 0.0
C141 C 0.51296 0.25635 0.48851 0.0
C142 C 0.47599 0.17099 0.46226 0.0
C143 C 0.39329 0.18338 0.48138 0.0
C144 C 0.44444 0.23316 0.49242 0.0
C145 C 0.4088 0.15292 0.4664 0.0
C146 C 0.5288 0.22376 0.47331 0.0
C147 C 0.5654 0.31007 0.50147 0.0
C148 C 0.2922 0.26841 0.53175 0.0
C149 C 0.29763 0.30498 0.51499 0.0
H150 H 0.29713 0.19282 0.56108 0.0
C151 C 0.52757 0.45118 0.56526 0.0
C152 C 0.65699 0.41919 0.56737 0.0
C153 C 0.63188 0.62698 0.59624 0.0
C154 C 0.55369 0.6647 0.60639 0.0
C155 C 0.57141 0.58839 0.62671 0.0
C156 C 0.61938 0.59065 0.61359 0.0
C157 C 0.53956 0.62672 0.62336 0.0
C158 C 0.59481 0.65953 0.59224 0.0
C159 C 0.68544 0.63425 0.58275 0.0
H160 H 0.34098 0.16729 0.48475 0.0
H161 H 0.42971 0.25193 0.50446 0.0
H162 H 0.3678 0.11353 0.45823 0.0
H163 H 0.58099 0.23827 0.47037 0.0
H164 H 0.56258 0.56084 0.64009 0.0
H165 H 0.64802 0.56595 0.61731 0.0
H166 H 0.50903 0.63142 0.6346 0.0
H167 H 0.6055 0.68981 0.57927 0.0
C168 C 0.12689 0.75089 0.69069 0.0
C169 C 0.11174 0.71292 0.65768 0.0
C170 C 0.1253 0.70595 0.67718 0.0
C171 C 0.09399 0.76187 0.65247 0.0
C172 C 0.11485 0.80398 0.68521 0.0
C173 C 0.09558 0.80744 0.66624 0.0
N174 N 0.14825 0.74757 0.70864 0.0
C175 C 0.16511 0.79984 0.7212 0.0
C176 C 0.12657 0.85434 0.69861 0.0
C177 C 0.15337 0.85307 0.71654 0.0
Gd178 Gd 0.21853 0.54229 0.6916 0.0
Gd179 Gd 0.15833 0.65125 0.71641 0.0
N180 N 0.14574 0.66139 0.68264 0.0
C181 C 0.12126 0.67402 0.6438 0.0
C182 C 0.15968 0.62734 0.66884 0.0
C183 C 0.14746 0.63266 0.64935 0.0
H184 H 0.1808 0.5963 0.67264 0.0
H185 H 0.15823 0.60472 0.63863 0.0
H186 H 0.29855 0.49 0.72332 0.0
H187 H 0.18809 0.80151 0.73489 0.0
H188 H 0.27254 0.38465 0.74027 0.0
H189 H 0.1121 0.6783 0.62869 0.0
H190 H 0.08254 0.76722 0.63764 0.0
H191 H 0.13426 0.48996 0.64884 0.0
H192 H 0.11837 0.89611 0.69493 0.0
H193 H 0.16577 0.89349 0.72671 0.0
H194 H 1.06426 0.21788 0.71239 0.0
H195 H 0.0852 0.84722 0.66185 0.0
H196 H 0.99331 0.27902 0.65464 0.0
H197 H 1.04238 0.38397 0.63532 0.0
N198 N 0.13499 0.44537 0.67579 0.0
C199 C 0.1147 0.38651 0.68562 0.0
C200 C 0.11382 0.44402 0.65721 0.0
C201 C 1.03384 0.32515 0.66059 0.0
C202 C 1.06162 0.38425 0.64959 0.0
C203 C 1.06196 0.32519 0.67852 0.0
H204 H 1.00047 0.21818 0.684 0.0
N205 N 0.20807 0.44474 0.7067 0.0
C206 C 0.15212 0.3863 0.70154 0.0
C207 C 0.17845 0.32515 0.72543 0.0
C208 C 0.13557 0.32504 0.71095 0.0
C209 C 0.25277 0.44412 0.71984 0.0
C210 C 0.23801 0.3846 0.72957 0.0
O211 O 0.2611 0.7299 0.70485 0.0
O212 O 0.29056 0.66393 0.68607 0.0
O213 O 0.29693 0.51762 0.68399 0.0
O214 O 0.25687 0.55311 0.66173 0.0
O215 O 1.05745 0.55974 0.70479 0.0
O216 O 0.09821 0.50046 0.68758 0.0
O217 O 0.18196 0.50859 0.72293 0.0
O218 O 0.10508 0.54473 0.72758 0.0
O219 O 0.08527 0.65972 0.7351 0.0
O220 O 0.18862 0.69752 0.74429 0.0
O221 O 0.29243 0.59383 0.71571 0.0
O222 O 0.25015 0.65329 0.73179 0.0
C223 C 0.30322 0.72567 0.69258 0.0
C224 C 1.04511 0.50696 0.69357 0.0
C225 C 0.29629 0.47519 0.65261 0.0
C226 C 0.34386 0.43657 0.62647 0.0
C227 C 0.24905 0.35533 0.64556 0.0
C228 C 0.25063 0.40714 0.65658 0.0
C229 C 0.29494 0.3698 0.63063 0.0
C230 C 0.34412 0.48993 0.63742 0.0
C231 C 0.29695 0.52859 0.66561 0.0
C232 C 1.07857 0.26518 0.70508 0.0
C233 C 1.04202 0.26529 0.68889 0.0
H234 H 0.16739 0.27906 0.73297 0.0
C235 C 0.12933 0.50513 0.73215 0.0
C236 C 0.29615 0.63353 0.72994 0.0
C237 C 0.10538 0.64446 0.76813 0.0
C238 C 1.01557 0.57844 0.79098 0.0
C239 C 0.13082 0.60987 0.79884 0.0
C240 C 0.15234 0.64404 0.78128 0.0
C241 C 1.06231 0.57604 0.8036 0.0
C242 C 1.03718 0.61176 0.7732 0.0
C243 C 0.12748 0.68082 0.74956 0.0
H244 H 0.21285 0.30335 0.64893 0.0
H245 H 0.21715 0.39332 0.66863 0.0
H246 H 0.29333 0.32834 0.62251 0.0
H247 H 0.38169 0.54175 0.63442 0.0
H248 H 0.16751 0.61017 0.80882 0.0
H249 H 0.20569 0.66997 0.77808 0.0
H250 H 1.04619 0.55038 0.81735 0.0
H251 H 1.00082 0.61443 0.76363 0.0
C252 C 0.4454 0.14699 0.85562 0.0
C253 C 0.45156 0.12061 0.82226 0.0
C254 C 0.47673 0.13077 0.84125 0.0
C255 C 0.39212 0.12307 0.81834 0.0
C256 C 0.38741 0.15243 0.85169 0.0
C257 C 0.36001 0.13892 0.83306 0.0
N258 N 0.47412 0.16131 0.87326 0.0
C259 C 0.44991 0.18513 0.88748 0.0
C260 C 0.35958 0.17254 0.86654 0.0
C261 C 0.39161 0.18998 0.88445 0.0
Gd262 Gd 0.73241 0.19712 0.85653 0.0
Gd263 Gd 0.56192 0.13738 0.87877 0.0
N264 N 0.53525 0.13113 0.84553 0.0
C265 C 0.48871 0.11164 0.80765 0.0
C266 C 0.5747 0.12967 0.83101 0.0
C267 C 0.55151 0.11802 0.81196 0.0
H268 H 0.62461 0.13972 0.83411 0.0
H269 H 0.5823 0.11508 0.80052 0.0
H270 H 0.84876 0.2357 0.89165 0.0
H271 H 0.47437 0.19813 0.90137 0.0
H272 H 0.93285 0.20278 0.90134 0.0
H273 H 0.47101 0.10317 0.79292 0.0
H274 H 0.37186 0.11498 0.80387 0.0
H275 H 0.69002 0.14184 0.81056 0.0
H276 H 0.31414 0.17576 0.86421 0.0
H277 H 0.37119 0.20654 0.896 0.0
H278 H 0.93212 0.06362 0.84987 0.0
H279 H 0.31519 0.14242 0.82978 0.0
H280 H 0.79143 1.03258 0.7956 0.0
H281 H 0.71298 0.07453 0.78719 0.0
N282 N 0.7459 0.12921 0.83323 0.0
C283 C 0.79217 0.10958 0.83784 0.0
C284 C 0.72016 0.11963 0.81496 0.0
C285 C 0.77907 0.05958 0.80627 0.0
C286 C 0.73458 0.08295 0.80148 0.0
C287 C 0.80987 0.07436 0.82437 0.0
H288 H 0.87599 1.03314 0.81849 0.0
N289 N 0.81493 0.17083 0.86721 0.0
C290 C 0.82587 0.12916 0.85548 0.0
C291 C 0.91344 0.13718 0.87702 0.0
C292 C 0.87659 0.11243 0.85998 0.0
C293 C 0.85454 0.19921 0.8831 0.0
C294 C 0.90278 0.18128 0.88853 0.0
O295 O 0.60313 0.24926 0.87332 0.0
O296 O 0.67283 0.25878 0.84818 0.0
O297 O 0.83499 0.28239 0.8552 0.0
O298 O 0.77562 0.25335 0.82946 0.0
O299 O 0.55884 1.04199 0.86396 0.0
O300 O 0.66502 0.07909 0.85084 0.0
O301 O 0.72049 0.14272 0.88617 0.0
O302 O 0.60672 0.07822 0.89117 0.0
O303 O 0.46153 0.06477 0.88865 0.0
O304 O 0.53709 0.12971 0.90914 0.0
O305 O 0.75039 0.25465 0.88447 0.0
O306 O 0.64453 0.22395 0.89695 0.0
C307 C 0.63639 0.28226 0.85787 0.0
C308 C 0.60288 1.02841 0.85474 0.0
C309 C 0.89636 0.29655 0.82568 0.0
C310 C 0.97819 0.33659 0.79836 0.0
C311 C 0.98785 0.26939 0.82407 0.0
C312 C 0.93438 0.26933 0.83388 0.0
C313 C 1.0088 0.30158 0.80636 0.0
C314 C 0.92008 0.33235 0.80786 0.0
C315 C 0.83586 0.29078 0.83661 0.0
C316 C 0.89263 0.0759 0.84677 0.0
C317 C 0.8603 0.05811 0.82891 0.0
H318 H 0.95245 0.12508 0.88095 0.0
C319 C 0.66821 0.09347 0.89553 0.0
C320 C 0.71165 0.25923 0.89786 0.0
C321 C 0.47051 1.01491 0.91747 0.0
C322 C 0.40569 0.8938 0.9222 0.0
C323 C 0.50381 0.96029 0.942 0.0
C324 C 0.51417 1.01894 0.93244 0.0
C325 C 0.44932 0.8976 0.93699 0.0
C326 C 0.41759 0.95196 0.91225 0.0
C327 C 0.47988 0.07473 0.90667 0.0
H328 H 1.01482 0.24626 0.83058 0.0
H329 H 0.9243 0.24923 0.84823 0.0
H330 H 1.05218 0.3029 0.7994 0.0
H331 H 0.89484 0.35787 0.80179 0.0
H332 H 0.53714 0.96369 0.95359 0.0
H333 H 0.55618 0.06698 0.93673 0.0
H334 H 0.43939 0.85301 0.94515 0.0
H335 H 0.38242 0.94831 0.90112 0.0
C336 C 0.36266 0.40601 0.02515 0.0
C337 C 0.40045 0.42323 0.99207 0.0
C338 C 0.40805 0.44618 1.01127 0.0
C339 C 0.35005 0.3573 0.98754 0.0
C340 C 0.3099 0.34096 1.02057 0.0
C341 C 0.30508 0.316 1.00182 0.0
N342 N 0.36701 0.43277 0.04281 0.0
C343 C 0.31618 0.4002 0.05595 0.0
C344 C 0.26224 0.30401 0.0348 0.0
C345 C 0.26409 0.33465 0.05236 0.0
Gd346 Gd 0.57834 0.70196 0.02602 0.0
Gd347 Gd 0.46758 0.53282 0.04983 0.0
N348 N 0.45548 0.5099 1.0162 0.0
C349 C 0.44151 0.4682 0.97785 0.0
C350 C 0.49194 0.55507 1.00208 0.0
C351 C 0.48623 0.53487 0.98282 0.0
H352 H 0.52444 0.60703 1.00547 0.0
H353 H 0.51545 0.57085 0.97171 0.0
H354 H 0.64039 0.82845 0.05941 0.0
H355 H 0.31723 0.42352 0.06957 0.0
H356 H 0.75073 0.90522 0.07386 0.0
H357 H 0.43687 0.45287 0.96291 0.0
H358 H 0.34407 0.33861 0.97293 0.0
H359 H 0.6151 0.66364 0.98166 0.0
H360 H 0.22186 0.2532 0.03203 0.0
H361 H 0.22551 0.30781 0.06313 0.0
H362 H 0.90919 0.8725 0.03639 0.0
H363 H 0.26515 0.26597 0.99804 0.0
H364 H 0.82861 0.73993 0.97934 0.0
H365 H 0.71599 0.67771 0.96419 0.0
N366 N 0.66953 0.71344 1.00694 0.0
C367 C 0.73175 0.75318 1.01483 0.0
C368 C 0.66392 0.69041 0.98842 0.0
C369 C 0.78443 0.7335 0.98712 0.0
C370 C 0.72096 0.69839 0.97851 0.0
C371 C 0.79066 0.76302 1.00522 0.0
H372 H 0.8996 0.81237 1.00631 0.0
N373 N 0.68029 0.7852 0.03956 0.0
C374 C 0.73704 0.78848 0.03184 0.0
C375 C 0.80574 0.87375 0.05515 0.0
C376 C 0.80133 0.83315 0.03948 0.0
C377 C 0.68498 0.82865 0.05391 0.0
C378 C 0.74748 0.87237 0.06216 0.0
O379 O 0.39054 0.56382 0.04104 0.0
O380 O 0.45605 0.65063 1.01989 0.0
O381 O 0.60002 0.80548 0.02069 0.0
O382 O 0.56761 0.73648 0.99706 0.0
O383 O 0.55871 0.5244 0.03649 0.0
O384 O 0.62236 0.62672 0.02113 0.0
O385 O 0.62116 0.69224 0.0558 0.0
O386 O 0.57149 0.57875 0.062 0.0
O387 O 0.45054 0.44207 0.0648 0.0
O388 O 0.43599 0.51763 0.07975 0.0
O389 O 0.537 0.72341 0.05298 0.0
O390 O 0.46496 0.61931 0.06651 0.0
C391 C 0.39433 0.60614 0.02751 0.0
C392 C 0.61339 0.56591 0.02611 0.0
C393 C 0.64497 0.85491 0.98974 0.0
C394 C 0.6847 0.939 0.96282 0.0
C395 C 0.76525 0.93078 0.98409 0.0
C396 C 0.7129 0.88126 0.99496 0.0
C397 C 0.75147 0.95853 0.96806 0.0
C398 C 0.63081 0.8856 0.97363 0.0
C399 C 0.59093 0.79941 1.00212 0.0
C400 C 0.85949 0.83891 0.03062 0.0
C401 C 0.85412 0.80441 1.01349 0.0
H402 H 0.85422 0.90846 0.06142 0.0
C403 C 0.61819 0.64039 0.06563 0.0
C404 C 0.49572 0.68621 0.06677 0.0
C405 C 0.49196 0.47024 0.09679 0.0
C406 C 0.56936 0.43427 0.10884 0.0
C407 C 0.53105 0.49338 0.12995 0.0
C408 C 0.49073 0.49603 0.11508 0.0
C409 C 0.56872 0.46047 0.12705 0.0
C410 C 0.53609 0.4451 0.09349 0.0
C411 C 0.44511 0.46573 0.08146 0.0
H412 H 0.81712 0.94878 0.98837 0.0
H413 H 0.7262 0.86507 1.00784 0.0
H414 H 0.79353 0.99738 0.96 0.0
H415 H 0.57885 0.86893 0.9697 0.0
H416 H 0.52947 0.51274 0.14405 0.0
H417 H 0.45756 0.5166 0.11799 0.0
H418 H 0.59346 0.4517 0.13915 0.0
H419 H 0.53735 0.42455 0.0795 0.0
C420 C 1.03366 0.3581 0.19074 0.0
C421 C 1.04194 0.39073 0.15728 0.0
C422 C 1.03364 0.4016 0.1769 0.0
C423 C 1.05509 0.3386 0.15209 0.0
C424 C 1.04251 0.30291 0.18547 0.0
C425 C 1.05545 0.29475 0.16618 0.0
N426 N 1.01866 0.366 0.2091 0.0
C427 C 1.00566 0.31692 0.22252 0.0
C428 C 1.0349 0.25575 0.19958 0.0
C429 C 1.01478 0.26194 0.21808 0.0
Gd430 Gd 0.94784 0.57095 0.19213 0.0
Gd431 Gd 1.01363 0.46509 0.21624 0.0
N432 N 1.01886 0.45024 0.18242 0.0
C433 C 1.03321 0.43017 0.14337 0.0
C434 C 1.00567 0.48516 0.16869 0.0
C435 C 1.0133 0.47643 0.1491 0.0
H436 H 0.98774 0.51884 0.17263 0.0
H437 H 1.00316 0.50499 0.13841 0.0
H438 H 0.87224 0.62518 0.22472 0.0
H439 H 0.98831 0.31957 0.23677 0.0
H440 H 0.89953 0.73192 0.24103 0.0
H441 H 1.03862 0.42312 0.12817 0.0
H442 H 1.06233 0.33011 0.13713 0.0
H443 H 1.02653 0.61919 0.1485 0.0
H444 H 1.04148 0.21285 0.19613 0.0
H445 H 1.00575 0.22411 0.22891 0.0
H446 H 0.10176 0.89742 0.20974 0.0
H447 H 1.063 0.25308 0.16191 0.0
H448 H 0.16549 0.83139 0.15157 0.0
H449 H 0.11508 0.72426 0.13339 0.0
N450 N 1.02916 0.66647 0.17519 0.0
C451 C 1.04993 0.7263 0.18447 0.0
C452 C 1.04772 0.66601 0.15641 0.0
C453 C 0.12648 0.78562 0.15823 0.0
C454 C 0.09796 0.72528 0.14787 0.0
C455 C 0.10088 0.78715 0.17646 0.0
H456 H 0.16142 0.89495 0.18057 0.0
N457 N 0.95978 0.66958 0.20683 0.0
C458 C 1.01454 0.72774 0.20079 0.0
C459 C 0.9908 0.79073 0.22468 0.0
C460 C 1.03166 0.78983 0.2097 0.0
C461 C 0.91683 0.67109 0.22047 0.0
C462 C 0.93242 0.73135 0.22982 0.0
O463 O 0.90862 0.38547 0.20623 0.0
O464 O 0.87749 0.44914 0.18699 0.0
O465 O 0.86811 0.59514 0.18563 0.0
O466 O 0.90472 0.55837 0.16284 0.0
O467 O 0.11148 0.55421 0.20285 0.0
O468 O 1.06866 0.61486 0.18732 0.0
O469 O 0.98451 0.60479 0.2233 0.0
O470 O 1.06487 0.57299 0.22641 0.0
O471 O 0.09317 0.45964 0.23249 0.0
O472 O 0.99534 0.42783 0.24541 0.0
O473 O 0.87764 0.51691 0.21715 0.0
O474 O 0.92327 0.45994 0.23301 0.0
C475 C 0.86525 0.38796 0.19399 0.0
C476 C 0.12242 0.60772 0.19224 0.0
C477 C 0.86265 0.63501 0.15414 0.0
C478 C 0.80932 0.67077 0.12861 0.0
C479 C 0.90959 0.75373 0.14543 0.0
C480 C 0.90997 0.70335 0.15677 0.0
C481 C 0.86037 0.73771 0.13141 0.0
C482 C 0.81104 0.61887 0.14002 0.0
C483 C 0.86501 0.5829 0.16727 0.0
C484 C 0.08709 0.84944 0.20285 0.0
C485 C 0.12136 0.84809 0.18625 0.0
H486 H 1.00249 0.83746 0.23189 0.0
C487 C 1.03874 0.61011 0.23188 0.0
C488 C 0.87619 0.47808 0.2315 0.0
C489 C 0.0898 0.49085 0.26518 0.0
C490 C 0.19019 0.56509 0.28363 0.0
C491 C 1.08064 0.54437 0.29457 0.0
C492 C 1.05021 0.50119 0.27897 0.0
C493 C 0.15067 0.57719 0.2968 0.0
C494 C 0.1598 0.52326 0.26766 0.0
C495 C 1.05837 0.44575 0.24848 0.0
H496 H 0.94742 0.80593 0.14771 0.0
H497 H 0.94676 0.71857 0.16796 0.0
H498 H 0.86152 0.77817 0.12285 0.0
H499 H 0.77233 0.56686 0.13813 0.0
H500 H 1.04964 0.55157 0.30512 0.0
H501 H 0.99574 0.4761 0.27774 0.0
H502 H 0.17352 0.60866 0.3093 0.0
H503 H 0.19069 0.5133 0.25769 0.0
C504 C 0.14433 0.41085 0.50974 0.0
C505 C 0.1353 0.43506 0.54316 0.0
C506 C 0.14289 0.45379 0.52352 0.0
C507 C 0.12371 0.37051 0.54841 0.0
C508 C 0.13561 0.34709 0.51497 0.0
C509 C 0.12335 0.32636 0.53431 0.0
N510 N 0.15921 0.4335 0.49138 0.0
C511 C 0.17259 0.39786 0.47789 0.0
C512 C 0.14178 0.30708 0.5007 0.0
C513 C 0.16256 0.33349 0.48222 0.0
Gd514 Gd 0.2211 0.70431 0.50635 0.0
Gd515 Gd 0.15654 0.53306 0.48405 0.0
N516 N 0.15481 0.516 0.51789 0.0
C517 C 0.14251 0.48272 0.55698 0.0
C518 C 0.16647 0.56373 0.53148 0.0
C519 C 0.15976 0.54786 0.55111 0.0
H520 H 0.18232 0.61453 0.52738 0.0
H521 H 0.16841 0.58613 0.56171 0.0
H522 H 0.29856 0.83286 0.47355 0.0
H523 H 0.18856 0.41796 0.46356 0.0
H524 H 0.27025 0.91017 0.45609 0.0
H525 H 0.13762 0.4706 0.5722 0.0
H526 H 0.11697 0.35503 0.56338 0.0
H527 H 0.14466 0.68172 0.55008 0.0
H528 H 0.13372 0.25707 0.50403 0.0
H529 H 0.17067 0.30426 0.4713 0.0
H530 H 1.06603 0.87728 0.48605 0.0
H531 H 0.11618 0.27741 0.53859 0.0
H532 H 1.00514 0.75666 0.54565 0.0
H533 H 1.05712 0.70238 0.56476 0.0
N534 N 0.14032 0.72228 0.52278 0.0
C535 C 0.11879 0.76013 0.51292 0.0
C536 C 0.12289 0.70646 0.54175 0.0
C537 C 1.04368 0.74812 0.53917 0.0
C538 C 1.07313 0.7177 0.55004 0.0
C539 C 1.06807 0.77194 0.52062 0.0
H540 H 1.00717 0.81973 0.51571 0.0
N541 N 0.20941 0.79064 0.49093 0.0
C542 C 0.15391 0.79468 0.49641 0.0
C543 C 0.17775 0.87911 0.47184 0.0
C544 C 0.13655 0.83895 0.48691 0.0
C545 C 0.25292 0.83396 0.47729 0.0
C546 C 0.23693 0.87767 0.4673 0.0
O547 O 0.26326 0.55919 0.49251 0.0
O548 O 0.29244 0.65275 0.51172 0.0
O549 O 0.30229 0.80637 0.51231 0.0
O550 O 0.26436 0.7357 0.53557 0.0
O551 O 1.05998 0.5237 0.49836 0.0
O552 O 0.10042 0.62874 0.51207 0.0
O553 O 0.18148 0.70013 0.47572 0.0
O554 O 0.10307 0.58885 0.47359 0.0
O555 O 1.07774 0.44063 0.47149 0.0
O556 O 0.16046 0.51207 0.45377 0.0
O557 O 0.28524 0.71951 0.47947 0.0
O558 O 0.2471 0.61302 0.4666 0.0
C559 C 0.30587 0.60439 0.50476 0.0
C560 C 1.04781 0.56676 0.50816 0.0
C561 C 0.30509 0.85389 0.54322 0.0
C562 C 0.35232 0.94047 0.56922 0.0
C563 C 0.2592 0.92924 0.54943 0.0
C564 C 0.2607 0.87825 0.53874 0.0
C565 C 0.30387 0.95952 0.56459 0.0
C566 C 0.35223 0.88636 0.55853 0.0
C567 C 0.30425 0.79873 0.53081 0.0
C568 C 1.08089 0.84448 0.49337 0.0
C569 C 1.04705 0.8114 0.51026 0.0
H570 H 0.16589 0.91355 0.46418 0.0
C571 C 0.12716 0.65106 0.46773 0.0
C572 C 0.2871 0.67947 0.46595 0.0
C573 C 1.05094 0.46479 0.44048 0.0
C574 C 0.93416 0.42153 0.43094 0.0
C575 C 1.02402 0.49607 0.4095 0.0
C576 C 1.07175 0.49827 0.42265 0.0
C577 C 0.95504 0.45641 0.41341 0.0
C578 C 0.98215 0.43077 0.44495 0.0
C579 C 0.09934 0.4613 0.45402 0.0
H580 H 0.22356 0.9461 0.54573 0.0
H581 H 0.22776 0.85905 0.52661 0.0
H582 H 0.30138 0.99913 0.5726 0.0
H583 H 0.38879 0.87043 0.56194 0.0
H584 H 1.04044 0.5214 0.39574 0.0
H585 H 0.12438 0.52423 0.41861 0.0
H586 H 0.91854 0.4489 0.40232 0.0
H587 H 0.96491 0.4029 0.45838 0.0
C588 C 0.79429 0.11008 0.67463 0.0
C589 C 0.76164 0.09526 0.70819 0.0
C590 C 0.74964 0.10526 0.68883 0.0
C591 C 0.81633 0.08517 0.71271 0.0
C592 C 0.85121 0.1033 0.67917 0.0
C593 C 0.86091 0.08886 0.69819 0.0
N594 N 0.78494 0.12682 0.65663 0.0
C595 C 0.83378 0.14352 0.64287 0.0
C596 C 0.89802 0.11387 0.66459 0.0
C597 C 0.89017 0.13583 0.6465 0.0
Gd598 Gd 0.57363 0.18669 0.67471 0.0
Gd599 Gd 0.68177 0.12431 0.65053 0.0
N600 N 0.69805 0.11643 0.68394 0.0
C601 C 0.72024 0.09885 0.72251 0.0
C602 C 0.66089 0.12447 0.698 0.0
C603 C 0.67058 0.11508 0.71741 0.0
H604 H 0.62464 0.1392 0.69428 0.0
H605 H 0.64034 0.12117 0.72845 0.0
H606 H 0.52696 0.2736 0.64388 0.0
H607 H 0.82874 0.16138 0.62889 0.0
H608 H 0.4209 0.26367 0.63175 0.0
H609 H 0.72804 0.09204 0.73756 0.0
H610 H 0.82585 0.07669 0.72746 0.0
H611 H 0.52858 0.08827 0.71564 0.0
H612 H 0.94191 0.10822 0.6674 0.0
H613 H 0.92766 0.14712 0.63537 0.0
H614 H 0.24798 0.083 0.66826 0.0
H615 H 0.90411 0.08309 0.70194 0.0
H616 H 0.31319 0.98715 0.71947 0.0
H617 H 0.42343 1.00954 0.73249 0.0
N618 N 0.47876 0.11027 0.69311 0.0
C619 C 0.41886 0.10306 0.68661 0.0
C620 C 0.48093 0.08046 0.71012 0.0
C621 C 0.35932 1.02254 0.71213 0.0
C622 C 0.42139 1.0351 0.71955 0.0
C623 C 0.35744 0.05755 0.69576 0.0
H624 H 0.24857 1.01406 0.69539 0.0
N625 N 0.47834 0.19061 0.66342 0.0
C626 C 0.41859 0.14326 0.67131 0.0
C627 C 0.358 0.18001 0.6502 0.0
C628 C 0.35681 0.13689 0.66479 0.0
C629 C 0.47978 0.23453 0.64967 0.0
C630 C 0.4197 0.22942 0.64278 0.0
O631 O 0.76086 0.23011 0.6598 0.0
O632 O 0.69536 0.259 0.67882 0.0
O633 O 0.54425 0.25789 0.68707 0.0
O634 O 0.61303 0.23459 0.70245 0.0
O635 O 0.59193 1.0268 0.66436 0.0
O636 O 0.52713 0.06782 0.67808 0.0
O637 O 0.52894 0.1398 0.64485 0.0
O638 O 0.57678 0.07317 0.63861 0.0
O639 O 0.69566 1.04736 0.63614 0.0
O640 O 0.71032 0.13612 0.6204 0.0
O641 O 0.61814 0.25158 0.64798 0.0
O642 O 0.68509 0.213 0.63366 0.0
C643 C 0.75715 0.27248 0.67208 0.0
C644 C 0.53607 1.01528 0.67397 0.0
C645 C 0.54213 0.26223 0.72198 0.0
C646 C 0.49712 0.31111 0.74607 0.0
C647 C 0.50609 0.21157 0.75384 0.0
C648 C 0.53561 0.21471 0.73601 0.0
C649 C 0.48705 0.25909 0.75884 0.0
C650 C 0.52223 0.31081 0.72716 0.0
C651 C 0.57686 0.26516 0.70314 0.0
C652 C 0.29577 0.08888 0.67325 0.0
C653 C 0.29609 1.04953 0.6887 0.0
H654 H 0.31158 0.17652 0.64485 0.0
C655 C 0.53108 0.09068 0.63495 0.0
C656 C 0.65725 0.25235 0.63375 0.0
C657 C 0.64888 1.03177 0.60466 0.0
C658 C 0.57025 0.91936 0.5932 0.0
C659 C 0.59807 1.01619 0.57291 0.0
C660 C 0.64291 0.05859 0.58697 0.0
C661 C 0.5632 0.94624 0.57574 0.0
C662 C 0.60801 0.96284 0.60812 0.0
C663 C 0.69906 0.07434 0.61923 0.0
H664 H 0.50108 0.17393 0.76424 0.0
H665 H 0.55555 0.18101 0.73359 0.0
H666 H 0.46835 0.2578 0.77329 0.0
H667 H 0.53056 0.35065 0.71711 0.0
H668 H 0.59394 1.03715 0.5593 0.0
H669 H 0.67394 0.11182 0.58385 0.0
H670 H 0.53493 0.91329 0.56397 0.0
H671 H 0.61273 0.9411 0.62156 0.0
C672 C 0.71165 0.77723 0.84411 0.0
C673 C 0.69753 0.73567 0.87681 0.0
C674 C 0.67755 0.72597 0.85728 0.0
C675 C 0.75532 0.79539 0.88242 0.0
C676 C 0.768 0.83835 0.84978 0.0
C677 C 0.79072 0.84658 0.86889 0.0
N678 N 0.68744 0.76856 0.82593 0.0
C679 C 0.71522 0.81987 0.81281 0.0
C680 C 0.79931 0.8897 0.83611 0.0
C681 C 0.772 0.88103 0.81764 0.0
Gd682 Gd 0.43513 0.55053 0.8394 0.0
Gd683 Gd 0.60652 0.65881 0.81736 0.0
N684 N 0.621 0.66963 0.85136 0.0
C685 C 0.65669 0.68684 0.89027 0.0
C686 C 0.57869 0.62537 0.86476 0.0
C687 C 0.59598 0.63226 0.88426 0.0
H688 H 0.53132 0.58546 0.86056 0.0
H689 H 0.5621 0.59578 0.89466 0.0
H690 H 0.30747 0.52831 0.80778 0.0
H691 H 0.69496 0.8126 0.79839 0.0
H692 H 0.20956 0.43304 0.79337 0.0
H693 H 0.66985 0.69251 0.90541 0.0
H694 H 0.77171 0.80338 0.8973 0.0
H695 H 0.47764 0.48329 0.87747 0.0
H696 H 0.84426 0.93606 0.83982 0.0
H697 H 0.79523 0.92076 0.80699 0.0
H698 H 0.18207 0.24094 0.82847 0.0
H699 H 0.83428 0.89312 0.87348 0.0
H700 H 0.32957 0.27496 0.88101 0.0
H701 H 0.43191 0.37306 0.89364 0.0
N702 N 0.40321 0.44758 0.85534 0.0
C703 C 0.34585 0.39413 0.84831 0.0
C704 C 0.43315 0.44057 0.87167 0.0
C705 C 0.35055 0.32266 0.87348 0.0
C706 C 0.40778 0.37814 0.8808 0.0
C707 C 0.31925 0.32978 0.85701 0.0
H708 H 0.24027 0.22516 0.85598 0.0
N709 N 0.33195 0.46753 0.82622 0.0
C710 C 0.31064 0.40389 0.83316 0.0
C711 C 0.2157 0.35909 0.81118 0.0
C712 C 0.25115 0.34832 0.82593 0.0
C713 C 0.29456 0.47844 0.81263 0.0
C714 C 0.23733 0.42434 0.8046 0.0
O715 O 0.56893 0.73332 0.82169 0.0
O716 O 0.4895 0.67303 0.84488 0.0
O717 O 0.33801 0.52889 0.85261 0.0
O718 O 0.43067 0.58234 0.8688 0.0
O719 O 0.6125 0.56781 0.83141 0.0
O720 O 0.50317 0.49684 0.84138 0.0
O721 O 0.44371 0.4962 0.812 0.0
O722 O 0.5534 0.56193 0.80132 0.0
O723 O 0.70993 0.68581 0.81093 0.0
O724 O 0.6459 0.6867 0.7882 0.0
O725 O 0.41973 0.60017 0.81297 0.0
O726 O 0.52339 0.65593 0.79748 0.0
C727 C 0.53097 0.733 0.83596 0.0
C728 C 0.56633 0.50823 0.83863 0.0
C729 C 0.32928 0.51486 0.88749 0.0
C730 C 0.23521 0.47083 0.91147 0.0
C731 C 0.335 0.46018 0.9172 0.0
C732 C 0.36495 0.49625 0.90043 0.0
C733 C 0.27072 0.44713 0.9226 0.0
C734 C 0.26368 0.50268 0.89335 0.0
C735 C 0.36456 0.55371 0.86938 0.0
C736 C 0.22754 0.28388 0.8339 0.0
C737 C 0.26085 0.27484 0.84954 0.0
H738 H 0.17055 0.31751 0.80512 0.0
C739 C 0.4945 0.50726 0.80018 0.0
C740 C 0.45693 0.63243 0.79786 0.0
C741 C 0.72544 0.65272 0.77994 0.0
C742 C 0.79165 0.59606 0.77639 0.0
C743 C 0.75537 0.63219 0.74806 0.0
C744 C 0.72418 0.65872 0.75984 0.0
C745 C 0.79056 0.60244 0.75629 0.0
C746 C 0.75516 0.61707 0.78798 0.0
C747 C 0.70291 0.68987 0.7925 0.0
H748 H 0.36339 0.44537 0.92664 0.0
H749 H 0.41739 0.51156 0.89805 0.0
H750 H 0.25088 0.42315 0.9364 0.0
H751 H 0.2374 0.5221 0.88467 0.0
H752 H 0.75498 0.63755 0.73258 0.0
H753 H 0.70091 0.68556 0.75331 0.0
H754 H 0.81866 0.58652 0.74708 0.0
H755 H 0.75643 0.61174 0.80347 0.0
C756 C 1.01593 0.70186 1.01192 0.0
C757 C 1.03237 0.67392 0.04429 0.0
C758 C 1.0177 0.65642 0.02467 0.0
C759 C 1.05083 0.73958 0.05038 0.0
C760 C 1.02981 0.76646 1.01822 0.0
C761 C 1.04978 0.78595 0.03732 0.0
N762 N 0.99363 0.68027 0.99385 0.0
C763 C 0.97666 0.7181 0.98212 0.0
C764 C 1.0199 0.80824 1.00541 0.0
C765 C 0.99146 0.78318 0.98744 0.0
Gd766 Gd 0.93449 0.40572 1.00588 0.0
Gd767 Gd 0.98719 0.57719 0.98427 0.0
N768 N 0.99787 0.5929 1.01831 0.0
C769 C 1.02425 0.62393 0.05741 0.0
C770 C 0.98593 0.5434 0.03138 0.0
C771 C 0.99909 0.55799 0.05099 0.0
H772 H 0.96599 0.49251 0.02682 0.0
H773 H 0.98912 0.51836 0.06125 0.0
H774 H 0.86779 0.28039 0.97176 0.0
H775 H 0.95235 0.69911 0.96845 0.0
H776 H 0.90235 0.20624 0.95553 0.0
H777 H 1.03413 0.63502 0.07261 0.0
H778 H 1.06316 0.75406 0.06532 0.0
H779 H 1.01068 0.43651 0.05008 0.0
H780 H 1.03031 0.85829 1.00965 0.0
H781 H 0.97998 0.8136 0.97779 0.0
H782 H 0.09936 0.23994 0.98953 0.0
H783 H 1.06138 0.83559 0.04235 0.0
H784 H 0.15323 0.36527 0.04809 0.0
H785 H 0.10073 0.42243 0.06557 0.0
N786 N 1.01486 0.39112 0.02371 0.0
C787 C 1.03817 0.35337 1.01462 0.0
C788 C 1.03313 0.41138 0.04239 0.0
C789 C 0.1138 0.37139 0.04121 0.0
C790 C 0.08421 0.40359 0.05116 0.0
C791 C 0.0895 0.34402 0.023 0.0
H792 H 0.15277 0.29846 1.01943 0.0
N793 N 0.95207 0.32261 0.99097 0.0
C794 C 1.00664 0.31909 0.99769 0.0
C795 C 0.99042 0.23706 0.97314 0.0
C796 C 1.02732 0.27636 0.98881 0.0
C797 C 0.9131 0.28065 0.97651 0.0
C798 C 0.93229 0.23812 0.96725 0.0
O799 O 0.88322 0.5497 0.99463 0.0
O800 O 0.85787 0.45251 1.01174 0.0
O801 O 0.85668 0.30205 1.01175 0.0
O802 O 0.89149 0.37279 0.03509 0.0
O803 O 0.08739 0.58626 0.99747 0.0
O804 O 1.05143 0.48162 1.01129 0.0
O805 O 0.99303 0.42162 0.97653 0.0
O806 O 1.04653 0.53562 0.97014 0.0
O807 O 1.05767 0.66334 0.96715 0.0
O808 O 0.95562 0.59732 0.95689 0.0
O809 O 0.87094 0.38345 0.97956 0.0
O810 O 0.9027 0.48856 0.96683 0.0
C811 C 0.84239 0.50125 1.0062 0.0
C812 C 0.10175 0.54342 1.00709 0.0
C813 C 0.85415 0.25548 0.0429 0.0
C814 C 0.81039 0.17231 0.06982 0.0
C815 C 0.89924 0.1793 0.04882 0.0
C816 C 0.89674 0.2294 0.03792 0.0
C817 C 0.85699 0.1514 0.06465 0.0
C818 C 0.80961 0.22562 0.05898 0.0
C819 C 0.85373 0.3095 0.03027 0.0
C820 C 0.08216 0.27171 0.99633 0.0
C821 C 0.11283 0.30519 1.01339 0.0
H822 H 1.00487 0.20374 0.96596 0.0
C823 C 1.03853 0.47579 0.96672 0.0
C824 C 0.86707 0.42151 0.96605 0.0
C825 C 1.04143 0.63915 0.93338 0.0
C826 C 0.13733 0.68061 0.91173 0.0
C827 C 1.02397 0.62125 0.89883 0.0
C828 C 0.99773 0.61477 0.91745 0.0
C829 C 0.09386 0.65644 0.89585 0.0
C830 C 0.11063 0.66645 0.93042 0.0
C831 C 1.01622 0.64469 0.95249 0.0
H832 H 0.93326 0.16087 0.04469 0.0
H833 H 0.92717 0.24622 0.02519 0.0
H834 H 0.85929 0.11157 0.07264 0.0
H835 H 0.77424 0.24268 0.06279 0.0
H836 H 0.99013 0.6033 0.88662 0.0
H837 H 0.94362 0.5928 0.91931 0.0
H838 H 0.11369 0.66831 0.88132 0.0
H839 H 0.14492 0.68635 0.94255 0.0
C840 C 0.3768 1.00242 0.17348 0.0
C841 C 0.40628 1.01275 0.20722 0.0
C842 C 0.42016 1.00527 0.18782 0.0
C843 C 0.35125 1.02241 0.21169 0.0
C844 C 0.31943 1.00856 0.17796 0.0
C845 C 0.30801 1.02058 0.19706 0.0
N846 N 0.38773 0.98812 0.15536 0.0
C847 C 0.34033 0.97343 0.14135 0.0
C848 C 0.27389 0.9998 0.16322 0.0
C849 C 0.28345 0.98037 0.14495 0.0
Gd850 Gd 0.59344 0.9237 0.17347 0.0
Gd851 Gd 0.49062 0.99028 0.14944 0.0
N852 N 0.47205 0.99435 0.18298 0.0
C853 C 0.44603 1.00695 0.22162 0.0
C854 C 0.50725 0.9836 0.19713 0.0
C855 C 0.49567 0.99065 0.21656 0.0
H856 H 0.54294 0.96765 0.19362 0.0
H857 H 0.52446 0.98264 0.22764 0.0
H858 H 0.65024 0.84717 0.14188 0.0
H859 H 0.34708 0.95787 0.12722 0.0
H860 H 0.75879 0.87353 0.12667 0.0
H861 H 0.43677 1.01185 0.23669 0.0
H862 H 0.34035 1.02897 0.22647 0.0
H863 H 0.63684 0.99954 0.21743 0.0
H864 H 0.22982 1.00521 0.16598 0.0
H865 H 0.24705 0.97067 0.13365 0.0
H866 H 0.92292 0.07104 0.15959 0.0
H867 H 0.26447 1.02588 0.20076 0.0
H868 H 0.85071 0.13259 0.21701 0.0
H869 H 0.74053 0.08422 0.23377 0.0
N870 N 0.68782 1.00162 0.19144 0.0
C871 C 0.74885 1.02156 0.18291 0.0
C872 C 0.68487 1.01963 0.21011 0.0
C873 C 0.80548 0.09512 0.20981 0.0
C874 C 0.74342 0.06776 0.21936 0.0
C875 C 0.80912 0.07054 0.19164 0.0
H876 H 0.91795 0.12873 0.18889 0.0
N877 N 0.69362 0.93422 0.15993 0.0
C878 C 0.75164 0.98778 0.16647 0.0
C879 C 0.81667 0.96344 0.14339 0.0
C880 C 0.81472 1.00385 0.15829 0.0
C881 C 0.69603 0.89129 0.14648 0.0
C882 C 0.7573 0.90617 0.13775 0.0
O883 O 0.40978 0.88405 0.15826 0.0
O884 O 0.47185 0.85502 0.17866 0.0
O885 O 0.60992 0.83932 0.18001 0.0
O886 O 0.57796 0.88059 0.20286 0.0
O887 O 0.57789 0.08705 0.16349 0.0
O888 O 0.64019 1.04483 0.17822 0.0
O889 O 0.63087 0.96013 0.1427 0.0
O890 O 0.59947 1.0404 0.13946 0.0
O891 O 0.47833 0.0694 0.13571 0.0
O892 O 0.46884 0.985 0.11895 0.0
O893 O 0.54664 0.85877 0.14683 0.0
O894 O 0.47952 0.89764 0.13292 0.0
C895 C 0.41124 0.84164 0.17107 0.0
C896 C 0.63227 0.09837 0.17361 0.0
C897 C 0.65144 0.83486 0.21115 0.0
C898 C 0.68491 0.78443 0.23783 0.0
C899 C 0.76914 0.86373 0.21553 0.0
C900 C 0.71949 0.86954 0.20539 0.0
C901 C 0.75212 0.82142 0.23145 0.0
C902 C 0.63419 0.79225 0.22775 0.0
C903 C 0.59952 0.83855 0.19846 0.0
C904 C 0.87415 0.05726 0.1659 0.0
C905 C 0.87137 0.0903 0.18258 0.0
H906 H 0.86415 0.97433 0.13673 0.0
C907 C 0.63634 1.01391 0.13395 0.0
C908 C 0.5054 0.85652 0.13305 0.0
C909 C 0.53179 0.09316 0.10503 0.0
C910 C 0.60504 0.20832 0.0944 0.0
C911 C 0.59711 0.11588 0.07538 0.0
C912 C 0.54932 0.07003 0.08836 0.0
C913 C 0.62415 0.18523 0.07817 0.0
C914 C 0.56324 0.16242 0.1084 0.0
C915 C 0.47903 1.04645 0.11852 0.0
H916 H 0.82114 0.89101 0.21068 0.0
H917 H 0.73458 0.89963 0.19256 0.0
H918 H 0.79182 0.8167 0.23873 0.0
H919 H 0.58196 0.76379 0.23235 0.0
H920 H 0.60972 0.0976 0.0625 0.0
H921 H 0.52477 1.017 0.08501 0.0
H922 H 0.6549 0.22015 0.067 0.0
H923 H 0.54836 0.18132 0.12076 0.0
C924 C 0.44047 0.33783 0.33899 0.0
C925 C 0.44827 0.3682 0.37251 0.0
C926 C 0.47467 0.3823 0.35362 0.0
C927 C 0.38393 0.31252 0.3759 0.0
C928 C 0.37725 0.28017 0.34234 0.0
C929 C 0.34808 0.26892 0.36076 0.0
N930 N 0.47146 0.34877 0.32169 0.0
C931 C 0.44533 0.30077 0.30761 0.0
C932 C 0.3463 0.23488 0.32717 0.0
C933 C 0.38133 0.24436 0.30988 0.0
Gd934 Gd 0.73169 0.55989 0.34098 0.0
Gd935 Gd 0.56371 0.45703 0.31639 0.0
N936 N 0.5367 0.4355 0.3497 0.0
C937 C 0.48867 0.40841 0.38752 0.0
C938 C 0.57813 0.47084 0.36452 0.0
C939 C 0.55463 0.45857 0.38358 0.0
H940 H 0.6298 0.5067 0.36176 0.0
H941 H 0.58741 0.48687 0.39533 0.0
H942 H 0.85468 0.62891 0.30719 0.0
H943 H 0.4721 0.30787 0.29418 0.0
H944 H 0.94457 0.74237 0.29774 0.0
H945 H 0.47075 0.39889 0.40228 0.0
H946 H 0.36241 0.30158 0.39026 0.0
H947 H 0.68317 0.58068 0.38596 0.0
H948 H 0.29664 0.19119 0.32887 0.0
H949 H 0.3591 0.2082 0.29831 0.0
H950 H 0.92938 0.89013 0.34406 0.0
H951 H 0.29923 0.22526 0.36363 0.0
H952 H 0.77771 0.79223 0.397 0.0
H953 H 0.70074 0.67462 0.40711 0.0
N954 N 0.74383 0.64402 0.36312 0.0
C955 C 0.79069 0.70816 0.35796 0.0
C956 C 0.71488 0.63158 0.38107 0.0
C957 C 0.76909 0.75107 0.38746 0.0
C958 C 0.72549 0.68481 0.39321 0.0
C959 C 0.80371 0.76337 0.36995 0.0
H960 H 0.86331 0.87151 0.37364 0.0
N961 N 0.81901 0.66447 0.33039 0.0
C962 C 0.82856 0.71863 0.34115 0.0
C963 C 0.92118 0.79276 0.32026 0.0
C964 C 0.88001 0.78437 0.33623 0.0
C965 C 0.86101 0.67222 0.31525 0.0
C966 C 0.91208 0.73642 0.30986 0.0
O967 O 0.59678 0.38041 0.32387 0.0
O968 O 0.67589 0.43862 0.34719 0.0
O969 O 0.8325 0.5726 0.34469 0.0
O970 O 0.76793 0.54683 0.36943 0.0
O971 O 0.55701 0.5471 0.33086 0.0
O972 O 0.65955 0.60767 0.34637 0.0
O973 O 0.72431 0.60654 0.31129 0.0
O974 O 0.61061 0.56371 0.30587 0.0
O975 O 0.46559 0.43499 0.30578 0.0
O976 O 0.5385 0.43275 0.28616 0.0
O977 O 0.75397 0.51656 0.31438 0.0
O978 O 0.65189 0.46162 0.29807 0.0
C979 C 0.6342 0.37936 0.33819 0.0
C980 C 0.59899 0.60031 0.34152 0.0
C981 C 0.88893 0.6188 0.37463 0.0
C982 C 0.96942 0.6588 0.40214 0.0
C983 C 0.98032 0.73559 0.37633 0.0
C984 C 0.928 0.68311 0.36639 0.0
C985 C 0.99985 0.72402 0.39419 0.0
C986 C 0.91187 0.60591 0.39254 0.0
C987 C 0.82923 0.56585 0.36337 0.0
C988 C 0.89052 0.83938 0.34772 0.0
C989 C 0.85266 0.82886 0.36453 0.0
H990 H 0.96116 0.8424 0.3161 0.0
C991 C 0.67334 0.60738 0.30183 0.0
C992 C 0.71815 0.48413 0.29921 0.0
C993 C 0.46736 0.47251 0.27394 0.0
C994 C 0.41208 0.53861 0.26805 0.0
C995 C 0.43825 0.48683 0.24131 0.0
C996 C 0.4645 0.4583 0.25419 0.0
C997 C 0.41021 0.52536 0.24826 0.0
C998 C 0.44692 0.51798 0.28045 0.0
C999 C 0.48138 0.43239 0.28789 0.0
H1000 H 1.00776 0.78511 0.36977 0.0
H1001 H 0.92021 0.69304 0.35184 0.0
H1002 H 1.04247 0.76553 0.40127 0.0
H1003 H 0.88691 0.55546 0.39858 0.0
H1004 H 0.43562 0.47542 0.22611 0.0
H1005 H 0.48068 0.42373 0.24885 0.0
H1006 H 0.38358 0.54119 0.23845 0.0
H1007 H 0.44799 0.52872 0.2957 0.0
C1008 C 1.05014 0.64889 0.26695 0.0
C1009 C 1.07531 0.66112 0.24775 0.0
C1010 C 0.18513 0.75235 0.25976 0.0
C1011 C 0.16096 0.73915 0.27906 0.0
N1012 N 1.06629 0.68273 0.30069 0.0
N1013 N 0.15828 0.73861 0.22562 0.0
C1014 C 0.09202 0.68976 0.28249 0.0
C1015 C 0.14056 0.71689 0.24413 0.0
N1016 N 0.98635 0.5972 0.27036 0.0
N1017 N 0.2511 0.7991 0.25635 0.0
H1018 H 0.12629 0.71448 0.21409 0.0
H1019 H 0.20125 0.78344 0.22181 0.0
H1020 H 0.28479 0.82634 0.26732 0.0
H1021 H 0.27387 0.80751 0.24287 0.0
H1022 H 0.96612 0.57992 0.28399 0.0
H1023 H 0.95382 0.56957 0.25927 0.0
H1024 H 1.01515 0.6546 0.30404 0.0
H1025 H 0.09627 0.70735 0.31259 0.0
C1026 C 0.47258 0.06366 0.45029 0.0
C1027 C 0.48629 0.13091 0.44647 0.0
C1028 C 0.48115 0.1069 0.41158 0.0
C1029 C 0.47488 1.04252 0.41536 0.0
N1030 N 0.46465 0.95918 0.43842 0.0
N1031 N 0.50787 0.21809 0.42339 0.0
C1032 C 0.47017 1.02073 0.43479 0.0
C1033 C 0.49188 0.15282 0.42705 0.0
N1034 N 0.46034 1.04035 0.46884 0.0
N1035 N 0.47394 0.12298 0.39312 0.0
H1036 H 0.51603 0.25271 0.43431 0.0
H1037 H 0.5181 0.23956 0.40971 0.0
H1038 H 0.46634 0.09064 0.38167 0.0
H1039 H 0.47008 0.16523 0.3893 0.0
H1040 H 0.44168 0.98999 0.47264 0.0
H1041 H 0.46639 0.07141 0.48057 0.0
H1042 H 0.46823 0.94215 0.45205 0.0
H1043 H 0.45906 0.9257 0.42747 0.0
C1044 C 0.44369 0.42604 0.61465 0.0
C1045 C 0.39443 0.44613 0.61091 0.0
C1046 C 0.4204 0.45069 0.57619 0.0
C1047 C 0.47325 0.43613 0.58019 0.0
N1048 N 0.51331 0.38143 0.60178 0.0
N1049 N 0.33654 0.47923 0.58807 0.0
C1050 C 0.47888 0.4158 0.59905 0.0
C1051 C 0.38295 0.45881 0.59161 0.0
N1052 N 0.45802 0.41826 0.63328 0.0
N1053 N 0.4019 0.45008 0.55749 0.0
H1054 H 0.30821 0.48515 0.59896 0.0
H1055 H 0.32899 0.49451 0.57462 0.0
H1056 H 0.42627 0.44057 0.54621 0.0
H1057 H 0.35911 0.45224 0.55321 0.0
H1058 H 0.49798 0.4105 0.63716 0.0
H1059 H 0.43389 0.42606 0.645 0.0
H1060 H 0.5148 0.35957 0.61482 0.0
H1061 H 0.53439 0.36848 0.59035 0.0
C1062 C 1.03126 0.39785 0.74602 0.0
C1063 C 0.09508 0.45672 0.74879 0.0
C1064 C 1.08012 0.43851 0.78406 0.0
C1065 C 1.01428 0.38199 0.78128 0.0
N1066 N 0.92539 0.30999 0.7597 0.0
N1067 N 0.18534 0.52696 0.77009 0.0
C1068 C 0.98952 0.36226 0.76225 0.0
C1069 C 0.12099 0.47497 0.76777 0.0
N1070 N 1.01228 0.37394 0.72777 0.0
N1071 N 0.1029 0.45748 0.80248 0.0
H1072 H 0.21636 0.55195 0.75843 0.0
H1073 H 0.20983 0.5442 0.78318 0.0
H1074 H 1.07247 0.43599 0.81457 0.0
H1075 H 0.15084 0.49552 0.80616 0.0
H1076 H 0.9706 0.32758 0.72446 0.0
H1077 H 1.04153 0.39896 0.71579 0.0
H1078 H 0.90093 0.29684 0.74647 0.0
H1079 H 0.89447 0.28211 0.77115 0.0
C1080 C 0.71606 0.08603 0.92869 0.0
C1081 C 0.67545 1.05286 0.91227 0.0
C1082 C 0.64218 0.94335 0.92895 0.0
C1083 C 0.67534 0.97694 0.94603 0.0
N1084 N 0.72965 0.08224 0.96329 0.0
N1085 N 0.58322 0.94555 0.90064 0.0
C1086 C 0.70824 1.04891 0.94617 0.0
C1087 C 0.63361 0.98042 0.91355 0.0
N1088 N 0.76176 0.15328 0.92803 0.0
N1089 N 0.62031 0.87595 0.92696 0.0
H1090 H 0.57302 0.96682 0.88889 0.0
H1091 H 0.54739 0.89493 0.90251 0.0
H1092 H 0.62653 0.84702 0.93758 0.0
H1093 H 0.60203 0.8503 0.91402 0.0
H1094 H 0.79745 0.17795 0.93876 0.0
H1095 H 0.76717 0.18399 0.91635 0.0
H1096 H 0.74773 0.13393 0.96474 0.0
H1097 H 0.72203 0.05704 0.97641 0.0
C1098 C 0.7511 0.62029 0.09666 0.0
C1099 C 0.75661 0.65833 0.11327 0.0
C1100 C 0.68116 0.69435 0.09742 0.0
C1101 C 0.66849 0.64897 0.08173 0.0
N1102 N 0.67938 0.55155 0.07135 0.0
N1103 N 0.71352 0.72001 0.13105 0.0
C1104 C 0.69941 0.60664 0.08286 0.0
C1105 C 0.71779 0.69212 0.11406 0.0
N1106 N 0.79685 0.59877 0.09342 0.0
N1107 N 0.65769 0.73926 0.09687 0.0
H1108 H 0.7375 0.71745 0.14357 0.0
H1109 H 0.68052 0.73893 0.13326 0.0
H1110 H 0.62677 0.74022 0.08603 0.0
H1111 H 0.6722 0.77844 0.10672 0.0
H1112 H 0.79916 0.57673 0.08049 0.0
H1113 H 0.83624 0.60833 0.10284 0.0
H1114 H 0.6951 0.51598 0.07359 0.0
H1115 H 0.64341 0.53707 0.06072 0.0
C1116 C 0.47205 0.08615 0.6027 0.0
C1117 C 0.48142 1.05163 0.61862 0.0
C1118 C 0.40042 0.94379 0.60263 0.0
C1119 C 0.4005 0.97796 0.58564 0.0
N1120 N 0.44982 0.08367 0.5684 0.0
N1121 N 0.4651 0.9418 0.6294 0.0
C1122 C 0.44018 1.04981 0.5854 0.0
C1123 C 0.44905 0.97896 0.61729 0.0
N1124 N 0.49367 0.15366 0.60372 0.0
N1125 N 0.35224 0.8779 0.60536 0.0
H1126 H 0.50007 0.96177 0.64028 0.0
H1127 H 0.44787 0.89046 0.62733 0.0
H1128 H 0.3149 0.85025 0.59526 0.0
H1129 H 0.34569 0.85303 0.61849 0.0
H1130 H 0.48175 0.17929 0.59335 0.0
H1131 H 0.51949 0.18356 0.61542 0.0
H1132 H 0.48363 0.1351 0.56686 0.0
H1133 H 0.42973 0.05896 0.55541 0.0
C1134 C 0.55253 0.42471 0.76156 0.0
C1135 C 0.49238 0.36978 0.75475 0.0
C1136 C 0.42963 0.41129 0.77493 0.0
C1137 C 0.49031 0.45671 0.7848 0.0
N1138 N 0.60689 0.48301 0.7902 0.0
N1139 N 0.37091 0.30811 0.75595 0.0
C1140 C 0.55116 0.45751 0.77873 0.0
C1141 C 0.42992 0.36222 0.76179 0.0
N1142 N 0.61241 0.44421 0.75237 0.0
N1143 N 0.37269 0.41638 0.77727 0.0
H1144 H 0.36979 0.27434 0.74559 0.0
H1145 H 0.32419 0.29537 0.76205 0.0
H1146 H 0.37227 0.45527 0.78502 0.0
H1147 H 0.32818 0.38687 0.76974 0.0
H1148 H 0.65586 0.48889 0.75595 0.0
H1149 H 0.61696 0.42119 0.73996 0.0
H1150 H 0.6074 0.49861 0.80418 0.0
H1151 H 0.649 0.4779 0.78697 0.0
C1152 C 1.06563 0.41868 0.93797 0.0
C1153 C 0.0865 0.47353 0.9512 0.0
C1154 C 0.19486 0.5331 0.93263 0.0
C1155 C 0.17812 0.47462 0.92175 0.0
N1156 N 0.09895 0.35817 0.91537 0.0
N1157 N 0.18253 0.57993 0.96197 0.0
C1158 C 0.11384 0.41636 0.92484 0.0
C1159 C 0.15373 0.53021 0.94852 0.0
N1160 N 0.99912 0.3706 0.93699 0.0
N1161 N 0.25267 0.59194 0.92845 0.0
H1162 H 0.2338 0.61535 0.96232 0.0
H1163 H 0.15919 0.58184 0.97435 0.0
H1164 H 0.28813 0.59579 0.91829 0.0
H1165 H 0.26271 0.63867 0.93387 0.0
H1166 H 0.97988 0.33307 0.92652 0.0
H1167 H 0.9618 0.3726 0.9452 0.0
H1168 H 1.05679 0.31181 0.91858 0.0
H1169 H 0.13122 0.356 0.90502 0.0
C1170 C 0.74022 0.11845 0.12125 0.0
C1171 C 0.68871 1.05069 0.11835 0.0
C1172 C 0.71524 0.06395 0.08366 0.0
C1173 C 0.76252 0.13381 0.0862 0.0
N1174 N 0.81914 0.22824 0.10765 0.0
N1175 N 0.65298 0.95312 0.09839 0.0
C1176 C 0.77474 0.16119 0.10511 0.0
C1177 C 0.68336 1.02158 0.09999 0.0
N1178 N 0.76134 0.13916 0.13961 0.0
N1179 N 0.69905 1.03831 0.06545 0.0
H1180 H 0.63337 0.92122 0.11026 0.0
H1181 H 0.6536 0.92847 0.08583 0.0
H1182 H 0.72006 0.06791 0.05318 0.0
H1183 H 0.66005 0.9898 0.0625 0.0
H1184 H 0.80391 0.18471 0.14304 0.0
H1185 H 0.74014 0.10694 0.15137 0.0
H1186 H 0.82599 0.253 0.12072 0.0
H1187 H 0.84611 0.26041 0.09632 0.0
C1188 C 0.6473 0.62525 0.26694 0.0
C1189 C 0.68217 0.65402 0.28461 0.0
C1190 C 0.70541 0.76593 0.27246 0.0
C1191 C 0.67208 0.73764 0.25483 0.0
N1192 N 0.60686 0.63892 0.23558 0.0
N1193 N 0.76589 0.75614 0.29955 0.0
C1194 C 0.64149 0.66673 0.25221 0.0
C1195 C 0.71691 0.72561 0.28612 0.0
N1196 N 0.62606 0.55887 0.26341 0.0
N1197 N 0.72531 0.83196 0.27638 0.0
H1198 H 0.77857 0.72811 0.30856 0.0
H1199 H 0.79845 0.80808 0.30016 0.0
H1200 H 0.71656 0.86249 0.26689 0.0
H1201 H 0.74362 0.85392 0.28978 0.0
H1202 H 0.6079 0.53498 0.25028 0.0
H1203 H 0.63499 0.52926 0.27302 0.0
H1204 H 0.57714 0.58743 0.23321 0.0
H1205 H 0.60451 0.66754 0.2242 0.0
C1206 C 0.11748 0.68271 0.43324 0.0
C1207 C 0.08917 0.66401 0.45184 0.0
C1208 C 0.97866 0.64096 0.43829 0.0
C1209 C 1.0055 0.64971 0.4193 0.0
N1210 N 0.09913 0.66761 0.39893 0.0
N1211 N 1.0003 0.65113 0.47292 0.0
C1212 C 1.07454 0.66715 0.41693 0.0
C1213 C 1.02124 0.64946 0.45461 0.0
N1214 N 0.18566 0.72118 0.4312 0.0
N1215 N 0.9126 0.62443 0.44067 0.0
H1216 H 1.03226 0.66155 0.4847 0.0
H1217 H 0.9543 0.64795 0.47642 0.0
H1218 H 0.88122 0.61954 0.42913 0.0
H1219 H 0.88762 0.61232 0.45385 0.0
H1220 H 0.20891 0.74252 0.41811 0.0
H1221 H 0.21806 0.73807 0.44298 0.0
H1222 H 0.14727 0.67399 0.39656 0.0
H1223 H 1.06888 0.65417 0.38665 0.0
C1224 C 0.62082 0.72699 0.34061 0.0
C1225 C 0.57963 0.65772 0.34653 0.0
C1226 C 0.50393 0.69852 0.3618 0.0
C1227 C 0.54153 0.76565 0.35393 0.0
N1228 N 0.62853 0.83433 0.33151 0.0
N1229 N 0.47468 0.57913 0.36169 0.0
C1230 C 0.59788 0.77664 0.34219 0.0
C1231 C 0.51873 0.64423 0.35661 0.0
N1232 N 0.68378 0.74714 0.33362 0.0
N1233 N 0.45542 0.68686 0.37516 0.0
H1234 H 0.48528 0.53985 0.35961 0.0
H1235 H 0.42623 0.56357 0.36692 0.0
H1236 H 0.44429 0.72436 0.3792 0.0
H1237 H 0.4307 0.64271 0.38326 0.0
H1238 H 0.71993 0.79771 0.33169 0.0
H1239 H 0.70168 0.71364 0.33148 0.0
H1240 H 0.6658 0.8441 0.32126 0.0
H1241 H 0.6098 0.86787 0.33116 0.0
C1242 C 0.87758 0.52153 0.53793 0.0
C1243 C 0.82738 0.51021 0.52348 0.0
C1244 C 0.91714 0.52215 0.49944 0.0
C1245 C 0.97078 0.54536 0.51358 0.0
N1246 N 0.99494 0.55943 0.54737 0.0
N1247 N 0.80788 0.50886 0.48943 0.0
C1248 C 0.94852 0.54343 0.53307 0.0
C1249 C 0.84975 0.51253 0.50401 0.0
N1250 N 0.85624 0.50611 0.55659 0.0
N1251 N 0.9291 0.50719 0.48134 0.0
H1252 H 0.76004 0.50298 0.49182 0.0
H1253 H 0.82274 0.51748 0.47504 0.0
H1254 H 0.97612 0.51573 0.47671 0.0
H1255 H 0.89099 0.48168 0.47126 0.0
H1256 H 0.88648 0.50628 0.56785 0.0
H1257 H 0.80565 0.48513 0.56057 0.0
H1258 H 0.98695 0.56849 0.56155 0.0
H1259 H 1.0432 0.56659 0.54478 0.0
C1260 C 0.48888 0.89021 0.68826 0.0
C1261 C 0.47702 0.93951 0.67851 0.0
C1262 C 0.35565 0.84387 0.6748 0.0
C1263 C 0.36596 0.79637 0.6859 0.0
N1264 N 0.44471 0.78248 0.70565 0.0
N1265 N 0.39061 0.9592 0.66462 0.0
C1266 C 0.43358 0.82213 0.69312 0.0
C1267 C 0.40778 0.91488 0.67264 0.0
N1268 N 0.55365 0.90848 0.69331 0.0
N1269 N 0.29601 0.81999 0.66516 0.0
H1270 H 0.42582 1.00797 0.66053 0.0
H1271 H 0.34084 0.94866 0.66288 0.0
H1272 H 0.25942 0.76922 0.66556 0.0
H1273 H 0.28599 0.84788 0.65508 0.0
H1274 H 0.56853 0.87432 0.69807 0.0
H1275 H 0.59354 0.95762 0.69177 0.0
H1276 H 0.48898 0.79892 0.71353 0.0
H1277 H 0.40688 0.7341 0.70923 0.0
C1278 C 0.55554 0.38623 0.83369 0.0
C1279 C 0.58588 0.45068 0.84335 0.0
C1280 C 0.64929 0.40446 0.86274 0.0
C1281 C 0.62579 0.34413 0.85132 0.0
N1282 N 0.56469 0.28861 0.82275 0.0
N1283 N 0.67164 0.52098 0.86603 0.0
C1284 C 0.58161 0.33887 0.83585 0.0
C1285 C 0.63611 0.45955 0.85738 0.0
N1286 N 0.4995 0.36808 0.82274 0.0
N1287 N 0.68278 0.40882 0.87941 0.0
H1288 H 0.66183 0.56054 0.8635 0.0
H1289 H 0.71396 0.53415 0.87457 0.0
H1290 H 0.69313 0.37111 0.88386 0.0
H1291 H 0.69477 0.44656 0.88961 0.0
H1292 H 0.47083 0.32005 0.81689 0.0
H1293 H 0.47731 0.39839 0.82132 0.0
H1294 H 0.53817 0.28465 0.81014 0.0
H1295 H 0.58421 0.25572 0.82349 0.0
C1296 C 0.21179 0.52919 1.003 0.0
C1297 C 0.17862 0.56259 1.01195 0.0
C1298 C 0.28705 0.62471 0.03147 0.0
C1299 C 0.32311 0.59809 0.02068 0.0
N1300 N 0.31621 0.52985 0.99358 0.0
N1301 N 0.19447 0.65105 0.03376 0.0
C1302 C 0.28399 0.55195 1.00572 0.0
C1303 C 0.2198 0.6134 0.02572 0.0
N1304 N 0.17403 0.4737 0.99198 0.0
N1305 N 0.31532 0.65822 0.04813 0.0
H1306 H 0.14604 0.64274 0.03072 0.0
H1307 H 0.22321 0.69341 0.04223 0.0
H1308 H 0.36126 0.6646 0.05315 0.0
H1309 H 0.2903 0.67323 0.05785 0.0
H1310 H 0.19146 0.44185 0.98695 0.0
H1311 H 0.12318 0.45609 0.98928 0.0
H1312 H 0.29433 0.50216 0.98115 0.0
H1313 H 0.36749 0.5457 0.99492 0.0
C1314 C 0.76444 0.26482 0.20299 0.0
C1315 C 0.79995 0.31659 0.18857 0.0
C1316 C 0.71916 0.22885 0.16469 0.0
C1317 C 0.68895 0.17491 0.1788 0.0
N1318 N 0.67138 0.15375 0.21263 0.0
N1319 N 0.81177 0.33945 0.15461 0.0
C1320 C 0.70968 0.19653 0.19825 0.0
C1321 C 0.77643 0.29609 0.16922 0.0
N1322 N 0.78237 0.28123 0.22176 0.0
N1323 N 0.69196 0.21722 0.14667 0.0
H1324 H 0.85319 0.38701 0.15696 0.0
H1325 H 0.8039 0.32655 0.14011 0.0
H1326 H 0.65454 0.17022 0.14205 0.0
H1327 H 0.70314 0.25531 0.13663 0.0
H1328 H 0.7703 0.24598 0.23276 0.0
H1329 H 0.81041 0.33101 0.22632 0.0
H1330 H 0.67643 0.1662 0.22715 0.0
H1331 H 0.62955 0.10683 0.20985 0.0
C1332 C 0.40749 0.5816 0.49613 0.0
C1333 C 0.37099 0.59749 0.51043 0.0
C1334 C 0.44904 0.58635 0.53475 0.0
C1335 C 0.48051 0.56335 0.52068 0.0
N1336 N 0.50142 0.56268 0.48695 0.0
N1337 N 0.35618 0.60628 0.54434 0.0
C1338 C 0.46179 0.5666 0.50113 0.0
C1339 C 0.39262 0.59837 0.52992 0.0
N1340 N 0.39075 0.58139 0.47725 0.0
N1341 N 0.47407 0.599 0.55303 0.0
H1342 H 0.31539 0.61409 0.54178 0.0
H1343 H 0.36259 0.59992 0.55888 0.0
H1344 H 0.51042 0.58744 0.55786 0.0
H1345 H 0.46222 0.62529 0.56315 0.0
H1346 H 0.40398 0.55883 0.4663 0.0
H1347 H 0.3622 0.60304 0.47249 0.0
H1348 H 0.49797 0.57195 0.47245 0.0
H1349 H 0.54274 0.55611 0.48994 0.0
C1350 C 0.8489 0.35767 0.69746 0.0
C1351 C 0.82763 0.33807 0.67789 0.0
C1352 C 0.9463 0.43211 0.66861 0.0
C1353 C 0.96845 0.45019 0.68821 0.0
N1354 N 0.92753 0.43834 0.72087 0.0
N1355 N 0.86183 0.36114 0.64468 0.0
C1356 C 0.91557 0.4153 0.70238 0.0
C1357 C 0.87844 0.37692 0.66359 0.0
N1358 N 0.80702 0.31801 0.71181 0.0
N1359 N 0.98844 0.47263 0.65445 0.0
H1360 H 0.81223 0.33084 0.64009 0.0
H1361 H 0.89695 0.37646 0.63353 0.0
H1362 H 1.03551 0.51366 0.65746 0.0
H1363 H 0.97549 0.46989 0.64 0.0
H1364 H 0.82132 0.32224 0.7262 0.0
H1365 H 0.75963 0.27666 0.70914 0.0
H1366 H 0.8899 0.42294 0.73131 0.0
H1367 H 0.97404 0.47672 0.72552 0.0
C1368 C 0.61589 0.91804 0.85861 0.0
C1369 C 0.58305 0.95182 0.84979 0.0
C1370 C 0.51757 0.84272 0.83098 0.0
C1371 C 0.54174 0.80558 0.84223 0.0
N1372 N 0.60619 0.81191 0.8702 0.0
N1373 N 0.49269 0.93591 0.82859 0.0
C1374 C 0.58862 0.84485 0.85701 0.0
C1375 C 0.53042 0.91045 0.83649 0.0
N1376 N 0.67431 0.95557 0.86855 0.0
N1377 N 0.48501 0.81511 0.81417 0.0
H1378 H 0.50158 0.98453 0.83151 0.0
H1379 H 0.4496 0.90685 0.82039 0.0
H1380 H 0.47893 0.76937 0.80915 0.0
H1381 H 0.47134 0.8409 0.80432 0.0
H1382 H 0.7045 0.93592 0.87347 0.0
H1383 H 0.69522 1.00738 0.87053 0.0
H1384 H 0.63654 0.83562 0.88208 0.0
H1385 H 0.58345 0.75942 0.87035 0.0
C1386 C 0.65929 0.48962 1.00955 0.0
C1387 C 0.67089 0.54618 0.0214 0.0
C1388 C 0.78856 0.56102 0.02658 0.0
C1389 C 0.77913 0.50846 1.01341 0.0
N1390 N 0.70638 0.43638 0.98855 0.0
N1391 N 0.75656 0.64257 0.03841 0.0
C1392 C 0.71434 0.4764 1.004 0.0
C1393 C 0.73866 0.5838 0.0289 0.0
N1394 N 0.59532 0.4484 1.00306 0.0
N1395 N 0.84555 0.58873 0.03757 0.0
H1396 H 0.72214 0.65866 0.04172 0.0
H1397 H 0.8062 0.6774 0.04196 0.0
H1398 H 0.88033 0.5715 0.03694 0.0
H1399 H 0.85473 0.62288 0.04867 0.0
H1400 H 0.58095 0.40257 0.99623 0.0
H1401 H 0.55557 0.45792 1.00573 0.0
H1402 H 0.66414 0.4165 0.97963 0.0
H1403 H 0.74573 0.42953 0.98349 0.0
C1404 C 0.31915 0.75429 0.19615 0.0
C1405 C 0.33983 0.77665 0.17667 0.0
C1406 C 0.22036 0.68477 0.1673 0.0
C1407 C 0.19871 0.66481 0.18684 0.0
N1408 N 0.24066 0.67085 0.21912 0.0
N1409 N 0.30478 0.75713 0.14347 0.0
C1410 C 0.25225 0.69672 0.2009 0.0
C1411 C 0.28843 0.73992 0.16234 0.0
N1412 N 0.3619 0.79107 0.21065 0.0
N1413 N 0.17781 0.6456 0.15307 0.0
H1414 H 0.35445 0.78585 0.13871 0.0
H1415 H 0.26934 0.74394 0.13251 0.0
H1416 H 0.13084 0.60397 0.15601 0.0
H1417 H 0.19044 0.6499 0.13855 0.0
H1418 H 0.34892 0.78365 0.22517 0.0
H1419 H 0.4089 0.83325 0.20819 0.0
H1420 H 0.2789 0.68286 0.22912 0.0
H1421 H 0.19383 0.63334 0.22391 0.0
C1422 C 0.62356 0.28454 0.36366 0.0
C1423 C 0.62486 0.30632 0.34408 0.0
C1424 C 0.59347 0.1849 0.33488 0.0
C1425 C 0.59084 0.16298 0.35444 0.0
N1426 N 0.62478 0.20399 0.38686 0.0
N1427 N 0.61009 0.2705 0.31085 0.0
C1428 C 0.61249 0.21662 0.36851 0.0
C1429 C 0.60941 0.25416 0.32981 0.0
N1430 N 0.62797 0.32707 0.37814 0.0
N1431 N 0.58756 0.14084 0.3207 0.0
H1432 H 0.63421 0.31996 0.30579 0.0
H1433 H 0.58608 0.23515 0.30002 0.0
H1434 H 0.57875 0.09237 0.32367 0.0
H1435 H 0.5968 0.15304 0.30617 0.0
H1436 H 0.62013 0.31325 0.3926 0.0
H1437 H 0.63309 0.37449 0.3757 0.0
H1438 H 0.64987 0.2416 0.39707 0.0
H1439 H 0.6148 0.15663 0.39158 0.0
C1440 C 0.30857 0.69308 0.42902 0.0
C1441 C 0.33318 0.71219 0.44826 0.0
C1442 C 0.44452 0.79288 0.43366 0.0
C1443 C 0.41537 0.78555 0.41495 0.0
N1444 N 0.31947 0.71541 0.39473 0.0
N1445 N 0.42906 0.78161 0.46837 0.0
C1446 C 0.34775 0.73125 0.41265 0.0
C1447 C 0.40224 0.76302 0.45036 0.0
N1448 N 0.24686 0.63802 0.42602 0.0
N1449 N 0.51298 0.82203 0.43543 0.0
H1450 H 0.40417 0.7555 0.4808 0.0
H1451 H 0.47527 0.82477 0.47092 0.0
H1452 H 0.54434 0.83051 0.4236 0.0
H1453 H 0.53734 0.82587 0.44844 0.0
H1454 H 0.23268 0.61253 0.41294 0.0
H1455 H 0.2093 0.61857 0.43643 0.0
H1456 H 0.26755 0.68832 0.39236 0.0
H1457 H 0.3476 0.72848 0.38206 0.0
C1458 C 0.67128 0.40269 0.60409 0.0
C1459 C 0.66803 0.38185 0.58443 0.0
C1460 C 0.66023 0.27572 0.597 0.0
C1461 C 0.668 0.29882 0.61647 0.0
N1462 N 0.70418 0.39569 0.63695 0.0
N1463 N 0.68412 0.30681 0.56327 0.0
C1464 C 0.68119 0.36599 0.61944 0.0
C1465 C 0.67015 0.32093 0.58126 0.0
N1466 N 0.65911 0.45396 0.60866 0.0
N1467 N 0.63939 0.20953 0.59324 0.0
H1468 H 0.69673 0.3405 0.55178 0.0
H1469 H 0.69186 0.26607 0.56046 0.0
H1470 H 0.62787 0.17356 0.60397 0.0
H1471 H 0.62546 0.18891 0.5795 0.0
H1472 H 0.65464 0.46633 0.62283 0.0
H1473 H 0.64205 0.47601 0.59868 0.0
H1474 H 0.72091 0.4467 0.63942 0.0
H1475 H 0.71417 0.37152 0.64824 0.0
C1476 C 0.37531 0.66615 0.78101 0.0
C1477 C 0.42128 0.6401 0.77988 0.0
C1478 C 0.39867 0.62665 0.74442 0.0
C1479 C 0.34886 0.64761 0.74605 0.0
N1480 N 0.3277 0.72581 0.76394 0.0
N1481 N 0.46795 0.5863 0.7597 0.0
C1482 C 0.34747 0.67804 0.76382 0.0
C1483 C 0.43106 0.61874 0.7613 0.0
N1484 N 0.35613 0.67872 0.79847 0.0
N1485 N 0.42115 0.62127 0.72658 0.0
H1486 H 0.49512 0.58143 0.77095 0.0
H1487 H 0.46703 0.55893 0.74757 0.0
H1488 H 0.40639 0.6348 0.71393 0.0
H1489 H 0.4622 0.61356 0.72434 0.0
H1490 H 0.31672 0.68955 0.79994 0.0
H1491 H 0.37552 0.67375 0.81155 0.0
H1492 H 0.33144 0.75432 0.77609 0.0
H1493 H 0.31899 0.74498 0.75129 0.0
C1494 C 0.7255 0.28186 0.93463 0.0
C1495 C 0.74696 0.30455 0.91535 0.0
C1496 C 0.84833 0.40369 0.92922 0.0
C1497 C 0.8233 0.38483 0.94843 0.0
N1498 N 0.72933 0.30868 0.96854 0.0
N1499 N 0.82389 0.39722 0.89506 0.0
C1500 C 0.75917 0.32502 0.95078 0.0
C1501 C 0.80671 0.36851 0.91294 0.0
N1502 N 0.67617 0.21676 0.93788 0.0
N1503 N 0.91405 0.45192 0.92623 0.0
H1504 H 0.79589 0.37458 0.88273 0.0
H1505 H 0.86205 0.44678 0.89279 0.0
H1506 H 0.94784 0.4772 0.9373 0.0
H1507 H 0.93737 0.46136 0.91278 0.0
H1508 H 0.66418 0.19479 0.95152 0.0
H1509 H 0.65321 0.18157 0.92698 0.0
H1510 H 0.67924 0.27154 0.97066 0.0
H1511 H 0.75193 0.33574 0.98098 0.0
C1512 C 0.49271 0.82846 0.09648 0.0
C1513 C 0.49212 0.80823 0.11605 0.0
C1514 C 0.4914 0.70556 0.10349 0.0
C1515 C 0.48702 0.72355 0.08398 0.0
N1516 N 0.46531 0.79575 0.06307 0.0
N1517 N 0.46856 0.71504 0.13719 0.0
C1518 C 0.48143 0.78263 0.08092 0.0
C1519 C 0.48442 0.74287 0.1192 0.0
N1520 N 0.50999 0.89353 0.09229 0.0
N1521 N 0.50727 0.6561 0.10731 0.0
H1522 H 0.45936 0.73875 0.14874 0.0
H1523 H 0.45643 0.66529 0.14001 0.0
H1524 H 0.51798 0.63071 0.09664 0.0
H1525 H 0.51848 0.64654 0.12112 0.0
H1526 H 0.5186 0.91253 0.07829 0.0
H1527 H 0.52683 0.93115 0.10262 0.0
H1528 H 0.45237 0.8332 0.06056 0.0
H1529 H 0.4579 0.76519 0.05115 0.0
C1530 C 0.78509 0.4333 0.2823 0.0
C1531 C 0.75619 0.47662 0.28194 0.0
C1532 C 0.78371 0.49496 0.24742 0.0
C1533 C 0.82485 0.46386 0.24807 0.0
N1534 N 0.85498 0.39274 0.26701 0.0
N1535 N 0.76072 0.5714 0.26515 0.0
C1536 C 0.82284 0.42989 0.26582 0.0
C1537 C 0.76427 0.51356 0.26477 0.0
N1538 N 0.77565 0.39454 0.29828 0.0
N1539 N 0.75984 0.50451 0.23038 0.0
H1540 H 0.75785 0.59255 0.2781 0.0
H1541 H 0.77074 0.60219 0.25304 0.0
H1542 H 0.76303 0.48215 0.21761 0.0
H1543 H 0.72803 0.52554 0.22975 0.0
H1544 H 0.78793 0.35609 0.29899 0.0
H1545 H 0.75182 0.39854 0.31066 0.0
H1546 H 0.86619 0.37747 0.27998 0.0
H1547 H 0.86847 0.37503 0.25496 0.0
C1548 C 0.80686 0.36047 0.43544 0.0
C1549 C 0.86827 0.35946 0.43266 0.0
C1550 C 0.81539 0.24282 0.44295 0.0
C1551 C 0.75178 0.2398 0.44296 0.0
N1552 N 0.68432 0.29313 0.43713 0.0
N1553 N 0.92347 0.29288 0.42732 0.0
C1554 C 0.74644 0.29802 0.43865 0.0
C1555 C 0.87006 0.29833 0.43434 0.0
N1556 N 0.80655 0.42035 0.43531 0.0
N1557 N 0.8232 0.19192 0.45084 0.0
H1558 H 0.96338 0.33185 0.41979 0.0
H1559 H 0.92395 0.24725 0.427 0.0
H1560 H 0.78387 0.15037 0.45773 0.0
H1561 H 0.87029 0.19491 0.45231 0.0
H1562 H 0.76426 0.4245 0.439 0.0
H1563 H 0.85009 0.46636 0.43268 0.0
H1564 H 0.67711 0.33249 0.43225 0.0
H1565 H 0.63985 0.24791 0.43968 0.0
C1566 C 0.49494 0.79225 0.59614 0.0
C1567 C 0.55989 0.85008 0.59437 0.0
C1568 C 0.61257 0.78766 0.60664 0.0
C1569 C 0.54982 0.72741 0.60591 0.0
N1570 N 0.43104 0.66957 0.59855 0.0
N1571 N 0.68044 0.89457 0.59117 0.0
C1572 C 0.49046 0.72862 0.60027 0.0
C1573 C 0.61871 0.84489 0.59737 0.0
N1574 N 0.43851 0.79838 0.59413 0.0
N1575 N 0.66667 0.78969 0.61587 0.0
H1576 H 0.68642 0.9364 0.58334 0.0
H1577 H 0.72394 0.89008 0.59191 0.0
H1578 H 0.66345 0.74836 0.62335 0.0
H1579 H 0.71215 0.83437 0.6178 0.0
H1580 H 0.38989 0.75936 0.59703 0.0
H1581 H 0.44127 0.84404 0.59035 0.0
H1582 H 0.38739 0.66665 0.59277 0.0
H1583 H 0.42681 0.62299 0.60209 0.0
C1584 C 0.89051 0.62414 0.798 0.0
C1585 C 0.83915 0.57747 0.78551 0.0
C1586 C 0.89329 0.50765 0.78517 0.0
C1587 C 0.94542 0.55649 0.79675 0.0
N1588 N 0.97508 0.63966 0.82156 0.0
N1589 N 0.78011 0.46438 0.7726 0.0
C1590 C 0.93604 0.60596 0.80615 0.0
C1591 C 0.8362 0.51513 0.78104 0.0
N1592 N 0.90108 0.68829 0.80047 0.0
N1593 N 0.90195 0.45822 0.7768 0.0
H1594 H 0.73757 0.46883 0.7696 0.0
H1595 H 0.77363 0.4163 0.77027 0.0
H1596 H 0.94431 0.4533 0.7798 0.0
H1597 H 0.86936 0.42485 0.76653 0.0
H1598 H 0.94192 0.72497 0.80818 0.0
H1599 H 0.87483 0.7079 0.793 0.0
H1600 H 0.96732 0.67409 0.82955 0.0
H1601 H 1.00946 0.62701 0.82756 0.0
C1602 C 0.28316 0.84119 0.92627 0.0
C1603 C 0.33852 0.83439 0.91977 0.0
C1604 C 0.26115 0.72816 0.90371 0.0
C1605 C 0.20683 0.73741 0.9099 0.0
N1606 N 0.16868 0.81472 0.91987 0.0
N1607 N 0.38316 0.77777 0.90023 0.0
C1608 C 0.21903 0.79837 0.91869 0.0
C1609 C 0.32855 0.77973 0.90773 0.0
N1610 N 0.2918 0.88804 0.93993 0.0
N1611 N 0.24806 0.67032 0.89429 0.0
H1612 H 0.43257 0.81355 0.90372 0.0
H1613 H 0.37994 0.74269 0.89009 0.0
H1614 H 0.19905 0.63256 0.89115 0.0
H1615 H 0.28504 0.6585 0.89013 0.0
H1616 H 0.25152 0.89048 0.94634 0.0
H1617 H 0.3384 0.91974 0.9463 0.0
H1618 H 0.1766 0.86128 0.92484 0.0
H1619 H 0.12103 0.78455 0.91385 0.0
C1620 C 0.6609 0.33273 0.10163 0.0
C1621 C 0.60585 0.27334 0.09413 0.0
C1622 C 0.529 0.31541 0.10096 0.0
C1623 C 0.58407 0.37825 0.10648 0.0
N1624 N 0.70391 0.45022 0.11054 0.0
N1625 N 0.49352 0.21839 0.08067 0.0
C1626 C 0.65088 0.38827 0.10635 0.0
C1627 C 0.54218 0.26886 0.09153 0.0
N1628 N 0.72148 0.3352 0.10452 0.0
N1629 N 0.46404 0.29952 0.10523 0.0
H1630 H 0.50206 0.18318 0.07336 0.0
H1631 H 0.44773 0.21623 0.07735 0.0
H1632 H 0.45239 0.33119 0.11329 0.0
H1633 H 0.42275 0.25187 0.10273 0.0
H1634 H 0.76183 0.37455 0.11166 0.0
H1635 H 0.72997 0.29585 0.10036 0.0
H1636 H 0.75426 0.46236 0.10908 0.0
H1637 H 0.69688 0.49046 0.11459 0.0
C1638 C 0.3123 0.51237 0.28895 0.0
C1639 C 0.36451 0.55845 0.27647 0.0
C1640 C 0.31293 0.63084 0.27616 0.0
C1641 C 0.26046 0.58285 0.28793 0.0
N1642 N 0.22793 0.49807 0.31249 0.0
N1643 N 0.42489 0.66991 0.26252 0.0
C1644 C 0.2678 0.53178 0.29712 0.0
C1645 C 0.36872 0.62112 0.27162 0.0
N1646 N 0.3001 0.4476 0.2914 0.0
N1647 N 0.30703 0.68323 0.26871 0.0
H1648 H 0.46625 0.6635 0.25921 0.0
H1649 H 0.43268 0.71816 0.25962 0.0
H1650 H 0.26641 0.69041 0.27237 0.0
H1651 H 0.34086 0.71799 0.25888 0.0
H1652 H 0.25868 0.41131 0.29909 0.0
H1653 H 0.32545 0.42713 0.28388 0.0
H1654 H 0.23444 0.46273 0.32044 0.0
H1655 H 0.19398 0.51138 0.31848 0.0
loop_
_geom_bond_atom_site_label_1
_geom_bond_atom_site_label_2
_geom_bond_distance
_geom_bond_site_symmetry_2
_ccdc_geom_bond_type
C0 C2 1.422 . S
C0 C4 1.415 . S
C0 N6 1.369 . S
C1 C2 1.421 . S
C1 C3 1.417 . S
C1 C13 1.422 1_565 S
C2 C0 1.422 . S
C2 C1 1.421 . S
C2 N12 1.359 1_565 S
C3 C1 1.417 . S
C3 C5 1.329 . S
C3 H22 0.930 . S
C4 C0 1.415 . S
C4 C5 1.437 . S
C4 C8 1.413 . S
C5 C3 1.329 . S
C5 C4 1.437 . S
C5 H27 0.929 . S
N6 C0 1.369 . S
N6 C7 1.338 . S
N6 Gd11 2.622 1_565 S
C7 N6 1.338 . S
C7 C9 1.378 . S
C7 H19 0.929 . S
C8 C4 1.413 . S
C8 C9 1.348 . S
C8 H24 0.931 . S
C9 C7 1.378 . S
C9 C8 1.348 . S
C9 H25 0.930 . S
Gd10 N30 2.622 1_565 S
Gd10 N37 2.570 . S
Gd10 O44 2.353 . S
Gd10 O45 2.468 . S
Gd10 O46 2.427 . S
Gd10 O48 2.388 1_565 S
Gd10 O49 2.386 1_565 S
Gd10 O53 2.307 . S
Gd10 C63 2.805 . S
Gd11 N6 2.622 1_545 S
Gd11 N12 2.570 . S
Gd11 O43 2.386 1_545 S
Gd11 O47 2.307 . S
Gd11 O50 2.353 . S
Gd11 O51 2.468 . S
Gd11 O52 2.427 . S
Gd11 O54 2.388 1_545 S
Gd11 C75 2.805 . S
N12 C2 1.359 1_545 S
N12 Gd11 2.570 . S
N12 C14 1.343 . S
C13 C1 1.422 1_545 S
C13 C15 1.321 . S
C13 H21 0.931 . S
C14 N12 1.343 . S
C14 C15 1.390 . S
C14 H16 0.931 . S
C15 C13 1.321 . S
C15 C14 1.390 . S
C15 H17 0.930 . S
H16 C14 0.931 . S
H17 C15 0.930 . S
H18 C41 0.931 . S
H19 C7 0.929 . S
H20 C42 0.930 . S
H21 C13 0.931 . S
H22 C3 0.930 . S
H23 C32 0.929 . S
H24 C8 0.931 . S
H25 C9 0.930 . S
H26 C64 0.930 . S
H27 C5 0.929 . S
H28 C33 0.931 . S
H29 C34 0.930 . S
N30 Gd10 2.622 1_545 S
N30 C31 1.369 . S
N30 C32 1.338 . S
C31 N30 1.369 . S
C31 C35 1.415 . S
C31 C38 1.422 . S
C32 H23 0.929 . S
C32 N30 1.338 . S
C32 C34 1.378 . S
C33 H28 0.931 . S
C33 C34 1.348 . S
C33 C35 1.413 . S
C34 H29 0.930 . S
C34 C32 1.378 . S
C34 C33 1.348 . S
C35 C31 1.415 . S
C35 C33 1.413 . S
C35 C65 1.437 . S
H36 C65 0.929 . S
N37 Gd10 2.570 . S
N37 C38 1.359 1_565 S
N37 C41 1.343 . S
C38 C31 1.422 . S
C38 N37 1.359 1_545 S
C38 C40 1.421 . S
C39 C40 1.422 1_565 S
C39 C42 1.321 . S
C39 H66 0.931 . S
C40 C38 1.421 . S
C40 C39 1.422 1_545 S
C40 C64 1.417 . S
C41 H18 0.931 . S
C41 N37 1.343 . S
C41 C42 1.390 . S
C42 H20 0.930 . S
C42 C39 1.321 . S
C42 C41 1.390 . S
O43 Gd11 2.386 1_565 S
O43 C55 1.265 . S
O44 Gd10 2.353 . S
O44 C55 1.242 . S
O45 Gd10 2.468 . S
O45 C63 1.263 . S
O46 Gd10 2.427 . S
O46 C63 1.252 . S
O47 Gd11 2.307 . S
O47 C56 1.261 . S
O48 Gd10 2.388 1_545 S
O48 C56 1.252 . S
O49 Gd10 2.386 1_545 S
O49 C67 1.265 . S
O50 Gd11 2.353 . S
O50 C67 1.242 . S
O51 Gd11 2.468 . S
O51 C75 1.263 . S
O52 Gd11 2.427 . S
O52 C75 1.252 . S
O53 Gd10 2.307 . S
O53 C68 1.261 . S
O54 Gd11 2.388 1_565 S
O54 C68 1.252 . S
C55 O43 1.265 . S
C55 O44 1.242 . S
C56 O47 1.261 . S
C56 O48 1.252 . S
C57 C60 1.394 . S
C57 C62 1.370 . S
C57 C63 1.500 . S
C58 C61 1.383 . S
C58 C62 1.395 . S
C59 C60 1.396 . S
C59 C61 1.365 . S
C59 H76 0.929 . S
C60 C57 1.394 . S
C60 C59 1.396 . S
C60 H77 0.930 . S
C61 C58 1.383 . S
C61 C59 1.365 . S
C61 H78 0.931 . S
C62 C57 1.370 . S
C62 C58 1.395 . S
C62 H79 0.930 . S
C63 Gd10 2.805 . S
C63 O45 1.263 . S
C63 O46 1.252 . S
C63 C57 1.500 . S
C64 H26 0.930 . S
C64 C40 1.417 . S
C64 C65 1.329 . S
C65 C35 1.437 . S
C65 H36 0.929 . S
C65 C64 1.329 . S
H66 C39 0.931 . S
C67 O49 1.265 . S
C67 O50 1.242 . S
C68 O53 1.261 . S
C68 O54 1.252 . S
C69 C72 1.394 . S
C69 C74 1.370 . S
C69 C75 1.500 . S
C70 C73 1.383 . S
C70 C74 1.395 . S
C71 C72 1.396 . S
C71 C73 1.365 . S
C71 H80 0.929 . S
C72 C69 1.394 . S
C72 C71 1.396 . S
C72 H81 0.930 . S
C73 C70 1.383 . S
C73 C71 1.365 . S
C73 H82 0.931 . S
C74 C69 1.370 . S
C74 C70 1.395 . S
C74 H83 0.930 . S
C75 Gd11 2.805 . S
C75 O51 1.263 . S
C75 O52 1.252 . S
C75 C69 1.500 . S
H76 C59 0.929 . S
H77 C60 0.930 . S
H78 C61 0.931 . S
H79 C62 0.930 . S
H80 C71 0.929 . S
H81 C72 0.930 . S
H82 C73 0.931 . S
H83 C74 0.930 . S
C84 C86 1.422 . S
C84 C88 1.415 . S
C84 N90 1.369 . S
C85 C86 1.421 . S
C85 C87 1.417 . S
C85 C97 1.422 . S
C86 C84 1.422 . S
C86 C85 1.421 . S
C86 N96 1.359 . S
C87 C85 1.417 . S
C87 C89 1.329 . S
C87 H106 0.930 . S
C88 C84 1.415 . S
C88 C89 1.437 . S
C88 C92 1.413 . S
C89 C87 1.329 . S
C89 C88 1.437 . S
C89 H111 0.929 . S
N90 C84 1.369 . S
N90 C91 1.338 . S
N90 Gd95 2.622 . S
C91 N90 1.338 . S
C91 C93 1.378 . S
C91 H103 0.929 . S
C92 C88 1.413 . S
C92 C93 1.348 . S
C92 H108 0.931 . S
C93 C91 1.378 . S
C93 C92 1.348 . S
C93 H109 0.930 . S
Gd94 N114 2.622 . S
Gd94 N121 2.570 . S
Gd94 O128 2.353 . S
Gd94 O129 2.468 . S
Gd94 O130 2.427 . S
Gd94 O132 2.388 . S
Gd94 O133 2.386 . S
Gd94 O137 2.307 . S
Gd94 C147 2.805 . S
Gd95 N90 2.622 . S
Gd95 N96 2.570 . S
Gd95 O127 2.386 . S
Gd95 O131 2.307 . S
Gd95 O134 2.353 . S
Gd95 O135 2.468 . S
Gd95 O136 2.427 . S
Gd95 O138 2.388 . S
Gd95 C159 2.805 . S
N96 C86 1.359 . S
N96 Gd95 2.570 . S
N96 C98 1.343 . S
C97 C85 1.422 . S
C97 C99 1.321 . S
C97 H105 0.931 . S
C98 N96 1.343 . S
C98 C99 1.390 . S
C98 H100 0.931 . S
C99 C97 1.321 . S
C99 C98 1.390 . S
C99 H101 0.930 . S
H100 C98 0.931 . S
H101 C99 0.930 . S
H102 C125 0.931 . S
H103 C91 0.929 . S
H104 C126 0.930 . S
H105 C97 0.931 . S
H106 C87 0.930 . S
H107 C116 0.929 . S
H108 C92 0.931 . S
H109 C93 0.930 . S
H110 C148 0.930 . S
H111 C89 0.929 . S
H112 C117 0.931 . S
H113 C118 0.930 . S
N114 Gd94 2.622 . S
N114 C115 1.369 . S
N114 C116 1.338 . S
C115 N114 1.369 . S
C115 C119 1.415 . S
C115 C122 1.422 . S
C116 H107 0.929 . S
C116 N114 1.338 . S
C116 C118 1.378 . S
C117 H112 0.931 . S
C117 C118 1.348 . S
C117 C119 1.413 . S
C118 H113 0.930 . S
C118 C116 1.378 . S
C118 C117 1.348 . S
C119 C115 1.415 . S
C119 C117 1.413 . S
C119 C149 1.437 . S
H120 C149 0.929 . S
N121 Gd94 2.570 . S
N121 C122 1.359 . S
N121 C125 1.343 . S
C122 C115 1.422 . S
C122 N121 1.359 . S
C122 C124 1.421 . S
C123 C124 1.422 . S
C123 C126 1.321 . S
C123 H150 0.931 . S
C124 C122 1.421 . S
C124 C123 1.422 . S
C124 C148 1.417 . S
C125 H102 0.931 . S
C125 N121 1.343 . S
C125 C126 1.390 . S
C126 H104 0.930 . S
C126 C123 1.321 . S
C126 C125 1.390 . S
O127 Gd95 2.386 . S
O127 C139 1.265 . S
O128 Gd94 2.353 . S
O128 C139 1.242 . S
O129 Gd94 2.468 . S
O129 C147 1.263 . S
O130 Gd94 2.427 . S
O130 C147 1.252 . S
O131 Gd95 2.307 . S
O131 C140 1.261 . S
O132 Gd94 2.388 . S
O132 C140 1.252 . S
O133 Gd94 2.386 . S
O133 C151 1.265 . S
O134 Gd95 2.353 . S
O134 C151 1.242 . S
O135 Gd95 2.468 . S
O135 C159 1.263 . S
O136 Gd95 2.427 . S
O136 C159 1.252 . S
O137 Gd94 2.307 . S
O137 C152 1.261 . S
O138 Gd95 2.388 . S
O138 C152 1.252 . S
C139 O127 1.265 . S
C139 O128 1.242 . S
C140 O131 1.261 . S
C140 O132 1.252 . S
C141 C144 1.394 . S
C141 C146 1.370 . S
C141 C147 1.500 . S
C142 C145 1.383 . S
C142 C146 1.395 . S
C143 C144 1.396 . S
C143 C145 1.365 . S
C143 H160 0.929 . S
C144 C141 1.394 . S
C144 C143 1.396 . S
C144 H161 0.930 . S
C145 C142 1.383 . S
C145 C143 1.365 . S
C145 H162 0.931 . S
C146 C141 1.370 . S
C146 C142 1.395 . S
C146 H163 0.930 . S
C147 Gd94 2.805 . S
C147 O129 1.263 . S
C147 O130 1.252 . S
C147 C141 1.500 . S
C148 H110 0.930 . S
C148 C124 1.417 . S
C148 C149 1.329 . S
C149 C119 1.437 . S
C149 H120 0.929 . S
C149 C148 1.329 . S
H150 C123 0.931 . S
C151 O133 1.265 . S
C151 O134 1.242 . S
C152 O137 1.261 . S
C152 O138 1.252 . S
C153 C156 1.394 . S
C153 C158 1.370 . S
C153 C159 1.500 . S
C154 C157 1.383 . S
C154 C158 1.395 . S
C155 C156 1.396 . S
C155 C157 1.365 . S
C155 H164 0.929 . S
C156 C153 1.394 . S
C156 C155 1.396 . S
C156 H165 0.930 . S
C157 C154 1.383 . S
C157 C155 1.365 . S
C157 H166 0.931 . S
C158 C153 1.370 . S
C158 C154 1.395 . S
C158 H167 0.930 . S
C159 Gd95 2.805 . S
C159 O135 1.263 . S
C159 O136 1.252 . S
C159 C153 1.500 . S
H160 C143 0.929 . S
H161 C144 0.930 . S
H162 C145 0.931 . S
H163 C146 0.930 . S
H164 C155 0.929 . S
H165 C156 0.930 . S
H166 C157 0.931 . S
H167 C158 0.930 . S
C168 C170 1.422 . S
C168 C172 1.415 . S
C168 N174 1.369 . S
C169 C170 1.421 . S
C169 C171 1.417 . S
C169 C181 1.422 1_455 S
C170 C168 1.422 . S
C170 C169 1.421 . S
C170 N180 1.359 1_455 S
C171 C169 1.417 . S
C171 C173 1.329 . S
C171 H190 0.930 . S
C172 C168 1.415 . S
C172 C173 1.437 . S
C172 C176 1.413 . S
C173 C171 1.329 . S
C173 C172 1.437 . S
C173 H195 0.929 . S
N174 C168 1.369 . S
N174 C175 1.338 . S
N174 Gd179 2.622 1_455 S
C175 N174 1.338 . S
C175 C177 1.378 . S
C175 H187 0.929 . S
C176 C172 1.413 . S
C176 C177 1.348 . S
C176 H192 0.931 . S
C177 C175 1.378 . S
C177 C176 1.348 . S
C177 H193 0.930 . S
Gd178 N198 2.622 1_455 S
Gd178 N205 2.570 . S
Gd178 O212 2.353 . S
Gd178 O213 2.468 . S
Gd178 O214 2.427 . S
Gd178 O216 2.388 1_455 S
Gd178 O217 2.386 1_455 S
Gd178 O221 2.307 . S
Gd178 C231 2.805 . S
Gd179 N174 2.622 1_655 S
Gd179 N180 2.570 . S
Gd179 O211 2.386 1_655 S
Gd179 O215 2.307 . S
Gd179 O218 2.353 . S
Gd179 O219 2.468 . S
Gd179 O220 2.427 . S
Gd179 O222 2.388 1_655 S
Gd179 C243 2.805 . S
N180 C170 1.359 1_655 S
N180 Gd179 2.570 . S
N180 C182 1.343 . S
C181 C169 1.422 1_655 S
C181 C183 1.321 . S
C181 H189 0.931 . S
C182 N180 1.343 . S
C182 C183 1.390 . S
C182 H184 0.931 . S
C183 C181 1.321 . S
C183 C182 1.390 . S
C183 H185 0.930 . S
H184 C182 0.931 . S
H185 C183 0.930 . S
H186 C209 0.931 . S
H187 C175 0.929 . S
H188 C210 0.930 . S
H189 C181 0.931 . S
H190 C171 0.930 . S
H191 C200 0.929 . S
H192 C176 0.931 . S
H193 C177 0.930 . S
H194 C232 0.930 . S
H195 C173 0.929 . S
H196 C201 0.931 . S
H197 C202 0.930 . S
N198 Gd178 2.622 1_655 S
N198 C199 1.369 . S
N198 C200 1.338 . S
C199 N198 1.369 . S
C199 C203 1.415 . S
C199 C206 1.422 . S
C200 H191 0.929 . S
C200 N198 1.338 . S
C200 C202 1.378 . S
C201 H196 0.931 . S
C201 C202 1.348 . S
C201 C203 1.413 . S
C202 H197 0.930 . S
C202 C200 1.378 . S
C202 C201 1.348 . S
C203 C199 1.415 . S
C203 C201 1.413 . S
C203 C233 1.437 . S
H204 C233 0.929 . S
N205 Gd178 2.570 . S
N205 C206 1.359 1_455 S
N205 C209 1.343 . S
C206 C199 1.422 . S
C206 N205 1.359 1_655 S
C206 C208 1.421 . S
C207 C208 1.422 1_455 S
C207 C210 1.321 . S
C207 H234 0.931 . S
C208 C206 1.421 . S
C208 C207 1.422 1_655 S
C208 C232 1.417 . S
C209 H186 0.931 . S
C209 N205 1.343 . S
C209 C210 1.390 . S
C210 H188 0.930 . S
C210 C207 1.321 . S
C210 C209 1.390 . S
O211 Gd179 2.386 1_455 S
O211 C223 1.265 . S
O212 Gd178 2.353 . S
O212 C223 1.242 . S
O213 Gd178 2.468 . S
O213 C231 1.263 . S
O214 Gd178 2.427 . S
O214 C231 1.252 . S
O215 Gd179 2.307 . S
O215 C224 1.261 . S
O216 Gd178 2.388 1_655 S
O216 C224 1.252 . S
O217 Gd178 2.386 1_655 S
O217 C235 1.265 . S
O218 Gd179 2.353 . S
O218 C235 1.242 . S
O219 Gd179 2.468 . S
O219 C243 1.263 . S
O220 Gd179 2.427 . S
O220 C243 1.252 . S
O221 Gd178 2.307 . S
O221 C236 1.261 . S
O222 Gd179 2.388 1_455 S
O222 C236 1.252 . S
C223 O211 1.265 . S
C223 O212 1.242 . S
C224 O215 1.261 . S
C224 O216 1.252 . S
C225 C228 1.394 . S
C225 C230 1.370 . S
C225 C231 1.500 . S
C226 C229 1.383 . S
C226 C230 1.395 . S
C227 C228 1.396 . S
C227 C229 1.365 . S
C227 H244 0.929 . S
C228 C225 1.394 . S
C228 C227 1.396 . S
C228 H245 0.930 . S
C229 C226 1.383 . S
C229 C227 1.365 . S
C229 H246 0.931 . S
C230 C225 1.370 . S
C230 C226 1.395 . S
C230 H247 0.930 . S
C231 Gd178 2.805 . S
C231 O213 1.263 . S
C231 O214 1.252 . S
C231 C225 1.500 . S
C232 H194 0.930 . S
C232 C208 1.417 . S
C232 C233 1.329 . S
C233 C203 1.437 . S
C233 H204 0.929 . S
C233 C232 1.329 . S
H234 C207 0.931 . S
C235 O217 1.265 . S
C235 O218 1.242 . S
C236 O221 1.261 . S
C236 O222 1.252 . S
C237 C240 1.394 . S
C237 C242 1.370 . S
C237 C243 1.500 . S
C238 C241 1.383 . S
C238 C242 1.395 . S
C239 C240 1.396 . S
C239 C241 1.365 . S
C239 H248 0.929 . S
C240 C237 1.394 . S
C240 C239 1.396 . S
C240 H249 0.930 . S
C241 C238 1.383 . S
C241 C239 1.365 . S
C241 H250 0.931 . S
C242 C237 1.370 . S
C242 C238 1.395 . S
C242 H251 0.930 . S
C243 Gd179 2.805 . S
C243 O219 1.263 . S
C243 O220 1.252 . S
C243 C237 1.500 . S
H244 C227 0.929 . S
H245 C228 0.930 . S
H246 C229 0.931 . S
H247 C230 0.930 . S
H248 C239 0.929 . S
H249 C240 0.930 . S
H250 C241 0.931 . S
H251 C242 0.930 . S
C252 C254 1.422 . S
C252 C256 1.415 . S
C252 N258 1.369 . S
C253 C254 1.421 . S
C253 C255 1.417 . S
C253 C265 1.422 1_545 S
C254 C252 1.422 . S
C254 C253 1.421 . S
C254 N264 1.359 1_545 S
C255 C253 1.417 . S
C255 C257 1.329 . S
C255 H274 0.930 . S
C256 C252 1.415 . S
C256 C257 1.437 . S
C256 C260 1.413 . S
C257 C255 1.329 . S
C257 C256 1.437 . S
C257 H279 0.929 . S
N258 C252 1.369 . S
N258 C259 1.338 . S
N258 Gd263 2.622 1_545 S
C259 N258 1.338 . S
C259 C261 1.378 . S
C259 H271 0.929 . S
C260 C256 1.413 . S
C260 C261 1.348 . S
C260 H276 0.931 . S
C261 C259 1.378 . S
C261 C260 1.348 . S
C261 H277 0.930 . S
Gd262 N282 2.622 1_545 S
Gd262 N289 2.570 . S
Gd262 O296 2.353 . S
Gd262 O297 2.468 . S
Gd262 O298 2.427 . S
Gd262 O300 2.388 1_545 S
Gd262 O301 2.386 1_545 S
Gd262 O305 2.307 . S
Gd262 C315 2.805 . S
Gd263 N258 2.622 1_565 S
Gd263 N264 2.570 . S
Gd263 O295 2.386 1_565 S
Gd263 O299 2.307 . S
Gd263 O302 2.353 . S
Gd263 O303 2.468 . S
Gd263 O304 2.427 . S
Gd263 O306 2.388 1_565 S
Gd263 C327 2.805 . S
N264 C254 1.359 1_565 S
N264 Gd263 2.570 . S
N264 C266 1.343 . S
C265 C253 1.422 1_565 S
C265 C267 1.321 . S
C265 H273 0.931 . S
C266 N264 1.343 . S
C266 C267 1.390 . S
C266 H268 0.931 . S
C267 C265 1.321 . S
C267 C266 1.390 . S
C267 H269 0.930 . S
H268 C266 0.931 . S
H269 C267 0.930 . S
H270 C293 0.931 . S
H271 C259 0.929 . S
H272 C294 0.930 . S
H273 C265 0.931 . S
H274 C255 0.930 . S
H275 C284 0.929 . S
H276 C260 0.931 . S
H277 C261 0.930 . S
H278 C316 0.930 . S
H279 C257 0.929 . S
H280 C285 0.931 . S
H281 C286 0.930 . S
N282 Gd262 2.622 1_565 S
N282 C283 1.369 . S
N282 C284 1.338 . S
C283 N282 1.369 . S
C283 C287 1.415 . S
C283 C290 1.422 . S
C284 H275 0.929 . S
C284 N282 1.338 . S
C284 C286 1.378 . S
C285 H280 0.931 . S
C285 C286 1.348 . S
C285 C287 1.413 . S
C286 H281 0.930 . S
C286 C284 1.378 . S
C286 C285 1.348 . S
C287 C283 1.415 . S
C287 C285 1.413 . S
C287 C317 1.437 . S
H288 C317 0.929 . S
N289 Gd262 2.570 . S
N289 C290 1.359 1_545 S
N289 C293 1.343 . S
C290 C283 1.422 . S
C290 N289 1.359 1_565 S
C290 C292 1.421 . S
C291 C292 1.422 1_545 S
C291 C294 1.321 . S
C291 H318 0.931 . S
C292 C290 1.421 . S
C292 C291 1.422 1_565 S
C292 C316 1.417 . S
C293 H270 0.931 . S
C293 N289 1.343 . S
C293 C294 1.390 . S
C294 H272 0.930 . S
C294 C291 1.321 . S
C294 C293 1.390 . S
O295 Gd263 2.386 1_545 S
O295 C307 1.265 . S
O296 Gd262 2.353 . S
O296 C307 1.242 . S
O297 Gd262 2.468 . S
O297 C315 1.263 . S
O298 Gd262 2.427 . S
O298 C315 1.252 . S
O299 Gd263 2.307 . S
O299 C308 1.261 . S
O300 Gd262 2.388 1_565 S
O300 C308 1.252 . S
O301 Gd262 2.386 1_565 S
O301 C319 1.265 . S
O302 Gd263 2.353 . S
O302 C319 1.242 . S
O303 Gd263 2.468 . S
O303 C327 1.263 . S
O304 Gd263 2.427 . S
O304 C327 1.252 . S
O305 Gd262 2.307 . S
O305 C320 1.261 . S
O306 Gd263 2.388 1_545 S
O306 C320 1.252 . S
C307 O295 1.265 . S
C307 O296 1.242 . S
C308 O299 1.261 . S
C308 O300 1.252 . S
C309 C312 1.394 . S
C309 C314 1.370 . S
C309 C315 1.500 . S
C310 C313 1.383 . S
C310 C314 1.395 . S
C311 C312 1.396 . S
C311 C313 1.365 . S
C311 H328 0.929 . S
C312 C309 1.394 . S
C312 C311 1.396 . S
C312 H329 0.930 . S
C313 C310 1.383 . S
C313 C311 1.365 . S
C313 H330 0.931 . S
C314 C309 1.370 . S
C314 C310 1.395 . S
C314 H331 0.930 . S
C315 Gd262 2.805 . S
C315 O297 1.263 . S
C315 O298 1.252 . S
C315 C309 1.500 . S
C316 H278 0.930 . S
C316 C292 1.417 . S
C316 C317 1.329 . S
C317 C287 1.437 . S
C317 H288 0.929 . S
C317 C316 1.329 . S
H318 C291 0.931 . S
C319 O301 1.265 . S
C319 O302 1.242 . S
C320 O305 1.261 . S
C320 O306 1.252 . S
C321 C324 1.394 . S
C321 C326 1.370 . S
C321 C327 1.500 . S
C322 C325 1.383 . S
C322 C326 1.395 . S
C323 C324 1.396 . S
C323 C325 1.365 . S
C323 H332 0.929 . S
C324 C321 1.394 . S
C324 C323 1.396 . S
C324 H333 0.930 . S
C325 C322 1.383 . S
C325 C323 1.365 . S
C325 H334 0.931 . S
C326 C321 1.370 . S
C326 C322 1.395 . S
C326 H335 0.930 . S
C327 Gd263 2.805 . S
C327 O303 1.263 . S
C327 O304 1.252 . S
C327 C321 1.500 . S
H328 C311 0.929 . S
H329 C312 0.930 . S
H330 C313 0.931 . S
H331 C314 0.930 . S
H332 C323 0.929 . S
H333 C324 0.930 . S
H334 C325 0.931 . S
H335 C326 0.930 . S
C336 C338 1.422 . S
C336 C340 1.415 . S
C336 N342 1.369 . S
C337 C338 1.421 . S
C337 C339 1.417 . S
C337 C349 1.422 . S
C338 C336 1.422 . S
C338 C337 1.421 . S
C338 N348 1.359 . S
C339 C337 1.417 . S
C339 C341 1.329 . S
C339 H358 0.930 . S
C340 C336 1.415 . S
C340 C341 1.437 . S
C340 C344 1.413 . S
C341 C339 1.329 . S
C341 C340 1.437 . S
C341 H363 0.929 . S
N342 C336 1.369 . S
N342 C343 1.338 . S
N342 Gd347 2.622 . S
C343 N342 1.338 . S
C343 C345 1.378 . S
C343 H355 0.929 . S
C344 C340 1.413 . S
C344 C345 1.348 . S
C344 H360 0.931 . S
C345 C343 1.378 . S
C345 C344 1.348 . S
C345 H361 0.930 . S
Gd346 N366 2.622 1_554 S
Gd346 N373 2.570 . S
Gd346 O380 2.353 . S
Gd346 O381 2.477 . S
Gd346 O382 2.427 1_554 S
Gd346 O384 2.388 1_554 S
Gd346 O385 2.386 . S
Gd346 O389 2.307 . S
Gd346 C399 2.805 1_554 S
Gd347 N342 2.622 . S
Gd347 N348 2.570 . S
Gd347 O379 2.386 . S
Gd347 O383 2.307 . S
Gd347 O386 2.353 . S
Gd347 O387 2.468 . S
Gd347 O388 2.427 . S
Gd347 O390 2.388 . S
Gd347 C411 2.805 . S
N348 C338 1.359 . S
N348 Gd347 2.570 . S
N348 C350 1.343 . S
C349 C337 1.422 . S
C349 C351 1.321 . S
C349 H357 0.931 . S
C350 N348 1.343 . S
C350 C351 1.390 . S
C350 H352 0.931 . S
C351 C349 1.321 . S
C351 C350 1.390 . S
C351 H353 0.930 . S
H352 C350 0.931 . S
H353 C351 0.930 . S
H354 C377 0.931 . S
H355 C343 0.929 . S
H356 C378 0.930 . S
H357 C349 0.931 . S
H358 C339 0.930 . S
H359 C368 0.929 . S
H360 C344 0.931 . S
H361 C345 0.930 . S
H362 C400 0.930 . S
H363 C341 0.929 . S
H364 C369 0.931 . S
H365 C370 0.930 . S
N366 Gd346 2.622 1_556 S
N366 C367 1.369 1_556 S
N366 C368 1.338 . S
C367 N366 1.369 1_554 S
C367 C371 1.422 . S
C367 C374 1.422 . S
C368 H359 0.929 . S
C368 N366 1.338 . S
C368 C370 1.378 . S
C369 H364 0.931 . S
C369 C370 1.348 . S
C369 C371 1.394 1_556 S
C370 H365 0.930 . S
C370 C368 1.378 . S
C370 C369 1.348 . S
C371 C367 1.422 . S
C371 C369 1.394 1_554 S
C371 C401 1.451 . S
H372 C401 0.929 . S
N373 Gd346 2.570 . S
N373 C374 1.359 . S
N373 C377 1.343 . S
C374 C367 1.422 . S
C374 N373 1.359 . S
C374 C376 1.421 . S
C375 C376 1.422 . S
C375 C378 1.321 . S
C375 H402 0.931 . S
C376 C374 1.421 . S
C376 C375 1.422 . S
C376 C400 1.417 . S
C377 H354 0.931 . S
C377 N373 1.343 . S
C377 C378 1.390 . S
C378 H356 0.930 . S
C378 C375 1.321 . S
C378 C377 1.390 . S
O379 Gd347 2.386 . S
O379 C391 1.265 . S
O380 Gd346 2.353 . S
O380 C391 1.242 . S
O381 Gd346 2.477 . S
O381 C399 1.235 1_554 S
O382 Gd346 2.427 1_556 S
O382 C399 1.252 . S
O383 Gd347 2.307 . S
O383 C392 1.261 . S
O384 Gd346 2.388 1_556 S
O384 C392 1.252 1_556 S
O385 Gd346 2.386 . S
O385 C403 1.265 . S
O386 Gd347 2.353 . S
O386 C403 1.242 . S
O387 Gd347 2.468 . S
O387 C411 1.263 . S
O388 Gd347 2.427 . S
O388 C411 1.252 . S
O389 Gd346 2.307 . S
O389 C404 1.261 . S
O390 Gd347 2.388 . S
O390 C404 1.252 . S
C391 O379 1.265 . S
C391 O380 1.242 . S
C392 O383 1.261 . S
C392 O384 1.252 1_554 S
C393 C396 1.394 . S
C393 C398 1.370 . S
C393 C399 1.500 . S
C394 C397 1.383 . S
C394 C398 1.395 . S
C395 C396 1.396 . S
C395 C397 1.365 . S
C395 H412 0.929 . S
C396 C393 1.394 . S
C396 C395 1.396 . S
C396 H413 0.930 . S
C397 C394 1.383 . S
C397 C395 1.365 . S
C397 H414 0.931 . S
C398 C393 1.370 . S
C398 C394 1.395 . S
C398 H415 0.930 . S
C399 Gd346 2.805 1_556 S
C399 O381 1.235 1_556 S
C399 O382 1.252 . S
C399 C393 1.500 . S
C400 H362 0.930 . S
C400 C376 1.417 . S
C400 C401 1.329 . S
C401 C371 1.451 . S
C401 H372 0.929 . S
C401 C400 1.329 . S
H402 C375 0.931 . S
C403 O385 1.265 . S
C403 O386 1.242 . S
C404 O389 1.261 . S
C404 O390 1.252 . S
C405 C408 1.394 . S
C405 C410 1.370 . S
C405 C411 1.500 . S
C406 C409 1.383 . S
C406 C410 1.395 . S
C407 C408 1.396 . S
C407 C409 1.365 . S
C407 H416 0.929 . S
C408 C405 1.394 . S
C408 C407 1.396 . S
C408 H417 0.930 . S
C409 C406 1.383 . S
C409 C407 1.365 . S
C409 H418 0.931 . S
C410 C405 1.370 . S
C410 C406 1.395 . S
C410 H419 0.930 . S
C411 Gd347 2.805 . S
C411 O387 1.263 . S
C411 O388 1.252 . S
C411 C405 1.500 . S
H412 C395 0.929 . S
H413 C396 0.930 . S
H414 C397 0.931 . S
H415 C398 0.930 . S
H416 C407 0.929 . S
H417 C408 0.930 . S
H418 C409 0.931 . S
H419 C410 0.930 . S
C420 C422 1.422 . S
C420 C424 1.415 . S
C420 N426 1.369 . S
C421 C422 1.421 . S
C421 C423 1.417 . S
C421 C433 1.422 1_655 S
C422 C420 1.422 . S
C422 C421 1.421 . S
C422 N432 1.359 1_655 S
C423 C421 1.417 . S
C423 C425 1.329 . S
C423 H442 0.930 . S
C424 C420 1.415 . S
C424 C425 1.437 . S
C424 C428 1.413 . S
C425 C423 1.329 . S
C425 C424 1.437 . S
C425 H447 0.929 . S
N426 C420 1.369 . S
N426 C427 1.338 . S
N426 Gd431 2.622 1_655 S
C427 N426 1.338 . S
C427 C429 1.378 . S
C427 H439 0.929 . S
C428 C424 1.413 . S
C428 C429 1.348 . S
C428 H444 0.931 . S
C429 C427 1.378 . S
C429 C428 1.348 . S
C429 H445 0.930 . S
Gd430 N450 2.622 1_655 S
Gd430 N457 2.570 . S
Gd430 O464 2.353 . S
Gd430 O465 2.468 . S
Gd430 O466 2.427 . S
Gd430 O468 2.388 1_655 S
Gd430 O469 2.386 1_655 S
Gd430 O473 2.307 . S
Gd430 C483 2.805 . S
Gd431 N426 2.622 1_455 S
Gd431 N432 2.570 . S
Gd431 O463 2.386 1_455 S
Gd431 O467 2.307 . S
Gd431 O470 2.353 . S
Gd431 O471 2.468 . S
Gd431 O472 2.427 . S
Gd431 O474 2.388 1_455 S
Gd431 C495 2.805 . S
N432 C422 1.359 1_455 S
N432 Gd431 2.570 . S
N432 C434 1.343 . S
C433 C421 1.422 1_455 S
C433 C435 1.321 . S
C433 H441 0.931 . S
C434 N432 1.343 . S
C434 C435 1.390 . S
C434 H436 0.931 . S
C435 C433 1.321 . S
C435 C434 1.390 . S
C435 H437 0.930 . S
H436 C434 0.931 . S
H437 C435 0.930 . S
H438 C461 0.931 . S
H439 C427 0.929 . S
H440 C462 0.930 . S
H441 C433 0.931 . S
H442 C423 0.930 . S
H443 C452 0.929 . S
H444 C428 0.931 . S
H445 C429 0.930 . S
H446 C484 0.930 . S
H447 C425 0.929 . S
H448 C453 0.931 . S
H449 C454 0.930 . S
N450 Gd430 2.622 1_455 S
N450 C451 1.369 . S
N450 C452 1.338 . S
C451 N450 1.369 . S
C451 C455 1.415 . S
C451 C458 1.422 . S
C452 H443 0.929 . S
C452 N450 1.338 . S
C452 C454 1.378 . S
C453 H448 0.931 . S
C453 C454 1.348 . S
C453 C455 1.413 . S
C454 H449 0.930 . S
C454 C452 1.378 . S
C454 C453 1.348 . S
C455 C451 1.415 . S
C455 C453 1.413 . S
C455 C485 1.437 . S
H456 C485 0.929 . S
N457 Gd430 2.570 . S
N457 C458 1.359 1_655 S
N457 C461 1.343 . S
C458 C451 1.422 . S
C458 N457 1.359 1_455 S
C458 C460 1.421 . S
C459 C460 1.422 1_655 S
C459 C462 1.321 . S
C459 H486 0.931 . S
C460 C458 1.421 . S
C460 C459 1.422 1_455 S
C460 C484 1.417 . S
C461 H438 0.931 . S
C461 N457 1.343 . S
C461 C462 1.390 . S
C462 H440 0.930 . S
C462 C459 1.321 . S
C462 C461 1.390 . S
O463 Gd431 2.386 1_655 S
O463 C475 1.265 . S
O464 Gd430 2.353 . S
O464 C475 1.242 . S
O465 Gd430 2.468 . S
O465 C483 1.263 . S
O466 Gd430 2.427 . S
O466 C483 1.252 . S
O467 Gd431 2.307 . S
O467 C476 1.261 . S
O468 Gd430 2.388 1_455 S
O468 C476 1.252 . S
O469 Gd430 2.386 1_455 S
O469 C487 1.265 . S
O470 Gd431 2.353 . S
O470 C487 1.242 . S
O471 Gd431 2.468 . S
O471 C495 1.263 . S
O472 Gd431 2.427 . S
O472 C495 1.252 . S
O473 Gd430 2.307 . S
O473 C488 1.261 . S
O474 Gd431 2.388 1_655 S
O474 C488 1.252 . S
C475 O463 1.265 . S
C475 O464 1.242 . S
C476 O467 1.261 . S
C476 O468 1.252 . S
C477 C480 1.394 . S
C477 C482 1.370 . S
C477 C483 1.500 . S
C478 C481 1.383 . S
C478 C482 1.395 . S
C479 C480 1.396 . S
C479 C481 1.365 . S
C479 H496 0.929 . S
C480 C477 1.394 . S
C480 C479 1.396 . S
C480 H497 0.930 . S
C481 C478 1.383 . S
C481 C479 1.365 . S
C481 H498 0.931 . S
C482 C477 1.370 . S
C482 C478 1.395 . S
C482 H499 0.930 . S
C483 Gd430 2.805 . S
C483 O465 1.263 . S
C483 O466 1.252 . S
C483 C477 1.500 . S
C484 H446 0.930 . S
C484 C460 1.417 . S
C484 C485 1.329 . S
C485 C455 1.437 . S
C485 H456 0.929 . S
C485 C484 1.329 . S
H486 C459 0.931 . S
C487 O469 1.265 . S
C487 O470 1.242 . S
C488 O473 1.261 . S
C488 O474 1.252 . S
C489 C492 1.394 . S
C489 C494 1.370 . S
C489 C495 1.500 . S
C490 C493 1.383 . S
C490 C494 1.395 . S
C491 C492 1.396 . S
C491 C493 1.365 . S
C491 H500 0.929 . S
C492 C489 1.394 . S
C492 C491 1.396 . S
C492 H501 0.930 . S
C493 C490 1.383 . S
C493 C491 1.365 . S
C493 H502 0.931 . S
C494 C489 1.370 . S
C494 C490 1.395 . S
C494 H503 0.930 . S
C495 Gd431 2.805 . S
C495 O471 1.263 . S
C495 O472 1.252 . S
C495 C489 1.500 . S
H496 C479 0.929 . S
H497 C480 0.930 . S
H498 C481 0.931 . S
H499 C482 0.930 . S
H500 C491 0.929 . S
H501 C492 0.930 . S
H502 C493 0.931 . S
H503 C494 0.930 . S
C504 C506 1.422 . S
C504 C508 1.415 . S
C504 N510 1.369 . S
C505 C506 1.421 . S
C505 C507 1.417 . S
C505 C517 1.422 1_455 S
C506 C504 1.422 . S
C506 C505 1.421 . S
C506 N516 1.359 1_455 S
C507 C505 1.417 . S
C507 C509 1.329 . S
C507 H526 0.930 . S
C508 C504 1.415 . S
C508 C509 1.437 . S
C508 C512 1.413 . S
C509 C507 1.329 . S
C509 C508 1.437 . S
C509 H531 0.929 . S
N510 C504 1.369 . S
N510 C511 1.338 . S
N510 Gd515 2.622 1_455 S
C511 N510 1.338 . S
C511 C513 1.378 . S
C511 H523 0.929 . S
C512 C508 1.413 . S
C512 C513 1.348 . S
C512 H528 0.931 . S
C513 C511 1.378 . S
C513 C512 1.348 . S
C513 H529 0.930 . S
Gd514 N534 2.622 1_455 S
Gd514 N541 2.570 . S
Gd514 O548 2.353 . S
Gd514 O549 2.468 . S
Gd514 O550 2.427 . S
Gd514 O552 2.388 1_455 S
Gd514 O553 2.386 1_455 S
Gd514 O557 2.307 . S
Gd514 C567 2.805 . S
Gd515 N510 2.622 1_655 S
Gd515 N516 2.570 . S
Gd515 O547 2.386 1_655 S
Gd515 O551 2.307 . S
Gd515 O554 2.353 . S
Gd515 O555 2.468 . S
Gd515 O556 2.427 . S
Gd515 O558 2.388 1_655 S
Gd515 C579 2.805 . S
N516 C506 1.359 1_655 S
N516 Gd515 2.570 . S
N516 C518 1.343 . S
C517 C505 1.422 1_655 S
C517 C519 1.321 . S
C517 H525 0.931 . S
C518 N516 1.343 . S
C518 C519 1.390 . S
C518 H520 0.931 . S
C519 C517 1.321 . S
C519 C518 1.390 . S
C519 H521 0.930 . S
H520 C518 0.931 . S
H521 C519 0.930 . S
H522 C545 0.931 . S
H523 C511 0.929 . S
H524 C546 0.930 . S
H525 C517 0.931 . S
H526 C507 0.930 . S
H527 C536 0.929 . S
H528 C512 0.931 . S
H529 C513 0.930 . S
H530 C568 0.930 . S
H531 C509 0.929 . S
H532 C537 0.931 . S
H533 C538 0.930 . S
N534 Gd514 2.622 1_655 S
N534 C535 1.369 . S
N534 C536 1.338 . S
C535 N534 1.369 . S
C535 C539 1.415 . S
C535 C542 1.422 . S
C536 H527 0.929 . S
C536 N534 1.338 . S
C536 C538 1.378 . S
C537 H532 0.931 . S
C537 C538 1.348 . S
C537 C539 1.413 . S
C538 H533 0.930 . S
C538 C536 1.378 . S
C538 C537 1.348 . S
C539 C535 1.415 . S
C539 C537 1.413 . S
C539 C569 1.437 . S
H540 C569 0.929 . S
N541 Gd514 2.570 . S
N541 C542 1.359 1_455 S
N541 C545 1.343 . S
C542 C535 1.422 . S
C542 N541 1.359 1_655 S
C542 C544 1.421 . S
C543 C544 1.422 1_455 S
C543 C546 1.321 . S
C543 H570 0.931 . S
C544 C542 1.421 . S
C544 C543 1.422 1_655 S
C544 C568 1.417 . S
C545 H522 0.931 . S
C545 N541 1.343 . S
C545 C546 1.390 . S
C546 H524 0.930 . S
C546 C543 1.321 . S
C546 C545 1.390 . S
O547 Gd515 2.386 1_455 S
O547 C559 1.265 . S
O548 Gd514 2.353 . S
O548 C559 1.242 . S
O549 Gd514 2.468 . S
O549 C567 1.263 . S
O550 Gd514 2.427 . S
O550 C567 1.252 . S
O551 Gd515 2.307 . S
O551 C560 1.261 . S
O552 Gd514 2.388 1_655 S
O552 C560 1.252 . S
O553 Gd514 2.386 1_655 S
O553 C571 1.265 . S
O554 Gd515 2.353 . S
O554 C571 1.242 . S
O555 Gd515 2.468 . S
O555 C579 1.263 . S
O556 Gd515 2.427 . S
O556 C579 1.252 . S
O557 Gd514 2.307 . S
O557 C572 1.261 . S
O558 Gd515 2.388 1_455 S
O558 C572 1.252 . S
C559 O547 1.265 . S
C559 O548 1.242 . S
C560 O551 1.261 . S
C560 O552 1.252 . S
C561 C564 1.394 . S
C561 C566 1.370 . S
C561 C567 1.500 . S
C562 C565 1.383 . S
C562 C566 1.395 . S
C563 C564 1.396 . S
C563 C565 1.365 . S
C563 H580 0.929 . S
C564 C561 1.394 . S
C564 C563 1.396 . S
C564 H581 0.930 . S
C565 C562 1.383 . S
C565 C563 1.365 . S
C565 H582 0.931 . S
C566 C561 1.370 . S
C566 C562 1.395 . S
C566 H583 0.930 . S
C567 Gd514 2.805 . S
C567 O549 1.263 . S
C567 O550 1.252 . S
C567 C561 1.500 . S
C568 H530 0.930 . S
C568 C544 1.417 . S
C568 C569 1.329 . S
C569 C539 1.437 . S
C569 H540 0.929 . S
C569 C568 1.329 . S
H570 C543 0.931 . S
C571 O553 1.265 . S
C571 O554 1.242 . S
C572 O557 1.261 . S
C572 O558 1.252 . S
C573 C576 1.394 . S
C573 C578 1.370 . S
C573 C579 1.500 . S
C574 C577 1.383 . S
C574 C578 1.395 . S
C575 C576 1.396 . S
C575 C577 1.365 . S
C575 H584 0.929 . S
C576 C573 1.394 . S
C576 C575 1.396 . S
C576 H585 0.930 . S
C577 C574 1.383 . S
C577 C575 1.365 . S
C577 H586 0.931 . S
C578 C573 1.370 . S
C578 C574 1.395 . S
C578 H587 0.930 . S
C579 Gd515 2.805 . S
C579 O555 1.263 . S
C579 O556 1.252 . S
C579 C573 1.500 . S
H580 C563 0.929 . S
H581 C564 0.930 . S
H582 C565 0.931 . S
H583 C566 0.930 . S
H584 C575 0.929 . S
H585 C576 0.930 . S
H586 C577 0.931 . S
H587 C578 0.930 . S
C588 C590 1.422 . S
C588 C592 1.415 . S
C588 N594 1.369 . S
C589 C590 1.421 . S
C589 C591 1.417 . S
C589 C601 1.422 1_545 S
C590 C588 1.422 . S
C590 C589 1.421 . S
C590 N600 1.359 1_545 S
C591 C589 1.417 . S
C591 C593 1.329 . S
C591 H610 0.930 . S
C592 C588 1.415 . S
C592 C593 1.437 . S
C592 C596 1.413 . S
C593 C591 1.329 . S
C593 C592 1.437 . S
C593 H615 0.929 . S
N594 C588 1.369 . S
N594 C595 1.338 . S
N594 Gd599 2.622 1_545 S
C595 N594 1.338 . S
C595 C597 1.378 . S
C595 H607 0.929 . S
C596 C592 1.413 . S
C596 C597 1.348 . S
C596 H612 0.931 . S
C597 C595 1.378 . S
C597 C596 1.348 . S
C597 H613 0.930 . S
Gd598 N618 2.622 1_545 S
Gd598 N625 2.570 . S
Gd598 O632 2.353 . S
Gd598 O633 2.468 . S
Gd598 O634 2.427 . S
Gd598 O636 2.388 1_545 S
Gd598 O637 2.386 1_545 S
Gd598 O641 2.307 . S
Gd598 C651 2.805 . S
Gd599 N594 2.622 1_565 S
Gd599 N600 2.570 . S
Gd599 O631 2.386 1_565 S
Gd599 O635 2.307 . S
Gd599 O638 2.353 . S
Gd599 O639 2.468 . S
Gd599 O640 2.427 . S
Gd599 O642 2.388 1_565 S
Gd599 C663 2.805 . S
N600 C590 1.359 1_565 S
N600 Gd599 2.570 . S
N600 C602 1.343 . S
C601 C589 1.422 1_565 S
C601 C603 1.321 . S
C601 H609 0.931 . S
C602 N600 1.343 . S
C602 C603 1.390 . S
C602 H604 0.931 . S
C603 C601 1.321 . S
C603 C602 1.390 . S
C603 H605 0.930 . S
H604 C602 0.931 . S
H605 C603 0.930 . S
H606 C629 0.931 . S
H607 C595 0.929 . S
H608 C630 0.930 . S
H609 C601 0.931 . S
H610 C591 0.930 . S
H611 C620 0.929 . S
H612 C596 0.931 . S
H613 C597 0.930 . S
H614 C652 0.930 . S
H615 C593 0.929 . S
H616 C621 0.931 . S
H617 C622 0.930 . S
N618 Gd598 2.622 1_565 S
N618 C619 1.369 . S
N618 C620 1.338 . S
C619 N618 1.369 . S
C619 C623 1.415 . S
C619 C626 1.422 . S
C620 H611 0.929 . S
C620 N618 1.338 . S
C620 C622 1.378 . S
C621 H616 0.931 . S
C621 C622 1.348 . S
C621 C623 1.413 . S
C622 H617 0.930 . S
C622 C620 1.378 . S
C622 C621 1.348 . S
C623 C619 1.415 . S
C623 C621 1.413 . S
C623 C653 1.437 . S
H624 C653 0.929 . S
N625 Gd598 2.570 . S
N625 C626 1.359 1_545 S
N625 C629 1.343 . S
C626 C619 1.422 . S
C626 N625 1.359 1_565 S
C626 C628 1.421 . S
C627 C628 1.422 1_545 S
C627 C630 1.321 . S
C627 H654 0.931 . S
C628 C626 1.421 . S
C628 C627 1.422 1_565 S
C628 C652 1.417 . S
C629 H606 0.931 . S
C629 N625 1.343 . S
C629 C630 1.390 . S
C630 H608 0.930 . S
C630 C627 1.321 . S
C630 C629 1.390 . S
O631 Gd599 2.386 1_545 S
O631 C643 1.265 . S
O632 Gd598 2.353 . S
O632 C643 1.242 . S
O633 Gd598 2.468 . S
O633 C651 1.263 . S
O634 Gd598 2.427 . S
O634 C651 1.252 . S
O635 Gd599 2.307 . S
O635 C644 1.261 . S
O636 Gd598 2.388 1_565 S
O636 C644 1.252 . S
O637 Gd598 2.386 1_565 S
O637 C655 1.265 . S
O638 Gd599 2.353 . S
O638 C655 1.242 . S
O639 Gd599 2.468 . S
O639 C663 1.263 . S
O640 Gd599 2.427 . S
O640 C663 1.252 . S
O641 Gd598 2.307 . S
O641 C656 1.261 . S
O642 Gd599 2.388 1_545 S
O642 C656 1.252 . S
C643 O631 1.265 . S
C643 O632 1.242 . S
C644 O635 1.261 . S
C644 O636 1.252 . S
C645 C648 1.394 . S
C645 C650 1.370 . S
C645 C651 1.500 . S
C646 C649 1.383 . S
C646 C650 1.395 . S
C647 C648 1.396 . S
C647 C649 1.365 . S
C647 H664 0.929 . S
C648 C645 1.394 . S
C648 C647 1.396 . S
C648 H665 0.930 . S
C649 C646 1.383 . S
C649 C647 1.365 . S
C649 H666 0.931 . S
C650 C645 1.370 . S
C650 C646 1.395 . S
C650 H667 0.930 . S
C651 Gd598 2.805 . S
C651 O633 1.263 . S
C651 O634 1.252 . S
C651 C645 1.500 . S
C652 H614 0.930 . S
C652 C628 1.417 . S
C652 C653 1.329 . S
C653 C623 1.437 . S
C653 H624 0.929 . S
C653 C652 1.329 . S
H654 C627 0.931 . S
C655 O637 1.265 . S
C655 O638 1.242 . S
C656 O641 1.261 . S
C656 O642 1.252 . S
C657 C660 1.394 . S
C657 C662 1.370 . S
C657 C663 1.500 . S
C658 C661 1.383 . S
C658 C662 1.395 . S
C659 C660 1.396 . S
C659 C661 1.365 . S
C659 H668 0.929 . S
C660 C657 1.394 . S
C660 C659 1.396 . S
C660 H669 0.930 . S
C661 C658 1.383 . S
C661 C659 1.365 . S
C661 H670 0.931 . S
C662 C657 1.370 . S
C662 C658 1.395 . S
C662 H671 0.930 . S
C663 Gd599 2.805 . S
C663 O639 1.263 . S
C663 O640 1.252 . S
C663 C657 1.500 . S
H664 C647 0.929 . S
H665 C648 0.930 . S
H666 C649 0.931 . S
H667 C650 0.930 . S
H668 C659 0.929 . S
H669 C660 0.930 . S
H670 C661 0.931 . S
H671 C662 0.930 . S
C672 C674 1.422 . S
C672 C676 1.415 . S
C672 N678 1.369 . S
C673 C674 1.421 . S
C673 C675 1.417 . S
C673 C685 1.422 . S
C674 C672 1.422 . S
C674 C673 1.421 . S
C674 N684 1.359 . S
C675 C673 1.417 . S
C675 C677 1.329 . S
C675 H694 0.930 . S
C676 C672 1.415 . S
C676 C677 1.437 . S
C676 C680 1.413 . S
C677 C675 1.329 . S
C677 C676 1.437 . S
C677 H699 0.929 . S
N678 C672 1.369 . S
N678 C679 1.338 . S
N678 Gd683 2.622 . S
C679 N678 1.338 . S
C679 C681 1.378 . S
C679 H691 0.929 . S
C680 C676 1.413 . S
C680 C681 1.348 . S
C680 H696 0.931 . S
C681 C679 1.378 . S
C681 C680 1.348 . S
C681 H697 0.930 . S
Gd682 N702 2.622 . S
Gd682 N709 2.570 . S
Gd682 O716 2.353 . S
Gd682 O717 2.468 . S
Gd682 O718 2.427 . S
Gd682 O720 2.388 . S
Gd682 O721 2.386 . S
Gd682 O725 2.307 . S
Gd682 C735 2.805 . S
Gd683 N678 2.622 . S
Gd683 N684 2.570 . S
Gd683 O715 2.386 . S
Gd683 O719 2.307 . S
Gd683 O722 2.353 . S
Gd683 O723 2.468 . S
Gd683 O724 2.427 . S
Gd683 O726 2.388 . S
Gd683 C747 2.805 . S
N684 C674 1.359 . S
N684 Gd683 2.570 . S
N684 C686 1.343 . S
C685 C673 1.422 . S
C685 C687 1.321 . S
C685 H693 0.931 . S
C686 N684 1.343 . S
C686 C687 1.390 . S
C686 H688 0.931 . S
C687 C685 1.321 . S
C687 C686 1.390 . S
C687 H689 0.930 . S
H688 C686 0.931 . S
H689 C687 0.930 . S
H690 C713 0.931 . S
H691 C679 0.929 . S
H692 C714 0.930 . S
H693 C685 0.931 . S
H694 C675 0.930 . S
H695 C704 0.929 . S
H696 C680 0.931 . S
H697 C681 0.930 . S
H698 C736 0.930 . S
H699 C677 0.929 . S
H700 C705 0.931 . S
H701 C706 0.930 . S
N702 Gd682 2.622 . S
N702 C703 1.369 . S
N702 C704 1.338 . S
C703 N702 1.369 . S
C703 C707 1.415 . S
C703 C710 1.422 . S
C704 H695 0.929 . S
C704 N702 1.338 . S
C704 C706 1.378 . S
C705 H700 0.931 . S
C705 C706 1.348 . S
C705 C707 1.413 . S
C706 H701 0.930 . S
C706 C704 1.378 . S
C706 C705 1.348 . S
C707 C703 1.415 . S
C707 C705 1.413 . S
C707 C737 1.437 . S
H708 C737 0.929 . S
N709 Gd682 2.570 . S
N709 C710 1.359 . S
N709 C713 1.343 . S
C710 C703 1.422 . S
C710 N709 1.359 . S
C710 C712 1.421 . S
C711 C712 1.422 . S
C711 C714 1.321 . S
C711 H738 0.931 . S
C712 C710 1.421 . S
C712 C711 1.422 . S
C712 C736 1.417 . S
C713 H690 0.931 . S
C713 N709 1.343 . S
C713 C714 1.390 . S
C714 H692 0.930 . S
C714 C711 1.321 . S
C714 C713 1.390 . S
O715 Gd683 2.386 . S
O715 C727 1.265 . S
O716 Gd682 2.353 . S
O716 C727 1.242 . S
O717 Gd682 2.468 . S
O717 C735 1.263 . S
O718 Gd682 2.427 . S
O718 C735 1.252 . S
O719 Gd683 2.307 . S
O719 C728 1.261 . S
O720 Gd682 2.388 . S
O720 C728 1.252 . S
O721 Gd682 2.386 . S
O721 C739 1.265 . S
O722 Gd683 2.353 . S
O722 C739 1.242 . S
O723 Gd683 2.468 . S
O723 C747 1.263 . S
O724 Gd683 2.427 . S
O724 C747 1.252 . S
O725 Gd682 2.307 . S
O725 C740 1.261 . S
O726 Gd683 2.388 . S
O726 C740 1.252 . S
C727 O715 1.265 . S
C727 O716 1.242 . S
C728 O719 1.261 . S
C728 O720 1.252 . S
C729 C732 1.394 . S
C729 C734 1.370 . S
C729 C735 1.500 . S
C730 C733 1.383 . S
C730 C734 1.395 . S
C731 C732 1.396 . S
C731 C733 1.365 . S
C731 H748 0.929 . S
C732 C729 1.394 . S
C732 C731 1.396 . S
C732 H749 0.930 . S
C733 C730 1.383 . S
C733 C731 1.365 . S
C733 H750 0.931 . S
C734 C729 1.370 . S
C734 C730 1.395 . S
C734 H751 0.930 . S
C735 Gd682 2.805 . S
C735 O717 1.263 . S
C735 O718 1.252 . S
C735 C729 1.500 . S
C736 H698 0.930 . S
C736 C712 1.417 . S
C736 C737 1.329 . S
C737 C707 1.437 . S
C737 H708 0.929 . S
C737 C736 1.329 . S
H738 C711 0.931 . S
C739 O721 1.265 . S
C739 O722 1.242 . S
C740 O725 1.261 . S
C740 O726 1.252 . S
C741 C744 1.394 . S
C741 C746 1.370 . S
C741 C747 1.500 . S
C742 C745 1.383 . S
C742 C746 1.395 . S
C743 C744 1.396 . S
C743 C745 1.365 . S
C743 H752 0.929 . S
C744 C741 1.394 . S
C744 C743 1.396 . S
C744 H753 0.930 . S
C745 C742 1.383 . S
C745 C743 1.365 . S
C745 H754 0.931 . S
C746 C741 1.370 . S
C746 C742 1.395 . S
C746 H755 0.930 . S
C747 Gd683 2.805 . S
C747 O723 1.263 . S
C747 O724 1.252 . S
C747 C741 1.500 . S
H748 C731 0.929 . S
H749 C732 0.930 . S
H750 C733 0.931 . S
H751 C734 0.930 . S
H752 C743 0.929 . S
H753 C744 0.930 . S
H754 C745 0.931 . S
H755 C746 0.930 . S
C756 C758 1.422 . S
C756 C760 1.415 . S
C756 N762 1.369 . S
C757 C758 1.421 . S
C757 C759 1.417 . S
C757 C769 1.422 1_655 S
C758 C756 1.422 . S
C758 C757 1.421 . S
C758 N768 1.359 1_655 S
C759 C757 1.417 . S
C759 C761 1.329 . S
C759 H778 0.930 . S
C760 C756 1.415 . S
C760 C761 1.437 . S
C760 C764 1.413 . S
C761 C759 1.329 . S
C761 C760 1.437 . S
C761 H783 0.929 . S
N762 C756 1.369 . S
N762 C763 1.338 . S
N762 Gd767 2.622 1_655 S
C763 N762 1.338 . S
C763 C765 1.378 . S
C763 H775 0.929 . S
C764 C760 1.413 . S
C764 C765 1.348 . S
C764 H780 0.931 . S
C765 C763 1.378 . S
C765 C764 1.348 . S
C765 H781 0.930 . S
Gd766 N786 2.622 1_656 S
Gd766 N793 2.570 . S
Gd766 O800 2.370 . S
Gd766 O801 2.465 1_556 S
Gd766 O802 2.427 1_556 S
Gd766 O804 2.388 1_656 S
Gd766 O805 2.386 1_655 S
Gd766 O809 2.307 . S
Gd766 C819 2.805 1_556 S
Gd767 N762 2.622 1_455 S
Gd767 N768 2.570 . S
Gd767 O799 2.386 1_455 S
Gd767 O803 2.307 . S
Gd767 O806 2.353 . S
Gd767 O807 2.468 . S
Gd767 O808 2.427 . S
Gd767 O810 2.388 1_455 S
Gd767 C831 2.805 . S
N768 C758 1.359 1_455 S
N768 Gd767 2.570 . S
N768 C770 1.343 . S
C769 C757 1.422 1_455 S
C769 C771 1.321 . S
C769 H777 0.931 . S
C770 N768 1.343 . S
C770 C771 1.390 . S
C770 H772 0.931 . S
C771 C769 1.321 . S
C771 C770 1.390 . S
C771 H773 0.930 . S
H772 C770 0.931 . S
H773 C771 0.930 . S
H774 C797 0.931 . S
H775 C763 0.929 . S
H776 C798 0.930 . S
H777 C769 0.931 . S
H778 C759 0.930 . S
H779 C788 0.929 . S
H780 C764 0.931 . S
H781 C765 0.930 . S
H782 C820 0.930 . S
H783 C761 0.929 . S
H784 C789 0.931 . S
H785 C790 0.930 . S
N786 Gd766 2.622 1_454 S
N786 C787 1.369 1_554 S
N786 C788 1.338 . S
C787 N786 1.369 1_556 S
C787 C791 1.426 . S
C787 C794 1.422 . S
C788 H779 0.929 . S
C788 N786 1.338 . S
C788 C790 1.378 . S
C789 H784 0.931 . S
C789 C790 1.348 . S
C789 C791 1.385 1_554 S
C790 H785 0.930 . S
C790 C788 1.378 . S
C790 C789 1.348 . S
C791 C787 1.426 . S
C791 C789 1.385 1_556 S
C791 C821 1.458 . S
H792 C821 0.929 . S
N793 Gd766 2.570 . S
N793 C794 1.359 1_655 S
N793 C797 1.343 . S
C794 C787 1.422 . S
C794 N793 1.359 1_455 S
C794 C796 1.421 . S
C795 C796 1.422 1_655 S
C795 C798 1.321 . S
C795 H822 0.931 . S
C796 C794 1.421 . S
C796 C795 1.422 1_455 S
C796 C820 1.417 . S
C797 H774 0.931 . S
C797 N793 1.343 . S
C797 C798 1.390 . S
C798 H776 0.930 . S
C798 C795 1.321 . S
C798 C797 1.390 . S
O799 Gd767 2.386 1_655 S
O799 C811 1.265 . S
O800 Gd766 2.370 . S
O800 C811 1.260 . S
O801 Gd766 2.465 1_554 S
O801 C819 1.274 . S
O802 Gd766 2.427 1_554 S
O802 C819 1.252 . S
O803 Gd767 2.307 . S
O803 C812 1.261 . S
O804 Gd766 2.388 1_454 S
O804 C812 1.252 1_554 S
O805 Gd766 2.386 1_455 S
O805 C823 1.265 . S
O806 Gd767 2.353 . S
O806 C823 1.242 . S
O807 Gd767 2.468 . S
O807 C831 1.263 . S
O808 Gd767 2.427 . S
O808 C831 1.252 . S
O809 Gd766 2.307 . S
O809 C824 1.261 . S
O810 Gd767 2.388 1_655 S
O810 C824 1.252 . S
C811 O799 1.265 . S
C811 O800 1.260 . S
C812 O803 1.261 . S
C812 O804 1.252 1_556 S
C813 C816 1.394 . S
C813 C818 1.370 . S
C813 C819 1.500 . S
C814 C817 1.383 . S
C814 C818 1.395 . S
C815 C816 1.396 . S
C815 C817 1.365 . S
C815 H832 0.929 . S
C816 C813 1.394 . S
C816 C815 1.396 . S
C816 H833 0.930 . S
C817 C814 1.383 . S
C817 C815 1.365 . S
C817 H834 0.931 . S
C818 C813 1.370 . S
C818 C814 1.395 . S
C818 H835 0.930 . S
C819 Gd766 2.805 1_554 S
C819 O801 1.274 . S
C819 O802 1.252 . S
C819 C813 1.500 . S
C820 H782 0.930 . S
C820 C796 1.417 . S
C820 C821 1.329 . S
C821 C791 1.458 . S
C821 H792 0.929 . S
C821 C820 1.329 . S
H822 C795 0.931 . S
C823 O805 1.265 . S
C823 O806 1.242 . S
C824 O809 1.261 . S
C824 O810 1.252 . S
C825 C828 1.394 . S
C825 C830 1.370 . S
C825 C831 1.500 . S
C826 C829 1.383 . S
C826 C830 1.395 . S
C827 C828 1.396 . S
C827 C829 1.365 . S
C827 H836 0.929 . S
C828 C825 1.394 . S
C828 C827 1.396 . S
C828 H837 0.930 . S
C829 C826 1.383 . S
C829 C827 1.365 . S
C829 H838 0.931 . S
C830 C825 1.370 . S
C830 C826 1.395 . S
C830 H839 0.930 . S
C831 Gd767 2.805 . S
C831 O807 1.263 . S
C831 O808 1.252 . S
C831 C825 1.500 . S
H832 C815 0.929 . S
H833 C816 0.930 . S
H834 C817 0.931 . S
H835 C818 0.930 . S
H836 C827 0.929 . S
H837 C828 0.930 . S
H838 C829 0.931 . S
H839 C830 0.930 . S
C840 C842 1.422 . S
C840 C844 1.415 . S
C840 N846 1.369 . S
C841 C842 1.421 . S
C841 C843 1.417 . S
C841 C853 1.422 1_565 S
C842 C840 1.422 . S
C842 C841 1.421 . S
C842 N852 1.359 1_565 S
C843 C841 1.417 . S
C843 C845 1.329 . S
C843 H862 0.930 . S
C844 C840 1.415 . S
C844 C845 1.437 . S
C844 C848 1.413 . S
C845 C843 1.329 . S
C845 C844 1.437 . S
C845 H867 0.929 . S
N846 C840 1.369 . S
N846 C847 1.338 . S
N846 Gd851 2.622 1_565 S
C847 N846 1.338 . S
C847 C849 1.378 . S
C847 H859 0.929 . S
C848 C844 1.413 . S
C848 C849 1.348 . S
C848 H864 0.931 . S
C849 C847 1.378 . S
C849 C848 1.348 . S
C849 H865 0.930 . S
Gd850 N870 2.622 1_565 S
Gd850 N877 2.570 . S
Gd850 O884 2.353 . S
Gd850 O885 2.468 . S
Gd850 O886 2.427 . S
Gd850 O888 2.388 1_565 S
Gd850 O889 2.386 1_565 S
Gd850 O893 2.307 . S
Gd850 C903 2.805 . S
Gd851 N846 2.622 1_545 S
Gd851 N852 2.570 . S
Gd851 O883 2.386 1_545 S
Gd851 O887 2.307 . S
Gd851 O890 2.353 . S
Gd851 O891 2.468 . S
Gd851 O892 2.427 . S
Gd851 O894 2.388 1_545 S
Gd851 C915 2.805 . S
N852 C842 1.359 1_545 S
N852 Gd851 2.570 . S
N852 C854 1.343 . S
C853 C841 1.422 1_545 S
C853 C855 1.321 . S
C853 H861 0.931 . S
C854 N852 1.343 . S
C854 C855 1.390 . S
C854 H856 0.931 . S
C855 C853 1.321 . S
C855 C854 1.390 . S
C855 H857 0.930 . S
H856 C854 0.931 . S
H857 C855 0.930 . S
H858 C881 0.931 . S
H859 C847 0.929 . S
H860 C882 0.930 . S
H861 C853 0.931 . S
H862 C843 0.930 . S
H863 C872 0.929 . S
H864 C848 0.931 . S
H865 C849 0.930 . S
H866 C904 0.930 . S
H867 C845 0.929 . S
H868 C873 0.931 . S
H869 C874 0.930 . S
N870 Gd850 2.622 1_545 S
N870 C871 1.369 . S
N870 C872 1.338 . S
C871 N870 1.369 . S
C871 C875 1.415 . S
C871 C878 1.422 . S
C872 H863 0.929 . S
C872 N870 1.338 . S
C872 C874 1.378 . S
C873 H868 0.931 . S
C873 C874 1.348 . S
C873 C875 1.413 . S
C874 H869 0.930 . S
C874 C872 1.378 . S
C874 C873 1.348 . S
C875 C871 1.415 . S
C875 C873 1.413 . S
C875 C905 1.437 . S
H876 C905 0.929 . S
N877 Gd850 2.570 . S
N877 C878 1.359 1_565 S
N877 C881 1.343 . S
C878 C871 1.422 . S
C878 N877 1.359 1_545 S
C878 C880 1.421 . S
C879 C880 1.422 1_565 S
C879 C882 1.321 . S
C879 H906 0.931 . S
C880 C878 1.421 . S
C880 C879 1.422 1_545 S
C880 C904 1.417 . S
C881 H858 0.931 . S
C881 N877 1.343 . S
C881 C882 1.390 . S
C882 H860 0.930 . S
C882 C879 1.321 . S
C882 C881 1.390 . S
O883 Gd851 2.386 1_565 S
O883 C895 1.265 . S
O884 Gd850 2.353 . S
O884 C895 1.242 . S
O885 Gd850 2.468 . S
O885 C903 1.263 . S
O886 Gd850 2.427 . S
O886 C903 1.252 . S
O887 Gd851 2.307 . S
O887 C896 1.261 . S
O888 Gd850 2.388 1_545 S
O888 C896 1.252 . S
O889 Gd850 2.386 1_545 S
O889 C907 1.265 . S
O890 Gd851 2.353 . S
O890 C907 1.242 . S
O891 Gd851 2.468 . S
O891 C915 1.263 . S
O892 Gd851 2.427 . S
O892 C915 1.252 . S
O893 Gd850 2.307 . S
O893 C908 1.261 . S
O894 Gd851 2.388 1_565 S
O894 C908 1.252 . S
C895 O883 1.265 . S
C895 O884 1.242 . S
C896 O887 1.261 . S
C896 O888 1.252 . S
C897 C900 1.394 . S
C897 C902 1.370 . S
C897 C903 1.500 . S
C898 C901 1.383 . S
C898 C902 1.395 . S
C899 C900 1.396 . S
C899 C901 1.365 . S
C899 H916 0.929 . S
C900 C897 1.394 . S
C900 C899 1.396 . S
C900 H917 0.930 . S
C901 C898 1.383 . S
C901 C899 1.365 . S
C901 H918 0.931 . S
C902 C897 1.370 . S
C902 C898 1.395 . S
C902 H919 0.930 . S
C903 Gd850 2.805 . S
C903 O885 1.263 . S
C903 O886 1.252 . S
C903 C897 1.500 . S
C904 H866 0.930 . S
C904 C880 1.417 . S
C904 C905 1.329 . S
C905 C875 1.437 . S
C905 H876 0.929 . S
C905 C904 1.329 . S
H906 C879 0.931 . S
C907 O889 1.265 . S
C907 O890 1.242 . S
C908 O893 1.261 . S
C908 O894 1.252 . S
C909 C912 1.394 . S
C909 C914 1.370 . S
C909 C915 1.500 . S
C910 C913 1.383 . S
C910 C914 1.395 . S
C911 C912 1.396 . S
C911 C913 1.365 . S
C911 H920 0.929 . S
C912 C909 1.394 . S
C912 C911 1.396 . S
C912 H921 0.930 . S
C913 C910 1.383 . S
C913 C911 1.365 . S
C913 H922 0.931 . S
C914 C909 1.370 . S
C914 C910 1.395 . S
C914 H923 0.930 . S
C915 Gd851 2.805 . S
C915 O891 1.263 . S
C915 O892 1.252 . S
C915 C909 1.500 . S
H916 C899 0.929 . S
H917 C900 0.930 . S
H918 C901 0.931 . S
H919 C902 0.930 . S
H920 C911 0.929 . S
H921 C912 0.930 . S
H922 C913 0.931 . S
H923 C914 0.930 . S
C924 C926 1.422 . S
C924 C928 1.415 . S
C924 N930 1.369 . S
C925 C926 1.421 . S
C925 C927 1.417 . S
C925 C937 1.422 . S
C926 C924 1.422 . S
C926 C925 1.421 . S
C926 N936 1.359 . S
C927 C925 1.417 . S
C927 C929 1.329 . S
C927 H946 0.930 . S
C928 C924 1.415 . S
C928 C929 1.437 . S
C928 C932 1.413 . S
C929 C927 1.329 . S
C929 C928 1.437 . S
C929 H951 0.929 . S
N930 C924 1.369 . S
N930 C931 1.338 . S
N930 Gd935 2.622 . S
C931 N930 1.338 . S
C931 C933 1.378 . S
C931 H943 0.929 . S
C932 C928 1.413 . S
C932 C933 1.348 . S
C932 H948 0.931 . S
C933 C931 1.378 . S
C933 C932 1.348 . S
C933 H949 0.930 . S
Gd934 N954 2.622 . S
Gd934 N961 2.570 . S
Gd934 O968 2.353 . S
Gd934 O969 2.468 . S
Gd934 O970 2.427 . S
Gd934 O972 2.388 . S
Gd934 O973 2.386 . S
Gd934 O977 2.307 . S
Gd934 C987 2.805 . S
Gd935 N930 2.622 . S
Gd935 N936 2.570 . S
Gd935 O967 2.386 . S
Gd935 O971 2.307 . S
Gd935 O974 2.353 . S
Gd935 O975 2.468 . S
Gd935 O976 2.427 . S
Gd935 O978 2.388 . S
Gd935 C999 2.805 . S
N936 C926 1.359 . S
N936 Gd935 2.570 . S
N936 C938 1.343 . S
C937 C925 1.422 . S
C937 C939 1.321 . S
C937 H945 0.931 . S
C938 N936 1.343 . S
C938 C939 1.390 . S
C938 H940 0.931 . S
C939 C937 1.321 . S
C939 C938 1.390 . S
C939 H941 0.930 . S
H940 C938 0.931 . S
H941 C939 0.930 . S
H942 C965 0.931 . S
H943 C931 0.929 . S
H944 C966 0.930 . S
H945 C937 0.931 . S
H946 C927 0.930 . S
H947 C956 0.929 . S
H948 C932 0.931 . S
H949 C933 0.930 . S
H950 C988 0.930 . S
H951 C929 0.929 . S
H952 C957 0.931 . S
H953 C958 0.930 . S
N954 Gd934 2.622 . S
N954 C955 1.369 . S
N954 C956 1.338 . S
C955 N954 1.369 . S
C955 C959 1.415 . S
C955 C962 1.422 . S
C956 H947 0.929 . S
C956 N954 1.338 . S
C956 C958 1.378 . S
C957 H952 0.931 . S
C957 C958 1.348 . S
C957 C959 1.413 . S
C958 H953 0.930 . S
C958 C956 1.378 . S
C958 C957 1.348 . S
C959 C955 1.415 . S
C959 C957 1.413 . S
C959 C989 1.437 . S
H960 C989 0.929 . S
N961 Gd934 2.570 . S
N961 C962 1.359 . S
N961 C965 1.343 . S
C962 C955 1.422 . S
C962 N961 1.359 . S
C962 C964 1.421 . S
C963 C964 1.422 . S
C963 C966 1.321 . S
C963 H990 0.931 . S
C964 C962 1.421 . S
C964 C963 1.422 . S
C964 C988 1.417 . S
C965 H942 0.931 . S
C965 N961 1.343 . S
C965 C966 1.390 . S
C966 H944 0.930 . S
C966 C963 1.321 . S
C966 C965 1.390 . S
O967 Gd935 2.386 . S
O967 C979 1.265 . S
O968 Gd934 2.353 . S
O968 C979 1.242 . S
O969 Gd934 2.468 . S
O969 C987 1.263 . S
O970 Gd934 2.427 . S
O970 C987 1.252 . S
O971 Gd935 2.307 . S
O971 C980 1.261 . S
O972 Gd934 2.388 . S
O972 C980 1.252 . S
O973 Gd934 2.386 . S
O973 C991 1.265 . S
O974 Gd935 2.353 . S
O974 C991 1.242 . S
O975 Gd935 2.468 . S
O975 C999 1.263 . S
O976 Gd935 2.427 . S
O976 C999 1.252 . S
O977 Gd934 2.307 . S
O977 C992 1.261 . S
O978 Gd935 2.388 . S
O978 C992 1.252 . S
C979 O967 1.265 . S
C979 O968 1.242 . S
C980 O971 1.261 . S
C980 O972 1.252 . S
C981 C984 1.394 . S
C981 C986 1.370 . S
C981 C987 1.500 . S
C982 C985 1.383 . S
C982 C986 1.395 . S
C983 C984 1.396 . S
C983 C985 1.365 . S
C983 H1000 0.929 . S
C984 C981 1.394 . S
C984 C983 1.396 . S
C984 H1001 0.930 . S
C985 C982 1.383 . S
C985 C983 1.365 . S
C985 H1002 0.931 . S
C986 C981 1.370 . S
C986 C982 1.395 . S
C986 H1003 0.930 . S
C987 Gd934 2.805 . S
C987 O969 1.263 . S
C987 O970 1.252 . S
C987 C981 1.500 . S
C988 H950 0.930 . S
C988 C964 1.417 . S
C988 C989 1.329 . S
C989 C959 1.437 . S
C989 H960 0.929 . S
C989 C988 1.329 . S
H990 C963 0.931 . S
C991 O973 1.265 . S
C991 O974 1.242 . S
C992 O977 1.261 . S
C992 O978 1.252 . S
C993 C996 1.394 . S
C993 C998 1.370 . S
C993 C999 1.500 . S
C994 C997 1.383 . S
C994 C998 1.395 . S
C995 C996 1.396 . S
C995 C997 1.365 . S
C995 H1004 0.929 . S
C996 C993 1.394 . S
C996 C995 1.396 . S
C996 H1005 0.930 . S
C997 C994 1.383 . S
C997 C995 1.365 . S
C997 H1006 0.931 . S
C998 C993 1.370 . S
C998 C994 1.395 . S
C998 H1007 0.930 . S
C999 Gd935 2.805 . S
C999 O975 1.263 . S
C999 O976 1.252 . S
C999 C993 1.500 . S
H1000 C983 0.929 . S
H1001 C984 0.930 . S
H1002 C985 0.931 . S
H1003 C986 0.930 . S
H1004 C995 0.929 . S
H1005 C996 0.930 . S
H1006 C997 0.931 . S
H1007 C998 0.930 . S
C1008 C1009 1.363 . S
C1008 C1014 1.379 . S
C1008 N1016 1.356 . S
C1009 C1008 1.363 . S
C1009 C1015 1.363 . S
C1010 C1011 1.363 . S
C1010 C1015 1.379 . S
C1010 N1017 1.356 . S
C1011 C1010 1.363 . S
C1011 C1014 1.363 . S
N1012 C1014 1.356 . S
N1012 H1024 0.984 1_455 S
N1012 H1025 0.985 . S
N1013 C1015 1.356 . S
N1013 H1018 0.984 . S
N1013 H1019 0.985 . S
C1014 C1008 1.379 . S
C1014 C1011 1.363 . S
C1014 N1012 1.356 . S
C1015 C1009 1.363 . S
C1015 C1010 1.379 . S
C1015 N1013 1.356 . S
N1016 C1008 1.356 . S
N1016 H1022 0.984 1_455 S
N1016 H1023 0.984 . S
N1017 C1010 1.356 . S
N1017 H1020 0.984 . S
N1017 H1021 0.985 . S
H1018 N1013 0.984 . S
H1019 N1013 0.985 . S
H1020 N1017 0.984 . S
H1021 N1017 0.985 . S
H1022 N1016 0.984 1_655 S
H1023 N1016 0.984 . S
H1024 N1012 0.984 1_655 S
H1025 N1012 0.985 . S
C1026 C1027 1.363 . S
C1026 C1032 1.379 . S
C1026 N1034 1.356 1_545 S
C1027 C1026 1.363 . S
C1027 C1033 1.363 . S
C1028 C1029 1.363 . S
C1028 C1033 1.379 . S
C1028 N1035 1.356 . S
C1029 C1028 1.363 . S
C1029 C1032 1.363 . S
N1030 C1032 1.363 . S
N1030 H1042 0.973 1_545 S
N1030 H1043 0.989 . S
N1031 C1033 1.356 . S
N1031 H1036 0.984 . S
N1031 H1037 0.985 . S
C1032 C1026 1.379 . S
C1032 C1029 1.363 . S
C1032 N1030 1.363 . S
C1033 C1027 1.363 . S
C1033 C1028 1.379 . S
C1033 N1031 1.356 . S
N1034 C1026 1.356 1_565 S
N1034 H1040 0.984 . S
N1034 H1041 0.984 1_565 S
N1035 C1028 1.356 . S
N1035 H1038 0.984 . S
N1035 H1039 0.985 . S
H1036 N1031 0.984 . S
H1037 N1031 0.985 . S
H1038 N1035 0.984 . S
H1039 N1035 0.985 . S
H1040 N1034 0.984 . S
H1041 N1034 0.984 1_545 S
H1042 N1030 0.973 1_565 S
H1043 N1030 0.989 . S
C1044 C1045 1.363 . S
C1044 C1050 1.379 . S
C1044 N1052 1.356 . S
C1045 C1044 1.363 . S
C1045 C1051 1.363 . S
C1046 C1047 1.363 . S
C1046 C1051 1.379 . S
C1046 N1053 1.356 . S
C1047 C1046 1.363 . S
C1047 C1050 1.363 . S
N1048 C1050 1.356 . S
N1048 H1060 0.984 . S
N1048 H1061 0.985 . S
N1049 C1051 1.356 . S
N1049 H1054 0.984 . S
N1049 H1055 0.985 . S
C1050 C1044 1.379 . S
C1050 C1047 1.363 . S
C1050 N1048 1.356 . S
C1051 C1045 1.363 . S
C1051 C1046 1.379 . S
C1051 N1049 1.356 . S
N1052 C1044 1.356 . S
N1052 H1058 0.984 . S
N1052 H1059 0.984 . S
N1053 C1046 1.356 . S
N1053 H1056 0.984 . S
N1053 H1057 0.985 . S
H1054 N1049 0.984 . S
H1055 N1049 0.985 . S
H1056 N1053 0.984 . S
H1057 N1053 0.985 . S
H1058 N1052 0.984 . S
H1059 N1052 0.984 . S
H1060 N1048 0.984 . S
H1061 N1048 0.985 . S
C1062 C1063 1.363 . S
C1062 C1068 1.379 . S
C1062 N1070 1.356 . S
C1063 C1062 1.363 . S
C1063 C1069 1.363 . S
C1064 C1065 1.363 . S
C1064 C1069 1.379 . S
C1064 N1071 1.356 . S
C1065 C1064 1.363 . S
C1065 C1068 1.363 . S
N1066 C1068 1.356 . S
N1066 H1078 0.984 . S
N1066 H1079 0.985 . S
N1067 C1069 1.356 . S
N1067 H1072 0.984 . S
N1067 H1073 0.985 1_655 S
C1068 C1062 1.379 . S
C1068 C1065 1.363 . S
C1068 N1066 1.356 . S
C1069 C1063 1.363 . S
C1069 C1064 1.379 . S
C1069 N1067 1.356 . S
N1070 C1062 1.356 . S
N1070 H1076 0.984 . S
N1070 H1077 0.984 . S
N1071 C1064 1.356 . S
N1071 H1074 0.984 . S
N1071 H1075 0.985 1_655 S
H1072 N1067 0.984 . S
H1073 N1067 0.985 1_455 S
H1074 N1071 0.984 . S
H1075 N1071 0.985 1_455 S
H1076 N1070 0.984 . S
H1077 N1070 0.984 . S
H1078 N1066 0.984 . S
H1079 N1066 0.985 . S
C1080 C1081 1.363 . S
C1080 C1086 1.379 . S
C1080 N1088 1.356 . S
C1081 C1080 1.363 . S
C1081 C1087 1.363 . S
C1082 C1083 1.363 . S
C1082 C1087 1.379 . S
C1082 N1089 1.356 . S
C1083 C1082 1.363 . S
C1083 C1086 1.363 . S
N1084 C1086 1.356 . S
N1084 H1096 0.984 1_565 S
N1084 H1097 0.985 . S
N1085 C1087 1.356 . S
N1085 H1090 0.984 . S
N1085 H1091 0.985 . S
C1086 C1080 1.379 . S
C1086 C1083 1.363 . S
C1086 N1084 1.356 . S
C1087 C1081 1.363 . S
C1087 C1082 1.379 . S
C1087 N1085 1.356 . S
N1088 C1080 1.356 . S
N1088 H1094 0.984 1_565 S
N1088 H1095 0.984 . S
N1089 C1082 1.356 . S
N1089 H1092 0.984 . S
N1089 H1093 0.985 . S
H1090 N1085 0.984 . S
H1091 N1085 0.985 . S
H1092 N1089 0.984 . S
H1093 N1089 0.985 . S
H1094 N1088 0.984 1_545 S
H1095 N1088 0.984 . S
H1096 N1084 0.984 1_545 S
H1097 N1084 0.985 . S
C1098 C1099 1.363 . S
C1098 C1104 1.379 . S
C1098 N1106 1.356 . S
C1099 C1098 1.363 . S
C1099 C1105 1.363 . S
C1100 C1101 1.363 . S
C1100 C1105 1.379 . S
C1100 N1107 1.356 . S
C1101 C1100 1.363 . S
C1101 C1104 1.363 . S
N1102 C1104 1.356 . S
N1102 H1114 0.984 . S
N1102 H1115 0.985 . S
N1103 C1105 1.356 . S
N1103 H1108 0.984 . S
N1103 H1109 0.985 . S
C1104 C1098 1.379 . S
C1104 C1101 1.363 . S
C1104 N1102 1.356 . S
C1105 C1099 1.363 . S
C1105 C1100 1.379 . S
C1105 N1103 1.356 . S
N1106 C1098 1.356 . S
N1106 H1112 0.984 . S
N1106 H1113 0.984 . S
N1107 C1100 1.356 . S
N1107 H1110 0.984 . S
N1107 H1111 0.985 . S
H1108 N1103 0.984 . S
H1109 N1103 0.985 . S
H1110 N1107 0.984 . S
H1111 N1107 0.985 . S
H1112 N1106 0.984 . S
H1113 N1106 0.984 . S
H1114 N1102 0.984 . S
H1115 N1102 0.985 . S
C1116 C1117 1.363 . S
C1116 C1122 1.379 . S
C1116 N1124 1.356 . S
C1117 C1116 1.363 . S
C1117 C1123 1.363 . S
C1118 C1119 1.363 . S
C1118 C1123 1.379 . S
C1118 N1125 1.356 . S
C1119 C1118 1.363 . S
C1119 C1122 1.363 . S
N1120 C1122 1.356 . S
N1120 H1132 0.984 . S
N1120 H1133 0.985 . S
N1121 C1123 1.356 . S
N1121 H1126 0.984 . S
N1121 H1127 0.985 . S
C1122 C1116 1.379 . S
C1122 C1119 1.363 . S
C1122 N1120 1.356 . S
C1123 C1117 1.363 . S
C1123 C1118 1.379 . S
C1123 N1121 1.356 . S
N1124 C1116 1.356 . S
N1124 H1130 0.984 1_565 S
N1124 H1131 0.984 . S
N1125 C1118 1.356 . S
N1125 H1128 0.984 . S
N1125 H1129 0.985 . S
H1126 N1121 0.984 . S
H1127 N1121 0.985 . S
H1128 N1125 0.984 . S
H1129 N1125 0.985 . S
H1130 N1124 0.984 1_545 S
H1131 N1124 0.984 . S
H1132 N1120 0.984 . S
H1133 N1120 0.985 . S
C1134 C1135 1.363 . S
C1134 C1140 1.379 . S
C1134 N1142 1.356 . S
C1135 C1134 1.363 . S
C1135 C1141 1.363 . S
C1136 C1137 1.363 . S
C1136 C1141 1.379 . S
C1136 N1143 1.356 . S
C1137 C1136 1.363 . S
C1137 C1140 1.363 . S
N1138 C1140 1.356 . S
N1138 H1150 0.984 . S
N1138 H1151 0.985 . S
N1139 C1141 1.356 . S
N1139 H1144 0.984 . S
N1139 H1145 0.985 . S
C1140 C1134 1.379 . S
C1140 C1137 1.363 . S
C1140 N1138 1.356 . S
C1141 C1135 1.363 . S
C1141 C1136 1.379 . S
C1141 N1139 1.356 . S
N1142 C1134 1.356 . S
N1142 H1148 0.984 . S
N1142 H1149 0.984 . S
N1143 C1136 1.356 . S
N1143 H1146 0.984 . S
N1143 H1147 0.985 . S
H1144 N1139 0.984 . S
H1145 N1139 0.985 . S
H1146 N1143 0.984 . S
H1147 N1143 0.985 . S
H1148 N1142 0.984 . S
H1149 N1142 0.984 . S
H1150 N1138 0.984 . S
H1151 N1138 0.985 . S
C1152 C1153 1.363 . S
C1152 C1158 1.379 . S
C1152 N1160 1.356 . S
C1153 C1152 1.363 . S
C1153 C1159 1.363 . S
C1154 C1155 1.363 . S
C1154 C1159 1.379 . S
C1154 N1161 1.356 . S
C1155 C1154 1.363 . S
C1155 C1158 1.363 . S
N1156 C1158 1.356 . S
N1156 H1168 0.984 . S
N1156 H1169 0.985 . S
N1157 C1159 1.356 . S
N1157 H1162 0.984 . S
N1157 H1163 0.985 . S
C1158 C1152 1.379 . S
C1158 C1155 1.363 . S
C1158 N1156 1.356 . S
C1159 C1153 1.363 . S
C1159 C1154 1.379 . S
C1159 N1157 1.356 . S
N1160 C1152 1.356 . S
N1160 H1166 0.984 . S
N1160 H1167 0.984 . S
N1161 C1154 1.356 . S
N1161 H1164 0.984 . S
N1161 H1165 0.985 . S
H1162 N1157 0.984 . S
H1163 N1157 0.985 . S
H1164 N1161 0.984 . S
H1165 N1161 0.985 . S
H1166 N1160 0.984 . S
H1167 N1160 0.984 . S
H1168 N1156 0.984 . S
H1169 N1156 0.985 . S
C1170 C1171 1.363 . S
C1170 C1176 1.379 . S
C1170 N1178 1.356 . S
C1171 C1170 1.363 . S
C1171 C1177 1.363 . S
C1172 C1173 1.363 . S
C1172 C1177 1.379 . S
C1172 N1179 1.356 . S
C1173 C1172 1.363 . S
C1173 C1176 1.363 . S
N1174 C1176 1.356 . S
N1174 H1186 0.984 . S
N1174 H1187 0.985 . S
N1175 C1177 1.356 . S
N1175 H1180 0.984 . S
N1175 H1181 0.985 1_545 S
C1176 C1170 1.379 . S
C1176 C1173 1.363 . S
C1176 N1174 1.356 . S
C1177 C1171 1.363 . S
C1177 C1172 1.379 . S
C1177 N1175 1.356 . S
N1178 C1170 1.356 . S
N1178 H1184 0.984 . S
N1178 H1185 0.984 . S
N1179 C1172 1.356 . S
N1179 H1182 0.984 . S
N1179 H1183 0.985 . S
H1180 N1175 0.984 . S
H1181 N1175 0.985 1_565 S
H1182 N1179 0.984 . S
H1183 N1179 0.985 . S
H1184 N1178 0.984 . S
H1185 N1178 0.984 . S
H1186 N1174 0.984 . S
H1187 N1174 0.985 . S
C1188 C1189 1.363 . S
C1188 C1194 1.379 . S
C1188 N1196 1.356 . S
C1189 C1188 1.363 . S
C1189 C1195 1.363 . S
C1190 C1191 1.363 . S
C1190 C1195 1.379 . S
C1190 N1197 1.356 . S
C1191 C1190 1.363 . S
C1191 C1194 1.363 . S
N1192 C1194 1.356 . S
N1192 H1204 0.984 . S
N1192 H1205 0.985 . S
N1193 C1195 1.356 . S
N1193 H1198 0.984 . S
N1193 H1199 0.985 . S
C1194 C1188 1.379 . S
C1194 C1191 1.363 . S
C1194 N1192 1.356 . S
C1195 C1189 1.363 . S
C1195 C1190 1.379 . S
C1195 N1193 1.356 . S
N1196 C1188 1.356 . S
N1196 H1202 0.984 . S
N1196 H1203 0.984 . S
N1197 C1190 1.356 . S
N1197 H1200 0.984 . S
N1197 H1201 0.985 . S
H1198 N1193 0.984 . S
H1199 N1193 0.985 . S
H1200 N1197 0.984 . S
H1201 N1197 0.985 . S
H1202 N1196 0.984 . S
H1203 N1196 0.984 . S
H1204 N1192 0.984 . S
H1205 N1192 0.985 . S
C1206 C1207 1.363 . S
C1206 C1212 1.379 . S
C1206 N1214 1.356 . S
C1207 C1206 1.363 . S
C1207 C1213 1.363 . S
C1208 C1209 1.363 . S
C1208 C1213 1.379 . S
C1208 N1215 1.356 . S
C1209 C1208 1.363 . S
C1209 C1212 1.363 . S
N1210 C1212 1.356 . S
N1210 H1222 0.984 . S
N1210 H1223 0.985 . S
N1211 C1213 1.356 . S
N1211 H1216 0.984 . S
N1211 H1217 0.985 . S
C1212 C1206 1.379 . S
C1212 C1209 1.363 . S
C1212 N1210 1.356 . S
C1213 C1207 1.363 . S
C1213 C1208 1.379 . S
C1213 N1211 1.356 . S
N1214 C1206 1.356 . S
N1214 H1220 0.984 . S
N1214 H1221 0.984 . S
N1215 C1208 1.356 . S
N1215 H1218 0.984 . S
N1215 H1219 0.985 . S
H1216 N1211 0.984 . S
H1217 N1211 0.985 . S
H1218 N1215 0.984 . S
H1219 N1215 0.985 . S
H1220 N1214 0.984 . S
H1221 N1214 0.984 . S
H1222 N1210 0.984 . S
H1223 N1210 0.985 . S
C1224 C1225 1.363 . S
C1224 C1230 1.379 . S
C1224 N1232 1.356 . S
C1225 C1224 1.363 . S
C1225 C1231 1.363 . S
C1226 C1227 1.363 . S
C1226 C1231 1.379 . S
C1226 N1233 1.356 . S
C1227 C1226 1.363 . S
C1227 C1230 1.363 . S
N1228 C1230 1.356 . S
N1228 H1240 0.984 . S
N1228 H1241 0.985 . S
N1229 C1231 1.356 . S
N1229 H1234 0.984 . S
N1229 H1235 0.985 . S
C1230 C1224 1.379 . S
C1230 C1227 1.363 . S
C1230 N1228 1.356 . S
C1231 C1225 1.363 . S
C1231 C1226 1.379 . S
C1231 N1229 1.356 . S
N1232 C1224 1.356 . S
N1232 H1238 0.984 . S
N1232 H1239 0.984 . S
N1233 C1226 1.356 . S
N1233 H1236 0.984 . S
N1233 H1237 0.985 . S
H1234 N1229 0.984 . S
H1235 N1229 0.985 . S
H1236 N1233 0.984 . S
H1237 N1233 0.985 . S
H1238 N1232 0.984 . S
H1239 N1232 0.984 . S
H1240 N1228 0.984 . S
H1241 N1228 0.985 . S
C1242 C1243 1.363 . S
C1242 C1248 1.379 . S
C1242 N1250 1.356 . S
C1243 C1242 1.363 . S
C1243 C1249 1.363 . S
C1244 C1245 1.363 . S
C1244 C1249 1.379 . S
C1244 N1251 1.356 . S
C1245 C1244 1.363 . S
C1245 C1248 1.363 . S
N1246 C1248 1.356 . S
N1246 H1258 0.984 . S
N1246 H1259 0.985 . S
N1247 C1249 1.356 . S
N1247 H1252 0.984 . S
N1247 H1253 0.985 . S
C1248 C1242 1.379 . S
C1248 C1245 1.363 . S
C1248 N1246 1.356 . S
C1249 C1243 1.363 . S
C1249 C1244 1.379 . S
C1249 N1247 1.356 . S
N1250 C1242 1.356 . S
N1250 H1256 0.984 . S
N1250 H1257 0.984 . S
N1251 C1244 1.356 . S
N1251 H1254 0.984 . S
N1251 H1255 0.985 . S
H1252 N1247 0.984 . S
H1253 N1247 0.985 . S
H1254 N1251 0.984 . S
H1255 N1251 0.985 . S
H1256 N1250 0.984 . S
H1257 N1250 0.984 . S
H1258 N1246 0.984 . S
H1259 N1246 0.985 . S
C1260 C1261 1.363 . S
C1260 C1266 1.379 . S
C1260 N1268 1.356 . S
C1261 C1260 1.363 . S
C1261 C1267 1.363 . S
C1262 C1263 1.363 . S
C1262 C1267 1.379 . S
C1262 N1269 1.356 . S
C1263 C1262 1.363 . S
C1263 C1266 1.363 . S
N1264 C1266 1.356 . S
N1264 H1276 0.984 . S
N1264 H1277 0.985 . S
N1265 C1267 1.356 . S
N1265 H1270 0.984 . S
N1265 H1271 0.985 . S
C1266 C1260 1.379 . S
C1266 C1263 1.363 . S
C1266 N1264 1.356 . S
C1267 C1261 1.363 . S
C1267 C1262 1.379 . S
C1267 N1265 1.356 . S
N1268 C1260 1.356 . S
N1268 H1274 0.984 . S
N1268 H1275 0.984 . S
N1269 C1262 1.356 . S
N1269 H1272 0.984 . S
N1269 H1273 0.985 . S
H1270 N1265 0.984 . S
H1271 N1265 0.985 . S
H1272 N1269 0.984 . S
H1273 N1269 0.985 . S
H1274 N1268 0.984 . S
H1275 N1268 0.984 . S
H1276 N1264 0.984 . S
H1277 N1264 0.985 . S
C1278 C1279 1.363 . S
C1278 C1284 1.379 . S
C1278 N1286 1.356 . S
C1279 C1278 1.363 . S
C1279 C1285 1.363 . S
C1280 C1281 1.363 . S
C1280 C1285 1.379 . S
C1280 N1287 1.356 . S
C1281 C1280 1.363 . S
C1281 C1284 1.363 . S
N1282 C1284 1.356 . S
N1282 H1294 0.984 . S
N1282 H1295 0.985 . S
N1283 C1285 1.356 . S
N1283 H1288 0.984 . S
N1283 H1289 0.985 . S
C1284 C1278 1.379 . S
C1284 C1281 1.363 . S
C1284 N1282 1.356 . S
C1285 C1279 1.363 . S
C1285 C1280 1.379 . S
C1285 N1283 1.356 . S
N1286 C1278 1.356 . S
N1286 H1292 0.984 . S
N1286 H1293 0.984 . S
N1287 C1280 1.356 . S
N1287 H1290 0.984 . S
N1287 H1291 0.985 . S
H1288 N1283 0.984 . S
H1289 N1283 0.985 . S
H1290 N1287 0.984 . S
H1291 N1287 0.985 . S
H1292 N1286 0.984 . S
H1293 N1286 0.984 . S
H1294 N1282 0.984 . S
H1295 N1282 0.985 . S
C1296 C1297 1.363 . S
C1296 C1302 1.379 . S
C1296 N1304 1.356 . S
C1297 C1296 1.363 . S
C1297 C1303 1.363 1_556 S
C1298 C1299 1.363 1_554 S
C1298 C1303 1.379 . S
C1298 N1305 1.356 . S
C1299 C1298 1.363 1_556 S
C1299 C1302 1.363 . S
N1300 C1302 1.356 . S
N1300 H1312 0.984 . S
N1300 H1313 0.985 . S
N1301 C1303 1.356 . S
N1301 H1306 0.984 . S
N1301 H1307 0.985 . S
C1302 C1296 1.379 . S
C1302 C1299 1.363 . S
C1302 N1300 1.356 . S
C1303 C1297 1.363 1_554 S
C1303 C1298 1.379 . S
C1303 N1301 1.356 . S
N1304 C1296 1.356 . S
N1304 H1310 0.984 . S
N1304 H1311 0.984 . S
N1305 C1298 1.356 . S
N1305 H1308 0.984 . S
N1305 H1309 0.985 . S
H1306 N1301 0.984 . S
H1307 N1301 0.985 . S
H1308 N1305 0.984 . S
H1309 N1305 0.985 . S
H1310 N1304 0.984 . S
H1311 N1304 0.984 . S
H1312 N1300 0.984 . S
H1313 N1300 0.985 . S
C1314 C1315 1.363 . S
C1314 C1320 1.379 . S
C1314 N1322 1.356 . S
C1315 C1314 1.363 . S
C1315 C1321 1.363 . S
C1316 C1317 1.363 . S
C1316 C1321 1.379 . S
C1316 N1323 1.356 . S
C1317 C1316 1.363 . S
C1317 C1320 1.363 . S
N1318 C1320 1.356 . S
N1318 H1330 0.984 . S
N1318 H1331 0.985 . S
N1319 C1321 1.356 . S
N1319 H1324 0.984 . S
N1319 H1325 0.985 . S
C1320 C1314 1.379 . S
C1320 C1317 1.363 . S
C1320 N1318 1.356 . S
C1321 C1315 1.363 . S
C1321 C1316 1.379 . S
C1321 N1319 1.356 . S
N1322 C1314 1.356 . S
N1322 H1328 0.984 . S
N1322 H1329 0.984 . S
N1323 C1316 1.356 . S
N1323 H1326 0.984 . S
N1323 H1327 0.985 . S
H1324 N1319 0.984 . S
H1325 N1319 0.985 . S
H1326 N1323 0.984 . S
H1327 N1323 0.985 . S
H1328 N1322 0.984 . S
H1329 N1322 0.984 . S
H1330 N1318 0.984 . S
H1331 N1318 0.985 . S
C1332 C1333 1.363 . S
C1332 C1338 1.379 . S
C1332 N1340 1.356 . S
C1333 C1332 1.363 . S
C1333 C1339 1.363 . S
C1334 C1335 1.363 . S
C1334 C1339 1.379 . S
C1334 N1341 1.356 . S
C1335 C1334 1.363 . S
C1335 C1338 1.363 . S
N1336 C1338 1.356 . S
N1336 H1348 0.984 . S
N1336 H1349 0.985 . S
N1337 C1339 1.356 . S
N1337 H1342 0.984 . S
N1337 H1343 0.985 . S
C1338 C1332 1.379 . S
C1338 C1335 1.363 . S
C1338 N1336 1.356 . S
C1339 C1333 1.363 . S
C1339 C1334 1.379 . S
C1339 N1337 1.356 . S
N1340 C1332 1.356 . S
N1340 H1346 0.984 . S
N1340 H1347 0.984 . S
N1341 C1334 1.356 . S
N1341 H1344 0.984 . S
N1341 H1345 0.985 . S
H1342 N1337 0.984 . S
H1343 N1337 0.985 . S
H1344 N1341 0.984 . S
H1345 N1341 0.985 . S
H1346 N1340 0.984 . S
H1347 N1340 0.984 . S
H1348 N1336 0.984 . S
H1349 N1336 0.985 . S
C1350 C1351 1.363 . S
C1350 C1356 1.379 . S
C1350 N1358 1.356 . S
C1351 C1350 1.363 . S
C1351 C1357 1.363 . S
C1352 C1353 1.363 . S
C1352 C1357 1.379 . S
C1352 N1359 1.356 . S
C1353 C1352 1.363 . S
C1353 C1356 1.363 . S
N1354 C1356 1.356 . S
N1354 H1366 0.984 . S
N1354 H1367 0.985 . S
N1355 C1357 1.356 . S
N1355 H1360 0.984 . S
N1355 H1361 0.985 . S
C1356 C1350 1.379 . S
C1356 C1353 1.363 . S
C1356 N1354 1.356 . S
C1357 C1351 1.363 . S
C1357 C1352 1.379 . S
C1357 N1355 1.356 . S
N1358 C1350 1.356 . S
N1358 H1364 0.984 . S
N1358 H1365 0.984 . S
N1359 C1352 1.356 . S
N1359 H1362 0.984 . S
N1359 H1363 0.985 . S
H1360 N1355 0.984 . S
H1361 N1355 0.985 . S
H1362 N1359 0.984 . S
H1363 N1359 0.985 . S
H1364 N1358 0.984 . S
H1365 N1358 0.984 . S
H1366 N1354 0.984 . S
H1367 N1354 0.985 . S
C1368 C1369 1.363 . S
C1368 C1374 1.379 . S
C1368 N1376 1.356 . S
C1369 C1368 1.363 . S
C1369 C1375 1.363 . S
C1370 C1371 1.363 . S
C1370 C1375 1.379 . S
C1370 N1377 1.356 . S
C1371 C1370 1.363 . S
C1371 C1374 1.363 . S
N1372 C1374 1.356 . S
N1372 H1384 0.984 . S
N1372 H1385 0.985 . S
N1373 C1375 1.356 . S
N1373 H1378 0.984 . S
N1373 H1379 0.985 . S
C1374 C1368 1.379 . S
C1374 C1371 1.363 . S
C1374 N1372 1.356 . S
C1375 C1369 1.363 . S
C1375 C1370 1.379 . S
C1375 N1373 1.356 . S
N1376 C1368 1.356 . S
N1376 H1382 0.984 . S
N1376 H1383 0.984 . S
N1377 C1370 1.356 . S
N1377 H1380 0.984 . S
N1377 H1381 0.985 . S
H1378 N1373 0.984 . S
H1379 N1373 0.985 . S
H1380 N1377 0.984 . S
H1381 N1377 0.985 . S
H1382 N1376 0.984 . S
H1383 N1376 0.984 . S
H1384 N1372 0.984 . S
H1385 N1372 0.985 . S
C1386 C1387 1.363 1_556 S
C1386 C1392 1.379 . S
C1386 N1394 1.356 . S
C1387 C1386 1.363 1_554 S
C1387 C1393 1.363 . S
C1388 C1389 1.363 . S
C1388 C1393 1.379 . S
C1388 N1395 1.356 . S
C1389 C1388 1.363 . S
C1389 C1392 1.363 1_554 S
N1390 C1392 1.356 . S
N1390 H1402 0.984 . S
N1390 H1403 0.985 . S
N1391 C1393 1.356 . S
N1391 H1396 0.984 . S
N1391 H1397 0.985 . S
C1392 C1386 1.379 . S
C1392 C1389 1.363 1_556 S
C1392 N1390 1.356 . S
C1393 C1387 1.363 . S
C1393 C1388 1.379 . S
C1393 N1391 1.356 . S
N1394 C1386 1.356 . S
N1394 H1400 0.984 . S
N1394 H1401 0.984 . S
N1395 C1388 1.356 . S
N1395 H1398 0.984 . S
N1395 H1399 0.985 . S
H1396 N1391 0.984 . S
H1397 N1391 0.985 . S
H1398 N1395 0.984 . S
H1399 N1395 0.985 . S
H1400 N1394 0.984 . S
H1401 N1394 0.984 . S
H1402 N1390 0.984 . S
H1403 N1390 0.985 . S
C1404 C1405 1.363 . S
C1404 C1410 1.379 . S
C1404 N1412 1.356 . S
C1405 C1404 1.363 . S
C1405 C1411 1.363 . S
C1406 C1407 1.363 . S
C1406 C1411 1.379 . S
C1406 N1413 1.356 . S
C1407 C1406 1.363 . S
C1407 C1410 1.363 . S
N1408 C1410 1.356 . S
N1408 H1420 0.984 . S
N1408 H1421 0.985 . S
N1409 C1411 1.356 . S
N1409 H1414 0.984 . S
N1409 H1415 0.985 . S
C1410 C1404 1.379 . S
C1410 C1407 1.363 . S
C1410 N1408 1.356 . S
C1411 C1405 1.363 . S
C1411 C1406 1.379 . S
C1411 N1409 1.356 . S
N1412 C1404 1.356 . S
N1412 H1418 0.984 . S
N1412 H1419 0.984 . S
N1413 C1406 1.356 . S
N1413 H1416 0.984 . S
N1413 H1417 0.985 . S
H1414 N1409 0.984 . S
H1415 N1409 0.985 . S
H1416 N1413 0.984 . S
H1417 N1413 0.985 . S
H1418 N1412 0.984 . S
H1419 N1412 0.984 . S
H1420 N1408 0.984 . S
H1421 N1408 0.985 . S
C1422 C1423 1.363 . S
C1422 C1428 1.379 . S
C1422 N1430 1.356 . S
C1423 C1422 1.363 . S
C1423 C1429 1.363 . S
C1424 C1425 1.363 . S
C1424 C1429 1.379 . S
C1424 N1431 1.356 . S
C1425 C1424 1.363 . S
C1425 C1428 1.363 . S
N1426 C1428 1.356 . S
N1426 H1438 0.984 . S
N1426 H1439 0.985 . S
N1427 C1429 1.356 . S
N1427 H1432 0.984 . S
N1427 H1433 0.985 . S
C1428 C1422 1.379 . S
C1428 C1425 1.363 . S
C1428 N1426 1.356 . S
C1429 C1423 1.363 . S
C1429 C1424 1.379 . S
C1429 N1427 1.356 . S
N1430 C1422 1.356 . S
N1430 H1436 0.984 . S
N1430 H1437 0.984 . S
N1431 C1424 1.356 . S
N1431 H1434 0.984 . S
N1431 H1435 0.985 . S
H1432 N1427 0.984 . S
H1433 N1427 0.985 . S
H1434 N1431 0.984 . S
H1435 N1431 0.985 . S
H1436 N1430 0.984 . S
H1437 N1430 0.984 . S
H1438 N1426 0.984 . S
H1439 N1426 0.985 . S
C1440 C1441 1.363 . S
C1440 C1446 1.379 . S
C1440 N1448 1.356 . S
C1441 C1440 1.363 . S
C1441 C1447 1.363 . S
C1442 C1443 1.363 . S
C1442 C1447 1.379 . S
C1442 N1449 1.356 . S
C1443 C1442 1.363 . S
C1443 C1446 1.363 . S
N1444 C1446 1.356 . S
N1444 H1456 0.984 . S
N1444 H1457 0.985 . S
N1445 C1447 1.356 . S
N1445 H1450 0.984 . S
N1445 H1451 0.985 . S
C1446 C1440 1.379 . S
C1446 C1443 1.363 . S
C1446 N1444 1.356 . S
C1447 C1441 1.363 . S
C1447 C1442 1.379 . S
C1447 N1445 1.356 . S
N1448 C1440 1.356 . S
N1448 H1454 0.984 . S
N1448 H1455 0.984 . S
N1449 C1442 1.356 . S
N1449 H1452 0.984 . S
N1449 H1453 0.985 . S
H1450 N1445 0.984 . S
H1451 N1445 0.985 . S
H1452 N1449 0.984 . S
H1453 N1449 0.985 . S
H1454 N1448 0.984 . S
H1455 N1448 0.984 . S
H1456 N1444 0.984 . S
H1457 N1444 0.985 . S
C1458 C1459 1.363 . S
C1458 C1464 1.379 . S
C1458 N1466 1.356 . S
C1459 C1458 1.363 . S
C1459 C1465 1.363 . S
C1460 C1461 1.363 . S
C1460 C1465 1.379 . S
C1460 N1467 1.356 . S
C1461 C1460 1.363 . S
C1461 C1464 1.363 . S
N1462 C1464 1.356 . S
N1462 H1474 0.984 . S
N1462 H1475 0.985 . S
N1463 C1465 1.356 . S
N1463 H1468 0.984 . S
N1463 H1469 0.985 . S
C1464 C1458 1.379 . S
C1464 C1461 1.363 . S
C1464 N1462 1.356 . S
C1465 C1459 1.363 . S
C1465 C1460 1.379 . S
C1465 N1463 1.356 . S
N1466 C1458 1.356 . S
N1466 H1472 0.984 . S
N1466 H1473 0.984 . S
N1467 C1460 1.356 . S
N1467 H1470 0.984 . S
N1467 H1471 0.985 . S
H1468 N1463 0.984 . S
H1469 N1463 0.985 . S
H1470 N1467 0.984 . S
H1471 N1467 0.985 . S
H1472 N1466 0.984 . S
H1473 N1466 0.984 . S
H1474 N1462 0.984 . S
H1475 N1462 0.985 . S
C1476 C1477 1.363 . S
C1476 C1482 1.379 . S
C1476 N1484 1.356 . S
C1477 C1476 1.363 . S
C1477 C1483 1.363 . S
C1478 C1479 1.363 . S
C1478 C1483 1.379 . S
C1478 N1485 1.356 . S
C1479 C1478 1.363 . S
C1479 C1482 1.363 . S
N1480 C1482 1.356 . S
N1480 H1492 0.984 . S
N1480 H1493 0.985 . S
N1481 C1483 1.356 . S
N1481 H1486 0.984 . S
N1481 H1487 0.985 . S
C1482 C1476 1.379 . S
C1482 C1479 1.363 . S
C1482 N1480 1.356 . S
C1483 C1477 1.363 . S
C1483 C1478 1.379 . S
C1483 N1481 1.356 . S
N1484 C1476 1.356 . S
N1484 H1490 0.984 . S
N1484 H1491 0.984 . S
N1485 C1478 1.356 . S
N1485 H1488 0.984 . S
N1485 H1489 0.985 . S
H1486 N1481 0.984 . S
H1487 N1481 0.985 . S
H1488 N1485 0.984 . S
H1489 N1485 0.985 . S
H1490 N1484 0.984 . S
H1491 N1484 0.984 . S
H1492 N1480 0.984 . S
H1493 N1480 0.985 . S
C1494 C1495 1.363 . S
C1494 C1500 1.379 . S
C1494 N1502 1.356 . S
C1495 C1494 1.363 . S
C1495 C1501 1.363 . S
C1496 C1497 1.363 . S
C1496 C1501 1.379 . S
C1496 N1503 1.356 . S
C1497 C1496 1.363 . S
C1497 C1500 1.363 . S
N1498 C1500 1.356 . S
N1498 H1510 0.984 . S
N1498 H1511 0.985 . S
N1499 C1501 1.356 . S
N1499 H1504 0.984 . S
N1499 H1505 0.985 . S
C1500 C1494 1.379 . S
C1500 C1497 1.363 . S
C1500 N1498 1.356 . S
C1501 C1495 1.363 . S
C1501 C1496 1.379 . S
C1501 N1499 1.356 . S
N1502 C1494 1.356 . S
N1502 H1508 0.984 . S
N1502 H1509 0.984 . S
N1503 C1496 1.356 . S
N1503 H1506 0.984 . S
N1503 H1507 0.985 . S
H1504 N1499 0.984 . S
H1505 N1499 0.985 . S
H1506 N1503 0.984 . S
H1507 N1503 0.985 . S
H1508 N1502 0.984 . S
H1509 N1502 0.984 . S
H1510 N1498 0.984 . S
H1511 N1498 0.985 . S
C1512 C1513 1.363 . S
C1512 C1518 1.379 . S
C1512 N1520 1.356 . S
C1513 C1512 1.363 . S
C1513 C1519 1.363 . S
C1514 C1515 1.363 . S
C1514 C1519 1.379 . S
C1514 N1521 1.356 . S
C1515 C1514 1.363 . S
C1515 C1518 1.363 . S
N1516 C1518 1.356 . S
N1516 H1528 0.984 . S
N1516 H1529 0.985 . S
N1517 C1519 1.356 . S
N1517 H1522 0.984 . S
N1517 H1523 0.985 . S
C1518 C1512 1.379 . S
C1518 C1515 1.363 . S
C1518 N1516 1.356 . S
C1519 C1513 1.363 . S
C1519 C1514 1.379 . S
C1519 N1517 1.356 . S
N1520 C1512 1.356 . S
N1520 H1526 0.984 . S
N1520 H1527 0.984 . S
N1521 C1514 1.356 . S
N1521 H1524 0.984 . S
N1521 H1525 0.985 . S
H1522 N1517 0.984 . S
H1523 N1517 0.985 . S
H1524 N1521 0.984 . S
H1525 N1521 0.985 . S
H1526 N1520 0.984 . S
H1527 N1520 0.984 . S
H1528 N1516 0.984 . S
H1529 N1516 0.985 . S
C1530 C1531 1.363 . S
C1530 C1536 1.379 . S
C1530 N1538 1.356 . S
C1531 C1530 1.363 . S
C1531 C1537 1.363 . S
C1532 C1533 1.363 . S
C1532 C1537 1.379 . S
C1532 N1539 1.356 . S
C1533 C1532 1.363 . S
C1533 C1536 1.363 . S
N1534 C1536 1.356 . S
N1534 H1546 0.984 . S
N1534 H1547 0.985 . S
N1535 C1537 1.356 . S
N1535 H1540 0.984 . S
N1535 H1541 0.985 . S
C1536 C1530 1.379 . S
C1536 C1533 1.363 . S
C1536 N1534 1.356 . S
C1537 C1531 1.363 . S
C1537 C1532 1.379 . S
C1537 N1535 1.356 . S
N1538 C1530 1.356 . S
N1538 H1544 0.984 . S
N1538 H1545 0.984 . S
N1539 C1532 1.356 . S
N1539 H1542 0.984 . S
N1539 H1543 0.985 . S
H1540 N1535 0.984 . S
H1541 N1535 0.985 . S
H1542 N1539 0.984 . S
H1543 N1539 0.985 . S
H1544 N1538 0.984 . S
H1545 N1538 0.984 . S
H1546 N1534 0.984 . S
H1547 N1534 0.985 . S
C1548 C1549 1.363 . S
C1548 C1554 1.379 . S
C1548 N1556 1.356 . S
C1549 C1548 1.363 . S
C1549 C1555 1.363 . S
C1550 C1551 1.363 . S
C1550 C1555 1.379 . S
C1550 N1557 1.356 . S
C1551 C1550 1.363 . S
C1551 C1554 1.363 . S
N1552 C1554 1.356 . S
N1552 H1564 0.984 . S
N1552 H1565 0.985 . S
N1553 C1555 1.356 . S
N1553 H1558 0.984 . S
N1553 H1559 0.985 . S
C1554 C1548 1.379 . S
C1554 C1551 1.363 . S
C1554 N1552 1.356 . S
C1555 C1549 1.363 . S
C1555 C1550 1.379 . S
C1555 N1553 1.356 . S
N1556 C1548 1.356 . S
N1556 H1562 0.984 . S
N1556 H1563 0.984 . S
N1557 C1550 1.356 . S
N1557 H1560 0.984 . S
N1557 H1561 0.985 . S
H1558 N1553 0.984 . S
H1559 N1553 0.985 . S
H1560 N1557 0.984 . S
H1561 N1557 0.985 . S
H1562 N1556 0.984 . S
H1563 N1556 0.984 . S
H1564 N1552 0.984 . S
H1565 N1552 0.985 . S
C1566 C1567 1.363 . S
C1566 C1572 1.379 . S
C1566 N1574 1.356 . S
C1567 C1566 1.363 . S
C1567 C1573 1.363 . S
C1568 C1569 1.363 . S
C1568 C1573 1.379 . S
C1568 N1575 1.356 . S
C1569 C1568 1.363 . S
C1569 C1572 1.363 . S
N1570 C1572 1.356 . S
N1570 H1582 0.984 . S
N1570 H1583 0.985 . S
N1571 C1573 1.356 . S
N1571 H1576 0.984 . S
N1571 H1577 0.985 . S
C1572 C1566 1.379 . S
C1572 C1569 1.363 . S
C1572 N1570 1.356 . S
C1573 C1567 1.363 . S
C1573 C1568 1.379 . S
C1573 N1571 1.356 . S
N1574 C1566 1.356 . S
N1574 H1580 0.984 . S
N1574 H1581 0.984 . S
N1575 C1568 1.356 . S
N1575 H1578 0.984 . S
N1575 H1579 0.985 . S
H1576 N1571 0.984 . S
H1577 N1571 0.985 . S
H1578 N1575 0.984 . S
H1579 N1575 0.985 . S
H1580 N1574 0.984 . S
H1581 N1574 0.984 . S
H1582 N1570 0.984 . S
H1583 N1570 0.985 . S
C1584 C1585 1.363 . S
C1584 C1590 1.379 . S
C1584 N1592 1.356 . S
C1585 C1584 1.363 . S
C1585 C1591 1.363 . S
C1586 C1587 1.363 . S
C1586 C1591 1.379 . S
C1586 N1593 1.356 . S
C1587 C1586 1.363 . S
C1587 C1590 1.363 . S
N1588 C1590 1.356 . S
N1588 H1600 0.984 . S
N1588 H1601 0.985 . S
N1589 C1591 1.356 . S
N1589 H1594 0.984 . S
N1589 H1595 0.985 . S
C1590 C1584 1.379 . S
C1590 C1587 1.363 . S
C1590 N1588 1.356 . S
C1591 C1585 1.363 . S
C1591 C1586 1.379 . S
C1591 N1589 1.356 . S
N1592 C1584 1.356 . S
N1592 H1598 0.984 . S
N1592 H1599 0.984 . S
N1593 C1586 1.356 . S
N1593 H1596 0.984 . S
N1593 H1597 0.985 . S
H1594 N1589 0.984 . S
H1595 N1589 0.985 . S
H1596 N1593 0.984 . S
H1597 N1593 0.985 . S
H1598 N1592 0.984 . S
H1599 N1592 0.984 . S
H1600 N1588 0.984 . S
H1601 N1588 0.985 . S
C1602 C1603 1.363 . S
C1602 C1608 1.379 . S
C1602 N1610 1.356 . S
C1603 C1602 1.363 . S
C1603 C1609 1.363 . S
C1604 C1605 1.363 . S
C1604 C1609 1.379 . S
C1604 N1611 1.356 . S
C1605 C1604 1.363 . S
C1605 C1608 1.363 . S
N1606 C1608 1.356 . S
N1606 H1618 0.984 . S
N1606 H1619 0.985 . S
N1607 C1609 1.356 . S
N1607 H1612 0.984 . S
N1607 H1613 0.985 . S
C1608 C1602 1.379 . S
C1608 C1605 1.363 . S
C1608 N1606 1.356 . S
C1609 C1603 1.363 . S
C1609 C1604 1.379 . S
C1609 N1607 1.356 . S
N1610 C1602 1.356 . S
N1610 H1616 0.984 . S
N1610 H1617 0.984 . S
N1611 C1604 1.356 . S
N1611 H1614 0.984 . S
N1611 H1615 0.985 . S
H1612 N1607 0.984 . S
H1613 N1607 0.985 . S
H1614 N1611 0.984 . S
H1615 N1611 0.985 . S
H1616 N1610 0.984 . S
H1617 N1610 0.984 . S
H1618 N1606 0.984 . S
H1619 N1606 0.985 . S
C1620 C1621 1.363 . S
C1620 C1626 1.379 . S
C1620 N1628 1.356 . S
C1621 C1620 1.363 . S
C1621 C1627 1.363 . S
C1622 C1623 1.363 . S
C1622 C1627 1.379 . S
C1622 N1629 1.356 . S
C1623 C1622 1.363 . S
C1623 C1626 1.363 . S
N1624 C1626 1.356 . S
N1624 H1636 0.984 . S
N1624 H1637 0.985 . S
N1625 C1627 1.356 . S
N1625 H1630 0.984 . S
N1625 H1631 0.985 . S
C1626 C1620 1.379 . S
C1626 C1623 1.363 . S
C1626 N1624 1.356 . S
C1627 C1621 1.363 . S
C1627 C1622 1.379 . S
C1627 N1625 1.356 . S
N1628 C1620 1.356 . S
N1628 H1634 0.984 . S
N1628 H1635 0.984 . S
N1629 C1622 1.356 . S
N1629 H1632 0.984 . S
N1629 H1633 0.985 . S
H1630 N1625 0.984 . S
H1631 N1625 0.985 . S
H1632 N1629 0.984 . S
H1633 N1629 0.985 . S
H1634 N1628 0.984 . S
H1635 N1628 0.984 . S
H1636 N1624 0.984 . S
H1637 N1624 0.985 . S
C1638 C1639 1.363 . S
C1638 C1644 1.379 . S
C1638 N1646 1.356 . S
C1639 C1638 1.363 . S
C1639 C1645 1.363 . S
C1640 C1641 1.363 . S
C1640 C1645 1.379 . S
C1640 N1647 1.356 . S
C1641 C1640 1.363 . S
C1641 C1644 1.363 . S
N1642 C1644 1.356 . S
N1642 H1654 0.984 . S
N1642 H1655 0.985 . S
N1643 C1645 1.356 . S
N1643 H1648 0.984 . S
N1643 H1649 0.985 . S
C1644 C1638 1.379 . S
C1644 C1641 1.363 . S
C1644 N1642 1.356 . S
C1645 C1639 1.363 . S
C1645 C1640 1.379 . S
C1645 N1643 1.356 . S
N1646 C1638 1.356 . S
N1646 H1652 0.984 . S
N1646 H1653 0.984 . S
N1647 C1640 1.356 . S
N1647 H1650 0.984 . S
N1647 H1651 0.985 . S
H1648 N1643 0.984 . S
H1649 N1643 0.985 . S
H1650 N1647 0.984 . S
H1651 N1647 0.985 . S
H1652 N1646 0.984 . S
H1653 N1646 0.984 . S
H1654 N1642 0.984 . S
H1655 N1642 0.985 . S
C1009 C487 1.731 . S
C1011 C58 1.250 . S
C1027 C142 1.421 . S
C1029 C67 2.041 . S
C1045 C226 1.367 . S
C1047 C151 1.864 . S
C1063 C235 1.731 . S
C1065 C310 1.250 . S
C1081 C319 2.041 . S
C1083 C394 1.420 . S
C1099 C478 1.367 . S
C1101 C403 1.864 . S
C1117 C655 1.731 . S
C1119 C562 1.250 . S
C1135 C646 1.367 . S
C1137 C739 1.864 . S
C1153 C823 2.042 . S
C1155 C730 1.420 . S
C1171 C907 1.731 . S
C1173 C814 1.250 . S
C1189 C991 1.863 . S
C1191 C898 1.369 . S
C1207 C571 2.041 . S
C1209 C982 1.420 . S
C1225 C980 3.694 . S
C1227 C55 3.606 . S
C1243 C139 3.011 . S
C1245 C560 3.096 . S
C1261 C644 3.419 . S
C1263 C223 3.315 . S
C1279 C728 3.694 . S
C1281 C307 3.605 . S
C1297 C812 3.098 . S
C1299 C391 3.009 1_556 S
C1315 C475 3.317 . S
C1317 C896 3.417 . S
C1333 C559 3.603 . S
C1335 C140 3.696 . S
C1351 C643 3.316 . S
C1353 C224 3.417 . S
C1369 C308 3.098 . S
C1371 C727 3.009 . S
C1387 C392 3.694 . S
C1389 C811 3.606 1_554 S
C1405 C895 3.317 . S
C1407 C476 3.417 . S
C1423 C979 3.011 . S
C1425 C56 3.096 . S
C1441 C572 2.838 . S
C1443 C68 2.840 . S
C1459 C152 1.958 . S
C1461 C656 1.991 . S
C1477 C740 1.958 . S
C1479 C236 1.991 . S
C1495 C320 2.839 . S
C1497 C824 2.841 . S
C1513 C908 1.989 . S
C1515 C404 1.961 . S
C1531 C992 1.959 . S
C1533 C488 1.991 . S
C1549 C574 0.552 . S
C1551 C70 0.551 . S
C1567 C658 0.551 . S
C1569 C154 0.540 . S
C1585 C742 0.542 . S
C1587 C238 0.549 . S
C1603 C322 0.552 . S
C1605 C826 0.551 . S
C1621 C910 0.551 . S
C1623 C406 0.540 . S
C1639 C994 0.543 . S
C1641 C490 0.549 . S
