# Generated by pormake.
# Topology yfu, (5)-cn, num edge types: 1
# Building blocks:
#     Node 0, Type 0, BuildingBlock: XOMCOT_clean_sbu_0, # of connection points: 5
#     Node 1, Type 0, BuildingBlock: XOMCOT_clean_sbu_0, # of connection points: 5
#     Node 2, Type 0, BuildingBlock: XOMCOT_clean_sbu_0, # of connection points: 5
#     Node 3, Type 0, BuildingBlock: XOMCOT_clean_sbu_0, # of connection points: 5
#     Node 4, Type 0, BuildingBlock: XOMCOT_clean_sbu_0, # of connection points: 5
#     Node 5, Type 0, BuildingBlock: XOMCOT_clean_sbu_0, # of connection points: 5
#     Node 6, Type 0, BuildingBlock: XOMCOT_clean_sbu_0, # of connection points: 5
#     Node 7, Type 0, BuildingBlock: XOMCOT_clean_sbu_0, # of connection points: 5
#     Node 8, Type 0, BuildingBlock: XOMCOT_clean_sbu_0, # of connection points: 5
#     Node 9, Type 0, BuildingBlock: XOMCOT_clean_sbu_0, # of connection points: 5
#     Node 10, Type 0, BuildingBlock: XOMCOT_clean_sbu_0, # of connection points: 5
#     Node 11, Type 0, BuildingBlock: XOMCOT_clean_sbu_0, # of connection points: 5
#     Node 12, Type 0, BuildingBlock: XOMCOT_clean_sbu_0, # of connection points: 5
#     Node 13, Type 0, BuildingBlock: XOMCOT_clean_sbu_0, # of connection points: 5
#     Node 14, Type 0, BuildingBlock: XOMCOT_clean_sbu_0, # of connection points: 5
#     Node 15, Type 0, BuildingBlock: XOMCOT_clean_sbu_0, # of connection points: 5
#     Node 16, Type 0, BuildingBlock: XOMCOT_clean_sbu_0, # of connection points: 5
#     Node 17, Type 0, BuildingBlock: XOMCOT_clean_sbu_0, # of connection points: 5
#     Node 18, Type 0, BuildingBlock: XOMCOT_clean_sbu_0, # of connection points: 5
#     Node 19, Type 0, BuildingBlock: XOMCOT_clean_sbu_0, # of connection points: 5
#     Node 20, Type 0, BuildingBlock: XOMCOT_clean_sbu_0, # of connection points: 5
#     Node 21, Type 0, BuildingBlock: XOMCOT_clean_sbu_0, # of connection points: 5
#     Node 22, Type 0, BuildingBlock: XOMCOT_clean_sbu_0, # of connection points: 5
#     Node 23, Type 0, BuildingBlock: XOMCOT_clean_sbu_0, # of connection points: 5
#     Node 24, Type 0, BuildingBlock: XOMCOT_clean_sbu_0, # of connection points: 5
#     Node 25, Type 0, BuildingBlock: XOMCOT_clean_sbu_0, # of connection points: 5
#     Node 26, Type 0, BuildingBlock: XOMCOT_clean_sbu_0, # of connection points: 5
#     Node 27, Type 0, BuildingBlock: XOMCOT_clean_sbu_0, # of connection points: 5
#     Node 28, Type 0, BuildingBlock: XOMCOT_clean_sbu_0, # of connection points: 5
#     Node 29, Type 0, BuildingBlock: XOMCOT_clean_sbu_0, # of connection points: 5
#     Node 30, Type 0, BuildingBlock: XOMCOT_clean_sbu_0, # of connection points: 5
#     Node 31, Type 0, BuildingBlock: XOMCOT_clean_sbu_0, # of connection points: 5
#     Edge 32, Type (0, 0), BuildingBlock: UVAHIK_clean_linker_0, # of connection points: 2
#     Edge 33, Type (0, 0), BuildingBlock: UVAHIK_clean_linker_0, # of connection points: 2
#     Edge 34, Type (0, 0), BuildingBlock: UVAHIK_clean_linker_0, # of connection points: 2
#     Edge 35, Type (0, 0), BuildingBlock: UVAHIK_clean_linker_0, # of connection points: 2
#     Edge 36, Type (0, 0), BuildingBlock: UVAHIK_clean_linker_0, # of connection points: 2
#     Edge 37, Type (0, 0), BuildingBlock: UVAHIK_clean_linker_0, # of connection points: 2
#     Edge 38, Type (0, 0), BuildingBlock: UVAHIK_clean_linker_0, # of connection points: 2
#     Edge 39, Type (0, 0), BuildingBlock: UVAHIK_clean_linker_0, # of connection points: 2
#     Edge 40, Type (0, 0), BuildingBlock: UVAHIK_clean_linker_0, # of connection points: 2
#     Edge 41, Type (0, 0), BuildingBlock: UVAHIK_clean_linker_0, # of connection points: 2
#     Edge 42, Type (0, 0), BuildingBlock: UVAHIK_clean_linker_0, # of connection points: 2
#     Edge 43, Type (0, 0), BuildingBlock: UVAHIK_clean_linker_0, # of connection points: 2
#     Edge 44, Type (0, 0), BuildingBlock: UVAHIK_clean_linker_0, # of connection points: 2
#     Edge 45, Type (0, 0), BuildingBlock: UVAHIK_clean_linker_0, # of connection points: 2
#     Edge 46, Type (0, 0), BuildingBlock: UVAHIK_clean_linker_0, # of connection points: 2
#     Edge 47, Type (0, 0), BuildingBlock: UVAHIK_clean_linker_0, # of connection points: 2
#     Edge 48, Type (0, 0), BuildingBlock: UVAHIK_clean_linker_0, # of connection points: 2
#     Edge 49, Type (0, 0), BuildingBlock: UVAHIK_clean_linker_0, # of connection points: 2
#     Edge 50, Type (0, 0), BuildingBlock: UVAHIK_clean_linker_0, # of connection points: 2
#     Edge 51, Type (0, 0), BuildingBlock: UVAHIK_clean_linker_0, # of connection points: 2
#     Edge 52, Type (0, 0), BuildingBlock: UVAHIK_clean_linker_0, # of connection points: 2
#     Edge 53, Type (0, 0), BuildingBlock: UVAHIK_clean_linker_0, # of connection points: 2
#     Edge 54, Type (0, 0), BuildingBlock: UVAHIK_clean_linker_0, # of connection points: 2
#     Edge 55, Type (0, 0), BuildingBlock: UVAHIK_clean_linker_0, # of connection points: 2
#     Edge 56, Type (0, 0), BuildingBlock: UVAHIK_clean_linker_0, # of connection points: 2
#     Edge 57, Type (0, 0), BuildingBlock: UVAHIK_clean_linker_0, # of connection points: 2
#     Edge 58, Type (0, 0), BuildingBlock: UVAHIK_clean_linker_0, # of connection points: 2
#     Edge 59, Type (0, 0), BuildingBlock: UVAHIK_clean_linker_0, # of connection points: 2
#     Edge 60, Type (0, 0), BuildingBlock: UVAHIK_clean_linker_0, # of connection points: 2
#     Edge 61, Type (0, 0), BuildingBlock: UVAHIK_clean_linker_0, # of connection points: 2
#     Edge 62, Type (0, 0), BuildingBlock: UVAHIK_clean_linker_0, # of connection points: 2
#     Edge 63, Type (0, 0), BuildingBlock: UVAHIK_clean_linker_0, # of connection points: 2
#     Edge 64, Type (0, 0), BuildingBlock: UVAHIK_clean_linker_0, # of connection points: 2
#     Edge 65, Type (0, 0), BuildingBlock: UVAHIK_clean_linker_0, # of connection points: 2
#     Edge 66, Type (0, 0), BuildingBlock: UVAHIK_clean_linker_0, # of connection points: 2
#     Edge 67, Type (0, 0), BuildingBlock: UVAHIK_clean_linker_0, # of connection points: 2
#     Edge 68, Type (0, 0), BuildingBlock: UVAHIK_clean_linker_0, # of connection points: 2
#     Edge 69, Type (0, 0), BuildingBlock: UVAHIK_clean_linker_0, # of connection points: 2
#     Edge 70, Type (0, 0), BuildingBlock: UVAHIK_clean_linker_0, # of connection points: 2
#     Edge 71, Type (0, 0), BuildingBlock: UVAHIK_clean_linker_0, # of connection points: 2
#     Edge 72, Type (0, 0), BuildingBlock: UVAHIK_clean_linker_0, # of connection points: 2
#     Edge 73, Type (0, 0), BuildingBlock: UVAHIK_clean_linker_0, # of connection points: 2
#     Edge 74, Type (0, 0), BuildingBlock: UVAHIK_clean_linker_0, # of connection points: 2
#     Edge 75, Type (0, 0), BuildingBlock: UVAHIK_clean_linker_0, # of connection points: 2
#     Edge 76, Type (0, 0), BuildingBlock: UVAHIK_clean_linker_0, # of connection points: 2
#     Edge 77, Type (0, 0), BuildingBlock: UVAHIK_clean_linker_0, # of connection points: 2
#     Edge 78, Type (0, 0), BuildingBlock: UVAHIK_clean_linker_0, # of connection points: 2
#     Edge 79, Type (0, 0), BuildingBlock: UVAHIK_clean_linker_0, # of connection points: 2
#     Edge 80, Type (0, 0), BuildingBlock: UVAHIK_clean_linker_0, # of connection points: 2
#     Edge 81, Type (0, 0), BuildingBlock: UVAHIK_clean_linker_0, # of connection points: 2
#     Edge 82, Type (0, 0), BuildingBlock: UVAHIK_clean_linker_0, # of connection points: 2
#     Edge 83, Type (0, 0), BuildingBlock: UVAHIK_clean_linker_0, # of connection points: 2
#     Edge 84, Type (0, 0), BuildingBlock: UVAHIK_clean_linker_0, # of connection points: 2
#     Edge 85, Type (0, 0), BuildingBlock: UVAHIK_clean_linker_0, # of connection points: 2
#     Edge 86, Type (0, 0), BuildingBlock: UVAHIK_clean_linker_0, # of connection points: 2
#     Edge 87, Type (0, 0), BuildingBlock: UVAHIK_clean_linker_0, # of connection points: 2
#     Edge 88, Type (0, 0), BuildingBlock: UVAHIK_clean_linker_0, # of connection points: 2
#     Edge 89, Type (0, 0), BuildingBlock: UVAHIK_clean_linker_0, # of connection points: 2
#     Edge 90, Type (0, 0), BuildingBlock: UVAHIK_clean_linker_0, # of connection points: 2
#     Edge 91, Type (0, 0), BuildingBlock: UVAHIK_clean_linker_0, # of connection points: 2
#     Edge 92, Type (0, 0), BuildingBlock: UVAHIK_clean_linker_0, # of connection points: 2
#     Edge 93, Type (0, 0), BuildingBlock: UVAHIK_clean_linker_0, # of connection points: 2
#     Edge 94, Type (0, 0), BuildingBlock: UVAHIK_clean_linker_0, # of connection points: 2
#     Edge 95, Type (0, 0), BuildingBlock: UVAHIK_clean_linker_0, # of connection points: 2
#     Edge 96, Type (0, 0), BuildingBlock: UVAHIK_clean_linker_0, # of connection points: 2
#     Edge 97, Type (0, 0), BuildingBlock: UVAHIK_clean_linker_0, # of connection points: 2
#     Edge 98, Type (0, 0), BuildingBlock: UVAHIK_clean_linker_0, # of connection points: 2
#     Edge 99, Type (0, 0), BuildingBlock: UVAHIK_clean_linker_0, # of connection points: 2
#     Edge 100, Type (0, 0), BuildingBlock: UVAHIK_clean_linker_0, # of connection points: 2
#     Edge 101, Type (0, 0), BuildingBlock: UVAHIK_clean_linker_0, # of connection points: 2
#     Edge 102, Type (0, 0), BuildingBlock: UVAHIK_clean_linker_0, # of connection points: 2
#     Edge 103, Type (0, 0), BuildingBlock: UVAHIK_clean_linker_0, # of connection points: 2
#     Edge 104, Type (0, 0), BuildingBlock: UVAHIK_clean_linker_0, # of connection points: 2
#     Edge 105, Type (0, 0), BuildingBlock: UVAHIK_clean_linker_0, # of connection points: 2
#     Edge 106, Type (0, 0), BuildingBlock: UVAHIK_clean_linker_0, # of connection points: 2
#     Edge 107, Type (0, 0), BuildingBlock: UVAHIK_clean_linker_0, # of connection points: 2
#     Edge 108, Type (0, 0), BuildingBlock: UVAHIK_clean_linker_0, # of connection points: 2
#     Edge 109, Type (0, 0), BuildingBlock: UVAHIK_clean_linker_0, # of connection points: 2
#     Edge 110, Type (0, 0), BuildingBlock: UVAHIK_clean_linker_0, # of connection points: 2
#     Edge 111, Type (0, 0), BuildingBlock: UVAHIK_clean_linker_0, # of connection points: 2
# Relax obj value: 0.365
# Max RMSD: 0.242
# Mean RMSD: 0.242
data_MOF--net-yfu--node1-XOMCOT_clean_sbu_0--edge1-UVAHIK_clean_linker_0
_symmetry_space_group_name_H-M    P1
_symmetry_Int_Tables_number       1
_symmetry_cell_setting            triclinic
loop_
_symmetry_equiv_pos_as_xyz
'x, y, z'
_cell_length_a     54.668189
_cell_length_b     54.664357
_cell_length_c     122.96903
_cell_angle_alpha  89.988826
_cell_angle_beta   89.974216
_cell_angle_gamma 89.965482
loop_
_atom_site_label
_atom_site_type_symbol
_atom_site_fract_x
_atom_site_fract_y
_atom_site_fract_z
_atom_type_partial_charge
Co0 Co 0.05913 0.05534 0.34091 0.0
C1 C 0.07726 0.00743 0.34838 0.0
C2 C 0.0424 0.01636 0.35541 0.0
C3 C 0.05047 0.99475 0.3599 0.0
N4 N 0.05922 0.02423 0.34822 0.0
N5 N 0.07238 0.98922 0.35548 0.0
H6 H 0.09413 0.00918 0.34383 0.0
H7 H 0.02588 0.02613 0.35757 0.0
C8 C 0.00782 0.06201 0.33266 0.0
O9 O 0.01611 0.07239 0.32375 0.0
N10 N 0.05877 0.08725 0.33385 0.0
C11 C 0.0716 0.09534 0.32517 0.0
C12 C 0.06523 0.11921 0.3231 0.0
C13 C 0.04531 0.10671 0.33709 0.0
N14 N 0.04869 0.12631 0.33057 0.0
C15 C 0.08726 0.0392 0.32259 0.0
C16 C 0.05008 0.01453 0.31209 0.0
C17 C 0.07237 0.01802 0.30667 0.0
C18 C 0.09143 0.02967 0.31223 0.0
C19 C 0.04671 0.02448 0.32245 0.0
N20 N 0.06453 0.0384 0.32717 0.0
H21 H 0.1021 0.04841 0.32667 0.0
H22 H 0.02963 0.02105 0.32655 0.0
H23 H 0.08492 0.08518 0.3206 0.0
H24 H 0.03279 0.10629 0.34391 0.0
O25 O 0.09273 0.06082 0.34529 0.0
O26 O 0.05993 0.07144 0.3548 0.0
O27 O 0.02252 0.05327 0.33972 0.0
C28 C 0.08362 0.07081 0.35401 0.0
H29 H 0.04119 0.98419 0.3661 0.0
H30 H 0.07251 0.13061 0.31666 0.0
H31 H 0.03505 0.00498 0.30824 0.0
H32 H 0.10928 0.03184 0.30852 0.0
Co33 Co 0.19148 0.80201 0.59107 0.0
C34 C 0.23785 0.82198 0.59924 0.0
C35 C 0.233 0.7847 0.60428 0.0
C36 C 0.25455 0.79332 0.60864 0.0
N37 N 0.22265 0.8027 0.59838 0.0
N38 N 0.25743 0.81679 0.60551 0.0
H39 H 0.23445 0.83955 0.59547 0.0
H40 H 0.22518 0.76679 0.60562 0.0
C41 C 0.185 0.74999 0.5837 0.0
O42 O 0.17648 0.75755 0.57429 0.0
N43 N 0.15969 0.80121 0.58393 0.0
C44 C 0.15164 0.81408 0.57527 0.0
C45 C 0.12766 0.80812 0.5733 0.0
C46 C 0.14009 0.78808 0.58727 0.0
N47 N 0.12041 0.79177 0.58083 0.0
C48 C 0.20811 0.82745 0.572 0.0
C49 C 0.23321 0.78877 0.56287 0.0
C50 C 0.22964 0.81001 0.55667 0.0
C51 C 0.21786 0.82995 0.56157 0.0
C52 C 0.22307 0.78711 0.57326 0.0
N53 N 0.20876 0.8055 0.57728 0.0
H54 H 0.1989 0.84293 0.57561 0.0
H55 H 0.22666 0.77088 0.57798 0.0
H56 H 0.1618 0.82743 0.57072 0.0
H57 H 0.14035 0.77589 0.5942 0.0
O58 O 0.18628 0.83616 0.59465 0.0
O59 O 0.17523 0.80464 0.60487 0.0
O60 O 0.19283 0.76531 0.59071 0.0
C61 C 0.17614 0.8282 0.60356 0.0
H62 H 0.2666 0.78344 0.61407 0.0
H63 H 0.1162 0.81577 0.56698 0.0
H64 H 0.24347 0.77342 0.55966 0.0
H65 H 0.21518 0.84698 0.55723 0.0
Co66 Co 0.44902 0.94255 0.84246 0.0
C67 C 0.43125 0.99038 0.85007 0.0
C68 C 0.46514 0.98035 0.8577 0.0
C69 C 0.45689 0.00174 0.86234 0.0
N70 N 0.44902 0.97331 0.85004 0.0
N71 N 0.43559 0.00795 0.85753 0.0
H72 H 0.4148 0.98919 0.8452 0.0
H73 H 0.48116 0.97008 0.8601 0.0
C74 C 0.50114 0.93503 0.83524 0.0
O75 O 0.49377 0.92603 0.82589 0.0
N76 N 0.44918 0.91107 0.83509 0.0
C77 C 0.4365 0.90383 0.82624 0.0
C78 C 0.44196 0.87977 0.82407 0.0
C79 C 0.46166 0.89098 0.83833 0.0
N80 N 0.45777 0.87172 0.83167 0.0
C81 C 0.42296 0.96092 0.82396 0.0
C82 C 0.46246 0.98203 0.8136 0.0
C83 C 0.44031 0.97981 0.80791 0.0
C84 C 0.42003 0.97036 0.8135 0.0
C85 C 0.46438 0.97279 0.82416 0.0
N86 N 0.44544 0.96022 0.82877 0.0
H87 H 0.40729 0.95287 0.82792 0.0
H88 H 0.48134 0.97544 0.82845 0.0
H89 H 0.42374 0.91471 0.82167 0.0
H90 H 0.47366 0.89063 0.84533 0.0
O91 O 0.41485 0.93778 0.84618 0.0
O92 O 0.44644 0.92588 0.85616 0.0
O93 O 0.48574 0.94351 0.84207 0.0
C94 C 0.42288 0.92723 0.85497 0.0
H95 H 0.46552 0.0116 0.86893 0.0
H96 H 0.43443 0.86885 0.81754 0.0
H97 H 0.47854 0.9899 0.80985 0.0
H98 H 0.40215 0.96952 0.80974 0.0
Co99 Co 0.303 0.19595 0.09215 0.0
C100 C 0.25282 0.18245 0.09944 0.0
C101 C 0.26642 0.2145 0.10739 0.0
C102 C 0.24471 0.20801 0.11222 0.0
N103 N 0.27135 0.1988 0.09921 0.0
N104 N 0.23624 0.18778 0.10723 0.0
H105 H 0.25252 0.1657 0.09482 0.0
H106 H 0.27857 0.22881 0.11014 0.0
C107 C 0.29008 0.2491 0.08975 0.0
O108 O 0.26725 0.24346 0.08759 0.0
N109 N 0.33488 0.1931 0.08556 0.0
C110 C 0.34178 0.17691 0.0779 0.0
C111 C 0.36613 0.18065 0.07557 0.0
C112 C 0.35506 0.20624 0.08792 0.0
N113 N 0.37444 0.19904 0.08189 0.0
C114 C 0.2759 0.17442 0.07442 0.0
C115 C 0.28698 0.21045 0.05945 0.0
C116 C 0.27329 0.19023 0.05606 0.0
C117 C 0.26784 0.17195 0.06368 0.0
C118 C 0.29485 0.21205 0.07017 0.0
N119 N 0.2886 0.19466 0.07766 0.0
H120 H 0.27304 0.15941 0.07994 0.0
H121 H 0.30721 0.22669 0.07222 0.0
H122 H 0.32998 0.16324 0.07432 0.0
H123 H 0.35547 0.2208 0.09388 0.0
O124 O 0.30402 0.16137 0.09566 0.0
O125 O 0.3174 0.19149 0.10621 0.0
O126 O 0.30607 0.23255 0.09155 0.0
C127 C 0.31418 0.16816 0.10476 0.0
H128 H 0.23644 0.21679 0.1192 0.0
H129 H 0.377 0.17029 0.06983 0.0
H130 H 0.29265 0.2244 0.05371 0.0
H131 H 0.25789 0.15568 0.06131 0.0
Co132 Co 0.04914 0.9458 0.15559 0.0
C133 C 0.06253 0.99609 0.14854 0.0
C134 C 0.03148 0.98202 0.13997 0.0
C135 C 0.03819 0.0038 0.13524 0.0
N136 N 0.04649 0.97731 0.14843 0.0
N137 N 0.05777 0.01255 0.14063 0.0
H138 H 0.07867 0.99675 0.15354 0.0
H139 H 0.01751 0.96969 0.13702 0.0
C140 C 0.99617 0.95967 0.15801 0.0
O141 O 0.00204 0.98267 0.15964 0.0
N142 N 0.05185 0.91407 0.16233 0.0
C143 C 0.06783 0.9073 0.1701 0.0
C144 C 0.06394 0.88305 0.17255 0.0
C145 C 0.03875 0.89386 0.16 0.0
N146 N 0.04572 0.87465 0.16617 0.0
C147 C 0.07306 0.97145 0.17311 0.0
C148 C 0.03757 0.96161 0.1885 0.0
C149 C 0.05944 0.97254 0.19186 0.0
C150 C 0.07716 0.97794 0.18398 0.0
C151 C 0.03429 0.95533 0.17765 0.0
N152 N 0.0517 0.96052 0.17 0.0
H153 H 0.08787 0.97355 0.16741 0.0
H154 H 0.01842 0.94456 0.17569 0.0
H155 H 0.0815 0.9191 0.17368 0.0
H156 H 0.02438 0.89328 0.15394 0.0
O157 O 0.08344 0.94407 0.15153 0.0
O158 O 0.05232 0.9308 0.14158 0.0
O159 O 0.01255 0.94332 0.15658 0.0
C160 C 0.07579 0.93358 0.14264 0.0
H161 H 0.03002 0.01195 0.12809 0.0
H162 H 0.0741 0.87225 0.17839 0.0
H163 H 0.02343 0.95694 0.19432 0.0
H164 H 0.09462 0.98573 0.18627 0.0
Co165 Co 0.30918 0.79774 0.40634 0.0
C166 C 0.26018 0.81252 0.39813 0.0
C167 C 0.27408 0.78063 0.39012 0.0
C168 C 0.25319 0.788 0.38483 0.0
N169 N 0.27833 0.79576 0.39859 0.0
N170 N 0.24455 0.8081 0.38987 0.0
H171 H 0.25959 0.82895 0.40296 0.0
H172 H 0.28625 0.76616 0.38752 0.0
C173 C 0.29382 0.74525 0.40867 0.0
O174 O 0.27091 0.75188 0.40996 0.0
N175 N 0.34032 0.79973 0.41362 0.0
C176 C 0.34678 0.81528 0.42161 0.0
C177 C 0.37094 0.81115 0.42422 0.0
C178 C 0.36057 0.78662 0.41134 0.0
N179 N 0.37957 0.79321 0.41772 0.0
C180 C 0.2815 0.82184 0.42327 0.0
C181 C 0.2879 0.78558 0.43866 0.0
C182 C 0.27528 0.80684 0.44161 0.0
C183 C 0.27223 0.82524 0.43378 0.0
C184 C 0.29704 0.78306 0.42817 0.0
N185 N 0.29307 0.80061 0.42044 0.0
H186 H 0.28051 0.83687 0.41762 0.0
H187 H 0.3086 0.76752 0.42655 0.0
H188 H 0.33489 0.8289 0.42519 0.0
H189 H 0.36136 0.77263 0.40513 0.0
O190 O 0.31187 0.83199 0.40229 0.0
O191 O 0.32553 0.80054 0.39262 0.0
O192 O 0.31075 0.76109 0.40741 0.0
C193 C 0.32292 0.82406 0.39357 0.0
H194 H 0.24565 0.77995 0.37752 0.0
H195 H 0.38153 0.82106 0.4302 0.0
H196 H 0.2918 0.77144 0.44459 0.0
H197 H 0.26321 0.84228 0.43582 0.0
Co198 Co 0.45246 0.05429 0.65739 0.0
C199 C 0.43143 0.00804 0.64975 0.0
C200 C 0.46812 0.01255 0.64387 0.0
C201 C 0.45873 0.99116 0.63965 0.0
N202 N 0.45094 0.02302 0.6502 0.0
N203 N 0.43562 0.98851 0.64331 0.0
H204 H 0.41434 0.01163 0.6539 0.0
H205 H 0.4859 0.02024 0.64212 0.0
C206 C 0.50532 0.06113 0.66348 0.0
O207 O 0.49895 0.07019 0.67297 0.0
N208 N 0.4539 0.08613 0.66445 0.0
C209 C 0.44155 0.09407 0.67327 0.0
C210 C 0.44737 0.11814 0.67514 0.0
C211 C 0.46655 0.10585 0.6609 0.0
N212 N 0.46309 0.12553 0.66737 0.0
C213 C 0.42857 0.03728 0.67675 0.0
C214 C 0.46878 0.01471 0.68592 0.0
C215 C 0.44752 0.0175 0.69214 0.0
C216 C 0.42685 0.02787 0.68727 0.0
C217 C 0.46953 0.02405 0.67535 0.0
N218 N 0.45035 0.03727 0.67131 0.0
H219 H 0.41262 0.04579 0.67322 0.0
H220 H 0.48569 0.02077 0.67056 0.0
H221 H 0.42861 0.08374 0.67799 0.0
H222 H 0.47822 0.10568 0.65379 0.0
O223 O 0.41796 0.05955 0.6545 0.0
O224 O 0.44844 0.07031 0.64361 0.0
O225 O 0.48917 0.0529 0.65695 0.0
C226 C 0.42504 0.0695 0.64541 0.0
H227 H 0.4678 0.97911 0.63394 0.0
H228 H 0.44004 0.12954 0.68156 0.0
H229 H 0.48476 0.00566 0.68923 0.0
H230 H 0.40985 0.02981 0.69172 0.0
Co231 Co 0.19361 0.19773 0.90675 0.0
C232 C 0.2412 0.18031 0.89868 0.0
C233 C 0.23103 0.21468 0.89151 0.0
C234 C 0.25227 0.20668 0.88665 0.0
N235 N 0.22417 0.1981 0.89901 0.0
N236 N 0.25856 0.18507 0.89116 0.0
H237 H 0.24011 0.16359 0.90337 0.0
H238 H 0.22073 0.23087 0.88936 0.0
C239 C 0.18617 0.24907 0.91467 0.0
O240 O 0.17688 0.24073 0.9238 0.0
N241 N 0.16216 0.19761 0.91423 0.0
C242 C 0.15486 0.18522 0.92317 0.0
C243 C 0.1308 0.1908 0.92529 0.0
C244 C 0.14209 0.21003 0.91092 0.0
N245 N 0.12281 0.20639 0.9176 0.0
C246 C 0.21154 0.17196 0.92548 0.0
C247 C 0.23679 0.21069 0.93448 0.0
C248 C 0.23369 0.18934 0.94065 0.0
C249 C 0.22183 0.16938 0.93581 0.0
C250 C 0.22604 0.21248 0.92422 0.0
N251 N 0.21173 0.19402 0.92029 0.0
H252 H 0.20216 0.15653 0.92194 0.0
H253 H 0.22915 0.22886 0.91954 0.0
H254 H 0.16562 0.17266 0.92788 0.0
H255 H 0.14179 0.2219 0.90388 0.0
O256 O 0.18898 0.16363 0.90294 0.0
O257 O 0.17664 0.19537 0.89313 0.0
O258 O 0.19452 0.23444 0.90748 0.0
C259 C 0.17813 0.17178 0.89424 0.0
H260 H 0.26195 0.21569 0.8801 0.0
H261 H 0.11987 0.18353 0.93189 0.0
H262 H 0.24708 0.22607 0.93762 0.0
H263 H 0.21943 0.15228 0.94012 0.0
Co264 Co 0.9456 0.94578 0.65518 0.0
C265 C 0.9308 0.99491 0.64803 0.0
C266 C 0.96618 0.98511 0.6418 0.0
C267 C 0.95947 0.00727 0.63738 0.0
N268 N 0.94816 0.97744 0.64844 0.0
N269 N 0.93721 0.01333 0.6413 0.0
H270 H 0.91324 0.99343 0.65205 0.0
H271 H 0.98253 0.97479 0.63991 0.0
C272 C 0.99538 0.93511 0.66438 0.0
O273 O 0.9855 0.92424 0.67284 0.0
N274 N 0.94313 0.91333 0.66166 0.0
C275 C 0.92856 0.90538 0.6698 0.0
C276 C 0.93257 0.88083 0.6714 0.0
C277 C 0.95531 0.89316 0.65827 0.0
N278 N 0.94941 0.87316 0.66417 0.0
C279 C 0.9165 0.96221 0.67317 0.0
C280 C 0.95396 0.98359 0.68484 0.0
C281 C 0.93094 0.98112 0.68973 0.0
C282 C 0.91182 0.97114 0.68359 0.0
C283 C 0.95784 0.97426 0.6744 0.0
N284 N 0.93971 0.96191 0.66908 0.0
H285 H 0.90158 0.95435 0.66862 0.0
H286 H 0.97553 0.97691 0.67073 0.0
H287 H 0.91545 0.91606 0.67426 0.0
H288 H 0.96856 0.89325 0.65172 0.0
O289 O 0.91229 0.9429 0.64995 0.0
O290 O 0.94545 0.9308 0.64105 0.0
O291 O 0.98205 0.94544 0.65721 0.0
C292 C 0.92179 0.9329 0.64132 0.0
H293 H 0.96982 0.01775 0.6315 0.0
H294 H 0.92337 0.86937 0.6773 0.0
H295 H 0.9691 0.99188 0.68915 0.0
H296 H 0.89349 0.96982 0.68689 0.0
Co297 Co 0.80953 0.19223 0.40675 0.0
C298 C 0.76244 0.17406 0.39835 0.0
C299 C 0.77329 0.20769 0.3907 0.0
C300 C 0.75221 0.19953 0.38579 0.0
N301 N 0.77962 0.19171 0.39854 0.0
N302 N 0.74548 0.17839 0.3906 0.0
H303 H 0.76307 0.15781 0.40337 0.0
H304 H 0.78379 0.22363 0.38841 0.0
C305 C 0.81439 0.24434 0.41426 0.0
O306 O 0.82184 0.2369 0.42387 0.0
N307 N 0.8403 0.19319 0.4147 0.0
C308 C 0.84769 0.18031 0.42349 0.0
C309 C 0.87128 0.18689 0.42603 0.0
C310 C 0.85988 0.20687 0.41188 0.0
N311 N 0.8789 0.20357 0.41872 0.0
C312 C 0.79098 0.16716 0.42554 0.0
C313 C 0.76432 0.20579 0.43381 0.0
C314 C 0.76782 0.18498 0.44031 0.0
C315 C 0.78033 0.165 0.43581 0.0
C316 C 0.77537 0.20712 0.42359 0.0
N317 N 0.79045 0.18885 0.42006 0.0
H318 H 0.80079 0.15169 0.42225 0.0
H319 H 0.77201 0.22306 0.41865 0.0
H320 H 0.83736 0.16661 0.42775 0.0
H321 H 0.86005 0.21925 0.405 0.0
O322 O 0.81505 0.15804 0.40335 0.0
O323 O 0.82766 0.18947 0.39341 0.0
O324 O 0.80791 0.22891 0.40703 0.0
C325 C 0.82638 0.16591 0.39471 0.0
H326 H 0.74287 0.20816 0.37905 0.0
H327 H 0.88222 0.17947 0.43258 0.0
H328 H 0.75355 0.22112 0.43669 0.0
H329 H 0.78298 0.14826 0.44037 0.0
Co330 Co 0.54782 0.05607 0.15666 0.0
C331 C 0.56347 0.00666 0.14929 0.0
C332 C 0.53182 0.01962 0.14081 0.0
C333 C 0.53957 0.99838 0.13592 0.0
N334 N 0.54652 0.02466 0.14933 0.0
N335 N 0.55955 0.99033 0.14123 0.0
H336 H 0.57965 0.00661 0.15428 0.0
H337 H 0.51734 0.03143 0.13791 0.0
C338 C 0.49514 0.04074 0.15851 0.0
O339 O 0.50159 0.0179 0.16018 0.0
N340 N 0.54922 0.0877 0.16357 0.0
C341 C 0.56469 0.09475 0.1715 0.0
C342 C 0.55969 0.11872 0.17413 0.0
C343 C 0.53532 0.10744 0.16135 0.0
N344 N 0.5413 0.12664 0.16772 0.0
C345 C 0.57119 0.03035 0.17437 0.0
C346 C 0.53469 0.03948 0.18938 0.0
C347 C 0.55649 0.02877 0.19296 0.0
C348 C 0.57474 0.02372 0.18527 0.0
C349 C 0.53197 0.04593 0.17851 0.0
N350 N 0.54988 0.04109 0.17105 0.0
H351 H 0.58634 0.02851 0.16883 0.0
H352 H 0.51607 0.05655 0.17641 0.0
H353 H 0.57869 0.08333 0.17508 0.0
H354 H 0.52106 0.10768 0.15524 0.0
O355 O 0.5823 0.05877 0.15301 0.0
O356 O 0.55141 0.07148 0.14277 0.0
O357 O 0.51111 0.05753 0.15724 0.0
C358 C 0.57487 0.0692 0.14406 0.0
H359 H 0.5318 0.99017 0.1287 0.0
H360 H 0.5692 0.12964 0.18013 0.0
H361 H 0.52013 0.04387 0.19504 0.0
H362 H 0.59216 0.0161 0.18774 0.0
Co363 Co 0.69636 0.79651 0.90482 0.0
C364 C 0.74555 0.8121 0.89717 0.0
C365 C 0.73146 0.78171 0.88815 0.0
C366 C 0.75255 0.78959 0.88318 0.0
N367 N 0.7272 0.79555 0.89704 0.0
N368 N 0.76131 0.80879 0.88884 0.0
H369 H 0.74631 0.82757 0.90259 0.0
H370 H 0.71924 0.76771 0.88512 0.0
C371 C 0.71218 0.74376 0.90594 0.0
O372 O 0.73523 0.75012 0.90692 0.0
N373 N 0.66523 0.7976 0.9122 0.0
C374 C 0.65877 0.81254 0.92043 0.0
C375 C 0.63482 0.80786 0.92317 0.0
C376 C 0.6451 0.78433 0.90991 0.0
N377 N 0.62625 0.79019 0.91653 0.0
C378 C 0.72207 0.82073 0.92222 0.0
C379 C 0.71699 0.78326 0.93711 0.0
C380 C 0.72611 0.80578 0.94071 0.0
C381 C 0.72916 0.82454 0.93304 0.0
C382 C 0.70971 0.78041 0.92636 0.0
N383 N 0.71249 0.79884 0.91895 0.0
H384 H 0.72258 0.83607 0.91672 0.0
H385 H 0.70013 0.76384 0.92437 0.0
H386 H 0.67051 0.82614 0.92409 0.0
H387 H 0.64428 0.7707 0.90353 0.0
O388 O 0.69305 0.83095 0.90119 0.0
O389 O 0.67986 0.79992 0.89116 0.0
O390 O 0.69522 0.75978 0.90537 0.0
C391 C 0.68205 0.8234 0.89241 0.0
H392 H 0.7602 0.78246 0.87571 0.0
H393 H 0.62429 0.81719 0.92937 0.0
H394 H 0.71439 0.76813 0.94268 0.0
H395 H 0.73556 0.84246 0.93548 0.0
Co396 Co 0.94583 0.05526 0.84095 0.0
C397 C 0.93159 0.00506 0.84789 0.0
C398 C 0.96398 0.01776 0.85585 0.0
C399 C 0.95703 0.99608 0.86059 0.0
N400 N 0.94835 0.02324 0.84772 0.0
N401 N 0.93657 0.98819 0.85561 0.0
H402 H 0.9148 0.00526 0.8433 0.0
H403 H 0.97852 0.02956 0.85867 0.0
C404 C 0.99909 0.04229 0.83852 0.0
O405 O 0.99365 0.01943 0.8363 0.0
N406 N 0.9433 0.08748 0.83465 0.0
C407 C 0.92745 0.0948 0.82693 0.0
C408 C 0.93133 0.11925 0.82487 0.0
C409 C 0.95636 0.10752 0.83732 0.0
N410 N 0.94946 0.12722 0.83142 0.0
C411 C 0.92351 0.0296 0.82307 0.0
C412 C 0.95913 0.04102 0.80795 0.0
C413 C 0.93805 0.02881 0.80445 0.0
C414 C 0.9202 0.02282 0.8122 0.0
C415 C 0.96159 0.04762 0.81883 0.0
N416 N 0.9442 0.04148 0.82634 0.0
H417 H 0.90862 0.02673 0.82865 0.0
H418 H 0.97689 0.05906 0.82097 0.0
H419 H 0.91388 0.08324 0.82313 0.0
H420 H 0.97063 0.10763 0.84342 0.0
O421 O 0.9113 0.05648 0.84452 0.0
O422 O 0.9416 0.06907 0.85515 0.0
O423 O 0.98242 0.05812 0.84034 0.0
C424 C 0.91823 0.06615 0.8537 0.0
H425 H 0.96565 0.98749 0.86753 0.0
H426 H 0.92122 0.13044 0.81917 0.0
H427 H 0.97337 0.04619 0.80228 0.0
H428 H 0.90323 0.01415 0.80981 0.0
Co429 Co 0.6949 0.19855 0.5913 0.0
C430 C 0.74491 0.18535 0.59888 0.0
C431 C 0.72985 0.21586 0.60752 0.0
C432 C 0.75133 0.20913 0.6125 0.0
N433 N 0.72593 0.20119 0.59887 0.0
N434 N 0.76071 0.18991 0.60707 0.0
H435 H 0.74616 0.16944 0.59375 0.0
H436 H 0.71715 0.22956 0.61043 0.0
C437 C 0.70835 0.25174 0.58946 0.0
O438 O 0.73153 0.24617 0.58811 0.0
N439 N 0.66357 0.19591 0.58419 0.0
C440 C 0.65736 0.18072 0.57603 0.0
C441 C 0.63304 0.18436 0.57357 0.0
C442 C 0.64301 0.20828 0.58673 0.0
N443 N 0.62407 0.20161 0.58034 0.0
C444 C 0.72228 0.17559 0.57403 0.0
C445 C 0.71469 0.21219 0.5589 0.0
C446 C 0.72718 0.19105 0.55569 0.0
C447 C 0.73094 0.17253 0.5634 0.0
C448 C 0.7062 0.2144 0.56952 0.0
N449 N 0.71063 0.19661 0.57709 0.0
H450 H 0.72375 0.16042 0.57959 0.0
H451 H 0.69465 0.22982 0.57134 0.0
H452 H 0.66954 0.16771 0.57221 0.0
H453 H 0.64197 0.22187 0.59311 0.0
O454 O 0.69329 0.16409 0.59513 0.0
O455 O 0.6791 0.19481 0.6051 0.0
O456 O 0.69212 0.23513 0.59052 0.0
C457 C 0.6823 0.17141 0.60396 0.0
H458 H 0.75884 0.217 0.61986 0.0
H459 H 0.62259 0.17462 0.56748 0.0
H460 H 0.71029 0.22643 0.55309 0.0
H461 H 0.73996 0.15561 0.56118 0.0
Co462 Co 0.54933 0.9419 0.34153 0.0
C463 C 0.56779 0.9889 0.34969 0.0
C464 C 0.53371 0.97907 0.35721 0.0
C465 C 0.54226 0.00011 0.36205 0.0
N466 N 0.54976 0.97214 0.3495 0.0
N467 N 0.56367 0.00619 0.35731 0.0
H468 H 0.58423 0.98767 0.34482 0.0
H469 H 0.5175 0.96896 0.35948 0.0
C470 C 0.49757 0.93647 0.33349 0.0
O471 O 0.50525 0.92718 0.32425 0.0
N472 N 0.54863 0.91088 0.33373 0.0
C473 C 0.55915 0.90455 0.32419 0.0
C474 C 0.55371 0.88054 0.32195 0.0
C475 C 0.53718 0.89035 0.33718 0.0
N476 N 0.53994 0.87164 0.33011 0.0
C477 C 0.57789 0.96003 0.32374 0.0
C478 C 0.54071 0.98461 0.31318 0.0
C479 C 0.56324 0.98164 0.30788 0.0
C480 C 0.5823 0.97013 0.31351 0.0
C481 C 0.53711 0.97417 0.32344 0.0
N482 N 0.55497 0.96028 0.32816 0.0
H483 H 0.59261 0.95045 0.32775 0.0
H484 H 0.51979 0.97706 0.32742 0.0
H485 H 0.57012 0.91606 0.31906 0.0
H486 H 0.52668 0.88928 0.34462 0.0
O487 O 0.58289 0.93573 0.34585 0.0
O488 O 0.54995 0.92421 0.35504 0.0
O489 O 0.51279 0.94442 0.34051 0.0
C490 C 0.57364 0.92487 0.35433 0.0
H491 H 0.53373 0.00982 0.36872 0.0
H492 H 0.55983 0.87029 0.31492 0.0
H493 H 0.52565 0.99404 0.30929 0.0
H494 H 0.60029 0.96827 0.30991 0.0
Co495 Co 0.8032 0.8029 0.09102 0.0
C496 C 0.75414 0.81868 0.09889 0.0
C497 C 0.76777 0.78728 0.10737 0.0
C498 C 0.74674 0.79497 0.11244 0.0
N499 N 0.77225 0.80185 0.09874 0.0
N500 N 0.73826 0.81481 0.10714 0.0
H501 H 0.75365 0.83468 0.09378 0.0
H502 H 0.7798 0.7729 0.11018 0.0
C503 C 0.78757 0.7501 0.08956 0.0
O504 O 0.76455 0.7564 0.08835 0.0
N505 N 0.83444 0.80393 0.08376 0.0
C506 C 0.84127 0.81888 0.07559 0.0
C507 C 0.86539 0.81419 0.0731 0.0
C508 C 0.85445 0.79062 0.08623 0.0
N509 N 0.87364 0.79649 0.07982 0.0
C510 C 0.77698 0.82723 0.07386 0.0
C511 C 0.78077 0.7898 0.05885 0.0
C512 C 0.77005 0.81189 0.05568 0.0
C513 C 0.76827 0.83084 0.06328 0.0
C514 C 0.78977 0.78717 0.06938 0.0
N515 N 0.78717 0.80543 0.0769 0.0
H516 H 0.77672 0.8425 0.0794 0.0
H517 H 0.80009 0.77089 0.07116 0.0
H518 H 0.82968 0.8325 0.07184 0.0
H519 H 0.85492 0.77699 0.09261 0.0
O520 O 0.80652 0.83731 0.0946 0.0
O521 O 0.81938 0.80633 0.10477 0.0
O522 O 0.80439 0.76619 0.09039 0.0
C523 C 0.81718 0.82982 0.10348 0.0
H524 H 0.73895 0.78722 0.11977 0.0
H525 H 0.87621 0.82359 0.06703 0.0
H526 H 0.78337 0.77511 0.05305 0.0
H527 H 0.76066 0.84842 0.06101 0.0
Co528 Co 0.54922 0.553 0.84205 0.0
C529 C 0.56445 0.50325 0.84923 0.0
C530 C 0.53294 0.51634 0.85778 0.0
C531 C 0.54044 0.4949 0.86256 0.0
N532 N 0.54765 0.52141 0.84925 0.0
N533 N 0.56034 0.48676 0.85721 0.0
H534 H 0.58072 0.50322 0.84429 0.0
H535 H 0.51867 0.52827 0.86078 0.0
C536 C 0.49602 0.53944 0.8409 0.0
O537 O 0.50169 0.5166 0.83873 0.0
N538 N 0.55093 0.58481 0.83529 0.0
C539 C 0.56597 0.59159 0.82716 0.0
C540 C 0.56192 0.6159 0.82488 0.0
C541 C 0.53819 0.60506 0.83799 0.0
N542 N 0.5445 0.62435 0.83171 0.0
C543 C 0.56944 0.5261 0.82398 0.0
C544 C 0.53196 0.53661 0.80964 0.0
C545 C 0.55232 0.52365 0.80584 0.0
C546 C 0.57125 0.51836 0.81316 0.0
C547 C 0.53099 0.54416 0.82044 0.0
N548 N 0.54922 0.53834 0.82759 0.0
H549 H 0.58498 0.52352 0.82922 0.0
H550 H 0.5162 0.55609 0.82277 0.0
H551 H 0.57915 0.57975 0.82324 0.0
H552 H 0.5246 0.60561 0.84438 0.0
O553 O 0.58412 0.55453 0.84482 0.0
O554 O 0.55498 0.56771 0.85596 0.0
O555 O 0.51255 0.55565 0.84223 0.0
C556 C 0.57816 0.56473 0.85403 0.0
H557 H 0.53258 0.48663 0.86975 0.0
H558 H 0.57149 0.6267 0.81885 0.0
H559 H 0.51744 0.54209 0.80416 0.0
H560 H 0.5876 0.5089 0.81049 0.0
Co561 Co 0.69216 0.29785 0.08965 0.0
C562 C 0.73728 0.32015 0.09803 0.0
C563 C 0.73385 0.2829 0.10334 0.0
C564 C 0.75494 0.29254 0.10771 0.0
N565 N 0.72289 0.30024 0.09726 0.0
N566 N 0.75694 0.31598 0.1044 0.0
H567 H 0.73333 0.33741 0.09409 0.0
H568 H 0.7268 0.26471 0.10475 0.0
C569 C 0.68723 0.24487 0.08337 0.0
O570 O 0.67842 0.25102 0.07381 0.0
N571 N 0.66085 0.29535 0.08218 0.0
C572 C 0.65374 0.30541 0.07265 0.0
C573 C 0.62992 0.29895 0.07061 0.0
C574 C 0.64089 0.28327 0.08586 0.0
N575 N 0.62185 0.28504 0.0789 0.0
C576 C 0.70949 0.32293 0.07069 0.0
C577 C 0.73509 0.28426 0.0618 0.0
C578 C 0.73184 0.30554 0.05558 0.0
C579 C 0.71976 0.32543 0.06036 0.0
C580 C 0.72447 0.28259 0.07211 0.0
N581 N 0.71003 0.30101 0.076 0.0
H582 H 0.69966 0.33826 0.07408 0.0
H583 H 0.72783 0.26635 0.07684 0.0
H584 H 0.66452 0.31694 0.06745 0.0
H585 H 0.64046 0.2731 0.09341 0.0
O586 O 0.68549 0.33206 0.09266 0.0
O587 O 0.67515 0.30094 0.10326 0.0
O588 O 0.69481 0.26122 0.08996 0.0
C589 C 0.67525 0.3244 0.10159 0.0
H590 H 0.76734 0.28334 0.11322 0.0
H591 H 0.61916 0.30455 0.06365 0.0
H592 H 0.74545 0.26891 0.05867 0.0
H593 H 0.71714 0.34242 0.05598 0.0
Co594 Co 0.94623 0.43987 0.34254 0.0
C595 C 0.93195 0.48923 0.35061 0.0
C596 C 0.96255 0.47421 0.3592 0.0
C597 C 0.95562 0.49551 0.36428 0.0
N598 N 0.94792 0.47038 0.35053 0.0
N599 N 0.93634 0.50486 0.35887 0.0
H600 H 0.91623 0.49062 0.34536 0.0
H601 H 0.97657 0.46168 0.36195 0.0
C602 C 0.9983 0.4567 0.3401 0.0
O603 O 0.99123 0.47962 0.33945 0.0
N604 N 0.94467 0.40899 0.33499 0.0
C605 C 0.92927 0.40243 0.32696 0.0
C606 C 0.93362 0.37829 0.32435 0.0
C607 C 0.95791 0.38883 0.33728 0.0
N608 N 0.95154 0.36978 0.33089 0.0
C609 C 0.91925 0.46637 0.32624 0.0
C610 C 0.95548 0.46572 0.31057 0.0
C611 C 0.93291 0.47631 0.30808 0.0
C612 C 0.9145 0.47636 0.31598 0.0
C613 C 0.95924 0.45541 0.32078 0.0
N614 N 0.94165 0.45667 0.32868 0.0
H615 H 0.90451 0.46554 0.33206 0.0
H616 H 0.97594 0.44536 0.32202 0.0
H617 H 0.91551 0.41415 0.32339 0.0
H618 H 0.97178 0.38812 0.34355 0.0
O619 O 0.91243 0.43607 0.34704 0.0
O620 O 0.94483 0.42277 0.35615 0.0
O621 O 0.9828 0.43934 0.34095 0.0
C622 C 0.9212 0.42489 0.35554 0.0
H623 H 0.96354 0.50302 0.37162 0.0
H624 H 0.92381 0.36761 0.31837 0.0
H625 H 0.96975 0.46442 0.30447 0.0
H626 H 0.89656 0.48376 0.31419 0.0
Co627 Co 0.80293 0.6981 0.59309 0.0
C628 C 0.75418 0.68357 0.60081 0.0
C629 C 0.76604 0.71719 0.60814 0.0
C630 C 0.74424 0.71033 0.61285 0.0
N631 N 0.77219 0.70035 0.60063 0.0
N632 N 0.7369 0.68918 0.60824 0.0
H633 H 0.75453 0.66684 0.5961 0.0
H634 H 0.77719 0.73269 0.61042 0.0
C635 C 0.8133 0.74921 0.58545 0.0
O636 O 0.8209 0.74067 0.57605 0.0
N637 N 0.83447 0.69599 0.58581 0.0
C638 C 0.84168 0.68137 0.57756 0.0
C639 C 0.86603 0.68553 0.57545 0.0
C640 C 0.85486 0.70823 0.58881 0.0
N641 N 0.87428 0.70242 0.58253 0.0
C642 C 0.78403 0.67444 0.57401 0.0
C643 C 0.76282 0.71546 0.56491 0.0
C644 C 0.7648 0.69413 0.55866 0.0
C645 C 0.77438 0.67305 0.56353 0.0
C646 C 0.77242 0.71586 0.57542 0.0
N647 N 0.7851 0.69625 0.57939 0.0
H648 H 0.79169 0.65812 0.5776 0.0
H649 H 0.77001 0.73218 0.58022 0.0
H650 H 0.83065 0.668 0.57344 0.0
H651 H 0.85536 0.72136 0.5954 0.0
O652 O 0.80494 0.66362 0.59661 0.0
O653 O 0.81928 0.69387 0.60679 0.0
O654 O 0.80477 0.73478 0.59268 0.0
C655 C 0.81611 0.67051 0.60544 0.0
H656 H 0.73494 0.71975 0.6194 0.0
H657 H 0.87698 0.67634 0.56936 0.0
H658 H 0.75434 0.73178 0.56162 0.0
H659 H 0.77559 0.65597 0.5591 0.0
Co660 Co 0.54852 0.44574 0.65642 0.0
C661 C 0.56546 0.49362 0.6485 0.0
C662 C 0.53259 0.48207 0.64044 0.0
C663 C 0.54041 0.50355 0.63575 0.0
N664 N 0.54834 0.47593 0.6484 0.0
N665 N 0.56106 0.51073 0.64083 0.0
H666 H 0.58147 0.49327 0.65368 0.0
H667 H 0.51709 0.47117 0.63792 0.0
C668 C 0.49645 0.43855 0.66355 0.0
O669 O 0.50386 0.43078 0.67311 0.0
N670 N 0.54846 0.4147 0.6642 0.0
C671 C 0.56123 0.40785 0.67309 0.0
C672 C 0.55658 0.38364 0.67524 0.0
C673 C 0.53665 0.39421 0.66096 0.0
N674 N 0.54115 0.37504 0.66761 0.0
C675 C 0.57277 0.46493 0.67527 0.0
C676 C 0.53306 0.48966 0.68372 0.0
C677 C 0.55412 0.48712 0.69013 0.0
C678 C 0.57457 0.47555 0.68556 0.0
C679 C 0.53208 0.47864 0.67348 0.0
N680 N 0.55101 0.46452 0.66984 0.0
H681 H 0.58861 0.45582 0.67194 0.0
H682 H 0.51594 0.48134 0.6686 0.0
H683 H 0.57378 0.41893 0.67765 0.0
H684 H 0.52501 0.3934 0.65385 0.0
O685 O 0.58296 0.44134 0.65312 0.0
O686 O 0.55206 0.42818 0.643 0.0
O687 O 0.51183 0.44615 0.65652 0.0
C688 C 0.57554 0.43004 0.6444 0.0
H689 H 0.53189 0.51287 0.62897 0.0
H690 H 0.56471 0.37293 0.68171 0.0
H691 H 0.5173 0.49971 0.68665 0.0
H692 H 0.59148 0.47359 0.69005 0.0
Co693 Co 0.80536 0.29931 0.90469 0.0
C694 C 0.75578 0.31411 0.89714 0.0
C695 C 0.76983 0.28324 0.88842 0.0
C696 C 0.7484 0.29056 0.88354 0.0
N697 N 0.77431 0.29775 0.89707 0.0
N698 N 0.73965 0.31002 0.88903 0.0
H699 H 0.75507 0.32998 0.90231 0.0
H700 H 0.78204 0.26914 0.88548 0.0
C701 C 0.79006 0.24668 0.90652 0.0
O702 O 0.76712 0.25316 0.90786 0.0
N703 N 0.83665 0.30099 0.91189 0.0
C704 C 0.84318 0.31647 0.91989 0.0
C705 C 0.86733 0.3123 0.92246 0.0
C706 C 0.85687 0.28786 0.90957 0.0
N707 N 0.87591 0.29437 0.91594 0.0
C708 C 0.7784 0.32276 0.92203 0.0
C709 C 0.78484 0.28558 0.93699 0.0
C710 C 0.77264 0.30685 0.94025 0.0
C711 C 0.76955 0.32571 0.93265 0.0
C712 C 0.79358 0.28352 0.92641 0.0
N713 N 0.78959 0.30153 0.9189 0.0
H714 H 0.77744 0.33811 0.91655 0.0
H715 H 0.80491 0.26794 0.92457 0.0
H716 H 0.83135 0.3301 0.92349 0.0
H717 H 0.85762 0.27392 0.90333 0.0
O718 O 0.80805 0.33374 0.90095 0.0
O719 O 0.82142 0.30272 0.89094 0.0
O720 O 0.80693 0.26263 0.90542 0.0
C721 C 0.81897 0.3262 0.89213 0.0
H722 H 0.74045 0.2828 0.87626 0.0
H723 H 0.87795 0.32218 0.92845 0.0
H724 H 0.78879 0.27109 0.94274 0.0
H725 H 0.76086 0.34276 0.93493 0.0
Co726 Co 0.94364 0.55861 0.15772 0.0
C727 C 0.92512 0.51008 0.15073 0.0
C728 C 0.9595 0.5187 0.14335 0.0
C729 C 0.95101 0.49728 0.13887 0.0
N730 N 0.94363 0.52642 0.15104 0.0
N731 N 0.9293 0.49203 0.14347 0.0
H732 H 0.90812 0.51214 0.15508 0.0
H733 H 0.97534 0.5288 0.14061 0.0
C734 C 0.99589 0.54203 0.16013 0.0
O735 O 0.98867 0.52005 0.16302 0.0
N736 N 0.94353 0.59091 0.16399 0.0
C737 C 0.9287 0.59915 0.17194 0.0
C738 C 0.93455 0.62314 0.17411 0.0
C739 C 0.95789 0.60999 0.16128 0.0
N740 N 0.95283 0.6299 0.16738 0.0
C741 C 0.92035 0.53435 0.17579 0.0
C742 C 0.95705 0.54374 0.19064 0.0
C743 C 0.93543 0.53274 0.19432 0.0
C744 C 0.917 0.52781 0.18669 0.0
C745 C 0.95946 0.5503 0.17976 0.0
N746 N 0.94156 0.54507 0.17236 0.0
H747 H 0.90518 0.53224 0.17029 0.0
H748 H 0.97526 0.56094 0.17751 0.0
H749 H 0.91459 0.58847 0.17587 0.0
H750 H 0.97185 0.60925 0.15504 0.0
O751 O 0.90915 0.56225 0.1544 0.0
O752 O 0.93985 0.57258 0.14351 0.0
O753 O 0.9804 0.55888 0.15803 0.0
C754 C 0.9164 0.57135 0.14514 0.0
H755 H 0.95918 0.48742 0.13215 0.0
H756 H 0.92574 0.63486 0.18003 0.0
H757 H 0.97184 0.548 0.19618 0.0
H758 H 0.89964 0.52011 0.18919 0.0
Co759 Co 0.69667 0.6956 0.40788 0.0
C760 C 0.74488 0.67916 0.40017 0.0
C761 C 0.73473 0.71372 0.39319 0.0
C762 C 0.75637 0.70621 0.38853 0.0
N763 N 0.72761 0.69673 0.40045 0.0
N764 N 0.76264 0.68446 0.39291 0.0
H765 H 0.74368 0.6622 0.40468 0.0
H766 H 0.72438 0.72987 0.39105 0.0
C767 C 0.68711 0.74725 0.41528 0.0
O768 O 0.67825 0.73933 0.42457 0.0
N769 N 0.66503 0.69459 0.41511 0.0
C770 C 0.65786 0.68132 0.4238 0.0
C771 C 0.63369 0.68634 0.42597 0.0
C772 C 0.64481 0.70691 0.41193 0.0
N773 N 0.62554 0.70244 0.41851 0.0
C774 C 0.71526 0.66984 0.42643 0.0
C775 C 0.73495 0.70985 0.43694 0.0
C776 C 0.73314 0.68761 0.4426 0.0
C777 C 0.72442 0.66711 0.43694 0.0
C778 C 0.72598 0.71159 0.42634 0.0
N779 N 0.71409 0.69233 0.42164 0.0
H780 H 0.7078 0.65399 0.4224 0.0
H781 H 0.72825 0.72866 0.42208 0.0
H782 H 0.66888 0.6685 0.42828 0.0
H783 H 0.6444 0.71933 0.40507 0.0
O784 O 0.69303 0.66137 0.40404 0.0
O785 O 0.6804 0.69277 0.39411 0.0
O786 O 0.69637 0.73234 0.40843 0.0
C787 C 0.68237 0.66923 0.39524 0.0
H788 H 0.76632 0.71567 0.38219 0.0
H789 H 0.62281 0.6784 0.43242 0.0
H790 H 0.74226 0.72612 0.44075 0.0
H791 H 0.72392 0.64921 0.4407 0.0
Co792 Co 0.44577 0.4428 0.15698 0.0
C793 C 0.43136 0.49221 0.14918 0.0
C794 C 0.46088 0.47691 0.13996 0.0
C795 C 0.45355 0.49821 0.13499 0.0
N796 N 0.4472 0.47328 0.14896 0.0
N797 N 0.43492 0.50774 0.14079 0.0
H798 H 0.41617 0.49366 0.15473 0.0
H799 H 0.47441 0.4642 0.1369 0.0
C800 C 0.49882 0.45785 0.15795 0.0
O801 O 0.49296 0.48111 0.15857 0.0
N802 N 0.44437 0.41201 0.1646 0.0
C803 C 0.42978 0.40593 0.17301 0.0
C804 C 0.4342 0.38189 0.17573 0.0
C805 C 0.45717 0.39163 0.16221 0.0
N806 N 0.45133 0.37295 0.1689 0.0
C807 C 0.42106 0.46944 0.17386 0.0
C808 C 0.45889 0.4683 0.18874 0.0
C809 C 0.43649 0.4785 0.19181 0.0
C810 C 0.41735 0.47895 0.18428 0.0
C811 C 0.46164 0.45845 0.17836 0.0
N812 N 0.44313 0.45972 0.1709 0.0
H813 H 0.4057 0.46882 0.16837 0.0
H814 H 0.47826 0.44861 0.17669 0.0
H815 H 0.41658 0.41795 0.17679 0.0
H816 H 0.47042 0.39053 0.15569 0.0
O817 O 0.4114 0.43959 0.1533 0.0
O818 O 0.44244 0.42587 0.14341 0.0
O819 O 0.48243 0.44125 0.15769 0.0
C820 C 0.41896 0.42842 0.14457 0.0
H821 H 0.46065 0.50553 0.12745 0.0
H822 H 0.42501 0.37157 0.18204 0.0
H823 H 0.47377 0.46676 0.19452 0.0
H824 H 0.39957 0.48616 0.1865 0.0
Co825 Co 0.30744 0.69663 0.90932 0.0
C826 C 0.25858 0.67973 0.90213 0.0
C827 C 0.26759 0.71456 0.89531 0.0
C828 C 0.24615 0.70659 0.89065 0.0
N829 N 0.27508 0.69807 0.90279 0.0
N830 N 0.24068 0.68458 0.89489 0.0
H831 H 0.26058 0.66229 0.90613 0.0
H832 H 0.27794 0.73038 0.89274 0.0
C833 C 0.29406 0.74981 0.91181 0.0
O834 O 0.27166 0.74417 0.91475 0.0
N835 N 0.33989 0.69495 0.91543 0.0
C836 C 0.34755 0.67963 0.92331 0.0
C837 C 0.37187 0.68422 0.92536 0.0
C838 C 0.35961 0.70837 0.91265 0.0
N839 N 0.3794 0.70223 0.91864 0.0
C840 C 0.28094 0.67631 0.92755 0.0
C841 C 0.29398 0.71253 0.94212 0.0
C842 C 0.27978 0.69293 0.9458 0.0
C843 C 0.27335 0.67454 0.9384 0.0
C844 C 0.30136 0.71343 0.9313 0.0
N845 N 0.29418 0.69594 0.92403 0.0
H846 H 0.27716 0.66127 0.92217 0.0
H847 H 0.31395 0.72768 0.92896 0.0
H848 H 0.33624 0.66606 0.92727 0.0
H849 H 0.3594 0.72244 0.90646 0.0
O850 O 0.30922 0.66187 0.90621 0.0
O851 O 0.32079 0.69173 0.8951 0.0
O852 O 0.30973 0.73329 0.90948 0.0
C853 C 0.3184 0.66842 0.89687 0.0
H854 H 0.23655 0.71528 0.88399 0.0
H855 H 0.38326 0.67476 0.9312 0.0
H856 H 0.30032 0.72654 0.94767 0.0
H857 H 0.2629 0.65875 0.94099 0.0
Co858 Co 0.05004 0.5558 0.65516 0.0
C859 C 0.06925 0.50843 0.64788 0.0
C860 C 0.03137 0.51223 0.64362 0.0
C861 C 0.03977 0.49015 0.63967 0.0
N862 N 0.04991 0.52358 0.64877 0.0
N863 N 0.06362 0.48796 0.64229 0.0
H864 H 0.08722 0.51251 0.65109 0.0
H865 H 0.01326 0.51973 0.64247 0.0
C866 C 0.99907 0.56459 0.66327 0.0
O867 O 0.00796 0.57529 0.67199 0.0
N868 N 0.05029 0.58863 0.66134 0.0
C869 C 0.06402 0.59771 0.66953 0.0
C870 C 0.05826 0.62195 0.67101 0.0
C871 C 0.03698 0.60789 0.65774 0.0
N872 N 0.04126 0.62831 0.66362 0.0
C873 C 0.07657 0.54145 0.67437 0.0
C874 C 0.03761 0.51943 0.68478 0.0
C875 C 0.05926 0.52341 0.69057 0.0
C876 C 0.07936 0.53342 0.68509 0.0
C877 C 0.03579 0.52745 0.67405 0.0
N878 N 0.0543 0.54051 0.66936 0.0
H879 H 0.09206 0.54958 0.67029 0.0
H880 H 0.01926 0.52336 0.66964 0.0
H881 H 0.07766 0.588 0.6741 0.0
H882 H 0.024 0.60678 0.65111 0.0
O883 O 0.08395 0.55995 0.65087 0.0
O884 O 0.05166 0.57008 0.64092 0.0
O885 O 0.01331 0.555 0.65622 0.0
C886 C 0.0753 0.56912 0.64188 0.0
H887 H 0.02946 0.47726 0.63481 0.0
H888 H 0.06629 0.63411 0.67697 0.0
H889 H 0.02209 0.51052 0.68857 0.0
H890 H 0.09668 0.53609 0.6892 0.0
Co891 Co 0.19227 0.30595 0.40727 0.0
C892 C 0.24186 0.31937 0.39916 0.0
C893 C 0.22698 0.28798 0.39111 0.0
C894 C 0.24835 0.29437 0.38597 0.0
N895 N 0.22305 0.30337 0.39951 0.0
N896 N 0.25762 0.31418 0.39101 0.0
H897 H 0.24304 0.33567 0.40406 0.0
H898 H 0.21442 0.27387 0.38852 0.0
C899 C 0.20675 0.25307 0.40967 0.0
O900 O 0.22985 0.25907 0.41085 0.0
N901 N 0.16116 0.30835 0.41457 0.0
C902 C 0.15472 0.32388 0.42258 0.0
C903 C 0.13054 0.31975 0.42519 0.0
C904 C 0.14093 0.29525 0.41231 0.0
N905 N 0.12193 0.30182 0.41869 0.0
C906 C 0.21964 0.33075 0.42393 0.0
C907 C 0.21553 0.29442 0.43945 0.0
C908 C 0.22749 0.31616 0.44214 0.0
C909 C 0.22931 0.33463 0.43432 0.0
C910 C 0.20561 0.29155 0.42911 0.0
N911 N 0.20855 0.30914 0.4213 0.0
H912 H 0.2201 0.34564 0.41819 0.0
H913 H 0.1945 0.27562 0.42767 0.0
H914 H 0.16662 0.33744 0.42617 0.0
H915 H 0.14018 0.28121 0.40611 0.0
O916 O 0.18983 0.34013 0.40318 0.0
O917 O 0.17604 0.30877 0.3935 0.0
O918 O 0.19023 0.26937 0.4085 0.0
C919 C 0.17891 0.33227 0.39444 0.0
H920 H 0.25591 0.28574 0.3788 0.0
H921 H 0.11996 0.3296 0.43121 0.0
H922 H 0.21287 0.28019 0.44547 0.0
H923 H 0.23781 0.35199 0.43626 0.0
Co924 Co 0.44855 0.55312 0.34291 0.0
C925 C 0.43459 0.50268 0.34946 0.0
C926 C 0.46573 0.51601 0.35819 0.0
C927 C 0.45871 0.49415 0.36273 0.0
N928 N 0.45089 0.52123 0.34973 0.0
N929 N 0.43904 0.48587 0.35727 0.0
H930 H 0.41843 0.50251 0.34445 0.0
H931 H 0.47975 0.52807 0.3613 0.0
C932 C 0.50182 0.53976 0.34092 0.0
O933 O 0.49635 0.51679 0.33897 0.0
N934 N 0.44614 0.58521 0.3365 0.0
C935 C 0.43 0.59253 0.3289 0.0
C936 C 0.43428 0.61679 0.32658 0.0
C937 C 0.45978 0.60505 0.33884 0.0
N938 N 0.45296 0.62462 0.33285 0.0
C939 C 0.42574 0.52835 0.3249 0.0
C940 C 0.46238 0.53804 0.31005 0.0
C941 C 0.44073 0.52719 0.30635 0.0
C942 C 0.42236 0.52201 0.31398 0.0
C943 C 0.4648 0.54446 0.32094 0.0
N944 N 0.44689 0.53919 0.32833 0.0
H945 H 0.41058 0.52607 0.33041 0.0
H946 H 0.48055 0.55518 0.32314 0.0
H947 H 0.41601 0.58108 0.32533 0.0
H948 H 0.47449 0.60509 0.34473 0.0
O949 O 0.414 0.55453 0.34647 0.0
O950 O 0.44432 0.56717 0.35707 0.0
O951 O 0.48517 0.55581 0.34238 0.0
C952 C 0.42095 0.5643 0.35563 0.0
H953 H 0.46668 0.48567 0.36985 0.0
H954 H 0.42412 0.62793 0.32087 0.0
H955 H 0.47715 0.54243 0.30451 0.0
H956 H 0.40501 0.51434 0.31147 0.0
Co957 Co 0.1884 0.69418 0.09362 0.0
C958 C 0.23575 0.67692 0.1021 0.0
C959 C 0.22388 0.7099 0.11 0.0
C960 C 0.24526 0.70222 0.11481 0.0
N961 N 0.21801 0.69402 0.10206 0.0
N962 N 0.25264 0.68146 0.10985 0.0
H963 H 0.23565 0.66093 0.09691 0.0
H964 H 0.21298 0.72552 0.11238 0.0
C965 C 0.18186 0.74681 0.08711 0.0
O966 O 0.17544 0.74015 0.07725 0.0
N967 N 0.15796 0.69469 0.08541 0.0
C968 C 0.1515 0.68231 0.07635 0.0
C969 C 0.12776 0.68816 0.07371 0.0
C970 C 0.13771 0.70736 0.08828 0.0
N971 N 0.11913 0.7039 0.08121 0.0
C972 C 0.20893 0.67167 0.07467 0.0
C973 C 0.23504 0.71168 0.06742 0.0
C974 C 0.23322 0.69106 0.06068 0.0
C975 C 0.22079 0.67048 0.06465 0.0
C976 C 0.22281 0.71202 0.0774 0.0
N977 N 0.20818 0.69296 0.08044 0.0
H978 H 0.19943 0.65563 0.07755 0.0
H979 H 0.22508 0.72775 0.0826 0.0
H980 H 0.16259 0.66943 0.07196 0.0
H981 H 0.13675 0.71913 0.09534 0.0
O982 O 0.18441 0.65947 0.09622 0.0
O983 O 0.16984 0.68907 0.10671 0.0
O984 O 0.18838 0.73088 0.09412 0.0
C985 C 0.17236 0.66577 0.10491 0.0
H986 H 0.25443 0.71101 0.12156 0.0
H987 H 0.11744 0.68088 0.06694 0.0
H988 H 0.24558 0.72751 0.06496 0.0
H989 H 0.21927 0.65391 0.05988 0.0
Co990 Co 0.05251 0.44365 0.8409 0.0
C991 C 0.07295 0.49028 0.84852 0.0
C992 C 0.0356 0.48624 0.8536 0.0
C993 C 0.04449 0.50796 0.85768 0.0
N994 N 0.05349 0.47526 0.84784 0.0
N995 N 0.068 0.51034 0.85453 0.0
H996 H 0.09049 0.48643 0.84481 0.0
H997 H 0.01758 0.47875 0.85502 0.0
C998 C 6e-05 0.43638 0.83415 0.0
O999 O 0.00703 0.42686 0.82484 0.0
N1000 N 0.05154 0.41154 0.8341 0.0
C1001 C 0.06382 0.40345 0.82527 0.0
C1002 C 0.05768 0.37945 0.82341 0.0
C1003 C 0.03864 0.39198 0.83764 0.0
N1004 N 0.04185 0.37227 0.83116 0.0
C1005 C 0.07833 0.4602 0.82201 0.0
C1006 C 0.03922 0.4821 0.8117 0.0
C1007 C 0.0614 0.47974 0.80603 0.0
C1008 C 0.08143 0.46966 0.81157 0.0
C1009 C 0.03711 0.4728 0.82224 0.0
N1010 N 0.05589 0.46005 0.82688 0.0
H1011 H 0.09391 0.45197 0.82597 0.0
H1012 H 0.02022 0.47582 0.82654 0.0
H1013 H 0.07667 0.41376 0.8205 0.0
H1014 H 0.02673 0.39236 0.84467 0.0
O1015 O 0.08669 0.43852 0.84438 0.0
O1016 O 0.05547 0.42817 0.8549 0.0
O1017 O 0.01578 0.44509 0.84078 0.0
C1018 C 0.07899 0.42891 0.85343 0.0
H1019 H 0.03474 0.5205 0.86294 0.0
H1020 H 0.06468 0.36799 0.81693 0.0
H1021 H 0.02331 0.49039 0.80797 0.0
H1022 H 0.09933 0.46862 0.80782 0.0
Co1023 Co 0.30653 0.29828 0.59258 0.0
C1024 C 0.25732 0.31525 0.59925 0.0
C1025 C 0.26801 0.28285 0.60779 0.0
C1026 C 0.24634 0.29115 0.61216 0.0
N1027 N 0.27463 0.29764 0.5995 0.0
N1028 N 0.23982 0.31165 0.60682 0.0
H1029 H 0.2582 0.33129 0.59418 0.0
H1030 H 0.27896 0.26792 0.6109 0.0
C1031 C 0.29069 0.24555 0.5906 0.0
O1032 O 0.26781 0.25182 0.58892 0.0
N1033 N 0.33855 0.29914 0.586 0.0
C1034 C 0.34623 0.31453 0.57815 0.0
C1035 C 0.37015 0.30904 0.57566 0.0
C1036 C 0.35792 0.28477 0.58832 0.0
N1037 N 0.37745 0.29039 0.58207 0.0
C1038 C 0.28303 0.32317 0.57476 0.0
C1039 C 0.2891 0.286 0.5598 0.0
C1040 C 0.2798 0.30847 0.55622 0.0
C1041 C 0.27645 0.32713 0.5639 0.0
C1042 C 0.2958 0.28296 0.57063 0.0
N1043 N 0.29229 0.30117 0.57809 0.0
H1044 H 0.28225 0.33844 0.58029 0.0
H1045 H 0.30534 0.26639 0.5727 0.0
H1046 H 0.33526 0.32883 0.57453 0.0
H1047 H 0.35764 0.2704 0.59438 0.0
O1048 O 0.30972 0.33257 0.59642 0.0
O1049 O 0.32123 0.30119 0.60667 0.0
O1050 O 0.3074 0.26159 0.59187 0.0
C1051 C 0.31943 0.32472 0.60545 0.0
H1052 H 0.23711 0.28376 0.61922 0.0
H1053 H 0.38146 0.31835 0.56974 0.0
H1054 H 0.29207 0.27099 0.55421 0.0
H1055 H 0.27006 0.34507 0.56148 0.0
C1056 C 0.21276 0.21141 0.40191 0.0
C1057 C 0.19943 0.22736 0.40859 0.0
C1058 C 0.20248 0.18916 0.39863 0.0
C1059 C 0.14066 0.1652 0.39414 0.0
H1060 H 0.17458 0.10641 0.38496 0.0
C1061 C 0.08861 0.08991 0.37224 0.0
C1062 C 0.09916 0.08199 0.36244 0.0
C1063 C 0.10241 0.103 0.37977 0.0
C1064 C 0.16492 0.12274 0.3875 0.0
H1065 H 0.16639 0.2318 0.41809 0.0
H1066 H 0.14902 0.19249 0.41292 0.0
H1067 H 0.1965 0.13751 0.39549 0.0
H1068 H 0.13276 0.08025 0.35311 0.0
H1069 H 0.15687 0.1037 0.36623 0.0
H1070 H 0.10936 0.15098 0.38599 0.0
C1071 C 0.16686 0.19742 0.40978 0.0
C1072 C 0.17744 0.14052 0.39352 0.0
C1073 C 0.17686 0.21982 0.41283 0.0
C1074 C 0.12415 0.08624 0.36059 0.0
C1075 C 0.13798 0.09951 0.36813 0.0
C1076 C 0.12821 0.14747 0.38821 0.0
C1077 C 0.17889 0.18247 0.40215 0.0
C1078 C 0.16548 0.16211 0.39681 0.0
C1079 C 0.12701 0.10864 0.37764 0.0
C1080 C 0.1402 0.12617 0.38472 0.0
H1081 H 0.23016 0.217 0.3985 0.0
H1082 H 0.21224 0.17816 0.39273 0.0
H1083 H 0.13098 0.18184 0.39621 0.0
H1084 H 0.06946 0.08659 0.37397 0.0
H1085 H 0.09358 0.1094 0.38713 0.0
C1086 C 0.03331 0.94913 0.65508 0.0
C1087 C 0.02172 0.93252 0.6621 0.0
C1088 C 0.05641 0.94393 0.65085 0.0
C1089 C 0.10827 0.89929 0.65167 0.0
H1090 H 0.10662 0.90839 0.6204 0.0
C1091 C 0.15602 0.83535 0.62147 0.0
C1092 C 0.16548 0.84486 0.61172 0.0
C1093 C 0.14411 0.85056 0.62887 0.0
C1094 C 0.10777 0.90617 0.62914 0.0
H1095 H 0.02587 0.89843 0.6709 0.0
H1096 H 0.0659 0.88893 0.66328 0.0
H1097 H 0.07574 0.92768 0.63163 0.0
H1098 H 0.17095 0.87794 0.60231 0.0
H1099 H 0.14994 0.90464 0.61528 0.0
H1100 H 0.13967 0.87659 0.649 0.0
C1101 C 0.05745 0.9062 0.66117 0.0
C1102 C 0.09003 0.91729 0.63562 0.0
C1103 C 0.03444 0.9116 0.66553 0.0
C1104 C 0.16369 0.87009 0.60973 0.0
C1105 C 0.15164 0.88534 0.61713 0.0
C1106 C 0.126 0.88806 0.64517 0.0
C1107 C 0.06821 0.92181 0.65341 0.0
C1108 C 0.08961 0.91344 0.64693 0.0
C1109 C 0.14132 0.87563 0.62669 0.0
C1110 C 0.12548 0.89081 0.6338 0.0
H1111 H 0.024 0.96559 0.65243 0.0
H1112 H 0.06446 0.95665 0.64512 0.0
H1113 H 0.10872 0.89627 0.66038 0.0
H1114 H 0.15722 0.81598 0.62326 0.0
H1115 H 0.13608 0.84243 0.63607 0.0
C1116 C 0.28835 0.79067 0.90327 0.0
C1117 C 0.30141 0.77534 0.91033 0.0
C1118 C 0.29894 0.81245 0.89955 0.0
C1119 C 0.36116 0.835 0.89474 0.0
H1120 H 0.32869 0.89381 0.8846 0.0
C1121 C 0.41583 0.90867 0.87315 0.0
C1122 C 0.40634 0.91642 0.86313 0.0
C1123 C 0.40115 0.89599 0.88049 0.0
C1124 C 0.33793 0.87746 0.88741 0.0
H1125 H 0.33428 0.77143 0.91996 0.0
H1126 H 0.35214 0.81002 0.91404 0.0
H1127 H 0.30579 0.86377 0.89539 0.0
H1128 H 0.37371 0.91832 0.85315 0.0
H1129 H 0.34803 0.89553 0.86596 0.0
H1130 H 0.39302 0.84815 0.88666 0.0
C1131 C 0.33428 0.80497 0.91097 0.0
C1132 C 0.32486 0.86029 0.89357 0.0
C1133 C 0.324 0.78303 0.91445 0.0
C1134 C 0.3815 0.91243 0.86082 0.0
C1135 C 0.36678 0.89955 0.86817 0.0
C1136 C 0.37414 0.8521 0.88869 0.0
C1137 C 0.32255 0.81922 0.90299 0.0
C1138 C 0.33635 0.83878 0.89726 0.0
C1139 C 0.37671 0.89057 0.87794 0.0
C1140 C 0.3627 0.87345 0.8849 0.0
H1141 H 0.27097 0.78485 0.89992 0.0
H1142 H 0.28941 0.82292 0.89339 0.0
H1143 H 0.37047 0.81834 0.89711 0.0
H1144 H 0.43482 0.91184 0.87524 0.0
H1145 H 0.40918 0.88972 0.88805 0.0
C1146 C 0.32852 0.12621 0.10997 0.0
C1147 C 0.32331 0.15052 0.11285 0.0
C1148 C 0.34127 0.111 0.11717 0.0
C1149 C 0.38721 0.11845 0.13818 0.0
H1150 H 0.38046 0.04862 0.1428 0.0
C1151 C 0.46071 0.0691 0.16188 0.0
C1152 C 0.46932 0.04739 0.1572 0.0
C1153 C 0.43811 0.07865 0.15882 0.0
C1154 C 0.3826 0.06811 0.14156 0.0
H1155 H 0.32506 0.17728 0.12584 0.0
H1156 H 0.34687 0.15073 0.13842 0.0
H1157 H 0.34879 0.07094 0.13272 0.0
H1158 H 0.46084 0.01773 0.14619 0.0
H1159 H 0.4217 0.035 0.14037 0.0
H1160 H 0.42132 0.11588 0.14637 0.0
C1161 C 0.34173 0.14355 0.13053 0.0
C1162 C 0.36446 0.08085 0.13582 0.0
C1163 C 0.32923 0.15874 0.12334 0.0
C1164 C 0.45435 0.03444 0.14996 0.0
C1165 C 0.43193 0.04435 0.14665 0.0
C1166 C 0.4053 0.10579 0.14379 0.0
C1167 C 0.34882 0.11991 0.12736 0.0
C1168 C 0.3667 0.10615 0.13405 0.0
C1169 C 0.42407 0.06714 0.15071 0.0
C1170 C 0.40337 0.08045 0.14553 0.0
H1171 H 0.32409 0.11944 0.10193 0.0
H1172 H 0.34656 0.09287 0.1145 0.0
H1173 H 0.38982 0.13781 0.1367 0.0
H1174 H 0.47197 0.07926 0.16756 0.0
H1175 H 0.43227 0.0958 0.16239 0.0
C1176 C 0.18212 0.77863 0.10159 0.0
C1177 C 0.18027 0.77271 0.09051 0.0
C1178 C 0.17806 0.80245 0.10516 0.0
C1179 C 0.17348 0.85476 0.11176 0.0
H1180 H 0.11775 0.886 0.09818 0.0
C1181 C 0.11803 0.92722 0.13504 0.0
C1182 C 0.09263 0.92375 0.13434 0.0
C1183 C 0.13372 0.9157 0.12761 0.0
C1184 C 0.13332 0.87753 0.1021 0.0
H1185 H 0.17429 0.7875 0.07438 0.0
H1186 H 0.1679 0.82951 0.08058 0.0
H1187 H 0.13722 0.85167 0.08924 0.0
H1188 H 0.06368 0.90637 0.12508 0.0
H1189 H 0.09064 0.88571 0.11259 0.0
H1190 H 0.16791 0.87889 0.12517 0.0
C1191 C 0.17182 0.81552 0.08656 0.0
C1192 C 0.14483 0.858 0.09686 0.0
C1193 C 0.17557 0.79147 0.08299 0.0
C1194 C 0.08318 0.90944 0.12585 0.0
C1195 C 0.09875 0.89776 0.11856 0.0
C1196 C 0.16158 0.87389 0.11713 0.0
C1197 C 0.17236 0.8212 0.09774 0.0
C1198 C 0.16428 0.84553 0.10189 0.0
C1199 C 0.12428 0.90031 0.11943 0.0
C1200 C 0.14055 0.88466 0.11262 0.0
H1201 H 0.18566 0.76465 0.10764 0.0
H1202 H 0.17813 0.80574 0.11384 0.0
H1203 H 0.18901 0.84625 0.11571 0.0
H1204 H 0.1258 0.93835 0.14145 0.0
H1205 H 0.15325 0.9184 0.12845 0.0
C1206 C 0.46438 0.94126 0.34721 0.0
C1207 C 0.47142 0.93519 0.33656 0.0
C1208 C 0.44095 0.93592 0.35095 0.0
C1209 C 0.39003 0.92484 0.35817 0.0
H1210 H 0.36894 0.86089 0.34846 0.0
C1211 C 0.32597 0.86533 0.38464 0.0
C1212 C 0.33276 0.84059 0.38517 0.0
C1213 C 0.33604 0.88065 0.37666 0.0
C1214 C 0.37462 0.87873 0.35133 0.0
H1215 H 0.45854 0.92107 0.32112 0.0
H1216 H 0.41711 0.91263 0.32752 0.0
H1217 H 0.39948 0.88275 0.33812 0.0
H1218 H 0.35528 0.81243 0.3778 0.0
H1219 H 0.37353 0.83896 0.36439 0.0
H1220 H 0.3671 0.91952 0.37203 0.0
C1221 C 0.43007 0.92064 0.33314 0.0
C1222 C 0.39189 0.8916 0.34524 0.0
C1223 C 0.45378 0.92563 0.32943 0.0
C1224 C 0.34952 0.83139 0.37756 0.0
C1225 C 0.35979 0.84664 0.36974 0.0
C1226 C 0.37324 0.91165 0.36443 0.0
C1227 C 0.42366 0.92472 0.3441 0.0
C1228 C 0.40082 0.91429 0.34888 0.0
C1229 C 0.35331 0.87152 0.36917 0.0
C1230 C 0.36631 0.88787 0.36137 0.0
H1231 H 0.4774 0.94879 0.35294 0.0
H1232 H 0.43714 0.93912 0.35947 0.0
H1233 H 0.39567 0.94269 0.36103 0.0
H1234 H 0.31291 0.87283 0.39037 0.0
H1235 H 0.33042 0.89963 0.37642 0.0
C1236 C 0.38316 0.08452 0.64044 0.0
C1237 C 0.40765 0.08016 0.63757 0.0
C1238 C 0.36764 0.09714 0.63333 0.0
C1239 C 0.37261 0.14315 0.61197 0.0
H1240 H 0.30327 0.13198 0.60757 0.0
C1241 C 0.31927 0.21145 0.58709 0.0
C1242 C 0.29764 0.21982 0.59193 0.0
C1243 C 0.32975 0.18946 0.59042 0.0
C1244 C 0.32261 0.13532 0.60874 0.0
H1245 H 0.43462 0.08386 0.62473 0.0
H1246 H 0.40757 0.10548 0.61233 0.0
H1247 H 0.32746 0.10238 0.61803 0.0
H1248 H 0.26895 0.21137 0.60345 0.0
H1249 H 0.28779 0.17324 0.60967 0.0
H1250 H 0.36799 0.17636 0.6032 0.0
C1251 C 0.40046 0.09973 0.62014 0.0
C1252 C 0.33642 0.1184 0.61472 0.0
C1253 C 0.41594 0.08732 0.62725 0.0
C1254 C 0.28556 0.20504 0.59955 0.0
C1255 C 0.29638 0.18322 0.60309 0.0
C1256 C 0.3589 0.15999 0.60608 0.0
C1257 C 0.37639 0.10548 0.62323 0.0
C1258 C 0.36157 0.12225 0.61642 0.0
C1259 C 0.31922 0.17584 0.59892 0.0
C1260 C 0.33371 0.15641 0.60441 0.0
H1261 H 0.37629 0.0791 0.64835 0.0
H1262 H 0.34922 0.10143 0.63596 0.0
H1263 H 0.39179 0.14701 0.61336 0.0
H1264 H 0.32878 0.22259 0.58115 0.0
H1265 H 0.34695 0.18393 0.58679 0.0
C1266 C 0.16336 0.13041 0.88838 0.0
C1267 C 0.16706 0.15533 0.88612 0.0
C1268 C 0.15019 0.11575 0.88111 0.0
C1269 C 0.10167 0.12312 0.8611 0.0
H1270 H 0.11354 0.05498 0.85408 0.0
C1271 C 0.03187 0.07277 0.83579 0.0
C1272 C 0.02457 0.05001 0.83989 0.0
C1273 C 0.05382 0.08324 0.83914 0.0
C1274 C 0.10999 0.07399 0.85599 0.0
H1275 H 0.16163 0.18402 0.87418 0.0
H1276 H 0.13902 0.15848 0.8615 0.0
H1277 H 0.14391 0.07793 0.86463 0.0
H1278 H 0.03487 0.01946 0.8501 0.0
H1279 H 0.07295 0.03821 0.85639 0.0
H1280 H 0.06754 0.11932 0.853 0.0
C1281 C 0.14574 0.15035 0.86896 0.0
C1282 C 0.12735 0.08709 0.86202 0.0
C1283 C 0.15871 0.16496 0.87622 0.0
C1284 C 0.04034 0.03699 0.84678 0.0
C1285 C 0.06213 0.04774 0.85036 0.0
C1286 C 0.08438 0.1101 0.85517 0.0
C1287 C 0.14064 0.12581 0.87148 0.0
C1288 C 0.12328 0.11179 0.86464 0.0
C1289 C 0.06851 0.0715 0.84695 0.0
C1290 C 0.08822 0.08536 0.85254 0.0
H1291 H 0.16968 0.12251 0.89595 0.0
H1292 H 0.14643 0.09692 0.88329 0.0
H1293 H 0.09767 0.14194 0.86322 0.0
H1294 H 0.01998 0.08301 0.8304 0.0
H1295 H 0.05856 0.1012 0.83609 0.0
C1296 C 0.82436 0.79235 0.58037 0.0
C1297 C 0.81596 0.77543 0.58811 0.0
C1298 C 0.82947 0.8165 0.58341 0.0
C1299 C 0.82535 0.85988 0.60711 0.0
H1300 H 0.88801 0.88206 0.59623 0.0
C1301 C 0.91681 0.90657 0.62501 0.0
C1302 C 0.90658 0.9231 0.63245 0.0
C1303 C 0.90225 0.89533 0.61719 0.0
C1304 C 0.8705 0.87613 0.5994 0.0
H1305 H 0.80509 0.77091 0.60498 0.0
H1306 H 0.81482 0.81213 0.61033 0.0
H1307 H 0.86717 0.84881 0.58711 0.0
H1308 H 0.87345 0.94212 0.63714 0.0
H1309 H 0.84798 0.92312 0.62317 0.0
H1310 H 0.82993 0.88532 0.62008 0.0
C1311 C 0.81693 0.80733 0.60184 0.0
C1312 C 0.85826 0.85727 0.59402 0.0
C1313 C 0.81158 0.78342 0.59879 0.0
C1314 C 0.88171 0.92918 0.63157 0.0
C1315 C 0.86714 0.91822 0.62359 0.0
C1316 C 0.83787 0.87831 0.61264 0.0
C1317 C 0.82652 0.82408 0.59428 0.0
C1318 C 0.83613 0.84803 0.59815 0.0
C1319 C 0.8771 0.90065 0.61646 0.0
C1320 C 0.86122 0.88578 0.60917 0.0
H1321 H 0.82765 0.78679 0.57204 0.0
H1322 H 0.83641 0.82899 0.57731 0.0
H1323 H 0.80789 0.85387 0.6103 0.0
H1324 H 0.93593 0.90145 0.62552 0.0
H1325 H 0.91062 0.88154 0.61208 0.0
C1326 C 0.97178 0.04737 0.34319 0.0
C1327 C 0.9817 0.06363 0.33553 0.0
C1328 C 0.94891 0.05193 0.34782 0.0
C1329 C 0.89476 0.09388 0.34702 0.0
H1330 H 0.89915 0.08775 0.37839 0.0
C1331 C 0.84669 0.15841 0.37689 0.0
C1332 C 0.83769 0.14916 0.38676 0.0
C1333 C 0.85893 0.14315 0.3696 0.0
C1334 C 0.89729 0.08912 0.36964 0.0
H1335 H 0.97483 0.09637 0.32609 0.0
H1336 H 0.93528 0.10482 0.33438 0.0
H1337 H 0.93011 0.06891 0.36703 0.0
H1338 H 0.83355 0.1165 0.39659 0.0
H1339 H 0.85532 0.08976 0.38386 0.0
H1340 H 0.86259 0.11543 0.3498 0.0
C1341 C 0.94481 0.08826 0.3367 0.0
C1342 C 0.91506 0.07825 0.36308 0.0
C1343 C 0.96755 0.08348 0.33195 0.0
C1344 C 0.84041 0.12414 0.38906 0.0
C1345 C 0.85287 0.10887 0.38179 0.0
C1346 C 0.87705 0.10492 0.35361 0.0
C1347 C 0.93569 0.07309 0.34502 0.0
C1348 C 0.91443 0.08106 0.35171 0.0
C1349 C 0.86258 0.11833 0.37206 0.0
C1350 C 0.87856 0.10323 0.365 0.0
H1351 H 0.98221 0.03173 0.346 0.0
H1352 H 0.94216 0.0395 0.35399 0.0
H1353 H 0.89347 0.09604 0.33829 0.0
H1354 H 0.84475 0.1776 0.37486 0.0
H1355 H 0.86647 0.15107 0.36226 0.0
C1356 C 0.61705 0.07392 0.13614 0.0
C1357 C 0.59188 0.07898 0.13582 0.0
C1358 C 0.63285 0.08437 0.12845 0.0
C1359 C 0.63242 0.12064 0.10244 0.0
H1360 H 0.69268 0.14747 0.11385 0.0
C1361 C 0.68992 0.21406 0.09825 0.0
C1362 C 0.68592 0.21925 0.08721 0.0
C1363 C 0.6849 0.19095 0.10245 0.0
C1364 C 0.67586 0.1402 0.11051 0.0
H1365 H 0.56345 0.09863 0.12715 0.0
H1366 H 0.59068 0.11747 0.11419 0.0
H1367 H 0.66982 0.11815 0.1246 0.0
H1368 H 0.6756 0.20356 0.07169 0.0
H1369 H 0.66772 0.16272 0.07893 0.0
H1370 H 0.63697 0.14452 0.08891 0.0
C1371 C 0.59844 0.10485 0.12004 0.0
C1372 C 0.66291 0.12298 0.11663 0.0
C1373 C 0.58275 0.09423 0.12759 0.0
C1374 C 0.67856 0.20022 0.08027 0.0
C1375 C 0.67389 0.17684 0.08446 0.0
C1376 C 0.64502 0.1383 0.09646 0.0
C1377 C 0.62375 0.10026 0.12037 0.0
C1378 C 0.64036 0.1139 0.11291 0.0
C1379 C 0.6761 0.17215 0.09569 0.0
C1380 C 0.66629 0.14924 0.10066 0.0
H1381 H 0.62455 0.06207 0.14237 0.0
H1382 H 0.65218 0.0802 0.12891 0.0
H1383 H 0.61561 0.11334 0.0991 0.0
H1384 H 0.69561 0.22825 0.10385 0.0
H1385 H 0.6865 0.18846 0.11115 0.0
C1386 C 0.67705 0.86542 0.88438 0.0
C1387 C 0.67169 0.8403 0.88428 0.0
C1388 C 0.66615 0.88114 0.87679 0.0
C1389 C 0.62748 0.88047 0.85149 0.0
H1390 H 0.60209 0.94111 0.86319 0.0
C1391 C 0.53367 0.93773 0.84935 0.0
C1392 C 0.52714 0.93352 0.83846 0.0
C1393 C 0.55729 0.93285 0.85297 0.0
C1394 C 0.60895 0.92419 0.85978 0.0
H1395 H 0.65102 0.81188 0.87611 0.0
H1396 H 0.63137 0.839 0.86334 0.0
H1397 H 0.63247 0.91837 0.87339 0.0
H1398 H 0.54088 0.92292 0.82262 0.0
H1399 H 0.5826 0.91526 0.82885 0.0
H1400 H 0.60213 0.88478 0.83849 0.0
C1401 C 0.64457 0.84676 0.86892 0.0
C1402 C 0.62678 0.9113 0.86557 0.0
C1403 C 0.65566 0.83114 0.87637 0.0
C1404 C 0.54528 0.92602 0.83109 0.0
C1405 C 0.56917 0.92151 0.8347 0.0
C1406 C 0.60922 0.89299 0.84585 0.0
C1407 C 0.64948 0.87202 0.86904 0.0
C1408 C 0.63532 0.8886 0.86177 0.0
C1409 C 0.57525 0.92399 0.84578 0.0
C1410 C 0.59878 0.91437 0.85021 0.0
H1411 H 0.68953 0.87292 0.89035 0.0
H1412 H 0.67057 0.90043 0.87707 0.0
H1413 H 0.63435 0.86354 0.84808 0.0
H1414 H 0.52019 0.94353 0.85527 0.0
H1415 H 0.56086 0.93464 0.86159 0.0
C1416 C 0.8763 0.08011 0.85909 0.0
C1417 C 0.90069 0.07504 0.86189 0.0
C1418 C 0.86109 0.09256 0.8664 0.0
C1419 C 0.86843 0.13811 0.88758 0.0
H1420 H 0.79849 0.13136 0.89184 0.0
C1421 C 0.81827 0.2124 0.91043 0.0
C1422 C 0.79679 0.22082 0.90548 0.0
C1423 C 0.82789 0.18962 0.90767 0.0
C1424 C 0.81801 0.13349 0.89071 0.0
H1425 H 0.9276 0.07669 0.87482 0.0
H1426 H 0.90104 0.098 0.88757 0.0
H1427 H 0.82107 0.09966 0.88191 0.0
H1428 H 0.76756 0.21183 0.89433 0.0
H1429 H 0.785 0.17242 0.88902 0.0
H1430 H 0.86563 0.17228 0.89571 0.0
C1431 C 0.8938 0.09298 0.87968 0.0
C1432 C 0.83091 0.11533 0.88505 0.0
C1433 C 0.909 0.08077 0.87238 0.0
C1434 C 0.78411 0.20551 0.89829 0.0
C1435 C 0.7941 0.18292 0.89528 0.0
C1436 C 0.85562 0.15623 0.89311 0.0
C1437 C 0.87006 0.09994 0.8766 0.0
C1438 C 0.85624 0.11761 0.88337 0.0
C1439 C 0.8167 0.17522 0.8996 0.0
C1440 C 0.83022 0.15433 0.89468 0.0
H1441 H 0.86945 0.07581 0.85106 0.0
H1442 H 0.8429 0.09778 0.86379 0.0
H1443 H 0.88782 0.14075 0.88618 0.0
H1444 H 0.82819 0.22391 0.91609 0.0
H1445 H 0.84488 0.18394 0.91143 0.0
C1446 C 0.67809 0.12916 0.61187 0.0
C1447 C 0.67293 0.15432 0.61226 0.0
C1448 C 0.66781 0.11326 0.61957 0.0
C1449 C 0.63159 0.11328 0.64558 0.0
H1450 H 0.60357 0.05405 0.63367 0.0
C1451 C 0.53648 0.05851 0.64875 0.0
C1452 C 0.53103 0.06225 0.65979 0.0
C1453 C 0.55989 0.06297 0.64476 0.0
C1454 C 0.61118 0.07057 0.63715 0.0
H1455 H 0.65343 0.18262 0.6211 0.0
H1456 H 0.63494 0.15522 0.63406 0.0
H1457 H 0.63366 0.07654 0.62319 0.0
H1458 H 0.54641 0.07156 0.67549 0.0
H1459 H 0.58774 0.07846 0.6686 0.0
H1460 H 0.60728 0.10891 0.65897 0.0
C1461 C 0.64746 0.14755 0.62815 0.0
C1462 C 0.62884 0.0833 0.63119 0.0
C1463 C 0.65788 0.16334 0.62059 0.0
C1464 C 0.54999 0.06885 0.66691 0.0
C1465 C 0.57365 0.07293 0.66293 0.0
C1466 C 0.6135 0.10093 0.6514 0.0
C1467 C 0.65204 0.12224 0.62771 0.0
C1468 C 0.6383 0.10554 0.63508 0.0
C1469 C 0.5787 0.07091 0.65172 0.0
C1470 C 0.6021 0.08011 0.647 0.0
H1471 H 0.68981 0.12176 0.60558 0.0
H1472 H 0.67195 0.09393 0.61903 0.0
H1473 H 0.63918 0.12983 0.64904 0.0
H1474 H 0.52233 0.05342 0.64302 0.0
H1475 H 0.56267 0.06159 0.63607 0.0
C1476 C 0.69013 0.78029 0.40139 0.0
C1477 C 0.684 0.77311 0.41202 0.0
C1478 C 0.6835 0.80327 0.3975 0.0
C1479 C 0.67092 0.85395 0.39035 0.0
H1480 H 0.60504 0.8719 0.39874 0.0
C1481 C 0.61364 0.92007 0.36404 0.0
C1482 C 0.58901 0.91346 0.36275 0.0
C1483 C 0.62798 0.90888 0.37205 0.0
C1484 C 0.62341 0.86708 0.39624 0.0
H1485 H 0.66807 0.7853 0.42723 0.0
H1486 H 0.65719 0.82595 0.42054 0.0
H1487 H 0.62687 0.84142 0.4092 0.0
H1488 H 0.56 0.89007 0.36874 0.0
H1489 H 0.58502 0.86973 0.38223 0.0
H1490 H 0.6665 0.87777 0.37675 0.0
C1491 C 0.66641 0.81343 0.41509 0.0
C1492 C 0.6362 0.84987 0.4024 0.0
C1493 C 0.67279 0.79019 0.41895 0.0
C1494 C 0.57891 0.89566 0.36961 0.0
C1495 C 0.59327 0.88418 0.37746 0.0
C1496 C 0.6579 0.87073 0.38403 0.0
C1497 C 0.67085 0.81992 0.40417 0.0
C1498 C 0.65974 0.84224 0.39925 0.0
C1499 C 0.61804 0.89056 0.3788 0.0
C1500 C 0.63356 0.87669 0.38663 0.0
H1501 H 0.69885 0.76768 0.39581 0.0
H1502 H 0.68698 0.80721 0.38902 0.0
H1503 H 0.68933 0.84918 0.38788 0.0
H1504 H 0.62177 0.93397 0.3589 0.0
H1505 H 0.64685 0.91453 0.37292 0.0
C1506 C 0.96278 0.93008 0.16129 0.0
C1507 C 0.97053 0.95232 0.15681 0.0
C1508 C 0.94052 0.91988 0.15817 0.0
C1509 C 0.88451 0.92915 0.14114 0.0
H1510 H 0.89505 0.86032 0.13513 0.0
C1511 C 0.83165 0.8715 0.10902 0.0
C1512 C 0.82736 0.84684 0.11158 0.0
C1513 C 0.84445 0.8865 0.11629 0.0
C1514 C 0.89153 0.8794 0.13692 0.0
H1515 H 0.96076 0.98228 0.14616 0.0
H1516 H 0.9222 0.96393 0.14026 0.0
H1517 H 0.92556 0.88291 0.14512 0.0
H1518 H 0.83108 0.81904 0.12407 0.0
H1519 H 0.85302 0.84517 0.13674 0.0
H1520 H 0.85075 0.92545 0.13234 0.0
C1521 C 0.93287 0.95463 0.14642 0.0
C1522 C 0.90904 0.89242 0.14271 0.0
C1523 C 0.95495 0.96515 0.14977 0.0
C1524 C 0.83452 0.83788 0.12179 0.0
C1525 C 0.84709 0.85283 0.12905 0.0
C1526 C 0.86694 0.91605 0.13522 0.0
C1527 C 0.92597 0.93132 0.15022 0.0
C1528 C 0.90588 0.91748 0.14487 0.0
C1529 C 0.853 0.87701 0.12622 0.0
C1530 C 0.87039 0.89105 0.13303 0.0
H1531 H 0.9745 0.92001 0.16681 0.0
H1532 H 0.9354 0.9023 0.16154 0.0
H1533 H 0.88146 0.94841 0.1427 0.0
H1534 H 0.82623 0.87887 0.10121 0.0
H1535 H 0.84884 0.90504 0.11388 0.0
C1536 C 0.7173 0.70316 0.89705 0.0
C1537 C 0.70529 0.718 0.90467 0.0
C1538 C 0.7069 0.68089 0.89385 0.0
C1539 C 0.64505 0.65491 0.89219 0.0
H1540 H 0.67814 0.59839 0.88006 0.0
C1541 C 0.58933 0.57991 0.87239 0.0
C1542 C 0.59653 0.57395 0.86176 0.0
C1543 C 0.60526 0.59223 0.87932 0.0
C1544 C 0.66872 0.61407 0.88345 0.0
H1545 H 0.67471 0.72049 0.91579 0.0
H1546 H 0.65736 0.68106 0.91077 0.0
H1547 H 0.7018 0.62951 0.88984 0.0
H1548 H 0.62659 0.57452 0.85027 0.0
H1549 H 0.65446 0.59668 0.86236 0.0
H1550 H 0.61217 0.64 0.88569 0.0
C1551 C 0.67411 0.6869 0.90684 0.0
C1552 C 0.68223 0.63188 0.88903 0.0
C1553 C 0.68413 0.70935 0.90981 0.0
C1554 C 0.62058 0.579 0.85843 0.0
C1555 C 0.63655 0.59156 0.86536 0.0
C1556 C 0.63164 0.63714 0.88673 0.0
C1557 C 0.68457 0.67305 0.89839 0.0
C1558 C 0.67053 0.65265 0.89338 0.0
C1559 C 0.62867 0.59909 0.87573 0.0
C1560 C 0.64328 0.61663 0.88222 0.0
H1561 H 0.73357 0.70965 0.89293 0.0
H1562 H 0.71544 0.67079 0.8873 0.0
H1563 H 0.63541 0.67095 0.89509 0.0
H1564 H 0.57101 0.57586 0.87524 0.0
H1565 H 0.59887 0.59734 0.88734 0.0
C1566 C 0.65962 0.36592 0.10682 0.0
C1567 C 0.66368 0.34123 0.10943 0.0
C1568 C 0.64656 0.38104 0.11395 0.0
C1569 C 0.59939 0.37536 0.13484 0.0
H1570 H 0.61188 0.44404 0.14045 0.0
C1571 C 0.53234 0.42806 0.16075 0.0
C1572 C 0.52431 0.45025 0.15628 0.0
C1573 C 0.55397 0.41733 0.15714 0.0
C1574 C 0.60817 0.42488 0.13894 0.0
H1575 H 0.65875 0.3134 0.12181 0.0
H1576 H 0.63634 0.33972 0.13425 0.0
H1577 H 0.64124 0.42012 0.12974 0.0
H1578 H 0.53322 0.47963 0.14517 0.0
H1579 H 0.57077 0.46044 0.1385 0.0
H1580 H 0.56611 0.37995 0.14358 0.0
C1581 C 0.64271 0.34733 0.12662 0.0
C1582 C 0.62494 0.41123 0.13281 0.0
C1583 C 0.65558 0.33226 0.1195 0.0
C1584 C 0.53921 0.46256 0.14878 0.0
C1585 C 0.5607 0.45155 0.14497 0.0
C1586 C 0.5827 0.38892 0.14089 0.0
C1587 C 0.63744 0.37167 0.1238 0.0
C1588 C 0.62064 0.38632 0.13068 0.0
C1589 C 0.56766 0.42824 0.14875 0.0
C1590 C 0.58679 0.41386 0.14301 0.0
H1591 H 0.66576 0.37333 0.09912 0.0
H1592 H 0.64266 0.39969 0.11153 0.0
H1593 H 0.5952 0.35638 0.13312 0.0
H1594 H 0.52118 0.41837 0.16663 0.0
H1595 H 0.55921 0.39974 0.16046 0.0
C1596 C 0.81034 0.27755 0.40051 0.0
C1597 C 0.81558 0.2705 0.41124 0.0
C1598 C 0.81506 0.30127 0.39699 0.0
C1599 C 0.8236 0.35314 0.39049 0.0
H1600 H 0.88657 0.37612 0.40062 0.0
C1601 C 0.88049 0.42054 0.36479 0.0
C1602 C 0.90539 0.41447 0.36408 0.0
C1603 C 0.86569 0.40976 0.37276 0.0
C1604 C 0.86897 0.36994 0.39766 0.0
H1605 H 0.82782 0.28348 0.42698 0.0
H1606 H 0.8354 0.32535 0.42091 0.0
H1607 H 0.86569 0.34418 0.41057 0.0
H1608 H 0.93445 0.39271 0.37118 0.0
H1609 H 0.90879 0.37322 0.38461 0.0
H1610 H 0.82818 0.37704 0.37692 0.0
C1611 C 0.82835 0.31224 0.41511 0.0
C1612 C 0.8567 0.35185 0.40351 0.0
C1613 C 0.82388 0.28827 0.41862 0.0
C1614 C 0.91533 0.39786 0.37156 0.0
C1615 C 0.90058 0.38688 0.37938 0.0
C1616 C 0.83617 0.37081 0.38448 0.0
C1617 C 0.82486 0.31879 0.40414 0.0
C1618 C 0.83444 0.34228 0.39969 0.0
C1619 C 0.8755 0.39249 0.38007 0.0
C1620 C 0.85962 0.37848 0.38769 0.0
H1621 H 0.80378 0.26441 0.3946 0.0
H1622 H 0.81244 0.30526 0.38845 0.0
H1623 H 0.80605 0.34689 0.38751 0.0
H1624 H 0.87243 0.43351 0.35917 0.0
H1625 H 0.84654 0.41476 0.37311 0.0
C1626 C 0.83515 0.66112 0.62335 0.0
C1627 C 0.82578 0.6528 0.61339 0.0
C1628 C 0.84678 0.64496 0.63044 0.0
C1629 C 0.88375 0.5903 0.62913 0.0
H1630 H 0.88357 0.59628 0.66056 0.0
C1631 C 0.96217 0.5495 0.65345 0.0
C1632 C 0.97272 0.56599 0.66084 0.0
C1633 C 0.93861 0.55352 0.64947 0.0
C1634 C 0.88381 0.59433 0.6518 0.0
H1635 H 0.81996 0.62085 0.60328 0.0
H1636 H 0.84061 0.59253 0.61567 0.0
H1637 H 0.85136 0.61595 0.6499 0.0
H1638 H 0.96639 0.59856 0.67047 0.0
H1639 H 0.92564 0.60611 0.66327 0.0
H1640 H 0.9169 0.57016 0.63085 0.0
C1641 C 0.83897 0.61159 0.61796 0.0
C1642 C 0.86533 0.60552 0.64571 0.0
C1643 C 0.82715 0.62777 0.61089 0.0
C1644 C 0.95866 0.58553 0.6648 0.0
C1645 C 0.93521 0.58977 0.66069 0.0
C1646 C 0.90227 0.57927 0.6352 0.0
C1647 C 0.84941 0.62016 0.62769 0.0
C1648 C 0.86563 0.60431 0.63429 0.0
C1649 C 0.9253 0.57434 0.65265 0.0
C1650 C 0.90302 0.58187 0.64658 0.0
H1651 H 0.83422 0.68029 0.62554 0.0
H1652 H 0.85489 0.6522 0.63781 0.0
H1653 H 0.88467 0.58927 0.62035 0.0
H1654 H 0.97249 0.53403 0.65041 0.0
H1655 H 0.93129 0.54093 0.6435 0.0
C1656 C 0.67818 0.28482 0.58656 0.0
C1657 C 0.70063 0.27723 0.5909 0.0
C1658 C 0.66759 0.30671 0.58995 0.0
C1659 C 0.67593 0.36224 0.60728 0.0
H1660 H 0.60761 0.34981 0.6137 0.0
C1661 C 0.61734 0.41521 0.63914 0.0
C1662 C 0.59261 0.41899 0.63653 0.0
C1663 C 0.63253 0.40207 0.63206 0.0
C1664 C 0.62654 0.35383 0.61181 0.0
H1665 H 0.73058 0.28704 0.60153 0.0
H1666 H 0.7116 0.325 0.60786 0.0
H1667 H 0.6308 0.31992 0.60356 0.0
H1668 H 0.56484 0.41376 0.62415 0.0
H1669 H 0.59128 0.39124 0.61181 0.0
H1670 H 0.67149 0.39595 0.61605 0.0
C1671 C 0.7024 0.31444 0.60164 0.0
C1672 C 0.63989 0.33669 0.60593 0.0
C1673 C 0.71329 0.29271 0.59804 0.0
C1674 C 0.58372 0.41077 0.62647 0.0
C1675 C 0.59885 0.39785 0.6194 0.0
C1676 C 0.6625 0.37946 0.61325 0.0
C1677 C 0.67889 0.32105 0.598 0.0
C1678 C 0.66475 0.3406 0.60358 0.0
C1679 C 0.62317 0.39265 0.62227 0.0
C1680 C 0.63765 0.37536 0.61558 0.0
H1681 H 0.66823 0.27319 0.58096 0.0
H1682 H 0.64983 0.31165 0.58672 0.0
H1683 H 0.69504 0.36581 0.60559 0.0
H1684 H 0.62466 0.42145 0.64684 0.0
H1685 H 0.65117 0.39824 0.6345 0.0
C1686 C 0.96822 0.43899 0.84859 0.0
C1687 C 0.9742 0.43504 0.83762 0.0
C1688 C 0.94472 0.43426 0.85241 0.0
C1689 C 0.89319 0.42619 0.85963 0.0
H1690 H 0.86597 0.36666 0.84765 0.0
C1691 C 0.82438 0.36832 0.88425 0.0
C1692 C 0.82918 0.34309 0.88396 0.0
C1693 C 0.8354 0.38402 0.87667 0.0
C1694 C 0.87335 0.38327 0.85114 0.0
H1695 H 0.95966 0.42505 0.82185 0.0
H1696 H 0.91814 0.41773 0.82842 0.0
H1697 H 0.8984 0.38743 0.83801 0.0
H1698 H 0.84888 0.31445 0.87544 0.0
H1699 H 0.86869 0.34149 0.86271 0.0
H1700 H 0.86993 0.42047 0.87334 0.0
C1701 C 0.9319 0.42361 0.83418 0.0
C1702 C 0.89175 0.39554 0.84547 0.0
C1703 C 0.95567 0.42794 0.83038 0.0
C1704 C 0.84468 0.3338 0.87585 0.0
C1705 C 0.85587 0.34939 0.86843 0.0
C1706 C 0.87523 0.41355 0.86544 0.0
C1707 C 0.92633 0.42585 0.84534 0.0
C1708 C 0.90282 0.41651 0.84991 0.0
C1709 C 0.85161 0.37476 0.86876 0.0
C1710 C 0.86599 0.39123 0.86152 0.0
H1711 H 0.98205 0.44444 0.85441 0.0
H1712 H 0.94155 0.43582 0.86107 0.0
H1713 H 0.90053 0.44283 0.86311 0.0
H1714 H 0.81233 0.37593 0.89037 0.0
H1715 H 0.83146 0.4034 0.87712 0.0
C1716 C 0.81637 0.71584 0.08651 0.0
C1717 C 0.79451 0.72439 0.09108 0.0
C1718 C 0.82632 0.69361 0.08985 0.0
C1719 C 0.81668 0.63892 0.10771 0.0
H1720 H 0.88612 0.64782 0.11274 0.0
C1721 C 0.87476 0.5864 0.1398 0.0
C1722 C 0.89917 0.58125 0.13704 0.0
C1723 C 0.85971 0.59914 0.13253 0.0
C1724 C 0.86684 0.64475 0.11123 0.0
H1725 H 0.76496 0.71602 0.10218 0.0
H1726 H 0.78285 0.67753 0.10846 0.0
H1727 H 0.86371 0.67838 0.10266 0.0
H1728 H 0.92634 0.58341 0.12422 0.0
H1729 H 0.90011 0.60529 0.11155 0.0
H1730 H 0.82003 0.6056 0.11687 0.0
C1731 C 0.79205 0.68755 0.10206 0.0
C1732 C 0.85393 0.66229 0.10538 0.0
C1733 C 0.78178 0.7096 0.09849 0.0
C1734 C 0.90773 0.58749 0.12664 0.0
C1735 C 0.89271 0.60005 0.11938 0.0
C1736 C 0.82968 0.62134 0.11367 0.0
C1737 C 0.81501 0.67987 0.09813 0.0
C1738 C 0.82866 0.65974 0.10357 0.0
C1739 C 0.86886 0.60682 0.12239 0.0
C1740 C 0.85489 0.62419 0.11552 0.0
H1741 H 0.82638 0.72693 0.08071 0.0
H1742 H 0.84361 0.68788 0.08638 0.0
H1743 H 0.79726 0.63631 0.10642 0.0
H1744 H 0.86769 0.58171 0.14776 0.0
H1745 H 0.84143 0.6042 0.13508 0.0
C1746 C 0.66783 0.62771 0.3895 0.0
C1747 C 0.67174 0.65254 0.38711 0.0
C1748 C 0.65467 0.61294 0.38228 0.0
C1749 C 0.6062 0.62041 0.36231 0.0
H1750 H 0.61677 0.55183 0.35576 0.0
C1751 C 0.53467 0.57008 0.33792 0.0
C1752 C 0.52734 0.54749 0.34219 0.0
C1753 C 0.55684 0.58043 0.34105 0.0
C1754 C 0.61357 0.57096 0.35754 0.0
H1755 H 0.66687 0.68087 0.37495 0.0
H1756 H 0.64429 0.65512 0.36235 0.0
H1757 H 0.64778 0.57466 0.36599 0.0
H1758 H 0.53775 0.51712 0.35248 0.0
H1759 H 0.5762 0.5357 0.35841 0.0
H1760 H 0.57177 0.61687 0.35445 0.0
C1761 C 0.65082 0.64717 0.36988 0.0
C1762 C 0.63131 0.584 0.36338 0.0
C1763 C 0.66378 0.6619 0.37709 0.0
C1764 C 0.54323 0.53452 0.34904 0.0
C1765 C 0.56524 0.54518 0.35241 0.0
C1766 C 0.58853 0.60745 0.35659 0.0
C1767 C 0.64536 0.6228 0.37256 0.0
C1768 C 0.62771 0.60886 0.36584 0.0
C1769 C 0.57174 0.56877 0.34881 0.0
C1770 C 0.59187 0.58255 0.35414 0.0
H1771 H 0.67386 0.62002 0.39716 0.0
H1772 H 0.65064 0.59424 0.38457 0.0
H1773 H 0.60257 0.63937 0.36432 0.0
H1774 H 0.52271 0.58027 0.33254 0.0
H1775 H 0.56165 0.59825 0.33785 0.0
C1776 C 0.37732 0.41401 0.13893 0.0
C1777 C 0.40204 0.41819 0.13644 0.0
C1778 C 0.36243 0.40117 0.13163 0.0
C1779 C 0.36991 0.35373 0.11123 0.0
H1780 H 0.30117 0.36391 0.10493 0.0
C1781 C 0.32001 0.28226 0.08671 0.0
C1782 C 0.29755 0.27467 0.09102 0.0
C1783 C 0.33015 0.30453 0.08984 0.0
C1784 C 0.32035 0.36083 0.10664 0.0
H1785 H 0.43005 0.41429 0.12406 0.0
H1786 H 0.40411 0.39228 0.11135 0.0
H1787 H 0.32384 0.39474 0.11534 0.0
H1788 H 0.26718 0.28467 0.10138 0.0
H1789 H 0.28541 0.32325 0.10735 0.0
H1790 H 0.3666 0.31956 0.10314 0.0
C1791 C 0.39632 0.39832 0.11899 0.0
C1792 C 0.33329 0.37847 0.11258 0.0
C1793 C 0.41117 0.41092 0.12628 0.0
C1794 C 0.28449 0.29037 0.09791 0.0
C1795 C 0.29494 0.31246 0.1013 0.0
C1796 C 0.35706 0.33615 0.10541 0.0
C1797 C 0.37209 0.39249 0.12175 0.0
C1798 C 0.3582 0.37499 0.11495 0.0
C1799 C 0.31842 0.31923 0.09766 0.0
C1800 C 0.33209 0.33936 0.10306 0.0
H1801 H 0.36983 0.41954 0.1467 0.0
H1802 H 0.34383 0.39685 0.13398 0.0
H1803 H 0.38893 0.3502 0.11316 0.0
H1804 H 0.33026 0.27042 0.08129 0.0
H1805 H 0.34787 0.30955 0.0866 0.0
C1806 C 0.45575 0.53362 0.85 0.0
C1807 C 0.47051 0.54666 0.8427 0.0
C1808 C 0.43374 0.54377 0.8537 0.0
C1809 C 0.40804 0.60551 0.85734 0.0
H1810 H 0.35166 0.57086 0.8687 0.0
C1811 C 0.3326 0.65855 0.8782 0.0
C1812 C 0.32728 0.65059 0.88879 0.0
C1813 C 0.34485 0.64326 0.87096 0.0
C1814 C 0.3673 0.5807 0.86553 0.0
H1815 H 0.47317 0.57903 0.83265 0.0
H1816 H 0.43412 0.59603 0.83848 0.0
H1817 H 0.38269 0.54853 0.85823 0.0
H1818 H 0.32879 0.61979 0.89987 0.0
H1819 H 0.35074 0.593 0.88719 0.0
H1820 H 0.39305 0.63748 0.86469 0.0
C1821 C 0.43985 0.5786 0.84181 0.0
C1822 C 0.38508 0.56796 0.85956 0.0
C1823 C 0.46207 0.5688 0.83837 0.0
C1824 C 0.33278 0.62639 0.89175 0.0
C1825 C 0.34522 0.61104 0.88449 0.0
C1826 C 0.39027 0.61816 0.86316 0.0
C1827 C 0.42606 0.5669 0.84997 0.0
C1828 C 0.40578 0.58023 0.85547 0.0
C1829 C 0.3522 0.61974 0.87418 0.0
C1830 C 0.36981 0.60594 0.86738 0.0
H1831 H 0.46212 0.51656 0.85349 0.0
H1832 H 0.42371 0.53426 0.86 0.0
H1833 H 0.42403 0.61552 0.85468 0.0
H1834 H 0.3282 0.67699 0.87563 0.0
H1835 H 0.34959 0.65026 0.86299 0.0
C1836 C 0.17505 0.70609 0.57948 0.0
C1837 C 0.18326 0.72393 0.58684 0.0
C1838 C 0.17016 0.68225 0.58305 0.0
C1839 C 0.17359 0.64181 0.60788 0.0
H1840 H 0.11174 0.61782 0.5969 0.0
C1841 C 0.08138 0.59506 0.62553 0.0
C1842 C 0.09127 0.57917 0.63332 0.0
C1843 C 0.09639 0.60623 0.61784 0.0
C1844 C 0.12899 0.6243 0.60012 0.0
H1845 H 0.19418 0.73033 0.60358 0.0
H1846 H 0.18476 0.68973 0.60984 0.0
H1847 H 0.13278 0.65008 0.58723 0.0
H1848 H 0.1244 0.56138 0.63887 0.0
H1849 H 0.15072 0.58024 0.62514 0.0
H1850 H 0.16846 0.61792 0.6214 0.0
C1851 C 0.18263 0.69352 0.60125 0.0
C1852 C 0.14139 0.64258 0.59442 0.0
C1853 C 0.18783 0.7171 0.59766 0.0
C1854 C 0.11637 0.5738 0.63301 0.0
C1855 C 0.13143 0.58469 0.62516 0.0
C1856 C 0.16087 0.62399 0.61373 0.0
C1857 C 0.17305 0.67591 0.59409 0.0
C1858 C 0.16327 0.65247 0.59852 0.0
C1859 C 0.12169 0.60146 0.6176 0.0
C1860 C 0.13779 0.61589 0.6102 0.0
H1861 H 0.17162 0.71072 0.57105 0.0
H1862 H 0.16332 0.66907 0.57723 0.0
H1863 H 0.19087 0.64827 0.61109 0.0
H1864 H 0.0621 0.59967 0.62561 0.0
H1865 H 0.08815 0.61944 0.6124 0.0
C1866 C 0.16284 0.33962 0.37584 0.0
C1867 C 0.1692 0.34894 0.38609 0.0
C1868 C 0.15057 0.35423 0.36834 0.0
C1869 C 0.12941 0.41714 0.36191 0.0
H1870 H 0.07234 0.38242 0.35139 0.0
C1871 C 0.03955 0.46348 0.3481 0.0
C1872 C 0.02433 0.4505 0.34097 0.0
C1873 C 0.06221 0.45374 0.35115 0.0
C1874 C 0.08844 0.39239 0.35396 0.0
H1875 H 0.16929 0.38126 0.39629 0.0
H1876 H 0.1471 0.40678 0.38322 0.0
H1877 H 0.10325 0.3605 0.36142 0.0
H1878 H 0.0216 0.41891 0.33044 0.0
H1879 H 0.06166 0.4026 0.33522 0.0
H1880 H 0.11393 0.4493 0.35464 0.0
C1881 C 0.15192 0.38825 0.38095 0.0
C1882 C 0.10621 0.37975 0.35977 0.0
C1883 C 0.16448 0.37363 0.38845 0.0
C1884 C 0.03301 0.42906 0.33606 0.0
C1885 C 0.05584 0.41966 0.33887 0.0
C1886 C 0.11156 0.42987 0.356 0.0
C1887 C 0.1441 0.3784 0.37097 0.0
C1888 C 0.12674 0.39197 0.36394 0.0
C1889 C 0.07005 0.43109 0.34695 0.0
C1890 C 0.0907 0.41765 0.35207 0.0
H1891 H 0.16666 0.32076 0.37373 0.0
H1892 H 0.14526 0.34629 0.36062 0.0
H1893 H 0.14513 0.427 0.36499 0.0
H1894 H 0.03307 0.48 0.35203 0.0
H1895 H 0.0726 0.46301 0.3574 0.0
C1896 C 0.41179 0.57897 0.3743 0.0
C1897 C 0.40345 0.5733 0.36381 0.0
C1898 C 0.39668 0.59125 0.3816 0.0
C1899 C 0.33393 0.61385 0.38705 0.0
H1900 H 0.36895 0.67062 0.39771 0.0
C1901 C 0.28756 0.70408 0.4005 0.0
C1902 C 0.30039 0.71934 0.40766 0.0
C1903 C 0.29744 0.68147 0.39746 0.0
C1904 C 0.35886 0.65462 0.39511 0.0
H1905 H 0.37221 0.57427 0.35298 0.0
H1906 H 0.34579 0.59636 0.36573 0.0
H1907 H 0.39094 0.63908 0.3881 0.0
H1908 H 0.33194 0.72232 0.41819 0.0
H1909 H 0.34843 0.68229 0.41348 0.0
H1910 H 0.30164 0.62993 0.39393 0.0
C1911 C 0.36395 0.59104 0.36833 0.0
C1912 C 0.37155 0.6365 0.38953 0.0
C1913 C 0.37909 0.57852 0.36102 0.0
C1914 C 0.3219 0.71084 0.41256 0.0
C1915 C 0.33141 0.68804 0.40977 0.0
C1916 C 0.32116 0.63201 0.39276 0.0
C1917 C 0.37297 0.59835 0.37853 0.0
C1918 C 0.35925 0.61606 0.38533 0.0
C1919 C 0.32007 0.67369 0.40171 0.0
C1920 C 0.33347 0.65279 0.39674 0.0
H1921 H 0.43037 0.57477 0.37674 0.0
H1922 H 0.40394 0.59621 0.3895 0.0
H1923 H 0.32402 0.59823 0.38391 0.0
H1924 H 0.271 0.71046 0.39658 0.0
H1925 H 0.28822 0.67101 0.39122 0.0
C1926 C 0.16388 0.62232 0.11027 0.0
C1927 C 0.16192 0.64749 0.11242 0.0
C1928 C 0.15297 0.60525 0.11723 0.0
C1929 C 0.12431 0.59899 0.14461 0.0
H1930 H 0.08259 0.55149 0.13035 0.0
C1931 C 0.03053 0.57128 0.15989 0.0
C1932 C 0.02196 0.54734 0.15837 0.0
C1933 C 0.05389 0.57783 0.15645 0.0
C1934 C 0.09462 0.56415 0.13451 0.0
H1935 H 0.14765 0.67451 0.12367 0.0
H1936 H 0.12837 0.64497 0.13564 0.0
H1937 H 0.11254 0.57415 0.1197 0.0
H1938 H 0.03136 0.51109 0.15261 0.0
H1939 H 0.07234 0.52278 0.14627 0.0
H1940 H 0.10508 0.59016 0.15927 0.0
C1941 C 0.13862 0.63825 0.12872 0.0
C1942 C 0.11178 0.57719 0.1284 0.0
C1943 C 0.14946 0.65524 0.12178 0.0
C1944 C 0.03766 0.52964 0.15391 0.0
C1945 C 0.06099 0.53634 0.15026 0.0
C1946 C 0.10706 0.58607 0.15069 0.0
C1947 C 0.14 0.61307 0.12648 0.0
C1948 C 0.12602 0.59554 0.1333 0.0
C1949 C 0.06903 0.56066 0.15125 0.0
C1950 C 0.09133 0.56932 0.1456 0.0
H1951 H 0.17351 0.61581 0.10313 0.0
H1952 H 0.15445 0.58596 0.11531 0.0
H1953 H 0.13545 0.61259 0.14866 0.0
H1954 H 0.01875 0.58523 0.16334 0.0
H1955 H 0.05944 0.59677 0.1572 0.0
C1956 C 0.16437 0.2891 0.9157 0.0
C1957 C 0.18415 0.27518 0.91187 0.0
C1958 C 0.15927 0.31194 0.91112 0.0
C1959 C 0.1682 0.34238 0.88482 0.0
H1960 H 0.13072 0.39411 0.89853 0.0
C1961 C 0.12103 0.4163 0.85922 0.0
C1962 C 0.09597 0.41854 0.86153 0.0
C1963 C 0.13659 0.40434 0.86651 0.0
C1964 C 0.14131 0.37986 0.89461 0.0
H1965 H 0.21563 0.27513 0.90116 0.0
H1966 H 0.20736 0.31539 0.89349 0.0
H1967 H 0.15079 0.36321 0.90981 0.0
H1968 H 0.06777 0.41131 0.87352 0.0
H1969 H 0.09484 0.39035 0.88618 0.0
H1970 H 0.15813 0.35849 0.86965 0.0
C1971 C 0.1952 0.30838 0.8997 0.0
C1972 C 0.15274 0.36214 0.90106 0.0
C1973 C 0.20004 0.28539 0.90414 0.0
C1974 C 0.08699 0.40973 0.87149 0.0
C1975 C 0.10254 0.39792 0.87879 0.0
C1976 C 0.15696 0.36016 0.87841 0.0
C1977 C 0.17407 0.32139 0.90274 0.0
C1978 C 0.16568 0.34273 0.89621 0.0
C1979 C 0.12739 0.39459 0.87626 0.0
C1980 C 0.14276 0.37863 0.88321 0.0
H1981 H 0.15178 0.28158 0.92163 0.0
H1982 H 0.14274 0.3213 0.91362 0.0
H1983 H 0.17758 0.32753 0.88076 0.0
H1984 H 0.12849 0.42307 0.85163 0.0
H1985 H 0.15571 0.40218 0.86439 0.0
C1986 C 0.32297 0.3664 0.61388 0.0
C1987 C 0.32892 0.34142 0.61385 0.0
C1988 C 0.33316 0.38206 0.62168 0.0
C1989 C 0.37146 0.3815 0.64712 0.0
H1990 H 0.39519 0.44315 0.63579 0.0
C1991 C 0.46379 0.44077 0.64948 0.0
C1992 C 0.47046 0.43656 0.66035 0.0
C1993 C 0.44027 0.43546 0.64587 0.0
C1994 C 0.38878 0.42595 0.6391 0.0
H1995 H 0.34978 0.31311 0.62201 0.0
H1996 H 0.36831 0.34018 0.63512 0.0
H1997 H 0.3655 0.41996 0.62545 0.0
H1998 H 0.45701 0.4255 0.67619 0.0
H1999 H 0.41545 0.41699 0.66996 0.0
H2000 H 0.39669 0.38609 0.66016 0.0
C2001 C 0.35516 0.34787 0.6295 0.0
C2002 C 0.37134 0.41279 0.63323 0.0
C2003 C 0.34473 0.33227 0.62186 0.0
C2004 C 0.45251 0.42862 0.66772 0.0
C2005 C 0.42872 0.42362 0.66412 0.0
C2006 C 0.38937 0.39433 0.65284 0.0
C2007 C 0.34975 0.37304 0.62948 0.0
C2008 C 0.36342 0.38974 0.63689 0.0
C2009 C 0.42254 0.42613 0.65305 0.0
C2010 C 0.39923 0.4161 0.64861 0.0
H2011 H 0.3106 0.37386 0.60785 0.0
H2012 H 0.32828 0.40125 0.62148 0.0
H2013 H 0.36505 0.3643 0.65043 0.0
H2014 H 0.47709 0.44695 0.64356 0.0
H2015 H 0.43661 0.43728 0.63726 0.0
C2016 C 0.10399 0.95867 0.35084 0.0
C2017 C 0.08831 0.9694 0.35852 0.0
C2018 C 0.11978 0.93972 0.35387 0.0
C2019 C 0.13121 0.8944 0.376 0.0
H2020 H 0.19629 0.89255 0.36348 0.0
C2021 C 0.21127 0.8374 0.39365 0.0
C2022 C 0.22529 0.82399 0.38616 0.0
C2023 C 0.19339 0.8538 0.39004 0.0
C2024 C 0.17809 0.89271 0.36696 0.0
H2025 H 0.07712 0.96906 0.37542 0.0
H2026 H 0.105 0.93657 0.3808 0.0
H2027 H 0.16748 0.9239 0.35761 0.0
H2028 H 0.23165 0.81727 0.36902 0.0
H2029 H 0.20055 0.84605 0.3627 0.0
H2030 H 0.14231 0.86361 0.38562 0.0
C2031 C 0.10468 0.94214 0.37235 0.0
C2032 C 0.16151 0.91061 0.36357 0.0
C2033 C 0.08871 0.96084 0.36929 0.0
C2034 C 0.22094 0.82713 0.37498 0.0
C2035 C 0.20331 0.84376 0.37137 0.0
C2036 C 0.14791 0.87669 0.37948 0.0
C2037 C 0.12045 0.93131 0.3647 0.0
C2038 C 0.13786 0.91175 0.36807 0.0
C2039 C 0.18947 0.85734 0.37886 0.0
C2040 C 0.17152 0.87572 0.37501 0.0
H2041 H 0.10384 0.96477 0.34247 0.0
H2042 H 0.13133 0.93156 0.3477 0.0
H2043 H 0.11303 0.89437 0.3795 0.0
H2044 H 0.21421 0.83522 0.40231 0.0
H2045 H 0.18307 0.86416 0.39599 0.0
C2046 C 0.39326 0.97593 0.63927 0.0
C2047 C 0.41822 0.97014 0.64008 0.0
C2048 C 0.37643 0.95845 0.63577 0.0
C2049 C 0.37216 0.89978 0.6208 0.0
H2050 H 0.30698 0.89872 0.63326 0.0
C2051 C 0.29992 0.82494 0.6113 0.0
C2052 C 0.27622 0.83345 0.60901 0.0
C2053 C 0.31789 0.841 0.6151 0.0
C2054 C 0.32507 0.89892 0.62966 0.0
H2055 H 0.44508 0.94137 0.63806 0.0
H2056 H 0.41561 0.91054 0.63215 0.0
H2057 H 0.33723 0.92737 0.64027 0.0
H2058 H 0.2527 0.8654 0.60897 0.0
H2059 H 0.28404 0.89342 0.61561 0.0
H2060 H 0.35989 0.871 0.61029 0.0
C2061 C 0.40909 0.92878 0.63399 0.0
C2062 C 0.34241 0.91537 0.63365 0.0
C2063 C 0.42598 0.94639 0.63741 0.0
C2064 C 0.27087 0.85836 0.61054 0.0
C2065 C 0.28873 0.87434 0.61445 0.0
C2066 C 0.35485 0.88314 0.61689 0.0
C2067 C 0.38411 0.93464 0.63308 0.0
C2068 C 0.36609 0.91622 0.62919 0.0
C2069 C 0.31237 0.86581 0.61682 0.0
C2070 C 0.33107 0.88276 0.6212 0.0
H2071 H 0.38678 0.9942 0.64106 0.0
H2072 H 0.35745 0.9638 0.63495 0.0
H2073 H 0.39009 0.90014 0.61707 0.0
H2074 H 0.30457 0.80587 0.61012 0.0
H2075 H 0.33595 0.83393 0.6169 0.0
C2076 C 0.28994 0.15397 0.8953 0.0
C2077 C 0.27792 0.16901 0.88774 0.0
C2078 C 0.30823 0.13781 0.8919 0.0
C2079 C 0.32801 0.10252 0.86841 0.0
H2080 H 0.39075 0.09909 0.88301 0.0
C2081 C 0.40485 0.03927 0.85282 0.0
C2082 C 0.41939 0.02748 0.86063 0.0
C2083 C 0.38856 0.05773 0.8559 0.0
C2084 C 0.37322 0.09954 0.87893 0.0
H2085 H 0.27542 0.17882 0.8707 0.0
H2086 H 0.30718 0.15035 0.86473 0.0
H2087 H 0.36027 0.12875 0.88905 0.0
H2088 H 0.42808 0.02545 0.87779 0.0
H2089 H 0.39924 0.05704 0.88324 0.0
H2090 H 0.34038 0.07286 0.85853 0.0
C2091 C 0.30257 0.15123 0.87329 0.0
C2092 C 0.35583 0.11662 0.88237 0.0
C2093 C 0.28457 0.16764 0.87672 0.0
C2094 C 0.41739 0.03453 0.87157 0.0
C2095 C 0.40087 0.05272 0.87468 0.0
C2096 C 0.34523 0.0852 0.86507 0.0
C2097 C 0.31452 0.13612 0.88084 0.0
C2098 C 0.33308 0.11825 0.87715 0.0
C2099 C 0.38618 0.06455 0.8669 0.0
C2100 C 0.36808 0.08345 0.87029 0.0
H2101 H 0.2852 0.15479 0.90384 0.0
H2102 H 0.31709 0.12624 0.89787 0.0
H2103 H 0.31047 0.10324 0.86433 0.0
H2104 H 0.40626 0.03431 0.84432 0.0
H2105 H 0.37793 0.06672 0.84964 0.0
C2106 C 0.20317 0.15849 0.10304 0.0
C2107 C 0.21603 0.17273 0.11063 0.0
C2108 C 0.18428 0.14302 0.10642 0.0
C2109 C 0.16351 0.10858 0.13016 0.0
H2110 H 0.10177 0.10433 0.11478 0.0
C2111 C 0.08605 0.04602 0.14542 0.0
C2112 C 0.07296 0.0329 0.13753 0.0
C2113 C 0.10197 0.0648 0.14237 0.0
C2114 C 0.11901 0.10509 0.1191 0.0
H2115 H 0.21912 0.18191 0.12774 0.0
H2116 H 0.18618 0.15494 0.13363 0.0
H2117 H 0.13263 0.13371 0.10883 0.0
H2118 H 0.06626 0.02919 0.12024 0.0
H2119 H 0.0943 0.06154 0.11487 0.0
H2120 H 0.1504 0.07958 0.14024 0.0
C2121 C 0.19071 0.15577 0.12506 0.0
C2122 C 0.13663 0.12197 0.1157 0.0
C2123 C 0.2094 0.1714 0.12167 0.0
C2124 C 0.0758 0.03921 0.12653 0.0
C2125 C 0.09188 0.05782 0.12346 0.0
C2126 C 0.14602 0.09156 0.1335 0.0
C2127 C 0.17807 0.14129 0.11749 0.0
C2128 C 0.15908 0.12383 0.12119 0.0
C2129 C 0.10536 0.07071 0.13133 0.0
C2130 C 0.12355 0.08953 0.128 0.0
H2131 H 0.2078 0.15929 0.09448 0.0
H2132 H 0.17494 0.13194 0.10041 0.0
H2133 H 0.1808 0.10937 0.13445 0.0
H2134 H 0.08397 0.04171 0.15397 0.0
H2135 H 0.11167 0.07465 0.14868 0.0
C2136 C 0.92306 0.04219 0.62719 0.0
C2137 C 0.92206 0.0335 0.63794 0.0
C2138 C 0.90728 0.06072 0.62373 0.0
C2139 C 0.86905 0.11149 0.63318 0.0
H2140 H 0.83157 0.09953 0.60695 0.0
C2141 C 0.78598 0.17091 0.6214 0.0
C2142 C 0.78098 0.17479 0.61033 0.0
C2143 C 0.80466 0.15501 0.62459 0.0
C2144 C 0.84218 0.10346 0.61418 0.0
H2145 H 0.90436 0.03789 0.65357 0.0
H2146 H 0.87688 0.0706 0.64756 0.0
H2147 H 0.86183 0.06968 0.61288 0.0
H2148 H 0.79206 0.16579 0.59393 0.0
H2149 H 0.82527 0.13858 0.59943 0.0
H2150 H 0.84976 0.14541 0.63444 0.0
C2151 C 0.88982 0.06295 0.64181 0.0
C2152 C 0.85945 0.08626 0.61759 0.0
C2153 C 0.90538 0.04415 0.64523 0.0
C2154 C 0.79541 0.16289 0.60251 0.0
C2155 C 0.81433 0.14723 0.60569 0.0
C2156 C 0.852 0.12888 0.6297 0.0
C2157 C 0.89041 0.07118 0.63099 0.0
C2158 C 0.87288 0.08999 0.62717 0.0
C2159 C 0.81901 0.14282 0.61678 0.0
C2160 C 0.83814 0.12498 0.6202 0.0
H2161 H 0.93554 0.03416 0.62137 0.0
H2162 H 0.90819 0.06684 0.61536 0.0
H2163 H 0.87937 0.11493 0.64054 0.0
H2164 H 0.7749 0.17951 0.62761 0.0
H2165 H 0.80734 0.15176 0.63319 0.0
C2166 C 0.7192 0.16072 0.37634 0.0
C2167 C 0.72587 0.16249 0.38735 0.0
C2168 C 0.70076 0.14469 0.37308 0.0
C2169 C 0.64655 0.11205 0.38251 0.0
H2170 H 0.6604 0.06772 0.35867 0.0
C2171 C 0.58224 0.03212 0.37149 0.0
C2172 C 0.58012 0.02539 0.36051 0.0
C2173 C 0.59923 0.04976 0.37469 0.0
C2174 C 0.656 0.08024 0.36521 0.0
H2175 H 0.71817 0.14931 0.40359 0.0
H2176 H 0.68555 0.12135 0.3979 0.0
H2177 H 0.69136 0.09697 0.36442 0.0
H2178 H 0.59338 0.03237 0.34423 0.0
H2179 H 0.62257 0.06379 0.34971 0.0
H2180 H 0.61103 0.09576 0.38319 0.0
C2181 C 0.69473 0.13235 0.39182 0.0
C2182 C 0.67383 0.0969 0.36853 0.0
C2183 C 0.71346 0.14816 0.39506 0.0
C2184 C 0.5949 0.03705 0.35276 0.0
C2185 C 0.61168 0.05494 0.35593 0.0
C2186 C 0.62856 0.09559 0.37909 0.0
C2187 C 0.68839 0.13032 0.38078 0.0
C2188 C 0.66931 0.11288 0.37724 0.0
C2189 C 0.6143 0.06131 0.36696 0.0
C2190 C 0.6331 0.07938 0.37042 0.0
H2191 H 0.72864 0.17134 0.37021 0.0
H2192 H 0.69611 0.14356 0.36453 0.0
H2193 H 0.64254 0.12438 0.38917 0.0
H2194 H 0.57131 0.02315 0.37765 0.0
H2195 H 0.60099 0.05383 0.38327 0.0
C2196 C 0.58958 0.95811 0.14576 0.0
C2197 C 0.57564 0.97076 0.13798 0.0
C2198 C 0.60602 0.93988 0.14256 0.0
C2199 C 0.62258 0.89961 0.11925 0.0
H2200 H 0.68519 0.8963 0.13398 0.0
C2201 C 0.70552 0.84454 0.1029 0.0
C2202 C 0.7187 0.83073 0.11056 0.0
C2203 C 0.6871 0.86062 0.10628 0.0
C2204 C 0.66769 0.89684 0.12986 0.0
H2205 H 0.56815 0.97429 0.12074 0.0
H2206 H 0.59701 0.94286 0.11514 0.0
H2207 H 0.6548 0.92605 0.13989 0.0
H2208 H 0.72294 0.82309 0.12777 0.0
H2209 H 0.69082 0.85102 0.13364 0.0
H2210 H 0.63586 0.87068 0.10907 0.0
C2211 C 0.59487 0.94653 0.12374 0.0
C2212 C 0.65021 0.91384 0.13327 0.0
C2213 C 0.5783 0.96461 0.12695 0.0
C2214 C 0.71295 0.83322 0.12165 0.0
C2215 C 0.69472 0.84942 0.12503 0.0
C2216 C 0.64017 0.88273 0.11579 0.0
C2217 C 0.60907 0.93403 0.13149 0.0
C2218 C 0.62742 0.91547 0.12801 0.0
C2219 C 0.68168 0.86339 0.11739 0.0
C2220 C 0.6629 0.88117 0.12106 0.0
H2221 H 0.58769 0.96228 0.15432 0.0
H2222 H 0.61631 0.93033 0.14877 0.0
H2223 H 0.6051 0.90007 0.11511 0.0
H2224 H 0.70945 0.84287 0.09431 0.0
H2225 H 0.67745 0.87127 0.10022 0.0
C2226 C 0.78654 0.82857 0.87467 0.0
C2227 C 0.78101 0.82481 0.8857 0.0
C2228 C 0.80479 0.84505 0.87159 0.0
C2229 C 0.8394 0.89847 0.88187 0.0
H2230 H 0.88026 0.88597 0.85667 0.0
C2231 C 0.91973 0.96139 0.86997 0.0
C2232 C 0.92103 0.96829 0.85897 0.0
C2233 C 0.90376 0.94294 0.87332 0.0
C2234 C 0.86887 0.88975 0.86368 0.0
H2235 H 0.79075 0.83482 0.90217 0.0
H2236 H 0.82302 0.86328 0.89684 0.0
H2237 H 0.85083 0.85514 0.86256 0.0
H2238 H 0.90706 0.96084 0.84283 0.0
H2239 H 0.8791 0.92844 0.84868 0.0
H2240 H 0.85765 0.93302 0.88302 0.0
C2241 C 0.81286 0.85393 0.89053 0.0
C2242 C 0.85196 0.87213 0.86705 0.0
C2243 C 0.79444 0.83757 0.8936 0.0
C2244 C 0.90632 0.956 0.85136 0.0
C2245 C 0.89049 0.93736 0.8547 0.0
C2246 C 0.85645 0.91598 0.87855 0.0
C2247 C 0.81811 0.85806 0.87948 0.0
C2248 C 0.83687 0.87633 0.87615 0.0
C2249 C 0.88887 0.93082 0.86574 0.0
C2250 C 0.87125 0.91188 0.86939 0.0
H2251 H 0.77624 0.81935 0.86837 0.0
H2252 H 0.80796 0.84807 0.863 0.0
H2253 H 0.82782 0.90257 0.88877 0.0
H2254 H 0.93059 0.97068 0.87605 0.0
H2255 H 0.90304 0.93816 0.88186 0.0
C2256 C 0.71312 0.32858 0.87499 0.0
C2257 C 0.71944 0.32548 0.88598 0.0
C2258 C 0.69447 0.34472 0.872 0.0
C2259 C 0.66028 0.39846 0.88228 0.0
H2260 H 0.61753 0.38473 0.85787 0.0
C2261 C 0.57859 0.46044 0.87141 0.0
C2262 C 0.57624 0.46697 0.8604 0.0
C2263 C 0.59495 0.44215 0.87457 0.0
C2264 C 0.62945 0.38886 0.86466 0.0
H2265 H 0.71058 0.33617 0.90247 0.0
H2266 H 0.67766 0.364 0.89731 0.0
H2267 H 0.64769 0.35431 0.8635 0.0
H2268 H 0.58869 0.45898 0.84406 0.0
H2269 H 0.61735 0.42689 0.84959 0.0
H2270 H 0.64188 0.43292 0.88348 0.0
C2271 C 0.68752 0.35444 0.89096 0.0
C2272 C 0.64677 0.37146 0.86789 0.0
C2273 C 0.70632 0.33845 0.89394 0.0
C2274 C 0.59026 0.45445 0.8526 0.0
C2275 C 0.60649 0.43597 0.85576 0.0
C2276 C 0.64284 0.41573 0.87912 0.0
C2277 C 0.68155 0.35802 0.87994 0.0
C2278 C 0.6625 0.3761 0.87671 0.0
C2279 C 0.6092 0.42984 0.8668 0.0
C2280 C 0.62732 0.41117 0.87025 0.0
H2281 H 0.72313 0.31914 0.86866 0.0
H2282 H 0.69069 0.34728 0.86343 0.0
H2283 H 0.67237 0.4029 0.88897 0.0
H2284 H 0.56829 0.4699 0.87763 0.0
H2285 H 0.5965 0.43767 0.88312 0.0
C2286 C 0.79922 0.32591 0.10987 0.0
C2287 C 0.77513 0.33343 0.10773 0.0
C2288 C 0.8167 0.34275 0.11343 0.0
C2289 C 0.82859 0.40966 0.11547 0.0
H2290 H 0.87592 0.38957 0.1372 0.0
C2291 C 0.88722 0.47837 0.13954 0.0
C2292 C 0.91242 0.47346 0.13998 0.0
C2293 C 0.87099 0.46086 0.13553 0.0
C2294 C 0.86291 0.39535 0.13107 0.0
H2295 H 0.75032 0.36432 0.10781 0.0
H2296 H 0.7805 0.3936 0.11427 0.0
H2297 H 0.84656 0.35989 0.1302 0.0
H2298 H 0.94037 0.44631 0.13683 0.0
H2299 H 0.91185 0.41539 0.12994 0.0
H2300 H 0.8446 0.44531 0.11661 0.0
C2301 C 0.78621 0.37489 0.11289 0.0
C2302 C 0.84615 0.37835 0.12701 0.0
C2303 C 0.76886 0.35811 0.10921 0.0
C2304 C 0.92103 0.45052 0.13653 0.0
C2305 C 0.90474 0.43285 0.13266 0.0
C2306 C 0.84513 0.4267 0.11963 0.0
C2307 C 0.81037 0.36744 0.11507 0.0
C2308 C 0.8287 0.38531 0.11918 0.0
C2309 C 0.8796 0.43798 0.13201 0.0
C2310 C 0.86238 0.41973 0.1275 0.0
H2311 H 0.80458 0.30703 0.10868 0.0
H2312 H 0.8352 0.33642 0.11483 0.0
H2313 H 0.8158 0.41559 0.10928 0.0
H2314 H 0.88011 0.496 0.142 0.0
H2315 H 0.85166 0.46519 0.13518 0.0
C2316 C 0.91782 0.53057 0.37318 0.0
C2317 C 0.92132 0.52522 0.36212 0.0
C2318 C 0.90211 0.54941 0.37636 0.0
C2319 C 0.85028 0.58657 0.36613 0.0
H2320 H 0.8634 0.62539 0.39187 0.0
C2321 C 0.79019 0.66856 0.37865 0.0
C2322 C 0.78235 0.66872 0.38954 0.0
C2323 C 0.80834 0.65232 0.37523 0.0
C2324 C 0.85949 0.61459 0.3847 0.0
H2325 H 0.91186 0.53588 0.3457 0.0
H2326 H 0.88489 0.56928 0.35119 0.0
H2327 H 0.89339 0.59522 0.38581 0.0
H2328 H 0.78783 0.65256 0.40543 0.0
H2329 H 0.81983 0.6242 0.39946 0.0
H2330 H 0.8165 0.60623 0.36497 0.0
C2331 C 0.89373 0.55851 0.35745 0.0
C2332 C 0.8766 0.59725 0.38123 0.0
C2333 C 0.90924 0.53946 0.35428 0.0
C2334 C 0.79343 0.65268 0.39699 0.0
C2335 C 0.81183 0.63663 0.39359 0.0
C2336 C 0.83333 0.60409 0.36952 0.0
C2337 C 0.88972 0.56354 0.36854 0.0
C2338 C 0.87212 0.58285 0.37195 0.0
C2339 C 0.81923 0.6361 0.38264 0.0
C2340 C 0.83768 0.61814 0.37888 0.0
H2341 H 0.92658 0.51965 0.3794 0.0
H2342 H 0.89916 0.5524 0.38496 0.0
H2343 H 0.84594 0.57553 0.35908 0.0
H2344 H 0.78181 0.68051 0.37271 0.0
H2345 H 0.81383 0.6524 0.36676 0.0
C2346 C 0.579 0.53795 0.62697 0.0
C2347 C 0.57662 0.53088 0.63789 0.0
C2348 C 0.59496 0.55675 0.62403 0.0
C2349 C 0.64896 0.59083 0.63418 0.0
H2350 H 0.63407 0.63379 0.60996 0.0
C2351 C 0.70985 0.67292 0.62259 0.0
C2352 C 0.71681 0.67396 0.6116 0.0
C2353 C 0.69149 0.65689 0.62598 0.0
C2354 C 0.63845 0.62185 0.61672 0.0
H2355 H 0.58843 0.53835 0.65435 0.0
H2356 H 0.61583 0.57174 0.64931 0.0
H2357 H 0.60396 0.60357 0.61581 0.0
H2358 H 0.70955 0.65971 0.59549 0.0
H2359 H 0.67712 0.6318 0.60141 0.0
H2360 H 0.68333 0.60947 0.63515 0.0
C2361 C 0.60591 0.56233 0.64294 0.0
C2362 C 0.62128 0.60446 0.62005 0.0
C2363 C 0.59017 0.54329 0.64586 0.0
C2364 C 0.70461 0.65913 0.60402 0.0
C2365 C 0.68599 0.64333 0.60739 0.0
C2366 C 0.66596 0.60843 0.63094 0.0
C2367 C 0.60872 0.56914 0.63197 0.0
C2368 C 0.62642 0.58854 0.62876 0.0
C2369 C 0.67951 0.64183 0.61843 0.0
C2370 C 0.66096 0.62394 0.62211 0.0
H2371 H 0.56907 0.52844 0.62064 0.0
H2372 H 0.59696 0.56109 0.61548 0.0
H2373 H 0.6538 0.57863 0.64078 0.0
H2374 H 0.71912 0.68394 0.62862 0.0
H2375 H 0.68673 0.65617 0.63453 0.0
C2376 C 0.28083 0.66516 0.12376 0.0
C2377 C 0.27295 0.66614 0.11289 0.0
C2378 C 0.29984 0.64957 0.12682 0.0
C2379 C 0.35267 0.61527 0.1164 0.0
H2380 H 0.34241 0.57454 0.14181 0.0
C2381 C 0.41502 0.53326 0.12677 0.0
C2382 C 0.41944 0.52793 0.13778 0.0
C2383 C 0.39854 0.55165 0.12385 0.0
C2384 C 0.34581 0.58606 0.13481 0.0
H2385 H 0.27926 0.65205 0.09666 0.0
H2386 H 0.31258 0.62469 0.10203 0.0
H2387 H 0.31112 0.60382 0.13645 0.0
H2388 H 0.4109 0.53832 0.15433 0.0
H2389 H 0.38246 0.57082 0.14927 0.0
H2390 H 0.38743 0.59762 0.11478 0.0
C2391 C 0.304 0.63604 0.10816 0.0
C2392 C 0.32781 0.60278 0.13172 0.0
C2393 C 0.28481 0.6515 0.10511 0.0
C2394 C 0.40757 0.54184 0.1458 0.0
C2395 C 0.39124 0.56038 0.14288 0.0
C2396 C 0.37079 0.59866 0.11954 0.0
C2397 C 0.31152 0.63474 0.11907 0.0
C2398 C 0.33099 0.61746 0.12245 0.0
C2399 C 0.38622 0.56526 0.13187 0.0
C2400 C 0.36751 0.58374 0.12875 0.0
H2401 H 0.27191 0.676 0.12997 0.0
H2402 H 0.30539 0.64908 0.13528 0.0
H2403 H 0.35571 0.62657 0.10929 0.0
H2404 H 0.4236 0.52262 0.12041 0.0
H2405 H 0.39486 0.55461 0.1153 0.0
C2406 C 0.07677 0.5531 0.85975 0.0
C2407 C 0.08492 0.52913 0.85779 0.0
C2408 C 0.09311 0.57113 0.86325 0.0
C2409 C 0.1597 0.58473 0.86537 0.0
H2410 H 0.13857 0.63145 0.88718 0.0
C2411 C 0.22733 0.64278 0.89019 0.0
C2412 C 0.2223 0.66792 0.89098 0.0
C2413 C 0.21 0.62678 0.88586 0.0
C2414 C 0.14463 0.61865 0.88102 0.0
H2415 H 0.11647 0.50514 0.85813 0.0
H2416 H 0.14485 0.53627 0.86443 0.0
H2417 H 0.10942 0.60176 0.87998 0.0
H2418 H 0.19514 0.69598 0.88806 0.0
H2419 H 0.16452 0.66783 0.88059 0.0
H2420 H 0.19509 0.60122 0.86668 0.0
C2421 C 0.12602 0.54147 0.86297 0.0
C2422 C 0.12794 0.60169 0.87685 0.0
C2423 C 0.10974 0.52356 0.85937 0.0
C2424 C 0.19944 0.67669 0.88751 0.0
C2425 C 0.18194 0.66061 0.8833 0.0
C2426 C 0.17641 0.60148 0.86962 0.0
C2427 C 0.11794 0.5655 0.86497 0.0
C2428 C 0.13532 0.58436 0.86904 0.0
C2429 C 0.18718 0.63553 0.88233 0.0
C2430 C 0.1691 0.61846 0.87755 0.0
H2431 H 0.05778 0.55794 0.85848 0.0
H2432 H 0.0863 0.5895 0.86453 0.0
H2433 H 0.16593 0.57206 0.85919 0.0
H2434 H 0.24491 0.63554 0.89265 0.0
H2435 H 0.21443 0.6075 0.88528 0.0
C2436 C 0.19824 0.31958 0.61388 0.0
C2437 C 0.22056 0.32834 0.60979 0.0
C2438 C 0.17978 0.33589 0.617 0.0
C2439 C 0.16065 0.40106 0.61413 0.0
H2440 H 0.1219 0.38737 0.63985 0.0
C2441 C 0.10459 0.47491 0.63623 0.0
C2442 C 0.08025 0.4691 0.63883 0.0
C2443 C 0.12056 0.45688 0.63245 0.0
C2444 C 0.13244 0.39129 0.63259 0.0
H2445 H 0.24134 0.36102 0.60604 0.0
H2446 H 0.20958 0.3894 0.61166 0.0
H2447 H 0.15197 0.35743 0.6336 0.0
H2448 H 0.05365 0.43984 0.6397 0.0
H2449 H 0.08181 0.40805 0.63322 0.0
H2450 H 0.14164 0.43527 0.61337 0.0
C2451 C 0.20584 0.36998 0.61215 0.0
C2452 C 0.14961 0.37412 0.62897 0.0
C2453 C 0.22413 0.3537 0.60893 0.0
C2454 C 0.07229 0.44479 0.6377 0.0
C2455 C 0.08839 0.42664 0.63407 0.0
C2456 C 0.14374 0.4183 0.61782 0.0
C2457 C 0.18339 0.36133 0.6162 0.0
C2458 C 0.16412 0.3789 0.61975 0.0
C2459 C 0.11261 0.43259 0.6313 0.0
C2460 C 0.12964 0.41369 0.62714 0.0
H2461 H 0.19501 0.30011 0.61457 0.0
H2462 H 0.16263 0.32854 0.61995 0.0
H2463 H 0.17103 0.40515 0.60685 0.0
H2464 H 0.11116 0.49353 0.63689 0.0
H2465 H 0.13919 0.46193 0.63046 0.0
C2466 C 0.40985 0.45326 0.35235 0.0
C2467 C 0.42343 0.46577 0.36028 0.0
C2468 C 0.39357 0.43473 0.35535 0.0
C2469 C 0.37639 0.39391 0.37839 0.0
H2470 H 0.31377 0.39201 0.36363 0.0
C2471 C 0.2917 0.34243 0.39501 0.0
C2472 C 0.27796 0.32888 0.38747 0.0
C2473 C 0.31081 0.35749 0.3915 0.0
C2474 C 0.33128 0.39214 0.36774 0.0
H2475 H 0.4306 0.46869 0.37757 0.0
H2476 H 0.40201 0.43677 0.38283 0.0
H2477 H 0.34477 0.42111 0.35775 0.0
H2478 H 0.27347 0.32053 0.37034 0.0
H2479 H 0.30681 0.34676 0.36424 0.0
H2480 H 0.36245 0.36532 0.38859 0.0
C2481 C 0.4043 0.44076 0.37426 0.0
C2482 C 0.34911 0.40876 0.36435 0.0
C2483 C 0.42071 0.45912 0.37125 0.0
C2484 C 0.28388 0.33051 0.37637 0.0
C2485 C 0.30281 0.34571 0.37286 0.0
C2486 C 0.35846 0.37742 0.38184 0.0
C2487 C 0.39035 0.42847 0.36636 0.0
C2488 C 0.37186 0.40995 0.36967 0.0
C2489 C 0.31636 0.35948 0.38038 0.0
C2490 C 0.3357 0.37645 0.37658 0.0
H2491 H 0.41181 0.45784 0.34383 0.0
H2492 H 0.38346 0.42535 0.34903 0.0
H2493 H 0.39384 0.39403 0.38256 0.0
H2494 H 0.28763 0.34139 0.40361 0.0
H2495 H 0.32085 0.36803 0.39747 0.0
C2496 C 0.08636 0.02713 0.28772 0.0
C2497 C 0.07522 0.01094 0.29509 0.0
C2498 C 0.08713 0.02171 0.27662 0.0
C2499 C 0.05463 0.98505 0.2561 0.0
H2500 H 0.10947 0.00249 0.23762 0.0
C2501 C 0.05747 0.95799 0.21112 0.0
C2502 C 0.06425 0.97621 0.20363 0.0
C2503 C 0.06072 0.96155 0.22224 0.0
C2504 C 0.09396 0.99771 0.24268 0.0
H2505 H 0.05716 0.97584 0.29668 0.0
H2506 H 0.05875 0.96618 0.27731 0.0
H2507 H 0.11216 0.00902 0.25726 0.0
H2508 H 0.08062 0.0121 0.20193 0.0
H2509 H 0.08635 0.01838 0.2215 0.0
H2510 H 0.03642 0.97378 0.24157 0.0
C2511 C 0.06643 0.98334 0.28008 0.0
C2512 C 0.09549 0.00143 0.25392 0.0
C2513 C 0.06556 0.98882 0.29118 0.0
C2514 C 0.07522 0.99775 0.2075 0.0
C2515 C 0.07852 0.00131 0.21869 0.0
C2516 C 0.05316 0.98125 0.2449 0.0
C2517 C 0.07683 -7e-05 0.27265 0.0
C2518 C 0.0758 0.99517 0.26076 0.0
C2519 C 0.07092 0.98337 0.22617 0.0
C2520 C 0.07278 0.98754 0.23807 0.0
H2521 H 0.09365 0.04449 0.29045 0.0
H2522 H 0.09497 0.03505 0.27113 0.0
H2523 H 0.03892 0.98053 0.26107 0.0
H2524 H 0.04962 0.94087 0.20838 0.0
H2525 H 0.0552 0.94716 0.22778 0.0
C2526 C 0.24618 0.83219 0.54025 0.0
C2527 C 0.23673 0.81077 0.545 0.0
C2528 C 0.25106 0.83313 0.52908 0.0
C2529 C 0.26109 0.79342 0.5051 0.0
H2530 H 0.24079 0.85033 0.48854 0.0
C2531 C 0.25667 0.79047 0.4587 0.0
C2532 C 0.26727 0.81012 0.45305 0.0
C2533 C 0.25235 0.79207 0.46985 0.0
C2534 C 0.24675 0.83442 0.49307 0.0
H2535 H 0.22485 0.77364 0.54169 0.0
H2536 H 0.23342 0.77525 0.52233 0.0
H2537 H 0.23594 0.85007 0.50832 0.0
H2538 H 0.28064 0.84729 0.45456 0.0
H2539 H 0.27293 0.85016 0.47412 0.0
H2540 H 0.27168 0.77765 0.48992 0.0
C2541 C 0.23748 0.7912 0.52724 0.0
C2542 C 0.24406 0.83429 0.5044 0.0
C2543 C 0.23261 0.79025 0.53836 0.0
C2544 C 0.27226 0.83192 0.45869 0.0
C2545 C 0.26792 0.83353 0.46989 0.0
C2546 C 0.26371 0.79353 0.49382 0.0
C2547 C 0.24661 0.81267 0.52244 0.0
C2548 C 0.25092 0.81365 0.51052 0.0
C2549 C 0.25853 0.81336 0.47563 0.0
C2550 C 0.25628 0.81388 0.48766 0.0
H2551 H 0.24979 0.84823 0.54516 0.0
H2552 H 0.25838 0.84985 0.52565 0.0
H2553 H 0.26703 0.77744 0.50959 0.0
H2554 H 0.25225 0.77358 0.45453 0.0
H2555 H 0.24454 0.77643 0.474 0.0
C2556 C 0.46593 0.02038 0.71065 0.0
C2557 C 0.44738 0.01132 0.70385 0.0
C2558 C 0.46473 0.01687 0.72188 0.0
C2559 C 0.4398 0.97805 0.7431 0.0
H2560 H 0.4447 0.03552 0.76147 0.0
C2561 C 0.42394 0.97144 0.78919 0.0
C2562 C 0.43877 0.98566 0.79609 0.0
C2563 C 0.42393 0.9753 0.77798 0.0
C2564 C 0.44366 0.01922 0.7565 0.0
H2565 H 0.41348 0.99085 0.70337 0.0
H2566 H 0.41171 0.98412 0.72308 0.0
H2567 H 0.4479 0.03978 0.74177 0.0
H2568 H 0.46455 0.01585 0.79646 0.0
H2569 H 0.46555 0.02167 0.77689 0.0
H2570 H 0.43646 0.95725 0.75772 0.0
C2571 C 0.42701 0.99413 0.71968 0.0
C2572 C 0.44538 0.02171 0.74521 0.0
C2573 C 0.42798 0.99802 0.70845 0.0
C2574 C 0.4532 0.00423 0.79144 0.0
C2575 C 0.45348 0.00782 0.78018 0.0
C2576 C 0.43849 0.97547 0.75439 0.0
C2577 C 0.44517 0.0039 0.7265 0.0
C2578 C 0.44342 0.00116 0.73843 0.0
C2579 C 0.43907 0.99319 0.77328 0.0
C2580 C 0.44031 0.99603 0.76125 0.0
H2581 H 0.48094 0.03092 0.70731 0.0
H2582 H 0.47903 0.02441 0.72697 0.0
H2583 H 0.43846 0.9619 0.73802 0.0
H2584 H 0.41284 0.9567 0.79238 0.0
H2585 H 0.41217 0.96401 0.77299 0.0
C2586 C 0.23739 0.20912 0.95892 0.0
C2587 C 0.24113 0.18854 0.95227 0.0
C2588 C 0.24228 0.20807 0.97004 0.0
C2589 C 0.24674 0.16487 0.99276 0.0
H2590 H 0.27591 0.22026 0.00756 0.0
C2591 C 0.2709 0.16569 0.03884 0.0
C2592 C 0.26665 0.18771 0.04443 0.0
C2593 C 0.26769 0.16445 0.02756 0.0
C2594 C 0.2675 0.20474 0.00357 0.0
H2595 H 0.25375 0.1509 0.95208 0.0
H2596 H 0.2622 0.14906 0.97159 0.0
H2597 H 0.27234 0.22067 0.98783 0.0
H2598 H 0.25426 0.22518 0.04274 0.0
H2599 H 0.2484 0.22297 0.02313 0.0
H2600 H 0.24173 0.14906 0.00856 0.0
C2601 C 0.2552 0.16592 0.96816 0.0
C2602 C 0.26553 0.20495 0.99226 0.0
C2603 C 0.25037 0.16699 0.95699 0.0
C2604 C 0.25804 0.20808 0.03862 0.0
C2605 C 0.2548 0.20684 0.02738 0.0
C2606 C 0.24871 0.16466 0.00411 0.0
C2607 C 0.25099 0.18641 0.97481 0.0
C2608 C 0.25483 0.18519 0.98674 0.0
C2609 C 0.26017 0.1852 0.02169 0.0
C2610 C 0.25879 0.18477 0.00964 0.0
H2611 H 0.22979 0.22586 0.95563 0.0
H2612 H 0.23846 0.22405 0.97496 0.0
H2613 H 0.23817 0.14947 0.98874 0.0
H2614 H 0.27779 0.14976 0.04309 0.0
H2615 H 0.27207 0.14755 0.02339 0.0
C2616 C 0.93748 0.00894 0.70574 0.0
C2617 C 0.92725 0.98755 0.70134 0.0
C2618 C 0.93551 0.01384 0.71687 0.0
C2619 C 0.9285 0.98247 0.74296 0.0
H2620 H 0.91432 0.04727 0.75411 0.0
C2621 C 0.92314 0.00215 0.78911 0.0
C2622 C 0.93408 0.02399 0.79268 0.0
C2623 C 0.91978 0.99773 0.778 0.0
C2624 C 0.91853 0.02911 0.75113 0.0
H2625 H 0.90673 0.95467 0.70511 0.0
H2626 H 0.90322 0.9633 0.72451 0.0
H2627 H 0.91314 0.03989 0.73455 0.0
H2628 H 0.94924 0.05868 0.78733 0.0
H2629 H 0.94427 0.05061 0.76807 0.0
H2630 H 0.93461 0.97177 0.75946 0.0
C2631 C 0.91279 0.97623 0.71937 0.0
C2632 C 0.91779 0.0249 0.73993 0.0
C2633 C 0.91459 0.97143 0.70824 0.0
C2634 C 0.94121 0.04143 0.78489 0.0
C2635 C 0.93797 0.03698 0.77382 0.0
C2636 C 0.92943 0.98671 0.75415 0.0
C2637 C 0.92347 0.99733 0.72382 0.0
C2638 C 0.92298 0.00159 0.73572 0.0
C2639 C 0.92729 0.01506 0.77022 0.0
C2640 C 0.92471 0.01015 0.75837 0.0
H2641 H 0.9472 0.02176 0.7006 0.0
H2642 H 0.94406 0.03018 0.72008 0.0
H2643 H 0.93288 0.96437 0.73994 0.0
H2644 H 0.9175 0.98831 0.79489 0.0
H2645 H 0.91124 0.98076 0.77552 0.0
C2646 C 0.72912 0.16589 0.5386 0.0
C2647 C 0.73416 0.18787 0.54411 0.0
C2648 C 0.73259 0.16418 0.52735 0.0
C2649 C 0.73447 0.2036 0.50316 0.0
H2650 H 0.76254 0.14715 0.48871 0.0
C2651 C 0.76377 0.20579 0.45833 0.0
C2652 C 0.76019 0.18483 0.45191 0.0
C2653 C 0.75895 0.20529 0.46947 0.0
C2654 C 0.75431 0.16289 0.49262 0.0
H2655 H 0.74829 0.22468 0.54227 0.0
H2656 H 0.75444 0.22166 0.52269 0.0
H2657 H 0.75885 0.14745 0.50853 0.0
H2658 H 0.74787 0.14712 0.45212 0.0
H2659 H 0.73936 0.14629 0.47164 0.0
H2660 H 0.72992 0.2191 0.48733 0.0
C2661 C 0.74728 0.20595 0.52701 0.0
C2662 C 0.75229 0.16308 0.50396 0.0
C2663 C 0.74385 0.20765 0.53822 0.0
C2664 C 0.7511 0.1635 0.45686 0.0
C2665 C 0.74627 0.163 0.46804 0.0
C2666 C 0.73642 0.20338 0.49185 0.0
C2667 C 0.74113 0.18442 0.52141 0.0
C2668 C 0.74266 0.1836 0.50936 0.0
C2669 C 0.75041 0.18383 0.47448 0.0
C2670 C 0.74667 0.18317 0.48645 0.0
H2671 H 0.72139 0.15041 0.5429 0.0
H2672 H 0.7276 0.14737 0.52325 0.0
H2673 H 0.72643 0.21945 0.50706 0.0
H2674 H 0.77124 0.22238 0.45485 0.0
H2675 H 0.76274 0.22154 0.47422 0.0
C2676 C 0.57164 0.00347 0.20873 0.0
C2677 C 0.56061 0.02494 0.20478 0.0
C2678 C 0.57419 -0.00029 0.21995 0.0
C2679 C 0.54667 0.01885 0.24589 0.0
H2680 H 0.60527 0.99179 0.25895 0.0
C2681 C 0.55633 0.01077 0.29234 0.0
C2682 C 0.56633 0.98886 0.29632 0.0
C2683 C 0.55763 0.01637 0.28126 0.0
C2684 C 0.58869 0.99918 0.25541 0.0
H2685 H 0.54509 0.05994 0.20947 0.0
H2686 H 0.54935 0.0533 0.22892 0.0
H2687 H 0.60378 0.99859 0.23931 0.0
H2688 H 0.58567 0.95572 0.2918 0.0
H2689 H 0.58775 0.96536 0.27252 0.0
H2690 H 0.53134 0.0191 0.26187 0.0
C2691 C 0.5555 0.03912 0.2234 0.0
C2692 C 0.58786 0.00305 0.24417 0.0
C2693 C 0.55301 0.04288 0.21225 0.0
C2694 C 0.57814 0.97295 0.28902 0.0
C2695 C 0.57934 0.97848 0.27795 0.0
C2696 C 0.54745 0.0149 0.25709 0.0
C2697 C 0.56575 0.01736 0.22739 0.0
C2698 C 0.56684 0.01298 0.2393 0.0
C2699 C 0.5688 0.0001 0.2739 0.0
C2700 C 0.56846 0.00503 0.26201 0.0
H2701 H 0.57766 0.98932 0.20317 0.0
H2702 H 0.58208 0.9827 0.2228 0.0
H2703 H 0.53005 0.02614 0.24235 0.0
H2704 H 0.54738 0.02353 0.29778 0.0
H2705 H 0.54971 0.0334 0.27844 0.0
C2706 C 0.74704 0.79847 0.03924 0.0
C2707 C 0.76264 0.8154 0.04424 0.0
C2708 C 0.74233 0.79991 0.02811 0.0
C2709 C 0.74943 0.83962 0.00357 0.0
H2710 H 0.74418 0.77719 0.98877 0.0
C2711 C 0.75002 0.8243 0.95627 0.0
C2712 C 0.73038 0.80993 0.95253 0.0
C2713 C 0.75417 0.82715 0.96745 0.0
C2714 C 0.74558 0.79475 0.99281 0.0
H2715 H 0.78518 0.84743 0.04168 0.0
H2716 H 0.77768 0.84957 0.02211 0.0
H2717 H 0.75061 0.77809 0.00832 0.0
H2718 H 0.69878 0.78877 0.95769 0.0
H2719 H 0.70669 0.79294 0.97702 0.0
H2720 H 0.74504 0.85605 0.9878 0.0
C2721 C 0.76852 0.83552 0.02679 0.0
C2722 C 0.74903 0.79533 0.00404 0.0
C2723 C 0.77288 0.8343 0.03799 0.0
C2724 C 0.71461 0.79921 0.96022 0.0
C2725 C 0.71896 0.80175 0.97132 0.0
C2726 C 0.74634 0.839 0.99226 0.0
C2727 C 0.75358 0.818 0.02166 0.0
C2728 C 0.75058 0.81775 0.00962 0.0
C2729 C 0.73892 0.81547 0.97504 0.0
C2730 C 0.74402 0.81654 0.98684 0.0
H2731 H 0.7388 0.78385 0.04393 0.0
H2732 H 0.73014 0.78654 0.02453 0.0
H2733 H 0.75037 0.85722 0.00758 0.0
H2734 H 0.76252 0.83281 0.95059 0.0
H2735 H 0.76971 0.83781 0.97017 0.0
C2736 C 0.57616 0.52257 0.78839 0.0
C2737 C 0.5544 0.51777 0.7941 0.0
C2738 C 0.57711 0.51982 0.77709 0.0
C2739 C 0.5364 0.5193 0.7532 0.0
H2740 H 0.5924 0.49174 0.73821 0.0
C2741 C 0.53343 0.49063 0.70823 0.0
C2742 C 0.55417 0.4948 0.70173 0.0
C2743 C 0.53401 0.49536 0.71938 0.0
C2744 C 0.57678 0.49981 0.74227 0.0
H2745 H 0.51704 0.50502 0.79254 0.0
H2746 H 0.51875 0.49995 0.77286 0.0
H2747 H 0.59271 0.4947 0.75803 0.0
H2748 H 0.59152 0.50823 0.70182 0.0
H2749 H 0.59253 0.51641 0.72135 0.0
H2750 H 0.52036 0.52422 0.73749 0.0
C2751 C 0.5349 0.50642 0.77707 0.0
C2752 C 0.57693 0.50145 0.75362 0.0
C2753 C 0.53395 0.50921 0.78834 0.0
C2754 C 0.57533 0.50448 0.70661 0.0
C2755 C 0.57593 0.50914 0.71779 0.0
C2756 C 0.53624 0.51765 0.74188 0.0
C2757 C 0.55633 0.51218 0.77128 0.0
C2758 C 0.55662 0.51095 0.75922 0.0
C2759 C 0.55536 0.50433 0.72432 0.0
C2760 C 0.5563 0.50765 0.73629 0.0
H2761 H 0.59214 0.52949 0.79259 0.0
H2762 H 0.59384 0.52456 0.77287 0.0
H2763 H 0.52068 0.52724 0.75725 0.0
H2764 H 0.51698 0.48274 0.70481 0.0
H2765 H 0.51797 0.49111 0.72419 0.0
C2766 C 0.74888 0.32785 0.03933 0.0
C2767 C 0.73933 0.30636 0.04397 0.0
C2768 C 0.75362 0.32911 0.02816 0.0
C2769 C 0.76228 0.2904 0.00372 0.0
H2770 H 0.74134 0.34822 0.98796 0.0
C2771 C 0.75475 0.28986 0.95737 0.0
C2772 C 0.76527 0.30967 0.95179 0.0
C2773 C 0.75117 0.29092 0.96859 0.0
C2774 C 0.74748 0.33206 0.99227 0.0
H2775 H 0.72739 0.26934 0.0405 0.0
H2776 H 0.73569 0.27149 0.02112 0.0
H2777 H 0.73769 0.34703 0.00778 0.0
H2778 H 0.77922 0.34658 0.95352 0.0
H2779 H 0.77276 0.34851 0.9732 0.0
H2780 H 0.77179 0.27531 0.98826 0.0
C2781 C 0.7399 0.28727 0.02611 0.0
C2782 C 0.74548 0.3314 0.00362 0.0
C2783 C 0.73519 0.28601 0.03724 0.0
C2784 C 0.77088 0.33111 0.95759 0.0
C2785 C 0.76727 0.33218 0.96885 0.0
C2786 C 0.76419 0.29104 0.99242 0.0
C2787 C 0.74891 0.30891 0.02141 0.0
C2788 C 0.75259 0.31042 0.00945 0.0
C2789 C 0.75801 0.31182 0.9745 0.0
C2790 C 0.75653 0.31174 0.98655 0.0
H2791 H 0.75254 0.34377 0.04431 0.0
H2792 H 0.7609 0.34592 0.02481 0.0
H2793 H 0.76838 0.27417 0.00799 0.0
H2794 H 0.74987 0.27325 0.95309 0.0
H2795 H 0.74345 0.27516 0.97268 0.0
C2796 C 0.9107 0.4747 0.29036 0.0
C2797 C 0.92847 0.4856 0.297 0.0
C2798 C 0.90905 0.48098 0.27936 0.0
C2799 C 0.94729 0.5083 0.25755 0.0
H2800 H 0.88685 0.50738 0.24104 0.0
C2801 C 0.94121 0.54431 0.21389 0.0
C2802 C 0.93176 0.52794 0.20612 0.0
C2803 C 0.93897 0.53947 0.22497 0.0
C2804 C 0.90383 0.50754 0.24558 0.0
H2805 H 0.95744 0.51246 0.29769 0.0
H2806 H 0.95381 0.52448 0.27867 0.0
H2807 H 0.88584 0.49979 0.26066 0.0
H2808 H 0.91166 0.49403 0.20403 0.0
H2809 H 0.90718 0.48597 0.22353 0.0
H2810 H 0.96512 0.51669 0.24252 0.0
C2811 C 0.94175 0.51038 0.28175 0.0
C2812 C 0.90332 0.50315 0.2568 0.0
C2813 C 0.94369 0.50375 0.29267 0.0
C2814 C 0.91908 0.50708 0.20977 0.0
C2815 C 0.91653 0.50242 0.22091 0.0
C2816 C 0.94772 0.51306 0.24642 0.0
C2817 C 0.92495 0.49854 0.27485 0.0
C2818 C 0.92507 0.50355 0.26294 0.0
C2819 C 0.92685 0.51839 0.22858 0.0
C2820 C 0.92603 0.51277 0.24034 0.0
H2821 H 0.89894 0.46045 0.29356 0.0
H2822 H 0.89604 0.47129 0.27431 0.0
H2823 H 0.96451 0.50804 0.26189 0.0
H2824 H 0.95037 0.56097 0.21144 0.0
H2825 H 0.94674 0.55225 0.23075 0.0
C2826 C 0.74547 0.67524 0.54217 0.0
C2827 C 0.75883 0.69436 0.54693 0.0
C2828 C 0.74199 0.67451 0.53091 0.0
C2829 C 0.74768 0.71244 0.50577 0.0
H2830 H 0.75003 0.6491 0.49161 0.0
C2831 C 0.75666 0.70104 0.45923 0.0
C2832 C 0.73856 0.6862 0.45446 0.0
C2833 C 0.75975 0.70147 0.47051 0.0
C2834 C 0.7493 0.66688 0.49548 0.0
H2835 H 0.77901 0.72768 0.54371 0.0
H2836 H 0.77362 0.72612 0.52411 0.0
H2837 H 0.7531 0.65151 0.51136 0.0
H2838 H 0.70983 0.65985 0.45798 0.0
H2839 H 0.71603 0.65995 0.47754 0.0
H2840 H 0.74458 0.72772 0.48978 0.0
C2841 C 0.76513 0.71203 0.52901 0.0
C2842 C 0.75083 0.6683 0.5068 0.0
C2843 C 0.76828 0.71294 0.54026 0.0
C2844 C 0.72431 0.67113 0.46126 0.0
C2845 C 0.7277 0.67128 0.47251 0.0
C2846 C 0.74654 0.71102 0.49445 0.0
C2847 C 0.75216 0.69268 0.52416 0.0
C2848 C 0.74998 0.69111 0.51211 0.0
C2849 C 0.74513 0.68676 0.47724 0.0
C2850 C 0.74728 0.68823 0.48921 0.0
H2851 H 0.73786 0.66078 0.54715 0.0
H2852 H 0.73145 0.6596 0.5275 0.0
H2853 H 0.74649 0.73029 0.50955 0.0
H2854 H 0.76832 0.71254 0.45428 0.0
H2855 H 0.77353 0.71336 0.47399 0.0
C2856 C 0.44636 0.53974 0.28689 0.0
C2857 C 0.43693 0.52299 0.29451 0.0
C2858 C 0.44409 0.53546 0.27577 0.0
C2859 C 0.40881 0.50542 0.25484 0.0
H2860 H 0.46968 0.50508 0.23864 0.0
C2861 C 0.41474 0.47587 0.20963 0.0
C2862 C 0.43284 0.48669 0.20312 0.0
C2863 C 0.41341 0.48122 0.22073 0.0
C2864 C 0.45242 0.50559 0.24295 0.0
H2865 H 0.41674 0.48904 0.2963 0.0
H2866 H 0.41216 0.482 0.27672 0.0
H2867 H 0.47031 0.51248 0.25812 0.0
H2868 H 0.46282 0.51247 0.20283 0.0
H2869 H 0.4598 0.5229 0.22206 0.0
H2870 H 0.39076 0.4993 0.23964 0.0
C2871 C 0.42157 0.49827 0.27949 0.0
C2872 C 0.45286 0.5096 0.25414 0.0
C2873 C 0.42417 0.50235 0.29068 0.0
C2874 C 0.44883 0.5038 0.20774 0.0
C2875 C 0.44722 0.50952 0.21878 0.0
C2876 C 0.40829 0.50181 0.24357 0.0
C2877 C 0.43192 0.5146 0.27197 0.0
C2878 C 0.43109 0.50961 0.26018 0.0
C2879 C 0.42996 0.49778 0.2255 0.0
C2880 C 0.43013 0.50192 0.23747 0.0
H2881 H 0.45556 0.55627 0.28949 0.0
H2882 H 0.45188 0.54851 0.27011 0.0
H2883 H 0.39178 0.50552 0.25935 0.0
H2884 H 0.40238 0.46241 0.20623 0.0
H2885 H 0.40006 0.4716 0.22563 0.0
C2886 C 0.27696 0.66927 0.96324 0.0
C2887 C 0.27338 0.69118 0.95749 0.0
C2888 C 0.27355 0.6685 0.97451 0.0
C2889 C 0.27262 0.70937 0.99843 0.0
H2890 H 0.24238 0.65414 0.01292 0.0
C2891 C 0.23956 0.71246 0.04289 0.0
C2892 C 0.24266 0.69146 0.04935 0.0
C2893 C 0.2456 0.71209 0.03186 0.0
C2894 C 0.25119 0.66954 0.009 0.0
H2895 H 0.26219 0.72909 0.95889 0.0
H2896 H 0.25586 0.72769 0.97849 0.0
H2897 H 0.2469 0.65378 0.99318 0.0
H2898 H 0.25586 0.65401 0.04939 0.0
H2899 H 0.26625 0.65336 0.03008 0.0
H2900 H 0.27659 0.72528 0.01423 0.0
C2901 C 0.26193 0.71126 0.97438 0.0
C2902 C 0.25373 0.66935 0.99769 0.0
C2903 C 0.26542 0.71204 0.96314 0.0
C2904 C 0.25284 0.67036 0.0446 0.0
C2905 C 0.25878 0.66997 0.03355 0.0
C2906 C 0.27002 0.70959 0.00972 0.0
C2907 C 0.26643 0.68962 0.98022 0.0
C2908 C 0.26425 0.68938 0.99226 0.0
C2909 C 0.25481 0.6907 0.02703 0.0
C2910 C 0.25908 0.68977 0.01512 0.0
H2911 H 0.28337 0.65298 0.95911 0.0
H2912 H 0.27734 0.65159 0.97878 0.0
H2913 H 0.2813 0.72487 0.99452 0.0
H2914 H 0.23142 0.72889 0.04623 0.0
H2915 H 0.24207 0.72827 0.02703 0.0
C2916 C 0.07963 0.50553 0.70707 0.0
C2917 C 0.06021 0.51863 0.7024 0.0
C2918 C 0.08043 0.50168 0.71832 0.0
C2919 C 0.04106 0.50452 0.74312 0.0
H2920 H 0.10341 0.50347 0.75814 0.0
C2921 C 0.04951 0.50596 0.78996 0.0
C2922 C 0.06338 0.48659 0.79432 0.0
C2923 C 0.04997 0.51087 0.7788 0.0
C2924 C 0.0859 0.50371 0.75402 0.0
H2925 H 0.02683 0.53859 0.70577 0.0
H2926 H 0.02858 0.53274 0.72534 0.0
H2927 H 0.1024 0.5098 0.73849 0.0
H2928 H 0.08886 0.45744 0.79021 0.0
H2929 H 0.09035 0.46681 0.77089 0.0
H2930 H 0.02465 0.4991 0.75876 0.0
C2931 C 0.04276 0.52456 0.72039 0.0
C2932 C 0.08528 0.50713 0.74275 0.0
C2933 C 0.04177 0.52802 0.70916 0.0
C2934 C 0.07832 0.47283 0.78726 0.0
C2935 C 0.0791 0.47805 0.77615 0.0
C2936 C 0.04169 0.50155 0.75439 0.0
C2937 C 0.06203 0.51124 0.72513 0.0
C2938 C 0.06284 0.5075 0.73714 0.0
C2939 C 0.06464 0.49684 0.7718 0.0
C2940 C 0.0641 0.50102 0.75993 0.0
H2941 H 0.09402 0.49804 0.702 0.0
H2942 H 0.09534 0.49099 0.72163 0.0
H2943 H 0.02346 0.50413 0.73909 0.0
H2944 H 0.03817 0.5173 0.79512 0.0
H2945 H 0.03884 0.52563 0.77562 0.0
C2946 C 0.22655 0.33837 0.45988 0.0
C2947 C 0.2364 0.31979 0.45333 0.0
C2948 C 0.23231 0.33949 0.47095 0.0
C2949 C 0.25526 0.29914 0.49298 0.0
H2950 H 0.25887 0.35945 0.50952 0.0
C2951 C 0.29107 0.30221 0.53665 0.0
C2952 C 0.27536 0.31271 0.54443 0.0
C2953 C 0.28651 0.30496 0.52558 0.0
C2954 C 0.25774 0.34252 0.50497 0.0
H2955 H 0.26095 0.28878 0.4529 0.0
H2956 H 0.27211 0.29139 0.47205 0.0
H2957 H 0.25205 0.3611 0.48985 0.0
H2958 H 0.24302 0.33527 0.54656 0.0
H2959 H 0.23545 0.34061 0.52705 0.0
H2960 H 0.26165 0.28066 0.50805 0.0
C2961 C 0.25917 0.30454 0.46884 0.0
C2962 C 0.25379 0.3434 0.49373 0.0
C2963 C 0.25304 0.30316 0.45785 0.0
C2964 C 0.25552 0.32698 0.54081 0.0
C2965 C 0.25115 0.33003 0.52966 0.0
C2966 C 0.25958 0.29831 0.50414 0.0
C2967 C 0.24829 0.32223 0.47562 0.0
C2968 C 0.25263 0.32169 0.48758 0.0
C2969 C 0.26638 0.31864 0.52198 0.0
C2970 C 0.26096 0.31995 0.51023 0.0
H2971 H 0.21347 0.35124 0.45654 0.0
H2972 H 0.2234 0.35322 0.47591 0.0
H2973 H 0.25374 0.282 0.48862 0.0
H2974 H 0.30701 0.29181 0.5391 0.0
H2975 H 0.29874 0.29634 0.51979 0.0
C2976 C 0.03159 0.16292 0.32165 0.0
C2977 C 0.03691 0.14984 0.3312 0.0
C2978 C 0.02092 0.1861 0.32217 0.0
C2979 C 0.01528 0.23971 0.33962 0.0
H2980 H 0.96146 0.25683 0.32055 0.0
C2981 C 0.9688 0.33492 0.34118 0.0
C2982 C 0.96095 0.34516 0.33129 0.0
C2983 C 0.97723 0.31076 0.34161 0.0
C2984 C 0.97671 0.25251 0.32583 0.0
H2985 H 0.03512 0.15071 0.34878 0.0
H2986 H 0.01665 0.1916 0.34972 0.0
H2987 H 0.97732 0.21517 0.32056 0.0
H2988 H 0.95641 0.33836 0.31407 0.0
H2989 H 0.97172 0.29653 0.31471 0.0
H2990 H 0.01529 0.27716 0.34467 0.0
C2991 C 0.02072 0.18377 0.34184 0.0
C2992 C 0.98568 0.22857 0.32587 0.0
C2993 C 0.03109 0.16035 0.3413 0.0
C2994 C 0.96201 0.33084 0.32183 0.0
C2995 C 0.9707 0.30681 0.32222 0.0
C2996 C 0.0065 0.26376 0.3395 0.0
C2997 C 0.01557 0.19688 0.33226 0.0
C2998 C 0.00516 0.22195 0.33271 0.0
C2999 C 0.97827 0.29634 0.33213 0.0
C3000 C 0.9872 0.27055 0.33254 0.0
H3001 H 0.03563 0.15515 0.31375 0.0
H3002 H 0.01732 0.19582 0.31466 0.0
H3003 H 0.0305 0.23518 0.34489 0.0
H3004 H 0.96786 0.34539 0.34863 0.0
H3005 H 0.98252 0.30329 0.34941 0.0
C3006 C 0.90902 0.71912 0.59311 0.0
C3007 C 0.89874 0.71215 0.5831 0.0
C3008 C 0.93304 0.728 0.5936 0.0
C3009 C 0.98007 0.75764 0.57686 0.0
H3010 H 0.02665 0.73108 0.59751 0.0
C3011 C 0.08248 0.7768 0.57235 0.0
C3012 C 0.09638 0.78118 0.58174 0.0
C3013 C 0.05854 0.76817 0.57312 0.0
C3014 C 0.0138 0.73895 0.59179 0.0
H3015 H 0.90531 0.70952 0.56577 0.0
H3016 H 0.94703 0.72514 0.5666 0.0
H3017 H 0.98408 0.71729 0.59791 0.0
H3018 H 0.0963 0.77946 0.59933 0.0
H3019 H 0.05411 0.76473 0.60074 0.0
H3020 H 0.0094 0.77948 0.57078 0.0
C3021 C 0.93662 0.72366 0.57407 0.0
C3022 C 0.98944 0.73102 0.59202 0.0
C3023 C 0.91282 0.71452 0.5736 0.0
C3024 C 0.08603 0.77609 0.59195 0.0
C3025 C 0.06188 0.76765 0.59275 0.0
C3026 C 0.00428 0.76571 0.57669 0.0
C3027 C 0.94703 0.73045 0.58407 0.0
C3028 C 0.97244 0.74001 0.58443 0.0
C3029 C 0.0477 0.76395 0.58332 0.0
C3030 C 0.02161 0.75617 0.58402 0.0
H3031 H 0.89865 0.71731 0.60057 0.0
H3032 H 0.94057 0.73321 0.60141 0.0
H3033 H 0.96727 0.76522 0.57103 0.0
H3034 H 0.09016 0.78007 0.56436 0.0
H3035 H 0.0485 0.76486 0.56567 0.0
C3036 C 0.473 0.83672 0.84253 0.0
C3037 C 0.46815 0.84755 0.83239 0.0
C3038 C 0.48206 0.81277 0.84313 0.0
C3039 C 0.51533 0.7664 0.82729 0.0
H3040 H 0.48347 0.7191 0.84604 0.0
C3041 C 0.53421 0.66352 0.82285 0.0
C3042 C 0.5353 0.64903 0.83227 0.0
C3043 C 0.52627 0.68778 0.82338 0.0
C3044 C 0.49285 0.73212 0.84088 0.0
H3045 H 0.46968 0.84212 0.81495 0.0
H3046 H 0.48567 0.80052 0.81598 0.0
H3047 H 0.47012 0.76177 0.84627 0.0
H3048 H 0.52882 0.64861 0.84964 0.0
H3049 H 0.51536 0.69118 0.85065 0.0
H3050 H 0.53823 0.73709 0.82196 0.0
C3051 C 0.48236 0.81043 0.82347 0.0
C3052 C 0.48516 0.75657 0.84101 0.0
C3053 C 0.47301 0.83416 0.82288 0.0
C3054 C 0.52794 0.65926 0.84223 0.0
C3055 C 0.52021 0.68367 0.84279 0.0
C3056 C 0.52318 0.74208 0.82724 0.0
C3057 C 0.48683 0.79939 0.83359 0.0
C3058 C 0.49609 0.77387 0.83409 0.0
C3059 C 0.51946 0.69832 0.83337 0.0
C3060 C 0.5118 0.7245 0.8339 0.0
H3061 H 0.46926 0.84657 0.84998 0.0
H3062 H 0.48546 0.80476 0.85104 0.0
H3063 H 0.52435 0.77942 0.82199 0.0
H3064 H 0.53933 0.65602 0.81503 0.0
H3065 H 0.52535 0.69822 0.81591 0.0
C3066 C 0.41349 0.20845 0.07273 0.0
C3067 C 0.39899 0.20865 0.08216 0.0
C3068 C 0.43743 0.21734 0.07295 0.0
C3069 C 0.48939 0.22868 0.09109 0.0
H3070 H 0.51171 0.27049 0.06764 0.0
C3071 C 0.58635 0.27282 0.09019 0.0
C3072 C 0.59768 0.27483 0.07997 0.0
C3073 C 0.56206 0.26479 0.09101 0.0
C3074 C 0.50593 0.25857 0.07419 0.0
H3075 H 0.39831 0.21816 0.09926 0.0
H3076 H 0.44033 0.23368 0.09968 0.0
H3077 H 0.46937 0.25686 0.06802 0.0
H3078 H 0.59305 0.26868 0.0627 0.0
H3079 H 0.55113 0.2542 0.0641 0.0
H3080 H 0.52613 0.22997 0.09714 0.0
C3081 C 0.43308 0.22663 0.09211 0.0
C3082 C 0.4816 0.25085 0.07442 0.0
C3083 C 0.40898 0.21797 0.09184 0.0
C3084 C 0.58461 0.2678 0.07066 0.0
C3085 C 0.56052 0.2596 0.07147 0.0
C3086 C 0.51387 0.23626 0.09082 0.0
C3087 C 0.44753 0.22645 0.08265 0.0
C3088 C 0.4731 0.23562 0.0828 0.0
C3089 C 0.54873 0.25844 0.08163 0.0
C3090 C 0.52251 0.25107 0.08228 0.0
H3091 H 0.40625 0.2016 0.06512 0.0
H3092 H 0.44818 0.21676 0.06555 0.0
H3093 H 0.4834 0.2168 0.09762 0.0
H3094 H 0.59596 0.27828 0.09749 0.0
H3095 H 0.55354 0.26427 0.09896 0.0
C3096 C 0.96748 0.66751 0.1763 0.0
C3097 C 0.96412 0.65363 0.1668 0.0
C3098 C 0.97765 0.6909 0.17576 0.0
C3099 C 0.98414 0.74348 0.15794 0.0
H3100 H 0.03637 0.7625 0.17749 0.0
C3101 C 0.0288 0.83948 0.15603 0.0
C3102 C 0.03631 0.85008 0.16588 0.0
C3103 C 0.02068 0.81522 0.15573 0.0
C3104 C 0.02154 0.75767 0.17208 0.0
H3105 H 0.96869 0.65328 0.14931 0.0
H3106 H 0.98615 0.69457 0.14833 0.0
H3107 H 0.02121 0.7206 0.17776 0.0
H3108 H 0.04039 0.844 0.18317 0.0
H3109 H 0.02545 0.80208 0.18278 0.0
H3110 H 0.98371 0.78064 0.15251 0.0
C3111 C 0.98105 0.68718 0.15619 0.0
C3112 C 0.01299 0.73359 0.17219 0.0
C3113 C 0.97126 0.66356 0.15675 0.0
C3114 C 0.03507 0.83614 0.17545 0.0
C3115 C 0.02663 0.81205 0.17519 0.0
C3116 C 0.99243 0.76769 0.15792 0.0
C3117 C 0.98431 0.70106 0.16569 0.0
C3118 C 0.99414 0.72629 0.16517 0.0
C3119 C 0.01956 0.80112 0.16531 0.0
C3120 C 0.01114 0.77517 0.16505 0.0
H3121 H 0.96231 0.66019 0.18415 0.0
H3122 H 0.97984 0.70127 0.1832 0.0
H3123 H 0.9694 0.73836 0.15251 0.0
H3124 H 0.02985 0.84976 0.14852 0.0
H3125 H 0.01576 0.8074 0.14795 0.0
C3126 C 0.59061 0.71829 0.40782 0.0
C3127 C 0.60137 0.71284 0.41791 0.0
C3128 C 0.56678 0.72763 0.40731 0.0
C3129 C 0.52093 0.761 0.4233 0.0
H3130 H 0.47333 0.73038 0.40432 0.0
C3131 C 0.41828 0.78286 0.42696 0.0
C3132 C 0.4042 0.78386 0.41742 0.0
C3133 C 0.4424 0.77441 0.42667 0.0
C3134 C 0.48643 0.73944 0.40954 0.0
H3135 H 0.59595 0.71355 0.43536 0.0
H3136 H 0.55451 0.73007 0.43448 0.0
H3137 H 0.51565 0.71614 0.40421 0.0
H3138 H 0.40438 0.77694 0.40009 0.0
H3139 H 0.44667 0.7627 0.39948 0.0
H3140 H 0.49206 0.78456 0.42854 0.0
C3141 C 0.5644 0.72698 0.42697 0.0
C3142 C 0.51068 0.73121 0.40948 0.0
C3143 C 0.58802 0.71734 0.42747 0.0
C3144 C 0.41471 0.77608 0.40758 0.0
C3145 C 0.43895 0.76788 0.40726 0.0
C3146 C 0.4968 0.76942 0.42327 0.0
C3147 C 0.55346 0.73208 0.41689 0.0
C3148 C 0.52809 0.74172 0.41645 0.0
C3149 C 0.45317 0.76702 0.4168 0.0
C3150 C 0.47912 0.75857 0.41649 0.0
H3151 H 0.60044 0.71486 0.40033 0.0
H3152 H 0.55881 0.73153 0.39943 0.0
H3153 H 0.53406 0.76966 0.42865 0.0
H3154 H 0.41054 0.78838 0.43468 0.0
H3155 H 0.4525 0.77347 0.43422 0.0
C3156 C 0.47824 0.15993 0.65608 0.0
C3157 C 0.47353 0.14962 0.66635 0.0
C3158 C 0.48695 0.18398 0.65521 0.0
C3159 C 0.5184 0.23222 0.67089 0.0
H3160 H 0.486 0.27767 0.65142 0.0
C3161 C 0.52991 0.33563 0.67598 0.0
C3162 C 0.53255 0.3502 0.66665 0.0
C3163 C 0.52326 0.31107 0.67513 0.0
C3164 C 0.49548 0.26515 0.65679 0.0
H3165 H 0.47509 0.15605 0.68372 0.0
H3166 H 0.49024 0.19776 0.68223 0.0
H3167 H 0.47458 0.2344 0.65121 0.0
H3168 H 0.52977 0.35048 0.64907 0.0
H3169 H 0.51823 0.30735 0.64754 0.0
H3170 H 0.53922 0.26273 0.67654 0.0
C3171 C 0.4872 0.1874 0.67484 0.0
C3172 C 0.48895 0.24036 0.65666 0.0
C3173 C 0.47829 0.16358 0.6757 0.0
C3174 C 0.5277 0.33978 0.65642 0.0
C3175 C 0.52112 0.31506 0.65555 0.0
C3176 C 0.52499 0.25688 0.67099 0.0
C3177 C 0.49145 0.19798 0.6646 0.0
C3178 C 0.50001 0.22374 0.66387 0.0
C3179 C 0.51919 0.30032 0.6649 0.0
C3180 C 0.51327 0.27378 0.66411 0.0
H3181 H 0.47459 0.14963 0.64874 0.0
H3182 H 0.49019 0.19161 0.64721 0.0
H3183 H 0.52758 0.21977 0.6764 0.0
H3184 H 0.53299 0.34324 0.68399 0.0
H3185 H 0.52129 0.30049 0.68252 0.0
C3186 C 0.08529 0.22208 0.92628 0.0
C3187 C 0.09869 0.21685 0.91681 0.0
C3188 C 0.0616 0.23152 0.9256 0.0
C3189 C 0.00793 0.23384 0.90796 0.0
H3190 H 0.98835 0.28776 0.92651 0.0
C3191 C 0.91109 0.27715 0.90583 0.0
C3192 C 0.90056 0.28504 0.91565 0.0
C3193 C 0.93545 0.26925 0.9055 0.0
C3194 C 0.99337 0.27247 0.92137 0.0
H3195 H 0.09782 0.21741 0.89921 0.0
H3196 H 0.0561 0.23375 0.898 0.0
H3197 H 0.03061 0.27365 0.92675 0.0
H3198 H 0.90698 0.28993 0.93288 0.0
H3199 H 0.94913 0.27562 0.93242 0.0
H3200 H 0.97058 0.23214 0.9028 0.0
C3201 C 0.06406 0.23057 0.90595 0.0
C3202 C 0.01765 0.26449 0.92148 0.0
C3203 C 0.08795 0.22143 0.90663 0.0
C3204 C 0.91472 0.28436 0.92517 0.0
C3205 C 0.93894 0.27625 0.92487 0.0
C3206 C 0.98354 0.24166 0.90794 0.0
C3207 C 0.05065 0.23569 0.91544 0.0
C3208 C 0.02515 0.24497 0.91484 0.0
C3209 C 0.94976 0.26885 0.91502 0.0
C3210 C 0.97588 0.26095 0.91472 0.0
H3211 H 0.09319 0.21897 0.93423 0.0
H3212 H 0.05166 0.23511 0.93306 0.0
H3213 H 0.01315 0.21859 0.90284 0.0
H3214 H 0.9007 0.27774 0.89834 0.0
H3215 H 0.94319 0.264 0.89774 0.0
C3216 C 0.96075 0.8336 0.67235 0.0
C3217 C 0.95882 0.84863 0.66313 0.0
C3218 C 0.96869 0.80943 0.67142 0.0
C3219 C 0.00103 0.76602 0.65316 0.0
H3220 H 0.97108 0.71819 0.67229 0.0
C3221 C 0.02382 0.66157 0.65233 0.0
C3222 C 0.0298 0.65192 0.66259 0.0
C3223 C 0.0138 0.68512 0.65143 0.0
C3224 C 0.97961 0.73134 0.6669 0.0
H3225 H 0.96406 0.8502 0.64569 0.0
H3226 H 0.97763 0.80765 0.64399 0.0
H3227 H 0.95641 0.76023 0.6724 0.0
H3228 H 0.02923 0.65888 0.67992 0.0
H3229 H 0.01148 0.69967 0.67838 0.0
H3230 H 0.02415 0.73675 0.64766 0.0
C3231 C 0.9733 0.8147 0.65199 0.0
C3232 C 0.97133 0.7555 0.667 0.0
C3233 C 0.96552 0.83907 0.65295 0.0
C3234 C 0.02503 0.66597 0.67191 0.0
C3235 C 0.01469 0.68922 0.67103 0.0
C3236 C 0.00916 0.74169 0.65299 0.0
C3237 C 0.97471 0.79948 0.66121 0.0
C3238 C 0.9823 0.77333 0.66033 0.0
C3239 C 0.00913 0.69915 0.66079 0.0
C3240 C 0.99887 0.72425 0.66003 0.0
H3241 H 0.95623 0.8406 0.68034 0.0
H3242 H 0.97023 0.79858 0.67875 0.0
H3243 H 0.01002 0.77923 0.64796 0.0
H3244 H 0.02745 0.65115 0.64502 0.0
H3245 H 0.00959 0.69231 0.64344 0.0
C3246 C 0.08703 0.28423 0.40859 0.0
C3247 C 0.09737 0.29229 0.41842 0.0
C3248 C 0.06301 0.27546 0.4083 0.0
C3249 C 0.0051 0.27511 0.42432 0.0
H3250 H 0.98835 0.22126 0.4052 0.0
C3251 C 0.91533 0.22009 0.42799 0.0
C3252 C 0.90257 0.21508 0.41833 0.0
C3253 C 0.93859 0.23061 0.42767 0.0
C3254 C 0.99272 0.23648 0.41049 0.0
H3255 H 0.09091 0.2969 0.43566 0.0
H3256 H 0.0493 0.281 0.43525 0.0
H3257 H 0.03013 0.23686 0.40542 0.0
H3258 H 0.90416 0.21716 0.40076 0.0
H3259 H 0.94511 0.23538 0.40018 0.0
H3260 H 0.96776 0.27412 0.4296 0.0
C3261 C 0.05938 0.28211 0.42769 0.0
C3262 C 0.01666 0.24549 0.41061 0.0
C3263 C 0.08329 0.29115 0.42795 0.0
C3264 C 0.91352 0.22098 0.40832 0.0
C3265 C 0.93698 0.2312 0.408 0.0
C3266 C 0.98126 0.26589 0.42429 0.0
C3267 C 0.04884 0.27427 0.41784 0.0
C3268 C 0.02321 0.26489 0.41756 0.0
C3269 C 0.94976 0.23608 0.41768 0.0
C3270 C 0.97484 0.24644 0.4174 0.0
H3271 H 0.09733 0.28522 0.40109 0.0
H3272 H 0.05544 0.27001 0.40053 0.0
H3273 H 0.00925 0.29039 0.4296 0.0
H3274 H 0.90724 0.21595 0.43581 0.0
H3275 H 0.94807 0.23402 0.43526 0.0
C3276 C 0.46674 0.33726 0.15864 0.0
C3277 C 0.46058 0.34829 0.16858 0.0
C3278 C 0.47488 0.31301 0.15831 0.0
C3279 C 0.47641 0.25601 0.17497 0.0
H3280 H 0.52555 0.23618 0.15399 0.0
C3281 C 0.52878 0.16427 0.17731 0.0
C3282 C 0.53077 0.15079 0.16762 0.0
C3283 C 0.51923 0.18798 0.17721 0.0
C3284 C 0.51165 0.24144 0.15983 0.0
H3285 H 0.45883 0.34289 0.186 0.0
H3286 H 0.47377 0.30091 0.18552 0.0
H3287 H 0.5116 0.27857 0.15436 0.0
H3288 H 0.52442 0.15153 0.15024 0.0
H3289 H 0.50798 0.19326 0.15004 0.0
H3290 H 0.47716 0.21893 0.18063 0.0
C3291 C 0.47157 0.3106 0.17791 0.0
C3292 C 0.50357 0.26572 0.16003 0.0
C3293 C 0.46311 0.33472 0.17821 0.0
C3294 C 0.52291 0.16146 0.15783 0.0
C3295 C 0.51371 0.18535 0.1577 0.0
C3296 C 0.48475 0.23184 0.17486 0.0
C3297 C 0.47737 0.29931 0.16794 0.0
C3298 C 0.48586 0.27337 0.16763 0.0
C3299 C 0.5118 0.19884 0.1674 0.0
C3300 C 0.50247 0.22432 0.1673 0.0
H3301 H 0.46465 0.3472 0.15108 0.0
H3302 H 0.47875 0.30489 0.15046 0.0
H3303 H 0.46238 0.26099 0.18078 0.0
H3304 H 0.53451 0.1564 0.18497 0.0
H3305 H 0.5181 0.19801 0.18479 0.0
C3306 C 0.59052 0.77401 0.90652 0.0
C3307 C 0.60176 0.78052 0.91637 0.0
C3308 C 0.56621 0.76597 0.90636 0.0
C3309 C 0.5097 0.76596 0.92339 0.0
H3310 H 0.4882 0.71633 0.903 0.0
C3311 C 0.41797 0.71462 0.92744 0.0
C3312 C 0.40363 0.71243 0.91802 0.0
C3313 C 0.44174 0.72388 0.92687 0.0
C3314 C 0.49393 0.73037 0.90867 0.0
H3315 H 0.5968 0.78274 0.9338 0.0
H3316 H 0.55482 0.76796 0.93363 0.0
H3317 H 0.53079 0.72975 0.90282 0.0
H3318 H 0.40294 0.7181 0.90059 0.0
H3319 H 0.44482 0.73403 0.89954 0.0
H3320 H 0.47294 0.76592 0.92944 0.0
C3321 C 0.56431 0.76987 0.92595 0.0
C3322 C 0.51832 0.73814 0.90856 0.0
C3323 C 0.58845 0.77822 0.92607 0.0
C3324 C 0.41354 0.71977 0.90799 0.0
C3325 C 0.43752 0.72868 0.90738 0.0
C3326 C 0.48544 0.75795 0.92358 0.0
C3327 C 0.5527 0.76395 0.91607 0.0
C3328 C 0.52659 0.75595 0.91597 0.0
C3329 C 0.45183 0.73083 0.91683 0.0
C3330 C 0.47733 0.74 0.91627 0.0
H3331 H 0.6003 0.77587 0.8989 0.0
H3332 H 0.55787 0.76191 0.89858 0.0
H3333 H 0.51513 0.78014 0.92903 0.0
H3334 H 0.41071 0.70929 0.93529 0.0
H3335 H 0.45241 0.7252 0.93427 0.0
C3336 C 0.95923 0.16677 0.82279 0.0
C3337 C 0.9589 0.15179 0.83206 0.0
C3338 C 0.96754 0.19088 0.8234 0.0
C3339 C 0.00335 0.2338 0.84067 0.0
H3340 H 0.97129 0.28242 0.82265 0.0
C3341 C 0.02602 0.33795 0.84228 0.0
C3342 C 0.0306 0.34853 0.83206 0.0
C3343 C 0.01623 0.3143 0.84303 0.0
C3344 C 0.98045 0.26903 0.82771 0.0
H3345 H 0.9671 0.15037 0.84928 0.0
H3346 H 0.98118 0.1927 0.85045 0.0
H3347 H 0.95644 0.24045 0.82262 0.0
H3348 H 0.02779 0.34308 0.81467 0.0
H3349 H 0.01047 0.30208 0.81595 0.0
H3350 H 0.02719 0.26275 0.84582 0.0
C3351 C 0.97546 0.18567 0.84262 0.0
C3352 C 0.97205 0.24491 0.82766 0.0
C3353 C 0.96736 0.1614 0.84197 0.0
C3354 C 0.02467 0.33529 0.82264 0.0
C3355 C 0.01458 0.3119 0.82338 0.0
C3356 C 0.01158 0.25806 0.84082 0.0
C3357 C 0.97549 0.20081 0.83335 0.0
C3358 C 0.98365 0.22683 0.83398 0.0
C3359 C 0.01043 0.30106 0.83357 0.0
C3360 C 0.00046 0.27582 0.83419 0.0
H3361 H 0.95325 0.15974 0.815 0.0
H3362 H 0.96789 0.20168 0.81602 0.0
H3363 H 0.01291 0.2204 0.84557 0.0
H3364 H 0.03056 0.34772 0.84967 0.0
H3365 H 0.0131 0.30641 0.85099 0.0
C3366 C 0.58854 0.21667 0.59083 0.0
C3367 C 0.59924 0.21034 0.58083 0.0
C3368 C 0.56414 0.22433 0.59132 0.0
C3369 C 0.50639 0.22435 0.5751 0.0
H3370 H 0.4866 0.27399 0.59584 0.0
C3371 C 0.41486 0.27693 0.57257 0.0
C3372 C 0.40135 0.27931 0.58224 0.0
C3373 C 0.43845 0.26711 0.57273 0.0
C3374 C 0.49185 0.25993 0.59008 0.0
H3375 H 0.59307 0.20775 0.56349 0.0
H3376 H 0.55085 0.22188 0.56423 0.0
H3377 H 0.5291 0.26041 0.59536 0.0
H3378 H 0.40188 0.27327 0.59964 0.0
H3379 H 0.44347 0.25638 0.59995 0.0
H3380 H 0.4692 0.22465 0.56959 0.0
C3381 C 0.5609 0.22017 0.57178 0.0
C3382 C 0.5162 0.25206 0.58981 0.0
C3383 C 0.58517 0.21219 0.57132 0.0
C3384 C 0.41184 0.27147 0.59207 0.0
C3385 C 0.43565 0.26201 0.59226 0.0
C3386 C 0.48215 0.23249 0.57527 0.0
C3387 C 0.54994 0.22616 0.5818 0.0
C3388 C 0.52386 0.23423 0.58227 0.0
C3389 C 0.44919 0.25979 0.58258 0.0
C3390 C 0.47466 0.25042 0.58273 0.0
H3391 H 0.59888 0.21511 0.5983 0.0
H3392 H 0.55631 0.22836 0.59921 0.0
H3393 H 0.51137 0.2102 0.56935 0.0
H3394 H 0.40712 0.28264 0.56488 0.0
H3395 H 0.44852 0.26574 0.56517 0.0
C3396 C 0.52813 0.83574 0.34122 0.0
C3397 C 0.53056 0.8471 0.33102 0.0
C3398 C 0.52039 0.81137 0.34197 0.0
C3399 C 0.51496 0.75501 0.32519 0.0
H3400 H 0.47187 0.73317 0.34829 0.0
C3401 C 0.46348 0.66327 0.32361 0.0
C3402 C 0.46317 0.6489 0.33308 0.0
C3403 C 0.47285 0.68702 0.32381 0.0
C3404 C 0.48412 0.73897 0.34186 0.0
H3405 H 0.5257 0.84226 0.31368 0.0
H3406 H 0.51172 0.80014 0.31495 0.0
H3407 H 0.48533 0.77578 0.3478 0.0
H3408 H 0.47235 0.64819 0.35021 0.0
H3409 H 0.48865 0.68994 0.3506 0.0
H3410 H 0.51323 0.71836 0.31911 0.0
C3411 C 0.51654 0.80964 0.32237 0.0
C3412 C 0.49188 0.76337 0.34158 0.0
C3413 C 0.52446 0.83384 0.32163 0.0
C3414 C 0.47253 0.65878 0.34277 0.0
C3415 C 0.48165 0.68271 0.34302 0.0
C3416 C 0.50703 0.73074 0.32542 0.0
C3417 C 0.51473 0.79793 0.33253 0.0
C3418 C 0.50719 0.77177 0.33317 0.0
C3419 C 0.48192 0.69705 0.33353 0.0
C3420 C 0.49135 0.72251 0.33369 0.0
H3421 H 0.53292 0.84546 0.34858 0.0
H3422 H 0.51944 0.80291 0.34992 0.0
H3423 H 0.52724 0.76061 0.31875 0.0
H3424 H 0.45661 0.65607 0.316 0.0
H3425 H 0.47263 0.6977 0.31639 0.0
C3426 C 0.91252 0.78544 0.07084 0.0
C3427 C 0.89814 0.78677 0.08029 0.0
C3428 C 0.93653 0.77672 0.07131 0.0
C3429 C 0.97965 0.74148 0.08875 0.0
H3430 H 0.02831 0.77151 0.07008 0.0
C3431 C 0.08348 0.71953 0.09152 0.0
C3432 C 0.095 0.71449 0.08154 0.0
C3433 C 0.05965 0.72895 0.09177 0.0
C3434 C 0.0149 0.76287 0.0753 0.0
H3435 H 0.89771 0.78009 0.09765 0.0
H3436 H 0.93978 0.76531 0.09854 0.0
H3437 H 0.98639 0.78659 0.06981 0.0
H3438 H 0.09088 0.71602 0.06404 0.0
H3439 H 0.04944 0.7326 0.06446 0.0
H3440 H 0.00848 0.718 0.09433 0.0
C3441 C 0.93238 0.77049 0.0907 0.0
C3442 C 0.9908 0.77141 0.07512 0.0
C3443 C 0.90825 0.779 0.09021 0.0
C3444 C 0.08239 0.71949 0.07184 0.0
C3445 C 0.05875 0.72918 0.07208 0.0
C3446 C 0.00385 0.7331 0.08901 0.0
C3447 C 0.9469 0.76935 0.08126 0.0
C3448 C 0.97277 0.76067 0.08175 0.0
C3449 C 0.04705 0.73386 0.08204 0.0
C3450 C 0.02166 0.74355 0.08221 0.0
H3451 H 0.90511 0.79093 0.06306 0.0
H3452 H 0.94689 0.77558 0.06381 0.0
H3453 H 0.96625 0.73252 0.09387 0.0
H3454 H 0.0927 0.7157 0.09912 0.0
H3455 H 0.05113 0.73252 0.09956 0.0
loop_
_geom_bond_atom_site_label_1
_geom_bond_atom_site_label_2
_geom_bond_distance
_geom_bond_site_symmetry_2
_ccdc_geom_bond_type
Co0 N4 2.148 . S
Co0 N10 2.128 . S
Co0 N20 2.194 . S
Co0 O25 2.351 . S
Co0 O26 2.155 . S
Co0 O27 2.096 . S
C1 N4 1.301 . S
C1 N5 1.328 . S
C1 H6 0.930 . S
C2 C3 1.333 . S
C2 N4 1.317 . S
C2 H7 0.930 . S
C3 C2 1.333 . S
C3 N5 1.350 . S
C3 H29 0.931 1_545 S
N4 Co0 2.148 . S
N4 C1 1.301 . S
N4 C2 1.317 . S
N5 C1 1.328 . S
N5 C3 1.350 . S
H6 C1 0.930 . S
H7 C2 0.930 . S
C8 O9 1.224 . S
C8 O27 1.247 . S
O9 C8 1.224 . S
N10 Co0 2.128 . S
N10 C11 1.355 . S
N10 C13 1.311 . S
C11 N10 1.355 . S
C11 C12 1.363 . S
C11 H23 0.929 . S
C12 C11 1.363 . S
C12 N14 1.375 . S
C12 H30 0.931 . S
C13 N10 1.311 . S
C13 N14 1.347 . S
C13 H24 0.929 . S
N14 C12 1.375 . S
N14 C13 1.347 . S
C15 C18 1.365 . S
C15 N20 1.328 . S
C15 H21 0.929 . S
C16 C17 1.362 . S
C16 C19 1.378 . S
C16 H31 0.929 . S
C17 C16 1.362 . S
C17 C18 1.366 . S
C18 C15 1.365 . S
C18 C17 1.366 . S
C18 H32 0.930 . S
C19 C16 1.378 . S
C19 N20 1.315 . S
C19 H22 0.930 . S
N20 Co0 2.194 . S
N20 C15 1.328 . S
N20 C19 1.315 . S
H21 C15 0.929 . S
H22 C19 0.930 . S
H23 C11 0.929 . S
H24 C13 0.929 . S
O25 Co0 2.351 . S
O25 C28 1.244 . S
O26 Co0 2.155 . S
O26 C28 1.240 . S
O27 Co0 2.096 . S
O27 C8 1.247 . S
C28 O25 1.244 . S
C28 O26 1.240 . S
H29 C3 0.931 1_565 S
H30 C12 0.931 . S
H31 C16 0.929 . S
H32 C18 0.930 . S
Co33 N37 2.148 . S
Co33 N43 2.128 . S
Co33 N53 2.194 . S
Co33 O58 2.351 . S
Co33 O59 2.155 . S
Co33 O60 2.096 . S
C34 N37 1.301 . S
C34 N38 1.328 . S
C34 H39 0.930 . S
C35 C36 1.333 . S
C35 N37 1.317 . S
C35 H40 0.930 . S
C36 C35 1.333 . S
C36 N38 1.350 . S
C36 H62 0.931 . S
N37 Co33 2.148 . S
N37 C34 1.301 . S
N37 C35 1.317 . S
N38 C34 1.328 . S
N38 C36 1.350 . S
H39 C34 0.930 . S
H40 C35 0.930 . S
C41 O42 1.224 . S
C41 O60 1.247 . S
O42 C41 1.224 . S
N43 Co33 2.128 . S
N43 C44 1.355 . S
N43 C46 1.311 . S
C44 N43 1.355 . S
C44 C45 1.363 . S
C44 H56 0.929 . S
C45 C44 1.363 . S
C45 N47 1.375 . S
C45 H63 0.931 . S
C46 N43 1.311 . S
C46 N47 1.347 . S
C46 H57 0.929 . S
N47 C45 1.375 . S
N47 C46 1.347 . S
C48 C51 1.365 . S
C48 N53 1.328 . S
C48 H54 0.929 . S
C49 C50 1.362 . S
C49 C52 1.378 . S
C49 H64 0.929 . S
C50 C49 1.362 . S
C50 C51 1.366 . S
C51 C48 1.365 . S
C51 C50 1.366 . S
C51 H65 0.930 . S
C52 C49 1.378 . S
C52 N53 1.315 . S
C52 H55 0.930 . S
N53 Co33 2.194 . S
N53 C48 1.328 . S
N53 C52 1.315 . S
H54 C48 0.929 . S
H55 C52 0.930 . S
H56 C44 0.929 . S
H57 C46 0.929 . S
O58 Co33 2.351 . S
O58 C61 1.244 . S
O59 Co33 2.155 . S
O59 C61 1.240 . S
O60 Co33 2.096 . S
O60 C41 1.247 . S
C61 O58 1.244 . S
C61 O59 1.240 . S
H62 C36 0.931 . S
H63 C45 0.931 . S
H64 C49 0.929 . S
H65 C51 0.930 . S
Co66 N70 2.148 . S
Co66 N76 2.128 . S
Co66 N86 2.194 . S
Co66 O91 2.351 . S
Co66 O92 2.155 . S
Co66 O93 2.096 . S
C67 N70 1.301 . S
C67 N71 1.328 . S
C67 H72 0.930 . S
C68 C69 1.333 . S
C68 N70 1.317 . S
C68 H73 0.930 . S
C69 C68 1.333 . S
C69 N71 1.350 . S
C69 H95 0.931 1_565 S
N70 Co66 2.148 . S
N70 C67 1.301 . S
N70 C68 1.317 . S
N71 C67 1.328 . S
N71 C69 1.350 . S
H72 C67 0.930 . S
H73 C68 0.930 . S
C74 O75 1.224 . S
C74 O93 1.247 . S
O75 C74 1.224 . S
N76 Co66 2.128 . S
N76 C77 1.355 . S
N76 C79 1.311 . S
C77 N76 1.355 . S
C77 C78 1.363 . S
C77 H89 0.929 . S
C78 C77 1.363 . S
C78 N80 1.375 . S
C78 H96 0.931 . S
C79 N76 1.311 . S
C79 N80 1.347 . S
C79 H90 0.929 . S
N80 C78 1.375 . S
N80 C79 1.347 . S
C81 C84 1.365 . S
C81 N86 1.328 . S
C81 H87 0.929 . S
C82 C83 1.362 . S
C82 C85 1.378 . S
C82 H97 0.929 . S
C83 C82 1.362 . S
C83 C84 1.366 . S
C84 C81 1.365 . S
C84 C83 1.366 . S
C84 H98 0.930 . S
C85 C82 1.378 . S
C85 N86 1.315 . S
C85 H88 0.930 . S
N86 Co66 2.194 . S
N86 C81 1.328 . S
N86 C85 1.315 . S
H87 C81 0.929 . S
H88 C85 0.930 . S
H89 C77 0.929 . S
H90 C79 0.929 . S
O91 Co66 2.351 . S
O91 C94 1.244 . S
O92 Co66 2.155 . S
O92 C94 1.240 . S
O93 Co66 2.096 . S
O93 C74 1.247 . S
C94 O91 1.244 . S
C94 O92 1.240 . S
H95 C69 0.931 1_545 S
H96 C78 0.931 . S
H97 C82 0.929 . S
H98 C84 0.930 . S
Co99 N103 2.148 . S
Co99 N109 2.128 . S
Co99 N119 2.194 . S
Co99 O124 2.351 . S
Co99 O125 2.155 . S
Co99 O126 2.096 . S
C100 N103 1.301 . S
C100 N104 1.328 . S
C100 H105 0.930 . S
C101 C102 1.333 . S
C101 N103 1.317 . S
C101 H106 0.930 . S
C102 C101 1.333 . S
C102 N104 1.350 . S
C102 H128 0.931 . S
N103 Co99 2.148 . S
N103 C100 1.301 . S
N103 C101 1.317 . S
N104 C100 1.328 . S
N104 C102 1.350 . S
H105 C100 0.930 . S
H106 C101 0.930 . S
C107 O108 1.224 . S
C107 O126 1.247 . S
O108 C107 1.224 . S
N109 Co99 2.128 . S
N109 C110 1.355 . S
N109 C112 1.311 . S
C110 N109 1.355 . S
C110 C111 1.363 . S
C110 H122 0.929 . S
C111 C110 1.363 . S
C111 N113 1.375 . S
C111 H129 0.931 . S
C112 N109 1.311 . S
C112 N113 1.347 . S
C112 H123 0.929 . S
N113 C111 1.375 . S
N113 C112 1.347 . S
C114 C117 1.365 . S
C114 N119 1.328 . S
C114 H120 0.929 . S
C115 C116 1.362 . S
C115 C118 1.378 . S
C115 H130 0.929 . S
C116 C115 1.362 . S
C116 C117 1.366 . S
C117 C114 1.365 . S
C117 C116 1.366 . S
C117 H131 0.930 . S
C118 C115 1.378 . S
C118 N119 1.315 . S
C118 H121 0.930 . S
N119 Co99 2.194 . S
N119 C114 1.328 . S
N119 C118 1.315 . S
H120 C114 0.929 . S
H121 C118 0.930 . S
H122 C110 0.929 . S
H123 C112 0.929 . S
O124 Co99 2.351 . S
O124 C127 1.244 . S
O125 Co99 2.155 . S
O125 C127 1.240 . S
O126 Co99 2.096 . S
O126 C107 1.247 . S
C127 O124 1.244 . S
C127 O125 1.240 . S
H128 C102 0.931 . S
H129 C111 0.931 . S
H130 C115 0.929 . S
H131 C117 0.930 . S
Co132 N136 2.148 . S
Co132 N142 2.128 . S
Co132 N152 2.194 . S
Co132 O157 2.351 . S
Co132 O158 2.155 . S
Co132 O159 2.096 . S
C133 N136 1.301 . S
C133 N137 1.328 . S
C133 H138 0.930 . S
C134 C135 1.333 . S
C134 N136 1.317 . S
C134 H139 0.930 . S
C135 C134 1.333 . S
C135 N137 1.350 . S
C135 H161 0.931 1_565 S
N136 Co132 2.148 . S
N136 C133 1.301 . S
N136 C134 1.317 . S
N137 C133 1.328 . S
N137 C135 1.350 . S
H138 C133 0.930 . S
H139 C134 0.930 . S
C140 O141 1.224 . S
C140 O159 1.247 . S
O141 C140 1.224 . S
N142 Co132 2.128 . S
N142 C143 1.355 . S
N142 C145 1.311 . S
C143 N142 1.355 . S
C143 C144 1.363 . S
C143 H155 0.929 . S
C144 C143 1.363 . S
C144 N146 1.375 . S
C144 H162 0.931 . S
C145 N142 1.311 . S
C145 N146 1.347 . S
C145 H156 0.929 . S
N146 C144 1.375 . S
N146 C145 1.347 . S
C147 C150 1.365 . S
C147 N152 1.328 . S
C147 H153 0.929 . S
C148 C149 1.362 . S
C148 C151 1.378 . S
C148 H163 0.929 . S
C149 C148 1.362 . S
C149 C150 1.366 . S
C150 C147 1.365 . S
C150 C149 1.366 . S
C150 H164 0.930 . S
C151 C148 1.378 . S
C151 N152 1.315 . S
C151 H154 0.930 . S
N152 Co132 2.194 . S
N152 C147 1.328 . S
N152 C151 1.315 . S
H153 C147 0.929 . S
H154 C151 0.930 . S
H155 C143 0.929 . S
H156 C145 0.929 . S
O157 Co132 2.351 . S
O157 C160 1.244 . S
O158 Co132 2.155 . S
O158 C160 1.240 . S
O159 Co132 2.096 . S
O159 C140 1.247 . S
C160 O157 1.244 . S
C160 O158 1.240 . S
H161 C135 0.931 1_545 S
H162 C144 0.931 . S
H163 C148 0.929 . S
H164 C150 0.930 . S
Co165 N169 2.148 . S
Co165 N175 2.128 . S
Co165 N185 2.194 . S
Co165 O190 2.351 . S
Co165 O191 2.155 . S
Co165 O192 2.096 . S
C166 N169 1.301 . S
C166 N170 1.328 . S
C166 H171 0.930 . S
C167 C168 1.333 . S
C167 N169 1.317 . S
C167 H172 0.930 . S
C168 C167 1.333 . S
C168 N170 1.350 . S
C168 H194 0.931 . S
N169 Co165 2.148 . S
N169 C166 1.301 . S
N169 C167 1.317 . S
N170 C166 1.328 . S
N170 C168 1.350 . S
H171 C166 0.930 . S
H172 C167 0.930 . S
C173 O174 1.224 . S
C173 O192 1.247 . S
O174 C173 1.224 . S
N175 Co165 2.128 . S
N175 C176 1.355 . S
N175 C178 1.311 . S
C176 N175 1.355 . S
C176 C177 1.363 . S
C176 H188 0.929 . S
C177 C176 1.363 . S
C177 N179 1.375 . S
C177 H195 0.931 . S
C178 N175 1.311 . S
C178 N179 1.347 . S
C178 H189 0.929 . S
N179 C177 1.375 . S
N179 C178 1.347 . S
C180 C183 1.365 . S
C180 N185 1.328 . S
C180 H186 0.929 . S
C181 C182 1.362 . S
C181 C184 1.378 . S
C181 H196 0.929 . S
C182 C181 1.362 . S
C182 C183 1.366 . S
C183 C180 1.365 . S
C183 C182 1.366 . S
C183 H197 0.930 . S
C184 C181 1.378 . S
C184 N185 1.315 . S
C184 H187 0.930 . S
N185 Co165 2.194 . S
N185 C180 1.328 . S
N185 C184 1.315 . S
H186 C180 0.929 . S
H187 C184 0.930 . S
H188 C176 0.929 . S
H189 C178 0.929 . S
O190 Co165 2.351 . S
O190 C193 1.244 . S
O191 Co165 2.155 . S
O191 C193 1.240 . S
O192 Co165 2.096 . S
O192 C173 1.247 . S
C193 O190 1.244 . S
C193 O191 1.240 . S
H194 C168 0.931 . S
H195 C177 0.931 . S
H196 C181 0.929 . S
H197 C183 0.930 . S
Co198 N202 2.148 . S
Co198 N208 2.128 . S
Co198 N218 2.194 . S
Co198 O223 2.351 . S
Co198 O224 2.155 . S
Co198 O225 2.096 . S
C199 N202 1.301 . S
C199 N203 1.328 . S
C199 H204 0.930 . S
C200 C201 1.333 . S
C200 N202 1.317 . S
C200 H205 0.930 . S
C201 C200 1.333 . S
C201 N203 1.350 . S
C201 H227 0.931 1_545 S
N202 Co198 2.148 . S
N202 C199 1.301 . S
N202 C200 1.317 . S
N203 C199 1.328 . S
N203 C201 1.350 . S
H204 C199 0.930 . S
H205 C200 0.930 . S
C206 O207 1.224 . S
C206 O225 1.247 . S
O207 C206 1.224 . S
N208 Co198 2.128 . S
N208 C209 1.355 . S
N208 C211 1.311 . S
C209 N208 1.355 . S
C209 C210 1.363 . S
C209 H221 0.929 . S
C210 C209 1.363 . S
C210 N212 1.375 . S
C210 H228 0.931 . S
C211 N208 1.311 . S
C211 N212 1.347 . S
C211 H222 0.929 . S
N212 C210 1.375 . S
N212 C211 1.347 . S
C213 C216 1.365 . S
C213 N218 1.328 . S
C213 H219 0.929 . S
C214 C215 1.362 . S
C214 C217 1.378 . S
C214 H229 0.929 . S
C215 C214 1.362 . S
C215 C216 1.366 . S
C216 C213 1.365 . S
C216 C215 1.366 . S
C216 H230 0.930 . S
C217 C214 1.378 . S
C217 N218 1.315 . S
C217 H220 0.930 . S
N218 Co198 2.194 . S
N218 C213 1.328 . S
N218 C217 1.315 . S
H219 C213 0.929 . S
H220 C217 0.930 . S
H221 C209 0.929 . S
H222 C211 0.929 . S
O223 Co198 2.351 . S
O223 C226 1.244 . S
O224 Co198 2.155 . S
O224 C226 1.240 . S
O225 Co198 2.096 . S
O225 C206 1.247 . S
C226 O223 1.244 . S
C226 O224 1.240 . S
H227 C201 0.931 1_565 S
H228 C210 0.931 . S
H229 C214 0.929 . S
H230 C216 0.930 . S
Co231 N235 2.148 . S
Co231 N241 2.128 . S
Co231 N251 2.194 . S
Co231 O256 2.351 . S
Co231 O257 2.155 . S
Co231 O258 2.096 . S
C232 N235 1.301 . S
C232 N236 1.328 . S
C232 H237 0.930 . S
C233 C234 1.333 . S
C233 N235 1.317 . S
C233 H238 0.930 . S
C234 C233 1.333 . S
C234 N236 1.350 . S
C234 H260 0.931 . S
N235 Co231 2.148 . S
N235 C232 1.301 . S
N235 C233 1.317 . S
N236 C232 1.328 . S
N236 C234 1.350 . S
H237 C232 0.930 . S
H238 C233 0.930 . S
C239 O240 1.224 . S
C239 O258 1.247 . S
O240 C239 1.224 . S
N241 Co231 2.128 . S
N241 C242 1.355 . S
N241 C244 1.311 . S
C242 N241 1.355 . S
C242 C243 1.363 . S
C242 H254 0.929 . S
C243 C242 1.363 . S
C243 N245 1.375 . S
C243 H261 0.931 . S
C244 N241 1.311 . S
C244 N245 1.347 . S
C244 H255 0.929 . S
N245 C243 1.375 . S
N245 C244 1.347 . S
C246 C249 1.365 . S
C246 N251 1.328 . S
C246 H252 0.929 . S
C247 C248 1.362 . S
C247 C250 1.378 . S
C247 H262 0.929 . S
C248 C247 1.362 . S
C248 C249 1.366 . S
C249 C246 1.365 . S
C249 C248 1.366 . S
C249 H263 0.930 . S
C250 C247 1.378 . S
C250 N251 1.315 . S
C250 H253 0.930 . S
N251 Co231 2.194 . S
N251 C246 1.328 . S
N251 C250 1.315 . S
H252 C246 0.929 . S
H253 C250 0.930 . S
H254 C242 0.929 . S
H255 C244 0.929 . S
O256 Co231 2.351 . S
O256 C259 1.244 . S
O257 Co231 2.155 . S
O257 C259 1.240 . S
O258 Co231 2.096 . S
O258 C239 1.247 . S
C259 O256 1.244 . S
C259 O257 1.240 . S
H260 C234 0.931 . S
H261 C243 0.931 . S
H262 C247 0.929 . S
H263 C249 0.930 . S
Co264 N268 2.148 . S
Co264 N274 2.128 . S
Co264 N284 2.194 . S
Co264 O289 2.351 . S
Co264 O290 2.155 . S
Co264 O291 2.096 . S
C265 N268 1.301 . S
C265 N269 1.328 . S
C265 H270 0.930 . S
C266 C267 1.333 . S
C266 N268 1.317 . S
C266 H271 0.930 . S
C267 C266 1.333 . S
C267 N269 1.350 . S
C267 H293 0.931 1_565 S
N268 Co264 2.148 . S
N268 C265 1.301 . S
N268 C266 1.317 . S
N269 C265 1.328 . S
N269 C267 1.350 . S
H270 C265 0.930 . S
H271 C266 0.930 . S
C272 O273 1.224 . S
C272 O291 1.247 . S
O273 C272 1.224 . S
N274 Co264 2.128 . S
N274 C275 1.355 . S
N274 C277 1.311 . S
C275 N274 1.355 . S
C275 C276 1.363 . S
C275 H287 0.929 . S
C276 C275 1.363 . S
C276 N278 1.375 . S
C276 H294 0.931 . S
C277 N274 1.311 . S
C277 N278 1.347 . S
C277 H288 0.929 . S
N278 C276 1.375 . S
N278 C277 1.347 . S
C279 C282 1.365 . S
C279 N284 1.328 . S
C279 H285 0.929 . S
C280 C281 1.362 . S
C280 C283 1.378 . S
C280 H295 0.929 . S
C281 C280 1.362 . S
C281 C282 1.366 . S
C282 C279 1.365 . S
C282 C281 1.366 . S
C282 H296 0.930 . S
C283 C280 1.378 . S
C283 N284 1.315 . S
C283 H286 0.930 . S
N284 Co264 2.194 . S
N284 C279 1.328 . S
N284 C283 1.315 . S
H285 C279 0.929 . S
H286 C283 0.930 . S
H287 C275 0.929 . S
H288 C277 0.929 . S
O289 Co264 2.351 . S
O289 C292 1.244 . S
O290 Co264 2.155 . S
O290 C292 1.240 . S
O291 Co264 2.096 . S
O291 C272 1.247 . S
C292 O289 1.244 . S
C292 O290 1.240 . S
H293 C267 0.931 1_545 S
H294 C276 0.931 . S
H295 C280 0.929 . S
H296 C282 0.930 . S
Co297 N301 2.148 . S
Co297 N307 2.128 . S
Co297 N317 2.194 . S
Co297 O322 2.351 . S
Co297 O323 2.155 . S
Co297 O324 2.096 . S
C298 N301 1.301 . S
C298 N302 1.328 . S
C298 H303 0.930 . S
C299 C300 1.333 . S
C299 N301 1.317 . S
C299 H304 0.930 . S
C300 C299 1.333 . S
C300 N302 1.350 . S
C300 H326 0.931 . S
N301 Co297 2.148 . S
N301 C298 1.301 . S
N301 C299 1.317 . S
N302 C298 1.328 . S
N302 C300 1.350 . S
H303 C298 0.930 . S
H304 C299 0.930 . S
C305 O306 1.224 . S
C305 O324 1.247 . S
O306 C305 1.224 . S
N307 Co297 2.128 . S
N307 C308 1.355 . S
N307 C310 1.311 . S
C308 N307 1.355 . S
C308 C309 1.363 . S
C308 H320 0.929 . S
C309 C308 1.363 . S
C309 N311 1.375 . S
C309 H327 0.931 . S
C310 N307 1.311 . S
C310 N311 1.347 . S
C310 H321 0.929 . S
N311 C309 1.375 . S
N311 C310 1.347 . S
C312 C315 1.365 . S
C312 N317 1.328 . S
C312 H318 0.929 . S
C313 C314 1.362 . S
C313 C316 1.378 . S
C313 H328 0.929 . S
C314 C313 1.362 . S
C314 C315 1.366 . S
C315 C312 1.365 . S
C315 C314 1.366 . S
C315 H329 0.930 . S
C316 C313 1.378 . S
C316 N317 1.315 . S
C316 H319 0.930 . S
N317 Co297 2.194 . S
N317 C312 1.328 . S
N317 C316 1.315 . S
H318 C312 0.929 . S
H319 C316 0.930 . S
H320 C308 0.929 . S
H321 C310 0.929 . S
O322 Co297 2.351 . S
O322 C325 1.244 . S
O323 Co297 2.155 . S
O323 C325 1.240 . S
O324 Co297 2.096 . S
O324 C305 1.247 . S
C325 O322 1.244 . S
C325 O323 1.240 . S
H326 C300 0.931 . S
H327 C309 0.931 . S
H328 C313 0.929 . S
H329 C315 0.930 . S
Co330 N334 2.148 . S
Co330 N340 2.128 . S
Co330 N350 2.194 . S
Co330 O355 2.351 . S
Co330 O356 2.155 . S
Co330 O357 2.096 . S
C331 N334 1.301 . S
C331 N335 1.328 . S
C331 H336 0.930 . S
C332 C333 1.333 . S
C332 N334 1.317 . S
C332 H337 0.930 . S
C333 C332 1.333 . S
C333 N335 1.350 . S
C333 H359 0.931 1_545 S
N334 Co330 2.148 . S
N334 C331 1.301 . S
N334 C332 1.317 . S
N335 C331 1.328 . S
N335 C333 1.350 . S
H336 C331 0.930 . S
H337 C332 0.930 . S
C338 O339 1.224 . S
C338 O357 1.247 . S
O339 C338 1.224 . S
N340 Co330 2.128 . S
N340 C341 1.355 . S
N340 C343 1.311 . S
C341 N340 1.355 . S
C341 C342 1.363 . S
C341 H353 0.929 . S
C342 C341 1.363 . S
C342 N344 1.375 . S
C342 H360 0.931 . S
C343 N340 1.311 . S
C343 N344 1.347 . S
C343 H354 0.929 . S
N344 C342 1.375 . S
N344 C343 1.347 . S
C345 C348 1.365 . S
C345 N350 1.328 . S
C345 H351 0.929 . S
C346 C347 1.362 . S
C346 C349 1.378 . S
C346 H361 0.929 . S
C347 C346 1.362 . S
C347 C348 1.366 . S
C348 C345 1.365 . S
C348 C347 1.366 . S
C348 H362 0.930 . S
C349 C346 1.378 . S
C349 N350 1.315 . S
C349 H352 0.930 . S
N350 Co330 2.194 . S
N350 C345 1.328 . S
N350 C349 1.315 . S
H351 C345 0.929 . S
H352 C349 0.930 . S
H353 C341 0.929 . S
H354 C343 0.929 . S
O355 Co330 2.351 . S
O355 C358 1.244 . S
O356 Co330 2.155 . S
O356 C358 1.240 . S
O357 Co330 2.096 . S
O357 C338 1.247 . S
C358 O355 1.244 . S
C358 O356 1.240 . S
H359 C333 0.931 1_565 S
H360 C342 0.931 . S
H361 C346 0.929 . S
H362 C348 0.930 . S
Co363 N367 2.148 . S
Co363 N373 2.128 . S
Co363 N383 2.194 . S
Co363 O388 2.351 . S
Co363 O389 2.155 . S
Co363 O390 2.096 . S
C364 N367 1.301 . S
C364 N368 1.328 . S
C364 H369 0.930 . S
C365 C366 1.333 . S
C365 N367 1.317 . S
C365 H370 0.930 . S
C366 C365 1.333 . S
C366 N368 1.350 . S
C366 H392 0.931 . S
N367 Co363 2.148 . S
N367 C364 1.301 . S
N367 C365 1.317 . S
N368 C364 1.328 . S
N368 C366 1.350 . S
H369 C364 0.930 . S
H370 C365 0.930 . S
C371 O372 1.224 . S
C371 O390 1.247 . S
O372 C371 1.224 . S
N373 Co363 2.128 . S
N373 C374 1.355 . S
N373 C376 1.311 . S
C374 N373 1.355 . S
C374 C375 1.363 . S
C374 H386 0.929 . S
C375 C374 1.363 . S
C375 N377 1.375 . S
C375 H393 0.931 . S
C376 N373 1.311 . S
C376 N377 1.347 . S
C376 H387 0.929 . S
N377 C375 1.375 . S
N377 C376 1.347 . S
C378 C381 1.365 . S
C378 N383 1.328 . S
C378 H384 0.929 . S
C379 C380 1.362 . S
C379 C382 1.378 . S
C379 H394 0.929 . S
C380 C379 1.362 . S
C380 C381 1.366 . S
C381 C378 1.365 . S
C381 C380 1.366 . S
C381 H395 0.930 . S
C382 C379 1.378 . S
C382 N383 1.315 . S
C382 H385 0.930 . S
N383 Co363 2.194 . S
N383 C378 1.328 . S
N383 C382 1.315 . S
H384 C378 0.929 . S
H385 C382 0.930 . S
H386 C374 0.929 . S
H387 C376 0.929 . S
O388 Co363 2.351 . S
O388 C391 1.244 . S
O389 Co363 2.155 . S
O389 C391 1.240 . S
O390 Co363 2.096 . S
O390 C371 1.247 . S
C391 O388 1.244 . S
C391 O389 1.240 . S
H392 C366 0.931 . S
H393 C375 0.931 . S
H394 C379 0.929 . S
H395 C381 0.930 . S
Co396 N400 2.148 . S
Co396 N406 2.128 . S
Co396 N416 2.194 . S
Co396 O421 2.351 . S
Co396 O422 2.155 . S
Co396 O423 2.096 . S
C397 N400 1.301 . S
C397 N401 1.328 . S
C397 H402 0.930 . S
C398 C399 1.333 . S
C398 N400 1.317 . S
C398 H403 0.930 . S
C399 C398 1.333 . S
C399 N401 1.350 . S
C399 H425 0.931 1_545 S
N400 Co396 2.148 . S
N400 C397 1.301 . S
N400 C398 1.317 . S
N401 C397 1.328 . S
N401 C399 1.350 . S
H402 C397 0.930 . S
H403 C398 0.930 . S
C404 O405 1.224 . S
C404 O423 1.247 . S
O405 C404 1.224 . S
N406 Co396 2.128 . S
N406 C407 1.355 . S
N406 C409 1.311 . S
C407 N406 1.355 . S
C407 C408 1.363 . S
C407 H419 0.929 . S
C408 C407 1.363 . S
C408 N410 1.375 . S
C408 H426 0.931 . S
C409 N406 1.311 . S
C409 N410 1.347 . S
C409 H420 0.929 . S
N410 C408 1.375 . S
N410 C409 1.347 . S
C411 C414 1.365 . S
C411 N416 1.328 . S
C411 H417 0.929 . S
C412 C413 1.362 . S
C412 C415 1.378 . S
C412 H427 0.929 . S
C413 C412 1.362 . S
C413 C414 1.366 . S
C414 C411 1.365 . S
C414 C413 1.366 . S
C414 H428 0.930 . S
C415 C412 1.378 . S
C415 N416 1.315 . S
C415 H418 0.930 . S
N416 Co396 2.194 . S
N416 C411 1.328 . S
N416 C415 1.315 . S
H417 C411 0.929 . S
H418 C415 0.930 . S
H419 C407 0.929 . S
H420 C409 0.929 . S
O421 Co396 2.351 . S
O421 C424 1.244 . S
O422 Co396 2.155 . S
O422 C424 1.240 . S
O423 Co396 2.096 . S
O423 C404 1.247 . S
C424 O421 1.244 . S
C424 O422 1.240 . S
H425 C399 0.931 1_565 S
H426 C408 0.931 . S
H427 C412 0.929 . S
H428 C414 0.930 . S
Co429 N433 2.148 . S
Co429 N439 2.128 . S
Co429 N449 2.194 . S
Co429 O454 2.351 . S
Co429 O455 2.155 . S
Co429 O456 2.096 . S
C430 N433 1.301 . S
C430 N434 1.328 . S
C430 H435 0.930 . S
C431 C432 1.333 . S
C431 N433 1.317 . S
C431 H436 0.930 . S
C432 C431 1.333 . S
C432 N434 1.350 . S
C432 H458 0.931 . S
N433 Co429 2.148 . S
N433 C430 1.301 . S
N433 C431 1.317 . S
N434 C430 1.328 . S
N434 C432 1.350 . S
H435 C430 0.930 . S
H436 C431 0.930 . S
C437 O438 1.224 . S
C437 O456 1.247 . S
O438 C437 1.224 . S
N439 Co429 2.128 . S
N439 C440 1.355 . S
N439 C442 1.311 . S
C440 N439 1.355 . S
C440 C441 1.363 . S
C440 H452 0.929 . S
C441 C440 1.363 . S
C441 N443 1.375 . S
C441 H459 0.931 . S
C442 N439 1.311 . S
C442 N443 1.347 . S
C442 H453 0.929 . S
N443 C441 1.375 . S
N443 C442 1.347 . S
C444 C447 1.365 . S
C444 N449 1.328 . S
C444 H450 0.929 . S
C445 C446 1.362 . S
C445 C448 1.378 . S
C445 H460 0.929 . S
C446 C445 1.362 . S
C446 C447 1.366 . S
C447 C444 1.365 . S
C447 C446 1.366 . S
C447 H461 0.930 . S
C448 C445 1.378 . S
C448 N449 1.315 . S
C448 H451 0.930 . S
N449 Co429 2.194 . S
N449 C444 1.328 . S
N449 C448 1.315 . S
H450 C444 0.929 . S
H451 C448 0.930 . S
H452 C440 0.929 . S
H453 C442 0.929 . S
O454 Co429 2.351 . S
O454 C457 1.244 . S
O455 Co429 2.155 . S
O455 C457 1.240 . S
O456 Co429 2.096 . S
O456 C437 1.247 . S
C457 O454 1.244 . S
C457 O455 1.240 . S
H458 C432 0.931 . S
H459 C441 0.931 . S
H460 C445 0.929 . S
H461 C447 0.930 . S
Co462 N466 2.148 . S
Co462 N472 2.128 . S
Co462 N482 2.194 . S
Co462 O487 2.351 . S
Co462 O488 2.155 . S
Co462 O489 2.096 . S
C463 N466 1.301 . S
C463 N467 1.328 . S
C463 H468 0.930 . S
C464 C465 1.333 . S
C464 N466 1.317 . S
C464 H469 0.930 . S
C465 C464 1.333 . S
C465 N467 1.350 . S
C465 H491 0.931 1_565 S
N466 Co462 2.148 . S
N466 C463 1.301 . S
N466 C464 1.317 . S
N467 C463 1.328 . S
N467 C465 1.350 . S
H468 C463 0.930 . S
H469 C464 0.930 . S
C470 O471 1.224 . S
C470 O489 1.247 . S
O471 C470 1.224 . S
N472 Co462 2.128 . S
N472 C473 1.355 . S
N472 C475 1.311 . S
C473 N472 1.355 . S
C473 C474 1.363 . S
C473 H485 0.929 . S
C474 C473 1.363 . S
C474 N476 1.375 . S
C474 H492 0.931 . S
C475 N472 1.311 . S
C475 N476 1.347 . S
C475 H486 0.929 . S
N476 C474 1.375 . S
N476 C475 1.347 . S
C477 C480 1.365 . S
C477 N482 1.328 . S
C477 H483 0.929 . S
C478 C479 1.362 . S
C478 C481 1.378 . S
C478 H493 0.929 . S
C479 C478 1.362 . S
C479 C480 1.366 . S
C480 C477 1.365 . S
C480 C479 1.366 . S
C480 H494 0.930 . S
C481 C478 1.378 . S
C481 N482 1.315 . S
C481 H484 0.930 . S
N482 Co462 2.194 . S
N482 C477 1.328 . S
N482 C481 1.315 . S
H483 C477 0.929 . S
H484 C481 0.930 . S
H485 C473 0.929 . S
H486 C475 0.929 . S
O487 Co462 2.351 . S
O487 C490 1.244 . S
O488 Co462 2.155 . S
O488 C490 1.240 . S
O489 Co462 2.096 . S
O489 C470 1.247 . S
C490 O487 1.244 . S
C490 O488 1.240 . S
H491 C465 0.931 1_545 S
H492 C474 0.931 . S
H493 C478 0.929 . S
H494 C480 0.930 . S
Co495 N499 2.148 . S
Co495 N505 2.128 . S
Co495 N515 2.194 . S
Co495 O520 2.351 . S
Co495 O521 2.155 . S
Co495 O522 2.096 . S
C496 N499 1.301 . S
C496 N500 1.328 . S
C496 H501 0.930 . S
C497 C498 1.333 . S
C497 N499 1.317 . S
C497 H502 0.930 . S
C498 C497 1.333 . S
C498 N500 1.350 . S
C498 H524 0.931 . S
N499 Co495 2.148 . S
N499 C496 1.301 . S
N499 C497 1.317 . S
N500 C496 1.328 . S
N500 C498 1.350 . S
H501 C496 0.930 . S
H502 C497 0.930 . S
C503 O504 1.224 . S
C503 O522 1.247 . S
O504 C503 1.224 . S
N505 Co495 2.128 . S
N505 C506 1.355 . S
N505 C508 1.311 . S
C506 N505 1.355 . S
C506 C507 1.363 . S
C506 H518 0.929 . S
C507 C506 1.363 . S
C507 N509 1.375 . S
C507 H525 0.931 . S
C508 N505 1.311 . S
C508 N509 1.347 . S
C508 H519 0.929 . S
N509 C507 1.375 . S
N509 C508 1.347 . S
C510 C513 1.365 . S
C510 N515 1.328 . S
C510 H516 0.929 . S
C511 C512 1.362 . S
C511 C514 1.378 . S
C511 H526 0.929 . S
C512 C511 1.362 . S
C512 C513 1.366 . S
C513 C510 1.365 . S
C513 C512 1.366 . S
C513 H527 0.930 . S
C514 C511 1.378 . S
C514 N515 1.315 . S
C514 H517 0.930 . S
N515 Co495 2.194 . S
N515 C510 1.328 . S
N515 C514 1.315 . S
H516 C510 0.929 . S
H517 C514 0.930 . S
H518 C506 0.929 . S
H519 C508 0.929 . S
O520 Co495 2.351 . S
O520 C523 1.244 . S
O521 Co495 2.155 . S
O521 C523 1.240 . S
O522 Co495 2.096 . S
O522 C503 1.247 . S
C523 O520 1.244 . S
C523 O521 1.240 . S
H524 C498 0.931 . S
H525 C507 0.931 . S
H526 C511 0.929 . S
H527 C513 0.930 . S
Co528 N532 2.148 . S
Co528 N538 2.128 . S
Co528 N548 2.194 . S
Co528 O553 2.351 . S
Co528 O554 2.155 . S
Co528 O555 2.096 . S
C529 N532 1.301 . S
C529 N533 1.328 . S
C529 H534 0.930 . S
C530 C531 1.333 . S
C530 N532 1.317 . S
C530 H535 0.930 . S
C531 C530 1.333 . S
C531 N533 1.350 . S
C531 H557 0.931 . S
N532 Co528 2.148 . S
N532 C529 1.301 . S
N532 C530 1.317 . S
N533 C529 1.328 . S
N533 C531 1.350 . S
H534 C529 0.930 . S
H535 C530 0.930 . S
C536 O537 1.224 . S
C536 O555 1.247 . S
O537 C536 1.224 . S
N538 Co528 2.128 . S
N538 C539 1.355 . S
N538 C541 1.311 . S
C539 N538 1.355 . S
C539 C540 1.363 . S
C539 H551 0.929 . S
C540 C539 1.363 . S
C540 N542 1.375 . S
C540 H558 0.931 . S
C541 N538 1.311 . S
C541 N542 1.347 . S
C541 H552 0.929 . S
N542 C540 1.375 . S
N542 C541 1.347 . S
C543 C546 1.365 . S
C543 N548 1.328 . S
C543 H549 0.929 . S
C544 C545 1.362 . S
C544 C547 1.378 . S
C544 H559 0.929 . S
C545 C544 1.362 . S
C545 C546 1.366 . S
C546 C543 1.365 . S
C546 C545 1.366 . S
C546 H560 0.930 . S
C547 C544 1.378 . S
C547 N548 1.315 . S
C547 H550 0.930 . S
N548 Co528 2.194 . S
N548 C543 1.328 . S
N548 C547 1.315 . S
H549 C543 0.929 . S
H550 C547 0.930 . S
H551 C539 0.929 . S
H552 C541 0.929 . S
O553 Co528 2.351 . S
O553 C556 1.244 . S
O554 Co528 2.155 . S
O554 C556 1.240 . S
O555 Co528 2.096 . S
O555 C536 1.247 . S
C556 O553 1.244 . S
C556 O554 1.240 . S
H557 C531 0.931 . S
H558 C540 0.931 . S
H559 C544 0.929 . S
H560 C546 0.930 . S
Co561 N565 2.148 . S
Co561 N571 2.128 . S
Co561 N581 2.194 . S
Co561 O586 2.351 . S
Co561 O587 2.155 . S
Co561 O588 2.096 . S
C562 N565 1.301 . S
C562 N566 1.328 . S
C562 H567 0.930 . S
C563 C564 1.333 . S
C563 N565 1.317 . S
C563 H568 0.930 . S
C564 C563 1.333 . S
C564 N566 1.350 . S
C564 H590 0.931 . S
N565 Co561 2.148 . S
N565 C562 1.301 . S
N565 C563 1.317 . S
N566 C562 1.328 . S
N566 C564 1.350 . S
H567 C562 0.930 . S
H568 C563 0.930 . S
C569 O570 1.224 . S
C569 O588 1.247 . S
O570 C569 1.224 . S
N571 Co561 2.128 . S
N571 C572 1.355 . S
N571 C574 1.311 . S
C572 N571 1.355 . S
C572 C573 1.363 . S
C572 H584 0.929 . S
C573 C572 1.363 . S
C573 N575 1.375 . S
C573 H591 0.931 . S
C574 N571 1.311 . S
C574 N575 1.347 . S
C574 H585 0.929 . S
N575 C573 1.375 . S
N575 C574 1.347 . S
C576 C579 1.365 . S
C576 N581 1.328 . S
C576 H582 0.929 . S
C577 C578 1.362 . S
C577 C580 1.378 . S
C577 H592 0.929 . S
C578 C577 1.362 . S
C578 C579 1.366 . S
C579 C576 1.365 . S
C579 C578 1.366 . S
C579 H593 0.930 . S
C580 C577 1.378 . S
C580 N581 1.315 . S
C580 H583 0.930 . S
N581 Co561 2.194 . S
N581 C576 1.328 . S
N581 C580 1.315 . S
H582 C576 0.929 . S
H583 C580 0.930 . S
H584 C572 0.929 . S
H585 C574 0.929 . S
O586 Co561 2.351 . S
O586 C589 1.244 . S
O587 Co561 2.155 . S
O587 C589 1.240 . S
O588 Co561 2.096 . S
O588 C569 1.247 . S
C589 O586 1.244 . S
C589 O587 1.240 . S
H590 C564 0.931 . S
H591 C573 0.931 . S
H592 C577 0.929 . S
H593 C579 0.930 . S
Co594 N598 2.148 . S
Co594 N604 2.128 . S
Co594 N614 2.194 . S
Co594 O619 2.351 . S
Co594 O620 2.155 . S
Co594 O621 2.096 . S
C595 N598 1.301 . S
C595 N599 1.328 . S
C595 H600 0.930 . S
C596 C597 1.333 . S
C596 N598 1.317 . S
C596 H601 0.930 . S
C597 C596 1.333 . S
C597 N599 1.350 . S
C597 H623 0.931 . S
N598 Co594 2.148 . S
N598 C595 1.301 . S
N598 C596 1.317 . S
N599 C595 1.328 . S
N599 C597 1.350 . S
H600 C595 0.930 . S
H601 C596 0.930 . S
C602 O603 1.224 . S
C602 O621 1.247 . S
O603 C602 1.224 . S
N604 Co594 2.128 . S
N604 C605 1.355 . S
N604 C607 1.311 . S
C605 N604 1.355 . S
C605 C606 1.363 . S
C605 H617 0.929 . S
C606 C605 1.363 . S
C606 N608 1.375 . S
C606 H624 0.931 . S
C607 N604 1.311 . S
C607 N608 1.347 . S
C607 H618 0.929 . S
N608 C606 1.375 . S
N608 C607 1.347 . S
C609 C612 1.365 . S
C609 N614 1.328 . S
C609 H615 0.929 . S
C610 C611 1.362 . S
C610 C613 1.378 . S
C610 H625 0.929 . S
C611 C610 1.362 . S
C611 C612 1.366 . S
C612 C609 1.365 . S
C612 C611 1.366 . S
C612 H626 0.930 . S
C613 C610 1.378 . S
C613 N614 1.315 . S
C613 H616 0.930 . S
N614 Co594 2.194 . S
N614 C609 1.328 . S
N614 C613 1.315 . S
H615 C609 0.929 . S
H616 C613 0.930 . S
H617 C605 0.929 . S
H618 C607 0.929 . S
O619 Co594 2.351 . S
O619 C622 1.244 . S
O620 Co594 2.155 . S
O620 C622 1.240 . S
O621 Co594 2.096 . S
O621 C602 1.247 . S
C622 O619 1.244 . S
C622 O620 1.240 . S
H623 C597 0.931 . S
H624 C606 0.931 . S
H625 C610 0.929 . S
H626 C612 0.930 . S
Co627 N631 2.148 . S
Co627 N637 2.128 . S
Co627 N647 2.194 . S
Co627 O652 2.351 . S
Co627 O653 2.155 . S
Co627 O654 2.096 . S
C628 N631 1.301 . S
C628 N632 1.328 . S
C628 H633 0.930 . S
C629 C630 1.333 . S
C629 N631 1.317 . S
C629 H634 0.930 . S
C630 C629 1.333 . S
C630 N632 1.350 . S
C630 H656 0.931 . S
N631 Co627 2.148 . S
N631 C628 1.301 . S
N631 C629 1.317 . S
N632 C628 1.328 . S
N632 C630 1.350 . S
H633 C628 0.930 . S
H634 C629 0.930 . S
C635 O636 1.224 . S
C635 O654 1.247 . S
O636 C635 1.224 . S
N637 Co627 2.128 . S
N637 C638 1.355 . S
N637 C640 1.311 . S
C638 N637 1.355 . S
C638 C639 1.363 . S
C638 H650 0.929 . S
C639 C638 1.363 . S
C639 N641 1.375 . S
C639 H657 0.931 . S
C640 N637 1.311 . S
C640 N641 1.347 . S
C640 H651 0.929 . S
N641 C639 1.375 . S
N641 C640 1.347 . S
C642 C645 1.365 . S
C642 N647 1.328 . S
C642 H648 0.929 . S
C643 C644 1.362 . S
C643 C646 1.378 . S
C643 H658 0.929 . S
C644 C643 1.362 . S
C644 C645 1.366 . S
C645 C642 1.365 . S
C645 C644 1.366 . S
C645 H659 0.930 . S
C646 C643 1.378 . S
C646 N647 1.315 . S
C646 H649 0.930 . S
N647 Co627 2.194 . S
N647 C642 1.328 . S
N647 C646 1.315 . S
H648 C642 0.929 . S
H649 C646 0.930 . S
H650 C638 0.929 . S
H651 C640 0.929 . S
O652 Co627 2.351 . S
O652 C655 1.244 . S
O653 Co627 2.155 . S
O653 C655 1.240 . S
O654 Co627 2.096 . S
O654 C635 1.247 . S
C655 O652 1.244 . S
C655 O653 1.240 . S
H656 C630 0.931 . S
H657 C639 0.931 . S
H658 C643 0.929 . S
H659 C645 0.930 . S
Co660 N664 2.148 . S
Co660 N670 2.128 . S
Co660 N680 2.194 . S
Co660 O685 2.351 . S
Co660 O686 2.155 . S
Co660 O687 2.096 . S
C661 N664 1.301 . S
C661 N665 1.328 . S
C661 H666 0.930 . S
C662 C663 1.333 . S
C662 N664 1.317 . S
C662 H667 0.930 . S
C663 C662 1.333 . S
C663 N665 1.350 . S
C663 H689 0.931 . S
N664 Co660 2.148 . S
N664 C661 1.301 . S
N664 C662 1.317 . S
N665 C661 1.328 . S
N665 C663 1.350 . S
H666 C661 0.930 . S
H667 C662 0.930 . S
C668 O669 1.224 . S
C668 O687 1.247 . S
O669 C668 1.224 . S
N670 Co660 2.128 . S
N670 C671 1.355 . S
N670 C673 1.311 . S
C671 N670 1.355 . S
C671 C672 1.363 . S
C671 H683 0.929 . S
C672 C671 1.363 . S
C672 N674 1.375 . S
C672 H690 0.931 . S
C673 N670 1.311 . S
C673 N674 1.347 . S
C673 H684 0.929 . S
N674 C672 1.375 . S
N674 C673 1.347 . S
C675 C678 1.365 . S
C675 N680 1.328 . S
C675 H681 0.929 . S
C676 C677 1.362 . S
C676 C679 1.378 . S
C676 H691 0.929 . S
C677 C676 1.362 . S
C677 C678 1.366 . S
C678 C675 1.365 . S
C678 C677 1.366 . S
C678 H692 0.930 . S
C679 C676 1.378 . S
C679 N680 1.315 . S
C679 H682 0.930 . S
N680 Co660 2.194 . S
N680 C675 1.328 . S
N680 C679 1.315 . S
H681 C675 0.929 . S
H682 C679 0.930 . S
H683 C671 0.929 . S
H684 C673 0.929 . S
O685 Co660 2.351 . S
O685 C688 1.244 . S
O686 Co660 2.155 . S
O686 C688 1.240 . S
O687 Co660 2.096 . S
O687 C668 1.247 . S
C688 O685 1.244 . S
C688 O686 1.240 . S
H689 C663 0.931 . S
H690 C672 0.931 . S
H691 C676 0.929 . S
H692 C678 0.930 . S
Co693 N697 2.148 . S
Co693 N703 2.128 . S
Co693 N713 2.194 . S
Co693 O718 2.351 . S
Co693 O719 2.155 . S
Co693 O720 2.096 . S
C694 N697 1.301 . S
C694 N698 1.328 . S
C694 H699 0.930 . S
C695 C696 1.333 . S
C695 N697 1.317 . S
C695 H700 0.930 . S
C696 C695 1.333 . S
C696 N698 1.350 . S
C696 H722 0.931 . S
N697 Co693 2.148 . S
N697 C694 1.301 . S
N697 C695 1.317 . S
N698 C694 1.328 . S
N698 C696 1.350 . S
H699 C694 0.930 . S
H700 C695 0.930 . S
C701 O702 1.224 . S
C701 O720 1.247 . S
O702 C701 1.224 . S
N703 Co693 2.128 . S
N703 C704 1.355 . S
N703 C706 1.311 . S
C704 N703 1.355 . S
C704 C705 1.363 . S
C704 H716 0.929 . S
C705 C704 1.363 . S
C705 N707 1.375 . S
C705 H723 0.931 . S
C706 N703 1.311 . S
C706 N707 1.347 . S
C706 H717 0.929 . S
N707 C705 1.375 . S
N707 C706 1.347 . S
C708 C711 1.365 . S
C708 N713 1.328 . S
C708 H714 0.929 . S
C709 C710 1.362 . S
C709 C712 1.378 . S
C709 H724 0.929 . S
C710 C709 1.362 . S
C710 C711 1.366 . S
C711 C708 1.365 . S
C711 C710 1.366 . S
C711 H725 0.930 . S
C712 C709 1.378 . S
C712 N713 1.315 . S
C712 H715 0.930 . S
N713 Co693 2.194 . S
N713 C708 1.328 . S
N713 C712 1.315 . S
H714 C708 0.929 . S
H715 C712 0.930 . S
H716 C704 0.929 . S
H717 C706 0.929 . S
O718 Co693 2.351 . S
O718 C721 1.244 . S
O719 Co693 2.155 . S
O719 C721 1.240 . S
O720 Co693 2.096 . S
O720 C701 1.247 . S
C721 O718 1.244 . S
C721 O719 1.240 . S
H722 C696 0.931 . S
H723 C705 0.931 . S
H724 C709 0.929 . S
H725 C711 0.930 . S
Co726 N730 2.148 . S
Co726 N736 2.128 . S
Co726 N746 2.194 . S
Co726 O751 2.351 . S
Co726 O752 2.155 . S
Co726 O753 2.096 . S
C727 N730 1.301 . S
C727 N731 1.328 . S
C727 H732 0.930 . S
C728 C729 1.333 . S
C728 N730 1.317 . S
C728 H733 0.930 . S
C729 C728 1.333 . S
C729 N731 1.350 . S
C729 H755 0.931 . S
N730 Co726 2.148 . S
N730 C727 1.301 . S
N730 C728 1.317 . S
N731 C727 1.328 . S
N731 C729 1.350 . S
H732 C727 0.930 . S
H733 C728 0.930 . S
C734 O735 1.224 . S
C734 O753 1.247 . S
O735 C734 1.224 . S
N736 Co726 2.128 . S
N736 C737 1.355 . S
N736 C739 1.311 . S
C737 N736 1.355 . S
C737 C738 1.363 . S
C737 H749 0.929 . S
C738 C737 1.363 . S
C738 N740 1.375 . S
C738 H756 0.931 . S
C739 N736 1.311 . S
C739 N740 1.347 . S
C739 H750 0.929 . S
N740 C738 1.375 . S
N740 C739 1.347 . S
C741 C744 1.365 . S
C741 N746 1.328 . S
C741 H747 0.929 . S
C742 C743 1.362 . S
C742 C745 1.378 . S
C742 H757 0.929 . S
C743 C742 1.362 . S
C743 C744 1.366 . S
C744 C741 1.365 . S
C744 C743 1.366 . S
C744 H758 0.930 . S
C745 C742 1.378 . S
C745 N746 1.315 . S
C745 H748 0.930 . S
N746 Co726 2.194 . S
N746 C741 1.328 . S
N746 C745 1.315 . S
H747 C741 0.929 . S
H748 C745 0.930 . S
H749 C737 0.929 . S
H750 C739 0.929 . S
O751 Co726 2.351 . S
O751 C754 1.244 . S
O752 Co726 2.155 . S
O752 C754 1.240 . S
O753 Co726 2.096 . S
O753 C734 1.247 . S
C754 O751 1.244 . S
C754 O752 1.240 . S
H755 C729 0.931 . S
H756 C738 0.931 . S
H757 C742 0.929 . S
H758 C744 0.930 . S
Co759 N763 2.148 . S
Co759 N769 2.128 . S
Co759 N779 2.194 . S
Co759 O784 2.351 . S
Co759 O785 2.155 . S
Co759 O786 2.096 . S
C760 N763 1.301 . S
C760 N764 1.328 . S
C760 H765 0.930 . S
C761 C762 1.333 . S
C761 N763 1.317 . S
C761 H766 0.930 . S
C762 C761 1.333 . S
C762 N764 1.350 . S
C762 H788 0.931 . S
N763 Co759 2.148 . S
N763 C760 1.301 . S
N763 C761 1.317 . S
N764 C760 1.328 . S
N764 C762 1.350 . S
H765 C760 0.930 . S
H766 C761 0.930 . S
C767 O768 1.224 . S
C767 O786 1.247 . S
O768 C767 1.224 . S
N769 Co759 2.128 . S
N769 C770 1.355 . S
N769 C772 1.311 . S
C770 N769 1.355 . S
C770 C771 1.363 . S
C770 H782 0.929 . S
C771 C770 1.363 . S
C771 N773 1.375 . S
C771 H789 0.931 . S
C772 N769 1.311 . S
C772 N773 1.347 . S
C772 H783 0.929 . S
N773 C771 1.375 . S
N773 C772 1.347 . S
C774 C777 1.365 . S
C774 N779 1.328 . S
C774 H780 0.929 . S
C775 C776 1.362 . S
C775 C778 1.378 . S
C775 H790 0.929 . S
C776 C775 1.362 . S
C776 C777 1.366 . S
C777 C774 1.365 . S
C777 C776 1.366 . S
C777 H791 0.930 . S
C778 C775 1.378 . S
C778 N779 1.315 . S
C778 H781 0.930 . S
N779 Co759 2.194 . S
N779 C774 1.328 . S
N779 C778 1.315 . S
H780 C774 0.929 . S
H781 C778 0.930 . S
H782 C770 0.929 . S
H783 C772 0.929 . S
O784 Co759 2.351 . S
O784 C787 1.244 . S
O785 Co759 2.155 . S
O785 C787 1.240 . S
O786 Co759 2.096 . S
O786 C767 1.247 . S
C787 O784 1.244 . S
C787 O785 1.240 . S
H788 C762 0.931 . S
H789 C771 0.931 . S
H790 C775 0.929 . S
H791 C777 0.930 . S
Co792 N796 2.148 . S
Co792 N802 2.128 . S
Co792 N812 2.194 . S
Co792 O817 2.351 . S
Co792 O818 2.155 . S
Co792 O819 2.096 . S
C793 N796 1.301 . S
C793 N797 1.328 . S
C793 H798 0.930 . S
C794 C795 1.333 . S
C794 N796 1.317 . S
C794 H799 0.930 . S
C795 C794 1.333 . S
C795 N797 1.350 . S
C795 H821 0.931 . S
N796 Co792 2.148 . S
N796 C793 1.301 . S
N796 C794 1.317 . S
N797 C793 1.328 . S
N797 C795 1.350 . S
H798 C793 0.930 . S
H799 C794 0.930 . S
C800 O801 1.224 . S
C800 O819 1.247 . S
O801 C800 1.224 . S
N802 Co792 2.128 . S
N802 C803 1.355 . S
N802 C805 1.311 . S
C803 N802 1.355 . S
C803 C804 1.363 . S
C803 H815 0.929 . S
C804 C803 1.363 . S
C804 N806 1.375 . S
C804 H822 0.931 . S
C805 N802 1.311 . S
C805 N806 1.347 . S
C805 H816 0.929 . S
N806 C804 1.375 . S
N806 C805 1.347 . S
C807 C810 1.365 . S
C807 N812 1.328 . S
C807 H813 0.929 . S
C808 C809 1.362 . S
C808 C811 1.378 . S
C808 H823 0.929 . S
C809 C808 1.362 . S
C809 C810 1.366 . S
C810 C807 1.365 . S
C810 C809 1.366 . S
C810 H824 0.930 . S
C811 C808 1.378 . S
C811 N812 1.315 . S
C811 H814 0.930 . S
N812 Co792 2.194 . S
N812 C807 1.328 . S
N812 C811 1.315 . S
H813 C807 0.929 . S
H814 C811 0.930 . S
H815 C803 0.929 . S
H816 C805 0.929 . S
O817 Co792 2.351 . S
O817 C820 1.244 . S
O818 Co792 2.155 . S
O818 C820 1.240 . S
O819 Co792 2.096 . S
O819 C800 1.247 . S
C820 O817 1.244 . S
C820 O818 1.240 . S
H821 C795 0.931 . S
H822 C804 0.931 . S
H823 C808 0.929 . S
H824 C810 0.930 . S
Co825 N829 2.148 . S
Co825 N835 2.128 . S
Co825 N845 2.194 . S
Co825 O850 2.351 . S
Co825 O851 2.155 . S
Co825 O852 2.096 . S
C826 N829 1.301 . S
C826 N830 1.328 . S
C826 H831 0.930 . S
C827 C828 1.333 . S
C827 N829 1.317 . S
C827 H832 0.930 . S
C828 C827 1.333 . S
C828 N830 1.350 . S
C828 H854 0.931 . S
N829 Co825 2.148 . S
N829 C826 1.301 . S
N829 C827 1.317 . S
N830 C826 1.328 . S
N830 C828 1.350 . S
H831 C826 0.930 . S
H832 C827 0.930 . S
C833 O834 1.224 . S
C833 O852 1.247 . S
O834 C833 1.224 . S
N835 Co825 2.128 . S
N835 C836 1.355 . S
N835 C838 1.311 . S
C836 N835 1.355 . S
C836 C837 1.363 . S
C836 H848 0.929 . S
C837 C836 1.363 . S
C837 N839 1.375 . S
C837 H855 0.931 . S
C838 N835 1.311 . S
C838 N839 1.347 . S
C838 H849 0.929 . S
N839 C837 1.375 . S
N839 C838 1.347 . S
C840 C843 1.365 . S
C840 N845 1.328 . S
C840 H846 0.929 . S
C841 C842 1.362 . S
C841 C844 1.378 . S
C841 H856 0.929 . S
C842 C841 1.362 . S
C842 C843 1.366 . S
C843 C840 1.365 . S
C843 C842 1.366 . S
C843 H857 0.930 . S
C844 C841 1.378 . S
C844 N845 1.315 . S
C844 H847 0.930 . S
N845 Co825 2.194 . S
N845 C840 1.328 . S
N845 C844 1.315 . S
H846 C840 0.929 . S
H847 C844 0.930 . S
H848 C836 0.929 . S
H849 C838 0.929 . S
O850 Co825 2.351 . S
O850 C853 1.244 . S
O851 Co825 2.155 . S
O851 C853 1.240 . S
O852 Co825 2.096 . S
O852 C833 1.247 . S
C853 O850 1.244 . S
C853 O851 1.240 . S
H854 C828 0.931 . S
H855 C837 0.931 . S
H856 C841 0.929 . S
H857 C843 0.930 . S
Co858 N862 2.148 . S
Co858 N868 2.128 . S
Co858 N878 2.194 . S
Co858 O883 2.351 . S
Co858 O884 2.155 . S
Co858 O885 2.096 . S
C859 N862 1.301 . S
C859 N863 1.328 . S
C859 H864 0.930 . S
C860 C861 1.333 . S
C860 N862 1.317 . S
C860 H865 0.930 . S
C861 C860 1.333 . S
C861 N863 1.350 . S
C861 H887 0.931 . S
N862 Co858 2.148 . S
N862 C859 1.301 . S
N862 C860 1.317 . S
N863 C859 1.328 . S
N863 C861 1.350 . S
H864 C859 0.930 . S
H865 C860 0.930 . S
C866 O867 1.224 . S
C866 O885 1.247 . S
O867 C866 1.224 . S
N868 Co858 2.128 . S
N868 C869 1.355 . S
N868 C871 1.311 . S
C869 N868 1.355 . S
C869 C870 1.363 . S
C869 H881 0.929 . S
C870 C869 1.363 . S
C870 N872 1.375 . S
C870 H888 0.931 . S
C871 N868 1.311 . S
C871 N872 1.347 . S
C871 H882 0.929 . S
N872 C870 1.375 . S
N872 C871 1.347 . S
C873 C876 1.365 . S
C873 N878 1.328 . S
C873 H879 0.929 . S
C874 C875 1.362 . S
C874 C877 1.378 . S
C874 H889 0.929 . S
C875 C874 1.362 . S
C875 C876 1.366 . S
C876 C873 1.365 . S
C876 C875 1.366 . S
C876 H890 0.930 . S
C877 C874 1.378 . S
C877 N878 1.315 . S
C877 H880 0.930 . S
N878 Co858 2.194 . S
N878 C873 1.328 . S
N878 C877 1.315 . S
H879 C873 0.929 . S
H880 C877 0.930 . S
H881 C869 0.929 . S
H882 C871 0.929 . S
O883 Co858 2.351 . S
O883 C886 1.244 . S
O884 Co858 2.155 . S
O884 C886 1.240 . S
O885 Co858 2.096 . S
O885 C866 1.247 . S
C886 O883 1.244 . S
C886 O884 1.240 . S
H887 C861 0.931 . S
H888 C870 0.931 . S
H889 C874 0.929 . S
H890 C876 0.930 . S
Co891 N895 2.148 . S
Co891 N901 2.128 . S
Co891 N911 2.194 . S
Co891 O916 2.351 . S
Co891 O917 2.155 . S
Co891 O918 2.096 . S
C892 N895 1.301 . S
C892 N896 1.328 . S
C892 H897 0.930 . S
C893 C894 1.333 . S
C893 N895 1.317 . S
C893 H898 0.930 . S
C894 C893 1.333 . S
C894 N896 1.350 . S
C894 H920 0.931 . S
N895 Co891 2.148 . S
N895 C892 1.301 . S
N895 C893 1.317 . S
N896 C892 1.328 . S
N896 C894 1.350 . S
H897 C892 0.930 . S
H898 C893 0.930 . S
C899 O900 1.224 . S
C899 O918 1.247 . S
O900 C899 1.224 . S
N901 Co891 2.128 . S
N901 C902 1.355 . S
N901 C904 1.311 . S
C902 N901 1.355 . S
C902 C903 1.363 . S
C902 H914 0.929 . S
C903 C902 1.363 . S
C903 N905 1.375 . S
C903 H921 0.931 . S
C904 N901 1.311 . S
C904 N905 1.347 . S
C904 H915 0.929 . S
N905 C903 1.375 . S
N905 C904 1.347 . S
C906 C909 1.365 . S
C906 N911 1.328 . S
C906 H912 0.929 . S
C907 C908 1.362 . S
C907 C910 1.378 . S
C907 H922 0.929 . S
C908 C907 1.362 . S
C908 C909 1.366 . S
C909 C906 1.365 . S
C909 C908 1.366 . S
C909 H923 0.930 . S
C910 C907 1.378 . S
C910 N911 1.315 . S
C910 H913 0.930 . S
N911 Co891 2.194 . S
N911 C906 1.328 . S
N911 C910 1.315 . S
H912 C906 0.929 . S
H913 C910 0.930 . S
H914 C902 0.929 . S
H915 C904 0.929 . S
O916 Co891 2.351 . S
O916 C919 1.244 . S
O917 Co891 2.155 . S
O917 C919 1.240 . S
O918 Co891 2.096 . S
O918 C899 1.247 . S
C919 O916 1.244 . S
C919 O917 1.240 . S
H920 C894 0.931 . S
H921 C903 0.931 . S
H922 C907 0.929 . S
H923 C909 0.930 . S
Co924 N928 2.148 . S
Co924 N934 2.128 . S
Co924 N944 2.194 . S
Co924 O949 2.351 . S
Co924 O950 2.155 . S
Co924 O951 2.096 . S
C925 N928 1.301 . S
C925 N929 1.328 . S
C925 H930 0.930 . S
C926 C927 1.333 . S
C926 N928 1.317 . S
C926 H931 0.930 . S
C927 C926 1.333 . S
C927 N929 1.350 . S
C927 H953 0.931 . S
N928 Co924 2.148 . S
N928 C925 1.301 . S
N928 C926 1.317 . S
N929 C925 1.328 . S
N929 C927 1.350 . S
H930 C925 0.930 . S
H931 C926 0.930 . S
C932 O933 1.224 . S
C932 O951 1.247 . S
O933 C932 1.224 . S
N934 Co924 2.128 . S
N934 C935 1.355 . S
N934 C937 1.311 . S
C935 N934 1.355 . S
C935 C936 1.363 . S
C935 H947 0.929 . S
C936 C935 1.363 . S
C936 N938 1.375 . S
C936 H954 0.931 . S
C937 N934 1.311 . S
C937 N938 1.347 . S
C937 H948 0.929 . S
N938 C936 1.375 . S
N938 C937 1.347 . S
C939 C942 1.365 . S
C939 N944 1.328 . S
C939 H945 0.929 . S
C940 C941 1.362 . S
C940 C943 1.378 . S
C940 H955 0.929 . S
C941 C940 1.362 . S
C941 C942 1.366 . S
C942 C939 1.365 . S
C942 C941 1.366 . S
C942 H956 0.930 . S
C943 C940 1.378 . S
C943 N944 1.315 . S
C943 H946 0.930 . S
N944 Co924 2.194 . S
N944 C939 1.328 . S
N944 C943 1.315 . S
H945 C939 0.929 . S
H946 C943 0.930 . S
H947 C935 0.929 . S
H948 C937 0.929 . S
O949 Co924 2.351 . S
O949 C952 1.244 . S
O950 Co924 2.155 . S
O950 C952 1.240 . S
O951 Co924 2.096 . S
O951 C932 1.247 . S
C952 O949 1.244 . S
C952 O950 1.240 . S
H953 C927 0.931 . S
H954 C936 0.931 . S
H955 C940 0.929 . S
H956 C942 0.930 . S
Co957 N961 2.148 . S
Co957 N967 2.128 . S
Co957 N977 2.194 . S
Co957 O982 2.351 . S
Co957 O983 2.155 . S
Co957 O984 2.096 . S
C958 N961 1.301 . S
C958 N962 1.328 . S
C958 H963 0.930 . S
C959 C960 1.333 . S
C959 N961 1.317 . S
C959 H964 0.930 . S
C960 C959 1.333 . S
C960 N962 1.350 . S
C960 H986 0.931 . S
N961 Co957 2.148 . S
N961 C958 1.301 . S
N961 C959 1.317 . S
N962 C958 1.328 . S
N962 C960 1.350 . S
H963 C958 0.930 . S
H964 C959 0.930 . S
C965 O966 1.224 . S
C965 O984 1.247 . S
O966 C965 1.224 . S
N967 Co957 2.128 . S
N967 C968 1.355 . S
N967 C970 1.311 . S
C968 N967 1.355 . S
C968 C969 1.363 . S
C968 H980 0.929 . S
C969 C968 1.363 . S
C969 N971 1.375 . S
C969 H987 0.931 . S
C970 N967 1.311 . S
C970 N971 1.347 . S
C970 H981 0.929 . S
N971 C969 1.375 . S
N971 C970 1.347 . S
C972 C975 1.365 . S
C972 N977 1.328 . S
C972 H978 0.929 . S
C973 C974 1.362 . S
C973 C976 1.378 . S
C973 H988 0.929 . S
C974 C973 1.362 . S
C974 C975 1.366 . S
C975 C972 1.365 . S
C975 C974 1.366 . S
C975 H989 0.930 . S
C976 C973 1.378 . S
C976 N977 1.315 . S
C976 H979 0.930 . S
N977 Co957 2.194 . S
N977 C972 1.328 . S
N977 C976 1.315 . S
H978 C972 0.929 . S
H979 C976 0.930 . S
H980 C968 0.929 . S
H981 C970 0.929 . S
O982 Co957 2.351 . S
O982 C985 1.244 . S
O983 Co957 2.155 . S
O983 C985 1.240 . S
O984 Co957 2.096 . S
O984 C965 1.247 . S
C985 O982 1.244 . S
C985 O983 1.240 . S
H986 C960 0.931 . S
H987 C969 0.931 . S
H988 C973 0.929 . S
H989 C975 0.930 . S
Co990 N994 2.148 . S
Co990 N1000 2.128 . S
Co990 N1010 2.194 . S
Co990 O1015 2.351 . S
Co990 O1016 2.155 . S
Co990 O1017 2.096 . S
C991 N994 1.301 . S
C991 N995 1.328 . S
C991 H996 0.930 . S
C992 C993 1.333 . S
C992 N994 1.317 . S
C992 H997 0.930 . S
C993 C992 1.333 . S
C993 N995 1.350 . S
C993 H1019 0.931 . S
N994 Co990 2.148 . S
N994 C991 1.301 . S
N994 C992 1.317 . S
N995 C991 1.328 . S
N995 C993 1.350 . S
H996 C991 0.930 . S
H997 C992 0.930 . S
C998 O999 1.224 . S
C998 O1017 1.247 . S
O999 C998 1.224 . S
N1000 Co990 2.128 . S
N1000 C1001 1.355 . S
N1000 C1003 1.311 . S
C1001 N1000 1.355 . S
C1001 C1002 1.363 . S
C1001 H1013 0.929 . S
C1002 C1001 1.363 . S
C1002 N1004 1.375 . S
C1002 H1020 0.931 . S
C1003 N1000 1.311 . S
C1003 N1004 1.347 . S
C1003 H1014 0.929 . S
N1004 C1002 1.375 . S
N1004 C1003 1.347 . S
C1005 C1008 1.365 . S
C1005 N1010 1.328 . S
C1005 H1011 0.929 . S
C1006 C1007 1.362 . S
C1006 C1009 1.378 . S
C1006 H1021 0.929 . S
C1007 C1006 1.362 . S
C1007 C1008 1.366 . S
C1008 C1005 1.365 . S
C1008 C1007 1.366 . S
C1008 H1022 0.930 . S
C1009 C1006 1.378 . S
C1009 N1010 1.315 . S
C1009 H1012 0.930 . S
N1010 Co990 2.194 . S
N1010 C1005 1.328 . S
N1010 C1009 1.315 . S
H1011 C1005 0.929 . S
H1012 C1009 0.930 . S
H1013 C1001 0.929 . S
H1014 C1003 0.929 . S
O1015 Co990 2.351 . S
O1015 C1018 1.244 . S
O1016 Co990 2.155 . S
O1016 C1018 1.240 . S
O1017 Co990 2.096 . S
O1017 C998 1.247 . S
C1018 O1015 1.244 . S
C1018 O1016 1.240 . S
H1019 C993 0.931 . S
H1020 C1002 0.931 . S
H1021 C1006 0.929 . S
H1022 C1008 0.930 . S
Co1023 N1027 2.148 . S
Co1023 N1033 2.128 . S
Co1023 N1043 2.194 . S
Co1023 O1048 2.351 . S
Co1023 O1049 2.155 . S
Co1023 O1050 2.096 . S
C1024 N1027 1.301 . S
C1024 N1028 1.328 . S
C1024 H1029 0.930 . S
C1025 C1026 1.333 . S
C1025 N1027 1.317 . S
C1025 H1030 0.930 . S
C1026 C1025 1.333 . S
C1026 N1028 1.350 . S
C1026 H1052 0.931 . S
N1027 Co1023 2.148 . S
N1027 C1024 1.301 . S
N1027 C1025 1.317 . S
N1028 C1024 1.328 . S
N1028 C1026 1.350 . S
H1029 C1024 0.930 . S
H1030 C1025 0.930 . S
C1031 O1032 1.224 . S
C1031 O1050 1.247 . S
O1032 C1031 1.224 . S
N1033 Co1023 2.128 . S
N1033 C1034 1.355 . S
N1033 C1036 1.311 . S
C1034 N1033 1.355 . S
C1034 C1035 1.363 . S
C1034 H1046 0.929 . S
C1035 C1034 1.363 . S
C1035 N1037 1.375 . S
C1035 H1053 0.931 . S
C1036 N1033 1.311 . S
C1036 N1037 1.347 . S
C1036 H1047 0.929 . S
N1037 C1035 1.375 . S
N1037 C1036 1.347 . S
C1038 C1041 1.365 . S
C1038 N1043 1.328 . S
C1038 H1044 0.929 . S
C1039 C1040 1.362 . S
C1039 C1042 1.378 . S
C1039 H1054 0.929 . S
C1040 C1039 1.362 . S
C1040 C1041 1.366 . S
C1041 C1038 1.365 . S
C1041 C1040 1.366 . S
C1041 H1055 0.930 . S
C1042 C1039 1.378 . S
C1042 N1043 1.315 . S
C1042 H1045 0.930 . S
N1043 Co1023 2.194 . S
N1043 C1038 1.328 . S
N1043 C1042 1.315 . S
H1044 C1038 0.929 . S
H1045 C1042 0.930 . S
H1046 C1034 0.929 . S
H1047 C1036 0.929 . S
O1048 Co1023 2.351 . S
O1048 C1051 1.244 . S
O1049 Co1023 2.155 . S
O1049 C1051 1.240 . S
O1050 Co1023 2.096 . S
O1050 C1031 1.247 . S
C1051 O1048 1.244 . S
C1051 O1049 1.240 . S
H1052 C1026 0.931 . S
H1053 C1035 0.931 . S
H1054 C1039 0.929 . S
H1055 C1041 0.930 . S
C1056 C1057 1.349 . S
C1056 C1058 1.327 . S
C1056 H1081 0.950 . S
C1057 C1056 1.349 . S
C1057 C1073 1.349 . S
C1058 C1056 1.327 . S
C1058 C1077 1.429 . S
C1058 H1082 0.950 . S
C1059 C1076 1.574 . S
C1059 C1078 1.368 . S
C1059 H1083 0.949 . S
H1060 C1064 0.949 . S
C1061 C1062 1.349 . S
C1061 C1063 1.327 . S
C1061 H1084 0.950 . S
C1062 C1061 1.349 . S
C1062 C1074 1.349 . S
C1063 C1061 1.327 . S
C1063 C1079 1.429 . S
C1063 H1085 0.950 . S
C1064 H1060 0.949 . S
C1064 C1072 1.574 . S
C1064 C1080 1.368 . S
H1065 C1073 0.950 . S
H1066 C1071 0.950 . S
H1067 C1072 0.949 . S
H1068 C1074 0.950 . S
H1069 C1075 0.950 . S
H1070 C1076 0.949 . S
C1071 H1066 0.950 . S
C1071 C1073 1.327 . S
C1071 C1077 1.429 . S
C1072 C1064 1.574 . S
C1072 H1067 0.949 . S
C1072 C1078 1.368 . S
C1073 C1057 1.349 . S
C1073 H1065 0.950 . S
C1073 C1071 1.327 . S
C1074 C1062 1.349 . S
C1074 H1068 0.950 . S
C1074 C1075 1.327 . S
C1075 H1069 0.950 . S
C1075 C1074 1.327 . S
C1075 C1079 1.429 . S
C1076 C1059 1.574 . S
C1076 H1070 0.949 . S
C1076 C1080 1.368 . S
C1077 C1058 1.429 . S
C1077 C1071 1.429 . S
C1077 C1078 1.523 . S
C1078 C1059 1.368 . S
C1078 C1072 1.368 . S
C1078 C1077 1.523 . S
C1079 C1063 1.429 . S
C1079 C1075 1.429 . S
C1079 C1080 1.523 . S
C1080 C1064 1.368 . S
C1080 C1076 1.368 . S
C1080 C1079 1.523 . S
H1081 C1056 0.950 . S
H1082 C1058 0.950 . S
H1083 C1059 0.949 . S
H1084 C1061 0.950 . S
H1085 C1063 0.950 . S
C1086 C1087 1.349 . S
C1086 C1088 1.327 . S
C1086 H1111 0.950 . S
C1087 C1086 1.349 . S
C1087 C1103 1.349 . S
C1088 C1086 1.327 . S
C1088 C1107 1.429 . S
C1088 H1112 0.950 . S
C1089 C1106 1.574 . S
C1089 C1108 1.368 . S
C1089 H1113 0.949 . S
H1090 C1094 0.949 . S
C1091 C1092 1.349 . S
C1091 C1093 1.327 . S
C1091 H1114 0.950 . S
C1092 C1091 1.349 . S
C1092 C1104 1.349 . S
C1093 C1091 1.327 . S
C1093 C1109 1.429 . S
C1093 H1115 0.950 . S
C1094 H1090 0.949 . S
C1094 C1102 1.574 . S
C1094 C1110 1.368 . S
H1095 C1103 0.950 1_655 S
H1096 C1101 0.950 . S
H1097 C1102 0.949 . S
H1098 C1104 0.950 . S
H1099 C1105 0.950 . S
H1100 C1106 0.949 . S
C1101 H1096 0.950 . S
C1101 C1103 1.327 . S
C1101 C1107 1.429 . S
C1102 C1094 1.574 . S
C1102 H1097 0.949 . S
C1102 C1108 1.368 . S
C1103 C1087 1.349 . S
C1103 H1095 0.950 1_455 S
C1103 C1101 1.327 . S
C1104 C1092 1.349 . S
C1104 H1098 0.950 . S
C1104 C1105 1.327 . S
C1105 H1099 0.950 . S
C1105 C1104 1.327 . S
C1105 C1109 1.429 . S
C1106 C1089 1.574 . S
C1106 H1100 0.949 . S
C1106 C1110 1.368 . S
C1107 C1088 1.429 . S
C1107 C1101 1.429 . S
C1107 C1108 1.523 . S
C1108 C1089 1.368 . S
C1108 C1102 1.368 . S
C1108 C1107 1.523 . S
C1109 C1093 1.429 . S
C1109 C1105 1.429 . S
C1109 C1110 1.523 . S
C1110 C1094 1.368 . S
C1110 C1106 1.368 . S
C1110 C1109 1.523 . S
H1111 C1086 0.950 . S
H1112 C1088 0.950 . S
H1113 C1089 0.949 . S
H1114 C1091 0.950 . S
H1115 C1093 0.950 . S
C1116 C1117 1.349 . S
C1116 C1118 1.327 . S
C1116 H1141 0.950 . S
C1117 C1116 1.349 . S
C1117 C1133 1.349 . S
C1118 C1116 1.327 . S
C1118 C1137 1.429 . S
C1118 H1142 0.950 . S
C1119 C1136 1.574 . S
C1119 C1138 1.368 . S
C1119 H1143 0.949 . S
H1120 C1124 0.949 . S
C1121 C1122 1.349 . S
C1121 C1123 1.327 . S
C1121 H1144 0.950 . S
C1122 C1121 1.349 . S
C1122 C1134 1.349 . S
C1123 C1121 1.327 . S
C1123 C1139 1.429 . S
C1123 H1145 0.950 . S
C1124 H1120 0.949 . S
C1124 C1132 1.574 . S
C1124 C1140 1.368 . S
H1125 C1133 0.950 . S
H1126 C1131 0.950 . S
H1127 C1132 0.949 . S
H1128 C1134 0.950 . S
H1129 C1135 0.950 . S
H1130 C1136 0.949 . S
C1131 H1126 0.950 . S
C1131 C1133 1.327 . S
C1131 C1137 1.429 . S
C1132 C1124 1.574 . S
C1132 H1127 0.949 . S
C1132 C1138 1.368 . S
C1133 C1117 1.349 . S
C1133 H1125 0.950 . S
C1133 C1131 1.327 . S
C1134 C1122 1.349 . S
C1134 H1128 0.950 . S
C1134 C1135 1.327 . S
C1135 H1129 0.950 . S
C1135 C1134 1.327 . S
C1135 C1139 1.429 . S
C1136 C1119 1.574 . S
C1136 H1130 0.949 . S
C1136 C1140 1.368 . S
C1137 C1118 1.429 . S
C1137 C1131 1.429 . S
C1137 C1138 1.523 . S
C1138 C1119 1.368 . S
C1138 C1132 1.368 . S
C1138 C1137 1.523 . S
C1139 C1123 1.429 . S
C1139 C1135 1.429 . S
C1139 C1140 1.523 . S
C1140 C1124 1.368 . S
C1140 C1136 1.368 . S
C1140 C1139 1.523 . S
H1141 C1116 0.950 . S
H1142 C1118 0.950 . S
H1143 C1119 0.949 . S
H1144 C1121 0.950 . S
H1145 C1123 0.950 . S
C1146 C1147 1.349 . S
C1146 C1148 1.327 . S
C1146 H1171 0.950 . S
C1147 C1146 1.349 . S
C1147 C1163 1.349 . S
C1148 C1146 1.327 . S
C1148 C1167 1.429 . S
C1148 H1172 0.950 . S
C1149 C1166 1.574 . S
C1149 C1168 1.368 . S
C1149 H1173 0.949 . S
H1150 C1154 0.949 . S
C1151 C1152 1.349 . S
C1151 C1153 1.327 . S
C1151 H1174 0.950 . S
C1152 C1151 1.349 . S
C1152 C1164 1.349 . S
C1153 C1151 1.327 . S
C1153 C1169 1.429 . S
C1153 H1175 0.950 . S
C1154 H1150 0.949 . S
C1154 C1162 1.574 . S
C1154 C1170 1.368 . S
H1155 C1163 0.950 . S
H1156 C1161 0.950 . S
H1157 C1162 0.949 . S
H1158 C1164 0.950 . S
H1159 C1165 0.950 . S
H1160 C1166 0.949 . S
C1161 H1156 0.950 . S
C1161 C1163 1.327 . S
C1161 C1167 1.429 . S
C1162 C1154 1.574 . S
C1162 H1157 0.949 . S
C1162 C1168 1.368 . S
C1163 C1147 1.349 . S
C1163 H1155 0.950 . S
C1163 C1161 1.327 . S
C1164 C1152 1.349 . S
C1164 H1158 0.950 . S
C1164 C1165 1.327 . S
C1165 H1159 0.950 . S
C1165 C1164 1.327 . S
C1165 C1169 1.429 . S
C1166 C1149 1.574 . S
C1166 H1160 0.949 . S
C1166 C1170 1.368 . S
C1167 C1148 1.429 . S
C1167 C1161 1.429 . S
C1167 C1168 1.523 . S
C1168 C1149 1.368 . S
C1168 C1162 1.368 . S
C1168 C1167 1.523 . S
C1169 C1153 1.429 . S
C1169 C1165 1.429 . S
C1169 C1170 1.523 . S
C1170 C1154 1.368 . S
C1170 C1166 1.368 . S
C1170 C1169 1.523 . S
H1171 C1146 0.950 . S
H1172 C1148 0.950 . S
H1173 C1149 0.949 . S
H1174 C1151 0.950 . S
H1175 C1153 0.950 . S
C1176 C1177 1.349 . S
C1176 C1178 1.327 . S
C1176 H1201 0.950 . S
C1177 C1176 1.349 . S
C1177 C1193 1.349 . S
C1178 C1176 1.327 . S
C1178 C1197 1.429 . S
C1178 H1202 0.950 . S
C1179 C1196 1.574 . S
C1179 C1198 1.368 . S
C1179 H1203 0.949 . S
H1180 C1184 0.949 . S
C1181 C1182 1.349 . S
C1181 C1183 1.327 . S
C1181 H1204 0.950 . S
C1182 C1181 1.349 . S
C1182 C1194 1.349 . S
C1183 C1181 1.327 . S
C1183 C1199 1.429 . S
C1183 H1205 0.950 . S
C1184 H1180 0.949 . S
C1184 C1192 1.574 . S
C1184 C1200 1.368 . S
H1185 C1193 0.950 . S
H1186 C1191 0.950 . S
H1187 C1192 0.949 . S
H1188 C1194 0.950 . S
H1189 C1195 0.950 . S
H1190 C1196 0.949 . S
C1191 H1186 0.950 . S
C1191 C1193 1.327 . S
C1191 C1197 1.429 . S
C1192 C1184 1.574 . S
C1192 H1187 0.949 . S
C1192 C1198 1.368 . S
C1193 C1177 1.349 . S
C1193 H1185 0.950 . S
C1193 C1191 1.327 . S
C1194 C1182 1.349 . S
C1194 H1188 0.950 . S
C1194 C1195 1.327 . S
C1195 H1189 0.950 . S
C1195 C1194 1.327 . S
C1195 C1199 1.429 . S
C1196 C1179 1.574 . S
C1196 H1190 0.949 . S
C1196 C1200 1.368 . S
C1197 C1178 1.429 . S
C1197 C1191 1.429 . S
C1197 C1198 1.523 . S
C1198 C1179 1.368 . S
C1198 C1192 1.368 . S
C1198 C1197 1.523 . S
C1199 C1183 1.429 . S
C1199 C1195 1.429 . S
C1199 C1200 1.523 . S
C1200 C1184 1.368 . S
C1200 C1196 1.368 . S
C1200 C1199 1.523 . S
H1201 C1176 0.950 . S
H1202 C1178 0.950 . S
H1203 C1179 0.949 . S
H1204 C1181 0.950 . S
H1205 C1183 0.950 . S
C1206 C1207 1.349 . S
C1206 C1208 1.327 . S
C1206 H1231 0.950 . S
C1207 C1206 1.349 . S
C1207 C1223 1.349 . S
C1208 C1206 1.327 . S
C1208 C1227 1.429 . S
C1208 H1232 0.950 . S
C1209 C1226 1.574 . S
C1209 C1228 1.368 . S
C1209 H1233 0.949 . S
H1210 C1214 0.949 . S
C1211 C1212 1.349 . S
C1211 C1213 1.327 . S
C1211 H1234 0.950 . S
C1212 C1211 1.349 . S
C1212 C1224 1.349 . S
C1213 C1211 1.327 . S
C1213 C1229 1.429 . S
C1213 H1235 0.950 . S
C1214 H1210 0.949 . S
C1214 C1222 1.574 . S
C1214 C1230 1.368 . S
H1215 C1223 0.950 . S
H1216 C1221 0.950 . S
H1217 C1222 0.949 . S
H1218 C1224 0.950 . S
H1219 C1225 0.950 . S
H1220 C1226 0.949 . S
C1221 H1216 0.950 . S
C1221 C1223 1.327 . S
C1221 C1227 1.429 . S
C1222 C1214 1.574 . S
C1222 H1217 0.949 . S
C1222 C1228 1.368 . S
C1223 C1207 1.349 . S
C1223 H1215 0.950 . S
C1223 C1221 1.327 . S
C1224 C1212 1.349 . S
C1224 H1218 0.950 . S
C1224 C1225 1.327 . S
C1225 H1219 0.950 . S
C1225 C1224 1.327 . S
C1225 C1229 1.429 . S
C1226 C1209 1.574 . S
C1226 H1220 0.949 . S
C1226 C1230 1.368 . S
C1227 C1208 1.429 . S
C1227 C1221 1.429 . S
C1227 C1228 1.523 . S
C1228 C1209 1.368 . S
C1228 C1222 1.368 . S
C1228 C1227 1.523 . S
C1229 C1213 1.429 . S
C1229 C1225 1.429 . S
C1229 C1230 1.523 . S
C1230 C1214 1.368 . S
C1230 C1226 1.368 . S
C1230 C1229 1.523 . S
H1231 C1206 0.950 . S
H1232 C1208 0.950 . S
H1233 C1209 0.949 . S
H1234 C1211 0.950 . S
H1235 C1213 0.950 . S
C1236 C1237 1.349 . S
C1236 C1238 1.327 . S
C1236 H1261 0.950 . S
C1237 C1236 1.349 . S
C1237 C1253 1.349 . S
C1238 C1236 1.327 . S
C1238 C1257 1.429 . S
C1238 H1262 0.950 . S
C1239 C1256 1.574 . S
C1239 C1258 1.368 . S
C1239 H1263 0.949 . S
H1240 C1244 0.949 . S
C1241 C1242 1.349 . S
C1241 C1243 1.327 . S
C1241 H1264 0.950 . S
C1242 C1241 1.349 . S
C1242 C1254 1.349 . S
C1243 C1241 1.327 . S
C1243 C1259 1.429 . S
C1243 H1265 0.950 . S
C1244 H1240 0.949 . S
C1244 C1252 1.574 . S
C1244 C1260 1.368 . S
H1245 C1253 0.950 . S
H1246 C1251 0.950 . S
H1247 C1252 0.949 . S
H1248 C1254 0.950 . S
H1249 C1255 0.950 . S
H1250 C1256 0.949 . S
C1251 H1246 0.950 . S
C1251 C1253 1.327 . S
C1251 C1257 1.429 . S
C1252 C1244 1.574 . S
C1252 H1247 0.949 . S
C1252 C1258 1.368 . S
C1253 C1237 1.349 . S
C1253 H1245 0.950 . S
C1253 C1251 1.327 . S
C1254 C1242 1.349 . S
C1254 H1248 0.950 . S
C1254 C1255 1.327 . S
C1255 H1249 0.950 . S
C1255 C1254 1.327 . S
C1255 C1259 1.429 . S
C1256 C1239 1.574 . S
C1256 H1250 0.949 . S
C1256 C1260 1.368 . S
C1257 C1238 1.429 . S
C1257 C1251 1.429 . S
C1257 C1258 1.523 . S
C1258 C1239 1.368 . S
C1258 C1252 1.368 . S
C1258 C1257 1.523 . S
C1259 C1243 1.429 . S
C1259 C1255 1.429 . S
C1259 C1260 1.523 . S
C1260 C1244 1.368 . S
C1260 C1256 1.368 . S
C1260 C1259 1.523 . S
H1261 C1236 0.950 . S
H1262 C1238 0.950 . S
H1263 C1239 0.949 . S
H1264 C1241 0.950 . S
H1265 C1243 0.950 . S
C1266 C1267 1.349 . S
C1266 C1268 1.327 . S
C1266 H1291 0.950 . S
C1267 C1266 1.349 . S
C1267 C1283 1.349 . S
C1268 C1266 1.327 . S
C1268 C1287 1.429 . S
C1268 H1292 0.950 . S
C1269 C1286 1.574 . S
C1269 C1288 1.368 . S
C1269 H1293 0.949 . S
H1270 C1274 0.949 . S
C1271 C1272 1.349 . S
C1271 C1273 1.327 . S
C1271 H1294 0.950 . S
C1272 C1271 1.349 . S
C1272 C1284 1.349 . S
C1273 C1271 1.327 . S
C1273 C1289 1.429 . S
C1273 H1295 0.950 . S
C1274 H1270 0.949 . S
C1274 C1282 1.574 . S
C1274 C1290 1.368 . S
H1275 C1283 0.950 . S
H1276 C1281 0.950 . S
H1277 C1282 0.949 . S
H1278 C1284 0.950 1_655 S
H1279 C1285 0.950 . S
H1280 C1286 0.949 . S
C1281 H1276 0.950 . S
C1281 C1283 1.327 . S
C1281 C1287 1.429 . S
C1282 C1274 1.574 . S
C1282 H1277 0.949 . S
C1282 C1288 1.368 . S
C1283 C1267 1.349 . S
C1283 H1275 0.950 . S
C1283 C1281 1.327 . S
C1284 C1272 1.349 . S
C1284 H1278 0.950 1_455 S
C1284 C1285 1.327 . S
C1285 H1279 0.950 . S
C1285 C1284 1.327 . S
C1285 C1289 1.429 . S
C1286 C1269 1.574 . S
C1286 H1280 0.949 . S
C1286 C1290 1.368 . S
C1287 C1268 1.429 . S
C1287 C1281 1.429 . S
C1287 C1288 1.523 . S
C1288 C1269 1.368 . S
C1288 C1282 1.368 . S
C1288 C1287 1.523 . S
C1289 C1273 1.429 . S
C1289 C1285 1.429 . S
C1289 C1290 1.523 . S
C1290 C1274 1.368 . S
C1290 C1286 1.368 . S
C1290 C1289 1.523 . S
H1291 C1266 0.950 . S
H1292 C1268 0.950 . S
H1293 C1269 0.949 . S
H1294 C1271 0.950 . S
H1295 C1273 0.950 . S
C1296 C1297 1.349 . S
C1296 C1298 1.327 . S
C1296 H1321 0.950 . S
C1297 C1296 1.349 . S
C1297 C1313 1.349 . S
C1298 C1296 1.327 . S
C1298 C1317 1.429 . S
C1298 H1322 0.950 . S
C1299 C1316 1.574 . S
C1299 C1318 1.368 . S
C1299 H1323 0.949 . S
H1300 C1304 0.949 . S
C1301 C1302 1.349 . S
C1301 C1303 1.327 . S
C1301 H1324 0.950 . S
C1302 C1301 1.349 . S
C1302 C1314 1.349 . S
C1303 C1301 1.327 . S
C1303 C1319 1.429 . S
C1303 H1325 0.950 . S
C1304 H1300 0.949 . S
C1304 C1312 1.574 . S
C1304 C1320 1.368 . S
H1305 C1313 0.950 . S
H1306 C1311 0.950 . S
H1307 C1312 0.949 . S
H1308 C1314 0.950 . S
H1309 C1315 0.950 . S
H1310 C1316 0.949 . S
C1311 H1306 0.950 . S
C1311 C1313 1.327 . S
C1311 C1317 1.429 . S
C1312 C1304 1.574 . S
C1312 H1307 0.949 . S
C1312 C1318 1.368 . S
C1313 C1297 1.349 . S
C1313 H1305 0.950 . S
C1313 C1311 1.327 . S
C1314 C1302 1.349 . S
C1314 H1308 0.950 . S
C1314 C1315 1.327 . S
C1315 H1309 0.950 . S
C1315 C1314 1.327 . S
C1315 C1319 1.429 . S
C1316 C1299 1.574 . S
C1316 H1310 0.949 . S
C1316 C1320 1.368 . S
C1317 C1298 1.429 . S
C1317 C1311 1.429 . S
C1317 C1318 1.523 . S
C1318 C1299 1.368 . S
C1318 C1312 1.368 . S
C1318 C1317 1.523 . S
C1319 C1303 1.429 . S
C1319 C1315 1.429 . S
C1319 C1320 1.523 . S
C1320 C1304 1.368 . S
C1320 C1316 1.368 . S
C1320 C1319 1.523 . S
H1321 C1296 0.950 . S
H1322 C1298 0.950 . S
H1323 C1299 0.949 . S
H1324 C1301 0.950 . S
H1325 C1303 0.950 . S
C1326 C1327 1.342 1_455 S
C1326 C1328 1.304 1_455 S
C1326 H1351 0.981 . S
C1327 C1326 1.342 1_655 S
C1327 C1343 1.349 . S
C1328 C1326 1.304 1_655 S
C1328 C1347 1.429 . S
C1328 H1352 0.950 . S
C1329 C1346 1.574 . S
C1329 C1348 1.368 . S
C1329 H1353 0.949 . S
H1330 C1334 0.949 . S
C1331 C1332 1.349 . S
C1331 C1333 1.327 . S
C1331 H1354 0.950 . S
C1332 C1331 1.349 . S
C1332 C1344 1.349 . S
C1333 C1331 1.327 . S
C1333 C1349 1.429 . S
C1333 H1355 0.950 . S
C1334 H1330 0.949 . S
C1334 C1342 1.574 . S
C1334 C1350 1.368 . S
H1335 C1343 0.950 . S
H1336 C1341 0.950 . S
H1337 C1342 0.949 . S
H1338 C1344 0.950 . S
H1339 C1345 0.950 . S
H1340 C1346 0.949 . S
C1341 H1336 0.950 . S
C1341 C1343 1.327 . S
C1341 C1347 1.429 . S
C1342 C1334 1.574 . S
C1342 H1337 0.949 . S
C1342 C1348 1.368 . S
C1343 C1327 1.349 . S
C1343 H1335 0.950 . S
C1343 C1341 1.327 . S
C1344 C1332 1.349 . S
C1344 H1338 0.950 . S
C1344 C1345 1.327 . S
C1345 H1339 0.950 . S
C1345 C1344 1.327 . S
C1345 C1349 1.429 . S
C1346 C1329 1.574 . S
C1346 H1340 0.949 . S
C1346 C1350 1.368 . S
C1347 C1328 1.429 . S
C1347 C1341 1.429 . S
C1347 C1348 1.523 . S
C1348 C1329 1.368 . S
C1348 C1342 1.368 . S
C1348 C1347 1.523 . S
C1349 C1333 1.429 . S
C1349 C1345 1.429 . S
C1349 C1350 1.523 . S
C1350 C1334 1.368 . S
C1350 C1346 1.368 . S
C1350 C1349 1.523 . S
H1351 C1326 0.981 . S
H1352 C1328 0.950 . S
H1353 C1329 0.949 . S
H1354 C1331 0.950 . S
H1355 C1333 0.950 . S
C1356 C1357 1.349 . S
C1356 C1358 1.327 . S
C1356 H1381 0.950 . S
C1357 C1356 1.349 . S
C1357 C1373 1.349 . S
C1358 C1356 1.327 . S
C1358 C1377 1.429 . S
C1358 H1382 0.950 . S
C1359 C1376 1.574 . S
C1359 C1378 1.368 . S
C1359 H1383 0.949 . S
H1360 C1364 0.949 . S
C1361 C1362 1.349 . S
C1361 C1363 1.327 . S
C1361 H1384 0.950 . S
C1362 C1361 1.349 . S
C1362 C1374 1.349 . S
C1363 C1361 1.327 . S
C1363 C1379 1.429 . S
C1363 H1385 0.950 . S
C1364 H1360 0.949 . S
C1364 C1372 1.574 . S
C1364 C1380 1.368 . S
H1365 C1373 0.950 . S
H1366 C1371 0.950 . S
H1367 C1372 0.949 . S
H1368 C1374 0.950 . S
H1369 C1375 0.950 . S
H1370 C1376 0.949 . S
C1371 H1366 0.950 . S
C1371 C1373 1.327 . S
C1371 C1377 1.429 . S
C1372 C1364 1.574 . S
C1372 H1367 0.949 . S
C1372 C1378 1.368 . S
C1373 C1357 1.349 . S
C1373 H1365 0.950 . S
C1373 C1371 1.327 . S
C1374 C1362 1.349 . S
C1374 H1368 0.950 . S
C1374 C1375 1.327 . S
C1375 H1369 0.950 . S
C1375 C1374 1.327 . S
C1375 C1379 1.429 . S
C1376 C1359 1.574 . S
C1376 H1370 0.949 . S
C1376 C1380 1.368 . S
C1377 C1358 1.429 . S
C1377 C1371 1.429 . S
C1377 C1378 1.523 . S
C1378 C1359 1.368 . S
C1378 C1372 1.368 . S
C1378 C1377 1.523 . S
C1379 C1363 1.429 . S
C1379 C1375 1.429 . S
C1379 C1380 1.523 . S
C1380 C1364 1.368 . S
C1380 C1376 1.368 . S
C1380 C1379 1.523 . S
H1381 C1356 0.950 . S
H1382 C1358 0.950 . S
H1383 C1359 0.949 . S
H1384 C1361 0.950 . S
H1385 C1363 0.950 . S
C1386 C1387 1.349 . S
C1386 C1388 1.327 . S
C1386 H1411 0.950 . S
C1387 C1386 1.349 . S
C1387 C1403 1.349 . S
C1388 C1386 1.327 . S
C1388 C1407 1.429 . S
C1388 H1412 0.950 . S
C1389 C1406 1.574 . S
C1389 C1408 1.368 . S
C1389 H1413 0.949 . S
H1390 C1394 0.949 . S
C1391 C1392 1.349 . S
C1391 C1393 1.327 . S
C1391 H1414 0.950 . S
C1392 C1391 1.349 . S
C1392 C1404 1.349 . S
C1393 C1391 1.327 . S
C1393 C1409 1.429 . S
C1393 H1415 0.950 . S
C1394 H1390 0.949 . S
C1394 C1402 1.574 . S
C1394 C1410 1.368 . S
H1395 C1403 0.950 . S
H1396 C1401 0.950 . S
H1397 C1402 0.949 . S
H1398 C1404 0.950 . S
H1399 C1405 0.950 . S
H1400 C1406 0.949 . S
C1401 H1396 0.950 . S
C1401 C1403 1.327 . S
C1401 C1407 1.429 . S
C1402 C1394 1.574 . S
C1402 H1397 0.949 . S
C1402 C1408 1.368 . S
C1403 C1387 1.349 . S
C1403 H1395 0.950 . S
C1403 C1401 1.327 . S
C1404 C1392 1.349 . S
C1404 H1398 0.950 . S
C1404 C1405 1.327 . S
C1405 H1399 0.950 . S
C1405 C1404 1.327 . S
C1405 C1409 1.429 . S
C1406 C1389 1.574 . S
C1406 H1400 0.949 . S
C1406 C1410 1.368 . S
C1407 C1388 1.429 . S
C1407 C1401 1.429 . S
C1407 C1408 1.523 . S
C1408 C1389 1.368 . S
C1408 C1402 1.368 . S
C1408 C1407 1.523 . S
C1409 C1393 1.429 . S
C1409 C1405 1.429 . S
C1409 C1410 1.523 . S
C1410 C1394 1.368 . S
C1410 C1406 1.368 . S
C1410 C1409 1.523 . S
H1411 C1386 0.950 . S
H1412 C1388 0.950 . S
H1413 C1389 0.949 . S
H1414 C1391 0.950 . S
H1415 C1393 0.950 . S
C1416 C1417 1.349 . S
C1416 C1418 1.327 . S
C1416 H1441 0.950 . S
C1417 C1416 1.349 . S
C1417 C1433 1.349 . S
C1418 C1416 1.327 . S
C1418 C1437 1.429 . S
C1418 H1442 0.950 . S
C1419 C1436 1.574 . S
C1419 C1438 1.368 . S
C1419 H1443 0.949 . S
H1420 C1424 0.949 . S
C1421 C1422 1.349 . S
C1421 C1423 1.327 . S
C1421 H1444 0.950 . S
C1422 C1421 1.349 . S
C1422 C1434 1.349 . S
C1423 C1421 1.327 . S
C1423 C1439 1.429 . S
C1423 H1445 0.950 . S
C1424 H1420 0.949 . S
C1424 C1432 1.574 . S
C1424 C1440 1.368 . S
H1425 C1433 0.950 . S
H1426 C1431 0.950 . S
H1427 C1432 0.949 . S
H1428 C1434 0.950 . S
H1429 C1435 0.950 . S
H1430 C1436 0.949 . S
C1431 H1426 0.950 . S
C1431 C1433 1.327 . S
C1431 C1437 1.429 . S
C1432 C1424 1.574 . S
C1432 H1427 0.949 . S
C1432 C1438 1.368 . S
C1433 C1417 1.349 . S
C1433 H1425 0.950 . S
C1433 C1431 1.327 . S
C1434 C1422 1.349 . S
C1434 H1428 0.950 . S
C1434 C1435 1.327 . S
C1435 H1429 0.950 . S
C1435 C1434 1.327 . S
C1435 C1439 1.429 . S
C1436 C1419 1.574 . S
C1436 H1430 0.949 . S
C1436 C1440 1.368 . S
C1437 C1418 1.429 . S
C1437 C1431 1.429 . S
C1437 C1438 1.523 . S
C1438 C1419 1.368 . S
C1438 C1432 1.368 . S
C1438 C1437 1.523 . S
C1439 C1423 1.429 . S
C1439 C1435 1.429 . S
C1439 C1440 1.523 . S
C1440 C1424 1.368 . S
C1440 C1436 1.368 . S
C1440 C1439 1.523 . S
H1441 C1416 0.950 . S
H1442 C1418 0.950 . S
H1443 C1419 0.949 . S
H1444 C1421 0.950 . S
H1445 C1423 0.950 . S
C1446 C1447 1.349 . S
C1446 C1448 1.327 . S
C1446 H1471 0.950 . S
C1447 C1446 1.349 . S
C1447 C1463 1.349 . S
C1448 C1446 1.327 . S
C1448 C1467 1.429 . S
C1448 H1472 0.950 . S
C1449 C1466 1.574 . S
C1449 C1468 1.368 . S
C1449 H1473 0.949 . S
H1450 C1454 0.949 . S
C1451 C1452 1.349 . S
C1451 C1453 1.327 . S
C1451 H1474 0.950 . S
C1452 C1451 1.349 . S
C1452 C1464 1.349 . S
C1453 C1451 1.327 . S
C1453 C1469 1.429 . S
C1453 H1475 0.950 . S
C1454 H1450 0.949 . S
C1454 C1462 1.574 . S
C1454 C1470 1.368 . S
H1455 C1463 0.950 . S
H1456 C1461 0.950 . S
H1457 C1462 0.949 . S
H1458 C1464 0.950 . S
H1459 C1465 0.950 . S
H1460 C1466 0.949 . S
C1461 H1456 0.950 . S
C1461 C1463 1.327 . S
C1461 C1467 1.429 . S
C1462 C1454 1.574 . S
C1462 H1457 0.949 . S
C1462 C1468 1.368 . S
C1463 C1447 1.349 . S
C1463 H1455 0.950 . S
C1463 C1461 1.327 . S
C1464 C1452 1.349 . S
C1464 H1458 0.950 . S
C1464 C1465 1.327 . S
C1465 H1459 0.950 . S
C1465 C1464 1.327 . S
C1465 C1469 1.429 . S
C1466 C1449 1.574 . S
C1466 H1460 0.949 . S
C1466 C1470 1.368 . S
C1467 C1448 1.429 . S
C1467 C1461 1.429 . S
C1467 C1468 1.523 . S
C1468 C1449 1.368 . S
C1468 C1462 1.368 . S
C1468 C1467 1.523 . S
C1469 C1453 1.429 . S
C1469 C1465 1.429 . S
C1469 C1470 1.523 . S
C1470 C1454 1.368 . S
C1470 C1466 1.368 . S
C1470 C1469 1.523 . S
H1471 C1446 0.950 . S
H1472 C1448 0.950 . S
H1473 C1449 0.949 . S
H1474 C1451 0.950 . S
H1475 C1453 0.950 . S
C1476 C1477 1.349 . S
C1476 C1478 1.327 . S
C1476 H1501 0.950 . S
C1477 C1476 1.349 . S
C1477 C1493 1.349 . S
C1478 C1476 1.327 . S
C1478 C1497 1.429 . S
C1478 H1502 0.950 . S
C1479 C1496 1.574 . S
C1479 C1498 1.368 . S
C1479 H1503 0.949 . S
H1480 C1484 0.949 . S
C1481 C1482 1.349 . S
C1481 C1483 1.327 . S
C1481 H1504 0.950 . S
C1482 C1481 1.349 . S
C1482 C1494 1.349 . S
C1483 C1481 1.327 . S
C1483 C1499 1.429 . S
C1483 H1505 0.950 . S
C1484 H1480 0.949 . S
C1484 C1492 1.574 . S
C1484 C1500 1.368 . S
H1485 C1493 0.950 . S
H1486 C1491 0.950 . S
H1487 C1492 0.949 . S
H1488 C1494 0.950 . S
H1489 C1495 0.950 . S
H1490 C1496 0.949 . S
C1491 H1486 0.950 . S
C1491 C1493 1.327 . S
C1491 C1497 1.429 . S
C1492 C1484 1.574 . S
C1492 H1487 0.949 . S
C1492 C1498 1.368 . S
C1493 C1477 1.349 . S
C1493 H1485 0.950 . S
C1493 C1491 1.327 . S
C1494 C1482 1.349 . S
C1494 H1488 0.950 . S
C1494 C1495 1.327 . S
C1495 H1489 0.950 . S
C1495 C1494 1.327 . S
C1495 C1499 1.429 . S
C1496 C1479 1.574 . S
C1496 H1490 0.949 . S
C1496 C1500 1.368 . S
C1497 C1478 1.429 . S
C1497 C1491 1.429 . S
C1497 C1498 1.523 . S
C1498 C1479 1.368 . S
C1498 C1492 1.368 . S
C1498 C1497 1.523 . S
C1499 C1483 1.429 . S
C1499 C1495 1.429 . S
C1499 C1500 1.523 . S
C1500 C1484 1.368 . S
C1500 C1496 1.368 . S
C1500 C1499 1.523 . S
H1501 C1476 0.950 . S
H1502 C1478 0.950 . S
H1503 C1479 0.949 . S
H1504 C1481 0.950 . S
H1505 C1483 0.950 . S
C1506 C1507 1.349 . S
C1506 C1508 1.327 . S
C1506 H1531 0.950 . S
C1507 C1506 1.349 . S
C1507 C1523 1.349 . S
C1508 C1506 1.327 . S
C1508 C1527 1.429 . S
C1508 H1532 0.950 . S
C1509 C1526 1.574 . S
C1509 C1528 1.368 . S
C1509 H1533 0.949 . S
H1510 C1514 0.949 . S
C1511 C1512 1.349 . S
C1511 C1513 1.327 . S
C1511 H1534 0.950 . S
C1512 C1511 1.349 . S
C1512 C1524 1.349 . S
C1513 C1511 1.327 . S
C1513 C1529 1.429 . S
C1513 H1535 0.950 . S
C1514 H1510 0.949 . S
C1514 C1522 1.574 . S
C1514 C1530 1.368 . S
H1515 C1523 0.948 1_455 S
H1516 C1521 0.950 . S
H1517 C1522 0.949 . S
H1518 C1524 0.950 . S
H1519 C1525 0.950 . S
H1520 C1526 0.949 . S
C1521 H1516 0.950 . S
C1521 C1523 1.327 . S
C1521 C1527 1.429 . S
C1522 C1514 1.574 . S
C1522 H1517 0.949 . S
C1522 C1528 1.368 . S
C1523 C1507 1.349 . S
C1523 H1515 0.948 1_655 S
C1523 C1521 1.327 . S
C1524 C1512 1.349 . S
C1524 H1518 0.950 . S
C1524 C1525 1.327 . S
C1525 H1519 0.950 . S
C1525 C1524 1.327 . S
C1525 C1529 1.429 . S
C1526 C1509 1.574 . S
C1526 H1520 0.949 . S
C1526 C1530 1.368 . S
C1527 C1508 1.429 . S
C1527 C1521 1.429 . S
C1527 C1528 1.523 . S
C1528 C1509 1.368 . S
C1528 C1522 1.368 . S
C1528 C1527 1.523 . S
C1529 C1513 1.429 . S
C1529 C1525 1.429 . S
C1529 C1530 1.523 . S
C1530 C1514 1.368 . S
C1530 C1526 1.368 . S
C1530 C1529 1.523 . S
H1531 C1506 0.950 . S
H1532 C1508 0.950 . S
H1533 C1509 0.949 . S
H1534 C1511 0.950 . S
H1535 C1513 0.950 . S
C1536 C1537 1.349 . S
C1536 C1538 1.327 . S
C1536 H1561 0.950 . S
C1537 C1536 1.349 . S
C1537 C1553 1.349 . S
C1538 C1536 1.327 . S
C1538 C1557 1.429 . S
C1538 H1562 0.950 . S
C1539 C1556 1.574 . S
C1539 C1558 1.368 . S
C1539 H1563 0.949 . S
H1540 C1544 0.949 . S
C1541 C1542 1.349 . S
C1541 C1543 1.327 . S
C1541 H1564 0.950 . S
C1542 C1541 1.349 . S
C1542 C1554 1.349 . S
C1543 C1541 1.327 . S
C1543 C1559 1.429 . S
C1543 H1565 0.950 . S
C1544 H1540 0.949 . S
C1544 C1552 1.574 . S
C1544 C1560 1.368 . S
H1545 C1553 0.950 . S
H1546 C1551 0.950 . S
H1547 C1552 0.949 . S
H1548 C1554 0.950 . S
H1549 C1555 0.950 . S
H1550 C1556 0.949 . S
C1551 H1546 0.950 . S
C1551 C1553 1.327 . S
C1551 C1557 1.429 . S
C1552 C1544 1.574 . S
C1552 H1547 0.949 . S
C1552 C1558 1.368 . S
C1553 C1537 1.349 . S
C1553 H1545 0.950 . S
C1553 C1551 1.327 . S
C1554 C1542 1.349 . S
C1554 H1548 0.950 . S
C1554 C1555 1.327 . S
C1555 H1549 0.950 . S
C1555 C1554 1.327 . S
C1555 C1559 1.429 . S
C1556 C1539 1.574 . S
C1556 H1550 0.949 . S
C1556 C1560 1.368 . S
C1557 C1538 1.429 . S
C1557 C1551 1.429 . S
C1557 C1558 1.523 . S
C1558 C1539 1.368 . S
C1558 C1552 1.368 . S
C1558 C1557 1.523 . S
C1559 C1543 1.429 . S
C1559 C1555 1.429 . S
C1559 C1560 1.523 . S
C1560 C1544 1.368 . S
C1560 C1556 1.368 . S
C1560 C1559 1.523 . S
H1561 C1536 0.950 . S
H1562 C1538 0.950 . S
H1563 C1539 0.949 . S
H1564 C1541 0.950 . S
H1565 C1543 0.950 . S
C1566 C1567 1.349 . S
C1566 C1568 1.327 . S
C1566 H1591 0.950 . S
C1567 C1566 1.349 . S
C1567 C1583 1.349 . S
C1568 C1566 1.327 . S
C1568 C1587 1.429 . S
C1568 H1592 0.950 . S
C1569 C1586 1.574 . S
C1569 C1588 1.368 . S
C1569 H1593 0.949 . S
H1570 C1574 0.949 . S
C1571 C1572 1.349 . S
C1571 C1573 1.327 . S
C1571 H1594 0.950 . S
C1572 C1571 1.349 . S
C1572 C1584 1.349 . S
C1573 C1571 1.327 . S
C1573 C1589 1.429 . S
C1573 H1595 0.950 . S
C1574 H1570 0.949 . S
C1574 C1582 1.574 . S
C1574 C1590 1.368 . S
H1575 C1583 0.950 . S
H1576 C1581 0.950 . S
H1577 C1582 0.949 . S
H1578 C1584 0.950 . S
H1579 C1585 0.950 . S
H1580 C1586 0.949 . S
C1581 H1576 0.950 . S
C1581 C1583 1.327 . S
C1581 C1587 1.429 . S
C1582 C1574 1.574 . S
C1582 H1577 0.949 . S
C1582 C1588 1.368 . S
C1583 C1567 1.349 . S
C1583 H1575 0.950 . S
C1583 C1581 1.327 . S
C1584 C1572 1.349 . S
C1584 H1578 0.950 . S
C1584 C1585 1.327 . S
C1585 H1579 0.950 . S
C1585 C1584 1.327 . S
C1585 C1589 1.429 . S
C1586 C1569 1.574 . S
C1586 H1580 0.949 . S
C1586 C1590 1.368 . S
C1587 C1568 1.429 . S
C1587 C1581 1.429 . S
C1587 C1588 1.523 . S
C1588 C1569 1.368 . S
C1588 C1582 1.368 . S
C1588 C1587 1.523 . S
C1589 C1573 1.429 . S
C1589 C1585 1.429 . S
C1589 C1590 1.523 . S
C1590 C1574 1.368 . S
C1590 C1586 1.368 . S
C1590 C1589 1.523 . S
H1591 C1566 0.950 . S
H1592 C1568 0.950 . S
H1593 C1569 0.949 . S
H1594 C1571 0.950 . S
H1595 C1573 0.950 . S
C1596 C1597 1.349 . S
C1596 C1598 1.327 . S
C1596 H1621 0.950 . S
C1597 C1596 1.349 . S
C1597 C1613 1.349 . S
C1598 C1596 1.327 . S
C1598 C1617 1.429 . S
C1598 H1622 0.950 . S
C1599 C1616 1.574 . S
C1599 C1618 1.368 . S
C1599 H1623 0.949 . S
H1600 C1604 0.949 . S
C1601 C1602 1.349 . S
C1601 C1603 1.327 . S
C1601 H1624 0.950 . S
C1602 C1601 1.349 . S
C1602 C1614 1.349 . S
C1603 C1601 1.327 . S
C1603 C1619 1.429 . S
C1603 H1625 0.950 . S
C1604 H1600 0.949 . S
C1604 C1612 1.574 . S
C1604 C1620 1.368 . S
H1605 C1613 0.950 . S
H1606 C1611 0.950 . S
H1607 C1612 0.949 . S
H1608 C1614 0.950 . S
H1609 C1615 0.950 . S
H1610 C1616 0.949 . S
C1611 H1606 0.950 . S
C1611 C1613 1.327 . S
C1611 C1617 1.429 . S
C1612 C1604 1.574 . S
C1612 H1607 0.949 . S
C1612 C1618 1.368 . S
C1613 C1597 1.349 . S
C1613 H1605 0.950 . S
C1613 C1611 1.327 . S
C1614 C1602 1.349 . S
C1614 H1608 0.950 . S
C1614 C1615 1.327 . S
C1615 H1609 0.950 . S
C1615 C1614 1.327 . S
C1615 C1619 1.429 . S
C1616 C1599 1.574 . S
C1616 H1610 0.949 . S
C1616 C1620 1.368 . S
C1617 C1598 1.429 . S
C1617 C1611 1.429 . S
C1617 C1618 1.523 . S
C1618 C1599 1.368 . S
C1618 C1612 1.368 . S
C1618 C1617 1.523 . S
C1619 C1603 1.429 . S
C1619 C1615 1.429 . S
C1619 C1620 1.523 . S
C1620 C1604 1.368 . S
C1620 C1616 1.368 . S
C1620 C1619 1.523 . S
H1621 C1596 0.950 . S
H1622 C1598 0.950 . S
H1623 C1599 0.949 . S
H1624 C1601 0.950 . S
H1625 C1603 0.950 . S
C1626 C1627 1.349 . S
C1626 C1628 1.327 . S
C1626 H1651 0.950 . S
C1627 C1626 1.349 . S
C1627 C1643 1.349 . S
C1628 C1626 1.327 . S
C1628 C1647 1.429 . S
C1628 H1652 0.950 . S
C1629 C1646 1.574 . S
C1629 C1648 1.368 . S
C1629 H1653 0.949 . S
H1630 C1634 0.949 . S
C1631 C1632 1.340 1_455 S
C1631 C1633 1.299 1_455 S
C1631 H1654 0.989 . S
C1632 C1631 1.340 1_655 S
C1632 C1644 1.349 . S
C1633 C1631 1.299 1_655 S
C1633 C1649 1.429 . S
C1633 H1655 0.950 . S
C1634 H1630 0.949 . S
C1634 C1642 1.574 . S
C1634 C1650 1.368 . S
H1635 C1643 0.950 . S
H1636 C1641 0.950 . S
H1637 C1642 0.949 . S
H1638 C1644 0.950 . S
H1639 C1645 0.950 . S
H1640 C1646 0.949 . S
C1641 H1636 0.950 . S
C1641 C1643 1.327 . S
C1641 C1647 1.429 . S
C1642 C1634 1.574 . S
C1642 H1637 0.949 . S
C1642 C1648 1.368 . S
C1643 C1627 1.349 . S
C1643 H1635 0.950 . S
C1643 C1641 1.327 . S
C1644 C1632 1.349 . S
C1644 H1638 0.950 . S
C1644 C1645 1.327 . S
C1645 H1639 0.950 . S
C1645 C1644 1.327 . S
C1645 C1649 1.429 . S
C1646 C1629 1.574 . S
C1646 H1640 0.949 . S
C1646 C1650 1.368 . S
C1647 C1628 1.429 . S
C1647 C1641 1.429 . S
C1647 C1648 1.523 . S
C1648 C1629 1.368 . S
C1648 C1642 1.368 . S
C1648 C1647 1.523 . S
C1649 C1633 1.429 . S
C1649 C1645 1.429 . S
C1649 C1650 1.523 . S
C1650 C1634 1.368 . S
C1650 C1646 1.368 . S
C1650 C1649 1.523 . S
H1651 C1626 0.950 . S
H1652 C1628 0.950 . S
H1653 C1629 0.949 . S
H1654 C1631 0.989 . S
H1655 C1633 0.950 . S
C1656 C1657 1.349 . S
C1656 C1658 1.327 . S
C1656 H1681 0.950 . S
C1657 C1656 1.349 . S
C1657 C1673 1.349 . S
C1658 C1656 1.327 . S
C1658 C1677 1.429 . S
C1658 H1682 0.950 . S
C1659 C1676 1.574 . S
C1659 C1678 1.368 . S
C1659 H1683 0.949 . S
H1660 C1664 0.949 . S
C1661 C1662 1.349 . S
C1661 C1663 1.327 . S
C1661 H1684 0.950 . S
C1662 C1661 1.349 . S
C1662 C1674 1.349 . S
C1663 C1661 1.327 . S
C1663 C1679 1.429 . S
C1663 H1685 0.950 . S
C1664 H1660 0.949 . S
C1664 C1672 1.574 . S
C1664 C1680 1.368 . S
H1665 C1673 0.950 . S
H1666 C1671 0.950 . S
H1667 C1672 0.949 . S
H1668 C1674 0.950 . S
H1669 C1675 0.950 . S
H1670 C1676 0.949 . S
C1671 H1666 0.950 . S
C1671 C1673 1.327 . S
C1671 C1677 1.429 . S
C1672 C1664 1.574 . S
C1672 H1667 0.949 . S
C1672 C1678 1.368 . S
C1673 C1657 1.349 . S
C1673 H1665 0.950 . S
C1673 C1671 1.327 . S
C1674 C1662 1.349 . S
C1674 H1668 0.950 . S
C1674 C1675 1.327 . S
C1675 H1669 0.950 . S
C1675 C1674 1.327 . S
C1675 C1679 1.429 . S
C1676 C1659 1.574 . S
C1676 H1670 0.949 . S
C1676 C1680 1.368 . S
C1677 C1658 1.429 . S
C1677 C1671 1.429 . S
C1677 C1678 1.523 . S
C1678 C1659 1.368 . S
C1678 C1672 1.368 . S
C1678 C1677 1.523 . S
C1679 C1663 1.429 . S
C1679 C1675 1.429 . S
C1679 C1680 1.523 . S
C1680 C1664 1.368 . S
C1680 C1676 1.368 . S
C1680 C1679 1.523 . S
H1681 C1656 0.950 . S
H1682 C1658 0.950 . S
H1683 C1659 0.949 . S
H1684 C1661 0.950 . S
H1685 C1663 0.950 . S
C1686 C1687 1.349 . S
C1686 C1688 1.327 . S
C1686 H1711 0.950 1_655 S
C1687 C1686 1.349 . S
C1687 C1703 1.349 . S
C1688 C1686 1.327 . S
C1688 C1707 1.429 . S
C1688 H1712 0.950 . S
C1689 C1706 1.574 . S
C1689 C1708 1.368 . S
C1689 H1713 0.949 . S
H1690 C1694 0.949 . S
C1691 C1692 1.349 . S
C1691 C1693 1.327 . S
C1691 H1714 0.950 . S
C1692 C1691 1.349 . S
C1692 C1704 1.349 . S
C1693 C1691 1.327 . S
C1693 C1709 1.429 . S
C1693 H1715 0.950 . S
C1694 H1690 0.949 . S
C1694 C1702 1.574 . S
C1694 C1710 1.368 . S
H1695 C1703 0.950 . S
H1696 C1701 0.950 . S
H1697 C1702 0.949 . S
H1698 C1704 0.950 . S
H1699 C1705 0.950 . S
H1700 C1706 0.949 . S
C1701 H1696 0.950 . S
C1701 C1703 1.327 . S
C1701 C1707 1.429 . S
C1702 C1694 1.574 . S
C1702 H1697 0.949 . S
C1702 C1708 1.368 . S
C1703 C1687 1.349 . S
C1703 H1695 0.950 . S
C1703 C1701 1.327 . S
C1704 C1692 1.349 . S
C1704 H1698 0.950 . S
C1704 C1705 1.327 . S
C1705 H1699 0.950 . S
C1705 C1704 1.327 . S
C1705 C1709 1.429 . S
C1706 C1689 1.574 . S
C1706 H1700 0.949 . S
C1706 C1710 1.368 . S
C1707 C1688 1.429 . S
C1707 C1701 1.429 . S
C1707 C1708 1.523 . S
C1708 C1689 1.368 . S
C1708 C1702 1.368 . S
C1708 C1707 1.523 . S
C1709 C1693 1.429 . S
C1709 C1705 1.429 . S
C1709 C1710 1.523 . S
C1710 C1694 1.368 . S
C1710 C1706 1.368 . S
C1710 C1709 1.523 . S
H1711 C1686 0.950 1_455 S
H1712 C1688 0.950 . S
H1713 C1689 0.949 . S
H1714 C1691 0.950 . S
H1715 C1693 0.950 . S
C1716 C1717 1.349 . S
C1716 C1718 1.327 . S
C1716 H1741 0.950 . S
C1717 C1716 1.349 . S
C1717 C1733 1.349 . S
C1718 C1716 1.327 . S
C1718 C1737 1.429 . S
C1718 H1742 0.950 . S
C1719 C1736 1.574 . S
C1719 C1738 1.368 . S
C1719 H1743 0.949 . S
H1720 C1724 0.949 . S
C1721 C1722 1.349 . S
C1721 C1723 1.327 . S
C1721 H1744 0.950 . S
C1722 C1721 1.349 . S
C1722 C1734 1.349 . S
C1723 C1721 1.327 . S
C1723 C1739 1.429 . S
C1723 H1745 0.950 . S
C1724 H1720 0.949 . S
C1724 C1732 1.574 . S
C1724 C1740 1.368 . S
H1725 C1733 0.950 . S
H1726 C1731 0.950 . S
H1727 C1732 0.949 . S
H1728 C1734 0.950 . S
H1729 C1735 0.950 . S
H1730 C1736 0.949 . S
C1731 H1726 0.950 . S
C1731 C1733 1.327 . S
C1731 C1737 1.429 . S
C1732 C1724 1.574 . S
C1732 H1727 0.949 . S
C1732 C1738 1.368 . S
C1733 C1717 1.349 . S
C1733 H1725 0.950 . S
C1733 C1731 1.327 . S
C1734 C1722 1.349 . S
C1734 H1728 0.950 . S
C1734 C1735 1.327 . S
C1735 H1729 0.950 . S
C1735 C1734 1.327 . S
C1735 C1739 1.429 . S
C1736 C1719 1.574 . S
C1736 H1730 0.949 . S
C1736 C1740 1.368 . S
C1737 C1718 1.429 . S
C1737 C1731 1.429 . S
C1737 C1738 1.523 . S
C1738 C1719 1.368 . S
C1738 C1732 1.368 . S
C1738 C1737 1.523 . S
C1739 C1723 1.429 . S
C1739 C1735 1.429 . S
C1739 C1740 1.523 . S
C1740 C1724 1.368 . S
C1740 C1736 1.368 . S
C1740 C1739 1.523 . S
H1741 C1716 0.950 . S
H1742 C1718 0.950 . S
H1743 C1719 0.949 . S
H1744 C1721 0.950 . S
H1745 C1723 0.950 . S
C1746 C1747 1.349 . S
C1746 C1748 1.327 . S
C1746 H1771 0.950 . S
C1747 C1746 1.349 . S
C1747 C1763 1.349 . S
C1748 C1746 1.327 . S
C1748 C1767 1.429 . S
C1748 H1772 0.950 . S
C1749 C1766 1.574 . S
C1749 C1768 1.368 . S
C1749 H1773 0.949 . S
H1750 C1754 0.949 . S
C1751 C1752 1.349 . S
C1751 C1753 1.327 . S
C1751 H1774 0.950 . S
C1752 C1751 1.349 . S
C1752 C1764 1.349 . S
C1753 C1751 1.327 . S
C1753 C1769 1.429 . S
C1753 H1775 0.950 . S
C1754 H1750 0.949 . S
C1754 C1762 1.574 . S
C1754 C1770 1.368 . S
H1755 C1763 0.950 . S
H1756 C1761 0.950 . S
H1757 C1762 0.949 . S
H1758 C1764 0.950 . S
H1759 C1765 0.950 . S
H1760 C1766 0.949 . S
C1761 H1756 0.950 . S
C1761 C1763 1.327 . S
C1761 C1767 1.429 . S
C1762 C1754 1.574 . S
C1762 H1757 0.949 . S
C1762 C1768 1.368 . S
C1763 C1747 1.349 . S
C1763 H1755 0.950 . S
C1763 C1761 1.327 . S
C1764 C1752 1.349 . S
C1764 H1758 0.950 . S
C1764 C1765 1.327 . S
C1765 H1759 0.950 . S
C1765 C1764 1.327 . S
C1765 C1769 1.429 . S
C1766 C1749 1.574 . S
C1766 H1760 0.949 . S
C1766 C1770 1.368 . S
C1767 C1748 1.429 . S
C1767 C1761 1.429 . S
C1767 C1768 1.523 . S
C1768 C1749 1.368 . S
C1768 C1762 1.368 . S
C1768 C1767 1.523 . S
C1769 C1753 1.429 . S
C1769 C1765 1.429 . S
C1769 C1770 1.523 . S
C1770 C1754 1.368 . S
C1770 C1766 1.368 . S
C1770 C1769 1.523 . S
H1771 C1746 0.950 . S
H1772 C1748 0.950 . S
H1773 C1749 0.949 . S
H1774 C1751 0.950 . S
H1775 C1753 0.950 . S
C1776 C1777 1.349 . S
C1776 C1778 1.327 . S
C1776 H1801 0.950 . S
C1777 C1776 1.349 . S
C1777 C1793 1.349 . S
C1778 C1776 1.327 . S
C1778 C1797 1.429 . S
C1778 H1802 0.950 . S
C1779 C1796 1.574 . S
C1779 C1798 1.368 . S
C1779 H1803 0.949 . S
H1780 C1784 0.949 . S
C1781 C1782 1.349 . S
C1781 C1783 1.327 . S
C1781 H1804 0.950 . S
C1782 C1781 1.349 . S
C1782 C1794 1.349 . S
C1783 C1781 1.327 . S
C1783 C1799 1.429 . S
C1783 H1805 0.950 . S
C1784 H1780 0.949 . S
C1784 C1792 1.574 . S
C1784 C1800 1.368 . S
H1785 C1793 0.950 . S
H1786 C1791 0.950 . S
H1787 C1792 0.949 . S
H1788 C1794 0.950 . S
H1789 C1795 0.950 . S
H1790 C1796 0.949 . S
C1791 H1786 0.950 . S
C1791 C1793 1.327 . S
C1791 C1797 1.429 . S
C1792 C1784 1.574 . S
C1792 H1787 0.949 . S
C1792 C1798 1.368 . S
C1793 C1777 1.349 . S
C1793 H1785 0.950 . S
C1793 C1791 1.327 . S
C1794 C1782 1.349 . S
C1794 H1788 0.950 . S
C1794 C1795 1.327 . S
C1795 H1789 0.950 . S
C1795 C1794 1.327 . S
C1795 C1799 1.429 . S
C1796 C1779 1.574 . S
C1796 H1790 0.949 . S
C1796 C1800 1.368 . S
C1797 C1778 1.429 . S
C1797 C1791 1.429 . S
C1797 C1798 1.523 . S
C1798 C1779 1.368 . S
C1798 C1792 1.368 . S
C1798 C1797 1.523 . S
C1799 C1783 1.429 . S
C1799 C1795 1.429 . S
C1799 C1800 1.523 . S
C1800 C1784 1.368 . S
C1800 C1796 1.368 . S
C1800 C1799 1.523 . S
H1801 C1776 0.950 . S
H1802 C1778 0.950 . S
H1803 C1779 0.949 . S
H1804 C1781 0.950 . S
H1805 C1783 0.950 . S
C1806 C1807 1.349 . S
C1806 C1808 1.327 . S
C1806 H1831 0.950 . S
C1807 C1806 1.349 . S
C1807 C1823 1.349 . S
C1808 C1806 1.327 . S
C1808 C1827 1.429 . S
C1808 H1832 0.950 . S
C1809 C1826 1.574 . S
C1809 C1828 1.368 . S
C1809 H1833 0.949 . S
H1810 C1814 0.949 . S
C1811 C1812 1.349 . S
C1811 C1813 1.327 . S
C1811 H1834 0.950 . S
C1812 C1811 1.349 . S
C1812 C1824 1.349 . S
C1813 C1811 1.327 . S
C1813 C1829 1.429 . S
C1813 H1835 0.950 . S
C1814 H1810 0.949 . S
C1814 C1822 1.574 . S
C1814 C1830 1.368 . S
H1815 C1823 0.950 . S
H1816 C1821 0.950 . S
H1817 C1822 0.949 . S
H1818 C1824 0.950 . S
H1819 C1825 0.950 . S
H1820 C1826 0.949 . S
C1821 H1816 0.950 . S
C1821 C1823 1.327 . S
C1821 C1827 1.429 . S
C1822 C1814 1.574 . S
C1822 H1817 0.949 . S
C1822 C1828 1.368 . S
C1823 C1807 1.349 . S
C1823 H1815 0.950 . S
C1823 C1821 1.327 . S
C1824 C1812 1.349 . S
C1824 H1818 0.950 . S
C1824 C1825 1.327 . S
C1825 H1819 0.950 . S
C1825 C1824 1.327 . S
C1825 C1829 1.429 . S
C1826 C1809 1.574 . S
C1826 H1820 0.949 . S
C1826 C1830 1.368 . S
C1827 C1808 1.429 . S
C1827 C1821 1.429 . S
C1827 C1828 1.523 . S
C1828 C1809 1.368 . S
C1828 C1822 1.368 . S
C1828 C1827 1.523 . S
C1829 C1813 1.429 . S
C1829 C1825 1.429 . S
C1829 C1830 1.523 . S
C1830 C1814 1.368 . S
C1830 C1826 1.368 . S
C1830 C1829 1.523 . S
H1831 C1806 0.950 . S
H1832 C1808 0.950 . S
H1833 C1809 0.949 . S
H1834 C1811 0.950 . S
H1835 C1813 0.950 . S
C1836 C1837 1.349 . S
C1836 C1838 1.327 . S
C1836 H1861 0.950 . S
C1837 C1836 1.349 . S
C1837 C1853 1.349 . S
C1838 C1836 1.327 . S
C1838 C1857 1.429 . S
C1838 H1862 0.950 . S
C1839 C1856 1.574 . S
C1839 C1858 1.368 . S
C1839 H1863 0.949 . S
H1840 C1844 0.949 . S
C1841 C1842 1.349 . S
C1841 C1843 1.327 . S
C1841 H1864 0.950 . S
C1842 C1841 1.349 . S
C1842 C1854 1.349 . S
C1843 C1841 1.327 . S
C1843 C1859 1.429 . S
C1843 H1865 0.950 . S
C1844 H1840 0.949 . S
C1844 C1852 1.574 . S
C1844 C1860 1.368 . S
H1845 C1853 0.950 . S
H1846 C1851 0.950 . S
H1847 C1852 0.949 . S
H1848 C1854 0.950 . S
H1849 C1855 0.950 . S
H1850 C1856 0.949 . S
C1851 H1846 0.950 . S
C1851 C1853 1.327 . S
C1851 C1857 1.429 . S
C1852 C1844 1.574 . S
C1852 H1847 0.949 . S
C1852 C1858 1.368 . S
C1853 C1837 1.349 . S
C1853 H1845 0.950 . S
C1853 C1851 1.327 . S
C1854 C1842 1.349 . S
C1854 H1848 0.950 . S
C1854 C1855 1.327 . S
C1855 H1849 0.950 . S
C1855 C1854 1.327 . S
C1855 C1859 1.429 . S
C1856 C1839 1.574 . S
C1856 H1850 0.949 . S
C1856 C1860 1.368 . S
C1857 C1838 1.429 . S
C1857 C1851 1.429 . S
C1857 C1858 1.523 . S
C1858 C1839 1.368 . S
C1858 C1852 1.368 . S
C1858 C1857 1.523 . S
C1859 C1843 1.429 . S
C1859 C1855 1.429 . S
C1859 C1860 1.523 . S
C1860 C1844 1.368 . S
C1860 C1856 1.368 . S
C1860 C1859 1.523 . S
H1861 C1836 0.950 . S
H1862 C1838 0.950 . S
H1863 C1839 0.949 . S
H1864 C1841 0.950 . S
H1865 C1843 0.950 . S
C1866 C1867 1.349 . S
C1866 C1868 1.327 . S
C1866 H1891 0.950 . S
C1867 C1866 1.349 . S
C1867 C1883 1.349 . S
C1868 C1866 1.327 . S
C1868 C1887 1.429 . S
C1868 H1892 0.950 . S
C1869 C1886 1.574 . S
C1869 C1888 1.368 . S
C1869 H1893 0.949 . S
H1870 C1874 0.949 . S
C1871 C1872 1.349 . S
C1871 C1873 1.327 . S
C1871 H1894 0.950 . S
C1872 C1871 1.349 . S
C1872 C1884 1.349 . S
C1873 C1871 1.327 . S
C1873 C1889 1.429 . S
C1873 H1895 0.950 . S
C1874 H1870 0.949 . S
C1874 C1882 1.574 . S
C1874 C1890 1.368 . S
H1875 C1883 0.950 . S
H1876 C1881 0.950 . S
H1877 C1882 0.949 . S
H1878 C1884 0.950 . S
H1879 C1885 0.950 . S
H1880 C1886 0.949 . S
C1881 H1876 0.950 . S
C1881 C1883 1.327 . S
C1881 C1887 1.429 . S
C1882 C1874 1.574 . S
C1882 H1877 0.949 . S
C1882 C1888 1.368 . S
C1883 C1867 1.349 . S
C1883 H1875 0.950 . S
C1883 C1881 1.327 . S
C1884 C1872 1.349 . S
C1884 H1878 0.950 . S
C1884 C1885 1.327 . S
C1885 H1879 0.950 . S
C1885 C1884 1.327 . S
C1885 C1889 1.429 . S
C1886 C1869 1.574 . S
C1886 H1880 0.949 . S
C1886 C1890 1.368 . S
C1887 C1868 1.429 . S
C1887 C1881 1.429 . S
C1887 C1888 1.523 . S
C1888 C1869 1.368 . S
C1888 C1882 1.368 . S
C1888 C1887 1.523 . S
C1889 C1873 1.429 . S
C1889 C1885 1.429 . S
C1889 C1890 1.523 . S
C1890 C1874 1.368 . S
C1890 C1886 1.368 . S
C1890 C1889 1.523 . S
H1891 C1866 0.950 . S
H1892 C1868 0.950 . S
H1893 C1869 0.949 . S
H1894 C1871 0.950 . S
H1895 C1873 0.950 . S
C1896 C1897 1.349 . S
C1896 C1898 1.327 . S
C1896 H1921 0.950 . S
C1897 C1896 1.349 . S
C1897 C1913 1.349 . S
C1898 C1896 1.327 . S
C1898 C1917 1.429 . S
C1898 H1922 0.950 . S
C1899 C1916 1.574 . S
C1899 C1918 1.368 . S
C1899 H1923 0.949 . S
H1900 C1904 0.949 . S
C1901 C1902 1.349 . S
C1901 C1903 1.327 . S
C1901 H1924 0.950 . S
C1902 C1901 1.349 . S
C1902 C1914 1.349 . S
C1903 C1901 1.327 . S
C1903 C1919 1.429 . S
C1903 H1925 0.950 . S
C1904 H1900 0.949 . S
C1904 C1912 1.574 . S
C1904 C1920 1.368 . S
H1905 C1913 0.950 . S
H1906 C1911 0.950 . S
H1907 C1912 0.949 . S
H1908 C1914 0.950 . S
H1909 C1915 0.950 . S
H1910 C1916 0.949 . S
C1911 H1906 0.950 . S
C1911 C1913 1.327 . S
C1911 C1917 1.429 . S
C1912 C1904 1.574 . S
C1912 H1907 0.949 . S
C1912 C1918 1.368 . S
C1913 C1897 1.349 . S
C1913 H1905 0.950 . S
C1913 C1911 1.327 . S
C1914 C1902 1.349 . S
C1914 H1908 0.950 . S
C1914 C1915 1.327 . S
C1915 H1909 0.950 . S
C1915 C1914 1.327 . S
C1915 C1919 1.429 . S
C1916 C1899 1.574 . S
C1916 H1910 0.949 . S
C1916 C1920 1.368 . S
C1917 C1898 1.429 . S
C1917 C1911 1.429 . S
C1917 C1918 1.523 . S
C1918 C1899 1.368 . S
C1918 C1912 1.368 . S
C1918 C1917 1.523 . S
C1919 C1903 1.429 . S
C1919 C1915 1.429 . S
C1919 C1920 1.523 . S
C1920 C1904 1.368 . S
C1920 C1916 1.368 . S
C1920 C1919 1.523 . S
H1921 C1896 0.950 . S
H1922 C1898 0.950 . S
H1923 C1899 0.949 . S
H1924 C1901 0.950 . S
H1925 C1903 0.950 . S
C1926 C1927 1.349 . S
C1926 C1928 1.327 . S
C1926 H1951 0.950 . S
C1927 C1926 1.349 . S
C1927 C1943 1.349 . S
C1928 C1926 1.327 . S
C1928 C1947 1.429 . S
C1928 H1952 0.950 . S
C1929 C1946 1.574 . S
C1929 C1948 1.368 . S
C1929 H1953 0.949 . S
H1930 C1934 0.949 . S
C1931 C1932 1.349 . S
C1931 C1933 1.327 . S
C1931 H1954 0.950 . S
C1932 C1931 1.349 . S
C1932 C1944 1.349 . S
C1933 C1931 1.327 . S
C1933 C1949 1.429 . S
C1933 H1955 0.950 . S
C1934 H1930 0.949 . S
C1934 C1942 1.574 . S
C1934 C1950 1.368 . S
H1935 C1943 0.950 . S
H1936 C1941 0.950 . S
H1937 C1942 0.949 . S
H1938 C1944 0.948 1_655 S
H1939 C1945 0.950 . S
H1940 C1946 0.949 . S
C1941 H1936 0.950 . S
C1941 C1943 1.327 . S
C1941 C1947 1.429 . S
C1942 C1934 1.574 . S
C1942 H1937 0.949 . S
C1942 C1948 1.368 . S
C1943 C1927 1.349 . S
C1943 H1935 0.950 . S
C1943 C1941 1.327 . S
C1944 C1932 1.349 . S
C1944 H1938 0.948 1_455 S
C1944 C1945 1.329 . S
C1945 H1939 0.950 . S
C1945 C1944 1.329 . S
C1945 C1949 1.429 . S
C1946 C1929 1.574 . S
C1946 H1940 0.949 . S
C1946 C1950 1.368 . S
C1947 C1928 1.429 . S
C1947 C1941 1.429 . S
C1947 C1948 1.523 . S
C1948 C1929 1.368 . S
C1948 C1942 1.368 . S
C1948 C1947 1.523 . S
C1949 C1933 1.429 . S
C1949 C1945 1.429 . S
C1949 C1950 1.523 . S
C1950 C1934 1.368 . S
C1950 C1946 1.368 . S
C1950 C1949 1.523 . S
H1951 C1926 0.950 . S
H1952 C1928 0.950 . S
H1953 C1929 0.949 . S
H1954 C1931 0.950 . S
H1955 C1933 0.950 . S
C1956 C1957 1.349 . S
C1956 C1958 1.327 . S
C1956 H1981 0.950 . S
C1957 C1956 1.349 . S
C1957 C1973 1.349 . S
C1958 C1956 1.327 . S
C1958 C1977 1.429 . S
C1958 H1982 0.950 . S
C1959 C1976 1.574 . S
C1959 C1978 1.368 . S
C1959 H1983 0.949 . S
H1960 C1964 0.949 . S
C1961 C1962 1.349 . S
C1961 C1963 1.327 . S
C1961 H1984 0.950 . S
C1962 C1961 1.349 . S
C1962 C1974 1.349 . S
C1963 C1961 1.327 . S
C1963 C1979 1.429 . S
C1963 H1985 0.950 . S
C1964 H1960 0.949 . S
C1964 C1972 1.574 . S
C1964 C1980 1.368 . S
H1965 C1973 0.950 . S
H1966 C1971 0.950 . S
H1967 C1972 0.949 . S
H1968 C1974 0.950 . S
H1969 C1975 0.950 . S
H1970 C1976 0.949 . S
C1971 H1966 0.950 . S
C1971 C1973 1.327 . S
C1971 C1977 1.429 . S
C1972 C1964 1.574 . S
C1972 H1967 0.949 . S
C1972 C1978 1.368 . S
C1973 C1957 1.349 . S
C1973 H1965 0.950 . S
C1973 C1971 1.327 . S
C1974 C1962 1.349 . S
C1974 H1968 0.950 . S
C1974 C1975 1.327 . S
C1975 H1969 0.950 . S
C1975 C1974 1.327 . S
C1975 C1979 1.429 . S
C1976 C1959 1.574 . S
C1976 H1970 0.949 . S
C1976 C1980 1.368 . S
C1977 C1958 1.429 . S
C1977 C1971 1.429 . S
C1977 C1978 1.523 . S
C1978 C1959 1.368 . S
C1978 C1972 1.368 . S
C1978 C1977 1.523 . S
C1979 C1963 1.429 . S
C1979 C1975 1.429 . S
C1979 C1980 1.523 . S
C1980 C1964 1.368 . S
C1980 C1976 1.368 . S
C1980 C1979 1.523 . S
H1981 C1956 0.950 . S
H1982 C1958 0.950 . S
H1983 C1959 0.949 . S
H1984 C1961 0.950 . S
H1985 C1963 0.950 . S
C1986 C1987 1.349 . S
C1986 C1988 1.327 . S
C1986 H2011 0.950 . S
C1987 C1986 1.349 . S
C1987 C2003 1.349 . S
C1988 C1986 1.327 . S
C1988 C2007 1.429 . S
C1988 H2012 0.950 . S
C1989 C2006 1.574 . S
C1989 C2008 1.368 . S
C1989 H2013 0.949 . S
H1990 C1994 0.949 . S
C1991 C1992 1.349 . S
C1991 C1993 1.327 . S
C1991 H2014 0.950 . S
C1992 C1991 1.349 . S
C1992 C2004 1.349 . S
C1993 C1991 1.327 . S
C1993 C2009 1.429 . S
C1993 H2015 0.950 . S
C1994 H1990 0.949 . S
C1994 C2002 1.574 . S
C1994 C2010 1.368 . S
H1995 C2003 0.950 . S
H1996 C2001 0.950 . S
H1997 C2002 0.949 . S
H1998 C2004 0.950 . S
H1999 C2005 0.950 . S
H2000 C2006 0.949 . S
C2001 H1996 0.950 . S
C2001 C2003 1.327 . S
C2001 C2007 1.429 . S
C2002 C1994 1.574 . S
C2002 H1997 0.949 . S
C2002 C2008 1.368 . S
C2003 C1987 1.349 . S
C2003 H1995 0.950 . S
C2003 C2001 1.327 . S
C2004 C1992 1.349 . S
C2004 H1998 0.950 . S
C2004 C2005 1.327 . S
C2005 H1999 0.950 . S
C2005 C2004 1.327 . S
C2005 C2009 1.429 . S
C2006 C1989 1.574 . S
C2006 H2000 0.949 . S
C2006 C2010 1.368 . S
C2007 C1988 1.429 . S
C2007 C2001 1.429 . S
C2007 C2008 1.523 . S
C2008 C1989 1.368 . S
C2008 C2002 1.368 . S
C2008 C2007 1.523 . S
C2009 C1993 1.429 . S
C2009 C2005 1.429 . S
C2009 C2010 1.523 . S
C2010 C1994 1.368 . S
C2010 C2006 1.368 . S
C2010 C2009 1.523 . S
H2011 C1986 0.950 . S
H2012 C1988 0.950 . S
H2013 C1989 0.949 . S
H2014 C1991 0.950 . S
H2015 C1993 0.950 . S
C2016 C2017 1.349 . S
C2016 C2018 1.327 . S
C2016 H2041 0.950 . S
C2017 C2016 1.349 . S
C2017 C2033 1.349 . S
C2018 C2016 1.327 . S
C2018 C2037 1.429 . S
C2018 H2042 0.950 . S
C2019 C2036 1.574 . S
C2019 C2038 1.368 . S
C2019 H2043 0.949 . S
H2020 C2024 0.949 . S
C2021 C2022 1.349 . S
C2021 C2023 1.327 . S
C2021 H2044 0.950 . S
C2022 C2021 1.349 . S
C2022 C2034 1.349 . S
C2023 C2021 1.327 . S
C2023 C2039 1.429 . S
C2023 H2045 0.950 . S
C2024 H2020 0.949 . S
C2024 C2032 1.574 . S
C2024 C2040 1.368 . S
H2025 C2033 0.950 . S
H2026 C2031 0.950 . S
H2027 C2032 0.949 . S
H2028 C2034 0.950 . S
H2029 C2035 0.950 . S
H2030 C2036 0.949 . S
C2031 H2026 0.950 . S
C2031 C2033 1.327 . S
C2031 C2037 1.429 . S
C2032 C2024 1.574 . S
C2032 H2027 0.949 . S
C2032 C2038 1.368 . S
C2033 C2017 1.349 . S
C2033 H2025 0.950 . S
C2033 C2031 1.327 . S
C2034 C2022 1.349 . S
C2034 H2028 0.950 . S
C2034 C2035 1.327 . S
C2035 H2029 0.950 . S
C2035 C2034 1.327 . S
C2035 C2039 1.429 . S
C2036 C2019 1.574 . S
C2036 H2030 0.949 . S
C2036 C2040 1.368 . S
C2037 C2018 1.429 . S
C2037 C2031 1.429 . S
C2037 C2038 1.523 . S
C2038 C2019 1.368 . S
C2038 C2032 1.368 . S
C2038 C2037 1.523 . S
C2039 C2023 1.429 . S
C2039 C2035 1.429 . S
C2039 C2040 1.523 . S
C2040 C2024 1.368 . S
C2040 C2036 1.368 . S
C2040 C2039 1.523 . S
H2041 C2016 0.950 . S
H2042 C2018 0.950 . S
H2043 C2019 0.949 . S
H2044 C2021 0.950 . S
H2045 C2023 0.950 . S
C2046 C2047 1.349 . S
C2046 C2048 1.327 . S
C2046 H2071 0.950 1_565 S
C2047 C2046 1.349 . S
C2047 C2063 1.349 . S
C2048 C2046 1.327 . S
C2048 C2067 1.429 . S
C2048 H2072 0.950 . S
C2049 C2066 1.574 . S
C2049 C2068 1.368 . S
C2049 H2073 0.949 . S
H2050 C2054 0.949 . S
C2051 C2052 1.349 . S
C2051 C2053 1.327 . S
C2051 H2074 0.950 . S
C2052 C2051 1.349 . S
C2052 C2064 1.349 . S
C2053 C2051 1.327 . S
C2053 C2069 1.429 . S
C2053 H2075 0.950 . S
C2054 H2050 0.949 . S
C2054 C2062 1.574 . S
C2054 C2070 1.368 . S
H2055 C2063 0.950 . S
H2056 C2061 0.950 . S
H2057 C2062 0.949 . S
H2058 C2064 0.950 . S
H2059 C2065 0.950 . S
H2060 C2066 0.949 . S
C2061 H2056 0.950 . S
C2061 C2063 1.327 . S
C2061 C2067 1.429 . S
C2062 C2054 1.574 . S
C2062 H2057 0.949 . S
C2062 C2068 1.368 . S
C2063 C2047 1.349 . S
C2063 H2055 0.950 . S
C2063 C2061 1.327 . S
C2064 C2052 1.349 . S
C2064 H2058 0.950 . S
C2064 C2065 1.327 . S
C2065 H2059 0.950 . S
C2065 C2064 1.327 . S
C2065 C2069 1.429 . S
C2066 C2049 1.574 . S
C2066 H2060 0.949 . S
C2066 C2070 1.368 . S
C2067 C2048 1.429 . S
C2067 C2061 1.429 . S
C2067 C2068 1.523 . S
C2068 C2049 1.368 . S
C2068 C2062 1.368 . S
C2068 C2067 1.523 . S
C2069 C2053 1.429 . S
C2069 C2065 1.429 . S
C2069 C2070 1.523 . S
C2070 C2054 1.368 . S
C2070 C2066 1.368 . S
C2070 C2069 1.523 . S
H2071 C2046 0.950 1_545 S
H2072 C2048 0.950 . S
H2073 C2049 0.949 . S
H2074 C2051 0.950 . S
H2075 C2053 0.950 . S
C2076 C2077 1.349 . S
C2076 C2078 1.327 . S
C2076 H2101 0.950 . S
C2077 C2076 1.349 . S
C2077 C2093 1.349 . S
C2078 C2076 1.327 . S
C2078 C2097 1.429 . S
C2078 H2102 0.950 . S
C2079 C2096 1.574 . S
C2079 C2098 1.368 . S
C2079 H2103 0.949 . S
H2080 C2084 0.949 . S
C2081 C2082 1.349 . S
C2081 C2083 1.327 . S
C2081 H2104 0.950 . S
C2082 C2081 1.349 . S
C2082 C2094 1.349 . S
C2083 C2081 1.327 . S
C2083 C2099 1.429 . S
C2083 H2105 0.950 . S
C2084 H2080 0.949 . S
C2084 C2092 1.574 . S
C2084 C2100 1.368 . S
H2085 C2093 0.950 . S
H2086 C2091 0.950 . S
H2087 C2092 0.949 . S
H2088 C2094 0.950 . S
H2089 C2095 0.950 . S
H2090 C2096 0.949 . S
C2091 H2086 0.950 . S
C2091 C2093 1.327 . S
C2091 C2097 1.429 . S
C2092 C2084 1.574 . S
C2092 H2087 0.949 . S
C2092 C2098 1.368 . S
C2093 C2077 1.349 . S
C2093 H2085 0.950 . S
C2093 C2091 1.327 . S
C2094 C2082 1.349 . S
C2094 H2088 0.950 . S
C2094 C2095 1.327 . S
C2095 H2089 0.950 . S
C2095 C2094 1.327 . S
C2095 C2099 1.429 . S
C2096 C2079 1.574 . S
C2096 H2090 0.949 . S
C2096 C2100 1.368 . S
C2097 C2078 1.429 . S
C2097 C2091 1.429 . S
C2097 C2098 1.523 . S
C2098 C2079 1.368 . S
C2098 C2092 1.368 . S
C2098 C2097 1.523 . S
C2099 C2083 1.429 . S
C2099 C2095 1.429 . S
C2099 C2100 1.523 . S
C2100 C2084 1.368 . S
C2100 C2096 1.368 . S
C2100 C2099 1.523 . S
H2101 C2076 0.950 . S
H2102 C2078 0.950 . S
H2103 C2079 0.949 . S
H2104 C2081 0.950 . S
H2105 C2083 0.950 . S
C2106 C2107 1.349 . S
C2106 C2108 1.327 . S
C2106 H2131 0.950 . S
C2107 C2106 1.349 . S
C2107 C2123 1.349 . S
C2108 C2106 1.327 . S
C2108 C2127 1.429 . S
C2108 H2132 0.950 . S
C2109 C2126 1.574 . S
C2109 C2128 1.368 . S
C2109 H2133 0.949 . S
H2110 C2114 0.949 . S
C2111 C2112 1.349 . S
C2111 C2113 1.327 . S
C2111 H2134 0.950 . S
C2112 C2111 1.349 . S
C2112 C2124 1.349 . S
C2113 C2111 1.327 . S
C2113 C2129 1.429 . S
C2113 H2135 0.950 . S
C2114 H2110 0.949 . S
C2114 C2122 1.574 . S
C2114 C2130 1.368 . S
H2115 C2123 0.950 . S
H2116 C2121 0.950 . S
H2117 C2122 0.949 . S
H2118 C2124 0.950 1_565 S
H2119 C2125 0.950 . S
H2120 C2126 0.949 . S
C2121 H2116 0.950 . S
C2121 C2123 1.327 . S
C2121 C2127 1.429 . S
C2122 C2114 1.574 . S
C2122 H2117 0.949 . S
C2122 C2128 1.368 . S
C2123 C2107 1.349 . S
C2123 H2115 0.950 . S
C2123 C2121 1.327 . S
C2124 C2112 1.349 . S
C2124 H2118 0.950 1_545 S
C2124 C2125 1.327 . S
C2125 H2119 0.950 . S
C2125 C2124 1.327 . S
C2125 C2129 1.429 . S
C2126 C2109 1.574 . S
C2126 H2120 0.949 . S
C2126 C2130 1.368 . S
C2127 C2108 1.429 . S
C2127 C2121 1.429 . S
C2127 C2128 1.523 . S
C2128 C2109 1.368 . S
C2128 C2122 1.368 . S
C2128 C2127 1.523 . S
C2129 C2113 1.429 . S
C2129 C2125 1.429 . S
C2129 C2130 1.523 . S
C2130 C2114 1.368 . S
C2130 C2126 1.368 . S
C2130 C2129 1.523 . S
H2131 C2106 0.950 . S
H2132 C2108 0.950 . S
H2133 C2109 0.949 . S
H2134 C2111 0.950 . S
H2135 C2113 0.950 . S
C2136 C2137 1.349 . S
C2136 C2138 1.327 . S
C2136 H2161 0.950 . S
C2137 C2136 1.349 . S
C2137 C2153 1.349 . S
C2138 C2136 1.327 . S
C2138 C2157 1.429 . S
C2138 H2162 0.950 . S
C2139 C2156 1.574 . S
C2139 C2158 1.368 . S
C2139 H2163 0.949 . S
H2140 C2144 0.949 . S
C2141 C2142 1.349 . S
C2141 C2143 1.327 . S
C2141 H2164 0.950 . S
C2142 C2141 1.349 . S
C2142 C2154 1.349 . S
C2143 C2141 1.327 . S
C2143 C2159 1.429 . S
C2143 H2165 0.950 . S
C2144 H2140 0.949 . S
C2144 C2152 1.574 . S
C2144 C2160 1.368 . S
H2145 C2153 0.950 . S
H2146 C2151 0.950 . S
H2147 C2152 0.949 . S
H2148 C2154 0.950 . S
H2149 C2155 0.950 . S
H2150 C2156 0.949 . S
C2151 H2146 0.950 . S
C2151 C2153 1.327 . S
C2151 C2157 1.429 . S
C2152 C2144 1.574 . S
C2152 H2147 0.949 . S
C2152 C2158 1.368 . S
C2153 C2137 1.349 . S
C2153 H2145 0.950 . S
C2153 C2151 1.327 . S
C2154 C2142 1.349 . S
C2154 H2148 0.950 . S
C2154 C2155 1.327 . S
C2155 H2149 0.950 . S
C2155 C2154 1.327 . S
C2155 C2159 1.429 . S
C2156 C2139 1.574 . S
C2156 H2150 0.949 . S
C2156 C2160 1.368 . S
C2157 C2138 1.429 . S
C2157 C2151 1.429 . S
C2157 C2158 1.523 . S
C2158 C2139 1.368 . S
C2158 C2152 1.368 . S
C2158 C2157 1.523 . S
C2159 C2143 1.429 . S
C2159 C2155 1.429 . S
C2159 C2160 1.523 . S
C2160 C2144 1.368 . S
C2160 C2156 1.368 . S
C2160 C2159 1.523 . S
H2161 C2136 0.950 . S
H2162 C2138 0.950 . S
H2163 C2139 0.949 . S
H2164 C2141 0.950 . S
H2165 C2143 0.950 . S
C2166 C2167 1.349 . S
C2166 C2168 1.327 . S
C2166 H2191 0.950 . S
C2167 C2166 1.349 . S
C2167 C2183 1.349 . S
C2168 C2166 1.327 . S
C2168 C2187 1.429 . S
C2168 H2192 0.950 . S
C2169 C2186 1.574 . S
C2169 C2188 1.368 . S
C2169 H2193 0.949 . S
H2170 C2174 0.949 . S
C2171 C2172 1.349 . S
C2171 C2173 1.327 . S
C2171 H2194 0.950 . S
C2172 C2171 1.349 . S
C2172 C2184 1.349 . S
C2173 C2171 1.327 . S
C2173 C2189 1.429 . S
C2173 H2195 0.950 . S
C2174 H2170 0.949 . S
C2174 C2182 1.574 . S
C2174 C2190 1.368 . S
H2175 C2183 0.950 . S
H2176 C2181 0.950 . S
H2177 C2182 0.949 . S
H2178 C2184 0.950 . S
H2179 C2185 0.950 . S
H2180 C2186 0.949 . S
C2181 H2176 0.950 . S
C2181 C2183 1.327 . S
C2181 C2187 1.429 . S
C2182 C2174 1.574 . S
C2182 H2177 0.949 . S
C2182 C2188 1.368 . S
C2183 C2167 1.349 . S
C2183 H2175 0.950 . S
C2183 C2181 1.327 . S
C2184 C2172 1.349 . S
C2184 H2178 0.950 . S
C2184 C2185 1.327 . S
C2185 H2179 0.950 . S
C2185 C2184 1.327 . S
C2185 C2189 1.429 . S
C2186 C2169 1.574 . S
C2186 H2180 0.949 . S
C2186 C2190 1.368 . S
C2187 C2168 1.429 . S
C2187 C2181 1.429 . S
C2187 C2188 1.523 . S
C2188 C2169 1.368 . S
C2188 C2182 1.368 . S
C2188 C2187 1.523 . S
C2189 C2173 1.429 . S
C2189 C2185 1.429 . S
C2189 C2190 1.523 . S
C2190 C2174 1.368 . S
C2190 C2186 1.368 . S
C2190 C2189 1.523 . S
H2191 C2166 0.950 . S
H2192 C2168 0.950 . S
H2193 C2169 0.949 . S
H2194 C2171 0.950 . S
H2195 C2173 0.950 . S
C2196 C2197 1.349 . S
C2196 C2198 1.327 . S
C2196 H2221 0.950 . S
C2197 C2196 1.349 . S
C2197 C2213 1.349 . S
C2198 C2196 1.327 . S
C2198 C2217 1.429 . S
C2198 H2222 0.950 . S
C2199 C2216 1.574 . S
C2199 C2218 1.368 . S
C2199 H2223 0.949 . S
H2200 C2204 0.949 . S
C2201 C2202 1.349 . S
C2201 C2203 1.327 . S
C2201 H2224 0.950 . S
C2202 C2201 1.349 . S
C2202 C2214 1.349 . S
C2203 C2201 1.327 . S
C2203 C2219 1.429 . S
C2203 H2225 0.950 . S
C2204 H2200 0.949 . S
C2204 C2212 1.574 . S
C2204 C2220 1.368 . S
H2205 C2213 0.950 1_545 S
H2206 C2211 0.950 . S
H2207 C2212 0.949 . S
H2208 C2214 0.950 . S
H2209 C2215 0.950 . S
H2210 C2216 0.949 . S
C2211 H2206 0.950 . S
C2211 C2213 1.327 . S
C2211 C2217 1.429 . S
C2212 C2204 1.574 . S
C2212 H2207 0.949 . S
C2212 C2218 1.368 . S
C2213 C2197 1.349 . S
C2213 H2205 0.950 1_565 S
C2213 C2211 1.327 . S
C2214 C2202 1.349 . S
C2214 H2208 0.950 . S
C2214 C2215 1.327 . S
C2215 H2209 0.950 . S
C2215 C2214 1.327 . S
C2215 C2219 1.429 . S
C2216 C2199 1.574 . S
C2216 H2210 0.949 . S
C2216 C2220 1.368 . S
C2217 C2198 1.429 . S
C2217 C2211 1.429 . S
C2217 C2218 1.523 . S
C2218 C2199 1.368 . S
C2218 C2212 1.368 . S
C2218 C2217 1.523 . S
C2219 C2203 1.429 . S
C2219 C2215 1.429 . S
C2219 C2220 1.523 . S
C2220 C2204 1.368 . S
C2220 C2216 1.368 . S
C2220 C2219 1.523 . S
H2221 C2196 0.950 . S
H2222 C2198 0.950 . S
H2223 C2199 0.949 . S
H2224 C2201 0.950 . S
H2225 C2203 0.950 . S
C2226 C2227 1.349 . S
C2226 C2228 1.327 . S
C2226 H2251 0.950 . S
C2227 C2226 1.349 . S
C2227 C2243 1.349 . S
C2228 C2226 1.327 . S
C2228 C2247 1.429 . S
C2228 H2252 0.950 . S
C2229 C2246 1.574 . S
C2229 C2248 1.368 . S
C2229 H2253 0.949 . S
H2230 C2234 0.949 . S
C2231 C2232 1.349 . S
C2231 C2233 1.327 . S
C2231 H2254 0.950 . S
C2232 C2231 1.349 . S
C2232 C2244 1.349 . S
C2233 C2231 1.327 . S
C2233 C2249 1.429 . S
C2233 H2255 0.950 . S
C2234 H2230 0.949 . S
C2234 C2242 1.574 . S
C2234 C2250 1.368 . S
H2235 C2243 0.950 . S
H2236 C2241 0.950 . S
H2237 C2242 0.949 . S
H2238 C2244 0.950 . S
H2239 C2245 0.950 . S
H2240 C2246 0.949 . S
C2241 H2236 0.950 . S
C2241 C2243 1.327 . S
C2241 C2247 1.429 . S
C2242 C2234 1.574 . S
C2242 H2237 0.949 . S
C2242 C2248 1.368 . S
C2243 C2227 1.349 . S
C2243 H2235 0.950 . S
C2243 C2241 1.327 . S
C2244 C2232 1.349 . S
C2244 H2238 0.950 . S
C2244 C2245 1.327 . S
C2245 H2239 0.950 . S
C2245 C2244 1.327 . S
C2245 C2249 1.429 . S
C2246 C2229 1.574 . S
C2246 H2240 0.949 . S
C2246 C2250 1.368 . S
C2247 C2228 1.429 . S
C2247 C2241 1.429 . S
C2247 C2248 1.523 . S
C2248 C2229 1.368 . S
C2248 C2242 1.368 . S
C2248 C2247 1.523 . S
C2249 C2233 1.429 . S
C2249 C2245 1.429 . S
C2249 C2250 1.523 . S
C2250 C2234 1.368 . S
C2250 C2246 1.368 . S
C2250 C2249 1.523 . S
H2251 C2226 0.950 . S
H2252 C2228 0.950 . S
H2253 C2229 0.949 . S
H2254 C2231 0.950 . S
H2255 C2233 0.950 . S
C2256 C2257 1.349 . S
C2256 C2258 1.327 . S
C2256 H2281 0.950 . S
C2257 C2256 1.349 . S
C2257 C2273 1.349 . S
C2258 C2256 1.327 . S
C2258 C2277 1.429 . S
C2258 H2282 0.950 . S
C2259 C2276 1.574 . S
C2259 C2278 1.368 . S
C2259 H2283 0.949 . S
H2260 C2264 0.949 . S
C2261 C2262 1.349 . S
C2261 C2263 1.327 . S
C2261 H2284 0.950 . S
C2262 C2261 1.349 . S
C2262 C2274 1.349 . S
C2263 C2261 1.327 . S
C2263 C2279 1.429 . S
C2263 H2285 0.950 . S
C2264 H2260 0.949 . S
C2264 C2272 1.574 . S
C2264 C2280 1.368 . S
H2265 C2273 0.950 . S
H2266 C2271 0.950 . S
H2267 C2272 0.949 . S
H2268 C2274 0.950 . S
H2269 C2275 0.950 . S
H2270 C2276 0.949 . S
C2271 H2266 0.950 . S
C2271 C2273 1.327 . S
C2271 C2277 1.429 . S
C2272 C2264 1.574 . S
C2272 H2267 0.949 . S
C2272 C2278 1.368 . S
C2273 C2257 1.349 . S
C2273 H2265 0.950 . S
C2273 C2271 1.327 . S
C2274 C2262 1.349 . S
C2274 H2268 0.950 . S
C2274 C2275 1.327 . S
C2275 H2269 0.950 . S
C2275 C2274 1.327 . S
C2275 C2279 1.429 . S
C2276 C2259 1.574 . S
C2276 H2270 0.949 . S
C2276 C2280 1.368 . S
C2277 C2258 1.429 . S
C2277 C2271 1.429 . S
C2277 C2278 1.523 . S
C2278 C2259 1.368 . S
C2278 C2272 1.368 . S
C2278 C2277 1.523 . S
C2279 C2263 1.429 . S
C2279 C2275 1.429 . S
C2279 C2280 1.523 . S
C2280 C2264 1.368 . S
C2280 C2276 1.368 . S
C2280 C2279 1.523 . S
H2281 C2256 0.950 . S
H2282 C2258 0.950 . S
H2283 C2259 0.949 . S
H2284 C2261 0.950 . S
H2285 C2263 0.950 . S
C2286 C2287 1.349 . S
C2286 C2288 1.327 . S
C2286 H2311 0.950 . S
C2287 C2286 1.349 . S
C2287 C2303 1.349 . S
C2288 C2286 1.327 . S
C2288 C2307 1.429 . S
C2288 H2312 0.950 . S
C2289 C2306 1.574 . S
C2289 C2308 1.368 . S
C2289 H2313 0.949 . S
H2290 C2294 0.949 . S
C2291 C2292 1.349 . S
C2291 C2293 1.327 . S
C2291 H2314 0.950 . S
C2292 C2291 1.349 . S
C2292 C2304 1.349 . S
C2293 C2291 1.327 . S
C2293 C2309 1.429 . S
C2293 H2315 0.950 . S
C2294 H2290 0.949 . S
C2294 C2302 1.574 . S
C2294 C2310 1.368 . S
H2295 C2303 0.950 . S
H2296 C2301 0.950 . S
H2297 C2302 0.949 . S
H2298 C2304 0.950 . S
H2299 C2305 0.950 . S
H2300 C2306 0.949 . S
C2301 H2296 0.950 . S
C2301 C2303 1.327 . S
C2301 C2307 1.429 . S
C2302 C2294 1.574 . S
C2302 H2297 0.949 . S
C2302 C2308 1.368 . S
C2303 C2287 1.349 . S
C2303 H2295 0.950 . S
C2303 C2301 1.327 . S
C2304 C2292 1.349 . S
C2304 H2298 0.950 . S
C2304 C2305 1.327 . S
C2305 H2299 0.950 . S
C2305 C2304 1.327 . S
C2305 C2309 1.429 . S
C2306 C2289 1.574 . S
C2306 H2300 0.949 . S
C2306 C2310 1.368 . S
C2307 C2288 1.429 . S
C2307 C2301 1.429 . S
C2307 C2308 1.523 . S
C2308 C2289 1.368 . S
C2308 C2302 1.368 . S
C2308 C2307 1.523 . S
C2309 C2293 1.429 . S
C2309 C2305 1.429 . S
C2309 C2310 1.523 . S
C2310 C2294 1.368 . S
C2310 C2306 1.368 . S
C2310 C2309 1.523 . S
H2311 C2286 0.950 . S
H2312 C2288 0.950 . S
H2313 C2289 0.949 . S
H2314 C2291 0.950 . S
H2315 C2293 0.950 . S
C2316 C2317 1.349 . S
C2316 C2318 1.327 . S
C2316 H2341 0.950 . S
C2317 C2316 1.349 . S
C2317 C2333 1.349 . S
C2318 C2316 1.327 . S
C2318 C2337 1.429 . S
C2318 H2342 0.950 . S
C2319 C2336 1.574 . S
C2319 C2338 1.368 . S
C2319 H2343 0.949 . S
H2320 C2324 0.949 . S
C2321 C2322 1.349 . S
C2321 C2323 1.327 . S
C2321 H2344 0.950 . S
C2322 C2321 1.349 . S
C2322 C2334 1.349 . S
C2323 C2321 1.327 . S
C2323 C2339 1.429 . S
C2323 H2345 0.950 . S
C2324 H2320 0.949 . S
C2324 C2332 1.574 . S
C2324 C2340 1.368 . S
H2325 C2333 0.950 . S
H2326 C2331 0.950 . S
H2327 C2332 0.949 . S
H2328 C2334 0.950 . S
H2329 C2335 0.950 . S
H2330 C2336 0.949 . S
C2331 H2326 0.950 . S
C2331 C2333 1.327 . S
C2331 C2337 1.429 . S
C2332 C2324 1.574 . S
C2332 H2327 0.949 . S
C2332 C2338 1.368 . S
C2333 C2317 1.349 . S
C2333 H2325 0.950 . S
C2333 C2331 1.327 . S
C2334 C2322 1.349 . S
C2334 H2328 0.950 . S
C2334 C2335 1.327 . S
C2335 H2329 0.950 . S
C2335 C2334 1.327 . S
C2335 C2339 1.429 . S
C2336 C2319 1.574 . S
C2336 H2330 0.949 . S
C2336 C2340 1.368 . S
C2337 C2318 1.429 . S
C2337 C2331 1.429 . S
C2337 C2338 1.523 . S
C2338 C2319 1.368 . S
C2338 C2332 1.368 . S
C2338 C2337 1.523 . S
C2339 C2323 1.429 . S
C2339 C2335 1.429 . S
C2339 C2340 1.523 . S
C2340 C2324 1.368 . S
C2340 C2336 1.368 . S
C2340 C2339 1.523 . S
H2341 C2316 0.950 . S
H2342 C2318 0.950 . S
H2343 C2319 0.949 . S
H2344 C2321 0.950 . S
H2345 C2323 0.950 . S
C2346 C2347 1.349 . S
C2346 C2348 1.327 . S
C2346 H2371 0.950 . S
C2347 C2346 1.349 . S
C2347 C2363 1.349 . S
C2348 C2346 1.327 . S
C2348 C2367 1.429 . S
C2348 H2372 0.950 . S
C2349 C2366 1.574 . S
C2349 C2368 1.368 . S
C2349 H2373 0.949 . S
H2350 C2354 0.949 . S
C2351 C2352 1.349 . S
C2351 C2353 1.327 . S
C2351 H2374 0.950 . S
C2352 C2351 1.349 . S
C2352 C2364 1.349 . S
C2353 C2351 1.327 . S
C2353 C2369 1.429 . S
C2353 H2375 0.950 . S
C2354 H2350 0.949 . S
C2354 C2362 1.574 . S
C2354 C2370 1.368 . S
H2355 C2363 0.950 . S
H2356 C2361 0.950 . S
H2357 C2362 0.949 . S
H2358 C2364 0.950 . S
H2359 C2365 0.950 . S
H2360 C2366 0.949 . S
C2361 H2356 0.950 . S
C2361 C2363 1.327 . S
C2361 C2367 1.429 . S
C2362 C2354 1.574 . S
C2362 H2357 0.949 . S
C2362 C2368 1.368 . S
C2363 C2347 1.349 . S
C2363 H2355 0.950 . S
C2363 C2361 1.327 . S
C2364 C2352 1.349 . S
C2364 H2358 0.950 . S
C2364 C2365 1.327 . S
C2365 H2359 0.950 . S
C2365 C2364 1.327 . S
C2365 C2369 1.429 . S
C2366 C2349 1.574 . S
C2366 H2360 0.949 . S
C2366 C2370 1.368 . S
C2367 C2348 1.429 . S
C2367 C2361 1.429 . S
C2367 C2368 1.523 . S
C2368 C2349 1.368 . S
C2368 C2362 1.368 . S
C2368 C2367 1.523 . S
C2369 C2353 1.429 . S
C2369 C2365 1.429 . S
C2369 C2370 1.523 . S
C2370 C2354 1.368 . S
C2370 C2366 1.368 . S
C2370 C2369 1.523 . S
H2371 C2346 0.950 . S
H2372 C2348 0.950 . S
H2373 C2349 0.949 . S
H2374 C2351 0.950 . S
H2375 C2353 0.950 . S
C2376 C2377 1.349 . S
C2376 C2378 1.327 . S
C2376 H2401 0.950 . S
C2377 C2376 1.349 . S
C2377 C2393 1.349 . S
C2378 C2376 1.327 . S
C2378 C2397 1.429 . S
C2378 H2402 0.950 . S
C2379 C2396 1.574 . S
C2379 C2398 1.368 . S
C2379 H2403 0.949 . S
H2380 C2384 0.949 . S
C2381 C2382 1.349 . S
C2381 C2383 1.327 . S
C2381 H2404 0.950 . S
C2382 C2381 1.349 . S
C2382 C2394 1.349 . S
C2383 C2381 1.327 . S
C2383 C2399 1.429 . S
C2383 H2405 0.950 . S
C2384 H2380 0.949 . S
C2384 C2392 1.574 . S
C2384 C2400 1.368 . S
H2385 C2393 0.950 . S
H2386 C2391 0.950 . S
H2387 C2392 0.949 . S
H2388 C2394 0.950 . S
H2389 C2395 0.950 . S
H2390 C2396 0.949 . S
C2391 H2386 0.950 . S
C2391 C2393 1.327 . S
C2391 C2397 1.429 . S
C2392 C2384 1.574 . S
C2392 H2387 0.949 . S
C2392 C2398 1.368 . S
C2393 C2377 1.349 . S
C2393 H2385 0.950 . S
C2393 C2391 1.327 . S
C2394 C2382 1.349 . S
C2394 H2388 0.950 . S
C2394 C2395 1.327 . S
C2395 H2389 0.950 . S
C2395 C2394 1.327 . S
C2395 C2399 1.429 . S
C2396 C2379 1.574 . S
C2396 H2390 0.949 . S
C2396 C2400 1.368 . S
C2397 C2378 1.429 . S
C2397 C2391 1.429 . S
C2397 C2398 1.523 . S
C2398 C2379 1.368 . S
C2398 C2392 1.368 . S
C2398 C2397 1.523 . S
C2399 C2383 1.429 . S
C2399 C2395 1.429 . S
C2399 C2400 1.523 . S
C2400 C2384 1.368 . S
C2400 C2396 1.368 . S
C2400 C2399 1.523 . S
H2401 C2376 0.950 . S
H2402 C2378 0.950 . S
H2403 C2379 0.949 . S
H2404 C2381 0.950 . S
H2405 C2383 0.950 . S
C2406 C2407 1.349 . S
C2406 C2408 1.327 . S
C2406 H2431 0.950 . S
C2407 C2406 1.349 . S
C2407 C2423 1.349 . S
C2408 C2406 1.327 . S
C2408 C2427 1.429 . S
C2408 H2432 0.950 . S
C2409 C2426 1.574 . S
C2409 C2428 1.368 . S
C2409 H2433 0.949 . S
H2410 C2414 0.949 . S
C2411 C2412 1.349 . S
C2411 C2413 1.327 . S
C2411 H2434 0.950 . S
C2412 C2411 1.349 . S
C2412 C2424 1.349 . S
C2413 C2411 1.327 . S
C2413 C2429 1.429 . S
C2413 H2435 0.950 . S
C2414 H2410 0.949 . S
C2414 C2422 1.574 . S
C2414 C2430 1.368 . S
H2415 C2423 0.950 . S
H2416 C2421 0.950 . S
H2417 C2422 0.949 . S
H2418 C2424 0.950 . S
H2419 C2425 0.950 . S
H2420 C2426 0.949 . S
C2421 H2416 0.950 . S
C2421 C2423 1.327 . S
C2421 C2427 1.429 . S
C2422 C2414 1.574 . S
C2422 H2417 0.949 . S
C2422 C2428 1.368 . S
C2423 C2407 1.349 . S
C2423 H2415 0.950 . S
C2423 C2421 1.327 . S
C2424 C2412 1.349 . S
C2424 H2418 0.950 . S
C2424 C2425 1.327 . S
C2425 H2419 0.950 . S
C2425 C2424 1.327 . S
C2425 C2429 1.429 . S
C2426 C2409 1.574 . S
C2426 H2420 0.949 . S
C2426 C2430 1.368 . S
C2427 C2408 1.429 . S
C2427 C2421 1.429 . S
C2427 C2428 1.523 . S
C2428 C2409 1.368 . S
C2428 C2422 1.368 . S
C2428 C2427 1.523 . S
C2429 C2413 1.429 . S
C2429 C2425 1.429 . S
C2429 C2430 1.523 . S
C2430 C2414 1.368 . S
C2430 C2426 1.368 . S
C2430 C2429 1.523 . S
H2431 C2406 0.950 . S
H2432 C2408 0.950 . S
H2433 C2409 0.949 . S
H2434 C2411 0.950 . S
H2435 C2413 0.950 . S
C2436 C2437 1.349 . S
C2436 C2438 1.327 . S
C2436 H2461 0.950 . S
C2437 C2436 1.349 . S
C2437 C2453 1.349 . S
C2438 C2436 1.327 . S
C2438 C2457 1.429 . S
C2438 H2462 0.950 . S
C2439 C2456 1.574 . S
C2439 C2458 1.368 . S
C2439 H2463 0.949 . S
H2440 C2444 0.949 . S
C2441 C2442 1.349 . S
C2441 C2443 1.327 . S
C2441 H2464 0.950 . S
C2442 C2441 1.349 . S
C2442 C2454 1.349 . S
C2443 C2441 1.327 . S
C2443 C2459 1.429 . S
C2443 H2465 0.950 . S
C2444 H2440 0.949 . S
C2444 C2452 1.574 . S
C2444 C2460 1.368 . S
H2445 C2453 0.950 . S
H2446 C2451 0.950 . S
H2447 C2452 0.949 . S
H2448 C2454 0.950 . S
H2449 C2455 0.950 . S
H2450 C2456 0.949 . S
C2451 H2446 0.950 . S
C2451 C2453 1.327 . S
C2451 C2457 1.429 . S
C2452 C2444 1.574 . S
C2452 H2447 0.949 . S
C2452 C2458 1.368 . S
C2453 C2437 1.349 . S
C2453 H2445 0.950 . S
C2453 C2451 1.327 . S
C2454 C2442 1.349 . S
C2454 H2448 0.950 . S
C2454 C2455 1.327 . S
C2455 H2449 0.950 . S
C2455 C2454 1.327 . S
C2455 C2459 1.429 . S
C2456 C2439 1.574 . S
C2456 H2450 0.949 . S
C2456 C2460 1.368 . S
C2457 C2438 1.429 . S
C2457 C2451 1.429 . S
C2457 C2458 1.523 . S
C2458 C2439 1.368 . S
C2458 C2452 1.368 . S
C2458 C2457 1.523 . S
C2459 C2443 1.429 . S
C2459 C2455 1.429 . S
C2459 C2460 1.523 . S
C2460 C2444 1.368 . S
C2460 C2456 1.368 . S
C2460 C2459 1.523 . S
H2461 C2436 0.950 . S
H2462 C2438 0.950 . S
H2463 C2439 0.949 . S
H2464 C2441 0.950 . S
H2465 C2443 0.950 . S
C2466 C2467 1.349 . S
C2466 C2468 1.327 . S
C2466 H2491 0.950 . S
C2467 C2466 1.349 . S
C2467 C2483 1.349 . S
C2468 C2466 1.327 . S
C2468 C2487 1.429 . S
C2468 H2492 0.950 . S
C2469 C2486 1.574 . S
C2469 C2488 1.368 . S
C2469 H2493 0.949 . S
H2470 C2474 0.949 . S
C2471 C2472 1.349 . S
C2471 C2473 1.327 . S
C2471 H2494 0.950 . S
C2472 C2471 1.349 . S
C2472 C2484 1.349 . S
C2473 C2471 1.327 . S
C2473 C2489 1.429 . S
C2473 H2495 0.950 . S
C2474 H2470 0.949 . S
C2474 C2482 1.574 . S
C2474 C2490 1.368 . S
H2475 C2483 0.950 . S
H2476 C2481 0.950 . S
H2477 C2482 0.949 . S
H2478 C2484 0.950 . S
H2479 C2485 0.950 . S
H2480 C2486 0.949 . S
C2481 H2476 0.950 . S
C2481 C2483 1.327 . S
C2481 C2487 1.429 . S
C2482 C2474 1.574 . S
C2482 H2477 0.949 . S
C2482 C2488 1.368 . S
C2483 C2467 1.349 . S
C2483 H2475 0.950 . S
C2483 C2481 1.327 . S
C2484 C2472 1.349 . S
C2484 H2478 0.950 . S
C2484 C2485 1.327 . S
C2485 H2479 0.950 . S
C2485 C2484 1.327 . S
C2485 C2489 1.429 . S
C2486 C2469 1.574 . S
C2486 H2480 0.949 . S
C2486 C2490 1.368 . S
C2487 C2468 1.429 . S
C2487 C2481 1.429 . S
C2487 C2488 1.523 . S
C2488 C2469 1.368 . S
C2488 C2482 1.368 . S
C2488 C2487 1.523 . S
C2489 C2473 1.429 . S
C2489 C2485 1.429 . S
C2489 C2490 1.523 . S
C2490 C2474 1.368 . S
C2490 C2486 1.368 . S
C2490 C2489 1.523 . S
H2491 C2466 0.950 . S
H2492 C2468 0.950 . S
H2493 C2469 0.949 . S
H2494 C2471 0.950 . S
H2495 C2473 0.950 . S
C2496 C2497 1.349 . S
C2496 C2498 1.327 . S
C2496 H2521 0.950 . S
C2497 C2496 1.349 . S
C2497 C2513 1.349 . S
C2498 C2496 1.327 . S
C2498 C2517 1.429 . S
C2498 H2522 0.950 . S
C2499 C2516 1.574 . S
C2499 C2518 1.368 1_565 S
C2499 H2523 0.949 . S
H2500 C2504 0.949 . S
C2501 C2502 1.349 . S
C2501 C2503 1.327 . S
C2501 H2524 0.950 . S
C2502 C2501 1.349 . S
C2502 C2514 1.349 . S
C2503 C2501 1.327 . S
C2503 C2519 1.429 . S
C2503 H2525 0.950 . S
C2504 H2500 0.949 . S
C2504 C2512 1.574 . S
C2504 C2520 1.368 1_545 S
H2505 C2513 0.950 1_565 S
H2506 C2511 0.932 1_565 S
H2507 C2512 0.949 . S
H2508 C2514 0.950 1_545 S
H2509 C2515 0.932 1_545 S
H2510 C2516 0.949 . S
C2511 H2506 0.932 1_545 S
C2511 C2513 1.333 . S
C2511 C2517 1.440 . S
C2512 C2504 1.574 . S
C2512 H2507 0.949 . S
C2512 C2518 1.368 . S
C2513 C2497 1.349 . S
C2513 H2505 0.950 1_545 S
C2513 C2511 1.333 . S
C2514 C2502 1.349 . S
C2514 H2508 0.950 1_565 S
C2514 C2515 1.333 . S
C2515 H2509 0.932 1_565 S
C2515 C2514 1.333 . S
C2515 C2519 1.440 . S
C2516 C2499 1.574 . S
C2516 H2510 0.949 . S
C2516 C2520 1.368 . S
C2517 C2498 1.429 . S
C2517 C2511 1.440 . S
C2517 C2518 1.523 . S
C2518 C2499 1.368 1_545 S
C2518 C2512 1.368 . S
C2518 C2517 1.523 . S
C2519 C2503 1.429 . S
C2519 C2515 1.440 . S
C2519 C2520 1.523 . S
C2520 C2504 1.368 1_565 S
C2520 C2516 1.368 . S
C2520 C2519 1.523 . S
H2521 C2496 0.950 . S
H2522 C2498 0.950 . S
H2523 C2499 0.949 . S
H2524 C2501 0.950 . S
H2525 C2503 0.950 . S
C2526 C2527 1.349 . S
C2526 C2528 1.327 . S
C2526 H2551 0.950 . S
C2527 C2526 1.349 . S
C2527 C2543 1.349 . S
C2528 C2526 1.327 . S
C2528 C2547 1.429 . S
C2528 H2552 0.950 . S
C2529 C2546 1.574 . S
C2529 C2548 1.368 . S
C2529 H2553 0.949 . S
H2530 C2534 0.949 . S
C2531 C2532 1.349 . S
C2531 C2533 1.327 . S
C2531 H2554 0.950 . S
C2532 C2531 1.349 . S
C2532 C2544 1.349 . S
C2533 C2531 1.327 . S
C2533 C2549 1.429 . S
C2533 H2555 0.950 . S
C2534 H2530 0.949 . S
C2534 C2542 1.574 . S
C2534 C2550 1.368 . S
H2535 C2543 0.950 . S
H2536 C2541 0.950 . S
H2537 C2542 0.949 . S
H2538 C2544 0.950 . S
H2539 C2545 0.950 . S
H2540 C2546 0.949 . S
C2541 H2536 0.950 . S
C2541 C2543 1.327 . S
C2541 C2547 1.429 . S
C2542 C2534 1.574 . S
C2542 H2537 0.949 . S
C2542 C2548 1.368 . S
C2543 C2527 1.349 . S
C2543 H2535 0.950 . S
C2543 C2541 1.327 . S
C2544 C2532 1.349 . S
C2544 H2538 0.950 . S
C2544 C2545 1.327 . S
C2545 H2539 0.950 . S
C2545 C2544 1.327 . S
C2545 C2549 1.429 . S
C2546 C2529 1.574 . S
C2546 H2540 0.949 . S
C2546 C2550 1.368 . S
C2547 C2528 1.429 . S
C2547 C2541 1.429 . S
C2547 C2548 1.523 . S
C2548 C2529 1.368 . S
C2548 C2542 1.368 . S
C2548 C2547 1.523 . S
C2549 C2533 1.429 . S
C2549 C2545 1.429 . S
C2549 C2550 1.523 . S
C2550 C2534 1.368 . S
C2550 C2546 1.368 . S
C2550 C2549 1.523 . S
H2551 C2526 0.950 . S
H2552 C2528 0.950 . S
H2553 C2529 0.949 . S
H2554 C2531 0.950 . S
H2555 C2533 0.950 . S
C2556 C2557 1.349 . S
C2556 C2558 1.327 . S
C2556 H2581 0.950 . S
C2557 C2556 1.349 . S
C2557 C2573 1.349 . S
C2558 C2556 1.327 . S
C2558 C2577 1.429 . S
C2558 H2582 0.950 . S
C2559 C2576 1.574 . S
C2559 C2578 1.368 1_565 S
C2559 H2583 0.949 . S
H2560 C2564 0.949 . S
C2561 C2562 1.349 . S
C2561 C2563 1.327 . S
C2561 H2584 0.950 . S
C2562 C2561 1.349 . S
C2562 C2574 1.349 . S
C2563 C2561 1.327 . S
C2563 C2579 1.429 . S
C2563 H2585 0.950 . S
C2564 H2560 0.949 . S
C2564 C2572 1.574 . S
C2564 C2580 1.368 1_545 S
H2565 C2573 0.950 1_565 S
H2566 C2571 0.950 . S
H2567 C2572 0.949 . S
H2568 C2574 0.950 1_545 S
H2569 C2575 0.950 . S
H2570 C2576 0.949 . S
C2571 H2566 0.950 . S
C2571 C2573 1.327 1_565 S
C2571 C2577 1.429 1_565 S
C2572 C2564 1.574 . S
C2572 H2567 0.949 . S
C2572 C2578 1.368 . S
C2573 C2557 1.349 . S
C2573 H2565 0.950 1_545 S
C2573 C2571 1.327 1_545 S
C2574 C2562 1.349 . S
C2574 H2568 0.950 1_565 S
C2574 C2575 1.327 1_565 S
C2575 H2569 0.950 . S
C2575 C2574 1.327 1_545 S
C2575 C2579 1.429 1_545 S
C2576 C2559 1.574 . S
C2576 H2570 0.949 . S
C2576 C2580 1.368 . S
C2577 C2558 1.429 . S
C2577 C2571 1.429 1_545 S
C2577 C2578 1.523 . S
C2578 C2559 1.368 1_545 S
C2578 C2572 1.368 . S
C2578 C2577 1.523 . S
C2579 C2563 1.429 . S
C2579 C2575 1.429 1_565 S
C2579 C2580 1.523 . S
C2580 C2564 1.368 1_565 S
C2580 C2576 1.368 . S
C2580 C2579 1.523 . S
H2581 C2556 0.950 . S
H2582 C2558 0.950 . S
H2583 C2559 0.949 . S
H2584 C2561 0.950 . S
H2585 C2563 0.950 . S
C2586 C2587 1.349 . S
C2586 C2588 1.327 . S
C2586 H2611 0.950 . S
C2587 C2586 1.349 . S
C2587 C2603 1.349 . S
C2588 C2586 1.327 . S
C2588 C2607 1.429 . S
C2588 H2612 0.950 . S
C2589 C2606 1.574 1_556 S
C2589 C2608 1.368 . S
C2589 H2613 0.949 . S
H2590 C2594 0.949 . S
C2591 C2592 1.349 . S
C2591 C2593 1.327 . S
C2591 H2614 0.950 . S
C2592 C2591 1.349 . S
C2592 C2604 1.349 . S
C2593 C2591 1.327 . S
C2593 C2609 1.429 . S
C2593 H2615 0.950 . S
C2594 H2590 0.949 . S
C2594 C2602 1.574 1_554 S
C2594 C2610 1.368 . S
H2595 C2603 0.950 . S
H2596 C2601 0.950 . S
H2597 C2602 0.949 . S
H2598 C2604 0.950 . S
H2599 C2605 0.950 . S
H2600 C2606 0.949 . S
C2601 H2596 0.950 . S
C2601 C2603 1.327 . S
C2601 C2607 1.429 . S
C2602 C2594 1.574 1_556 S
C2602 H2597 0.949 . S
C2602 C2608 1.368 . S
C2603 C2587 1.349 . S
C2603 H2595 0.950 . S
C2603 C2601 1.327 . S
C2604 C2592 1.349 . S
C2604 H2598 0.950 . S
C2604 C2605 1.327 . S
C2605 H2599 0.950 . S
C2605 C2604 1.327 . S
C2605 C2609 1.429 . S
C2606 C2589 1.574 1_554 S
C2606 H2600 0.949 . S
C2606 C2610 1.368 . S
C2607 C2588 1.429 . S
C2607 C2601 1.429 . S
C2607 C2608 1.523 . S
C2608 C2589 1.368 . S
C2608 C2602 1.368 . S
C2608 C2607 1.523 . S
C2609 C2593 1.429 . S
C2609 C2605 1.429 . S
C2609 C2610 1.523 . S
C2610 C2594 1.368 . S
C2610 C2606 1.368 . S
C2610 C2609 1.523 . S
H2611 C2586 0.950 . S
H2612 C2588 0.950 . S
H2613 C2589 0.949 . S
H2614 C2591 0.950 . S
H2615 C2593 0.950 . S
C2616 C2617 1.349 . S
C2616 C2618 1.327 1_565 S
C2616 H2641 0.950 1_565 S
C2617 C2616 1.349 . S
C2617 C2633 1.349 . S
C2618 C2616 1.327 1_545 S
C2618 C2637 1.429 1_545 S
C2618 H2642 0.950 . S
C2619 C2636 1.574 . S
C2619 C2638 1.368 . S
C2619 H2643 0.949 . S
H2620 C2624 0.949 . S
C2621 C2622 1.349 . S
C2621 C2623 1.327 1_545 S
C2621 H2644 0.950 1_545 S
C2622 C2621 1.349 . S
C2622 C2634 1.349 . S
C2623 C2621 1.327 1_565 S
C2623 C2639 1.429 1_565 S
C2623 H2645 0.950 . S
C2624 H2620 0.949 . S
C2624 C2632 1.574 . S
C2624 C2640 1.368 . S
H2625 C2633 0.950 . S
H2626 C2631 0.950 . S
H2627 C2632 0.949 . S
H2628 C2634 0.950 . S
H2629 C2635 0.950 . S
H2630 C2636 0.949 . S
C2631 H2626 0.950 . S
C2631 C2633 1.327 . S
C2631 C2637 1.429 . S
C2632 C2624 1.574 . S
C2632 H2627 0.949 . S
C2632 C2638 1.368 1_545 S
C2633 C2617 1.349 . S
C2633 H2625 0.950 . S
C2633 C2631 1.327 . S
C2634 C2622 1.349 . S
C2634 H2628 0.950 . S
C2634 C2635 1.327 . S
C2635 H2629 0.950 . S
C2635 C2634 1.327 . S
C2635 C2639 1.429 . S
C2636 C2619 1.574 . S
C2636 H2630 0.949 . S
C2636 C2640 1.368 1_565 S
C2637 C2618 1.429 1_565 S
C2637 C2631 1.429 . S
C2637 C2638 1.523 . S
C2638 C2619 1.368 . S
C2638 C2632 1.368 1_565 S
C2638 C2637 1.523 . S
C2639 C2623 1.429 1_545 S
C2639 C2635 1.429 . S
C2639 C2640 1.523 . S
C2640 C2624 1.368 . S
C2640 C2636 1.368 1_545 S
C2640 C2639 1.523 . S
H2641 C2616 0.950 1_545 S
H2642 C2618 0.950 . S
H2643 C2619 0.949 . S
H2644 C2621 0.950 1_565 S
H2645 C2623 0.950 . S
C2646 C2647 1.349 . S
C2646 C2648 1.327 . S
C2646 H2671 0.950 . S
C2647 C2646 1.349 . S
C2647 C2663 1.349 . S
C2648 C2646 1.327 . S
C2648 C2667 1.429 . S
C2648 H2672 0.950 . S
C2649 C2666 1.574 . S
C2649 C2668 1.368 . S
C2649 H2673 0.949 . S
H2650 C2654 0.949 . S
C2651 C2652 1.349 . S
C2651 C2653 1.327 . S
C2651 H2674 0.950 . S
C2652 C2651 1.349 . S
C2652 C2664 1.349 . S
C2653 C2651 1.327 . S
C2653 C2669 1.429 . S
C2653 H2675 0.950 . S
C2654 H2650 0.949 . S
C2654 C2662 1.574 . S
C2654 C2670 1.368 . S
H2655 C2663 0.950 . S
H2656 C2661 0.950 . S
H2657 C2662 0.949 . S
H2658 C2664 0.950 . S
H2659 C2665 0.950 . S
H2660 C2666 0.949 . S
C2661 H2656 0.950 . S
C2661 C2663 1.327 . S
C2661 C2667 1.429 . S
C2662 C2654 1.574 . S
C2662 H2657 0.949 . S
C2662 C2668 1.368 . S
C2663 C2647 1.349 . S
C2663 H2655 0.950 . S
C2663 C2661 1.327 . S
C2664 C2652 1.349 . S
C2664 H2658 0.950 . S
C2664 C2665 1.327 . S
C2665 H2659 0.950 . S
C2665 C2664 1.327 . S
C2665 C2669 1.429 . S
C2666 C2649 1.574 . S
C2666 H2660 0.949 . S
C2666 C2670 1.368 . S
C2667 C2648 1.429 . S
C2667 C2661 1.429 . S
C2667 C2668 1.523 . S
C2668 C2649 1.368 . S
C2668 C2662 1.368 . S
C2668 C2667 1.523 . S
C2669 C2653 1.429 . S
C2669 C2665 1.429 . S
C2669 C2670 1.523 . S
C2670 C2654 1.368 . S
C2670 C2666 1.368 . S
C2670 C2669 1.523 . S
H2671 C2646 0.950 . S
H2672 C2648 0.950 . S
H2673 C2649 0.949 . S
H2674 C2651 0.950 . S
H2675 C2653 0.950 . S
C2676 C2677 1.349 . S
C2676 C2678 1.340 . S
C2676 H2701 0.950 1_545 S
C2677 C2676 1.349 . S
C2677 C2693 1.349 . S
C2678 C2676 1.340 . S
C2678 C2697 1.451 . S
C2678 H2702 0.915 1_545 S
C2679 C2696 1.574 . S
C2679 C2698 1.368 . S
C2679 H2703 0.949 . S
H2680 C2684 0.949 . S
C2681 C2682 1.349 . S
C2681 C2683 1.340 . S
C2681 H2704 0.950 1_565 S
C2682 C2681 1.349 . S
C2682 C2694 1.349 . S
C2683 C2681 1.340 . S
C2683 C2699 1.451 . S
C2683 H2705 0.915 1_565 S
C2684 H2680 0.949 . S
C2684 C2692 1.574 . S
C2684 C2700 1.368 . S
H2685 C2693 0.950 . S
H2686 C2691 0.950 . S
H2687 C2692 0.949 . S
H2688 C2694 0.950 . S
H2689 C2695 0.950 . S
H2690 C2696 0.949 . S
C2691 H2686 0.950 . S
C2691 C2693 1.327 . S
C2691 C2697 1.429 . S
C2692 C2684 1.574 . S
C2692 H2687 0.949 . S
C2692 C2698 1.368 1_565 S
C2693 C2677 1.349 . S
C2693 H2685 0.950 . S
C2693 C2691 1.327 . S
C2694 C2682 1.349 . S
C2694 H2688 0.950 . S
C2694 C2695 1.327 . S
C2695 H2689 0.950 . S
C2695 C2694 1.327 . S
C2695 C2699 1.429 . S
C2696 C2679 1.574 . S
C2696 H2690 0.949 . S
C2696 C2700 1.368 1_545 S
C2697 C2678 1.451 . S
C2697 C2691 1.429 . S
C2697 C2698 1.523 . S
C2698 C2679 1.368 . S
C2698 C2692 1.368 1_545 S
C2698 C2697 1.523 . S
C2699 C2683 1.451 . S
C2699 C2695 1.429 . S
C2699 C2700 1.523 . S
C2700 C2684 1.368 . S
C2700 C2696 1.368 1_565 S
C2700 C2699 1.523 . S
H2701 C2676 0.950 1_565 S
H2702 C2678 0.915 1_565 S
H2703 C2679 0.949 . S
H2704 C2681 0.950 1_545 S
H2705 C2683 0.915 1_545 S
C2706 C2707 1.349 . S
C2706 C2708 1.327 . S
C2706 H2731 0.950 . S
C2707 C2706 1.349 . S
C2707 C2723 1.349 . S
C2708 C2706 1.327 . S
C2708 C2727 1.429 . S
C2708 H2732 0.950 . S
C2709 C2726 1.574 1_554 S
C2709 C2728 1.368 . S
C2709 H2733 0.949 . S
H2710 C2714 0.949 . S
C2711 C2712 1.349 . S
C2711 C2713 1.327 . S
C2711 H2734 0.950 . S
C2712 C2711 1.349 . S
C2712 C2724 1.349 . S
C2713 C2711 1.327 . S
C2713 C2729 1.429 . S
C2713 H2735 0.950 . S
C2714 H2710 0.949 . S
C2714 C2722 1.574 1_556 S
C2714 C2730 1.368 . S
H2715 C2723 0.950 . S
H2716 C2721 0.950 . S
H2717 C2722 0.949 . S
H2718 C2724 0.950 . S
H2719 C2725 0.950 . S
H2720 C2726 0.949 . S
C2721 H2716 0.950 . S
C2721 C2723 1.327 . S
C2721 C2727 1.429 . S
C2722 C2714 1.574 1_554 S
C2722 H2717 0.949 . S
C2722 C2728 1.368 . S
C2723 C2707 1.349 . S
C2723 H2715 0.950 . S
C2723 C2721 1.327 . S
C2724 C2712 1.349 . S
C2724 H2718 0.950 . S
C2724 C2725 1.327 . S
C2725 H2719 0.950 . S
C2725 C2724 1.327 . S
C2725 C2729 1.429 . S
C2726 C2709 1.574 1_556 S
C2726 H2720 0.949 . S
C2726 C2730 1.368 . S
C2727 C2708 1.429 . S
C2727 C2721 1.429 . S
C2727 C2728 1.523 . S
C2728 C2709 1.368 . S
C2728 C2722 1.368 . S
C2728 C2727 1.523 . S
C2729 C2713 1.429 . S
C2729 C2725 1.429 . S
C2729 C2730 1.523 . S
C2730 C2714 1.368 . S
C2730 C2726 1.368 . S
C2730 C2729 1.523 . S
H2731 C2706 0.950 . S
H2732 C2708 0.950 . S
H2733 C2709 0.949 . S
H2734 C2711 0.950 . S
H2735 C2713 0.950 . S
C2736 C2737 1.349 . S
C2736 C2738 1.327 . S
C2736 H2761 0.950 . S
C2737 C2736 1.349 . S
C2737 C2753 1.349 . S
C2738 C2736 1.327 . S
C2738 C2757 1.429 . S
C2738 H2762 0.950 . S
C2739 C2756 1.574 . S
C2739 C2758 1.368 . S
C2739 H2763 0.949 . S
H2740 C2744 0.949 . S
C2741 C2742 1.349 . S
C2741 C2743 1.327 . S
C2741 H2764 0.950 . S
C2742 C2741 1.349 . S
C2742 C2754 1.349 . S
C2743 C2741 1.327 . S
C2743 C2759 1.429 . S
C2743 H2765 0.950 . S
C2744 H2740 0.949 . S
C2744 C2752 1.574 . S
C2744 C2760 1.368 . S
H2745 C2753 0.950 . S
H2746 C2751 0.950 . S
H2747 C2752 0.949 . S
H2748 C2754 0.950 . S
H2749 C2755 0.950 . S
H2750 C2756 0.949 . S
C2751 H2746 0.950 . S
C2751 C2753 1.327 . S
C2751 C2757 1.429 . S
C2752 C2744 1.574 . S
C2752 H2747 0.949 . S
C2752 C2758 1.368 . S
C2753 C2737 1.349 . S
C2753 H2745 0.950 . S
C2753 C2751 1.327 . S
C2754 C2742 1.349 . S
C2754 H2748 0.950 . S
C2754 C2755 1.327 . S
C2755 H2749 0.950 . S
C2755 C2754 1.327 . S
C2755 C2759 1.429 . S
C2756 C2739 1.574 . S
C2756 H2750 0.949 . S
C2756 C2760 1.368 . S
C2757 C2738 1.429 . S
C2757 C2751 1.429 . S
C2757 C2758 1.523 . S
C2758 C2739 1.368 . S
C2758 C2752 1.368 . S
C2758 C2757 1.523 . S
C2759 C2743 1.429 . S
C2759 C2755 1.429 . S
C2759 C2760 1.523 . S
C2760 C2744 1.368 . S
C2760 C2756 1.368 . S
C2760 C2759 1.523 . S
H2761 C2736 0.950 . S
H2762 C2738 0.950 . S
H2763 C2739 0.949 . S
H2764 C2741 0.950 . S
H2765 C2743 0.950 . S
C2766 C2767 1.349 . S
C2766 C2768 1.327 . S
C2766 H2791 0.950 . S
C2767 C2766 1.349 . S
C2767 C2783 1.349 . S
C2768 C2766 1.327 . S
C2768 C2787 1.429 . S
C2768 H2792 0.950 . S
C2769 C2786 1.574 1_554 S
C2769 C2788 1.368 . S
C2769 H2793 0.949 . S
H2770 C2774 0.949 . S
C2771 C2772 1.349 . S
C2771 C2773 1.327 . S
C2771 H2794 0.950 . S
C2772 C2771 1.349 . S
C2772 C2784 1.349 . S
C2773 C2771 1.327 . S
C2773 C2789 1.429 . S
C2773 H2795 0.950 . S
C2774 H2770 0.949 . S
C2774 C2782 1.574 1_556 S
C2774 C2790 1.368 . S
H2775 C2783 0.950 . S
H2776 C2781 0.950 . S
H2777 C2782 0.949 . S
H2778 C2784 0.950 . S
H2779 C2785 0.950 . S
H2780 C2786 0.949 . S
C2781 H2776 0.950 . S
C2781 C2783 1.327 . S
C2781 C2787 1.429 . S
C2782 C2774 1.574 1_554 S
C2782 H2777 0.949 . S
C2782 C2788 1.368 . S
C2783 C2767 1.349 . S
C2783 H2775 0.950 . S
C2783 C2781 1.327 . S
C2784 C2772 1.349 . S
C2784 H2778 0.950 . S
C2784 C2785 1.327 . S
C2785 H2779 0.950 . S
C2785 C2784 1.327 . S
C2785 C2789 1.429 . S
C2786 C2769 1.574 1_556 S
C2786 H2780 0.949 . S
C2786 C2790 1.368 . S
C2787 C2768 1.429 . S
C2787 C2781 1.429 . S
C2787 C2788 1.523 . S
C2788 C2769 1.368 . S
C2788 C2782 1.368 . S
C2788 C2787 1.523 . S
C2789 C2773 1.429 . S
C2789 C2785 1.429 . S
C2789 C2790 1.523 . S
C2790 C2774 1.368 . S
C2790 C2786 1.368 . S
C2790 C2789 1.523 . S
H2791 C2766 0.950 . S
H2792 C2768 0.950 . S
H2793 C2769 0.949 . S
H2794 C2771 0.950 . S
H2795 C2773 0.950 . S
C2796 C2797 1.349 . S
C2796 C2798 1.327 . S
C2796 H2821 0.950 . S
C2797 C2796 1.349 . S
C2797 C2813 1.349 . S
C2798 C2796 1.327 . S
C2798 C2817 1.429 . S
C2798 H2822 0.950 . S
C2799 C2816 1.574 . S
C2799 C2818 1.368 . S
C2799 H2823 0.949 . S
H2800 C2804 0.949 . S
C2801 C2802 1.349 . S
C2801 C2803 1.327 . S
C2801 H2824 0.950 . S
C2802 C2801 1.349 . S
C2802 C2814 1.349 . S
C2803 C2801 1.327 . S
C2803 C2819 1.429 . S
C2803 H2825 0.950 . S
C2804 H2800 0.949 . S
C2804 C2812 1.574 . S
C2804 C2820 1.368 . S
H2805 C2813 0.950 . S
H2806 C2811 0.950 . S
H2807 C2812 0.949 . S
H2808 C2814 0.950 . S
H2809 C2815 0.950 . S
H2810 C2816 0.949 . S
C2811 H2806 0.950 . S
C2811 C2813 1.327 . S
C2811 C2817 1.429 . S
C2812 C2804 1.574 . S
C2812 H2807 0.949 . S
C2812 C2818 1.368 . S
C2813 C2797 1.349 . S
C2813 H2805 0.950 . S
C2813 C2811 1.327 . S
C2814 C2802 1.349 . S
C2814 H2808 0.950 . S
C2814 C2815 1.327 . S
C2815 H2809 0.950 . S
C2815 C2814 1.327 . S
C2815 C2819 1.429 . S
C2816 C2799 1.574 . S
C2816 H2810 0.949 . S
C2816 C2820 1.368 . S
C2817 C2798 1.429 . S
C2817 C2811 1.429 . S
C2817 C2818 1.523 . S
C2818 C2799 1.368 . S
C2818 C2812 1.368 . S
C2818 C2817 1.523 . S
C2819 C2803 1.429 . S
C2819 C2815 1.429 . S
C2819 C2820 1.523 . S
C2820 C2804 1.368 . S
C2820 C2816 1.368 . S
C2820 C2819 1.523 . S
H2821 C2796 0.950 . S
H2822 C2798 0.950 . S
H2823 C2799 0.949 . S
H2824 C2801 0.950 . S
H2825 C2803 0.950 . S
C2826 C2827 1.349 . S
C2826 C2828 1.327 . S
C2826 H2851 0.950 . S
C2827 C2826 1.349 . S
C2827 C2843 1.349 . S
C2828 C2826 1.327 . S
C2828 C2847 1.429 . S
C2828 H2852 0.950 . S
C2829 C2846 1.574 . S
C2829 C2848 1.368 . S
C2829 H2853 0.949 . S
H2830 C2834 0.949 . S
C2831 C2832 1.349 . S
C2831 C2833 1.327 . S
C2831 H2854 0.950 . S
C2832 C2831 1.349 . S
C2832 C2844 1.349 . S
C2833 C2831 1.327 . S
C2833 C2849 1.429 . S
C2833 H2855 0.950 . S
C2834 H2830 0.949 . S
C2834 C2842 1.574 . S
C2834 C2850 1.368 . S
H2835 C2843 0.950 . S
H2836 C2841 0.950 . S
H2837 C2842 0.949 . S
H2838 C2844 0.950 . S
H2839 C2845 0.950 . S
H2840 C2846 0.949 . S
C2841 H2836 0.950 . S
C2841 C2843 1.327 . S
C2841 C2847 1.429 . S
C2842 C2834 1.574 . S
C2842 H2837 0.949 . S
C2842 C2848 1.368 . S
C2843 C2827 1.349 . S
C2843 H2835 0.950 . S
C2843 C2841 1.327 . S
C2844 C2832 1.349 . S
C2844 H2838 0.950 . S
C2844 C2845 1.327 . S
C2845 H2839 0.950 . S
C2845 C2844 1.327 . S
C2845 C2849 1.429 . S
C2846 C2829 1.574 . S
C2846 H2840 0.949 . S
C2846 C2850 1.368 . S
C2847 C2828 1.429 . S
C2847 C2841 1.429 . S
C2847 C2848 1.523 . S
C2848 C2829 1.368 . S
C2848 C2842 1.368 . S
C2848 C2847 1.523 . S
C2849 C2833 1.429 . S
C2849 C2845 1.429 . S
C2849 C2850 1.523 . S
C2850 C2834 1.368 . S
C2850 C2846 1.368 . S
C2850 C2849 1.523 . S
H2851 C2826 0.950 . S
H2852 C2828 0.950 . S
H2853 C2829 0.949 . S
H2854 C2831 0.950 . S
H2855 C2833 0.950 . S
C2856 C2857 1.349 . S
C2856 C2858 1.327 . S
C2856 H2881 0.950 . S
C2857 C2856 1.349 . S
C2857 C2873 1.349 . S
C2858 C2856 1.327 . S
C2858 C2877 1.429 . S
C2858 H2882 0.950 . S
C2859 C2876 1.574 . S
C2859 C2878 1.368 . S
C2859 H2883 0.949 . S
H2860 C2864 0.949 . S
C2861 C2862 1.349 . S
C2861 C2863 1.327 . S
C2861 H2884 0.950 . S
C2862 C2861 1.349 . S
C2862 C2874 1.349 . S
C2863 C2861 1.327 . S
C2863 C2879 1.429 . S
C2863 H2885 0.950 . S
C2864 H2860 0.949 . S
C2864 C2872 1.574 . S
C2864 C2880 1.368 . S
H2865 C2873 0.950 . S
H2866 C2871 0.950 . S
H2867 C2872 0.949 . S
H2868 C2874 0.950 . S
H2869 C2875 0.950 . S
H2870 C2876 0.949 . S
C2871 H2866 0.950 . S
C2871 C2873 1.327 . S
C2871 C2877 1.429 . S
C2872 C2864 1.574 . S
C2872 H2867 0.949 . S
C2872 C2878 1.368 . S
C2873 C2857 1.349 . S
C2873 H2865 0.950 . S
C2873 C2871 1.327 . S
C2874 C2862 1.349 . S
C2874 H2868 0.950 . S
C2874 C2875 1.327 . S
C2875 H2869 0.950 . S
C2875 C2874 1.327 . S
C2875 C2879 1.429 . S
C2876 C2859 1.574 . S
C2876 H2870 0.949 . S
C2876 C2880 1.368 . S
C2877 C2858 1.429 . S
C2877 C2871 1.429 . S
C2877 C2878 1.523 . S
C2878 C2859 1.368 . S
C2878 C2872 1.368 . S
C2878 C2877 1.523 . S
C2879 C2863 1.429 . S
C2879 C2875 1.429 . S
C2879 C2880 1.523 . S
C2880 C2864 1.368 . S
C2880 C2876 1.368 . S
C2880 C2879 1.523 . S
H2881 C2856 0.950 . S
H2882 C2858 0.950 . S
H2883 C2859 0.949 . S
H2884 C2861 0.950 . S
H2885 C2863 0.950 . S
C2886 C2887 1.349 . S
C2886 C2888 1.327 . S
C2886 H2911 0.950 . S
C2887 C2886 1.349 . S
C2887 C2903 1.349 . S
C2888 C2886 1.327 . S
C2888 C2907 1.429 . S
C2888 H2912 0.950 . S
C2889 C2906 1.574 1_556 S
C2889 C2908 1.368 . S
C2889 H2913 0.949 . S
H2890 C2894 0.949 . S
C2891 C2892 1.349 . S
C2891 C2893 1.327 . S
C2891 H2914 0.950 . S
C2892 C2891 1.349 . S
C2892 C2904 1.349 . S
C2893 C2891 1.327 . S
C2893 C2909 1.429 . S
C2893 H2915 0.950 . S
C2894 H2890 0.949 . S
C2894 C2902 1.574 1_554 S
C2894 C2910 1.368 . S
H2895 C2903 0.950 . S
H2896 C2901 0.950 . S
H2897 C2902 0.949 . S
H2898 C2904 0.950 . S
H2899 C2905 0.950 . S
H2900 C2906 0.949 . S
C2901 H2896 0.950 . S
C2901 C2903 1.327 . S
C2901 C2907 1.429 . S
C2902 C2894 1.574 1_556 S
C2902 H2897 0.949 . S
C2902 C2908 1.368 . S
C2903 C2887 1.349 . S
C2903 H2895 0.950 . S
C2903 C2901 1.327 . S
C2904 C2892 1.349 . S
C2904 H2898 0.950 . S
C2904 C2905 1.327 . S
C2905 H2899 0.950 . S
C2905 C2904 1.327 . S
C2905 C2909 1.429 . S
C2906 C2889 1.574 1_554 S
C2906 H2900 0.949 . S
C2906 C2910 1.368 . S
C2907 C2888 1.429 . S
C2907 C2901 1.429 . S
C2907 C2908 1.523 . S
C2908 C2889 1.368 . S
C2908 C2902 1.368 . S
C2908 C2907 1.523 . S
C2909 C2893 1.429 . S
C2909 C2905 1.429 . S
C2909 C2910 1.523 . S
C2910 C2894 1.368 . S
C2910 C2906 1.368 . S
C2910 C2909 1.523 . S
H2911 C2886 0.950 . S
H2912 C2888 0.950 . S
H2913 C2889 0.949 . S
H2914 C2891 0.950 . S
H2915 C2893 0.950 . S
C2916 C2917 1.349 . S
C2916 C2918 1.327 . S
C2916 H2941 0.950 . S
C2917 C2916 1.349 . S
C2917 C2933 1.349 . S
C2918 C2916 1.327 . S
C2918 C2937 1.429 . S
C2918 H2942 0.950 . S
C2919 C2936 1.574 . S
C2919 C2938 1.368 . S
C2919 H2943 0.949 . S
H2920 C2924 0.949 . S
C2921 C2922 1.349 . S
C2921 C2923 1.327 . S
C2921 H2944 0.950 . S
C2922 C2921 1.349 . S
C2922 C2934 1.349 . S
C2923 C2921 1.327 . S
C2923 C2939 1.429 . S
C2923 H2945 0.950 . S
C2924 H2920 0.949 . S
C2924 C2932 1.574 . S
C2924 C2940 1.368 . S
H2925 C2933 0.950 . S
H2926 C2931 0.950 . S
H2927 C2932 0.949 . S
H2928 C2934 0.950 . S
H2929 C2935 0.950 . S
H2930 C2936 0.949 . S
C2931 H2926 0.950 . S
C2931 C2933 1.327 . S
C2931 C2937 1.429 . S
C2932 C2924 1.574 . S
C2932 H2927 0.949 . S
C2932 C2938 1.368 . S
C2933 C2917 1.349 . S
C2933 H2925 0.950 . S
C2933 C2931 1.327 . S
C2934 C2922 1.349 . S
C2934 H2928 0.950 . S
C2934 C2935 1.327 . S
C2935 H2929 0.950 . S
C2935 C2934 1.327 . S
C2935 C2939 1.429 . S
C2936 C2919 1.574 . S
C2936 H2930 0.949 . S
C2936 C2940 1.368 . S
C2937 C2918 1.429 . S
C2937 C2931 1.429 . S
C2937 C2938 1.523 . S
C2938 C2919 1.368 . S
C2938 C2932 1.368 . S
C2938 C2937 1.523 . S
C2939 C2923 1.429 . S
C2939 C2935 1.429 . S
C2939 C2940 1.523 . S
C2940 C2924 1.368 . S
C2940 C2936 1.368 . S
C2940 C2939 1.523 . S
H2941 C2916 0.950 . S
H2942 C2918 0.950 . S
H2943 C2919 0.949 . S
H2944 C2921 0.950 . S
H2945 C2923 0.950 . S
C2946 C2947 1.349 . S
C2946 C2948 1.327 . S
C2946 H2971 0.950 . S
C2947 C2946 1.349 . S
C2947 C2963 1.349 . S
C2948 C2946 1.327 . S
C2948 C2967 1.429 . S
C2948 H2972 0.950 . S
C2949 C2966 1.574 . S
C2949 C2968 1.368 . S
C2949 H2973 0.949 . S
H2950 C2954 0.949 . S
C2951 C2952 1.349 . S
C2951 C2953 1.327 . S
C2951 H2974 0.950 . S
C2952 C2951 1.349 . S
C2952 C2964 1.349 . S
C2953 C2951 1.327 . S
C2953 C2969 1.429 . S
C2953 H2975 0.950 . S
C2954 H2950 0.949 . S
C2954 C2962 1.574 . S
C2954 C2970 1.368 . S
H2955 C2963 0.950 . S
H2956 C2961 0.950 . S
H2957 C2962 0.949 . S
H2958 C2964 0.950 . S
H2959 C2965 0.950 . S
H2960 C2966 0.949 . S
C2961 H2956 0.950 . S
C2961 C2963 1.327 . S
C2961 C2967 1.429 . S
C2962 C2954 1.574 . S
C2962 H2957 0.949 . S
C2962 C2968 1.368 . S
C2963 C2947 1.349 . S
C2963 H2955 0.950 . S
C2963 C2961 1.327 . S
C2964 C2952 1.349 . S
C2964 H2958 0.950 . S
C2964 C2965 1.327 . S
C2965 H2959 0.950 . S
C2965 C2964 1.327 . S
C2965 C2969 1.429 . S
C2966 C2949 1.574 . S
C2966 H2960 0.949 . S
C2966 C2970 1.368 . S
C2967 C2948 1.429 . S
C2967 C2961 1.429 . S
C2967 C2968 1.523 . S
C2968 C2949 1.368 . S
C2968 C2962 1.368 . S
C2968 C2967 1.523 . S
C2969 C2953 1.429 . S
C2969 C2965 1.429 . S
C2969 C2970 1.523 . S
C2970 C2954 1.368 . S
C2970 C2966 1.368 . S
C2970 C2969 1.523 . S
H2971 C2946 0.950 . S
H2972 C2948 0.950 . S
H2973 C2949 0.949 . S
H2974 C2951 0.950 . S
H2975 C2953 0.950 . S
C2976 C2977 1.349 1_655 S
C2976 C2978 1.327 . S
C2976 H3001 0.950 . S
C2977 C2976 1.349 1_455 S
C2977 C2993 1.349 . S
C2978 C2976 1.327 . S
C2978 C2997 1.429 1_655 S
C2978 H3002 0.950 . S
C2979 C2996 1.574 . S
C2979 C2998 1.368 . S
C2979 H3003 0.949 . S
H2980 C2984 0.949 . S
C2981 C2982 1.349 1_455 S
C2981 C2983 1.327 . S
C2981 H3004 0.950 . S
C2982 C2981 1.349 1_655 S
C2982 C2994 1.349 . S
C2983 C2981 1.327 . S
C2983 C2999 1.429 1_455 S
C2983 H3005 0.950 . S
C2984 H2980 0.949 . S
C2984 C2992 1.574 . S
C2984 C3000 1.368 . S
H2985 C2993 0.950 . S
H2986 C2991 0.950 . S
H2987 C2992 0.949 . S
H2988 C2994 0.950 . S
H2989 C2995 0.950 . S
H2990 C2996 0.949 . S
C2991 H2986 0.950 . S
C2991 C2993 1.327 . S
C2991 C2997 1.429 . S
C2992 C2984 1.574 . S
C2992 H2987 0.949 . S
C2992 C2998 1.368 1_655 S
C2993 C2977 1.349 . S
C2993 H2985 0.950 . S
C2993 C2991 1.327 . S
C2994 C2982 1.349 . S
C2994 H2988 0.950 . S
C2994 C2995 1.327 . S
C2995 H2989 0.950 . S
C2995 C2994 1.327 . S
C2995 C2999 1.429 . S
C2996 C2979 1.574 . S
C2996 H2990 0.949 . S
C2996 C3000 1.368 1_455 S
C2997 C2978 1.429 1_455 S
C2997 C2991 1.429 . S
C2997 C2998 1.523 . S
C2998 C2979 1.368 . S
C2998 C2992 1.368 1_455 S
C2998 C2997 1.523 . S
C2999 C2983 1.429 1_655 S
C2999 C2995 1.429 . S
C2999 C3000 1.523 . S
C3000 C2984 1.368 . S
C3000 C2996 1.368 1_655 S
C3000 C2999 1.523 . S
H3001 C2976 0.950 . S
H3002 C2978 0.950 . S
H3003 C2979 0.949 . S
H3004 C2981 0.950 . S
H3005 C2983 0.950 . S
C3006 C3007 1.349 . S
C3006 C3008 1.327 . S
C3006 H3031 0.950 . S
C3007 C3006 1.349 . S
C3007 C3023 1.349 . S
C3008 C3006 1.327 . S
C3008 C3027 1.429 . S
C3008 H3032 0.950 . S
C3009 C3026 1.574 1_655 S
C3009 C3028 1.368 . S
C3009 H3033 0.949 . S
H3010 C3014 0.949 . S
C3011 C3012 1.349 . S
C3011 C3013 1.327 . S
C3011 H3034 0.950 . S
C3012 C3011 1.349 . S
C3012 C3024 1.349 . S
C3013 C3011 1.327 . S
C3013 C3029 1.429 . S
C3013 H3035 0.950 . S
C3014 H3010 0.949 . S
C3014 C3022 1.574 1_455 S
C3014 C3030 1.368 . S
H3015 C3023 0.950 . S
H3016 C3021 0.950 . S
H3017 C3022 0.949 . S
H3018 C3024 0.950 . S
H3019 C3025 0.950 . S
H3020 C3026 0.949 . S
C3021 H3016 0.950 . S
C3021 C3023 1.327 . S
C3021 C3027 1.429 . S
C3022 C3014 1.574 1_655 S
C3022 H3017 0.949 . S
C3022 C3028 1.368 . S
C3023 C3007 1.349 . S
C3023 H3015 0.950 . S
C3023 C3021 1.327 . S
C3024 C3012 1.349 . S
C3024 H3018 0.950 . S
C3024 C3025 1.327 . S
C3025 H3019 0.950 . S
C3025 C3024 1.327 . S
C3025 C3029 1.429 . S
C3026 C3009 1.574 1_455 S
C3026 H3020 0.949 . S
C3026 C3030 1.368 . S
C3027 C3008 1.429 . S
C3027 C3021 1.429 . S
C3027 C3028 1.523 . S
C3028 C3009 1.368 . S
C3028 C3022 1.368 . S
C3028 C3027 1.523 . S
C3029 C3013 1.429 . S
C3029 C3025 1.429 . S
C3029 C3030 1.523 . S
C3030 C3014 1.368 . S
C3030 C3026 1.368 . S
C3030 C3029 1.523 . S
H3031 C3006 0.950 . S
H3032 C3008 0.950 . S
H3033 C3009 0.949 . S
H3034 C3011 0.950 . S
H3035 C3013 0.950 . S
C3036 C3037 1.349 . S
C3036 C3038 1.327 . S
C3036 H3061 0.950 . S
C3037 C3036 1.349 . S
C3037 C3053 1.349 . S
C3038 C3036 1.327 . S
C3038 C3057 1.429 . S
C3038 H3062 0.950 . S
C3039 C3056 1.574 . S
C3039 C3058 1.368 . S
C3039 H3063 0.949 . S
H3040 C3044 0.949 . S
C3041 C3042 1.349 . S
C3041 C3043 1.327 . S
C3041 H3064 0.950 . S
C3042 C3041 1.349 . S
C3042 C3054 1.349 . S
C3043 C3041 1.327 . S
C3043 C3059 1.429 . S
C3043 H3065 0.950 . S
C3044 H3040 0.949 . S
C3044 C3052 1.574 . S
C3044 C3060 1.368 . S
H3045 C3053 0.950 . S
H3046 C3051 0.950 . S
H3047 C3052 0.949 . S
H3048 C3054 0.950 . S
H3049 C3055 0.950 . S
H3050 C3056 0.949 . S
C3051 H3046 0.950 . S
C3051 C3053 1.327 . S
C3051 C3057 1.429 . S
C3052 C3044 1.574 . S
C3052 H3047 0.949 . S
C3052 C3058 1.368 . S
C3053 C3037 1.349 . S
C3053 H3045 0.950 . S
C3053 C3051 1.327 . S
C3054 C3042 1.349 . S
C3054 H3048 0.950 . S
C3054 C3055 1.327 . S
C3055 H3049 0.950 . S
C3055 C3054 1.327 . S
C3055 C3059 1.429 . S
C3056 C3039 1.574 . S
C3056 H3050 0.949 . S
C3056 C3060 1.368 . S
C3057 C3038 1.429 . S
C3057 C3051 1.429 . S
C3057 C3058 1.523 . S
C3058 C3039 1.368 . S
C3058 C3052 1.368 . S
C3058 C3057 1.523 . S
C3059 C3043 1.429 . S
C3059 C3055 1.429 . S
C3059 C3060 1.523 . S
C3060 C3044 1.368 . S
C3060 C3056 1.368 . S
C3060 C3059 1.523 . S
H3061 C3036 0.950 . S
H3062 C3038 0.950 . S
H3063 C3039 0.949 . S
H3064 C3041 0.950 . S
H3065 C3043 0.950 . S
C3066 C3067 1.349 . S
C3066 C3068 1.327 . S
C3066 H3091 0.950 . S
C3067 C3066 1.349 . S
C3067 C3083 1.349 . S
C3068 C3066 1.327 . S
C3068 C3087 1.429 . S
C3068 H3092 0.950 . S
C3069 C3086 1.574 . S
C3069 C3088 1.368 . S
C3069 H3093 0.949 . S
H3070 C3074 0.949 . S
C3071 C3072 1.349 . S
C3071 C3073 1.327 . S
C3071 H3094 0.950 . S
C3072 C3071 1.349 . S
C3072 C3084 1.349 . S
C3073 C3071 1.327 . S
C3073 C3089 1.429 . S
C3073 H3095 0.950 . S
C3074 H3070 0.949 . S
C3074 C3082 1.574 . S
C3074 C3090 1.368 . S
H3075 C3083 0.950 . S
H3076 C3081 0.950 . S
H3077 C3082 0.949 . S
H3078 C3084 0.950 . S
H3079 C3085 0.950 . S
H3080 C3086 0.949 . S
C3081 H3076 0.950 . S
C3081 C3083 1.327 . S
C3081 C3087 1.429 . S
C3082 C3074 1.574 . S
C3082 H3077 0.949 . S
C3082 C3088 1.368 . S
C3083 C3067 1.349 . S
C3083 H3075 0.950 . S
C3083 C3081 1.327 . S
C3084 C3072 1.349 . S
C3084 H3078 0.950 . S
C3084 C3085 1.327 . S
C3085 H3079 0.950 . S
C3085 C3084 1.327 . S
C3085 C3089 1.429 . S
C3086 C3069 1.574 . S
C3086 H3080 0.949 . S
C3086 C3090 1.368 . S
C3087 C3068 1.429 . S
C3087 C3081 1.429 . S
C3087 C3088 1.523 . S
C3088 C3069 1.368 . S
C3088 C3082 1.368 . S
C3088 C3087 1.523 . S
C3089 C3073 1.429 . S
C3089 C3085 1.429 . S
C3089 C3090 1.523 . S
C3090 C3074 1.368 . S
C3090 C3086 1.368 . S
C3090 C3089 1.523 . S
H3091 C3066 0.950 . S
H3092 C3068 0.950 . S
H3093 C3069 0.949 . S
H3094 C3071 0.950 . S
H3095 C3073 0.950 . S
C3096 C3097 1.349 1_455 S
C3096 C3098 1.327 . S
C3096 H3121 0.950 . S
C3097 C3096 1.349 1_655 S
C3097 C3113 1.349 . S
C3098 C3096 1.327 . S
C3098 C3117 1.429 1_455 S
C3098 H3122 0.950 . S
C3099 C3116 1.574 . S
C3099 C3118 1.368 . S
C3099 H3123 0.949 . S
H3100 C3104 0.949 . S
C3101 C3102 1.349 1_655 S
C3101 C3103 1.327 . S
C3101 H3124 0.950 . S
C3102 C3101 1.349 1_455 S
C3102 C3114 1.349 . S
C3103 C3101 1.327 . S
C3103 C3119 1.429 1_655 S
C3103 H3125 0.950 . S
C3104 H3100 0.949 . S
C3104 C3112 1.574 . S
C3104 C3120 1.368 . S
H3105 C3113 0.950 . S
H3106 C3111 0.950 . S
H3107 C3112 0.949 . S
H3108 C3114 0.950 . S
H3109 C3115 0.950 . S
H3110 C3116 0.949 . S
C3111 H3106 0.950 . S
C3111 C3113 1.327 . S
C3111 C3117 1.429 . S
C3112 C3104 1.574 . S
C3112 H3107 0.949 . S
C3112 C3118 1.368 1_455 S
C3113 C3097 1.349 . S
C3113 H3105 0.950 . S
C3113 C3111 1.327 . S
C3114 C3102 1.349 . S
C3114 H3108 0.950 . S
C3114 C3115 1.327 . S
C3115 H3109 0.950 . S
C3115 C3114 1.327 . S
C3115 C3119 1.429 . S
C3116 C3099 1.574 . S
C3116 H3110 0.949 . S
C3116 C3120 1.368 1_655 S
C3117 C3098 1.429 1_655 S
C3117 C3111 1.429 . S
C3117 C3118 1.523 . S
C3118 C3099 1.368 . S
C3118 C3112 1.368 1_655 S
C3118 C3117 1.523 . S
C3119 C3103 1.429 1_455 S
C3119 C3115 1.429 . S
C3119 C3120 1.523 . S
C3120 C3104 1.368 . S
C3120 C3116 1.368 1_455 S
C3120 C3119 1.523 . S
H3121 C3096 0.950 . S
H3122 C3098 0.950 . S
H3123 C3099 0.949 . S
H3124 C3101 0.950 . S
H3125 C3103 0.950 . S
C3126 C3127 1.349 . S
C3126 C3128 1.327 . S
C3126 H3151 0.950 . S
C3127 C3126 1.349 . S
C3127 C3143 1.349 . S
C3128 C3126 1.327 . S
C3128 C3147 1.429 . S
C3128 H3152 0.950 . S
C3129 C3146 1.574 . S
C3129 C3148 1.368 . S
C3129 H3153 0.949 . S
H3130 C3134 0.949 . S
C3131 C3132 1.349 . S
C3131 C3133 1.327 . S
C3131 H3154 0.950 . S
C3132 C3131 1.349 . S
C3132 C3144 1.349 . S
C3133 C3131 1.327 . S
C3133 C3149 1.429 . S
C3133 H3155 0.950 . S
C3134 H3130 0.949 . S
C3134 C3142 1.574 . S
C3134 C3150 1.368 . S
H3135 C3143 0.950 . S
H3136 C3141 0.950 . S
H3137 C3142 0.949 . S
H3138 C3144 0.950 . S
H3139 C3145 0.950 . S
H3140 C3146 0.949 . S
C3141 H3136 0.950 . S
C3141 C3143 1.327 . S
C3141 C3147 1.429 . S
C3142 C3134 1.574 . S
C3142 H3137 0.949 . S
C3142 C3148 1.368 . S
C3143 C3127 1.349 . S
C3143 H3135 0.950 . S
C3143 C3141 1.327 . S
C3144 C3132 1.349 . S
C3144 H3138 0.950 . S
C3144 C3145 1.327 . S
C3145 H3139 0.950 . S
C3145 C3144 1.327 . S
C3145 C3149 1.429 . S
C3146 C3129 1.574 . S
C3146 H3140 0.949 . S
C3146 C3150 1.368 . S
C3147 C3128 1.429 . S
C3147 C3141 1.429 . S
C3147 C3148 1.523 . S
C3148 C3129 1.368 . S
C3148 C3142 1.368 . S
C3148 C3147 1.523 . S
C3149 C3133 1.429 . S
C3149 C3145 1.429 . S
C3149 C3150 1.523 . S
C3150 C3134 1.368 . S
C3150 C3146 1.368 . S
C3150 C3149 1.523 . S
H3151 C3126 0.950 . S
H3152 C3128 0.950 . S
H3153 C3129 0.949 . S
H3154 C3131 0.950 . S
H3155 C3133 0.950 . S
C3156 C3157 1.349 . S
C3156 C3158 1.327 . S
C3156 H3181 0.950 . S
C3157 C3156 1.349 . S
C3157 C3173 1.349 . S
C3158 C3156 1.327 . S
C3158 C3177 1.429 . S
C3158 H3182 0.950 . S
C3159 C3176 1.574 . S
C3159 C3178 1.368 . S
C3159 H3183 0.949 . S
H3160 C3164 0.949 . S
C3161 C3162 1.349 . S
C3161 C3163 1.327 . S
C3161 H3184 0.950 . S
C3162 C3161 1.349 . S
C3162 C3174 1.349 . S
C3163 C3161 1.327 . S
C3163 C3179 1.429 . S
C3163 H3185 0.950 . S
C3164 H3160 0.949 . S
C3164 C3172 1.574 . S
C3164 C3180 1.368 . S
H3165 C3173 0.950 . S
H3166 C3171 0.950 . S
H3167 C3172 0.949 . S
H3168 C3174 0.950 . S
H3169 C3175 0.950 . S
H3170 C3176 0.949 . S
C3171 H3166 0.950 . S
C3171 C3173 1.327 . S
C3171 C3177 1.429 . S
C3172 C3164 1.574 . S
C3172 H3167 0.949 . S
C3172 C3178 1.368 . S
C3173 C3157 1.349 . S
C3173 H3165 0.950 . S
C3173 C3171 1.327 . S
C3174 C3162 1.349 . S
C3174 H3168 0.950 . S
C3174 C3175 1.327 . S
C3175 H3169 0.950 . S
C3175 C3174 1.327 . S
C3175 C3179 1.429 . S
C3176 C3159 1.574 . S
C3176 H3170 0.949 . S
C3176 C3180 1.368 . S
C3177 C3158 1.429 . S
C3177 C3171 1.429 . S
C3177 C3178 1.523 . S
C3178 C3159 1.368 . S
C3178 C3172 1.368 . S
C3178 C3177 1.523 . S
C3179 C3163 1.429 . S
C3179 C3175 1.429 . S
C3179 C3180 1.523 . S
C3180 C3164 1.368 . S
C3180 C3176 1.368 . S
C3180 C3179 1.523 . S
H3181 C3156 0.950 . S
H3182 C3158 0.950 . S
H3183 C3159 0.949 . S
H3184 C3161 0.950 . S
H3185 C3163 0.950 . S
C3186 C3187 1.349 . S
C3186 C3188 1.327 . S
C3186 H3211 0.950 . S
C3187 C3186 1.349 . S
C3187 C3203 1.349 . S
C3188 C3186 1.327 . S
C3188 C3207 1.429 . S
C3188 H3212 0.950 . S
C3189 C3206 1.574 1_455 S
C3189 C3208 1.368 . S
C3189 H3213 0.949 . S
H3190 C3194 0.949 . S
C3191 C3192 1.349 . S
C3191 C3193 1.327 . S
C3191 H3214 0.950 . S
C3192 C3191 1.349 . S
C3192 C3204 1.349 . S
C3193 C3191 1.327 . S
C3193 C3209 1.429 . S
C3193 H3215 0.950 . S
C3194 H3190 0.949 . S
C3194 C3202 1.574 1_655 S
C3194 C3210 1.368 . S
H3195 C3203 0.950 . S
H3196 C3201 0.950 . S
H3197 C3202 0.949 . S
H3198 C3204 0.950 . S
H3199 C3205 0.950 . S
H3200 C3206 0.949 . S
C3201 H3196 0.950 . S
C3201 C3203 1.327 . S
C3201 C3207 1.429 . S
C3202 C3194 1.574 1_455 S
C3202 H3197 0.949 . S
C3202 C3208 1.368 . S
C3203 C3187 1.349 . S
C3203 H3195 0.950 . S
C3203 C3201 1.327 . S
C3204 C3192 1.349 . S
C3204 H3198 0.950 . S
C3204 C3205 1.327 . S
C3205 H3199 0.950 . S
C3205 C3204 1.327 . S
C3205 C3209 1.429 . S
C3206 C3189 1.574 1_655 S
C3206 H3200 0.949 . S
C3206 C3210 1.368 . S
C3207 C3188 1.429 . S
C3207 C3201 1.429 . S
C3207 C3208 1.523 . S
C3208 C3189 1.368 . S
C3208 C3202 1.368 . S
C3208 C3207 1.523 . S
C3209 C3193 1.429 . S
C3209 C3205 1.429 . S
C3209 C3210 1.523 . S
C3210 C3194 1.368 . S
C3210 C3206 1.368 . S
C3210 C3209 1.523 . S
H3211 C3186 0.950 . S
H3212 C3188 0.950 . S
H3213 C3189 0.949 . S
H3214 C3191 0.950 . S
H3215 C3193 0.950 . S
C3216 C3217 1.349 . S
C3216 C3218 1.327 . S
C3216 H3241 0.950 . S
C3217 C3216 1.349 . S
C3217 C3233 1.349 1_655 S
C3218 C3216 1.327 . S
C3218 C3237 1.429 . S
C3218 H3242 0.950 . S
C3219 C3236 1.574 . S
C3219 C3238 1.368 1_455 S
C3219 H3243 0.949 . S
H3220 C3224 0.949 . S
C3221 C3222 1.349 . S
C3221 C3223 1.327 . S
C3221 H3244 0.950 . S
C3222 C3221 1.349 . S
C3222 C3234 1.349 1_455 S
C3223 C3221 1.327 . S
C3223 C3239 1.429 . S
C3223 H3245 0.950 . S
C3224 H3220 0.949 . S
C3224 C3232 1.574 . S
C3224 C3240 1.368 1_655 S
H3225 C3233 0.950 . S
H3226 C3231 0.950 . S
H3227 C3232 0.949 . S
H3228 C3234 0.950 . S
H3229 C3235 0.950 . S
H3230 C3236 0.949 . S
C3231 H3226 0.950 . S
C3231 C3233 1.327 . S
C3231 C3237 1.429 1_455 S
C3232 C3224 1.574 . S
C3232 H3227 0.949 . S
C3232 C3238 1.368 . S
C3233 C3217 1.349 1_455 S
C3233 H3225 0.950 . S
C3233 C3231 1.327 . S
C3234 C3222 1.349 1_655 S
C3234 H3228 0.950 . S
C3234 C3235 1.327 . S
C3235 H3229 0.950 . S
C3235 C3234 1.327 . S
C3235 C3239 1.429 1_655 S
C3236 C3219 1.574 . S
C3236 H3230 0.949 . S
C3236 C3240 1.368 . S
C3237 C3218 1.429 . S
C3237 C3231 1.429 1_655 S
C3237 C3238 1.523 . S
C3238 C3219 1.368 1_655 S
C3238 C3232 1.368 . S
C3238 C3237 1.523 . S
C3239 C3223 1.429 . S
C3239 C3235 1.429 1_455 S
C3239 C3240 1.523 . S
C3240 C3224 1.368 1_455 S
C3240 C3236 1.368 . S
C3240 C3239 1.523 . S
H3241 C3216 0.950 . S
H3242 C3218 0.950 . S
H3243 C3219 0.949 . S
H3244 C3221 0.950 . S
H3245 C3223 0.950 . S
C3246 C3247 1.349 . S
C3246 C3248 1.327 . S
C3246 H3271 0.950 . S
C3247 C3246 1.349 . S
C3247 C3263 1.349 . S
C3248 C3246 1.327 . S
C3248 C3267 1.429 . S
C3248 H3272 0.950 . S
C3249 C3266 1.574 1_455 S
C3249 C3268 1.368 . S
C3249 H3273 0.949 . S
H3250 C3254 0.949 . S
C3251 C3252 1.349 . S
C3251 C3253 1.327 . S
C3251 H3274 0.950 . S
C3252 C3251 1.349 . S
C3252 C3264 1.349 . S
C3253 C3251 1.327 . S
C3253 C3269 1.429 . S
C3253 H3275 0.950 . S
C3254 H3250 0.949 . S
C3254 C3262 1.574 1_655 S
C3254 C3270 1.368 . S
H3255 C3263 0.950 . S
H3256 C3261 0.950 . S
H3257 C3262 0.949 . S
H3258 C3264 0.950 . S
H3259 C3265 0.950 . S
H3260 C3266 0.949 . S
C3261 H3256 0.950 . S
C3261 C3263 1.327 . S
C3261 C3267 1.429 . S
C3262 C3254 1.574 1_455 S
C3262 H3257 0.949 . S
C3262 C3268 1.368 . S
C3263 C3247 1.349 . S
C3263 H3255 0.950 . S
C3263 C3261 1.327 . S
C3264 C3252 1.349 . S
C3264 H3258 0.950 . S
C3264 C3265 1.327 . S
C3265 H3259 0.950 . S
C3265 C3264 1.327 . S
C3265 C3269 1.429 . S
C3266 C3249 1.574 1_655 S
C3266 H3260 0.949 . S
C3266 C3270 1.368 . S
C3267 C3248 1.429 . S
C3267 C3261 1.429 . S
C3267 C3268 1.523 . S
C3268 C3249 1.368 . S
C3268 C3262 1.368 . S
C3268 C3267 1.523 . S
C3269 C3253 1.429 . S
C3269 C3265 1.429 . S
C3269 C3270 1.523 . S
C3270 C3254 1.368 . S
C3270 C3266 1.368 . S
C3270 C3269 1.523 . S
H3271 C3246 0.950 . S
H3272 C3248 0.950 . S
H3273 C3249 0.949 . S
H3274 C3251 0.950 . S
H3275 C3253 0.950 . S
C3276 C3277 1.349 . S
C3276 C3278 1.327 . S
C3276 H3301 0.950 . S
C3277 C3276 1.349 . S
C3277 C3293 1.349 . S
C3278 C3276 1.327 . S
C3278 C3297 1.429 . S
C3278 H3302 0.950 . S
C3279 C3296 1.574 . S
C3279 C3298 1.368 . S
C3279 H3303 0.949 . S
H3280 C3284 0.949 . S
C3281 C3282 1.349 . S
C3281 C3283 1.327 . S
C3281 H3304 0.950 . S
C3282 C3281 1.349 . S
C3282 C3294 1.349 . S
C3283 C3281 1.327 . S
C3283 C3299 1.429 . S
C3283 H3305 0.950 . S
C3284 H3280 0.949 . S
C3284 C3292 1.574 . S
C3284 C3300 1.368 . S
H3285 C3293 0.950 . S
H3286 C3291 0.950 . S
H3287 C3292 0.949 . S
H3288 C3294 0.950 . S
H3289 C3295 0.950 . S
H3290 C3296 0.949 . S
C3291 H3286 0.950 . S
C3291 C3293 1.327 . S
C3291 C3297 1.429 . S
C3292 C3284 1.574 . S
C3292 H3287 0.949 . S
C3292 C3298 1.368 . S
C3293 C3277 1.349 . S
C3293 H3285 0.950 . S
C3293 C3291 1.327 . S
C3294 C3282 1.349 . S
C3294 H3288 0.950 . S
C3294 C3295 1.327 . S
C3295 H3289 0.950 . S
C3295 C3294 1.327 . S
C3295 C3299 1.429 . S
C3296 C3279 1.574 . S
C3296 H3290 0.949 . S
C3296 C3300 1.368 . S
C3297 C3278 1.429 . S
C3297 C3291 1.429 . S
C3297 C3298 1.523 . S
C3298 C3279 1.368 . S
C3298 C3292 1.368 . S
C3298 C3297 1.523 . S
C3299 C3283 1.429 . S
C3299 C3295 1.429 . S
C3299 C3300 1.523 . S
C3300 C3284 1.368 . S
C3300 C3296 1.368 . S
C3300 C3299 1.523 . S
H3301 C3276 0.950 . S
H3302 C3278 0.950 . S
H3303 C3279 0.949 . S
H3304 C3281 0.950 . S
H3305 C3283 0.950 . S
C3306 C3307 1.349 . S
C3306 C3308 1.327 . S
C3306 H3331 0.950 . S
C3307 C3306 1.349 . S
C3307 C3323 1.349 . S
C3308 C3306 1.327 . S
C3308 C3327 1.429 . S
C3308 H3332 0.950 . S
C3309 C3326 1.574 . S
C3309 C3328 1.368 . S
C3309 H3333 0.949 . S
H3310 C3314 0.949 . S
C3311 C3312 1.349 . S
C3311 C3313 1.327 . S
C3311 H3334 0.950 . S
C3312 C3311 1.349 . S
C3312 C3324 1.349 . S
C3313 C3311 1.327 . S
C3313 C3329 1.429 . S
C3313 H3335 0.950 . S
C3314 H3310 0.949 . S
C3314 C3322 1.574 . S
C3314 C3330 1.368 . S
H3315 C3323 0.950 . S
H3316 C3321 0.950 . S
H3317 C3322 0.949 . S
H3318 C3324 0.950 . S
H3319 C3325 0.950 . S
H3320 C3326 0.949 . S
C3321 H3316 0.950 . S
C3321 C3323 1.327 . S
C3321 C3327 1.429 . S
C3322 C3314 1.574 . S
C3322 H3317 0.949 . S
C3322 C3328 1.368 . S
C3323 C3307 1.349 . S
C3323 H3315 0.950 . S
C3323 C3321 1.327 . S
C3324 C3312 1.349 . S
C3324 H3318 0.950 . S
C3324 C3325 1.327 . S
C3325 H3319 0.950 . S
C3325 C3324 1.327 . S
C3325 C3329 1.429 . S
C3326 C3309 1.574 . S
C3326 H3320 0.949 . S
C3326 C3330 1.368 . S
C3327 C3308 1.429 . S
C3327 C3321 1.429 . S
C3327 C3328 1.523 . S
C3328 C3309 1.368 . S
C3328 C3322 1.368 . S
C3328 C3327 1.523 . S
C3329 C3313 1.429 . S
C3329 C3325 1.429 . S
C3329 C3330 1.523 . S
C3330 C3314 1.368 . S
C3330 C3326 1.368 . S
C3330 C3329 1.523 . S
H3331 C3306 0.950 . S
H3332 C3308 0.950 . S
H3333 C3309 0.949 . S
H3334 C3311 0.950 . S
H3335 C3313 0.950 . S
C3336 C3337 1.349 . S
C3336 C3338 1.327 . S
C3336 H3361 0.950 . S
C3337 C3336 1.349 . S
C3337 C3353 1.349 1_655 S
C3338 C3336 1.327 . S
C3338 C3357 1.429 . S
C3338 H3362 0.950 . S
C3339 C3356 1.574 . S
C3339 C3358 1.368 1_455 S
C3339 H3363 0.949 . S
H3340 C3344 0.949 . S
C3341 C3342 1.349 . S
C3341 C3343 1.327 . S
C3341 H3364 0.950 . S
C3342 C3341 1.349 . S
C3342 C3354 1.349 1_455 S
C3343 C3341 1.327 . S
C3343 C3359 1.429 . S
C3343 H3365 0.950 . S
C3344 H3340 0.949 . S
C3344 C3352 1.574 . S
C3344 C3360 1.368 1_655 S
H3345 C3353 0.950 . S
H3346 C3351 0.950 . S
H3347 C3352 0.949 . S
H3348 C3354 0.950 . S
H3349 C3355 0.950 . S
H3350 C3356 0.949 . S
C3351 H3346 0.950 . S
C3351 C3353 1.327 . S
C3351 C3357 1.429 1_455 S
C3352 C3344 1.574 . S
C3352 H3347 0.949 . S
C3352 C3358 1.368 . S
C3353 C3337 1.349 1_455 S
C3353 H3345 0.950 . S
C3353 C3351 1.327 . S
C3354 C3342 1.349 1_655 S
C3354 H3348 0.950 . S
C3354 C3355 1.327 . S
C3355 H3349 0.950 . S
C3355 C3354 1.327 . S
C3355 C3359 1.429 1_655 S
C3356 C3339 1.574 . S
C3356 H3350 0.949 . S
C3356 C3360 1.368 . S
C3357 C3338 1.429 . S
C3357 C3351 1.429 1_655 S
C3357 C3358 1.523 . S
C3358 C3339 1.368 1_655 S
C3358 C3352 1.368 . S
C3358 C3357 1.523 . S
C3359 C3343 1.429 . S
C3359 C3355 1.429 1_455 S
C3359 C3360 1.523 . S
C3360 C3344 1.368 1_455 S
C3360 C3356 1.368 . S
C3360 C3359 1.523 . S
H3361 C3336 0.950 . S
H3362 C3338 0.950 . S
H3363 C3339 0.949 . S
H3364 C3341 0.950 . S
H3365 C3343 0.950 . S
C3366 C3367 1.349 . S
C3366 C3368 1.327 . S
C3366 H3391 0.950 . S
C3367 C3366 1.349 . S
C3367 C3383 1.349 . S
C3368 C3366 1.327 . S
C3368 C3387 1.429 . S
C3368 H3392 0.950 . S
C3369 C3386 1.574 . S
C3369 C3388 1.368 . S
C3369 H3393 0.949 . S
H3370 C3374 0.949 . S
C3371 C3372 1.349 . S
C3371 C3373 1.327 . S
C3371 H3394 0.950 . S
C3372 C3371 1.349 . S
C3372 C3384 1.349 . S
C3373 C3371 1.327 . S
C3373 C3389 1.429 . S
C3373 H3395 0.950 . S
C3374 H3370 0.949 . S
C3374 C3382 1.574 . S
C3374 C3390 1.368 . S
H3375 C3383 0.950 . S
H3376 C3381 0.950 . S
H3377 C3382 0.949 . S
H3378 C3384 0.950 . S
H3379 C3385 0.950 . S
H3380 C3386 0.949 . S
C3381 H3376 0.950 . S
C3381 C3383 1.327 . S
C3381 C3387 1.429 . S
C3382 C3374 1.574 . S
C3382 H3377 0.949 . S
C3382 C3388 1.368 . S
C3383 C3367 1.349 . S
C3383 H3375 0.950 . S
C3383 C3381 1.327 . S
C3384 C3372 1.349 . S
C3384 H3378 0.950 . S
C3384 C3385 1.327 . S
C3385 H3379 0.950 . S
C3385 C3384 1.327 . S
C3385 C3389 1.429 . S
C3386 C3369 1.574 . S
C3386 H3380 0.949 . S
C3386 C3390 1.368 . S
C3387 C3368 1.429 . S
C3387 C3381 1.429 . S
C3387 C3388 1.523 . S
C3388 C3369 1.368 . S
C3388 C3382 1.368 . S
C3388 C3387 1.523 . S
C3389 C3373 1.429 . S
C3389 C3385 1.429 . S
C3389 C3390 1.523 . S
C3390 C3374 1.368 . S
C3390 C3386 1.368 . S
C3390 C3389 1.523 . S
H3391 C3366 0.950 . S
H3392 C3368 0.950 . S
H3393 C3369 0.949 . S
H3394 C3371 0.950 . S
H3395 C3373 0.950 . S
C3396 C3397 1.349 . S
C3396 C3398 1.327 . S
C3396 H3421 0.950 . S
C3397 C3396 1.349 . S
C3397 C3413 1.349 . S
C3398 C3396 1.327 . S
C3398 C3417 1.429 . S
C3398 H3422 0.950 . S
C3399 C3416 1.574 . S
C3399 C3418 1.368 . S
C3399 H3423 0.949 . S
H3400 C3404 0.949 . S
C3401 C3402 1.349 . S
C3401 C3403 1.327 . S
C3401 H3424 0.950 . S
C3402 C3401 1.349 . S
C3402 C3414 1.349 . S
C3403 C3401 1.327 . S
C3403 C3419 1.429 . S
C3403 H3425 0.950 . S
C3404 H3400 0.949 . S
C3404 C3412 1.574 . S
C3404 C3420 1.368 . S
H3405 C3413 0.950 . S
H3406 C3411 0.950 . S
H3407 C3412 0.949 . S
H3408 C3414 0.950 . S
H3409 C3415 0.950 . S
H3410 C3416 0.949 . S
C3411 H3406 0.950 . S
C3411 C3413 1.327 . S
C3411 C3417 1.429 . S
C3412 C3404 1.574 . S
C3412 H3407 0.949 . S
C3412 C3418 1.368 . S
C3413 C3397 1.349 . S
C3413 H3405 0.950 . S
C3413 C3411 1.327 . S
C3414 C3402 1.349 . S
C3414 H3408 0.950 . S
C3414 C3415 1.327 . S
C3415 H3409 0.950 . S
C3415 C3414 1.327 . S
C3415 C3419 1.429 . S
C3416 C3399 1.574 . S
C3416 H3410 0.949 . S
C3416 C3420 1.368 . S
C3417 C3398 1.429 . S
C3417 C3411 1.429 . S
C3417 C3418 1.523 . S
C3418 C3399 1.368 . S
C3418 C3412 1.368 . S
C3418 C3417 1.523 . S
C3419 C3403 1.429 . S
C3419 C3415 1.429 . S
C3419 C3420 1.523 . S
C3420 C3404 1.368 . S
C3420 C3416 1.368 . S
C3420 C3419 1.523 . S
H3421 C3396 0.950 . S
H3422 C3398 0.950 . S
H3423 C3399 0.949 . S
H3424 C3401 0.950 . S
H3425 C3403 0.950 . S
C3426 C3427 1.349 . S
C3426 C3428 1.327 . S
C3426 H3451 0.950 . S
C3427 C3426 1.349 . S
C3427 C3443 1.349 . S
C3428 C3426 1.327 . S
C3428 C3447 1.429 . S
C3428 H3452 0.950 . S
C3429 C3446 1.574 1_655 S
C3429 C3448 1.368 . S
C3429 H3453 0.949 . S
H3430 C3434 0.949 . S
C3431 C3432 1.349 . S
C3431 C3433 1.327 . S
C3431 H3454 0.950 . S
C3432 C3431 1.349 . S
C3432 C3444 1.349 . S
C3433 C3431 1.327 . S
C3433 C3449 1.429 . S
C3433 H3455 0.950 . S
C3434 H3430 0.949 . S
C3434 C3442 1.574 1_455 S
C3434 C3450 1.368 . S
H3435 C3443 0.950 . S
H3436 C3441 0.950 . S
H3437 C3442 0.949 . S
H3438 C3444 0.950 . S
H3439 C3445 0.950 . S
H3440 C3446 0.949 . S
C3441 H3436 0.950 . S
C3441 C3443 1.327 . S
C3441 C3447 1.429 . S
C3442 C3434 1.574 1_655 S
C3442 H3437 0.949 . S
C3442 C3448 1.368 . S
C3443 C3427 1.349 . S
C3443 H3435 0.950 . S
C3443 C3441 1.327 . S
C3444 C3432 1.349 . S
C3444 H3438 0.950 . S
C3444 C3445 1.327 . S
C3445 H3439 0.950 . S
C3445 C3444 1.327 . S
C3445 C3449 1.429 . S
C3446 C3429 1.574 1_455 S
C3446 H3440 0.949 . S
C3446 C3450 1.368 . S
C3447 C3428 1.429 . S
C3447 C3441 1.429 . S
C3447 C3448 1.523 . S
C3448 C3429 1.368 . S
C3448 C3442 1.368 . S
C3448 C3447 1.523 . S
C3449 C3433 1.429 . S
C3449 C3445 1.429 . S
C3449 C3450 1.523 . S
C3450 C3434 1.368 . S
C3450 C3446 1.368 . S
C3450 C3449 1.523 . S
H3451 C3426 0.950 . S
H3452 C3428 0.950 . S
H3453 C3429 0.949 . S
H3454 C3431 0.950 . S
H3455 C3433 0.950 . S
C1057 C899 0.634 . S
C1062 C28 0.645 . S
C1087 C272 0.634 1_455 S
C1092 C61 0.645 . S
C1117 C833 0.634 . S
C1122 C94 0.645 . S
C1147 C127 0.645 . S
C1152 C338 0.634 . S
C1177 C965 0.634 . S
C1182 C160 0.645 . S
C1207 C470 0.634 . S
C1212 C193 0.645 . S
C1237 C226 0.645 . S
C1242 C1031 0.634 . S
C1267 C259 0.645 . S
C1272 C404 0.634 1_455 S
C1297 C635 0.634 . S
C1302 C292 0.645 . S
C1327 C8 0.634 1_655 S
C1332 C325 0.645 . S
C1357 C358 0.645 . S
C1362 C569 0.634 . S
C1387 C391 0.645 . S
C1392 C74 0.634 . S
C1417 C424 0.645 . S
C1422 C701 0.634 . S
C1447 C457 0.645 . S
C1452 C206 0.634 . S
C1477 C767 0.634 . S
C1482 C490 0.645 . S
C1507 C140 0.634 1_655 S
C1512 C523 0.645 . S
C1537 C371 0.634 . S
C1542 C556 0.645 . S
C1567 C589 0.645 . S
C1572 C800 0.634 . S
C1597 C305 0.634 . S
C1602 C622 0.645 . S
C1627 C655 0.645 . S
C1632 C866 0.634 1_655 S
C1657 C437 0.634 . S
C1662 C688 0.645 . S
C1687 C998 0.634 1_655 S
C1692 C721 0.645 . S
C1717 C503 0.634 . S
C1722 C754 0.645 . S
C1747 C787 0.645 . S
C1752 C932 0.634 . S
C1777 C820 0.645 . S
C1782 C107 0.634 . S
C1807 C536 0.634 . S
C1812 C853 0.645 . S
C1837 C41 0.634 . S
C1842 C886 0.645 . S
C1867 C919 0.645 . S
C1872 C602 0.634 1_455 S
C1897 C952 0.645 . S
C1902 C173 0.634 . S
C1927 C985 0.645 . S
C1932 C734 0.634 1_455 S
C1957 C239 0.634 . S
C1962 C1018 0.645 . S
C1987 C1051 0.645 . S
C1992 C668 0.634 . S
C2017 N5 1.559 1_565 S
C2022 N170 1.559 . S
C2047 N203 1.559 1_565 S
C2052 N38 1.559 . S
C2077 N236 1.559 . S
C2082 N71 1.559 1_545 S
C2107 N104 1.558 . S
C2112 N137 1.558 1_545 S
C2137 N269 1.559 1_545 S
C2142 N434 1.559 . S
C2167 N302 1.559 . S
C2172 N467 1.559 1_545 S
C2197 N335 1.559 1_565 S
C2202 N500 1.559 . S
C2227 N368 1.558 . S
C2232 N401 1.558 1_565 S
C2257 N698 1.559 . S
C2262 N533 1.559 . S
C2287 N566 1.559 . S
C2292 N731 1.559 . S
C2317 N599 1.559 . S
C2322 N764 1.559 . S
C2347 N665 1.558 . S
C2352 N632 1.558 . S
C2377 N962 1.559 . S
C2382 N797 1.559 . S
C2407 N995 1.559 . S
C2412 N830 1.559 . S
C2437 N1028 1.559 . S
C2442 N863 1.559 . S
C2467 N929 1.558 . S
C2472 N896 1.558 . S
C2497 C17 1.209 . S
C2502 C149 1.209 . S
C2527 C50 1.209 . S
C2532 C182 1.209 . S
C2557 C215 1.209 . S
C2562 C83 1.209 . S
C2587 C248 1.209 . S
C2592 C116 1.209 . S
C2617 C281 1.209 . S
C2622 C413 1.209 . S
C2647 C446 1.209 . S
C2652 C314 1.209 . S
C2677 C347 1.209 . S
C2682 C479 1.209 . S
C2707 C512 1.209 . S
C2712 C380 1.209 . S
C2737 C545 1.209 . S
C2742 C677 1.209 . S
C2767 C578 1.209 . S
C2772 C710 1.209 . S
C2797 C611 1.209 . S
C2802 C743 1.209 . S
C2827 C644 1.209 . S
C2832 C776 1.209 . S
C2857 C941 1.209 . S
C2862 C809 1.209 . S
C2887 C842 1.209 . S
C2892 C974 1.209 . S
C2917 C875 1.209 . S
C2922 C1007 1.209 . S
C2947 C908 1.209 . S
C2952 C1040 1.209 . S
C2977 N14 0.901 . S
C2982 N608 0.901 . S
C3007 N641 0.901 . S
C3012 N47 0.901 . S
C3037 N80 0.901 . S
C3042 N542 0.901 . S
C3067 N113 0.901 . S
C3072 N575 0.901 . S
C3097 N740 0.901 . S
C3102 N146 0.901 . S
C3127 N773 0.901 . S
C3132 N179 0.901 . S
C3157 N212 0.901 . S
C3162 N674 0.901 . S
C3187 N245 0.901 . S
C3192 N707 0.901 . S
C3217 N278 0.901 . S
C3222 N872 0.901 . S
C3247 N905 0.901 . S
C3252 N311 0.901 . S
C3277 N806 0.901 . S
C3282 N344 0.901 . S
C3307 N377 0.901 . S
C3312 N839 0.901 . S
C3337 N410 0.901 . S
C3342 N1004 0.901 . S
C3367 N443 0.901 . S
C3372 N1037 0.901 . S
C3397 N476 0.901 . S
C3402 N938 0.901 . S
C3427 N509 0.901 . S
C3432 N971 0.901 . S
