# Generated by pormake.
# Topology acs-i, (5)-cn, num edge types: 1
# Building blocks:
#     Node 0, Type 0, BuildingBlock: XOMCOT_clean_sbu_1, # of connection points: 5
#     Node 1, Type 0, BuildingBlock: XOMCOT_clean_sbu_1, # of connection points: 5
#     Node 2, Type 0, BuildingBlock: XOMCOT_clean_sbu_1, # of connection points: 5
#     Node 3, Type 0, BuildingBlock: XOMCOT_clean_sbu_1, # of connection points: 5
#     Node 4, Type 0, BuildingBlock: XOMCOT_clean_sbu_1, # of connection points: 5
#     Node 5, Type 0, BuildingBlock: XOMCOT_clean_sbu_1, # of connection points: 5
#     Node 6, Type 0, BuildingBlock: XOMCOT_clean_sbu_1, # of connection points: 5
#     Node 7, Type 0, BuildingBlock: XOMCOT_clean_sbu_1, # of connection points: 5
#     Node 8, Type 0, BuildingBlock: XOMCOT_clean_sbu_1, # of connection points: 5
#     Node 9, Type 0, BuildingBlock: XOMCOT_clean_sbu_1, # of connection points: 5
#     Node 10, Type 0, BuildingBlock: XOMCOT_clean_sbu_1, # of connection points: 5
#     Node 11, Type 0, BuildingBlock: XOMCOT_clean_sbu_1, # of connection points: 5
#     Edge 12, Type (0, 0), BuildingBlock: CIFDUS_clean_linker_0, # of connection points: 2
#     Edge 13, Type (0, 0), BuildingBlock: CIFDUS_clean_linker_0, # of connection points: 2
#     Edge 14, Type (0, 0), BuildingBlock: CIFDUS_clean_linker_0, # of connection points: 2
#     Edge 15, Type (0, 0), BuildingBlock: CIFDUS_clean_linker_0, # of connection points: 2
#     Edge 16, Type (0, 0), BuildingBlock: CIFDUS_clean_linker_0, # of connection points: 2
#     Edge 17, Type (0, 0), BuildingBlock: CIFDUS_clean_linker_0, # of connection points: 2
#     Edge 18, Type (0, 0), BuildingBlock: CIFDUS_clean_linker_0, # of connection points: 2
#     Edge 19, Type (0, 0), BuildingBlock: CIFDUS_clean_linker_0, # of connection points: 2
#     Edge 20, Type (0, 0), BuildingBlock: CIFDUS_clean_linker_0, # of connection points: 2
#     Edge 21, Type (0, 0), BuildingBlock: CIFDUS_clean_linker_0, # of connection points: 2
#     Edge 22, Type (0, 0), BuildingBlock: CIFDUS_clean_linker_0, # of connection points: 2
#     Edge 23, Type (0, 0), BuildingBlock: CIFDUS_clean_linker_0, # of connection points: 2
#     Edge 24, Type (0, 0), BuildingBlock: CIFDUS_clean_linker_0, # of connection points: 2
#     Edge 25, Type (0, 0), BuildingBlock: CIFDUS_clean_linker_0, # of connection points: 2
#     Edge 26, Type (0, 0), BuildingBlock: CIFDUS_clean_linker_0, # of connection points: 2
#     Edge 27, Type (0, 0), BuildingBlock: CIFDUS_clean_linker_0, # of connection points: 2
#     Edge 28, Type (0, 0), BuildingBlock: CIFDUS_clean_linker_0, # of connection points: 2
#     Edge 29, Type (0, 0), BuildingBlock: CIFDUS_clean_linker_0, # of connection points: 2
#     Edge 30, Type (0, 0), BuildingBlock: CIFDUS_clean_linker_0, # of connection points: 2
#     Edge 31, Type (0, 0), BuildingBlock: CIFDUS_clean_linker_0, # of connection points: 2
#     Edge 32, Type (0, 0), BuildingBlock: CIFDUS_clean_linker_0, # of connection points: 2
#     Edge 33, Type (0, 0), BuildingBlock: CIFDUS_clean_linker_0, # of connection points: 2
#     Edge 34, Type (0, 0), BuildingBlock: CIFDUS_clean_linker_0, # of connection points: 2
#     Edge 35, Type (0, 0), BuildingBlock: CIFDUS_clean_linker_0, # of connection points: 2
#     Edge 36, Type (0, 0), BuildingBlock: CIFDUS_clean_linker_0, # of connection points: 2
#     Edge 37, Type (0, 0), BuildingBlock: CIFDUS_clean_linker_0, # of connection points: 2
#     Edge 38, Type (0, 0), BuildingBlock: CIFDUS_clean_linker_0, # of connection points: 2
#     Edge 39, Type (0, 0), BuildingBlock: CIFDUS_clean_linker_0, # of connection points: 2
#     Edge 40, Type (0, 0), BuildingBlock: CIFDUS_clean_linker_0, # of connection points: 2
#     Edge 41, Type (0, 0), BuildingBlock: CIFDUS_clean_linker_0, # of connection points: 2
# Relax obj value: 0.865
# Max RMSD: 0.203
# Mean RMSD: 0.203
data_MOF--net-acs-i--node1-XOMCOT_clean_sbu_1--edge1-CIFDUS_clean_linker_0
_symmetry_space_group_name_H-M    P1
_symmetry_Int_Tables_number       1
_symmetry_cell_setting            triclinic
loop_
_symmetry_equiv_pos_as_xyz
'x, y, z'
_cell_length_a     38.847734
_cell_length_b     38.797477
_cell_length_c     43.292633
_cell_angle_alpha  90.082727
_cell_angle_beta   89.962464
_cell_angle_gamma 120.04752
loop_
_atom_site_label
_atom_site_type_symbol
_atom_site_fract_x
_atom_site_fract_y
_atom_site_fract_z
_atom_type_partial_charge
C0 C 0.32578 0.53777 0.03818 0.0
C1 C 0.34964 0.57778 0.0318 0.0
N2 N 0.36907 0.59646 0.0579 0.0
N3 N 0.33053 0.53136 0.06805 0.0
C4 C 0.35659 0.56756 0.07938 0.0
H5 H 0.30645 0.51481 0.02212 0.0
Co6 Co 0.3067 0.48383 0.09011 0.0
C7 C 0.37646 0.49676 0.12972 0.0
O8 O 0.37706 0.46502 0.11999 0.0
N9 N 0.28231 0.43565 0.11318 0.0
C10 C 0.26999 0.37949 0.13693 0.0
C11 C 0.29181 0.40647 0.11427 0.0
C12 C 0.25382 0.42484 0.13504 0.0
N13 N 0.24603 0.39113 0.14976 0.0
O14 O 0.28199 0.50553 0.11514 0.0
H15 H 0.31427 0.40528 0.10035 0.0
H16 H 0.24054 0.44243 0.14169 0.0
O17 O 0.3513 0.50544 0.11868 0.0
C18 C 0.25132 0.50186 0.10147 0.0
O19 O 0.23951 0.48055 0.07599 0.0
N20 N 0.32875 0.46343 0.06255 0.0
C21 C 0.34678 0.44452 0.005 0.0
C22 C 0.37688 0.47416 0.02344 0.0
C23 C 0.36719 0.48326 0.05236 0.0
C24 C 0.29981 0.43324 0.04564 0.0
C25 C 0.30837 0.42256 0.01732 0.0
H26 H 0.38951 0.50881 0.06493 0.0
H27 H 0.26917 0.41924 0.05314 0.0
H28 H 0.36645 0.57253 0.10302 0.0
H29 H 0.35207 0.5919 0.00974 0.0
H30 H 0.27256 0.35419 0.14421 0.0
H31 H 0.40686 0.49215 0.01472 0.0
H32 H 0.28437 0.39876 0.00437 0.0
C33 C 0.85957 0.31145 0.64139 0.0
C34 C 0.83979 0.32648 0.62493 0.0
N35 N 0.83697 0.35343 0.64278 0.0
N36 N 0.86966 0.32937 0.66923 0.0
C37 C 0.85489 0.35432 0.66964 0.0
H38 H 0.86715 0.28966 0.63338 0.0
Co39 Co 0.89846 0.31998 0.69877 0.0
C40 C 0.94199 0.40435 0.72526 0.0
O41 O 0.97754 0.41457 0.71469 0.0
N42 N 0.92604 0.30831 0.72876 0.0
C43 C 0.96245 0.30834 0.76851 0.0
C44 C 0.95998 0.33071 0.74479 0.0
C45 C 0.90992 0.27216 0.7421 0.0
N46 N 0.93069 0.27144 0.76672 0.0
O47 O 0.8514 0.29557 0.72331 0.0
H48 H 0.98066 0.36175 0.74095 0.0
H49 H 0.88126 0.24749 0.73582 0.0
O50 O 0.9124 0.36986 0.71957 0.0
C51 C 0.82419 0.26107 0.71509 0.0
O52 O 0.83262 0.24158 0.69438 0.0
N53 N 0.94298 0.34301 0.67259 0.0
C54 C 0.98272 0.35771 0.61619 0.0
C55 C 0.97152 0.38434 0.62802 0.0
C56 C 0.95182 0.37652 0.6562 0.0
C57 C 0.95661 0.31857 0.6629 0.0
C58 C 0.97709 0.3257 0.63492 0.0
H59 H 0.93937 0.39488 0.66277 0.0
H60 H 0.94832 0.29132 0.67529 0.0
H61 H 0.85856 0.37393 0.6887 0.0
H62 H 0.82891 0.31871 0.60149 0.0
H63 H 0.98427 0.31914 0.7869 0.0
H64 H 0.97426 0.409 0.61445 0.0
H65 H 0.98592 0.30473 0.62714 0.0
C66 C 0.46137 0.88144 0.089 0.0
C67 C 0.42047 0.86314 0.08757 0.0
N68 N 0.40537 0.84074 0.11316 0.0
N69 N 0.47171 0.87116 0.11569 0.0
C70 C 0.437 0.84566 0.12945 0.0
H71 H 0.48225 0.90228 0.07243 0.0
Co72 Co 0.52207 0.89033 0.13257 0.0
C73 C 0.50367 0.86992 0.19758 0.0
O74 O 0.527 0.85447 0.19809 0.0
N75 N 0.57267 0.9092 0.14959 0.0
C76 C 0.62563 0.93921 0.18013 0.0
C77 C 0.59245 0.93966 0.16955 0.0
C78 C 0.59485 0.89147 0.14782 0.0
N79 N 0.62681 0.90846 0.16668 0.0
O80 O 0.51089 0.83667 0.13478 0.0
H81 H 0.58195 0.95918 0.1776 0.0
H82 H 0.5856 0.86407 0.13534 0.0
O83 O 0.50031 0.88612 0.1731 0.0
C84 C 0.51069 0.82084 0.10897 0.0
O85 O 0.52409 0.84381 0.08446 0.0
N86 N 0.53159 0.94213 0.12858 0.0
C87 C 0.53053 0.00442 0.09886 0.0
C88 C 0.50232 0.98318 0.1217 0.0
C89 C 0.50404 0.95246 0.13712 0.0
C90 C 0.56163 0.96531 0.10887 0.0
C91 C 0.56228 0.9975 0.09436 0.0
H92 H 0.47988 0.9335 0.15239 0.0
H93 H 0.58259 0.95623 0.10174 0.0
H94 H 0.43495 0.83229 0.15177 0.0
H95 H 0.40329 0.86677 0.06952 0.0
H96 H 0.64551 0.95815 0.19808 0.0
H97 H 0.47706 0.9874 0.12519 0.0
H98 H 0.5841 0.013 0.07639 0.0
C99 C 0.65774 0.44084 0.55593 0.0
C100 C 0.63317 0.39998 0.55847 0.0
N101 N 0.62457 0.39112 0.58862 0.0
N102 N 0.66353 0.45727 0.58433 0.0
C103 C 0.64361 0.42618 0.60348 0.0
H104 H 0.66951 0.45749 0.53478 0.0
Co105 Co 0.68983 0.50958 0.59919 0.0
C106 C 0.61864 0.50038 0.63691 0.0
O107 O 0.61183 0.52596 0.62223 0.0
N108 N 0.71617 0.56182 0.61546 0.0
C109 C 0.72794 0.61936 0.6362 0.0
C110 C 0.70338 0.58843 0.61695 0.0
C111 C 0.74937 0.5782 0.63304 0.0
N112 N 0.75687 0.61274 0.6462 0.0
O113 O 0.71614 0.49345 0.62808 0.0
H114 H 0.67672 0.58474 0.60612 0.0
H115 H 0.76602 0.56357 0.6386 0.0
O116 O 0.64698 0.49486 0.6285 0.0
C117 C 0.74382 0.4915 0.61387 0.0
O118 O 0.75257 0.50587 0.58566 0.0
N119 N 0.66607 0.52412 0.5684 0.0
C120 C 0.64432 0.53085 0.50844 0.0
C121 C 0.61572 0.50439 0.52947 0.0
C122 C 0.62723 0.50157 0.55957 0.0
C123 C 0.69349 0.55176 0.54893 0.0
C124 C 0.68305 0.55631 0.51919 0.0
H125 H 0.60603 0.47814 0.5744 0.0
H126 H 0.72446 0.56822 0.5556 0.0
H127 H 0.64223 0.42942 0.62812 0.0
H128 H 0.62231 0.37869 0.5397 0.0
H129 H 0.72345 0.64339 0.64386 0.0
H130 H 0.58554 0.48392 0.52221 0.0
H131 H 0.70589 0.5781 0.50421 0.0
C132 C 0.11467 0.66525 0.11088 0.0
C133 C 0.12708 0.64243 0.09534 0.0
N134 N 0.14309 0.6285 0.11602 0.0
N135 N 0.12249 0.6653 0.14119 0.0
C136 C 0.14019 0.64309 0.14357 0.0
H137 H 0.10025 0.68029 0.10088 0.0
Co138 Co 0.10987 0.68993 0.1723 0.0
C139 C 0.13164 0.66247 0.22756 0.0
O140 O 0.15509 0.69994 0.23521 0.0
N141 N 0.09722 0.71508 0.20368 0.0
C142 C 0.07161 0.72541 0.24628 0.0
C143 C 0.06706 0.69788 0.22419 0.0
C144 C 0.11908 0.7531 0.21342 0.0
N145 N 0.10464 0.76013 0.23956 0.0
O146 O 0.16534 0.726 0.17703 0.0
H147 H 0.04462 0.66666 0.22425 0.0
H148 H 0.14716 0.77443 0.20325 0.0
O149 O 0.11115 0.65388 0.20279 0.0
C150 C 0.17867 0.75369 0.15697 0.0
O151 O 0.15316 0.75751 0.13944 0.0
N152 N 0.05637 0.65569 0.16437 0.0
C153 C 0.996 0.61406 0.12226 0.0
C154 C 0.01053 0.59405 0.14024 0.0
C155 C 0.04072 0.61551 0.16166 0.0
C156 C 0.03903 0.6744 0.15015 0.0
C157 C 0.00831 0.6539 0.12911 0.0
H158 H 0.05522 0.60104 0.17242 0.0
H159 H 0.05257 0.7064 0.1519 0.0
H160 H 0.14981 0.63681 0.16521 0.0
H161 H 0.12449 0.63658 0.07075 0.0
H162 H 0.05344 0.71956 0.2667 0.0
H163 H 0.00156 0.56324 0.13556 0.0
H164 H -0.00193 0.67046 0.11553 0.0
C165 C 0.58317 0.2306 0.63558 0.0
C166 C 0.61999 0.2519 0.64891 0.0
N167 N 0.61939 0.23433 0.67581 0.0
N168 N 0.55915 0.2 0.65417 0.0
C169 C 0.58231 0.20266 0.67839 0.0
H170 H 0.57448 0.23674 0.61347 0.0
Co171 Co 0.50601 0.16383 0.64534 0.0
C172 C 0.49005 0.09644 0.68427 0.0
O173 O 0.45625 0.09388 0.69242 0.0
N174 N 0.45296 0.12842 0.63593 0.0
C175 C 0.39271 0.07631 0.62755 0.0
C176 C 0.43309 0.08963 0.62752 0.0
C177 C 0.42471 0.13838 0.63926 0.0
N178 N 0.38792 0.10747 0.63448 0.0
O179 O 0.48987 0.17362 0.68498 0.0
H180 H 0.4468 0.07163 0.62374 0.0
H181 H 0.43064 0.16707 0.64778 0.0
O182 O 0.51202 0.12194 0.66404 0.0
C183 C 0.49596 0.2062 0.69687 0.0
O184 O 0.48382 0.20606 0.7252 0.0
N185 N 0.521 0.155 0.60684 0.0
C186 C 0.53817 0.14211 0.54692 0.0
C187 C 0.55706 0.13621 0.57245 0.0
C188 C 0.54764 0.14235 0.60233 0.0
C189 C 0.50525 0.16446 0.58249 0.0
C190 C 0.51277 0.15754 0.5524 0.0
H191 H 0.56173 0.137 0.62181 0.0
H192 H 0.48552 0.17614 0.58654 0.0
H193 H 0.57236 0.18176 0.6974 0.0
H194 H 0.64577 0.27736 0.63901 0.0
H195 H 0.36885 0.04593 0.6245 0.0
H196 H 0.57808 0.12588 0.56959 0.0
H197 H 0.49695 0.16238 0.53392 0.0
C198 C 0.52007 0.6206 0.37123 0.0
C199 C 0.48355 0.59587 0.38422 0.0
N200 N 0.45503 0.59242 0.3645 0.0
N201 N 0.51473 0.63229 0.34327 0.0
C202 C 0.475 0.6152 0.33995 0.0
H203 H 0.54871 0.62883 0.38118 0.0
Co204 Co 0.55452 0.66424 0.31577 0.0
C205 C 0.5088 0.65423 0.2597 0.0
O206 O 0.52196 0.69271 0.2598 0.0
N207 N 0.59499 0.69679 0.28821 0.0
C208 C 0.63618 0.71826 0.24807 0.0
C209 C 0.60937 0.68525 0.26441 0.0
C210 C 0.61382 0.73681 0.28603 0.0
N211 N 0.63872 0.75078 0.26159 0.0
O212 O 0.53737 0.70235 0.31965 0.0
H213 H 0.59959 0.65464 0.25841 0.0
H214 H 0.60718 0.75528 0.30065 0.0
O215 O 0.51934 0.63873 0.28098 0.0
C216 C 0.55014 0.72392 0.34379 0.0
O217 O 0.57697 0.72179 0.36087 0.0
N218 N 0.57119 0.62696 0.31505 0.0
C219 C 0.58415 0.57248 0.34619 0.0
C220 C 0.55079 0.55927 0.32704 0.0
C221 C 0.54504 0.58725 0.3111 0.0
C222 C 0.6064 0.63975 0.32986 0.0
C223 C 0.61381 0.61275 0.34532 0.0
H224 H 0.51679 0.57731 0.29984 0.0
H225 H 0.62627 0.67129 0.33337 0.0
H226 H 0.46124 0.61966 0.31984 0.0
H227 H 0.47873 0.58102 0.40623 0.0
H228 H 0.65096 0.71801 0.22695 0.0
H229 H 0.52734 0.52837 0.32724 0.0
H230 H 0.63982 0.62414 0.36002 0.0
C231 C 0.78649 0.48427 0.92567 0.0
C232 C 0.77422 0.44549 0.9338 0.0
N233 N 0.77638 0.42618 0.90859 0.0
N234 N 0.7967 0.48937 0.89558 0.0
C235 C 0.78977 0.45342 0.88577 0.0
H236 H 0.78816 0.50737 0.94069 0.0
Co237 Co 0.81548 0.53572 0.87239 0.0
C238 C 0.87535 0.5279 0.83308 0.0
O239 O 0.90591 0.56167 0.84217 0.0
N240 N 0.83377 0.58257 0.84825 0.0
C241 C 0.87101 0.63891 0.82206 0.0
C242 C 0.87096 0.61411 0.84481 0.0
C243 C 0.81175 0.58989 0.82795 0.0
N244 N 0.83359 0.62357 0.81173 0.0
O245 O 0.76825 0.50896 0.84864 0.0
H246 H 0.89693 0.6186 0.85732 0.0
H247 H 0.78056 0.56988 0.82351 0.0
O248 O 0.84079 0.51656 0.84395 0.0
C249 C 0.73901 0.50743 0.86313 0.0
O250 O 0.74621 0.52831 0.88868 0.0
N251 N 0.8594 0.56068 0.89866 0.0
C252 C 0.89698 0.58074 0.95603 0.0
C253 C 0.8983 0.55171 0.93737 0.0
C254 C 0.87956 0.54232 0.90857 0.0
C255 C 0.86027 0.59084 0.91539 0.0
C256 C 0.87989 0.60215 0.94365 0.0
H257 H 0.87702 0.51693 0.8962 0.0
H258 H 0.84276 0.60398 0.90809 0.0
H259 H 0.79493 0.44741 0.86237 0.0
H260 H 0.76415 0.43251 0.95644 0.0
H261 H 0.89664 0.66533 0.81309 0.0
H262 H 0.91053 0.53385 0.94584 0.0
H263 H 0.87917 0.6257 0.95655 0.0
C264 C 0.40281 0.85104 0.43169 0.0
C265 C 0.42524 0.83256 0.42984 0.0
N266 N 0.41657 0.81225 0.40296 0.0
N267 N 0.38066 0.84278 0.40588 0.0
C268 C 0.38908 0.81851 0.38924 0.0
H269 H 0.40383 0.87055 0.44998 0.0
Co270 Co 0.34882 0.86309 0.39275 0.0
C271 C 0.34855 0.8524 0.32536 0.0
O272 O 0.30991 0.83742 0.3233 0.0
N273 N 0.3164 0.88336 0.37896 0.0
C274 C 0.29509 0.91844 0.35281 0.0
C275 C 0.32799 0.918 0.36396 0.0
C276 C 0.27632 0.86371 0.37698 0.0
N277 N 0.2625 0.88387 0.3606 0.0
O278 O 0.30678 0.80985 0.38765 0.0
H279 H 0.35851 0.94031 0.35927 0.0
H280 H 0.25769 0.83335 0.38452 0.0
O281 O 0.36608 0.86377 0.35127 0.0
C282 C 0.28844 0.7922 0.4122 0.0
O283 O 0.29591 0.81295 0.43782 0.0
N284 N 0.39086 0.91442 0.39943 0.0
C285 C 0.45439 0.98482 0.42084 0.0
C286 C 0.46013 0.96367 0.39722 0.0
C287 C 0.42764 0.92843 0.3865 0.0
C288 C 0.38479 0.93523 0.42199 0.0
C289 C 0.41616 0.97103 0.43269 0.0
H290 H 0.43272 0.91105 0.3695 0.0
H291 H 0.3558 0.92304 0.43262 0.0
H292 H 0.37654 0.80706 0.36671 0.0
H293 H 0.44679 0.83463 0.44666 0.0
H294 H 0.29551 0.94116 0.3381 0.0
H295 H 0.48961 0.9732 0.3883 0.0
H296 H 0.41117 0.98637 0.45159 0.0
C297 C 0.44726 0.29853 0.85572 0.0
C298 C 0.48187 0.32066 0.87221 0.0
N299 N 0.51073 0.34407 0.85219 0.0
N300 N 0.4544 0.30812 0.82557 0.0
C301 C 0.49332 0.33588 0.82422 0.0
H302 H 0.41844 0.27769 0.86519 0.0
Co303 Co 0.41611 0.28923 0.79467 0.0
C304 C 0.48158 0.32001 0.74854 0.0
O305 O 0.48563 0.28869 0.75227 0.0
N306 N 0.37704 0.27003 0.76364 0.0
C307 C 0.33904 0.2673 0.72417 0.0
C308 C 0.3638 0.29083 0.74743 0.0
C309 C 0.35952 0.23391 0.74993 0.0
N310 N 0.33658 0.23147 0.72564 0.0
O311 O 0.42746 0.24733 0.7877 0.0
H312 H 0.37336 0.32195 0.75093 0.0
H313 H 0.36618 0.21081 0.75575 0.0
O314 O 0.45507 0.32325 0.76365 0.0
C315 C 0.41176 0.2183 0.80656 0.0
O316 O 0.38243 0.21448 0.8241 0.0
N317 N 0.40497 0.32911 0.80497 0.0
C318 C 0.39743 0.38017 0.84552 0.0
C319 C 0.43001 0.39475 0.82543 0.0
C320 C 0.43308 0.36865 0.8049 0.0
C321 C 0.37127 0.31535 0.82211 0.0
C322 C 0.36664 0.34061 0.8424 0.0
H323 H 0.4602 0.37946 0.7918 0.0
H324 H 0.34998 0.28377 0.8225 0.0
H325 H 0.50836 0.35181 0.80357 0.0
H326 H 0.48534 0.32003 0.89697 0.0
H327 H 0.32617 0.2768 0.70628 0.0
H328 H 0.45427 0.42517 0.8273 0.0
H329 H 0.34125 0.32824 0.8578 0.0
C330 C 0.16359 0.49616 0.42149 0.0
C331 C 0.18163 0.53582 0.42974 0.0
N332 N 0.19383 0.55786 0.40375 0.0
N333 N 0.16392 0.49345 0.39043 0.0
C334 C 0.18302 0.53142 0.38046 0.0
H335 H 0.15076 0.47102 0.43707 0.0
Co336 Co 0.14366 0.44917 0.36453 0.0
C337 C 0.09825 0.46831 0.31773 0.0
O338 O 0.0676 0.43204 0.31705 0.0
N339 N 0.12368 0.40447 0.33755 0.0
C340 C 0.08486 0.3508 0.30884 0.0
C341 C 0.08644 0.37277 0.33438 0.0
C342 C 0.14414 0.40004 0.31408 0.0
N343 N 0.1214 0.36798 0.29647 0.0
O344 O 0.19452 0.47246 0.34537 0.0
H345 H 0.06104 0.36716 0.34827 0.0
H346 H 0.17464 0.42123 0.30831 0.0
O347 O 0.12768 0.47679 0.33546 0.0
C348 C 0.21879 0.46765 0.36197 0.0
O349 O 0.20523 0.44555 0.38692 0.0
N350 N 0.0962 0.42677 0.38642 0.0
C351 C 0.05089 0.40742 0.43997 0.0
C352 C 0.05201 0.43603 0.41946 0.0
C353 C 0.07506 0.44542 0.39261 0.0
C354 C 0.09285 0.39681 0.40481 0.0
C355 C 0.06988 0.38622 0.43146 0.0
H356 H 0.07961 0.47072 0.37907 0.0
H357 H 0.11138 0.38383 0.40041 0.0
H358 H 0.18867 0.53948 0.35635 0.0
H359 H 0.18571 0.54746 0.45301 0.0
H360 H 0.05869 0.32538 0.29929 0.0
H361 H 0.03782 0.45311 0.42532 0.0
H362 H 0.07052 0.36454 0.44682 0.0
C363 C 0.59872 0.14431 0.89796 0.0
C364 C 0.57019 0.1545 0.89183 0.0
N365 N 0.5686 0.1584 0.86103 0.0
N366 N 0.61447 0.14113 0.87107 0.0
C367 C 0.596 0.15058 0.84901 0.0
H368 H 0.60686 0.13864 0.92048 0.0
Co369 Co 0.65213 0.12506 0.8664 0.0
C370 C 0.61966 0.0745 0.81 0.0
O371 O 0.61339 0.04179 0.8238 0.0
N372 N 0.69119 0.10942 0.8614 0.0
C373 C 0.72296 0.0753 0.8542 0.0
C374 C 0.68709 0.07259 0.86123 0.0
C375 C 0.73019 0.13382 0.85512 0.0
N376 N 0.74998 0.11398 0.85071 0.0
O377 O 0.68796 0.17729 0.85173 0.0
H378 H 0.65969 0.04508 0.86531 0.0
H379 H 0.74393 0.16561 0.85199 0.0
O380 O 0.63368 0.10725 0.8248 0.0
C381 C 0.70364 0.19908 0.87548 0.0
O382 O 0.69762 0.1814 0.90245 0.0
N383 N 0.61629 0.07633 0.88425 0.0
C384 C 0.56277 0.03807 0.9316 0.0
C385 C 0.54878 0.03721 0.90168 0.0
C386 C 0.57635 0.05664 0.87798 0.0
C387 C 0.62987 0.07312 0.91245 0.0
C388 C 0.60352 0.05348 0.93635 0.0
H389 H 0.56556 0.06109 0.85621 0.0
H390 H 0.66125 0.09042 0.91772 0.0
H391 H 0.60178 0.15082 0.82453 0.0
H392 H 0.55214 0.1589 0.90869 0.0
H393 H 0.72852 0.05083 0.85106 0.0
H394 H 0.51741 0.02562 0.89741 0.0
H395 H 0.61517 0.0542 0.95924 0.0
H396 H 0.34015 0.39509 0.86559 0.0
H397 H 0.45662 0.41447 0.8879 0.0
H398 H 0.45281 0.43894 0.93916 0.0
H399 H 0.41264 0.44681 0.97968 0.0
H400 H 0.29707 0.42971 0.95605 0.0
H401 H 0.30411 0.41198 0.90356 0.0
C402 C 0.36497 0.40554 0.8815 0.0
C403 C 0.39849 0.40301 0.87316 0.0
C404 C 0.36239 0.41907 0.91097 0.0
C405 C 0.43064 0.41662 0.8938 0.0
C406 C 0.4283 0.43016 0.92322 0.0
C407 C 0.3893 0.43987 0.96294 0.0
C408 C 0.35381 0.43822 0.97223 0.0
C409 C 0.39376 0.43033 0.9324 0.0
C410 C 0.32404 0.42954 0.95002 0.0
C411 C 0.32815 0.4198 0.91981 0.0
H412 H 0.02578 0.4249 0.58135 0.0
H413 H 0.96553 0.29644 0.57591 0.0
H414 H 0.97935 0.30039 0.52086 0.0
H415 H 0.00712 0.34007 0.47377 0.0
H416 H 0.0644 0.46816 0.47884 0.0
H417 H 0.05068 0.46428 0.5341 0.0
C418 C 0.01526 0.39765 0.5682 0.0
C419 C 0.99481 0.36046 0.58316 0.0
C420 C 0.02175 0.39995 0.5362 0.0
C421 C 0.98225 0.32563 0.56551 0.0
C422 C 0.98953 0.32776 0.53379 0.0
C423 C 0.01626 0.36709 0.48696 0.0
C424 C 0.03651 0.40429 0.47215 0.0
C425 C 0.00895 0.36472 0.51886 0.0
C426 C 0.04803 0.43907 0.4895 0.0
C427 C 0.04075 0.43693 0.52122 0.0
H428 H 0.57284 0.08908 0.97687 0.0
H429 H 0.49603 0.96806 0.94724 0.0
H430 H 0.46707 0.95032 -0.0008 0.0
H431 H 0.47813 0.96544 0.05453 0.0
H432 H 0.56528 0.08326 0.08449 0.0
H433 H 0.57458 0.10707 0.03116 0.0
C434 C 0.54894 0.05908 0.98173 0.0
C435 C 0.53714 0.02949 0.9589 0.0
C436 C 0.53449 0.04885 0.01185 0.0
C437 C 0.50573 0.99099 0.96479 0.0
C438 C 0.48946 0.98093 -0.00553 0.0
C439 C 0.4975 0.99679 0.04938 0.0
C440 C 0.52114 0.02273 0.07303 0.0
C441 C 0.50553 0.00901 0.01853 0.0
C442 C 0.54667 0.06309 0.0665 0.0
C443 C 0.55249 0.07638 0.03598 0.0
H444 H 0.57501 0.51851 0.48188 0.0
H445 H 0.69271 0.54057 0.45936 0.0
H446 H 0.68196 0.54886 0.40527 0.0
H447 H 0.64268 0.55889 0.36566 0.0
H448 H 0.52456 0.53516 0.38769 0.0
H449 H 0.53114 0.51634 0.44014 0.0
C450 C 0.59802 0.52427 0.46512 0.0
C451 C 0.63519 0.53052 0.47503 0.0
C452 C 0.59144 0.52828 0.43377 0.0
C453 C 0.66445 0.53754 0.45274 0.0
C454 C 0.6582 0.54177 0.42164 0.0
C455 C 0.61796 0.54825 0.3817 0.0
C456 C 0.58337 0.54854 0.37295 0.0
C457 C 0.62235 0.53857 0.41207 0.0
C458 C 0.55139 0.53474 0.39381 0.0
C459 C 0.55537 0.52461 0.42399 0.0
H460 H 0.93013 0.6124 0.09928 0.0
H461 H 0.01925 0.58085 0.07773 0.0
H462 H 0.99665 0.56762 0.02419 0.0
H463 H 0.95625 0.57178 0.98254 0.0
H464 H 0.86415 0.59932 0.0049 0.0
H465 H 0.88439 0.60887 0.05865 0.0
C466 C 0.94394 0.6018 0.08294 0.0
C467 C 0.97607 0.59741 0.09241 0.0
C468 C 0.93122 0.59481 0.05209 0.0
C469 C 0.99392 0.58374 0.0711 0.0
C470 C 0.98142 0.57675 0.04037 0.0
C471 C 0.94007 0.57924 -0.0009 0.0
C472 C 0.90935 0.58581 0.98912 0.0
C473 C 0.95079 0.58322 0.03042 0.0
C474 C 0.88906 0.59568 0.0113 0.0
C475 C 0.90014 0.60053 0.04232 0.0
H476 H 0.48029 0.06377 0.41893 0.0
H477 H 0.50153 0.97577 0.46127 0.0
H478 H 0.53879 0.02206 0.50293 0.0
H479 H 0.54896 0.07947 0.53267 0.0
H480 H 0.53129 0.17004 0.48979 0.0
H481 H 0.50925 0.13073 0.44255 0.0
C482 C 0.49472 0.05563 0.43659 0.0
C483 C 0.48814 0.01668 0.43754 0.0
C484 C 0.51556 0.0822 0.46065 0.0
C485 C 0.50657 0.00587 0.46032 0.0
C486 C 0.52744 0.03214 0.48425 0.0
C487 C 0.54209 0.09187 0.5128 0.0
C488 C 0.53966 0.12676 0.51564 0.0
C489 C 0.52984 0.06938 0.48558 0.0
C490 C 0.53118 0.14209 0.48904 0.0
C491 C 0.51881 0.11978 0.46184 0.0
H492 H 0.19049 0.50383 0.07312 0.0
H493 H 0.27075 0.55331 0.15051 0.0
H494 H 0.24363 0.59685 0.16224 0.0
H495 H 0.19939 0.62303 0.14865 0.0
H496 H 0.1203 0.57354 0.07061 0.0
H497 H 0.14541 0.52828 0.06059 0.0
C498 C 0.20191 0.52385 0.09276 0.0
C499 C 0.23261 0.52531 0.11092 0.0
C500 C 0.18679 0.54919 0.09894 0.0
C501 C 0.24703 0.55152 0.13622 0.0
C502 C 0.23168 0.57655 0.14283 0.0
C503 C 0.18737 0.60207 0.12965 0.0
C504 C 0.15811 0.60185 0.1103 0.0
C505 C 0.2019 0.57598 0.12407 0.0
C506 C 0.14327 0.57486 0.08551 0.0
C507 C 0.15738 0.54872 0.07992 0.0
H508 H 0.64214 0.18382 0.69582 0.0
H509 H 0.67437 0.30717 0.69526 0.0
H510 H 0.74056 0.32626 0.71521 0.0
H511 H 0.79231 0.30855 0.72301 0.0
H512 H 0.76197 0.18553 0.71757 0.0
H513 H 0.69218 0.16528 0.7105 0.0
C514 C 0.6633 0.21457 0.70128 0.0
C515 C 0.65377 0.24408 0.69423 0.0
C516 C 0.70176 0.22529 0.71133 0.0
C517 C 0.68144 0.28413 0.70054 0.0
C518 C 0.71921 0.29497 0.71179 0.0
C519 C 0.77012 0.27719 0.7215 0.0
C520 C 0.78212 0.2485 0.72066 0.0
C521 C 0.73026 0.26596 0.71592 0.0
C522 C 0.75327 0.20806 0.71821 0.0
C523 C 0.71332 0.19649 0.71402 0.0
H524 H 0.49524 0.77893 0.05557 0.0
H525 H 0.474 0.76451 0.1539 0.0
H526 H 0.42832 0.69335 0.1466 0.0
H527 H 0.39096 0.63683 0.11212 0.0
H528 H 0.41248 0.65081 0.01376 0.0
H529 H 0.46075 0.72114 0.02132 0.0
C530 C 0.48106 0.76018 0.07549 0.0
C531 C 0.48795 0.77709 0.10523 0.0
C532 C 0.45426 0.71947 0.07109 0.0
C533 C 0.46927 0.7523 0.13075 0.0
C534 C 0.44293 0.71164 0.12658 0.0
C535 C 0.4065 0.65482 0.09225 0.0
C536 C 0.39774 0.63815 0.06232 0.0
C537 C 0.43464 0.69511 0.09679 0.0
C538 C 0.41793 0.66269 0.03699 0.0
C539 C 0.44588 0.70292 0.04132 0.0
H540 H 0.78847 0.46861 0.58216 0.0
H541 H 0.73675 0.45997 0.67208 0.0
H542 H 0.76189 0.41641 0.68947 0.0
H543 H 0.7973 0.37934 0.67813 0.0
H544 H 0.84495 0.38639 0.58688 0.0
H545 H 0.82223 0.43186 0.57079 0.0
C546 C 0.78293 0.45762 0.60571 0.0
C547 C 0.76109 0.46781 0.62589 0.0
C548 C 0.7964 0.43197 0.61514 0.0
C549 C 0.75377 0.45276 0.65617 0.0
C550 C 0.76798 0.42777 0.66605 0.0
C551 C 0.80268 0.39103 0.6548 0.0
C552 C 0.82256 0.3795 0.63362 0.0
C553 C 0.7891 0.41693 0.64561 0.0
C554 C 0.82918 0.39443 0.60337 0.0
C555 C 0.81648 0.42062 0.59426 0.0
H556 H 0.35021 0.86173 0.1026 0.0
H557 H 0.36967 0.77411 0.14793 0.0
H558 H 0.3018 0.7411 0.16818 0.0
H559 H 0.23621 0.73609 0.17163 0.0
H560 H 0.21673 0.82328 0.1253 0.0
H561 H 0.28538 0.85775 0.10705 0.0
C562 C 0.33939 0.83514 0.11658 0.0
C563 C 0.36474 0.82017 0.12354 0.0
C564 C 0.30048 0.81651 0.12825 0.0
C565 C 0.35067 0.78622 0.14233 0.0
C566 C 0.31192 0.76737 0.15392 0.0
C567 C 0.24722 0.76301 0.15798 0.0
C568 C 0.22151 0.77718 0.14987 0.0
C569 C 0.28654 0.78226 0.14702 0.0
C570 C 0.23599 0.81179 0.13183 0.0
C571 C 0.27517 0.83141 0.12126 0.0
H572 H 0.62955 0.36989 0.64664 0.0
H573 H 0.55982 0.3276 0.56326 0.0
H574 H 0.51148 0.26674 0.59013 0.0
H575 H 0.48962 0.22593 0.63764 0.0
H576 H 0.55902 0.27077 0.72092 0.0
H577 H 0.60688 0.33109 0.69381 0.0
C578 C 0.60351 0.34774 0.63434 0.0
C579 C 0.59809 0.35352 0.60305 0.0
C580 C 0.57553 0.31378 0.65009 0.0
C581 C 0.56484 0.32375 0.58727 0.0
C582 C 0.53694 0.28929 0.60275 0.0
C583 C 0.51466 0.24939 0.64994 0.0
C584 C 0.52098 0.24422 0.68115 0.0
C585 C 0.54183 0.28421 0.63426 0.0
C586 C 0.55365 0.27449 0.69692 0.0
C587 C 0.58104 0.30879 0.68141 0.0
H588 H 0.49155 0.828 0.41304 0.0
H589 H 0.38464 0.75134 0.36197 0.0
H590 H 0.41781 0.71959 0.33675 0.0
H591 H 0.47674 0.71222 0.33027 0.0
H592 H 0.58261 0.78695 0.38313 0.0
H593 H 0.55041 0.8209 0.40647 0.0
C594 C 0.47535 0.80403 0.3967 0.0
C595 C 0.43563 0.79207 0.3895 0.0
C596 C 0.49455 0.78575 0.38238 0.0
C597 C 0.41534 0.76143 0.36776 0.0
C598 C 0.43427 0.74318 0.35334 0.0
C599 C 0.49291 0.73635 0.34654 0.0
C600 C 0.53203 0.74723 0.35487 0.0
C601 C 0.47388 0.7551 0.36045 0.0
C602 C 0.55245 0.77809 0.37635 0.0
C603 C 0.53402 0.7974 0.3898 0.0
H604 H 0.6738 0.48349 0.89856 0.0
H605 H 0.71182 0.46389 0.8098 0.0
H606 H 0.64386 0.41075 0.7987 0.0
H607 H 0.57435 0.36878 0.81513 0.0
H608 H 0.53729 0.38807 0.90435 0.0
H609 H 0.60477 0.44202 0.91477 0.0
C610 C 0.66724 0.46793 0.87662 0.0
C611 C 0.69771 0.47777 0.85492 0.0
C612 C 0.62853 0.437 0.87076 0.0
C613 C 0.68879 0.45694 0.8268 0.0
C614 C 0.65004 0.42648 0.82053 0.0
C615 C 0.58102 0.38498 0.83677 0.0
C616 C 0.55088 0.37448 0.85895 0.0
C617 C 0.61979 0.41607 0.84249 0.0
C618 C 0.56007 0.39522 0.88711 0.0
C619 C 0.59854 0.42629 0.89294 0.0
H620 H 0.18763 0.60909 0.44233 0.0
H621 H 0.24362 0.60281 0.35805 0.0
H622 H 0.27474 0.6746 0.35164 0.0
H623 H 0.28828 0.73957 0.37091 0.0
H624 H 0.23491 0.74671 0.45635 0.0
H625 H 0.20047 0.67425 0.46131 0.0
C626 C 0.20692 0.62349 0.42274 0.0
C627 C 0.2132 0.60051 0.40075 0.0
C628 C 0.22504 0.66495 0.41929 0.0
C629 C 0.2378 0.61961 0.37516 0.0
C630 C 0.25577 0.66074 0.3715 0.0
C631 C 0.26863 0.72523 0.39037 0.0
C632 C 0.26403 0.7484 0.41318 0.0
C633 C 0.24968 0.68371 0.39345 0.0
C634 C 0.23891 0.72946 0.43848 0.0
C635 C 0.21935 0.68806 0.4414 0.0
H636 H 0.49228 0.1337 0.87408 0.0
H637 H 0.5868 0.20525 0.81059 0.0
H638 H 0.54445 0.2268 0.78506 0.0
H639 H 0.48294 0.23031 0.78457 0.0
H640 H 0.38805 0.15759 0.84779 0.0
H641 H 0.42796 0.13112 0.86947 0.0
C642 C 0.50345 0.15393 0.8546 0.0
C643 C 0.54271 0.16847 0.84452 0.0
C644 C 0.4789 0.16593 0.84004 0.0
C645 C 0.55667 0.19384 0.81877 0.0
C646 C 0.53253 0.20622 0.80427 0.0
C647 C 0.47054 0.20798 0.80254 0.0
C648 C 0.43261 0.19632 0.81467 0.0
C649 C 0.49385 0.19309 0.81515 0.0
C650 C 0.41721 0.16736 0.83809 0.0
C651 C 0.44011 0.15232 0.85066 0.0
H652 H 0.39767 0.57245 0.32076 0.0
H653 H 0.41501 0.55827 0.41763 0.0
H654 H 0.34386 0.5168 0.42441 0.0
H655 H 0.27669 0.48528 0.40359 0.0
H656 H 0.25772 0.50267 0.30808 0.0
H657 H 0.32983 0.54273 0.30019 0.0
C658 C 0.38621 0.5608 0.34349 0.0
C659 C 0.4124 0.56864 0.36854 0.0
C660 C 0.34485 0.53746 0.34752 0.0
C661 C 0.39623 0.55253 0.39766 0.0
C662 C 0.35528 0.52884 0.4017 0.0
C663 C 0.28827 0.49753 0.38094 0.0
C664 C 0.26202 0.49073 0.35635 0.0
C665 C 0.32941 0.52108 0.37682 0.0
C666 C 0.27744 0.50743 0.32732 0.0
C667 C 0.31859 0.53032 0.32285 0.0
H668 H 0.73838 0.25015 0.9228 0.0
H669 H 0.70953 0.24639 0.82614 0.0
H670 H 0.7311 0.31755 0.82763 0.0
H671 H 0.75288 0.37915 0.85773 0.0
H672 H 0.7799 0.38116 0.95467 0.0
H673 H 0.76327 0.3118 0.95185 0.0
C674 C 0.73714 0.26486 0.90189 0.0
C675 C 0.72215 0.24292 0.87443 0.0
C676 C 0.74853 0.30525 0.90315 0.0
C677 C 0.72102 0.26261 0.84756 0.0
C678 C 0.73306 0.30321 0.84848 0.0
C679 C 0.75563 0.36462 0.87815 0.0
C680 C 0.76733 0.38538 0.90648 0.0
C681 C 0.74604 0.32459 0.87635 0.0
C682 C 0.77024 0.36579 0.93276 0.0
C683 C 0.76106 0.32619 0.93111 0.0
H684 H 0.18398 0.35937 0.28505 0.0
H685 H 0.08549 0.36189 0.24209 0.0
H686 H 0.11417 0.36553 0.19087 0.0
H687 H 0.17226 0.37744 0.15942 0.0
H688 H 0.26982 0.37307 0.2025 0.0
H689 H 0.23663 0.36015 0.25272 0.0
C690 C 0.16846 0.35956 0.26429 0.0
C691 C 0.13296 0.36046 0.26696 0.0
C692 C 0.18523 0.36178 0.23519 0.0
C693 C 0.11272 0.36079 0.24025 0.0
C694 C 0.12932 0.36329 0.21112 0.0
C695 C 0.18561 0.37277 0.1798 0.0
C696 C 0.22334 0.37643 0.17761 0.0
C697 C 0.16625 0.36522 0.20844 0.0
C698 C 0.24064 0.37013 0.20386 0.0
C699 C 0.22182 0.36304 0.23251 0.0
H700 H 0.81425 0.17999 0.87054 0.0
H701 H 0.77331 0.0868 0.80242 0.0
H702 H 0.83414 0.12583 0.77233 0.0
H703 H 0.89058 0.19229 0.76026 0.0
H704 H 0.92961 0.2864 0.82748 0.0
H705 H 0.87909 0.24105 0.86374 0.0
C706 C 0.81947 0.1679 0.84961 0.0
C707 C 0.78941 0.13111 0.8383 0.0
C708 C 0.85406 0.19086 0.83226 0.0
C709 C 0.79621 0.11515 0.81142 0.0
C710 C 0.83079 0.13761 0.79414 0.0
C711 C 0.88892 0.20222 0.78335 0.0
C712 C 0.91314 0.24263 0.79105 0.0
C713 C 0.8588 0.17635 0.80354 0.0
C714 C 0.91125 0.25542 0.82105 0.0
C715 C 0.88195 0.22963 0.84161 0.0
H716 H 0.65326 0.91012 0.22463 0.0
H717 H 0.6459 0.86114 0.13379 0.0
H718 H 0.65763 0.80996 0.15566 0.0
H719 H 0.65357 0.77102 0.20128 0.0
H720 H 0.65996 0.81955 0.29223 0.0
H721 H 0.66583 0.8797 0.26946 0.0
C722 C 0.65577 0.88932 0.20939 0.0
C723 C 0.64729 0.88855 0.17772 0.0
C724 C 0.66144 0.85938 0.22224 0.0
C725 C 0.65113 0.86153 0.15838 0.0
C726 C 0.65771 0.8322 0.17088 0.0
C727 C 0.65764 0.79518 0.21622 0.0
C728 C 0.6546 0.78999 0.24848 0.0
C729 C 0.66031 0.82939 0.20298 0.0
C730 C 0.66059 0.82211 0.26732 0.0
C731 C 0.66405 0.85658 0.25432 0.0
H732 H 0.73461 0.6271 0.70084 0.0
H733 H 0.83377 0.63358 0.65139 0.0
H734 H 0.87081 0.64564 0.69981 0.0
H735 H 0.86952 0.64212 0.7566 0.0
H736 H 0.76687 0.62752 0.80593 0.0
H737 H 0.73654 0.63144 0.75744 0.0
C738 C 0.76489 0.63267 0.70069 0.0
C739 C 0.78174 0.62977 0.67281 0.0
C740 C 0.78494 0.63745 0.7287 0.0
C741 C 0.82056 0.63595 0.67274 0.0
C742 C 0.84148 0.64251 0.70038 0.0
C743 C 0.84114 0.64116 0.75666 0.0
C744 C 0.8203 0.6346 0.78455 0.0
C745 C 0.82326 0.64157 0.7286 0.0
C746 C 0.78319 0.63252 0.78455 0.0
C747 C 0.76588 0.63459 0.75689 0.0
H748 H 0.24477 0.90196 0.30471 0.0
H749 H 0.19296 0.82478 0.38343 0.0
H750 H 0.13369 0.78161 0.35318 0.0
H751 H 0.10391 0.75923 0.30193 0.0
H752 H 0.1564 0.83606 0.22318 0.0
H753 H 0.20788 0.88659 0.25621 0.0
C754 C 0.22008 0.87656 0.31571 0.0
C755 C 0.22392 0.86597 0.34608 0.0
C756 C 0.18648 0.85147 0.298 0.0
C757 C 0.19127 0.83294 0.35981 0.0
C758 C 0.15737 0.80822 0.34252 0.0
C759 C 0.12569 0.78754 0.2921 0.0
C760 C 0.12699 0.79341 0.25996 0.0
C761 C 0.15567 0.81608 0.31113 0.0
C762 C 0.15546 0.83043 0.24773 0.0
C763 C 0.1849 0.8593 0.2666 0.0
H764 H 0.3596 0.15233 0.61309 0.0
H765 H 0.34133 0.06515 0.68189 0.0
H766 H 0.31092 0.09229 0.71643 0.0
H767 H 0.31069 0.15329 0.73195 0.0
H768 H 0.33634 0.2443 0.66409 0.0
H769 H 0.34116 0.203 0.62405 0.0
C770 C 0.34662 0.13793 0.6349 0.0
C771 C 0.35317 0.10751 0.64535 0.0
C772 C 0.3317 0.15543 0.6552 0.0
C773 C 0.3365 0.08869 0.67353 0.0
C774 C 0.31991 0.1048 0.69349 0.0
C775 C 0.31604 0.16341 0.70818 0.0
C776 C 0.32469 0.20238 0.70128 0.0
C777 C 0.32062 0.1402 0.68547 0.0
C778 C 0.33021 0.21475 0.67025 0.0
C779 C 0.33335 0.19122 0.64729 0.0
H780 H 0.49645 0.58223 0.2401 0.0
H781 H 0.46199 0.67032 0.22275 0.0
H782 H 0.41793 0.62927 0.18124 0.0
H783 H 0.38861 0.56824 0.1506 0.0
H784 H 0.42582 0.48171 0.16519 0.0
H785 H 0.46921 0.52218 0.20731 0.0
C786 C 0.47916 0.59232 0.22729 0.0
C787 C 0.48224 0.62911 0.23463 0.0
C788 C 0.45444 0.56891 0.20301 0.0
C789 C 0.46014 0.64212 0.21755 0.0
C790 C 0.4349 0.61865 0.19384 0.0
C791 C 0.40646 0.5583 0.16262 0.0
C792 C 0.40399 0.52199 0.15449 0.0
C793 C 0.43182 0.58201 0.18641 0.0
C794 C 0.4272 0.50959 0.17079 0.0
C795 C 0.45198 0.53268 0.19495 0.0
H796 H 0.94508 0.53929 0.80895 0.0
H797 H 0.81846 0.4571 0.80857 0.0
H798 H 0.82794 0.41203 0.77507 0.0
H799 H 0.8721 0.39511 0.74684 0.0
H800 H -0.00133 0.47743 0.74651 0.0
H801 H 0.98913 0.52328 0.77922 0.0
C802 C 0.91952 0.5116 0.80148 0.0
C803 C 0.88118 0.50151 0.81159 0.0
C804 C 0.92513 0.48576 0.78208 0.0
C805 C 0.84839 0.46552 0.8015 0.0
C806 C 0.85374 0.43969 0.78224 0.0
C807 C 0.89765 0.42311 0.75382 0.0
C808 C 0.93607 0.4327 0.74429 0.0
C809 C 0.89199 0.44937 0.77259 0.0
C810 C 0.96876 0.46923 0.7535 0.0
C811 C 0.96335 0.49548 0.77225 0.0
H812 H 0.43397 0.86983 0.19792 0.0
H813 H 0.51843 0.86172 0.25781 0.0
H814 H 0.47769 0.856 0.30277 0.0
H815 H 0.41873 0.85393 0.32474 0.0
H816 H 0.33145 0.85664 0.26472 0.0
H817 H 0.37272 0.86356 0.21971 0.0
C818 C 0.44349 0.86686 0.22082 0.0
C819 C 0.47927 0.86651 0.22468 0.0
C820 C 0.41947 0.86255 0.24633 0.0
C821 C 0.49102 0.86213 0.25437 0.0
C822 C 0.4678 0.8589 0.28001 0.0
C823 C 0.40867 0.85601 0.30182 0.0
C824 C 0.37229 0.85512 0.29798 0.0
C825 C 0.43206 0.85916 0.27622 0.0
C826 C 0.35939 0.85729 0.26816 0.0
C827 C 0.383 0.86137 0.24251 0.0
H828 H 0.47345 0.37725 0.71817 0.0
H829 H 0.55822 0.33985 0.73978 0.0
H830 H 0.60907 0.39492 0.70974 0.0
H831 H 0.62866 0.45124 0.67543 0.0
H832 H 0.54407 0.48773 0.65072 0.0
H833 H 0.4943 0.43615 0.68442 0.0
C834 C 0.50309 0.38129 0.71623 0.0
C835 C 0.51188 0.3541 0.73062 0.0
C836 C 0.53221 0.41281 0.69844 0.0
C837 C 0.55044 0.35978 0.72824 0.0
C838 C 0.57962 0.39139 0.71125 0.0
C839 C 0.59931 0.44792 0.67724 0.0
C840 C 0.58996 0.47291 0.66012 0.0
C841 C 0.57065 0.41763 0.69585 0.0
C842 C 0.55209 0.46884 0.66355 0.0
C843 C 0.52351 0.43916 0.68267 0.0
H844 H 0.08223 0.5822 0.22173 0.0
H845 H 0.1765 0.67094 0.27846 0.0
H846 H 0.17425 0.61884 0.31124 0.0
H847 H 0.14588 0.54837 0.32375 0.0
H848 H 0.05112 0.45914 0.2679 0.0
H849 H 0.05297 0.51124 0.23498 0.0
C850 C 0.10227 0.59016 0.24126 0.0
C851 C 0.12954 0.63049 0.24753 0.0
C852 C 0.1007 0.56 0.26021 0.0
C853 C 0.15517 0.6402 0.27304 0.0
C854 C 0.15396 0.61041 0.29184 0.0
C855 C 0.12578 0.5402 0.30431 0.0
C856 C 0.09865 0.49985 0.2982 0.0
C857 C 0.12693 0.57025 0.28559 0.0
C858 C 0.0723 0.48997 0.27317 0.0
C859 C 0.07341 0.51974 0.25428 0.0
H860 H 0.54213 0.03238 0.7962 0.0
H861 H 0.65717 0.11252 0.75743 0.0
H862 H 0.62546 0.11815 0.71014 0.0
H863 H 0.56628 0.11179 0.68538 0.0
H864 H 0.45118 0.03788 0.7271 0.0
H865 H 0.48167 0.01853 0.76774 0.0
C866 C 0.56013 0.05037 0.77702 0.0
C867 C 0.60165 0.07196 0.77987 0.0
C868 C 0.54182 0.05563 0.75098 0.0
C869 C 0.62506 0.09576 0.75542 0.0
C870 C 0.60705 0.09936 0.72869 0.0
C871 C 0.54768 0.09069 0.70291 0.0
C872 C 0.50665 0.07697 0.70361 0.0
C873 C 0.56555 0.08111 0.72693 0.0
C874 C 0.48297 0.04937 0.72634 0.0
C875 C 0.50038 0.03842 0.74967 0.0
loop_
_geom_bond_atom_site_label_1
_geom_bond_atom_site_label_2
_geom_bond_distance
_geom_bond_site_symmetry_2
_ccdc_geom_bond_type
C0 C1 1.351 . S
C0 N3 1.368 . S
C0 H5 0.931 . S
C1 C0 1.351 . S
C1 N2 1.373 . S
C1 H29 0.930 . S
N2 C1 1.373 . S
N2 C4 1.340 . S
N3 C0 1.368 . S
N3 C4 1.321 . S
N3 Co6 2.135 . S
C4 N2 1.340 . S
C4 N3 1.321 . S
C4 H28 0.930 . S
H5 C0 0.931 . S
Co6 N3 2.135 . S
Co6 N9 2.121 . S
Co6 O14 2.055 . S
Co6 O17 2.039 . S
Co6 N20 2.140 . S
C7 O8 1.227 . S
C7 O17 1.265 . S
O8 C7 1.227 . S
N9 Co6 2.121 . S
N9 C11 1.375 . S
N9 C12 1.313 . S
C10 C11 1.338 . S
C10 N13 1.377 . S
C10 H30 0.930 . S
C11 N9 1.375 . S
C11 C10 1.338 . S
C11 H15 0.931 . S
C12 N9 1.313 . S
C12 N13 1.344 . S
C12 H16 0.930 . S
N13 C10 1.377 . S
N13 C12 1.344 . S
O14 Co6 2.055 . S
O14 C18 1.253 . S
H15 C11 0.931 . S
H16 C12 0.930 . S
O17 Co6 2.039 . S
O17 C7 1.265 . S
C18 O14 1.253 . S
C18 O19 1.227 . S
O19 C18 1.227 . S
N20 Co6 2.140 . S
N20 C23 1.346 . S
N20 C24 1.345 . S
C21 C22 1.387 . S
C21 C25 1.391 . S
C22 C21 1.387 . S
C22 C23 1.369 . S
C22 H31 0.929 . S
C23 N20 1.346 . S
C23 C22 1.369 . S
C23 H26 0.928 . S
C24 N20 1.345 . S
C24 C25 1.371 . S
C24 H27 0.931 . S
C25 C21 1.391 . S
C25 C24 1.371 . S
C25 H32 0.930 . S
H26 C23 0.928 . S
H27 C24 0.931 . S
H28 C4 0.930 . S
H29 C1 0.930 . S
H30 C10 0.930 . S
H31 C22 0.929 . S
H32 C25 0.930 . S
C33 C34 1.351 . S
C33 N36 1.368 . S
C33 H38 0.931 . S
C34 C33 1.351 . S
C34 N35 1.373 . S
C34 H62 0.930 . S
N35 C34 1.373 . S
N35 C37 1.340 . S
N36 C33 1.368 . S
N36 C37 1.321 . S
N36 Co39 2.135 . S
C37 N35 1.340 . S
C37 N36 1.321 . S
C37 H61 0.930 . S
H38 C33 0.931 . S
Co39 N36 2.135 . S
Co39 N42 2.121 . S
Co39 O47 2.055 . S
Co39 O50 2.039 . S
Co39 N53 2.140 . S
C40 O41 1.227 . S
C40 O50 1.265 . S
O41 C40 1.227 . S
N42 Co39 2.121 . S
N42 C44 1.375 . S
N42 C45 1.313 . S
C43 C44 1.338 . S
C43 N46 1.377 . S
C43 H63 0.930 . S
C44 N42 1.375 . S
C44 C43 1.338 . S
C44 H48 0.931 . S
C45 N42 1.313 . S
C45 N46 1.344 . S
C45 H49 0.930 . S
N46 C43 1.377 . S
N46 C45 1.344 . S
O47 Co39 2.055 . S
O47 C51 1.253 . S
H48 C44 0.931 . S
H49 C45 0.930 . S
O50 Co39 2.039 . S
O50 C40 1.265 . S
C51 O47 1.253 . S
C51 O52 1.227 . S
O52 C51 1.227 . S
N53 Co39 2.140 . S
N53 C56 1.346 . S
N53 C57 1.345 . S
C54 C55 1.387 . S
C54 C58 1.391 . S
C55 C54 1.387 . S
C55 C56 1.369 . S
C55 H64 0.929 . S
C56 N53 1.346 . S
C56 C55 1.369 . S
C56 H59 0.928 . S
C57 N53 1.345 . S
C57 C58 1.371 . S
C57 H60 0.931 . S
C58 C54 1.391 . S
C58 C57 1.371 . S
C58 H65 0.930 . S
H59 C56 0.928 . S
H60 C57 0.931 . S
H61 C37 0.930 . S
H62 C34 0.930 . S
H63 C43 0.930 . S
H64 C55 0.929 . S
H65 C58 0.930 . S
C66 C67 1.351 . S
C66 N69 1.368 . S
C66 H71 0.931 . S
C67 C66 1.351 . S
C67 N68 1.373 . S
C67 H95 0.930 . S
N68 C67 1.373 . S
N68 C70 1.340 . S
N69 C66 1.368 . S
N69 C70 1.321 . S
N69 Co72 2.135 . S
C70 N68 1.340 . S
C70 N69 1.321 . S
C70 H94 0.930 . S
H71 C66 0.931 . S
Co72 N69 2.135 . S
Co72 N75 2.121 . S
Co72 O80 2.055 . S
Co72 O83 2.039 . S
Co72 N86 2.140 . S
C73 O74 1.227 . S
C73 O83 1.265 . S
O74 C73 1.227 . S
N75 Co72 2.121 . S
N75 C77 1.375 . S
N75 C78 1.313 . S
C76 C77 1.338 . S
C76 N79 1.377 . S
C76 H96 0.930 . S
C77 N75 1.375 . S
C77 C76 1.338 . S
C77 H81 0.931 . S
C78 N75 1.313 . S
C78 N79 1.344 . S
C78 H82 0.930 . S
N79 C76 1.377 . S
N79 C78 1.344 . S
O80 Co72 2.055 . S
O80 C84 1.253 . S
H81 C77 0.931 . S
H82 C78 0.930 . S
O83 Co72 2.039 . S
O83 C73 1.265 . S
C84 O80 1.253 . S
C84 O85 1.227 . S
O85 C84 1.227 . S
N86 Co72 2.140 . S
N86 C89 1.346 . S
N86 C90 1.345 . S
C87 C88 1.387 . S
C87 C91 1.391 . S
C88 C87 1.387 . S
C88 C89 1.369 . S
C88 H97 0.929 . S
C89 N86 1.346 . S
C89 C88 1.369 . S
C89 H92 0.928 . S
C90 N86 1.345 . S
C90 C91 1.371 . S
C90 H93 0.931 . S
C91 C87 1.391 . S
C91 C90 1.371 . S
C91 H98 0.930 . S
H92 C89 0.928 . S
H93 C90 0.931 . S
H94 C70 0.930 . S
H95 C67 0.930 . S
H96 C76 0.930 . S
H97 C88 0.929 . S
H98 C91 0.930 . S
C99 C100 1.351 . S
C99 N102 1.368 . S
C99 H104 0.931 . S
C100 C99 1.351 . S
C100 N101 1.373 . S
C100 H128 0.930 . S
N101 C100 1.373 . S
N101 C103 1.340 . S
N102 C99 1.368 . S
N102 C103 1.321 . S
N102 Co105 2.135 . S
C103 N101 1.340 . S
C103 N102 1.321 . S
C103 H127 0.930 . S
H104 C99 0.931 . S
Co105 N102 2.135 . S
Co105 N108 2.121 . S
Co105 O113 2.055 . S
Co105 O116 2.039 . S
Co105 N119 2.140 . S
C106 O107 1.227 . S
C106 O116 1.265 . S
O107 C106 1.227 . S
N108 Co105 2.121 . S
N108 C110 1.375 . S
N108 C111 1.313 . S
C109 C110 1.338 . S
C109 N112 1.377 . S
C109 H129 0.930 . S
C110 N108 1.375 . S
C110 C109 1.338 . S
C110 H114 0.931 . S
C111 N108 1.313 . S
C111 N112 1.344 . S
C111 H115 0.930 . S
N112 C109 1.377 . S
N112 C111 1.344 . S
O113 Co105 2.055 . S
O113 C117 1.253 . S
H114 C110 0.931 . S
H115 C111 0.930 . S
O116 Co105 2.039 . S
O116 C106 1.265 . S
C117 O113 1.253 . S
C117 O118 1.227 . S
O118 C117 1.227 . S
N119 Co105 2.140 . S
N119 C122 1.346 . S
N119 C123 1.345 . S
C120 C121 1.387 . S
C120 C124 1.391 . S
C121 C120 1.387 . S
C121 C122 1.369 . S
C121 H130 0.929 . S
C122 N119 1.346 . S
C122 C121 1.369 . S
C122 H125 0.928 . S
C123 N119 1.345 . S
C123 C124 1.371 . S
C123 H126 0.931 . S
C124 C120 1.391 . S
C124 C123 1.371 . S
C124 H131 0.930 . S
H125 C122 0.928 . S
H126 C123 0.931 . S
H127 C103 0.930 . S
H128 C100 0.930 . S
H129 C109 0.930 . S
H130 C121 0.929 . S
H131 C124 0.930 . S
C132 C133 1.351 . S
C132 N135 1.368 . S
C132 H137 0.931 . S
C133 C132 1.351 . S
C133 N134 1.373 . S
C133 H161 0.930 . S
N134 C133 1.373 . S
N134 C136 1.340 . S
N135 C132 1.368 . S
N135 C136 1.321 . S
N135 Co138 2.135 . S
C136 N134 1.340 . S
C136 N135 1.321 . S
C136 H160 0.930 . S
H137 C132 0.931 . S
Co138 N135 2.135 . S
Co138 N141 2.121 . S
Co138 O146 2.055 . S
Co138 O149 2.039 . S
Co138 N152 2.140 . S
C139 O140 1.227 . S
C139 O149 1.265 . S
O140 C139 1.227 . S
N141 Co138 2.121 . S
N141 C143 1.375 . S
N141 C144 1.313 . S
C142 C143 1.338 . S
C142 N145 1.377 . S
C142 H162 0.930 . S
C143 N141 1.375 . S
C143 C142 1.338 . S
C143 H147 0.931 . S
C144 N141 1.313 . S
C144 N145 1.344 . S
C144 H148 0.930 . S
N145 C142 1.377 . S
N145 C144 1.344 . S
O146 Co138 2.055 . S
O146 C150 1.253 . S
H147 C143 0.931 . S
H148 C144 0.930 . S
O149 Co138 2.039 . S
O149 C139 1.265 . S
C150 O146 1.253 . S
C150 O151 1.227 . S
O151 C150 1.227 . S
N152 Co138 2.140 . S
N152 C155 1.346 . S
N152 C156 1.345 . S
C153 C154 1.387 . S
C153 C157 1.391 . S
C154 C153 1.387 . S
C154 C155 1.369 . S
C154 H163 0.929 . S
C155 N152 1.346 . S
C155 C154 1.369 . S
C155 H158 0.928 . S
C156 N152 1.345 . S
C156 C157 1.371 . S
C156 H159 0.931 . S
C157 C153 1.391 . S
C157 C156 1.371 . S
C157 H164 0.930 . S
H158 C155 0.928 . S
H159 C156 0.931 . S
H160 C136 0.930 . S
H161 C133 0.930 . S
H162 C142 0.930 . S
H163 C154 0.929 . S
H164 C157 0.930 . S
C165 C166 1.351 . S
C165 N168 1.368 . S
C165 H170 0.931 . S
C166 C165 1.351 . S
C166 N167 1.373 . S
C166 H194 0.930 . S
N167 C166 1.373 . S
N167 C169 1.340 . S
N168 C165 1.368 . S
N168 C169 1.321 . S
N168 Co171 2.135 . S
C169 N167 1.340 . S
C169 N168 1.321 . S
C169 H193 0.930 . S
H170 C165 0.931 . S
Co171 N168 2.135 . S
Co171 N174 2.121 . S
Co171 O179 2.055 . S
Co171 O182 2.039 . S
Co171 N185 2.140 . S
C172 O173 1.227 . S
C172 O182 1.265 . S
O173 C172 1.227 . S
N174 Co171 2.121 . S
N174 C176 1.375 . S
N174 C177 1.313 . S
C175 C176 1.338 . S
C175 N178 1.377 . S
C175 H195 0.930 . S
C176 N174 1.375 . S
C176 C175 1.338 . S
C176 H180 0.931 . S
C177 N174 1.313 . S
C177 N178 1.344 . S
C177 H181 0.930 . S
N178 C175 1.377 . S
N178 C177 1.344 . S
O179 Co171 2.055 . S
O179 C183 1.253 . S
H180 C176 0.931 . S
H181 C177 0.930 . S
O182 Co171 2.039 . S
O182 C172 1.265 . S
C183 O179 1.253 . S
C183 O184 1.227 . S
O184 C183 1.227 . S
N185 Co171 2.140 . S
N185 C188 1.346 . S
N185 C189 1.345 . S
C186 C187 1.387 . S
C186 C190 1.391 . S
C187 C186 1.387 . S
C187 C188 1.369 . S
C187 H196 0.929 . S
C188 N185 1.346 . S
C188 C187 1.369 . S
C188 H191 0.928 . S
C189 N185 1.345 . S
C189 C190 1.371 . S
C189 H192 0.931 . S
C190 C186 1.391 . S
C190 C189 1.371 . S
C190 H197 0.930 . S
H191 C188 0.928 . S
H192 C189 0.931 . S
H193 C169 0.930 . S
H194 C166 0.930 . S
H195 C175 0.930 . S
H196 C187 0.929 . S
H197 C190 0.930 . S
C198 C199 1.351 . S
C198 N201 1.368 . S
C198 H203 0.931 . S
C199 C198 1.351 . S
C199 N200 1.373 . S
C199 H227 0.930 . S
N200 C199 1.373 . S
N200 C202 1.340 . S
N201 C198 1.368 . S
N201 C202 1.321 . S
N201 Co204 2.135 . S
C202 N200 1.340 . S
C202 N201 1.321 . S
C202 H226 0.930 . S
H203 C198 0.931 . S
Co204 N201 2.135 . S
Co204 N207 2.121 . S
Co204 O212 2.055 . S
Co204 O215 2.039 . S
Co204 N218 2.140 . S
C205 O206 1.227 . S
C205 O215 1.265 . S
O206 C205 1.227 . S
N207 Co204 2.121 . S
N207 C209 1.375 . S
N207 C210 1.313 . S
C208 C209 1.338 . S
C208 N211 1.377 . S
C208 H228 0.930 . S
C209 N207 1.375 . S
C209 C208 1.338 . S
C209 H213 0.931 . S
C210 N207 1.313 . S
C210 N211 1.344 . S
C210 H214 0.930 . S
N211 C208 1.377 . S
N211 C210 1.344 . S
O212 Co204 2.055 . S
O212 C216 1.253 . S
H213 C209 0.931 . S
H214 C210 0.930 . S
O215 Co204 2.039 . S
O215 C205 1.265 . S
C216 O212 1.253 . S
C216 O217 1.227 . S
O217 C216 1.227 . S
N218 Co204 2.140 . S
N218 C221 1.346 . S
N218 C222 1.345 . S
C219 C220 1.387 . S
C219 C223 1.391 . S
C220 C219 1.387 . S
C220 C221 1.369 . S
C220 H229 0.929 . S
C221 N218 1.346 . S
C221 C220 1.369 . S
C221 H224 0.928 . S
C222 N218 1.345 . S
C222 C223 1.371 . S
C222 H225 0.931 . S
C223 C219 1.391 . S
C223 C222 1.371 . S
C223 H230 0.930 . S
H224 C221 0.928 . S
H225 C222 0.931 . S
H226 C202 0.930 . S
H227 C199 0.930 . S
H228 C208 0.930 . S
H229 C220 0.929 . S
H230 C223 0.930 . S
C231 C232 1.351 . S
C231 N234 1.368 . S
C231 H236 0.931 . S
C232 C231 1.351 . S
C232 N233 1.373 . S
C232 H260 0.930 . S
N233 C232 1.373 . S
N233 C235 1.340 . S
N234 C231 1.368 . S
N234 C235 1.321 . S
N234 Co237 2.135 . S
C235 N233 1.340 . S
C235 N234 1.321 . S
C235 H259 0.930 . S
H236 C231 0.931 . S
Co237 N234 2.135 . S
Co237 N240 2.121 . S
Co237 O245 2.055 . S
Co237 O248 2.039 . S
Co237 N251 2.140 . S
C238 O239 1.227 . S
C238 O248 1.265 . S
O239 C238 1.227 . S
N240 Co237 2.121 . S
N240 C242 1.375 . S
N240 C243 1.313 . S
C241 C242 1.338 . S
C241 N244 1.377 . S
C241 H261 0.930 . S
C242 N240 1.375 . S
C242 C241 1.338 . S
C242 H246 0.931 . S
C243 N240 1.313 . S
C243 N244 1.344 . S
C243 H247 0.930 . S
N244 C241 1.377 . S
N244 C243 1.344 . S
O245 Co237 2.055 . S
O245 C249 1.253 . S
H246 C242 0.931 . S
H247 C243 0.930 . S
O248 Co237 2.039 . S
O248 C238 1.265 . S
C249 O245 1.253 . S
C249 O250 1.227 . S
O250 C249 1.227 . S
N251 Co237 2.140 . S
N251 C254 1.346 . S
N251 C255 1.345 . S
C252 C253 1.387 . S
C252 C256 1.391 . S
C253 C252 1.387 . S
C253 C254 1.369 . S
C253 H262 0.929 . S
C254 N251 1.346 . S
C254 C253 1.369 . S
C254 H257 0.928 . S
C255 N251 1.345 . S
C255 C256 1.371 . S
C255 H258 0.931 . S
C256 C252 1.391 . S
C256 C255 1.371 . S
C256 H263 0.930 . S
H257 C254 0.928 . S
H258 C255 0.931 . S
H259 C235 0.930 . S
H260 C232 0.930 . S
H261 C241 0.930 . S
H262 C253 0.929 . S
H263 C256 0.930 . S
C264 C265 1.351 . S
C264 N267 1.368 . S
C264 H269 0.931 . S
C265 C264 1.351 . S
C265 N266 1.373 . S
C265 H293 0.930 . S
N266 C265 1.373 . S
N266 C268 1.340 . S
N267 C264 1.368 . S
N267 C268 1.321 . S
N267 Co270 2.135 . S
C268 N266 1.340 . S
C268 N267 1.321 . S
C268 H292 0.930 . S
H269 C264 0.931 . S
Co270 N267 2.135 . S
Co270 N273 2.121 . S
Co270 O278 2.055 . S
Co270 O281 2.039 . S
Co270 N284 2.140 . S
C271 O272 1.227 . S
C271 O281 1.265 . S
O272 C271 1.227 . S
N273 Co270 2.121 . S
N273 C275 1.375 . S
N273 C276 1.313 . S
C274 C275 1.338 . S
C274 N277 1.377 . S
C274 H294 0.930 . S
C275 N273 1.375 . S
C275 C274 1.338 . S
C275 H279 0.931 . S
C276 N273 1.313 . S
C276 N277 1.344 . S
C276 H280 0.930 . S
N277 C274 1.377 . S
N277 C276 1.344 . S
O278 Co270 2.055 . S
O278 C282 1.253 . S
H279 C275 0.931 . S
H280 C276 0.930 . S
O281 Co270 2.039 . S
O281 C271 1.265 . S
C282 O278 1.253 . S
C282 O283 1.227 . S
O283 C282 1.227 . S
N284 Co270 2.140 . S
N284 C287 1.346 . S
N284 C288 1.345 . S
C285 C286 1.387 . S
C285 C289 1.391 . S
C286 C285 1.387 . S
C286 C287 1.369 . S
C286 H295 0.929 . S
C287 N284 1.346 . S
C287 C286 1.369 . S
C287 H290 0.928 . S
C288 N284 1.345 . S
C288 C289 1.371 . S
C288 H291 0.931 . S
C289 C285 1.391 . S
C289 C288 1.371 . S
C289 H296 0.930 . S
H290 C287 0.928 . S
H291 C288 0.931 . S
H292 C268 0.930 . S
H293 C265 0.930 . S
H294 C274 0.930 . S
H295 C286 0.929 . S
H296 C289 0.930 . S
C297 C298 1.351 . S
C297 N300 1.368 . S
C297 H302 0.931 . S
C298 C297 1.351 . S
C298 N299 1.373 . S
C298 H326 0.930 . S
N299 C298 1.373 . S
N299 C301 1.340 . S
N300 C297 1.368 . S
N300 C301 1.321 . S
N300 Co303 2.135 . S
C301 N299 1.340 . S
C301 N300 1.321 . S
C301 H325 0.930 . S
H302 C297 0.931 . S
Co303 N300 2.135 . S
Co303 N306 2.121 . S
Co303 O311 2.055 . S
Co303 O314 2.039 . S
Co303 N317 2.140 . S
C304 O305 1.227 . S
C304 O314 1.265 . S
O305 C304 1.227 . S
N306 Co303 2.121 . S
N306 C308 1.375 . S
N306 C309 1.313 . S
C307 C308 1.338 . S
C307 N310 1.377 . S
C307 H327 0.930 . S
C308 N306 1.375 . S
C308 C307 1.338 . S
C308 H312 0.931 . S
C309 N306 1.313 . S
C309 N310 1.344 . S
C309 H313 0.930 . S
N310 C307 1.377 . S
N310 C309 1.344 . S
O311 Co303 2.055 . S
O311 C315 1.253 . S
H312 C308 0.931 . S
H313 C309 0.930 . S
O314 Co303 2.039 . S
O314 C304 1.265 . S
C315 O311 1.253 . S
C315 O316 1.227 . S
O316 C315 1.227 . S
N317 Co303 2.140 . S
N317 C320 1.346 . S
N317 C321 1.345 . S
C318 C319 1.387 . S
C318 C322 1.391 . S
C319 C318 1.387 . S
C319 C320 1.369 . S
C319 H328 0.929 . S
C320 N317 1.346 . S
C320 C319 1.369 . S
C320 H323 0.928 . S
C321 N317 1.345 . S
C321 C322 1.371 . S
C321 H324 0.931 . S
C322 C318 1.391 . S
C322 C321 1.371 . S
C322 H329 0.930 . S
H323 C320 0.928 . S
H324 C321 0.931 . S
H325 C301 0.930 . S
H326 C298 0.930 . S
H327 C307 0.930 . S
H328 C319 0.929 . S
H329 C322 0.930 . S
C330 C331 1.351 . S
C330 N333 1.368 . S
C330 H335 0.931 . S
C331 C330 1.351 . S
C331 N332 1.373 . S
C331 H359 0.930 . S
N332 C331 1.373 . S
N332 C334 1.340 . S
N333 C330 1.368 . S
N333 C334 1.321 . S
N333 Co336 2.135 . S
C334 N332 1.340 . S
C334 N333 1.321 . S
C334 H358 0.930 . S
H335 C330 0.931 . S
Co336 N333 2.135 . S
Co336 N339 2.121 . S
Co336 O344 2.055 . S
Co336 O347 2.039 . S
Co336 N350 2.140 . S
C337 O338 1.227 . S
C337 O347 1.265 . S
O338 C337 1.227 . S
N339 Co336 2.121 . S
N339 C341 1.375 . S
N339 C342 1.313 . S
C340 C341 1.338 . S
C340 N343 1.377 . S
C340 H360 0.930 . S
C341 N339 1.375 . S
C341 C340 1.338 . S
C341 H345 0.931 . S
C342 N339 1.313 . S
C342 N343 1.344 . S
C342 H346 0.930 . S
N343 C340 1.377 . S
N343 C342 1.344 . S
O344 Co336 2.055 . S
O344 C348 1.253 . S
H345 C341 0.931 . S
H346 C342 0.930 . S
O347 Co336 2.039 . S
O347 C337 1.265 . S
C348 O344 1.253 . S
C348 O349 1.227 . S
O349 C348 1.227 . S
N350 Co336 2.140 . S
N350 C353 1.346 . S
N350 C354 1.345 . S
C351 C352 1.387 . S
C351 C355 1.391 . S
C352 C351 1.387 . S
C352 C353 1.369 . S
C352 H361 0.929 . S
C353 N350 1.346 . S
C353 C352 1.369 . S
C353 H356 0.928 . S
C354 N350 1.345 . S
C354 C355 1.371 . S
C354 H357 0.931 . S
C355 C351 1.391 . S
C355 C354 1.371 . S
C355 H362 0.930 . S
H356 C353 0.928 . S
H357 C354 0.931 . S
H358 C334 0.930 . S
H359 C331 0.930 . S
H360 C340 0.930 . S
H361 C352 0.929 . S
H362 C355 0.930 . S
C363 C364 1.351 . S
C363 N366 1.368 . S
C363 H368 0.931 . S
C364 C363 1.351 . S
C364 N365 1.373 . S
C364 H392 0.930 . S
N365 C364 1.373 . S
N365 C367 1.340 . S
N366 C363 1.368 . S
N366 C367 1.321 . S
N366 Co369 2.135 . S
C367 N365 1.340 . S
C367 N366 1.321 . S
C367 H391 0.930 . S
H368 C363 0.931 . S
Co369 N366 2.135 . S
Co369 N372 2.121 . S
Co369 O377 2.055 . S
Co369 O380 2.039 . S
Co369 N383 2.140 . S
C370 O371 1.227 . S
C370 O380 1.265 . S
O371 C370 1.227 . S
N372 Co369 2.121 . S
N372 C374 1.375 . S
N372 C375 1.313 . S
C373 C374 1.338 . S
C373 N376 1.377 . S
C373 H393 0.930 . S
C374 N372 1.375 . S
C374 C373 1.338 . S
C374 H378 0.931 . S
C375 N372 1.313 . S
C375 N376 1.344 . S
C375 H379 0.930 . S
N376 C373 1.377 . S
N376 C375 1.344 . S
O377 Co369 2.055 . S
O377 C381 1.253 . S
H378 C374 0.931 . S
H379 C375 0.930 . S
O380 Co369 2.039 . S
O380 C370 1.265 . S
C381 O377 1.253 . S
C381 O382 1.227 . S
O382 C381 1.227 . S
N383 Co369 2.140 . S
N383 C386 1.346 . S
N383 C387 1.345 . S
C384 C385 1.387 . S
C384 C388 1.391 . S
C385 C384 1.387 . S
C385 C386 1.369 . S
C385 H394 0.929 . S
C386 N383 1.346 . S
C386 C385 1.369 . S
C386 H389 0.928 . S
C387 N383 1.345 . S
C387 C388 1.371 . S
C387 H390 0.931 . S
C388 C384 1.391 . S
C388 C387 1.371 . S
C388 H395 0.930 . S
H389 C386 0.928 . S
H390 C387 0.931 . S
H391 C367 0.930 . S
H392 C364 0.930 . S
H393 C373 0.930 . S
H394 C385 0.929 . S
H395 C388 0.930 . S
H396 C402 0.930 . S
H397 C405 0.930 . S
H398 C406 0.930 1_554 S
H399 C407 0.930 . S
H400 C410 0.930 . S
H401 C411 0.930 1_556 S
C402 H396 0.930 . S
C402 C403 1.355 . S
C402 C404 1.415 . S
C403 C402 1.355 . S
C403 C405 1.419 . S
C404 C402 1.415 . S
C404 C409 1.425 1_556 S
C404 C411 1.409 1_556 S
C405 H397 0.930 . S
C405 C403 1.419 . S
C405 C406 1.362 . S
C406 H398 0.930 1_556 S
C406 C405 1.362 . S
C406 C409 1.409 1_556 S
C407 H399 0.930 . S
C407 C408 1.355 . S
C407 C409 1.415 . S
C408 C407 1.355 . S
C408 C410 1.419 . S
C409 C404 1.425 1_554 S
C409 C406 1.409 1_554 S
C409 C407 1.415 . S
C410 H400 0.930 . S
C410 C408 1.419 . S
C410 C411 1.362 . S
C411 H401 0.930 1_554 S
C411 C404 1.409 1_554 S
C411 C410 1.362 . S
H412 C418 0.930 . S
H413 C421 0.930 . S
H414 C422 0.930 . S
H415 C423 0.930 . S
H416 C426 0.930 . S
H417 C427 0.930 . S
C418 H412 0.930 . S
C418 C419 1.355 1_455 S
C418 C420 1.415 . S
C419 C418 1.355 1_655 S
C419 C421 1.419 . S
C420 C418 1.415 . S
C420 C425 1.425 1_455 S
C420 C427 1.409 . S
C421 H413 0.930 . S
C421 C419 1.419 . S
C421 C422 1.362 . S
C422 H414 0.930 . S
C422 C421 1.362 . S
C422 C425 1.409 . S
C423 H415 0.930 . S
C423 C424 1.355 1_655 S
C423 C425 1.415 . S
C424 C423 1.355 1_455 S
C424 C426 1.419 . S
C425 C420 1.425 1_655 S
C425 C422 1.409 . S
C425 C423 1.415 . S
C426 H416 0.930 . S
C426 C424 1.419 . S
C426 C427 1.362 . S
C427 H417 0.930 . S
C427 C420 1.409 . S
C427 C426 1.362 . S
H428 C434 0.930 . S
H429 C437 0.930 . S
H430 C438 0.930 . S
H431 C439 0.930 . S
H432 C442 0.930 . S
H433 C443 0.930 . S
C434 H428 0.930 . S
C434 C435 1.355 . S
C434 C436 1.415 . S
C435 C434 1.355 . S
C435 C437 1.419 . S
C436 C434 1.415 . S
C436 C441 1.425 1_546 S
C436 C443 1.409 1_556 S
C437 H429 0.930 . S
C437 C435 1.419 . S
C437 C438 1.362 1_545 S
C438 H430 0.930 . S
C438 C437 1.362 1_565 S
C438 C441 1.409 1_556 S
C439 H431 0.930 . S
C439 C440 1.355 . S
C439 C441 1.415 . S
C440 C439 1.355 . S
C440 C442 1.419 . S
C441 C436 1.425 1_564 S
C441 C438 1.409 1_554 S
C441 C439 1.415 . S
C442 H432 0.930 . S
C442 C440 1.419 . S
C442 C443 1.362 1_565 S
C443 H433 0.930 . S
C443 C436 1.409 1_554 S
C443 C442 1.362 1_545 S
H444 C450 0.930 . S
H445 C453 0.930 . S
H446 C454 0.930 . S
H447 C455 0.930 . S
H448 C458 0.930 . S
H449 C459 0.930 . S
C450 H444 0.930 . S
C450 C451 1.355 . S
C450 C452 1.415 . S
C451 C450 1.355 . S
C451 C453 1.419 . S
C452 C450 1.415 . S
C452 C457 1.425 . S
C452 C459 1.409 . S
C453 H445 0.930 . S
C453 C451 1.419 . S
C453 C454 1.362 . S
C454 H446 0.930 . S
C454 C453 1.362 . S
C454 C457 1.409 . S
C455 H447 0.930 . S
C455 C456 1.355 . S
C455 C457 1.415 . S
C456 C455 1.355 . S
C456 C458 1.419 . S
C457 C452 1.425 . S
C457 C454 1.409 . S
C457 C455 1.415 . S
C458 H448 0.930 . S
C458 C456 1.419 . S
C458 C459 1.362 . S
C459 H449 0.930 . S
C459 C452 1.409 . S
C459 C458 1.362 . S
H460 C466 0.930 . S
H461 C469 0.930 . S
H462 C470 0.930 1_556 S
H463 C471 0.930 . S
H464 C474 0.930 . S
H465 C475 0.930 1_554 S
C466 H460 0.930 . S
C466 C467 1.355 1_655 S
C466 C468 1.415 . S
C467 C466 1.355 1_455 S
C467 C469 1.419 . S
C468 C466 1.415 . S
C468 C473 1.425 1_654 S
C468 C475 1.409 1_554 S
C469 H461 0.930 . S
C469 C467 1.419 . S
C469 C470 1.362 . S
C470 H462 0.930 1_554 S
C470 C469 1.362 . S
C470 C473 1.409 1_554 S
C471 H463 0.930 . S
C471 C472 1.355 1_455 S
C471 C473 1.415 . S
C472 C471 1.355 1_655 S
C472 C474 1.419 . S
C473 C468 1.425 1_456 S
C473 C470 1.409 1_556 S
C473 C471 1.415 . S
C474 H464 0.930 . S
C474 C472 1.419 . S
C474 C475 1.362 . S
C475 H465 0.930 1_556 S
C475 C468 1.409 1_556 S
C475 C474 1.362 . S
H476 C482 0.930 . S
H477 C485 0.930 . S
H478 C486 0.930 . S
H479 C487 0.930 . S
H480 C490 0.930 . S
H481 C491 0.930 . S
C482 H476 0.930 . S
C482 C483 1.355 1_545 S
C482 C484 1.415 . S
C483 C482 1.355 1_565 S
C483 C485 1.419 . S
C484 C482 1.415 . S
C484 C489 1.425 1_545 S
C484 C491 1.409 . S
C485 H477 0.930 . S
C485 C483 1.419 . S
C485 C486 1.362 . S
C486 H478 0.930 . S
C486 C485 1.362 . S
C486 C489 1.409 . S
C487 H479 0.930 . S
C487 C488 1.355 1_565 S
C487 C489 1.415 . S
C488 C487 1.355 1_545 S
C488 C490 1.419 . S
C489 C484 1.425 1_565 S
C489 C486 1.409 . S
C489 C487 1.415 . S
C490 H480 0.930 . S
C490 C488 1.419 . S
C490 C491 1.362 . S
C491 H481 0.930 . S
C491 C484 1.409 . S
C491 C490 1.362 . S
H492 C498 0.930 . S
H493 C501 0.930 . S
H494 C502 0.930 . S
H495 C503 0.930 . S
H496 C506 0.930 . S
H497 C507 0.930 . S
C498 H492 0.930 . S
C498 C499 1.355 . S
C498 C500 1.415 . S
C499 C498 1.355 . S
C499 C501 1.419 . S
C500 C498 1.415 . S
C500 C505 1.425 . S
C500 C507 1.409 . S
C501 H493 0.930 . S
C501 C499 1.419 . S
C501 C502 1.362 . S
C502 H494 0.930 . S
C502 C501 1.362 . S
C502 C505 1.409 . S
C503 H495 0.930 . S
C503 C504 1.355 . S
C503 C505 1.415 . S
C504 C503 1.355 . S
C504 C506 1.419 . S
C505 C500 1.425 . S
C505 C502 1.409 . S
C505 C503 1.415 . S
C506 H496 0.930 . S
C506 C504 1.419 . S
C506 C507 1.362 . S
C507 H497 0.930 . S
C507 C500 1.409 . S
C507 C506 1.362 . S
H508 C514 0.930 . S
H509 C517 0.930 . S
H510 C518 0.930 . S
H511 C519 0.930 . S
H512 C522 0.930 . S
H513 C523 0.930 . S
C514 H508 0.930 . S
C514 C515 1.355 . S
C514 C516 1.415 . S
C515 C514 1.355 . S
C515 C517 1.419 . S
C516 C514 1.415 . S
C516 C521 1.425 . S
C516 C523 1.409 . S
C517 H509 0.930 . S
C517 C515 1.419 . S
C517 C518 1.362 . S
C518 H510 0.930 . S
C518 C517 1.362 . S
C518 C521 1.409 . S
C519 H511 0.930 . S
C519 C520 1.355 . S
C519 C521 1.415 . S
C520 C519 1.355 . S
C520 C522 1.419 . S
C521 C516 1.425 . S
C521 C518 1.409 . S
C521 C519 1.415 . S
C522 H512 0.930 . S
C522 C520 1.419 . S
C522 C523 1.362 . S
C523 H513 0.930 . S
C523 C516 1.409 . S
C523 C522 1.362 . S
H524 C530 0.930 . S
H525 C533 0.930 . S
H526 C534 0.930 . S
H527 C535 0.930 . S
H528 C538 0.930 . S
H529 C539 0.930 . S
C530 H524 0.930 . S
C530 C531 1.355 . S
C530 C532 1.415 . S
C531 C530 1.355 . S
C531 C533 1.419 . S
C532 C530 1.415 . S
C532 C537 1.425 . S
C532 C539 1.409 . S
C533 H525 0.930 . S
C533 C531 1.419 . S
C533 C534 1.362 . S
C534 H526 0.930 . S
C534 C533 1.362 . S
C534 C537 1.409 . S
C535 H527 0.930 . S
C535 C536 1.355 . S
C535 C537 1.415 . S
C536 C535 1.355 . S
C536 C538 1.419 . S
C537 C532 1.425 . S
C537 C534 1.409 . S
C537 C535 1.415 . S
C538 H528 0.930 . S
C538 C536 1.419 . S
C538 C539 1.362 . S
C539 H529 0.930 . S
C539 C532 1.409 . S
C539 C538 1.362 . S
H540 C546 0.930 . S
H541 C549 0.930 . S
H542 C550 0.930 . S
H543 C551 0.930 . S
H544 C554 0.930 . S
H545 C555 0.930 . S
C546 H540 0.930 . S
C546 C547 1.355 . S
C546 C548 1.415 . S
C547 C546 1.355 . S
C547 C549 1.419 . S
C548 C546 1.415 . S
C548 C553 1.425 . S
C548 C555 1.409 . S
C549 H541 0.930 . S
C549 C547 1.419 . S
C549 C550 1.362 . S
C550 H542 0.930 . S
C550 C549 1.362 . S
C550 C553 1.409 . S
C551 H543 0.930 . S
C551 C552 1.355 . S
C551 C553 1.415 . S
C552 C551 1.355 . S
C552 C554 1.419 . S
C553 C548 1.425 . S
C553 C550 1.409 . S
C553 C551 1.415 . S
C554 H544 0.930 . S
C554 C552 1.419 . S
C554 C555 1.362 . S
C555 H545 0.930 . S
C555 C548 1.409 . S
C555 C554 1.362 . S
H556 C562 0.930 . S
H557 C565 0.930 . S
H558 C566 0.930 . S
H559 C567 0.930 . S
H560 C570 0.930 . S
H561 C571 0.930 . S
C562 H556 0.930 . S
C562 C563 1.355 . S
C562 C564 1.415 . S
C563 C562 1.355 . S
C563 C565 1.419 . S
C564 C562 1.415 . S
C564 C569 1.425 . S
C564 C571 1.409 . S
C565 H557 0.930 . S
C565 C563 1.419 . S
C565 C566 1.362 . S
C566 H558 0.930 . S
C566 C565 1.362 . S
C566 C569 1.409 . S
C567 H559 0.930 . S
C567 C568 1.355 . S
C567 C569 1.415 . S
C568 C567 1.355 . S
C568 C570 1.419 . S
C569 C564 1.425 . S
C569 C566 1.409 . S
C569 C567 1.415 . S
C570 H560 0.930 . S
C570 C568 1.419 . S
C570 C571 1.362 . S
C571 H561 0.930 . S
C571 C564 1.409 . S
C571 C570 1.362 . S
H572 C578 0.930 . S
H573 C581 0.930 . S
H574 C582 0.930 . S
H575 C583 0.930 . S
H576 C586 0.930 . S
H577 C587 0.930 . S
C578 H572 0.930 . S
C578 C579 1.355 . S
C578 C580 1.415 . S
C579 C578 1.355 . S
C579 C581 1.419 . S
C580 C578 1.415 . S
C580 C585 1.425 . S
C580 C587 1.409 . S
C581 H573 0.930 . S
C581 C579 1.419 . S
C581 C582 1.362 . S
C582 H574 0.930 . S
C582 C581 1.362 . S
C582 C585 1.409 . S
C583 H575 0.930 . S
C583 C584 1.355 . S
C583 C585 1.415 . S
C584 C583 1.355 . S
C584 C586 1.419 . S
C585 C580 1.425 . S
C585 C582 1.409 . S
C585 C583 1.415 . S
C586 H576 0.930 . S
C586 C584 1.419 . S
C586 C587 1.362 . S
C587 H577 0.930 . S
C587 C580 1.409 . S
C587 C586 1.362 . S
H588 C594 0.930 . S
H589 C597 0.930 . S
H590 C598 0.930 . S
H591 C599 0.930 . S
H592 C602 0.930 . S
H593 C603 0.930 . S
C594 H588 0.930 . S
C594 C595 1.355 . S
C594 C596 1.415 . S
C595 C594 1.355 . S
C595 C597 1.419 . S
C596 C594 1.415 . S
C596 C601 1.425 . S
C596 C603 1.409 . S
C597 H589 0.930 . S
C597 C595 1.419 . S
C597 C598 1.362 . S
C598 H590 0.930 . S
C598 C597 1.362 . S
C598 C601 1.409 . S
C599 H591 0.930 . S
C599 C600 1.355 . S
C599 C601 1.415 . S
C600 C599 1.355 . S
C600 C602 1.419 . S
C601 C596 1.425 . S
C601 C598 1.409 . S
C601 C599 1.415 . S
C602 H592 0.930 . S
C602 C600 1.419 . S
C602 C603 1.362 . S
C603 H593 0.930 . S
C603 C596 1.409 . S
C603 C602 1.362 . S
H604 C610 0.930 . S
H605 C613 0.930 . S
H606 C614 0.930 . S
H607 C615 0.930 . S
H608 C618 0.930 . S
H609 C619 0.930 . S
C610 H604 0.930 . S
C610 C611 1.355 . S
C610 C612 1.415 . S
C611 C610 1.355 . S
C611 C613 1.419 . S
C612 C610 1.415 . S
C612 C617 1.425 . S
C612 C619 1.409 . S
C613 H605 0.930 . S
C613 C611 1.419 . S
C613 C614 1.362 . S
C614 H606 0.930 . S
C614 C613 1.362 . S
C614 C617 1.409 . S
C615 H607 0.930 . S
C615 C616 1.355 . S
C615 C617 1.415 . S
C616 C615 1.355 . S
C616 C618 1.419 . S
C617 C612 1.425 . S
C617 C614 1.409 . S
C617 C615 1.415 . S
C618 H608 0.930 . S
C618 C616 1.419 . S
C618 C619 1.362 . S
C619 H609 0.930 . S
C619 C612 1.409 . S
C619 C618 1.362 . S
H620 C626 0.930 . S
H621 C629 0.930 . S
H622 C630 0.930 . S
H623 C631 0.930 . S
H624 C634 0.930 . S
H625 C635 0.930 . S
C626 H620 0.930 . S
C626 C627 1.355 . S
C626 C628 1.415 . S
C627 C626 1.355 . S
C627 C629 1.419 . S
C628 C626 1.415 . S
C628 C633 1.425 . S
C628 C635 1.409 . S
C629 H621 0.930 . S
C629 C627 1.419 . S
C629 C630 1.362 . S
C630 H622 0.930 . S
C630 C629 1.362 . S
C630 C633 1.409 . S
C631 H623 0.930 . S
C631 C632 1.355 . S
C631 C633 1.415 . S
C632 C631 1.355 . S
C632 C634 1.419 . S
C633 C628 1.425 . S
C633 C630 1.409 . S
C633 C631 1.415 . S
C634 H624 0.930 . S
C634 C632 1.419 . S
C634 C635 1.362 . S
C635 H625 0.930 . S
C635 C628 1.409 . S
C635 C634 1.362 . S
H636 C642 0.930 . S
H637 C645 0.930 . S
H638 C646 0.930 . S
H639 C647 0.930 . S
H640 C650 0.930 . S
H641 C651 0.930 . S
C642 H636 0.930 . S
C642 C643 1.355 . S
C642 C644 1.415 . S
C643 C642 1.355 . S
C643 C645 1.419 . S
C644 C642 1.415 . S
C644 C649 1.425 . S
C644 C651 1.409 . S
C645 H637 0.930 . S
C645 C643 1.419 . S
C645 C646 1.362 . S
C646 H638 0.930 . S
C646 C645 1.362 . S
C646 C649 1.409 . S
C647 H639 0.930 . S
C647 C648 1.355 . S
C647 C649 1.415 . S
C648 C647 1.355 . S
C648 C650 1.419 . S
C649 C644 1.425 . S
C649 C646 1.409 . S
C649 C647 1.415 . S
C650 H640 0.930 . S
C650 C648 1.419 . S
C650 C651 1.362 . S
C651 H641 0.930 . S
C651 C644 1.409 . S
C651 C650 1.362 . S
H652 C658 0.930 . S
H653 C661 0.930 . S
H654 C662 0.930 . S
H655 C663 0.930 . S
H656 C666 0.930 . S
H657 C667 0.930 . S
C658 H652 0.930 . S
C658 C659 1.355 . S
C658 C660 1.415 . S
C659 C658 1.355 . S
C659 C661 1.419 . S
C660 C658 1.415 . S
C660 C665 1.425 . S
C660 C667 1.409 . S
C661 H653 0.930 . S
C661 C659 1.419 . S
C661 C662 1.362 . S
C662 H654 0.930 . S
C662 C661 1.362 . S
C662 C665 1.409 . S
C663 H655 0.930 . S
C663 C664 1.355 . S
C663 C665 1.415 . S
C664 C663 1.355 . S
C664 C666 1.419 . S
C665 C660 1.425 . S
C665 C662 1.409 . S
C665 C663 1.415 . S
C666 H656 0.930 . S
C666 C664 1.419 . S
C666 C667 1.362 . S
C667 H657 0.930 . S
C667 C660 1.409 . S
C667 C666 1.362 . S
H668 C674 0.930 . S
H669 C677 0.930 . S
H670 C678 0.930 . S
H671 C679 0.930 . S
H672 C682 0.930 . S
H673 C683 0.930 . S
C674 H668 0.930 . S
C674 C675 1.355 . S
C674 C676 1.415 . S
C675 C674 1.355 . S
C675 C677 1.419 . S
C676 C674 1.415 . S
C676 C681 1.425 . S
C676 C683 1.409 . S
C677 H669 0.930 . S
C677 C675 1.419 . S
C677 C678 1.362 . S
C678 H670 0.930 . S
C678 C677 1.362 . S
C678 C681 1.409 . S
C679 H671 0.930 . S
C679 C680 1.355 . S
C679 C681 1.415 . S
C680 C679 1.355 . S
C680 C682 1.419 . S
C681 C676 1.425 . S
C681 C678 1.409 . S
C681 C679 1.415 . S
C682 H672 0.930 . S
C682 C680 1.419 . S
C682 C683 1.362 . S
C683 H673 0.930 . S
C683 C676 1.409 . S
C683 C682 1.362 . S
H684 C690 0.930 . S
H685 C693 0.930 . S
H686 C694 0.930 . S
H687 C695 0.930 . S
H688 C698 0.930 . S
H689 C699 0.930 . S
C690 H684 0.930 . S
C690 C691 1.355 . S
C690 C692 1.415 . S
C691 C690 1.355 . S
C691 C693 1.419 . S
C692 C690 1.415 . S
C692 C697 1.425 . S
C692 C699 1.409 . S
C693 H685 0.930 . S
C693 C691 1.419 . S
C693 C694 1.362 . S
C694 H686 0.930 . S
C694 C693 1.362 . S
C694 C697 1.409 . S
C695 H687 0.930 . S
C695 C696 1.355 . S
C695 C697 1.415 . S
C696 C695 1.355 . S
C696 C698 1.419 . S
C697 C692 1.425 . S
C697 C694 1.409 . S
C697 C695 1.415 . S
C698 H688 0.930 . S
C698 C696 1.419 . S
C698 C699 1.362 . S
C699 H689 0.930 . S
C699 C692 1.409 . S
C699 C698 1.362 . S
H700 C706 0.930 . S
H701 C709 0.930 . S
H702 C710 0.930 . S
H703 C711 0.930 . S
H704 C714 0.930 . S
H705 C715 0.930 . S
C706 H700 0.930 . S
C706 C707 1.355 . S
C706 C708 1.415 . S
C707 C706 1.355 . S
C707 C709 1.419 . S
C708 C706 1.415 . S
C708 C713 1.425 . S
C708 C715 1.409 . S
C709 H701 0.930 . S
C709 C707 1.419 . S
C709 C710 1.362 . S
C710 H702 0.930 . S
C710 C709 1.362 . S
C710 C713 1.409 . S
C711 H703 0.930 . S
C711 C712 1.355 . S
C711 C713 1.415 . S
C712 C711 1.355 . S
C712 C714 1.419 . S
C713 C708 1.425 . S
C713 C710 1.409 . S
C713 C711 1.415 . S
C714 H704 0.930 . S
C714 C712 1.419 . S
C714 C715 1.362 . S
C715 H705 0.930 . S
C715 C708 1.409 . S
C715 C714 1.362 . S
H716 C722 0.930 . S
H717 C725 0.930 . S
H718 C726 0.930 . S
H719 C727 0.930 . S
H720 C730 0.930 . S
H721 C731 0.930 . S
C722 H716 0.930 . S
C722 C723 1.355 . S
C722 C724 1.415 . S
C723 C722 1.355 . S
C723 C725 1.419 . S
C724 C722 1.415 . S
C724 C729 1.425 . S
C724 C731 1.409 . S
C725 H717 0.930 . S
C725 C723 1.419 . S
C725 C726 1.362 . S
C726 H718 0.930 . S
C726 C725 1.362 . S
C726 C729 1.409 . S
C727 H719 0.930 . S
C727 C728 1.355 . S
C727 C729 1.415 . S
C728 C727 1.355 . S
C728 C730 1.419 . S
C729 C724 1.425 . S
C729 C726 1.409 . S
C729 C727 1.415 . S
C730 H720 0.930 . S
C730 C728 1.419 . S
C730 C731 1.362 . S
C731 H721 0.930 . S
C731 C724 1.409 . S
C731 C730 1.362 . S
H732 C738 0.930 . S
H733 C741 0.930 . S
H734 C742 0.930 . S
H735 C743 0.930 . S
H736 C746 0.930 . S
H737 C747 0.930 . S
C738 H732 0.930 . S
C738 C739 1.355 . S
C738 C740 1.415 . S
C739 C738 1.355 . S
C739 C741 1.419 . S
C740 C738 1.415 . S
C740 C745 1.425 . S
C740 C747 1.409 . S
C741 H733 0.930 . S
C741 C739 1.419 . S
C741 C742 1.362 . S
C742 H734 0.930 . S
C742 C741 1.362 . S
C742 C745 1.409 . S
C743 H735 0.930 . S
C743 C744 1.355 . S
C743 C745 1.415 . S
C744 C743 1.355 . S
C744 C746 1.419 . S
C745 C740 1.425 . S
C745 C742 1.409 . S
C745 C743 1.415 . S
C746 H736 0.930 . S
C746 C744 1.419 . S
C746 C747 1.362 . S
C747 H737 0.930 . S
C747 C740 1.409 . S
C747 C746 1.362 . S
H748 C754 0.930 . S
H749 C757 0.930 . S
H750 C758 0.930 . S
H751 C759 0.930 . S
H752 C762 0.930 . S
H753 C763 0.930 . S
C754 H748 0.930 . S
C754 C755 1.355 . S
C754 C756 1.415 . S
C755 C754 1.355 . S
C755 C757 1.419 . S
C756 C754 1.415 . S
C756 C761 1.425 . S
C756 C763 1.409 . S
C757 H749 0.930 . S
C757 C755 1.419 . S
C757 C758 1.362 . S
C758 H750 0.930 . S
C758 C757 1.362 . S
C758 C761 1.409 . S
C759 H751 0.930 . S
C759 C760 1.355 . S
C759 C761 1.415 . S
C760 C759 1.355 . S
C760 C762 1.419 . S
C761 C756 1.425 . S
C761 C758 1.409 . S
C761 C759 1.415 . S
C762 H752 0.930 . S
C762 C760 1.419 . S
C762 C763 1.362 . S
C763 H753 0.930 . S
C763 C756 1.409 . S
C763 C762 1.362 . S
H764 C770 0.930 . S
H765 C773 0.930 . S
H766 C774 0.930 . S
H767 C775 0.930 . S
H768 C778 0.930 . S
H769 C779 0.930 . S
C770 H764 0.930 . S
C770 C771 1.355 . S
C770 C772 1.415 . S
C771 C770 1.355 . S
C771 C773 1.419 . S
C772 C770 1.415 . S
C772 C777 1.425 . S
C772 C779 1.409 . S
C773 H765 0.930 . S
C773 C771 1.419 . S
C773 C774 1.362 . S
C774 H766 0.930 . S
C774 C773 1.362 . S
C774 C777 1.409 . S
C775 H767 0.930 . S
C775 C776 1.355 . S
C775 C777 1.415 . S
C776 C775 1.355 . S
C776 C778 1.419 . S
C777 C772 1.425 . S
C777 C774 1.409 . S
C777 C775 1.415 . S
C778 H768 0.930 . S
C778 C776 1.419 . S
C778 C779 1.362 . S
C779 H769 0.930 . S
C779 C772 1.409 . S
C779 C778 1.362 . S
H780 C786 0.930 . S
H781 C789 0.930 . S
H782 C790 0.930 . S
H783 C791 0.930 . S
H784 C794 0.930 . S
H785 C795 0.930 . S
C786 H780 0.930 . S
C786 C787 1.355 . S
C786 C788 1.415 . S
C787 C786 1.355 . S
C787 C789 1.419 . S
C788 C786 1.415 . S
C788 C793 1.425 . S
C788 C795 1.409 . S
C789 H781 0.930 . S
C789 C787 1.419 . S
C789 C790 1.362 . S
C790 H782 0.930 . S
C790 C789 1.362 . S
C790 C793 1.409 . S
C791 H783 0.930 . S
C791 C792 1.355 . S
C791 C793 1.415 . S
C792 C791 1.355 . S
C792 C794 1.419 . S
C793 C788 1.425 . S
C793 C790 1.409 . S
C793 C791 1.415 . S
C794 H784 0.930 . S
C794 C792 1.419 . S
C794 C795 1.362 . S
C795 H785 0.930 . S
C795 C788 1.409 . S
C795 C794 1.362 . S
H796 C802 0.930 . S
H797 C805 0.930 . S
H798 C806 0.930 . S
H799 C807 0.930 . S
H800 C810 0.930 . S
H801 C811 0.930 . S
C802 H796 0.930 . S
C802 C803 1.355 . S
C802 C804 1.415 . S
C803 C802 1.355 . S
C803 C805 1.419 . S
C804 C802 1.415 . S
C804 C809 1.425 . S
C804 C811 1.409 . S
C805 H797 0.930 . S
C805 C803 1.419 . S
C805 C806 1.362 . S
C806 H798 0.930 . S
C806 C805 1.362 . S
C806 C809 1.409 . S
C807 H799 0.930 . S
C807 C808 1.355 . S
C807 C809 1.415 . S
C808 C807 1.355 . S
C808 C810 1.419 . S
C809 C804 1.425 . S
C809 C806 1.409 . S
C809 C807 1.415 . S
C810 H800 0.930 . S
C810 C808 1.419 . S
C810 C811 1.362 . S
C811 H801 0.930 . S
C811 C804 1.409 . S
C811 C810 1.362 . S
H812 C818 0.930 . S
H813 C821 0.930 . S
H814 C822 0.930 . S
H815 C823 0.930 . S
H816 C826 0.930 . S
H817 C827 0.930 . S
C818 H812 0.930 . S
C818 C819 1.355 . S
C818 C820 1.415 . S
C819 C818 1.355 . S
C819 C821 1.419 . S
C820 C818 1.415 . S
C820 C825 1.425 . S
C820 C827 1.409 . S
C821 H813 0.930 . S
C821 C819 1.419 . S
C821 C822 1.362 . S
C822 H814 0.930 . S
C822 C821 1.362 . S
C822 C825 1.409 . S
C823 H815 0.930 . S
C823 C824 1.355 . S
C823 C825 1.415 . S
C824 C823 1.355 . S
C824 C826 1.419 . S
C825 C820 1.425 . S
C825 C822 1.409 . S
C825 C823 1.415 . S
C826 H816 0.930 . S
C826 C824 1.419 . S
C826 C827 1.362 . S
C827 H817 0.930 . S
C827 C820 1.409 . S
C827 C826 1.362 . S
H828 C834 0.930 . S
H829 C837 0.930 . S
H830 C838 0.930 . S
H831 C839 0.930 . S
H832 C842 0.930 . S
H833 C843 0.930 . S
C834 H828 0.930 . S
C834 C835 1.355 . S
C834 C836 1.415 . S
C835 C834 1.355 . S
C835 C837 1.419 . S
C836 C834 1.415 . S
C836 C841 1.425 . S
C836 C843 1.409 . S
C837 H829 0.930 . S
C837 C835 1.419 . S
C837 C838 1.362 . S
C838 H830 0.930 . S
C838 C837 1.362 . S
C838 C841 1.409 . S
C839 H831 0.930 . S
C839 C840 1.355 . S
C839 C841 1.415 . S
C840 C839 1.355 . S
C840 C842 1.419 . S
C841 C836 1.425 . S
C841 C838 1.409 . S
C841 C839 1.415 . S
C842 H832 0.930 . S
C842 C840 1.419 . S
C842 C843 1.362 . S
C843 H833 0.930 . S
C843 C836 1.409 . S
C843 C842 1.362 . S
H844 C850 0.930 . S
H845 C853 0.930 . S
H846 C854 0.930 . S
H847 C855 0.930 . S
H848 C858 0.930 . S
H849 C859 0.930 . S
C850 H844 0.930 . S
C850 C851 1.355 . S
C850 C852 1.415 . S
C851 C850 1.355 . S
C851 C853 1.419 . S
C852 C850 1.415 . S
C852 C857 1.425 . S
C852 C859 1.409 . S
C853 H845 0.930 . S
C853 C851 1.419 . S
C853 C854 1.362 . S
C854 H846 0.930 . S
C854 C853 1.362 . S
C854 C857 1.409 . S
C855 H847 0.930 . S
C855 C856 1.355 . S
C855 C857 1.415 . S
C856 C855 1.355 . S
C856 C858 1.419 . S
C857 C852 1.425 . S
C857 C854 1.409 . S
C857 C855 1.415 . S
C858 H848 0.930 . S
C858 C856 1.419 . S
C858 C859 1.362 . S
C859 H849 0.930 . S
C859 C852 1.409 . S
C859 C858 1.362 . S
H860 C866 0.930 . S
H861 C869 0.930 . S
H862 C870 0.930 . S
H863 C871 0.930 . S
H864 C874 0.930 . S
H865 C875 0.930 . S
C866 H860 0.930 . S
C866 C867 1.355 . S
C866 C868 1.415 . S
C867 C866 1.355 . S
C867 C869 1.419 . S
C868 C866 1.415 . S
C868 C873 1.425 . S
C868 C875 1.409 . S
C869 H861 0.930 . S
C869 C867 1.419 . S
C869 C870 1.362 . S
C870 H862 0.930 . S
C870 C869 1.362 . S
C870 C873 1.409 . S
C871 H863 0.930 . S
C871 C872 1.355 . S
C871 C873 1.415 . S
C872 C871 1.355 . S
C872 C874 1.419 . S
C873 C868 1.425 . S
C873 C870 1.409 . S
C873 C871 1.415 . S
C874 H864 0.930 . S
C874 C872 1.419 . S
C874 C875 1.362 . S
C875 H865 0.930 . S
C875 C868 1.409 . S
C875 C874 1.362 . S
C403 C318 0.930 . S
C408 C21 0.952 . S
C419 C54 0.938 . S
C424 C351 0.937 . S
C435 C384 1.011 . S
C440 C87 0.958 . S
C451 C120 0.948 . S
C456 C219 0.930 . S
C467 C153 0.930 . S
C472 C252 0.956 . S
C483 C285 0.944 . S
C488 C186 0.996 . S
C499 C18 1.410 . S
C504 N134 1.282 . S
C515 N167 1.232 . S
C520 C51 1.392 . S
C531 C84 1.414 . S
C536 N2 1.261 . S
C547 C117 1.418 . S
C552 N35 1.217 . S
C563 N68 1.175 . S
C568 C150 1.407 . S
C579 N101 1.185 . S
C584 C183 1.418 . S
C595 N266 1.192 . S
C600 C216 1.400 . S
C611 C249 1.390 . S
C616 N299 1.291 . S
C627 N332 1.283 . S
C632 C282 1.389 . S
C643 N365 1.235 . S
C648 C315 1.392 . S
C659 N200 1.179 . S
C664 C348 1.417 . S
C675 C381 1.390 . S
C680 N233 1.296 . S
C691 N343 0.797 . S
C696 N13 0.753 . S
C707 N376 0.733 . S
C712 N46 0.835 . S
C723 N79 0.925 . S
C728 N211 0.791 . S
C739 N112 0.821 . S
C744 N244 0.924 . S
C755 N277 0.801 . S
C760 N145 0.926 . S
C771 N178 0.749 . S
C776 N310 0.802 . S
C787 C205 1.030 . S
C792 C7 1.048 . S
C803 C238 1.043 . S
C808 C40 1.098 . S
C819 C73 1.130 . S
C824 C271 1.107 . S
C835 C304 1.029 . S
C840 C106 1.052 . S
C851 C139 1.038 . S
C856 C337 1.036 . S
C867 C370 1.060 . S
C872 C172 1.115 . S
