# Generated by pormake.
# Topology zfs, (5)-cn, num edge types: 1
# Building blocks:
#     Node 0, Type 0, BuildingBlock: XOMCOT_clean_sbu_1, # of connection points: 5
#     Node 1, Type 0, BuildingBlock: XOMCOT_clean_sbu_1, # of connection points: 5
#     Node 2, Type 0, BuildingBlock: XOMCOT_clean_sbu_1, # of connection points: 5
#     Node 3, Type 0, BuildingBlock: XOMCOT_clean_sbu_1, # of connection points: 5
#     Node 4, Type 0, BuildingBlock: XOMCOT_clean_sbu_1, # of connection points: 5
#     Node 5, Type 0, BuildingBlock: XOMCOT_clean_sbu_1, # of connection points: 5
#     Node 6, Type 0, BuildingBlock: XOMCOT_clean_sbu_1, # of connection points: 5
#     Node 7, Type 0, BuildingBlock: XOMCOT_clean_sbu_1, # of connection points: 5
#     Edge 8, Type (0, 0), BuildingBlock: EZIPEK_clean_linker_0, # of connection points: 2
#     Edge 9, Type (0, 0), BuildingBlock: EZIPEK_clean_linker_0, # of connection points: 2
#     Edge 10, Type (0, 0), BuildingBlock: EZIPEK_clean_linker_0, # of connection points: 2
#     Edge 11, Type (0, 0), BuildingBlock: EZIPEK_clean_linker_0, # of connection points: 2
#     Edge 12, Type (0, 0), BuildingBlock: EZIPEK_clean_linker_0, # of connection points: 2
#     Edge 13, Type (0, 0), BuildingBlock: EZIPEK_clean_linker_0, # of connection points: 2
#     Edge 14, Type (0, 0), BuildingBlock: EZIPEK_clean_linker_0, # of connection points: 2
#     Edge 15, Type (0, 0), BuildingBlock: EZIPEK_clean_linker_0, # of connection points: 2
#     Edge 16, Type (0, 0), BuildingBlock: EZIPEK_clean_linker_0, # of connection points: 2
#     Edge 17, Type (0, 0), BuildingBlock: EZIPEK_clean_linker_0, # of connection points: 2
#     Edge 18, Type (0, 0), BuildingBlock: EZIPEK_clean_linker_0, # of connection points: 2
#     Edge 19, Type (0, 0), BuildingBlock: EZIPEK_clean_linker_0, # of connection points: 2
#     Edge 20, Type (0, 0), BuildingBlock: EZIPEK_clean_linker_0, # of connection points: 2
#     Edge 21, Type (0, 0), BuildingBlock: EZIPEK_clean_linker_0, # of connection points: 2
#     Edge 22, Type (0, 0), BuildingBlock: EZIPEK_clean_linker_0, # of connection points: 2
#     Edge 23, Type (0, 0), BuildingBlock: EZIPEK_clean_linker_0, # of connection points: 2
#     Edge 24, Type (0, 0), BuildingBlock: EZIPEK_clean_linker_0, # of connection points: 2
#     Edge 25, Type (0, 0), BuildingBlock: EZIPEK_clean_linker_0, # of connection points: 2
#     Edge 26, Type (0, 0), BuildingBlock: EZIPEK_clean_linker_0, # of connection points: 2
#     Edge 27, Type (0, 0), BuildingBlock: EZIPEK_clean_linker_0, # of connection points: 2
# Relax obj value: 0.170
# Max RMSD: 0.162
# Mean RMSD: 0.162
data_MOF--net-zfs--node1-XOMCOT_clean_sbu_1--edge1-EZIPEK_clean_linker_0
_symmetry_space_group_name_H-M    P1
_symmetry_Int_Tables_number       1
_symmetry_cell_setting            triclinic
loop_
_symmetry_equiv_pos_as_xyz
'x, y, z'
_cell_length_a     26.102469
_cell_length_b     26.128153
_cell_length_c     31.0307
_cell_angle_alpha  89.667751
_cell_angle_beta   89.973498
_cell_angle_gamma 89.989004
loop_
_atom_site_label
_atom_site_type_symbol
_atom_site_fract_x
_atom_site_fract_y
_atom_site_fract_z
_atom_type_partial_charge
C0 C 0.18015 0.25817 0.22293 0.0
C1 C 0.21254 0.25351 0.25774 0.0
N2 N 0.18911 0.22374 0.28718 0.0
N3 N 0.13681 0.23155 0.23086 0.0
C4 C 0.14374 0.21049 0.27016 0.0
H5 H 0.18617 0.28227 0.19494 0.0
Co6 Co 0.07847 0.23592 0.19753 0.0
C7 C 0.99979 0.21178 0.26804 0.0
O8 O 0.97649 0.25587 0.26262 0.0
N9 N 0.02145 0.24092 0.16218 0.0
C10 C 0.95044 0.2335 0.12285 0.0
C11 C 0.97116 0.2284 0.16364 0.0
C12 C 0.02987 0.25405 0.12094 0.0
N13 N 0.98804 0.24947 0.09641 0.0
O14 O 0.09478 0.16995 0.16997 0.0
H15 H 0.95107 0.2137 0.19134 0.0
H16 H 0.067 0.26506 0.10871 0.0
O17 O 0.03779 0.1998 0.24375 0.0
C18 C 0.12886 0.17075 0.14006 0.0
O19 O 0.15386 0.21359 0.13296 0.0
N20 N 0.06623 0.30273 0.21994 0.0
C21 C 0.06064 0.4057 0.24398 0.0
C22 C 0.06158 0.36693 0.27537 0.0
C23 C 0.06539 0.31561 0.26261 0.0
C24 C 0.06754 0.3407 0.18948 0.0
C25 C 0.06388 0.39213 0.20068 0.0
H26 H 0.06884 0.28645 0.28703 0.0
H27 H 0.07383 0.33174 0.15613 0.0
H28 H 0.115 0.1889 0.28755 0.0
H29 H 0.24863 0.2731 0.2624 0.0
H30 H 0.91212 0.22314 0.11286 0.0
H31 H 0.06094 0.37634 0.30931 0.0
H32 H 0.06518 0.42127 0.17571 0.0
C33 C 0.77944 0.18381 0.46349 0.0
C34 C 0.78615 0.21942 0.49556 0.0
N35 N 0.80849 0.19532 0.52893 0.0
N36 N 0.79846 0.13822 0.47669 0.0
C37 C 0.81616 0.14673 0.51663 0.0
H38 H 0.75979 0.1902 0.43329 0.0
Co39 Co 0.79246 0.07779 0.44667 0.0
C40 C 0.80588 0.99933 0.51819 0.0
O41 O 0.75808 0.98646 0.51097 0.0
N42 N 0.78644 0.01866 0.4142 0.0
C43 C 0.79794 0.94571 0.37854 0.0
C44 C 0.80141 0.9692 0.41814 0.0
C45 C 0.77502 0.02418 0.37237 0.0
N46 N 0.78264 0.9813 0.3499 0.0
O47 O 0.85998 0.08977 0.41949 0.0
H48 H 0.81927 0.95228 0.44604 0.0
H49 H 0.76451 0.06042 0.35795 0.0
O50 O 0.82495 0.03605 0.49539 0.0
C51 C 0.85962 0.12123 0.38744 0.0
O52 O 0.81633 0.14407 0.37765 0.0
N53 N 0.72391 0.07068 0.46857 0.0
C54 C 0.62035 0.06741 0.49219 0.0
C55 C 0.65839 0.07431 0.52345 0.0
C56 C 0.70995 0.07719 0.51082 0.0
C57 C 0.68651 0.06716 0.4379 0.0
C58 C 0.6348 0.06458 0.449 0.0
H59 H 0.73866 0.08313 0.53531 0.0
H60 H 0.69602 0.06798 0.40423 0.0
H61 H 0.83141 0.11748 0.53765 0.0
H62 H 0.7736 0.25891 0.49531 0.0
H63 H 0.81132 0.90772 0.37051 0.0
H64 H 0.64826 0.07798 0.55714 0.0
H65 H 0.60616 0.06112 0.42392 0.0
C66 C 0.85938 0.76509 0.72979 0.0
C67 C 0.82895 0.76687 0.76589 0.0
N68 N 0.85036 0.8003 0.7932 0.0
N69 N 0.89965 0.79686 0.73508 0.0
C70 C 0.89259 0.81852 0.77377 0.0
H71 H 0.85421 0.74017 0.70244 0.0
Co72 Co 0.95387 0.79968 0.69788 0.0
C73 C 0.0405 0.82246 0.76189 0.0
O74 O 0.06701 0.7828 0.74868 0.0
N75 N 1.00618 0.80141 0.65713 0.0
C76 C 0.06964 0.81813 0.61088 0.0
C77 C 0.05508 0.81821 0.65374 0.0
C78 C 0.99263 0.79066 0.61635 0.0
N79 N 0.0297 0.80089 0.58794 0.0
O80 O 0.93093 0.8671 0.67708 0.0
H81 H 0.07824 0.83199 0.67972 0.0
H82 H 0.95511 0.77757 0.60693 0.0
O83 O 0.99766 0.83338 0.74361 0.0
C84 C 0.89672 0.86273 0.64783 0.0
O85 O 0.88099 0.81612 0.63918 0.0
N86 N 0.97166 0.7316 0.71494 0.0
C87 C 0.97559 0.62656 0.73495 0.0
C88 C 0.98573 0.66353 0.76647 0.0
C89 C 0.98146 0.71571 0.75621 0.0
C90 C 0.96193 0.69592 0.68401 0.0
C91 C 0.96345 0.64353 0.69329 0.0
H92 H 0.98373 0.74289 0.78198 0.0
H93 H 0.94951 0.70783 0.65241 0.0
H94 H 0.91884 0.84517 0.78851 0.0
H95 H 0.7956 0.74356 0.77268 0.0
H96 H 0.10539 0.83194 0.59748 0.0
H97 H 0.99407 0.65212 0.79934 0.0
H98 H 0.95394 0.61641 0.66826 0.0
C99 C 0.26455 0.85002 0.97729 0.0
C100 C 0.25987 0.81762 0.0122 0.0
N101 N 0.2286 0.8402 0.04076 0.0
N102 N 0.23634 0.89251 0.98418 0.0
C103 C 0.21444 0.88508 0.02305 0.0
H104 H 0.2898 0.84471 0.95003 0.0
Co105 Co 0.24033 0.95104 0.95064 0.0
C106 C 0.21479 0.02976 0.01981 0.0
O107 O 0.25867 0.05326 0.01373 0.0
N108 N 0.24493 1.00828 0.91533 0.0
C109 C 0.23173 0.0773 0.87439 0.0
C110 C 0.22991 0.05784 0.91586 0.0
C111 C 0.2568 0.99931 0.87409 0.0
N112 N 0.24795 0.03961 0.84841 0.0
O113 O 0.17506 0.93374 0.92135 0.0
H114 H 0.21451 0.07776 0.94318 0.0
H115 H 0.26887 0.96239 0.86273 0.0
O116 O 0.20288 0.9912 0.99629 0.0
C117 C 0.17704 0.89866 0.89242 0.0
O118 O 0.21936 0.87185 0.88892 0.0
N119 N 0.30668 0.96399 0.97396 0.0
C120 C 0.40979 0.96844 0.99851 0.0
C121 C 0.37091 0.96825 0.0297 0.0
C122 C 0.31948 0.9649 0.0167 0.0
C123 C 0.3447 0.96247 0.9437 0.0
C124 C 0.39621 0.96543 0.95516 0.0
H125 H 0.29022 0.96166 0.04097 0.0
H126 H 0.33568 0.95641 0.91032 0.0
H127 H 0.19156 0.91322 0.03969 0.0
H128 H 0.28053 0.78225 0.01765 0.0
H129 H 0.21765 0.1142 0.86365 0.0
H130 H 0.3803 0.96892 0.06369 0.0
H131 H 0.42537 0.96379 0.93035 0.0
C132 C 0.17811 0.76395 0.2803 0.0
C133 C 0.20861 0.7662 0.24418 0.0
N134 N 0.18697 0.79942 0.21646 0.0
N135 N 0.13762 0.79557 0.27497 0.0
C136 C 0.14445 0.81705 0.2358 0.0
H137 H 0.18317 0.73832 0.30747 0.0
Co138 Co 0.07999 0.79606 0.30973 0.0
C139 C 1.01042 0.8625 0.25545 0.0
O140 O 1.00409 0.89613 0.2863 0.0
N141 N 0.02173 0.79534 0.34499 0.0
C142 C 0.95761 0.76398 0.38461 0.0
C143 C 0.97993 0.76465 0.34423 0.0
C144 C 0.02166 0.81509 0.38482 0.0
N145 N 0.98515 0.79509 0.41002 0.0
O146 O 0.09879 0.86391 0.33236 0.0
H147 H 0.97015 0.73915 0.31821 0.0
H148 H 0.05093 0.8396 0.39714 0.0
O149 O 0.03895 0.82348 0.26183 0.0
C150 C 0.13699 0.86315 0.35862 0.0
O151 O 0.16515 0.8216 0.36083 0.0
N152 N 0.06654 0.72865 0.29267 0.0
C153 C 0.05955 0.62405 0.27697 0.0
C154 C 0.04782 0.65964 0.24439 0.0
C155 C 0.05191 0.71217 0.25282 0.0
C156 C 0.07818 0.69437 0.32446 0.0
C157 C 0.07461 0.64186 0.31742 0.0
H158 H 0.04477 0.73923 0.22707 0.0
H159 H 0.09129 0.70817 0.35534 0.0
H160 H 0.11724 0.84227 0.22019 0.0
H161 H 0.24202 0.74299 0.23754 0.0
H162 H 0.92809 0.73797 0.39572 0.0
H163 H 0.0369 0.64687 0.21255 0.0
H164 H 0.08456 0.61531 0.34303 0.0
C165 C 0.26389 0.17356 0.52681 0.0
C166 C 0.26271 0.20369 0.49035 0.0
N167 N 0.22897 0.18273 0.46295 0.0
N168 N 0.23147 0.1338 0.52181 0.0
C169 C 0.20992 0.14102 0.48285 0.0
H170 H 0.28898 0.17848 0.55421 0.0
Co171 Co 0.22828 0.07946 0.5597 0.0
C172 C 0.20844 0.99327 0.49506 0.0
O173 O 0.24929 0.96812 0.50785 0.0
N174 N 0.22592 0.02732 0.60077 0.0
C175 C 0.21626 0.9617 0.64643 0.0
C176 C 0.21405 0.97699 0.60368 0.0
C177 C 0.23498 0.0413 0.64172 0.0
N178 N 0.22962 1.00274 0.66974 0.0
O179 O 0.16049 0.10144 0.57889 0.0
H180 H 0.20336 0.95281 0.57729 0.0
H181 H 0.24535 0.07955 0.65129 0.0
O182 O 0.19609 0.03535 0.51364 0.0
C183 C 0.16258 0.13524 0.60851 0.0
O184 O 0.20769 0.15463 0.61775 0.0
N185 N 0.29688 0.0618 0.54437 0.0
C186 C 0.40205 0.05696 0.52706 0.0
C187 C 0.36629 0.05301 0.49362 0.0
C188 C 0.31383 0.05633 0.50293 0.0
C189 C 0.33179 0.06609 0.57699 0.0
C190 C 0.38435 0.0631 0.56915 0.0
H191 H 0.28716 0.05693 0.47661 0.0
H192 H 0.31953 0.07514 0.60914 0.0
H193 H 0.18262 0.11523 0.46837 0.0
H194 H 0.28665 0.23654 0.48339 0.0
H195 H 0.20764 0.92414 0.65943 0.0
H196 H 0.37887 0.04968 0.46049 0.0
H197 H 0.41107 0.06776 0.59555 0.0
C198 C 0.86808 0.17328 0.76497 0.0
C199 C 0.84092 0.17079 0.72731 0.0
N200 N 0.85146 0.21298 0.7044 0.0
N201 N 0.89617 0.21695 0.76615 0.0
C202 C 0.88397 0.24063 0.72849 0.0
H203 H 0.86909 0.14266 0.7882 0.0
Co204 Co 0.94802 0.23263 0.80774 0.0
C205 C 1.01277 0.2177 0.72816 0.0
O206 O 0.99058 0.25799 0.71119 0.0
N207 N 0.99722 0.24587 0.84839 0.0
C208 C 0.0609 0.23533 0.89486 0.0
C209 C 0.04557 0.22825 0.8528 0.0
C210 C 0.9845 0.2645 0.88708 0.0
N211 N 0.02159 0.25676 0.91639 0.0
O212 O 0.93729 0.16623 0.83743 0.0
H213 H 0.06627 0.20696 0.82862 0.0
H214 H 0.94667 0.27868 0.89457 0.0
O215 O 1.00105 0.20337 0.76679 0.0
C216 C 0.90038 0.16778 0.86495 0.0
O217 O 0.8699 0.20781 0.86382 0.0
N218 N 0.95605 0.30098 0.78638 0.0
C219 C 0.96452 0.4066 0.77024 0.0
C220 C 0.91645 0.38344 0.77586 0.0
C221 C 0.91329 0.33116 0.78573 0.0
C222 C 1.00326 0.32329 0.78222 0.0
C223 C 1.00832 0.37582 0.77412 0.0
H224 H 0.87628 0.31465 0.79308 0.0
H225 H 0.03747 0.30075 0.78662 0.0
H226 H 0.9009 0.27574 0.71688 0.0
H227 H 0.81846 0.13869 0.71606 0.0
H228 H 0.0953 0.22014 0.90964 0.0
H229 H 0.88169 0.40601 0.77419 0.0
H230 H 0.04621 0.39241 0.77138 0.0
C231 C 0.77534 0.84928 0.03171 0.0
C232 C 0.77903 0.81821 0.99629 0.0
N233 N 0.81071 0.84122 0.96811 0.0
N234 N 0.80422 0.89146 0.02521 0.0
C235 C 0.82609 0.88506 0.98642 0.0
H236 H 0.75103 0.84306 0.05948 0.0
Co237 Co 0.80366 0.94579 0.06199 0.0
C238 C 0.81777 0.03233 0.99574 0.0
O239 O 0.77371 0.05345 0.00558 0.0
N240 N 0.80223 0.99745 0.10208 0.0
C241 C 0.79639 0.0619 0.14856 0.0
C242 C 0.79971 0.04902 0.10543 0.0
C243 C 0.80015 0.98033 0.14288 0.0
N244 N 0.79647 0.01805 0.17136 0.0
O245 O 0.87315 0.9292 0.08117 0.0
H246 H 0.79866 0.07576 0.07898 0.0
H247 H 0.79878 0.94036 0.15174 0.0
O248 O 0.83297 0.99213 0.01605 0.0
C249 C 0.87807 0.89262 0.10839 0.0
O250 O 0.83731 0.86467 0.11663 0.0
N251 N 0.73417 0.95905 0.04649 0.0
C252 C 0.62887 0.96558 0.03047 0.0
C253 C 0.66403 0.96643 0.99633 0.0
C254 C 0.71661 0.96229 0.00502 0.0
C255 C 0.69985 0.95658 0.07973 0.0
C256 C 0.64724 0.96053 0.07251 0.0
H257 H 0.74311 0.96078 0.9784 0.0
H258 H 0.71277 0.94952 0.11219 0.0
H259 H 0.85084 0.91275 0.97093 0.0
H260 H 0.75799 0.78323 0.99048 0.0
H261 H 0.79319 0.0999 0.16199 0.0
H262 H 0.65087 0.96893 0.96328 0.0
H263 H 0.62097 0.95825 0.0995 0.0
C264 C 0.10611 0.54272 0.25938 0.0
C265 C 0.05923 0.56801 0.26849 0.0
C266 C 1.01284 0.48655 0.26225 0.0
C267 C 0.06013 0.46088 0.25572 0.0
N268 N 0.15242 0.46235 0.25496 0.0
N269 N 0.96906 0.56402 0.28476 0.0
C270 C 0.107 0.4884 0.25636 0.0
C271 C 1.01283 0.5399 0.27168 0.0
N272 N 0.14953 0.57086 0.25231 0.0
N273 N 0.96789 0.46015 0.25819 0.0
H274 H 0.96744 0.6032 0.29093 0.0
H275 H 0.93527 0.54487 0.29238 0.0
H276 H 0.96653 0.42082 0.2527 0.0
H277 H 0.93201 0.47753 0.25755 0.0
H278 H 0.18362 0.55538 0.24085 0.0
H279 H 0.15051 0.61068 0.25459 0.0
H280 H 0.18793 0.47943 0.25995 0.0
H281 H 0.15452 0.4226 0.25237 0.0
C282 C 0.54105 0.0162 0.50899 0.0
C283 C 0.56503 0.06467 0.50382 0.0
C284 C 0.48165 0.10753 0.51067 0.0
C285 C 0.45806 0.05926 0.51803 0.0
N286 N 0.46497 0.96832 0.52962 0.0
N287 N 0.56039 0.15673 0.50516 0.0
C288 C 0.48772 1.01373 0.51872 0.0
C289 C 0.53592 0.11044 0.50631 0.0
N290 N 0.56919 0.97253 0.5036 0.0
N291 N 0.4519 0.15043 0.50679 0.0
H292 H 0.59984 0.16038 0.50079 0.0
H293 H 0.54246 0.19142 0.5116 0.0
H294 H 0.41222 0.15007 0.51084 0.0
H295 H 0.46573 0.18584 0.49662 0.0
H296 H 0.55326 0.93611 0.50179 0.0
H297 H 0.60869 0.97282 0.49845 0.0
H298 H 0.4851 0.93463 0.53552 0.0
H299 H 0.42575 0.96487 0.53549 0.0
C300 C 0.94257 0.55104 0.77888 0.0
C301 C 0.97477 0.5704 0.74557 0.0
C302 C 0.99593 0.48202 0.72546 0.0
C303 C 0.96902 0.46315 0.7621 0.0
N304 N 0.92908 0.48262 0.83038 0.0
N305 N 0.04252 0.55337 0.69454 0.0
C306 C 0.94604 0.49854 0.79088 0.0
C307 C 1.00466 0.53557 0.72107 0.0
N308 N 0.90675 0.58179 0.79772 0.0
N309 N 1.01125 0.44933 0.69376 0.0
H310 H 0.0517 0.59211 0.69187 0.0
H311 H 0.06834 0.52926 0.679 0.0
H312 H 1.00344 0.4102 0.69449 0.0
H313 H 0.02673 0.46198 0.66462 0.0
H314 H 0.87945 0.5679 0.81935 0.0
H315 H 0.90041 0.6196 0.78824 0.0
H316 H 0.91625 0.50796 0.85387 0.0
H317 H 0.93332 0.4451 0.84146 0.0
C318 C 0.49052 0.92104 0.01739 0.0
C319 C 0.4651 0.96841 0.0104 0.0
C320 C 0.54664 1.01435 0.01911 0.0
C321 C 0.57258 0.96673 0.02254 0.0
N322 N 0.57106 0.87457 0.02022 0.0
N323 N 0.46841 0.05988 1.00063 0.0
C324 C 0.54496 0.91998 0.02051 0.0
C325 C 0.49304 0.01505 0.01027 0.0
N326 N 0.4624 0.8771 0.02154 0.0
N327 N 0.57316 0.05884 0.02531 0.0
H328 H 0.42889 0.06214 0.99598 0.0
H329 H 0.48723 0.09435 0.99483 0.0
H330 H 0.61261 0.05979 0.03062 0.0
H331 H 0.55585 0.09456 0.02804 0.0
H332 H 0.47775 0.84217 0.03135 0.0
H333 H 0.42264 0.87618 0.01833 0.0
H334 H 0.55403 0.83938 0.01398 0.0
H335 H 0.61081 0.87223 0.02309 0.0
C336 C 0.24916 0.16835 0.38661 0.0
C337 C 0.22218 0.19598 0.41852 0.0
C338 C 0.18146 0.24849 0.36316 0.0
C339 C 0.20356 0.21679 0.3313 0.0
N340 N 0.25453 0.14432 0.31131 0.0
N341 N 0.15992 0.25896 0.4387 0.0
C342 C 0.2366 0.17614 0.34263 0.0
C343 C 0.18764 0.23536 0.40722 0.0
N344 N 0.28752 0.13575 0.39858 0.0
N345 N 0.15562 0.29162 0.35097 0.0
H346 H 0.16463 0.25026 0.47133 0.0
H347 H 0.13014 0.28446 0.43245 0.0
H348 H 0.1523 0.30272 0.31878 0.0
H349 H 0.14167 0.31862 0.37254 0.0
H350 H 0.31156 0.11738 0.37681 0.0
H351 H 0.29808 0.13048 0.43068 0.0
H352 H 0.27446 0.11061 0.31774 0.0
H353 H 0.24646 0.15017 0.27871 0.0
C354 C 0.87081 0.21339 0.58474 0.0
C355 C 0.81938 0.21424 0.57108 0.0
C356 C 0.79143 0.22929 0.64508 0.0
C357 C 0.8418 0.21904 0.65922 0.0
N358 N 0.92787 0.19181 0.64299 0.0
N359 N 0.7293 0.21848 0.58796 0.0
C360 C 0.8815 0.20942 0.62918 0.0
C361 C 0.7791 0.22199 0.60101 0.0
N362 N 0.9091 0.21423 0.55478 0.0
N363 N 0.75555 0.24503 0.67411 0.0
H364 H 0.71887 0.21231 0.55602 0.0
H365 H 0.69842 0.21816 0.60923 0.0
H366 H 0.76418 0.24992 0.70669 0.0
H367 H 0.719 0.25725 0.66535 0.0
H368 H 0.94772 0.21751 0.56278 0.0
H369 H 0.90145 0.21667 0.5218 0.0
H370 H 0.9568 0.17972 0.62226 0.0
H371 H 0.93518 0.18381 0.67523 0.0
C372 C 0.85751 0.7932 0.91324 0.0
C373 C 0.81803 0.82767 0.92409 0.0
C374 C 0.79915 0.84336 0.84817 0.0
C375 C 0.83729 0.80742 0.83737 0.0
N376 N 0.89701 0.74153 0.85772 0.0
N377 N 0.7453 0.87904 0.90409 0.0
C378 C 0.8648 0.78023 0.86945 0.0
C379 C 0.78692 0.85083 0.89211 0.0
N380 N 0.88867 0.7743 0.94489 0.0
N381 N 0.77604 0.87123 0.81628 0.0
H382 H 0.73523 0.88427 0.93626 0.0
H383 H 0.71852 0.89371 0.88247 0.0
H384 H 0.78403 0.86552 0.7837 0.0
H385 H 0.75159 0.90192 0.82202 0.0
H386 H 0.92159 0.753 0.93891 0.0
H387 H 0.88312 0.78277 0.97739 0.0
H388 H 0.91527 0.71732 0.87959 0.0
H389 H 0.90239 0.73105 0.82567 0.0
C390 C 0.25311 0.84729 0.11695 0.0
C391 C 0.22121 0.82578 0.08491 0.0
C392 C 0.17178 0.7806 0.13997 0.0
C393 C 0.20015 0.80653 0.17206 0.0
N394 N 0.26402 0.86766 0.19262 0.0
N395 N 0.14846 0.77554 0.06434 0.0
C396 C 0.24004 0.84061 0.16096 0.0
C397 C 0.18011 0.79315 0.09599 0.0
N398 N 0.29629 0.87321 0.10499 0.0
N399 N 0.13779 0.74336 0.15185 0.0
H400 H 0.15482 0.78351 0.03177 0.0
H401 H 0.11457 0.75576 0.07033 0.0
H402 H 0.13165 0.73312 0.18396 0.0
H403 H 0.11878 0.71993 0.13007 0.0
H404 H 0.32351 0.88659 0.12667 0.0
H405 H 0.30713 0.87744 0.07285 0.0
H406 H 0.28989 0.89716 0.18659 0.0
H407 H 0.25525 0.86276 0.2252 0.0
C408 C 0.99759 0.20443 0.0277 0.0
C409 C 0.98909 0.25053 0.0503 0.0
C410 C 1.00595 0.3006 0.98498 0.0
C411 C 1.01255 0.2545 0.96198 0.0
N412 N 1.00439 0.16253 0.95866 0.0
N413 N 0.9789 0.34157 0.05143 0.0
C414 C 1.00565 0.20629 0.98257 0.0
C415 C 0.99116 0.29844 0.02902 0.0
N416 N 1.00018 0.15913 0.04986 0.0
N417 N 1.01538 0.34615 0.96465 0.0
H418 H 0.96816 0.34025 0.08384 0.0
H419 H 0.97589 0.37781 0.03762 0.0
H420 H 0.02666 0.34824 0.93241 0.0
H421 H 1.01531 0.38142 0.98002 0.0
H422 H 1.01227 0.12487 0.03624 0.0
H423 H 0.99388 0.15631 0.08294 0.0
H424 H 0.99505 0.12673 0.97126 0.0
H425 H 1.00724 0.16237 0.92521 0.0
C426 C 0.83766 0.99844 0.2399 0.0
C427 C 0.79262 1.00986 0.21677 0.0
C428 C 0.74042 0.98936 0.28001 0.0
C429 C 0.78595 0.98087 0.30386 0.0
N430 N 0.8793 0.97905 0.30576 0.0
N431 N 0.70103 1.01 0.21091 0.0
C432 C 0.83462 0.98467 0.28363 0.0
C433 C 0.74376 1.00361 0.23579 0.0
N434 N 0.88421 1.00203 0.22012 0.0
N435 N 0.69432 0.98516 0.3006 0.0
H436 H 0.703 0.02138 0.17866 0.0
H437 H 0.66386 1.00271 0.22129 0.0
H438 H 0.69142 0.97221 0.33241 0.0
H439 H 0.65924 0.99484 0.28696 0.0
H440 H 0.91854 0.99334 0.2358 0.0
H441 H 0.88817 0.01485 0.18842 0.0
H442 H 0.88187 0.97121 0.33865 0.0
H443 H 0.88187 0.97121 0.33865 0.0
C444 C 0.03315 0.75551 0.51921 0.0
C445 C 0.02236 0.80059 0.54224 0.0
C446 C 0.97677 0.83627 0.48009 0.0
C447 C 0.99082 0.79285 0.45595 0.0
N448 N 0.03953 0.71459 0.44981 0.0
N449 N 0.98997 0.88641 0.54473 0.0
C450 C 0.02075 0.75314 0.47482 0.0
C451 C 0.99582 0.8418 0.52262 0.0
N452 N 0.05418 0.7146 0.54033 0.0
N453 N 0.94498 0.87187 0.46193 0.0
H454 H 1.00449 0.89112 0.57575 0.0
H455 H 0.97467 0.9197 0.53142 0.0
H456 H 0.93092 0.86805 0.43061 0.0
H457 H 0.92946 0.90266 0.4786 0.0
H458 H 0.05761 0.67838 0.5268 0.0
H459 H 0.06533 0.71627 0.57259 0.0
H460 H 0.06667 0.68824 0.46054 0.0
H461 H 0.03066 0.7107 0.41732 0.0
C462 C 0.28282 1.0114 0.73432 0.0
C463 C 0.23364 1.00828 0.71549 0.0
C464 C 0.1935 0.02892 0.78431 0.0
C465 C 0.24281 0.03544 0.80261 0.0
N466 N 0.33419 0.03812 0.79559 0.0
N467 N 0.14292 0.02217 0.7194 0.0
C468 C 0.28752 0.02824 0.77759 0.0
C469 C 0.18921 0.01965 0.73961 0.0
N470 N 0.32464 0.99774 0.71054 0.0
N471 N 0.15107 0.02778 0.81011 0.0
H472 H 0.13831 1.0113 0.68741 0.0
H473 H 0.10997 0.03676 0.73379 0.0
H474 H 0.15253 0.03272 0.84334 0.0
H475 H 0.1149 0.01721 0.79914 0.0
H476 H 0.36165 0.99537 0.72281 0.0
H477 H 0.32156 0.98539 0.67872 0.0
H478 H 0.36862 0.03724 0.77871 0.0
H479 H 0.33795 0.05083 0.82726 0.0
C480 C 0.16144 0.08033 0.1262 0.0
C481 C 0.13877 0.12633 0.11041 0.0
C482 C 0.14591 0.09253 0.03652 0.0
C483 C 0.17801 0.05288 0.05129 0.0
N484 N 0.21389 1.00547 0.1105 0.0
N485 N 0.11487 0.17786 0.04833 0.0
C486 C 0.18443 0.04531 0.09638 0.0
C487 C 0.13207 0.13262 0.06498 0.0
N488 N 0.16228 0.07079 0.16952 0.0
N489 N 0.12829 0.09169 0.99513 0.0
H490 H 0.10208 0.20775 0.06727 0.0
H491 H 0.11618 0.18671 0.01555 0.0
H492 H 0.13575 0.06103 0.97467 0.0
H493 H 0.10144 0.11764 0.98319 0.0
H494 H 0.17398 0.03613 0.18297 0.0
H495 H 0.14782 0.09636 0.19212 0.0
H496 H 0.2258 1.00071 0.14228 0.0
H497 H 0.22737 0.97744 0.08963 0.0
C498 C 0.93894 0.14085 0.28453 0.0
C499 C 0.97694 0.17454 0.29953 0.0
C500 C 0.9494 0.15642 0.37443 0.0
C501 C 0.90502 0.13113 0.35852 0.0
N502 N 0.85622 0.10296 0.29674 0.0
N503 N 0.02223 0.21203 0.3588 0.0
C504 C 0.89984 0.12385 0.31312 0.0
C505 C 0.98376 0.18101 0.34465 0.0
N506 N 0.94033 0.12495 0.24271 0.0
N507 N 0.95789 0.15824 0.41783 0.0
H508 H 0.04988 0.22681 0.33796 0.0
H509 H 0.02634 0.22391 0.39055 0.0
H510 H 0.93276 0.14242 0.44034 0.0
H511 H 0.9914 0.17219 0.43159 0.0
H512 H 0.91521 0.09808 0.23003 0.0
H513 H 0.97041 0.13443 0.22203 0.0
H514 H 0.84652 0.10493 0.2642 0.0
H515 H 0.82828 0.08626 0.31592 0.0
C516 C 0.8797 0.98369 0.57463 0.0
C517 C 0.83577 0.96694 0.55067 0.0
C518 C 0.826 0.89677 0.60255 0.0
C519 C 0.87427 0.90627 0.62145 0.0
N520 N 0.94994 0.9601 0.62239 0.0
N521 N 0.78553 0.89127 0.53382 0.0
C522 C 0.90198 0.95039 0.60696 0.0
C523 C 0.81438 0.91868 0.56222 0.0
N524 N 0.90042 0.03087 0.56741 0.0
N525 N 0.79086 0.86631 0.62278 0.0
H526 H 0.78231 0.90122 0.50137 0.0
H527 H 0.7717 0.85476 0.54118 0.0
H528 H 0.79638 0.85257 0.65412 0.0
H529 H 0.75419 0.86053 0.61031 0.0
H530 H 0.92691 0.04755 0.58816 0.0
H531 H 0.89018 0.05443 0.54189 0.0
H532 H 0.97421 0.98745 0.60883 0.0
H533 H 0.96717 0.93898 0.64685 0.0
C534 C 0.05252 0.85002 0.84021 0.0
C535 C 0.06422 0.85599 0.79568 0.0
C536 C 0.14649 0.89461 0.81454 0.0
C537 C 0.13525 0.88999 0.85955 0.0
N538 N 0.07246 0.87177 0.91462 0.0
N539 N 0.11197 0.90141 0.74218 0.0
C540 C 0.08623 0.87111 0.87216 0.0
C541 C 0.10784 0.8842 0.78361 0.0
N542 N 1.01055 0.82218 0.85201 0.0
N543 N 0.19454 0.90703 0.80073 0.0
H544 H 0.08098 0.89987 0.72104 0.0
H545 H 0.14287 0.92244 0.7306 0.0
H546 H 0.22428 0.916 0.82129 0.0
H547 H 0.20612 0.90433 0.76869 0.0
H548 H 1.00278 0.8108 0.88355 0.0
H549 H 0.98439 0.80867 0.82952 0.0
H550 H 0.03569 0.86317 0.92545 0.0
H551 H 0.09684 0.8845 0.93888 0.0
C552 C 0.13961 0.88806 0.43762 0.0
C553 C 0.14422 0.90254 0.39324 0.0
C554 C 0.18205 0.98451 0.41611 0.0
C555 C 0.1763 0.96987 0.46014 0.0
N556 N 0.13078 0.91774 0.51108 0.0
N557 N 0.15963 0.96939 0.34104 0.0
C558 C 0.14883 0.92489 0.47021 0.0
C559 C 0.16149 0.95268 0.3828 0.0
N560 N 0.12869 0.83869 0.4493 0.0
N561 N 0.20927 0.02744 0.40598 0.0
H562 H 0.14658 0.94649 0.31591 0.0
H563 H 0.16712 1.00704 0.33185 0.0
H564 H 0.2228 0.05219 0.42942 0.0
H565 H 0.22039 0.03719 0.37476 0.0
H566 H 0.13062 0.82571 0.48108 0.0
H567 H 0.12157 0.80943 0.4275 0.0
H568 H 0.10688 0.88744 0.51978 0.0
H569 H 0.13405 0.94608 0.53444 0.0
C570 C 0.08055 0.12105 0.65368 0.0
C571 C 0.11714 0.15427 0.63373 0.0
C572 C 0.09071 0.22357 0.68183 0.0
C573 C 0.05268 0.19197 0.70096 0.0
N574 N 1.00627 0.11227 0.70106 0.0
N575 N 0.14144 0.24134 0.61842 0.0
C576 C 0.04617 0.14099 0.68579 0.0
C577 C 0.11727 0.20679 0.64471 0.0
N578 N 0.07883 0.07059 0.64257 0.0
N579 N 0.10272 0.26955 0.69994 0.0
H580 H 0.1586 0.23077 0.5894 0.0
H581 H 0.13888 0.2808 0.62264 0.0
H582 H 0.08578 0.28234 0.72825 0.0
H583 H 0.13349 0.29196 0.68971 0.0
H584 H 0.05637 0.0434 0.65828 0.0
H585 H 0.10158 0.0547 0.61864 0.0
H586 H 0.99503 0.07747 0.688 0.0
H587 H 0.982 0.12477 0.72552 0.0
C588 C 0.88076 0.07584 0.88925 0.0
C589 C 0.89125 0.12788 0.89964 0.0
C590 C 0.87176 0.10746 0.97575 0.0
C591 C 0.85132 0.05967 0.96383 0.0
N592 N 0.83192 0.99951 0.90768 0.0
N593 N 0.89077 0.19392 0.95448 0.0
C594 C 0.8552 0.04376 0.9202 0.0
C595 C 0.88506 0.14379 0.94339 0.0
N596 N 0.89417 0.05706 0.8499 0.0
N597 N 0.87931 0.11788 0.01835 0.0
H598 H 0.90476 0.22165 0.93361 0.0
H599 H 0.87958 0.20842 0.98425 0.0
H600 H 0.8735 0.09036 0.04231 0.0
H601 H 0.89704 0.15102 0.02934 0.0
H602 H 0.89138 0.01844 0.84206 0.0
H603 H 0.91301 0.07885 0.82664 0.0
H604 H 0.82838 0.9885 0.87561 0.0
H605 H 0.81254 0.97577 0.92926 0.0
C606 C 0.98818 0.91579 0.18916 0.0
C607 C 0.98341 0.8693 0.21302 0.0
C608 C 0.93127 0.83459 0.15426 0.0
C609 C 0.92501 0.88417 0.13617 0.0
N610 N 0.95501 0.97199 0.13321 0.0
N611 N 0.94422 0.78575 0.21946 0.0
C612 C 0.95609 0.9248 0.1523 0.0
C613 C 0.95388 0.82875 0.1956 0.0
N614 N 0.02489 0.95043 0.20068 0.0
N615 N 0.91597 0.79275 0.13146 0.0
H616 H 0.95708 0.78093 0.25094 0.0
H617 H 0.9188 0.75736 0.20962 0.0
H618 H 0.90176 0.79586 0.10009 0.0
H619 H 0.92333 0.75532 0.1415 0.0
H620 H 0.03418 0.98264 0.18239 0.0
H621 H 0.04976 0.94444 0.22652 0.0
H622 H 0.97028 1.00465 0.14735 0.0
H623 H 0.93892 0.97913 0.10318 0.0
loop_
_geom_bond_atom_site_label_1
_geom_bond_atom_site_label_2
_geom_bond_distance
_geom_bond_site_symmetry_2
_ccdc_geom_bond_type
C0 C1 1.351 . S
C0 N3 1.368 . S
C0 H5 0.931 . S
C1 C0 1.351 . S
C1 N2 1.373 . S
C1 H29 0.930 . S
N2 C1 1.373 . S
N2 C4 1.340 . S
N3 C0 1.368 . S
N3 C4 1.321 . S
N3 Co6 2.135 . S
C4 N2 1.340 . S
C4 N3 1.321 . S
C4 H28 0.930 . S
H5 C0 0.931 . S
Co6 N3 2.135 . S
Co6 N9 2.121 . S
Co6 O14 2.055 . S
Co6 O17 2.039 . S
Co6 N20 2.140 . S
C7 O8 1.227 1_655 S
C7 O17 1.265 1_655 S
O8 C7 1.227 1_455 S
N9 Co6 2.121 . S
N9 C11 1.375 1_455 S
N9 C12 1.313 . S
C10 C11 1.338 . S
C10 N13 1.377 . S
C10 H30 0.930 . S
C11 N9 1.375 1_655 S
C11 C10 1.338 . S
C11 H15 0.931 . S
C12 N9 1.313 . S
C12 N13 1.344 1_455 S
C12 H16 0.930 . S
N13 C10 1.377 . S
N13 C12 1.344 1_655 S
O14 Co6 2.055 . S
O14 C18 1.253 . S
H15 C11 0.931 . S
H16 C12 0.930 . S
O17 Co6 2.039 . S
O17 C7 1.265 1_455 S
C18 O14 1.253 . S
C18 O19 1.227 . S
O19 C18 1.227 . S
N20 Co6 2.140 . S
N20 C23 1.346 . S
N20 C24 1.345 . S
C21 C22 1.387 . S
C21 C25 1.391 . S
C22 C21 1.387 . S
C22 C23 1.369 . S
C22 H31 0.929 . S
C23 N20 1.346 . S
C23 C22 1.369 . S
C23 H26 0.928 . S
C24 N20 1.345 . S
C24 C25 1.371 . S
C24 H27 0.931 . S
C25 C21 1.391 . S
C25 C24 1.371 . S
C25 H32 0.930 . S
H26 C23 0.928 . S
H27 C24 0.931 . S
H28 C4 0.930 . S
H29 C1 0.930 . S
H30 C10 0.930 . S
H31 C22 0.929 . S
H32 C25 0.930 . S
C33 C34 1.351 . S
C33 N36 1.368 . S
C33 H38 0.931 . S
C34 C33 1.351 . S
C34 N35 1.373 . S
C34 H62 0.930 . S
N35 C34 1.373 . S
N35 C37 1.340 . S
N36 C33 1.368 . S
N36 C37 1.321 . S
N36 Co39 2.135 . S
C37 N35 1.340 . S
C37 N36 1.321 . S
C37 H61 0.930 . S
H38 C33 0.931 . S
Co39 N36 2.135 . S
Co39 N42 2.121 . S
Co39 O47 2.055 . S
Co39 O50 2.039 . S
Co39 N53 2.140 . S
C40 O41 1.227 1_565 S
C40 O50 1.265 1_565 S
O41 C40 1.227 1_545 S
N42 Co39 2.121 . S
N42 C44 1.375 1_545 S
N42 C45 1.313 . S
C43 C44 1.338 . S
C43 N46 1.377 . S
C43 H63 0.930 . S
C44 N42 1.375 1_565 S
C44 C43 1.338 . S
C44 H48 0.931 . S
C45 N42 1.313 . S
C45 N46 1.344 1_545 S
C45 H49 0.930 . S
N46 C43 1.377 . S
N46 C45 1.344 1_565 S
O47 Co39 2.055 . S
O47 C51 1.253 . S
H48 C44 0.931 . S
H49 C45 0.930 . S
O50 Co39 2.039 . S
O50 C40 1.265 1_545 S
C51 O47 1.253 . S
C51 O52 1.227 . S
O52 C51 1.227 . S
N53 Co39 2.140 . S
N53 C56 1.346 . S
N53 C57 1.345 . S
C54 C55 1.387 . S
C54 C58 1.391 . S
C55 C54 1.387 . S
C55 C56 1.369 . S
C55 H64 0.929 . S
C56 N53 1.346 . S
C56 C55 1.369 . S
C56 H59 0.928 . S
C57 N53 1.345 . S
C57 C58 1.371 . S
C57 H60 0.931 . S
C58 C54 1.391 . S
C58 C57 1.371 . S
C58 H65 0.930 . S
H59 C56 0.928 . S
H60 C57 0.931 . S
H61 C37 0.930 . S
H62 C34 0.930 . S
H63 C43 0.930 . S
H64 C55 0.929 . S
H65 C58 0.930 . S
C66 C67 1.351 . S
C66 N69 1.368 . S
C66 H71 0.931 . S
C67 C66 1.351 . S
C67 N68 1.373 . S
C67 H95 0.930 . S
N68 C67 1.373 . S
N68 C70 1.340 . S
N69 C66 1.368 . S
N69 C70 1.321 . S
N69 Co72 2.135 . S
C70 N68 1.340 . S
C70 N69 1.321 . S
C70 H94 0.930 . S
H71 C66 0.931 . S
Co72 N69 2.135 . S
Co72 N75 2.121 . S
Co72 O80 2.055 . S
Co72 O83 2.039 . S
Co72 N86 2.140 . S
C73 O74 1.227 1_455 S
C73 O83 1.265 1_455 S
O74 C73 1.227 1_655 S
N75 Co72 2.121 . S
N75 C77 1.375 1_655 S
N75 C78 1.313 . S
C76 C77 1.338 . S
C76 N79 1.377 . S
C76 H96 0.930 . S
C77 N75 1.375 1_455 S
C77 C76 1.338 . S
C77 H81 0.931 . S
C78 N75 1.313 . S
C78 N79 1.344 1_655 S
C78 H82 0.930 . S
N79 C76 1.377 . S
N79 C78 1.344 1_455 S
O80 Co72 2.055 . S
O80 C84 1.253 . S
H81 C77 0.931 . S
H82 C78 0.930 . S
O83 Co72 2.039 . S
O83 C73 1.265 1_655 S
C84 O80 1.253 . S
C84 O85 1.227 . S
O85 C84 1.227 . S
N86 Co72 2.140 . S
N86 C89 1.346 . S
N86 C90 1.345 . S
C87 C88 1.387 . S
C87 C91 1.391 . S
C88 C87 1.387 . S
C88 C89 1.369 . S
C88 H97 0.929 . S
C89 N86 1.346 . S
C89 C88 1.369 . S
C89 H92 0.928 . S
C90 N86 1.345 . S
C90 C91 1.371 . S
C90 H93 0.931 . S
C91 C87 1.391 . S
C91 C90 1.371 . S
C91 H98 0.930 . S
H92 C89 0.928 . S
H93 C90 0.931 . S
H94 C70 0.930 . S
H95 C67 0.930 . S
H96 C76 0.930 . S
H97 C88 0.929 . S
H98 C91 0.930 . S
C99 C100 1.351 1_556 S
C99 N102 1.368 . S
C99 H104 0.931 . S
C100 C99 1.351 1_554 S
C100 N101 1.373 . S
C100 H128 0.930 . S
N101 C100 1.373 . S
N101 C103 1.340 . S
N102 C99 1.368 . S
N102 C103 1.321 1_556 S
N102 Co105 2.135 . S
C103 N101 1.340 . S
C103 N102 1.321 1_554 S
C103 H127 0.930 . S
H104 C99 0.931 . S
Co105 N102 2.135 . S
Co105 N108 2.121 . S
Co105 O113 2.055 . S
Co105 O116 2.039 . S
Co105 N119 2.140 . S
C106 O107 1.227 1_545 S
C106 O116 1.265 1_544 S
O107 C106 1.227 1_565 S
N108 Co105 2.121 . S
N108 C110 1.375 1_565 S
N108 C111 1.313 . S
C109 C110 1.338 . S
C109 N112 1.377 . S
C109 H129 0.930 . S
C110 N108 1.375 1_545 S
C110 C109 1.338 . S
C110 H114 0.931 . S
C111 N108 1.313 . S
C111 N112 1.344 1_565 S
C111 H115 0.930 . S
N112 C109 1.377 . S
N112 C111 1.344 1_545 S
O113 Co105 2.055 . S
O113 C117 1.253 . S
H114 C110 0.931 . S
H115 C111 0.930 . S
O116 Co105 2.039 . S
O116 C106 1.265 1_566 S
C117 O113 1.253 . S
C117 O118 1.227 . S
O118 C117 1.227 . S
N119 Co105 2.140 . S
N119 C122 1.346 . S
N119 C123 1.345 . S
C120 C121 1.387 1_556 S
C120 C124 1.391 . S
C121 C120 1.387 1_554 S
C121 C122 1.369 1_554 S
C121 H130 0.929 . S
C122 N119 1.346 . S
C122 C121 1.369 1_556 S
C122 H125 0.928 1_556 S
C123 N119 1.345 . S
C123 C124 1.371 . S
C123 H126 0.931 . S
C124 C120 1.391 . S
C124 C123 1.371 . S
C124 H131 0.930 . S
H125 C122 0.928 1_554 S
H126 C123 0.931 . S
H127 C103 0.930 . S
H128 C100 0.930 . S
H129 C109 0.930 . S
H130 C121 0.929 . S
H131 C124 0.930 . S
C132 C133 1.351 . S
C132 N135 1.368 . S
C132 H137 0.931 . S
C133 C132 1.351 . S
C133 N134 1.373 . S
C133 H161 0.930 . S
N134 C133 1.373 . S
N134 C136 1.340 . S
N135 C132 1.368 . S
N135 C136 1.321 . S
N135 Co138 2.135 . S
C136 N134 1.340 . S
C136 N135 1.321 . S
C136 H160 0.930 . S
H137 C132 0.931 . S
Co138 N135 2.135 . S
Co138 N141 2.121 . S
Co138 O146 2.055 . S
Co138 O149 2.039 . S
Co138 N152 2.140 . S
C139 O140 1.227 1_655 S
C139 O149 1.265 1_655 S
O140 C139 1.227 1_455 S
N141 Co138 2.121 . S
N141 C143 1.375 1_455 S
N141 C144 1.313 . S
C142 C143 1.338 . S
C142 N145 1.377 . S
C142 H162 0.930 . S
C143 N141 1.375 1_655 S
C143 C142 1.338 . S
C143 H147 0.931 . S
C144 N141 1.313 . S
C144 N145 1.344 1_455 S
C144 H148 0.930 . S
N145 C142 1.377 . S
N145 C144 1.344 1_655 S
O146 Co138 2.055 . S
O146 C150 1.253 . S
H147 C143 0.931 . S
H148 C144 0.930 . S
O149 Co138 2.039 . S
O149 C139 1.265 1_455 S
C150 O146 1.253 . S
C150 O151 1.227 . S
O151 C150 1.227 . S
N152 Co138 2.140 . S
N152 C155 1.346 . S
N152 C156 1.345 . S
C153 C154 1.387 . S
C153 C157 1.391 . S
C154 C153 1.387 . S
C154 C155 1.369 . S
C154 H163 0.929 . S
C155 N152 1.346 . S
C155 C154 1.369 . S
C155 H158 0.928 . S
C156 N152 1.345 . S
C156 C157 1.371 . S
C156 H159 0.931 . S
C157 C153 1.391 . S
C157 C156 1.371 . S
C157 H164 0.930 . S
H158 C155 0.928 . S
H159 C156 0.931 . S
H160 C136 0.930 . S
H161 C133 0.930 . S
H162 C142 0.930 . S
H163 C154 0.929 . S
H164 C157 0.930 . S
C165 C166 1.351 . S
C165 N168 1.368 . S
C165 H170 0.931 . S
C166 C165 1.351 . S
C166 N167 1.373 . S
C166 H194 0.930 . S
N167 C166 1.373 . S
N167 C169 1.340 . S
N168 C165 1.368 . S
N168 C169 1.321 . S
N168 Co171 2.135 . S
C169 N167 1.340 . S
C169 N168 1.321 . S
C169 H193 0.930 . S
H170 C165 0.931 . S
Co171 N168 2.135 . S
Co171 N174 2.121 . S
Co171 O179 2.055 . S
Co171 O182 2.039 . S
Co171 N185 2.140 . S
C172 O173 1.227 1_565 S
C172 O182 1.265 1_565 S
O173 C172 1.227 1_545 S
N174 Co171 2.121 . S
N174 C176 1.375 1_545 S
N174 C177 1.313 . S
C175 C176 1.338 . S
C175 N178 1.377 . S
C175 H195 0.930 . S
C176 N174 1.375 1_565 S
C176 C175 1.338 . S
C176 H180 0.931 . S
C177 N174 1.313 . S
C177 N178 1.344 1_545 S
C177 H181 0.930 . S
N178 C175 1.377 . S
N178 C177 1.344 1_565 S
O179 Co171 2.055 . S
O179 C183 1.253 . S
H180 C176 0.931 . S
H181 C177 0.930 . S
O182 Co171 2.039 . S
O182 C172 1.265 1_545 S
C183 O179 1.253 . S
C183 O184 1.227 . S
O184 C183 1.227 . S
N185 Co171 2.140 . S
N185 C188 1.346 . S
N185 C189 1.345 . S
C186 C187 1.387 . S
C186 C190 1.391 . S
C187 C186 1.387 . S
C187 C188 1.369 . S
C187 H196 0.929 . S
C188 N185 1.346 . S
C188 C187 1.369 . S
C188 H191 0.928 . S
C189 N185 1.345 . S
C189 C190 1.371 . S
C189 H192 0.931 . S
C190 C186 1.391 . S
C190 C189 1.371 . S
C190 H197 0.930 . S
H191 C188 0.928 . S
H192 C189 0.931 . S
H193 C169 0.930 . S
H194 C166 0.930 . S
H195 C175 0.930 . S
H196 C187 0.929 . S
H197 C190 0.930 . S
C198 C199 1.351 . S
C198 N201 1.368 . S
C198 H203 0.931 . S
C199 C198 1.351 . S
C199 N200 1.373 . S
C199 H227 0.930 . S
N200 C199 1.373 . S
N200 C202 1.340 . S
N201 C198 1.368 . S
N201 C202 1.321 . S
N201 Co204 2.135 . S
C202 N200 1.340 . S
C202 N201 1.321 . S
C202 H226 0.930 . S
H203 C198 0.931 . S
Co204 N201 2.135 . S
Co204 N207 2.121 . S
Co204 O212 2.055 . S
Co204 O215 2.039 . S
Co204 N218 2.140 . S
C205 O206 1.227 1_455 S
C205 O215 1.265 1_455 S
O206 C205 1.227 1_655 S
N207 Co204 2.121 . S
N207 C209 1.375 1_655 S
N207 C210 1.313 . S
C208 C209 1.338 . S
C208 N211 1.377 . S
C208 H228 0.930 . S
C209 N207 1.375 1_455 S
C209 C208 1.338 . S
C209 H213 0.931 . S
C210 N207 1.313 . S
C210 N211 1.344 1_655 S
C210 H214 0.930 . S
N211 C208 1.377 . S
N211 C210 1.344 1_455 S
O212 Co204 2.055 . S
O212 C216 1.253 . S
H213 C209 0.931 . S
H214 C210 0.930 . S
O215 Co204 2.039 . S
O215 C205 1.265 1_655 S
C216 O212 1.253 . S
C216 O217 1.227 . S
O217 C216 1.227 . S
N218 Co204 2.140 . S
N218 C221 1.346 . S
N218 C222 1.345 . S
C219 C220 1.387 . S
C219 C223 1.391 . S
C220 C219 1.387 . S
C220 C221 1.369 . S
C220 H229 0.929 . S
C221 N218 1.346 . S
C221 C220 1.369 . S
C221 H224 0.928 . S
C222 N218 1.345 . S
C222 C223 1.371 . S
C222 H225 0.931 . S
C223 C219 1.391 . S
C223 C222 1.371 . S
C223 H230 0.930 . S
H224 C221 0.928 . S
H225 C222 0.931 . S
H226 C202 0.930 . S
H227 C199 0.930 . S
H228 C208 0.930 . S
H229 C220 0.929 . S
H230 C223 0.930 . S
C231 C232 1.351 1_554 S
C231 N234 1.368 . S
C231 H236 0.931 . S
C232 C231 1.351 1_556 S
C232 N233 1.373 . S
C232 H260 0.930 . S
N233 C232 1.373 . S
N233 C235 1.340 . S
N234 C231 1.368 . S
N234 C235 1.321 1_554 S
N234 Co237 2.135 . S
C235 N233 1.340 . S
C235 N234 1.321 1_556 S
C235 H259 0.930 . S
H236 C231 0.931 . S
Co237 N234 2.135 . S
Co237 N240 2.121 . S
Co237 O245 2.055 . S
Co237 O248 2.039 . S
Co237 N251 2.140 . S
C238 O239 1.227 1_545 S
C238 O248 1.265 1_546 S
O239 C238 1.227 1_565 S
N240 Co237 2.121 . S
N240 C242 1.375 1_565 S
N240 C243 1.313 . S
C241 C242 1.338 . S
C241 N244 1.377 . S
C241 H261 0.930 . S
C242 N240 1.375 1_545 S
C242 C241 1.338 . S
C242 H246 0.931 . S
C243 N240 1.313 . S
C243 N244 1.344 1_565 S
C243 H247 0.930 . S
N244 C241 1.377 . S
N244 C243 1.344 1_545 S
O245 Co237 2.055 . S
O245 C249 1.253 . S
H246 C242 0.931 . S
H247 C243 0.930 . S
O248 Co237 2.039 . S
O248 C238 1.265 1_564 S
C249 O245 1.253 . S
C249 O250 1.227 . S
O250 C249 1.227 . S
N251 Co237 2.140 . S
N251 C254 1.346 . S
N251 C255 1.345 . S
C252 C253 1.387 1_554 S
C252 C256 1.391 . S
C253 C252 1.387 1_556 S
C253 C254 1.369 1_556 S
C253 H262 0.929 . S
C254 N251 1.346 . S
C254 C253 1.369 1_554 S
C254 H257 0.928 1_554 S
C255 N251 1.345 . S
C255 C256 1.371 . S
C255 H258 0.931 . S
C256 C252 1.391 . S
C256 C255 1.371 . S
C256 H263 0.930 . S
H257 C254 0.928 1_556 S
H258 C255 0.931 . S
H259 C235 0.930 . S
H260 C232 0.930 . S
H261 C241 0.930 . S
H262 C253 0.929 . S
H263 C256 0.930 . S
C264 C265 1.363 . S
C264 C270 1.379 . S
C264 N272 1.356 . S
C265 C264 1.363 . S
C265 C271 1.363 . S
C266 C267 1.363 . S
C266 C271 1.379 . S
C266 N273 1.356 . S
C267 C266 1.363 . S
C267 C270 1.363 . S
N268 C270 1.356 . S
N268 H280 0.984 . S
N268 H281 0.985 . S
N269 C271 1.356 . S
N269 H274 0.984 . S
N269 H275 0.985 . S
C270 C264 1.379 . S
C270 C267 1.363 . S
C270 N268 1.356 . S
C271 C265 1.363 . S
C271 C266 1.379 . S
C271 N269 1.356 . S
N272 C264 1.356 . S
N272 H278 0.984 . S
N272 H279 0.984 . S
N273 C266 1.356 . S
N273 H276 0.984 . S
N273 H277 0.985 . S
H274 N269 0.984 . S
H275 N269 0.985 . S
H276 N273 0.984 . S
H277 N273 0.985 . S
H278 N272 0.984 . S
H279 N272 0.984 . S
H280 N268 0.984 . S
H281 N268 0.985 . S
C282 C283 1.363 . S
C282 C288 1.379 . S
C282 N290 1.356 . S
C283 C282 1.363 . S
C283 C289 1.363 . S
C284 C285 1.363 . S
C284 C289 1.379 . S
C284 N291 1.356 . S
C285 C284 1.363 . S
C285 C288 1.363 . S
N286 C288 1.356 . S
N286 H298 0.984 . S
N286 H299 0.985 . S
N287 C289 1.356 . S
N287 H292 0.984 . S
N287 H293 0.985 . S
C288 C282 1.379 . S
C288 C285 1.363 . S
C288 N286 1.356 . S
C289 C283 1.363 . S
C289 C284 1.379 . S
C289 N287 1.356 . S
N290 C282 1.356 . S
N290 H296 0.984 . S
N290 H297 0.984 . S
N291 C284 1.356 . S
N291 H294 0.984 . S
N291 H295 0.985 . S
H292 N287 0.984 . S
H293 N287 0.985 . S
H294 N291 0.984 . S
H295 N291 0.985 . S
H296 N290 0.984 . S
H297 N290 0.984 . S
H298 N286 0.984 . S
H299 N286 0.985 . S
C300 C301 1.363 . S
C300 C306 1.379 . S
C300 N308 1.356 . S
C301 C300 1.363 . S
C301 C307 1.363 . S
C302 C303 1.363 . S
C302 C307 1.379 . S
C302 N309 1.356 . S
C303 C302 1.363 . S
C303 C306 1.363 . S
N304 C306 1.356 . S
N304 H316 0.984 . S
N304 H317 0.985 . S
N305 C307 1.356 . S
N305 H310 0.984 . S
N305 H311 0.985 . S
C306 C300 1.379 . S
C306 C303 1.363 . S
C306 N304 1.356 . S
C307 C301 1.363 . S
C307 C302 1.379 . S
C307 N305 1.356 . S
N308 C300 1.356 . S
N308 H314 0.984 . S
N308 H315 0.984 . S
N309 C302 1.356 . S
N309 H312 0.984 . S
N309 H313 0.985 . S
H310 N305 0.984 . S
H311 N305 0.985 . S
H312 N309 0.984 . S
H313 N309 0.985 . S
H314 N308 0.984 . S
H315 N308 0.984 . S
H316 N304 0.984 . S
H317 N304 0.985 . S
C318 C319 1.363 1_554 S
C318 C324 1.379 . S
C318 N326 1.356 . S
C319 C318 1.363 1_556 S
C319 C325 1.363 . S
C320 C321 1.363 1_556 S
C320 C325 1.379 . S
C320 N327 1.356 . S
C321 C320 1.363 1_554 S
C321 C324 1.363 . S
N322 C324 1.356 . S
N322 H334 0.984 . S
N322 H335 0.985 . S
N323 C325 1.356 . S
N323 H328 0.984 . S
N323 H329 0.985 . S
C324 C318 1.379 . S
C324 C321 1.363 . S
C324 N322 1.356 . S
C325 C319 1.363 . S
C325 C320 1.379 . S
C325 N323 1.356 . S
N326 C318 1.356 . S
N326 H332 0.984 . S
N326 H333 0.984 1_554 S
N327 C320 1.356 . S
N327 H330 0.984 1_556 S
N327 H331 0.985 . S
H328 N323 0.984 . S
H329 N323 0.985 . S
H330 N327 0.984 1_554 S
H331 N327 0.985 . S
H332 N326 0.984 . S
H333 N326 0.984 1_556 S
H334 N322 0.984 . S
H335 N322 0.985 . S
C336 C337 1.363 . S
C336 C342 1.379 . S
C336 N344 1.356 . S
C337 C336 1.363 . S
C337 C343 1.363 . S
C338 C339 1.363 . S
C338 C343 1.379 . S
C338 N345 1.356 . S
C339 C338 1.363 . S
C339 C342 1.363 . S
N340 C342 1.356 . S
N340 H352 0.984 . S
N340 H353 0.985 . S
N341 C343 1.356 . S
N341 H346 0.984 . S
N341 H347 0.985 . S
C342 C336 1.379 . S
C342 C339 1.363 . S
C342 N340 1.356 . S
C343 C337 1.363 . S
C343 C338 1.379 . S
C343 N341 1.356 . S
N344 C336 1.356 . S
N344 H350 0.984 . S
N344 H351 0.984 . S
N345 C338 1.356 . S
N345 H348 0.984 . S
N345 H349 0.985 . S
H346 N341 0.984 . S
H347 N341 0.985 . S
H348 N345 0.984 . S
H349 N345 0.985 . S
H350 N344 0.984 . S
H351 N344 0.984 . S
H352 N340 0.984 . S
H353 N340 0.985 . S
C354 C355 1.363 . S
C354 C360 1.379 . S
C354 N362 1.356 . S
C355 C354 1.363 . S
C355 C361 1.363 . S
C356 C357 1.363 . S
C356 C361 1.379 . S
C356 N363 1.356 . S
C357 C356 1.363 . S
C357 C360 1.363 . S
N358 C360 1.356 . S
N358 H370 0.984 . S
N358 H371 0.985 . S
N359 C361 1.356 . S
N359 H364 0.984 . S
N359 H365 0.985 . S
C360 C354 1.379 . S
C360 C357 1.363 . S
C360 N358 1.356 . S
C361 C355 1.363 . S
C361 C356 1.379 . S
C361 N359 1.356 . S
N362 C354 1.356 . S
N362 H368 0.984 . S
N362 H369 0.984 . S
N363 C356 1.356 . S
N363 H366 0.984 . S
N363 H367 0.985 . S
H364 N359 0.984 . S
H365 N359 0.985 . S
H366 N363 0.984 . S
H367 N363 0.985 . S
H368 N362 0.984 . S
H369 N362 0.984 . S
H370 N358 0.984 . S
H371 N358 0.985 . S
C372 C373 1.363 . S
C372 C378 1.379 . S
C372 N380 1.356 . S
C373 C372 1.363 . S
C373 C379 1.363 . S
C374 C375 1.363 . S
C374 C379 1.379 . S
C374 N381 1.356 . S
C375 C374 1.363 . S
C375 C378 1.363 . S
N376 C378 1.356 . S
N376 H388 0.984 . S
N376 H389 0.985 . S
N377 C379 1.356 . S
N377 H382 0.984 . S
N377 H383 0.985 . S
C378 C372 1.379 . S
C378 C375 1.363 . S
C378 N376 1.356 . S
C379 C373 1.363 . S
C379 C374 1.379 . S
C379 N377 1.356 . S
N380 C372 1.356 . S
N380 H386 0.984 . S
N380 H387 0.984 . S
N381 C374 1.356 . S
N381 H384 0.984 . S
N381 H385 0.985 . S
H382 N377 0.984 . S
H383 N377 0.985 . S
H384 N381 0.984 . S
H385 N381 0.985 . S
H386 N380 0.984 . S
H387 N380 0.984 . S
H388 N376 0.984 . S
H389 N376 0.985 . S
C390 C391 1.363 . S
C390 C396 1.379 . S
C390 N398 1.356 . S
C391 C390 1.363 . S
C391 C397 1.363 . S
C392 C393 1.363 . S
C392 C397 1.379 . S
C392 N399 1.356 . S
C393 C392 1.363 . S
C393 C396 1.363 . S
N394 C396 1.356 . S
N394 H406 0.984 . S
N394 H407 0.985 . S
N395 C397 1.356 . S
N395 H400 0.984 . S
N395 H401 0.985 . S
C396 C390 1.379 . S
C396 C393 1.363 . S
C396 N394 1.356 . S
C397 C391 1.363 . S
C397 C392 1.379 . S
C397 N395 1.356 . S
N398 C390 1.356 . S
N398 H404 0.984 . S
N398 H405 0.984 . S
N399 C392 1.356 . S
N399 H402 0.984 . S
N399 H403 0.985 . S
H400 N395 0.984 . S
H401 N395 0.985 . S
H402 N399 0.984 . S
H403 N399 0.985 . S
H404 N398 0.984 . S
H405 N398 0.984 . S
H406 N394 0.984 . S
H407 N394 0.985 . S
C408 C409 1.363 1_455 S
C408 C414 1.379 1_554 S
C408 N416 1.356 . S
C409 C408 1.363 1_655 S
C409 C415 1.363 . S
C410 C411 1.363 1_655 S
C410 C415 1.379 1_556 S
C410 N417 1.356 . S
C411 C410 1.363 1_455 S
C411 C414 1.363 . S
N412 C414 1.356 . S
N412 H424 0.984 . S
N412 H425 0.985 . S
N413 C415 1.356 . S
N413 H418 0.984 . S
N413 H419 0.985 . S
C414 C408 1.379 1_556 S
C414 C411 1.363 . S
C414 N412 1.356 . S
C415 C409 1.363 . S
C415 C410 1.379 1_554 S
C415 N413 1.356 . S
N416 C408 1.356 . S
N416 H422 0.984 . S
N416 H423 0.984 . S
N417 C410 1.356 . S
N417 H420 0.984 . S
N417 H421 0.985 . S
H418 N413 0.984 . S
H419 N413 0.985 . S
H420 N417 0.984 . S
H421 N417 0.985 . S
H422 N416 0.984 . S
H423 N416 0.984 . S
H424 N412 0.984 . S
H425 N412 0.985 . S
C426 C427 1.363 . S
C426 C432 1.379 . S
C426 N434 1.356 . S
C427 C426 1.363 . S
C427 C433 1.363 1_545 S
C428 C429 1.363 . S
C428 C433 1.379 . S
C428 N435 1.356 . S
C429 C428 1.363 . S
C429 C432 1.363 1_565 S
N430 C432 1.356 . S
N430 H442 0.984 . S
N430 H443 0.985 . S
N431 C433 1.356 . S
N431 H436 0.984 . S
N431 H437 0.985 . S
C432 C426 1.379 . S
C432 C429 1.363 1_545 S
C432 N430 1.356 . S
C433 C427 1.363 1_565 S
C433 C428 1.379 . S
C433 N431 1.356 . S
N434 C426 1.356 . S
N434 H440 0.984 . S
N434 H441 0.984 . S
N435 C428 1.356 . S
N435 H438 0.984 . S
N435 H439 0.985 . S
H436 N431 0.984 . S
H437 N431 0.985 . S
H438 N435 0.984 . S
H439 N435 0.985 . S
H440 N434 0.984 . S
H441 N434 0.984 . S
H442 N430 0.984 . S
H443 N430 0.985 . S
C444 C445 1.363 . S
C444 C450 1.379 . S
C444 N452 1.356 . S
C445 C444 1.363 . S
C445 C451 1.363 1_455 S
C446 C447 1.363 . S
C446 C451 1.379 . S
C446 N453 1.356 . S
C447 C446 1.363 . S
C447 C450 1.363 1_655 S
N448 C450 1.356 . S
N448 H460 0.984 . S
N448 H461 0.985 . S
N449 C451 1.356 . S
N449 H454 0.984 . S
N449 H455 0.985 . S
C450 C444 1.379 . S
C450 C447 1.363 1_455 S
C450 N448 1.356 . S
C451 C445 1.363 1_655 S
C451 C446 1.379 . S
C451 N449 1.356 . S
N452 C444 1.356 . S
N452 H458 0.984 . S
N452 H459 0.984 . S
N453 C446 1.356 . S
N453 H456 0.984 . S
N453 H457 0.985 . S
H454 N449 0.984 . S
H455 N449 0.985 . S
H456 N453 0.984 . S
H457 N453 0.985 . S
H458 N452 0.984 . S
H459 N452 0.984 . S
H460 N448 0.984 . S
H461 N448 0.985 . S
C462 C463 1.363 1_545 S
C462 C468 1.379 . S
C462 N470 1.356 . S
C463 C462 1.363 1_565 S
C463 C469 1.363 . S
C464 C465 1.363 1_565 S
C464 C469 1.379 . S
C464 N471 1.356 . S
C465 C464 1.363 1_545 S
C465 C468 1.363 . S
N466 C468 1.356 . S
N466 H478 0.984 . S
N466 H479 0.985 . S
N467 C469 1.356 . S
N467 H472 0.984 . S
N467 H473 0.985 . S
C468 C462 1.379 . S
C468 C465 1.363 . S
C468 N466 1.356 . S
C469 C463 1.363 . S
C469 C464 1.379 . S
C469 N467 1.356 . S
N470 C462 1.356 . S
N470 H476 0.984 . S
N470 H477 0.984 . S
N471 C464 1.356 . S
N471 H474 0.984 . S
N471 H475 0.985 . S
H472 N467 0.984 . S
H473 N467 0.985 . S
H474 N471 0.984 . S
H475 N471 0.985 . S
H476 N470 0.984 . S
H477 N470 0.984 . S
H478 N466 0.984 . S
H479 N466 0.985 . S
C480 C481 1.363 . S
C480 C486 1.379 . S
C480 N488 1.356 . S
C481 C480 1.363 . S
C481 C487 1.363 . S
C482 C483 1.363 . S
C482 C487 1.379 . S
C482 N489 1.356 1_554 S
C483 C482 1.363 . S
C483 C486 1.363 . S
N484 C486 1.356 . S
N484 H496 0.984 . S
N484 H497 0.985 . S
N485 C487 1.356 . S
N485 H490 0.984 . S
N485 H491 0.985 . S
C486 C480 1.379 . S
C486 C483 1.363 . S
C486 N484 1.356 . S
C487 C481 1.363 . S
C487 C482 1.379 . S
C487 N485 1.356 . S
N488 C480 1.356 . S
N488 H494 0.984 . S
N488 H495 0.984 . S
N489 C482 1.356 1_556 S
N489 H492 0.984 . S
N489 H493 0.985 . S
H490 N485 0.984 . S
H491 N485 0.985 . S
H492 N489 0.984 . S
H493 N489 0.985 . S
H494 N488 0.984 . S
H495 N488 0.984 . S
H496 N484 0.984 . S
H497 N484 0.985 . S
C498 C499 1.363 . S
C498 C504 1.379 . S
C498 N506 1.356 . S
C499 C498 1.363 . S
C499 C505 1.363 . S
C500 C501 1.363 . S
C500 C505 1.379 . S
C500 N507 1.356 . S
C501 C500 1.363 . S
C501 C504 1.363 . S
N502 C504 1.356 . S
N502 H514 0.984 . S
N502 H515 0.985 . S
N503 C505 1.356 . S
N503 H508 0.984 . S
N503 H509 0.985 . S
C504 C498 1.379 . S
C504 C501 1.363 . S
C504 N502 1.356 . S
C505 C499 1.363 . S
C505 C500 1.379 . S
C505 N503 1.356 . S
N506 C498 1.356 . S
N506 H512 0.984 . S
N506 H513 0.984 . S
N507 C500 1.356 . S
N507 H510 0.984 . S
N507 H511 0.985 . S
H508 N503 0.984 . S
H509 N503 0.985 . S
H510 N507 0.984 . S
H511 N507 0.985 . S
H512 N506 0.984 . S
H513 N506 0.984 . S
H514 N502 0.984 . S
H515 N502 0.985 . S
C516 C517 1.363 . S
C516 C522 1.379 . S
C516 N524 1.356 . S
C517 C516 1.363 . S
C517 C523 1.363 . S
C518 C519 1.363 . S
C518 C523 1.379 . S
C518 N525 1.356 . S
C519 C518 1.363 . S
C519 C522 1.363 . S
N520 C522 1.356 . S
N520 H532 0.984 . S
N520 H533 0.985 . S
N521 C523 1.356 . S
N521 H526 0.984 . S
N521 H527 0.985 . S
C522 C516 1.379 . S
C522 C519 1.363 . S
C522 N520 1.356 . S
C523 C517 1.363 . S
C523 C518 1.379 . S
C523 N521 1.356 . S
N524 C516 1.356 . S
N524 H530 0.984 1_565 S
N524 H531 0.984 1_565 S
N525 C518 1.356 . S
N525 H528 0.984 . S
N525 H529 0.985 . S
H526 N521 0.984 . S
H527 N521 0.985 . S
H528 N525 0.984 . S
H529 N525 0.985 . S
H530 N524 0.984 1_545 S
H531 N524 0.984 1_545 S
H532 N520 0.984 . S
H533 N520 0.985 . S
C534 C535 1.363 . S
C534 C540 1.379 . S
C534 N542 1.356 . S
C535 C534 1.363 . S
C535 C541 1.363 . S
C536 C537 1.363 . S
C536 C541 1.379 . S
C536 N543 1.356 . S
C537 C536 1.363 . S
C537 C540 1.363 . S
N538 C540 1.356 . S
N538 H550 0.984 . S
N538 H551 0.985 . S
N539 C541 1.356 . S
N539 H544 0.984 . S
N539 H545 0.985 . S
C540 C534 1.379 . S
C540 C537 1.363 . S
C540 N538 1.356 . S
C541 C535 1.363 . S
C541 C536 1.379 . S
C541 N539 1.356 . S
N542 C534 1.356 . S
N542 H548 0.984 . S
N542 H549 0.984 1_455 S
N543 C536 1.356 . S
N543 H546 0.984 . S
N543 H547 0.985 . S
H544 N539 0.984 . S
H545 N539 0.985 . S
H546 N543 0.984 . S
H547 N543 0.985 . S
H548 N542 0.984 . S
H549 N542 0.984 1_655 S
H550 N538 0.984 . S
H551 N538 0.985 . S
C552 C553 1.363 . S
C552 C558 1.379 . S
C552 N560 1.356 . S
C553 C552 1.363 . S
C553 C559 1.363 . S
C554 C555 1.363 . S
C554 C559 1.379 . S
C554 N561 1.356 . S
C555 C554 1.363 . S
C555 C558 1.363 . S
N556 C558 1.356 . S
N556 H568 0.984 . S
N556 H569 0.985 . S
N557 C559 1.356 . S
N557 H562 0.984 . S
N557 H563 0.985 . S
C558 C552 1.379 . S
C558 C555 1.363 . S
C558 N556 1.356 . S
C559 C553 1.363 . S
C559 C554 1.379 . S
C559 N557 1.356 . S
N560 C552 1.356 . S
N560 H566 0.984 . S
N560 H567 0.984 . S
N561 C554 1.356 . S
N561 H564 0.984 1_565 S
N561 H565 0.985 1_565 S
H562 N557 0.984 . S
H563 N557 0.985 . S
H564 N561 0.984 1_545 S
H565 N561 0.985 1_545 S
H566 N560 0.984 . S
H567 N560 0.984 . S
H568 N556 0.984 . S
H569 N556 0.985 . S
C570 C571 1.363 . S
C570 C576 1.379 . S
C570 N578 1.356 . S
C571 C570 1.363 . S
C571 C577 1.363 . S
C572 C573 1.363 . S
C572 C577 1.379 . S
C572 N579 1.356 . S
C573 C572 1.363 . S
C573 C576 1.363 . S
N574 C576 1.356 . S
N574 H586 0.984 . S
N574 H587 0.985 . S
N575 C577 1.356 . S
N575 H580 0.984 . S
N575 H581 0.985 . S
C576 C570 1.379 . S
C576 C573 1.363 . S
C576 N574 1.356 . S
C577 C571 1.363 . S
C577 C572 1.379 . S
C577 N575 1.356 . S
N578 C570 1.356 . S
N578 H584 0.984 . S
N578 H585 0.984 . S
N579 C572 1.356 . S
N579 H582 0.984 . S
N579 H583 0.985 . S
H580 N575 0.984 . S
H581 N575 0.985 . S
H582 N579 0.984 . S
H583 N579 0.985 . S
H584 N578 0.984 . S
H585 N578 0.984 . S
H586 N574 0.984 . S
H587 N574 0.985 . S
C588 C589 1.363 . S
C588 C594 1.379 . S
C588 N596 1.356 . S
C589 C588 1.363 . S
C589 C595 1.363 . S
C590 C591 1.363 . S
C590 C595 1.379 . S
C590 N597 1.356 1_556 S
C591 C590 1.363 . S
C591 C594 1.363 . S
N592 C594 1.356 . S
N592 H604 0.984 . S
N592 H605 0.989 . S
N593 C595 1.356 . S
N593 H598 0.984 . S
N593 H599 0.985 . S
C594 C588 1.379 . S
C594 C591 1.363 . S
C594 N592 1.356 . S
C595 C589 1.363 . S
C595 C590 1.379 . S
C595 N593 1.356 . S
N596 C588 1.356 . S
N596 H602 0.984 . S
N596 H603 0.984 . S
N597 C590 1.356 1_554 S
N597 H600 0.984 . S
N597 H601 0.985 . S
H598 N593 0.984 . S
H599 N593 0.985 . S
H600 N597 0.984 . S
H601 N597 0.985 . S
H602 N596 0.984 . S
H603 N596 0.984 . S
H604 N592 0.984 . S
H605 N592 0.989 . S
C606 C607 1.363 . S
C606 C612 1.379 . S
C606 N614 1.356 . S
C607 C606 1.363 . S
C607 C613 1.363 . S
C608 C609 1.363 . S
C608 C613 1.379 . S
C608 N615 1.356 . S
C609 C608 1.363 . S
C609 C612 1.363 . S
N610 C612 1.356 . S
N610 H622 0.984 . S
N610 H623 0.985 . S
N611 C613 1.356 . S
N611 H616 0.984 . S
N611 H617 0.985 . S
C612 C606 1.379 . S
C612 C609 1.363 . S
C612 N610 1.356 . S
C613 C607 1.363 . S
C613 C608 1.379 . S
C613 N611 1.356 . S
N614 C606 1.356 . S
N614 H620 0.984 . S
N614 H621 0.984 . S
N615 C608 1.356 . S
N615 H618 0.984 . S
N615 H619 0.985 . S
H616 N611 0.984 . S
H617 N611 0.985 . S
H618 N615 0.984 . S
H619 N615 0.985 . S
H620 N614 0.984 . S
H621 N614 0.984 . S
H622 N610 0.984 . S
H623 N610 0.985 . S
C265 C153 1.389 . S
C267 C21 1.389 . S
C283 C54 1.389 . S
C285 C186 1.389 . S
C301 C87 1.389 . S
C303 C219 1.389 . S
C319 C120 1.389 . S
C321 C252 1.389 . S
C337 N167 0.785 . S
C339 N2 0.785 . S
C355 N35 0.785 . S
C357 N200 0.785 . S
C373 N233 0.785 . S
C375 N68 0.785 . S
C391 N101 0.785 . S
C393 N134 0.785 . S
C409 N13 1.217 . S
C411 N211 1.217 . S
C427 N244 1.217 . S
C429 N46 1.217 . S
C445 N79 1.217 . S
C447 N145 1.217 . S
C463 N178 1.217 . S
C465 N112 1.217 . S
C481 C18 1.998 . S
C483 C106 1.993 . S
C499 C7 1.993 . S
C501 C51 1.998 . S
C517 C40 1.993 . S
C519 C84 1.998 . S
C535 C73 1.993 . S
C537 C117 1.998 . S
C553 C150 1.998 . S
C555 C172 1.993 . S
C571 C183 1.998 . S
C573 C205 1.993 . S
C589 C216 1.998 . S
C591 C238 1.993 . S
C607 C139 1.993 . S
C609 C249 1.998 . S
