# Generated by pormake.
# Topology lon, (4)-cn, num edge types: 1
# Building blocks:
#     Node 0, Type 0, BuildingBlock: KUFVIS_clean_sbu_0, # of connection points: 4
#     Node 1, Type 0, BuildingBlock: KUFVIS_clean_sbu_0, # of connection points: 4
#     Node 2, Type 0, BuildingBlock: KUFVIS_clean_sbu_0, # of connection points: 4
#     Node 3, Type 0, BuildingBlock: KUFVIS_clean_sbu_0, # of connection points: 4
#     Edge 4, Type (0, 0), BuildingBlock: ZUJKAS_clean_linker_0, # of connection points: 2
#     Edge 5, Type (0, 0), BuildingBlock: ZUJKAS_clean_linker_0, # of connection points: 2
#     Edge 6, Type (0, 0), BuildingBlock: ZUJKAS_clean_linker_0, # of connection points: 2
#     Edge 7, Type (0, 0), BuildingBlock: ZUJKAS_clean_linker_0, # of connection points: 2
#     Edge 8, Type (0, 0), BuildingBlock: ZUJKAS_clean_linker_0, # of connection points: 2
#     Edge 9, Type (0, 0), BuildingBlock: ZUJKAS_clean_linker_0, # of connection points: 2
#     Edge 10, Type (0, 0), BuildingBlock: ZUJKAS_clean_linker_0, # of connection points: 2
#     Edge 11, Type (0, 0), BuildingBlock: ZUJKAS_clean_linker_0, # of connection points: 2
# Relax obj value: 0.049
# Max RMSD: 0.108
# Mean RMSD: 0.090
data_MOF--net-lon--node1-KUFVIS_clean_sbu_0--edge1-ZUJKAS_clean_linker_0
_symmetry_space_group_name_H-M    P1
_symmetry_Int_Tables_number       1
_symmetry_cell_setting            triclinic
loop_
_symmetry_equiv_pos_as_xyz
'x, y, z'
_cell_length_a     32.03035
_cell_length_b     30.930096
_cell_length_c     52.228591
_cell_angle_alpha  100.26959
_cell_angle_beta   90.016376
_cell_angle_gamma 121.20897
loop_
_atom_site_label
_atom_site_type_symbol
_atom_site_fract_x
_atom_site_fract_y
_atom_site_fract_z
_atom_type_partial_charge
Mn0 Mn 0.32336 0.68873 0.08398 0.0
Mn1 Mn 0.29588 0.64539 0.01827 0.0
C2 C 0.24468 0.65471 0.06466 0.0
C3 C 0.33146 0.67623 0.12618 0.0
C4 C 0.35473 0.75876 0.0443 0.0
O5 O 0.37955 0.67872 0.07295 0.0
O6 O 0.35402 0.64453 0.02978 0.0
C7 C 0.26667 0.53647 0.01447 0.0
N8 N 0.25588 0.57169 1.00972 0.0
C9 C 0.17715 0.50448 0.98681 0.0
C10 C 0.18746 0.46746 0.99139 0.0
C11 C 0.23236 0.48353 1.00534 0.0
C12 C 0.21277 0.55666 0.99637 0.0
H13 H 0.30122 0.54873 0.02511 0.0
C14 C 0.3839 0.65893 0.05018 0.0
O15 O 0.35536 0.72175 0.12058 0.0
O16 O 0.30364 0.63764 0.10708 0.0
N17 N 0.2397 0.64412 1.00469 0.0
C18 C 0.23431 0.68459 1.00336 0.0
C19 C 0.19086 0.6751 0.99062 0.0
C20 C 0.15366 0.62422 0.97921 0.0
C21 C 0.16009 0.58321 0.98079 0.0
C22 C 0.20427 0.59506 0.99362 0.0
H23 H 0.26294 0.72379 1.01195 0.0
O24 O 0.25958 0.6857 0.0875 0.0
O25 O 0.27621 0.64508 0.05385 0.0
O26 O 0.35105 0.75301 0.06792 0.0
O27 O 0.33661 0.72131 0.02451 0.0
C28 C 0.12415 0.531 0.97048 0.0
C29 C 0.1326 0.49166 0.97357 0.0
H30 H 0.16103 0.42658 0.98446 0.0
H31 H 0.24052 0.45519 1.00901 0.0
H32 H 0.18611 0.70693 0.98954 0.0
H33 H 0.12022 0.61711 0.96941 0.0
H34 H 0.08958 0.52063 0.96048 0.0
H35 H 0.10436 0.45163 0.96594 0.0
Mn36 Mn 0.71855 0.36981 0.57576 0.0
Mn37 Mn 0.5977 0.28503 0.578 0.0
C38 C 0.68813 0.28184 0.56868 0.0
C39 C 0.78736 0.41662 0.55419 0.0
C40 C 0.66937 0.34954 0.62661 0.0
O41 O 0.68807 0.41252 0.57083 0.0
O42 O 0.60919 0.35286 0.57394 0.0
C43 C 0.56179 0.27477 0.52365 0.0
N44 N 0.56515 0.25261 0.54324 0.0
C45 C 0.51376 0.1672 0.51672 0.0
C46 C 0.50954 0.1891 0.4963 0.0
C47 C 0.53379 0.24312 0.49977 0.0
C48 C 0.54208 0.20069 0.54009 0.0
H49 H 0.58029 0.31625 0.52623 0.0
C50 C 0.64267 0.39793 0.57107 0.0
O51 O 0.78702 0.43043 0.57911 0.0
O52 O 0.74651 0.37771 0.54143 0.0
N53 N 0.5804 0.21737 0.5816 0.0
C54 C 0.59097 0.20261 0.60253 0.0
C55 C 0.57029 0.14979 0.60204 0.0
C56 C 0.53873 0.11276 0.58014 0.0
C57 C 0.5286 0.12888 0.55879 0.0
C58 C 0.54979 0.18201 0.56052 0.0
H59 H 0.61486 0.23092 0.6195 0.0
O60 O 0.73395 0.31533 0.57709 0.0
O61 O 0.66087 0.30058 0.56512 0.0
O62 O 0.70666 0.37442 0.61465 0.0
O63 O 0.62711 0.31491 0.6147 0.0
C64 C 0.49899 0.09436 0.5357 0.0
C65 C 0.49173 0.11352 0.51463 0.0
H66 H 0.48812 0.16485 0.47782 0.0
H67 H 0.53087 0.26032 0.48406 0.0
H68 H 0.57852 0.13762 0.61852 0.0
H69 H 0.52283 0.07205 0.57982 0.0
H70 H 0.48228 0.05308 0.53379 0.0
H71 H 0.46956 0.08665 0.49681 0.0
Mn72 Mn 0.36217 0.65717 0.45143 0.0
Mn73 Mn 0.32597 0.7419 0.44954 0.0
C74 C 0.41971 0.74519 0.45877 0.0
C75 C 0.38413 0.61009 0.47279 0.0
C76 C 0.33345 0.67812 0.40075 0.0
O77 O 0.28892 0.6142 0.45622 0.0
O78 O 0.26962 0.67385 0.45334 0.0
C79 C 0.30008 0.75129 0.50387 0.0
N80 N 0.32566 0.77381 0.48438 0.0
C81 C 0.35949 0.85894 0.51118 0.0
C82 C 0.33328 0.83665 0.53149 0.0
C83 C 0.30359 0.78259 0.52784 0.0
C84 C 0.35445 0.82578 0.48771 0.0
H85 H 0.27716 0.70977 0.50113 0.0
C86 C 0.25805 0.6287 0.45604 0.0
O87 O 0.3701 0.5966 0.44786 0.0
O88 O 0.38211 0.64883 0.48567 0.0
N89 N 0.3763 0.80976 0.44619 0.0
C90 C 0.40171 0.82491 0.42532 0.0
C91 C 0.43379 0.87782 0.42601 0.0
C92 C 0.43914 0.91455 0.44802 0.0
C93 C 0.4128 0.89804 0.46928 0.0
C94 C 0.38092 0.84484 0.46737 0.0
H95 H 0.39739 0.79684 0.40827 0.0
O96 O 0.4321 0.71181 0.45027 0.0
O97 O 0.37367 0.72632 0.46231 0.0
O98 O 0.34586 0.65311 0.41259 0.0
O99 O 0.32568 0.71254 0.41278 0.0
C100 C 0.41756 0.93223 0.49248 0.0
C101 C 0.39107 0.91268 0.51346 0.0
H102 H 0.33601 0.86064 0.55004 0.0
H103 H 0.28342 0.76511 0.54346 0.0
H104 H 0.45426 0.8903 0.40958 0.0
H105 H 0.46393 0.95533 0.44849 0.0
H106 H 0.44209 0.97356 0.49454 0.0
H107 H 0.39567 0.93931 0.53136 0.0
Mn108 Mn 0.64277 0.33348 0.94172 0.0
Mn109 Mn 0.6496 0.37325 1.00703 0.0
C110 C 0.58992 0.35902 0.95871 0.0
C111 C 0.66757 0.34981 0.90055 0.0
C112 C 0.60682 0.26148 0.98011 0.0
O113 O 0.71056 0.34967 0.95545 0.0
O114 O 0.71371 0.38587 0.99745 0.0
C115 C 0.71846 0.486 0.01347 0.0
N116 N 0.67366 0.44543 0.01626 0.0
C117 C 0.65129 0.50232 0.04106 0.0
C118 C 0.69727 0.54477 0.03853 0.0
C119 C 0.7308 0.53658 0.02446 0.0
C120 C 0.64064 0.45294 0.02916 0.0
H121 H 0.74475 0.47973 1.0032 0.0
C122 C 0.73339 0.37404 0.97836 0.0
O123 O 0.6485 0.30414 0.9057 0.0
O124 O 0.67363 0.38656 0.91959 0.0
N125 N 0.58945 0.36336 0.01904 0.0
C126 C 0.54749 0.31823 0.02063 0.0
C127 C 0.50976 0.31971 0.03367 0.0
C128 C 0.51603 0.36748 0.04551 0.0
C129 C 0.56007 0.41336 0.04428 0.0
C130 C 0.59612 0.4095 0.03072 0.0
H131 H 0.54282 0.28135 1.01208 0.0
O132 O 0.57907 0.32999 0.9355 0.0
O133 O 0.63123 0.37226 0.97103 0.0
O134 O 0.60805 0.26787 0.95665 0.0
O135 O 0.62394 0.29844 1.00012 0.0
C136 C 0.56986 0.46271 0.05628 0.0
C137 C 0.61556 0.50713 0.05484 0.0
H138 H 0.70709 0.58381 0.04722 0.0
H139 H 0.76631 0.56913 0.0224 0.0
H140 H 0.47612 0.2841 0.0348 0.0
H141 H 0.48699 0.36845 0.0557 0.0
H142 H 0.54265 0.46693 0.06684 0.0
H143 H 0.62274 0.54485 0.06424 0.0
H144 H 0.3868 0.75028 0.16957 0.0
H145 H 0.38663 0.74017 0.2149 0.0
H146 H 0.28157 0.57673 0.19006 0.0
H147 H 0.28109 0.58663 0.14454 0.0
H148 H 0.25483 0.62254 0.23146 0.0
H149 H 0.44772 0.67819 0.25251 0.0
H150 H 0.4427 0.72539 0.23945 0.0
H151 H 0.419 0.66185 0.21962 0.0
C152 C 0.36407 0.71203 0.17366 0.0
C153 C 0.33402 0.66923 0.1534 0.0
C154 C 0.36425 0.70627 0.19962 0.0
C155 C 0.33465 0.65756 0.20589 0.0
C156 C 0.30495 0.61463 0.18567 0.0
H157 H 0.35438 0.61457 0.36668 0.0
H158 H 0.35166 0.6032 0.31891 0.0
C159 C 0.30479 0.62034 0.15966 0.0
C160 C 0.3325 0.6523 0.23369 0.0
H161 H 0.40404 0.67891 0.28975 0.0
C162 C 0.28735 0.63428 0.24413 0.0
C163 C 0.37475 0.66689 0.25018 0.0
C164 C 0.42369 0.68366 0.23983 0.0
C165 C 0.28376 0.63264 0.2708 0.0
C166 C 0.32659 0.65018 0.28759 0.0
C167 C 0.37131 0.66598 0.27694 0.0
C168 C 0.32623 0.65505 0.31642 0.0
C169 C 0.23413 0.61238 0.28078 0.0
C170 C 0.31313 0.68817 0.33091 0.0
C171 C 0.31464 0.69478 0.35814 0.0
C172 C 0.32955 0.66859 0.37163 0.0
C173 C 0.34247 0.63516 0.35702 0.0
C174 C 0.34105 0.62869 0.32969 0.0
H175 H 0.20387 0.58653 0.26479 0.0
H176 H 0.23023 0.59085 0.29641 0.0
H177 H 0.22997 0.64539 0.28908 0.0
H178 H 0.30259 0.70978 0.32119 0.0
H179 H 0.3047 0.7211 0.36862 0.0
H180 H 0.59855 0.30454 0.65889 0.0
H181 H 0.60827 0.31688 0.70635 0.0
H182 H 0.76273 0.42863 0.7084 0.0
H183 H 0.75359 0.41616 0.66058 0.0
H184 H 0.7441 0.35607 0.73822 0.0
H185 H 0.62719 0.43762 0.76209 0.0
H186 H 0.5961 0.37806 0.73822 0.0
H187 H 0.64912 0.43383 0.73042 0.0
C188 C 0.63463 0.33221 0.66932 0.0
C189 C 0.67526 0.35953 0.65575 0.0
C190 C 0.64002 0.33941 0.69657 0.0
C191 C 0.68604 0.37432 0.71102 0.0
C192 C 0.72677 0.40177 0.69766 0.0
H193 H 0.70233 0.43967 0.88286 0.0
H194 H 0.7142 0.45151 0.83767 0.0
C195 C 0.72143 0.39464 0.6703 0.0
C196 C 0.69162 0.37991 0.73991 0.0
H197 H 0.64435 0.4033 0.79563 0.0
C198 C 0.72279 0.36707 0.75084 0.0
C199 C 0.66446 0.39506 0.75649 0.0
C200 C 0.63273 0.41245 0.74626 0.0
C201 C 0.72569 0.36654 0.77764 0.0
C202 C 0.696 0.37833 0.79387 0.0
C203 C 0.66669 0.39365 0.78318 0.0
C204 C 0.69274 0.37245 0.8216 0.0
C205 C 0.76035 0.35307 0.78827 0.0
C206 C 0.67679 0.32413 0.82765 0.0
C207 C 0.6701 0.3173 0.85341 0.0
C208 C 0.67882 0.35856 0.87371 0.0
C209 C 0.69549 0.40716 0.86771 0.0
C210 C 0.70219 0.41396 0.84188 0.0
H211 H 0.79096 0.36155 0.776 0.0
H212 H 0.77605 0.37466 0.80868 0.0
H213 H 0.74002 0.3111 0.78817 0.0
H214 H 0.66811 0.29118 0.81231 0.0
H215 H 0.65693 0.27927 0.85729 0.0
H216 H 0.44084 0.67444 1.01064 0.0
H217 H 0.48442 0.63007 0.99692 0.0
H218 H 0.45327 0.56702 0.06667 0.0
H219 H 0.40992 0.61207 0.08073 0.0
H220 H 0.56373 0.61892 0.02907 0.0
H221 H 0.37692 0.44721 0.99317 0.0
H222 H 0.39 0.51235 0.99672 0.0
H223 H 0.38734 0.48664 0.02522 0.0
C224 C 0.44503 0.65278 0.02354 0.0
C225 C 0.42224 0.64655 0.04671 0.0
C226 C 0.46969 0.62739 0.01565 0.0
C227 C 0.47136 0.59504 0.03069 0.0
C228 C 0.45216 0.59199 0.0549 0.0
H229 H 0.50439 0.33374 0.98022 0.0
H230 H 0.47814 0.39348 0.99796 0.0
C231 C 0.42789 0.61801 0.063 0.0
C232 C 0.48761 0.55984 0.01933 0.0
H233 H 0.44368 0.43801 0.98435 0.0
C234 C 0.53782 0.57899 0.01961 0.0
C235 C 0.45333 0.50853 1.00654 0.0
C236 C 0.39878 0.4871 1.00516 0.0
C237 C 0.55515 0.5476 1.00797 0.0
C238 C 0.5208 0.49543 0.99515 0.0
C239 C 0.47029 0.47713 0.99453 0.0
C240 C 0.53552 0.45835 0.98313 0.0
C241 C 0.61012 0.57195 1.00988 0.0
C242 C 0.57485 0.47311 0.96774 0.0
C243 C 0.59232 0.44037 0.95987 0.0
C244 C 0.56832 0.39075 0.96535 0.0
C245 C 0.52491 0.37296 0.97721 0.0
C246 C 0.50953 0.40701 0.98686 0.0
H247 H 0.62843 0.6017 0.02824 0.0
H248 H 0.62106 0.54343 1.00928 0.0
H249 H 0.62428 0.5917 0.99329 0.0
H250 H 0.59325 0.51056 0.96251 0.0
H251 H 0.62478 0.45389 0.94958 0.0
H252 H 0.22248 0.55819 0.48809 0.0
H253 H 0.13975 0.51607 0.50236 0.0
H254 H 0.09496 0.58035 0.44931 0.0
H255 H 0.17731 0.62324 0.43562 0.0
H256 H 0.07507 0.60251 0.49769 0.0
H257 H 1.00581 0.39292 0.47111 0.0
H258 H 0.06435 0.43067 0.49062 0.0
H259 H 0.05872 0.44037 0.45817 0.0
C260 C 0.19451 0.56201 0.47897 0.0
C261 C 0.20642 0.59407 0.46076 0.0
C262 C 0.14718 0.53794 0.48713 0.0
C263 C 0.11087 0.54488 0.47688 0.0
C264 C 0.12222 0.57452 0.45762 0.0
H265 H 0.801 0.39124 0.50314 0.0
H266 H 0.87904 0.42325 0.48406 0.0
C267 C 0.16934 0.5989 0.44973 0.0
C268 C 0.06267 0.52579 0.48771 0.0
H269 H 0.95889 0.4176 0.49839 0.0
C270 C 0.04964 0.56199 0.49773 0.0
C271 C 0.02916 0.47292 0.48761 0.0
C272 C 0.03988 0.43184 0.47608 0.0
C273 C 1.00443 0.54701 0.5077 0.0
C274 C 0.9715 0.49439 0.50831 0.0
C275 C 0.98422 0.458 0.49808 0.0
C276 C 0.9239 0.47649 0.51963 0.0
C277 C 0.99203 0.5877 0.51703 0.0
C278 C 0.92296 0.49594 0.54592 0.0
C279 C 0.8784 0.47809 0.5568 0.0
C280 C 0.83372 0.43996 0.5417 0.0
C281 C 0.83465 0.42093 0.51527 0.0
C282 C 0.87929 0.43893 0.50438 0.0
H283 H 1.01388 0.62224 0.50835 0.0
H284 H 0.95242 0.57228 0.51206 0.0
H285 H 1.00059 0.60041 0.53862 0.0
H286 H 0.95686 0.52417 0.55826 0.0
H287 H 0.87917 0.49317 0.57729 0.0
H288 H 0.51765 0.17928 0.95794 0.0
H289 H 0.47286 0.0944 0.96976 0.0
H290 H 0.59769 0.13941 0.02358 0.0
H291 H 0.64073 0.22545 0.01322 0.0
H292 H 0.48285 0.01823 0.96563 0.0
H293 H 0.49681 0.09037 0.07174 0.0
H294 H 0.51609 0.1327 0.04886 0.0
H295 H 0.55681 0.11531 0.06126 0.0
C296 C 0.53536 0.17076 0.97224 0.0
C297 C 0.58234 0.20864 0.98483 0.0
C298 C 0.5098 0.12239 0.97906 0.0
C299 C 0.53123 0.11078 0.99819 0.0
C300 C 0.5794 0.14794 1.00965 0.0
H301 H 0.42416 0.79492 1.01118 0.0
H302 H 0.46714 0.8808 1.0008 0.0
C303 C 0.60428 0.19683 1.00346 0.0
C304 C 0.50348 0.05965 1.00581 0.0
H305 H 0.47338 1.00179 0.05847 0.0
C306 C 0.48039 0.01476 0.98595 0.0
C307 C 0.499 0.05476 0.0323 0.0
C308 C 0.51802 0.10092 0.0547 0.0
C309 C 0.45393 0.96537 0.99178 0.0
C310 C 0.45278 0.96043 0.01829 0.0
C311 C 0.47493 1.00531 0.03815 0.0
C312 C 0.42883 0.90923 0.02584 0.0
C313 C 0.42648 0.91932 0.96936 0.0
C314 C 0.39537 0.8975 0.04476 0.0
C315 C 0.37238 0.84906 0.05156 0.0
C316 C 0.38177 0.81132 0.03915 0.0
C317 C 0.41588 0.82331 0.0207 0.0
C318 C 0.43997 0.87215 0.01454 0.0
H319 H 0.41626 0.9302 0.9523 0.0
H320 H 0.45051 0.90445 0.96284 0.0
H321 H 0.39247 0.8878 0.97512 0.0
H322 H 0.38639 0.92549 0.05396 0.0
H323 H 0.34607 0.84048 0.06582 0.0
H324 H 0.67784 0.46864 0.53911 0.0
H325 H 0.63721 0.5106 0.52467 0.0
H326 H 0.52733 0.44546 0.57721 0.0
H327 H 0.56683 0.40277 0.59109 0.0
H328 H 0.48592 0.42364 0.5286 0.0
H329 H 0.62585 0.63333 0.5561 0.0
H330 H 0.64699 0.59588 0.53667 0.0
H331 H 0.63111 0.58575 0.56901 0.0
C332 C 0.64585 0.46458 0.54808 0.0
C333 C 0.62551 0.43235 0.5662 0.0
C334 C 0.62259 0.48855 0.53982 0.0
C335 C 0.57913 0.48135 0.54988 0.0
C336 C 0.56059 0.45149 0.56904 0.0
H337 H 0.42264 0.63464 0.52389 0.0
H338 H 0.46862 0.60245 0.54284 0.0
C339 C 0.58335 0.42722 0.57703 0.0
C340 C 0.55009 0.50044 0.53898 0.0
H341 H 0.55444 0.60878 0.52869 0.0
C342 C 0.50096 0.4642 0.52873 0.0
C343 C 0.56939 0.55337 0.5393 0.0
C344 C 0.62108 0.59446 0.55107 0.0
C345 C 0.47077 0.4792 0.51874 0.0
C346 C 0.4904 0.53191 0.51837 0.0
C347 C 0.53942 0.56833 0.52881 0.0
C348 C 0.46071 0.54988 0.50711 0.0
C349 C 0.41777 0.43845 0.50914 0.0
C350 C 0.4406 0.53086 0.48076 0.0
C351 C 0.41392 0.5488 0.46995 0.0
C352 C 0.40712 0.58661 0.48518 0.0
C353 C 0.42679 0.6052 0.51165 0.0
C354 C 0.45341 0.58711 0.52248 0.0
H355 H 0.40501 0.40367 0.51763 0.0
H356 H 0.39341 0.45362 0.51411 0.0
H357 H 0.41393 0.42617 0.48754 0.0
H358 H 0.44647 0.5029 0.46833 0.0
H359 H 0.39983 0.53406 0.44942 0.0
H360 H 0.17945 0.68476 0.05834 0.0
H361 H 0.09211 0.62824 0.04121 0.0
H362 H 0.10605 0.49499 0.0331 0.0
H363 H 0.19189 0.55096 0.05146 0.0
H364 H 0.05098 0.56703 0.99484 0.0
H365 H 0.98678 0.4463 0.06958 0.0
H366 H 0.0469 0.50401 0.07349 0.0
H367 H 0.03547 0.444 0.05385 0.0
C368 C 0.16335 0.64332 0.05316 0.0
C369 C 0.19217 0.62198 0.05541 0.0
C370 C 0.11375 0.61113 0.0433 0.0
C371 C 0.0924 0.55727 0.036 0.0
C372 C 0.12122 0.53616 0.03906 0.0
H373 H 0.79756 0.36852 0.94416 0.0
H374 H 0.88623 0.40594 0.95452 0.0
C375 C 0.17042 0.56819 0.04916 0.0
C376 C 0.04041 0.52328 0.02458 0.0
H377 H 0.93104 0.41813 0.03186 0.0
C378 C 0.02475 0.53438 1.00287 0.0
C379 C 1.00621 0.48066 0.03513 0.0
C380 C 0.01956 0.46834 0.05944 0.0
C381 C 0.97555 0.50499 0.99185 0.0
C382 C 0.9414 0.46259 1.00249 0.0
C383 C 0.95749 0.45029 0.02354 0.0
C384 C 0.88778 0.43634 0.99547 0.0
C385 C 0.96013 0.52121 0.96985 0.0
C386 C 0.85929 0.43952 0.01514 0.0
C387 C 0.80924 0.41776 1.00946 0.0
C388 C 0.78604 0.39242 0.9838 0.0
C389 C 0.81429 0.38791 0.96407 0.0
C390 C 0.86494 0.40961 0.96991 0.0
H391 H 0.98952 0.55973 0.96684 0.0
H392 H 0.95136 0.49256 0.95139 0.0
H393 H 0.92671 0.52252 0.97381 0.0
H394 H 0.87604 0.45996 0.03497 0.0
H395 H 0.78903 0.42198 0.02534 0.0
H396 H 0.63052 0.22203 0.52353 0.0
H397 H 0.59885 0.13097 0.5065 0.0
H398 H 0.6913 0.13298 0.56759 0.0
H399 H 0.71641 0.22231 0.58701 0.0
H400 H 0.62842 0.07855 0.48594 0.0
H401 H 0.57724 1.01051 0.579 0.0
H402 H 0.60293 0.07713 0.57792 0.0
H403 H 0.6422 0.05179 0.57903 0.0
C404 C 0.64194 0.20208 0.53405 0.0
C405 C 0.67233 0.2276 0.55775 0.0
C406 C 0.62501 0.15025 0.52391 0.0
C407 C 0.64072 0.12346 0.53631 0.0
C408 C 0.67579 0.15106 0.55849 0.0
H409 H 0.50745 0.80487 0.44045 0.0
H410 H 0.57172 0.89418 0.4599 0.0
C411 C 0.69071 0.2024 0.56942 0.0
C412 C 0.61984 0.06712 0.52557 0.0
H413 H 0.56351 0.94848 0.5416 0.0
C414 C 0.61341 0.05015 0.49821 0.0
C415 C 0.60177 0.02953 0.54139 0.0
C416 C 0.60603 0.04311 0.5709 0.0
C417 C 0.58563 0.99751 0.48615 0.0
C418 C 0.56617 0.95991 0.50198 0.0
C419 C 0.57685 0.97688 0.52933 0.0
C420 C 0.53071 0.90356 0.49123 0.0
C421 C 0.57613 0.98393 0.45664 0.0
C422 C 0.48826 0.87668 0.50365 0.0
C423 C 0.45333 0.82485 0.49348 0.0
C424 C 0.45813 0.79942 0.46974 0.0
C425 C 0.50169 0.82471 0.45806 0.0
C426 C 0.53813 0.87604 0.46902 0.0
H427 H 0.57988 0.01653 0.44857 0.0
H428 H 0.60359 0.97529 0.44846 0.0
H429 H 0.53898 0.94991 0.44966 0.0
H430 H 0.48142 0.8959 0.52109 0.0
H431 H 0.42199 0.80483 0.50402 0.0
loop_
_geom_bond_atom_site_label_1
_geom_bond_atom_site_label_2
_geom_bond_distance
_geom_bond_site_symmetry_2
_ccdc_geom_bond_type
Mn0 O5 2.095 . S
Mn0 O15 2.162 . S
Mn0 O16 2.297 . S
Mn0 O24 2.385 . S
Mn0 O25 2.209 . S
Mn0 O26 2.094 . S
Mn1 O6 2.121 . S
Mn1 N8 2.257 1_554 S
Mn1 N17 2.282 1_554 S
Mn1 O25 2.215 . S
Mn1 O27 2.117 . S
C2 O24 1.234 . S
C2 O25 1.283 . S
C3 O15 1.281 . S
C3 O16 1.236 . S
C4 O26 1.240 . S
C4 O27 1.264 . S
O5 Mn0 2.095 . S
O5 C14 1.250 . S
O6 Mn1 2.121 . S
O6 C14 1.258 . S
C7 N8 1.326 . S
C7 C11 1.460 . S
C7 H13 0.929 . S
N8 Mn1 2.257 1_556 S
N8 C7 1.326 . S
N8 C12 1.362 . S
C9 C10 1.258 . S
C9 C12 1.431 . S
C9 C29 1.449 . S
C10 C9 1.258 . S
C10 C11 1.477 . S
C10 H30 0.931 . S
C11 C7 1.460 . S
C11 C10 1.477 . S
C11 H31 0.930 . S
C12 N8 1.362 . S
C12 C9 1.431 . S
C12 C22 1.476 . S
H13 C7 0.929 . S
C14 O5 1.250 . S
C14 O6 1.258 . S
O15 Mn0 2.162 . S
O15 C3 1.281 . S
O16 Mn0 2.297 . S
O16 C3 1.236 . S
N17 Mn1 2.282 1_556 S
N17 C18 1.328 . S
N17 C22 1.318 . S
C18 N17 1.328 . S
C18 C19 1.457 . S
C18 H23 0.929 1_556 S
C19 C18 1.457 . S
C19 C20 1.291 . S
C19 H32 0.931 . S
C20 C19 1.291 . S
C20 C21 1.373 . S
C20 H33 0.929 . S
C21 C20 1.373 . S
C21 C22 1.396 . S
C21 C28 1.403 . S
C22 C12 1.476 . S
C22 N17 1.318 . S
C22 C21 1.396 . S
H23 C18 0.929 1_554 S
O24 Mn0 2.385 . S
O24 C2 1.234 . S
O25 Mn0 2.209 . S
O25 Mn1 2.215 . S
O25 C2 1.283 . S
O26 Mn0 2.094 . S
O26 C4 1.240 . S
O27 Mn1 2.117 . S
O27 C4 1.264 . S
C28 C21 1.403 . S
C28 C29 1.399 . S
C28 H34 0.929 . S
C29 C9 1.449 . S
C29 C28 1.399 . S
C29 H35 0.930 . S
H30 C10 0.931 . S
H31 C11 0.930 . S
H32 C19 0.931 . S
H33 C20 0.929 . S
H34 C28 0.929 . S
H35 C29 0.930 . S
Mn36 O41 2.095 . S
Mn36 O51 2.162 . S
Mn36 O52 2.297 . S
Mn36 O60 2.385 . S
Mn36 O61 2.209 . S
Mn36 O62 2.094 . S
Mn37 O42 2.121 . S
Mn37 N44 2.257 . S
Mn37 N53 2.282 . S
Mn37 O61 2.215 . S
Mn37 O63 2.117 . S
C38 O60 1.234 . S
C38 O61 1.283 . S
C39 O51 1.281 . S
C39 O52 1.236 . S
C40 O62 1.240 . S
C40 O63 1.264 . S
O41 Mn36 2.095 . S
O41 C50 1.250 . S
O42 Mn37 2.121 . S
O42 C50 1.258 . S
C43 N44 1.326 . S
C43 C47 1.460 . S
C43 H49 0.929 . S
N44 Mn37 2.257 . S
N44 C43 1.326 . S
N44 C48 1.362 . S
C45 C46 1.258 . S
C45 C48 1.431 . S
C45 C65 1.449 . S
C46 C45 1.258 . S
C46 C47 1.477 . S
C46 H66 0.931 . S
C47 C43 1.460 . S
C47 C46 1.477 . S
C47 H67 0.930 . S
C48 N44 1.362 . S
C48 C45 1.431 . S
C48 C58 1.476 . S
H49 C43 0.929 . S
C50 O41 1.250 . S
C50 O42 1.258 . S
O51 Mn36 2.162 . S
O51 C39 1.281 . S
O52 Mn36 2.297 . S
O52 C39 1.236 . S
N53 Mn37 2.282 . S
N53 C54 1.328 . S
N53 C58 1.318 . S
C54 N53 1.328 . S
C54 C55 1.457 . S
C54 H59 0.929 . S
C55 C54 1.457 . S
C55 C56 1.291 . S
C55 H68 0.931 . S
C56 C55 1.291 . S
C56 C57 1.373 . S
C56 H69 0.929 . S
C57 C56 1.373 . S
C57 C58 1.396 . S
C57 C64 1.403 . S
C58 C48 1.476 . S
C58 N53 1.318 . S
C58 C57 1.396 . S
H59 C54 0.929 . S
O60 Mn36 2.385 . S
O60 C38 1.234 . S
O61 Mn36 2.209 . S
O61 Mn37 2.215 . S
O61 C38 1.283 . S
O62 Mn36 2.094 . S
O62 C40 1.240 . S
O63 Mn37 2.117 . S
O63 C40 1.264 . S
C64 C57 1.403 . S
C64 C65 1.399 . S
C64 H70 0.929 . S
C65 C45 1.449 . S
C65 C64 1.399 . S
C65 H71 0.930 . S
H66 C46 0.931 . S
H67 C47 0.930 . S
H68 C55 0.931 . S
H69 C56 0.929 . S
H70 C64 0.929 . S
H71 C65 0.930 . S
Mn72 O77 2.095 . S
Mn72 O87 2.162 . S
Mn72 O88 2.297 . S
Mn72 O96 2.385 . S
Mn72 O97 2.209 . S
Mn72 O98 2.094 . S
Mn73 O78 2.121 . S
Mn73 N80 2.257 . S
Mn73 N89 2.282 . S
Mn73 O97 2.215 . S
Mn73 O99 2.117 . S
C74 O96 1.234 . S
C74 O97 1.283 . S
C75 O87 1.281 . S
C75 O88 1.236 . S
C76 O98 1.240 . S
C76 O99 1.264 . S
O77 Mn72 2.095 . S
O77 C86 1.250 . S
O78 Mn73 2.121 . S
O78 C86 1.258 . S
C79 N80 1.326 . S
C79 C83 1.460 . S
C79 H85 0.929 . S
N80 Mn73 2.257 . S
N80 C79 1.326 . S
N80 C84 1.362 . S
C81 C82 1.258 . S
C81 C84 1.431 . S
C81 C101 1.449 . S
C82 C81 1.258 . S
C82 C83 1.477 . S
C82 H102 0.931 . S
C83 C79 1.460 . S
C83 C82 1.477 . S
C83 H103 0.930 . S
C84 N80 1.362 . S
C84 C81 1.431 . S
C84 C94 1.476 . S
H85 C79 0.929 . S
C86 O77 1.250 . S
C86 O78 1.258 . S
O87 Mn72 2.162 . S
O87 C75 1.281 . S
O88 Mn72 2.297 . S
O88 C75 1.236 . S
N89 Mn73 2.282 . S
N89 C90 1.328 . S
N89 C94 1.318 . S
C90 N89 1.328 . S
C90 C91 1.457 . S
C90 H95 0.929 . S
C91 C90 1.457 . S
C91 C92 1.291 . S
C91 H104 0.931 . S
C92 C91 1.291 . S
C92 C93 1.373 . S
C92 H105 0.929 . S
C93 C92 1.373 . S
C93 C94 1.396 . S
C93 C100 1.403 . S
C94 C84 1.476 . S
C94 N89 1.318 . S
C94 C93 1.396 . S
H95 C90 0.929 . S
O96 Mn72 2.385 . S
O96 C74 1.234 . S
O97 Mn72 2.209 . S
O97 Mn73 2.215 . S
O97 C74 1.283 . S
O98 Mn72 2.094 . S
O98 C76 1.240 . S
O99 Mn73 2.117 . S
O99 C76 1.264 . S
C100 C93 1.403 . S
C100 C101 1.399 . S
C100 H106 0.929 . S
C101 C81 1.449 . S
C101 C100 1.399 . S
C101 H107 0.930 . S
H102 C82 0.931 . S
H103 C83 0.930 . S
H104 C91 0.931 . S
H105 C92 0.929 . S
H106 C100 0.929 . S
H107 C101 0.930 . S
Mn108 O113 2.095 . S
Mn108 O123 2.162 . S
Mn108 O124 2.297 . S
Mn108 O132 2.385 . S
Mn108 O133 2.209 . S
Mn108 O134 2.094 . S
Mn109 O114 2.121 . S
Mn109 N116 2.257 1_556 S
Mn109 N125 2.282 1_556 S
Mn109 O133 2.215 . S
Mn109 O135 2.117 . S
C110 O132 1.234 . S
C110 O133 1.283 . S
C111 O123 1.281 . S
C111 O124 1.236 . S
C112 O134 1.240 . S
C112 O135 1.264 . S
O113 Mn108 2.095 . S
O113 C122 1.250 . S
O114 Mn109 2.121 . S
O114 C122 1.258 . S
C115 N116 1.326 . S
C115 C119 1.460 . S
C115 H121 0.929 . S
N116 Mn109 2.257 1_554 S
N116 C115 1.326 . S
N116 C120 1.362 . S
C117 C118 1.258 . S
C117 C120 1.431 . S
C117 C137 1.449 . S
C118 C117 1.258 . S
C118 C119 1.477 . S
C118 H138 0.931 . S
C119 C115 1.460 . S
C119 C118 1.477 . S
C119 H139 0.930 . S
C120 N116 1.362 . S
C120 C117 1.431 . S
C120 C130 1.476 . S
H121 C115 0.929 . S
C122 O113 1.250 . S
C122 O114 1.258 . S
O123 Mn108 2.162 . S
O123 C111 1.281 . S
O124 Mn108 2.297 . S
O124 C111 1.236 . S
N125 Mn109 2.282 1_554 S
N125 C126 1.328 . S
N125 C130 1.318 . S
C126 N125 1.328 . S
C126 C127 1.457 . S
C126 H131 0.929 1_554 S
C127 C126 1.457 . S
C127 C128 1.291 . S
C127 H140 0.931 . S
C128 C127 1.291 . S
C128 C129 1.373 . S
C128 H141 0.929 . S
C129 C128 1.373 . S
C129 C130 1.396 . S
C129 C136 1.403 . S
C130 C120 1.476 . S
C130 N125 1.318 . S
C130 C129 1.396 . S
H131 C126 0.929 1_556 S
O132 Mn108 2.385 . S
O132 C110 1.234 . S
O133 Mn108 2.209 . S
O133 Mn109 2.215 . S
O133 C110 1.283 . S
O134 Mn108 2.094 . S
O134 C112 1.240 . S
O135 Mn109 2.117 . S
O135 C112 1.264 . S
C136 C129 1.403 . S
C136 C137 1.399 . S
C136 H142 0.929 . S
C137 C117 1.449 . S
C137 C136 1.399 . S
C137 H143 0.930 . S
H138 C118 0.931 . S
H139 C119 0.930 . S
H140 C127 0.931 . S
H141 C128 0.929 . S
H142 C136 0.929 . S
H143 C137 0.930 . S
H144 C152 0.929 . S
H145 C154 0.930 . S
H146 C156 0.930 . S
H147 C159 0.929 . S
H148 C162 0.930 . S
H149 C164 0.960 . S
H150 C164 0.960 . S
H151 C164 0.960 . S
C152 H144 0.929 . S
C152 C153 1.377 . S
C152 C154 1.384 . S
C153 C152 1.377 . S
C153 C159 1.390 . S
C154 H145 0.930 . S
C154 C152 1.384 . S
C154 C155 1.372 . S
C155 C154 1.372 . S
C155 C156 1.400 . S
C155 C160 1.490 . S
C156 H146 0.930 . S
C156 C155 1.400 . S
C156 C159 1.386 . S
H157 C173 0.930 . S
H158 C174 0.931 . S
C159 H147 0.929 . S
C159 C153 1.390 . S
C159 C156 1.386 . S
C160 C155 1.490 . S
C160 C162 1.395 . S
C160 C163 1.403 . S
H161 C167 0.930 . S
C162 H148 0.930 . S
C162 C160 1.395 . S
C162 C165 1.403 . S
C163 C160 1.403 . S
C163 C164 1.524 . S
C163 C167 1.400 . S
C164 H149 0.960 . S
C164 H150 0.960 . S
C164 H151 0.960 . S
C164 C163 1.524 . S
C165 C162 1.403 . S
C165 C166 1.392 . S
C165 C169 1.495 . S
C166 C165 1.392 . S
C166 C167 1.385 . S
C166 C168 1.478 . S
C167 H161 0.930 . S
C167 C163 1.400 . S
C167 C166 1.385 . S
C168 C166 1.478 . S
C168 C170 1.381 . S
C168 C174 1.383 . S
C169 C165 1.495 . S
C169 H175 0.959 . S
C169 H176 0.961 . S
C169 H177 0.960 . S
C170 C168 1.381 . S
C170 C171 1.394 . S
C170 H178 0.930 . S
C171 C170 1.394 . S
C171 C172 1.383 . S
C171 H179 0.929 . S
C172 C171 1.383 . S
C172 C173 1.377 . S
C173 H157 0.930 . S
C173 C172 1.377 . S
C173 C174 1.379 . S
C174 H158 0.931 . S
C174 C168 1.383 . S
C174 C173 1.379 . S
H175 C169 0.959 . S
H176 C169 0.961 . S
H177 C169 0.960 . S
H178 C170 0.930 . S
H179 C171 0.929 . S
H180 C188 0.929 . S
H181 C190 0.930 . S
H182 C192 0.930 . S
H183 C195 0.929 . S
H184 C198 0.930 . S
H185 C200 0.960 . S
H186 C200 0.960 . S
H187 C200 0.960 . S
C188 H180 0.929 . S
C188 C189 1.377 . S
C188 C190 1.384 . S
C189 C188 1.377 . S
C189 C195 1.390 . S
C190 H181 0.930 . S
C190 C188 1.384 . S
C190 C191 1.372 . S
C191 C190 1.372 . S
C191 C192 1.400 . S
C191 C196 1.490 . S
C192 H182 0.930 . S
C192 C191 1.400 . S
C192 C195 1.386 . S
H193 C209 0.930 . S
H194 C210 0.931 . S
C195 H183 0.929 . S
C195 C189 1.390 . S
C195 C192 1.386 . S
C196 C191 1.490 . S
C196 C198 1.395 . S
C196 C199 1.403 . S
H197 C203 0.930 . S
C198 H184 0.930 . S
C198 C196 1.395 . S
C198 C201 1.403 . S
C199 C196 1.403 . S
C199 C200 1.524 . S
C199 C203 1.400 . S
C200 H185 0.960 . S
C200 H186 0.960 . S
C200 H187 0.960 . S
C200 C199 1.524 . S
C201 C198 1.403 . S
C201 C202 1.392 . S
C201 C205 1.495 . S
C202 C201 1.392 . S
C202 C203 1.385 . S
C202 C204 1.478 . S
C203 H197 0.930 . S
C203 C199 1.400 . S
C203 C202 1.385 . S
C204 C202 1.478 . S
C204 C206 1.381 . S
C204 C210 1.383 . S
C205 C201 1.495 . S
C205 H211 0.959 . S
C205 H212 0.961 . S
C205 H213 0.960 . S
C206 C204 1.381 . S
C206 C207 1.394 . S
C206 H214 0.930 . S
C207 C206 1.394 . S
C207 C208 1.383 . S
C207 H215 0.929 . S
C208 C207 1.383 . S
C208 C209 1.377 . S
C209 H193 0.930 . S
C209 C208 1.377 . S
C209 C210 1.379 . S
C210 H194 0.931 . S
C210 C204 1.383 . S
C210 C209 1.379 . S
H211 C205 0.959 . S
H212 C205 0.961 . S
H213 C205 0.960 . S
H214 C206 0.930 . S
H215 C207 0.929 . S
H216 C224 0.929 . S
H217 C226 0.930 . S
H218 C228 0.930 . S
H219 C231 0.929 . S
H220 C234 0.930 . S
H221 C236 0.960 . S
H222 C236 0.960 . S
H223 C236 0.960 . S
C224 H216 0.929 . S
C224 C225 1.377 . S
C224 C226 1.384 . S
C225 C224 1.377 . S
C225 C231 1.390 . S
C226 H217 0.930 . S
C226 C224 1.384 . S
C226 C227 1.372 . S
C227 C226 1.372 . S
C227 C228 1.400 . S
C227 C232 1.490 . S
C228 H218 0.930 . S
C228 C227 1.400 . S
C228 C231 1.386 . S
H229 C245 0.930 . S
H230 C246 0.931 . S
C231 H219 0.929 . S
C231 C225 1.390 . S
C231 C228 1.386 . S
C232 C227 1.490 . S
C232 C234 1.395 . S
C232 C235 1.403 1_554 S
H233 C239 0.930 . S
C234 H220 0.930 . S
C234 C232 1.395 . S
C234 C237 1.403 . S
C235 C232 1.403 1_556 S
C235 C236 1.524 . S
C235 C239 1.400 . S
C236 H221 0.960 . S
C236 H222 0.960 . S
C236 H223 0.960 . S
C236 C235 1.524 . S
C237 C234 1.403 . S
C237 C238 1.392 1_554 S
C237 C241 1.495 . S
C238 C237 1.392 1_556 S
C238 C239 1.385 . S
C238 C240 1.478 . S
C239 H233 0.930 . S
C239 C235 1.400 . S
C239 C238 1.385 . S
C240 C238 1.478 . S
C240 C242 1.381 . S
C240 C246 1.383 . S
C241 C237 1.495 . S
C241 H247 0.959 . S
C241 H248 0.961 . S
C241 H249 0.960 . S
C242 C240 1.381 . S
C242 C243 1.394 . S
C242 H250 0.930 . S
C243 C242 1.394 . S
C243 C244 1.383 . S
C243 H251 0.929 . S
C244 C243 1.383 . S
C244 C245 1.377 . S
C245 H229 0.930 . S
C245 C244 1.377 . S
C245 C246 1.379 . S
C246 H230 0.931 . S
C246 C240 1.383 . S
C246 C245 1.379 . S
H247 C241 0.959 . S
H248 C241 0.961 . S
H249 C241 0.960 . S
H250 C242 0.930 . S
H251 C243 0.929 . S
H252 C260 0.929 . S
H253 C262 0.930 . S
H254 C264 0.930 . S
H255 C267 0.929 . S
H256 C270 0.930 . S
H257 C272 0.960 . S
H258 C272 0.960 . S
H259 C272 0.960 . S
C260 H252 0.929 . S
C260 C261 1.377 . S
C260 C262 1.384 . S
C261 C260 1.377 . S
C261 C267 1.390 . S
C262 H253 0.930 . S
C262 C260 1.384 . S
C262 C263 1.372 . S
C263 C262 1.372 . S
C263 C264 1.400 . S
C263 C268 1.490 . S
C264 H254 0.930 . S
C264 C263 1.400 . S
C264 C267 1.386 . S
H265 C281 0.930 . S
H266 C282 0.931 . S
C267 H255 0.929 . S
C267 C261 1.390 . S
C267 C264 1.386 . S
C268 C263 1.490 . S
C268 C270 1.395 . S
C268 C271 1.403 . S
H269 C275 0.930 1_655 S
C270 H256 0.930 . S
C270 C268 1.395 . S
C270 C273 1.403 . S
C271 C268 1.403 . S
C271 C272 1.524 . S
C271 C275 1.400 . S
C272 H257 0.960 . S
C272 H258 0.960 . S
C272 H259 0.960 . S
C272 C271 1.524 . S
C273 C270 1.403 . S
C273 C274 1.392 1_455 S
C273 C277 1.495 . S
C274 C273 1.392 1_655 S
C274 C275 1.385 1_655 S
C274 C276 1.478 . S
C275 H269 0.930 1_455 S
C275 C271 1.400 . S
C275 C274 1.385 1_455 S
C276 C274 1.478 . S
C276 C278 1.381 . S
C276 C282 1.383 . S
C277 C273 1.495 . S
C277 H283 0.959 . S
C277 H284 0.961 1_455 S
C277 H285 0.960 . S
C278 C276 1.381 . S
C278 C279 1.394 . S
C278 H286 0.930 . S
C279 C278 1.394 . S
C279 C280 1.383 . S
C279 H287 0.929 . S
C280 C279 1.383 . S
C280 C281 1.377 . S
C281 H265 0.930 . S
C281 C280 1.377 . S
C281 C282 1.379 . S
C282 H266 0.931 . S
C282 C276 1.383 . S
C282 C281 1.379 . S
H283 C277 0.959 . S
H284 C277 0.961 1_655 S
H285 C277 0.960 . S
H286 C278 0.930 . S
H287 C279 0.929 . S
H288 C296 0.929 . S
H289 C298 0.930 . S
H290 C300 0.930 . S
H291 C303 0.929 . S
H292 C306 0.930 . S
H293 C308 0.960 . S
H294 C308 0.960 . S
H295 C308 0.960 . S
C296 H288 0.929 . S
C296 C297 1.377 . S
C296 C298 1.384 . S
C297 C296 1.377 . S
C297 C303 1.390 . S
C298 H289 0.930 . S
C298 C296 1.384 . S
C298 C299 1.372 . S
C299 C298 1.372 . S
C299 C300 1.400 . S
C299 C304 1.490 . S
C300 H290 0.930 . S
C300 C299 1.400 . S
C300 C303 1.386 . S
H301 C317 0.930 . S
H302 C318 0.931 . S
C303 H291 0.929 . S
C303 C297 1.390 . S
C303 C300 1.386 . S
C304 C299 1.490 . S
C304 C306 1.395 . S
C304 C307 1.403 1_556 S
H305 C311 0.930 . S
C306 H292 0.930 . S
C306 C304 1.395 . S
C306 C309 1.403 1_545 S
C307 C304 1.403 1_554 S
C307 C308 1.524 . S
C307 C311 1.400 1_545 S
C308 H293 0.960 . S
C308 H294 0.960 . S
C308 H295 0.960 . S
C308 C307 1.524 . S
C309 C306 1.403 1_565 S
C309 C310 1.392 1_556 S
C309 C313 1.495 . S
C310 C309 1.392 1_554 S
C310 C311 1.385 . S
C310 C312 1.478 . S
C311 H305 0.930 . S
C311 C307 1.400 1_565 S
C311 C310 1.385 . S
C312 C310 1.478 . S
C312 C314 1.381 . S
C312 C318 1.383 . S
C313 C309 1.495 . S
C313 H319 0.959 . S
C313 H320 0.961 . S
C313 H321 0.960 . S
C314 C312 1.381 . S
C314 C315 1.394 . S
C314 H322 0.930 . S
C315 C314 1.394 . S
C315 C316 1.383 . S
C315 H323 0.929 . S
C316 C315 1.383 . S
C316 C317 1.377 . S
C317 H301 0.930 . S
C317 C316 1.377 . S
C317 C318 1.379 . S
C318 H302 0.931 . S
C318 C312 1.383 . S
C318 C317 1.379 . S
H319 C313 0.959 . S
H320 C313 0.961 . S
H321 C313 0.960 . S
H322 C314 0.930 . S
H323 C315 0.929 . S
H324 C332 0.929 . S
H325 C334 0.930 . S
H326 C336 0.930 . S
H327 C339 0.929 . S
H328 C342 0.930 . S
H329 C344 0.960 . S
H330 C344 0.960 . S
H331 C344 0.960 . S
C332 H324 0.929 . S
C332 C333 1.377 . S
C332 C334 1.384 . S
C333 C332 1.377 . S
C333 C339 1.390 . S
C334 H325 0.930 . S
C334 C332 1.384 . S
C334 C335 1.372 . S
C335 C334 1.372 . S
C335 C336 1.400 . S
C335 C340 1.490 . S
C336 H326 0.930 . S
C336 C335 1.400 . S
C336 C339 1.386 . S
H337 C353 0.930 . S
H338 C354 0.931 . S
C339 H327 0.929 . S
C339 C333 1.390 . S
C339 C336 1.386 . S
C340 C335 1.490 . S
C340 C342 1.395 . S
C340 C343 1.403 . S
H341 C347 0.930 . S
C342 H328 0.930 . S
C342 C340 1.395 . S
C342 C345 1.403 . S
C343 C340 1.403 . S
C343 C344 1.524 . S
C343 C347 1.400 . S
C344 H329 0.960 . S
C344 H330 0.960 . S
C344 H331 0.960 . S
C344 C343 1.524 . S
C345 C342 1.403 . S
C345 C346 1.392 . S
C345 C349 1.495 . S
C346 C345 1.392 . S
C346 C347 1.385 . S
C346 C348 1.478 . S
C347 H341 0.930 . S
C347 C343 1.400 . S
C347 C346 1.385 . S
C348 C346 1.478 . S
C348 C350 1.381 . S
C348 C354 1.383 . S
C349 C345 1.495 . S
C349 H355 0.959 . S
C349 H356 0.961 . S
C349 H357 0.960 . S
C350 C348 1.381 . S
C350 C351 1.394 . S
C350 H358 0.930 . S
C351 C350 1.394 . S
C351 C352 1.383 . S
C351 H359 0.929 . S
C352 C351 1.383 . S
C352 C353 1.377 . S
C353 H337 0.930 . S
C353 C352 1.377 . S
C353 C354 1.379 . S
C354 H338 0.931 . S
C354 C348 1.383 . S
C354 C353 1.379 . S
H355 C349 0.959 . S
H356 C349 0.961 . S
H357 C349 0.960 . S
H358 C350 0.930 . S
H359 C351 0.929 . S
H360 C368 0.929 . S
H361 C370 0.930 . S
H362 C372 0.930 1_556 S
H363 C375 0.929 . S
H364 C378 0.930 1_455 S
H365 C380 0.960 . S
H366 C380 0.960 1_455 S
H367 C380 0.960 1_455 S
C368 H360 0.929 . S
C368 C369 1.377 . S
C368 C370 1.384 . S
C369 C368 1.377 . S
C369 C375 1.390 . S
C370 H361 0.930 . S
C370 C368 1.384 . S
C370 C371 1.372 . S
C371 C370 1.372 . S
C371 C372 1.400 . S
C371 C376 1.490 . S
C372 H362 0.930 1_554 S
C372 C371 1.400 . S
C372 C375 1.386 . S
H373 C389 0.930 . S
H374 C390 0.931 . S
C375 H363 0.929 . S
C375 C369 1.390 . S
C375 C372 1.386 . S
C376 C371 1.490 . S
C376 C378 1.395 1_455 S
C376 C379 1.403 1_455 S
H377 C383 0.933 1_556 S
C378 H364 0.930 1_655 S
C378 C376 1.395 1_655 S
C378 C381 1.403 1_554 S
C379 C376 1.403 1_655 S
C379 C380 1.524 . S
C379 C383 1.410 . S
C380 H365 0.960 . S
C380 H366 0.960 1_655 S
C380 H367 0.960 1_655 S
C380 C379 1.524 . S
C381 C378 1.403 1_556 S
C381 C382 1.392 . S
C381 C385 1.495 . S
C382 C381 1.392 . S
C382 C383 1.374 1_556 S
C382 C384 1.478 . S
C383 H377 0.933 1_554 S
C383 C379 1.410 . S
C383 C382 1.374 1_554 S
C384 C382 1.478 . S
C384 C386 1.381 . S
C384 C390 1.383 . S
C385 C381 1.495 . S
C385 H391 0.959 . S
C385 H392 0.961 . S
C385 H393 0.981 . S
C386 C384 1.381 . S
C386 C387 1.394 . S
C386 H394 0.930 1_556 S
C387 C386 1.394 . S
C387 C388 1.383 . S
C387 H395 0.929 . S
C388 C387 1.383 . S
C388 C389 1.377 . S
C389 H373 0.930 . S
C389 C388 1.377 . S
C389 C390 1.379 . S
C390 H374 0.931 . S
C390 C384 1.383 . S
C390 C389 1.379 . S
H391 C385 0.959 . S
H392 C385 0.961 . S
H393 C385 0.981 . S
H394 C386 0.930 1_554 S
H395 C387 0.929 . S
H396 C404 0.929 . S
H397 C406 0.930 . S
H398 C408 0.930 . S
H399 C411 0.929 . S
H400 C414 0.930 . S
H401 C416 0.960 . S
H402 C416 0.960 . S
H403 C416 0.960 . S
C404 H396 0.929 . S
C404 C405 1.377 . S
C404 C406 1.384 . S
C405 C404 1.377 . S
C405 C411 1.390 . S
C406 H397 0.930 . S
C406 C404 1.384 . S
C406 C407 1.372 . S
C407 C406 1.372 . S
C407 C408 1.400 . S
C407 C412 1.490 . S
C408 H398 0.930 . S
C408 C407 1.400 . S
C408 C411 1.386 . S
H409 C425 0.930 . S
H410 C426 0.931 . S
C411 H399 0.929 . S
C411 C405 1.390 . S
C411 C408 1.386 . S
C412 C407 1.490 . S
C412 C414 1.395 . S
C412 C415 1.403 . S
H413 C419 0.930 . S
C414 H400 0.930 . S
C414 C412 1.395 . S
C414 C417 1.403 1_545 S
C415 C412 1.403 . S
C415 C416 1.524 . S
C415 C419 1.400 1_545 S
C416 H401 0.960 . S
C416 H402 0.960 . S
C416 H403 0.960 . S
C416 C415 1.524 . S
C417 C414 1.403 1_565 S
C417 C418 1.392 . S
C417 C421 1.495 . S
C418 C417 1.392 . S
C418 C419 1.385 . S
C418 C420 1.478 . S
C419 H413 0.930 . S
C419 C415 1.400 1_565 S
C419 C418 1.385 . S
C420 C418 1.478 . S
C420 C422 1.381 . S
C420 C426 1.383 . S
C421 C417 1.495 . S
C421 H427 0.959 . S
C421 H428 0.961 . S
C421 H429 0.960 . S
C422 C420 1.381 . S
C422 C423 1.394 . S
C422 H430 0.930 . S
C423 C422 1.394 . S
C423 C424 1.383 . S
C423 H431 0.929 . S
C424 C423 1.383 . S
C424 C425 1.377 . S
C425 H409 0.930 . S
C425 C424 1.377 . S
C425 C426 1.379 . S
C426 H410 0.931 . S
C426 C420 1.383 . S
C426 C425 1.379 . S
H427 C421 0.959 . S
H428 C421 0.961 . S
H429 C421 0.960 . S
H430 C422 0.930 . S
H431 C423 0.929 . S
C153 C3 1.518 . S
C172 C76 1.516 . S
C189 C40 1.517 . S
C208 C111 1.507 . S
C225 C14 1.344 . S
C244 C110 1.389 . S
C261 C86 1.582 . S
C280 C39 1.644 . S
C297 C112 1.737 . S
C316 C4 1.730 . S
C333 C50 1.582 . S
C352 C75 1.642 . S
C369 C2 1.388 . S
C388 C122 1.353 . S
C405 C38 1.284 . S
C424 C74 1.278 . S
