# Generated by pormake.
# Topology sxb, (6)-cn, num edge types: 1
# Building blocks:
#     Node 0, Type 0, BuildingBlock: MIFKUJ_clean_sbu_0, # of connection points: 6
#     Node 1, Type 0, BuildingBlock: MIFKUJ_clean_sbu_0, # of connection points: 6
#     Node 2, Type 0, BuildingBlock: MIFKUJ_clean_sbu_0, # of connection points: 6
#     Node 3, Type 0, BuildingBlock: MIFKUJ_clean_sbu_0, # of connection points: 6
#     Edge 4, Type (0, 0), BuildingBlock: UVAHIK_clean_linker_0, # of connection points: 2
#     Edge 5, Type (0, 0), BuildingBlock: UVAHIK_clean_linker_0, # of connection points: 2
#     Edge 6, Type (0, 0), BuildingBlock: UVAHIK_clean_linker_0, # of connection points: 2
#     Edge 7, Type (0, 0), BuildingBlock: UVAHIK_clean_linker_0, # of connection points: 2
#     Edge 8, Type (0, 0), BuildingBlock: UVAHIK_clean_linker_0, # of connection points: 2
#     Edge 9, Type (0, 0), BuildingBlock: UVAHIK_clean_linker_0, # of connection points: 2
#     Edge 10, Type (0, 0), BuildingBlock: UVAHIK_clean_linker_0, # of connection points: 2
#     Edge 11, Type (0, 0), BuildingBlock: UVAHIK_clean_linker_0, # of connection points: 2
#     Edge 12, Type (0, 0), BuildingBlock: UVAHIK_clean_linker_0, # of connection points: 2
#     Edge 13, Type (0, 0), BuildingBlock: UVAHIK_clean_linker_0, # of connection points: 2
#     Edge 14, Type (0, 0), BuildingBlock: UVAHIK_clean_linker_0, # of connection points: 2
#     Edge 15, Type (0, 0), BuildingBlock: UVAHIK_clean_linker_0, # of connection points: 2
# Relax obj value: 0.017
# Max RMSD: 0.062
# Mean RMSD: 0.050
data_MOF--net-sxb--node1-MIFKUJ_clean_sbu_0--edge1-UVAHIK_clean_linker_0
_symmetry_space_group_name_H-M    P1
_symmetry_Int_Tables_number       1
_symmetry_cell_setting            triclinic
loop_
_symmetry_equiv_pos_as_xyz
'x, y, z'
_cell_length_a     22.250709
_cell_length_b     39.044075
_cell_length_c     36.812844
_cell_angle_alpha  95.754883
_cell_angle_beta   97.034439
_cell_angle_gamma 86.503507
loop_
_atom_site_label
_atom_site_type_symbol
_atom_site_fract_x
_atom_site_fract_y
_atom_site_fract_z
_atom_type_partial_charge
Zn0 Zn 0.06135 0.96254 0.98743 0.0
Zn1 Zn 0.89618 0.02294 0.00283 0.0
C2 C 0.12337 0.89972 -0.00199 0.0
O3 O 0.15218 0.92178 0.02235 0.0
C4 C 0.83924 0.08751 0.99207 0.0
O5 O 0.80678 0.06645 0.96848 0.0
O6 O 0.13267 0.98551 0.97535 0.0
O7 O 0.98505 0.98285 0.96119 0.0
O8 O 0.89844 0.01038 0.94813 0.0
C9 C 0.16498 0.97177 0.95118 0.0
O10 O 0.14781 0.94339 0.93139 0.0
O11 O 0.07716 0.91078 0.97773 0.0
C12 C 0.79317 0.01756 0.04074 0.0
O13 O 0.81525 0.04441 0.06132 0.0
O14 O 0.82267 0.00293 0.01562 0.0
O15 O 0.97076 0.00231 0.0313 0.0
O16 O 0.05792 0.97393 0.04198 0.0
O17 O 0.88494 0.07499 0.01163 0.0
C18 C 0.94356 0.99263 0.9371 0.0
C19 C 0.01336 0.99145 0.05416 0.0
Zn20 Zn 0.10457 0.03145 0.50966 0.0
Zn21 Zn 0.98195 0.9572 0.50937 0.0
C22 C 0.22701 0.02759 0.539 0.0
O23 O 0.20617 0.05365 0.56013 0.0
C24 C 0.85824 0.96651 0.50151 0.0
O25 O 0.86992 0.94341 0.47446 0.0
O26 O 0.10953 0.0804 0.49895 0.0
O27 O 0.05421 0.00521 0.46674 0.0
O28 O 0.98673 0.96471 0.45641 0.0
C29 C 0.13982 0.08661 0.47344 0.0
O30 O 0.16321 0.06066 0.45331 0.0
O31 O 0.19031 0.01198 0.51461 0.0
C32 C 0.9506 0.89849 0.54105 0.0
O33 O 0.93189 0.92312 0.56463 0.0
O34 O 0.97796 0.9065 0.51494 0.0
O35 O 0.05406 0.97851 0.53792 0.0
O36 O 0.07251 0.03116 0.55849 0.0
O37 O 0.90249 0.97946 0.52248 0.0
C38 C 0.01912 0.98605 0.44457 0.0
C39 C 0.05046 0.003 0.56299 0.0
Zn40 Zn 0.58214 0.50824 -0.00048 0.0
Zn41 Zn 0.45265 0.49368 0.99547 0.0
C42 C 0.63079 0.44528 0.02778 0.0
O43 O 0.66151 0.46746 0.05095 0.0
C44 C 0.39033 0.55333 0.96705 0.0
O45 O 0.3643 0.52907 0.94421 0.0
O46 O 0.66727 0.52119 0.00022 0.0
O47 O 0.54058 0.517 0.95003 0.0
O48 O 0.48544 0.47229 0.94964 0.0
C49 C 0.6952 0.50549 0.9749 0.0
O50 O 0.66524 0.48498 0.94941 0.0
O51 O 0.59051 0.45663 0.00372 0.0
C52 C 0.34205 0.48867 0.0217 0.0
O53 O 0.36787 0.51169 0.04623 0.0
O54 O 0.37174 0.47487 -0.00375 0.0
O55 O 0.49798 0.48765 0.04512 0.0
O56 O 0.54865 0.53348 0.04304 0.0
O57 O 0.43306 0.54472 0.99119 0.0
C58 C 0.51221 0.49217 0.93239 0.0
C59 C 0.52093 0.51491 0.06117 0.0
Zn60 Zn 0.50615 0.55596 0.49219 0.0
Zn61 Zn 0.37393 0.4941 0.47425 0.0
C62 C 0.62002 0.52313 0.49825 0.0
O63 O 0.61306 0.5358 0.532 0.0
C64 C 0.24932 0.5051 0.44589 0.0
O65 O 0.2697 0.49009 0.41592 0.0
O66 O 0.54534 0.60137 0.50456 0.0
O67 O 0.43525 0.56352 0.45399 0.0
O68 O 0.40784 0.51128 0.43181 0.0
C69 C 0.57594 0.61067 0.48057 0.0
O70 O 0.57537 0.59209 0.44874 0.0
O71 O 0.57506 0.52544 0.47348 0.0
C72 C 0.3374 0.43107 0.4886 0.0
O73 O 0.31744 0.4526 0.51474 0.0
O74 O 0.36731 0.44274 0.46565 0.0
O75 O 0.41574 0.50311 0.52531 0.0
O76 O 0.4879 0.54051 0.53928 0.0
O77 O 0.2868 0.51189 0.47431 0.0
C78 C 0.42209 0.54139 0.42698 0.0
C79 C 0.45375 0.51889 0.54858 0.0
C80 C 0.38927 0.6153 0.99335 0.0
C81 C 0.36591 0.58955 0.96685 0.0
C82 C 0.36313 0.64888 0.9946 0.0
C83 C 0.22014 0.69796 0.96651 0.0
H84 H 0.32036 0.77689 0.98849 0.0
C85 C 0.12229 0.83979 0.96513 0.0
C86 C 0.14743 0.86345 0.9934 0.0
C87 C 0.14791 0.80613 0.96029 0.0
C88 C 0.29163 0.75512 0.98266 0.0
H89 H 0.29747 0.57918 0.92035 0.0
H90 H 0.25249 0.6377 0.9223 0.0
H91 H 0.36809 0.71908 0.98281 0.0
H92 H 0.21835 0.86994 0.03926 0.0
H93 H 0.2621 0.81164 0.03112 0.0
H94 H 0.14364 0.73411 0.96662 0.0
C95 C 0.29042 0.63186 0.94248 0.0
C96 C 0.31906 0.72195 0.97941 0.0
C97 C 0.31658 0.59833 0.94121 0.0
C98 C 0.19796 0.85254 0.01702 0.0
C99 C 0.22344 0.81909 0.0122 0.0
C100 C 0.19266 0.7312 0.96977 0.0
C101 C 0.31298 0.6575 0.96939 0.0
C102 C 0.28371 0.69291 0.9716 0.0
C103 C 0.19925 0.79552 0.98358 0.0
C104 C 0.22808 0.76018 0.97826 0.0
H105 H 0.42702 0.60939 0.01363 0.0
H106 H 0.38128 0.66787 0.01595 0.0
H107 H 0.19147 0.67616 0.96091 0.0
H108 H 0.08347 0.84739 0.94641 0.0
H109 H 0.12833 0.78867 0.93784 0.0
C110 C 0.6195 0.38414 0.00023 0.0
C111 C 0.64794 0.40792 0.0271 0.0
C112 C 0.63963 0.34941 -0.00233 0.0
C113 C 0.73162 0.28314 0.04885 0.0
H114 H 0.74363 0.23772 0.95123 0.0
C115 C 0.85026 0.14747 0.02383 0.0
C116 C 0.82052 0.12468 -0.00359 0.0
C117 C 0.83042 0.18227 0.0282 0.0
C118 C 0.74007 0.24989 0.9787 0.0
H119 H 0.71885 0.41357 0.07302 0.0
H120 H 0.7541 0.35321 0.06837 0.0
H121 H 0.7043 0.29728 0.95826 0.0
H122 H 0.74679 0.12072 0.95197 0.0
H123 H 0.71236 0.18094 0.95969 0.0
H124 H 0.76761 0.23563 0.06922 0.0
C125 C 0.7159 0.36127 0.04946 0.0
C126 C 0.71732 0.28406 0.98272 0.0
C127 C 0.69579 0.39597 0.05201 0.0
C128 C 0.77096 0.13752 0.97333 0.0
C129 C 0.75134 0.17217 0.9776 0.0
C130 C 0.75447 0.24893 0.04481 0.0
C131 C 0.68866 0.33762 0.02193 0.0
C132 C 0.71252 0.3011 0.01783 0.0
C133 C 0.78066 0.19501 0.00511 0.0
C134 C 0.75866 0.23182 0.00966 0.0
H135 H 0.58241 0.39245 0.98066 0.0
H136 H 0.61692 0.33179 0.97653 0.0
H137 H 0.72799 0.29534 0.07629 0.0
H138 H 0.88853 0.1384 0.04209 0.0
H139 H 0.85436 0.19926 0.04946 0.0
C140 C 0.13772 0.14939 0.49495 0.0
C141 C 0.15539 0.12227 0.46983 0.0
C142 C 0.15833 0.18234 0.49441 0.0
C143 C 0.2242 0.23995 0.43858 0.0
H144 H 0.28671 0.28389 0.53376 0.0
C145 C 0.33959 0.37113 0.45647 0.0
C146 C 0.32207 0.39452 0.48531 0.0
C147 C 0.32255 0.33691 0.45315 0.0
C148 C 0.26899 0.27212 0.507 0.0
H149 H 0.20608 0.10885 0.42322 0.0
H150 H 0.24191 0.16664 0.42227 0.0
H151 H 0.24712 0.22673 0.52955 0.0
H152 H 0.27316 0.40034 0.53328 0.0
H153 H 0.24311 0.34124 0.52725 0.0
H154 H 0.24528 0.28576 0.41615 0.0
C155 C 0.21222 0.16227 0.44239 0.0
C156 C 0.24627 0.2394 0.50461 0.0
C157 C 0.19183 0.12918 0.44304 0.0
C158 C 0.28771 0.38299 0.51083 0.0
C159 C 0.27073 0.34898 0.50751 0.0
C160 C 0.24672 0.2729 0.441 0.0
C161 C 0.19682 0.18894 0.46865 0.0
C162 C 0.22282 0.22318 0.47049 0.0
C163 C 0.28787 0.32552 0.47867 0.0
C164 C 0.2685 0.28953 0.47534 0.0
H165 H 0.10942 0.14501 0.5158 0.0
H166 H 0.14486 0.2026 0.51456 0.0
H167 H 0.20629 0.22803 0.41194 0.0
H168 H 0.36606 0.37928 0.43636 0.0
H169 H 0.33683 0.31935 0.43079 0.0
C170 C 0.92971 0.8398 0.50962 0.0
C171 C 0.92945 0.86337 0.54106 0.0
C172 C 0.89911 0.80928 0.50719 0.0
C173 C 0.76984 0.77649 0.54364 0.0
H174 H 0.81819 0.69009 0.4912 0.0
C175 C 0.62236 0.65764 0.52467 0.0
C176 C 0.61692 0.6395 0.48957 0.0
C177 C 0.66415 0.68336 0.53369 0.0
C178 C 0.80397 0.71415 0.50573 0.0
H179 H 0.90156 0.87212 0.59581 0.0
H180 H 0.8493 0.81862 0.59182 0.0
H181 H 0.88885 0.73647 0.50343 0.0
H182 H 0.65054 0.63441 0.43627 0.0
H183 H 0.72264 0.67951 0.45186 0.0
H184 H 0.68469 0.75447 0.54541 0.0
C185 C 0.87161 0.82412 0.56866 0.0
C186 C 0.84446 0.74066 0.51278 0.0
C187 C 0.90189 0.85467 0.57101 0.0
C188 C 0.65359 0.64788 0.46358 0.0
C189 C 0.69537 0.67351 0.47261 0.0
C190 C 0.72946 0.74999 0.53665 0.0
C191 C 0.868 0.80169 0.53622 0.0
C192 C 0.82757 0.77229 0.53145 0.0
C193 C 0.70139 0.69139 0.50782 0.0
C194 C 0.74575 0.71871 0.51718 0.0
H195 H 0.9505 0.8458 0.48606 0.0
H196 H 0.89697 0.79265 0.48173 0.0
H197 H 0.7549 0.80074 0.55748 0.0
H198 H 0.59502 0.65166 0.54539 0.0
H199 H 0.66804 0.69654 0.56114 0.0
C200 C 0.24502 0.01332 0.97327 0.0
C201 C 0.22706 0.98302 0.95187 0.0
C202 C 0.30624 0.0201 0.98106 0.0
C203 C 0.45992 0.99301 0.95747 0.0
H204 H 0.50664 0.01613 0.06176 0.0
C205 C 0.70689 0.98041 0.01856 0.0
C206 C 0.72913 0.00979 0.03993 0.0
C207 C 0.64473 0.97696 0.0101 0.0
C208 C 0.49418 0.00993 0.03257 0.0
H209 H 0.25841 0.93765 0.91908 0.0
H210 H 0.36533 0.94932 0.93296 0.0
H211 H 0.39949 0.01419 0.0381 0.0
H212 H 0.70402 0.05706 0.07197 0.0
H213 H 0.59509 0.05096 0.05714 0.0
H214 H 0.55464 0.98833 0.95205 0.0
C215 C 0.3322 0.96788 0.94368 0.0
C216 C 0.43294 0.00904 0.01895 0.0
C217 C 0.27091 0.96116 0.93576 0.0
C218 C 0.68815 0.03415 0.05539 0.0
C219 C 0.62581 0.03071 0.04685 0.0
C220 C 0.5211 0.99381 0.9711 0.0
C221 C 0.35049 0.99667 0.96762 0.0
C222 C 0.41525 1.00034 0.9813 0.0
C223 C 0.60374 0.0028 0.02288 0.0
C224 C 0.53877 0.00195 0.00882 0.0
H225 H 0.21208 0.03091 0.98564 0.0
H226 H 0.31907 0.04293 -0.00114 0.0
H227 H 0.44756 0.98661 0.9283 0.0
H228 H 0.73748 0.96097 0.00668 0.0
H229 H 0.62875 0.95474 0.99233 0.0
C230 C 0.33342 0.03719 0.56738 0.0
C231 C 0.29284 0.01878 0.5414 0.0
C232 C 0.39595 0.03078 0.56784 0.0
C233 C 0.51185 0.96713 0.53453 0.0
H234 H 0.61138 0.04632 0.54197 0.0
C235 C 0.74778 0.95745 0.48663 0.0
C236 C 0.79485 0.97442 0.50894 0.0
C237 C 0.68804 0.96291 0.49435 0.0
C238 C 0.58434 0.02396 0.54041 0.0
H239 H 0.286 0.97858 0.49614 0.0
H240 H 0.39498 0.96762 0.4967 0.0
H241 H 0.50374 0.05487 0.54924 0.0
H242 H 0.81599 0.01089 0.55659 0.0
H243 H 0.71074 0.02069 0.56996 0.0
H244 H 0.59211 0.9363 0.52482 0.0
C245 C 0.37854 0.98676 0.51701 0.0
C246 C 0.52272 0.02882 0.5446 0.0
C247 C 0.31603 0.99316 0.51656 0.0
C248 C 0.78066 0.99751 0.53885 0.0
C249 C 0.72051 0.00314 0.54648 0.0
C250 C 0.57331 0.9623 0.53024 0.0
C251 C 0.41922 0.00579 0.54236 0.0
C252 C 0.48558 1.00048 0.54107 0.0
C253 C 0.67375 0.98555 0.5245 0.0
C254 C 0.60995 0.99069 0.53246 0.0
H255 H 0.31699 0.05702 0.58702 0.0
H256 H 0.42608 0.04554 0.58803 0.0
H257 H 0.48474 0.94474 0.53238 0.0
H258 H 0.75702 0.93956 0.4633 0.0
H259 H 0.65286 0.9495 0.47651 0.0
C260 C 0.79479 0.52379 0.00752 0.0
C261 C 0.7617 0.50592 0.97729 0.0
C262 C 0.85795 0.52065 0.01215 0.0
C263 C 0.99097 0.49476 0.9638 0.0
H264 H 0.0685 0.47923 0.06146 0.0
C265 C 0.24657 0.46334 0.99055 0.0
C266 C 0.2768 0.48337 0.02027 0.0
C267 C 0.1835 0.46258 0.98636 0.0
C268 C 0.04746 0.4837 0.03411 0.0
H269 H 0.76874 0.47198 0.92739 0.0
H270 H 0.87905 0.46649 0.93558 0.0
H271 H 0.9584 0.48751 0.05083 0.0
H272 H 0.26517 0.51656 0.07012 0.0
H273 H 0.15516 0.51539 0.06264 0.0
H274 H 0.07999 0.4913 0.94713 0.0
C275 C 0.85616 0.48296 0.95561 0.0
C276 C 0.98456 0.48857 0.02805 0.0
C277 C 0.793 0.48605 0.95099 0.0
C278 C 0.24313 0.501 0.04683 0.0
C279 C 0.18011 0.5002 0.04265 0.0
C280 C 0.05385 0.4899 0.96986 0.0
C281 C 0.88915 0.49968 0.98661 0.0
C282 C 0.95579 0.49439 0.9929 0.0
C283 C 0.14962 0.48174 0.01186 0.0
C284 C 0.08272 0.48452 0.00512 0.0
H285 H 0.77195 0.53941 0.02819 0.0
H286 H 0.88238 0.53433 0.03596 0.0
H287 H 0.97 0.49953 0.93652 0.0
H288 H 0.27134 0.4493 0.96975 0.0
H289 H 0.16113 0.44765 0.9627 0.0
C290 C 0.14157 0.50369 0.41642 0.0
C291 C 0.1832 0.50895 0.4482 0.0
C292 C 0.07936 0.50353 0.41905 0.0
C293 C 0.97434 0.48587 0.48324 0.0
H294 H 0.85284 0.53599 0.42158 0.0
C295 C 0.72979 0.51032 0.51736 0.0
C296 C 0.68187 0.5127 0.48894 0.0
C297 C 0.78973 0.50598 0.50963 0.0
C298 C 0.88602 0.52126 0.43854 0.0
H299 H 0.19189 0.51912 0.5076 0.0
H300 H 0.08349 0.51864 0.51213 0.0
H301 H 0.95991 0.53804 0.41349 0.0
H302 H 0.6593 0.51078 0.42981 0.0
H303 H 0.76442 0.50232 0.41613 0.0
H304 H 0.90108 0.46877 0.50815 0.0
C305 C 0.09906 0.51447 0.48521 0.0
C306 C 0.94739 0.52264 0.43402 0.0
C307 C 0.16111 0.51504 0.48256 0.0
C308 C 0.69518 0.50896 0.45234 0.0
C309 C 0.75547 0.50451 0.44455 0.0
C310 C 0.91311 0.48418 0.4875 0.0
C311 C 0.05761 0.50819 0.45355 0.0
C312 C 0.99223 0.50549 0.45682 0.0
C313 C 0.8036 0.50368 0.47319 0.0
C314 C 0.86814 0.5024 0.46572 0.0
H315 H 0.15714 0.49893 0.38953 0.0
H316 H 0.04847 0.49857 0.3942 0.0
H317 H 0.00782 0.47178 0.50068 0.0
H318 H 0.72127 0.51312 0.54589 0.0
H319 H 0.82534 0.50595 0.53249 0.0
C320 C 0.06486 1.00123 0.38984 0.0
C321 C 0.016 0.98875 0.40457 0.0
C322 C 0.06246 0.00343 0.35203 0.0
C323 C 0.96132 0.01294 0.26809 0.0
H324 H 0.09165 0.96653 0.21851 0.0
C325 C 0.9553 0.999 0.10895 0.0
C326 C 0.01082 0.99712 0.09422 0.0
C327 C 0.95413 1.00011 0.14703 0.0
C328 C 0.05542 0.98031 0.23184 0.0
H329 H 0.92575 0.96953 0.39134 0.0
H330 H 0.92112 0.9742 0.32512 0.0
H331 H 0.09317 0.96492 0.28443 0.0
H332 H 0.10833 0.99713 0.10758 0.0
H333 H 0.10649 1.00109 0.17368 0.0
H334 H 0.92436 0.02938 0.21586 0.0
C335 C 0.96137 0.98193 0.34296 0.0
C336 C 0.05619 0.97908 0.26965 0.0
C337 C 0.96424 0.97906 0.38074 0.0
C338 C 0.06489 0.99812 0.11821 0.0
C339 C 0.06374 1.00001 0.15616 0.0
C340 C 0.96108 0.01478 0.23025 0.0
C341 C 0.0107 0.99384 0.32827 0.0
C342 C 0.0092 0.99533 0.28812 0.0
C343 C 0.00849 1.0 0.17117 0.0
C344 C 0.00824 0.9985 0.21156 0.0
H345 H 0.10543 0.00872 0.40746 0.0
H346 H 0.10101 0.01278 0.34133 0.0
H347 H 0.92471 0.02584 0.28184 0.0
H348 H 0.91297 0.99798 0.09098 0.0
H349 H 0.91067 0.99975 0.15733 0.0
C350 C 0.89764 0.99065 0.87155 0.0
C351 C 0.94901 0.9865 0.89729 0.0
C352 C 0.90302 0.9881 0.83395 0.0
C353 C 0.00919 0.96019 0.7644 0.0
H354 H 0.91097 0.02641 0.70808 0.0
C355 C 0.00874 0.02714 0.62076 0.0
C356 C 0.02614 0.99837 0.59767 0.0
C357 C 0.99317 0.02314 0.65569 0.0
C358 C 0.93901 0.00785 0.72339 0.0
H359 H 0.04602 0.9758 0.9038 0.0
H360 H 0.05606 0.97218 0.83828 0.0
H361 H 0.8983 0.02383 0.77231 0.0
H362 H 0.04139 0.94289 0.59312 0.0
H363 H 0.01144 0.93559 0.65334 0.0
H364 H 0.05217 0.94552 0.71594 0.0
C365 C 0.01125 0.97662 0.84695 0.0
C366 C 0.93113 0.006 0.76021 0.0
C367 C 0.00566 0.97877 0.88458 0.0
C368 C 0.02652 0.96544 0.60992 0.0
C369 C 0.01046 0.96136 0.64474 0.0
C370 C 0.01744 0.96224 0.72763 0.0
C371 C 0.96007 0.98181 0.82115 0.0
C372 C 0.96646 0.98235 0.78135 0.0
C373 C -0.00536 0.99022 0.66837 0.0
C374 C 0.98288 0.98636 0.70673 0.0
H375 H 0.85319 0.99633 0.88048 0.0
H376 H 0.86239 0.99144 0.81496 0.0
H377 H 0.03665 0.94133 0.77959 0.0
H378 H 0.00876 0.05291 0.61223 0.0
H379 H 0.98225 0.04604 0.67323 0.0
C380 C 0.44617 0.58154 0.38243 0.0
C381 C 0.42044 0.55113 0.38923 0.0
C382 C 0.44876 0.58912 0.34639 0.0
C383 C 0.38755 0.56517 0.24991 0.0
H384 H 0.55145 0.57542 0.22823 0.0
C385 C 0.4713 0.50794 0.11681 0.0
C386 C 0.50803 0.52699 0.09875 0.0
C387 C 0.45506 0.52035 0.15117 0.0
C388 C 0.50519 0.57343 0.23386 0.0
H389 H 0.37415 0.50588 0.36378 0.0
H390 H 0.37871 0.51906 0.3012 0.0
H391 H 0.52942 0.58204 0.29196 0.0
H392 H 0.55761 0.57369 0.1028 0.0
H393 H 0.53 0.59506 0.16366 0.0
H394 H 0.36411 0.55455 0.19196 0.0
C395 C 0.39674 0.53711 0.32359 0.0
C396 C 0.49254 0.57728 0.27028 0.0
C397 C 0.39475 0.52935 0.35947 0.0
C398 C 0.52927 0.55843 0.11611 0.0
C399 C 0.51339 0.57073 0.15079 0.0
C400 C 0.40019 0.5613 0.21358 0.0
C401 C 0.42477 0.56668 0.3167 0.0
C402 C 0.43425 0.57155 0.27864 0.0
C403 C 0.47559 0.55192 0.16836 0.0
C404 C 0.45969 0.56377 0.20543 0.0
H405 H 0.46584 0.59898 0.40487 0.0
H406 H 0.47048 0.61211 0.34171 0.0
H407 H 0.342 0.56124 0.25569 0.0
H408 H 0.45437 0.48357 0.10426 0.0
H409 H 0.42704 0.50494 0.16456 0.0
C410 C 0.42423 0.48608 0.5981 0.0
C411 C 0.4602 0.51071 0.58716 0.0
C412 C 0.43187 0.47749 0.6343 0.0
C413 C 0.54093 0.48139 0.7182 0.0
H414 H 0.39821 0.47996 0.76877 0.0
C415 C 0.54673 0.50588 0.87396 0.0
C416 C 0.51019 0.48682 0.89214 0.0
C417 C 0.54347 0.50201 0.8358 0.0
C418 C 0.43843 0.47955 0.75484 0.0
H419 H 0.53242 0.54563 0.60568 0.0
H420 H 0.54497 0.531 0.66891 0.0
H421 H 0.38635 0.48638 0.70305 0.0
H422 H 0.44268 0.4481 0.88482 0.0
H423 H 0.43676 0.4415 0.81775 0.0
H424 H 0.59298 0.47571 0.77026 0.0
C425 C 0.51155 0.51796 0.64932 0.0
C426 C 0.43165 0.48329 0.71726 0.0
C427 C 0.50391 0.52658 0.61318 0.0
C428 C 0.47125 0.46321 0.87149 0.0
C429 C 0.46773 0.45948 0.83319 0.0
C430 C 0.5477 0.47769 0.75574 0.0
C431 C 0.4757 0.4933 0.6602 0.0
C432 C 0.48285 0.48517 0.69884 0.0
C433 C 0.50347 0.47909 0.81504 0.0
C434 C 0.49651 0.47767 0.77456 0.0
H435 H 0.39038 0.47322 0.5787 0.0
H436 H 0.40389 0.45825 0.64194 0.0
H437 H 0.58115 0.48204 0.70445 0.0
H438 H 0.57742 0.52415 0.88914 0.0
H439 H 0.5709 0.51782 0.82248 0.0
loop_
_geom_bond_atom_site_label_1
_geom_bond_atom_site_label_2
_geom_bond_distance
_geom_bond_site_symmetry_2
_ccdc_geom_bond_type
Zn0 O6 1.969 1_565 S
Zn0 O7 1.965 1_564 S
Zn0 O11 2.024 1_554 S
Zn0 O16 1.969 . S
Zn1 O8 1.969 . S
Zn1 O14 1.969 1_545 S
Zn1 O15 1.965 1_546 S
Zn1 O17 2.024 1_556 S
C2 O3 1.229 . S
C2 O11 1.058 1_554 S
O3 C2 1.229 . S
C4 O5 1.229 . S
C4 O17 1.058 1_556 S
O5 C4 1.229 . S
O6 Zn0 1.969 1_545 S
O6 C9 1.267 1_544 S
O7 Zn0 1.965 1_546 S
O7 C18 1.260 1_455 S
O8 Zn1 1.969 . S
O8 C18 1.258 . S
C9 O6 1.267 1_566 S
C9 O10 1.228 . S
O10 C9 1.228 . S
O11 Zn0 2.024 1_556 S
O11 C2 1.058 1_556 S
C12 O13 1.228 . S
C12 O14 1.267 1_544 S
O13 C12 1.228 . S
O14 Zn1 1.969 1_565 S
O14 C12 1.267 1_566 S
O15 Zn1 1.965 1_564 S
O15 C19 1.260 1_655 S
O16 Zn0 1.969 . S
O16 C19 1.258 . S
O17 Zn1 2.024 1_554 S
O17 C4 1.058 1_554 S
C18 O7 1.260 1_655 S
C18 O8 1.258 . S
C19 O15 1.260 1_455 S
C19 O16 1.258 . S
Zn20 O26 1.969 . S
Zn20 O27 1.965 . S
Zn20 O31 2.024 1_545 S
Zn20 O36 1.969 . S
Zn21 O28 1.969 . S
Zn21 O34 1.969 . S
Zn21 O35 1.965 . S
Zn21 O37 2.024 1_565 S
C22 O23 1.229 . S
C22 O31 1.058 1_545 S
O23 C22 1.229 . S
C24 O25 1.229 . S
C24 O37 1.058 1_565 S
O25 C24 1.229 . S
O26 Zn20 1.969 . S
O26 C29 1.267 . S
O27 Zn20 1.965 . S
O27 C38 1.260 1_455 S
O28 Zn21 1.969 . S
O28 C38 1.258 1_565 S
C29 O26 1.267 . S
C29 O30 1.228 . S
O30 C29 1.228 . S
O31 Zn20 2.024 1_565 S
O31 C22 1.058 1_565 S
C32 O33 1.228 . S
C32 O34 1.267 . S
O33 C32 1.228 . S
O34 Zn21 1.969 . S
O34 C32 1.267 . S
O35 Zn21 1.965 . S
O35 C39 1.260 1_655 S
O36 Zn20 1.969 . S
O36 C39 1.258 1_545 S
O37 Zn21 2.024 1_545 S
O37 C24 1.058 1_545 S
C38 O27 1.260 1_655 S
C38 O28 1.258 1_545 S
C39 O35 1.260 1_455 S
C39 O36 1.258 1_565 S
Zn40 O46 1.969 . S
Zn40 O47 1.965 1_554 S
Zn40 O51 2.024 1_554 S
Zn40 O56 1.969 . S
Zn41 O48 1.969 . S
Zn41 O54 1.969 . S
Zn41 O55 1.965 1_556 S
Zn41 O57 2.024 1_556 S
C42 O43 1.229 . S
C42 O51 1.058 1_554 S
O43 C42 1.229 . S
C44 O45 1.229 . S
C44 O57 1.058 1_556 S
O45 C44 1.229 . S
O46 Zn40 1.969 . S
O46 C49 1.267 1_554 S
O47 Zn40 1.965 1_556 S
O47 C58 1.260 . S
O48 Zn41 1.969 . S
O48 C58 1.258 . S
C49 O46 1.267 1_556 S
C49 O50 1.228 . S
O50 C49 1.228 . S
O51 Zn40 2.024 1_556 S
O51 C42 1.058 1_556 S
C52 O53 1.228 . S
C52 O54 1.267 1_554 S
O53 C52 1.228 . S
O54 Zn41 1.969 . S
O54 C52 1.267 1_556 S
O55 Zn41 1.965 1_554 S
O55 C59 1.260 . S
O56 Zn40 1.969 . S
O56 C59 1.258 . S
O57 Zn41 2.024 1_554 S
O57 C44 1.058 1_554 S
C58 O47 1.260 . S
C58 O48 1.258 . S
C59 O55 1.260 . S
C59 O56 1.258 . S
Zn60 O66 1.969 . S
Zn60 O67 1.965 . S
Zn60 O71 2.024 . S
Zn60 O76 1.969 . S
Zn61 O68 1.969 . S
Zn61 O74 1.969 . S
Zn61 O75 1.965 . S
Zn61 O77 2.024 . S
C62 O63 1.229 . S
C62 O71 1.058 . S
O63 C62 1.229 . S
C64 O65 1.229 . S
C64 O77 1.058 . S
O65 C64 1.229 . S
O66 Zn60 1.969 . S
O66 C69 1.267 . S
O67 Zn60 1.965 . S
O67 C78 1.260 . S
O68 Zn61 1.969 . S
O68 C78 1.258 . S
C69 O66 1.267 . S
C69 O70 1.228 . S
O70 C69 1.228 . S
O71 Zn60 2.024 . S
O71 C62 1.058 . S
C72 O73 1.228 . S
C72 O74 1.267 . S
O73 C72 1.228 . S
O74 Zn61 1.969 . S
O74 C72 1.267 . S
O75 Zn61 1.965 . S
O75 C79 1.260 . S
O76 Zn60 1.969 . S
O76 C79 1.258 . S
O77 Zn61 2.024 . S
O77 C64 1.058 . S
C78 O67 1.260 . S
C78 O68 1.258 . S
C79 O75 1.260 . S
C79 O76 1.258 . S
C80 C81 1.349 . S
C80 C82 1.327 . S
C80 H105 0.950 . S
C81 C80 1.349 . S
C81 C97 1.349 1_554 S
C82 C80 1.327 . S
C82 C101 1.446 . S
C82 H106 0.950 . S
C83 C100 1.574 . S
C83 C102 1.360 1_556 S
C83 H107 0.949 . S
H84 C88 0.949 . S
C85 C86 1.349 . S
C85 C87 1.327 . S
C85 H108 0.950 . S
C86 C85 1.349 . S
C86 C98 1.349 1_556 S
C87 C85 1.327 . S
C87 C103 1.441 . S
C87 H109 0.950 . S
C88 H84 0.949 . S
C88 C96 1.574 . S
C88 C104 1.365 1_554 S
H89 C97 0.950 . S
H90 C95 0.950 . S
H91 C96 0.949 . S
H92 C98 0.950 . S
H93 C99 0.950 . S
H94 C100 0.949 . S
C95 H90 0.950 . S
C95 C97 1.327 . S
C95 C101 1.413 1_556 S
C96 C88 1.574 . S
C96 H91 0.949 . S
C96 C102 1.377 . S
C97 C81 1.349 1_556 S
C97 H89 0.950 . S
C97 C95 1.327 . S
C98 C86 1.349 1_554 S
C98 H92 0.950 . S
C98 C99 1.327 . S
C99 H93 0.950 . S
C99 C98 1.327 . S
C99 C103 1.417 1_554 S
C100 C83 1.574 . S
C100 H94 0.949 . S
C100 C104 1.372 . S
C101 C82 1.446 . S
C101 C95 1.413 1_554 S
C101 C102 1.522 . S
C102 C83 1.360 1_554 S
C102 C96 1.377 . S
C102 C101 1.522 . S
C103 C87 1.441 . S
C103 C99 1.417 1_556 S
C103 C104 1.522 . S
C104 C88 1.365 1_556 S
C104 C100 1.372 . S
C104 C103 1.522 . S
H105 C80 0.950 . S
H106 C82 0.950 . S
H107 C83 0.949 . S
H108 C85 0.950 . S
H109 C87 0.950 . S
C110 C111 1.349 . S
C110 C112 1.327 . S
C110 H135 0.950 . S
C111 C110 1.349 . S
C111 C127 1.349 1_556 S
C112 C110 1.327 . S
C112 C131 1.443 . S
C112 H136 0.950 . S
C113 C130 1.574 . S
C113 C132 1.364 1_554 S
C113 H137 0.949 . S
H114 C118 0.949 . S
C115 C116 1.349 . S
C115 C117 1.327 . S
C115 H138 0.950 . S
C116 C115 1.349 . S
C116 C128 1.349 1_554 S
C117 C115 1.327 . S
C117 C133 1.448 . S
C117 H139 0.950 . S
C118 H114 0.949 . S
C118 C126 1.574 . S
C118 C134 1.359 1_556 S
H119 C127 0.950 . S
H120 C125 0.950 . S
H121 C126 0.949 . S
H122 C128 0.950 . S
H123 C129 0.950 . S
H124 C130 0.949 . S
C125 H120 0.950 . S
C125 C127 1.327 . S
C125 C131 1.415 1_554 S
C126 C118 1.574 . S
C126 H121 0.949 . S
C126 C132 1.372 . S
C127 C111 1.349 1_554 S
C127 H119 0.950 . S
C127 C125 1.327 . S
C128 C116 1.349 1_556 S
C128 H122 0.950 . S
C128 C129 1.327 . S
C129 H123 0.950 . S
C129 C128 1.327 . S
C129 C133 1.411 1_556 S
C130 C113 1.574 . S
C130 H124 0.949 . S
C130 C134 1.378 . S
C131 C112 1.443 . S
C131 C125 1.415 1_556 S
C131 C132 1.522 . S
C132 C113 1.364 1_556 S
C132 C126 1.372 . S
C132 C131 1.522 . S
C133 C117 1.448 . S
C133 C129 1.411 1_554 S
C133 C134 1.522 . S
C134 C118 1.359 1_554 S
C134 C130 1.378 . S
C134 C133 1.522 . S
H135 C110 0.950 . S
H136 C112 0.950 . S
H137 C113 0.949 . S
H138 C115 0.950 . S
H139 C117 0.950 . S
C140 C141 1.349 . S
C140 C142 1.327 . S
C140 H165 0.950 . S
C141 C140 1.349 . S
C141 C157 1.349 . S
C142 C140 1.327 . S
C142 C161 1.429 . S
C142 H166 0.950 . S
C143 C160 1.574 . S
C143 C162 1.368 . S
C143 H167 0.949 . S
H144 C148 0.949 . S
C145 C146 1.349 . S
C145 C147 1.327 . S
C145 H168 0.950 . S
C146 C145 1.349 . S
C146 C158 1.349 . S
C147 C145 1.327 . S
C147 C163 1.429 . S
C147 H169 0.950 . S
C148 H144 0.949 . S
C148 C156 1.574 . S
C148 C164 1.368 . S
H149 C157 0.950 . S
H150 C155 0.950 . S
H151 C156 0.949 . S
H152 C158 0.950 . S
H153 C159 0.950 . S
H154 C160 0.949 . S
C155 H150 0.950 . S
C155 C157 1.327 . S
C155 C161 1.429 . S
C156 C148 1.574 . S
C156 H151 0.949 . S
C156 C162 1.368 . S
C157 C141 1.349 . S
C157 H149 0.950 . S
C157 C155 1.327 . S
C158 C146 1.349 . S
C158 H152 0.950 . S
C158 C159 1.327 . S
C159 H153 0.950 . S
C159 C158 1.327 . S
C159 C163 1.429 . S
C160 C143 1.574 . S
C160 H154 0.949 . S
C160 C164 1.368 . S
C161 C142 1.429 . S
C161 C155 1.429 . S
C161 C162 1.523 . S
C162 C143 1.368 . S
C162 C156 1.368 . S
C162 C161 1.523 . S
C163 C147 1.429 . S
C163 C159 1.429 . S
C163 C164 1.523 . S
C164 C148 1.368 . S
C164 C160 1.368 . S
C164 C163 1.523 . S
H165 C140 0.950 . S
H166 C142 0.950 . S
H167 C143 0.949 . S
H168 C145 0.950 . S
H169 C147 0.950 . S
C170 C171 1.349 . S
C170 C172 1.327 . S
C170 H195 0.950 . S
C171 C170 1.349 . S
C171 C187 1.349 . S
C172 C170 1.327 . S
C172 C191 1.429 . S
C172 H196 0.950 . S
C173 C190 1.574 . S
C173 C192 1.368 . S
C173 H197 0.949 . S
H174 C178 0.949 . S
C175 C176 1.349 . S
C175 C177 1.327 . S
C175 H198 0.950 . S
C176 C175 1.349 . S
C176 C188 1.349 . S
C177 C175 1.327 . S
C177 C193 1.429 . S
C177 H199 0.950 . S
C178 H174 0.949 . S
C178 C186 1.574 . S
C178 C194 1.368 . S
H179 C187 0.950 . S
H180 C185 0.950 . S
H181 C186 0.949 . S
H182 C188 0.950 . S
H183 C189 0.950 . S
H184 C190 0.949 . S
C185 H180 0.950 . S
C185 C187 1.327 . S
C185 C191 1.429 . S
C186 C178 1.574 . S
C186 H181 0.949 . S
C186 C192 1.368 . S
C187 C171 1.349 . S
C187 H179 0.950 . S
C187 C185 1.327 . S
C188 C176 1.349 . S
C188 H182 0.950 . S
C188 C189 1.327 . S
C189 H183 0.950 . S
C189 C188 1.327 . S
C189 C193 1.429 . S
C190 C173 1.574 . S
C190 H184 0.949 . S
C190 C194 1.368 . S
C191 C172 1.429 . S
C191 C185 1.429 . S
C191 C192 1.523 . S
C192 C173 1.368 . S
C192 C186 1.368 . S
C192 C191 1.523 . S
C193 C177 1.429 . S
C193 C189 1.429 . S
C193 C194 1.523 . S
C194 C178 1.368 . S
C194 C190 1.368 . S
C194 C193 1.523 . S
H195 C170 0.950 . S
H196 C172 0.950 . S
H197 C173 0.949 . S
H198 C175 0.950 . S
H199 C177 0.950 . S
C200 C201 1.349 . S
C200 C202 1.327 . S
C200 H225 0.950 . S
C201 C200 1.349 . S
C201 C217 1.349 1_546 S
C202 C200 1.327 . S
C202 C221 1.429 . S
C202 H226 0.950 . S
C203 C220 1.574 . S
C203 C222 1.330 1_564 S
C203 H227 0.949 . S
H204 C208 0.949 . S
C205 C206 1.349 . S
C205 C207 1.327 . S
C205 H228 0.950 . S
C206 C205 1.349 . S
C206 C218 1.349 1_564 S
C207 C205 1.327 . S
C207 C223 1.429 . S
C207 H229 0.950 . S
C208 H204 0.949 . S
C208 C216 1.574 . S
C208 C224 1.347 1_546 S
H209 C217 0.950 . S
H210 C215 0.950 . S
H211 C216 0.949 . S
H212 C218 0.950 . S
H213 C219 0.950 . S
H214 C220 0.949 . S
C215 H210 0.950 . S
C215 C217 1.327 . S
C215 C221 1.429 1_564 S
C216 C208 1.574 . S
C216 H211 0.949 . S
C216 C222 1.409 . S
C217 C201 1.349 1_564 S
C217 H209 0.950 . S
C217 C215 1.327 . S
C218 C206 1.349 1_546 S
C218 H212 0.950 . S
C218 C219 1.327 . S
C219 H213 0.950 . S
C219 C218 1.327 . S
C219 C223 1.429 1_546 S
C220 C203 1.574 . S
C220 H214 0.949 . S
C220 C224 1.389 . S
C221 C202 1.429 . S
C221 C215 1.429 1_546 S
C221 C222 1.522 . S
C222 C203 1.330 1_546 S
C222 C216 1.409 . S
C222 C221 1.522 . S
C223 C207 1.429 . S
C223 C219 1.429 1_564 S
C223 C224 1.523 . S
C224 C208 1.347 1_564 S
C224 C220 1.389 . S
C224 C223 1.523 . S
H225 C200 0.950 . S
H226 C202 0.950 . S
H227 C203 0.949 . S
H228 C205 0.950 . S
H229 C207 0.950 . S
C230 C231 1.349 1_545 S
C230 C232 1.327 . S
C230 H255 0.950 . S
C231 C230 1.349 1_565 S
C231 C247 1.349 . S
C232 C230 1.327 . S
C232 C251 1.429 1_545 S
C232 H256 0.950 . S
C233 C250 1.574 . S
C233 C252 1.379 . S
C233 H257 0.949 . S
H234 C238 0.949 . S
C235 C236 1.349 1_565 S
C235 C237 1.327 . S
C235 H258 0.950 . S
C236 C235 1.349 1_545 S
C236 C248 1.349 . S
C237 C235 1.327 . S
C237 C253 1.429 1_565 S
C237 H259 0.950 . S
C238 H234 0.949 . S
C238 C246 1.574 . S
C238 C254 1.368 . S
H239 C247 0.950 . S
H240 C245 0.950 . S
H241 C246 0.949 . S
H242 C248 0.950 . S
H243 C249 0.950 . S
H244 C250 0.949 . S
C245 H240 0.950 . S
C245 C247 1.327 . S
C245 C251 1.429 . S
C246 C238 1.574 . S
C246 H241 0.949 . S
C246 C252 1.357 1_545 S
C247 C231 1.349 . S
C247 H239 0.950 . S
C247 C245 1.327 . S
C248 C236 1.349 . S
C248 H242 0.950 . S
C248 C249 1.327 . S
C249 H243 0.950 . S
C249 C248 1.327 . S
C249 C253 1.429 . S
C250 C233 1.574 . S
C250 H244 0.949 . S
C250 C254 1.368 1_565 S
C251 C232 1.429 1_565 S
C251 C245 1.429 . S
C251 C252 1.525 . S
C252 C233 1.379 . S
C252 C246 1.357 1_565 S
C252 C251 1.525 . S
C253 C237 1.429 1_545 S
C253 C249 1.429 . S
C253 C254 1.523 . S
C254 C238 1.368 . S
C254 C250 1.368 1_545 S
C254 C253 1.523 . S
H255 C230 0.950 . S
H256 C232 0.950 . S
H257 C233 0.949 . S
H258 C235 0.950 . S
H259 C237 0.950 . S
C260 C261 1.349 1_554 S
C260 C262 1.327 . S
C260 H285 0.950 . S
C261 C260 1.349 1_556 S
C261 C277 1.349 . S
C262 C260 1.327 . S
C262 C281 1.429 1_554 S
C262 H286 0.950 . S
C263 C280 1.574 1_655 S
C263 C282 1.377 . S
C263 H287 0.949 . S
H264 C268 0.949 . S
C265 C266 1.349 1_556 S
C265 C267 1.327 . S
C265 H288 0.950 . S
C266 C265 1.349 1_554 S
C266 C278 1.349 . S
C267 C265 1.327 . S
C267 C283 1.429 1_556 S
C267 H289 0.950 . S
C268 H264 0.949 . S
C268 C276 1.574 1_455 S
C268 C284 1.368 . S
H269 C277 0.950 . S
H270 C275 0.950 . S
H271 C276 0.949 . S
H272 C278 0.950 . S
H273 C279 0.950 . S
H274 C280 0.949 . S
C275 H270 0.950 . S
C275 C277 1.327 . S
C275 C281 1.429 . S
C276 C268 1.574 1_655 S
C276 H271 0.949 . S
C276 C282 1.362 1_554 S
C277 C261 1.349 . S
C277 H269 0.950 . S
C277 C275 1.327 . S
C278 C266 1.349 . S
C278 H272 0.950 . S
C278 C279 1.327 . S
C279 H273 0.950 . S
C279 C278 1.327 . S
C279 C283 1.429 . S
C280 C263 1.574 1_455 S
C280 H274 0.949 . S
C280 C284 1.368 1_556 S
C281 C262 1.429 1_556 S
C281 C275 1.429 . S
C281 C282 1.521 . S
C282 C263 1.377 . S
C282 C276 1.362 1_556 S
C282 C281 1.521 . S
C283 C267 1.429 1_554 S
C283 C279 1.429 . S
C283 C284 1.523 . S
C284 C268 1.368 . S
C284 C280 1.368 1_554 S
C284 C283 1.523 . S
H285 C260 0.950 . S
H286 C262 0.950 . S
H287 C263 0.949 . S
H288 C265 0.950 . S
H289 C267 0.950 . S
C290 C291 1.349 . S
C290 C292 1.327 . S
C290 H315 0.950 . S
C291 C290 1.349 . S
C291 C307 1.349 . S
C292 C290 1.327 . S
C292 C311 1.429 . S
C292 H316 0.950 . S
C293 C310 1.574 1_455 S
C293 C312 1.368 . S
C293 H317 0.949 . S
H294 C298 0.949 . S
C295 C296 1.349 . S
C295 C297 1.327 . S
C295 H318 0.950 . S
C296 C295 1.349 . S
C296 C308 1.349 . S
C297 C295 1.327 . S
C297 C313 1.429 . S
C297 H319 0.950 . S
C298 H294 0.949 . S
C298 C306 1.574 1_655 S
C298 C314 1.368 . S
H299 C307 0.950 . S
H300 C305 0.950 . S
H301 C306 0.949 . S
H302 C308 0.950 . S
H303 C309 0.950 . S
H304 C310 0.949 . S
C305 H300 0.950 . S
C305 C307 1.327 . S
C305 C311 1.429 . S
C306 C298 1.574 1_455 S
C306 H301 0.949 . S
C306 C312 1.368 . S
C307 C291 1.349 . S
C307 H299 0.950 . S
C307 C305 1.327 . S
C308 C296 1.349 . S
C308 H302 0.950 . S
C308 C309 1.327 . S
C309 H303 0.950 . S
C309 C308 1.327 . S
C309 C313 1.429 . S
C310 C293 1.574 1_655 S
C310 H304 0.949 . S
C310 C314 1.368 . S
C311 C292 1.429 . S
C311 C305 1.429 . S
C311 C312 1.523 . S
C312 C293 1.368 . S
C312 C306 1.368 . S
C312 C311 1.523 . S
C313 C297 1.429 . S
C313 C309 1.429 . S
C313 C314 1.523 . S
C314 C298 1.368 . S
C314 C310 1.368 . S
C314 C313 1.523 . S
H315 C290 0.950 . S
H316 C292 0.950 . S
H317 C293 0.949 . S
H318 C295 0.950 . S
H319 C297 0.950 . S
C320 C321 1.349 1_455 S
C320 C322 1.327 . S
C320 H345 0.950 . S
C321 C320 1.349 1_655 S
C321 C337 1.349 1_545 S
C322 C320 1.327 . S
C322 C341 1.429 1_455 S
C322 H346 0.950 . S
C323 C340 1.574 . S
C323 C342 1.368 1_565 S
C323 H347 0.949 . S
H324 C328 0.949 . S
C325 C326 1.323 1_565 S
C325 C327 1.327 . S
C325 H348 0.950 . S
C326 C325 1.323 1_545 S
C326 C338 1.371 1_655 S
C327 C325 1.327 . S
C327 C343 1.429 1_565 S
C327 H349 0.950 . S
C328 H324 0.949 . S
C328 C336 1.574 . S
C328 C344 1.368 1_455 S
H329 C337 0.950 . S
H330 C335 0.950 . S
H331 C336 0.949 . S
H332 C338 0.950 . S
H333 C339 0.950 . S
H334 C340 0.949 . S
C335 H330 0.950 . S
C335 C337 1.327 . S
C335 C341 1.429 1_565 S
C336 C328 1.574 . S
C336 H331 0.949 . S
C336 C342 1.368 1_455 S
C337 C321 1.349 1_565 S
C337 H329 0.950 . S
C337 C335 1.327 . S
C338 C326 1.371 1_455 S
C338 H332 0.950 . S
C338 C339 1.327 . S
C339 H333 0.950 . S
C339 C338 1.327 . S
C339 C343 1.429 1_455 S
C340 C323 1.574 . S
C340 H334 0.949 . S
C340 C344 1.368 1_565 S
C341 C322 1.429 1_655 S
C341 C335 1.429 1_545 S
C341 C342 1.523 . S
C342 C323 1.368 1_545 S
C342 C336 1.368 1_655 S
C342 C341 1.523 . S
C343 C327 1.429 1_545 S
C343 C339 1.429 1_655 S
C343 C344 1.523 . S
C344 C328 1.368 1_655 S
C344 C340 1.368 1_545 S
C344 C343 1.523 . S
H345 C320 0.950 . S
H346 C322 0.950 . S
H347 C323 0.949 . S
H348 C325 0.950 . S
H349 C327 0.950 . S
C350 C351 1.366 1_655 S
C350 C352 1.327 . S
C350 H375 0.950 . S
C351 C350 1.366 1_455 S
C351 C367 1.329 1_565 S
C352 C350 1.327 . S
C352 C371 1.429 1_655 S
C352 H376 0.950 . S
C353 C370 1.574 . S
C353 C372 1.368 1_545 S
C353 H377 0.949 . S
H354 C358 0.949 . S
C355 C356 1.349 1_545 S
C355 C357 1.327 . S
C355 H378 0.950 . S
C356 C355 1.349 1_565 S
C356 C368 1.349 1_455 S
C357 C355 1.327 . S
C357 C373 1.429 1_545 S
C357 H379 0.950 . S
C358 H354 0.949 . S
C358 C366 1.574 . S
C358 C374 1.368 1_655 S
H359 C367 0.950 . S
H360 C365 0.950 . S
H361 C366 0.949 . S
H362 C368 0.950 . S
H363 C369 0.950 . S
H364 C370 0.949 . S
C365 H360 0.950 . S
C365 C367 1.327 . S
C365 C371 1.429 1_545 S
C366 C358 1.574 . S
C366 H361 0.949 . S
C366 C372 1.368 1_655 S
C367 C351 1.329 1_545 S
C367 H359 0.950 . S
C367 C365 1.327 . S
C368 C356 1.349 1_655 S
C368 H362 0.950 . S
C368 C369 1.327 . S
C369 H363 0.950 . S
C369 C368 1.327 . S
C369 C373 1.429 1_655 S
C370 C353 1.574 . S
C370 H364 0.949 . S
C370 C374 1.368 1_545 S
C371 C352 1.429 1_455 S
C371 C365 1.429 1_565 S
C371 C372 1.523 . S
C372 C353 1.368 1_565 S
C372 C366 1.368 1_455 S
C372 C371 1.523 . S
C373 C357 1.429 1_565 S
C373 C369 1.429 1_455 S
C373 C374 1.523 . S
C374 C358 1.368 1_455 S
C374 C370 1.368 1_565 S
C374 C373 1.523 . S
H375 C350 0.950 . S
H376 C352 0.950 . S
H377 C353 0.949 . S
H378 C355 0.950 . S
H379 C357 0.950 . S
C380 C381 1.349 . S
C380 C382 1.327 . S
C380 H405 0.950 . S
C381 C380 1.349 . S
C381 C397 1.349 . S
C382 C380 1.327 . S
C382 C401 1.429 . S
C382 H406 0.950 . S
C383 C400 1.574 . S
C383 C402 1.368 . S
C383 H407 0.949 . S
H384 C388 0.949 . S
C385 C386 1.349 . S
C385 C387 1.327 . S
C385 H408 0.950 . S
C386 C385 1.349 . S
C386 C398 1.349 . S
C387 C385 1.327 . S
C387 C403 1.429 . S
C387 H409 0.950 . S
C388 H384 0.949 . S
C388 C396 1.574 . S
C388 C404 1.368 . S
H389 C397 0.950 . S
H390 C395 0.950 . S
H391 C396 0.949 . S
H392 C398 0.950 . S
H393 C399 0.950 . S
H394 C400 0.949 . S
C395 H390 0.950 . S
C395 C397 1.327 . S
C395 C401 1.429 . S
C396 C388 1.574 . S
C396 H391 0.949 . S
C396 C402 1.368 . S
C397 C381 1.349 . S
C397 H389 0.950 . S
C397 C395 1.327 . S
C398 C386 1.349 . S
C398 H392 0.950 . S
C398 C399 1.327 . S
C399 H393 0.950 . S
C399 C398 1.327 . S
C399 C403 1.429 . S
C400 C383 1.574 . S
C400 H394 0.949 . S
C400 C404 1.368 . S
C401 C382 1.429 . S
C401 C395 1.429 . S
C401 C402 1.523 . S
C402 C383 1.368 . S
C402 C396 1.368 . S
C402 C401 1.523 . S
C403 C387 1.429 . S
C403 C399 1.429 . S
C403 C404 1.523 . S
C404 C388 1.368 . S
C404 C400 1.368 . S
C404 C403 1.523 . S
H405 C380 0.950 . S
H406 C382 0.950 . S
H407 C383 0.949 . S
H408 C385 0.950 . S
H409 C387 0.950 . S
C410 C411 1.349 . S
C410 C412 1.327 . S
C410 H435 0.950 . S
C411 C410 1.349 . S
C411 C427 1.349 . S
C412 C410 1.327 . S
C412 C431 1.429 . S
C412 H436 0.950 . S
C413 C430 1.574 . S
C413 C432 1.368 . S
C413 H437 0.949 . S
H414 C418 0.949 . S
C415 C416 1.349 . S
C415 C417 1.327 . S
C415 H438 0.950 . S
C416 C415 1.349 . S
C416 C428 1.349 . S
C417 C415 1.327 . S
C417 C433 1.429 . S
C417 H439 0.950 . S
C418 H414 0.949 . S
C418 C426 1.574 . S
C418 C434 1.368 . S
H419 C427 0.950 . S
H420 C425 0.950 . S
H421 C426 0.949 . S
H422 C428 0.950 . S
H423 C429 0.950 . S
H424 C430 0.949 . S
C425 H420 0.950 . S
C425 C427 1.327 . S
C425 C431 1.429 . S
C426 C418 1.574 . S
C426 H421 0.949 . S
C426 C432 1.368 . S
C427 C411 1.349 . S
C427 H419 0.950 . S
C427 C425 1.327 . S
C428 C416 1.349 . S
C428 H422 0.950 . S
C428 C429 1.327 . S
C429 H423 0.950 . S
C429 C428 1.327 . S
C429 C433 1.429 . S
C430 C413 1.574 . S
C430 H424 0.949 . S
C430 C434 1.368 . S
C431 C412 1.429 . S
C431 C425 1.429 . S
C431 C432 1.523 . S
C432 C413 1.368 . S
C432 C426 1.368 . S
C432 C431 1.523 . S
C433 C417 1.429 . S
C433 C429 1.429 . S
C433 C434 1.523 . S
C434 C418 1.368 . S
C434 C430 1.368 . S
C434 C433 1.523 . S
H435 C410 0.950 . S
H436 C412 0.950 . S
H437 C413 0.949 . S
H438 C415 0.950 . S
H439 C417 0.950 . S
C81 C44 1.550 1_554 S
C86 C2 1.552 1_556 S
C111 C42 1.550 1_556 S
C116 C4 1.549 1_554 S
C141 C29 1.316 . S
C146 C72 1.314 . S
C171 C32 1.316 . S
C176 C69 1.318 . S
C201 C9 0.998 1_545 S
C206 C12 0.998 1_565 S
C231 C22 1.464 1_565 S
C236 C24 1.464 1_545 S
C261 C49 0.998 . S
C266 C52 0.998 . S
C291 C64 1.464 . S
C296 C62 1.464 . S
C321 C38 1.488 . S
C326 C19 1.475 1_645 S
C351 C18 1.478 1_465 S
C356 C39 1.491 . S
C381 C78 1.488 . S
C386 C59 1.476 . S
C411 C79 1.488 . S
C416 C58 1.482 . S
