# Generated by pormake.
# Topology wme, (6)-cn, num edge types: 1
# Building blocks:
#     Node 0, Type 0, BuildingBlock: PAMTOO_clean_sbu_0, # of connection points: 6
#     Node 1, Type 0, BuildingBlock: PAMTOO_clean_sbu_0, # of connection points: 6
#     Node 2, Type 0, BuildingBlock: PAMTOO_clean_sbu_0, # of connection points: 6
#     Node 3, Type 0, BuildingBlock: PAMTOO_clean_sbu_0, # of connection points: 6
#     Node 4, Type 0, BuildingBlock: PAMTOO_clean_sbu_0, # of connection points: 6
#     Node 5, Type 0, BuildingBlock: PAMTOO_clean_sbu_0, # of connection points: 6
#     Node 6, Type 0, BuildingBlock: PAMTOO_clean_sbu_0, # of connection points: 6
#     Node 7, Type 0, BuildingBlock: PAMTOO_clean_sbu_0, # of connection points: 6
#     Node 8, Type 0, BuildingBlock: PAMTOO_clean_sbu_0, # of connection points: 6
#     Node 9, Type 0, BuildingBlock: PAMTOO_clean_sbu_0, # of connection points: 6
#     Node 10, Type 0, BuildingBlock: PAMTOO_clean_sbu_0, # of connection points: 6
#     Node 11, Type 0, BuildingBlock: PAMTOO_clean_sbu_0, # of connection points: 6
#     Edge 12, Type (0, 0), BuildingBlock: ZUJKAS_clean_linker_0, # of connection points: 2
#     Edge 13, Type (0, 0), BuildingBlock: ZUJKAS_clean_linker_0, # of connection points: 2
#     Edge 14, Type (0, 0), BuildingBlock: ZUJKAS_clean_linker_0, # of connection points: 2
#     Edge 15, Type (0, 0), BuildingBlock: ZUJKAS_clean_linker_0, # of connection points: 2
#     Edge 16, Type (0, 0), BuildingBlock: ZUJKAS_clean_linker_0, # of connection points: 2
#     Edge 17, Type (0, 0), BuildingBlock: ZUJKAS_clean_linker_0, # of connection points: 2
#     Edge 18, Type (0, 0), BuildingBlock: ZUJKAS_clean_linker_0, # of connection points: 2
#     Edge 19, Type (0, 0), BuildingBlock: ZUJKAS_clean_linker_0, # of connection points: 2
#     Edge 20, Type (0, 0), BuildingBlock: ZUJKAS_clean_linker_0, # of connection points: 2
#     Edge 21, Type (0, 0), BuildingBlock: ZUJKAS_clean_linker_0, # of connection points: 2
#     Edge 22, Type (0, 0), BuildingBlock: ZUJKAS_clean_linker_0, # of connection points: 2
#     Edge 23, Type (0, 0), BuildingBlock: ZUJKAS_clean_linker_0, # of connection points: 2
#     Edge 24, Type (0, 0), BuildingBlock: ZUJKAS_clean_linker_0, # of connection points: 2
#     Edge 25, Type (0, 0), BuildingBlock: ZUJKAS_clean_linker_0, # of connection points: 2
#     Edge 26, Type (0, 0), BuildingBlock: ZUJKAS_clean_linker_0, # of connection points: 2
#     Edge 27, Type (0, 0), BuildingBlock: ZUJKAS_clean_linker_0, # of connection points: 2
#     Edge 28, Type (0, 0), BuildingBlock: ZUJKAS_clean_linker_0, # of connection points: 2
#     Edge 29, Type (0, 0), BuildingBlock: ZUJKAS_clean_linker_0, # of connection points: 2
#     Edge 30, Type (0, 0), BuildingBlock: ZUJKAS_clean_linker_0, # of connection points: 2
#     Edge 31, Type (0, 0), BuildingBlock: ZUJKAS_clean_linker_0, # of connection points: 2
#     Edge 32, Type (0, 0), BuildingBlock: ZUJKAS_clean_linker_0, # of connection points: 2
#     Edge 33, Type (0, 0), BuildingBlock: ZUJKAS_clean_linker_0, # of connection points: 2
#     Edge 34, Type (0, 0), BuildingBlock: ZUJKAS_clean_linker_0, # of connection points: 2
#     Edge 35, Type (0, 0), BuildingBlock: ZUJKAS_clean_linker_0, # of connection points: 2
#     Edge 36, Type (0, 0), BuildingBlock: ZUJKAS_clean_linker_0, # of connection points: 2
#     Edge 37, Type (0, 0), BuildingBlock: ZUJKAS_clean_linker_0, # of connection points: 2
#     Edge 38, Type (0, 0), BuildingBlock: ZUJKAS_clean_linker_0, # of connection points: 2
#     Edge 39, Type (0, 0), BuildingBlock: ZUJKAS_clean_linker_0, # of connection points: 2
#     Edge 40, Type (0, 0), BuildingBlock: ZUJKAS_clean_linker_0, # of connection points: 2
#     Edge 41, Type (0, 0), BuildingBlock: ZUJKAS_clean_linker_0, # of connection points: 2
#     Edge 42, Type (0, 0), BuildingBlock: ZUJKAS_clean_linker_0, # of connection points: 2
#     Edge 43, Type (0, 0), BuildingBlock: ZUJKAS_clean_linker_0, # of connection points: 2
#     Edge 44, Type (0, 0), BuildingBlock: ZUJKAS_clean_linker_0, # of connection points: 2
#     Edge 45, Type (0, 0), BuildingBlock: ZUJKAS_clean_linker_0, # of connection points: 2
#     Edge 46, Type (0, 0), BuildingBlock: ZUJKAS_clean_linker_0, # of connection points: 2
#     Edge 47, Type (0, 0), BuildingBlock: ZUJKAS_clean_linker_0, # of connection points: 2
# Relax obj value: 0.083
# Max RMSD: 0.189
# Mean RMSD: 0.189
data_MOF--net-wme--node1-PAMTOO_clean_sbu_0--edge1-ZUJKAS_clean_linker_0
_symmetry_space_group_name_H-M    P1
_symmetry_Int_Tables_number       1
_symmetry_cell_setting            triclinic
loop_
_symmetry_equiv_pos_as_xyz
'x, y, z'
_cell_length_a     49.181785
_cell_length_b     49.153424
_cell_length_c     70.244243
_cell_angle_alpha  89.988505
_cell_angle_beta   90.132988
_cell_angle_gamma 120.08096
loop_
_atom_site_label
_atom_site_type_symbol
_atom_site_fract_x
_atom_site_fract_y
_atom_site_fract_z
_atom_type_partial_charge
Dy0 Dy 0.23153 0.3206 0.12803 0.0
Dy1 Dy 0.20019 0.36114 0.11106 0.0
C2 C 0.21944 0.32101 0.08448 0.0
O3 O 0.27183 0.36719 0.11803 0.0
O4 O 0.24795 0.39691 0.12069 0.0
O5 O 0.2623 0.30163 0.12381 0.0
O6 O 0.23506 0.29133 0.14972 0.0
O7 O 0.1959 0.36074 0.14307 0.0
O8 O 0.237 0.35338 0.15127 0.0
O9 O 0.16352 0.31061 0.10857 0.0
O10 O 0.17964 0.29283 0.13376 0.0
O11 O 0.16015 0.36806 0.10926 0.0
O12 O 0.20227 0.39779 0.09305 0.0
C13 C 0.27337 0.39476 0.11906 0.0
O14 O 0.21341 0.30255 0.09915 0.0
O15 O 0.22144 0.34858 0.08649 0.0
C16 C 0.2414 0.25081 0.13663 0.0
C17 C 0.21968 0.18604 0.1317 0.0
C18 C 0.20458 0.20031 0.12248 0.0
C19 C 0.21533 0.23238 0.12494 0.0
C20 C 0.25649 0.23679 0.14591 0.0
C21 C 0.24574 0.2047 0.14348 0.0
C22 C 0.25272 0.28454 0.13922 0.0
C23 C 0.21638 0.36182 0.15565 0.0
C24 C 0.15756 0.28961 0.12184 0.0
C25 C 0.17166 0.42008 0.10333 0.0
C26 C 0.16471 0.47232 0.1124 0.0
C27 C 0.19192 0.47161 0.1179 0.0
C28 C 0.19532 0.44566 0.11347 0.0
C29 C 0.14451 0.42064 0.09791 0.0
C30 C 0.14102 0.44644 0.1024 0.0
C31 C 0.17458 0.39255 0.09822 0.0
H32 H 0.18473 0.18682 0.11313 0.0
H33 H 0.20337 0.24285 0.11765 0.0
H34 H 0.27654 0.25063 0.15506 0.0
H35 H 0.25766 0.19444 0.15101 0.0
H36 H 0.21045 0.491 0.12579 0.0
H37 H 0.21639 0.4456 0.11793 0.0
H38 H 0.12599 0.40113 0.09008 0.0
H39 H 0.11998 0.44635 0.09772 0.0
Dy40 Dy 0.91851 0.22715 0.62587 0.0
Dy41 Dy 0.84596 0.19254 0.60878 0.0
C42 C 0.90567 0.22324 0.5824 0.0
O43 O 0.90399 0.26322 0.63064 0.0
O44 O 0.86162 0.24367 0.60996 0.0
O45 O 0.9682 0.2569 0.62087 0.0
O46 O 0.952 0.23481 0.64829 0.0
O47 O 0.84175 0.20315 0.63934 0.0
O48 O 0.88619 0.20399 0.6502 0.0
O49 O 0.85441 0.15489 0.61953 0.0
O50 O 0.90762 0.17951 0.61557 0.0
O51 O 0.79836 0.15367 0.60896 0.0
O52 O 0.81272 0.18995 0.5875 0.0
C53 C 0.88241 0.26607 0.62108 0.0
O54 O 0.91873 0.24314 0.59637 0.0
O55 O 0.87914 0.19693 0.58526 0.0
C56 C 0.99922 0.23966 0.63665 0.0
C57 C 0.0442 0.22 0.63548 0.0
C58 C 0.0207 0.21008 0.62142 0.0
C59 C 0.99831 0.21967 0.62206 0.0
C60 C 0.0224 0.24935 0.6508 0.0
C61 C 0.04465 0.23954 0.65027 0.0
C62 C 0.97617 0.25047 0.63723 0.0
C63 C 0.85924 0.20259 0.65338 0.0
C64 C 0.88033 0.15374 0.61779 0.0
C65 C 0.75919 0.16343 0.59697 0.0
C66 C 0.69917 0.15707 0.60171 0.0
C67 C 0.72335 0.17403 0.61505 0.0
C68 C 0.7531 0.17714 0.61271 0.0
C69 C 0.73541 0.14705 0.5835 0.0
C70 C 0.70574 0.1439 0.58582 0.0
C71 C 0.78947 0.16445 0.59475 0.0
H72 H 0.01948 0.1947 0.61 0.0
H73 H 0.98037 0.21157 0.6111 0.0
H74 H 0.02342 0.26468 0.6622 0.0
H75 H 0.06259 0.24774 0.66122 0.0
H76 H 0.71908 0.18427 0.62752 0.0
H77 H 0.77116 0.18979 0.62331 0.0
H78 H 0.73969 0.13633 0.57125 0.0
H79 H 0.68794 0.1312 0.57509 0.0
Dy80 Dy 0.70359 0.91501 0.12637 0.0
Dy81 Dy 0.66476 0.84491 0.10587 0.0
C82 C 0.69816 0.90778 0.08166 0.0
O83 O 0.65267 0.89914 0.13132 0.0
O84 O 0.63225 0.86416 0.10636 0.0
O85 O 0.71983 0.96483 0.12656 0.0
O86 O 0.7328 0.94427 0.14947 0.0
O87 O 0.64921 0.83804 0.13638 0.0
O88 O 0.69495 0.87873 0.14813 0.0
O89 O 0.71142 0.85224 0.11491 0.0
O90 O 0.74034 0.906 0.11419 0.0
O91 O 0.65553 0.79723 0.10413 0.0
O92 O 0.63231 0.81314 0.08461 0.0
C93 C 0.62947 0.88163 0.11954 0.0
O94 O 0.69395 0.92158 0.09636 0.0
O95 O 0.69433 0.87938 0.0831 0.0
C96 C 0.77079 0.99498 0.13958 0.0
C97 C 0.83491 0.04141 0.13677 0.0
C98 C 0.81979 0.01993 0.12182 0.0
C99 C 0.78807 0.99682 0.12325 0.0
C100 C 0.78572 0.01634 0.1545 0.0
C101 C 0.8175 0.03933 0.15313 0.0
C102 C 0.73764 0.9702 0.14147 0.0
C103 C 0.66844 0.85242 0.15066 0.0
C104 C 0.73858 0.87844 0.11424 0.0
C105 C 0.60553 0.75899 0.09296 0.0
C106 C 0.5523 0.69868 0.09828 0.0
C107 C 0.55964 0.72302 0.11148 0.0
C108 C 0.58608 0.75291 0.10887 0.0
C109 C 0.59796 0.73506 0.0796 0.0
C110 C 0.57164 0.70524 0.08221 0.0
C111 C 0.63478 0.78933 0.09057 0.0
H112 H 0.83262 0.02065 0.10914 0.0
H113 H 0.77707 0.98026 0.11167 0.0
H114 H 0.77281 0.01517 0.16724 0.0
H115 H 0.82837 0.0557 0.16481 0.0
H116 H 0.54543 0.71876 0.12409 0.0
H117 H 0.59167 0.77107 0.11941 0.0
H118 H 0.61271 0.73931 0.06724 0.0
H119 H 0.56644 0.6873 0.07158 0.0
Dy120 Dy 0.79347 0.69828 0.62505 0.0
Dy121 Dy 0.82574 0.65802 0.60884 0.0
C122 C 0.79259 0.68375 0.58203 0.0
O123 O 0.75675 0.64827 0.63127 0.0
O124 O 0.77471 0.6229 0.61162 0.0
O125 O 0.76863 0.72277 0.61825 0.0
O126 O 0.78318 0.72246 0.64726 0.0
O127 O 0.81713 0.64641 0.6399 0.0
O128 O 0.81913 0.69206 0.64924 0.0
O129 O 0.865 0.70474 0.61759 0.0
O130 O 0.84092 0.73383 0.61379 0.0
O131 O 0.86471 0.64948 0.60868 0.0
O132 O 0.826 0.6245 0.58898 0.0
C133 C 0.75298 0.62273 0.62264 0.0
O134 O 0.77419 0.67862 0.59657 0.0
O135 O 0.81926 0.68414 0.5845 0.0
C136 C 0.78578 0.76902 0.63598 0.0
C137 C 0.81002 0.8347 0.63568 0.0
C138 C 0.82456 0.82126 0.62506 0.0
C139 C 0.81256 0.78877 0.62522 0.0
C140 C 0.77156 0.78227 0.64691 0.0
C141 C 0.78357 0.81481 0.64679 0.0
C142 C 0.77202 0.73465 0.63525 0.0
C143 C 0.81978 0.66631 0.65329 0.0
C144 C 0.86651 0.73192 0.61545 0.0
C145 C 0.85334 0.59884 0.59948 0.0
C146 C 0.85817 0.54509 0.60737 0.0
C147 C 0.83225 0.54721 0.61395 0.0
C148 C 0.82992 0.57397 0.61011 0.0
C149 C 0.87904 0.59672 0.59283 0.0
C150 C 0.88147 0.57015 0.59673 0.0
C151 C 0.85222 0.6277 0.59568 0.0
H152 H 0.84469 0.83572 0.61617 0.0
H153 H 0.82379 0.77898 0.61659 0.0
H154 H 0.75094 0.76741 0.65535 0.0
H155 H 0.77208 0.82438 0.65537 0.0
H156 H 0.81405 0.52843 0.62232 0.0
H157 H 0.81003 0.57534 0.61552 0.0
H158 H 0.89736 0.61574 0.58464 0.0
H159 H 0.90146 0.56909 0.5912 0.0
Dy160 Dy 0.10793 0.7929 0.12568 0.0
Dy161 Dy 0.18061 0.82475 0.1098 0.0
C162 C 0.12191 0.79425 0.08257 0.0
O163 O 0.12063 0.75585 0.13196 0.0
O164 O 0.16327 0.77328 0.11184 0.0
O165 O 0.05833 0.76576 0.11954 0.0
O166 O 0.07393 0.78567 0.14757 0.0
O167 O 0.18322 0.81551 0.14081 0.0
O168 O 0.1398 0.81786 0.15001 0.0
O169 O 0.17344 0.8642 0.11849 0.0
O170 O 0.12031 0.84032 0.11415 0.0
O171 O 0.22855 0.8628 0.11011 0.0
O172 O 0.21426 0.82467 0.0899 0.0
C173 C 0.14184 0.75168 0.123 0.0
O174 O 0.10818 0.77508 0.09675 0.0
O175 O 0.14876 0.82026 0.08539 0.0
C176 C 0.02944 0.7856 0.13491 0.0
C177 C 0.98885 0.81055 0.13274 0.0
C178 C 1.01388 0.8203 0.11987 0.0
C179 C 0.03408 0.80807 0.121 0.0
C180 C 1.00476 0.77608 0.14792 0.0
C181 C 0.98466 0.78851 0.14689 0.0
C182 C 0.05024 0.77211 0.13585 0.0
C183 C 0.166 0.81823 0.15415 0.0
C184 C 0.1479 0.86587 0.11598 0.0
C185 C 0.26682 0.84957 0.10125 0.0
C186 C 0.32498 0.85309 0.10876 0.0
C187 C 0.30352 0.84725 0.12358 0.0
C188 C 0.27464 0.84538 0.11986 0.0
C189 C 0.2879 0.85487 0.08642 0.0
C190 C 0.31666 0.85654 0.0901 0.0
C191 C 0.23766 0.85009 0.09717 0.0
H192 H 0.01794 0.83753 0.10897 0.0
H193 H 0.05321 0.81601 0.11092 0.0
H194 H 1.00088 0.75885 0.15878 0.0
H195 H 0.96544 0.78037 0.15691 0.0
H196 H 0.30905 0.84408 0.13806 0.0
H197 H 0.25863 0.8411 0.13154 0.0
H198 H 0.28235 0.85828 0.07199 0.0
H199 H 0.33274 0.86137 0.0784 0.0
Dy200 Dy 0.32199 0.10173 0.62844 0.0
Dy201 Dy 0.36279 0.17313 0.61079 0.0
C202 C 0.32206 0.11301 0.58475 0.0
O203 O 0.36833 0.10745 0.6187 0.0
O204 O 0.39816 0.16112 0.62114 0.0
O205 O 0.30327 0.05183 0.62499 0.0
O206 O 0.29225 0.06963 0.6503 0.0
O207 O 0.36195 0.17809 0.64268 0.0
O208 O 0.35454 0.1299 0.65165 0.0
O209 O 0.3124 0.15975 0.60833 0.0
O210 O 0.29468 0.12635 0.63376 0.0
O211 O 0.37045 0.22018 0.60814 0.0
O212 O 0.40004 0.20684 0.59262 0.0
C213 C 0.39592 0.13345 0.61975 0.0
O214 O 0.30376 0.10097 0.59949 0.0
O215 O 0.34971 0.13857 0.58657 0.0
C216 C 0.25186 0.02221 0.63741 0.0
C217 C 0.18668 0.98035 0.63312 0.0
C218 C 0.20408 1.00127 0.61841 0.0
C219 C 0.23631 0.02212 0.62058 0.0
C220 C 0.23465 1.00131 0.65207 0.0
C221 C 0.20235 0.9806 0.64997 0.0
C222 C 0.28561 0.04486 0.64011 0.0
C223 C 0.36273 0.15908 0.65565 0.0
C224 C 0.29151 0.14503 0.6217 0.0
C225 C 0.4233 0.26 0.60261 0.0
C226 C 0.47595 0.31935 0.6112 0.0
C227 C 0.45444 0.30132 0.62552 0.0
C228 C 0.42843 0.27186 0.62129 0.0
C229 C 0.44485 0.2778 0.58836 0.0
C230 C 0.47093 0.30711 0.5926 0.0
C231 C 0.39529 0.22974 0.59749 0.0
H232 H 0.19266 1.00192 0.60536 0.0
H233 H 0.24903 0.03834 0.60915 0.0
H234 H 0.24617 1.00114 0.6652 0.0
H235 H 0.18969 0.96456 0.66148 0.0
H236 H 0.45784 0.30991 0.64003 0.0
H237 H 0.41225 0.2585 0.6326 0.0
H238 H 0.4413 0.26916 0.57385 0.0
H239 H 0.48683 0.32051 0.5812 0.0
Dy240 Dy 0.7046 0.79019 0.37754 0.0
Dy241 Dy 0.66178 0.81919 0.39435 0.0
C242 C 0.70271 0.80113 0.42107 0.0
O243 O 0.6582 0.74888 0.38674 0.0
O244 O 0.6276 0.77169 0.38355 0.0
O245 O 0.72435 0.76012 0.38205 0.0
O246 O 0.73498 0.78777 0.35626 0.0
O247 O 0.66197 0.8241 0.36243 0.0
O248 O 0.6735 0.78595 0.3535 0.0
O249 O 0.71174 0.85736 0.39685 0.0
O250 O 0.73155 0.84217 0.37227 0.0
O251 O 0.65318 0.85795 0.39694 0.0
O252 O 0.62367 0.8145 0.41212 0.0
C253 C 0.6304 0.74663 0.38514 0.0
O254 O 0.72165 0.80825 0.40658 0.0
O255 O 0.67473 0.79802 0.4188 0.0
C256 C 0.77554 0.78192 0.36979 0.0
C257 C 0.84026 0.80434 0.37543 0.0
C258 C 0.82562 0.81948 0.38409 0.0
C259 C 0.79356 0.80837 0.38128 0.0
C260 C 0.78994 0.76678 0.36107 0.0
C261 C 0.82201 0.77787 0.36386 0.0
C262 C 0.74183 0.77019 0.36684 0.0
C263 C 0.66353 0.80554 0.34944 0.0
C264 C 0.73337 0.86394 0.38392 0.0
C265 C 0.60005 0.84407 0.40216 0.0
C266 C 0.54753 0.85084 0.39354 0.0
C267 C 0.56935 0.85489 0.3793 0.0
C268 C 0.59529 0.85141 0.38354 0.0
C269 C 0.57816 0.8397 0.4163 0.0
C270 C 0.55215 0.84296 0.41205 0.0
C271 C 0.62814 0.84212 0.40738 0.0
H272 H 0.83881 0.83965 0.39326 0.0
H273 H 0.78278 0.82036 0.38814 0.0
H274 H 0.77641 0.74642 0.35209 0.0
H275 H 0.83257 0.7659 0.35676 0.0
H276 H 0.56626 0.8606 0.36486 0.0
H277 H 0.61175 0.85474 0.37231 0.0
H278 H 0.58144 0.83417 0.43076 0.0
H279 H 0.53602 0.84002 0.4234 0.0
Dy280 Dy 0.92553 0.70273 0.88054 0.0
Dy281 Dy 0.85281 0.66364 0.89651 0.0
C282 C 0.91141 0.69179 0.92378 0.0
O283 O 0.91167 0.6523 0.87526 0.0
O284 O 0.86936 0.62888 0.89575 0.0
O285 O 0.9751 0.72437 0.88671 0.0
O286 O 0.95982 0.72894 0.85866 0.0
O287 O 0.8497 0.64989 0.8658 0.0
O288 O 0.89399 0.69444 0.8558 0.0
O289 O 0.86096 0.70989 0.88627 0.0
O290 O 0.91386 0.7387 0.89125 0.0
O291 O 0.80542 0.6555 0.89612 0.0
O292 O 0.81855 0.63109 0.91654 0.0
C293 C 0.89041 0.62763 0.88479 0.0
O294 O 0.92499 0.68572 0.90981 0.0
O295 O 0.88499 0.69165 0.92069 0.0
C296 C 1.00505 0.77284 0.87121 0.0
C297 C 0.04711 0.83831 0.87357 0.0
C298 C 0.0189 0.82421 0.88398 0.0
C299 C 0.9981 0.79182 0.8828 0.0
C300 C 0.03289 0.78673 0.86063 0.0
C301 C 0.05374 0.81916 0.86178 0.0
C302 C 0.98351 0.73861 0.87034 0.0
C303 C 0.8673 0.66873 0.85211 0.0
C304 C 0.88659 0.73703 0.88879 0.0
C305 C 0.7656 0.60545 0.90587 0.0
C306 C 0.70659 0.55187 0.89825 0.0
C307 C 0.7343 0.55446 0.89069 0.0
C308 C 0.76359 0.58112 0.8944 0.0
C309 C 0.73813 0.60285 0.91353 0.0
C310 C 0.70892 0.57636 0.90977 0.0
C311 C 0.79576 0.63429 0.90946 0.0
H312 H 1.01318 0.83809 0.89337 0.0
H313 H 0.97675 0.78151 0.89115 0.0
H314 H 0.03857 0.77248 0.85154 0.0
H315 H 0.075 0.82927 0.85335 0.0
H316 H 0.73329 0.53613 0.88164 0.0
H317 H 0.78458 0.58288 0.88823 0.0
H318 H 0.73926 0.62145 0.92237 0.0
H319 H 0.68816 0.57493 0.91606 0.0
Dy320 Dy 0.23301 0.91694 0.38251 0.0
Dy321 Dy 0.20073 0.84411 0.39841 0.0
C322 C 0.23382 0.9028 0.42541 0.0
O323 O 0.26962 0.9037 0.376 0.0
O324 O 0.25182 0.86039 0.3957 0.0
O325 O 0.25863 0.96635 0.38938 0.0
O326 O 0.2424 0.95165 0.3606 0.0
O327 O 0.20944 0.84157 0.36733 0.0
O328 O 0.20724 0.88522 0.35826 0.0
O329 O 0.1615 0.85169 0.38991 0.0
O330 O 0.18581 0.90482 0.39428 0.0
O331 O 0.16186 0.7964 0.39828 0.0
O332 O 0.20036 0.81012 0.41815 0.0
C333 C 0.27348 0.88199 0.38463 0.0
O334 O 0.25229 0.91614 0.4109 0.0
O335 O 0.20715 0.87647 0.42289 0.0
C336 C 0.2408 0.99572 0.37264 0.0
C337 C 0.21653 0.03698 0.37456 0.0
C338 C 0.20114 1.00765 0.38379 0.0
C339 C 0.2132 0.98728 0.38286 0.0
C340 C 0.25593 0.02461 0.3631 0.0
C341 C 0.24393 0.04509 0.36405 0.0
C342 C 0.25443 0.97501 0.37263 0.0
C343 C 0.20667 0.85892 0.35405 0.0
C344 C 0.16011 0.87733 0.39252 0.0
C345 C 0.17323 0.75711 0.40745 0.0
C346 C 0.16874 0.69863 0.39962 0.0
C347 C 0.19534 0.72691 0.39389 0.0
C348 C 0.19751 0.75594 0.39769 0.0
C349 C 0.14681 0.72904 0.41323 0.0
C350 C 0.14455 0.7001 0.40936 0.0
C351 C 0.17426 0.78704 0.41129 0.0
H352 H 0.18028 1.00079 0.39222 0.0
H353 H 0.20137 0.96522 0.39048 0.0
H354 H 0.27726 0.03151 0.35513 0.0
H355 H 0.25615 0.06731 0.35659 0.0
H356 H 0.21425 0.72657 0.38622 0.0
H357 H 0.21798 0.7774 0.39295 0.0
H358 H 0.12782 0.7295 0.42074 0.0
H359 H 0.12399 0.67885 0.41424 0.0
Dy360 Dy 0.32775 0.23249 0.88612 0.0
Dy361 Dy 0.36766 0.19826 0.89984 0.0
C362 C 0.34485 0.23179 0.92826 0.0
O363 O 0.37766 0.26938 0.87982 0.0
O364 O 0.40387 0.2488 0.89657 0.0
O365 O 0.30128 0.25407 0.89536 0.0
O366 O 0.30597 0.24816 0.86522 0.0
O367 O 0.37681 0.20732 0.86857 0.0
O368 O 0.33128 0.20704 0.86096 0.0
O369 O 0.32051 0.15983 0.89124 0.0
O370 O 0.29208 0.18427 0.89648 0.0
O371 O 0.37514 0.15858 0.89865 0.0
O372 O 0.40183 0.19659 0.91854 0.0
C373 C 0.40363 0.27164 0.88689 0.0
O374 O 0.35046 0.25094 0.91406 0.0
O375 O 0.34305 0.20462 0.92507 0.0
C376 C 0.25755 0.24182 0.87607 0.0
C377 C 0.19206 0.21822 0.87418 0.0
C378 C 0.20417 0.20176 0.88417 0.0
C379 C 0.23656 0.21343 0.88507 0.0
C380 C 0.24566 0.25793 0.8657 0.0
C381 C 0.21322 0.24624 0.86473 0.0
C382 C 0.29176 0.25541 0.87823 0.0
C383 C 0.35616 0.20549 0.85592 0.0
C384 C 0.29359 0.15857 0.89394 0.0
C385 C 0.42619 0.16878 0.90619 0.0
C386 C 0.47928 0.16334 0.89717 0.0
C387 C 0.45007 0.13646 0.9009 0.0
C388 C 0.42388 0.13919 0.90539 0.0
C389 C 0.45522 0.19577 0.90232 0.0
C390 C 0.48157 0.19306 0.89793 0.0
C391 C 0.39792 0.17053 0.91107 0.0
H392 H 0.18872 0.18036 0.89181 0.0
H393 H 0.24527 0.20068 0.89322 0.0
H394 H 0.26148 0.27983 0.85861 0.0
H395 H 0.20474 0.25925 0.85664 0.0
H396 H 0.44757 0.11327 0.90069 0.0
H397 H 0.40172 0.11808 0.90834 0.0
H398 H 0.45757 0.21888 0.90269 0.0
H399 H 0.50365 0.2142 0.89495 0.0
Dy400 Dy 0.10704 0.31981 0.38303 0.0
Dy401 Dy 0.17971 0.35744 0.39976 0.0
C402 C 0.12041 0.32984 0.42636 0.0
O403 O 0.1226 0.37049 0.37741 0.0
O404 O 0.1648 0.39339 0.39816 0.0
O405 O 0.05755 0.30022 0.38843 0.0
O406 O 0.073 0.29454 0.3607 0.0
O407 O 0.18362 0.3704 0.36884 0.0
O408 O 0.13886 0.32614 0.35893 0.0
O409 O 0.17029 0.31042 0.39021 0.0
O410 O 0.11693 0.28263 0.39389 0.0
O411 O 0.22706 0.36565 0.39954 0.0
O412 O 0.21344 0.38861 0.42069 0.0
C413 C 0.1443 0.39507 0.38684 0.0
O414 O 0.10761 0.3368 0.41231 0.0
O415 O 0.14665 0.32956 0.42355 0.0
C416 C 0.02578 0.25197 0.3725 0.0
C417 C 0.98047 0.18725 0.37311 0.0
C418 C 0.99937 0.20185 0.38916 0.0
C419 C 0.02193 0.23383 0.38883 0.0
C420 C 1.00713 0.23742 0.35641 0.0
C421 C 0.98476 0.20532 0.35668 0.0
C422 C 0.04915 0.2859 0.37205 0.0
C423 C 0.16601 0.35121 0.35523 0.0
C424 C 0.14404 0.28364 0.39217 0.0
C425 C 0.26681 0.41484 0.41094 0.0
C426 C 0.32714 0.46789 0.40561 0.0
C427 C 0.30318 0.45995 0.39201 0.0
C428 C 0.27327 0.43362 0.39465 0.0
C429 C 0.29037 0.42298 0.42467 0.0
C430 C 0.32021 0.44922 0.42206 0.0
C431 C 0.23637 0.38582 0.41351 0.0
H432 H 0.99689 0.18846 0.40193 0.0
H433 H 0.03629 0.24435 0.40137 0.0
H434 H 1.00978 0.25093 0.34366 0.0
H435 H 0.9704 0.19477 0.34414 0.0
H436 H 0.30774 0.47364 0.37912 0.0
H437 H 0.25537 0.42761 0.38385 0.0
H438 H 0.28579 0.40877 0.43734 0.0
H439 H 0.33784 0.45493 0.43298 0.0
Dy440 Dy 0.79785 0.10417 0.87933 0.0
Dy441 Dy 0.83056 0.17685 0.89573 0.0
C442 C 0.80213 0.11806 0.92288 0.0
O443 O 0.76081 0.11733 0.87423 0.0
O444 O 0.77887 0.15847 0.8956 0.0
O445 O 0.76888 0.05435 0.88454 0.0
O446 O 0.79193 0.07063 0.85743 0.0
O447 O 0.81892 0.17974 0.86518 0.0
O448 O 0.81999 0.13613 0.85469 0.0
O449 O 0.86919 0.16974 0.88528 0.0
O450 O 0.84587 0.11675 0.88982 0.0
O451 O 0.86914 0.22455 0.89563 0.0
O452 O 0.83099 0.2109 0.91561 0.0
C453 C 0.75685 0.13778 0.88426 0.0
O454 O 0.78236 0.10372 0.90899 0.0
O455 O 0.82774 0.14517 0.91983 0.0
C456 C 0.78873 0.02479 0.87009 0.0
C457 C 0.81195 0.98282 0.8735 0.0
C458 C 0.82662 0.01179 0.88319 0.0
C459 C 0.81508 0.03253 0.88152 0.0
C460 C 0.77418 0.99614 0.86025 0.0
C461 C 0.78565 0.9753 0.86194 0.0
C462 C 0.77638 0.04648 0.86853 0.0
C463 C 0.82018 0.16247 0.85128 0.0
C464 C 0.87117 0.14432 0.88741 0.0
C465 C 0.85651 0.26351 0.9042 0.0
C466 C 0.8609 0.32218 0.89688 0.0
C467 C 0.85891 0.30245 0.88177 0.0
C468 C 0.85659 0.27333 0.88539 0.0
C469 C 0.85798 0.28289 0.91928 0.0
C470 C 0.86006 0.31188 0.91568 0.0
C471 C 0.85655 0.23407 0.90839 0.0
H472 H 0.84663 0.01817 0.8924 0.0
H473 H 0.82654 0.05449 0.88931 0.0
H474 H 0.75389 0.98984 0.8513 0.0
H475 H 0.77404 0.95339 0.85409 0.0
H476 H 0.85908 0.3095 0.86714 0.0
H477 H 0.85527 0.25872 0.87348 0.0
H478 H 0.85808 0.27584 0.93388 0.0
H479 H 0.86183 0.3266 0.92763 0.0
H480 H 0.10078 0.88077 0.1155 0.0
H481 H 0.10694 0.9336 0.11575 0.0
H482 H 0.20766 0.97481 0.11603 0.0
H483 H 0.2019 0.9227 0.11565 0.0
H484 H 0.1391 0.9819 0.14355 0.0
H485 H 0.19238 0.02088 0.07225 0.0
H486 H 0.17144 0.98001 0.07921 0.0
H487 H 0.21164 1.0051 0.08642 0.0
C488 C 0.12422 0.90111 0.11544 0.0
C489 C 0.15083 0.89743 0.1155 0.0
C490 C 0.12769 0.93125 0.11562 0.0
C491 C 0.15777 0.95813 0.1156 0.0
C492 C 0.18424 0.95444 0.11564 0.0
H493 H 0.25515 0.15774 0.12726 0.0
H494 H 0.23687 0.10181 0.12313 0.0
C495 C 0.18084 0.92451 0.11555 0.0
C496 C 0.16204 0.99025 0.11638 0.0
H497 H 0.19937 0.06147 0.094 0.0
C498 C 0.15179 0.99922 0.13259 0.0
C499 C 0.17863 0.01278 0.10206 0.0
C500 C 0.1889 1.00417 0.08391 0.0
C501 C 0.15917 0.03055 0.13533 0.0
C502 C 0.17683 0.05334 0.12132 0.0
C503 C 0.18603 0.04405 0.10479 0.0
C504 C 0.18744 0.08723 0.12394 0.0
C505 C 0.14931 0.03929 0.15359 0.0
C506 C 0.16573 0.0977 0.12561 0.0
C507 C 0.17612 0.12971 0.12814 0.0
C508 C 0.20847 0.15193 0.12895 0.0
C509 C 0.2301 0.1413 0.12704 0.0
C510 C 0.21969 0.10934 0.12452 0.0
H511 H 0.14193 0.02063 0.16456 0.0
H512 H 0.16875 0.06157 0.15947 0.0
H513 H 0.12912 0.04284 0.15065 0.0
H514 H 0.14074 0.08114 0.12489 0.0
H515 H 0.15879 0.137 0.12968 0.0
H516 H 0.24889 0.12739 0.65081 0.0
H517 H 0.20501 0.13745 0.65368 0.0
H518 H 0.22844 0.18377 0.59915 0.0
H519 H 0.27242 0.17412 0.59617 0.0
H520 H 0.21197 0.20255 0.65041 0.0
H521 H 0.13089 0.11492 0.59757 0.0
H522 H 0.16154 0.1112 0.60941 0.0
H523 H 0.17128 0.13916 0.59054 0.0
C524 C 0.24461 0.13955 0.63937 0.0
C525 C 0.2642 0.14995 0.62326 0.0
C526 C 0.21957 0.14531 0.64106 0.0
C527 C 0.21341 0.16113 0.62656 0.0
C528 C 0.23267 0.17126 0.6104 0.0
H529 H 0.07736 0.21971 0.60438 0.0
H530 H 0.11808 0.20504 0.60297 0.0
C531 C 0.25786 0.1658 0.60877 0.0
C532 C 0.18753 0.16812 0.62854 0.0
H533 H 0.11626 0.1504 0.61004 0.0
C534 C 0.1909 0.19103 0.64172 0.0
C535 C 0.16031 0.15321 0.61703 0.0
C536 C 0.15548 0.12807 0.60289 0.0
C537 C 0.16803 0.20006 0.64338 0.0
C538 C 0.14062 0.18505 0.63191 0.0
C539 C 0.1372 0.16187 0.61885 0.0
C540 C 0.11556 0.19354 0.6329 0.0
C541 C 0.17407 0.22637 0.6569 0.0
C542 C 0.10019 0.19152 0.65013 0.0
C543 C 0.07707 0.20013 0.65099 0.0
C544 C 0.06844 0.2104 0.63456 0.0
C545 C 0.08333 0.21169 0.61725 0.0
C546 C 0.10666 0.20338 0.61644 0.0
H547 H 0.19946 0.24113 0.66036 0.0
H548 H 0.16566 0.24172 0.65085 0.0
H549 H 0.16134 0.21621 0.67041 0.0
H550 H 0.10596 0.18315 0.66291 0.0
H551 H 0.06565 0.19839 0.66447 0.0
H552 H 0.88069 0.05953 0.16406 0.0
H553 H 0.93608 0.10064 0.16176 0.0
H554 H 0.92101 0.11946 0.10393 0.0
H555 H 0.86557 0.07864 0.10615 0.0
H556 H 0.98286 0.1059 0.13281 0.0
H557 H 0.96043 0.20612 0.13295 0.0
H558 H 0.93204 0.16752 0.14156 0.0
H559 H 0.93753 0.17483 0.11644 0.0
C560 C 0.88913 0.07255 0.15089 0.0
C561 C 0.86868 0.06592 0.13531 0.0
C562 C 0.9208 0.09587 0.14957 0.0
C563 C 0.93253 0.11322 0.13274 0.0
C564 C 0.91232 0.10648 0.1171 0.0
H565 H 0.10853 0.2724 0.09722 0.0
H566 H 0.05493 0.22848 0.10006 0.0
C567 C 0.88072 0.08302 0.11835 0.0
C568 C 0.96586 0.13856 0.13155 0.0
H569 H 1.01261 0.2181 0.12744 0.0
C570 C 0.98947 0.13047 0.13172 0.0
C571 C 0.97429 0.17051 0.13009 0.0
C572 C 0.94984 0.18048 0.13038 0.0
C573 C 0.02138 0.15353 0.12998 0.0
C574 C 0.02986 0.18557 0.12852 0.0
C575 C 1.00615 0.19357 0.12854 0.0
C576 C 0.06307 0.21126 0.12658 0.0
C577 C 0.04556 0.14324 0.12912 0.0
C578 C 0.08564 0.21629 0.14055 0.0
C579 C 0.11653 0.24137 0.13889 0.0
C580 C 0.12531 0.26215 0.12336 0.0
C581 C 0.10264 0.25695 0.10939 0.0
C582 C 0.07191 0.23181 0.111 0.0
H583 H 0.03482 0.11806 0.1251 0.0
H584 H 0.06436 0.15758 0.11874 0.0
H585 H 0.05653 0.1463 0.14336 0.0
H586 H 0.07925 0.20121 0.15293 0.0
H587 H 0.13333 0.2448 0.14996 0.0
H588 H 0.77534 0.86417 0.63407 0.0
H589 H 0.79435 0.92046 0.63177 0.0
H590 H 0.89003 0.93969 0.63216 0.0
H591 H 0.87126 0.8833 0.63478 0.0
H592 H 0.83547 0.96901 0.65749 0.0
H593 H 0.88508 0.98678 0.58437 0.0
H594 H 0.85759 0.9483 0.59355 0.0
H595 H 0.8978 0.96796 0.60128 0.0
C596 C 0.80045 0.88031 0.63389 0.0
C597 C 0.82174 0.86912 0.63464 0.0
C598 C 0.81126 0.9125 0.63244 0.0
C599 C 0.84357 0.93421 0.63156 0.0
C600 C 0.86498 0.92328 0.63246 0.0
H601 H 0.92843 0.14015 0.6185 0.0
H602 H 0.92348 0.08811 0.62252 0.0
C603 C 0.85418 0.89103 0.63396 0.0
C604 C 0.85453 0.96828 0.63006 0.0
H605 H 0.88858 0.03104 0.59975 0.0
C606 C 0.84732 0.98264 0.64493 0.0
C607 C 0.87024 0.98608 0.61374 0.0
C608 C 0.87803 0.97159 0.59722 0.0
C609 C 0.85467 0.01409 0.64373 0.0
C610 C 0.86909 0.03149 0.62705 0.0
C611 C 0.87751 0.0176 0.61249 0.0
C612 C 0.8727 0.06296 0.62385 0.0
C613 C 0.84653 0.02832 0.66023 0.0
C614 C 0.84582 0.06586 0.62276 0.0
C615 C 0.84851 0.09527 0.62047 0.0
C616 C 0.87821 0.1226 0.61909 0.0
C617 C 0.90522 0.1196 0.61958 0.0
C618 C 0.90245 0.08994 0.62188 0.0
H619 H 0.84447 0.01564 0.67373 0.0
H620 H 0.86446 0.05351 0.66213 0.0
H621 H 0.82354 0.02668 0.6574 0.0
H622 H 0.82262 0.04528 0.62383 0.0
H623 H 0.82714 0.09651 0.61995 0.0
H624 H 0.96135 0.81691 0.10052 0.0
H625 H 0.9232 0.83477 0.09796 0.0
H626 H 0.92836 0.84987 0.15868 0.0
H627 H 0.96612 0.83139 0.16135 0.0
H628 H 0.86944 0.81845 0.14731 0.0
H629 H 0.93317 0.92085 0.09973 0.0
H630 H 0.92987 0.88589 0.08952 0.0
H631 H 0.95214 0.9018 0.11111 0.0
C632 C 0.95471 0.8245 0.11328 0.0
C633 C 0.96678 0.82281 0.13113 0.0
C634 C 0.93302 0.83488 0.11179 0.0
C635 C 0.92333 0.84431 0.12807 0.0
C636 C 0.93559 0.84291 0.1459 0.0
H637 H 0.79888 0.92493 0.12276 0.0
H638 H 0.84524 0.91889 0.12668 0.0
C639 C 0.95706 0.83222 0.14742 0.0
C640 C 0.89867 0.85329 0.12667 0.0
H641 H 0.87741 0.9002 0.10253 0.0
C642 C 0.8714 0.8366 0.13767 0.0
C643 C 0.90133 0.87733 0.11434 0.0
C644 C 0.93087 0.89771 0.10317 0.0
C645 C 0.84631 0.84239 0.13616 0.0
C646 C 0.8481 0.86491 0.1229 0.0
C647 C 0.87585 0.88258 0.11246 0.0
C648 C 0.8209 0.86949 0.11927 0.0
C649 C 0.81809 0.82427 0.14885 0.0
C650 C 0.79222 0.84405 0.11316 0.0
C651 C 0.76581 0.84734 0.11106 0.0
C652 C 0.76757 0.87631 0.11472 0.0
C653 C 0.79674 0.90228 0.11987 0.0
C654 C 0.82321 0.89887 0.12214 0.0
H655 H 0.8243 0.81581 0.16192 0.0
H656 H 0.80773 0.83888 0.15312 0.0
H657 H 0.79996 0.80337 0.14104 0.0
H658 H 0.79011 0.82141 0.11032 0.0
H659 H 0.74385 0.82697 0.10678 0.0
H660 H 0.92328 0.73523 0.61279 0.0
H661 H 0.97532 0.78143 0.61569 0.0
H662 H 0.93395 0.84025 0.62182 0.0
H663 H 0.88127 0.7938 0.6187 0.0
H664 H 0.98772 0.86596 0.59775 0.0
H665 H 1.01096 0.82631 0.66655 0.0
H666 H 0.99917 0.79717 0.64817 0.0
H667 H 0.9721 0.80917 0.65632 0.0
C668 C 0.92507 0.75794 0.61471 0.0
C669 C 0.89799 0.76071 0.61573 0.0
C670 C 0.95493 0.78435 0.61643 0.0
C671 C 0.95851 0.81417 0.61941 0.0
C672 C 0.93167 0.81737 0.6197 0.0
H673 H 0.14025 0.9662 0.65927 0.0
H674 H 0.08396 0.92894 0.65592 0.0
C675 C 0.9016 0.79082 0.61789 0.0
C676 C 0.9904 0.84161 0.62252 0.0
H677 H 0.05556 0.86717 0.65052 0.0
C678 C 1.00249 0.86647 0.6094 0.0
C679 C 1.00945 0.84251 0.63791 0.0
C680 C 0.99718 0.81753 0.65316 0.0
C681 C 0.03362 0.89154 0.61081 0.0
C682 C 0.05329 0.89139 0.62554 0.0
C683 C 0.04069 0.86716 0.6391 0.0
C684 C 0.08717 0.91557 0.62702 0.0
C685 C 0.04506 0.91795 0.59655 0.0
C686 C 0.10782 0.9204 0.61193 0.0
C687 C 0.14002 0.94174 0.61381 0.0
C688 C 0.15231 0.95837 0.63091 0.0
C689 C 0.13158 0.95352 0.64598 0.0
C690 C 0.09938 0.93235 0.64405 0.0
H691 H 0.02524 0.91981 0.59038 0.0
H692 H 0.062 0.94085 0.60313 0.0
H693 H 0.05703 0.91325 0.5847 0.0
H694 H 0.09919 0.9071 0.59885 0.0
H695 H 0.15541 0.94458 0.60204 0.0
H696 H 0.14541 0.92466 0.39224 0.0
H697 H 0.09273 0.91871 0.39194 0.0
H698 H 0.05124 0.81793 0.39354 0.0
H699 H 0.10325 0.82351 0.39394 0.0
H700 H 0.04416 0.88523 0.36441 0.0
H701 H 1.00582 0.83562 0.4366 0.0
H702 H 0.0466 0.85621 0.42953 0.0
H703 H 0.02147 0.81564 0.42307 0.0
C704 C 0.12508 0.90127 0.39272 0.0
C705 C 0.12865 0.8746 0.39315 0.0
C706 C 0.095 0.89792 0.39251 0.0
C707 C 0.06808 0.86788 0.39301 0.0
C708 C 0.07166 0.84134 0.39353 0.0
H709 H 0.86888 0.76945 0.38122 0.0
H710 H 0.92483 0.78831 0.38578 0.0
C711 C 0.10152 0.84463 0.39363 0.0
C712 C 0.03604 0.86369 0.39205 0.0
H713 H 0.96504 0.82745 0.41459 0.0
C714 C 0.02695 0.87311 0.3755 0.0
C715 C 1.01365 0.84784 0.40655 0.0
C716 C 0.02242 0.8385 0.42502 0.0
C717 C 0.99561 0.86555 0.37262 0.0
C718 C 0.97295 0.84857 0.38681 0.0
C719 C 0.98237 0.84027 0.40367 0.0
C720 C 0.93904 0.83763 0.38403 0.0
C721 C 0.98671 0.87444 0.35402 0.0
C722 C 0.92837 0.85909 0.38171 0.0
C723 C 0.89635 0.84835 0.37895 0.0
C724 C 0.87435 0.81592 0.37853 0.0
C725 C 0.88517 0.79455 0.38112 0.0
C726 C 0.91713 0.8053 0.38388 0.0
H727 H 1.00536 0.88146 0.3431 0.0
H728 H 0.96452 0.85458 0.34834 0.0
H729 H 0.98294 0.89461 0.35643 0.0
H730 H 0.94478 0.88415 0.38209 0.0
H731 H 0.88889 0.86547 0.37689 0.0
H732 H 0.03439 0.8867 0.87578 0.0
H733 H 0.07201 0.94307 0.8789 0.0
H734 H 0.14858 0.92407 0.87847 0.0
H735 H 0.1113 0.86783 0.87561 0.0
H736 H 0.1183 0.97569 0.90752 0.0
H737 H 0.17201 0.99013 0.83629 0.0
H738 H 0.13486 0.95623 0.84257 0.0
H739 H 0.17114 0.95877 0.84987 0.0
C740 C 0.05923 0.89449 0.87645 0.0
C741 C 0.0698 0.87268 0.87529 0.0
C742 C 0.08069 0.92673 0.87816 0.0
C743 C 0.1131 0.9378 0.87861 0.0
C744 C 0.12369 0.9161 0.87772 0.0
H745 H 0.28999 0.10154 0.89299 0.0
H746 H 0.24352 0.04992 0.88958 0.0
C747 C 0.10232 0.88393 0.87603 0.0
C748 C 0.13605 0.97194 0.88025 0.0
H749 H 0.20049 0.03159 0.85864 0.0
C750 C 0.13602 0.98812 0.89674 0.0
C751 C 0.15896 0.98813 0.86608 0.0
C752 C 0.15915 0.97254 0.84761 0.0
C753 C 0.15943 0.0196 0.89989 0.0
C754 C 0.18316 0.03528 0.88608 0.0
C755 C 0.18235 0.01947 0.86926 0.0
C756 C 0.21069 0.06702 0.8894 0.0
C757 C 0.15955 0.03539 0.91831 0.0
C758 C 0.20769 0.09394 0.89065 0.0
C759 C 0.23447 0.12384 0.89265 0.0
C760 C 0.26462 0.12721 0.89331 0.0
C761 C 0.26726 0.10001 0.89243 0.0
C762 C 0.24066 0.07036 0.89047 0.0
H763 H 0.14234 0.01856 0.9287 0.0
H764 H 0.18331 0.04693 0.92488 0.0
H765 H 0.15346 0.05389 0.91538 0.0
H766 H 0.18477 0.09192 0.88962 0.0
H767 H 0.23159 0.14426 0.8932 0.0
H768 H 0.19681 0.27891 0.39279 0.0
H769 H 0.2009 0.23172 0.39124 0.0
H770 H 0.09991 0.17438 0.38985 0.0
H771 H 0.09543 0.22201 0.39124 0.0
H772 H 0.17587 0.1798 0.41663 0.0
H773 H 0.12977 0.14511 0.34275 0.0
H774 H 0.14272 0.18401 0.35199 0.0
H775 H 0.10588 0.15148 0.35951 0.0
C776 C 0.17532 0.25636 0.39215 0.0
C777 C 0.14574 0.25433 0.39203 0.0
C778 C 0.17777 0.22934 0.39131 0.0
C779 C 0.15078 0.19958 0.39023 0.0
C780 C 0.12107 0.1972 0.39041 0.0
H781 H 0.15538 0.02425 0.37371 0.0
H782 H 0.1362 0.06114 0.37861 0.0
C783 C 0.11856 0.2244 0.39132 0.0
C784 C 0.15446 0.17146 0.38889 0.0
H785 H 0.1491 0.11549 0.3578 0.0
C786 C 0.16967 0.16548 0.40386 0.0
C787 C 0.14626 0.15276 0.37224 0.0
C788 C 0.13041 0.1586 0.3556 0.0
C789 C 0.17776 0.14193 0.40243 0.0
C790 C 0.17099 0.12427 0.38542 0.0
C791 C 0.15446 0.12923 0.37077 0.0
C792 C 0.18245 0.10186 0.3822 0.0
C793 C 0.19381 0.13641 0.41909 0.0
C794 C 0.21482 0.11262 0.38222 0.0
C795 C 0.22584 0.09166 0.37949 0.0
C796 C 0.20472 0.05944 0.37658 0.0
C797 C 0.17227 0.04883 0.37618 0.0
C798 C 0.16126 0.06988 0.37888 0.0
H799 H 0.18892 0.1448 0.43264 0.0
H800 H 0.18619 0.11108 0.42057 0.0
H801 H 0.2196 0.1496 0.4168 0.0
H802 H 0.23162 0.13731 0.38441 0.0
H803 H 0.25093 0.10062 0.38007 0.0
H804 H 0.14289 0.15728 0.87195 0.0
H805 H 0.08652 0.13902 0.87322 0.0
H806 H 0.10699 0.23491 0.87788 0.0
H807 H 0.16319 0.25336 0.87704 0.0
H808 H 0.0525 0.15042 0.90269 0.0
H809 H 0.04432 0.19833 0.83281 0.0
H810 H 0.07692 0.19296 0.8392 0.0
H811 H 0.0752 0.2265 0.84785 0.0
C812 C 0.13543 0.17451 0.87333 0.0
C813 C 0.15768 0.20686 0.87426 0.0
C814 C 0.10319 0.16401 0.87397 0.0
C815 C 0.0926 0.18564 0.87538 0.0
C816 C 0.11467 0.21786 0.8764 0.0
H817 H 0.92785 0.19838 0.88659 0.0
H818 H 0.97979 0.20422 0.88374 0.0
C819 C 0.14683 0.22837 0.87583 0.0
C820 C 0.05852 0.17477 0.8762 0.0
H821 H 1.00115 0.18275 0.85396 0.0
C822 C 0.04106 0.15706 0.89194 0.0
C823 C 0.0437 0.18337 0.86208 0.0
C824 C 0.06088 0.20108 0.84443 0.0
C825 C 1.00956 0.14918 0.89444 0.0
C826 C 0.99513 0.15886 0.88066 0.0
C827 C 1.01229 0.17548 0.86456 0.0
C828 C 0.96315 0.15431 0.88328 0.0
C829 C 0.99247 0.13189 0.91221 0.0
C830 C 0.93637 0.12418 0.88408 0.0
C831 C 0.90636 0.12068 0.8858 0.0
C832 C 0.90269 0.14729 0.88659 0.0
C833 C 0.92967 0.17733 0.88595 0.0
C834 C 0.95948 0.18077 0.88431 0.0
H835 H 1.00872 0.13148 0.92308 0.0
H836 H 0.97965 0.14289 0.91858 0.0
H837 H 0.97498 0.10723 0.9085 0.0
H838 H 0.93861 0.10342 0.88301 0.0
H839 H 0.88608 0.09722 0.88615 0.0
H840 H 0.93802 0.15588 0.40134 0.0
H841 H 0.89741 0.10019 0.40215 0.0
H842 H 0.92683 0.08651 0.34696 0.0
H843 H 0.96765 0.14224 0.34605 0.0
H844 H 0.84785 0.06764 0.37195 0.0
H845 H 0.92543 0.0168 0.38362 0.0
H846 H 0.93739 0.05697 0.38976 0.0
H847 H 0.93647 0.04611 0.3653 0.0
C848 C 0.93604 0.14095 0.38946 0.0
C849 C 0.95607 0.1534 0.37365 0.0
C850 C 0.91276 0.10922 0.38991 0.0
C851 C 0.90935 0.08927 0.37469 0.0
C852 C 0.92932 0.10152 0.35891 0.0
H853 H 0.78134 0.88804 0.35783 0.0
H854 H 0.824 0.94264 0.35488 0.0
C855 C 0.95243 0.13336 0.35836 0.0
C856 C 0.88423 0.05583 0.37515 0.0
H857 H 0.8712 0.9811 0.38003 0.0
C858 C 0.85289 0.04867 0.37371 0.0
C859 C 0.891 0.03125 0.37728 0.0
C860 C 0.92435 0.03794 0.3792 0.0
C861 C 0.82802 0.01745 0.37431 0.0
C862 C 0.83469 0.99282 0.37693 0.0
C863 C 0.86612 0.99999 0.37808 0.0
C864 C 0.8093 0.95956 0.37896 0.0
C865 C 0.79487 0.01115 0.37182 0.0
C866 C 0.7873 0.95081 0.39371 0.0
C867 C 0.76287 0.91974 0.39539 0.0
C868 C 0.76007 0.89661 0.38245 0.0
C869 C 0.78268 0.90526 0.36798 0.0
C870 C 0.8071 0.93645 0.36628 0.0
H871 H 0.79438 0.03088 0.36441 0.0
H872 H 0.78032 0.98921 0.3636 0.0
H873 H 0.784 1.00847 0.38603 0.0
H874 H 0.78899 0.96807 0.40395 0.0
H875 H 0.7461 0.91393 0.40682 0.0
H876 H 0.83301 0.74032 0.88743 0.0
H877 H 0.82781 0.78695 0.88644 0.0
H878 H 0.92856 0.846 0.88904 0.0
H879 H 0.93416 0.79904 0.88991 0.0
H880 H 0.84986 0.83669 0.9137 0.0
H881 H 0.90174 0.8783 0.84176 0.0
H882 H 0.88857 0.83874 0.84983 0.0
H883 H 0.92454 0.87083 0.85885 0.0
C884 C 0.8542 0.76314 0.88777 0.0
C885 C 0.88406 0.76587 0.88867 0.0
C886 C 0.85112 0.78982 0.88724 0.0
C887 C 0.87776 0.81991 0.88749 0.0
C888 C 0.90769 0.82294 0.88858 0.0
H889 H 0.87311 0.99566 0.87459 0.0
H890 H 0.89198 0.95848 0.87931 0.0
C891 C 0.91084 0.7961 0.88918 0.0
C892 C 0.87353 0.84773 0.88665 0.0
H893 H 0.88092 0.90632 0.85714 0.0
C894 C 0.85695 0.85214 0.90143 0.0
C895 C 0.88292 0.86791 0.87067 0.0
C896 C 0.90028 0.86379 0.85427 0.0
C897 C 0.84877 0.87567 0.90043 0.0
C898 C 0.85684 0.89489 0.88404 0.0
C899 C 0.8746 0.8914 0.86963 0.0
C900 C 0.84555 0.91753 0.88119 0.0
C901 C 0.83135 0.87955 0.91689 0.0
C902 C 0.8132 0.90677 0.88037 0.0
C903 C 0.80235 0.92791 0.87776 0.0
C904 C 0.82363 0.96029 0.87579 0.0
C905 C 0.85608 0.97094 0.87632 0.0
C906 C 0.86692 0.94973 0.87891 0.0
H907 H 0.83529 0.87002 0.9303 0.0
H908 H 0.83865 0.90467 0.91914 0.0
H909 H 0.80577 0.86645 0.91379 0.0
H910 H 0.79629 0.88194 0.88173 0.0
H911 H 0.77724 0.9189 0.87758 0.0
H912 H 0.1883 0.73983 0.11271 0.0
H913 H 0.18836 0.69039 0.11462 0.0
H914 H 0.09626 0.64572 0.13997 0.0
H915 H 0.09587 0.69549 0.1381 0.0
H916 H 0.18006 0.65172 0.14811 0.0
H917 H 0.08851 0.59054 0.0923 0.0
H918 H 0.10967 0.63281 0.0948 0.0
H919 H 0.07951 0.60896 0.11151 0.0
C920 C 0.16796 0.71958 0.11872 0.0
C921 C 0.14193 0.72164 0.12512 0.0
C922 C 0.16813 0.69132 0.11985 0.0
C923 C 0.14223 0.66433 0.12725 0.0
C924 C 0.11637 0.66625 0.13401 0.0
H925 H 0.11208 0.47276 0.12481 0.0
H926 H 0.10564 0.51837 0.13038 0.0
C927 C 0.11624 0.69472 0.13301 0.0
C928 C 0.14257 0.63429 0.12752 0.0
H929 H 0.11165 0.56298 0.10538 0.0
C930 C 0.16493 0.63218 0.1389 0.0
C931 C 0.12276 0.60884 0.11553 0.0
C932 C 0.09882 0.61022 0.10272 0.0
C933 C 0.16828 0.60541 0.13846 0.0
C934 C 0.14929 0.5804 0.12591 0.0
C935 C 0.12629 0.58217 0.11494 0.0
C936 C 0.15367 0.55276 0.12338 0.0
C937 C 0.19203 0.60417 0.15151 0.0
C938 C 0.18276 0.55683 0.11748 0.0
C939 C 0.18652 0.5308 0.11429 0.0
C940 C 0.16114 0.50007 0.1167 0.0
C941 C 0.13203 0.49607 0.12264 0.0
C942 C 0.12834 0.52213 0.12591 0.0
H943 H 0.19706 0.61967 0.16411 0.0
H944 H 0.18377 0.57984 0.15653 0.0
H945 H 0.2144 0.6125 0.14369 0.0
H946 H 0.20243 0.58016 0.11491 0.0
H947 H 0.20908 0.53473 0.1094 0.0
H948 H 0.64221 0.10399 0.59528 0.0
H949 H 0.58975 0.09755 0.5984 0.0
H950 H 0.63082 0.19335 0.61787 0.0
H951 H 0.68344 0.20032 0.61427 0.0
H952 H 0.55938 0.10456 0.63048 0.0
H953 H 0.5744 0.18912 0.57347 0.0
H954 H 0.60073 0.17381 0.57634 0.0
H955 H 0.60446 0.20504 0.59144 0.0
C956 C 0.64014 0.12383 0.60005 0.0
C957 C 0.66715 0.15281 0.60433 0.0
C958 C 0.6101 0.12 0.60196 0.0
C959 C 0.60635 0.14508 0.60809 0.0
C960 C 0.63315 0.17382 0.6128 0.0
H961 H 0.45513 0.18135 0.62725 0.0
H962 H 0.50446 0.18138 0.62474 0.0
C963 C 0.66323 0.17767 0.61092 0.0
C964 C 0.57443 0.14123 0.60951 0.0
H965 H 0.52889 0.17036 0.59268 0.0
C966 C 0.55259 0.11879 0.62214 0.0
C967 C 0.56554 0.15967 0.59853 0.0
C968 C 0.58737 0.18307 0.58404 0.0
C969 C 0.52251 0.11509 0.62459 0.0
C970 C 0.51386 0.13397 0.61386 0.0
C971 C 0.53553 0.15596 0.60096 0.0
C972 C 0.48313 0.13258 0.61634 0.0
C973 C 0.50067 0.0918 0.6391 0.0
C974 C 0.45445 0.10499 0.61257 0.0
C975 C 0.42588 0.1048 0.61409 0.0
C976 C 0.42556 0.13232 0.61921 0.0
C977 C 0.45435 0.15971 0.62318 0.0
C978 C 0.48271 0.15982 0.62175 0.0
H979 H 0.51334 0.0846 0.64918 0.0
H980 H 0.48848 0.10178 0.64737 0.0
H981 H 0.48256 0.07043 0.63165 0.0
H982 H 0.45419 0.08381 0.60803 0.0
H983 H 0.40419 0.08338 0.61082 0.0
H984 H 0.4933 0.68225 0.11113 0.0
H985 H 0.44819 0.62929 0.11539 0.0
H986 H 0.50368 0.58926 0.09595 0.0
H987 H 0.54907 0.64202 0.09212 0.0
H988 H 0.41876 0.58284 0.08704 0.0
H989 H 0.46479 0.54073 0.14541 0.0
H990 H 0.48218 0.58183 0.13937 0.0
H991 H 0.48992 0.55625 0.125 0.0
C992 C 0.49607 0.66219 0.10802 0.0
C993 C 0.52488 0.66648 0.10128 0.0
C994 C 0.4702 0.63192 0.11037 0.0
C995 C 0.47264 0.60527 0.10621 0.0
C996 C 0.50136 0.60942 0.09956 0.0
H997 H 0.3316 0.40342 0.10935 0.0
H998 H 0.38092 0.45376 0.10577 0.0
C999 C 0.5272 0.63966 0.09716 0.0
C1000 C 0.44473 0.57322 0.10805 0.0
H1001 H 0.41607 0.50337 0.13176 0.0
C1002 C 0.41817 0.5655 0.09684 0.0
C1003 C 0.44409 0.55045 0.12069 0.0
C1004 C 0.47164 0.55768 0.13344 0.0
C1005 C 0.39101 0.53572 0.09792 0.0
C1006 C 0.39004 0.51316 0.11088 0.0
C1007 C 0.41681 0.52064 0.12184 0.0
C1008 C 0.36084 0.48243 0.11389 0.0
C1009 C 0.36366 0.52859 0.08499 0.0
C1010 C 0.33349 0.48178 0.12017 0.0
C1011 C 0.30546 0.45328 0.12215 0.0
C1012 C 0.30408 0.42454 0.11811 0.0
C1013 C 0.33181 0.42508 0.11253 0.0
C1014 C 0.35998 0.45382 0.11046 0.0
H1015 H 0.37131 0.54409 0.07227 0.0
H1016 H 0.35155 0.50372 0.08016 0.0
H1017 H 0.34648 0.53266 0.09286 0.0
H1018 H 0.33373 0.50345 0.12339 0.0
H1019 H 0.28476 0.45388 0.12673 0.0
H1020 H 0.91065 0.54302 0.61819 0.0
H1021 H 0.916 0.49645 0.62248 0.0
H1022 H 0.81746 0.43673 0.6101 0.0
H1023 H 0.81198 0.48316 0.60546 0.0
H1024 H 0.88169 0.44208 0.64776 0.0
H1025 H 0.86468 0.41139 0.57084 0.0
H1026 H 0.87455 0.44984 0.57956 0.0
H1027 H 0.83502 0.41756 0.58154 0.0
C1028 C 0.89012 0.51996 0.61634 0.0
C1029 C 0.86093 0.5168 0.61131 0.0
C1030 C 0.89319 0.49341 0.61892 0.0
C1031 C 0.86722 0.4632 0.61639 0.0
C1032 C 0.83787 0.45988 0.61192 0.0
H1033 H 0.83326 0.2742 0.61169 0.0
H1034 H 0.83108 0.32258 0.61209 0.0
C1035 C 0.83473 0.48642 0.60941 0.0
C1036 C 0.871 0.43517 0.61783 0.0
H1037 H 0.86683 0.37474 0.59163 0.0
C1038 C 0.87858 0.42736 0.63551 0.0
C1039 C 0.8671 0.41619 0.60178 0.0
C1040 C 0.86015 0.42419 0.58229 0.0
C1041 C 0.88131 0.40035 0.63771 0.0
C1042 C 0.87701 0.38113 0.62168 0.0
C1043 C 0.87002 0.38939 0.60394 0.0
C1044 C 0.87831 0.35159 0.62293 0.0
C1045 C 0.88771 0.39213 0.65727 0.0
C1046 C 0.90557 0.35162 0.62907 0.0
C1047 C 0.90683 0.32372 0.62902 0.0
C1048 C 0.88102 0.29546 0.62252 0.0
C1049 C 0.8537 0.29556 0.61663 0.0
C1050 C 0.85237 0.32324 0.61686 0.0
H1051 H 0.88241 0.40448 0.66864 0.0
H1052 H 0.8736 0.36641 0.65983 0.0
H1053 H 0.91294 0.3993 0.6584 0.0
H1054 H 0.92613 0.37331 0.63345 0.0
H1055 H 0.92826 0.32447 0.63353 0.0
H1056 H 0.61153 0.9123 0.14515 0.0
H1057 H 0.55988 0.90856 0.1475 0.0
H1058 H 0.5269 0.84525 0.09955 0.0
H1059 H 0.57771 0.8485 0.09716 0.0
H1060 H 0.52655 0.92268 0.1198 0.0
H1061 H 0.46003 0.79701 0.14001 0.0
H1062 H 0.50233 0.82014 0.14154 0.0
H1063 H 0.48346 0.80382 0.11909 0.0
C1064 C 0.59325 0.89756 0.13514 0.0
C1065 C 0.59882 0.88057 0.12105 0.0
C1066 C 0.56377 0.89544 0.13651 0.0
C1067 C 0.53936 0.87612 0.12393 0.0
C1068 C 0.54511 0.8597 0.10969 0.0
H1069 H 0.355 0.82859 0.08828 0.0
H1070 H 0.40722 0.83552 0.09397 0.0
C1071 C 0.57438 0.86179 0.10829 0.0
C1072 C 0.50793 0.87337 0.12515 0.0
H1073 H 0.42967 0.81913 0.12785 0.0
C1074 C 0.50536 0.90018 0.12189 0.0
C1075 C 0.48032 0.84397 0.12792 0.0
C1076 C 0.48162 0.81465 0.13253 0.0
C1077 C 0.47582 0.89803 0.12032 0.0
C1078 C 0.44824 0.86837 0.12226 0.0
C1079 C 0.45085 0.8418 0.12623 0.0
C1080 C 0.41645 0.86408 0.11921 0.0
C1081 C 0.47428 0.92721 0.11572 0.0
C1082 C 0.40414 0.87748 0.13169 0.0
C1083 C 0.37426 0.87355 0.12847 0.0
C1084 C 0.35618 0.85619 0.11269 0.0
C1085 C 0.36847 0.84243 0.10041 0.0
C1086 C 0.39823 0.84624 0.1037 0.0
H1087 H 0.49751 0.94713 0.11144 0.0
H1088 H 0.45714 0.92243 0.10407 0.0
H1089 H 0.4662 0.93447 0.12847 0.0
H1090 H 0.41767 0.891 0.14389 0.0
H1091 H 0.36559 0.88463 0.13812 0.0
H1092 H 0.69806 0.61127 0.64021 0.0
H1093 H 0.64896 0.56058 0.64289 0.0
H1094 H 0.69161 0.51516 0.61274 0.0
H1095 H 0.74038 0.56501 0.61019 0.0
H1096 H 0.61154 0.52086 0.61322 0.0
H1097 H 0.6546 0.45911 0.65933 0.0
H1098 H 0.67569 0.50132 0.65653 0.0
H1099 H 0.6792 0.47663 0.63894 0.0
C1100 C 0.69704 0.59042 0.63432 0.0
C1101 C 0.72326 0.59232 0.62501 0.0
C1102 C 0.66897 0.5615 0.63584 0.0
C1103 C 0.66679 0.53398 0.6283 0.0
C1104 C 0.69292 0.5359 0.61905 0.0
H1105 H 0.53663 0.34395 0.59907 0.0
H1106 H 0.58117 0.39663 0.60502 0.0
C1107 C 0.72079 0.56462 0.61748 0.0
C1108 C 0.63699 0.50333 0.62912 0.0
H1109 H 0.60737 0.42635 0.64154 0.0
C1110 C 0.61038 0.50029 0.61972 0.0
C1111 C 0.63553 0.4765 0.63762 0.0
C1112 C 0.6627 0.47857 0.64884 0.0
C1113 C 0.58294 0.47082 0.61768 0.0
C1114 C 0.58204 0.44382 0.62545 0.0
C1115 C 0.6082 0.44706 0.63548 0.0
C1116 C 0.55488 0.41175 0.62235 0.0
C1117 C 0.55565 0.46852 0.60648 0.0
C1118 C 0.52542 0.40263 0.63036 0.0
C1119 C 0.49987 0.37249 0.62698 0.0
C1120 C 0.50333 0.35095 0.61549 0.0
C1121 C 0.53305 0.36009 0.60776 0.0
C1122 C 0.55857 0.39012 0.61123 0.0
H1123 H 0.56203 0.49063 0.59874 0.0
H1124 H 0.54694 0.44894 0.59604 0.0
H1125 H 0.5361 0.46349 0.61635 0.0
H1126 H 0.52216 0.41885 0.63917 0.0
H1127 H 0.47726 0.36627 0.63305 0.0
H1128 H 0.28688 0.83803 0.39819 0.0
H1129 H 0.33554 0.83694 0.39542 0.0
H1130 H 0.37647 0.92263 0.36272 0.0
H1131 H 0.32751 0.92426 0.36564 0.0
H1132 H 0.36656 0.83454 0.36281 0.0
H1133 H 0.44131 0.94241 0.40543 0.0
H1134 H 0.39896 0.92314 0.40553 0.0
H1135 H 0.4207 0.9467 0.38553 0.0
C1136 C 0.30613 0.85682 0.39042 0.0
C1137 C 0.30323 0.88142 0.38225 0.0
C1138 C 0.334 0.85605 0.38881 0.0
C1139 C 0.35979 0.87986 0.37907 0.0
C1140 C 0.35701 0.90427 0.37059 0.0
H1141 H 0.54684 0.89743 0.37239 0.0
H1142 H 0.50219 0.90547 0.36642 0.0
C1143 C 0.32896 0.90507 0.37218 0.0
C1144 C 0.38931 0.87857 0.37798 0.0
H1145 H 0.46503 0.91416 0.39426 0.0
C1146 C 0.38818 0.85212 0.36953 0.0
C1147 C 0.41755 0.90154 0.38671 0.0
C1148 C 0.41987 0.92999 0.39645 0.0
C1149 C 0.41422 0.84763 0.36997 0.0
C1150 C 0.44202 0.86995 0.37936 0.0
C1151 C 0.44364 0.89705 0.38713 0.0
C1152 C 0.46888 0.86457 0.38231 0.0
C1153 C 0.41165 0.81886 0.36055 0.0
C1154 C 0.46501 0.83902 0.39331 0.0
C1155 C 0.49041 0.83437 0.39674 0.0
C1156 C 0.52028 0.85521 0.38926 0.0
C1157 C 0.52406 0.88073 0.37815 0.0
C1158 C 0.49863 0.88547 0.37482 0.0
H1159 H 0.39281 0.80912 0.34957 0.0
H1160 H 0.4342 0.82427 0.35378 0.0
H1161 H 0.4058 0.80041 0.37146 0.0
H1162 H 0.44238 0.82288 0.39948 0.0
H1163 H 0.48663 0.81439 0.40524 0.0
H1164 H 0.6909 0.48991 0.89822 0.0
H1165 H 0.6388 0.44365 0.8935 0.0
H1166 H 0.59929 0.50377 0.88536 0.0
H1167 H 0.65135 0.55013 0.88968 0.0
H1168 H 0.58521 0.42874 0.91639 0.0
H1169 H 0.56351 0.44159 0.84009 0.0
H1170 H 0.60234 0.46164 0.85054 0.0
H1171 H 0.57559 0.47582 0.8547 0.0
C1172 C 0.67124 0.49331 0.89509 0.0
C1173 C 0.67531 0.52374 0.89435 0.0
C1174 C 0.64146 0.46686 0.89249 0.0
C1175 C 0.61523 0.47028 0.88888 0.0
C1176 C 0.61926 0.50058 0.88783 0.0
H1177 H 0.41438 0.33098 0.87834 0.0
H1178 H 0.46531 0.38018 0.87828 0.0
C1179 C 0.64899 0.52704 0.89052 0.0
C1180 C 0.5834 0.4421 0.88745 0.0
H1181 H 0.52123 0.40103 0.8573 0.0
C1182 C 0.57125 0.42263 0.90345 0.0
C1183 C 0.56508 0.43444 0.87064 0.0
C1184 C 0.57727 0.45428 0.85293 0.0
C1185 C 0.5413 0.39569 0.90314 0.0
C1186 C 0.52324 0.38751 0.88619 0.0
C1187 C 0.53512 0.40728 0.87025 0.0
C1188 C 0.49259 0.35781 0.88465 0.0
C1189 C 0.52911 0.37646 0.9211 0.0
C1190 C 0.49116 0.32891 0.88756 0.0
C1191 C 0.4623 0.30099 0.88772 0.0
C1192 C 0.43412 0.30122 0.8847 0.0
C1193 C 0.43564 0.33002 0.88076 0.0
C1194 C 0.46469 0.35812 0.88075 0.0
H1195 H 0.54117 0.39058 0.93396 0.0
H1196 H 0.50343 0.36685 0.92269 0.0
H1197 H 0.53355 0.35646 0.92049 0.0
H1198 H 0.51243 0.32798 0.89006 0.0
H1199 H 0.46211 0.27921 0.89047 0.0
H1200 H 0.11717 0.64441 0.38723 0.0
H1201 H 0.11196 0.59251 0.3831 0.0
H1202 H 0.20918 0.63078 0.39881 0.0
H1203 H 0.21448 0.68265 0.40331 0.0
H1204 H 0.14767 0.57291 0.35929 0.0
H1205 H 0.1589 0.55701 0.43667 0.0
H1206 H 0.15013 0.58611 0.42753 0.0
H1207 H 0.18962 0.59307 0.42675 0.0
C1208 C 0.13744 0.64177 0.38986 0.0
C1209 C 0.16618 0.66763 0.39578 0.0
C1210 C 0.13445 0.61216 0.38736 0.0
C1211 C 0.16006 0.60774 0.39088 0.0
C1212 C 0.18903 0.63364 0.39624 0.0
H1213 H 0.19318 0.45231 0.3969 0.0
H1214 H 0.19557 0.50297 0.39633 0.0
C1215 C 0.19208 0.66331 0.39866 0.0
C1216 C 0.15626 0.5759 0.38948 0.0
H1217 H 0.15839 0.51882 0.416 0.0
C1218 C 0.14987 0.56094 0.37167 0.0
C1219 C 0.15895 0.56035 0.40568 0.0
C1220 C 0.16451 0.57475 0.42529 0.0
C1221 C 0.14718 0.53121 0.36953 0.0
C1222 C 0.1503 0.51582 0.38572 0.0
C1223 C 0.15611 0.53064 0.40357 0.0
C1224 C 0.14897 0.48496 0.38455 0.0
C1225 C 0.14205 0.51704 0.34988 0.0
C1226 C 0.12199 0.45782 0.37794 0.0
C1227 C 0.12059 0.42859 0.37812 0.0
C1228 C 0.14598 0.42598 0.38518 0.0
C1229 C 0.17305 0.45332 0.39151 0.0
C1230 C 0.17451 0.4824 0.39118 0.0
H1231 H 0.14802 0.53496 0.33858 0.0
H1232 H 0.15637 0.50559 0.34773 0.0
H1233 H 0.11693 0.49888 0.34819 0.0
H1234 H 0.10173 0.45907 0.37311 0.0
H1235 H 0.09934 0.40797 0.37326 0.0
H1236 H 0.70362 0.09932 0.86319 0.0
H1237 H 0.6549 0.10169 0.8614 0.0
H1238 H 0.69378 0.17942 0.90082 0.0
H1239 H 0.7421 0.17751 0.90264 0.0
H1240 H 0.61382 0.09659 0.89182 0.0
H1241 H 0.6645 0.21233 0.85615 0.0
H1242 H 0.68407 0.18954 0.85656 0.0
H1243 H 0.68625 0.2129 0.87684 0.0
C1244 C 0.7018 0.11696 0.87142 0.0
C1245 C 0.72692 0.13828 0.88298 0.0
C1246 C 0.67397 0.11829 0.87038 0.0
C1247 C 0.67097 0.14113 0.88071 0.0
C1248 C 0.69582 0.16207 0.89239 0.0
H1249 H 0.53928 0.19929 0.91077 0.0
H1250 H 0.58453 0.19241 0.90501 0.0
C1251 C 0.72345 0.16076 0.89349 0.0
C1252 C 0.6417 0.14286 0.87996 0.0
H1253 H 0.61486 0.19379 0.87149 0.0
C1254 C 0.61383 0.1176 0.88709 0.0
C1255 C 0.64184 0.17036 0.87383 0.0
C1256 C 0.6707 0.19772 0.86524 0.0
C1257 C 0.5865 0.11971 0.88916 0.0
C1258 C 0.58695 0.14764 0.88359 0.0
C1259 C 0.61456 0.17247 0.87586 0.0
C1260 C 0.55952 0.15216 0.88644 0.0
C1261 C 0.55785 0.09258 0.89809 0.0
C1262 C 0.53057 0.13224 0.8776 0.0
C1263 C 0.50466 0.13612 0.88088 0.0
C1264 C 0.50725 0.16022 0.89291 0.0
C1265 C 0.53653 0.18068 0.90131 0.0
C1266 C 0.56238 0.17668 0.89809 0.0
H1267 H 0.56364 0.07622 0.90561 0.0
H1268 H 0.5467 0.10115 0.90837 0.0
H1269 H 0.54042 0.0791 0.8868 0.0
H1270 H 0.528 0.11367 0.86817 0.0
H1271 H 0.48259 0.12031 0.87392 0.0
H1272 H 0.38372 0.47177 0.41318 0.0
H1273 H 0.43644 0.51738 0.40958 0.0
H1274 H 0.39644 0.5713 0.38718 0.0
H1275 H 0.34358 0.52612 0.39125 0.0
H1276 H 0.46759 0.55265 0.37696 0.0
H1277 H 0.45226 0.6261 0.43104 0.0
H1278 H 0.4257 0.58429 0.42899 0.0
H1279 H 0.42248 0.61098 0.41288 0.0
C1280 C 0.38608 0.49342 0.40766 0.0
C1281 C 0.35932 0.49533 0.40269 0.0
C1282 C 0.41627 0.51939 0.40547 0.0
C1283 C 0.42038 0.54789 0.39839 0.0
C1284 C 0.39381 0.5497 0.39299 0.0
H1285 H 0.57149 0.73386 0.37561 0.0
H1286 H 0.52234 0.68434 0.37852 0.0
C1287 C 0.3636 0.52373 0.39515 0.0
C1288 C 0.45241 0.57578 0.39674 0.0
H1289 H 0.49794 0.65163 0.41181 0.0
C1290 C 0.47436 0.57426 0.38466 0.0
C1291 C 0.46126 0.60385 0.40691 0.0
C1292 C 0.43933 0.60644 0.42083 0.0
C1293 C 0.50452 0.60048 0.38194 0.0
C1294 C 0.51308 0.62876 0.3918 0.0
C1295 C 0.49133 0.62999 0.40419 0.0
C1296 C 0.54376 0.658 0.38885 0.0
C1297 C 0.52655 0.59804 0.36805 0.0
C1298 C 0.57242 0.65971 0.3935 0.0
C1299 C 0.60089 0.68823 0.39177 0.0
C1300 C 0.60108 0.71554 0.38555 0.0
C1301 C 0.57234 0.71343 0.38058 0.0
C1302 C 0.5441 0.68507 0.38222 0.0
H1303 H 0.51408 0.57721 0.3586 0.0
H1304 H 0.53859 0.61949 0.3591 0.0
H1305 H 0.54479 0.59579 0.37607 0.0
H1306 H 0.57271 0.63926 0.39896 0.0
H1307 H 0.62256 0.68909 0.39583 0.0
H1308 H 0.8513 0.57343 0.90372 0.0
H1309 H 0.84943 0.52316 0.90223 0.0
H1310 H 0.92502 0.56101 0.86148 0.0
H1311 H 0.92753 0.61215 0.8631 0.0
H1312 H 0.83721 0.48402 0.87159 0.0
H1313 H 0.95589 0.5221 0.90141 0.0
H1314 H 0.93786 0.54622 0.90289 0.0
H1315 H 0.95487 0.54343 0.8809 0.0
C1316 C 0.86773 0.57134 0.89445 0.0
C1317 C 0.88972 0.59707 0.88358 0.0
C1318 C 0.86653 0.54241 0.89361 0.0
C1319 C 0.88727 0.53832 0.88192 0.0
C1320 C 0.90915 0.56377 0.87088 0.0
H1321 H 0.89917 0.36625 0.87081 0.0
H1322 H 0.90584 0.41853 0.86523 0.0
C1323 C 0.91044 0.59295 0.87175 0.0
C1324 C 0.88522 0.50708 0.88134 0.0
H1325 H 0.92475 0.46866 0.89302 0.0
C1326 C 0.85644 0.48071 0.87616 0.0
C1327 C 0.91033 0.50275 0.88726 0.0
C1328 C 0.94144 0.53002 0.89359 0.0
C1329 C 0.85189 0.45016 0.87708 0.0
C1330 C 0.87665 0.44577 0.88356 0.0
C1331 C 0.90579 0.47214 0.8881 0.0
C1332 C 0.8722 0.41389 0.88661 0.0
C1333 C 0.82053 0.42277 0.87124 0.0
C1334 C 0.85124 0.39404 0.90055 0.0
C1335 C 0.8474 0.36423 0.90379 0.0
C1336 C 0.86443 0.35361 0.89311 0.0
C1337 C 0.88539 0.37355 0.8791 0.0
C1338 C 0.88938 0.40349 0.87597 0.0
H1339 H 0.80705 0.43038 0.86213 0.0
H1340 H 0.82358 0.40486 0.86341 0.0
H1341 H 0.8064 0.4115 0.88417 0.0
H1342 H 0.83804 0.40176 0.90909 0.0
H1343 H 0.83095 0.34942 0.91459 0.0
H1344 H 0.13792 0.31289 0.32482 0.0
H1345 H 0.15249 0.32315 0.29146 0.0
H1346 H 0.23093 0.414 0.30598 0.0
H1347 H 0.21638 0.40402 0.33982 0.0
H1348 H 0.1903 0.41146 0.27339 0.0
H1349 H 0.23144 0.32526 0.26792 0.0
H1350 H 0.19365 0.31008 0.27895 0.0
H1351 H 0.22794 0.34104 0.29042 0.0
C1352 C 0.15838 0.33509 0.32106 0.0
C1353 C 0.17609 0.3576 0.33507 0.0
C1354 C 0.16666 0.34085 0.30193 0.0
C1355 C 0.19288 0.36918 0.29631 0.0
C1356 C 0.21063 0.39194 0.31012 0.0
H1357 H 0.26348 0.38222 0.18173 0.0
H1358 H 0.26059 0.39001 0.21575 0.0
C1359 C 0.20239 0.38613 0.32941 0.0
C1360 C 0.20136 0.37441 0.2759 0.0
H1361 H 0.22092 0.34299 0.23877 0.0
C1362 C 0.19745 0.39687 0.2658 0.0
C1363 C 0.21083 0.35544 0.26612 0.0
C1364 C 0.21651 0.33177 0.27641 0.0
C1365 C 0.20167 0.4 0.24595 0.0
C1366 C 0.20962 0.3799 0.23605 0.0
C1367 C 0.21462 0.35828 0.24633 0.0
C1368 C 0.21254 0.38023 0.21502 0.0
C1369 C 0.19752 0.4247 0.23577 0.0
C1370 C 0.18668 0.37288 0.20315 0.0
C1371 C 0.18831 0.36856 0.18355 0.0
C1372 C 0.21567 0.37104 0.17561 0.0
C1373 C 0.24192 0.37979 0.18742 0.0
C1374 C 0.24036 0.38434 0.20689 0.0
H1375 H 0.20038 0.44362 0.24564 0.0
H1376 H 0.21464 0.4354 0.22396 0.0
H1377 H 0.17349 0.41362 0.22965 0.0
H1378 H 0.16475 0.36898 0.20916 0.0
H1379 H 0.16767 0.36167 0.17483 0.0
H1380 H 0.80654 0.20207 0.66738 0.0
H1381 H 0.793 0.20267 0.70103 0.0
H1382 H 0.87655 0.2013 0.71813 0.0
H1383 H 0.89025 0.20081 0.68504 0.0
H1384 H 0.78318 0.15857 0.72992 0.0
H1385 H 0.88289 0.27548 0.74848 0.0
H1386 H 0.87081 0.26337 0.72416 0.0
H1387 H 0.89583 0.25194 0.73629 0.0
C1388 C 0.82199 0.20191 0.67833 0.0
C1389 C 0.84955 0.20154 0.67346 0.0
C1390 C 0.81428 0.20238 0.69752 0.0
C1391 C 0.83422 0.20285 0.71204 0.0
C1392 C 0.86131 0.20186 0.70716 0.0
H1393 H 0.82312 0.13185 0.81977 0.0
H1394 H 0.82165 0.14483 0.7866 0.0
C1395 C 0.86893 0.20129 0.68815 0.0
C1396 C 0.8265 0.20266 0.73243 0.0
H1397 H 0.86044 0.23823 0.77456 0.0
C1398 C 0.79962 0.17637 0.73966 0.0
C1399 C 0.84763 0.22619 0.74513 0.0
C1400 C 0.87573 0.256 0.73809 0.0
C1401 C 0.79484 0.17165 0.75936 0.0
C1402 C 0.81777 0.19354 0.77206 0.0
C1403 C 0.84312 0.22122 0.76483 0.0
C1404 C 0.81805 0.18611 0.79249 0.0
C1405 C 0.7659 0.14258 0.7664 0.0
C1406 C 0.81773 0.20573 0.80692 0.0
C1407 C 0.8188 0.19847 0.82613 0.0
C1408 C 0.82054 0.17166 0.83113 0.0
C1409 C 0.82156 0.15258 0.81655 0.0
C1410 C 0.82042 0.15978 0.7975 0.0
H1411 H 0.74626 0.13455 0.75602 0.0
H1412 H 0.77128 0.12332 0.76812 0.0
H1413 H 0.7581 0.14682 0.78035 0.0
H1414 H 0.81638 0.22645 0.80332 0.0
H1415 H 0.81803 0.21368 0.83701 0.0
H1416 H 0.70879 0.86131 0.17935 0.0
H1417 H 0.69669 0.8489 0.21291 0.0
H1418 H 0.59765 0.80592 0.20049 0.0
H1419 H 0.60973 0.81769 0.16648 0.0
H1420 H 0.66763 0.8721 0.2351 0.0
H1421 H 0.6009 0.74125 0.23545 0.0
H1422 H 0.62382 0.76357 0.21524 0.0
H1423 H 0.5864 0.76024 0.21993 0.0
C1424 C 0.68437 0.84873 0.18368 0.0
C1425 C 0.66018 0.84049 0.17032 0.0
C1426 C 0.6775 0.84174 0.20289 0.0
C1427 C 0.64629 0.82655 0.20925 0.0
C1428 C 0.62188 0.81729 0.19588 0.0
H1429 H 0.63394 0.83604 0.33478 0.0
H1430 H 0.62241 0.83983 0.30117 0.0
C1431 C 0.62878 0.82399 0.17648 0.0
C1432 C 0.64021 0.82227 0.23003 0.0
H1433 H 0.61044 0.76677 0.26505 0.0
C1434 C 0.6548 0.84909 0.24169 0.0
C1435 C 0.62339 0.79224 0.23852 0.0
C1436 C 0.60786 0.76259 0.22672 0.0
C1437 C 0.65472 0.84668 0.26159 0.0
C1438 C 0.63873 0.81658 0.27012 0.0
C1439 C 0.62258 0.78983 0.25848 0.0
C1440 C 0.64223 0.81206 0.29071 0.0
C1441 C 0.67354 0.87628 0.27316 0.0
C1442 C 0.656 0.79421 0.29606 0.0
C1443 C 0.66216 0.79165 0.31514 0.0
C1444 C 0.65487 0.80705 0.3294 0.0
C1445 C 0.64018 0.82421 0.32413 0.0
C1446 C 0.63368 0.82648 0.30493 0.0
H1447 H 0.68944 0.89668 0.26414 0.0
H1448 H 0.65727 0.88217 0.28058 0.0
H1449 H 0.68794 0.8729 0.28408 0.0
H1450 H 0.66287 0.78292 0.28538 0.0
H1451 H 0.67345 0.77819 0.3186 0.0
H1452 H 0.81864 0.61416 0.66867 0.0
H1453 H 0.81999 0.60262 0.7026 0.0
H1454 H 0.82777 0.69136 0.71746 0.0
H1455 H 0.82629 0.70299 0.68398 0.0
H1456 H 0.8666 0.6371 0.73002 0.0
H1457 H 0.75398 0.6285 0.75017 0.0
H1458 H 0.76418 0.62634 0.72574 0.0
H1459 H 0.77876 0.6639 0.73721 0.0
C1460 C 0.82066 0.6312 0.67919 0.0
C1461 C 0.8222 0.65943 0.67358 0.0
C1462 C 0.82132 0.62451 0.69854 0.0
C1463 C 0.8232 0.6458 0.71254 0.0
C1464 C 0.82543 0.67421 0.70693 0.0
H1465 H 0.8991 0.70249 0.82092 0.0
H1466 H 0.8853 0.68986 0.78761 0.0
C1467 C 0.82485 0.68093 0.68771 0.0
C1468 C 0.82429 0.63949 0.73308 0.0
H1469 H 0.79157 0.64071 0.77567 0.0
C1470 C 0.84983 0.63718 0.73999 0.0
C1471 C 0.80208 0.63898 0.74607 0.0
C1472 C 0.77302 0.63922 0.73941 0.0
C1473 C 0.85507 0.6369 0.75963 0.0
C1474 C 0.83448 0.63944 0.77261 0.0
C1475 C 0.80758 0.63919 0.7657 0.0
C1476 C 0.84243 0.64608 0.79308 0.0
C1477 C 0.8832 0.63491 0.76629 0.0
C1478 C 0.82231 0.62613 0.80733 0.0
C1479 C 0.83007 0.6334 0.82661 0.0
C1480 C 0.85789 0.66092 0.83188 0.0
C1481 C 0.87756 0.681 0.81748 0.0
C1482 C 0.86987 0.6737 0.79835 0.0
H1483 H 0.89006 0.62276 0.75564 0.0
H1484 H 0.90344 0.65904 0.76823 0.0
H1485 H 0.87849 0.6223 0.78008 0.0
H1486 H 0.80079 0.60488 0.80353 0.0
H1487 H 0.81439 0.61746 0.83734 0.0
H1488 H 0.13619 0.82572 0.18456 0.0
H1489 H 0.14898 0.82728 0.21811 0.0
H1490 H 0.22868 0.81712 0.20389 0.0
H1491 H 0.21612 0.8157 0.16988 0.0
H1492 H 0.15366 0.77983 0.23926 0.0
H1493 H 0.2645 0.89586 0.23932 0.0
H1494 H 0.23631 0.88393 0.22013 0.0
H1495 H 0.26085 0.86674 0.22237 0.0
C1496 C 0.15658 0.82395 0.18843 0.0
C1497 C 0.17518 0.82065 0.17446 0.0
C1498 C 0.16376 0.82472 0.20768 0.0
C1499 C 0.18974 0.82234 0.21348 0.0
C1500 C 0.20863 0.81924 0.19967 0.0
H1501 H 0.2097 0.80919 0.33828 0.0
H1502 H 0.2084 0.79684 0.30427 0.0
C1503 C 0.20142 0.81844 0.18026 0.0
C1504 C 0.19655 0.8233 0.23409 0.0
H1505 H 0.24483 0.87208 0.26892 0.0
C1506 C 0.1739 0.79966 0.24579 0.0
C1507 C 0.22291 0.84931 0.24247 0.0
C1508 C 0.24756 0.87558 0.23053 0.0
C1509 C 0.17609 0.80212 0.26572 0.0
C1510 C 0.20177 0.82878 0.27409 0.0
C1511 C 0.22524 0.85162 0.2624 0.0
C1512 C 0.20263 0.83551 0.29471 0.0
C1513 C 0.14998 0.77723 0.27764 0.0
C1514 C 0.19989 0.86129 0.30052 0.0
C1515 C 0.20059 0.86836 0.31978 0.0
C1516 C 0.20417 0.84984 0.33373 0.0
C1517 C 0.20672 0.8238 0.32791 0.0
C1518 C 0.20599 0.81672 0.30851 0.0
H1519 H 0.12979 0.76017 0.26883 0.0
H1520 H 0.15904 0.76409 0.28579 0.0
H1521 H 0.14145 0.78826 0.28804 0.0
H1522 H 0.19713 0.87599 0.29009 0.0
H1523 H 0.19857 0.88859 0.32368 0.0
H1524 H 0.40504 0.20285 0.83869 0.0
H1525 H 0.41226 0.1984 0.80449 0.0
H1526 H 0.32559 0.19721 0.79269 0.0
H1527 H 0.31794 0.20119 0.82654 0.0
H1528 H 0.33012 0.14971 0.77459 0.0
H1529 H 0.43703 0.2661 0.76279 0.0
H1530 H 0.43973 0.24263 0.78153 0.0
H1531 H 0.41299 0.25726 0.78383 0.0
C1532 C 0.38755 0.20165 0.8288 0.0
C1533 C 0.3609 0.20234 0.83539 0.0
C1534 C 0.39185 0.19938 0.80927 0.0
C1535 C 0.36966 0.19792 0.79606 0.0
C1536 C 0.34306 0.19846 0.80264 0.0
H1537 H 0.36486 0.21019 0.67306 0.0
H1538 H 0.37006 0.22168 0.70734 0.0
C1539 C 0.33873 0.20069 0.82205 0.0
C1540 C 0.37302 0.19439 0.77539 0.0
H1541 H 0.41793 0.23136 0.73639 0.0
C1542 C 0.34937 0.16751 0.76625 0.0
C1543 C 0.39797 0.21787 0.76455 0.0
C1544 C 0.4233 0.24776 0.77358 0.0
C1545 C 0.34994 0.16341 0.74655 0.0
C1546 C 0.37515 0.18659 0.73573 0.0
C1547 C 0.39879 0.21358 0.7448 0.0
C1548 C 0.37687 0.18284 0.71494 0.0
C1549 C 0.32318 0.13457 0.73741 0.0
C1550 C 0.3802 0.15802 0.70791 0.0
C1551 C 0.37708 0.15132 0.68848 0.0
C1552 C 0.37079 0.16949 0.67566 0.0
C1553 C 0.36959 0.19572 0.68258 0.0
C1554 C 0.37257 0.20231 0.70213 0.0
H1555 H 0.30237 0.12291 0.7469 0.0
H1556 H 0.31597 0.14068 0.72382 0.0
H1557 H 0.33096 0.11741 0.73422 0.0
H1558 H 0.38401 0.14304 0.71756 0.0
H1559 H 0.37862 0.13123 0.6836 0.0
H1560 H 0.36065 0.2899 0.94094 0.0
H1561 H 0.3388 0.30342 0.968 0.0
H1562 H 0.2857 0.20561 0.98386 0.0
H1563 H 0.3079 0.19183 0.95668 0.0
H1564 H 0.27489 0.28146 0.97222 0.0
H1565 H 0.32306 0.2502 0.0348 0.0
H1566 H 0.33958 0.25521 0.01125 0.0
H1567 H 0.30395 0.21976 0.01723 0.0
C1568 C 0.3448 0.27126 0.95039 0.0
C1569 C 0.33594 0.23976 0.94666 0.0
C1570 C 0.33226 0.27905 0.96583 0.0
C1571 C 0.31061 0.25558 0.97795 0.0
C1572 C 0.30271 0.22418 0.97483 0.0
H1573 H 0.20349 0.26174 0.07383 0.0
H1574 H 0.22358 0.24587 0.04693 0.0
C1575 C 0.31543 0.21632 0.95933 0.0
C1576 C 0.29486 0.26408 0.99291 0.0
H1577 H 0.28542 0.26558 0.04094 0.0
C1578 C 0.2772 0.27803 0.98727 0.0
C1579 C 0.29786 0.25952 0.01249 0.0
C1580 C 0.31733 0.2456 0.0194 0.0
C1581 C 0.26225 0.28731 1.00066 0.0
C1582 C 0.26549 0.28304 0.02027 0.0
C1583 C 0.28298 0.26889 0.0259 0.0
C1584 C 0.25074 0.2927 0.03526 0.0
C1585 C 0.24264 0.30104 0.99367 0.0
C1586 C 0.25868 0.32431 0.03744 0.0
C1587 C 0.24691 0.3335 0.0528 0.0
C1588 C 0.22738 0.31126 0.06635 0.0
C1589 C 0.21857 0.27951 0.06368 0.0
C1590 C 0.23012 0.27036 0.04833 0.0
H1591 H 0.23563 0.29491 0.97853 0.0
H1592 H 0.22111 0.29267 1.0024 0.0
H1593 H 0.25658 0.32704 0.99478 0.0
H1594 H 0.27499 0.34208 0.02772 0.0
H1595 H 0.25443 0.35816 0.05461 0.0
H1596 H 0.07694 0.34364 0.43931 0.0
H1597 H 0.04108 0.31997 0.46596 0.0
H1598 H 0.0856 0.26615 0.4803 0.0
H1599 H 0.12224 0.29036 0.45355 0.0
H1600 H 0.99854 0.25659 0.47011 0.0
H1601 H 0.08078 0.30276 0.53175 0.0
H1602 H 0.09193 0.31935 0.5082 0.0
H1603 H 0.08985 0.28268 0.51367 0.0
C1604 C 0.07951 0.32714 0.44829 0.0
C1605 C 0.10247 0.31889 0.44434 0.0
C1606 C 0.05886 0.31351 0.46348 0.0
C1607 C 0.06054 0.29122 0.47512 0.0
C1608 C 0.08409 0.28357 0.47164 0.0
H1609 H 0.90309 0.18155 0.5552 0.0
H1610 H 0.93954 0.19361 0.52839 0.0
C1611 C 0.10507 0.29747 0.45641 0.0
C1612 C 0.03668 0.27557 0.49032 0.0
H1613 H 0.02711 0.27028 0.53855 0.0
C1614 C 1.00476 0.25926 0.48509 0.0
C1615 C 0.04486 0.27915 0.50983 0.0
C1616 C 0.07867 0.2971 0.51632 0.0
C1617 C 0.9808 0.24755 0.49883 0.0
C1618 C 0.98899 0.25181 0.51834 0.0
C1619 C 0.0209 0.26699 0.52357 0.0
C1620 C 0.96521 0.24381 0.53356 0.0
C1621 C 0.94701 0.23215 0.49237 0.0
C1622 C 0.96729 0.26795 0.54519 0.0
C1623 C 0.94674 0.26114 0.5604 0.0
C1624 C 0.9235 0.22998 0.56439 0.0
C1625 C 0.9205 0.2058 0.55232 0.0
C1626 C 0.94137 0.21267 0.53706 0.0
H1627 H 0.94497 0.23576 0.47693 0.0
H1628 H 0.93538 0.20649 0.49505 0.0
H1629 H 0.93414 0.24153 0.50049 0.0
H1630 H 0.9853 0.29215 0.5427 0.0
H1631 H 0.94962 0.28035 0.56938 0.0
H1632 H 0.6891 0.95549 0.07078 0.0
H1633 H 0.71197 0.99064 0.04373 0.0
H1634 H 0.75636 0.93847 0.02548 0.0
H1635 H 0.7327 0.90242 0.05256 0.0
H1636 H 0.77402 0.02916 0.03645 0.0
H1637 H 0.71657 0.94565 0.97641 0.0
H1638 H 0.70325 0.93567 1.00066 0.0
H1639 H 0.73789 0.93536 0.99294 0.0
C1640 C 0.70338 0.95115 0.06088 0.0
C1641 C 0.70904 0.92611 0.06378 0.0
C1642 C 0.71657 0.9714 0.04546 0.0
C1643 C 0.73591 0.96729 0.03254 0.0
C1644 C 0.74114 0.94187 0.03509 0.0
H1645 H 0.84444 0.12029 0.94948 0.0
H1646 H 0.83257 0.0847 0.97679 0.0
C1647 C 0.72759 0.92125 0.05054 0.0
C1648 C 0.75092 0.99041 0.01685 0.0
H1649 H 0.75165 0.99842 0.96855 0.0
C1650 C 0.76937 0.02244 0.02158 0.0
C1651 C 0.74478 0.98162 0.99746 0.0
C1652 C 0.72436 0.94776 0.99147 0.0
C1653 C 0.78078 0.04596 0.00753 0.0
C1654 C 0.77411 0.0372 0.98818 0.0
C1655 C 0.75676 1.0051 0.98341 0.0
C1656 C 0.78211 0.0607 0.97273 0.0
C1657 C 0.7985 0.08 0.0136 0.0
C1658 C 0.75781 0.0593 0.96153 0.0
C1659 C 0.76453 0.07928 0.94598 0.0
C1660 C 0.79575 0.10134 0.94129 0.0
C1661 C 0.82016 0.10383 0.95295 0.0
C1662 C 0.81338 0.08345 0.96851 0.0
H1663 H 0.79604 0.08281 0.02909 0.0
H1664 H 0.82384 0.08996 0.01047 0.0
H1665 H 0.7901 0.0939 0.00562 0.0
H1666 H 0.73352 0.04217 0.96456 0.0
H1667 H 0.74521 0.07684 0.93729 0.0
H1668 H 0.73462 0.67143 0.57103 0.0
H1669 H 0.72065 0.6916 0.54328 0.0
H1670 H 0.81677 0.73689 0.52408 0.0
H1671 H 0.83096 0.71626 0.55192 0.0
H1672 H 0.74452 0.75427 0.53538 0.0
H1673 H 0.76749 0.69459 0.4756 0.0
H1674 H 0.76432 0.68169 0.49998 0.0
H1675 H 0.79984 0.71536 0.49177 0.0
C1676 C 0.75278 0.68527 0.56077 0.0
C1677 C 0.78395 0.6923 0.56369 0.0
C1678 C 0.74472 0.69684 0.54492 0.0
C1679 C 0.76759 0.7157 0.53157 0.0
C1680 C 0.79861 0.72197 0.53405 0.0
H1681 H 0.76164 0.81504 0.43135 0.0
H1682 H 0.77723 0.79607 0.45898 0.0
C1683 C 0.80671 0.71018 0.54995 0.0
C1684 C 0.75901 0.73021 0.51583 0.0
H1685 H 0.75479 0.73365 0.46745 0.0
C1686 C 0.74671 0.74972 0.52051 0.0
C1687 C 0.7619 0.72427 0.49646 0.0
C1688 C 0.77384 0.70263 0.49057 0.0
C1689 C 0.73749 0.76369 0.50636 0.0
C1690 C 0.74021 0.75762 0.487 0.0
C1691 C 0.75269 0.73826 0.48231 0.0
C1692 C 0.73075 0.77141 0.47129 0.0
C1693 C 0.72551 0.7853 0.51227 0.0
C1694 C 0.69943 0.76437 0.46918 0.0
C1695 C 0.69037 0.77542 0.45336 0.0
C1696 C 0.71245 0.79337 0.43931 0.0
C1697 C 0.74396 0.80118 0.44186 0.0
C1698 C 0.75296 0.79028 0.45763 0.0
H1699 H 0.73235 0.79376 0.52713 0.0
H1700 H 0.73454 0.80597 0.50266 0.0
H1701 H 0.69947 0.77236 0.51142 0.0
H1702 H 0.68177 0.74941 0.4794 0.0
H1703 H 0.66589 0.76873 0.45172 0.0
H1704 H 0.95318 0.67621 0.93747 0.0
H1705 H 0.98818 0.6987 0.96472 0.0
H1706 H 0.94515 0.75412 0.97836 0.0
H1707 H 0.90934 0.73105 0.95101 0.0
H1708 H 0.03155 0.76164 0.96926 0.0
H1709 H 0.94783 0.71666 0.02996 0.0
H1710 H 0.93693 0.70031 0.00631 0.0
H1711 H 0.9398 0.73736 0.01173 0.0
C1712 C 0.95073 0.69279 0.94644 0.0
C1713 C 0.92848 0.70186 0.94212 0.0
C1714 C 0.97088 0.70574 0.96197 0.0
C1715 C 0.96941 0.72817 0.97356 0.0
C1716 C 0.94648 0.73657 0.96973 0.0
H1717 H 0.12607 0.8357 0.05478 0.0
H1718 H 0.0902 0.82389 0.02759 0.0
C1719 C 0.92597 0.72333 0.95416 0.0
C1720 C 0.99298 0.7433 0.98904 0.0
H1721 H 1.00147 0.74831 0.03736 0.0
C1722 C 0.02501 0.75902 0.98417 0.0
C1723 C 0.98437 0.7398 0.00845 0.0
C1724 C 0.9504 0.72245 0.01454 0.0
C1725 C 0.04864 0.77023 0.99817 0.0
C1726 C 0.04002 0.7661 0.01759 0.0
C1727 C 1.00802 0.75149 0.02245 0.0
C1728 C 0.06339 0.77383 0.0331 0.0
C1729 C 0.08251 0.78495 0.99207 0.0
C1730 C 0.06045 0.74969 0.04508 0.0
C1731 C 0.08066 0.75637 0.06052 0.0
C1732 C 0.10442 0.78739 0.06438 0.0
C1733 C 0.10826 0.81153 0.05199 0.0
C1734 C 0.08772 0.80481 0.0365 0.0
H1735 H 0.08473 0.78084 0.97675 0.0
H1736 H 0.09446 0.81071 0.99449 0.0
H1737 H 0.09497 0.7755 1.00059 0.0
H1738 H 0.04204 0.72561 0.04266 0.0
H1739 H 0.07713 0.73723 0.06977 0.0
H1740 H 0.19498 0.89724 0.45517 0.0
H1741 H 0.20871 0.93302 0.48258 0.0
H1742 H 0.30507 0.98366 0.46386 0.0
H1743 H 0.29166 0.94854 0.43661 0.0
H1744 H 0.25495 0.95071 0.51238 0.0
H1745 H 0.2795 0.05162 0.46576 0.0
H1746 H 0.2584 0.0114 0.45753 0.0
H1747 H 0.30055 0.03189 0.45933 0.0
C1748 C 0.21916 0.91568 0.45712 0.0
C1749 C 0.24215 0.92029 0.44363 0.0
C1750 C 0.22694 0.93618 0.47269 0.0
C1751 C 0.25775 0.96148 0.47493 0.0
C1752 C 0.28101 0.96483 0.46212 0.0
H1753 H 0.35839 0.11684 0.55399 0.0
H1754 H 0.34214 0.08044 0.52682 0.0
C1755 C 0.27329 0.94457 0.44661 0.0
C1756 C 0.26579 0.98499 0.49032 0.0
H1757 H 0.29495 0.06346 0.4982 0.0
C1758 C 0.26344 0.97531 0.50931 0.0
C1759 C 0.27699 0.01711 0.48625 0.0
C1760 C 0.27877 0.02866 0.46612 0.0
C1761 C 0.27276 0.99704 0.52435 0.0
C1762 C 0.28419 0.02921 0.52027 0.0
C1763 C 0.28633 0.03885 0.50128 0.0
C1764 C 0.29355 0.05304 0.5356 0.0
C1765 C 0.27103 0.9855 0.54447 0.0
C1766 C 0.27136 0.0505 0.54901 0.0
C1767 C 0.28051 0.07115 0.56443 0.0
C1768 C 0.31205 0.09501 0.56669 0.0
C1769 C 0.33394 0.09877 0.55262 0.0
C1770 C 0.32472 0.0779 0.53717 0.0
H1771 H 0.26965 0.96224 0.54483 0.0
H1772 H 0.29178 1.00248 0.55292 0.0
H1773 H 0.24965 0.98294 0.55144 0.0
H1774 H 0.24703 0.03202 0.54781 0.0
H1775 H 0.26294 0.06782 0.57488 0.0
loop_
_geom_bond_atom_site_label_1
_geom_bond_atom_site_label_2
_geom_bond_distance
_geom_bond_site_symmetry_2
_ccdc_geom_bond_type
Dy0 O3 2.307 . S
Dy0 O5 2.395 . S
Dy0 O6 2.379 . S
Dy0 O8 2.339 . S
Dy0 O10 2.298 . S
Dy0 O14 2.275 . S
Dy0 C22 2.738 . S
Dy1 O4 2.298 . S
Dy1 O7 2.275 . S
Dy1 O9 2.307 . S
Dy1 O11 2.395 . S
Dy1 O12 2.379 . S
Dy1 O15 2.339 . S
Dy1 C31 2.738 . S
C2 O14 1.254 . S
C2 O15 1.257 . S
O3 Dy0 2.307 . S
O3 C13 1.266 . S
O4 Dy1 2.298 . S
O4 C13 1.236 . S
O5 Dy0 2.395 . S
O5 C22 1.255 . S
O6 Dy0 2.379 . S
O6 C22 1.249 . S
O7 Dy1 2.275 . S
O7 C23 1.254 . S
O8 Dy0 2.339 . S
O8 C23 1.257 . S
O9 Dy1 2.307 . S
O9 C24 1.266 . S
O10 Dy0 2.298 . S
O10 C24 1.236 . S
O11 Dy1 2.395 . S
O11 C31 1.255 . S
O12 Dy1 2.379 . S
O12 C31 1.249 . S
C13 O3 1.266 . S
C13 O4 1.236 . S
O14 Dy0 2.275 . S
O14 C2 1.254 . S
O15 Dy1 2.339 . S
O15 C2 1.257 . S
C16 C19 1.344 . S
C16 C20 1.328 . S
C16 C22 1.516 . S
C17 C18 1.304 . S
C17 C21 1.323 . S
C18 C17 1.304 . S
C18 C19 1.371 . S
C18 H32 0.930 . S
C19 C16 1.344 . S
C19 C18 1.371 . S
C19 H33 0.931 . S
C20 C16 1.328 . S
C20 C21 1.433 . S
C20 H34 0.931 . S
C21 C17 1.323 . S
C21 C20 1.433 . S
C21 H35 0.933 . S
C22 Dy0 2.738 . S
C22 O5 1.255 . S
C22 O6 1.249 . S
C22 C16 1.516 . S
C23 O7 1.254 . S
C23 O8 1.257 . S
C24 O9 1.266 . S
C24 O10 1.236 . S
C25 C28 1.344 . S
C25 C29 1.328 . S
C25 C31 1.516 . S
C26 C27 1.304 . S
C26 C30 1.323 . S
C27 C26 1.304 . S
C27 C28 1.371 . S
C27 H36 0.930 . S
C28 C25 1.344 . S
C28 C27 1.371 . S
C28 H37 0.931 . S
C29 C25 1.328 . S
C29 C30 1.433 . S
C29 H38 0.931 . S
C30 C26 1.323 . S
C30 C29 1.433 . S
C30 H39 0.933 . S
C31 Dy1 2.738 . S
C31 O11 1.255 . S
C31 O12 1.249 . S
C31 C25 1.516 . S
H32 C18 0.930 . S
H33 C19 0.931 . S
H34 C20 0.931 . S
H35 C21 0.933 . S
H36 C27 0.930 . S
H37 C28 0.931 . S
H38 C29 0.931 . S
H39 C30 0.933 . S
Dy40 O43 2.307 . S
Dy40 O45 2.395 . S
Dy40 O46 2.379 . S
Dy40 O48 2.339 . S
Dy40 O50 2.298 . S
Dy40 O54 2.275 . S
Dy40 C62 2.738 . S
Dy41 O44 2.298 . S
Dy41 O47 2.275 . S
Dy41 O49 2.307 . S
Dy41 O51 2.395 . S
Dy41 O52 2.379 . S
Dy41 O55 2.339 . S
Dy41 C71 2.738 . S
C42 O54 1.254 . S
C42 O55 1.257 . S
O43 Dy40 2.307 . S
O43 C53 1.266 . S
O44 Dy41 2.298 . S
O44 C53 1.236 . S
O45 Dy40 2.395 . S
O45 C62 1.255 . S
O46 Dy40 2.379 . S
O46 C62 1.249 . S
O47 Dy41 2.275 . S
O47 C63 1.254 . S
O48 Dy40 2.339 . S
O48 C63 1.257 . S
O49 Dy41 2.307 . S
O49 C64 1.266 . S
O50 Dy40 2.298 . S
O50 C64 1.236 . S
O51 Dy41 2.395 . S
O51 C71 1.255 . S
O52 Dy41 2.379 . S
O52 C71 1.249 . S
C53 O43 1.266 . S
C53 O44 1.236 . S
O54 Dy40 2.275 . S
O54 C42 1.254 . S
O55 Dy41 2.339 . S
O55 C42 1.257 . S
C56 C59 1.344 . S
C56 C60 1.328 . S
C56 C62 1.516 . S
C57 C58 1.304 . S
C57 C61 1.323 . S
C58 C57 1.304 . S
C58 C59 1.371 1_455 S
C58 H72 0.930 . S
C59 C56 1.344 . S
C59 C58 1.371 1_655 S
C59 H73 0.931 . S
C60 C56 1.328 . S
C60 C61 1.433 1_655 S
C60 H74 0.931 . S
C61 C57 1.323 . S
C61 C60 1.433 1_455 S
C61 H75 0.933 . S
C62 Dy40 2.738 . S
C62 O45 1.255 . S
C62 O46 1.249 . S
C62 C56 1.516 . S
C63 O47 1.254 . S
C63 O48 1.257 . S
C64 O49 1.266 . S
C64 O50 1.236 . S
C65 C68 1.344 . S
C65 C69 1.328 . S
C65 C71 1.516 . S
C66 C67 1.304 . S
C66 C70 1.323 . S
C67 C66 1.304 . S
C67 C68 1.371 . S
C67 H76 0.930 . S
C68 C65 1.344 . S
C68 C67 1.371 . S
C68 H77 0.931 . S
C69 C65 1.328 . S
C69 C70 1.433 . S
C69 H78 0.931 . S
C70 C66 1.323 . S
C70 C69 1.433 . S
C70 H79 0.933 . S
C71 Dy41 2.738 . S
C71 O51 1.255 . S
C71 O52 1.249 . S
C71 C65 1.516 . S
H72 C58 0.930 . S
H73 C59 0.931 . S
H74 C60 0.931 . S
H75 C61 0.933 . S
H76 C67 0.930 . S
H77 C68 0.931 . S
H78 C69 0.931 . S
H79 C70 0.933 . S
Dy80 O83 2.307 . S
Dy80 O85 2.395 . S
Dy80 O86 2.379 . S
Dy80 O88 2.339 . S
Dy80 O90 2.298 . S
Dy80 O94 2.275 . S
Dy80 C102 2.738 . S
Dy81 O84 2.298 . S
Dy81 O87 2.275 . S
Dy81 O89 2.307 . S
Dy81 O91 2.395 . S
Dy81 O92 2.379 . S
Dy81 O95 2.339 . S
Dy81 C111 2.738 . S
C82 O94 1.254 . S
C82 O95 1.257 . S
O83 Dy80 2.307 . S
O83 C93 1.266 . S
O84 Dy81 2.298 . S
O84 C93 1.236 . S
O85 Dy80 2.395 . S
O85 C102 1.255 . S
O86 Dy80 2.379 . S
O86 C102 1.249 . S
O87 Dy81 2.275 . S
O87 C103 1.254 . S
O88 Dy80 2.339 . S
O88 C103 1.257 . S
O89 Dy81 2.307 . S
O89 C104 1.266 . S
O90 Dy80 2.298 . S
O90 C104 1.236 . S
O91 Dy81 2.395 . S
O91 C111 1.255 . S
O92 Dy81 2.379 . S
O92 C111 1.249 . S
C93 O83 1.266 . S
C93 O84 1.236 . S
O94 Dy80 2.275 . S
O94 C82 1.254 . S
O95 Dy81 2.339 . S
O95 C82 1.257 . S
C96 C99 1.344 . S
C96 C100 1.328 . S
C96 C102 1.516 . S
C97 C98 1.304 . S
C97 C101 1.323 . S
C98 C97 1.304 . S
C98 C99 1.371 1_545 S
C98 H112 0.930 . S
C99 C96 1.344 . S
C99 C98 1.371 1_565 S
C99 H113 0.931 . S
C100 C96 1.328 . S
C100 C101 1.433 1_565 S
C100 H114 0.931 . S
C101 C97 1.323 . S
C101 C100 1.433 1_545 S
C101 H115 0.933 . S
C102 Dy80 2.738 . S
C102 O85 1.255 . S
C102 O86 1.249 . S
C102 C96 1.516 . S
C103 O87 1.254 . S
C103 O88 1.257 . S
C104 O89 1.266 . S
C104 O90 1.236 . S
C105 C108 1.344 . S
C105 C109 1.328 . S
C105 C111 1.516 . S
C106 C107 1.304 . S
C106 C110 1.323 . S
C107 C106 1.304 . S
C107 C108 1.371 . S
C107 H116 0.930 . S
C108 C105 1.344 . S
C108 C107 1.371 . S
C108 H117 0.931 . S
C109 C105 1.328 . S
C109 C110 1.433 . S
C109 H118 0.931 . S
C110 C106 1.323 . S
C110 C109 1.433 . S
C110 H119 0.933 . S
C111 Dy81 2.738 . S
C111 O91 1.255 . S
C111 O92 1.249 . S
C111 C105 1.516 . S
H112 C98 0.930 . S
H113 C99 0.931 . S
H114 C100 0.931 . S
H115 C101 0.933 . S
H116 C107 0.930 . S
H117 C108 0.931 . S
H118 C109 0.931 . S
H119 C110 0.933 . S
Dy120 O123 2.307 . S
Dy120 O125 2.395 . S
Dy120 O126 2.379 . S
Dy120 O128 2.339 . S
Dy120 O130 2.298 . S
Dy120 O134 2.275 . S
Dy120 C142 2.738 . S
Dy121 O124 2.298 . S
Dy121 O127 2.275 . S
Dy121 O129 2.307 . S
Dy121 O131 2.395 . S
Dy121 O132 2.379 . S
Dy121 O135 2.339 . S
Dy121 C151 2.738 . S
C122 O134 1.254 . S
C122 O135 1.257 . S
O123 Dy120 2.307 . S
O123 C133 1.266 . S
O124 Dy121 2.298 . S
O124 C133 1.236 . S
O125 Dy120 2.395 . S
O125 C142 1.255 . S
O126 Dy120 2.379 . S
O126 C142 1.249 . S
O127 Dy121 2.275 . S
O127 C143 1.254 . S
O128 Dy120 2.339 . S
O128 C143 1.257 . S
O129 Dy121 2.307 . S
O129 C144 1.266 . S
O130 Dy120 2.298 . S
O130 C144 1.236 . S
O131 Dy121 2.395 . S
O131 C151 1.255 . S
O132 Dy121 2.379 . S
O132 C151 1.249 . S
C133 O123 1.266 . S
C133 O124 1.236 . S
O134 Dy120 2.275 . S
O134 C122 1.254 . S
O135 Dy121 2.339 . S
O135 C122 1.257 . S
C136 C139 1.344 . S
C136 C140 1.328 . S
C136 C142 1.516 . S
C137 C138 1.304 . S
C137 C141 1.323 . S
C138 C137 1.304 . S
C138 C139 1.371 . S
C138 H152 0.930 . S
C139 C136 1.344 . S
C139 C138 1.371 . S
C139 H153 0.931 . S
C140 C136 1.328 . S
C140 C141 1.433 . S
C140 H154 0.931 . S
C141 C137 1.323 . S
C141 C140 1.433 . S
C141 H155 0.933 . S
C142 Dy120 2.738 . S
C142 O125 1.255 . S
C142 O126 1.249 . S
C142 C136 1.516 . S
C143 O127 1.254 . S
C143 O128 1.257 . S
C144 O129 1.266 . S
C144 O130 1.236 . S
C145 C148 1.344 . S
C145 C149 1.328 . S
C145 C151 1.516 . S
C146 C147 1.304 . S
C146 C150 1.323 . S
C147 C146 1.304 . S
C147 C148 1.371 . S
C147 H156 0.930 . S
C148 C145 1.344 . S
C148 C147 1.371 . S
C148 H157 0.931 . S
C149 C145 1.328 . S
C149 C150 1.433 . S
C149 H158 0.931 . S
C150 C146 1.323 . S
C150 C149 1.433 . S
C150 H159 0.933 . S
C151 Dy121 2.738 . S
C151 O131 1.255 . S
C151 O132 1.249 . S
C151 C145 1.516 . S
H152 C138 0.930 . S
H153 C139 0.931 . S
H154 C140 0.931 . S
H155 C141 0.933 . S
H156 C147 0.930 . S
H157 C148 0.931 . S
H158 C149 0.931 . S
H159 C150 0.933 . S
Dy160 O163 2.307 . S
Dy160 O165 2.395 . S
Dy160 O166 2.379 . S
Dy160 O168 2.339 . S
Dy160 O170 2.298 . S
Dy160 O174 2.275 . S
Dy160 C182 2.738 . S
Dy161 O164 2.298 . S
Dy161 O167 2.275 . S
Dy161 O169 2.307 . S
Dy161 O171 2.395 . S
Dy161 O172 2.379 . S
Dy161 O175 2.339 . S
Dy161 C191 2.738 . S
C162 O174 1.254 . S
C162 O175 1.257 . S
O163 Dy160 2.307 . S
O163 C173 1.266 . S
O164 Dy161 2.298 . S
O164 C173 1.236 . S
O165 Dy160 2.395 . S
O165 C182 1.255 . S
O166 Dy160 2.379 . S
O166 C182 1.249 . S
O167 Dy161 2.275 . S
O167 C183 1.254 . S
O168 Dy160 2.339 . S
O168 C183 1.257 . S
O169 Dy161 2.307 . S
O169 C184 1.266 . S
O170 Dy160 2.298 . S
O170 C184 1.236 . S
O171 Dy161 2.395 . S
O171 C191 1.255 . S
O172 Dy161 2.379 . S
O172 C191 1.249 . S
C173 O163 1.266 . S
C173 O164 1.236 . S
O174 Dy160 2.275 . S
O174 C162 1.254 . S
O175 Dy161 2.339 . S
O175 C162 1.257 . S
C176 C179 1.344 . S
C176 C180 1.328 . S
C176 C182 1.516 . S
C177 C178 1.304 . S
C177 C181 1.323 . S
C178 C177 1.304 . S
C178 C179 1.371 1_655 S
C178 H192 0.930 . S
C179 C176 1.344 . S
C179 C178 1.371 1_455 S
C179 H193 0.931 . S
C180 C176 1.328 . S
C180 C181 1.433 1_455 S
C180 H194 0.931 . S
C181 C177 1.323 . S
C181 C180 1.433 1_655 S
C181 H195 0.933 . S
C182 Dy160 2.738 . S
C182 O165 1.255 . S
C182 O166 1.249 . S
C182 C176 1.516 . S
C183 O167 1.254 . S
C183 O168 1.257 . S
C184 O169 1.266 . S
C184 O170 1.236 . S
C185 C188 1.344 . S
C185 C189 1.328 . S
C185 C191 1.516 . S
C186 C187 1.304 . S
C186 C190 1.323 . S
C187 C186 1.304 . S
C187 C188 1.371 . S
C187 H196 0.930 . S
C188 C185 1.344 . S
C188 C187 1.371 . S
C188 H197 0.931 . S
C189 C185 1.328 . S
C189 C190 1.433 . S
C189 H198 0.931 . S
C190 C186 1.323 . S
C190 C189 1.433 . S
C190 H199 0.933 . S
C191 Dy161 2.738 . S
C191 O171 1.255 . S
C191 O172 1.249 . S
C191 C185 1.516 . S
H192 C178 0.930 . S
H193 C179 0.931 . S
H194 C180 0.931 . S
H195 C181 0.933 . S
H196 C187 0.930 . S
H197 C188 0.931 . S
H198 C189 0.931 . S
H199 C190 0.933 . S
Dy200 O203 2.307 . S
Dy200 O205 2.395 . S
Dy200 O206 2.379 . S
Dy200 O208 2.339 . S
Dy200 O210 2.298 . S
Dy200 O214 2.275 . S
Dy200 C222 2.738 . S
Dy201 O204 2.298 . S
Dy201 O207 2.275 . S
Dy201 O209 2.307 . S
Dy201 O211 2.395 . S
Dy201 O212 2.379 . S
Dy201 O215 2.339 . S
Dy201 C231 2.738 . S
C202 O214 1.254 . S
C202 O215 1.257 . S
O203 Dy200 2.307 . S
O203 C213 1.266 . S
O204 Dy201 2.298 . S
O204 C213 1.236 . S
O205 Dy200 2.395 . S
O205 C222 1.255 . S
O206 Dy200 2.379 . S
O206 C222 1.249 . S
O207 Dy201 2.275 . S
O207 C223 1.254 . S
O208 Dy200 2.339 . S
O208 C223 1.257 . S
O209 Dy201 2.307 . S
O209 C224 1.266 . S
O210 Dy200 2.298 . S
O210 C224 1.236 . S
O211 Dy201 2.395 . S
O211 C231 1.255 . S
O212 Dy201 2.379 . S
O212 C231 1.249 . S
C213 O203 1.266 . S
C213 O204 1.236 . S
O214 Dy200 2.275 . S
O214 C202 1.254 . S
O215 Dy201 2.339 . S
O215 C202 1.257 . S
C216 C219 1.344 . S
C216 C220 1.328 . S
C216 C222 1.516 . S
C217 C218 1.304 . S
C217 C221 1.323 . S
C218 C217 1.304 . S
C218 C219 1.371 1_565 S
C218 H232 0.930 . S
C219 C216 1.344 . S
C219 C218 1.371 1_545 S
C219 H233 0.931 . S
C220 C216 1.328 . S
C220 C221 1.433 1_545 S
C220 H234 0.931 . S
C221 C217 1.323 . S
C221 C220 1.433 1_565 S
C221 H235 0.933 . S
C222 Dy200 2.738 . S
C222 O205 1.255 . S
C222 O206 1.249 . S
C222 C216 1.516 . S
C223 O207 1.254 . S
C223 O208 1.257 . S
C224 O209 1.266 . S
C224 O210 1.236 . S
C225 C228 1.344 . S
C225 C229 1.328 . S
C225 C231 1.516 . S
C226 C227 1.304 . S
C226 C230 1.323 . S
C227 C226 1.304 . S
C227 C228 1.371 . S
C227 H236 0.930 . S
C228 C225 1.344 . S
C228 C227 1.371 . S
C228 H237 0.931 . S
C229 C225 1.328 . S
C229 C230 1.433 . S
C229 H238 0.931 . S
C230 C226 1.323 . S
C230 C229 1.433 . S
C230 H239 0.933 . S
C231 Dy201 2.738 . S
C231 O211 1.255 . S
C231 O212 1.249 . S
C231 C225 1.516 . S
H232 C218 0.930 . S
H233 C219 0.931 . S
H234 C220 0.931 . S
H235 C221 0.933 . S
H236 C227 0.930 . S
H237 C228 0.931 . S
H238 C229 0.931 . S
H239 C230 0.933 . S
Dy240 O243 2.307 . S
Dy240 O245 2.395 . S
Dy240 O246 2.379 . S
Dy240 O248 2.339 . S
Dy240 O250 2.298 . S
Dy240 O254 2.275 . S
Dy240 C262 2.738 . S
Dy241 O244 2.298 . S
Dy241 O247 2.275 . S
Dy241 O249 2.307 . S
Dy241 O251 2.395 . S
Dy241 O252 2.379 . S
Dy241 O255 2.339 . S
Dy241 C271 2.738 . S
C242 O254 1.254 . S
C242 O255 1.257 . S
O243 Dy240 2.307 . S
O243 C253 1.266 . S
O244 Dy241 2.298 . S
O244 C253 1.236 . S
O245 Dy240 2.395 . S
O245 C262 1.255 . S
O246 Dy240 2.379 . S
O246 C262 1.249 . S
O247 Dy241 2.275 . S
O247 C263 1.254 . S
O248 Dy240 2.339 . S
O248 C263 1.257 . S
O249 Dy241 2.307 . S
O249 C264 1.266 . S
O250 Dy240 2.298 . S
O250 C264 1.236 . S
O251 Dy241 2.395 . S
O251 C271 1.255 . S
O252 Dy241 2.379 . S
O252 C271 1.249 . S
C253 O243 1.266 . S
C253 O244 1.236 . S
O254 Dy240 2.275 . S
O254 C242 1.254 . S
O255 Dy241 2.339 . S
O255 C242 1.257 . S
C256 C259 1.344 . S
C256 C260 1.328 . S
C256 C262 1.516 . S
C257 C258 1.304 . S
C257 C261 1.323 . S
C258 C257 1.304 . S
C258 C259 1.371 . S
C258 H272 0.930 . S
C259 C256 1.344 . S
C259 C258 1.371 . S
C259 H273 0.931 . S
C260 C256 1.328 . S
C260 C261 1.433 . S
C260 H274 0.931 . S
C261 C257 1.323 . S
C261 C260 1.433 . S
C261 H275 0.933 . S
C262 Dy240 2.738 . S
C262 O245 1.255 . S
C262 O246 1.249 . S
C262 C256 1.516 . S
C263 O247 1.254 . S
C263 O248 1.257 . S
C264 O249 1.266 . S
C264 O250 1.236 . S
C265 C268 1.344 . S
C265 C269 1.328 . S
C265 C271 1.516 . S
C266 C267 1.304 . S
C266 C270 1.323 . S
C267 C266 1.304 . S
C267 C268 1.371 . S
C267 H276 0.930 . S
C268 C265 1.344 . S
C268 C267 1.371 . S
C268 H277 0.931 . S
C269 C265 1.328 . S
C269 C270 1.433 . S
C269 H278 0.931 . S
C270 C266 1.323 . S
C270 C269 1.433 . S
C270 H279 0.933 . S
C271 Dy241 2.738 . S
C271 O251 1.255 . S
C271 O252 1.249 . S
C271 C265 1.516 . S
H272 C258 0.930 . S
H273 C259 0.931 . S
H274 C260 0.931 . S
H275 C261 0.933 . S
H276 C267 0.930 . S
H277 C268 0.931 . S
H278 C269 0.931 . S
H279 C270 0.933 . S
Dy280 O283 2.307 . S
Dy280 O285 2.395 . S
Dy280 O286 2.379 . S
Dy280 O288 2.339 . S
Dy280 O290 2.298 . S
Dy280 O294 2.275 . S
Dy280 C302 2.738 . S
Dy281 O284 2.298 . S
Dy281 O287 2.275 . S
Dy281 O289 2.307 . S
Dy281 O291 2.395 . S
Dy281 O292 2.379 . S
Dy281 O295 2.339 . S
Dy281 C311 2.738 . S
C282 O294 1.254 . S
C282 O295 1.257 . S
O283 Dy280 2.307 . S
O283 C293 1.266 . S
O284 Dy281 2.298 . S
O284 C293 1.236 . S
O285 Dy280 2.395 . S
O285 C302 1.255 . S
O286 Dy280 2.379 . S
O286 C302 1.249 . S
O287 Dy281 2.275 . S
O287 C303 1.254 . S
O288 Dy280 2.339 . S
O288 C303 1.257 . S
O289 Dy281 2.307 . S
O289 C304 1.266 . S
O290 Dy280 2.298 . S
O290 C304 1.236 . S
O291 Dy281 2.395 . S
O291 C311 1.255 . S
O292 Dy281 2.379 . S
O292 C311 1.249 . S
C293 O283 1.266 . S
C293 O284 1.236 . S
O294 Dy280 2.275 . S
O294 C282 1.254 . S
O295 Dy281 2.339 . S
O295 C282 1.257 . S
C296 C299 1.344 . S
C296 C300 1.328 . S
C296 C302 1.516 . S
C297 C298 1.304 . S
C297 C301 1.323 . S
C298 C297 1.304 . S
C298 C299 1.371 1_455 S
C298 H312 0.930 . S
C299 C296 1.344 . S
C299 C298 1.371 1_655 S
C299 H313 0.931 . S
C300 C296 1.328 . S
C300 C301 1.433 1_655 S
C300 H314 0.931 . S
C301 C297 1.323 . S
C301 C300 1.433 1_455 S
C301 H315 0.933 . S
C302 Dy280 2.738 . S
C302 O285 1.255 . S
C302 O286 1.249 . S
C302 C296 1.516 . S
C303 O287 1.254 . S
C303 O288 1.257 . S
C304 O289 1.266 . S
C304 O290 1.236 . S
C305 C308 1.344 . S
C305 C309 1.328 . S
C305 C311 1.516 . S
C306 C307 1.304 . S
C306 C310 1.323 . S
C307 C306 1.304 . S
C307 C308 1.371 . S
C307 H316 0.930 . S
C308 C305 1.344 . S
C308 C307 1.371 . S
C308 H317 0.931 . S
C309 C305 1.328 . S
C309 C310 1.433 . S
C309 H318 0.931 . S
C310 C306 1.323 . S
C310 C309 1.433 . S
C310 H319 0.933 . S
C311 Dy281 2.738 . S
C311 O291 1.255 . S
C311 O292 1.249 . S
C311 C305 1.516 . S
H312 C298 0.930 . S
H313 C299 0.931 . S
H314 C300 0.931 . S
H315 C301 0.933 . S
H316 C307 0.930 . S
H317 C308 0.931 . S
H318 C309 0.931 . S
H319 C310 0.933 . S
Dy320 O323 2.307 . S
Dy320 O325 2.395 . S
Dy320 O326 2.379 . S
Dy320 O328 2.339 . S
Dy320 O330 2.298 . S
Dy320 O334 2.275 . S
Dy320 C342 2.738 . S
Dy321 O324 2.298 . S
Dy321 O327 2.275 . S
Dy321 O329 2.307 . S
Dy321 O331 2.395 . S
Dy321 O332 2.379 . S
Dy321 O335 2.339 . S
Dy321 C351 2.738 . S
C322 O334 1.254 . S
C322 O335 1.257 . S
O323 Dy320 2.307 . S
O323 C333 1.266 . S
O324 Dy321 2.298 . S
O324 C333 1.236 . S
O325 Dy320 2.395 . S
O325 C342 1.255 . S
O326 Dy320 2.379 . S
O326 C342 1.249 . S
O327 Dy321 2.275 . S
O327 C343 1.254 . S
O328 Dy320 2.339 . S
O328 C343 1.257 . S
O329 Dy321 2.307 . S
O329 C344 1.266 . S
O330 Dy320 2.298 . S
O330 C344 1.236 . S
O331 Dy321 2.395 . S
O331 C351 1.255 . S
O332 Dy321 2.379 . S
O332 C351 1.249 . S
C333 O323 1.266 . S
C333 O324 1.236 . S
O334 Dy320 2.275 . S
O334 C322 1.254 . S
O335 Dy321 2.339 . S
O335 C322 1.257 . S
C336 C339 1.344 . S
C336 C340 1.328 . S
C336 C342 1.516 . S
C337 C338 1.304 . S
C337 C341 1.323 . S
C338 C337 1.304 . S
C338 C339 1.371 1_545 S
C338 H352 0.930 . S
C339 C336 1.344 . S
C339 C338 1.371 1_565 S
C339 H353 0.931 . S
C340 C336 1.328 . S
C340 C341 1.433 1_565 S
C340 H354 0.931 . S
C341 C337 1.323 . S
C341 C340 1.433 1_545 S
C341 H355 0.933 . S
C342 Dy320 2.738 . S
C342 O325 1.255 . S
C342 O326 1.249 . S
C342 C336 1.516 . S
C343 O327 1.254 . S
C343 O328 1.257 . S
C344 O329 1.266 . S
C344 O330 1.236 . S
C345 C348 1.344 . S
C345 C349 1.328 . S
C345 C351 1.516 . S
C346 C347 1.304 . S
C346 C350 1.323 . S
C347 C346 1.304 . S
C347 C348 1.371 . S
C347 H356 0.930 . S
C348 C345 1.344 . S
C348 C347 1.371 . S
C348 H357 0.931 . S
C349 C345 1.328 . S
C349 C350 1.433 . S
C349 H358 0.931 . S
C350 C346 1.323 . S
C350 C349 1.433 . S
C350 H359 0.933 . S
C351 Dy321 2.738 . S
C351 O331 1.255 . S
C351 O332 1.249 . S
C351 C345 1.516 . S
H352 C338 0.930 . S
H353 C339 0.931 . S
H354 C340 0.931 . S
H355 C341 0.933 . S
H356 C347 0.930 . S
H357 C348 0.931 . S
H358 C349 0.931 . S
H359 C350 0.933 . S
Dy360 O363 2.307 . S
Dy360 O365 2.395 . S
Dy360 O366 2.379 . S
Dy360 O368 2.339 . S
Dy360 O370 2.298 . S
Dy360 O374 2.275 . S
Dy360 C382 2.738 . S
Dy361 O364 2.298 . S
Dy361 O367 2.275 . S
Dy361 O369 2.307 . S
Dy361 O371 2.395 . S
Dy361 O372 2.379 . S
Dy361 O375 2.339 . S
Dy361 C391 2.738 . S
C362 O374 1.254 . S
C362 O375 1.257 . S
O363 Dy360 2.307 . S
O363 C373 1.266 . S
O364 Dy361 2.298 . S
O364 C373 1.236 . S
O365 Dy360 2.395 . S
O365 C382 1.255 . S
O366 Dy360 2.379 . S
O366 C382 1.249 . S
O367 Dy361 2.275 . S
O367 C383 1.254 . S
O368 Dy360 2.339 . S
O368 C383 1.257 . S
O369 Dy361 2.307 . S
O369 C384 1.266 . S
O370 Dy360 2.298 . S
O370 C384 1.236 . S
O371 Dy361 2.395 . S
O371 C391 1.255 . S
O372 Dy361 2.379 . S
O372 C391 1.249 . S
C373 O363 1.266 . S
C373 O364 1.236 . S
O374 Dy360 2.275 . S
O374 C362 1.254 . S
O375 Dy361 2.339 . S
O375 C362 1.257 . S
C376 C379 1.344 . S
C376 C380 1.328 . S
C376 C382 1.516 . S
C377 C378 1.304 . S
C377 C381 1.323 . S
C378 C377 1.304 . S
C378 C379 1.371 . S
C378 H392 0.930 . S
C379 C376 1.344 . S
C379 C378 1.371 . S
C379 H393 0.931 . S
C380 C376 1.328 . S
C380 C381 1.433 . S
C380 H394 0.931 . S
C381 C377 1.323 . S
C381 C380 1.433 . S
C381 H395 0.933 . S
C382 Dy360 2.738 . S
C382 O365 1.255 . S
C382 O366 1.249 . S
C382 C376 1.516 . S
C383 O367 1.254 . S
C383 O368 1.257 . S
C384 O369 1.266 . S
C384 O370 1.236 . S
C385 C388 1.344 . S
C385 C389 1.328 . S
C385 C391 1.516 . S
C386 C387 1.304 . S
C386 C390 1.323 . S
C387 C386 1.304 . S
C387 C388 1.371 . S
C387 H396 0.930 . S
C388 C385 1.344 . S
C388 C387 1.371 . S
C388 H397 0.931 . S
C389 C385 1.328 . S
C389 C390 1.433 . S
C389 H398 0.931 . S
C390 C386 1.323 . S
C390 C389 1.433 . S
C390 H399 0.933 . S
C391 Dy361 2.738 . S
C391 O371 1.255 . S
C391 O372 1.249 . S
C391 C385 1.516 . S
H392 C378 0.930 . S
H393 C379 0.931 . S
H394 C380 0.931 . S
H395 C381 0.933 . S
H396 C387 0.930 . S
H397 C388 0.931 . S
H398 C389 0.931 . S
H399 C390 0.933 . S
Dy400 O403 2.307 . S
Dy400 O405 2.395 . S
Dy400 O406 2.379 . S
Dy400 O408 2.339 . S
Dy400 O410 2.298 . S
Dy400 O414 2.275 . S
Dy400 C422 2.738 . S
Dy401 O404 2.298 . S
Dy401 O407 2.275 . S
Dy401 O409 2.307 . S
Dy401 O411 2.395 . S
Dy401 O412 2.379 . S
Dy401 O415 2.339 . S
Dy401 C431 2.738 . S
C402 O414 1.254 . S
C402 O415 1.257 . S
O403 Dy400 2.307 . S
O403 C413 1.266 . S
O404 Dy401 2.298 . S
O404 C413 1.236 . S
O405 Dy400 2.395 . S
O405 C422 1.255 . S
O406 Dy400 2.379 . S
O406 C422 1.249 . S
O407 Dy401 2.275 . S
O407 C423 1.254 . S
O408 Dy400 2.339 . S
O408 C423 1.257 . S
O409 Dy401 2.307 . S
O409 C424 1.266 . S
O410 Dy400 2.298 . S
O410 C424 1.236 . S
O411 Dy401 2.395 . S
O411 C431 1.255 . S
O412 Dy401 2.379 . S
O412 C431 1.249 . S
C413 O403 1.266 . S
C413 O404 1.236 . S
O414 Dy400 2.275 . S
O414 C402 1.254 . S
O415 Dy401 2.339 . S
O415 C402 1.257 . S
C416 C419 1.344 . S
C416 C420 1.328 . S
C416 C422 1.516 . S
C417 C418 1.304 . S
C417 C421 1.323 . S
C418 C417 1.304 . S
C418 C419 1.371 1_655 S
C418 H432 0.930 . S
C419 C416 1.344 . S
C419 C418 1.371 1_455 S
C419 H433 0.931 . S
C420 C416 1.328 . S
C420 C421 1.433 1_455 S
C420 H434 0.931 . S
C421 C417 1.323 . S
C421 C420 1.433 1_655 S
C421 H435 0.933 . S
C422 Dy400 2.738 . S
C422 O405 1.255 . S
C422 O406 1.249 . S
C422 C416 1.516 . S
C423 O407 1.254 . S
C423 O408 1.257 . S
C424 O409 1.266 . S
C424 O410 1.236 . S
C425 C428 1.344 . S
C425 C429 1.328 . S
C425 C431 1.516 . S
C426 C427 1.304 . S
C426 C430 1.323 . S
C427 C426 1.304 . S
C427 C428 1.371 . S
C427 H436 0.930 . S
C428 C425 1.344 . S
C428 C427 1.371 . S
C428 H437 0.931 . S
C429 C425 1.328 . S
C429 C430 1.433 . S
C429 H438 0.931 . S
C430 C426 1.323 . S
C430 C429 1.433 . S
C430 H439 0.933 . S
C431 Dy401 2.738 . S
C431 O411 1.255 . S
C431 O412 1.249 . S
C431 C425 1.516 . S
H432 C418 0.930 . S
H433 C419 0.931 . S
H434 C420 0.931 . S
H435 C421 0.933 . S
H436 C427 0.930 . S
H437 C428 0.931 . S
H438 C429 0.931 . S
H439 C430 0.933 . S
Dy440 O443 2.307 . S
Dy440 O445 2.395 . S
Dy440 O446 2.379 . S
Dy440 O448 2.339 . S
Dy440 O450 2.298 . S
Dy440 O454 2.275 . S
Dy440 C462 2.738 . S
Dy441 O444 2.298 . S
Dy441 O447 2.275 . S
Dy441 O449 2.307 . S
Dy441 O451 2.395 . S
Dy441 O452 2.379 . S
Dy441 O455 2.339 . S
Dy441 C471 2.738 . S
C442 O454 1.254 . S
C442 O455 1.257 . S
O443 Dy440 2.307 . S
O443 C453 1.266 . S
O444 Dy441 2.298 . S
O444 C453 1.236 . S
O445 Dy440 2.395 . S
O445 C462 1.255 . S
O446 Dy440 2.379 . S
O446 C462 1.249 . S
O447 Dy441 2.275 . S
O447 C463 1.254 . S
O448 Dy440 2.339 . S
O448 C463 1.257 . S
O449 Dy441 2.307 . S
O449 C464 1.266 . S
O450 Dy440 2.298 . S
O450 C464 1.236 . S
O451 Dy441 2.395 . S
O451 C471 1.255 . S
O452 Dy441 2.379 . S
O452 C471 1.249 . S
C453 O443 1.266 . S
C453 O444 1.236 . S
O454 Dy440 2.275 . S
O454 C442 1.254 . S
O455 Dy441 2.339 . S
O455 C442 1.257 . S
C456 C459 1.344 . S
C456 C460 1.328 . S
C456 C462 1.516 . S
C457 C458 1.304 . S
C457 C461 1.323 . S
C458 C457 1.304 . S
C458 C459 1.371 1_565 S
C458 H472 0.930 . S
C459 C456 1.344 . S
C459 C458 1.371 1_545 S
C459 H473 0.931 . S
C460 C456 1.328 . S
C460 C461 1.433 1_545 S
C460 H474 0.931 . S
C461 C457 1.323 . S
C461 C460 1.433 1_565 S
C461 H475 0.933 . S
C462 Dy440 2.738 . S
C462 O445 1.255 . S
C462 O446 1.249 . S
C462 C456 1.516 . S
C463 O447 1.254 . S
C463 O448 1.257 . S
C464 O449 1.266 . S
C464 O450 1.236 . S
C465 C468 1.344 . S
C465 C469 1.328 . S
C465 C471 1.516 . S
C466 C467 1.304 . S
C466 C470 1.323 . S
C467 C466 1.304 . S
C467 C468 1.371 . S
C467 H476 0.930 . S
C468 C465 1.344 . S
C468 C467 1.371 . S
C468 H477 0.931 . S
C469 C465 1.328 . S
C469 C470 1.433 . S
C469 H478 0.931 . S
C470 C466 1.323 . S
C470 C469 1.433 . S
C470 H479 0.933 . S
C471 Dy441 2.738 . S
C471 O451 1.255 . S
C471 O452 1.249 . S
C471 C465 1.516 . S
H472 C458 0.930 . S
H473 C459 0.931 . S
H474 C460 0.931 . S
H475 C461 0.933 . S
H476 C467 0.930 . S
H477 C468 0.931 . S
H478 C469 0.931 . S
H479 C470 0.933 . S
H480 C488 0.929 . S
H481 C490 0.930 . S
H482 C492 0.930 . S
H483 C495 0.929 . S
H484 C498 0.930 . S
H485 C500 0.960 . S
H486 C500 0.960 1_565 S
H487 C500 0.960 1_565 S
C488 H480 0.929 . S
C488 C489 1.377 . S
C488 C490 1.384 . S
C489 C488 1.377 . S
C489 C495 1.390 . S
C490 H481 0.930 . S
C490 C488 1.384 . S
C490 C491 1.372 . S
C491 C490 1.372 . S
C491 C492 1.400 . S
C491 C496 1.490 . S
C492 H482 0.930 . S
C492 C491 1.400 . S
C492 C495 1.386 . S
H493 C509 0.930 . S
H494 C510 0.931 . S
C495 H483 0.929 . S
C495 C489 1.390 . S
C495 C492 1.386 . S
C496 C491 1.490 . S
C496 C498 1.395 . S
C496 C499 1.403 1_565 S
H497 C503 0.930 . S
C498 H484 0.930 . S
C498 C496 1.395 . S
C498 C501 1.403 1_565 S
C499 C496 1.403 1_545 S
C499 C500 1.524 . S
C499 C503 1.400 . S
C500 H485 0.960 . S
C500 H486 0.960 1_545 S
C500 H487 0.960 1_545 S
C500 C499 1.524 . S
C501 C498 1.403 1_545 S
C501 C502 1.392 . S
C501 C505 1.495 . S
C502 C501 1.392 . S
C502 C503 1.385 . S
C502 C504 1.478 . S
C503 H497 0.930 . S
C503 C499 1.400 . S
C503 C502 1.385 . S
C504 C502 1.478 . S
C504 C506 1.381 . S
C504 C510 1.383 . S
C505 C501 1.495 . S
C505 H511 0.959 1_545 S
C505 H512 0.961 . S
C505 H513 0.960 . S
C506 C504 1.381 . S
C506 C507 1.394 . S
C506 H514 0.930 . S
C507 C506 1.394 . S
C507 C508 1.383 . S
C507 H515 0.929 . S
C508 C507 1.383 . S
C508 C509 1.377 . S
C509 H493 0.930 . S
C509 C508 1.377 . S
C509 C510 1.379 . S
C510 H494 0.931 . S
C510 C504 1.383 . S
C510 C509 1.379 . S
H511 C505 0.959 1_565 S
H512 C505 0.961 . S
H513 C505 0.960 . S
H514 C506 0.930 . S
H515 C507 0.929 . S
H516 C524 0.929 . S
H517 C526 0.930 . S
H518 C528 0.930 . S
H519 C531 0.929 . S
H520 C534 0.930 . S
H521 C536 0.960 . S
H522 C536 0.960 . S
H523 C536 0.960 . S
C524 H516 0.929 . S
C524 C525 1.377 . S
C524 C526 1.384 . S
C525 C524 1.377 . S
C525 C531 1.390 . S
C526 H517 0.930 . S
C526 C524 1.384 . S
C526 C527 1.372 . S
C527 C526 1.372 . S
C527 C528 1.400 . S
C527 C532 1.490 . S
C528 H518 0.930 . S
C528 C527 1.400 . S
C528 C531 1.386 . S
H529 C545 0.930 . S
H530 C546 0.931 . S
C531 H519 0.929 . S
C531 C525 1.390 . S
C531 C528 1.386 . S
C532 C527 1.490 . S
C532 C534 1.395 . S
C532 C535 1.403 . S
H533 C539 0.930 . S
C534 H520 0.930 . S
C534 C532 1.395 . S
C534 C537 1.403 . S
C535 C532 1.403 . S
C535 C536 1.524 . S
C535 C539 1.400 . S
C536 H521 0.960 . S
C536 H522 0.960 . S
C536 H523 0.960 . S
C536 C535 1.524 . S
C537 C534 1.403 . S
C537 C538 1.392 . S
C537 C541 1.495 . S
C538 C537 1.392 . S
C538 C539 1.385 . S
C538 C540 1.478 . S
C539 H533 0.930 . S
C539 C535 1.400 . S
C539 C538 1.385 . S
C540 C538 1.478 . S
C540 C542 1.381 . S
C540 C546 1.383 . S
C541 C537 1.495 . S
C541 H547 0.959 . S
C541 H548 0.961 . S
C541 H549 0.960 . S
C542 C540 1.381 . S
C542 C543 1.394 . S
C542 H550 0.930 . S
C543 C542 1.394 . S
C543 C544 1.383 . S
C543 H551 0.929 . S
C544 C543 1.383 . S
C544 C545 1.377 . S
C545 H529 0.930 . S
C545 C544 1.377 . S
C545 C546 1.379 . S
C546 H530 0.931 . S
C546 C540 1.383 . S
C546 C545 1.379 . S
H547 C541 0.959 . S
H548 C541 0.961 . S
H549 C541 0.960 . S
H550 C542 0.930 . S
H551 C543 0.929 . S
H552 C560 0.929 . S
H553 C562 0.930 . S
H554 C564 0.930 . S
H555 C567 0.929 . S
H556 C570 0.930 . S
H557 C572 0.960 . S
H558 C572 0.960 . S
H559 C572 0.960 . S
C560 H552 0.929 . S
C560 C561 1.377 . S
C560 C562 1.384 . S
C561 C560 1.377 . S
C561 C567 1.390 . S
C562 H553 0.930 . S
C562 C560 1.384 . S
C562 C563 1.372 . S
C563 C562 1.372 . S
C563 C564 1.400 . S
C563 C568 1.490 . S
C564 H554 0.930 . S
C564 C563 1.400 . S
C564 C567 1.386 . S
H565 C581 0.930 . S
H566 C582 0.931 . S
C567 H555 0.929 . S
C567 C561 1.390 . S
C567 C564 1.386 . S
C568 C563 1.490 . S
C568 C570 1.395 . S
C568 C571 1.403 . S
H569 C575 0.930 . S
C570 H556 0.930 . S
C570 C568 1.395 . S
C570 C573 1.403 1_655 S
C571 C568 1.403 . S
C571 C572 1.524 . S
C571 C575 1.398 1_655 S
C572 H557 0.960 . S
C572 H558 0.960 . S
C572 H559 0.960 . S
C572 C571 1.524 . S
C573 C570 1.403 1_455 S
C573 C574 1.392 . S
C573 C577 1.495 . S
C574 C573 1.392 . S
C574 C575 1.388 . S
C574 C576 1.478 . S
C575 H569 0.930 . S
C575 C571 1.398 1_455 S
C575 C574 1.388 . S
C576 C574 1.478 . S
C576 C578 1.381 . S
C576 C582 1.383 . S
C577 C573 1.495 . S
C577 H583 0.959 . S
C577 H584 0.961 . S
C577 H585 0.960 . S
C578 C576 1.381 . S
C578 C579 1.394 . S
C578 H586 0.930 . S
C579 C578 1.394 . S
C579 C580 1.383 . S
C579 H587 0.929 . S
C580 C579 1.383 . S
C580 C581 1.377 . S
C581 H565 0.930 . S
C581 C580 1.377 . S
C581 C582 1.379 . S
C582 H566 0.931 . S
C582 C576 1.383 . S
C582 C581 1.379 . S
H583 C577 0.959 . S
H584 C577 0.961 . S
H585 C577 0.960 . S
H586 C578 0.930 . S
H587 C579 0.929 . S
H588 C596 0.929 . S
H589 C598 0.930 . S
H590 C600 0.930 . S
H591 C603 0.929 . S
H592 C606 0.930 . S
H593 C608 0.960 . S
H594 C608 0.960 . S
H595 C608 0.960 . S
C596 H588 0.929 . S
C596 C597 1.377 . S
C596 C598 1.384 . S
C597 C596 1.377 . S
C597 C603 1.390 . S
C598 H589 0.930 . S
C598 C596 1.384 . S
C598 C599 1.372 . S
C599 C598 1.372 . S
C599 C600 1.400 . S
C599 C604 1.490 . S
C600 H590 0.930 . S
C600 C599 1.400 . S
C600 C603 1.386 . S
H601 C617 0.930 . S
H602 C618 0.931 . S
C603 H591 0.929 . S
C603 C597 1.390 . S
C603 C600 1.386 . S
C604 C599 1.490 . S
C604 C606 1.395 . S
C604 C607 1.403 . S
H605 C611 0.930 . S
C606 H592 0.930 . S
C606 C604 1.395 . S
C606 C609 1.403 1_565 S
C607 C604 1.403 . S
C607 C608 1.524 . S
C607 C611 1.400 1_565 S
C608 H593 0.960 . S
C608 H594 0.960 . S
C608 H595 0.960 . S
C608 C607 1.524 . S
C609 C606 1.403 1_545 S
C609 C610 1.392 . S
C609 C613 1.495 . S
C610 C609 1.392 . S
C610 C611 1.385 . S
C610 C612 1.478 . S
C611 H605 0.930 . S
C611 C607 1.400 1_545 S
C611 C610 1.385 . S
C612 C610 1.478 . S
C612 C614 1.381 . S
C612 C618 1.383 . S
C613 C609 1.495 . S
C613 H619 0.959 . S
C613 H620 0.961 . S
C613 H621 0.960 . S
C614 C612 1.381 . S
C614 C615 1.394 . S
C614 H622 0.930 . S
C615 C614 1.394 . S
C615 C616 1.383 . S
C615 H623 0.929 . S
C616 C615 1.383 . S
C616 C617 1.377 . S
C617 H601 0.930 . S
C617 C616 1.377 . S
C617 C618 1.379 . S
C618 H602 0.931 . S
C618 C612 1.383 . S
C618 C617 1.379 . S
H619 C613 0.959 . S
H620 C613 0.961 . S
H621 C613 0.960 . S
H622 C614 0.930 . S
H623 C615 0.929 . S
H624 C632 0.929 . S
H625 C634 0.930 . S
H626 C636 0.930 . S
H627 C639 0.929 . S
H628 C642 0.930 . S
H629 C644 0.960 . S
H630 C644 0.960 . S
H631 C644 0.960 . S
C632 H624 0.929 . S
C632 C633 1.377 . S
C632 C634 1.384 . S
C633 C632 1.377 . S
C633 C639 1.390 . S
C634 H625 0.930 . S
C634 C632 1.384 . S
C634 C635 1.372 . S
C635 C634 1.372 . S
C635 C636 1.400 . S
C635 C640 1.490 . S
C636 H626 0.930 . S
C636 C635 1.400 . S
C636 C639 1.386 . S
H637 C653 0.930 . S
H638 C654 0.931 . S
C639 H627 0.929 . S
C639 C633 1.390 . S
C639 C636 1.386 . S
C640 C635 1.490 . S
C640 C642 1.395 . S
C640 C643 1.403 . S
H641 C647 0.930 . S
C642 H628 0.930 . S
C642 C640 1.395 . S
C642 C645 1.403 . S
C643 C640 1.403 . S
C643 C644 1.524 . S
C643 C647 1.400 . S
C644 H629 0.960 . S
C644 H630 0.960 . S
C644 H631 0.960 . S
C644 C643 1.524 . S
C645 C642 1.403 . S
C645 C646 1.392 . S
C645 C649 1.495 . S
C646 C645 1.392 . S
C646 C647 1.385 . S
C646 C648 1.478 . S
C647 H641 0.930 . S
C647 C643 1.400 . S
C647 C646 1.385 . S
C648 C646 1.478 . S
C648 C650 1.381 . S
C648 C654 1.383 . S
C649 C645 1.495 . S
C649 H655 0.959 . S
C649 H656 0.961 . S
C649 H657 0.960 . S
C650 C648 1.381 . S
C650 C651 1.394 . S
C650 H658 0.930 . S
C651 C650 1.394 . S
C651 C652 1.383 . S
C651 H659 0.929 . S
C652 C651 1.383 . S
C652 C653 1.377 . S
C653 H637 0.930 . S
C653 C652 1.377 . S
C653 C654 1.379 . S
C654 H638 0.931 . S
C654 C648 1.383 . S
C654 C653 1.379 . S
H655 C649 0.959 . S
H656 C649 0.961 . S
H657 C649 0.960 . S
H658 C650 0.930 . S
H659 C651 0.929 . S
H660 C668 0.929 . S
H661 C670 0.930 . S
H662 C672 0.930 . S
H663 C675 0.929 . S
H664 C678 0.930 . S
H665 C680 0.960 1_455 S
H666 C680 0.960 . S
H667 C680 0.960 . S
C668 H660 0.929 . S
C668 C669 1.377 . S
C668 C670 1.384 . S
C669 C668 1.377 . S
C669 C675 1.390 . S
C670 H661 0.930 . S
C670 C668 1.384 . S
C670 C671 1.372 . S
C671 C670 1.372 . S
C671 C672 1.400 . S
C671 C676 1.490 . S
C672 H662 0.930 . S
C672 C671 1.400 . S
C672 C675 1.386 . S
H673 C689 0.930 . S
H674 C690 0.931 . S
C675 H663 0.929 . S
C675 C669 1.390 . S
C675 C672 1.386 . S
C676 C671 1.490 . S
C676 C678 1.395 . S
C676 C679 1.403 1_655 S
H677 C683 0.930 . S
C678 H664 0.930 . S
C678 C676 1.395 . S
C678 C681 1.403 1_655 S
C679 C676 1.403 1_455 S
C679 C680 1.524 1_455 S
C679 C683 1.400 . S
C680 H665 0.960 1_655 S
C680 H666 0.960 . S
C680 H667 0.960 . S
C680 C679 1.524 1_655 S
C681 C678 1.403 1_455 S
C681 C682 1.392 . S
C681 C685 1.495 . S
C682 C681 1.392 . S
C682 C683 1.385 . S
C682 C684 1.478 . S
C683 H677 0.930 . S
C683 C679 1.400 . S
C683 C682 1.385 . S
C684 C682 1.478 . S
C684 C686 1.381 . S
C684 C690 1.383 . S
C685 C681 1.495 . S
C685 H691 0.959 . S
C685 H692 0.961 . S
C685 H693 0.960 . S
C686 C684 1.381 . S
C686 C687 1.394 . S
C686 H694 0.930 . S
C687 C686 1.394 . S
C687 C688 1.383 . S
C687 H695 0.929 . S
C688 C687 1.383 . S
C688 C689 1.377 . S
C689 H673 0.930 . S
C689 C688 1.377 . S
C689 C690 1.379 . S
C690 H674 0.931 . S
C690 C684 1.383 . S
C690 C689 1.379 . S
H691 C685 0.959 . S
H692 C685 0.961 . S
H693 C685 0.960 . S
H694 C686 0.930 . S
H695 C687 0.929 . S
H696 C704 0.929 . S
H697 C706 0.930 . S
H698 C708 0.930 . S
H699 C711 0.929 . S
H700 C714 0.930 . S
H701 C716 0.960 . S
H702 C716 0.960 1_455 S
H703 C716 0.960 1_455 S
C704 H696 0.929 . S
C704 C705 1.377 . S
C704 C706 1.384 . S
C705 C704 1.377 . S
C705 C711 1.390 . S
C706 H697 0.930 . S
C706 C704 1.384 . S
C706 C707 1.372 . S
C707 C706 1.372 . S
C707 C708 1.400 . S
C707 C712 1.490 . S
C708 H698 0.930 . S
C708 C707 1.400 . S
C708 C711 1.386 . S
H709 C725 0.930 . S
H710 C726 0.931 . S
C711 H699 0.929 . S
C711 C705 1.390 . S
C711 C708 1.386 . S
C712 C707 1.490 . S
C712 C714 1.395 . S
C712 C715 1.403 1_455 S
H713 C719 0.930 . S
C714 H700 0.930 . S
C714 C712 1.395 . S
C714 C717 1.403 1_455 S
C715 C712 1.403 1_655 S
C715 C716 1.524 . S
C715 C719 1.400 . S
C716 H701 0.960 . S
C716 H702 0.960 1_655 S
C716 H703 0.960 1_655 S
C716 C715 1.524 . S
C717 C714 1.403 1_655 S
C717 C718 1.392 . S
C717 C721 1.495 . S
C718 C717 1.392 . S
C718 C719 1.385 . S
C718 C720 1.478 . S
C719 H713 0.930 . S
C719 C715 1.400 . S
C719 C718 1.385 . S
C720 C718 1.478 . S
C720 C722 1.381 . S
C720 C726 1.383 . S
C721 C717 1.495 . S
C721 H727 0.959 1_655 S
C721 H728 0.961 . S
C721 H729 0.960 . S
C722 C720 1.381 . S
C722 C723 1.394 . S
C722 H730 0.930 . S
C723 C722 1.394 . S
C723 C724 1.383 . S
C723 H731 0.929 . S
C724 C723 1.383 . S
C724 C725 1.377 . S
C725 H709 0.930 . S
C725 C724 1.377 . S
C725 C726 1.379 . S
C726 H710 0.931 . S
C726 C720 1.383 . S
C726 C725 1.379 . S
H727 C721 0.959 1_455 S
H728 C721 0.961 . S
H729 C721 0.960 . S
H730 C722 0.930 . S
H731 C723 0.929 . S
H732 C740 0.929 . S
H733 C742 0.930 . S
H734 C744 0.930 . S
H735 C747 0.929 . S
H736 C750 0.930 . S
H737 C752 0.960 . S
H738 C752 0.960 . S
H739 C752 0.960 . S
C740 H732 0.929 . S
C740 C741 1.377 . S
C740 C742 1.384 . S
C741 C740 1.377 . S
C741 C747 1.390 . S
C742 H733 0.930 . S
C742 C740 1.384 . S
C742 C743 1.372 . S
C743 C742 1.372 . S
C743 C744 1.400 . S
C743 C748 1.490 . S
C744 H734 0.930 . S
C744 C743 1.400 . S
C744 C747 1.386 . S
H745 C761 0.930 . S
H746 C762 0.931 . S
C747 H735 0.929 . S
C747 C741 1.390 . S
C747 C744 1.386 . S
C748 C743 1.490 . S
C748 C750 1.395 . S
C748 C751 1.403 . S
H749 C755 0.930 . S
C750 H736 0.930 . S
C750 C748 1.395 . S
C750 C753 1.403 . S
C751 C748 1.403 . S
C751 C752 1.524 . S
C751 C755 1.400 1_565 S
C752 H737 0.960 . S
C752 H738 0.960 . S
C752 H739 0.960 . S
C752 C751 1.524 . S
C753 C750 1.403 . S
C753 C754 1.392 1_565 S
C753 C757 1.495 1_565 S
C754 C753 1.392 1_545 S
C754 C755 1.385 . S
C754 C756 1.478 . S
C755 H749 0.930 . S
C755 C751 1.400 1_545 S
C755 C754 1.385 . S
C756 C754 1.478 . S
C756 C758 1.381 . S
C756 C762 1.383 . S
C757 C753 1.495 1_545 S
C757 H763 0.959 1_545 S
C757 H764 0.961 . S
C757 H765 0.960 . S
C758 C756 1.381 . S
C758 C759 1.394 . S
C758 H766 0.930 . S
C759 C758 1.394 . S
C759 C760 1.383 . S
C759 H767 0.929 . S
C760 C759 1.383 . S
C760 C761 1.377 . S
C761 H745 0.930 . S
C761 C760 1.377 . S
C761 C762 1.379 . S
C762 H746 0.931 . S
C762 C756 1.383 . S
C762 C761 1.379 . S
H763 C757 0.959 1_565 S
H764 C757 0.961 . S
H765 C757 0.960 . S
H766 C758 0.930 . S
H767 C759 0.929 . S
H768 C776 0.929 . S
H769 C778 0.930 . S
H770 C780 0.930 . S
H771 C783 0.929 . S
H772 C786 0.930 . S
H773 C788 0.960 . S
H774 C788 0.960 . S
H775 C788 0.960 . S
C776 H768 0.929 . S
C776 C777 1.377 . S
C776 C778 1.384 . S
C777 C776 1.377 . S
C777 C783 1.390 . S
C778 H769 0.930 . S
C778 C776 1.384 . S
C778 C779 1.372 . S
C779 C778 1.372 . S
C779 C780 1.400 . S
C779 C784 1.490 . S
C780 H770 0.930 . S
C780 C779 1.400 . S
C780 C783 1.386 . S
H781 C797 0.930 . S
H782 C798 0.931 . S
C783 H771 0.929 . S
C783 C777 1.390 . S
C783 C780 1.386 . S
C784 C779 1.490 . S
C784 C786 1.395 . S
C784 C787 1.403 . S
H785 C791 0.930 . S
C786 H772 0.930 . S
C786 C784 1.395 . S
C786 C789 1.403 . S
C787 C784 1.403 . S
C787 C788 1.524 . S
C787 C791 1.400 . S
C788 H773 0.960 . S
C788 H774 0.960 . S
C788 H775 0.960 . S
C788 C787 1.524 . S
C789 C786 1.403 . S
C789 C790 1.392 . S
C789 C793 1.495 . S
C790 C789 1.392 . S
C790 C791 1.385 . S
C790 C792 1.478 . S
C791 H785 0.930 . S
C791 C787 1.400 . S
C791 C790 1.385 . S
C792 C790 1.478 . S
C792 C794 1.381 . S
C792 C798 1.383 . S
C793 C789 1.495 . S
C793 H799 0.959 . S
C793 H800 0.961 . S
C793 H801 0.960 . S
C794 C792 1.381 . S
C794 C795 1.394 . S
C794 H802 0.930 . S
C795 C794 1.394 . S
C795 C796 1.383 . S
C795 H803 0.929 . S
C796 C795 1.383 . S
C796 C797 1.377 . S
C797 H781 0.930 . S
C797 C796 1.377 . S
C797 C798 1.379 . S
C798 H782 0.931 . S
C798 C792 1.383 . S
C798 C797 1.379 . S
H799 C793 0.959 . S
H800 C793 0.961 . S
H801 C793 0.960 . S
H802 C794 0.930 . S
H803 C795 0.929 . S
H804 C812 0.929 . S
H805 C814 0.930 . S
H806 C816 0.930 . S
H807 C819 0.929 . S
H808 C822 0.930 . S
H809 C824 0.960 . S
H810 C824 0.960 . S
H811 C824 0.960 . S
C812 H804 0.929 . S
C812 C813 1.377 . S
C812 C814 1.384 . S
C813 C812 1.377 . S
C813 C819 1.390 . S
C814 H805 0.930 . S
C814 C812 1.384 . S
C814 C815 1.372 . S
C815 C814 1.372 . S
C815 C816 1.400 . S
C815 C820 1.490 . S
C816 H806 0.930 . S
C816 C815 1.400 . S
C816 C819 1.386 . S
H817 C833 0.930 . S
H818 C834 0.931 . S
C819 H807 0.929 . S
C819 C813 1.390 . S
C819 C816 1.386 . S
C820 C815 1.490 . S
C820 C822 1.395 . S
C820 C823 1.403 . S
H821 C827 0.930 . S
C822 H808 0.930 . S
C822 C820 1.395 . S
C822 C825 1.403 1_455 S
C823 C820 1.403 . S
C823 C824 1.524 . S
C823 C827 1.400 1_455 S
C824 H809 0.960 . S
C824 H810 0.960 . S
C824 H811 0.960 . S
C824 C823 1.524 . S
C825 C822 1.403 1_655 S
C825 C826 1.392 . S
C825 C829 1.495 . S
C826 C825 1.392 . S
C826 C827 1.385 . S
C826 C828 1.478 . S
C827 H821 0.930 . S
C827 C823 1.400 1_655 S
C827 C826 1.385 . S
C828 C826 1.478 . S
C828 C830 1.381 . S
C828 C834 1.383 . S
C829 C825 1.495 . S
C829 H835 0.975 . S
C829 H836 0.961 . S
C829 H837 0.960 . S
C830 C828 1.381 . S
C830 C831 1.394 . S
C830 H838 0.930 . S
C831 C830 1.394 . S
C831 C832 1.383 . S
C831 H839 0.929 . S
C832 C831 1.383 . S
C832 C833 1.377 . S
C833 H817 0.930 . S
C833 C832 1.377 . S
C833 C834 1.379 . S
C834 H818 0.931 . S
C834 C828 1.383 . S
C834 C833 1.379 . S
H835 C829 0.975 . S
H836 C829 0.961 . S
H837 C829 0.960 . S
H838 C830 0.930 . S
H839 C831 0.929 . S
H840 C848 0.929 . S
H841 C850 0.930 . S
H842 C852 0.930 . S
H843 C855 0.929 . S
H844 C858 0.930 . S
H845 C860 0.960 . S
H846 C860 0.960 . S
H847 C860 0.960 . S
C848 H840 0.929 . S
C848 C849 1.377 . S
C848 C850 1.384 . S
C849 C848 1.377 . S
C849 C855 1.390 . S
C850 H841 0.930 . S
C850 C848 1.384 . S
C850 C851 1.372 . S
C851 C850 1.372 . S
C851 C852 1.400 . S
C851 C856 1.490 . S
C852 H842 0.930 . S
C852 C851 1.400 . S
C852 C855 1.386 . S
H853 C869 0.930 . S
H854 C870 0.931 . S
C855 H843 0.929 . S
C855 C849 1.390 . S
C855 C852 1.386 . S
C856 C851 1.490 . S
C856 C858 1.395 . S
C856 C859 1.403 . S
H857 C863 0.930 . S
C858 H844 0.930 . S
C858 C856 1.395 . S
C858 C861 1.403 . S
C859 C856 1.403 . S
C859 C860 1.524 . S
C859 C863 1.400 1_545 S
C860 H845 0.960 . S
C860 H846 0.960 . S
C860 H847 0.960 . S
C860 C859 1.524 . S
C861 C858 1.403 . S
C861 C862 1.392 1_545 S
C861 C865 1.495 1_545 S
C862 C861 1.392 1_565 S
C862 C863 1.385 . S
C862 C864 1.478 . S
C863 H857 0.930 . S
C863 C859 1.400 1_565 S
C863 C862 1.385 . S
C864 C862 1.478 . S
C864 C866 1.381 . S
C864 C870 1.383 . S
C865 C861 1.495 1_565 S
C865 H871 0.959 1_565 S
C865 H872 0.961 . S
C865 H873 0.960 . S
C866 C864 1.381 . S
C866 C867 1.394 . S
C866 H874 0.930 . S
C867 C866 1.394 . S
C867 C868 1.383 . S
C867 H875 0.929 . S
C868 C867 1.383 . S
C868 C869 1.377 . S
C869 H853 0.930 . S
C869 C868 1.377 . S
C869 C870 1.379 . S
C870 H854 0.931 . S
C870 C864 1.383 . S
C870 C869 1.379 . S
H871 C865 0.959 1_545 S
H872 C865 0.961 . S
H873 C865 0.960 . S
H874 C866 0.930 . S
H875 C867 0.929 . S
H876 C884 0.929 . S
H877 C886 0.930 . S
H878 C888 0.930 . S
H879 C891 0.929 . S
H880 C894 0.930 . S
H881 C896 0.960 . S
H882 C896 0.960 . S
H883 C896 0.960 . S
C884 H876 0.929 . S
C884 C885 1.377 . S
C884 C886 1.384 . S
C885 C884 1.377 . S
C885 C891 1.390 . S
C886 H877 0.930 . S
C886 C884 1.384 . S
C886 C887 1.372 . S
C887 C886 1.372 . S
C887 C888 1.400 . S
C887 C892 1.490 . S
C888 H878 0.930 . S
C888 C887 1.400 . S
C888 C891 1.386 . S
H889 C905 0.930 . S
H890 C906 0.931 . S
C891 H879 0.929 . S
C891 C885 1.390 . S
C891 C888 1.386 . S
C892 C887 1.490 . S
C892 C894 1.395 . S
C892 C895 1.403 . S
H893 C899 0.930 . S
C894 H880 0.930 . S
C894 C892 1.395 . S
C894 C897 1.403 . S
C895 C892 1.403 . S
C895 C896 1.524 . S
C895 C899 1.400 . S
C896 H881 0.960 . S
C896 H882 0.960 . S
C896 H883 0.960 . S
C896 C895 1.524 . S
C897 C894 1.403 . S
C897 C898 1.392 . S
C897 C901 1.495 . S
C898 C897 1.392 . S
C898 C899 1.385 . S
C898 C900 1.478 . S
C899 H893 0.930 . S
C899 C895 1.400 . S
C899 C898 1.385 . S
C900 C898 1.478 . S
C900 C902 1.381 . S
C900 C906 1.383 . S
C901 C897 1.495 . S
C901 H907 0.959 . S
C901 H908 0.961 . S
C901 H909 0.960 . S
C902 C900 1.381 . S
C902 C903 1.394 . S
C902 H910 0.930 . S
C903 C902 1.394 . S
C903 C904 1.383 . S
C903 H911 0.929 . S
C904 C903 1.383 . S
C904 C905 1.377 . S
C905 H889 0.930 . S
C905 C904 1.377 . S
C905 C906 1.379 . S
C906 H890 0.931 . S
C906 C900 1.383 . S
C906 C905 1.379 . S
H907 C901 0.959 . S
H908 C901 0.961 . S
H909 C901 0.960 . S
H910 C902 0.930 . S
H911 C903 0.929 . S
H912 C920 0.929 . S
H913 C922 0.930 . S
H914 C924 0.930 . S
H915 C927 0.929 . S
H916 C930 0.930 . S
H917 C932 0.960 . S
H918 C932 0.960 . S
H919 C932 0.960 . S
C920 H912 0.929 . S
C920 C921 1.377 . S
C920 C922 1.384 . S
C921 C920 1.377 . S
C921 C927 1.390 . S
C922 H913 0.930 . S
C922 C920 1.384 . S
C922 C923 1.372 . S
C923 C922 1.372 . S
C923 C924 1.400 . S
C923 C928 1.490 . S
C924 H914 0.930 . S
C924 C923 1.400 . S
C924 C927 1.386 . S
H925 C941 0.930 . S
H926 C942 0.931 . S
C927 H915 0.929 . S
C927 C921 1.390 . S
C927 C924 1.386 . S
C928 C923 1.490 . S
C928 C930 1.395 . S
C928 C931 1.403 . S
H929 C935 0.930 . S
C930 H916 0.930 . S
C930 C928 1.395 . S
C930 C933 1.403 . S
C931 C928 1.403 . S
C931 C932 1.524 . S
C931 C935 1.400 . S
C932 H917 0.960 . S
C932 H918 0.960 . S
C932 H919 0.960 . S
C932 C931 1.524 . S
C933 C930 1.403 . S
C933 C934 1.392 . S
C933 C937 1.495 . S
C934 C933 1.392 . S
C934 C935 1.385 . S
C934 C936 1.478 . S
C935 H929 0.930 . S
C935 C931 1.400 . S
C935 C934 1.385 . S
C936 C934 1.478 . S
C936 C938 1.381 . S
C936 C942 1.383 . S
C937 C933 1.495 . S
C937 H943 0.959 . S
C937 H944 0.961 . S
C937 H945 0.960 . S
C938 C936 1.381 . S
C938 C939 1.394 . S
C938 H946 0.930 . S
C939 C938 1.394 . S
C939 C940 1.383 . S
C939 H947 0.929 . S
C940 C939 1.383 . S
C940 C941 1.377 . S
C941 H925 0.930 . S
C941 C940 1.377 . S
C941 C942 1.379 . S
C942 H926 0.931 . S
C942 C936 1.383 . S
C942 C941 1.379 . S
H943 C937 0.959 . S
H944 C937 0.961 . S
H945 C937 0.960 . S
H946 C938 0.930 . S
H947 C939 0.929 . S
H948 C956 0.929 . S
H949 C958 0.930 . S
H950 C960 0.930 . S
H951 C963 0.929 . S
H952 C966 0.930 . S
H953 C968 0.960 . S
H954 C968 0.960 . S
H955 C968 0.960 . S
C956 H948 0.929 . S
C956 C957 1.377 . S
C956 C958 1.384 . S
C957 C956 1.377 . S
C957 C963 1.390 . S
C958 H949 0.930 . S
C958 C956 1.384 . S
C958 C959 1.372 . S
C959 C958 1.372 . S
C959 C960 1.400 . S
C959 C964 1.490 . S
C960 H950 0.930 . S
C960 C959 1.400 . S
C960 C963 1.386 . S
H961 C977 0.930 . S
H962 C978 0.931 . S
C963 H951 0.929 . S
C963 C957 1.390 . S
C963 C960 1.386 . S
C964 C959 1.490 . S
C964 C966 1.395 . S
C964 C967 1.403 . S
H965 C971 0.930 . S
C966 H952 0.930 . S
C966 C964 1.395 . S
C966 C969 1.403 . S
C967 C964 1.403 . S
C967 C968 1.524 . S
C967 C971 1.400 . S
C968 H953 0.960 . S
C968 H954 0.960 . S
C968 H955 0.960 . S
C968 C967 1.524 . S
C969 C966 1.403 . S
C969 C970 1.392 . S
C969 C973 1.495 . S
C970 C969 1.392 . S
C970 C971 1.385 . S
C970 C972 1.478 . S
C971 H965 0.930 . S
C971 C967 1.400 . S
C971 C970 1.385 . S
C972 C970 1.478 . S
C972 C974 1.381 . S
C972 C978 1.383 . S
C973 C969 1.495 . S
C973 H979 0.959 . S
C973 H980 0.961 . S
C973 H981 0.960 . S
C974 C972 1.381 . S
C974 C975 1.394 . S
C974 H982 0.930 . S
C975 C974 1.394 . S
C975 C976 1.383 . S
C975 H983 0.929 . S
C976 C975 1.383 . S
C976 C977 1.377 . S
C977 H961 0.930 . S
C977 C976 1.377 . S
C977 C978 1.379 . S
C978 H962 0.931 . S
C978 C972 1.383 . S
C978 C977 1.379 . S
H979 C973 0.959 . S
H980 C973 0.961 . S
H981 C973 0.960 . S
H982 C974 0.930 . S
H983 C975 0.929 . S
H984 C992 0.929 . S
H985 C994 0.930 . S
H986 C996 0.930 . S
H987 C999 0.929 . S
H988 C1002 0.930 . S
H989 C1004 0.960 . S
H990 C1004 0.960 . S
H991 C1004 0.960 . S
C992 H984 0.929 . S
C992 C993 1.377 . S
C992 C994 1.384 . S
C993 C992 1.377 . S
C993 C999 1.390 . S
C994 H985 0.930 . S
C994 C992 1.384 . S
C994 C995 1.372 . S
C995 C994 1.372 . S
C995 C996 1.400 . S
C995 C1000 1.490 . S
C996 H986 0.930 . S
C996 C995 1.400 . S
C996 C999 1.386 . S
H997 C1013 0.930 . S
H998 C1014 0.931 . S
C999 H987 0.929 . S
C999 C993 1.390 . S
C999 C996 1.386 . S
C1000 C995 1.490 . S
C1000 C1002 1.395 . S
C1000 C1003 1.403 . S
H1001 C1007 0.930 . S
C1002 H988 0.930 . S
C1002 C1000 1.395 . S
C1002 C1005 1.403 . S
C1003 C1000 1.403 . S
C1003 C1004 1.524 . S
C1003 C1007 1.400 . S
C1004 H989 0.960 . S
C1004 H990 0.960 . S
C1004 H991 0.960 . S
C1004 C1003 1.524 . S
C1005 C1002 1.403 . S
C1005 C1006 1.392 . S
C1005 C1009 1.495 . S
C1006 C1005 1.392 . S
C1006 C1007 1.385 . S
C1006 C1008 1.478 . S
C1007 H1001 0.930 . S
C1007 C1003 1.400 . S
C1007 C1006 1.385 . S
C1008 C1006 1.478 . S
C1008 C1010 1.381 . S
C1008 C1014 1.383 . S
C1009 C1005 1.495 . S
C1009 H1015 0.959 . S
C1009 H1016 0.961 . S
C1009 H1017 0.960 . S
C1010 C1008 1.381 . S
C1010 C1011 1.394 . S
C1010 H1018 0.930 . S
C1011 C1010 1.394 . S
C1011 C1012 1.383 . S
C1011 H1019 0.929 . S
C1012 C1011 1.383 . S
C1012 C1013 1.377 . S
C1013 H997 0.930 . S
C1013 C1012 1.377 . S
C1013 C1014 1.379 . S
C1014 H998 0.931 . S
C1014 C1008 1.383 . S
C1014 C1013 1.379 . S
H1015 C1009 0.959 . S
H1016 C1009 0.961 . S
H1017 C1009 0.960 . S
H1018 C1010 0.930 . S
H1019 C1011 0.929 . S
H1020 C1028 0.929 . S
H1021 C1030 0.930 . S
H1022 C1032 0.930 . S
H1023 C1035 0.929 . S
H1024 C1038 0.930 . S
H1025 C1040 0.960 . S
H1026 C1040 0.960 . S
H1027 C1040 0.960 . S
C1028 H1020 0.929 . S
C1028 C1029 1.377 . S
C1028 C1030 1.384 . S
C1029 C1028 1.377 . S
C1029 C1035 1.390 . S
C1030 H1021 0.930 . S
C1030 C1028 1.384 . S
C1030 C1031 1.372 . S
C1031 C1030 1.372 . S
C1031 C1032 1.400 . S
C1031 C1036 1.490 . S
C1032 H1022 0.930 . S
C1032 C1031 1.400 . S
C1032 C1035 1.386 . S
H1033 C1049 0.930 . S
H1034 C1050 0.931 . S
C1035 H1023 0.929 . S
C1035 C1029 1.390 . S
C1035 C1032 1.386 . S
C1036 C1031 1.490 . S
C1036 C1038 1.395 . S
C1036 C1039 1.403 . S
H1037 C1043 0.930 . S
C1038 H1024 0.930 . S
C1038 C1036 1.395 . S
C1038 C1041 1.403 . S
C1039 C1036 1.403 . S
C1039 C1040 1.524 . S
C1039 C1043 1.400 . S
C1040 H1025 0.960 . S
C1040 H1026 0.960 . S
C1040 H1027 0.960 . S
C1040 C1039 1.524 . S
C1041 C1038 1.403 . S
C1041 C1042 1.392 . S
C1041 C1045 1.495 . S
C1042 C1041 1.392 . S
C1042 C1043 1.385 . S
C1042 C1044 1.478 . S
C1043 H1037 0.930 . S
C1043 C1039 1.400 . S
C1043 C1042 1.385 . S
C1044 C1042 1.478 . S
C1044 C1046 1.381 . S
C1044 C1050 1.383 . S
C1045 C1041 1.495 . S
C1045 H1051 0.959 . S
C1045 H1052 0.961 . S
C1045 H1053 0.960 . S
C1046 C1044 1.381 . S
C1046 C1047 1.394 . S
C1046 H1054 0.930 . S
C1047 C1046 1.394 . S
C1047 C1048 1.383 . S
C1047 H1055 0.929 . S
C1048 C1047 1.383 . S
C1048 C1049 1.377 . S
C1049 H1033 0.930 . S
C1049 C1048 1.377 . S
C1049 C1050 1.379 . S
C1050 H1034 0.931 . S
C1050 C1044 1.383 . S
C1050 C1049 1.379 . S
H1051 C1045 0.959 . S
H1052 C1045 0.961 . S
H1053 C1045 0.960 . S
H1054 C1046 0.930 . S
H1055 C1047 0.929 . S
H1056 C1064 0.929 . S
H1057 C1066 0.930 . S
H1058 C1068 0.930 . S
H1059 C1071 0.929 . S
H1060 C1074 0.930 . S
H1061 C1076 0.960 . S
H1062 C1076 0.960 . S
H1063 C1076 0.960 . S
C1064 H1056 0.929 . S
C1064 C1065 1.377 . S
C1064 C1066 1.384 . S
C1065 C1064 1.377 . S
C1065 C1071 1.390 . S
C1066 H1057 0.930 . S
C1066 C1064 1.384 . S
C1066 C1067 1.372 . S
C1067 C1066 1.372 . S
C1067 C1068 1.400 . S
C1067 C1072 1.490 . S
C1068 H1058 0.930 . S
C1068 C1067 1.400 . S
C1068 C1071 1.386 . S
H1069 C1085 0.930 . S
H1070 C1086 0.931 . S
C1071 H1059 0.929 . S
C1071 C1065 1.390 . S
C1071 C1068 1.386 . S
C1072 C1067 1.490 . S
C1072 C1074 1.395 . S
C1072 C1075 1.403 . S
H1073 C1079 0.930 . S
C1074 H1060 0.930 . S
C1074 C1072 1.395 . S
C1074 C1077 1.403 . S
C1075 C1072 1.403 . S
C1075 C1076 1.524 . S
C1075 C1079 1.400 . S
C1076 H1061 0.960 . S
C1076 H1062 0.960 . S
C1076 H1063 0.960 . S
C1076 C1075 1.524 . S
C1077 C1074 1.403 . S
C1077 C1078 1.392 . S
C1077 C1081 1.495 . S
C1078 C1077 1.392 . S
C1078 C1079 1.385 . S
C1078 C1080 1.478 . S
C1079 H1073 0.930 . S
C1079 C1075 1.400 . S
C1079 C1078 1.385 . S
C1080 C1078 1.478 . S
C1080 C1082 1.381 . S
C1080 C1086 1.383 . S
C1081 C1077 1.495 . S
C1081 H1087 0.959 . S
C1081 H1088 0.961 . S
C1081 H1089 0.960 . S
C1082 C1080 1.381 . S
C1082 C1083 1.394 . S
C1082 H1090 0.930 . S
C1083 C1082 1.394 . S
C1083 C1084 1.383 . S
C1083 H1091 0.929 . S
C1084 C1083 1.383 . S
C1084 C1085 1.377 . S
C1085 H1069 0.930 . S
C1085 C1084 1.377 . S
C1085 C1086 1.379 . S
C1086 H1070 0.931 . S
C1086 C1080 1.383 . S
C1086 C1085 1.379 . S
H1087 C1081 0.959 . S
H1088 C1081 0.961 . S
H1089 C1081 0.960 . S
H1090 C1082 0.930 . S
H1091 C1083 0.929 . S
H1092 C1100 0.929 . S
H1093 C1102 0.930 . S
H1094 C1104 0.930 . S
H1095 C1107 0.929 . S
H1096 C1110 0.930 . S
H1097 C1112 0.960 . S
H1098 C1112 0.960 . S
H1099 C1112 0.960 . S
C1100 H1092 0.929 . S
C1100 C1101 1.377 . S
C1100 C1102 1.384 . S
C1101 C1100 1.377 . S
C1101 C1107 1.390 . S
C1102 H1093 0.930 . S
C1102 C1100 1.384 . S
C1102 C1103 1.372 . S
C1103 C1102 1.372 . S
C1103 C1104 1.400 . S
C1103 C1108 1.490 . S
C1104 H1094 0.930 . S
C1104 C1103 1.400 . S
C1104 C1107 1.386 . S
H1105 C1121 0.930 . S
H1106 C1122 0.931 . S
C1107 H1095 0.929 . S
C1107 C1101 1.390 . S
C1107 C1104 1.386 . S
C1108 C1103 1.490 . S
C1108 C1110 1.395 . S
C1108 C1111 1.403 . S
H1109 C1115 0.930 . S
C1110 H1096 0.930 . S
C1110 C1108 1.395 . S
C1110 C1113 1.403 . S
C1111 C1108 1.403 . S
C1111 C1112 1.524 . S
C1111 C1115 1.400 . S
C1112 H1097 0.960 . S
C1112 H1098 0.960 . S
C1112 H1099 0.960 . S
C1112 C1111 1.524 . S
C1113 C1110 1.403 . S
C1113 C1114 1.392 . S
C1113 C1117 1.495 . S
C1114 C1113 1.392 . S
C1114 C1115 1.385 . S
C1114 C1116 1.478 . S
C1115 H1109 0.930 . S
C1115 C1111 1.400 . S
C1115 C1114 1.385 . S
C1116 C1114 1.478 . S
C1116 C1118 1.381 . S
C1116 C1122 1.383 . S
C1117 C1113 1.495 . S
C1117 H1123 0.959 . S
C1117 H1124 0.961 . S
C1117 H1125 0.960 . S
C1118 C1116 1.381 . S
C1118 C1119 1.394 . S
C1118 H1126 0.930 . S
C1119 C1118 1.394 . S
C1119 C1120 1.383 . S
C1119 H1127 0.929 . S
C1120 C1119 1.383 . S
C1120 C1121 1.377 . S
C1121 H1105 0.930 . S
C1121 C1120 1.377 . S
C1121 C1122 1.379 . S
C1122 H1106 0.931 . S
C1122 C1116 1.383 . S
C1122 C1121 1.379 . S
H1123 C1117 0.959 . S
H1124 C1117 0.961 . S
H1125 C1117 0.960 . S
H1126 C1118 0.930 . S
H1127 C1119 0.929 . S
H1128 C1136 0.929 . S
H1129 C1138 0.930 . S
H1130 C1140 0.930 . S
H1131 C1143 0.929 . S
H1132 C1146 0.930 . S
H1133 C1148 0.960 . S
H1134 C1148 0.960 . S
H1135 C1148 0.960 . S
C1136 H1128 0.929 . S
C1136 C1137 1.377 . S
C1136 C1138 1.384 . S
C1137 C1136 1.377 . S
C1137 C1143 1.390 . S
C1138 H1129 0.930 . S
C1138 C1136 1.384 . S
C1138 C1139 1.372 . S
C1139 C1138 1.372 . S
C1139 C1140 1.400 . S
C1139 C1144 1.490 . S
C1140 H1130 0.930 . S
C1140 C1139 1.400 . S
C1140 C1143 1.386 . S
H1141 C1157 0.930 . S
H1142 C1158 0.931 . S
C1143 H1131 0.929 . S
C1143 C1137 1.390 . S
C1143 C1140 1.386 . S
C1144 C1139 1.490 . S
C1144 C1146 1.395 . S
C1144 C1147 1.403 . S
H1145 C1151 0.930 . S
C1146 H1132 0.930 . S
C1146 C1144 1.395 . S
C1146 C1149 1.403 . S
C1147 C1144 1.403 . S
C1147 C1148 1.524 . S
C1147 C1151 1.400 . S
C1148 H1133 0.960 . S
C1148 H1134 0.960 . S
C1148 H1135 0.960 . S
C1148 C1147 1.524 . S
C1149 C1146 1.403 . S
C1149 C1150 1.392 . S
C1149 C1153 1.495 . S
C1150 C1149 1.392 . S
C1150 C1151 1.385 . S
C1150 C1152 1.478 . S
C1151 H1145 0.930 . S
C1151 C1147 1.400 . S
C1151 C1150 1.385 . S
C1152 C1150 1.478 . S
C1152 C1154 1.381 . S
C1152 C1158 1.383 . S
C1153 C1149 1.495 . S
C1153 H1159 0.959 . S
C1153 H1160 0.961 . S
C1153 H1161 0.960 . S
C1154 C1152 1.381 . S
C1154 C1155 1.394 . S
C1154 H1162 0.930 . S
C1155 C1154 1.394 . S
C1155 C1156 1.383 . S
C1155 H1163 0.929 . S
C1156 C1155 1.383 . S
C1156 C1157 1.377 . S
C1157 H1141 0.930 . S
C1157 C1156 1.377 . S
C1157 C1158 1.379 . S
C1158 H1142 0.931 . S
C1158 C1152 1.383 . S
C1158 C1157 1.379 . S
H1159 C1153 0.959 . S
H1160 C1153 0.961 . S
H1161 C1153 0.960 . S
H1162 C1154 0.930 . S
H1163 C1155 0.929 . S
H1164 C1172 0.929 . S
H1165 C1174 0.930 . S
H1166 C1176 0.930 . S
H1167 C1179 0.929 . S
H1168 C1182 0.930 . S
H1169 C1184 0.960 . S
H1170 C1184 0.960 . S
H1171 C1184 0.960 . S
C1172 H1164 0.929 . S
C1172 C1173 1.377 . S
C1172 C1174 1.384 . S
C1173 C1172 1.377 . S
C1173 C1179 1.390 . S
C1174 H1165 0.930 . S
C1174 C1172 1.384 . S
C1174 C1175 1.372 . S
C1175 C1174 1.372 . S
C1175 C1176 1.400 . S
C1175 C1180 1.490 . S
C1176 H1166 0.930 . S
C1176 C1175 1.400 . S
C1176 C1179 1.386 . S
H1177 C1193 0.930 . S
H1178 C1194 0.931 . S
C1179 H1167 0.929 . S
C1179 C1173 1.390 . S
C1179 C1176 1.386 . S
C1180 C1175 1.490 . S
C1180 C1182 1.395 . S
C1180 C1183 1.403 . S
H1181 C1187 0.930 . S
C1182 H1168 0.930 . S
C1182 C1180 1.395 . S
C1182 C1185 1.403 . S
C1183 C1180 1.403 . S
C1183 C1184 1.524 . S
C1183 C1187 1.400 . S
C1184 H1169 0.960 . S
C1184 H1170 0.960 . S
C1184 H1171 0.960 . S
C1184 C1183 1.524 . S
C1185 C1182 1.403 . S
C1185 C1186 1.392 . S
C1185 C1189 1.495 . S
C1186 C1185 1.392 . S
C1186 C1187 1.385 . S
C1186 C1188 1.478 . S
C1187 H1181 0.930 . S
C1187 C1183 1.400 . S
C1187 C1186 1.385 . S
C1188 C1186 1.478 . S
C1188 C1190 1.381 . S
C1188 C1194 1.383 . S
C1189 C1185 1.495 . S
C1189 H1195 0.959 . S
C1189 H1196 0.961 . S
C1189 H1197 0.960 . S
C1190 C1188 1.381 . S
C1190 C1191 1.394 . S
C1190 H1198 0.930 . S
C1191 C1190 1.394 . S
C1191 C1192 1.383 . S
C1191 H1199 0.929 . S
C1192 C1191 1.383 . S
C1192 C1193 1.377 . S
C1193 H1177 0.930 . S
C1193 C1192 1.377 . S
C1193 C1194 1.379 . S
C1194 H1178 0.931 . S
C1194 C1188 1.383 . S
C1194 C1193 1.379 . S
H1195 C1189 0.959 . S
H1196 C1189 0.961 . S
H1197 C1189 0.960 . S
H1198 C1190 0.930 . S
H1199 C1191 0.929 . S
H1200 C1208 0.929 . S
H1201 C1210 0.930 . S
H1202 C1212 0.930 . S
H1203 C1215 0.929 . S
H1204 C1218 0.930 . S
H1205 C1220 0.960 . S
H1206 C1220 0.960 . S
H1207 C1220 0.960 . S
C1208 H1200 0.929 . S
C1208 C1209 1.377 . S
C1208 C1210 1.384 . S
C1209 C1208 1.377 . S
C1209 C1215 1.390 . S
C1210 H1201 0.930 . S
C1210 C1208 1.384 . S
C1210 C1211 1.372 . S
C1211 C1210 1.372 . S
C1211 C1212 1.400 . S
C1211 C1216 1.490 . S
C1212 H1202 0.930 . S
C1212 C1211 1.400 . S
C1212 C1215 1.386 . S
H1213 C1229 0.930 . S
H1214 C1230 0.931 . S
C1215 H1203 0.929 . S
C1215 C1209 1.390 . S
C1215 C1212 1.386 . S
C1216 C1211 1.490 . S
C1216 C1218 1.395 . S
C1216 C1219 1.403 . S
H1217 C1223 0.930 . S
C1218 H1204 0.930 . S
C1218 C1216 1.395 . S
C1218 C1221 1.403 . S
C1219 C1216 1.403 . S
C1219 C1220 1.524 . S
C1219 C1223 1.400 . S
C1220 H1205 0.960 . S
C1220 H1206 0.960 . S
C1220 H1207 0.960 . S
C1220 C1219 1.524 . S
C1221 C1218 1.403 . S
C1221 C1222 1.392 . S
C1221 C1225 1.495 . S
C1222 C1221 1.392 . S
C1222 C1223 1.385 . S
C1222 C1224 1.478 . S
C1223 H1217 0.930 . S
C1223 C1219 1.400 . S
C1223 C1222 1.385 . S
C1224 C1222 1.478 . S
C1224 C1226 1.381 . S
C1224 C1230 1.383 . S
C1225 C1221 1.495 . S
C1225 H1231 0.959 . S
C1225 H1232 0.961 . S
C1225 H1233 0.960 . S
C1226 C1224 1.381 . S
C1226 C1227 1.394 . S
C1226 H1234 0.930 . S
C1227 C1226 1.394 . S
C1227 C1228 1.383 . S
C1227 H1235 0.929 . S
C1228 C1227 1.383 . S
C1228 C1229 1.377 . S
C1229 H1213 0.930 . S
C1229 C1228 1.377 . S
C1229 C1230 1.379 . S
C1230 H1214 0.931 . S
C1230 C1224 1.383 . S
C1230 C1229 1.379 . S
H1231 C1225 0.959 . S
H1232 C1225 0.961 . S
H1233 C1225 0.960 . S
H1234 C1226 0.930 . S
H1235 C1227 0.929 . S
H1236 C1244 0.929 . S
H1237 C1246 0.930 . S
H1238 C1248 0.930 . S
H1239 C1251 0.929 . S
H1240 C1254 0.930 . S
H1241 C1256 0.960 . S
H1242 C1256 0.960 . S
H1243 C1256 0.960 . S
C1244 H1236 0.929 . S
C1244 C1245 1.377 . S
C1244 C1246 1.384 . S
C1245 C1244 1.377 . S
C1245 C1251 1.390 . S
C1246 H1237 0.930 . S
C1246 C1244 1.384 . S
C1246 C1247 1.372 . S
C1247 C1246 1.372 . S
C1247 C1248 1.400 . S
C1247 C1252 1.490 . S
C1248 H1238 0.930 . S
C1248 C1247 1.400 . S
C1248 C1251 1.386 . S
H1249 C1265 0.930 . S
H1250 C1266 0.931 . S
C1251 H1239 0.929 . S
C1251 C1245 1.390 . S
C1251 C1248 1.386 . S
C1252 C1247 1.490 . S
C1252 C1254 1.395 . S
C1252 C1255 1.403 . S
H1253 C1259 0.930 . S
C1254 H1240 0.930 . S
C1254 C1252 1.395 . S
C1254 C1257 1.403 . S
C1255 C1252 1.403 . S
C1255 C1256 1.524 . S
C1255 C1259 1.400 . S
C1256 H1241 0.960 . S
C1256 H1242 0.960 . S
C1256 H1243 0.960 . S
C1256 C1255 1.524 . S
C1257 C1254 1.403 . S
C1257 C1258 1.392 . S
C1257 C1261 1.495 . S
C1258 C1257 1.392 . S
C1258 C1259 1.385 . S
C1258 C1260 1.478 . S
C1259 H1253 0.930 . S
C1259 C1255 1.400 . S
C1259 C1258 1.385 . S
C1260 C1258 1.478 . S
C1260 C1262 1.381 . S
C1260 C1266 1.383 . S
C1261 C1257 1.495 . S
C1261 H1267 0.959 . S
C1261 H1268 0.961 . S
C1261 H1269 0.960 . S
C1262 C1260 1.381 . S
C1262 C1263 1.394 . S
C1262 H1270 0.930 . S
C1263 C1262 1.394 . S
C1263 C1264 1.383 . S
C1263 H1271 0.929 . S
C1264 C1263 1.383 . S
C1264 C1265 1.377 . S
C1265 H1249 0.930 . S
C1265 C1264 1.377 . S
C1265 C1266 1.379 . S
C1266 H1250 0.931 . S
C1266 C1260 1.383 . S
C1266 C1265 1.379 . S
H1267 C1261 0.959 . S
H1268 C1261 0.961 . S
H1269 C1261 0.960 . S
H1270 C1262 0.930 . S
H1271 C1263 0.929 . S
H1272 C1280 0.929 . S
H1273 C1282 0.930 . S
H1274 C1284 0.930 . S
H1275 C1287 0.929 . S
H1276 C1290 0.930 . S
H1277 C1292 0.960 . S
H1278 C1292 0.960 . S
H1279 C1292 0.960 . S
C1280 H1272 0.929 . S
C1280 C1281 1.377 . S
C1280 C1282 1.384 . S
C1281 C1280 1.377 . S
C1281 C1287 1.390 . S
C1282 H1273 0.930 . S
C1282 C1280 1.384 . S
C1282 C1283 1.372 . S
C1283 C1282 1.372 . S
C1283 C1284 1.400 . S
C1283 C1288 1.490 . S
C1284 H1274 0.930 . S
C1284 C1283 1.400 . S
C1284 C1287 1.386 . S
H1285 C1301 0.930 . S
H1286 C1302 0.931 . S
C1287 H1275 0.929 . S
C1287 C1281 1.390 . S
C1287 C1284 1.386 . S
C1288 C1283 1.490 . S
C1288 C1290 1.395 . S
C1288 C1291 1.403 . S
H1289 C1295 0.930 . S
C1290 H1276 0.930 . S
C1290 C1288 1.395 . S
C1290 C1293 1.403 . S
C1291 C1288 1.403 . S
C1291 C1292 1.524 . S
C1291 C1295 1.400 . S
C1292 H1277 0.960 . S
C1292 H1278 0.960 . S
C1292 H1279 0.960 . S
C1292 C1291 1.524 . S
C1293 C1290 1.403 . S
C1293 C1294 1.392 . S
C1293 C1297 1.495 . S
C1294 C1293 1.392 . S
C1294 C1295 1.385 . S
C1294 C1296 1.478 . S
C1295 H1289 0.930 . S
C1295 C1291 1.400 . S
C1295 C1294 1.385 . S
C1296 C1294 1.478 . S
C1296 C1298 1.381 . S
C1296 C1302 1.383 . S
C1297 C1293 1.495 . S
C1297 H1303 0.959 . S
C1297 H1304 0.961 . S
C1297 H1305 0.960 . S
C1298 C1296 1.381 . S
C1298 C1299 1.394 . S
C1298 H1306 0.930 . S
C1299 C1298 1.394 . S
C1299 C1300 1.383 . S
C1299 H1307 0.929 . S
C1300 C1299 1.383 . S
C1300 C1301 1.377 . S
C1301 H1285 0.930 . S
C1301 C1300 1.377 . S
C1301 C1302 1.379 . S
C1302 H1286 0.931 . S
C1302 C1296 1.383 . S
C1302 C1301 1.379 . S
H1303 C1297 0.959 . S
H1304 C1297 0.961 . S
H1305 C1297 0.960 . S
H1306 C1298 0.930 . S
H1307 C1299 0.929 . S
H1308 C1316 0.929 . S
H1309 C1318 0.930 . S
H1310 C1320 0.930 . S
H1311 C1323 0.929 . S
H1312 C1326 0.930 . S
H1313 C1328 0.960 . S
H1314 C1328 0.960 . S
H1315 C1328 0.960 . S
C1316 H1308 0.929 . S
C1316 C1317 1.377 . S
C1316 C1318 1.384 . S
C1317 C1316 1.377 . S
C1317 C1323 1.390 . S
C1318 H1309 0.930 . S
C1318 C1316 1.384 . S
C1318 C1319 1.372 . S
C1319 C1318 1.372 . S
C1319 C1320 1.400 . S
C1319 C1324 1.490 . S
C1320 H1310 0.930 . S
C1320 C1319 1.400 . S
C1320 C1323 1.386 . S
H1321 C1337 0.930 . S
H1322 C1338 0.931 . S
C1323 H1311 0.929 . S
C1323 C1317 1.390 . S
C1323 C1320 1.386 . S
C1324 C1319 1.490 . S
C1324 C1326 1.395 . S
C1324 C1327 1.403 . S
H1325 C1331 0.930 . S
C1326 H1312 0.930 . S
C1326 C1324 1.395 . S
C1326 C1329 1.403 . S
C1327 C1324 1.403 . S
C1327 C1328 1.524 . S
C1327 C1331 1.400 . S
C1328 H1313 0.960 . S
C1328 H1314 0.960 . S
C1328 H1315 0.960 . S
C1328 C1327 1.524 . S
C1329 C1326 1.403 . S
C1329 C1330 1.392 . S
C1329 C1333 1.495 . S
C1330 C1329 1.392 . S
C1330 C1331 1.385 . S
C1330 C1332 1.478 . S
C1331 H1325 0.930 . S
C1331 C1327 1.400 . S
C1331 C1330 1.385 . S
C1332 C1330 1.478 . S
C1332 C1334 1.381 . S
C1332 C1338 1.383 . S
C1333 C1329 1.495 . S
C1333 H1339 0.959 . S
C1333 H1340 0.961 . S
C1333 H1341 0.960 . S
C1334 C1332 1.381 . S
C1334 C1335 1.394 . S
C1334 H1342 0.930 . S
C1335 C1334 1.394 . S
C1335 C1336 1.383 . S
C1335 H1343 0.929 . S
C1336 C1335 1.383 . S
C1336 C1337 1.377 . S
C1337 H1321 0.930 . S
C1337 C1336 1.377 . S
C1337 C1338 1.379 . S
C1338 H1322 0.931 . S
C1338 C1332 1.383 . S
C1338 C1337 1.379 . S
H1339 C1333 0.959 . S
H1340 C1333 0.961 . S
H1341 C1333 0.960 . S
H1342 C1334 0.930 . S
H1343 C1335 0.929 . S
H1344 C1352 0.929 . S
H1345 C1354 0.930 . S
H1346 C1356 0.930 . S
H1347 C1359 0.929 . S
H1348 C1362 0.930 . S
H1349 C1364 0.960 . S
H1350 C1364 0.960 . S
H1351 C1364 0.960 . S
C1352 H1344 0.929 . S
C1352 C1353 1.377 . S
C1352 C1354 1.384 . S
C1353 C1352 1.377 . S
C1353 C1359 1.390 . S
C1354 H1345 0.930 . S
C1354 C1352 1.384 . S
C1354 C1355 1.372 . S
C1355 C1354 1.372 . S
C1355 C1356 1.400 . S
C1355 C1360 1.490 . S
C1356 H1346 0.930 . S
C1356 C1355 1.400 . S
C1356 C1359 1.386 . S
H1357 C1373 0.930 . S
H1358 C1374 0.931 . S
C1359 H1347 0.929 . S
C1359 C1353 1.390 . S
C1359 C1356 1.386 . S
C1360 C1355 1.490 . S
C1360 C1362 1.395 . S
C1360 C1363 1.403 . S
H1361 C1367 0.930 . S
C1362 H1348 0.930 . S
C1362 C1360 1.395 . S
C1362 C1365 1.403 . S
C1363 C1360 1.403 . S
C1363 C1364 1.524 . S
C1363 C1367 1.400 . S
C1364 H1349 0.960 . S
C1364 H1350 0.960 . S
C1364 H1351 0.960 . S
C1364 C1363 1.524 . S
C1365 C1362 1.403 . S
C1365 C1366 1.392 . S
C1365 C1369 1.495 . S
C1366 C1365 1.392 . S
C1366 C1367 1.385 . S
C1366 C1368 1.478 . S
C1367 H1361 0.930 . S
C1367 C1363 1.400 . S
C1367 C1366 1.385 . S
C1368 C1366 1.478 . S
C1368 C1370 1.381 . S
C1368 C1374 1.383 . S
C1369 C1365 1.495 . S
C1369 H1375 0.959 . S
C1369 H1376 0.961 . S
C1369 H1377 0.960 . S
C1370 C1368 1.381 . S
C1370 C1371 1.394 . S
C1370 H1378 0.930 . S
C1371 C1370 1.394 . S
C1371 C1372 1.383 . S
C1371 H1379 0.929 . S
C1372 C1371 1.383 . S
C1372 C1373 1.377 . S
C1373 H1357 0.930 . S
C1373 C1372 1.377 . S
C1373 C1374 1.379 . S
C1374 H1358 0.931 . S
C1374 C1368 1.383 . S
C1374 C1373 1.379 . S
H1375 C1369 0.959 . S
H1376 C1369 0.961 . S
H1377 C1369 0.960 . S
H1378 C1370 0.930 . S
H1379 C1371 0.929 . S
H1380 C1388 0.929 . S
H1381 C1390 0.930 . S
H1382 C1392 0.930 . S
H1383 C1395 0.929 . S
H1384 C1398 0.930 . S
H1385 C1400 0.960 . S
H1386 C1400 0.960 . S
H1387 C1400 0.960 . S
C1388 H1380 0.929 . S
C1388 C1389 1.377 . S
C1388 C1390 1.384 . S
C1389 C1388 1.377 . S
C1389 C1395 1.390 . S
C1390 H1381 0.930 . S
C1390 C1388 1.384 . S
C1390 C1391 1.372 . S
C1391 C1390 1.372 . S
C1391 C1392 1.400 . S
C1391 C1396 1.490 . S
C1392 H1382 0.930 . S
C1392 C1391 1.400 . S
C1392 C1395 1.386 . S
H1393 C1409 0.930 . S
H1394 C1410 0.931 . S
C1395 H1383 0.929 . S
C1395 C1389 1.390 . S
C1395 C1392 1.386 . S
C1396 C1391 1.490 . S
C1396 C1398 1.395 . S
C1396 C1399 1.403 . S
H1397 C1403 0.930 . S
C1398 H1384 0.930 . S
C1398 C1396 1.395 . S
C1398 C1401 1.403 . S
C1399 C1396 1.403 . S
C1399 C1400 1.524 . S
C1399 C1403 1.400 . S
C1400 H1385 0.960 . S
C1400 H1386 0.960 . S
C1400 H1387 0.960 . S
C1400 C1399 1.524 . S
C1401 C1398 1.403 . S
C1401 C1402 1.392 . S
C1401 C1405 1.495 . S
C1402 C1401 1.392 . S
C1402 C1403 1.385 . S
C1402 C1404 1.478 . S
C1403 H1397 0.930 . S
C1403 C1399 1.400 . S
C1403 C1402 1.385 . S
C1404 C1402 1.478 . S
C1404 C1406 1.381 . S
C1404 C1410 1.383 . S
C1405 C1401 1.495 . S
C1405 H1411 0.959 . S
C1405 H1412 0.961 . S
C1405 H1413 0.960 . S
C1406 C1404 1.381 . S
C1406 C1407 1.394 . S
C1406 H1414 0.930 . S
C1407 C1406 1.394 . S
C1407 C1408 1.383 . S
C1407 H1415 0.929 . S
C1408 C1407 1.383 . S
C1408 C1409 1.377 . S
C1409 H1393 0.930 . S
C1409 C1408 1.377 . S
C1409 C1410 1.379 . S
C1410 H1394 0.931 . S
C1410 C1404 1.383 . S
C1410 C1409 1.379 . S
H1411 C1405 0.959 . S
H1412 C1405 0.961 . S
H1413 C1405 0.960 . S
H1414 C1406 0.930 . S
H1415 C1407 0.929 . S
H1416 C1424 0.929 . S
H1417 C1426 0.930 . S
H1418 C1428 0.930 . S
H1419 C1431 0.929 . S
H1420 C1434 0.930 . S
H1421 C1436 0.960 . S
H1422 C1436 0.960 . S
H1423 C1436 0.960 . S
C1424 H1416 0.929 . S
C1424 C1425 1.377 . S
C1424 C1426 1.384 . S
C1425 C1424 1.377 . S
C1425 C1431 1.390 . S
C1426 H1417 0.930 . S
C1426 C1424 1.384 . S
C1426 C1427 1.372 . S
C1427 C1426 1.372 . S
C1427 C1428 1.400 . S
C1427 C1432 1.490 . S
C1428 H1418 0.930 . S
C1428 C1427 1.400 . S
C1428 C1431 1.386 . S
H1429 C1445 0.930 . S
H1430 C1446 0.931 . S
C1431 H1419 0.929 . S
C1431 C1425 1.390 . S
C1431 C1428 1.386 . S
C1432 C1427 1.490 . S
C1432 C1434 1.395 . S
C1432 C1435 1.403 . S
H1433 C1439 0.930 . S
C1434 H1420 0.930 . S
C1434 C1432 1.395 . S
C1434 C1437 1.403 . S
C1435 C1432 1.403 . S
C1435 C1436 1.524 . S
C1435 C1439 1.400 . S
C1436 H1421 0.960 . S
C1436 H1422 0.960 . S
C1436 H1423 0.960 . S
C1436 C1435 1.524 . S
C1437 C1434 1.403 . S
C1437 C1438 1.392 . S
C1437 C1441 1.495 . S
C1438 C1437 1.392 . S
C1438 C1439 1.385 . S
C1438 C1440 1.478 . S
C1439 H1433 0.930 . S
C1439 C1435 1.400 . S
C1439 C1438 1.385 . S
C1440 C1438 1.478 . S
C1440 C1442 1.381 . S
C1440 C1446 1.383 . S
C1441 C1437 1.495 . S
C1441 H1447 0.959 . S
C1441 H1448 0.961 . S
C1441 H1449 0.960 . S
C1442 C1440 1.381 . S
C1442 C1443 1.394 . S
C1442 H1450 0.930 . S
C1443 C1442 1.394 . S
C1443 C1444 1.383 . S
C1443 H1451 0.929 . S
C1444 C1443 1.383 . S
C1444 C1445 1.377 . S
C1445 H1429 0.930 . S
C1445 C1444 1.377 . S
C1445 C1446 1.379 . S
C1446 H1430 0.931 . S
C1446 C1440 1.383 . S
C1446 C1445 1.379 . S
H1447 C1441 0.959 . S
H1448 C1441 0.961 . S
H1449 C1441 0.960 . S
H1450 C1442 0.930 . S
H1451 C1443 0.929 . S
H1452 C1460 0.929 . S
H1453 C1462 0.930 . S
H1454 C1464 0.930 . S
H1455 C1467 0.929 . S
H1456 C1470 0.930 . S
H1457 C1472 0.960 . S
H1458 C1472 0.960 . S
H1459 C1472 0.960 . S
C1460 H1452 0.929 . S
C1460 C1461 1.377 . S
C1460 C1462 1.384 . S
C1461 C1460 1.377 . S
C1461 C1467 1.390 . S
C1462 H1453 0.930 . S
C1462 C1460 1.384 . S
C1462 C1463 1.372 . S
C1463 C1462 1.372 . S
C1463 C1464 1.400 . S
C1463 C1468 1.490 . S
C1464 H1454 0.930 . S
C1464 C1463 1.400 . S
C1464 C1467 1.386 . S
H1465 C1481 0.930 . S
H1466 C1482 0.931 . S
C1467 H1455 0.929 . S
C1467 C1461 1.390 . S
C1467 C1464 1.386 . S
C1468 C1463 1.490 . S
C1468 C1470 1.395 . S
C1468 C1471 1.403 . S
H1469 C1475 0.930 . S
C1470 H1456 0.930 . S
C1470 C1468 1.395 . S
C1470 C1473 1.403 . S
C1471 C1468 1.403 . S
C1471 C1472 1.524 . S
C1471 C1475 1.400 . S
C1472 H1457 0.960 . S
C1472 H1458 0.960 . S
C1472 H1459 0.960 . S
C1472 C1471 1.524 . S
C1473 C1470 1.403 . S
C1473 C1474 1.392 . S
C1473 C1477 1.495 . S
C1474 C1473 1.392 . S
C1474 C1475 1.385 . S
C1474 C1476 1.478 . S
C1475 H1469 0.930 . S
C1475 C1471 1.400 . S
C1475 C1474 1.385 . S
C1476 C1474 1.478 . S
C1476 C1478 1.381 . S
C1476 C1482 1.383 . S
C1477 C1473 1.495 . S
C1477 H1483 0.959 . S
C1477 H1484 0.961 . S
C1477 H1485 0.960 . S
C1478 C1476 1.381 . S
C1478 C1479 1.394 . S
C1478 H1486 0.930 . S
C1479 C1478 1.394 . S
C1479 C1480 1.383 . S
C1479 H1487 0.929 . S
C1480 C1479 1.383 . S
C1480 C1481 1.377 . S
C1481 H1465 0.930 . S
C1481 C1480 1.377 . S
C1481 C1482 1.379 . S
C1482 H1466 0.931 . S
C1482 C1476 1.383 . S
C1482 C1481 1.379 . S
H1483 C1477 0.959 . S
H1484 C1477 0.961 . S
H1485 C1477 0.960 . S
H1486 C1478 0.930 . S
H1487 C1479 0.929 . S
H1488 C1496 0.929 . S
H1489 C1498 0.930 . S
H1490 C1500 0.930 . S
H1491 C1503 0.929 . S
H1492 C1506 0.930 . S
H1493 C1508 0.960 . S
H1494 C1508 0.960 . S
H1495 C1508 0.960 . S
C1496 H1488 0.929 . S
C1496 C1497 1.377 . S
C1496 C1498 1.384 . S
C1497 C1496 1.377 . S
C1497 C1503 1.390 . S
C1498 H1489 0.930 . S
C1498 C1496 1.384 . S
C1498 C1499 1.372 . S
C1499 C1498 1.372 . S
C1499 C1500 1.400 . S
C1499 C1504 1.490 . S
C1500 H1490 0.930 . S
C1500 C1499 1.400 . S
C1500 C1503 1.386 . S
H1501 C1517 0.930 . S
H1502 C1518 0.931 . S
C1503 H1491 0.929 . S
C1503 C1497 1.390 . S
C1503 C1500 1.386 . S
C1504 C1499 1.490 . S
C1504 C1506 1.395 . S
C1504 C1507 1.403 . S
H1505 C1511 0.930 . S
C1506 H1492 0.930 . S
C1506 C1504 1.395 . S
C1506 C1509 1.403 . S
C1507 C1504 1.403 . S
C1507 C1508 1.524 . S
C1507 C1511 1.400 . S
C1508 H1493 0.960 . S
C1508 H1494 0.960 . S
C1508 H1495 0.960 . S
C1508 C1507 1.524 . S
C1509 C1506 1.403 . S
C1509 C1510 1.392 . S
C1509 C1513 1.495 . S
C1510 C1509 1.392 . S
C1510 C1511 1.385 . S
C1510 C1512 1.478 . S
C1511 H1505 0.930 . S
C1511 C1507 1.400 . S
C1511 C1510 1.385 . S
C1512 C1510 1.478 . S
C1512 C1514 1.381 . S
C1512 C1518 1.383 . S
C1513 C1509 1.495 . S
C1513 H1519 0.959 . S
C1513 H1520 0.961 . S
C1513 H1521 0.960 . S
C1514 C1512 1.381 . S
C1514 C1515 1.394 . S
C1514 H1522 0.930 . S
C1515 C1514 1.394 . S
C1515 C1516 1.383 . S
C1515 H1523 0.929 . S
C1516 C1515 1.383 . S
C1516 C1517 1.377 . S
C1517 H1501 0.930 . S
C1517 C1516 1.377 . S
C1517 C1518 1.379 . S
C1518 H1502 0.931 . S
C1518 C1512 1.383 . S
C1518 C1517 1.379 . S
H1519 C1513 0.959 . S
H1520 C1513 0.961 . S
H1521 C1513 0.960 . S
H1522 C1514 0.930 . S
H1523 C1515 0.929 . S
H1524 C1532 0.929 . S
H1525 C1534 0.930 . S
H1526 C1536 0.930 . S
H1527 C1539 0.929 . S
H1528 C1542 0.930 . S
H1529 C1544 0.960 . S
H1530 C1544 0.960 . S
H1531 C1544 0.960 . S
C1532 H1524 0.929 . S
C1532 C1533 1.377 . S
C1532 C1534 1.384 . S
C1533 C1532 1.377 . S
C1533 C1539 1.390 . S
C1534 H1525 0.930 . S
C1534 C1532 1.384 . S
C1534 C1535 1.372 . S
C1535 C1534 1.372 . S
C1535 C1536 1.400 . S
C1535 C1540 1.490 . S
C1536 H1526 0.930 . S
C1536 C1535 1.400 . S
C1536 C1539 1.386 . S
H1537 C1553 0.930 . S
H1538 C1554 0.931 . S
C1539 H1527 0.929 . S
C1539 C1533 1.390 . S
C1539 C1536 1.386 . S
C1540 C1535 1.490 . S
C1540 C1542 1.395 . S
C1540 C1543 1.403 . S
H1541 C1547 0.930 . S
C1542 H1528 0.930 . S
C1542 C1540 1.395 . S
C1542 C1545 1.403 . S
C1543 C1540 1.403 . S
C1543 C1544 1.524 . S
C1543 C1547 1.400 . S
C1544 H1529 0.960 . S
C1544 H1530 0.960 . S
C1544 H1531 0.960 . S
C1544 C1543 1.524 . S
C1545 C1542 1.403 . S
C1545 C1546 1.392 . S
C1545 C1549 1.495 . S
C1546 C1545 1.392 . S
C1546 C1547 1.385 . S
C1546 C1548 1.478 . S
C1547 H1541 0.930 . S
C1547 C1543 1.400 . S
C1547 C1546 1.385 . S
C1548 C1546 1.478 . S
C1548 C1550 1.381 . S
C1548 C1554 1.383 . S
C1549 C1545 1.495 . S
C1549 H1555 0.959 . S
C1549 H1556 0.961 . S
C1549 H1557 0.960 . S
C1550 C1548 1.381 . S
C1550 C1551 1.394 . S
C1550 H1558 0.930 . S
C1551 C1550 1.394 . S
C1551 C1552 1.383 . S
C1551 H1559 0.929 . S
C1552 C1551 1.383 . S
C1552 C1553 1.377 . S
C1553 H1537 0.930 . S
C1553 C1552 1.377 . S
C1553 C1554 1.379 . S
C1554 H1538 0.931 . S
C1554 C1548 1.383 . S
C1554 C1553 1.379 . S
H1555 C1549 0.959 . S
H1556 C1549 0.961 . S
H1557 C1549 0.960 . S
H1558 C1550 0.930 . S
H1559 C1551 0.929 . S
H1560 C1568 0.929 . S
H1561 C1570 0.930 . S
H1562 C1572 0.930 . S
H1563 C1575 0.929 . S
H1564 C1578 0.930 . S
H1565 C1580 0.960 . S
H1566 C1580 0.960 . S
H1567 C1580 0.960 . S
C1568 H1560 0.929 . S
C1568 C1569 1.377 . S
C1568 C1570 1.384 . S
C1569 C1568 1.377 . S
C1569 C1575 1.390 . S
C1570 H1561 0.930 . S
C1570 C1568 1.384 . S
C1570 C1571 1.372 . S
C1571 C1570 1.372 . S
C1571 C1572 1.400 . S
C1571 C1576 1.490 . S
C1572 H1562 0.930 . S
C1572 C1571 1.400 . S
C1572 C1575 1.386 . S
H1573 C1589 0.930 . S
H1574 C1590 0.931 . S
C1575 H1563 0.929 . S
C1575 C1569 1.390 . S
C1575 C1572 1.386 . S
C1576 C1571 1.490 . S
C1576 C1578 1.395 . S
C1576 C1579 1.403 1_556 S
H1577 C1583 0.930 . S
C1578 H1564 0.930 . S
C1578 C1576 1.395 . S
C1578 C1581 1.403 . S
C1579 C1576 1.403 1_554 S
C1579 C1580 1.524 . S
C1579 C1583 1.400 . S
C1580 H1565 0.960 . S
C1580 H1566 0.960 . S
C1580 H1567 0.960 . S
C1580 C1579 1.524 . S
C1581 C1578 1.403 . S
C1581 C1582 1.392 1_556 S
C1581 C1585 1.495 . S
C1582 C1581 1.392 1_554 S
C1582 C1583 1.385 . S
C1582 C1584 1.478 . S
C1583 H1577 0.930 . S
C1583 C1579 1.400 . S
C1583 C1582 1.385 . S
C1584 C1582 1.478 . S
C1584 C1586 1.381 . S
C1584 C1590 1.383 . S
C1585 C1581 1.495 . S
C1585 H1591 0.959 . S
C1585 H1592 0.961 . S
C1585 H1593 0.960 . S
C1586 C1584 1.381 . S
C1586 C1587 1.394 . S
C1586 H1594 0.930 . S
C1587 C1586 1.394 . S
C1587 C1588 1.383 . S
C1587 H1595 0.929 . S
C1588 C1587 1.383 . S
C1588 C1589 1.377 . S
C1589 H1573 0.930 . S
C1589 C1588 1.377 . S
C1589 C1590 1.379 . S
C1590 H1574 0.931 . S
C1590 C1584 1.383 . S
C1590 C1589 1.379 . S
H1591 C1585 0.959 . S
H1592 C1585 0.961 . S
H1593 C1585 0.960 . S
H1594 C1586 0.930 . S
H1595 C1587 0.929 . S
H1596 C1604 0.929 . S
H1597 C1606 0.930 . S
H1598 C1608 0.930 . S
H1599 C1611 0.929 . S
H1600 C1614 0.930 . S
H1601 C1616 0.960 . S
H1602 C1616 0.960 . S
H1603 C1616 0.960 . S
C1604 H1596 0.929 . S
C1604 C1605 1.377 . S
C1604 C1606 1.384 . S
C1605 C1604 1.377 . S
C1605 C1611 1.390 . S
C1606 H1597 0.930 . S
C1606 C1604 1.384 . S
C1606 C1607 1.372 . S
C1607 C1606 1.372 . S
C1607 C1608 1.400 . S
C1607 C1612 1.490 . S
C1608 H1598 0.930 . S
C1608 C1607 1.400 . S
C1608 C1611 1.386 . S
H1609 C1625 0.930 . S
H1610 C1626 0.931 . S
C1611 H1599 0.929 . S
C1611 C1605 1.390 . S
C1611 C1608 1.386 . S
C1612 C1607 1.490 . S
C1612 C1614 1.395 . S
C1612 C1615 1.403 . S
H1613 C1619 0.930 . S
C1614 H1600 0.930 . S
C1614 C1612 1.395 . S
C1614 C1617 1.403 1_455 S
C1615 C1612 1.403 . S
C1615 C1616 1.524 . S
C1615 C1619 1.400 1_455 S
C1616 H1601 0.960 . S
C1616 H1602 0.960 . S
C1616 H1603 0.960 . S
C1616 C1615 1.524 . S
C1617 C1614 1.403 1_655 S
C1617 C1618 1.392 . S
C1617 C1621 1.495 . S
C1618 C1617 1.392 . S
C1618 C1619 1.385 . S
C1618 C1620 1.478 . S
C1619 H1613 0.930 . S
C1619 C1615 1.400 1_655 S
C1619 C1618 1.385 . S
C1620 C1618 1.478 . S
C1620 C1622 1.381 . S
C1620 C1626 1.383 . S
C1621 C1617 1.495 . S
C1621 H1627 0.959 . S
C1621 H1628 0.961 . S
C1621 H1629 0.960 . S
C1622 C1620 1.381 . S
C1622 C1623 1.394 . S
C1622 H1630 0.930 . S
C1623 C1622 1.394 . S
C1623 C1624 1.383 . S
C1623 H1631 0.929 . S
C1624 C1623 1.383 . S
C1624 C1625 1.377 . S
C1625 H1609 0.930 . S
C1625 C1624 1.377 . S
C1625 C1626 1.379 . S
C1626 H1610 0.931 . S
C1626 C1620 1.383 . S
C1626 C1625 1.379 . S
H1627 C1621 0.959 . S
H1628 C1621 0.961 . S
H1629 C1621 0.960 . S
H1630 C1622 0.930 . S
H1631 C1623 0.929 . S
H1632 C1640 0.929 . S
H1633 C1642 0.930 . S
H1634 C1644 0.930 . S
H1635 C1647 0.929 . S
H1636 C1650 0.930 . S
H1637 C1652 0.960 . S
H1638 C1652 0.960 . S
H1639 C1652 1.001 . S
C1640 H1632 0.929 . S
C1640 C1641 1.377 . S
C1640 C1642 1.384 . S
C1641 C1640 1.377 . S
C1641 C1647 1.390 . S
C1642 H1633 0.930 . S
C1642 C1640 1.384 . S
C1642 C1643 1.372 . S
C1643 C1642 1.372 . S
C1643 C1644 1.400 . S
C1643 C1648 1.490 . S
C1644 H1634 0.930 . S
C1644 C1643 1.400 . S
C1644 C1647 1.386 . S
H1645 C1661 0.930 . S
H1646 C1662 0.931 . S
C1647 H1635 0.929 . S
C1647 C1641 1.390 . S
C1647 C1644 1.386 . S
C1648 C1643 1.490 . S
C1648 C1650 1.395 1_565 S
C1648 C1651 1.403 1_554 S
H1649 C1655 0.924 . S
C1650 H1636 0.930 . S
C1650 C1648 1.395 1_545 S
C1650 C1653 1.403 . S
C1651 C1648 1.403 1_556 S
C1651 C1652 1.524 . S
C1651 C1655 1.371 1_565 S
C1652 H1637 0.960 . S
C1652 H1638 0.960 . S
C1652 H1639 1.001 . S
C1652 C1651 1.524 . S
C1653 C1650 1.403 . S
C1653 C1654 1.392 1_554 S
C1653 C1657 1.495 . S
C1654 C1653 1.392 1_556 S
C1654 C1655 1.425 . S
C1654 C1656 1.478 . S
C1655 H1649 0.924 . S
C1655 C1651 1.371 1_545 S
C1655 C1654 1.425 . S
C1656 C1654 1.478 . S
C1656 C1658 1.381 . S
C1656 C1662 1.383 . S
C1657 C1653 1.495 . S
C1657 H1663 0.959 . S
C1657 H1664 0.961 . S
C1657 H1665 0.960 . S
C1658 C1656 1.381 . S
C1658 C1659 1.394 . S
C1658 H1666 0.930 . S
C1659 C1658 1.394 . S
C1659 C1660 1.383 . S
C1659 H1667 0.929 . S
C1660 C1659 1.383 . S
C1660 C1661 1.377 . S
C1661 H1645 0.930 . S
C1661 C1660 1.377 . S
C1661 C1662 1.379 . S
C1662 H1646 0.931 . S
C1662 C1656 1.383 . S
C1662 C1661 1.379 . S
H1663 C1657 0.959 . S
H1664 C1657 0.961 . S
H1665 C1657 0.960 . S
H1666 C1658 0.930 . S
H1667 C1659 0.929 . S
H1668 C1676 0.929 . S
H1669 C1678 0.930 . S
H1670 C1680 0.930 . S
H1671 C1683 0.929 . S
H1672 C1686 0.930 . S
H1673 C1688 0.960 . S
H1674 C1688 0.960 . S
H1675 C1688 0.960 . S
C1676 H1668 0.929 . S
C1676 C1677 1.377 . S
C1676 C1678 1.384 . S
C1677 C1676 1.377 . S
C1677 C1683 1.390 . S
C1678 H1669 0.930 . S
C1678 C1676 1.384 . S
C1678 C1679 1.372 . S
C1679 C1678 1.372 . S
C1679 C1680 1.400 . S
C1679 C1684 1.490 . S
C1680 H1670 0.930 . S
C1680 C1679 1.400 . S
C1680 C1683 1.386 . S
H1681 C1697 0.930 . S
H1682 C1698 0.931 . S
C1683 H1671 0.929 . S
C1683 C1677 1.390 . S
C1683 C1680 1.386 . S
C1684 C1679 1.490 . S
C1684 C1686 1.395 . S
C1684 C1687 1.403 . S
H1685 C1691 0.930 . S
C1686 H1672 0.930 . S
C1686 C1684 1.395 . S
C1686 C1689 1.403 . S
C1687 C1684 1.403 . S
C1687 C1688 1.524 . S
C1687 C1691 1.400 . S
C1688 H1673 0.960 . S
C1688 H1674 0.960 . S
C1688 H1675 0.960 . S
C1688 C1687 1.524 . S
C1689 C1686 1.403 . S
C1689 C1690 1.392 . S
C1689 C1693 1.495 . S
C1690 C1689 1.392 . S
C1690 C1691 1.385 . S
C1690 C1692 1.478 . S
C1691 H1685 0.930 . S
C1691 C1687 1.400 . S
C1691 C1690 1.385 . S
C1692 C1690 1.478 . S
C1692 C1694 1.381 . S
C1692 C1698 1.383 . S
C1693 C1689 1.495 . S
C1693 H1699 0.959 . S
C1693 H1700 0.961 . S
C1693 H1701 0.960 . S
C1694 C1692 1.381 . S
C1694 C1695 1.394 . S
C1694 H1702 0.930 . S
C1695 C1694 1.394 . S
C1695 C1696 1.383 . S
C1695 H1703 0.929 . S
C1696 C1695 1.383 . S
C1696 C1697 1.377 . S
C1697 H1681 0.930 . S
C1697 C1696 1.377 . S
C1697 C1698 1.379 . S
C1698 H1682 0.931 . S
C1698 C1692 1.383 . S
C1698 C1697 1.379 . S
H1699 C1693 0.959 . S
H1700 C1693 0.961 . S
H1701 C1693 0.960 . S
H1702 C1694 0.930 . S
H1703 C1695 0.929 . S
H1704 C1712 0.929 . S
H1705 C1714 0.930 . S
H1706 C1716 0.930 . S
H1707 C1719 0.929 . S
H1708 C1722 0.930 . S
H1709 C1724 0.960 . S
H1710 C1724 0.960 . S
H1711 C1724 1.000 . S
C1712 H1704 0.929 . S
C1712 C1713 1.377 . S
C1712 C1714 1.384 . S
C1713 C1712 1.377 . S
C1713 C1719 1.390 . S
C1714 H1705 0.930 . S
C1714 C1712 1.384 . S
C1714 C1715 1.372 . S
C1715 C1714 1.372 . S
C1715 C1716 1.400 . S
C1715 C1720 1.490 . S
C1716 H1706 0.930 . S
C1716 C1715 1.400 . S
C1716 C1719 1.386 . S
H1717 C1733 0.930 . S
H1718 C1734 0.931 . S
C1719 H1707 0.929 . S
C1719 C1713 1.390 . S
C1719 C1716 1.386 . S
C1720 C1715 1.490 . S
C1720 C1722 1.395 1_655 S
C1720 C1723 1.403 1_556 S
H1721 C1727 0.925 . S
C1722 H1708 0.930 . S
C1722 C1720 1.395 1_455 S
C1722 C1725 1.403 . S
C1723 C1720 1.403 1_554 S
C1723 C1724 1.524 . S
C1723 C1727 1.371 1_655 S
C1724 H1709 0.960 . S
C1724 H1710 0.960 . S
C1724 H1711 1.000 . S
C1724 C1723 1.524 . S
C1725 C1722 1.403 . S
C1725 C1726 1.392 1_556 S
C1725 C1729 1.495 . S
C1726 C1725 1.392 1_554 S
C1726 C1727 1.425 . S
C1726 C1728 1.478 . S
C1727 H1721 0.925 . S
C1727 C1723 1.371 1_455 S
C1727 C1726 1.425 . S
C1728 C1726 1.478 . S
C1728 C1730 1.381 . S
C1728 C1734 1.383 . S
C1729 C1725 1.495 . S
C1729 H1735 0.959 . S
C1729 H1736 0.961 . S
C1729 H1737 0.960 . S
C1730 C1728 1.381 . S
C1730 C1731 1.394 . S
C1730 H1738 0.930 . S
C1731 C1730 1.394 . S
C1731 C1732 1.383 . S
C1731 H1739 0.929 . S
C1732 C1731 1.383 . S
C1732 C1733 1.377 . S
C1733 H1717 0.930 . S
C1733 C1732 1.377 . S
C1733 C1734 1.379 . S
C1734 H1718 0.931 . S
C1734 C1728 1.383 . S
C1734 C1733 1.379 . S
H1735 C1729 0.959 . S
H1736 C1729 0.961 . S
H1737 C1729 0.960 . S
H1738 C1730 0.930 . S
H1739 C1731 0.929 . S
H1740 C1748 0.929 . S
H1741 C1750 0.930 . S
H1742 C1752 0.930 . S
H1743 C1755 0.929 . S
H1744 C1758 0.930 . S
H1745 C1760 0.960 . S
H1746 C1760 0.960 . S
H1747 C1760 0.960 1_565 S
C1748 H1740 0.929 . S
C1748 C1749 1.377 . S
C1748 C1750 1.384 . S
C1749 C1748 1.377 . S
C1749 C1755 1.390 . S
C1750 H1741 0.930 . S
C1750 C1748 1.384 . S
C1750 C1751 1.372 . S
C1751 C1750 1.372 . S
C1751 C1752 1.400 . S
C1751 C1756 1.490 . S
C1752 H1742 0.930 . S
C1752 C1751 1.400 . S
C1752 C1755 1.386 . S
H1753 C1769 0.930 . S
H1754 C1770 0.931 . S
C1755 H1743 0.929 . S
C1755 C1749 1.390 . S
C1755 C1752 1.386 . S
C1756 C1751 1.490 . S
C1756 C1758 1.395 . S
C1756 C1759 1.401 1_565 S
H1757 C1763 0.930 . S
C1758 H1744 0.930 . S
C1758 C1756 1.395 . S
C1758 C1761 1.428 . S
C1759 C1756 1.401 1_545 S
C1759 C1760 1.521 . S
C1759 C1763 1.405 . S
C1760 H1745 0.960 . S
C1760 H1746 0.960 . S
C1760 H1747 0.960 1_545 S
C1760 C1759 1.521 . S
C1761 C1758 1.428 . S
C1761 C1762 1.382 1_565 S
C1761 C1765 1.483 . S
C1762 C1761 1.382 1_545 S
C1762 C1763 1.385 . S
C1762 C1764 1.478 . S
C1763 H1757 0.930 . S
C1763 C1759 1.405 . S
C1763 C1762 1.385 . S
C1764 C1762 1.478 . S
C1764 C1766 1.381 . S
C1764 C1770 1.383 . S
C1765 C1761 1.483 . S
C1765 H1771 0.959 . S
C1765 H1772 0.961 . S
C1765 H1773 0.960 1_565 S
C1766 C1764 1.381 . S
C1766 C1767 1.394 . S
C1766 H1774 0.930 . S
C1767 C1766 1.394 . S
C1767 C1768 1.383 . S
C1767 H1775 0.929 . S
C1768 C1767 1.383 . S
C1768 C1769 1.377 . S
C1769 H1753 0.930 . S
C1769 C1768 1.377 . S
C1769 C1770 1.379 . S
C1770 H1754 0.931 . S
C1770 C1764 1.383 . S
C1770 C1769 1.379 . S
H1771 C1765 0.959 . S
H1772 C1765 0.961 . S
H1773 C1765 0.960 1_545 S
H1774 C1766 0.930 . S
H1775 C1767 0.929 . S
C489 C184 1.117 . S
C508 C17 1.103 . S
C525 C224 1.115 . S
C544 C57 1.137 . S
C561 C97 1.120 . S
C580 C24 1.135 . S
C597 C137 1.117 . S
C616 C64 1.091 . S
C633 C177 1.111 . S
C652 C104 1.095 . S
C669 C144 1.113 . S
C688 C217 1.091 . S
C705 C344 1.119 . S
C724 C257 1.121 . S
C741 C297 1.114 . S
C760 C384 1.130 . S
C777 C424 1.111 . S
C796 C337 1.126 . S
C813 C377 1.116 . S
C832 C464 1.135 . S
C849 C417 1.112 . S
C868 C264 1.087 . S
C885 C304 1.109 . S
C904 C457 1.116 . S
C921 C173 1.513 . S
C940 C26 1.501 . S
C957 C66 1.521 . S
C976 C213 1.523 . S
C993 C106 1.514 . S
C1012 C13 1.509 . S
C1029 C146 1.521 . S
C1048 C53 1.521 . S
C1065 C93 1.518 . S
C1084 C186 1.507 . S
C1101 C133 1.519 . S
C1120 C226 1.517 . S
C1137 C333 1.513 . S
C1156 C266 1.514 . S
C1173 C306 1.514 . S
C1192 C373 1.502 . S
C1209 C346 1.519 . S
C1228 C413 1.529 . S
C1245 C453 1.516 . S
C1264 C386 1.502 . S
C1281 C426 1.521 . S
C1300 C253 1.518 . S
C1317 C293 1.513 . S
C1336 C466 1.516 . S
C1353 C423 1.690 . S
C1372 C23 1.718 . S
C1389 C63 1.698 . S
C1408 C463 1.665 . S
C1425 C103 1.698 . S
C1444 C263 1.685 . S
C1461 C143 1.697 . S
C1480 C303 1.668 . S
C1497 C183 1.697 . S
C1516 C343 1.690 . S
C1533 C383 1.698 . S
C1552 C223 1.665 . S
C1569 C362 2.143 . S
C1588 C2 2.145 . S
C1605 C402 2.144 . S
C1624 C42 2.139 . S
C1641 C82 2.144 . S
C1660 C442 2.141 . S
C1677 C122 2.143 . S
C1696 C242 2.146 . S
C1713 C282 2.144 . S
C1732 C162 2.141 . S
C1749 C322 2.143 . S
C1768 C202 2.140 . S
