# Generated by pormake.
# Topology uoh, (4)-cn, num edge types: 1
# Building blocks:
#     Node 0, Type 0, BuildingBlock: QUQFOY_clean_sbu_1, # of connection points: 4
#     Node 1, Type 0, BuildingBlock: QUQFOY_clean_sbu_1, # of connection points: 4
#     Node 2, Type 0, BuildingBlock: QUQFOY_clean_sbu_1, # of connection points: 4
#     Node 3, Type 0, BuildingBlock: QUQFOY_clean_sbu_1, # of connection points: 4
#     Node 4, Type 0, BuildingBlock: QUQFOY_clean_sbu_1, # of connection points: 4
#     Node 5, Type 0, BuildingBlock: QUQFOY_clean_sbu_1, # of connection points: 4
#     Node 6, Type 0, BuildingBlock: QUQFOY_clean_sbu_1, # of connection points: 4
#     Node 7, Type 0, BuildingBlock: QUQFOY_clean_sbu_1, # of connection points: 4
#     Node 8, Type 0, BuildingBlock: QUQFOY_clean_sbu_1, # of connection points: 4
#     Node 9, Type 0, BuildingBlock: QUQFOY_clean_sbu_1, # of connection points: 4
#     Node 10, Type 0, BuildingBlock: QUQFOY_clean_sbu_1, # of connection points: 4
#     Node 11, Type 0, BuildingBlock: QUQFOY_clean_sbu_1, # of connection points: 4
#     Node 12, Type 0, BuildingBlock: QUQFOY_clean_sbu_1, # of connection points: 4
#     Node 13, Type 0, BuildingBlock: QUQFOY_clean_sbu_1, # of connection points: 4
#     Node 14, Type 0, BuildingBlock: QUQFOY_clean_sbu_1, # of connection points: 4
#     Node 15, Type 0, BuildingBlock: QUQFOY_clean_sbu_1, # of connection points: 4
#     Node 16, Type 0, BuildingBlock: QUQFOY_clean_sbu_1, # of connection points: 4
#     Node 17, Type 0, BuildingBlock: QUQFOY_clean_sbu_1, # of connection points: 4
#     Node 18, Type 0, BuildingBlock: QUQFOY_clean_sbu_1, # of connection points: 4
#     Node 19, Type 0, BuildingBlock: QUQFOY_clean_sbu_1, # of connection points: 4
#     Node 20, Type 0, BuildingBlock: QUQFOY_clean_sbu_1, # of connection points: 4
#     Node 21, Type 0, BuildingBlock: QUQFOY_clean_sbu_1, # of connection points: 4
#     Node 22, Type 0, BuildingBlock: QUQFOY_clean_sbu_1, # of connection points: 4
#     Node 23, Type 0, BuildingBlock: QUQFOY_clean_sbu_1, # of connection points: 4
#     Node 24, Type 0, BuildingBlock: QUQFOY_clean_sbu_1, # of connection points: 4
#     Node 25, Type 0, BuildingBlock: QUQFOY_clean_sbu_1, # of connection points: 4
#     Node 26, Type 0, BuildingBlock: QUQFOY_clean_sbu_1, # of connection points: 4
#     Node 27, Type 0, BuildingBlock: QUQFOY_clean_sbu_1, # of connection points: 4
#     Node 28, Type 0, BuildingBlock: QUQFOY_clean_sbu_1, # of connection points: 4
#     Node 29, Type 0, BuildingBlock: QUQFOY_clean_sbu_1, # of connection points: 4
#     Node 30, Type 0, BuildingBlock: QUQFOY_clean_sbu_1, # of connection points: 4
#     Node 31, Type 0, BuildingBlock: QUQFOY_clean_sbu_1, # of connection points: 4
#     Node 32, Type 0, BuildingBlock: QUQFOY_clean_sbu_1, # of connection points: 4
#     Node 33, Type 0, BuildingBlock: QUQFOY_clean_sbu_1, # of connection points: 4
#     Node 34, Type 0, BuildingBlock: QUQFOY_clean_sbu_1, # of connection points: 4
#     Node 35, Type 0, BuildingBlock: QUQFOY_clean_sbu_1, # of connection points: 4
#     Edge 36, Type (0, 0), BuildingBlock: ZUJKAS_clean_linker_0, # of connection points: 2
#     Edge 37, Type (0, 0), BuildingBlock: ZUJKAS_clean_linker_0, # of connection points: 2
#     Edge 38, Type (0, 0), BuildingBlock: ZUJKAS_clean_linker_0, # of connection points: 2
#     Edge 39, Type (0, 0), BuildingBlock: ZUJKAS_clean_linker_0, # of connection points: 2
#     Edge 40, Type (0, 0), BuildingBlock: ZUJKAS_clean_linker_0, # of connection points: 2
#     Edge 41, Type (0, 0), BuildingBlock: ZUJKAS_clean_linker_0, # of connection points: 2
#     Edge 42, Type (0, 0), BuildingBlock: ZUJKAS_clean_linker_0, # of connection points: 2
#     Edge 43, Type (0, 0), BuildingBlock: ZUJKAS_clean_linker_0, # of connection points: 2
#     Edge 44, Type (0, 0), BuildingBlock: ZUJKAS_clean_linker_0, # of connection points: 2
#     Edge 45, Type (0, 0), BuildingBlock: ZUJKAS_clean_linker_0, # of connection points: 2
#     Edge 46, Type (0, 0), BuildingBlock: ZUJKAS_clean_linker_0, # of connection points: 2
#     Edge 47, Type (0, 0), BuildingBlock: ZUJKAS_clean_linker_0, # of connection points: 2
#     Edge 48, Type (0, 0), BuildingBlock: ZUJKAS_clean_linker_0, # of connection points: 2
#     Edge 49, Type (0, 0), BuildingBlock: ZUJKAS_clean_linker_0, # of connection points: 2
#     Edge 50, Type (0, 0), BuildingBlock: ZUJKAS_clean_linker_0, # of connection points: 2
#     Edge 51, Type (0, 0), BuildingBlock: ZUJKAS_clean_linker_0, # of connection points: 2
#     Edge 52, Type (0, 0), BuildingBlock: ZUJKAS_clean_linker_0, # of connection points: 2
#     Edge 53, Type (0, 0), BuildingBlock: ZUJKAS_clean_linker_0, # of connection points: 2
#     Edge 54, Type (0, 0), BuildingBlock: ZUJKAS_clean_linker_0, # of connection points: 2
#     Edge 55, Type (0, 0), BuildingBlock: ZUJKAS_clean_linker_0, # of connection points: 2
#     Edge 56, Type (0, 0), BuildingBlock: ZUJKAS_clean_linker_0, # of connection points: 2
#     Edge 57, Type (0, 0), BuildingBlock: ZUJKAS_clean_linker_0, # of connection points: 2
#     Edge 58, Type (0, 0), BuildingBlock: ZUJKAS_clean_linker_0, # of connection points: 2
#     Edge 59, Type (0, 0), BuildingBlock: ZUJKAS_clean_linker_0, # of connection points: 2
#     Edge 60, Type (0, 0), BuildingBlock: ZUJKAS_clean_linker_0, # of connection points: 2
#     Edge 61, Type (0, 0), BuildingBlock: ZUJKAS_clean_linker_0, # of connection points: 2
#     Edge 62, Type (0, 0), BuildingBlock: ZUJKAS_clean_linker_0, # of connection points: 2
#     Edge 63, Type (0, 0), BuildingBlock: ZUJKAS_clean_linker_0, # of connection points: 2
#     Edge 64, Type (0, 0), BuildingBlock: ZUJKAS_clean_linker_0, # of connection points: 2
#     Edge 65, Type (0, 0), BuildingBlock: ZUJKAS_clean_linker_0, # of connection points: 2
#     Edge 66, Type (0, 0), BuildingBlock: ZUJKAS_clean_linker_0, # of connection points: 2
#     Edge 67, Type (0, 0), BuildingBlock: ZUJKAS_clean_linker_0, # of connection points: 2
#     Edge 68, Type (0, 0), BuildingBlock: ZUJKAS_clean_linker_0, # of connection points: 2
#     Edge 69, Type (0, 0), BuildingBlock: ZUJKAS_clean_linker_0, # of connection points: 2
#     Edge 70, Type (0, 0), BuildingBlock: ZUJKAS_clean_linker_0, # of connection points: 2
#     Edge 71, Type (0, 0), BuildingBlock: ZUJKAS_clean_linker_0, # of connection points: 2
#     Edge 72, Type (0, 0), BuildingBlock: ZUJKAS_clean_linker_0, # of connection points: 2
#     Edge 73, Type (0, 0), BuildingBlock: ZUJKAS_clean_linker_0, # of connection points: 2
#     Edge 74, Type (0, 0), BuildingBlock: ZUJKAS_clean_linker_0, # of connection points: 2
#     Edge 75, Type (0, 0), BuildingBlock: ZUJKAS_clean_linker_0, # of connection points: 2
#     Edge 76, Type (0, 0), BuildingBlock: ZUJKAS_clean_linker_0, # of connection points: 2
#     Edge 77, Type (0, 0), BuildingBlock: ZUJKAS_clean_linker_0, # of connection points: 2
#     Edge 78, Type (0, 0), BuildingBlock: ZUJKAS_clean_linker_0, # of connection points: 2
#     Edge 79, Type (0, 0), BuildingBlock: ZUJKAS_clean_linker_0, # of connection points: 2
#     Edge 80, Type (0, 0), BuildingBlock: ZUJKAS_clean_linker_0, # of connection points: 2
#     Edge 81, Type (0, 0), BuildingBlock: ZUJKAS_clean_linker_0, # of connection points: 2
#     Edge 82, Type (0, 0), BuildingBlock: ZUJKAS_clean_linker_0, # of connection points: 2
#     Edge 83, Type (0, 0), BuildingBlock: ZUJKAS_clean_linker_0, # of connection points: 2
#     Edge 84, Type (0, 0), BuildingBlock: ZUJKAS_clean_linker_0, # of connection points: 2
#     Edge 85, Type (0, 0), BuildingBlock: ZUJKAS_clean_linker_0, # of connection points: 2
#     Edge 86, Type (0, 0), BuildingBlock: ZUJKAS_clean_linker_0, # of connection points: 2
#     Edge 87, Type (0, 0), BuildingBlock: ZUJKAS_clean_linker_0, # of connection points: 2
#     Edge 88, Type (0, 0), BuildingBlock: ZUJKAS_clean_linker_0, # of connection points: 2
#     Edge 89, Type (0, 0), BuildingBlock: ZUJKAS_clean_linker_0, # of connection points: 2
#     Edge 90, Type (0, 0), BuildingBlock: ZUJKAS_clean_linker_0, # of connection points: 2
#     Edge 91, Type (0, 0), BuildingBlock: ZUJKAS_clean_linker_0, # of connection points: 2
#     Edge 92, Type (0, 0), BuildingBlock: ZUJKAS_clean_linker_0, # of connection points: 2
#     Edge 93, Type (0, 0), BuildingBlock: ZUJKAS_clean_linker_0, # of connection points: 2
#     Edge 94, Type (0, 0), BuildingBlock: ZUJKAS_clean_linker_0, # of connection points: 2
#     Edge 95, Type (0, 0), BuildingBlock: ZUJKAS_clean_linker_0, # of connection points: 2
#     Edge 96, Type (0, 0), BuildingBlock: ZUJKAS_clean_linker_0, # of connection points: 2
#     Edge 97, Type (0, 0), BuildingBlock: ZUJKAS_clean_linker_0, # of connection points: 2
#     Edge 98, Type (0, 0), BuildingBlock: ZUJKAS_clean_linker_0, # of connection points: 2
#     Edge 99, Type (0, 0), BuildingBlock: ZUJKAS_clean_linker_0, # of connection points: 2
#     Edge 100, Type (0, 0), BuildingBlock: ZUJKAS_clean_linker_0, # of connection points: 2
#     Edge 101, Type (0, 0), BuildingBlock: ZUJKAS_clean_linker_0, # of connection points: 2
#     Edge 102, Type (0, 0), BuildingBlock: ZUJKAS_clean_linker_0, # of connection points: 2
#     Edge 103, Type (0, 0), BuildingBlock: ZUJKAS_clean_linker_0, # of connection points: 2
#     Edge 104, Type (0, 0), BuildingBlock: ZUJKAS_clean_linker_0, # of connection points: 2
#     Edge 105, Type (0, 0), BuildingBlock: ZUJKAS_clean_linker_0, # of connection points: 2
#     Edge 106, Type (0, 0), BuildingBlock: ZUJKAS_clean_linker_0, # of connection points: 2
#     Edge 107, Type (0, 0), BuildingBlock: ZUJKAS_clean_linker_0, # of connection points: 2
# Relax obj value: 0.081
# Max RMSD: 0.125
# Mean RMSD: 0.125
data_MOF--net-uoh--node1-QUQFOY_clean_sbu_1--edge1-ZUJKAS_clean_linker_0
_symmetry_space_group_name_H-M    P1
_symmetry_Int_Tables_number       1
_symmetry_cell_setting            triclinic
loop_
_symmetry_equiv_pos_as_xyz
'x, y, z'
_cell_length_a     120.12581
_cell_length_b     120.11881
_cell_length_c     36.902019
_cell_angle_alpha  89.996166
_cell_angle_beta   89.996858
_cell_angle_gamma 119.98434
loop_
_atom_site_label
_atom_site_type_symbol
_atom_site_fract_x
_atom_site_fract_y
_atom_site_fract_z
_atom_type_partial_charge
O0 O 0.24153 0.14986 0.13091 0.0
Cd1 Cd 0.25085 0.16129 0.17522 0.0
Cd2 Cd 0.245 0.13841 0.20406 0.0
O3 O 0.23518 0.13095 0.156 0.0
O4 O 0.25008 0.17747 0.1691 0.0
O5 O 0.24049 0.16377 0.21403 0.0
C6 C 0.24284 0.1742 0.19748 0.0
C7 C 0.23586 0.13022 0.26079 0.0
C8 C 0.23564 0.13766 0.12873 0.0
C9 C 0.27315 0.15768 0.19246 0.0
O10 O 0.26466 0.14634 0.20143 0.0
O11 O 0.26982 0.16576 0.18261 0.0
O12 O 0.23926 0.12396 0.23936 0.0
O13 O 0.23712 0.14095 0.24927 0.0
O14 O 0.8571 0.0927 0.13093 0.0
Cd15 Cd 0.84571 0.09083 0.17515 0.0
Cd16 Cd 0.86862 0.10774 0.204 0.0
O17 O 0.87602 0.10521 0.15602 0.0
O18 O 0.82945 0.0739 0.16979 0.0
O19 O 0.84326 0.0782 0.21454 0.0
C20 C 0.83276 0.07006 0.19839 0.0
C21 C 0.87659 0.10652 0.26085 0.0
C22 C 0.8693 0.09895 0.12879 0.0
C23 C 0.84961 0.1169 0.19175 0.0
O24 O 0.8609 0.11966 0.20099 0.0
O25 O 0.84146 0.1055 0.182 0.0
O26 O 0.88303 0.11618 0.23957 0.0
O27 O 0.86579 0.09723 0.24916 0.0
O28 O 0.91579 0.76576 0.13062 0.0
Cd29 Cd 0.91762 0.75646 0.17543 0.0
Cd30 Cd 0.90088 0.76274 0.20361 0.0
O31 O 0.90375 0.77275 0.15564 0.0
O32 O 0.93457 0.75714 0.1708 0.0
O33 O 0.93016 0.76687 0.21473 0.0
C34 C 0.93835 0.76444 0.19909 0.0
C35 C 0.90128 0.77174 0.26022 0.0
C36 C 0.90981 0.77198 0.12835 0.0
C37 C 0.8915 0.73448 0.19198 0.0
O38 O 0.88881 0.74313 0.2004 0.0
O39 O 0.90293 0.73759 0.18287 0.0
O40 O 0.892 0.76869 0.23765 0.0
O41 O 0.91071 0.77022 0.24997 0.0
O42 O 0.15315 0.23999 0.37416 0.0
Cd43 Cd 0.1638 0.24931 0.32867 0.0
Cd44 Cd 0.14043 0.24302 0.30318 0.0
O45 O 0.1338 0.23317 0.35159 0.0
O46 O 0.18022 0.24888 0.3325 0.0
O47 O 0.16592 0.23896 0.28912 0.0
C48 C 0.17664 0.24153 0.30434 0.0
C49 C 0.13154 0.23385 0.24701 0.0
C50 C 0.14099 0.23389 0.37785 0.0
C51 C 0.15941 0.27127 0.31373 0.0
O52 O 0.14798 0.26262 0.30622 0.0
O53 O 0.16782 0.26817 0.32173 0.0
O54 O 0.12539 0.2369 0.2699 0.0
O55 O 0.14258 0.23546 0.25675 0.0
O56 O 0.76751 0.91416 0.37496 0.0
Cd57 Cd 0.75808 0.91599 0.33048 0.0
Cd58 Cd 0.76414 0.89914 0.30194 0.0
O59 O 0.77416 0.90185 0.34981 0.0
O60 O 0.75878 0.93293 0.33558 0.0
O61 O 0.76837 0.92859 0.29114 0.0
C62 C 0.766 0.93676 0.30715 0.0
C63 C 0.77314 0.89958 0.2453 0.0
C64 C 0.77359 0.90803 0.37708 0.0
C65 C 0.73595 0.88993 0.31405 0.0
O66 O 0.74452 0.88718 0.30519 0.0
O67 O 0.73916 0.90135 0.32346 0.0
O68 O 0.76997 0.89022 0.26768 0.0
O69 O 0.77173 0.90906 0.25576 0.0
O70 O 0.09464 0.85615 0.37358 0.0
Cd71 Cd 0.09264 0.84471 0.32939 0.0
Cd72 Cd 0.10969 0.86757 0.30059 0.0
O73 O 0.10721 0.87506 0.34844 0.0
O74 O 0.07569 0.82853 0.33529 0.0
O75 O 0.07989 0.84222 0.29029 0.0
C76 C 0.07177 0.83179 0.30678 0.0
C77 C 0.10879 0.8757 0.24368 0.0
C78 C 0.10093 0.86836 0.37569 0.0
C79 C 0.11861 0.84835 0.31283 0.0
O80 O 0.12146 0.85968 0.30375 0.0
O81 O 0.10718 0.84025 0.32245 0.0
O82 O 0.11841 0.88199 0.26518 0.0
O83 O 0.09934 0.86496 0.2552 0.0
O84 O 0.76678 0.8549 0.87181 0.0
Cd85 Cd 0.75762 0.84391 0.82668 0.0
Cd86 Cd 0.76361 0.8671 0.80011 0.0
O87 O 0.77308 0.87411 0.84885 0.0
O88 O 0.75817 0.82759 0.8323 0.0
O89 O 0.7681 0.84149 0.78805 0.0
C90 C 0.76558 0.83095 0.80426 0.0
C91 C 0.77314 0.87547 0.74394 0.0
C92 C 0.77254 0.86706 0.8753 0.0
C93 C 0.73542 0.84778 0.81 0.0
O94 O 0.74395 0.85921 0.80195 0.0
O95 O 0.73869 0.83959 0.81909 0.0
O96 O 0.7697 0.88172 0.76527 0.0
O97 O 0.7717 0.86465 0.7553 0.0
O98 O 0.15298 0.91372 0.87284 0.0
Cd99 Cd 0.16395 0.91561 0.82759 0.0
Cd100 Cd 0.14084 0.89887 0.79972 0.0
O101 O 0.13387 0.90156 0.84829 0.0
O102 O 0.18047 0.93238 0.83173 0.0
O103 O 0.16594 0.92841 0.78931 0.0
C104 C 0.17678 0.93638 0.80426 0.0
C105 C 0.13266 0.90016 0.74329 0.0
C106 C 0.14078 0.90765 0.87544 0.0
C107 C 0.1597 0.88945 0.80987 0.0
O108 O 0.14834 0.88675 0.80175 0.0
O109 O 0.168 0.90085 0.81919 0.0
O110 O 0.12623 0.89054 0.7647 0.0
O111 O 0.14354 0.9094 0.75471 0.0
O112 O 0.09297 0.24032 0.87387 0.0
Cd113 Cd 0.09158 0.24951 0.82818 0.0
Cd114 Cd 0.10862 0.24314 0.80277 0.0
O115 O 0.1055 0.23347 0.85145 0.0
O116 O 0.07475 0.24913 0.83203 0.0
O117 O 0.07904 0.23907 0.78885 0.0
C118 C 0.07093 0.24171 0.80401 0.0
C119 C 0.10822 0.23377 0.74686 0.0
C120 C 0.09905 0.23424 0.87769 0.0
C121 C 0.11788 0.27143 0.81249 0.0
O122 O 0.12066 0.26276 0.80516 0.0
O123 O 0.10639 0.26834 0.8207 0.0
O124 O 0.11746 0.23689 0.76964 0.0
O125 O 0.09881 0.23543 0.75658 0.0
O126 O 0.85666 0.76552 0.6339 0.0
Cd127 Cd 0.84585 0.75639 0.67933 0.0
Cd128 Cd 0.86918 0.76263 0.70549 0.0
O129 O 0.87596 0.77208 0.65657 0.0
O130 O 0.82943 0.75677 0.67429 0.0
O131 O 0.84349 0.76685 0.71807 0.0
C132 C 0.83284 0.7642 0.70227 0.0
C133 C 0.87765 0.77232 0.76145 0.0
C134 C 0.86882 0.7714 0.6302 0.0
C135 C 0.85002 0.73438 0.69619 0.0
O136 O 0.86145 0.74299 0.70392 0.0
O137 O 0.84174 0.73754 0.68721 0.0
O138 O 0.88393 0.76898 0.73997 0.0
O139 O 0.86672 0.77068 0.75038 0.0
O140 O 0.24285 0.0927 0.63136 0.0
Cd141 Cd 0.252 0.09085 0.67653 0.0
Cd142 Cd 0.24563 0.10759 0.70442 0.0
O143 O 0.23586 0.10481 0.65602 0.0
O144 O 0.25169 0.07404 0.67252 0.0
O145 O 0.2412 0.0781 0.71492 0.0
C146 C 0.24402 0.07009 0.70002 0.0
C147 C 0.23621 0.10629 0.76095 0.0
C148 C 0.23668 0.09873 0.62885 0.0
C149 C 0.27389 0.11703 0.69393 0.0
O150 O 0.26523 0.11973 0.70204 0.0
O151 O 0.2708 0.10562 0.68478 0.0
O152 O 0.23936 0.1159 0.73956 0.0
O153 O 0.23789 0.09707 0.7495 0.0
O154 O 0.9142 0.15056 0.63114 0.0
Cd155 Cd 0.91642 0.16194 0.67567 0.0
Cd156 Cd 0.89952 0.13905 0.70453 0.0
O157 O 0.90179 0.13162 0.65625 0.0
O158 O 0.93337 0.17811 0.66953 0.0
O159 O 0.92931 0.16434 0.71421 0.0
C160 C 0.93738 0.17479 0.69772 0.0
C161 C 0.90075 0.13094 0.76114 0.0
C162 C 0.90792 0.13836 0.6289 0.0
C163 C 0.89055 0.15828 0.69353 0.0
O164 O 0.88773 0.14694 0.70235 0.0
O165 O 0.90193 0.16639 0.68357 0.0
O166 O 0.89102 0.12462 0.74002 0.0
O167 O 0.91012 0.14168 0.74938 0.0
O168 O 0.90783 0.48336 0.46498 0.0
Cd169 Cd 0.91723 0.49478 0.50927 0.0
Cd170 Cd 0.91141 0.4719 0.53797 0.0
O171 O 0.90147 0.46445 0.49007 0.0
O172 O 0.91649 0.51098 0.50319 0.0
O173 O 0.90694 0.49731 0.5482 0.0
C174 C 0.90929 0.50774 0.53163 0.0
C175 C 0.90233 0.46374 0.5948 0.0
C176 C 0.90192 0.47116 0.46283 0.0
C177 C 0.93954 0.49112 0.5259 0.0
O178 O 0.93106 0.47977 0.53486 0.0
O179 O 0.9362 0.49922 0.51637 0.0
O180 O 0.90563 0.45744 0.57326 0.0
O181 O 0.90369 0.47452 0.58338 0.0
O182 O 0.52311 0.42619 0.46385 0.0
Cd183 Cd 0.51281 0.42469 0.51029 0.0
Cd184 Cd 0.53637 0.44199 0.53456 0.0
O185 O 0.54261 0.43888 0.48535 0.0
O186 O 0.4963 0.40788 0.5076 0.0
O187 O 0.5113 0.41209 0.54868 0.0
C188 C 0.50032 0.40402 0.53461 0.0
C189 C 0.54561 0.44159 0.58992 0.0
C190 C 0.53524 0.43235 0.45944 0.0
C191 C 0.51703 0.45091 0.52668 0.0
O192 O 0.52857 0.45384 0.53316 0.0
O193 O 0.50867 0.43938 0.51876 0.0
O194 O 0.55151 0.45098 0.56744 0.0
O195 O 0.53465 0.43205 0.58013 0.0
O196 O 0.58222 0.09938 0.4634 0.0
Cd197 Cd 0.58407 0.08991 0.50777 0.0
Cd198 Cd 0.56713 0.09585 0.53633 0.0
O199 O 0.56989 0.10598 0.48863 0.0
O200 O 0.60105 0.09069 0.50255 0.0
O201 O 0.59666 0.1002 0.54715 0.0
C202 C 0.60486 0.0979 0.53103 0.0
C203 C 0.56744 0.10471 0.59311 0.0
C204 C 0.57609 0.10545 0.46135 0.0
C205 C 0.55803 0.0677 0.52373 0.0
O206 O 0.55523 0.07623 0.53264 0.0
O207 O 0.56948 0.07095 0.51453 0.0
O208 O 0.55811 0.10155 0.57064 0.0
O209 O 0.57696 0.10336 0.58269 0.0
O210 O 0.82014 0.57418 0.70874 0.0
Cd211 Cd 0.83082 0.58341 0.66322 0.0
Cd212 Cd 0.80748 0.57732 0.63774 0.0
O213 O 0.80081 0.56758 0.6863 0.0
O214 O 0.84715 0.58282 0.66707 0.0
O215 O 0.83282 0.57296 0.62372 0.0
C216 C 0.84352 0.57546 0.63893 0.0
C217 C 0.79837 0.56812 0.58179 0.0
C218 C 0.80799 0.56821 0.7125 0.0
C219 C 0.82673 0.60554 0.64783 0.0
O220 O 0.81527 0.59696 0.64034 0.0
O221 O 0.83504 0.60232 0.65609 0.0
O222 O 0.7924 0.57138 0.60472 0.0
O223 O 0.80934 0.56952 0.59138 0.0
O224 O 0.43346 0.24782 0.71026 0.0
Cd225 Cd 0.42445 0.24964 0.66476 0.0
Cd226 Cd 0.43081 0.23289 0.63732 0.0
O227 O 0.44074 0.23596 0.68555 0.0
O228 O 0.42499 0.26657 0.66808 0.0
O229 O 0.43547 0.26221 0.6263 0.0
C230 C 0.43277 0.27037 0.64082 0.0
C231 C 0.43994 0.23333 0.5809 0.0
C232 C 0.43979 0.24195 0.71275 0.0
C233 C 0.40255 0.22347 0.6479 0.0
O234 O 0.41122 0.22073 0.6403 0.0
O235 O 0.40564 0.23494 0.6564 0.0
O236 O 0.43696 0.2241 0.60359 0.0
O237 O 0.43829 0.24271 0.59096 0.0
O238 O 0.76105 0.18929 0.7061 0.0
Cd239 Cd 0.75909 0.17794 0.66172 0.0
Cd240 Cd 0.77611 0.20086 0.63301 0.0
O241 O 0.77365 0.20822 0.68118 0.0
O242 O 0.74214 0.16171 0.66718 0.0
O243 O 0.74642 0.17554 0.62252 0.0
C244 C 0.73828 0.16504 0.63869 0.0
C245 C 0.77512 0.20912 0.57639 0.0
C246 C 0.76737 0.20149 0.70836 0.0
C247 C 0.78507 0.18165 0.64467 0.0
O248 O 0.78789 0.19298 0.63559 0.0
O249 O 0.77367 0.17356 0.65455 0.0
O250 O 0.78475 0.21539 0.59789 0.0
O251 O 0.76572 0.19832 0.58775 0.0
O252 O 0.43348 0.1885 0.20746 0.0
Cd253 Cd 0.42438 0.17761 0.16214 0.0
Cd254 Cd 0.4304 0.20087 0.13592 0.0
O255 O 0.43988 0.20776 0.18474 0.0
O256 O 0.42493 0.16129 0.16743 0.0
O257 O 0.43491 0.1753 0.12345 0.0
C258 C 0.43237 0.16471 0.13945 0.0
C259 C 0.43992 0.20944 0.07988 0.0
C260 C 0.43929 0.20066 0.21111 0.0
C261 C 0.4022 0.18149 0.14535 0.0
O262 O 0.41073 0.19294 0.1376 0.0
O263 O 0.40547 0.17328 0.15435 0.0
O264 O 0.43645 0.2156 0.1015 0.0
O265 O 0.43853 0.19861 0.0909 0.0
O266 O 0.81971 0.24676 0.20578 0.0
Cd267 Cd 0.83066 0.24873 0.16042 0.0
Cd268 Cd 0.80754 0.23205 0.13258 0.0
O269 O 0.80058 0.23477 0.18116 0.0
O270 O 0.84714 0.26554 0.16456 0.0
O271 O 0.83257 0.26155 0.12229 0.0
C272 C 0.84341 0.26954 0.13721 0.0
C273 C 0.79933 0.23328 0.07614 0.0
C274 C 0.80751 0.24075 0.20838 0.0
C275 C 0.82639 0.2226 0.14266 0.0
O276 O 0.81502 0.21991 0.1347 0.0
O277 O 0.83472 0.234 0.15183 0.0
O278 O 0.79291 0.22369 0.09763 0.0
O279 O 0.81022 0.24253 0.08746 0.0
O280 O 0.76026 0.57569 0.20802 0.0
Cd281 Cd 0.75876 0.58439 0.16141 0.0
Cd282 Cd 0.77565 0.57774 0.13673 0.0
O283 O 0.77247 0.56837 0.18598 0.0
O284 O 0.74197 0.58417 0.16397 0.0
O285 O 0.74611 0.57321 0.12327 0.0
C286 C 0.73806 0.57617 0.13722 0.0
C287 C 0.77511 0.56804 0.08129 0.0
C288 C 0.76621 0.56949 0.21219 0.0
C289 C 0.78509 0.60609 0.14448 0.0
O290 O 0.78783 0.59733 0.13816 0.0
O291 O 0.7736 0.60311 0.15237 0.0
O292 O 0.78434 0.57116 0.10412 0.0
O293 O 0.76579 0.56985 0.09075 0.0
O294 O 0.52273 0.09861 0.96694 0.0
Cd295 Cd 0.51183 0.08953 0.01227 0.0
Cd296 Cd 0.53508 0.0956 0.03869 0.0
O297 O 0.54197 0.10493 0.98968 0.0
O298 O 0.49551 0.0901 0.00724 0.0
O299 O 0.50959 0.10004 0.05108 0.0
C300 C 0.49897 0.09751 0.03528 0.0
C301 C 0.54356 0.10526 0.09465 0.0
C302 C 0.53489 0.10435 0.96328 0.0
C303 C 0.51574 0.06738 0.02943 0.0
O304 O 0.52717 0.07593 0.03735 0.0
O305 O 0.50754 0.07062 0.02015 0.0
O306 O 0.54977 0.10177 0.07331 0.0
O307 O 0.53273 0.1038 0.0834 0.0
O308 O 0.9095 0.42626 0.96572 0.0
Cd309 Cd 0.91838 0.42424 0.01124 0.0
Cd310 Cd 0.91185 0.44087 0.039 0.0
O311 O 0.90228 0.4382 0.99026 0.0
O312 O 0.91809 0.40744 0.00713 0.0
O313 O 0.90739 0.41137 0.04917 0.0
C314 C 0.91029 0.40341 0.03434 0.0
C315 C 0.90226 0.43952 0.09527 0.0
C316 C 0.90329 0.43225 0.96304 0.0
C317 C 0.94017 0.45035 0.02953 0.0
O318 O 0.93146 0.45302 0.03729 0.0
O319 O 0.93713 0.43896 0.02028 0.0
O320 O 0.90547 0.44915 0.07388 0.0
O321 O 0.90395 0.4303 0.08392 0.0
O322 O 0.58217 0.48572 0.96237 0.0
Cd323 Cd 0.58346 0.49545 0.01015 0.0
Cd324 Cd 0.5673 0.47164 0.03209 0.0
O325 O 0.57214 0.46606 0.98467 0.0
O326 O 0.59996 0.51233 0.00827 0.0
O327 O 0.59641 0.49692 0.04724 0.0
C328 C 0.60417 0.50816 0.03408 0.0
C329 C 0.56764 0.46318 0.08886 0.0
C330 C 0.57757 0.47368 0.95825 0.0
C331 C 0.55665 0.48941 0.02428 0.0
O332 O 0.55423 0.47785 0.02635 0.0
O333 O 0.56822 0.49857 0.02161 0.0
O334 O 0.55893 0.45648 0.06517 0.0
O335 O 0.57655 0.47457 0.07963 0.0
O336 O 0.57512 0.81787 0.79831 0.0
Cd337 Cd 0.58462 0.82916 0.84267 0.0
Cd338 Cd 0.57856 0.80626 0.87126 0.0
O339 O 0.56846 0.79893 0.82354 0.0
O340 O 0.58395 0.84541 0.83735 0.0
O341 O 0.57438 0.83157 0.882 0.0
C342 C 0.57674 0.84207 0.86582 0.0
C343 C 0.56964 0.79776 0.92801 0.0
C344 C 0.56901 0.80567 0.79626 0.0
C345 C 0.60674 0.82519 0.85881 0.0
O346 O 0.59817 0.81388 0.86773 0.0
O347 O 0.60354 0.83342 0.8495 0.0
O348 O 0.57277 0.79155 0.90561 0.0
O349 O 0.57106 0.80866 0.91753 0.0
O350 O 0.18965 0.75927 0.7982 0.0
Cd351 Cd 0.17876 0.75762 0.84341 0.0
Cd352 Cd 0.20201 0.77493 0.86961 0.0
O353 O 0.20888 0.77232 0.8208 0.0
O354 O 0.16242 0.74073 0.83855 0.0
O355 O 0.17645 0.74495 0.88259 0.0
C356 C 0.16585 0.73685 0.8668 0.0
C357 C 0.21062 0.77402 0.92564 0.0
C358 C 0.20181 0.7657 0.79453 0.0
C359 C 0.18263 0.78374 0.85967 0.0
O360 O 0.19406 0.78666 0.86774 0.0
O361 O 0.17445 0.77226 0.85064 0.0
O362 O 0.21677 0.78361 0.90394 0.0
O363 O 0.19975 0.7646 0.91476 0.0
O364 O 0.24864 0.4314 0.79894 0.0
Cd365 Cd 0.25005 0.42223 0.84466 0.0
Cd366 Cd 0.23286 0.42843 0.86986 0.0
O367 O 0.23593 0.43807 0.82117 0.0
O368 O 0.26693 0.42272 0.84091 0.0
O369 O 0.26256 0.43276 0.88398 0.0
C370 C 0.27072 0.43018 0.86887 0.0
C371 C 0.23309 0.43775 0.9257 0.0
C372 C 0.24247 0.43739 0.79503 0.0
C373 C 0.2238 0.40019 0.8602 0.0
O374 O 0.22094 0.4088 0.86747 0.0
O375 O 0.23532 0.40335 0.85206 0.0
O376 O 0.22387 0.43455 0.90282 0.0
O377 O 0.24258 0.43621 0.91612 0.0
O378 O 0.48642 0.9075 0.04312 0.0
Cd379 Cd 0.49749 0.91686 0.99829 0.0
Cd380 Cd 0.47442 0.91052 0.97034 0.0
O381 O 0.46736 0.90047 0.0183 0.0
O382 O 0.5138 0.91627 1.00281 0.0
O383 O 0.49968 0.90652 0.95889 0.0
C384 C 0.51031 0.90899 0.97449 0.0
C385 C 0.46572 0.90153 0.91381 0.0
C386 C 0.47423 0.90124 0.04548 0.0
C387 C 0.49325 0.93879 0.98193 0.0
O388 O 0.48191 0.93013 0.97356 0.0
O389 O 0.50159 0.93571 0.99098 0.0
O390 O 0.45953 0.90457 0.93655 0.0
O391 O 0.4767 0.90305 0.92386 0.0
O392 O 0.09997 0.58113 0.04343 0.0
Cd393 Cd 0.0908 0.58264 0.99787 0.0
Cd394 Cd 0.09699 0.56549 0.97228 0.0
O395 O 0.10673 0.56855 0.02083 0.0
O396 O 0.0913 0.59951 1.0022 0.0
O397 O 0.1013 0.59526 0.95873 0.0
C398 C 0.09874 0.60338 0.97422 0.0
C399 C 0.10621 0.56568 0.91627 0.0
C400 C 0.10601 0.57501 0.04712 0.0
C401 C 0.06875 0.55642 0.98223 0.0
O402 O 0.07737 0.55357 0.97487 0.0
O403 O 0.07192 0.56793 0.99043 0.0
O404 O 0.10304 0.55646 0.93917 0.0
O405 O 0.10471 0.57518 0.92592 0.0
O406 O 0.42656 0.52175 0.04649 0.0
Cd407 Cd 0.4244 0.5095 0.00458 0.0
Cd408 Cd 0.44214 0.53149 0.97218 0.0
O409 O 0.44065 0.53984 0.01996 0.0
O410 O 0.40715 0.49375 0.01092 0.0
O411 O 0.41213 0.50679 0.96384 0.0
C412 C 0.40366 0.49672 0.98105 0.0
C413 C 0.44213 0.54022 0.91535 0.0
C414 C 0.43385 0.53389 0.04742 0.0
C415 C 0.44971 0.51147 0.98816 0.0
O416 O 0.45287 0.52241 0.97481 0.0
O417 O 0.43853 0.5044 1.00136 0.0
O418 O 0.45174 0.54588 0.93723 0.0
O419 O 0.43219 0.52977 0.92634 0.0
O420 O 0.09911 0.52015 0.543 0.0
Cd421 Cd 0.09035 0.50989 0.49652 0.0
Cd422 Cd 0.09693 0.53339 0.47177 0.0
O423 O 0.10646 0.53965 0.52076 0.0
O424 O 0.09051 0.4933 0.49941 0.0
O425 O 0.10148 0.50828 0.45843 0.0
C426 C 0.09847 0.49729 0.47258 0.0
C427 C 0.10646 0.54244 0.41607 0.0
C428 C 0.10536 0.5323 0.54703 0.0
C429 C 0.06861 0.51449 0.48004 0.0
O430 O 0.07733 0.526 0.47373 0.0
O431 O 0.07163 0.50599 0.48767 0.0
O432 O 0.10342 0.54859 0.43895 0.0
O433 O 0.10466 0.53131 0.42561 0.0
O434 O 0.48647 0.58038 0.54194 0.0
Cd435 Cd 0.4974 0.58232 0.49657 0.0
Cd436 Cd 0.47416 0.56527 0.46993 0.0
O437 O 0.46721 0.56774 0.51888 0.0
O438 O 0.51376 0.59918 0.5019 0.0
O439 O 0.49973 0.59519 0.45804 0.0
C440 C 0.51035 0.6032 0.47393 0.0
C441 C 0.46619 0.56686 0.41348 0.0
C442 C 0.47431 0.57407 0.54548 0.0
C443 C 0.49337 0.55623 0.47931 0.0
O444 O 0.48194 0.55339 0.47155 0.0
O445 O 0.50162 0.56768 0.48837 0.0
O446 O 0.45968 0.55712 0.43445 0.0
O447 O 0.47702 0.57605 0.4254 0.0
O448 O 0.42775 0.90824 0.53952 0.0
Cd449 Cd 0.42614 0.91698 0.49312 0.0
Cd450 Cd 0.44303 0.91033 0.46807 0.0
O451 O 0.44004 0.90104 0.51739 0.0
O452 O 0.40937 0.91682 0.49612 0.0
O453 O 0.41337 0.90584 0.45517 0.0
C454 C 0.40539 0.90884 0.46933 0.0
C455 C 0.44176 0.90043 0.41244 0.0
C456 C 0.43376 0.90211 0.54364 0.0
C457 C 0.45246 0.93868 0.47582 0.0
O458 O 0.45519 0.92994 0.4692 0.0
O459 O 0.44099 0.93569 0.48404 0.0
O460 O 0.4513 0.90364 0.43417 0.0
O461 O 0.43258 0.9023 0.42313 0.0
O462 O 0.18781 0.43057 0.29903 0.0
Cd463 Cd 0.1776 0.42177 0.34554 0.0
Cd464 Cd 0.20115 0.4285 0.37016 0.0
O465 O 0.20733 0.43805 0.32116 0.0
O466 O 0.161 0.42192 0.34301 0.0
O467 O 0.17607 0.43289 0.38377 0.0
C468 C 0.16506 0.4299 0.36981 0.0
C469 C 0.21027 0.43808 0.42575 0.0
C470 C 0.19995 0.4369 0.29494 0.0
C471 C 0.18237 0.40013 0.36186 0.0
O472 O 0.19385 0.40892 0.36818 0.0
O473 O 0.1738 0.40307 0.35427 0.0
O474 O 0.21639 0.43501 0.40282 0.0
O475 O 0.19913 0.43628 0.41633 0.0
O476 O 0.57612 0.75961 0.3018 0.0
Cd477 Cd 0.58527 0.75783 0.34703 0.0
Cd478 Cd 0.57919 0.77499 0.37348 0.0
O479 O 0.56978 0.77251 0.32461 0.0
O480 O 0.58475 0.74097 0.34177 0.0
O481 O 0.57481 0.74502 0.3858 0.0
C482 C 0.57734 0.73698 0.36982 0.0
C483 C 0.56955 0.77375 0.42951 0.0
C484 C 0.57035 0.766 0.29821 0.0
C485 C 0.60741 0.78392 0.36389 0.0
O486 O 0.59885 0.78678 0.37191 0.0
O487 O 0.60417 0.77247 0.35469 0.0
O488 O 0.573 0.78345 0.40824 0.0
O489 O 0.57105 0.7644 0.41817 0.0
O490 O 0.24883 0.81906 0.29566 0.0
Cd491 Cd 0.25078 0.8298 0.34146 0.0
Cd492 Cd 0.2341 0.80664 0.3687 0.0
O493 O 0.23706 0.79987 0.32014 0.0
O494 O 0.26766 0.84621 0.338 0.0
O495 O 0.26346 0.83135 0.37956 0.0
C496 C 0.27155 0.84224 0.36507 0.0
C497 C 0.23458 0.79778 0.42481 0.0
C498 C 0.24297 0.80687 0.29294 0.0
C499 C 0.22465 0.82551 0.35902 0.0
O500 O 0.22193 0.81408 0.36637 0.0
O501 O 0.23609 0.8339 0.35039 0.0
O502 O 0.2253 0.79162 0.40217 0.0
O503 O 0.24397 0.8088 0.41485 0.0
H504 H 0.23376 0.1253 0.7939 0.0
H505 H 0.22935 0.12681 0.85772 0.0
H506 H 0.22417 0.0891 0.87693 0.0
H507 H 0.22889 0.08761 0.81308 0.0
H508 H 0.209 0.11232 0.9039 0.0
H509 H 0.25285 0.11132 0.94718 0.0
H510 H 0.24975 0.11319 0.90042 0.0
H511 H 0.2415 0.09762 0.92147 0.0
C512 C 0.23156 0.11725 0.81155 0.0
C513 C 0.23183 0.10639 0.79845 0.0
C514 C 0.22901 0.11813 0.84807 0.0
C515 C 0.22668 0.10818 0.87227 0.0
C516 C 0.22623 0.09701 0.85891 0.0
H517 H 0.22712 0.1126 0.10957 0.0
H518 H 0.22237 0.10348 0.04839 0.0
C519 C 0.22885 0.09615 0.82235 0.0
C520 C 0.22545 0.10993 0.91165 0.0
H521 H 0.24052 0.11352 0.99289 0.0
C522 C 0.21582 0.11247 0.92343 0.0
C523 C 0.23436 0.11013 0.93715 0.0
C524 C 0.24527 0.10803 0.92603 0.0
C525 C 0.215 0.11543 0.95984 0.0
C526 C 0.22414 0.11601 0.98503 0.0
C527 C 0.23348 0.11301 0.97355 0.0
C528 C 0.22501 0.12081 0.02259 0.0
C529 C 0.20443 0.11802 0.97098 0.0
C530 C 0.22786 0.13351 0.02847 0.0
C531 C 0.23062 0.13876 0.06333 0.0
C532 C 0.23063 0.13143 0.09307 0.0
C533 C 0.22716 0.11851 0.08734 0.0
C534 C 0.22447 0.11328 0.05237 0.0
H535 H 0.19613 0.11342 0.9521 0.0
H536 H 0.20102 0.11449 0.99887 0.0
H537 H 0.20816 0.12854 0.97046 0.0
H538 H 0.22858 0.13958 0.00585 0.0
H539 H 0.23326 0.14874 0.0667 0.0
H540 H 0.88162 0.10963 0.79426 0.0
H541 H 0.88012 0.10368 0.85805 0.0
H542 H 0.91804 0.13589 0.87695 0.0
H543 H 0.91952 0.14212 0.81311 0.0
H544 H 0.89452 0.09755 0.90383 0.0
H545 H 0.89614 0.14265 0.94774 0.0
H546 H 0.89413 0.13769 0.90095 0.0
H547 H 0.90973 0.14482 0.92179 0.0
C548 C 0.88971 0.1154 0.81184 0.0
C549 C 0.90063 0.12644 0.79865 0.0
C550 C 0.88884 0.11196 0.84834 0.0
C551 C 0.89886 0.11947 0.87245 0.0
C552 C 0.91007 0.13011 0.859 0.0
H553 H 0.89442 0.1153 0.10974 0.0
H554 H 0.90356 0.11965 0.04859 0.0
C555 C 0.91094 0.13361 0.82245 0.0
C556 C 0.89713 0.11647 0.91182 0.0
H557 H 0.89372 0.12797 0.99325 0.0
C558 C 0.89446 0.10424 0.92346 0.0
C559 C 0.89705 0.12521 0.93744 0.0
C560 C 0.8993 0.13829 0.92646 0.0
C561 C 0.89148 0.10044 0.95985 0.0
C562 C 0.89101 0.10903 0.98516 0.0
C563 C 0.89414 0.12142 0.97381 0.0
C564 C 0.88619 0.10509 0.0227 0.0
C565 C 0.88875 0.08721 0.97083 0.0
C566 C 0.87345 0.09531 0.02853 0.0
C567 C 0.86819 0.09283 0.06338 0.0
C568 C 0.87554 0.10011 0.09316 0.0
C569 C 0.88849 0.10948 0.08749 0.0
C570 C 0.89373 0.112 0.05253 0.0
H571 H 0.8933 0.08347 0.9519 0.0
H572 H 0.89224 0.08725 0.99872 0.0
H573 H 0.87822 0.08051 0.97021 0.0
H574 H 0.86737 0.09001 0.00588 0.0
H575 H 0.85819 0.08555 0.0667 0.0
H576 H 0.89469 0.7823 0.11008 0.0
H577 H 0.89021 0.78708 0.04904 0.0
H578 H 0.91751 0.77745 0.00452 0.0
H579 H 0.92214 0.77275 0.06526 0.0
H580 H 0.91779 0.79961 0.97168 0.0
H581 H 0.86892 0.7564 0.97948 0.0
H582 H 0.87324 0.7681 0.01498 0.0
H583 H 0.88149 0.75916 0.01113 0.0
C584 C 0.89993 0.78143 0.08741 0.0
C585 C 0.90867 0.77699 0.09258 0.0
C586 C 0.8973 0.78411 0.05252 0.0
C587 C 0.90337 0.7824 0.02225 0.0
C588 C 0.91268 0.77877 0.02753 0.0
H589 H 0.89971 0.77566 0.79267 0.0
H590 H 0.90612 0.78033 0.85599 0.0
C591 C 0.91529 0.77607 0.06231 0.0
C592 C 0.89936 0.78335 0.9849 0.0
H593 H 0.87478 0.7677 0.9246 0.0
C594 C 0.90834 0.79273 0.96142 0.0
C595 C 0.88701 0.77438 0.97164 0.0
C596 C 0.87709 0.76387 0.99541 0.0
C597 C 0.90538 0.79324 0.92481 0.0
C598 C 0.89322 0.78393 0.91118 0.0
C599 C 0.88409 0.77485 0.93503 0.0
C600 C 0.89007 0.78268 0.87188 0.0
C601 C 0.91533 0.80373 0.90111 0.0
C602 C 0.87883 0.78234 0.85958 0.0
C603 C 0.87504 0.77952 0.82328 0.0
C604 C 0.88239 0.77692 0.79865 0.0
C605 C 0.89385 0.77768 0.81082 0.0
C606 C 0.8976 0.78046 0.84706 0.0
H607 H 0.9219 0.81233 0.91733 0.0
H608 H 0.92125 0.80017 0.8878 0.0
H609 H 0.91079 0.80664 0.87974 0.0
H610 H 0.87281 0.78392 0.87829 0.0
H611 H 0.86615 0.77897 0.81482 0.0
H612 H 0.15301 0.23122 0.43731 0.0
H613 H 0.14512 0.22709 0.4996 0.0
H614 H 0.10875 0.22214 0.46378 0.0
H615 H 0.11647 0.22602 0.40118 0.0
H616 H 0.13864 0.24302 0.53411 0.0
H617 H 0.09728 0.1932 0.53729 0.0
H618 H 0.10891 0.19907 0.50094 0.0
H619 H 0.09636 0.20307 0.50223 0.0
C620 C 0.14321 0.22894 0.44249 0.0
C621 C 0.1354 0.22903 0.41423 0.0
C622 C 0.13872 0.22658 0.47816 0.0
C623 C 0.12633 0.22425 0.48641 0.0
C624 C 0.11826 0.22367 0.45806 0.0
H625 H 0.09216 0.2296 0.68919 0.0
H626 H 0.0957 0.22596 0.62584 0.0
C627 C 0.12272 0.22595 0.42224 0.0
C628 C 0.12255 0.22406 0.52485 0.0
H629 H 0.10008 0.20626 0.58907 0.0
C630 C 0.13027 0.23492 0.54615 0.0
C631 C 0.11152 0.21357 0.54044 0.0
C632 C 0.10309 0.20151 0.51917 0.0
C633 C 0.12726 0.23563 0.58246 0.0
C634 C 0.11632 0.22512 0.59818 0.0
C635 C 0.10849 0.21428 0.57692 0.0
C636 C 0.11308 0.22535 0.63683 0.0
C637 C 0.13571 0.24774 0.6036 0.0
C638 C 0.12141 0.22575 0.66404 0.0
C639 C 0.11945 0.22785 0.70011 0.0
C640 C 0.10906 0.22955 0.70971 0.0
C641 C 0.10027 0.22836 0.68268 0.0
C642 C 0.10226 0.22627 0.64649 0.0
H643 H 0.14193 0.25593 0.58555 0.0
H644 H 0.12982 0.2505 0.62053 0.0
H645 H 0.14203 0.24603 0.62192 0.0
H646 H 0.12973 0.22491 0.65715 0.0
H647 H 0.12635 0.22861 0.72025 0.0
H648 H 0.77559 0.92124 0.43938 0.0
H649 H 0.78039 0.91679 0.50012 0.0
H650 H 0.78759 0.88763 0.45689 0.0
H651 H 0.78272 0.89196 0.39584 0.0
H652 H 0.7693 0.87897 0.51211 0.0
H653 H 0.81303 0.92368 0.55412 0.0
H654 H 0.8008 0.92646 0.53575 0.0
H655 H 0.80827 0.91992 0.50724 0.0
C656 C 0.77847 0.91407 0.44258 0.0
C657 C 0.7787 0.90692 0.41268 0.0
C658 C 0.78131 0.9116 0.47737 0.0
C659 C 0.78447 0.90195 0.48303 0.0
C660 C 0.78525 0.89517 0.45309 0.0
H661 H 0.78096 0.86457 0.69176 0.0
H662 H 0.78578 0.871 0.62808 0.0
C663 C 0.78249 0.89769 0.41819 0.0
C664 C 0.78538 0.89797 0.52049 0.0
H665 H 0.80029 0.90939 0.60192 0.0
C666 C 0.77623 0.88553 0.53163 0.0
C667 C 0.79438 0.90657 0.5459 0.0
C668 C 0.80476 0.91987 0.53511 0.0
C669 C 0.77537 0.88167 0.56793 0.0
C670 C 0.78412 0.8904 0.59366 0.0
C671 C 0.79359 0.9027 0.58221 0.0
C672 C 0.78286 0.88732 0.63297 0.0
C673 C 0.76463 0.86852 0.57871 0.0
C674 C 0.78027 0.89473 0.65727 0.0
C675 C 0.77768 0.89117 0.69368 0.0
C676 C 0.7776 0.88012 0.7066 0.0
C677 C 0.78084 0.87307 0.68263 0.0
C678 C 0.78352 0.87669 0.64617 0.0
H679 H 0.75711 0.86416 0.55741 0.0
H680 H 0.7686 0.86204 0.58314 0.0
H681 H 0.76002 0.869 0.60429 0.0
H682 H 0.77977 0.903 0.64776 0.0
H683 H 0.77527 0.89685 0.7114 0.0
H684 H 0.11121 0.88111 0.71046 0.0
H685 H 0.10528 0.87952 0.64663 0.0
H686 H 0.13775 0.91725 0.6272 0.0
H687 H 0.14395 0.91881 0.69107 0.0
H688 H 0.09937 0.89389 0.60017 0.0
H689 H 0.14433 0.89502 0.55734 0.0
H690 H 0.13934 0.89319 0.60408 0.0
H691 H 0.14662 0.90873 0.58285 0.0
C692 C 0.11704 0.88915 0.69276 0.0
C693 C 0.12815 0.90003 0.7058 0.0
C694 C 0.11361 0.88822 0.65623 0.0
C695 C 0.12121 0.89815 0.63196 0.0
C696 C 0.13191 0.90935 0.64527 0.0
H697 H 0.11737 0.89346 0.3947 0.0
H698 H 0.12166 0.90263 0.4558 0.0
C699 C 0.13539 0.91026 0.68184 0.0
C700 C 0.11825 0.89634 0.59257 0.0
H701 H 0.1298 0.8927 0.51151 0.0
C702 C 0.10607 0.89374 0.58071 0.0
C703 C 0.12699 0.89615 0.56717 0.0
C704 C 0.14001 0.89831 0.5784 0.0
C705 C 0.10231 0.89073 0.5443 0.0
C706 C 0.11091 0.89015 0.51921 0.0
C707 C 0.12324 0.89321 0.53078 0.0
C708 C 0.10701 0.88531 0.48167 0.0
C709 C 0.08913 0.88806 0.53307 0.0
C710 C 0.0972 0.87259 0.47585 0.0
C711 C 0.09475 0.8673 0.44103 0.0
C712 C 0.10209 0.87462 0.41128 0.0
C713 C 0.1115 0.88756 0.41694 0.0
C714 C 0.11399 0.89282 0.45186 0.0
H715 H 0.08539 0.89265 0.55185 0.0
H716 H 0.08925 0.89156 0.50513 0.0
H717 H 0.08239 0.87754 0.53366 0.0
H718 H 0.09185 0.86653 0.49849 0.0
H719 H 0.08745 0.85731 0.43772 0.0
H720 H 0.77713 0.88093 0.21676 0.0
H721 H 0.78077 0.87792 0.15334 0.0
H722 H 0.78161 0.91316 0.1252 0.0
H723 H 0.77802 0.91632 0.18888 0.0
H724 H 0.76294 0.87562 0.0992 0.0
H725 H 0.81238 0.91507 0.06785 0.0
H726 H 0.80697 0.90976 0.11362 0.0
H727 H 0.80197 0.91965 0.09034 0.0
C728 C 0.77834 0.88819 0.19727 0.0
C729 C 0.77722 0.89884 0.20788 0.0
C730 C 0.78043 0.88645 0.16101 0.0
C731 C 0.78154 0.89535 0.1346 0.0
C732 C 0.78099 0.90629 0.14524 0.0
H733 H 0.779 0.89123 0.89882 0.0
H734 H 0.78247 0.89886 0.96163 0.0
C735 C 0.77888 0.90804 0.18162 0.0
C736 C 0.78178 0.89234 0.09571 0.0
H737 H 0.79996 0.90215 0.01856 0.0
C738 C 0.77106 0.88139 0.08161 0.0
C739 C 0.79232 0.89999 0.07276 0.0
C740 C 0.80413 0.91174 0.08681 0.0
C741 C 0.77054 0.87786 0.04519 0.0
C742 C 0.78119 0.88531 0.02234 0.0
C743 C 0.79187 0.8964 0.03623 0.0
C744 C 0.78122 0.88162 0.98396 0.0
C745 C 0.75845 0.86631 0.03135 0.0
C746 C 0.77998 0.86966 0.97554 0.0
C747 C 0.7779 0.86523 0.93981 0.0
C748 C 0.77719 0.87276 0.91168 0.0
C749 C 0.77946 0.88517 0.91983 0.0
C750 C 0.78144 0.88956 0.95572 0.0
H751 H 0.75009 0.86381 0.04929 0.0
H752 H 0.75607 0.86803 0.00358 0.0
H753 H 0.75993 0.8579 0.03041 0.0
H754 H 0.78007 0.86351 0.99685 0.0
H755 H 0.77635 0.85569 0.93445 0.0
H756 H 0.09021 0.86472 0.19115 0.0
H757 H 0.09201 0.87101 0.12728 0.0
H758 H 0.13007 0.90286 0.14712 0.0
H759 H 0.12824 0.89686 0.21093 0.0
H760 H 0.11617 0.90936 0.10096 0.0
H761 H 0.11373 0.86389 0.05701 0.0
H762 H 0.10012 0.8619 0.08252 0.0
H763 H 0.11562 0.86876 0.10387 0.0
C764 C 0.09889 0.87316 0.18199 0.0
C765 C 0.10913 0.88021 0.20608 0.0
C766 C 0.09994 0.87669 0.14543 0.0
C767 C 0.11128 0.88725 0.13225 0.0
C768 C 0.12125 0.89465 0.15662 0.0
H769 H 0.15233 0.9207 0.93766 0.0
H770 H 0.14331 0.91632 0.9987 0.0
C771 C 0.12019 0.89118 0.19313 0.0
C772 C 0.11317 0.89029 0.09291 0.0
H773 H 0.11639 0.87866 0.01147 0.0
C774 C 0.11611 0.90261 0.08132 0.0
C775 C 0.11311 0.88148 0.06727 0.0
C776 C 0.11058 0.8683 0.07819 0.0
C777 C 0.11919 0.90642 0.04497 0.0
C778 C 0.11948 0.89774 0.01965 0.0
C779 C 0.11611 0.88528 0.03093 0.0
C780 C 0.12429 0.90162 0.98207 0.0
C781 C 0.12222 0.91975 0.03404 0.0
C782 C 0.11658 0.89488 0.95231 0.0
C783 C 0.12172 0.89736 0.91724 0.0
C784 C 0.13474 0.90651 0.91137 0.0
C785 C 0.14228 0.9136 0.94113 0.0
C786 C 0.13711 0.91116 0.97609 0.0
H787 H 0.11791 0.92369 0.05313 0.0
H788 H 0.1328 0.92624 0.03435 0.0
H789 H 0.11869 0.91978 0.00625 0.0
H790 H 0.10668 0.88742 0.95636 0.0
H791 H 0.11564 0.89169 0.89501 0.0
H792 H 0.11567 0.22634 0.90111 0.0
H793 H 0.11953 0.2225 0.96372 0.0
H794 H 0.08823 0.22767 0.99957 0.0
H795 H 0.08447 0.23177 0.93725 0.0
H796 H 0.11064 0.24349 0.03413 0.0
H797 H 0.10196 0.19358 0.03719 0.0
H798 H 0.11279 0.20343 1.00216 0.0
H799 H 0.09626 0.19952 1.00084 0.0
C800 C 0.10939 0.22634 0.92218 0.0
C801 C 0.09981 0.22946 0.91416 0.0
C802 C 0.11158 0.22408 0.95801 0.0
C803 C 0.10412 0.22472 0.98637 0.0
C804 C 0.0941 0.22711 0.97813 0.0
H805 H 0.10833 0.22888 0.22025 0.0
H806 H 0.10132 0.22531 0.15708 0.0
C807 C 0.09196 0.22945 0.94244 0.0
C808 C 0.1077 0.22451 0.02481 0.0
H809 H 0.11225 0.20661 0.089 0.0
C810 C 0.11088 0.23537 0.04615 0.0
C811 C 0.10818 0.21398 0.04038 0.0
C812 C 0.10451 0.20191 0.01909 0.0
C813 C 0.11458 0.23605 0.08246 0.0
C814 C 0.11494 0.2255 0.09816 0.0
C815 C 0.11191 0.21466 0.07686 0.0
C816 C 0.1184 0.22569 0.13682 0.0
C817 C 0.11828 0.24816 0.10365 0.0
C818 C 0.13009 0.22654 0.14652 0.0
C819 C 0.13414 0.22855 0.18275 0.0
C820 C 0.12652 0.22974 0.20977 0.0
C821 C 0.11448 0.22812 0.20011 0.0
C822 C 0.11045 0.2261 0.16401 0.0
H823 H 0.12028 0.25637 0.08563 0.0
H824 H 0.11025 0.24647 0.12195 0.0
H825 H 0.1269 0.25087 0.1206 0.0
H826 H 0.13634 0.22622 0.12589 0.0
H827 H 0.14345 0.22973 0.18929 0.0
H828 H 0.91746 0.77573 0.31748 0.0
H829 H 0.91403 0.77914 0.38114 0.0
H830 H 0.87984 0.78013 0.35127 0.0
H831 H 0.88311 0.77665 0.28787 0.0
H832 H 0.90972 0.79868 0.41881 0.0
H833 H 0.86788 0.74903 0.42231 0.0
H834 H 0.87987 0.75454 0.38699 0.0
H835 H 0.86763 0.75897 0.38628 0.0
C836 C 0.90933 0.7769 0.32438 0.0
C837 C 0.90047 0.77577 0.29765 0.0
C838 C 0.9074 0.77885 0.36075 0.0
C839 C 0.89658 0.77969 0.3709 0.0
C840 C 0.88816 0.77934 0.34401 0.0
H841 H 0.85694 0.7741 0.5705 0.0
H842 H 0.86484 0.77807 0.50824 0.0
C843 C 0.89006 0.77737 0.30777 0.0
C844 C 0.89344 0.77986 0.40968 0.0
H845 H 0.87119 0.76193 0.47387 0.0
C846 C 0.90133 0.79066 0.431 0.0
C847 C 0.88253 0.76933 0.42545 0.0
C848 C 0.87402 0.75725 0.40425 0.0
C849 C 0.89835 0.79134 0.46756 0.0
C850 C 0.88732 0.78085 0.48315 0.0
C851 C 0.87957 0.77001 0.46182 0.0
C852 C 0.88354 0.78069 0.52157 0.0
C853 C 0.90683 0.80337 0.48889 0.0
C854 C 0.89155 0.78119 0.55 0.0
C855 C 0.88707 0.779 0.58581 0.0
C856 C 0.87444 0.7761 0.59374 0.0
C857 C 0.86669 0.77625 0.56539 0.0
C858 C 0.87119 0.77851 0.52973 0.0
H859 H 0.91273 0.81167 0.47084 0.0
H860 H 0.90103 0.80587 0.507 0.0
H861 H 0.91347 0.80172 0.50598 0.0
H862 H 0.90102 0.78261 0.54434 0.0
H863 H 0.89327 0.77888 0.60694 0.0
H864 H 0.22731 0.11455 0.60947 0.0
H865 H 0.22242 0.1187 0.54823 0.0
H866 H 0.2303 0.08991 0.5057 0.0
H867 H 0.23514 0.08565 0.56664 0.0
H868 H 0.24077 0.12749 0.49279 0.0
H869 H 0.19734 0.08229 0.4519 0.0
H870 H 0.20212 0.08628 0.49869 0.0
H871 H 0.20977 0.07985 0.47047 0.0
C872 C 0.2277 0.10887 0.58723 0.0
C873 C 0.23167 0.09979 0.59301 0.0
C874 C 0.22493 0.11129 0.55222 0.0
C875 C 0.22588 0.10454 0.52243 0.0
C876 C 0.22926 0.09507 0.52833 0.0
H877 H 0.2342 0.10908 0.29358 0.0
H878 H 0.23008 0.10312 0.35742 0.0
C879 C 0.23211 0.0927 0.56323 0.0
C880 C 0.22484 0.10837 0.48489 0.0
H881 H 0.20977 0.0966 0.40385 0.0
C882 C 0.23384 0.12083 0.47344 0.0
C883 C 0.21584 0.09963 0.45972 0.0
C884 C 0.20563 0.0863 0.47084 0.0
C885 C 0.23455 0.12458 0.43709 0.0
C886 C 0.22578 0.11572 0.41161 0.0
C887 C 0.21647 0.1034 0.42336 0.0
C888 C 0.22685 0.11871 0.37224 0.0
C889 C 0.24513 0.13777 0.42598 0.0
C890 C 0.226 0.12922 0.35902 0.0
C891 C 0.22845 0.13274 0.32244 0.0
C892 C 0.23167 0.12569 0.29838 0.0
C893 C 0.23181 0.11475 0.31136 0.0
C894 C 0.22943 0.11131 0.34789 0.0
H895 H 0.25272 0.14224 0.44705 0.0
H896 H 0.24967 0.1373 0.40025 0.0
H897 H 0.24102 0.14413 0.42168 0.0
H898 H 0.22373 0.1349 0.37716 0.0
H899 H 0.22817 0.14116 0.31326 0.0
H900 H 0.9205 0.14971 0.56595 0.0
H901 H 0.91577 0.14043 0.50519 0.0
H902 H 0.88758 0.10381 0.54935 0.0
H903 H 0.89215 0.11303 0.61043 0.0
H904 H 0.91555 0.11844 0.4726 0.0
H905 H 0.86706 0.11376 0.47888 0.0
H906 H 0.87957 0.1233 0.51101 0.0
H907 H 0.871 0.10609 0.51447 0.0
C908 C 0.91342 0.13962 0.56293 0.0
C909 C 0.90659 0.13216 0.59311 0.0
C910 C 0.91075 0.13433 0.52812 0.0
C911 C 0.90117 0.1215 0.52272 0.0
C912 C 0.89487 0.1138 0.55291 0.0
H913 H 0.86463 0.08836 0.31395 0.0
H914 H 0.87092 0.08991 0.37774 0.0
C915 C 0.89756 0.11907 0.58783 0.0
C916 C 0.89722 0.1166 0.48527 0.0
H917 H 0.87295 0.1082 0.4242 0.0
C918 C 0.90619 0.11606 0.46206 0.0
C919 C 0.88498 0.11348 0.47163 0.0
C920 C 0.87509 0.11424 0.49509 0.0
C921 C 0.90334 0.1127 0.42536 0.0
C922 C 0.8913 0.1101 0.41136 0.0
C923 C 0.88216 0.11018 0.43493 0.0
C924 C 0.88831 0.10833 0.37196 0.0
C925 C 0.91328 0.11203 0.40194 0.0
C926 C 0.89603 0.1181 0.34741 0.0
C927 C 0.89249 0.11723 0.311 0.0
C928 C 0.88106 0.10661 0.29838 0.0
C929 C 0.87351 0.09665 0.32276 0.0
C930 C 0.87708 0.09753 0.35924 0.0
H931 H 0.91971 0.10985 0.41835 0.0
H932 H 0.90871 0.10461 0.38049 0.0
H933 H 0.91933 0.12148 0.38872 0.0
H934 H 0.90455 0.12669 0.35668 0.0
H935 H 0.89849 0.12511 0.29305 0.0
H936 H 0.89979 0.45855 0.12802 0.0
H937 H 0.89538 0.46012 0.19181 0.0
H938 H 0.89013 0.42239 0.21128 0.0
H939 H 0.89485 0.42086 0.14746 0.0
H940 H 0.87507 0.44574 0.23813 0.0
H941 H 0.91887 0.44461 0.28133 0.0
H942 H 0.91574 0.44645 0.23456 0.0
H943 H 0.90747 0.4309 0.25576 0.0
C944 C 0.89757 0.45051 0.14572 0.0
C945 C 0.89783 0.43964 0.13271 0.0
C946 C 0.89503 0.45142 0.18222 0.0
C947 C 0.89268 0.44149 0.2065 0.0
C948 C 0.89221 0.4303 0.19321 0.0
H949 H 0.89327 0.44607 0.44375 0.0
H950 H 0.88845 0.43693 0.38261 0.0
C951 C 0.89483 0.4294 0.15667 0.0
C952 C 0.89149 0.44328 0.24587 0.0
H953 H 0.90659 0.4469 0.32706 0.0
C954 C 0.88189 0.44588 0.25765 0.0
C955 C 0.9004 0.44347 0.27135 0.0
C956 C 0.91128 0.44132 0.26022 0.0
C957 C 0.88111 0.44888 0.29404 0.0
C958 C 0.89026 0.44944 0.31921 0.0
C959 C 0.89955 0.4464 0.30773 0.0
C960 C 0.89116 0.45427 0.35676 0.0
C961 C 0.87058 0.45154 0.30519 0.0
C962 C 0.89407 0.46699 0.36261 0.0
C963 C 0.89686 0.47226 0.39744 0.0
C964 C 0.89685 0.46492 0.4272 0.0
C965 C 0.89333 0.45198 0.42151 0.0
C966 C 0.8906 0.44674 0.38656 0.0
H967 H 0.86227 0.44696 0.28633 0.0
H968 H 0.86718 0.44803 0.33309 0.0
H969 H 0.87436 0.46206 0.30464 0.0
H970 H 0.8948 0.47306 0.33997 0.0
H971 H 0.89955 0.48225 0.40078 0.0
H972 H 0.54989 0.43975 0.11573 0.0
H973 H 0.54637 0.43292 0.17909 0.0
H974 H 0.57944 0.46878 0.21051 0.0
H975 H 0.58311 0.47572 0.14699 0.0
H976 H 0.57569 0.44482 0.24799 0.0
H977 H 0.53303 0.4514 0.24909 0.0
H978 H 0.53353 0.44158 0.21308 0.0
H979 H 0.54532 0.45838 0.21468 0.0
C980 C 0.55656 0.44613 0.13598 0.0
C981 C 0.5667 0.45835 0.12633 0.0
C982 C 0.55451 0.4422 0.17218 0.0
C983 C 0.56255 0.45042 0.19945 0.0
C984 C 0.57312 0.46232 0.18981 0.0
H985 H 0.55955 0.44906 0.43487 0.0
H986 H 0.567 0.45256 0.37204 0.0
C987 C 0.57518 0.46627 0.15352 0.0
C988 C 0.55923 0.44701 0.23808 0.0
H989 H 0.53673 0.44258 0.30155 0.0
C990 C 0.56719 0.44432 0.25983 0.0
C991 C 0.54816 0.44643 0.25335 0.0
C992 C 0.53954 0.44969 0.23154 0.0
C993 C 0.56417 0.44078 0.29643 0.0
C994 C 0.55306 0.44015 0.31166 0.0
C995 C 0.54519 0.44294 0.28981 0.0
C996 C 0.54937 0.43689 0.35029 0.0
C997 C 0.57275 0.43747 0.31819 0.0
C998 C 0.53702 0.42687 0.35912 0.0
C999 C 0.53268 0.42495 0.39494 0.0
C1000 C 0.54061 0.43302 0.42277 0.0
C1001 C 0.55322 0.44262 0.41416 0.0
C1002 C 0.55753 0.4446 0.37821 0.0
H1003 H 0.57851 0.43479 0.30041 0.0
H1004 H 0.57954 0.44597 0.33434 0.0
H1005 H 0.56706 0.42941 0.33718 0.0
H1006 H 0.53055 0.4208 0.33804 0.0
H1007 H 0.52293 0.41743 0.40059 0.0
H1008 H 0.58933 0.10754 0.39905 0.0
H1009 H 0.58491 0.11241 0.33837 0.0
H1010 H 0.55571 0.11953 0.38168 0.0
H1011 H 0.56001 0.11459 0.44268 0.0
H1012 H 0.54709 0.10131 0.32634 0.0
H1013 H 0.59181 0.14508 0.28459 0.0
H1014 H 0.59459 0.13282 0.30282 0.0
H1015 H 0.58804 0.14027 0.33144 0.0
C1016 C 0.58216 0.11042 0.39589 0.0
C1017 C 0.57499 0.11061 0.42579 0.0
C1018 C 0.5797 0.11329 0.36112 0.0
C1019 C 0.57006 0.11645 0.3555 0.0
C1020 C 0.56325 0.11719 0.38545 0.0
H1021 H 0.53271 0.11312 0.14687 0.0
H1022 H 0.53917 0.11792 0.21054 0.0
C1023 C 0.56575 0.11439 0.42033 0.0
C1024 C 0.56609 0.1174 0.31805 0.0
H1025 H 0.57754 0.13238 0.2367 0.0
C1026 C 0.55365 0.10826 0.30686 0.0
C1027 C 0.5747 0.12642 0.29269 0.0
C1028 C 0.58799 0.13679 0.30353 0.0
C1029 C 0.5498 0.10743 0.27056 0.0
C1030 C 0.55855 0.11621 0.24488 0.0
C1031 C 0.57084 0.12566 0.25637 0.0
C1032 C 0.55547 0.11499 0.20556 0.0
C1033 C 0.53665 0.0967 0.25973 0.0
C1034 C 0.56287 0.1124 0.18122 0.0
C1035 C 0.5593 0.10981 0.14481 0.0
C1036 C 0.54825 0.10975 0.13195 0.0
C1037 C 0.54122 0.113 0.15596 0.0
C1038 C 0.54485 0.11566 0.19242 0.0
H1039 H 0.53229 0.08917 0.28097 0.0
H1040 H 0.53018 0.10069 0.25533 0.0
H1041 H 0.53715 0.09212 0.2341 0.0
H1042 H 0.57113 0.11188 0.1907 0.0
H1043 H 0.56497 0.10739 0.12707 0.0
H1044 H 0.81992 0.56535 0.77184 0.0
H1045 H 0.81203 0.56115 0.83412 0.0
H1046 H 0.77579 0.5566 0.79854 0.0
H1047 H 0.78352 0.56054 0.73595 0.0
H1048 H 0.80573 0.57711 0.86912 0.0
H1049 H 0.76407 0.52746 0.87144 0.0
H1050 H 0.7757 0.53334 0.8351 0.0
H1051 H 0.76324 0.53748 0.83664 0.0
C1052 C 0.81016 0.56315 0.77707 0.0
C1053 C 0.80239 0.56336 0.74888 0.0
C1054 C 0.80566 0.56075 0.81274 0.0
C1055 C 0.7933 0.5585 0.82106 0.0
C1056 C 0.78527 0.55806 0.79276 0.0
H1057 H 0.75913 0.56391 0.02349 0.0
H1058 H 0.7627 0.56021 0.96024 0.0
C1059 C 0.78974 0.56038 0.75695 0.0
C1060 C 0.78953 0.55825 0.85953 0.0
H1061 H 0.76692 0.54046 0.92344 0.0
C1062 C 0.7973 0.56903 0.88102 0.0
C1063 C 0.77843 0.54779 0.87494 0.0
C1064 C 0.76993 0.53581 0.85346 0.0
C1065 C 0.79428 0.5697 0.91735 0.0
C1066 C 0.78327 0.55922 0.93289 0.0
C1067 C 0.77539 0.54846 0.91144 0.0
C1068 C 0.77997 0.55943 0.97149 0.0
C1069 C 0.8028 0.58174 0.93869 0.0
C1070 C 0.78823 0.55974 0.99883 0.0
C1071 C 0.78624 0.56188 0.03485 0.0
C1072 C 0.77592 0.5637 0.04427 0.0
C1073 C 0.76719 0.56257 0.01712 0.0
C1074 C 0.7692 0.56045 0.98099 0.0
H1075 H 0.80911 0.58994 0.92078 0.0
H1076 H 0.79696 0.58455 0.95563 0.0
H1077 H 0.80904 0.57991 0.95701 0.0
H1078 H 0.79651 0.55881 0.99207 0.0
H1079 H 0.7931 0.56259 0.05509 0.0
H1080 H 0.44102 0.25481 0.77516 0.0
H1081 H 0.44585 0.2505 0.83608 0.0
H1082 H 0.45436 0.2222 0.79314 0.0
H1083 H 0.4495 0.2264 0.73193 0.0
H1084 H 0.43578 0.21304 0.84814 0.0
H1085 H 0.47882 0.25836 0.89048 0.0
H1086 H 0.46634 0.26067 0.87166 0.0
H1087 H 0.47422 0.25446 0.84354 0.0
C1088 C 0.4442 0.24787 0.77848 0.0
C1089 C 0.44481 0.24091 0.7486 0.0
C1090 C 0.44703 0.24547 0.81337 0.0
C1091 C 0.45058 0.23611 0.81914 0.0
C1092 C 0.45172 0.22953 0.78925 0.0
H1093 H 0.44796 0.19887 0.02733 0.0
H1094 H 0.45263 0.20542 0.96369 0.0
C1095 C 0.44896 0.23197 0.75426 0.0
C1096 C 0.45157 0.2322 0.85661 0.0
H1097 H 0.46639 0.2438 0.93804 0.0
C1098 C 0.44262 0.21968 0.86769 0.0
C1099 C 0.46045 0.24091 0.88205 0.0
C1100 C 0.47059 0.25432 0.87131 0.0
C1101 C 0.44186 0.21582 0.90395 0.0
C1102 C 0.45052 0.22464 0.92971 0.0
C1103 C 0.45977 0.23704 0.91832 0.0
C1104 C 0.44937 0.22152 0.96899 0.0
C1105 C 0.43132 0.20256 0.91466 0.0
C1106 C 0.44666 0.22878 0.9935 0.0
C1107 C 0.44416 0.22517 0.0299 0.0
C1108 C 0.44431 0.21419 0.04257 0.0
C1109 C 0.44767 0.2073 0.01838 0.0
C1110 C 0.45026 0.21099 0.98194 0.0
H1111 H 0.42378 0.19811 0.89345 0.0
H1112 H 0.4355 0.19624 0.91878 0.0
H1113 H 0.4267 0.20288 0.94039 0.0
H1114 H 0.44598 0.23697 0.98419 0.0
H1115 H 0.44165 0.23072 0.04779 0.0
H1116 H 0.75393 0.19035 0.7704 0.0
H1117 H 0.75837 0.1995 0.83126 0.0
H1118 H 0.78813 0.23566 0.78877 0.0
H1119 H 0.78381 0.22656 0.72758 0.0
H1120 H 0.7963 0.22568 0.84429 0.0
H1121 H 0.75189 0.22557 0.88499 0.0
H1122 H 0.7489 0.21048 0.86665 0.0
H1123 H 0.75574 0.22452 0.83823 0.0
C1124 C 0.76123 0.20034 0.77378 0.0
C1125 C 0.76855 0.2077 0.74405 0.0
C1126 C 0.7637 0.20559 0.80865 0.0
C1127 C 0.7735 0.21831 0.81456 0.0
C1128 C 0.78047 0.22585 0.78478 0.0
H1129 H 0.81058 0.25187 0.02374 0.0
H1130 H 0.80433 0.25025 0.9599 0.0
C1131 C 0.77796 0.22063 0.7498 0.0
C1132 C 0.77741 0.22312 0.85212 0.0
H1133 H 0.76592 0.22683 0.93318 0.0
C1134 C 0.78976 0.22617 0.86361 0.0
C1135 C 0.76883 0.22367 0.87728 0.0
C1136 C 0.75564 0.221 0.86613 0.0
C1137 C 0.79353 0.22911 0.89999 0.0
C1138 C 0.7848 0.22931 0.92546 0.0
C1139 C 0.77261 0.22669 0.91367 0.0
C1140 C 0.7878 0.23115 0.96483 0.0
C1141 C 0.80656 0.23128 0.91113 0.0
C1142 C 0.78022 0.22124 0.98918 0.0
C1143 C 0.78367 0.2222 0.0257 0.0
C1144 C 0.79479 0.2331 0.03864 0.0
C1145 C 0.80201 0.24331 0.01459 0.0
C1146 C 0.7985 0.24236 0.97803 0.0
H1147 H 0.81086 0.22798 0.89006 0.0
H1148 H 0.81317 0.24171 0.91551 0.0
H1149 H 0.80591 0.22619 0.93683 0.0
H1150 H 0.77189 0.21253 0.97966 0.0
H1151 H 0.77786 0.21419 0.04347 0.0
H1152 H 0.44381 0.24941 0.5235 0.0
H1153 H 0.4472 0.24594 0.45988 0.0
H1154 H 0.44852 0.21196 0.49012 0.0
H1155 H 0.44505 0.21526 0.55349 0.0
H1156 H 0.46677 0.24179 0.42207 0.0
H1157 H 0.41731 0.19962 0.41949 0.0
H1158 H 0.42279 0.21164 0.4547 0.0
H1159 H 0.42738 0.19953 0.45535 0.0
C1160 C 0.44505 0.24133 0.51669 0.0
C1161 C 0.444 0.23252 0.54352 0.0
C1162 C 0.447 0.23937 0.48034 0.0
C1163 C 0.44792 0.22859 0.47031 0.0
C1164 C 0.44767 0.22024 0.49729 0.0
H1165 H 0.44225 0.1889 0.27067 0.0
H1166 H 0.44632 0.19684 0.33289 0.0
C1167 C 0.4457 0.22217 0.53352 0.0
C1168 C 0.44805 0.2254 0.43156 0.0
H1169 H 0.43012 0.20301 0.36769 0.0
C1170 C 0.45877 0.23334 0.41004 0.0
C1171 C 0.43755 0.21441 0.41599 0.0
C1172 C 0.42554 0.20584 0.43739 0.0
C1173 C 0.4594 0.23035 0.37346 0.0
C1174 C 0.44895 0.21925 0.35806 0.0
C1175 C 0.43819 0.21144 0.37959 0.0
C1176 C 0.44872 0.21546 0.31962 0.0
C1177 C 0.47135 0.2389 0.3519 0.0
C1178 C 0.44907 0.22342 0.29123 0.0
C1179 C 0.44682 0.21892 0.25545 0.0
C1180 C 0.44402 0.20632 0.2475 0.0
C1181 C 0.44432 0.19863 0.2758 0.0
C1182 C 0.44664 0.20315 0.31144 0.0
H1183 H 0.47968 0.24486 0.3698 0.0
H1184 H 0.47388 0.23314 0.33368 0.0
H1185 H 0.46958 0.24548 0.3349 0.0
H1186 H 0.45041 0.23286 0.29692 0.0
H1187 H 0.44658 0.22507 0.23436 0.0
H1188 H 0.79406 0.23094 0.54479 0.0
H1189 H 0.79592 0.23721 0.4813 0.0
H1190 H 0.75886 0.20411 0.45925 0.0
H1191 H 0.75702 0.19759 0.52291 0.0
H1192 H 0.77701 0.20583 0.413 0.0
H1193 H 0.77991 0.25316 0.41968 0.0
H1194 H 0.79134 0.25241 0.44931 0.0
H1195 H 0.7744 0.24208 0.45736 0.0
C1196 C 0.78617 0.2251 0.52665 0.0
C1197 C 0.77539 0.21375 0.53896 0.0
C1198 C 0.78722 0.22877 0.49031 0.0
C1199 C 0.77745 0.22126 0.46552 0.0
C1200 C 0.76648 0.21011 0.47794 0.0
H1201 H 0.78214 0.22561 0.22724 0.0
H1202 H 0.77305 0.22116 0.28847 0.0
C1203 C 0.76544 0.20641 0.51435 0.0
C1204 C 0.77937 0.22435 0.42619 0.0
H1205 H 0.78837 0.24886 0.3654 0.0
C1206 C 0.77924 0.21515 0.40245 0.0
C1207 C 0.7823 0.23652 0.41241 0.0
C1208 C 0.78187 0.24655 0.43599 0.0
C1209 C 0.78261 0.21801 0.36581 0.0
C1210 C 0.78605 0.23035 0.35239 0.0
C1211 C 0.78575 0.23941 0.37577 0.0
C1212 C 0.79096 0.23428 0.31495 0.0
C1213 C 0.7831 0.20801 0.34214 0.0
C1214 C 0.80389 0.24355 0.30944 0.0
C1215 C 0.80912 0.24615 0.27454 0.0
C1216 C 0.80148 0.23955 0.24438 0.0
C1217 C 0.78831 0.23083 0.24981 0.0
C1218 C 0.78311 0.22822 0.28481 0.0
H1219 H 0.78235 0.19983 0.35817 0.0
H1220 H 0.77498 0.20416 0.32267 0.0
H1221 H 0.79217 0.21232 0.32631 0.0
H1222 H 0.8101 0.24837 0.33234 0.0
H1223 H 0.81927 0.25297 0.2714 0.0
H1224 H 0.77573 0.56461 0.55454 0.0
H1225 H 0.76872 0.56109 0.49141 0.0
H1226 H 0.80245 0.55927 0.46127 0.0
H1227 H 0.80956 0.56276 0.52462 0.0
H1228 H 0.78451 0.57886 0.43674 0.0
H1229 H 0.7726 0.52883 0.4049 0.0
H1230 H 0.77298 0.53432 0.45075 0.0
H1231 H 0.78771 0.53883 0.42724 0.0
C1232 C 0.78155 0.5632 0.53468 0.0
C1233 C 0.79325 0.56403 0.54462 0.0
C1234 C 0.77752 0.56119 0.49858 0.0
C1235 C 0.78502 0.55984 0.4717 0.0
C1236 C 0.79641 0.56008 0.48169 0.0
H1237 H 0.78298 0.56188 0.23631 0.0
H1238 H 0.78687 0.55833 0.29926 0.0
C1239 C 0.80049 0.56213 0.51789 0.0
C1240 C 0.78162 0.55971 0.433 0.0
H1241 H 0.77245 0.54153 0.35587 0.0
C1242 C 0.78181 0.57067 0.4191 0.0
C1243 C 0.77827 0.54908 0.41 0.0
C1244 C 0.77777 0.53703 0.42387 0.0
C1245 C 0.77881 0.57134 0.38275 0.0
C1246 C 0.77516 0.56061 0.35982 0.0
C1247 C 0.77512 0.54968 0.37358 0.0
C1248 C 0.77156 0.56079 0.32141 0.0
C1249 C 0.77988 0.58369 0.36907 0.0
C1250 C 0.7613 0.56276 0.31282 0.0
C1251 C 0.75911 0.5649 0.27698 0.0
C1252 C 0.76705 0.56493 0.2489 0.0
C1253 C 0.7767 0.56196 0.25727 0.0
C1254 C 0.77896 0.55993 0.29325 0.0
H1255 H 0.78605 0.59196 0.38694 0.0
H1256 H 0.7839 0.58593 0.34121 0.0
H1257 H 0.77018 0.58267 0.36844 0.0
H1258 H 0.75527 0.56314 0.33406 0.0
H1259 H 0.75149 0.567 0.27146 0.0
H1260 H 0.54866 0.10851 0.62162 0.0
H1261 H 0.54559 0.11212 0.68501 0.0
H1262 H 0.58093 0.11318 0.7133 0.0
H1263 H 0.58414 0.10963 0.64964 0.0
H1264 H 0.54336 0.0944 0.73937 0.0
H1265 H 0.5827 0.14393 0.77029 0.0
H1266 H 0.57742 0.13845 0.72456 0.0
H1267 H 0.58734 0.13354 0.74802 0.0
C1268 C 0.55593 0.10976 0.64113 0.0
C1269 C 0.56662 0.10872 0.63056 0.0
C1270 C 0.55415 0.11183 0.67739 0.0
C1271 C 0.56306 0.113 0.70383 0.0
C1272 C 0.57404 0.11252 0.69324 0.0
H1273 H 0.55905 0.11083 0.93964 0.0
H1274 H 0.56663 0.11419 0.87678 0.0
C1275 C 0.57583 0.11043 0.65686 0.0
C1276 C 0.56005 0.11328 0.74271 0.0
H1277 H 0.56982 0.13154 0.81968 0.0
C1278 C 0.54912 0.10255 0.75688 0.0
C1279 C 0.56767 0.12384 0.76556 0.0
C1280 C 0.5794 0.13566 0.75144 0.0
C1281 C 0.54559 0.10206 0.7933 0.0
C1282 C 0.55301 0.11275 0.81606 0.0
C1283 C 0.56408 0.12343 0.80209 0.0
C1284 C 0.54934 0.11281 0.85444 0.0
C1285 C 0.53406 0.08998 0.80723 0.0
C1286 C 0.53736 0.11153 0.86287 0.0
C1287 C 0.53296 0.10952 0.89864 0.0
C1288 C 0.54054 0.10891 0.9268 0.0
C1289 C 0.55296 0.11121 0.91862 0.0
C1290 C 0.55731 0.11313 0.88269 0.0
H1291 H 0.53158 0.0816 0.78939 0.0
H1292 H 0.53579 0.08764 0.83504 0.0
H1293 H 0.52563 0.09142 0.80811 0.0
H1294 H 0.53117 0.11155 0.84155 0.0
H1295 H 0.52341 0.10794 0.90401 0.0
H1296 H 0.89952 0.44196 0.62648 0.0
H1297 H 0.89521 0.43574 0.69002 0.0
H1298 H 0.89125 0.46885 0.71208 0.0
H1299 H 0.89584 0.47532 0.64836 0.0
H1300 H 0.9077 0.46715 0.75826 0.0
H1301 H 0.8633 0.4198 0.7518 0.0
H1302 H 0.87547 0.42054 0.72212 0.0
H1303 H 0.86884 0.43087 0.71409 0.0
C1304 C 0.89751 0.44782 0.64463 0.0
C1305 C 0.89805 0.45916 0.6323 0.0
C1306 C 0.89493 0.44418 0.681 0.0
C1307 C 0.89269 0.4517 0.70581 0.0
C1308 C 0.89285 0.46284 0.69338 0.0
H1309 H 0.89304 0.44737 0.94408 0.0
H1310 H 0.88842 0.45181 0.88282 0.0
C1311 C 0.89546 0.46652 0.65694 0.0
C1312 C 0.89155 0.44862 0.74514 0.0
H1313 H 0.8761 0.42412 0.80601 0.0
C1314 C 0.90062 0.45783 0.76884 0.0
C1315 C 0.88233 0.43645 0.75896 0.0
C1316 C 0.87186 0.42641 0.73544 0.0
C1317 C 0.90117 0.45499 0.80548 0.0
C1318 C 0.89228 0.44264 0.81893 0.0
C1319 C 0.88292 0.43357 0.7956 0.0
C1320 C 0.89328 0.43873 0.85639 0.0
C1321 C 0.91165 0.465 0.82911 0.0
C1322 C 0.89698 0.42949 0.86192 0.0
C1323 C 0.8996 0.4269 0.89684 0.0
C1324 C 0.89851 0.43346 0.92698 0.0
C1325 C 0.89403 0.44216 0.92152 0.0
C1326 C 0.89145 0.44478 0.8865 0.0
H1327 H 0.91906 0.47318 0.81306 0.0
H1328 H 0.90737 0.46883 0.84863 0.0
H1329 H 0.91643 0.46069 0.8449 0.0
H1330 H 0.8984 0.42468 0.83904 0.0
H1331 H 0.90295 0.42009 0.9 0.0
H1332 H 0.53628 0.42309 0.64293 0.0
H1333 H 0.54334 0.42554 0.70619 0.0
H1334 H 0.57321 0.46442 0.68411 0.0
H1335 H 0.56651 0.46192 0.62083 0.0
H1336 H 0.58155 0.45245 0.73003 0.0
H1337 H 0.53454 0.44563 0.7768 0.0
H1338 H 0.53347 0.4323 0.75191 0.0
H1339 H 0.53899 0.44748 0.72961 0.0
C1340 C 0.54447 0.43209 0.65145 0.0
C1341 C 0.55075 0.44235 0.62692 0.0
C1342 C 0.54843 0.43352 0.68768 0.0
C1343 C 0.55861 0.44528 0.70012 0.0
C1344 C 0.56529 0.45528 0.67522 0.0
H1345 H 0.58941 0.48699 0.89647 0.0
H1346 H 0.58583 0.47868 0.83455 0.0
C1347 C 0.56143 0.45383 0.639 0.0
C1348 C 0.5619 0.44753 0.73928 0.0
H1349 H 0.54987 0.44925 0.82168 0.0
C1350 C 0.5746 0.45166 0.75011 0.0
C1351 C 0.55284 0.44657 0.7655 0.0
C1352 C 0.53923 0.44287 0.75545 0.0
C1353 C 0.5785 0.45499 0.78631 0.0
C1354 C 0.56949 0.45422 0.81226 0.0
C1355 C 0.55673 0.44975 0.8017 0.0
C1356 C 0.5732 0.45886 0.84998 0.0
C1357 C 0.59224 0.45938 0.79653 0.0
C1358 C 0.56741 0.45046 0.87926 0.0
C1359 C 0.56945 0.45517 0.91475 0.0
C1360 C 0.57718 0.46843 0.92157 0.0
C1361 C 0.58341 0.47674 0.89224 0.0
C1362 C 0.58143 0.47199 0.8568 0.0
H1363 H 0.59699 0.45631 0.77623 0.0
H1364 H 0.5977 0.47004 0.79796 0.0
H1365 H 0.59276 0.45558 0.82352 0.0
H1366 H 0.56097 0.44031 0.87453 0.0
H1367 H 0.56448 0.4485 0.93663 0.0
H1368 H 0.56694 0.81685 0.734 0.0
H1369 H 0.56208 0.80758 0.67329 0.0
H1370 H 0.55493 0.77124 0.71652 0.0
H1371 H 0.55985 0.78046 0.77755 0.0
H1372 H 0.5732 0.78087 0.66129 0.0
H1373 H 0.52945 0.78184 0.61932 0.0
H1374 H 0.54168 0.79686 0.63768 0.0
H1375 H 0.53422 0.78284 0.66619 0.0
C1376 C 0.56405 0.8068 0.73081 0.0
C1377 C 0.56385 0.79942 0.7607 0.0
C1378 C 0.56119 0.80148 0.69603 0.0
C1379 C 0.55803 0.78868 0.69038 0.0
C1380 C 0.55727 0.78112 0.72032 0.0
H1381 H 0.56166 0.75496 0.48152 0.0
H1382 H 0.55677 0.7565 0.54518 0.0
C1383 C 0.56006 0.7864 0.75521 0.0
C1384 C 0.55711 0.78378 0.65293 0.0
H1385 H 0.54222 0.78034 0.57148 0.0
C1386 C 0.56628 0.78051 0.64177 0.0
C1387 C 0.54812 0.78339 0.62752 0.0
C1388 C 0.53773 0.7863 0.63832 0.0
C1389 C 0.56715 0.77753 0.60546 0.0
C1390 C 0.5584 0.77753 0.57973 0.0
C1391 C 0.54892 0.78034 0.59119 0.0
C1392 C 0.55968 0.77574 0.54041 0.0
C1393 C 0.5779 0.77514 0.59468 0.0
C1394 C 0.56229 0.78576 0.51619 0.0
C1395 C 0.56493 0.78485 0.47978 0.0
C1396 C 0.56503 0.77389 0.46681 0.0
C1397 C 0.56177 0.76358 0.4907 0.0
C1398 C 0.55905 0.76447 0.52715 0.0
H1399 H 0.58541 0.77828 0.61599 0.0
H1400 H 0.57393 0.76469 0.59016 0.0
H1401 H 0.58252 0.78025 0.56912 0.0
H1402 H 0.56277 0.79452 0.52575 0.0
H1403 H 0.56735 0.79295 0.46213 0.0
H1404 H 0.25114 0.80948 0.48164 0.0
H1405 H 0.24785 0.80253 0.54511 0.0
H1406 H 0.21285 0.76807 0.51583 0.0
H1407 H 0.216 0.77493 0.45258 0.0
H1408 H 0.21018 0.78327 0.57008 0.0
H1409 H 0.24989 0.77377 0.60226 0.0
H1410 H 0.25444 0.7888 0.58013 0.0
H1411 H 0.24475 0.77398 0.55637 0.0
C1412 C 0.24289 0.80029 0.48859 0.0
C1413 C 0.23379 0.7928 0.46205 0.0
C1414 C 0.24106 0.79631 0.52487 0.0
C1415 C 0.23014 0.78474 0.53514 0.0
C1416 C 0.22136 0.777 0.50845 0.0
H1417 H 0.19041 0.75036 0.73569 0.0
H1418 H 0.19816 0.75429 0.67322 0.0
C1419 C 0.22318 0.78095 0.47228 0.0
C1420 C 0.22703 0.78139 0.57394 0.0
H1421 H 0.23689 0.77325 0.65142 0.0
C1422 C 0.21598 0.78101 0.58781 0.0
C1423 C 0.23472 0.77861 0.59708 0.0
C1424 C 0.24658 0.7787 0.5833 0.0
C1425 C 0.21241 0.778 0.62422 0.0
C1426 C 0.21992 0.77494 0.64729 0.0
C1427 C 0.23109 0.77547 0.6336 0.0
C1428 C 0.21626 0.77133 0.68574 0.0
C1429 C 0.20076 0.77841 0.63781 0.0
C1430 C 0.2242 0.77914 0.71383 0.0
C1431 C 0.21985 0.77682 0.74976 0.0
C1432 C 0.20746 0.76667 0.75812 0.0
C1433 C 0.19993 0.75835 0.73017 0.0
C1434 C 0.20432 0.76061 0.69439 0.0
H1435 H 0.19819 0.78417 0.61969 0.0
H1436 H 0.19242 0.76849 0.63881 0.0
H1437 H 0.2024 0.78255 0.66552 0.0
H1438 H 0.23348 0.78741 0.70776 0.0
H1439 H 0.22591 0.7834 0.77063 0.0
H1440 H 0.1988 0.44308 0.48289 0.0
H1441 H 0.206 0.44686 0.54614 0.0
H1442 H 0.24035 0.44628 0.5158 0.0
H1443 H 0.23326 0.44245 0.45275 0.0
H1444 H 0.22514 0.42837 0.5704 0.0
H1445 H 0.2351 0.47774 0.6026 0.0
H1446 H 0.22004 0.46734 0.58054 0.0
H1447 H 0.23482 0.47235 0.55669 0.0
C1448 C 0.20803 0.44405 0.48955 0.0
C1449 C 0.21542 0.44239 0.46279 0.0
C1450 C 0.21215 0.44627 0.5257 0.0
C1451 C 0.22375 0.44693 0.53561 0.0
C1452 C 0.2314 0.44585 0.50868 0.0
H1453 H 0.25779 0.44095 0.73637 0.0
H1454 H 0.25408 0.44489 0.67379 0.0
C1455 C 0.22731 0.44366 0.47263 0.0
C1456 C 0.22721 0.44719 0.5743 0.0
H1457 H 0.23559 0.46522 0.6517 0.0
C1458 C 0.2275 0.43646 0.58813 0.0
C1459 C 0.23011 0.45768 0.59742 0.0
C1460 C 0.23011 0.4695 0.58366 0.0
C1461 C 0.23052 0.43587 0.6245 0.0
C1462 C 0.2337 0.44647 0.64757 0.0
C1463 C 0.23328 0.45717 0.63389 0.0
C1464 C 0.23725 0.44637 0.68606 0.0
C1465 C 0.22996 0.42374 0.63808 0.0
C1466 C 0.22951 0.44672 0.71403 0.0
C1467 C 0.23172 0.44464 0.75001 0.0
C1468 C 0.24167 0.44212 0.75854 0.0
C1469 C 0.24994 0.44269 0.73071 0.0
C1470 C 0.2478 0.44489 0.69487 0.0
H1471 H 0.22411 0.41543 0.62 0.0
H1472 H 0.23983 0.42519 0.639 0.0
H1473 H 0.22584 0.42129 0.66582 0.0
H1474 H 0.22137 0.44794 0.70784 0.0
H1475 H 0.22518 0.44429 0.77079 0.0
H1476 H 0.44879 0.89076 0.06396 0.0
H1477 H 0.4396 0.88585 0.12505 0.0
H1478 H 0.4766 0.89561 0.16916 0.0
H1479 H 0.48588 0.90045 0.10836 0.0
H1480 H 0.45478 0.87333 0.20197 0.0
H1481 H 0.44894 0.91646 0.19494 0.0
H1482 H 0.44157 0.9048 0.15934 0.0
H1483 H 0.45877 0.91377 0.16313 0.0
C1484 C 0.45494 0.89163 0.08655 0.0
C1485 C 0.46812 0.89615 0.08125 0.0
C1486 C 0.44967 0.88888 0.12146 0.0
C1487 C 0.45747 0.89058 0.15164 0.0
C1488 C 0.47043 0.89429 0.14623 0.0
H1489 H 0.46047 0.89701 0.38144 0.0
H1490 H 0.46226 0.89236 0.3181 0.0
C1491 C 0.47571 0.89707 0.11141 0.0
C1492 C 0.45253 0.88957 0.18904 0.0
H1493 H 0.44354 0.90507 0.24967 0.0
C1494 C 0.45218 0.88017 0.21237 0.0
C1495 C 0.44913 0.8985 0.20249 0.0
C1496 C 0.44968 0.90903 0.17888 0.0
C1497 C 0.44871 0.87959 0.24901 0.0
C1498 C 0.44581 0.88885 0.26281 0.0
C1499 C 0.44573 0.89796 0.23911 0.0
C1500 C 0.44387 0.89002 0.30212 0.0
C1501 C 0.44823 0.86909 0.27254 0.0
C1502 C 0.43296 0.89035 0.31438 0.0
C1503 C 0.43197 0.89316 0.35067 0.0
C1504 C 0.44191 0.89576 0.37534 0.0
C1505 C 0.4526 0.89498 0.36325 0.0
C1506 C 0.4536 0.89222 0.32701 0.0
H1507 H 0.44622 0.86052 0.25619 0.0
H1508 H 0.4577 0.87266 0.28583 0.0
H1509 H 0.44077 0.86612 0.29392 0.0
H1510 H 0.42537 0.88878 0.29563 0.0
H1511 H 0.42362 0.89371 0.35907 0.0
H1512 H 0.10874 0.58971 0.1066 0.0
H1513 H 0.11294 0.58598 0.16885 0.0
H1514 H 0.11771 0.55444 0.13301 0.0
H1515 H 0.11377 0.55827 0.07045 0.0
H1516 H 0.09707 0.56368 0.20374 0.0
H1517 H 0.1468 0.57189 0.20595 0.0
H1518 H 0.14088 0.57762 0.16966 0.0
H1519 H 0.13682 0.56105 0.17113 0.0
C1520 C 0.11099 0.58217 0.11177 0.0
C1521 C 0.11084 0.57424 0.08351 0.0
C1522 C 0.11339 0.58005 0.14742 0.0
C1523 C 0.1157 0.56997 0.15565 0.0
C1524 C 0.1162 0.56243 0.1273 0.0
H1525 H 0.1105 0.5305 0.35828 0.0
H1526 H 0.11411 0.5377 0.29495 0.0
C1527 C 0.11388 0.5646 0.0915 0.0
C1528 C 0.11596 0.56643 0.1941 0.0
H1529 H 0.13384 0.56172 0.25797 0.0
C1530 C 0.10516 0.56337 0.21562 0.0
C1531 C 0.12646 0.56585 0.20948 0.0
C1532 C 0.13845 0.56938 0.18799 0.0
C1533 C 0.10453 0.55969 0.25194 0.0
C1534 C 0.11505 0.55922 0.26746 0.0
C1535 C 0.12582 0.56214 0.24598 0.0
C1536 C 0.11487 0.55574 0.30608 0.0
C1537 C 0.09248 0.55612 0.27333 0.0
C1538 C 0.11458 0.56372 0.33336 0.0
C1539 C 0.1125 0.55965 0.36944 0.0
C1540 C 0.11072 0.54752 0.37895 0.0
C1541 C 0.11181 0.53988 0.35184 0.0
C1542 C 0.11388 0.54397 0.31566 0.0
H1543 H 0.08427 0.5542 0.25544 0.0
H1544 H 0.08972 0.54748 0.29025 0.0
H1545 H 0.09429 0.56418 0.29166 0.0
H1546 H 0.11548 0.57291 0.32654 0.0
H1547 H 0.11181 0.56582 0.38964 0.0
H1548 H 0.41968 0.52451 0.10934 0.0
H1549 H 0.42463 0.53435 0.16925 0.0
H1550 H 0.45676 0.56855 0.12501 0.0
H1551 H 0.45196 0.5587 0.06473 0.0
H1552 H 0.46338 0.55841 0.18229 0.0
H1553 H 0.42097 0.56247 0.21949 0.0
H1554 H 0.41662 0.54671 0.20346 0.0
H1555 H 0.42442 0.56025 0.17326 0.0
C1556 C 0.42764 0.53425 0.11208 0.0
C1557 C 0.43546 0.54078 0.08216 0.0
C1558 C 0.4304 0.5399 0.14642 0.0
C1559 C 0.44099 0.55225 0.15163 0.0
C1560 C 0.44849 0.55905 0.12157 0.0
H1561 H 0.47822 0.58535 0.3612 0.0
H1562 H 0.4723 0.58396 0.29711 0.0
C1563 C 0.4457 0.5534 0.0871 0.0
C1564 C 0.44506 0.55729 0.18897 0.0
H1565 H 0.43407 0.56247 0.26902 0.0
C1566 C 0.45709 0.55956 0.20109 0.0
C1567 C 0.43681 0.55873 0.21351 0.0
C1568 C 0.42404 0.55704 0.20169 0.0
C1569 C 0.46081 0.56252 0.2375 0.0
C1570 C 0.45236 0.56349 0.26238 0.0
C1571 C 0.44053 0.56171 0.24996 0.0
C1572 C 0.45521 0.56525 0.30182 0.0
C1573 C 0.47345 0.56386 0.24939 0.0
C1574 C 0.44724 0.55549 0.32607 0.0
C1575 C 0.45053 0.5563 0.3627 0.0
C1576 C 0.46186 0.56692 0.37587 0.0
C1577 C 0.46948 0.577 0.3519 0.0
C1578 C 0.46615 0.57619 0.31521 0.0
H1579 H 0.47754 0.56021 0.22862 0.0
H1580 H 0.48049 0.57416 0.25415 0.0
H1581 H 0.47229 0.55857 0.27509 0.0
H1582 H 0.43873 0.54698 0.31638 0.0
H1583 H 0.44442 0.54838 0.3804 0.0
H1584 H 0.11057 0.58175 0.85847 0.0
H1585 H 0.11398 0.57801 0.79509 0.0
H1586 H 0.11432 0.54362 0.82651 0.0
H1587 H 0.11087 0.54721 0.88965 0.0
H1588 H 0.13342 0.57293 0.75835 0.0
H1589 H 0.08317 0.53211 0.75514 0.0
H1590 H 0.08891 0.54433 0.78983 0.0
H1591 H 0.09292 0.5318 0.79165 0.0
C1592 C 0.11161 0.57352 0.85198 0.0
C1593 C 0.1103 0.5647 0.87907 0.0
C1594 C 0.11357 0.57141 0.81577 0.0
C1595 C 0.11422 0.56045 0.80614 0.0
C1596 C 0.11369 0.55206 0.83338 0.0
H1597 H 0.1071 0.51988 0.60693 0.0
H1598 H 0.11122 0.52773 0.66926 0.0
C1599 C 0.11173 0.55415 0.86948 0.0
C1600 C 0.11432 0.55712 0.76752 0.0
H1601 H 0.09592 0.535 0.70362 0.0
C1602 C 0.12524 0.56467 0.74624 0.0
C1603 C 0.1036 0.54636 0.75188 0.0
C1604 C 0.09142 0.53822 0.77311 0.0
C1605 C 0.12582 0.56151 0.70979 0.0
C1606 C 0.11512 0.55066 0.69427 0.0
C1607 C 0.10417 0.54324 0.7156 0.0
C1608 C 0.1148 0.54678 0.65587 0.0
C1609 C 0.13798 0.56962 0.68853 0.0
C1610 C 0.11577 0.55499 0.62742 0.0
C1611 C 0.1135 0.55054 0.59159 0.0
C1612 C 0.11004 0.53775 0.58365 0.0
C1613 C 0.10968 0.52976 0.61205 0.0
C1614 C 0.11204 0.53424 0.64774 0.0
H1615 H 0.14635 0.5752 0.70666 0.0
H1616 H 0.14014 0.56358 0.67033 0.0
H1617 H 0.13673 0.57654 0.67157 0.0
H1618 H 0.11764 0.56462 0.63304 0.0
H1619 H 0.11378 0.55692 0.57043 0.0
H1620 H 0.42535 0.52874 0.85875 0.0
H1621 H 0.42869 0.5356 0.79507 0.0
H1622 H 0.46429 0.5695 0.8237 0.0
H1623 H 0.46112 0.56272 0.88704 0.0
H1624 H 0.43386 0.55951 0.75812 0.0
H1625 H 0.47435 0.54972 0.75036 0.0
H1626 H 0.46275 0.54374 0.78671 0.0
H1627 H 0.47555 0.56019 0.78678 0.0
C1628 C 0.43378 0.53775 0.85156 0.0
C1629 C 0.44304 0.54511 0.87791 0.0
C1630 C 0.43567 0.54165 0.81518 0.0
C1631 C 0.44684 0.55294 0.80464 0.0
C1632 C 0.4557 0.56065 0.83121 0.0
H1633 H 0.4862 0.58806 0.60602 0.0
H1634 H 0.47828 0.58357 0.66824 0.0
C1635 C 0.45385 0.55676 0.86743 0.0
C1636 C 0.44978 0.55626 0.76576 0.0
H1637 H 0.47149 0.56026 0.70014 0.0
C1638 C 0.44204 0.55963 0.74529 0.0
C1639 C 0.46041 0.55632 0.74909 0.0
C1640 C 0.46869 0.55219 0.76919 0.0
C1641 C 0.44494 0.56347 0.70882 0.0
C1642 C 0.45574 0.56376 0.69243 0.0
C1643 C 0.4633 0.56017 0.71283 0.0
C1644 C 0.45953 0.56773 0.65419 0.0
C1645 C 0.43665 0.56749 0.68841 0.0
C1646 C 0.45148 0.56055 0.62542 0.0
C1647 C 0.45597 0.56315 0.58962 0.0
C1648 C 0.46864 0.57288 0.58205 0.0
C1649 C 0.47641 0.58047 0.61082 0.0
C1650 C 0.47191 0.5779 0.64646 0.0
H1651 H 0.43078 0.56975 0.70702 0.0
H1652 H 0.44261 0.57602 0.67121 0.0
H1653 H 0.43 0.55951 0.67043 0.0
H1654 H 0.44198 0.55251 0.63073 0.0
H1655 H 0.44976 0.55706 0.56816 0.0
H1656 H 0.47774 0.89737 0.8564 0.0
H1657 H 0.47084 0.89402 0.7928 0.0
H1658 H 0.43591 0.89346 0.82304 0.0
H1659 H 0.4427 0.89686 0.88639 0.0
H1660 H 0.44654 0.87451 0.75553 0.0
H1661 H 0.45556 0.92462 0.75182 0.0
H1662 H 0.462 0.91895 0.78684 0.0
H1663 H 0.44543 0.91484 0.78815 0.0
C1664 C 0.46848 0.8963 0.8496 0.0
C1665 C 0.46083 0.89753 0.87642 0.0
C1666 C 0.46456 0.89438 0.81327 0.0
C1667 C 0.45295 0.89367 0.80325 0.0
C1668 C 0.44497 0.89413 0.83021 0.0
H1669 H 0.41952 0.90026 0.60345 0.0
H1670 H 0.42331 0.89628 0.66585 0.0
C1671 C 0.44887 0.89606 0.86643 0.0
C1672 C 0.44963 0.89355 0.76451 0.0
H1673 H 0.44584 0.91181 0.70026 0.0
C1674 C 0.4464 0.88265 0.74329 0.0
C1675 C 0.44953 0.90422 0.74871 0.0
C1676 C 0.45341 0.91638 0.76987 0.0
C1677 C 0.44273 0.88203 0.70677 0.0
C1678 C 0.44251 0.89267 0.6911 0.0
C1679 C 0.44589 0.90361 0.71235 0.0
C1680 C 0.43895 0.89292 0.65266 0.0
C1681 C 0.43883 0.86989 0.68558 0.0
C1682 C 0.44625 0.89203 0.62429 0.0
C1683 C 0.44405 0.89422 0.58841 0.0
C1684 C 0.4346 0.89752 0.58034 0.0
C1685 C 0.42691 0.8978 0.60867 0.0
C1686 C 0.42907 0.89553 0.64441 0.0
H1687 H 0.43613 0.86154 0.70375 0.0
H1688 H 0.43062 0.86763 0.66734 0.0
H1689 H 0.44705 0.87123 0.66866 0.0
H1690 H 0.4541 0.89029 0.63 0.0
H1691 H 0.4502 0.89401 0.5673 0.0
H1692 H 0.22457 0.44543 0.27135 0.0
H1693 H 0.23221 0.44934 0.20868 0.0
H1694 H 0.19525 0.44282 0.17286 0.0
H1695 H 0.18745 0.43863 0.23524 0.0
H1696 H 0.20254 0.42758 0.13833 0.0
H1697 H 0.24265 0.47805 0.13513 0.0
H1698 H 0.24406 0.46845 0.17015 0.0
H1699 H 0.23107 0.47181 0.17156 0.0
C1700 C 0.21816 0.44514 0.25026 0.0
C1701 C 0.20536 0.44162 0.25832 0.0
C1702 C 0.22257 0.44744 0.21441 0.0
C1703 C 0.21433 0.44646 0.18604 0.0
C1704 C 0.20178 0.44365 0.1943 0.0
H1705 H 0.21465 0.44246 0.95223 0.0
H1706 H 0.21109 0.44598 0.01534 0.0
C1707 C 0.19734 0.44126 0.23002 0.0
C1708 C 0.21818 0.44679 0.14761 0.0
H1709 H 0.24039 0.46512 0.08343 0.0
C1710 C 0.21076 0.43584 0.12631 0.0
C1711 C 0.229 0.45751 0.13204 0.0
C1712 C 0.2371 0.46967 0.15327 0.0
C1713 C 0.21386 0.43527 0.09001 0.0
C1714 C 0.2246 0.44601 0.07432 0.0
C1715 C 0.23214 0.45693 0.09558 0.0
C1716 C 0.22793 0.4459 0.03571 0.0
C1717 C 0.20572 0.42309 0.0688 0.0
C1718 C 0.23888 0.44523 0.0261 0.0
C1719 C 0.24098 0.44324 0.98992 0.0
C1720 C 0.23214 0.4419 0.96284 0.0
C1721 C 0.2216 0.44335 0.9724 0.0
C1722 C 0.21953 0.44535 0.00847 0.0
H1723 H 0.19962 0.41484 0.08679 0.0
H1724 H 0.19931 0.42458 0.05026 0.0
H1725 H 0.21184 0.42058 0.0521 0.0
H1726 H 0.24548 0.44566 0.04679 0.0
H1727 H 0.2492 0.44219 0.98345 0.0
H1728 H 0.56568 0.77514 0.95663 0.0
H1729 H 0.56208 0.76852 0.02008 0.0
H1730 H 0.56126 0.80294 0.04815 0.0
H1731 H 0.5648 0.80965 0.98444 0.0
H1732 H 0.57995 0.78409 0.07418 0.0
H1733 H 0.5305 0.77409 0.10558 0.0
H1734 H 0.53589 0.77415 0.05981 0.0
H1735 H 0.54089 0.78904 0.08301 0.0
C1736 C 0.56449 0.78121 0.97611 0.0
C1737 C 0.5656 0.79296 0.96547 0.0
C1738 C 0.56242 0.77739 0.01239 0.0
C1739 C 0.56133 0.78519 0.03879 0.0
C1740 C 0.56187 0.79668 0.02813 0.0
H1741 H 0.56385 0.78367 0.27456 0.0
H1742 H 0.56038 0.7878 0.21172 0.0
C1743 C 0.56395 0.80052 0.99172 0.0
C1744 C 0.56109 0.78195 0.07768 0.0
H1745 H 0.54293 0.77359 0.15485 0.0
C1746 C 0.57183 0.78174 0.09177 0.0
C1747 C 0.55056 0.77906 0.10064 0.0
C1748 C 0.53874 0.77899 0.0866 0.0
C1749 C 0.57236 0.77874 0.1282 0.0
C1750 C 0.56171 0.77553 0.15107 0.0
C1751 C 0.55102 0.77593 0.13718 0.0
C1752 C 0.56169 0.77184 0.18946 0.0
C1753 C 0.58446 0.77929 0.14204 0.0
C1754 C 0.56297 0.76114 0.19794 0.0
C1755 C 0.56504 0.75881 0.23369 0.0
C1756 C 0.56572 0.76704 0.26179 0.0
C1757 C 0.56341 0.77716 0.25358 0.0
C1758 C 0.56144 0.77955 0.21767 0.0
H1759 H 0.59281 0.78515 0.12409 0.0
H1760 H 0.58683 0.78339 0.1698 0.0
H1761 H 0.583 0.76942 0.14299 0.0
H1762 H 0.5629 0.7549 0.17666 0.0
H1763 H 0.56662 0.75084 0.2391 0.0
H1764 H 0.25493 0.81878 0.22978 0.0
H1765 H 0.25035 0.80962 0.16883 0.0
H1766 H 0.22375 0.77237 0.2129 0.0
H1767 H 0.22819 0.78145 0.27412 0.0
H1768 H 0.25117 0.78797 0.13556 0.0
H1769 H 0.2019 0.7813 0.14386 0.0
H1770 H 0.21443 0.79129 0.17541 0.0
H1771 H 0.20648 0.77411 0.17928 0.0
C1772 C 0.24825 0.80859 0.22667 0.0
C1773 C 0.24182 0.80089 0.25689 0.0
C1774 C 0.24566 0.80337 0.19177 0.0
C1775 C 0.23657 0.79037 0.18633 0.0
C1776 C 0.23068 0.78247 0.21651 0.0
H1777 H 0.19944 0.75595 0.97937 0.0
H1778 H 0.20622 0.75794 0.0428 0.0
C1779 C 0.23328 0.78768 0.2515 0.0
C1780 C 0.2326 0.78543 0.14894 0.0
H1781 H 0.20788 0.77603 0.08889 0.0
C1782 C 0.24167 0.78523 0.12538 0.0
C1783 C 0.22019 0.78183 0.1358 0.0
C1784 C 0.21017 0.7822 0.1597 0.0
C1785 C 0.23871 0.78171 0.08881 0.0
C1786 C 0.22645 0.7786 0.07529 0.0
C1787 C 0.21726 0.77839 0.09923 0.0
C1788 C 0.22325 0.77658 0.03604 0.0
C1789 C 0.24875 0.78137 0.06502 0.0
C1790 C 0.23062 0.78633 0.01104 0.0
C1791 C 0.22681 0.78521 0.97482 0.0
C1792 C 0.21545 0.77436 0.96285 0.0
C1793 C 0.20826 0.76442 0.98766 0.0
C1794 C 0.21211 0.76554 0.02395 0.0
H1795 H 0.25546 0.77952 0.08121 0.0
H1796 H 0.24429 0.77387 0.04374 0.0
H1797 H 0.25449 0.79085 0.05161 0.0
H1798 H 0.23905 0.79509 0.01981 0.0
H1799 H 0.23253 0.79308 0.95652 0.0
H1800 H 0.19787 0.24284 0.33574 0.0
H1801 H 0.20959 0.2321 0.31659 0.0
H1802 H 0.18458 0.21634 0.224 0.0
H1803 H 0.17256 0.2268 0.24358 0.0
H1804 H 0.18761 0.19828 0.25773 0.0
H1805 H 0.23554 0.24118 0.23692 0.0
H1806 H 0.22937 0.24058 0.28157 0.0
H1807 H 0.2212 0.24227 0.24287 0.0
C1808 C 0.19493 0.23721 0.31107 0.0
C1809 C 0.1843 0.23574 0.29111 0.0
C1810 C 0.20171 0.23112 0.30002 0.0
C1811 C 0.19814 0.22357 0.26848 0.0
C1812 C 0.18758 0.22216 0.24834 0.0
H1813 H 0.24371 0.19483 0.16337 0.0
H1814 H 0.2328 0.20659 0.18072 0.0
C1815 C 0.18073 0.22818 0.25952 0.0
C1816 C 0.20503 0.21666 0.2575 0.0
H1817 H 0.23478 0.22095 0.23859 0.0
C1818 C 0.19792 0.20325 0.25334 0.0
C1819 C 0.21846 0.22314 0.25132 0.0
C1820 C 0.22657 0.2376 0.25302 0.0
C1821 C 0.20387 0.19613 0.24379 0.0
C1822 C 0.21738 0.20255 0.23912 0.0
C1823 C 0.22446 0.21599 0.24266 0.0
C1824 C 0.2243 0.19555 0.22947 0.0
C1825 C 0.19556 0.18183 0.23802 0.0
C1826 C 0.22341 0.18558 0.25146 0.0
C1827 C 0.22958 0.17875 0.24144 0.0
C1828 C 0.23692 0.18189 0.20947 0.0
C1829 C 0.23814 0.19215 0.18815 0.0
C1830 C 0.23189 0.19889 0.19804 0.0
H1831 H 0.18541 0.17908 0.23239 0.0
H1832 H 0.19917 0.1785 0.21516 0.0
H1833 H 0.19567 0.17672 0.26293 0.0
H1834 H 0.21791 0.18303 0.27635 0.0
H1835 H 0.22853 0.17097 0.25863 0.0
H1836 H 0.78047 0.94755 0.24605 0.0
H1837 H 0.79112 0.97014 0.22745 0.0
H1838 H 0.77586 0.97921 0.32154 0.0
H1839 H 0.76493 0.95663 0.33977 0.0
H1840 H 0.77412 0.99135 0.26242 0.0
H1841 H 0.82344 0.99881 0.27209 0.0
H1842 H 0.8133 0.98607 0.24172 0.0
H1843 H 0.80958 0.98458 0.28933 0.0
C1844 C 0.77933 0.95435 0.2627 0.0
C1845 C 0.77189 0.95028 0.29452 0.0
C1846 C 0.78551 0.96729 0.25218 0.0
C1847 C 0.78454 0.97646 0.2735 0.0
C1848 C 0.77683 0.97235 0.30474 0.0
H1849 H 0.83627 0.05934 0.25984 0.0
H1850 H 0.8241 0.03684 0.27912 0.0
C1851 C 0.77058 0.95942 0.31513 0.0
C1852 C 0.79152 0.99033 0.26343 0.0
H1853 H 0.82141 0.01577 0.24582 0.0
C1854 C 0.78447 0.99669 0.25887 0.0
C1855 C 0.80506 0.9974 0.25944 0.0
C1856 C 0.81332 0.99142 0.26625 0.0
C1857 C 0.79053 0.00982 0.24991 0.0
C1858 C 0.80401 0.01676 0.24452 0.0
C1859 C 0.81108 0.01045 0.24962 0.0
C1860 C 0.811 0.03055 0.23356 0.0
C1861 C 0.78245 0.01617 0.2471 0.0
C1862 C 0.80773 0.03455 0.2015 0.0
C1863 C 0.8146 0.04743 0.1906 0.0
C1864 C 0.82502 0.05658 0.21125 0.0
C1865 C 0.82828 0.05256 0.24335 0.0
C1866 C 0.82135 0.03969 0.25436 0.0
H1867 H 0.77333 0.01079 0.26253 0.0
H1868 H 0.78772 0.02621 0.25734 0.0
H1869 H 0.77994 0.01639 0.21827 0.0
H1870 H 0.80002 0.02766 0.18446 0.0
H1871 H 0.8119 0.05015 0.16554 0.0
H1872 H 0.95832 0.76336 0.1671 0.0
H1873 H 0.98079 0.77412 0.18614 0.0
H1874 H 0.9715 0.78956 0.2794 0.0
H1875 H 0.94901 0.77907 0.25997 0.0
H1876 H 0.99258 0.80777 0.24575 0.0
H1877 H 0.99767 0.76484 0.26542 0.0
H1878 H 0.99208 0.76555 0.22089 0.0
H1879 H 0.98224 0.76375 0.25971 0.0
C1880 C 0.96101 0.76893 0.19189 0.0
C1881 C 0.95183 0.7703 0.21209 0.0
C1882 C 0.97388 0.77503 0.20287 0.0
C1883 C 0.97785 0.78249 0.23457 0.0
C1884 C 0.96868 0.78381 0.25493 0.0
H1885 H 0.05197 0.81107 0.34044 0.0
H1886 H 0.02935 0.79932 0.3227 0.0
C1887 C 0.95581 0.77778 0.24384 0.0
C1888 C 0.99164 0.78939 0.24557 0.0
H1889 H 0.01711 0.78509 0.26436 0.0
C1890 C 0.99792 0.80279 0.25 0.0
C1891 C 0.9986 0.78291 0.25157 0.0
C1892 C 0.99228 0.76846 0.24953 0.0
C1893 C 0.01097 0.80989 0.25969 0.0
C1894 C 0.01808 0.80348 0.26423 0.0
C1895 C 0.01174 0.79005 0.26039 0.0
C1896 C 0.03197 0.81046 0.27409 0.0
C1897 C 0.01694 0.82418 0.26575 0.0
C1898 C 0.04109 0.82048 0.25231 0.0
C1899 C 0.05406 0.82729 0.26254 0.0
C1900 C 0.05821 0.8241 0.29453 0.0
C1901 C 0.04912 0.81379 0.31565 0.0
C1902 C 0.03616 0.80706 0.30554 0.0
H1903 H 0.00953 0.82691 0.27135 0.0
H1904 H 0.02382 0.82744 0.28873 0.0
H1905 H 0.02222 0.82936 0.24098 0.0
H1906 H 0.03818 0.82307 0.22742 0.0
H1907 H 0.06081 0.83511 0.24551 0.0
H1908 H 0.83645 0.77891 0.76276 0.0
H1909 H 0.82421 0.78927 0.78117 0.0
H1910 H 0.79988 0.77348 0.6873 0.0
H1911 H 0.81181 0.76284 0.66932 0.0
H1912 H 0.8213 0.80728 0.74689 0.0
H1913 H 0.77334 0.76419 0.76531 0.0
H1914 H 0.78776 0.76319 0.76034 0.0
H1915 H 0.77985 0.7649 0.72106 0.0
C1916 C 0.82839 0.77751 0.74629 0.0
C1917 C 0.82507 0.76997 0.71469 0.0
C1918 C 0.82142 0.78347 0.75679 0.0
C1919 C 0.81097 0.78202 0.73596 0.0
C1920 C 0.80766 0.77449 0.70439 0.0
H1921 H 0.78022 0.83438 0.74371 0.0
H1922 H 0.79098 0.82241 0.72644 0.0
C1923 C 0.81456 0.76846 0.69402 0.0
C1924 C 0.80394 0.78884 0.7463 0.0
H1925 H 0.774 0.78437 0.7634 0.0
C1926 C 0.81096 0.80225 0.75069 0.0
C1927 C 0.79047 0.7823 0.75171 0.0
C1928 C 0.78243 0.76784 0.74974 0.0
C1929 C 0.80489 0.8093 0.75978 0.0
C1930 C 0.79135 0.80281 0.76371 0.0
C1931 C 0.78435 0.78938 0.75989 0.0
C1932 C 0.78431 0.80973 0.77296 0.0
C1933 C 0.81311 0.82359 0.7659 0.0
C1934 C 0.7765 0.80625 0.80398 0.0
C1935 C 0.77018 0.81294 0.81359 0.0
C1936 C 0.77152 0.82328 0.79239 0.0
C1937 C 0.77906 0.82653 0.76079 0.0
C1938 C 0.78531 0.81976 0.75104 0.0
H1939 H 0.82323 0.82637 0.77209 0.0
H1940 H 0.81313 0.82875 0.74094 0.0
H1941 H 0.80932 0.82683 0.78852 0.0
H1942 H 0.7755 0.7985 0.82123 0.0
H1943 H 0.76445 0.81017 0.83809 0.0
H1944 H 0.22413 0.05748 0.74784 0.0
H1945 H 0.21357 0.03485 0.76553 0.0
H1946 H 0.2402 0.02956 0.69948 0.0
H1947 H 0.25052 0.05208 0.6807 0.0
H1948 H 0.21658 0.01063 0.68832 0.0
H1949 H 0.22441 0.01693 0.83639 0.0
H1950 H 0.2162 0.02485 0.81937 0.0
H1951 H 0.23242 0.03012 0.80502 0.0
C1952 C 0.22783 0.05154 0.73738 0.0
C1953 C 0.23821 0.05661 0.71295 0.0
C1954 C 0.22182 0.03859 0.7477 0.0
C1955 C 0.2262 0.03049 0.73439 0.0
C1956 C 0.23665 0.03559 0.71026 0.0
H1957 H 0.20132 0.95426 0.82359 0.0
H1958 H 0.21364 0.97678 0.80483 0.0
C1959 C 0.24257 0.04849 0.6996 0.0
C1960 C 0.21955 0.01658 0.74423 0.0
H1961 H 0.20914 0.99583 0.81604 0.0
C1962 C 0.21504 0.00741 0.71627 0.0
C1963 C 0.21768 0.01231 0.78067 0.0
C1964 C 0.22305 0.02157 0.81206 0.0
C1965 C 0.20853 0.99415 0.72368 0.0
C1966 C 0.20611 0.98988 0.76012 0.0
C1967 C 0.21084 0.99905 0.78808 0.0
C1968 C 0.19876 0.97598 0.76997 0.0
C1969 C 0.20457 0.98488 0.6923 0.0
C1970 C 0.18627 0.96795 0.75668 0.0
C1971 C 0.17926 0.95501 0.76699 0.0
C1972 C 0.18451 0.94986 0.79138 0.0
C1973 C 0.197 0.95791 0.80472 0.0
C1974 C 0.20405 0.9708 0.79408 0.0
H1975 H 0.21058 0.98949 0.66795 0.0
H1976 H 0.20531 0.97628 0.69932 0.0
H1977 H 0.19445 0.98168 0.68502 0.0
H1978 H 0.18181 0.97175 0.73887 0.0
H1979 H 0.16961 0.94912 0.75654 0.0
H1980 H 0.95714 0.1954 0.66356 0.0
H1981 H 0.97981 0.20708 0.68075 0.0
H1982 H 0.97117 0.18347 0.77626 0.0
H1983 H 0.94849 0.17149 0.7587 0.0
H1984 H 0.99228 0.2214 0.73852 0.0
H1985 H 0.99961 0.17942 0.73204 0.0
H1986 H 0.98528 0.17889 0.71498 0.0
H1987 H 0.98703 0.17709 0.76271 0.0
C1988 C 0.96004 0.19269 0.68828 0.0
C1989 C 0.95099 0.18243 0.70962 0.0
C1990 C 0.97303 0.19939 0.69808 0.0
C1991 C 0.97729 0.19601 0.72942 0.0
C1992 C 0.96821 0.18605 0.75143 0.0
H1993 H 0.05106 0.2431 0.83547 0.0
H1994 H 0.02861 0.23243 0.81637 0.0
C1995 C 0.95521 0.17926 0.7415 0.0
C1996 C 0.99121 0.20296 0.73899 0.0
H1997 H 0.01664 0.19857 0.75746 0.0
C1998 C 0.99761 0.2164 0.74255 0.0
C1999 C 0.99827 0.1965 0.74359 0.0
C2000 C 0.99224 0.1822 0.73778 0.0
C2001 C 0.01076 0.22351 0.75117 0.0
C2002 C 0.01768 0.21699 0.7573 0.0
C2003 C 0.01134 0.20358 0.75312 0.0
C2004 C 0.03147 0.22385 0.76827 0.0
C2005 C 0.01715 0.23797 0.75288 0.0
C2006 C 0.0406 0.22239 0.74813 0.0
C2007 C 0.05346 0.22837 0.75928 0.0
C2008 C 0.05748 0.23594 0.79085 0.0
C2009 C 0.04834 0.23746 0.81081 0.0
C2010 C 0.03548 0.23141 0.7998 0.0
H2011 H 0.0118 0.24159 0.73678 0.0
H2012 H 0.01735 0.24096 0.78143 0.0
H2013 H 0.02719 0.24261 0.74274 0.0
H2014 H 0.03775 0.21656 0.72381 0.0
H2015 H 0.06023 0.22695 0.74334 0.0
H2016 H 0.86471 0.57666 0.67027 0.0
H2017 H 0.87633 0.56583 0.65106 0.0
H2018 H 0.85126 0.55012 0.55859 0.0
H2019 H 0.83932 0.56068 0.57823 0.0
H2020 H 0.85425 0.53202 0.59227 0.0
H2021 H 0.90221 0.57484 0.57121 0.0
H2022 H 0.89608 0.57427 0.6159 0.0
H2023 H 0.88791 0.57597 0.57725 0.0
C2024 C 0.86173 0.57101 0.64561 0.0
C2025 C 0.8511 0.56959 0.6257 0.0
C2026 C 0.86845 0.56488 0.63453 0.0
C2027 C 0.86484 0.55732 0.603 0.0
C2028 C 0.85428 0.55595 0.58291 0.0
H2029 H 0.91019 0.52839 0.49755 0.0
H2030 H 0.89933 0.54019 0.51499 0.0
C2031 C 0.84748 0.56202 0.59412 0.0
C2032 C 0.87169 0.55038 0.59195 0.0
H2033 H 0.9014 0.55458 0.57286 0.0
C2034 C 0.86455 0.53697 0.58783 0.0
C2035 C 0.88512 0.55683 0.5857 0.0
C2036 C 0.89326 0.57128 0.58737 0.0
C2037 C 0.87046 0.52982 0.57823 0.0
C2038 C 0.88397 0.5362 0.57349 0.0
C2039 C 0.89108 0.54964 0.577 0.0
C2040 C 0.89085 0.52917 0.56378 0.0
C2041 C 0.86212 0.51552 0.5725 0.0
C2042 C 0.88996 0.5192 0.58576 0.0
C2043 C 0.89609 0.51235 0.5757 0.0
C2044 C 0.90341 0.51546 0.54368 0.0
C2045 C 0.90463 0.52572 0.52237 0.0
C2046 C 0.89842 0.53249 0.5323 0.0
H2047 H 0.85197 0.51279 0.56694 0.0
H2048 H 0.86569 0.51217 0.54962 0.0
H2049 H 0.86223 0.5104 0.59741 0.0
H2050 H 0.88447 0.51667 0.61068 0.0
H2051 H 0.89503 0.50456 0.59288 0.0
H2052 H 0.45283 0.28263 0.59329 0.0
H2053 H 0.46404 0.30536 0.57614 0.0
H2054 H 0.43765 0.31133 0.64118 0.0
H2055 H 0.42667 0.28874 0.65938 0.0
H2056 H 0.45694 0.32012 0.54114 0.0
H2057 H 0.47131 0.33902 0.68047 0.0
H2058 H 0.46452 0.32221 0.66983 0.0
H2059 H 0.45424 0.32899 0.67579 0.0
C2060 C 0.44939 0.28877 0.60389 0.0
C2061 C 0.43892 0.28388 0.62796 0.0
C2062 C 0.45583 0.30178 0.59408 0.0
C2063 C 0.45191 0.31017 0.60802 0.0
C2064 C 0.44113 0.30518 0.63093 0.0
H2065 H 0.47564 0.38596 0.51718 0.0
H2066 H 0.4638 0.3634 0.53558 0.0
C2067 C 0.43478 0.29221 0.64107 0.0
C2068 C 0.45905 0.32409 0.59839 0.0
H2069 H 0.47455 0.35433 0.63472 0.0
C2070 C 0.46082 0.32759 0.56163 0.0
C2071 C 0.46435 0.33389 0.62505 0.0
C2072 C 0.46364 0.33086 0.66497 0.0
C2073 C 0.46754 0.34055 0.5508 0.0
C2074 C 0.47234 0.35035 0.57748 0.0
C2075 C 0.47074 0.34686 0.61424 0.0
C2076 C 0.47927 0.36428 0.56783 0.0
C2077 C 0.46971 0.34357 0.51085 0.0
C2078 C 0.4917 0.37251 0.58123 0.0
C2079 C 0.49842 0.3855 0.57131 0.0
C2080 C 0.49285 0.39054 0.54766 0.0
C2081 C 0.48026 0.38237 0.53514 0.0
C2082 C 0.47351 0.36942 0.54539 0.0
H2083 H 0.46897 0.33533 0.49517 0.0
H2084 H 0.46224 0.34561 0.50046 0.0
H2085 H 0.47929 0.3521 0.5057 0.0
H2086 H 0.49633 0.36881 0.59881 0.0
H2087 H 0.50809 0.39152 0.58145 0.0
H2088 H 0.61566 0.11236 0.59212 0.0
H2089 H 0.63826 0.12311 0.61053 0.0
H2090 H 0.64736 0.10798 0.51622 0.0
H2091 H 0.62477 0.09695 0.49817 0.0
H2092 H 0.65959 0.1063 0.57511 0.0
H2093 H 0.6668 0.15553 0.5659 0.0
H2094 H 0.65411 0.14533 0.59635 0.0
H2095 H 0.65259 0.14164 0.54871 0.0
C2096 C 0.62246 0.11127 0.57538 0.0
C2097 C 0.6184 0.10384 0.54356 0.0
C2098 C 0.63541 0.11752 0.58579 0.0
C2099 C 0.6446 0.11661 0.56435 0.0
C2100 C 0.64049 0.10891 0.53311 0.0
H2101 H 0.72747 0.1686 0.57749 0.0
H2102 H 0.70495 0.1564 0.5584 0.0
C2103 C 0.62755 0.1026 0.52282 0.0
C2104 C 0.65848 0.12364 0.57432 0.0
H2105 H 0.68384 0.15359 0.59191 0.0
C2106 C 0.6649 0.11664 0.5787 0.0
C2107 C 0.6655 0.13718 0.57836 0.0
C2108 C 0.65945 0.14539 0.57174 0.0
C2109 C 0.67804 0.12276 0.58754 0.0
C2110 C 0.68493 0.13623 0.59299 0.0
C2111 C 0.67856 0.14325 0.58806 0.0
C2112 C 0.69873 0.14326 0.60387 0.0
C2113 C 0.68446 0.11473 0.59016 0.0
C2114 C 0.70277 0.13999 0.63583 0.0
C2115 C 0.71566 0.14687 0.64663 0.0
C2116 C 0.72478 0.15731 0.62597 0.0
C2117 C 0.72072 0.16059 0.59398 0.0
C2118 C 0.70783 0.15364 0.58307 0.0
H2119 H 0.6791 0.10561 0.57468 0.0
H2120 H 0.69448 0.12005 0.57986 0.0
H2121 H 0.68471 0.1122 0.61895 0.0
H2122 H 0.69592 0.13225 0.65287 0.0
H2123 H 0.71841 0.14416 0.6716 0.0
H2124 H 0.43117 0.14382 0.17279 0.0
H2125 H 0.44213 0.13212 0.1555 0.0
H2126 H 0.4577 0.15625 0.06114 0.0
H2127 H 0.44703 0.16826 0.07886 0.0
H2128 H 0.44053 0.1181 0.09731 0.0
H2129 H 0.48988 0.1599 0.10639 0.0
H2130 H 0.47602 0.16041 0.12304 0.0
H2131 H 0.47983 0.16242 0.07546 0.0
C2132 C 0.4369 0.14664 0.14829 0.0
C2133 C 0.43829 0.15705 0.12735 0.0
C2134 C 0.44318 0.13993 0.13844 0.0
C2135 C 0.45098 0.14345 0.10741 0.0
C2136 C 0.45203 0.15356 0.08575 0.0
H2137 H 0.47805 0.09641 1.00239 0.0
H2138 H 0.46626 0.10717 0.02065 0.0
C2139 C 0.44583 0.16036 0.09575 0.0
C2140 C 0.45795 0.13649 0.09786 0.0
H2141 H 0.48782 0.14081 0.08077 0.0
C2142 C 0.45088 0.12307 0.09379 0.0
C2143 C 0.47149 0.14291 0.09392 0.0
C2144 C 0.47977 0.15718 0.10028 0.0
C2145 C 0.45692 0.11594 0.08536 0.0
C2146 C 0.4704 0.12243 0.07995 0.0
C2147 C 0.47749 0.13582 0.08457 0.0
C2148 C 0.47736 0.11555 0.06939 0.0
C2149 C 0.44882 0.10149 0.08314 0.0
C2150 C 0.48776 0.11688 0.09018 0.0
C2151 C 0.49466 0.11085 0.07952 0.0
C2152 C 0.49129 0.10336 0.04781 0.0
C2153 C 0.48083 0.10199 0.02718 0.0
C2154 C 0.47401 0.10809 0.0377 0.0
H2155 H 0.43973 0.09785 0.0987 0.0
H2156 H 0.44623 0.09863 0.05442 0.0
H2157 H 0.4541 0.09677 0.09359 0.0
H2158 H 0.49059 0.12263 0.11465 0.0
H2159 H 0.50269 0.11215 0.09598 0.0
H2160 H 0.89027 0.39067 0.08169 0.0
H2161 H 0.87972 0.36801 0.09912 0.0
H2162 H 0.90657 0.36292 0.03352 0.0
H2163 H 0.91688 0.38546 0.01501 0.0
H2164 H 0.88297 0.34394 0.02194 0.0
H2165 H 0.89055 0.35009 0.17013 0.0
H2166 H 0.88232 0.358 0.15298 0.0
H2167 H 0.89858 0.36332 0.13888 0.0
C2168 C 0.89402 0.38476 0.07127 0.0
C2169 C 0.90446 0.3899 0.04705 0.0
C2170 C 0.88801 0.3718 0.08144 0.0
C2171 C 0.89246 0.36374 0.06818 0.0
C2172 C 0.90296 0.36891 0.04425 0.0
H2173 H 0.8679 0.28751 0.15669 0.0
H2174 H 0.88011 0.31005 0.13815 0.0
C2175 C 0.90888 0.38183 0.03375 0.0
C2176 C 0.88584 0.34983 0.0779 0.0
H2177 H 0.87542 0.32899 0.14952 0.0
C2178 C 0.8814 0.34069 0.04986 0.0
C2179 C 0.88393 0.34552 0.11431 0.0
C2180 C 0.88922 0.35475 0.14578 0.0
C2181 C 0.87494 0.32742 0.05715 0.0
C2182 C 0.87249 0.32311 0.09355 0.0
C2183 C 0.87714 0.33225 0.12159 0.0
C2184 C 0.86521 0.30919 0.10328 0.0
C2185 C 0.87106 0.31819 0.02569 0.0
C2186 C 0.85274 0.30112 0.0899 0.0
C2187 C 0.84579 0.28816 0.10009 0.0
C2188 C 0.85108 0.28304 0.12444 0.0
C2189 C 0.86355 0.29113 0.13785 0.0
C2190 C 0.87054 0.30404 0.12733 0.0
H2191 H 0.87707 0.32285 1.00139 0.0
H2192 H 0.87186 0.30962 0.03266 0.0
H2193 H 0.86093 0.31492 0.01837 0.0
H2194 H 0.84825 0.30489 0.07211 0.0
H2195 H 0.83616 0.28224 0.08958 0.0
H2196 H 0.7198 0.58242 0.15572 0.0
H2197 H 0.69718 0.57147 0.13787 0.0
H2198 H 0.70294 0.54492 0.07292 0.0
H2199 H 0.72569 0.55608 0.08982 0.0
H2200 H 0.68807 0.55222 0.03815 0.0
H2201 H 0.66966 0.53768 0.17792 0.0
H2202 H 0.67974 0.55474 0.17314 0.0
H2203 H 0.68642 0.54441 0.16667 0.0
C2204 C 0.71628 0.57429 0.13749 0.0
C2205 C 0.72455 0.57008 0.12439 0.0
C2206 C 0.70329 0.56796 0.12754 0.0
C2207 C 0.69824 0.55715 0.10477 0.0
C2208 C 0.70657 0.55317 0.09076 0.0
H2209 H 0.6171 0.50048 0.07951 0.0
H2210 H 0.63985 0.51245 0.09618 0.0
C2211 C 0.71959 0.55957 0.10043 0.0
C2212 C 0.68429 0.54999 0.09549 0.0
H2213 H 0.65419 0.53429 0.13266 0.0
C2214 C 0.68067 0.54828 0.05883 0.0
C2215 C 0.67459 0.54463 0.12242 0.0
C2216 C 0.67778 0.54533 0.16221 0.0
C2217 C 0.66767 0.54153 0.04836 0.0
C2218 C 0.65797 0.53662 0.07532 0.0
C2219 C 0.66159 0.53819 0.11197 0.0
C2220 C 0.64402 0.52957 0.06608 0.0
C2221 C 0.66451 0.53945 0.00848 0.0
C2222 C 0.63865 0.53529 0.04434 0.0
C2223 C 0.62566 0.52843 0.03452 0.0
C2224 C 0.61769 0.51576 0.04672 0.0
C2225 C 0.62296 0.51022 0.06962 0.0
C2226 C 0.63598 0.51705 0.07916 0.0
H2227 H 0.67274 0.54037 0.99234 0.0
H2228 H 0.65605 0.52981 1.00335 0.0
H2229 H 0.66226 0.54683 0.99863 0.0
H2230 H 0.64453 0.54506 0.03477 0.0
H2231 H 0.62189 0.53303 0.01711 0.0
H2232 H 0.53138 0.91012 0.00649 0.0
H2233 H 0.54317 0.89944 0.98736 0.0
H2234 H 0.51853 0.88406 0.89391 0.0
H2235 H 0.50644 0.89446 0.91344 0.0
H2236 H 0.52145 0.86586 0.92735 0.0
H2237 H 0.56941 0.9089 0.90828 0.0
H2238 H 0.56306 0.90809 0.9528 0.0
H2239 H 0.55504 0.90993 0.91399 0.0
C2240 C 0.52854 0.90458 0.98164 0.0
C2241 C 0.51799 0.9032 0.96141 0.0
C2242 C 0.53535 0.89853 0.97061 0.0
C2243 C 0.53191 0.89111 0.93883 0.0
C2244 C 0.52142 0.88978 0.91844 0.0
H2245 H 0.5777 0.86289 0.83265 0.0
H2246 H 0.56679 0.87458 0.85064 0.0
C2247 C 0.51454 0.89576 0.92959 0.0
C2248 C 0.53885 0.88426 0.92778 0.0
H2249 H 0.56867 0.88867 0.90915 0.0
C2250 C 0.53177 0.87086 0.92318 0.0
C2251 C 0.5523 0.89078 0.92191 0.0
C2252 C 0.56038 0.90523 0.92412 0.0
C2253 C 0.53776 0.8638 0.91343 0.0
C2254 C 0.55128 0.87026 0.90901 0.0
C2255 C 0.55834 0.88368 0.91303 0.0
C2256 C 0.55824 0.86333 0.89904 0.0
C2257 C 0.52948 0.84953 0.90716 0.0
C2258 C 0.55734 0.85326 0.92064 0.0
C2259 C 0.56351 0.84648 0.91026 0.0
C2260 C 0.57087 0.84974 0.87831 0.0
C2261 C 0.57211 0.8601 0.85741 0.0
C2262 C 0.56587 0.86681 0.86766 0.0
H2263 H 0.51934 0.84678 0.9015 0.0
H2264 H 0.53314 0.84632 0.88415 0.0
H2265 H 0.52957 0.84431 0.93187 0.0
H2266 H 0.5518 0.8506 0.94549 0.0
H2267 H 0.56243 0.83862 0.92712 0.0
H2268 H 0.11347 0.61424 0.91354 0.0
H2269 H 0.12422 0.63685 0.89515 0.0
H2270 H 0.10858 0.64582 0.9886 0.0
H2271 H 0.09754 0.62322 0.00655 0.0
H2272 H 0.10713 0.65809 0.92991 0.0
H2273 H 0.15639 0.66544 0.94019 0.0
H2274 H 0.14634 0.65279 0.90945 0.0
H2275 H 0.14248 0.65116 0.95698 0.0
C2276 C 0.11227 0.62101 0.93008 0.0
C2277 C 0.10469 0.61691 0.96163 0.0
C2278 C 0.11852 0.63397 0.9197 0.0
C2279 C 0.11747 0.64313 0.94092 0.0
C2280 C 0.10962 0.63898 0.97188 0.0
H2281 H 0.16945 0.72604 0.92796 0.0
H2282 H 0.15726 0.70351 0.94707 0.0
C2283 C 0.1033 0.62603 0.98211 0.0
C2284 C 0.1245 0.65702 0.93102 0.0
H2285 H 0.15445 0.68245 0.91389 0.0
C2286 C 0.11749 0.66342 0.9265 0.0
C2287 C 0.13805 0.66408 0.92722 0.0
C2288 C 0.14628 0.65806 0.93407 0.0
C2289 C 0.12359 0.67657 0.91777 0.0
C2290 C 0.13707 0.68349 0.91251 0.0
C2291 C 0.14411 0.67715 0.91757 0.0
C2292 C 0.1441 0.6973 0.90166 0.0
C2293 C 0.11553 0.68295 0.91508 0.0
C2294 C 0.14081 0.70135 0.86974 0.0
C2295 C 0.14768 0.71424 0.85896 0.0
C2296 C 0.15813 0.72335 0.87958 0.0
C2297 C 0.16143 0.71929 0.91151 0.0
C2298 C 0.15449 0.7064 0.92242 0.0
H2299 H 0.10642 0.67759 0.93058 0.0
H2300 H 0.12083 0.69298 0.92532 0.0
H2301 H 0.11299 0.68317 0.88628 0.0
H2302 H 0.13307 0.69449 0.8527 0.0
H2303 H 0.14495 0.71699 0.83401 0.0
H2304 H 0.28149 0.44536 0.92879 0.0
H2305 H 0.30403 0.45606 0.94783 0.0
H2306 H 0.31305 0.43941 0.85691 0.0
H2307 H 0.29052 0.42845 0.83825 0.0
H2308 H 0.32491 0.43824 0.91751 0.0
H2309 H 0.33308 0.48764 0.90098 0.0
H2310 H 0.32019 0.478 0.93156 0.0
H2311 H 0.31881 0.47366 0.88443 0.0
C2312 C 0.28826 0.44393 0.91294 0.0
C2313 C 0.2842 0.43609 0.88188 0.0
C2314 C 0.30118 0.45014 0.92369 0.0
C2315 C 0.31033 0.44878 0.90336 0.0
C2316 C 0.30621 0.44068 0.87292 0.0
H2317 H 0.39342 0.49969 0.91778 0.0
H2318 H 0.37098 0.48761 0.89784 0.0
C2319 C 0.2933 0.43442 0.86229 0.0
C2320 C 0.32418 0.45575 0.91369 0.0
H2321 H 0.34982 0.48571 0.92919 0.0
C2322 C 0.33036 0.44862 0.91998 0.0
C2323 C 0.33138 0.46932 0.91627 0.0
C2324 C 0.32558 0.47763 0.9076 0.0
C2325 C 0.34346 0.45466 0.92934 0.0
C2326 C 0.35053 0.4682 0.93334 0.0
C2327 C 0.3444 0.47533 0.92646 0.0
C2328 C 0.36426 0.47516 0.94481 0.0
C2329 C 0.34963 0.44647 0.93411 0.0
C2330 C 0.368 0.47223 0.97789 0.0
C2331 C 0.38083 0.47904 0.98919 0.0
C2332 C 0.39021 0.48907 0.9679 0.0
C2333 C 0.38646 0.492 0.93478 0.0
C2334 C 0.37362 0.48512 0.92339 0.0
H2335 H 0.3442 0.43716 0.91957 0.0
H2336 H 0.3597 0.4515 0.92413 0.0
H2337 H 0.34971 0.44433 0.96333 0.0
H2338 H 0.36094 0.46482 0.99537 0.0
H2339 H 0.38333 0.4766 0.01501 0.0
H2340 H 0.09187 0.47266 0.49078 0.0
H2341 H 0.10264 0.46079 0.47311 0.0
H2342 H 0.12971 0.49312 0.40914 0.0
H2343 H 0.11872 0.5049 0.42581 0.0
H2344 H 0.12238 0.47113 0.37397 0.0
H2345 H 0.13599 0.4663 0.51402 0.0
H2346 H 0.11897 0.45953 0.50869 0.0
H2347 H 0.1295 0.47655 0.50285 0.0
C2348 C 0.10008 0.47723 0.47281 0.0
C2349 C 0.10448 0.48977 0.45989 0.0
C2350 C 0.10631 0.47046 0.46298 0.0
C2351 C 0.11721 0.47616 0.44054 0.0
C2352 C 0.12139 0.48854 0.42673 0.0
H2353 H 0.17283 0.45018 0.41651 0.0
H2354 H 0.16117 0.4613 0.43326 0.0
C2355 C 0.11508 0.49527 0.43625 0.0
C2356 C 0.12424 0.46923 0.43134 0.0
H2357 H 0.13926 0.45416 0.46864 0.0
C2358 C 0.1261 0.46745 0.39469 0.0
C2359 C 0.12931 0.46461 0.45832 0.0
C2360 C 0.12847 0.46695 0.49815 0.0
C2361 C 0.13272 0.46106 0.38428 0.0
C2362 C 0.13731 0.45596 0.41127 0.0
C2363 C 0.13561 0.4579 0.44792 0.0
C2364 C 0.14415 0.44884 0.40207 0.0
C2365 C 0.135 0.46015 0.34444 0.0
C2366 C 0.13837 0.43791 0.37974 0.0
C2367 C 0.14506 0.43161 0.36986 0.0
C2368 C 0.15761 0.43596 0.38263 0.0
C2369 C 0.16318 0.44658 0.40618 0.0
C2370 C 0.15653 0.45296 0.41576 0.0
H2371 H 0.13438 0.46767 0.32852 0.0
H2372 H 0.14456 0.4611 0.33967 0.0
H2373 H 0.12752 0.45065 0.33403 0.0
H2374 H 0.12869 0.43429 0.3697 0.0
H2375 H 0.14043 0.42338 0.35195 0.0
H2376 H 0.50676 0.61422 0.41326 0.0
H2377 H 0.51897 0.6368 0.39471 0.0
H2378 H 0.54319 0.64549 0.4889 0.0
H2379 H 0.53129 0.62293 0.50704 0.0
H2380 H 0.52179 0.65774 0.42867 0.0
H2381 H 0.56981 0.66266 0.41102 0.0
H2382 H 0.5554 0.64725 0.41602 0.0
H2383 H 0.56325 0.65693 0.45525 0.0
C2384 C 0.51479 0.62091 0.42979 0.0
C2385 C 0.51809 0.61674 0.46152 0.0
C2386 C 0.52175 0.63383 0.4192 0.0
C2387 C 0.53215 0.64286 0.44007 0.0
C2388 C 0.53544 0.6387 0.47178 0.0
H2389 H 0.56274 0.72591 0.43052 0.0
H2390 H 0.55205 0.70325 0.44833 0.0
C2391 C 0.52856 0.62577 0.48224 0.0
C2392 C 0.53916 0.65669 0.42958 0.0
H2393 H 0.56909 0.68215 0.41226 0.0
C2394 C 0.53212 0.66305 0.42491 0.0
C2395 C 0.55264 0.66363 0.42421 0.0
C2396 C 0.56071 0.65724 0.42651 0.0
C2397 C 0.53817 0.67614 0.41554 0.0
C2398 C 0.55171 0.68321 0.41163 0.0
C2399 C 0.55874 0.67681 0.41576 0.0
C2400 C 0.55873 0.69713 0.40206 0.0
C2401 C 0.52993 0.68217 0.40911 0.0
C2402 C 0.56651 0.70138 0.371 0.0
C2403 C 0.5728 0.71436 0.36108 0.0
C2404 C 0.57144 0.7234 0.382 0.0
C2405 C 0.56392 0.7192 0.41365 0.0
C2406 C 0.55771 0.70621 0.4237 0.0
H2407 H 0.51982 0.67481 0.40301 0.0
H2408 H 0.5299 0.68738 0.43391 0.0
H2409 H 0.53371 0.68913 0.38633 0.0
H2410 H 0.56753 0.6946 0.35395 0.0
H2411 H 0.57852 0.71725 0.33655 0.0
H2412 H 0.38733 0.91543 0.4874 0.0
H2413 H 0.36472 0.90467 0.46946 0.0
H2414 H 0.37006 0.8776 0.40574 0.0
H2415 H 0.3928 0.88858 0.42263 0.0
H2416 H 0.3555 0.88488 0.37023 0.0
H2417 H 0.33674 0.87139 0.51002 0.0
H2418 H 0.34698 0.88841 0.50464 0.0
H2419 H 0.3535 0.87788 0.49922 0.0
C2420 C 0.38371 0.90722 0.46943 0.0
C2421 C 0.39187 0.90282 0.45663 0.0
C2422 C 0.37073 0.901 0.45944 0.0
C2423 C 0.36555 0.8901 0.43698 0.0
C2424 C 0.37377 0.88592 0.42333 0.0
H2425 H 0.284 0.83453 0.41224 0.0
H2426 H 0.30674 0.84618 0.42919 0.0
C2427 C 0.38679 0.89222 0.43299 0.0
C2428 C 0.35162 0.88309 0.42753 0.0
H2429 H 0.32143 0.8681 0.46425 0.0
C2430 C 0.34806 0.88118 0.39081 0.0
C2431 C 0.34186 0.87804 0.45433 0.0
C2432 C 0.34494 0.8789 0.49424 0.0
C2433 C 0.33508 0.87455 0.38016 0.0
C2434 C 0.32532 0.86998 0.40695 0.0
C2435 C 0.32888 0.87173 0.44367 0.0
C2436 C 0.31139 0.86313 0.39748 0.0
C2437 C 0.332 0.87222 0.34028 0.0
C2438 C 0.30629 0.86886 0.37474 0.0
C2439 C 0.29332 0.86216 0.36472 0.0
C2440 C 0.28508 0.84967 0.37777 0.0
C2441 C 0.29007 0.84413 0.40168 0.0
C2442 C 0.30309 0.85079 0.41138 0.0
H2443 H 0.34017 0.87279 0.32463 0.0
H2444 H 0.32339 0.86265 0.33547 0.0
H2445 H 0.33003 0.8797 0.32957 0.0
H2446 H 0.31237 0.87851 0.36453 0.0
H2447 H 0.28976 0.86676 0.34654 0.0
H2448 H 0.28336 0.14305 0.21532 0.0
H2449 H 0.30529 0.14731 0.20761 0.0
H2450 H 0.31599 0.18387 0.15845 0.0
H2451 H 0.2939 0.17961 0.16564 0.0
H2452 H 0.32362 0.16898 0.11844 0.0
H2453 H 0.33802 0.17174 0.26241 0.0
H2454 H 0.32319 0.15747 0.25156 0.0
H2455 H 0.32422 0.1729 0.24856 0.0
C2456 C 0.29038 0.15209 0.20327 0.0
C2457 C 0.28683 0.161 0.19113 0.0
C2458 C 0.30296 0.15453 0.19906 0.0
C2459 C 0.31233 0.16597 0.18284 0.0
C2460 C 0.30892 0.175 0.17121 0.0
H2461 H 0.39206 0.1962 0.1227 0.0
H2462 H 0.37009 0.1919 0.13008 0.0
C2463 C 0.2963 0.17258 0.17547 0.0
C2464 C 0.32546 0.1681 0.17625 0.0
H2465 H 0.35171 0.17014 0.21866 0.0
C2466 C 0.32981 0.16933 0.14035 0.0
C2467 C 0.33348 0.16845 0.20486 0.0
C2468 C 0.32956 0.16769 0.24404 0.0
C2469 C 0.34185 0.17068 0.13225 0.0
C2470 C 0.34986 0.17102 0.16085 0.0
C2471 C 0.34552 0.16979 0.19675 0.0
C2472 C 0.36299 0.17315 0.15428 0.0
C2473 C 0.3458 0.17148 0.09308 0.0
C2474 C 0.36636 0.16406 0.16564 0.0
C2475 C 0.37899 0.16649 0.16152 0.0
C2476 C 0.3885 0.17814 0.14632 0.0
C2477 C 0.38499 0.18711 0.13441 0.0
C2478 C 0.3724 0.18465 0.13844 0.0
H2479 H 0.33736 0.16752 0.07464 0.0
H2480 H 0.35225 0.1817 0.08572 0.0
H2481 H 0.35108 0.16621 0.08852 0.0
H2482 H 0.35925 0.15514 0.1781 0.0
H2483 H 0.38136 0.15942 0.17117 0.0
H2484 H 0.81127 0.1977 0.12076 0.0
H2485 H 0.81521 0.17979 0.12869 0.0
H2486 H 0.85215 0.2054 0.17616 0.0
H2487 H 0.84837 0.22351 0.16796 0.0
H2488 H 0.85248 0.18772 0.12648 0.0
H2489 H 0.81321 0.16306 0.22699 0.0
H2490 H 0.80823 0.1667 0.1849 0.0
H2491 H 0.8193 0.17957 0.21368 0.0
C2492 C 0.82029 0.19959 0.13268 0.0
C2493 C 0.82947 0.21206 0.14401 0.0
C2494 C 0.82248 0.18929 0.13742 0.0
C2495 C 0.83383 0.1912 0.1538 0.0
C2496 C 0.84326 0.2037 0.16376 0.0
H2497 H 0.86448 0.14186 0.21348 0.0
H2498 H 0.86041 0.15964 0.20473 0.0
C2499 C 0.8411 0.21405 0.15897 0.0
C2500 C 0.83578 0.1801 0.16078 0.0
H2501 H 0.82319 0.15149 0.20605 0.0
C2502 C 0.84612 0.17983 0.144 0.0
C2503 C 0.82744 0.16979 0.18361 0.0
C2504 C 0.81648 0.1698 0.20362 0.0
C2505 C 0.84822 0.16942 0.14892 0.0
C2506 C 0.83989 0.15912 0.17176 0.0
C2507 C 0.82954 0.15938 0.1885 0.0
C2508 C 0.84192 0.1481 0.17902 0.0
C2509 C 0.8592 0.16943 0.12902 0.0
C2510 C 0.83261 0.13556 0.16893 0.0
C2511 C 0.83486 0.12529 0.17414 0.0
C2512 C 0.84644 0.12737 0.18971 0.0
C2513 C 0.85549 0.13988 0.20112 0.0
C2514 C 0.85323 0.1501 0.19592 0.0
H2515 H 0.86249 0.17617 0.10566 0.0
H2516 H 0.86744 0.17253 0.14782 0.0
H2517 H 0.8564 0.15966 0.11898 0.0
H2518 H 0.82376 0.13378 0.15614 0.0
H2519 H 0.82768 0.11579 0.16507 0.0
H2520 H 0.78414 0.62734 0.1679 0.0
H2521 H 0.80221 0.64932 0.17471 0.0
H2522 H 0.82797 0.6375 0.13097 0.0
H2523 H 0.81006 0.61565 0.12373 0.0
H2524 H 0.82431 0.65659 0.21727 0.0
H2525 H 0.83746 0.67017 0.07336 0.0
H2526 H 0.82217 0.65673 0.08677 0.0
H2527 H 0.83629 0.65517 0.0858 0.0
C2528 C 0.79361 0.62947 0.15915 0.0
C2529 C 0.79562 0.61971 0.14522 0.0
C2530 C 0.80393 0.64202 0.1632 0.0
C2531 C 0.81642 0.64508 0.15302 0.0
C2532 C 0.81839 0.63543 0.1384 0.0
H2533 H 0.89247 0.71343 0.16669 0.0
H2534 H 0.87445 0.69145 0.15928 0.0
C2535 C 0.80812 0.6229 0.13446 0.0
C2536 C 0.82753 0.65814 0.15964 0.0
H2537 H 0.85236 0.68396 0.11761 0.0
C2538 C 0.8304 0.66262 0.19547 0.0
C2539 C 0.83553 0.66594 0.1312 0.0
C2540 C 0.83267 0.66183 0.09207 0.0
C2541 C 0.84116 0.6746 0.20369 0.0
C2542 C 0.84914 0.68242 0.17525 0.0
C2543 C 0.84628 0.67793 0.13941 0.0
C2544 C 0.86022 0.6955 0.18189 0.0
C2545 C 0.84403 0.67866 0.24285 0.0
C2546 C 0.85823 0.70505 0.19715 0.0
C2547 C 0.86848 0.71757 0.2015 0.0
C2548 C 0.88098 0.72087 0.19044 0.0
C2549 C 0.883 0.71122 0.17569 0.0
C2550 C 0.8727 0.69867 0.1713 0.0
H2551 H 0.83938 0.67028 0.26146 0.0
H2552 H 0.85454 0.68389 0.24807 0.0
H2553 H 0.84026 0.68518 0.2494 0.0
H2554 H 0.84866 0.70291 0.20487 0.0
H2555 H 0.86651 0.72473 0.21281 0.0
H2556 H 0.19802 0.39068 0.38116 0.0
H2557 H 0.19414 0.36886 0.37343 0.0
H2558 H 0.15633 0.35692 0.33138 0.0
H2559 H 0.16006 0.37879 0.33941 0.0
H2560 H 0.15706 0.33937 0.38079 0.0
H2561 H 0.19452 0.35347 0.27474 0.0
H2562 H 0.2002 0.36241 0.31615 0.0
H2563 H 0.18855 0.36388 0.28911 0.0
C2564 C 0.18882 0.38343 0.37047 0.0
C2565 C 0.17939 0.38655 0.36062 0.0
C2566 C 0.18667 0.37096 0.36584 0.0
C2567 C 0.17507 0.36133 0.35102 0.0
C2568 C 0.1654 0.36424 0.34255 0.0
H2569 H 0.144 0.28103 0.29477 0.0
H2570 H 0.14804 0.30287 0.30341 0.0
C2571 C 0.16754 0.37674 0.34724 0.0
C2572 C 0.17312 0.34828 0.34415 0.0
H2573 H 0.1851 0.3321 0.29687 0.0
C2574 C 0.16315 0.33776 0.36232 0.0
C2575 C 0.1811 0.34622 0.3201 0.0
C2576 C 0.19163 0.35706 0.29862 0.0
C2577 C 0.16108 0.32526 0.35757 0.0
C2578 C 0.16905 0.32319 0.33349 0.0
C2579 C 0.17903 0.33371 0.31537 0.0
C2580 C 0.167 0.31012 0.32631 0.0
C2581 C 0.15053 0.3144 0.37895 0.0
C2582 C 0.17655 0.30706 0.33484 0.0
C2583 C 0.17432 0.29454 0.32968 0.0
C2584 C 0.1625 0.28488 0.31572 0.0
C2585 C 0.15317 0.28817 0.30588 0.0
C2586 C 0.15542 0.30065 0.31102 0.0
H2587 H 0.14763 0.31798 0.40286 0.0
H2588 H 0.14196 0.30907 0.36137 0.0
H2589 H 0.15358 0.30755 0.3884 0.0
H2590 H 0.18561 0.31427 0.34637 0.0
H2591 H 0.18171 0.29236 0.33751 0.0
H2592 H 0.62827 0.78279 0.33776 0.0
H2593 H 0.65023 0.80072 0.32975 0.0
H2594 H 0.63939 0.82653 0.37858 0.0
H2595 H 0.61747 0.80879 0.38629 0.0
H2596 H 0.65209 0.83551 0.31329 0.0
H2597 H 0.67895 0.82016 0.4034 0.0
H2598 H 0.66892 0.80835 0.37057 0.0
H2599 H 0.66171 0.81307 0.40556 0.0
C2600 C 0.63061 0.79224 0.34733 0.0
C2601 C 0.62108 0.79432 0.36266 0.0
C2602 C 0.64318 0.80248 0.3428 0.0
C2603 C 0.64649 0.81496 0.35381 0.0
C2604 C 0.63707 0.81699 0.36989 0.0
H2605 H 0.71511 0.89096 0.34089 0.0
H2606 H 0.69321 0.87298 0.34932 0.0
C2607 C 0.62453 0.8068 0.37435 0.0
C2608 C 0.65953 0.82606 0.34689 0.0
H2609 H 0.69137 0.8382 0.36569 0.0
C2610 C 0.66068 0.83613 0.32487 0.0
C2611 C 0.67073 0.82685 0.36196 0.0
C2612 C 0.67006 0.8166 0.38696 0.0
C2613 C 0.67273 0.84686 0.31703 0.0
C2614 C 0.68393 0.84765 0.3321 0.0
C2615 C 0.68278 0.83758 0.35412 0.0
C2616 C 0.69697 0.85876 0.32518 0.0
C2617 C 0.67339 0.85711 0.29201 0.0
C2618 C 0.70638 0.85676 0.30897 0.0
C2619 C 0.71889 0.86697 0.30426 0.0
C2620 C 0.72232 0.87946 0.31584 0.0
C2621 C 0.7128 0.88151 0.33141 0.0
C2622 C 0.70025 0.87124 0.33617 0.0
H2623 H 0.6645 0.85355 0.27557 0.0
H2624 H 0.67454 0.86537 0.30838 0.0
H2625 H 0.68175 0.86064 0.2734 0.0
H2626 H 0.70407 0.84722 0.3003 0.0
H2627 H 0.72594 0.86501 0.29216 0.0
H2628 H 0.19964 0.81021 0.37971 0.0
H2629 H 0.18176 0.8142 0.37181 0.0
H2630 H 0.20769 0.85167 0.3278 0.0
H2631 H 0.2257 0.84772 0.33523 0.0
H2632 H 0.17754 0.83366 0.39863 0.0
H2633 H 0.18023 0.83459 0.24827 0.0
H2634 H 0.18849 0.82864 0.27608 0.0
H2635 H 0.19492 0.84564 0.27079 0.0
C2636 C 0.2016 0.81935 0.36855 0.0
C2637 C 0.21413 0.82861 0.35783 0.0
C2638 C 0.19134 0.82161 0.36407 0.0
C2639 C 0.19334 0.83312 0.34858 0.0
C2640 C 0.20589 0.8426 0.33913 0.0
H2641 H 0.14363 0.86321 0.29177 0.0
H2642 H 0.1613 0.85896 0.30037 0.0
C2643 C 0.21619 0.84037 0.34367 0.0
C2644 C 0.18222 0.83505 0.34191 0.0
H2645 H 0.16527 0.83953 0.27472 0.0
C2646 C 0.17482 0.83491 0.37154 0.0
C2647 C 0.17867 0.83662 0.30652 0.0
C2648 C 0.1859 0.83628 0.2735 0.0
C2649 C 0.16413 0.83658 0.36684 0.0
C2650 C 0.16059 0.83817 0.33145 0.0
C2651 C 0.16797 0.83827 0.30181 0.0
C2652 C 0.14957 0.84026 0.32471 0.0
C2653 C 0.15694 0.83698 0.39989 0.0
C2654 C 0.13699 0.83098 0.33462 0.0
C2655 C 0.12679 0.83338 0.32974 0.0
C2656 C 0.129 0.84508 0.3147 0.0
C2657 C 0.14155 0.85411 0.30359 0.0
C2658 C 0.1517 0.85171 0.30847 0.0
H2659 H 0.16265 0.83871 0.42507 0.0
H2660 H 0.15433 0.8446 0.39726 0.0
H2661 H 0.14793 0.82761 0.40275 0.0
H2662 H 0.13507 0.82195 0.34648 0.0
H2663 H 0.11726 0.82619 0.33848 0.0
H2664 H 0.7253 0.86263 0.78845 0.0
H2665 H 0.7034 0.85845 0.79692 0.0
H2666 H 0.69252 0.82143 0.84321 0.0
H2667 H 0.71455 0.8256 0.83528 0.0
H2668 H 0.67978 0.83883 0.77161 0.0
H2669 H 0.68218 0.83871 0.92196 0.0
H2670 H 0.69628 0.84453 0.89373 0.0
H2671 H 0.68576 0.82755 0.89977 0.0
C2672 C 0.71826 0.85355 0.80024 0.0
C2673 C 0.72174 0.84449 0.81147 0.0
C2674 C 0.70572 0.85118 0.80504 0.0
C2675 C 0.69639 0.83975 0.82134 0.0
C2676 C 0.69965 0.83045 0.83127 0.0
H2677 H 0.61671 0.81016 0.87994 0.0
H2678 H 0.63852 0.81413 0.871 0.0
C2679 C 0.71222 0.8328 0.82643 0.0
C2680 C 0.68332 0.83775 0.82831 0.0
H2681 H 0.66219 0.83365 0.89602 0.0
C2682 C 0.67593 0.83772 0.7988 0.0
C2683 C 0.67835 0.83636 0.86384 0.0
C2684 C 0.68607 0.83689 0.89673 0.0
C2685 C 0.66361 0.8361 0.80379 0.0
C2686 C 0.65864 0.83473 0.83932 0.0
C2687 C 0.66603 0.83475 0.86882 0.0
C2688 C 0.64561 0.83281 0.84633 0.0
C2689 C 0.65589 0.83557 0.7709 0.0
C2690 C 0.64241 0.84216 0.83636 0.0
C2691 C 0.6299 0.83993 0.84147 0.0
C2692 C 0.62036 0.82831 0.85675 0.0
C2693 C 0.62377 0.81919 0.86793 0.0
C2694 C 0.63625 0.82144 0.86285 0.0
H2695 H 0.65974 0.83369 0.7457 0.0
H2696 H 0.64567 0.82799 0.77397 0.0
H2697 H 0.65627 0.84494 0.76775 0.0
H2698 H 0.64957 0.85113 0.82427 0.0
H2699 H 0.62763 0.84717 0.83266 0.0
H2700 H 0.19738 0.80867 0.88154 0.0
H2701 H 0.19309 0.82632 0.87348 0.0
H2702 H 0.15626 0.80025 0.82613 0.0
H2703 H 0.16054 0.78243 0.8337 0.0
H2704 H 0.17102 0.82254 0.78497 0.0
H2705 H 0.16896 0.835 0.92855 0.0
H2706 H 0.18315 0.83431 0.91748 0.0
H2707 H 0.16768 0.81994 0.91524 0.0
C2708 C 0.18827 0.8066 0.86984 0.0
C2709 C 0.17929 0.79409 0.8583 0.0
C2710 C 0.18582 0.81673 0.86542 0.0
C2711 C 0.1743 0.81459 0.84959 0.0
C2712 C 0.16519 0.80209 0.83859 0.0
H2713 H 0.14462 0.86455 0.78795 0.0
H2714 H 0.14858 0.84668 0.79586 0.0
C2715 C 0.16763 0.79191 0.84308 0.0
C2716 C 0.17217 0.82557 0.84266 0.0
H2717 H 0.17052 0.85012 0.88426 0.0
C2718 C 0.1708 0.82851 0.80668 0.0
C2719 C 0.172 0.83342 0.871 0.0
C2720 C 0.1729 0.83046 0.91027 0.0
C2721 C 0.16952 0.83922 0.79822 0.0
C2722 C 0.16939 0.8471 0.82656 0.0
C2723 C 0.17072 0.84414 0.86254 0.0
C2724 C 0.16743 0.85819 0.81963 0.0
C2725 C 0.1686 0.84219 0.75897 0.0
C2726 C 0.17668 0.87064 0.83057 0.0
C2727 C 0.17444 0.88094 0.82616 0.0
C2728 C 0.16282 0.87895 0.81107 0.0
C2729 C 0.1537 0.86648 0.79955 0.0
C2730 C 0.15596 0.85623 0.80389 0.0
H2731 H 0.1724 0.83753 0.74062 0.0
H2732 H 0.15836 0.83849 0.7519 0.0
H2733 H 0.17395 0.85271 0.75394 0.0
H2734 H 0.18558 0.87235 0.84294 0.0
H2735 H 0.18164 0.89038 0.83551 0.0
H2736 H 0.19873 0.39031 0.88034 0.0
H2737 H 0.18101 0.36837 0.87272 0.0
H2738 H 0.20715 0.35719 0.82804 0.0
H2739 H 0.22505 0.37918 0.83597 0.0
H2740 H 0.17252 0.35523 0.80779 0.0
H2741 H 0.18714 0.32899 0.90273 0.0
H2742 H 0.19422 0.34625 0.90376 0.0
H2743 H 0.1992 0.3388 0.87016 0.0
C2744 C 0.20079 0.38318 0.86931 0.0
C2745 C 0.21336 0.38654 0.85879 0.0
C2746 C 0.19061 0.37063 0.8649 0.0
C2747 C 0.19275 0.36111 0.85005 0.0
C2748 C 0.20531 0.36433 0.84015 0.0
H2749 H 0.14295 0.28117 0.79242 0.0
H2750 H 0.16073 0.30309 0.79989 0.0
C2751 C 0.21553 0.37691 0.84462 0.0
C2752 C 0.18169 0.34802 0.84333 0.0
H2753 H 0.16933 0.31632 0.86455 0.0
C2754 C 0.17179 0.34672 0.82031 0.0
C2755 C 0.18076 0.33693 0.85963 0.0
C2756 C 0.19082 0.33777 0.88571 0.0
C2757 C 0.16109 0.33462 0.81269 0.0
C2758 C 0.16016 0.32353 0.82902 0.0
C2759 C 0.17006 0.32483 0.85202 0.0
C2760 C 0.14907 0.31046 0.82243 0.0
C2761 C 0.15104 0.33379 0.7866 0.0
C2762 C 0.13653 0.3073 0.83232 0.0
C2763 C 0.12627 0.29473 0.82793 0.0
C2764 C 0.12838 0.28506 0.81385 0.0
C2765 C 0.14093 0.28835 0.80337 0.0
C2766 C 0.15115 0.30089 0.8077 0.0
H2767 H 0.15475 0.34254 0.76947 0.0
H2768 H 0.1476 0.32528 0.76865 0.0
H2769 H 0.14269 0.33283 0.80215 0.0
H2770 H 0.13473 0.31447 0.84435 0.0
H2771 H 0.11676 0.29252 0.83655 0.0
H2772 H 0.8279 0.71338 0.67128 0.0
H2773 H 0.82378 0.69134 0.66418 0.0
H2774 H 0.86092 0.70256 0.7101 0.0
H2775 H 0.86506 0.72446 0.7177 0.0
H2776 H 0.83849 0.68385 0.62257 0.0
H2777 H 0.83726 0.66986 0.7664 0.0
H2778 H 0.83577 0.68352 0.75299 0.0
H2779 H 0.85131 0.68476 0.75455 0.0
C2780 C 0.8351 0.71111 0.68044 0.0
C2781 C 0.8468 0.72072 0.69513 0.0
C2782 C 0.83275 0.69852 0.67623 0.0
C2783 C 0.84199 0.69526 0.68695 0.0
C2784 C 0.85355 0.70477 0.70226 0.0
H2785 H 0.84892 0.62645 0.67282 0.0
H2786 H 0.85313 0.64852 0.68024 0.0
C2787 C 0.85592 0.71733 0.70641 0.0
C2788 C 0.83992 0.68216 0.68024 0.0
H2789 H 0.83848 0.65611 0.72217 0.0
C2790 C 0.83839 0.67774 0.64436 0.0
C2791 C 0.83992 0.67425 0.70867 0.0
C2792 C 0.84103 0.67826 0.74785 0.0
C2793 C 0.83706 0.66571 0.63608 0.0
C2794 C 0.83704 0.6578 0.6645 0.0
C2795 C 0.83858 0.66222 0.70038 0.0
C2796 C 0.8349 0.64467 0.65778 0.0
C2797 C 0.83593 0.6617 0.59689 0.0
C2798 C 0.8233 0.63521 0.64259 0.0
C2799 C 0.82088 0.62264 0.63828 0.0
C2800 C 0.82999 0.6192 0.64926 0.0
C2801 C 0.84173 0.62876 0.66388 0.0
C2802 C 0.84413 0.64137 0.66828 0.0
H2803 H 0.83972 0.6701 0.57835 0.0
H2804 H 0.84118 0.65643 0.59176 0.0
H2805 H 0.82565 0.65522 0.5902 0.0
H2806 H 0.81594 0.63746 0.63492 0.0
H2807 H 0.81171 0.61554 0.62703 0.0
H2808 H 0.28363 0.14209 0.71421 0.0
H2809 H 0.30547 0.15994 0.70599 0.0
H2810 H 0.31698 0.13394 0.66231 0.0
H2811 H 0.29502 0.11595 0.66997 0.0
H2812 H 0.329 0.16434 0.7328 0.0
H2813 H 0.32758 0.16116 0.58254 0.0
H2814 H 0.31332 0.15285 0.61016 0.0
H2815 H 0.32404 0.14656 0.60545 0.0
C2816 C 0.29079 0.1401 0.70303 0.0
C2817 C 0.28751 0.12756 0.69248 0.0
C2818 C 0.30329 0.15035 0.69836 0.0
C2819 C 0.3128 0.14833 0.68288 0.0
C2820 C 0.30972 0.13576 0.67359 0.0
H2821 H 0.39281 0.19838 0.62807 0.0
H2822 H 0.37095 0.18055 0.63629 0.0
C2823 C 0.29719 0.12547 0.67827 0.0
C2824 C 0.32585 0.15944 0.67618 0.0
H2825 H 0.34742 0.17623 0.60909 0.0
C2826 C 0.33302 0.16697 0.70575 0.0
C2827 C 0.33106 0.16289 0.64084 0.0
C2828 C 0.32358 0.15553 0.60784 0.0
C2829 C 0.34535 0.17769 0.70104 0.0
C2830 C 0.35056 0.18112 0.6657 0.0
C2831 C 0.34339 0.17361 0.63613 0.0
C2832 C 0.36362 0.19222 0.65902 0.0
C2833 C 0.35282 0.18506 0.73403 0.0
C2834 C 0.36671 0.2048 0.66811 0.0
C2835 C 0.37925 0.21508 0.66341 0.0
C2836 C 0.38893 0.21296 0.64942 0.0
C2837 C 0.38565 0.20039 0.63909 0.0
C2838 C 0.37313 0.19016 0.64375 0.0
H2839 H 0.3488 0.17946 0.75936 0.0
H2840 H 0.36307 0.18769 0.73178 0.0
H2841 H 0.35242 0.19406 0.73628 0.0
H2842 H 0.35945 0.20665 0.67924 0.0
H2843 H 0.38142 0.22462 0.67154 0.0
H2844 H 0.89162 0.18014 0.66649 0.0
H2845 H 0.87374 0.18432 0.65925 0.0
H2846 H 0.84804 0.14786 0.70917 0.0
H2847 H 0.86576 0.14367 0.7169 0.0
H2848 H 0.85119 0.16915 0.61942 0.0
H2849 H 0.83967 0.17244 0.7632 0.0
H2850 H 0.85466 0.17365 0.74943 0.0
H2851 H 0.84033 0.15818 0.75277 0.0
C2852 C 0.88221 0.17311 0.6765 0.0
C2853 C 0.88016 0.16158 0.69234 0.0
C2854 C 0.87199 0.17549 0.6722 0.0
C2855 C 0.85957 0.16646 0.684 0.0
C2856 C 0.85757 0.15508 0.70047 0.0
H2857 H 0.78395 0.15981 0.67202 0.0
H2858 H 0.80181 0.15561 0.6795 0.0
C2859 C 0.86774 0.15268 0.7047 0.0
C2860 C 0.84854 0.16853 0.67724 0.0
H2861 H 0.82438 0.17072 0.71934 0.0
C2862 C 0.84538 0.16959 0.64127 0.0
C2863 C 0.8409 0.16898 0.70576 0.0
C2864 C 0.8441 0.16837 0.74498 0.0
C2865 C 0.83466 0.17089 0.633 0.0
C2866 C 0.82703 0.17136 0.66152 0.0
C2867 C 0.83019 0.17028 0.69749 0.0
C2868 C 0.81601 0.17345 0.65475 0.0
C2869 C 0.83146 0.17149 0.59377 0.0
C2870 C 0.81805 0.18483 0.63822 0.0
C2871 C 0.80789 0.18725 0.63386 0.0
C2872 C 0.79545 0.17836 0.64613 0.0
C2873 C 0.79338 0.16683 0.66208 0.0
C2874 C 0.80358 0.16444 0.66651 0.0
H2875 H 0.83587 0.1674 0.57558 0.0
H2876 H 0.8209 0.16623 0.58934 0.0
H2877 H 0.83526 0.18168 0.58595 0.0
H2878 H 0.82759 0.19204 0.62955 0.0
H2879 H 0.80989 0.19625 0.62158 0.0
H2880 H 0.05895 0.52997 0.46072 0.0
H2881 H 0.03704 0.52588 0.46851 0.0
H2882 H 0.02538 0.48801 0.50962 0.0
H2883 H 0.04739 0.49206 0.50228 0.0
H2884 H 0.01343 0.50653 0.44032 0.0
H2885 H 0.01473 0.50445 0.59058 0.0
H2886 H 0.02904 0.5107 0.56307 0.0
H2887 H 0.01853 0.49364 0.56724 0.0
C2888 C 0.05174 0.52072 0.47122 0.0
C2889 C 0.05498 0.51137 0.48115 0.0
C2890 C 0.0392 0.51841 0.47563 0.0
C2891 C 0.02964 0.50674 0.49028 0.0
C2892 C 0.03269 0.49719 0.49895 0.0
H2893 H 0.9497 0.47617 0.54613 0.0
H2894 H 0.97164 0.48049 0.53755 0.0
C2895 C 0.04525 0.49948 0.49445 0.0
C2896 C 0.01656 0.50474 0.49692 0.0
H2897 H 0.99492 0.49972 0.56398 0.0
C2898 C 0.00938 0.50507 0.46735 0.0
C2899 C 0.01133 0.5029 0.53223 0.0
C2900 C 0.01882 0.503 0.5652 0.0
C2901 C 0.997 0.50334 0.47204 0.0
C2902 C 0.99176 0.50148 0.50737 0.0
C2903 C 0.99896 0.50118 0.53694 0.0
C2904 C 0.97863 0.49933 0.51408 0.0
C2905 C 0.9895 0.50316 0.43902 0.0
C2906 C 0.97532 0.50865 0.50466 0.0
C2907 C 0.96272 0.50621 0.50951 0.0
C2908 C 0.95321 0.49442 0.52405 0.0
C2909 C 0.95673 0.48533 0.5347 0.0
C2910 C 0.96929 0.48778 0.52983 0.0
H2911 H 0.99354 0.50158 0.41373 0.0
H2912 H 0.97927 0.49552 0.44129 0.0
H2913 H 0.98987 0.51255 0.43665 0.0
H2914 H 0.98245 0.51776 0.4932 0.0
H2915 H 0.96037 0.51343 0.50115 0.0
H2916 H 0.51558 0.55746 0.50385 0.0
H2917 H 0.51978 0.53959 0.51097 0.0
H2918 H 0.48255 0.51353 0.46576 0.0
H2919 H 0.47834 0.53125 0.45813 0.0
H2920 H 0.50529 0.5175 0.55288 0.0
H2921 H 0.50608 0.50446 0.40911 0.0
H2922 H 0.50753 0.5196 0.4224 0.0
H2923 H 0.49202 0.50525 0.42122 0.0
C2924 C 0.50838 0.54797 0.49485 0.0
C2925 C 0.49663 0.54582 0.48035 0.0
C2926 C 0.51077 0.53775 0.49907 0.0
C2927 C 0.50153 0.52524 0.48855 0.0
C2928 C 0.48992 0.52313 0.47344 0.0
H2929 H 0.49468 0.44958 0.50304 0.0
H2930 H 0.49042 0.46742 0.49602 0.0
C2931 C 0.48751 0.53329 0.46926 0.0
C2932 C 0.50365 0.51424 0.49526 0.0
H2933 H 0.50497 0.48955 0.45343 0.0
C2934 C 0.50532 0.51144 0.53112 0.0
C2935 C 0.50357 0.50628 0.46688 0.0
C2936 C 0.50232 0.50909 0.4277 0.0
C2937 C 0.5067 0.50077 0.53942 0.0
C2938 C 0.50661 0.49281 0.51104 0.0
C2939 C 0.50494 0.49561 0.47518 0.0
C2940 C 0.50876 0.48183 0.51774 0.0
C2941 C 0.50798 0.49797 0.57858 0.0
C2942 C 0.52044 0.484 0.53245 0.0
C2943 C 0.52289 0.47385 0.53653 0.0
C2944 C 0.51373 0.4613 0.5258 0.0
C2945 C 0.50191 0.45909 0.51177 0.0
C2946 C 0.49948 0.46929 0.50759 0.0
H2947 H 0.5043 0.50266 0.59723 0.0
H2948 H 0.50273 0.48747 0.58392 0.0
H2949 H 0.51829 0.50175 0.58492 0.0
H2950 H 0.52784 0.49362 0.53986 0.0
H2951 H 0.53212 0.47594 0.54732 0.0
H2952 H 0.55927 0.04684 0.49794 0.0
H2953 H 0.54134 0.02491 0.48893 0.0
H2954 H 0.51523 0.03579 0.53541 0.0
H2955 H 0.53296 0.05765 0.54425 0.0
H2956 H 0.52339 0.00677 0.5389 0.0
H2957 H 0.49916 0.02105 0.43604 0.0
H2958 H 0.51562 0.0315 0.44976 0.0
H2959 H 0.50264 0.0298 0.47789 0.0
C2960 C 0.54974 0.04454 0.50652 0.0
C2961 C 0.54757 0.05406 0.52154 0.0
C2962 C 0.53949 0.03201 0.50126 0.0
C2963 C 0.52691 0.0288 0.51076 0.0
C2964 C 0.52481 0.03813 0.52708 0.0
H2965 H 0.45149 0.95993 0.49927 0.0
H2966 H 0.4696 0.98183 0.50704 0.0
C2967 C 0.535 0.05062 0.53232 0.0
C2968 C 0.51592 0.01572 0.50354 0.0
H2969 H 0.4875 0.99956 0.45748 0.0
C2970 C 0.51558 0.00517 0.52093 0.0
C2971 C 0.50572 0.01367 0.48018 0.0
C2972 C 0.5058 0.02458 0.45961 0.0
C2973 C 0.50518 0.99265 0.5162 0.0
C2974 C 0.49496 0.9906 0.49286 0.0
C2975 C 0.49532 1.00115 0.4754 0.0
C2976 C 0.48387 0.97754 0.48606 0.0
C2977 C 0.50507 0.98177 0.53696 0.0
C2978 C 0.48581 0.96799 0.47056 0.0
C2979 C 0.47551 0.9555 0.46609 0.0
C2980 C 0.463 0.95229 0.47677 0.0
C2981 C 0.46099 0.96204 0.49079 0.0
C2982 C 0.47133 0.97456 0.49533 0.0
H2983 H 0.5117 0.98533 0.56055 0.0
H2984 H 0.49525 0.97487 0.54681 0.0
H2985 H 0.50825 0.97653 0.51881 0.0
H2986 H 0.49534 0.97015 0.46234 0.0
H2987 H 0.47743 0.94829 0.45489 0.0
H2988 H 0.4937 0.04648 0.00371 0.0
H2989 H 0.4895 0.0244 0.99683 0.0
H2990 H 0.52632 0.03539 0.04472 0.0
H2991 H 0.53052 0.05732 0.0521 0.0
H2992 H 0.50438 0.01686 0.95624 0.0
H2993 H 0.50223 1.00266 0.10019 0.0
H2994 H 0.50089 0.01638 0.08646 0.0
H2995 H 0.5164 0.01755 0.08899 0.0
C2996 C 0.5008 0.04414 0.01336 0.0
C2997 C 0.51244 0.05369 0.02852 0.0
C2998 C 0.49841 0.03153 0.00927 0.0
C2999 C 0.50754 0.02821 0.0206 0.0
C3000 C 0.51903 0.03765 0.0364 0.0
H3001 H 0.51511 0.95981 0.00799 0.0
H3002 H 0.51899 0.98177 0.01535 0.0
C3003 C 0.52143 0.05023 0.04042 0.0
C3004 C 0.50547 0.0151 0.01401 0.0
H3005 H 0.50387 0.98903 0.0563 0.0
C3006 C 0.50416 0.01073 0.97812 0.0
C3007 C 0.5053 0.00715 0.04257 0.0
C3008 C 0.50616 0.0111 0.08175 0.0
C3009 C 0.50293 0.99873 0.96997 0.0
C3010 C 0.50278 0.9908 0.99853 0.0
C3011 C 0.50407 0.99516 0.03442 0.0
C3012 C 0.50084 0.97774 0.9919 0.0
C3013 C 0.50206 0.99478 0.9308 0.0
C3014 C 0.48939 0.96821 0.97617 0.0
C3015 C 0.48715 0.9557 0.97188 0.0
C3016 C 0.4963 0.9524 0.98343 0.0
C3017 C 0.50789 0.96203 0.99861 0.0
C3018 C 0.5101 0.97457 1.00298 0.0
H3019 H 0.50587 0.00319 0.91231 0.0
H3020 H 0.50743 0.98961 0.92604 0.0
H3021 H 0.49184 0.98822 0.92367 0.0
H3022 H 0.482 0.97036 0.96803 0.0
H3023 H 0.4781 0.94855 0.9602 0.0
H3024 H 0.96133 0.44947 0.00498 0.0
H3025 H 0.9833 0.46753 0.99811 0.0
H3026 H 0.97166 0.49317 0.04376 0.0
H3027 H 0.94982 0.47526 0.05113 0.0
H3028 H 0.99062 0.48966 0.95647 0.0
H3029 H 1.00437 0.50252 0.10039 0.0
H3030 H 0.99082 0.48731 0.08692 0.0
H3031 H 0.98942 0.50153 0.08831 0.0
C3032 C 0.96349 0.45891 0.01414 0.0
C3033 C 0.95379 0.46088 0.02868 0.0
C3034 C 0.97605 0.46923 0.01005 0.0
C3035 C 0.97916 0.48168 0.02076 0.0
C3036 C 0.96956 0.48362 0.03594 0.0
H3037 H 0.04776 0.55762 0.00694 0.0
H3038 H 0.02571 0.53971 0.01422 0.0
C3039 C 0.95703 0.47335 0.03996 0.0
C3040 C 0.99222 0.49279 0.01414 0.0
H3041 H 0.01813 0.5175 0.05622 0.0
C3042 C 0.99668 0.4957 0.97829 0.0
C3043 C 1.00006 0.50073 0.04261 0.0
C3044 C 0.996 0.49783 0.08176 0.0
C3045 C 0.00869 0.50643 0.97009 0.0
C3046 C 0.01654 0.51436 0.99856 0.0
C3047 C 0.01207 0.51147 0.0344 0.0
C3048 C 0.02965 0.52537 0.99193 0.0
C3049 C 0.01275 0.50933 0.93094 0.0
C3050 C 0.03916 0.52327 0.97688 0.0
C3051 C 0.05172 0.53345 0.97265 0.0
C3052 C 0.0551 0.54598 0.98357 0.0
C3053 C 0.04549 0.54812 0.99805 0.0
C3054 C 0.0329 0.53789 1.00237 0.0
H3055 H 1.00437 0.5047 0.91232 0.0
H3056 H 0.01799 0.51985 0.92579 0.0
H3057 H 0.01926 0.50556 0.92435 0.0
H3058 H 0.03696 0.51367 0.96926 0.0
H3059 H 0.05886 0.5314 0.96152 0.0
H3060 H 0.55544 0.51017 0.05071 0.0
H3061 H 0.53689 0.51355 0.0489 0.0
H3062 H 0.51535 0.47814 0.98922 0.0
H3063 H 0.53342 0.47434 0.99334 0.0
H3064 H 0.52487 0.51751 0.99934 0.0
H3065 H 0.48916 0.47182 0.06185 0.0
H3066 H 0.50601 0.47681 0.06084 0.0
H3067 H 0.49579 0.46851 0.02266 0.0
C3068 C 0.54667 0.50307 0.0376 0.0
C3069 C 0.54578 0.4919 0.02269 0.0
C3070 C 0.53607 0.50499 0.03652 0.0
C3071 C 0.5245 0.4959 0.01985 0.0
C3072 C 0.52388 0.48502 0.00371 0.0
H3073 H 0.46831 0.51548 0.93916 0.0
H3074 H 0.48609 0.51127 0.94704 0.0
C3075 C 0.53428 0.48291 0.00575 0.0
C3076 C 0.51325 0.49799 0.0179 0.0
H3077 H 0.48057 0.48268 0.0266 0.0
C3078 C 0.51521 0.50993 0.00579 0.0
C3079 C 0.50061 0.48826 0.0271 0.0
C3080 C 0.49781 0.47571 0.04424 0.0
C3081 C 0.50493 0.51228 1.00164 0.0
C3082 C 0.49218 0.50218 0.00784 0.0
C3083 C 0.49026 0.49037 0.02098 0.0
C3084 C 0.48072 0.5037 1.00154 0.0
C3085 C 0.508 0.52571 0.9916 0.0
C3086 C 0.47113 0.49993 0.02825 0.0
C3087 C 0.46061 0.50177 0.02299 0.0
C3088 C 0.45961 0.50765 0.99124 0.0
C3089 C 0.46893 0.51103 0.96404 0.0
C3090 C 0.47921 0.50881 0.9688 0.0
H3091 H 0.51781 0.53298 1.00068 0.0
H3092 H 0.50773 0.52646 0.96169 0.0
H3093 H 0.50103 0.52814 0.00376 0.0
H3094 H 0.47194 0.49588 0.05365 0.0
H3095 H 0.45361 0.49917 0.04452 0.0
loop_
_geom_bond_atom_site_label_1
_geom_bond_atom_site_label_2
_geom_bond_distance
_geom_bond_site_symmetry_2
_ccdc_geom_bond_type
O0 Cd1 2.223 . S
O0 C8 1.315 . S
Cd1 O0 2.223 . S
Cd1 O4 2.297 . S
Cd1 O5 2.439 . S
Cd1 O11 2.240 . S
Cd2 O3 2.240 . S
Cd2 O10 2.223 . S
Cd2 O12 2.297 . S
Cd2 O13 2.439 . S
O3 Cd2 2.240 . S
O3 C8 1.279 . S
O4 Cd1 2.297 . S
O4 C6 1.247 . S
O5 Cd1 2.439 . S
O5 C6 1.208 . S
C6 O4 1.247 . S
C6 O5 1.208 . S
C7 O12 1.247 . S
C7 O13 1.208 . S
C8 O0 1.315 . S
C8 O3 1.279 . S
C9 O10 1.315 . S
C9 O11 1.279 . S
O10 Cd2 2.223 . S
O10 C9 1.315 . S
O11 Cd1 2.240 . S
O11 C9 1.279 . S
O12 Cd2 2.297 . S
O12 C7 1.247 . S
O13 Cd2 2.439 . S
O13 C7 1.208 . S
O14 Cd15 2.223 . S
O14 C22 1.315 . S
Cd15 O14 2.223 . S
Cd15 O18 2.297 . S
Cd15 O19 2.439 . S
Cd15 O25 2.240 . S
Cd16 O17 2.240 . S
Cd16 O24 2.223 . S
Cd16 O26 2.297 . S
Cd16 O27 2.439 . S
O17 Cd16 2.240 . S
O17 C22 1.279 . S
O18 Cd15 2.297 . S
O18 C20 1.247 . S
O19 Cd15 2.439 . S
O19 C20 1.208 . S
C20 O18 1.247 . S
C20 O19 1.208 . S
C21 O26 1.247 . S
C21 O27 1.208 . S
C22 O14 1.315 . S
C22 O17 1.279 . S
C23 O24 1.315 . S
C23 O25 1.279 . S
O24 Cd16 2.223 . S
O24 C23 1.315 . S
O25 Cd15 2.240 . S
O25 C23 1.279 . S
O26 Cd16 2.297 . S
O26 C21 1.247 . S
O27 Cd16 2.439 . S
O27 C21 1.208 . S
O28 Cd29 2.223 . S
O28 C36 1.315 . S
Cd29 O28 2.223 . S
Cd29 O32 2.297 . S
Cd29 O33 2.439 . S
Cd29 O39 2.240 . S
Cd30 O31 2.240 . S
Cd30 O38 2.223 . S
Cd30 O40 2.297 . S
Cd30 O41 2.439 . S
O31 Cd30 2.240 . S
O31 C36 1.279 . S
O32 Cd29 2.297 . S
O32 C34 1.247 . S
O33 Cd29 2.439 . S
O33 C34 1.208 . S
C34 O32 1.247 . S
C34 O33 1.208 . S
C35 O40 1.247 . S
C35 O41 1.208 . S
C36 O28 1.315 . S
C36 O31 1.279 . S
C37 O38 1.315 . S
C37 O39 1.279 . S
O38 Cd30 2.223 . S
O38 C37 1.315 . S
O39 Cd29 2.240 . S
O39 C37 1.279 . S
O40 Cd30 2.297 . S
O40 C35 1.247 . S
O41 Cd30 2.439 . S
O41 C35 1.208 . S
O42 Cd43 2.223 . S
O42 C50 1.315 . S
Cd43 O42 2.223 . S
Cd43 O46 2.297 . S
Cd43 O47 2.439 . S
Cd43 O53 2.240 . S
Cd44 O45 2.240 . S
Cd44 O52 2.223 . S
Cd44 O54 2.297 . S
Cd44 O55 2.439 . S
O45 Cd44 2.240 . S
O45 C50 1.279 . S
O46 Cd43 2.297 . S
O46 C48 1.247 . S
O47 Cd43 2.439 . S
O47 C48 1.208 . S
C48 O46 1.247 . S
C48 O47 1.208 . S
C49 O54 1.247 . S
C49 O55 1.208 . S
C50 O42 1.315 . S
C50 O45 1.279 . S
C51 O52 1.315 . S
C51 O53 1.279 . S
O52 Cd44 2.223 . S
O52 C51 1.315 . S
O53 Cd43 2.240 . S
O53 C51 1.279 . S
O54 Cd44 2.297 . S
O54 C49 1.247 . S
O55 Cd44 2.439 . S
O55 C49 1.208 . S
O56 Cd57 2.223 . S
O56 C64 1.315 . S
Cd57 O56 2.223 . S
Cd57 O60 2.297 . S
Cd57 O61 2.439 . S
Cd57 O67 2.240 . S
Cd58 O59 2.240 . S
Cd58 O66 2.223 . S
Cd58 O68 2.297 . S
Cd58 O69 2.439 . S
O59 Cd58 2.240 . S
O59 C64 1.279 . S
O60 Cd57 2.297 . S
O60 C62 1.247 . S
O61 Cd57 2.439 . S
O61 C62 1.208 . S
C62 O60 1.247 . S
C62 O61 1.208 . S
C63 O68 1.247 . S
C63 O69 1.208 . S
C64 O56 1.315 . S
C64 O59 1.279 . S
C65 O66 1.315 . S
C65 O67 1.279 . S
O66 Cd58 2.223 . S
O66 C65 1.315 . S
O67 Cd57 2.240 . S
O67 C65 1.279 . S
O68 Cd58 2.297 . S
O68 C63 1.247 . S
O69 Cd58 2.439 . S
O69 C63 1.208 . S
O70 Cd71 2.223 . S
O70 C78 1.315 . S
Cd71 O70 2.223 . S
Cd71 O74 2.297 . S
Cd71 O75 2.439 . S
Cd71 O81 2.240 . S
Cd72 O73 2.240 . S
Cd72 O80 2.223 . S
Cd72 O82 2.297 . S
Cd72 O83 2.439 . S
O73 Cd72 2.240 . S
O73 C78 1.279 . S
O74 Cd71 2.297 . S
O74 C76 1.247 . S
O75 Cd71 2.439 . S
O75 C76 1.208 . S
C76 O74 1.247 . S
C76 O75 1.208 . S
C77 O82 1.247 . S
C77 O83 1.208 . S
C78 O70 1.315 . S
C78 O73 1.279 . S
C79 O80 1.315 . S
C79 O81 1.279 . S
O80 Cd72 2.223 . S
O80 C79 1.315 . S
O81 Cd71 2.240 . S
O81 C79 1.279 . S
O82 Cd72 2.297 . S
O82 C77 1.247 . S
O83 Cd72 2.439 . S
O83 C77 1.208 . S
O84 Cd85 2.223 . S
O84 C92 1.315 . S
Cd85 O84 2.223 . S
Cd85 O88 2.297 . S
Cd85 O89 2.439 . S
Cd85 O95 2.240 . S
Cd86 O87 2.240 . S
Cd86 O94 2.223 . S
Cd86 O96 2.297 . S
Cd86 O97 2.439 . S
O87 Cd86 2.240 . S
O87 C92 1.279 . S
O88 Cd85 2.297 . S
O88 C90 1.247 . S
O89 Cd85 2.439 . S
O89 C90 1.208 . S
C90 O88 1.247 . S
C90 O89 1.208 . S
C91 O96 1.247 . S
C91 O97 1.208 . S
C92 O84 1.315 . S
C92 O87 1.279 . S
C93 O94 1.315 . S
C93 O95 1.279 . S
O94 Cd86 2.223 . S
O94 C93 1.315 . S
O95 Cd85 2.240 . S
O95 C93 1.279 . S
O96 Cd86 2.297 . S
O96 C91 1.247 . S
O97 Cd86 2.439 . S
O97 C91 1.208 . S
O98 Cd99 2.223 . S
O98 C106 1.315 . S
Cd99 O98 2.223 . S
Cd99 O102 2.297 . S
Cd99 O103 2.439 . S
Cd99 O109 2.240 . S
Cd100 O101 2.240 . S
Cd100 O108 2.223 . S
Cd100 O110 2.297 . S
Cd100 O111 2.439 . S
O101 Cd100 2.240 . S
O101 C106 1.279 . S
O102 Cd99 2.297 . S
O102 C104 1.247 . S
O103 Cd99 2.439 . S
O103 C104 1.208 . S
C104 O102 1.247 . S
C104 O103 1.208 . S
C105 O110 1.247 . S
C105 O111 1.208 . S
C106 O98 1.315 . S
C106 O101 1.279 . S
C107 O108 1.315 . S
C107 O109 1.279 . S
O108 Cd100 2.223 . S
O108 C107 1.315 . S
O109 Cd99 2.240 . S
O109 C107 1.279 . S
O110 Cd100 2.297 . S
O110 C105 1.247 . S
O111 Cd100 2.439 . S
O111 C105 1.208 . S
O112 Cd113 2.223 . S
O112 C120 1.315 . S
Cd113 O112 2.223 . S
Cd113 O116 2.297 . S
Cd113 O117 2.439 . S
Cd113 O123 2.240 . S
Cd114 O115 2.240 . S
Cd114 O122 2.223 . S
Cd114 O124 2.297 . S
Cd114 O125 2.439 . S
O115 Cd114 2.240 . S
O115 C120 1.279 . S
O116 Cd113 2.297 . S
O116 C118 1.247 . S
O117 Cd113 2.439 . S
O117 C118 1.208 . S
C118 O116 1.247 . S
C118 O117 1.208 . S
C119 O124 1.247 . S
C119 O125 1.208 . S
C120 O112 1.315 . S
C120 O115 1.279 . S
C121 O122 1.315 . S
C121 O123 1.279 . S
O122 Cd114 2.223 . S
O122 C121 1.315 . S
O123 Cd113 2.240 . S
O123 C121 1.279 . S
O124 Cd114 2.297 . S
O124 C119 1.247 . S
O125 Cd114 2.439 . S
O125 C119 1.208 . S
O126 Cd127 2.223 . S
O126 C134 1.315 . S
Cd127 O126 2.223 . S
Cd127 O130 2.297 . S
Cd127 O131 2.439 . S
Cd127 O137 2.240 . S
Cd128 O129 2.240 . S
Cd128 O136 2.223 . S
Cd128 O138 2.297 . S
Cd128 O139 2.439 . S
O129 Cd128 2.240 . S
O129 C134 1.279 . S
O130 Cd127 2.297 . S
O130 C132 1.247 . S
O131 Cd127 2.439 . S
O131 C132 1.208 . S
C132 O130 1.247 . S
C132 O131 1.208 . S
C133 O138 1.247 . S
C133 O139 1.208 . S
C134 O126 1.315 . S
C134 O129 1.279 . S
C135 O136 1.315 . S
C135 O137 1.279 . S
O136 Cd128 2.223 . S
O136 C135 1.315 . S
O137 Cd127 2.240 . S
O137 C135 1.279 . S
O138 Cd128 2.297 . S
O138 C133 1.247 . S
O139 Cd128 2.439 . S
O139 C133 1.208 . S
O140 Cd141 2.223 . S
O140 C148 1.315 . S
Cd141 O140 2.223 . S
Cd141 O144 2.297 . S
Cd141 O145 2.439 . S
Cd141 O151 2.240 . S
Cd142 O143 2.240 . S
Cd142 O150 2.223 . S
Cd142 O152 2.297 . S
Cd142 O153 2.439 . S
O143 Cd142 2.240 . S
O143 C148 1.279 . S
O144 Cd141 2.297 . S
O144 C146 1.247 . S
O145 Cd141 2.439 . S
O145 C146 1.208 . S
C146 O144 1.247 . S
C146 O145 1.208 . S
C147 O152 1.247 . S
C147 O153 1.208 . S
C148 O140 1.315 . S
C148 O143 1.279 . S
C149 O150 1.315 . S
C149 O151 1.279 . S
O150 Cd142 2.223 . S
O150 C149 1.315 . S
O151 Cd141 2.240 . S
O151 C149 1.279 . S
O152 Cd142 2.297 . S
O152 C147 1.247 . S
O153 Cd142 2.439 . S
O153 C147 1.208 . S
O154 Cd155 2.223 . S
O154 C162 1.315 . S
Cd155 O154 2.223 . S
Cd155 O158 2.297 . S
Cd155 O159 2.439 . S
Cd155 O165 2.240 . S
Cd156 O157 2.240 . S
Cd156 O164 2.223 . S
Cd156 O166 2.297 . S
Cd156 O167 2.439 . S
O157 Cd156 2.240 . S
O157 C162 1.279 . S
O158 Cd155 2.297 . S
O158 C160 1.247 . S
O159 Cd155 2.439 . S
O159 C160 1.208 . S
C160 O158 1.247 . S
C160 O159 1.208 . S
C161 O166 1.247 . S
C161 O167 1.208 . S
C162 O154 1.315 . S
C162 O157 1.279 . S
C163 O164 1.315 . S
C163 O165 1.279 . S
O164 Cd156 2.223 . S
O164 C163 1.315 . S
O165 Cd155 2.240 . S
O165 C163 1.279 . S
O166 Cd156 2.297 . S
O166 C161 1.247 . S
O167 Cd156 2.439 . S
O167 C161 1.208 . S
O168 Cd169 2.223 . S
O168 C176 1.315 . S
Cd169 O168 2.223 . S
Cd169 O172 2.297 . S
Cd169 O173 2.439 . S
Cd169 O179 2.240 . S
Cd170 O171 2.240 . S
Cd170 O178 2.223 . S
Cd170 O180 2.297 . S
Cd170 O181 2.439 . S
O171 Cd170 2.240 . S
O171 C176 1.279 . S
O172 Cd169 2.297 . S
O172 C174 1.247 . S
O173 Cd169 2.439 . S
O173 C174 1.208 . S
C174 O172 1.247 . S
C174 O173 1.208 . S
C175 O180 1.247 . S
C175 O181 1.208 . S
C176 O168 1.315 . S
C176 O171 1.279 . S
C177 O178 1.315 . S
C177 O179 1.279 . S
O178 Cd170 2.223 . S
O178 C177 1.315 . S
O179 Cd169 2.240 . S
O179 C177 1.279 . S
O180 Cd170 2.297 . S
O180 C175 1.247 . S
O181 Cd170 2.439 . S
O181 C175 1.208 . S
O182 Cd183 2.223 . S
O182 C190 1.315 . S
Cd183 O182 2.223 . S
Cd183 O186 2.297 . S
Cd183 O187 2.439 . S
Cd183 O193 2.240 . S
Cd184 O185 2.240 . S
Cd184 O192 2.223 . S
Cd184 O194 2.297 . S
Cd184 O195 2.439 . S
O185 Cd184 2.240 . S
O185 C190 1.279 . S
O186 Cd183 2.297 . S
O186 C188 1.247 . S
O187 Cd183 2.439 . S
O187 C188 1.208 . S
C188 O186 1.247 . S
C188 O187 1.208 . S
C189 O194 1.247 . S
C189 O195 1.208 . S
C190 O182 1.315 . S
C190 O185 1.279 . S
C191 O192 1.315 . S
C191 O193 1.279 . S
O192 Cd184 2.223 . S
O192 C191 1.315 . S
O193 Cd183 2.240 . S
O193 C191 1.279 . S
O194 Cd184 2.297 . S
O194 C189 1.247 . S
O195 Cd184 2.439 . S
O195 C189 1.208 . S
O196 Cd197 2.223 . S
O196 C204 1.315 . S
Cd197 O196 2.223 . S
Cd197 O200 2.297 . S
Cd197 O201 2.439 . S
Cd197 O207 2.240 . S
Cd198 O199 2.240 . S
Cd198 O206 2.223 . S
Cd198 O208 2.297 . S
Cd198 O209 2.439 . S
O199 Cd198 2.240 . S
O199 C204 1.279 . S
O200 Cd197 2.297 . S
O200 C202 1.247 . S
O201 Cd197 2.439 . S
O201 C202 1.208 . S
C202 O200 1.247 . S
C202 O201 1.208 . S
C203 O208 1.247 . S
C203 O209 1.208 . S
C204 O196 1.315 . S
C204 O199 1.279 . S
C205 O206 1.315 . S
C205 O207 1.279 . S
O206 Cd198 2.223 . S
O206 C205 1.315 . S
O207 Cd197 2.240 . S
O207 C205 1.279 . S
O208 Cd198 2.297 . S
O208 C203 1.247 . S
O209 Cd198 2.439 . S
O209 C203 1.208 . S
O210 Cd211 2.223 . S
O210 C218 1.315 . S
Cd211 O210 2.223 . S
Cd211 O214 2.297 . S
Cd211 O215 2.439 . S
Cd211 O221 2.240 . S
Cd212 O213 2.240 . S
Cd212 O220 2.223 . S
Cd212 O222 2.297 . S
Cd212 O223 2.439 . S
O213 Cd212 2.240 . S
O213 C218 1.279 . S
O214 Cd211 2.297 . S
O214 C216 1.247 . S
O215 Cd211 2.439 . S
O215 C216 1.208 . S
C216 O214 1.247 . S
C216 O215 1.208 . S
C217 O222 1.247 . S
C217 O223 1.208 . S
C218 O210 1.315 . S
C218 O213 1.279 . S
C219 O220 1.315 . S
C219 O221 1.279 . S
O220 Cd212 2.223 . S
O220 C219 1.315 . S
O221 Cd211 2.240 . S
O221 C219 1.279 . S
O222 Cd212 2.297 . S
O222 C217 1.247 . S
O223 Cd212 2.439 . S
O223 C217 1.208 . S
O224 Cd225 2.223 . S
O224 C232 1.315 . S
Cd225 O224 2.223 . S
Cd225 O228 2.297 . S
Cd225 O229 2.439 . S
Cd225 O235 2.240 . S
Cd226 O227 2.240 . S
Cd226 O234 2.223 . S
Cd226 O236 2.297 . S
Cd226 O237 2.439 . S
O227 Cd226 2.240 . S
O227 C232 1.279 . S
O228 Cd225 2.297 . S
O228 C230 1.247 . S
O229 Cd225 2.439 . S
O229 C230 1.208 . S
C230 O228 1.247 . S
C230 O229 1.208 . S
C231 O236 1.247 . S
C231 O237 1.208 . S
C232 O224 1.315 . S
C232 O227 1.279 . S
C233 O234 1.315 . S
C233 O235 1.279 . S
O234 Cd226 2.223 . S
O234 C233 1.315 . S
O235 Cd225 2.240 . S
O235 C233 1.279 . S
O236 Cd226 2.297 . S
O236 C231 1.247 . S
O237 Cd226 2.439 . S
O237 C231 1.208 . S
O238 Cd239 2.223 . S
O238 C246 1.315 . S
Cd239 O238 2.223 . S
Cd239 O242 2.297 . S
Cd239 O243 2.439 . S
Cd239 O249 2.240 . S
Cd240 O241 2.240 . S
Cd240 O248 2.223 . S
Cd240 O250 2.297 . S
Cd240 O251 2.439 . S
O241 Cd240 2.240 . S
O241 C246 1.279 . S
O242 Cd239 2.297 . S
O242 C244 1.247 . S
O243 Cd239 2.439 . S
O243 C244 1.208 . S
C244 O242 1.247 . S
C244 O243 1.208 . S
C245 O250 1.247 . S
C245 O251 1.208 . S
C246 O238 1.315 . S
C246 O241 1.279 . S
C247 O248 1.315 . S
C247 O249 1.279 . S
O248 Cd240 2.223 . S
O248 C247 1.315 . S
O249 Cd239 2.240 . S
O249 C247 1.279 . S
O250 Cd240 2.297 . S
O250 C245 1.247 . S
O251 Cd240 2.439 . S
O251 C245 1.208 . S
O252 Cd253 2.223 . S
O252 C260 1.315 . S
Cd253 O252 2.223 . S
Cd253 O256 2.297 . S
Cd253 O257 2.439 . S
Cd253 O263 2.240 . S
Cd254 O255 2.240 . S
Cd254 O262 2.223 . S
Cd254 O264 2.297 . S
Cd254 O265 2.439 . S
O255 Cd254 2.240 . S
O255 C260 1.279 . S
O256 Cd253 2.297 . S
O256 C258 1.247 . S
O257 Cd253 2.439 . S
O257 C258 1.208 . S
C258 O256 1.247 . S
C258 O257 1.208 . S
C259 O264 1.247 . S
C259 O265 1.208 . S
C260 O252 1.315 . S
C260 O255 1.279 . S
C261 O262 1.315 . S
C261 O263 1.279 . S
O262 Cd254 2.223 . S
O262 C261 1.315 . S
O263 Cd253 2.240 . S
O263 C261 1.279 . S
O264 Cd254 2.297 . S
O264 C259 1.247 . S
O265 Cd254 2.439 . S
O265 C259 1.208 . S
O266 Cd267 2.223 . S
O266 C274 1.315 . S
Cd267 O266 2.223 . S
Cd267 O270 2.297 . S
Cd267 O271 2.439 . S
Cd267 O277 2.240 . S
Cd268 O269 2.240 . S
Cd268 O276 2.223 . S
Cd268 O278 2.297 . S
Cd268 O279 2.439 . S
O269 Cd268 2.240 . S
O269 C274 1.279 . S
O270 Cd267 2.297 . S
O270 C272 1.247 . S
O271 Cd267 2.439 . S
O271 C272 1.208 . S
C272 O270 1.247 . S
C272 O271 1.208 . S
C273 O278 1.247 . S
C273 O279 1.208 . S
C274 O266 1.315 . S
C274 O269 1.279 . S
C275 O276 1.315 . S
C275 O277 1.279 . S
O276 Cd268 2.223 . S
O276 C275 1.315 . S
O277 Cd267 2.240 . S
O277 C275 1.279 . S
O278 Cd268 2.297 . S
O278 C273 1.247 . S
O279 Cd268 2.439 . S
O279 C273 1.208 . S
O280 Cd281 2.223 . S
O280 C288 1.315 . S
Cd281 O280 2.223 . S
Cd281 O284 2.297 . S
Cd281 O285 2.439 . S
Cd281 O291 2.240 . S
Cd282 O283 2.240 . S
Cd282 O290 2.223 . S
Cd282 O292 2.297 . S
Cd282 O293 2.439 . S
O283 Cd282 2.240 . S
O283 C288 1.279 . S
O284 Cd281 2.297 . S
O284 C286 1.247 . S
O285 Cd281 2.439 . S
O285 C286 1.208 . S
C286 O284 1.247 . S
C286 O285 1.208 . S
C287 O292 1.247 . S
C287 O293 1.208 . S
C288 O280 1.315 . S
C288 O283 1.279 . S
C289 O290 1.315 . S
C289 O291 1.279 . S
O290 Cd282 2.223 . S
O290 C289 1.315 . S
O291 Cd281 2.240 . S
O291 C289 1.279 . S
O292 Cd282 2.297 . S
O292 C287 1.247 . S
O293 Cd282 2.439 . S
O293 C287 1.208 . S
O294 Cd295 2.223 . S
O294 C302 1.315 . S
Cd295 O294 2.223 . S
Cd295 O298 2.297 . S
Cd295 O299 2.439 . S
Cd295 O305 2.240 . S
Cd296 O297 2.240 . S
Cd296 O304 2.223 . S
Cd296 O306 2.297 . S
Cd296 O307 2.439 . S
O297 Cd296 2.240 . S
O297 C302 1.279 . S
O298 Cd295 2.297 . S
O298 C300 1.247 . S
O299 Cd295 2.439 . S
O299 C300 1.208 . S
C300 O298 1.247 . S
C300 O299 1.208 . S
C301 O306 1.247 . S
C301 O307 1.208 . S
C302 O294 1.315 . S
C302 O297 1.279 . S
C303 O304 1.315 . S
C303 O305 1.279 . S
O304 Cd296 2.223 . S
O304 C303 1.315 . S
O305 Cd295 2.240 . S
O305 C303 1.279 . S
O306 Cd296 2.297 . S
O306 C301 1.247 . S
O307 Cd296 2.439 . S
O307 C301 1.208 . S
O308 Cd309 2.223 . S
O308 C316 1.315 . S
Cd309 O308 2.223 . S
Cd309 O312 2.297 . S
Cd309 O313 2.439 . S
Cd309 O319 2.240 . S
Cd310 O311 2.240 . S
Cd310 O318 2.223 . S
Cd310 O320 2.297 . S
Cd310 O321 2.439 . S
O311 Cd310 2.240 . S
O311 C316 1.279 . S
O312 Cd309 2.297 . S
O312 C314 1.247 . S
O313 Cd309 2.439 . S
O313 C314 1.208 . S
C314 O312 1.247 . S
C314 O313 1.208 . S
C315 O320 1.247 . S
C315 O321 1.208 . S
C316 O308 1.315 . S
C316 O311 1.279 . S
C317 O318 1.315 . S
C317 O319 1.279 . S
O318 Cd310 2.223 . S
O318 C317 1.315 . S
O319 Cd309 2.240 . S
O319 C317 1.279 . S
O320 Cd310 2.297 . S
O320 C315 1.247 . S
O321 Cd310 2.439 . S
O321 C315 1.208 . S
O322 Cd323 2.223 . S
O322 C330 1.315 . S
Cd323 O322 2.223 . S
Cd323 O326 2.297 . S
Cd323 O327 2.439 . S
Cd323 O333 2.240 . S
Cd324 O325 2.240 . S
Cd324 O332 2.223 . S
Cd324 O334 2.297 . S
Cd324 O335 2.439 . S
O325 Cd324 2.240 . S
O325 C330 1.279 . S
O326 Cd323 2.297 . S
O326 C328 1.247 . S
O327 Cd323 2.439 . S
O327 C328 1.208 . S
C328 O326 1.247 . S
C328 O327 1.208 . S
C329 O334 1.247 . S
C329 O335 1.208 . S
C330 O322 1.315 . S
C330 O325 1.279 . S
C331 O332 1.315 . S
C331 O333 1.279 . S
O332 Cd324 2.223 . S
O332 C331 1.315 . S
O333 Cd323 2.240 . S
O333 C331 1.279 . S
O334 Cd324 2.297 . S
O334 C329 1.247 . S
O335 Cd324 2.439 . S
O335 C329 1.208 . S
O336 Cd337 2.223 . S
O336 C344 1.315 . S
Cd337 O336 2.223 . S
Cd337 O340 2.297 . S
Cd337 O341 2.439 . S
Cd337 O347 2.240 . S
Cd338 O339 2.240 . S
Cd338 O346 2.223 . S
Cd338 O348 2.297 . S
Cd338 O349 2.439 . S
O339 Cd338 2.240 . S
O339 C344 1.279 . S
O340 Cd337 2.297 . S
O340 C342 1.247 . S
O341 Cd337 2.439 . S
O341 C342 1.208 . S
C342 O340 1.247 . S
C342 O341 1.208 . S
C343 O348 1.247 . S
C343 O349 1.208 . S
C344 O336 1.315 . S
C344 O339 1.279 . S
C345 O346 1.315 . S
C345 O347 1.279 . S
O346 Cd338 2.223 . S
O346 C345 1.315 . S
O347 Cd337 2.240 . S
O347 C345 1.279 . S
O348 Cd338 2.297 . S
O348 C343 1.247 . S
O349 Cd338 2.439 . S
O349 C343 1.208 . S
O350 Cd351 2.223 . S
O350 C358 1.315 . S
Cd351 O350 2.223 . S
Cd351 O354 2.297 . S
Cd351 O355 2.439 . S
Cd351 O361 2.240 . S
Cd352 O353 2.240 . S
Cd352 O360 2.223 . S
Cd352 O362 2.297 . S
Cd352 O363 2.439 . S
O353 Cd352 2.240 . S
O353 C358 1.279 . S
O354 Cd351 2.297 . S
O354 C356 1.247 . S
O355 Cd351 2.439 . S
O355 C356 1.208 . S
C356 O354 1.247 . S
C356 O355 1.208 . S
C357 O362 1.247 . S
C357 O363 1.208 . S
C358 O350 1.315 . S
C358 O353 1.279 . S
C359 O360 1.315 . S
C359 O361 1.279 . S
O360 Cd352 2.223 . S
O360 C359 1.315 . S
O361 Cd351 2.240 . S
O361 C359 1.279 . S
O362 Cd352 2.297 . S
O362 C357 1.247 . S
O363 Cd352 2.439 . S
O363 C357 1.208 . S
O364 Cd365 2.223 . S
O364 C372 1.315 . S
Cd365 O364 2.223 . S
Cd365 O368 2.297 . S
Cd365 O369 2.439 . S
Cd365 O375 2.240 . S
Cd366 O367 2.240 . S
Cd366 O374 2.223 . S
Cd366 O376 2.297 . S
Cd366 O377 2.439 . S
O367 Cd366 2.240 . S
O367 C372 1.279 . S
O368 Cd365 2.297 . S
O368 C370 1.247 . S
O369 Cd365 2.439 . S
O369 C370 1.208 . S
C370 O368 1.247 . S
C370 O369 1.208 . S
C371 O376 1.247 . S
C371 O377 1.208 . S
C372 O364 1.315 . S
C372 O367 1.279 . S
C373 O374 1.315 . S
C373 O375 1.279 . S
O374 Cd366 2.223 . S
O374 C373 1.315 . S
O375 Cd365 2.240 . S
O375 C373 1.279 . S
O376 Cd366 2.297 . S
O376 C371 1.247 . S
O377 Cd366 2.439 . S
O377 C371 1.208 . S
O378 Cd379 2.223 . S
O378 C386 1.315 . S
Cd379 O378 2.223 . S
Cd379 O382 2.297 . S
Cd379 O383 2.439 . S
Cd379 O389 2.240 . S
Cd380 O381 2.240 . S
Cd380 O388 2.223 . S
Cd380 O390 2.297 . S
Cd380 O391 2.439 . S
O381 Cd380 2.240 . S
O381 C386 1.279 . S
O382 Cd379 2.297 . S
O382 C384 1.247 . S
O383 Cd379 2.439 . S
O383 C384 1.208 . S
C384 O382 1.247 . S
C384 O383 1.208 . S
C385 O390 1.247 . S
C385 O391 1.208 . S
C386 O378 1.315 . S
C386 O381 1.279 . S
C387 O388 1.315 . S
C387 O389 1.279 . S
O388 Cd380 2.223 . S
O388 C387 1.315 . S
O389 Cd379 2.240 . S
O389 C387 1.279 . S
O390 Cd380 2.297 . S
O390 C385 1.247 . S
O391 Cd380 2.439 . S
O391 C385 1.208 . S
O392 Cd393 2.223 . S
O392 C400 1.315 . S
Cd393 O392 2.223 . S
Cd393 O396 2.297 . S
Cd393 O397 2.439 . S
Cd393 O403 2.240 . S
Cd394 O395 2.240 . S
Cd394 O402 2.223 . S
Cd394 O404 2.297 . S
Cd394 O405 2.439 . S
O395 Cd394 2.240 . S
O395 C400 1.279 . S
O396 Cd393 2.297 . S
O396 C398 1.247 . S
O397 Cd393 2.439 . S
O397 C398 1.208 . S
C398 O396 1.247 . S
C398 O397 1.208 . S
C399 O404 1.247 . S
C399 O405 1.208 . S
C400 O392 1.315 . S
C400 O395 1.279 . S
C401 O402 1.315 . S
C401 O403 1.279 . S
O402 Cd394 2.223 . S
O402 C401 1.315 . S
O403 Cd393 2.240 . S
O403 C401 1.279 . S
O404 Cd394 2.297 . S
O404 C399 1.247 . S
O405 Cd394 2.439 . S
O405 C399 1.208 . S
O406 Cd407 2.223 . S
O406 C414 1.315 . S
Cd407 O406 2.223 . S
Cd407 O410 2.297 . S
Cd407 O411 2.439 . S
Cd407 O417 2.240 . S
Cd408 O409 2.240 . S
Cd408 O416 2.223 . S
Cd408 O418 2.297 . S
Cd408 O419 2.439 . S
O409 Cd408 2.240 . S
O409 C414 1.279 . S
O410 Cd407 2.297 . S
O410 C412 1.247 . S
O411 Cd407 2.439 . S
O411 C412 1.208 . S
C412 O410 1.247 . S
C412 O411 1.208 . S
C413 O418 1.247 . S
C413 O419 1.208 . S
C414 O406 1.315 . S
C414 O409 1.279 . S
C415 O416 1.315 . S
C415 O417 1.279 . S
O416 Cd408 2.223 . S
O416 C415 1.315 . S
O417 Cd407 2.240 . S
O417 C415 1.279 . S
O418 Cd408 2.297 . S
O418 C413 1.247 . S
O419 Cd408 2.439 . S
O419 C413 1.208 . S
O420 Cd421 2.223 . S
O420 C428 1.315 . S
Cd421 O420 2.223 . S
Cd421 O424 2.297 . S
Cd421 O425 2.439 . S
Cd421 O431 2.240 . S
Cd422 O423 2.240 . S
Cd422 O430 2.223 . S
Cd422 O432 2.297 . S
Cd422 O433 2.439 . S
O423 Cd422 2.240 . S
O423 C428 1.279 . S
O424 Cd421 2.297 . S
O424 C426 1.247 . S
O425 Cd421 2.439 . S
O425 C426 1.208 . S
C426 O424 1.247 . S
C426 O425 1.208 . S
C427 O432 1.247 . S
C427 O433 1.208 . S
C428 O420 1.315 . S
C428 O423 1.279 . S
C429 O430 1.315 . S
C429 O431 1.279 . S
O430 Cd422 2.223 . S
O430 C429 1.315 . S
O431 Cd421 2.240 . S
O431 C429 1.279 . S
O432 Cd422 2.297 . S
O432 C427 1.247 . S
O433 Cd422 2.439 . S
O433 C427 1.208 . S
O434 Cd435 2.223 . S
O434 C442 1.315 . S
Cd435 O434 2.223 . S
Cd435 O438 2.297 . S
Cd435 O439 2.439 . S
Cd435 O445 2.240 . S
Cd436 O437 2.240 . S
Cd436 O444 2.223 . S
Cd436 O446 2.297 . S
Cd436 O447 2.439 . S
O437 Cd436 2.240 . S
O437 C442 1.279 . S
O438 Cd435 2.297 . S
O438 C440 1.247 . S
O439 Cd435 2.439 . S
O439 C440 1.208 . S
C440 O438 1.247 . S
C440 O439 1.208 . S
C441 O446 1.247 . S
C441 O447 1.208 . S
C442 O434 1.315 . S
C442 O437 1.279 . S
C443 O444 1.315 . S
C443 O445 1.279 . S
O444 Cd436 2.223 . S
O444 C443 1.315 . S
O445 Cd435 2.240 . S
O445 C443 1.279 . S
O446 Cd436 2.297 . S
O446 C441 1.247 . S
O447 Cd436 2.439 . S
O447 C441 1.208 . S
O448 Cd449 2.223 . S
O448 C456 1.315 . S
Cd449 O448 2.223 . S
Cd449 O452 2.297 . S
Cd449 O453 2.439 . S
Cd449 O459 2.240 . S
Cd450 O451 2.240 . S
Cd450 O458 2.223 . S
Cd450 O460 2.297 . S
Cd450 O461 2.439 . S
O451 Cd450 2.240 . S
O451 C456 1.279 . S
O452 Cd449 2.297 . S
O452 C454 1.247 . S
O453 Cd449 2.439 . S
O453 C454 1.208 . S
C454 O452 1.247 . S
C454 O453 1.208 . S
C455 O460 1.247 . S
C455 O461 1.208 . S
C456 O448 1.315 . S
C456 O451 1.279 . S
C457 O458 1.315 . S
C457 O459 1.279 . S
O458 Cd450 2.223 . S
O458 C457 1.315 . S
O459 Cd449 2.240 . S
O459 C457 1.279 . S
O460 Cd450 2.297 . S
O460 C455 1.247 . S
O461 Cd450 2.439 . S
O461 C455 1.208 . S
O462 Cd463 2.223 . S
O462 C470 1.315 . S
Cd463 O462 2.223 . S
Cd463 O466 2.297 . S
Cd463 O467 2.439 . S
Cd463 O473 2.240 . S
Cd464 O465 2.240 . S
Cd464 O472 2.223 . S
Cd464 O474 2.297 . S
Cd464 O475 2.439 . S
O465 Cd464 2.240 . S
O465 C470 1.279 . S
O466 Cd463 2.297 . S
O466 C468 1.247 . S
O467 Cd463 2.439 . S
O467 C468 1.208 . S
C468 O466 1.247 . S
C468 O467 1.208 . S
C469 O474 1.247 . S
C469 O475 1.208 . S
C470 O462 1.315 . S
C470 O465 1.279 . S
C471 O472 1.315 . S
C471 O473 1.279 . S
O472 Cd464 2.223 . S
O472 C471 1.315 . S
O473 Cd463 2.240 . S
O473 C471 1.279 . S
O474 Cd464 2.297 . S
O474 C469 1.247 . S
O475 Cd464 2.439 . S
O475 C469 1.208 . S
O476 Cd477 2.223 . S
O476 C484 1.315 . S
Cd477 O476 2.223 . S
Cd477 O480 2.297 . S
Cd477 O481 2.439 . S
Cd477 O487 2.240 . S
Cd478 O479 2.240 . S
Cd478 O486 2.223 . S
Cd478 O488 2.297 . S
Cd478 O489 2.439 . S
O479 Cd478 2.240 . S
O479 C484 1.279 . S
O480 Cd477 2.297 . S
O480 C482 1.247 . S
O481 Cd477 2.439 . S
O481 C482 1.208 . S
C482 O480 1.247 . S
C482 O481 1.208 . S
C483 O488 1.247 . S
C483 O489 1.208 . S
C484 O476 1.315 . S
C484 O479 1.279 . S
C485 O486 1.315 . S
C485 O487 1.279 . S
O486 Cd478 2.223 . S
O486 C485 1.315 . S
O487 Cd477 2.240 . S
O487 C485 1.279 . S
O488 Cd478 2.297 . S
O488 C483 1.247 . S
O489 Cd478 2.439 . S
O489 C483 1.208 . S
O490 Cd491 2.223 . S
O490 C498 1.315 . S
Cd491 O490 2.223 . S
Cd491 O494 2.297 . S
Cd491 O495 2.439 . S
Cd491 O501 2.240 . S
Cd492 O493 2.240 . S
Cd492 O500 2.223 . S
Cd492 O502 2.297 . S
Cd492 O503 2.439 . S
O493 Cd492 2.240 . S
O493 C498 1.279 . S
O494 Cd491 2.297 . S
O494 C496 1.247 . S
O495 Cd491 2.439 . S
O495 C496 1.208 . S
C496 O494 1.247 . S
C496 O495 1.208 . S
C497 O502 1.247 . S
C497 O503 1.208 . S
C498 O490 1.315 . S
C498 O493 1.279 . S
C499 O500 1.315 . S
C499 O501 1.279 . S
O500 Cd492 2.223 . S
O500 C499 1.315 . S
O501 Cd491 2.240 . S
O501 C499 1.279 . S
O502 Cd492 2.297 . S
O502 C497 1.247 . S
O503 Cd492 2.439 . S
O503 C497 1.208 . S
H504 C512 0.929 . S
H505 C514 0.930 . S
H506 C516 0.930 . S
H507 C519 0.929 . S
H508 C522 0.930 . S
H509 C524 0.960 . S
H510 C524 0.960 . S
H511 C524 0.960 . S
C512 H504 0.929 . S
C512 C513 1.377 . S
C512 C514 1.384 . S
C513 C512 1.377 . S
C513 C519 1.390 . S
C514 H505 0.930 . S
C514 C512 1.384 . S
C514 C515 1.372 . S
C515 C514 1.372 . S
C515 C516 1.400 . S
C515 C520 1.490 . S
C516 H506 0.930 . S
C516 C515 1.400 . S
C516 C519 1.386 . S
H517 C533 0.930 . S
H518 C534 0.931 . S
C519 H507 0.929 . S
C519 C513 1.390 . S
C519 C516 1.386 . S
C520 C515 1.490 . S
C520 C522 1.395 . S
C520 C523 1.403 . S
H521 C527 0.930 . S
C522 H508 0.930 . S
C522 C520 1.395 . S
C522 C525 1.403 1_556 S
C523 C520 1.403 . S
C523 C524 1.524 . S
C523 C527 1.400 1_556 S
C524 H509 0.960 . S
C524 H510 0.960 . S
C524 H511 0.960 . S
C524 C523 1.524 . S
C525 C522 1.403 1_554 S
C525 C526 1.392 . S
C525 C529 1.495 . S
C526 C525 1.392 . S
C526 C527 1.385 . S
C526 C528 1.478 . S
C527 H521 0.930 . S
C527 C523 1.400 1_554 S
C527 C526 1.385 . S
C528 C526 1.478 . S
C528 C530 1.381 . S
C528 C534 1.383 . S
C529 C525 1.495 . S
C529 H535 0.959 . S
C529 H536 0.961 . S
C529 H537 0.960 . S
C530 C528 1.381 . S
C530 C531 1.394 . S
C530 H538 0.930 . S
C531 C530 1.394 . S
C531 C532 1.383 . S
C531 H539 0.929 . S
C532 C531 1.383 . S
C532 C533 1.377 . S
C533 H517 0.930 . S
C533 C532 1.377 . S
C533 C534 1.379 . S
C534 H518 0.931 . S
C534 C528 1.383 . S
C534 C533 1.379 . S
H535 C529 0.959 . S
H536 C529 0.961 . S
H537 C529 0.960 . S
H538 C530 0.930 . S
H539 C531 0.929 . S
H540 C548 0.929 . S
H541 C550 0.930 . S
H542 C552 0.930 . S
H543 C555 0.929 . S
H544 C558 0.930 . S
H545 C560 0.960 1_554 S
H546 C560 0.960 . S
H547 C560 0.960 . S
C548 H540 0.929 . S
C548 C549 1.377 . S
C548 C550 1.384 . S
C549 C548 1.377 . S
C549 C555 1.390 . S
C550 H541 0.930 . S
C550 C548 1.384 . S
C550 C551 1.372 . S
C551 C550 1.372 . S
C551 C552 1.400 . S
C551 C556 1.490 . S
C552 H542 0.930 . S
C552 C551 1.400 . S
C552 C555 1.386 . S
H553 C569 0.930 . S
H554 C570 0.931 . S
C555 H543 0.929 . S
C555 C549 1.390 . S
C555 C552 1.386 . S
C556 C551 1.490 . S
C556 C558 1.395 . S
C556 C559 1.403 . S
H557 C563 0.930 . S
C558 H544 0.930 . S
C558 C556 1.395 . S
C558 C561 1.403 1_556 S
C559 C556 1.403 . S
C559 C560 1.524 . S
C559 C563 1.400 1_556 S
C560 H545 0.960 1_556 S
C560 H546 0.960 . S
C560 H547 0.960 . S
C560 C559 1.524 . S
C561 C558 1.403 1_554 S
C561 C562 1.392 . S
C561 C565 1.495 . S
C562 C561 1.392 . S
C562 C563 1.385 . S
C562 C564 1.478 . S
C563 H557 0.930 . S
C563 C559 1.400 1_554 S
C563 C562 1.385 . S
C564 C562 1.478 . S
C564 C566 1.381 . S
C564 C570 1.383 . S
C565 C561 1.495 . S
C565 H571 0.959 . S
C565 H572 0.961 . S
C565 H573 0.960 . S
C566 C564 1.381 . S
C566 C567 1.394 . S
C566 H574 0.930 . S
C567 C566 1.394 . S
C567 C568 1.383 . S
C567 H575 0.929 . S
C568 C567 1.383 . S
C568 C569 1.377 . S
C569 H553 0.930 . S
C569 C568 1.377 . S
C569 C570 1.379 . S
C570 H554 0.931 . S
C570 C564 1.383 . S
C570 C569 1.379 . S
H571 C565 0.959 . S
H572 C565 0.961 . S
H573 C565 0.960 . S
H574 C566 0.930 . S
H575 C567 0.929 . S
H576 C584 0.929 . S
H577 C586 0.930 . S
H578 C588 0.930 . S
H579 C591 0.929 . S
H580 C594 0.930 . S
H581 C596 0.960 . S
H582 C596 0.960 . S
H583 C596 0.960 . S
C584 H576 0.929 . S
C584 C585 1.377 . S
C584 C586 1.384 . S
C585 C584 1.377 . S
C585 C591 1.390 . S
C586 H577 0.930 . S
C586 C584 1.384 . S
C586 C587 1.372 . S
C587 C586 1.372 . S
C587 C588 1.400 . S
C587 C592 1.490 . S
C588 H578 0.930 . S
C588 C587 1.400 . S
C588 C591 1.386 . S
H589 C605 0.930 . S
H590 C606 0.931 . S
C591 H579 0.929 . S
C591 C585 1.390 . S
C591 C588 1.386 . S
C592 C587 1.490 . S
C592 C594 1.395 . S
C592 C595 1.403 . S
H593 C599 0.930 . S
C594 H580 0.930 . S
C594 C592 1.395 . S
C594 C597 1.403 1_554 S
C595 C592 1.403 . S
C595 C596 1.524 . S
C595 C599 1.400 1_554 S
C596 H581 0.960 . S
C596 H582 0.960 . S
C596 H583 0.960 . S
C596 C595 1.524 . S
C597 C594 1.403 1_556 S
C597 C598 1.392 . S
C597 C601 1.495 . S
C598 C597 1.392 . S
C598 C599 1.385 . S
C598 C600 1.478 . S
C599 H593 0.930 . S
C599 C595 1.400 1_556 S
C599 C598 1.385 . S
C600 C598 1.478 . S
C600 C602 1.381 . S
C600 C606 1.383 . S
C601 C597 1.495 . S
C601 H607 0.959 . S
C601 H608 0.961 . S
C601 H609 0.960 . S
C602 C600 1.381 . S
C602 C603 1.394 . S
C602 H610 0.930 . S
C603 C602 1.394 . S
C603 C604 1.383 . S
C603 H611 0.929 . S
C604 C603 1.383 . S
C604 C605 1.377 . S
C605 H589 0.930 . S
C605 C604 1.377 . S
C605 C606 1.379 . S
C606 H590 0.931 . S
C606 C600 1.383 . S
C606 C605 1.379 . S
H607 C601 0.959 . S
H608 C601 0.961 . S
H609 C601 0.960 . S
H610 C602 0.930 . S
H611 C603 0.929 . S
H612 C620 0.929 . S
H613 C622 0.930 . S
H614 C624 0.930 . S
H615 C627 0.929 . S
H616 C630 0.930 . S
H617 C632 0.960 . S
H618 C632 0.960 . S
H619 C632 0.960 . S
C620 H612 0.929 . S
C620 C621 1.377 . S
C620 C622 1.384 . S
C621 C620 1.377 . S
C621 C627 1.390 . S
C622 H613 0.930 . S
C622 C620 1.384 . S
C622 C623 1.372 . S
C623 C622 1.372 . S
C623 C624 1.400 . S
C623 C628 1.490 . S
C624 H614 0.930 . S
C624 C623 1.400 . S
C624 C627 1.386 . S
H625 C641 0.930 . S
H626 C642 0.931 . S
C627 H615 0.929 . S
C627 C621 1.390 . S
C627 C624 1.386 . S
C628 C623 1.490 . S
C628 C630 1.395 . S
C628 C631 1.403 . S
H629 C635 0.930 . S
C630 H616 0.930 . S
C630 C628 1.395 . S
C630 C633 1.403 . S
C631 C628 1.403 . S
C631 C632 1.524 . S
C631 C635 1.400 . S
C632 H617 0.960 . S
C632 H618 0.960 . S
C632 H619 0.960 . S
C632 C631 1.524 . S
C633 C630 1.403 . S
C633 C634 1.392 . S
C633 C637 1.495 . S
C634 C633 1.392 . S
C634 C635 1.385 . S
C634 C636 1.478 . S
C635 H629 0.930 . S
C635 C631 1.400 . S
C635 C634 1.385 . S
C636 C634 1.478 . S
C636 C638 1.381 . S
C636 C642 1.383 . S
C637 C633 1.495 . S
C637 H643 0.959 . S
C637 H644 0.961 . S
C637 H645 0.960 . S
C638 C636 1.381 . S
C638 C639 1.394 . S
C638 H646 0.930 . S
C639 C638 1.394 . S
C639 C640 1.383 . S
C639 H647 0.929 . S
C640 C639 1.383 . S
C640 C641 1.377 . S
C641 H625 0.930 . S
C641 C640 1.377 . S
C641 C642 1.379 . S
C642 H626 0.931 . S
C642 C636 1.383 . S
C642 C641 1.379 . S
H643 C637 0.959 . S
H644 C637 0.961 . S
H645 C637 0.960 . S
H646 C638 0.930 . S
H647 C639 0.929 . S
H648 C656 0.929 . S
H649 C658 0.930 . S
H650 C660 0.930 . S
H651 C663 0.929 . S
H652 C666 0.930 . S
H653 C668 0.960 . S
H654 C668 0.960 . S
H655 C668 0.960 . S
C656 H648 0.929 . S
C656 C657 1.377 . S
C656 C658 1.384 . S
C657 C656 1.377 . S
C657 C663 1.390 . S
C658 H649 0.930 . S
C658 C656 1.384 . S
C658 C659 1.372 . S
C659 C658 1.372 . S
C659 C660 1.400 . S
C659 C664 1.490 . S
C660 H650 0.930 . S
C660 C659 1.400 . S
C660 C663 1.386 . S
H661 C677 0.930 . S
H662 C678 0.931 . S
C663 H651 0.929 . S
C663 C657 1.390 . S
C663 C660 1.386 . S
C664 C659 1.490 . S
C664 C666 1.395 . S
C664 C667 1.403 . S
H665 C671 0.930 . S
C666 H652 0.930 . S
C666 C664 1.395 . S
C666 C669 1.403 . S
C667 C664 1.403 . S
C667 C668 1.524 . S
C667 C671 1.400 . S
C668 H653 0.960 . S
C668 H654 0.960 . S
C668 H655 0.960 . S
C668 C667 1.524 . S
C669 C666 1.403 . S
C669 C670 1.392 . S
C669 C673 1.495 . S
C670 C669 1.392 . S
C670 C671 1.385 . S
C670 C672 1.478 . S
C671 H665 0.930 . S
C671 C667 1.400 . S
C671 C670 1.385 . S
C672 C670 1.478 . S
C672 C674 1.381 . S
C672 C678 1.383 . S
C673 C669 1.495 . S
C673 H679 0.959 . S
C673 H680 0.961 . S
C673 H681 0.960 . S
C674 C672 1.381 . S
C674 C675 1.394 . S
C674 H682 0.930 . S
C675 C674 1.394 . S
C675 C676 1.383 . S
C675 H683 0.929 . S
C676 C675 1.383 . S
C676 C677 1.377 . S
C677 H661 0.930 . S
C677 C676 1.377 . S
C677 C678 1.379 . S
C678 H662 0.931 . S
C678 C672 1.383 . S
C678 C677 1.379 . S
H679 C673 0.959 . S
H680 C673 0.961 . S
H681 C673 0.960 . S
H682 C674 0.930 . S
H683 C675 0.929 . S
H684 C692 0.929 . S
H685 C694 0.930 . S
H686 C696 0.930 . S
H687 C699 0.929 . S
H688 C702 0.930 . S
H689 C704 0.960 . S
H690 C704 0.960 . S
H691 C704 0.960 . S
C692 H684 0.929 . S
C692 C693 1.377 . S
C692 C694 1.384 . S
C693 C692 1.377 . S
C693 C699 1.390 . S
C694 H685 0.930 . S
C694 C692 1.384 . S
C694 C695 1.372 . S
C695 C694 1.372 . S
C695 C696 1.400 . S
C695 C700 1.490 . S
C696 H686 0.930 . S
C696 C695 1.400 . S
C696 C699 1.386 . S
H697 C713 0.930 . S
H698 C714 0.931 . S
C699 H687 0.929 . S
C699 C693 1.390 . S
C699 C696 1.386 . S
C700 C695 1.490 . S
C700 C702 1.395 . S
C700 C703 1.403 . S
H701 C707 0.930 . S
C702 H688 0.930 . S
C702 C700 1.395 . S
C702 C705 1.403 . S
C703 C700 1.403 . S
C703 C704 1.524 . S
C703 C707 1.400 . S
C704 H689 0.960 . S
C704 H690 0.960 . S
C704 H691 0.960 . S
C704 C703 1.524 . S
C705 C702 1.403 . S
C705 C706 1.392 . S
C705 C709 1.495 . S
C706 C705 1.392 . S
C706 C707 1.385 . S
C706 C708 1.478 . S
C707 H701 0.930 . S
C707 C703 1.400 . S
C707 C706 1.385 . S
C708 C706 1.478 . S
C708 C710 1.381 . S
C708 C714 1.383 . S
C709 C705 1.495 . S
C709 H715 0.959 . S
C709 H716 0.961 . S
C709 H717 0.960 . S
C710 C708 1.381 . S
C710 C711 1.394 . S
C710 H718 0.930 . S
C711 C710 1.394 . S
C711 C712 1.383 . S
C711 H719 0.929 . S
C712 C711 1.383 . S
C712 C713 1.377 . S
C713 H697 0.930 . S
C713 C712 1.377 . S
C713 C714 1.379 . S
C714 H698 0.931 . S
C714 C708 1.383 . S
C714 C713 1.379 . S
H715 C709 0.959 . S
H716 C709 0.961 . S
H717 C709 0.960 . S
H718 C710 0.930 . S
H719 C711 0.929 . S
H720 C728 0.929 . S
H721 C730 0.930 . S
H722 C732 0.930 . S
H723 C735 0.929 . S
H724 C738 0.930 . S
H725 C740 0.960 1_556 S
H726 C740 0.960 . S
H727 C740 0.960 . S
C728 H720 0.929 . S
C728 C729 1.377 . S
C728 C730 1.384 . S
C729 C728 1.377 . S
C729 C735 1.390 . S
C730 H721 0.930 . S
C730 C728 1.384 . S
C730 C731 1.372 . S
C731 C730 1.372 . S
C731 C732 1.400 . S
C731 C736 1.490 . S
C732 H722 0.930 . S
C732 C731 1.400 . S
C732 C735 1.386 . S
H733 C749 0.930 . S
H734 C750 0.931 . S
C735 H723 0.929 . S
C735 C729 1.390 . S
C735 C732 1.386 . S
C736 C731 1.490 . S
C736 C738 1.395 . S
C736 C739 1.403 . S
H737 C743 0.930 . S
C738 H724 0.930 . S
C738 C736 1.395 . S
C738 C741 1.403 1_554 S
C739 C736 1.403 . S
C739 C740 1.524 . S
C739 C743 1.400 1_554 S
C740 H725 0.960 1_554 S
C740 H726 0.960 . S
C740 H727 0.960 . S
C740 C739 1.524 . S
C741 C738 1.403 1_556 S
C741 C742 1.392 . S
C741 C745 1.495 . S
C742 C741 1.392 . S
C742 C743 1.385 . S
C742 C744 1.478 . S
C743 H737 0.930 . S
C743 C739 1.400 1_556 S
C743 C742 1.385 . S
C744 C742 1.478 . S
C744 C746 1.381 . S
C744 C750 1.383 . S
C745 C741 1.495 . S
C745 H751 0.959 1_556 S
C745 H752 0.961 . S
C745 H753 0.960 . S
C746 C744 1.381 . S
C746 C747 1.394 . S
C746 H754 0.930 . S
C747 C746 1.394 . S
C747 C748 1.383 . S
C747 H755 0.929 . S
C748 C747 1.383 . S
C748 C749 1.377 . S
C749 H733 0.930 . S
C749 C748 1.377 . S
C749 C750 1.379 . S
C750 H734 0.931 . S
C750 C744 1.383 . S
C750 C749 1.379 . S
H751 C745 0.959 1_554 S
H752 C745 0.961 . S
H753 C745 0.960 . S
H754 C746 0.930 . S
H755 C747 0.929 . S
H756 C764 0.929 . S
H757 C766 0.930 . S
H758 C768 0.930 . S
H759 C771 0.929 . S
H760 C774 0.930 . S
H761 C776 0.960 1_556 S
H762 C776 0.960 . S
H763 C776 0.960 . S
C764 H756 0.929 . S
C764 C765 1.377 . S
C764 C766 1.384 . S
C765 C764 1.377 . S
C765 C771 1.390 . S
C766 H757 0.930 . S
C766 C764 1.384 . S
C766 C767 1.372 . S
C767 C766 1.372 . S
C767 C768 1.400 . S
C767 C772 1.490 . S
C768 H758 0.930 . S
C768 C767 1.400 . S
C768 C771 1.386 . S
H769 C785 0.930 . S
H770 C786 0.931 . S
C771 H759 0.929 . S
C771 C765 1.390 . S
C771 C768 1.386 . S
C772 C767 1.490 . S
C772 C774 1.395 . S
C772 C775 1.403 . S
H773 C779 0.930 . S
C774 H760 0.930 . S
C774 C772 1.395 . S
C774 C777 1.403 1_554 S
C775 C772 1.403 . S
C775 C776 1.524 . S
C775 C779 1.400 1_554 S
C776 H761 0.960 1_554 S
C776 H762 0.960 . S
C776 H763 0.960 . S
C776 C775 1.524 . S
C777 C774 1.403 1_556 S
C777 C778 1.392 . S
C777 C781 1.495 . S
C778 C777 1.392 . S
C778 C779 1.385 . S
C778 C780 1.478 . S
C779 H773 0.930 . S
C779 C775 1.400 1_556 S
C779 C778 1.385 . S
C780 C778 1.478 . S
C780 C782 1.381 . S
C780 C786 1.383 . S
C781 C777 1.495 . S
C781 H787 0.959 1_556 S
C781 H788 0.961 . S
C781 H789 0.960 . S
C782 C780 1.381 . S
C782 C783 1.394 . S
C782 H790 0.930 . S
C783 C782 1.394 . S
C783 C784 1.383 . S
C783 H791 0.929 . S
C784 C783 1.383 . S
C784 C785 1.377 . S
C785 H769 0.930 . S
C785 C784 1.377 . S
C785 C786 1.379 . S
C786 H770 0.931 . S
C786 C780 1.383 . S
C786 C785 1.379 . S
H787 C781 0.959 1_554 S
H788 C781 0.961 . S
H789 C781 0.960 . S
H790 C782 0.930 . S
H791 C783 0.929 . S
H792 C800 0.929 . S
H793 C802 0.930 . S
H794 C804 0.930 . S
H795 C807 0.929 . S
H796 C810 0.930 . S
H797 C812 0.960 . S
H798 C812 0.960 . S
H799 C812 0.960 . S
C800 H792 0.929 . S
C800 C801 1.377 . S
C800 C802 1.384 . S
C801 C800 1.377 . S
C801 C807 1.390 . S
C802 H793 0.930 . S
C802 C800 1.384 . S
C802 C803 1.372 . S
C803 C802 1.372 . S
C803 C804 1.400 . S
C803 C808 1.490 . S
C804 H794 0.930 . S
C804 C803 1.400 . S
C804 C807 1.386 . S
H805 C821 0.930 . S
H806 C822 0.931 . S
C807 H795 0.929 . S
C807 C801 1.390 . S
C807 C804 1.386 . S
C808 C803 1.490 . S
C808 C810 1.395 . S
C808 C811 1.403 . S
H809 C815 0.930 . S
C810 H796 0.930 . S
C810 C808 1.395 . S
C810 C813 1.403 1_556 S
C811 C808 1.403 . S
C811 C812 1.524 . S
C811 C815 1.400 1_556 S
C812 H797 0.960 . S
C812 H798 0.960 . S
C812 H799 0.960 . S
C812 C811 1.524 . S
C813 C810 1.403 1_554 S
C813 C814 1.392 . S
C813 C817 1.495 . S
C814 C813 1.392 . S
C814 C815 1.385 . S
C814 C816 1.478 . S
C815 H809 0.930 . S
C815 C811 1.400 1_554 S
C815 C814 1.385 . S
C816 C814 1.478 . S
C816 C818 1.381 . S
C816 C822 1.383 . S
C817 C813 1.495 . S
C817 H823 0.959 . S
C817 H824 0.961 . S
C817 H825 0.960 . S
C818 C816 1.381 . S
C818 C819 1.394 . S
C818 H826 0.930 . S
C819 C818 1.394 . S
C819 C820 1.383 . S
C819 H827 0.929 . S
C820 C819 1.383 . S
C820 C821 1.377 . S
C821 H805 0.930 . S
C821 C820 1.377 . S
C821 C822 1.379 . S
C822 H806 0.931 . S
C822 C816 1.383 . S
C822 C821 1.379 . S
H823 C817 0.959 . S
H824 C817 0.961 . S
H825 C817 0.960 . S
H826 C818 0.930 . S
H827 C819 0.929 . S
H828 C836 0.929 . S
H829 C838 0.930 . S
H830 C840 0.930 . S
H831 C843 0.929 . S
H832 C846 0.930 . S
H833 C848 0.960 . S
H834 C848 0.960 . S
H835 C848 0.960 . S
C836 H828 0.929 . S
C836 C837 1.377 . S
C836 C838 1.384 . S
C837 C836 1.377 . S
C837 C843 1.390 . S
C838 H829 0.930 . S
C838 C836 1.384 . S
C838 C839 1.372 . S
C839 C838 1.372 . S
C839 C840 1.400 . S
C839 C844 1.490 . S
C840 H830 0.930 . S
C840 C839 1.400 . S
C840 C843 1.386 . S
H841 C857 0.930 . S
H842 C858 0.931 . S
C843 H831 0.929 . S
C843 C837 1.390 . S
C843 C840 1.386 . S
C844 C839 1.490 . S
C844 C846 1.395 . S
C844 C847 1.403 . S
H845 C851 0.930 . S
C846 H832 0.930 . S
C846 C844 1.395 . S
C846 C849 1.403 . S
C847 C844 1.403 . S
C847 C848 1.524 . S
C847 C851 1.400 . S
C848 H833 0.960 . S
C848 H834 0.960 . S
C848 H835 0.960 . S
C848 C847 1.524 . S
C849 C846 1.403 . S
C849 C850 1.392 . S
C849 C853 1.495 . S
C850 C849 1.392 . S
C850 C851 1.385 . S
C850 C852 1.478 . S
C851 H845 0.930 . S
C851 C847 1.400 . S
C851 C850 1.385 . S
C852 C850 1.478 . S
C852 C854 1.381 . S
C852 C858 1.383 . S
C853 C849 1.495 . S
C853 H859 0.959 . S
C853 H860 0.961 . S
C853 H861 0.960 . S
C854 C852 1.381 . S
C854 C855 1.394 . S
C854 H862 0.930 . S
C855 C854 1.394 . S
C855 C856 1.383 . S
C855 H863 0.929 . S
C856 C855 1.383 . S
C856 C857 1.377 . S
C857 H841 0.930 . S
C857 C856 1.377 . S
C857 C858 1.379 . S
C858 H842 0.931 . S
C858 C852 1.383 . S
C858 C857 1.379 . S
H859 C853 0.959 . S
H860 C853 0.961 . S
H861 C853 0.960 . S
H862 C854 0.930 . S
H863 C855 0.929 . S
H864 C872 0.929 . S
H865 C874 0.930 . S
H866 C876 0.930 . S
H867 C879 0.929 . S
H868 C882 0.930 . S
H869 C884 0.960 . S
H870 C884 0.960 . S
H871 C884 0.960 . S
C872 H864 0.929 . S
C872 C873 1.377 . S
C872 C874 1.384 . S
C873 C872 1.377 . S
C873 C879 1.390 . S
C874 H865 0.930 . S
C874 C872 1.384 . S
C874 C875 1.372 . S
C875 C874 1.372 . S
C875 C876 1.400 . S
C875 C880 1.490 . S
C876 H866 0.930 . S
C876 C875 1.400 . S
C876 C879 1.386 . S
H877 C893 0.930 . S
H878 C894 0.931 . S
C879 H867 0.929 . S
C879 C873 1.390 . S
C879 C876 1.386 . S
C880 C875 1.490 . S
C880 C882 1.395 . S
C880 C883 1.403 . S
H881 C887 0.930 . S
C882 H868 0.930 . S
C882 C880 1.395 . S
C882 C885 1.403 . S
C883 C880 1.403 . S
C883 C884 1.524 . S
C883 C887 1.400 . S
C884 H869 0.960 . S
C884 H870 0.960 . S
C884 H871 0.960 . S
C884 C883 1.524 . S
C885 C882 1.403 . S
C885 C886 1.392 . S
C885 C889 1.495 . S
C886 C885 1.392 . S
C886 C887 1.385 . S
C886 C888 1.478 . S
C887 H881 0.930 . S
C887 C883 1.400 . S
C887 C886 1.385 . S
C888 C886 1.478 . S
C888 C890 1.381 . S
C888 C894 1.383 . S
C889 C885 1.495 . S
C889 H895 0.959 . S
C889 H896 0.961 . S
C889 H897 0.960 . S
C890 C888 1.381 . S
C890 C891 1.394 . S
C890 H898 0.930 . S
C891 C890 1.394 . S
C891 C892 1.383 . S
C891 H899 0.929 . S
C892 C891 1.383 . S
C892 C893 1.377 . S
C893 H877 0.930 . S
C893 C892 1.377 . S
C893 C894 1.379 . S
C894 H878 0.931 . S
C894 C888 1.383 . S
C894 C893 1.379 . S
H895 C889 0.959 . S
H896 C889 0.961 . S
H897 C889 0.960 . S
H898 C890 0.930 . S
H899 C891 0.929 . S
H900 C908 0.929 . S
H901 C910 0.930 . S
H902 C912 0.930 . S
H903 C915 0.929 . S
H904 C918 0.930 . S
H905 C920 0.960 . S
H906 C920 0.960 . S
H907 C920 0.960 . S
C908 H900 0.929 . S
C908 C909 1.377 . S
C908 C910 1.384 . S
C909 C908 1.377 . S
C909 C915 1.390 . S
C910 H901 0.930 . S
C910 C908 1.384 . S
C910 C911 1.372 . S
C911 C910 1.372 . S
C911 C912 1.400 . S
C911 C916 1.490 . S
C912 H902 0.930 . S
C912 C911 1.400 . S
C912 C915 1.386 . S
H913 C929 0.930 . S
H914 C930 0.931 . S
C915 H903 0.929 . S
C915 C909 1.390 . S
C915 C912 1.386 . S
C916 C911 1.490 . S
C916 C918 1.395 . S
C916 C919 1.403 . S
H917 C923 0.930 . S
C918 H904 0.930 . S
C918 C916 1.395 . S
C918 C921 1.403 . S
C919 C916 1.403 . S
C919 C920 1.524 . S
C919 C923 1.400 . S
C920 H905 0.960 . S
C920 H906 0.960 . S
C920 H907 0.960 . S
C920 C919 1.524 . S
C921 C918 1.403 . S
C921 C922 1.392 . S
C921 C925 1.495 . S
C922 C921 1.392 . S
C922 C923 1.385 . S
C922 C924 1.478 . S
C923 H917 0.930 . S
C923 C919 1.400 . S
C923 C922 1.385 . S
C924 C922 1.478 . S
C924 C926 1.381 . S
C924 C930 1.383 . S
C925 C921 1.495 . S
C925 H931 0.959 . S
C925 H932 0.961 . S
C925 H933 0.960 . S
C926 C924 1.381 . S
C926 C927 1.394 . S
C926 H934 0.930 . S
C927 C926 1.394 . S
C927 C928 1.383 . S
C927 H935 0.929 . S
C928 C927 1.383 . S
C928 C929 1.377 . S
C929 H913 0.930 . S
C929 C928 1.377 . S
C929 C930 1.379 . S
C930 H914 0.931 . S
C930 C924 1.383 . S
C930 C929 1.379 . S
H931 C925 0.959 . S
H932 C925 0.961 . S
H933 C925 0.960 . S
H934 C926 0.930 . S
H935 C927 0.929 . S
H936 C944 0.929 . S
H937 C946 0.930 . S
H938 C948 0.930 . S
H939 C951 0.929 . S
H940 C954 0.930 . S
H941 C956 0.960 . S
H942 C956 0.960 . S
H943 C956 0.960 . S
C944 H936 0.929 . S
C944 C945 1.377 . S
C944 C946 1.384 . S
C945 C944 1.377 . S
C945 C951 1.390 . S
C946 H937 0.930 . S
C946 C944 1.384 . S
C946 C947 1.372 . S
C947 C946 1.372 . S
C947 C948 1.400 . S
C947 C952 1.490 . S
C948 H938 0.930 . S
C948 C947 1.400 . S
C948 C951 1.386 . S
H949 C965 0.930 . S
H950 C966 0.931 . S
C951 H939 0.929 . S
C951 C945 1.390 . S
C951 C948 1.386 . S
C952 C947 1.490 . S
C952 C954 1.395 . S
C952 C955 1.403 . S
H953 C959 0.930 . S
C954 H940 0.930 . S
C954 C952 1.395 . S
C954 C957 1.403 . S
C955 C952 1.403 . S
C955 C956 1.524 . S
C955 C959 1.400 . S
C956 H941 0.960 . S
C956 H942 0.960 . S
C956 H943 0.960 . S
C956 C955 1.524 . S
C957 C954 1.403 . S
C957 C958 1.392 . S
C957 C961 1.495 . S
C958 C957 1.392 . S
C958 C959 1.385 . S
C958 C960 1.478 . S
C959 H953 0.930 . S
C959 C955 1.400 . S
C959 C958 1.385 . S
C960 C958 1.478 . S
C960 C962 1.381 . S
C960 C966 1.383 . S
C961 C957 1.495 . S
C961 H967 0.959 . S
C961 H968 0.961 . S
C961 H969 0.960 . S
C962 C960 1.381 . S
C962 C963 1.394 . S
C962 H970 0.930 . S
C963 C962 1.394 . S
C963 C964 1.383 . S
C963 H971 0.929 . S
C964 C963 1.383 . S
C964 C965 1.377 . S
C965 H949 0.930 . S
C965 C964 1.377 . S
C965 C966 1.379 . S
C966 H950 0.931 . S
C966 C960 1.383 . S
C966 C965 1.379 . S
H967 C961 0.959 . S
H968 C961 0.961 . S
H969 C961 0.960 . S
H970 C962 0.930 . S
H971 C963 0.929 . S
H972 C980 0.929 . S
H973 C982 0.930 . S
H974 C984 0.930 . S
H975 C987 0.929 . S
H976 C990 0.930 . S
H977 C992 0.960 . S
H978 C992 0.960 . S
H979 C992 0.960 . S
C980 H972 0.929 . S
C980 C981 1.377 . S
C980 C982 1.384 . S
C981 C980 1.377 . S
C981 C987 1.390 . S
C982 H973 0.930 . S
C982 C980 1.384 . S
C982 C983 1.372 . S
C983 C982 1.372 . S
C983 C984 1.400 . S
C983 C988 1.490 . S
C984 H974 0.930 . S
C984 C983 1.400 . S
C984 C987 1.386 . S
H985 C1001 0.930 . S
H986 C1002 0.931 . S
C987 H975 0.929 . S
C987 C981 1.390 . S
C987 C984 1.386 . S
C988 C983 1.490 . S
C988 C990 1.395 . S
C988 C991 1.403 . S
H989 C995 0.930 . S
C990 H976 0.930 . S
C990 C988 1.395 . S
C990 C993 1.403 . S
C991 C988 1.403 . S
C991 C992 1.524 . S
C991 C995 1.400 . S
C992 H977 0.960 . S
C992 H978 0.960 . S
C992 H979 0.960 . S
C992 C991 1.524 . S
C993 C990 1.403 . S
C993 C994 1.392 . S
C993 C997 1.495 . S
C994 C993 1.392 . S
C994 C995 1.385 . S
C994 C996 1.478 . S
C995 H989 0.930 . S
C995 C991 1.400 . S
C995 C994 1.385 . S
C996 C994 1.478 . S
C996 C998 1.381 . S
C996 C1002 1.383 . S
C997 C993 1.495 . S
C997 H1003 0.959 . S
C997 H1004 0.961 . S
C997 H1005 0.960 . S
C998 C996 1.381 . S
C998 C999 1.394 . S
C998 H1006 0.930 . S
C999 C998 1.394 . S
C999 C1000 1.383 . S
C999 H1007 0.929 . S
C1000 C999 1.383 . S
C1000 C1001 1.377 . S
C1001 H985 0.930 . S
C1001 C1000 1.377 . S
C1001 C1002 1.379 . S
C1002 H986 0.931 . S
C1002 C996 1.383 . S
C1002 C1001 1.379 . S
H1003 C997 0.959 . S
H1004 C997 0.961 . S
H1005 C997 0.960 . S
H1006 C998 0.930 . S
H1007 C999 0.929 . S
H1008 C1016 0.929 . S
H1009 C1018 0.930 . S
H1010 C1020 0.930 . S
H1011 C1023 0.929 . S
H1012 C1026 0.930 . S
H1013 C1028 0.960 . S
H1014 C1028 0.960 . S
H1015 C1028 0.960 . S
C1016 H1008 0.929 . S
C1016 C1017 1.377 . S
C1016 C1018 1.384 . S
C1017 C1016 1.377 . S
C1017 C1023 1.390 . S
C1018 H1009 0.930 . S
C1018 C1016 1.384 . S
C1018 C1019 1.372 . S
C1019 C1018 1.372 . S
C1019 C1020 1.400 . S
C1019 C1024 1.490 . S
C1020 H1010 0.930 . S
C1020 C1019 1.400 . S
C1020 C1023 1.386 . S
H1021 C1037 0.930 . S
H1022 C1038 0.931 . S
C1023 H1011 0.929 . S
C1023 C1017 1.390 . S
C1023 C1020 1.386 . S
C1024 C1019 1.490 . S
C1024 C1026 1.395 . S
C1024 C1027 1.403 . S
H1025 C1031 0.930 . S
C1026 H1012 0.930 . S
C1026 C1024 1.395 . S
C1026 C1029 1.403 . S
C1027 C1024 1.403 . S
C1027 C1028 1.524 . S
C1027 C1031 1.400 . S
C1028 H1013 0.960 . S
C1028 H1014 0.960 . S
C1028 H1015 0.960 . S
C1028 C1027 1.524 . S
C1029 C1026 1.403 . S
C1029 C1030 1.392 . S
C1029 C1033 1.495 . S
C1030 C1029 1.392 . S
C1030 C1031 1.385 . S
C1030 C1032 1.478 . S
C1031 H1025 0.930 . S
C1031 C1027 1.400 . S
C1031 C1030 1.385 . S
C1032 C1030 1.478 . S
C1032 C1034 1.381 . S
C1032 C1038 1.383 . S
C1033 C1029 1.495 . S
C1033 H1039 0.959 . S
C1033 H1040 0.961 . S
C1033 H1041 0.960 . S
C1034 C1032 1.381 . S
C1034 C1035 1.394 . S
C1034 H1042 0.930 . S
C1035 C1034 1.394 . S
C1035 C1036 1.383 . S
C1035 H1043 0.929 . S
C1036 C1035 1.383 . S
C1036 C1037 1.377 . S
C1037 H1021 0.930 . S
C1037 C1036 1.377 . S
C1037 C1038 1.379 . S
C1038 H1022 0.931 . S
C1038 C1032 1.383 . S
C1038 C1037 1.379 . S
H1039 C1033 0.959 . S
H1040 C1033 0.961 . S
H1041 C1033 0.960 . S
H1042 C1034 0.930 . S
H1043 C1035 0.929 . S
H1044 C1052 0.929 . S
H1045 C1054 0.930 . S
H1046 C1056 0.930 . S
H1047 C1059 0.929 . S
H1048 C1062 0.930 . S
H1049 C1064 0.960 . S
H1050 C1064 0.960 . S
H1051 C1064 0.960 . S
C1052 H1044 0.929 . S
C1052 C1053 1.377 . S
C1052 C1054 1.384 . S
C1053 C1052 1.377 . S
C1053 C1059 1.390 . S
C1054 H1045 0.930 . S
C1054 C1052 1.384 . S
C1054 C1055 1.372 . S
C1055 C1054 1.372 . S
C1055 C1056 1.400 . S
C1055 C1060 1.490 . S
C1056 H1046 0.930 . S
C1056 C1055 1.400 . S
C1056 C1059 1.386 . S
H1057 C1073 0.930 . S
H1058 C1074 0.931 . S
C1059 H1047 0.929 . S
C1059 C1053 1.390 . S
C1059 C1056 1.386 . S
C1060 C1055 1.490 . S
C1060 C1062 1.395 . S
C1060 C1063 1.403 . S
H1061 C1067 0.930 . S
C1062 H1048 0.930 . S
C1062 C1060 1.395 . S
C1062 C1065 1.403 . S
C1063 C1060 1.403 . S
C1063 C1064 1.524 . S
C1063 C1067 1.400 . S
C1064 H1049 0.960 . S
C1064 H1050 0.960 . S
C1064 H1051 0.960 . S
C1064 C1063 1.524 . S
C1065 C1062 1.403 . S
C1065 C1066 1.392 . S
C1065 C1069 1.495 . S
C1066 C1065 1.392 . S
C1066 C1067 1.385 . S
C1066 C1068 1.478 . S
C1067 H1061 0.930 . S
C1067 C1063 1.400 . S
C1067 C1066 1.385 . S
C1068 C1066 1.478 . S
C1068 C1070 1.381 . S
C1068 C1074 1.383 . S
C1069 C1065 1.495 . S
C1069 H1075 0.959 . S
C1069 H1076 0.961 . S
C1069 H1077 0.960 . S
C1070 C1068 1.381 . S
C1070 C1071 1.394 . S
C1070 H1078 0.930 . S
C1071 C1070 1.394 . S
C1071 C1072 1.383 . S
C1071 H1079 0.929 . S
C1072 C1071 1.383 . S
C1072 C1073 1.377 . S
C1073 H1057 0.930 . S
C1073 C1072 1.377 . S
C1073 C1074 1.379 . S
C1074 H1058 0.931 . S
C1074 C1068 1.383 . S
C1074 C1073 1.379 . S
H1075 C1069 0.959 . S
H1076 C1069 0.961 . S
H1077 C1069 0.960 . S
H1078 C1070 0.930 . S
H1079 C1071 0.929 . S
H1080 C1088 0.929 . S
H1081 C1090 0.930 . S
H1082 C1092 0.930 . S
H1083 C1095 0.929 . S
H1084 C1098 0.930 . S
H1085 C1100 0.960 . S
H1086 C1100 0.960 . S
H1087 C1100 0.960 . S
C1088 H1080 0.929 . S
C1088 C1089 1.377 . S
C1088 C1090 1.384 . S
C1089 C1088 1.377 . S
C1089 C1095 1.390 . S
C1090 H1081 0.930 . S
C1090 C1088 1.384 . S
C1090 C1091 1.372 . S
C1091 C1090 1.372 . S
C1091 C1092 1.400 . S
C1091 C1096 1.490 . S
C1092 H1082 0.930 . S
C1092 C1091 1.400 . S
C1092 C1095 1.386 . S
H1093 C1109 0.930 . S
H1094 C1110 0.931 . S
C1095 H1083 0.929 . S
C1095 C1089 1.390 . S
C1095 C1092 1.386 . S
C1096 C1091 1.490 . S
C1096 C1098 1.395 . S
C1096 C1099 1.403 . S
H1097 C1103 0.930 . S
C1098 H1084 0.930 . S
C1098 C1096 1.395 . S
C1098 C1101 1.403 . S
C1099 C1096 1.403 . S
C1099 C1100 1.524 . S
C1099 C1103 1.400 . S
C1100 H1085 0.960 . S
C1100 H1086 0.960 . S
C1100 H1087 0.960 . S
C1100 C1099 1.524 . S
C1101 C1098 1.403 . S
C1101 C1102 1.392 . S
C1101 C1105 1.495 . S
C1102 C1101 1.392 . S
C1102 C1103 1.385 . S
C1102 C1104 1.478 . S
C1103 H1097 0.930 . S
C1103 C1099 1.400 . S
C1103 C1102 1.385 . S
C1104 C1102 1.478 . S
C1104 C1106 1.381 . S
C1104 C1110 1.383 . S
C1105 C1101 1.495 . S
C1105 H1111 0.959 . S
C1105 H1112 0.961 . S
C1105 H1113 0.960 . S
C1106 C1104 1.381 . S
C1106 C1107 1.394 . S
C1106 H1114 0.930 . S
C1107 C1106 1.394 . S
C1107 C1108 1.383 . S
C1107 H1115 0.929 . S
C1108 C1107 1.383 . S
C1108 C1109 1.377 . S
C1109 H1093 0.930 . S
C1109 C1108 1.377 . S
C1109 C1110 1.379 . S
C1110 H1094 0.931 . S
C1110 C1104 1.383 . S
C1110 C1109 1.379 . S
H1111 C1105 0.959 . S
H1112 C1105 0.961 . S
H1113 C1105 0.960 . S
H1114 C1106 0.930 . S
H1115 C1107 0.929 . S
H1116 C1124 0.929 . S
H1117 C1126 0.930 . S
H1118 C1128 0.930 . S
H1119 C1131 0.929 . S
H1120 C1134 0.930 . S
H1121 C1136 0.960 . S
H1122 C1136 0.960 . S
H1123 C1136 0.960 . S
C1124 H1116 0.929 . S
C1124 C1125 1.377 . S
C1124 C1126 1.384 . S
C1125 C1124 1.377 . S
C1125 C1131 1.390 . S
C1126 H1117 0.930 . S
C1126 C1124 1.384 . S
C1126 C1127 1.372 . S
C1127 C1126 1.372 . S
C1127 C1128 1.400 . S
C1127 C1132 1.490 . S
C1128 H1118 0.930 . S
C1128 C1127 1.400 . S
C1128 C1131 1.386 . S
H1129 C1145 0.930 . S
H1130 C1146 0.931 . S
C1131 H1119 0.929 . S
C1131 C1125 1.390 . S
C1131 C1128 1.386 . S
C1132 C1127 1.490 . S
C1132 C1134 1.395 . S
C1132 C1135 1.403 . S
H1133 C1139 0.930 . S
C1134 H1120 0.930 . S
C1134 C1132 1.395 . S
C1134 C1137 1.403 . S
C1135 C1132 1.403 . S
C1135 C1136 1.524 . S
C1135 C1139 1.400 . S
C1136 H1121 0.960 . S
C1136 H1122 0.960 . S
C1136 H1123 0.960 . S
C1136 C1135 1.524 . S
C1137 C1134 1.403 . S
C1137 C1138 1.392 . S
C1137 C1141 1.495 . S
C1138 C1137 1.392 . S
C1138 C1139 1.385 . S
C1138 C1140 1.478 . S
C1139 H1133 0.930 . S
C1139 C1135 1.400 . S
C1139 C1138 1.385 . S
C1140 C1138 1.478 . S
C1140 C1142 1.381 . S
C1140 C1146 1.383 . S
C1141 C1137 1.495 . S
C1141 H1147 0.959 . S
C1141 H1148 0.961 . S
C1141 H1149 0.960 . S
C1142 C1140 1.381 . S
C1142 C1143 1.394 . S
C1142 H1150 0.930 . S
C1143 C1142 1.394 . S
C1143 C1144 1.383 . S
C1143 H1151 0.929 . S
C1144 C1143 1.383 . S
C1144 C1145 1.377 . S
C1145 H1129 0.930 . S
C1145 C1144 1.377 . S
C1145 C1146 1.379 . S
C1146 H1130 0.931 . S
C1146 C1140 1.383 . S
C1146 C1145 1.379 . S
H1147 C1141 0.959 . S
H1148 C1141 0.961 . S
H1149 C1141 0.960 . S
H1150 C1142 0.930 . S
H1151 C1143 0.929 . S
H1152 C1160 0.929 . S
H1153 C1162 0.930 . S
H1154 C1164 0.930 . S
H1155 C1167 0.929 . S
H1156 C1170 0.930 . S
H1157 C1172 0.960 . S
H1158 C1172 0.960 . S
H1159 C1172 0.960 . S
C1160 H1152 0.929 . S
C1160 C1161 1.377 . S
C1160 C1162 1.384 . S
C1161 C1160 1.377 . S
C1161 C1167 1.390 . S
C1162 H1153 0.930 . S
C1162 C1160 1.384 . S
C1162 C1163 1.372 . S
C1163 C1162 1.372 . S
C1163 C1164 1.400 . S
C1163 C1168 1.490 . S
C1164 H1154 0.930 . S
C1164 C1163 1.400 . S
C1164 C1167 1.386 . S
H1165 C1181 0.930 . S
H1166 C1182 0.931 . S
C1167 H1155 0.929 . S
C1167 C1161 1.390 . S
C1167 C1164 1.386 . S
C1168 C1163 1.490 . S
C1168 C1170 1.395 . S
C1168 C1171 1.403 . S
H1169 C1175 0.930 . S
C1170 H1156 0.930 . S
C1170 C1168 1.395 . S
C1170 C1173 1.403 . S
C1171 C1168 1.403 . S
C1171 C1172 1.524 . S
C1171 C1175 1.400 . S
C1172 H1157 0.960 . S
C1172 H1158 0.960 . S
C1172 H1159 0.960 . S
C1172 C1171 1.524 . S
C1173 C1170 1.403 . S
C1173 C1174 1.392 . S
C1173 C1177 1.495 . S
C1174 C1173 1.392 . S
C1174 C1175 1.385 . S
C1174 C1176 1.478 . S
C1175 H1169 0.930 . S
C1175 C1171 1.400 . S
C1175 C1174 1.385 . S
C1176 C1174 1.478 . S
C1176 C1178 1.381 . S
C1176 C1182 1.383 . S
C1177 C1173 1.495 . S
C1177 H1183 0.959 . S
C1177 H1184 0.961 . S
C1177 H1185 0.960 . S
C1178 C1176 1.381 . S
C1178 C1179 1.394 . S
C1178 H1186 0.930 . S
C1179 C1178 1.394 . S
C1179 C1180 1.383 . S
C1179 H1187 0.929 . S
C1180 C1179 1.383 . S
C1180 C1181 1.377 . S
C1181 H1165 0.930 . S
C1181 C1180 1.377 . S
C1181 C1182 1.379 . S
C1182 H1166 0.931 . S
C1182 C1176 1.383 . S
C1182 C1181 1.379 . S
H1183 C1177 0.959 . S
H1184 C1177 0.961 . S
H1185 C1177 0.960 . S
H1186 C1178 0.930 . S
H1187 C1179 0.929 . S
H1188 C1196 0.929 . S
H1189 C1198 0.930 . S
H1190 C1200 0.930 . S
H1191 C1203 0.929 . S
H1192 C1206 0.930 . S
H1193 C1208 0.960 . S
H1194 C1208 0.960 . S
H1195 C1208 0.960 . S
C1196 H1188 0.929 . S
C1196 C1197 1.377 . S
C1196 C1198 1.384 . S
C1197 C1196 1.377 . S
C1197 C1203 1.390 . S
C1198 H1189 0.930 . S
C1198 C1196 1.384 . S
C1198 C1199 1.372 . S
C1199 C1198 1.372 . S
C1199 C1200 1.400 . S
C1199 C1204 1.490 . S
C1200 H1190 0.930 . S
C1200 C1199 1.400 . S
C1200 C1203 1.386 . S
H1201 C1217 0.930 . S
H1202 C1218 0.931 . S
C1203 H1191 0.929 . S
C1203 C1197 1.390 . S
C1203 C1200 1.386 . S
C1204 C1199 1.490 . S
C1204 C1206 1.395 . S
C1204 C1207 1.403 . S
H1205 C1211 0.930 . S
C1206 H1192 0.930 . S
C1206 C1204 1.395 . S
C1206 C1209 1.403 . S
C1207 C1204 1.403 . S
C1207 C1208 1.524 . S
C1207 C1211 1.400 . S
C1208 H1193 0.960 . S
C1208 H1194 0.960 . S
C1208 H1195 0.960 . S
C1208 C1207 1.524 . S
C1209 C1206 1.403 . S
C1209 C1210 1.392 . S
C1209 C1213 1.495 . S
C1210 C1209 1.392 . S
C1210 C1211 1.385 . S
C1210 C1212 1.478 . S
C1211 H1205 0.930 . S
C1211 C1207 1.400 . S
C1211 C1210 1.385 . S
C1212 C1210 1.478 . S
C1212 C1214 1.381 . S
C1212 C1218 1.383 . S
C1213 C1209 1.495 . S
C1213 H1219 0.959 . S
C1213 H1220 0.961 . S
C1213 H1221 0.960 . S
C1214 C1212 1.381 . S
C1214 C1215 1.394 . S
C1214 H1222 0.930 . S
C1215 C1214 1.394 . S
C1215 C1216 1.383 . S
C1215 H1223 0.929 . S
C1216 C1215 1.383 . S
C1216 C1217 1.377 . S
C1217 H1201 0.930 . S
C1217 C1216 1.377 . S
C1217 C1218 1.379 . S
C1218 H1202 0.931 . S
C1218 C1212 1.383 . S
C1218 C1217 1.379 . S
H1219 C1213 0.959 . S
H1220 C1213 0.961 . S
H1221 C1213 0.960 . S
H1222 C1214 0.930 . S
H1223 C1215 0.929 . S
H1224 C1232 0.929 . S
H1225 C1234 0.930 . S
H1226 C1236 0.930 . S
H1227 C1239 0.929 . S
H1228 C1242 0.930 . S
H1229 C1244 0.960 . S
H1230 C1244 0.960 . S
H1231 C1244 0.960 . S
C1232 H1224 0.929 . S
C1232 C1233 1.377 . S
C1232 C1234 1.384 . S
C1233 C1232 1.377 . S
C1233 C1239 1.390 . S
C1234 H1225 0.930 . S
C1234 C1232 1.384 . S
C1234 C1235 1.372 . S
C1235 C1234 1.372 . S
C1235 C1236 1.400 . S
C1235 C1240 1.490 . S
C1236 H1226 0.930 . S
C1236 C1235 1.400 . S
C1236 C1239 1.386 . S
H1237 C1253 0.930 . S
H1238 C1254 0.931 . S
C1239 H1227 0.929 . S
C1239 C1233 1.390 . S
C1239 C1236 1.386 . S
C1240 C1235 1.490 . S
C1240 C1242 1.395 . S
C1240 C1243 1.403 . S
H1241 C1247 0.930 . S
C1242 H1228 0.930 . S
C1242 C1240 1.395 . S
C1242 C1245 1.403 . S
C1243 C1240 1.403 . S
C1243 C1244 1.524 . S
C1243 C1247 1.400 . S
C1244 H1229 0.960 . S
C1244 H1230 0.960 . S
C1244 H1231 0.960 . S
C1244 C1243 1.524 . S
C1245 C1242 1.403 . S
C1245 C1246 1.392 . S
C1245 C1249 1.495 . S
C1246 C1245 1.392 . S
C1246 C1247 1.385 . S
C1246 C1248 1.478 . S
C1247 H1241 0.930 . S
C1247 C1243 1.400 . S
C1247 C1246 1.385 . S
C1248 C1246 1.478 . S
C1248 C1250 1.381 . S
C1248 C1254 1.383 . S
C1249 C1245 1.495 . S
C1249 H1255 0.959 . S
C1249 H1256 0.961 . S
C1249 H1257 0.960 . S
C1250 C1248 1.381 . S
C1250 C1251 1.394 . S
C1250 H1258 0.930 . S
C1251 C1250 1.394 . S
C1251 C1252 1.383 . S
C1251 H1259 0.929 . S
C1252 C1251 1.383 . S
C1252 C1253 1.377 . S
C1253 H1237 0.930 . S
C1253 C1252 1.377 . S
C1253 C1254 1.379 . S
C1254 H1238 0.931 . S
C1254 C1248 1.383 . S
C1254 C1253 1.379 . S
H1255 C1249 0.959 . S
H1256 C1249 0.961 . S
H1257 C1249 0.960 . S
H1258 C1250 0.930 . S
H1259 C1251 0.929 . S
H1260 C1268 0.929 . S
H1261 C1270 0.930 . S
H1262 C1272 0.930 . S
H1263 C1275 0.929 . S
H1264 C1278 0.930 . S
H1265 C1280 0.960 . S
H1266 C1280 0.960 . S
H1267 C1280 0.960 . S
C1268 H1260 0.929 . S
C1268 C1269 1.377 . S
C1268 C1270 1.384 . S
C1269 C1268 1.377 . S
C1269 C1275 1.390 . S
C1270 H1261 0.930 . S
C1270 C1268 1.384 . S
C1270 C1271 1.372 . S
C1271 C1270 1.372 . S
C1271 C1272 1.400 . S
C1271 C1276 1.490 . S
C1272 H1262 0.930 . S
C1272 C1271 1.400 . S
C1272 C1275 1.386 . S
H1273 C1289 0.930 . S
H1274 C1290 0.931 . S
C1275 H1263 0.929 . S
C1275 C1269 1.390 . S
C1275 C1272 1.386 . S
C1276 C1271 1.490 . S
C1276 C1278 1.395 . S
C1276 C1279 1.403 . S
H1277 C1283 0.930 . S
C1278 H1264 0.930 . S
C1278 C1276 1.395 . S
C1278 C1281 1.403 . S
C1279 C1276 1.403 . S
C1279 C1280 1.524 . S
C1279 C1283 1.400 . S
C1280 H1265 0.960 . S
C1280 H1266 0.960 . S
C1280 H1267 0.960 . S
C1280 C1279 1.524 . S
C1281 C1278 1.403 . S
C1281 C1282 1.392 . S
C1281 C1285 1.495 . S
C1282 C1281 1.392 . S
C1282 C1283 1.385 . S
C1282 C1284 1.478 . S
C1283 H1277 0.930 . S
C1283 C1279 1.400 . S
C1283 C1282 1.385 . S
C1284 C1282 1.478 . S
C1284 C1286 1.381 . S
C1284 C1290 1.383 . S
C1285 C1281 1.495 . S
C1285 H1291 0.959 . S
C1285 H1292 0.961 . S
C1285 H1293 0.960 . S
C1286 C1284 1.381 . S
C1286 C1287 1.394 . S
C1286 H1294 0.930 . S
C1287 C1286 1.394 . S
C1287 C1288 1.383 . S
C1287 H1295 0.929 . S
C1288 C1287 1.383 . S
C1288 C1289 1.377 . S
C1289 H1273 0.930 . S
C1289 C1288 1.377 . S
C1289 C1290 1.379 . S
C1290 H1274 0.931 . S
C1290 C1284 1.383 . S
C1290 C1289 1.379 . S
H1291 C1285 0.959 . S
H1292 C1285 0.961 . S
H1293 C1285 0.960 . S
H1294 C1286 0.930 . S
H1295 C1287 0.929 . S
H1296 C1304 0.929 . S
H1297 C1306 0.930 . S
H1298 C1308 0.930 . S
H1299 C1311 0.929 . S
H1300 C1314 0.930 . S
H1301 C1316 0.960 . S
H1302 C1316 0.960 . S
H1303 C1316 0.960 . S
C1304 H1296 0.929 . S
C1304 C1305 1.377 . S
C1304 C1306 1.384 . S
C1305 C1304 1.377 . S
C1305 C1311 1.390 . S
C1306 H1297 0.930 . S
C1306 C1304 1.384 . S
C1306 C1307 1.372 . S
C1307 C1306 1.372 . S
C1307 C1308 1.400 . S
C1307 C1312 1.490 . S
C1308 H1298 0.930 . S
C1308 C1307 1.400 . S
C1308 C1311 1.386 . S
H1309 C1325 0.930 . S
H1310 C1326 0.931 . S
C1311 H1299 0.929 . S
C1311 C1305 1.390 . S
C1311 C1308 1.386 . S
C1312 C1307 1.490 . S
C1312 C1314 1.395 . S
C1312 C1315 1.403 . S
H1313 C1319 0.930 . S
C1314 H1300 0.930 . S
C1314 C1312 1.395 . S
C1314 C1317 1.403 . S
C1315 C1312 1.403 . S
C1315 C1316 1.524 . S
C1315 C1319 1.400 . S
C1316 H1301 0.960 . S
C1316 H1302 0.960 . S
C1316 H1303 0.960 . S
C1316 C1315 1.524 . S
C1317 C1314 1.403 . S
C1317 C1318 1.392 . S
C1317 C1321 1.495 . S
C1318 C1317 1.392 . S
C1318 C1319 1.385 . S
C1318 C1320 1.478 . S
C1319 H1313 0.930 . S
C1319 C1315 1.400 . S
C1319 C1318 1.385 . S
C1320 C1318 1.478 . S
C1320 C1322 1.381 . S
C1320 C1326 1.383 . S
C1321 C1317 1.495 . S
C1321 H1327 0.959 . S
C1321 H1328 0.961 . S
C1321 H1329 0.960 . S
C1322 C1320 1.381 . S
C1322 C1323 1.394 . S
C1322 H1330 0.930 . S
C1323 C1322 1.394 . S
C1323 C1324 1.383 . S
C1323 H1331 0.929 . S
C1324 C1323 1.383 . S
C1324 C1325 1.377 . S
C1325 H1309 0.930 . S
C1325 C1324 1.377 . S
C1325 C1326 1.379 . S
C1326 H1310 0.931 . S
C1326 C1320 1.383 . S
C1326 C1325 1.379 . S
H1327 C1321 0.959 . S
H1328 C1321 0.961 . S
H1329 C1321 0.960 . S
H1330 C1322 0.930 . S
H1331 C1323 0.929 . S
H1332 C1340 0.929 . S
H1333 C1342 0.930 . S
H1334 C1344 0.930 . S
H1335 C1347 0.929 . S
H1336 C1350 0.930 . S
H1337 C1352 0.960 . S
H1338 C1352 0.960 . S
H1339 C1352 0.960 . S
C1340 H1332 0.929 . S
C1340 C1341 1.377 . S
C1340 C1342 1.384 . S
C1341 C1340 1.377 . S
C1341 C1347 1.390 . S
C1342 H1333 0.930 . S
C1342 C1340 1.384 . S
C1342 C1343 1.372 . S
C1343 C1342 1.372 . S
C1343 C1344 1.400 . S
C1343 C1348 1.490 . S
C1344 H1334 0.930 . S
C1344 C1343 1.400 . S
C1344 C1347 1.386 . S
H1345 C1361 0.930 . S
H1346 C1362 0.931 . S
C1347 H1335 0.929 . S
C1347 C1341 1.390 . S
C1347 C1344 1.386 . S
C1348 C1343 1.490 . S
C1348 C1350 1.395 . S
C1348 C1351 1.403 . S
H1349 C1355 0.930 . S
C1350 H1336 0.930 . S
C1350 C1348 1.395 . S
C1350 C1353 1.403 . S
C1351 C1348 1.403 . S
C1351 C1352 1.524 . S
C1351 C1355 1.400 . S
C1352 H1337 0.960 . S
C1352 H1338 0.960 . S
C1352 H1339 0.960 . S
C1352 C1351 1.524 . S
C1353 C1350 1.403 . S
C1353 C1354 1.392 . S
C1353 C1357 1.495 . S
C1354 C1353 1.392 . S
C1354 C1355 1.385 . S
C1354 C1356 1.478 . S
C1355 H1349 0.930 . S
C1355 C1351 1.400 . S
C1355 C1354 1.385 . S
C1356 C1354 1.478 . S
C1356 C1358 1.381 . S
C1356 C1362 1.383 . S
C1357 C1353 1.495 . S
C1357 H1363 0.959 . S
C1357 H1364 0.961 . S
C1357 H1365 0.960 . S
C1358 C1356 1.381 . S
C1358 C1359 1.394 . S
C1358 H1366 0.930 . S
C1359 C1358 1.394 . S
C1359 C1360 1.383 . S
C1359 H1367 0.929 . S
C1360 C1359 1.383 . S
C1360 C1361 1.377 . S
C1361 H1345 0.930 . S
C1361 C1360 1.377 . S
C1361 C1362 1.379 . S
C1362 H1346 0.931 . S
C1362 C1356 1.383 . S
C1362 C1361 1.379 . S
H1363 C1357 0.959 . S
H1364 C1357 0.961 . S
H1365 C1357 0.960 . S
H1366 C1358 0.930 . S
H1367 C1359 0.929 . S
H1368 C1376 0.929 . S
H1369 C1378 0.930 . S
H1370 C1380 0.930 . S
H1371 C1383 0.929 . S
H1372 C1386 0.930 . S
H1373 C1388 0.960 . S
H1374 C1388 0.960 . S
H1375 C1388 0.960 . S
C1376 H1368 0.929 . S
C1376 C1377 1.377 . S
C1376 C1378 1.384 . S
C1377 C1376 1.377 . S
C1377 C1383 1.390 . S
C1378 H1369 0.930 . S
C1378 C1376 1.384 . S
C1378 C1379 1.372 . S
C1379 C1378 1.372 . S
C1379 C1380 1.400 . S
C1379 C1384 1.490 . S
C1380 H1370 0.930 . S
C1380 C1379 1.400 . S
C1380 C1383 1.386 . S
H1381 C1397 0.930 . S
H1382 C1398 0.931 . S
C1383 H1371 0.929 . S
C1383 C1377 1.390 . S
C1383 C1380 1.386 . S
C1384 C1379 1.490 . S
C1384 C1386 1.395 . S
C1384 C1387 1.403 . S
H1385 C1391 0.930 . S
C1386 H1372 0.930 . S
C1386 C1384 1.395 . S
C1386 C1389 1.403 . S
C1387 C1384 1.403 . S
C1387 C1388 1.524 . S
C1387 C1391 1.400 . S
C1388 H1373 0.960 . S
C1388 H1374 0.960 . S
C1388 H1375 0.960 . S
C1388 C1387 1.524 . S
C1389 C1386 1.403 . S
C1389 C1390 1.392 . S
C1389 C1393 1.495 . S
C1390 C1389 1.392 . S
C1390 C1391 1.385 . S
C1390 C1392 1.478 . S
C1391 H1385 0.930 . S
C1391 C1387 1.400 . S
C1391 C1390 1.385 . S
C1392 C1390 1.478 . S
C1392 C1394 1.381 . S
C1392 C1398 1.383 . S
C1393 C1389 1.495 . S
C1393 H1399 0.959 . S
C1393 H1400 0.961 . S
C1393 H1401 0.960 . S
C1394 C1392 1.381 . S
C1394 C1395 1.394 . S
C1394 H1402 0.930 . S
C1395 C1394 1.394 . S
C1395 C1396 1.383 . S
C1395 H1403 0.929 . S
C1396 C1395 1.383 . S
C1396 C1397 1.377 . S
C1397 H1381 0.930 . S
C1397 C1396 1.377 . S
C1397 C1398 1.379 . S
C1398 H1382 0.931 . S
C1398 C1392 1.383 . S
C1398 C1397 1.379 . S
H1399 C1393 0.959 . S
H1400 C1393 0.961 . S
H1401 C1393 0.960 . S
H1402 C1394 0.930 . S
H1403 C1395 0.929 . S
H1404 C1412 0.929 . S
H1405 C1414 0.930 . S
H1406 C1416 0.930 . S
H1407 C1419 0.929 . S
H1408 C1422 0.930 . S
H1409 C1424 0.960 . S
H1410 C1424 0.960 . S
H1411 C1424 0.960 . S
C1412 H1404 0.929 . S
C1412 C1413 1.377 . S
C1412 C1414 1.384 . S
C1413 C1412 1.377 . S
C1413 C1419 1.390 . S
C1414 H1405 0.930 . S
C1414 C1412 1.384 . S
C1414 C1415 1.372 . S
C1415 C1414 1.372 . S
C1415 C1416 1.400 . S
C1415 C1420 1.490 . S
C1416 H1406 0.930 . S
C1416 C1415 1.400 . S
C1416 C1419 1.386 . S
H1417 C1433 0.930 . S
H1418 C1434 0.931 . S
C1419 H1407 0.929 . S
C1419 C1413 1.390 . S
C1419 C1416 1.386 . S
C1420 C1415 1.490 . S
C1420 C1422 1.395 . S
C1420 C1423 1.403 . S
H1421 C1427 0.930 . S
C1422 H1408 0.930 . S
C1422 C1420 1.395 . S
C1422 C1425 1.403 . S
C1423 C1420 1.403 . S
C1423 C1424 1.524 . S
C1423 C1427 1.400 . S
C1424 H1409 0.960 . S
C1424 H1410 0.960 . S
C1424 H1411 0.960 . S
C1424 C1423 1.524 . S
C1425 C1422 1.403 . S
C1425 C1426 1.392 . S
C1425 C1429 1.495 . S
C1426 C1425 1.392 . S
C1426 C1427 1.385 . S
C1426 C1428 1.478 . S
C1427 H1421 0.930 . S
C1427 C1423 1.400 . S
C1427 C1426 1.385 . S
C1428 C1426 1.478 . S
C1428 C1430 1.381 . S
C1428 C1434 1.383 . S
C1429 C1425 1.495 . S
C1429 H1435 0.959 . S
C1429 H1436 0.961 . S
C1429 H1437 0.960 . S
C1430 C1428 1.381 . S
C1430 C1431 1.394 . S
C1430 H1438 0.930 . S
C1431 C1430 1.394 . S
C1431 C1432 1.383 . S
C1431 H1439 0.929 . S
C1432 C1431 1.383 . S
C1432 C1433 1.377 . S
C1433 H1417 0.930 . S
C1433 C1432 1.377 . S
C1433 C1434 1.379 . S
C1434 H1418 0.931 . S
C1434 C1428 1.383 . S
C1434 C1433 1.379 . S
H1435 C1429 0.959 . S
H1436 C1429 0.961 . S
H1437 C1429 0.960 . S
H1438 C1430 0.930 . S
H1439 C1431 0.929 . S
H1440 C1448 0.929 . S
H1441 C1450 0.930 . S
H1442 C1452 0.930 . S
H1443 C1455 0.929 . S
H1444 C1458 0.930 . S
H1445 C1460 0.960 . S
H1446 C1460 0.960 . S
H1447 C1460 0.960 . S
C1448 H1440 0.929 . S
C1448 C1449 1.377 . S
C1448 C1450 1.384 . S
C1449 C1448 1.377 . S
C1449 C1455 1.390 . S
C1450 H1441 0.930 . S
C1450 C1448 1.384 . S
C1450 C1451 1.372 . S
C1451 C1450 1.372 . S
C1451 C1452 1.400 . S
C1451 C1456 1.490 . S
C1452 H1442 0.930 . S
C1452 C1451 1.400 . S
C1452 C1455 1.386 . S
H1453 C1469 0.930 . S
H1454 C1470 0.931 . S
C1455 H1443 0.929 . S
C1455 C1449 1.390 . S
C1455 C1452 1.386 . S
C1456 C1451 1.490 . S
C1456 C1458 1.395 . S
C1456 C1459 1.403 . S
H1457 C1463 0.930 . S
C1458 H1444 0.930 . S
C1458 C1456 1.395 . S
C1458 C1461 1.403 . S
C1459 C1456 1.403 . S
C1459 C1460 1.524 . S
C1459 C1463 1.400 . S
C1460 H1445 0.960 . S
C1460 H1446 0.960 . S
C1460 H1447 0.960 . S
C1460 C1459 1.524 . S
C1461 C1458 1.403 . S
C1461 C1462 1.392 . S
C1461 C1465 1.495 . S
C1462 C1461 1.392 . S
C1462 C1463 1.385 . S
C1462 C1464 1.478 . S
C1463 H1457 0.930 . S
C1463 C1459 1.400 . S
C1463 C1462 1.385 . S
C1464 C1462 1.478 . S
C1464 C1466 1.381 . S
C1464 C1470 1.383 . S
C1465 C1461 1.495 . S
C1465 H1471 0.959 . S
C1465 H1472 0.961 . S
C1465 H1473 0.960 . S
C1466 C1464 1.381 . S
C1466 C1467 1.394 . S
C1466 H1474 0.930 . S
C1467 C1466 1.394 . S
C1467 C1468 1.383 . S
C1467 H1475 0.929 . S
C1468 C1467 1.383 . S
C1468 C1469 1.377 . S
C1469 H1453 0.930 . S
C1469 C1468 1.377 . S
C1469 C1470 1.379 . S
C1470 H1454 0.931 . S
C1470 C1464 1.383 . S
C1470 C1469 1.379 . S
H1471 C1465 0.959 . S
H1472 C1465 0.961 . S
H1473 C1465 0.960 . S
H1474 C1466 0.930 . S
H1475 C1467 0.929 . S
H1476 C1484 0.929 . S
H1477 C1486 0.930 . S
H1478 C1488 0.930 . S
H1479 C1491 0.929 . S
H1480 C1494 0.930 . S
H1481 C1496 0.960 . S
H1482 C1496 0.960 . S
H1483 C1496 0.960 . S
C1484 H1476 0.929 . S
C1484 C1485 1.377 . S
C1484 C1486 1.384 . S
C1485 C1484 1.377 . S
C1485 C1491 1.390 . S
C1486 H1477 0.930 . S
C1486 C1484 1.384 . S
C1486 C1487 1.372 . S
C1487 C1486 1.372 . S
C1487 C1488 1.400 . S
C1487 C1492 1.490 . S
C1488 H1478 0.930 . S
C1488 C1487 1.400 . S
C1488 C1491 1.386 . S
H1489 C1505 0.930 . S
H1490 C1506 0.931 . S
C1491 H1479 0.929 . S
C1491 C1485 1.390 . S
C1491 C1488 1.386 . S
C1492 C1487 1.490 . S
C1492 C1494 1.395 . S
C1492 C1495 1.403 . S
H1493 C1499 0.930 . S
C1494 H1480 0.930 . S
C1494 C1492 1.395 . S
C1494 C1497 1.403 . S
C1495 C1492 1.403 . S
C1495 C1496 1.524 . S
C1495 C1499 1.400 . S
C1496 H1481 0.960 . S
C1496 H1482 0.960 . S
C1496 H1483 0.960 . S
C1496 C1495 1.524 . S
C1497 C1494 1.403 . S
C1497 C1498 1.392 . S
C1497 C1501 1.495 . S
C1498 C1497 1.392 . S
C1498 C1499 1.385 . S
C1498 C1500 1.478 . S
C1499 H1493 0.930 . S
C1499 C1495 1.400 . S
C1499 C1498 1.385 . S
C1500 C1498 1.478 . S
C1500 C1502 1.381 . S
C1500 C1506 1.383 . S
C1501 C1497 1.495 . S
C1501 H1507 0.959 . S
C1501 H1508 0.961 . S
C1501 H1509 0.960 . S
C1502 C1500 1.381 . S
C1502 C1503 1.394 . S
C1502 H1510 0.930 . S
C1503 C1502 1.394 . S
C1503 C1504 1.383 . S
C1503 H1511 0.929 . S
C1504 C1503 1.383 . S
C1504 C1505 1.377 . S
C1505 H1489 0.930 . S
C1505 C1504 1.377 . S
C1505 C1506 1.379 . S
C1506 H1490 0.931 . S
C1506 C1500 1.383 . S
C1506 C1505 1.379 . S
H1507 C1501 0.959 . S
H1508 C1501 0.961 . S
H1509 C1501 0.960 . S
H1510 C1502 0.930 . S
H1511 C1503 0.929 . S
H1512 C1520 0.929 . S
H1513 C1522 0.930 . S
H1514 C1524 0.930 . S
H1515 C1527 0.929 . S
H1516 C1530 0.930 . S
H1517 C1532 0.960 . S
H1518 C1532 0.960 . S
H1519 C1532 0.960 . S
C1520 H1512 0.929 . S
C1520 C1521 1.377 . S
C1520 C1522 1.384 . S
C1521 C1520 1.377 . S
C1521 C1527 1.390 . S
C1522 H1513 0.930 . S
C1522 C1520 1.384 . S
C1522 C1523 1.372 . S
C1523 C1522 1.372 . S
C1523 C1524 1.400 . S
C1523 C1528 1.490 . S
C1524 H1514 0.930 . S
C1524 C1523 1.400 . S
C1524 C1527 1.386 . S
H1525 C1541 0.930 . S
H1526 C1542 0.931 . S
C1527 H1515 0.929 . S
C1527 C1521 1.390 . S
C1527 C1524 1.386 . S
C1528 C1523 1.490 . S
C1528 C1530 1.395 . S
C1528 C1531 1.403 . S
H1529 C1535 0.930 . S
C1530 H1516 0.930 . S
C1530 C1528 1.395 . S
C1530 C1533 1.403 . S
C1531 C1528 1.403 . S
C1531 C1532 1.524 . S
C1531 C1535 1.400 . S
C1532 H1517 0.960 . S
C1532 H1518 0.960 . S
C1532 H1519 0.960 . S
C1532 C1531 1.524 . S
C1533 C1530 1.403 . S
C1533 C1534 1.392 . S
C1533 C1537 1.495 . S
C1534 C1533 1.392 . S
C1534 C1535 1.385 . S
C1534 C1536 1.478 . S
C1535 H1529 0.930 . S
C1535 C1531 1.400 . S
C1535 C1534 1.385 . S
C1536 C1534 1.478 . S
C1536 C1538 1.381 . S
C1536 C1542 1.383 . S
C1537 C1533 1.495 . S
C1537 H1543 0.959 . S
C1537 H1544 0.961 . S
C1537 H1545 0.960 . S
C1538 C1536 1.381 . S
C1538 C1539 1.394 . S
C1538 H1546 0.930 . S
C1539 C1538 1.394 . S
C1539 C1540 1.383 . S
C1539 H1547 0.929 . S
C1540 C1539 1.383 . S
C1540 C1541 1.377 . S
C1541 H1525 0.930 . S
C1541 C1540 1.377 . S
C1541 C1542 1.379 . S
C1542 H1526 0.931 . S
C1542 C1536 1.383 . S
C1542 C1541 1.379 . S
H1543 C1537 0.959 . S
H1544 C1537 0.961 . S
H1545 C1537 0.960 . S
H1546 C1538 0.930 . S
H1547 C1539 0.929 . S
H1548 C1556 0.929 . S
H1549 C1558 0.930 . S
H1550 C1560 0.930 . S
H1551 C1563 0.929 . S
H1552 C1566 0.930 . S
H1553 C1568 0.960 . S
H1554 C1568 0.960 . S
H1555 C1568 0.960 . S
C1556 H1548 0.929 . S
C1556 C1557 1.377 . S
C1556 C1558 1.384 . S
C1557 C1556 1.377 . S
C1557 C1563 1.390 . S
C1558 H1549 0.930 . S
C1558 C1556 1.384 . S
C1558 C1559 1.372 . S
C1559 C1558 1.372 . S
C1559 C1560 1.400 . S
C1559 C1564 1.490 . S
C1560 H1550 0.930 . S
C1560 C1559 1.400 . S
C1560 C1563 1.386 . S
H1561 C1577 0.930 . S
H1562 C1578 0.931 . S
C1563 H1551 0.929 . S
C1563 C1557 1.390 . S
C1563 C1560 1.386 . S
C1564 C1559 1.490 . S
C1564 C1566 1.395 . S
C1564 C1567 1.403 . S
H1565 C1571 0.930 . S
C1566 H1552 0.930 . S
C1566 C1564 1.395 . S
C1566 C1569 1.403 . S
C1567 C1564 1.403 . S
C1567 C1568 1.524 . S
C1567 C1571 1.400 . S
C1568 H1553 0.960 . S
C1568 H1554 0.960 . S
C1568 H1555 0.960 . S
C1568 C1567 1.524 . S
C1569 C1566 1.403 . S
C1569 C1570 1.392 . S
C1569 C1573 1.495 . S
C1570 C1569 1.392 . S
C1570 C1571 1.385 . S
C1570 C1572 1.478 . S
C1571 H1565 0.930 . S
C1571 C1567 1.400 . S
C1571 C1570 1.385 . S
C1572 C1570 1.478 . S
C1572 C1574 1.381 . S
C1572 C1578 1.383 . S
C1573 C1569 1.495 . S
C1573 H1579 0.959 . S
C1573 H1580 0.961 . S
C1573 H1581 0.960 . S
C1574 C1572 1.381 . S
C1574 C1575 1.394 . S
C1574 H1582 0.930 . S
C1575 C1574 1.394 . S
C1575 C1576 1.383 . S
C1575 H1583 0.929 . S
C1576 C1575 1.383 . S
C1576 C1577 1.377 . S
C1577 H1561 0.930 . S
C1577 C1576 1.377 . S
C1577 C1578 1.379 . S
C1578 H1562 0.931 . S
C1578 C1572 1.383 . S
C1578 C1577 1.379 . S
H1579 C1573 0.959 . S
H1580 C1573 0.961 . S
H1581 C1573 0.960 . S
H1582 C1574 0.930 . S
H1583 C1575 0.929 . S
H1584 C1592 0.929 . S
H1585 C1594 0.930 . S
H1586 C1596 0.930 . S
H1587 C1599 0.929 . S
H1588 C1602 0.930 . S
H1589 C1604 0.960 . S
H1590 C1604 0.960 . S
H1591 C1604 0.960 . S
C1592 H1584 0.929 . S
C1592 C1593 1.377 . S
C1592 C1594 1.384 . S
C1593 C1592 1.377 . S
C1593 C1599 1.390 . S
C1594 H1585 0.930 . S
C1594 C1592 1.384 . S
C1594 C1595 1.372 . S
C1595 C1594 1.372 . S
C1595 C1596 1.400 . S
C1595 C1600 1.490 . S
C1596 H1586 0.930 . S
C1596 C1595 1.400 . S
C1596 C1599 1.386 . S
H1597 C1613 0.930 . S
H1598 C1614 0.931 . S
C1599 H1587 0.929 . S
C1599 C1593 1.390 . S
C1599 C1596 1.386 . S
C1600 C1595 1.490 . S
C1600 C1602 1.395 . S
C1600 C1603 1.403 . S
H1601 C1607 0.930 . S
C1602 H1588 0.930 . S
C1602 C1600 1.395 . S
C1602 C1605 1.403 . S
C1603 C1600 1.403 . S
C1603 C1604 1.524 . S
C1603 C1607 1.400 . S
C1604 H1589 0.960 . S
C1604 H1590 0.960 . S
C1604 H1591 0.960 . S
C1604 C1603 1.524 . S
C1605 C1602 1.403 . S
C1605 C1606 1.392 . S
C1605 C1609 1.495 . S
C1606 C1605 1.392 . S
C1606 C1607 1.385 . S
C1606 C1608 1.478 . S
C1607 H1601 0.930 . S
C1607 C1603 1.400 . S
C1607 C1606 1.385 . S
C1608 C1606 1.478 . S
C1608 C1610 1.381 . S
C1608 C1614 1.383 . S
C1609 C1605 1.495 . S
C1609 H1615 0.959 . S
C1609 H1616 0.961 . S
C1609 H1617 0.960 . S
C1610 C1608 1.381 . S
C1610 C1611 1.394 . S
C1610 H1618 0.930 . S
C1611 C1610 1.394 . S
C1611 C1612 1.383 . S
C1611 H1619 0.929 . S
C1612 C1611 1.383 . S
C1612 C1613 1.377 . S
C1613 H1597 0.930 . S
C1613 C1612 1.377 . S
C1613 C1614 1.379 . S
C1614 H1598 0.931 . S
C1614 C1608 1.383 . S
C1614 C1613 1.379 . S
H1615 C1609 0.959 . S
H1616 C1609 0.961 . S
H1617 C1609 0.960 . S
H1618 C1610 0.930 . S
H1619 C1611 0.929 . S
H1620 C1628 0.929 . S
H1621 C1630 0.930 . S
H1622 C1632 0.930 . S
H1623 C1635 0.929 . S
H1624 C1638 0.930 . S
H1625 C1640 0.960 . S
H1626 C1640 0.960 . S
H1627 C1640 0.960 . S
C1628 H1620 0.929 . S
C1628 C1629 1.377 . S
C1628 C1630 1.384 . S
C1629 C1628 1.377 . S
C1629 C1635 1.390 . S
C1630 H1621 0.930 . S
C1630 C1628 1.384 . S
C1630 C1631 1.372 . S
C1631 C1630 1.372 . S
C1631 C1632 1.400 . S
C1631 C1636 1.490 . S
C1632 H1622 0.930 . S
C1632 C1631 1.400 . S
C1632 C1635 1.386 . S
H1633 C1649 0.930 . S
H1634 C1650 0.931 . S
C1635 H1623 0.929 . S
C1635 C1629 1.390 . S
C1635 C1632 1.386 . S
C1636 C1631 1.490 . S
C1636 C1638 1.395 . S
C1636 C1639 1.403 . S
H1637 C1643 0.930 . S
C1638 H1624 0.930 . S
C1638 C1636 1.395 . S
C1638 C1641 1.403 . S
C1639 C1636 1.403 . S
C1639 C1640 1.524 . S
C1639 C1643 1.400 . S
C1640 H1625 0.960 . S
C1640 H1626 0.960 . S
C1640 H1627 0.960 . S
C1640 C1639 1.524 . S
C1641 C1638 1.403 . S
C1641 C1642 1.392 . S
C1641 C1645 1.495 . S
C1642 C1641 1.392 . S
C1642 C1643 1.385 . S
C1642 C1644 1.478 . S
C1643 H1637 0.930 . S
C1643 C1639 1.400 . S
C1643 C1642 1.385 . S
C1644 C1642 1.478 . S
C1644 C1646 1.381 . S
C1644 C1650 1.383 . S
C1645 C1641 1.495 . S
C1645 H1651 0.959 . S
C1645 H1652 0.961 . S
C1645 H1653 0.960 . S
C1646 C1644 1.381 . S
C1646 C1647 1.394 . S
C1646 H1654 0.930 . S
C1647 C1646 1.394 . S
C1647 C1648 1.383 . S
C1647 H1655 0.929 . S
C1648 C1647 1.383 . S
C1648 C1649 1.377 . S
C1649 H1633 0.930 . S
C1649 C1648 1.377 . S
C1649 C1650 1.379 . S
C1650 H1634 0.931 . S
C1650 C1644 1.383 . S
C1650 C1649 1.379 . S
H1651 C1645 0.959 . S
H1652 C1645 0.961 . S
H1653 C1645 0.960 . S
H1654 C1646 0.930 . S
H1655 C1647 0.929 . S
H1656 C1664 0.929 . S
H1657 C1666 0.930 . S
H1658 C1668 0.930 . S
H1659 C1671 0.929 . S
H1660 C1674 0.930 . S
H1661 C1676 0.960 . S
H1662 C1676 0.960 . S
H1663 C1676 0.960 . S
C1664 H1656 0.929 . S
C1664 C1665 1.377 . S
C1664 C1666 1.384 . S
C1665 C1664 1.377 . S
C1665 C1671 1.390 . S
C1666 H1657 0.930 . S
C1666 C1664 1.384 . S
C1666 C1667 1.372 . S
C1667 C1666 1.372 . S
C1667 C1668 1.400 . S
C1667 C1672 1.490 . S
C1668 H1658 0.930 . S
C1668 C1667 1.400 . S
C1668 C1671 1.386 . S
H1669 C1685 0.930 . S
H1670 C1686 0.931 . S
C1671 H1659 0.929 . S
C1671 C1665 1.390 . S
C1671 C1668 1.386 . S
C1672 C1667 1.490 . S
C1672 C1674 1.395 . S
C1672 C1675 1.403 . S
H1673 C1679 0.930 . S
C1674 H1660 0.930 . S
C1674 C1672 1.395 . S
C1674 C1677 1.403 . S
C1675 C1672 1.403 . S
C1675 C1676 1.524 . S
C1675 C1679 1.400 . S
C1676 H1661 0.960 . S
C1676 H1662 0.960 . S
C1676 H1663 0.960 . S
C1676 C1675 1.524 . S
C1677 C1674 1.403 . S
C1677 C1678 1.392 . S
C1677 C1681 1.495 . S
C1678 C1677 1.392 . S
C1678 C1679 1.385 . S
C1678 C1680 1.478 . S
C1679 H1673 0.930 . S
C1679 C1675 1.400 . S
C1679 C1678 1.385 . S
C1680 C1678 1.478 . S
C1680 C1682 1.381 . S
C1680 C1686 1.383 . S
C1681 C1677 1.495 . S
C1681 H1687 0.959 . S
C1681 H1688 0.961 . S
C1681 H1689 0.960 . S
C1682 C1680 1.381 . S
C1682 C1683 1.394 . S
C1682 H1690 0.930 . S
C1683 C1682 1.394 . S
C1683 C1684 1.383 . S
C1683 H1691 0.929 . S
C1684 C1683 1.383 . S
C1684 C1685 1.377 . S
C1685 H1669 0.930 . S
C1685 C1684 1.377 . S
C1685 C1686 1.379 . S
C1686 H1670 0.931 . S
C1686 C1680 1.383 . S
C1686 C1685 1.379 . S
H1687 C1681 0.959 . S
H1688 C1681 0.961 . S
H1689 C1681 0.960 . S
H1690 C1682 0.930 . S
H1691 C1683 0.929 . S
H1692 C1700 0.929 . S
H1693 C1702 0.930 . S
H1694 C1704 0.930 . S
H1695 C1707 0.929 . S
H1696 C1710 0.930 . S
H1697 C1712 0.960 . S
H1698 C1712 0.960 . S
H1699 C1712 0.960 . S
C1700 H1692 0.929 . S
C1700 C1701 1.377 . S
C1700 C1702 1.384 . S
C1701 C1700 1.377 . S
C1701 C1707 1.390 . S
C1702 H1693 0.930 . S
C1702 C1700 1.384 . S
C1702 C1703 1.372 . S
C1703 C1702 1.372 . S
C1703 C1704 1.400 . S
C1703 C1708 1.490 . S
C1704 H1694 0.930 . S
C1704 C1703 1.400 . S
C1704 C1707 1.386 . S
H1705 C1721 0.930 . S
H1706 C1722 0.931 . S
C1707 H1695 0.929 . S
C1707 C1701 1.390 . S
C1707 C1704 1.386 . S
C1708 C1703 1.490 . S
C1708 C1710 1.395 . S
C1708 C1711 1.403 . S
H1709 C1715 0.930 . S
C1710 H1696 0.930 . S
C1710 C1708 1.395 . S
C1710 C1713 1.403 . S
C1711 C1708 1.403 . S
C1711 C1712 1.524 . S
C1711 C1715 1.400 . S
C1712 H1697 0.960 . S
C1712 H1698 0.960 . S
C1712 H1699 0.960 . S
C1712 C1711 1.524 . S
C1713 C1710 1.403 . S
C1713 C1714 1.392 . S
C1713 C1717 1.495 . S
C1714 C1713 1.392 . S
C1714 C1715 1.385 . S
C1714 C1716 1.478 . S
C1715 H1709 0.930 . S
C1715 C1711 1.400 . S
C1715 C1714 1.385 . S
C1716 C1714 1.478 . S
C1716 C1718 1.381 . S
C1716 C1722 1.383 . S
C1717 C1713 1.495 . S
C1717 H1723 0.959 . S
C1717 H1724 0.961 . S
C1717 H1725 0.960 . S
C1718 C1716 1.381 . S
C1718 C1719 1.394 . S
C1718 H1726 0.930 . S
C1719 C1718 1.394 . S
C1719 C1720 1.383 . S
C1719 H1727 0.929 . S
C1720 C1719 1.383 . S
C1720 C1721 1.377 . S
C1721 H1705 0.930 . S
C1721 C1720 1.377 . S
C1721 C1722 1.379 . S
C1722 H1706 0.931 . S
C1722 C1716 1.383 . S
C1722 C1721 1.379 . S
H1723 C1717 0.959 . S
H1724 C1717 0.961 . S
H1725 C1717 0.960 . S
H1726 C1718 0.930 . S
H1727 C1719 0.929 . S
H1728 C1736 0.929 . S
H1729 C1738 0.930 . S
H1730 C1740 0.930 . S
H1731 C1743 0.929 . S
H1732 C1746 0.930 . S
H1733 C1748 0.960 . S
H1734 C1748 0.960 . S
H1735 C1748 0.960 . S
C1736 H1728 0.929 . S
C1736 C1737 1.377 . S
C1736 C1738 1.384 . S
C1737 C1736 1.377 . S
C1737 C1743 1.390 . S
C1738 H1729 0.930 . S
C1738 C1736 1.384 . S
C1738 C1739 1.372 . S
C1739 C1738 1.372 . S
C1739 C1740 1.400 . S
C1739 C1744 1.490 . S
C1740 H1730 0.930 . S
C1740 C1739 1.400 . S
C1740 C1743 1.386 . S
H1741 C1757 0.930 . S
H1742 C1758 0.931 . S
C1743 H1731 0.929 . S
C1743 C1737 1.390 . S
C1743 C1740 1.386 . S
C1744 C1739 1.490 . S
C1744 C1746 1.395 . S
C1744 C1747 1.403 . S
H1745 C1751 0.930 . S
C1746 H1732 0.930 . S
C1746 C1744 1.395 . S
C1746 C1749 1.403 . S
C1747 C1744 1.403 . S
C1747 C1748 1.524 . S
C1747 C1751 1.400 . S
C1748 H1733 0.960 . S
C1748 H1734 0.960 . S
C1748 H1735 0.960 . S
C1748 C1747 1.524 . S
C1749 C1746 1.403 . S
C1749 C1750 1.392 . S
C1749 C1753 1.495 . S
C1750 C1749 1.392 . S
C1750 C1751 1.385 . S
C1750 C1752 1.478 . S
C1751 H1745 0.930 . S
C1751 C1747 1.400 . S
C1751 C1750 1.385 . S
C1752 C1750 1.478 . S
C1752 C1754 1.381 . S
C1752 C1758 1.383 . S
C1753 C1749 1.495 . S
C1753 H1759 0.959 . S
C1753 H1760 0.961 . S
C1753 H1761 0.960 . S
C1754 C1752 1.381 . S
C1754 C1755 1.394 . S
C1754 H1762 0.930 . S
C1755 C1754 1.394 . S
C1755 C1756 1.383 . S
C1755 H1763 0.929 . S
C1756 C1755 1.383 . S
C1756 C1757 1.377 . S
C1757 H1741 0.930 . S
C1757 C1756 1.377 . S
C1757 C1758 1.379 . S
C1758 H1742 0.931 . S
C1758 C1752 1.383 . S
C1758 C1757 1.379 . S
H1759 C1753 0.959 . S
H1760 C1753 0.961 . S
H1761 C1753 0.960 . S
H1762 C1754 0.930 . S
H1763 C1755 0.929 . S
H1764 C1772 0.929 . S
H1765 C1774 0.930 . S
H1766 C1776 0.930 . S
H1767 C1779 0.929 . S
H1768 C1782 0.930 . S
H1769 C1784 0.960 . S
H1770 C1784 0.960 . S
H1771 C1784 0.960 . S
C1772 H1764 0.929 . S
C1772 C1773 1.377 . S
C1772 C1774 1.384 . S
C1773 C1772 1.377 . S
C1773 C1779 1.390 . S
C1774 H1765 0.930 . S
C1774 C1772 1.384 . S
C1774 C1775 1.372 . S
C1775 C1774 1.372 . S
C1775 C1776 1.400 . S
C1775 C1780 1.490 . S
C1776 H1766 0.930 . S
C1776 C1775 1.400 . S
C1776 C1779 1.386 . S
H1777 C1793 0.930 . S
H1778 C1794 0.931 . S
C1779 H1767 0.929 . S
C1779 C1773 1.390 . S
C1779 C1776 1.386 . S
C1780 C1775 1.490 . S
C1780 C1782 1.395 . S
C1780 C1783 1.403 . S
H1781 C1787 0.930 . S
C1782 H1768 0.930 . S
C1782 C1780 1.395 . S
C1782 C1785 1.403 . S
C1783 C1780 1.403 . S
C1783 C1784 1.524 . S
C1783 C1787 1.400 . S
C1784 H1769 0.960 . S
C1784 H1770 0.960 . S
C1784 H1771 0.960 . S
C1784 C1783 1.524 . S
C1785 C1782 1.403 . S
C1785 C1786 1.392 . S
C1785 C1789 1.495 . S
C1786 C1785 1.392 . S
C1786 C1787 1.385 . S
C1786 C1788 1.478 . S
C1787 H1781 0.930 . S
C1787 C1783 1.400 . S
C1787 C1786 1.385 . S
C1788 C1786 1.478 . S
C1788 C1790 1.381 . S
C1788 C1794 1.383 . S
C1789 C1785 1.495 . S
C1789 H1795 0.959 . S
C1789 H1796 0.961 . S
C1789 H1797 0.960 . S
C1790 C1788 1.381 . S
C1790 C1791 1.394 . S
C1790 H1798 0.930 . S
C1791 C1790 1.394 . S
C1791 C1792 1.383 . S
C1791 H1799 0.929 . S
C1792 C1791 1.383 . S
C1792 C1793 1.377 . S
C1793 H1777 0.930 . S
C1793 C1792 1.377 . S
C1793 C1794 1.379 . S
C1794 H1778 0.931 . S
C1794 C1788 1.383 . S
C1794 C1793 1.379 . S
H1795 C1789 0.959 . S
H1796 C1789 0.961 . S
H1797 C1789 0.960 . S
H1798 C1790 0.930 . S
H1799 C1791 0.929 . S
H1800 C1808 0.929 . S
H1801 C1810 0.930 . S
H1802 C1812 0.930 . S
H1803 C1815 0.929 . S
H1804 C1818 0.930 . S
H1805 C1820 0.960 . S
H1806 C1820 0.960 . S
H1807 C1820 0.960 . S
C1808 H1800 0.929 . S
C1808 C1809 1.377 . S
C1808 C1810 1.384 . S
C1809 C1808 1.377 . S
C1809 C1815 1.390 . S
C1810 H1801 0.930 . S
C1810 C1808 1.384 . S
C1810 C1811 1.372 . S
C1811 C1810 1.372 . S
C1811 C1812 1.400 . S
C1811 C1816 1.490 . S
C1812 H1802 0.930 . S
C1812 C1811 1.400 . S
C1812 C1815 1.386 . S
H1813 C1829 0.930 . S
H1814 C1830 0.931 . S
C1815 H1803 0.929 . S
C1815 C1809 1.390 . S
C1815 C1812 1.386 . S
C1816 C1811 1.490 . S
C1816 C1818 1.395 . S
C1816 C1819 1.403 . S
H1817 C1823 0.930 . S
C1818 H1804 0.930 . S
C1818 C1816 1.395 . S
C1818 C1821 1.403 . S
C1819 C1816 1.403 . S
C1819 C1820 1.524 . S
C1819 C1823 1.400 . S
C1820 H1805 0.960 . S
C1820 H1806 0.960 . S
C1820 H1807 0.960 . S
C1820 C1819 1.524 . S
C1821 C1818 1.403 . S
C1821 C1822 1.392 . S
C1821 C1825 1.495 . S
C1822 C1821 1.392 . S
C1822 C1823 1.385 . S
C1822 C1824 1.478 . S
C1823 H1817 0.930 . S
C1823 C1819 1.400 . S
C1823 C1822 1.385 . S
C1824 C1822 1.478 . S
C1824 C1826 1.381 . S
C1824 C1830 1.383 . S
C1825 C1821 1.495 . S
C1825 H1831 0.959 . S
C1825 H1832 0.961 . S
C1825 H1833 0.960 . S
C1826 C1824 1.381 . S
C1826 C1827 1.394 . S
C1826 H1834 0.930 . S
C1827 C1826 1.394 . S
C1827 C1828 1.383 . S
C1827 H1835 0.929 . S
C1828 C1827 1.383 . S
C1828 C1829 1.377 . S
C1829 H1813 0.930 . S
C1829 C1828 1.377 . S
C1829 C1830 1.379 . S
C1830 H1814 0.931 . S
C1830 C1824 1.383 . S
C1830 C1829 1.379 . S
H1831 C1825 0.959 . S
H1832 C1825 0.961 . S
H1833 C1825 0.960 . S
H1834 C1826 0.930 . S
H1835 C1827 0.929 . S
H1836 C1844 0.929 . S
H1837 C1846 0.930 . S
H1838 C1848 0.930 . S
H1839 C1851 0.929 . S
H1840 C1854 0.930 . S
H1841 C1856 0.960 . S
H1842 C1856 0.960 . S
H1843 C1856 0.960 . S
C1844 H1836 0.929 . S
C1844 C1845 1.377 . S
C1844 C1846 1.384 . S
C1845 C1844 1.377 . S
C1845 C1851 1.390 . S
C1846 H1837 0.930 . S
C1846 C1844 1.384 . S
C1846 C1847 1.372 . S
C1847 C1846 1.372 . S
C1847 C1848 1.400 . S
C1847 C1852 1.490 . S
C1848 H1838 0.930 . S
C1848 C1847 1.400 . S
C1848 C1851 1.386 . S
H1849 C1865 0.930 . S
H1850 C1866 0.931 . S
C1851 H1839 0.929 . S
C1851 C1845 1.390 . S
C1851 C1848 1.386 . S
C1852 C1847 1.490 . S
C1852 C1854 1.395 . S
C1852 C1855 1.403 . S
H1853 C1859 0.930 . S
C1854 H1840 0.930 . S
C1854 C1852 1.395 . S
C1854 C1857 1.403 1_565 S
C1855 C1852 1.403 . S
C1855 C1856 1.524 . S
C1855 C1859 1.400 1_565 S
C1856 H1841 0.960 . S
C1856 H1842 0.960 . S
C1856 H1843 0.960 . S
C1856 C1855 1.524 . S
C1857 C1854 1.403 1_545 S
C1857 C1858 1.392 . S
C1857 C1861 1.495 . S
C1858 C1857 1.392 . S
C1858 C1859 1.385 . S
C1858 C1860 1.478 . S
C1859 H1853 0.930 . S
C1859 C1855 1.400 1_545 S
C1859 C1858 1.385 . S
C1860 C1858 1.478 . S
C1860 C1862 1.381 . S
C1860 C1866 1.383 . S
C1861 C1857 1.495 . S
C1861 H1867 0.959 . S
C1861 H1868 0.961 . S
C1861 H1869 0.960 . S
C1862 C1860 1.381 . S
C1862 C1863 1.394 . S
C1862 H1870 0.930 . S
C1863 C1862 1.394 . S
C1863 C1864 1.383 . S
C1863 H1871 0.929 . S
C1864 C1863 1.383 . S
C1864 C1865 1.377 . S
C1865 H1849 0.930 . S
C1865 C1864 1.377 . S
C1865 C1866 1.379 . S
C1866 H1850 0.931 . S
C1866 C1860 1.383 . S
C1866 C1865 1.379 . S
H1867 C1861 0.959 . S
H1868 C1861 0.961 . S
H1869 C1861 0.960 . S
H1870 C1862 0.930 . S
H1871 C1863 0.929 . S
H1872 C1880 0.929 . S
H1873 C1882 0.930 . S
H1874 C1884 0.930 . S
H1875 C1887 0.929 . S
H1876 C1890 0.930 . S
H1877 C1892 0.960 . S
H1878 C1892 0.960 . S
H1879 C1892 0.960 . S
C1880 H1872 0.929 . S
C1880 C1881 1.377 . S
C1880 C1882 1.384 . S
C1881 C1880 1.377 . S
C1881 C1887 1.390 . S
C1882 H1873 0.930 . S
C1882 C1880 1.384 . S
C1882 C1883 1.372 . S
C1883 C1882 1.372 . S
C1883 C1884 1.400 . S
C1883 C1888 1.490 . S
C1884 H1874 0.930 . S
C1884 C1883 1.400 . S
C1884 C1887 1.386 . S
H1885 C1901 0.930 . S
H1886 C1902 0.931 . S
C1887 H1875 0.929 . S
C1887 C1881 1.390 . S
C1887 C1884 1.386 . S
C1888 C1883 1.490 . S
C1888 C1890 1.395 . S
C1888 C1891 1.403 . S
H1889 C1895 0.930 . S
C1890 H1876 0.930 . S
C1890 C1888 1.395 . S
C1890 C1893 1.403 1_655 S
C1891 C1888 1.403 . S
C1891 C1892 1.524 . S
C1891 C1895 1.400 1_655 S
C1892 H1877 0.960 . S
C1892 H1878 0.960 . S
C1892 H1879 0.960 . S
C1892 C1891 1.524 . S
C1893 C1890 1.403 1_455 S
C1893 C1894 1.392 . S
C1893 C1897 1.495 . S
C1894 C1893 1.392 . S
C1894 C1895 1.385 . S
C1894 C1896 1.478 . S
C1895 H1889 0.930 . S
C1895 C1891 1.400 1_455 S
C1895 C1894 1.385 . S
C1896 C1894 1.478 . S
C1896 C1898 1.381 . S
C1896 C1902 1.383 . S
C1897 C1893 1.495 . S
C1897 H1903 0.959 . S
C1897 H1904 0.961 . S
C1897 H1905 0.960 . S
C1898 C1896 1.381 . S
C1898 C1899 1.394 . S
C1898 H1906 0.930 . S
C1899 C1898 1.394 . S
C1899 C1900 1.383 . S
C1899 H1907 0.929 . S
C1900 C1899 1.383 . S
C1900 C1901 1.377 . S
C1901 H1885 0.930 . S
C1901 C1900 1.377 . S
C1901 C1902 1.379 . S
C1902 H1886 0.931 . S
C1902 C1896 1.383 . S
C1902 C1901 1.379 . S
H1903 C1897 0.959 . S
H1904 C1897 0.961 . S
H1905 C1897 0.960 . S
H1906 C1898 0.930 . S
H1907 C1899 0.929 . S
H1908 C1916 0.929 . S
H1909 C1918 0.930 . S
H1910 C1920 0.930 . S
H1911 C1923 0.929 . S
H1912 C1926 0.930 . S
H1913 C1928 0.960 . S
H1914 C1928 0.960 . S
H1915 C1928 0.960 . S
C1916 H1908 0.929 . S
C1916 C1917 1.377 . S
C1916 C1918 1.384 . S
C1917 C1916 1.377 . S
C1917 C1923 1.390 . S
C1918 H1909 0.930 . S
C1918 C1916 1.384 . S
C1918 C1919 1.372 . S
C1919 C1918 1.372 . S
C1919 C1920 1.400 . S
C1919 C1924 1.490 . S
C1920 H1910 0.930 . S
C1920 C1919 1.400 . S
C1920 C1923 1.386 . S
H1921 C1937 0.930 . S
H1922 C1938 0.931 . S
C1923 H1911 0.929 . S
C1923 C1917 1.390 . S
C1923 C1920 1.386 . S
C1924 C1919 1.490 . S
C1924 C1926 1.395 . S
C1924 C1927 1.403 . S
H1925 C1931 0.930 . S
C1926 H1912 0.930 . S
C1926 C1924 1.395 . S
C1926 C1929 1.403 . S
C1927 C1924 1.403 . S
C1927 C1928 1.524 . S
C1927 C1931 1.400 . S
C1928 H1913 0.960 . S
C1928 H1914 0.960 . S
C1928 H1915 0.960 . S
C1928 C1927 1.524 . S
C1929 C1926 1.403 . S
C1929 C1930 1.392 . S
C1929 C1933 1.495 . S
C1930 C1929 1.392 . S
C1930 C1931 1.385 . S
C1930 C1932 1.478 . S
C1931 H1925 0.930 . S
C1931 C1927 1.400 . S
C1931 C1930 1.385 . S
C1932 C1930 1.478 . S
C1932 C1934 1.381 . S
C1932 C1938 1.383 . S
C1933 C1929 1.495 . S
C1933 H1939 0.959 . S
C1933 H1940 0.961 . S
C1933 H1941 0.960 . S
C1934 C1932 1.381 . S
C1934 C1935 1.394 . S
C1934 H1942 0.930 . S
C1935 C1934 1.394 . S
C1935 C1936 1.383 . S
C1935 H1943 0.929 . S
C1936 C1935 1.383 . S
C1936 C1937 1.377 . S
C1937 H1921 0.930 . S
C1937 C1936 1.377 . S
C1937 C1938 1.379 . S
C1938 H1922 0.931 . S
C1938 C1932 1.383 . S
C1938 C1937 1.379 . S
H1939 C1933 0.959 . S
H1940 C1933 0.961 . S
H1941 C1933 0.960 . S
H1942 C1934 0.930 . S
H1943 C1935 0.929 . S
H1944 C1952 0.929 . S
H1945 C1954 0.930 . S
H1946 C1956 0.930 . S
H1947 C1959 0.929 . S
H1948 C1962 0.930 . S
H1949 C1964 0.960 . S
H1950 C1964 0.960 . S
H1951 C1964 0.960 . S
C1952 H1944 0.929 . S
C1952 C1953 1.377 . S
C1952 C1954 1.384 . S
C1953 C1952 1.377 . S
C1953 C1959 1.390 . S
C1954 H1945 0.930 . S
C1954 C1952 1.384 . S
C1954 C1955 1.372 . S
C1955 C1954 1.372 . S
C1955 C1956 1.400 . S
C1955 C1960 1.490 . S
C1956 H1946 0.930 . S
C1956 C1955 1.400 . S
C1956 C1959 1.386 . S
H1957 C1973 0.930 . S
H1958 C1974 0.931 . S
C1959 H1947 0.929 . S
C1959 C1953 1.390 . S
C1959 C1956 1.386 . S
C1960 C1955 1.490 . S
C1960 C1962 1.395 . S
C1960 C1963 1.403 . S
H1961 C1967 0.930 . S
C1962 H1948 0.930 . S
C1962 C1960 1.395 . S
C1962 C1965 1.403 1_545 S
C1963 C1960 1.403 . S
C1963 C1964 1.524 . S
C1963 C1967 1.400 1_545 S
C1964 H1949 0.960 . S
C1964 H1950 0.960 . S
C1964 H1951 0.960 . S
C1964 C1963 1.524 . S
C1965 C1962 1.403 1_565 S
C1965 C1966 1.392 . S
C1965 C1969 1.495 . S
C1966 C1965 1.392 . S
C1966 C1967 1.385 . S
C1966 C1968 1.478 . S
C1967 H1961 0.930 . S
C1967 C1963 1.400 1_565 S
C1967 C1966 1.385 . S
C1968 C1966 1.478 . S
C1968 C1970 1.381 . S
C1968 C1974 1.383 . S
C1969 C1965 1.495 . S
C1969 H1975 0.959 . S
C1969 H1976 0.961 . S
C1969 H1977 0.960 . S
C1970 C1968 1.381 . S
C1970 C1971 1.394 . S
C1970 H1978 0.930 . S
C1971 C1970 1.394 . S
C1971 C1972 1.383 . S
C1971 H1979 0.929 . S
C1972 C1971 1.383 . S
C1972 C1973 1.377 . S
C1973 H1957 0.930 . S
C1973 C1972 1.377 . S
C1973 C1974 1.379 . S
C1974 H1958 0.931 . S
C1974 C1968 1.383 . S
C1974 C1973 1.379 . S
H1975 C1969 0.959 . S
H1976 C1969 0.961 . S
H1977 C1969 0.960 . S
H1978 C1970 0.930 . S
H1979 C1971 0.929 . S
H1980 C1988 0.929 . S
H1981 C1990 0.930 . S
H1982 C1992 0.930 . S
H1983 C1995 0.929 . S
H1984 C1998 0.930 . S
H1985 C2000 0.960 . S
H1986 C2000 0.960 . S
H1987 C2000 0.960 . S
C1988 H1980 0.929 . S
C1988 C1989 1.377 . S
C1988 C1990 1.384 . S
C1989 C1988 1.377 . S
C1989 C1995 1.390 . S
C1990 H1981 0.930 . S
C1990 C1988 1.384 . S
C1990 C1991 1.372 . S
C1991 C1990 1.372 . S
C1991 C1992 1.400 . S
C1991 C1996 1.490 . S
C1992 H1982 0.930 . S
C1992 C1991 1.400 . S
C1992 C1995 1.386 . S
H1993 C2009 0.930 . S
H1994 C2010 0.931 . S
C1995 H1983 0.929 . S
C1995 C1989 1.390 . S
C1995 C1992 1.386 . S
C1996 C1991 1.490 . S
C1996 C1998 1.395 . S
C1996 C1999 1.403 . S
H1997 C2003 0.930 . S
C1998 H1984 0.930 . S
C1998 C1996 1.395 . S
C1998 C2001 1.403 1_655 S
C1999 C1996 1.403 . S
C1999 C2000 1.524 . S
C1999 C2003 1.400 1_655 S
C2000 H1985 0.960 . S
C2000 H1986 0.960 . S
C2000 H1987 0.960 . S
C2000 C1999 1.524 . S
C2001 C1998 1.403 1_455 S
C2001 C2002 1.392 . S
C2001 C2005 1.495 . S
C2002 C2001 1.392 . S
C2002 C2003 1.385 . S
C2002 C2004 1.478 . S
C2003 H1997 0.930 . S
C2003 C1999 1.400 1_455 S
C2003 C2002 1.385 . S
C2004 C2002 1.478 . S
C2004 C2006 1.381 . S
C2004 C2010 1.383 . S
C2005 C2001 1.495 . S
C2005 H2011 0.959 . S
C2005 H2012 0.961 . S
C2005 H2013 0.960 . S
C2006 C2004 1.381 . S
C2006 C2007 1.394 . S
C2006 H2014 0.930 . S
C2007 C2006 1.394 . S
C2007 C2008 1.383 . S
C2007 H2015 0.929 . S
C2008 C2007 1.383 . S
C2008 C2009 1.377 . S
C2009 H1993 0.930 . S
C2009 C2008 1.377 . S
C2009 C2010 1.379 . S
C2010 H1994 0.931 . S
C2010 C2004 1.383 . S
C2010 C2009 1.379 . S
H2011 C2005 0.959 . S
H2012 C2005 0.961 . S
H2013 C2005 0.960 . S
H2014 C2006 0.930 . S
H2015 C2007 0.929 . S
H2016 C2024 0.929 . S
H2017 C2026 0.930 . S
H2018 C2028 0.930 . S
H2019 C2031 0.929 . S
H2020 C2034 0.930 . S
H2021 C2036 0.960 . S
H2022 C2036 0.960 . S
H2023 C2036 0.960 . S
C2024 H2016 0.929 . S
C2024 C2025 1.377 . S
C2024 C2026 1.384 . S
C2025 C2024 1.377 . S
C2025 C2031 1.390 . S
C2026 H2017 0.930 . S
C2026 C2024 1.384 . S
C2026 C2027 1.372 . S
C2027 C2026 1.372 . S
C2027 C2028 1.400 . S
C2027 C2032 1.490 . S
C2028 H2018 0.930 . S
C2028 C2027 1.400 . S
C2028 C2031 1.386 . S
H2029 C2045 0.930 . S
H2030 C2046 0.931 . S
C2031 H2019 0.929 . S
C2031 C2025 1.390 . S
C2031 C2028 1.386 . S
C2032 C2027 1.490 . S
C2032 C2034 1.395 . S
C2032 C2035 1.403 . S
H2033 C2039 0.930 . S
C2034 H2020 0.930 . S
C2034 C2032 1.395 . S
C2034 C2037 1.403 . S
C2035 C2032 1.403 . S
C2035 C2036 1.524 . S
C2035 C2039 1.400 . S
C2036 H2021 0.960 . S
C2036 H2022 0.960 . S
C2036 H2023 0.960 . S
C2036 C2035 1.524 . S
C2037 C2034 1.403 . S
C2037 C2038 1.392 . S
C2037 C2041 1.495 . S
C2038 C2037 1.392 . S
C2038 C2039 1.385 . S
C2038 C2040 1.478 . S
C2039 H2033 0.930 . S
C2039 C2035 1.400 . S
C2039 C2038 1.385 . S
C2040 C2038 1.478 . S
C2040 C2042 1.381 . S
C2040 C2046 1.383 . S
C2041 C2037 1.495 . S
C2041 H2047 0.959 . S
C2041 H2048 0.961 . S
C2041 H2049 0.960 . S
C2042 C2040 1.381 . S
C2042 C2043 1.394 . S
C2042 H2050 0.930 . S
C2043 C2042 1.394 . S
C2043 C2044 1.383 . S
C2043 H2051 0.929 . S
C2044 C2043 1.383 . S
C2044 C2045 1.377 . S
C2045 H2029 0.930 . S
C2045 C2044 1.377 . S
C2045 C2046 1.379 . S
C2046 H2030 0.931 . S
C2046 C2040 1.383 . S
C2046 C2045 1.379 . S
H2047 C2041 0.959 . S
H2048 C2041 0.961 . S
H2049 C2041 0.960 . S
H2050 C2042 0.930 . S
H2051 C2043 0.929 . S
H2052 C2060 0.929 . S
H2053 C2062 0.930 . S
H2054 C2064 0.930 . S
H2055 C2067 0.929 . S
H2056 C2070 0.930 . S
H2057 C2072 0.960 . S
H2058 C2072 0.960 . S
H2059 C2072 0.960 . S
C2060 H2052 0.929 . S
C2060 C2061 1.377 . S
C2060 C2062 1.384 . S
C2061 C2060 1.377 . S
C2061 C2067 1.390 . S
C2062 H2053 0.930 . S
C2062 C2060 1.384 . S
C2062 C2063 1.372 . S
C2063 C2062 1.372 . S
C2063 C2064 1.400 . S
C2063 C2068 1.490 . S
C2064 H2054 0.930 . S
C2064 C2063 1.400 . S
C2064 C2067 1.386 . S
H2065 C2081 0.930 . S
H2066 C2082 0.931 . S
C2067 H2055 0.929 . S
C2067 C2061 1.390 . S
C2067 C2064 1.386 . S
C2068 C2063 1.490 . S
C2068 C2070 1.395 . S
C2068 C2071 1.403 . S
H2069 C2075 0.930 . S
C2070 H2056 0.930 . S
C2070 C2068 1.395 . S
C2070 C2073 1.403 . S
C2071 C2068 1.403 . S
C2071 C2072 1.524 . S
C2071 C2075 1.400 . S
C2072 H2057 0.960 . S
C2072 H2058 0.960 . S
C2072 H2059 0.960 . S
C2072 C2071 1.524 . S
C2073 C2070 1.403 . S
C2073 C2074 1.392 . S
C2073 C2077 1.495 . S
C2074 C2073 1.392 . S
C2074 C2075 1.385 . S
C2074 C2076 1.478 . S
C2075 H2069 0.930 . S
C2075 C2071 1.400 . S
C2075 C2074 1.385 . S
C2076 C2074 1.478 . S
C2076 C2078 1.381 . S
C2076 C2082 1.383 . S
C2077 C2073 1.495 . S
C2077 H2083 0.959 . S
C2077 H2084 0.961 . S
C2077 H2085 0.960 . S
C2078 C2076 1.381 . S
C2078 C2079 1.394 . S
C2078 H2086 0.930 . S
C2079 C2078 1.394 . S
C2079 C2080 1.383 . S
C2079 H2087 0.929 . S
C2080 C2079 1.383 . S
C2080 C2081 1.377 . S
C2081 H2065 0.930 . S
C2081 C2080 1.377 . S
C2081 C2082 1.379 . S
C2082 H2066 0.931 . S
C2082 C2076 1.383 . S
C2082 C2081 1.379 . S
H2083 C2077 0.959 . S
H2084 C2077 0.961 . S
H2085 C2077 0.960 . S
H2086 C2078 0.930 . S
H2087 C2079 0.929 . S
H2088 C2096 0.929 . S
H2089 C2098 0.930 . S
H2090 C2100 0.930 . S
H2091 C2103 0.929 . S
H2092 C2106 0.930 . S
H2093 C2108 0.960 . S
H2094 C2108 0.960 . S
H2095 C2108 0.960 . S
C2096 H2088 0.929 . S
C2096 C2097 1.377 . S
C2096 C2098 1.384 . S
C2097 C2096 1.377 . S
C2097 C2103 1.390 . S
C2098 H2089 0.930 . S
C2098 C2096 1.384 . S
C2098 C2099 1.372 . S
C2099 C2098 1.372 . S
C2099 C2100 1.400 . S
C2099 C2104 1.490 . S
C2100 H2090 0.930 . S
C2100 C2099 1.400 . S
C2100 C2103 1.386 . S
H2101 C2117 0.930 . S
H2102 C2118 0.931 . S
C2103 H2091 0.929 . S
C2103 C2097 1.390 . S
C2103 C2100 1.386 . S
C2104 C2099 1.490 . S
C2104 C2106 1.395 . S
C2104 C2107 1.403 . S
H2105 C2111 0.930 . S
C2106 H2092 0.930 . S
C2106 C2104 1.395 . S
C2106 C2109 1.403 . S
C2107 C2104 1.403 . S
C2107 C2108 1.524 . S
C2107 C2111 1.400 . S
C2108 H2093 0.960 . S
C2108 H2094 0.960 . S
C2108 H2095 0.960 . S
C2108 C2107 1.524 . S
C2109 C2106 1.403 . S
C2109 C2110 1.392 . S
C2109 C2113 1.495 . S
C2110 C2109 1.392 . S
C2110 C2111 1.385 . S
C2110 C2112 1.478 . S
C2111 H2105 0.930 . S
C2111 C2107 1.400 . S
C2111 C2110 1.385 . S
C2112 C2110 1.478 . S
C2112 C2114 1.381 . S
C2112 C2118 1.383 . S
C2113 C2109 1.495 . S
C2113 H2119 0.959 . S
C2113 H2120 0.961 . S
C2113 H2121 0.960 . S
C2114 C2112 1.381 . S
C2114 C2115 1.394 . S
C2114 H2122 0.930 . S
C2115 C2114 1.394 . S
C2115 C2116 1.383 . S
C2115 H2123 0.929 . S
C2116 C2115 1.383 . S
C2116 C2117 1.377 . S
C2117 H2101 0.930 . S
C2117 C2116 1.377 . S
C2117 C2118 1.379 . S
C2118 H2102 0.931 . S
C2118 C2112 1.383 . S
C2118 C2117 1.379 . S
H2119 C2113 0.959 . S
H2120 C2113 0.961 . S
H2121 C2113 0.960 . S
H2122 C2114 0.930 . S
H2123 C2115 0.929 . S
H2124 C2132 0.929 . S
H2125 C2134 0.930 . S
H2126 C2136 0.930 . S
H2127 C2139 0.929 . S
H2128 C2142 0.930 . S
H2129 C2144 0.960 . S
H2130 C2144 0.960 . S
H2131 C2144 0.960 . S
C2132 H2124 0.929 . S
C2132 C2133 1.377 . S
C2132 C2134 1.384 . S
C2133 C2132 1.377 . S
C2133 C2139 1.390 . S
C2134 H2125 0.930 . S
C2134 C2132 1.384 . S
C2134 C2135 1.372 . S
C2135 C2134 1.372 . S
C2135 C2136 1.400 . S
C2135 C2140 1.490 . S
C2136 H2126 0.930 . S
C2136 C2135 1.400 . S
C2136 C2139 1.386 . S
H2137 C2153 0.930 . S
H2138 C2154 0.931 . S
C2139 H2127 0.929 . S
C2139 C2133 1.390 . S
C2139 C2136 1.386 . S
C2140 C2135 1.490 . S
C2140 C2142 1.395 . S
C2140 C2143 1.403 . S
H2141 C2147 0.930 . S
C2142 H2128 0.930 . S
C2142 C2140 1.395 . S
C2142 C2145 1.403 . S
C2143 C2140 1.403 . S
C2143 C2144 1.524 . S
C2143 C2147 1.400 . S
C2144 H2129 0.960 . S
C2144 H2130 0.960 . S
C2144 H2131 0.960 . S
C2144 C2143 1.524 . S
C2145 C2142 1.403 . S
C2145 C2146 1.392 . S
C2145 C2149 1.495 . S
C2146 C2145 1.392 . S
C2146 C2147 1.385 . S
C2146 C2148 1.478 . S
C2147 H2141 0.930 . S
C2147 C2143 1.400 . S
C2147 C2146 1.385 . S
C2148 C2146 1.478 . S
C2148 C2150 1.381 . S
C2148 C2154 1.383 . S
C2149 C2145 1.495 . S
C2149 H2155 0.959 . S
C2149 H2156 0.961 . S
C2149 H2157 0.960 . S
C2150 C2148 1.381 . S
C2150 C2151 1.394 . S
C2150 H2158 0.930 . S
C2151 C2150 1.394 . S
C2151 C2152 1.383 . S
C2151 H2159 0.929 . S
C2152 C2151 1.383 . S
C2152 C2153 1.377 . S
C2153 H2137 0.930 . S
C2153 C2152 1.377 . S
C2153 C2154 1.379 . S
C2154 H2138 0.931 . S
C2154 C2148 1.383 . S
C2154 C2153 1.379 . S
H2155 C2149 0.959 . S
H2156 C2149 0.961 . S
H2157 C2149 0.960 . S
H2158 C2150 0.930 . S
H2159 C2151 0.929 . S
H2160 C2168 0.929 . S
H2161 C2170 0.930 . S
H2162 C2172 0.930 . S
H2163 C2175 0.929 . S
H2164 C2178 0.930 . S
H2165 C2180 0.960 . S
H2166 C2180 0.960 . S
H2167 C2180 0.960 . S
C2168 H2160 0.929 . S
C2168 C2169 1.377 . S
C2168 C2170 1.384 . S
C2169 C2168 1.377 . S
C2169 C2175 1.390 . S
C2170 H2161 0.930 . S
C2170 C2168 1.384 . S
C2170 C2171 1.372 . S
C2171 C2170 1.372 . S
C2171 C2172 1.400 . S
C2171 C2176 1.490 . S
C2172 H2162 0.930 . S
C2172 C2171 1.400 . S
C2172 C2175 1.386 . S
H2173 C2189 0.930 . S
H2174 C2190 0.931 . S
C2175 H2163 0.929 . S
C2175 C2169 1.390 . S
C2175 C2172 1.386 . S
C2176 C2171 1.490 . S
C2176 C2178 1.395 . S
C2176 C2179 1.403 . S
H2177 C2183 0.930 . S
C2178 H2164 0.930 . S
C2178 C2176 1.395 . S
C2178 C2181 1.403 . S
C2179 C2176 1.403 . S
C2179 C2180 1.524 . S
C2179 C2183 1.400 . S
C2180 H2165 0.960 . S
C2180 H2166 0.960 . S
C2180 H2167 0.960 . S
C2180 C2179 1.524 . S
C2181 C2178 1.403 . S
C2181 C2182 1.392 . S
C2181 C2185 1.495 . S
C2182 C2181 1.392 . S
C2182 C2183 1.385 . S
C2182 C2184 1.478 . S
C2183 H2177 0.930 . S
C2183 C2179 1.400 . S
C2183 C2182 1.385 . S
C2184 C2182 1.478 . S
C2184 C2186 1.381 . S
C2184 C2190 1.383 . S
C2185 C2181 1.495 . S
C2185 H2191 0.959 1_554 S
C2185 H2192 0.961 . S
C2185 H2193 0.960 . S
C2186 C2184 1.381 . S
C2186 C2187 1.394 . S
C2186 H2194 0.930 . S
C2187 C2186 1.394 . S
C2187 C2188 1.383 . S
C2187 H2195 0.929 . S
C2188 C2187 1.383 . S
C2188 C2189 1.377 . S
C2189 H2173 0.930 . S
C2189 C2188 1.377 . S
C2189 C2190 1.379 . S
C2190 H2174 0.931 . S
C2190 C2184 1.383 . S
C2190 C2189 1.379 . S
H2191 C2185 0.959 1_556 S
H2192 C2185 0.961 . S
H2193 C2185 0.960 . S
H2194 C2186 0.930 . S
H2195 C2187 0.929 . S
H2196 C2204 0.929 . S
H2197 C2206 0.930 . S
H2198 C2208 0.930 . S
H2199 C2211 0.929 . S
H2200 C2214 0.930 . S
H2201 C2216 0.960 . S
H2202 C2216 0.960 . S
H2203 C2216 0.960 . S
C2204 H2196 0.929 . S
C2204 C2205 1.377 . S
C2204 C2206 1.384 . S
C2205 C2204 1.377 . S
C2205 C2211 1.390 . S
C2206 H2197 0.930 . S
C2206 C2204 1.384 . S
C2206 C2207 1.372 . S
C2207 C2206 1.372 . S
C2207 C2208 1.400 . S
C2207 C2212 1.490 . S
C2208 H2198 0.930 . S
C2208 C2207 1.400 . S
C2208 C2211 1.386 . S
H2209 C2225 0.930 . S
H2210 C2226 0.931 . S
C2211 H2199 0.929 . S
C2211 C2205 1.390 . S
C2211 C2208 1.386 . S
C2212 C2207 1.490 . S
C2212 C2214 1.395 . S
C2212 C2215 1.403 . S
H2213 C2219 0.930 . S
C2214 H2200 0.930 . S
C2214 C2212 1.395 . S
C2214 C2217 1.403 . S
C2215 C2212 1.403 . S
C2215 C2216 1.524 . S
C2215 C2219 1.400 . S
C2216 H2201 0.960 . S
C2216 H2202 0.960 . S
C2216 H2203 0.960 . S
C2216 C2215 1.524 . S
C2217 C2214 1.403 . S
C2217 C2218 1.392 . S
C2217 C2221 1.495 . S
C2218 C2217 1.392 . S
C2218 C2219 1.385 . S
C2218 C2220 1.478 . S
C2219 H2213 0.930 . S
C2219 C2215 1.400 . S
C2219 C2218 1.385 . S
C2220 C2218 1.478 . S
C2220 C2222 1.381 . S
C2220 C2226 1.383 . S
C2221 C2217 1.495 . S
C2221 H2227 0.959 . S
C2221 H2228 0.961 . S
C2221 H2229 0.960 . S
C2222 C2220 1.381 . S
C2222 C2223 1.394 . S
C2222 H2230 0.930 . S
C2223 C2222 1.394 . S
C2223 C2224 1.383 . S
C2223 H2231 0.929 . S
C2224 C2223 1.383 . S
C2224 C2225 1.377 . S
C2225 H2209 0.930 . S
C2225 C2224 1.377 . S
C2225 C2226 1.379 . S
C2226 H2210 0.931 . S
C2226 C2220 1.383 . S
C2226 C2225 1.379 . S
H2227 C2221 0.959 . S
H2228 C2221 0.961 . S
H2229 C2221 0.960 . S
H2230 C2222 0.930 . S
H2231 C2223 0.929 . S
H2232 C2240 0.929 . S
H2233 C2242 0.930 . S
H2234 C2244 0.930 . S
H2235 C2247 0.929 . S
H2236 C2250 0.930 . S
H2237 C2252 0.960 . S
H2238 C2252 0.960 . S
H2239 C2252 0.960 . S
C2240 H2232 0.929 . S
C2240 C2241 1.377 . S
C2240 C2242 1.384 . S
C2241 C2240 1.377 . S
C2241 C2247 1.390 . S
C2242 H2233 0.930 . S
C2242 C2240 1.384 . S
C2242 C2243 1.372 . S
C2243 C2242 1.372 . S
C2243 C2244 1.400 . S
C2243 C2248 1.490 . S
C2244 H2234 0.930 . S
C2244 C2243 1.400 . S
C2244 C2247 1.386 . S
H2245 C2261 0.930 . S
H2246 C2262 0.931 . S
C2247 H2235 0.929 . S
C2247 C2241 1.390 . S
C2247 C2244 1.386 . S
C2248 C2243 1.490 . S
C2248 C2250 1.395 . S
C2248 C2251 1.403 . S
H2249 C2255 0.930 . S
C2250 H2236 0.930 . S
C2250 C2248 1.395 . S
C2250 C2253 1.403 . S
C2251 C2248 1.403 . S
C2251 C2252 1.524 . S
C2251 C2255 1.400 . S
C2252 H2237 0.960 . S
C2252 H2238 0.960 . S
C2252 H2239 0.960 . S
C2252 C2251 1.524 . S
C2253 C2250 1.403 . S
C2253 C2254 1.392 . S
C2253 C2257 1.495 . S
C2254 C2253 1.392 . S
C2254 C2255 1.385 . S
C2254 C2256 1.478 . S
C2255 H2249 0.930 . S
C2255 C2251 1.400 . S
C2255 C2254 1.385 . S
C2256 C2254 1.478 . S
C2256 C2258 1.381 . S
C2256 C2262 1.383 . S
C2257 C2253 1.495 . S
C2257 H2263 0.959 1_556 S
C2257 H2264 0.961 . S
C2257 H2265 0.960 . S
C2258 C2256 1.381 . S
C2258 C2259 1.394 . S
C2258 H2266 0.930 . S
C2259 C2258 1.394 . S
C2259 C2260 1.383 . S
C2259 H2267 0.929 . S
C2260 C2259 1.383 . S
C2260 C2261 1.377 . S
C2261 H2245 0.930 . S
C2261 C2260 1.377 . S
C2261 C2262 1.379 . S
C2262 H2246 0.931 . S
C2262 C2256 1.383 . S
C2262 C2261 1.379 . S
H2263 C2257 0.959 1_554 S
H2264 C2257 0.961 . S
H2265 C2257 0.960 . S
H2266 C2258 0.930 . S
H2267 C2259 0.929 . S
H2268 C2276 0.929 . S
H2269 C2278 0.930 . S
H2270 C2280 0.930 . S
H2271 C2283 0.929 . S
H2272 C2286 0.930 . S
H2273 C2288 0.960 . S
H2274 C2288 0.960 . S
H2275 C2288 0.960 . S
C2276 H2268 0.929 . S
C2276 C2277 1.377 . S
C2276 C2278 1.384 . S
C2277 C2276 1.377 . S
C2277 C2283 1.390 . S
C2278 H2269 0.930 . S
C2278 C2276 1.384 . S
C2278 C2279 1.372 . S
C2279 C2278 1.372 . S
C2279 C2280 1.400 . S
C2279 C2284 1.490 . S
C2280 H2270 0.930 . S
C2280 C2279 1.400 . S
C2280 C2283 1.386 . S
H2281 C2297 0.930 . S
H2282 C2298 0.931 . S
C2283 H2271 0.929 . S
C2283 C2277 1.390 . S
C2283 C2280 1.386 . S
C2284 C2279 1.490 . S
C2284 C2286 1.395 . S
C2284 C2287 1.403 . S
H2285 C2291 0.930 . S
C2286 H2272 0.930 . S
C2286 C2284 1.395 . S
C2286 C2289 1.403 . S
C2287 C2284 1.403 . S
C2287 C2288 1.524 . S
C2287 C2291 1.400 . S
C2288 H2273 0.960 . S
C2288 H2274 0.960 . S
C2288 H2275 0.960 . S
C2288 C2287 1.524 . S
C2289 C2286 1.403 . S
C2289 C2290 1.392 . S
C2289 C2293 1.495 . S
C2290 C2289 1.392 . S
C2290 C2291 1.385 . S
C2290 C2292 1.478 . S
C2291 H2285 0.930 . S
C2291 C2287 1.400 . S
C2291 C2290 1.385 . S
C2292 C2290 1.478 . S
C2292 C2294 1.381 . S
C2292 C2298 1.383 . S
C2293 C2289 1.495 . S
C2293 H2299 0.959 . S
C2293 H2300 0.961 . S
C2293 H2301 0.960 . S
C2294 C2292 1.381 . S
C2294 C2295 1.394 . S
C2294 H2302 0.930 . S
C2295 C2294 1.394 . S
C2295 C2296 1.383 . S
C2295 H2303 0.929 . S
C2296 C2295 1.383 . S
C2296 C2297 1.377 . S
C2297 H2281 0.930 . S
C2297 C2296 1.377 . S
C2297 C2298 1.379 . S
C2298 H2282 0.931 . S
C2298 C2292 1.383 . S
C2298 C2297 1.379 . S
H2299 C2293 0.959 . S
H2300 C2293 0.961 . S
H2301 C2293 0.960 . S
H2302 C2294 0.930 . S
H2303 C2295 0.929 . S
H2304 C2312 0.929 . S
H2305 C2314 0.930 . S
H2306 C2316 0.930 . S
H2307 C2319 0.929 . S
H2308 C2322 0.930 . S
H2309 C2324 0.960 . S
H2310 C2324 0.960 . S
H2311 C2324 0.960 . S
C2312 H2304 0.929 . S
C2312 C2313 1.377 . S
C2312 C2314 1.384 . S
C2313 C2312 1.377 . S
C2313 C2319 1.390 . S
C2314 H2305 0.930 . S
C2314 C2312 1.384 . S
C2314 C2315 1.372 . S
C2315 C2314 1.372 . S
C2315 C2316 1.400 . S
C2315 C2320 1.490 . S
C2316 H2306 0.930 . S
C2316 C2315 1.400 . S
C2316 C2319 1.386 . S
H2317 C2333 0.930 . S
H2318 C2334 0.931 . S
C2319 H2307 0.929 . S
C2319 C2313 1.390 . S
C2319 C2316 1.386 . S
C2320 C2315 1.490 . S
C2320 C2322 1.395 . S
C2320 C2323 1.403 . S
H2321 C2327 0.930 . S
C2322 H2308 0.930 . S
C2322 C2320 1.395 . S
C2322 C2325 1.403 . S
C2323 C2320 1.403 . S
C2323 C2324 1.524 . S
C2323 C2327 1.400 . S
C2324 H2309 0.960 . S
C2324 H2310 0.960 . S
C2324 H2311 0.960 . S
C2324 C2323 1.524 . S
C2325 C2322 1.403 . S
C2325 C2326 1.392 . S
C2325 C2329 1.495 . S
C2326 C2325 1.392 . S
C2326 C2327 1.385 . S
C2326 C2328 1.478 . S
C2327 H2321 0.930 . S
C2327 C2323 1.400 . S
C2327 C2326 1.385 . S
C2328 C2326 1.478 . S
C2328 C2330 1.381 . S
C2328 C2334 1.383 . S
C2329 C2325 1.495 . S
C2329 H2335 0.959 . S
C2329 H2336 0.961 . S
C2329 H2337 0.960 . S
C2330 C2328 1.381 . S
C2330 C2331 1.394 . S
C2330 H2338 0.930 . S
C2331 C2330 1.394 . S
C2331 C2332 1.383 . S
C2331 H2339 0.929 . S
C2332 C2331 1.383 . S
C2332 C2333 1.377 . S
C2333 H2317 0.930 . S
C2333 C2332 1.377 . S
C2333 C2334 1.379 . S
C2334 H2318 0.931 . S
C2334 C2328 1.383 . S
C2334 C2333 1.379 . S
H2335 C2329 0.959 . S
H2336 C2329 0.961 . S
H2337 C2329 0.960 . S
H2338 C2330 0.930 . S
H2339 C2331 0.929 . S
H2340 C2348 0.929 . S
H2341 C2350 0.930 . S
H2342 C2352 0.930 . S
H2343 C2355 0.929 . S
H2344 C2358 0.930 . S
H2345 C2360 0.960 . S
H2346 C2360 0.960 . S
H2347 C2360 0.960 . S
C2348 H2340 0.929 . S
C2348 C2349 1.377 . S
C2348 C2350 1.384 . S
C2349 C2348 1.377 . S
C2349 C2355 1.390 . S
C2350 H2341 0.930 . S
C2350 C2348 1.384 . S
C2350 C2351 1.372 . S
C2351 C2350 1.372 . S
C2351 C2352 1.400 . S
C2351 C2356 1.490 . S
C2352 H2342 0.930 . S
C2352 C2351 1.400 . S
C2352 C2355 1.386 . S
H2353 C2369 0.930 . S
H2354 C2370 0.931 . S
C2355 H2343 0.929 . S
C2355 C2349 1.390 . S
C2355 C2352 1.386 . S
C2356 C2351 1.490 . S
C2356 C2358 1.395 . S
C2356 C2359 1.403 . S
H2357 C2363 0.930 . S
C2358 H2344 0.930 . S
C2358 C2356 1.395 . S
C2358 C2361 1.403 . S
C2359 C2356 1.403 . S
C2359 C2360 1.524 . S
C2359 C2363 1.400 . S
C2360 H2345 0.960 . S
C2360 H2346 0.960 . S
C2360 H2347 0.960 . S
C2360 C2359 1.524 . S
C2361 C2358 1.403 . S
C2361 C2362 1.392 . S
C2361 C2365 1.495 . S
C2362 C2361 1.392 . S
C2362 C2363 1.385 . S
C2362 C2364 1.478 . S
C2363 H2357 0.930 . S
C2363 C2359 1.400 . S
C2363 C2362 1.385 . S
C2364 C2362 1.478 . S
C2364 C2366 1.381 . S
C2364 C2370 1.383 . S
C2365 C2361 1.495 . S
C2365 H2371 0.959 . S
C2365 H2372 0.961 . S
C2365 H2373 0.960 . S
C2366 C2364 1.381 . S
C2366 C2367 1.394 . S
C2366 H2374 0.930 . S
C2367 C2366 1.394 . S
C2367 C2368 1.383 . S
C2367 H2375 0.929 . S
C2368 C2367 1.383 . S
C2368 C2369 1.377 . S
C2369 H2353 0.930 . S
C2369 C2368 1.377 . S
C2369 C2370 1.379 . S
C2370 H2354 0.931 . S
C2370 C2364 1.383 . S
C2370 C2369 1.379 . S
H2371 C2365 0.959 . S
H2372 C2365 0.961 . S
H2373 C2365 0.960 . S
H2374 C2366 0.930 . S
H2375 C2367 0.929 . S
H2376 C2384 0.929 . S
H2377 C2386 0.930 . S
H2378 C2388 0.930 . S
H2379 C2391 0.929 . S
H2380 C2394 0.930 . S
H2381 C2396 0.960 . S
H2382 C2396 0.960 . S
H2383 C2396 0.960 . S
C2384 H2376 0.929 . S
C2384 C2385 1.377 . S
C2384 C2386 1.384 . S
C2385 C2384 1.377 . S
C2385 C2391 1.390 . S
C2386 H2377 0.930 . S
C2386 C2384 1.384 . S
C2386 C2387 1.372 . S
C2387 C2386 1.372 . S
C2387 C2388 1.400 . S
C2387 C2392 1.490 . S
C2388 H2378 0.930 . S
C2388 C2387 1.400 . S
C2388 C2391 1.386 . S
H2389 C2405 0.930 . S
H2390 C2406 0.931 . S
C2391 H2379 0.929 . S
C2391 C2385 1.390 . S
C2391 C2388 1.386 . S
C2392 C2387 1.490 . S
C2392 C2394 1.395 . S
C2392 C2395 1.403 . S
H2393 C2399 0.930 . S
C2394 H2380 0.930 . S
C2394 C2392 1.395 . S
C2394 C2397 1.403 . S
C2395 C2392 1.403 . S
C2395 C2396 1.524 . S
C2395 C2399 1.400 . S
C2396 H2381 0.960 . S
C2396 H2382 0.960 . S
C2396 H2383 0.960 . S
C2396 C2395 1.524 . S
C2397 C2394 1.403 . S
C2397 C2398 1.392 . S
C2397 C2401 1.495 . S
C2398 C2397 1.392 . S
C2398 C2399 1.385 . S
C2398 C2400 1.478 . S
C2399 H2393 0.930 . S
C2399 C2395 1.400 . S
C2399 C2398 1.385 . S
C2400 C2398 1.478 . S
C2400 C2402 1.381 . S
C2400 C2406 1.383 . S
C2401 C2397 1.495 . S
C2401 H2407 0.959 . S
C2401 H2408 0.961 . S
C2401 H2409 0.960 . S
C2402 C2400 1.381 . S
C2402 C2403 1.394 . S
C2402 H2410 0.930 . S
C2403 C2402 1.394 . S
C2403 C2404 1.383 . S
C2403 H2411 0.929 . S
C2404 C2403 1.383 . S
C2404 C2405 1.377 . S
C2405 H2389 0.930 . S
C2405 C2404 1.377 . S
C2405 C2406 1.379 . S
C2406 H2390 0.931 . S
C2406 C2400 1.383 . S
C2406 C2405 1.379 . S
H2407 C2401 0.959 . S
H2408 C2401 0.961 . S
H2409 C2401 0.960 . S
H2410 C2402 0.930 . S
H2411 C2403 0.929 . S
H2412 C2420 0.929 . S
H2413 C2422 0.930 . S
H2414 C2424 0.930 . S
H2415 C2427 0.929 . S
H2416 C2430 0.930 . S
H2417 C2432 0.960 . S
H2418 C2432 0.960 . S
H2419 C2432 0.960 . S
C2420 H2412 0.929 . S
C2420 C2421 1.377 . S
C2420 C2422 1.384 . S
C2421 C2420 1.377 . S
C2421 C2427 1.390 . S
C2422 H2413 0.930 . S
C2422 C2420 1.384 . S
C2422 C2423 1.372 . S
C2423 C2422 1.372 . S
C2423 C2424 1.400 . S
C2423 C2428 1.490 . S
C2424 H2414 0.930 . S
C2424 C2423 1.400 . S
C2424 C2427 1.386 . S
H2425 C2441 0.930 . S
H2426 C2442 0.931 . S
C2427 H2415 0.929 . S
C2427 C2421 1.390 . S
C2427 C2424 1.386 . S
C2428 C2423 1.490 . S
C2428 C2430 1.395 . S
C2428 C2431 1.403 . S
H2429 C2435 0.930 . S
C2430 H2416 0.930 . S
C2430 C2428 1.395 . S
C2430 C2433 1.403 . S
C2431 C2428 1.403 . S
C2431 C2432 1.524 . S
C2431 C2435 1.400 . S
C2432 H2417 0.960 . S
C2432 H2418 0.960 . S
C2432 H2419 0.960 . S
C2432 C2431 1.524 . S
C2433 C2430 1.403 . S
C2433 C2434 1.392 . S
C2433 C2437 1.495 . S
C2434 C2433 1.392 . S
C2434 C2435 1.385 . S
C2434 C2436 1.478 . S
C2435 H2429 0.930 . S
C2435 C2431 1.400 . S
C2435 C2434 1.385 . S
C2436 C2434 1.478 . S
C2436 C2438 1.381 . S
C2436 C2442 1.383 . S
C2437 C2433 1.495 . S
C2437 H2443 0.959 . S
C2437 H2444 0.961 . S
C2437 H2445 0.960 . S
C2438 C2436 1.381 . S
C2438 C2439 1.394 . S
C2438 H2446 0.930 . S
C2439 C2438 1.394 . S
C2439 C2440 1.383 . S
C2439 H2447 0.929 . S
C2440 C2439 1.383 . S
C2440 C2441 1.377 . S
C2441 H2425 0.930 . S
C2441 C2440 1.377 . S
C2441 C2442 1.379 . S
C2442 H2426 0.931 . S
C2442 C2436 1.383 . S
C2442 C2441 1.379 . S
H2443 C2437 0.959 . S
H2444 C2437 0.961 . S
H2445 C2437 0.960 . S
H2446 C2438 0.930 . S
H2447 C2439 0.929 . S
H2448 C2456 0.929 . S
H2449 C2458 0.930 . S
H2450 C2460 0.930 . S
H2451 C2463 0.929 . S
H2452 C2466 0.930 . S
H2453 C2468 0.960 . S
H2454 C2468 0.960 . S
H2455 C2468 0.960 . S
C2456 H2448 0.929 . S
C2456 C2457 1.377 . S
C2456 C2458 1.384 . S
C2457 C2456 1.377 . S
C2457 C2463 1.390 . S
C2458 H2449 0.930 . S
C2458 C2456 1.384 . S
C2458 C2459 1.372 . S
C2459 C2458 1.372 . S
C2459 C2460 1.400 . S
C2459 C2464 1.490 . S
C2460 H2450 0.930 . S
C2460 C2459 1.400 . S
C2460 C2463 1.386 . S
H2461 C2477 0.930 . S
H2462 C2478 0.931 . S
C2463 H2451 0.929 . S
C2463 C2457 1.390 . S
C2463 C2460 1.386 . S
C2464 C2459 1.490 . S
C2464 C2466 1.395 . S
C2464 C2467 1.403 . S
H2465 C2471 0.930 . S
C2466 H2452 0.930 . S
C2466 C2464 1.395 . S
C2466 C2469 1.403 . S
C2467 C2464 1.403 . S
C2467 C2468 1.524 . S
C2467 C2471 1.400 . S
C2468 H2453 0.960 . S
C2468 H2454 0.960 . S
C2468 H2455 0.960 . S
C2468 C2467 1.524 . S
C2469 C2466 1.403 . S
C2469 C2470 1.392 . S
C2469 C2473 1.495 . S
C2470 C2469 1.392 . S
C2470 C2471 1.385 . S
C2470 C2472 1.478 . S
C2471 H2465 0.930 . S
C2471 C2467 1.400 . S
C2471 C2470 1.385 . S
C2472 C2470 1.478 . S
C2472 C2474 1.381 . S
C2472 C2478 1.383 . S
C2473 C2469 1.495 . S
C2473 H2479 0.959 . S
C2473 H2480 0.961 . S
C2473 H2481 0.960 . S
C2474 C2472 1.381 . S
C2474 C2475 1.394 . S
C2474 H2482 0.930 . S
C2475 C2474 1.394 . S
C2475 C2476 1.383 . S
C2475 H2483 0.929 . S
C2476 C2475 1.383 . S
C2476 C2477 1.377 . S
C2477 H2461 0.930 . S
C2477 C2476 1.377 . S
C2477 C2478 1.379 . S
C2478 H2462 0.931 . S
C2478 C2472 1.383 . S
C2478 C2477 1.379 . S
H2479 C2473 0.959 . S
H2480 C2473 0.961 . S
H2481 C2473 0.960 . S
H2482 C2474 0.930 . S
H2483 C2475 0.929 . S
H2484 C2492 0.929 . S
H2485 C2494 0.930 . S
H2486 C2496 0.930 . S
H2487 C2499 0.929 . S
H2488 C2502 0.930 . S
H2489 C2504 0.960 . S
H2490 C2504 0.960 . S
H2491 C2504 0.960 . S
C2492 H2484 0.929 . S
C2492 C2493 1.377 . S
C2492 C2494 1.384 . S
C2493 C2492 1.377 . S
C2493 C2499 1.390 . S
C2494 H2485 0.930 . S
C2494 C2492 1.384 . S
C2494 C2495 1.372 . S
C2495 C2494 1.372 . S
C2495 C2496 1.400 . S
C2495 C2500 1.490 . S
C2496 H2486 0.930 . S
C2496 C2495 1.400 . S
C2496 C2499 1.386 . S
H2497 C2513 0.930 . S
H2498 C2514 0.931 . S
C2499 H2487 0.929 . S
C2499 C2493 1.390 . S
C2499 C2496 1.386 . S
C2500 C2495 1.490 . S
C2500 C2502 1.395 . S
C2500 C2503 1.403 . S
H2501 C2507 0.930 . S
C2502 H2488 0.930 . S
C2502 C2500 1.395 . S
C2502 C2505 1.403 . S
C2503 C2500 1.403 . S
C2503 C2504 1.524 . S
C2503 C2507 1.400 . S
C2504 H2489 0.960 . S
C2504 H2490 0.960 . S
C2504 H2491 0.960 . S
C2504 C2503 1.524 . S
C2505 C2502 1.403 . S
C2505 C2506 1.392 . S
C2505 C2509 1.495 . S
C2506 C2505 1.392 . S
C2506 C2507 1.385 . S
C2506 C2508 1.478 . S
C2507 H2501 0.930 . S
C2507 C2503 1.400 . S
C2507 C2506 1.385 . S
C2508 C2506 1.478 . S
C2508 C2510 1.381 . S
C2508 C2514 1.383 . S
C2509 C2505 1.495 . S
C2509 H2515 0.959 . S
C2509 H2516 0.961 . S
C2509 H2517 0.960 . S
C2510 C2508 1.381 . S
C2510 C2511 1.394 . S
C2510 H2518 0.930 . S
C2511 C2510 1.394 . S
C2511 C2512 1.383 . S
C2511 H2519 0.929 . S
C2512 C2511 1.383 . S
C2512 C2513 1.377 . S
C2513 H2497 0.930 . S
C2513 C2512 1.377 . S
C2513 C2514 1.379 . S
C2514 H2498 0.931 . S
C2514 C2508 1.383 . S
C2514 C2513 1.379 . S
H2515 C2509 0.959 . S
H2516 C2509 0.961 . S
H2517 C2509 0.960 . S
H2518 C2510 0.930 . S
H2519 C2511 0.929 . S
H2520 C2528 0.929 . S
H2521 C2530 0.930 . S
H2522 C2532 0.930 . S
H2523 C2535 0.929 . S
H2524 C2538 0.930 . S
H2525 C2540 0.960 . S
H2526 C2540 0.960 . S
H2527 C2540 0.960 . S
C2528 H2520 0.929 . S
C2528 C2529 1.377 . S
C2528 C2530 1.384 . S
C2529 C2528 1.377 . S
C2529 C2535 1.390 . S
C2530 H2521 0.930 . S
C2530 C2528 1.384 . S
C2530 C2531 1.372 . S
C2531 C2530 1.372 . S
C2531 C2532 1.400 . S
C2531 C2536 1.490 . S
C2532 H2522 0.930 . S
C2532 C2531 1.400 . S
C2532 C2535 1.386 . S
H2533 C2549 0.930 . S
H2534 C2550 0.931 . S
C2535 H2523 0.929 . S
C2535 C2529 1.390 . S
C2535 C2532 1.386 . S
C2536 C2531 1.490 . S
C2536 C2538 1.395 . S
C2536 C2539 1.403 . S
H2537 C2543 0.930 . S
C2538 H2524 0.930 . S
C2538 C2536 1.395 . S
C2538 C2541 1.403 . S
C2539 C2536 1.403 . S
C2539 C2540 1.524 . S
C2539 C2543 1.400 . S
C2540 H2525 0.960 . S
C2540 H2526 0.960 . S
C2540 H2527 0.960 . S
C2540 C2539 1.524 . S
C2541 C2538 1.403 . S
C2541 C2542 1.392 . S
C2541 C2545 1.495 . S
C2542 C2541 1.392 . S
C2542 C2543 1.385 . S
C2542 C2544 1.478 . S
C2543 H2537 0.930 . S
C2543 C2539 1.400 . S
C2543 C2542 1.385 . S
C2544 C2542 1.478 . S
C2544 C2546 1.381 . S
C2544 C2550 1.383 . S
C2545 C2541 1.495 . S
C2545 H2551 0.959 . S
C2545 H2552 0.961 . S
C2545 H2553 0.960 . S
C2546 C2544 1.381 . S
C2546 C2547 1.394 . S
C2546 H2554 0.930 . S
C2547 C2546 1.394 . S
C2547 C2548 1.383 . S
C2547 H2555 0.929 . S
C2548 C2547 1.383 . S
C2548 C2549 1.377 . S
C2549 H2533 0.930 . S
C2549 C2548 1.377 . S
C2549 C2550 1.379 . S
C2550 H2534 0.931 . S
C2550 C2544 1.383 . S
C2550 C2549 1.379 . S
H2551 C2545 0.959 . S
H2552 C2545 0.961 . S
H2553 C2545 0.960 . S
H2554 C2546 0.930 . S
H2555 C2547 0.929 . S
H2556 C2564 0.929 . S
H2557 C2566 0.930 . S
H2558 C2568 0.930 . S
H2559 C2571 0.929 . S
H2560 C2574 0.930 . S
H2561 C2576 0.960 . S
H2562 C2576 0.960 . S
H2563 C2576 0.960 . S
C2564 H2556 0.929 . S
C2564 C2565 1.377 . S
C2564 C2566 1.384 . S
C2565 C2564 1.377 . S
C2565 C2571 1.390 . S
C2566 H2557 0.930 . S
C2566 C2564 1.384 . S
C2566 C2567 1.372 . S
C2567 C2566 1.372 . S
C2567 C2568 1.400 . S
C2567 C2572 1.490 . S
C2568 H2558 0.930 . S
C2568 C2567 1.400 . S
C2568 C2571 1.386 . S
H2569 C2585 0.930 . S
H2570 C2586 0.931 . S
C2571 H2559 0.929 . S
C2571 C2565 1.390 . S
C2571 C2568 1.386 . S
C2572 C2567 1.490 . S
C2572 C2574 1.395 . S
C2572 C2575 1.403 . S
H2573 C2579 0.930 . S
C2574 H2560 0.930 . S
C2574 C2572 1.395 . S
C2574 C2577 1.403 . S
C2575 C2572 1.403 . S
C2575 C2576 1.524 . S
C2575 C2579 1.400 . S
C2576 H2561 0.960 . S
C2576 H2562 0.960 . S
C2576 H2563 0.960 . S
C2576 C2575 1.524 . S
C2577 C2574 1.403 . S
C2577 C2578 1.392 . S
C2577 C2581 1.495 . S
C2578 C2577 1.392 . S
C2578 C2579 1.385 . S
C2578 C2580 1.478 . S
C2579 H2573 0.930 . S
C2579 C2575 1.400 . S
C2579 C2578 1.385 . S
C2580 C2578 1.478 . S
C2580 C2582 1.381 . S
C2580 C2586 1.383 . S
C2581 C2577 1.495 . S
C2581 H2587 0.959 . S
C2581 H2588 0.961 . S
C2581 H2589 0.960 . S
C2582 C2580 1.381 . S
C2582 C2583 1.394 . S
C2582 H2590 0.930 . S
C2583 C2582 1.394 . S
C2583 C2584 1.383 . S
C2583 H2591 0.929 . S
C2584 C2583 1.383 . S
C2584 C2585 1.377 . S
C2585 H2569 0.930 . S
C2585 C2584 1.377 . S
C2585 C2586 1.379 . S
C2586 H2570 0.931 . S
C2586 C2580 1.383 . S
C2586 C2585 1.379 . S
H2587 C2581 0.959 . S
H2588 C2581 0.961 . S
H2589 C2581 0.960 . S
H2590 C2582 0.930 . S
H2591 C2583 0.929 . S
H2592 C2600 0.929 . S
H2593 C2602 0.930 . S
H2594 C2604 0.930 . S
H2595 C2607 0.929 . S
H2596 C2610 0.930 . S
H2597 C2612 0.960 . S
H2598 C2612 0.960 . S
H2599 C2612 0.960 . S
C2600 H2592 0.929 . S
C2600 C2601 1.377 . S
C2600 C2602 1.384 . S
C2601 C2600 1.377 . S
C2601 C2607 1.390 . S
C2602 H2593 0.930 . S
C2602 C2600 1.384 . S
C2602 C2603 1.372 . S
C2603 C2602 1.372 . S
C2603 C2604 1.400 . S
C2603 C2608 1.490 . S
C2604 H2594 0.930 . S
C2604 C2603 1.400 . S
C2604 C2607 1.386 . S
H2605 C2621 0.930 . S
H2606 C2622 0.931 . S
C2607 H2595 0.929 . S
C2607 C2601 1.390 . S
C2607 C2604 1.386 . S
C2608 C2603 1.490 . S
C2608 C2610 1.395 . S
C2608 C2611 1.403 . S
H2609 C2615 0.930 . S
C2610 H2596 0.930 . S
C2610 C2608 1.395 . S
C2610 C2613 1.403 . S
C2611 C2608 1.403 . S
C2611 C2612 1.524 . S
C2611 C2615 1.400 . S
C2612 H2597 0.960 . S
C2612 H2598 0.960 . S
C2612 H2599 0.960 . S
C2612 C2611 1.524 . S
C2613 C2610 1.403 . S
C2613 C2614 1.392 . S
C2613 C2617 1.495 . S
C2614 C2613 1.392 . S
C2614 C2615 1.385 . S
C2614 C2616 1.478 . S
C2615 H2609 0.930 . S
C2615 C2611 1.400 . S
C2615 C2614 1.385 . S
C2616 C2614 1.478 . S
C2616 C2618 1.381 . S
C2616 C2622 1.383 . S
C2617 C2613 1.495 . S
C2617 H2623 0.959 . S
C2617 H2624 0.961 . S
C2617 H2625 0.960 . S
C2618 C2616 1.381 . S
C2618 C2619 1.394 . S
C2618 H2626 0.930 . S
C2619 C2618 1.394 . S
C2619 C2620 1.383 . S
C2619 H2627 0.929 . S
C2620 C2619 1.383 . S
C2620 C2621 1.377 . S
C2621 H2605 0.930 . S
C2621 C2620 1.377 . S
C2621 C2622 1.379 . S
C2622 H2606 0.931 . S
C2622 C2616 1.383 . S
C2622 C2621 1.379 . S
H2623 C2617 0.959 . S
H2624 C2617 0.961 . S
H2625 C2617 0.960 . S
H2626 C2618 0.930 . S
H2627 C2619 0.929 . S
H2628 C2636 0.929 . S
H2629 C2638 0.930 . S
H2630 C2640 0.930 . S
H2631 C2643 0.929 . S
H2632 C2646 0.930 . S
H2633 C2648 0.960 . S
H2634 C2648 0.960 . S
H2635 C2648 0.960 . S
C2636 H2628 0.929 . S
C2636 C2637 1.377 . S
C2636 C2638 1.384 . S
C2637 C2636 1.377 . S
C2637 C2643 1.390 . S
C2638 H2629 0.930 . S
C2638 C2636 1.384 . S
C2638 C2639 1.372 . S
C2639 C2638 1.372 . S
C2639 C2640 1.400 . S
C2639 C2644 1.490 . S
C2640 H2630 0.930 . S
C2640 C2639 1.400 . S
C2640 C2643 1.386 . S
H2641 C2657 0.930 . S
H2642 C2658 0.931 . S
C2643 H2631 0.929 . S
C2643 C2637 1.390 . S
C2643 C2640 1.386 . S
C2644 C2639 1.490 . S
C2644 C2646 1.395 . S
C2644 C2647 1.403 . S
H2645 C2651 0.930 . S
C2646 H2632 0.930 . S
C2646 C2644 1.395 . S
C2646 C2649 1.403 . S
C2647 C2644 1.403 . S
C2647 C2648 1.524 . S
C2647 C2651 1.400 . S
C2648 H2633 0.960 . S
C2648 H2634 0.960 . S
C2648 H2635 0.960 . S
C2648 C2647 1.524 . S
C2649 C2646 1.403 . S
C2649 C2650 1.392 . S
C2649 C2653 1.495 . S
C2650 C2649 1.392 . S
C2650 C2651 1.385 . S
C2650 C2652 1.478 . S
C2651 H2645 0.930 . S
C2651 C2647 1.400 . S
C2651 C2650 1.385 . S
C2652 C2650 1.478 . S
C2652 C2654 1.381 . S
C2652 C2658 1.383 . S
C2653 C2649 1.495 . S
C2653 H2659 0.959 . S
C2653 H2660 0.961 . S
C2653 H2661 0.960 . S
C2654 C2652 1.381 . S
C2654 C2655 1.394 . S
C2654 H2662 0.930 . S
C2655 C2654 1.394 . S
C2655 C2656 1.383 . S
C2655 H2663 0.929 . S
C2656 C2655 1.383 . S
C2656 C2657 1.377 . S
C2657 H2641 0.930 . S
C2657 C2656 1.377 . S
C2657 C2658 1.379 . S
C2658 H2642 0.931 . S
C2658 C2652 1.383 . S
C2658 C2657 1.379 . S
H2659 C2653 0.959 . S
H2660 C2653 0.961 . S
H2661 C2653 0.960 . S
H2662 C2654 0.930 . S
H2663 C2655 0.929 . S
H2664 C2672 0.929 . S
H2665 C2674 0.930 . S
H2666 C2676 0.930 . S
H2667 C2679 0.929 . S
H2668 C2682 0.930 . S
H2669 C2684 0.960 . S
H2670 C2684 0.960 . S
H2671 C2684 0.960 . S
C2672 H2664 0.929 . S
C2672 C2673 1.377 . S
C2672 C2674 1.384 . S
C2673 C2672 1.377 . S
C2673 C2679 1.390 . S
C2674 H2665 0.930 . S
C2674 C2672 1.384 . S
C2674 C2675 1.372 . S
C2675 C2674 1.372 . S
C2675 C2676 1.400 . S
C2675 C2680 1.490 . S
C2676 H2666 0.930 . S
C2676 C2675 1.400 . S
C2676 C2679 1.386 . S
H2677 C2693 0.930 . S
H2678 C2694 0.931 . S
C2679 H2667 0.929 . S
C2679 C2673 1.390 . S
C2679 C2676 1.386 . S
C2680 C2675 1.490 . S
C2680 C2682 1.395 . S
C2680 C2683 1.403 . S
H2681 C2687 0.930 . S
C2682 H2668 0.930 . S
C2682 C2680 1.395 . S
C2682 C2685 1.403 . S
C2683 C2680 1.403 . S
C2683 C2684 1.524 . S
C2683 C2687 1.400 . S
C2684 H2669 0.960 . S
C2684 H2670 0.960 . S
C2684 H2671 0.960 . S
C2684 C2683 1.524 . S
C2685 C2682 1.403 . S
C2685 C2686 1.392 . S
C2685 C2689 1.495 . S
C2686 C2685 1.392 . S
C2686 C2687 1.385 . S
C2686 C2688 1.478 . S
C2687 H2681 0.930 . S
C2687 C2683 1.400 . S
C2687 C2686 1.385 . S
C2688 C2686 1.478 . S
C2688 C2690 1.381 . S
C2688 C2694 1.383 . S
C2689 C2685 1.495 . S
C2689 H2695 0.959 . S
C2689 H2696 0.961 . S
C2689 H2697 0.960 . S
C2690 C2688 1.381 . S
C2690 C2691 1.394 . S
C2690 H2698 0.930 . S
C2691 C2690 1.394 . S
C2691 C2692 1.383 . S
C2691 H2699 0.929 . S
C2692 C2691 1.383 . S
C2692 C2693 1.377 . S
C2693 H2677 0.930 . S
C2693 C2692 1.377 . S
C2693 C2694 1.379 . S
C2694 H2678 0.931 . S
C2694 C2688 1.383 . S
C2694 C2693 1.379 . S
H2695 C2689 0.959 . S
H2696 C2689 0.961 . S
H2697 C2689 0.960 . S
H2698 C2690 0.930 . S
H2699 C2691 0.929 . S
H2700 C2708 0.929 . S
H2701 C2710 0.930 . S
H2702 C2712 0.930 . S
H2703 C2715 0.929 . S
H2704 C2718 0.930 . S
H2705 C2720 0.960 . S
H2706 C2720 0.960 . S
H2707 C2720 0.960 . S
C2708 H2700 0.929 . S
C2708 C2709 1.377 . S
C2708 C2710 1.384 . S
C2709 C2708 1.377 . S
C2709 C2715 1.390 . S
C2710 H2701 0.930 . S
C2710 C2708 1.384 . S
C2710 C2711 1.372 . S
C2711 C2710 1.372 . S
C2711 C2712 1.400 . S
C2711 C2716 1.490 . S
C2712 H2702 0.930 . S
C2712 C2711 1.400 . S
C2712 C2715 1.386 . S
H2713 C2729 0.930 . S
H2714 C2730 0.931 . S
C2715 H2703 0.929 . S
C2715 C2709 1.390 . S
C2715 C2712 1.386 . S
C2716 C2711 1.490 . S
C2716 C2718 1.395 . S
C2716 C2719 1.403 . S
H2717 C2723 0.930 . S
C2718 H2704 0.930 . S
C2718 C2716 1.395 . S
C2718 C2721 1.403 . S
C2719 C2716 1.403 . S
C2719 C2720 1.524 . S
C2719 C2723 1.400 . S
C2720 H2705 0.960 . S
C2720 H2706 0.960 . S
C2720 H2707 0.960 . S
C2720 C2719 1.524 . S
C2721 C2718 1.403 . S
C2721 C2722 1.392 . S
C2721 C2725 1.495 . S
C2722 C2721 1.392 . S
C2722 C2723 1.385 . S
C2722 C2724 1.478 . S
C2723 H2717 0.930 . S
C2723 C2719 1.400 . S
C2723 C2722 1.385 . S
C2724 C2722 1.478 . S
C2724 C2726 1.381 . S
C2724 C2730 1.383 . S
C2725 C2721 1.495 . S
C2725 H2731 0.959 . S
C2725 H2732 0.961 . S
C2725 H2733 0.960 . S
C2726 C2724 1.381 . S
C2726 C2727 1.394 . S
C2726 H2734 0.930 . S
C2727 C2726 1.394 . S
C2727 C2728 1.383 . S
C2727 H2735 0.929 . S
C2728 C2727 1.383 . S
C2728 C2729 1.377 . S
C2729 H2713 0.930 . S
C2729 C2728 1.377 . S
C2729 C2730 1.379 . S
C2730 H2714 0.931 . S
C2730 C2724 1.383 . S
C2730 C2729 1.379 . S
H2731 C2725 0.959 . S
H2732 C2725 0.961 . S
H2733 C2725 0.960 . S
H2734 C2726 0.930 . S
H2735 C2727 0.929 . S
H2736 C2744 0.929 . S
H2737 C2746 0.930 . S
H2738 C2748 0.930 . S
H2739 C2751 0.929 . S
H2740 C2754 0.930 . S
H2741 C2756 0.960 . S
H2742 C2756 0.960 . S
H2743 C2756 0.960 . S
C2744 H2736 0.929 . S
C2744 C2745 1.377 . S
C2744 C2746 1.384 . S
C2745 C2744 1.377 . S
C2745 C2751 1.390 . S
C2746 H2737 0.930 . S
C2746 C2744 1.384 . S
C2746 C2747 1.372 . S
C2747 C2746 1.372 . S
C2747 C2748 1.400 . S
C2747 C2752 1.490 . S
C2748 H2738 0.930 . S
C2748 C2747 1.400 . S
C2748 C2751 1.386 . S
H2749 C2765 0.930 . S
H2750 C2766 0.931 . S
C2751 H2739 0.929 . S
C2751 C2745 1.390 . S
C2751 C2748 1.386 . S
C2752 C2747 1.490 . S
C2752 C2754 1.395 . S
C2752 C2755 1.403 . S
H2753 C2759 0.930 . S
C2754 H2740 0.930 . S
C2754 C2752 1.395 . S
C2754 C2757 1.403 . S
C2755 C2752 1.403 . S
C2755 C2756 1.524 . S
C2755 C2759 1.400 . S
C2756 H2741 0.960 . S
C2756 H2742 0.960 . S
C2756 H2743 0.960 . S
C2756 C2755 1.524 . S
C2757 C2754 1.403 . S
C2757 C2758 1.392 . S
C2757 C2761 1.495 . S
C2758 C2757 1.392 . S
C2758 C2759 1.385 . S
C2758 C2760 1.478 . S
C2759 H2753 0.930 . S
C2759 C2755 1.400 . S
C2759 C2758 1.385 . S
C2760 C2758 1.478 . S
C2760 C2762 1.381 . S
C2760 C2766 1.383 . S
C2761 C2757 1.495 . S
C2761 H2767 0.959 . S
C2761 H2768 0.961 . S
C2761 H2769 0.960 . S
C2762 C2760 1.381 . S
C2762 C2763 1.394 . S
C2762 H2770 0.930 . S
C2763 C2762 1.394 . S
C2763 C2764 1.383 . S
C2763 H2771 0.929 . S
C2764 C2763 1.383 . S
C2764 C2765 1.377 . S
C2765 H2749 0.930 . S
C2765 C2764 1.377 . S
C2765 C2766 1.379 . S
C2766 H2750 0.931 . S
C2766 C2760 1.383 . S
C2766 C2765 1.379 . S
H2767 C2761 0.959 . S
H2768 C2761 0.961 . S
H2769 C2761 0.960 . S
H2770 C2762 0.930 . S
H2771 C2763 0.929 . S
H2772 C2780 0.929 . S
H2773 C2782 0.930 . S
H2774 C2784 0.930 . S
H2775 C2787 0.929 . S
H2776 C2790 0.930 . S
H2777 C2792 0.960 . S
H2778 C2792 0.960 . S
H2779 C2792 0.960 . S
C2780 H2772 0.929 . S
C2780 C2781 1.377 . S
C2780 C2782 1.384 . S
C2781 C2780 1.377 . S
C2781 C2787 1.390 . S
C2782 H2773 0.930 . S
C2782 C2780 1.384 . S
C2782 C2783 1.372 . S
C2783 C2782 1.372 . S
C2783 C2784 1.400 . S
C2783 C2788 1.490 . S
C2784 H2774 0.930 . S
C2784 C2783 1.400 . S
C2784 C2787 1.386 . S
H2785 C2801 0.930 . S
H2786 C2802 0.931 . S
C2787 H2775 0.929 . S
C2787 C2781 1.390 . S
C2787 C2784 1.386 . S
C2788 C2783 1.490 . S
C2788 C2790 1.395 . S
C2788 C2791 1.403 . S
H2789 C2795 0.930 . S
C2790 H2776 0.930 . S
C2790 C2788 1.395 . S
C2790 C2793 1.403 . S
C2791 C2788 1.403 . S
C2791 C2792 1.524 . S
C2791 C2795 1.400 . S
C2792 H2777 0.960 . S
C2792 H2778 0.960 . S
C2792 H2779 0.960 . S
C2792 C2791 1.524 . S
C2793 C2790 1.403 . S
C2793 C2794 1.392 . S
C2793 C2797 1.495 . S
C2794 C2793 1.392 . S
C2794 C2795 1.385 . S
C2794 C2796 1.478 . S
C2795 H2789 0.930 . S
C2795 C2791 1.400 . S
C2795 C2794 1.385 . S
C2796 C2794 1.478 . S
C2796 C2798 1.381 . S
C2796 C2802 1.383 . S
C2797 C2793 1.495 . S
C2797 H2803 0.959 . S
C2797 H2804 0.961 . S
C2797 H2805 0.960 . S
C2798 C2796 1.381 . S
C2798 C2799 1.394 . S
C2798 H2806 0.930 . S
C2799 C2798 1.394 . S
C2799 C2800 1.383 . S
C2799 H2807 0.929 . S
C2800 C2799 1.383 . S
C2800 C2801 1.377 . S
C2801 H2785 0.930 . S
C2801 C2800 1.377 . S
C2801 C2802 1.379 . S
C2802 H2786 0.931 . S
C2802 C2796 1.383 . S
C2802 C2801 1.379 . S
H2803 C2797 0.959 . S
H2804 C2797 0.961 . S
H2805 C2797 0.960 . S
H2806 C2798 0.930 . S
H2807 C2799 0.929 . S
H2808 C2816 0.929 . S
H2809 C2818 0.930 . S
H2810 C2820 0.930 . S
H2811 C2823 0.929 . S
H2812 C2826 0.930 . S
H2813 C2828 0.960 . S
H2814 C2828 0.960 . S
H2815 C2828 0.960 . S
C2816 H2808 0.929 . S
C2816 C2817 1.377 . S
C2816 C2818 1.384 . S
C2817 C2816 1.377 . S
C2817 C2823 1.390 . S
C2818 H2809 0.930 . S
C2818 C2816 1.384 . S
C2818 C2819 1.372 . S
C2819 C2818 1.372 . S
C2819 C2820 1.400 . S
C2819 C2824 1.490 . S
C2820 H2810 0.930 . S
C2820 C2819 1.400 . S
C2820 C2823 1.386 . S
H2821 C2837 0.930 . S
H2822 C2838 0.931 . S
C2823 H2811 0.929 . S
C2823 C2817 1.390 . S
C2823 C2820 1.386 . S
C2824 C2819 1.490 . S
C2824 C2826 1.395 . S
C2824 C2827 1.403 . S
H2825 C2831 0.930 . S
C2826 H2812 0.930 . S
C2826 C2824 1.395 . S
C2826 C2829 1.403 . S
C2827 C2824 1.403 . S
C2827 C2828 1.524 . S
C2827 C2831 1.400 . S
C2828 H2813 0.960 . S
C2828 H2814 0.960 . S
C2828 H2815 0.960 . S
C2828 C2827 1.524 . S
C2829 C2826 1.403 . S
C2829 C2830 1.392 . S
C2829 C2833 1.495 . S
C2830 C2829 1.392 . S
C2830 C2831 1.385 . S
C2830 C2832 1.478 . S
C2831 H2825 0.930 . S
C2831 C2827 1.400 . S
C2831 C2830 1.385 . S
C2832 C2830 1.478 . S
C2832 C2834 1.381 . S
C2832 C2838 1.383 . S
C2833 C2829 1.495 . S
C2833 H2839 0.959 . S
C2833 H2840 0.961 . S
C2833 H2841 0.960 . S
C2834 C2832 1.381 . S
C2834 C2835 1.394 . S
C2834 H2842 0.930 . S
C2835 C2834 1.394 . S
C2835 C2836 1.383 . S
C2835 H2843 0.929 . S
C2836 C2835 1.383 . S
C2836 C2837 1.377 . S
C2837 H2821 0.930 . S
C2837 C2836 1.377 . S
C2837 C2838 1.379 . S
C2838 H2822 0.931 . S
C2838 C2832 1.383 . S
C2838 C2837 1.379 . S
H2839 C2833 0.959 . S
H2840 C2833 0.961 . S
H2841 C2833 0.960 . S
H2842 C2834 0.930 . S
H2843 C2835 0.929 . S
H2844 C2852 0.929 . S
H2845 C2854 0.930 . S
H2846 C2856 0.930 . S
H2847 C2859 0.929 . S
H2848 C2862 0.930 . S
H2849 C2864 0.960 . S
H2850 C2864 0.960 . S
H2851 C2864 0.960 . S
C2852 H2844 0.929 . S
C2852 C2853 1.377 . S
C2852 C2854 1.384 . S
C2853 C2852 1.377 . S
C2853 C2859 1.390 . S
C2854 H2845 0.930 . S
C2854 C2852 1.384 . S
C2854 C2855 1.372 . S
C2855 C2854 1.372 . S
C2855 C2856 1.400 . S
C2855 C2860 1.490 . S
C2856 H2846 0.930 . S
C2856 C2855 1.400 . S
C2856 C2859 1.386 . S
H2857 C2873 0.930 . S
H2858 C2874 0.931 . S
C2859 H2847 0.929 . S
C2859 C2853 1.390 . S
C2859 C2856 1.386 . S
C2860 C2855 1.490 . S
C2860 C2862 1.395 . S
C2860 C2863 1.403 . S
H2861 C2867 0.930 . S
C2862 H2848 0.930 . S
C2862 C2860 1.395 . S
C2862 C2865 1.403 . S
C2863 C2860 1.403 . S
C2863 C2864 1.524 . S
C2863 C2867 1.400 . S
C2864 H2849 0.960 . S
C2864 H2850 0.960 . S
C2864 H2851 0.960 . S
C2864 C2863 1.524 . S
C2865 C2862 1.403 . S
C2865 C2866 1.392 . S
C2865 C2869 1.495 . S
C2866 C2865 1.392 . S
C2866 C2867 1.385 . S
C2866 C2868 1.478 . S
C2867 H2861 0.930 . S
C2867 C2863 1.400 . S
C2867 C2866 1.385 . S
C2868 C2866 1.478 . S
C2868 C2870 1.381 . S
C2868 C2874 1.383 . S
C2869 C2865 1.495 . S
C2869 H2875 0.959 . S
C2869 H2876 0.961 . S
C2869 H2877 0.960 . S
C2870 C2868 1.381 . S
C2870 C2871 1.394 . S
C2870 H2878 0.930 . S
C2871 C2870 1.394 . S
C2871 C2872 1.383 . S
C2871 H2879 0.929 . S
C2872 C2871 1.383 . S
C2872 C2873 1.377 . S
C2873 H2857 0.930 . S
C2873 C2872 1.377 . S
C2873 C2874 1.379 . S
C2874 H2858 0.931 . S
C2874 C2868 1.383 . S
C2874 C2873 1.379 . S
H2875 C2869 0.959 . S
H2876 C2869 0.961 . S
H2877 C2869 0.960 . S
H2878 C2870 0.930 . S
H2879 C2871 0.929 . S
H2880 C2888 0.929 . S
H2881 C2890 0.930 . S
H2882 C2892 0.930 . S
H2883 C2895 0.929 . S
H2884 C2898 0.930 . S
H2885 C2900 0.960 . S
H2886 C2900 0.960 . S
H2887 C2900 0.960 . S
C2888 H2880 0.929 . S
C2888 C2889 1.377 . S
C2888 C2890 1.384 . S
C2889 C2888 1.377 . S
C2889 C2895 1.390 . S
C2890 H2881 0.930 . S
C2890 C2888 1.384 . S
C2890 C2891 1.372 . S
C2891 C2890 1.372 . S
C2891 C2892 1.400 . S
C2891 C2896 1.490 . S
C2892 H2882 0.930 . S
C2892 C2891 1.400 . S
C2892 C2895 1.386 . S
H2893 C2909 0.930 . S
H2894 C2910 0.931 . S
C2895 H2883 0.929 . S
C2895 C2889 1.390 . S
C2895 C2892 1.386 . S
C2896 C2891 1.490 . S
C2896 C2898 1.395 . S
C2896 C2899 1.403 . S
H2897 C2903 0.930 . S
C2898 H2884 0.930 . S
C2898 C2896 1.395 . S
C2898 C2901 1.403 1_455 S
C2899 C2896 1.403 . S
C2899 C2900 1.524 . S
C2899 C2903 1.400 1_455 S
C2900 H2885 0.960 . S
C2900 H2886 0.960 . S
C2900 H2887 0.960 . S
C2900 C2899 1.524 . S
C2901 C2898 1.403 1_655 S
C2901 C2902 1.392 . S
C2901 C2905 1.495 . S
C2902 C2901 1.392 . S
C2902 C2903 1.385 . S
C2902 C2904 1.478 . S
C2903 H2897 0.930 . S
C2903 C2899 1.400 1_655 S
C2903 C2902 1.385 . S
C2904 C2902 1.478 . S
C2904 C2906 1.381 . S
C2904 C2910 1.383 . S
C2905 C2901 1.495 . S
C2905 H2911 0.959 . S
C2905 H2912 0.961 . S
C2905 H2913 0.960 . S
C2906 C2904 1.381 . S
C2906 C2907 1.394 . S
C2906 H2914 0.930 . S
C2907 C2906 1.394 . S
C2907 C2908 1.383 . S
C2907 H2915 0.929 . S
C2908 C2907 1.383 . S
C2908 C2909 1.377 . S
C2909 H2893 0.930 . S
C2909 C2908 1.377 . S
C2909 C2910 1.379 . S
C2910 H2894 0.931 . S
C2910 C2904 1.383 . S
C2910 C2909 1.379 . S
H2911 C2905 0.959 . S
H2912 C2905 0.961 . S
H2913 C2905 0.960 . S
H2914 C2906 0.930 . S
H2915 C2907 0.929 . S
H2916 C2924 0.929 . S
H2917 C2926 0.930 . S
H2918 C2928 0.930 . S
H2919 C2931 0.929 . S
H2920 C2934 0.930 . S
H2921 C2936 0.960 . S
H2922 C2936 0.960 . S
H2923 C2936 0.960 . S
C2924 H2916 0.929 . S
C2924 C2925 1.377 . S
C2924 C2926 1.384 . S
C2925 C2924 1.377 . S
C2925 C2931 1.390 . S
C2926 H2917 0.930 . S
C2926 C2924 1.384 . S
C2926 C2927 1.372 . S
C2927 C2926 1.372 . S
C2927 C2928 1.400 . S
C2927 C2932 1.490 . S
C2928 H2918 0.930 . S
C2928 C2927 1.400 . S
C2928 C2931 1.386 . S
H2929 C2945 0.930 . S
H2930 C2946 0.931 . S
C2931 H2919 0.929 . S
C2931 C2925 1.390 . S
C2931 C2928 1.386 . S
C2932 C2927 1.490 . S
C2932 C2934 1.395 . S
C2932 C2935 1.403 . S
H2933 C2939 0.930 . S
C2934 H2920 0.930 . S
C2934 C2932 1.395 . S
C2934 C2937 1.403 . S
C2935 C2932 1.403 . S
C2935 C2936 1.524 . S
C2935 C2939 1.400 . S
C2936 H2921 0.960 . S
C2936 H2922 0.960 . S
C2936 H2923 0.960 . S
C2936 C2935 1.524 . S
C2937 C2934 1.403 . S
C2937 C2938 1.392 . S
C2937 C2941 1.495 . S
C2938 C2937 1.392 . S
C2938 C2939 1.385 . S
C2938 C2940 1.478 . S
C2939 H2933 0.930 . S
C2939 C2935 1.400 . S
C2939 C2938 1.385 . S
C2940 C2938 1.478 . S
C2940 C2942 1.381 . S
C2940 C2946 1.383 . S
C2941 C2937 1.495 . S
C2941 H2947 0.959 . S
C2941 H2948 0.961 . S
C2941 H2949 0.960 . S
C2942 C2940 1.381 . S
C2942 C2943 1.394 . S
C2942 H2950 0.930 . S
C2943 C2942 1.394 . S
C2943 C2944 1.383 . S
C2943 H2951 0.929 . S
C2944 C2943 1.383 . S
C2944 C2945 1.377 . S
C2945 H2929 0.930 . S
C2945 C2944 1.377 . S
C2945 C2946 1.379 . S
C2946 H2930 0.931 . S
C2946 C2940 1.383 . S
C2946 C2945 1.379 . S
H2947 C2941 0.959 . S
H2948 C2941 0.961 . S
H2949 C2941 0.960 . S
H2950 C2942 0.930 . S
H2951 C2943 0.929 . S
H2952 C2960 0.929 . S
H2953 C2962 0.930 . S
H2954 C2964 0.930 . S
H2955 C2967 0.929 . S
H2956 C2970 0.930 . S
H2957 C2972 0.960 . S
H2958 C2972 0.960 . S
H2959 C2972 0.960 . S
C2960 H2952 0.929 . S
C2960 C2961 1.377 . S
C2960 C2962 1.384 . S
C2961 C2960 1.377 . S
C2961 C2967 1.390 . S
C2962 H2953 0.930 . S
C2962 C2960 1.384 . S
C2962 C2963 1.372 . S
C2963 C2962 1.372 . S
C2963 C2964 1.400 . S
C2963 C2968 1.490 . S
C2964 H2954 0.930 . S
C2964 C2963 1.400 . S
C2964 C2967 1.386 . S
H2965 C2981 0.930 . S
H2966 C2982 0.931 . S
C2967 H2955 0.929 . S
C2967 C2961 1.390 . S
C2967 C2964 1.386 . S
C2968 C2963 1.490 . S
C2968 C2970 1.395 . S
C2968 C2971 1.403 . S
H2969 C2975 0.930 . S
C2970 H2956 0.930 . S
C2970 C2968 1.395 . S
C2970 C2973 1.403 1_545 S
C2971 C2968 1.403 . S
C2971 C2972 1.524 . S
C2971 C2975 1.400 1_545 S
C2972 H2957 0.960 . S
C2972 H2958 0.960 . S
C2972 H2959 0.960 . S
C2972 C2971 1.524 . S
C2973 C2970 1.403 1_565 S
C2973 C2974 1.392 . S
C2973 C2977 1.495 . S
C2974 C2973 1.392 . S
C2974 C2975 1.385 . S
C2974 C2976 1.478 . S
C2975 H2969 0.930 . S
C2975 C2971 1.400 1_565 S
C2975 C2974 1.385 . S
C2976 C2974 1.478 . S
C2976 C2978 1.381 . S
C2976 C2982 1.383 . S
C2977 C2973 1.495 . S
C2977 H2983 0.959 . S
C2977 H2984 0.961 . S
C2977 H2985 0.960 . S
C2978 C2976 1.381 . S
C2978 C2979 1.394 . S
C2978 H2986 0.930 . S
C2979 C2978 1.394 . S
C2979 C2980 1.383 . S
C2979 H2987 0.929 . S
C2980 C2979 1.383 . S
C2980 C2981 1.377 . S
C2981 H2965 0.930 . S
C2981 C2980 1.377 . S
C2981 C2982 1.379 . S
C2982 H2966 0.931 . S
C2982 C2976 1.383 . S
C2982 C2981 1.379 . S
H2983 C2977 0.959 . S
H2984 C2977 0.961 . S
H2985 C2977 0.960 . S
H2986 C2978 0.930 . S
H2987 C2979 0.929 . S
H2988 C2996 0.929 . S
H2989 C2998 0.930 . S
H2990 C3000 0.930 1_556 S
H2991 C3003 0.929 . S
H2992 C3006 0.930 . S
H2993 C3008 0.960 . S
H2994 C3008 0.960 . S
H2995 C3008 0.960 . S
C2996 H2988 0.929 . S
C2996 C2997 1.377 . S
C2996 C2998 1.384 . S
C2997 C2996 1.377 . S
C2997 C3003 1.390 . S
C2998 H2989 0.930 . S
C2998 C2996 1.384 . S
C2998 C2999 1.372 . S
C2999 C2998 1.372 . S
C2999 C3000 1.400 . S
C2999 C3004 1.490 . S
C3000 H2990 0.930 1_554 S
C3000 C2999 1.400 . S
C3000 C3003 1.386 . S
H3001 C3017 0.930 . S
H3002 C3018 0.931 . S
C3003 H2991 0.929 . S
C3003 C2997 1.390 . S
C3003 C3000 1.386 . S
C3004 C2999 1.490 . S
C3004 C3006 1.395 1_554 S
C3004 C3007 1.403 . S
H3005 C3011 0.930 . S
C3006 H2992 0.930 . S
C3006 C3004 1.395 1_556 S
C3006 C3009 1.403 1_545 S
C3007 C3004 1.403 . S
C3007 C3008 1.524 . S
C3007 C3011 1.400 1_545 S
C3008 H2993 0.960 . S
C3008 H2994 0.960 . S
C3008 H2995 0.960 . S
C3008 C3007 1.524 . S
C3009 C3006 1.403 1_565 S
C3009 C3010 1.392 . S
C3009 C3013 1.495 . S
C3010 C3009 1.392 . S
C3010 C3011 1.385 1_556 S
C3010 C3012 1.478 . S
C3011 H3005 0.930 . S
C3011 C3007 1.400 1_565 S
C3011 C3010 1.385 1_554 S
C3012 C3010 1.478 . S
C3012 C3014 1.381 . S
C3012 C3018 1.383 . S
C3013 C3009 1.495 . S
C3013 H3019 0.959 . S
C3013 H3020 0.961 . S
C3013 H3021 0.960 . S
C3014 C3012 1.381 . S
C3014 C3015 1.394 . S
C3014 H3022 0.930 1_556 S
C3015 C3014 1.394 . S
C3015 C3016 1.383 . S
C3015 H3023 0.929 . S
C3016 C3015 1.383 . S
C3016 C3017 1.377 . S
C3017 H3001 0.930 . S
C3017 C3016 1.377 . S
C3017 C3018 1.379 . S
C3018 H3002 0.931 . S
C3018 C3012 1.383 . S
C3018 C3017 1.379 . S
H3019 C3013 0.959 . S
H3020 C3013 0.961 . S
H3021 C3013 0.960 . S
H3022 C3014 0.930 1_554 S
H3023 C3015 0.929 . S
H3024 C3032 0.929 . S
H3025 C3034 0.930 . S
H3026 C3036 0.930 . S
H3027 C3039 0.929 . S
H3028 C3042 0.930 . S
H3029 C3044 0.960 . S
H3030 C3044 0.960 . S
H3031 C3044 0.960 . S
C3032 H3024 0.929 . S
C3032 C3033 1.377 . S
C3032 C3034 1.384 . S
C3033 C3032 1.377 . S
C3033 C3039 1.390 . S
C3034 H3025 0.930 . S
C3034 C3032 1.384 . S
C3034 C3035 1.372 . S
C3035 C3034 1.372 . S
C3035 C3036 1.400 . S
C3035 C3040 1.490 . S
C3036 H3026 0.930 . S
C3036 C3035 1.400 . S
C3036 C3039 1.386 . S
H3037 C3053 0.930 . S
H3038 C3054 0.931 . S
C3039 H3027 0.929 . S
C3039 C3033 1.390 . S
C3039 C3036 1.386 . S
C3040 C3035 1.490 . S
C3040 C3042 1.395 1_554 S
C3040 C3043 1.403 . S
H3041 C3047 0.930 . S
C3042 H3028 0.930 . S
C3042 C3040 1.395 1_556 S
C3042 C3045 1.403 1_655 S
C3043 C3040 1.403 . S
C3043 C3044 1.524 . S
C3043 C3047 1.400 1_655 S
C3044 H3029 0.960 . S
C3044 H3030 0.960 . S
C3044 H3031 0.960 . S
C3044 C3043 1.524 . S
C3045 C3042 1.403 1_455 S
C3045 C3046 1.392 . S
C3045 C3049 1.495 . S
C3046 C3045 1.392 . S
C3046 C3047 1.385 1_556 S
C3046 C3048 1.478 . S
C3047 H3041 0.930 . S
C3047 C3043 1.400 1_455 S
C3047 C3046 1.385 1_554 S
C3048 C3046 1.478 . S
C3048 C3050 1.381 . S
C3048 C3054 1.383 . S
C3049 C3045 1.495 . S
C3049 H3055 0.959 . S
C3049 H3056 0.961 . S
C3049 H3057 0.960 . S
C3050 C3048 1.381 . S
C3050 C3051 1.394 . S
C3050 H3058 0.930 . S
C3051 C3050 1.394 . S
C3051 C3052 1.383 . S
C3051 H3059 0.929 . S
C3052 C3051 1.383 . S
C3052 C3053 1.377 . S
C3053 H3037 0.930 . S
C3053 C3052 1.377 . S
C3053 C3054 1.379 . S
C3054 H3038 0.931 . S
C3054 C3048 1.383 . S
C3054 C3053 1.379 . S
H3055 C3049 0.959 . S
H3056 C3049 0.961 . S
H3057 C3049 0.960 . S
H3058 C3050 0.930 . S
H3059 C3051 0.929 . S
H3060 C3068 0.929 . S
H3061 C3070 0.930 . S
H3062 C3072 0.930 1_556 S
H3063 C3075 0.929 . S
H3064 C3078 0.930 . S
H3065 C3080 0.960 1_556 S
H3066 C3080 0.960 . S
H3067 C3080 0.960 1_556 S
C3068 H3060 0.929 . S
C3068 C3069 1.377 . S
C3068 C3070 1.384 . S
C3069 C3068 1.377 . S
C3069 C3075 1.390 . S
C3070 H3061 0.930 . S
C3070 C3068 1.384 . S
C3070 C3071 1.372 . S
C3071 C3070 1.372 . S
C3071 C3072 1.400 . S
C3071 C3076 1.490 . S
C3072 H3062 0.930 1_554 S
C3072 C3071 1.400 . S
C3072 C3075 1.386 . S
H3073 C3089 0.930 . S
H3074 C3090 0.931 . S
C3075 H3063 0.929 . S
C3075 C3069 1.390 . S
C3075 C3072 1.386 . S
C3076 C3071 1.490 . S
C3076 C3078 1.395 . S
C3076 C3079 1.403 . S
H3077 C3083 0.930 . S
C3078 H3064 0.930 . S
C3078 C3076 1.395 . S
C3078 C3081 1.403 . S
C3079 C3076 1.403 . S
C3079 C3080 1.524 . S
C3079 C3083 1.400 1_554 S
C3080 H3065 0.960 1_554 S
C3080 H3066 0.960 . S
C3080 H3067 0.960 1_554 S
C3080 C3079 1.524 . S
C3081 C3078 1.403 . S
C3081 C3082 1.392 1_554 S
C3081 C3085 1.495 . S
C3082 C3081 1.392 1_556 S
C3082 C3083 1.385 . S
C3082 C3084 1.478 . S
C3083 H3077 0.930 . S
C3083 C3079 1.400 1_556 S
C3083 C3082 1.385 . S
C3084 C3082 1.478 . S
C3084 C3086 1.381 . S
C3084 C3090 1.383 . S
C3085 C3081 1.495 . S
C3085 H3091 0.959 . S
C3085 H3092 0.962 1_554 S
C3085 H3093 0.959 . S
C3086 C3084 1.381 . S
C3086 C3087 1.394 . S
C3086 H3094 0.930 1_556 S
C3087 C3086 1.394 . S
C3087 C3088 1.383 . S
C3087 H3095 0.947 . S
C3088 C3087 1.383 . S
C3088 C3089 1.377 . S
C3089 H3073 0.930 . S
C3089 C3088 1.377 . S
C3089 C3090 1.379 . S
C3090 H3074 0.931 . S
C3090 C3084 1.383 . S
C3090 C3089 1.379 . S
H3091 C3085 0.959 . S
H3092 C3085 0.962 1_556 S
H3093 C3085 0.959 . S
H3094 C3086 0.930 1_554 S
H3095 C3087 0.947 . S
C513 C147 1.141 . S
C532 C8 1.140 . S
C549 C161 1.143 . S
C568 C22 1.120 . S
C585 C36 1.122 . S
C604 C133 1.130 . S
C621 C50 1.119 . S
C640 C119 1.130 . S
C657 C64 1.110 . S
C676 C91 1.150 . S
C693 C105 1.142 . S
C712 C78 1.132 . S
C729 C63 1.144 . S
C748 C92 1.080 . S
C765 C77 1.146 . S
C784 C106 1.095 . S
C801 C120 1.120 . S
C820 C49 1.134 . S
C837 C35 1.147 . S
C856 C134 1.127 . S
C873 C148 1.117 . S
C892 C7 1.157 . S
C909 C162 1.111 . S
C928 C21 1.129 . S
C945 C315 1.141 . S
C964 C176 1.130 . S
C981 C329 1.141 . S
C1000 C190 1.147 . S
C1017 C204 1.109 . S
C1036 C301 1.152 . S
C1053 C218 1.121 . S
C1072 C287 1.128 1_556 S
C1089 C232 1.108 . S
C1108 C259 1.155 1_556 S
C1125 C246 1.109 . S
C1144 C273 1.152 1_556 S
C1161 C231 1.142 . S
C1180 C260 1.137 . S
C1197 C245 1.142 . S
C1216 C274 1.126 . S
C1233 C217 1.141 . S
C1252 C288 1.100 . S
C1269 C203 1.144 . S
C1288 C302 1.080 1_556 S
C1305 C175 1.141 . S
C1324 C316 1.110 1_556 S
C1341 C189 1.147 . S
C1360 C330 1.117 1_556 S
C1377 C344 1.109 . S
C1396 C483 1.153 . S
C1413 C497 1.147 . S
C1432 C358 1.079 . S
C1449 C469 1.147 . S
C1468 C372 1.087 . S
C1485 C386 1.122 1_554 S
C1504 C455 1.128 . S
C1521 C400 1.120 1_554 S
C1540 C427 1.128 . S
C1557 C414 1.112 1_554 S
C1576 C441 1.144 . S
C1593 C399 1.144 . S
C1612 C428 1.146 . S
C1629 C413 1.144 . S
C1648 C442 1.147 . S
C1665 C385 1.145 . S
C1684 C456 1.146 . S
C1701 C470 1.120 . S
C1720 C371 1.133 1_554 S
C1737 C343 1.142 1_554 S
C1756 C484 1.085 . S
C1773 C498 1.110 . S
C1792 C357 1.130 1_554 S
C1809 C48 1.514 . S
C1828 C6 1.530 . S
C1845 C62 1.522 . S
C1864 C20 1.501 . S
C1881 C34 1.517 . S
C1900 C76 1.530 . S
C1917 C132 1.516 . S
C1936 C90 1.529 . S
C1953 C146 1.522 . S
C1972 C104 1.513 . S
C1989 C160 1.521 . S
C2008 C118 1.506 . S
C2025 C216 1.516 . S
C2044 C174 1.531 . S
C2061 C230 1.518 . S
C2080 C188 1.527 . S
C2097 C202 1.522 . S
C2116 C244 1.502 . S
C2133 C258 1.518 . S
C2152 C300 1.498 . S
C2169 C314 1.521 . S
C2188 C272 1.523 . S
C2205 C286 1.518 . S
C2224 C328 1.499 . S
C2241 C384 1.514 . S
C2260 C342 1.525 . S
C2277 C398 1.522 . S
C2296 C356 1.499 . S
C2313 C370 1.522 . S
C2332 C412 1.501 . S
C2349 C426 1.517 . S
C2368 C468 1.499 . S
C2385 C440 1.515 . S
C2404 C482 1.521 . S
C2421 C454 1.515 . S
C2440 C496 1.509 . S
C2457 C9 1.521 . S
C2476 C261 1.525 . S
C2493 C275 1.522 . S
C2512 C23 1.505 . S
C2529 C289 1.527 . S
C2548 C37 1.522 . S
C2565 C471 1.522 . S
C2584 C51 1.504 . S
C2601 C485 1.526 . S
C2620 C65 1.538 . S
C2637 C499 1.521 . S
C2656 C79 1.510 . S
C2673 C93 1.521 . S
C2692 C345 1.516 . S
C2709 C359 1.522 . S
C2728 C107 1.525 . S
C2745 C373 1.526 . S
C2764 C121 1.538 . S
C2781 C135 1.527 . S
C2800 C219 1.519 . S
C2817 C149 1.526 . S
C2836 C233 1.538 . S
C2853 C163 1.527 . S
C2872 C247 1.516 . S
C2889 C429 1.520 . S
C2908 C177 1.513 . S
C2925 C443 1.524 . S
C2944 C191 1.506 . S
C2961 C205 1.521 . S
C2980 C457 1.507 . S
C2997 C303 1.524 . S
C3016 C387 1.506 . S
C3033 C317 1.525 . S
C3052 C401 1.509 . S
C3069 C331 1.522 . S
C3088 C415 1.504 . S
