# Generated by pormake.
# Topology uml, (4)-cn, num edge types: 1
# Building blocks:
#     Node 0, Type 0, BuildingBlock: ESEHIV_clean_sbu_0, # of connection points: 4
#     Node 1, Type 0, BuildingBlock: ESEHIV_clean_sbu_0, # of connection points: 4
#     Node 2, Type 0, BuildingBlock: ESEHIV_clean_sbu_0, # of connection points: 4
#     Node 3, Type 0, BuildingBlock: ESEHIV_clean_sbu_0, # of connection points: 4
#     Node 4, Type 0, BuildingBlock: ESEHIV_clean_sbu_0, # of connection points: 4
#     Node 5, Type 0, BuildingBlock: ESEHIV_clean_sbu_0, # of connection points: 4
#     Node 6, Type 0, BuildingBlock: ESEHIV_clean_sbu_0, # of connection points: 4
#     Node 7, Type 0, BuildingBlock: ESEHIV_clean_sbu_0, # of connection points: 4
#     Node 8, Type 0, BuildingBlock: ESEHIV_clean_sbu_0, # of connection points: 4
#     Node 9, Type 0, BuildingBlock: ESEHIV_clean_sbu_0, # of connection points: 4
#     Node 10, Type 0, BuildingBlock: ESEHIV_clean_sbu_0, # of connection points: 4
#     Node 11, Type 0, BuildingBlock: ESEHIV_clean_sbu_0, # of connection points: 4
#     Node 12, Type 0, BuildingBlock: ESEHIV_clean_sbu_0, # of connection points: 4
#     Node 13, Type 0, BuildingBlock: ESEHIV_clean_sbu_0, # of connection points: 4
#     Node 14, Type 0, BuildingBlock: ESEHIV_clean_sbu_0, # of connection points: 4
#     Node 15, Type 0, BuildingBlock: ESEHIV_clean_sbu_0, # of connection points: 4
#     Node 16, Type 0, BuildingBlock: ESEHIV_clean_sbu_0, # of connection points: 4
#     Node 17, Type 0, BuildingBlock: ESEHIV_clean_sbu_0, # of connection points: 4
#     Node 18, Type 0, BuildingBlock: ESEHIV_clean_sbu_0, # of connection points: 4
#     Node 19, Type 0, BuildingBlock: ESEHIV_clean_sbu_0, # of connection points: 4
#     Node 20, Type 0, BuildingBlock: ESEHIV_clean_sbu_0, # of connection points: 4
#     Node 21, Type 0, BuildingBlock: ESEHIV_clean_sbu_0, # of connection points: 4
#     Node 22, Type 0, BuildingBlock: ESEHIV_clean_sbu_0, # of connection points: 4
#     Node 23, Type 0, BuildingBlock: ESEHIV_clean_sbu_0, # of connection points: 4
#     Node 24, Type 0, BuildingBlock: ESEHIV_clean_sbu_0, # of connection points: 4
#     Node 25, Type 0, BuildingBlock: ESEHIV_clean_sbu_0, # of connection points: 4
#     Node 26, Type 0, BuildingBlock: ESEHIV_clean_sbu_0, # of connection points: 4
#     Node 27, Type 0, BuildingBlock: ESEHIV_clean_sbu_0, # of connection points: 4
#     Node 28, Type 0, BuildingBlock: ESEHIV_clean_sbu_0, # of connection points: 4
#     Node 29, Type 0, BuildingBlock: ESEHIV_clean_sbu_0, # of connection points: 4
#     Node 30, Type 0, BuildingBlock: ESEHIV_clean_sbu_0, # of connection points: 4
#     Node 31, Type 0, BuildingBlock: ESEHIV_clean_sbu_0, # of connection points: 4
#     Node 32, Type 0, BuildingBlock: ESEHIV_clean_sbu_0, # of connection points: 4
#     Node 33, Type 0, BuildingBlock: ESEHIV_clean_sbu_0, # of connection points: 4
#     Node 34, Type 0, BuildingBlock: ESEHIV_clean_sbu_0, # of connection points: 4
#     Node 35, Type 0, BuildingBlock: ESEHIV_clean_sbu_0, # of connection points: 4
#     Edge 36, Type (0, 0), BuildingBlock: ZUJKAS_clean_linker_0, # of connection points: 2
#     Edge 37, Type (0, 0), BuildingBlock: ZUJKAS_clean_linker_0, # of connection points: 2
#     Edge 38, Type (0, 0), BuildingBlock: ZUJKAS_clean_linker_0, # of connection points: 2
#     Edge 39, Type (0, 0), BuildingBlock: ZUJKAS_clean_linker_0, # of connection points: 2
#     Edge 40, Type (0, 0), BuildingBlock: ZUJKAS_clean_linker_0, # of connection points: 2
#     Edge 41, Type (0, 0), BuildingBlock: ZUJKAS_clean_linker_0, # of connection points: 2
#     Edge 42, Type (0, 0), BuildingBlock: ZUJKAS_clean_linker_0, # of connection points: 2
#     Edge 43, Type (0, 0), BuildingBlock: ZUJKAS_clean_linker_0, # of connection points: 2
#     Edge 44, Type (0, 0), BuildingBlock: ZUJKAS_clean_linker_0, # of connection points: 2
#     Edge 45, Type (0, 0), BuildingBlock: ZUJKAS_clean_linker_0, # of connection points: 2
#     Edge 46, Type (0, 0), BuildingBlock: ZUJKAS_clean_linker_0, # of connection points: 2
#     Edge 47, Type (0, 0), BuildingBlock: ZUJKAS_clean_linker_0, # of connection points: 2
#     Edge 48, Type (0, 0), BuildingBlock: ZUJKAS_clean_linker_0, # of connection points: 2
#     Edge 49, Type (0, 0), BuildingBlock: ZUJKAS_clean_linker_0, # of connection points: 2
#     Edge 50, Type (0, 0), BuildingBlock: ZUJKAS_clean_linker_0, # of connection points: 2
#     Edge 51, Type (0, 0), BuildingBlock: ZUJKAS_clean_linker_0, # of connection points: 2
#     Edge 52, Type (0, 0), BuildingBlock: ZUJKAS_clean_linker_0, # of connection points: 2
#     Edge 53, Type (0, 0), BuildingBlock: ZUJKAS_clean_linker_0, # of connection points: 2
#     Edge 54, Type (0, 0), BuildingBlock: ZUJKAS_clean_linker_0, # of connection points: 2
#     Edge 55, Type (0, 0), BuildingBlock: ZUJKAS_clean_linker_0, # of connection points: 2
#     Edge 56, Type (0, 0), BuildingBlock: ZUJKAS_clean_linker_0, # of connection points: 2
#     Edge 57, Type (0, 0), BuildingBlock: ZUJKAS_clean_linker_0, # of connection points: 2
#     Edge 58, Type (0, 0), BuildingBlock: ZUJKAS_clean_linker_0, # of connection points: 2
#     Edge 59, Type (0, 0), BuildingBlock: ZUJKAS_clean_linker_0, # of connection points: 2
#     Edge 60, Type (0, 0), BuildingBlock: ZUJKAS_clean_linker_0, # of connection points: 2
#     Edge 61, Type (0, 0), BuildingBlock: ZUJKAS_clean_linker_0, # of connection points: 2
#     Edge 62, Type (0, 0), BuildingBlock: ZUJKAS_clean_linker_0, # of connection points: 2
#     Edge 63, Type (0, 0), BuildingBlock: ZUJKAS_clean_linker_0, # of connection points: 2
#     Edge 64, Type (0, 0), BuildingBlock: ZUJKAS_clean_linker_0, # of connection points: 2
#     Edge 65, Type (0, 0), BuildingBlock: ZUJKAS_clean_linker_0, # of connection points: 2
#     Edge 66, Type (0, 0), BuildingBlock: ZUJKAS_clean_linker_0, # of connection points: 2
#     Edge 67, Type (0, 0), BuildingBlock: ZUJKAS_clean_linker_0, # of connection points: 2
#     Edge 68, Type (0, 0), BuildingBlock: ZUJKAS_clean_linker_0, # of connection points: 2
#     Edge 69, Type (0, 0), BuildingBlock: ZUJKAS_clean_linker_0, # of connection points: 2
#     Edge 70, Type (0, 0), BuildingBlock: ZUJKAS_clean_linker_0, # of connection points: 2
#     Edge 71, Type (0, 0), BuildingBlock: ZUJKAS_clean_linker_0, # of connection points: 2
#     Edge 72, Type (0, 0), BuildingBlock: ZUJKAS_clean_linker_0, # of connection points: 2
#     Edge 73, Type (0, 0), BuildingBlock: ZUJKAS_clean_linker_0, # of connection points: 2
#     Edge 74, Type (0, 0), BuildingBlock: ZUJKAS_clean_linker_0, # of connection points: 2
#     Edge 75, Type (0, 0), BuildingBlock: ZUJKAS_clean_linker_0, # of connection points: 2
#     Edge 76, Type (0, 0), BuildingBlock: ZUJKAS_clean_linker_0, # of connection points: 2
#     Edge 77, Type (0, 0), BuildingBlock: ZUJKAS_clean_linker_0, # of connection points: 2
#     Edge 78, Type (0, 0), BuildingBlock: ZUJKAS_clean_linker_0, # of connection points: 2
#     Edge 79, Type (0, 0), BuildingBlock: ZUJKAS_clean_linker_0, # of connection points: 2
#     Edge 80, Type (0, 0), BuildingBlock: ZUJKAS_clean_linker_0, # of connection points: 2
#     Edge 81, Type (0, 0), BuildingBlock: ZUJKAS_clean_linker_0, # of connection points: 2
#     Edge 82, Type (0, 0), BuildingBlock: ZUJKAS_clean_linker_0, # of connection points: 2
#     Edge 83, Type (0, 0), BuildingBlock: ZUJKAS_clean_linker_0, # of connection points: 2
#     Edge 84, Type (0, 0), BuildingBlock: ZUJKAS_clean_linker_0, # of connection points: 2
#     Edge 85, Type (0, 0), BuildingBlock: ZUJKAS_clean_linker_0, # of connection points: 2
#     Edge 86, Type (0, 0), BuildingBlock: ZUJKAS_clean_linker_0, # of connection points: 2
#     Edge 87, Type (0, 0), BuildingBlock: ZUJKAS_clean_linker_0, # of connection points: 2
#     Edge 88, Type (0, 0), BuildingBlock: ZUJKAS_clean_linker_0, # of connection points: 2
#     Edge 89, Type (0, 0), BuildingBlock: ZUJKAS_clean_linker_0, # of connection points: 2
#     Edge 90, Type (0, 0), BuildingBlock: ZUJKAS_clean_linker_0, # of connection points: 2
#     Edge 91, Type (0, 0), BuildingBlock: ZUJKAS_clean_linker_0, # of connection points: 2
#     Edge 92, Type (0, 0), BuildingBlock: ZUJKAS_clean_linker_0, # of connection points: 2
#     Edge 93, Type (0, 0), BuildingBlock: ZUJKAS_clean_linker_0, # of connection points: 2
#     Edge 94, Type (0, 0), BuildingBlock: ZUJKAS_clean_linker_0, # of connection points: 2
#     Edge 95, Type (0, 0), BuildingBlock: ZUJKAS_clean_linker_0, # of connection points: 2
#     Edge 96, Type (0, 0), BuildingBlock: ZUJKAS_clean_linker_0, # of connection points: 2
#     Edge 97, Type (0, 0), BuildingBlock: ZUJKAS_clean_linker_0, # of connection points: 2
#     Edge 98, Type (0, 0), BuildingBlock: ZUJKAS_clean_linker_0, # of connection points: 2
#     Edge 99, Type (0, 0), BuildingBlock: ZUJKAS_clean_linker_0, # of connection points: 2
#     Edge 100, Type (0, 0), BuildingBlock: ZUJKAS_clean_linker_0, # of connection points: 2
#     Edge 101, Type (0, 0), BuildingBlock: ZUJKAS_clean_linker_0, # of connection points: 2
#     Edge 102, Type (0, 0), BuildingBlock: ZUJKAS_clean_linker_0, # of connection points: 2
#     Edge 103, Type (0, 0), BuildingBlock: ZUJKAS_clean_linker_0, # of connection points: 2
#     Edge 104, Type (0, 0), BuildingBlock: ZUJKAS_clean_linker_0, # of connection points: 2
#     Edge 105, Type (0, 0), BuildingBlock: ZUJKAS_clean_linker_0, # of connection points: 2
#     Edge 106, Type (0, 0), BuildingBlock: ZUJKAS_clean_linker_0, # of connection points: 2
#     Edge 107, Type (0, 0), BuildingBlock: ZUJKAS_clean_linker_0, # of connection points: 2
# Relax obj value: 0.043
# Max RMSD: 0.120
# Mean RMSD: 0.095
data_MOF--net-uml--node1-ESEHIV_clean_sbu_0--edge1-ZUJKAS_clean_linker_0
_symmetry_space_group_name_H-M    P1
_symmetry_Int_Tables_number       1
_symmetry_cell_setting            triclinic
loop_
_symmetry_equiv_pos_as_xyz
'x, y, z'
_cell_length_a     139.78755
_cell_length_b     144.55001
_cell_length_c     38.326106
_cell_angle_alpha  89.933588
_cell_angle_beta   90.103291
_cell_angle_gamma 118.9841
loop_
_atom_site_label
_atom_site_type_symbol
_atom_site_fract_x
_atom_site_fract_y
_atom_site_fract_z
_atom_type_partial_charge
Cu0 Cu 0.36586 0.10781 0.18448 0.0
N1 N 0.36934 0.12212 0.1807 0.0
N2 N 0.36785 0.13694 0.1798 0.0
C3 C 0.36309 0.12658 0.18903 0.0
C4 C 0.37756 0.13902 0.1657 0.0
C5 C 0.37841 0.12993 0.16615 0.0
O6 O 0.35865 0.10232 0.23015 0.0
C7 C 0.35289 0.10368 0.12178 0.0
O8 O 0.35135 0.11149 0.13234 0.0
H9 H 0.35499 0.12216 0.20014 0.0
H10 H 0.38508 0.129 0.15574 0.0
N11 N 0.37879 0.10678 0.18337 0.0
N12 N 0.3907 0.10103 0.17052 0.0
C13 C 0.38025 0.09918 0.16771 0.0
C14 C 0.38863 0.11364 0.19663 0.0
C15 C 0.39595 0.11013 0.1888 0.0
C16 C 0.36394 0.10743 0.25726 0.0
O17 O 0.37345 0.11593 0.25268 0.0
H18 H 0.37383 0.09257 0.15378 0.0
H19 H 0.39041 0.12079 0.21061 0.0
O20 O 0.3578 0.1003 0.14201 0.0
H21 H 0.38363 0.14656 0.15532 0.0
H22 H 0.4045 0.114 0.19618 0.0
Cu23 Cu 0.92053 0.25029 0.18776 0.0
N24 N 0.90547 0.24084 0.19084 0.0
N25 N 0.88962 0.22559 0.19013 0.0
C26 C 0.90046 0.23042 0.18319 0.0
C27 C 0.88773 0.23334 0.20218 0.0
C28 C 0.89751 0.24271 0.20265 0.0
O29 O 0.92721 0.24885 0.23154 0.0
C30 C 0.93377 0.25204 0.12628 0.0
O31 O 0.9412 0.26126 0.13834 0.0
H32 H 0.90474 0.22645 0.17308 0.0
H33 H 0.89875 0.25029 0.21168 0.0
N34 N 0.92289 0.26433 0.1868 0.0
N35 N 0.92768 0.28123 0.17381 0.0
C36 C 0.92683 0.27199 0.16199 0.0
C37 C 0.92126 0.26892 0.21497 0.0
C38 C 0.92416 0.27923 0.20716 0.0
C39 C 0.92441 0.24007 0.24705 0.0
O40 O 0.91784 0.23121 0.23098 0.0
H41 H 0.92901 0.27084 0.13592 0.0
H42 H 0.91833 0.26504 0.23986 0.0
O43 O 0.92523 0.24645 0.14438 0.0
H44 H 0.87992 0.23227 0.21116 0.0
H45 H 0.92398 0.2849 0.22517 0.0
Cu46 Cu 0.76707 0.64751 0.19121 0.0
N47 N 0.77731 0.64254 0.19429 0.0
N48 N 0.79302 0.64189 0.19881 0.0
C49 C 0.78835 0.64819 0.19628 0.0
C50 C 0.78457 0.63192 0.19816 0.0
C51 C 0.77497 0.63235 0.19534 0.0
O52 O 0.76756 0.65448 0.23631 0.0
C53 C 0.77155 0.65171 0.11965 0.0
O54 O 0.77232 0.64304 0.12297 0.0
H55 H 0.79286 0.65673 0.19533 0.0
H56 H 0.76683 0.62565 0.19415 0.0
N57 N 0.75284 0.63587 0.18969 0.0
N58 N 0.73498 0.62531 0.17859 0.0
C59 C 0.74433 0.63397 0.16847 0.0
C60 C 0.74872 0.62817 0.21388 0.0
C61 C 0.7378 0.62165 0.20705 0.0
C62 C 0.77597 0.66156 0.25225 0.0
O63 O 0.78539 0.66621 0.23587 0.0
H64 H 0.74488 0.63909 0.14701 0.0
H65 H 0.7533 0.62753 0.23563 0.0
O66 O 0.76945 0.65552 0.14693 0.0
H67 H 0.78522 0.62478 0.20018 0.0
H68 H 0.73234 0.61477 0.22217 0.0
Cu69 Cu 0.12637 0.36286 0.34818 0.0
N70 N 0.14152 0.36762 0.35104 0.0
N71 N 0.15793 0.36837 0.34887 0.0
C72 C 0.14724 0.36288 0.33965 0.0
C73 C 0.15893 0.3769 0.36635 0.0
C74 C 0.14885 0.3764 0.36767 0.0
O75 O 0.12088 0.35554 0.30275 0.0
C76 C 0.12384 0.35126 0.41224 0.0
O77 O 0.13286 0.35131 0.40248 0.0
H78 H 0.14353 0.35536 0.32617 0.0
H79 H 0.14694 0.38196 0.38056 0.0
N80 N 0.12409 0.37468 0.349 0.0
N81 N 0.11699 0.38533 0.36109 0.0
C82 C 0.11596 0.37556 0.36505 0.0
C83 C 0.1305 0.38421 0.33462 0.0
C84 C 0.12616 0.39076 0.34193 0.0
C85 C 0.12591 0.36063 0.27531 0.0
O86 O 0.1344 0.37007 0.27935 0.0
H87 H 0.10943 0.36915 0.3793 0.0
H88 H 0.13795 0.38634 0.32035 0.0
O89 O 0.1193 0.35486 0.39126 0.0
H90 H 0.1664 0.38306 0.3777 0.0
H91 H 0.1297 0.39898 0.33443 0.0
Cu92 Cu 0.66108 0.75545 0.35998 0.0
N93 N 0.65716 0.7662 0.36088 0.0
N94 N 0.65871 0.78242 0.36161 0.0
C95 C 0.66398 0.77671 0.35776 0.0
C96 C 0.64815 0.77515 0.36732 0.0
C97 C 0.64724 0.76522 0.36701 0.0
O98 O 0.66868 0.75673 0.31497 0.0
C99 C 0.67288 0.75215 0.41883 0.0
O100 O 0.67236 0.74394 0.40251 0.0
H101 H 0.6727 0.78007 0.35373 0.0
H102 H 0.63987 0.75782 0.37154 0.0
N103 N 0.64836 0.74202 0.36141 0.0
N104 N 0.63638 0.725 0.37289 0.0
C105 C 0.64641 0.73325 0.37967 0.0
C106 C 0.63923 0.73914 0.34245 0.0
C107 C 0.63186 0.72873 0.34953 0.0
C108 C 0.66441 0.75844 0.28777 0.0
O109 O 0.65555 0.75931 0.29172 0.0
H110 H 0.65214 0.73289 0.39778 0.0
H111 H 0.63804 0.74424 0.3244 0.0
O112 O 0.66944 0.75785 0.40362 0.0
H113 H 0.6415 0.77685 0.3715 0.0
H114 H 0.62387 0.72419 0.33767 0.0
Cu115 Cu 0.2633 0.8985 0.35425 0.0
N116 N 0.25249 0.8841 0.35603 0.0
N117 N 0.23604 0.86946 0.35775 0.0
C118 C 0.24153 0.88014 0.35442 0.0
C119 C 0.24391 0.86667 0.36148 0.0
C120 C 0.25399 0.87566 0.36049 0.0
O121 O 0.26141 0.90428 0.30928 0.0
C122 C 0.2628 0.90031 0.42551 0.0
O123 O 0.26462 0.89228 0.42133 0.0
H124 H 0.2377 0.88504 0.35162 0.0
H125 H 0.26184 0.876 0.36334 0.0
N126 N 0.27753 0.90008 0.3546 0.0
N127 N 0.29548 0.90662 0.36556 0.0
C128 C 0.28641 0.90752 0.37172 0.0
C129 C 0.28112 0.8943 0.33707 0.0
C130 C 0.29211 0.89827 0.34378 0.0
C131 C 0.26068 0.89879 0.28217 0.0
O132 O 0.26098 0.88993 0.28669 0.0
H133 H 0.28624 0.91356 0.38792 0.0
H134 H 0.27611 0.88763 0.32052 0.0
O135 O 0.26186 0.90489 0.39811 0.0
H136 H 0.24255 0.85868 0.36456 0.0
H137 H 0.29717 0.89513 0.33366 0.0
Cu138 Cu 0.66103 0.9047 0.85585 0.0
N139 N 0.65705 0.8902 0.85717 0.0
N140 N 0.65852 0.87539 0.85844 0.0
C141 C 0.66391 0.88609 0.85624 0.0
C142 C 0.64784 0.87273 0.86079 0.0
C143 C 0.64697 0.88183 0.86003 0.0
O144 O 0.66856 0.91039 0.81073 0.0
C145 C 0.66464 0.90587 0.92698 0.0
O146 O 0.65517 0.89721 0.92409 0.0
H147 H 0.6727 0.89091 0.85461 0.0
H148 H 0.6395 0.8823 0.86174 0.0
N149 N 0.64873 0.90679 0.85694 0.0
N150 N 0.63825 0.91436 0.86723 0.0
C151 C 0.6478 0.91445 0.87437 0.0
C152 C 0.63946 0.90169 0.83823 0.0
C153 C 0.633 0.9063 0.84454 0.0
C154 C 0.66412 0.90462 0.78382 0.0
O155 O 0.6552 0.89552 0.78825 0.0
H156 H 0.65417 0.92019 0.89101 0.0
H157 H 0.63761 0.89518 0.82065 0.0
O158 O 0.66927 0.91101 0.89921 0.0
H159 H 0.64108 0.86476 0.86263 0.0
H160 H 0.62505 0.90388 0.83315 0.0
Cu161 Cu 0.11566 0.75211 0.86043 0.0
N162 N 0.13039 0.76268 0.86009 0.0
N163 N 0.14515 0.77884 0.86013 0.0
C164 C 0.13411 0.7732 0.85775 0.0
C165 C 0.14845 0.77152 0.86404 0.0
C166 C 0.13935 0.7616 0.86403 0.0
O167 O 0.1095 0.75415 0.81643 0.0
C168 C 0.10091 0.74842 0.91984 0.0
O169 O 0.09324 0.74036 0.90272 0.0
H170 H 0.12877 0.77663 0.85533 0.0
H171 H 0.13928 0.75413 0.86716 0.0
N172 N 0.11475 0.73864 0.86003 0.0
N173 N 0.10952 0.72151 0.87017 0.0
C174 C 0.10878 0.73011 0.88047 0.0
C175 C 0.1195 0.73534 0.83631 0.0
C176 C 0.11634 0.72485 0.84245 0.0
C177 C 0.10268 0.74661 0.7972 0.0
O178 O 0.09807 0.73691 0.80946 0.0
H179 H 0.10376 0.73012 0.90184 0.0
H180 H 0.12476 0.7402 0.81549 0.0
O181 O 0.11004 0.7543 0.90495 0.0
H182 H 0.15684 0.77318 0.86665 0.0
H183 H 0.11886 0.72007 0.82745 0.0
Cu184 Cu 0.26307 0.36412 0.87588 0.0
N185 N 0.26236 0.37364 0.90711 0.0
N186 N 0.25663 0.37555 0.95973 0.0
C187 C 0.26179 0.37136 0.94129 0.0
C188 C 0.25407 0.38097 0.93625 0.0
C189 C 0.25768 0.37984 0.90375 0.0
O190 O 0.27599 0.36308 0.89166 0.0
C191 C 0.24094 0.35387 0.86948 0.0
O192 O 0.24405 0.36286 0.85309 0.0
H193 H 0.26354 0.36533 0.95139 0.0
H194 H 0.25572 0.38219 0.87913 0.0
N195 N 0.26451 0.36812 0.8288 0.0
N196 N 0.26326 0.36593 0.77079 0.0
C197 C 0.2622 0.36128 0.80222 0.0
C198 C 0.26719 0.37749 0.8139 0.0
C199 C 0.26646 0.37617 0.77809 0.0
C200 C 0.28513 0.36831 0.87582 0.0
O201 O 0.28531 0.37285 0.84598 0.0
H202 H 0.25973 0.35301 0.80614 0.0
H203 H 0.26935 0.38471 0.82805 0.0
O204 O 0.24833 0.3518 0.8808 0.0
H205 H 0.249 0.38457 0.94153 0.0
H206 H 0.26789 0.38224 0.75905 0.0
Cu207 Cu 0.90631 0.64689 0.66915 0.0
N208 N 0.89431 0.63848 0.64129 0.0
N209 N 0.88555 0.63814 0.592 0.0
C210 C 0.89518 0.64034 0.60676 0.0
C211 C 0.87821 0.63444 0.61828 0.0
C212 C 0.88364 0.63464 0.64871 0.0
O213 O 0.91861 0.64572 0.64857 0.0
C214 C 0.89885 0.66096 0.68386 0.0
O215 O 0.89281 0.65315 0.70501 0.0
H216 H 0.903 0.64494 0.59402 0.0
H217 H 0.88034 0.63352 0.67481 0.0
N218 N 0.90458 0.64277 0.71615 0.0
N219 N 0.90623 0.6446 0.77425 0.0
C220 C 0.90918 0.64951 0.74299 0.0
C221 C 0.89853 0.6332 0.73071 0.0
C222 C 0.89952 0.6343 0.76658 0.0
C223 C 0.9254 0.64414 0.66652 0.0
O224 O 0.92547 0.64508 0.7006 0.0
H225 H 0.9143 0.65794 0.73941 0.0
H226 H 0.89365 0.62598 0.7163 0.0
O227 O 0.9063 0.66046 0.66592 0.0
H228 H 0.8698 0.63278 0.6164 0.0
H229 H 0.89557 0.62799 0.78541 0.0
Cu230 Cu 0.36492 0.25405 0.6856 0.0
N231 N 0.36887 0.24338 0.68112 0.0
N232 N 0.36775 0.22735 0.67955 0.0
C233 C 0.36273 0.233 0.68873 0.0
C234 C 0.37749 0.23456 0.66619 0.0
C235 C 0.37813 0.24438 0.66716 0.0
O236 O 0.35734 0.25174 0.73097 0.0
C237 C 0.35251 0.2464 0.62182 0.0
O238 O 0.35117 0.23715 0.63169 0.0
H239 H 0.35455 0.22962 0.69927 0.0
H240 H 0.3848 0.25172 0.65762 0.0
N241 N 0.37763 0.26729 0.68676 0.0
N242 N 0.38945 0.28439 0.67636 0.0
C243 C 0.3795 0.27609 0.66903 0.0
C244 C 0.38668 0.27007 0.7059 0.0
C245 C 0.39397 0.28057 0.69956 0.0
C246 C 0.35802 0.25924 0.75027 0.0
O247 O 0.36269 0.26889 0.73762 0.0
H248 H 0.37357 0.27641 0.65162 0.0
H249 H 0.38788 0.26482 0.72328 0.0
O250 O 0.35708 0.25422 0.64281 0.0
H251 H 0.38371 0.23289 0.65608 0.0
H252 H 0.40204 0.28499 0.71096 0.0
Cu253 Cu 0.76232 0.10987 0.68685 0.0
N254 N 0.77163 0.12468 0.68461 0.0
N255 N 0.78668 0.14068 0.68301 0.0
C256 C 0.78267 0.13011 0.68702 0.0
C257 C 0.77778 0.14188 0.67804 0.0
C258 C 0.76858 0.13207 0.67897 0.0
O259 O 0.76517 0.10464 0.73155 0.0
C260 C 0.7627 0.108 0.61522 0.0
O261 O 0.7597 0.11526 0.61923 0.0
H262 H 0.78765 0.12634 0.69097 0.0
H263 H 0.76024 0.13045 0.67531 0.0
N264 N 0.7475 0.10657 0.68779 0.0
N265 N 0.72929 0.09823 0.67899 0.0
C266 C 0.73892 0.09852 0.67143 0.0
C267 C 0.74316 0.1115 0.70639 0.0
C268 C 0.73202 0.10645 0.70094 0.0
C269 C 0.76641 0.11025 0.75881 0.0
O270 O 0.76615 0.11915 0.75508 0.0
H271 H 0.73974 0.09289 0.65488 0.0
H272 H 0.74777 0.11829 0.72297 0.0
O273 O 0.76444 0.104 0.64273 0.0
H274 H 0.77784 0.14932 0.67422 0.0
H275 H 0.72642 0.10877 0.71222 0.0
Cu276 Cu 0.03182 0.43978 0.52153 0.0
N277 N 0.03544 0.45412 0.5219 0.0
N278 N 0.03366 0.46876 0.52136 0.0
C279 C 0.02843 0.45805 0.52343 0.0
C280 C 0.04437 0.4716 0.51853 0.0
C281 C 0.04543 0.4626 0.51879 0.0
O282 O 0.02386 0.43382 0.56595 0.0
C283 C 0.02111 0.42546 0.46241 0.0
O284 O 0.02179 0.41801 0.48014 0.0
H285 H 0.01965 0.45312 0.5251 0.0
H286 H 0.05296 0.46227 0.5164 0.0
N287 N 0.04482 0.4388 0.52097 0.0
N288 N 0.05734 0.4337 0.50924 0.0
C289 C 0.04763 0.43296 0.50004 0.0
C290 C 0.05311 0.44347 0.54387 0.0
C291 C 0.0608 0.44037 0.53677 0.0
C292 C 0.02604 0.42815 0.58676 0.0
O293 O 0.03256 0.42459 0.57601 0.0
H294 H 0.04255 0.42808 0.47901 0.0
H295 H 0.05342 0.44863 0.56478 0.0
O296 O 0.024 0.43437 0.47693 0.0
H297 H 0.05102 0.47962 0.5165 0.0
H298 H 0.06836 0.44286 0.55095 0.0
Cu299 Cu 0.57583 0.58783 0.51768 0.0
N300 N 0.56123 0.57673 0.51932 0.0
N301 N 0.54668 0.56041 0.51874 0.0
C302 C 0.55772 0.56623 0.51724 0.0
C303 C 0.54313 0.56756 0.52164 0.0
C304 C 0.55207 0.57755 0.52191 0.0
O305 O 0.58266 0.58815 0.56328 0.0
C306 C 0.57673 0.5846 0.44692 0.0
O307 O 0.56719 0.58422 0.45008 0.0
H308 H 0.56316 0.56295 0.51394 0.0
H309 H 0.55184 0.5849 0.52357 0.0
N310 N 0.57633 0.60106 0.514 0.0
N311 N 0.58183 0.61798 0.49984 0.0
C312 C 0.58301 0.60936 0.49371 0.0
C313 C 0.5709 0.60463 0.53394 0.0
C314 C 0.57417 0.61498 0.52509 0.0
C315 C 0.58208 0.5802 0.57971 0.0
O316 O 0.57809 0.57105 0.56365 0.0
H317 H 0.58873 0.60912 0.47522 0.0
H318 H 0.56523 0.60013 0.55443 0.0
O319 O 0.58249 0.58609 0.47447 0.0
H320 H 0.53468 0.56572 0.52385 0.0
H321 H 0.57144 0.62003 0.53734 0.0
Cu322 Cu 0.43659 0.98258 0.52114 0.0
N323 N 0.44656 0.97733 0.52147 0.0
N324 N 0.46216 0.97651 0.52504 0.0
C325 C 0.45713 0.98231 0.53187 0.0
C326 C 0.45442 0.96756 0.50991 0.0
C327 C 0.44486 0.96811 0.50768 0.0
O328 O 0.43861 0.9904 0.56579 0.0
C329 C 0.43472 0.99458 0.46091 0.0
O330 O 0.42696 0.99542 0.47744 0.0
H331 H 0.46116 0.99018 0.54295 0.0
H332 H 0.43728 0.96229 0.49593 0.0
N333 N 0.42221 0.97099 0.51968 0.0
N334 N 0.40435 0.96029 0.50829 0.0
C335 C 0.41323 0.96986 0.50243 0.0
C336 C 0.41886 0.96178 0.53666 0.0
C337 C 0.40795 0.95522 0.52979 0.0
C338 C 0.43876 0.98552 0.5936 0.0
O339 O 0.43766 0.97602 0.59019 0.0
H340 H 0.41315 0.97593 0.48616 0.0
H341 H 0.42404 0.95988 0.55268 0.0
O342 O 0.43975 0.99036 0.47641 0.0
H343 H 0.45558 0.9611 0.50076 0.0
H344 H 0.4031 0.94723 0.53942 0.0
Cu345 Cu 0.78828 0.68956 0.68994 0.0
N346 N 0.80349 0.69516 0.68454 0.0
N347 N 0.82008 0.69637 0.67984 0.0
C348 C 0.80938 0.69004 0.68759 0.0
C349 C 0.82092 0.70584 0.67197 0.0
C350 C 0.81072 0.70507 0.67483 0.0
O351 O 0.78135 0.68171 0.64638 0.0
C352 C 0.77565 0.67944 0.75303 0.0
O353 O 0.76775 0.68065 0.73895 0.0
H354 H 0.80586 0.68183 0.69522 0.0
H355 H 0.8087 0.71127 0.66955 0.0
N356 N 0.78504 0.70082 0.69023 0.0
N357 N 0.77809 0.71165 0.70154 0.0
C358 C 0.78042 0.70423 0.71456 0.0
C359 C 0.78578 0.70642 0.66134 0.0
C360 C 0.78157 0.71307 0.66815 0.0
C361 C 0.78427 0.67596 0.6289 0.0
O362 O 0.79115 0.67329 0.643 0.0
H363 H 0.7784 0.70107 0.74071 0.0
H364 H 0.78887 0.70545 0.63653 0.0
O365 O 0.78429 0.68194 0.73523 0.0
H366 H 0.82831 0.71279 0.66369 0.0
H367 H 0.78095 0.71842 0.64966 0.0
Cu368 Cu 0.32561 0.08742 0.69001 0.0
N369 N 0.32142 0.09798 0.68902 0.0
N370 N 0.32299 0.1142 0.68908 0.0
C371 C 0.32806 0.1084 0.68308 0.0
C372 C 0.31275 0.1071 0.69902 0.0
C373 C 0.31184 0.09717 0.69918 0.0
O374 O 0.33337 0.0886 0.64551 0.0
C375 C 0.33807 0.08539 0.74945 0.0
O376 O 0.33872 0.07775 0.73299 0.0
H377 H 0.33661 0.1117 0.67631 0.0
H378 H 0.30481 0.08994 0.70767 0.0
N379 N 0.31311 0.07383 0.69322 0.0
N380 N 0.30177 0.05679 0.70682 0.0
C381 C 0.31203 0.06507 0.70965 0.0
C382 C 0.30318 0.07091 0.67946 0.0
C383 C 0.29622 0.0605 0.68775 0.0
C384 C 0.32776 0.08728 0.61768 0.0
O385 O 0.31758 0.08526 0.62097 0.0
H386 H 0.31856 0.0648 0.72389 0.0
H387 H 0.30109 0.076 0.66437 0.0
O388 O 0.33381 0.09035 0.73409 0.0
H389 H 0.3064 0.10894 0.70641 0.0
H390 H 0.28774 0.05597 0.67992 0.0
Cu391 Cu 0.92988 0.23916 0.69157 0.0
N392 N 0.91546 0.23699 0.68874 0.0
N393 N 0.8971 0.2276 0.68714 0.0
C394 C 0.90656 0.22736 0.69203 0.0
C395 C 0.90024 0.23787 0.6804 0.0
C396 C 0.91154 0.24362 0.68135 0.0
O397 O 0.9327 0.23523 0.64481 0.0
C398 C 0.92688 0.23478 0.76065 0.0
O399 O 0.92326 0.24153 0.75552 0.0
H400 H 0.9071 0.22025 0.69699 0.0
H401 H 0.91651 0.25199 0.67639 0.0
N402 N 0.94118 0.253 0.70042 0.0
N403 N 0.95822 0.26528 0.71555 0.0
C404 C 0.9515 0.25505 0.70706 0.0
C405 C 0.94127 0.26227 0.70495 0.0
C406 C 0.95177 0.26986 0.71417 0.0
C407 C 0.93366 0.24194 0.6213 0.0
O408 O 0.93314 0.25039 0.63113 0.0
H409 H 0.95388 0.24895 0.70692 0.0
H410 H 0.93421 0.2634 0.70255 0.0
O411 O 0.93031 0.23178 0.73431 0.0
H412 H 0.89479 0.24105 0.67511 0.0
H413 H 0.95436 0.27807 0.71968 0.0
Cu414 Cu 0.32895 0.23923 0.18745 0.0
N415 N 0.32395 0.2246 0.18676 0.0
N416 N 0.32451 0.20933 0.18744 0.0
C417 C 0.33028 0.21996 0.18336 0.0
C418 C 0.31413 0.20725 0.19354 0.0
C419 C 0.31383 0.21665 0.19319 0.0
O420 O 0.33745 0.2446 0.14381 0.0
C421 C 0.34079 0.25246 0.24841 0.0
O422 O 0.34177 0.26086 0.23204 0.0
H423 H 0.33903 0.22437 0.1794 0.0
H424 H 0.30676 0.21764 0.19827 0.0
N425 N 0.31697 0.24188 0.18734 0.0
N426 N 0.30597 0.24889 0.19769 0.0
C427 C 0.31554 0.24913 0.20563 0.0
C428 C 0.30801 0.23695 0.16712 0.0
C429 C 0.30122 0.24119 0.1735 0.0
C430 C 0.33643 0.25093 0.12276 0.0
O431 O 0.33082 0.25558 0.13278 0.0
H432 H 0.32133 0.25444 0.22454 0.0
H433 H 0.30658 0.23076 0.14863 0.0
O434 O 0.3366 0.2436 0.23255 0.0
H435 H 0.30724 0.19949 0.19824 0.0
H436 H 0.2935 0.23893 0.16067 0.0
Cu437 Cu 0.78269 0.08866 0.18809 0.0
N438 N 0.79764 0.09851 0.18626 0.0
N439 N 0.81309 0.11413 0.1851 0.0
C440 C 0.80203 0.10913 0.18701 0.0
C441 C 0.81568 0.10627 0.18308 0.0
C442 C 0.80617 0.09668 0.18383 0.0
O443 O 0.77657 0.09131 0.14478 0.0
C444 C 0.76886 0.0858 0.24937 0.0
O445 O 0.76094 0.07764 0.23341 0.0
H446 H 0.79716 0.11306 0.18931 0.0
H447 H 0.80554 0.08894 0.18261 0.0
N448 N 0.78094 0.07485 0.18734 0.0
N449 N 0.7753 0.0577 0.19835 0.0
C450 C 0.77543 0.06665 0.20949 0.0
C451 C 0.78457 0.07095 0.16181 0.0
C452 C 0.78109 0.06043 0.1684 0.0
C453 C 0.77051 0.08409 0.12311 0.0
O454 O 0.76641 0.07415 0.1324 0.0
H455 H 0.77136 0.06714 0.23278 0.0
H456 H 0.7892 0.07542 0.13939 0.0
O457 O 0.77784 0.09144 0.2333 0.0
H458 H 0.82386 0.10731 0.18071 0.0
H459 H 0.78268 0.05519 0.15224 0.0
Cu460 Cu 0.92854 0.69366 0.21328 0.0
N461 N 0.92429 0.70145 0.24172 0.0
N462 N 0.91561 0.70112 0.29109 0.0
C463 C 0.92337 0.69945 0.27617 0.0
C464 C 0.91166 0.7046 0.265 0.0
C465 C 0.91705 0.70481 0.23452 0.0
O466 O 0.94257 0.69562 0.23174 0.0
C467 C 0.9073 0.67883 0.19809 0.0
O468 O 0.9088 0.68649 0.17663 0.0
H469 H 0.92697 0.69515 0.2887 0.0
H470 H 0.91474 0.70586 0.20848 0.0
N471 N 0.93067 0.69779 0.16631 0.0
N472 N 0.93032 0.69581 0.10834 0.0
C473 C 0.92919 0.69115 0.13971 0.0
C474 C 0.93299 0.70707 0.15136 0.0
C475 C 0.93282 0.70588 0.11551 0.0
C476 C 0.94987 0.70535 0.23415 0.0
O477 O 0.94722 0.71254 0.22442 0.0
H478 H 0.92702 0.68294 0.14346 0.0
H479 H 0.93436 0.71409 0.16547 0.0
O480 O 0.91538 0.6797 0.2163 0.0
H481 H 0.90464 0.70583 0.26701 0.0
H482 H 0.93398 0.71183 0.09629 0.0
Cu483 Cu 0.57212 0.97909 1.00316 0.0
N484 N 0.56055 0.97092 0.9735 0.0
N485 N 0.55339 0.97256 0.92311 0.0
C486 C 0.56233 0.97347 0.93954 0.0
C487 C 0.54543 0.96876 0.94744 0.0
C488 C 0.54987 0.96776 0.9786 0.0
O489 O 0.58472 0.97823 0.98371 0.0
C490 C 0.56463 0.99321 1.0182 0.0
O491 O 0.55837 0.98532 0.03875 0.0
H492 H 0.57051 0.97796 0.92898 0.0
H493 H 0.54609 0.96663 1.00397 0.0
N494 N 0.56999 0.97474 0.04982 0.0
N495 N 0.57154 0.97666 0.10785 0.0
C496 C 0.57472 0.98147 0.07654 0.0
C497 C 0.56359 0.96525 0.06447 0.0
C498 C 0.56452 0.96642 0.10036 0.0
C499 C 0.59133 0.97649 1.00198 0.0
O500 O 0.59102 0.97702 0.03612 0.0
H501 H 0.58007 0.98985 0.07279 0.0
H502 H 0.55849 0.95807 0.05014 0.0
O503 O 0.57213 0.99269 1.00059 0.0
H504 H 0.53754 0.96836 0.94445 0.0
H505 H 0.5603 0.9602 0.11933 0.0
Cu506 Cu 0.03228 0.58506 1.01657 0.0
N507 N 0.03543 0.57385 1.01115 0.0
N508 N 0.03354 0.55752 1.00918 0.0
C509 C 0.02961 0.56372 0.02229 0.0
C510 C 0.04222 0.56405 0.9895 0.0
C511 C 0.04335 0.57406 0.99078 0.0
O512 O 0.02505 0.58335 0.06254 0.0
C513 C 0.01924 0.57755 0.95411 0.0
O514 O 0.01756 0.5682 0.96425 0.0
H515 H 0.02229 0.56084 0.038 0.0
H516 H 0.0493 0.58095 0.97674 0.0
N517 N 0.04543 0.59798 1.01546 0.0
N518 N 0.05752 0.61498 1.00442 0.0
C519 C 0.04713 0.60707 1.00004 0.0
C520 C 0.05507 0.60018 0.02993 0.0
C521 C 0.06252 0.61062 0.02322 0.0
C522 C 0.02809 0.59089 0.08467 0.0
O523 O 0.03541 0.60047 0.07517 0.0
H524 H 0.04078 0.60786 0.9864 0.0
H525 H 0.05656 0.59457 0.04437 0.0
O526 O 0.02423 0.58542 0.97466 0.0
H527 H 0.04729 0.56172 0.97467 0.0
H528 H 0.071 0.61461 0.03125 0.0
Cu529 Cu 0.42654 0.43499 0.02451 0.0
N530 N 0.43616 0.44961 0.02617 0.0
N531 N 0.45203 0.4649 0.02665 0.0
C532 C 0.44717 0.45422 0.02469 0.0
C533 C 0.44365 0.46704 0.02946 0.0
C534 C 0.43391 0.45763 0.02915 0.0
O535 O 0.42987 0.42954 0.0676 0.0
C536 C 0.42461 0.42181 0.96338 0.0
O537 O 0.41685 0.41364 0.97978 0.0
H538 H 0.45149 0.44976 1.02181 0.0
H539 H 0.42578 0.45671 0.03106 0.0
N540 N 0.41183 0.43214 0.026 0.0
N541 N 0.39364 0.42452 1.01787 0.0
C542 C 0.40323 0.42559 1.00581 0.0
C543 C 0.40751 0.4354 0.05132 0.0
C544 C 0.39636 0.43075 0.04643 0.0
C545 C 0.42265 0.42257 0.08757 0.0
O546 O 0.41251 0.41724 0.07643 0.0
H547 H 0.40391 0.42137 0.98355 0.0
H548 H 0.41212 0.44053 0.07265 0.0
O549 O 0.42969 0.43066 0.97917 0.0
H550 H 0.44444 0.47483 0.03206 0.0
H551 H 0.39068 0.43179 0.06297 0.0
Cu552 Cu 0.701 0.77468 0.85775 0.0
N553 N 0.7046 0.78905 0.85779 0.0
N554 N 0.70283 0.8037 0.85697 0.0
C555 C 0.69758 0.79298 0.85812 0.0
C556 C 0.71357 0.80656 0.85601 0.0
C557 C 0.71463 0.79756 0.85651 0.0
O558 O 0.69279 0.76877 0.90173 0.0
C559 C 0.69784 0.77393 0.78594 0.0
O560 O 0.70691 0.78295 0.78949 0.0
H561 H 0.68878 0.78804 0.85847 0.0
H562 H 0.7222 0.79726 0.85559 0.0
N563 N 0.71378 0.77336 0.85811 0.0
N564 N 0.72546 0.76714 0.84812 0.0
C565 C 0.71586 0.76667 0.83905 0.0
C566 C 0.72238 0.77826 0.8798 0.0
C567 C 0.72957 0.77447 0.87372 0.0
C568 C 0.69494 0.76329 0.9234 0.0
O569 O 0.70173 0.7599 0.91402 0.0
H570 H 0.71025 0.76129 0.81981 0.0
H571 H 0.72321 0.784 0.89933 0.0
O572 O 0.69334 0.7685 0.81336 0.0
H573 H 0.72024 0.8146 0.85526 0.0
H574 H 0.73722 0.7769 0.88728 0.0
Cu575 Cu 0.24203 0.91928 0.84966 0.0
N576 N 0.22736 0.90846 0.8495 0.0
N577 N 0.21282 0.89213 0.84986 0.0
C578 C 0.22377 0.89804 0.85466 0.0
C579 C 0.20945 0.89918 0.84143 0.0
C580 C 0.2184 0.90918 0.84104 0.0
O581 O 0.24838 0.91822 0.89494 0.0
C582 C 0.25714 0.92202 0.79171 0.0
O583 O 0.26507 0.9299 0.80873 0.0
H584 H 0.22918 0.89486 0.86055 0.0
H585 H 0.21838 0.91642 0.83409 0.0
N586 N 0.24282 0.93273 0.84662 0.0
N587 N 0.24826 0.94978 0.83383 0.0
C588 C 0.25023 0.94154 0.8297 0.0
C589 C 0.23598 0.93558 0.86198 0.0
C590 C 0.23928 0.94599 0.85417 0.0
C591 C 0.24293 0.91804 0.92205 0.0
O592 O 0.23388 0.91853 0.91736 0.0
H593 H 0.25687 0.9419 0.81439 0.0
H594 H 0.22906 0.93045 0.87799 0.0
O595 O 0.24785 0.91666 0.80628 0.0
H596 H 0.20113 0.89729 0.83561 0.0
H597 H 0.23544 0.95048 0.86341 0.0
Cu598 Cu 0.10198 0.32126 0.84444 0.0
N599 N 0.11116 0.31512 0.84688 0.0
N600 N 0.12627 0.31356 0.85427 0.0
C601 C 0.12131 0.31944 0.86078 0.0
C602 C 0.11889 0.30523 0.83551 0.0
C603 C 0.10967 0.30625 0.83082 0.0
O604 O 0.1042 0.32915 0.88881 0.0
C605 C 0.10199 0.33395 0.78359 0.0
O606 O 0.09452 0.33547 0.79916 0.0
H607 H 0.12505 0.32691 0.87457 0.0
H608 H 0.10257 0.30113 0.81539 0.0
N609 N 0.08717 0.31051 0.84097 0.0
N610 N 0.06906 0.30168 0.83005 0.0
C611 C 0.07838 0.31113 0.82887 0.0
C612 C 0.08321 0.30033 0.85022 0.0
C613 C 0.07215 0.2949 0.84352 0.0
C614 C 0.10138 0.32349 0.91658 0.0
O615 O 0.09708 0.3132 0.91313 0.0
H616 H 0.07877 0.31838 0.81982 0.0
H617 H 0.08804 0.29703 0.86115 0.0
O618 O 0.10627 0.32914 0.79989 0.0
H619 H 0.12023 0.29908 0.82437 0.0
H620 H 0.06686 0.28653 0.84778 0.0
Cu621 Cu 0.45653 0.02542 0.0254 0.0
N622 N 0.47165 0.03021 0.0296 0.0
N623 N 0.48808 0.03098 0.02889 0.0
C624 C 0.47746 0.02552 1.01881 0.0
C625 C 0.48893 0.03947 0.04631 0.0
C626 C 0.47883 0.03896 0.04674 0.0
O627 O 0.45145 0.01813 0.97959 0.0
C628 C 0.4536 0.01332 0.08846 0.0
O629 O 0.46224 0.01283 0.07754 0.0
H630 H 0.47387 0.01803 1.00513 0.0
H631 H 0.4768 0.04447 0.05933 0.0
N632 N 0.45433 0.03729 0.02551 0.0
N633 N 0.44775 0.04835 0.03773 0.0
C634 C 0.44642 0.03848 0.04188 0.0
C635 C 0.46082 0.0467 1.01049 0.0
C636 C 0.4568 0.05349 1.01787 0.0
C637 C 0.45705 0.02307 0.95271 0.0
O638 O 0.46572 0.03234 0.95756 0.0
H639 H 0.44001 0.03231 0.05724 0.0
H640 H 0.46811 0.04857 0.99567 0.0
O641 O 0.44932 0.0174 0.06839 0.0
H642 H 0.4963 0.04561 0.05821 0.0
H643 H 0.4603 0.06161 1.00912 0.0
Cu644 Cu 0.99456 0.4184 0.02648 0.0
N645 N 0.98992 0.42868 0.02691 0.0
N646 N 0.99086 0.44464 0.02672 0.0
C647 C 0.99654 0.43927 0.02779 0.0
C648 C 0.98025 0.43711 0.0253 0.0
C649 C 0.97969 0.4273 0.02563 0.0
O650 O 1.00254 0.42029 0.98163 0.0
C651 C 1.00658 0.41581 0.08623 0.0
O652 O 1.00703 0.40812 0.06942 0.0
H653 H 1.00538 0.44295 0.02847 0.0
H654 H 0.97233 0.41972 0.02479 0.0
N655 N 0.98248 0.40449 0.02695 0.0
N656 N 0.97191 0.38698 0.0359 0.0
C657 C 0.98104 0.39593 0.04563 0.0
C658 C 0.97388 0.40077 1.005 0.0
C659 C 0.9674 0.39007 1.01044 0.0
C660 C 0.99825 0.42198 0.9544 0.0
O661 O 0.98916 0.42244 0.95819 0.0
H662 H 0.98672 0.39616 0.06513 0.0
H663 H 0.97253 0.40547 0.98567 0.0
O664 O 1.00262 0.42106 0.07096 0.0
H665 H 0.97336 0.43858 0.02444 0.0
H666 H 0.95995 0.38497 0.99642 0.0
Cu667 Cu 0.59466 0.56775 1.01868 0.0
N668 N 0.5839 0.55342 1.01527 0.0
N669 N 0.56759 0.53863 1.01601 0.0
C670 C 0.57309 0.54919 1.0219 0.0
C671 C 0.57529 0.53615 1.0055 0.0
C672 C 0.58529 0.54525 1.00505 0.0
O673 O 0.59437 0.57479 0.97464 0.0
C674 C 0.59819 0.58128 0.07951 0.0
O675 O 0.60718 0.58836 0.06421 0.0
H676 H 0.56936 0.55379 0.03088 0.0
H677 H 0.59302 0.54587 0.99743 0.0
N678 N 0.60868 0.56886 1.02009 0.0
N679 N 0.62627 0.57394 0.03269 0.0
C680 C 0.6168 0.57337 0.04401 0.0
C681 C 0.61316 0.56646 0.99299 0.0
C682 C 0.62391 0.56952 1.00063 0.0
C683 C 0.58582 0.57254 0.95658 0.0
O684 O 0.57617 0.56637 0.97017 0.0
H685 H 0.61587 0.57634 0.0689 0.0
H686 H 0.60901 0.56313 0.96862 0.0
O687 O 0.59176 0.57286 0.06301 0.0
H688 H 0.57379 0.52836 0.99783 0.0
H689 H 0.62968 0.569 0.98304 0.0
Cu690 Cu 0.99383 0.57058 0.5219 0.0
N691 N 0.98902 0.55596 0.52239 0.0
N692 N 0.98986 0.54082 0.52311 0.0
C693 C 0.99552 0.55148 0.51991 0.0
C694 C 0.97936 0.53855 0.52779 0.0
C695 C 0.97888 0.54787 0.52744 0.0
O696 O 1.00175 0.5761 0.47714 0.0
C697 C 1.00641 0.58419 0.58161 0.0
O698 O 1.00738 0.59259 0.56525 0.0
H699 H 1.0043 0.55604 0.5168 0.0
H700 H 0.97166 0.54869 0.53115 0.0
N701 N 0.98188 0.57331 0.52314 0.0
N702 N 0.97151 0.58105 0.53309 0.0
C703 C 0.98094 0.58095 0.54075 0.0
C704 C 0.97269 0.56839 0.50394 0.0
C705 C 0.96631 0.5731 0.50999 0.0
C706 C 0.9971 0.57052 0.45002 0.0
O707 O 0.98772 0.56184 0.45408 0.0
H708 H 0.98715 0.58652 0.55808 0.0
H709 H 0.97079 0.56189 0.4863 0.0
O710 O 1.00196 0.57527 0.56611 0.0
H711 H 0.97247 0.53072 0.53126 0.0
H712 H 0.95844 0.57082 0.49819 0.0
Cu713 Cu 0.44892 0.42028 0.52373 0.0
N714 N 0.46362 0.43103 0.52394 0.0
N715 N 0.47838 0.4472 0.52377 0.0
C716 C 0.46731 0.44156 0.52288 0.0
C717 C 0.48172 0.43986 0.5254 0.0
C718 C 0.47264 0.42994 0.52553 0.0
O719 O 0.44268 0.42231 0.47983 0.0
C720 C 0.44768 0.42078 0.59542 0.0
O721 O 0.45644 0.41981 0.59039 0.0
H722 H 0.46194 0.44499 0.52199 0.0
H723 H 0.47263 0.42247 0.52687 0.0
N724 N 0.44803 0.40687 0.52263 0.0
N725 N 0.44247 0.38973 0.53344 0.0
C726 C 0.44141 0.39829 0.54188 0.0
C727 C 0.45343 0.40364 0.50122 0.0
C728 C 0.45007 0.39313 0.50786 0.0
C729 C 0.43605 0.41472 0.46033 0.0
O730 O 0.43167 0.405 0.47227 0.0
H731 H 0.43575 0.3983 0.56109 0.0
H732 H 0.45933 0.40857 0.48187 0.0
O733 O 0.44249 0.42126 0.56853 0.0
H734 H 0.49012 0.44148 0.52606 0.0
H735 H 0.45307 0.38841 0.49486 0.0
Cu736 Cu 0.59711 0.03069 0.53844 0.0
N737 N 0.59282 0.03827 0.56765 0.0
N738 N 0.58399 0.03588 0.61831 0.0
C739 C 0.5926 0.03609 0.6018 0.0
C740 C 0.57888 0.03864 0.59388 0.0
C741 C 0.58433 0.04007 0.56254 0.0
O742 O 0.61141 0.03305 0.55552 0.0
C743 C 0.57594 0.01485 0.52462 0.0
O744 O 0.57687 0.0219 0.50137 0.0
H745 H 0.59738 0.03271 0.61267 0.0
H746 H 0.58117 0.04049 0.53716 0.0
N747 N 0.59865 0.03464 0.49144 0.0
N748 N 0.5977 0.0322 0.4337 0.0
C749 C 0.5975 0.02799 0.46527 0.0
C750 C 0.59985 0.04351 0.47601 0.0
C751 C 0.59931 0.04203 0.44023 0.0
C752 C 0.61873 0.04279 0.55593 0.0
O753 O 0.61595 0.0498 0.54509 0.0
H754 H 0.59607 0.02001 0.46951 0.0
H755 H 0.60061 0.05036 0.48977 0.0
O756 O 0.58431 0.01652 0.54286 0.0
H757 H 0.57091 0.03804 0.59708 0.0
H758 H 0.59951 0.04754 0.4207 0.0
Cu759 Cu 0.24046 0.31635 0.33198 0.0
N760 N 0.2283 0.30904 0.30341 0.0
N761 N 0.22026 0.31034 0.25449 0.0
C762 C 0.22945 0.31121 0.26908 0.0
C763 C 0.21288 0.30715 0.28064 0.0
C764 C 0.21787 0.30636 0.31083 0.0
O765 O 0.25211 0.31368 0.31419 0.0
C766 C 0.23552 0.33232 0.34622 0.0
O767 O 0.2294 0.32526 0.36944 0.0
H768 H 0.23739 0.3152 0.25662 0.0
H769 H 0.21463 0.3055 0.33694 0.0
N770 N 0.23803 0.31225 0.37896 0.0
N771 N 0.23926 0.31431 0.43703 0.0
C772 C 0.24366 0.31858 0.40577 0.0
C773 C 0.2299 0.30352 0.39358 0.0
C774 C 0.23064 0.30476 0.42941 0.0
C775 C 0.2493 0.30386 0.31189 0.0
O776 O 0.23932 0.29692 0.32131 0.0
H777 H 0.25056 0.32639 0.40209 0.0
H778 H 0.22359 0.29697 0.3792 0.0
O779 O 0.24216 0.33063 0.32788 0.0
H780 H 0.20489 0.3066 0.27902 0.0
H781 H 0.22491 0.29929 0.44815 0.0
Cu782 Cu 0.69991 0.92204 0.35404 0.0
N783 N 0.70416 0.91156 0.35489 0.0
N784 N 0.703 0.89552 0.35494 0.0
C785 C 0.69744 0.90101 0.35637 0.0
C786 C 0.71364 0.90296 0.35254 0.0
C787 C 0.71432 0.91281 0.3525 0.0
O788 O 0.69158 0.92004 0.39771 0.0
C789 C 0.68889 0.92565 0.29445 0.0
O790 O 0.68962 0.93392 0.31104 0.0
H791 H 0.68863 0.89745 0.35759 0.0
H792 H 0.7217 0.92036 0.35046 0.0
N793 N 0.71248 0.93554 0.35404 0.0
N794 N 0.72422 0.95266 0.34341 0.0
C795 C 0.7151 0.94388 0.33267 0.0
C796 C 0.72033 0.93913 0.37866 0.0
C797 C 0.72753 0.94965 0.37229 0.0
C798 C 0.69309 0.92759 0.4183 0.0
O799 O 0.69915 0.93739 0.40772 0.0
H800 H 0.71027 0.94367 0.31038 0.0
H801 H 0.72059 0.9345 0.40046 0.0
O802 O 0.69197 0.91969 0.30965 0.0
H803 H 0.72048 0.90144 0.35107 0.0
H804 H 0.7346 0.95471 0.388 0.0
Cu805 Cu 0.09369 0.76751 0.36041 0.0
N806 N 0.10389 0.78207 0.35967 0.0
N807 N 0.12001 0.79709 0.3585 0.0
C808 C 0.11489 0.7864 0.36083 0.0
C809 C 0.11184 0.79953 0.35585 0.0
C810 C 0.10196 0.79029 0.35655 0.0
O811 O 0.09678 0.76216 0.40423 0.0
C812 C 0.09407 0.76636 0.28886 0.0
O813 O 0.09167 0.77398 0.29429 0.0
H814 H 0.11904 0.78174 0.36257 0.0
H815 H 0.09394 0.78963 0.35443 0.0
N816 N 0.07921 0.76522 0.36179 0.0
N817 N 0.06117 0.75819 0.35197 0.0
C818 C 0.07042 0.75778 0.34439 0.0
C819 C 0.07537 0.77043 0.38128 0.0
C820 C 0.06431 0.76618 0.37517 0.0
C821 C 0.08938 0.75569 0.42491 0.0
O822 O 0.07915 0.75092 0.41441 0.0
H823 H 0.07083 0.75222 0.32638 0.0
H824 H 0.08027 0.77682 0.39902 0.0
O825 O 0.09541 0.76177 0.31553 0.0
H826 H 0.11289 0.80743 0.35375 0.0
H827 H 0.05895 0.76864 0.38747 0.0
H828 H 0.31615 0.07885 0.5584 0.0
H829 H 0.32256 0.08122 0.49841 0.0
H830 H 0.35576 0.10041 0.53394 0.0
H831 H 0.34933 0.09775 0.59479 0.0
H832 H 0.33184 0.09845 0.46115 0.0
H833 H 0.36034 0.08203 0.46559 0.0
H834 H 0.35107 0.08025 0.50085 0.0
H835 H 0.36369 0.09247 0.49651 0.0
C836 C 0.32486 0.08347 0.55367 0.0
C837 C 0.33222 0.0881 0.58165 0.0
C838 C 0.32852 0.08485 0.51912 0.0
C839 C 0.33968 0.09094 0.51117 0.0
C840 C 0.34713 0.09546 0.5391 0.0
H841 H 0.37531 0.1153 0.31765 0.0
H842 H 0.36907 0.11074 0.37764 0.0
C843 C 0.34345 0.09398 0.574 0.0
C844 C 0.34324 0.0929 0.4736 0.0
H845 H 0.36047 0.09115 0.41367 0.0
C846 C 0.33805 0.09676 0.45084 0.0
C847 C 0.35134 0.09073 0.4597 0.0
C848 C 0.35686 0.08604 0.48182 0.0
C849 C 0.34082 0.09864 0.41518 0.0
C850 C 0.34897 0.09655 0.4014 0.0
C851 C 0.35418 0.09271 0.42405 0.0
C852 C 0.35263 0.09889 0.36413 0.0
C853 C 0.3352 0.10314 0.39268 0.0
C854 C 0.34553 0.09365 0.33602 0.0
C855 C 0.34911 0.09623 0.30119 0.0
C856 C 0.35986 0.10413 0.29376 0.0
C857 C 0.36695 0.10921 0.32208 0.0
C858 C 0.36341 0.10659 0.35663 0.0
H859 H 0.33074 0.10627 0.4085 0.0
H860 H 0.34121 0.1096 0.37585 0.0
H861 H 0.32919 0.09683 0.37543 0.0
H862 H 0.33721 0.08757 0.34101 0.0
H863 H 0.34344 0.09212 0.28017 0.0
H864 H 0.9415 0.2572 0.57175 0.0
H865 H 0.9411 0.25528 0.50868 0.0
H866 H 0.92777 0.22158 0.52002 0.0
H867 H 0.92802 0.22347 0.58406 0.0
H868 H 0.95062 0.24749 0.46309 0.0
H869 H 0.90529 0.22364 0.45646 0.0
H870 H 0.91236 0.23048 0.4956 0.0
H871 H 0.91204 0.21834 0.48331 0.0
C872 C 0.93854 0.24935 0.56104 0.0
C873 C 0.93471 0.24047 0.58317 0.0
C874 C 0.93834 0.24827 0.52476 0.0
C875 C 0.93423 0.23828 0.50927 0.0
C876 C 0.9308 0.22938 0.53121 0.0
H877 H 0.91979 0.22265 0.28692 0.0
H878 H 0.92288 0.22186 0.34938 0.0
C879 C 0.93105 0.23047 0.56786 0.0
C880 C 0.93332 0.23739 0.47028 0.0
H881 H 0.9148 0.22801 0.40323 0.0
C882 C 0.94278 0.24316 0.45003 0.0
C883 C 0.92311 0.23178 0.45298 0.0
C884 C 0.91259 0.22576 0.47307 0.0
C885 C 0.94232 0.24352 0.41331 0.0
C886 C 0.93208 0.23816 0.39608 0.0
C887 C 0.92266 0.23217 0.41625 0.0
C888 C 0.9309 0.23879 0.35734 0.0
C889 C 0.95286 0.24961 0.39333 0.0
C890 C 0.93441 0.24857 0.34052 0.0
C891 C 0.93269 0.24906 0.30454 0.0
C892 C 0.92734 0.23976 0.28448 0.0
C893 C 0.92398 0.23 0.30133 0.0
C894 C 0.92571 0.22952 0.33722 0.0
H895 H 0.95999 0.25045 0.40865 0.0
H896 H 0.95259 0.24569 0.36816 0.0
H897 H 0.95416 0.25767 0.3877 0.0
H898 H 0.93821 0.25585 0.35539 0.0
H899 H 0.93529 0.25672 0.29269 0.0
H900 H 0.77652 0.68561 0.58338 0.0
H901 H 0.77401 0.68311 0.52017 0.0
H902 H 0.78266 0.65827 0.52535 0.0
H903 H 0.78562 0.66106 0.5882 0.0
H904 H 0.793 0.6703 0.47415 0.0
H905 H 0.75029 0.66223 0.4604 0.0
H906 H 0.75871 0.6747 0.4812 0.0
H907 H 0.75633 0.66263 0.50236 0.0
C908 C 0.77769 0.67947 0.57118 0.0
C909 C 0.78122 0.6735 0.59116 0.0
C910 C 0.7762 0.67801 0.53483 0.0
C911 C 0.77796 0.67036 0.51748 0.0
C912 C 0.78122 0.66423 0.53768 0.0
H913 H 0.75985 0.64966 0.29985 0.0
H914 H 0.76027 0.65191 0.36333 0.0
C915 C 0.78287 0.66579 0.57385 0.0
C916 C 0.77711 0.66917 0.47828 0.0
H917 H 0.76063 0.66597 0.40773 0.0
C918 C 0.78587 0.6693 0.4598 0.0
C919 C 0.76779 0.6677 0.45901 0.0
C920 C 0.7577 0.66669 0.47679 0.0
C921 C 0.78564 0.66812 0.4232 0.0
C922 C 0.77655 0.66715 0.40375 0.0
C923 C 0.76771 0.66687 0.42221 0.0
C924 C 0.77597 0.66618 0.36451 0.0
C925 C 0.79508 0.6676 0.406 0.0
C926 C 0.78445 0.67359 0.34333 0.0
C927 C 0.78429 0.67225 0.30696 0.0
C928 C 0.77551 0.66358 0.29047 0.0
C929 C 0.76675 0.65645 0.31145 0.0
C930 C 0.76699 0.65773 0.34794 0.0
H931 H 0.79944 0.66506 0.42469 0.0
H932 H 0.79228 0.66204 0.38358 0.0
H933 H 0.80105 0.67559 0.39637 0.0
H934 H 0.79132 0.6804 0.35494 0.0
H935 H 0.79114 0.67797 0.29178 0.0
H936 H 0.11463 0.3442 0.93913 0.0
H937 H 0.11833 0.35056 0.99996 0.0
H938 H 0.09556 0.31929 0.03635 0.0
H939 H 0.09202 0.31291 0.97651 0.0
H940 H 0.10542 0.35106 0.05392 0.0
H941 H 0.12229 0.32487 0.09194 0.0
H942 H 0.11985 0.32686 0.04703 0.0
H943 H 0.10877 0.31769 0.07406 0.0
C944 C 0.11038 0.33871 0.96012 0.0
C945 C 0.10312 0.328 0.95272 0.0
C946 C 0.11252 0.34234 0.99496 0.0
C947 C 0.10747 0.33536 0.02311 0.0
C948 C 0.09987 0.3248 1.01548 0.0
H949 H 0.10986 0.34073 0.25327 0.0
H950 H 0.10486 0.33448 0.19267 0.0
C951 C 0.09779 0.32118 0.98097 0.0
C952 C 0.11003 0.33895 0.06043 0.0
H953 H 0.11839 0.33348 0.1383 0.0
C954 C 0.10833 0.34725 0.07224 0.0
C955 C 0.11378 0.33399 0.08475 0.0
C956 C 0.11638 0.32543 0.07378 0.0
C957 C 0.11007 0.35056 0.10746 0.0
C958 C 0.11377 0.34556 0.13175 0.0
C959 C 0.11546 0.33726 0.11998 0.0
C960 C 0.11657 0.34926 0.16885 0.0
C961 C 0.10775 0.35929 0.1185 0.0
C962 C 0.12491 0.35956 0.1759 0.0
C963 C 0.1278 0.3631 0.21029 0.0
C964 C 0.12247 0.35646 0.23896 0.0
C965 C 0.11412 0.34609 0.232 0.0
C966 C 0.11126 0.34251 0.1973 0.0
H967 H 0.10212 0.36017 0.1 0.0
H968 H 0.10411 0.35779 0.14501 0.0
H969 H 0.11553 0.36688 0.11906 0.0
H970 H 0.12931 0.36488 0.15468 0.0
H971 H 0.13429 0.37113 0.21429 0.0
H972 H 0.67934 0.7525 0.26271 0.0
H973 H 0.68529 0.7532 0.20167 0.0
H974 H 0.66528 0.76692 0.17037 0.0
H975 H 0.65938 0.76628 0.23038 0.0
H976 H 0.67147 0.74349 0.14073 0.0
H977 H 0.69517 0.78705 0.12681 0.0
H978 H 0.69165 0.78057 0.16881 0.0
H979 H 0.68169 0.78237 0.14427 0.0
C980 C 0.67633 0.75578 0.24285 0.0
C981 C 0.66889 0.75935 0.25169 0.0
C982 C 0.67969 0.75613 0.20792 0.0
C983 C 0.67584 0.76023 0.18129 0.0
C984 C 0.66853 0.76388 0.19029 0.0
H985 H 0.68226 0.77067 0.95571 0.0
H986 H 0.67739 0.76939 1.01775 0.0
C987 C 0.66512 0.76345 0.22483 0.0
C988 C 0.67903 0.76043 0.14383 0.0
H989 H 0.69055 0.77705 0.07422 0.0
C990 C 0.67576 0.75083 0.12628 0.0
C991 C 0.68451 0.76999 0.12469 0.0
C992 C 0.68855 0.7806 0.14212 0.0
C993 C 0.67753 0.75051 0.09012 0.0
C994 C 0.68296 0.76009 0.07087 0.0
C995 C 0.68634 0.76969 0.08862 0.0
C996 C 0.68539 0.76036 0.03257 0.0
C997 C 0.67319 0.73987 0.0727 0.0
C998 C 0.69151 0.75573 1.01982 0.0
C999 C 0.69422 0.75638 0.98433 0.0
C1000 C 0.69101 0.76179 0.96043 0.0
C1001 C 0.68481 0.76637 0.97313 0.0
C1002 C 0.68207 0.76568 1.00874 0.0
H1003 H 0.66645 0.73354 0.08801 0.0
H1004 H 0.67014 0.73996 0.046 0.0
H1005 H 0.67986 0.73782 0.07073 0.0
H1006 H 0.69446 0.75182 0.03748 0.0
H1007 H 0.69909 0.75283 0.97582 0.0
H1008 H 0.25852 0.88775 0.22259 0.0
H1009 H 0.25683 0.89229 0.16278 0.0
H1010 H 0.25855 0.9214 0.19752 0.0
H1011 H 0.2604 0.91692 0.2584 0.0
H1012 H 0.24078 0.89519 0.13375 0.0
H1013 H 0.28085 0.9315 0.11733 0.0
H1014 H 0.27803 0.92247 0.15334 0.0
H1015 H 0.27282 0.93164 0.15369 0.0
C1016 C 0.2586 0.89518 0.21785 0.0
C1017 C 0.25962 0.90197 0.24571 0.0
C1018 C 0.25762 0.89776 0.18333 0.0
C1019 C 0.25768 0.90724 0.17523 0.0
C1020 C 0.25869 0.91411 0.20285 0.0
H1021 H 0.23285 0.91859 0.98199 0.0
H1022 H 0.23708 0.91636 0.04186 0.0
C1023 C 0.25966 0.9115 0.23775 0.0
C1024 C 0.25619 0.90951 0.13794 0.0
H1025 H 0.26841 0.92668 0.06987 0.0
C1026 C 0.24684 0.90209 0.1199 0.0
C1027 C 0.26415 0.91842 0.11941 0.0
C1028 C 0.27459 0.92644 0.13672 0.0
C1029 C 0.24516 0.90336 0.08437 0.0
C1030 C 0.25297 0.91238 0.06602 0.0
C1031 C 0.26241 0.91976 0.08381 0.0
C1032 C 0.25106 0.91444 0.029 0.0
C1033 C 0.23503 0.89494 0.06659 0.0
C1034 C 0.25769 0.91441 1.00137 0.0
C1035 C 0.25527 0.91569 0.96647 0.0
C1036 C 0.2462 0.9171 0.95862 0.0
C1037 C 0.23984 0.91743 0.98663 0.0
C1038 C 0.24223 0.91614 1.02115 0.0
H1039 H 0.23138 0.88736 0.08124 0.0
H1040 H 0.22883 0.89762 0.06496 0.0
H1041 H 0.2369 0.89349 0.03964 0.0
H1042 H 0.26458 0.91315 1.00672 0.0
H1043 H 0.26038 0.91544 0.94571 0.0
H1044 H 0.6784 0.92458 0.75744 0.0
H1045 H 0.68348 0.92934 0.69577 0.0
H1046 H 0.66463 0.89651 0.6669 0.0
H1047 H 0.65941 0.89179 0.72748 0.0
H1048 H 0.69408 0.92362 0.64644 0.0
H1049 H 0.65149 0.90947 0.60301 0.0
H1050 H 0.6553 0.91113 0.6485 0.0
H1051 H 0.653 0.89937 0.62547 0.0
C1052 C 0.6754 0.91839 0.73792 0.0
C1053 C 0.66837 0.90782 0.74751 0.0
C1054 C 0.67828 0.92112 0.70262 0.0
C1055 C 0.67418 0.91332 0.6763 0.0
C1056 C 0.66762 0.90274 0.68627 0.0
H1057 H 0.68106 0.9084 0.45173 0.0
H1058 H 0.67655 0.90531 0.51409 0.0
C1059 C 0.66469 0.90004 0.72119 0.0
C1060 C 0.67667 0.91607 0.63841 0.0
H1061 H 0.66455 0.91253 0.55807 0.0
C1062 C 0.68762 0.9213 0.62721 0.0
C1063 C 0.66827 0.91307 0.61301 0.0
C1064 C 0.65637 0.90805 0.62311 0.0
C1065 C 0.69035 0.92326 0.5915 0.0
C1066 C 0.68193 0.92001 0.56613 0.0
C1067 C 0.67101 0.91493 0.57735 0.0
C1068 C 0.68431 0.92189 0.5279 0.0
C1069 C 0.70223 0.92854 0.58108 0.0
C1070 C 0.6899 0.93222 0.51454 0.0
C1071 C 0.69239 0.934 0.47889 0.0
C1072 C 0.68938 0.9255 0.45551 0.0
C1073 C 0.68351 0.91514 0.4688 0.0
C1074 C 0.68095 0.91336 0.50453 0.0
H1075 H 0.70752 0.9284 0.60252 0.0
H1076 H 0.7034 0.92464 0.55778 0.0
H1077 H 0.70498 0.93692 0.57431 0.0
H1078 H 0.6924 0.93893 0.53178 0.0
H1079 H 0.6969 0.9421 0.46982 0.0
H1080 H 0.07626 0.7407 0.47223 0.0
H1081 H 0.07943 0.73984 0.53466 0.0
H1082 H 0.11121 0.76735 0.52535 0.0
H1083 H 0.10813 0.76825 0.46257 0.0
H1084 H 0.09746 0.73862 0.57048 0.0
H1085 H 0.09514 0.77491 0.6039 0.0
H1086 H 0.08978 0.76785 0.56347 0.0
H1087 H 0.10426 0.77597 0.56914 0.0
C1088 C 0.08398 0.74653 0.48327 0.0
C1089 C 0.09193 0.75455 0.46214 0.0
C1090 C 0.08578 0.74603 0.51911 0.0
C1091 C 0.09549 0.75361 0.53499 0.0
C1092 C 0.10358 0.76148 0.51389 0.0
H1093 H 0.11494 0.76422 0.75652 0.0
H1094 H 0.11351 0.76608 0.69335 0.0
C1095 C 0.10184 0.76193 0.47787 0.0
C1096 C 0.09704 0.75326 0.57359 0.0
H1097 H 0.09856 0.76615 0.6501 0.0
C1098 C 0.09772 0.74465 0.58788 0.0
C1099 C 0.09746 0.76115 0.59642 0.0
C1100 C 0.09655 0.77048 0.58269 0.0
C1101 C 0.09885 0.74373 0.62412 0.0
C1102 C 0.09895 0.75146 0.64718 0.0
C1103 C 0.09843 0.76017 0.63276 0.0
C1104 C 0.09947 0.75058 0.68618 0.0
C1105 C 0.10021 0.73458 0.63713 0.0
C1106 C 0.09185 0.74142 0.70384 0.0
C1107 C 0.0927 0.74031 0.73993 0.0
C1108 C 0.10107 0.74841 0.75966 0.0
C1109 C 0.10837 0.75781 0.74231 0.0
C1110 C 0.10758 0.75887 0.70605 0.0
H1111 H 0.10353 0.73154 0.61647 0.0
H1112 H 0.10576 0.73687 0.66006 0.0
H1113 H 0.09211 0.72801 0.64489 0.0
H1114 H 0.08526 0.73503 0.68963 0.0
H1115 H 0.08686 0.73299 0.7523 0.0
H1116 H 0.2507 0.33545 0.45044 0.0
H1117 H 0.25541 0.34404 0.50721 0.0
H1118 H 0.23891 0.31363 0.55783 0.0
H1119 H 0.23455 0.30489 0.50094 0.0
H1120 H 0.24182 0.34365 0.55808 0.0
H1121 H 0.2678 0.32744 0.60943 0.0
H1122 H 0.26388 0.32636 0.5641 0.0
H1123 H 0.25446 0.31745 0.59588 0.0
C1124 C 0.24825 0.33052 0.47347 0.0
C1125 C 0.2423 0.31941 0.47083 0.0
C1126 C 0.25088 0.33549 0.50606 0.0
C1127 C 0.24766 0.3295 0.53687 0.0
C1128 C 0.2417 0.31842 0.53446 0.0
H1129 H 0.25065 0.34496 0.75641 0.0
H1130 H 0.24714 0.33642 0.69949 0.0
C1131 C 0.23909 0.31343 0.50183 0.0
C1132 C 0.25017 0.33492 0.57136 0.0
H1133 H 0.26275 0.33684 0.64969 0.0
C1134 C 0.24646 0.34221 0.57802 0.0
C1135 C 0.25623 0.33304 0.59742 0.0
C1136 C 0.26092 0.32572 0.59132 0.0
C1137 C 0.24846 0.34751 0.61014 0.0
C1138 C 0.25444 0.34558 0.63623 0.0
C1139 C 0.25816 0.33831 0.62964 0.0
C1140 C 0.25676 0.3509 0.67077 0.0
C1141 C 0.24395 0.35498 0.61624 0.0
C1142 C 0.26344 0.36189 0.67364 0.0
C1143 C 0.26557 0.36683 0.70634 0.0
C1144 C 0.26108 0.36087 0.73691 0.0
C1145 C 0.25441 0.34983 0.73376 0.0
C1146 C 0.25233 0.34491 0.70111 0.0
H1147 H 0.2376 0.35387 0.59672 0.0
H1148 H 0.24037 0.35386 0.64276 0.0
H1149 H 0.25069 0.36325 0.61423 0.0
H1150 H 0.26708 0.36664 0.65059 0.0
H1151 H 0.27086 0.3753 0.70765 0.0
H1152 H 0.8956 0.63684 0.83593 0.0
H1153 H 0.90026 0.64565 0.89275 0.0
H1154 H 0.92803 0.67245 0.84722 0.0
H1155 H 0.92367 0.66366 0.7906 0.0
H1156 H 0.92148 0.65432 0.93114 0.0
H1157 H 0.90946 0.68462 0.89585 0.0
H1158 H 0.90464 0.67239 0.872 0.0
H1159 H 0.91836 0.68291 0.86582 0.0
C1160 C 0.90278 0.64455 0.83793 0.0
C1161 C 0.90918 0.64954 0.80831 0.0
C1162 C 0.90539 0.64959 0.87047 0.0
C1163 C 0.91439 0.65976 0.87404 0.0
C1164 C 0.92093 0.66468 0.84487 0.0
H1165 H 0.93965 0.70484 0.04652 0.0
H1166 H 0.93619 0.69609 0.98946 0.0
C1167 C 0.91838 0.65963 0.81241 0.0
C1168 C 0.91696 0.66525 0.90827 0.0
H1169 H 0.91763 0.68627 0.95108 0.0
C1170 C 0.92061 0.66129 0.9356 0.0
C1171 C 0.91592 0.67439 0.91384 0.0
C1172 C 0.91181 0.67883 0.88548 0.0
C1173 C 0.92338 0.6663 0.96834 0.0
C1174 C 0.92216 0.67536 0.97417 0.0
C1175 C 0.91856 0.67934 0.94667 0.0
C1176 C 0.92434 0.68067 1.0088 0.0
C1177 C 0.92782 0.66197 0.99605 0.0
C1178 C 0.9187 0.67498 0.03855 0.0
C1179 C 0.92071 0.67994 0.07108 0.0
C1180 C 0.9283 0.69075 0.07461 0.0
C1181 C 0.93376 0.69651 0.04466 0.0
C1182 C 0.9318 0.69151 1.01208 0.0
H1183 H 0.93143 0.65732 0.98444 0.0
H1184 H 0.93416 0.66841 1.01214 0.0
H1185 H 0.92105 0.65662 1.01346 0.0
H1186 H 0.91265 0.6667 0.03657 0.0
H1187 H 0.91615 0.67532 0.0934 0.0
H1188 H 0.33808 0.26567 0.07471 0.0
H1189 H 0.34211 0.26637 1.01235 0.0
H1190 H 0.34682 0.23918 0.02329 0.0
H1191 H 0.34285 0.23845 0.08599 0.0
H1192 H 0.36144 0.26777 0.97696 0.0
H1193 H 0.32307 0.23098 0.94454 0.0
H1194 H 0.32472 0.23816 0.98465 0.0
H1195 H 0.33127 0.23021 0.97951 0.0
C1196 C 0.34008 0.25989 0.06404 0.0
C1197 C 0.34013 0.252 0.0856 0.0
C1198 C 0.34237 0.26029 0.02825 0.0
C1199 C 0.34462 0.25274 1.01284 0.0
C1200 C 0.34497 0.24502 0.03437 0.0
H1201 H 0.3533 0.24183 0.79137 0.0
H1202 H 0.35026 0.24005 0.85468 0.0
C1203 C 0.34279 0.24467 0.07035 0.0
C1204 C 0.34649 0.25298 0.97426 0.0
H1205 H 0.33514 0.23975 0.89814 0.0
C1206 C 0.3557 0.26163 0.95974 0.0
C1207 C 0.33906 0.24494 0.95167 0.0
C1208 C 0.32892 0.23556 0.96564 0.0
C1209 C 0.3577 0.26246 0.92349 0.0
C1210 C 0.35009 0.25459 0.90065 0.0
C1211 C 0.34097 0.24583 0.91532 0.0
C1212 C 0.35139 0.25541 0.86162 0.0
C1213 C 0.36812 0.27169 0.91022 0.0
C1214 C 0.35267 0.26446 0.84383 0.0
C1215 C 0.35448 0.26552 0.80768 0.0
C1216 C 0.35486 0.25748 0.78802 0.0
C1217 C 0.35305 0.24819 0.80553 0.0
C1218 C 0.35134 0.24717 0.84186 0.0
H1219 H 0.37453 0.27486 0.9308 0.0
H1220 H 0.37139 0.26942 0.88735 0.0
H1221 H 0.36644 0.27815 0.90229 0.0
H1222 H 0.35237 0.27079 0.85796 0.0
H1223 H 0.35572 0.27274 0.7952 0.0
H1224 H 0.76088 0.09023 0.78423 0.0
H1225 H 0.76114 0.08521 0.84563 0.0
H1226 H 0.77517 0.11792 0.87605 0.0
H1227 H 0.77469 0.12289 0.81566 0.0
H1228 H 0.77709 0.0904 0.8954 0.0
H1229 H 0.7491 0.10493 0.93944 0.0
H1230 H 0.75136 0.10354 0.89388 0.0
H1231 H 0.76091 0.11507 0.91786 0.0
C1232 C 0.76409 0.09634 0.80402 0.0
C1233 C 0.76763 0.10695 0.79489 0.0
C1234 C 0.7642 0.09347 0.83919 0.0
C1235 C 0.76787 0.10114 0.86593 0.0
C1236 C 0.77193 0.11177 0.8564 0.0
H1237 H 0.77844 0.10374 0.09192 0.0
H1238 H 0.77762 0.10762 0.02985 0.0
C1239 C 0.77173 0.11461 0.82158 0.0
C1240 C 0.7675 0.09818 0.90375 0.0
H1241 H 0.75872 0.10128 0.98425 0.0
C1242 C 0.77297 0.09269 0.91471 0.0
C1243 C 0.76213 0.10113 0.92932 0.0
C1244 C 0.75545 0.10639 0.91952 0.0
C1245 C 0.7735 0.09039 0.95029 0.0
C1246 C 0.76835 0.09356 0.97583 0.0
C1247 C 0.76277 0.09893 0.96487 0.0
C1248 C 0.76851 0.09123 1.01393 0.0
C1249 C 0.77983 0.0848 0.9604 0.0
C1250 C 0.76342 0.08075 0.02605 0.0
C1251 C 0.76378 0.07852 0.06154 0.0
C1252 C 0.76926 0.0867 0.08605 0.0
C1253 C 0.77413 0.09722 0.07399 0.0
C1254 C 0.77369 0.09945 0.03841 0.0
H1255 H 0.78533 0.08504 0.93915 0.0
H1256 H 0.78479 0.08839 0.98422 0.0
H1257 H 0.774 0.07639 0.96619 0.0
H1258 H 0.75919 0.07426 1.00798 0.0
H1259 H 0.75991 0.07031 0.06959 0.0
H1260 H 0.01256 0.41552 0.92719 0.0
H1261 H 0.01827 0.41654 0.86566 0.0
H1262 H 0.99974 0.4322 0.83871 0.0
H1263 H 0.99412 0.43126 0.89917 0.0
H1264 H 1.00417 0.40788 0.80524 0.0
H1265 H 0.0295 0.45135 0.79363 0.0
H1266 H 0.02587 0.44467 0.83528 0.0
H1267 H 0.01622 0.44722 0.8119 0.0
C1268 C 0.00987 0.41933 0.90821 0.0
C1269 C 1.00289 0.42332 0.91836 0.0
C1270 C 0.01308 0.41985 0.87297 0.0
C1271 C 0.00954 0.42456 0.84736 0.0
C1272 C 1.00276 0.42869 0.85777 0.0
H1273 H 0.01434 0.43611 0.62216 0.0
H1274 H 0.01015 0.43474 0.6848 0.0
C1275 C 0.99949 0.42808 0.89257 0.0
C1276 C 0.01242 0.42483 0.80949 0.0
H1277 H 0.02391 0.44167 0.7403 0.0
C1278 C 1.00861 0.41527 0.79114 0.0
C1279 C 0.0181 0.43446 0.79074 0.0
C1280 C 0.02275 0.44501 0.80891 0.0
C1281 C 0.01001 0.41507 0.75467 0.0
C1282 C 0.01562 0.42471 0.73584 0.0
C1283 C 0.01955 0.43426 0.75436 0.0
C1284 C 0.01765 0.42508 0.69716 0.0
C1285 C 1.00509 0.40449 0.73654 0.0
C1286 C 0.02327 0.42014 0.68278 0.0
C1287 C 0.02559 0.42085 0.64694 0.0
C1288 C 0.02249 0.42662 0.62426 0.0
C1289 C 0.01679 0.43152 0.63858 0.0
C1290 C 0.01444 0.43078 0.67455 0.0
H1291 H 0.99835 0.39823 0.75208 0.0
H1292 H 1.00187 0.40486 0.71039 0.0
H1293 H 0.01148 0.40211 0.73318 0.0
H1294 H 0.02612 0.41592 0.69943 0.0
H1295 H 0.03009 0.41705 0.63719 0.0
H1296 H 0.5844 0.5658 0.62051 0.0
H1297 H 0.5863 0.5658 0.68392 0.0
H1298 H 0.58649 0.59566 0.68995 0.0
H1299 H 0.58497 0.59589 0.62624 0.0
H1300 H 0.60064 0.59537 0.73606 0.0
H1301 H 0.56169 0.55806 0.75063 0.0
H1302 H 0.57121 0.55646 0.72343 0.0
H1303 H 0.56589 0.56501 0.70966 0.0
C1304 C 0.58495 0.57244 0.63522 0.0
C1305 C 0.58446 0.58081 0.61804 0.0
C1306 C 0.58593 0.57237 0.67169 0.0
C1307 C 0.58622 0.58057 0.69221 0.0
C1308 C 0.58619 0.58918 0.675 0.0
H1309 H 0.56974 0.57194 0.91418 0.0
H1310 H 0.57035 0.57485 0.85122 0.0
C1311 C 0.58534 0.5893 0.63842 0.0
C1312 C 0.58633 0.58007 0.73142 0.0
H1313 H 0.57288 0.56431 0.80119 0.0
C1314 C 0.59453 0.58859 0.75027 0.0
C1315 C 0.57828 0.57134 0.75041 0.0
C1316 C 0.56871 0.56226 0.73254 0.0
C1317 C 0.59501 0.58853 0.78712 0.0
C1318 C 0.58722 0.57958 0.80598 0.0
C1319 C 0.57894 0.57115 0.7871 0.0
C1320 C 0.5873 0.57878 0.84517 0.0
C1321 C 0.6037 0.5982 0.80539 0.0
C1322 C 0.59665 0.58014 0.86347 0.0
C1323 C 0.59636 0.57865 0.89985 0.0
C1324 C 0.58666 0.57555 0.91885 0.0
C1325 C 0.57737 0.57434 0.90058 0.0
C1326 C 0.5777 0.57596 0.86437 0.0
H1327 H 0.60659 0.60538 0.78882 0.0
H1328 H 0.60064 0.59964 0.83041 0.0
H1329 H 0.61084 0.59705 0.81101 0.0
H1330 H 0.60409 0.58201 0.84954 0.0
H1331 H 0.60363 0.57949 0.91284 0.0
H1332 H 0.46839 0.03228 0.89341 0.0
H1333 H 0.46431 0.02615 0.83348 0.0
H1334 H 0.43531 0.99822 0.86741 0.0
H1335 H 0.43931 1.00445 0.92832 0.0
H1336 H 0.46304 0.00863 0.80416 0.0
H1337 H 0.42346 0.00832 0.78663 0.0
H1338 H 0.43246 0.01481 0.82305 0.0
H1339 H 0.42393 1.00069 0.82298 0.0
C1340 C 0.46109 0.02483 0.88845 0.0
C1341 C 0.45418 0.01889 0.91611 0.0
C1342 C 0.45877 0.02132 0.85386 0.0
C1343 C 0.44943 0.01177 0.84544 0.0
C1344 C 0.44247 1.00574 0.8729 0.0
H1345 H 0.44047 0.97662 0.65422 0.0
H1346 H 0.44282 0.98334 0.71341 0.0
C1347 C 0.44481 0.00926 0.90785 0.0
C1348 C 0.44742 0.00811 0.80806 0.0
H1349 H 0.42934 1.00154 0.73981 0.0
C1350 C 0.45565 0.0071 0.79021 0.0
C1351 C 0.43788 0.00624 0.78931 0.0
C1352 C 0.42895 0.00765 0.80627 0.0
C1353 C 0.45457 1.00414 0.75477 0.0
C1354 C 0.44492 1.00199 0.73626 0.0
C1355 C 0.43674 1.00316 0.75382 0.0
C1356 C 0.44303 0.99792 0.69945 0.0
C1357 C 0.46385 1.00343 0.73727 0.0
C1358 C 0.44212 1.00375 0.67131 0.0
C1359 C 0.44077 0.99989 0.63674 0.0
C1360 C 0.44019 0.99006 0.6297 0.0
C1361 C 0.44092 0.98424 0.65819 0.0
C1362 C 0.4423 0.98809 0.69235 0.0
H1363 H 0.47167 0.00796 0.75173 0.0
H1364 H 0.46193 0.99503 0.73636 0.0
H1365 H 0.46501 0.00645 0.71008 0.0
H1366 H 0.44262 0.01136 0.67602 0.0
H1367 H 0.44019 1.00459 0.61565 0.0
H1368 H 0.5841 0.01139 0.42223 0.0
H1369 H 0.58008 1.00206 0.36645 0.0
H1370 H 0.60157 0.03125 0.31407 0.0
H1371 H 0.60569 0.04069 0.37016 0.0
H1372 H 0.5719 0.0085 0.30075 0.0
H1373 H 0.61125 0.00785 0.28758 0.0
H1374 H 0.60602 0.00901 0.32949 0.0
H1375 H 0.6117 0.02006 0.30021 0.0
C1376 C 0.58808 0.01582 0.39895 0.0
C1377 C 0.59532 0.02677 0.40064 0.0
C1378 C 0.5857 0.01048 0.36708 0.0
C1379 C 0.59059 0.01595 0.33629 0.0
C1380 C 0.59777 0.02689 0.33769 0.0
H1381 H 0.58945 0.99539 0.12373 0.0
H1382 H 0.59369 1.00472 0.17917 0.0
C1383 C 0.60008 0.03227 0.36962 0.0
C1384 C 0.58803 0.01016 0.30274 0.0
H1385 H 0.59844 1.00019 0.24212 0.0
C1386 C 0.57768 0.00668 0.28782 0.0
C1387 C 0.59562 0.00784 0.28609 0.0
C1388 C 0.60677 0.01131 0.30156 0.0
C1389 C 0.57475 1.00102 0.25626 0.0
C1390 C 0.58227 0.99851 0.23977 0.0
C1391 C 0.59265 1.00205 0.2548 0.0
C1392 C 0.57968 0.99255 0.20636 0.0
C1393 C 0.56374 0.99807 0.24045 0.0
C1394 C 0.57052 0.98245 0.20321 0.0
C1395 C 0.56793 0.97712 0.17116 0.0
C1396 C 0.57454 0.98174 0.14166 0.0
C1397 C 0.58398 0.99166 0.14544 0.0
C1398 C 0.58649 0.997 0.17733 0.0
H1399 H 0.56037 1.00308 0.25073 0.0
H1400 H 0.56426 0.99883 0.21159 0.0
H1401 H 0.55789 0.98973 0.2471 0.0
H1402 H 0.5653 0.97871 0.22548 0.0
H1403 H 0.56062 0.96951 0.16941 0.0
H1404 H 0.9914 0.55754 0.39378 0.0
H1405 H 0.99731 0.56179 0.33355 0.0
H1406 H 0.01877 0.59424 0.36253 0.0
H1407 H 0.01299 0.58991 0.42382 0.0
H1408 H 0.99464 0.57464 0.29002 0.0
H1409 H 0.03908 0.5885 0.30299 0.0
H1410 H 0.02955 0.58178 0.33789 0.0
H1411 H 0.03422 0.59557 0.32962 0.0
C1412 C 0.99747 0.56559 0.38764 0.0
C1413 C 1.0017 0.57338 0.41393 0.0
C1414 C 1.00084 0.56802 0.35293 0.0
C1415 C 1.00855 0.57833 0.34309 0.0
C1416 C 0.01296 0.58616 0.3693 0.0
H1417 H 0.03389 0.6054 0.13731 0.0
H1418 H 0.02895 0.6024 0.19892 0.0
C1419 C 0.00963 0.58369 0.40441 0.0
C1420 C 0.01147 0.58074 0.30518 0.0
H1421 H 0.03273 0.59003 0.24708 0.0
C1422 C 1.00298 0.57799 0.28074 0.0
C1423 C 0.02235 0.58512 0.29269 0.0
C1424 C 0.03183 0.58783 0.31706 0.0
C1425 C 1.00503 0.57952 0.24459 0.0
C1426 C 0.01588 0.5838 0.23209 0.0
C1427 C 0.0244 0.5867 0.25649 0.0
C1428 C 0.01858 0.5855 0.19393 0.0
C1429 C 0.99555 0.57668 0.22009 0.0
C1430 C 0.01442 0.57701 0.17013 0.0
C1431 C 0.01724 0.5787 0.13453 0.0
C1432 C 0.02432 0.58894 0.12188 0.0
C1433 C 0.02839 0.59741 0.14582 0.0
C1434 C 0.0256 0.59571 0.18128 0.0
H1435 H 0.98828 0.57603 0.234 0.0
H1436 H 0.99782 0.58266 0.19902 0.0
H1437 H 0.99321 0.56893 0.20782 0.0
H1438 H 0.00913 0.56903 0.17919 0.0
H1439 H 0.01402 0.57197 0.11707 0.0
H1440 H 0.44085 0.43589 0.12617 0.0
H1441 H 0.44384 0.43506 0.18903 0.0
H1442 H 0.41306 0.40628 0.19673 0.0
H1443 H 0.40999 0.40707 0.1342 0.0
H1444 H 0.42937 0.43459 0.24495 0.0
H1445 H 0.4351 0.3992 0.24707 0.0
H1446 H 0.43666 0.40674 0.20783 0.0
H1447 H 0.42325 0.3976 0.2236 0.0
C1448 C 0.4348 0.42928 0.14109 0.0
C1449 C 0.4252 0.42151 0.12486 0.0
C1450 C 0.43649 0.42886 0.17715 0.0
C1451 C 0.42872 0.42057 0.19776 0.0
C1452 C 0.41925 0.41269 0.18147 0.0
H1453 H 0.42066 0.40082 0.41493 0.0
H1454 H 0.41902 0.40292 0.35232 0.0
C1455 C 0.4175 0.41317 0.14559 0.0
C1456 C 0.43023 0.42031 0.23642 0.0
H1457 H 0.43282 0.40551 0.30174 0.0
C1458 C 0.43021 0.42828 0.25738 0.0
C1459 C 0.43126 0.41206 0.25279 0.0
C1460 C 0.43167 0.40344 0.23174 0.0
C1461 C 0.43085 0.42804 0.29415 0.0
C1462 C 0.43185 0.41975 0.31062 0.0
C1463 C 0.43202 0.41187 0.28947 0.0
C1464 C 0.43251 0.4189 0.3496 0.0
C1465 C 0.43002 0.43648 0.31494 0.0
C1466 C 0.44057 0.42721 0.3696 0.0
C1467 C 0.44143 0.42608 0.40579 0.0
C1468 C 0.43437 0.41654 0.42286 0.0
C1469 C 0.42624 0.4083 0.40286 0.0
C1470 C 0.42532 0.40947 0.36685 0.0
H1471 H 0.42603 0.44021 0.29967 0.0
H1472 H 0.42532 0.4332 0.33937 0.0
H1473 H 0.43837 0.44277 0.32195 0.0
H1474 H 0.44642 0.43449 0.35711 0.0
H1475 H 0.44789 0.43254 0.42013 0.0
H1476 H 0.34255 0.21129 0.15397 0.0
H1477 H 0.34951 0.19867 0.15389 0.0
H1478 H 0.32299 0.17785 0.22082 0.0
H1479 H 0.31597 0.19037 0.22085 0.0
H1480 H 0.35665 0.19112 0.20708 0.0
H1481 H 0.32079 0.15767 0.14466 0.0
H1482 H 0.32258 0.17089 0.14557 0.0
H1483 H 0.3174 0.16247 0.18326 0.0
C1484 C 0.3382 0.20404 0.16871 0.0
C1485 C 0.32863 0.20186 0.1872 0.0
C1486 C 0.34217 0.1968 0.16856 0.0
C1487 C 0.33668 0.18718 0.18681 0.0
C1488 C 0.32723 0.18505 0.20569 0.0
H1489 H 0.3509 0.13495 0.22053 0.0
H1490 H 0.3433 0.14704 0.22344 0.0
C1491 C 0.32322 0.19225 0.20572 0.0
C1492 C 0.34102 0.17953 0.18682 0.0
H1493 H 0.33437 0.15397 0.1677 0.0
C1494 C 0.35178 0.18302 0.19833 0.0
C1495 C 0.33467 0.16891 0.17554 0.0
C1496 C 0.32326 0.16477 0.16124 0.0
C1497 C 0.35632 0.17619 0.19916 0.0
C1498 C 0.34999 0.1656 0.18779 0.0
C1499 C 0.3392 0.16207 0.17658 0.0
C1500 C 0.35458 0.15819 0.18609 0.0
C1501 C 0.36782 0.18035 0.21265 0.0
C1502 C 0.36335 0.16033 0.16374 0.0
C1503 C 0.36766 0.15339 0.16175 0.0
C1504 C 0.36333 0.1441 0.1821 0.0
C1505 C 0.35445 0.14194 0.20428 0.0
C1506 C 0.3501 0.14888 0.20611 0.0
H1507 H 0.37051 0.18761 0.22856 0.0
H1508 H 0.36851 0.17429 0.22872 0.0
H1509 H 0.37349 0.18234 0.19022 0.0
H1510 H 0.36679 0.16733 0.14745 0.0
H1511 H 0.3743 0.1553 0.14374 0.0
H1512 H 0.8349 0.12419 0.20017 0.0
H1513 H 0.84749 0.14318 0.19947 0.0
H1514 H 0.82113 0.149 0.17003 0.0
H1515 H 0.80846 0.13 0.16996 0.0
H1516 H 0.85233 0.15772 0.14242 0.0
H1517 H 0.83497 0.1682 0.25646 0.0
H1518 H 0.83209 0.15482 0.2478 0.0
H1519 H 0.82535 0.16054 0.22301 0.0
C1520 C 0.83172 0.12944 0.19327 0.0
C1521 C 0.82057 0.12544 0.18516 0.0
C1522 C 0.83897 0.14034 0.19307 0.0
C1523 C 0.83525 0.14753 0.18511 0.0
C1524 C 0.82416 0.14362 0.17688 0.0
H1525 H 0.86768 0.2166 0.17987 0.0
H1526 H 0.85449 0.19769 0.17706 0.0
C1527 C 0.8169 0.13271 0.17692 0.0
C1528 C 0.84303 0.15911 0.18482 0.0
H1529 H 0.84909 0.18235 0.22548 0.0
C1530 C 0.85164 0.16311 0.16061 0.0
C1531 C 0.84209 0.16614 0.20841 0.0
C1532 C 0.83319 0.16225 0.23562 0.0
C1533 C 0.85925 0.17397 0.15909 0.0
C1534 C 0.85843 0.18101 0.18307 0.0
C1535 C 0.84976 0.17699 0.20711 0.0
C1536 C 0.86653 0.19253 0.18399 0.0
C1537 C 0.86797 0.17781 0.13126 0.0
C1538 C 0.87772 0.19597 0.18916 0.0
C1539 C 0.88528 0.20679 0.19065 0.0
C1540 C 0.88184 0.21443 0.18749 0.0
C1541 C 0.87062 0.21095 0.18263 0.0
C1542 C 0.86306 0.20013 0.18092 0.0
H1543 H 0.86551 0.17221 0.10896 0.0
H1544 H 0.86977 0.1857 0.12124 0.0
H1545 H 0.87559 0.17847 0.14249 0.0
H1546 H 0.88059 0.1903 0.19264 0.0
H1547 H 0.8938 0.20914 0.19517 0.0
H1548 H 0.89226 0.66672 0.15046 0.0
H1549 H 0.87243 0.65888 0.15678 0.0
H1550 H 0.87645 0.66626 0.26659 0.0
H1551 H 0.89639 0.67402 0.26034 0.0
H1552 H 0.85656 0.64608 0.24653 0.0
H1553 H 0.86188 0.68118 0.17188 0.0
H1554 H 0.86748 0.67375 0.15094 0.0
H1555 H 0.87321 0.68038 0.19149 0.0
C1556 C 0.88887 0.66621 0.17626 0.0
C1557 C 0.89584 0.67082 0.20499 0.0
C1558 C 0.87755 0.66186 0.17977 0.0
C1559 C 0.87297 0.66217 0.21198 0.0
C1560 C 0.87981 0.66594 0.24146 0.0
H1561 H 0.80941 0.6605 0.22388 0.0
H1562 H 0.82875 0.66547 0.23033 0.0
C1563 C 0.89119 0.67025 0.23798 0.0
C1564 C 0.8613 0.65967 0.21361 0.0
H1565 H 0.84363 0.6676 0.18105 0.0
C1566 C 0.85372 0.65081 0.23242 0.0
C1567 C 0.85764 0.66596 0.19575 0.0
C1568 C 0.86547 0.67591 0.17662 0.0
C1569 C 0.84251 0.64785 0.23273 0.0
C1570 C 0.83877 0.65384 0.21333 0.0
C1571 C 0.84644 0.66293 0.19564 0.0
C1572 C 0.82693 0.65072 0.21024 0.0
C1573 C 0.8348 0.63838 0.25404 0.0
C1574 C 0.81946 0.64086 0.19614 0.0
C1575 C 0.80841 0.63802 0.19224 0.0
C1576 C 0.80452 0.645 0.20211 0.0
C1577 C 0.81207 0.65495 0.21574 0.0
C1578 C 0.82314 0.65778 0.21967 0.0
H1579 H 0.83919 0.63669 0.27517 0.0
H1580 H 0.82824 0.63958 0.26588 0.0
H1581 H 0.83093 0.63133 0.23684 0.0
H1582 H 0.8222 0.63539 0.18762 0.0
H1583 H 0.80294 0.63039 0.18096 0.0
H1584 H 0.15941 0.3563 0.2967 0.0
H1585 H 0.1738 0.35132 0.28902 0.0
H1586 H 0.1901 0.36894 0.38132 0.0
H1587 H 0.17581 0.3738 0.38944 0.0
H1588 H 0.19862 0.36572 0.28535 0.0
H1589 H 0.1843 0.33773 0.39705 0.0
H1590 H 0.17561 0.34193 0.37516 0.0
H1591 H 0.18573 0.35055 0.40582 0.0
C1592 C 0.16604 0.35908 0.31541 0.0
C1593 C 0.16642 0.36547 0.34369 0.0
C1594 C 0.1743 0.35629 0.31082 0.0
C1595 C 0.18302 0.35974 0.33465 0.0
C1596 C 0.18345 0.36617 0.36264 0.0
H1597 H 0.2348 0.34679 0.38887 0.0
H1598 H 0.22299 0.35475 0.38136 0.0
C1599 C 0.17527 0.369 0.36712 0.0
C1600 C 0.19151 0.35638 0.33142 0.0
H1601 H 0.20161 0.34212 0.37355 0.0
C1602 C 0.19926 0.36049 0.30441 0.0
C1603 C 0.19231 0.34955 0.35626 0.0
C1604 C 0.18401 0.34459 0.38509 0.0
C1605 C 0.20804 0.35828 0.30246 0.0
C1606 C 0.20898 0.35165 0.32791 0.0
C1607 C 0.20102 0.34732 0.35426 0.0
C1608 C 0.21815 0.34908 0.32856 0.0
C1609 C 0.2164 0.36334 0.27392 0.0
C1610 C 0.21993 0.34376 0.30067 0.0
C1611 C 0.22699 0.33947 0.30468 0.0
C1612 C 0.23224 0.34029 0.33677 0.0
C1613 C 0.23107 0.34626 0.36361 0.0
C1614 C 0.22418 0.35068 0.35946 0.0
H1615 H 0.21621 0.37032 0.26256 0.0
H1616 H 0.22478 0.36586 0.2838 0.0
H1617 H 0.21462 0.35751 0.25269 0.0
H1618 H 0.21524 0.34221 0.2768 0.0
H1619 H 0.22747 0.33461 0.28399 0.0
H1620 H 0.67779 0.7969 0.3313 0.0
H1621 H 0.68559 0.81615 0.33089 0.0
H1622 H 0.65784 0.81321 0.38874 0.0
H1623 H 0.6502 0.79408 0.39042 0.0
H1624 H 0.67733 0.82848 0.30352 0.0
H1625 H 0.68305 0.83495 0.44625 0.0
H1626 H 0.68019 0.82261 0.42603 0.0
H1627 H 0.6693 0.82558 0.43419 0.0
C1628 C 0.6734 0.80033 0.34437 0.0
C1629 C 0.66335 0.79383 0.36103 0.0
C1630 C 0.67785 0.81136 0.34391 0.0
C1631 C 0.67241 0.81618 0.36028 0.0
C1632 C 0.66233 0.80973 0.37656 0.0
H1633 H 0.68361 0.88071 0.38234 0.0
H1634 H 0.67617 0.86149 0.38247 0.0
C1635 C 0.65789 0.79872 0.37708 0.0
C1636 C 0.67711 0.82792 0.35965 0.0
H1637 H 0.6852 0.8496 0.4121 0.0
C1638 C 0.67912 0.8331 0.32727 0.0
C1639 C 0.67944 0.83399 0.39063 0.0
C1640 C 0.67799 0.82902 0.42625 0.0
C1641 C 0.68316 0.8441 0.32502 0.0
C1642 C 0.68541 0.85014 0.35599 0.0
C1643 C 0.68343 0.84497 0.38836 0.0
C1644 C 0.6899 0.86184 0.35539 0.0
C1645 C 0.68472 0.84911 0.28946 0.0
C1646 C 0.70016 0.86848 0.34045 0.0
C1647 C 0.70442 0.87948 0.34025 0.0
C1648 C 0.69855 0.88413 0.3551 0.0
C1649 C 0.6883 0.87744 0.37024 0.0
C1650 C 0.68406 0.86644 0.37053 0.0
H1651 H 0.68003 0.84317 0.26903 0.0
H1652 H 0.68217 0.85529 0.2894 0.0
H1653 H 0.69351 0.85292 0.28239 0.0
H1654 H 0.70492 0.86516 0.32914 0.0
H1655 H 0.71228 0.88432 0.32811 0.0
H1656 H 0.22499 0.84974 0.38598 0.0
H1657 H 0.20533 0.83775 0.38497 0.0
H1658 H 0.20042 0.86124 0.33065 0.0
H1659 H 0.22018 0.87319 0.33042 0.0
H1660 H 0.18852 0.83991 0.41301 0.0
H1661 H 0.18348 0.83542 0.26935 0.0
H1662 H 0.19671 0.84129 0.29018 0.0
H1663 H 0.18975 0.84887 0.28417 0.0
C1664 C 0.2198 0.85235 0.37333 0.0
C1665 C 0.22429 0.86246 0.35794 0.0
C1666 C 0.20849 0.84548 0.37303 0.0
C1667 C 0.20134 0.84848 0.35723 0.0
C1668 C 0.20575 0.85863 0.34236 0.0
H1669 H 0.13046 0.81699 0.33131 0.0
H1670 H 0.15006 0.82941 0.33208 0.0
C1671 C 0.21708 0.86552 0.34263 0.0
C1672 C 0.18931 0.84103 0.35697 0.0
H1673 H 0.16725 0.82769 0.30308 0.0
C1674 C 0.18389 0.83721 0.38895 0.0
C1675 C 0.18321 0.83749 0.32561 0.0
C1676 C 0.18858 0.84089 0.29035 0.0
C1677 C 0.17257 0.83011 0.39046 0.0
C1678 C 0.16649 0.82655 0.3591 0.0
C1679 C 0.17189 0.8304 0.32713 0.0
C1680 C 0.15451 0.81888 0.3589 0.0
C1681 C 0.1672 0.82668 0.42571 0.0
C1682 C 0.15041 0.80871 0.37331 0.0
C1683 C 0.13914 0.80156 0.3731 0.0
C1684 C 0.13168 0.80439 0.35834 0.0
C1685 C 0.13586 0.81454 0.34347 0.0
C1686 C 0.14712 0.82166 0.34365 0.0
H1687 H 0.17226 0.83219 0.4467 0.0
H1688 H 0.15902 0.82618 0.42582 0.0
H1689 H 0.16613 0.81873 0.43193 0.0
H1690 H 0.15594 0.80627 0.38463 0.0
H1691 H 0.13629 0.79387 0.38493 0.0
H1692 H 0.64927 0.85538 0.88461 0.0
H1693 H 0.65684 0.8433 0.88416 0.0
H1694 H 0.68576 0.86694 0.83245 0.0
H1695 H 0.67822 0.87908 0.83254 0.0
H1696 H 0.66296 0.83516 0.82836 0.0
H1697 H 0.69862 0.85856 0.91436 0.0
H1698 H 0.68738 0.86132 0.91027 0.0
H1699 H 0.69778 0.86571 0.87721 0.0
C1700 C 0.65722 0.85804 0.87294 0.0
C1701 C 0.66311 0.86828 0.85865 0.0
C1702 C 0.66157 0.8511 0.87286 0.0
C1703 C 0.67195 0.85422 0.85873 0.0
C1704 C 0.67784 0.8644 0.84424 0.0
H1705 H 0.71198 0.82376 0.83142 0.0
H1706 H 0.70421 0.83567 0.83169 0.0
C1707 C 0.6735 0.87136 0.84431 0.0
C1708 C 0.67646 0.84673 0.85852 0.0
H1709 H 0.69793 0.84357 0.88683 0.0
C1710 C 0.67059 0.83698 0.84128 0.0
C1711 C 0.68642 0.84908 0.87535 0.0
C1712 C 0.69288 0.85919 0.89563 0.0
C1713 C 0.67448 0.82964 0.8398 0.0
C1714 C 0.68444 0.83199 0.85661 0.0
C1715 C 0.6903 0.84174 0.8739 0.0
C1716 C 0.68902 0.82455 0.85624 0.0
C1717 C 0.66802 0.81955 0.81943 0.0
C1718 C 0.68313 0.81429 0.87019 0.0
C1719 C 0.68758 0.80742 0.87016 0.0
C1720 C 0.69808 0.81067 0.85645 0.0
C1721 C 0.70395 0.82097 0.84262 0.0
C1722 C 0.69949 0.82781 0.84261 0.0
H1723 H 0.66233 0.82021 0.8006 0.0
H1724 H 0.67353 0.8174 0.80488 0.0
H1725 H 0.66308 0.81302 0.83778 0.0
H1726 H 0.67514 0.81164 0.88162 0.0
H1727 H 0.68287 0.79964 0.88153 0.0
H1728 H 0.21746 0.87821 0.8841 0.0
H1729 H 0.20623 0.85896 0.88651 0.0
H1730 H 0.18178 0.86068 0.82243 0.0
H1731 H 0.19295 0.87986 0.81948 0.0
H1732 H 0.17306 0.84757 0.88104 0.0
H1733 H 0.20123 0.83766 0.80833 0.0
H1734 H 0.20725 0.84631 0.84501 0.0
H1735 H 0.20265 0.85076 0.80808 0.0
C1736 C 0.20976 0.87452 0.87016 0.0
C1737 C 0.20619 0.8807 0.85153 0.0
C1738 C 0.20333 0.86348 0.87157 0.0
C1739 C 0.1932 0.85833 0.85428 0.0
C1740 C 0.18956 0.86445 0.83596 0.0
H1741 H 0.14052 0.79329 0.83006 0.0
H1742 H 0.15205 0.81251 0.82925 0.0
C1743 C 0.19598 0.87548 0.83447 0.0
C1744 C 0.18626 0.84659 0.85571 0.0
H1745 H 0.18557 0.82337 0.83331 0.0
C1746 C 0.17578 0.84228 0.87053 0.0
C1747 C 0.18981 0.83966 0.84209 0.0
C1748 C 0.20081 0.8438 0.82469 0.0
C1749 C 0.16884 0.83127 0.87254 0.0
C1750 C 0.17234 0.82434 0.85862 0.0
C1751 C 0.18285 0.82865 0.84396 0.0
C1752 C 0.16526 0.81259 0.85905 0.0
C1753 C 0.1579 0.82719 0.89031 0.0
C1754 C 0.16891 0.80614 0.87522 0.0
C1755 C 0.16234 0.79512 0.87557 0.0
C1756 C 0.15195 0.79024 0.85963 0.0
C1757 C 0.14836 0.79673 0.84315 0.0
C1758 C 0.15496 0.80776 0.84272 0.0
H1759 H 0.15777 0.8332 0.90803 0.0
H1760 H 0.15147 0.82521 0.87025 0.0
H1761 H 0.15582 0.81993 0.90564 0.0
H1762 H 0.17683 0.80965 0.88792 0.0
H1763 H 0.16537 0.79044 0.88881 0.0
H1764 H 0.1344 0.29985 0.8581 0.0
H1765 H 0.15337 0.30413 0.86838 0.0
H1766 H 0.16253 0.33706 0.87948 0.0
H1767 H 0.14364 0.33289 0.86886 0.0
H1768 H 0.17171 0.31727 0.82963 0.0
H1769 H 0.17655 0.33186 0.96539 0.0
H1770 H 0.16332 0.32436 0.94494 0.0
H1771 H 0.17149 0.3383 0.93657 0.0
C1772 C 0.14042 0.30802 0.8627 0.0
C1773 C 0.13739 0.31601 0.86255 0.0
C1774 C 0.15128 0.31044 0.86876 0.0
C1775 C 0.15939 0.3209 0.87519 0.0
C1776 C 0.1564 0.32889 0.8754 0.0
H1777 H 0.2269 0.36121 0.88122 0.0
H1778 H 0.20714 0.3514 0.88629 0.0
C1779 C 0.14555 0.32648 0.86929 0.0
C1780 C 0.17106 0.32357 0.87989 0.0
H1781 H 0.1931 0.33655 0.9339 0.0
C1782 C 0.17635 0.32132 0.85269 0.0
C1783 C 0.17711 0.32877 0.91009 0.0
C1784 C 0.17181 0.33087 0.94107 0.0
C1785 C 0.18766 0.32474 0.8539 0.0
C1786 C 0.19382 0.33041 0.88338 0.0
C1787 C 0.1884 0.33218 0.91131 0.0
C1788 C 0.20603 0.33597 0.88348 0.0
C1789 C 0.19304 0.32283 0.82271 0.0
C1790 C 0.21214 0.33059 0.88121 0.0
C1791 C 0.22364 0.33626 0.87837 0.0
C1792 C 0.22911 0.34738 0.87745 0.0
C1793 C 0.22295 0.35265 0.88132 0.0
C1794 C 0.21161 0.34704 0.8844 0.0
H1795 H 0.18739 0.31963 0.80008 0.0
H1796 H 0.20034 0.33028 0.81464 0.0
H1797 H 0.1958 0.31705 0.8298 0.0
H1798 H 0.20803 0.32203 0.88102 0.0
H1799 H 0.22817 0.332 0.87547 0.0
H1800 H 0.81804 0.6769 0.66861 0.0
H1801 H 0.83275 0.67234 0.66556 0.0
H1802 H 0.85655 0.70489 0.68467 0.0
H1803 H 0.84191 0.70952 0.68767 0.0
H1804 H 0.86309 0.69614 0.63215 0.0
H1805 H 0.8496 0.66981 0.74791 0.0
H1806 H 0.83926 0.66613 0.71494 0.0
H1807 H 0.84413 0.67851 0.73755 0.0
C1808 C 0.82638 0.68308 0.67257 0.0
C1809 C 0.82873 0.69358 0.67862 0.0
C1810 C 0.83481 0.68046 0.67075 0.0
C1811 C 0.84578 0.68824 0.67532 0.0
C1812 C 0.84817 0.69874 0.68101 0.0
H1813 H 0.89684 0.67358 0.73158 0.0
H1814 H 0.8851 0.68171 0.72682 0.0
C1815 C 0.83976 0.70137 0.68269 0.0
C1816 C 0.85478 0.68546 0.67455 0.0
H1817 H 0.8639 0.67003 0.71436 0.0
C1818 C 0.86329 0.69045 0.65018 0.0
C1819 C 0.85514 0.67813 0.69831 0.0
C1820 C 0.84661 0.6729 0.72638 0.0
C1821 C 0.87207 0.68824 0.64874 0.0
C1822 C 0.87229 0.68072 0.67201 0.0
C1823 C 0.86378 0.67578 0.69643 0.0
C1824 C 0.88123 0.67786 0.67224 0.0
C1825 C 0.88113 0.69413 0.62282 0.0
C1826 C 0.88347 0.67343 0.64271 0.0
C1827 C 0.89047 0.66902 0.64525 0.0
C1828 C 0.89522 0.66886 0.67744 0.0
C1829 C 0.8935 0.67384 0.70629 0.0
C1830 C 0.88666 0.67836 0.70366 0.0
H1831 H 0.88138 0.70157 0.61407 0.0
H1832 H 0.88921 0.69607 0.63409 0.0
H1833 H 0.87973 0.68908 0.5995 0.0
H1834 H 0.87923 0.67271 0.61835 0.0
H1835 H 0.89134 0.66489 0.62294 0.0
H1836 H 0.37414 0.21533 0.64168 0.0
H1837 H 0.36661 0.1962 0.64393 0.0
H1838 H 0.34373 0.19408 0.72292 0.0
H1839 H 0.35131 0.21328 0.72122 0.0
H1840 H 0.36512 0.18307 0.7001 0.0
H1841 H 0.32396 0.17279 0.64914 0.0
H1842 H 0.33548 0.18595 0.64587 0.0
H1843 H 0.32823 0.18141 0.6864 0.0
C1844 C 0.36758 0.21088 0.65983 0.0
C1845 C 0.36336 0.21597 0.68123 0.0
C1846 C 0.36323 0.19988 0.66092 0.0
C1847 C 0.35449 0.19365 0.6832 0.0
C1848 C 0.35032 0.19868 0.70494 0.0
H1849 H 0.3164 0.1263 0.72528 0.0
H1850 H 0.32431 0.14549 0.72354 0.0
C1851 C 0.35468 0.20969 0.70393 0.0
C1852 C 0.34985 0.18193 0.68385 0.0
H1853 H 0.32643 0.1586 0.6693 0.0
C1854 C 0.35667 0.17771 0.69325 0.0
C1855 C 0.33882 0.17493 0.6749 0.0
C1856 C 0.3312 0.17897 0.6632 0.0
C1857 C 0.35273 0.16672 0.69464 0.0
C1858 C 0.3417 0.15971 0.68565 0.0
C1859 C 0.33488 0.16394 0.67618 0.0
C1860 C 0.33699 0.14797 0.68647 0.0
C1861 C 0.36035 0.16271 0.70664 0.0
C1862 C 0.34136 0.14288 0.66589 0.0
C1863 C 0.33682 0.13184 0.66677 0.0
C1864 C 0.32771 0.12561 0.68798 0.0
C1865 C 0.3233 0.13075 0.70826 0.0
C1866 C 0.32786 0.14178 0.70745 0.0
H1867 H 0.36744 0.16885 0.72139 0.0
H1868 H 0.35601 0.15561 0.72344 0.0
H1869 H 0.36357 0.1605 0.68353 0.0
H1870 H 0.34823 0.14744 0.64882 0.0
H1871 H 0.34034 0.12817 0.65042 0.0
H1872 H 0.80413 0.14043 0.71434 0.0
H1873 H 0.82307 0.15491 0.71652 0.0
H1874 H 0.81397 0.17435 0.65466 0.0
H1875 H 0.79517 0.16 0.65216 0.0
H1876 H 0.83809 0.16589 0.66341 0.0
H1877 H 0.8288 0.19332 0.73833 0.0
H1878 H 0.81917 0.17941 0.73414 0.0
H1879 H 0.82075 0.18842 0.69937 0.0
C1880 C 0.80616 0.14775 0.70103 0.0
C1881 C 0.798 0.14903 0.68346 0.0
C1882 C 0.817 0.15606 0.70241 0.0
C1883 C 0.81994 0.16584 0.68642 0.0
C1884 C 0.81189 0.16702 0.66809 0.0
H1885 H 0.87879 0.22625 0.65671 0.0
H1886 H 0.86032 0.21113 0.65725 0.0
C1887 C 0.80109 0.15876 0.6667 0.0
C1888 C 0.83139 0.1748 0.68841 0.0
H1889 H 0.84654 0.20072 0.71307 0.0
C1890 C 0.83995 0.17347 0.67455 0.0
C1891 C 0.83387 0.18473 0.7029 0.0
C1892 C 0.82519 0.18656 0.71984 0.0
C1893 C 0.8508 0.18186 0.67381 0.0
C1894 C 0.85324 0.19183 0.68788 0.0
C1895 C 0.8447 0.19311 0.70211 0.0
C1896 C 0.86456 0.20106 0.68788 0.0
C1897 C 0.8595 0.18005 0.65697 0.0
C1898 C 0.87314 0.20057 0.70542 0.0
C1899 C 0.88374 0.20926 0.70534 0.0
C1900 C 0.88606 0.2187 0.68781 0.0
C1901 C 0.87739 0.2192 0.67072 0.0
C1902 C 0.86678 0.21051 0.67086 0.0
H1903 H 0.85591 0.173 0.63967 0.0
H1904 H 0.86523 0.18704 0.64143 0.0
H1905 H 0.86428 0.17872 0.6776 0.0
H1906 H 0.87162 0.1935 0.71953 0.0
H1907 H 0.89009 0.20858 0.71942 0.0
H1908 H 0.01407 0.4649 0.54868 0.0
H1909 H 1.00625 0.47682 0.54906 0.0
H1910 H 0.03454 0.50041 0.49452 0.0
H1911 H 0.04239 0.48857 0.49393 0.0
H1912 H 0.02892 0.50878 0.55003 0.0
H1913 H 0.99227 0.48446 0.4689 0.0
H1914 H 0.9936 0.47769 0.50636 0.0
H1915 H 1.00359 0.48178 0.47206 0.0
C1916 C 0.01858 0.47256 0.53638 0.0
C1917 C 0.02889 0.47571 0.52125 0.0
C1918 C 0.01408 0.47939 0.53657 0.0
C1919 C 0.01972 0.48949 0.52138 0.0
C1920 C 0.03001 0.49266 0.50639 0.0
H1921 H 0.00892 0.54375 0.49415 0.0
H1922 H 0.01618 0.5314 0.49429 0.0
C1923 C 0.03452 0.48587 0.50623 0.0
C1924 C 0.0151 0.49689 0.52184 0.0
H1925 H 0.99327 0.49973 0.49529 0.0
C1926 C 0.02114 0.50681 0.53795 0.0
C1927 C 1.00493 0.49434 0.50614 0.0
C1928 C 0.99825 0.48403 0.4871 0.0
C1929 C 0.01725 0.51415 0.5392 0.0
C1930 C 1.00711 0.51162 0.52338 0.0
C1931 C 1.00104 0.50168 0.50743 0.0
C1932 C 1.00267 0.51916 0.5231 0.0
C1933 C 0.02395 0.52447 0.55815 0.0
C1934 C 0.99251 0.51635 0.53847 0.0
C1935 C 0.98832 0.52341 0.53844 0.0
C1936 C 0.99415 0.53347 0.52282 0.0
C1937 C 1.00427 0.5362 0.50702 0.0
C1938 C 1.00845 0.52912 0.50707 0.0
H1939 H 0.02988 0.52404 0.57653 0.0
H1940 H 0.02866 0.53078 0.53885 0.0
H1941 H 0.01862 0.52678 0.57298 0.0
H1942 H 0.98787 0.50871 0.55093 0.0
H1943 H 0.98057 0.52102 0.55119 0.0
H1944 H 0.47304 0.46194 0.50019 0.0
H1945 H 0.48478 0.48114 0.4988 0.0
H1946 H 0.5111 0.47774 0.54445 0.0
H1947 H 0.49944 0.4586 0.54638 0.0
H1948 H 0.4955 0.49533 0.55413 0.0
H1949 H 0.52549 0.49599 0.45808 0.0
H1950 H 0.51231 0.48448 0.46487 0.0
H1951 H 0.52331 0.48754 0.49502 0.0
C1952 C 0.48129 0.46524 0.51015 0.0
C1953 C 0.48525 0.45861 0.52318 0.0
C1954 C 0.48803 0.47625 0.50917 0.0
C1955 C 0.4989 0.4809 0.52093 0.0
C1956 C 0.50283 0.47434 0.53441 0.0
H1957 H 0.55256 0.54572 0.53816 0.0
H1958 H 0.54095 0.52646 0.5388 0.0
C1959 C 0.49612 0.46335 0.53547 0.0
C1960 C 0.50606 0.49261 0.51984 0.0
H1961 H 0.52997 0.51222 0.48601 0.0
C1962 C 0.50301 0.49902 0.53908 0.0
C1963 C 0.5159 0.49745 0.50037 0.0
C1964 C 0.51943 0.49104 0.47814 0.0
C1965 C 0.50959 0.5101 0.53989 0.0
C1966 C 0.51941 0.51495 0.52028 0.0
C1967 C 0.52247 0.50853 0.50107 0.0
C1968 C 0.52654 0.52668 0.51913 0.0
C1969 C 0.50609 0.51647 0.5625 0.0
C1970 C 0.52242 0.53324 0.50711 0.0
C1971 C 0.52904 0.54425 0.50668 0.0
C1972 C 0.54 0.54899 0.51795 0.0
C1973 C 0.5442 0.54238 0.5291 0.0
C1974 C 0.53755 0.53135 0.52962 0.0
H1975 H 0.50028 0.51152 0.58313 0.0
H1976 H 0.51324 0.52316 0.57514 0.0
H1977 H 0.5019 0.51974 0.54605 0.0
H1978 H 0.51407 0.52985 0.49791 0.0
H1979 H 0.52557 0.54904 0.4972 0.0
H1980 H 0.5602 1.00151 0.48064 0.0
H1981 H 0.54046 0.99295 0.49087 0.0
H1982 H 0.54631 1.00265 0.59862 0.0
H1983 H 0.56614 0.01111 0.58846 0.0
H1984 H 0.52507 0.97747 0.5491 0.0
H1985 H 0.53058 0.01833 0.54578 0.0
H1986 H 0.5405 0.01525 0.5266 0.0
H1987 H 0.53943 0.01561 0.57311 0.0
C1988 C 0.55727 1.00137 0.5069 0.0
C1989 C 0.5647 0.00678 0.53393 0.0
C1990 C 0.54599 0.99656 0.51265 0.0
C1991 C 0.54191 0.99724 0.5454 0.0
C1992 C 0.54929 1.00201 0.57315 0.0
H1993 H 0.47578 0.98917 0.57598 0.0
H1994 H 0.49496 0.99376 0.58546 0.0
C1995 C 0.56062 0.00671 0.56748 0.0
C1996 C 0.53012 0.99408 0.54892 0.0
H1997 H 0.5126 1.00429 0.54661 0.0
C1998 C 0.52232 0.98331 0.54901 0.0
C1999 C 0.52656 1.00172 0.54891 0.0
C2000 C 0.53464 0.0134 0.54848 0.0
C2001 C 0.51103 0.97999 0.54857 0.0
C2002 C 0.50744 0.98763 0.54672 0.0
C2003 C 0.51529 0.99841 0.54785 0.0
C2004 C 0.49568 0.98465 0.54172 0.0
C2005 C 0.50309 0.96829 0.55027 0.0
C2006 C 0.4897 0.97819 0.51362 0.0
C2007 C 0.47876 0.97552 0.50832 0.0
C2008 C 0.47352 0.97939 0.53061 0.0
C2009 C 0.47957 0.98608 0.55829 0.0
C2010 C 0.49052 0.98867 0.5638 0.0
H2011 H 0.50676 0.96396 0.56386 0.0
H2012 H 0.49545 0.96667 0.56398 0.0
H2013 H 0.50099 0.96509 0.52337 0.0
H2014 H 0.49355 0.9753 0.49536 0.0
H2015 H 0.47445 0.97057 0.48627 0.0
H2016 H 0.48982 0.01893 0.97728 0.0
H2017 H 0.50421 0.01393 0.97077 0.0
H2018 H 0.5201 0.0316 0.06343 0.0
H2019 H 0.50577 0.03646 0.07046 0.0
H2020 H 0.5283 0.02772 0.96626 0.0
H2021 H 0.5152 1.00119 0.08176 0.0
H2022 H 0.50637 1.00535 0.06051 0.0
H2023 H 0.51698 0.01419 0.08951 0.0
C2024 C 0.49635 0.0217 0.99636 0.0
C2025 C 0.49659 0.0281 0.02442 0.0
C2026 C 0.50461 0.0189 0.99246 0.0
C2027 C 0.5132 0.02233 1.01676 0.0
C2028 C 0.51352 0.0288 0.0445 0.0
H2029 H 0.56518 0.00793 0.06288 0.0
H2030 H 0.55378 0.0165 0.05938 0.0
C2031 C 0.50533 0.03164 0.04832 0.0
C2032 C 0.52173 0.01902 1.01384 0.0
H2033 H 0.53211 1.00504 0.0563 0.0
C2034 C 0.52913 0.02272 0.98582 0.0
C2035 C 0.52281 0.01252 0.03939 0.0
C2036 C 0.51488 0.00799 0.06937 0.0
C2037 C 0.53774 0.02031 0.98319 0.0
C2038 C 0.53887 0.01386 1.00897 0.0
C2039 C 0.53137 0.01008 0.03671 0.0
C2040 C 0.54754 0.01064 1.00766 0.0
C2041 C 0.54571 0.02491 0.95336 0.0
C2042 C 0.54823 1.00484 0.97926 0.0
C2043 C 0.55495 1.00013 0.98103 0.0
C2044 C 0.56109 1.00112 1.01121 0.0
C2045 C 0.56083 0.00735 0.03886 0.0
C2046 C 0.5542 0.01213 0.037 0.0
H2047 H 0.54578 0.03207 0.94246 0.0
H2048 H 0.55413 0.02703 0.96169 0.0
H2049 H 0.54323 0.01896 0.93216 0.0
H2050 H 0.54296 1.00326 0.95676 0.0
H2051 H 0.55452 0.9949 0.96021 0.0
H2052 H 0.02308 0.54531 0.06539 0.0
H2053 H 0.01608 0.52618 0.07165 0.0
H2054 H 0.02628 0.52488 0.96647 0.0
H2055 H 0.03353 0.54392 0.96062 0.0
H2056 H 1.00077 0.5094 0.04013 0.0
H2057 H 0.03992 0.50993 1.01527 0.0
H2058 H 0.03914 0.52189 1.02194 0.0
H2059 H 0.03635 0.51569 0.9796 0.0
C2060 C 0.02383 0.54093 0.04369 0.0
C2061 C 0.02902 0.54619 1.01272 0.0
C2062 C 0.01985 0.52998 0.04726 0.0
C2063 C 0.02089 0.52404 1.01988 0.0
C2064 C 0.02572 0.52926 0.98853 0.0
H2065 H 0.98227 0.45564 0.99435 0.0
H2066 H 0.9895 0.47479 0.99411 0.0
C2067 C 0.02983 0.54019 0.98513 0.0
C2068 C 0.01673 0.51239 0.02361 0.0
H2069 H 0.02381 0.49302 1.0114 0.0
C2070 C 1.00585 0.50585 0.03412 0.0
C2071 C 0.02336 0.50766 1.01655 0.0
C2072 C 0.03537 0.51418 1.0081 0.0
C2073 C 1.00136 0.49479 0.03674 0.0
C2074 C 1.00779 0.49001 0.02749 0.0
C2075 C 0.01877 0.49658 1.01798 0.0
C2076 C 1.00336 0.47825 0.02748 0.0
C2077 C 0.98982 0.48839 0.05013 0.0
C2078 C 0.00892 0.4737 0.04503 0.0
C2079 C 1.00489 0.46272 0.04455 0.0
C2080 C 0.99516 0.45599 0.02671 0.0
C2081 C 0.98966 0.46056 1.00891 0.0
C2082 C 0.99377 0.47154 1.00895 0.0
H2083 H 0.98749 0.49326 0.06683 0.0
H2084 H 0.98408 0.48554 0.02768 0.0
H2085 H 0.98878 0.48145 0.06547 0.0
H2086 H 0.01635 0.47864 0.05938 0.0
H2087 H 0.0093 0.45947 0.05866 0.0
H2088 H 0.46176 0.48599 1.01153 0.0
H2089 H 0.48131 0.49859 1.01049 0.0
H2090 H 0.4885 0.47375 0.03872 0.0
H2091 H 0.46898 0.4611 0.04038 0.0
H2092 H 0.49714 0.50426 0.06436 0.0
H2093 H 0.50734 0.48674 0.95122 0.0
H2094 H 0.49348 0.48352 0.96161 0.0
H2095 H 0.50014 0.47758 0.98576 0.0
C2096 C 0.46744 0.48316 1.01777 0.0
C2097 C 0.46366 0.47242 0.0259 0.0
C2098 C 0.47867 0.49041 1.01701 0.0
C2099 C 0.48642 0.48711 0.02402 0.0
C2100 C 0.4827 0.47645 0.03247 0.0
H2101 H 0.55746 0.51748 0.02844 0.0
H2102 H 0.53781 0.50532 0.03128 0.0
C2103 C 0.47148 0.4692 0.03336 0.0
C2104 C 0.49836 0.49485 0.02298 0.0
H2105 H 0.52223 0.50033 0.98188 0.0
C2106 C 0.50262 0.50344 0.04623 0.0
C2107 C 0.50554 0.49377 0.99936 0.0
C2108 C 0.50141 0.48497 0.97283 0.0
C2109 C 0.51387 0.51082 0.04706 0.0
C2110 C 0.52106 0.50975 0.02342 0.0
C2111 C 0.51677 0.50118 1.00006 0.0
C2112 C 0.53307 0.51734 0.02261 0.0
C2113 C 0.51797 0.51952 0.07398 0.0
C2114 C 0.53705 0.52819 1.01661 0.0
C2115 C 0.54834 0.5352 1.01503 0.0
C2116 C 0.55593 0.5315 1.01897 0.0
C2117 C 0.5519 0.52062 0.02491 0.0
C2118 C 0.54063 0.51364 0.02666 0.0
H2119 H 0.51215 0.51751 0.09604 0.0
H2120 H 0.52604 0.52114 0.08454 0.0
H2121 H 0.51892 0.52687 0.06168 0.0
H2122 H 0.53143 0.53124 1.01248 0.0
H2123 H 0.5511 0.54347 1.00981 0.0
H2124 H 0.42618 0.03777 0.05587 0.0
H2125 H 0.41505 0.04549 0.07737 0.0
H2126 H 0.44329 0.07654 0.07375 0.0
H2127 H 0.45438 0.06895 0.05245 0.0
H2128 H 0.41687 0.05751 0.13616 0.0
H2129 H 0.42125 0.08087 1.01697 0.0
H2130 H 0.42492 0.0705 1.01824 0.0
H2131 H 0.4342 0.08348 0.03472 0.0
C2132 C 0.43003 0.04623 0.05981 0.0
C2133 C 0.44117 0.05273 0.05186 0.0
C2134 C 0.42364 0.05065 0.072 0.0
C2135 C 0.42825 0.06165 0.07641 0.0
C2136 C 0.43944 0.06808 0.06957 0.0
H2137 H 0.4119 0.10807 0.15256 0.0
H2138 H 0.42004 0.0977 0.12991 0.0
C2139 C 0.44579 0.0637 0.05735 0.0
C2140 C 0.4215 0.06649 0.08844 0.0
H2141 H 0.41464 0.08557 0.06777 0.0
C2142 C 0.41626 0.06355 0.12102 0.0
C2143 C 0.42063 0.07434 0.06866 0.0
C2144 C 0.42545 0.07741 0.03255 0.0
C2145 C 0.41063 0.06858 0.13496 0.0
C2146 C 0.41012 0.07669 0.11567 0.0
C2147 C 0.41509 0.07941 0.08269 0.0
C2148 C 0.40495 0.08283 0.12982 0.0
C2149 C 0.40565 0.06547 0.17083 0.0
C2150 C 0.39369 0.07798 0.13703 0.0
C2151 C 0.38898 0.08392 0.15011 0.0
C2152 C 0.39543 0.09485 0.15636 0.0
C2153 C 0.40669 0.09967 0.14873 0.0
C2154 C 0.41136 0.09375 0.13552 0.0
H2155 H 0.40858 0.06061 0.18502 0.0
H2156 H 0.40758 0.0726 0.18665 0.0
H2157 H 0.39663 0.06077 0.16834 0.0
H2158 H 0.38853 0.0696 0.13234 0.0
H2159 H 0.38031 0.07993 0.15577 0.0
H2160 H 0.92272 0.29683 0.18769 0.0
H2161 H 0.93066 0.31436 0.16167 0.0
H2162 H 0.94995 0.30644 0.09279 0.0
H2163 H 0.94224 0.28884 0.11979 0.0
H2164 H 0.96215 0.32624 0.12213 0.0
H2165 H 0.92381 0.32276 0.06839 0.0
H2166 H 0.9228 0.31989 0.11419 0.0
H2167 H 0.92478 0.31146 0.08393 0.0
C2168 C 0.92867 0.29876 0.16709 0.0
C2169 C 0.93184 0.29135 0.15606 0.0
C2170 C 0.93313 0.30881 0.15188 0.0
C2171 C 0.94082 0.31176 0.12484 0.0
C2172 C 0.94399 0.30438 0.11348 0.0
H2173 H 0.9597 0.3687 1.00022 0.0
H2174 H 0.95281 0.35064 1.02108 0.0
C2175 C 0.93951 0.29426 0.12876 0.0
C2176 C 0.9457 0.32263 0.10939 0.0
H2177 H 0.93898 0.34023 0.07201 0.0
C2178 C 0.95709 0.32927 0.11091 0.0
C2179 C 0.93916 0.32662 0.09431 0.0
C2180 C 0.92698 0.31978 0.08974 0.0
C2181 C 0.96205 0.3398 0.09869 0.0
C2182 C 0.95544 0.34393 0.08511 0.0
C2183 C 0.94409 0.33719 0.08279 0.0
C2184 C 0.96009 0.35511 0.0724 0.0
C2185 C 0.97435 0.34632 0.09996 0.0
C2186 C 0.96649 0.36379 0.09418 0.0
C2187 C 0.97049 0.37422 0.0822 0.0
C2188 C 0.96806 0.37624 0.04829 0.0
C2189 C 0.96163 0.36752 0.02663 0.0
C2190 C 0.95771 0.35714 0.03851 0.0
H2191 H 0.97828 0.34125 0.10113 0.0
H2192 H 0.97754 0.35159 0.07686 0.0
H2193 H 0.97677 0.35132 0.12375 0.0
H2194 H 0.96824 0.36252 0.12074 0.0
H2195 H 0.97528 0.3807 0.09979 0.0
H2196 H 0.71564 0.61432 0.21249 0.0
H2197 H 0.69732 0.60608 0.18745 0.0
H2198 H 0.71093 0.61822 0.08606 0.0
H2199 H 0.72945 0.62656 0.11114 0.0
H2200 H 0.69236 0.62014 0.10051 0.0
H2201 H 0.68427 0.57936 0.12835 0.0
H2202 H 0.68822 0.58766 0.1663 0.0
H2203 H 0.69778 0.59066 0.1311 0.0
C2204 C 0.7148 0.61519 0.18479 0.0
C2205 C 0.7241 0.62098 0.16376 0.0
C2206 C 0.70427 0.61046 0.17048 0.0
C2207 C 0.70271 0.6113 0.13468 0.0
C2208 C 0.71192 0.61738 0.11372 0.0
H2209 H 0.64321 0.57014 1.02076 0.0
H2210 H 0.66163 0.57957 0.04494 0.0
C2211 C 0.7225 0.62218 0.1281 0.0
C2212 C 0.69147 0.60572 0.11937 0.0
H2213 H 0.66902 0.58126 0.11053 0.0
C2214 C 0.68727 0.61164 0.10258 0.0
C2215 C 0.68483 0.59459 0.12163 0.0
C2216 C 0.68902 0.58767 0.1375 0.0
C2217 C 0.67659 0.60677 0.08861 0.0
C2218 C 0.66982 0.59568 0.092 0.0
C2219 C 0.67411 0.58976 0.10828 0.0
C2220 C 0.65845 0.58997 0.07762 0.0
C2221 C 0.67275 0.61353 0.06971 0.0
C2222 C 0.65035 0.59248 0.08831 0.0
C2223 C 0.63974 0.58711 0.07422 0.0
C2224 C 0.63696 0.57906 0.04921 0.0
C2225 C 0.64503 0.57639 0.03939 0.0
C2226 C 0.6556 0.58176 0.0534 0.0
H2227 H 0.67972 0.6212 0.06131 0.0
H2228 H 0.66781 0.60939 0.04638 0.0
H2229 H 0.66755 0.61526 0.08748 0.0
H2230 H 0.65222 0.59859 0.10758 0.0
H2231 H 0.63381 0.58943 0.08242 0.0
H2232 H 0.0546 0.42532 0.4438 0.0
H2233 H 0.06389 0.41626 0.41852 0.0
H2234 H 0.08163 0.42053 0.51456 0.0
H2235 H 0.07237 0.42948 0.5401 0.0
H2236 H 0.09502 0.42617 0.45702 0.0
H2237 H 0.05908 0.38645 0.43782 0.0
H2238 H 0.05774 0.39708 0.41836 0.0
H2239 H 0.05863 0.39643 0.46501 0.0
C2240 C 0.06037 0.42424 0.45976 0.0
C2241 C 0.0627 0.42821 0.49411 0.0
C2242 C 0.06568 0.41902 0.44523 0.0
C2243 C 0.07339 0.41758 0.46473 0.0
C2244 C 0.07572 0.42153 0.49894 0.0
H2245 H 0.1034 0.37806 0.41749 0.0
H2246 H 0.09256 0.38562 0.44241 0.0
C2247 C 0.07044 0.42672 0.51348 0.0
C2248 C 0.07936 0.41236 0.44928 0.0
H2249 H 0.07588 0.38927 0.41317 0.0
C2250 C 0.09082 0.41809 0.44748 0.0
C2251 C 0.07391 0.40176 0.43721 0.0
C2252 C 0.06167 0.39501 0.43992 0.0
C2253 C 0.09696 0.41362 0.43354 0.0
C2254 C 0.09151 0.40314 0.42052 0.0
C2255 C 0.08006 0.39732 0.42285 0.0
C2256 C 0.09761 0.39817 0.40431 0.0
C2257 C 0.10927 0.42012 0.43338 0.0
C2258 C 0.10386 0.40252 0.37408 0.0
C2259 C 0.11002 0.3982 0.35969 0.0
C2260 C 0.11009 0.38937 0.37507 0.0
C2261 C 0.10354 0.38481 0.40477 0.0
C2262 C 0.09735 0.38915 0.41916 0.0
H2263 H 0.11224 0.42681 0.45212 0.0
H2264 H 0.11311 0.41518 0.43998 0.0
H2265 H 0.11205 0.42347 0.40692 0.0
H2266 H 0.104 0.40932 0.36164 0.0
H2267 H 0.11472 0.4018 0.33639 0.0
H2268 H 0.64685 0.71422 0.39398 0.0
H2269 H 0.6384 0.69577 0.41367 0.0
H2270 H 0.60647 0.69316 0.40318 0.0
H2271 H 0.61483 0.71145 0.38301 0.0
H2272 H 0.6257 0.68532 0.4682 0.0
H2273 H 0.60212 0.66801 0.34731 0.0
H2274 H 0.61262 0.68167 0.35001 0.0
H2275 H 0.59903 0.67764 0.36585 0.0
C2276 C 0.63803 0.70973 0.39601 0.0
C2277 C 0.63152 0.71431 0.38646 0.0
C2278 C 0.6332 0.69915 0.40716 0.0
C2279 C 0.62175 0.69292 0.40907 0.0
C2280 C 0.61528 0.69763 0.40079 0.0
H2281 H 0.57456 0.63208 0.48968 0.0
H2282 H 0.58491 0.65011 0.46688 0.0
C2283 C 0.62009 0.70813 0.38937 0.0
C2284 C 0.61654 0.68159 0.42019 0.0
H2285 H 0.59689 0.65662 0.39726 0.0
C2286 C 0.6195 0.67904 0.45245 0.0
C2287 C 0.60849 0.67331 0.39963 0.0
C2288 C 0.60546 0.67527 0.36362 0.0
C2289 C 0.61434 0.66858 0.4652 0.0
C2290 C 0.60602 0.66042 0.44521 0.0
C2291 C 0.60322 0.6629 0.41267 0.0
C2292 C 0.59979 0.64935 0.45832 0.0
C2293 C 0.61756 0.66634 0.50047 0.0
C2294 C 0.60466 0.64284 0.46058 0.0
C2295 C 0.59872 0.63247 0.47344 0.0
C2296 C 0.58782 0.62844 0.48459 0.0
C2297 C 0.58296 0.63496 0.48178 0.0
C2298 C 0.58886 0.64526 0.46861 0.0
H2299 H 0.62323 0.6737 0.51457 0.0
H2300 H 0.61018 0.66174 0.51676 0.0
H2301 H 0.62167 0.66147 0.49711 0.0
H2302 H 0.61307 0.64581 0.45251 0.0
H2303 H 0.60274 0.6277 0.47546 0.0
H2304 H 0.31456 0.90971 0.33673 0.0
H2305 H 0.33294 0.91973 0.36099 0.0
H2306 H 0.32004 0.9285 0.44933 0.0
H2307 H 0.30152 0.91838 0.42529 0.0
H2308 H 0.33963 0.94547 0.42216 0.0
H2309 H 0.34403 0.90979 0.44439 0.0
H2310 H 0.34046 0.91115 0.40038 0.0
H2311 H 0.33101 0.90905 0.4352 0.0
C2312 C 0.31556 0.91368 0.36146 0.0
C2313 C 0.30645 0.91307 0.3792 0.0
C2314 C 0.32613 0.91945 0.37529 0.0
C2315 C 0.32789 0.92473 0.40733 0.0
C2316 C 0.3189 0.92445 0.42463 0.0
H2317 H 0.38553 0.94521 0.53745 0.0
H2318 H 0.36714 0.93729 0.51302 0.0
C2319 C 0.30829 0.91867 0.41078 0.0
C2320 C 0.33909 0.93034 0.42293 0.0
H2321 H 0.35995 0.92637 0.45216 0.0
C2322 C 0.34407 0.9413 0.42881 0.0
C2323 C 0.34487 0.92489 0.432 0.0
C2324 C 0.3398 0.91306 0.42801 0.0
C2325 C 0.3547 0.94696 0.44295 0.0
C2326 C 0.36058 0.94154 0.45111 0.0
C2327 C 0.35552 0.93056 0.44564 0.0
C2328 C 0.37183 0.94696 0.46647 0.0
C2329 C 0.35946 0.95865 0.44967 0.0
C2330 C 0.38071 0.95512 0.44862 0.0
C2331 C 0.39134 0.95968 0.46258 0.0
C2332 C 0.39335 0.95611 0.49457 0.0
C2333 C 0.38439 0.94806 0.51253 0.0
C2334 C 0.37381 0.94354 0.49864 0.0
H2335 H 0.35302 0.96105 0.45037 0.0
H2336 H 0.36402 0.96092 0.47474 0.0
H2337 H 0.36524 0.96312 0.42841 0.0
H2338 H 0.37947 0.95778 0.42344 0.0
H2339 H 0.39801 0.96577 0.44781 0.0
H2340 H 0.59035 0.96937 0.93471 0.0
H2341 H 0.59943 0.95984 0.91136 0.0
H2342 H 0.61655 0.96424 1.00882 0.0
H2343 H 0.60736 0.97354 0.03255 0.0
H2344 H 0.62084 0.9646 0.90129 0.0
H2345 H 0.60147 0.93242 0.99886 0.0
H2346 H 0.59722 0.94227 0.99272 0.0
H2347 H 0.60923 0.94527 1.01807 0.0
C2348 C 0.59615 0.96843 0.95106 0.0
C2349 C 0.59802 0.97216 0.98568 0.0
C2350 C 0.60132 0.96294 0.93768 0.0
C2351 C 0.60848 0.96105 0.95859 0.0
C2352 C 0.61083 0.96529 0.99245 0.0
H2353 H 0.64367 0.92529 0.92846 0.0
H2354 H 0.63706 0.93715 0.9501 0.0
C2355 C 0.60562 0.97071 1.0059 0.0
C2356 C 0.61326 0.95443 0.9454 0.0
H2357 H 0.61503 0.93206 0.96275 0.0
C2358 C 0.61954 0.95747 0.9147 0.0
C2359 C 0.61157 0.94508 0.96277 0.0
C2360 C 0.60442 0.94099 0.99473 0.0
C2361 C 0.62428 0.95155 0.90129 0.0
C2362 C 0.62261 0.94224 0.91874 0.0
C2363 C 0.61638 0.93922 0.94947 0.0
C2364 C 0.62696 0.93533 0.90501 0.0
C2365 C 0.6312 0.95541 0.86881 0.0
C2366 C 0.62344 0.93027 0.8726 0.0
C2367 C 0.62719 0.92348 0.86021 0.0
C2368 C 0.63456 0.92155 0.87993 0.0
C2369 C 0.63811 0.92666 0.91238 0.0
C2370 C 0.63429 0.93341 0.92487 0.0
H2371 H 0.63404 0.96393 0.8639 0.0
H2372 H 0.63844 0.95419 0.87075 0.0
H2373 H 0.62626 0.95087 0.846 0.0
H2374 H 0.61766 0.93146 0.857 0.0
H2375 H 0.62434 0.91979 0.835 0.0
H2376 H 0.10494 0.70316 0.83711 0.0
H2377 H 0.09568 0.6853 0.86099 0.0
H2378 H 0.09175 0.69749 0.95934 0.0
H2379 H 0.10112 0.71548 0.93568 0.0
H2380 H 0.10147 0.67704 0.91645 0.0
H2381 H 0.06077 0.67375 0.93973 0.0
H2382 H 0.07109 0.68409 0.91322 0.0
H2383 H 0.07194 0.68501 0.96 0.0
C2384 C 0.1022 0.70212 0.8639 0.0
C2385 C 0.10386 0.71087 0.88438 0.0
C2386 C 0.09682 0.69184 0.87749 0.0
C2387 C 0.09287 0.68998 0.91187 0.0
C2388 C 0.0945 0.69866 0.9325 0.0
H2389 H 0.07545 0.63227 0.03004 0.0
H2390 H 0.08387 0.65035 1.00786 0.0
C2391 C 0.09989 0.70898 0.9189 0.0
C2392 C 0.08738 0.67897 0.92616 0.0
H2393 H 0.06344 0.65976 0.96126 0.0
C2394 C 0.09316 0.67327 0.92625 0.0
C2395 C 0.07647 0.67397 0.93855 0.0
C2396 C 0.06964 0.67946 0.93765 0.0
C2397 C 0.0884 0.6628 0.93866 0.0
C2398 C 0.07759 0.65789 0.9519 0.0
C2399 C 0.07175 0.66353 0.95142 0.0
C2400 C 0.07221 0.64688 0.96606 0.0
C2401 C 0.09493 0.65702 0.9368 0.0
C2402 C 0.06264 0.63889 0.95064 0.0
C2403 C 0.05777 0.62847 0.96328 0.0
C2404 C 0.06234 0.6258 0.9918 0.0
C2405 C 0.0718 0.63391 1.00762 0.0
C2406 C 0.07665 0.6443 0.99496 0.0
H2407 H 0.1018 0.6608 0.91799 0.0
H2408 H 0.09843 0.65714 0.96291 0.0
H2409 H 0.08967 0.64864 0.92905 0.0
H2410 H 0.05903 0.64067 0.92837 0.0
H2411 H 0.05056 0.62249 0.95019 0.0
H2412 H 0.37472 0.41542 0.05498 0.0
H2413 H 0.35624 0.4041 0.03307 0.0
H2414 H 0.36896 0.40672 0.92898 0.0
H2415 H 0.38756 0.41795 0.95096 0.0
H2416 H 0.34432 0.40812 0.98814 0.0
H2417 H 0.3496 0.37532 0.93467 0.0
H2418 H 0.35972 0.38544 0.96231 0.0
H2419 H 0.35911 0.3879 0.91651 0.0
C2420 C 0.37362 0.41362 0.0274 0.0
C2421 C 0.38269 0.41765 1.00476 0.0
C2422 C 0.36301 0.40708 1.01489 0.0
C2423 C 0.36113 0.40436 0.97939 0.0
C2424 C 0.37016 0.40841 0.95664 0.0
H2425 H 0.30491 0.37559 0.84428 0.0
H2426 H 0.32291 0.38329 0.87175 0.0
C2427 C 0.38081 0.4149 0.96922 0.0
C2428 C 0.34968 0.39771 0.96618 0.0
H2429 H 0.33318 0.37556 0.91858 0.0
C2430 C 0.34187 0.40093 0.97327 0.0
C2431 C 0.3464 0.38829 0.94678 0.0
C2432 C 0.35411 0.38396 0.9399 0.0
C2433 C 0.33107 0.39525 0.9607 0.0
C2434 C 0.32786 0.38597 0.94073 0.0
C2435 C 0.33561 0.38265 0.93396 0.0
C2436 C 0.31675 0.38008 0.92458 0.0
C2437 C 0.32327 0.39946 0.96784 0.0
C2438 C 0.30719 0.37529 0.94501 0.0
C2439 C 0.2968 0.37078 0.92927 0.0
C2440 C 0.29578 0.37102 0.89277 0.0
C2441 C 0.30536 0.3753 0.87245 0.0
C2442 C 0.3157 0.37972 0.88813 0.0
H2443 H 0.32757 0.40773 0.97758 0.0
H2444 H 0.31865 0.39917 0.94388 0.0
H2445 H 0.31728 0.39447 0.98795 0.0
H2446 H 0.30778 0.3753 0.97319 0.0
H2447 H 0.28961 0.36761 0.94572 0.0
H2448 H 0.92399 0.63658 0.59959 0.0
H2449 H 0.93286 0.62683 0.57637 0.0
H2450 H 0.95037 0.63158 0.6732 0.0
H2451 H 0.94143 0.64114 0.69675 0.0
H2452 H 0.9544 0.63156 0.56595 0.0
H2453 H 0.93498 0.59964 0.66435 0.0
H2454 H 0.93077 0.6095 0.65779 0.0
H2455 H 0.94279 0.61255 0.68312 0.0
C2456 C 0.92983 0.63567 0.61582 0.0
C2457 C 0.9319 0.63959 0.65021 0.0
C2458 C 0.93488 0.63005 0.60252 0.0
C2459 C 0.94209 0.6282 0.6233 0.0
C2460 C 0.94461 0.63261 0.65693 0.0
H2461 H 0.97678 0.59188 0.59459 0.0
H2462 H 0.97025 0.60383 0.61596 0.0
C2463 C 0.93954 0.63817 0.67028 0.0
C2464 C 0.94679 0.62149 0.61024 0.0
H2465 H 0.94844 0.59909 0.62822 0.0
C2466 C 0.95306 0.62445 0.57953 0.0
C2467 C 0.94507 0.61218 0.62786 0.0
C2468 C 0.93795 0.6082 0.65991 0.0
C2469 C 0.95777 0.61847 0.56635 0.0
C2470 C 0.95606 0.60917 0.58401 0.0
C2471 C 0.94983 0.60624 0.61476 0.0
C2472 C 0.96036 0.60219 0.57049 0.0
C2473 C 0.96471 0.62227 0.53391 0.0
C2474 C 0.95693 0.59719 0.53794 0.0
C2475 C 0.96064 0.59035 0.52569 0.0
C2476 C 0.96787 0.58829 0.54569 0.0
C2477 C 0.97132 0.59334 0.57829 0.0
C2478 C 0.96755 0.60015 0.59063 0.0
H2479 H 0.96767 0.63081 0.52906 0.0
H2480 H 0.97189 0.62094 0.53584 0.0
H2481 H 0.95975 0.61779 0.51106 0.0
H2482 H 0.95124 0.59847 0.52212 0.0
H2483 H 0.95786 0.58673 0.50036 0.0
H2484 H 0.43219 0.38386 0.59651 0.0
H2485 H 0.42274 0.36603 0.62133 0.0
H2486 H 0.43004 0.35366 0.52896 0.0
H2487 H 0.43933 0.37136 0.50373 0.0
H2488 H 0.40471 0.3471 0.59538 0.0
H2489 H 0.44204 0.34304 0.60874 0.0
H2490 H 0.44259 0.35563 0.60142 0.0
H2491 H 0.43986 0.34663 0.56574 0.0
C2492 C 0.43173 0.37737 0.58127 0.0
C2493 C 0.43666 0.37916 0.5481 0.0
C2494 C 0.42634 0.36715 0.59561 0.0
C2495 C 0.42582 0.35851 0.57728 0.0
C2496 C 0.43053 0.36022 0.54396 0.0
H2497 H 0.38421 0.29091 0.61595 0.0
H2498 H 0.39263 0.30891 0.59261 0.0
C2499 C 0.43589 0.3704 0.52957 0.0
C2500 C 0.42038 0.3477 0.59289 0.0
H2501 H 0.42508 0.32761 0.61889 0.0
C2502 C 0.40916 0.34285 0.60061 0.0
C2503 C 0.42621 0.34218 0.6001 0.0
C2504 C 0.43836 0.34715 0.5939 0.0
C2505 C 0.40359 0.33256 0.61471 0.0
C2506 C 0.40936 0.32693 0.62097 0.0
C2507 C 0.42062 0.33187 0.61382 0.0
C2508 C 0.40395 0.31597 0.63552 0.0
C2509 C 0.39161 0.32788 0.62333 0.0
C2510 C 0.40759 0.31387 0.66717 0.0
C2511 C 0.40279 0.30357 0.68063 0.0
C2512 C 0.39426 0.29507 0.66265 0.0
C2513 C 0.39063 0.29722 0.63088 0.0
C2514 C 0.39544 0.30754 0.61745 0.0
H2515 H 0.38909 0.33407 0.62532 0.0
H2516 H 0.38669 0.32231 0.60234 0.0
H2517 H 0.38965 0.32343 0.64828 0.0
H2518 H 0.41415 0.32022 0.68161 0.0
H2519 H 0.40575 0.30233 0.70533 0.0
H2520 H 0.63485 0.06317 0.56191 0.0
H2521 H 0.65361 0.06992 0.58102 0.0
H2522 H 0.6478 0.03809 0.59707 0.0
H2523 H 0.62865 0.03115 0.57817 0.0
H2524 H 0.6596 0.05153 0.65137 0.0
H2525 H 0.67846 0.07028 0.52605 0.0
H2526 H 0.669 0.0745 0.54058 0.0
H2527 H 0.66411 0.0608 0.52985 0.0
C2528 C 0.63748 0.05752 0.5693 0.0
C2529 C 0.63018 0.04656 0.56815 0.0
C2530 C 0.64831 0.06144 0.58006 0.0
C2531 C 0.65227 0.05455 0.58972 0.0
C2532 C 0.64499 0.04358 0.58936 0.0
H2533 H 0.72371 0.08519 0.62213 0.0
H2534 H 0.70527 0.07306 0.60101 0.0
C2535 C 0.63404 0.03961 0.57854 0.0
C2536 C 0.66393 0.05902 0.60098 0.0
H2537 H 0.68997 0.07704 0.57691 0.0
C2538 C 0.66626 0.05698 0.63489 0.0
C2539 C 0.67272 0.06598 0.57938 0.0
C2540 C 0.67096 0.06793 0.54182 0.0
C2541 C 0.677 0.06216 0.64838 0.0
C2542 C 0.68565 0.0698 0.62773 0.0
C2543 C 0.68339 0.07135 0.59312 0.0
C2544 C 0.69692 0.07665 0.6419 0.0
C2545 C 0.67893 0.05939 0.68472 0.0
C2546 C 0.69849 0.08282 0.67185 0.0
C2547 C 0.70903 0.08969 0.68422 0.0
C2548 C 0.71838 0.09076 0.66671 0.0
C2549 C 0.71679 0.08456 0.63667 0.0
C2550 C 0.70621 0.07762 0.62439 0.0
H2551 H 0.67277 0.05117 0.6917 0.0
H2552 H 0.68721 0.06021 0.6874 0.0
H2553 H 0.67813 0.06476 0.70371 0.0
H2554 H 0.69155 0.08249 0.68543 0.0
H2555 H 0.70978 0.09418 0.70758 0.0
H2556 H 0.72293 0.75869 0.78314 0.0
H2557 H 0.73144 0.74857 0.76001 0.0
H2558 H 0.74743 0.75149 0.85879 0.0
H2559 H 0.73889 0.76145 0.88215 0.0
H2560 H 0.75468 0.75569 0.75622 0.0
H2561 H 0.73284 0.71938 0.83675 0.0
H2562 H 0.72782 0.72868 0.83088 0.0
H2563 H 0.73892 0.73165 0.86045 0.0
C2564 C 0.72815 0.75707 0.80007 0.0
C2565 C 0.73022 0.76092 0.83453 0.0
C2566 C 0.73305 0.75133 0.78676 0.0
C2567 C 0.73999 0.74916 0.80775 0.0
C2568 C 0.742 0.75292 0.8422 0.0
H2569 H 0.77796 0.7162 0.77053 0.0
H2570 H 0.76886 0.72536 0.79727 0.0
C2571 C 0.73719 0.75873 0.85542 0.0
C2572 C 0.74549 0.74336 0.79326 0.0
H2573 H 0.74744 0.72075 0.80187 0.0
C2574 C 0.75306 0.74803 0.76609 0.0
C2575 C 0.74349 0.73342 0.80642 0.0
C2576 C 0.73527 0.72791 0.83506 0.0
C2577 C 0.75875 0.74311 0.75198 0.0
C2578 C 0.75662 0.73306 0.76465 0.0
C2579 C 0.7491 0.72843 0.79207 0.0
C2580 C 0.76185 0.72713 0.74898 0.0
C2581 C 0.76721 0.74888 0.72414 0.0
C2582 C 0.76071 0.72478 0.71319 0.0
C2583 C 0.76592 0.71963 0.69794 0.0
C2584 C 0.77233 0.71653 0.7181 0.0
C2585 C 0.77312 0.71849 0.75425 0.0
C2586 C 0.76794 0.72375 0.76952 0.0
H2587 H 0.77032 0.75755 0.72538 0.0
H2588 H 0.77425 0.74737 0.72658 0.0
H2589 H 0.76342 0.74612 0.69808 0.0
H2590 H 0.75576 0.72694 0.6969 0.0
H2591 H 0.76485 0.718 0.67025 0.0
H2592 H 0.26985 0.96034 0.81583 0.0
H2593 H 0.28032 0.9787 0.79555 0.0
H2594 H 0.25119 0.98178 0.80013 0.0
H2595 H 0.24073 0.96355 0.82031 0.0
H2596 H 0.27816 0.98908 0.73788 0.0
H2597 H 0.2723 0.00683 0.85825 0.0
H2598 H 0.26919 0.99318 0.85602 0.0
H2599 H 0.25959 0.99709 0.8397 0.0
C2600 C 0.26565 0.9649 0.81233 0.0
C2601 C 0.25444 0.96045 0.82022 0.0
C2602 C 0.27167 0.97542 0.80085 0.0
C2603 C 0.26662 0.98175 0.79708 0.0
C2604 C 0.25537 0.97721 0.80383 0.0
H2605 H 0.28072 0.0433 0.7246 0.0
H2606 H 0.27321 0.02526 0.74656 0.0
C2607 C 0.24938 0.96674 0.81538 0.0
C2608 C 0.273 0.99305 0.78582 0.0
H2609 H 0.27878 0.01813 0.80833 0.0
C2610 C 0.27841 0.99545 0.75347 0.0
C2611 C 0.27341 1.00141 0.8062 0.0
C2612 C 0.26841 0.99953 0.84213 0.0
C2613 C 0.28376 1.00587 0.74034 0.0
C2614 C 0.28383 0.01416 0.76023 0.0
C2615 C 0.27868 0.01179 0.79296 0.0
C2616 C 0.28866 0.02523 0.74685 0.0
C2617 C 0.28894 0.00788 0.70468 0.0
C2618 C 0.29991 0.03134 0.74007 0.0
C2619 C 0.30427 0.04174 0.72739 0.0
C2620 C 0.29745 0.04622 0.7211 0.0
C2621 C 0.28621 0.04009 0.72847 0.0
C2622 C 0.28189 0.02977 0.74128 0.0
H2623 H 0.28638 1.00043 0.68995 0.0
H2624 H 0.2868 0.01311 0.68917 0.0
H2625 H 0.29797 0.01193 0.70758 0.0
H2626 H 0.30534 0.02809 0.74468 0.0
H2627 H 0.31294 0.04618 0.72194 0.0
H2628 H 0.04976 0.28494 0.85041 0.0
H2629 H 0.03148 0.2801 0.82953 0.0
H2630 H 0.04476 0.30798 0.76482 0.0
H2631 H 0.06323 0.31268 0.78452 0.0
H2632 H 0.01927 0.28979 0.83408 0.0
H2633 H 0.02671 0.28533 0.69454 0.0
H2634 H 0.03628 0.2867 0.72844 0.0
H2635 H 0.03576 0.29814 0.71229 0.0
C2636 C 0.04889 0.29002 0.8314 0.0
C2637 C 0.05812 0.29916 0.81891 0.0
C2638 C 0.03835 0.28726 0.81966 0.0
C2639 C 0.03668 0.29355 0.79506 0.0
C2640 C 0.04581 0.30284 0.78318 0.0
H2641 H 0.97036 0.28374 0.75132 0.0
H2642 H 0.98944 0.29133 0.7696 0.0
C2643 C 0.0564 0.3056 0.79486 0.0
C2644 C 0.02536 0.29029 0.78218 0.0
H2645 H 0.00942 0.28351 0.70871 0.0
C2646 C 0.01714 0.28846 0.80664 0.0
C2647 C 0.02248 0.28839 0.7464 0.0
C2648 C 0.03073 0.28964 0.71888 0.0
C2649 C 1.00619 0.28475 0.79645 0.0
C2650 C 1.00334 0.28303 0.76061 0.0
C2651 C 0.01157 0.28491 0.73614 0.0
C2652 C 0.9918 0.27874 0.74814 0.0
C2653 C 0.99771 0.28235 0.8244 0.0
C2654 C 0.9868 0.26933 0.72869 0.0
C2655 C 0.97591 0.26504 0.71764 0.0
C2656 C 0.96967 0.27003 0.72571 0.0
C2657 C 0.9748 0.27962 0.74448 0.0
C2658 C 0.98574 0.28393 0.7554 0.0
H2659 H 1.00064 0.2814 0.85044 0.0
H2660 H 0.99588 0.289 0.82611 0.0
H2661 H 0.98999 0.27503 0.81824 0.0
H2662 H 0.99128 0.26519 0.72241 0.0
H2663 H 0.97243 0.2578 0.70267 0.0
H2664 H 0.31747 0.26917 0.22129 0.0
H2665 H 0.30999 0.28038 0.24292 0.0
H2666 H 0.27728 0.25485 0.22644 0.0
H2667 H 0.28465 0.24365 0.20506 0.0
H2668 H 0.29407 0.28555 0.20523 0.0
H2669 H 0.27858 0.26454 0.33107 0.0
H2670 H 0.2892 0.26382 0.30634 0.0
H2671 H 0.27514 0.25616 0.29329 0.0
C2672 C 0.30869 0.26592 0.22257 0.0
C2673 C 0.30167 0.25548 0.21141 0.0
C2674 C 0.30443 0.27236 0.23471 0.0
C2675 C 0.29307 0.26844 0.23648 0.0
C2676 C 0.28607 0.25803 0.22553 0.0
H2677 H 0.24385 0.28364 0.29547 0.0
H2678 H 0.25564 0.27652 0.27772 0.0
C2679 C 0.29031 0.25165 0.21309 0.0
C2680 C 0.28839 0.27513 0.24957 0.0
H2681 H 0.27212 0.27632 0.31384 0.0
C2682 C 0.28939 0.28365 0.22922 0.0
C2683 C 0.28231 0.27267 0.28088 0.0
C2684 C 0.28129 0.26386 0.30441 0.0
C2685 C 0.28398 0.28939 0.23843 0.0
C2686 C 0.27757 0.28667 0.2692 0.0
C2687 C 0.27698 0.27842 0.2902 0.0
C2688 C 0.27058 0.29152 0.27866 0.0
C2689 C 0.28472 0.29795 0.21422 0.0
C2690 C 0.27496 0.30244 0.285 0.0
C2691 C 0.26813 0.30663 0.29508 0.0
C2692 C 0.25681 0.29994 0.29937 0.0
C2693 C 0.25251 0.28907 0.29267 0.0
C2694 C 0.25928 0.28494 0.2825 0.0
H2695 H 0.28804 0.29757 0.18826 0.0
H2696 H 0.27657 0.29736 0.21049 0.0
H2697 H 0.29025 0.30579 0.22583 0.0
H2698 H 0.28368 0.3077 0.28286 0.0
H2699 H 0.27173 0.31502 0.30022 0.0
H2700 H 0.7353 0.97126 0.37813 0.0
H2701 H 0.74333 0.98909 0.35387 0.0
H2702 H 0.73223 0.97602 0.25126 0.0
H2703 H 0.72398 0.95812 0.27562 0.0
H2704 H 0.75915 0.99903 0.30803 0.0
H2705 H 0.7214 0.99704 0.25422 0.0
H2706 H 0.72111 0.98703 0.28303 0.0
H2707 H 0.72391 0.98686 0.23726 0.0
C2708 C 0.73458 0.97216 0.35038 0.0
C2709 C 0.72897 0.96322 0.32886 0.0
C2710 C 0.73915 0.98239 0.33652 0.0
C2711 C 0.73826 0.98399 0.30075 0.0
C2712 C 0.73278 0.97507 0.27908 0.0
H2713 H 0.76684 0.03885 0.16477 0.0
H2714 H 0.75783 0.02118 0.19077 0.0
C2715 C 0.7281 0.96481 0.29302 0.0
C2716 C 0.74338 0.99497 0.28621 0.0
H2717 H 0.73825 0.01193 0.23726 0.0
C2718 C 0.75453 1.00185 0.2928 0.0
C2719 C 0.7374 0.99874 0.26638 0.0
C2720 C 0.72527 0.99207 0.26009 0.0
C2721 C 0.75988 0.01224 0.2796 0.0
C2722 C 0.75394 0.01592 0.25931 0.0
C2723 C 0.7428 0.00909 0.25277 0.0
C2724 C 0.75925 0.02673 0.24385 0.0
C2725 C 0.77191 0.01917 0.28676 0.0
C2726 C 0.76294 0.03577 0.26501 0.0
C2727 C 0.76809 0.04592 0.25016 0.0
C2728 C 0.76973 0.04725 0.21386 0.0
C2729 C 0.7659 0.03815 0.19282 0.0
C2730 C 0.76067 0.02803 0.20762 0.0
H2731 H 0.77572 0.01463 0.29796 0.0
H2732 H 0.7763 0.02311 0.26241 0.0
H2733 H 0.77303 0.02544 0.3056 0.0
H2734 H 0.76185 0.03496 0.29302 0.0
H2735 H 0.77096 0.05274 0.26713 0.0
H2736 H 0.04522 0.76355 0.34347 0.0
H2737 H 0.0266 0.75235 0.32209 0.0
H2738 H 0.03344 0.72656 0.30818 0.0
H2739 H 0.05216 0.73775 0.32981 0.0
H2740 H 0.02067 0.7409 0.25294 0.0
H2741 H 1.00419 0.71459 0.36896 0.0
H2742 H 0.01595 0.72763 0.37204 0.0
H2743 H 0.0172 0.71716 0.35134 0.0
C2744 C 0.04277 0.75548 0.33616 0.0
C2745 C 0.05022 0.75156 0.33857 0.0
C2746 C 0.03212 0.74909 0.32377 0.0
C2747 C 0.02857 0.73858 0.31385 0.0
C2748 C 0.03596 0.73461 0.31601 0.0
H2749 H 0.96045 0.69359 0.24702 0.0
H2750 H 0.97971 0.70045 0.26468 0.0
C2751 C 0.04669 0.74105 0.32811 0.0
C2752 C 0.0172 0.73196 0.30054 0.0
H2753 H 0.99178 0.71228 0.32382 0.0
C2754 C 0.01438 0.73457 0.26828 0.0
C2755 C 0.00901 0.72361 0.32033 0.0
C2756 C 0.01164 0.72054 0.3552 0.0
C2757 C 1.00357 0.72927 0.25572 0.0
C2758 C 0.99522 0.72132 0.2764 0.0
C2759 C 0.99813 0.71838 0.308 0.0
C2760 C 0.9834 0.71682 0.26709 0.0
C2761 C 1.00117 0.73233 0.22044 0.0
C2762 C 0.97897 0.72364 0.2636 0.0
C2763 C 0.96809 0.71978 0.25354 0.0
C2764 C 0.96122 0.70893 0.24697 0.0
C2765 C 0.96551 0.70198 0.25172 0.0
C2766 C 0.97652 0.7059 0.26177 0.0
H2767 H 1.00853 0.73567 0.20344 0.0
H2768 H 0.99444 0.72545 0.20699 0.0
H2769 H 0.99871 0.73851 0.22384 0.0
H2770 H 0.98397 0.73203 0.26848 0.0
H2771 H 0.9651 0.72539 0.25072 0.0
H2772 H 0.35766 0.08976 0.08626 0.0
H2773 H 0.3557 0.08595 0.02335 0.0
H2774 H 0.34099 0.10592 1.01012 0.0
H2775 H 0.34288 0.10975 0.0725 0.0
H2776 H 0.33666 0.07757 0.977 0.0
H2777 H 0.36753 0.11865 0.94278 0.0
H2778 H 0.36619 0.11337 0.98633 0.0
H2779 H 0.35683 0.11767 0.97099 0.0
C2780 C 0.35387 0.09323 0.07006 0.0
C2781 C 0.35049 0.10012 0.08463 0.0
C2782 C 0.35279 0.09107 0.03403 0.0
C2783 C 0.34839 0.09581 1.0118 0.0
C2784 C 0.3446 0.10232 0.02653 0.0
H2785 H 0.33621 0.09958 0.79254 0.0
H2786 H 0.33913 0.10168 0.85552 0.0
C2787 C 0.34564 0.10445 0.06239 0.0
C2788 C 0.34795 0.09422 0.97315 0.0
H2789 H 0.35701 0.10762 0.89604 0.0
C2790 C 0.34119 0.08411 0.95927 0.0
C2791 C 0.35385 0.10275 0.94993 0.0
C2792 C 0.36159 0.11371 0.96316 0.0
C2793 C 0.33985 0.08239 0.92291 0.0
C2794 C 0.34562 0.09097 0.89964 0.0
C2795 C 0.35256 0.10103 0.91365 0.0
C2796 C 0.34426 0.08982 0.86081 0.0
C2797 C 0.3319 0.07147 0.90984 0.0
C2798 C 0.34642 0.08264 0.84226 0.0
C2799 C 0.34473 0.0814 0.806 0.0
C2800 C 0.34092 0.08738 0.78734 0.0
C2801 C 0.33913 0.09482 0.80586 0.0
C2802 C 0.34079 0.09602 0.84203 0.0
H2803 H 0.32611 0.06655 0.93055 0.0
H2804 H 0.32712 0.07188 0.88729 0.0
H2805 H 0.33652 0.06744 0.90119 0.0
H2806 H 0.34938 0.07795 0.85581 0.0
H2807 H 0.34624 0.07563 0.79273 0.0
H2808 H 0.94949 0.2631 0.07702 0.0
H2809 H 0.94974 0.25842 1.01577 0.0
H2810 H 0.92021 0.22887 0.03163 0.0
H2811 H 0.9199 0.23345 0.09298 0.0
H2812 H 0.93674 0.22752 0.98785 0.0
H2813 H 0.9272 0.25901 0.94597 0.0
H2814 H 0.93892 0.26322 0.97394 0.0
H2815 H 0.92552 0.25438 0.99046 0.0
C2816 C 0.94311 0.25554 0.06769 0.0
C2817 C 0.93462 0.2487 0.09006 0.0
C2818 C 0.94325 0.25289 0.03255 0.0
C2819 C 0.93493 0.24334 1.0189 0.0
C2820 C 0.92672 0.23629 0.04149 0.0
H2821 H 0.91117 0.22876 0.80931 0.0
H2822 H 0.91362 0.22962 0.87251 0.0
C2823 C 0.92655 0.23894 0.07661 0.0
C2824 C 0.93434 0.24103 0.98073 0.0
H2825 H 0.92989 0.24927 0.90166 0.0
C2826 C 0.9353 0.2323 0.96894 0.0
C2827 C 0.93236 0.24721 0.95604 0.0
C2828 C 0.93084 0.25643 0.96708 0.0
C2829 C 0.93435 0.22962 0.93319 0.0
C2830 C 0.93237 0.23581 0.90861 0.0
C2831 C 0.93147 0.24455 0.92045 0.0
C2832 C 0.9305 0.23311 0.87071 0.0
C2833 C 0.93517 0.22005 0.92192 0.0
C2834 C 0.93903 0.2343 0.84844 0.0
C2835 C 0.93758 0.23367 0.81194 0.0
C2836 C 0.9276 0.2319 0.79733 0.0
C2837 C 0.9189 0.23 0.81982 0.0
C2838 C 0.92032 0.23058 0.856 0.0
H2839 H 0.93524 0.21525 0.94451 0.0
H2840 H 0.92821 0.21498 0.90455 0.0
H2841 H 0.94282 0.22263 0.90687 0.0
H2842 H 0.94701 0.2364 0.85912 0.0
H2843 H 0.94451 0.23545 0.79525 0.0
H2844 H 0.7834 0.65031 0.06595 0.0
H2845 H 0.78415 0.65589 1.00557 0.0
H2846 H 0.76268 0.66855 0.03056 0.0
H2847 H 0.76228 0.66329 0.09188 0.0
H2848 H 0.76894 0.64933 0.95924 0.0
H2849 H 0.78426 0.69239 0.97305 0.0
H2850 H 0.78431 0.68433 1.00893 0.0
H2851 H 0.77195 0.68457 0.99723 0.0
C2852 C 0.77897 0.65445 0.05884 0.0
C2853 C 0.77282 0.65639 0.08399 0.0
C2854 C 0.77938 0.65762 0.02406 0.0
C2855 C 0.77355 0.66275 1.01298 0.0
C2856 C 0.7675 0.66486 0.0382 0.0
H2857 H 0.76045 0.67766 0.80168 0.0
H2858 H 0.75985 0.67362 0.86398 0.0
C2859 C 0.76724 0.66182 0.07338 0.0
C2860 C 0.77345 0.66526 0.97479 0.0
H2861 H 0.77808 0.68506 0.9166 0.0
C2862 C 0.77101 0.65719 0.95011 0.0
C2863 C 0.77611 0.67548 0.9623 0.0
C2864 C 0.77941 0.68471 0.98671 0.0
C2865 C 0.77114 0.65901 0.91389 0.0
C2866 C 0.77377 0.66919 0.90152 0.0
C2867 C 0.77606 0.67725 0.92599 0.0
C2868 C 0.77417 0.67158 0.86327 0.0
C2869 C 0.76834 0.64999 0.88896 0.0
C2870 C 0.78243 0.67179 0.8418 0.0
C2871 C 0.78286 0.67417 0.80601 0.0
C2872 C 0.77496 0.67631 0.79068 0.0
C2873 C 0.76664 0.67598 0.81229 0.0
C2874 C 0.7663 0.67373 0.8481 0.0
H2875 H 0.76468 0.64222 0.90254 0.0
H2876 H 0.76254 0.64974 0.86868 0.0
H2877 H 0.77589 0.6512 0.87556 0.0
H2878 H 0.78865 0.67024 0.85284 0.0
H2879 H 0.78942 0.6744 0.79039 0.0
H2880 H 0.11624 0.33094 0.74179 0.0
H2881 H 0.11918 0.33398 0.67893 0.0
H2882 H 0.09606 0.34564 0.67602 0.0
H2883 H 0.09319 0.34277 0.73894 0.0
H2884 H 0.10435 0.32501 0.6258 0.0
H2885 H 0.12131 0.36852 0.62189 0.0
H2886 H 0.12013 0.36146 0.66193 0.0
H2887 H 0.10835 0.36159 0.64358 0.0
C2888 C 0.11189 0.3343 0.72796 0.0
C2889 C 0.10452 0.33666 0.74576 0.0
C2890 C 0.11355 0.336 0.69184 0.0
C2891 C 0.10795 0.34017 0.67248 0.0
C2892 C 0.10068 0.34263 0.69024 0.0
H2893 H 0.10821 0.35404 0.4478 0.0
H2894 H 0.10351 0.35083 0.51004 0.0
C2895 C 0.09901 0.34094 0.72637 0.0
C2896 C 0.1094 0.34148 0.63364 0.0
H2897 H 0.11712 0.35965 0.56742 0.0
C2898 C 0.10717 0.3326 0.61312 0.0
C2899 C 0.113 0.35136 0.61675 0.0
C2900 C 0.11594 0.3613 0.63713 0.0
C2901 C 0.10839 0.33329 0.57653 0.0
C2902 C 0.11214 0.34319 0.55968 0.0
C2903 C 0.11422 0.35205 0.58011 0.0
C2904 C 0.11449 0.34461 0.52125 0.0
C2905 C 0.10546 0.32333 0.55619 0.0
C2906 C 0.12221 0.34219 0.50651 0.0
C2907 C 0.12488 0.34398 0.471 0.0
C2908 C 0.11995 0.34831 0.44906 0.0
C2909 C 0.11209 0.3506 0.46369 0.0
C2910 C 0.10944 0.34883 0.4994 0.0
H2911 H 0.09963 0.31616 0.57081 0.0
H2912 H 0.10178 0.32339 0.53055 0.0
H2913 H 0.11298 0.32275 0.55149 0.0
H2914 H 0.12641 0.33915 0.52271 0.0
H2915 H 0.13102 0.34218 0.46093 0.0
H2916 H 0.70011 0.78648 0.73069 0.0
H2917 H 0.69506 0.78149 0.67004 0.0
H2918 H 0.68129 0.74857 0.69798 0.0
H2919 H 0.68601 0.7536 0.75953 0.0
H2920 H 0.70246 0.77247 0.62753 0.0
H2921 H 0.65751 0.7467 0.63563 0.0
H2922 H 0.66547 0.75474 0.67178 0.0
H2923 H 0.66509 0.74236 0.66255 0.0
C2924 C 0.69583 0.77815 0.72411 0.0
C2925 C 0.69343 0.77044 0.75006 0.0
C2926 C 0.69297 0.77529 0.68925 0.0
C2927 C 0.68771 0.76463 0.67901 0.0
C2928 C 0.6851 0.75685 0.70501 0.0
H2929 H 0.67561 0.73899 0.46483 0.0
H2930 H 0.67934 0.74156 0.52771 0.0
C2931 C 0.68783 0.75972 0.74027 0.0
C2932 C 0.68563 0.76193 0.64093 0.0
H2933 H 0.66572 0.7478 0.58052 0.0
C2934 C 0.6944 0.76707 0.61742 0.0
C2935 C 0.67514 0.75486 0.62731 0.0
C2936 C 0.66524 0.74942 0.65055 0.0
C2937 C 0.69296 0.76547 0.58113 0.0
C2938 C 0.68249 0.75849 0.56763 0.0
C2939 C 0.67375 0.75313 0.59093 0.0
C2940 C 0.68044 0.75699 0.52927 0.0
C2941 C 0.70263 0.77129 0.55726 0.0
C2942 C 0.67989 0.76484 0.50912 0.0
C2943 C 0.67771 0.76339 0.47319 0.0
C2944 C 0.67612 0.75407 0.45644 0.0
C2945 C 0.67688 0.7463 0.47666 0.0
C2946 C 0.67894 0.74772 0.51271 0.0
H2947 H 0.71048 0.77527 0.57185 0.0
H2948 H 0.70304 0.76574 0.53805 0.0
H2949 H 0.70165 0.77738 0.54244 0.0
H2950 H 0.681 0.77205 0.52132 0.0
H2951 H 0.67715 0.76953 0.4586 0.0
H2952 H 0.24254 0.90625 0.74891 0.0
H2953 H 0.24416 0.90395 0.68639 0.0
H2954 H 0.27609 0.93155 0.6859 0.0
H2955 H 0.27463 0.93378 0.74862 0.0
H2956 H 0.24639 0.91691 0.63166 0.0
H2957 H 0.28232 0.91034 0.63684 0.0
H2958 H 0.27481 0.91009 0.67537 0.0
H2959 H 0.28463 0.9225 0.6566 0.0
C2960 C 0.24998 0.91177 0.73568 0.0
C2961 C 0.2585 0.92016 0.7541 0.0
C2962 C 0.25087 0.91047 0.69976 0.0
C2963 C 0.26029 0.9175 0.68122 0.0
C2964 C 0.26882 0.92587 0.69954 0.0
H2965 H 0.26224 0.91832 0.4485 0.0
H2966 H 0.26186 0.92356 0.50948 0.0
C2967 C 0.26796 0.92715 0.73553 0.0
C2968 C 0.26107 0.91609 0.64277 0.0
H2969 H 0.2761 0.91183 0.58085 0.0
C2970 C 0.25291 0.91583 0.62054 0.0
C2971 C 0.26953 0.91462 0.62809 0.0
C2972 C 0.27827 0.9143 0.65043 0.0
C2973 C 0.25291 0.91401 0.58435 0.0
C2974 C 0.2614 0.91259 0.56968 0.0
C2975 C 0.26964 0.91301 0.59187 0.0
C2976 C 0.2614 0.90962 0.53222 0.0
C2977 C 0.24359 0.91324 0.56237 0.0
C2978 C 0.26139 0.90014 0.52444 0.0
C2979 C 0.26169 0.8972 0.48993 0.0
C2980 C 0.26202 0.90365 0.46183 0.0
C2981 C 0.26192 0.91313 0.46941 0.0
C2982 C 0.26166 0.91611 0.50431 0.0
H2983 H 0.23658 0.91227 0.5786 0.0
H2984 H 0.24647 0.9206 0.54685 0.0
H2985 H 0.24068 0.90649 0.54395 0.0
H2986 H 0.26115 0.89495 0.54525 0.0
H2987 H 0.2617 0.88981 0.48538 0.0
H2988 H 0.68701 0.93938 0.24886 0.0
H2989 H 0.68357 0.93721 0.1858 0.0
H2990 H 0.68067 0.90619 0.19106 0.0
H2991 H 0.68423 0.90831 0.25398 0.0
H2992 H 0.69675 0.93108 0.13313 0.0
H2993 H 0.65195 0.90367 0.1398 0.0
H2994 H 0.65938 0.91277 0.17465 0.0
H2995 H 0.66057 0.90107 0.1686 0.0
C2996 C 0.68554 0.93205 0.23673 0.0
C2997 C 0.68586 0.924 0.25669 0.0
C2998 C 0.68364 0.93085 0.20059 0.0
C2999 C 0.68186 0.92154 0.18368 0.0
C3000 C 0.68199 0.91343 0.20355 0.0
H3001 H 0.6628 0.8931 0.98094 0.0
H3002 H 0.66793 0.89784 0.04171 0.0
C3003 C 0.68401 0.91466 0.23958 0.0
C3004 C 0.67994 0.92026 0.14525 0.0
H3005 H 0.6602 0.90658 0.08442 0.0
C3006 C 0.68876 0.92578 0.12235 0.0
C3007 C 0.66952 0.91335 0.13128 0.0
C3008 C 0.65975 0.90739 0.15468 0.0
C3009 C 0.6875 0.92426 0.08588 0.0
C3010 C 0.67707 0.91723 0.07181 0.0
C3011 C 0.66822 0.91194 0.09491 0.0
C3012 C 0.67512 0.91472 0.03362 0.0
C3013 C 0.69747 0.92987 0.063 0.0
C3014 C 0.67768 0.92262 1.00809 0.0
C3015 C 0.67492 0.9199 0.97276 0.0
C3016 C 0.66935 0.90922 0.96252 0.0
C3017 C 0.66707 0.9014 0.98795 0.0
C3018 C 0.66996 0.90411 0.02285 0.0
H3019 H 0.70516 0.93257 0.07812 0.0
H3020 H 0.69734 0.92466 0.04153 0.0
H3021 H 0.69759 0.93695 0.05129 0.0
H3022 H 0.68143 0.93086 1.01558 0.0
H3023 H 0.67662 0.92609 0.95389 0.0
H3024 H 0.09611 0.74936 0.26346 0.0
H3025 H 0.09687 0.74489 0.20182 0.0
H3026 H 0.0951 0.77262 0.16974 0.0
H3027 H 0.09416 0.77697 0.23029 0.0
H3028 H 0.08105 0.75564 0.13284 0.0
H3029 H 0.12204 0.75828 0.13266 0.0
H3030 H 0.11254 0.74923 0.16392 0.0
H3031 H 0.11733 0.76317 0.16831 0.0
C3032 C 0.09596 0.75452 0.24322 0.0
C3033 C 0.09505 0.76352 0.25205 0.0
C3034 C 0.09644 0.75199 0.20794 0.0
C3035 C 0.09613 0.75846 0.18088 0.0
C3036 C 0.09533 0.76746 0.18988 0.0
H3037 H 0.11499 0.76441 0.96308 0.0
H3038 H 0.11333 0.76621 0.02594 0.0
C3039 C 0.0948 0.76995 0.22478 0.0
C3040 C 0.09635 0.75594 0.14305 0.0
H3041 H 0.11216 0.75337 0.07973 0.0
C3042 C 0.08783 0.75508 0.1213 0.0
C3043 C 0.10524 0.75533 0.12771 0.0
C3044 C 0.11487 0.75664 0.1492 0.0
C3045 C 0.08802 0.75379 0.08492 0.0
C3046 C 0.09687 0.75311 0.06958 0.0
C3047 C 0.10534 0.75384 0.09134 0.0
C3048 C 0.09769 0.752 0.03096 0.0
C3049 C 0.07892 0.75361 0.06314 0.0
C3050 C 0.08946 0.74343 1.01247 0.0
C3051 C 0.09034 0.74243 0.97632 0.0
C3052 C 0.09953 0.74993 0.95774 0.0
C3053 C 0.10776 0.75851 0.97633 0.0
C3054 C 0.10685 0.75952 1.01243 0.0
H3055 H 0.07448 0.75707 0.07735 0.0
H3056 H 0.08212 0.75803 0.03837 0.0
H3057 H 0.07295 0.74529 0.05666 0.0
H3058 H 0.08242 0.73738 0.02608 0.0
H3059 H 0.08391 0.73564 0.96309 0.0
H3060 H 0.23032 0.31058 0.19445 0.0
H3061 H 0.23352 0.32232 0.14455 0.0
H3062 H 0.21343 0.33386 0.19231 0.0
H3063 H 0.2103 0.3222 0.24245 0.0
H3064 H 0.21948 0.32545 0.097 0.0
H3065 H 0.24393 0.36046 0.18153 0.0
H3066 H 0.24011 0.34717 0.19518 0.0
H3067 H 0.23014 0.35161 0.19516 0.0
C3068 C 0.22641 0.31546 0.19391 0.0
C3069 C 0.22011 0.31548 0.22239 0.0
C3070 C 0.22824 0.32216 0.16546 0.0
C3071 C 0.22387 0.32909 0.16502 0.0
C3072 C 0.217 0.32867 0.19236 0.0
H3073 H 0.23578 0.36944 0.97945 0.0
H3074 H 0.22662 0.35908 0.03167 0.0
C3075 C 0.2151 0.3219 0.22079 0.0
C3076 C 0.2272 0.33719 0.13706 0.0
H3077 H 0.24335 0.36363 0.12159 0.0
C3078 C 0.22455 0.33382 0.10235 0.0
C3079 C 0.23392 0.34809 0.14419 0.0
C3080 C 0.23729 0.35211 0.18096 0.0
C3081 C 0.22865 0.34103 0.07449 0.0
C3082 C 0.23554 0.3519 0.08158 0.0
C3083 C 0.23798 0.35531 0.11632 0.0
C3084 C 0.2412 0.3596 0.0531 0.0
C3085 C 0.22603 0.33691 0.03759 0.0
C3086 C 0.25251 0.36375 0.04877 0.0
C3087 C 0.25774 0.36969 1.01915 0.0
C3088 C 0.25179 0.37168 0.99345 0.0
C3089 C 0.2406 0.36816 0.99904 0.0
C3090 C 0.23534 0.36214 0.02864 0.0
H3091 H 0.2219 0.32813 0.03652 0.0
H3092 H 0.22054 0.33954 0.02546 0.0
H3093 H 0.23361 0.34013 1.02172 0.0
H3094 H 0.25719 0.36191 0.06738 0.0
H3095 H 0.26635 0.37229 1.01536 0.0
H3096 H 0.89599 0.63884 0.53238 0.0
H3097 H 0.89765 0.64947 0.48065 0.0
H3098 H 0.87488 0.6582 0.52551 0.0
H3099 H 0.87339 0.64774 0.57767 0.0
H3100 H 0.88296 0.64998 0.43175 0.0
H3101 H 0.90276 0.6867 0.51165 0.0
H3102 H 0.90051 0.6741 0.52801 0.0
H3103 H 0.88933 0.67688 0.52523 0.0
C3104 C 0.89118 0.64286 0.53085 0.0
C3105 C 0.8846 0.64247 0.55907 0.0
C3106 C 0.89213 0.64893 0.50134 0.0
C3107 C 0.88655 0.65478 0.4995 0.0
C3108 C 0.8794 0.65388 0.52663 0.0
H3109 H 0.89385 0.69065 0.30547 0.0
H3110 H 0.88526 0.67998 0.35758 0.0
C3111 C 0.87843 0.64777 0.55621 0.0
C3112 C 0.8889 0.66235 0.47026 0.0
H3113 H 0.90162 0.68876 0.45123 0.0
C3114 C 0.88689 0.65846 0.43596 0.0
C3115 C 0.89416 0.67342 0.47588 0.0
C3116 C 0.89692 0.67808 0.51211 0.0
C3117 C 0.89025 0.66533 0.40711 0.0
C3118 C 0.89564 0.6764 0.41273 0.0
C3119 C 0.89739 0.68028 0.44702 0.0
C3120 C 0.90056 0.68402 0.38348 0.0
C3121 C 0.88851 0.66069 0.37088 0.0
C3122 C 0.91197 0.69027 0.38158 0.0
C3123 C 0.91687 0.69645 0.35209 0.0
C3124 C 0.91047 0.69656 0.32396 0.0
C3125 C 0.899 0.69083 0.32686 0.0
C3126 C 0.89409 0.68462 0.35642 0.0
H3127 H 0.88608 0.65215 0.37134 0.0
H3128 H 0.88192 0.66156 0.3577 0.0
H3129 H 0.89606 0.66493 0.35503 0.0
H3130 H 0.91713 0.68998 0.40221 0.0
H3131 H 0.92571 0.7008 0.35053 0.0
H3132 H 0.34305 0.23128 0.57133 0.0
H3133 H 0.34135 0.23372 0.50913 0.0
H3134 H 0.35508 0.2673 0.52504 0.0
H3135 H 0.35706 0.26494 0.5876 0.0
H3136 H 0.33031 0.24137 0.4721 0.0
H3137 H 0.37481 0.26675 0.44901 0.0
H3138 H 0.36948 0.2597 0.48939 0.0
H3139 H 0.36915 0.27179 0.481 0.0
C3140 C 0.34566 0.2392 0.5618 0.0
C3141 C 0.35025 0.24791 0.5847 0.0
C3142 C 0.34468 0.24059 0.52604 0.0
C3143 C 0.34829 0.25072 0.51199 0.0
C3144 C 0.35248 0.25942 0.53493 0.0
H3145 H 0.3485 0.26958 0.29282 0.0
H3146 H 0.35046 0.26966 0.3565 0.0
C3147 C 0.35349 0.25804 0.57086 0.0
C3148 C 0.34765 0.25203 0.47338 0.0
H3149 H 0.36312 0.26358 0.4006 0.0
C3150 C 0.3375 0.24625 0.45656 0.0
C3151 C 0.35701 0.25839 0.45282 0.0
C3152 C 0.36825 0.26445 0.46883 0.0
C3153 C 0.33644 0.24663 0.42009 0.0
C3154 C 0.34582 0.25284 0.39951 0.0
C3155 C 0.35594 0.2588 0.4163 0.0
C3156 C 0.34527 0.25296 0.36053 0.0
C3157 C 0.32525 0.24041 0.40389 0.0
C3158 C 0.34203 0.24364 0.34131 0.0
C3159 C 0.34096 0.24357 0.30492 0.0
C3160 C 0.34312 0.25286 0.28666 0.0
C3161 C 0.34675 0.26228 0.30586 0.0
C3162 C 0.34786 0.26234 0.34235 0.0
H3163 H 0.31865 0.23839 0.42336 0.0
H3164 H 0.32412 0.24489 0.3822 0.0
H3165 H 0.32435 0.2329 0.39314 0.0
H3166 H 0.34019 0.23634 0.35456 0.0
H3167 H 0.33819 0.23616 0.29119 0.0
H3168 H 0.76248 0.11779 0.55496 0.0
H3169 H 0.76332 0.1127 0.49519 0.0
H3170 H 0.76617 0.08594 0.53179 0.0
H3171 H 0.76548 0.09113 0.59269 0.0
H3172 H 0.78023 0.09635 0.476 0.0
H3173 H 0.7385 0.08866 0.4432 0.0
H3174 H 0.74668 0.10165 0.46095 0.0
H3175 H 0.74336 0.09022 0.4876 0.0
C3176 C 0.76327 0.11078 0.55062 0.0
C3177 C 0.76379 0.10481 0.57894 0.0
C3178 C 0.76369 0.10785 0.51616 0.0
C3179 C 0.76453 0.09878 0.50868 0.0
C3180 C 0.7654 0.09292 0.53679 0.0
H3181 H 0.75217 0.07366 0.29453 0.0
H3182 H 0.7512 0.0761 0.35734 0.0
C3183 C 0.76502 0.0959 0.57162 0.0
C3184 C 0.76453 0.09562 0.47143 0.0
H3185 H 0.75028 0.09097 0.39482 0.0
C3186 C 0.77362 0.09506 0.45834 0.0
C3187 C 0.75586 0.09375 0.44823 0.0
C3188 C 0.7455 0.09349 0.46077 0.0
C3189 C 0.77447 0.09313 0.42266 0.0
C3190 C 0.76609 0.09192 0.39907 0.0
C3191 C 0.75681 0.09206 0.4125 0.0
C3192 C 0.76675 0.0905 0.36049 0.0
C3193 C 0.78429 0.09228 0.41074 0.0
C3194 C 0.77568 0.09788 0.34074 0.0
C3195 C 0.77627 0.09648 0.30468 0.0
C3196 C 0.76787 0.08773 0.28724 0.0
C3197 C 0.75879 0.08051 0.30689 0.0
C3198 C 0.75824 0.08188 0.34297 0.0
H3199 H 0.78799 0.09003 0.4326 0.0
H3200 H 0.7821 0.08636 0.38954 0.0
H3201 H 0.79059 0.10008 0.40076 0.0
H3202 H 0.78221 0.10477 0.35317 0.0
H3203 H 0.78337 0.10225 0.29052 0.0
H3204 H 1.00733 0.43146 0.1288 0.0
H3205 H 0.01011 0.43328 0.19202 0.0
H3206 H 0.01396 0.40544 0.19395 0.0
H3207 H 0.01147 0.40374 0.13068 0.0
H3208 H 0.99815 0.42037 0.24327 0.0
H3209 H 0.03972 0.42487 0.2521 0.0
H3210 H 0.03381 0.42575 0.21118 0.0
H3211 H 0.03034 0.41304 0.22959 0.0
C3212 C 0.00895 0.42581 0.14254 0.0
C3213 C 0.00926 0.41749 0.12434 0.0
C3214 C 0.0105 0.42684 0.17885 0.0
C3215 C 0.01241 0.4196 0.19807 0.0
C3216 C 0.01279 0.41132 0.17992 0.0
H3217 H 0.01811 0.40891 0.4201 0.0
H3218 H 0.0156 0.40744 0.3567 0.0
C3219 C 0.01132 0.41033 0.14356 0.0
C3220 C 0.01349 0.42043 0.23711 0.0
H3221 H 0.02988 0.42161 0.30549 0.0
C3222 C 1.00514 0.42071 0.25677 0.0
C3223 C 0.02259 0.42087 0.2551 0.0
C3224 C 0.03217 0.42123 0.23591 0.0
C3225 C 1.00553 0.42123 0.29355 0.0
C3226 C 0.01456 0.42157 0.31148 0.0
C3227 C 0.02292 0.42129 0.2919 0.0
C3228 C 0.01556 0.42229 0.35045 0.0
C3229 C 0.99613 0.42116 0.313 0.0
C3230 C 0.01635 0.43112 0.36839 0.0
C3231 C 0.01781 0.432 0.40476 0.0
C3232 C 0.01851 0.42407 0.42421 0.0
C3233 C 0.01753 0.41515 0.40621 0.0
C3234 C 0.01614 0.41431 0.36981 0.0
H3235 H 0.9887 0.41828 0.29639 0.0
H3236 H 0.99406 0.41611 0.33664 0.0
H3237 H 0.9985 0.42934 0.32145 0.0
H3238 H 0.01611 0.43748 0.35414 0.0
H3239 H 0.01861 0.43902 0.41754 0.0
H3240 H 0.6124 0.59575 0.12659 0.0
H3241 H 0.61013 0.59629 0.18971 0.0
H3242 H 0.57752 0.56986 0.18175 0.0
H3243 H 0.57987 0.56906 0.11878 0.0
H3244 H 0.59678 0.59951 0.23057 0.0
H3245 H 0.58955 0.55897 0.25593 0.0
H3246 H 0.59412 0.56532 0.21411 0.0
H3247 H 0.57984 0.55904 0.22549 0.0
C3248 C 0.60471 0.59007 0.13818 0.0
C3249 C 0.59635 0.58231 0.11741 0.0
C3250 C 0.60343 0.59038 0.17443 0.0
C3251 C 0.59375 0.58295 0.19096 0.0
C3252 C 0.58521 0.57548 0.17005 0.0
H3253 H 0.56386 0.57462 0.39132 0.0
H3254 H 0.56922 0.57441 0.33092 0.0
C3255 C 0.58653 0.5751 0.13385 0.0
C3256 C 0.59256 0.58307 0.22988 0.0
H3257 H 0.58528 0.56734 0.30271 0.0
C3258 C 0.59441 0.5925 0.24633 0.0
C3259 C 0.58957 0.57397 0.25086 0.0
C3260 C 0.58827 0.56379 0.23575 0.0
C3261 C 0.59292 0.59295 0.28257 0.0
C3262 C 0.5895 0.58375 0.30314 0.0
C3263 C 0.5879 0.57439 0.28696 0.0
C3264 C 0.58658 0.58345 0.34077 0.0
C3265 C 0.5946 0.60315 0.2986 0.0
C3266 C 0.59459 0.58841 0.36686 0.0
C3267 C 0.59153 0.58843 0.4019 0.0
C3268 C 0.58041 0.58361 0.41127 0.0
C3269 C 0.5725 0.57845 0.3851 0.0
C3270 C 0.57554 0.57831 0.35044 0.0
H3271 H 0.59647 0.6094 0.27873 0.0
H3272 H 0.58717 0.60178 0.31322 0.0
H3273 H 0.60148 0.60606 0.31749 0.0
H3274 H 0.60318 0.59238 0.36002 0.0
H3275 H 0.59782 0.59253 0.42133 0.0
H3276 H 0.42478 1.00272 0.41795 0.0
H3277 H 0.42702 1.00572 0.35481 0.0
H3278 H 0.45147 0.99572 0.35425 0.0
H3279 H 0.44923 0.9926 0.4172 0.0
H3280 H 0.44502 0.01865 0.31323 0.0
H3281 H 0.43003 0.97654 0.28032 0.0
H3282 H 0.4283 0.98074 0.32306 0.0
H3283 H 0.44119 0.98176 0.31079 0.0
C3284 C 0.43069 1.00121 0.40451 0.0
C3285 C 0.43678 0.99735 0.42293 0.0
C3286 C 0.43195 1.00292 0.36826 0.0
C3287 C 0.43926 1.00075 0.34938 0.0
C3288 C 0.44559 0.99723 0.36788 0.0
H3289 H 0.46095 1.00413 0.13618 0.0
H3290 H 0.45677 1.00115 0.19825 0.0
C3291 C 0.44435 0.99553 0.40409 0.0
C3292 C 0.44024 1.00211 0.31047 0.0
H3293 H 0.43822 0.98893 0.23423 0.0
C3294 C 0.44345 0.01213 0.29594 0.0
C3295 C 0.43815 0.99362 0.28766 0.0
C3296 C 0.43413 0.98253 0.30114 0.0
C3297 C 0.44502 0.01397 0.25965 0.0
C3298 C 0.44311 1.0055 0.23688 0.0
C3299 C 0.43971 0.99545 0.25142 0.0
C3300 C 0.44516 0.00699 0.19826 0.0
C3301 C 0.44912 0.02507 0.2462 0.0
C3302 C 0.43983 0.01103 0.17683 0.0
C3303 C 0.44222 0.01276 0.14094 0.0
C3304 C 0.44996 0.01044 0.12554 0.0
C3305 C 0.45497 0.00605 0.14689 0.0
C3306 C 0.45258 1.00434 0.1826 0.0
H3307 H 0.45275 0.03103 0.26735 0.0
H3308 H 0.45536 0.02699 0.22552 0.0
H3309 H 0.44218 0.02574 0.23482 0.0
H3310 H 0.43386 0.01292 0.18788 0.0
H3311 H 0.43819 0.01614 0.12546 0.0
H3312 H 0.56644 0.99347 0.91803 0.0
H3313 H 0.56889 1.0047 0.86767 0.0
H3314 H 0.5447 0.97764 0.81093 0.0
H3315 H 0.54185 0.96642 0.8627 0.0
H3316 H 0.57685 1.00259 0.80839 0.0
H3317 H 0.53654 0.99998 0.783 0.0
H3318 H 0.53973 0.99568 0.82353 0.0
H3319 H 0.53603 0.98735 0.78556 0.0
C3320 C 0.56146 0.98998 0.89507 0.0
C3321 C 0.55397 0.97911 0.89406 0.0
C3322 C 0.56287 0.99639 0.86628 0.0
C3323 C 0.55695 0.99206 0.83547 0.0
C3324 C 0.5492 0.98122 0.83462 0.0
H3325 H 0.58183 0.01677 0.63326 0.0
H3326 H 0.57427 0.00639 0.68603 0.0
C3327 C 0.54763 0.9748 0.86396 0.0
C3328 C 0.55995 0.99874 0.80357 0.0
H3329 H 0.55006 0.00792 0.73821 0.0
C3330 C 0.57097 1.00381 0.79331 0.0
C3331 C 0.55234 1.00044 0.78399 0.0
C3332 C 0.54052 0.99566 0.79471 0.0
C3333 C 0.57457 0.01036 0.76391 0.0
C3334 C 0.5669 0.01169 0.74343 0.0
C3335 C 0.5559 0.00683 0.7539 0.0
C3336 C 0.57021 0.01757 0.71 0.0
C3337 C 0.5866 0.01583 0.75505 0.0
C3338 C 0.57001 0.02713 0.7053 0.0
C3339 C 0.57432 0.03311 0.67477 0.0
C3340 C 0.57895 0.02963 0.64894 0.0
C3341 C 0.57864 0.01982 0.65322 0.0
C3342 C 0.57426 0.01384 0.68327 0.0
H3343 H 0.59169 0.01648 0.77819 0.0
H3344 H 0.58809 0.01116 0.7349 0.0
H3345 H 0.58934 0.02388 0.74452 0.0
H3346 H 0.56685 0.0301 0.72563 0.0
H3347 H 0.57436 0.04058 0.67175 0.0
H3348 H 1.00412 0.56797 0.62419 0.0
H3349 H 1.00672 0.56828 0.68726 0.0
H3350 H 0.01741 0.6017 0.68888 0.0
H3351 H 0.0146 0.60143 0.62566 0.0
H3352 H 0.02444 0.5787 0.72868 0.0
H3353 H 0.99378 0.59117 0.76249 0.0
H3354 H 0.99493 0.58696 0.71914 0.0
H3355 H 1.0044 0.60009 0.73378 0.0
C3356 C 1.00708 0.57543 0.63781 0.0
C3357 C 0.00909 0.58467 0.61961 0.0
C3358 C 1.00855 0.57558 0.67404 0.0
C3359 C 0.01204 0.58496 0.69321 0.0
C3360 C 0.01443 0.59429 0.675 0.0
H3361 H 0.02441 0.59618 0.9195 0.0
H3362 H 0.02279 0.59856 0.85665 0.0
C3363 C 0.01292 0.59414 0.63868 0.0
C3364 C 0.01321 0.58487 0.73209 0.0
H3365 H 1.00396 0.58958 0.80928 0.0
C3366 C 0.01995 0.58109 0.74622 0.0
C3367 C 1.00739 0.588 0.75525 0.0
C3368 C 0.99964 0.5917 0.74201 0.0
C3369 C 0.02102 0.58034 0.78252 0.0
C3370 C 0.01508 0.58331 0.80562 0.0
C3371 C 1.00851 0.5873 0.79163 0.0
C3372 C 0.0153 0.5819 0.84423 0.0
C3373 C 0.02857 0.57642 0.79589 0.0
C3374 C 0.01129 0.57174 0.85844 0.0
C3375 C 0.01213 0.57035 0.89428 0.0
C3376 C 0.017 0.57909 0.91699 0.0
C3377 C 0.0206 0.58926 0.90292 0.0
C3378 C 0.01971 0.59064 0.86693 0.0
H3379 H 0.03458 0.57707 0.77576 0.0
H3380 H 0.03309 0.58091 0.81938 0.0
H3381 H 0.02366 0.56796 0.80326 0.0
H3382 H 1.00766 0.56485 0.84165 0.0
H3383 H 0.00922 0.56239 0.904 0.0
H3384 H 0.4589 0.42207 0.65477 0.0
H3385 H 0.45341 0.42165 0.71505 0.0
H3386 H 0.42301 0.41954 0.68106 0.0
H3387 H 0.42857 0.42008 0.61967 0.0
H3388 H 0.43269 0.43366 0.73707 0.0
H3389 H 0.43112 0.39552 0.76682 0.0
H3390 H 0.44399 0.40491 0.74834 0.0
H3391 H 0.4317 0.40016 0.72273 0.0
C3392 C 0.45101 0.42149 0.6598 0.0
C3393 C 0.44414 0.421 0.63207 0.0
C3394 C 0.44785 0.4212 0.69453 0.0
C3395 C 0.43768 0.4203 0.70284 0.0
C3396 C 0.43087 0.42012 0.67537 0.0
H3397 H 0.41327 0.40516 0.91851 0.0
H3398 H 0.4156 0.40466 0.85535 0.0
C3399 C 0.43405 0.42044 0.64027 0.0
C3400 C 0.43438 0.41966 0.74031 0.0
H3401 H 0.43199 0.40612 0.81603 0.0
C3402 C 0.43241 0.42757 0.75425 0.0
C3403 C 0.43385 0.41164 0.76287 0.0
C3404 C 0.43516 0.40252 0.74938 0.0
C3405 C 0.43038 0.42791 0.79017 0.0
C3406 C 0.43053 0.42025 0.81307 0.0
C3407 C 0.43204 0.4121 0.79882 0.0
C3408 C 0.4292 0.42057 0.85181 0.0
C3409 C 0.42801 0.43644 0.8031 0.0
C3410 C 0.43622 0.42956 0.87137 0.0
C3411 C 0.43489 0.42988 0.90757 0.0
C3412 C 0.42658 0.42115 0.92534 0.0
C3413 C 0.41977 0.41203 0.90587 0.0
C3414 C 0.42107 0.41174 0.86962 0.0
H3415 H 0.42482 0.43944 0.78185 0.0
H3416 H 0.42197 0.43352 0.8247 0.0
H3417 H 0.4357 0.4432 0.81291 0.0
H3418 H 0.44277 0.43637 0.85864 0.0
H3419 H 0.44034 0.43702 0.92159 0.0
loop_
_geom_bond_atom_site_label_1
_geom_bond_atom_site_label_2
_geom_bond_distance
_geom_bond_site_symmetry_2
_ccdc_geom_bond_type
Cu0 N1 1.999 . S
Cu0 O6 1.974 . S
Cu0 N11 1.985 . S
Cu0 O20 1.959 . S
N1 Cu0 1.999 . S
N1 C3 1.263 . S
N1 C5 1.389 . S
N2 C3 1.358 . S
N2 C4 1.400 . S
C3 N1 1.263 . S
C3 N2 1.358 . S
C3 H9 0.930 . S
C4 N2 1.400 . S
C4 C5 1.351 . S
C4 H21 0.930 . S
C5 N1 1.389 . S
C5 C4 1.351 . S
C5 H10 0.930 . S
O6 Cu0 1.974 . S
O6 C16 1.282 . S
C7 O8 1.261 . S
C7 O20 1.251 . S
O8 C7 1.261 . S
H9 C3 0.930 . S
H10 C5 0.930 . S
N11 Cu0 1.985 . S
N11 C13 1.335 . S
N11 C14 1.390 . S
N12 C13 1.345 . S
N12 C15 1.336 . S
C13 N11 1.335 . S
C13 N12 1.345 . S
C13 H18 0.930 . S
C14 N11 1.390 . S
C14 C15 1.346 . S
C14 H19 0.930 . S
C15 N12 1.336 . S
C15 C14 1.346 . S
C15 H22 0.929 . S
C16 O6 1.282 . S
C16 O17 1.216 . S
O17 C16 1.216 . S
H18 C13 0.930 . S
H19 C14 0.930 . S
O20 Cu0 1.959 . S
O20 C7 1.251 . S
H21 C4 0.930 . S
H22 C15 0.929 . S
Cu23 N24 1.999 . S
Cu23 O29 1.974 . S
Cu23 N34 1.985 . S
Cu23 O43 1.959 . S
N24 Cu23 1.999 . S
N24 C26 1.263 . S
N24 C28 1.389 . S
N25 C26 1.358 . S
N25 C27 1.400 . S
C26 N24 1.263 . S
C26 N25 1.358 . S
C26 H32 0.930 . S
C27 N25 1.400 . S
C27 C28 1.351 . S
C27 H44 0.930 . S
C28 N24 1.389 . S
C28 C27 1.351 . S
C28 H33 0.930 . S
O29 Cu23 1.974 . S
O29 C39 1.282 . S
C30 O31 1.261 . S
C30 O43 1.251 . S
O31 C30 1.261 . S
H32 C26 0.930 . S
H33 C28 0.930 . S
N34 Cu23 1.985 . S
N34 C36 1.335 . S
N34 C37 1.390 . S
N35 C36 1.345 . S
N35 C38 1.336 . S
C36 N34 1.335 . S
C36 N35 1.345 . S
C36 H41 0.930 . S
C37 N34 1.390 . S
C37 C38 1.346 . S
C37 H42 0.930 . S
C38 N35 1.336 . S
C38 C37 1.346 . S
C38 H45 0.929 . S
C39 O29 1.282 . S
C39 O40 1.216 . S
O40 C39 1.216 . S
H41 C36 0.930 . S
H42 C37 0.930 . S
O43 Cu23 1.959 . S
O43 C30 1.251 . S
H44 C27 0.930 . S
H45 C38 0.929 . S
Cu46 N47 1.999 . S
Cu46 O52 1.974 . S
Cu46 N57 1.985 . S
Cu46 O66 1.959 . S
N47 Cu46 1.999 . S
N47 C49 1.263 . S
N47 C51 1.389 . S
N48 C49 1.358 . S
N48 C50 1.400 . S
C49 N47 1.263 . S
C49 N48 1.358 . S
C49 H55 0.930 . S
C50 N48 1.400 . S
C50 C51 1.351 . S
C50 H67 0.930 . S
C51 N47 1.389 . S
C51 C50 1.351 . S
C51 H56 0.930 . S
O52 Cu46 1.974 . S
O52 C62 1.282 . S
C53 O54 1.261 . S
C53 O66 1.251 . S
O54 C53 1.261 . S
H55 C49 0.930 . S
H56 C51 0.930 . S
N57 Cu46 1.985 . S
N57 C59 1.335 . S
N57 C60 1.390 . S
N58 C59 1.345 . S
N58 C61 1.336 . S
C59 N57 1.335 . S
C59 N58 1.345 . S
C59 H64 0.930 . S
C60 N57 1.390 . S
C60 C61 1.346 . S
C60 H65 0.930 . S
C61 N58 1.336 . S
C61 C60 1.346 . S
C61 H68 0.929 . S
C62 O52 1.282 . S
C62 O63 1.216 . S
O63 C62 1.216 . S
H64 C59 0.930 . S
H65 C60 0.930 . S
O66 Cu46 1.959 . S
O66 C53 1.251 . S
H67 C50 0.930 . S
H68 C61 0.929 . S
Cu69 N70 1.999 . S
Cu69 O75 1.974 . S
Cu69 N80 1.985 . S
Cu69 O89 1.959 . S
N70 Cu69 1.999 . S
N70 C72 1.263 . S
N70 C74 1.389 . S
N71 C72 1.358 . S
N71 C73 1.400 . S
C72 N70 1.263 . S
C72 N71 1.358 . S
C72 H78 0.930 . S
C73 N71 1.400 . S
C73 C74 1.351 . S
C73 H90 0.930 . S
C74 N70 1.389 . S
C74 C73 1.351 . S
C74 H79 0.930 . S
O75 Cu69 1.974 . S
O75 C85 1.282 . S
C76 O77 1.261 . S
C76 O89 1.251 . S
O77 C76 1.261 . S
H78 C72 0.930 . S
H79 C74 0.930 . S
N80 Cu69 1.985 . S
N80 C82 1.335 . S
N80 C83 1.390 . S
N81 C82 1.345 . S
N81 C84 1.336 . S
C82 N80 1.335 . S
C82 N81 1.345 . S
C82 H87 0.930 . S
C83 N80 1.390 . S
C83 C84 1.346 . S
C83 H88 0.930 . S
C84 N81 1.336 . S
C84 C83 1.346 . S
C84 H91 0.929 . S
C85 O75 1.282 . S
C85 O86 1.216 . S
O86 C85 1.216 . S
H87 C82 0.930 . S
H88 C83 0.930 . S
O89 Cu69 1.959 . S
O89 C76 1.251 . S
H90 C73 0.930 . S
H91 C84 0.929 . S
Cu92 N93 1.999 . S
Cu92 O98 1.974 . S
Cu92 N103 1.985 . S
Cu92 O112 1.959 . S
N93 Cu92 1.999 . S
N93 C95 1.263 . S
N93 C97 1.389 . S
N94 C95 1.358 . S
N94 C96 1.400 . S
C95 N93 1.263 . S
C95 N94 1.358 . S
C95 H101 0.930 . S
C96 N94 1.400 . S
C96 C97 1.351 . S
C96 H113 0.930 . S
C97 N93 1.389 . S
C97 C96 1.351 . S
C97 H102 0.930 . S
O98 Cu92 1.974 . S
O98 C108 1.282 . S
C99 O100 1.261 . S
C99 O112 1.251 . S
O100 C99 1.261 . S
H101 C95 0.930 . S
H102 C97 0.930 . S
N103 Cu92 1.985 . S
N103 C105 1.335 . S
N103 C106 1.390 . S
N104 C105 1.345 . S
N104 C107 1.336 . S
C105 N103 1.335 . S
C105 N104 1.345 . S
C105 H110 0.930 . S
C106 N103 1.390 . S
C106 C107 1.346 . S
C106 H111 0.930 . S
C107 N104 1.336 . S
C107 C106 1.346 . S
C107 H114 0.929 . S
C108 O98 1.282 . S
C108 O109 1.216 . S
O109 C108 1.216 . S
H110 C105 0.930 . S
H111 C106 0.930 . S
O112 Cu92 1.959 . S
O112 C99 1.251 . S
H113 C96 0.930 . S
H114 C107 0.929 . S
Cu115 N116 1.999 . S
Cu115 O121 1.974 . S
Cu115 N126 1.985 . S
Cu115 O135 1.959 . S
N116 Cu115 1.999 . S
N116 C118 1.263 . S
N116 C120 1.389 . S
N117 C118 1.358 . S
N117 C119 1.400 . S
C118 N116 1.263 . S
C118 N117 1.358 . S
C118 H124 0.930 . S
C119 N117 1.400 . S
C119 C120 1.351 . S
C119 H136 0.930 . S
C120 N116 1.389 . S
C120 C119 1.351 . S
C120 H125 0.930 . S
O121 Cu115 1.974 . S
O121 C131 1.282 . S
C122 O123 1.261 . S
C122 O135 1.251 . S
O123 C122 1.261 . S
H124 C118 0.930 . S
H125 C120 0.930 . S
N126 Cu115 1.985 . S
N126 C128 1.335 . S
N126 C129 1.390 . S
N127 C128 1.345 . S
N127 C130 1.336 . S
C128 N126 1.335 . S
C128 N127 1.345 . S
C128 H133 0.930 . S
C129 N126 1.390 . S
C129 C130 1.346 . S
C129 H134 0.930 . S
C130 N127 1.336 . S
C130 C129 1.346 . S
C130 H137 0.929 . S
C131 O121 1.282 . S
C131 O132 1.216 . S
O132 C131 1.216 . S
H133 C128 0.930 . S
H134 C129 0.930 . S
O135 Cu115 1.959 . S
O135 C122 1.251 . S
H136 C119 0.930 . S
H137 C130 0.929 . S
Cu138 N139 1.999 . S
Cu138 O144 1.974 . S
Cu138 N149 1.985 . S
Cu138 O158 1.959 . S
N139 Cu138 1.999 . S
N139 C141 1.263 . S
N139 C143 1.389 . S
N140 C141 1.358 . S
N140 C142 1.400 . S
C141 N139 1.263 . S
C141 N140 1.358 . S
C141 H147 0.930 . S
C142 N140 1.400 . S
C142 C143 1.351 . S
C142 H159 0.930 . S
C143 N139 1.389 . S
C143 C142 1.351 . S
C143 H148 0.930 . S
O144 Cu138 1.974 . S
O144 C154 1.282 . S
C145 O146 1.261 . S
C145 O158 1.251 . S
O146 C145 1.261 . S
H147 C141 0.930 . S
H148 C143 0.930 . S
N149 Cu138 1.985 . S
N149 C151 1.335 . S
N149 C152 1.390 . S
N150 C151 1.345 . S
N150 C153 1.336 . S
C151 N149 1.335 . S
C151 N150 1.345 . S
C151 H156 0.930 . S
C152 N149 1.390 . S
C152 C153 1.346 . S
C152 H157 0.930 . S
C153 N150 1.336 . S
C153 C152 1.346 . S
C153 H160 0.929 . S
C154 O144 1.282 . S
C154 O155 1.216 . S
O155 C154 1.216 . S
H156 C151 0.930 . S
H157 C152 0.930 . S
O158 Cu138 1.959 . S
O158 C145 1.251 . S
H159 C142 0.930 . S
H160 C153 0.929 . S
Cu161 N162 1.999 . S
Cu161 O167 1.974 . S
Cu161 N172 1.985 . S
Cu161 O181 1.959 . S
N162 Cu161 1.999 . S
N162 C164 1.263 . S
N162 C166 1.389 . S
N163 C164 1.358 . S
N163 C165 1.400 . S
C164 N162 1.263 . S
C164 N163 1.358 . S
C164 H170 0.930 . S
C165 N163 1.400 . S
C165 C166 1.351 . S
C165 H182 0.930 . S
C166 N162 1.389 . S
C166 C165 1.351 . S
C166 H171 0.930 . S
O167 Cu161 1.974 . S
O167 C177 1.282 . S
C168 O169 1.261 . S
C168 O181 1.251 . S
O169 C168 1.261 . S
H170 C164 0.930 . S
H171 C166 0.930 . S
N172 Cu161 1.985 . S
N172 C174 1.335 . S
N172 C175 1.390 . S
N173 C174 1.345 . S
N173 C176 1.336 . S
C174 N172 1.335 . S
C174 N173 1.345 . S
C174 H179 0.930 . S
C175 N172 1.390 . S
C175 C176 1.346 . S
C175 H180 0.930 . S
C176 N173 1.336 . S
C176 C175 1.346 . S
C176 H183 0.929 . S
C177 O167 1.282 . S
C177 O178 1.216 . S
O178 C177 1.216 . S
H179 C174 0.930 . S
H180 C175 0.930 . S
O181 Cu161 1.959 . S
O181 C168 1.251 . S
H182 C165 0.930 . S
H183 C176 0.929 . S
Cu184 N185 1.999 . S
Cu184 O190 1.974 . S
Cu184 N195 1.985 . S
Cu184 O204 1.959 . S
N185 Cu184 1.999 . S
N185 C187 1.263 . S
N185 C189 1.389 . S
N186 C187 1.358 . S
N186 C188 1.400 . S
C187 N185 1.263 . S
C187 N186 1.358 . S
C187 H193 0.930 . S
C188 N186 1.400 . S
C188 C189 1.351 . S
C188 H205 0.930 . S
C189 N185 1.389 . S
C189 C188 1.351 . S
C189 H194 0.930 . S
O190 Cu184 1.974 . S
O190 C200 1.282 . S
C191 O192 1.261 . S
C191 O204 1.251 . S
O192 C191 1.261 . S
H193 C187 0.930 . S
H194 C189 0.930 . S
N195 Cu184 1.985 . S
N195 C197 1.335 . S
N195 C198 1.390 . S
N196 C197 1.345 . S
N196 C199 1.336 . S
C197 N195 1.335 . S
C197 N196 1.345 . S
C197 H202 0.930 . S
C198 N195 1.390 . S
C198 C199 1.346 . S
C198 H203 0.930 . S
C199 N196 1.336 . S
C199 C198 1.346 . S
C199 H206 0.929 . S
C200 O190 1.282 . S
C200 O201 1.216 . S
O201 C200 1.216 . S
H202 C197 0.930 . S
H203 C198 0.930 . S
O204 Cu184 1.959 . S
O204 C191 1.251 . S
H205 C188 0.930 . S
H206 C199 0.929 . S
Cu207 N208 1.999 . S
Cu207 O213 1.974 . S
Cu207 N218 1.985 . S
Cu207 O227 1.959 . S
N208 Cu207 1.999 . S
N208 C210 1.263 . S
N208 C212 1.389 . S
N209 C210 1.358 . S
N209 C211 1.400 . S
C210 N208 1.263 . S
C210 N209 1.358 . S
C210 H216 0.930 . S
C211 N209 1.400 . S
C211 C212 1.351 . S
C211 H228 0.930 . S
C212 N208 1.389 . S
C212 C211 1.351 . S
C212 H217 0.930 . S
O213 Cu207 1.974 . S
O213 C223 1.282 . S
C214 O215 1.261 . S
C214 O227 1.251 . S
O215 C214 1.261 . S
H216 C210 0.930 . S
H217 C212 0.930 . S
N218 Cu207 1.985 . S
N218 C220 1.335 . S
N218 C221 1.390 . S
N219 C220 1.345 . S
N219 C222 1.336 . S
C220 N218 1.335 . S
C220 N219 1.345 . S
C220 H225 0.930 . S
C221 N218 1.390 . S
C221 C222 1.346 . S
C221 H226 0.930 . S
C222 N219 1.336 . S
C222 C221 1.346 . S
C222 H229 0.929 . S
C223 O213 1.282 . S
C223 O224 1.216 . S
O224 C223 1.216 . S
H225 C220 0.930 . S
H226 C221 0.930 . S
O227 Cu207 1.959 . S
O227 C214 1.251 . S
H228 C211 0.930 . S
H229 C222 0.929 . S
Cu230 N231 1.999 . S
Cu230 O236 1.974 . S
Cu230 N241 1.985 . S
Cu230 O250 1.959 . S
N231 Cu230 1.999 . S
N231 C233 1.263 . S
N231 C235 1.389 . S
N232 C233 1.358 . S
N232 C234 1.400 . S
C233 N231 1.263 . S
C233 N232 1.358 . S
C233 H239 0.930 . S
C234 N232 1.400 . S
C234 C235 1.351 . S
C234 H251 0.930 . S
C235 N231 1.389 . S
C235 C234 1.351 . S
C235 H240 0.930 . S
O236 Cu230 1.974 . S
O236 C246 1.282 . S
C237 O238 1.261 . S
C237 O250 1.251 . S
O238 C237 1.261 . S
H239 C233 0.930 . S
H240 C235 0.930 . S
N241 Cu230 1.985 . S
N241 C243 1.335 . S
N241 C244 1.390 . S
N242 C243 1.345 . S
N242 C245 1.336 . S
C243 N241 1.335 . S
C243 N242 1.345 . S
C243 H248 0.930 . S
C244 N241 1.390 . S
C244 C245 1.346 . S
C244 H249 0.930 . S
C245 N242 1.336 . S
C245 C244 1.346 . S
C245 H252 0.929 . S
C246 O236 1.282 . S
C246 O247 1.216 . S
O247 C246 1.216 . S
H248 C243 0.930 . S
H249 C244 0.930 . S
O250 Cu230 1.959 . S
O250 C237 1.251 . S
H251 C234 0.930 . S
H252 C245 0.929 . S
Cu253 N254 1.999 . S
Cu253 O259 1.974 . S
Cu253 N264 1.985 . S
Cu253 O273 1.959 . S
N254 Cu253 1.999 . S
N254 C256 1.263 . S
N254 C258 1.389 . S
N255 C256 1.358 . S
N255 C257 1.400 . S
C256 N254 1.263 . S
C256 N255 1.358 . S
C256 H262 0.930 . S
C257 N255 1.400 . S
C257 C258 1.351 . S
C257 H274 0.930 . S
C258 N254 1.389 . S
C258 C257 1.351 . S
C258 H263 0.930 . S
O259 Cu253 1.974 . S
O259 C269 1.282 . S
C260 O261 1.261 . S
C260 O273 1.251 . S
O261 C260 1.261 . S
H262 C256 0.930 . S
H263 C258 0.930 . S
N264 Cu253 1.985 . S
N264 C266 1.335 . S
N264 C267 1.390 . S
N265 C266 1.345 . S
N265 C268 1.336 . S
C266 N264 1.335 . S
C266 N265 1.345 . S
C266 H271 0.930 . S
C267 N264 1.390 . S
C267 C268 1.346 . S
C267 H272 0.930 . S
C268 N265 1.336 . S
C268 C267 1.346 . S
C268 H275 0.929 . S
C269 O259 1.282 . S
C269 O270 1.216 . S
O270 C269 1.216 . S
H271 C266 0.930 . S
H272 C267 0.930 . S
O273 Cu253 1.959 . S
O273 C260 1.251 . S
H274 C257 0.930 . S
H275 C268 0.929 . S
Cu276 N277 1.999 . S
Cu276 O282 1.974 . S
Cu276 N287 1.985 . S
Cu276 O296 1.959 . S
N277 Cu276 1.999 . S
N277 C279 1.263 . S
N277 C281 1.389 . S
N278 C279 1.358 . S
N278 C280 1.400 . S
C279 N277 1.263 . S
C279 N278 1.358 . S
C279 H285 0.930 . S
C280 N278 1.400 . S
C280 C281 1.351 . S
C280 H297 0.930 . S
C281 N277 1.389 . S
C281 C280 1.351 . S
C281 H286 0.930 . S
O282 Cu276 1.974 . S
O282 C292 1.282 . S
C283 O284 1.261 1_455 S
C283 O296 1.251 . S
O284 C283 1.261 1_655 S
H285 C279 0.930 . S
H286 C281 0.930 . S
N287 Cu276 1.985 . S
N287 C289 1.335 . S
N287 C290 1.390 . S
N288 C289 1.345 . S
N288 C291 1.336 . S
C289 N287 1.335 . S
C289 N288 1.345 . S
C289 H294 0.930 . S
C290 N287 1.390 . S
C290 C291 1.346 . S
C290 H295 0.930 . S
C291 N288 1.336 . S
C291 C290 1.346 . S
C291 H298 0.929 . S
C292 O282 1.282 . S
C292 O293 1.216 1_455 S
O293 C292 1.216 1_655 S
H294 C289 0.930 . S
H295 C290 0.930 . S
O296 Cu276 1.959 . S
O296 C283 1.251 . S
H297 C280 0.930 . S
H298 C291 0.929 . S
Cu299 N300 1.999 . S
Cu299 O305 1.974 . S
Cu299 N310 1.985 . S
Cu299 O319 1.959 . S
N300 Cu299 1.999 . S
N300 C302 1.263 . S
N300 C304 1.389 . S
N301 C302 1.358 . S
N301 C303 1.400 . S
C302 N300 1.263 . S
C302 N301 1.358 . S
C302 H308 0.930 . S
C303 N301 1.400 . S
C303 C304 1.351 . S
C303 H320 0.930 . S
C304 N300 1.389 . S
C304 C303 1.351 . S
C304 H309 0.930 . S
O305 Cu299 1.974 . S
O305 C315 1.282 . S
C306 O307 1.261 . S
C306 O319 1.251 . S
O307 C306 1.261 . S
H308 C302 0.930 . S
H309 C304 0.930 . S
N310 Cu299 1.985 . S
N310 C312 1.335 . S
N310 C313 1.390 . S
N311 C312 1.345 . S
N311 C314 1.336 . S
C312 N310 1.335 . S
C312 N311 1.345 . S
C312 H317 0.930 . S
C313 N310 1.390 . S
C313 C314 1.346 . S
C313 H318 0.930 . S
C314 N311 1.336 . S
C314 C313 1.346 . S
C314 H321 0.929 . S
C315 O305 1.282 . S
C315 O316 1.216 . S
O316 C315 1.216 . S
H317 C312 0.930 . S
H318 C313 0.930 . S
O319 Cu299 1.959 . S
O319 C306 1.251 . S
H320 C303 0.930 . S
H321 C314 0.929 . S
Cu322 N323 1.999 . S
Cu322 O328 1.974 . S
Cu322 N333 1.985 . S
Cu322 O342 1.959 . S
N323 Cu322 1.999 . S
N323 C325 1.237 1_565 S
N323 C327 1.389 . S
N324 C325 1.317 . S
N324 C326 1.400 1_545 S
C325 N323 1.237 1_545 S
C325 N324 1.317 . S
C325 H331 1.002 . S
C326 N324 1.400 1_565 S
C326 C327 1.351 . S
C326 H343 0.930 . S
C327 N323 1.389 . S
C327 C326 1.351 . S
C327 H332 0.930 . S
O328 Cu322 1.974 . S
O328 C338 1.293 . S
C329 O330 1.261 1_565 S
C329 O342 1.251 . S
O330 C329 1.261 1_545 S
H331 C325 1.002 . S
H332 C327 0.930 . S
N333 Cu322 1.985 . S
N333 C335 1.335 . S
N333 C336 1.390 . S
N334 C335 1.345 . S
N334 C337 1.336 . S
C335 N333 1.335 . S
C335 N334 1.345 . S
C335 H340 0.930 . S
C336 N333 1.390 . S
C336 C337 1.346 . S
C336 H341 0.930 . S
C337 N334 1.336 . S
C337 C336 1.346 . S
C337 H344 0.929 . S
C338 O328 1.293 . S
C338 O339 1.203 1_565 S
O339 C338 1.203 1_545 S
H340 C335 0.930 . S
H341 C336 0.930 . S
O342 Cu322 1.959 . S
O342 C329 1.251 . S
H343 C326 0.930 . S
H344 C337 0.929 . S
Cu345 N346 1.999 . S
Cu345 O351 1.974 . S
Cu345 N356 1.985 . S
Cu345 O365 1.959 . S
N346 Cu345 1.999 . S
N346 C348 1.263 . S
N346 C350 1.389 . S
N347 C348 1.358 . S
N347 C349 1.400 . S
C348 N346 1.263 . S
C348 N347 1.358 . S
C348 H354 0.930 . S
C349 N347 1.400 . S
C349 C350 1.351 . S
C349 H366 0.930 . S
C350 N346 1.389 . S
C350 C349 1.351 . S
C350 H355 0.930 . S
O351 Cu345 1.974 . S
O351 C361 1.282 . S
C352 O353 1.261 . S
C352 O365 1.251 . S
O353 C352 1.261 . S
H354 C348 0.930 . S
H355 C350 0.930 . S
N356 Cu345 1.985 . S
N356 C358 1.335 . S
N356 C359 1.390 . S
N357 C358 1.345 . S
N357 C360 1.336 . S
C358 N356 1.335 . S
C358 N357 1.345 . S
C358 H363 0.930 . S
C359 N356 1.390 . S
C359 C360 1.346 . S
C359 H364 0.930 . S
C360 N357 1.336 . S
C360 C359 1.346 . S
C360 H367 0.929 . S
C361 O351 1.282 . S
C361 O362 1.216 . S
O362 C361 1.216 . S
H363 C358 0.930 . S
H364 C359 0.930 . S
O365 Cu345 1.959 . S
O365 C352 1.251 . S
H366 C349 0.930 . S
H367 C360 0.929 . S
Cu368 N369 1.999 . S
Cu368 O374 1.974 . S
Cu368 N379 1.985 . S
Cu368 O388 1.959 . S
N369 Cu368 1.999 . S
N369 C371 1.263 . S
N369 C373 1.389 . S
N370 C371 1.358 . S
N370 C372 1.400 . S
C371 N369 1.263 . S
C371 N370 1.358 . S
C371 H377 0.930 . S
C372 N370 1.400 . S
C372 C373 1.351 . S
C372 H389 0.930 . S
C373 N369 1.389 . S
C373 C372 1.351 . S
C373 H378 0.930 . S
O374 Cu368 1.974 . S
O374 C384 1.282 . S
C375 O376 1.261 . S
C375 O388 1.251 . S
O376 C375 1.261 . S
H377 C371 0.930 . S
H378 C373 0.930 . S
N379 Cu368 1.985 . S
N379 C381 1.335 . S
N379 C382 1.390 . S
N380 C381 1.345 . S
N380 C383 1.336 . S
C381 N379 1.335 . S
C381 N380 1.345 . S
C381 H386 0.930 . S
C382 N379 1.390 . S
C382 C383 1.346 . S
C382 H387 0.930 . S
C383 N380 1.336 . S
C383 C382 1.346 . S
C383 H390 0.929 . S
C384 O374 1.282 . S
C384 O385 1.216 . S
O385 C384 1.216 . S
H386 C381 0.930 . S
H387 C382 0.930 . S
O388 Cu368 1.959 . S
O388 C375 1.251 . S
H389 C372 0.930 . S
H390 C383 0.929 . S
Cu391 N392 1.999 . S
Cu391 O397 1.974 . S
Cu391 N402 1.985 . S
Cu391 O411 1.959 . S
N392 Cu391 1.999 . S
N392 C394 1.263 . S
N392 C396 1.389 . S
N393 C394 1.358 . S
N393 C395 1.400 . S
C394 N392 1.263 . S
C394 N393 1.358 . S
C394 H400 0.930 . S
C395 N393 1.400 . S
C395 C396 1.351 . S
C395 H412 0.930 . S
C396 N392 1.389 . S
C396 C395 1.351 . S
C396 H401 0.930 . S
O397 Cu391 1.974 . S
O397 C407 1.282 . S
C398 O399 1.261 . S
C398 O411 1.251 . S
O399 C398 1.261 . S
H400 C394 0.930 . S
H401 C396 0.930 . S
N402 Cu391 1.985 . S
N402 C404 1.335 . S
N402 C405 1.390 . S
N403 C404 1.345 . S
N403 C406 1.336 . S
C404 N402 1.335 . S
C404 N403 1.345 . S
C404 H409 0.930 . S
C405 N402 1.390 . S
C405 C406 1.346 . S
C405 H410 0.930 . S
C406 N403 1.336 . S
C406 C405 1.346 . S
C406 H413 0.929 . S
C407 O397 1.282 . S
C407 O408 1.216 . S
O408 C407 1.216 . S
H409 C404 0.930 . S
H410 C405 0.930 . S
O411 Cu391 1.959 . S
O411 C398 1.251 . S
H412 C395 0.930 . S
H413 C406 0.929 . S
Cu414 N415 1.999 . S
Cu414 O420 1.974 . S
Cu414 N425 1.985 . S
Cu414 O434 1.959 . S
N415 Cu414 1.999 . S
N415 C417 1.263 . S
N415 C419 1.389 . S
N416 C417 1.358 . S
N416 C418 1.400 . S
C417 N415 1.263 . S
C417 N416 1.358 . S
C417 H423 0.930 . S
C418 N416 1.400 . S
C418 C419 1.351 . S
C418 H435 0.930 . S
C419 N415 1.389 . S
C419 C418 1.351 . S
C419 H424 0.930 . S
O420 Cu414 1.974 . S
O420 C430 1.282 . S
C421 O422 1.261 . S
C421 O434 1.251 . S
O422 C421 1.261 . S
H423 C417 0.930 . S
H424 C419 0.930 . S
N425 Cu414 1.985 . S
N425 C427 1.335 . S
N425 C428 1.390 . S
N426 C427 1.345 . S
N426 C429 1.336 . S
C427 N425 1.335 . S
C427 N426 1.345 . S
C427 H432 0.930 . S
C428 N425 1.390 . S
C428 C429 1.346 . S
C428 H433 0.930 . S
C429 N426 1.336 . S
C429 C428 1.346 . S
C429 H436 0.929 . S
C430 O420 1.282 . S
C430 O431 1.216 . S
O431 C430 1.216 . S
H432 C427 0.930 . S
H433 C428 0.930 . S
O434 Cu414 1.959 . S
O434 C421 1.251 . S
H435 C418 0.930 . S
H436 C429 0.929 . S
Cu437 N438 1.999 . S
Cu437 O443 1.974 . S
Cu437 N448 1.985 . S
Cu437 O457 1.959 . S
N438 Cu437 1.999 . S
N438 C440 1.263 . S
N438 C442 1.389 . S
N439 C440 1.358 . S
N439 C441 1.400 . S
C440 N438 1.263 . S
C440 N439 1.358 . S
C440 H446 0.930 . S
C441 N439 1.400 . S
C441 C442 1.351 . S
C441 H458 0.930 . S
C442 N438 1.389 . S
C442 C441 1.351 . S
C442 H447 0.930 . S
O443 Cu437 1.974 . S
O443 C453 1.282 . S
C444 O445 1.261 . S
C444 O457 1.251 . S
O445 C444 1.261 . S
H446 C440 0.930 . S
H447 C442 0.930 . S
N448 Cu437 1.985 . S
N448 C450 1.335 . S
N448 C451 1.390 . S
N449 C450 1.345 . S
N449 C452 1.336 . S
C450 N448 1.335 . S
C450 N449 1.345 . S
C450 H455 0.930 . S
C451 N448 1.390 . S
C451 C452 1.346 . S
C451 H456 0.930 . S
C452 N449 1.336 . S
C452 C451 1.346 . S
C452 H459 0.929 . S
C453 O443 1.282 . S
C453 O454 1.216 . S
O454 C453 1.216 . S
H455 C450 0.930 . S
H456 C451 0.930 . S
O457 Cu437 1.959 . S
O457 C444 1.251 . S
H458 C441 0.930 . S
H459 C452 0.929 . S
Cu460 N461 1.999 . S
Cu460 O466 1.974 . S
Cu460 N471 1.985 . S
Cu460 O480 1.959 . S
N461 Cu460 1.999 . S
N461 C463 1.263 . S
N461 C465 1.389 . S
N462 C463 1.358 . S
N462 C464 1.400 . S
C463 N461 1.263 . S
C463 N462 1.358 . S
C463 H469 0.930 . S
C464 N462 1.400 . S
C464 C465 1.351 . S
C464 H481 0.930 . S
C465 N461 1.389 . S
C465 C464 1.351 . S
C465 H470 0.930 . S
O466 Cu460 1.974 . S
O466 C476 1.282 . S
C467 O468 1.261 . S
C467 O480 1.251 . S
O468 C467 1.261 . S
H469 C463 0.930 . S
H470 C465 0.930 . S
N471 Cu460 1.985 . S
N471 C473 1.335 . S
N471 C474 1.390 . S
N472 C473 1.345 . S
N472 C475 1.336 . S
C473 N471 1.335 . S
C473 N472 1.345 . S
C473 H478 0.930 . S
C474 N471 1.390 . S
C474 C475 1.346 . S
C474 H479 0.930 . S
C475 N472 1.336 . S
C475 C474 1.346 . S
C475 H482 0.929 . S
C476 O466 1.282 . S
C476 O477 1.216 . S
O477 C476 1.216 . S
H478 C473 0.930 . S
H479 C474 0.930 . S
O480 Cu460 1.959 . S
O480 C467 1.251 . S
H481 C464 0.930 . S
H482 C475 0.929 . S
Cu483 N484 1.999 1_554 S
Cu483 O489 1.974 1_554 S
Cu483 N494 1.985 . S
Cu483 O503 1.959 . S
N484 Cu483 1.999 1_556 S
N484 C486 1.263 . S
N484 C488 1.389 . S
N485 C486 1.358 . S
N485 C487 1.400 . S
C486 N484 1.263 . S
C486 N485 1.358 . S
C486 H492 0.930 . S
C487 N485 1.400 . S
C487 C488 1.351 . S
C487 H504 0.930 1_565 S
C488 N484 1.389 . S
C488 C487 1.351 . S
C488 H493 0.930 1_565 S
O489 Cu483 1.974 1_556 S
O489 C499 1.282 . S
C490 O491 1.261 . S
C490 O503 1.251 . S
O491 C490 1.261 . S
H492 C486 0.930 . S
H493 C488 0.930 1_545 S
N494 Cu483 1.985 . S
N494 C496 1.335 . S
N494 C497 1.390 . S
N495 C496 1.345 . S
N495 C498 1.336 . S
C496 N494 1.335 . S
C496 N495 1.345 . S
C496 H501 0.930 . S
C497 N494 1.390 . S
C497 C498 1.346 . S
C497 H502 0.930 . S
C498 N495 1.336 . S
C498 C497 1.346 . S
C498 H505 0.929 . S
C499 O489 1.282 . S
C499 O500 1.216 . S
O500 C499 1.216 . S
H501 C496 0.930 . S
H502 C497 0.930 . S
O503 Cu483 1.959 . S
O503 C490 1.251 . S
H504 C487 0.930 1_545 S
H505 C498 0.929 . S
Cu506 N507 1.999 . S
Cu506 O512 1.969 1_556 S
Cu506 N517 1.985 1_556 S
Cu506 O526 1.964 . S
N507 Cu506 1.999 . S
N507 C509 1.250 1_556 S
N507 C511 1.403 . S
N508 C509 1.358 . S
N508 C510 1.400 1_554 S
C509 N507 1.250 1_554 S
C509 N508 1.358 . S
C509 H515 0.930 . S
C510 N508 1.400 1_556 S
C510 C511 1.351 . S
C510 H527 0.930 . S
C511 N507 1.403 . S
C511 C510 1.351 . S
C511 H516 0.930 . S
O512 Cu506 1.969 1_554 S
O512 C522 1.282 . S
C513 O514 1.261 1_455 S
C513 O526 1.251 . S
O514 C513 1.261 1_655 S
H515 C509 0.930 . S
H516 C511 0.930 . S
N517 Cu506 1.985 1_554 S
N517 C519 1.335 1_554 S
N517 C520 1.390 . S
N518 C519 1.345 . S
N518 C521 1.336 1_556 S
C519 N517 1.335 1_556 S
C519 N518 1.345 . S
C519 H524 0.930 . S
C520 N517 1.390 . S
C520 C521 1.346 . S
C520 H525 0.930 . S
C521 N518 1.336 1_554 S
C521 C520 1.346 . S
C521 H528 0.929 . S
C522 O512 1.282 . S
C522 O523 1.216 1_455 S
O523 C522 1.216 1_655 S
H524 C519 0.930 . S
H525 C520 0.930 . S
O526 Cu506 1.964 . S
O526 C513 1.251 . S
H527 C510 0.930 . S
H528 C521 0.929 . S
Cu529 N530 1.999 . S
Cu529 O535 1.968 1_556 S
Cu529 N540 1.985 1_556 S
Cu529 O549 1.964 . S
N530 Cu529 1.999 . S
N530 C532 1.251 1_556 S
N530 C534 1.401 . S
N531 C532 1.358 . S
N531 C533 1.400 1_554 S
C532 N530 1.251 1_554 S
C532 N531 1.358 . S
C532 H538 0.930 . S
C533 N531 1.400 1_556 S
C533 C534 1.351 . S
C533 H550 0.930 . S
C534 N530 1.401 . S
C534 C533 1.351 . S
C534 H539 0.930 . S
O535 Cu529 1.968 1_554 S
O535 C545 1.282 . S
C536 O537 1.261 . S
C536 O549 1.251 . S
O537 C536 1.261 . S
H538 C532 0.930 . S
H539 C534 0.930 . S
N540 Cu529 1.985 1_554 S
N540 C542 1.335 1_554 S
N540 C543 1.390 . S
N541 C542 1.345 . S
N541 C544 1.336 1_556 S
C542 N540 1.335 1_556 S
C542 N541 1.345 . S
C542 H547 0.930 . S
C543 N540 1.390 . S
C543 C544 1.346 . S
C543 H548 0.930 . S
C544 N541 1.336 1_554 S
C544 C543 1.346 . S
C544 H551 0.929 . S
C545 O535 1.282 . S
C545 O546 1.216 . S
O546 C545 1.216 . S
H547 C542 0.930 . S
H548 C543 0.930 . S
O549 Cu529 1.964 . S
O549 C536 1.251 . S
H550 C533 0.930 . S
H551 C544 0.929 . S
Cu552 N553 1.999 . S
Cu552 O558 1.974 . S
Cu552 N563 1.985 . S
Cu552 O572 1.959 . S
N553 Cu552 1.999 . S
N553 C555 1.263 . S
N553 C557 1.389 . S
N554 C555 1.358 . S
N554 C556 1.400 . S
C555 N553 1.263 . S
C555 N554 1.358 . S
C555 H561 0.930 . S
C556 N554 1.400 . S
C556 C557 1.351 . S
C556 H573 0.930 . S
C557 N553 1.389 . S
C557 C556 1.351 . S
C557 H562 0.930 . S
O558 Cu552 1.974 . S
O558 C568 1.282 . S
C559 O560 1.261 . S
C559 O572 1.251 . S
O560 C559 1.261 . S
H561 C555 0.930 . S
H562 C557 0.930 . S
N563 Cu552 1.985 . S
N563 C565 1.335 . S
N563 C566 1.390 . S
N564 C565 1.345 . S
N564 C567 1.336 . S
C565 N563 1.335 . S
C565 N564 1.345 . S
C565 H570 0.930 . S
C566 N563 1.390 . S
C566 C567 1.346 . S
C566 H571 0.930 . S
C567 N564 1.336 . S
C567 C566 1.346 . S
C567 H574 0.929 . S
C568 O558 1.282 . S
C568 O569 1.216 . S
O569 C568 1.216 . S
H570 C565 0.930 . S
H571 C566 0.930 . S
O572 Cu552 1.959 . S
O572 C559 1.251 . S
H573 C556 0.930 . S
H574 C567 0.929 . S
Cu575 N576 1.999 . S
Cu575 O581 1.974 . S
Cu575 N586 1.985 . S
Cu575 O595 1.959 . S
N576 Cu575 1.999 . S
N576 C578 1.263 . S
N576 C580 1.389 . S
N577 C578 1.358 . S
N577 C579 1.400 . S
C578 N576 1.263 . S
C578 N577 1.358 . S
C578 H584 0.930 . S
C579 N577 1.400 . S
C579 C580 1.351 . S
C579 H596 0.930 . S
C580 N576 1.389 . S
C580 C579 1.351 . S
C580 H585 0.930 . S
O581 Cu575 1.974 . S
O581 C591 1.282 . S
C582 O583 1.261 . S
C582 O595 1.251 . S
O583 C582 1.261 . S
H584 C578 0.930 . S
H585 C580 0.930 . S
N586 Cu575 1.985 . S
N586 C588 1.335 . S
N586 C589 1.390 . S
N587 C588 1.345 . S
N587 C590 1.336 . S
C588 N586 1.335 . S
C588 N587 1.345 . S
C588 H593 0.930 . S
C589 N586 1.390 . S
C589 C590 1.346 . S
C589 H594 0.930 . S
C590 N587 1.336 . S
C590 C589 1.346 . S
C590 H597 0.929 . S
C591 O581 1.282 . S
C591 O592 1.216 . S
O592 C591 1.216 . S
H593 C588 0.930 . S
H594 C589 0.930 . S
O595 Cu575 1.959 . S
O595 C582 1.251 . S
H596 C579 0.930 . S
H597 C590 0.929 . S
Cu598 N599 1.999 . S
Cu598 O604 1.974 . S
Cu598 N609 1.985 . S
Cu598 O618 1.959 . S
N599 Cu598 1.999 . S
N599 C601 1.263 . S
N599 C603 1.389 . S
N600 C601 1.358 . S
N600 C602 1.400 . S
C601 N599 1.263 . S
C601 N600 1.358 . S
C601 H607 0.930 . S
C602 N600 1.400 . S
C602 C603 1.351 . S
C602 H619 0.930 . S
C603 N599 1.389 . S
C603 C602 1.351 . S
C603 H608 0.930 . S
O604 Cu598 1.974 . S
O604 C614 1.282 . S
C605 O606 1.261 . S
C605 O618 1.251 . S
O606 C605 1.261 . S
H607 C601 0.930 . S
H608 C603 0.930 . S
N609 Cu598 1.985 . S
N609 C611 1.335 . S
N609 C612 1.390 . S
N610 C611 1.345 . S
N610 C613 1.336 . S
C611 N609 1.335 . S
C611 N610 1.345 . S
C611 H616 0.930 . S
C612 N609 1.390 . S
C612 C613 1.346 . S
C612 H617 0.930 . S
C613 N610 1.336 . S
C613 C612 1.346 . S
C613 H620 0.929 . S
C614 O604 1.282 . S
C614 O615 1.216 . S
O615 C614 1.216 . S
H616 C611 0.930 . S
H617 C612 0.930 . S
O618 Cu598 1.959 . S
O618 C605 1.251 . S
H619 C602 0.930 . S
H620 C613 0.929 . S
Cu621 N622 1.999 . S
Cu621 O627 1.971 1_554 S
Cu621 N632 1.985 1_554 S
Cu621 O641 1.962 . S
N622 Cu621 1.999 . S
N622 C624 1.254 1_544 S
N622 C626 1.398 . S
N623 C624 1.358 . S
N623 C625 1.400 1_566 S
C624 N622 1.254 1_566 S
C624 N623 1.358 . S
C624 H630 0.930 . S
C625 N623 1.400 1_544 S
C625 C626 1.351 . S
C625 H642 0.930 . S
C626 N622 1.398 . S
C626 C625 1.351 . S
C626 H631 0.930 . S
O627 Cu621 1.971 1_556 S
O627 C637 1.230 1_545 S
C628 O629 1.258 1_545 S
C628 O641 1.254 . S
O629 C628 1.258 1_565 S
H630 C624 0.930 . S
H631 C626 0.930 . S
N632 Cu621 1.985 1_556 S
N632 C634 1.335 1_556 S
N632 C635 1.390 . S
N633 C634 1.345 . S
N633 C636 1.336 1_554 S
C634 N632 1.335 1_554 S
C634 N633 1.345 . S
C634 H639 0.930 . S
C635 N632 1.390 . S
C635 C636 1.346 . S
C635 H640 0.930 . S
C636 N633 1.336 1_556 S
C636 C635 1.346 . S
C636 H643 0.929 . S
C637 O627 1.230 1_565 S
C637 O638 1.273 . S
O638 C637 1.273 . S
H639 C634 0.930 . S
H640 C635 0.930 . S
O641 Cu621 1.962 . S
O641 C628 1.254 . S
H642 C625 0.930 . S
H643 C636 0.929 . S
Cu644 N645 1.999 . S
Cu644 O650 1.969 1_554 S
Cu644 N655 1.985 1_554 S
Cu644 O664 1.964 . S
N645 Cu644 1.999 . S
N645 C647 1.249 1_654 S
N645 C649 1.403 . S
N646 C647 1.358 . S
N646 C648 1.400 1_456 S
C647 N645 1.249 1_456 S
C647 N646 1.358 . S
C647 H653 0.930 . S
C648 N646 1.400 1_654 S
C648 C649 1.351 . S
C648 H665 0.930 . S
C649 N645 1.403 . S
C649 C648 1.351 . S
C649 H654 0.930 . S
O650 Cu644 1.969 1_556 S
O650 C660 1.282 1_655 S
C651 O652 1.311 . S
C651 O664 1.198 1_455 S
O652 C651 1.311 . S
H653 C647 0.930 . S
H654 C649 0.930 . S
N655 Cu644 1.985 1_556 S
N655 C657 1.335 1_556 S
N655 C658 1.390 . S
N656 C657 1.345 . S
N656 C659 1.336 1_554 S
C657 N655 1.335 1_554 S
C657 N656 1.345 . S
C657 H662 0.930 . S
C658 N655 1.390 . S
C658 C659 1.346 . S
C658 H663 0.930 . S
C659 N656 1.336 1_556 S
C659 C658 1.346 . S
C659 H666 0.929 . S
C660 O650 1.282 1_455 S
C660 O661 1.216 . S
O661 C660 1.216 . S
H662 C657 0.930 . S
H663 C658 0.930 . S
O664 Cu644 1.964 . S
O664 C651 1.198 1_655 S
H665 C648 0.930 . S
H666 C659 0.929 . S
Cu667 N668 1.999 . S
Cu667 O673 1.969 1_554 S
Cu667 N678 1.985 1_554 S
Cu667 O687 1.964 . S
N668 Cu667 1.999 . S
N668 C670 1.249 1_554 S
N668 C672 1.404 . S
N669 C670 1.358 . S
N669 C671 1.400 1_556 S
C670 N668 1.249 1_556 S
C670 N669 1.358 . S
C670 H676 0.930 . S
C671 N669 1.400 1_554 S
C671 C672 1.351 . S
C671 H688 0.930 . S
C672 N668 1.404 . S
C672 C671 1.351 . S
C672 H677 0.930 . S
O673 Cu667 1.969 1_556 S
O673 C683 1.282 . S
C674 O675 1.261 . S
C674 O687 1.251 . S
O675 C674 1.261 . S
H676 C670 0.930 . S
H677 C672 0.930 . S
N678 Cu667 1.985 1_556 S
N678 C680 1.335 1_556 S
N678 C681 1.390 . S
N679 C680 1.345 . S
N679 C682 1.336 1_554 S
C680 N678 1.335 1_554 S
C680 N679 1.345 . S
C680 H685 0.930 . S
C681 N678 1.390 . S
C681 C682 1.346 . S
C681 H686 0.930 . S
C682 N679 1.336 1_556 S
C682 C681 1.346 . S
C682 H689 0.929 . S
C683 O673 1.282 . S
C683 O684 1.216 . S
O684 C683 1.216 . S
H685 C680 0.930 . S
H686 C681 0.930 . S
O687 Cu667 1.964 . S
O687 C674 1.251 . S
H688 C671 0.930 . S
H689 C682 0.929 . S
Cu690 N691 1.999 . S
Cu690 O696 1.974 . S
Cu690 N701 1.985 . S
Cu690 O710 1.959 . S
N691 Cu690 1.999 . S
N691 C693 1.263 1_655 S
N691 C695 1.389 . S
N692 C693 1.358 . S
N692 C694 1.400 1_455 S
C693 N691 1.263 1_455 S
C693 N692 1.358 . S
C693 H699 0.930 . S
C694 N692 1.400 1_655 S
C694 C695 1.351 . S
C694 H711 0.930 . S
C695 N691 1.389 . S
C695 C694 1.351 . S
C695 H700 0.930 . S
O696 Cu690 1.974 . S
O696 C706 1.240 1_655 S
C697 O698 1.250 1_655 S
C697 O710 1.261 . S
O698 C697 1.250 1_455 S
H699 C693 0.930 . S
H700 C695 0.930 . S
N701 Cu690 1.985 . S
N701 C703 1.335 . S
N701 C704 1.390 . S
N702 C703 1.345 . S
N702 C705 1.336 . S
C703 N701 1.335 . S
C703 N702 1.345 . S
C703 H708 0.930 . S
C704 N701 1.390 . S
C704 C705 1.346 . S
C704 H709 0.930 . S
C705 N702 1.336 . S
C705 C704 1.346 . S
C705 H712 0.929 . S
C706 O696 1.240 1_455 S
C706 O707 1.262 . S
O707 C706 1.262 . S
H708 C703 0.930 . S
H709 C704 0.930 . S
O710 Cu690 1.959 . S
O710 C697 1.261 . S
H711 C694 0.930 . S
H712 C705 0.929 . S
Cu713 N714 1.999 . S
Cu713 O719 1.974 . S
Cu713 N724 1.985 . S
Cu713 O733 1.959 . S
N714 Cu713 1.999 . S
N714 C716 1.263 . S
N714 C718 1.389 . S
N715 C716 1.358 . S
N715 C717 1.400 . S
C716 N714 1.263 . S
C716 N715 1.358 . S
C716 H722 0.930 . S
C717 N715 1.400 . S
C717 C718 1.351 . S
C717 H734 0.930 . S
C718 N714 1.389 . S
C718 C717 1.351 . S
C718 H723 0.930 . S
O719 Cu713 1.974 . S
O719 C729 1.282 . S
C720 O721 1.261 . S
C720 O733 1.251 . S
O721 C720 1.261 . S
H722 C716 0.930 . S
H723 C718 0.930 . S
N724 Cu713 1.985 . S
N724 C726 1.335 . S
N724 C727 1.390 . S
N725 C726 1.345 . S
N725 C728 1.336 . S
C726 N724 1.335 . S
C726 N725 1.345 . S
C726 H731 0.930 . S
C727 N724 1.390 . S
C727 C728 1.346 . S
C727 H732 0.930 . S
C728 N725 1.336 . S
C728 C727 1.346 . S
C728 H735 0.929 . S
C729 O719 1.282 . S
C729 O730 1.216 . S
O730 C729 1.216 . S
H731 C726 0.930 . S
H732 C727 0.930 . S
O733 Cu713 1.959 . S
O733 C720 1.251 . S
H734 C717 0.930 . S
H735 C728 0.929 . S
Cu736 N737 1.999 . S
Cu736 O742 1.974 . S
Cu736 N747 1.985 . S
Cu736 O756 1.942 . S
N737 Cu736 1.999 . S
N737 C739 1.263 . S
N737 C741 1.389 1_545 S
N738 C739 1.358 . S
N738 C740 1.400 1_545 S
C739 N737 1.263 . S
C739 N738 1.358 . S
C739 H745 0.930 . S
C740 N738 1.400 1_565 S
C740 C741 1.351 . S
C740 H757 0.930 . S
C741 N737 1.389 1_565 S
C741 C740 1.351 . S
C741 H746 0.930 . S
O742 Cu736 1.974 . S
O742 C752 1.282 . S
C743 O744 1.261 . S
C743 O756 1.376 . S
O744 C743 1.261 . S
H745 C739 0.930 . S
H746 C741 0.930 . S
N747 Cu736 1.985 . S
N747 C749 1.335 . S
N747 C750 1.390 . S
N748 C749 1.345 . S
N748 C751 1.336 . S
C749 N747 1.335 . S
C749 N748 1.345 . S
C749 H754 0.937 . S
C750 N747 1.390 . S
C750 C751 1.346 . S
C750 H755 0.930 . S
C751 N748 1.336 . S
C751 C750 1.346 . S
C751 H758 0.929 . S
C752 O742 1.282 . S
C752 O753 1.216 . S
O753 C752 1.216 . S
H754 C749 0.937 . S
H755 C750 0.930 . S
O756 Cu736 1.942 . S
O756 C743 1.376 . S
H757 C740 0.930 . S
H758 C751 0.929 . S
Cu759 N760 1.999 . S
Cu759 O765 1.974 . S
Cu759 N770 1.985 . S
Cu759 O779 1.959 . S
N760 Cu759 1.999 . S
N760 C762 1.263 . S
N760 C764 1.389 . S
N761 C762 1.358 . S
N761 C763 1.400 . S
C762 N760 1.263 . S
C762 N761 1.358 . S
C762 H768 0.930 . S
C763 N761 1.400 . S
C763 C764 1.351 . S
C763 H780 0.930 . S
C764 N760 1.389 . S
C764 C763 1.351 . S
C764 H769 0.930 . S
O765 Cu759 1.974 . S
O765 C775 1.282 . S
C766 O767 1.261 . S
C766 O779 1.251 . S
O767 C766 1.261 . S
H768 C762 0.930 . S
H769 C764 0.930 . S
N770 Cu759 1.985 . S
N770 C772 1.335 . S
N770 C773 1.390 . S
N771 C772 1.345 . S
N771 C774 1.336 . S
C772 N770 1.335 . S
C772 N771 1.345 . S
C772 H777 0.930 . S
C773 N770 1.390 . S
C773 C774 1.346 . S
C773 H778 0.930 . S
C774 N771 1.336 . S
C774 C773 1.346 . S
C774 H781 0.929 . S
C775 O765 1.282 . S
C775 O776 1.216 . S
O776 C775 1.216 . S
H777 C772 0.930 . S
H778 C773 0.930 . S
O779 Cu759 1.959 . S
O779 C766 1.251 . S
H780 C763 0.930 . S
H781 C774 0.929 . S
Cu782 N783 1.999 . S
Cu782 O788 1.974 . S
Cu782 N793 1.985 . S
Cu782 O802 1.959 . S
N783 Cu782 1.999 . S
N783 C785 1.263 . S
N783 C787 1.389 . S
N784 C785 1.358 . S
N784 C786 1.400 . S
C785 N783 1.263 . S
C785 N784 1.358 . S
C785 H791 0.930 . S
C786 N784 1.400 . S
C786 C787 1.351 . S
C786 H803 0.930 . S
C787 N783 1.389 . S
C787 C786 1.351 . S
C787 H792 0.930 . S
O788 Cu782 1.974 . S
O788 C798 1.282 . S
C789 O790 1.261 . S
C789 O802 1.251 . S
O790 C789 1.261 . S
H791 C785 0.930 . S
H792 C787 0.930 . S
N793 Cu782 1.985 . S
N793 C795 1.335 . S
N793 C796 1.390 . S
N794 C795 1.345 . S
N794 C797 1.336 . S
C795 N793 1.335 . S
C795 N794 1.345 . S
C795 H800 0.930 . S
C796 N793 1.390 . S
C796 C797 1.346 . S
C796 H801 0.930 . S
C797 N794 1.336 . S
C797 C796 1.346 . S
C797 H804 0.929 . S
C798 O788 1.282 . S
C798 O799 1.216 . S
O799 C798 1.216 . S
H800 C795 0.930 . S
H801 C796 0.930 . S
O802 Cu782 1.959 . S
O802 C789 1.251 . S
H803 C786 0.930 . S
H804 C797 0.929 . S
Cu805 N806 1.999 . S
Cu805 O811 1.974 . S
Cu805 N816 1.985 . S
Cu805 O825 1.959 . S
N806 Cu805 1.999 . S
N806 C808 1.263 . S
N806 C810 1.389 . S
N807 C808 1.358 . S
N807 C809 1.400 . S
C808 N806 1.263 . S
C808 N807 1.358 . S
C808 H814 0.930 . S
C809 N807 1.400 . S
C809 C810 1.351 . S
C809 H826 0.930 . S
C810 N806 1.389 . S
C810 C809 1.351 . S
C810 H815 0.930 . S
O811 Cu805 1.974 . S
O811 C821 1.282 . S
C812 O813 1.261 . S
C812 O825 1.251 . S
O813 C812 1.261 . S
H814 C808 0.930 . S
H815 C810 0.930 . S
N816 Cu805 1.985 . S
N816 C818 1.335 . S
N816 C819 1.390 . S
N817 C818 1.345 . S
N817 C820 1.336 . S
C818 N816 1.335 . S
C818 N817 1.345 . S
C818 H823 0.930 . S
C819 N816 1.390 . S
C819 C820 1.346 . S
C819 H824 0.930 . S
C820 N817 1.336 . S
C820 C819 1.346 . S
C820 H827 0.929 . S
C821 O811 1.282 . S
C821 O822 1.216 . S
O822 C821 1.216 . S
H823 C818 0.930 . S
H824 C819 0.930 . S
O825 Cu805 1.959 . S
O825 C812 1.251 . S
H826 C809 0.930 . S
H827 C820 0.929 . S
H828 C836 0.929 . S
H829 C838 0.930 . S
H830 C840 0.930 . S
H831 C843 0.929 . S
H832 C846 0.930 . S
H833 C848 0.960 . S
H834 C848 0.960 . S
H835 C848 0.960 . S
C836 H828 0.929 . S
C836 C837 1.377 . S
C836 C838 1.384 . S
C837 C836 1.377 . S
C837 C843 1.390 . S
C838 H829 0.930 . S
C838 C836 1.384 . S
C838 C839 1.372 . S
C839 C838 1.372 . S
C839 C840 1.400 . S
C839 C844 1.490 . S
C840 H830 0.930 . S
C840 C839 1.400 . S
C840 C843 1.386 . S
H841 C857 0.930 . S
H842 C858 0.931 . S
C843 H831 0.929 . S
C843 C837 1.390 . S
C843 C840 1.386 . S
C844 C839 1.490 . S
C844 C846 1.395 . S
C844 C847 1.403 . S
H845 C851 0.930 . S
C846 H832 0.930 . S
C846 C844 1.395 . S
C846 C849 1.403 . S
C847 C844 1.403 . S
C847 C848 1.524 . S
C847 C851 1.400 . S
C848 H833 0.960 . S
C848 H834 0.960 . S
C848 H835 0.960 . S
C848 C847 1.524 . S
C849 C846 1.403 . S
C849 C850 1.392 . S
C849 C853 1.495 . S
C850 C849 1.392 . S
C850 C851 1.385 . S
C850 C852 1.478 . S
C851 H845 0.930 . S
C851 C847 1.400 . S
C851 C850 1.385 . S
C852 C850 1.478 . S
C852 C854 1.381 . S
C852 C858 1.383 . S
C853 C849 1.495 . S
C853 H859 0.959 . S
C853 H860 0.961 . S
C853 H861 0.960 . S
C854 C852 1.381 . S
C854 C855 1.394 . S
C854 H862 0.930 . S
C855 C854 1.394 . S
C855 C856 1.383 . S
C855 H863 0.929 . S
C856 C855 1.383 . S
C856 C857 1.377 . S
C857 H841 0.930 . S
C857 C856 1.377 . S
C857 C858 1.379 . S
C858 H842 0.931 . S
C858 C852 1.383 . S
C858 C857 1.379 . S
H859 C853 0.959 . S
H860 C853 0.961 . S
H861 C853 0.960 . S
H862 C854 0.930 . S
H863 C855 0.929 . S
H864 C872 0.929 . S
H865 C874 0.930 . S
H866 C876 0.930 . S
H867 C879 0.929 . S
H868 C882 0.930 . S
H869 C884 0.960 . S
H870 C884 0.960 . S
H871 C884 0.960 . S
C872 H864 0.929 . S
C872 C873 1.377 . S
C872 C874 1.384 . S
C873 C872 1.377 . S
C873 C879 1.390 . S
C874 H865 0.930 . S
C874 C872 1.384 . S
C874 C875 1.372 . S
C875 C874 1.372 . S
C875 C876 1.400 . S
C875 C880 1.490 . S
C876 H866 0.930 . S
C876 C875 1.400 . S
C876 C879 1.386 . S
H877 C893 0.930 . S
H878 C894 0.931 . S
C879 H867 0.929 . S
C879 C873 1.390 . S
C879 C876 1.386 . S
C880 C875 1.490 . S
C880 C882 1.395 . S
C880 C883 1.403 . S
H881 C887 0.930 . S
C882 H868 0.930 . S
C882 C880 1.395 . S
C882 C885 1.403 . S
C883 C880 1.403 . S
C883 C884 1.524 . S
C883 C887 1.400 . S
C884 H869 0.960 . S
C884 H870 0.960 . S
C884 H871 0.960 . S
C884 C883 1.524 . S
C885 C882 1.403 . S
C885 C886 1.392 . S
C885 C889 1.495 . S
C886 C885 1.392 . S
C886 C887 1.385 . S
C886 C888 1.478 . S
C887 H881 0.930 . S
C887 C883 1.400 . S
C887 C886 1.385 . S
C888 C886 1.478 . S
C888 C890 1.381 . S
C888 C894 1.383 . S
C889 C885 1.495 . S
C889 H895 0.959 . S
C889 H896 0.961 . S
C889 H897 0.960 . S
C890 C888 1.381 . S
C890 C891 1.394 . S
C890 H898 0.930 . S
C891 C890 1.394 . S
C891 C892 1.383 . S
C891 H899 0.929 . S
C892 C891 1.383 . S
C892 C893 1.377 . S
C893 H877 0.930 . S
C893 C892 1.377 . S
C893 C894 1.379 . S
C894 H878 0.931 . S
C894 C888 1.383 . S
C894 C893 1.379 . S
H895 C889 0.959 . S
H896 C889 0.961 . S
H897 C889 0.960 . S
H898 C890 0.930 . S
H899 C891 0.929 . S
H900 C908 0.929 . S
H901 C910 0.930 . S
H902 C912 0.930 . S
H903 C915 0.929 . S
H904 C918 0.930 . S
H905 C920 0.960 . S
H906 C920 0.960 . S
H907 C920 0.960 . S
C908 H900 0.929 . S
C908 C909 1.377 . S
C908 C910 1.384 . S
C909 C908 1.377 . S
C909 C915 1.390 . S
C910 H901 0.930 . S
C910 C908 1.384 . S
C910 C911 1.372 . S
C911 C910 1.372 . S
C911 C912 1.400 . S
C911 C916 1.490 . S
C912 H902 0.930 . S
C912 C911 1.400 . S
C912 C915 1.386 . S
H913 C929 0.930 . S
H914 C930 0.931 . S
C915 H903 0.929 . S
C915 C909 1.390 . S
C915 C912 1.386 . S
C916 C911 1.490 . S
C916 C918 1.395 . S
C916 C919 1.403 . S
H917 C923 0.930 . S
C918 H904 0.930 . S
C918 C916 1.395 . S
C918 C921 1.403 . S
C919 C916 1.403 . S
C919 C920 1.524 . S
C919 C923 1.400 . S
C920 H905 0.960 . S
C920 H906 0.960 . S
C920 H907 0.960 . S
C920 C919 1.524 . S
C921 C918 1.403 . S
C921 C922 1.392 . S
C921 C925 1.495 . S
C922 C921 1.392 . S
C922 C923 1.385 . S
C922 C924 1.478 . S
C923 H917 0.930 . S
C923 C919 1.400 . S
C923 C922 1.385 . S
C924 C922 1.478 . S
C924 C926 1.381 . S
C924 C930 1.383 . S
C925 C921 1.495 . S
C925 H931 0.959 . S
C925 H932 0.961 . S
C925 H933 0.960 . S
C926 C924 1.381 . S
C926 C927 1.394 . S
C926 H934 0.930 . S
C927 C926 1.394 . S
C927 C928 1.383 . S
C927 H935 0.929 . S
C928 C927 1.383 . S
C928 C929 1.377 . S
C929 H913 0.930 . S
C929 C928 1.377 . S
C929 C930 1.379 . S
C930 H914 0.931 . S
C930 C924 1.383 . S
C930 C929 1.379 . S
H931 C925 0.959 . S
H932 C925 0.961 . S
H933 C925 0.960 . S
H934 C926 0.930 . S
H935 C927 0.929 . S
H936 C944 0.929 . S
H937 C946 0.930 1_554 S
H938 C948 0.930 1_554 S
H939 C951 0.929 . S
H940 C954 0.930 . S
H941 C956 0.960 . S
H942 C956 0.960 . S
H943 C956 0.960 . S
C944 H936 0.929 . S
C944 C945 1.377 . S
C944 C946 1.384 . S
C945 C944 1.377 . S
C945 C951 1.390 . S
C946 H937 0.930 1_556 S
C946 C944 1.384 . S
C946 C947 1.372 1_556 S
C947 C946 1.372 1_554 S
C947 C948 1.400 1_554 S
C947 C952 1.490 . S
C948 H938 0.930 1_556 S
C948 C947 1.400 1_556 S
C948 C951 1.386 . S
H949 C965 0.930 . S
H950 C966 0.931 . S
C951 H939 0.929 . S
C951 C945 1.390 . S
C951 C948 1.386 . S
C952 C947 1.490 . S
C952 C954 1.395 . S
C952 C955 1.403 . S
H953 C959 0.930 . S
C954 H940 0.930 . S
C954 C952 1.395 . S
C954 C957 1.403 . S
C955 C952 1.403 . S
C955 C956 1.524 . S
C955 C959 1.400 . S
C956 H941 0.960 . S
C956 H942 0.960 . S
C956 H943 0.960 . S
C956 C955 1.524 . S
C957 C954 1.403 . S
C957 C958 1.392 . S
C957 C961 1.495 . S
C958 C957 1.392 . S
C958 C959 1.385 . S
C958 C960 1.478 . S
C959 H953 0.930 . S
C959 C955 1.400 . S
C959 C958 1.385 . S
C960 C958 1.478 . S
C960 C962 1.381 . S
C960 C966 1.383 . S
C961 C957 1.495 . S
C961 H967 0.959 . S
C961 H968 0.961 . S
C961 H969 0.960 . S
C962 C960 1.381 . S
C962 C963 1.394 . S
C962 H970 0.930 . S
C963 C962 1.394 . S
C963 C964 1.383 . S
C963 H971 0.929 . S
C964 C963 1.383 . S
C964 C965 1.377 . S
C965 H949 0.930 . S
C965 C964 1.377 . S
C965 C966 1.379 . S
C966 H950 0.931 . S
C966 C960 1.383 . S
C966 C965 1.379 . S
H967 C961 0.959 . S
H968 C961 0.961 . S
H969 C961 0.960 . S
H970 C962 0.930 . S
H971 C963 0.929 . S
H972 C980 0.929 . S
H973 C982 0.930 . S
H974 C984 0.930 . S
H975 C987 0.929 . S
H976 C990 0.930 . S
H977 C992 0.960 . S
H978 C992 0.960 . S
H979 C992 0.960 . S
C980 H972 0.929 . S
C980 C981 1.377 . S
C980 C982 1.384 . S
C981 C980 1.377 . S
C981 C987 1.390 . S
C982 H973 0.930 . S
C982 C980 1.384 . S
C982 C983 1.372 . S
C983 C982 1.372 . S
C983 C984 1.400 . S
C983 C988 1.490 . S
C984 H974 0.930 . S
C984 C983 1.400 . S
C984 C987 1.386 . S
H985 C1001 0.930 . S
H986 C1002 0.931 1_554 S
C987 H975 0.929 . S
C987 C981 1.390 . S
C987 C984 1.386 . S
C988 C983 1.490 . S
C988 C990 1.395 . S
C988 C991 1.403 . S
H989 C995 0.930 . S
C990 H976 0.930 . S
C990 C988 1.395 . S
C990 C993 1.403 . S
C991 C988 1.403 . S
C991 C992 1.524 . S
C991 C995 1.400 . S
C992 H977 0.960 . S
C992 H978 0.960 . S
C992 H979 0.960 . S
C992 C991 1.524 . S
C993 C990 1.403 . S
C993 C994 1.392 . S
C993 C997 1.495 . S
C994 C993 1.392 . S
C994 C995 1.385 . S
C994 C996 1.478 . S
C995 H989 0.930 . S
C995 C991 1.400 . S
C995 C994 1.385 . S
C996 C994 1.478 . S
C996 C998 1.381 1_554 S
C996 C1002 1.383 1_554 S
C997 C993 1.495 . S
C997 H1003 0.959 . S
C997 H1004 0.961 . S
C997 H1005 0.960 . S
C998 C996 1.381 1_556 S
C998 C999 1.394 . S
C998 H1006 0.930 1_556 S
C999 C998 1.394 . S
C999 C1000 1.383 . S
C999 H1007 0.929 . S
C1000 C999 1.383 . S
C1000 C1001 1.377 . S
C1001 H985 0.930 . S
C1001 C1000 1.377 . S
C1001 C1002 1.379 . S
C1002 H986 0.931 1_556 S
C1002 C996 1.383 1_556 S
C1002 C1001 1.379 . S
H1003 C997 0.959 . S
H1004 C997 0.961 . S
H1005 C997 0.960 . S
H1006 C998 0.930 1_554 S
H1007 C999 0.929 . S
H1008 C1016 0.929 . S
H1009 C1018 0.930 . S
H1010 C1020 0.930 . S
H1011 C1023 0.929 . S
H1012 C1026 0.930 . S
H1013 C1028 0.960 . S
H1014 C1028 0.960 . S
H1015 C1028 0.960 . S
C1016 H1008 0.929 . S
C1016 C1017 1.377 . S
C1016 C1018 1.384 . S
C1017 C1016 1.377 . S
C1017 C1023 1.390 . S
C1018 H1009 0.930 . S
C1018 C1016 1.384 . S
C1018 C1019 1.372 . S
C1019 C1018 1.372 . S
C1019 C1020 1.400 . S
C1019 C1024 1.490 . S
C1020 H1010 0.930 . S
C1020 C1019 1.400 . S
C1020 C1023 1.386 . S
H1021 C1037 0.930 . S
H1022 C1038 0.931 1_554 S
C1023 H1011 0.929 . S
C1023 C1017 1.390 . S
C1023 C1020 1.386 . S
C1024 C1019 1.490 . S
C1024 C1026 1.395 . S
C1024 C1027 1.403 . S
H1025 C1031 0.930 . S
C1026 H1012 0.930 . S
C1026 C1024 1.395 . S
C1026 C1029 1.403 . S
C1027 C1024 1.403 . S
C1027 C1028 1.524 . S
C1027 C1031 1.400 . S
C1028 H1013 0.960 . S
C1028 H1014 0.960 . S
C1028 H1015 0.960 . S
C1028 C1027 1.524 . S
C1029 C1026 1.403 . S
C1029 C1030 1.392 . S
C1029 C1033 1.495 . S
C1030 C1029 1.392 . S
C1030 C1031 1.385 . S
C1030 C1032 1.478 . S
C1031 H1025 0.930 . S
C1031 C1027 1.400 . S
C1031 C1030 1.385 . S
C1032 C1030 1.478 . S
C1032 C1034 1.381 1_554 S
C1032 C1038 1.383 1_554 S
C1033 C1029 1.495 . S
C1033 H1039 0.959 . S
C1033 H1040 0.961 . S
C1033 H1041 0.960 . S
C1034 C1032 1.381 1_556 S
C1034 C1035 1.394 . S
C1034 H1042 0.930 1_556 S
C1035 C1034 1.394 . S
C1035 C1036 1.383 . S
C1035 H1043 0.929 . S
C1036 C1035 1.383 . S
C1036 C1037 1.377 . S
C1037 H1021 0.930 . S
C1037 C1036 1.377 . S
C1037 C1038 1.379 . S
C1038 H1022 0.931 1_556 S
C1038 C1032 1.383 1_556 S
C1038 C1037 1.379 . S
H1039 C1033 0.959 . S
H1040 C1033 0.961 . S
H1041 C1033 0.960 . S
H1042 C1034 0.930 1_554 S
H1043 C1035 0.929 . S
H1044 C1052 0.929 . S
H1045 C1054 0.930 . S
H1046 C1056 0.930 . S
H1047 C1059 0.929 . S
H1048 C1062 0.930 . S
H1049 C1064 0.960 . S
H1050 C1064 0.960 . S
H1051 C1064 0.960 . S
C1052 H1044 0.929 . S
C1052 C1053 1.377 . S
C1052 C1054 1.384 . S
C1053 C1052 1.377 . S
C1053 C1059 1.390 . S
C1054 H1045 0.930 . S
C1054 C1052 1.384 . S
C1054 C1055 1.372 . S
C1055 C1054 1.372 . S
C1055 C1056 1.400 . S
C1055 C1060 1.490 . S
C1056 H1046 0.930 . S
C1056 C1055 1.400 . S
C1056 C1059 1.386 . S
H1057 C1073 0.930 . S
H1058 C1074 0.931 . S
C1059 H1047 0.929 . S
C1059 C1053 1.390 . S
C1059 C1056 1.386 . S
C1060 C1055 1.490 . S
C1060 C1062 1.395 . S
C1060 C1063 1.403 . S
H1061 C1067 0.930 . S
C1062 H1048 0.930 . S
C1062 C1060 1.395 . S
C1062 C1065 1.403 . S
C1063 C1060 1.403 . S
C1063 C1064 1.524 . S
C1063 C1067 1.400 . S
C1064 H1049 0.960 . S
C1064 H1050 0.960 . S
C1064 H1051 0.960 . S
C1064 C1063 1.524 . S
C1065 C1062 1.403 . S
C1065 C1066 1.392 . S
C1065 C1069 1.495 . S
C1066 C1065 1.392 . S
C1066 C1067 1.385 . S
C1066 C1068 1.478 . S
C1067 H1061 0.930 . S
C1067 C1063 1.400 . S
C1067 C1066 1.385 . S
C1068 C1066 1.478 . S
C1068 C1070 1.381 . S
C1068 C1074 1.383 . S
C1069 C1065 1.495 . S
C1069 H1075 0.959 . S
C1069 H1076 0.961 . S
C1069 H1077 0.960 . S
C1070 C1068 1.381 . S
C1070 C1071 1.394 . S
C1070 H1078 0.930 . S
C1071 C1070 1.394 . S
C1071 C1072 1.383 . S
C1071 H1079 0.929 . S
C1072 C1071 1.383 . S
C1072 C1073 1.377 . S
C1073 H1057 0.930 . S
C1073 C1072 1.377 . S
C1073 C1074 1.379 . S
C1074 H1058 0.931 . S
C1074 C1068 1.383 . S
C1074 C1073 1.379 . S
H1075 C1069 0.959 . S
H1076 C1069 0.961 . S
H1077 C1069 0.960 . S
H1078 C1070 0.930 . S
H1079 C1071 0.929 . S
H1080 C1088 0.929 . S
H1081 C1090 0.930 . S
H1082 C1092 0.930 . S
H1083 C1095 0.929 . S
H1084 C1098 0.930 . S
H1085 C1100 0.960 . S
H1086 C1100 0.960 . S
H1087 C1100 0.960 . S
C1088 H1080 0.929 . S
C1088 C1089 1.377 . S
C1088 C1090 1.384 . S
C1089 C1088 1.377 . S
C1089 C1095 1.390 . S
C1090 H1081 0.930 . S
C1090 C1088 1.384 . S
C1090 C1091 1.372 . S
C1091 C1090 1.372 . S
C1091 C1092 1.400 . S
C1091 C1096 1.490 . S
C1092 H1082 0.930 . S
C1092 C1091 1.400 . S
C1092 C1095 1.386 . S
H1093 C1109 0.930 . S
H1094 C1110 0.931 . S
C1095 H1083 0.929 . S
C1095 C1089 1.390 . S
C1095 C1092 1.386 . S
C1096 C1091 1.490 . S
C1096 C1098 1.395 . S
C1096 C1099 1.403 . S
H1097 C1103 0.930 . S
C1098 H1084 0.930 . S
C1098 C1096 1.395 . S
C1098 C1101 1.403 . S
C1099 C1096 1.403 . S
C1099 C1100 1.524 . S
C1099 C1103 1.400 . S
C1100 H1085 0.960 . S
C1100 H1086 0.960 . S
C1100 H1087 0.960 . S
C1100 C1099 1.524 . S
C1101 C1098 1.403 . S
C1101 C1102 1.392 . S
C1101 C1105 1.495 . S
C1102 C1101 1.392 . S
C1102 C1103 1.385 . S
C1102 C1104 1.478 . S
C1103 H1097 0.930 . S
C1103 C1099 1.400 . S
C1103 C1102 1.385 . S
C1104 C1102 1.478 . S
C1104 C1106 1.381 . S
C1104 C1110 1.383 . S
C1105 C1101 1.495 . S
C1105 H1111 0.959 . S
C1105 H1112 0.961 . S
C1105 H1113 0.960 . S
C1106 C1104 1.381 . S
C1106 C1107 1.394 . S
C1106 H1114 0.930 . S
C1107 C1106 1.394 . S
C1107 C1108 1.383 . S
C1107 H1115 0.929 . S
C1108 C1107 1.383 . S
C1108 C1109 1.377 . S
C1109 H1093 0.930 . S
C1109 C1108 1.377 . S
C1109 C1110 1.379 . S
C1110 H1094 0.931 . S
C1110 C1104 1.383 . S
C1110 C1109 1.379 . S
H1111 C1105 0.959 . S
H1112 C1105 0.961 . S
H1113 C1105 0.960 . S
H1114 C1106 0.930 . S
H1115 C1107 0.929 . S
H1116 C1124 0.929 . S
H1117 C1126 0.930 . S
H1118 C1128 0.930 . S
H1119 C1131 0.929 . S
H1120 C1134 0.930 . S
H1121 C1136 0.960 . S
H1122 C1136 0.960 . S
H1123 C1136 0.960 . S
C1124 H1116 0.929 . S
C1124 C1125 1.377 . S
C1124 C1126 1.384 . S
C1125 C1124 1.377 . S
C1125 C1131 1.390 . S
C1126 H1117 0.930 . S
C1126 C1124 1.384 . S
C1126 C1127 1.372 . S
C1127 C1126 1.372 . S
C1127 C1128 1.400 . S
C1127 C1132 1.490 . S
C1128 H1118 0.930 . S
C1128 C1127 1.400 . S
C1128 C1131 1.386 . S
H1129 C1145 0.930 . S
H1130 C1146 0.931 . S
C1131 H1119 0.929 . S
C1131 C1125 1.390 . S
C1131 C1128 1.386 . S
C1132 C1127 1.490 . S
C1132 C1134 1.395 . S
C1132 C1135 1.403 . S
H1133 C1139 0.930 . S
C1134 H1120 0.930 . S
C1134 C1132 1.395 . S
C1134 C1137 1.403 . S
C1135 C1132 1.403 . S
C1135 C1136 1.524 . S
C1135 C1139 1.400 . S
C1136 H1121 0.960 . S
C1136 H1122 0.960 . S
C1136 H1123 0.960 . S
C1136 C1135 1.524 . S
C1137 C1134 1.403 . S
C1137 C1138 1.392 . S
C1137 C1141 1.495 . S
C1138 C1137 1.392 . S
C1138 C1139 1.385 . S
C1138 C1140 1.478 . S
C1139 H1133 0.930 . S
C1139 C1135 1.400 . S
C1139 C1138 1.385 . S
C1140 C1138 1.478 . S
C1140 C1142 1.381 . S
C1140 C1146 1.383 . S
C1141 C1137 1.495 . S
C1141 H1147 0.959 . S
C1141 H1148 0.961 . S
C1141 H1149 0.960 . S
C1142 C1140 1.381 . S
C1142 C1143 1.394 . S
C1142 H1150 0.930 . S
C1143 C1142 1.394 . S
C1143 C1144 1.383 . S
C1143 H1151 0.929 . S
C1144 C1143 1.383 . S
C1144 C1145 1.377 . S
C1145 H1129 0.930 . S
C1145 C1144 1.377 . S
C1145 C1146 1.379 . S
C1146 H1130 0.931 . S
C1146 C1140 1.383 . S
C1146 C1145 1.379 . S
H1147 C1141 0.959 . S
H1148 C1141 0.961 . S
H1149 C1141 0.960 . S
H1150 C1142 0.930 . S
H1151 C1143 0.929 . S
H1152 C1160 0.929 . S
H1153 C1162 0.930 . S
H1154 C1164 0.930 . S
H1155 C1167 0.929 . S
H1156 C1170 0.930 . S
H1157 C1172 0.960 . S
H1158 C1172 0.960 . S
H1159 C1172 0.960 . S
C1160 H1152 0.929 . S
C1160 C1161 1.377 . S
C1160 C1162 1.384 . S
C1161 C1160 1.377 . S
C1161 C1167 1.390 . S
C1162 H1153 0.930 . S
C1162 C1160 1.384 . S
C1162 C1163 1.372 . S
C1163 C1162 1.372 . S
C1163 C1164 1.400 . S
C1163 C1168 1.490 . S
C1164 H1154 0.930 . S
C1164 C1163 1.400 . S
C1164 C1167 1.386 . S
H1165 C1181 0.930 . S
H1166 C1182 0.931 1_556 S
C1167 H1155 0.929 . S
C1167 C1161 1.390 . S
C1167 C1164 1.386 . S
C1168 C1163 1.490 . S
C1168 C1170 1.395 . S
C1168 C1171 1.403 . S
H1169 C1175 0.930 . S
C1170 H1156 0.930 . S
C1170 C1168 1.395 . S
C1170 C1173 1.403 . S
C1171 C1168 1.403 . S
C1171 C1172 1.524 . S
C1171 C1175 1.400 . S
C1172 H1157 0.960 . S
C1172 H1158 0.960 . S
C1172 H1159 0.960 . S
C1172 C1171 1.524 . S
C1173 C1170 1.403 . S
C1173 C1174 1.392 . S
C1173 C1177 1.495 . S
C1174 C1173 1.392 . S
C1174 C1175 1.385 . S
C1174 C1176 1.478 . S
C1175 H1169 0.930 . S
C1175 C1171 1.400 . S
C1175 C1174 1.385 . S
C1176 C1174 1.478 . S
C1176 C1178 1.381 1_556 S
C1176 C1182 1.383 1_556 S
C1177 C1173 1.495 . S
C1177 H1183 0.959 . S
C1177 H1184 0.961 . S
C1177 H1185 0.960 . S
C1178 C1176 1.381 1_554 S
C1178 C1179 1.394 . S
C1178 H1186 0.929 1_554 S
C1179 C1178 1.394 . S
C1179 C1180 1.383 . S
C1179 H1187 0.929 . S
C1180 C1179 1.383 . S
C1180 C1181 1.377 . S
C1181 H1165 0.930 . S
C1181 C1180 1.377 . S
C1181 C1182 1.379 . S
C1182 H1166 0.931 1_554 S
C1182 C1176 1.383 1_554 S
C1182 C1181 1.379 . S
H1183 C1177 0.959 . S
H1184 C1177 0.961 . S
H1185 C1177 0.960 . S
H1186 C1178 0.929 1_556 S
H1187 C1179 0.929 . S
H1188 C1196 0.929 . S
H1189 C1198 0.930 1_556 S
H1190 C1200 0.930 1_556 S
H1191 C1203 0.929 . S
H1192 C1206 0.930 . S
H1193 C1208 0.960 . S
H1194 C1208 0.960 . S
H1195 C1208 0.960 . S
C1196 H1188 0.929 . S
C1196 C1197 1.377 . S
C1196 C1198 1.384 . S
C1197 C1196 1.377 . S
C1197 C1203 1.390 . S
C1198 H1189 0.930 1_554 S
C1198 C1196 1.384 . S
C1198 C1199 1.372 1_554 S
C1199 C1198 1.372 1_556 S
C1199 C1200 1.400 1_556 S
C1199 C1204 1.490 . S
C1200 H1190 0.930 1_554 S
C1200 C1199 1.400 1_554 S
C1200 C1203 1.386 . S
H1201 C1217 0.930 . S
H1202 C1218 0.931 . S
C1203 H1191 0.929 . S
C1203 C1197 1.390 . S
C1203 C1200 1.386 . S
C1204 C1199 1.490 . S
C1204 C1206 1.395 . S
C1204 C1207 1.403 . S
H1205 C1211 0.930 . S
C1206 H1192 0.930 . S
C1206 C1204 1.395 . S
C1206 C1209 1.403 . S
C1207 C1204 1.403 . S
C1207 C1208 1.524 . S
C1207 C1211 1.400 . S
C1208 H1193 0.960 . S
C1208 H1194 0.960 . S
C1208 H1195 0.960 . S
C1208 C1207 1.524 . S
C1209 C1206 1.403 . S
C1209 C1210 1.392 . S
C1209 C1213 1.495 . S
C1210 C1209 1.392 . S
C1210 C1211 1.385 . S
C1210 C1212 1.478 . S
C1211 H1205 0.930 . S
C1211 C1207 1.400 . S
C1211 C1210 1.385 . S
C1212 C1210 1.478 . S
C1212 C1214 1.381 . S
C1212 C1218 1.383 . S
C1213 C1209 1.495 . S
C1213 H1219 0.959 . S
C1213 H1220 0.961 . S
C1213 H1221 0.960 . S
C1214 C1212 1.381 . S
C1214 C1215 1.394 . S
C1214 H1222 0.930 . S
C1215 C1214 1.394 . S
C1215 C1216 1.383 . S
C1215 H1223 0.929 . S
C1216 C1215 1.383 . S
C1216 C1217 1.377 . S
C1217 H1201 0.930 . S
C1217 C1216 1.377 . S
C1217 C1218 1.379 . S
C1218 H1202 0.931 . S
C1218 C1212 1.383 . S
C1218 C1217 1.379 . S
H1219 C1213 0.959 . S
H1220 C1213 0.961 . S
H1221 C1213 0.960 . S
H1222 C1214 0.930 . S
H1223 C1215 0.929 . S
H1224 C1232 0.929 . S
H1225 C1234 0.930 . S
H1226 C1236 0.930 . S
H1227 C1239 0.929 . S
H1228 C1242 0.930 . S
H1229 C1244 0.960 . S
H1230 C1244 0.960 . S
H1231 C1244 0.960 . S
C1232 H1224 0.929 . S
C1232 C1233 1.377 . S
C1232 C1234 1.384 . S
C1233 C1232 1.377 . S
C1233 C1239 1.390 . S
C1234 H1225 0.930 . S
C1234 C1232 1.384 . S
C1234 C1235 1.372 . S
C1235 C1234 1.372 . S
C1235 C1236 1.400 . S
C1235 C1240 1.490 . S
C1236 H1226 0.930 . S
C1236 C1235 1.400 . S
C1236 C1239 1.386 . S
H1237 C1253 0.930 . S
H1238 C1254 0.931 1_556 S
C1239 H1227 0.929 . S
C1239 C1233 1.390 . S
C1239 C1236 1.386 . S
C1240 C1235 1.490 . S
C1240 C1242 1.395 . S
C1240 C1243 1.403 . S
H1241 C1247 0.930 . S
C1242 H1228 0.930 . S
C1242 C1240 1.395 . S
C1242 C1245 1.403 . S
C1243 C1240 1.403 . S
C1243 C1244 1.524 . S
C1243 C1247 1.400 . S
C1244 H1229 0.960 . S
C1244 H1230 0.960 . S
C1244 H1231 0.960 . S
C1244 C1243 1.524 . S
C1245 C1242 1.403 . S
C1245 C1246 1.392 . S
C1245 C1249 1.495 . S
C1246 C1245 1.392 . S
C1246 C1247 1.385 . S
C1246 C1248 1.478 . S
C1247 H1241 0.930 . S
C1247 C1243 1.400 . S
C1247 C1246 1.385 . S
C1248 C1246 1.478 . S
C1248 C1250 1.381 1_556 S
C1248 C1254 1.383 1_556 S
C1249 C1245 1.495 . S
C1249 H1255 0.959 . S
C1249 H1256 0.961 . S
C1249 H1257 0.960 . S
C1250 C1248 1.381 1_554 S
C1250 C1251 1.394 . S
C1250 H1258 0.916 1_554 S
C1251 C1250 1.394 . S
C1251 C1252 1.383 . S
C1251 H1259 0.929 . S
C1252 C1251 1.383 . S
C1252 C1253 1.377 . S
C1253 H1237 0.930 . S
C1253 C1252 1.377 . S
C1253 C1254 1.379 . S
C1254 H1238 0.931 1_554 S
C1254 C1248 1.383 1_554 S
C1254 C1253 1.379 . S
H1255 C1249 0.959 . S
H1256 C1249 0.961 . S
H1257 C1249 0.960 . S
H1258 C1250 0.916 1_556 S
H1259 C1251 0.929 . S
H1260 C1268 0.929 . S
H1261 C1270 0.930 . S
H1262 C1272 0.930 . S
H1263 C1275 0.929 . S
H1264 C1278 0.930 . S
H1265 C1280 0.960 . S
H1266 C1280 0.960 . S
H1267 C1280 0.960 . S
C1268 H1260 0.929 . S
C1268 C1269 1.377 1_655 S
C1268 C1270 1.384 . S
C1269 C1268 1.377 1_455 S
C1269 C1275 1.390 . S
C1270 H1261 0.930 . S
C1270 C1268 1.384 . S
C1270 C1271 1.372 1_655 S
C1271 C1270 1.372 1_455 S
C1271 C1272 1.400 . S
C1271 C1276 1.490 . S
C1272 H1262 0.930 . S
C1272 C1271 1.400 . S
C1272 C1275 1.386 . S
H1273 C1289 0.930 . S
H1274 C1290 0.931 . S
C1275 H1263 0.929 . S
C1275 C1269 1.390 . S
C1275 C1272 1.386 . S
C1276 C1271 1.490 . S
C1276 C1278 1.395 1_455 S
C1276 C1279 1.403 . S
H1277 C1283 0.930 . S
C1278 H1264 0.930 . S
C1278 C1276 1.395 1_655 S
C1278 C1281 1.403 . S
C1279 C1276 1.403 . S
C1279 C1280 1.524 . S
C1279 C1283 1.400 . S
C1280 H1265 0.960 . S
C1280 H1266 0.960 . S
C1280 H1267 0.960 . S
C1280 C1279 1.524 . S
C1281 C1278 1.403 . S
C1281 C1282 1.392 1_655 S
C1281 C1285 1.495 . S
C1282 C1281 1.392 1_455 S
C1282 C1283 1.385 . S
C1282 C1284 1.478 . S
C1283 H1277 0.930 . S
C1283 C1279 1.400 . S
C1283 C1282 1.385 . S
C1284 C1282 1.478 . S
C1284 C1286 1.386 1_455 S
C1284 C1290 1.383 . S
C1285 C1281 1.495 . S
C1285 H1291 0.959 . S
C1285 H1292 0.961 . S
C1285 H1293 0.960 . S
C1286 C1284 1.386 1_655 S
C1286 C1287 1.390 1_655 S
C1286 H1294 0.932 . S
C1287 C1286 1.390 1_455 S
C1287 C1288 1.383 . S
C1287 H1295 0.929 1_455 S
C1288 C1287 1.383 . S
C1288 C1289 1.377 . S
C1289 H1273 0.930 . S
C1289 C1288 1.377 . S
C1289 C1290 1.379 . S
C1290 H1274 0.931 . S
C1290 C1284 1.383 . S
C1290 C1289 1.379 . S
H1291 C1285 0.959 . S
H1292 C1285 0.961 . S
H1293 C1285 0.960 . S
H1294 C1286 0.932 . S
H1295 C1287 0.929 1_655 S
H1296 C1304 0.929 . S
H1297 C1306 0.930 . S
H1298 C1308 0.930 . S
H1299 C1311 0.929 . S
H1300 C1314 0.930 . S
H1301 C1316 0.960 . S
H1302 C1316 0.960 . S
H1303 C1316 0.960 . S
C1304 H1296 0.929 . S
C1304 C1305 1.377 . S
C1304 C1306 1.384 . S
C1305 C1304 1.377 . S
C1305 C1311 1.390 . S
C1306 H1297 0.930 . S
C1306 C1304 1.384 . S
C1306 C1307 1.372 . S
C1307 C1306 1.372 . S
C1307 C1308 1.400 . S
C1307 C1312 1.490 . S
C1308 H1298 0.930 . S
C1308 C1307 1.400 . S
C1308 C1311 1.386 . S
H1309 C1325 0.930 . S
H1310 C1326 0.931 . S
C1311 H1299 0.929 . S
C1311 C1305 1.390 . S
C1311 C1308 1.386 . S
C1312 C1307 1.490 . S
C1312 C1314 1.395 . S
C1312 C1315 1.403 . S
H1313 C1319 0.930 . S
C1314 H1300 0.930 . S
C1314 C1312 1.395 . S
C1314 C1317 1.403 . S
C1315 C1312 1.403 . S
C1315 C1316 1.524 . S
C1315 C1319 1.400 . S
C1316 H1301 0.960 . S
C1316 H1302 0.960 . S
C1316 H1303 0.960 . S
C1316 C1315 1.524 . S
C1317 C1314 1.403 . S
C1317 C1318 1.392 . S
C1317 C1321 1.495 . S
C1318 C1317 1.392 . S
C1318 C1319 1.385 . S
C1318 C1320 1.478 . S
C1319 H1313 0.930 . S
C1319 C1315 1.400 . S
C1319 C1318 1.385 . S
C1320 C1318 1.478 . S
C1320 C1322 1.381 . S
C1320 C1326 1.383 . S
C1321 C1317 1.495 . S
C1321 H1327 0.959 . S
C1321 H1328 0.961 . S
C1321 H1329 0.960 . S
C1322 C1320 1.381 . S
C1322 C1323 1.394 . S
C1322 H1330 0.930 . S
C1323 C1322 1.394 . S
C1323 C1324 1.383 . S
C1323 H1331 0.929 . S
C1324 C1323 1.383 . S
C1324 C1325 1.377 . S
C1325 H1309 0.930 . S
C1325 C1324 1.377 . S
C1325 C1326 1.379 . S
C1326 H1310 0.931 . S
C1326 C1320 1.383 . S
C1326 C1325 1.379 . S
H1327 C1321 0.959 . S
H1328 C1321 0.961 . S
H1329 C1321 0.960 . S
H1330 C1322 0.930 . S
H1331 C1323 0.929 . S
H1332 C1340 0.929 . S
H1333 C1342 0.930 . S
H1334 C1344 0.930 . S
H1335 C1347 0.929 . S
H1336 C1350 0.930 . S
H1337 C1352 0.960 . S
H1338 C1352 0.960 . S
H1339 C1352 0.960 . S
C1340 H1332 0.929 . S
C1340 C1341 1.369 . S
C1340 C1342 1.384 . S
C1341 C1340 1.369 . S
C1341 C1347 1.398 1_565 S
C1342 H1333 0.930 . S
C1342 C1340 1.384 . S
C1342 C1343 1.429 . S
C1343 C1342 1.429 . S
C1343 C1344 1.341 1_565 S
C1343 C1348 1.494 . S
C1344 H1334 0.930 . S
C1344 C1343 1.341 1_545 S
C1344 C1347 1.386 . S
H1345 C1361 0.930 . S
H1346 C1362 0.931 . S
C1347 H1335 0.929 . S
C1347 C1341 1.398 1_545 S
C1347 C1344 1.386 . S
C1348 C1343 1.494 . S
C1348 C1350 1.395 . S
C1348 C1351 1.403 1_565 S
H1349 C1355 0.930 . S
C1350 H1336 0.930 . S
C1350 C1348 1.395 . S
C1350 C1353 1.403 . S
C1351 C1348 1.403 1_545 S
C1351 C1352 1.524 . S
C1351 C1355 1.400 . S
C1352 H1337 0.960 . S
C1352 H1338 0.960 . S
C1352 H1339 0.960 . S
C1352 C1351 1.524 . S
C1353 C1350 1.403 . S
C1353 C1354 1.392 . S
C1353 C1357 1.495 . S
C1354 C1353 1.392 . S
C1354 C1355 1.385 1_565 S
C1354 C1356 1.478 . S
C1355 H1349 0.930 . S
C1355 C1351 1.400 . S
C1355 C1354 1.385 1_545 S
C1356 C1354 1.478 . S
C1356 C1358 1.381 . S
C1356 C1362 1.383 1_565 S
C1357 C1353 1.495 . S
C1357 H1363 0.959 . S
C1357 H1364 0.961 . S
C1357 H1365 0.960 . S
C1358 C1356 1.381 . S
C1358 C1359 1.394 . S
C1358 H1366 0.930 . S
C1359 C1358 1.394 . S
C1359 C1360 1.383 . S
C1359 H1367 0.929 . S
C1360 C1359 1.383 . S
C1360 C1361 1.377 1_565 S
C1361 H1345 0.930 . S
C1361 C1360 1.377 1_545 S
C1361 C1362 1.379 . S
C1362 H1346 0.931 . S
C1362 C1356 1.383 1_545 S
C1362 C1361 1.379 . S
H1363 C1357 0.959 . S
H1364 C1357 0.961 . S
H1365 C1357 0.960 . S
H1366 C1358 0.930 . S
H1367 C1359 0.929 . S
H1368 C1376 0.929 1_565 S
H1369 C1378 0.930 . S
H1370 C1380 0.930 . S
H1371 C1383 0.929 . S
H1372 C1386 0.930 . S
H1373 C1388 0.960 . S
H1374 C1388 0.960 . S
H1375 C1388 0.960 . S
C1376 H1368 0.929 1_545 S
C1376 C1377 1.377 . S
C1376 C1378 1.384 1_545 S
C1377 C1376 1.377 . S
C1377 C1383 1.390 . S
C1378 H1369 0.930 . S
C1378 C1376 1.384 1_565 S
C1378 C1379 1.372 1_565 S
C1379 C1378 1.372 1_545 S
C1379 C1380 1.400 . S
C1379 C1384 1.478 1_545 S
C1380 H1370 0.930 . S
C1380 C1379 1.400 . S
C1380 C1383 1.386 . S
H1381 C1397 0.930 . S
H1382 C1398 0.931 1_545 S
C1383 H1371 0.929 . S
C1383 C1377 1.390 . S
C1383 C1380 1.386 . S
C1384 C1379 1.478 1_565 S
C1384 C1386 1.349 1_565 S
C1384 C1387 1.463 . S
H1385 C1391 0.930 . S
C1386 H1372 0.930 . S
C1386 C1384 1.349 1_545 S
C1386 C1389 1.407 . S
C1387 C1384 1.463 . S
C1387 C1388 1.524 . S
C1387 C1391 1.400 . S
C1388 H1373 0.960 . S
C1388 H1374 0.960 . S
C1388 H1375 0.960 . S
C1388 C1387 1.524 . S
C1389 C1386 1.407 . S
C1389 C1390 1.372 1_545 S
C1389 C1393 1.512 . S
C1390 C1389 1.372 1_565 S
C1390 C1391 1.385 . S
C1390 C1392 1.478 . S
C1391 H1385 0.930 . S
C1391 C1387 1.400 . S
C1391 C1390 1.385 . S
C1392 C1390 1.478 . S
C1392 C1394 1.381 . S
C1392 C1398 1.383 . S
C1393 C1389 1.512 . S
C1393 H1399 0.959 . S
C1393 H1400 0.961 . S
C1393 H1401 0.960 1_545 S
C1394 C1392 1.381 . S
C1394 C1395 1.394 . S
C1394 H1402 0.930 . S
C1395 C1394 1.394 . S
C1395 C1396 1.383 . S
C1395 H1403 0.929 . S
C1396 C1395 1.383 . S
C1396 C1397 1.377 . S
C1397 H1381 0.930 . S
C1397 C1396 1.377 . S
C1397 C1398 1.379 . S
C1398 H1382 0.931 1_565 S
C1398 C1392 1.383 . S
C1398 C1397 1.379 . S
H1399 C1393 0.959 . S
H1400 C1393 0.961 . S
H1401 C1393 0.960 1_565 S
H1402 C1394 0.930 . S
H1403 C1395 0.929 . S
H1404 C1412 0.929 . S
H1405 C1414 0.930 . S
H1406 C1416 0.930 . S
H1407 C1419 0.929 . S
H1408 C1422 0.944 1_655 S
H1409 C1424 0.960 . S
H1410 C1424 0.960 . S
H1411 C1424 0.960 . S
C1412 H1404 0.929 . S
C1412 C1413 1.443 . S
C1412 C1414 1.384 . S
C1413 C1412 1.443 . S
C1413 C1419 1.331 1_455 S
C1414 H1405 0.930 . S
C1414 C1412 1.384 . S
C1414 C1415 1.372 . S
C1415 C1414 1.372 . S
C1415 C1416 1.400 1_455 S
C1415 C1420 1.490 . S
C1416 H1406 0.930 . S
C1416 C1415 1.400 1_655 S
C1416 C1419 1.386 . S
H1417 C1433 0.930 . S
H1418 C1434 0.931 . S
C1419 H1407 0.929 . S
C1419 C1413 1.331 1_655 S
C1419 C1416 1.386 . S
C1420 C1415 1.490 . S
C1420 C1422 1.380 . S
C1420 C1423 1.403 . S
H1421 C1427 0.930 . S
C1422 H1408 0.944 1_455 S
C1422 C1420 1.380 . S
C1422 C1425 1.402 . S
C1423 C1420 1.403 . S
C1423 C1424 1.524 . S
C1423 C1427 1.400 . S
C1424 H1409 0.960 . S
C1424 H1410 0.960 . S
C1424 H1411 0.960 . S
C1424 C1423 1.524 . S
C1425 C1422 1.402 . S
C1425 C1426 1.378 . S
C1425 C1429 1.523 1_455 S
C1426 C1425 1.378 . S
C1426 C1427 1.385 . S
C1426 C1428 1.478 . S
C1427 H1421 0.930 . S
C1427 C1423 1.400 . S
C1427 C1426 1.385 . S
C1428 C1426 1.478 . S
C1428 C1430 1.381 . S
C1428 C1434 1.383 1_455 S
C1429 C1425 1.523 1_655 S
C1429 H1435 0.959 . S
C1429 H1436 0.961 . S
C1429 H1437 0.960 1_655 S
C1430 C1428 1.381 . S
C1430 C1431 1.394 . S
C1430 H1438 0.930 . S
C1431 C1430 1.394 . S
C1431 C1432 1.383 . S
C1431 H1439 0.929 . S
C1432 C1431 1.383 . S
C1432 C1433 1.377 1_455 S
C1433 H1417 0.930 . S
C1433 C1432 1.377 1_655 S
C1433 C1434 1.379 . S
C1434 H1418 0.931 . S
C1434 C1428 1.383 1_655 S
C1434 C1433 1.379 . S
H1435 C1429 0.959 . S
H1436 C1429 0.961 . S
H1437 C1429 0.960 1_455 S
H1438 C1430 0.930 . S
H1439 C1431 0.929 . S
H1440 C1448 0.929 . S
H1441 C1450 0.930 . S
H1442 C1452 0.930 . S
H1443 C1455 0.929 . S
H1444 C1458 0.930 . S
H1445 C1460 0.960 . S
H1446 C1460 0.960 . S
H1447 C1460 0.960 . S
C1448 H1440 0.929 . S
C1448 C1449 1.377 . S
C1448 C1450 1.384 . S
C1449 C1448 1.377 . S
C1449 C1455 1.390 . S
C1450 H1441 0.930 . S
C1450 C1448 1.384 . S
C1450 C1451 1.372 . S
C1451 C1450 1.372 . S
C1451 C1452 1.400 . S
C1451 C1456 1.490 . S
C1452 H1442 0.930 . S
C1452 C1451 1.400 . S
C1452 C1455 1.386 . S
H1453 C1469 0.930 . S
H1454 C1470 0.931 . S
C1455 H1443 0.929 . S
C1455 C1449 1.390 . S
C1455 C1452 1.386 . S
C1456 C1451 1.490 . S
C1456 C1458 1.395 . S
C1456 C1459 1.403 . S
H1457 C1463 0.930 . S
C1458 H1444 0.930 . S
C1458 C1456 1.395 . S
C1458 C1461 1.403 . S
C1459 C1456 1.403 . S
C1459 C1460 1.524 . S
C1459 C1463 1.400 . S
C1460 H1445 0.960 . S
C1460 H1446 0.960 . S
C1460 H1447 0.960 . S
C1460 C1459 1.524 . S
C1461 C1458 1.403 . S
C1461 C1462 1.392 . S
C1461 C1465 1.495 . S
C1462 C1461 1.392 . S
C1462 C1463 1.385 . S
C1462 C1464 1.478 . S
C1463 H1457 0.930 . S
C1463 C1459 1.400 . S
C1463 C1462 1.385 . S
C1464 C1462 1.478 . S
C1464 C1466 1.381 . S
C1464 C1470 1.383 . S
C1465 C1461 1.495 . S
C1465 H1471 0.959 . S
C1465 H1472 0.961 . S
C1465 H1473 0.960 . S
C1466 C1464 1.381 . S
C1466 C1467 1.394 . S
C1466 H1474 0.930 . S
C1467 C1466 1.394 . S
C1467 C1468 1.383 . S
C1467 H1475 0.929 . S
C1468 C1467 1.383 . S
C1468 C1469 1.377 . S
C1469 H1453 0.930 . S
C1469 C1468 1.377 . S
C1469 C1470 1.379 . S
C1470 H1454 0.931 . S
C1470 C1464 1.383 . S
C1470 C1469 1.379 . S
H1471 C1465 0.959 . S
H1472 C1465 0.961 . S
H1473 C1465 0.960 . S
H1474 C1466 0.930 . S
H1475 C1467 0.929 . S
H1476 C1484 0.929 . S
H1477 C1486 0.930 . S
H1478 C1488 0.930 . S
H1479 C1491 0.929 . S
H1480 C1494 0.930 . S
H1481 C1496 0.960 . S
H1482 C1496 0.960 . S
H1483 C1496 0.960 . S
C1484 H1476 0.929 . S
C1484 C1485 1.377 . S
C1484 C1486 1.384 . S
C1485 C1484 1.377 . S
C1485 C1491 1.390 . S
C1486 H1477 0.930 . S
C1486 C1484 1.384 . S
C1486 C1487 1.372 . S
C1487 C1486 1.372 . S
C1487 C1488 1.400 . S
C1487 C1492 1.490 . S
C1488 H1478 0.930 . S
C1488 C1487 1.400 . S
C1488 C1491 1.386 . S
H1489 C1505 0.930 . S
H1490 C1506 0.931 . S
C1491 H1479 0.929 . S
C1491 C1485 1.390 . S
C1491 C1488 1.386 . S
C1492 C1487 1.490 . S
C1492 C1494 1.395 . S
C1492 C1495 1.403 . S
H1493 C1499 0.930 . S
C1494 H1480 0.930 . S
C1494 C1492 1.395 . S
C1494 C1497 1.403 . S
C1495 C1492 1.403 . S
C1495 C1496 1.524 . S
C1495 C1499 1.400 . S
C1496 H1481 0.960 . S
C1496 H1482 0.960 . S
C1496 H1483 0.960 . S
C1496 C1495 1.524 . S
C1497 C1494 1.403 . S
C1497 C1498 1.392 . S
C1497 C1501 1.495 . S
C1498 C1497 1.392 . S
C1498 C1499 1.385 . S
C1498 C1500 1.478 . S
C1499 H1493 0.930 . S
C1499 C1495 1.400 . S
C1499 C1498 1.385 . S
C1500 C1498 1.478 . S
C1500 C1502 1.381 . S
C1500 C1506 1.383 . S
C1501 C1497 1.495 . S
C1501 H1507 0.959 . S
C1501 H1508 0.961 . S
C1501 H1509 0.960 . S
C1502 C1500 1.381 . S
C1502 C1503 1.394 . S
C1502 H1510 0.930 . S
C1503 C1502 1.394 . S
C1503 C1504 1.383 . S
C1503 H1511 0.929 . S
C1504 C1503 1.383 . S
C1504 C1505 1.377 . S
C1505 H1489 0.930 . S
C1505 C1504 1.377 . S
C1505 C1506 1.379 . S
C1506 H1490 0.931 . S
C1506 C1500 1.383 . S
C1506 C1505 1.379 . S
H1507 C1501 0.959 . S
H1508 C1501 0.961 . S
H1509 C1501 0.960 . S
H1510 C1502 0.930 . S
H1511 C1503 0.929 . S
H1512 C1520 0.929 . S
H1513 C1522 0.930 . S
H1514 C1524 0.930 . S
H1515 C1527 0.929 . S
H1516 C1530 0.930 . S
H1517 C1532 0.960 . S
H1518 C1532 0.960 . S
H1519 C1532 0.960 . S
C1520 H1512 0.929 . S
C1520 C1521 1.377 . S
C1520 C1522 1.384 . S
C1521 C1520 1.377 . S
C1521 C1527 1.390 . S
C1522 H1513 0.930 . S
C1522 C1520 1.384 . S
C1522 C1523 1.372 . S
C1523 C1522 1.372 . S
C1523 C1524 1.400 . S
C1523 C1528 1.490 . S
C1524 H1514 0.930 . S
C1524 C1523 1.400 . S
C1524 C1527 1.386 . S
H1525 C1541 0.930 . S
H1526 C1542 0.931 . S
C1527 H1515 0.929 . S
C1527 C1521 1.390 . S
C1527 C1524 1.386 . S
C1528 C1523 1.490 . S
C1528 C1530 1.395 . S
C1528 C1531 1.403 . S
H1529 C1535 0.930 . S
C1530 H1516 0.930 . S
C1530 C1528 1.395 . S
C1530 C1533 1.403 . S
C1531 C1528 1.403 . S
C1531 C1532 1.524 . S
C1531 C1535 1.400 . S
C1532 H1517 0.960 . S
C1532 H1518 0.960 . S
C1532 H1519 0.960 . S
C1532 C1531 1.524 . S
C1533 C1530 1.403 . S
C1533 C1534 1.392 . S
C1533 C1537 1.495 . S
C1534 C1533 1.392 . S
C1534 C1535 1.385 . S
C1534 C1536 1.478 . S
C1535 H1529 0.930 . S
C1535 C1531 1.400 . S
C1535 C1534 1.385 . S
C1536 C1534 1.478 . S
C1536 C1538 1.381 . S
C1536 C1542 1.383 . S
C1537 C1533 1.495 . S
C1537 H1543 0.959 . S
C1537 H1544 0.961 . S
C1537 H1545 0.960 . S
C1538 C1536 1.381 . S
C1538 C1539 1.394 . S
C1538 H1546 0.930 . S
C1539 C1538 1.394 . S
C1539 C1540 1.383 . S
C1539 H1547 0.929 . S
C1540 C1539 1.383 . S
C1540 C1541 1.377 . S
C1541 H1525 0.930 . S
C1541 C1540 1.377 . S
C1541 C1542 1.379 . S
C1542 H1526 0.931 . S
C1542 C1536 1.383 . S
C1542 C1541 1.379 . S
H1543 C1537 0.959 . S
H1544 C1537 0.961 . S
H1545 C1537 0.960 . S
H1546 C1538 0.930 . S
H1547 C1539 0.929 . S
H1548 C1556 0.929 . S
H1549 C1558 0.930 . S
H1550 C1560 0.930 . S
H1551 C1563 0.929 . S
H1552 C1566 0.930 . S
H1553 C1568 0.960 . S
H1554 C1568 0.960 . S
H1555 C1568 0.960 . S
C1556 H1548 0.929 . S
C1556 C1557 1.377 . S
C1556 C1558 1.384 . S
C1557 C1556 1.377 . S
C1557 C1563 1.390 . S
C1558 H1549 0.930 . S
C1558 C1556 1.384 . S
C1558 C1559 1.372 . S
C1559 C1558 1.372 . S
C1559 C1560 1.400 . S
C1559 C1564 1.490 . S
C1560 H1550 0.930 . S
C1560 C1559 1.400 . S
C1560 C1563 1.386 . S
H1561 C1577 0.930 . S
H1562 C1578 0.931 . S
C1563 H1551 0.929 . S
C1563 C1557 1.390 . S
C1563 C1560 1.386 . S
C1564 C1559 1.490 . S
C1564 C1566 1.395 . S
C1564 C1567 1.403 . S
H1565 C1571 0.930 . S
C1566 H1552 0.930 . S
C1566 C1564 1.395 . S
C1566 C1569 1.403 . S
C1567 C1564 1.403 . S
C1567 C1568 1.524 . S
C1567 C1571 1.400 . S
C1568 H1553 0.960 . S
C1568 H1554 0.960 . S
C1568 H1555 0.960 . S
C1568 C1567 1.524 . S
C1569 C1566 1.403 . S
C1569 C1570 1.392 . S
C1569 C1573 1.495 . S
C1570 C1569 1.392 . S
C1570 C1571 1.385 . S
C1570 C1572 1.478 . S
C1571 H1565 0.930 . S
C1571 C1567 1.400 . S
C1571 C1570 1.385 . S
C1572 C1570 1.478 . S
C1572 C1574 1.381 . S
C1572 C1578 1.383 . S
C1573 C1569 1.495 . S
C1573 H1579 0.959 . S
C1573 H1580 0.961 . S
C1573 H1581 0.960 . S
C1574 C1572 1.381 . S
C1574 C1575 1.394 . S
C1574 H1582 0.930 . S
C1575 C1574 1.394 . S
C1575 C1576 1.383 . S
C1575 H1583 0.929 . S
C1576 C1575 1.383 . S
C1576 C1577 1.377 . S
C1577 H1561 0.930 . S
C1577 C1576 1.377 . S
C1577 C1578 1.379 . S
C1578 H1562 0.931 . S
C1578 C1572 1.383 . S
C1578 C1577 1.379 . S
H1579 C1573 0.959 . S
H1580 C1573 0.961 . S
H1581 C1573 0.960 . S
H1582 C1574 0.930 . S
H1583 C1575 0.929 . S
H1584 C1592 0.929 . S
H1585 C1594 0.930 . S
H1586 C1596 0.930 . S
H1587 C1599 0.929 . S
H1588 C1602 0.930 . S
H1589 C1604 0.960 . S
H1590 C1604 0.960 . S
H1591 C1604 0.960 . S
C1592 H1584 0.929 . S
C1592 C1593 1.377 . S
C1592 C1594 1.384 . S
C1593 C1592 1.377 . S
C1593 C1599 1.390 . S
C1594 H1585 0.930 . S
C1594 C1592 1.384 . S
C1594 C1595 1.372 . S
C1595 C1594 1.372 . S
C1595 C1596 1.400 . S
C1595 C1600 1.490 . S
C1596 H1586 0.930 . S
C1596 C1595 1.400 . S
C1596 C1599 1.386 . S
H1597 C1613 0.930 . S
H1598 C1614 0.931 . S
C1599 H1587 0.929 . S
C1599 C1593 1.390 . S
C1599 C1596 1.386 . S
C1600 C1595 1.490 . S
C1600 C1602 1.395 . S
C1600 C1603 1.403 . S
H1601 C1607 0.930 . S
C1602 H1588 0.930 . S
C1602 C1600 1.395 . S
C1602 C1605 1.403 . S
C1603 C1600 1.403 . S
C1603 C1604 1.524 . S
C1603 C1607 1.400 . S
C1604 H1589 0.960 . S
C1604 H1590 0.960 . S
C1604 H1591 0.960 . S
C1604 C1603 1.524 . S
C1605 C1602 1.403 . S
C1605 C1606 1.392 . S
C1605 C1609 1.495 . S
C1606 C1605 1.392 . S
C1606 C1607 1.385 . S
C1606 C1608 1.478 . S
C1607 H1601 0.930 . S
C1607 C1603 1.400 . S
C1607 C1606 1.385 . S
C1608 C1606 1.478 . S
C1608 C1610 1.381 . S
C1608 C1614 1.383 . S
C1609 C1605 1.495 . S
C1609 H1615 0.959 . S
C1609 H1616 0.961 . S
C1609 H1617 0.960 . S
C1610 C1608 1.381 . S
C1610 C1611 1.394 . S
C1610 H1618 0.930 . S
C1611 C1610 1.394 . S
C1611 C1612 1.383 . S
C1611 H1619 0.929 . S
C1612 C1611 1.383 . S
C1612 C1613 1.377 . S
C1613 H1597 0.930 . S
C1613 C1612 1.377 . S
C1613 C1614 1.379 . S
C1614 H1598 0.931 . S
C1614 C1608 1.383 . S
C1614 C1613 1.379 . S
H1615 C1609 0.959 . S
H1616 C1609 0.961 . S
H1617 C1609 0.960 . S
H1618 C1610 0.930 . S
H1619 C1611 0.929 . S
H1620 C1628 0.929 . S
H1621 C1630 0.930 . S
H1622 C1632 0.930 . S
H1623 C1635 0.929 . S
H1624 C1638 0.930 . S
H1625 C1640 0.960 . S
H1626 C1640 0.960 . S
H1627 C1640 0.960 . S
C1628 H1620 0.929 . S
C1628 C1629 1.377 . S
C1628 C1630 1.384 . S
C1629 C1628 1.377 . S
C1629 C1635 1.390 . S
C1630 H1621 0.930 . S
C1630 C1628 1.384 . S
C1630 C1631 1.372 . S
C1631 C1630 1.372 . S
C1631 C1632 1.400 . S
C1631 C1636 1.490 . S
C1632 H1622 0.930 . S
C1632 C1631 1.400 . S
C1632 C1635 1.386 . S
H1633 C1649 0.930 . S
H1634 C1650 0.931 . S
C1635 H1623 0.929 . S
C1635 C1629 1.390 . S
C1635 C1632 1.386 . S
C1636 C1631 1.490 . S
C1636 C1638 1.395 . S
C1636 C1639 1.403 . S
H1637 C1643 0.930 . S
C1638 H1624 0.930 . S
C1638 C1636 1.395 . S
C1638 C1641 1.403 . S
C1639 C1636 1.403 . S
C1639 C1640 1.524 . S
C1639 C1643 1.400 . S
C1640 H1625 0.960 . S
C1640 H1626 0.960 . S
C1640 H1627 0.960 . S
C1640 C1639 1.524 . S
C1641 C1638 1.403 . S
C1641 C1642 1.392 . S
C1641 C1645 1.495 . S
C1642 C1641 1.392 . S
C1642 C1643 1.385 . S
C1642 C1644 1.478 . S
C1643 H1637 0.930 . S
C1643 C1639 1.400 . S
C1643 C1642 1.385 . S
C1644 C1642 1.478 . S
C1644 C1646 1.381 . S
C1644 C1650 1.383 . S
C1645 C1641 1.495 . S
C1645 H1651 0.959 . S
C1645 H1652 0.961 . S
C1645 H1653 0.960 . S
C1646 C1644 1.381 . S
C1646 C1647 1.394 . S
C1646 H1654 0.930 . S
C1647 C1646 1.394 . S
C1647 C1648 1.383 . S
C1647 H1655 0.929 . S
C1648 C1647 1.383 . S
C1648 C1649 1.377 . S
C1649 H1633 0.930 . S
C1649 C1648 1.377 . S
C1649 C1650 1.379 . S
C1650 H1634 0.931 . S
C1650 C1644 1.383 . S
C1650 C1649 1.379 . S
H1651 C1645 0.959 . S
H1652 C1645 0.961 . S
H1653 C1645 0.960 . S
H1654 C1646 0.930 . S
H1655 C1647 0.929 . S
H1656 C1664 0.929 . S
H1657 C1666 0.930 . S
H1658 C1668 0.930 . S
H1659 C1671 0.929 . S
H1660 C1674 0.930 . S
H1661 C1676 0.960 . S
H1662 C1676 0.960 . S
H1663 C1676 0.960 . S
C1664 H1656 0.929 . S
C1664 C1665 1.377 . S
C1664 C1666 1.384 . S
C1665 C1664 1.377 . S
C1665 C1671 1.390 . S
C1666 H1657 0.930 . S
C1666 C1664 1.384 . S
C1666 C1667 1.372 . S
C1667 C1666 1.372 . S
C1667 C1668 1.400 . S
C1667 C1672 1.490 . S
C1668 H1658 0.930 . S
C1668 C1667 1.400 . S
C1668 C1671 1.386 . S
H1669 C1685 0.930 . S
H1670 C1686 0.931 . S
C1671 H1659 0.929 . S
C1671 C1665 1.390 . S
C1671 C1668 1.386 . S
C1672 C1667 1.490 . S
C1672 C1674 1.395 . S
C1672 C1675 1.403 . S
H1673 C1679 0.930 . S
C1674 H1660 0.930 . S
C1674 C1672 1.395 . S
C1674 C1677 1.403 . S
C1675 C1672 1.403 . S
C1675 C1676 1.524 . S
C1675 C1679 1.400 . S
C1676 H1661 0.960 . S
C1676 H1662 0.960 . S
C1676 H1663 0.960 . S
C1676 C1675 1.524 . S
C1677 C1674 1.403 . S
C1677 C1678 1.392 . S
C1677 C1681 1.495 . S
C1678 C1677 1.392 . S
C1678 C1679 1.385 . S
C1678 C1680 1.478 . S
C1679 H1673 0.930 . S
C1679 C1675 1.400 . S
C1679 C1678 1.385 . S
C1680 C1678 1.478 . S
C1680 C1682 1.381 . S
C1680 C1686 1.383 . S
C1681 C1677 1.495 . S
C1681 H1687 0.959 . S
C1681 H1688 0.961 . S
C1681 H1689 0.960 . S
C1682 C1680 1.381 . S
C1682 C1683 1.394 . S
C1682 H1690 0.930 . S
C1683 C1682 1.394 . S
C1683 C1684 1.383 . S
C1683 H1691 0.929 . S
C1684 C1683 1.383 . S
C1684 C1685 1.377 . S
C1685 H1669 0.930 . S
C1685 C1684 1.377 . S
C1685 C1686 1.379 . S
C1686 H1670 0.931 . S
C1686 C1680 1.383 . S
C1686 C1685 1.379 . S
H1687 C1681 0.959 . S
H1688 C1681 0.961 . S
H1689 C1681 0.960 . S
H1690 C1682 0.930 . S
H1691 C1683 0.929 . S
H1692 C1700 0.929 . S
H1693 C1702 0.930 . S
H1694 C1704 0.930 . S
H1695 C1707 0.929 . S
H1696 C1710 0.930 . S
H1697 C1712 0.960 . S
H1698 C1712 0.960 . S
H1699 C1712 0.960 . S
C1700 H1692 0.929 . S
C1700 C1701 1.377 . S
C1700 C1702 1.384 . S
C1701 C1700 1.377 . S
C1701 C1707 1.390 . S
C1702 H1693 0.930 . S
C1702 C1700 1.384 . S
C1702 C1703 1.372 . S
C1703 C1702 1.372 . S
C1703 C1704 1.400 . S
C1703 C1708 1.490 . S
C1704 H1694 0.930 . S
C1704 C1703 1.400 . S
C1704 C1707 1.386 . S
H1705 C1721 0.930 . S
H1706 C1722 0.931 . S
C1707 H1695 0.929 . S
C1707 C1701 1.390 . S
C1707 C1704 1.386 . S
C1708 C1703 1.490 . S
C1708 C1710 1.395 . S
C1708 C1711 1.403 . S
H1709 C1715 0.930 . S
C1710 H1696 0.930 . S
C1710 C1708 1.395 . S
C1710 C1713 1.403 . S
C1711 C1708 1.403 . S
C1711 C1712 1.524 . S
C1711 C1715 1.400 . S
C1712 H1697 0.960 . S
C1712 H1698 0.960 . S
C1712 H1699 0.960 . S
C1712 C1711 1.524 . S
C1713 C1710 1.403 . S
C1713 C1714 1.392 . S
C1713 C1717 1.495 . S
C1714 C1713 1.392 . S
C1714 C1715 1.385 . S
C1714 C1716 1.478 . S
C1715 H1709 0.930 . S
C1715 C1711 1.400 . S
C1715 C1714 1.385 . S
C1716 C1714 1.478 . S
C1716 C1718 1.381 . S
C1716 C1722 1.383 . S
C1717 C1713 1.495 . S
C1717 H1723 0.959 . S
C1717 H1724 0.961 . S
C1717 H1725 0.960 . S
C1718 C1716 1.381 . S
C1718 C1719 1.394 . S
C1718 H1726 0.930 . S
C1719 C1718 1.394 . S
C1719 C1720 1.383 . S
C1719 H1727 0.929 . S
C1720 C1719 1.383 . S
C1720 C1721 1.377 . S
C1721 H1705 0.930 . S
C1721 C1720 1.377 . S
C1721 C1722 1.379 . S
C1722 H1706 0.931 . S
C1722 C1716 1.383 . S
C1722 C1721 1.379 . S
H1723 C1717 0.959 . S
H1724 C1717 0.961 . S
H1725 C1717 0.960 . S
H1726 C1718 0.930 . S
H1727 C1719 0.929 . S
H1728 C1736 0.929 . S
H1729 C1738 0.930 . S
H1730 C1740 0.930 . S
H1731 C1743 0.929 . S
H1732 C1746 0.930 . S
H1733 C1748 0.960 . S
H1734 C1748 0.960 . S
H1735 C1748 0.960 . S
C1736 H1728 0.929 . S
C1736 C1737 1.377 . S
C1736 C1738 1.384 . S
C1737 C1736 1.377 . S
C1737 C1743 1.390 . S
C1738 H1729 0.930 . S
C1738 C1736 1.384 . S
C1738 C1739 1.372 . S
C1739 C1738 1.372 . S
C1739 C1740 1.400 . S
C1739 C1744 1.490 . S
C1740 H1730 0.930 . S
C1740 C1739 1.400 . S
C1740 C1743 1.386 . S
H1741 C1757 0.930 . S
H1742 C1758 0.931 . S
C1743 H1731 0.929 . S
C1743 C1737 1.390 . S
C1743 C1740 1.386 . S
C1744 C1739 1.490 . S
C1744 C1746 1.395 . S
C1744 C1747 1.403 . S
H1745 C1751 0.930 . S
C1746 H1732 0.930 . S
C1746 C1744 1.395 . S
C1746 C1749 1.403 . S
C1747 C1744 1.403 . S
C1747 C1748 1.524 . S
C1747 C1751 1.400 . S
C1748 H1733 0.960 . S
C1748 H1734 0.960 . S
C1748 H1735 0.960 . S
C1748 C1747 1.524 . S
C1749 C1746 1.403 . S
C1749 C1750 1.392 . S
C1749 C1753 1.495 . S
C1750 C1749 1.392 . S
C1750 C1751 1.385 . S
C1750 C1752 1.478 . S
C1751 H1745 0.930 . S
C1751 C1747 1.400 . S
C1751 C1750 1.385 . S
C1752 C1750 1.478 . S
C1752 C1754 1.381 . S
C1752 C1758 1.383 . S
C1753 C1749 1.495 . S
C1753 H1759 0.959 . S
C1753 H1760 0.961 . S
C1753 H1761 0.960 . S
C1754 C1752 1.381 . S
C1754 C1755 1.394 . S
C1754 H1762 0.930 . S
C1755 C1754 1.394 . S
C1755 C1756 1.383 . S
C1755 H1763 0.929 . S
C1756 C1755 1.383 . S
C1756 C1757 1.377 . S
C1757 H1741 0.930 . S
C1757 C1756 1.377 . S
C1757 C1758 1.379 . S
C1758 H1742 0.931 . S
C1758 C1752 1.383 . S
C1758 C1757 1.379 . S
H1759 C1753 0.959 . S
H1760 C1753 0.961 . S
H1761 C1753 0.960 . S
H1762 C1754 0.930 . S
H1763 C1755 0.929 . S
H1764 C1772 0.929 . S
H1765 C1774 0.930 . S
H1766 C1776 0.930 . S
H1767 C1779 0.929 . S
H1768 C1782 0.930 . S
H1769 C1784 0.960 . S
H1770 C1784 0.960 . S
H1771 C1784 0.960 . S
C1772 H1764 0.929 . S
C1772 C1773 1.377 . S
C1772 C1774 1.384 . S
C1773 C1772 1.377 . S
C1773 C1779 1.390 . S
C1774 H1765 0.930 . S
C1774 C1772 1.384 . S
C1774 C1775 1.372 . S
C1775 C1774 1.372 . S
C1775 C1776 1.400 . S
C1775 C1780 1.490 . S
C1776 H1766 0.930 . S
C1776 C1775 1.400 . S
C1776 C1779 1.386 . S
H1777 C1793 0.930 . S
H1778 C1794 0.931 . S
C1779 H1767 0.929 . S
C1779 C1773 1.390 . S
C1779 C1776 1.386 . S
C1780 C1775 1.490 . S
C1780 C1782 1.395 . S
C1780 C1783 1.403 . S
H1781 C1787 0.930 . S
C1782 H1768 0.930 . S
C1782 C1780 1.395 . S
C1782 C1785 1.403 . S
C1783 C1780 1.403 . S
C1783 C1784 1.524 . S
C1783 C1787 1.400 . S
C1784 H1769 0.960 . S
C1784 H1770 0.960 . S
C1784 H1771 0.960 . S
C1784 C1783 1.524 . S
C1785 C1782 1.403 . S
C1785 C1786 1.392 . S
C1785 C1789 1.495 . S
C1786 C1785 1.392 . S
C1786 C1787 1.385 . S
C1786 C1788 1.478 . S
C1787 H1781 0.930 . S
C1787 C1783 1.400 . S
C1787 C1786 1.385 . S
C1788 C1786 1.478 . S
C1788 C1790 1.381 . S
C1788 C1794 1.383 . S
C1789 C1785 1.495 . S
C1789 H1795 0.959 . S
C1789 H1796 0.961 . S
C1789 H1797 0.960 . S
C1790 C1788 1.381 . S
C1790 C1791 1.394 . S
C1790 H1798 0.930 . S
C1791 C1790 1.394 . S
C1791 C1792 1.383 . S
C1791 H1799 0.929 . S
C1792 C1791 1.383 . S
C1792 C1793 1.377 . S
C1793 H1777 0.930 . S
C1793 C1792 1.377 . S
C1793 C1794 1.379 . S
C1794 H1778 0.931 . S
C1794 C1788 1.383 . S
C1794 C1793 1.379 . S
H1795 C1789 0.959 . S
H1796 C1789 0.961 . S
H1797 C1789 0.960 . S
H1798 C1790 0.930 . S
H1799 C1791 0.929 . S
H1800 C1808 0.929 . S
H1801 C1810 0.930 . S
H1802 C1812 0.930 . S
H1803 C1815 0.929 . S
H1804 C1818 0.930 . S
H1805 C1820 0.960 . S
H1806 C1820 0.960 . S
H1807 C1820 0.960 . S
C1808 H1800 0.929 . S
C1808 C1809 1.377 . S
C1808 C1810 1.384 . S
C1809 C1808 1.377 . S
C1809 C1815 1.390 . S
C1810 H1801 0.930 . S
C1810 C1808 1.384 . S
C1810 C1811 1.372 . S
C1811 C1810 1.372 . S
C1811 C1812 1.400 . S
C1811 C1816 1.490 . S
C1812 H1802 0.930 . S
C1812 C1811 1.400 . S
C1812 C1815 1.386 . S
H1813 C1829 0.930 . S
H1814 C1830 0.931 . S
C1815 H1803 0.929 . S
C1815 C1809 1.390 . S
C1815 C1812 1.386 . S
C1816 C1811 1.490 . S
C1816 C1818 1.395 . S
C1816 C1819 1.403 . S
H1817 C1823 0.930 . S
C1818 H1804 0.930 . S
C1818 C1816 1.395 . S
C1818 C1821 1.403 . S
C1819 C1816 1.403 . S
C1819 C1820 1.524 . S
C1819 C1823 1.400 . S
C1820 H1805 0.960 . S
C1820 H1806 0.960 . S
C1820 H1807 0.960 . S
C1820 C1819 1.524 . S
C1821 C1818 1.403 . S
C1821 C1822 1.392 . S
C1821 C1825 1.495 . S
C1822 C1821 1.392 . S
C1822 C1823 1.385 . S
C1822 C1824 1.478 . S
C1823 H1817 0.930 . S
C1823 C1819 1.400 . S
C1823 C1822 1.385 . S
C1824 C1822 1.478 . S
C1824 C1826 1.381 . S
C1824 C1830 1.383 . S
C1825 C1821 1.495 . S
C1825 H1831 0.959 . S
C1825 H1832 0.961 . S
C1825 H1833 0.960 . S
C1826 C1824 1.381 . S
C1826 C1827 1.394 . S
C1826 H1834 0.930 . S
C1827 C1826 1.394 . S
C1827 C1828 1.383 . S
C1827 H1835 0.929 . S
C1828 C1827 1.383 . S
C1828 C1829 1.377 . S
C1829 H1813 0.930 . S
C1829 C1828 1.377 . S
C1829 C1830 1.379 . S
C1830 H1814 0.931 . S
C1830 C1824 1.383 . S
C1830 C1829 1.379 . S
H1831 C1825 0.959 . S
H1832 C1825 0.961 . S
H1833 C1825 0.960 . S
H1834 C1826 0.930 . S
H1835 C1827 0.929 . S
H1836 C1844 0.929 . S
H1837 C1846 0.930 . S
H1838 C1848 0.930 . S
H1839 C1851 0.929 . S
H1840 C1854 0.930 . S
H1841 C1856 0.960 . S
H1842 C1856 0.960 . S
H1843 C1856 0.960 . S
C1844 H1836 0.929 . S
C1844 C1845 1.377 . S
C1844 C1846 1.384 . S
C1845 C1844 1.377 . S
C1845 C1851 1.390 . S
C1846 H1837 0.930 . S
C1846 C1844 1.384 . S
C1846 C1847 1.372 . S
C1847 C1846 1.372 . S
C1847 C1848 1.400 . S
C1847 C1852 1.490 . S
C1848 H1838 0.930 . S
C1848 C1847 1.400 . S
C1848 C1851 1.386 . S
H1849 C1865 0.930 . S
H1850 C1866 0.931 . S
C1851 H1839 0.929 . S
C1851 C1845 1.390 . S
C1851 C1848 1.386 . S
C1852 C1847 1.490 . S
C1852 C1854 1.395 . S
C1852 C1855 1.403 . S
H1853 C1859 0.930 . S
C1854 H1840 0.930 . S
C1854 C1852 1.395 . S
C1854 C1857 1.403 . S
C1855 C1852 1.403 . S
C1855 C1856 1.524 . S
C1855 C1859 1.400 . S
C1856 H1841 0.960 . S
C1856 H1842 0.960 . S
C1856 H1843 0.960 . S
C1856 C1855 1.524 . S
C1857 C1854 1.403 . S
C1857 C1858 1.392 . S
C1857 C1861 1.495 . S
C1858 C1857 1.392 . S
C1858 C1859 1.385 . S
C1858 C1860 1.478 . S
C1859 H1853 0.930 . S
C1859 C1855 1.400 . S
C1859 C1858 1.385 . S
C1860 C1858 1.478 . S
C1860 C1862 1.381 . S
C1860 C1866 1.383 . S
C1861 C1857 1.495 . S
C1861 H1867 0.959 . S
C1861 H1868 0.961 . S
C1861 H1869 0.960 . S
C1862 C1860 1.381 . S
C1862 C1863 1.394 . S
C1862 H1870 0.930 . S
C1863 C1862 1.394 . S
C1863 C1864 1.383 . S
C1863 H1871 0.929 . S
C1864 C1863 1.383 . S
C1864 C1865 1.377 . S
C1865 H1849 0.930 . S
C1865 C1864 1.377 . S
C1865 C1866 1.379 . S
C1866 H1850 0.931 . S
C1866 C1860 1.383 . S
C1866 C1865 1.379 . S
H1867 C1861 0.959 . S
H1868 C1861 0.961 . S
H1869 C1861 0.960 . S
H1870 C1862 0.930 . S
H1871 C1863 0.929 . S
H1872 C1880 0.929 . S
H1873 C1882 0.930 . S
H1874 C1884 0.930 . S
H1875 C1887 0.929 . S
H1876 C1890 0.930 . S
H1877 C1892 0.960 . S
H1878 C1892 0.960 . S
H1879 C1892 0.960 . S
C1880 H1872 0.929 . S
C1880 C1881 1.377 . S
C1880 C1882 1.384 . S
C1881 C1880 1.377 . S
C1881 C1887 1.390 . S
C1882 H1873 0.930 . S
C1882 C1880 1.384 . S
C1882 C1883 1.372 . S
C1883 C1882 1.372 . S
C1883 C1884 1.400 . S
C1883 C1888 1.490 . S
C1884 H1874 0.930 . S
C1884 C1883 1.400 . S
C1884 C1887 1.386 . S
H1885 C1901 0.930 . S
H1886 C1902 0.931 . S
C1887 H1875 0.929 . S
C1887 C1881 1.390 . S
C1887 C1884 1.386 . S
C1888 C1883 1.490 . S
C1888 C1890 1.395 . S
C1888 C1891 1.403 . S
H1889 C1895 0.930 . S
C1890 H1876 0.930 . S
C1890 C1888 1.395 . S
C1890 C1893 1.403 . S
C1891 C1888 1.403 . S
C1891 C1892 1.524 . S
C1891 C1895 1.400 . S
C1892 H1877 0.960 . S
C1892 H1878 0.960 . S
C1892 H1879 0.960 . S
C1892 C1891 1.524 . S
C1893 C1890 1.403 . S
C1893 C1894 1.392 . S
C1893 C1897 1.495 . S
C1894 C1893 1.392 . S
C1894 C1895 1.385 . S
C1894 C1896 1.478 . S
C1895 H1889 0.930 . S
C1895 C1891 1.400 . S
C1895 C1894 1.385 . S
C1896 C1894 1.478 . S
C1896 C1898 1.381 . S
C1896 C1902 1.383 . S
C1897 C1893 1.495 . S
C1897 H1903 0.959 . S
C1897 H1904 0.961 . S
C1897 H1905 0.960 . S
C1898 C1896 1.381 . S
C1898 C1899 1.394 . S
C1898 H1906 0.930 . S
C1899 C1898 1.394 . S
C1899 C1900 1.383 . S
C1899 H1907 0.929 . S
C1900 C1899 1.383 . S
C1900 C1901 1.377 . S
C1901 H1885 0.930 . S
C1901 C1900 1.377 . S
C1901 C1902 1.379 . S
C1902 H1886 0.931 . S
C1902 C1896 1.383 . S
C1902 C1901 1.379 . S
H1903 C1897 0.959 . S
H1904 C1897 0.961 . S
H1905 C1897 0.960 . S
H1906 C1898 0.930 . S
H1907 C1899 0.929 . S
H1908 C1916 0.929 . S
H1909 C1918 0.930 . S
H1910 C1920 0.930 . S
H1911 C1923 0.929 . S
H1912 C1926 0.930 . S
H1913 C1928 0.960 . S
H1914 C1928 0.960 . S
H1915 C1928 0.960 . S
C1916 H1908 0.929 . S
C1916 C1917 1.377 . S
C1916 C1918 1.384 . S
C1917 C1916 1.377 . S
C1917 C1923 1.390 1_455 S
C1918 H1909 0.930 . S
C1918 C1916 1.384 . S
C1918 C1919 1.372 . S
C1919 C1918 1.372 . S
C1919 C1920 1.400 1_455 S
C1919 C1924 1.490 . S
C1920 H1910 0.930 . S
C1920 C1919 1.400 1_655 S
C1920 C1923 1.386 . S
H1921 C1937 0.931 . S
H1922 C1938 0.938 . S
C1923 H1911 0.929 . S
C1923 C1917 1.390 1_655 S
C1923 C1920 1.386 . S
C1924 C1919 1.490 . S
C1924 C1926 1.395 . S
C1924 C1927 1.403 1_455 S
H1925 C1931 0.930 . S
C1926 H1912 0.930 . S
C1926 C1924 1.395 . S
C1926 C1929 1.403 . S
C1927 C1924 1.403 1_655 S
C1927 C1928 1.524 . S
C1927 C1931 1.400 . S
C1928 H1913 0.960 . S
C1928 H1914 0.960 . S
C1928 H1915 0.960 . S
C1928 C1927 1.524 . S
C1929 C1926 1.403 . S
C1929 C1930 1.392 . S
C1929 C1933 1.495 . S
C1930 C1929 1.392 . S
C1930 C1931 1.385 1_455 S
C1930 C1932 1.478 . S
C1931 H1925 0.930 . S
C1931 C1927 1.400 . S
C1931 C1930 1.385 1_655 S
C1932 C1930 1.478 . S
C1932 C1934 1.381 . S
C1932 C1938 1.383 . S
C1933 C1929 1.495 . S
C1933 H1939 0.959 . S
C1933 H1940 0.961 . S
C1933 H1941 0.960 . S
C1934 C1932 1.381 . S
C1934 C1935 1.394 . S
C1934 H1942 0.930 . S
C1935 C1934 1.394 . S
C1935 C1936 1.383 . S
C1935 H1943 0.929 . S
C1936 C1935 1.383 . S
C1936 C1937 1.377 . S
C1937 H1921 0.931 . S
C1937 C1936 1.377 . S
C1937 C1938 1.379 . S
C1938 H1922 0.938 . S
C1938 C1932 1.383 . S
C1938 C1937 1.379 . S
H1939 C1933 0.959 . S
H1940 C1933 0.961 . S
H1941 C1933 0.960 . S
H1942 C1934 0.930 . S
H1943 C1935 0.929 . S
H1944 C1952 0.929 . S
H1945 C1954 0.930 . S
H1946 C1956 0.930 . S
H1947 C1959 0.929 . S
H1948 C1962 0.930 . S
H1949 C1964 0.960 . S
H1950 C1964 0.960 . S
H1951 C1964 0.960 . S
C1952 H1944 0.929 . S
C1952 C1953 1.377 . S
C1952 C1954 1.384 . S
C1953 C1952 1.377 . S
C1953 C1959 1.390 . S
C1954 H1945 0.930 . S
C1954 C1952 1.384 . S
C1954 C1955 1.372 . S
C1955 C1954 1.372 . S
C1955 C1956 1.400 . S
C1955 C1960 1.490 . S
C1956 H1946 0.930 . S
C1956 C1955 1.400 . S
C1956 C1959 1.386 . S
H1957 C1973 0.930 . S
H1958 C1974 0.931 . S
C1959 H1947 0.929 . S
C1959 C1953 1.390 . S
C1959 C1956 1.386 . S
C1960 C1955 1.490 . S
C1960 C1962 1.395 . S
C1960 C1963 1.403 . S
H1961 C1967 0.930 . S
C1962 H1948 0.930 . S
C1962 C1960 1.395 . S
C1962 C1965 1.403 . S
C1963 C1960 1.403 . S
C1963 C1964 1.524 . S
C1963 C1967 1.400 . S
C1964 H1949 0.960 . S
C1964 H1950 0.960 . S
C1964 H1951 0.960 . S
C1964 C1963 1.524 . S
C1965 C1962 1.403 . S
C1965 C1966 1.392 . S
C1965 C1969 1.495 . S
C1966 C1965 1.392 . S
C1966 C1967 1.385 . S
C1966 C1968 1.478 . S
C1967 H1961 0.930 . S
C1967 C1963 1.400 . S
C1967 C1966 1.385 . S
C1968 C1966 1.478 . S
C1968 C1970 1.381 . S
C1968 C1974 1.383 . S
C1969 C1965 1.495 . S
C1969 H1975 0.959 . S
C1969 H1976 0.961 . S
C1969 H1977 0.960 . S
C1970 C1968 1.381 . S
C1970 C1971 1.394 . S
C1970 H1978 0.930 . S
C1971 C1970 1.394 . S
C1971 C1972 1.383 . S
C1971 H1979 0.929 . S
C1972 C1971 1.383 . S
C1972 C1973 1.377 . S
C1973 H1957 0.930 . S
C1973 C1972 1.377 . S
C1973 C1974 1.379 . S
C1974 H1958 0.931 . S
C1974 C1968 1.383 . S
C1974 C1973 1.379 . S
H1975 C1969 0.959 . S
H1976 C1969 0.961 . S
H1977 C1969 0.960 . S
H1978 C1970 0.930 . S
H1979 C1971 0.929 . S
H1980 C1988 0.929 . S
H1981 C1990 0.930 . S
H1982 C1992 0.930 . S
H1983 C1995 0.929 . S
H1984 C1998 0.930 . S
H1985 C2000 0.960 . S
H1986 C2000 0.960 . S
H1987 C2000 0.960 . S
C1988 H1980 0.929 . S
C1988 C1989 1.377 . S
C1988 C1990 1.384 . S
C1989 C1988 1.377 . S
C1989 C1995 1.390 . S
C1990 H1981 0.930 . S
C1990 C1988 1.384 . S
C1990 C1991 1.372 . S
C1991 C1990 1.372 . S
C1991 C1992 1.400 . S
C1991 C1996 1.490 . S
C1992 H1982 0.930 . S
C1992 C1991 1.400 . S
C1992 C1995 1.386 . S
H1993 C2009 0.928 . S
H1994 C2010 0.919 1_565 S
C1995 H1983 0.929 . S
C1995 C1989 1.390 . S
C1995 C1992 1.386 . S
C1996 C1991 1.490 . S
C1996 C1998 1.395 1_545 S
C1996 C1999 1.403 . S
H1997 C2003 0.930 . S
C1998 H1984 0.930 . S
C1998 C1996 1.395 1_565 S
C1998 C2001 1.403 . S
C1999 C1996 1.403 . S
C1999 C2000 1.524 . S
C1999 C2003 1.400 . S
C2000 H1985 0.960 . S
C2000 H1986 0.960 . S
C2000 H1987 0.960 . S
C2000 C1999 1.524 . S
C2001 C1998 1.403 . S
C2001 C2002 1.392 1_565 S
C2001 C2005 1.495 . S
C2002 C2001 1.392 1_545 S
C2002 C2003 1.385 . S
C2002 C2004 1.478 . S
C2003 H1997 0.930 . S
C2003 C1999 1.400 . S
C2003 C2002 1.385 . S
C2004 C2002 1.478 . S
C2004 C2006 1.381 . S
C2004 C2010 1.383 . S
C2005 C2001 1.495 . S
C2005 H2011 0.959 . S
C2005 H2012 0.961 . S
C2005 H2013 0.960 . S
C2006 C2004 1.381 . S
C2006 C2007 1.394 . S
C2006 H2014 0.930 . S
C2007 C2006 1.394 . S
C2007 C2008 1.383 . S
C2007 H2015 0.929 . S
C2008 C2007 1.383 . S
C2008 C2009 1.377 . S
C2009 H1993 0.928 . S
C2009 C2008 1.377 . S
C2009 C2010 1.379 . S
C2010 H1994 0.919 1_545 S
C2010 C2004 1.383 . S
C2010 C2009 1.379 . S
H2011 C2005 0.959 . S
H2012 C2005 0.961 . S
H2013 C2005 0.960 . S
H2014 C2006 0.930 . S
H2015 C2007 0.929 . S
H2016 C2024 0.929 . S
H2017 C2026 0.930 . S
H2018 C2028 0.935 . S
H2019 C2031 0.929 1_545 S
H2020 C2034 1.003 . S
H2021 C2036 0.960 . S
H2022 C2036 0.960 . S
H2023 C2036 0.960 . S
C2024 H2016 0.929 . S
C2024 C2025 1.377 . S
C2024 C2026 1.384 . S
C2025 C2024 1.377 . S
C2025 C2031 1.390 1_556 S
C2026 H2017 0.930 . S
C2026 C2024 1.384 . S
C2026 C2027 1.372 . S
C2027 C2026 1.372 . S
C2027 C2028 1.400 1_556 S
C2027 C2032 1.490 . S
C2028 H2018 0.935 . S
C2028 C2027 1.400 1_554 S
C2028 C2031 1.386 . S
H2029 C2045 0.930 . S
H2030 C2046 0.936 1_545 S
C2031 H2019 0.929 1_565 S
C2031 C2025 1.390 1_554 S
C2031 C2028 1.386 . S
C2032 C2027 1.490 . S
C2032 C2034 1.395 . S
C2032 C2035 1.403 1_556 S
H2033 C2039 0.930 . S
C2034 H2020 1.003 . S
C2034 C2032 1.395 . S
C2034 C2037 1.403 . S
C2035 C2032 1.403 1_554 S
C2035 C2036 1.524 . S
C2035 C2039 1.400 . S
C2036 H2021 0.960 . S
C2036 H2022 0.960 . S
C2036 H2023 0.960 . S
C2036 C2035 1.524 . S
C2037 C2034 1.403 . S
C2037 C2038 1.392 . S
C2037 C2041 1.495 1_565 S
C2038 C2037 1.392 . S
C2038 C2039 1.385 1_556 S
C2038 C2040 1.478 . S
C2039 H2033 0.930 . S
C2039 C2035 1.400 . S
C2039 C2038 1.385 1_554 S
C2040 C2038 1.478 . S
C2040 C2042 1.381 . S
C2040 C2046 1.383 1_556 S
C2041 C2037 1.495 1_545 S
C2041 H2047 0.959 . S
C2041 H2048 0.961 . S
C2041 H2049 0.960 1_545 S
C2042 C2040 1.381 . S
C2042 C2043 1.394 . S
C2042 H2050 0.930 . S
C2043 C2042 1.394 . S
C2043 C2044 1.383 1_556 S
C2043 H2051 0.929 . S
C2044 C2043 1.383 1_554 S
C2044 C2045 1.377 . S
C2045 H2029 0.930 . S
C2045 C2044 1.377 . S
C2045 C2046 1.379 . S
C2046 H2030 0.936 1_565 S
C2046 C2040 1.383 1_554 S
C2046 C2045 1.379 . S
H2047 C2041 0.959 . S
H2048 C2041 0.961 . S
H2049 C2041 0.960 1_565 S
H2050 C2042 0.930 . S
H2051 C2043 0.929 . S
H2052 C2060 0.929 . S
H2053 C2062 0.930 . S
H2054 C2064 0.930 . S
H2055 C2067 0.929 . S
H2056 C2070 0.974 . S
H2057 C2072 0.960 . S
H2058 C2072 0.960 . S
H2059 C2072 0.960 . S
C2060 H2052 0.929 . S
C2060 C2061 1.377 . S
C2060 C2062 1.384 . S
C2061 C2060 1.377 . S
C2061 C2067 1.390 1_454 S
C2062 H2053 0.930 . S
C2062 C2060 1.384 . S
C2062 C2063 1.372 . S
C2063 C2062 1.372 . S
C2063 C2064 1.400 1_454 S
C2063 C2068 1.490 . S
C2064 H2054 0.930 . S
C2064 C2063 1.400 1_656 S
C2064 C2067 1.386 . S
H2065 C2081 0.930 . S
H2066 C2082 0.931 . S
C2067 H2055 0.929 . S
C2067 C2061 1.390 1_656 S
C2067 C2064 1.386 . S
C2068 C2063 1.490 . S
C2068 C2070 1.392 1_455 S
C2068 C2071 1.403 1_554 S
H2069 C2075 0.930 . S
C2070 H2056 0.974 . S
C2070 C2068 1.392 1_655 S
C2070 C2073 1.422 . S
C2071 C2068 1.403 1_556 S
C2071 C2072 1.524 . S
C2071 C2075 1.400 . S
C2072 H2057 0.960 . S
C2072 H2058 0.960 . S
C2072 H2059 0.960 . S
C2072 C2071 1.524 . S
C2073 C2070 1.422 . S
C2073 C2074 1.334 1_655 S
C2073 C2077 1.511 . S
C2074 C2073 1.334 1_455 S
C2074 C2075 1.385 1_554 S
C2074 C2076 1.478 1_554 S
C2075 H2069 0.930 . S
C2075 C2071 1.400 . S
C2075 C2074 1.385 1_556 S
C2076 C2074 1.478 1_556 S
C2076 C2078 1.381 1_556 S
C2076 C2082 1.383 1_455 S
C2077 C2073 1.511 . S
C2077 H2083 0.959 . S
C2077 H2084 0.961 . S
C2077 H2085 1.010 . S
C2078 C2076 1.381 1_554 S
C2078 C2079 1.394 . S
C2078 H2086 0.930 . S
C2079 C2078 1.394 . S
C2079 C2080 1.383 1_554 S
C2079 H2087 0.929 . S
C2080 C2079 1.383 1_556 S
C2080 C2081 1.377 1_455 S
C2081 H2065 0.930 . S
C2081 C2080 1.377 1_655 S
C2081 C2082 1.379 . S
C2082 H2066 0.931 . S
C2082 C2076 1.383 1_655 S
C2082 C2081 1.379 . S
H2083 C2077 0.959 . S
H2084 C2077 0.961 . S
H2085 C2077 1.010 . S
H2086 C2078 0.930 . S
H2087 C2079 0.929 . S
H2088 C2096 0.929 . S
H2089 C2098 0.930 . S
H2090 C2100 0.930 . S
H2091 C2103 0.929 . S
H2092 C2106 0.930 . S
H2093 C2108 0.960 . S
H2094 C2108 0.960 . S
H2095 C2108 0.960 . S
C2096 H2088 0.929 . S
C2096 C2097 1.377 1_556 S
C2096 C2098 1.384 . S
C2097 C2096 1.377 1_554 S
C2097 C2103 1.390 . S
C2098 H2089 0.930 . S
C2098 C2096 1.384 . S
C2098 C2099 1.372 1_556 S
C2099 C2098 1.372 1_554 S
C2099 C2100 1.400 . S
C2099 C2104 1.490 . S
C2100 H2090 0.930 . S
C2100 C2099 1.400 . S
C2100 C2103 1.386 . S
H2101 C2117 0.930 . S
H2102 C2118 0.931 . S
C2103 H2091 0.929 . S
C2103 C2097 1.390 . S
C2103 C2100 1.386 . S
C2104 C2099 1.490 . S
C2104 C2106 1.395 1_554 S
C2104 C2107 1.403 . S
H2105 C2111 0.930 . S
C2106 H2092 0.930 . S
C2106 C2104 1.395 1_556 S
C2106 C2109 1.403 . S
C2107 C2104 1.403 . S
C2107 C2108 1.524 . S
C2107 C2111 1.400 . S
C2108 H2093 0.960 . S
C2108 H2094 0.960 . S
C2108 H2095 0.960 . S
C2108 C2107 1.524 . S
C2109 C2106 1.403 . S
C2109 C2110 1.392 . S
C2109 C2113 1.495 . S
C2110 C2109 1.392 . S
C2110 C2111 1.385 1_556 S
C2110 C2112 1.478 . S
C2111 H2105 0.930 . S
C2111 C2107 1.400 . S
C2111 C2110 1.385 1_554 S
C2112 C2110 1.478 . S
C2112 C2114 1.381 . S
C2112 C2118 1.383 1_556 S
C2113 C2109 1.495 . S
C2113 H2119 0.959 . S
C2113 H2120 0.961 . S
C2113 H2121 0.960 . S
C2114 C2112 1.381 . S
C2114 C2115 1.394 . S
C2114 H2122 0.930 . S
C2115 C2114 1.394 . S
C2115 C2116 1.383 . S
C2115 H2123 0.929 . S
C2116 C2115 1.383 . S
C2116 C2117 1.377 1_556 S
C2117 H2101 0.930 . S
C2117 C2116 1.377 1_554 S
C2117 C2118 1.379 . S
C2118 H2102 0.931 . S
C2118 C2112 1.383 1_554 S
C2118 C2117 1.379 . S
H2119 C2113 0.959 . S
H2120 C2113 0.961 . S
H2121 C2113 0.960 . S
H2122 C2114 0.930 . S
H2123 C2115 0.929 . S
H2124 C2132 0.929 . S
H2125 C2134 0.930 . S
H2126 C2136 0.930 . S
H2127 C2139 0.929 . S
H2128 C2142 0.930 . S
H2129 C2144 0.960 1_556 S
H2130 C2144 0.960 1_556 S
H2131 C2144 0.960 1_556 S
C2132 H2124 0.929 . S
C2132 C2133 1.377 . S
C2132 C2134 1.384 . S
C2133 C2132 1.377 . S
C2133 C2139 1.390 . S
C2134 H2125 0.930 . S
C2134 C2132 1.384 . S
C2134 C2135 1.372 . S
C2135 C2134 1.372 . S
C2135 C2136 1.400 . S
C2135 C2140 1.490 . S
C2136 H2126 0.930 . S
C2136 C2135 1.400 . S
C2136 C2139 1.386 . S
H2137 C2153 0.930 . S
H2138 C2154 0.931 . S
C2139 H2127 0.929 . S
C2139 C2133 1.390 . S
C2139 C2136 1.386 . S
C2140 C2135 1.490 . S
C2140 C2142 1.395 . S
C2140 C2143 1.403 . S
H2141 C2147 0.930 . S
C2142 H2128 0.930 . S
C2142 C2140 1.395 . S
C2142 C2145 1.403 . S
C2143 C2140 1.403 . S
C2143 C2144 1.524 . S
C2143 C2147 1.400 . S
C2144 H2129 0.960 1_554 S
C2144 H2130 0.960 1_554 S
C2144 H2131 0.960 1_554 S
C2144 C2143 1.524 . S
C2145 C2142 1.403 . S
C2145 C2146 1.392 . S
C2145 C2149 1.495 . S
C2146 C2145 1.392 . S
C2146 C2147 1.385 . S
C2146 C2148 1.478 . S
C2147 H2141 0.930 . S
C2147 C2143 1.400 . S
C2147 C2146 1.385 . S
C2148 C2146 1.478 . S
C2148 C2150 1.381 . S
C2148 C2154 1.383 . S
C2149 C2145 1.495 . S
C2149 H2155 0.959 . S
C2149 H2156 0.961 . S
C2149 H2157 0.960 . S
C2150 C2148 1.381 . S
C2150 C2151 1.394 . S
C2150 H2158 0.930 . S
C2151 C2150 1.394 . S
C2151 C2152 1.383 . S
C2151 H2159 0.929 . S
C2152 C2151 1.383 . S
C2152 C2153 1.377 . S
C2153 H2137 0.930 . S
C2153 C2152 1.377 . S
C2153 C2154 1.379 . S
C2154 H2138 0.931 . S
C2154 C2148 1.383 . S
C2154 C2153 1.379 . S
H2155 C2149 0.959 . S
H2156 C2149 0.961 . S
H2157 C2149 0.960 . S
H2158 C2150 0.930 . S
H2159 C2151 0.929 . S
H2160 C2168 0.929 . S
H2161 C2170 0.930 . S
H2162 C2172 0.930 . S
H2163 C2175 0.929 . S
H2164 C2178 0.930 . S
H2165 C2180 0.960 . S
H2166 C2180 0.960 . S
H2167 C2180 0.960 . S
C2168 H2160 0.929 . S
C2168 C2169 1.377 . S
C2168 C2170 1.384 . S
C2169 C2168 1.377 . S
C2169 C2175 1.390 . S
C2170 H2161 0.930 . S
C2170 C2168 1.384 . S
C2170 C2171 1.372 . S
C2171 C2170 1.372 . S
C2171 C2172 1.400 . S
C2171 C2176 1.490 . S
C2172 H2162 0.930 . S
C2172 C2171 1.400 . S
C2172 C2175 1.386 . S
H2173 C2189 0.930 . S
H2174 C2190 0.931 . S
C2175 H2163 0.929 . S
C2175 C2169 1.390 . S
C2175 C2172 1.386 . S
C2176 C2171 1.490 . S
C2176 C2178 1.395 . S
C2176 C2179 1.403 . S
H2177 C2183 0.930 . S
C2178 H2164 0.930 . S
C2178 C2176 1.395 . S
C2178 C2181 1.403 . S
C2179 C2176 1.403 . S
C2179 C2180 1.524 . S
C2179 C2183 1.400 . S
C2180 H2165 0.960 . S
C2180 H2166 0.960 . S
C2180 H2167 0.960 . S
C2180 C2179 1.524 . S
C2181 C2178 1.403 . S
C2181 C2182 1.392 . S
C2181 C2185 1.495 . S
C2182 C2181 1.392 . S
C2182 C2183 1.385 . S
C2182 C2184 1.478 . S
C2183 H2177 0.930 . S
C2183 C2179 1.400 . S
C2183 C2182 1.385 . S
C2184 C2182 1.478 . S
C2184 C2186 1.381 . S
C2184 C2190 1.383 . S
C2185 C2181 1.495 . S
C2185 H2191 0.959 . S
C2185 H2192 0.961 . S
C2185 H2193 0.960 . S
C2186 C2184 1.381 . S
C2186 C2187 1.394 . S
C2186 H2194 0.930 . S
C2187 C2186 1.394 . S
C2187 C2188 1.383 . S
C2187 H2195 0.929 . S
C2188 C2187 1.383 . S
C2188 C2189 1.377 . S
C2189 H2173 0.930 . S
C2189 C2188 1.377 . S
C2189 C2190 1.379 . S
C2190 H2174 0.931 . S
C2190 C2184 1.383 . S
C2190 C2189 1.379 . S
H2191 C2185 0.959 . S
H2192 C2185 0.961 . S
H2193 C2185 0.960 . S
H2194 C2186 0.930 . S
H2195 C2187 0.929 . S
H2196 C2204 0.929 . S
H2197 C2206 0.930 . S
H2198 C2208 0.930 . S
H2199 C2211 0.929 . S
H2200 C2214 0.930 . S
H2201 C2216 0.960 . S
H2202 C2216 0.960 . S
H2203 C2216 0.960 . S
C2204 H2196 0.929 . S
C2204 C2205 1.377 . S
C2204 C2206 1.384 . S
C2205 C2204 1.377 . S
C2205 C2211 1.390 . S
C2206 H2197 0.930 . S
C2206 C2204 1.384 . S
C2206 C2207 1.372 . S
C2207 C2206 1.372 . S
C2207 C2208 1.400 . S
C2207 C2212 1.490 . S
C2208 H2198 0.930 . S
C2208 C2207 1.400 . S
C2208 C2211 1.386 . S
H2209 C2225 0.930 . S
H2210 C2226 0.931 . S
C2211 H2199 0.929 . S
C2211 C2205 1.390 . S
C2211 C2208 1.386 . S
C2212 C2207 1.490 . S
C2212 C2214 1.395 . S
C2212 C2215 1.403 . S
H2213 C2219 0.930 . S
C2214 H2200 0.930 . S
C2214 C2212 1.395 . S
C2214 C2217 1.403 . S
C2215 C2212 1.403 . S
C2215 C2216 1.524 . S
C2215 C2219 1.400 . S
C2216 H2201 0.960 . S
C2216 H2202 0.960 . S
C2216 H2203 0.960 . S
C2216 C2215 1.524 . S
C2217 C2214 1.403 . S
C2217 C2218 1.392 . S
C2217 C2221 1.495 . S
C2218 C2217 1.392 . S
C2218 C2219 1.385 . S
C2218 C2220 1.478 . S
C2219 H2213 0.930 . S
C2219 C2215 1.400 . S
C2219 C2218 1.385 . S
C2220 C2218 1.478 . S
C2220 C2222 1.381 . S
C2220 C2226 1.383 . S
C2221 C2217 1.495 . S
C2221 H2227 0.959 . S
C2221 H2228 0.961 . S
C2221 H2229 0.960 . S
C2222 C2220 1.381 . S
C2222 C2223 1.394 . S
C2222 H2230 0.930 . S
C2223 C2222 1.394 . S
C2223 C2224 1.383 . S
C2223 H2231 0.929 . S
C2224 C2223 1.383 . S
C2224 C2225 1.377 . S
C2225 H2209 0.930 . S
C2225 C2224 1.377 . S
C2225 C2226 1.379 . S
C2226 H2210 0.931 . S
C2226 C2220 1.383 . S
C2226 C2225 1.379 . S
H2227 C2221 0.959 . S
H2228 C2221 0.961 . S
H2229 C2221 0.960 . S
H2230 C2222 0.930 . S
H2231 C2223 0.929 . S
H2232 C2240 0.929 . S
H2233 C2242 0.930 . S
H2234 C2244 0.930 . S
H2235 C2247 0.929 . S
H2236 C2250 0.930 . S
H2237 C2252 0.960 . S
H2238 C2252 0.960 . S
H2239 C2252 0.960 . S
C2240 H2232 0.929 . S
C2240 C2241 1.377 . S
C2240 C2242 1.384 . S
C2241 C2240 1.377 . S
C2241 C2247 1.390 . S
C2242 H2233 0.930 . S
C2242 C2240 1.384 . S
C2242 C2243 1.372 . S
C2243 C2242 1.372 . S
C2243 C2244 1.400 . S
C2243 C2248 1.490 . S
C2244 H2234 0.930 . S
C2244 C2243 1.400 . S
C2244 C2247 1.386 . S
H2245 C2261 0.930 . S
H2246 C2262 0.931 . S
C2247 H2235 0.929 . S
C2247 C2241 1.390 . S
C2247 C2244 1.386 . S
C2248 C2243 1.490 . S
C2248 C2250 1.395 . S
C2248 C2251 1.403 . S
H2249 C2255 0.930 . S
C2250 H2236 0.930 . S
C2250 C2248 1.395 . S
C2250 C2253 1.403 . S
C2251 C2248 1.403 . S
C2251 C2252 1.524 . S
C2251 C2255 1.400 . S
C2252 H2237 0.960 . S
C2252 H2238 0.960 . S
C2252 H2239 0.960 . S
C2252 C2251 1.524 . S
C2253 C2250 1.403 . S
C2253 C2254 1.392 . S
C2253 C2257 1.495 . S
C2254 C2253 1.392 . S
C2254 C2255 1.385 . S
C2254 C2256 1.478 . S
C2255 H2249 0.930 . S
C2255 C2251 1.400 . S
C2255 C2254 1.385 . S
C2256 C2254 1.478 . S
C2256 C2258 1.381 . S
C2256 C2262 1.383 . S
C2257 C2253 1.495 . S
C2257 H2263 0.959 . S
C2257 H2264 0.961 . S
C2257 H2265 0.960 . S
C2258 C2256 1.381 . S
C2258 C2259 1.394 . S
C2258 H2266 0.930 . S
C2259 C2258 1.394 . S
C2259 C2260 1.383 . S
C2259 H2267 0.929 . S
C2260 C2259 1.383 . S
C2260 C2261 1.377 . S
C2261 H2245 0.930 . S
C2261 C2260 1.377 . S
C2261 C2262 1.379 . S
C2262 H2246 0.931 . S
C2262 C2256 1.383 . S
C2262 C2261 1.379 . S
H2263 C2257 0.959 . S
H2264 C2257 0.961 . S
H2265 C2257 0.960 . S
H2266 C2258 0.930 . S
H2267 C2259 0.929 . S
H2268 C2276 0.929 . S
H2269 C2278 0.930 . S
H2270 C2280 0.930 . S
H2271 C2283 0.929 . S
H2272 C2286 0.930 . S
H2273 C2288 0.960 . S
H2274 C2288 0.960 . S
H2275 C2288 0.960 . S
C2276 H2268 0.929 . S
C2276 C2277 1.377 . S
C2276 C2278 1.384 . S
C2277 C2276 1.377 . S
C2277 C2283 1.390 . S
C2278 H2269 0.930 . S
C2278 C2276 1.384 . S
C2278 C2279 1.372 . S
C2279 C2278 1.372 . S
C2279 C2280 1.400 . S
C2279 C2284 1.490 . S
C2280 H2270 0.930 . S
C2280 C2279 1.400 . S
C2280 C2283 1.386 . S
H2281 C2297 0.930 . S
H2282 C2298 0.931 . S
C2283 H2271 0.929 . S
C2283 C2277 1.390 . S
C2283 C2280 1.386 . S
C2284 C2279 1.490 . S
C2284 C2286 1.395 . S
C2284 C2287 1.403 . S
H2285 C2291 0.930 . S
C2286 H2272 0.930 . S
C2286 C2284 1.395 . S
C2286 C2289 1.403 . S
C2287 C2284 1.403 . S
C2287 C2288 1.524 . S
C2287 C2291 1.400 . S
C2288 H2273 0.960 . S
C2288 H2274 0.960 . S
C2288 H2275 0.960 . S
C2288 C2287 1.524 . S
C2289 C2286 1.403 . S
C2289 C2290 1.392 . S
C2289 C2293 1.495 . S
C2290 C2289 1.392 . S
C2290 C2291 1.385 . S
C2290 C2292 1.478 . S
C2291 H2285 0.930 . S
C2291 C2287 1.400 . S
C2291 C2290 1.385 . S
C2292 C2290 1.478 . S
C2292 C2294 1.381 . S
C2292 C2298 1.383 . S
C2293 C2289 1.495 . S
C2293 H2299 0.959 . S
C2293 H2300 0.961 . S
C2293 H2301 0.960 . S
C2294 C2292 1.381 . S
C2294 C2295 1.394 . S
C2294 H2302 0.930 . S
C2295 C2294 1.394 . S
C2295 C2296 1.383 . S
C2295 H2303 0.929 . S
C2296 C2295 1.383 . S
C2296 C2297 1.377 . S
C2297 H2281 0.930 . S
C2297 C2296 1.377 . S
C2297 C2298 1.379 . S
C2298 H2282 0.931 . S
C2298 C2292 1.383 . S
C2298 C2297 1.379 . S
H2299 C2293 0.959 . S
H2300 C2293 0.961 . S
H2301 C2293 0.960 . S
H2302 C2294 0.930 . S
H2303 C2295 0.929 . S
H2304 C2312 0.929 . S
H2305 C2314 0.930 . S
H2306 C2316 0.930 . S
H2307 C2319 0.929 . S
H2308 C2322 0.930 . S
H2309 C2324 0.960 . S
H2310 C2324 0.960 . S
H2311 C2324 0.960 . S
C2312 H2304 0.929 . S
C2312 C2313 1.377 . S
C2312 C2314 1.384 . S
C2313 C2312 1.377 . S
C2313 C2319 1.390 . S
C2314 H2305 0.930 . S
C2314 C2312 1.384 . S
C2314 C2315 1.372 . S
C2315 C2314 1.372 . S
C2315 C2316 1.400 . S
C2315 C2320 1.490 . S
C2316 H2306 0.930 . S
C2316 C2315 1.400 . S
C2316 C2319 1.386 . S
H2317 C2333 0.930 . S
H2318 C2334 0.931 . S
C2319 H2307 0.929 . S
C2319 C2313 1.390 . S
C2319 C2316 1.386 . S
C2320 C2315 1.490 . S
C2320 C2322 1.395 . S
C2320 C2323 1.403 . S
H2321 C2327 0.930 . S
C2322 H2308 0.930 . S
C2322 C2320 1.395 . S
C2322 C2325 1.403 . S
C2323 C2320 1.403 . S
C2323 C2324 1.524 . S
C2323 C2327 1.400 . S
C2324 H2309 0.960 . S
C2324 H2310 0.960 . S
C2324 H2311 0.960 . S
C2324 C2323 1.524 . S
C2325 C2322 1.403 . S
C2325 C2326 1.392 . S
C2325 C2329 1.495 . S
C2326 C2325 1.392 . S
C2326 C2327 1.385 . S
C2326 C2328 1.478 . S
C2327 H2321 0.930 . S
C2327 C2323 1.400 . S
C2327 C2326 1.385 . S
C2328 C2326 1.478 . S
C2328 C2330 1.381 . S
C2328 C2334 1.383 . S
C2329 C2325 1.495 . S
C2329 H2335 0.959 . S
C2329 H2336 0.961 . S
C2329 H2337 0.960 . S
C2330 C2328 1.381 . S
C2330 C2331 1.394 . S
C2330 H2338 0.930 . S
C2331 C2330 1.394 . S
C2331 C2332 1.383 . S
C2331 H2339 0.929 . S
C2332 C2331 1.383 . S
C2332 C2333 1.377 . S
C2333 H2317 0.930 . S
C2333 C2332 1.377 . S
C2333 C2334 1.379 . S
C2334 H2318 0.931 . S
C2334 C2328 1.383 . S
C2334 C2333 1.379 . S
H2335 C2329 0.959 . S
H2336 C2329 0.961 . S
H2337 C2329 0.960 . S
H2338 C2330 0.930 . S
H2339 C2331 0.929 . S
H2340 C2348 0.929 . S
H2341 C2350 0.930 . S
H2342 C2352 0.930 . S
H2343 C2355 0.929 1_554 S
H2344 C2358 0.930 . S
H2345 C2360 0.960 . S
H2346 C2360 0.960 . S
H2347 C2360 0.960 . S
C2348 H2340 0.929 . S
C2348 C2349 1.377 . S
C2348 C2350 1.384 . S
C2349 C2348 1.377 . S
C2349 C2355 1.390 . S
C2350 H2341 0.930 . S
C2350 C2348 1.384 . S
C2350 C2351 1.372 . S
C2351 C2350 1.372 . S
C2351 C2352 1.400 . S
C2351 C2356 1.490 . S
C2352 H2342 0.930 . S
C2352 C2351 1.400 . S
C2352 C2355 1.386 . S
H2353 C2369 0.930 . S
H2354 C2370 0.931 . S
C2355 H2343 0.929 1_556 S
C2355 C2349 1.390 . S
C2355 C2352 1.386 . S
C2356 C2351 1.490 . S
C2356 C2358 1.395 . S
C2356 C2359 1.403 . S
H2357 C2363 0.930 . S
C2358 H2344 0.930 . S
C2358 C2356 1.395 . S
C2358 C2361 1.403 . S
C2359 C2356 1.403 . S
C2359 C2360 1.524 . S
C2359 C2363 1.400 . S
C2360 H2345 0.960 . S
C2360 H2346 0.960 . S
C2360 H2347 0.960 . S
C2360 C2359 1.524 . S
C2361 C2358 1.403 . S
C2361 C2362 1.392 . S
C2361 C2365 1.495 . S
C2362 C2361 1.392 . S
C2362 C2363 1.385 . S
C2362 C2364 1.478 . S
C2363 H2357 0.930 . S
C2363 C2359 1.400 . S
C2363 C2362 1.385 . S
C2364 C2362 1.478 . S
C2364 C2366 1.381 . S
C2364 C2370 1.383 . S
C2365 C2361 1.495 . S
C2365 H2371 0.959 . S
C2365 H2372 0.961 . S
C2365 H2373 0.960 . S
C2366 C2364 1.381 . S
C2366 C2367 1.394 . S
C2366 H2374 0.930 . S
C2367 C2366 1.394 . S
C2367 C2368 1.383 . S
C2367 H2375 0.929 . S
C2368 C2367 1.383 . S
C2368 C2369 1.377 . S
C2369 H2353 0.930 . S
C2369 C2368 1.377 . S
C2369 C2370 1.379 . S
C2370 H2354 0.931 . S
C2370 C2364 1.383 . S
C2370 C2369 1.379 . S
H2371 C2365 0.959 . S
H2372 C2365 0.961 . S
H2373 C2365 0.960 . S
H2374 C2366 0.930 . S
H2375 C2367 0.929 . S
H2376 C2384 0.929 . S
H2377 C2386 0.930 . S
H2378 C2388 0.930 . S
H2379 C2391 0.929 . S
H2380 C2394 0.930 . S
H2381 C2396 0.960 . S
H2382 C2396 0.960 . S
H2383 C2396 0.960 . S
C2384 H2376 0.929 . S
C2384 C2385 1.377 . S
C2384 C2386 1.384 . S
C2385 C2384 1.377 . S
C2385 C2391 1.390 . S
C2386 H2377 0.930 . S
C2386 C2384 1.384 . S
C2386 C2387 1.372 . S
C2387 C2386 1.372 . S
C2387 C2388 1.400 . S
C2387 C2392 1.490 . S
C2388 H2378 0.930 . S
C2388 C2387 1.400 . S
C2388 C2391 1.386 . S
H2389 C2405 0.930 . S
H2390 C2406 0.931 . S
C2391 H2379 0.929 . S
C2391 C2385 1.390 . S
C2391 C2388 1.386 . S
C2392 C2387 1.490 . S
C2392 C2394 1.395 . S
C2392 C2395 1.403 . S
H2393 C2399 0.930 . S
C2394 H2380 0.930 . S
C2394 C2392 1.395 . S
C2394 C2397 1.403 . S
C2395 C2392 1.403 . S
C2395 C2396 1.524 . S
C2395 C2399 1.400 . S
C2396 H2381 0.960 . S
C2396 H2382 0.960 . S
C2396 H2383 0.960 . S
C2396 C2395 1.524 . S
C2397 C2394 1.403 . S
C2397 C2398 1.392 . S
C2397 C2401 1.495 . S
C2398 C2397 1.392 . S
C2398 C2399 1.385 . S
C2398 C2400 1.478 . S
C2399 H2393 0.930 . S
C2399 C2395 1.400 . S
C2399 C2398 1.385 . S
C2400 C2398 1.478 . S
C2400 C2402 1.381 . S
C2400 C2406 1.383 . S
C2401 C2397 1.495 . S
C2401 H2407 0.959 . S
C2401 H2408 0.958 1_556 S
C2401 H2409 0.960 . S
C2402 C2400 1.381 . S
C2402 C2403 1.394 . S
C2402 H2410 0.930 . S
C2403 C2402 1.394 . S
C2403 C2404 1.383 . S
C2403 H2411 0.929 . S
C2404 C2403 1.383 . S
C2404 C2405 1.377 . S
C2405 H2389 0.930 . S
C2405 C2404 1.377 . S
C2405 C2406 1.379 . S
C2406 H2390 0.931 . S
C2406 C2400 1.383 . S
C2406 C2405 1.379 . S
H2407 C2401 0.959 . S
H2408 C2401 0.958 1_554 S
H2409 C2401 0.960 . S
H2410 C2402 0.930 . S
H2411 C2403 0.929 . S
H2412 C2420 0.929 1_554 S
H2413 C2422 0.930 . S
H2414 C2424 0.930 . S
H2415 C2427 0.929 . S
H2416 C2430 0.930 . S
H2417 C2432 0.960 . S
H2418 C2432 0.960 . S
H2419 C2432 0.960 . S
C2420 H2412 0.929 1_556 S
C2420 C2421 1.377 . S
C2420 C2422 1.384 . S
C2421 C2420 1.377 . S
C2421 C2427 1.390 . S
C2422 H2413 0.930 . S
C2422 C2420 1.384 . S
C2422 C2423 1.372 . S
C2423 C2422 1.372 . S
C2423 C2424 1.400 . S
C2423 C2428 1.490 . S
C2424 H2414 0.930 . S
C2424 C2423 1.400 . S
C2424 C2427 1.386 . S
H2425 C2441 0.930 . S
H2426 C2442 0.931 . S
C2427 H2415 0.929 . S
C2427 C2421 1.390 . S
C2427 C2424 1.386 . S
C2428 C2423 1.490 . S
C2428 C2430 1.395 . S
C2428 C2431 1.403 . S
H2429 C2435 0.930 . S
C2430 H2416 0.930 . S
C2430 C2428 1.395 . S
C2430 C2433 1.403 . S
C2431 C2428 1.403 . S
C2431 C2432 1.524 . S
C2431 C2435 1.400 . S
C2432 H2417 0.960 . S
C2432 H2418 0.960 . S
C2432 H2419 0.960 . S
C2432 C2431 1.524 . S
C2433 C2430 1.403 . S
C2433 C2434 1.392 . S
C2433 C2437 1.495 . S
C2434 C2433 1.392 . S
C2434 C2435 1.385 . S
C2434 C2436 1.478 . S
C2435 H2429 0.930 . S
C2435 C2431 1.400 . S
C2435 C2434 1.385 . S
C2436 C2434 1.478 . S
C2436 C2438 1.381 . S
C2436 C2442 1.383 . S
C2437 C2433 1.495 . S
C2437 H2443 0.959 . S
C2437 H2444 0.961 . S
C2437 H2445 0.960 . S
C2438 C2436 1.381 . S
C2438 C2439 1.394 . S
C2438 H2446 0.930 . S
C2439 C2438 1.394 . S
C2439 C2440 1.383 . S
C2439 H2447 0.929 . S
C2440 C2439 1.383 . S
C2440 C2441 1.377 . S
C2441 H2425 0.930 . S
C2441 C2440 1.377 . S
C2441 C2442 1.379 . S
C2442 H2426 0.931 . S
C2442 C2436 1.383 . S
C2442 C2441 1.379 . S
H2443 C2437 0.959 . S
H2444 C2437 0.961 . S
H2445 C2437 0.960 . S
H2446 C2438 0.930 . S
H2447 C2439 0.929 . S
H2448 C2456 0.929 . S
H2449 C2458 0.930 . S
H2450 C2460 0.930 . S
H2451 C2463 0.929 . S
H2452 C2466 0.930 . S
H2453 C2468 0.960 . S
H2454 C2468 0.960 . S
H2455 C2468 0.960 . S
C2456 H2448 0.929 . S
C2456 C2457 1.377 . S
C2456 C2458 1.384 . S
C2457 C2456 1.377 . S
C2457 C2463 1.390 . S
C2458 H2449 0.930 . S
C2458 C2456 1.384 . S
C2458 C2459 1.372 . S
C2459 C2458 1.372 . S
C2459 C2460 1.400 . S
C2459 C2464 1.490 . S
C2460 H2450 0.930 . S
C2460 C2459 1.400 . S
C2460 C2463 1.386 . S
H2461 C2477 0.930 . S
H2462 C2478 0.931 . S
C2463 H2451 0.929 . S
C2463 C2457 1.390 . S
C2463 C2460 1.386 . S
C2464 C2459 1.490 . S
C2464 C2466 1.395 . S
C2464 C2467 1.403 . S
H2465 C2471 0.930 . S
C2466 H2452 0.930 . S
C2466 C2464 1.395 . S
C2466 C2469 1.403 . S
C2467 C2464 1.403 . S
C2467 C2468 1.524 . S
C2467 C2471 1.400 . S
C2468 H2453 0.960 . S
C2468 H2454 0.960 . S
C2468 H2455 0.960 . S
C2468 C2467 1.524 . S
C2469 C2466 1.403 . S
C2469 C2470 1.392 . S
C2469 C2473 1.495 . S
C2470 C2469 1.392 . S
C2470 C2471 1.385 . S
C2470 C2472 1.478 . S
C2471 H2465 0.930 . S
C2471 C2467 1.400 . S
C2471 C2470 1.385 . S
C2472 C2470 1.478 . S
C2472 C2474 1.381 . S
C2472 C2478 1.383 . S
C2473 C2469 1.495 . S
C2473 H2479 0.959 . S
C2473 H2480 0.961 . S
C2473 H2481 0.960 . S
C2474 C2472 1.381 . S
C2474 C2475 1.394 . S
C2474 H2482 0.930 . S
C2475 C2474 1.394 . S
C2475 C2476 1.383 . S
C2475 H2483 0.929 . S
C2476 C2475 1.383 . S
C2476 C2477 1.377 . S
C2477 H2461 0.930 . S
C2477 C2476 1.377 . S
C2477 C2478 1.379 . S
C2478 H2462 0.931 . S
C2478 C2472 1.383 . S
C2478 C2477 1.379 . S
H2479 C2473 0.959 . S
H2480 C2473 0.961 . S
H2481 C2473 0.960 . S
H2482 C2474 0.930 . S
H2483 C2475 0.929 . S
H2484 C2492 0.929 . S
H2485 C2494 0.930 . S
H2486 C2496 0.930 . S
H2487 C2499 0.929 . S
H2488 C2502 0.930 . S
H2489 C2504 0.960 . S
H2490 C2504 0.960 . S
H2491 C2504 0.960 . S
C2492 H2484 0.929 . S
C2492 C2493 1.377 . S
C2492 C2494 1.384 . S
C2493 C2492 1.377 . S
C2493 C2499 1.390 . S
C2494 H2485 0.930 . S
C2494 C2492 1.384 . S
C2494 C2495 1.372 . S
C2495 C2494 1.372 . S
C2495 C2496 1.400 . S
C2495 C2500 1.490 . S
C2496 H2486 0.930 . S
C2496 C2495 1.400 . S
C2496 C2499 1.386 . S
H2497 C2513 0.930 . S
H2498 C2514 0.931 . S
C2499 H2487 0.929 . S
C2499 C2493 1.390 . S
C2499 C2496 1.386 . S
C2500 C2495 1.490 . S
C2500 C2502 1.395 . S
C2500 C2503 1.403 . S
H2501 C2507 0.930 . S
C2502 H2488 0.930 . S
C2502 C2500 1.395 . S
C2502 C2505 1.403 . S
C2503 C2500 1.403 . S
C2503 C2504 1.524 . S
C2503 C2507 1.400 . S
C2504 H2489 0.960 . S
C2504 H2490 0.960 . S
C2504 H2491 0.960 . S
C2504 C2503 1.524 . S
C2505 C2502 1.403 . S
C2505 C2506 1.392 . S
C2505 C2509 1.495 . S
C2506 C2505 1.392 . S
C2506 C2507 1.385 . S
C2506 C2508 1.478 . S
C2507 H2501 0.930 . S
C2507 C2503 1.400 . S
C2507 C2506 1.385 . S
C2508 C2506 1.478 . S
C2508 C2510 1.381 . S
C2508 C2514 1.383 . S
C2509 C2505 1.495 . S
C2509 H2515 0.959 . S
C2509 H2516 0.961 . S
C2509 H2517 0.960 . S
C2510 C2508 1.381 . S
C2510 C2511 1.394 . S
C2510 H2518 0.930 . S
C2511 C2510 1.394 . S
C2511 C2512 1.383 . S
C2511 H2519 0.929 . S
C2512 C2511 1.383 . S
C2512 C2513 1.377 . S
C2513 H2497 0.930 . S
C2513 C2512 1.377 . S
C2513 C2514 1.379 . S
C2514 H2498 0.931 . S
C2514 C2508 1.383 . S
C2514 C2513 1.379 . S
H2515 C2509 0.959 . S
H2516 C2509 0.961 . S
H2517 C2509 0.960 . S
H2518 C2510 0.930 . S
H2519 C2511 0.929 . S
H2520 C2528 0.929 . S
H2521 C2530 0.930 . S
H2522 C2532 0.930 . S
H2523 C2535 0.929 . S
H2524 C2538 0.930 . S
H2525 C2540 0.960 . S
H2526 C2540 0.960 . S
H2527 C2540 0.960 . S
C2528 H2520 0.929 . S
C2528 C2529 1.377 . S
C2528 C2530 1.384 . S
C2529 C2528 1.377 . S
C2529 C2535 1.390 . S
C2530 H2521 0.930 . S
C2530 C2528 1.384 . S
C2530 C2531 1.372 . S
C2531 C2530 1.372 . S
C2531 C2532 1.400 . S
C2531 C2536 1.490 . S
C2532 H2522 0.930 . S
C2532 C2531 1.400 . S
C2532 C2535 1.386 . S
H2533 C2549 0.930 . S
H2534 C2550 0.931 . S
C2535 H2523 0.929 . S
C2535 C2529 1.390 . S
C2535 C2532 1.386 . S
C2536 C2531 1.490 . S
C2536 C2538 1.395 . S
C2536 C2539 1.403 . S
H2537 C2543 0.930 . S
C2538 H2524 0.930 . S
C2538 C2536 1.395 . S
C2538 C2541 1.403 . S
C2539 C2536 1.403 . S
C2539 C2540 1.524 . S
C2539 C2543 1.400 . S
C2540 H2525 0.960 . S
C2540 H2526 0.960 . S
C2540 H2527 0.960 . S
C2540 C2539 1.524 . S
C2541 C2538 1.403 . S
C2541 C2542 1.392 . S
C2541 C2545 1.495 . S
C2542 C2541 1.392 . S
C2542 C2543 1.385 . S
C2542 C2544 1.478 . S
C2543 H2537 0.930 . S
C2543 C2539 1.400 . S
C2543 C2542 1.385 . S
C2544 C2542 1.478 . S
C2544 C2546 1.381 . S
C2544 C2550 1.383 . S
C2545 C2541 1.495 . S
C2545 H2551 0.959 . S
C2545 H2552 0.961 . S
C2545 H2553 0.960 . S
C2546 C2544 1.381 . S
C2546 C2547 1.394 . S
C2546 H2554 0.930 . S
C2547 C2546 1.394 . S
C2547 C2548 1.383 . S
C2547 H2555 0.929 . S
C2548 C2547 1.383 . S
C2548 C2549 1.377 . S
C2549 H2533 0.930 . S
C2549 C2548 1.377 . S
C2549 C2550 1.379 . S
C2550 H2534 0.931 . S
C2550 C2544 1.383 . S
C2550 C2549 1.379 . S
H2551 C2545 0.959 . S
H2552 C2545 0.961 . S
H2553 C2545 0.960 . S
H2554 C2546 0.930 . S
H2555 C2547 0.929 . S
H2556 C2564 0.929 . S
H2557 C2566 0.930 . S
H2558 C2568 0.930 . S
H2559 C2571 0.929 . S
H2560 C2574 0.930 . S
H2561 C2576 0.960 . S
H2562 C2576 0.960 . S
H2563 C2576 0.960 . S
C2564 H2556 0.929 . S
C2564 C2565 1.377 . S
C2564 C2566 1.384 . S
C2565 C2564 1.377 . S
C2565 C2571 1.390 . S
C2566 H2557 0.930 . S
C2566 C2564 1.384 . S
C2566 C2567 1.372 . S
C2567 C2566 1.372 . S
C2567 C2568 1.400 . S
C2567 C2572 1.490 . S
C2568 H2558 0.930 . S
C2568 C2567 1.400 . S
C2568 C2571 1.386 . S
H2569 C2585 0.930 . S
H2570 C2586 0.931 . S
C2571 H2559 0.929 . S
C2571 C2565 1.390 . S
C2571 C2568 1.386 . S
C2572 C2567 1.490 . S
C2572 C2574 1.395 . S
C2572 C2575 1.403 . S
H2573 C2579 0.930 . S
C2574 H2560 0.930 . S
C2574 C2572 1.395 . S
C2574 C2577 1.403 . S
C2575 C2572 1.403 . S
C2575 C2576 1.524 . S
C2575 C2579 1.400 . S
C2576 H2561 0.960 . S
C2576 H2562 0.960 . S
C2576 H2563 0.960 . S
C2576 C2575 1.524 . S
C2577 C2574 1.403 . S
C2577 C2578 1.392 . S
C2577 C2581 1.495 . S
C2578 C2577 1.392 . S
C2578 C2579 1.385 . S
C2578 C2580 1.478 . S
C2579 H2573 0.930 . S
C2579 C2575 1.400 . S
C2579 C2578 1.385 . S
C2580 C2578 1.478 . S
C2580 C2582 1.381 . S
C2580 C2586 1.383 . S
C2581 C2577 1.495 . S
C2581 H2587 0.959 . S
C2581 H2588 0.961 . S
C2581 H2589 0.960 . S
C2582 C2580 1.381 . S
C2582 C2583 1.394 . S
C2582 H2590 0.930 . S
C2583 C2582 1.394 . S
C2583 C2584 1.383 . S
C2583 H2591 0.929 . S
C2584 C2583 1.383 . S
C2584 C2585 1.377 . S
C2585 H2569 0.930 . S
C2585 C2584 1.377 . S
C2585 C2586 1.379 . S
C2586 H2570 0.931 . S
C2586 C2580 1.383 . S
C2586 C2585 1.379 . S
H2587 C2581 0.959 . S
H2588 C2581 0.961 . S
H2589 C2581 0.960 . S
H2590 C2582 0.930 . S
H2591 C2583 0.929 . S
H2592 C2600 0.929 . S
H2593 C2602 0.930 . S
H2594 C2604 0.930 . S
H2595 C2607 0.929 . S
H2596 C2610 0.930 . S
H2597 C2612 0.878 1_545 S
H2598 C2612 0.960 . S
H2599 C2612 0.960 . S
C2600 H2592 0.929 . S
C2600 C2601 1.377 . S
C2600 C2602 1.384 . S
C2601 C2600 1.377 . S
C2601 C2607 1.390 . S
C2602 H2593 0.930 . S
C2602 C2600 1.384 . S
C2602 C2603 1.372 . S
C2603 C2602 1.372 . S
C2603 C2604 1.400 . S
C2603 C2608 1.490 . S
C2604 H2594 0.930 . S
C2604 C2603 1.400 . S
C2604 C2607 1.386 . S
H2605 C2621 0.930 . S
H2606 C2622 0.931 . S
C2607 H2595 0.929 . S
C2607 C2601 1.390 . S
C2607 C2604 1.386 . S
C2608 C2603 1.490 . S
C2608 C2610 1.395 . S
C2608 C2611 1.403 . S
H2609 C2615 0.930 . S
C2610 H2596 0.930 . S
C2610 C2608 1.395 . S
C2610 C2613 1.343 1_565 S
C2611 C2608 1.403 . S
C2611 C2612 1.524 . S
C2611 C2615 1.400 1_565 S
C2612 H2597 0.878 1_565 S
C2612 H2598 0.960 . S
C2612 H2599 0.960 . S
C2612 C2611 1.524 . S
C2613 C2610 1.343 1_545 S
C2613 C2614 1.451 . S
C2613 C2617 1.498 . S
C2614 C2613 1.451 . S
C2614 C2615 1.385 . S
C2614 C2616 1.478 . S
C2615 H2609 0.930 . S
C2615 C2611 1.400 1_545 S
C2615 C2614 1.385 . S
C2616 C2614 1.478 . S
C2616 C2618 1.381 . S
C2616 C2622 1.383 . S
C2617 C2613 1.498 . S
C2617 H2623 0.959 1_545 S
C2617 H2624 0.961 . S
C2617 H2625 0.960 . S
C2618 C2616 1.381 . S
C2618 C2619 1.394 . S
C2618 H2626 0.930 . S
C2619 C2618 1.394 . S
C2619 C2620 1.383 . S
C2619 H2627 0.929 . S
C2620 C2619 1.383 . S
C2620 C2621 1.377 . S
C2621 H2605 0.930 . S
C2621 C2620 1.377 . S
C2621 C2622 1.379 . S
C2622 H2606 0.931 . S
C2622 C2616 1.383 . S
C2622 C2621 1.379 . S
H2623 C2617 0.959 1_565 S
H2624 C2617 0.961 . S
H2625 C2617 0.960 . S
H2626 C2618 0.930 . S
H2627 C2619 0.929 . S
H2628 C2636 0.929 . S
H2629 C2638 0.930 . S
H2630 C2640 0.930 . S
H2631 C2643 0.929 . S
H2632 C2646 0.930 . S
H2633 C2648 0.960 . S
H2634 C2648 0.960 . S
H2635 C2648 0.960 . S
C2636 H2628 0.929 . S
C2636 C2637 1.377 . S
C2636 C2638 1.384 . S
C2637 C2636 1.377 . S
C2637 C2643 1.390 . S
C2638 H2629 0.930 . S
C2638 C2636 1.384 . S
C2638 C2639 1.372 . S
C2639 C2638 1.372 . S
C2639 C2640 1.400 . S
C2639 C2644 1.490 . S
C2640 H2630 0.930 . S
C2640 C2639 1.400 . S
C2640 C2643 1.386 . S
H2641 C2657 0.930 . S
H2642 C2658 0.931 . S
C2643 H2631 0.929 . S
C2643 C2637 1.390 . S
C2643 C2640 1.386 . S
C2644 C2639 1.490 . S
C2644 C2646 1.395 . S
C2644 C2647 1.403 . S
H2645 C2651 0.930 1_655 S
C2646 H2632 0.930 . S
C2646 C2644 1.395 . S
C2646 C2649 1.403 . S
C2647 C2644 1.403 . S
C2647 C2648 1.524 . S
C2647 C2651 1.400 . S
C2648 H2633 0.960 . S
C2648 H2634 0.960 . S
C2648 H2635 0.960 . S
C2648 C2647 1.524 . S
C2649 C2646 1.403 . S
C2649 C2650 1.392 1_455 S
C2649 C2653 1.495 1_455 S
C2650 C2649 1.392 1_655 S
C2650 C2651 1.385 1_655 S
C2650 C2652 1.478 . S
C2651 H2645 0.930 1_455 S
C2651 C2647 1.400 . S
C2651 C2650 1.385 1_455 S
C2652 C2650 1.478 . S
C2652 C2654 1.381 . S
C2652 C2658 1.383 . S
C2653 C2649 1.495 1_655 S
C2653 H2659 0.959 1_655 S
C2653 H2660 0.961 . S
C2653 H2661 0.960 . S
C2654 C2652 1.381 . S
C2654 C2655 1.394 . S
C2654 H2662 0.930 . S
C2655 C2654 1.394 . S
C2655 C2656 1.383 . S
C2655 H2663 0.929 . S
C2656 C2655 1.383 . S
C2656 C2657 1.377 . S
C2657 H2641 0.930 . S
C2657 C2656 1.377 . S
C2657 C2658 1.379 . S
C2658 H2642 0.931 . S
C2658 C2652 1.383 . S
C2658 C2657 1.379 . S
H2659 C2653 0.959 1_455 S
H2660 C2653 0.961 . S
H2661 C2653 0.960 . S
H2662 C2654 0.930 . S
H2663 C2655 0.929 . S
H2664 C2672 0.929 . S
H2665 C2674 0.930 . S
H2666 C2676 0.930 . S
H2667 C2679 0.929 . S
H2668 C2682 0.930 . S
H2669 C2684 0.960 . S
H2670 C2684 0.960 . S
H2671 C2684 0.960 . S
C2672 H2664 0.929 . S
C2672 C2673 1.377 . S
C2672 C2674 1.384 . S
C2673 C2672 1.377 . S
C2673 C2679 1.390 . S
C2674 H2665 0.930 . S
C2674 C2672 1.384 . S
C2674 C2675 1.372 . S
C2675 C2674 1.372 . S
C2675 C2676 1.400 . S
C2675 C2680 1.490 . S
C2676 H2666 0.930 . S
C2676 C2675 1.400 . S
C2676 C2679 1.386 . S
H2677 C2693 0.930 . S
H2678 C2694 0.931 . S
C2679 H2667 0.929 . S
C2679 C2673 1.390 . S
C2679 C2676 1.386 . S
C2680 C2675 1.490 . S
C2680 C2682 1.395 . S
C2680 C2683 1.403 . S
H2681 C2687 0.930 . S
C2682 H2668 0.930 . S
C2682 C2680 1.395 . S
C2682 C2685 1.403 . S
C2683 C2680 1.403 . S
C2683 C2684 1.524 . S
C2683 C2687 1.400 . S
C2684 H2669 0.960 . S
C2684 H2670 0.960 . S
C2684 H2671 0.960 . S
C2684 C2683 1.524 . S
C2685 C2682 1.403 . S
C2685 C2686 1.392 . S
C2685 C2689 1.495 . S
C2686 C2685 1.392 . S
C2686 C2687 1.385 . S
C2686 C2688 1.478 . S
C2687 H2681 0.930 . S
C2687 C2683 1.400 . S
C2687 C2686 1.385 . S
C2688 C2686 1.478 . S
C2688 C2690 1.381 . S
C2688 C2694 1.383 . S
C2689 C2685 1.495 . S
C2689 H2695 0.959 . S
C2689 H2696 0.961 . S
C2689 H2697 0.960 . S
C2690 C2688 1.381 . S
C2690 C2691 1.394 . S
C2690 H2698 0.930 . S
C2691 C2690 1.394 . S
C2691 C2692 1.383 . S
C2691 H2699 0.929 . S
C2692 C2691 1.383 . S
C2692 C2693 1.377 . S
C2693 H2677 0.930 . S
C2693 C2692 1.377 . S
C2693 C2694 1.379 . S
C2694 H2678 0.931 . S
C2694 C2688 1.383 . S
C2694 C2693 1.379 . S
H2695 C2689 0.959 . S
H2696 C2689 0.961 . S
H2697 C2689 0.960 . S
H2698 C2690 0.930 . S
H2699 C2691 0.929 . S
H2700 C2708 0.929 . S
H2701 C2710 0.930 . S
H2702 C2712 0.930 . S
H2703 C2715 0.929 . S
H2704 C2718 0.930 . S
H2705 C2720 0.960 . S
H2706 C2720 0.960 . S
H2707 C2720 0.960 . S
C2708 H2700 0.929 . S
C2708 C2709 1.377 . S
C2708 C2710 1.384 . S
C2709 C2708 1.377 . S
C2709 C2715 1.390 . S
C2710 H2701 0.930 . S
C2710 C2708 1.384 . S
C2710 C2711 1.372 . S
C2711 C2710 1.372 . S
C2711 C2712 1.400 . S
C2711 C2716 1.490 . S
C2712 H2702 0.930 . S
C2712 C2711 1.400 . S
C2712 C2715 1.386 . S
H2713 C2729 0.930 . S
H2714 C2730 0.931 . S
C2715 H2703 0.929 . S
C2715 C2709 1.390 . S
C2715 C2712 1.386 . S
C2716 C2711 1.490 . S
C2716 C2718 1.395 . S
C2716 C2719 1.403 . S
H2717 C2723 0.930 . S
C2718 H2704 0.930 . S
C2718 C2716 1.395 . S
C2718 C2721 1.403 1_565 S
C2719 C2716 1.403 . S
C2719 C2720 1.524 . S
C2719 C2723 1.400 1_565 S
C2720 H2705 0.960 . S
C2720 H2706 0.960 . S
C2720 H2707 0.960 . S
C2720 C2719 1.524 . S
C2721 C2718 1.403 1_545 S
C2721 C2722 1.392 . S
C2721 C2725 1.495 . S
C2722 C2721 1.392 . S
C2722 C2723 1.385 . S
C2722 C2724 1.478 . S
C2723 H2717 0.930 . S
C2723 C2719 1.400 1_545 S
C2723 C2722 1.385 . S
C2724 C2722 1.478 . S
C2724 C2726 1.381 . S
C2724 C2730 1.383 . S
C2725 C2721 1.495 . S
C2725 H2731 0.959 . S
C2725 H2732 0.961 . S
C2725 H2733 0.960 . S
C2726 C2724 1.381 . S
C2726 C2727 1.394 . S
C2726 H2734 0.930 . S
C2727 C2726 1.394 . S
C2727 C2728 1.383 . S
C2727 H2735 0.929 . S
C2728 C2727 1.383 . S
C2728 C2729 1.377 . S
C2729 H2713 0.930 . S
C2729 C2728 1.377 . S
C2729 C2730 1.379 . S
C2730 H2714 0.931 . S
C2730 C2724 1.383 . S
C2730 C2729 1.379 . S
H2731 C2725 0.959 . S
H2732 C2725 0.961 . S
H2733 C2725 0.960 . S
H2734 C2726 0.930 . S
H2735 C2727 0.929 . S
H2736 C2744 0.929 . S
H2737 C2746 0.930 . S
H2738 C2748 0.930 . S
H2739 C2751 0.929 . S
H2740 C2754 0.930 . S
H2741 C2756 0.960 1_655 S
H2742 C2756 0.960 . S
H2743 C2756 0.960 . S
C2744 H2736 0.929 . S
C2744 C2745 1.377 . S
C2744 C2746 1.384 . S
C2745 C2744 1.377 . S
C2745 C2751 1.390 . S
C2746 H2737 0.930 . S
C2746 C2744 1.384 . S
C2746 C2747 1.372 . S
C2747 C2746 1.372 . S
C2747 C2748 1.400 . S
C2747 C2752 1.490 . S
C2748 H2738 0.930 . S
C2748 C2747 1.400 . S
C2748 C2751 1.386 . S
H2749 C2765 0.930 . S
H2750 C2766 0.931 . S
C2751 H2739 0.929 . S
C2751 C2745 1.390 . S
C2751 C2748 1.386 . S
C2752 C2747 1.490 . S
C2752 C2754 1.395 . S
C2752 C2755 1.403 . S
H2753 C2759 0.930 . S
C2754 H2740 0.930 . S
C2754 C2752 1.395 . S
C2754 C2757 1.403 1_455 S
C2755 C2752 1.403 . S
C2755 C2756 1.524 . S
C2755 C2759 1.400 1_455 S
C2756 H2741 0.960 1_455 S
C2756 H2742 0.960 . S
C2756 H2743 0.960 . S
C2756 C2755 1.524 . S
C2757 C2754 1.403 1_655 S
C2757 C2758 1.392 . S
C2757 C2761 1.495 . S
C2758 C2757 1.392 . S
C2758 C2759 1.385 . S
C2758 C2760 1.478 . S
C2759 H2753 0.930 . S
C2759 C2755 1.400 1_655 S
C2759 C2758 1.385 . S
C2760 C2758 1.478 . S
C2760 C2762 1.381 . S
C2760 C2766 1.383 . S
C2761 C2757 1.495 . S
C2761 H2767 0.959 1_655 S
C2761 H2768 0.961 . S
C2761 H2769 0.960 . S
C2762 C2760 1.381 . S
C2762 C2763 1.394 . S
C2762 H2770 0.930 . S
C2763 C2762 1.394 . S
C2763 C2764 1.383 . S
C2763 H2771 0.929 . S
C2764 C2763 1.383 . S
C2764 C2765 1.377 . S
C2765 H2749 0.930 . S
C2765 C2764 1.377 . S
C2765 C2766 1.379 . S
C2766 H2750 0.931 . S
C2766 C2760 1.383 . S
C2766 C2765 1.379 . S
H2767 C2761 0.959 1_455 S
H2768 C2761 0.961 . S
H2769 C2761 0.960 . S
H2770 C2762 0.930 . S
H2771 C2763 0.929 . S
H2772 C2780 0.929 . S
H2773 C2782 0.930 1_556 S
H2774 C2784 0.930 1_556 S
H2775 C2787 0.929 . S
H2776 C2790 0.930 . S
H2777 C2792 0.960 . S
H2778 C2792 0.960 . S
H2779 C2792 0.960 . S
C2780 H2772 0.929 . S
C2780 C2781 1.377 . S
C2780 C2782 1.384 . S
C2781 C2780 1.377 . S
C2781 C2787 1.390 . S
C2782 H2773 0.930 1_554 S
C2782 C2780 1.384 . S
C2782 C2783 1.372 1_554 S
C2783 C2782 1.372 1_556 S
C2783 C2784 1.400 1_556 S
C2783 C2788 1.490 . S
C2784 H2774 0.930 1_554 S
C2784 C2783 1.400 1_554 S
C2784 C2787 1.386 . S
H2785 C2801 0.930 . S
H2786 C2802 0.931 . S
C2787 H2775 0.929 . S
C2787 C2781 1.390 . S
C2787 C2784 1.386 . S
C2788 C2783 1.490 . S
C2788 C2790 1.395 . S
C2788 C2791 1.403 . S
H2789 C2795 0.930 . S
C2790 H2776 0.930 . S
C2790 C2788 1.395 . S
C2790 C2793 1.403 . S
C2791 C2788 1.403 . S
C2791 C2792 1.524 . S
C2791 C2795 1.400 . S
C2792 H2777 0.960 . S
C2792 H2778 0.960 . S
C2792 H2779 0.960 . S
C2792 C2791 1.524 . S
C2793 C2790 1.403 . S
C2793 C2794 1.392 . S
C2793 C2797 1.495 . S
C2794 C2793 1.392 . S
C2794 C2795 1.385 . S
C2794 C2796 1.478 . S
C2795 H2789 0.930 . S
C2795 C2791 1.400 . S
C2795 C2794 1.385 . S
C2796 C2794 1.478 . S
C2796 C2798 1.381 . S
C2796 C2802 1.383 . S
C2797 C2793 1.495 . S
C2797 H2803 0.959 . S
C2797 H2804 0.961 . S
C2797 H2805 0.960 . S
C2798 C2796 1.381 . S
C2798 C2799 1.394 . S
C2798 H2806 0.930 . S
C2799 C2798 1.394 . S
C2799 C2800 1.383 . S
C2799 H2807 0.929 . S
C2800 C2799 1.383 . S
C2800 C2801 1.377 . S
C2801 H2785 0.930 . S
C2801 C2800 1.377 . S
C2801 C2802 1.379 . S
C2802 H2786 0.931 . S
C2802 C2796 1.383 . S
C2802 C2801 1.379 . S
H2803 C2797 0.959 . S
H2804 C2797 0.961 . S
H2805 C2797 0.960 . S
H2806 C2798 0.930 . S
H2807 C2799 0.929 . S
H2808 C2816 0.929 . S
H2809 C2818 0.930 1_556 S
H2810 C2820 0.928 . S
H2811 C2823 0.929 . S
H2812 C2826 0.930 . S
H2813 C2828 0.960 . S
H2814 C2828 0.960 . S
H2815 C2828 0.960 . S
C2816 H2808 0.929 . S
C2816 C2817 1.377 . S
C2816 C2818 1.384 . S
C2817 C2816 1.377 . S
C2817 C2823 1.390 . S
C2818 H2809 0.930 1_554 S
C2818 C2816 1.384 . S
C2818 C2819 1.372 1_554 S
C2819 C2818 1.372 1_556 S
C2819 C2820 1.398 . S
C2819 C2824 1.490 . S
C2820 H2810 0.928 . S
C2820 C2819 1.398 . S
C2820 C2823 1.388 1_556 S
H2821 C2837 0.930 . S
H2822 C2838 0.931 . S
C2823 H2811 0.929 . S
C2823 C2817 1.390 . S
C2823 C2820 1.388 1_554 S
C2824 C2819 1.490 . S
C2824 C2826 1.395 . S
C2824 C2827 1.403 . S
H2825 C2831 0.930 . S
C2826 H2812 0.930 . S
C2826 C2824 1.395 . S
C2826 C2829 1.403 . S
C2827 C2824 1.403 . S
C2827 C2828 1.524 . S
C2827 C2831 1.400 . S
C2828 H2813 0.960 . S
C2828 H2814 0.960 . S
C2828 H2815 0.960 . S
C2828 C2827 1.524 . S
C2829 C2826 1.403 . S
C2829 C2830 1.392 . S
C2829 C2833 1.495 . S
C2830 C2829 1.392 . S
C2830 C2831 1.385 . S
C2830 C2832 1.478 . S
C2831 H2825 0.930 . S
C2831 C2827 1.400 . S
C2831 C2830 1.385 . S
C2832 C2830 1.478 . S
C2832 C2834 1.381 . S
C2832 C2838 1.383 . S
C2833 C2829 1.495 . S
C2833 H2839 0.959 . S
C2833 H2840 0.961 . S
C2833 H2841 0.960 . S
C2834 C2832 1.381 . S
C2834 C2835 1.394 . S
C2834 H2842 0.930 . S
C2835 C2834 1.394 . S
C2835 C2836 1.383 . S
C2835 H2843 0.929 . S
C2836 C2835 1.383 . S
C2836 C2837 1.377 . S
C2837 H2821 0.930 . S
C2837 C2836 1.377 . S
C2837 C2838 1.379 . S
C2838 H2822 0.931 . S
C2838 C2832 1.383 . S
C2838 C2837 1.379 . S
H2839 C2833 0.959 . S
H2840 C2833 0.961 . S
H2841 C2833 0.960 . S
H2842 C2834 0.930 . S
H2843 C2835 0.929 . S
H2844 C2852 0.929 . S
H2845 C2854 0.930 1_556 S
H2846 C2856 0.930 1_556 S
H2847 C2859 0.929 . S
H2848 C2862 0.930 . S
H2849 C2864 0.960 . S
H2850 C2864 0.960 . S
H2851 C2864 0.960 . S
C2852 H2844 0.929 . S
C2852 C2853 1.377 . S
C2852 C2854 1.384 . S
C2853 C2852 1.377 . S
C2853 C2859 1.390 . S
C2854 H2845 0.930 1_554 S
C2854 C2852 1.384 . S
C2854 C2855 1.372 1_554 S
C2855 C2854 1.372 1_556 S
C2855 C2856 1.400 1_556 S
C2855 C2860 1.490 . S
C2856 H2846 0.930 1_554 S
C2856 C2855 1.400 1_554 S
C2856 C2859 1.386 . S
H2857 C2873 0.930 . S
H2858 C2874 0.931 . S
C2859 H2847 0.929 . S
C2859 C2853 1.390 . S
C2859 C2856 1.386 . S
C2860 C2855 1.490 . S
C2860 C2862 1.395 . S
C2860 C2863 1.403 . S
H2861 C2867 0.930 . S
C2862 H2848 0.930 . S
C2862 C2860 1.395 . S
C2862 C2865 1.403 . S
C2863 C2860 1.403 . S
C2863 C2864 1.524 . S
C2863 C2867 1.400 . S
C2864 H2849 0.960 . S
C2864 H2850 0.960 . S
C2864 H2851 0.960 . S
C2864 C2863 1.524 . S
C2865 C2862 1.403 . S
C2865 C2866 1.392 . S
C2865 C2869 1.495 . S
C2866 C2865 1.392 . S
C2866 C2867 1.385 . S
C2866 C2868 1.478 . S
C2867 H2861 0.930 . S
C2867 C2863 1.400 . S
C2867 C2866 1.385 . S
C2868 C2866 1.478 . S
C2868 C2870 1.381 . S
C2868 C2874 1.383 . S
C2869 C2865 1.495 . S
C2869 H2875 0.959 . S
C2869 H2876 0.961 . S
C2869 H2877 0.960 . S
C2870 C2868 1.381 . S
C2870 C2871 1.394 . S
C2870 H2878 0.930 . S
C2871 C2870 1.394 . S
C2871 C2872 1.383 . S
C2871 H2879 0.929 . S
C2872 C2871 1.383 . S
C2872 C2873 1.377 . S
C2873 H2857 0.930 . S
C2873 C2872 1.377 . S
C2873 C2874 1.379 . S
C2874 H2858 0.931 . S
C2874 C2868 1.383 . S
C2874 C2873 1.379 . S
H2875 C2869 0.959 . S
H2876 C2869 0.961 . S
H2877 C2869 0.960 . S
H2878 C2870 0.930 . S
H2879 C2871 0.929 . S
H2880 C2888 0.929 . S
H2881 C2890 0.930 . S
H2882 C2892 0.930 . S
H2883 C2895 0.929 . S
H2884 C2898 0.930 . S
H2885 C2900 0.960 . S
H2886 C2900 0.960 . S
H2887 C2900 0.960 . S
C2888 H2880 0.929 . S
C2888 C2889 1.377 . S
C2888 C2890 1.384 . S
C2889 C2888 1.377 . S
C2889 C2895 1.390 . S
C2890 H2881 0.930 . S
C2890 C2888 1.384 . S
C2890 C2891 1.372 . S
C2891 C2890 1.372 . S
C2891 C2892 1.400 . S
C2891 C2896 1.490 . S
C2892 H2882 0.930 . S
C2892 C2891 1.400 . S
C2892 C2895 1.386 . S
H2893 C2909 0.930 . S
H2894 C2910 0.931 . S
C2895 H2883 0.929 . S
C2895 C2889 1.390 . S
C2895 C2892 1.386 . S
C2896 C2891 1.490 . S
C2896 C2898 1.395 . S
C2896 C2899 1.403 . S
H2897 C2903 0.930 . S
C2898 H2884 0.930 . S
C2898 C2896 1.395 . S
C2898 C2901 1.403 . S
C2899 C2896 1.403 . S
C2899 C2900 1.524 . S
C2899 C2903 1.400 . S
C2900 H2885 0.960 . S
C2900 H2886 0.960 . S
C2900 H2887 0.960 . S
C2900 C2899 1.524 . S
C2901 C2898 1.403 . S
C2901 C2902 1.392 . S
C2901 C2905 1.495 . S
C2902 C2901 1.392 . S
C2902 C2903 1.385 . S
C2902 C2904 1.478 . S
C2903 H2897 0.930 . S
C2903 C2899 1.400 . S
C2903 C2902 1.385 . S
C2904 C2902 1.478 . S
C2904 C2906 1.381 . S
C2904 C2910 1.383 . S
C2905 C2901 1.495 . S
C2905 H2911 0.959 . S
C2905 H2912 0.961 . S
C2905 H2913 0.960 . S
C2906 C2904 1.381 . S
C2906 C2907 1.394 . S
C2906 H2914 0.930 . S
C2907 C2906 1.394 . S
C2907 C2908 1.383 . S
C2907 H2915 0.929 . S
C2908 C2907 1.383 . S
C2908 C2909 1.377 . S
C2909 H2893 0.930 . S
C2909 C2908 1.377 . S
C2909 C2910 1.379 . S
C2910 H2894 0.931 . S
C2910 C2904 1.383 . S
C2910 C2909 1.379 . S
H2911 C2905 0.959 . S
H2912 C2905 0.961 . S
H2913 C2905 0.960 . S
H2914 C2906 0.930 . S
H2915 C2907 0.929 . S
H2916 C2924 0.929 . S
H2917 C2926 0.930 . S
H2918 C2928 0.930 . S
H2919 C2931 0.929 . S
H2920 C2934 0.930 . S
H2921 C2936 0.960 . S
H2922 C2936 0.960 . S
H2923 C2936 0.960 . S
C2924 H2916 0.929 . S
C2924 C2925 1.377 . S
C2924 C2926 1.384 . S
C2925 C2924 1.377 . S
C2925 C2931 1.390 . S
C2926 H2917 0.930 . S
C2926 C2924 1.384 . S
C2926 C2927 1.372 . S
C2927 C2926 1.372 . S
C2927 C2928 1.400 . S
C2927 C2932 1.490 . S
C2928 H2918 0.930 . S
C2928 C2927 1.400 . S
C2928 C2931 1.386 . S
H2929 C2945 0.930 . S
H2930 C2946 0.931 . S
C2931 H2919 0.929 . S
C2931 C2925 1.390 . S
C2931 C2928 1.386 . S
C2932 C2927 1.490 . S
C2932 C2934 1.395 . S
C2932 C2935 1.403 . S
H2933 C2939 0.930 . S
C2934 H2920 0.930 . S
C2934 C2932 1.395 . S
C2934 C2937 1.403 . S
C2935 C2932 1.403 . S
C2935 C2936 1.524 . S
C2935 C2939 1.400 . S
C2936 H2921 0.960 . S
C2936 H2922 0.960 . S
C2936 H2923 0.960 . S
C2936 C2935 1.524 . S
C2937 C2934 1.403 . S
C2937 C2938 1.392 . S
C2937 C2941 1.495 . S
C2938 C2937 1.392 . S
C2938 C2939 1.385 . S
C2938 C2940 1.478 . S
C2939 H2933 0.930 . S
C2939 C2935 1.400 . S
C2939 C2938 1.385 . S
C2940 C2938 1.478 . S
C2940 C2942 1.381 . S
C2940 C2946 1.383 . S
C2941 C2937 1.495 . S
C2941 H2947 0.959 . S
C2941 H2948 0.961 . S
C2941 H2949 0.960 . S
C2942 C2940 1.381 . S
C2942 C2943 1.394 . S
C2942 H2950 0.930 . S
C2943 C2942 1.394 . S
C2943 C2944 1.383 . S
C2943 H2951 0.929 . S
C2944 C2943 1.383 . S
C2944 C2945 1.377 . S
C2945 H2929 0.930 . S
C2945 C2944 1.377 . S
C2945 C2946 1.379 . S
C2946 H2930 0.931 . S
C2946 C2940 1.383 . S
C2946 C2945 1.379 . S
H2947 C2941 0.959 . S
H2948 C2941 0.961 . S
H2949 C2941 0.960 . S
H2950 C2942 0.930 . S
H2951 C2943 0.929 . S
H2952 C2960 0.929 . S
H2953 C2962 0.930 . S
H2954 C2964 0.930 . S
H2955 C2967 0.929 . S
H2956 C2970 0.930 . S
H2957 C2972 0.960 . S
H2958 C2972 0.960 . S
H2959 C2972 0.960 . S
C2960 H2952 0.929 . S
C2960 C2961 1.377 . S
C2960 C2962 1.384 . S
C2961 C2960 1.377 . S
C2961 C2967 1.390 . S
C2962 H2953 0.930 . S
C2962 C2960 1.384 . S
C2962 C2963 1.372 . S
C2963 C2962 1.372 . S
C2963 C2964 1.400 . S
C2963 C2968 1.490 . S
C2964 H2954 0.930 . S
C2964 C2963 1.400 . S
C2964 C2967 1.386 . S
H2965 C2981 0.930 . S
H2966 C2982 0.931 . S
C2967 H2955 0.929 . S
C2967 C2961 1.390 . S
C2967 C2964 1.386 . S
C2968 C2963 1.490 . S
C2968 C2970 1.395 . S
C2968 C2971 1.403 . S
H2969 C2975 0.930 . S
C2970 H2956 0.930 . S
C2970 C2968 1.395 . S
C2970 C2973 1.403 . S
C2971 C2968 1.403 . S
C2971 C2972 1.524 . S
C2971 C2975 1.400 . S
C2972 H2957 0.960 . S
C2972 H2958 0.960 . S
C2972 H2959 0.960 . S
C2972 C2971 1.524 . S
C2973 C2970 1.403 . S
C2973 C2974 1.392 . S
C2973 C2977 1.495 . S
C2974 C2973 1.392 . S
C2974 C2975 1.385 . S
C2974 C2976 1.478 . S
C2975 H2969 0.930 . S
C2975 C2971 1.400 . S
C2975 C2974 1.385 . S
C2976 C2974 1.478 . S
C2976 C2978 1.381 . S
C2976 C2982 1.383 . S
C2977 C2973 1.495 . S
C2977 H2983 0.959 . S
C2977 H2984 0.961 . S
C2977 H2985 0.960 . S
C2978 C2976 1.381 . S
C2978 C2979 1.394 . S
C2978 H2986 0.930 . S
C2979 C2978 1.394 . S
C2979 C2980 1.383 . S
C2979 H2987 0.929 . S
C2980 C2979 1.383 . S
C2980 C2981 1.377 . S
C2981 H2965 0.930 . S
C2981 C2980 1.377 . S
C2981 C2982 1.379 . S
C2982 H2966 0.931 . S
C2982 C2976 1.383 . S
C2982 C2981 1.379 . S
H2983 C2977 0.959 . S
H2984 C2977 0.961 . S
H2985 C2977 0.960 . S
H2986 C2978 0.930 . S
H2987 C2979 0.929 . S
H2988 C2996 0.929 . S
H2989 C2998 0.930 . S
H2990 C3000 0.930 . S
H2991 C3003 0.929 . S
H2992 C3006 0.930 . S
H2993 C3008 0.960 . S
H2994 C3008 0.960 . S
H2995 C3008 0.960 . S
C2996 H2988 0.929 . S
C2996 C2997 1.377 . S
C2996 C2998 1.384 . S
C2997 C2996 1.377 . S
C2997 C3003 1.390 . S
C2998 H2989 0.930 . S
C2998 C2996 1.384 . S
C2998 C2999 1.372 . S
C2999 C2998 1.372 . S
C2999 C3000 1.400 . S
C2999 C3004 1.490 . S
C3000 H2990 0.930 . S
C3000 C2999 1.400 . S
C3000 C3003 1.386 . S
H3001 C3017 0.930 . S
H3002 C3018 0.931 1_554 S
C3003 H2991 0.929 . S
C3003 C2997 1.390 . S
C3003 C3000 1.386 . S
C3004 C2999 1.490 . S
C3004 C3006 1.395 . S
C3004 C3007 1.403 . S
H3005 C3011 0.930 . S
C3006 H2992 0.930 . S
C3006 C3004 1.395 . S
C3006 C3009 1.403 . S
C3007 C3004 1.403 . S
C3007 C3008 1.524 . S
C3007 C3011 1.400 . S
C3008 H2993 0.960 . S
C3008 H2994 0.960 . S
C3008 H2995 0.960 . S
C3008 C3007 1.524 . S
C3009 C3006 1.403 . S
C3009 C3010 1.392 . S
C3009 C3013 1.495 . S
C3010 C3009 1.392 . S
C3010 C3011 1.385 . S
C3010 C3012 1.478 . S
C3011 H3005 0.930 . S
C3011 C3007 1.400 . S
C3011 C3010 1.385 . S
C3012 C3010 1.478 . S
C3012 C3014 1.381 1_554 S
C3012 C3018 1.383 1_554 S
C3013 C3009 1.495 . S
C3013 H3019 0.959 . S
C3013 H3020 0.961 . S
C3013 H3021 0.960 . S
C3014 C3012 1.381 1_556 S
C3014 C3015 1.394 . S
C3014 H3022 0.930 1_556 S
C3015 C3014 1.394 . S
C3015 C3016 1.383 . S
C3015 H3023 0.929 . S
C3016 C3015 1.383 . S
C3016 C3017 1.377 . S
C3017 H3001 0.930 . S
C3017 C3016 1.377 . S
C3017 C3018 1.379 . S
C3018 H3002 0.931 1_556 S
C3018 C3012 1.383 1_556 S
C3018 C3017 1.379 . S
H3019 C3013 0.959 . S
H3020 C3013 0.961 . S
H3021 C3013 0.960 . S
H3022 C3014 0.930 1_554 S
H3023 C3015 0.929 . S
H3024 C3032 0.929 . S
H3025 C3034 0.930 . S
H3026 C3036 0.930 . S
H3027 C3039 0.929 . S
H3028 C3042 0.930 . S
H3029 C3044 0.960 . S
H3030 C3044 0.960 . S
H3031 C3044 0.960 . S
C3032 H3024 0.929 . S
C3032 C3033 1.377 . S
C3032 C3034 1.384 . S
C3033 C3032 1.377 . S
C3033 C3039 1.390 . S
C3034 H3025 0.930 . S
C3034 C3032 1.384 . S
C3034 C3035 1.372 . S
C3035 C3034 1.372 . S
C3035 C3036 1.400 . S
C3035 C3040 1.490 . S
C3036 H3026 0.930 . S
C3036 C3035 1.400 . S
C3036 C3039 1.386 . S
H3037 C3053 0.930 . S
H3038 C3054 0.931 1_554 S
C3039 H3027 0.929 . S
C3039 C3033 1.390 . S
C3039 C3036 1.386 . S
C3040 C3035 1.490 . S
C3040 C3042 1.395 . S
C3040 C3043 1.403 . S
H3041 C3047 0.930 . S
C3042 H3028 0.930 . S
C3042 C3040 1.395 . S
C3042 C3045 1.403 . S
C3043 C3040 1.403 . S
C3043 C3044 1.524 . S
C3043 C3047 1.400 . S
C3044 H3029 0.960 . S
C3044 H3030 0.960 . S
C3044 H3031 0.960 . S
C3044 C3043 1.524 . S
C3045 C3042 1.403 . S
C3045 C3046 1.392 . S
C3045 C3049 1.495 . S
C3046 C3045 1.392 . S
C3046 C3047 1.385 . S
C3046 C3048 1.478 . S
C3047 H3041 0.930 . S
C3047 C3043 1.400 . S
C3047 C3046 1.385 . S
C3048 C3046 1.478 . S
C3048 C3050 1.381 1_554 S
C3048 C3054 1.383 1_554 S
C3049 C3045 1.495 . S
C3049 H3055 0.959 . S
C3049 H3056 0.961 . S
C3049 H3057 0.960 . S
C3050 C3048 1.381 1_556 S
C3050 C3051 1.394 . S
C3050 H3058 0.930 1_556 S
C3051 C3050 1.394 . S
C3051 C3052 1.383 . S
C3051 H3059 0.929 . S
C3052 C3051 1.383 . S
C3052 C3053 1.377 . S
C3053 H3037 0.930 . S
C3053 C3052 1.377 . S
C3053 C3054 1.379 . S
C3054 H3038 0.931 1_556 S
C3054 C3048 1.383 1_556 S
C3054 C3053 1.379 . S
H3055 C3049 0.959 . S
H3056 C3049 0.961 . S
H3057 C3049 0.960 . S
H3058 C3050 0.930 1_554 S
H3059 C3051 0.929 . S
H3060 C3068 0.929 . S
H3061 C3070 0.930 . S
H3062 C3072 0.930 . S
H3063 C3075 0.929 . S
H3064 C3078 0.930 . S
H3065 C3080 0.960 . S
H3066 C3080 0.960 . S
H3067 C3080 0.960 . S
C3068 H3060 0.929 . S
C3068 C3069 1.377 . S
C3068 C3070 1.384 . S
C3069 C3068 1.377 . S
C3069 C3075 1.390 . S
C3070 H3061 0.930 . S
C3070 C3068 1.384 . S
C3070 C3071 1.372 . S
C3071 C3070 1.372 . S
C3071 C3072 1.400 . S
C3071 C3076 1.490 . S
C3072 H3062 0.930 . S
C3072 C3071 1.400 . S
C3072 C3075 1.386 . S
H3073 C3089 0.930 . S
H3074 C3090 0.950 . S
C3075 H3063 0.929 . S
C3075 C3069 1.390 . S
C3075 C3072 1.386 . S
C3076 C3071 1.490 . S
C3076 C3078 1.395 . S
C3076 C3079 1.403 . S
H3077 C3083 0.930 . S
C3078 H3064 0.930 . S
C3078 C3076 1.395 . S
C3078 C3081 1.403 . S
C3079 C3076 1.403 . S
C3079 C3080 1.524 . S
C3079 C3083 1.400 . S
C3080 H3065 0.960 . S
C3080 H3066 0.960 . S
C3080 H3067 0.960 . S
C3080 C3079 1.524 . S
C3081 C3078 1.403 . S
C3081 C3082 1.392 . S
C3081 C3085 1.495 . S
C3082 C3081 1.392 . S
C3082 C3083 1.385 . S
C3082 C3084 1.478 . S
C3083 H3077 0.930 . S
C3083 C3079 1.400 . S
C3083 C3082 1.385 . S
C3084 C3082 1.478 . S
C3084 C3086 1.381 1_554 S
C3084 C3090 1.397 . S
C3085 C3081 1.495 . S
C3085 H3091 0.959 . S
C3085 H3092 0.961 . S
C3085 H3093 0.960 . S
C3086 C3084 1.381 1_556 S
C3086 C3087 1.394 . S
C3086 H3094 0.930 1_556 S
C3087 C3086 1.394 . S
C3087 C3088 1.383 . S
C3087 H3095 0.929 . S
C3088 C3087 1.383 . S
C3088 C3089 1.377 . S
C3089 H3073 0.930 . S
C3089 C3088 1.377 . S
C3089 C3090 1.347 1_556 S
C3090 H3074 0.950 . S
C3090 C3084 1.397 . S
C3090 C3089 1.347 1_554 S
H3091 C3085 0.959 . S
H3092 C3085 0.961 . S
H3093 C3085 0.960 . S
H3094 C3086 0.930 1_554 S
H3095 C3087 0.929 . S
H3096 C3104 0.929 . S
H3097 C3106 0.930 . S
H3098 C3108 0.930 . S
H3099 C3111 0.929 . S
H3100 C3114 0.930 . S
H3101 C3116 0.960 . S
H3102 C3116 0.960 . S
H3103 C3116 0.960 . S
C3104 H3096 0.929 . S
C3104 C3105 1.377 . S
C3104 C3106 1.384 . S
C3105 C3104 1.377 . S
C3105 C3111 1.390 . S
C3106 H3097 0.930 . S
C3106 C3104 1.384 . S
C3106 C3107 1.372 . S
C3107 C3106 1.372 . S
C3107 C3108 1.400 . S
C3107 C3112 1.490 . S
C3108 H3098 0.930 . S
C3108 C3107 1.400 . S
C3108 C3111 1.386 . S
H3109 C3125 0.930 . S
H3110 C3126 0.931 . S
C3111 H3099 0.929 . S
C3111 C3105 1.390 . S
C3111 C3108 1.386 . S
C3112 C3107 1.490 . S
C3112 C3114 1.395 . S
C3112 C3115 1.403 . S
H3113 C3119 0.930 . S
C3114 H3100 0.930 . S
C3114 C3112 1.395 . S
C3114 C3117 1.403 . S
C3115 C3112 1.403 . S
C3115 C3116 1.524 . S
C3115 C3119 1.400 . S
C3116 H3101 0.960 . S
C3116 H3102 0.960 . S
C3116 H3103 0.960 . S
C3116 C3115 1.524 . S
C3117 C3114 1.403 . S
C3117 C3118 1.392 . S
C3117 C3121 1.495 . S
C3118 C3117 1.392 . S
C3118 C3119 1.385 . S
C3118 C3120 1.478 . S
C3119 H3113 0.930 . S
C3119 C3115 1.400 . S
C3119 C3118 1.385 . S
C3120 C3118 1.478 . S
C3120 C3122 1.381 . S
C3120 C3126 1.383 . S
C3121 C3117 1.495 . S
C3121 H3127 0.959 . S
C3121 H3128 0.961 . S
C3121 H3129 0.960 . S
C3122 C3120 1.381 . S
C3122 C3123 1.394 . S
C3122 H3130 0.930 . S
C3123 C3122 1.394 . S
C3123 C3124 1.383 . S
C3123 H3131 0.929 . S
C3124 C3123 1.383 . S
C3124 C3125 1.377 . S
C3125 H3109 0.930 . S
C3125 C3124 1.377 . S
C3125 C3126 1.379 . S
C3126 H3110 0.931 . S
C3126 C3120 1.383 . S
C3126 C3125 1.379 . S
H3127 C3121 0.959 . S
H3128 C3121 0.961 . S
H3129 C3121 0.960 . S
H3130 C3122 0.930 . S
H3131 C3123 0.929 . S
H3132 C3140 0.929 . S
H3133 C3142 0.930 . S
H3134 C3144 0.930 . S
H3135 C3147 0.929 . S
H3136 C3150 0.930 . S
H3137 C3152 0.960 . S
H3138 C3152 0.960 . S
H3139 C3152 0.960 . S
C3140 H3132 0.929 . S
C3140 C3141 1.377 . S
C3140 C3142 1.384 . S
C3141 C3140 1.377 . S
C3141 C3147 1.390 . S
C3142 H3133 0.930 . S
C3142 C3140 1.384 . S
C3142 C3143 1.372 . S
C3143 C3142 1.372 . S
C3143 C3144 1.400 . S
C3143 C3148 1.490 . S
C3144 H3134 0.930 . S
C3144 C3143 1.400 . S
C3144 C3147 1.386 . S
H3145 C3161 0.930 . S
H3146 C3162 0.931 . S
C3147 H3135 0.929 . S
C3147 C3141 1.390 . S
C3147 C3144 1.386 . S
C3148 C3143 1.490 . S
C3148 C3150 1.395 . S
C3148 C3151 1.403 . S
H3149 C3155 0.930 . S
C3150 H3136 0.930 . S
C3150 C3148 1.395 . S
C3150 C3153 1.403 . S
C3151 C3148 1.403 . S
C3151 C3152 1.524 . S
C3151 C3155 1.400 . S
C3152 H3137 0.960 . S
C3152 H3138 0.960 . S
C3152 H3139 0.960 . S
C3152 C3151 1.524 . S
C3153 C3150 1.403 . S
C3153 C3154 1.392 . S
C3153 C3157 1.495 . S
C3154 C3153 1.392 . S
C3154 C3155 1.385 . S
C3154 C3156 1.478 . S
C3155 H3149 0.930 . S
C3155 C3151 1.400 . S
C3155 C3154 1.385 . S
C3156 C3154 1.478 . S
C3156 C3158 1.381 . S
C3156 C3162 1.383 . S
C3157 C3153 1.495 . S
C3157 H3163 0.959 . S
C3157 H3164 0.961 . S
C3157 H3165 0.960 . S
C3158 C3156 1.381 . S
C3158 C3159 1.394 . S
C3158 H3166 0.930 . S
C3159 C3158 1.394 . S
C3159 C3160 1.383 . S
C3159 H3167 0.929 . S
C3160 C3159 1.383 . S
C3160 C3161 1.377 . S
C3161 H3145 0.930 . S
C3161 C3160 1.377 . S
C3161 C3162 1.379 . S
C3162 H3146 0.931 . S
C3162 C3156 1.383 . S
C3162 C3161 1.379 . S
H3163 C3157 0.959 . S
H3164 C3157 0.961 . S
H3165 C3157 0.960 . S
H3166 C3158 0.930 . S
H3167 C3159 0.929 . S
H3168 C3176 0.929 . S
H3169 C3178 0.930 . S
H3170 C3180 0.930 . S
H3171 C3183 0.929 . S
H3172 C3186 0.930 . S
H3173 C3188 0.960 . S
H3174 C3188 0.960 . S
H3175 C3188 0.960 . S
C3176 H3168 0.929 . S
C3176 C3177 1.377 . S
C3176 C3178 1.384 . S
C3177 C3176 1.377 . S
C3177 C3183 1.390 . S
C3178 H3169 0.930 . S
C3178 C3176 1.384 . S
C3178 C3179 1.372 . S
C3179 C3178 1.372 . S
C3179 C3180 1.400 . S
C3179 C3184 1.490 . S
C3180 H3170 0.930 . S
C3180 C3179 1.400 . S
C3180 C3183 1.386 . S
H3181 C3197 0.930 . S
H3182 C3198 0.931 . S
C3183 H3171 0.929 . S
C3183 C3177 1.390 . S
C3183 C3180 1.386 . S
C3184 C3179 1.490 . S
C3184 C3186 1.395 . S
C3184 C3187 1.403 . S
H3185 C3191 0.930 . S
C3186 H3172 0.930 . S
C3186 C3184 1.395 . S
C3186 C3189 1.403 . S
C3187 C3184 1.403 . S
C3187 C3188 1.524 . S
C3187 C3191 1.400 . S
C3188 H3173 0.960 . S
C3188 H3174 0.960 . S
C3188 H3175 0.960 . S
C3188 C3187 1.524 . S
C3189 C3186 1.403 . S
C3189 C3190 1.392 . S
C3189 C3193 1.495 . S
C3190 C3189 1.392 . S
C3190 C3191 1.385 . S
C3190 C3192 1.478 . S
C3191 H3185 0.930 . S
C3191 C3187 1.400 . S
C3191 C3190 1.385 . S
C3192 C3190 1.478 . S
C3192 C3194 1.381 . S
C3192 C3198 1.383 . S
C3193 C3189 1.495 . S
C3193 H3199 0.959 . S
C3193 H3200 0.961 . S
C3193 H3201 0.960 . S
C3194 C3192 1.381 . S
C3194 C3195 1.394 . S
C3194 H3202 0.930 . S
C3195 C3194 1.394 . S
C3195 C3196 1.383 . S
C3195 H3203 0.929 . S
C3196 C3195 1.383 . S
C3196 C3197 1.377 . S
C3197 H3181 0.930 . S
C3197 C3196 1.377 . S
C3197 C3198 1.379 . S
C3198 H3182 0.931 . S
C3198 C3192 1.383 . S
C3198 C3197 1.379 . S
H3199 C3193 0.959 . S
H3200 C3193 0.961 . S
H3201 C3193 0.960 . S
H3202 C3194 0.930 . S
H3203 C3195 0.929 . S
H3204 C3212 0.929 . S
H3205 C3214 0.930 . S
H3206 C3216 0.930 . S
H3207 C3219 0.929 . S
H3208 C3222 0.930 . S
H3209 C3224 0.960 . S
H3210 C3224 0.960 . S
H3211 C3224 0.960 . S
C3212 H3204 0.929 . S
C3212 C3213 1.307 1_655 S
C3212 C3214 1.384 . S
C3213 C3212 1.307 1_455 S
C3213 C3219 1.471 . S
C3214 H3205 0.930 . S
C3214 C3212 1.384 . S
C3214 C3215 1.372 1_655 S
C3215 C3214 1.372 1_455 S
C3215 C3216 1.400 . S
C3215 C3220 1.490 . S
C3216 H3206 0.930 . S
C3216 C3215 1.400 . S
C3216 C3219 1.386 . S
H3217 C3233 0.930 . S
H3218 C3234 0.931 . S
C3219 H3207 0.929 . S
C3219 C3213 1.471 . S
C3219 C3216 1.386 . S
C3220 C3215 1.490 . S
C3220 C3222 1.395 1_455 S
C3220 C3223 1.403 . S
H3221 C3227 0.930 . S
C3222 H3208 0.930 . S
C3222 C3220 1.395 1_655 S
C3222 C3225 1.403 . S
C3223 C3220 1.403 . S
C3223 C3224 1.524 . S
C3223 C3227 1.400 . S
C3224 H3209 0.960 . S
C3224 H3210 0.960 . S
C3224 H3211 0.960 . S
C3224 C3223 1.524 . S
C3225 C3222 1.403 . S
C3225 C3226 1.392 1_655 S
C3225 C3229 1.495 . S
C3226 C3225 1.392 1_455 S
C3226 C3227 1.385 . S
C3226 C3228 1.478 . S
C3227 H3221 0.930 . S
C3227 C3223 1.400 . S
C3227 C3226 1.385 . S
C3228 C3226 1.478 . S
C3228 C3230 1.381 . S
C3228 C3234 1.383 . S
C3229 C3225 1.495 . S
C3229 H3235 0.959 . S
C3229 H3236 0.961 . S
C3229 H3237 0.960 . S
C3230 C3228 1.381 . S
C3230 C3231 1.394 . S
C3230 H3238 0.930 1_455 S
C3231 C3230 1.394 . S
C3231 C3232 1.383 . S
C3231 H3239 0.929 . S
C3232 C3231 1.383 . S
C3232 C3233 1.377 . S
C3233 H3217 0.930 . S
C3233 C3232 1.377 . S
C3233 C3234 1.379 . S
C3234 H3218 0.931 . S
C3234 C3228 1.383 . S
C3234 C3233 1.379 . S
H3235 C3229 0.959 . S
H3236 C3229 0.961 . S
H3237 C3229 0.960 . S
H3238 C3230 0.930 1_655 S
H3239 C3231 0.929 . S
H3240 C3248 0.929 . S
H3241 C3250 0.930 . S
H3242 C3252 0.930 . S
H3243 C3255 0.929 . S
H3244 C3258 0.930 . S
H3245 C3260 0.960 . S
H3246 C3260 0.960 . S
H3247 C3260 0.960 . S
C3248 H3240 0.929 . S
C3248 C3249 1.377 . S
C3248 C3250 1.384 . S
C3249 C3248 1.377 . S
C3249 C3255 1.390 . S
C3250 H3241 0.930 . S
C3250 C3248 1.384 . S
C3250 C3251 1.372 . S
C3251 C3250 1.372 . S
C3251 C3252 1.400 . S
C3251 C3256 1.490 . S
C3252 H3242 0.930 . S
C3252 C3251 1.400 . S
C3252 C3255 1.386 . S
H3253 C3269 0.930 . S
H3254 C3270 0.931 . S
C3255 H3243 0.929 . S
C3255 C3249 1.390 . S
C3255 C3252 1.386 . S
C3256 C3251 1.490 . S
C3256 C3258 1.395 . S
C3256 C3259 1.403 . S
H3257 C3263 0.930 . S
C3258 H3244 0.930 . S
C3258 C3256 1.395 . S
C3258 C3261 1.403 . S
C3259 C3256 1.403 . S
C3259 C3260 1.524 . S
C3259 C3263 1.400 . S
C3260 H3245 0.960 . S
C3260 H3246 0.960 . S
C3260 H3247 0.960 . S
C3260 C3259 1.524 . S
C3261 C3258 1.403 . S
C3261 C3262 1.392 . S
C3261 C3265 1.495 . S
C3262 C3261 1.392 . S
C3262 C3263 1.385 . S
C3262 C3264 1.478 . S
C3263 H3257 0.930 . S
C3263 C3259 1.400 . S
C3263 C3262 1.385 . S
C3264 C3262 1.478 . S
C3264 C3266 1.381 . S
C3264 C3270 1.383 . S
C3265 C3261 1.495 . S
C3265 H3271 0.959 . S
C3265 H3272 0.961 . S
C3265 H3273 0.960 . S
C3266 C3264 1.381 . S
C3266 C3267 1.394 . S
C3266 H3274 0.930 . S
C3267 C3266 1.394 . S
C3267 C3268 1.383 . S
C3267 H3275 0.929 . S
C3268 C3267 1.383 . S
C3268 C3269 1.377 . S
C3269 H3253 0.930 . S
C3269 C3268 1.377 . S
C3269 C3270 1.379 . S
C3270 H3254 0.931 . S
C3270 C3264 1.383 . S
C3270 C3269 1.379 . S
H3271 C3265 0.959 . S
H3272 C3265 0.961 . S
H3273 C3265 0.960 . S
H3274 C3266 0.930 . S
H3275 C3267 0.929 . S
H3276 C3284 0.929 . S
H3277 C3286 0.930 . S
H3278 C3288 0.930 . S
H3279 C3291 0.929 . S
H3280 C3294 0.930 . S
H3281 C3296 0.960 . S
H3282 C3296 0.960 . S
H3283 C3296 0.960 . S
C3284 H3276 0.929 . S
C3284 C3285 1.377 1_545 S
C3284 C3286 1.384 . S
C3285 C3284 1.377 1_565 S
C3285 C3291 1.390 . S
C3286 H3277 0.930 . S
C3286 C3284 1.384 . S
C3286 C3287 1.350 1_545 S
C3287 C3286 1.350 1_565 S
C3287 C3288 1.423 . S
C3287 C3292 1.489 1_565 S
C3288 H3278 0.930 . S
C3288 C3287 1.423 . S
C3288 C3291 1.386 . S
H3289 C3305 0.930 . S
H3290 C3306 0.931 . S
C3291 H3279 0.929 . S
C3291 C3285 1.390 . S
C3291 C3288 1.386 . S
C3292 C3287 1.489 1_545 S
C3292 C3294 1.397 . S
C3292 C3295 1.401 1_545 S
H3293 C3299 0.930 . S
C3294 H3280 0.930 . S
C3294 C3292 1.397 . S
C3294 C3297 1.403 . S
C3295 C3292 1.401 1_565 S
C3295 C3296 1.524 . S
C3295 C3299 1.400 . S
C3296 H3281 0.960 . S
C3296 H3282 0.960 . S
C3296 H3283 0.960 . S
C3296 C3295 1.524 . S
C3297 C3294 1.403 . S
C3297 C3298 1.392 . S
C3297 C3301 1.495 . S
C3298 C3297 1.392 . S
C3298 C3299 1.385 1_545 S
C3298 C3300 1.478 . S
C3299 H3293 0.930 . S
C3299 C3295 1.400 . S
C3299 C3298 1.385 1_565 S
C3300 C3298 1.478 . S
C3300 C3302 1.381 . S
C3300 C3306 1.383 1_545 S
C3301 C3297 1.495 . S
C3301 H3307 0.959 . S
C3301 H3308 0.961 . S
C3301 H3309 0.960 . S
C3302 C3300 1.381 . S
C3302 C3303 1.394 . S
C3302 H3310 0.930 . S
C3303 C3302 1.394 . S
C3303 C3304 1.457 . S
C3303 H3311 0.929 . S
C3304 C3303 1.457 . S
C3304 C3305 1.305 1_545 S
C3305 H3289 0.930 . S
C3305 C3304 1.305 1_565 S
C3305 C3306 1.379 . S
C3306 H3290 0.931 . S
C3306 C3300 1.383 1_565 S
C3306 C3305 1.379 . S
H3307 C3301 0.959 . S
H3308 C3301 0.961 . S
H3309 C3301 0.960 . S
H3310 C3302 0.930 . S
H3311 C3303 0.929 . S
H3312 C3320 0.905 1_545 S
H3313 C3322 0.930 1_545 S
H3314 C3324 0.930 . S
H3315 C3327 0.929 . S
H3316 C3330 0.932 . S
H3317 C3332 0.960 . S
H3318 C3332 0.960 . S
H3319 C3332 0.960 . S
C3320 H3312 0.905 1_565 S
C3320 C3321 1.377 . S
C3320 C3322 1.384 . S
C3321 C3320 1.377 . S
C3321 C3327 1.390 . S
C3322 H3313 0.930 1_565 S
C3322 C3320 1.384 . S
C3322 C3323 1.372 . S
C3323 C3322 1.372 . S
C3323 C3324 1.400 . S
C3323 C3328 1.490 . S
C3324 H3314 0.930 . S
C3324 C3323 1.400 . S
C3324 C3327 1.386 . S
H3325 C3341 0.997 . S
H3326 C3342 0.931 . S
C3327 H3315 0.929 . S
C3327 C3321 1.390 . S
C3327 C3324 1.386 . S
C3328 C3323 1.490 . S
C3328 C3330 1.395 1_565 S
C3328 C3331 1.403 . S
H3329 C3335 0.930 . S
C3330 H3316 0.932 . S
C3330 C3328 1.395 1_545 S
C3330 C3333 1.402 . S
C3331 C3328 1.403 . S
C3331 C3332 1.524 . S
C3331 C3335 1.400 . S
C3332 H3317 0.960 . S
C3332 H3318 0.960 . S
C3332 H3319 0.960 . S
C3332 C3331 1.524 . S
C3333 C3330 1.402 . S
C3333 C3334 1.392 . S
C3333 C3337 1.495 . S
C3334 C3333 1.392 . S
C3334 C3335 1.385 1_545 S
C3334 C3336 1.478 . S
C3335 H3329 0.930 . S
C3335 C3331 1.400 . S
C3335 C3334 1.385 1_565 S
C3336 C3334 1.478 . S
C3336 C3338 1.381 . S
C3336 C3342 1.383 1_545 S
C3337 C3333 1.495 . S
C3337 H3343 0.959 . S
C3337 H3344 0.961 . S
C3337 H3345 0.960 . S
C3338 C3336 1.381 . S
C3338 C3339 1.394 . S
C3338 H3346 0.930 . S
C3339 C3338 1.394 . S
C3339 C3340 1.383 . S
C3339 H3347 0.929 . S
C3340 C3339 1.383 . S
C3340 C3341 1.289 1_545 S
C3341 H3325 0.997 . S
C3341 C3340 1.289 1_565 S
C3341 C3342 1.408 . S
C3342 H3326 0.931 . S
C3342 C3336 1.383 1_565 S
C3342 C3341 1.408 . S
H3343 C3337 0.959 . S
H3344 C3337 0.961 . S
H3345 C3337 0.960 . S
H3346 C3338 0.930 . S
H3347 C3339 0.929 . S
H3348 C3356 0.929 . S
H3349 C3358 0.930 . S
H3350 C3360 0.930 . S
H3351 C3363 0.929 . S
H3352 C3366 0.930 . S
H3353 C3368 0.960 . S
H3354 C3368 0.960 . S
H3355 C3368 0.960 1_455 S
C3356 H3348 0.929 . S
C3356 C3357 1.378 . S
C3356 C3358 1.384 . S
C3357 C3356 1.378 . S
C3357 C3363 1.388 1_655 S
C3358 H3349 0.930 . S
C3358 C3356 1.384 . S
C3358 C3359 1.372 1_655 S
C3359 C3358 1.372 1_455 S
C3359 C3360 1.400 . S
C3359 C3364 1.490 . S
C3360 H3350 0.930 . S
C3360 C3359 1.400 . S
C3360 C3363 1.386 . S
H3361 C3377 0.930 . S
H3362 C3378 0.931 . S
C3363 H3351 0.929 . S
C3363 C3357 1.388 1_455 S
C3363 C3360 1.386 . S
C3364 C3359 1.490 . S
C3364 C3366 1.395 . S
C3364 C3367 1.397 . S
H3365 C3371 0.936 . S
C3366 H3352 0.930 . S
C3366 C3364 1.395 . S
C3366 C3369 1.403 . S
C3367 C3364 1.397 . S
C3367 C3368 1.531 1_455 S
C3367 C3371 1.398 . S
C3368 H3353 0.960 . S
C3368 H3354 0.960 . S
C3368 H3355 0.960 1_655 S
C3368 C3367 1.531 1_655 S
C3369 C3366 1.403 . S
C3369 C3370 1.392 . S
C3369 C3373 1.495 . S
C3370 C3369 1.392 . S
C3370 C3371 1.385 . S
C3370 C3372 1.478 . S
C3371 H3365 0.936 . S
C3371 C3367 1.398 . S
C3371 C3370 1.385 . S
C3372 C3370 1.478 . S
C3372 C3374 1.381 1_455 S
C3372 C3378 1.383 . S
C3373 C3369 1.495 . S
C3373 H3379 0.959 . S
C3373 H3380 0.961 . S
C3373 H3381 0.960 . S
C3374 C3372 1.381 1_655 S
C3374 C3375 1.394 . S
C3374 H3382 0.930 . S
C3375 C3374 1.394 . S
C3375 C3376 1.383 1_655 S
C3375 H3383 0.929 . S
C3376 C3375 1.383 1_455 S
C3376 C3377 1.377 . S
C3377 H3361 0.930 . S
C3377 C3376 1.377 . S
C3377 C3378 1.379 . S
C3378 H3362 0.931 . S
C3378 C3372 1.383 . S
C3378 C3377 1.379 . S
H3379 C3373 0.959 . S
H3380 C3373 0.961 . S
H3381 C3373 0.960 . S
H3382 C3374 0.930 . S
H3383 C3375 0.929 . S
H3384 C3392 0.929 . S
H3385 C3394 0.930 . S
H3386 C3396 0.930 . S
H3387 C3399 0.929 . S
H3388 C3402 0.930 . S
H3389 C3404 0.960 . S
H3390 C3404 0.960 . S
H3391 C3404 0.960 . S
C3392 H3384 0.929 . S
C3392 C3393 1.377 . S
C3392 C3394 1.384 . S
C3393 C3392 1.377 . S
C3393 C3399 1.390 . S
C3394 H3385 0.930 . S
C3394 C3392 1.384 . S
C3394 C3395 1.372 . S
C3395 C3394 1.372 . S
C3395 C3396 1.400 . S
C3395 C3400 1.490 . S
C3396 H3386 0.930 . S
C3396 C3395 1.400 . S
C3396 C3399 1.386 . S
H3397 C3413 0.930 . S
H3398 C3414 0.931 . S
C3399 H3387 0.929 . S
C3399 C3393 1.390 . S
C3399 C3396 1.386 . S
C3400 C3395 1.490 . S
C3400 C3402 1.395 . S
C3400 C3403 1.403 . S
H3401 C3407 0.930 . S
C3402 H3388 0.930 . S
C3402 C3400 1.395 . S
C3402 C3405 1.403 . S
C3403 C3400 1.403 . S
C3403 C3404 1.524 . S
C3403 C3407 1.400 . S
C3404 H3389 0.960 . S
C3404 H3390 0.960 . S
C3404 H3391 0.960 . S
C3404 C3403 1.524 . S
C3405 C3402 1.403 . S
C3405 C3406 1.392 . S
C3405 C3409 1.495 . S
C3406 C3405 1.392 . S
C3406 C3407 1.385 . S
C3406 C3408 1.478 . S
C3407 H3401 0.930 . S
C3407 C3403 1.400 . S
C3407 C3406 1.385 . S
C3408 C3406 1.478 . S
C3408 C3410 1.381 . S
C3408 C3414 1.383 . S
C3409 C3405 1.495 . S
C3409 H3415 0.959 . S
C3409 H3416 0.961 . S
C3409 H3417 0.960 . S
C3410 C3408 1.381 . S
C3410 C3411 1.394 . S
C3410 H3418 0.930 . S
C3411 C3410 1.394 . S
C3411 C3412 1.383 . S
C3411 H3419 0.929 . S
C3412 C3411 1.383 . S
C3412 C3413 1.377 . S
C3413 H3397 0.930 . S
C3413 C3412 1.377 . S
C3413 C3414 1.379 . S
C3414 H3398 0.931 . S
C3414 C3408 1.383 . S
C3414 C3413 1.379 . S
H3415 C3409 0.959 . S
H3416 C3409 0.961 . S
H3417 C3409 0.960 . S
H3418 C3410 0.930 . S
H3419 C3411 0.929 . S
C837 C384 2.246 . S
C856 C16 2.234 . S
C873 C407 2.248 . S
C892 C39 2.242 . S
C909 C361 2.251 . S
C928 C62 2.252 . S
C945 C614 2.212 . S
C964 C85 2.215 . S
C981 C108 2.204 . S
C1000 C568 2.194 . S
C1017 C131 2.207 . S
C1036 C591 2.205 . S
C1053 C154 2.250 . S
C1072 C798 2.237 . S
C1089 C821 2.249 . S
C1108 C177 2.249 . S
C1125 N771 0.978 . S
C1144 N196 1.008 . S
C1161 N219 0.951 . S
C1180 N472 0.949 . S
C1197 C430 2.207 . S
C1216 C246 2.203 . S
C1233 C269 2.209 . S
C1252 C453 2.200 . S
C1269 C660 2.097 . S
C1288 C292 2.087 . S
C1305 C315 2.104 . S
C1324 C683 2.089 . S
C1341 C637 2.110 . S
C1360 C338 2.102 . S
C1377 N748 0.861 . S
C1396 N495 0.885 . S
C1413 C706 2.100 . S
C1432 C522 2.096 . S
C1449 C545 2.102 . S
C1468 C729 2.091 . S
C1485 N416 1.675 . S
C1504 N2 1.645 . S
C1521 N439 1.686 . S
C1540 N25 1.708 . S
C1557 C467 1.735 . S
C1576 N48 1.606 . S
C1593 N71 1.633 . S
C1612 C766 1.724 . S
C1629 N94 1.696 . S
C1648 N784 1.678 . S
C1665 N117 1.682 . S
C1684 N807 1.688 . S
C1701 N140 1.673 . S
C1720 N554 1.690 . S
C1737 N577 1.692 . S
C1756 N163 1.712 . S
C1773 N600 1.625 . S
C1792 C191 1.744 . S
C1809 N347 1.633 . S
C1828 C214 1.733 . S
C1845 N232 1.692 . S
C1864 N370 1.719 . S
C1881 N255 1.689 . S
C1900 N393 1.676 . S
C1917 N278 1.679 . S
C1936 N692 1.692 . S
C1953 N715 1.678 . S
C1972 N301 1.653 . S
C1989 C743 1.715 . S
C2008 N324 1.574 . S
C2025 N623 1.657 . S
C2044 C490 1.755 . S
C2061 N508 1.712 . S
C2080 N646 1.679 . S
C2097 N531 1.709 . S
C2116 N669 1.736 . S
C2133 N633 1.713 . S
C2152 N12 1.695 . S
C2169 N35 1.743 . S
C2188 N656 1.756 . S
C2205 N58 1.709 . S
C2224 N679 1.705 . S
C2241 N288 1.686 . S
C2260 N81 1.676 . S
C2277 N104 1.713 . S
C2296 N311 1.693 . S
C2313 N127 1.681 . S
C2332 N334 1.674 . S
C2349 C499 1.706 . S
C2368 N150 1.711 . S
C2385 N173 1.742 . S
C2404 N518 1.734 . S
C2421 N541 1.706 . S
C2440 C200 1.681 . S
C2457 C223 1.673 . S
C2476 N702 1.675 . S
C2493 N725 1.716 . S
C2512 N242 1.709 . S
C2529 C752 1.667 . S
C2548 N265 1.656 . S
C2565 N564 1.698 . S
C2584 N357 1.682 . S
C2601 N587 1.724 . S
C2620 N380 1.709 . S
C2637 N610 1.694 . S
C2656 N403 1.695 . S
C2673 N426 1.690 . S
C2692 C775 1.692 . S
C2709 N794 1.730 . S
C2728 N449 1.737 . S
C2745 N817 1.686 . S
C2764 C476 1.674 . S
C2781 C7 1.193 . S
C2800 C375 1.198 . S
C2817 C30 1.192 . S
C2836 C398 1.186 . S
C2853 C53 1.168 . S
C2872 C352 1.161 . S
C2889 C605 1.211 . S
C2908 C76 1.212 . S
C2925 C559 1.234 . S
C2944 C99 1.222 . S
C2961 C582 1.232 . S
C2980 C122 1.224 . S
C2997 C789 1.191 . S
C3016 C145 1.192 . S
C3033 C812 1.191 . S
C3052 C168 1.180 . S
C3069 N761 0.544 . S
C3088 N186 0.467 . S
C3105 N209 0.523 . S
C3124 N462 0.462 . S
C3141 C237 1.232 . S
C3160 C421 1.241 . S
C3177 C260 1.231 . S
C3196 C444 1.236 . S
C3213 C651 1.341 . S
C3232 C283 1.342 . S
C3249 C674 1.343 . S
C3268 C306 1.349 . S
C3285 C329 1.319 . S
C3304 C628 1.311 . S
C3321 N485 0.484 . S
C3340 N738 0.567 . S
C3357 C697 1.348 . S
C3376 C513 1.340 . S
C3393 C720 1.342 . S
C3412 C536 1.352 . S
