# Generated by pormake.
# Topology yfr, (5)-cn, num edge types: 1
# Building blocks:
#     Node 0, Type 0, BuildingBlock: BEQFEK_clean_sbu_0, # of connection points: 5
#     Node 1, Type 0, BuildingBlock: BEQFEK_clean_sbu_0, # of connection points: 5
#     Node 2, Type 0, BuildingBlock: BEQFEK_clean_sbu_0, # of connection points: 5
#     Node 3, Type 0, BuildingBlock: BEQFEK_clean_sbu_0, # of connection points: 5
#     Node 4, Type 0, BuildingBlock: BEQFEK_clean_sbu_0, # of connection points: 5
#     Node 5, Type 0, BuildingBlock: BEQFEK_clean_sbu_0, # of connection points: 5
#     Node 6, Type 0, BuildingBlock: BEQFEK_clean_sbu_0, # of connection points: 5
#     Node 7, Type 0, BuildingBlock: BEQFEK_clean_sbu_0, # of connection points: 5
#     Node 8, Type 0, BuildingBlock: BEQFEK_clean_sbu_0, # of connection points: 5
#     Node 9, Type 0, BuildingBlock: BEQFEK_clean_sbu_0, # of connection points: 5
#     Node 10, Type 0, BuildingBlock: BEQFEK_clean_sbu_0, # of connection points: 5
#     Node 11, Type 0, BuildingBlock: BEQFEK_clean_sbu_0, # of connection points: 5
#     Node 12, Type 0, BuildingBlock: BEQFEK_clean_sbu_0, # of connection points: 5
#     Node 13, Type 0, BuildingBlock: BEQFEK_clean_sbu_0, # of connection points: 5
#     Node 14, Type 0, BuildingBlock: BEQFEK_clean_sbu_0, # of connection points: 5
#     Node 15, Type 0, BuildingBlock: BEQFEK_clean_sbu_0, # of connection points: 5
#     Node 16, Type 0, BuildingBlock: BEQFEK_clean_sbu_0, # of connection points: 5
#     Node 17, Type 0, BuildingBlock: BEQFEK_clean_sbu_0, # of connection points: 5
#     Node 18, Type 0, BuildingBlock: BEQFEK_clean_sbu_0, # of connection points: 5
#     Node 19, Type 0, BuildingBlock: BEQFEK_clean_sbu_0, # of connection points: 5
#     Node 20, Type 0, BuildingBlock: BEQFEK_clean_sbu_0, # of connection points: 5
#     Node 21, Type 0, BuildingBlock: BEQFEK_clean_sbu_0, # of connection points: 5
#     Node 22, Type 0, BuildingBlock: BEQFEK_clean_sbu_0, # of connection points: 5
#     Node 23, Type 0, BuildingBlock: BEQFEK_clean_sbu_0, # of connection points: 5
#     Node 24, Type 0, BuildingBlock: BEQFEK_clean_sbu_0, # of connection points: 5
#     Node 25, Type 0, BuildingBlock: BEQFEK_clean_sbu_0, # of connection points: 5
#     Node 26, Type 0, BuildingBlock: BEQFEK_clean_sbu_0, # of connection points: 5
#     Node 27, Type 0, BuildingBlock: BEQFEK_clean_sbu_0, # of connection points: 5
#     Node 28, Type 0, BuildingBlock: BEQFEK_clean_sbu_0, # of connection points: 5
#     Node 29, Type 0, BuildingBlock: BEQFEK_clean_sbu_0, # of connection points: 5
#     Node 30, Type 0, BuildingBlock: BEQFEK_clean_sbu_0, # of connection points: 5
#     Node 31, Type 0, BuildingBlock: BEQFEK_clean_sbu_0, # of connection points: 5
#     Edge 32, Type (0, 0), None
#     Edge 33, Type (0, 0), None
#     Edge 34, Type (0, 0), None
#     Edge 35, Type (0, 0), None
#     Edge 36, Type (0, 0), None
#     Edge 37, Type (0, 0), None
#     Edge 38, Type (0, 0), None
#     Edge 39, Type (0, 0), None
#     Edge 40, Type (0, 0), None
#     Edge 41, Type (0, 0), None
#     Edge 42, Type (0, 0), None
#     Edge 43, Type (0, 0), None
#     Edge 44, Type (0, 0), None
#     Edge 45, Type (0, 0), None
#     Edge 46, Type (0, 0), None
#     Edge 47, Type (0, 0), None
#     Edge 48, Type (0, 0), None
#     Edge 49, Type (0, 0), None
#     Edge 50, Type (0, 0), None
#     Edge 51, Type (0, 0), None
#     Edge 52, Type (0, 0), None
#     Edge 53, Type (0, 0), None
#     Edge 54, Type (0, 0), None
#     Edge 55, Type (0, 0), None
#     Edge 56, Type (0, 0), None
#     Edge 57, Type (0, 0), None
#     Edge 58, Type (0, 0), None
#     Edge 59, Type (0, 0), None
#     Edge 60, Type (0, 0), None
#     Edge 61, Type (0, 0), None
#     Edge 62, Type (0, 0), None
#     Edge 63, Type (0, 0), None
#     Edge 64, Type (0, 0), None
#     Edge 65, Type (0, 0), None
#     Edge 66, Type (0, 0), None
#     Edge 67, Type (0, 0), None
#     Edge 68, Type (0, 0), None
#     Edge 69, Type (0, 0), None
#     Edge 70, Type (0, 0), None
#     Edge 71, Type (0, 0), None
#     Edge 72, Type (0, 0), None
#     Edge 73, Type (0, 0), None
#     Edge 74, Type (0, 0), None
#     Edge 75, Type (0, 0), None
#     Edge 76, Type (0, 0), None
#     Edge 77, Type (0, 0), None
#     Edge 78, Type (0, 0), None
#     Edge 79, Type (0, 0), None
#     Edge 80, Type (0, 0), None
#     Edge 81, Type (0, 0), None
#     Edge 82, Type (0, 0), None
#     Edge 83, Type (0, 0), None
#     Edge 84, Type (0, 0), None
#     Edge 85, Type (0, 0), None
#     Edge 86, Type (0, 0), None
#     Edge 87, Type (0, 0), None
#     Edge 88, Type (0, 0), None
#     Edge 89, Type (0, 0), None
#     Edge 90, Type (0, 0), None
#     Edge 91, Type (0, 0), None
#     Edge 92, Type (0, 0), None
#     Edge 93, Type (0, 0), None
#     Edge 94, Type (0, 0), None
#     Edge 95, Type (0, 0), None
#     Edge 96, Type (0, 0), None
#     Edge 97, Type (0, 0), None
#     Edge 98, Type (0, 0), None
#     Edge 99, Type (0, 0), None
#     Edge 100, Type (0, 0), None
#     Edge 101, Type (0, 0), None
#     Edge 102, Type (0, 0), None
#     Edge 103, Type (0, 0), None
#     Edge 104, Type (0, 0), None
#     Edge 105, Type (0, 0), None
#     Edge 106, Type (0, 0), None
#     Edge 107, Type (0, 0), None
#     Edge 108, Type (0, 0), None
#     Edge 109, Type (0, 0), None
#     Edge 110, Type (0, 0), None
#     Edge 111, Type (0, 0), None
# Relax obj value: 0.689
# Max RMSD: 0.247
# Mean RMSD: 0.223
data_MOF--net-yfr--node1-BEQFEK_clean_sbu_0--edge1-none
_symmetry_space_group_name_H-M    P1
_symmetry_Int_Tables_number       1
_symmetry_cell_setting            triclinic
loop_
_symmetry_equiv_pos_as_xyz
'x, y, z'
_cell_length_a     31.150386
_cell_length_b     31.151172
_cell_length_c     27.846894
_cell_angle_alpha  90.000481
_cell_angle_beta   89.999973
_cell_angle_gamma 89.999701
loop_
_atom_site_label
_atom_site_type_symbol
_atom_site_fract_x
_atom_site_fract_y
_atom_site_fract_z
_atom_type_partial_charge
Co0 Co 1.02861 0.17897 0.35273 0.0
Co1 Co 0.11541 0.19249 0.31744 0.0
C2 C 0.04109 0.26146 0.30509 0.0
O3 O 1.01229 0.23285 0.31274 0.0
O4 O 0.08027 0.24951 0.30674 0.0
C5 C 0.9608 0.15243 0.41605 0.0
O6 O 0.92524 0.13094 0.4241 0.0
C7 C 0.13301 0.19179 0.22308 0.0
C8 C 0.19889 0.16712 0.2141 0.0
C9 C 0.16035 0.17378 0.19019 0.0
N10 N 0.1534 0.19486 0.26528 0.0
N11 N 0.19315 0.18069 0.2599 0.0
C12 C 0.08535 0.1973 0.21694 0.0
H13 H 0.06784 0.18736 0.24956 0.0
H14 H 0.0727 0.1784 0.1863 0.0
H15 H 0.0783 0.23172 0.21046 0.0
C16 C 0.04218 0.08434 0.32074 0.0
N17 N 0.05418 0.12658 0.32567 0.0
N18 N 0.09325 0.13125 0.30996 0.0
C19 C 0.10641 0.09208 0.29193 0.0
C20 C 0.07466 0.05993 0.29825 0.0
C21 C 1.00178 0.06617 0.34158 0.0
H22 H 1.00024 0.07405 0.38036 0.0
H23 H 0.97359 0.08071 0.32347 0.0
H24 H 1.00038 1.03077 0.338 0.0
O25 O 0.06432 0.2091 0.4054 0.0
O26 O 0.13346 0.20922 0.38582 0.0
H27 H 0.17407 0.10083 0.2819 0.0
H28 H 0.15326 0.05183 0.25545 0.0
C29 C 0.14642 0.08591 0.2633 0.0
H30 H 0.14144 0.10074 0.22788 0.0
H31 H 0.21464 0.17589 0.28815 0.0
O32 O 0.97622 0.15216 0.37445 0.0
C33 C 0.10311 0.21994 0.41494 0.0
Co34 Co 0.14208 0.77867 0.60274 0.0
Co35 Co 0.12855 0.86546 0.56746 0.0
C36 C 0.05958 0.79114 0.55512 0.0
O37 O 0.08819 0.76235 0.56276 0.0
O38 O 0.07153 0.83032 0.55676 0.0
C39 C 0.16863 0.71086 0.66607 0.0
O40 O 0.19012 0.6753 0.67412 0.0
C41 C 0.12924 0.88306 0.4731 0.0
C42 C 0.15391 0.94894 0.46413 0.0
C43 C 0.14724 0.9104 0.44021 0.0
N44 N 0.12617 0.90345 0.51531 0.0
N45 N 0.14034 0.94321 0.50993 0.0
C46 C 0.12373 0.8354 0.46696 0.0
H47 H 0.13368 0.8179 0.49957 0.0
H48 H 0.14264 0.82276 0.43632 0.0
H49 H 0.08932 0.82835 0.46048 0.0
C50 C 0.2367 0.79224 0.57075 0.0
N51 N 0.19447 0.80424 0.57569 0.0
N52 N 0.18979 0.8433 0.55998 0.0
C53 C 0.22896 0.85646 0.54194 0.0
C54 C 0.26111 0.82471 0.54826 0.0
C55 C 0.25487 0.75184 0.59158 0.0
H56 H 0.247 0.75029 0.63036 0.0
H57 H 0.24033 0.72364 0.57347 0.0
H58 H 0.29028 0.75044 0.58799 0.0
O59 O 0.11195 0.81437 0.65542 0.0
O60 O 0.11181 0.88351 0.63584 0.0
H61 H 0.22021 0.92413 0.53191 0.0
H62 H 0.26921 0.90331 0.50546 0.0
C63 C 0.23513 0.89648 0.51331 0.0
H64 H 0.22029 0.89149 0.47789 0.0
H65 H 0.14514 0.96469 0.53818 0.0
O66 O 0.16889 0.72628 0.62447 0.0
C67 C 0.1011 0.85316 0.66496 0.0
Co68 Co 0.54239 0.89213 0.85273 0.0
Co69 Co 0.45559 0.87861 0.81744 0.0
C70 C 0.52991 0.80964 0.80509 0.0
O71 O 0.5587 0.83825 0.81274 0.0
O72 O 0.49073 0.82159 0.80674 0.0
C73 C 0.6102 0.91867 0.91605 0.0
O74 O 0.64576 0.94016 0.9241 0.0
C75 C 0.43799 0.87931 0.72308 0.0
C76 C 0.37211 0.90397 0.71411 0.0
C77 C 0.41065 0.89731 0.69019 0.0
N78 N 0.4176 0.87624 0.76528 0.0
N79 N 0.37784 0.89041 0.7599 0.0
C80 C 0.48565 0.8738 0.71694 0.0
H81 H 0.50315 0.88374 0.74956 0.0
H82 H 0.49829 0.8927 0.6863 0.0
H83 H 0.4927 0.83938 0.71046 0.0
C84 C 0.52882 0.98676 0.82074 0.0
N85 N 0.51681 0.94453 0.82567 0.0
N86 N 0.47775 0.93985 0.80996 0.0
C87 C 0.46459 0.97902 0.79193 0.0
C88 C 0.49634 1.01117 0.79825 0.0
C89 C 0.56922 1.00493 0.84158 0.0
H90 H 0.57076 0.99705 0.88036 0.0
H91 H 0.59741 0.99039 0.82347 0.0
H92 H 0.57062 0.04033 0.838 0.0
O93 O 0.50668 0.86201 0.9054 0.0
O94 O 0.43753 0.86188 0.88582 0.0
H95 H 0.39692 0.97027 0.7819 0.0
H96 H 0.41774 1.01927 0.75545 0.0
C97 C 0.42458 0.98519 0.7633 0.0
H98 H 0.42956 0.97036 0.72788 0.0
H99 H 0.35636 0.89521 0.78815 0.0
O100 O 0.59477 0.91894 0.87445 0.0
C101 C 0.46789 0.85116 0.91494 0.0
Co102 Co 0.42892 0.29243 0.10274 0.0
Co103 Co 0.44245 0.20564 0.06746 0.0
C104 C 0.51141 0.27996 0.05511 0.0
O105 O 0.48281 0.30875 0.06276 0.0
O106 O 0.49947 0.24078 0.05676 0.0
C107 C 0.40237 0.36024 0.16607 0.0
O108 O 0.38088 0.3958 0.17412 0.0
C109 C 0.44175 0.18804 0.9731 0.0
C110 C 0.41709 0.12216 0.96413 0.0
C111 C 0.42375 0.1607 0.94021 0.0
N112 N 0.44482 0.16765 1.0153 0.0
N113 N 0.43065 0.12789 1.00992 0.0
C114 C 0.44726 0.2357 0.96696 0.0
H115 H 0.43732 0.2532 0.99957 0.0
H116 H 0.42836 0.24834 0.93632 0.0
H117 H 0.48168 0.24275 0.96048 0.0
C118 C 0.3343 0.27886 0.07075 0.0
N119 N 0.37653 0.26686 0.07569 0.0
N120 N 0.38121 0.2278 0.05998 0.0
C121 C 0.34204 0.21463 0.04194 0.0
C122 C 0.30988 0.24639 0.04826 0.0
C123 C 0.31612 0.31926 0.09158 0.0
H124 H 0.32399 0.32081 0.13036 0.0
H125 H 0.33067 0.34746 0.07347 0.0
H126 H 0.28072 0.32066 0.08799 0.0
O127 O 0.45905 0.25673 0.15542 0.0
O128 O 0.45918 0.18759 0.13584 0.0
H129 H 0.35079 0.14697 1.03191 0.0
H130 H 0.30179 0.16778 1.00546 0.0
C131 C 0.33587 0.17462 1.01331 0.0
H132 H 0.3507 0.1796 0.97789 0.0
H133 H 0.42585 0.10641 1.03817 0.0
O134 O 0.40211 0.34482 0.12447 0.0
C135 C 0.4699 0.21794 0.16496 0.0
Co136 Co 1.0286 0.89211 0.22916 0.0
Co137 Co 0.1154 0.87861 0.26442 0.0
C138 C 0.04109 0.80963 0.27678 0.0
O139 O 1.01228 0.83823 0.26915 0.0
O140 O 0.08026 0.82158 0.27512 0.0
C141 C 0.96081 0.91867 0.16582 0.0
O142 O 0.92526 0.94017 0.15776 0.0
C143 C 0.1329 0.87943 0.35879 0.0
C144 C 0.19879 0.90402 0.36784 0.0
C145 C 0.1602 0.89747 0.39168 0.0
N146 N 0.15334 0.87626 0.31663 0.0
N147 N 0.19311 0.8904 0.32205 0.0
C148 C 0.08523 0.8739 0.36488 0.0
H149 H 0.06775 0.8838 0.33224 0.0
H150 H 0.07256 0.89283 0.39549 0.0
H151 H 0.07819 0.83949 0.3714 0.0
C152 C 0.04215 0.98673 0.26117 0.0
N153 N 0.05417 0.94451 0.25621 0.0
N154 N 0.09326 0.93985 0.27185 0.0
C155 C 0.10644 0.97903 0.28984 0.0
C156 C 0.07465 1.01117 0.28359 0.0
C157 C 1.00171 1.00489 0.2404 0.0
H158 H 1.00014 0.99705 0.20162 0.0
H159 H 0.97355 0.99031 0.25854 0.0
H160 H 1.00029 0.04029 0.24403 0.0
O161 O 0.06432 0.86198 0.17648 0.0
O162 O 0.13347 0.86185 0.19605 0.0
H163 H 0.17411 0.97018 0.29974 0.0
H164 H 0.15345 1.01932 0.32601 0.0
C165 C 0.14652 0.98522 0.31834 0.0
H166 H 0.14159 0.97054 0.35384 0.0
H167 H 0.21464 0.89512 0.29383 0.0
O168 O 0.97622 0.91892 0.20743 0.0
C169 C 0.10311 0.85113 0.16694 0.0
Co170 Co 0.42893 0.77866 0.47914 0.0
Co171 Co 0.44243 0.86546 0.5144 0.0
C172 C 0.51141 0.79114 0.52676 0.0
O173 O 0.48281 0.76234 0.51912 0.0
O174 O 0.49946 0.83031 0.5251 0.0
C175 C 0.40236 0.71087 0.41579 0.0
O176 O 0.38086 0.67533 0.40773 0.0
C177 C 0.44162 0.88296 0.60877 0.0
C178 C 0.41703 0.94885 0.61781 0.0
C179 C 0.42358 0.91026 0.64166 0.0
N180 N 0.44478 0.9034 0.5666 0.0
N181 N 0.43065 0.94316 0.57203 0.0
C182 C 0.44715 0.8353 0.61487 0.0
H183 H 0.43724 0.81781 0.58222 0.0
H184 H 0.42822 0.82263 0.64547 0.0
H185 H 0.48156 0.82825 0.62138 0.0
C186 C 0.3343 0.79221 0.51116 0.0
N187 N 0.37653 0.80422 0.50619 0.0
N188 N 0.38119 0.84331 0.52184 0.0
C189 C 0.34201 0.85649 0.53983 0.0
C190 C 0.30987 0.82471 0.53359 0.0
C191 C 0.31614 0.75177 0.49039 0.0
H192 H 0.32398 0.7502 0.4516 0.0
H193 H 0.33073 0.72361 0.50852 0.0
H194 H 0.28075 0.75035 0.49403 0.0
O195 O 0.45906 0.81437 0.42646 0.0
O196 O 0.45919 0.88352 0.44603 0.0
H197 H 0.35086 0.92416 0.54973 0.0
H198 H 0.30173 0.9035 0.57602 0.0
C199 C 0.33582 0.89657 0.56834 0.0
H200 H 0.35051 0.89164 0.60384 0.0
H201 H 0.42592 0.96469 0.54381 0.0
O202 O 0.40211 0.72628 0.4574 0.0
C203 C 0.46991 0.85317 0.41692 0.0
Co204 Co 0.54239 0.17899 0.72916 0.0
Co205 Co 0.4556 0.19249 0.76442 0.0
C206 C 0.52991 0.26147 0.77678 0.0
O207 O 0.55871 0.23287 0.76915 0.0
O208 O 0.49074 0.24952 0.77512 0.0
C209 C 0.61018 0.15243 0.66582 0.0
O210 O 0.64573 0.13093 0.65776 0.0
C211 C 0.4381 0.19167 0.85878 0.0
C212 C 0.37221 0.16708 0.86783 0.0
C213 C 0.4108 0.17363 0.89168 0.0
N214 N 0.41765 0.19484 0.81662 0.0
N215 N 0.37789 0.1807 0.82205 0.0
C216 C 0.48576 0.1972 0.86488 0.0
H217 H 0.50324 0.1873 0.83224 0.0
H218 H 0.49844 0.17827 0.89549 0.0
H219 H 0.4928 0.23161 0.8714 0.0
C220 C 0.52884 0.08436 0.76117 0.0
N221 N 0.51683 0.12659 0.75621 0.0
N222 N 0.47774 0.13125 0.77185 0.0
C223 C 0.46456 0.09207 0.78984 0.0
C224 C 0.49634 0.05993 0.78359 0.0
C225 C 0.56928 0.06621 0.7404 0.0
H226 H 0.57086 0.07405 0.70162 0.0
H227 H 0.59745 0.08079 0.75854 0.0
H228 H 0.57071 1.03081 0.74403 0.0
O229 O 0.50668 0.20912 0.67648 0.0
O230 O 0.43753 0.20925 0.69605 0.0
H231 H 0.39689 0.10092 0.79974 0.0
H232 H 0.41755 0.05178 0.82601 0.0
C233 C 0.42447 0.08588 0.81834 0.0
H234 H 0.42941 0.10056 0.85384 0.0
H235 H 0.35636 0.17598 0.79383 0.0
O236 O 0.59478 0.15218 0.70743 0.0
C237 C 0.46788 0.21996 0.66694 0.0
Co238 Co 0.14207 0.29244 0.97914 0.0
Co239 Co 0.12856 0.20564 1.0144 0.0
C240 C 0.05959 0.27996 1.02676 0.0
O241 O 0.08818 0.30876 1.01912 0.0
O242 O 0.07154 0.24079 1.0251 0.0
C243 C 0.16864 0.36023 0.91579 0.0
O244 O 0.19014 0.39577 0.90773 0.0
C245 C 0.12937 0.18814 0.10876 0.0
C246 C 0.15397 0.12225 0.11781 0.0
C247 C 0.14742 0.16084 0.14166 0.0
N248 N 0.12621 0.1677 0.0666 0.0
N249 N 0.14035 0.12794 0.07202 0.0
C250 C 0.12385 0.2358 0.11487 0.0
H251 H 0.13375 0.25329 0.08222 0.0
H252 H 0.14278 0.24847 0.14547 0.0
H253 H 0.08944 0.24284 0.12138 0.0
C254 C 0.23669 0.27889 1.01116 0.0
N255 N 0.19447 0.26688 1.00619 0.0
N256 N 0.1898 0.22779 1.02184 0.0
C257 C 0.22898 0.21461 1.03983 0.0
C258 C 0.26112 0.24639 1.03359 0.0
C259 C 0.25485 0.31932 0.9904 0.0
H260 H 0.24702 0.3209 0.95161 0.0
H261 H 0.24027 0.34749 1.00852 0.0
H262 H 0.29025 0.32075 0.99403 0.0
O263 O 0.11194 0.25673 0.92646 0.0
O264 O 0.11181 0.18758 0.94603 0.0
H265 H 0.22014 0.14694 0.04973 0.0
H266 H 0.26927 0.1676 0.07602 0.0
C267 C 0.23518 0.17453 0.06834 0.0
H268 H 0.22048 0.17947 0.10384 0.0
H269 H 0.14507 0.1064 0.0438 0.0
O270 O 0.16889 0.34482 0.95741 0.0
C271 C 0.10109 0.21793 0.91692 0.0
Co272 Co 0.98889 0.81118 0.75995 0.0
Co273 Co 1.0024 0.90256 0.75367 0.0
C274 C 0.0674 0.85999 0.70361 0.0
O275 O 0.04254 0.82849 0.71526 0.0
O276 O 0.05976 0.89711 0.72092 0.0
C277 C 1.022 0.76616 0.83392 0.0
O278 O 1.02001 0.7413 0.87178 0.0
C279 C 0.99006 0.99224 0.7596 0.0
C280 C 0.92112 0.9889 0.78093 0.0
C281 C 0.9566 1.0151 0.77955 0.0
N282 N 0.97523 0.95293 0.75286 0.0
N283 N 0.93397 0.95124 0.76386 0.0
C284 C 1.03423 1.00589 0.74525 0.0
H285 H 0.04376 0.9887 0.712 0.0
H286 H 0.05756 0.99649 0.77342 0.0
H287 H 0.03556 0.04091 0.7385 0.0
C288 C 0.95156 0.83539 0.85396 0.0
N289 N 0.97223 0.84596 0.81301 0.0
N290 N 0.99053 0.88317 0.81748 0.0
C291 C 0.9829 0.89772 0.86278 0.0
C292 C 0.95914 0.86684 0.88889 0.0
C293 C 0.92544 0.79521 0.85855 0.0
H294 H 0.92802 0.77492 0.8261 0.0
H295 H 0.93498 0.77673 0.89079 0.0
H296 H 0.89108 0.8038 0.86104 0.0
O297 O 0.93827 0.81204 0.71916 0.0
O298 O 0.96091 0.87845 0.71046 0.0
H299 H 0.98644 0.96524 0.84993 0.0
H300 H 0.97363 0.95148 0.91055 0.0
C301 C 0.9931 0.94231 0.87883 0.0
H302 H 1.0279 0.94494 0.88665 0.0
H303 H 0.91567 0.92322 0.76493 0.0
O304 O 0.99873 0.75806 0.79753 0.0
C305 C 0.93622 0.84834 0.69872 0.0
Co306 Co 1.00986 0.23894 0.50993 0.0
Co307 Co 0.91847 0.25246 0.50364 0.0
C308 C 0.96106 0.31746 0.45359 0.0
O309 O 0.99255 0.2926 0.46524 0.0
O310 O 0.92393 0.30982 0.4709 0.0
C311 C 0.05488 0.27205 0.5839 0.0
O312 O 0.07974 0.27006 0.62176 0.0
C313 C 0.8288 0.24013 0.50958 0.0
C314 C 0.83213 0.17119 0.53088 0.0
C315 C 0.80594 0.20667 0.52953 0.0
N316 N 0.86811 0.22529 0.50281 0.0
N317 N 0.86979 0.18403 0.5138 0.0
C318 C 0.81515 0.28431 0.49525 0.0
H319 H 0.83234 0.29384 0.46199 0.0
H320 H 0.82456 0.30763 0.52341 0.0
H321 H 0.78012 0.28564 0.48851 0.0
C322 C 0.98564 0.20162 0.60394 0.0
N323 N 0.97507 0.22229 0.56299 0.0
N324 N 0.93786 0.24058 0.56745 0.0
C325 C 0.92331 0.23296 0.61275 0.0
C326 C 0.95419 0.2092 0.63886 0.0
C327 C 1.02582 0.1755 0.60853 0.0
H328 H 0.04611 0.17808 0.57607 0.0
H329 H 0.04431 0.18504 0.64076 0.0
H330 H 1.01723 0.14114 0.61101 0.0
O331 O 1.009 0.18833 0.46914 0.0
O332 O 0.94259 0.21098 0.46043 0.0
H333 H 0.85579 0.2365 0.59991 0.0
H334 H 0.86955 0.22369 0.66053 0.0
C335 C 0.87872 0.24317 0.6288 0.0
H336 H 0.87609 0.27797 0.63662 0.0
H337 H 0.89781 0.16573 0.51486 0.0
O338 O 0.06297 0.24878 0.54751 0.0
C339 C 0.9727 0.18629 0.44869 0.0
Co340 Co 0.58211 0.25992 0.25995 0.0
Co341 Co 0.5686 0.16853 0.25366 0.0
C342 C 0.5036 0.21111 0.20361 0.0
O343 O 0.52845 0.24261 0.21526 0.0
O344 O 0.51124 0.17399 0.22092 0.0
C345 C 0.549 0.30494 0.33392 0.0
O346 O 0.55099 0.3298 0.37178 0.0
C347 C 0.58094 0.07886 0.2596 0.0
C348 C 0.64988 0.08219 0.28092 0.0
C349 C 0.6144 0.056 0.27955 0.0
N350 N 0.59577 0.11817 0.25286 0.0
N351 N 0.63703 0.11986 0.26385 0.0
C352 C 0.53676 0.06521 0.24525 0.0
H353 H 0.52723 0.0824 0.212 0.0
H354 H 0.51343 0.07461 0.27342 0.0
H355 H 0.53544 1.03019 0.2385 0.0
C356 C 0.61944 0.23571 0.35396 0.0
N357 N 0.59877 0.22513 0.31301 0.0
N358 N 0.58047 0.18793 0.31748 0.0
C359 C 0.5881 0.17338 0.36277 0.0
C360 C 0.61185 0.20426 0.38889 0.0
C361 C 0.64556 0.27589 0.35855 0.0
H362 H 0.64298 0.29618 0.3261 0.0
H363 H 0.63601 0.29437 0.39079 0.0
H364 H 0.67992 0.2673 0.36104 0.0
O365 O 0.63273 0.25906 0.21916 0.0
O366 O 0.61009 0.19264 0.21046 0.0
H367 H 0.58455 0.10585 0.34993 0.0
H368 H 0.59737 0.11962 0.41055 0.0
C369 C 0.57789 0.12879 0.37882 0.0
H370 H 0.54309 0.12616 0.38665 0.0
H371 H 0.65533 0.14788 0.26492 0.0
O372 O 0.57227 0.31303 0.29753 0.0
C373 C 0.63478 0.22276 0.19872 0.0
Co374 Co 0.56114 0.83216 1.00993 0.0
Co375 Co 0.65253 0.81864 1.00364 0.0
C376 C 0.60994 0.75365 0.95359 0.0
O377 O 0.57845 0.7785 0.96523 0.0
O378 O 0.64707 0.76129 0.9709 0.0
C379 C 0.51612 0.79905 0.0839 0.0
O380 O 0.49126 0.80104 0.12176 0.0
C381 C 0.7422 0.83098 1.00958 0.0
C382 C 0.73887 0.89992 1.03088 0.0
C383 C 0.76505 0.86443 1.02953 0.0
N384 N 0.70289 0.84581 1.00281 0.0
N385 N 0.7012 0.88707 1.01379 0.0
C386 C 0.75584 0.78679 0.99525 0.0
H387 H 0.73866 0.77726 0.96199 0.0
H388 H 0.74643 0.76347 1.02341 0.0
H389 H 0.79087 0.78546 0.98851 0.0
C390 C 0.58535 0.86948 0.10394 0.0
N391 N 0.59593 0.84882 0.06299 0.0
N392 N 0.63313 0.83052 0.06745 0.0
C393 C 0.64769 0.83814 0.11275 0.0
C394 C 0.61681 0.8619 0.13886 0.0
C395 C 0.54517 0.89561 0.10853 0.0
H396 H 0.52488 0.89303 0.07607 0.0
H397 H 0.52669 0.88606 0.14077 0.0
H398 H 0.55376 0.92997 0.11102 0.0
O399 O 0.56199 0.88277 0.96914 0.0
O400 O 0.62841 0.86013 0.96043 0.0
H401 H 0.71521 0.8346 0.09991 0.0
H402 H 0.70145 0.84741 0.16053 0.0
C403 C 0.69227 0.82794 0.1288 0.0
H404 H 0.69491 0.79314 0.13662 0.0
H405 H 0.67319 0.90538 1.01486 0.0
O406 O 0.50802 0.82232 0.04751 0.0
C407 C 0.59829 0.88481 0.94869 0.0
Co408 Co 0.98888 0.25991 0.82191 0.0
Co409 Co 1.00239 0.16852 0.82823 0.0
C410 C 0.06739 0.2111 0.87827 0.0
O411 O 0.04254 0.2426 0.86661 0.0
O412 O 0.05974 0.17397 0.86098 0.0
C413 C 1.022 0.30493 0.74795 0.0
O414 O 1.01998 0.32978 0.71008 0.0
C415 C 0.99003 0.07886 0.82218 0.0
C416 C 0.92112 0.08226 0.80076 0.0
C417 C 0.9566 0.05607 0.80206 0.0
N418 N 0.97519 0.11815 0.82904 0.0
N419 N 0.93394 0.11987 0.818 0.0
C420 C 1.0342 0.06518 0.83651 0.0
H421 H 0.04375 0.08235 0.86977 0.0
H422 H 0.05753 0.07457 0.80834 0.0
H423 H 0.0355 1.03015 0.84323 0.0
C424 C 0.95161 0.23568 0.72786 0.0
N425 N 0.97223 0.22511 0.76884 0.0
N426 N 0.99055 0.18791 0.7644 0.0
C427 C 0.98299 0.17336 0.71909 0.0
C428 C 0.95931 0.20426 0.69294 0.0
C429 C 0.92546 0.27584 0.72323 0.0
H430 H 0.92805 0.29617 0.75565 0.0
H431 H 0.93496 0.29429 0.69095 0.0
H432 H 0.8911 0.26722 0.72079 0.0
O433 O 0.93826 0.25907 0.8627 0.0
O434 O 0.96089 0.19265 0.87141 0.0
H435 H 0.98677 0.10585 0.73195 0.0
H436 H 0.97378 0.11957 0.67135 0.0
C437 C 0.99329 0.1288 0.70303 0.0
H438 H 1.02809 0.12627 0.69512 0.0
H439 H 0.91564 0.14789 0.81698 0.0
O440 O 0.99872 0.31302 0.78433 0.0
C441 C 0.93621 0.22277 0.88315 0.0
Co442 Co 0.56115 0.23895 0.57193 0.0
Co443 Co 0.65254 0.25246 0.57826 0.0
C444 C 0.60995 0.31746 0.62829 0.0
O445 O 0.57845 0.2926 0.61663 0.0
O446 O 0.64708 0.30981 0.611 0.0
C447 C 0.51612 0.27206 0.49797 0.0
O448 O 0.49128 0.27004 0.4601 0.0
C449 C 0.74219 0.2401 0.57219 0.0
C450 C 0.7388 0.17119 0.5508 0.0
C451 C 0.76498 0.20667 0.55207 0.0
N452 N 0.7029 0.22527 0.57908 0.0
N453 N 0.70119 0.18401 0.56805 0.0
C454 C 0.75587 0.28428 0.58651 0.0
H455 H 0.73871 0.29383 0.61977 0.0
H456 H 0.74647 0.3076 0.55834 0.0
H457 H 0.79091 0.28558 0.59322 0.0
C458 C 0.58538 0.20168 0.47788 0.0
N459 N 0.59595 0.2223 0.51886 0.0
N460 N 0.63315 0.24062 0.51443 0.0
C461 C 0.6477 0.23306 0.46912 0.0
C462 C 0.6168 0.20937 0.44296 0.0
C463 C 0.54522 0.17553 0.47325 0.0
H464 H 0.52488 0.17811 0.50567 0.0
H465 H 0.52677 0.18502 0.44098 0.0
H466 H 0.55383 0.14117 0.47081 0.0
O467 O 0.56199 0.18833 0.61272 0.0
O468 O 0.6284 0.21097 0.62145 0.0
H469 H 0.71521 0.23684 0.48197 0.0
H470 H 0.70149 0.22385 0.42138 0.0
C471 C 0.69226 0.24336 0.45306 0.0
H472 H 0.69479 0.27815 0.44514 0.0
H473 H 0.67316 0.16571 0.56705 0.0
O474 O 0.50803 0.24879 0.53435 0.0
C475 C 0.59828 0.18629 0.63318 0.0
Co476 Co 0.58212 0.8112 0.32191 0.0
Co477 Co 0.56861 0.90259 0.32823 0.0
C478 C 0.50361 0.86 0.37827 0.0
O479 O 0.52846 0.8285 0.36661 0.0
O480 O 0.51126 0.89713 0.36098 0.0
C481 C 0.549 0.76617 0.24795 0.0
O482 O 0.55102 0.74133 0.21008 0.0
C483 C 0.58097 0.99224 0.32218 0.0
C484 C 0.64988 0.98885 0.30077 0.0
C485 C 0.6144 1.01503 0.30206 0.0
N486 N 0.5958 0.95295 0.32905 0.0
N487 N 0.63706 0.95123 0.31801 0.0
C488 C 0.5368 1.00592 0.33651 0.0
H489 H 0.52725 0.98875 0.36977 0.0
H490 H 0.51347 0.99653 0.30834 0.0
H491 H 0.5355 0.04095 0.34323 0.0
C492 C 0.61939 0.83542 0.22786 0.0
N493 N 0.59876 0.84599 0.26884 0.0
N494 N 0.58045 0.88319 0.2644 0.0
C495 C 0.588 0.89774 0.2191 0.0
C496 C 0.61169 0.86685 0.19294 0.0
C497 C 0.64554 0.79526 0.22323 0.0
H498 H 0.64295 0.77493 0.25565 0.0
H499 H 0.63604 0.77682 0.19095 0.0
H500 H 0.6799 0.80388 0.22079 0.0
O501 O 0.63274 0.81203 0.3627 0.0
O502 O 0.6101 0.87845 0.37141 0.0
H503 H 0.58423 0.96525 0.23195 0.0
H504 H 0.59722 0.95154 0.17136 0.0
C505 C 0.5777 0.9423 0.20304 0.0
H506 H 0.54291 0.94484 0.19512 0.0
H507 H 0.65535 0.92321 0.317 0.0
O508 O 0.57228 0.75808 0.28433 0.0
C509 C 0.63479 0.84833 0.38315 0.0
Co510 Co 1.00985 0.83215 0.07193 0.0
Co511 Co 0.91846 0.81864 0.07826 0.0
C512 C 0.96105 0.75364 0.12829 0.0
O513 O 0.99255 0.77849 0.11663 0.0
O514 O 0.92391 0.76129 0.111 0.0
C515 C 0.05488 0.79904 0.99797 0.0
O516 O 0.07972 0.80106 0.9601 0.0
C517 C 0.8288 0.831 0.07219 0.0
C518 C 0.8322 0.89991 0.0508 0.0
C519 C 0.80602 0.86443 0.05207 0.0
N520 N 0.86809 0.84583 0.07908 0.0
N521 N 0.86981 0.88709 0.06805 0.0
C522 C 0.81512 0.78682 0.08651 0.0
H523 H 0.83228 0.77727 0.11977 0.0
H524 H 0.82452 0.7635 0.05834 0.0
H525 H 0.78009 0.78552 0.09322 0.0
C526 C 0.98562 0.86942 0.97789 0.0
N527 N 0.97505 0.8488 1.01887 0.0
N528 N 0.93785 0.83048 1.01443 0.0
C529 C 0.9233 0.83804 0.96912 0.0
C530 C 0.9542 0.86172 0.94296 0.0
C531 C 1.02578 0.89557 0.97326 0.0
H532 H 0.04611 0.89298 1.00568 0.0
H533 H 0.04423 0.88607 0.94098 0.0
H534 H 1.01716 0.92993 0.97082 0.0
O535 O 1.00901 0.88277 0.11272 0.0
O536 O 0.94259 0.86012 0.12145 0.0
H537 H 0.85579 0.83425 0.98197 0.0
H538 H 0.86951 0.84725 0.92138 0.0
C539 C 0.87874 0.82773 0.95306 0.0
H540 H 0.87621 0.79294 0.94514 0.0
H541 H 0.89783 0.90539 0.06705 0.0
O542 O 0.06296 0.82231 1.03435 0.0
C543 C 0.97271 0.88481 0.13318 0.0
Co544 Co 0.52861 0.67898 0.85273 0.0
Co545 Co 0.61541 0.6925 0.81744 0.0
C546 C 0.5411 0.76147 0.8051 0.0
O547 O 0.5123 0.73287 0.81274 0.0
O548 O 0.58027 0.74953 0.80674 0.0
C549 C 0.4608 0.65244 0.91605 0.0
O550 O 0.42524 0.63095 0.92409 0.0
C551 C 0.63301 0.6918 0.72308 0.0
C552 C 0.69889 0.66713 0.71411 0.0
C553 C 0.66035 0.67379 0.69019 0.0
N554 N 0.65341 0.69487 0.76528 0.0
N555 N 0.69316 0.6807 0.7599 0.0
C556 C 0.58535 0.69732 0.71694 0.0
H557 H 0.56785 0.68737 0.74956 0.0
H558 H 0.57271 0.67841 0.6863 0.0
H559 H 0.5783 0.73173 0.71046 0.0
C560 C 0.54218 0.58436 0.82074 0.0
N561 N 0.55418 0.62659 0.82567 0.0
N562 N 0.59325 0.63127 0.80996 0.0
C563 C 0.60641 0.5921 0.79193 0.0
C564 C 0.57466 0.55994 0.79825 0.0
C565 C 0.50178 0.56619 0.84158 0.0
H566 H 0.50024 0.57407 0.88036 0.0
H567 H 0.47359 0.58073 0.82346 0.0
H568 H 0.50038 0.53079 0.83799 0.0
O569 O 0.56432 0.7091 0.90541 0.0
O570 O 0.63347 0.70924 0.88582 0.0
H571 H 0.67408 0.60084 0.7819 0.0
H572 H 0.65326 0.55184 0.75546 0.0
C573 C 0.64643 0.58592 0.7633 0.0
H574 H 0.64145 0.60075 0.72788 0.0
H575 H 0.71464 0.6759 0.78815 0.0
O576 O 0.47622 0.65217 0.87444 0.0
C577 C 0.60311 0.71994 0.91494 0.0
Co578 Co 0.64208 0.27867 0.10275 0.0
Co579 Co 0.62855 0.36546 0.06746 0.0
C580 C 0.55959 0.29115 0.05513 0.0
O581 O 0.58819 0.26235 0.06276 0.0
O582 O 0.57153 0.33032 0.05676 0.0
C583 C 0.66864 0.21085 0.16607 0.0
O584 O 0.69012 0.1753 0.17414 0.0
C585 C 0.62925 0.38307 0.9731 0.0
C586 C 0.65391 0.44895 0.96413 0.0
C587 C 0.64725 0.41041 0.94022 0.0
N588 N 0.62618 0.40346 1.01531 0.0
N589 N 0.64035 0.44321 1.00993 0.0
C590 C 0.62373 0.33541 0.96696 0.0
H591 H 0.63368 0.31791 0.99957 0.0
H592 H 0.64264 0.32277 0.93632 0.0
H593 H 0.58932 0.32837 0.96048 0.0
C594 C 0.7367 0.29224 0.07075 0.0
N595 N 0.69447 0.30424 0.07569 0.0
N596 N 0.68979 0.3433 0.05997 0.0
C597 C 0.72896 0.35646 0.04194 0.0
C598 C 0.76111 0.32471 0.04826 0.0
C599 C 0.75487 0.25184 0.09159 0.0
H600 H 0.747 0.2503 0.13037 0.0
H601 H 0.74033 0.22364 0.07347 0.0
H602 H 0.79028 0.25044 0.08799 0.0
O603 O 0.61195 0.31438 0.15543 0.0
O604 O 0.61182 0.38352 0.13584 0.0
H605 H 0.72021 0.42412 1.03191 0.0
H606 H 0.76921 0.40331 1.00545 0.0
C607 C 0.73513 0.39647 1.0133 0.0
H608 H 0.72029 0.39149 0.97789 0.0
H609 H 0.64515 0.46469 1.03818 0.0
O610 O 0.66889 0.22628 0.12447 0.0
C611 C 0.60111 0.35317 0.16496 0.0
Co612 Co 0.04239 0.39212 0.35273 0.0
Co613 Co 0.95559 0.3786 0.31744 0.0
C614 C 1.0299 0.30963 0.30511 0.0
O615 O 0.0587 0.33823 0.31274 0.0
O616 O 0.99072 0.32157 0.30674 0.0
C617 C 0.1102 0.41866 0.41605 0.0
O618 O 0.14576 0.44015 0.4241 0.0
C619 C 0.93798 0.3793 0.22308 0.0
C620 C 0.87211 0.40397 0.21411 0.0
C621 C 0.91065 0.3973 0.1902 0.0
N622 N 0.91759 0.37623 0.26529 0.0
N623 N 0.87784 0.3904 0.25991 0.0
C624 C 0.98565 0.37378 0.21694 0.0
H625 H 1.00315 0.38373 0.24956 0.0
H626 H 0.99829 0.39269 0.18631 0.0
H627 H 0.99269 0.33937 0.21046 0.0
C628 C 1.02881 0.48674 0.32074 0.0
N629 N 1.01681 0.44451 0.32567 0.0
N630 N 0.97775 0.43983 0.30996 0.0
C631 C 0.96459 0.479 0.29194 0.0
C632 C 0.99634 0.51116 0.29825 0.0
C633 C 0.06922 0.50491 0.34158 0.0
H634 H 0.07076 0.49704 0.38036 0.0
H635 H 0.09741 0.49037 0.32346 0.0
H636 H 0.07062 0.54031 0.33799 0.0
O637 O 1.00668 0.362 0.40541 0.0
O638 O 0.93753 0.36187 0.38582 0.0
H639 H 0.89692 0.47026 0.2819 0.0
H640 H 0.91773 0.51926 0.25546 0.0
C641 C 0.92457 0.48518 0.2633 0.0
H642 H 0.92955 0.47035 0.22788 0.0
H643 H 0.85635 0.3952 0.28815 0.0
O644 O 0.09477 0.41893 0.37444 0.0
C645 C 0.96789 0.35116 0.41494 0.0
Co646 Co 0.92892 0.79243 0.60275 0.0
Co647 Co 0.94244 0.70564 0.56746 0.0
C648 C 1.01141 0.77995 0.55513 0.0
O649 O 0.98281 0.80875 0.56276 0.0
O650 O 0.99947 0.74077 0.55676 0.0
C651 C 0.90236 0.86025 0.66608 0.0
O652 O 0.88087 0.8958 0.67415 0.0
C653 C 0.94175 0.68803 0.4731 0.0
C654 C 0.91709 0.62215 0.46413 0.0
C655 C 0.92375 0.66069 0.44021 0.0
N656 N 0.94482 0.66764 0.51531 0.0
N657 N 0.93065 0.62789 0.50993 0.0
C658 C 0.94726 0.73569 0.46696 0.0
H659 H 0.93732 0.75319 0.49957 0.0
H660 H 0.92836 0.74833 0.43632 0.0
H661 H 0.98168 0.74274 0.46048 0.0
C662 C 0.8343 0.77886 0.57075 0.0
N663 N 0.87653 0.76686 0.57569 0.0
N664 N 0.88121 0.7278 0.55997 0.0
C665 C 0.84204 0.71464 0.54194 0.0
C666 C 0.80988 0.74639 0.54826 0.0
C667 C 0.81612 0.81926 0.59159 0.0
H668 H 0.82399 0.8208 0.63037 0.0
H669 H 0.83067 0.84746 0.57348 0.0
H670 H 0.78072 0.82066 0.58799 0.0
O671 O 0.95905 0.75672 0.65543 0.0
O672 O 0.95918 0.68758 0.63584 0.0
H673 H 0.85078 0.64697 0.53191 0.0
H674 H 0.80179 0.66779 0.50545 0.0
C675 C 0.83587 0.67463 0.5133 0.0
H676 H 0.8507 0.67961 0.47789 0.0
H677 H 0.92585 0.60641 0.53818 0.0
O678 O 0.90211 0.84481 0.62448 0.0
C679 C 0.96989 0.71793 0.66496 0.0
Co680 Co 0.5286 0.39213 0.72915 0.0
Co681 Co 0.6154 0.37862 0.76442 0.0
C682 C 0.54109 0.30965 0.77677 0.0
O683 O 0.51228 0.33824 0.76914 0.0
O684 O 0.58027 0.3216 0.77512 0.0
C685 C 0.46081 0.41869 0.66582 0.0
O686 O 0.42526 0.44019 0.65776 0.0
C687 C 0.6329 0.37944 0.85879 0.0
C688 C 0.69879 0.40404 0.86784 0.0
C689 C 0.6602 0.39749 0.89168 0.0
N690 N 0.65335 0.37628 0.81663 0.0
N691 N 0.69311 0.39041 0.82205 0.0
C692 C 0.58523 0.37392 0.86488 0.0
H693 H 0.56775 0.38382 0.83224 0.0
H694 H 0.57256 0.39285 0.89549 0.0
H695 H 0.57819 0.3395 0.8714 0.0
C696 C 0.54216 0.48675 0.76116 0.0
N697 N 0.55417 0.44452 0.75621 0.0
N698 N 0.59326 0.43986 0.77185 0.0
C699 C 0.60644 0.47904 0.78984 0.0
C700 C 0.57466 0.51118 0.78359 0.0
C701 C 0.50172 0.50491 0.7404 0.0
H702 H 0.50015 0.49707 0.70161 0.0
H703 H 0.47355 0.49033 0.75853 0.0
H704 H 0.50029 0.54031 0.74403 0.0
O705 O 0.56432 0.362 0.67647 0.0
O706 O 0.63347 0.36187 0.69605 0.0
H707 H 0.67411 0.4702 0.79974 0.0
H708 H 0.65344 0.51933 0.82602 0.0
C709 C 0.64652 0.48524 0.81834 0.0
H710 H 0.64158 0.47055 0.85385 0.0
H711 H 0.71464 0.39514 0.79384 0.0
O712 O 0.47622 0.41894 0.70743 0.0
C713 C 0.60311 0.35116 0.66694 0.0
Co714 Co 0.92893 0.27866 0.97913 0.0
Co715 Co 0.94243 0.36546 1.0144 0.0
C716 C 1.01141 0.29114 1.02675 0.0
O717 O 0.98281 0.26233 1.01912 0.0
O718 O 0.99946 0.33031 1.0251 0.0
C719 C 0.90235 0.21087 0.91579 0.0
O720 O 0.88085 0.17532 0.90771 0.0
C721 C 0.94162 0.38295 0.10877 0.0
C722 C 0.91703 0.44885 0.11782 0.0
C723 C 0.92358 0.41026 0.14166 0.0
N724 N 0.94478 0.4034 0.06661 0.0
N725 N 0.93065 0.44316 0.07203 0.0
C726 C 0.94715 0.33529 0.11487 0.0
H727 H 0.93724 0.31781 0.08222 0.0
H728 H 0.92821 0.32262 0.14547 0.0
H729 H 0.98156 0.32825 0.12138 0.0
C730 C 0.8343 0.29221 1.01116 0.0
N731 N 0.87653 0.30422 1.00619 0.0
N732 N 0.88119 0.34331 1.02183 0.0
C733 C 0.84202 0.35649 1.03983 0.0
C734 C 0.80988 0.32471 1.03359 0.0
C735 C 0.81614 0.25177 0.9904 0.0
H736 H 0.82397 0.2502 0.95161 0.0
H737 H 0.83073 0.22361 1.00852 0.0
H738 H 0.78075 0.25034 0.99403 0.0
O739 O 0.95906 0.31438 0.92645 0.0
O740 O 0.95919 0.38352 0.94603 0.0
H741 H 0.85086 0.42416 0.04973 0.0
H742 H 0.80173 0.4035 0.07601 0.0
C743 C 0.83582 0.39657 0.06833 0.0
H744 H 0.85051 0.39164 0.10384 0.0
H745 H 0.92592 0.46469 0.04381 0.0
O746 O 0.90211 0.22628 0.9574 0.0
C747 C 0.9699 0.35317 0.91692 0.0
Co748 Co 0.0424 0.67897 0.22915 0.0
Co749 Co 0.95559 0.69247 0.26442 0.0
C750 C 1.02991 0.76145 0.27677 0.0
O751 O 0.05871 0.73286 0.26914 0.0
O752 O 0.99073 0.7495 0.27512 0.0
C753 C 0.11019 0.65241 0.16581 0.0
O754 O 0.14574 0.63091 0.15775 0.0
C755 C 0.9381 0.69166 0.35879 0.0
C756 C 0.8722 0.66707 0.36784 0.0
C757 C 0.9108 0.67362 0.39168 0.0
N758 N 0.91765 0.69482 0.31663 0.0
N759 N 0.87789 0.68069 0.32205 0.0
C760 C 0.98576 0.69719 0.36488 0.0
H761 H 1.00324 0.68729 0.33224 0.0
H762 H 0.99843 0.67826 0.39549 0.0
H763 H 0.9928 0.7316 0.3714 0.0
C764 C 1.02884 0.58435 0.26116 0.0
N765 N 1.01683 0.62657 0.25621 0.0
N766 N 0.97774 0.63124 0.27185 0.0
C767 C 0.96456 0.59206 0.28984 0.0
C768 C 0.99634 0.55992 0.28359 0.0
C769 C 0.06928 0.56619 0.2404 0.0
H770 H 0.07085 0.57403 0.20161 0.0
H771 H 0.09744 0.58077 0.25853 0.0
H772 H 0.0707 0.53079 0.24403 0.0
O773 O 1.00668 0.7091 0.17647 0.0
O774 O 0.93753 0.70923 0.19605 0.0
H775 H 0.89689 0.6009 0.29974 0.0
H776 H 0.91755 0.55177 0.32602 0.0
C777 C 0.92448 0.58586 0.31834 0.0
H778 H 0.92941 0.60055 0.35385 0.0
H779 H 0.85635 0.67596 0.29383 0.0
O780 O 0.09478 0.65216 0.20743 0.0
C781 C 0.96788 0.71994 0.16694 0.0
Co782 Co 0.64207 0.79244 0.47913 0.0
Co783 Co 0.62856 0.70564 0.5144 0.0
C784 C 0.55959 0.77996 0.52675 0.0
O785 O 0.58818 0.80876 0.51912 0.0
O786 O 0.57154 0.74078 0.5251 0.0
C787 C 0.66865 0.86023 0.41579 0.0
O788 O 0.69015 0.89578 0.40771 0.0
C789 C 0.62937 0.68814 0.60877 0.0
C790 C 0.65397 0.62225 0.61781 0.0
C791 C 0.64742 0.66084 0.64166 0.0
N792 N 0.62622 0.6677 0.5666 0.0
N793 N 0.64035 0.62794 0.57203 0.0
C794 C 0.62385 0.73581 0.61487 0.0
H795 H 0.63375 0.75329 0.58222 0.0
H796 H 0.64278 0.74848 0.64547 0.0
H797 H 0.58944 0.74285 0.62138 0.0
C798 C 0.73669 0.77889 0.51116 0.0
N799 N 0.69447 0.76688 0.50619 0.0
N800 N 0.6898 0.72779 0.52183 0.0
C801 C 0.72898 0.71461 0.53983 0.0
C802 C 0.76112 0.74639 0.53359 0.0
C803 C 0.75485 0.81933 0.4904 0.0
H804 H 0.74702 0.8209 0.45161 0.0
H805 H 0.74026 0.84749 0.50852 0.0
H806 H 0.79025 0.82076 0.49404 0.0
O807 O 0.61194 0.75672 0.42645 0.0
O808 O 0.61181 0.68758 0.44603 0.0
H809 H 0.72014 0.64694 0.54973 0.0
H810 H 0.76927 0.6676 0.57601 0.0
C811 C 0.73518 0.67453 0.56833 0.0
H812 H 0.72048 0.67947 0.60384 0.0
H813 H 0.64507 0.60641 0.54381 0.0
O814 O 0.66889 0.84482 0.4574 0.0
C815 C 0.60109 0.71793 0.41692 0.0
Co816 Co 0.48889 0.31119 0.25995 0.0
Co817 Co 0.5024 0.40257 0.25366 0.0
C818 C 0.5674 0.35999 0.20361 0.0
O819 O 0.54255 0.3285 0.21526 0.0
O820 O 0.55976 0.39712 0.22092 0.0
C821 C 0.52201 0.26618 0.33392 0.0
O822 O 0.52002 0.24133 0.37179 0.0
C823 C 0.49006 0.49225 0.25959 0.0
C824 C 0.42112 0.48891 0.2809 0.0
C825 C 0.4566 0.5151 0.27953 0.0
N826 N 0.47523 0.45294 0.25284 0.0
N827 N 0.43396 0.45125 0.26383 0.0
C828 C 0.53423 0.5059 0.24524 0.0
H829 H 0.54376 0.48871 0.21199 0.0
H830 H 0.55756 0.49649 0.2734 0.0
H831 H 0.53556 0.54092 0.2385 0.0
C832 C 0.45156 0.3354 0.35396 0.0
N833 N 0.47223 0.34598 0.31301 0.0
N834 N 0.49053 0.38318 0.31748 0.0
C835 C 0.4829 0.39774 0.36277 0.0
C836 C 0.45914 0.36685 0.38889 0.0
C837 C 0.42544 0.29522 0.35855 0.0
H838 H 0.42803 0.27493 0.3261 0.0
H839 H 0.43499 0.27674 0.39079 0.0
H840 H 0.39108 0.30381 0.36103 0.0
O841 O 0.43828 0.31204 0.21916 0.0
O842 O 0.46092 0.37846 0.21045 0.0
H843 H 0.48643 0.46526 0.34992 0.0
H844 H 0.47362 0.45149 0.41055 0.0
C845 C 0.4931 0.44232 0.37882 0.0
H846 H 0.5279 0.44496 0.38664 0.0
H847 H 0.41567 0.42323 0.26491 0.0
O848 O 0.49874 0.25808 0.29754 0.0
C849 C 0.43623 0.34834 0.19872 0.0
Co850 Co 0.50986 0.73895 1.00993 0.0
Co851 Co 0.41847 0.75247 1.00364 0.0
C852 C 0.46106 0.81746 0.95359 0.0
O853 O 0.49255 0.7926 0.96523 0.0
O854 O 0.42393 0.80983 0.9709 0.0
C855 C 0.55488 0.77206 0.0839 0.0
O856 O 0.57974 0.77007 0.12176 0.0
C857 C 0.3288 0.74013 1.00958 0.0
C858 C 0.33214 0.67119 1.03088 0.0
C859 C 0.30595 0.70666 1.02953 0.0
N860 N 0.36811 0.7253 1.00282 0.0
N861 N 0.3698 0.68403 1.0138 0.0
C862 C 0.31515 0.7843 0.99524 0.0
H863 H 0.33233 0.79384 0.96199 0.0
H864 H 0.32455 0.80763 1.02341 0.0
H865 H 0.28012 0.78563 0.9885 0.0
C866 C 0.48564 0.70162 0.10393 0.0
N867 N 0.47507 0.72229 0.06299 0.0
N868 N 0.43787 0.74059 0.06745 0.0
C869 C 0.42331 0.73297 0.11275 0.0
C870 C 0.45419 0.70921 0.13886 0.0
C871 C 0.52582 0.6755 0.10852 0.0
H872 H 0.54612 0.67808 0.07607 0.0
H873 H 0.54431 0.68504 0.14076 0.0
H874 H 0.51723 0.64114 0.11101 0.0
O875 O 0.509 0.68834 0.96914 0.0
O876 O 0.44259 0.71099 0.96043 0.0
H877 H 0.35579 0.73651 0.09991 0.0
H878 H 0.36955 0.7237 0.16053 0.0
C879 C 0.37873 0.74317 0.1288 0.0
H880 H 0.3761 0.77797 0.13662 0.0
H881 H 0.39782 0.66574 1.01486 0.0
O882 O 0.56297 0.74879 0.04751 0.0
C883 C 0.4727 0.6863 0.94869 0.0
Co884 Co 0.0821 0.75991 0.75995 0.0
Co885 Co 0.0686 0.66852 0.75366 0.0
C886 C 1.0036 0.7111 0.70361 0.0
O887 O 1.02845 0.7426 0.71526 0.0
O888 O 1.01124 0.67398 0.72092 0.0
C889 C 0.04899 0.80492 0.83392 0.0
O890 O 0.05098 0.82977 0.87179 0.0
C891 C 0.08094 0.57885 0.75958 0.0
C892 C 0.14988 0.58218 0.7809 0.0
C893 C 0.1144 0.55599 0.77953 0.0
N894 N 0.09577 0.61816 0.75284 0.0
N895 N 0.13703 0.61985 0.76382 0.0
C896 C 0.03676 0.5652 0.74524 0.0
H897 H 1.02723 0.58239 0.71199 0.0
H898 H 1.01343 0.57461 0.77341 0.0
H899 H 1.03544 0.53018 0.7385 0.0
C900 C 0.11943 0.73569 0.85396 0.0
N901 N 0.09877 0.72512 0.81301 0.0
N902 N 0.08047 0.68791 0.81747 0.0
C903 C 0.0881 0.67336 0.86277 0.0
C904 C 0.11185 0.70424 0.88888 0.0
C905 C 0.14555 0.77588 0.85855 0.0
H906 H 0.14297 0.79617 0.8261 0.0
H907 H 0.13601 0.79436 0.89079 0.0
H908 H 0.17992 0.76729 0.86103 0.0
O909 O 0.13272 0.75906 0.71916 0.0
O910 O 0.11008 0.69264 0.71045 0.0
H911 H 0.08456 0.60584 0.84992 0.0
H912 H 0.09737 0.6196 0.91054 0.0
C913 C 0.0779 0.62877 0.87882 0.0
H914 H 0.0431 0.62614 0.88664 0.0
H915 H 0.15533 0.64787 0.7649 0.0
O916 O 0.07226 0.81302 0.79754 0.0
C917 C 0.13476 0.72276 0.69871 0.0
Co918 Co 0.06114 0.33215 0.50993 0.0
Co919 Co 0.15252 0.31864 0.50364 0.0
C920 C 0.10994 0.25364 0.45359 0.0
O921 O 0.07844 0.2785 0.46523 0.0
O922 O 0.14707 0.26128 0.4709 0.0
C923 C 1.01612 0.29904 0.5839 0.0
O924 O 0.99126 0.30104 0.62176 0.0
C925 C 0.2422 0.33098 0.50958 0.0
C926 C 0.23886 0.39992 0.53088 0.0
C927 C 0.26505 0.36444 0.52953 0.0
N928 N 0.20289 0.3458 0.50282 0.0
N929 N 0.2012 0.38707 0.5138 0.0
C930 C 0.25585 0.2868 0.49524 0.0
H931 H 0.23866 0.27726 0.46199 0.0
H932 H 0.24644 0.26347 0.52341 0.0
H933 H 0.29087 0.28547 0.4885 0.0
C934 C 0.08535 0.36948 0.60394 0.0
N935 N 0.09593 0.34881 0.56299 0.0
N936 N 0.13313 0.33051 0.56746 0.0
C937 C 0.14769 0.33814 0.61275 0.0
C938 C 0.1168 0.3619 0.63886 0.0
C939 C 0.04517 0.3956 0.60853 0.0
H940 H 1.02488 0.39302 0.57607 0.0
H941 H 1.02669 0.38606 0.64077 0.0
H942 H 0.05376 0.42996 0.61101 0.0
O943 O 0.06199 0.38277 0.46914 0.0
O944 O 0.12841 0.36012 0.46043 0.0
H945 H 0.21521 0.33459 0.59991 0.0
H946 H 0.20144 0.34741 0.66053 0.0
C947 C 0.19227 0.32793 0.6288 0.0
H948 H 0.1949 0.29313 0.63662 0.0
H949 H 0.17318 0.40537 0.51486 0.0
O950 O 1.00802 0.32231 0.54752 0.0
C951 C 0.09829 0.3848 0.44869 0.0
Co952 Co 0.48888 0.75991 0.32191 0.0
Co953 Co 0.50239 0.66851 0.32823 0.0
C954 C 0.56739 0.7111 0.37826 0.0
O955 O 0.54254 0.7426 0.3666 0.0
O956 O 0.55974 0.67397 0.36098 0.0
C957 C 0.522 0.80493 0.24795 0.0
O958 O 0.51999 0.82977 0.21008 0.0
C959 C 0.49003 0.57886 0.32217 0.0
C960 C 0.42112 0.58226 0.30076 0.0
C961 C 0.4566 0.55608 0.30205 0.0
N962 N 0.4752 0.61815 0.32904 0.0
N963 N 0.43394 0.61987 0.31801 0.0
C964 C 0.5342 0.56518 0.3365 0.0
H965 H 0.54375 0.58235 0.36976 0.0
H966 H 0.55753 0.57458 0.30833 0.0
H967 H 0.5355 0.53015 0.34322 0.0
C968 C 0.45161 0.73568 0.22786 0.0
N969 N 0.47224 0.72511 0.26884 0.0
N970 N 0.49055 0.68791 0.2644 0.0
C971 C 0.483 0.67336 0.21909 0.0
C972 C 0.45931 0.70426 0.19294 0.0
C973 C 0.42546 0.77584 0.22323 0.0
H974 H 0.42805 0.79618 0.25565 0.0
H975 H 0.43496 0.79429 0.19095 0.0
H976 H 0.39111 0.76723 0.22079 0.0
O977 O 0.43827 0.75907 0.3627 0.0
O978 O 0.4609 0.69265 0.37141 0.0
H979 H 0.48677 0.60585 0.23194 0.0
H980 H 0.47378 0.61957 0.17135 0.0
C981 C 0.49329 0.6288 0.20303 0.0
H982 H 0.52809 0.62627 0.19512 0.0
H983 H 0.41564 0.6479 0.317 0.0
O984 O 0.49873 0.81302 0.28433 0.0
C985 C 0.43622 0.72277 0.38315 0.0
Co986 Co 0.06115 0.73892 0.07193 0.0
Co987 Co 0.15254 0.75244 0.07826 0.0
C988 C 0.10994 0.81743 0.12829 0.0
O989 O 0.07845 0.79258 0.11663 0.0
O990 O 0.14708 0.80979 0.111 0.0
C991 C 1.01612 0.77204 0.99797 0.0
O992 O 0.99128 0.77002 0.9601 0.0
C993 C 0.24219 0.74009 0.07219 0.0
C994 C 0.2388 0.67118 0.05079 0.0
C995 C 0.26498 0.70667 0.05207 0.0
N996 N 0.20291 0.72525 0.07908 0.0
N997 N 0.20119 0.68399 0.06805 0.0
C998 C 0.25587 0.78427 0.0865 0.0
H999 H 0.23871 0.79382 0.11977 0.0
H1000 H 0.24646 0.80759 0.05834 0.0
H1001 H 0.2909 0.78557 0.09322 0.0
C1002 C 0.08538 0.70166 0.97788 0.0
N1003 N 0.09595 0.72228 1.01886 0.0
N1004 N 0.13315 0.7406 1.01442 0.0
C1005 C 0.1477 0.73304 0.96912 0.0
C1006 C 0.1168 0.70935 0.94296 0.0
C1007 C 0.04522 0.6755 0.97325 0.0
H1008 H 1.02488 0.67809 1.00567 0.0
H1009 H 1.02677 0.685 0.94097 0.0
H1010 H 0.05384 0.64115 0.97081 0.0
O1011 O 0.06199 0.68831 0.11271 0.0
O1012 O 0.1284 0.71095 0.12144 0.0
H1013 H 0.21521 0.73682 0.98196 0.0
H1014 H 0.20149 0.72384 0.92137 0.0
C1015 C 0.19226 0.74335 0.95305 0.0
H1016 H 0.19479 0.77814 0.94515 0.0
H1017 H 0.17317 0.66569 0.06705 0.0
O1018 O 1.00803 0.74876 1.03435 0.0
C1019 C 0.09828 0.68627 0.13317 0.0
Co1020 Co 0.08211 0.3112 0.82191 0.0
Co1021 Co 0.06861 0.40259 0.82823 0.0
C1022 C 1.00361 0.36 0.87827 0.0
O1023 O 1.02846 0.3285 0.86661 0.0
O1024 O 1.01126 0.39713 0.86098 0.0
C1025 C 0.04899 0.26618 0.74795 0.0
O1026 O 0.05101 0.24133 0.71007 0.0
C1027 C 0.08097 0.49224 0.82218 0.0
C1028 C 0.14988 0.48884 0.80077 0.0
C1029 C 0.1144 0.51502 0.80206 0.0
N1030 N 0.0958 0.45295 0.82905 0.0
N1031 N 0.13706 0.45123 0.81802 0.0
C1032 C 0.03679 0.50592 0.8365 0.0
H1033 H 1.02725 0.48876 0.86976 0.0
H1034 H 1.01346 0.49652 0.80833 0.0
H1035 H 1.03549 0.54095 0.84322 0.0
C1036 C 0.11939 0.33542 0.72786 0.0
N1037 N 0.09876 0.34599 0.76884 0.0
N1038 N 0.08045 0.38319 0.7644 0.0
C1039 C 0.088 0.39774 0.7191 0.0
C1040 C 0.11169 0.36684 0.69294 0.0
C1041 C 0.14553 0.29526 0.72323 0.0
H1042 H 0.14294 0.27493 0.75565 0.0
H1043 H 0.13603 0.27681 0.69095 0.0
H1044 H 0.17989 0.30387 0.72079 0.0
O1045 O 0.13273 0.31203 0.8627 0.0
O1046 O 0.11009 0.37845 0.87142 0.0
H1047 H 0.08423 0.46525 0.73195 0.0
H1048 H 0.09722 0.45153 0.67135 0.0
C1049 C 0.0777 0.4423 0.70303 0.0
H1050 H 0.04291 0.44483 0.69512 0.0
H1051 H 0.15535 0.42321 0.81701 0.0
O1052 O 0.07227 0.25808 0.78433 0.0
C1053 C 0.13478 0.34833 0.88315 0.0
Co1054 Co 0.50985 0.33217 0.57193 0.0
Co1055 Co 0.41846 0.31866 0.57826 0.0
C1056 C 0.46105 0.25367 0.62829 0.0
O1057 O 0.49255 0.27852 0.61663 0.0
O1058 O 0.42392 0.26131 0.611 0.0
C1059 C 0.55488 0.29906 0.49797 0.0
O1060 O 0.57972 0.30108 0.4601 0.0
C1061 C 0.3288 0.33101 0.57219 0.0
C1062 C 0.33219 0.39992 0.55079 0.0
C1063 C 0.30602 0.36443 0.55207 0.0
N1064 N 0.36809 0.34585 0.57908 0.0
N1065 N 0.36981 0.3871 0.56805 0.0
C1066 C 0.31513 0.28683 0.5865 0.0
H1067 H 0.33229 0.27728 0.61977 0.0
H1068 H 0.32453 0.26351 0.55834 0.0
H1069 H 0.2801 0.28553 0.59322 0.0
C1070 C 0.48562 0.36944 0.47788 0.0
N1071 N 0.47505 0.34882 0.51886 0.0
N1072 N 0.43785 0.3305 0.51443 0.0
C1073 C 0.4233 0.33805 0.46912 0.0
C1074 C 0.45419 0.36174 0.44296 0.0
C1075 C 0.52578 0.39559 0.47325 0.0
H1076 H 0.54611 0.39301 0.50567 0.0
H1077 H 0.54423 0.38609 0.44097 0.0
H1078 H 0.51716 0.42995 0.47081 0.0
O1079 O 0.50901 0.38279 0.61272 0.0
O1080 O 0.44259 0.36015 0.62144 0.0
H1081 H 0.35579 0.33427 0.48197 0.0
H1082 H 0.36951 0.34726 0.42137 0.0
C1083 C 0.37874 0.32775 0.45305 0.0
H1084 H 0.37621 0.29296 0.44514 0.0
H1085 H 0.39783 0.4054 0.56705 0.0
O1086 O 0.56296 0.32233 0.53435 0.0
C1087 C 0.47271 0.38483 0.63317 0.0
loop_
_geom_bond_atom_site_label_1
_geom_bond_atom_site_label_2
_geom_bond_distance
_geom_bond_site_symmetry_2
_ccdc_geom_bond_type
Co0 O3 1.970 1_455 S
Co0 N17 1.989 . S
Co0 O25 1.967 . S
Co0 O32 1.920 1_455 S
Co1 O4 1.966 . S
Co1 N10 2.022 . S
Co1 N18 1.993 . S
Co1 O26 1.941 . S
C2 O3 1.257 . S
C2 O4 1.266 1_655 S
O3 Co0 1.970 1_655 S
O3 C2 1.257 . S
O4 Co1 1.966 . S
O4 C2 1.266 1_455 S
C5 O6 1.235 . S
C5 O32 1.289 . S
O6 C5 1.235 . S
C7 C9 1.400 . S
C7 N10 1.351 . S
C7 C12 1.501 . S
C8 C9 1.387 . S
C8 N11 1.341 . S
C9 C7 1.400 . S
C9 C8 1.387 . S
N10 Co1 2.022 . S
N10 C7 1.351 . S
N10 N11 1.365 . S
N11 C8 1.341 . S
N11 N10 1.365 . S
N11 H31 0.862 . S
C12 C7 1.501 . S
C12 H13 0.961 . S
C12 H14 0.961 . S
C12 H15 0.960 . S
H13 C12 0.961 . S
H14 C12 0.961 . S
H15 C12 0.960 . S
C16 N17 1.342 . S
C16 C20 1.401 . S
C16 C21 1.499 1_455 S
N17 Co0 1.989 . S
N17 C16 1.342 . S
N17 N18 1.388 . S
N18 Co1 1.993 . S
N18 N17 1.388 . S
N18 C19 1.346 . S
C19 N18 1.346 . S
C19 C20 1.396 . S
C19 C29 1.510 . S
C20 C16 1.401 . S
C20 C19 1.396 . S
C21 C16 1.499 1_655 S
C21 H22 0.959 . S
C21 H23 0.960 . S
C21 H24 0.961 1_655 S
H22 C21 0.959 . S
H23 C21 0.960 . S
H24 C21 0.961 1_455 S
O25 Co0 1.967 . S
O25 C33 1.258 . S
O26 Co1 1.941 . S
O26 C33 1.266 . S
H27 C29 0.959 . S
H28 C29 0.961 . S
C29 C19 1.510 . S
C29 H27 0.959 . S
C29 H28 0.961 . S
C29 H30 0.960 . S
H30 C29 0.960 . S
H31 N11 0.862 . S
O32 Co0 1.920 1_655 S
O32 C5 1.289 . S
C33 O25 1.258 . S
C33 O26 1.266 . S
Co34 O37 1.970 . S
Co34 N51 1.989 . S
Co34 O59 1.967 . S
Co34 O66 1.920 . S
Co35 O38 1.966 . S
Co35 N44 2.022 . S
Co35 N52 1.993 . S
Co35 O60 1.941 . S
C36 O37 1.258 . S
C36 O38 1.263 . S
O37 Co34 1.970 . S
O37 C36 1.258 . S
O38 Co35 1.966 . S
O38 C36 1.263 . S
C39 O40 1.235 . S
C39 O66 1.289 . S
O40 C39 1.235 . S
C41 C43 1.400 . S
C41 N44 1.351 . S
C41 C46 1.501 . S
C42 C43 1.387 . S
C42 N45 1.341 . S
C43 C41 1.400 . S
C43 C42 1.387 . S
N44 Co35 2.022 . S
N44 C41 1.351 . S
N44 N45 1.365 . S
N45 C42 1.341 . S
N45 N44 1.365 . S
N45 H65 0.862 . S
C46 C41 1.501 . S
C46 H47 0.961 . S
C46 H48 0.961 . S
C46 H49 0.960 . S
H47 C46 0.961 . S
H48 C46 0.961 . S
H49 C46 0.960 . S
C50 N51 1.342 . S
C50 C54 1.401 . S
C50 C55 1.499 . S
N51 Co34 1.989 . S
N51 C50 1.342 . S
N51 N52 1.388 . S
N52 Co35 1.993 . S
N52 N51 1.388 . S
N52 C53 1.346 . S
C53 N52 1.346 . S
C53 C54 1.396 . S
C53 C63 1.510 . S
C54 C50 1.401 . S
C54 C53 1.396 . S
C55 C50 1.499 . S
C55 H56 0.959 . S
C55 H57 0.960 . S
C55 H58 0.961 . S
H56 C55 0.959 . S
H57 C55 0.960 . S
H58 C55 0.961 . S
O59 Co34 1.967 . S
O59 C67 1.258 . S
O60 Co35 1.941 . S
O60 C67 1.266 . S
H61 C63 0.959 . S
H62 C63 0.961 . S
C63 C53 1.510 . S
C63 H61 0.959 . S
C63 H62 0.961 . S
C63 H64 0.960 . S
H64 C63 0.960 . S
H65 N45 0.862 . S
O66 Co34 1.920 . S
O66 C39 1.289 . S
C67 O59 1.258 . S
C67 O60 1.266 . S
Co68 O71 1.970 . S
Co68 N85 1.989 . S
Co68 O93 1.967 . S
Co68 O100 1.920 . S
Co69 O72 1.966 . S
Co69 N78 2.022 . S
Co69 N86 1.993 . S
Co69 O94 1.941 . S
C70 O71 1.258 . S
C70 O72 1.263 . S
O71 Co68 1.970 . S
O71 C70 1.258 . S
O72 Co69 1.966 . S
O72 C70 1.263 . S
C73 O74 1.235 . S
C73 O100 1.289 . S
O74 C73 1.235 . S
C75 C77 1.400 . S
C75 N78 1.351 . S
C75 C80 1.501 . S
C76 C77 1.387 . S
C76 N79 1.341 . S
C77 C75 1.400 . S
C77 C76 1.387 . S
N78 Co69 2.022 . S
N78 C75 1.351 . S
N78 N79 1.365 . S
N79 C76 1.341 . S
N79 N78 1.365 . S
N79 H99 0.862 . S
C80 C75 1.501 . S
C80 H81 0.961 . S
C80 H82 0.961 . S
C80 H83 0.960 . S
H81 C80 0.961 . S
H82 C80 0.961 . S
H83 C80 0.960 . S
C84 N85 1.342 . S
C84 C88 1.401 . S
C84 C89 1.499 . S
N85 Co68 1.989 . S
N85 C84 1.342 . S
N85 N86 1.388 . S
N86 Co69 1.993 . S
N86 N85 1.388 . S
N86 C87 1.346 . S
C87 N86 1.346 . S
C87 C88 1.396 . S
C87 C97 1.510 . S
C88 C84 1.401 . S
C88 C87 1.396 . S
C89 C84 1.499 . S
C89 H90 0.959 . S
C89 H91 0.960 . S
C89 H92 0.961 . S
H90 C89 0.959 . S
H91 C89 0.960 . S
H92 C89 0.961 . S
O93 Co68 1.967 . S
O93 C101 1.258 . S
O94 Co69 1.941 . S
O94 C101 1.266 . S
H95 C97 0.959 . S
H96 C97 0.961 . S
C97 C87 1.510 . S
C97 H95 0.959 . S
C97 H96 0.961 . S
C97 H98 0.960 . S
H98 C97 0.960 . S
H99 N79 0.862 . S
O100 Co68 1.920 . S
O100 C73 1.289 . S
C101 O93 1.258 . S
C101 O94 1.266 . S
Co102 O105 1.970 . S
Co102 N119 1.989 . S
Co102 O127 1.967 . S
Co102 O134 1.920 . S
Co103 O106 1.966 . S
Co103 N112 2.022 1_554 S
Co103 N120 1.993 . S
Co103 O128 1.941 . S
C104 O105 1.258 . S
C104 O106 1.263 . S
O105 Co102 1.970 . S
O105 C104 1.258 . S
O106 Co103 1.966 . S
O106 C104 1.263 . S
C107 O108 1.235 . S
C107 O134 1.289 . S
O108 C107 1.235 . S
C109 C111 1.400 . S
C109 N112 1.351 . S
C109 C114 1.501 . S
C110 C111 1.387 . S
C110 N113 1.341 . S
C111 C109 1.400 . S
C111 C110 1.387 . S
N112 Co103 2.022 1_556 S
N112 C109 1.351 . S
N112 N113 1.365 . S
N113 C110 1.341 . S
N113 N112 1.365 . S
N113 H133 0.862 . S
C114 C109 1.501 . S
C114 H115 0.961 . S
C114 H116 0.961 . S
C114 H117 0.960 . S
H115 C114 0.961 . S
H116 C114 0.961 . S
H117 C114 0.960 . S
C118 N119 1.342 . S
C118 C122 1.401 . S
C118 C123 1.499 . S
N119 Co102 1.989 . S
N119 C118 1.342 . S
N119 N120 1.388 . S
N120 Co103 1.993 . S
N120 N119 1.388 . S
N120 C121 1.346 . S
C121 N120 1.346 . S
C121 C122 1.396 . S
C121 C131 1.510 1_554 S
C122 C118 1.401 . S
C122 C121 1.396 . S
C123 C118 1.499 . S
C123 H124 0.959 . S
C123 H125 0.960 . S
C123 H126 0.961 . S
H124 C123 0.959 . S
H125 C123 0.960 . S
H126 C123 0.961 . S
O127 Co102 1.967 . S
O127 C135 1.258 . S
O128 Co103 1.941 . S
O128 C135 1.266 . S
H129 C131 0.959 . S
H130 C131 0.961 . S
C131 C121 1.510 1_556 S
C131 H129 0.959 . S
C131 H130 0.961 . S
C131 H132 0.960 . S
H132 C131 0.960 . S
H133 N113 0.862 . S
O134 Co102 1.920 . S
O134 C107 1.289 . S
C135 O127 1.258 . S
C135 O128 1.266 . S
Co136 O139 1.970 1_455 S
Co136 N153 1.989 . S
Co136 O161 1.967 . S
Co136 O168 1.920 1_455 S
Co137 O140 1.966 . S
Co137 N146 2.022 . S
Co137 N154 1.993 . S
Co137 O162 1.941 . S
C138 O139 1.257 . S
C138 O140 1.265 1_655 S
O139 Co136 1.970 1_655 S
O139 C138 1.257 . S
O140 Co137 1.966 . S
O140 C138 1.265 1_455 S
C141 O142 1.235 . S
C141 O168 1.289 . S
O142 C141 1.235 . S
C143 C145 1.400 . S
C143 N146 1.351 . S
C143 C148 1.501 . S
C144 C145 1.387 . S
C144 N147 1.341 . S
C145 C143 1.400 . S
C145 C144 1.387 . S
N146 Co137 2.022 . S
N146 C143 1.351 . S
N146 N147 1.365 . S
N147 C144 1.341 . S
N147 N146 1.365 . S
N147 H167 0.862 . S
C148 C143 1.501 . S
C148 H149 0.961 . S
C148 H150 0.961 . S
C148 H151 0.960 . S
H149 C148 0.961 . S
H150 C148 0.961 . S
H151 C148 0.960 . S
C152 N153 1.342 . S
C152 C156 1.401 . S
C152 C157 1.499 1_455 S
N153 Co136 1.989 . S
N153 C152 1.342 . S
N153 N154 1.388 . S
N154 Co137 1.993 . S
N154 N153 1.388 . S
N154 C155 1.346 . S
C155 N154 1.346 . S
C155 C156 1.396 . S
C155 C165 1.510 . S
C156 C152 1.401 . S
C156 C155 1.396 . S
C157 C152 1.499 1_655 S
C157 H158 0.959 . S
C157 H159 0.960 . S
C157 H160 0.961 1_655 S
H158 C157 0.959 . S
H159 C157 0.960 . S
H160 C157 0.961 1_455 S
O161 Co136 1.967 . S
O161 C169 1.258 . S
O162 Co137 1.941 . S
O162 C169 1.266 . S
H163 C165 0.959 . S
H164 C165 0.961 . S
C165 C155 1.510 . S
C165 H163 0.959 . S
C165 H164 0.961 . S
C165 H166 0.960 . S
H166 C165 0.960 . S
H167 N147 0.862 . S
O168 Co136 1.920 1_655 S
O168 C141 1.289 . S
C169 O161 1.258 . S
C169 O162 1.266 . S
Co170 O173 1.970 . S
Co170 N187 1.989 . S
Co170 O195 1.967 . S
Co170 O202 1.920 . S
Co171 O174 1.966 . S
Co171 N180 2.022 . S
Co171 N188 1.993 . S
Co171 O196 1.941 . S
C172 O173 1.258 . S
C172 O174 1.263 . S
O173 Co170 1.970 . S
O173 C172 1.258 . S
O174 Co171 1.966 . S
O174 C172 1.263 . S
C175 O176 1.235 . S
C175 O202 1.289 . S
O176 C175 1.235 . S
C177 C179 1.400 . S
C177 N180 1.351 . S
C177 C182 1.501 . S
C178 C179 1.387 . S
C178 N181 1.341 . S
C179 C177 1.400 . S
C179 C178 1.387 . S
N180 Co171 2.022 . S
N180 C177 1.351 . S
N180 N181 1.365 . S
N181 C178 1.341 . S
N181 N180 1.365 . S
N181 H201 0.862 . S
C182 C177 1.501 . S
C182 H183 0.961 . S
C182 H184 0.961 . S
C182 H185 0.960 . S
H183 C182 0.961 . S
H184 C182 0.961 . S
H185 C182 0.960 . S
C186 N187 1.342 . S
C186 C190 1.401 . S
C186 C191 1.499 . S
N187 Co170 1.989 . S
N187 C186 1.342 . S
N187 N188 1.388 . S
N188 Co171 1.993 . S
N188 N187 1.388 . S
N188 C189 1.346 . S
C189 N188 1.346 . S
C189 C190 1.396 . S
C189 C199 1.510 . S
C190 C186 1.401 . S
C190 C189 1.396 . S
C191 C186 1.499 . S
C191 H192 0.959 . S
C191 H193 0.960 . S
C191 H194 0.961 . S
H192 C191 0.959 . S
H193 C191 0.960 . S
H194 C191 0.961 . S
O195 Co170 1.967 . S
O195 C203 1.258 . S
O196 Co171 1.941 . S
O196 C203 1.266 . S
H197 C199 0.959 . S
H198 C199 0.961 . S
C199 C189 1.510 . S
C199 H197 0.959 . S
C199 H198 0.961 . S
C199 H200 0.960 . S
H200 C199 0.960 . S
H201 N181 0.862 . S
O202 Co170 1.920 . S
O202 C175 1.289 . S
C203 O195 1.258 . S
C203 O196 1.266 . S
Co204 O207 1.970 . S
Co204 N221 1.989 . S
Co204 O229 1.967 . S
Co204 O236 1.920 . S
Co205 O208 1.966 . S
Co205 N214 2.022 . S
Co205 N222 1.993 . S
Co205 O230 1.941 . S
C206 O207 1.258 . S
C206 O208 1.263 . S
O207 Co204 1.970 . S
O207 C206 1.258 . S
O208 Co205 1.966 . S
O208 C206 1.263 . S
C209 O210 1.235 . S
C209 O236 1.289 . S
O210 C209 1.235 . S
C211 C213 1.400 . S
C211 N214 1.351 . S
C211 C216 1.501 . S
C212 C213 1.387 . S
C212 N215 1.341 . S
C213 C211 1.400 . S
C213 C212 1.387 . S
N214 Co205 2.022 . S
N214 C211 1.351 . S
N214 N215 1.365 . S
N215 C212 1.341 . S
N215 N214 1.365 . S
N215 H235 0.862 . S
C216 C211 1.501 . S
C216 H217 0.961 . S
C216 H218 0.961 . S
C216 H219 0.960 . S
H217 C216 0.961 . S
H218 C216 0.961 . S
H219 C216 0.960 . S
C220 N221 1.342 . S
C220 C224 1.401 . S
C220 C225 1.499 . S
N221 Co204 1.989 . S
N221 C220 1.342 . S
N221 N222 1.388 . S
N222 Co205 1.993 . S
N222 N221 1.388 . S
N222 C223 1.346 . S
C223 N222 1.346 . S
C223 C224 1.396 . S
C223 C233 1.510 . S
C224 C220 1.401 . S
C224 C223 1.396 . S
C225 C220 1.499 . S
C225 H226 0.959 . S
C225 H227 0.960 . S
C225 H228 0.961 . S
H226 C225 0.959 . S
H227 C225 0.960 . S
H228 C225 0.961 . S
O229 Co204 1.967 . S
O229 C237 1.258 . S
O230 Co205 1.941 . S
O230 C237 1.266 . S
H231 C233 0.959 . S
H232 C233 0.961 . S
C233 C223 1.510 . S
C233 H231 0.959 . S
C233 H232 0.961 . S
C233 H234 0.960 . S
H234 C233 0.960 . S
H235 N215 0.862 . S
O236 Co204 1.920 . S
O236 C209 1.289 . S
C237 O229 1.258 . S
C237 O230 1.266 . S
Co238 O241 1.970 . S
Co238 N255 1.989 . S
Co238 O263 1.967 . S
Co238 O270 1.920 . S
Co239 O242 1.966 . S
Co239 N248 2.022 1_556 S
Co239 N256 1.993 . S
Co239 O264 1.941 . S
C240 O241 1.258 . S
C240 O242 1.263 . S
O241 Co238 1.970 . S
O241 C240 1.258 . S
O242 Co239 1.966 . S
O242 C240 1.263 . S
C243 O244 1.235 . S
C243 O270 1.289 . S
O244 C243 1.235 . S
C245 C247 1.400 . S
C245 N248 1.351 . S
C245 C250 1.501 . S
C246 C247 1.387 . S
C246 N249 1.341 . S
C247 C245 1.400 . S
C247 C246 1.387 . S
N248 Co239 2.022 1_554 S
N248 C245 1.351 . S
N248 N249 1.365 . S
N249 C246 1.341 . S
N249 N248 1.365 . S
N249 H269 0.862 . S
C250 C245 1.501 . S
C250 H251 0.961 . S
C250 H252 0.961 . S
C250 H253 0.960 . S
H251 C250 0.961 . S
H252 C250 0.961 . S
H253 C250 0.960 . S
C254 N255 1.342 . S
C254 C258 1.401 . S
C254 C259 1.499 . S
N255 Co238 1.989 . S
N255 C254 1.342 . S
N255 N256 1.388 . S
N256 Co239 1.993 . S
N256 N255 1.388 . S
N256 C257 1.346 . S
C257 N256 1.346 . S
C257 C258 1.396 . S
C257 C267 1.510 1_556 S
C258 C254 1.401 . S
C258 C257 1.396 . S
C259 C254 1.499 . S
C259 H260 0.959 . S
C259 H261 0.960 . S
C259 H262 0.961 . S
H260 C259 0.959 . S
H261 C259 0.960 . S
H262 C259 0.961 . S
O263 Co238 1.967 . S
O263 C271 1.258 . S
O264 Co239 1.941 . S
O264 C271 1.266 . S
H265 C267 0.959 . S
H266 C267 0.961 . S
C267 C257 1.510 1_554 S
C267 H265 0.959 . S
C267 H266 0.961 . S
C267 H268 0.960 . S
H268 C267 0.960 . S
H269 N249 0.862 . S
O270 Co238 1.920 . S
O270 C243 1.289 . S
C271 O263 1.258 . S
C271 O264 1.266 . S
Co272 O275 1.970 1_655 S
Co272 N289 1.989 . S
Co272 O297 1.967 . S
Co272 O304 1.920 . S
Co273 O276 1.966 . S
Co273 N282 2.022 . S
Co273 N290 1.993 . S
Co273 O298 1.941 . S
C274 O275 1.257 1_655 S
C274 O276 1.278 . S
O275 Co272 1.970 1_455 S
O275 C274 1.257 1_455 S
O276 Co273 1.966 . S
O276 C274 1.278 . S
C277 O278 1.235 1_655 S
C277 O304 1.289 . S
O278 C277 1.235 1_455 S
C279 C281 1.400 1_565 S
C279 N282 1.351 . S
C279 C284 1.501 . S
C280 C281 1.387 1_565 S
C280 N283 1.341 . S
C281 C279 1.400 1_545 S
C281 C280 1.387 1_545 S
N282 Co273 2.022 . S
N282 C279 1.351 . S
N282 N283 1.365 . S
N283 C280 1.341 . S
N283 N282 1.365 . S
N283 H303 0.862 . S
C284 C279 1.501 . S
C284 H285 0.961 . S
C284 H286 0.961 . S
C284 H287 0.960 . S
H285 C284 0.961 . S
H286 C284 0.961 . S
H287 C284 0.960 . S
C288 N289 1.342 . S
C288 C292 1.401 . S
C288 C293 1.499 . S
N289 Co272 1.989 . S
N289 C288 1.342 . S
N289 N290 1.388 . S
N290 Co273 1.993 . S
N290 N289 1.388 . S
N290 C291 1.346 . S
C291 N290 1.346 . S
C291 C292 1.396 . S
C291 C301 1.510 . S
C292 C288 1.401 . S
C292 C291 1.396 . S
C293 C288 1.499 . S
C293 H294 0.959 . S
C293 H295 0.960 . S
C293 H296 0.961 . S
H294 C293 0.959 . S
H295 C293 0.960 . S
H296 C293 0.961 . S
O297 Co272 1.967 . S
O297 C305 1.258 . S
O298 Co273 1.941 . S
O298 C305 1.266 . S
H299 C301 0.959 . S
H300 C301 0.961 . S
C301 C291 1.510 . S
C301 H299 0.959 . S
C301 H300 0.961 . S
C301 H302 0.960 . S
H302 C301 0.960 . S
H303 N283 0.862 . S
O304 Co272 1.920 . S
O304 C277 1.289 . S
C305 O297 1.258 . S
C305 O298 1.266 . S
Co306 O309 1.970 . S
Co306 N323 1.989 . S
Co306 O331 1.967 . S
Co306 O338 1.920 1_655 S
Co307 O310 1.966 . S
Co307 N316 2.022 . S
Co307 N324 1.993 . S
Co307 O332 1.941 . S
C308 O309 1.258 . S
C308 O310 1.263 . S
O309 Co306 1.970 . S
O309 C308 1.258 . S
O310 Co307 1.966 . S
O310 C308 1.263 . S
C311 O312 1.235 . S
C311 O338 1.289 . S
O312 C311 1.235 . S
C313 C315 1.400 . S
C313 N316 1.351 . S
C313 C318 1.501 . S
C314 C315 1.387 . S
C314 N317 1.341 . S
C315 C313 1.400 . S
C315 C314 1.387 . S
N316 Co307 2.022 . S
N316 C313 1.351 . S
N316 N317 1.365 . S
N317 C314 1.341 . S
N317 N316 1.365 . S
N317 H337 0.862 . S
C318 C313 1.501 . S
C318 H319 0.961 . S
C318 H320 0.961 . S
C318 H321 0.960 . S
H319 C318 0.961 . S
H320 C318 0.961 . S
H321 C318 0.960 . S
C322 N323 1.342 . S
C322 C326 1.401 . S
C322 C327 1.499 . S
N323 Co306 1.989 . S
N323 C322 1.342 . S
N323 N324 1.388 . S
N324 Co307 1.993 . S
N324 N323 1.388 . S
N324 C325 1.346 . S
C325 N324 1.346 . S
C325 C326 1.396 . S
C325 C335 1.510 . S
C326 C322 1.401 . S
C326 C325 1.396 . S
C327 C322 1.499 . S
C327 H328 0.959 . S
C327 H329 0.960 . S
C327 H330 0.961 . S
H328 C327 0.959 . S
H329 C327 0.960 . S
H330 C327 0.961 . S
O331 Co306 1.967 . S
O331 C339 1.258 . S
O332 Co307 1.941 . S
O332 C339 1.266 . S
H333 C335 0.959 . S
H334 C335 0.961 . S
C335 C325 1.510 . S
C335 H333 0.959 . S
C335 H334 0.961 . S
C335 H336 0.960 . S
H336 C335 0.960 . S
H337 N317 0.862 . S
O338 Co306 1.920 1_455 S
O338 C311 1.289 . S
C339 O331 1.258 . S
C339 O332 1.266 . S
Co340 O343 1.970 . S
Co340 N357 1.989 . S
Co340 O365 1.967 . S
Co340 O372 1.920 . S
Co341 O344 1.966 . S
Co341 N350 2.022 . S
Co341 N358 1.993 . S
Co341 O366 1.941 . S
C342 O343 1.258 . S
C342 O344 1.263 . S
O343 Co340 1.970 . S
O343 C342 1.258 . S
O344 Co341 1.966 . S
O344 C342 1.263 . S
C345 O346 1.235 . S
C345 O372 1.289 . S
O346 C345 1.235 . S
C347 C349 1.400 1_545 S
C347 N350 1.351 . S
C347 C352 1.501 . S
C348 C349 1.387 1_545 S
C348 N351 1.341 . S
C349 C347 1.400 1_565 S
C349 C348 1.387 1_565 S
N350 Co341 2.022 . S
N350 C347 1.351 . S
N350 N351 1.365 . S
N351 C348 1.341 . S
N351 N350 1.365 . S
N351 H371 0.862 . S
C352 C347 1.501 . S
C352 H353 0.961 . S
C352 H354 0.961 . S
C352 H355 0.960 . S
H353 C352 0.961 . S
H354 C352 0.961 . S
H355 C352 0.960 . S
C356 N357 1.342 . S
C356 C360 1.401 . S
C356 C361 1.499 . S
N357 Co340 1.989 . S
N357 C356 1.342 . S
N357 N358 1.388 . S
N358 Co341 1.993 . S
N358 N357 1.388 . S
N358 C359 1.346 . S
C359 N358 1.346 . S
C359 C360 1.396 . S
C359 C369 1.510 . S
C360 C356 1.401 . S
C360 C359 1.396 . S
C361 C356 1.499 . S
C361 H362 0.959 . S
C361 H363 0.960 . S
C361 H364 0.961 . S
H362 C361 0.959 . S
H363 C361 0.960 . S
H364 C361 0.961 . S
O365 Co340 1.967 . S
O365 C373 1.258 . S
O366 Co341 1.941 . S
O366 C373 1.266 . S
H367 C369 0.959 . S
H368 C369 0.961 . S
C369 C359 1.510 . S
C369 H367 0.959 . S
C369 H368 0.961 . S
C369 H370 0.960 . S
H370 C369 0.960 . S
H371 N351 0.862 . S
O372 Co340 1.920 . S
O372 C345 1.289 . S
C373 O365 1.258 . S
C373 O366 1.266 . S
Co374 O377 1.970 . S
Co374 N391 1.989 1_556 S
Co374 O399 1.967 . S
Co374 O406 1.920 . S
Co375 O378 1.966 . S
Co375 N384 2.022 . S
Co375 N392 1.993 1_556 S
Co375 O400 1.941 . S
C376 O377 1.258 . S
C376 O378 1.263 . S
O377 Co374 1.970 . S
O377 C376 1.258 . S
O378 Co375 1.966 . S
O378 C376 1.263 . S
C379 O380 1.235 . S
C379 O406 1.289 1_554 S
O380 C379 1.235 . S
C381 C383 1.400 . S
C381 N384 1.351 . S
C381 C386 1.501 . S
C382 C383 1.387 . S
C382 N385 1.341 . S
C383 C381 1.400 . S
C383 C382 1.387 . S
N384 Co375 2.022 . S
N384 C381 1.351 . S
N384 N385 1.365 . S
N385 C382 1.341 . S
N385 N384 1.365 . S
N385 H405 0.862 . S
C386 C381 1.501 . S
C386 H387 0.961 . S
C386 H388 0.961 . S
C386 H389 0.960 . S
H387 C386 0.961 . S
H388 C386 0.961 . S
H389 C386 0.960 . S
C390 N391 1.342 . S
C390 C394 1.401 . S
C390 C395 1.499 . S
N391 Co374 1.989 1_554 S
N391 C390 1.342 . S
N391 N392 1.388 . S
N392 Co375 1.993 1_554 S
N392 N391 1.388 . S
N392 C393 1.346 . S
C393 N392 1.346 . S
C393 C394 1.396 . S
C393 C403 1.510 . S
C394 C390 1.401 . S
C394 C393 1.396 . S
C395 C390 1.499 . S
C395 H396 0.959 . S
C395 H397 0.960 . S
C395 H398 0.961 . S
H396 C395 0.959 . S
H397 C395 0.960 . S
H398 C395 0.961 . S
O399 Co374 1.967 . S
O399 C407 1.258 . S
O400 Co375 1.941 . S
O400 C407 1.266 . S
H401 C403 0.959 . S
H402 C403 0.961 . S
C403 C393 1.510 . S
C403 H401 0.959 . S
C403 H402 0.961 . S
C403 H404 0.960 . S
H404 C403 0.960 . S
H405 N385 0.862 . S
O406 Co374 1.920 . S
O406 C379 1.289 1_556 S
C407 O399 1.258 . S
C407 O400 1.266 . S
Co408 O411 1.970 1_655 S
Co408 N425 1.989 . S
Co408 O433 1.967 . S
Co408 O440 1.920 . S
Co409 O412 1.966 . S
Co409 N418 2.022 . S
Co409 N426 1.993 . S
Co409 O434 1.941 . S
C410 O411 1.257 1_655 S
C410 O412 1.278 . S
O411 Co408 1.970 1_455 S
O411 C410 1.257 1_455 S
O412 Co409 1.966 . S
O412 C410 1.278 . S
C413 O414 1.235 1_655 S
C413 O440 1.289 . S
O414 C413 1.235 1_455 S
C415 C417 1.400 1_545 S
C415 N418 1.351 . S
C415 C420 1.501 . S
C416 C417 1.387 1_545 S
C416 N419 1.341 . S
C417 C415 1.400 1_565 S
C417 C416 1.387 1_565 S
N418 Co409 2.022 . S
N418 C415 1.351 . S
N418 N419 1.365 . S
N419 C416 1.341 . S
N419 N418 1.365 . S
N419 H439 0.862 . S
C420 C415 1.501 . S
C420 H421 0.961 . S
C420 H422 0.961 . S
C420 H423 0.960 . S
H421 C420 0.961 . S
H422 C420 0.961 . S
H423 C420 0.960 . S
C424 N425 1.342 . S
C424 C428 1.401 . S
C424 C429 1.499 . S
N425 Co408 1.989 . S
N425 C424 1.342 . S
N425 N426 1.388 . S
N426 Co409 1.993 . S
N426 N425 1.388 . S
N426 C427 1.346 . S
C427 N426 1.346 . S
C427 C428 1.396 . S
C427 C437 1.510 . S
C428 C424 1.401 . S
C428 C427 1.396 . S
C429 C424 1.499 . S
C429 H430 0.959 . S
C429 H431 0.960 . S
C429 H432 0.961 . S
H430 C429 0.959 . S
H431 C429 0.960 . S
H432 C429 0.961 . S
O433 Co408 1.967 . S
O433 C441 1.258 . S
O434 Co409 1.941 . S
O434 C441 1.266 . S
H435 C437 0.959 . S
H436 C437 0.961 . S
C437 C427 1.510 . S
C437 H435 0.959 . S
C437 H436 0.961 . S
C437 H438 0.960 . S
H438 C437 0.960 . S
H439 N419 0.862 . S
O440 Co408 1.920 . S
O440 C413 1.289 . S
C441 O433 1.258 . S
C441 O434 1.266 . S
Co442 O445 1.970 . S
Co442 N459 1.989 . S
Co442 O467 1.967 . S
Co442 O474 1.920 . S
Co443 O446 1.966 . S
Co443 N452 2.022 . S
Co443 N460 1.993 . S
Co443 O468 1.941 . S
C444 O445 1.258 . S
C444 O446 1.263 . S
O445 Co442 1.970 . S
O445 C444 1.258 . S
O446 Co443 1.966 . S
O446 C444 1.263 . S
C447 O448 1.235 . S
C447 O474 1.289 . S
O448 C447 1.235 . S
C449 C451 1.400 . S
C449 N452 1.351 . S
C449 C454 1.501 . S
C450 C451 1.387 . S
C450 N453 1.341 . S
C451 C449 1.400 . S
C451 C450 1.387 . S
N452 Co443 2.022 . S
N452 C449 1.351 . S
N452 N453 1.365 . S
N453 C450 1.341 . S
N453 N452 1.365 . S
N453 H473 0.862 . S
C454 C449 1.501 . S
C454 H455 0.961 . S
C454 H456 0.961 . S
C454 H457 0.960 . S
H455 C454 0.961 . S
H456 C454 0.961 . S
H457 C454 0.960 . S
C458 N459 1.342 . S
C458 C462 1.401 . S
C458 C463 1.499 . S
N459 Co442 1.989 . S
N459 C458 1.342 . S
N459 N460 1.388 . S
N460 Co443 1.993 . S
N460 N459 1.388 . S
N460 C461 1.346 . S
C461 N460 1.346 . S
C461 C462 1.396 . S
C461 C471 1.510 . S
C462 C458 1.401 . S
C462 C461 1.396 . S
C463 C458 1.499 . S
C463 H464 0.959 . S
C463 H465 0.960 . S
C463 H466 0.961 . S
H464 C463 0.959 . S
H465 C463 0.960 . S
H466 C463 0.961 . S
O467 Co442 1.967 . S
O467 C475 1.258 . S
O468 Co443 1.941 . S
O468 C475 1.266 . S
H469 C471 0.959 . S
H470 C471 0.961 . S
C471 C461 1.510 . S
C471 H469 0.959 . S
C471 H470 0.961 . S
C471 H472 0.960 . S
H472 C471 0.960 . S
H473 N453 0.862 . S
O474 Co442 1.920 . S
O474 C447 1.289 . S
C475 O467 1.258 . S
C475 O468 1.266 . S
Co476 O479 1.970 . S
Co476 N493 1.989 . S
Co476 O501 1.967 . S
Co476 O508 1.920 . S
Co477 O480 1.966 . S
Co477 N486 2.022 . S
Co477 N494 1.993 . S
Co477 O502 1.941 . S
C478 O479 1.258 . S
C478 O480 1.263 . S
O479 Co476 1.970 . S
O479 C478 1.258 . S
O480 Co477 1.966 . S
O480 C478 1.263 . S
C481 O482 1.235 . S
C481 O508 1.289 . S
O482 C481 1.235 . S
C483 C485 1.400 1_565 S
C483 N486 1.351 . S
C483 C488 1.501 . S
C484 C485 1.387 1_565 S
C484 N487 1.341 . S
C485 C483 1.400 1_545 S
C485 C484 1.387 1_545 S
N486 Co477 2.022 . S
N486 C483 1.351 . S
N486 N487 1.365 . S
N487 C484 1.341 . S
N487 N486 1.365 . S
N487 H507 0.862 . S
C488 C483 1.501 . S
C488 H489 0.961 . S
C488 H490 0.961 . S
C488 H491 0.960 . S
H489 C488 0.961 . S
H490 C488 0.961 . S
H491 C488 0.960 . S
C492 N493 1.342 . S
C492 C496 1.401 . S
C492 C497 1.499 . S
N493 Co476 1.989 . S
N493 C492 1.342 . S
N493 N494 1.388 . S
N494 Co477 1.993 . S
N494 N493 1.388 . S
N494 C495 1.346 . S
C495 N494 1.346 . S
C495 C496 1.396 . S
C495 C505 1.510 . S
C496 C492 1.401 . S
C496 C495 1.396 . S
C497 C492 1.499 . S
C497 H498 0.959 . S
C497 H499 0.960 . S
C497 H500 0.961 . S
H498 C497 0.959 . S
H499 C497 0.960 . S
H500 C497 0.961 . S
O501 Co476 1.967 . S
O501 C509 1.258 . S
O502 Co477 1.941 . S
O502 C509 1.266 . S
H503 C505 0.959 . S
H504 C505 0.961 . S
C505 C495 1.510 . S
C505 H503 0.959 . S
C505 H504 0.961 . S
C505 H506 0.960 . S
H506 C505 0.960 . S
H507 N487 0.862 . S
O508 Co476 1.920 . S
O508 C481 1.289 . S
C509 O501 1.258 . S
C509 O502 1.266 . S
Co510 O513 1.970 . S
Co510 N527 1.989 1_554 S
Co510 O535 1.967 . S
Co510 O542 1.920 1_655 S
Co511 O514 1.966 . S
Co511 N520 2.022 . S
Co511 N528 1.993 1_554 S
Co511 O536 1.941 . S
C512 O513 1.258 . S
C512 O514 1.263 . S
O513 Co510 1.970 . S
O513 C512 1.258 . S
O514 Co511 1.966 . S
O514 C512 1.263 . S
C515 O516 1.235 . S
C515 O542 1.289 1_556 S
O516 C515 1.235 . S
C517 C519 1.400 . S
C517 N520 1.351 . S
C517 C522 1.501 . S
C518 C519 1.387 . S
C518 N521 1.341 . S
C519 C517 1.400 . S
C519 C518 1.387 . S
N520 Co511 2.022 . S
N520 C517 1.351 . S
N520 N521 1.365 . S
N521 C518 1.341 . S
N521 N520 1.365 . S
N521 H541 0.862 . S
C522 C517 1.501 . S
C522 H523 0.961 . S
C522 H524 0.961 . S
C522 H525 0.960 . S
H523 C522 0.961 . S
H524 C522 0.961 . S
H525 C522 0.960 . S
C526 N527 1.342 . S
C526 C530 1.401 . S
C526 C531 1.499 . S
N527 Co510 1.989 1_556 S
N527 C526 1.342 . S
N527 N528 1.388 . S
N528 Co511 1.993 1_556 S
N528 N527 1.388 . S
N528 C529 1.346 . S
C529 N528 1.346 . S
C529 C530 1.396 . S
C529 C539 1.510 . S
C530 C526 1.401 . S
C530 C529 1.396 . S
C531 C526 1.499 . S
C531 H532 0.959 . S
C531 H533 0.960 . S
C531 H534 0.961 . S
H532 C531 0.959 . S
H533 C531 0.960 . S
H534 C531 0.961 . S
O535 Co510 1.967 . S
O535 C543 1.258 . S
O536 Co511 1.941 . S
O536 C543 1.266 . S
H537 C539 0.959 . S
H538 C539 0.961 . S
C539 C529 1.510 . S
C539 H537 0.959 . S
C539 H538 0.961 . S
C539 H540 0.960 . S
H540 C539 0.960 . S
H541 N521 0.862 . S
O542 Co510 1.920 1_455 S
O542 C515 1.289 1_554 S
C543 O535 1.258 . S
C543 O536 1.266 . S
Co544 O547 1.970 . S
Co544 N561 1.989 . S
Co544 O569 1.967 . S
Co544 O576 1.920 . S
Co545 O548 1.966 . S
Co545 N554 2.022 . S
Co545 N562 1.993 . S
Co545 O570 1.941 . S
C546 O547 1.258 . S
C546 O548 1.263 . S
O547 Co544 1.970 . S
O547 C546 1.258 . S
O548 Co545 1.966 . S
O548 C546 1.263 . S
C549 O550 1.235 . S
C549 O576 1.289 . S
O550 C549 1.235 . S
C551 C553 1.400 . S
C551 N554 1.351 . S
C551 C556 1.501 . S
C552 C553 1.387 . S
C552 N555 1.341 . S
C553 C551 1.400 . S
C553 C552 1.387 . S
N554 Co545 2.022 . S
N554 C551 1.351 . S
N554 N555 1.365 . S
N555 C552 1.341 . S
N555 N554 1.365 . S
N555 H575 0.862 . S
C556 C551 1.501 . S
C556 H557 0.961 . S
C556 H558 0.961 . S
C556 H559 0.960 . S
H557 C556 0.961 . S
H558 C556 0.961 . S
H559 C556 0.960 . S
C560 N561 1.342 . S
C560 C564 1.401 . S
C560 C565 1.499 . S
N561 Co544 1.989 . S
N561 C560 1.342 . S
N561 N562 1.388 . S
N562 Co545 1.993 . S
N562 N561 1.388 . S
N562 C563 1.346 . S
C563 N562 1.346 . S
C563 C564 1.396 . S
C563 C573 1.510 . S
C564 C560 1.401 . S
C564 C563 1.396 . S
C565 C560 1.499 . S
C565 H566 0.959 . S
C565 H567 0.960 . S
C565 H568 0.961 . S
H566 C565 0.959 . S
H567 C565 0.960 . S
H568 C565 0.961 . S
O569 Co544 1.967 . S
O569 C577 1.258 . S
O570 Co545 1.941 . S
O570 C577 1.266 . S
H571 C573 0.959 . S
H572 C573 0.961 . S
C573 C563 1.510 . S
C573 H571 0.959 . S
C573 H572 0.961 . S
C573 H574 0.960 . S
H574 C573 0.960 . S
H575 N555 0.862 . S
O576 Co544 1.920 . S
O576 C549 1.289 . S
C577 O569 1.258 . S
C577 O570 1.266 . S
Co578 O581 1.970 . S
Co578 N595 1.989 . S
Co578 O603 1.967 . S
Co578 O610 1.920 . S
Co579 O582 1.966 . S
Co579 N588 2.022 1_554 S
Co579 N596 1.993 . S
Co579 O604 1.941 . S
C580 O581 1.258 . S
C580 O582 1.263 . S
O581 Co578 1.970 . S
O581 C580 1.258 . S
O582 Co579 1.966 . S
O582 C580 1.263 . S
C583 O584 1.235 . S
C583 O610 1.289 . S
O584 C583 1.235 . S
C585 C587 1.400 . S
C585 N588 1.351 . S
C585 C590 1.501 . S
C586 C587 1.387 . S
C586 N589 1.341 . S
C587 C585 1.400 . S
C587 C586 1.387 . S
N588 Co579 2.022 1_556 S
N588 C585 1.351 . S
N588 N589 1.365 . S
N589 C586 1.341 . S
N589 N588 1.365 . S
N589 H609 0.862 . S
C590 C585 1.501 . S
C590 H591 0.961 . S
C590 H592 0.961 . S
C590 H593 0.960 . S
H591 C590 0.961 . S
H592 C590 0.961 . S
H593 C590 0.960 . S
C594 N595 1.342 . S
C594 C598 1.401 . S
C594 C599 1.499 . S
N595 Co578 1.989 . S
N595 C594 1.342 . S
N595 N596 1.388 . S
N596 Co579 1.993 . S
N596 N595 1.388 . S
N596 C597 1.346 . S
C597 N596 1.346 . S
C597 C598 1.396 . S
C597 C607 1.510 1_554 S
C598 C594 1.401 . S
C598 C597 1.396 . S
C599 C594 1.499 . S
C599 H600 0.959 . S
C599 H601 0.960 . S
C599 H602 0.961 . S
H600 C599 0.959 . S
H601 C599 0.960 . S
H602 C599 0.961 . S
O603 Co578 1.967 . S
O603 C611 1.258 . S
O604 Co579 1.941 . S
O604 C611 1.266 . S
H605 C607 0.959 . S
H606 C607 0.961 . S
C607 C597 1.510 1_556 S
C607 H605 0.959 . S
C607 H606 0.961 . S
C607 H608 0.960 . S
H608 C607 0.960 . S
H609 N589 0.862 . S
O610 Co578 1.920 . S
O610 C583 1.289 . S
C611 O603 1.258 . S
C611 O604 1.266 . S
Co612 O615 1.970 1_655 S
Co612 N629 1.989 . S
Co612 O637 1.967 . S
Co612 O644 1.920 1_655 S
Co613 O616 1.966 . S
Co613 N622 2.022 . S
Co613 N630 1.993 . S
Co613 O638 1.941 . S
C614 O615 1.257 . S
C614 O616 1.266 1_455 S
O615 Co612 1.970 1_455 S
O615 C614 1.257 . S
O616 Co613 1.966 . S
O616 C614 1.266 1_655 S
C617 O618 1.235 . S
C617 O644 1.289 . S
O618 C617 1.235 . S
C619 C621 1.400 . S
C619 N622 1.351 . S
C619 C624 1.501 . S
C620 C621 1.387 . S
C620 N623 1.341 . S
C621 C619 1.400 . S
C621 C620 1.387 . S
N622 Co613 2.022 . S
N622 C619 1.351 . S
N622 N623 1.365 . S
N623 C620 1.341 . S
N623 N622 1.365 . S
N623 H643 0.862 . S
C624 C619 1.501 . S
C624 H625 0.961 . S
C624 H626 0.961 . S
C624 H627 0.960 . S
H625 C624 0.961 . S
H626 C624 0.961 . S
H627 C624 0.960 . S
C628 N629 1.342 . S
C628 C632 1.401 . S
C628 C633 1.499 1_655 S
N629 Co612 1.989 . S
N629 C628 1.342 . S
N629 N630 1.388 . S
N630 Co613 1.993 . S
N630 N629 1.388 . S
N630 C631 1.346 . S
C631 N630 1.346 . S
C631 C632 1.396 . S
C631 C641 1.510 . S
C632 C628 1.401 . S
C632 C631 1.396 . S
C633 C628 1.499 1_455 S
C633 H634 0.959 . S
C633 H635 0.960 . S
C633 H636 0.961 1_455 S
H634 C633 0.959 . S
H635 C633 0.960 . S
H636 C633 0.961 1_655 S
O637 Co612 1.967 . S
O637 C645 1.258 . S
O638 Co613 1.941 . S
O638 C645 1.266 . S
H639 C641 0.959 . S
H640 C641 0.961 . S
C641 C631 1.510 . S
C641 H639 0.959 . S
C641 H640 0.961 . S
C641 H642 0.960 . S
H642 C641 0.960 . S
H643 N623 0.862 . S
O644 Co612 1.920 1_455 S
O644 C617 1.289 . S
C645 O637 1.258 . S
C645 O638 1.266 . S
Co646 O649 1.970 . S
Co646 N663 1.989 . S
Co646 O671 1.967 . S
Co646 O678 1.920 . S
Co647 O650 1.966 . S
Co647 N656 2.022 . S
Co647 N664 1.993 . S
Co647 O672 1.941 . S
C648 O649 1.258 . S
C648 O650 1.263 . S
O649 Co646 1.970 . S
O649 C648 1.258 . S
O650 Co647 1.966 . S
O650 C648 1.263 . S
C651 O652 1.235 . S
C651 O678 1.289 . S
O652 C651 1.235 . S
C653 C655 1.400 . S
C653 N656 1.351 . S
C653 C658 1.501 . S
C654 C655 1.387 . S
C654 N657 1.341 . S
C655 C653 1.400 . S
C655 C654 1.387 . S
N656 Co647 2.022 . S
N656 C653 1.351 . S
N656 N657 1.365 . S
N657 C654 1.341 . S
N657 N656 1.365 . S
N657 H677 0.862 . S
C658 C653 1.501 . S
C658 H659 0.961 . S
C658 H660 0.961 . S
C658 H661 0.960 . S
H659 C658 0.961 . S
H660 C658 0.961 . S
H661 C658 0.960 . S
C662 N663 1.342 . S
C662 C666 1.401 . S
C662 C667 1.499 . S
N663 Co646 1.989 . S
N663 C662 1.342 . S
N663 N664 1.388 . S
N664 Co647 1.993 . S
N664 N663 1.388 . S
N664 C665 1.346 . S
C665 N664 1.346 . S
C665 C666 1.396 . S
C665 C675 1.510 . S
C666 C662 1.401 . S
C666 C665 1.396 . S
C667 C662 1.499 . S
C667 H668 0.959 . S
C667 H669 0.960 . S
C667 H670 0.961 . S
H668 C667 0.959 . S
H669 C667 0.960 . S
H670 C667 0.961 . S
O671 Co646 1.967 . S
O671 C679 1.258 . S
O672 Co647 1.941 . S
O672 C679 1.266 . S
H673 C675 0.959 . S
H674 C675 0.961 . S
C675 C665 1.510 . S
C675 H673 0.959 . S
C675 H674 0.961 . S
C675 H676 0.960 . S
H676 C675 0.960 . S
H677 N657 0.862 . S
O678 Co646 1.920 . S
O678 C651 1.289 . S
C679 O671 1.258 . S
C679 O672 1.266 . S
Co680 O683 1.970 . S
Co680 N697 1.989 . S
Co680 O705 1.967 . S
Co680 O712 1.920 . S
Co681 O684 1.966 . S
Co681 N690 2.022 . S
Co681 N698 1.993 . S
Co681 O706 1.941 . S
C682 O683 1.258 . S
C682 O684 1.263 . S
O683 Co680 1.970 . S
O683 C682 1.258 . S
O684 Co681 1.966 . S
O684 C682 1.263 . S
C685 O686 1.235 . S
C685 O712 1.289 . S
O686 C685 1.235 . S
C687 C689 1.400 . S
C687 N690 1.351 . S
C687 C692 1.501 . S
C688 C689 1.387 . S
C688 N691 1.341 . S
C689 C687 1.400 . S
C689 C688 1.387 . S
N690 Co681 2.022 . S
N690 C687 1.351 . S
N690 N691 1.365 . S
N691 C688 1.341 . S
N691 N690 1.365 . S
N691 H711 0.862 . S
C692 C687 1.501 . S
C692 H693 0.961 . S
C692 H694 0.961 . S
C692 H695 0.960 . S
H693 C692 0.961 . S
H694 C692 0.961 . S
H695 C692 0.960 . S
C696 N697 1.342 . S
C696 C700 1.401 . S
C696 C701 1.499 . S
N697 Co680 1.989 . S
N697 C696 1.342 . S
N697 N698 1.388 . S
N698 Co681 1.993 . S
N698 N697 1.388 . S
N698 C699 1.346 . S
C699 N698 1.346 . S
C699 C700 1.396 . S
C699 C709 1.510 . S
C700 C696 1.401 . S
C700 C699 1.396 . S
C701 C696 1.499 . S
C701 H702 0.959 . S
C701 H703 0.960 . S
C701 H704 0.961 . S
H702 C701 0.959 . S
H703 C701 0.960 . S
H704 C701 0.961 . S
O705 Co680 1.967 . S
O705 C713 1.258 . S
O706 Co681 1.941 . S
O706 C713 1.266 . S
H707 C709 0.959 . S
H708 C709 0.961 . S
C709 C699 1.510 . S
C709 H707 0.959 . S
C709 H708 0.961 . S
C709 H710 0.960 . S
H710 C709 0.960 . S
H711 N691 0.862 . S
O712 Co680 1.920 . S
O712 C685 1.289 . S
C713 O705 1.258 . S
C713 O706 1.266 . S
Co714 O717 1.970 . S
Co714 N731 1.989 . S
Co714 O739 1.967 . S
Co714 O746 1.920 . S
Co715 O718 1.966 . S
Co715 N724 2.022 1_556 S
Co715 N732 1.993 . S
Co715 O740 1.941 . S
C716 O717 1.258 . S
C716 O718 1.263 . S
O717 Co714 1.970 . S
O717 C716 1.258 . S
O718 Co715 1.966 . S
O718 C716 1.263 . S
C719 O720 1.235 . S
C719 O746 1.289 . S
O720 C719 1.235 . S
C721 C723 1.400 . S
C721 N724 1.351 . S
C721 C726 1.501 . S
C722 C723 1.387 . S
C722 N725 1.341 . S
C723 C721 1.400 . S
C723 C722 1.387 . S
N724 Co715 2.022 1_554 S
N724 C721 1.351 . S
N724 N725 1.365 . S
N725 C722 1.341 . S
N725 N724 1.365 . S
N725 H745 0.862 . S
C726 C721 1.501 . S
C726 H727 0.961 . S
C726 H728 0.961 . S
C726 H729 0.960 . S
H727 C726 0.961 . S
H728 C726 0.961 . S
H729 C726 0.960 . S
C730 N731 1.342 . S
C730 C734 1.401 . S
C730 C735 1.499 . S
N731 Co714 1.989 . S
N731 C730 1.342 . S
N731 N732 1.388 . S
N732 Co715 1.993 . S
N732 N731 1.388 . S
N732 C733 1.346 . S
C733 N732 1.346 . S
C733 C734 1.396 . S
C733 C743 1.510 1_556 S
C734 C730 1.401 . S
C734 C733 1.396 . S
C735 C730 1.499 . S
C735 H736 0.959 . S
C735 H737 0.960 . S
C735 H738 0.961 . S
H736 C735 0.959 . S
H737 C735 0.960 . S
H738 C735 0.961 . S
O739 Co714 1.967 . S
O739 C747 1.258 . S
O740 Co715 1.941 . S
O740 C747 1.266 . S
H741 C743 0.959 . S
H742 C743 0.961 . S
C743 C733 1.510 1_554 S
C743 H741 0.959 . S
C743 H742 0.961 . S
C743 H744 0.960 . S
H744 C743 0.960 . S
H745 N725 0.862 . S
O746 Co714 1.920 . S
O746 C719 1.289 . S
C747 O739 1.258 . S
C747 O740 1.266 . S
Co748 O751 1.970 1_655 S
Co748 N765 1.989 . S
Co748 O773 1.967 . S
Co748 O780 1.920 1_655 S
Co749 O752 1.966 . S
Co749 N758 2.022 . S
Co749 N766 1.993 . S
Co749 O774 1.941 . S
C750 O751 1.257 . S
C750 O752 1.265 1_455 S
O751 Co748 1.970 1_455 S
O751 C750 1.257 . S
O752 Co749 1.966 . S
O752 C750 1.265 1_655 S
C753 O754 1.235 . S
C753 O780 1.289 . S
O754 C753 1.235 . S
C755 C757 1.400 . S
C755 N758 1.351 . S
C755 C760 1.501 . S
C756 C757 1.387 . S
C756 N759 1.341 . S
C757 C755 1.400 . S
C757 C756 1.387 . S
N758 Co749 2.022 . S
N758 C755 1.351 . S
N758 N759 1.365 . S
N759 C756 1.341 . S
N759 N758 1.365 . S
N759 H779 0.862 . S
C760 C755 1.501 . S
C760 H761 0.961 . S
C760 H762 0.961 . S
C760 H763 0.960 . S
H761 C760 0.961 . S
H762 C760 0.961 . S
H763 C760 0.960 . S
C764 N765 1.342 . S
C764 C768 1.401 . S
C764 C769 1.499 1_655 S
N765 Co748 1.989 . S
N765 C764 1.342 . S
N765 N766 1.388 . S
N766 Co749 1.993 . S
N766 N765 1.388 . S
N766 C767 1.346 . S
C767 N766 1.346 . S
C767 C768 1.396 . S
C767 C777 1.510 . S
C768 C764 1.401 . S
C768 C767 1.396 . S
C769 C764 1.499 1_455 S
C769 H770 0.959 . S
C769 H771 0.960 . S
C769 H772 0.961 1_455 S
H770 C769 0.959 . S
H771 C769 0.960 . S
H772 C769 0.961 1_655 S
O773 Co748 1.967 . S
O773 C781 1.258 . S
O774 Co749 1.941 . S
O774 C781 1.266 . S
H775 C777 0.959 . S
H776 C777 0.961 . S
C777 C767 1.510 . S
C777 H775 0.959 . S
C777 H776 0.961 . S
C777 H778 0.960 . S
H778 C777 0.960 . S
H779 N759 0.862 . S
O780 Co748 1.920 1_455 S
O780 C753 1.289 . S
C781 O773 1.258 . S
C781 O774 1.266 . S
Co782 O785 1.970 . S
Co782 N799 1.989 . S
Co782 O807 1.967 . S
Co782 O814 1.920 . S
Co783 O786 1.966 . S
Co783 N792 2.022 . S
Co783 N800 1.993 . S
Co783 O808 1.941 . S
C784 O785 1.258 . S
C784 O786 1.263 . S
O785 Co782 1.970 . S
O785 C784 1.258 . S
O786 Co783 1.966 . S
O786 C784 1.263 . S
C787 O788 1.235 . S
C787 O814 1.289 . S
O788 C787 1.235 . S
C789 C791 1.400 . S
C789 N792 1.351 . S
C789 C794 1.501 . S
C790 C791 1.387 . S
C790 N793 1.341 . S
C791 C789 1.400 . S
C791 C790 1.387 . S
N792 Co783 2.022 . S
N792 C789 1.351 . S
N792 N793 1.365 . S
N793 C790 1.341 . S
N793 N792 1.365 . S
N793 H813 0.862 . S
C794 C789 1.501 . S
C794 H795 0.961 . S
C794 H796 0.961 . S
C794 H797 0.960 . S
H795 C794 0.961 . S
H796 C794 0.961 . S
H797 C794 0.960 . S
C798 N799 1.342 . S
C798 C802 1.401 . S
C798 C803 1.499 . S
N799 Co782 1.989 . S
N799 C798 1.342 . S
N799 N800 1.388 . S
N800 Co783 1.993 . S
N800 N799 1.388 . S
N800 C801 1.346 . S
C801 N800 1.346 . S
C801 C802 1.396 . S
C801 C811 1.510 . S
C802 C798 1.401 . S
C802 C801 1.396 . S
C803 C798 1.499 . S
C803 H804 0.959 . S
C803 H805 0.960 . S
C803 H806 0.961 . S
H804 C803 0.959 . S
H805 C803 0.960 . S
H806 C803 0.961 . S
O807 Co782 1.967 . S
O807 C815 1.258 . S
O808 Co783 1.941 . S
O808 C815 1.266 . S
H809 C811 0.959 . S
H810 C811 0.961 . S
C811 C801 1.510 . S
C811 H809 0.959 . S
C811 H810 0.961 . S
C811 H812 0.960 . S
H812 C811 0.960 . S
H813 N793 0.862 . S
O814 Co782 1.920 . S
O814 C787 1.289 . S
C815 O807 1.258 . S
C815 O808 1.266 . S
Co816 O819 1.970 . S
Co816 N833 1.989 . S
Co816 O841 1.967 . S
Co816 O848 1.920 . S
Co817 O820 1.966 . S
Co817 N826 2.022 . S
Co817 N834 1.993 . S
Co817 O842 1.941 . S
C818 O819 1.258 . S
C818 O820 1.263 . S
O819 Co816 1.970 . S
O819 C818 1.258 . S
O820 Co817 1.966 . S
O820 C818 1.263 . S
C821 O822 1.235 . S
C821 O848 1.289 . S
O822 C821 1.235 . S
C823 C825 1.400 . S
C823 N826 1.351 . S
C823 C828 1.501 . S
C824 C825 1.387 . S
C824 N827 1.341 . S
C825 C823 1.400 . S
C825 C824 1.387 . S
N826 Co817 2.022 . S
N826 C823 1.351 . S
N826 N827 1.365 . S
N827 C824 1.341 . S
N827 N826 1.365 . S
N827 H847 0.862 . S
C828 C823 1.501 . S
C828 H829 0.961 . S
C828 H830 0.961 . S
C828 H831 0.960 . S
H829 C828 0.961 . S
H830 C828 0.961 . S
H831 C828 0.960 . S
C832 N833 1.342 . S
C832 C836 1.401 . S
C832 C837 1.499 . S
N833 Co816 1.989 . S
N833 C832 1.342 . S
N833 N834 1.388 . S
N834 Co817 1.993 . S
N834 N833 1.388 . S
N834 C835 1.346 . S
C835 N834 1.346 . S
C835 C836 1.396 . S
C835 C845 1.510 . S
C836 C832 1.401 . S
C836 C835 1.396 . S
C837 C832 1.499 . S
C837 H838 0.959 . S
C837 H839 0.960 . S
C837 H840 0.961 . S
H838 C837 0.959 . S
H839 C837 0.960 . S
H840 C837 0.961 . S
O841 Co816 1.967 . S
O841 C849 1.258 . S
O842 Co817 1.941 . S
O842 C849 1.266 . S
H843 C845 0.959 . S
H844 C845 0.961 . S
C845 C835 1.510 . S
C845 H843 0.959 . S
C845 H844 0.961 . S
C845 H846 0.960 . S
H846 C845 0.960 . S
H847 N827 0.862 . S
O848 Co816 1.920 . S
O848 C821 1.289 . S
C849 O841 1.258 . S
C849 O842 1.266 . S
Co850 O853 1.970 . S
Co850 N867 1.989 1_556 S
Co850 O875 1.967 . S
Co850 O882 1.920 . S
Co851 O854 1.966 . S
Co851 N860 2.022 . S
Co851 N868 1.993 1_556 S
Co851 O876 1.941 . S
C852 O853 1.258 . S
C852 O854 1.263 . S
O853 Co850 1.970 . S
O853 C852 1.258 . S
O854 Co851 1.966 . S
O854 C852 1.263 . S
C855 O856 1.235 . S
C855 O882 1.289 1_554 S
O856 C855 1.235 . S
C857 C859 1.400 . S
C857 N860 1.351 . S
C857 C862 1.501 . S
C858 C859 1.387 . S
C858 N861 1.341 . S
C859 C857 1.400 . S
C859 C858 1.387 . S
N860 Co851 2.022 . S
N860 C857 1.351 . S
N860 N861 1.365 . S
N861 C858 1.341 . S
N861 N860 1.365 . S
N861 H881 0.862 . S
C862 C857 1.501 . S
C862 H863 0.961 . S
C862 H864 0.961 . S
C862 H865 0.960 . S
H863 C862 0.961 . S
H864 C862 0.961 . S
H865 C862 0.960 . S
C866 N867 1.342 . S
C866 C870 1.401 . S
C866 C871 1.499 . S
N867 Co850 1.989 1_554 S
N867 C866 1.342 . S
N867 N868 1.388 . S
N868 Co851 1.993 1_554 S
N868 N867 1.388 . S
N868 C869 1.346 . S
C869 N868 1.346 . S
C869 C870 1.396 . S
C869 C879 1.510 . S
C870 C866 1.401 . S
C870 C869 1.396 . S
C871 C866 1.499 . S
C871 H872 0.959 . S
C871 H873 0.960 . S
C871 H874 0.961 . S
H872 C871 0.959 . S
H873 C871 0.960 . S
H874 C871 0.961 . S
O875 Co850 1.967 . S
O875 C883 1.258 . S
O876 Co851 1.941 . S
O876 C883 1.266 . S
H877 C879 0.959 . S
H878 C879 0.961 . S
C879 C869 1.510 . S
C879 H877 0.959 . S
C879 H878 0.961 . S
C879 H880 0.960 . S
H880 C879 0.960 . S
H881 N861 0.862 . S
O882 Co850 1.920 . S
O882 C855 1.289 1_556 S
C883 O875 1.258 . S
C883 O876 1.266 . S
Co884 O887 1.970 1_455 S
Co884 N901 1.989 . S
Co884 O909 1.967 . S
Co884 O916 1.920 . S
Co885 O888 1.966 . S
Co885 N894 2.022 . S
Co885 N902 1.993 . S
Co885 O910 1.941 . S
C886 O887 1.257 1_455 S
C886 O888 1.278 . S
O887 Co884 1.970 1_655 S
O887 C886 1.257 1_655 S
O888 Co885 1.966 . S
O888 C886 1.278 . S
C889 O890 1.235 1_455 S
C889 O916 1.289 . S
O890 C889 1.235 1_655 S
C891 C893 1.400 . S
C891 N894 1.351 . S
C891 C896 1.501 . S
C892 C893 1.387 . S
C892 N895 1.341 . S
C893 C891 1.400 . S
C893 C892 1.387 . S
N894 Co885 2.022 . S
N894 C891 1.351 . S
N894 N895 1.365 . S
N895 C892 1.341 . S
N895 N894 1.365 . S
N895 H915 0.862 . S
C896 C891 1.501 . S
C896 H897 0.961 . S
C896 H898 0.961 . S
C896 H899 0.960 . S
H897 C896 0.961 . S
H898 C896 0.961 . S
H899 C896 0.960 . S
C900 N901 1.342 . S
C900 C904 1.401 . S
C900 C905 1.499 . S
N901 Co884 1.989 . S
N901 C900 1.342 . S
N901 N902 1.388 . S
N902 Co885 1.993 . S
N902 N901 1.388 . S
N902 C903 1.346 . S
C903 N902 1.346 . S
C903 C904 1.396 . S
C903 C913 1.510 . S
C904 C900 1.401 . S
C904 C903 1.396 . S
C905 C900 1.499 . S
C905 H906 0.959 . S
C905 H907 0.960 . S
C905 H908 0.961 . S
H906 C905 0.959 . S
H907 C905 0.960 . S
H908 C905 0.961 . S
O909 Co884 1.967 . S
O909 C917 1.258 . S
O910 Co885 1.941 . S
O910 C917 1.266 . S
H911 C913 0.959 . S
H912 C913 0.961 . S
C913 C903 1.510 . S
C913 H911 0.959 . S
C913 H912 0.961 . S
C913 H914 0.960 . S
H914 C913 0.960 . S
H915 N895 0.862 . S
O916 Co884 1.920 . S
O916 C889 1.289 . S
C917 O909 1.258 . S
C917 O910 1.266 . S
Co918 O921 1.970 . S
Co918 N935 1.989 . S
Co918 O943 1.967 . S
Co918 O950 1.920 1_455 S
Co919 O922 1.966 . S
Co919 N928 2.022 . S
Co919 N936 1.993 . S
Co919 O944 1.941 . S
C920 O921 1.258 . S
C920 O922 1.263 . S
O921 Co918 1.970 . S
O921 C920 1.258 . S
O922 Co919 1.966 . S
O922 C920 1.263 . S
C923 O924 1.235 . S
C923 O950 1.289 . S
O924 C923 1.235 . S
C925 C927 1.400 . S
C925 N928 1.351 . S
C925 C930 1.501 . S
C926 C927 1.387 . S
C926 N929 1.341 . S
C927 C925 1.400 . S
C927 C926 1.387 . S
N928 Co919 2.022 . S
N928 C925 1.351 . S
N928 N929 1.365 . S
N929 C926 1.341 . S
N929 N928 1.365 . S
N929 H949 0.862 . S
C930 C925 1.501 . S
C930 H931 0.961 . S
C930 H932 0.961 . S
C930 H933 0.960 . S
H931 C930 0.961 . S
H932 C930 0.961 . S
H933 C930 0.960 . S
C934 N935 1.342 . S
C934 C938 1.401 . S
C934 C939 1.499 . S
N935 Co918 1.989 . S
N935 C934 1.342 . S
N935 N936 1.388 . S
N936 Co919 1.993 . S
N936 N935 1.388 . S
N936 C937 1.346 . S
C937 N936 1.346 . S
C937 C938 1.396 . S
C937 C947 1.510 . S
C938 C934 1.401 . S
C938 C937 1.396 . S
C939 C934 1.499 . S
C939 H940 0.959 . S
C939 H941 0.960 . S
C939 H942 0.961 . S
H940 C939 0.959 . S
H941 C939 0.960 . S
H942 C939 0.961 . S
O943 Co918 1.967 . S
O943 C951 1.258 . S
O944 Co919 1.941 . S
O944 C951 1.266 . S
H945 C947 0.959 . S
H946 C947 0.961 . S
C947 C937 1.510 . S
C947 H945 0.959 . S
C947 H946 0.961 . S
C947 H948 0.960 . S
H948 C947 0.960 . S
H949 N929 0.862 . S
O950 Co918 1.920 1_655 S
O950 C923 1.289 . S
C951 O943 1.258 . S
C951 O944 1.266 . S
Co952 O955 1.970 . S
Co952 N969 1.989 . S
Co952 O977 1.967 . S
Co952 O984 1.920 . S
Co953 O956 1.966 . S
Co953 N962 2.022 . S
Co953 N970 1.993 . S
Co953 O978 1.941 . S
C954 O955 1.258 . S
C954 O956 1.263 . S
O955 Co952 1.970 . S
O955 C954 1.258 . S
O956 Co953 1.966 . S
O956 C954 1.263 . S
C957 O958 1.235 . S
C957 O984 1.289 . S
O958 C957 1.235 . S
C959 C961 1.400 . S
C959 N962 1.351 . S
C959 C964 1.501 . S
C960 C961 1.387 . S
C960 N963 1.341 . S
C961 C959 1.400 . S
C961 C960 1.387 . S
N962 Co953 2.022 . S
N962 C959 1.351 . S
N962 N963 1.365 . S
N963 C960 1.341 . S
N963 N962 1.365 . S
N963 H983 0.862 . S
C964 C959 1.501 . S
C964 H965 0.961 . S
C964 H966 0.961 . S
C964 H967 0.960 . S
H965 C964 0.961 . S
H966 C964 0.961 . S
H967 C964 0.960 . S
C968 N969 1.342 . S
C968 C972 1.401 . S
C968 C973 1.499 . S
N969 Co952 1.989 . S
N969 C968 1.342 . S
N969 N970 1.388 . S
N970 Co953 1.993 . S
N970 N969 1.388 . S
N970 C971 1.346 . S
C971 N970 1.346 . S
C971 C972 1.396 . S
C971 C981 1.510 . S
C972 C968 1.401 . S
C972 C971 1.396 . S
C973 C968 1.499 . S
C973 H974 0.959 . S
C973 H975 0.960 . S
C973 H976 0.961 . S
H974 C973 0.959 . S
H975 C973 0.960 . S
H976 C973 0.961 . S
O977 Co952 1.967 . S
O977 C985 1.258 . S
O978 Co953 1.941 . S
O978 C985 1.266 . S
H979 C981 0.959 . S
H980 C981 0.961 . S
C981 C971 1.510 . S
C981 H979 0.959 . S
C981 H980 0.961 . S
C981 H982 0.960 . S
H982 C981 0.960 . S
H983 N963 0.862 . S
O984 Co952 1.920 . S
O984 C957 1.289 . S
C985 O977 1.258 . S
C985 O978 1.266 . S
Co986 O989 1.970 . S
Co986 N1003 1.989 1_554 S
Co986 O1011 1.967 . S
Co986 O1018 1.920 1_455 S
Co987 O990 1.966 . S
Co987 N996 2.022 . S
Co987 N1004 1.993 1_554 S
Co987 O1012 1.941 . S
C988 O989 1.258 . S
C988 O990 1.263 . S
O989 Co986 1.970 . S
O989 C988 1.258 . S
O990 Co987 1.966 . S
O990 C988 1.263 . S
C991 O992 1.235 . S
C991 O1018 1.289 1_556 S
O992 C991 1.235 . S
C993 C995 1.400 . S
C993 N996 1.351 . S
C993 C998 1.501 . S
C994 C995 1.387 . S
C994 N997 1.341 . S
C995 C993 1.400 . S
C995 C994 1.387 . S
N996 Co987 2.022 . S
N996 C993 1.351 . S
N996 N997 1.365 . S
N997 C994 1.341 . S
N997 N996 1.365 . S
N997 H1017 0.862 . S
C998 C993 1.501 . S
C998 H999 0.961 . S
C998 H1000 0.961 . S
C998 H1001 0.960 . S
H999 C998 0.961 . S
H1000 C998 0.961 . S
H1001 C998 0.960 . S
C1002 N1003 1.342 . S
C1002 C1006 1.401 . S
C1002 C1007 1.499 . S
N1003 Co986 1.989 1_556 S
N1003 C1002 1.342 . S
N1003 N1004 1.388 . S
N1004 Co987 1.993 1_556 S
N1004 N1003 1.388 . S
N1004 C1005 1.346 . S
C1005 N1004 1.346 . S
C1005 C1006 1.396 . S
C1005 C1015 1.510 . S
C1006 C1002 1.401 . S
C1006 C1005 1.396 . S
C1007 C1002 1.499 . S
C1007 H1008 0.959 . S
C1007 H1009 0.960 . S
C1007 H1010 0.961 . S
H1008 C1007 0.959 . S
H1009 C1007 0.960 . S
H1010 C1007 0.961 . S
O1011 Co986 1.967 . S
O1011 C1019 1.258 . S
O1012 Co987 1.941 . S
O1012 C1019 1.266 . S
H1013 C1015 0.959 . S
H1014 C1015 0.961 . S
C1015 C1005 1.510 . S
C1015 H1013 0.959 . S
C1015 H1014 0.961 . S
C1015 H1016 0.960 . S
H1016 C1015 0.960 . S
H1017 N997 0.862 . S
O1018 Co986 1.920 1_655 S
O1018 C991 1.289 1_554 S
C1019 O1011 1.258 . S
C1019 O1012 1.266 . S
Co1020 O1023 1.970 1_455 S
Co1020 N1037 1.989 . S
Co1020 O1045 1.967 . S
Co1020 O1052 1.920 . S
Co1021 O1024 1.966 . S
Co1021 N1030 2.022 . S
Co1021 N1038 1.993 . S
Co1021 O1046 1.941 . S
C1022 O1023 1.257 1_455 S
C1022 O1024 1.278 . S
O1023 Co1020 1.970 1_655 S
O1023 C1022 1.257 1_655 S
O1024 Co1021 1.966 . S
O1024 C1022 1.278 . S
C1025 O1026 1.235 1_455 S
C1025 O1052 1.289 . S
O1026 C1025 1.235 1_655 S
C1027 C1029 1.400 . S
C1027 N1030 1.351 . S
C1027 C1032 1.501 . S
C1028 C1029 1.387 . S
C1028 N1031 1.341 . S
C1029 C1027 1.400 . S
C1029 C1028 1.387 . S
N1030 Co1021 2.022 . S
N1030 C1027 1.351 . S
N1030 N1031 1.365 . S
N1031 C1028 1.341 . S
N1031 N1030 1.365 . S
N1031 H1051 0.862 . S
C1032 C1027 1.501 . S
C1032 H1033 0.961 . S
C1032 H1034 0.961 . S
C1032 H1035 0.960 . S
H1033 C1032 0.961 . S
H1034 C1032 0.961 . S
H1035 C1032 0.960 . S
C1036 N1037 1.342 . S
C1036 C1040 1.401 . S
C1036 C1041 1.499 . S
N1037 Co1020 1.989 . S
N1037 C1036 1.342 . S
N1037 N1038 1.388 . S
N1038 Co1021 1.993 . S
N1038 N1037 1.388 . S
N1038 C1039 1.346 . S
C1039 N1038 1.346 . S
C1039 C1040 1.396 . S
C1039 C1049 1.510 . S
C1040 C1036 1.401 . S
C1040 C1039 1.396 . S
C1041 C1036 1.499 . S
C1041 H1042 0.959 . S
C1041 H1043 0.960 . S
C1041 H1044 0.961 . S
H1042 C1041 0.959 . S
H1043 C1041 0.960 . S
H1044 C1041 0.961 . S
O1045 Co1020 1.967 . S
O1045 C1053 1.258 . S
O1046 Co1021 1.941 . S
O1046 C1053 1.266 . S
H1047 C1049 0.959 . S
H1048 C1049 0.961 . S
C1049 C1039 1.510 . S
C1049 H1047 0.959 . S
C1049 H1048 0.961 . S
C1049 H1050 0.960 . S
H1050 C1049 0.960 . S
H1051 N1031 0.862 . S
O1052 Co1020 1.920 . S
O1052 C1025 1.289 . S
C1053 O1045 1.258 . S
C1053 O1046 1.266 . S
Co1054 O1057 1.970 . S
Co1054 N1071 1.989 . S
Co1054 O1079 1.967 . S
Co1054 O1086 1.920 . S
Co1055 O1058 1.966 . S
Co1055 N1064 2.022 . S
Co1055 N1072 1.993 . S
Co1055 O1080 1.941 . S
C1056 O1057 1.258 . S
C1056 O1058 1.263 . S
O1057 Co1054 1.970 . S
O1057 C1056 1.258 . S
O1058 Co1055 1.966 . S
O1058 C1056 1.263 . S
C1059 O1060 1.235 . S
C1059 O1086 1.289 . S
O1060 C1059 1.235 . S
C1061 C1063 1.400 . S
C1061 N1064 1.351 . S
C1061 C1066 1.501 . S
C1062 C1063 1.387 . S
C1062 N1065 1.341 . S
C1063 C1061 1.400 . S
C1063 C1062 1.387 . S
N1064 Co1055 2.022 . S
N1064 C1061 1.351 . S
N1064 N1065 1.365 . S
N1065 C1062 1.341 . S
N1065 N1064 1.365 . S
N1065 H1085 0.862 . S
C1066 C1061 1.501 . S
C1066 H1067 0.961 . S
C1066 H1068 0.961 . S
C1066 H1069 0.960 . S
H1067 C1066 0.961 . S
H1068 C1066 0.961 . S
H1069 C1066 0.960 . S
C1070 N1071 1.342 . S
C1070 C1074 1.401 . S
C1070 C1075 1.499 . S
N1071 Co1054 1.989 . S
N1071 C1070 1.342 . S
N1071 N1072 1.388 . S
N1072 Co1055 1.993 . S
N1072 N1071 1.388 . S
N1072 C1073 1.346 . S
C1073 N1072 1.346 . S
C1073 C1074 1.396 . S
C1073 C1083 1.510 . S
C1074 C1070 1.401 . S
C1074 C1073 1.396 . S
C1075 C1070 1.499 . S
C1075 H1076 0.959 . S
C1075 H1077 0.960 . S
C1075 H1078 0.961 . S
H1076 C1075 0.959 . S
H1077 C1075 0.960 . S
H1078 C1075 0.961 . S
O1079 Co1054 1.967 . S
O1079 C1087 1.258 . S
O1080 Co1055 1.941 . S
O1080 C1087 1.266 . S
H1081 C1083 0.959 . S
H1082 C1083 0.961 . S
C1083 C1073 1.510 . S
C1083 H1081 0.959 . S
C1083 H1082 0.961 . S
C1083 H1084 0.960 . S
H1084 C1083 0.960 . S
H1085 N1065 0.862 . S
O1086 Co1054 1.920 . S
O1086 C1059 1.289 . S
C1087 O1079 1.258 . S
C1087 O1080 1.266 . S
C247 C9 1.794 . S
C43 C145 1.794 . S
C77 C179 1.794 . S
C213 C111 1.794 . S
C530 C292 1.879 . S
C428 C326 1.879 . S
C360 C462 1.879 . S
C394 C496 1.879 . S
C791 C553 1.794 . S
C587 C689 1.794 . S
C621 C723 1.794 . S
C757 C655 1.794 . S
C1074 C836 1.879 . S
C870 C972 1.879 . S
C1006 C904 1.879 . S
C1040 C938 1.879 . S
C156 C20 3.474 1_565 S
C54 C190 3.473 . S
C224 C88 3.474 1_545 S
C122 C258 3.473 1_554 S
C417 C281 1.392 1_565 S
C315 C451 1.393 . S
C349 C485 1.392 1_565 S
C519 C383 1.393 1_554 S
C700 C564 3.474 . S
C734 C598 3.473 1_556 S
C768 C632 3.474 . S
C802 C666 3.473 . S
C961 C825 1.392 . S
C859 C995 1.393 1_556 S
C1029 C893 1.392 . S
C1063 C927 1.393 . S
C614 C2 2.555 1_455 S
C36 C648 2.554 1_455 S
C70 C546 2.555 . S
C104 C580 2.554 . S
C750 C138 2.555 1_455 S
C784 C172 2.554 . S
C206 C682 2.555 . S
C240 C716 2.554 1_455 S
C277 C889 1.766 1_655 S
C311 C923 1.767 1_455 S
C821 C345 1.766 . S
C379 C855 1.767 . S
C413 C1025 1.766 1_655 S
C1059 C447 1.767 . S
C481 C957 1.766 . S
C991 C515 1.767 1_655 S
C920 C33 2.967 . S
C67 C274 2.950 1_455 S
C101 C852 2.967 . S
C342 C135 2.966 . S
C988 C169 2.967 . S
C203 C478 2.966 . S
C1056 C237 2.967 . S
C410 C271 2.950 1_655 S
C305 C651 0.665 . S
C339 C5 0.664 . S
C583 C373 0.665 . S
C407 C73 0.665 . S
C441 C719 0.665 . S
C475 C209 0.664 . S
C509 C787 0.665 . S
C141 C543 0.665 . S
C577 C376 2.967 . S
C818 C611 2.966 . S
C308 C645 2.967 . S
C886 C679 2.950 1_455 S
C713 C444 2.967 . S
C747 C1022 2.950 1_655 S
C512 C781 2.967 . S
C815 C954 2.966 . S
C849 C107 0.665 . S
C549 C883 0.665 . S
C917 C39 0.665 . S
C951 C617 0.664 . S
C985 C175 0.665 . S
C753 C1019 0.665 . S
C1053 C243 0.665 . S
C1087 C685 0.664 . S
