# Generated by pormake.
# Topology lcy-e, (6)-cn, num edge types: 1
# Building blocks:
#     Node 0, Type 0, BuildingBlock: BETDAH_clean_sbu_0, # of connection points: 6
#     Node 1, Type 0, BuildingBlock: BETDAH_clean_sbu_0, # of connection points: 6
#     Node 2, Type 0, BuildingBlock: BETDAH_clean_sbu_0, # of connection points: 6
#     Node 3, Type 0, BuildingBlock: BETDAH_clean_sbu_0, # of connection points: 6
#     Node 4, Type 0, BuildingBlock: BETDAH_clean_sbu_0, # of connection points: 6
#     Node 5, Type 0, BuildingBlock: BETDAH_clean_sbu_0, # of connection points: 6
#     Node 6, Type 0, BuildingBlock: BETDAH_clean_sbu_0, # of connection points: 6
#     Node 7, Type 0, BuildingBlock: BETDAH_clean_sbu_0, # of connection points: 6
#     Node 8, Type 0, BuildingBlock: BETDAH_clean_sbu_0, # of connection points: 6
#     Node 9, Type 0, BuildingBlock: BETDAH_clean_sbu_0, # of connection points: 6
#     Node 10, Type 0, BuildingBlock: BETDAH_clean_sbu_0, # of connection points: 6
#     Node 11, Type 0, BuildingBlock: BETDAH_clean_sbu_0, # of connection points: 6
#     Edge 12, Type (0, 0), BuildingBlock: MIFKUJ_clean_linker_0, # of connection points: 2
#     Edge 13, Type (0, 0), BuildingBlock: MIFKUJ_clean_linker_0, # of connection points: 2
#     Edge 14, Type (0, 0), BuildingBlock: MIFKUJ_clean_linker_0, # of connection points: 2
#     Edge 15, Type (0, 0), BuildingBlock: MIFKUJ_clean_linker_0, # of connection points: 2
#     Edge 16, Type (0, 0), BuildingBlock: MIFKUJ_clean_linker_0, # of connection points: 2
#     Edge 17, Type (0, 0), BuildingBlock: MIFKUJ_clean_linker_0, # of connection points: 2
#     Edge 18, Type (0, 0), BuildingBlock: MIFKUJ_clean_linker_0, # of connection points: 2
#     Edge 19, Type (0, 0), BuildingBlock: MIFKUJ_clean_linker_0, # of connection points: 2
#     Edge 20, Type (0, 0), BuildingBlock: MIFKUJ_clean_linker_0, # of connection points: 2
#     Edge 21, Type (0, 0), BuildingBlock: MIFKUJ_clean_linker_0, # of connection points: 2
#     Edge 22, Type (0, 0), BuildingBlock: MIFKUJ_clean_linker_0, # of connection points: 2
#     Edge 23, Type (0, 0), BuildingBlock: MIFKUJ_clean_linker_0, # of connection points: 2
#     Edge 24, Type (0, 0), BuildingBlock: MIFKUJ_clean_linker_0, # of connection points: 2
#     Edge 25, Type (0, 0), BuildingBlock: MIFKUJ_clean_linker_0, # of connection points: 2
#     Edge 26, Type (0, 0), BuildingBlock: MIFKUJ_clean_linker_0, # of connection points: 2
#     Edge 27, Type (0, 0), BuildingBlock: MIFKUJ_clean_linker_0, # of connection points: 2
#     Edge 28, Type (0, 0), BuildingBlock: MIFKUJ_clean_linker_0, # of connection points: 2
#     Edge 29, Type (0, 0), BuildingBlock: MIFKUJ_clean_linker_0, # of connection points: 2
#     Edge 30, Type (0, 0), BuildingBlock: MIFKUJ_clean_linker_0, # of connection points: 2
#     Edge 31, Type (0, 0), BuildingBlock: MIFKUJ_clean_linker_0, # of connection points: 2
#     Edge 32, Type (0, 0), BuildingBlock: MIFKUJ_clean_linker_0, # of connection points: 2
#     Edge 33, Type (0, 0), BuildingBlock: MIFKUJ_clean_linker_0, # of connection points: 2
#     Edge 34, Type (0, 0), BuildingBlock: MIFKUJ_clean_linker_0, # of connection points: 2
#     Edge 35, Type (0, 0), BuildingBlock: MIFKUJ_clean_linker_0, # of connection points: 2
#     Edge 36, Type (0, 0), BuildingBlock: MIFKUJ_clean_linker_0, # of connection points: 2
#     Edge 37, Type (0, 0), BuildingBlock: MIFKUJ_clean_linker_0, # of connection points: 2
#     Edge 38, Type (0, 0), BuildingBlock: MIFKUJ_clean_linker_0, # of connection points: 2
#     Edge 39, Type (0, 0), BuildingBlock: MIFKUJ_clean_linker_0, # of connection points: 2
#     Edge 40, Type (0, 0), BuildingBlock: MIFKUJ_clean_linker_0, # of connection points: 2
#     Edge 41, Type (0, 0), BuildingBlock: MIFKUJ_clean_linker_0, # of connection points: 2
#     Edge 42, Type (0, 0), BuildingBlock: MIFKUJ_clean_linker_0, # of connection points: 2
#     Edge 43, Type (0, 0), BuildingBlock: MIFKUJ_clean_linker_0, # of connection points: 2
#     Edge 44, Type (0, 0), BuildingBlock: MIFKUJ_clean_linker_0, # of connection points: 2
#     Edge 45, Type (0, 0), BuildingBlock: MIFKUJ_clean_linker_0, # of connection points: 2
#     Edge 46, Type (0, 0), BuildingBlock: MIFKUJ_clean_linker_0, # of connection points: 2
#     Edge 47, Type (0, 0), BuildingBlock: MIFKUJ_clean_linker_0, # of connection points: 2
# Relax obj value: 0.196
# Max RMSD: 0.306
# Mean RMSD: 0.282
data_MOF--net-lcy-e--node1-BETDAH_clean_sbu_0--edge1-MIFKUJ_clean_linker_0
_symmetry_space_group_name_H-M    P1
_symmetry_Int_Tables_number       1
_symmetry_cell_setting            triclinic
loop_
_symmetry_equiv_pos_as_xyz
'x, y, z'
_cell_length_a     56.421452
_cell_length_b     51.679294
_cell_length_c     56.417111
_cell_angle_alpha  89.432479
_cell_angle_beta   90.798735
_cell_angle_gamma 88.559915
loop_
_atom_site_label
_atom_site_type_symbol
_atom_site_fract_x
_atom_site_fract_y
_atom_site_fract_z
_atom_type_partial_charge
Ho0 Ho 0.13801 0.244 0.46185 0.0
Ho1 Ho 0.15566 0.19893 0.4927 0.0
C2 C 0.18281 0.20711 0.4447 0.0
C3 C 0.13228 0.28323 0.43331 0.0
C4 C 0.1425 0.29186 0.41065 0.0
C5 C 0.1671 0.29391 0.40773 0.0
C6 C 0.17615 0.30239 0.38608 0.0
C7 C 0.16081 0.30869 0.36689 0.0
C8 C 0.13627 0.30621 0.36978 0.0
C9 C 0.12723 0.29799 0.39146 0.0
C10 C 0.10927 0.20328 0.46248 0.0
C11 C 0.11632 0.2392 0.51336 0.0
C12 C 0.1603 0.15702 0.51805 0.0
C13 C 0.14732 0.14089 0.53483 0.0
C14 C 0.12244 0.14111 0.53539 0.0
C15 C 0.11078 0.12425 0.5507 0.0
C16 C 0.12384 0.10697 0.56563 0.0
C17 C 0.14876 0.10722 0.56511 0.0
C18 C 0.16033 0.12401 0.54989 0.0
C19 C 0.18129 0.24269 0.49575 0.0
O20 O 0.17061 0.22926 0.44232 0.0
O21 O 0.17825 0.19031 0.46164 0.0
O22 O 0.11946 0.26257 0.43222 0.0
O23 O 0.14595 0.28348 0.45225 0.0
O24 O 0.10205 0.22725 0.46217 0.0
O25 O 0.13171 0.20168 0.4614 0.0
O26 O 0.12422 0.21482 0.51293 0.0
O27 O 0.12195 0.25597 0.49651 0.0
O28 O 0.16679 0.1797 0.52545 0.0
O29 O 0.15256 0.15753 0.49608 0.0
O30 O 0.19066 0.21953 0.49747 0.0
O31 O 0.15923 0.24103 0.49416 0.0
H32 H 0.17935 0.28904 0.42214 0.0
H33 H 0.19515 0.30394 0.38431 0.0
H34 H 0.12398 0.31122 0.35544 0.0
H35 H 0.10821 0.29655 0.39328 0.0
H36 H 0.11208 0.15405 0.52384 0.0
H37 H 0.09158 0.12468 0.5508 0.0
H38 H 0.1594 0.09391 0.57603 0.0
H39 H 0.17954 0.12346 0.54957 0.0
Ho40 Ho 1.00405 0.85334 0.72572 0.0
Ho41 Ho 0.04697 0.86436 0.75851 0.0
C42 C 0.04046 0.89938 0.71185 0.0
C43 C 0.96556 0.85741 0.70027 0.0
C44 C 0.95763 0.86756 0.67665 0.0
C45 C 0.95491 0.8943 0.672 0.0
C46 C 0.94579 0.90334 0.6501 0.0
C47 C 0.93909 0.88586 0.63239 0.0
C48 C 0.94232 0.85917 0.63695 0.0
C49 C 0.95134 0.85016 0.65881 0.0
C50 C 0.04129 0.82076 0.7203 0.0
C51 C 0.01012 0.82077 0.77376 0.0
C52 C 0.08611 0.86422 0.78333 0.0
C53 C 0.10438 0.84942 0.79752 0.0
C54 C 0.12278 0.83541 0.78643 0.0
C55 C 0.1426 0.8262 0.79953 0.0
C56 C 0.14453 0.83071 0.82403 0.0
C57 C 0.12559 0.84361 0.83527 0.0
C58 C 0.10583 0.85292 0.82217 0.0
C59 C 1.00671 0.89335 0.7653 0.0
O60 O 0.02049 0.88736 0.70726 0.0
O61 O 0.0545 0.89296 0.72998 0.0
O62 O 0.97952 0.83678 0.70057 0.0
O63 O 0.97155 0.87427 0.71632 0.0
O64 O 0.01934 0.81454 0.71725 0.0
O65 O 0.04276 0.84484 0.72402 0.0
O66 O 0.0328 0.82705 0.77353 0.0
O67 O 0.99448 0.83158 0.75868 0.0
O68 O 0.06518 0.86862 0.79242 0.0
O69 O 0.08517 0.86066 0.76041 0.0
O70 O 0.02783 0.90232 0.76837 0.0
O71 O 0.00859 0.86988 0.76053 0.0
H72 H 0.95941 0.9083 0.68539 0.0
H73 H 0.94336 0.92401 0.64733 0.0
H74 H 0.93777 0.84512 0.62363 0.0
H75 H 0.95311 0.82946 0.66186 0.0
H76 H 0.12248 0.83261 0.76743 0.0
H77 H 0.15697 0.81669 0.79022 0.0
H78 H 0.12631 0.84715 0.85415 0.0
H79 H 0.09215 0.8639 0.83124 0.0
Ho80 Ho 0.38537 0.77063 1.00294 0.0
Ho81 Ho 0.39213 0.73184 0.9583 0.0
C82 C 0.42563 0.78245 0.96415 0.0
C83 C 0.39265 0.79446 0.04241 0.0
C84 C 0.39542 0.82088 0.05154 0.0
C85 C 0.40661 0.83996 0.03809 0.0
C86 C 0.41297 0.86332 0.04849 0.0
C87 C 0.40811 0.8681 0.07247 0.0
C88 C 0.3958 0.84949 0.08548 0.0
C89 C 0.3896 0.82607 0.07512 0.0
C90 C 0.35505 0.7829 0.96617 0.0
C91 C 0.35424 0.71872 0.99715 0.0
C92 C 0.39387 0.71393 0.91561 0.0
C93 C 0.38178 0.69849 0.89723 0.0
C94 C 0.36188 0.70836 0.88443 0.0
C95 C 0.35334 0.69541 0.86442 0.0
C96 C 0.36464 0.67249 0.85668 0.0
C97 C 0.38383 0.6621 0.87017 0.0
C98 C 0.39232 0.67497 0.89011 0.0
C99 C 0.41231 0.7162 0.99994 0.0
O100 O 0.41293 0.79124 0.9821 0.0
O101 O 0.4216 0.76011 0.95356 0.0
O102 O 0.37151 0.78761 0.03527 0.0
O103 O 0.40956 0.78613 0.02857 0.0
O104 O 0.35601 0.79596 0.98571 0.0
O105 O 0.37088 0.76547 0.96777 0.0
O106 O 0.35826 0.71895 0.974 0.0
O107 O 0.36525 0.73437 0.01222 0.0
O108 O 0.40314 0.70167 0.9341 0.0
O109 O 0.38478 0.73672 0.92081 0.0
O110 O 0.40608 0.70025 0.98338 0.0
O111 O 0.40985 0.73921 0.99226 0.0
H112 H 0.41128 0.83641 0.01983 0.0
H113 H 0.42217 0.8774 0.03792 0.0
H114 H 0.39198 0.85245 0.10403 0.0
H115 H 0.38118 0.81153 0.08585 0.0
H116 H 0.35345 0.72657 0.88926 0.0
H117 H 0.33859 0.70401 0.8544 0.0
H118 H 0.39268 0.64423 0.86499 0.0
H119 H 0.40778 0.66699 0.89946 0.0
Ho120 Ho 0.53547 0.11974 0.22934 0.0
Ho121 Ho 0.49587 0.10528 0.26385 0.0
C122 C 0.49937 0.07327 0.216 0.0
C123 C 0.57187 0.11932 0.20183 0.0
C124 C 0.57931 0.10819 0.17894 0.0
C125 C 0.60273 0.09908 0.17673 0.0
C126 C 0.61091 0.08947 0.15517 0.0
C127 C 0.59587 0.08904 0.13503 0.0
C128 C 0.57211 0.09765 0.13745 0.0
C129 C 0.56389 0.10707 0.1592 0.0
C130 C 0.49656 0.15075 0.2266 0.0
C131 C 0.53089 0.15097 0.2774 0.0
C132 C 0.45874 0.10196 0.29035 0.0
C133 C 0.4399 0.11562 0.30361 0.0
C134 C 0.43481 0.14222 0.30073 0.0
C135 C 0.41519 0.15372 0.31209 0.0
C136 C 0.40023 0.13876 0.32636 0.0
C137 C 0.40571 0.11215 0.32912 0.0
C138 C 0.4253 0.10083 0.318 0.0
C139 C 0.5378 0.07782 0.26854 0.0
O140 O 0.51938 0.08511 0.2115 0.0
O141 O 0.48624 0.07904 0.23444 0.0
O142 O 0.55527 0.13747 0.2012 0.0
O143 O 0.56949 0.10299 0.21946 0.0
O144 O 0.51795 0.15842 0.22299 0.0
O145 O 0.49652 0.12643 0.22968 0.0
O146 O 0.50857 0.14353 0.27762 0.0
O147 O 0.54627 0.14123 0.26207 0.0
O148 O 0.48044 0.10161 0.29887 0.0
O149 O 0.45786 0.10409 0.26727 0.0
O150 O 0.51724 0.06792 0.27235 0.0
O151 O 0.53468 0.10142 0.26412 0.0
H152 H 0.61482 0.09977 0.19174 0.0
H153 H 0.62913 0.08249 0.1543 0.0
H154 H 0.56 0.09782 0.12239 0.0
H155 H 0.54564 0.11387 0.16046 0.0
H156 H 0.44574 0.15397 0.28949 0.0
H157 H 0.41176 0.17428 0.30966 0.0
H158 H 0.39448 0.09971 0.33936 0.0
H159 H 0.42868 0.08019 0.32015 0.0
Ho160 Ho 0.64375 0.23979 0.54848 0.0
Ho161 Ho 0.65349 0.28931 0.51953 0.0
C162 C 0.68237 0.28128 0.56797 0.0
C163 C 0.64643 0.1968 0.57248 0.0
C164 C 0.65347 0.18779 0.59657 0.0
C165 C 0.67305 0.19788 0.60871 0.0
C166 C 0.67955 0.18853 0.63137 0.0
C167 C 0.66664 0.16883 0.64229 0.0
C168 C 0.64688 0.15907 0.63011 0.0
C169 C 0.64041 0.16843 0.60753 0.0
C170 C 0.61193 0.27875 0.55343 0.0
C171 C 0.61809 0.24701 0.49829 0.0
C172 C 0.65236 0.33368 0.49768 0.0
C173 C 0.63897 0.35161 0.4817 0.0
C174 C 0.61407 0.3527 0.48067 0.0
C175 C 0.60216 0.37191 0.46693 0.0
C176 C 0.61501 0.39042 0.45428 0.0
C177 C 0.63992 0.38872 0.455 0.0
C178 C 0.65172 0.36953 0.46853 0.0
C179 C 0.68354 0.24816 0.51296 0.0
O180 O 0.67306 0.25807 0.56994 0.0
O181 O 0.67605 0.29779 0.55093 0.0
O182 O 0.62712 0.21129 0.57078 0.0
O183 O 0.66329 0.20483 0.5587 0.0
O184 O 0.6066 0.2545 0.55381 0.0
O185 O 0.63408 0.28119 0.55214 0.0
O186 O 0.62208 0.2721 0.50029 0.0
O187 O 0.62814 0.22973 0.51305 0.0
O188 O 0.66174 0.31264 0.48863 0.0
O189 O 0.64398 0.33001 0.51893 0.0
O190 O 0.69024 0.27201 0.51219 0.0
O191 O 0.66157 0.24798 0.51546 0.0
H192 H 0.68347 0.21276 0.60058 0.0
H193 H 0.69497 0.19634 0.64011 0.0
H194 H 0.63627 0.14422 0.63808 0.0
H195 H 0.6252 0.16043 0.59854 0.0
H196 H 0.60388 0.3391 0.49082 0.0
H197 H 0.58296 0.37273 0.46675 0.0
H198 H 0.65034 0.40232 0.44511 0.0
H199 H 0.67094 0.36904 0.46913 0.0
Ho200 Ho 0.9928 0.37526 0.7401 0.0
Ho201 Ho 0.02535 0.3549 0.78003 0.0
C202 C 0.97751 0.3247 0.77159 0.0
C203 C 0.96642 0.37968 0.70236 0.0
C204 C 0.94247 0.37171 0.6956 0.0
C205 C 0.93583 0.37141 0.67161 0.0
C206 C 0.91324 0.36351 0.66482 0.0
C207 C 0.89686 0.35576 0.68194 0.0
C208 C 0.90372 0.35591 0.70602 0.0
C209 C 0.92635 0.36383 0.71279 0.0
C210 C 0.98927 0.40171 0.78073 0.0
C211 C 0.04124 0.40349 0.74841 0.0
C212 C 0.05103 0.34851 0.81813 0.0
C213 C 0.06321 0.36327 0.83672 0.0
C214 C 0.05232 0.3848 0.84753 0.0
C215 C 0.06298 0.39626 0.86724 0.0
C216 C 0.0845 0.38613 0.87672 0.0
C217 C 0.09584 0.36538 0.86509 0.0
C218 C 0.08529 0.35408 0.84532 0.0
C219 C 0.03084 0.33141 0.73751 0.0
O220 O 0.97302 0.34035 0.75324 0.0
O221 O 0.99625 0.32725 0.78551 0.0
O222 O 0.96768 0.39762 0.7185 0.0
O223 O 0.982 0.36081 0.70588 0.0
O224 O 0.98602 0.41198 0.75985 0.0
O225 O 0.99168 0.37739 0.77926 0.0
O226 O 0.04076 0.3935 0.77012 0.0
O227 O 0.02605 0.39618 0.73184 0.0
O228 O 0.05996 0.34878 0.79685 0.0
O229 O 0.02785 0.34978 0.81791 0.0
O230 O 0.03359 0.31941 0.75772 0.0
O231 O 0.02711 0.35501 0.74123 0.0
H232 H 0.94815 0.37719 0.65811 0.0
H233 H 0.90872 0.36318 0.64611 0.0
H234 H 0.8915 0.35028 0.71967 0.0
H235 H 0.93124 0.36386 0.73143 0.0
H236 H 0.03522 0.39221 0.8413 0.0
H237 H 0.05387 0.41232 0.87561 0.0
H238 H 0.11272 0.35751 0.87154 0.0
H239 H 0.09403 0.33755 0.83722 0.0
Ho240 Ho 0.89052 0.74137 0.04415 0.0
Ho241 Ho 0.87981 0.69395 0.01397 0.0
C242 C 0.85089 0.70038 0.06153 0.0
C243 C 0.89122 0.78285 0.06968 0.0
C244 C 0.8824 0.79158 0.09278 0.0
C245 C 0.86283 0.78023 0.10349 0.0
C246 C 0.85523 0.78856 0.12576 0.0
C247 C 0.8672 0.80824 0.13775 0.0
C248 C 0.88671 0.81958 0.1268 0.0
C249 C 0.89421 0.81131 0.10456 0.0
C250 C 0.92302 0.70236 0.04802 0.0
C251 C 0.91556 0.73626 0.99468 0.0
C252 C 0.88051 0.65192 0.98917 0.0
C253 C 0.89507 0.6352 0.9735 0.0
C254 C 0.91437 0.61996 0.98225 0.0
C255 C 0.92527 0.60123 0.96789 0.0
C256 C 0.91703 0.59727 0.94458 0.0
C257 C 0.89847 0.61337 0.9356 0.0
C258 C 0.8876 0.632 0.94989 0.0
C259 C 0.84907 0.73506 0.00889 0.0
O260 O 0.85982 0.72376 0.06342 0.0
O261 O 0.85792 0.68386 0.0452 0.0
O262 O 0.90789 0.76489 0.07041 0.0
O263 O 0.87539 0.77886 0.05308 0.0
O264 O 0.9278 0.72671 0.04835 0.0
O265 O 0.90079 0.69951 0.04679 0.0
O266 O 0.91173 0.71118 0.99657 0.0
O267 O 0.90547 0.75315 0.00911 0.0
O268 O 0.87307 0.67443 0.98081 0.0
O269 O 0.88615 0.6526 0.01172 0.0
O270 O 0.84288 0.71122 1.00646 0.0
O271 O 0.87115 0.73563 0.01122 0.0
H272 H 0.85354 0.76486 0.09472 0.0
H273 H 0.84027 0.7793 0.13378 0.0
H274 H 0.89608 0.83506 0.13533 0.0
H275 H 0.90933 0.82032 0.09656 0.0
H276 H 0.92051 0.6218 1.00042 0.0
H277 H 0.93939 0.58903 0.97541 0.0
H278 H 0.89195 0.61117 0.9176 0.0
H279 H 0.87269 0.6433 0.94269 0.0
Ho280 Ho 0.5426 0.60493 0.2386 0.0
Ho281 Ho 0.50922 0.62392 0.27791 0.0
C282 C 0.55512 0.65704 0.26884 0.0
C283 C 0.5683 0.60084 0.20104 0.0
C284 C 0.5913 0.60974 0.1925 0.0
C285 C 0.60319 0.62997 0.20359 0.0
C286 C 0.62502 0.63812 0.19503 0.0
C287 C 0.63537 0.6261 0.17526 0.0
C288 C 0.62329 0.60584 0.16426 0.0
C289 C 0.6015 0.59777 0.17281 0.0
C290 C 0.54773 0.57944 0.28002 0.0
C291 C 0.49602 0.57336 0.24807 0.0
C292 C 0.48417 0.62985 0.31575 0.0
C293 C 0.47083 0.61603 0.33401 0.0
C294 C 0.4723 0.589 0.33688 0.0
C295 C 0.46015 0.57692 0.35537 0.0
C296 C 0.44646 0.5917 0.3713 0.0
C297 C 0.44513 0.61875 0.36812 0.0
C298 C 0.45712 0.6307 0.34969 0.0
C299 C 0.50162 0.6456 0.23415 0.0
O300 O 0.5606 0.64117 0.25131 0.0
O301 O 0.53657 0.65375 0.2824 0.0
O302 O 0.5691 0.58396 0.21848 0.0
O303 O 0.55164 0.61865 0.20363 0.0
O304 O 0.5506 0.5688 0.2595 0.0
O305 O 0.54403 0.60362 0.27778 0.0
O306 O 0.4958 0.58433 0.26919 0.0
O307 O 0.51059 0.58109 0.23131 0.0
O308 O 0.47512 0.631 0.29427 0.0
O309 O 0.5072 0.62625 0.31603 0.0
O310 O 0.49823 0.65796 0.25381 0.0
O311 O 0.50715 0.62251 0.23904 0.0
H312 H 0.59563 0.63945 0.21885 0.0
H313 H 0.63392 0.65359 0.20407 0.0
H314 H 0.63051 0.59641 0.14879 0.0
H315 H 0.59255 0.58219 0.16396 0.0
H316 H 0.48296 0.57734 0.32501 0.0
H317 H 0.4615 0.55605 0.35722 0.0
H318 H 0.4352 0.63085 0.38022 0.0
H319 H 0.45597 0.6516 0.34791 0.0
Ho320 Ho 0.22835 0.49384 0.13105 0.0
Ho321 Ho 0.25388 0.44269 0.11924 0.0
C322 C 0.20618 0.45519 0.09101 0.0
C323 C 0.20541 0.53782 0.12969 0.0
C324 C 0.18204 0.54721 0.12051 0.0
C325 C 0.17382 0.54105 0.09765 0.0
C326 C 0.15121 0.54945 0.08977 0.0
C327 C 0.13645 0.56436 0.10454 0.0
C328 C 0.14486 0.57054 0.12736 0.0
C329 C 0.16737 0.56208 0.13521 0.0
C330 C 0.22216 0.45531 0.16238 0.0
C331 C 0.27796 0.48206 0.15635 0.0
C332 C 0.27451 0.39726 0.12014 0.0
C333 C 0.29083 0.38015 0.13446 0.0
C334 C 0.28176 0.36186 0.15036 0.0
C335 C 0.29675 0.3432 0.16134 0.0
C336 C 0.32115 0.34224 0.15655 0.0
C337 C 0.33032 0.3611 0.14129 0.0
C338 C 0.31535 0.37976 0.13032 0.0
C339 C 0.26207 0.48361 0.09023 0.0
O340 O 0.20653 0.47857 0.10041 0.0
O341 O 0.22143 0.43663 0.09747 0.0
O342 O 0.20495 0.52181 0.14775 0.0
O343 O 0.22133 0.53104 0.1141 0.0
O344 O 0.22373 0.47945 0.16803 0.0
O345 O 0.22233 0.45275 0.14009 0.0
O346 O 0.27477 0.45756 0.15057 0.0
O347 O 0.26383 0.50095 0.14786 0.0
O348 O 0.28335 0.41746 0.10961 0.0
O349 O 0.25333 0.40201 0.12849 0.0
O350 O 0.26097 0.45997 0.08275 0.0
O351 O 0.26053 0.48368 0.11231 0.0
H352 H 0.18485 0.52973 0.08588 0.0
H353 H 0.14542 0.54455 0.07203 0.0
H354 H 0.13387 0.58164 0.13936 0.0
H355 H 0.17328 0.567 0.15293 0.0
H356 H 0.26292 0.36134 0.15371 0.0
H357 H 0.28902 0.32885 0.1728 0.0
H358 H 0.34908 0.36121 0.13749 0.0
H359 H 0.32294 0.39338 0.11803 0.0
Ho360 Ho 0.73291 0.97859 0.8779 0.0
Ho361 Ho 0.76241 0.02567 0.89082 0.0
C362 C 0.71531 0.0181 0.92002 0.0
C363 C 0.70979 0.93584 0.87869 0.0
C364 C 0.68681 0.92626 0.88667 0.0
C365 C 0.68368 0.89952 0.88837 0.0
C366 C 0.66192 0.88974 0.89526 0.0
C367 C 0.64271 0.90652 0.90056 0.0
C368 C 0.64609 0.93344 0.89929 0.0
C369 C 0.66796 0.94322 0.89239 0.0
C370 C 0.72686 0.01894 0.84792 0.0
C371 C 0.78183 0.98628 0.8513 0.0
C372 C 0.78607 0.06804 0.89174 0.0
C373 C 0.80143 0.08456 0.87732 0.0
C374 C 0.79651 0.09019 0.85329 0.0
C375 C 0.81042 0.10775 0.84083 0.0
C376 C 0.82951 0.11994 0.85214 0.0
C377 C 0.83453 0.11378 0.87608 0.0
C378 C 0.82066 0.09632 0.88847 0.0
C379 C 0.77031 0.98193 0.91732 0.0
O380 O 0.71232 0.99614 0.90849 0.0
O381 O 0.73259 0.03393 0.91512 0.0
O382 O 0.70923 0.95209 0.86076 0.0
O383 O 0.72479 0.9424 0.89533 0.0
O384 O 0.72576 0.99485 0.84188 0.0
O385 O 0.72912 0.02081 0.87027 0.0
O386 O 0.77976 0.01082 0.85764 0.0
O387 O 0.76736 0.96866 0.85978 0.0
O388 O 0.7949 0.04561 0.89891 0.0
O389 O 0.76368 0.06706 0.88552 0.0
O390 O 0.7711 0.00504 0.92611 0.0
O391 O 0.76677 0.98375 0.89546 0.0
H392 H 0.69808 0.88612 0.88423 0.0
H393 H 0.66019 0.86895 0.89653 0.0
H394 H 0.6317 0.94695 0.90311 0.0
H395 H 0.67008 0.96398 0.89129 0.0
H396 H 0.78176 0.08134 0.84426 0.0
H397 H 0.8062 0.1118 0.82236 0.0
H398 H 0.84879 0.12303 0.88553 0.0
H399 H 0.82465 0.09245 0.90703 0.0
Ho400 Ho 0.76342 0.95346 0.39333 0.0
Ho401 Ho 0.8099 0.98748 0.38217 0.0
C402 C 0.80136 0.93275 0.35455 0.0
C403 C 0.72334 0.93062 0.39094 0.0
C404 C 0.71289 0.91136 0.37473 0.0
C405 C 0.69319 0.91804 0.36025 0.0
C406 C 0.68211 0.89924 0.3465 0.0
C407 C 0.69065 0.87337 0.34681 0.0
C408 C 0.71091 0.867 0.36063 0.0
C409 C 0.72185 0.88569 0.3744 0.0
C410 C 0.79911 0.94582 0.42624 0.0
C411 C 0.77164 0.00875 0.41865 0.0
C412 C 0.85301 1.00293 0.37774 0.0
C413 C 0.8725 0.01783 0.38819 0.0
C414 C 0.87417 0.02308 0.41254 0.0
C415 C 0.89403 0.03568 0.42178 0.0
C416 C 0.91262 0.04302 0.40685 0.0
C417 C 0.9105 0.03807 0.38245 0.0
C418 C 0.89071 0.02565 0.37328 0.0
C419 C 0.76954 0.99863 0.35708 0.0
O420 O 0.78056 0.9298 0.36477 0.0
O421 O 0.81542 0.95242 0.359 0.0
O422 O 0.74135 0.92228 0.404 0.0
O423 O 0.7261 0.95422 0.38283 0.0
O424 O 0.77906 0.93419 0.42685 0.0
O425 O 0.79825 0.96025 0.40831 0.0
O426 O 0.79465 0.00718 0.41391 0.0
O427 O 0.75587 0.99235 0.41005 0.0
O428 O 0.83448 0.0158 0.36911 0.0
O429 O 0.8475 0.98132 0.3884 0.0
O430 O 0.78527 0.01577 0.36231 0.0
O431 O 0.77703 0.97659 0.36388 0.0
H432 H 0.68616 0.93771 0.35984 0.0
H433 H 0.66673 0.90492 0.33579 0.0
H434 H 0.71784 0.84728 0.36159 0.0
H435 H 0.73706 0.87973 0.38523 0.0
H436 H 0.86034 0.01716 0.4244 0.0
H437 H 0.8951 0.03912 0.44066 0.0
H438 H 0.92416 0.04388 0.37034 0.0
H439 H 0.88978 0.0218 0.35444 0.0
Ho440 Ho 0.30629 0.48079 0.62556 0.0
Ho441 Ho 0.27374 0.52651 0.61085 0.0
C442 C 0.32002 0.51784 0.58023 0.0
C443 C 0.33279 0.43923 0.62644 0.0
C444 C 0.35683 0.4325 0.61852 0.0
C445 C 0.36398 0.40645 0.61705 0.0
C446 C 0.38667 0.3997 0.60924 0.0
C447 C 0.40264 0.41894 0.60274 0.0
C448 C 0.39538 0.44511 0.60427 0.0
C449 C 0.37262 0.45183 0.61204 0.0
C450 C 0.31133 0.52321 0.65198 0.0
C451 C 0.25876 0.48901 0.65375 0.0
C452 C 0.2475 0.56831 0.60913 0.0
C453 C 0.23255 0.58487 0.6244 0.0
C454 C 0.24148 0.59601 0.64524 0.0
C455 C 0.22756 0.61375 0.65792 0.0
C456 C 0.20451 0.62078 0.64997 0.0
C457 C 0.19544 0.60893 0.62953 0.0
C458 C 0.20931 0.59119 0.61693 0.0
C459 C 0.26739 0.48186 0.58692 0.0
O460 O 0.32436 0.49645 0.5929 0.0
O461 O 0.30224 0.53396 0.58493 0.0
O462 O 0.33136 0.45533 0.64413 0.0
O463 O 0.31725 0.44463 0.60958 0.0
O464 O 0.31448 0.49982 0.66002 0.0
O465 O 0.30808 0.52327 0.62975 0.0
O466 O 0.25925 0.51326 0.64602 0.0
O467 O 0.27328 0.471 0.64516 0.0
O468 O 0.23957 0.54543 0.60399 0.0
O469 O 0.27043 0.56811 0.61305 0.0
O470 O 0.2649 0.50464 0.57715 0.0
O471 O 0.27151 0.48431 0.60865 0.0
H472 H 0.35199 0.3913 0.62197 0.0
H473 H 0.39182 0.37939 0.60856 0.0
H474 H 0.40717 0.46035 0.59916 0.0
H475 H 0.3673 0.47209 0.61293 0.0
H476 H 0.25937 0.59152 0.65146 0.0
H477 H 0.23494 0.62218 0.67379 0.0
H478 H 0.17792 0.6141 0.62267 0.0
H479 H 0.20208 0.58299 0.60085 0.0
H480 H 0.22834 0.25007 0.50664 0.0
H481 H 0.24617 0.29029 0.52062 0.0
H482 H 0.17838 0.33013 0.51286 0.0
H483 H 0.16062 0.29038 0.49919 0.0
H484 H 0.24982 0.34066 0.50185 0.0
H485 H 0.17027 0.36794 0.56164 0.0
H486 H 0.13898 0.3462 0.58396 0.0
H487 H 0.18282 0.27727 0.58977 0.0
H488 H 0.2145 0.29869 0.56792 0.0
H489 H 0.25442 0.47268 0.5407 0.0
H490 H 0.24283 0.43118 0.52362 0.0
H491 H 0.25572 0.39349 0.59132 0.0
H492 H 0.26695 0.43466 0.60838 0.0
H493 H 0.21438 0.37982 0.57353 0.0
H494 H 0.29383 0.38491 0.5456 0.0
H495 H 0.32728 0.40505 0.5254 0.0
H496 H 0.28789 0.40612 0.45971 0.0
H497 H 0.25405 0.38632 0.47961 0.0
C498 C 0.21737 0.26751 0.5077 0.0
C499 C 0.19307 0.26703 0.50198 0.0
C500 C 0.22756 0.29046 0.51561 0.0
C501 C 0.21352 0.31313 0.51806 0.0
C502 C 0.1895 0.31283 0.51139 0.0
C503 C 0.17938 0.29006 0.5035 0.0
C504 C 0.2234 0.33682 0.52874 0.0
C505 C 0.24211 0.34924 0.51753 0.0
C506 C 0.21356 0.34781 0.54942 0.0
C507 C 0.19467 0.33486 0.56289 0.0
C508 C 0.17327 0.34818 0.56776 0.0
C509 C 0.15546 0.33591 0.58033 0.0
C510 C 0.15888 0.31035 0.58819 0.0
C511 C 0.18015 0.29703 0.58359 0.0
C512 C 0.19803 0.30922 0.57109 0.0
C513 C 0.2549 0.45547 0.55183 0.0
C514 C 0.26157 0.45691 0.57585 0.0
C515 C 0.24836 0.43177 0.54206 0.0
C516 C 0.24847 0.40914 0.55617 0.0
C517 C 0.25541 0.41063 0.58009 0.0
C518 C 0.26193 0.4342 0.5898 0.0
C519 C 0.24057 0.38404 0.54643 0.0
C520 C 0.22213 0.37133 0.55783 0.0
C521 C 0.25094 0.37263 0.5262 0.0
C522 C 0.27132 0.38435 0.51415 0.0
C523 C 0.29223 0.38962 0.52689 0.0
C524 C 0.31128 0.40095 0.51549 0.0
C525 C 0.30969 0.40692 0.4913 0.0
C526 C 0.28908 0.40151 0.47845 0.0
C527 C 0.26997 0.39022 0.48978 0.0
H528 H 0.32445 0.41569 0.4825 0.0
H529 H 0.14512 0.30087 0.59792 0.0
H530 H 0.79535 0.93724 0.83764 0.0
H531 H 0.8334 0.92353 0.82097 0.0
H532 H 0.85531 1.0029 0.81924 0.0
H533 H 0.81719 0.01681 0.83511 0.0
H534 H 0.8712 0.97963 0.7817 0.0
H535 H 0.87128 0.95951 0.86487 0.0
H536 H 0.85778 0.93976 0.90214 0.0
H537 H 0.86827 0.86395 0.87305 0.0
H538 H 0.88126 0.88322 0.8354 0.0
H539 H 0.99726 0.94425 0.7774 0.0
H540 H 0.95887 0.96292 0.79024 0.0
H541 H 0.92692 0.88857 0.78191 0.0
H542 H 0.9645 0.87018 0.76891 0.0
H543 H 0.91777 0.91169 0.82579 0.0
H544 H 0.91548 0.93226 0.7421 0.0
H545 H 0.93061 0.95191 0.70548 0.0
H546 H 0.92603 0.02718 0.73695 0.0
H547 H 0.91123 0.00788 0.77392 0.0
C548 C 0.80809 0.95183 0.83332 0.0
C549 C 0.80321 0.9781 0.83793 0.0
C550 C 0.82996 0.94394 0.82397 0.0
C551 C 0.84753 0.96211 0.81938 0.0
C552 C 0.84218 0.98846 0.82277 0.0
C553 C 0.82029 0.99638 0.8319 0.0
C554 C 0.87175 0.95368 0.81191 0.0
C555 C 0.88146 0.965 0.79156 0.0
C556 C 0.88522 0.93445 0.82461 0.0
C557 C 0.877 0.92285 0.84717 0.0
C558 C 0.87045 0.93864 0.8663 0.0
C559 C 0.86291 0.92752 0.88752 0.0
C560 C 0.86212 0.90062 0.88993 0.0
C561 C 0.86882 0.88478 0.87113 0.0
C562 C 0.87625 0.89579 0.84984 0.0
C563 C 0.98196 0.93204 0.77821 0.0
C564 C 0.98393 0.90576 0.77219 0.0
C565 C 0.9601 0.94268 0.78551 0.0
C566 C 0.94008 0.92706 0.7871 0.0
C567 C 0.94212 0.90093 0.78094 0.0
C568 C 0.96369 0.89048 0.77342 0.0
C569 C 0.91691 0.93736 0.79554 0.0
C570 C 0.90747 0.92642 0.81609 0.0
C571 C 0.90379 0.95695 0.78313 0.0
C572 C 0.91253 0.96859 0.76088 0.0
C573 C 0.91792 0.95297 0.74129 0.0
C574 C 0.92639 0.96405 0.72046 0.0
C575 C 0.92935 0.99077 0.71892 0.0
C576 C 0.92378 0.00647 0.73819 0.0
C577 C 0.91534 0.99548 0.75908 0.0
H578 H 0.9359 0.99932 0.70277 0.0
H579 H 0.8564 0.89201 0.90637 0.0
H580 H 0.34443 0.70709 0.04372 0.0
H581 H 0.32561 0.66808 0.05884 0.0
H582 H 0.31258 0.64315 0.98728 0.0
H583 H 0.33092 0.68196 0.97198 0.0
H584 H 0.2795 0.64316 0.05038 0.0
H585 H 0.33378 0.5798 0.98677 0.0
H586 H 0.37095 0.58175 0.96433 0.0
H587 H 0.4005 0.6316 0.01691 0.0
H588 H 0.36369 0.62956 0.03983 0.0
H589 H 0.24035 0.51174 0.05462 0.0
H590 H 0.25376 0.55294 0.03764 0.0
H591 H 0.31783 0.54647 0.08011 0.0
H592 H 0.30419 0.50587 0.09744 0.0
H593 H 0.32524 0.56258 0.03219 0.0
H594 H 0.27773 0.58407 0.10013 0.0
H595 H 0.2417 0.58315 0.12434 0.0
H596 H 0.20088 0.61736 0.06681 0.0
H597 H 0.23672 0.61841 0.04222 0.0
C598 C 0.33707 0.69364 0.03118 0.0
C599 C 0.33944 0.69765 1.00661 0.0
C600 C 0.32627 0.67136 0.03987 0.0
C601 C 0.31791 0.65264 0.02417 0.0
C602 C 0.31904 0.6573 0.9997 0.0
C603 C 0.3296 0.67957 0.991 0.0
C604 C 0.31024 0.62708 0.03311 0.0
C605 C 0.28942 0.62554 0.04633 0.0
C606 C 0.32335 0.60411 0.02808 0.0
C607 C 0.34589 0.60472 0.01487 0.0
C608 C 0.34827 0.59104 0.9936 0.0
C609 C 0.36926 0.59218 0.98079 0.0
C610 C 0.38804 0.60686 0.98914 0.0
C611 C 0.38592 0.62031 0.01041 0.0
C612 C 0.36499 0.61917 0.0233 0.0
C613 C 0.25752 0.51892 0.05981 0.0
C614 C 0.2715 0.5056 0.07694 0.0
C615 C 0.26507 0.54247 0.05031 0.0
C616 C 0.28679 0.55276 0.05766 0.0
C617 C 0.3011 0.53884 0.07412 0.0
C618 C 0.29336 0.51566 0.08392 0.0
C619 C 0.29428 0.57855 0.04913 0.0
C620 C 0.31515 0.58015 0.03603 0.0
C621 C 0.28136 0.60155 0.05452 0.0
C622 C 0.25984 0.60109 0.06928 0.0
C623 C 0.26104 0.59123 0.09259 0.0
C624 C 0.24067 0.59075 0.1064 0.0
C625 C 0.21899 0.60011 0.09709 0.0
C626 C 0.21768 0.61008 0.07398 0.0
C627 C 0.23802 0.6107 0.06013 0.0
H628 H 0.20324 0.59972 0.1078 0.0
H629 H 0.40425 0.60778 0.97916 0.0
H630 H 0.57971 0.10228 0.2711 0.0
H631 H 0.61828 0.085 0.2838 0.0
H632 H 0.58868 0.00945 0.29323 0.0
H633 H 0.54936 0.02722 0.28122 0.0
H634 H 0.61663 0.017 0.32838 0.0
H635 H 0.62772 0.02558 0.24576 0.0
H636 H 0.62943 0.04401 0.20534 0.0
H637 H 0.67735 0.10157 0.22969 0.0
H638 H 0.67564 0.08381 0.27033 0.0
H639 H 0.73775 0.96441 0.33923 0.0
H640 H 0.69764 0.97401 0.32347 0.0
H641 H 0.70844 0.05556 0.333 0.0
H642 H 0.74804 0.04597 0.34987 0.0
H643 H 0.69005 0.03944 0.28634 0.0
H644 H 0.67741 0.02761 0.37037 0.0
H645 H 0.6792 1.00274 0.40785 0.0
H646 H 0.63489 0.94507 0.37743 0.0
H647 H 0.6335 0.96914 0.33946 0.0
C648 C 0.58133 0.08191 0.27567 0.0
C649 C 0.5614 0.06611 0.27504 0.0
C650 C 0.60358 0.07195 0.28281 0.0
C651 C 0.60677 0.0457 0.28909 0.0
C652 C 0.58685 0.02975 0.28839 0.0
C653 C 0.56438 0.03986 0.28145 0.0
C654 C 0.63067 0.03557 0.29737 0.0
C655 C 0.63259 0.02155 0.31887 0.0
C656 C 0.65178 0.04148 0.28522 0.0
C657 C 0.65146 0.0534 0.26115 0.0
C658 C 0.63835 0.0424 0.24259 0.0
C659 C 0.63941 0.05265 0.2196 0.0
C660 C 0.65363 0.07381 0.21495 0.0
C661 C 0.66645 0.08509 0.23332 0.0
C662 C 0.66543 0.07495 0.25632 0.0
C663 C 0.73139 0.98435 0.33834 0.0
C664 C 0.74582 0.0044 0.3463 0.0
C665 C 0.70854 0.98981 0.3292 0.0
C666 C 0.69995 0.01549 0.32727 0.0
C667 C 0.71466 0.03559 0.33445 0.0
C668 C 0.73729 0.0301 0.34404 0.0
C669 C 0.67582 0.02163 0.31738 0.0
C670 C 0.67394 0.03483 0.29561 0.0
C671 C 0.65485 0.01442 0.32898 0.0
C672 C 0.65564 1.00002 0.3519 0.0
C673 C 0.66832 0.00944 0.37152 0.0
C674 C 0.66924 0.9955 0.39289 0.0
C675 C 0.65721 0.97231 0.39501 0.0
C676 C 0.64418 0.96305 0.37578 0.0
C677 C 0.64341 0.97678 0.35429 0.0
H678 H 0.65794 0.96154 0.41156 0.0
H679 H 0.65476 0.08146 0.19709 0.0
H680 H 0.66847 0.21822 0.47747 0.0
H681 H 0.6862 0.17763 0.4638 0.0
H682 H 0.745 0.18647 0.51255 0.0
H683 H 0.72738 0.22799 0.5258 0.0
H684 H 0.75923 0.16611 0.47001 0.0
H685 H 0.69912 0.14621 0.52737 0.0
H686 H 0.65903 0.15033 0.54406 0.0
H687 H 0.62875 0.1232 0.47892 0.0
H688 H 0.66869 0.11876 0.46189 0.0
H689 H 0.79569 0.03555 0.45247 0.0
H690 H 0.78273 0.07542 0.47202 0.0
H691 H 0.71583 0.0735 0.43405 0.0
H692 H 0.72826 0.03299 0.41548 0.0
H693 H 0.70767 0.08992 0.47553 0.0
H694 H 0.76506 0.11217 0.41667 0.0
H695 H 0.80395 0.10963 0.39726 0.0
H696 H 0.83803 0.13438 0.46138 0.0
H697 H 0.79935 0.13676 0.48126 0.0
C698 C 0.68533 0.21164 0.48506 0.0
C699 C 0.69653 0.22598 0.50277 0.0
C700 C 0.69539 0.1884 0.47734 0.0
C701 C 0.71658 0.17859 0.48764 0.0
C702 C 0.72852 0.19357 0.50452 0.0
C703 C 0.71854 0.21724 0.51202 0.0
C704 C 0.72549 0.15228 0.48124 0.0
C705 C 0.74817 0.14933 0.47162 0.0
C706 C 0.71083 0.13048 0.48282 0.0
C707 C 0.68688 0.13222 0.49335 0.0
C708 C 0.68391 0.14111 0.51662 0.0
C709 C 0.66122 0.14352 0.52614 0.0
C710 C 0.64135 0.13715 0.51253 0.0
C711 C 0.64416 0.12812 0.48945 0.0
C712 C 0.66682 0.12552 0.4799 0.0
C713 C 0.77811 0.0435 0.44855 0.0
C714 C 0.76302 0.03123 0.43239 0.0
C715 C 0.77077 0.06641 0.45959 0.0
C716 C 0.7485 0.07795 0.45409 0.0
C717 C 0.73311 0.06512 0.43859 0.0
C718 C 0.74022 0.04191 0.42798 0.0
C719 C 0.74136 0.10368 0.46383 0.0
C720 C 0.71894 0.10655 0.47414 0.0
C721 C 0.75615 0.12546 0.46253 0.0
C722 C 0.77936 0.12438 0.45051 0.0
C723 C 0.78087 0.11694 0.42666 0.0
C724 C 0.80287 0.11554 0.41557 0.0
C725 C 0.82345 0.12177 0.4281 0.0
C726 C 0.82207 0.12952 0.45171 0.0
C727 C 0.80012 0.13091 0.46289 0.0
H728 H 0.84047 0.12065 0.41949 0.0
H729 H 0.6238 0.13915 0.51989 0.0
H730 H 0.05218 0.42136 0.70416 0.0
H731 H 0.08923 0.44055 0.69196 0.0
H732 H 0.1134 0.4413 0.7648 0.0
H733 H 0.07651 0.42172 0.77719 0.0
H734 H 0.11484 0.48335 0.70083 0.0
H735 H 0.17235 0.41993 0.76549 0.0
H736 H 0.16939 0.37926 0.78843 0.0
H737 H 0.11871 0.3514 0.7379 0.0
H738 H 0.12171 0.39164 0.71445 0.0
H739 H 0.23308 0.51983 0.68354 0.0
H740 H 0.19694 0.50874 0.70445 0.0
H741 H 0.203 0.43064 0.67838 0.0
H742 H 0.23968 0.4413 0.65845 0.0
H743 H 0.18627 0.42887 0.72048 0.0
H744 H 0.16729 0.48025 0.65036 0.0
H745 H 0.17048 0.51895 0.62474 0.0
H746 H 0.143 0.56679 0.68029 0.0
H747 H 0.13992 0.52838 0.70636 0.0
C748 C 0.06513 0.42609 0.71769 0.0
C749 C 0.06148 0.41966 0.74164 0.0
C750 C 0.08631 0.43715 0.71066 0.0
C751 C 0.10425 0.44198 0.72741 0.0
C752 C 0.09993 0.43738 0.75153 0.0
C753 C 0.07879 0.42623 0.75858 0.0
C754 C 0.12817 0.44925 0.71935 0.0
C755 C 0.13049 0.47157 0.70528 0.0
C756 C 0.14855 0.43359 0.72474 0.0
C757 C 0.1471 0.40894 0.73834 0.0
C758 C 0.16069 0.40505 0.7592 0.0
C759 C 0.159 0.38207 0.77229 0.0
C760 C 0.14384 0.36278 0.76465 0.0
C761 C 0.13044 0.36636 0.74381 0.0
C762 C 0.13215 0.38924 0.7306 0.0
C763 C 0.22692 0.50016 0.68266 0.0
C764 C 0.23912 0.48147 0.66924 0.0
C765 C 0.20617 0.49389 0.69448 0.0
C766 C 0.19684 0.46902 0.6925 0.0
C767 C 0.20973 0.44999 0.68014 0.0
C768 C 0.23074 0.4561 0.66874 0.0
C769 C 0.17306 0.4631 0.70204 0.0
C770 C 0.17072 0.44091 0.71631 0.0
C771 C 0.15259 0.47854 0.69633 0.0
C772 C 0.15356 0.50148 0.68036 0.0
C773 C 0.16196 0.49903 0.65712 0.0
C774 C 0.16378 0.52091 0.64253 0.0
C775 C 0.15701 0.54532 0.6509 0.0
C776 C 0.14826 0.54787 0.67384 0.0
C777 C 0.14645 0.52605 0.68852 0.0
H778 H 0.1585 0.56224 0.63962 0.0
H779 H 0.14249 0.34505 0.77486 0.0
H780 H 0.77863 0.97257 0.96501 0.0
H781 H 0.78836 0.93049 0.98415 0.0
H782 H 0.78482 0.8934 0.91606 0.0
H783 H 0.77505 0.93484 0.89715 0.0
H784 H 0.76288 0.86519 0.94793 0.0
H785 H 0.83728 0.90754 0.9426 0.0
H786 H 0.8661 0.94187 0.94927 0.0
H787 H 0.86087 0.93082 0.02454 0.0
H788 H 0.83183 0.89653 0.01828 0.0
H789 H 0.83264 0.74865 0.96486 0.0
H790 H 0.81496 0.7907 0.95255 0.0
H791 H 0.81648 0.8158 0.02526 0.0
H792 H 0.83354 0.7735 0.03752 0.0
H793 H 0.83695 0.85073 0.99506 0.0
H794 H 0.76451 0.80462 0.99883 0.0
H795 H 0.73743 0.76908 0.99027 0.0
H796 H 0.74048 0.78646 0.91581 0.0
H797 H 0.76788 0.82187 0.92389 0.0
C798 C 0.7799 0.95538 0.95424 0.0
C799 C 0.77599 0.95702 0.92962 0.0
C800 C 0.78549 0.93137 0.96514 0.0
C801 C 0.78737 0.9087 0.95154 0.0
C802 C 0.78331 0.91047 0.927 0.0
C803 C 0.77777 0.93428 0.91619 0.0
C804 C 0.7939 0.88305 0.96245 0.0
C805 C 0.77915 0.86203 0.95814 0.0
C806 C 0.81491 0.8789 0.97613 0.0
C807 C 0.83217 0.89968 0.97996 0.0
C808 C 0.84214 0.91257 0.96056 0.0
C809 C 0.85854 0.93199 0.96427 0.0
C810 C 0.86525 0.93859 0.98732 0.0
C811 C 0.85561 0.92573 1.0067 0.0
C812 C 0.83919 0.90628 1.00308 0.0
C813 C 0.82858 0.76296 0.9782 0.0
C814 C 0.83453 0.75808 1.00208 0.0
C815 C 0.8186 0.78699 0.9712 0.0
C816 C 0.81446 0.8065 0.98798 0.0
C817 C 0.81967 0.80117 0.01198 0.0
C818 C 0.82948 0.77709 0.01896 0.0
C819 C 0.80605 0.83287 0.98031 0.0
C820 C 0.8205 0.85399 0.98517 0.0
C821 C 0.78492 0.83705 0.96688 0.0
C822 C 0.76842 0.81577 0.96196 0.0
C823 C 0.75957 0.80073 0.98061 0.0
C824 C 0.74413 0.78063 0.97585 0.0
C825 C 0.73728 0.77548 0.95251 0.0
C826 C 0.74582 0.79046 0.93388 0.0
C827 C 0.76129 0.81056 0.93854 0.0
H828 H 0.72532 0.75992 0.94885 0.0
H829 H 0.87797 0.95363 0.99017 0.0
H830 H 0.48999 0.54607 0.20707 0.0
H831 H 0.45428 0.52391 0.19432 0.0
H832 H 0.42257 0.53895 0.26211 0.0
H833 H 0.45838 0.56023 0.27528 0.0
H834 H 0.40754 0.49418 0.24523 0.0
H835 H 0.41681 0.58113 0.21559 0.0
H836 H 0.43848 0.61484 0.19442 0.0
H837 H 0.43267 0.5722 0.12972 0.0
H838 H 0.41191 0.5376 0.1508 0.0
H839 H 0.29076 0.52953 0.17266 0.0
H840 H 0.32823 0.54066 0.19179 0.0
H841 H 0.35178 0.46066 0.18935 0.0
H842 H 0.31422 0.44926 0.17086 0.0
H843 H 0.37082 0.53748 0.17439 0.0
H844 H 0.39197 0.44734 0.23337 0.0
H845 H 0.37072 0.41458 0.25636 0.0
H846 H 0.31228 0.4683 0.26522 0.0
H847 H 0.3333 0.50147 0.24254 0.0
C848 C 0.47567 0.54407 0.21948 0.0
C849 C 0.47687 0.55539 0.24201 0.0
C850 C 0.45524 0.53144 0.21215 0.0
C851 C 0.43551 0.5304 0.22705 0.0
C852 C 0.43749 0.53967 0.25025 0.0
C853 C 0.458 0.55197 0.2577 0.0
C854 C 0.412 0.52273 0.21769 0.0
C855 C 0.39956 0.5035 0.22965 0.0
C856 C 0.40132 0.53536 0.19769 0.0
C857 C 0.41302 0.55663 0.18484 0.0
C858 C 0.42028 0.57885 0.19688 0.0
C859 C 0.43247 0.59809 0.1849 0.0
C860 C 0.43691 0.59569 0.1607 0.0
C861 C 0.42924 0.57401 0.14847 0.0
C862 C 0.41736 0.55451 0.16045 0.0
C863 C 0.30375 0.51423 0.17654 0.0
C864 C 0.29946 0.48852 0.17021 0.0
C865 C 0.32522 0.52064 0.18739 0.0
C866 C 0.34283 0.5015 0.1921 0.0
C867 C 0.33836 0.47572 0.18627 0.0
C868 C 0.31684 0.46926 0.1756 0.0
C869 C 0.36633 0.50876 0.20181 0.0
C870 C 0.37879 0.528 0.1899 0.0
C871 C 0.37679 0.49645 0.22207 0.0
C872 C 0.36413 0.4768 0.23606 0.0
C873 C 0.37463 0.45219 0.24031 0.0
C874 C 0.36261 0.43355 0.25327 0.0
C875 C 0.34013 0.43933 0.26218 0.0
C876 C 0.32966 0.46381 0.25823 0.0
C877 C 0.3416 0.48253 0.2453 0.0
H878 H 0.33085 0.42487 0.27218 0.0
H879 H 0.44621 0.61065 0.15138 0.0
H880 H 0.50518 0.18355 0.30575 0.0
H881 H 0.51861 0.2035 0.34275 0.0
H882 H 0.58908 0.17205 0.33216 0.0
H883 H 0.57607 0.15268 0.29493 0.0
H884 H 0.55866 0.16019 0.37912 0.0
H885 H 0.59219 0.22576 0.32708 0.0
H886 H 0.58918 0.25907 0.29552 0.0
H887 H 0.53706 0.30135 0.33539 0.0
H888 H 0.5395 0.26801 0.36703 0.0
H889 H 0.62705 0.20228 0.47498 0.0
H890 H 0.61093 0.18913 0.43696 0.0
H891 H 0.56452 0.25692 0.43521 0.0
H892 H 0.58246 0.27141 0.4725 0.0
H893 H 0.57909 0.25141 0.39427 0.0
H894 H 0.54572 0.18994 0.44722 0.0
H895 H 0.54608 0.15746 0.47956 0.0
H896 H 0.59248 0.10788 0.43962 0.0
H897 H 0.59257 0.14016 0.40712 0.0
C898 C 0.52366 0.18142 0.31103 0.0
C899 C 0.53958 0.16661 0.2974 0.0
C900 C 0.53127 0.19277 0.33215 0.0
C901 C 0.55479 0.18916 0.3401 0.0
C902 C 0.57088 0.1751 0.3262 0.0
C903 C 0.56343 0.1642 0.30486 0.0
C904 C 0.56215 0.19815 0.36383 0.0
C905 C 0.56334 0.18007 0.38251 0.0
C906 C 0.56728 0.22425 0.36827 0.0
C907 C 0.56578 0.24421 0.34924 0.0
C908 C 0.57987 0.24198 0.32897 0.0
C909 C 0.57832 0.26091 0.3111 0.0
C910 C 0.56287 0.28227 0.3134 0.0
C911 C 0.54897 0.28476 0.3336 0.0
C912 C 0.55044 0.26586 0.35151 0.0
C913 C 0.61325 0.21429 0.46662 0.0
C914 C 0.60588 0.2378 0.47677 0.0
C915 C 0.60384 0.20662 0.44488 0.0
C916 C 0.58593 0.22159 0.43329 0.0
C917 C 0.57823 0.24492 0.44371 0.0
C918 C 0.58834 0.25312 0.4651 0.0
C919 C 0.57607 0.21333 0.40993 0.0
C920 C 0.57425 0.23153 0.39121 0.0
C921 C 0.56981 0.18735 0.40557 0.0
C922 C 0.56924 0.16755 0.42479 0.0
C923 C 0.55603 0.17213 0.44535 0.0
C924 C 0.55616 0.15375 0.46371 0.0
C925 C 0.56932 0.13064 0.46166 0.0
C926 C 0.58228 0.12578 0.44118 0.0
C927 C 0.5822 0.14409 0.42276 0.0
H928 H 0.56947 0.11648 0.47593 0.0
H929 H 0.56171 0.29692 0.29956 0.0
H930 H 0.10307 0.21043 0.55171 0.0
H931 H 0.08629 0.22589 0.58867 0.0
H932 H 0.08356 0.30391 0.56067 0.0
H933 H 0.10099 0.28864 0.5237 0.0
H934 H 0.10188 0.30375 0.60335 0.0
H935 H 0.03251 0.2674 0.56907 0.0
H936 H 0.00874 0.23381 0.55003 0.0
H937 H 0.02022 0.18375 0.61051 0.0
H938 H 0.04433 0.21692 0.62981 0.0
H939 H 0.03418 0.35816 0.69599 0.0
H940 H 0.04698 0.342 0.65759 0.0
H941 H 0.05567 0.26511 0.68738 0.0
H942 H 0.04278 0.28129 0.72609 0.0
H943 H 0.0336 0.26487 0.64367 0.0
H944 H 0.10322 0.30135 0.67781 0.0
H945 H 0.1283 0.33434 0.69598 0.0
H946 H 0.11698 0.38397 0.6352 0.0
H947 H 0.09159 0.3514 0.61675 0.0
C948 C 0.09863 0.23085 0.55321 0.0
C949 C 0.10338 0.24827 0.53462 0.0
C950 C 0.0889 0.23967 0.57441 0.0
C951 C 0.08337 0.26606 0.57748 0.0
C952 C 0.08761 0.28344 0.55876 0.0
C953 C 0.09746 0.27465 0.53755 0.0
C954 C 0.07446 0.27567 0.60066 0.0
C955 C 0.08672 0.2955 0.61197 0.0
C956 C 0.05502 0.26451 0.61228 0.0
C957 C 0.0404 0.24457 0.6008 0.0
C958 C 0.0301 0.24916 0.57825 0.0
C959 C 0.01655 0.23021 0.56742 0.0
C960 C 0.01302 0.20664 0.57903 0.0
C961 C 0.02298 0.20201 0.60153 0.0
C962 C 0.03657 0.22089 0.61243 0.0
C963 C 0.03873 0.33778 0.69439 0.0
C964 C 0.03756 0.32099 0.7141 0.0
C965 C 0.04617 0.32859 0.67243 0.0
C966 C 0.0526 0.3024 0.66962 0.0
C967 C 0.05089 0.28542 0.68913 0.0
C968 C 0.04356 0.29467 0.71123 0.0
C969 C 0.06109 0.29288 0.64631 0.0
C970 C 0.04875 0.2731 0.63501 0.0
C971 C 0.08047 0.3041 0.63465 0.0
C972 C 0.09521 0.32404 0.64603 0.0
C973 C 0.1058 0.31944 0.66845 0.0
C974 C 0.12013 0.33804 0.67878 0.0
C975 C 0.12414 0.36128 0.66681 0.0
C976 C 0.11381 0.36598 0.64448 0.0
C977 C 0.09946 0.34745 0.63408 0.0
H978 H 0.13537 0.3756 0.67475 0.0
H979 H 1.00252 0.19199 0.57061 0.0
H980 H 0.03597 0.79329 0.8076 0.0
H981 H 0.02131 0.77589 0.8451 0.0
H982 H 0.94987 0.79842 0.82434 0.0
H983 H 0.96414 0.81542 0.78684 0.0
H984 H 0.96642 0.81859 0.86889 0.0
H985 H 0.962 0.73803 0.82642 0.0
H986 H 0.97821 0.70204 0.80274 0.0
H987 H 0.02897 0.68335 0.85809 0.0
H988 H 0.01327 0.7195 0.88198 0.0
H989 H 0.89865 0.7714 0.96274 0.0
H990 H 0.91597 0.78333 0.92495 0.0
H991 H 0.97763 0.73484 0.94159 0.0
H992 H 0.95895 0.72097 0.97848 0.0
H993 H 0.96891 0.72824 0.89937 0.0
H994 H 0.97443 0.80737 0.94262 0.0
H995 H 0.96028 0.84413 0.96663 0.0
H996 H 0.91114 0.86725 0.9111 0.0
H997 H 0.9248 0.83047 0.88688 0.0
C998 C 0.01708 0.79399 0.81078 0.0
C999 C 1.00126 0.80586 0.79424 0.0
C1000 C 0.00875 0.78407 0.83222 0.0
C1001 C 0.98454 0.78608 0.8375 0.0
C1002 C 0.96863 0.7968 0.82059 0.0
C1003 C 0.97685 0.80637 0.79908 0.0
C1004 C 0.97592 0.77901 0.86132 0.0
C1005 C 0.96673 0.79882 0.87557 0.0
C1006 C 0.97721 0.75338 0.87022 0.0
C1007 C 0.98664 0.73166 0.85586 0.0
C1008 C 0.97678 0.72642 0.83344 0.0
C1009 C 0.98583 0.70595 0.82001 0.0
C1010 C 1.00466 0.69047 0.82887 0.0
C1011 C 0.01442 0.69539 0.85123 0.0
C1012 C 1.00543 0.71585 0.86473 0.0
C1013 C 0.91606 0.76363 0.9584 0.0
C1014 C 0.92773 0.74566 0.97354 0.0
C1015 C 0.92608 0.77058 0.93684 0.0
C1016 C 0.94856 0.76067 0.93049 0.0
C1017 C 0.96036 0.74291 0.94596 0.0
C1018 C 0.94984 0.73514 0.96712 0.0
C1019 C 0.95913 0.76788 0.90729 0.0
C1020 C 0.96875 0.74812 0.89303 0.0
C1021 C 0.95866 0.79374 0.89852 0.0
C1022 C 0.95054 0.81602 0.91301 0.0
C1023 C 0.96053 0.82021 0.93558 0.0
C1024 C 0.9526 0.84107 0.94922 0.0
C1025 C 0.93479 0.85798 0.94042 0.0
C1026 C 0.92492 0.85413 0.91791 0.0
C1027 C 0.93278 0.8333 0.90421 0.0
H1028 H 0.92866 0.87409 0.95102 0.0
H1029 H 0.01164 0.67462 0.81845 0.0
H1030 H 0.4832 0.69331 0.22044 0.0
H1031 H 0.4683 0.70643 0.18087 0.0
H1032 H 0.48659 0.63055 0.15446 0.0
H1033 H 0.5016 0.61759 0.19363 0.0
H1034 H 0.49846 0.66539 0.12333 0.0
H1035 H 0.42697 0.65088 0.16828 0.0
H1036 H 0.39993 0.65792 0.20176 0.0
H1037 H 0.39384 0.73877 0.18366 0.0
H1038 H 0.42113 0.73206 0.15031 0.0
H1039 H 0.43438 0.67062 0.01392 0.0
H1040 H 0.44927 0.65861 0.05373 0.0
H1041 H 0.42384 0.73224 0.08004 0.0
H1042 H 0.40709 0.74257 0.04102 0.0
H1043 H 0.4163 0.69985 0.11153 0.0
H1044 H 0.48567 0.71654 0.06655 0.0
H1045 H 0.51355 0.71177 0.0335 0.0
H1046 H 0.52518 0.6315 0.05156 0.0
H1047 H 0.49713 0.63571 0.08455 0.0
C1048 C 0.48409 0.67952 0.20613 0.0
C1049 C 0.49355 0.65442 0.21018 0.0
C1050 C 0.47541 0.68695 0.18354 0.0
C1051 C 0.47586 0.66934 0.16464 0.0
C1052 C 0.48585 0.64449 0.16866 0.0
C1053 C 0.49448 0.6371 0.19113 0.0
C1054 C 0.46603 0.6765 0.14063 0.0
C1055 C 0.48039 0.67267 0.12074 0.0
C1056 C 0.44273 0.68684 0.13713 0.0
C1057 C 0.4263 0.69095 0.15708 0.0
C1058 C 0.42001 0.67012 0.17165 0.0
C1059 C 0.40462 0.67407 0.19054 0.0
C1060 C 0.39523 0.69882 0.19489 0.0
C1061 C 0.40116 0.71962 0.1803 0.0
C1062 C 0.41659 0.71573 0.1614 0.0
C1063 C 0.432 0.68416 0.02827 0.0
C1064 C 0.4207 0.70836 0.02409 0.0
C1065 C 0.44072 0.67742 0.05101 0.0
C1066 C 0.43857 0.69489 0.06995 0.0
C1067 C 0.42632 0.71854 0.06583 0.0
C1068 C 0.41729 0.72494 0.04328 0.0
C1069 C 0.44869 0.68865 0.09409 0.0
C1070 C 0.4344 0.69266 0.11402 0.0
C1071 C 0.47223 0.67897 0.09766 0.0
C1072 C 0.48912 0.67638 0.07786 0.0
C1073 C 0.49405 0.69783 0.06337 0.0
C1074 C 0.5099 0.69523 0.04466 0.0
C1075 C 0.52108 0.67133 0.04039 0.0
C1076 C 0.51648 0.64999 0.05487 0.0
C1077 C 0.50062 0.65247 0.07358 0.0
H1078 H 0.53335 0.66936 0.0259 0.0
H1079 H 0.3833 0.70186 0.20952 0.0
H1080 H 0.14878 0.29483 0.3216 0.0
H1081 H 0.16164 0.3147 0.2844 0.0
H1082 H 0.20638 0.36577 0.32388 0.0
H1083 H 0.19361 0.34605 0.36105 0.0
H1084 H 0.17522 0.39108 0.29166 0.0
H1085 H 0.23091 0.3187 0.29341 0.0
H1086 H 0.2426 0.27241 0.29519 0.0
H1087 H 0.2034 0.25918 0.23086 0.0
H1088 H 0.1911 0.30531 0.22892 0.0
H1089 H 0.23771 0.4564 0.20755 0.0
H1090 H 0.22963 0.42602 0.23951 0.0
H1091 H 0.19269 0.37737 0.19028 0.0
H1092 H 0.2016 0.40769 0.1577 0.0
H1093 H 0.21702 0.34852 0.22512 0.0
H1094 H 0.16121 0.41933 0.22249 0.0
H1095 H 0.14802 0.46514 0.22002 0.0
H1096 H 0.1847 0.48045 0.2854 0.0
H1097 H 0.19842 0.4348 0.28807 0.0
C1098 C 0.16151 0.31016 0.3223 0.0
C1099 C 0.17014 0.31894 0.34424 0.0
C1100 C 0.16895 0.32135 0.30105 0.0
C1101 C 0.185 0.34166 0.30139 0.0
C1102 C 0.19402 0.35007 0.32324 0.0
C1103 C 0.18681 0.3387 0.34445 0.0
C1104 C 0.19108 0.35553 0.27921 0.0
C1105 C 0.18461 0.38183 0.27724 0.0
C1106 C 0.20244 0.34316 0.26 0.0
C1107 C 0.20985 0.31543 0.26117 0.0
C1108 C 0.22457 0.30588 0.27977 0.0
C1109 C 0.23135 0.27967 0.28079 0.0
C1110 C 0.22371 0.26286 0.26318 0.0
C1111 C 0.20928 0.27222 0.2445 0.0
C1112 C 0.20241 0.2984 0.24344 0.0
C1113 C 0.22816 0.43903 0.20342 0.0
C1114 C 0.21989 0.43456 0.18028 0.0
C1115 C 0.22353 0.42169 0.22172 0.0
C1116 C 0.20998 0.39979 0.21744 0.0
C1117 C 0.20301 0.39429 0.19401 0.0
C1118 C 0.20804 0.41157 0.17546 0.0
C1119 C 0.20168 0.38424 0.2379 0.0
C1120 C 0.20755 0.3577 0.23951 0.0
C1121 C 0.18942 0.39623 0.25678 0.0
C1122 C 0.18098 0.42367 0.25539 0.0
C1123 C 0.16659 0.4325 0.23627 0.0
C1124 C 0.159 0.45844 0.23484 0.0
C1125 C 0.16555 0.4757 0.25252 0.0
C1126 C 0.17965 0.46705 0.2717 0.0
C1127 C 0.18731 0.44114 0.2732 0.0
H1128 H 0.15967 0.49578 0.25138 0.0
H1129 H 0.22903 0.2426 0.26395 0.0
H1130 H 0.90207 0.86497 0.60804 0.0
H1131 H 0.88458 0.87903 0.57021 0.0
H1132 H 0.93272 0.94241 0.56707 0.0
H1133 H 0.95069 0.92819 0.60506 0.0
H1134 H 0.88709 0.95753 0.55334 0.0
H1135 H 0.94302 0.89176 0.53262 0.0
H1136 H 0.96395 0.84935 0.53534 0.0
H1137 H 0.89911 0.81108 0.51915 0.0
H1138 H 0.87769 0.85324 0.51668 0.0
H1139 H 0.83788 0.9762 0.43462 0.0
H1140 H 0.86819 0.96983 0.4662 0.0
H1141 H 0.83327 0.90094 0.48956 0.0
H1142 H 0.80353 0.90706 0.45821 0.0
H1143 H 0.8808 0.89328 0.48892 0.0
H1144 H 0.82451 0.95944 0.51682 0.0
H1145 H 0.80387 1.00199 0.51315 0.0
H1146 H 0.87077 0.03982 0.51445 0.0
H1147 H 0.8918 0.99744 0.51781 0.0
C1148 C 0.90921 0.88173 0.59925 0.0
C1149 C 0.92807 0.89519 0.60952 0.0
C1150 C 0.89909 0.88983 0.57762 0.0
C1151 C 0.90757 0.91155 0.56557 0.0
C1152 C 0.92594 0.92554 0.576 0.0
C1153 C 0.93615 0.9174 0.59774 0.0
C1154 C 0.89715 0.91913 0.54202 0.0
C1155 C 0.88615 0.94368 0.53906 0.0
C1156 C 0.89591 0.90114 0.5233 0.0
C1157 C 0.90872 0.87569 0.52459 0.0
C1158 C 0.93318 0.87429 0.52979 0.0
C1159 C 0.94514 0.8503 0.53127 0.0
C1160 C 0.93286 0.82754 0.52745 0.0
C1161 C 0.9086 0.82873 0.5221 0.0
C1162 C 0.89655 0.85268 0.52063 0.0
C1163 C 0.83703 0.95952 0.44629 0.0
C1164 C 0.81849 0.94204 0.44391 0.0
C1165 C 0.8542 0.95599 0.46441 0.0
C1166 C 0.85297 0.93491 0.48034 0.0
C1167 C 0.8347 0.91725 0.47749 0.0
C1168 C 0.81763 0.92084 0.45959 0.0
C1169 C 0.86989 0.93119 0.50065 0.0
C1170 C 0.88219 0.90734 0.503 0.0
C1171 C 0.87238 0.94986 0.51867 0.0
C1172 C 0.85972 0.9753 0.51733 0.0
C1173 C 0.8348 0.97684 0.51622 0.0
C1174 C 0.82304 1.00091 0.5142 0.0
C1175 C 0.836 0.02359 0.5135 0.0
C1176 C 0.86075 0.02224 0.51495 0.0
C1177 C 0.8726 0.9982 0.51693 0.0
H1178 H 0.82686 0.04221 0.51188 0.0
H1179 H 0.94214 0.80898 0.52861 0.0
H1180 H 0.27828 0.5525 0.67451 0.0
H1181 H 0.2856 0.58264 0.70699 0.0
H1182 H 0.36098 0.57328 0.69669 0.0
H1183 H 0.35354 0.54291 0.66446 0.0
H1184 H 0.34996 0.56374 0.74131 0.0
H1185 H 0.32998 0.63085 0.6844 0.0
H1186 H 0.30489 0.65346 0.65423 0.0
H1187 H 0.24981 0.66433 0.7052 0.0
H1188 H 0.27438 0.6413 0.73557 0.0
H1189 H 0.39359 0.65291 0.82251 0.0
H1190 H 0.38247 0.6316 0.78579 0.0
H1191 H 0.30851 0.6431 0.80202 0.0
H1192 H 0.31959 0.66464 0.83903 0.0
H1193 H 0.31649 0.65192 0.75497 0.0
H1194 H 0.33499 0.58457 0.81125 0.0
H1195 H 0.35886 0.56104 0.84183 0.0
H1196 H 0.41515 0.5496 0.79227 0.0
H1197 H 0.39174 0.5734 0.76148 0.0
C1198 C 0.29633 0.55773 0.67865 0.0
C1199 C 0.31537 0.54597 0.66675 0.0
C1200 C 0.30053 0.57484 0.69728 0.0
C1201 C 0.32387 0.58034 0.70431 0.0
C1202 C 0.34283 0.56939 0.6916 0.0
C1203 C 0.33861 0.55227 0.67306 0.0
C1204 C 0.3287 0.59518 0.72631 0.0
C1205 C 0.34294 0.58321 0.74407 0.0
C1206 C 0.31873 0.62015 0.73044 0.0
C1207 C 0.30396 0.63411 0.71221 0.0
C1208 C 0.31244 0.63784 0.68913 0.0
C1209 C 0.29831 0.65076 0.67199 0.0
C1210 C 0.27577 0.66029 0.67778 0.0
C1211 C 0.26729 0.65694 0.70074 0.0
C1212 C 0.2813 0.64393 0.71792 0.0
C1213 C 0.37493 0.65075 0.81843 0.0
C1214 C 0.35749 0.66012 0.83397 0.0
C1215 C 0.36859 0.63865 0.79733 0.0
C1216 C 0.34464 0.63534 0.79127 0.0
C1217 C 0.32711 0.64537 0.80633 0.0
C1218 C 0.33346 0.65765 0.82749 0.0
C1219 C 0.3382 0.62065 0.76961 0.0
C1220 C 0.32354 0.63251 0.75208 0.0
C1221 C 0.34759 0.59542 0.76567 0.0
C1222 C 0.36169 0.58097 0.78412 0.0
C1223 C 0.35253 0.57721 0.80692 0.0
C1224 C 0.36597 0.5638 0.82429 0.0
C1225 C 0.38853 0.55389 0.81901 0.0
C1226 C 0.39768 0.55731 0.79634 0.0
C1227 C 0.38432 0.57074 0.77892 0.0
H1228 H 0.3989 0.54351 0.83248 0.0
H1229 H 0.26489 0.67031 0.66449 0.0
H1230 H 0.63979 0.09766 0.11674 0.0
H1231 H 0.65552 0.08422 0.07878 0.0
H1232 H 0.58918 0.04905 0.06105 0.0
H1233 H 0.57352 0.0614 0.09979 0.0
H1234 H 0.62617 0.01861 0.04729 0.0
H1235 H 0.60341 0.10773 0.03687 0.0
H1236 H 0.6015 0.15404 0.04699 0.0
H1237 H 0.67717 0.15788 0.04163 0.0
H1238 H 0.67958 0.1115 0.03179 0.0
H1239 H 0.67003 1.00177 0.92886 0.0
H1240 H 0.64493 0.01342 0.96252 0.0
H1241 H 0.70089 0.06001 0.99085 0.0
H1242 H 0.72524 0.04965 0.95689 0.0
H1243 H 0.66242 0.08499 0.99615 0.0
H1244 H 0.68546 0.99457 0.01176 0.0
H1245 H 0.68749 0.94826 1.00149 0.0
H1246 H 0.61151 0.94698 0.99666 0.0
H1247 H 0.60905 0.99335 1.00672 0.0
C1248 C 0.62855 0.08672 0.10504 0.0
C1249 C 0.60531 0.08063 0.11155 0.0
C1250 C 0.63753 0.07931 0.0831 0.0
C1251 C 0.62346 0.06596 0.06678 0.0
C1252 C 0.60037 0.05945 0.07325 0.0
C1253 C 0.59136 0.06677 0.09535 0.0
C1254 C 0.63303 0.05919 0.043 0.0
C1255 C 0.63378 0.03318 0.03593 0.0
C1256 C 0.6431 0.07808 0.02811 0.0
C1257 C 0.64167 0.10609 0.03372 0.0
C1258 C 0.61966 0.11842 0.03797 0.0
C1259 C 0.61848 0.14468 0.04364 0.0
C1260 C 0.6392 0.15888 0.04498 0.0
C1261 C 0.66113 0.14686 0.04058 0.0
C1262 C 0.66241 0.12059 0.03492 0.0
C1263 C 0.67687 0.01459 0.94225 0.0
C1264 C 0.6996 0.02487 0.9401 0.0
C1265 C 0.66257 0.02111 0.96163 0.0
C1266 C 0.67102 0.03739 0.9796 0.0
C1267 C 0.69375 0.04757 0.97731 0.0
C1268 C 0.70774 0.04157 0.9578 0.0
C1269 C 0.6566 0.04421 1.00085 0.0
C1270 C 0.65472 0.07036 0.00739 0.0
C1271 C 0.6456 0.02541 0.01521 0.0
C1272 C 0.64709 0.99744 0.00978 0.0
C1273 C 0.6692 0.98441 0.00845 0.0
C1274 C 0.67042 0.95816 1.00267 0.0
C1275 C 0.64964 0.94471 0.99837 0.0
C1276 C 0.62759 0.95743 0.99997 0.0
C1277 C 0.62626 0.98368 1.00575 0.0
H1278 H 0.65063 0.92441 0.99383 0.0
H1279 H 0.63826 0.17921 0.0494 0.0
H1280 H 0.68255 0.19482 0.68166 0.0
H1281 H 0.69327 0.17657 0.7208 0.0
H1282 H 0.67785 0.10019 0.69564 0.0
H1283 H 0.66732 0.11815 0.6567 0.0
H1284 H 0.65791 0.1083 0.73743 0.0
H1285 H 0.73504 0.12178 0.70315 0.0
H1286 H 0.76655 0.14783 0.68571 0.0
H1287 H 0.76906 0.19425 0.74836 0.0
H1288 H 0.7373 0.16868 0.76604 0.0
H1289 H 0.71956 0.01381 0.80103 0.0
H1290 H 0.70965 0.04701 0.77157 0.0
H1291 H 0.71402 0.10581 0.82501 0.0
H1292 H 0.72378 0.07205 0.85525 0.0
H1293 H 0.7371 0.11553 0.77582 0.0
H1294 H 0.66328 0.09666 0.81205 0.0
H1295 H 0.63329 0.06819 0.82895 0.0
H1296 H 0.62549 0.03052 0.7619 0.0
H1297 H 0.65572 0.05849 0.74469 0.0
C1298 C 0.68167 0.17411 0.68442 0.0
C1299 C 0.67389 0.15799 0.66602 0.0
C1300 C 0.68777 0.16371 0.70683 0.0
C1301 C 0.68638 0.13697 0.71123 0.0
C1302 C 0.67887 0.1209 0.6928 0.0
C1303 C 0.67276 0.13123 0.67051 0.0
C1304 C 0.69224 0.12537 0.73497 0.0
C1305 C 0.67522 0.10998 0.7458 0.0
C1306 C 0.71455 0.12818 0.74643 0.0
C1307 C 0.73357 0.14357 0.73577 0.0
C1308 C 0.74215 0.13771 0.71311 0.0
C1309 C 0.76008 0.15235 0.7032 0.0
C1310 C 0.76973 0.17275 0.71588 0.0
C1311 C 0.76152 0.17849 0.73853 0.0
C1312 C 0.74355 0.16394 0.7485 0.0
C1313 C 0.71852 0.03377 0.80669 0.0
C1314 C 0.72224 0.04026 0.83057 0.0
C1315 C 0.71289 0.05275 0.78974 0.0
C1316 C 0.71093 0.07882 0.7961 0.0
C1317 C 0.71545 0.08573 0.81978 0.0
C1318 C 0.72095 0.0665 0.837 0.0
C1319 C 0.70299 0.09799 0.77769 0.0
C1320 C 0.71956 0.11461 0.76779 0.0
C1321 C 0.68028 0.09631 0.76695 0.0
C1322 C 0.66187 0.07962 0.77712 0.0
C1323 C 0.65529 0.08219 0.80095 0.0
C1324 C 0.63823 0.06616 0.81058 0.0
C1325 C 0.62751 0.04754 0.79651 0.0
C1326 C 0.6338 0.04496 0.77277 0.0
C1327 C 0.65088 0.06093 0.76306 0.0
H1328 H 0.61431 0.03514 0.804 0.0
H1329 H 0.78363 0.18405 0.70819 0.0
H1330 H 0.18013 0.49047 0.06414 0.0
H1331 H 0.1567 0.48217 0.02838 0.0
H1332 H 0.171 0.4002 0.03714 0.0
H1333 H 0.19477 0.40839 0.07258 0.0
H1334 H 0.18054 0.41547 0.99351 0.0
H1335 H 0.11506 0.42932 0.04719 0.0
H1336 H 0.09214 0.45452 0.07631 0.0
H1337 H 0.08183 0.51633 0.02551 0.0
H1338 H 0.1049 0.49157 0.99613 0.0
H1339 H 0.10414 0.35783 0.91334 0.0
H1340 H 0.12207 0.37341 0.94984 0.0
H1341 H 0.10495 0.45217 0.92871 0.0
H1342 H 0.08693 0.43664 0.89178 0.0
H1343 H 0.09728 0.44372 0.97651 0.0
H1344 H 0.16017 0.43021 0.92235 0.0
H1345 H 0.18403 0.40674 0.89283 0.0
H1346 H 0.20069 0.3468 0.94407 0.0
H1347 H 0.17662 0.36972 0.97382 0.0
C1348 C 0.17794 0.47065 0.05872 0.0
C1349 C 0.18941 0.45011 0.07123 0.0
C1350 C 0.16449 0.46592 0.03824 0.0
C1351 C 0.16201 0.44054 0.03005 0.0
C1352 C 0.17274 0.41997 0.04302 0.0
C1353 C 0.1863 0.42468 0.06335 0.0
C1354 C 0.14967 0.43529 1.00719 0.0
C1355 C 0.16223 0.42137 0.98997 0.0
C1356 C 0.12613 0.44402 1.00206 0.0
C1357 C 0.11188 0.45868 0.01954 0.0
C1358 C 0.108 0.44833 0.04227 0.0
C1359 C 0.09497 0.46253 0.05881 0.0
C1360 C 0.08557 0.48703 0.05277 0.0
C1361 C 0.08912 0.49735 0.03015 0.0
C1362 C 0.10214 0.48322 0.01354 0.0
C1363 C 0.10435 0.37851 0.91627 0.0
C1364 C 0.09455 0.39601 0.89935 0.0
C1365 C 0.11449 0.38738 0.93725 0.0
C1366 C 0.11524 0.41398 0.94183 0.0
C1367 C 0.10466 0.43156 0.92548 0.0
C1368 C 0.09441 0.42265 0.90439 0.0
C1369 C 0.12794 0.42308 0.96333 0.0
C1370 C 0.11559 0.43789 0.98012 0.0
C1371 C 0.15181 0.41541 0.96807 0.0
C1372 C 0.16643 0.4016 0.95027 0.0
C1373 C 0.16877 0.41193 0.92728 0.0
C1374 C 0.18236 0.39874 0.91051 0.0
C1375 C 0.19383 0.37527 0.91655 0.0
C1376 C 0.19178 0.36497 0.93941 0.0
C1377 C 0.17818 0.37807 0.95624 0.0
H1378 H 0.20434 0.36509 0.90354 0.0
H1379 H 0.07551 0.498 0.06561 0.0
H1380 H 0.77141 0.90776 0.32476 0.0
H1381 H 0.78162 0.88361 0.28926 0.0
H1382 H 0.85602 0.89339 0.30475 0.0
H1383 H 0.84572 0.91904 0.33952 0.0
H1384 H 0.84885 0.90368 0.2614 0.0
H1385 H 0.82385 0.83239 0.31069 0.0
H1386 H 0.79583 0.80985 0.33642 0.0
H1387 H 0.74403 0.81058 0.27991 0.0
H1388 H 0.77167 0.83334 0.25391 0.0
H1389 H 0.89519 0.81909 0.17615 0.0
H1390 H 0.88296 0.83663 0.21423 0.0
H1391 H 0.8097 0.83492 0.19157 0.0
H1392 H 0.82184 0.81732 0.15328 0.0
H1393 H 0.81512 0.81983 0.23795 0.0
H1394 H 0.83879 0.89075 0.18918 0.0
H1395 H 0.86538 0.91464 0.16298 0.0
H1396 H 0.9183 0.9157 0.21837 0.0
H1397 H 0.89215 0.89146 0.24481 0.0
C1398 C 0.78996 0.9044 0.3208 0.0
C1399 C 0.80779 0.91522 0.33496 0.0
C1400 C 0.79581 0.89043 0.30051 0.0
C1401 C 0.81966 0.8862 0.29437 0.0
C1402 C 0.83749 0.89634 0.309 0.0
C1403 C 0.83162 0.91091 0.32895 0.0
C1404 C 0.82606 0.87285 0.27192 0.0
C1405 C 0.8418 0.88508 0.2566 0.0
C1406 C 0.81615 0.84906 0.26499 0.0
C1407 C 0.79978 0.83474 0.28042 0.0
C1408 C 0.80646 0.82781 0.30378 0.0
C1409 C 0.79065 0.81499 0.31841 0.0
C1410 C 0.76814 0.80885 0.30982 0.0
C1411 C 0.76146 0.81536 0.28654 0.0
C1412 C 0.77721 0.82817 0.27184 0.0
C1413 C 0.87646 0.82247 0.17922 0.0
C1414 C 0.85951 0.81712 0.16153 0.0
C1415 C 0.86949 0.83243 0.20104 0.0
C1416 C 0.84543 0.83749 0.20563 0.0
C1417 C 0.82837 0.8312 0.18841 0.0
C1418 C 0.83533 0.82113 0.16654 0.0
C1419 C 0.83831 0.85042 0.22796 0.0
C1420 C 0.82232 0.83827 0.24304 0.0
C1421 C 0.84787 0.87435 0.23471 0.0
C1422 C 0.86359 0.88907 0.21889 0.0
C1423 C 0.85617 0.8959 0.19571 0.0
C1424 C 0.87115 0.90954 0.18083 0.0
C1425 C 0.89354 0.91663 0.18898 0.0
C1426 C 0.90097 0.91016 0.21207 0.0
C1427 C 0.88606 0.89649 0.22702 0.0
H1428 H 0.90511 0.92718 0.17743 0.0
H1429 H 0.7559 0.79901 0.3212 0.0
H1430 H 0.36103 0.49255 0.56636 0.0
H1431 H 0.38415 0.50077 0.5307 0.0
H1432 H 0.33584 0.56354 0.51098 0.0
H1433 H 0.31273 0.55558 0.5464 0.0
H1434 H 0.34498 0.53071 0.47376 0.0
H1435 H 0.38974 0.57593 0.53383 0.0
H1436 H 0.41217 0.57888 0.5715 0.0
H1437 H 0.46224 0.52118 0.54765 0.0
H1438 H 0.43992 0.51768 0.50993 0.0
H1439 H 0.40227 0.60412 0.3878 0.0
H1440 H 0.38289 0.58713 0.42272 0.0
H1441 H 0.44194 0.53392 0.43536 0.0
H1442 H 0.462 0.55166 0.40074 0.0
H1443 H 0.42933 0.55558 0.47575 0.0
H1444 H 0.38789 0.51277 0.41456 0.0
H1445 H 0.36581 0.50807 0.37689 0.0
H1446 H 0.30986 0.55778 0.40245 0.0
H1447 H 0.33176 0.5631 0.44016 0.0
C1448 C 0.35539 0.50822 0.55452 0.0
C1449 C 0.33499 0.52343 0.55936 0.0
C1450 C 0.36867 0.51291 0.53414 0.0
C1451 C 0.36175 0.53281 0.51815 0.0
C1452 C 0.34149 0.54804 0.523 0.0
C1453 C 0.32835 0.54352 0.54339 0.0
C1454 C 0.37528 0.53777 0.49613 0.0
C1455 C 0.36337 0.53635 0.47419 0.0
C1456 C 0.39954 0.54412 0.4966 0.0
C1457 C 0.41303 0.54635 0.51918 0.0
C1458 C 0.40544 0.56373 0.5367 0.0
C1459 C 0.41815 0.56553 0.55804 0.0
C1460 C 0.43858 0.55017 0.56199 0.0
C1461 C 0.44639 0.53304 0.54458 0.0
C1462 C 0.43373 0.53116 0.52321 0.0
C1463 C 0.41124 0.58885 0.39799 0.0
C1464 C 0.43382 0.57943 0.39145 0.0
C1465 C 0.39998 0.57891 0.41788 0.0
C1466 C 0.41077 0.55899 0.43164 0.0
C1467 C 0.43319 0.54923 0.42503 0.0
C1468 C 0.44455 0.55925 0.40508 0.0
C1469 C 0.39884 0.5492 0.45331 0.0
C1470 C 0.41102 0.54964 0.4752 0.0
C1471 C 0.37486 0.54163 0.45279 0.0
C1472 C 0.36157 0.53848 0.43014 0.0
C1473 C 0.37096 0.52286 0.41209 0.0
C1474 C 0.35846 0.52006 0.39074 0.0
C1475 C 0.33647 0.53266 0.38726 0.0
C1476 C 0.32691 0.54804 0.40516 0.0
C1477 C 0.33934 0.55093 0.42654 0.0
H1478 H 0.32682 0.53046 0.37072 0.0
H1479 H 0.4484 0.55159 0.57853 0.0
H1480 H 0.19845 0.23556 0.40651 0.0
H1481 H 0.2351 0.22842 0.38422 0.0
H1482 H 0.25161 0.16031 0.4266 0.0
H1483 H 0.21522 0.16704 0.44868 0.0
H1484 H 0.28934 0.19446 0.42361 0.0
H1485 H 0.23232 0.15414 0.37049 0.0
H1486 H 0.19632 0.15484 0.34514 0.0
H1487 H 0.22438 0.2163 0.30305 0.0
H1488 H 0.26047 0.2161 0.32829 0.0
H1489 H 0.3816 0.12607 0.36962 0.0
H1490 H 0.34488 0.14164 0.38695 0.0
H1491 H 0.33349 0.19465 0.32812 0.0
H1492 H 0.36957 0.17764 0.30961 0.0
H1493 H 0.29343 0.17543 0.33776 0.0
H1494 H 0.35106 0.21476 0.38597 0.0
H1495 H 0.38702 0.21836 0.41092 0.0
H1496 H 0.35848 0.16595 0.46202 0.0
H1497 H 0.32247 0.16173 0.43721 0.0
C1498 C 0.20973 0.21887 0.4109 0.0
C1499 C 0.20375 0.20187 0.42944 0.0
C1500 C 0.2307 0.21484 0.39813 0.0
C1501 C 0.24618 0.19384 0.40376 0.0
C1502 C 0.24004 0.17669 0.42197 0.0
C1503 C 0.21907 0.18054 0.43453 0.0
C1504 C 0.26917 0.18985 0.39137 0.0
C1505 C 0.29025 0.19009 0.40487 0.0
C1506 C 0.2705 0.18539 0.36671 0.0
C1507 C 0.24897 0.18527 0.3514 0.0
C1508 C 0.23074 0.16791 0.35592 0.0
C1509 C 0.21034 0.16818 0.34154 0.0
C1510 C 0.20805 0.18564 0.32252 0.0
C1511 C 0.22618 0.20279 0.31778 0.0
C1512 C 0.24662 0.20258 0.33209 0.0
C1513 C 0.37128 0.14086 0.36011 0.0
C1514 C 0.37871 0.15035 0.33799 0.0
C1515 C 0.35032 0.15013 0.37033 0.0
C1516 C 0.33639 0.16975 0.35916 0.0
C1517 C 0.34386 0.17959 0.33723 0.0
C1518 C 0.36474 0.17002 0.32677 0.0
C1519 C 0.31376 0.17915 0.37017 0.0
C1520 C 0.29271 0.18006 0.35645 0.0
C1521 C 0.31249 0.18534 0.39458 0.0
C1522 C 0.33412 0.18779 0.40962 0.0
C1523 C 0.35252 0.20386 0.40244 0.0
C1524 C 0.3729 0.20603 0.41658 0.0
C1525 C 0.37505 0.19236 0.43802 0.0
C1526 C 0.35679 0.17652 0.4454 0.0
C1527 C 0.33637 0.17426 0.43132 0.0
H1528 H 0.39085 0.19407 0.44894 0.0
H1529 H 0.19223 0.18584 0.31143 0.0
H1530 H 0.08499 0.07787 0.55529 0.0
H1531 H 0.06821 0.04356 0.57958 0.0
H1532 H 0.119 0.05862 0.63528 0.0
H1533 H 0.13573 0.09299 0.61123 0.0
H1534 H 0.11822 0.00779 0.62468 0.0
H1535 H 0.06071 0.07579 0.64063 0.0
H1536 H 0.0309 0.10975 0.62982 0.0
H1537 H 0.98813 0.05328 0.59544 0.0
H1538 H 0.01786 0.01903 0.60576 0.0
H1539 H 0.07639 0.93308 0.71884 0.0
H1540 H 0.08786 0.96875 0.69329 0.0
H1541 H 0.03211 0.95058 0.64354 0.0
H1542 H 0.02002 0.9151 0.66943 0.0
H1543 H 0.03427 1.00157 0.64864 0.0
H1544 H 0.09052 0.9335 0.63296 0.0
H1545 H 0.12019 0.89906 0.64277 0.0
H1546 H 0.16528 0.9549 0.67494 0.0
H1547 H 0.13572 0.98964 0.66562 0.0
C1548 C 0.09231 0.07421 0.57287 0.0
C1549 C 0.11187 0.08804 0.58121 0.0
C1550 C 0.08272 0.05454 0.58673 0.0
C1551 C 0.09238 0.04848 0.60925 0.0
C1552 C 0.11138 0.06282 0.61789 0.0
C1553 C 0.12096 0.08243 0.60408 0.0
C1554 C 0.08363 0.02638 0.62341 0.0
C1555 C 0.09992 0.00661 0.63017 0.0
C1556 C 0.05958 0.02434 0.62984 0.0
C1557 C 0.04163 0.04489 0.62375 0.0
C1558 C 0.04504 0.07065 0.6306 0.0
C1559 C 0.02814 0.08994 0.62459 0.0
C1560 C 1.00766 0.08369 0.61189 0.0
C1561 C 1.00401 0.0581 0.60524 0.0
C1562 C 0.02087 0.03874 0.61118 0.0
C1563 C 0.06655 0.93654 0.70245 0.0
C1564 C 0.0474 0.921 0.69611 0.0
C1565 C 0.0732 0.95697 0.6878 0.0
C1566 C 0.06114 0.9621 0.66625 0.0
C1567 C 0.04175 0.94693 0.66002 0.0
C1568 C 0.03492 0.92658 0.67481 0.0
C1569 C 0.06899 0.98323 0.6503 0.0
C1570 C 0.05255 1.00273 0.6431 0.0
C1571 C 0.0929 0.98496 0.64327 0.0
C1572 C 0.11081 0.96414 0.64876 0.0
C1573 C 0.10669 0.93841 0.64227 0.0
C1574 C 0.1235 0.91884 0.64772 0.0
C1575 C 0.14458 0.92478 0.65951 0.0
C1576 C 0.14893 0.95032 0.66582 0.0
C1577 C 0.13217 0.96997 0.66043 0.0
H1578 H 0.15757 0.9096 0.66372 0.0
H1579 H 0.9946 0.09865 0.60726 0.0
H1580 H 0.17212 0.78614 0.82122 0.0
H1581 H 0.20958 0.77575 0.84201 0.0
H1582 H 0.20491 0.84875 0.87823 0.0
H1583 H 0.16782 0.85948 0.85708 0.0
H1584 H 0.24895 0.8399 0.86142 0.0
H1585 H 0.1922 0.79174 0.90617 0.0
H1586 H 0.16066 0.76009 0.91146 0.0
H1587 H 0.20661 0.69967 0.8853 0.0
H1588 H 0.23833 0.73106 0.87955 0.0
H1589 H 0.32624 0.82488 0.9595 0.0
H1590 H 0.2928 0.83038 0.9319 0.0
H1591 H 0.30753 0.75449 0.90363 0.0
H1592 H 0.34092 0.74871 0.93185 0.0
H1593 H 0.26073 0.76154 0.91215 0.0
H1594 H 0.3188 0.80857 0.87087 0.0
H1595 H 0.35055 0.83994 0.86564 0.0
H1596 H 0.30269 0.90204 0.88451 0.0
H1597 H 0.27072 0.87099 0.8902 0.0
C1598 C 0.17908 0.80001 0.83353 0.0
C1599 C 0.16682 0.82361 0.83748 0.0
C1600 C 0.20046 0.79397 0.84556 0.0
C1601 C 0.21007 0.81139 0.86185 0.0
C1602 C 0.19789 0.83496 0.86579 0.0
C1603 C 0.17651 0.84095 0.85384 0.0
C1604 C 0.23291 0.80536 0.87464 0.0
C1605 C 0.25144 0.82287 0.87268 0.0
C1606 C 0.23656 0.78268 0.88867 0.0
C1607 C 0.21753 0.7638 0.89217 0.0
C1608 C 0.1955 0.77175 0.90135 0.0
C1609 C 0.17761 0.75385 0.90447 0.0
C1610 C 0.1816 0.7279 0.89865 0.0
C1611 C 0.20352 0.71978 0.88976 0.0
C1612 C 0.22147 0.73761 0.88658 0.0
C1613 C 0.32257 0.80948 0.94719 0.0
C1614 C 0.33645 0.78653 0.94757 0.0
C1615 C 0.30346 0.81268 0.93133 0.0
C1616 C 0.29775 0.79302 0.91538 0.0
C1617 C 0.31167 0.77003 0.91562 0.0
C1618 C 0.33093 0.76684 0.93154 0.0
C1619 C 0.27659 0.79638 0.89935 0.0
C1620 C 0.25838 0.7784 0.90067 0.0
C1621 C 0.27325 0.81859 0.88463 0.0
C1622 C 0.29239 0.8374 0.88112 0.0
C1623 C 0.31508 0.82889 0.87407 0.0
C1624 C 0.33312 0.84662 0.871 0.0
C1625 C 0.32865 0.87296 0.87478 0.0
C1626 C 0.30613 0.88163 0.88159 0.0
C1627 C 0.28803 0.86397 0.88471 0.0
H1628 H 0.34264 0.88666 0.87239 0.0
H1629 H 0.16773 0.71407 0.90108 0.0
H1630 H 0.52414 0.04803 0.18111 0.0
H1631 H 0.50996 0.01381 0.15514 0.0
H1632 H 0.44122 0.01916 0.18757 0.0
H1633 H 0.4554 0.05258 0.21395 0.0
H1634 H 0.45391 0.97071 0.18348 0.0
H1635 H 0.45338 0.04525 0.13056 0.0
H1636 H 0.47194 0.08215 0.11065 0.0
H1637 H 0.52253 0.03038 0.07855 0.0
H1638 H 0.50438 0.99319 0.09845 0.0
H1639 H 0.38499 0.90005 0.10353 0.0
H1640 H 0.40137 0.93601 0.1258 0.0
H1641 H 0.46844 0.9246 0.09113 0.0
H1642 H 0.45206 0.88883 0.0686 0.0
H1643 H 0.45893 0.97504 0.09581 0.0
H1644 H 0.45942 0.90069 0.14718 0.0
H1645 H 0.44235 0.86333 0.16774 0.0
H1646 H 0.39356 0.91414 0.2035 0.0
H1647 H 0.41012 0.95179 0.18288 0.0
C1648 C 0.50599 0.04194 0.18265 0.0
C1649 C 0.49094 0.05303 0.19966 0.0
C1650 C 0.49786 0.02245 0.16771 0.0
C1651 C 0.4744 0.01403 0.16919 0.0
C1652 C 0.45939 0.02522 0.18609 0.0
C1653 C 0.46755 0.0444 0.20117 0.0
C1654 C 0.46539 0.99322 0.15362 0.0
C1655 C 0.45474 0.97187 0.16429 0.0
C1656 C 0.46714 0.99421 0.12859 0.0
C1657 C 0.47765 0.01647 0.11614 0.0
C1658 C 0.46851 0.04175 0.11932 0.0
C1659 C 0.47895 0.06272 0.10803 0.0
C1660 C 0.49844 0.05862 0.09339 0.0
C1661 C 0.50744 0.03353 0.0899 0.0
C1662 C 0.49706 0.0125 0.10115 0.0
C1663 C 0.40319 0.90529 0.10058 0.0
C1664 C 0.41725 0.89147 0.0844 0.0
C1665 C 0.41256 0.92583 0.11333 0.0
C1666 C 0.4363 0.93274 0.11048 0.0
C1667 C 0.4501 0.91963 0.09367 0.0
C1668 C 0.44068 0.89921 0.08076 0.0
C1669 C 0.44696 0.95288 0.12571 0.0
C1670 C 0.45805 0.97395 0.11499 0.0
C1671 C 0.44574 0.95162 0.15075 0.0
C1672 C 0.43587 0.92903 0.16332 0.0
C1673 C 0.44494 0.90388 0.15931 0.0
C1674 C 0.43537 0.88265 0.17098 0.0
C1675 C 0.41684 0.88635 0.18687 0.0
C1676 C 0.40789 0.9113 0.19116 0.0
C1677 C 0.41738 0.93259 0.1795 0.0
H1678 H 0.40945 0.8699 0.1959 0.0
H1679 H 0.50654 0.07488 0.08472 0.0
H1680 H 0.87108 0.31566 0.69961 0.0
H1681 H 0.83175 0.3021 0.68658 0.0
H1682 H 0.82914 0.36356 0.63422 0.0
H1683 H 0.8679 0.37779 0.6477 0.0
H1684 H 0.78745 0.35991 0.65589 0.0
H1685 H 0.84421 0.30011 0.62016 0.0
H1686 H 0.8767 0.26725 0.62116 0.0
H1687 H 0.83469 0.21733 0.66395 0.0
H1688 H 0.80206 0.25006 0.66343 0.0
H1689 H 0.70947 0.32415 0.56562 0.0
H1690 H 0.7426 0.33536 0.59111 0.0
H1691 H 0.73184 0.26726 0.63408 0.0
H1692 H 0.69866 0.25552 0.60818 0.0
H1693 H 0.77734 0.27154 0.62436 0.0
H1694 H 0.71829 0.32851 0.65509 0.0
H1695 H 0.68553 0.36099 0.65379 0.0
H1696 H 0.73105 0.416 0.62129 0.0
H1697 H 0.764 0.38374 0.62207 0.0
C1698 C 0.86199 0.32649 0.68553 0.0
C1699 C 0.87274 0.34771 0.67458 0.0
C1700 C 0.8396 0.31857 0.67796 0.0
C1701 C 0.82761 0.33163 0.65923 0.0
C1702 C 0.83807 0.35314 0.64867 0.0
C1703 C 0.86036 0.36109 0.65623 0.0
C1704 C 0.80439 0.32277 0.65008 0.0
C1705 C 0.78525 0.34063 0.64889 0.0
C1706 C 0.80124 0.29731 0.64177 0.0
C1707 C 0.82083 0.27764 0.642 0.0
C1708 C 0.84198 0.2822 0.62993 0.0
C1709 C 0.8604 0.26359 0.63039 0.0
C1710 C 0.85779 0.24025 0.64268 0.0
C1711 C 0.83671 0.23544 0.65448 0.0
C1712 C 0.81825 0.254 0.6541 0.0
C1713 C 0.71387 0.31162 0.58062 0.0
C1714 C 0.70133 0.28887 0.5848 0.0
C1715 C 0.73283 0.31817 0.5953 0.0
C1716 C 0.73954 0.30238 0.61476 0.0
C1717 C 0.72693 0.27979 0.61922 0.0
C1718 C 0.70795 0.27311 0.6044 0.0
C1719 C 0.76058 0.30897 0.62945 0.0
C1720 C 0.77932 0.29068 0.63174 0.0
C1721 C 0.76333 0.33403 0.63887 0.0
C1722 C 0.7436 0.35362 0.63853 0.0
C1723 C 0.72128 0.34748 0.64753 0.0
C1724 C 0.70268 0.36586 0.6469 0.0
C1725 C 0.70619 0.39053 0.63744 0.0
C1726 C 0.72835 0.39688 0.62862 0.0
C1727 C 0.74701 0.37856 0.62919 0.0
H1728 H 0.69176 0.40473 0.63696 0.0
H1729 H 0.87207 0.22587 0.64301 0.0
H1730 H 0.02024 0.42419 0.8109 0.0
H1731 H 0.01056 0.45503 0.84246 0.0
H1732 H 0.936 0.44391 0.82923 0.0
H1733 H 0.94579 0.41308 0.79784 0.0
H1734 H 0.94729 0.49441 0.82739 0.0
H1735 H 0.96405 0.42171 0.87982 0.0
H1736 H 0.98849 0.38606 0.89738 0.0
H1737 H 0.04039 0.44017 0.92022 0.0
H1738 H 0.01649 0.47613 0.90234 0.0
H1739 H 0.89203 0.56381 0.91745 0.0
H1740 H 0.90716 0.529 0.89258 0.0
H1741 H 0.97874 0.54604 0.91395 0.0
H1742 H 0.96357 0.58115 0.93907 0.0
H1743 H 0.97267 0.49398 0.91193 0.0
H1744 H 0.95819 0.56602 0.86038 0.0
H1745 H 0.93577 0.60295 0.84239 0.0
H1746 H 0.88267 0.55162 0.81691 0.0
H1747 H 0.9046 0.51439 0.83506 0.0
C1748 C 1.00185 0.42772 0.81541 0.0
C1749 C 0.98372 0.41595 0.80247 0.0
C1750 C 0.99631 0.44541 0.83332 0.0
C1751 C 0.97253 0.45176 0.83831 0.0
C1752 C 0.95446 0.43929 0.82576 0.0
C1753 C 0.96002 0.42157 0.80798 0.0
C1754 C 0.96628 0.47304 0.8549 0.0
C1755 C 0.95258 0.49409 0.84596 0.0
C1756 C 0.97413 0.47328 0.87887 0.0
C1757 C 0.98857 0.45161 0.8895 0.0
C1758 C 0.98079 0.426 0.88836 0.0
C1759 C 0.99452 0.40573 0.89843 0.0
C1760 C 0.01596 0.41085 0.90993 0.0
C1761 C 0.02374 0.43625 0.91136 0.0
C1762 C 0.01013 0.45658 0.90122 0.0
C1763 C 0.91102 0.56034 0.91676 0.0
C1764 C 0.92661 0.57557 0.93001 0.0
C1765 C 0.91966 0.54033 0.90258 0.0
C1766 C 0.94413 0.53512 0.90104 0.0
C1767 C 0.95978 0.54972 0.91479 0.0
C1768 C 0.9511 0.56978 0.92914 0.0
C1769 C 0.95309 0.51488 0.88452 0.0
C1770 C 0.96743 0.49424 0.89336 0.0
C1771 C 0.94619 0.5151 0.86028 0.0
C1772 C 0.93294 0.53743 0.84927 0.0
C1773 C 0.94164 0.56262 0.8511 0.0
C1774 C 0.92903 0.58361 0.84085 0.0
C1775 C 0.90778 0.57964 0.82856 0.0
C1776 C 0.89912 0.55466 0.82646 0.0
C1777 C 0.91164 0.5336 0.8367 0.0
H1778 H 0.89805 0.59592 0.82063 0.0
H1779 H 0.02659 0.39514 0.91768 0.0
H1780 H 0.8352 0.65185 0.07134 0.0
H1781 H 0.79998 0.64029 0.09336 0.0
H1782 H 0.78556 0.72095 0.10778 0.0
H1783 H 0.82126 0.73256 0.08643 0.0
H1784 H 0.77441 0.69363 0.14494 0.0
H1785 H 0.75657 0.68852 0.06229 0.0
H1786 H 0.76209 0.67497 0.02091 0.0
H1787 H 0.75527 0.5954 0.04177 0.0
H1788 H 0.75004 0.60845 0.08336 0.0
H1789 H 0.65124 0.67567 0.17008 0.0
H1790 H 0.68878 0.68932 0.15335 0.0
H1791 H 0.70952 0.60946 0.14255 0.0
H1792 H 0.67216 0.59569 0.15933 0.0
H1793 H 0.71676 0.63825 0.10354 0.0
H1794 H 0.73389 0.64599 0.18756 0.0
H1795 H 0.72635 0.66222 0.22779 0.0
H1796 H 0.73182 0.74049 0.20258 0.0
H1797 H 0.73912 0.72472 0.16212 0.0
C1798 C 0.82469 0.66712 0.07942 0.0
C1799 C 0.831 0.69315 0.077 0.0
C1800 C 0.80444 0.6605 0.09191 0.0
C1801 C 0.78971 0.67978 0.10179 0.0
C1802 C 0.79653 0.7057 0.10027 0.0
C1803 C 0.817 0.71232 0.08805 0.0
C1804 C 0.76678 0.67295 0.11284 0.0
C1805 C 0.7617 0.68175 0.13576 0.0
C1806 C 0.75011 0.65739 0.10099 0.0
C1807 C 0.75314 0.64945 0.07598 0.0
C1808 C 0.75641 0.66812 0.05808 0.0
C1809 C 0.75947 0.66053 0.03458 0.0
C1810 C 0.75909 0.63434 0.02872 0.0
C1811 C 0.7556 0.61568 0.04634 0.0
C1812 C 0.75257 0.62316 0.06988 0.0
C1813 C 0.66393 0.66099 0.16445 0.0
C1814 C 0.65861 0.63456 0.166 0.0
C1815 C 0.6854 0.66884 0.15486 0.0
C1816 C 0.70209 0.65042 0.14681 0.0
C1817 C 0.69691 0.62405 0.14856 0.0
C1818 C 0.67548 0.6162 0.15808 0.0
C1819 C 0.72461 0.65848 0.13577 0.0
C1820 C 0.72953 0.65004 0.11274 0.0
C1821 C 0.74086 0.67473 0.14738 0.0
C1822 C 0.73684 0.68417 0.17177 0.0
C1823 C 0.73335 0.66666 0.19057 0.0
C1824 C 0.72914 0.67578 0.21342 0.0
C1825 C 0.72854 0.70237 0.21773 0.0
C1826 C 0.73226 0.7199 0.19921 0.0
C1827 C 0.73647 0.71088 0.17633 0.0
H1828 H 0.72524 0.7094 0.23542 0.0
H1829 H 0.76146 0.6285 0.01052 0.0
H1830 H 0.57653 0.38732 0.4242 0.0
H1831 H 0.55925 0.42168 0.39858 0.0
H1832 H 0.6089 0.4757 0.42714 0.0
H1833 H 0.62596 0.44163 0.453 0.0
H1834 H 0.56423 0.49848 0.41956 0.0
H1835 H 0.62126 0.44638 0.3767 0.0
H1836 H 0.6383 0.40553 0.3614 0.0
H1837 H 0.5735 0.39178 0.32328 0.0
H1838 H 0.55596 0.4324 0.33864 0.0
H1839 H 0.56747 0.59104 0.32326 0.0
H1840 H 0.57355 0.56096 0.35695 0.0
H1841 H 0.53269 0.50382 0.32022 0.0
H1842 H 0.52798 0.53317 0.28628 0.0
H1843 H 0.57112 0.48245 0.3334 0.0
H1844 H 0.51477 0.53727 0.37356 0.0
H1845 H 0.49836 0.57839 0.38898 0.0
H1846 H 0.56081 0.58757 0.43198 0.0
H1847 H 0.57787 0.54679 0.41658 0.0
C1848 C 0.58346 0.40663 0.42533 0.0
C1849 C 0.60282 0.41165 0.4404 0.0
C1850 C 0.57364 0.42622 0.41062 0.0
C1851 C 0.58296 0.45122 0.41076 0.0
C1852 C 0.60144 0.45659 0.42669 0.0
C1853 C 0.61133 0.43701 0.44128 0.0
C1854 C 0.57489 0.47112 0.39298 0.0
C1855 C 0.56576 0.4951 0.40069 0.0
C1856 C 0.57664 0.46659 0.36839 0.0
C1857 C 0.58722 0.44227 0.35902 0.0
C1858 C 0.61059 0.43454 0.3652 0.0
C1859 C 0.62035 0.41145 0.3565 0.0
C1860 C 0.60697 0.39603 0.34144 0.0
C1861 C 0.58383 0.40371 0.33499 0.0
C1862 C 0.57397 0.42677 0.34367 0.0
C1863 C 0.55942 0.57225 0.32274 0.0
C1864 C 0.54745 0.56424 0.30223 0.0
C1865 C 0.5628 0.55505 0.34201 0.0
C1866 C 0.55361 0.52994 0.34124 0.0
C1867 C 0.54021 0.52287 0.32126 0.0
C1868 C 0.53743 0.53969 0.30189 0.0
C1869 C 0.55991 0.50999 0.35977 0.0
C1870 C 0.56905 0.48592 0.35221 0.0
C1871 C 0.55803 0.51454 0.38443 0.0
C1872 C 0.5477 0.53903 0.39375 0.0
C1873 C 0.5251 0.54813 0.38617 0.0
C1874 C 0.51566 0.57137 0.39492 0.0
C1875 C 0.52852 0.58556 0.41139 0.0
C1876 C 0.55086 0.57656 0.4192 0.0
C1877 C 0.56043 0.55338 0.41048 0.0
H1878 H 0.52115 0.60353 0.41813 0.0
H1879 H 0.61455 0.37816 0.33471 0.0
H1880 H 0.32123 0.32066 0.20137 0.0
H1881 H 0.34672 0.28518 0.21696 0.0
H1882 H 0.38196 0.28026 0.14975 0.0
H1883 H 0.35616 0.31504 0.13386 0.0
H1884 H 0.37375 0.23283 0.1666 0.0
H1885 H 0.4066 0.31167 0.19671 0.0
H1886 H 0.40548 0.35292 0.21833 0.0
H1887 H 0.38763 0.31265 0.28233 0.0
H1888 H 0.38833 0.27118 0.26098 0.0
H1889 H 0.49648 0.20257 0.2205 0.0
H1890 H 0.46283 0.232 0.21312 0.0
H1891 H 0.41509 0.16848 0.21992 0.0
H1892 H 0.44919 0.13854 0.22695 0.0
H1893 H 0.42537 0.24734 0.23686 0.0
H1894 H 0.36826 0.18073 0.18057 0.0
H1895 H 0.37241 0.14141 0.15631 0.0
H1896 H 0.4441 0.16058 0.14035 0.0
H1897 H 0.44026 0.20014 0.16427 0.0
C1898 C 0.33428 0.31188 0.18985 0.0
C1899 C 0.33676 0.3209 0.1664 0.0
C1900 C 0.34892 0.29168 0.19883 0.0
C1901 C 0.36638 0.28012 0.18458 0.0
C1902 C 0.36862 0.28882 0.16109 0.0
C1903 C 0.35404 0.30898 0.15212 0.0
C1904 C 0.38291 0.25953 0.19415 0.0
C1905 C 0.38486 0.23592 0.18211 0.0
C1906 C 0.39754 0.26351 0.21432 0.0
C1907 C 0.39723 0.28839 0.22719 0.0
C1908 C 0.40226 0.31164 0.21535 0.0
C1909 C 0.40173 0.33506 0.22756 0.0
C1910 C 0.39641 0.33542 0.25167 0.0
C1911 C 0.39169 0.31235 0.26364 0.0
C1912 C 0.39216 0.28889 0.2515 0.0
C1913 C 0.47883 0.1948 0.22056 0.0
C1914 C 0.47548 0.1682 0.22404 0.0
C1915 C 0.45955 0.21173 0.21648 0.0
C1916 C 0.43638 0.20252 0.21576 0.0
C1917 C 0.43283 0.17602 0.22012 0.0
C1918 C 0.45227 0.15894 0.22419 0.0
C1919 C 0.41649 0.22078 0.2091 0.0
C1920 C 0.41386 0.24398 0.22169 0.0
C1921 C 0.40161 0.21666 0.18914 0.0
C1922 C 0.40404 0.19317 0.17443 0.0
C1923 C 0.38487 0.17655 0.17183 0.0
C1924 C 0.38718 0.15424 0.15815 0.0
C1925 C 0.40854 0.14845 0.14688 0.0
C1926 C 0.4276 0.16503 0.14916 0.0
C1927 C 0.42538 0.18738 0.16279 0.0
H1928 H 0.4103 0.13114 0.13632 0.0
H1929 H 0.396 0.35357 0.26109 0.0
H1930 H 0.93237 0.31787 0.75393 0.0
H1931 H 0.9055 0.28271 0.76334 0.0
H1932 H 0.95867 0.24807 0.81013 0.0
H1933 H 0.98546 0.28304 0.80104 0.0
H1934 H 0.93731 0.21217 0.78033 0.0
H1935 H 0.91419 0.28156 0.83306 0.0
H1936 H 0.90063 0.32604 0.84219 0.0
H1937 H 0.83754 0.31596 0.80019 0.0
H1938 H 0.8509 0.2715 0.79054 0.0
H1939 H 0.87753 0.12663 0.85505 0.0
H1940 H 0.9005 0.16082 0.83715 0.0
H1941 H 0.83739 0.19169 0.80203 0.0
H1942 H 0.81401 0.15803 0.82075 0.0
H1943 H 0.8612 0.22979 0.82085 0.0
H1944 H 0.88147 0.15946 0.771 0.0
H1945 H 0.89449 0.11514 0.76068 0.0
H1946 H 0.96189 0.12675 0.79468 0.0
H1947 H 0.94917 0.17104 0.80552 0.0
C1948 C 0.93835 0.30276 0.76621 0.0
C1949 C 0.96106 0.3034 0.77683 0.0
C1950 C 0.92295 0.2827 0.77159 0.0
C1951 C 0.93004 0.26279 0.78752 0.0
C1952 C 0.95282 0.26318 0.79778 0.0
C1953 C 0.96808 0.28332 0.79264 0.0
C1954 C 0.91377 0.24168 0.79394 0.0
C1955 C 0.92073 0.21597 0.78933 0.0
C1956 C 0.89177 0.24668 0.80497 0.0
C1957 C 0.88367 0.27333 0.81086 0.0
C1958 C 0.89752 0.28891 0.82561 0.0
C1959 C 0.88985 0.3141 0.83091 0.0
C1960 C 0.86827 0.32385 0.82171 0.0
C1961 C 0.85427 0.3084 0.80726 0.0
C1962 C 0.86188 0.2832 0.80188 0.0
C1963 C 0.86846 0.1407 0.84357 0.0
C1964 C 0.84384 0.13955 0.83947 0.0
C1965 C 0.88171 0.16013 0.83309 0.0
C1966 C 0.87079 0.17877 0.81797 0.0
C1967 C 0.84627 0.17752 0.81355 0.0
C1968 C 0.83295 0.15808 0.82411 0.0
C1969 C 0.88492 0.20008 0.80768 0.0
C1970 C 0.87759 0.22587 0.81156 0.0
C1971 C 0.90649 0.19515 0.79574 0.0
C1972 C 0.91428 0.16852 0.78923 0.0
C1973 C 0.89901 0.1525 0.77644 0.0
C1974 C 0.90634 0.12739 0.77047 0.0
C1975 C 0.92898 0.11812 0.77706 0.0
C1976 C 0.94435 0.13396 0.7896 0.0
C1977 C 0.9371 0.15908 0.79563 0.0
H1978 H 0.93463 0.09867 0.77242 0.0
H1979 H 0.86236 0.34336 0.82584 0.0
H1980 H 0.11567 0.61191 0.11135 0.0
H1981 H 0.07554 0.62653 0.10065 0.0
H1982 H 0.06244 0.55297 0.06814 0.0
H1983 H 0.10288 0.53802 0.07901 0.0
H1984 H 0.04316 0.59346 0.04151 0.0
H1985 H 0.03885 0.56418 0.12057 0.0
H1986 H 0.05073 0.55841 0.16253 0.0
H1987 H 0.04094 0.64 0.17378 0.0
H1988 H 0.02935 0.64636 0.13178 0.0
H1989 H 0.92045 0.64917 0.0432 0.0
H1990 H 0.9526 0.61681 0.05121 0.0
H1991 H 0.99828 0.67769 0.07398 0.0
H1992 H 0.96703 0.70974 0.06527 0.0
H1993 H 0.99476 0.63142 0.10586 0.0
H1994 H 1.00515 0.65857 0.02275 0.0
H1995 H 0.99117 0.66162 0.9812 0.0
H1996 H 0.98675 0.57886 0.97853 0.0
H1997 H 1.00008 0.5754 0.0203 0.0
C1998 C 0.10427 0.59871 0.10206 0.0
C1999 C 0.11242 0.57363 0.0964 0.0
C2000 C 0.0813 0.60713 0.09589 0.0
C2001 C 0.06576 0.59068 0.08402 0.0
C2002 C 0.07405 0.56595 0.07743 0.0
C2003 C 0.09718 0.55747 0.08361 0.0
C2004 C 0.04085 0.59961 0.07916 0.0
C2005 C 0.03234 0.60122 0.05564 0.0
C2006 C 0.02648 0.60939 0.09759 0.0
C2007 C 0.03333 0.60576 0.12295 0.0
C2008 C 0.03937 0.58093 0.13194 0.0
C2009 C 0.04604 0.57755 0.15575 0.0
C2010 C 0.04661 0.59883 0.17081 0.0
C2011 C 0.04048 0.62353 0.16209 0.0
C2012 C 0.03383 0.62703 0.13829 0.0
C2013 C 0.93738 0.65553 0.04982 0.0
C2014 C 0.94125 0.68199 0.05346 0.0
C2015 C 0.95567 0.63709 0.05442 0.0
C2016 C 0.97777 0.64493 0.06322 0.0
C2017 C 0.98135 0.67124 0.06726 0.0
C2018 C 0.96344 0.68955 0.0622 0.0
C2019 C 0.99771 0.62636 0.06823 0.0
C2020 C 1.0053 0.62297 0.09184 0.0
C2021 C 0.01091 0.61456 0.04995 0.0
C2022 C 1.00325 0.61675 0.02476 0.0
C2023 C 1.00091 0.64105 0.0134 0.0
C2024 C 0.99313 0.64286 0.98979 0.0
C2025 C 0.98796 0.62046 0.97725 0.0
C2026 C 0.99066 0.59621 0.98828 0.0
C2027 C 0.99829 0.59432 0.01193 0.0
H2028 H 0.98193 0.62191 0.95898 0.0
H2029 H 0.05178 0.59617 0.18924 0.0
H2030 H 0.70937 0.832 0.32232 0.0
H2031 H 0.68821 0.79518 0.3063 0.0
H2032 H 0.62164 0.83087 0.32641 0.0
H2033 H 0.64269 0.86727 0.3432 0.0
H2034 H 0.62541 0.78152 0.34165 0.0
H2035 H 0.63992 0.82692 0.26755 0.0
H2036 H 0.66555 0.84686 0.23777 0.0
H2037 H 0.70314 0.77434 0.22917 0.0
H2038 H 0.67792 0.75406 0.25912 0.0
H2039 H 0.54204 0.70225 0.28969 0.0
H2040 H 0.56676 0.73867 0.29956 0.0
H2041 H 0.62746 0.69892 0.26991 0.0
H2042 H 0.60235 0.66266 0.25896 0.0
H2043 H 0.63004 0.74786 0.25977 0.0
H2044 H 0.61793 0.70145 0.33137 0.0
H2045 H 0.59557 0.67924 0.36246 0.0
H2046 H 0.55809 0.75026 0.37798 0.0
H2047 H 0.57998 0.77283 0.34674 0.0
C2048 C 0.6902 0.83208 0.32325 0.0
C2049 C 0.67775 0.85261 0.33419 0.0
C2050 C 0.67811 0.81109 0.31387 0.0
C2051 C 0.65329 0.81024 0.31505 0.0
C2052 C 0.64079 0.83107 0.32527 0.0
C2053 C 0.65285 0.85203 0.33467 0.0
C2054 C 0.64032 0.78704 0.30712 0.0
C2055 C 0.62615 0.77441 0.32364 0.0
C2056 C 0.64224 0.77689 0.28396 0.0
C2057 C 0.65717 0.78904 0.26574 0.0
C2058 C 0.65375 0.81527 0.25942 0.0
C2059 C 0.66819 0.82663 0.24249 0.0
C2060 C 0.68601 0.8119 0.23164 0.0
C2061 C 0.68936 0.78574 0.23761 0.0
C2062 C 0.67498 0.7743 0.25454 0.0
C2063 C 0.56065 0.70123 0.28521 0.0
C2064 C 0.5703 0.67942 0.2738 0.0
C2065 C 0.57483 0.72207 0.29097 0.0
C2066 C 0.59919 0.72135 0.28612 0.0
C2067 C 0.60877 0.69992 0.27401 0.0
C2068 C 0.59441 0.67918 0.26779 0.0
C2069 C 0.61449 0.74283 0.29414 0.0
C2070 C 0.62925 0.75497 0.27777 0.0
C2071 C 0.61361 0.75224 0.31764 0.0
C2072 C 0.60047 0.73878 0.33657 0.0
C2073 C 0.60481 0.7123 0.3413 0.0
C2074 C 0.59223 0.69964 0.35897 0.0
C2075 C 0.57539 0.71332 0.37215 0.0
C2076 C 0.57113 0.73969 0.36774 0.0
C2077 C 0.58363 0.75243 0.35007 0.0
H2078 H 0.56566 0.70349 0.38582 0.0
H2079 H 0.69718 0.82073 0.21855 0.0
H2080 H 0.61804 0.32902 0.56712 0.0
H2081 H 0.58665 0.36249 0.57213 0.0
H2082 H 0.53463 0.3095 0.54626 0.0
H2083 H 0.56558 0.27613 0.54177 0.0
H2084 H 0.52876 0.36165 0.52822 0.0
H2085 H 0.54158 0.31319 0.60264 0.0
H2086 H 0.56636 0.2977 0.6365 0.0
H2087 H 0.58132 0.37616 0.65473 0.0
H2088 H 0.55685 0.39209 0.62074 0.0
H2089 H 0.41484 0.38041 0.57213 0.0
H2090 H 0.45453 0.3662 0.56059 0.0
H2091 H 0.48483 0.42668 0.6026 0.0
H2092 H 0.44498 0.44064 0.61477 0.0
H2093 H 0.50734 0.38149 0.61121 0.0
H2094 H 0.48689 0.43026 0.54258 0.0
H2095 H 0.46221 0.44638 0.50893 0.0
H2096 H 0.46242 0.37023 0.47917 0.0
H2097 H 0.4868 0.35352 0.51284 0.0
C2098 C 0.59992 0.32475 0.56227 0.0
C2099 C 0.5941 0.3 0.55432 0.0
C2100 C 0.58207 0.34381 0.56511 0.0
C2101 C 0.55835 0.33839 0.55959 0.0
C2102 C 0.55282 0.31409 0.55053 0.0
C2103 C 0.57049 0.295 0.54814 0.0
C2104 C 0.53872 0.35688 0.56497 0.0
C2105 C 0.52405 0.36614 0.54632 0.0
C2106 C 0.53309 0.36337 0.58856 0.0
C2107 C 0.54769 0.3538 0.609 0.0
C2108 C 0.55034 0.32712 0.61375 0.0
C2109 C 0.56428 0.31826 0.63298 0.0
C2110 C 0.57548 0.33593 0.64771 0.0
C2111 C 0.57269 0.3625 0.64327 0.0
C2112 C 0.55879 0.37145 0.62403 0.0
C2113 C 0.42993 0.39072 0.57892 0.0
C2114 C 0.42676 0.41156 0.59447 0.0
C2115 C 0.45262 0.38277 0.57207 0.0
C2116 C 0.47268 0.39557 0.58049 0.0
C2117 C 0.4696 0.41663 0.59578 0.0
C2118 C 0.44683 0.42466 0.6026 0.0
C2119 C 0.49676 0.3856 0.57446 0.0
C2120 C 0.51228 0.37783 0.59301 0.0
C2121 C 0.50325 0.38071 0.55073 0.0
C2122 C 0.4886 0.3906 0.53035 0.0
C2123 C 0.48154 0.41689 0.52896 0.0
C2124 C 0.46762 0.42615 0.50986 0.0
C2125 C 0.46073 0.40933 0.49194 0.0
C2126 C 0.46778 0.38323 0.49307 0.0
C2127 C 0.48169 0.37386 0.51215 0.0
H2128 H 0.44996 0.41653 0.47716 0.0
H2129 H 0.58627 0.32905 0.6626 0.0
H2130 H 0.15679 0.62225 0.65853 0.0
H2131 H 0.13293 0.65877 0.67297 0.0
H2132 H 0.19616 0.70265 0.68328 0.0
H2133 H 0.22016 0.66646 0.66816 0.0
H2134 H 0.1615 0.70836 0.72053 0.0
H2135 H 0.16715 0.71506 0.63585 0.0
H2136 H 0.16504 0.69878 0.59496 0.0
H2137 H 0.09116 0.68342 0.60326 0.0
H2138 H 0.09292 0.69923 0.64435 0.0
H2139 H 0.08964 0.82853 0.72317 0.0
H2140 H 0.12152 0.79678 0.71401 0.0
H2141 H 0.06907 0.74032 0.697 0.0
H2142 H 0.03761 0.7713 0.70645 0.0
H2143 H 0.10298 0.74533 0.66223 0.0
H2144 H 0.09715 0.73571 0.7468 0.0
H2145 H 0.09855 0.74984 0.78837 0.0
H2146 H 0.17176 0.76888 0.78107 0.0
H2147 H 0.17058 0.75562 0.73926 0.0
C2148 C 0.16567 0.63962 0.66392 0.0
C2149 C 0.1904 0.6415 0.6619 0.0
C2150 C 0.15202 0.66042 0.6723 0.0
C2151 C 0.16278 0.68351 0.67892 0.0
C2152 C 0.18754 0.68499 0.67827 0.0
C2153 C 0.20123 0.66422 0.66971 0.0
C2154 C 0.14788 0.70657 0.68477 0.0
C2155 C 0.14899 0.71681 0.7077 0.0
C2156 C 0.13142 0.71736 0.66806 0.0
C2157 C 0.13022 0.70814 0.64324 0.0
C2158 C 0.15049 0.70804 0.62902 0.0
C2159 C 0.14936 0.69891 0.60579 0.0
C2160 C 0.12799 0.69002 0.59653 0.0
C2161 C 0.1077 0.6903 0.61046 0.0
C2162 C 0.10875 0.69936 0.63371 0.0
C2163 C 0.08503 0.80928 0.71765 0.0
C2164 C 0.06115 0.80242 0.71549 0.0
C2165 C 0.1032 0.7912 0.71241 0.0
C2166 C 0.09761 0.76623 0.70472 0.0
C2167 C 0.07378 0.7595 0.70274 0.0
C2168 C 0.05581 0.77728 0.70821 0.0
C2169 C 0.11617 0.74685 0.69818 0.0
C2170 C 0.11576 0.73726 0.675 0.0
C2171 C 0.1331 0.73663 0.71473 0.0
C2172 C 0.13367 0.74508 0.73977 0.0
C2173 C 0.11344 0.74332 0.75394 0.0
C2174 C 0.1142 0.75112 0.77758 0.0
C2175 C 0.13519 0.76036 0.78736 0.0
C2176 C 0.15546 0.76184 0.7735 0.0
C2177 C 0.15474 0.75425 0.7498 0.0
H2178 H 0.13572 0.76627 0.8057 0.0
H2179 H 0.12715 0.68296 0.57855 0.0
H2180 H 0.44115 0.82864 0.98165 0.0
H2181 H 0.47683 0.85162 0.97085 0.0
H2182 H 0.49299 0.79364 0.91865 0.0
H2183 H 0.45753 0.7704 0.92943 0.0
H2184 H 0.53136 0.80351 0.94523 0.0
H2185 H 0.47206 0.85423 0.90252 0.0
H2186 H 0.43516 0.88048 0.89779 0.0
H2187 H 0.46175 0.93612 0.94685 0.0
H2188 H 0.4987 0.91 0.95212 0.0
H2189 H 0.62071 0.8649 0.88122 0.0
H2190 H 0.58331 0.84604 0.89264 0.0
H2191 H 0.57359 0.90501 0.94539 0.0
H2192 H 0.61136 0.92389 0.9343 0.0
H2193 H 0.53213 0.89588 0.92049 0.0
H2194 H 0.59174 0.84581 0.96247 0.0
H2195 H 0.6287 0.81969 0.96719 0.0
H2196 H 0.60141 0.76278 0.9198 0.0
H2197 H 0.56439 0.78877 0.91451 0.0
C2198 C 0.45214 0.82084 0.96771 0.0
C2199 C 0.44635 0.79758 0.95644 0.0
C2200 C 0.47255 0.83409 0.96151 0.0
C2201 C 0.4876 0.82446 0.94383 0.0
C2202 C 0.48171 0.80145 0.93236 0.0
C2203 C 0.46131 0.78822 0.93852 0.0
C2204 C 0.50991 0.83778 0.93783 0.0
C2205 C 0.53145 0.82362 0.93952 0.0
C2206 C 0.51021 0.86426 0.93108 0.0
C2207 C 0.48804 0.88002 0.92791 0.0
C2208 C 0.46996 0.87195 0.91245 0.0
C2209 C 0.44905 0.88683 0.90964 0.0
C2210 C 0.44609 0.90991 0.92207 0.0
C2211 C 0.46406 0.91821 0.93727 0.0
C2212 C 0.485 0.90339 0.94016 0.0
C2213 C 0.61079 0.87379 0.89542 0.0
C2214 C 0.61928 0.89579 0.90701 0.0
C2215 C 0.58931 0.86301 0.90186 0.0
C2216 C 0.57575 0.87388 0.92009 0.0
C2217 C 0.58375 0.89627 0.93128 0.0
C2218 C 0.60534 0.90708 0.92487 0.0
C2219 C 0.55346 0.86148 0.92758 0.0
C2220 C 0.53199 0.8758 0.92625 0.0
C2221 C 0.55318 0.83513 0.9347 0.0
C2222 C 0.57538 0.81937 0.93792 0.0
C2223 C 0.59369 0.82783 0.9529 0.0
C2224 C 0.61464 0.81303 0.95571 0.0
C2225 C 0.61743 0.78962 0.94376 0.0
C2226 C 0.59924 0.78094 0.92902 0.0
C2227 C 0.57826 0.79568 0.92613 0.0
H2228 H 0.63366 0.77819 0.94595 0.0
H2229 H 0.42989 0.9214 0.91986 0.0
H2230 H 0.91525 0.08126 0.44029 0.0
H2231 H 0.95043 0.10442 0.45326 0.0
H2232 H 0.99396 0.05736 0.40759 0.0
H2233 H 0.95901 0.03376 0.39496 0.0
H2234 H 0.01682 0.06632 0.44995 0.0
H2235 H 0.97535 0.11654 0.3894 0.0
H2236 H 0.94064 0.13903 0.37086 0.0
H2237 H 0.93474 0.18884 0.43108 0.0
H2238 H 0.96924 0.16639 0.45012 0.0
H2239 H 0.1145 0.15491 0.44234 0.0
H2240 H 0.08282 0.12365 0.43588 0.0
H2241 H 0.03455 0.17246 0.47518 0.0
H2242 H 0.06564 0.20374 0.48083 0.0
H2243 H 0.01474 0.16114 0.43544 0.0
H2244 H 0.05765 0.11223 0.4956 0.0
H2245 H 0.09278 0.09013 0.51362 0.0
H2246 H 0.09637 0.03802 0.45496 0.0
H2247 H 0.06161 0.06021 0.43621 0.0
C2248 C 0.93235 0.07554 0.43329 0.0
C2249 C 0.9342 0.05583 0.41634 0.0
C2250 C 0.95246 0.08891 0.44062 0.0
C2251 C 0.97486 0.08289 0.43117 0.0
C2252 C 0.97691 0.06245 0.41508 0.0
C2253 C 0.95683 0.04914 0.4077 0.0
C2254 C 0.99581 0.09892 0.43687 0.0
C2255 C 0.01648 0.08703 0.44662 0.0
C2256 C 0.99536 0.12599 0.43277 0.0
C2257 C 0.97472 0.13962 0.42128 0.0
C2258 C 0.96654 0.13217 0.39876 0.0
C2259 C 0.94693 0.14492 0.38815 0.0
C2260 C 0.93546 0.1653 0.39981 0.0
C2261 C 0.94362 0.17302 0.42208 0.0
C2262 C 0.96321 0.1603 0.43278 0.0
C2263 C 0.09723 0.15858 0.44995 0.0
C2264 C 0.09242 0.18179 0.46191 0.0
C2265 C 0.07911 0.14074 0.44627 0.0
C2266 C 0.05611 0.14569 0.45493 0.0
C2267 C 0.05194 0.16824 0.46805 0.0
C2268 C 0.06979 0.18609 0.47137 0.0
C2269 C 0.03578 0.12875 0.44905 0.0
C2270 C 0.01518 0.14046 0.43901 0.0
C2271 C 0.03638 0.1016 0.45298 0.0
C2272 C 0.05714 0.08807 0.46437 0.0
C2273 C 0.06603 0.0962 0.48643 0.0
C2274 C 0.08587 0.08364 0.4968 0.0
C2275 C 0.09679 0.0627 0.48547 0.0
C2276 C 0.0879 0.05426 0.46372 0.0
C2277 C 0.06814 0.06684 0.45319 0.0
H2278 H 0.11214 0.053 0.49355 0.0
H2279 H 0.92028 0.17516 0.39157 0.0
loop_
_geom_bond_atom_site_label_1
_geom_bond_atom_site_label_2
_geom_bond_distance
_geom_bond_site_symmetry_2
_ccdc_geom_bond_type
Ho0 C3 2.811 . S
Ho0 O20 2.322 . S
Ho0 O22 2.378 . S
Ho0 O23 2.524 . S
Ho0 O24 2.381 . S
Ho0 O25 2.669 . S
Ho0 O27 2.346 . S
Ho0 O31 2.305 . S
Ho1 C12 2.811 . S
Ho1 O21 2.346 . S
Ho1 O25 2.305 . S
Ho1 O26 2.322 . S
Ho1 O28 2.378 . S
Ho1 O29 2.524 . S
Ho1 O30 2.381 . S
Ho1 O31 2.669 . S
C2 O20 1.259 . S
C2 O21 1.268 . S
C3 Ho0 2.811 . S
C3 C4 1.488 . S
C3 O22 1.215 . S
C3 O23 1.289 . S
C4 C3 1.488 . S
C4 C5 1.348 . S
C4 C9 1.413 . S
C5 C4 1.348 . S
C5 C6 1.442 . S
C5 H32 0.930 . S
C6 C5 1.442 . S
C6 C7 1.381 . S
C6 H33 0.931 . S
C7 C6 1.381 . S
C7 C8 1.321 . S
C8 C7 1.321 . S
C8 C9 1.403 . S
C8 H34 0.934 . S
C9 C4 1.413 . S
C9 C8 1.403 . S
C9 H35 0.930 . S
C10 O24 1.275 . S
C10 O25 1.256 . S
C11 O26 1.259 . S
C11 O27 1.268 . S
C12 Ho1 2.811 . S
C12 C13 1.488 . S
C12 O28 1.215 . S
C12 O29 1.289 . S
C13 C12 1.488 . S
C13 C14 1.348 . S
C13 C18 1.413 . S
C14 C13 1.348 . S
C14 C15 1.442 . S
C14 H36 0.930 . S
C15 C14 1.442 . S
C15 C16 1.381 . S
C15 H37 0.931 . S
C16 C15 1.381 . S
C16 C17 1.321 . S
C17 C16 1.321 . S
C17 C18 1.403 . S
C17 H38 0.934 . S
C18 C13 1.413 . S
C18 C17 1.403 . S
C18 H39 0.930 . S
C19 O30 1.275 . S
C19 O31 1.256 . S
O20 Ho0 2.322 . S
O20 C2 1.259 . S
O21 Ho1 2.346 . S
O21 C2 1.268 . S
O22 Ho0 2.378 . S
O22 C3 1.215 . S
O23 Ho0 2.524 . S
O23 C3 1.289 . S
O24 Ho0 2.381 . S
O24 C10 1.275 . S
O25 Ho0 2.669 . S
O25 Ho1 2.305 . S
O25 C10 1.256 . S
O26 Ho1 2.322 . S
O26 C11 1.259 . S
O27 Ho0 2.346 . S
O27 C11 1.268 . S
O28 Ho1 2.378 . S
O28 C12 1.215 . S
O29 Ho1 2.524 . S
O29 C12 1.289 . S
O30 Ho1 2.381 . S
O30 C19 1.275 . S
O31 Ho0 2.305 . S
O31 Ho1 2.669 . S
O31 C19 1.256 . S
H32 C5 0.930 . S
H33 C6 0.931 . S
H34 C8 0.934 . S
H35 C9 0.930 . S
H36 C14 0.930 . S
H37 C15 0.931 . S
H38 C17 0.934 . S
H39 C18 0.930 . S
Ho40 C43 2.811 . S
Ho40 O60 2.322 1_655 S
Ho40 O62 2.378 . S
Ho40 O63 2.524 . S
Ho40 O64 2.381 1_655 S
Ho40 O65 2.669 1_655 S
Ho40 O67 2.346 . S
Ho40 O71 2.309 . S
Ho41 C52 2.811 . S
Ho41 O61 2.346 . S
Ho41 O65 2.305 . S
Ho41 O66 2.322 . S
Ho41 O68 2.378 . S
Ho41 O69 2.524 . S
Ho41 O70 2.381 . S
Ho41 O71 2.635 1_455 S
C42 O60 1.259 . S
C42 O61 1.268 . S
C43 Ho40 2.811 . S
C43 C44 1.488 . S
C43 O62 1.215 . S
C43 O63 1.289 . S
C44 C43 1.488 . S
C44 C45 1.348 . S
C44 C49 1.413 . S
C45 C44 1.348 . S
C45 C46 1.442 . S
C45 H72 0.930 . S
C46 C45 1.442 . S
C46 C47 1.381 . S
C46 H73 0.931 . S
C47 C46 1.381 . S
C47 C48 1.321 . S
C48 C47 1.321 . S
C48 C49 1.403 . S
C48 H74 0.934 . S
C49 C44 1.413 . S
C49 C48 1.403 . S
C49 H75 0.930 . S
C50 O64 1.275 . S
C50 O65 1.256 . S
C51 O66 1.259 . S
C51 O67 1.268 1_455 S
C52 Ho41 2.811 . S
C52 C53 1.488 . S
C52 O68 1.215 . S
C52 O69 1.289 . S
C53 C52 1.488 . S
C53 C54 1.348 . S
C53 C58 1.413 . S
C54 C53 1.348 . S
C54 C55 1.442 . S
C54 H76 0.930 . S
C55 C54 1.442 . S
C55 C56 1.381 . S
C55 H77 0.931 . S
C56 C55 1.381 . S
C56 C57 1.321 . S
C57 C56 1.321 . S
C57 C58 1.403 . S
C57 H78 0.934 . S
C58 C53 1.413 . S
C58 C57 1.403 . S
C58 H79 0.930 . S
C59 O70 1.275 1_655 S
C59 O71 1.262 . S
O60 Ho40 2.322 1_455 S
O60 C42 1.259 . S
O61 Ho41 2.346 . S
O61 C42 1.268 . S
O62 Ho40 2.378 . S
O62 C43 1.215 . S
O63 Ho40 2.524 . S
O63 C43 1.289 . S
O64 Ho40 2.381 1_455 S
O64 C50 1.275 . S
O65 Ho40 2.669 1_455 S
O65 Ho41 2.305 . S
O65 C50 1.256 . S
O66 Ho41 2.322 . S
O66 C51 1.259 . S
O67 Ho40 2.346 . S
O67 C51 1.268 1_655 S
O68 Ho41 2.378 . S
O68 C52 1.215 . S
O69 Ho41 2.524 . S
O69 C52 1.289 . S
O70 Ho41 2.381 . S
O70 C59 1.275 1_455 S
O71 Ho40 2.309 . S
O71 Ho41 2.635 1_655 S
O71 C59 1.262 . S
H72 C45 0.930 . S
H73 C46 0.931 . S
H74 C48 0.934 . S
H75 C49 0.930 . S
H76 C54 0.930 . S
H77 C55 0.931 . S
H78 C57 0.934 . S
H79 C58 0.930 . S
Ho80 C83 2.811 . S
Ho80 O100 2.322 1_554 S
Ho80 O102 2.378 . S
Ho80 O103 2.524 . S
Ho80 O104 2.381 1_554 S
Ho80 O105 2.669 1_554 S
Ho80 O107 2.346 . S
Ho80 O111 2.305 . S
Ho81 C92 2.811 . S
Ho81 O101 2.346 . S
Ho81 O105 2.305 . S
Ho81 O106 2.322 . S
Ho81 O108 2.378 . S
Ho81 O109 2.524 . S
Ho81 O110 2.381 . S
Ho81 O111 2.669 1_556 S
C82 O100 1.259 . S
C82 O101 1.268 . S
C83 Ho80 2.811 . S
C83 C84 1.488 . S
C83 O102 1.215 . S
C83 O103 1.289 . S
C84 C83 1.488 . S
C84 C85 1.348 . S
C84 C89 1.413 . S
C85 C84 1.348 . S
C85 C86 1.442 . S
C85 H112 0.930 . S
C86 C85 1.442 . S
C86 C87 1.381 . S
C86 H113 0.931 . S
C87 C86 1.381 . S
C87 C88 1.321 . S
C88 C87 1.321 . S
C88 C89 1.403 . S
C88 H114 0.934 . S
C89 C84 1.413 . S
C89 C88 1.403 . S
C89 H115 0.930 . S
C90 O104 1.275 . S
C90 O105 1.256 . S
C91 O106 1.259 . S
C91 O107 1.268 1_556 S
C92 Ho81 2.811 . S
C92 C93 1.488 . S
C92 O108 1.215 . S
C92 O109 1.289 . S
C93 C92 1.488 . S
C93 C94 1.348 . S
C93 C98 1.413 . S
C94 C93 1.348 . S
C94 C95 1.442 . S
C94 H116 0.930 . S
C95 C94 1.442 . S
C95 C96 1.381 . S
C95 H117 0.931 . S
C96 C95 1.381 . S
C96 C97 1.321 . S
C97 C96 1.321 . S
C97 C98 1.403 . S
C97 H118 0.934 . S
C98 C93 1.413 . S
C98 C97 1.403 . S
C98 H119 0.930 . S
C99 O110 1.275 1_554 S
C99 O111 1.256 . S
O100 Ho80 2.322 1_556 S
O100 C82 1.259 . S
O101 Ho81 2.346 . S
O101 C82 1.268 . S
O102 Ho80 2.378 . S
O102 C83 1.215 . S
O103 Ho80 2.524 . S
O103 C83 1.289 . S
O104 Ho80 2.381 1_556 S
O104 C90 1.275 . S
O105 Ho80 2.669 1_556 S
O105 Ho81 2.305 . S
O105 C90 1.256 . S
O106 Ho81 2.322 . S
O106 C91 1.259 . S
O107 Ho80 2.346 . S
O107 C91 1.268 1_554 S
O108 Ho81 2.378 . S
O108 C92 1.215 . S
O109 Ho81 2.524 . S
O109 C92 1.289 . S
O110 Ho81 2.381 . S
O110 C99 1.275 1_556 S
O111 Ho80 2.305 . S
O111 Ho81 2.669 1_554 S
O111 C99 1.256 . S
H112 C85 0.930 . S
H113 C86 0.931 . S
H114 C88 0.934 . S
H115 C89 0.930 . S
H116 C94 0.930 . S
H117 C95 0.931 . S
H118 C97 0.934 . S
H119 C98 0.930 . S
Ho120 C123 2.811 . S
Ho120 O140 2.322 . S
Ho120 O142 2.378 . S
Ho120 O143 2.524 . S
Ho120 O144 2.381 . S
Ho120 O145 2.669 . S
Ho120 O147 2.346 . S
Ho120 O151 2.305 . S
Ho121 C132 2.811 . S
Ho121 O141 2.346 . S
Ho121 O145 2.305 . S
Ho121 O146 2.322 . S
Ho121 O148 2.378 . S
Ho121 O149 2.524 . S
Ho121 O150 2.381 . S
Ho121 O151 2.669 . S
C122 O140 1.259 . S
C122 O141 1.268 . S
C123 Ho120 2.811 . S
C123 C124 1.488 . S
C123 O142 1.215 . S
C123 O143 1.289 . S
C124 C123 1.488 . S
C124 C125 1.348 . S
C124 C129 1.413 . S
C125 C124 1.348 . S
C125 C126 1.442 . S
C125 H152 0.930 . S
C126 C125 1.442 . S
C126 C127 1.381 . S
C126 H153 0.931 . S
C127 C126 1.381 . S
C127 C128 1.321 . S
C128 C127 1.321 . S
C128 C129 1.403 . S
C128 H154 0.934 . S
C129 C124 1.413 . S
C129 C128 1.403 . S
C129 H155 0.930 . S
C130 O144 1.275 . S
C130 O145 1.256 . S
C131 O146 1.259 . S
C131 O147 1.268 . S
C132 Ho121 2.811 . S
C132 C133 1.488 . S
C132 O148 1.215 . S
C132 O149 1.289 . S
C133 C132 1.488 . S
C133 C134 1.348 . S
C133 C138 1.413 . S
C134 C133 1.348 . S
C134 C135 1.442 . S
C134 H156 0.930 . S
C135 C134 1.442 . S
C135 C136 1.381 . S
C135 H157 0.931 . S
C136 C135 1.381 . S
C136 C137 1.321 . S
C137 C136 1.321 . S
C137 C138 1.403 . S
C137 H158 0.934 . S
C138 C133 1.413 . S
C138 C137 1.403 . S
C138 H159 0.930 . S
C139 O150 1.275 . S
C139 O151 1.256 . S
O140 Ho120 2.322 . S
O140 C122 1.259 . S
O141 Ho121 2.346 . S
O141 C122 1.268 . S
O142 Ho120 2.378 . S
O142 C123 1.215 . S
O143 Ho120 2.524 . S
O143 C123 1.289 . S
O144 Ho120 2.381 . S
O144 C130 1.275 . S
O145 Ho120 2.669 . S
O145 Ho121 2.305 . S
O145 C130 1.256 . S
O146 Ho121 2.322 . S
O146 C131 1.259 . S
O147 Ho120 2.346 . S
O147 C131 1.268 . S
O148 Ho121 2.378 . S
O148 C132 1.215 . S
O149 Ho121 2.524 . S
O149 C132 1.289 . S
O150 Ho121 2.381 . S
O150 C139 1.275 . S
O151 Ho120 2.305 . S
O151 Ho121 2.669 . S
O151 C139 1.256 . S
H152 C125 0.930 . S
H153 C126 0.931 . S
H154 C128 0.934 . S
H155 C129 0.930 . S
H156 C134 0.930 . S
H157 C135 0.931 . S
H158 C137 0.934 . S
H159 C138 0.930 . S
Ho160 C163 2.811 . S
Ho160 O180 2.322 . S
Ho160 O182 2.378 . S
Ho160 O183 2.524 . S
Ho160 O184 2.381 . S
Ho160 O185 2.669 . S
Ho160 O187 2.346 . S
Ho160 O191 2.305 . S
Ho161 C172 2.811 . S
Ho161 O181 2.346 . S
Ho161 O185 2.305 . S
Ho161 O186 2.322 . S
Ho161 O188 2.378 . S
Ho161 O189 2.524 . S
Ho161 O190 2.381 . S
Ho161 O191 2.669 . S
C162 O180 1.259 . S
C162 O181 1.268 . S
C163 Ho160 2.811 . S
C163 C164 1.488 . S
C163 O182 1.215 . S
C163 O183 1.289 . S
C164 C163 1.488 . S
C164 C165 1.348 . S
C164 C169 1.413 . S
C165 C164 1.348 . S
C165 C166 1.442 . S
C165 H192 0.930 . S
C166 C165 1.442 . S
C166 C167 1.381 . S
C166 H193 0.931 . S
C167 C166 1.381 . S
C167 C168 1.321 . S
C168 C167 1.321 . S
C168 C169 1.403 . S
C168 H194 0.934 . S
C169 C164 1.413 . S
C169 C168 1.403 . S
C169 H195 0.930 . S
C170 O184 1.275 . S
C170 O185 1.256 . S
C171 O186 1.259 . S
C171 O187 1.268 . S
C172 Ho161 2.811 . S
C172 C173 1.488 . S
C172 O188 1.215 . S
C172 O189 1.289 . S
C173 C172 1.488 . S
C173 C174 1.348 . S
C173 C178 1.413 . S
C174 C173 1.348 . S
C174 C175 1.442 . S
C174 H196 0.930 . S
C175 C174 1.442 . S
C175 C176 1.381 . S
C175 H197 0.931 . S
C176 C175 1.381 . S
C176 C177 1.321 . S
C177 C176 1.321 . S
C177 C178 1.403 . S
C177 H198 0.934 . S
C178 C173 1.413 . S
C178 C177 1.403 . S
C178 H199 0.930 . S
C179 O190 1.275 . S
C179 O191 1.256 . S
O180 Ho160 2.322 . S
O180 C162 1.259 . S
O181 Ho161 2.346 . S
O181 C162 1.268 . S
O182 Ho160 2.378 . S
O182 C163 1.215 . S
O183 Ho160 2.524 . S
O183 C163 1.289 . S
O184 Ho160 2.381 . S
O184 C170 1.275 . S
O185 Ho160 2.669 . S
O185 Ho161 2.305 . S
O185 C170 1.256 . S
O186 Ho161 2.322 . S
O186 C171 1.259 . S
O187 Ho160 2.346 . S
O187 C171 1.268 . S
O188 Ho161 2.378 . S
O188 C172 1.215 . S
O189 Ho161 2.524 . S
O189 C172 1.289 . S
O190 Ho161 2.381 . S
O190 C179 1.275 . S
O191 Ho160 2.305 . S
O191 Ho161 2.669 . S
O191 C179 1.256 . S
H192 C165 0.930 . S
H193 C166 0.931 . S
H194 C168 0.934 . S
H195 C169 0.930 . S
H196 C174 0.930 . S
H197 C175 0.931 . S
H198 C177 0.934 . S
H199 C178 0.930 . S
Ho200 C203 2.811 . S
Ho200 O220 2.322 . S
Ho200 O222 2.378 . S
Ho200 O223 2.524 . S
Ho200 O224 2.381 . S
Ho200 O225 2.669 . S
Ho200 O227 2.346 1_655 S
Ho200 O231 2.305 . S
Ho201 C212 2.811 . S
Ho201 O221 2.346 1_455 S
Ho201 O225 2.305 1_455 S
Ho201 O226 2.322 . S
Ho201 O228 2.378 . S
Ho201 O229 2.524 . S
Ho201 O230 2.381 . S
Ho201 O231 2.669 1_455 S
C202 O220 1.259 . S
C202 O221 1.268 . S
C203 Ho200 2.811 . S
C203 C204 1.488 . S
C203 O222 1.215 . S
C203 O223 1.289 . S
C204 C203 1.488 . S
C204 C205 1.348 . S
C204 C209 1.413 . S
C205 C204 1.348 . S
C205 C206 1.442 . S
C205 H232 0.930 . S
C206 C205 1.442 . S
C206 C207 1.381 . S
C206 H233 0.931 . S
C207 C206 1.381 . S
C207 C208 1.321 . S
C208 C207 1.321 . S
C208 C209 1.403 . S
C208 H234 0.934 . S
C209 C204 1.413 . S
C209 C208 1.403 . S
C209 H235 0.930 . S
C210 O224 1.275 . S
C210 O225 1.256 . S
C211 O226 1.259 . S
C211 O227 1.268 . S
C212 Ho201 2.811 . S
C212 C213 1.488 . S
C212 O228 1.215 . S
C212 O229 1.289 . S
C213 C212 1.488 . S
C213 C214 1.348 . S
C213 C218 1.413 . S
C214 C213 1.348 . S
C214 C215 1.442 . S
C214 H236 0.930 . S
C215 C214 1.442 . S
C215 C216 1.381 . S
C215 H237 0.931 . S
C216 C215 1.381 . S
C216 C217 1.321 . S
C217 C216 1.321 . S
C217 C218 1.403 . S
C217 H238 0.934 . S
C218 C213 1.413 . S
C218 C217 1.403 . S
C218 H239 0.930 . S
C219 O230 1.275 . S
C219 O231 1.256 1_455 S
O220 Ho200 2.322 . S
O220 C202 1.259 . S
O221 Ho201 2.346 1_655 S
O221 C202 1.268 . S
O222 Ho200 2.378 . S
O222 C203 1.215 . S
O223 Ho200 2.524 . S
O223 C203 1.289 . S
O224 Ho200 2.381 . S
O224 C210 1.275 . S
O225 Ho200 2.669 . S
O225 Ho201 2.305 1_655 S
O225 C210 1.256 . S
O226 Ho201 2.322 . S
O226 C211 1.259 . S
O227 Ho200 2.346 1_455 S
O227 C211 1.268 . S
O228 Ho201 2.378 . S
O228 C212 1.215 . S
O229 Ho201 2.524 . S
O229 C212 1.289 . S
O230 Ho201 2.381 . S
O230 C219 1.275 . S
O231 Ho200 2.305 . S
O231 Ho201 2.669 1_655 S
O231 C219 1.256 1_655 S
H232 C205 0.930 . S
H233 C206 0.931 . S
H234 C208 0.934 . S
H235 C209 0.930 . S
H236 C214 0.930 . S
H237 C215 0.931 . S
H238 C217 0.934 . S
H239 C218 0.930 . S
Ho240 C243 2.811 . S
Ho240 O260 2.322 . S
Ho240 O262 2.378 . S
Ho240 O263 2.524 . S
Ho240 O264 2.381 . S
Ho240 O265 2.669 . S
Ho240 O267 2.346 1_554 S
Ho240 O271 2.305 . S
Ho241 C252 2.811 . S
Ho241 O261 2.346 1_556 S
Ho241 O265 2.305 1_556 S
Ho241 O266 2.322 . S
Ho241 O268 2.378 . S
Ho241 O269 2.524 . S
Ho241 O270 2.381 . S
Ho241 O271 2.669 1_556 S
C242 O260 1.259 . S
C242 O261 1.268 . S
C243 Ho240 2.811 . S
C243 C244 1.488 . S
C243 O262 1.215 . S
C243 O263 1.289 . S
C244 C243 1.488 . S
C244 C245 1.348 . S
C244 C249 1.413 . S
C245 C244 1.348 . S
C245 C246 1.442 . S
C245 H272 0.930 . S
C246 C245 1.442 . S
C246 C247 1.381 . S
C246 H273 0.931 . S
C247 C246 1.381 . S
C247 C248 1.321 . S
C248 C247 1.321 . S
C248 C249 1.403 . S
C248 H274 0.934 . S
C249 C244 1.413 . S
C249 C248 1.403 . S
C249 H275 0.930 . S
C250 O264 1.275 . S
C250 O265 1.256 . S
C251 O266 1.259 . S
C251 O267 1.268 . S
C252 Ho241 2.811 . S
C252 C253 1.488 . S
C252 O268 1.215 . S
C252 O269 1.289 . S
C253 C252 1.488 . S
C253 C254 1.348 . S
C253 C258 1.413 . S
C254 C253 1.348 . S
C254 C255 1.442 . S
C254 H276 0.930 . S
C255 C254 1.442 . S
C255 C256 1.381 . S
C255 H277 0.931 . S
C256 C255 1.381 . S
C256 C257 1.321 . S
C257 C256 1.321 . S
C257 C258 1.403 . S
C257 H278 0.934 . S
C258 C253 1.413 . S
C258 C257 1.403 . S
C258 H279 0.930 . S
C259 O270 1.275 . S
C259 O271 1.256 1_556 S
O260 Ho240 2.322 . S
O260 C242 1.259 . S
O261 Ho241 2.346 1_554 S
O261 C242 1.268 . S
O262 Ho240 2.378 . S
O262 C243 1.215 . S
O263 Ho240 2.524 . S
O263 C243 1.289 . S
O264 Ho240 2.381 . S
O264 C250 1.275 . S
O265 Ho240 2.669 . S
O265 Ho241 2.305 1_554 S
O265 C250 1.256 . S
O266 Ho241 2.322 . S
O266 C251 1.259 . S
O267 Ho240 2.346 1_556 S
O267 C251 1.268 . S
O268 Ho241 2.378 . S
O268 C252 1.215 . S
O269 Ho241 2.524 . S
O269 C252 1.289 . S
O270 Ho241 2.381 . S
O270 C259 1.275 . S
O271 Ho240 2.305 . S
O271 Ho241 2.669 1_554 S
O271 C259 1.256 1_554 S
H272 C245 0.930 . S
H273 C246 0.931 . S
H274 C248 0.934 . S
H275 C249 0.930 . S
H276 C254 0.930 . S
H277 C255 0.931 . S
H278 C257 0.934 . S
H279 C258 0.930 . S
Ho280 C283 2.811 . S
Ho280 O300 2.322 . S
Ho280 O302 2.378 . S
Ho280 O303 2.524 . S
Ho280 O304 2.381 . S
Ho280 O305 2.669 . S
Ho280 O307 2.346 . S
Ho280 O311 2.305 . S
Ho281 C292 2.811 . S
Ho281 O301 2.346 . S
Ho281 O305 2.305 . S
Ho281 O306 2.322 . S
Ho281 O308 2.378 . S
Ho281 O309 2.524 . S
Ho281 O310 2.381 . S
Ho281 O311 2.669 . S
C282 O300 1.259 . S
C282 O301 1.268 . S
C283 Ho280 2.811 . S
C283 C284 1.488 . S
C283 O302 1.215 . S
C283 O303 1.289 . S
C284 C283 1.488 . S
C284 C285 1.348 . S
C284 C289 1.413 . S
C285 C284 1.348 . S
C285 C286 1.442 . S
C285 H312 0.930 . S
C286 C285 1.442 . S
C286 C287 1.381 . S
C286 H313 0.931 . S
C287 C286 1.381 . S
C287 C288 1.321 . S
C288 C287 1.321 . S
C288 C289 1.403 . S
C288 H314 0.934 . S
C289 C284 1.413 . S
C289 C288 1.403 . S
C289 H315 0.930 . S
C290 O304 1.275 . S
C290 O305 1.256 . S
C291 O306 1.259 . S
C291 O307 1.268 . S
C292 Ho281 2.811 . S
C292 C293 1.488 . S
C292 O308 1.215 . S
C292 O309 1.289 . S
C293 C292 1.488 . S
C293 C294 1.348 . S
C293 C298 1.413 . S
C294 C293 1.348 . S
C294 C295 1.442 . S
C294 H316 0.930 . S
C295 C294 1.442 . S
C295 C296 1.381 . S
C295 H317 0.931 . S
C296 C295 1.381 . S
C296 C297 1.321 . S
C297 C296 1.321 . S
C297 C298 1.403 . S
C297 H318 0.934 . S
C298 C293 1.413 . S
C298 C297 1.403 . S
C298 H319 0.930 . S
C299 O310 1.275 . S
C299 O311 1.256 . S
O300 Ho280 2.322 . S
O300 C282 1.259 . S
O301 Ho281 2.346 . S
O301 C282 1.268 . S
O302 Ho280 2.378 . S
O302 C283 1.215 . S
O303 Ho280 2.524 . S
O303 C283 1.289 . S
O304 Ho280 2.381 . S
O304 C290 1.275 . S
O305 Ho280 2.669 . S
O305 Ho281 2.305 . S
O305 C290 1.256 . S
O306 Ho281 2.322 . S
O306 C291 1.259 . S
O307 Ho280 2.346 . S
O307 C291 1.268 . S
O308 Ho281 2.378 . S
O308 C292 1.215 . S
O309 Ho281 2.524 . S
O309 C292 1.289 . S
O310 Ho281 2.381 . S
O310 C299 1.275 . S
O311 Ho280 2.305 . S
O311 Ho281 2.669 . S
O311 C299 1.256 . S
H312 C285 0.930 . S
H313 C286 0.931 . S
H314 C288 0.934 . S
H315 C289 0.930 . S
H316 C294 0.930 . S
H317 C295 0.931 . S
H318 C297 0.934 . S
H319 C298 0.930 . S
Ho320 C323 2.811 . S
Ho320 O340 2.322 . S
Ho320 O342 2.378 . S
Ho320 O343 2.524 . S
Ho320 O344 2.381 . S
Ho320 O345 2.669 . S
Ho320 O347 2.346 . S
Ho320 O351 2.305 . S
Ho321 C332 2.811 . S
Ho321 O341 2.346 . S
Ho321 O345 2.305 . S
Ho321 O346 2.322 . S
Ho321 O348 2.378 . S
Ho321 O349 2.524 . S
Ho321 O350 2.381 . S
Ho321 O351 2.669 . S
C322 O340 1.259 . S
C322 O341 1.268 . S
C323 Ho320 2.811 . S
C323 C324 1.488 . S
C323 O342 1.215 . S
C323 O343 1.289 . S
C324 C323 1.488 . S
C324 C325 1.348 . S
C324 C329 1.413 . S
C325 C324 1.348 . S
C325 C326 1.442 . S
C325 H352 0.930 . S
C326 C325 1.442 . S
C326 C327 1.381 . S
C326 H353 0.931 . S
C327 C326 1.381 . S
C327 C328 1.321 . S
C328 C327 1.321 . S
C328 C329 1.403 . S
C328 H354 0.934 . S
C329 C324 1.413 . S
C329 C328 1.403 . S
C329 H355 0.930 . S
C330 O344 1.275 . S
C330 O345 1.256 . S
C331 O346 1.259 . S
C331 O347 1.268 . S
C332 Ho321 2.811 . S
C332 C333 1.488 . S
C332 O348 1.215 . S
C332 O349 1.289 . S
C333 C332 1.488 . S
C333 C334 1.348 . S
C333 C338 1.413 . S
C334 C333 1.348 . S
C334 C335 1.442 . S
C334 H356 0.930 . S
C335 C334 1.442 . S
C335 C336 1.381 . S
C335 H357 0.931 . S
C336 C335 1.381 . S
C336 C337 1.321 . S
C337 C336 1.321 . S
C337 C338 1.403 . S
C337 H358 0.934 . S
C338 C333 1.413 . S
C338 C337 1.403 . S
C338 H359 0.930 . S
C339 O350 1.275 . S
C339 O351 1.256 . S
O340 Ho320 2.322 . S
O340 C322 1.259 . S
O341 Ho321 2.346 . S
O341 C322 1.268 . S
O342 Ho320 2.378 . S
O342 C323 1.215 . S
O343 Ho320 2.524 . S
O343 C323 1.289 . S
O344 Ho320 2.381 . S
O344 C330 1.275 . S
O345 Ho320 2.669 . S
O345 Ho321 2.305 . S
O345 C330 1.256 . S
O346 Ho321 2.322 . S
O346 C331 1.259 . S
O347 Ho320 2.346 . S
O347 C331 1.268 . S
O348 Ho321 2.378 . S
O348 C332 1.215 . S
O349 Ho321 2.524 . S
O349 C332 1.289 . S
O350 Ho321 2.381 . S
O350 C339 1.275 . S
O351 Ho320 2.305 . S
O351 Ho321 2.669 . S
O351 C339 1.256 . S
H352 C325 0.930 . S
H353 C326 0.931 . S
H354 C328 0.934 . S
H355 C329 0.930 . S
H356 C334 0.930 . S
H357 C335 0.931 . S
H358 C337 0.934 . S
H359 C338 0.930 . S
Ho360 C363 2.811 . S
Ho360 O380 2.322 1_565 S
Ho360 O382 2.378 . S
Ho360 O383 2.524 . S
Ho360 O384 2.381 1_565 S
Ho360 O385 2.669 1_565 S
Ho360 O387 2.346 . S
Ho360 O391 2.305 . S
Ho361 C372 2.811 . S
Ho361 O381 2.346 . S
Ho361 O385 2.305 . S
Ho361 O386 2.303 1_545 S
Ho361 O388 2.378 . S
Ho361 O389 2.524 . S
Ho361 O390 2.381 1_545 S
Ho361 O391 2.669 1_545 S
C362 O380 1.259 . S
C362 O381 1.268 . S
C363 Ho360 2.811 . S
C363 C364 1.488 . S
C363 O382 1.215 . S
C363 O383 1.289 . S
C364 C363 1.488 . S
C364 C365 1.348 . S
C364 C369 1.413 . S
C365 C364 1.348 . S
C365 C366 1.442 . S
C365 H392 0.930 . S
C366 C365 1.442 . S
C366 C367 1.381 . S
C366 H393 0.931 . S
C367 C366 1.381 . S
C367 C368 1.321 . S
C368 C367 1.321 . S
C368 C369 1.403 . S
C368 H394 0.934 . S
C369 C364 1.413 . S
C369 C368 1.403 . S
C369 H395 0.930 . S
C370 O384 1.275 . S
C370 O385 1.256 . S
C371 O386 1.275 . S
C371 O387 1.268 . S
C372 Ho361 2.811 . S
C372 C373 1.488 . S
C372 O388 1.215 . S
C372 O389 1.289 . S
C373 C372 1.488 . S
C373 C374 1.348 . S
C373 C378 1.413 . S
C374 C373 1.348 . S
C374 C375 1.442 . S
C374 H396 0.930 . S
C375 C374 1.442 . S
C375 C376 1.381 . S
C375 H397 0.931 . S
C376 C375 1.381 . S
C376 C377 1.321 . S
C377 C376 1.321 . S
C377 C378 1.403 . S
C377 H398 0.934 . S
C378 C373 1.413 . S
C378 C377 1.403 . S
C378 H399 0.930 . S
C379 O390 1.275 . S
C379 O391 1.256 . S
O380 Ho360 2.322 1_545 S
O380 C362 1.259 . S
O381 Ho361 2.346 . S
O381 C362 1.268 . S
O382 Ho360 2.378 . S
O382 C363 1.215 . S
O383 Ho360 2.524 . S
O383 C363 1.289 . S
O384 Ho360 2.381 1_545 S
O384 C370 1.275 . S
O385 Ho360 2.669 1_545 S
O385 Ho361 2.305 . S
O385 C370 1.256 . S
O386 Ho361 2.303 1_565 S
O386 C371 1.275 . S
O387 Ho360 2.346 . S
O387 C371 1.268 . S
O388 Ho361 2.378 . S
O388 C372 1.215 . S
O389 Ho361 2.524 . S
O389 C372 1.289 . S
O390 Ho361 2.381 1_565 S
O390 C379 1.275 . S
O391 Ho360 2.305 . S
O391 Ho361 2.669 1_565 S
O391 C379 1.256 . S
H392 C365 0.930 . S
H393 C366 0.931 . S
H394 C368 0.934 . S
H395 C369 0.930 . S
H396 C374 0.930 . S
H397 C375 0.931 . S
H398 C377 0.934 . S
H399 C378 0.930 . S
Ho400 C403 2.811 . S
Ho400 O420 2.322 . S
Ho400 O422 2.378 . S
Ho400 O423 2.524 . S
Ho400 O424 2.381 . S
Ho400 O425 2.669 . S
Ho400 O427 2.346 . S
Ho400 O431 2.305 . S
Ho401 C412 2.811 . S
Ho401 O421 2.346 1_545 S
Ho401 O425 2.305 1_545 S
Ho401 O426 2.322 . S
Ho401 O428 2.378 . S
Ho401 O429 2.524 . S
Ho401 O430 2.381 . S
Ho401 O431 2.669 1_545 S
C402 O420 1.259 . S
C402 O421 1.268 . S
C403 Ho400 2.811 . S
C403 C404 1.488 . S
C403 O422 1.215 . S
C403 O423 1.289 . S
C404 C403 1.488 . S
C404 C405 1.348 . S
C404 C409 1.413 . S
C405 C404 1.348 . S
C405 C406 1.442 . S
C405 H432 0.930 . S
C406 C405 1.442 . S
C406 C407 1.381 . S
C406 H433 0.931 . S
C407 C406 1.381 . S
C407 C408 1.321 . S
C408 C407 1.321 . S
C408 C409 1.403 . S
C408 H434 0.934 . S
C409 C404 1.413 . S
C409 C408 1.403 . S
C409 H435 0.930 . S
C410 O424 1.275 . S
C410 O425 1.256 . S
C411 O426 1.259 . S
C411 O427 1.268 1_545 S
C412 Ho401 2.811 . S
C412 C413 1.488 . S
C412 O428 1.215 . S
C412 O429 1.289 . S
C413 C412 1.488 . S
C413 C414 1.348 . S
C413 C418 1.413 . S
C414 C413 1.348 . S
C414 C415 1.442 . S
C414 H436 0.930 . S
C415 C414 1.442 . S
C415 C416 1.381 . S
C415 H437 0.931 . S
C416 C415 1.381 . S
C416 C417 1.321 . S
C417 C416 1.321 . S
C417 C418 1.403 . S
C417 H438 0.934 . S
C418 C413 1.413 . S
C418 C417 1.403 . S
C418 H439 0.930 . S
C419 O430 1.275 . S
C419 O431 1.256 1_545 S
O420 Ho400 2.322 . S
O420 C402 1.259 . S
O421 Ho401 2.346 1_565 S
O421 C402 1.268 . S
O422 Ho400 2.378 . S
O422 C403 1.215 . S
O423 Ho400 2.524 . S
O423 C403 1.289 . S
O424 Ho400 2.381 . S
O424 C410 1.275 . S
O425 Ho400 2.669 . S
O425 Ho401 2.305 1_565 S
O425 C410 1.256 . S
O426 Ho401 2.322 . S
O426 C411 1.259 . S
O427 Ho400 2.346 . S
O427 C411 1.268 1_565 S
O428 Ho401 2.378 . S
O428 C412 1.215 . S
O429 Ho401 2.524 . S
O429 C412 1.289 . S
O430 Ho401 2.381 . S
O430 C419 1.275 . S
O431 Ho400 2.305 . S
O431 Ho401 2.669 1_565 S
O431 C419 1.256 1_565 S
H432 C405 0.930 . S
H433 C406 0.931 . S
H434 C408 0.934 . S
H435 C409 0.930 . S
H436 C414 0.930 . S
H437 C415 0.931 . S
H438 C417 0.934 . S
H439 C418 0.930 . S
Ho440 C443 2.811 . S
Ho440 O460 2.322 . S
Ho440 O462 2.378 . S
Ho440 O463 2.524 . S
Ho440 O464 2.381 . S
Ho440 O465 2.669 . S
Ho440 O467 2.346 . S
Ho440 O471 2.305 . S
Ho441 C452 2.811 . S
Ho441 O461 2.346 . S
Ho441 O465 2.305 . S
Ho441 O466 2.322 . S
Ho441 O468 2.378 . S
Ho441 O469 2.524 . S
Ho441 O470 2.381 . S
Ho441 O471 2.669 . S
C442 O460 1.259 . S
C442 O461 1.268 . S
C443 Ho440 2.811 . S
C443 C444 1.488 . S
C443 O462 1.215 . S
C443 O463 1.289 . S
C444 C443 1.488 . S
C444 C445 1.348 . S
C444 C449 1.413 . S
C445 C444 1.348 . S
C445 C446 1.442 . S
C445 H472 0.930 . S
C446 C445 1.442 . S
C446 C447 1.381 . S
C446 H473 0.931 . S
C447 C446 1.381 . S
C447 C448 1.321 . S
C448 C447 1.321 . S
C448 C449 1.403 . S
C448 H474 0.934 . S
C449 C444 1.413 . S
C449 C448 1.403 . S
C449 H475 0.930 . S
C450 O464 1.275 . S
C450 O465 1.256 . S
C451 O466 1.259 . S
C451 O467 1.268 . S
C452 Ho441 2.811 . S
C452 C453 1.488 . S
C452 O468 1.215 . S
C452 O469 1.289 . S
C453 C452 1.488 . S
C453 C454 1.348 . S
C453 C458 1.413 . S
C454 C453 1.348 . S
C454 C455 1.442 . S
C454 H476 0.930 . S
C455 C454 1.442 . S
C455 C456 1.381 . S
C455 H477 0.931 . S
C456 C455 1.381 . S
C456 C457 1.321 . S
C457 C456 1.321 . S
C457 C458 1.403 . S
C457 H478 0.934 . S
C458 C453 1.413 . S
C458 C457 1.403 . S
C458 H479 0.930 . S
C459 O470 1.275 . S
C459 O471 1.256 . S
O460 Ho440 2.322 . S
O460 C442 1.259 . S
O461 Ho441 2.346 . S
O461 C442 1.268 . S
O462 Ho440 2.378 . S
O462 C443 1.215 . S
O463 Ho440 2.524 . S
O463 C443 1.289 . S
O464 Ho440 2.381 . S
O464 C450 1.275 . S
O465 Ho440 2.669 . S
O465 Ho441 2.305 . S
O465 C450 1.256 . S
O466 Ho441 2.322 . S
O466 C451 1.259 . S
O467 Ho440 2.346 . S
O467 C451 1.268 . S
O468 Ho441 2.378 . S
O468 C452 1.215 . S
O469 Ho441 2.524 . S
O469 C452 1.289 . S
O470 Ho441 2.381 . S
O470 C459 1.275 . S
O471 Ho440 2.305 . S
O471 Ho441 2.669 . S
O471 C459 1.256 . S
H472 C445 0.930 . S
H473 C446 0.931 . S
H474 C448 0.934 . S
H475 C449 0.930 . S
H476 C454 0.930 . S
H477 C455 0.931 . S
H478 C457 0.934 . S
H479 C458 0.930 . S
H480 C498 0.951 . S
H481 C500 0.951 . S
H482 C502 0.950 . S
H483 C503 0.950 . S
H484 C505 0.950 . S
H485 C508 0.950 . S
H486 C509 0.950 . S
H487 C511 0.950 . S
H488 C512 0.950 . S
H489 C513 0.951 . S
H490 C515 0.951 . S
H491 C517 0.950 . S
H492 C518 0.950 . S
H493 C520 0.950 . S
H494 C523 0.950 . S
H495 C524 0.950 . S
H496 C526 0.950 . S
H497 C527 0.950 . S
C498 H480 0.951 . S
C498 C499 1.366 . S
C498 C500 1.388 . S
C499 C498 1.366 . S
C499 C503 1.385 . S
C500 H481 0.951 . S
C500 C498 1.388 . S
C500 C501 1.366 . S
C501 C500 1.366 . S
C501 C502 1.414 . S
C501 C504 1.499 . S
C502 H482 0.950 . S
C502 C501 1.414 . S
C502 C503 1.374 . S
C503 H483 0.950 . S
C503 C499 1.385 . S
C503 C502 1.374 . S
C504 C501 1.499 . S
C504 C505 1.373 . S
C504 C506 1.389 . S
C505 H484 0.950 . S
C505 C504 1.373 . S
C505 C521 1.377 . S
C506 C504 1.389 . S
C506 C507 1.524 . S
C506 C520 1.377 . S
C507 C506 1.524 . S
C507 C508 1.397 . S
C507 C512 1.363 . S
C508 H485 0.950 . S
C508 C507 1.397 . S
C508 C509 1.334 . S
C509 H486 0.950 . S
C509 C508 1.334 . S
C509 C510 1.287 . S
C510 C509 1.287 . S
C510 C511 1.524 . S
C510 H529 0.913 . S
C511 H487 0.950 . S
C511 C510 1.524 . S
C511 C512 1.415 . S
C512 H488 0.950 . S
C512 C507 1.363 . S
C512 C511 1.415 . S
C513 H489 0.951 . S
C513 C514 1.366 . S
C513 C515 1.388 . S
C514 C513 1.366 . S
C514 C518 1.385 . S
C515 H490 0.951 . S
C515 C513 1.388 . S
C515 C516 1.366 . S
C516 C515 1.366 . S
C516 C517 1.414 . S
C516 C519 1.499 . S
C517 H491 0.950 . S
C517 C516 1.414 . S
C517 C518 1.374 . S
C518 H492 0.950 . S
C518 C514 1.385 . S
C518 C517 1.374 . S
C519 C516 1.499 . S
C519 C520 1.373 . S
C519 C521 1.389 . S
C520 H493 0.950 . S
C520 C506 1.377 . S
C520 C519 1.373 . S
C521 C505 1.377 . S
C521 C519 1.389 . S
C521 C522 1.524 . S
C522 C521 1.524 . S
C522 C523 1.397 . S
C522 C527 1.363 . S
C523 H494 0.950 . S
C523 C522 1.397 . S
C523 C524 1.334 . S
C524 H495 0.950 . S
C524 C523 1.334 . S
C524 C525 1.287 . S
C525 C524 1.287 . S
C525 C526 1.524 . S
C525 H528 0.999 . S
C526 H496 0.950 . S
C526 C525 1.524 . S
C526 C527 1.415 . S
C527 H497 0.950 . S
C527 C522 1.363 . S
C527 C526 1.415 . S
H528 C525 0.999 . S
H529 C510 0.913 . S
H530 C548 0.951 . S
H531 C550 0.951 . S
H532 C552 0.950 1_545 S
H533 C553 0.950 1_545 S
H534 C555 0.950 . S
H535 C558 0.950 . S
H536 C559 0.950 . S
H537 C561 0.950 . S
H538 C562 0.950 . S
H539 C563 0.951 . S
H540 C565 0.951 . S
H541 C567 0.950 . S
H542 C568 0.950 . S
H543 C570 0.950 . S
H544 C573 0.950 . S
H545 C574 0.950 . S
H546 C576 0.950 . S
H547 C577 0.950 1_545 S
C548 H530 0.951 . S
C548 C549 1.366 . S
C548 C550 1.388 . S
C549 C548 1.366 . S
C549 C553 1.385 . S
C550 H531 0.951 . S
C550 C548 1.388 . S
C550 C551 1.366 . S
C551 C550 1.366 . S
C551 C552 1.414 . S
C551 C554 1.499 . S
C552 H532 0.950 1_565 S
C552 C551 1.414 . S
C552 C553 1.374 . S
C553 H533 0.950 1_565 S
C553 C549 1.385 . S
C553 C552 1.374 . S
C554 C551 1.499 . S
C554 C555 1.373 . S
C554 C556 1.389 . S
C555 H534 0.950 . S
C555 C554 1.373 . S
C555 C571 1.377 . S
C556 C554 1.389 . S
C556 C557 1.524 . S
C556 C570 1.377 . S
C557 C556 1.524 . S
C557 C558 1.397 . S
C557 C562 1.363 . S
C558 H535 0.950 . S
C558 C557 1.397 . S
C558 C559 1.334 . S
C559 H536 0.950 . S
C559 C558 1.334 . S
C559 C560 1.287 . S
C560 C559 1.287 . S
C560 C561 1.524 . S
C560 H579 0.913 . S
C561 H537 0.950 . S
C561 C560 1.524 . S
C561 C562 1.415 . S
C562 H538 0.950 . S
C562 C557 1.363 . S
C562 C561 1.415 . S
C563 H539 0.951 . S
C563 C564 1.366 . S
C563 C565 1.388 . S
C564 C563 1.366 . S
C564 C568 1.385 . S
C565 H540 0.951 . S
C565 C563 1.388 . S
C565 C566 1.366 . S
C566 C565 1.366 . S
C566 C567 1.414 . S
C566 C569 1.499 . S
C567 H541 0.950 . S
C567 C566 1.414 . S
C567 C568 1.374 . S
C568 H542 0.950 . S
C568 C564 1.385 . S
C568 C567 1.374 . S
C569 C566 1.499 . S
C569 C570 1.373 . S
C569 C571 1.389 . S
C570 H543 0.950 . S
C570 C556 1.377 . S
C570 C569 1.373 . S
C571 C555 1.377 . S
C571 C569 1.389 . S
C571 C572 1.524 . S
C572 C571 1.524 . S
C572 C573 1.397 . S
C572 C577 1.363 . S
C573 H544 0.950 . S
C573 C572 1.397 . S
C573 C574 1.334 . S
C574 H545 0.950 . S
C574 C573 1.334 . S
C574 C575 1.287 . S
C575 C574 1.287 . S
C575 C576 1.524 1_565 S
C575 H578 0.999 1_565 S
C576 H546 0.950 . S
C576 C575 1.524 1_545 S
C576 C577 1.415 1_545 S
C577 H547 0.950 1_565 S
C577 C572 1.363 . S
C577 C576 1.415 1_565 S
H578 C575 0.999 1_545 S
H579 C560 0.913 . S
H580 C598 0.951 . S
H581 C600 0.951 . S
H582 C602 0.950 . S
H583 C603 0.960 . S
H584 C605 0.950 . S
H585 C608 0.950 . S
H586 C609 0.950 . S
H587 C611 0.950 . S
H588 C612 0.950 1_554 S
H589 C613 0.951 . S
H590 C615 0.951 . S
H591 C617 0.950 . S
H592 C618 0.950 . S
H593 C620 0.950 . S
H594 C623 0.950 . S
H595 C624 0.950 . S
H596 C626 0.950 . S
H597 C627 0.950 . S
C598 H580 0.951 . S
C598 C599 1.366 1_554 S
C598 C600 1.388 . S
C599 C598 1.366 1_556 S
C599 C603 1.388 . S
C600 H581 0.951 . S
C600 C598 1.388 . S
C600 C601 1.366 . S
C601 C600 1.366 . S
C601 C602 1.414 . S
C601 C604 1.499 . S
C602 H582 0.950 . S
C602 C601 1.414 . S
C602 C603 1.362 1_554 S
C603 H583 0.960 . S
C603 C599 1.388 . S
C603 C602 1.362 1_556 S
C604 C601 1.499 . S
C604 C605 1.373 . S
C604 C606 1.389 . S
C605 H584 0.950 . S
C605 C604 1.373 . S
C605 C621 1.377 . S
C606 C604 1.389 . S
C606 C607 1.524 1_554 S
C606 C620 1.377 . S
C607 C606 1.524 1_556 S
C607 C608 1.397 . S
C607 C612 1.363 . S
C608 H585 0.950 . S
C608 C607 1.397 . S
C608 C609 1.334 . S
C609 H586 0.950 . S
C609 C608 1.334 . S
C609 C610 1.287 . S
C610 C609 1.287 . S
C610 C611 1.524 . S
C610 H629 0.913 . S
C611 H587 0.950 . S
C611 C610 1.524 . S
C611 C612 1.415 . S
C612 H588 0.950 1_556 S
C612 C607 1.363 . S
C612 C611 1.415 . S
C613 H589 0.951 . S
C613 C614 1.366 . S
C613 C615 1.388 . S
C614 C613 1.366 . S
C614 C618 1.385 . S
C615 H590 0.951 . S
C615 C613 1.388 . S
C615 C616 1.366 . S
C616 C615 1.366 . S
C616 C617 1.414 . S
C616 C619 1.499 . S
C617 H591 0.950 . S
C617 C616 1.414 . S
C617 C618 1.374 . S
C618 H592 0.950 . S
C618 C614 1.385 . S
C618 C617 1.374 . S
C619 C616 1.499 . S
C619 C620 1.373 . S
C619 C621 1.389 . S
C620 H593 0.950 . S
C620 C606 1.377 . S
C620 C619 1.373 . S
C621 C605 1.377 . S
C621 C619 1.389 . S
C621 C622 1.524 . S
C622 C621 1.524 . S
C622 C623 1.397 . S
C622 C627 1.363 . S
C623 H594 0.950 . S
C623 C622 1.397 . S
C623 C624 1.334 . S
C624 H595 0.950 . S
C624 C623 1.334 . S
C624 C625 1.287 . S
C625 C624 1.287 . S
C625 C626 1.524 . S
C625 H628 0.999 . S
C626 H596 0.950 . S
C626 C625 1.524 . S
C626 C627 1.415 . S
C627 H597 0.950 . S
C627 C622 1.363 . S
C627 C626 1.415 . S
H628 C625 0.999 . S
H629 C610 0.913 . S
H630 C648 0.951 . S
H631 C650 0.951 . S
H632 C652 0.950 . S
H633 C653 0.950 . S
H634 C655 0.950 . S
H635 C658 0.950 . S
H636 C659 0.950 . S
H637 C661 0.950 . S
H638 C662 0.950 . S
H639 C663 0.951 1_565 S
H640 C665 0.951 1_565 S
H641 C667 0.950 . S
H642 C668 0.950 . S
H643 C670 0.950 . S
H644 C673 0.950 . S
H645 C674 0.950 . S
H646 C676 0.950 . S
H647 C677 0.950 . S
C648 H630 0.951 . S
C648 C649 1.366 . S
C648 C650 1.388 . S
C649 C648 1.366 . S
C649 C653 1.385 . S
C650 H631 0.951 . S
C650 C648 1.388 . S
C650 C651 1.366 . S
C651 C650 1.366 . S
C651 C652 1.414 . S
C651 C654 1.499 . S
C652 H632 0.950 . S
C652 C651 1.414 . S
C652 C653 1.374 . S
C653 H633 0.950 . S
C653 C649 1.385 . S
C653 C652 1.374 . S
C654 C651 1.499 . S
C654 C655 1.373 . S
C654 C656 1.389 . S
C655 H634 0.950 . S
C655 C654 1.373 . S
C655 C671 1.377 . S
C656 C654 1.389 . S
C656 C657 1.524 . S
C656 C670 1.377 . S
C657 C656 1.524 . S
C657 C658 1.397 . S
C657 C662 1.363 . S
C658 H635 0.950 . S
C658 C657 1.397 . S
C658 C659 1.334 . S
C659 H636 0.950 . S
C659 C658 1.334 . S
C659 C660 1.287 . S
C660 C659 1.287 . S
C660 C661 1.524 . S
C660 H679 0.913 . S
C661 H637 0.950 . S
C661 C660 1.524 . S
C661 C662 1.415 . S
C662 H638 0.950 . S
C662 C657 1.363 . S
C662 C661 1.415 . S
C663 H639 0.951 1_545 S
C663 C664 1.366 . S
C663 C665 1.388 . S
C664 C663 1.366 . S
C664 C668 1.385 . S
C665 H640 0.951 1_545 S
C665 C663 1.388 . S
C665 C666 1.366 . S
C666 C665 1.366 . S
C666 C667 1.414 . S
C666 C669 1.499 . S
C667 H641 0.950 . S
C667 C666 1.414 . S
C667 C668 1.374 . S
C668 H642 0.950 . S
C668 C664 1.385 . S
C668 C667 1.374 . S
C669 C666 1.499 . S
C669 C670 1.373 . S
C669 C671 1.389 . S
C670 H643 0.950 . S
C670 C656 1.377 . S
C670 C669 1.373 . S
C671 C655 1.377 . S
C671 C669 1.389 . S
C671 C672 1.524 . S
C672 C671 1.524 . S
C672 C673 1.397 . S
C672 C677 1.363 1_545 S
C673 H644 0.950 . S
C673 C672 1.397 . S
C673 C674 1.334 1_545 S
C674 H645 0.950 . S
C674 C673 1.334 1_565 S
C674 C675 1.287 . S
C675 C674 1.287 . S
C675 C676 1.524 . S
C675 H678 0.999 . S
C676 H646 0.950 . S
C676 C675 1.524 . S
C676 C677 1.415 . S
C677 H647 0.950 . S
C677 C672 1.363 1_565 S
C677 C676 1.415 . S
H678 C675 0.999 . S
H679 C660 0.913 . S
H680 C698 0.951 . S
H681 C700 0.951 . S
H682 C702 0.950 . S
H683 C703 0.950 . S
H684 C705 0.950 . S
H685 C708 0.950 . S
H686 C709 0.950 . S
H687 C711 0.950 . S
H688 C712 0.950 . S
H689 C713 0.951 . S
H690 C715 0.951 . S
H691 C717 0.950 . S
H692 C718 0.950 . S
H693 C720 0.950 . S
H694 C723 0.950 . S
H695 C724 0.950 . S
H696 C726 0.950 . S
H697 C727 0.950 . S
C698 H680 0.951 . S
C698 C699 1.366 . S
C698 C700 1.388 . S
C699 C698 1.366 . S
C699 C703 1.385 . S
C700 H681 0.951 . S
C700 C698 1.388 . S
C700 C701 1.366 . S
C701 C700 1.366 . S
C701 C702 1.414 . S
C701 C704 1.499 . S
C702 H682 0.950 . S
C702 C701 1.414 . S
C702 C703 1.374 . S
C703 H683 0.950 . S
C703 C699 1.385 . S
C703 C702 1.374 . S
C704 C701 1.499 . S
C704 C705 1.373 . S
C704 C706 1.389 . S
C705 H684 0.950 . S
C705 C704 1.373 . S
C705 C721 1.377 . S
C706 C704 1.389 . S
C706 C707 1.524 . S
C706 C720 1.377 . S
C707 C706 1.524 . S
C707 C708 1.397 . S
C707 C712 1.363 . S
C708 H685 0.950 . S
C708 C707 1.397 . S
C708 C709 1.334 . S
C709 H686 0.950 . S
C709 C708 1.334 . S
C709 C710 1.287 . S
C710 C709 1.287 . S
C710 C711 1.524 . S
C710 H729 0.913 . S
C711 H687 0.950 . S
C711 C710 1.524 . S
C711 C712 1.415 . S
C712 H688 0.950 . S
C712 C707 1.363 . S
C712 C711 1.415 . S
C713 H689 0.951 . S
C713 C714 1.366 . S
C713 C715 1.388 . S
C714 C713 1.366 . S
C714 C718 1.385 . S
C715 H690 0.951 . S
C715 C713 1.388 . S
C715 C716 1.366 . S
C716 C715 1.366 . S
C716 C717 1.414 . S
C716 C719 1.499 . S
C717 H691 0.950 . S
C717 C716 1.414 . S
C717 C718 1.374 . S
C718 H692 0.950 . S
C718 C714 1.385 . S
C718 C717 1.374 . S
C719 C716 1.499 . S
C719 C720 1.373 . S
C719 C721 1.389 . S
C720 H693 0.950 . S
C720 C706 1.377 . S
C720 C719 1.373 . S
C721 C705 1.377 . S
C721 C719 1.389 . S
C721 C722 1.524 . S
C722 C721 1.524 . S
C722 C723 1.397 . S
C722 C727 1.363 . S
C723 H694 0.950 . S
C723 C722 1.397 . S
C723 C724 1.334 . S
C724 H695 0.950 . S
C724 C723 1.334 . S
C724 C725 1.287 . S
C725 C724 1.287 . S
C725 C726 1.524 . S
C725 H728 0.999 . S
C726 H696 0.950 . S
C726 C725 1.524 . S
C726 C727 1.415 . S
C727 H697 0.950 . S
C727 C722 1.363 . S
C727 C726 1.415 . S
H728 C725 0.999 . S
H729 C710 0.913 . S
H730 C748 0.951 . S
H731 C750 0.951 . S
H732 C752 0.950 . S
H733 C753 0.950 . S
H734 C755 0.950 . S
H735 C758 0.950 . S
H736 C759 0.950 . S
H737 C761 0.950 . S
H738 C762 0.950 . S
H739 C763 0.951 . S
H740 C765 0.951 . S
H741 C767 0.950 . S
H742 C768 0.950 . S
H743 C770 0.950 . S
H744 C773 0.950 . S
H745 C774 0.950 . S
H746 C776 0.950 . S
H747 C777 0.950 . S
C748 H730 0.951 . S
C748 C749 1.366 . S
C748 C750 1.388 . S
C749 C748 1.366 . S
C749 C753 1.385 . S
C750 H731 0.951 . S
C750 C748 1.388 . S
C750 C751 1.366 . S
C751 C750 1.366 . S
C751 C752 1.414 . S
C751 C754 1.499 . S
C752 H732 0.950 . S
C752 C751 1.414 . S
C752 C753 1.374 . S
C753 H733 0.950 . S
C753 C749 1.385 . S
C753 C752 1.374 . S
C754 C751 1.499 . S
C754 C755 1.373 . S
C754 C756 1.389 . S
C755 H734 0.950 . S
C755 C754 1.373 . S
C755 C771 1.377 . S
C756 C754 1.389 . S
C756 C757 1.524 . S
C756 C770 1.377 . S
C757 C756 1.524 . S
C757 C758 1.397 . S
C757 C762 1.363 . S
C758 H735 0.950 . S
C758 C757 1.397 . S
C758 C759 1.334 . S
C759 H736 0.950 . S
C759 C758 1.334 . S
C759 C760 1.287 . S
C760 C759 1.287 . S
C760 C761 1.524 . S
C760 H779 0.913 . S
C761 H737 0.950 . S
C761 C760 1.524 . S
C761 C762 1.415 . S
C762 H738 0.950 . S
C762 C757 1.363 . S
C762 C761 1.415 . S
C763 H739 0.951 . S
C763 C764 1.366 . S
C763 C765 1.388 . S
C764 C763 1.366 . S
C764 C768 1.385 . S
C765 H740 0.951 . S
C765 C763 1.388 . S
C765 C766 1.366 . S
C766 C765 1.366 . S
C766 C767 1.414 . S
C766 C769 1.499 . S
C767 H741 0.950 . S
C767 C766 1.414 . S
C767 C768 1.374 . S
C768 H742 0.950 . S
C768 C764 1.385 . S
C768 C767 1.374 . S
C769 C766 1.499 . S
C769 C770 1.373 . S
C769 C771 1.389 . S
C770 H743 0.950 . S
C770 C756 1.377 . S
C770 C769 1.373 . S
C771 C755 1.377 . S
C771 C769 1.389 . S
C771 C772 1.524 . S
C772 C771 1.524 . S
C772 C773 1.397 . S
C772 C777 1.363 . S
C773 H744 0.950 . S
C773 C772 1.397 . S
C773 C774 1.334 . S
C774 H745 0.950 . S
C774 C773 1.334 . S
C774 C775 1.287 . S
C775 C774 1.287 . S
C775 C776 1.524 . S
C775 H778 0.999 . S
C776 H746 0.950 . S
C776 C775 1.524 . S
C776 C777 1.415 . S
C777 H747 0.950 . S
C777 C772 1.363 . S
C777 C776 1.415 . S
H778 C775 0.999 . S
H779 C760 0.913 . S
H780 C798 0.951 . S
H781 C800 0.951 . S
H782 C802 0.950 . S
H783 C803 0.950 . S
H784 C805 0.950 . S
H785 C808 0.950 . S
H786 C809 0.950 . S
H787 C811 0.950 . S
H788 C812 0.950 1_554 S
H789 C813 0.951 . S
H790 C815 0.951 . S
H791 C817 0.950 1_554 S
H792 C818 0.963 . S
H793 C820 0.950 . S
H794 C823 0.950 . S
H795 C824 0.950 . S
H796 C826 0.950 . S
H797 C827 0.950 . S
C798 H780 0.951 . S
C798 C799 1.366 . S
C798 C800 1.388 . S
C799 C798 1.366 . S
C799 C803 1.385 . S
C800 H781 0.951 . S
C800 C798 1.388 . S
C800 C801 1.366 . S
C801 C800 1.366 . S
C801 C802 1.414 . S
C801 C804 1.499 . S
C802 H782 0.950 . S
C802 C801 1.414 . S
C802 C803 1.374 . S
C803 H783 0.950 . S
C803 C799 1.385 . S
C803 C802 1.374 . S
C804 C801 1.499 . S
C804 C805 1.373 . S
C804 C806 1.389 . S
C805 H784 0.950 . S
C805 C804 1.373 . S
C805 C821 1.377 . S
C806 C804 1.389 . S
C806 C807 1.524 . S
C806 C820 1.377 . S
C807 C806 1.524 . S
C807 C808 1.397 . S
C807 C812 1.363 . S
C808 H785 0.950 . S
C808 C807 1.397 . S
C808 C809 1.334 . S
C809 H786 0.950 . S
C809 C808 1.334 . S
C809 C810 1.287 . S
C810 C809 1.287 . S
C810 C811 1.524 1_556 S
C810 H829 0.913 . S
C811 H787 0.950 . S
C811 C810 1.524 1_554 S
C811 C812 1.415 1_554 S
C812 H788 0.950 1_556 S
C812 C807 1.363 . S
C812 C811 1.415 1_556 S
C813 H789 0.951 . S
C813 C814 1.366 . S
C813 C815 1.388 . S
C814 C813 1.366 . S
C814 C818 1.376 1_556 S
C815 H790 0.951 . S
C815 C813 1.388 . S
C815 C816 1.366 . S
C816 C815 1.366 . S
C816 C817 1.414 . S
C816 C819 1.499 . S
C817 H791 0.950 1_556 S
C817 C816 1.414 . S
C817 C818 1.370 1_556 S
C818 H792 0.963 . S
C818 C814 1.376 1_554 S
C818 C817 1.370 1_554 S
C819 C816 1.499 . S
C819 C820 1.373 . S
C819 C821 1.389 . S
C820 H793 0.950 . S
C820 C806 1.377 . S
C820 C819 1.373 . S
C821 C805 1.377 . S
C821 C819 1.389 . S
C821 C822 1.524 . S
C822 C821 1.524 . S
C822 C823 1.397 . S
C822 C827 1.363 . S
C823 H794 0.950 . S
C823 C822 1.397 . S
C823 C824 1.334 . S
C824 H795 0.950 . S
C824 C823 1.334 . S
C824 C825 1.287 . S
C825 C824 1.287 . S
C825 C826 1.524 . S
C825 H828 0.999 . S
C826 H796 0.950 . S
C826 C825 1.524 . S
C826 C827 1.415 . S
C827 H797 0.950 . S
C827 C822 1.363 . S
C827 C826 1.415 . S
H828 C825 0.999 . S
H829 C810 0.913 . S
H830 C848 0.951 . S
H831 C850 0.951 . S
H832 C852 0.950 . S
H833 C853 0.950 . S
H834 C855 0.950 . S
H835 C858 0.950 . S
H836 C859 0.950 . S
H837 C861 0.950 . S
H838 C862 0.950 . S
H839 C863 0.951 . S
H840 C865 0.951 . S
H841 C867 0.950 . S
H842 C868 0.950 . S
H843 C870 0.950 . S
H844 C873 0.950 . S
H845 C874 0.950 . S
H846 C876 0.950 . S
H847 C877 0.950 . S
C848 H830 0.951 . S
C848 C849 1.366 . S
C848 C850 1.388 . S
C849 C848 1.366 . S
C849 C853 1.385 . S
C850 H831 0.951 . S
C850 C848 1.388 . S
C850 C851 1.366 . S
C851 C850 1.366 . S
C851 C852 1.414 . S
C851 C854 1.499 . S
C852 H832 0.950 . S
C852 C851 1.414 . S
C852 C853 1.374 . S
C853 H833 0.950 . S
C853 C849 1.385 . S
C853 C852 1.374 . S
C854 C851 1.499 . S
C854 C855 1.373 . S
C854 C856 1.389 . S
C855 H834 0.950 . S
C855 C854 1.373 . S
C855 C871 1.377 . S
C856 C854 1.389 . S
C856 C857 1.524 . S
C856 C870 1.377 . S
C857 C856 1.524 . S
C857 C858 1.397 . S
C857 C862 1.363 . S
C858 H835 0.950 . S
C858 C857 1.397 . S
C858 C859 1.334 . S
C859 H836 0.950 . S
C859 C858 1.334 . S
C859 C860 1.287 . S
C860 C859 1.287 . S
C860 C861 1.524 . S
C860 H879 0.913 . S
C861 H837 0.950 . S
C861 C860 1.524 . S
C861 C862 1.415 . S
C862 H838 0.950 . S
C862 C857 1.363 . S
C862 C861 1.415 . S
C863 H839 0.951 . S
C863 C864 1.366 . S
C863 C865 1.388 . S
C864 C863 1.366 . S
C864 C868 1.385 . S
C865 H840 0.951 . S
C865 C863 1.388 . S
C865 C866 1.366 . S
C866 C865 1.366 . S
C866 C867 1.414 . S
C866 C869 1.499 . S
C867 H841 0.950 . S
C867 C866 1.414 . S
C867 C868 1.374 . S
C868 H842 0.950 . S
C868 C864 1.385 . S
C868 C867 1.374 . S
C869 C866 1.499 . S
C869 C870 1.373 . S
C869 C871 1.389 . S
C870 H843 0.950 . S
C870 C856 1.377 . S
C870 C869 1.373 . S
C871 C855 1.377 . S
C871 C869 1.389 . S
C871 C872 1.524 . S
C872 C871 1.524 . S
C872 C873 1.397 . S
C872 C877 1.363 . S
C873 H844 0.950 . S
C873 C872 1.397 . S
C873 C874 1.334 . S
C874 H845 0.950 . S
C874 C873 1.334 . S
C874 C875 1.287 . S
C875 C874 1.287 . S
C875 C876 1.524 . S
C875 H878 0.999 . S
C876 H846 0.950 . S
C876 C875 1.524 . S
C876 C877 1.415 . S
C877 H847 0.950 . S
C877 C872 1.363 . S
C877 C876 1.415 . S
H878 C875 0.999 . S
H879 C860 0.913 . S
H880 C898 0.951 . S
H881 C900 0.951 . S
H882 C902 0.950 . S
H883 C903 0.950 . S
H884 C905 0.950 . S
H885 C908 0.950 . S
H886 C909 0.950 . S
H887 C911 0.950 . S
H888 C912 0.950 . S
H889 C913 0.951 . S
H890 C915 0.951 . S
H891 C917 0.950 . S
H892 C918 0.950 . S
H893 C920 0.950 . S
H894 C923 0.950 . S
H895 C924 0.950 . S
H896 C926 0.950 . S
H897 C927 0.950 . S
C898 H880 0.951 . S
C898 C899 1.366 . S
C898 C900 1.388 . S
C899 C898 1.366 . S
C899 C903 1.385 . S
C900 H881 0.951 . S
C900 C898 1.388 . S
C900 C901 1.366 . S
C901 C900 1.366 . S
C901 C902 1.414 . S
C901 C904 1.499 . S
C902 H882 0.950 . S
C902 C901 1.414 . S
C902 C903 1.374 . S
C903 H883 0.950 . S
C903 C899 1.385 . S
C903 C902 1.374 . S
C904 C901 1.499 . S
C904 C905 1.373 . S
C904 C906 1.389 . S
C905 H884 0.950 . S
C905 C904 1.373 . S
C905 C921 1.377 . S
C906 C904 1.389 . S
C906 C907 1.524 . S
C906 C920 1.377 . S
C907 C906 1.524 . S
C907 C908 1.397 . S
C907 C912 1.363 . S
C908 H885 0.950 . S
C908 C907 1.397 . S
C908 C909 1.334 . S
C909 H886 0.950 . S
C909 C908 1.334 . S
C909 C910 1.287 . S
C910 C909 1.287 . S
C910 C911 1.524 . S
C910 H929 0.913 . S
C911 H887 0.950 . S
C911 C910 1.524 . S
C911 C912 1.415 . S
C912 H888 0.950 . S
C912 C907 1.363 . S
C912 C911 1.415 . S
C913 H889 0.951 . S
C913 C914 1.366 . S
C913 C915 1.388 . S
C914 C913 1.366 . S
C914 C918 1.385 . S
C915 H890 0.951 . S
C915 C913 1.388 . S
C915 C916 1.366 . S
C916 C915 1.366 . S
C916 C917 1.414 . S
C916 C919 1.499 . S
C917 H891 0.950 . S
C917 C916 1.414 . S
C917 C918 1.374 . S
C918 H892 0.950 . S
C918 C914 1.385 . S
C918 C917 1.374 . S
C919 C916 1.499 . S
C919 C920 1.373 . S
C919 C921 1.389 . S
C920 H893 0.950 . S
C920 C906 1.377 . S
C920 C919 1.373 . S
C921 C905 1.377 . S
C921 C919 1.389 . S
C921 C922 1.524 . S
C922 C921 1.524 . S
C922 C923 1.397 . S
C922 C927 1.363 . S
C923 H894 0.950 . S
C923 C922 1.397 . S
C923 C924 1.334 . S
C924 H895 0.950 . S
C924 C923 1.334 . S
C924 C925 1.287 . S
C925 C924 1.287 . S
C925 C926 1.524 . S
C925 H928 0.999 . S
C926 H896 0.950 . S
C926 C925 1.524 . S
C926 C927 1.415 . S
C927 H897 0.950 . S
C927 C922 1.363 . S
C927 C926 1.415 . S
H928 C925 0.999 . S
H929 C910 0.913 . S
H930 C948 0.951 . S
H931 C950 0.951 . S
H932 C952 0.950 . S
H933 C953 0.950 . S
H934 C955 0.950 . S
H935 C958 0.950 . S
H936 C959 0.950 . S
H937 C961 0.950 . S
H938 C962 0.951 1_455 S
H939 C963 0.951 . S
H940 C965 0.951 . S
H941 C967 0.950 . S
H942 C968 0.950 . S
H943 C970 0.950 . S
H944 C973 0.950 . S
H945 C974 0.950 . S
H946 C976 0.950 . S
H947 C977 0.950 . S
C948 H930 0.951 . S
C948 C949 1.366 . S
C948 C950 1.388 . S
C949 C948 1.366 . S
C949 C953 1.385 . S
C950 H931 0.951 . S
C950 C948 1.388 . S
C950 C951 1.366 . S
C951 C950 1.366 . S
C951 C952 1.414 . S
C951 C954 1.499 . S
C952 H932 0.950 . S
C952 C951 1.414 . S
C952 C953 1.374 . S
C953 H933 0.950 . S
C953 C949 1.385 . S
C953 C952 1.374 . S
C954 C951 1.499 . S
C954 C955 1.373 . S
C954 C956 1.389 . S
C955 H934 0.950 . S
C955 C954 1.373 . S
C955 C971 1.377 . S
C956 C954 1.389 . S
C956 C957 1.524 . S
C956 C970 1.377 . S
C957 C956 1.524 . S
C957 C958 1.397 . S
C957 C962 1.365 1_455 S
C958 H935 0.950 . S
C958 C957 1.397 . S
C958 C959 1.334 1_455 S
C959 H936 0.950 . S
C959 C958 1.334 1_655 S
C959 C960 1.287 . S
C960 C959 1.287 . S
C960 C961 1.524 . S
C960 H979 0.913 . S
C961 H937 0.950 . S
C961 C960 1.524 . S
C961 C962 1.411 . S
C962 H938 0.951 1_655 S
C962 C957 1.365 1_655 S
C962 C961 1.411 . S
C963 H939 0.951 . S
C963 C964 1.366 . S
C963 C965 1.388 . S
C964 C963 1.366 . S
C964 C968 1.385 . S
C965 H940 0.951 . S
C965 C963 1.388 . S
C965 C966 1.366 . S
C966 C965 1.366 . S
C966 C967 1.414 . S
C966 C969 1.499 . S
C967 H941 0.950 . S
C967 C966 1.414 . S
C967 C968 1.374 . S
C968 H942 0.950 . S
C968 C964 1.385 . S
C968 C967 1.374 . S
C969 C966 1.499 . S
C969 C970 1.373 . S
C969 C971 1.389 . S
C970 H943 0.950 . S
C970 C956 1.377 . S
C970 C969 1.373 . S
C971 C955 1.377 . S
C971 C969 1.389 . S
C971 C972 1.524 . S
C972 C971 1.524 . S
C972 C973 1.397 . S
C972 C977 1.363 . S
C973 H944 0.950 . S
C973 C972 1.397 . S
C973 C974 1.334 . S
C974 H945 0.950 . S
C974 C973 1.334 . S
C974 C975 1.287 . S
C975 C974 1.287 . S
C975 C976 1.524 . S
C975 H978 0.999 . S
C976 H946 0.950 . S
C976 C975 1.524 . S
C976 C977 1.415 . S
C977 H947 0.950 . S
C977 C972 1.363 . S
C977 C976 1.415 . S
H978 C975 0.999 . S
H979 C960 0.913 . S
H980 C998 0.951 . S
H981 C1000 0.951 . S
H982 C1002 0.950 . S
H983 C1003 0.950 . S
H984 C1005 0.950 . S
H985 C1008 0.950 . S
H986 C1009 0.950 . S
H987 C1011 0.950 . S
H988 C1012 0.950 . S
H989 C1013 0.951 . S
H990 C1015 0.951 . S
H991 C1017 0.950 . S
H992 C1018 0.950 . S
H993 C1020 0.950 . S
H994 C1023 0.950 . S
H995 C1024 0.950 . S
H996 C1026 0.950 . S
H997 C1027 0.950 . S
C998 H980 0.951 . S
C998 C999 1.366 . S
C998 C1000 1.388 . S
C999 C998 1.366 . S
C999 C1003 1.385 1_455 S
C1000 H981 0.951 . S
C1000 C998 1.388 . S
C1000 C1001 1.366 1_455 S
C1001 C1000 1.366 1_655 S
C1001 C1002 1.414 . S
C1001 C1004 1.499 . S
C1002 H982 0.950 . S
C1002 C1001 1.414 . S
C1002 C1003 1.374 . S
C1003 H983 0.950 . S
C1003 C999 1.385 1_655 S
C1003 C1002 1.374 . S
C1004 C1001 1.499 . S
C1004 C1005 1.373 . S
C1004 C1006 1.389 . S
C1005 H984 0.950 . S
C1005 C1004 1.373 . S
C1005 C1021 1.377 . S
C1006 C1004 1.389 . S
C1006 C1007 1.524 . S
C1006 C1020 1.377 . S
C1007 C1006 1.524 . S
C1007 C1008 1.397 . S
C1007 C1012 1.363 1_655 S
C1008 H985 0.950 . S
C1008 C1007 1.397 . S
C1008 C1009 1.334 . S
C1009 H986 0.950 . S
C1009 C1008 1.334 . S
C1009 C1010 1.287 1_655 S
C1010 C1009 1.287 1_455 S
C1010 C1011 1.524 . S
C1010 H1029 0.913 . S
C1011 H987 0.950 . S
C1011 C1010 1.524 . S
C1011 C1012 1.415 . S
C1012 H988 0.950 . S
C1012 C1007 1.363 1_455 S
C1012 C1011 1.415 . S
C1013 H989 0.951 . S
C1013 C1014 1.366 . S
C1013 C1015 1.388 . S
C1014 C1013 1.366 . S
C1014 C1018 1.385 . S
C1015 H990 0.951 . S
C1015 C1013 1.388 . S
C1015 C1016 1.366 . S
C1016 C1015 1.366 . S
C1016 C1017 1.414 . S
C1016 C1019 1.499 . S
C1017 H991 0.950 . S
C1017 C1016 1.414 . S
C1017 C1018 1.374 . S
C1018 H992 0.950 . S
C1018 C1014 1.385 . S
C1018 C1017 1.374 . S
C1019 C1016 1.499 . S
C1019 C1020 1.373 . S
C1019 C1021 1.389 . S
C1020 H993 0.950 . S
C1020 C1006 1.377 . S
C1020 C1019 1.373 . S
C1021 C1005 1.377 . S
C1021 C1019 1.389 . S
C1021 C1022 1.524 . S
C1022 C1021 1.524 . S
C1022 C1023 1.397 . S
C1022 C1027 1.363 . S
C1023 H994 0.950 . S
C1023 C1022 1.397 . S
C1023 C1024 1.334 . S
C1024 H995 0.950 . S
C1024 C1023 1.334 . S
C1024 C1025 1.287 . S
C1025 C1024 1.287 . S
C1025 C1026 1.524 . S
C1025 H1028 0.999 . S
C1026 H996 0.950 . S
C1026 C1025 1.524 . S
C1026 C1027 1.415 . S
C1027 H997 0.950 . S
C1027 C1022 1.363 . S
C1027 C1026 1.415 . S
H1028 C1025 0.999 . S
H1029 C1010 0.913 . S
H1030 C1048 0.951 . S
H1031 C1050 0.951 . S
H1032 C1052 0.950 . S
H1033 C1053 0.950 . S
H1034 C1055 0.950 . S
H1035 C1058 0.950 . S
H1036 C1059 0.950 . S
H1037 C1061 0.950 . S
H1038 C1062 0.950 . S
H1039 C1063 0.951 . S
H1040 C1065 0.951 . S
H1041 C1067 0.950 . S
H1042 C1068 0.950 . S
H1043 C1070 0.950 . S
H1044 C1073 0.950 . S
H1045 C1074 0.950 . S
H1046 C1076 0.950 . S
H1047 C1077 0.950 . S
C1048 H1030 0.951 . S
C1048 C1049 1.366 . S
C1048 C1050 1.388 . S
C1049 C1048 1.366 . S
C1049 C1053 1.385 . S
C1050 H1031 0.951 . S
C1050 C1048 1.388 . S
C1050 C1051 1.366 . S
C1051 C1050 1.366 . S
C1051 C1052 1.414 . S
C1051 C1054 1.499 . S
C1052 H1032 0.950 . S
C1052 C1051 1.414 . S
C1052 C1053 1.374 . S
C1053 H1033 0.950 . S
C1053 C1049 1.385 . S
C1053 C1052 1.374 . S
C1054 C1051 1.499 . S
C1054 C1055 1.373 . S
C1054 C1056 1.389 . S
C1055 H1034 0.950 . S
C1055 C1054 1.373 . S
C1055 C1071 1.377 . S
C1056 C1054 1.389 . S
C1056 C1057 1.524 . S
C1056 C1070 1.377 . S
C1057 C1056 1.524 . S
C1057 C1058 1.397 . S
C1057 C1062 1.363 . S
C1058 H1035 0.950 . S
C1058 C1057 1.397 . S
C1058 C1059 1.334 . S
C1059 H1036 0.950 . S
C1059 C1058 1.334 . S
C1059 C1060 1.287 . S
C1060 C1059 1.287 . S
C1060 C1061 1.524 . S
C1060 H1079 0.913 . S
C1061 H1037 0.950 . S
C1061 C1060 1.524 . S
C1061 C1062 1.415 . S
C1062 H1038 0.950 . S
C1062 C1057 1.363 . S
C1062 C1061 1.415 . S
C1063 H1039 0.951 . S
C1063 C1064 1.366 . S
C1063 C1065 1.388 . S
C1064 C1063 1.366 . S
C1064 C1068 1.385 . S
C1065 H1040 0.951 . S
C1065 C1063 1.388 . S
C1065 C1066 1.366 . S
C1066 C1065 1.366 . S
C1066 C1067 1.414 . S
C1066 C1069 1.499 . S
C1067 H1041 0.950 . S
C1067 C1066 1.414 . S
C1067 C1068 1.374 . S
C1068 H1042 0.950 . S
C1068 C1064 1.385 . S
C1068 C1067 1.374 . S
C1069 C1066 1.499 . S
C1069 C1070 1.373 . S
C1069 C1071 1.389 . S
C1070 H1043 0.950 . S
C1070 C1056 1.377 . S
C1070 C1069 1.373 . S
C1071 C1055 1.377 . S
C1071 C1069 1.389 . S
C1071 C1072 1.524 . S
C1072 C1071 1.524 . S
C1072 C1073 1.397 . S
C1072 C1077 1.363 . S
C1073 H1044 0.950 . S
C1073 C1072 1.397 . S
C1073 C1074 1.334 . S
C1074 H1045 0.950 . S
C1074 C1073 1.334 . S
C1074 C1075 1.287 . S
C1075 C1074 1.287 . S
C1075 C1076 1.524 . S
C1075 H1078 0.999 . S
C1076 H1046 0.950 . S
C1076 C1075 1.524 . S
C1076 C1077 1.415 . S
C1077 H1047 0.950 . S
C1077 C1072 1.363 . S
C1077 C1076 1.415 . S
H1078 C1075 0.999 . S
H1079 C1060 0.913 . S
H1080 C1098 0.951 . S
H1081 C1100 0.951 . S
H1082 C1102 0.950 . S
H1083 C1103 0.950 . S
H1084 C1105 0.950 . S
H1085 C1108 0.950 . S
H1086 C1109 0.950 . S
H1087 C1111 0.950 . S
H1088 C1112 0.950 . S
H1089 C1113 0.951 . S
H1090 C1115 0.951 . S
H1091 C1117 0.950 . S
H1092 C1118 0.950 . S
H1093 C1120 0.950 . S
H1094 C1123 0.950 . S
H1095 C1124 0.950 . S
H1096 C1126 0.950 . S
H1097 C1127 0.950 . S
C1098 H1080 0.951 . S
C1098 C1099 1.366 . S
C1098 C1100 1.388 . S
C1099 C1098 1.366 . S
C1099 C1103 1.385 . S
C1100 H1081 0.951 . S
C1100 C1098 1.388 . S
C1100 C1101 1.366 . S
C1101 C1100 1.366 . S
C1101 C1102 1.414 . S
C1101 C1104 1.499 . S
C1102 H1082 0.950 . S
C1102 C1101 1.414 . S
C1102 C1103 1.374 . S
C1103 H1083 0.950 . S
C1103 C1099 1.385 . S
C1103 C1102 1.374 . S
C1104 C1101 1.499 . S
C1104 C1105 1.373 . S
C1104 C1106 1.389 . S
C1105 H1084 0.950 . S
C1105 C1104 1.373 . S
C1105 C1121 1.377 . S
C1106 C1104 1.389 . S
C1106 C1107 1.524 . S
C1106 C1120 1.377 . S
C1107 C1106 1.524 . S
C1107 C1108 1.397 . S
C1107 C1112 1.363 . S
C1108 H1085 0.950 . S
C1108 C1107 1.397 . S
C1108 C1109 1.334 . S
C1109 H1086 0.950 . S
C1109 C1108 1.334 . S
C1109 C1110 1.287 . S
C1110 C1109 1.287 . S
C1110 C1111 1.524 . S
C1110 H1129 0.913 . S
C1111 H1087 0.950 . S
C1111 C1110 1.524 . S
C1111 C1112 1.415 . S
C1112 H1088 0.950 . S
C1112 C1107 1.363 . S
C1112 C1111 1.415 . S
C1113 H1089 0.951 . S
C1113 C1114 1.366 . S
C1113 C1115 1.388 . S
C1114 C1113 1.366 . S
C1114 C1118 1.385 . S
C1115 H1090 0.951 . S
C1115 C1113 1.388 . S
C1115 C1116 1.366 . S
C1116 C1115 1.366 . S
C1116 C1117 1.414 . S
C1116 C1119 1.499 . S
C1117 H1091 0.950 . S
C1117 C1116 1.414 . S
C1117 C1118 1.374 . S
C1118 H1092 0.950 . S
C1118 C1114 1.385 . S
C1118 C1117 1.374 . S
C1119 C1116 1.499 . S
C1119 C1120 1.373 . S
C1119 C1121 1.389 . S
C1120 H1093 0.950 . S
C1120 C1106 1.377 . S
C1120 C1119 1.373 . S
C1121 C1105 1.377 . S
C1121 C1119 1.389 . S
C1121 C1122 1.524 . S
C1122 C1121 1.524 . S
C1122 C1123 1.397 . S
C1122 C1127 1.363 . S
C1123 H1094 0.950 . S
C1123 C1122 1.397 . S
C1123 C1124 1.334 . S
C1124 H1095 0.950 . S
C1124 C1123 1.334 . S
C1124 C1125 1.287 . S
C1125 C1124 1.287 . S
C1125 C1126 1.524 . S
C1125 H1128 0.999 . S
C1126 H1096 0.950 . S
C1126 C1125 1.524 . S
C1126 C1127 1.415 . S
C1127 H1097 0.950 . S
C1127 C1122 1.363 . S
C1127 C1126 1.415 . S
H1128 C1125 0.999 . S
H1129 C1110 0.913 . S
H1130 C1148 0.951 . S
H1131 C1150 0.951 . S
H1132 C1152 0.950 . S
H1133 C1153 0.950 . S
H1134 C1155 0.950 . S
H1135 C1158 0.950 . S
H1136 C1159 0.950 . S
H1137 C1161 0.950 . S
H1138 C1162 0.950 . S
H1139 C1163 0.951 . S
H1140 C1165 0.951 . S
H1141 C1167 0.950 . S
H1142 C1168 0.950 . S
H1143 C1170 0.950 . S
H1144 C1173 0.950 . S
H1145 C1174 0.950 . S
H1146 C1176 0.950 . S
H1147 C1177 0.950 . S
C1148 H1130 0.951 . S
C1148 C1149 1.366 . S
C1148 C1150 1.388 . S
C1149 C1148 1.366 . S
C1149 C1153 1.385 . S
C1150 H1131 0.951 . S
C1150 C1148 1.388 . S
C1150 C1151 1.366 . S
C1151 C1150 1.366 . S
C1151 C1152 1.414 . S
C1151 C1154 1.499 . S
C1152 H1132 0.950 . S
C1152 C1151 1.414 . S
C1152 C1153 1.374 . S
C1153 H1133 0.950 . S
C1153 C1149 1.385 . S
C1153 C1152 1.374 . S
C1154 C1151 1.499 . S
C1154 C1155 1.373 . S
C1154 C1156 1.389 . S
C1155 H1134 0.950 . S
C1155 C1154 1.373 . S
C1155 C1171 1.377 . S
C1156 C1154 1.389 . S
C1156 C1157 1.524 . S
C1156 C1170 1.377 . S
C1157 C1156 1.524 . S
C1157 C1158 1.397 . S
C1157 C1162 1.363 . S
C1158 H1135 0.950 . S
C1158 C1157 1.397 . S
C1158 C1159 1.334 . S
C1159 H1136 0.950 . S
C1159 C1158 1.334 . S
C1159 C1160 1.287 . S
C1160 C1159 1.287 . S
C1160 C1161 1.524 . S
C1160 H1179 0.913 . S
C1161 H1137 0.950 . S
C1161 C1160 1.524 . S
C1161 C1162 1.415 . S
C1162 H1138 0.950 . S
C1162 C1157 1.363 . S
C1162 C1161 1.415 . S
C1163 H1139 0.951 . S
C1163 C1164 1.366 . S
C1163 C1165 1.388 . S
C1164 C1163 1.366 . S
C1164 C1168 1.385 . S
C1165 H1140 0.951 . S
C1165 C1163 1.388 . S
C1165 C1166 1.366 . S
C1166 C1165 1.366 . S
C1166 C1167 1.414 . S
C1166 C1169 1.499 . S
C1167 H1141 0.950 . S
C1167 C1166 1.414 . S
C1167 C1168 1.374 . S
C1168 H1142 0.950 . S
C1168 C1164 1.385 . S
C1168 C1167 1.374 . S
C1169 C1166 1.499 . S
C1169 C1170 1.373 . S
C1169 C1171 1.389 . S
C1170 H1143 0.950 . S
C1170 C1156 1.377 . S
C1170 C1169 1.373 . S
C1171 C1155 1.377 . S
C1171 C1169 1.389 . S
C1171 C1172 1.524 . S
C1172 C1171 1.524 . S
C1172 C1173 1.397 . S
C1172 C1177 1.363 . S
C1173 H1144 0.950 . S
C1173 C1172 1.397 . S
C1173 C1174 1.334 . S
C1174 H1145 0.950 . S
C1174 C1173 1.334 . S
C1174 C1175 1.287 1_565 S
C1175 C1174 1.287 1_545 S
C1175 C1176 1.524 . S
C1175 H1178 0.999 . S
C1176 H1146 0.950 . S
C1176 C1175 1.524 . S
C1176 C1177 1.415 1_545 S
C1177 H1147 0.950 . S
C1177 C1172 1.363 . S
C1177 C1176 1.415 1_565 S
H1178 C1175 0.999 . S
H1179 C1160 0.913 . S
H1180 C1198 0.951 . S
H1181 C1200 0.951 . S
H1182 C1202 0.950 . S
H1183 C1203 0.950 . S
H1184 C1205 0.950 . S
H1185 C1208 0.950 . S
H1186 C1209 0.950 . S
H1187 C1211 0.950 . S
H1188 C1212 0.950 . S
H1189 C1213 0.951 . S
H1190 C1215 0.951 . S
H1191 C1217 0.950 . S
H1192 C1218 0.950 . S
H1193 C1220 0.950 . S
H1194 C1223 0.950 . S
H1195 C1224 0.950 . S
H1196 C1226 0.950 . S
H1197 C1227 0.950 . S
C1198 H1180 0.951 . S
C1198 C1199 1.366 . S
C1198 C1200 1.388 . S
C1199 C1198 1.366 . S
C1199 C1203 1.385 . S
C1200 H1181 0.951 . S
C1200 C1198 1.388 . S
C1200 C1201 1.366 . S
C1201 C1200 1.366 . S
C1201 C1202 1.414 . S
C1201 C1204 1.499 . S
C1202 H1182 0.950 . S
C1202 C1201 1.414 . S
C1202 C1203 1.374 . S
C1203 H1183 0.950 . S
C1203 C1199 1.385 . S
C1203 C1202 1.374 . S
C1204 C1201 1.499 . S
C1204 C1205 1.373 . S
C1204 C1206 1.389 . S
C1205 H1184 0.950 . S
C1205 C1204 1.373 . S
C1205 C1221 1.377 . S
C1206 C1204 1.389 . S
C1206 C1207 1.524 . S
C1206 C1220 1.377 . S
C1207 C1206 1.524 . S
C1207 C1208 1.397 . S
C1207 C1212 1.363 . S
C1208 H1185 0.950 . S
C1208 C1207 1.397 . S
C1208 C1209 1.334 . S
C1209 H1186 0.950 . S
C1209 C1208 1.334 . S
C1209 C1210 1.287 . S
C1210 C1209 1.287 . S
C1210 C1211 1.524 . S
C1210 H1229 0.913 . S
C1211 H1187 0.950 . S
C1211 C1210 1.524 . S
C1211 C1212 1.415 . S
C1212 H1188 0.950 . S
C1212 C1207 1.363 . S
C1212 C1211 1.415 . S
C1213 H1189 0.951 . S
C1213 C1214 1.366 . S
C1213 C1215 1.388 . S
C1214 C1213 1.366 . S
C1214 C1218 1.385 . S
C1215 H1190 0.951 . S
C1215 C1213 1.388 . S
C1215 C1216 1.366 . S
C1216 C1215 1.366 . S
C1216 C1217 1.414 . S
C1216 C1219 1.499 . S
C1217 H1191 0.950 . S
C1217 C1216 1.414 . S
C1217 C1218 1.374 . S
C1218 H1192 0.950 . S
C1218 C1214 1.385 . S
C1218 C1217 1.374 . S
C1219 C1216 1.499 . S
C1219 C1220 1.373 . S
C1219 C1221 1.389 . S
C1220 H1193 0.950 . S
C1220 C1206 1.377 . S
C1220 C1219 1.373 . S
C1221 C1205 1.377 . S
C1221 C1219 1.389 . S
C1221 C1222 1.524 . S
C1222 C1221 1.524 . S
C1222 C1223 1.397 . S
C1222 C1227 1.363 . S
C1223 H1194 0.950 . S
C1223 C1222 1.397 . S
C1223 C1224 1.334 . S
C1224 H1195 0.950 . S
C1224 C1223 1.334 . S
C1224 C1225 1.287 . S
C1225 C1224 1.287 . S
C1225 C1226 1.524 . S
C1225 H1228 0.999 . S
C1226 H1196 0.950 . S
C1226 C1225 1.524 . S
C1226 C1227 1.415 . S
C1227 H1197 0.950 . S
C1227 C1222 1.363 . S
C1227 C1226 1.415 . S
H1228 C1225 0.999 . S
H1229 C1210 0.913 . S
H1230 C1248 0.951 . S
H1231 C1250 0.951 . S
H1232 C1252 0.950 . S
H1233 C1253 0.950 . S
H1234 C1255 0.950 . S
H1235 C1258 0.950 . S
H1236 C1259 0.950 . S
H1237 C1261 0.950 . S
H1238 C1262 0.950 . S
H1239 C1263 0.951 . S
H1240 C1265 0.951 . S
H1241 C1267 0.950 . S
H1242 C1268 0.950 . S
H1243 C1270 0.956 . S
H1244 C1273 0.950 1_565 S
H1245 C1274 0.950 . S
H1246 C1276 0.950 . S
H1247 C1277 0.950 . S
C1248 H1230 0.951 . S
C1248 C1249 1.366 . S
C1248 C1250 1.388 . S
C1249 C1248 1.366 . S
C1249 C1253 1.385 . S
C1250 H1231 0.951 . S
C1250 C1248 1.388 . S
C1250 C1251 1.366 . S
C1251 C1250 1.366 . S
C1251 C1252 1.414 . S
C1251 C1254 1.499 . S
C1252 H1232 0.950 . S
C1252 C1251 1.414 . S
C1252 C1253 1.374 . S
C1253 H1233 0.950 . S
C1253 C1249 1.385 . S
C1253 C1252 1.374 . S
C1254 C1251 1.499 . S
C1254 C1255 1.373 . S
C1254 C1256 1.389 . S
C1255 H1234 0.950 . S
C1255 C1254 1.373 . S
C1255 C1271 1.377 1_554 S
C1256 C1254 1.389 . S
C1256 C1257 1.524 . S
C1256 C1270 1.343 1_554 S
C1257 C1256 1.524 . S
C1257 C1258 1.397 . S
C1257 C1262 1.363 . S
C1258 H1235 0.950 . S
C1258 C1257 1.397 . S
C1258 C1259 1.334 . S
C1259 H1236 0.950 . S
C1259 C1258 1.334 . S
C1259 C1260 1.287 . S
C1260 C1259 1.287 . S
C1260 C1261 1.524 . S
C1260 H1279 0.913 . S
C1261 H1237 0.950 . S
C1261 C1260 1.524 . S
C1261 C1262 1.415 . S
C1262 H1238 0.950 . S
C1262 C1257 1.363 . S
C1262 C1261 1.415 . S
C1263 H1239 0.951 . S
C1263 C1264 1.366 . S
C1263 C1265 1.388 . S
C1264 C1263 1.366 . S
C1264 C1268 1.385 . S
C1265 H1240 0.951 . S
C1265 C1263 1.388 . S
C1265 C1266 1.366 . S
C1266 C1265 1.366 . S
C1266 C1267 1.414 . S
C1266 C1269 1.499 . S
C1267 H1241 0.950 . S
C1267 C1266 1.414 . S
C1267 C1268 1.374 . S
C1268 H1242 0.950 . S
C1268 C1264 1.385 . S
C1268 C1267 1.374 . S
C1269 C1266 1.499 . S
C1269 C1270 1.402 . S
C1269 C1271 1.389 . S
C1270 H1243 0.956 . S
C1270 C1256 1.343 1_556 S
C1270 C1269 1.402 . S
C1271 C1255 1.377 1_556 S
C1271 C1269 1.389 . S
C1271 C1272 1.524 . S
C1272 C1271 1.524 . S
C1272 C1273 1.397 . S
C1272 C1277 1.363 . S
C1273 H1244 0.950 1_545 S
C1273 C1272 1.397 . S
C1273 C1274 1.334 1_545 S
C1274 H1245 0.950 . S
C1274 C1273 1.334 1_565 S
C1274 C1275 1.287 . S
C1275 C1274 1.287 . S
C1275 C1276 1.524 1_565 S
C1275 H1278 0.999 . S
C1276 H1246 0.950 . S
C1276 C1275 1.524 1_545 S
C1276 C1277 1.415 . S
C1277 H1247 0.950 . S
C1277 C1272 1.363 . S
C1277 C1276 1.415 . S
H1278 C1275 0.999 . S
H1279 C1260 0.913 . S
H1280 C1298 0.951 . S
H1281 C1300 0.951 . S
H1282 C1302 0.950 . S
H1283 C1303 0.950 . S
H1284 C1305 0.950 . S
H1285 C1308 0.950 . S
H1286 C1309 0.950 . S
H1287 C1311 0.950 . S
H1288 C1312 0.950 . S
H1289 C1313 0.951 . S
H1290 C1315 0.951 . S
H1291 C1317 0.950 . S
H1292 C1318 0.950 . S
H1293 C1320 0.950 . S
H1294 C1323 0.950 . S
H1295 C1324 0.950 . S
H1296 C1326 0.950 . S
H1297 C1327 0.950 . S
C1298 H1280 0.951 . S
C1298 C1299 1.366 . S
C1298 C1300 1.388 . S
C1299 C1298 1.366 . S
C1299 C1303 1.385 . S
C1300 H1281 0.951 . S
C1300 C1298 1.388 . S
C1300 C1301 1.366 . S
C1301 C1300 1.366 . S
C1301 C1302 1.414 . S
C1301 C1304 1.499 . S
C1302 H1282 0.950 . S
C1302 C1301 1.414 . S
C1302 C1303 1.374 . S
C1303 H1283 0.950 . S
C1303 C1299 1.385 . S
C1303 C1302 1.374 . S
C1304 C1301 1.499 . S
C1304 C1305 1.373 . S
C1304 C1306 1.389 . S
C1305 H1284 0.950 . S
C1305 C1304 1.373 . S
C1305 C1321 1.377 . S
C1306 C1304 1.389 . S
C1306 C1307 1.524 . S
C1306 C1320 1.377 . S
C1307 C1306 1.524 . S
C1307 C1308 1.397 . S
C1307 C1312 1.363 . S
C1308 H1285 0.950 . S
C1308 C1307 1.397 . S
C1308 C1309 1.334 . S
C1309 H1286 0.950 . S
C1309 C1308 1.334 . S
C1309 C1310 1.287 . S
C1310 C1309 1.287 . S
C1310 C1311 1.524 . S
C1310 H1329 0.913 . S
C1311 H1287 0.950 . S
C1311 C1310 1.524 . S
C1311 C1312 1.415 . S
C1312 H1288 0.950 . S
C1312 C1307 1.363 . S
C1312 C1311 1.415 . S
C1313 H1289 0.951 . S
C1313 C1314 1.366 . S
C1313 C1315 1.388 . S
C1314 C1313 1.366 . S
C1314 C1318 1.385 . S
C1315 H1290 0.951 . S
C1315 C1313 1.388 . S
C1315 C1316 1.366 . S
C1316 C1315 1.366 . S
C1316 C1317 1.414 . S
C1316 C1319 1.499 . S
C1317 H1291 0.950 . S
C1317 C1316 1.414 . S
C1317 C1318 1.374 . S
C1318 H1292 0.950 . S
C1318 C1314 1.385 . S
C1318 C1317 1.374 . S
C1319 C1316 1.499 . S
C1319 C1320 1.373 . S
C1319 C1321 1.389 . S
C1320 H1293 0.950 . S
C1320 C1306 1.377 . S
C1320 C1319 1.373 . S
C1321 C1305 1.377 . S
C1321 C1319 1.389 . S
C1321 C1322 1.524 . S
C1322 C1321 1.524 . S
C1322 C1323 1.397 . S
C1322 C1327 1.363 . S
C1323 H1294 0.950 . S
C1323 C1322 1.397 . S
C1323 C1324 1.334 . S
C1324 H1295 0.950 . S
C1324 C1323 1.334 . S
C1324 C1325 1.287 . S
C1325 C1324 1.287 . S
C1325 C1326 1.524 . S
C1325 H1328 0.999 . S
C1326 H1296 0.950 . S
C1326 C1325 1.524 . S
C1326 C1327 1.415 . S
C1327 H1297 0.950 . S
C1327 C1322 1.363 . S
C1327 C1326 1.415 . S
H1328 C1325 0.999 . S
H1329 C1310 0.913 . S
H1330 C1348 0.951 . S
H1331 C1350 0.951 . S
H1332 C1352 0.950 . S
H1333 C1353 0.950 . S
H1334 C1355 0.950 . S
H1335 C1358 0.950 . S
H1336 C1359 0.950 . S
H1337 C1361 0.956 . S
H1338 C1362 0.950 . S
H1339 C1363 0.951 . S
H1340 C1365 0.951 . S
H1341 C1367 0.950 . S
H1342 C1368 0.950 . S
H1343 C1370 0.950 . S
H1344 C1373 0.950 . S
H1345 C1374 0.950 . S
H1346 C1376 0.950 . S
H1347 C1377 0.950 . S
C1348 H1330 0.951 . S
C1348 C1349 1.366 . S
C1348 C1350 1.388 . S
C1349 C1348 1.366 . S
C1349 C1353 1.385 . S
C1350 H1331 0.951 . S
C1350 C1348 1.388 . S
C1350 C1351 1.366 . S
C1351 C1350 1.366 . S
C1351 C1352 1.414 . S
C1351 C1354 1.499 1_554 S
C1352 H1332 0.950 . S
C1352 C1351 1.414 . S
C1352 C1353 1.374 . S
C1353 H1333 0.950 . S
C1353 C1349 1.385 . S
C1353 C1352 1.374 . S
C1354 C1351 1.499 1_556 S
C1354 C1355 1.373 . S
C1354 C1356 1.389 . S
C1355 H1334 0.950 . S
C1355 C1354 1.373 . S
C1355 C1371 1.377 . S
C1356 C1354 1.389 . S
C1356 C1357 1.524 . S
C1356 C1370 1.377 . S
C1357 C1356 1.524 . S
C1357 C1358 1.397 1_556 S
C1357 C1362 1.363 . S
C1358 H1335 0.950 . S
C1358 C1357 1.397 1_554 S
C1358 C1359 1.334 . S
C1359 H1336 0.950 . S
C1359 C1358 1.334 . S
C1359 C1360 1.287 . S
C1360 C1359 1.287 . S
C1360 C1361 1.524 . S
C1360 H1379 0.913 . S
C1361 H1337 0.956 . S
C1361 C1360 1.524 . S
C1361 C1362 1.415 1_554 S
C1362 H1338 0.950 . S
C1362 C1357 1.363 . S
C1362 C1361 1.415 1_556 S
C1363 H1339 0.951 . S
C1363 C1364 1.366 . S
C1363 C1365 1.388 . S
C1364 C1363 1.366 . S
C1364 C1368 1.385 . S
C1365 H1340 0.951 . S
C1365 C1363 1.388 . S
C1365 C1366 1.366 . S
C1366 C1365 1.366 . S
C1366 C1367 1.414 . S
C1366 C1369 1.499 . S
C1367 H1341 0.950 . S
C1367 C1366 1.414 . S
C1367 C1368 1.374 . S
C1368 H1342 0.950 . S
C1368 C1364 1.385 . S
C1368 C1367 1.374 . S
C1369 C1366 1.499 . S
C1369 C1370 1.373 . S
C1369 C1371 1.389 . S
C1370 H1343 0.950 . S
C1370 C1356 1.377 . S
C1370 C1369 1.373 . S
C1371 C1355 1.377 . S
C1371 C1369 1.389 . S
C1371 C1372 1.524 . S
C1372 C1371 1.524 . S
C1372 C1373 1.397 . S
C1372 C1377 1.363 . S
C1373 H1344 0.950 . S
C1373 C1372 1.397 . S
C1373 C1374 1.334 . S
C1374 H1345 0.950 . S
C1374 C1373 1.334 . S
C1374 C1375 1.287 . S
C1375 C1374 1.287 . S
C1375 C1376 1.524 . S
C1375 H1378 0.999 . S
C1376 H1346 0.950 . S
C1376 C1375 1.524 . S
C1376 C1377 1.415 . S
C1377 H1347 0.950 . S
C1377 C1372 1.363 . S
C1377 C1376 1.415 . S
H1378 C1375 0.999 . S
H1379 C1360 0.913 . S
H1380 C1398 0.951 . S
H1381 C1400 0.951 . S
H1382 C1402 0.950 . S
H1383 C1403 0.950 . S
H1384 C1405 0.950 . S
H1385 C1408 0.950 . S
H1386 C1409 0.950 . S
H1387 C1411 0.950 . S
H1388 C1412 0.950 . S
H1389 C1413 0.951 . S
H1390 C1415 0.951 . S
H1391 C1417 0.950 . S
H1392 C1418 0.950 . S
H1393 C1420 0.950 . S
H1394 C1423 0.950 . S
H1395 C1424 0.950 . S
H1396 C1426 0.950 . S
H1397 C1427 0.950 . S
C1398 H1380 0.951 . S
C1398 C1399 1.366 . S
C1398 C1400 1.388 . S
C1399 C1398 1.366 . S
C1399 C1403 1.385 . S
C1400 H1381 0.951 . S
C1400 C1398 1.388 . S
C1400 C1401 1.366 . S
C1401 C1400 1.366 . S
C1401 C1402 1.414 . S
C1401 C1404 1.499 . S
C1402 H1382 0.950 . S
C1402 C1401 1.414 . S
C1402 C1403 1.374 . S
C1403 H1383 0.950 . S
C1403 C1399 1.385 . S
C1403 C1402 1.374 . S
C1404 C1401 1.499 . S
C1404 C1405 1.373 . S
C1404 C1406 1.389 . S
C1405 H1384 0.950 . S
C1405 C1404 1.373 . S
C1405 C1421 1.377 . S
C1406 C1404 1.389 . S
C1406 C1407 1.524 . S
C1406 C1420 1.377 . S
C1407 C1406 1.524 . S
C1407 C1408 1.397 . S
C1407 C1412 1.363 . S
C1408 H1385 0.950 . S
C1408 C1407 1.397 . S
C1408 C1409 1.334 . S
C1409 H1386 0.950 . S
C1409 C1408 1.334 . S
C1409 C1410 1.287 . S
C1410 C1409 1.287 . S
C1410 C1411 1.524 . S
C1410 H1429 0.913 . S
C1411 H1387 0.950 . S
C1411 C1410 1.524 . S
C1411 C1412 1.415 . S
C1412 H1388 0.950 . S
C1412 C1407 1.363 . S
C1412 C1411 1.415 . S
C1413 H1389 0.951 . S
C1413 C1414 1.366 . S
C1413 C1415 1.388 . S
C1414 C1413 1.366 . S
C1414 C1418 1.385 . S
C1415 H1390 0.951 . S
C1415 C1413 1.388 . S
C1415 C1416 1.366 . S
C1416 C1415 1.366 . S
C1416 C1417 1.414 . S
C1416 C1419 1.499 . S
C1417 H1391 0.950 . S
C1417 C1416 1.414 . S
C1417 C1418 1.374 . S
C1418 H1392 0.950 . S
C1418 C1414 1.385 . S
C1418 C1417 1.374 . S
C1419 C1416 1.499 . S
C1419 C1420 1.373 . S
C1419 C1421 1.389 . S
C1420 H1393 0.950 . S
C1420 C1406 1.377 . S
C1420 C1419 1.373 . S
C1421 C1405 1.377 . S
C1421 C1419 1.389 . S
C1421 C1422 1.524 . S
C1422 C1421 1.524 . S
C1422 C1423 1.397 . S
C1422 C1427 1.363 . S
C1423 H1394 0.950 . S
C1423 C1422 1.397 . S
C1423 C1424 1.334 . S
C1424 H1395 0.950 . S
C1424 C1423 1.334 . S
C1424 C1425 1.287 . S
C1425 C1424 1.287 . S
C1425 C1426 1.524 . S
C1425 H1428 0.999 . S
C1426 H1396 0.950 . S
C1426 C1425 1.524 . S
C1426 C1427 1.415 . S
C1427 H1397 0.950 . S
C1427 C1422 1.363 . S
C1427 C1426 1.415 . S
H1428 C1425 0.999 . S
H1429 C1410 0.913 . S
H1430 C1448 0.951 . S
H1431 C1450 0.951 . S
H1432 C1452 0.950 . S
H1433 C1453 0.950 . S
H1434 C1455 0.950 . S
H1435 C1458 0.950 . S
H1436 C1459 0.950 . S
H1437 C1461 0.950 . S
H1438 C1462 0.950 . S
H1439 C1463 0.951 . S
H1440 C1465 0.951 . S
H1441 C1467 0.950 . S
H1442 C1468 0.950 . S
H1443 C1470 0.950 . S
H1444 C1473 0.950 . S
H1445 C1474 0.950 . S
H1446 C1476 0.950 . S
H1447 C1477 0.950 . S
C1448 H1430 0.951 . S
C1448 C1449 1.366 . S
C1448 C1450 1.388 . S
C1449 C1448 1.366 . S
C1449 C1453 1.385 . S
C1450 H1431 0.951 . S
C1450 C1448 1.388 . S
C1450 C1451 1.366 . S
C1451 C1450 1.366 . S
C1451 C1452 1.414 . S
C1451 C1454 1.499 . S
C1452 H1432 0.950 . S
C1452 C1451 1.414 . S
C1452 C1453 1.374 . S
C1453 H1433 0.950 . S
C1453 C1449 1.385 . S
C1453 C1452 1.374 . S
C1454 C1451 1.499 . S
C1454 C1455 1.373 . S
C1454 C1456 1.389 . S
C1455 H1434 0.950 . S
C1455 C1454 1.373 . S
C1455 C1471 1.377 . S
C1456 C1454 1.389 . S
C1456 C1457 1.524 . S
C1456 C1470 1.377 . S
C1457 C1456 1.524 . S
C1457 C1458 1.397 . S
C1457 C1462 1.363 . S
C1458 H1435 0.950 . S
C1458 C1457 1.397 . S
C1458 C1459 1.334 . S
C1459 H1436 0.950 . S
C1459 C1458 1.334 . S
C1459 C1460 1.287 . S
C1460 C1459 1.287 . S
C1460 C1461 1.524 . S
C1460 H1479 0.913 . S
C1461 H1437 0.950 . S
C1461 C1460 1.524 . S
C1461 C1462 1.415 . S
C1462 H1438 0.950 . S
C1462 C1457 1.363 . S
C1462 C1461 1.415 . S
C1463 H1439 0.951 . S
C1463 C1464 1.366 . S
C1463 C1465 1.388 . S
C1464 C1463 1.366 . S
C1464 C1468 1.385 . S
C1465 H1440 0.951 . S
C1465 C1463 1.388 . S
C1465 C1466 1.366 . S
C1466 C1465 1.366 . S
C1466 C1467 1.414 . S
C1466 C1469 1.499 . S
C1467 H1441 0.950 . S
C1467 C1466 1.414 . S
C1467 C1468 1.374 . S
C1468 H1442 0.950 . S
C1468 C1464 1.385 . S
C1468 C1467 1.374 . S
C1469 C1466 1.499 . S
C1469 C1470 1.373 . S
C1469 C1471 1.389 . S
C1470 H1443 0.950 . S
C1470 C1456 1.377 . S
C1470 C1469 1.373 . S
C1471 C1455 1.377 . S
C1471 C1469 1.389 . S
C1471 C1472 1.524 . S
C1472 C1471 1.524 . S
C1472 C1473 1.397 . S
C1472 C1477 1.363 . S
C1473 H1444 0.950 . S
C1473 C1472 1.397 . S
C1473 C1474 1.334 . S
C1474 H1445 0.950 . S
C1474 C1473 1.334 . S
C1474 C1475 1.287 . S
C1475 C1474 1.287 . S
C1475 C1476 1.524 . S
C1475 H1478 0.999 . S
C1476 H1446 0.950 . S
C1476 C1475 1.524 . S
C1476 C1477 1.415 . S
C1477 H1447 0.950 . S
C1477 C1472 1.363 . S
C1477 C1476 1.415 . S
H1478 C1475 0.999 . S
H1479 C1460 0.913 . S
H1480 C1498 0.951 . S
H1481 C1500 0.951 . S
H1482 C1502 0.950 . S
H1483 C1503 0.950 . S
H1484 C1505 0.950 . S
H1485 C1508 0.950 . S
H1486 C1509 0.950 . S
H1487 C1511 0.950 . S
H1488 C1512 0.950 . S
H1489 C1513 0.951 . S
H1490 C1515 0.951 . S
H1491 C1517 0.950 . S
H1492 C1518 0.950 . S
H1493 C1520 0.950 . S
H1494 C1523 0.950 . S
H1495 C1524 0.950 . S
H1496 C1526 0.950 . S
H1497 C1527 0.950 . S
C1498 H1480 0.951 . S
C1498 C1499 1.366 . S
C1498 C1500 1.388 . S
C1499 C1498 1.366 . S
C1499 C1503 1.385 . S
C1500 H1481 0.951 . S
C1500 C1498 1.388 . S
C1500 C1501 1.366 . S
C1501 C1500 1.366 . S
C1501 C1502 1.414 . S
C1501 C1504 1.499 . S
C1502 H1482 0.950 . S
C1502 C1501 1.414 . S
C1502 C1503 1.374 . S
C1503 H1483 0.950 . S
C1503 C1499 1.385 . S
C1503 C1502 1.374 . S
C1504 C1501 1.499 . S
C1504 C1505 1.373 . S
C1504 C1506 1.389 . S
C1505 H1484 0.950 . S
C1505 C1504 1.373 . S
C1505 C1521 1.377 . S
C1506 C1504 1.389 . S
C1506 C1507 1.524 . S
C1506 C1520 1.377 . S
C1507 C1506 1.524 . S
C1507 C1508 1.397 . S
C1507 C1512 1.363 . S
C1508 H1485 0.950 . S
C1508 C1507 1.397 . S
C1508 C1509 1.334 . S
C1509 H1486 0.950 . S
C1509 C1508 1.334 . S
C1509 C1510 1.287 . S
C1510 C1509 1.287 . S
C1510 C1511 1.524 . S
C1510 H1529 0.913 . S
C1511 H1487 0.950 . S
C1511 C1510 1.524 . S
C1511 C1512 1.415 . S
C1512 H1488 0.950 . S
C1512 C1507 1.363 . S
C1512 C1511 1.415 . S
C1513 H1489 0.951 . S
C1513 C1514 1.366 . S
C1513 C1515 1.388 . S
C1514 C1513 1.366 . S
C1514 C1518 1.385 . S
C1515 H1490 0.951 . S
C1515 C1513 1.388 . S
C1515 C1516 1.366 . S
C1516 C1515 1.366 . S
C1516 C1517 1.414 . S
C1516 C1519 1.499 . S
C1517 H1491 0.950 . S
C1517 C1516 1.414 . S
C1517 C1518 1.374 . S
C1518 H1492 0.950 . S
C1518 C1514 1.385 . S
C1518 C1517 1.374 . S
C1519 C1516 1.499 . S
C1519 C1520 1.373 . S
C1519 C1521 1.389 . S
C1520 H1493 0.950 . S
C1520 C1506 1.377 . S
C1520 C1519 1.373 . S
C1521 C1505 1.377 . S
C1521 C1519 1.389 . S
C1521 C1522 1.524 . S
C1522 C1521 1.524 . S
C1522 C1523 1.397 . S
C1522 C1527 1.363 . S
C1523 H1494 0.950 . S
C1523 C1522 1.397 . S
C1523 C1524 1.334 . S
C1524 H1495 0.950 . S
C1524 C1523 1.334 . S
C1524 C1525 1.287 . S
C1525 C1524 1.287 . S
C1525 C1526 1.524 . S
C1525 H1528 0.999 . S
C1526 H1496 0.950 . S
C1526 C1525 1.524 . S
C1526 C1527 1.415 . S
C1527 H1497 0.950 . S
C1527 C1522 1.363 . S
C1527 C1526 1.415 . S
H1528 C1525 0.999 . S
H1529 C1510 0.913 . S
H1530 C1548 0.951 . S
H1531 C1550 0.951 . S
H1532 C1552 0.950 . S
H1533 C1553 0.950 . S
H1534 C1555 0.950 . S
H1535 C1558 0.950 . S
H1536 C1559 0.950 . S
H1537 C1561 0.950 . S
H1538 C1562 0.956 . S
H1539 C1563 0.951 . S
H1540 C1565 0.951 . S
H1541 C1567 0.950 . S
H1542 C1568 0.950 . S
H1543 C1570 0.950 . S
H1544 C1573 0.950 . S
H1545 C1574 0.950 . S
H1546 C1576 0.950 . S
H1547 C1577 0.950 1_545 S
C1548 H1530 0.951 . S
C1548 C1549 1.366 . S
C1548 C1550 1.388 . S
C1549 C1548 1.366 . S
C1549 C1553 1.385 . S
C1550 H1531 0.951 . S
C1550 C1548 1.388 . S
C1550 C1551 1.366 . S
C1551 C1550 1.366 . S
C1551 C1552 1.414 . S
C1551 C1554 1.499 . S
C1552 H1532 0.950 . S
C1552 C1551 1.414 . S
C1552 C1553 1.374 . S
C1553 H1533 0.950 . S
C1553 C1549 1.385 . S
C1553 C1552 1.374 . S
C1554 C1551 1.499 . S
C1554 C1555 1.373 . S
C1554 C1556 1.389 . S
C1555 H1534 0.950 . S
C1555 C1554 1.373 . S
C1555 C1571 1.377 . S
C1556 C1554 1.389 . S
C1556 C1557 1.524 . S
C1556 C1570 1.377 . S
C1557 C1556 1.524 . S
C1557 C1558 1.397 . S
C1557 C1562 1.363 . S
C1558 H1535 0.950 . S
C1558 C1557 1.397 . S
C1558 C1559 1.334 . S
C1559 H1536 0.950 . S
C1559 C1558 1.334 . S
C1559 C1560 1.287 1_455 S
C1560 C1559 1.287 1_655 S
C1560 C1561 1.524 . S
C1560 H1579 0.913 . S
C1561 H1537 0.950 . S
C1561 C1560 1.524 . S
C1561 C1562 1.415 1_655 S
C1562 H1538 0.956 . S
C1562 C1557 1.363 . S
C1562 C1561 1.415 1_455 S
C1563 H1539 0.951 . S
C1563 C1564 1.366 . S
C1563 C1565 1.388 . S
C1564 C1563 1.366 . S
C1564 C1568 1.385 . S
C1565 H1540 0.951 . S
C1565 C1563 1.388 . S
C1565 C1566 1.366 . S
C1566 C1565 1.366 . S
C1566 C1567 1.414 . S
C1566 C1569 1.499 1_565 S
C1567 H1541 0.950 . S
C1567 C1566 1.414 . S
C1567 C1568 1.374 . S
C1568 H1542 0.950 . S
C1568 C1564 1.385 . S
C1568 C1567 1.374 . S
C1569 C1566 1.499 1_545 S
C1569 C1570 1.373 . S
C1569 C1571 1.389 . S
C1570 H1543 0.950 . S
C1570 C1556 1.377 . S
C1570 C1569 1.373 . S
C1571 C1555 1.377 . S
C1571 C1569 1.389 . S
C1571 C1572 1.524 1_545 S
C1572 C1571 1.524 1_565 S
C1572 C1573 1.397 . S
C1572 C1577 1.363 . S
C1573 H1544 0.950 . S
C1573 C1572 1.397 . S
C1573 C1574 1.334 . S
C1574 H1545 0.950 . S
C1574 C1573 1.334 . S
C1574 C1575 1.287 . S
C1575 C1574 1.287 . S
C1575 C1576 1.524 . S
C1575 H1578 0.999 . S
C1576 H1546 0.950 . S
C1576 C1575 1.524 . S
C1576 C1577 1.415 . S
C1577 H1547 0.950 1_565 S
C1577 C1572 1.363 . S
C1577 C1576 1.415 . S
H1578 C1575 0.999 . S
H1579 C1560 0.913 . S
H1580 C1598 0.951 . S
H1581 C1600 0.951 . S
H1582 C1602 0.950 . S
H1583 C1603 0.950 . S
H1584 C1605 0.950 . S
H1585 C1608 0.950 . S
H1586 C1609 0.950 . S
H1587 C1611 0.950 . S
H1588 C1612 0.950 . S
H1589 C1613 0.951 . S
H1590 C1615 0.951 . S
H1591 C1617 0.950 . S
H1592 C1618 0.950 . S
H1593 C1620 0.950 . S
H1594 C1623 0.950 . S
H1595 C1624 0.950 . S
H1596 C1626 0.950 . S
H1597 C1627 0.950 . S
C1598 H1580 0.951 . S
C1598 C1599 1.366 . S
C1598 C1600 1.388 . S
C1599 C1598 1.366 . S
C1599 C1603 1.385 . S
C1600 H1581 0.951 . S
C1600 C1598 1.388 . S
C1600 C1601 1.366 . S
C1601 C1600 1.366 . S
C1601 C1602 1.414 . S
C1601 C1604 1.499 . S
C1602 H1582 0.950 . S
C1602 C1601 1.414 . S
C1602 C1603 1.374 . S
C1603 H1583 0.950 . S
C1603 C1599 1.385 . S
C1603 C1602 1.374 . S
C1604 C1601 1.499 . S
C1604 C1605 1.373 . S
C1604 C1606 1.389 . S
C1605 H1584 0.950 . S
C1605 C1604 1.373 . S
C1605 C1621 1.377 . S
C1606 C1604 1.389 . S
C1606 C1607 1.524 . S
C1606 C1620 1.377 . S
C1607 C1606 1.524 . S
C1607 C1608 1.397 . S
C1607 C1612 1.363 . S
C1608 H1585 0.950 . S
C1608 C1607 1.397 . S
C1608 C1609 1.334 . S
C1609 H1586 0.950 . S
C1609 C1608 1.334 . S
C1609 C1610 1.287 . S
C1610 C1609 1.287 . S
C1610 C1611 1.524 . S
C1610 H1629 0.913 . S
C1611 H1587 0.950 . S
C1611 C1610 1.524 . S
C1611 C1612 1.415 . S
C1612 H1588 0.950 . S
C1612 C1607 1.363 . S
C1612 C1611 1.415 . S
C1613 H1589 0.951 . S
C1613 C1614 1.366 . S
C1613 C1615 1.388 . S
C1614 C1613 1.366 . S
C1614 C1618 1.385 . S
C1615 H1590 0.951 . S
C1615 C1613 1.388 . S
C1615 C1616 1.366 . S
C1616 C1615 1.366 . S
C1616 C1617 1.414 . S
C1616 C1619 1.499 . S
C1617 H1591 0.950 . S
C1617 C1616 1.414 . S
C1617 C1618 1.374 . S
C1618 H1592 0.950 . S
C1618 C1614 1.385 . S
C1618 C1617 1.374 . S
C1619 C1616 1.499 . S
C1619 C1620 1.373 . S
C1619 C1621 1.389 . S
C1620 H1593 0.950 . S
C1620 C1606 1.377 . S
C1620 C1619 1.373 . S
C1621 C1605 1.377 . S
C1621 C1619 1.389 . S
C1621 C1622 1.524 . S
C1622 C1621 1.524 . S
C1622 C1623 1.397 . S
C1622 C1627 1.363 . S
C1623 H1594 0.950 . S
C1623 C1622 1.397 . S
C1623 C1624 1.334 . S
C1624 H1595 0.950 . S
C1624 C1623 1.334 . S
C1624 C1625 1.287 . S
C1625 C1624 1.287 . S
C1625 C1626 1.524 . S
C1625 H1628 0.999 . S
C1626 H1596 0.950 . S
C1626 C1625 1.524 . S
C1626 C1627 1.415 . S
C1627 H1597 0.950 . S
C1627 C1622 1.363 . S
C1627 C1626 1.415 . S
H1628 C1625 0.999 . S
H1629 C1610 0.913 . S
H1630 C1648 0.951 . S
H1631 C1650 0.951 . S
H1632 C1652 0.950 . S
H1633 C1653 0.950 . S
H1634 C1655 0.950 . S
H1635 C1658 0.950 . S
H1636 C1659 0.950 . S
H1637 C1661 0.950 . S
H1638 C1662 0.950 . S
H1639 C1663 0.951 . S
H1640 C1665 0.951 . S
H1641 C1667 0.950 . S
H1642 C1668 0.950 . S
H1643 C1670 0.950 . S
H1644 C1673 0.950 . S
H1645 C1674 0.950 . S
H1646 C1676 0.950 1_545 S
H1647 C1677 0.950 1_545 S
C1648 H1630 0.951 . S
C1648 C1649 1.366 . S
C1648 C1650 1.388 . S
C1649 C1648 1.366 . S
C1649 C1653 1.385 . S
C1650 H1631 0.951 . S
C1650 C1648 1.388 . S
C1650 C1651 1.366 . S
C1651 C1650 1.366 . S
C1651 C1652 1.414 . S
C1651 C1654 1.499 . S
C1652 H1632 0.950 . S
C1652 C1651 1.414 . S
C1652 C1653 1.374 . S
C1653 H1633 0.950 . S
C1653 C1649 1.385 . S
C1653 C1652 1.374 . S
C1654 C1651 1.499 . S
C1654 C1655 1.373 . S
C1654 C1656 1.389 1_545 S
C1655 H1634 0.950 . S
C1655 C1654 1.373 . S
C1655 C1671 1.377 1_545 S
C1656 C1654 1.389 1_565 S
C1656 C1657 1.524 . S
C1656 C1670 1.377 . S
C1657 C1656 1.524 . S
C1657 C1658 1.397 1_565 S
C1657 C1662 1.363 . S
C1658 H1635 0.950 . S
C1658 C1657 1.397 1_545 S
C1658 C1659 1.334 . S
C1659 H1636 0.950 . S
C1659 C1658 1.334 . S
C1659 C1660 1.287 . S
C1660 C1659 1.287 . S
C1660 C1661 1.524 1_545 S
C1660 H1679 0.913 . S
C1661 H1637 0.950 . S
C1661 C1660 1.524 1_565 S
C1661 C1662 1.415 . S
C1662 H1638 0.950 . S
C1662 C1657 1.363 . S
C1662 C1661 1.415 . S
C1663 H1639 0.951 . S
C1663 C1664 1.366 . S
C1663 C1665 1.388 . S
C1664 C1663 1.366 . S
C1664 C1668 1.385 . S
C1665 H1640 0.951 . S
C1665 C1663 1.388 . S
C1665 C1666 1.366 . S
C1666 C1665 1.366 . S
C1666 C1667 1.414 . S
C1666 C1669 1.499 . S
C1667 H1641 0.950 . S
C1667 C1666 1.414 . S
C1667 C1668 1.374 . S
C1668 H1642 0.950 . S
C1668 C1664 1.385 . S
C1668 C1667 1.374 . S
C1669 C1666 1.499 . S
C1669 C1670 1.373 . S
C1669 C1671 1.389 . S
C1670 H1643 0.950 . S
C1670 C1656 1.377 . S
C1670 C1669 1.373 . S
C1671 C1655 1.377 1_565 S
C1671 C1669 1.389 . S
C1671 C1672 1.524 . S
C1672 C1671 1.524 . S
C1672 C1673 1.397 . S
C1672 C1677 1.363 . S
C1673 H1644 0.950 . S
C1673 C1672 1.397 . S
C1673 C1674 1.334 . S
C1674 H1645 0.950 . S
C1674 C1673 1.334 . S
C1674 C1675 1.287 . S
C1675 C1674 1.287 . S
C1675 C1676 1.524 . S
C1675 H1678 0.999 . S
C1676 H1646 0.950 1_565 S
C1676 C1675 1.524 . S
C1676 C1677 1.415 . S
C1677 H1647 0.950 1_565 S
C1677 C1672 1.363 . S
C1677 C1676 1.415 . S
H1678 C1675 0.999 . S
H1679 C1660 0.913 . S
H1680 C1698 0.951 . S
H1681 C1700 0.951 . S
H1682 C1702 0.950 . S
H1683 C1703 0.950 . S
H1684 C1705 0.950 . S
H1685 C1708 0.950 . S
H1686 C1709 0.950 . S
H1687 C1711 0.950 . S
H1688 C1712 0.950 . S
H1689 C1713 0.951 . S
H1690 C1715 0.951 . S
H1691 C1717 0.950 . S
H1692 C1718 0.950 . S
H1693 C1720 0.950 . S
H1694 C1723 0.950 . S
H1695 C1724 0.950 . S
H1696 C1726 0.950 . S
H1697 C1727 0.950 . S
C1698 H1680 0.951 . S
C1698 C1699 1.366 . S
C1698 C1700 1.388 . S
C1699 C1698 1.366 . S
C1699 C1703 1.385 . S
C1700 H1681 0.951 . S
C1700 C1698 1.388 . S
C1700 C1701 1.366 . S
C1701 C1700 1.366 . S
C1701 C1702 1.414 . S
C1701 C1704 1.499 . S
C1702 H1682 0.950 . S
C1702 C1701 1.414 . S
C1702 C1703 1.374 . S
C1703 H1683 0.950 . S
C1703 C1699 1.385 . S
C1703 C1702 1.374 . S
C1704 C1701 1.499 . S
C1704 C1705 1.373 . S
C1704 C1706 1.389 . S
C1705 H1684 0.950 . S
C1705 C1704 1.373 . S
C1705 C1721 1.377 . S
C1706 C1704 1.389 . S
C1706 C1707 1.524 . S
C1706 C1720 1.377 . S
C1707 C1706 1.524 . S
C1707 C1708 1.397 . S
C1707 C1712 1.363 . S
C1708 H1685 0.950 . S
C1708 C1707 1.397 . S
C1708 C1709 1.334 . S
C1709 H1686 0.950 . S
C1709 C1708 1.334 . S
C1709 C1710 1.287 . S
C1710 C1709 1.287 . S
C1710 C1711 1.524 . S
C1710 H1729 0.913 . S
C1711 H1687 0.950 . S
C1711 C1710 1.524 . S
C1711 C1712 1.415 . S
C1712 H1688 0.950 . S
C1712 C1707 1.363 . S
C1712 C1711 1.415 . S
C1713 H1689 0.951 . S
C1713 C1714 1.366 . S
C1713 C1715 1.388 . S
C1714 C1713 1.366 . S
C1714 C1718 1.385 . S
C1715 H1690 0.951 . S
C1715 C1713 1.388 . S
C1715 C1716 1.366 . S
C1716 C1715 1.366 . S
C1716 C1717 1.414 . S
C1716 C1719 1.499 . S
C1717 H1691 0.950 . S
C1717 C1716 1.414 . S
C1717 C1718 1.374 . S
C1718 H1692 0.950 . S
C1718 C1714 1.385 . S
C1718 C1717 1.374 . S
C1719 C1716 1.499 . S
C1719 C1720 1.373 . S
C1719 C1721 1.389 . S
C1720 H1693 0.950 . S
C1720 C1706 1.377 . S
C1720 C1719 1.373 . S
C1721 C1705 1.377 . S
C1721 C1719 1.389 . S
C1721 C1722 1.524 . S
C1722 C1721 1.524 . S
C1722 C1723 1.397 . S
C1722 C1727 1.363 . S
C1723 H1694 0.950 . S
C1723 C1722 1.397 . S
C1723 C1724 1.334 . S
C1724 H1695 0.950 . S
C1724 C1723 1.334 . S
C1724 C1725 1.287 . S
C1725 C1724 1.287 . S
C1725 C1726 1.524 . S
C1725 H1728 0.999 . S
C1726 H1696 0.950 . S
C1726 C1725 1.524 . S
C1726 C1727 1.415 . S
C1727 H1697 0.950 . S
C1727 C1722 1.363 . S
C1727 C1726 1.415 . S
H1728 C1725 0.999 . S
H1729 C1710 0.913 . S
H1730 C1748 0.960 . S
H1731 C1750 0.951 . S
H1732 C1752 0.950 . S
H1733 C1753 0.950 . S
H1734 C1755 0.950 . S
H1735 C1758 0.950 . S
H1736 C1759 0.950 . S
H1737 C1761 0.964 . S
H1738 C1762 0.950 . S
H1739 C1763 0.951 . S
H1740 C1765 0.951 . S
H1741 C1767 0.950 . S
H1742 C1768 0.950 . S
H1743 C1770 0.950 . S
H1744 C1773 0.950 . S
H1745 C1774 0.950 . S
H1746 C1776 0.950 . S
H1747 C1777 0.950 . S
C1748 H1730 0.960 . S
C1748 C1749 1.366 . S
C1748 C1750 1.388 . S
C1749 C1748 1.366 . S
C1749 C1753 1.385 . S
C1750 H1731 0.951 . S
C1750 C1748 1.388 . S
C1750 C1751 1.366 . S
C1751 C1750 1.366 . S
C1751 C1752 1.414 . S
C1751 C1754 1.499 . S
C1752 H1732 0.950 . S
C1752 C1751 1.414 . S
C1752 C1753 1.374 . S
C1753 H1733 0.950 . S
C1753 C1749 1.385 . S
C1753 C1752 1.374 . S
C1754 C1751 1.499 . S
C1754 C1755 1.373 . S
C1754 C1756 1.389 . S
C1755 H1734 0.950 . S
C1755 C1754 1.373 . S
C1755 C1771 1.377 . S
C1756 C1754 1.389 . S
C1756 C1757 1.524 . S
C1756 C1770 1.377 . S
C1757 C1756 1.524 . S
C1757 C1758 1.397 . S
C1757 C1762 1.363 . S
C1758 H1735 0.950 . S
C1758 C1757 1.397 . S
C1758 C1759 1.334 . S
C1759 H1736 0.950 . S
C1759 C1758 1.334 . S
C1759 C1760 1.287 . S
C1760 C1759 1.287 . S
C1760 C1761 1.524 . S
C1760 H1779 0.913 . S
C1761 H1737 0.964 . S
C1761 C1760 1.524 . S
C1761 C1762 1.415 . S
C1762 H1738 0.950 . S
C1762 C1757 1.363 . S
C1762 C1761 1.415 . S
C1763 H1739 0.951 . S
C1763 C1764 1.366 . S
C1763 C1765 1.388 . S
C1764 C1763 1.366 . S
C1764 C1768 1.385 . S
C1765 H1740 0.951 . S
C1765 C1763 1.388 . S
C1765 C1766 1.366 . S
C1766 C1765 1.366 . S
C1766 C1767 1.414 . S
C1766 C1769 1.499 . S
C1767 H1741 0.950 . S
C1767 C1766 1.414 . S
C1767 C1768 1.374 . S
C1768 H1742 0.950 . S
C1768 C1764 1.385 . S
C1768 C1767 1.374 . S
C1769 C1766 1.499 . S
C1769 C1770 1.373 . S
C1769 C1771 1.389 . S
C1770 H1743 0.950 . S
C1770 C1756 1.377 . S
C1770 C1769 1.373 . S
C1771 C1755 1.377 . S
C1771 C1769 1.389 . S
C1771 C1772 1.524 . S
C1772 C1771 1.524 . S
C1772 C1773 1.397 . S
C1772 C1777 1.363 . S
C1773 H1744 0.950 . S
C1773 C1772 1.397 . S
C1773 C1774 1.334 . S
C1774 H1745 0.950 . S
C1774 C1773 1.334 . S
C1774 C1775 1.287 . S
C1775 C1774 1.287 . S
C1775 C1776 1.524 . S
C1775 H1778 0.999 . S
C1776 H1746 0.950 . S
C1776 C1775 1.524 . S
C1776 C1777 1.415 . S
C1777 H1747 0.950 . S
C1777 C1772 1.363 . S
C1777 C1776 1.415 . S
H1778 C1775 0.999 . S
H1779 C1760 0.913 . S
H1780 C1798 0.951 . S
H1781 C1800 0.951 . S
H1782 C1802 0.950 . S
H1783 C1803 0.950 . S
H1784 C1805 0.950 . S
H1785 C1808 0.950 . S
H1786 C1809 0.950 . S
H1787 C1811 0.950 . S
H1788 C1812 0.950 . S
H1789 C1813 0.951 . S
H1790 C1815 0.951 . S
H1791 C1817 0.950 . S
H1792 C1818 0.950 . S
H1793 C1820 0.950 . S
H1794 C1823 0.950 . S
H1795 C1824 0.950 . S
H1796 C1826 0.950 . S
H1797 C1827 0.950 . S
C1798 H1780 0.951 . S
C1798 C1799 1.366 . S
C1798 C1800 1.388 . S
C1799 C1798 1.366 . S
C1799 C1803 1.385 . S
C1800 H1781 0.951 . S
C1800 C1798 1.388 . S
C1800 C1801 1.366 . S
C1801 C1800 1.366 . S
C1801 C1802 1.414 . S
C1801 C1804 1.499 . S
C1802 H1782 0.950 . S
C1802 C1801 1.414 . S
C1802 C1803 1.374 . S
C1803 H1783 0.950 . S
C1803 C1799 1.385 . S
C1803 C1802 1.374 . S
C1804 C1801 1.499 . S
C1804 C1805 1.373 . S
C1804 C1806 1.389 . S
C1805 H1784 0.950 . S
C1805 C1804 1.373 . S
C1805 C1821 1.377 . S
C1806 C1804 1.389 . S
C1806 C1807 1.524 . S
C1806 C1820 1.377 . S
C1807 C1806 1.524 . S
C1807 C1808 1.397 . S
C1807 C1812 1.363 . S
C1808 H1785 0.950 . S
C1808 C1807 1.397 . S
C1808 C1809 1.334 . S
C1809 H1786 0.950 . S
C1809 C1808 1.334 . S
C1809 C1810 1.287 . S
C1810 C1809 1.287 . S
C1810 C1811 1.524 . S
C1810 H1829 0.913 . S
C1811 H1787 0.950 . S
C1811 C1810 1.524 . S
C1811 C1812 1.415 . S
C1812 H1788 0.950 . S
C1812 C1807 1.363 . S
C1812 C1811 1.415 . S
C1813 H1789 0.951 . S
C1813 C1814 1.366 . S
C1813 C1815 1.388 . S
C1814 C1813 1.366 . S
C1814 C1818 1.385 . S
C1815 H1790 0.951 . S
C1815 C1813 1.388 . S
C1815 C1816 1.366 . S
C1816 C1815 1.366 . S
C1816 C1817 1.414 . S
C1816 C1819 1.499 . S
C1817 H1791 0.950 . S
C1817 C1816 1.414 . S
C1817 C1818 1.374 . S
C1818 H1792 0.950 . S
C1818 C1814 1.385 . S
C1818 C1817 1.374 . S
C1819 C1816 1.499 . S
C1819 C1820 1.373 . S
C1819 C1821 1.389 . S
C1820 H1793 0.950 . S
C1820 C1806 1.377 . S
C1820 C1819 1.373 . S
C1821 C1805 1.377 . S
C1821 C1819 1.389 . S
C1821 C1822 1.524 . S
C1822 C1821 1.524 . S
C1822 C1823 1.397 . S
C1822 C1827 1.363 . S
C1823 H1794 0.950 . S
C1823 C1822 1.397 . S
C1823 C1824 1.334 . S
C1824 H1795 0.950 . S
C1824 C1823 1.334 . S
C1824 C1825 1.287 . S
C1825 C1824 1.287 . S
C1825 C1826 1.524 . S
C1825 H1828 0.999 . S
C1826 H1796 0.950 . S
C1826 C1825 1.524 . S
C1826 C1827 1.415 . S
C1827 H1797 0.950 . S
C1827 C1822 1.363 . S
C1827 C1826 1.415 . S
H1828 C1825 0.999 . S
H1829 C1810 0.913 . S
H1830 C1848 0.951 . S
H1831 C1850 0.951 . S
H1832 C1852 0.950 . S
H1833 C1853 0.950 . S
H1834 C1855 0.950 . S
H1835 C1858 0.950 . S
H1836 C1859 0.950 . S
H1837 C1861 0.950 . S
H1838 C1862 0.950 . S
H1839 C1863 0.951 . S
H1840 C1865 0.951 . S
H1841 C1867 0.950 . S
H1842 C1868 0.950 . S
H1843 C1870 0.950 . S
H1844 C1873 0.950 . S
H1845 C1874 0.950 . S
H1846 C1876 0.950 . S
H1847 C1877 0.950 . S
C1848 H1830 0.951 . S
C1848 C1849 1.366 . S
C1848 C1850 1.388 . S
C1849 C1848 1.366 . S
C1849 C1853 1.385 . S
C1850 H1831 0.951 . S
C1850 C1848 1.388 . S
C1850 C1851 1.366 . S
C1851 C1850 1.366 . S
C1851 C1852 1.414 . S
C1851 C1854 1.499 . S
C1852 H1832 0.950 . S
C1852 C1851 1.414 . S
C1852 C1853 1.374 . S
C1853 H1833 0.950 . S
C1853 C1849 1.385 . S
C1853 C1852 1.374 . S
C1854 C1851 1.499 . S
C1854 C1855 1.373 . S
C1854 C1856 1.389 . S
C1855 H1834 0.950 . S
C1855 C1854 1.373 . S
C1855 C1871 1.377 . S
C1856 C1854 1.389 . S
C1856 C1857 1.524 . S
C1856 C1870 1.377 . S
C1857 C1856 1.524 . S
C1857 C1858 1.397 . S
C1857 C1862 1.363 . S
C1858 H1835 0.950 . S
C1858 C1857 1.397 . S
C1858 C1859 1.334 . S
C1859 H1836 0.950 . S
C1859 C1858 1.334 . S
C1859 C1860 1.287 . S
C1860 C1859 1.287 . S
C1860 C1861 1.524 . S
C1860 H1879 0.913 . S
C1861 H1837 0.950 . S
C1861 C1860 1.524 . S
C1861 C1862 1.415 . S
C1862 H1838 0.950 . S
C1862 C1857 1.363 . S
C1862 C1861 1.415 . S
C1863 H1839 0.951 . S
C1863 C1864 1.366 . S
C1863 C1865 1.388 . S
C1864 C1863 1.366 . S
C1864 C1868 1.385 . S
C1865 H1840 0.951 . S
C1865 C1863 1.388 . S
C1865 C1866 1.366 . S
C1866 C1865 1.366 . S
C1866 C1867 1.414 . S
C1866 C1869 1.499 . S
C1867 H1841 0.950 . S
C1867 C1866 1.414 . S
C1867 C1868 1.374 . S
C1868 H1842 0.950 . S
C1868 C1864 1.385 . S
C1868 C1867 1.374 . S
C1869 C1866 1.499 . S
C1869 C1870 1.373 . S
C1869 C1871 1.389 . S
C1870 H1843 0.950 . S
C1870 C1856 1.377 . S
C1870 C1869 1.373 . S
C1871 C1855 1.377 . S
C1871 C1869 1.389 . S
C1871 C1872 1.524 . S
C1872 C1871 1.524 . S
C1872 C1873 1.397 . S
C1872 C1877 1.363 . S
C1873 H1844 0.950 . S
C1873 C1872 1.397 . S
C1873 C1874 1.334 . S
C1874 H1845 0.950 . S
C1874 C1873 1.334 . S
C1874 C1875 1.287 . S
C1875 C1874 1.287 . S
C1875 C1876 1.524 . S
C1875 H1878 0.999 . S
C1876 H1846 0.950 . S
C1876 C1875 1.524 . S
C1876 C1877 1.415 . S
C1877 H1847 0.950 . S
C1877 C1872 1.363 . S
C1877 C1876 1.415 . S
H1878 C1875 0.999 . S
H1879 C1860 0.913 . S
H1880 C1898 0.951 . S
H1881 C1900 0.951 . S
H1882 C1902 0.950 . S
H1883 C1903 0.950 . S
H1884 C1905 0.950 . S
H1885 C1908 0.950 . S
H1886 C1909 0.950 . S
H1887 C1911 0.950 . S
H1888 C1912 0.950 . S
H1889 C1913 0.951 . S
H1890 C1915 0.951 . S
H1891 C1917 0.950 . S
H1892 C1918 0.950 . S
H1893 C1920 0.950 . S
H1894 C1923 0.950 . S
H1895 C1924 0.950 . S
H1896 C1926 0.950 . S
H1897 C1927 0.950 . S
C1898 H1880 0.951 . S
C1898 C1899 1.366 . S
C1898 C1900 1.388 . S
C1899 C1898 1.366 . S
C1899 C1903 1.385 . S
C1900 H1881 0.951 . S
C1900 C1898 1.388 . S
C1900 C1901 1.366 . S
C1901 C1900 1.366 . S
C1901 C1902 1.414 . S
C1901 C1904 1.499 . S
C1902 H1882 0.950 . S
C1902 C1901 1.414 . S
C1902 C1903 1.374 . S
C1903 H1883 0.950 . S
C1903 C1899 1.385 . S
C1903 C1902 1.374 . S
C1904 C1901 1.499 . S
C1904 C1905 1.373 . S
C1904 C1906 1.389 . S
C1905 H1884 0.950 . S
C1905 C1904 1.373 . S
C1905 C1921 1.377 . S
C1906 C1904 1.389 . S
C1906 C1907 1.524 . S
C1906 C1920 1.377 . S
C1907 C1906 1.524 . S
C1907 C1908 1.397 . S
C1907 C1912 1.363 . S
C1908 H1885 0.950 . S
C1908 C1907 1.397 . S
C1908 C1909 1.334 . S
C1909 H1886 0.950 . S
C1909 C1908 1.334 . S
C1909 C1910 1.287 . S
C1910 C1909 1.287 . S
C1910 C1911 1.524 . S
C1910 H1929 0.913 . S
C1911 H1887 0.950 . S
C1911 C1910 1.524 . S
C1911 C1912 1.415 . S
C1912 H1888 0.950 . S
C1912 C1907 1.363 . S
C1912 C1911 1.415 . S
C1913 H1889 0.951 . S
C1913 C1914 1.366 . S
C1913 C1915 1.388 . S
C1914 C1913 1.366 . S
C1914 C1918 1.385 . S
C1915 H1890 0.951 . S
C1915 C1913 1.388 . S
C1915 C1916 1.366 . S
C1916 C1915 1.366 . S
C1916 C1917 1.414 . S
C1916 C1919 1.499 . S
C1917 H1891 0.950 . S
C1917 C1916 1.414 . S
C1917 C1918 1.374 . S
C1918 H1892 0.950 . S
C1918 C1914 1.385 . S
C1918 C1917 1.374 . S
C1919 C1916 1.499 . S
C1919 C1920 1.373 . S
C1919 C1921 1.389 . S
C1920 H1893 0.950 . S
C1920 C1906 1.377 . S
C1920 C1919 1.373 . S
C1921 C1905 1.377 . S
C1921 C1919 1.389 . S
C1921 C1922 1.524 . S
C1922 C1921 1.524 . S
C1922 C1923 1.397 . S
C1922 C1927 1.363 . S
C1923 H1894 0.950 . S
C1923 C1922 1.397 . S
C1923 C1924 1.334 . S
C1924 H1895 0.950 . S
C1924 C1923 1.334 . S
C1924 C1925 1.287 . S
C1925 C1924 1.287 . S
C1925 C1926 1.524 . S
C1925 H1928 0.999 . S
C1926 H1896 0.950 . S
C1926 C1925 1.524 . S
C1926 C1927 1.415 . S
C1927 H1897 0.950 . S
C1927 C1922 1.363 . S
C1927 C1926 1.415 . S
H1928 C1925 0.999 . S
H1929 C1910 0.913 . S
H1930 C1948 0.951 . S
H1931 C1950 0.951 . S
H1932 C1952 0.950 . S
H1933 C1953 0.950 . S
H1934 C1955 0.950 . S
H1935 C1958 0.950 . S
H1936 C1959 0.950 . S
H1937 C1961 0.950 . S
H1938 C1962 0.950 . S
H1939 C1963 0.951 . S
H1940 C1965 0.951 . S
H1941 C1967 0.950 . S
H1942 C1968 0.950 . S
H1943 C1970 0.950 . S
H1944 C1973 0.950 . S
H1945 C1974 0.950 . S
H1946 C1976 0.950 . S
H1947 C1977 0.950 . S
C1948 H1930 0.951 . S
C1948 C1949 1.366 . S
C1948 C1950 1.388 . S
C1949 C1948 1.366 . S
C1949 C1953 1.385 . S
C1950 H1931 0.951 . S
C1950 C1948 1.388 . S
C1950 C1951 1.366 . S
C1951 C1950 1.366 . S
C1951 C1952 1.414 . S
C1951 C1954 1.499 . S
C1952 H1932 0.950 . S
C1952 C1951 1.414 . S
C1952 C1953 1.374 . S
C1953 H1933 0.950 . S
C1953 C1949 1.385 . S
C1953 C1952 1.374 . S
C1954 C1951 1.499 . S
C1954 C1955 1.373 . S
C1954 C1956 1.389 . S
C1955 H1934 0.950 . S
C1955 C1954 1.373 . S
C1955 C1971 1.377 . S
C1956 C1954 1.389 . S
C1956 C1957 1.524 . S
C1956 C1970 1.377 . S
C1957 C1956 1.524 . S
C1957 C1958 1.397 . S
C1957 C1962 1.363 . S
C1958 H1935 0.950 . S
C1958 C1957 1.397 . S
C1958 C1959 1.334 . S
C1959 H1936 0.950 . S
C1959 C1958 1.334 . S
C1959 C1960 1.287 . S
C1960 C1959 1.287 . S
C1960 C1961 1.524 . S
C1960 H1979 0.913 . S
C1961 H1937 0.950 . S
C1961 C1960 1.524 . S
C1961 C1962 1.415 . S
C1962 H1938 0.950 . S
C1962 C1957 1.363 . S
C1962 C1961 1.415 . S
C1963 H1939 0.951 . S
C1963 C1964 1.366 . S
C1963 C1965 1.388 . S
C1964 C1963 1.366 . S
C1964 C1968 1.385 . S
C1965 H1940 0.951 . S
C1965 C1963 1.388 . S
C1965 C1966 1.366 . S
C1966 C1965 1.366 . S
C1966 C1967 1.414 . S
C1966 C1969 1.499 . S
C1967 H1941 0.950 . S
C1967 C1966 1.414 . S
C1967 C1968 1.374 . S
C1968 H1942 0.950 . S
C1968 C1964 1.385 . S
C1968 C1967 1.374 . S
C1969 C1966 1.499 . S
C1969 C1970 1.373 . S
C1969 C1971 1.389 . S
C1970 H1943 0.950 . S
C1970 C1956 1.377 . S
C1970 C1969 1.373 . S
C1971 C1955 1.377 . S
C1971 C1969 1.389 . S
C1971 C1972 1.524 . S
C1972 C1971 1.524 . S
C1972 C1973 1.397 . S
C1972 C1977 1.363 . S
C1973 H1944 0.950 . S
C1973 C1972 1.397 . S
C1973 C1974 1.334 . S
C1974 H1945 0.950 . S
C1974 C1973 1.334 . S
C1974 C1975 1.287 . S
C1975 C1974 1.287 . S
C1975 C1976 1.524 . S
C1975 H1978 0.999 . S
C1976 H1946 0.950 . S
C1976 C1975 1.524 . S
C1976 C1977 1.415 . S
C1977 H1947 0.950 . S
C1977 C1972 1.363 . S
C1977 C1976 1.415 . S
H1978 C1975 0.999 . S
H1979 C1960 0.913 . S
H1980 C1998 0.951 . S
H1981 C2000 0.951 . S
H1982 C2002 0.950 . S
H1983 C2003 0.950 . S
H1984 C2005 0.950 . S
H1985 C2008 0.950 . S
H1986 C2009 0.950 . S
H1987 C2011 0.950 . S
H1988 C2012 0.950 . S
H1989 C2013 0.951 . S
H1990 C2015 0.951 . S
H1991 C2017 0.950 . S
H1992 C2018 0.950 . S
H1993 C2020 0.947 1_655 S
H1994 C2023 0.950 . S
H1995 C2024 0.950 . S
H1996 C2026 0.950 . S
H1997 C2027 0.950 . S
C1998 H1980 0.951 . S
C1998 C1999 1.366 . S
C1998 C2000 1.388 . S
C1999 C1998 1.366 . S
C1999 C2003 1.385 . S
C2000 H1981 0.951 . S
C2000 C1998 1.388 . S
C2000 C2001 1.366 . S
C2001 C2000 1.366 . S
C2001 C2002 1.414 . S
C2001 C2004 1.499 . S
C2002 H1982 0.950 . S
C2002 C2001 1.414 . S
C2002 C2003 1.374 . S
C2003 H1983 0.950 . S
C2003 C1999 1.385 . S
C2003 C2002 1.374 . S
C2004 C2001 1.499 . S
C2004 C2005 1.373 . S
C2004 C2006 1.389 . S
C2005 H1984 0.950 . S
C2005 C2004 1.373 . S
C2005 C2021 1.377 . S
C2006 C2004 1.389 . S
C2006 C2007 1.524 . S
C2006 C2020 1.380 . S
C2007 C2006 1.524 . S
C2007 C2008 1.397 . S
C2007 C2012 1.363 . S
C2008 H1985 0.950 . S
C2008 C2007 1.397 . S
C2008 C2009 1.334 . S
C2009 H1986 0.950 . S
C2009 C2008 1.334 . S
C2009 C2010 1.287 . S
C2010 C2009 1.287 . S
C2010 C2011 1.524 . S
C2010 H2029 0.913 . S
C2011 H1987 0.950 . S
C2011 C2010 1.524 . S
C2011 C2012 1.415 . S
C2012 H1988 0.950 . S
C2012 C2007 1.363 . S
C2012 C2011 1.415 . S
C2013 H1989 0.951 . S
C2013 C2014 1.366 . S
C2013 C2015 1.388 . S
C2014 C2013 1.366 . S
C2014 C2018 1.385 . S
C2015 H1990 0.951 . S
C2015 C2013 1.388 . S
C2015 C2016 1.366 . S
C2016 C2015 1.366 . S
C2016 C2017 1.414 . S
C2016 C2019 1.499 . S
C2017 H1991 0.950 . S
C2017 C2016 1.414 . S
C2017 C2018 1.374 . S
C2018 H1992 0.950 . S
C2018 C2014 1.385 . S
C2018 C2017 1.374 . S
C2019 C2016 1.499 . S
C2019 C2020 1.373 1_655 S
C2019 C2021 1.389 1_655 S
C2020 H1993 0.947 1_455 S
C2020 C2006 1.380 . S
C2020 C2019 1.373 1_455 S
C2021 C2005 1.377 . S
C2021 C2019 1.389 1_455 S
C2021 C2022 1.524 . S
C2022 C2021 1.524 . S
C2022 C2023 1.397 . S
C2022 C2027 1.363 1_554 S
C2023 H1994 0.950 . S
C2023 C2022 1.397 . S
C2023 C2024 1.334 . S
C2024 H1995 0.950 . S
C2024 C2023 1.334 . S
C2024 C2025 1.287 1_554 S
C2025 C2024 1.287 1_556 S
C2025 C2026 1.524 . S
C2025 H2028 0.999 . S
C2026 H1996 0.950 . S
C2026 C2025 1.524 . S
C2026 C2027 1.415 . S
C2027 H1997 0.950 . S
C2027 C2022 1.363 1_556 S
C2027 C2026 1.415 . S
H2028 C2025 0.999 . S
H2029 C2010 0.913 . S
H2030 C2048 0.951 . S
H2031 C2050 0.951 . S
H2032 C2052 0.950 . S
H2033 C2053 0.950 . S
H2034 C2055 0.950 . S
H2035 C2058 0.950 . S
H2036 C2059 0.950 . S
H2037 C2061 0.950 . S
H2038 C2062 0.950 . S
H2039 C2063 0.951 . S
H2040 C2065 0.951 . S
H2041 C2067 0.950 . S
H2042 C2068 0.950 . S
H2043 C2070 0.950 . S
H2044 C2073 0.950 . S
H2045 C2074 0.950 . S
H2046 C2076 0.950 . S
H2047 C2077 0.950 . S
C2048 H2030 0.951 . S
C2048 C2049 1.366 . S
C2048 C2050 1.388 . S
C2049 C2048 1.366 . S
C2049 C2053 1.385 . S
C2050 H2031 0.951 . S
C2050 C2048 1.388 . S
C2050 C2051 1.366 . S
C2051 C2050 1.366 . S
C2051 C2052 1.414 . S
C2051 C2054 1.499 . S
C2052 H2032 0.950 . S
C2052 C2051 1.414 . S
C2052 C2053 1.374 . S
C2053 H2033 0.950 . S
C2053 C2049 1.385 . S
C2053 C2052 1.374 . S
C2054 C2051 1.499 . S
C2054 C2055 1.373 . S
C2054 C2056 1.389 . S
C2055 H2034 0.950 . S
C2055 C2054 1.373 . S
C2055 C2071 1.377 . S
C2056 C2054 1.389 . S
C2056 C2057 1.524 . S
C2056 C2070 1.377 . S
C2057 C2056 1.524 . S
C2057 C2058 1.397 . S
C2057 C2062 1.363 . S
C2058 H2035 0.950 . S
C2058 C2057 1.397 . S
C2058 C2059 1.334 . S
C2059 H2036 0.950 . S
C2059 C2058 1.334 . S
C2059 C2060 1.287 . S
C2060 C2059 1.287 . S
C2060 C2061 1.524 . S
C2060 H2079 0.913 . S
C2061 H2037 0.950 . S
C2061 C2060 1.524 . S
C2061 C2062 1.415 . S
C2062 H2038 0.950 . S
C2062 C2057 1.363 . S
C2062 C2061 1.415 . S
C2063 H2039 0.951 . S
C2063 C2064 1.366 . S
C2063 C2065 1.388 . S
C2064 C2063 1.366 . S
C2064 C2068 1.385 . S
C2065 H2040 0.951 . S
C2065 C2063 1.388 . S
C2065 C2066 1.366 . S
C2066 C2065 1.366 . S
C2066 C2067 1.414 . S
C2066 C2069 1.499 . S
C2067 H2041 0.950 . S
C2067 C2066 1.414 . S
C2067 C2068 1.374 . S
C2068 H2042 0.950 . S
C2068 C2064 1.385 . S
C2068 C2067 1.374 . S
C2069 C2066 1.499 . S
C2069 C2070 1.373 . S
C2069 C2071 1.389 . S
C2070 H2043 0.950 . S
C2070 C2056 1.377 . S
C2070 C2069 1.373 . S
C2071 C2055 1.377 . S
C2071 C2069 1.389 . S
C2071 C2072 1.524 . S
C2072 C2071 1.524 . S
C2072 C2073 1.397 . S
C2072 C2077 1.363 . S
C2073 H2044 0.950 . S
C2073 C2072 1.397 . S
C2073 C2074 1.334 . S
C2074 H2045 0.950 . S
C2074 C2073 1.334 . S
C2074 C2075 1.287 . S
C2075 C2074 1.287 . S
C2075 C2076 1.524 . S
C2075 H2078 0.999 . S
C2076 H2046 0.950 . S
C2076 C2075 1.524 . S
C2076 C2077 1.415 . S
C2077 H2047 0.950 . S
C2077 C2072 1.363 . S
C2077 C2076 1.415 . S
H2078 C2075 0.999 . S
H2079 C2060 0.913 . S
H2080 C2098 0.951 . S
H2081 C2100 0.951 . S
H2082 C2102 0.950 . S
H2083 C2103 0.950 . S
H2084 C2105 0.950 . S
H2085 C2108 0.950 . S
H2086 C2109 0.950 . S
H2087 C2111 0.950 . S
H2088 C2112 0.950 . S
H2089 C2113 0.951 . S
H2090 C2115 0.951 . S
H2091 C2117 0.950 . S
H2092 C2118 0.950 . S
H2093 C2120 0.950 . S
H2094 C2123 0.950 . S
H2095 C2124 0.950 . S
H2096 C2126 0.950 . S
H2097 C2127 0.950 . S
C2098 H2080 0.951 . S
C2098 C2099 1.366 . S
C2098 C2100 1.388 . S
C2099 C2098 1.366 . S
C2099 C2103 1.385 . S
C2100 H2081 0.951 . S
C2100 C2098 1.388 . S
C2100 C2101 1.366 . S
C2101 C2100 1.366 . S
C2101 C2102 1.414 . S
C2101 C2104 1.499 . S
C2102 H2082 0.950 . S
C2102 C2101 1.414 . S
C2102 C2103 1.374 . S
C2103 H2083 0.950 . S
C2103 C2099 1.385 . S
C2103 C2102 1.374 . S
C2104 C2101 1.499 . S
C2104 C2105 1.373 . S
C2104 C2106 1.389 . S
C2105 H2084 0.950 . S
C2105 C2104 1.373 . S
C2105 C2121 1.377 . S
C2106 C2104 1.389 . S
C2106 C2107 1.524 . S
C2106 C2120 1.377 . S
C2107 C2106 1.524 . S
C2107 C2108 1.397 . S
C2107 C2112 1.363 . S
C2108 H2085 0.950 . S
C2108 C2107 1.397 . S
C2108 C2109 1.334 . S
C2109 H2086 0.950 . S
C2109 C2108 1.334 . S
C2109 C2110 1.287 . S
C2110 C2109 1.287 . S
C2110 C2111 1.524 . S
C2110 H2129 0.913 . S
C2111 H2087 0.950 . S
C2111 C2110 1.524 . S
C2111 C2112 1.415 . S
C2112 H2088 0.950 . S
C2112 C2107 1.363 . S
C2112 C2111 1.415 . S
C2113 H2089 0.951 . S
C2113 C2114 1.366 . S
C2113 C2115 1.388 . S
C2114 C2113 1.366 . S
C2114 C2118 1.385 . S
C2115 H2090 0.951 . S
C2115 C2113 1.388 . S
C2115 C2116 1.366 . S
C2116 C2115 1.366 . S
C2116 C2117 1.414 . S
C2116 C2119 1.499 . S
C2117 H2091 0.950 . S
C2117 C2116 1.414 . S
C2117 C2118 1.374 . S
C2118 H2092 0.950 . S
C2118 C2114 1.385 . S
C2118 C2117 1.374 . S
C2119 C2116 1.499 . S
C2119 C2120 1.373 . S
C2119 C2121 1.389 . S
C2120 H2093 0.950 . S
C2120 C2106 1.377 . S
C2120 C2119 1.373 . S
C2121 C2105 1.377 . S
C2121 C2119 1.389 . S
C2121 C2122 1.524 . S
C2122 C2121 1.524 . S
C2122 C2123 1.397 . S
C2122 C2127 1.363 . S
C2123 H2094 0.950 . S
C2123 C2122 1.397 . S
C2123 C2124 1.334 . S
C2124 H2095 0.950 . S
C2124 C2123 1.334 . S
C2124 C2125 1.287 . S
C2125 C2124 1.287 . S
C2125 C2126 1.524 . S
C2125 H2128 0.999 . S
C2126 H2096 0.950 . S
C2126 C2125 1.524 . S
C2126 C2127 1.415 . S
C2127 H2097 0.950 . S
C2127 C2122 1.363 . S
C2127 C2126 1.415 . S
H2128 C2125 0.999 . S
H2129 C2110 0.913 . S
H2130 C2148 0.951 . S
H2131 C2150 0.951 . S
H2132 C2152 0.950 . S
H2133 C2153 0.950 . S
H2134 C2155 0.950 . S
H2135 C2158 0.950 . S
H2136 C2159 0.950 . S
H2137 C2161 0.950 . S
H2138 C2162 0.950 . S
H2139 C2163 0.951 . S
H2140 C2165 0.951 . S
H2141 C2167 0.950 . S
H2142 C2168 0.950 . S
H2143 C2170 0.950 . S
H2144 C2173 0.950 . S
H2145 C2174 0.950 . S
H2146 C2176 0.950 . S
H2147 C2177 0.950 . S
C2148 H2130 0.951 . S
C2148 C2149 1.366 . S
C2148 C2150 1.388 . S
C2149 C2148 1.366 . S
C2149 C2153 1.385 . S
C2150 H2131 0.951 . S
C2150 C2148 1.388 . S
C2150 C2151 1.366 . S
C2151 C2150 1.366 . S
C2151 C2152 1.414 . S
C2151 C2154 1.499 . S
C2152 H2132 0.950 . S
C2152 C2151 1.414 . S
C2152 C2153 1.374 . S
C2153 H2133 0.950 . S
C2153 C2149 1.385 . S
C2153 C2152 1.374 . S
C2154 C2151 1.499 . S
C2154 C2155 1.373 . S
C2154 C2156 1.389 . S
C2155 H2134 0.950 . S
C2155 C2154 1.373 . S
C2155 C2171 1.377 . S
C2156 C2154 1.389 . S
C2156 C2157 1.524 . S
C2156 C2170 1.377 . S
C2157 C2156 1.524 . S
C2157 C2158 1.397 . S
C2157 C2162 1.363 . S
C2158 H2135 0.950 . S
C2158 C2157 1.397 . S
C2158 C2159 1.334 . S
C2159 H2136 0.950 . S
C2159 C2158 1.334 . S
C2159 C2160 1.287 . S
C2160 C2159 1.287 . S
C2160 C2161 1.524 . S
C2160 H2179 0.913 . S
C2161 H2137 0.950 . S
C2161 C2160 1.524 . S
C2161 C2162 1.415 . S
C2162 H2138 0.950 . S
C2162 C2157 1.363 . S
C2162 C2161 1.415 . S
C2163 H2139 0.951 . S
C2163 C2164 1.366 . S
C2163 C2165 1.388 . S
C2164 C2163 1.366 . S
C2164 C2168 1.385 . S
C2165 H2140 0.951 . S
C2165 C2163 1.388 . S
C2165 C2166 1.366 . S
C2166 C2165 1.366 . S
C2166 C2167 1.414 . S
C2166 C2169 1.499 . S
C2167 H2141 0.950 . S
C2167 C2166 1.414 . S
C2167 C2168 1.374 . S
C2168 H2142 0.950 . S
C2168 C2164 1.385 . S
C2168 C2167 1.374 . S
C2169 C2166 1.499 . S
C2169 C2170 1.373 . S
C2169 C2171 1.389 . S
C2170 H2143 0.950 . S
C2170 C2156 1.377 . S
C2170 C2169 1.373 . S
C2171 C2155 1.377 . S
C2171 C2169 1.389 . S
C2171 C2172 1.524 . S
C2172 C2171 1.524 . S
C2172 C2173 1.397 . S
C2172 C2177 1.363 . S
C2173 H2144 0.950 . S
C2173 C2172 1.397 . S
C2173 C2174 1.334 . S
C2174 H2145 0.950 . S
C2174 C2173 1.334 . S
C2174 C2175 1.287 . S
C2175 C2174 1.287 . S
C2175 C2176 1.524 . S
C2175 H2178 0.999 . S
C2176 H2146 0.950 . S
C2176 C2175 1.524 . S
C2176 C2177 1.415 . S
C2177 H2147 0.950 . S
C2177 C2172 1.363 . S
C2177 C2176 1.415 . S
H2178 C2175 0.999 . S
H2179 C2160 0.913 . S
H2180 C2198 0.951 . S
H2181 C2200 0.951 . S
H2182 C2202 0.950 . S
H2183 C2203 0.950 . S
H2184 C2205 0.950 . S
H2185 C2208 0.950 . S
H2186 C2209 0.950 . S
H2187 C2211 0.950 . S
H2188 C2212 0.950 . S
H2189 C2213 0.951 . S
H2190 C2215 0.951 . S
H2191 C2217 0.950 . S
H2192 C2218 0.950 . S
H2193 C2220 0.950 . S
H2194 C2223 0.950 . S
H2195 C2224 0.950 . S
H2196 C2226 0.950 . S
H2197 C2227 0.950 . S
C2198 H2180 0.951 . S
C2198 C2199 1.366 . S
C2198 C2200 1.388 . S
C2199 C2198 1.366 . S
C2199 C2203 1.385 . S
C2200 H2181 0.951 . S
C2200 C2198 1.388 . S
C2200 C2201 1.366 . S
C2201 C2200 1.366 . S
C2201 C2202 1.414 . S
C2201 C2204 1.499 . S
C2202 H2182 0.950 . S
C2202 C2201 1.414 . S
C2202 C2203 1.374 . S
C2203 H2183 0.950 . S
C2203 C2199 1.385 . S
C2203 C2202 1.374 . S
C2204 C2201 1.499 . S
C2204 C2205 1.373 . S
C2204 C2206 1.389 . S
C2205 H2184 0.950 . S
C2205 C2204 1.373 . S
C2205 C2221 1.377 . S
C2206 C2204 1.389 . S
C2206 C2207 1.524 . S
C2206 C2220 1.377 . S
C2207 C2206 1.524 . S
C2207 C2208 1.397 . S
C2207 C2212 1.363 . S
C2208 H2185 0.950 . S
C2208 C2207 1.397 . S
C2208 C2209 1.334 . S
C2209 H2186 0.950 . S
C2209 C2208 1.334 . S
C2209 C2210 1.287 . S
C2210 C2209 1.287 . S
C2210 C2211 1.524 . S
C2210 H2229 0.913 . S
C2211 H2187 0.950 . S
C2211 C2210 1.524 . S
C2211 C2212 1.415 . S
C2212 H2188 0.950 . S
C2212 C2207 1.363 . S
C2212 C2211 1.415 . S
C2213 H2189 0.951 . S
C2213 C2214 1.366 . S
C2213 C2215 1.388 . S
C2214 C2213 1.366 . S
C2214 C2218 1.385 . S
C2215 H2190 0.951 . S
C2215 C2213 1.388 . S
C2215 C2216 1.366 . S
C2216 C2215 1.366 . S
C2216 C2217 1.414 . S
C2216 C2219 1.499 . S
C2217 H2191 0.950 . S
C2217 C2216 1.414 . S
C2217 C2218 1.374 . S
C2218 H2192 0.950 . S
C2218 C2214 1.385 . S
C2218 C2217 1.374 . S
C2219 C2216 1.499 . S
C2219 C2220 1.373 . S
C2219 C2221 1.389 . S
C2220 H2193 0.950 . S
C2220 C2206 1.377 . S
C2220 C2219 1.373 . S
C2221 C2205 1.377 . S
C2221 C2219 1.389 . S
C2221 C2222 1.524 . S
C2222 C2221 1.524 . S
C2222 C2223 1.397 . S
C2222 C2227 1.363 . S
C2223 H2194 0.950 . S
C2223 C2222 1.397 . S
C2223 C2224 1.334 . S
C2224 H2195 0.950 . S
C2224 C2223 1.334 . S
C2224 C2225 1.287 . S
C2225 C2224 1.287 . S
C2225 C2226 1.524 . S
C2225 H2228 0.999 . S
C2226 H2196 0.950 . S
C2226 C2225 1.524 . S
C2226 C2227 1.415 . S
C2227 H2197 0.950 . S
C2227 C2222 1.363 . S
C2227 C2226 1.415 . S
H2228 C2225 0.999 . S
H2229 C2210 0.913 . S
H2230 C2248 0.951 . S
H2231 C2250 0.951 . S
H2232 C2252 0.950 . S
H2233 C2253 0.950 . S
H2234 C2255 0.950 . S
H2235 C2258 0.950 . S
H2236 C2259 0.950 . S
H2237 C2261 0.950 . S
H2238 C2262 0.950 . S
H2239 C2263 0.951 . S
H2240 C2265 0.951 . S
H2241 C2267 0.950 . S
H2242 C2268 0.950 . S
H2243 C2270 0.950 . S
H2244 C2273 0.950 . S
H2245 C2274 0.950 . S
H2246 C2276 0.950 . S
H2247 C2277 0.950 . S
C2248 H2230 0.951 . S
C2248 C2249 1.366 . S
C2248 C2250 1.388 . S
C2249 C2248 1.366 . S
C2249 C2253 1.385 . S
C2250 H2231 0.951 . S
C2250 C2248 1.388 . S
C2250 C2251 1.366 . S
C2251 C2250 1.366 . S
C2251 C2252 1.414 . S
C2251 C2254 1.499 . S
C2252 H2232 0.950 . S
C2252 C2251 1.414 . S
C2252 C2253 1.374 . S
C2253 H2233 0.950 . S
C2253 C2249 1.385 . S
C2253 C2252 1.374 . S
C2254 C2251 1.499 . S
C2254 C2255 1.373 . S
C2254 C2256 1.389 . S
C2255 H2234 0.950 . S
C2255 C2254 1.373 . S
C2255 C2271 1.377 . S
C2256 C2254 1.389 . S
C2256 C2257 1.524 . S
C2256 C2270 1.377 . S
C2257 C2256 1.524 . S
C2257 C2258 1.397 . S
C2257 C2262 1.363 . S
C2258 H2235 0.950 . S
C2258 C2257 1.397 . S
C2258 C2259 1.334 . S
C2259 H2236 0.950 . S
C2259 C2258 1.334 . S
C2259 C2260 1.287 . S
C2260 C2259 1.287 . S
C2260 C2261 1.524 . S
C2260 H2279 0.913 . S
C2261 H2237 0.950 . S
C2261 C2260 1.524 . S
C2261 C2262 1.415 . S
C2262 H2238 0.950 . S
C2262 C2257 1.363 . S
C2262 C2261 1.415 . S
C2263 H2239 0.951 . S
C2263 C2264 1.366 . S
C2263 C2265 1.388 . S
C2264 C2263 1.366 . S
C2264 C2268 1.385 . S
C2265 H2240 0.951 . S
C2265 C2263 1.388 . S
C2265 C2266 1.366 . S
C2266 C2265 1.366 . S
C2266 C2267 1.414 . S
C2266 C2269 1.526 . S
C2267 H2241 0.950 . S
C2267 C2266 1.414 . S
C2267 C2268 1.374 . S
C2268 H2242 0.950 . S
C2268 C2264 1.385 . S
C2268 C2267 1.374 . S
C2269 C2266 1.526 . S
C2269 C2270 1.350 1_455 S
C2269 C2271 1.385 1_455 S
C2270 H2243 0.950 . S
C2270 C2256 1.377 . S
C2270 C2269 1.350 1_655 S
C2271 C2255 1.377 . S
C2271 C2269 1.385 1_655 S
C2271 C2272 1.524 1_655 S
C2272 C2271 1.524 1_455 S
C2272 C2273 1.397 . S
C2272 C2277 1.363 . S
C2273 H2244 0.950 . S
C2273 C2272 1.397 . S
C2273 C2274 1.334 . S
C2274 H2245 0.950 . S
C2274 C2273 1.334 . S
C2274 C2275 1.287 . S
C2275 C2274 1.287 . S
C2275 C2276 1.524 . S
C2275 H2278 0.999 . S
C2276 H2246 0.950 . S
C2276 C2275 1.524 . S
C2276 C2277 1.415 . S
C2277 H2247 0.950 . S
C2277 C2272 1.363 . S
C2277 C2276 1.415 . S
H2278 C2275 0.999 . S
H2279 C2260 0.913 . S
C499 C19 0.850 . S
C514 C459 0.849 . S
C549 C371 1.586 . S
C564 C59 1.652 . S
C599 C91 1.131 . S
C614 C339 1.171 . S
C649 C139 1.933 . S
C664 C419 1.926 . S
C699 C179 1.622 . S
C714 C411 1.575 . S
C749 C211 1.389 . S
C764 C451 1.406 . S
C799 C379 1.704 . S
C814 C259 1.703 . S
C849 C291 1.660 . S
C864 C331 1.709 . S
C899 C131 1.715 . S
C914 C171 1.750 . S
C949 C11 1.427 . S
C964 C219 1.487 . S
C999 C51 1.585 . S
C1014 C251 1.590 . S
C1049 C299 1.796 . S
C1064 C99 1.801 . S
C1099 C7 1.528 . S
C1114 C330 1.446 . S
C1149 C47 1.849 . S
C1164 C410 1.780 . S
C1199 C450 1.813 . S
C1214 C96 1.824 . S
C1249 C127 1.514 . S
C1264 C362 1.490 . S
C1299 C167 1.153 . S
C1314 C370 1.121 . S
C1349 C322 1.782 . S
C1364 C216 1.724 . S
C1399 C402 1.317 . S
C1414 C247 1.324 . S
C1449 C442 2.717 . S
C1464 C296 2.644 . S
C1499 C2 2.774 . S
C1514 C136 2.696 . S
C1549 C16 1.910 . S
C1564 C42 1.956 . S
C1599 C56 2.193 . S
C1614 C90 2.182 . S
C1649 C122 1.705 . S
C1664 C87 1.735 . S
C1699 C207 1.447 . S
C1714 C162 1.432 . S
C1749 C210 1.113 . S
C1764 C256 1.135 . S
C1799 C242 1.453 . S
C1814 C287 1.470 . S
C1849 C176 0.613 . S
C1864 C290 0.624 . S
C1899 C336 0.513 . S
C1914 C130 0.544 . S
C1949 C202 1.503 . S
C1964 C376 1.472 . S
C1999 C327 1.306 . S
C2014 C250 1.262 . S
C2049 C407 1.882 . S
C2064 C282 1.865 . S
C2099 C170 1.175 . S
C2114 C447 1.224 . S
C2149 C456 1.553 . S
C2164 C50 1.525 . S
C2199 C82 1.502 . S
C2214 C367 1.520 . S
C2249 C416 1.624 . S
C2264 C10 1.610 . S
