# Generated by pormake.
# Topology vmg, (6)-cn, num edge types: 1
# Building blocks:
#     Node 0, Type 0, BuildingBlock: IZENUY_clean_sbu_0, # of connection points: 6
#     Node 1, Type 0, BuildingBlock: IZENUY_clean_sbu_0, # of connection points: 6
#     Node 2, Type 0, BuildingBlock: IZENUY_clean_sbu_0, # of connection points: 6
#     Node 3, Type 0, BuildingBlock: IZENUY_clean_sbu_0, # of connection points: 6
#     Node 4, Type 0, BuildingBlock: IZENUY_clean_sbu_0, # of connection points: 6
#     Node 5, Type 0, BuildingBlock: IZENUY_clean_sbu_0, # of connection points: 6
#     Node 6, Type 0, BuildingBlock: IZENUY_clean_sbu_0, # of connection points: 6
#     Node 7, Type 0, BuildingBlock: IZENUY_clean_sbu_0, # of connection points: 6
#     Edge 8, Type (0, 0), BuildingBlock: EZIPEK_clean_linker_0, # of connection points: 2
#     Edge 9, Type (0, 0), BuildingBlock: EZIPEK_clean_linker_0, # of connection points: 2
#     Edge 10, Type (0, 0), BuildingBlock: EZIPEK_clean_linker_0, # of connection points: 2
#     Edge 11, Type (0, 0), BuildingBlock: EZIPEK_clean_linker_0, # of connection points: 2
#     Edge 12, Type (0, 0), BuildingBlock: EZIPEK_clean_linker_0, # of connection points: 2
#     Edge 13, Type (0, 0), BuildingBlock: EZIPEK_clean_linker_0, # of connection points: 2
#     Edge 14, Type (0, 0), BuildingBlock: EZIPEK_clean_linker_0, # of connection points: 2
#     Edge 15, Type (0, 0), BuildingBlock: EZIPEK_clean_linker_0, # of connection points: 2
#     Edge 16, Type (0, 0), BuildingBlock: EZIPEK_clean_linker_0, # of connection points: 2
#     Edge 17, Type (0, 0), BuildingBlock: EZIPEK_clean_linker_0, # of connection points: 2
#     Edge 18, Type (0, 0), BuildingBlock: EZIPEK_clean_linker_0, # of connection points: 2
#     Edge 19, Type (0, 0), BuildingBlock: EZIPEK_clean_linker_0, # of connection points: 2
#     Edge 20, Type (0, 0), BuildingBlock: EZIPEK_clean_linker_0, # of connection points: 2
#     Edge 21, Type (0, 0), BuildingBlock: EZIPEK_clean_linker_0, # of connection points: 2
#     Edge 22, Type (0, 0), BuildingBlock: EZIPEK_clean_linker_0, # of connection points: 2
#     Edge 23, Type (0, 0), BuildingBlock: EZIPEK_clean_linker_0, # of connection points: 2
#     Edge 24, Type (0, 0), BuildingBlock: EZIPEK_clean_linker_0, # of connection points: 2
#     Edge 25, Type (0, 0), BuildingBlock: EZIPEK_clean_linker_0, # of connection points: 2
#     Edge 26, Type (0, 0), BuildingBlock: EZIPEK_clean_linker_0, # of connection points: 2
#     Edge 27, Type (0, 0), BuildingBlock: EZIPEK_clean_linker_0, # of connection points: 2
#     Edge 28, Type (0, 0), BuildingBlock: EZIPEK_clean_linker_0, # of connection points: 2
#     Edge 29, Type (0, 0), BuildingBlock: EZIPEK_clean_linker_0, # of connection points: 2
#     Edge 30, Type (0, 0), BuildingBlock: EZIPEK_clean_linker_0, # of connection points: 2
#     Edge 31, Type (0, 0), BuildingBlock: EZIPEK_clean_linker_0, # of connection points: 2
# Relax obj value: 0.254
# Max RMSD: 0.238
# Mean RMSD: 0.238
data_MOF--net-vmg--node1-IZENUY_clean_sbu_0--edge1-EZIPEK_clean_linker_0
_symmetry_space_group_name_H-M    P1
_symmetry_Int_Tables_number       1
_symmetry_cell_setting            triclinic
loop_
_symmetry_equiv_pos_as_xyz
'x, y, z'
_cell_length_a     20.787282
_cell_length_b     32.918775
_cell_length_c     19.664859
_cell_angle_alpha  89.777042
_cell_angle_beta   100.69303
_cell_angle_gamma 90.257475
loop_
_atom_site_label
_atom_site_type_symbol
_atom_site_fract_x
_atom_site_fract_y
_atom_site_fract_z
_atom_type_partial_charge
Fe0 Fe 0.26676 0.38832 0.21988 0.0
Fe1 Fe 0.16541 0.40514 0.08812 0.0
O2 O 0.22991 0.42184 0.15352 0.0
Fe3 Fe 0.25449 0.47338 0.15399 0.0
O4 O 0.22892 0.48154 0.23545 0.0
O5 O 0.27972 0.42886 0.28865 0.0
O6 O 0.18888 0.37735 0.24555 0.0
C7 C 0.13477 0.36834 0.20781 0.0
C8 C 0.37534 0.43153 0.20546 0.0
O9 O 0.13029 0.36873 0.14268 0.0
C10 C 0.23911 0.45972 0.01673 0.0
O11 O 0.2598 0.34297 0.16105 0.0
O12 O 0.21593 0.36744 0.05817 0.0
O13 O 0.341 0.46368 0.19617 0.0
O14 O 0.34798 0.39707 0.20076 0.0
C15 C 0.11656 0.47852 0.10839 0.0
O16 O 0.1877 0.43968 0.0215 0.0
O17 O 0.27946 0.46824 0.07123 0.0
C18 C 0.24633 0.3398 0.09495 0.0
O19 O 0.11059 0.44103 0.11465 0.0
O20 O 0.17362 0.49311 0.1118 0.0
C21 C 0.25455 0.46422 0.29082 0.0
Fe22 Fe 0.77686 0.47216 0.36317 0.0
Fe23 Fe 0.77048 0.38573 0.30466 0.0
O24 O 0.80189 0.42102 0.36994 0.0
Fe25 Fe 0.8615 0.40593 0.44136 0.0
O26 O 0.92004 0.43966 0.41581 0.0
O27 O 0.8577 0.49251 0.40792 0.0
O28 O 0.80674 0.47881 0.28457 0.0
C29 C 0.78648 0.45939 0.23016 0.0
C30 C 0.78426 0.46518 0.4994 0.0
O31 O 0.76145 0.42397 0.23233 0.0
C32 C 0.78121 0.34069 0.43353 0.0
O33 O 0.69223 0.46064 0.31654 0.0
O34 O 0.68703 0.39379 0.31705 0.0
O35 O 0.83617 0.44395 0.50274 0.0
O36 O 0.74565 0.46888 0.44263 0.0
C37 C 0.90017 0.36386 0.32908 0.0
O38 O 0.77465 0.3418 0.36728 0.0
O39 O 0.80645 0.3701 0.46982 0.0
C40 C 0.65888 0.42782 0.30845 0.0
O41 O 0.85149 0.3761 0.28618 0.0
O42 O 0.89907 0.36675 0.39328 0.0
C43 C 0.91485 0.47731 0.41712 0.0
Fe44 Fe 0.77459 0.56144 0.87289 0.0
Fe45 Fe 0.76247 0.64658 0.80772 0.0
O46 O 0.7997 0.61287 0.87348 0.0
Fe47 Fe 0.86504 0.62907 0.93828 0.0
O48 O 0.91865 0.59279 0.91066 0.0
O49 O 0.85517 0.54123 0.91502 0.0
O50 O 0.80006 0.55334 0.79141 0.0
C51 C 0.77467 0.57098 0.73626 0.0
C52 C 0.79033 0.57508 1.00996 0.0
O53 O 0.74909 0.60617 0.73891 0.0
C54 C 0.78436 0.69461 0.93315 0.0
O55 O 0.68813 0.57141 0.831 0.0
O56 O 0.68179 0.63796 0.82752 0.0
O57 O 0.84234 0.59459 1.00509 0.0
O58 O 0.74978 0.56686 0.95551 0.0
C59 C 0.89432 0.66628 0.81798 0.0
O60 O 0.76974 0.6916 0.86707 0.0
O61 O 0.81602 0.66716 0.96924 0.0
C62 C 0.65408 0.60367 0.82275 0.0
O63 O 0.83971 0.65768 0.78105 0.0
O64 O 0.90021 0.6653 0.8833 0.0
C65 C 0.91238 0.55542 0.91788 0.0
Fe66 Fe 0.25801 0.64957 0.72316 0.0
Fe67 Fe 0.16954 0.63072 0.58437 0.0
O68 O 0.22827 0.61499 0.65622 0.0
Fe69 Fe 0.25456 0.56414 0.66089 0.0
O70 O 0.22481 0.55543 0.73923 0.0
O71 O 0.26676 0.61042 0.79394 0.0
O72 O 0.17599 0.65807 0.73984 0.0
C73 C 0.12825 0.67111 0.6964 0.0
C74 C 0.3711 0.60898 0.7186 0.0
O75 O 0.13119 0.66965 0.63241 0.0
C76 C 0.24722 0.57254 0.52521 0.0
O77 O 0.25427 0.69417 0.66228 0.0
O78 O 0.22575 0.6667 0.55857 0.0
O79 O 0.33871 0.5759 0.7081 0.0
O80 O 0.3422 0.6428 0.71247 0.0
C81 C 0.11657 0.55874 0.60628 0.0
O82 O 0.19504 0.59333 0.52229 0.0
O83 O 0.28614 0.56948 0.5818 0.0
C84 C 0.24997 0.69581 0.59633 0.0
O85 O 0.11062 0.59643 0.60784 0.0
O86 O 0.174 0.54377 0.61518 0.0
C87 C 0.2434 0.57448 0.79443 0.0
Fe88 Fe 0.75562 0.89009 0.21568 0.0
Fe89 Fe 0.67601 0.9076 0.07134 0.0
O90 O 0.73177 0.92375 0.14535 0.0
Fe91 Fe 0.76243 0.97418 0.14922 0.0
O92 O 0.72629 0.98533 0.22312 0.0
O93 O 0.76286 0.93102 0.2825 0.0
O94 O 0.67209 0.88431 0.22831 0.0
C95 C 0.62315 0.87478 0.18339 0.0
C96 C 0.87198 0.92813 0.21594 0.0
O97 O 0.62808 0.87346 0.11974 0.0
C98 C 0.76619 0.96038 0.01679 0.0
O99 O 0.7517 0.84333 0.15967 0.0
O100 O 0.72904 0.86791 0.05373 0.0
O101 O 0.84199 0.96159 0.20382 0.0
O102 O 0.84132 0.89474 0.20948 0.0
C103 C 0.63035 0.98297 0.07869 0.0
O104 O 0.71296 0.94017 1.01078 0.0
O105 O 0.80068 0.96575 0.07544 0.0
C106 C 0.74894 0.83931 0.09432 0.0
O107 O 0.61907 0.94593 0.08329 0.0
O108 O 0.6881 0.99673 0.09481 0.0
C109 C 0.73857 0.96668 0.28007 0.0
Fe110 Fe 0.26209 0.97181 0.38108 0.0
Fe111 Fe 0.26506 0.8892 0.31067 0.0
O112 O 0.29567 0.92268 0.37918 0.0
Fe113 Fe 0.36141 0.90835 0.44487 0.0
O114 O 0.41032 0.94909 0.42241 0.0
O115 O 0.33837 0.99634 0.42646 0.0
O116 O 0.28774 0.98525 0.3018 0.0
C117 C 0.26577 0.96794 0.24555 0.0
C118 C 0.27593 0.95487 0.51648 0.0
O119 O 0.24612 0.93105 0.24496 0.0
C120 C 0.29029 0.83822 0.43202 0.0
O121 O 0.17897 0.95687 0.33594 0.0
O122 O 0.18349 0.89038 0.33035 0.0
O123 O 0.33137 0.93879 0.51329 0.0
O124 O 0.23576 0.96083 0.46127 0.0
C125 C 0.39833 0.8785 0.32222 0.0
O126 O 0.27882 0.84245 0.36613 0.0
O127 O 0.31676 0.86618 0.47082 0.0
C128 C 0.15064 0.92255 0.32651 0.0
O129 O 0.34378 0.88602 0.28472 0.0
O130 O 0.40351 0.87686 0.3878 0.0
C131 C 0.39733 0.98546 0.43117 0.0
Fe132 Fe 0.25952 0.06065 0.88024 0.0
Fe133 Fe 0.2671 0.14401 0.81186 0.0
O134 O 0.2933 0.11046 0.88176 0.0
Fe135 Fe 0.35281 0.1256 0.95405 0.0
O136 O 0.4059 0.08512 0.94057 0.0
O137 O 0.33275 0.037 0.93508 0.0
O138 O 0.29349 0.04694 0.80622 0.0
C139 C 0.28289 0.06546 0.74905 0.0
C140 C 0.25913 0.07677 1.01184 0.0
O141 O 0.2606 0.10195 0.74592 0.0
C142 C 0.28039 0.1953 0.9333 0.0
O143 O 0.18016 0.07311 0.82539 0.0
O144 O 0.18213 0.13949 0.81995 0.0
O145 O 0.31431 0.09496 0.01652 0.0
O146 O 0.2231 0.07257 0.95383 0.0
C147 C 0.40086 0.15882 0.83854 0.0
O148 O 0.27093 0.19055 0.86756 0.0
O149 O 0.3052 0.16762 0.97364 0.0
C150 C 0.15076 0.10661 0.81341 0.0
O151 O 0.34868 0.15149 0.79671 0.0
O152 O 0.40225 0.15734 0.90356 0.0
C153 C 0.39172 0.04876 0.94863 0.0
Fe154 Fe 0.75608 0.14532 0.71459 0.0
Fe155 Fe 0.6652 0.12698 0.57726 0.0
O156 O 0.72861 0.112 0.64486 0.0
Fe157 Fe 0.7629 0.06306 0.64302 0.0
O158 O 0.73689 0.04882 0.72198 0.0
O159 O 0.77411 0.10356 0.78012 0.0
O160 O 0.67547 0.14757 0.73709 0.0
C161 C 0.62399 0.15823 0.69697 0.0
C162 C 0.87254 0.1129 0.70131 0.0
O163 O 0.62304 0.15986 0.63219 0.0
C164 C 0.75007 0.08004 0.50724 0.0
O165 O 0.7426 0.19246 0.65932 0.0
O166 O 0.71305 0.16849 0.55351 0.0
O167 O 0.8452 0.07845 0.6891 0.0
O168 O 0.83907 0.14484 0.69864 0.0
C169 C 0.62795 0.04955 0.5906 0.0
O170 O 0.69498 0.09618 0.51018 0.0
O171 O 0.79 0.07415 0.56282 0.0
C172 C 0.73516 0.19702 0.59353 0.0
O173 O 0.61411 0.08621 0.59732 0.0
O174 O 0.68708 0.03863 0.59714 0.0
C175 C 0.75634 0.06634 0.77864 0.0
C176 C 0.55855 0.41103 0.21696 0.0
C177 C 0.58627 0.42948 0.28146 0.0
C178 C 0.47606 0.45236 0.29408 0.0
C179 C 0.44843 0.43379 0.22971 0.0
N180 N 0.46506 0.40412 0.12298 0.0
N181 N 0.57028 0.46171 0.38663 0.0
C182 C 0.49022 0.41523 0.1896 0.0
C183 C 0.54474 0.44909 0.32087 0.0
N184 N 0.59714 0.38868 0.18203 0.0
N185 N 0.43678 0.47353 0.32971 0.0
H186 H 0.61955 0.45874 0.40885 0.0
H187 H 0.54251 0.47192 0.42194 0.0
H188 H 0.38627 0.47408 0.31559 0.0
H189 H 0.454 0.49268 0.37111 0.0
H190 H 0.57871 0.36967 0.14077 0.0
H191 H 0.6478 0.38701 0.19621 0.0
H192 H 0.49333 0.39469 0.08753 0.0
H193 H 0.41605 0.40833 0.10051 0.0
C194 C 0.53974 0.62309 0.83682 0.0
C195 C 0.58098 0.60197 0.79884 0.0
C196 C 0.48531 0.58863 0.70614 0.0
C197 C 0.44359 0.60773 0.7457 0.0
N198 N 0.43 0.6405 0.852 0.0
N199 N 0.59131 0.56053 0.7 0.0
C200 C 0.47063 0.62456 0.81171 0.0
C201 C 0.5531 0.58324 0.73467 0.0
N202 N 0.5669 0.64184 0.89742 0.0
N203 N 0.46099 0.57815 0.63899 0.0
H204 H 0.64174 0.55882 0.71419 0.0
H205 H 0.57261 0.54128 0.65915 0.0
H206 H 0.41241 0.58283 0.61546 0.0
H207 H 0.48984 0.56861 0.60416 0.0
H208 H 0.54254 0.66288 0.92267 0.0
H209 H 0.61536 0.63745 0.92174 0.0
H210 H 0.44488 0.64837 0.90371 0.0
H211 H 0.3797 0.64339 0.83577 0.0
C212 C 0.05478 0.90873 0.22967 0.0
C213 C 0.07897 0.92094 0.29922 0.0
C214 C 0.96891 0.94271 0.31072 0.0
C215 C 0.94375 0.92809 0.24302 0.0
N216 N 0.96127 0.89683 0.13773 0.0
N217 N 0.05715 0.94031 0.41037 0.0
C218 C 0.98638 0.9108 0.20262 0.0
C219 C 0.03546 0.93547 0.34089 0.0
N220 N 0.0973 0.89672 0.18838 0.0
N221 N 0.92972 0.96422 0.34595 0.0
H222 H 0.10481 0.93312 0.43437 0.0
H223 H 0.02655 0.94699 0.44514 0.0
H224 H 0.88075 0.97004 0.32615 0.0
H225 H 0.9472 0.97954 0.39193 0.0
H226 H 0.08444 0.89319 0.13503 0.0
H227 H 0.1467 0.89152 0.20665 0.0
H228 H 0.98676 0.87845 0.10898 0.0
H229 H 0.91351 0.90299 0.11303 0.0
C230 C 0.05444 0.09307 0.71759 0.0
C231 C 0.07925 0.10748 0.78554 0.0
C232 C 0.96813 0.12681 0.79838 0.0
C233 C 0.94415 0.11465 0.7288 0.0
N234 N 0.9665 0.09575 0.61764 0.0
N235 N 0.0616 0.14159 0.88868 0.0
C236 C 0.98793 0.10034 0.68721 0.0
C237 C 0.0366 0.1256 0.82514 0.0
N238 N 0.0941 0.07217 0.682 0.0
N239 N 0.92545 0.13777 0.84017 0.0
H240 H 0.11017 0.13774 0.91297 0.0
H241 H 0.03521 0.16031 0.91599 0.0
H242 H 0.87557 0.14151 0.82257 0.0
H243 H 0.93877 0.14112 0.89355 0.0
H244 H 0.07696 0.05699 0.63578 0.0
H245 H 0.14339 0.06704 0.70125 0.0
H246 H 0.99722 0.08921 0.58293 0.0
H247 H 0.9189 0.10298 0.59354 0.0
C248 C 0.30035 0.30331 1.00768 0.0
C249 C 0.25886 0.30157 0.05775 0.0
C250 C 0.22503 0.23214 0.01887 0.0
C251 C 0.26531 0.23414 0.9675 0.0
N252 N 0.33755 0.2728 0.90908 0.0
N253 N 0.17679 0.26608 0.10683 0.0
C254 C 0.30154 0.27024 0.96052 0.0
C255 C 0.22022 0.26631 0.06243 0.0
N256 N 0.34055 0.33629 1.00724 0.0
N257 N 0.19187 0.19693 0.02666 0.0
H258 H 0.17491 0.28904 0.14265 0.0
H259 H 0.14048 0.24421 0.10663 0.0
H260 H 0.18916 0.17274 0.99222 0.0
H261 H 0.16903 0.19076 0.06837 0.0
H262 H 0.37668 0.33875 0.97729 0.0
H263 H 0.34099 0.3606 0.04113 0.0
H264 H 0.36012 0.29921 0.89609 0.0
H265 H 0.34205 0.24889 0.87579 0.0
C266 C 0.70328 0.28979 0.47258 0.0
C267 C 0.76833 0.30274 0.47184 0.0
C268 C 0.80908 0.25312 0.56465 0.0
C269 C 0.74503 0.23717 0.56016 0.0
N270 N 0.63034 0.23953 0.50825 0.0
N271 N 0.88423 0.2919 0.5095 0.0
C272 C 0.69195 0.25533 0.51351 0.0
C273 C 0.82141 0.2832 0.51616 0.0
N274 N 0.6521 0.3115 0.43648 0.0
N275 N 0.8585 0.23961 0.61533 0.0
H276 H 0.89539 0.31254 0.47341 0.0
H277 H 0.92485 0.2757 0.53425 0.0
H278 H 0.8519 0.2172 0.65084 0.0
H279 H 0.90452 0.25325 0.62653 0.0
H280 H 0.60351 0.30693 0.44104 0.0
H281 H 0.65853 0.33618 0.40501 0.0
H282 H 0.59139 0.24712 0.46895 0.0
H283 H 0.6185 0.21755 0.54219 0.0
C284 C 0.72434 0.7647 0.06477 0.0
C285 C 0.76293 0.8001 0.06048 0.0
C286 C 0.80582 0.76881 0.96346 0.0
C287 C 0.77098 0.73235 0.97112 0.0
N288 N 0.70354 0.69362 0.03555 0.0
N289 N 0.84849 0.83304 0.01313 0.0
C290 C 0.73244 0.72975 0.02398 0.0
C291 C 0.80582 0.80122 1.01169 0.0
N292 N 0.67703 0.76512 0.10465 0.0
N293 N 0.83913 0.77264 0.90997 0.0
H294 H 0.85002 0.85701 0.04775 0.0
H295 H 0.88616 0.83409 0.98492 0.0
H296 H 0.84304 0.74931 0.87542 0.0
H297 H 0.85886 0.79994 0.89634 0.0
H298 H 0.64176 0.74243 0.10321 0.0
H299 H 0.66969 0.78958 0.1357 0.0
H300 H 0.6823 0.68802 0.07866 0.0
H301 H 0.704 0.66827 1.00404 0.0
C302 C 0.30882 0.73219 0.51303 0.0
C303 C 0.26381 0.73392 0.55936 0.0
C304 C 0.23147 0.80276 0.51632 0.0
C305 C 0.27404 0.80011 0.46747 0.0
N306 N 0.34595 0.75999 0.41213 0.0
N307 N 0.17524 0.76869 0.59812 0.0
C308 C 0.3103 0.764 0.4635 0.0
C309 C 0.22353 0.76876 0.55946 0.0
N310 N 0.35196 0.70056 0.51828 0.0
N311 N 0.19868 0.83821 0.52179 0.0
H312 H 0.16926 0.74556 0.6326 0.0
H313 H 0.13843 0.79041 0.59331 0.0
H314 H 0.19744 0.8622 0.48672 0.0
H315 H 0.17487 0.84464 0.56261 0.0
H316 H 0.39041 0.69903 0.49124 0.0
H317 H 0.35308 0.67733 0.55476 0.0
H318 H 0.36833 0.73309 0.40173 0.0
H319 H 0.3486 0.78264 0.37563 0.0
C320 C 0.02841 0.55454 0.98447 0.0
C321 C 0.97023 0.53281 0.95619 0.0
C322 C 1.00025 0.47944 0.04267 0.0
C323 C 0.05844 0.50117 0.0708 0.0
N324 N 0.1105 0.5667 0.08662 0.0
N325 N 0.91762 0.46741 0.94091 0.0
C326 C 0.06741 0.54098 0.04706 0.0
C327 C 0.96103 0.49306 0.9802 0.0
N328 N 0.04906 0.58644 0.94925 0.0
N329 N 0.97994 0.44744 0.0779 0.0
H330 H 0.89345 0.47532 0.89128 0.0
H331 H 0.91282 0.43685 0.95317 0.0
H332 H 1.0025 0.43991 0.12825 0.0
H333 H 0.93529 0.43265 0.06196 0.0
H334 H 0.09373 0.60117 0.96547 0.0
H335 H 0.02691 0.59392 0.89876 0.0
H336 H 0.11506 0.59729 0.07448 0.0
H337 H 0.13457 0.55875 0.13627 0.0
C338 C 1.00289 0.55693 0.5337 0.0
C339 C 0.05888 0.53545 0.56842 0.0
C340 C 0.02846 0.4786 0.49038 0.0
C341 C 0.97276 0.5003 0.45529 0.0
N342 N 0.92572 0.566 0.4265 0.0
N343 N 0.10682 0.47001 0.5971 0.0
C344 C 0.96557 0.54135 0.47177 0.0
C345 C 0.0663 0.49441 0.55197 0.0
N346 N 0.98165 0.59035 0.56322 0.0
N347 N 0.04876 0.44464 0.46159 0.0
H348 H 0.13009 0.48026 0.64567 0.0
H349 H 0.10987 0.43871 0.59085 0.0
H350 H 0.02998 0.43672 0.41046 0.0
H351 H 0.0902 0.42858 0.48438 0.0
H352 H 0.93953 0.6059 0.54078 0.0
H353 H 1.00032 0.59807 0.61448 0.0
H354 H 0.92303 0.59729 0.43322 0.0
H355 H 0.90266 0.55594 0.37773 0.0
C356 C 0.5402 0.03101 0.08009 0.0
C357 C 0.57599 1.00732 0.04115 0.0
C358 C 0.47935 0.99896 0.95024 0.0
C359 C 0.44404 0.02353 0.98804 0.0
N360 N 0.43285 0.04964 0.09891 0.0
N361 N 0.58624 0.98093 0.92993 0.0
C362 C 0.47233 0.03613 0.05591 0.0
C363 C 0.54731 0.9945 0.9735 0.0
N364 N 0.5718 0.04959 0.13874 0.0
N365 N 0.44705 0.97866 0.89384 0.0
H366 H 0.63679 0.9837 0.94289 0.0
H367 H 0.56888 0.97345 0.87833 0.0
H368 H 0.39611 0.97986 0.87993 0.0
H369 H 0.46935 0.95724 0.86708 0.0
H370 H 0.54941 0.0704 0.16652 0.0
H371 H 0.62246 0.04754 0.15447 0.0
H372 H 0.44933 0.05695 0.15071 0.0
H373 H 0.38238 0.04695 0.08503 0.0
C374 C 0.51263 1.00533 0.44209 0.0
C375 C 0.45321 1.00991 0.4667 0.0
C376 C 0.51474 0.02559 0.58191 0.0
C377 C 0.57352 0.02359 0.5563 0.0
N378 N 0.62976 0.99526 0.47098 0.0
N379 N 0.39764 0.03418 0.55599 0.0
C380 C 0.57322 1.00883 0.48874 0.0
C381 C 0.45405 0.02266 0.53559 0.0
N382 N 0.51018 0.9979 0.37337 0.0
N383 N 0.51771 0.02829 0.65157 0.0
H384 H 0.35334 0.03738 0.52189 0.0
H385 H 0.39652 0.04585 0.60474 0.0
H386 H 0.56221 0.03064 0.68622 0.0
H387 H 0.47749 0.02223 0.67457 0.0
H388 H 0.55115 0.99505 0.35067 0.0
H389 H 0.46606 0.9979 0.33792 0.0
H390 H 0.63109 0.97964 0.4254 0.0
H391 H 0.67399 0.99399 0.50573 0.0
C392 C 0.07556 0.37042 0.31084 0.0
C393 C 0.0754 0.35902 0.24088 0.0
C394 C 0.95923 0.33884 0.23307 0.0
C395 C 0.96147 0.35067 0.30325 0.0
N396 N 0.03473 0.35207 0.41406 0.0
N397 N 0.02075 0.31692 0.14635 0.0
C398 C 0.02397 0.35758 0.34415 0.0
C399 C 0.01824 0.33866 0.20479 0.0
N400 N 0.12122 0.39672 0.34433 0.0
N401 N 0.90142 0.32625 0.19403 0.0
H402 H 0.06384 0.31201 0.12804 0.0
H403 H 0.98211 0.29908 0.12126 0.0
H404 H 0.86069 0.31891 0.21569 0.0
H405 H 0.89421 0.32328 0.1404 0.0
H406 H 0.12681 0.40262 0.3968 0.0
H407 H 0.14509 0.41767 0.31788 0.0
H408 H 0.08125 0.35467 0.44465 0.0
H409 H 1.00013 0.33868 0.43925 0.0
C410 C 0.06836 0.69677 0.7911 0.0
C411 C 0.06651 0.68423 0.72136 0.0
C412 C 0.95237 0.66419 0.71373 0.0
C413 C 0.9527 0.67591 0.78369 0.0
N414 N 1.00577 0.7196 0.87639 0.0
N415 N 0.99374 0.68173 0.61035 0.0
C416 C 1.00925 0.69702 0.81908 0.0
C417 C 1.00419 0.67677 0.68036 0.0
N418 N 0.12591 0.70993 0.82994 0.0
N419 N 0.90618 0.63813 0.68022 0.0
H420 H 0.02854 0.69477 0.58502 0.0
H421 H 0.94733 0.67898 0.5796 0.0
H422 H 0.88111 0.61783 0.70655 0.0
H423 H 0.90072 0.63171 0.62788 0.0
H424 H 0.1327 0.71377 0.88338 0.0
H425 H 0.16687 0.71675 0.8083 0.0
H426 H 0.04402 0.73786 0.90113 0.0
H427 H 0.96207 0.72473 0.89357 0.0
C428 C 0.46294 0.90266 0.23282 0.0
C429 C 0.45678 0.87474 0.28682 0.0
C430 C 0.55764 0.84128 0.26591 0.0
C431 C 0.55945 0.86731 0.20808 0.0
N432 N 0.49675 0.91161 0.12285 0.0
N433 N 0.4934 0.81229 0.34594 0.0
C434 C 0.50658 0.89429 0.18701 0.0
C435 C 0.50286 0.8425 0.30104 0.0
N436 N 0.43003 0.93869 0.22734 0.0
N437 N 0.60838 0.81524 0.28721 0.0
H438 H 0.45424 0.81202 0.37213 0.0
H439 H 0.52127 0.78589 0.35299 0.0
H440 H 0.64568 0.81087 0.25905 0.0
H441 H 0.61461 0.79923 0.33375 0.0
H442 H 0.43759 0.9615 0.19267 0.0
H443 H 0.40166 0.94782 0.26296 0.0
H444 H 0.45653 0.92996 0.10409 0.0
H445 H 0.52253 0.90252 0.08501 0.0
C446 C 0.56644 0.19062 0.78785 0.0
C447 C 0.56367 0.16619 0.72721 0.0
C448 C 0.46518 0.13398 0.75216 0.0
C449 C 0.46212 0.16091 0.80746 0.0
N450 N 0.50673 0.21979 0.87187 0.0
N451 N 0.49274 0.1269 0.63959 0.0
C452 C 0.51207 0.19075 0.82398 0.0
C453 C 0.50725 0.14214 0.70508 0.0
N454 N 0.62045 0.21406 0.81027 0.0
N455 N 0.43035 0.09875 0.74707 0.0
H456 H 0.51851 0.1345 0.60086 0.0
H457 H 0.44886 0.11178 0.62109 0.0
H458 H 0.40786 0.08887 0.78725 0.0
H459 H 0.43179 0.07746 0.7087 0.0
H460 H 0.62905 0.22878 0.85789 0.0
H461 H 0.65769 0.21767 0.7817 0.0
H462 H 0.5382 0.24466 0.88153 0.0
H463 H 0.46773 0.2205 0.89839 0.0
C464 C 0.18437 0.49616 0.90681 0.0
C465 C 0.24279 0.48389 0.95211 0.0
C466 C 0.3045 0.53362 0.89467 0.0
C467 C 0.24451 0.55023 0.85885 0.0
N468 N 0.12688 0.55047 0.83747 0.0
N469 N 0.36065 0.48605 0.97998 0.0
C470 C 0.18436 0.53269 0.86804 0.0
C471 C 0.30354 0.50144 0.94345 0.0
N472 N 0.13051 0.4714 0.89575 0.0
N473 N 0.3623 0.54675 0.8787 0.0
H474 H 0.36275 0.45792 1.00491 0.0
H475 H 0.4057 0.50079 0.98541 0.0
H476 H 0.36489 0.57074 0.845 0.0
H477 H 0.40733 0.53295 0.89583 0.0
H478 H 0.08779 0.47805 0.86077 0.0
H479 H 0.13209 0.44112 0.91138 0.0
H480 H 0.08111 0.54037 0.84473 0.0
H481 H 0.12544 0.57771 0.80982 0.0
C482 C 0.76716 0.4766 0.6217 0.0
C483 C 0.77556 0.49308 0.55743 0.0
C484 C 0.77221 0.56275 0.60539 0.0
C485 C 0.76676 0.54585 0.67083 0.0
N486 N 0.72966 0.48761 0.72903 0.0
N487 N 0.78562 0.55259 0.48701 0.0
C488 C 0.75615 0.50299 0.67558 0.0
C489 C 0.77662 0.53635 0.54866 0.0
N490 N 0.76982 0.43547 0.6318 0.0
N491 N 0.76991 0.60394 0.59573 0.0
H492 H 0.7788 0.53654 0.44101 0.0
H493 H 0.80155 0.58217 0.48109 0.0
H494 H 0.77082 0.625 0.63496 0.0
H495 H 0.76294 0.61802 0.54751 0.0
H496 H 0.77331 0.422 0.68038 0.0
H497 H 0.77304 0.41479 0.59254 0.0
H498 H 0.7147 0.4575 0.73166 0.0
H499 H 0.71396 0.50575 0.76595 0.0
C500 C 0.72503 0.49901 0.12858 0.0
C501 C 0.78522 0.48306 0.16513 0.0
C502 C 0.8445 0.5385 0.11959 0.0
C503 C 0.78624 0.55054 0.07407 0.0
N504 N 0.66847 0.54757 0.04515 0.0
N505 N 0.90289 0.4841 0.18767 0.0
C506 C 0.72567 0.53213 0.08142 0.0
C507 C 0.84511 0.50149 0.15705 0.0
N508 N 0.66726 0.48415 0.14215 0.0
N509 N 0.89749 0.56392 0.13216 0.0
H510 H 0.90475 0.45648 0.21431 0.0
H511 H 0.94852 0.49494 0.18126 0.0
H512 H 0.89499 0.5943 0.11703 0.0
H513 H 0.94001 0.55751 0.16764 0.0
H514 H 0.62173 0.49721 0.12456 0.0
H515 H 0.6649 0.45897 0.1735 0.0
H516 H 0.62356 0.53262 0.03884 0.0
H517 H 0.66611 0.5761 0.02148 0.0
C518 C 0.25802 0.47395 0.42163 0.0
C519 C 0.26382 0.48995 0.35574 0.0
C520 C 0.26027 0.55966 0.4019 0.0
C521 C 0.25495 0.54396 0.46771 0.0
N522 N 0.2653 0.48501 0.54419 0.0
N523 N 0.29928 0.54786 0.29558 0.0
C524 C 0.25925 0.50086 0.47891 0.0
C525 C 0.27317 0.5328 0.34946 0.0
N526 N 0.24902 0.43323 0.42997 0.0
N527 N 0.25427 0.60046 0.38927 0.0
H528 H 0.31602 0.52934 0.2598 0.0
H529 H 0.31277 0.57819 0.29178 0.0
H530 H 0.24977 0.6217 0.42729 0.0
H531 H 0.2495 0.61289 0.33976 0.0
H532 H 0.23391 0.42072 0.47316 0.0
H533 H 0.2523 0.41163 0.39248 0.0
H534 H 0.27886 0.45507 0.55638 0.0
H535 H 0.26219 0.5017 0.58801 0.0
C536 C 0.78748 0.97305 0.89636 0.0
C537 C 0.7755 0.98861 0.95973 0.0
C538 C 0.74939 0.05511 0.90452 0.0
C539 C 0.7666 0.04069 0.84265 0.0
N540 N 0.82376 0.989 0.78957 0.0
N541 N 0.76992 0.04952 0.0285 0.0
C542 C 0.79197 1.00047 0.84125 0.0
C543 C 0.76457 0.03119 0.96551 0.0
N544 N 0.79533 0.93225 0.88878 0.0
N545 N 0.71546 0.09053 0.90502 0.0
H546 H 0.7862 0.03487 0.07533 0.0
H547 H 0.76691 0.08092 0.03389 0.0
H548 H 0.70014 0.10817 0.86098 0.0
H549 H 0.69606 0.09984 0.94764 0.0
H550 H 0.79691 0.91888 0.84116 0.0
H551 H 0.7963 0.91158 0.92934 0.0
H552 H 0.84761 0.96123 0.78951 0.0
H553 H 0.83368 1.00897 0.75161 0.0
C554 C 0.24354 0.04671 0.62132 0.0
C555 C 0.28624 0.03985 0.68557 0.0
C556 C 0.31085 0.97169 0.64326 0.0
C557 C 0.26777 0.97876 0.58 0.0
N558 N 0.16958 1.01493 0.52782 0.0
N559 N 0.37758 1.00009 0.74501 0.0
C560 C 0.22716 1.01391 0.57424 0.0
C561 C 0.32421 1.00329 0.69327 0.0
N562 N 0.2215 0.08483 0.60219 0.0
N563 N 0.33543 0.93355 0.6578 0.0
H564 H 0.39279 0.02313 0.78027 0.0
H565 H 0.41187 0.97692 0.74731 0.0
H566 H 0.32175 0.90909 0.62456 0.0
H567 H 0.36171 0.92499 0.70606 0.0
H568 H 0.19412 0.09129 0.55339 0.0
H569 H 0.23899 0.11082 0.62945 0.0
H570 H 0.13629 0.03872 0.52543 0.0
H571 H 0.14967 0.9893 0.50096 0.0
C572 C 0.26641 0.97948 0.11792 0.0
C573 C 0.25431 0.99398 0.182 0.0
C574 C 0.24155 0.06319 0.13328 0.0
C575 C 0.2489 0.04811 0.06801 0.0
N576 N 0.24233 0.98792 0.99453 0.0
N577 N 0.2054 0.04737 0.24006 0.0
C578 C 0.25285 1.0051 0.05881 0.0
C579 C 0.2345 0.03524 0.18671 0.0
N580 N 0.29367 0.94216 0.11316 0.0
N581 N 0.24052 0.10408 0.14439 0.0
H582 H 0.19304 0.02721 0.27656 0.0
H583 H 0.18565 0.07625 0.24264 0.0
H584 H 0.24218 0.12546 0.10546 0.0
H585 H 0.24228 0.11655 0.19337 0.0
H586 H 0.31049 0.9327 0.06903 0.0
H587 H 0.30589 0.92232 0.15481 0.0
H588 H 0.23972 0.95656 0.98716 0.0
H589 H 0.22752 1.00381 0.94869 0.0
C590 C 0.79966 0.02144 0.44996 0.0
C591 C 0.75671 0.05541 0.44412 0.0
C592 C 0.6951 0.02657 0.3364 0.0
C593 C 0.73642 0.99183 0.34374 0.0
N594 N 0.81007 0.95033 0.42501 0.0
N595 N 0.68109 0.09683 0.36644 0.0
C596 C 0.7835 0.98738 0.40558 0.0
C597 C 0.70935 0.05983 0.38278 0.0
N598 N 0.85881 0.02287 0.49369 0.0
N599 N 0.63855 0.02617 0.28843 0.0
H600 H 0.69555 0.12267 0.39604 0.0
H601 H 0.65049 0.10304 0.31933 0.0
H602 H 0.62306 1.00055 0.25859 0.0
H603 H 0.60286 0.04853 0.28562 0.0
H604 H 0.89375 1.00003 0.49624 0.0
H605 H 0.87729 0.04957 0.5181 0.0
H606 H 0.84082 0.94536 0.47253 0.0
H607 H 0.79405 0.92355 0.39936 0.0
loop_
_geom_bond_atom_site_label_1
_geom_bond_atom_site_label_2
_geom_bond_distance
_geom_bond_site_symmetry_2
_ccdc_geom_bond_type
Fe0 O2 1.918 . S
Fe0 O5 1.997 . S
Fe0 O6 2.002 . S
Fe0 O11 1.976 . S
Fe0 O14 1.996 . S
Fe1 O2 1.918 . S
Fe1 O9 1.997 . S
Fe1 O12 1.996 . S
Fe1 O16 1.976 1_554 S
Fe1 O19 2.002 . S
O2 Fe0 1.918 . S
O2 Fe1 1.918 . S
O2 Fe3 1.918 . S
Fe3 O2 1.918 . S
Fe3 O4 2.002 . S
Fe3 O13 1.976 . S
Fe3 O17 1.996 . S
Fe3 O20 1.997 . S
O4 Fe3 2.002 . S
O4 C21 1.295 . S
O5 Fe0 1.997 . S
O5 C21 1.235 . S
O6 Fe0 2.002 . S
O6 C7 1.295 . S
C7 O6 1.295 . S
C7 O9 1.235 . S
C8 O13 1.287 . S
C8 O14 1.255 . S
O9 Fe1 1.997 . S
O9 C7 1.235 . S
C10 O16 1.287 . S
C10 O17 1.255 1_556 S
O11 Fe0 1.976 . S
O11 C18 1.287 . S
O12 Fe1 1.996 . S
O12 C18 1.255 . S
O13 Fe3 1.976 . S
O13 C8 1.287 . S
O14 Fe0 1.996 . S
O14 C8 1.255 . S
C15 O19 1.295 . S
C15 O20 1.235 . S
O16 Fe1 1.976 1_556 S
O16 C10 1.287 . S
O17 Fe3 1.996 . S
O17 C10 1.255 1_554 S
C18 O11 1.287 . S
C18 O12 1.255 . S
O19 Fe1 2.002 . S
O19 C15 1.295 . S
O20 Fe3 1.997 . S
O20 C15 1.235 . S
C21 O4 1.295 . S
C21 O5 1.235 . S
Fe22 O24 1.918 . S
Fe22 O27 1.997 . S
Fe22 O28 2.002 . S
Fe22 O33 1.976 . S
Fe22 O36 1.996 . S
Fe23 O24 1.918 . S
Fe23 O31 1.997 . S
Fe23 O34 1.996 . S
Fe23 O38 1.976 . S
Fe23 O41 2.002 . S
O24 Fe22 1.918 . S
O24 Fe23 1.918 . S
O24 Fe25 1.918 . S
Fe25 O24 1.918 . S
Fe25 O26 2.002 . S
Fe25 O35 1.976 . S
Fe25 O39 1.996 . S
Fe25 O42 1.997 . S
O26 Fe25 2.002 . S
O26 C43 1.295 . S
O27 Fe22 1.997 . S
O27 C43 1.235 . S
O28 Fe22 2.002 . S
O28 C29 1.295 . S
C29 O28 1.295 . S
C29 O31 1.235 . S
C30 O35 1.287 . S
C30 O36 1.255 . S
O31 Fe23 1.997 . S
O31 C29 1.235 . S
C32 O38 1.287 . S
C32 O39 1.255 . S
O33 Fe22 1.976 . S
O33 C40 1.287 . S
O34 Fe23 1.996 . S
O34 C40 1.255 . S
O35 Fe25 1.976 . S
O35 C30 1.287 . S
O36 Fe22 1.996 . S
O36 C30 1.255 . S
C37 O41 1.295 . S
C37 O42 1.235 . S
O38 Fe23 1.976 . S
O38 C32 1.287 . S
O39 Fe25 1.996 . S
O39 C32 1.255 . S
C40 O33 1.287 . S
C40 O34 1.255 . S
O41 Fe23 2.002 . S
O41 C37 1.295 . S
O42 Fe25 1.997 . S
O42 C37 1.235 . S
C43 O26 1.295 . S
C43 O27 1.235 . S
Fe44 O46 1.918 . S
Fe44 O49 1.997 . S
Fe44 O50 2.002 . S
Fe44 O55 1.976 . S
Fe44 O58 1.996 . S
Fe45 O46 1.918 . S
Fe45 O53 1.997 . S
Fe45 O56 1.996 . S
Fe45 O60 1.976 . S
Fe45 O63 2.002 . S
O46 Fe44 1.918 . S
O46 Fe45 1.918 . S
O46 Fe47 1.918 . S
Fe47 O46 1.918 . S
Fe47 O48 2.002 . S
Fe47 O57 1.976 1_556 S
Fe47 O61 1.996 . S
Fe47 O64 1.997 . S
O48 Fe47 2.002 . S
O48 C65 1.295 . S
O49 Fe44 1.997 . S
O49 C65 1.235 . S
O50 Fe44 2.002 . S
O50 C51 1.295 . S
C51 O50 1.295 . S
C51 O53 1.235 . S
C52 O57 1.287 . S
C52 O58 1.255 1_554 S
O53 Fe45 1.997 . S
O53 C51 1.235 . S
C54 O60 1.287 . S
C54 O61 1.255 . S
O55 Fe44 1.976 . S
O55 C62 1.287 . S
O56 Fe45 1.996 . S
O56 C62 1.255 . S
O57 Fe47 1.976 1_554 S
O57 C52 1.287 . S
O58 Fe44 1.996 . S
O58 C52 1.255 1_556 S
C59 O63 1.295 . S
C59 O64 1.235 . S
O60 Fe45 1.976 . S
O60 C54 1.287 . S
O61 Fe47 1.996 . S
O61 C54 1.255 . S
C62 O55 1.287 . S
C62 O56 1.255 . S
O63 Fe45 2.002 . S
O63 C59 1.295 . S
O64 Fe47 1.997 . S
O64 C59 1.235 . S
C65 O48 1.295 . S
C65 O49 1.235 . S
Fe66 O68 1.918 . S
Fe66 O71 1.997 . S
Fe66 O72 2.002 . S
Fe66 O77 1.976 . S
Fe66 O80 1.996 . S
Fe67 O68 1.918 . S
Fe67 O75 1.997 . S
Fe67 O78 1.996 . S
Fe67 O82 1.976 . S
Fe67 O85 2.002 . S
O68 Fe66 1.918 . S
O68 Fe67 1.918 . S
O68 Fe69 1.918 . S
Fe69 O68 1.918 . S
Fe69 O70 2.002 . S
Fe69 O79 1.976 . S
Fe69 O83 1.996 . S
Fe69 O86 1.997 . S
O70 Fe69 2.002 . S
O70 C87 1.295 . S
O71 Fe66 1.997 . S
O71 C87 1.235 . S
O72 Fe66 2.002 . S
O72 C73 1.295 . S
C73 O72 1.295 . S
C73 O75 1.235 . S
C74 O79 1.287 . S
C74 O80 1.255 . S
O75 Fe67 1.997 . S
O75 C73 1.235 . S
C76 O82 1.287 . S
C76 O83 1.255 . S
O77 Fe66 1.976 . S
O77 C84 1.287 . S
O78 Fe67 1.996 . S
O78 C84 1.255 . S
O79 Fe69 1.976 . S
O79 C74 1.287 . S
O80 Fe66 1.996 . S
O80 C74 1.255 . S
C81 O85 1.295 . S
C81 O86 1.235 . S
O82 Fe67 1.976 . S
O82 C76 1.287 . S
O83 Fe69 1.996 . S
O83 C76 1.255 . S
C84 O77 1.287 . S
C84 O78 1.255 . S
O85 Fe67 2.002 . S
O85 C81 1.295 . S
O86 Fe69 1.997 . S
O86 C81 1.235 . S
C87 O70 1.295 . S
C87 O71 1.235 . S
Fe88 O90 1.918 . S
Fe88 O93 1.997 . S
Fe88 O94 2.002 . S
Fe88 O99 1.976 . S
Fe88 O102 1.996 . S
Fe89 O90 1.918 . S
Fe89 O97 1.997 . S
Fe89 O100 1.996 . S
Fe89 O104 1.976 1_554 S
Fe89 O107 2.002 . S
O90 Fe88 1.918 . S
O90 Fe89 1.918 . S
O90 Fe91 1.918 . S
Fe91 O90 1.918 . S
Fe91 O92 2.002 . S
Fe91 O101 1.976 . S
Fe91 O105 1.996 . S
Fe91 O108 1.997 . S
O92 Fe91 2.002 . S
O92 C109 1.295 . S
O93 Fe88 1.997 . S
O93 C109 1.235 . S
O94 Fe88 2.002 . S
O94 C95 1.295 . S
C95 O94 1.295 . S
C95 O97 1.235 . S
C96 O101 1.287 . S
C96 O102 1.255 . S
O97 Fe89 1.997 . S
O97 C95 1.235 . S
C98 O104 1.287 . S
C98 O105 1.255 1_556 S
O99 Fe88 1.976 . S
O99 C106 1.287 . S
O100 Fe89 1.996 . S
O100 C106 1.255 . S
O101 Fe91 1.976 . S
O101 C96 1.287 . S
O102 Fe88 1.996 . S
O102 C96 1.255 . S
C103 O107 1.295 . S
C103 O108 1.235 . S
O104 Fe89 1.976 1_556 S
O104 C98 1.287 . S
O105 Fe91 1.996 . S
O105 C98 1.255 1_554 S
C106 O99 1.287 . S
C106 O100 1.255 . S
O107 Fe89 2.002 . S
O107 C103 1.295 . S
O108 Fe91 1.997 . S
O108 C103 1.235 . S
C109 O92 1.295 . S
C109 O93 1.235 . S
Fe110 O112 1.918 . S
Fe110 O115 1.997 . S
Fe110 O116 2.002 . S
Fe110 O121 1.976 . S
Fe110 O124 1.996 . S
Fe111 O112 1.918 . S
Fe111 O119 1.997 . S
Fe111 O122 1.996 . S
Fe111 O126 1.976 . S
Fe111 O129 2.002 . S
O112 Fe110 1.918 . S
O112 Fe111 1.918 . S
O112 Fe113 1.918 . S
Fe113 O112 1.918 . S
Fe113 O114 2.002 . S
Fe113 O123 1.976 . S
Fe113 O127 1.996 . S
Fe113 O130 1.997 . S
O114 Fe113 2.002 . S
O114 C131 1.295 . S
O115 Fe110 1.997 . S
O115 C131 1.235 . S
O116 Fe110 2.002 . S
O116 C117 1.295 . S
C117 O116 1.295 . S
C117 O119 1.235 . S
C118 O123 1.287 . S
C118 O124 1.255 . S
O119 Fe111 1.997 . S
O119 C117 1.235 . S
C120 O126 1.287 . S
C120 O127 1.255 . S
O121 Fe110 1.976 . S
O121 C128 1.287 . S
O122 Fe111 1.996 . S
O122 C128 1.255 . S
O123 Fe113 1.976 . S
O123 C118 1.287 . S
O124 Fe110 1.996 . S
O124 C118 1.255 . S
C125 O129 1.295 . S
C125 O130 1.235 . S
O126 Fe111 1.976 . S
O126 C120 1.287 . S
O127 Fe113 1.996 . S
O127 C120 1.255 . S
C128 O121 1.287 . S
C128 O122 1.255 . S
O129 Fe111 2.002 . S
O129 C125 1.295 . S
O130 Fe113 1.997 . S
O130 C125 1.235 . S
C131 O114 1.295 . S
C131 O115 1.235 . S
Fe132 O134 1.918 . S
Fe132 O137 1.997 . S
Fe132 O138 2.002 . S
Fe132 O143 1.976 . S
Fe132 O146 1.996 . S
Fe133 O134 1.918 . S
Fe133 O141 1.997 . S
Fe133 O144 1.996 . S
Fe133 O148 1.976 . S
Fe133 O151 2.002 . S
O134 Fe132 1.918 . S
O134 Fe133 1.918 . S
O134 Fe135 1.918 . S
Fe135 O134 1.918 . S
Fe135 O136 2.002 . S
Fe135 O145 1.976 1_556 S
Fe135 O149 1.996 . S
Fe135 O152 1.997 . S
O136 Fe135 2.002 . S
O136 C153 1.295 . S
O137 Fe132 1.997 . S
O137 C153 1.235 . S
O138 Fe132 2.002 . S
O138 C139 1.295 . S
C139 O138 1.295 . S
C139 O141 1.235 . S
C140 O145 1.287 . S
C140 O146 1.255 1_554 S
O141 Fe133 1.997 . S
O141 C139 1.235 . S
C142 O148 1.287 . S
C142 O149 1.255 . S
O143 Fe132 1.976 . S
O143 C150 1.287 . S
O144 Fe133 1.996 . S
O144 C150 1.255 . S
O145 Fe135 1.976 1_554 S
O145 C140 1.287 . S
O146 Fe132 1.996 . S
O146 C140 1.255 1_556 S
C147 O151 1.295 . S
C147 O152 1.235 . S
O148 Fe133 1.976 . S
O148 C142 1.287 . S
O149 Fe135 1.996 . S
O149 C142 1.255 . S
C150 O143 1.287 . S
C150 O144 1.255 . S
O151 Fe133 2.002 . S
O151 C147 1.295 . S
O152 Fe135 1.997 . S
O152 C147 1.235 . S
C153 O136 1.295 . S
C153 O137 1.235 . S
Fe154 O156 1.918 . S
Fe154 O159 1.997 . S
Fe154 O160 2.002 . S
Fe154 O165 1.976 . S
Fe154 O168 1.996 . S
Fe155 O156 1.918 . S
Fe155 O163 1.997 . S
Fe155 O166 1.996 . S
Fe155 O170 1.976 . S
Fe155 O173 2.002 . S
O156 Fe154 1.918 . S
O156 Fe155 1.918 . S
O156 Fe157 1.918 . S
Fe157 O156 1.918 . S
Fe157 O158 2.002 . S
Fe157 O167 1.976 . S
Fe157 O171 1.996 . S
Fe157 O174 1.997 . S
O158 Fe157 2.002 . S
O158 C175 1.295 . S
O159 Fe154 1.997 . S
O159 C175 1.235 . S
O160 Fe154 2.002 . S
O160 C161 1.295 . S
C161 O160 1.295 . S
C161 O163 1.235 . S
C162 O167 1.287 . S
C162 O168 1.255 . S
O163 Fe155 1.997 . S
O163 C161 1.235 . S
C164 O170 1.287 . S
C164 O171 1.255 . S
O165 Fe154 1.976 . S
O165 C172 1.287 . S
O166 Fe155 1.996 . S
O166 C172 1.255 . S
O167 Fe157 1.976 . S
O167 C162 1.287 . S
O168 Fe154 1.996 . S
O168 C162 1.255 . S
C169 O173 1.295 . S
C169 O174 1.235 . S
O170 Fe155 1.976 . S
O170 C164 1.287 . S
O171 Fe157 1.996 . S
O171 C164 1.255 . S
C172 O165 1.287 . S
C172 O166 1.255 . S
O173 Fe155 2.002 . S
O173 C169 1.295 . S
O174 Fe157 1.997 . S
O174 C169 1.235 . S
C175 O158 1.295 . S
C175 O159 1.235 . S
C176 C177 1.363 . S
C176 C182 1.379 . S
C176 N184 1.356 . S
C177 C176 1.363 . S
C177 C183 1.363 . S
C178 C179 1.363 . S
C178 C183 1.379 . S
C178 N185 1.356 . S
C179 C178 1.363 . S
C179 C182 1.363 . S
N180 C182 1.356 . S
N180 H192 0.984 . S
N180 H193 0.985 . S
N181 C183 1.356 . S
N181 H186 0.984 . S
N181 H187 0.985 . S
C182 C176 1.379 . S
C182 C179 1.363 . S
C182 N180 1.356 . S
C183 C177 1.363 . S
C183 C178 1.379 . S
C183 N181 1.356 . S
N184 C176 1.356 . S
N184 H190 0.984 . S
N184 H191 0.984 . S
N185 C178 1.356 . S
N185 H188 0.984 . S
N185 H189 0.985 . S
H186 N181 0.984 . S
H187 N181 0.985 . S
H188 N185 0.984 . S
H189 N185 0.985 . S
H190 N184 0.984 . S
H191 N184 0.984 . S
H192 N180 0.984 . S
H193 N180 0.985 . S
C194 C195 1.363 . S
C194 C200 1.379 . S
C194 N202 1.356 . S
C195 C194 1.363 . S
C195 C201 1.363 . S
C196 C197 1.363 . S
C196 C201 1.379 . S
C196 N203 1.356 . S
C197 C196 1.363 . S
C197 C200 1.363 . S
N198 C200 1.356 . S
N198 H210 0.984 . S
N198 H211 0.985 . S
N199 C201 1.356 . S
N199 H204 0.984 . S
N199 H205 0.985 . S
C200 C194 1.379 . S
C200 C197 1.363 . S
C200 N198 1.356 . S
C201 C195 1.363 . S
C201 C196 1.379 . S
C201 N199 1.356 . S
N202 C194 1.356 . S
N202 H208 0.984 . S
N202 H209 0.984 . S
N203 C196 1.356 . S
N203 H206 0.984 . S
N203 H207 0.985 . S
H204 N199 0.984 . S
H205 N199 0.985 . S
H206 N203 0.984 . S
H207 N203 0.985 . S
H208 N202 0.984 . S
H209 N202 0.984 . S
H210 N198 0.984 . S
H211 N198 0.985 . S
C212 C213 1.363 . S
C212 C218 1.379 1_455 S
C212 N220 1.356 . S
C213 C212 1.363 . S
C213 C219 1.363 . S
C214 C215 1.363 . S
C214 C219 1.379 1_655 S
C214 N221 1.356 . S
C215 C214 1.363 . S
C215 C218 1.363 . S
N216 C218 1.356 . S
N216 H228 0.984 . S
N216 H229 0.985 . S
N217 C219 1.356 . S
N217 H222 0.984 . S
N217 H223 0.985 . S
C218 C212 1.379 1_655 S
C218 C215 1.363 . S
C218 N216 1.356 . S
C219 C213 1.363 . S
C219 C214 1.379 1_455 S
C219 N217 1.356 . S
N220 C212 1.356 . S
N220 H226 0.984 . S
N220 H227 0.984 . S
N221 C214 1.356 . S
N221 H224 0.984 . S
N221 H225 0.985 . S
H222 N217 0.984 . S
H223 N217 0.985 . S
H224 N221 0.984 . S
H225 N221 0.985 . S
H226 N220 0.984 . S
H227 N220 0.984 . S
H228 N216 0.984 . S
H229 N216 0.985 . S
C230 C231 1.363 . S
C230 C236 1.379 1_455 S
C230 N238 1.356 . S
C231 C230 1.363 . S
C231 C237 1.363 . S
C232 C233 1.363 . S
C232 C237 1.379 1_655 S
C232 N239 1.356 . S
C233 C232 1.363 . S
C233 C236 1.363 . S
N234 C236 1.356 . S
N234 H246 0.984 . S
N234 H247 0.985 . S
N235 C237 1.356 . S
N235 H240 0.984 . S
N235 H241 0.985 . S
C236 C230 1.379 1_655 S
C236 C233 1.363 . S
C236 N234 1.356 . S
C237 C231 1.363 . S
C237 C232 1.379 1_455 S
C237 N235 1.356 . S
N238 C230 1.356 . S
N238 H244 0.984 . S
N238 H245 0.984 . S
N239 C232 1.356 . S
N239 H242 0.984 . S
N239 H243 0.985 . S
H240 N235 0.984 . S
H241 N235 0.985 . S
H242 N239 0.984 . S
H243 N239 0.985 . S
H244 N238 0.984 . S
H245 N238 0.984 . S
H246 N234 0.984 . S
H247 N234 0.985 . S
C248 C249 1.363 1_556 S
C248 C254 1.379 . S
C248 N256 1.356 . S
C249 C248 1.363 1_554 S
C249 C255 1.363 . S
C250 C251 1.363 1_554 S
C250 C255 1.379 . S
C250 N257 1.356 . S
C251 C250 1.363 1_556 S
C251 C254 1.363 . S
N252 C254 1.356 . S
N252 H264 0.984 . S
N252 H265 0.985 . S
N253 C255 1.356 . S
N253 H258 0.984 . S
N253 H259 0.985 . S
C254 C248 1.379 . S
C254 C251 1.363 . S
C254 N252 1.356 . S
C255 C249 1.363 . S
C255 C250 1.379 . S
C255 N253 1.356 . S
N256 C248 1.356 . S
N256 H262 0.984 . S
N256 H263 0.984 1_556 S
N257 C250 1.356 . S
N257 H260 0.984 1_554 S
N257 H261 0.985 . S
H258 N253 0.984 . S
H259 N253 0.985 . S
H260 N257 0.984 1_556 S
H261 N257 0.985 . S
H262 N256 0.984 . S
H263 N256 0.984 1_554 S
H264 N252 0.984 . S
H265 N252 0.985 . S
C266 C267 1.363 . S
C266 C272 1.379 . S
C266 N274 1.356 . S
C267 C266 1.363 . S
C267 C273 1.363 . S
C268 C269 1.363 . S
C268 C273 1.379 . S
C268 N275 1.356 . S
C269 C268 1.363 . S
C269 C272 1.363 . S
N270 C272 1.356 . S
N270 H282 0.984 . S
N270 H283 0.985 . S
N271 C273 1.356 . S
N271 H276 0.984 . S
N271 H277 0.985 . S
C272 C266 1.379 . S
C272 C269 1.363 . S
C272 N270 1.356 . S
C273 C267 1.363 . S
C273 C268 1.379 . S
C273 N271 1.356 . S
N274 C266 1.356 . S
N274 H280 0.984 . S
N274 H281 0.984 . S
N275 C268 1.356 . S
N275 H278 0.984 . S
N275 H279 0.985 . S
H276 N271 0.984 . S
H277 N271 0.985 . S
H278 N275 0.984 . S
H279 N275 0.985 . S
H280 N274 0.984 . S
H281 N274 0.984 . S
H282 N270 0.984 . S
H283 N270 0.985 . S
C284 C285 1.363 . S
C284 C290 1.379 . S
C284 N292 1.356 . S
C285 C284 1.363 . S
C285 C291 1.363 1_554 S
C286 C287 1.363 . S
C286 C291 1.379 . S
C286 N293 1.356 . S
C287 C286 1.363 . S
C287 C290 1.363 1_556 S
N288 C290 1.356 . S
N288 H300 0.984 . S
N288 H301 0.985 1_554 S
N289 C291 1.356 . S
N289 H294 0.984 1_556 S
N289 H295 0.985 . S
C290 C284 1.379 . S
C290 C287 1.363 1_554 S
C290 N288 1.356 . S
C291 C285 1.363 1_556 S
C291 C286 1.379 . S
C291 N289 1.356 . S
N292 C284 1.356 . S
N292 H298 0.984 . S
N292 H299 0.984 . S
N293 C286 1.356 . S
N293 H296 0.984 . S
N293 H297 0.985 . S
H294 N289 0.984 1_554 S
H295 N289 0.985 . S
H296 N293 0.984 . S
H297 N293 0.985 . S
H298 N292 0.984 . S
H299 N292 0.984 . S
H300 N288 0.984 . S
H301 N288 0.985 1_556 S
C302 C303 1.363 . S
C302 C308 1.379 . S
C302 N310 1.356 . S
C303 C302 1.363 . S
C303 C309 1.363 . S
C304 C305 1.363 . S
C304 C309 1.379 . S
C304 N311 1.356 . S
C305 C304 1.363 . S
C305 C308 1.363 . S
N306 C308 1.356 . S
N306 H318 0.984 . S
N306 H319 0.985 . S
N307 C309 1.356 . S
N307 H312 0.984 . S
N307 H313 0.985 . S
C308 C302 1.379 . S
C308 C305 1.363 . S
C308 N306 1.356 . S
C309 C303 1.363 . S
C309 C304 1.379 . S
C309 N307 1.356 . S
N310 C302 1.356 . S
N310 H316 0.984 . S
N310 H317 0.984 . S
N311 C304 1.356 . S
N311 H314 0.984 . S
N311 H315 0.985 . S
H312 N307 0.984 . S
H313 N307 0.985 . S
H314 N311 0.984 . S
H315 N311 0.985 . S
H316 N310 0.984 . S
H317 N310 0.984 . S
H318 N306 0.984 . S
H319 N306 0.985 . S
C320 C321 1.363 . S
C320 C326 1.379 1_655 S
C320 N328 1.356 . S
C321 C320 1.363 . S
C321 C327 1.363 1_556 S
C322 C323 1.363 . S
C322 C327 1.379 1_455 S
C322 N329 1.356 . S
C323 C322 1.363 . S
C323 C326 1.363 1_554 S
N324 C326 1.356 1_554 S
N324 H336 0.984 1_554 S
N324 H337 0.985 . S
N325 C327 1.356 1_556 S
N325 H330 0.985 . S
N325 H331 0.984 1_556 S
C326 C320 1.379 1_455 S
C326 C323 1.363 1_556 S
C326 N324 1.356 1_556 S
C327 C321 1.363 1_554 S
C327 C322 1.379 1_655 S
C327 N325 1.356 1_554 S
N328 C320 1.356 . S
N328 H334 0.984 . S
N328 H335 0.984 . S
N329 C322 1.356 . S
N329 H332 0.984 . S
N329 H333 0.985 . S
H330 N325 0.985 . S
H331 N325 0.984 1_554 S
H332 N329 0.984 . S
H333 N329 0.985 . S
H334 N328 0.984 . S
H335 N328 0.984 . S
H336 N324 0.984 1_556 S
H337 N324 0.985 . S
C338 C339 1.363 . S
C338 C344 1.379 1_455 S
C338 N346 1.356 . S
C339 C338 1.363 . S
C339 C345 1.363 . S
C340 C341 1.363 . S
C340 C345 1.379 1_655 S
C340 N347 1.356 . S
C341 C340 1.363 . S
C341 C344 1.363 . S
N342 C344 1.356 . S
N342 H354 0.984 . S
N342 H355 0.985 . S
N343 C345 1.356 . S
N343 H348 0.984 . S
N343 H349 0.985 . S
C344 C338 1.379 1_655 S
C344 C341 1.363 . S
C344 N342 1.356 . S
C345 C339 1.363 . S
C345 C340 1.379 1_455 S
C345 N343 1.356 . S
N346 C338 1.356 . S
N346 H352 0.984 . S
N346 H353 0.984 . S
N347 C340 1.356 . S
N347 H350 0.984 . S
N347 H351 0.985 . S
H348 N343 0.984 . S
H349 N343 0.985 . S
H350 N347 0.984 . S
H351 N347 0.985 . S
H352 N346 0.984 . S
H353 N346 0.984 . S
H354 N342 0.984 . S
H355 N342 0.985 . S
C356 C357 1.363 1_545 S
C356 C362 1.379 . S
C356 N364 1.356 . S
C357 C356 1.363 1_565 S
C357 C363 1.363 1_554 S
C358 C359 1.363 1_565 S
C358 C363 1.379 . S
C358 N365 1.356 . S
C359 C358 1.363 1_545 S
C359 C362 1.363 1_556 S
N360 C362 1.356 . S
N360 H372 0.984 . S
N360 H373 0.985 1_554 S
N361 C363 1.356 . S
N361 H366 0.984 1_556 S
N361 H367 0.985 . S
C362 C356 1.379 . S
C362 C359 1.363 1_554 S
C362 N360 1.356 . S
C363 C357 1.363 1_556 S
C363 C358 1.379 . S
C363 N361 1.356 . S
N364 C356 1.356 . S
N364 H370 0.984 . S
N364 H371 0.984 . S
N365 C358 1.356 . S
N365 H368 0.984 . S
N365 H369 0.985 . S
H366 N361 0.984 1_554 S
H367 N361 0.985 . S
H368 N365 0.984 . S
H369 N365 0.985 . S
H370 N364 0.984 . S
H371 N364 0.984 . S
H372 N360 0.984 . S
H373 N360 0.985 1_556 S
C374 C375 1.363 1_545 S
C374 C380 1.379 . S
C374 N382 1.356 . S
C375 C374 1.363 1_565 S
C375 C381 1.363 . S
C376 C377 1.363 1_565 S
C376 C381 1.379 . S
C376 N383 1.356 . S
C377 C376 1.363 1_545 S
C377 C380 1.363 . S
N378 C380 1.356 . S
N378 H390 0.984 . S
N378 H391 0.985 . S
N379 C381 1.356 . S
N379 H384 0.984 . S
N379 H385 0.985 . S
C380 C374 1.379 . S
C380 C377 1.363 . S
C380 N378 1.356 . S
C381 C375 1.363 . S
C381 C376 1.379 . S
C381 N379 1.356 . S
N382 C374 1.356 . S
N382 H388 0.984 . S
N382 H389 0.984 . S
N383 C376 1.356 . S
N383 H386 0.984 . S
N383 H387 0.985 . S
H384 N379 0.984 . S
H385 N379 0.985 . S
H386 N383 0.984 . S
H387 N383 0.985 . S
H388 N382 0.984 . S
H389 N382 0.984 . S
H390 N378 0.984 . S
H391 N378 0.985 . S
C392 C393 1.363 . S
C392 C398 1.392 . S
C392 N400 1.356 . S
C393 C392 1.363 . S
C393 C399 1.351 1_455 S
C394 C395 1.363 . S
C394 C399 1.392 . S
C394 N401 1.356 . S
C395 C394 1.363 . S
C395 C398 1.351 1_655 S
N396 C398 1.350 1_655 S
N396 H408 0.984 1_655 S
N396 H409 0.985 . S
N397 C399 1.350 1_455 S
N397 H402 0.984 . S
N397 H403 0.985 1_455 S
C398 C392 1.392 . S
C398 C395 1.351 1_455 S
C398 N396 1.350 1_455 S
C399 C393 1.351 1_655 S
C399 C394 1.392 . S
C399 N397 1.350 1_655 S
N400 C392 1.356 . S
N400 H406 0.984 . S
N400 H407 0.984 . S
N401 C394 1.356 . S
N401 H404 0.984 . S
N401 H405 0.985 . S
H402 N397 0.984 . S
H403 N397 0.985 1_655 S
H404 N401 0.984 . S
H405 N401 0.985 . S
H406 N400 0.984 . S
H407 N400 0.984 . S
H408 N396 0.984 1_455 S
H409 N396 0.985 . S
C410 C411 1.363 . S
C410 C416 1.392 . S
C410 N418 1.356 . S
C411 C410 1.363 . S
C411 C417 1.351 1_455 S
C412 C413 1.363 . S
C412 C417 1.392 . S
C412 N419 1.356 . S
C413 C412 1.363 . S
C413 C416 1.351 1_655 S
N414 C416 1.350 1_655 S
N414 H426 0.984 1_655 S
N414 H427 0.985 . S
N415 C417 1.350 1_455 S
N415 H420 0.984 . S
N415 H421 0.985 1_455 S
C416 C410 1.392 . S
C416 C413 1.351 1_455 S
C416 N414 1.350 1_455 S
C417 C411 1.351 1_655 S
C417 C412 1.392 . S
C417 N415 1.350 1_655 S
N418 C410 1.356 . S
N418 H424 0.984 . S
N418 H425 0.984 . S
N419 C412 1.356 . S
N419 H422 0.984 . S
N419 H423 0.985 . S
H420 N415 0.984 . S
H421 N415 0.985 1_655 S
H422 N419 0.984 . S
H423 N419 0.985 . S
H424 N418 0.984 . S
H425 N418 0.984 . S
H426 N414 0.984 1_455 S
H427 N414 0.985 . S
C428 C429 1.363 . S
C428 C434 1.379 . S
C428 N436 1.356 . S
C429 C428 1.363 . S
C429 C435 1.363 . S
C430 C431 1.363 . S
C430 C435 1.379 . S
C430 N437 1.356 . S
C431 C430 1.363 . S
C431 C434 1.363 . S
N432 C434 1.356 . S
N432 H444 0.984 . S
N432 H445 0.985 . S
N433 C435 1.356 . S
N433 H438 0.984 . S
N433 H439 0.985 . S
C434 C428 1.379 . S
C434 C431 1.363 . S
C434 N432 1.356 . S
C435 C429 1.363 . S
C435 C430 1.379 . S
C435 N433 1.356 . S
N436 C428 1.356 . S
N436 H442 0.984 . S
N436 H443 0.984 . S
N437 C430 1.356 . S
N437 H440 0.984 . S
N437 H441 0.985 . S
H438 N433 0.984 . S
H439 N433 0.985 . S
H440 N437 0.984 . S
H441 N437 0.985 . S
H442 N436 0.984 . S
H443 N436 0.984 . S
H444 N432 0.984 . S
H445 N432 0.985 . S
C446 C447 1.363 . S
C446 C452 1.379 . S
C446 N454 1.356 . S
C447 C446 1.363 . S
C447 C453 1.363 . S
C448 C449 1.363 . S
C448 C453 1.379 . S
C448 N455 1.356 . S
C449 C448 1.363 . S
C449 C452 1.363 . S
N450 C452 1.356 . S
N450 H462 0.984 . S
N450 H463 0.985 . S
N451 C453 1.356 . S
N451 H456 0.984 . S
N451 H457 0.985 . S
C452 C446 1.379 . S
C452 C449 1.363 . S
C452 N450 1.356 . S
C453 C447 1.363 . S
C453 C448 1.379 . S
C453 N451 1.356 . S
N454 C446 1.356 . S
N454 H460 0.984 . S
N454 H461 0.984 . S
N455 C448 1.356 . S
N455 H458 0.984 . S
N455 H459 0.985 . S
H456 N451 0.984 . S
H457 N451 0.985 . S
H458 N455 0.984 . S
H459 N455 0.985 . S
H460 N454 0.984 . S
H461 N454 0.984 . S
H462 N450 0.984 . S
H463 N450 0.985 . S
C464 C465 1.363 . S
C464 C470 1.379 . S
C464 N472 1.356 . S
C465 C464 1.363 . S
C465 C471 1.363 . S
C466 C467 1.363 . S
C466 C471 1.379 . S
C466 N473 1.356 . S
C467 C466 1.363 . S
C467 C470 1.363 . S
N468 C470 1.356 . S
N468 H480 0.984 . S
N468 H481 0.985 . S
N469 C471 1.356 . S
N469 H474 0.984 . S
N469 H475 0.985 . S
C470 C464 1.379 . S
C470 C467 1.363 . S
C470 N468 1.356 . S
C471 C465 1.363 . S
C471 C466 1.379 . S
C471 N469 1.356 . S
N472 C464 1.356 . S
N472 H478 0.984 . S
N472 H479 0.984 1_556 S
N473 C466 1.356 . S
N473 H476 0.984 . S
N473 H477 0.985 . S
H474 N469 0.984 . S
H475 N469 0.985 . S
H476 N473 0.984 . S
H477 N473 0.985 . S
H478 N472 0.984 . S
H479 N472 0.984 1_554 S
H480 N468 0.984 . S
H481 N468 0.985 . S
C482 C483 1.363 . S
C482 C488 1.379 . S
C482 N490 1.356 . S
C483 C482 1.363 . S
C483 C489 1.363 . S
C484 C485 1.363 . S
C484 C489 1.379 . S
C484 N491 1.356 . S
C485 C484 1.363 . S
C485 C488 1.363 . S
N486 C488 1.356 . S
N486 H498 0.984 . S
N486 H499 0.985 . S
N487 C489 1.356 . S
N487 H492 0.984 . S
N487 H493 0.985 . S
C488 C482 1.379 . S
C488 C485 1.363 . S
C488 N486 1.356 . S
C489 C483 1.363 . S
C489 C484 1.379 . S
C489 N487 1.356 . S
N490 C482 1.356 . S
N490 H496 0.984 . S
N490 H497 0.984 . S
N491 C484 1.356 . S
N491 H494 0.984 . S
N491 H495 0.985 . S
H492 N487 0.984 . S
H493 N487 0.985 . S
H494 N491 0.984 . S
H495 N491 0.985 . S
H496 N490 0.984 . S
H497 N490 0.984 . S
H498 N486 0.984 . S
H499 N486 0.985 . S
C500 C501 1.363 . S
C500 C506 1.379 . S
C500 N508 1.356 . S
C501 C500 1.363 . S
C501 C507 1.363 . S
C502 C503 1.363 . S
C502 C507 1.379 . S
C502 N509 1.356 . S
C503 C502 1.363 . S
C503 C506 1.363 . S
N504 C506 1.356 . S
N504 H516 0.984 . S
N504 H517 0.985 . S
N505 C507 1.356 . S
N505 H510 0.984 . S
N505 H511 0.985 . S
C506 C500 1.379 . S
C506 C503 1.363 . S
C506 N504 1.356 . S
C507 C501 1.363 . S
C507 C502 1.379 . S
C507 N505 1.356 . S
N508 C500 1.356 . S
N508 H514 0.984 . S
N508 H515 0.984 . S
N509 C502 1.356 . S
N509 H512 0.984 . S
N509 H513 0.985 . S
H510 N505 0.984 . S
H511 N505 0.985 . S
H512 N509 0.984 . S
H513 N509 0.985 . S
H514 N508 0.984 . S
H515 N508 0.984 . S
H516 N504 0.984 . S
H517 N504 0.985 . S
C518 C519 1.363 . S
C518 C524 1.379 . S
C518 N526 1.356 . S
C519 C518 1.363 . S
C519 C525 1.363 . S
C520 C521 1.363 . S
C520 C525 1.379 . S
C520 N527 1.356 . S
C521 C520 1.363 . S
C521 C524 1.363 . S
N522 C524 1.356 . S
N522 H534 0.984 . S
N522 H535 0.985 . S
N523 C525 1.356 . S
N523 H528 0.984 . S
N523 H529 0.985 . S
C524 C518 1.379 . S
C524 C521 1.363 . S
C524 N522 1.356 . S
C525 C519 1.363 . S
C525 C520 1.379 . S
C525 N523 1.356 . S
N526 C518 1.356 . S
N526 H532 0.984 . S
N526 H533 0.984 . S
N527 C520 1.356 . S
N527 H530 0.984 . S
N527 H531 0.985 . S
H528 N523 0.984 . S
H529 N523 0.985 . S
H530 N527 0.984 . S
H531 N527 0.985 . S
H532 N526 0.984 . S
H533 N526 0.984 . S
H534 N522 0.984 . S
H535 N522 0.985 . S
C536 C537 1.363 . S
C536 C542 1.379 . S
C536 N544 1.356 . S
C537 C536 1.363 . S
C537 C543 1.363 . S
C538 C539 1.363 . S
C538 C543 1.379 1_545 S
C538 N545 1.356 . S
C539 C538 1.363 . S
C539 C542 1.363 1_545 S
N540 C542 1.356 . S
N540 H552 0.984 . S
N540 H553 0.985 1_565 S
N541 C543 1.356 . S
N541 H546 0.984 . S
N541 H547 0.973 1_565 S
C542 C536 1.379 . S
C542 C539 1.363 1_565 S
C542 N540 1.356 . S
C543 C537 1.363 . S
C543 C538 1.379 1_565 S
C543 N541 1.356 . S
N544 C536 1.356 . S
N544 H550 0.984 . S
N544 H551 0.984 . S
N545 C538 1.356 . S
N545 H548 0.984 . S
N545 H549 0.985 . S
H546 N541 0.984 . S
H547 N541 0.973 1_545 S
H548 N545 0.984 . S
H549 N545 0.985 . S
H550 N544 0.984 . S
H551 N544 0.984 . S
H552 N540 0.984 . S
H553 N540 0.985 1_545 S
C554 C555 1.363 . S
C554 C560 1.379 1_545 S
C554 N562 1.356 . S
C555 C554 1.363 . S
C555 C561 1.363 1_545 S
C556 C557 1.363 . S
C556 C561 1.379 . S
C556 N563 1.356 . S
C557 C556 1.363 . S
C557 C560 1.363 . S
N558 C560 1.356 . S
N558 H570 0.984 1_565 S
N558 H571 0.985 . S
N559 C561 1.356 . S
N559 H564 0.984 1_565 S
N559 H565 0.985 . S
C560 C554 1.379 1_565 S
C560 C557 1.363 . S
C560 N558 1.356 . S
C561 C555 1.363 1_565 S
C561 C556 1.379 . S
C561 N559 1.356 . S
N562 C554 1.356 . S
N562 H568 0.984 . S
N562 H569 0.984 . S
N563 C556 1.356 . S
N563 H566 0.984 . S
N563 H567 0.985 . S
H564 N559 0.984 1_545 S
H565 N559 0.985 . S
H566 N563 0.984 . S
H567 N563 0.985 . S
H568 N562 0.984 . S
H569 N562 0.984 . S
H570 N558 0.984 1_545 S
H571 N558 0.985 . S
C572 C573 1.363 . S
C572 C578 1.379 1_565 S
C572 N580 1.356 . S
C573 C572 1.363 . S
C573 C579 1.363 1_565 S
C574 C575 1.363 . S
C574 C579 1.379 . S
C574 N581 1.356 . S
C575 C574 1.363 . S
C575 C578 1.363 . S
N576 C578 1.356 . S
N576 H588 0.984 1_545 S
N576 H589 0.985 . S
N577 C579 1.356 . S
N577 H582 0.984 1_545 S
N577 H583 0.985 . S
C578 C572 1.379 1_545 S
C578 C575 1.363 . S
C578 N576 1.356 . S
C579 C573 1.363 1_545 S
C579 C574 1.379 . S
C579 N577 1.356 . S
N580 C572 1.356 . S
N580 H586 0.984 . S
N580 H587 0.984 . S
N581 C574 1.356 . S
N581 H584 0.984 . S
N581 H585 0.985 . S
H582 N577 0.984 1_565 S
H583 N577 0.985 . S
H584 N581 0.984 . S
H585 N581 0.985 . S
H586 N580 0.984 . S
H587 N580 0.984 . S
H588 N576 0.984 1_565 S
H589 N576 0.985 . S
C590 C591 1.363 . S
C590 C596 1.379 1_545 S
C590 N598 1.356 . S
C591 C590 1.363 . S
C591 C597 1.363 . S
C592 C593 1.363 1_545 S
C592 C597 1.379 . S
C592 N599 1.356 . S
C593 C592 1.363 1_565 S
C593 C596 1.363 . S
N594 C596 1.356 . S
N594 H606 0.984 . S
N594 H607 0.985 . S
N595 C597 1.356 . S
N595 H600 0.984 . S
N595 H601 0.985 . S
C596 C590 1.379 1_565 S
C596 C593 1.363 . S
C596 N594 1.356 . S
C597 C591 1.363 . S
C597 C592 1.379 . S
C597 N595 1.356 . S
N598 C590 1.356 . S
N598 H604 0.984 . S
N598 H605 0.984 . S
N599 C592 1.356 . S
N599 H602 0.984 1_545 S
N599 H603 0.985 . S
H600 N595 0.984 . S
H601 N595 0.985 . S
H602 N599 0.984 1_565 S
H603 N599 0.985 . S
H604 N598 0.984 . S
H605 N598 0.984 . S
H606 N594 0.984 . S
H607 N594 0.985 . S
C177 C40 1.402 . S
C179 C8 1.402 . S
C195 C62 1.402 . S
C197 C74 1.402 . S
C213 C128 1.402 . S
C215 C96 1.402 . S
C231 C150 1.402 . S
C233 C162 1.402 . S
C249 C18 1.636 . S
C251 C142 1.636 . S
C267 C32 1.636 . S
C269 C172 1.636 . S
C285 C106 1.636 . S
C287 C54 1.636 . S
C303 C84 1.636 . S
C305 C120 1.636 . S
C321 C65 1.218 . S
C323 C15 1.218 . S
C339 C81 1.218 . S
C341 C43 1.218 . S
C357 C103 1.218 . S
C359 C153 1.218 . S
C375 C131 1.218 . S
C377 C169 1.218 . S
C393 C7 1.671 . S
C395 C37 1.671 . S
C411 C73 1.671 . S
C413 C59 1.671 . S
C429 C125 1.671 . S
C431 C95 1.671 . S
C447 C161 1.671 . S
C449 C147 1.671 . S
C465 C10 1.352 . S
C467 C87 1.415 . S
C483 C30 1.352 . S
C485 C51 1.415 . S
C501 C29 1.415 . S
C503 C52 1.352 . S
C519 C21 1.415 . S
C521 C76 1.352 . S
C537 C98 1.352 . S
C539 C175 1.415 . S
C555 C139 1.415 . S
C557 C118 1.352 . S
C573 C117 1.415 . S
C575 C140 1.352 . S
C591 C164 1.352 . S
C593 C109 1.415 . S
