# Generated by pormake.
# Topology sxa, (6)-cn, num edge types: 1
# Building blocks:
#     Node 0, Type 0, BuildingBlock: MIFKUJ_clean_sbu_0, # of connection points: 6
#     Node 1, Type 0, BuildingBlock: MIFKUJ_clean_sbu_0, # of connection points: 6
#     Node 2, Type 0, BuildingBlock: MIFKUJ_clean_sbu_0, # of connection points: 6
#     Node 3, Type 0, BuildingBlock: MIFKUJ_clean_sbu_0, # of connection points: 6
#     Edge 4, Type (0, 0), BuildingBlock: UVAHIK_clean_linker_0, # of connection points: 2
#     Edge 5, Type (0, 0), BuildingBlock: UVAHIK_clean_linker_0, # of connection points: 2
#     Edge 6, Type (0, 0), BuildingBlock: UVAHIK_clean_linker_0, # of connection points: 2
#     Edge 7, Type (0, 0), BuildingBlock: UVAHIK_clean_linker_0, # of connection points: 2
#     Edge 8, Type (0, 0), BuildingBlock: UVAHIK_clean_linker_0, # of connection points: 2
#     Edge 9, Type (0, 0), BuildingBlock: UVAHIK_clean_linker_0, # of connection points: 2
#     Edge 10, Type (0, 0), BuildingBlock: UVAHIK_clean_linker_0, # of connection points: 2
#     Edge 11, Type (0, 0), BuildingBlock: UVAHIK_clean_linker_0, # of connection points: 2
#     Edge 12, Type (0, 0), BuildingBlock: UVAHIK_clean_linker_0, # of connection points: 2
#     Edge 13, Type (0, 0), BuildingBlock: UVAHIK_clean_linker_0, # of connection points: 2
#     Edge 14, Type (0, 0), BuildingBlock: UVAHIK_clean_linker_0, # of connection points: 2
#     Edge 15, Type (0, 0), BuildingBlock: UVAHIK_clean_linker_0, # of connection points: 2
# Relax obj value: 0.122
# Max RMSD: 0.244
# Mean RMSD: 0.244
data_MOF--net-sxa--node1-MIFKUJ_clean_sbu_0--edge1-UVAHIK_clean_linker_0
_symmetry_space_group_name_H-M    P1
_symmetry_Int_Tables_number       1
_symmetry_cell_setting            triclinic
loop_
_symmetry_equiv_pos_as_xyz
'x, y, z'
_cell_length_a     38.813422
_cell_length_b     34.945213
_cell_length_c     17.836658
_cell_angle_alpha  97.23412
_cell_angle_beta   90.603047
_cell_angle_gamma 89.801429
loop_
_atom_site_label
_atom_site_type_symbol
_atom_site_fract_x
_atom_site_fract_y
_atom_site_fract_z
_atom_type_partial_charge
Zn0 Zn 0.95056 0.75559 0.22947 0.0
Zn1 Zn 0.04716 0.77011 0.20248 0.0
C2 C 0.93407 0.73627 0.36919 0.0
O3 O 0.93609 0.70255 0.32752 0.0
C4 C 0.0795 0.81461 0.09874 0.0
O5 O 0.08446 0.83903 0.16014 0.0
O6 O 0.90057 0.74817 0.20425 0.0
O7 O 0.96499 0.80031 0.17667 0.0
O8 O 0.01315 0.81199 0.24027 0.0
C9 C 0.88072 0.77445 0.23519 0.0
O10 O 0.89431 0.80558 0.27291 0.0
O11 O 0.94703 0.76532 0.34333 0.0
C12 C 0.11004 0.74269 0.26576 0.0
O13 O 0.10231 0.71186 0.21865 0.0
O14 O 0.0896 0.77148 0.27095 0.0
O15 O 0.03007 0.71468 0.17805 0.0
O16 O 0.97392 0.70558 0.1914 0.0
O17 O 0.06358 0.78338 0.10352 0.0
C18 C 0.99126 0.82134 0.19229 0.0
C19 C 0.00383 0.69266 0.1738 0.0
Zn20 Zn 0.44519 0.27115 0.21716 0.0
Zn21 Zn 0.53981 0.28412 0.2013 0.0
C22 C 0.43494 0.24853 0.35753 0.0
O23 O 0.43718 0.2153 0.31427 0.0
C24 C 0.57515 0.33212 0.10918 0.0
O25 O 0.57505 0.35627 0.1719 0.0
O26 O 0.3943 0.26919 0.20078 0.0
O27 O 0.46079 0.31534 0.1646 0.0
O28 O 0.50663 0.32763 0.23575 0.0
C29 C 0.37892 0.29938 0.23091 0.0
O30 O 0.39731 0.3289 0.26153 0.0
O31 O 0.44566 0.27856 0.33138 0.0
C32 C 0.603 0.25667 0.25859 0.0
O33 O 0.59887 0.23187 0.19742 0.0
O34 O 0.5798 0.28209 0.27536 0.0
O35 O 0.52171 0.22964 0.16732 0.0
O36 O 0.46516 0.22065 0.17204 0.0
O37 O 0.56102 0.29939 0.10846 0.0
C38 C 0.48601 0.33711 0.18545 0.0
C39 C 0.49532 0.20795 0.15629 0.0
Zn40 Zn 0.95423 0.23174 0.7971 0.0
Zn41 Zn 0.05008 0.23675 0.80632 0.0
C42 C 0.92163 0.26614 0.68309 0.0
O43 O 0.92291 0.29416 0.73957 0.0
C44 C 0.06206 0.23857 0.96941 0.0
O45 O 0.04936 0.20351 0.96114 0.0
O46 O 0.90898 0.23745 0.84835 0.0
O47 O 0.97349 0.18066 0.81607 0.0
O48 O 0.03061 0.18264 0.81268 0.0
C49 C 0.88185 0.22286 0.81641 0.0
O50 O 0.88451 0.1965 0.75736 0.0
O51 O 0.93885 0.2355 0.68896 0.0
C52 C 0.11386 0.26165 0.75072 0.0
O53 O 0.10339 0.29378 0.79016 0.0
O54 O 0.09477 0.2319 0.74727 0.0
O55 O 0.02266 0.28156 0.77307 0.0
O56 O 0.97783 0.27918 0.84632 0.0
O57 O 0.06431 0.2569 0.9125 0.0
C58 C 0.00267 0.16435 0.81961 0.0
C59 C 0.00169 0.29831 0.82079 0.0
Zn60 Zn 0.45545 0.74621 0.81259 0.0
Zn61 Zn 0.54033 0.74029 0.78367 0.0
C62 C 0.43016 0.7704 0.681 0.0
O63 O 0.42975 0.802 0.72946 0.0
C64 C 0.57216 0.71482 0.91139 0.0
O65 O 0.57742 0.68458 0.86109 0.0
O66 O 0.40698 0.7513 0.84844 0.0
O67 O 0.47568 0.70048 0.85224 0.0
O68 O 0.51456 0.68833 0.76348 0.0
C69 C 0.38475 0.72919 0.81279 0.0
O70 O 0.39526 0.69996 0.7648 0.0
O71 O 0.44649 0.74121 0.69941 0.0
C72 C 0.6058 0.76407 0.73422 0.0
O73 O 0.5967 0.79524 0.77866 0.0
O74 O 0.58518 0.73555 0.72505 0.0
O75 O 0.52087 0.79439 0.77361 0.0
O76 O 0.4773 0.79579 0.8524 0.0
O77 O 0.55559 0.74336 0.89168 0.0
C78 C 0.49695 0.6775 0.81692 0.0
C79 C 0.50027 0.81316 0.81987 0.0
C80 C 0.03402 0.3617 0.83672 0.0
C81 C 0.00453 0.34009 0.84887 0.0
C82 C 0.03658 0.40059 0.86791 0.0
C83 C 0.98279 0.48414 0.9421 0.0
H84 H 0.06427 0.52181 0.05528 0.0
C85 C 0.97927 0.62628 0.14086 0.0
C86 C 0.00746 0.65149 0.14144 0.0
C87 C 0.98124 0.58864 0.10394 0.0
C88 C 0.04149 0.51191 0.02309 0.0
H89 H 0.95429 0.34291 0.9019 0.0
H90 H 0.95867 0.41004 0.95499 0.0
H91 H 0.06362 0.45613 0.98841 0.0
H92 H 0.06037 0.65612 0.1055 0.0
H93 H 0.06366 0.59038 0.04044 0.0
H94 H 0.96048 0.53946 0.97642 0.0
C95 C 0.97986 0.39716 0.9216 0.0
C96 C 0.04116 0.4743 0.98469 0.0
C97 C 0.97747 0.35848 0.89138 0.0
C98 C 0.03815 0.63753 0.10633 0.0
C99 C 0.04007 0.59977 0.06909 0.0
C100 C 0.98315 0.5216 0.98008 0.0
C101 C 0.00944 0.41871 0.91066 0.0
C102 C 0.01153 0.45977 0.94497 0.0
C103 C 0.01138 0.5751 0.06617 0.0
C104 C 0.01221 0.53579 0.02236 0.0
H105 H 0.05524 0.34852 0.80406 0.0
H106 H 0.05962 0.41655 0.8581 0.0
H107 H 0.9598 0.47409 0.91081 0.0
H108 H 0.95533 0.6358 0.16789 0.0
H109 H 0.95891 0.57019 0.10456 0.0
C110 C 0.48696 0.36631 0.06473 0.0
C111 C 0.4938 0.3697 0.14275 0.0
C112 C 0.49304 0.39715 0.02378 0.0
C113 C 0.53434 0.49507 0.03736 0.0
H114 H 0.4703 0.50798 0.87394 0.0
C115 C 0.50501 0.63981 0.92508 0.0
C116 C 0.5042 0.64053 0.84645 0.0
C117 C 0.50939 0.60515 0.95532 0.0
C118 C 0.48871 0.50445 0.91864 0.0
H119 H 0.51261 0.40789 0.23915 0.0
H120 H 0.5216 0.46265 0.16891 0.0
H121 H 0.46617 0.45128 0.93967 0.0
H122 H 0.50803 0.60566 0.73767 0.0
H123 H 0.51428 0.54417 0.79092 0.0
H124 H 0.55524 0.54986 0.01868 0.0
C125 C 0.51262 0.43578 0.13828 0.0
C126 C 0.48649 0.47179 0.95647 0.0
C127 C 0.50722 0.40451 0.17898 0.0
C128 C 0.5086 0.60585 0.79844 0.0
C129 C 0.51207 0.5708 0.82886 0.0
C130 C 0.53608 0.5281 1.00041 0.0
C131 C 0.5053 0.43271 0.06003 0.0
C132 C 0.50905 0.4667 0.01701 0.0
C133 C 0.51226 0.57017 0.90769 0.0
C134 C 0.51308 0.53328 0.94113 0.0
H135 H 0.47709 0.33956 0.03506 0.0
H136 H 0.488 0.39297 0.96352 0.0
H137 H 0.55274 0.49203 0.08225 0.0
H138 H 0.50199 0.6662 0.96345 0.0
H139 H 0.50921 0.60554 0.01616 0.0
C140 C 0.47349 0.8763 0.86786 0.0
C141 C 0.50237 0.85572 0.83751 0.0
C142 C 0.47552 0.91573 0.89219 0.0
C143 C 0.53616 0.99101 0.9669 0.0
H144 H 0.4595 0.0586 0.93411 0.0
C145 C 0.5314 0.15365 0.09137 0.0
C146 C 0.49935 0.16759 0.11947 0.0
C147 C 0.53433 0.11649 0.05182 0.0
C148 C 0.48102 0.04008 0.94436 0.0
H149 H 0.55592 0.86077 0.80716 0.0
H150 H 0.55961 0.93022 0.85074 0.0
H151 H 0.46022 0.99291 0.86964 0.0
H152 H 0.44553 0.15262 0.13001 0.0
H153 H 0.45076 0.08808 0.06246 0.0
H154 H 0.55651 0.03804 0.04324 0.0
C155 C 0.53539 0.91548 0.85553 0.0
C156 C 0.4815 1.00246 0.90708 0.0
C157 C 0.53322 0.87584 0.8301 0.0
C158 C 0.47058 0.1431 0.10873 0.0
C159 C 0.47351 0.10609 0.06936 0.0
C160 C 0.53565 0.02875 1.00448 0.0
C161 C 0.50657 0.93575 0.88745 0.0
C162 C 0.50865 0.97718 0.91918 0.0
C163 C 0.50528 0.09247 0.03939 0.0
C164 C 0.50764 0.05344 0.99498 0.0
H165 H 0.44927 0.86177 0.87415 0.0
H166 H 0.45295 0.93029 0.91723 0.0
H167 H 0.55731 0.97213 0.97787 0.0
H168 H 0.55412 0.1717 0.09845 0.0
H169 H 0.55915 0.10697 0.02931 0.0
C170 C 0.01501 0.8873 0.18006 0.0
C171 C -0.00235 0.85386 0.14821 0.0
C172 C 0.0186 0.91881 0.13901 0.0
C173 C 0.03443 0.97785 0.03133 0.0
H174 H 0.9589 0.99563 0.89609 0.0
C175 C 0.03559 0.10592 0.85195 0.0
C176 C 0.00403 0.12494 0.84337 0.0
C177 C 0.03676 0.07097 0.88312 0.0
C178 C 0.98015 0.99149 0.93404 0.0
H179 H 0.97224 0.82631 0.04698 0.0
H180 H 0.97973 0.87999 0.97459 0.0
H181 H 0.95747 0.94028 0.96472 0.0
H182 H 0.94886 0.12138 0.86011 0.0
H183 H 0.95095 0.06173 0.91557 0.0
H184 H 0.05604 0.03057 1.00361 0.0
C185 C 0.98934 0.88299 0.03221 0.0
C186 C 0.97964 0.9591 0.97272 0.0
C187 C 0.98521 0.85196 0.07362 0.0
C188 C 0.97367 0.10757 0.86504 0.0
C189 C 0.97487 0.073 0.89676 0.0
C190 C 0.03472 1.01065 0.99327 0.0
C191 C 0.00533 0.91733 0.06471 0.0
C192 C 0.0067 0.95171 0.0222 0.0
C193 C 0.00642 0.05425 0.90705 0.0
C194 C 0.00741 0.01815 0.94445 0.0
H195 H 0.02484 0.88957 0.23751 0.0
H196 H 0.03081 0.9447 0.16657 0.0
H197 H 0.05602 0.97307 0.06796 0.0
H198 H 0.05952 0.1184 0.83605 0.0
H199 H 0.06151 0.0572 0.88882 0.0
C200 C 0.38549 0.7987 0.60254 0.0
C201 C 0.40372 0.76603 0.61978 0.0
C202 C 0.3557 0.79484 0.55766 0.0
C203 C 0.28633 0.72471 0.49942 0.0
H204 H 0.25949 0.80037 0.36819 0.0
C205 C 0.16316 0.71088 0.31041 0.0
C206 C 0.14322 0.74444 0.30829 0.0
C207 C 0.19531 0.71257 0.34691 0.0
C208 C 0.2665 0.77919 0.40513 0.0
H209 H 0.40585 0.70358 0.59958 0.0
H210 H 0.35419 0.69681 0.51947 0.0
H211 H 0.31642 0.80403 0.42773 0.0
H212 H 0.14141 0.80609 0.34366 0.0
H213 H 0.19771 0.80906 0.40699 0.0
H214 H 0.23637 0.69976 0.47603 0.0
C215 C 0.36262 0.72549 0.54213 0.0
C216 C 0.29918 0.78125 0.43928 0.0
C217 C 0.39254 0.72938 0.58721 0.0
C218 C 0.15606 0.77969 0.34433 0.0
C219 C 0.18842 0.78144 0.38013 0.0
C220 C 0.25375 0.72247 0.46467 0.0
C221 C 0.34331 0.75816 0.52839 0.0
C222 C 0.30946 0.75426 0.4875 0.0
C223 C 0.20851 0.74792 0.38147 0.0
C224 C 0.24333 0.7499 0.41767 0.0
H225 H 0.39329 0.82739 0.6268 0.0
H226 H 0.34148 0.82068 0.54913 0.0
H227 H 0.293 0.70387 0.53729 0.0
H228 H 0.15406 0.68324 0.28328 0.0
H229 H 0.21022 0.68629 0.34648 0.0
C230 C 0.16606 0.29456 0.70801 0.0
C231 C 0.14792 0.26027 0.71335 0.0
C232 C 0.1986 0.29363 0.67492 0.0
C233 C 0.25696 0.23016 0.54975 0.0
H234 H 0.32646 0.3041 0.63051 0.0
C235 C 0.39604 0.21841 0.44396 0.0
C236 C 0.40955 0.25203 0.41972 0.0
C237 C 0.36627 0.21999 0.48756 0.0
C238 C 0.30726 0.28339 0.60722 0.0
H239 H 0.1499 0.198 0.68822 0.0
H240 H 0.20702 0.19619 0.63211 0.0
H241 H 0.26984 0.30502 0.68926 0.0
H242 H 0.40364 0.31417 0.42737 0.0
H243 H 0.35184 0.31693 0.50476 0.0
H244 H 0.29459 0.2083 0.46833 0.0
C245 C 0.19582 0.22399 0.65202 0.0
C246 C 0.2747 0.28398 0.64058 0.0
C247 C 0.16307 0.22496 0.68453 0.0
C248 C 0.39409 0.28773 0.44533 0.0
C249 C 0.3643 0.28931 0.48944 0.0
C250 C 0.28957 0.22934 0.517 0.0
C251 C 0.2141 0.25833 0.64685 0.0
C252 C 0.24903 0.25742 0.61215 0.0
C253 C 0.34937 0.25526 0.50857 0.0
C254 C 0.31509 0.25594 0.54528 0.0
H255 H 0.15507 0.32231 0.7292 0.0
H256 H 0.21143 0.32073 0.67069 0.0
H257 H 0.23778 0.20979 0.52511 0.0
H258 H 0.40738 0.19046 0.42573 0.0
H259 H 0.35577 0.19336 0.50273 0.0
C260 C 0.88564 0.23347 0.57514 0.0
C261 C 0.8937 0.26656 0.62552 0.0
C262 C 0.85566 0.23226 0.53025 0.0
C263 C 0.78608 0.29452 0.4629 0.0
H264 H 0.73294 0.19999 0.44305 0.0
C265 C 0.64427 0.28776 0.35771 0.0
C266 C 0.63547 0.2565 0.30341 0.0
C267 C 0.67612 0.28855 0.39568 0.0
C268 C 0.7476 0.22651 0.44757 0.0
H269 H 0.87707 0.32482 0.66587 0.0
H270 H 0.82506 0.32253 0.58914 0.0
H271 H 0.78889 0.20242 0.50707 0.0
H272 H 0.65297 0.20113 0.24792 0.0
H273 H 0.7082 0.2024 0.31459 0.0
H274 H 0.74437 0.31877 0.40471 0.0
C275 C 0.84193 0.29761 0.58308 0.0
C276 C 0.77982 0.22787 0.48394 0.0
C277 C 0.87187 0.29888 0.6275 0.0
C278 C 0.65889 0.22568 0.28936 0.0
C279 C 0.69053 0.2263 0.32781 0.0
C280 C 0.75377 0.29323 0.42711 0.0
C281 C 0.83301 0.26407 0.53482 0.0
C282 C 0.79948 0.26196 0.49241 0.0
C283 C 0.69973 0.25794 0.38079 0.0
C284 C 0.73407 0.25926 0.41922 0.0
H285 H 0.90178 0.208 0.57231 0.0
H286 H 0.84998 0.20614 0.49281 0.0
H287 H 0.80064 0.32109 0.46706 0.0
H288 H 0.62688 0.312 0.36982 0.0
H289 H 0.68226 0.31315 0.43682 0.0
C290 C 0.89054 0.70934 0.4503 0.0
C291 C 0.90719 0.74176 0.42828 0.0
C292 C 0.86001 0.71337 0.49138 0.0
C293 C 0.78661 0.78095 0.52695 0.0
H294 H 0.75968 0.71028 0.66687 0.0
C295 C 0.65948 0.79595 0.69636 0.0
C296 C 0.64021 0.76209 0.69843 0.0
C297 C 0.69253 0.79436 0.66558 0.0
C298 C 0.76677 0.73004 0.62748 0.0
H299 H 0.90597 0.80422 0.43724 0.0
H300 H 0.85318 0.81138 0.51093 0.0
H301 H 0.81802 0.70742 0.61683 0.0
H302 H 0.64058 0.69995 0.66953 0.0
H303 H 0.69862 0.69713 0.61653 0.0
H304 H 0.73533 0.8038 0.53866 0.0
C305 C 0.86327 0.78266 0.49453 0.0
C306 C 0.80023 0.72844 0.59872 0.0
C307 C 0.89386 0.7786 0.45315 0.0
C308 C 0.6547 0.72656 0.66858 0.0
C309 C 0.68801 0.72492 0.63873 0.0
C310 C 0.75327 0.78282 0.55644 0.0
C311 C 0.84535 0.74999 0.51213 0.0
C312 C 0.81055 0.75363 0.54746 0.0
C313 C 0.70731 0.75881 0.63707 0.0
C314 C 0.74288 0.75715 0.60648 0.0
H315 H 0.90003 0.68051 0.43217 0.0
H316 H 0.84698 0.68748 0.50316 0.0
H317 H 0.79325 0.80027 0.48644 0.0
H318 H 0.64909 0.82381 0.7188 0.0
H319 H 0.70683 0.82092 0.66557 0.0
C320 C 0.33746 0.77394 0.86063 0.0
C321 C 0.34812 0.74062 0.81431 0.0
C322 C 0.30341 0.78648 0.8584 0.0
C323 C 0.21742 0.74969 0.82406 0.0
H324 H 0.19398 0.85852 0.85354 0.0
C325 C 0.09203 0.79332 0.96296 0.0
C326 C 0.09821 0.81901 0.02886 0.0
C327 C 0.11552 0.79026 0.9038 0.0
C328 C 0.19998 0.82801 0.84452 0.0
H329 H 0.33159 0.69474 0.72801 0.0
H330 H 0.27167 0.71636 0.72551 0.0
H331 H 0.25182 0.83835 0.81245 0.0
H332 H 0.13102 0.86532 0.08031 0.0
H333 H 0.17245 0.85925 0.97884 0.0
H334 H 0.16687 0.73919 0.86169 0.0
C335 C 0.28983 0.7327 0.76333 0.0
C336 C 0.23304 0.81649 0.82107 0.0
C337 C 0.32403 0.7202 0.76529 0.0
C338 C 0.12586 0.84485 0.03068 0.0
C339 C 0.14953 0.84154 0.9719 0.0
C340 C 0.18448 0.76118 0.84793 0.0
C341 C 0.27923 0.76595 0.80996 0.0
C342 C 0.24253 0.77738 0.8146 0.0
C343 C 0.14572 0.81256 0.91001 0.0
C344 C 0.176 0.8006 0.86249 0.0
H345 H 0.35542 0.79047 0.89861 0.0
H346 H 0.2958 0.81173 0.89621 0.0
H347 H 0.22403 0.71935 0.81966 0.0
H348 H 0.07038 0.77367 0.95925 0.0
H349 H 0.11138 0.7684 0.85589 0.0
C350 C 0.09633 0.22843 0.08378 0.0
C351 C 0.08001 0.25381 0.03981 0.0
C352 C 0.12077 0.24224 0.13834 0.0
C353 C 0.18207 0.32241 0.16146 0.0
H354 H 0.22052 0.26229 0.31069 0.0
C355 C 0.32397 0.3362 0.25247 0.0
C356 C 0.3411 0.30068 0.23599 0.0
C357 C 0.28807 0.33759 0.25574 0.0
C358 C 0.20984 0.2797 0.26992 0.0
H359 H 0.07234 0.31386 0.0252 0.0
H360 H 0.11358 0.33837 0.12349 0.0
H361 H 0.15994 0.25429 0.27353 0.0
H362 H 0.3344 0.23868 0.21439 0.0
H363 H 0.27161 0.24113 0.22011 0.0
H364 H 0.23217 0.34698 0.15649 0.0
C365 C 0.10902 0.3076 0.11344 0.0
C366 C 0.17525 0.27503 0.24827 0.0
C367 C 0.08524 0.29365 0.05747 0.0
C368 C 0.32182 0.26648 0.22608 0.0
C369 C 0.28597 0.26784 0.23049 0.0
C370 C 0.21635 0.32755 0.18413 0.0
C371 C 0.12881 0.28184 0.1509 0.0
C372 C 0.16148 0.29471 0.19054 0.0
C373 C 0.26878 0.30344 0.24396 0.0
C374 C 0.23095 0.30483 0.23558 0.0
H375 H 0.09262 0.19755 0.07145 0.0
H376 H 0.13539 0.22131 0.16546 0.0
H377 H 0.17285 0.33789 0.11633 0.0
H378 H 0.33824 0.363 0.26097 0.0
H379 H 0.27532 0.36536 0.26597 0.0
C380 C 0.61889 0.37172 0.05226 0.0
C381 C 0.59737 0.33924 0.04591 0.0
C382 C 0.64668 0.37282 1.00354 0.0
C383 C 0.69348 0.31667 0.84335 0.0
H384 H 0.76939 0.32768 0.98734 0.0
C385 C 0.81766 0.22634 0.80376 0.0
C386 C 0.84872 0.24265 0.83312 0.0
C387 C 0.78676 0.24679 0.8153 0.0
C388 C 0.74885 0.32527 0.94547 0.0
H389 H 0.58443 0.2856 0.97637 0.0
H390 H 0.63317 0.28703 0.89308 0.0
H391 H 0.71363 0.35343 0.02485 0.0
H392 H 0.87206 0.29384 0.89467 0.0
H393 H 0.81863 0.32957 0.91319 0.0
H394 H 0.72886 0.28686 0.76496 0.0
C395 C 0.62893 0.31163 0.93535 0.0
C396 C 0.71673 0.34029 0.96699 0.0
C397 C 0.60112 0.31059 0.9838 0.0
C398 C 0.84844 0.28001 0.8729 0.0
C399 C 0.81777 0.30062 0.88331 0.0
C400 C 0.72585 0.30178 0.82151 0.0
C401 C 0.65331 0.34141 0.94817 0.0
C402 C 0.68837 0.33489 0.91725 0.0
C403 C 0.78649 0.28414 0.85547 0.0
C404 C 0.75355 0.30472 0.87339 0.0
H405 H 0.61607 0.39475 0.09847 0.0
H406 H 0.66467 0.39661 0.01343 0.0
H407 H 0.6721 0.31233 0.80369 0.0
H408 H 0.81721 0.19776 0.77215 0.0
H409 H 0.76305 0.23299 0.79413 0.0
C410 C 0.82864 0.73398 0.20074 0.0
C411 C 0.84306 0.76892 0.23395 0.0
C412 C 0.79302 0.72886 0.19906 0.0
C413 C 0.71533 0.78438 0.18752 0.0
H414 H 0.67145 0.68582 0.19942 0.0
C415 C 0.58825 0.75243 0.03549 0.0
C416 C 0.59027 0.71822 0.98505 0.0
C417 C 0.61096 0.75878 0.09704 0.0
C418 C 0.68321 0.71365 0.19646 0.0
H419 H 0.83159 0.82529 0.29451 0.0
H420 H 0.76917 0.81651 0.29013 0.0
H421 H 0.72981 0.69735 0.24971 0.0
H422 H 0.61476 0.66204 0.96437 0.0
H423 H 0.65487 0.67345 0.0696 0.0
H424 H 0.67025 0.79984 0.12914 0.0
C425 C 0.78552 0.79317 0.26544 0.0
C426 C 0.71655 0.72022 0.22528 0.0
C427 C 0.82121 0.79821 0.26755 0.0
C428 C 0.61293 0.68897 1.00155 0.0
C429 C 0.63575 0.69539 0.06266 0.0
C430 C 0.68216 0.77773 0.15819 0.0
C431 C 0.77109 0.75863 0.2303 0.0
C432 C 0.73347 0.75497 0.21775 0.0
C433 C 0.63619 0.73112 0.10887 0.0
C434 C 0.66641 0.74158 0.15889 0.0
H435 H 0.84482 0.71071 0.17509 0.0
H436 H 0.78259 0.70215 0.1705 0.0
H437 H 0.72779 0.81139 0.18061 0.0
H438 H 0.57057 0.77526 0.02503 0.0
H439 H 0.61013 0.78626 0.13264 0.0
loop_
_geom_bond_atom_site_label_1
_geom_bond_atom_site_label_2
_geom_bond_distance
_geom_bond_site_symmetry_2
_ccdc_geom_bond_type
Zn0 O6 1.969 . S
Zn0 O7 1.965 . S
Zn0 O11 2.024 . S
Zn0 O16 1.969 . S
Zn1 O8 1.969 . S
Zn1 O14 1.969 . S
Zn1 O15 1.965 . S
Zn1 O17 2.024 . S
C2 O3 1.229 . S
C2 O11 1.058 . S
O3 C2 1.229 . S
C4 O5 1.229 . S
C4 O17 1.058 . S
O5 C4 1.229 . S
O6 Zn0 1.969 . S
O6 C9 1.267 . S
O7 Zn0 1.965 . S
O7 C18 1.260 1_655 S
O8 Zn1 1.969 . S
O8 C18 1.258 . S
C9 O6 1.267 . S
C9 O10 1.228 . S
O10 C9 1.228 . S
O11 Zn0 2.024 . S
O11 C2 1.058 . S
C12 O13 1.228 . S
C12 O14 1.267 . S
O13 C12 1.228 . S
O14 Zn1 1.969 . S
O14 C12 1.267 . S
O15 Zn1 1.965 . S
O15 C19 1.266 . S
O16 Zn0 1.969 . S
O16 C19 1.249 1_655 S
O17 Zn1 2.024 . S
O17 C4 1.058 . S
C18 O7 1.260 1_455 S
C18 O8 1.258 . S
C19 O15 1.266 . S
C19 O16 1.249 1_455 S
Zn20 O26 1.969 . S
Zn20 O27 1.965 . S
Zn20 O31 2.024 . S
Zn20 O36 1.969 . S
Zn21 O28 1.969 . S
Zn21 O34 1.969 . S
Zn21 O35 1.965 . S
Zn21 O37 2.024 . S
C22 O23 1.229 . S
C22 O31 1.058 . S
O23 C22 1.229 . S
C24 O25 1.229 . S
C24 O37 1.058 . S
O25 C24 1.229 . S
O26 Zn20 1.969 . S
O26 C29 1.267 . S
O27 Zn20 1.965 . S
O27 C38 1.260 . S
O28 Zn21 1.969 . S
O28 C38 1.258 . S
C29 O26 1.267 . S
C29 O30 1.228 . S
O30 C29 1.228 . S
O31 Zn20 2.024 . S
O31 C22 1.058 . S
C32 O33 1.228 . S
C32 O34 1.267 . S
O33 C32 1.228 . S
O34 Zn21 1.969 . S
O34 C32 1.267 . S
O35 Zn21 1.965 . S
O35 C39 1.260 . S
O36 Zn20 1.969 . S
O36 C39 1.258 . S
O37 Zn21 2.024 . S
O37 C24 1.058 . S
C38 O27 1.260 . S
C38 O28 1.258 . S
C39 O35 1.260 . S
C39 O36 1.258 . S
Zn40 O46 1.969 . S
Zn40 O47 1.965 . S
Zn40 O51 2.024 . S
Zn40 O56 1.969 . S
Zn41 O48 1.969 . S
Zn41 O54 1.969 . S
Zn41 O55 1.965 . S
Zn41 O57 2.024 . S
C42 O43 1.229 . S
C42 O51 1.058 . S
O43 C42 1.229 . S
C44 O45 1.229 . S
C44 O57 1.058 . S
O45 C44 1.229 . S
O46 Zn40 1.969 . S
O46 C49 1.267 . S
O47 Zn40 1.965 . S
O47 C58 1.260 1_655 S
O48 Zn41 1.969 . S
O48 C58 1.258 . S
C49 O46 1.267 . S
C49 O50 1.228 . S
O50 C49 1.228 . S
O51 Zn40 2.024 . S
O51 C42 1.058 . S
C52 O53 1.228 . S
C52 O54 1.267 . S
O53 C52 1.228 . S
O54 Zn41 1.969 . S
O54 C52 1.267 . S
O55 Zn41 1.965 . S
O55 C59 1.266 . S
O56 Zn40 1.969 . S
O56 C59 1.249 1_655 S
O57 Zn41 2.024 . S
O57 C44 1.058 . S
C58 O47 1.260 1_455 S
C58 O48 1.258 . S
C59 O55 1.266 . S
C59 O56 1.249 1_455 S
Zn60 O66 1.969 . S
Zn60 O67 1.965 . S
Zn60 O71 2.024 . S
Zn60 O76 1.969 . S
Zn61 O68 1.969 . S
Zn61 O74 1.969 . S
Zn61 O75 1.965 . S
Zn61 O77 2.024 . S
C62 O63 1.229 . S
C62 O71 1.058 . S
O63 C62 1.229 . S
C64 O65 1.229 . S
C64 O77 1.058 . S
O65 C64 1.229 . S
O66 Zn60 1.969 . S
O66 C69 1.267 . S
O67 Zn60 1.965 . S
O67 C78 1.260 . S
O68 Zn61 1.969 . S
O68 C78 1.258 . S
C69 O66 1.267 . S
C69 O70 1.228 . S
O70 C69 1.228 . S
O71 Zn60 2.024 . S
O71 C62 1.058 . S
C72 O73 1.228 . S
C72 O74 1.267 . S
O73 C72 1.228 . S
O74 Zn61 1.969 . S
O74 C72 1.267 . S
O75 Zn61 1.965 . S
O75 C79 1.260 . S
O76 Zn60 1.969 . S
O76 C79 1.258 . S
O77 Zn61 2.024 . S
O77 C64 1.058 . S
C78 O67 1.260 . S
C78 O68 1.258 . S
C79 O75 1.260 . S
C79 O76 1.258 . S
C80 C81 1.349 . S
C80 C82 1.327 . S
C80 H105 0.950 . S
C81 C80 1.349 . S
C81 C97 1.349 1_455 S
C82 C80 1.327 . S
C82 C101 1.429 . S
C82 H106 0.950 . S
C83 C100 1.574 . S
C83 C102 1.368 1_655 S
C83 H107 0.949 . S
H84 C88 0.949 . S
C85 C86 1.349 1_655 S
C85 C87 1.327 . S
C85 H108 0.950 . S
C86 C85 1.349 1_455 S
C86 C98 1.349 . S
C87 C85 1.327 . S
C87 C103 1.429 1_655 S
C87 H109 0.950 . S
C88 H84 0.949 . S
C88 C96 1.574 . S
C88 C104 1.368 . S
H89 C97 0.950 . S
H90 C95 0.950 . S
H91 C96 0.949 . S
H92 C98 0.950 . S
H93 C99 0.950 . S
H94 C100 0.949 . S
C95 H90 0.950 . S
C95 C97 1.327 . S
C95 C101 1.429 1_655 S
C96 C88 1.574 . S
C96 H91 0.949 . S
C96 C102 1.368 1_554 S
C97 C81 1.349 1_655 S
C97 H89 0.950 . S
C97 C95 1.327 . S
C98 C86 1.349 . S
C98 H92 0.950 . S
C98 C99 1.327 . S
C99 H93 0.950 . S
C99 C98 1.327 . S
C99 C103 1.429 . S
C100 C83 1.574 . S
C100 H94 0.949 . S
C100 C104 1.368 1_656 S
C101 C82 1.429 . S
C101 C95 1.429 1_455 S
C101 C102 1.523 . S
C102 C83 1.368 1_455 S
C102 C96 1.368 1_556 S
C102 C101 1.523 . S
C103 C87 1.429 1_455 S
C103 C99 1.429 . S
C103 C104 1.523 . S
C104 C88 1.368 . S
C104 C100 1.368 1_454 S
C104 C103 1.523 . S
H105 C80 0.950 . S
H106 C82 0.950 . S
H107 C83 0.949 . S
H108 C85 0.950 . S
H109 C87 0.950 . S
C110 C111 1.349 . S
C110 C112 1.327 . S
C110 H135 0.950 . S
C111 C110 1.349 . S
C111 C127 1.349 . S
C112 C110 1.327 . S
C112 C131 1.429 . S
C112 H136 0.950 1_554 S
C113 C130 1.574 . S
C113 C132 1.368 . S
C113 H137 0.949 . S
H114 C118 0.949 . S
C115 C116 1.349 . S
C115 C117 1.327 . S
C115 H138 0.950 . S
C116 C115 1.349 . S
C116 C128 1.349 . S
C117 C115 1.327 . S
C117 C133 1.429 . S
C117 H139 0.950 1_556 S
C118 H114 0.949 . S
C118 C126 1.574 . S
C118 C134 1.368 . S
H119 C127 0.950 . S
H120 C125 0.950 . S
H121 C126 0.949 . S
H122 C128 0.950 . S
H123 C129 0.950 . S
H124 C130 0.949 . S
C125 H120 0.950 . S
C125 C127 1.327 . S
C125 C131 1.429 . S
C126 C118 1.574 . S
C126 H121 0.949 . S
C126 C132 1.368 1_556 S
C127 C111 1.349 . S
C127 H119 0.950 . S
C127 C125 1.327 . S
C128 C116 1.349 . S
C128 H122 0.950 . S
C128 C129 1.327 . S
C129 H123 0.950 . S
C129 C128 1.327 . S
C129 C133 1.429 . S
C130 C113 1.574 . S
C130 H124 0.949 . S
C130 C134 1.368 1_554 S
C131 C112 1.429 . S
C131 C125 1.429 . S
C131 C132 1.523 . S
C132 C113 1.368 . S
C132 C126 1.368 1_554 S
C132 C131 1.523 . S
C133 C117 1.429 . S
C133 C129 1.429 . S
C133 C134 1.523 . S
C134 C118 1.368 . S
C134 C130 1.368 1_556 S
C134 C133 1.523 . S
H135 C110 0.950 . S
H136 C112 0.950 1_556 S
H137 C113 0.949 . S
H138 C115 0.950 . S
H139 C117 0.950 1_554 S
C140 C141 1.349 . S
C140 C142 1.327 . S
C140 H165 0.950 . S
C141 C140 1.349 . S
C141 C157 1.349 . S
C142 C140 1.327 . S
C142 C161 1.429 . S
C142 H166 0.950 . S
C143 C160 1.574 1_566 S
C143 C162 1.368 . S
C143 H167 0.949 . S
H144 C148 0.949 . S
C145 C146 1.349 . S
C145 C147 1.327 . S
C145 H168 0.950 . S
C146 C145 1.349 . S
C146 C158 1.349 . S
C147 C145 1.327 . S
C147 C163 1.429 . S
C147 H169 0.950 . S
C148 H144 0.949 . S
C148 C156 1.574 1_544 S
C148 C164 1.368 . S
H149 C157 0.950 . S
H150 C155 0.950 . S
H151 C156 0.949 . S
H152 C158 0.950 . S
H153 C159 0.950 . S
H154 C160 0.949 . S
C155 H150 0.950 . S
C155 C157 1.327 . S
C155 C161 1.429 . S
C156 C148 1.574 1_566 S
C156 H151 0.949 . S
C156 C162 1.368 . S
C157 C141 1.349 . S
C157 H149 0.950 . S
C157 C155 1.327 . S
C158 C146 1.349 . S
C158 H152 0.950 . S
C158 C159 1.327 . S
C159 H153 0.950 . S
C159 C158 1.327 . S
C159 C163 1.429 . S
C160 C143 1.574 1_544 S
C160 H154 0.949 . S
C160 C164 1.368 . S
C161 C142 1.429 . S
C161 C155 1.429 . S
C161 C162 1.523 . S
C162 C143 1.368 . S
C162 C156 1.368 . S
C162 C161 1.523 . S
C163 C147 1.429 . S
C163 C159 1.429 . S
C163 C164 1.523 . S
C164 C148 1.368 . S
C164 C160 1.368 . S
C164 C163 1.523 . S
H165 C140 0.950 . S
H166 C142 0.950 . S
H167 C143 0.949 . S
H168 C145 0.950 . S
H169 C147 0.950 . S
C170 C171 1.349 . S
C170 C172 1.327 . S
C170 H195 0.950 . S
C171 C170 1.349 . S
C171 C187 1.349 1_655 S
C172 C170 1.327 . S
C172 C191 1.429 . S
C172 H196 0.950 . S
C173 C190 1.574 1_565 S
C173 C192 1.368 1_456 S
C173 H197 0.949 . S
H174 C178 0.949 . S
C175 C176 1.349 1_455 S
C175 C177 1.327 . S
C175 H198 0.950 . S
C176 C175 1.349 1_655 S
C176 C188 1.349 . S
C177 C175 1.327 . S
C177 C193 1.429 1_455 S
C177 H199 0.950 . S
C178 H174 0.949 . S
C178 C186 1.574 1_545 S
C178 C194 1.368 1_554 S
H179 C187 0.950 . S
H180 C185 0.950 . S
H181 C186 0.949 . S
H182 C188 0.950 . S
H183 C189 0.950 . S
H184 C190 0.949 . S
C185 H180 0.950 . S
C185 C187 1.327 . S
C185 C191 1.429 1_455 S
C186 C178 1.574 1_565 S
C186 H181 0.949 . S
C186 C192 1.368 . S
C187 C171 1.349 1_455 S
C187 H179 0.950 . S
C187 C185 1.327 . S
C188 C176 1.349 . S
C188 H182 0.950 . S
C188 C189 1.327 . S
C189 H183 0.950 . S
C189 C188 1.327 . S
C189 C193 1.429 . S
C190 C173 1.574 1_545 S
C190 H184 0.949 . S
C190 C194 1.368 1_455 S
C191 C172 1.429 . S
C191 C185 1.429 1_655 S
C191 C192 1.523 . S
C192 C173 1.368 1_654 S
C192 C186 1.368 . S
C192 C191 1.523 . S
C193 C177 1.429 1_655 S
C193 C189 1.429 . S
C193 C194 1.523 . S
C194 C178 1.368 1_556 S
C194 C190 1.368 1_655 S
C194 C193 1.523 . S
H195 C170 0.950 . S
H196 C172 0.950 . S
H197 C173 0.949 . S
H198 C175 0.950 . S
H199 C177 0.950 . S
C200 C201 1.349 . S
C200 C202 1.327 . S
C200 H225 0.950 . S
C201 C200 1.349 . S
C201 C217 1.349 . S
C202 C200 1.327 . S
C202 C221 1.429 . S
C202 H226 0.950 . S
C203 C220 1.574 . S
C203 C222 1.368 . S
C203 H227 0.949 . S
H204 C208 0.949 . S
C205 C206 1.349 . S
C205 C207 1.327 . S
C205 H228 0.950 . S
C206 C205 1.349 . S
C206 C218 1.349 . S
C207 C205 1.327 . S
C207 C223 1.429 . S
C207 H229 0.950 . S
C208 H204 0.949 . S
C208 C216 1.574 . S
C208 C224 1.368 . S
H209 C217 0.950 . S
H210 C215 0.950 . S
H211 C216 0.949 . S
H212 C218 0.950 . S
H213 C219 0.950 . S
H214 C220 0.949 . S
C215 H210 0.950 . S
C215 C217 1.327 . S
C215 C221 1.429 . S
C216 C208 1.574 . S
C216 H211 0.949 . S
C216 C222 1.368 . S
C217 C201 1.349 . S
C217 H209 0.950 . S
C217 C215 1.327 . S
C218 C206 1.349 . S
C218 H212 0.950 . S
C218 C219 1.327 . S
C219 H213 0.950 . S
C219 C218 1.327 . S
C219 C223 1.429 . S
C220 C203 1.574 . S
C220 H214 0.949 . S
C220 C224 1.368 . S
C221 C202 1.429 . S
C221 C215 1.429 . S
C221 C222 1.523 . S
C222 C203 1.368 . S
C222 C216 1.368 . S
C222 C221 1.523 . S
C223 C207 1.429 . S
C223 C219 1.429 . S
C223 C224 1.523 . S
C224 C208 1.368 . S
C224 C220 1.368 . S
C224 C223 1.523 . S
H225 C200 0.950 . S
H226 C202 0.950 . S
H227 C203 0.949 . S
H228 C205 0.950 . S
H229 C207 0.950 . S
C230 C231 1.349 . S
C230 C232 1.327 . S
C230 H255 0.950 . S
C231 C230 1.349 . S
C231 C247 1.349 . S
C232 C230 1.327 . S
C232 C251 1.429 . S
C232 H256 0.950 . S
C233 C250 1.574 . S
C233 C252 1.368 . S
C233 H257 0.949 . S
H234 C238 0.949 . S
C235 C236 1.349 . S
C235 C237 1.327 . S
C235 H258 0.950 . S
C236 C235 1.349 . S
C236 C248 1.349 . S
C237 C235 1.327 . S
C237 C253 1.429 . S
C237 H259 0.950 . S
C238 H234 0.949 . S
C238 C246 1.574 . S
C238 C254 1.368 . S
H239 C247 0.950 . S
H240 C245 0.950 . S
H241 C246 0.949 . S
H242 C248 0.950 . S
H243 C249 0.950 . S
H244 C250 0.949 . S
C245 H240 0.950 . S
C245 C247 1.327 . S
C245 C251 1.429 . S
C246 C238 1.574 . S
C246 H241 0.949 . S
C246 C252 1.368 . S
C247 C231 1.349 . S
C247 H239 0.950 . S
C247 C245 1.327 . S
C248 C236 1.349 . S
C248 H242 0.950 . S
C248 C249 1.327 . S
C249 H243 0.950 . S
C249 C248 1.327 . S
C249 C253 1.429 . S
C250 C233 1.574 . S
C250 H244 0.949 . S
C250 C254 1.368 . S
C251 C232 1.429 . S
C251 C245 1.429 . S
C251 C252 1.523 . S
C252 C233 1.368 . S
C252 C246 1.368 . S
C252 C251 1.523 . S
C253 C237 1.429 . S
C253 C249 1.429 . S
C253 C254 1.523 . S
C254 C238 1.368 . S
C254 C250 1.368 . S
C254 C253 1.523 . S
H255 C230 0.950 . S
H256 C232 0.950 . S
H257 C233 0.949 . S
H258 C235 0.950 . S
H259 C237 0.950 . S
C260 C261 1.349 . S
C260 C262 1.327 . S
C260 H285 0.950 . S
C261 C260 1.349 . S
C261 C277 1.349 . S
C262 C260 1.327 . S
C262 C281 1.429 . S
C262 H286 0.950 . S
C263 C280 1.574 . S
C263 C282 1.368 . S
C263 H287 0.949 . S
H264 C268 0.949 . S
C265 C266 1.349 . S
C265 C267 1.327 . S
C265 H288 0.950 . S
C266 C265 1.349 . S
C266 C278 1.349 . S
C267 C265 1.327 . S
C267 C283 1.429 . S
C267 H289 0.950 . S
C268 H264 0.949 . S
C268 C276 1.574 . S
C268 C284 1.368 . S
H269 C277 0.950 . S
H270 C275 0.950 . S
H271 C276 0.949 . S
H272 C278 0.950 . S
H273 C279 0.950 . S
H274 C280 0.949 . S
C275 H270 0.950 . S
C275 C277 1.327 . S
C275 C281 1.429 . S
C276 C268 1.574 . S
C276 H271 0.949 . S
C276 C282 1.368 . S
C277 C261 1.349 . S
C277 H269 0.950 . S
C277 C275 1.327 . S
C278 C266 1.349 . S
C278 H272 0.950 . S
C278 C279 1.327 . S
C279 H273 0.950 . S
C279 C278 1.327 . S
C279 C283 1.429 . S
C280 C263 1.574 . S
C280 H274 0.949 . S
C280 C284 1.368 . S
C281 C262 1.429 . S
C281 C275 1.429 . S
C281 C282 1.523 . S
C282 C263 1.368 . S
C282 C276 1.368 . S
C282 C281 1.523 . S
C283 C267 1.429 . S
C283 C279 1.429 . S
C283 C284 1.523 . S
C284 C268 1.368 . S
C284 C280 1.368 . S
C284 C283 1.523 . S
H285 C260 0.950 . S
H286 C262 0.950 . S
H287 C263 0.949 . S
H288 C265 0.950 . S
H289 C267 0.950 . S
C290 C291 1.349 . S
C290 C292 1.327 . S
C290 H315 0.950 . S
C291 C290 1.349 . S
C291 C307 1.349 . S
C292 C290 1.327 . S
C292 C311 1.429 . S
C292 H316 0.950 . S
C293 C310 1.574 . S
C293 C312 1.368 . S
C293 H317 0.949 . S
H294 C298 0.949 . S
C295 C296 1.349 . S
C295 C297 1.327 . S
C295 H318 0.950 . S
C296 C295 1.349 . S
C296 C308 1.349 . S
C297 C295 1.327 . S
C297 C313 1.429 . S
C297 H319 0.950 . S
C298 H294 0.949 . S
C298 C306 1.574 . S
C298 C314 1.368 . S
H299 C307 0.950 . S
H300 C305 0.950 . S
H301 C306 0.949 . S
H302 C308 0.950 . S
H303 C309 0.950 . S
H304 C310 0.949 . S
C305 H300 0.950 . S
C305 C307 1.327 . S
C305 C311 1.429 . S
C306 C298 1.574 . S
C306 H301 0.949 . S
C306 C312 1.368 . S
C307 C291 1.349 . S
C307 H299 0.950 . S
C307 C305 1.327 . S
C308 C296 1.349 . S
C308 H302 0.950 . S
C308 C309 1.327 . S
C309 H303 0.950 . S
C309 C308 1.327 . S
C309 C313 1.429 . S
C310 C293 1.574 . S
C310 H304 0.949 . S
C310 C314 1.368 . S
C311 C292 1.429 . S
C311 C305 1.429 . S
C311 C312 1.523 . S
C312 C293 1.368 . S
C312 C306 1.368 . S
C312 C311 1.523 . S
C313 C297 1.429 . S
C313 C309 1.429 . S
C313 C314 1.523 . S
C314 C298 1.368 . S
C314 C310 1.368 . S
C314 C313 1.523 . S
H315 C290 0.950 . S
H316 C292 0.950 . S
H317 C293 0.949 . S
H318 C295 0.950 . S
H319 C297 0.950 . S
C320 C321 1.349 . S
C320 C322 1.327 . S
C320 H345 0.950 . S
C321 C320 1.349 . S
C321 C337 1.349 1_556 S
C322 C320 1.327 . S
C322 C341 1.429 . S
C322 H346 0.950 . S
C323 C340 1.574 . S
C323 C342 1.353 1_554 S
C323 H347 0.949 . S
H324 C328 0.949 . S
C325 C326 1.349 . S
C325 C327 1.327 . S
C325 H348 0.950 . S
C326 C325 1.349 . S
C326 C338 1.349 1_554 S
C327 C325 1.327 . S
C327 C343 1.429 . S
C327 H349 0.950 . S
C328 H324 0.949 . S
C328 C336 1.574 . S
C328 C344 1.368 1_556 S
H329 C337 0.950 . S
H330 C335 0.950 . S
H331 C336 0.949 . S
H332 C338 0.950 . S
H333 C339 0.950 . S
H334 C340 0.949 . S
C335 H330 0.950 . S
C335 C337 1.327 . S
C335 C341 1.429 1_554 S
C336 C328 1.574 . S
C336 H331 0.949 . S
C336 C342 1.382 . S
C337 C321 1.349 1_554 S
C337 H329 0.950 . S
C337 C335 1.327 . S
C338 C326 1.349 1_556 S
C338 H332 0.950 . S
C338 C339 1.327 . S
C339 H333 0.950 . S
C339 C338 1.327 . S
C339 C343 1.429 1_556 S
C340 C323 1.574 . S
C340 H334 0.949 . S
C340 C344 1.368 . S
C341 C322 1.429 . S
C341 C335 1.429 1_556 S
C341 C342 1.525 . S
C342 C323 1.353 1_556 S
C342 C336 1.382 . S
C342 C341 1.525 . S
C343 C327 1.429 . S
C343 C339 1.429 1_554 S
C343 C344 1.523 . S
C344 C328 1.368 1_554 S
C344 C340 1.368 . S
C344 C343 1.523 . S
H345 C320 0.950 . S
H346 C322 0.950 . S
H347 C323 0.949 . S
H348 C325 0.950 . S
H349 C327 0.950 . S
C350 C351 1.349 1_554 S
C350 C352 1.327 . S
C350 H375 0.950 . S
C351 C350 1.349 1_556 S
C351 C367 1.349 . S
C352 C350 1.327 . S
C352 C371 1.429 1_554 S
C352 H376 0.950 . S
C353 C370 1.574 . S
C353 C372 1.368 . S
C353 H377 0.949 . S
H354 C358 0.949 . S
C355 C356 1.349 1_556 S
C355 C357 1.327 . S
C355 H378 0.950 . S
C356 C355 1.349 1_554 S
C356 C368 1.349 . S
C357 C355 1.327 . S
C357 C373 1.429 1_556 S
C357 H379 0.950 . S
C358 H354 0.949 . S
C358 C366 1.574 . S
C358 C374 1.379 . S
H359 C367 0.950 . S
H360 C365 0.950 . S
H361 C366 0.949 . S
H362 C368 0.950 . S
H363 C369 0.950 . S
H364 C370 0.949 . S
C365 H360 0.950 . S
C365 C367 1.327 . S
C365 C371 1.429 . S
C366 C358 1.574 . S
C366 H361 0.949 . S
C366 C372 1.368 1_554 S
C367 C351 1.349 . S
C367 H359 0.950 . S
C367 C365 1.327 . S
C368 C356 1.349 . S
C368 H362 0.950 . S
C368 C369 1.327 . S
C369 H363 0.950 . S
C369 C368 1.327 . S
C369 C373 1.429 . S
C370 C353 1.574 . S
C370 H364 0.949 . S
C370 C374 1.356 1_556 S
C371 C352 1.429 1_556 S
C371 C365 1.429 . S
C371 C372 1.523 . S
C372 C353 1.368 . S
C372 C366 1.368 1_556 S
C372 C371 1.523 . S
C373 C357 1.429 1_554 S
C373 C369 1.429 . S
C373 C374 1.525 . S
C374 C358 1.379 . S
C374 C370 1.356 1_554 S
C374 C373 1.525 . S
H375 C350 0.950 . S
H376 C352 0.950 . S
H377 C353 0.949 . S
H378 C355 0.950 . S
H379 C357 0.950 . S
C380 C381 1.349 . S
C380 C382 1.327 . S
C380 H405 0.950 . S
C381 C380 1.349 . S
C381 C397 1.349 1_554 S
C382 C380 1.327 . S
C382 C401 1.429 . S
C382 H406 0.950 . S
C383 C400 1.574 . S
C383 C402 1.368 1_556 S
C383 H407 0.949 . S
H384 C388 0.949 . S
C385 C386 1.349 . S
C385 C387 1.327 . S
C385 H408 0.950 . S
C386 C385 1.349 . S
C386 C398 1.349 1_556 S
C387 C385 1.327 . S
C387 C403 1.429 . S
C387 H409 0.950 . S
C388 H384 0.949 . S
C388 C396 1.574 . S
C388 C404 1.360 1_554 S
H389 C397 0.950 . S
H390 C395 0.950 . S
H391 C396 0.949 . S
H392 C398 0.950 . S
H393 C399 0.950 . S
H394 C400 0.949 . S
C395 H390 0.950 . S
C395 C397 1.327 . S
C395 C401 1.429 1_556 S
C396 C388 1.574 . S
C396 H391 0.949 . S
C396 C402 1.368 . S
C397 C381 1.349 1_556 S
C397 H389 0.950 . S
C397 C395 1.327 . S
C398 C386 1.349 1_554 S
C398 H392 0.950 . S
C398 C399 1.327 . S
C399 H393 0.950 . S
C399 C398 1.327 . S
C399 C403 1.429 1_554 S
C400 C383 1.574 . S
C400 H394 0.949 . S
C400 C404 1.375 . S
C401 C382 1.429 . S
C401 C395 1.429 1_554 S
C401 C402 1.523 . S
C402 C383 1.368 1_554 S
C402 C396 1.368 . S
C402 C401 1.523 . S
C403 C387 1.429 . S
C403 C399 1.429 1_556 S
C403 C404 1.525 . S
C404 C388 1.360 1_556 S
C404 C400 1.375 . S
C404 C403 1.525 . S
H405 C380 0.950 . S
H406 C382 0.950 . S
H407 C383 0.949 . S
H408 C385 0.950 . S
H409 C387 0.950 . S
C410 C411 1.349 . S
C410 C412 1.327 . S
C410 H435 0.950 . S
C411 C410 1.349 . S
C411 C427 1.349 1_554 S
C412 C410 1.327 . S
C412 C431 1.429 . S
C412 H436 0.950 . S
C413 C430 1.574 . S
C413 C432 1.354 1_556 S
C413 H437 0.949 . S
H414 C418 0.949 . S
C415 C416 1.349 . S
C415 C417 1.327 . S
C415 H438 0.950 . S
C416 C415 1.349 . S
C416 C428 1.349 1_556 S
C417 C415 1.327 . S
C417 C433 1.429 . S
C417 H439 0.950 . S
C418 H414 0.949 . S
C418 C426 1.574 . S
C418 C434 1.368 1_554 S
H419 C427 0.950 . S
H420 C425 0.950 . S
H421 C426 0.949 . S
H422 C428 0.950 . S
H423 C429 0.950 . S
H424 C430 0.949 . S
C425 H420 0.950 . S
C425 C427 1.327 . S
C425 C431 1.429 1_556 S
C426 C418 1.574 . S
C426 H421 0.949 . S
C426 C432 1.382 . S
C427 C411 1.349 1_556 S
C427 H419 0.950 . S
C427 C425 1.327 . S
C428 C416 1.349 1_554 S
C428 H422 0.950 . S
C428 C429 1.327 . S
C429 H423 0.950 . S
C429 C428 1.327 . S
C429 C433 1.429 1_554 S
C430 C413 1.574 . S
C430 H424 0.949 . S
C430 C434 1.368 . S
C431 C412 1.429 . S
C431 C425 1.429 1_554 S
C431 C432 1.525 . S
C432 C413 1.354 1_554 S
C432 C426 1.382 . S
C432 C431 1.525 . S
C433 C417 1.429 . S
C433 C429 1.429 1_556 S
C433 C434 1.523 . S
C434 C418 1.368 1_556 S
C434 C430 1.368 . S
C434 C433 1.523 . S
H435 C410 0.950 . S
H436 C412 0.950 . S
H437 C413 0.949 . S
H438 C415 0.950 . S
H439 C417 0.950 . S
C81 C59 1.752 . S
C86 C19 1.752 . S
C111 C38 2.268 . S
C116 C78 2.268 . S
C141 C79 1.751 . S
C146 C39 1.751 . S
C171 C18 2.268 1_655 S
C176 C58 2.268 1_655 S
C201 C62 1.461 . S
C206 C12 1.512 . S
C231 C52 1.512 . S
C236 C22 1.461 . S
C261 C42 1.461 . S
C266 C32 1.512 . S
C291 C2 1.461 . S
C296 C72 1.512 . S
C321 C69 0.713 . S
C326 C4 0.725 . S
C351 C44 0.725 . S
C356 C29 0.713 . S
C381 C24 0.725 . S
C386 C49 0.714 . S
C411 C9 0.714 . S
C416 C64 0.725 . S
