# Generated by pormake.
# Topology atn, (4)-cn, num edge types: 1
# Building blocks:
#     Node 0, Type 0, BuildingBlock: QUQFOY_clean_sbu_1, # of connection points: 4
#     Node 1, Type 0, BuildingBlock: QUQFOY_clean_sbu_1, # of connection points: 4
#     Node 2, Type 0, BuildingBlock: QUQFOY_clean_sbu_1, # of connection points: 4
#     Node 3, Type 0, BuildingBlock: QUQFOY_clean_sbu_1, # of connection points: 4
#     Node 4, Type 0, BuildingBlock: QUQFOY_clean_sbu_1, # of connection points: 4
#     Node 5, Type 0, BuildingBlock: QUQFOY_clean_sbu_1, # of connection points: 4
#     Node 6, Type 0, BuildingBlock: QUQFOY_clean_sbu_1, # of connection points: 4
#     Node 7, Type 0, BuildingBlock: QUQFOY_clean_sbu_1, # of connection points: 4
#     Node 8, Type 0, BuildingBlock: QUQFOY_clean_sbu_1, # of connection points: 4
#     Node 9, Type 0, BuildingBlock: QUQFOY_clean_sbu_1, # of connection points: 4
#     Node 10, Type 0, BuildingBlock: QUQFOY_clean_sbu_1, # of connection points: 4
#     Node 11, Type 0, BuildingBlock: QUQFOY_clean_sbu_1, # of connection points: 4
#     Node 12, Type 0, BuildingBlock: QUQFOY_clean_sbu_1, # of connection points: 4
#     Node 13, Type 0, BuildingBlock: QUQFOY_clean_sbu_1, # of connection points: 4
#     Node 14, Type 0, BuildingBlock: QUQFOY_clean_sbu_1, # of connection points: 4
#     Node 15, Type 0, BuildingBlock: QUQFOY_clean_sbu_1, # of connection points: 4
#     Edge 16, Type (0, 0), BuildingBlock: CIFDUS_clean_linker_0, # of connection points: 2
#     Edge 17, Type (0, 0), BuildingBlock: CIFDUS_clean_linker_0, # of connection points: 2
#     Edge 18, Type (0, 0), BuildingBlock: CIFDUS_clean_linker_0, # of connection points: 2
#     Edge 19, Type (0, 0), BuildingBlock: CIFDUS_clean_linker_0, # of connection points: 2
#     Edge 20, Type (0, 0), BuildingBlock: CIFDUS_clean_linker_0, # of connection points: 2
#     Edge 21, Type (0, 0), BuildingBlock: CIFDUS_clean_linker_0, # of connection points: 2
#     Edge 22, Type (0, 0), BuildingBlock: CIFDUS_clean_linker_0, # of connection points: 2
#     Edge 23, Type (0, 0), BuildingBlock: CIFDUS_clean_linker_0, # of connection points: 2
#     Edge 24, Type (0, 0), BuildingBlock: CIFDUS_clean_linker_0, # of connection points: 2
#     Edge 25, Type (0, 0), BuildingBlock: CIFDUS_clean_linker_0, # of connection points: 2
#     Edge 26, Type (0, 0), BuildingBlock: CIFDUS_clean_linker_0, # of connection points: 2
#     Edge 27, Type (0, 0), BuildingBlock: CIFDUS_clean_linker_0, # of connection points: 2
#     Edge 28, Type (0, 0), BuildingBlock: CIFDUS_clean_linker_0, # of connection points: 2
#     Edge 29, Type (0, 0), BuildingBlock: CIFDUS_clean_linker_0, # of connection points: 2
#     Edge 30, Type (0, 0), BuildingBlock: CIFDUS_clean_linker_0, # of connection points: 2
#     Edge 31, Type (0, 0), BuildingBlock: CIFDUS_clean_linker_0, # of connection points: 2
#     Edge 32, Type (0, 0), BuildingBlock: CIFDUS_clean_linker_0, # of connection points: 2
#     Edge 33, Type (0, 0), BuildingBlock: CIFDUS_clean_linker_0, # of connection points: 2
#     Edge 34, Type (0, 0), BuildingBlock: CIFDUS_clean_linker_0, # of connection points: 2
#     Edge 35, Type (0, 0), BuildingBlock: CIFDUS_clean_linker_0, # of connection points: 2
#     Edge 36, Type (0, 0), BuildingBlock: CIFDUS_clean_linker_0, # of connection points: 2
#     Edge 37, Type (0, 0), BuildingBlock: CIFDUS_clean_linker_0, # of connection points: 2
#     Edge 38, Type (0, 0), BuildingBlock: CIFDUS_clean_linker_0, # of connection points: 2
#     Edge 39, Type (0, 0), BuildingBlock: CIFDUS_clean_linker_0, # of connection points: 2
#     Edge 40, Type (0, 0), BuildingBlock: CIFDUS_clean_linker_0, # of connection points: 2
#     Edge 41, Type (0, 0), BuildingBlock: CIFDUS_clean_linker_0, # of connection points: 2
#     Edge 42, Type (0, 0), BuildingBlock: CIFDUS_clean_linker_0, # of connection points: 2
#     Edge 43, Type (0, 0), BuildingBlock: CIFDUS_clean_linker_0, # of connection points: 2
#     Edge 44, Type (0, 0), BuildingBlock: CIFDUS_clean_linker_0, # of connection points: 2
#     Edge 45, Type (0, 0), BuildingBlock: CIFDUS_clean_linker_0, # of connection points: 2
#     Edge 46, Type (0, 0), BuildingBlock: CIFDUS_clean_linker_0, # of connection points: 2
#     Edge 47, Type (0, 0), BuildingBlock: CIFDUS_clean_linker_0, # of connection points: 2
# Relax obj value: 0.054
# Max RMSD: 0.085
# Mean RMSD: 0.085
data_MOF--net-atn--node1-QUQFOY_clean_sbu_1--edge1-CIFDUS_clean_linker_0
_symmetry_space_group_name_H-M    P1
_symmetry_Int_Tables_number       1
_symmetry_cell_setting            triclinic
loop_
_symmetry_equiv_pos_as_xyz
'x, y, z'
_cell_length_a     54.684122
_cell_length_b     54.309072
_cell_length_c     24.892028
_cell_angle_alpha  90.236508
_cell_angle_beta   89.970548
_cell_angle_gamma 89.987444
loop_
_atom_site_label
_atom_site_type_symbol
_atom_site_fract_x
_atom_site_fract_y
_atom_site_fract_z
_atom_type_partial_charge
O0 O 0.1956 0.38551 0.14983 0.0
Cd1 Cd 0.21957 0.39399 0.08854 0.0
Cd2 Cd 0.1866 0.3649 0.03345 0.0
O3 O 0.16596 0.36869 0.10229 0.0
O4 O 0.23668 0.42377 0.11685 0.0
O5 O 0.21374 0.42412 0.04349 0.0
C6 C 0.2268 0.436 0.07824 0.0
C7 C 0.1674 0.36432 0.94925 0.0
C8 C 0.17431 0.37622 0.14706 0.0
C9 C 0.23855 0.346 0.0506 0.0
O10 O 0.21637 0.34169 0.0384 0.0
O11 O 0.24494 0.36717 0.06763 0.0
O12 O 0.16419 0.34695 0.98355 0.0
O13 O 0.1809 0.38275 0.96339 0.0
O14 O 0.62828 0.19406 0.14333 0.0
Cd15 Cd 0.61797 0.21806 0.08341 0.0
Cd16 Cd 0.65219 0.19085 0.02868 0.0
O17 O 0.65182 0.16917 0.0961 0.0
O18 O 0.58675 0.23191 0.11161 0.0
O19 O 0.58915 0.21046 0.03592 0.0
C20 C 0.57593 0.22202 0.07094 0.0
C21 C 0.65344 0.17192 0.94429 0.0
C22 C 0.64162 0.17495 0.1402 0.0
C23 C 0.66288 0.24479 0.04973 0.0
O24 O 0.67074 0.22382 0.03476 0.0
O25 O 0.64118 0.24721 0.06743 0.0
O26 O 0.6718 0.17114 0.9766 0.0
O27 O 0.63389 0.18312 0.96028 0.0
O28 O 0.80814 0.6303 0.14481 0.0
Cd29 Cd 0.78727 0.62035 0.07918 0.0
Cd30 Cd 0.81595 0.65267 0.02975 0.0
O31 O 0.83668 0.64975 0.09896 0.0
O32 O 0.77302 0.58717 0.09338 0.0
O33 O 0.80158 0.59423 0.03204 0.0
C34 C 0.78779 0.57879 0.0572 0.0
C35 C 0.83168 0.64797 0.943 0.0
C36 C 0.82869 0.64124 0.14319 0.0
C37 C 0.76313 0.66618 0.04264 0.0
O38 O 0.78476 0.67392 0.0346 0.0
O39 O 0.75948 0.64389 0.05583 0.0
O40 O 0.83656 0.66727 0.97146 0.0
O41 O 0.81892 0.63073 0.96499 0.0
O42 O 0.38537 0.81801 0.15457 0.0
Cd43 Cd 0.39503 0.7934 0.09482 0.0
Cd44 Cd 0.36256 0.82122 0.03916 0.0
O45 O 0.36306 0.8436 0.10669 0.0
O46 O 0.4261 0.77902 0.12232 0.0
O47 O 0.42377 0.80037 0.04683 0.0
C48 C 0.43692 0.78869 0.08151 0.0
C49 C 0.36716 0.83677 0.95213 0.0
C50 C 0.37282 0.83763 0.15115 0.0
C51 C 0.34958 0.76789 0.05968 0.0
O52 O 0.34249 0.78908 0.0446 0.0
O53 O 0.37105 0.7649 0.07823 0.0
O54 O 0.34747 0.84057 0.97951 0.0
O55 O 0.38479 0.82496 0.97511 0.0
O56 O 0.2025 0.62837 0.93748 0.0
Cd57 Cd 0.22194 0.62227 1.00703 0.0
Cd58 Cd 0.18672 0.65339 0.04397 0.0
O59 O 0.16994 0.64726 0.96964 0.0
O60 O 0.24133 0.59258 0.98644 0.0
O61 O 0.2141 0.59254 0.05224 0.0
C62 C 0.22934 0.58054 0.02233 0.0
C63 C 0.16759 0.65208 0.12871 0.0
C64 C 0.1815 0.63778 0.93016 0.0
C65 C 0.23895 0.67191 0.03914 0.0
O66 O 0.21627 0.67697 0.04215 0.0
O67 O 0.24591 0.64989 0.03036 0.0
O68 O 0.16275 0.66921 0.09456 0.0
O69 O 0.18204 0.63456 0.11335 0.0
O70 O 0.38101 0.1977 0.92684 0.0
Cd71 Cd 0.39158 0.22147 0.98748 0.0
Cd72 Cd 0.35789 0.19364 0.04342 0.0
O73 O 0.35788 0.17267 0.97427 0.0
O74 O 0.42303 0.2351 0.96034 0.0
O75 O 0.42019 0.21288 0.03454 0.0
C76 C 0.43364 0.22454 1.00034 0.0
C77 C 0.35651 0.17355 0.1264 0.0
C78 C 0.36781 0.17851 0.92999 0.0
C79 C 0.34735 0.2481 0.02644 0.0
O80 O 0.33978 0.22701 0.04105 0.0
O81 O 0.36861 0.25059 1.00641 0.0
O82 O 0.33808 0.17354 0.09424 0.0
O83 O 0.37621 0.18459 0.11102 0.0
O84 O 0.81018 0.38595 0.93974 0.0
Cd85 Cd 0.78786 0.39222 1.00525 0.0
Cd86 Cd 0.82149 0.36516 0.05486 0.0
O87 O 0.84119 0.3705 0.98517 0.0
O88 O 0.76775 0.42213 0.99083 0.0
O89 O 0.79726 0.42067 0.052 0.0
C90 C 0.78074 0.43312 0.02693 0.0
C91 C 0.83725 0.37248 0.14056 0.0
C92 C 0.83201 0.37789 0.94113 0.0
C93 C 0.77157 0.34302 0.04241 0.0
O94 O 0.7941 0.33914 0.05161 0.0
O95 O 0.76438 0.36424 0.02795 0.0
O96 O 0.84441 0.35387 0.11225 0.0
O97 O 0.82202 0.38768 0.11891 0.0
O98 O 0.6279 0.82224 0.93442 0.0
Cd99 Cd 0.62028 0.79737 0.99453 0.0
Cd100 Cd 0.64804 0.82906 0.05006 0.0
O101 O 0.64588 0.85101 0.98295 0.0
O102 O 0.59026 0.78022 0.96874 0.0
O103 O 0.5914 0.80307 0.04271 0.0
C104 C 0.57893 0.78996 1.00903 0.0
C105 C 0.6411 0.84425 0.13652 0.0
C106 C 0.63777 0.84336 0.93807 0.0
C107 C 0.66799 0.77784 0.03108 0.0
O108 O 0.67212 0.79993 0.04554 0.0
O109 O 0.64715 0.77178 1.01257 0.0
O110 O 0.66041 0.8502 0.10978 0.0
O111 O 0.62505 0.83045 0.11306 0.0
O112 O 0.69562 0.88585 0.64286 0.0
Cd113 Cd 0.71792 0.89227 0.57752 0.0
Cd114 Cd 0.68457 0.86485 0.5277 0.0
O115 O 0.66474 0.87009 0.59727 0.0
O116 O 0.73809 0.92203 0.59333 0.0
O117 O 0.70872 0.92099 0.53177 0.0
C118 C 0.72525 0.93324 0.55751 0.0
C119 C 0.669 0.8722 0.44207 0.0
C120 C 0.67385 0.87762 0.64138 0.0
C121 C 0.73459 0.8431 0.53961 0.0
O122 O 0.71209 0.83898 0.53062 0.0
O123 O 0.74158 0.86443 0.5542 0.0
O124 O 0.66184 0.85354 0.46988 0.0
O125 O 0.68411 0.88745 0.46421 0.0
O126 O 0.12367 0.70147 0.6342 0.0
Cd127 Cd 0.11753 0.7207 0.56428 0.0
Cd128 Cd 0.15364 0.69073 0.52973 0.0
O129 O 0.14897 0.67311 0.60359 0.0
O130 O 0.08496 0.73591 0.57789 0.0
O131 O 0.09193 0.70959 0.51142 0.0
C132 C 0.07675 0.72322 0.53796 0.0
C133 C 0.15413 0.67087 0.44537 0.0
C134 C 0.13648 0.6823 0.64203 0.0
C135 C 0.16439 0.7453 0.53749 0.0
O136 O 0.17284 0.72357 0.53244 0.0
O137 O 0.14174 0.74869 0.54652 0.0
O138 O 0.17195 0.66855 0.47896 0.0
O139 O 0.13527 0.68339 0.46085 0.0
O140 O 0.3113 0.12823 0.6361 0.0
Cd141 Cd 0.28812 0.12136 0.57227 0.0
Cd142 Cd 0.32031 0.15094 0.52186 0.0
O143 O 0.34062 0.14667 0.59086 0.0
O144 O 0.27219 0.08925 0.58887 0.0
O145 O 0.29639 0.09503 0.51848 0.0
C146 C 0.28322 0.08034 0.54726 0.0
C147 C 0.33962 0.151 0.43792 0.0
C148 C 0.33234 0.13813 0.63469 0.0
C149 C 0.26851 0.16967 0.53982 0.0
O150 O 0.29061 0.17424 0.52743 0.0
O151 O 0.26238 0.14826 0.55545 0.0
O152 O 0.34297 0.1685 0.47219 0.0
O153 O 0.32588 0.13279 0.45195 0.0
O154 O 0.87918 0.3229 0.64751 0.0
Cd155 Cd 0.88732 0.29804 0.58724 0.0
Cd156 Cd 0.85942 0.3295 0.53157 0.0
O157 O 0.86109 0.35148 0.59914 0.0
O158 O 0.91717 0.28104 0.61412 0.0
O159 O 0.91662 0.30371 0.5403 0.0
C160 C 0.92883 0.29072 0.57442 0.0
C161 C 0.86616 0.34481 0.44535 0.0
C162 C 0.86909 0.34391 0.64405 0.0
C163 C 0.83993 0.27808 0.54951 0.0
O164 O 0.83566 0.30012 0.53526 0.0
O165 O 0.86075 0.27222 0.56833 0.0
O166 O 0.8468 0.35051 0.47225 0.0
O167 O 0.8824 0.33122 0.46854 0.0
O168 O 0.70118 0.12879 0.43479 0.0
Cd169 Cd 0.7214 0.11991 0.50194 0.0
Cd170 Cd 0.69226 0.15272 0.54913 0.0
O171 O 0.67252 0.14884 0.47925 0.0
O172 O 0.73534 0.08643 0.49063 0.0
O173 O 0.70648 0.09491 0.55068 0.0
C174 C 0.72026 0.07887 0.52692 0.0
C175 C 0.67233 0.1531 0.63206 0.0
C176 C 0.68064 0.13976 0.43562 0.0
C177 C 0.74547 0.16584 0.53794 0.0
O178 O 0.7238 0.17354 0.54577 0.0
O179 O 0.74922 0.14353 0.5247 0.0
O180 O 0.6702 0.17112 0.59889 0.0
O181 O 0.68524 0.13431 0.61742 0.0
O182 O 0.88078 0.69611 0.43711 0.0
Cd183 Cd 0.8901 0.72021 0.49802 0.0
Cd184 Cd 0.85705 0.69315 0.55115 0.0
O185 O 0.85778 0.67072 0.48394 0.0
O186 O 0.92282 0.73331 0.47708 0.0
O187 O 0.91628 0.71175 0.55115 0.0
C188 C 0.93133 0.72316 0.51993 0.0
C189 C 0.86148 0.67817 0.63848 0.0
C190 C 0.86783 0.67672 0.43981 0.0
C191 C 0.84461 0.74633 0.52964 0.0
O192 O 0.8371 0.72523 0.54428 0.0
O193 O 0.86639 0.74914 0.51277 0.0
O194 O 0.84188 0.67407 0.61107 0.0
O195 O 0.87911 0.68991 0.61536 0.0
O196 O 0.31613 0.88641 0.44523 0.0
Cd197 Cd 0.29182 0.89281 0.50716 0.0
Cd198 Cd 0.32397 0.86414 0.55971 0.0
O199 O 0.34532 0.86828 0.49158 0.0
O200 O 0.27512 0.92437 0.48852 0.0
O201 O 0.29829 0.91965 0.56083 0.0
C202 C 0.28516 0.93379 0.53078 0.0
C203 C 0.33866 0.86897 0.64754 0.0
C204 C 0.33728 0.87675 0.44737 0.0
C205 C 0.27318 0.84381 0.53879 0.0
O206 O 0.2952 0.83979 0.55269 0.0
O207 O 0.26677 0.86505 0.52252 0.0
O208 O 0.34512 0.85046 0.61817 0.0
O209 O 0.3249 0.88554 0.62592 0.0
O210 O 0.12388 0.31716 0.43732 0.0
Cd211 Cd 0.1136 0.2929 0.49685 0.0
Cd212 Cd 0.14766 0.32078 0.5535 0.0
O213 O 0.14704 0.34213 0.48525 0.0
O214 O 0.08259 0.27888 0.46799 0.0
O215 O 0.08453 0.3003 0.54381 0.0
C216 C 0.07154 0.28874 0.50844 0.0
C217 C 0.14986 0.34045 0.6374 0.0
C218 C 0.13699 0.3364 0.44093 0.0
C219 C 0.1584 0.26651 0.53271 0.0
O220 O 0.16592 0.28753 0.54827 0.0
O221 O 0.13698 0.26396 0.51358 0.0
O222 O 0.16795 0.34063 0.60431 0.0
O223 O 0.13003 0.32944 0.62252 0.0
H224 H 0.22667 0.55135 0.11099 0.0
H225 H 0.23622 0.54912 0.93913 0.0
H226 H 0.23602 0.50413 0.9405 0.0
H227 H 0.23159 0.46522 0.99038 0.0
H228 H 0.2264 0.46732 0.16309 0.0
H229 H 0.22653 0.51236 0.16183 0.0
C230 C 0.22888 0.54094 0.07403 0.0
C231 C 0.23131 0.55345 0.02505 0.0
C232 C 0.22946 0.51504 0.07528 0.0
C233 C 0.23444 0.53984 0.97739 0.0
C234 C 0.2342 0.51412 0.97808 0.0
C235 C 0.23065 0.47561 0.02763 0.0
C236 C 0.22881 0.46309 0.07667 0.0
C237 C 0.2315 0.5015 0.02672 0.0
C238 C 0.2279 0.47665 0.12484 0.0
C239 C 0.22788 0.50238 0.12414 0.0
H240 H 0.46088 0.22319 0.0916 0.0
H241 H 0.46658 0.22664 0.91903 0.0
H242 H 0.51118 0.22546 0.9251 0.0
H243 H 0.54871 0.22299 0.97963 0.0
H244 H 0.54304 0.22338 0.15239 0.0
H245 H 0.49844 0.22357 0.14627 0.0
C246 C 0.47195 0.22372 0.05544 0.0
C247 C 0.46054 0.22486 1.00499 0.0
C248 C 0.4976 0.22372 0.05929 0.0
C249 C 0.47501 0.22585 0.95837 0.0
C250 C 0.50049 0.2251 0.96177 0.0
C251 C 0.53764 0.22314 1.01581 0.0
C252 C 0.54905 0.22302 0.06632 0.0
C253 C 0.512 0.22395 1.01201 0.0
C254 C 0.53461 0.22354 0.11302 0.0
C255 C 0.50911 0.22358 0.10958 0.0
H256 H 0.81597 0.4674 0.02121 0.0
H257 H 0.739 0.45792 0.05129 0.0
H258 H 0.73424 0.5025 0.0643 0.0
H259 H 0.75227 0.54418 0.06666 0.0
H260 H 0.82839 0.55373 0.02646 0.0
H261 H 0.83328 0.50917 1.01713 0.0
C262 C 0.79824 0.4752 0.03101 0.0
C263 C 0.77792 0.45966 0.03637 0.0
C264 C 0.79552 0.5008 0.03602 0.0
C265 C 0.75486 0.46974 0.04759 0.0
C266 C 0.75217 0.49514 0.05485 0.0
C267 C 0.76986 0.53644 0.05563 0.0
C268 C 0.78997 0.5521 0.04746 0.0
C269 C 0.77238 0.51086 0.04902 0.0
C270 C 0.81263 0.54198 0.03262 0.0
C271 C 0.81547 0.51653 0.0276 0.0
H272 H 0.55192 0.79034 0.10068 0.0
H273 H 0.54601 0.78438 0.92839 0.0
H274 H 0.50142 0.78375 0.93507 0.0
H275 H 0.46393 0.7863 0.98996 0.0
H276 H 0.46994 0.78852 0.16259 0.0
H277 H 0.51453 0.78914 0.15591 0.0
C278 C 0.54081 0.78875 0.06473 0.0
C279 C 0.55215 0.78756 1.01416 0.0
C280 C 0.5152 0.78781 0.06894 0.0
C281 C 0.53765 0.78523 0.96782 0.0
C282 C 0.51216 0.78498 0.97157 0.0
C283 C 0.47508 0.78682 0.02599 0.0
C284 C 0.46377 0.78755 0.07662 0.0
C285 C 0.50072 0.78649 0.02189 0.0
C286 C 0.47831 0.78789 0.12315 0.0
C287 C 0.50378 0.78832 0.11937 0.0
H288 H 0.75528 0.04371 0.51844 0.0
H289 H 0.67942 0.0547 0.5595 0.0
H290 H 0.67391 0.01026 0.56942 0.0
H291 H 0.69056 0.96814 0.56471 0.0
H292 H 0.76726 0.95735 0.53312 0.0
H293 H 0.77267 1.00183 0.52064 0.0
C294 C 0.73761 0.03633 0.5299 0.0
C295 C 0.71775 0.05235 0.53803 0.0
C296 C 0.73473 0.01083 0.53664 0.0
C297 C 0.695 0.04268 0.55338 0.0
C298 C 0.6918 0.01729 0.55869 0.0
C299 C 0.70838 0.97564 0.55475 0.0
C300 C 0.72842 0.95975 0.54875 0.0
C301 C 0.71148 1.00119 0.54996 0.0
C302 C 0.7516 0.96944 0.53731 0.0
C303 C 0.75467 0.99478 0.53036 0.0
H304 H 0.9687 0.72212 0.44879 0.0
H305 H 0.9528 0.72572 0.6183 0.0
H306 H 0.9966 0.72735 0.63856 0.0
H307 H 0.03934 0.72729 0.60793 0.0
H308 H 0.05543 0.71918 0.43924 0.0
H309 H 0.0116 0.71975 0.41845 0.0
C310 C 0.9749 0.72338 0.4901 0.0
C311 C 0.95769 0.72408 0.53206 0.0
C312 C 1.00006 0.72346 0.50142 0.0
C313 C 0.96581 0.72521 0.58547 0.0
C314 C 0.99079 0.72617 0.597 0.0
C315 C 0.0332 0.72578 0.56661 0.0
C316 C 0.05045 0.7235 0.52502 0.0
C317 C 0.00807 0.72527 0.5553 0.0
C318 C 0.04238 0.72102 0.47177 0.0
C319 C 0.01738 0.72137 0.45995 0.0
H320 H 0.27984 0.04293 0.61808 0.0
H321 H 0.28422 0.05834 0.4486 0.0
H322 H 0.28323 0.01414 0.4284 0.0
H323 H 0.2826 0.97109 0.45937 0.0
H324 H 0.28307 0.9558 0.62916 0.0
H325 H 0.28061 0.99995 0.6491 0.0
C326 C 0.28035 0.03656 0.57673 0.0
C327 C 0.28183 0.05377 0.53479 0.0
C328 C 0.28072 0.01118 0.56564 0.0
C329 C 0.28302 0.04537 0.48145 0.0
C330 C 0.28244 0.02014 0.46995 0.0
C331 C 0.28192 0.97748 0.50069 0.0
C332 C 0.28273 0.96032 0.54281 0.0
C333 C 0.28148 1.00288 0.51175 0.0
C334 C 0.28239 0.96874 0.59618 0.0
C335 C 0.28099 0.99394 0.60753 0.0
H336 H 0.04363 0.28666 0.59873 0.0
H337 H 0.03929 0.28896 0.42591 0.0
H338 H 0.99465 0.28988 0.43054 0.0
H339 H 0.95674 0.29117 0.48404 0.0
H340 H 0.96097 0.28511 0.65645 0.0
H341 H 0.00561 0.28434 0.65183 0.0
C342 C 0.03284 0.28728 0.56221 0.0
C343 C 0.04463 0.28793 0.51213 0.0
C344 C 0.00716 0.2871 0.56512 0.0
C345 C 0.03054 0.28839 0.46495 0.0
C346 C 0.00504 0.28899 0.46755 0.0
C347 C 0.96749 0.28954 0.52047 0.0
C348 C 0.95566 0.28835 0.57047 0.0
C349 C 0.99314 0.28851 0.51743 0.0
C350 C 0.96971 0.28596 0.61743 0.0
C351 C 0.99523 0.28563 0.61486 0.0
H352 H 0.28862 0.3486 0.04306 0.0
H353 H 0.22845 0.29721 0.05022 0.0
H354 H 0.25677 0.2628 0.04493 0.0
H355 H 0.29826 0.24702 0.03757 0.0
H356 H 0.35899 0.29735 0.02545 0.0
H357 H 0.33088 0.33238 0.0333 0.0
C358 C 0.28178 0.32986 0.04355 0.0
C359 C 0.25643 0.32554 0.04703 0.0
C360 C 0.29824 0.30994 0.03956 0.0
C361 C 0.24783 0.30113 0.04721 0.0
C362 C 0.26402 0.28138 0.04435 0.0
C363 C 0.30543 0.26564 0.03689 0.0
C364 C 0.3307 0.26954 0.0313 0.0
C365 C 0.28921 0.28555 0.04042 0.0
C366 C 0.33959 0.29383 0.02973 0.0
C367 C 0.32353 0.31386 0.03427 0.0
H368 H 0.72158 0.34514 0.0437 0.0
H369 H 0.78221 0.2942 0.0489 0.0
H370 H 0.75393 0.25962 0.05051 0.0
H371 H 0.71224 0.24364 0.04929 0.0
H372 H 0.65115 0.29389 0.04833 0.0
H373 H 0.67936 0.32893 0.04612 0.0
C374 C 0.72859 0.32647 0.0453 0.0
C375 C 0.75401 0.32232 0.04598 0.0
C376 C 0.71216 0.30654 0.04677 0.0
C377 C 0.76276 0.298 0.04848 0.0
C378 C 0.7466 0.27815 0.04922 0.0
C379 C 0.70506 0.26225 0.04835 0.0
C380 C 0.67965 0.26616 0.04844 0.0
C381 C 0.72131 0.2822 0.04808 0.0
C382 C 0.67065 0.2904 0.04817 0.0
C383 C 0.68677 0.31043 0.04689 0.0
H384 H 0.76522 0.71591 0.04478 0.0
H385 H 0.71432 0.65549 0.03223 0.0
H386 H 0.68021 0.68462 0.0267 0.0
H387 H 0.66492 0.72752 0.02595 0.0
H388 H 0.71645 0.78732 0.04284 0.0
H389 H 0.75015 0.75815 0.04624 0.0
C390 C 0.74669 0.70906 0.04055 0.0
C391 C 0.74235 0.68357 0.03856 0.0
C392 C 0.72723 0.72584 0.03837 0.0
C393 C 0.71816 0.67504 0.03383 0.0
C394 C 0.69866 0.69169 0.03064 0.0
C395 C 0.68353 0.73413 0.03034 0.0
C396 C 0.68809 0.7596 0.03408 0.0
C397 C 0.70297 0.71716 0.03298 0.0
C398 C 0.71233 0.76784 0.04013 0.0
C399 C 0.73168 0.75117 0.04193 0.0
H400 H 0.28876 0.66867 0.05038 0.0
H401 H 0.2296 0.72106 0.03777 0.0
H402 H 0.25854 0.75496 0.04209 0.0
H403 H 0.30041 0.77002 0.04875 0.0
H404 H 0.36 0.7185 0.06481 0.0
H405 H 0.33115 0.68407 0.05982 0.0
C406 C 0.28222 0.6875 0.04865 0.0
C407 C 0.25699 0.69221 0.04364 0.0
C408 C 0.29903 0.70712 0.05165 0.0
C409 C 0.24886 0.71678 0.04178 0.0
C410 C 0.26541 0.73626 0.0441 0.0
C411 C 0.30716 0.75126 0.05097 0.0
C412 C 0.33235 0.74686 0.05677 0.0
C413 C 0.2905 0.73165 0.04885 0.0
C414 C 0.34069 0.72242 0.06031 0.0
C415 C 0.3242 0.70272 0.05742 0.0
H416 H 0.79521 0.74446 0.53067 0.0
H417 H 0.85559 0.79558 0.53065 0.0
H418 H 0.82691 0.83022 0.53354 0.0
H419 H 0.78451 0.84585 0.5371 0.0
H420 H 0.72454 0.79412 0.53313 0.0
H421 H 0.75328 0.75989 0.53052 0.0
C422 C 0.80214 0.76318 0.53149 0.0
C423 C 0.82749 0.76744 0.53093 0.0
C424 C 0.7856 0.78291 0.53226 0.0
C425 C 0.83614 0.79181 0.53112 0.0
C426 C 0.81975 0.81161 0.53283 0.0
C427 C 0.77775 0.82709 0.53555 0.0
C428 C 0.75238 0.8226 0.53552 0.0
C429 C 0.79442 0.80737 0.53352 0.0
C430 C 0.74394 0.79816 0.53307 0.0
C431 C 0.76036 0.77853 0.53175 0.0
H432 H 0.22329 0.84563 0.52775 0.0
H433 H 0.28337 0.79523 0.55202 0.0
H434 H 0.2552 0.76063 0.55202 0.0
H435 H 0.21375 0.7444 0.54553 0.0
H436 H 0.15298 0.79414 0.52487 0.0
H437 H 0.18116 0.82916 0.52291 0.0
C438 C 0.23019 0.82708 0.53305 0.0
C439 C 0.25546 0.82314 0.53985 0.0
C440 C 0.21379 0.80708 0.53353 0.0
C441 C 0.26405 0.79893 0.54692 0.0
C442 C 0.24795 0.77905 0.54678 0.0
C443 C 0.20662 0.76288 0.54028 0.0
C444 C 0.1813 0.7666 0.53504 0.0
C445 C 0.22283 0.78289 0.54009 0.0
C446 C 0.1724 0.79074 0.52897 0.0
C447 C 0.18851 0.81078 0.52785 0.0
H448 H 0.21839 0.16665 0.53829 0.0
H449 H 0.2782 0.2186 0.53818 0.0
H450 H 0.24946 0.25274 0.53762 0.0
H451 H 0.20767 0.26813 0.53697 0.0
H452 H 0.14721 0.21718 0.53211 0.0
H453 H 0.17583 0.18243 0.53486 0.0
C454 C 0.22508 0.18545 0.53816 0.0
C455 C 0.25044 0.19 0.53833 0.0
C456 C 0.20836 0.2052 0.53703 0.0
C457 C 0.25881 0.21449 0.53776 0.0
C458 C 0.24239 0.23409 0.53762 0.0
C459 C 0.20069 0.24943 0.53681 0.0
C460 C 0.17535 0.24526 0.5348 0.0
C461 C 0.21718 0.22968 0.5373 0.0
C462 C 0.16666 0.22089 0.53372 0.0
C463 C 0.18302 0.20103 0.53531 0.0
H464 H 0.84326 0.2278 0.55579 0.0
H465 H 0.79151 0.28715 0.53552 0.0
H466 H 0.75802 0.25777 0.53178 0.0
H467 H 0.74316 0.2155 0.53416 0.0
H468 H 0.79427 0.15546 0.55005 0.0
H469 H 0.8282 0.18481 0.5557 0.0
C470 C 0.82466 0.23427 0.55056 0.0
C471 C 0.81997 0.25968 0.54603 0.0
C472 C 0.80533 0.21718 0.54777 0.0
C473 C 0.79574 0.26773 0.53889 0.0
C474 C 0.7765 0.25094 0.5369 0.0
C475 C 0.7617 0.20879 0.53916 0.0
C476 C 0.76615 0.18334 0.54209 0.0
C477 C 0.78106 0.22567 0.54137 0.0
C478 C 0.79035 0.17497 0.54775 0.0
C479 C 0.80975 0.19175 0.55099 0.0
H480 H 0.11693 0.33097 0.34148 0.0
H481 H 0.17016 0.37372 0.42972 0.0
H482 H 0.18446 0.39219 0.34628 0.0
H483 H 0.18524 0.39234 0.24782 0.0
H484 H 0.13259 0.34898 0.15937 0.0
H485 H 0.11448 0.33496 0.24346 0.0
C486 C 0.13143 0.34459 0.34263 0.0
C487 C 0.14271 0.35061 0.39179 0.0
C488 C 0.13981 0.35493 0.2944 0.0
C489 C 0.16124 0.36856 0.39249 0.0
C490 C 0.16952 0.37909 0.34472 0.0
C491 C 0.16957 0.38011 0.24683 0.0
C492 C 0.16057 0.37143 0.19728 0.0
C493 C 0.15946 0.37181 0.29533 0.0
C494 C 0.14003 0.35586 0.19687 0.0
C495 C 0.12971 0.34771 0.24499 0.0
H496 H 0.69218 0.12297 0.33545 0.0
H497 H 0.63871 0.1663 0.42184 0.0
H498 H 0.61993 0.17856 0.33737 0.0
H499 H 0.62168 0.18094 0.23934 0.0
H500 H 0.67561 0.13841 0.15256 0.0
H501 H 0.69087 0.12158 0.23686 0.0
C502 C 0.67622 0.13483 0.33588 0.0
C503 C 0.66717 0.14402 0.38494 0.0
C504 C 0.66563 0.14208 0.28707 0.0
C505 C 0.64626 0.15913 0.38471 0.0
C506 C 0.6355 0.16621 0.33637 0.0
C507 C 0.63653 0.1677 0.23871 0.0
C508 C 0.64772 0.16129 0.18973 0.0
C509 C 0.6455 0.15841 0.28734 0.0
C510 C 0.66674 0.14383 0.18968 0.0
C511 C 0.67558 0.13428 0.23793 0.0
H512 H 0.88697 0.68395 0.34023 0.0
H513 H 0.83503 0.63908 0.42641 0.0
H514 H 0.81994 0.62219 0.34166 0.0
H515 H 0.8182 0.62389 0.24315 0.0
H516 H 0.86958 0.66953 0.15722 0.0
H517 H 0.88825 0.68218 0.2419 0.0
C518 C 0.8726 0.67018 0.34064 0.0
C519 C 0.86193 0.66309 0.3897 0.0
C520 C 0.8637 0.66086 0.29173 0.0
C521 C 0.84351 0.64502 0.38933 0.0
C522 C 0.83476 0.63543 0.34081 0.0
C523 C 0.83368 0.63637 0.24282 0.0
C524 C 0.8422 0.64602 0.19381 0.0
C525 C 0.84419 0.64382 0.29175 0.0
C526 C 0.86249 0.66193 0.19425 0.0
C527 C 0.87316 0.66925 0.24273 0.0
H528 H 0.32593 0.89342 0.34739 0.0
H529 H 0.37916 0.84983 0.43291 0.0
H530 H 0.39675 0.83608 0.3478 0.0
H531 H 0.39361 0.83227 0.24976 0.0
H532 H 0.33972 0.87503 0.16433 0.0
H533 H 0.32604 0.89345 0.24879 0.0
C534 C 0.34165 0.88123 0.34755 0.0
C535 C 0.35094 0.87239 0.39664 0.0
C536 C 0.35142 0.87303 0.29842 0.0
C537 C 0.3715 0.85684 0.39588 0.0
C538 C 0.38151 0.84884 0.34714 0.0
C539 C 0.3791 0.84588 0.24942 0.0
C540 C 0.36747 0.85194 0.20073 0.0
C541 C 0.37108 0.85615 0.29824 0.0
C542 C 0.34893 0.86988 0.20113 0.0
C543 C 0.341 0.88036 0.24951 0.0
H544 H 0.16684 0.64603 0.67954 0.0
H545 H 0.11076 0.69696 0.73065 0.0
H546 H 0.1179 0.68599 0.82407 0.0
H547 H 0.14297 0.66513 0.89243 0.0
H548 H 0.19933 0.61457 0.84111 0.0
H549 H 0.18895 0.62199 0.7475 0.0
C550 C 0.15589 0.65444 0.71098 0.0
C551 C 0.13849 0.67253 0.69773 0.0
C552 C 0.16026 0.64826 0.7651 0.0
C553 C 0.12446 0.68314 0.73934 0.0
C554 C 0.12854 0.67691 0.79304 0.0
C555 C 0.15269 0.6554 0.86084 0.0
C556 C 0.17211 0.63954 0.87414 0.0
C557 C 0.14684 0.65998 0.80659 0.0
C558 C 0.18445 0.6271 0.83236 0.0
C559 C 0.17857 0.63135 0.77858 0.0
H560 H 0.32011 0.12262 0.73507 0.0
H561 H 0.37457 0.16436 0.6488 0.0
H562 H 0.39208 0.17851 0.73353 0.0
H563 H 0.38872 0.18315 0.83132 0.0
H564 H 0.3338 0.14202 0.91751 0.0
H565 H 0.31991 0.12337 0.83359 0.0
C566 C 0.33607 0.13449 0.73471 0.0
C567 C 0.34573 0.14271 0.68553 0.0
C568 C 0.34583 0.1429 0.7836 0.0
C569 C 0.3666 0.15786 0.68597 0.0
C570 C 0.37658 0.16608 0.73447 0.0
C571 C 0.37392 0.16986 0.83191 0.0
C572 C 0.36207 0.16433 0.88059 0.0
C573 C 0.36583 0.15939 0.78342 0.0
C574 C 0.34316 0.14679 0.88062 0.0
C575 C 0.33513 0.13615 0.83258 0.0
H576 H 0.82064 0.39596 0.84234 0.0
H577 H 0.87419 0.35187 0.92561 0.0
H578 H 0.89256 0.33997 0.84011 0.0
H579 H 0.88994 0.33766 0.74194 0.0
H580 H 0.83621 0.38132 0.65833 0.0
H581 H 0.82171 0.39814 0.74374 0.0
C582 C 0.83656 0.38405 0.84186 0.0
C583 C 0.84572 0.37447 0.89031 0.0
C584 C 0.84692 0.37706 0.79247 0.0
C585 C 0.86662 0.35938 0.88897 0.0
C586 C 0.8771 0.35247 0.84003 0.0
C587 C 0.87533 0.35118 0.7423 0.0
C588 C 0.86389 0.35789 0.69391 0.0
C589 C 0.86687 0.36051 0.79155 0.0
C590 C 0.84526 0.37573 0.695 0.0
C591 C 0.83684 0.38524 0.74388 0.0
H592 H 0.61678 0.83678 0.8403 0.0
H593 H 0.67001 0.88128 0.92411 0.0
H594 H 0.68407 0.89829 0.83885 0.0
H595 H 0.68503 0.89603 0.74025 0.0
H596 H 0.63202 0.85109 0.65673 0.0
H597 H 0.61393 0.83902 0.74219 0.0
C598 C 0.63118 0.85052 0.84003 0.0
C599 C 0.64262 0.85741 0.8884 0.0
C600 C 0.6394 0.85997 0.79086 0.0
C601 C 0.66097 0.87554 0.88744 0.0
C602 C 0.66914 0.88517 0.83864 0.0
C603 C 0.66928 0.8839 0.74068 0.0
C604 C 0.66021 0.87412 0.69217 0.0
C605 C 0.65909 0.87681 0.79003 0.0
C606 C 0.63952 0.85875 0.69343 0.0
C607 C 0.62921 0.85174 0.74234 0.0
H608 H 0.83478 0.6435 0.69063 0.0
H609 H 0.89054 0.69851 0.71578 0.0
H610 H 0.88772 0.69262 0.81291 0.0
H611 H 0.86627 0.67493 0.89088 0.0
H612 H 0.81156 0.61886 0.86542 0.0
H613 H 0.81732 0.62184 0.76839 0.0
C614 C 0.84656 0.65393 0.71737 0.0
C615 C 0.86262 0.67163 0.6961 0.0
C616 C 0.84492 0.65037 0.77316 0.0
C617 C 0.878 0.68479 0.73114 0.0
C618 C 0.8763 0.68153 0.78673 0.0
C619 C 0.85589 0.6631 0.86409 0.0
C620 C 0.8383 0.64692 0.88533 0.0
C621 C 0.85936 0.66485 0.80824 0.0
C622 C 0.82519 0.6315 0.85017 0.0
C623 C 0.82838 0.63329 0.7946 0.0
H624 H 0.37382 0.84285 0.69992 0.0
H625 H 0.31667 0.89639 0.72587 0.0
H626 H 0.32173 0.89256 0.82296 0.0
H627 H 0.33946 0.87085 0.90038 0.0
H628 H 0.39745 0.81823 0.87474 0.0
H629 H 0.39518 0.82504 0.77784 0.0
C630 C 0.36273 0.85396 0.72682 0.0
C631 C 0.3447 0.86967 0.70562 0.0
C632 C 0.36576 0.85169 0.78273 0.0
C633 C 0.33067 0.88413 0.74103 0.0
C634 C 0.33345 0.88185 0.79664 0.0
C635 C 0.35183 0.86113 0.87362 0.0
C636 C 0.3684 0.84384 0.89471 0.0
C637 C 0.35048 0.8652 0.81793 0.0
C638 C 0.38451 0.83162 0.85959 0.0
C639 C 0.38313 0.83541 0.8041 0.0
H640 H 0.12401 0.32936 0.7276 0.0
H641 H 0.18251 0.37533 0.66927 0.0
H642 H 0.19104 0.38942 0.76063 0.0
H643 H 0.18475 0.38537 0.85801 0.0
H644 H 0.12853 0.33676 0.91683 0.0
H645 H 0.11605 0.32728 0.82481 0.0
C646 C 0.13832 0.34279 0.73485 0.0
C647 C 0.15265 0.35122 0.69178 0.0
C648 C 0.14366 0.35023 0.78778 0.0
C649 C 0.17131 0.36844 0.70182 0.0
C650 C 0.17623 0.3765 0.75408 0.0
C651 C 0.16945 0.3731 0.85064 0.0
C652 C 0.1576 0.36177 0.89412 0.0
C653 C 0.16294 0.36705 0.79753 0.0
C654 C 0.138 0.34565 0.88398 0.0
C655 C 0.13089 0.34017 0.83135 0.0
H656 H 0.62873 0.18599 0.85487 0.0
H657 H 0.68393 0.13548 0.9107 0.0
H658 H 0.69233 0.1226 0.81841 0.0
H659 H 0.6873 0.1291 0.72153 0.0
H660 H 0.63476 0.18234 0.66538 0.0
H661 H 0.6218 0.19052 0.75773 0.0
C662 C 0.64224 0.17182 0.8468 0.0
C663 C 0.65574 0.16174 0.88941 0.0
C664 C 0.6476 0.16514 0.79345 0.0
C665 C 0.6734 0.1436 0.87845 0.0
C666 C 0.67824 0.13625 0.8257 0.0
C667 C 0.67268 0.14212 0.72949 0.0
C668 C 0.66205 0.15514 0.6868 0.0
C669 C 0.66595 0.1474 0.78279 0.0
C670 C 0.64331 0.17217 0.69768 0.0
C671 C 0.63593 0.1769 0.75047 0.0
H672 H 0.84031 0.37972 0.39213 0.0
H673 H 0.89632 0.32467 0.36951 0.0
H674 H 0.89419 0.33033 0.27226 0.0
H675 H 0.87276 0.34722 0.19362 0.0
H676 H 0.81689 0.40243 0.21662 0.0
H677 H 0.82288 0.40064 0.31368 0.0
C678 C 0.85234 0.36925 0.36597 0.0
C679 C 0.86819 0.35154 0.38796 0.0
C680 C 0.8509 0.37248 0.31011 0.0
C681 C 0.88389 0.33836 0.35361 0.0
C682 C 0.88258 0.34149 0.29794 0.0
C683 C 0.86218 0.35916 0.21981 0.0
C684 C 0.84415 0.37466 0.19791 0.0
C685 C 0.8656 0.35793 0.2757 0.0
C686 C 0.83081 0.39024 0.23236 0.0
C687 C 0.83413 0.38914 0.28796 0.0
H688 H 0.66666 0.87929 0.19061 0.0
H689 H 0.61085 0.82401 0.21165 0.0
H690 H 0.61265 0.82977 0.309 0.0
H691 H 0.63374 0.84682 0.38815 0.0
H692 H 0.68945 0.90222 0.3668 0.0
H693 H 0.68377 0.90034 0.26962 0.0
C694 C 0.6546 0.86879 0.21645 0.0
C695 C 0.63891 0.851 0.19399 0.0
C696 C 0.65585 0.87208 0.27237 0.0
C697 C 0.62317 0.83776 0.22792 0.0
C698 C 0.62428 0.84095 0.28364 0.0
C699 C 0.64435 0.85878 0.36229 0.0
C700 C 0.66225 0.87437 0.38468 0.0
C701 C 0.64111 0.85749 0.30635 0.0
C702 C 0.67563 0.88997 0.35066 0.0
C703 C 0.67248 0.88882 0.29501 0.0
H704 H 0.12766 0.68403 0.3569 0.0
H705 H 0.18625 0.63636 0.40787 0.0
H706 H 0.19375 0.62411 0.31477 0.0
H707 H 0.18628 0.62983 0.21794 0.0
H708 H 0.12955 0.67965 0.1667 0.0
H709 H 0.1186 0.68789 0.26025 0.0
C710 C 0.14179 0.67064 0.34774 0.0
C711 C 0.15637 0.66117 0.38951 0.0
C712 C 0.14648 0.66415 0.29374 0.0
C713 C 0.17478 0.64402 0.37666 0.0
C714 C 0.17913 0.63703 0.3233 0.0
C715 C 0.17121 0.64212 0.22721 0.0
C716 C 0.15875 0.65407 0.18518 0.0
C717 C 0.16547 0.64738 0.28134 0.0
C718 C 0.13948 0.6702 0.19812 0.0
C719 C 0.13324 0.675 0.25172 0.0
H720 H 0.32254 0.12915 0.34709 0.0
H721 H 0.37844 0.17851 0.40521 0.0
H722 H 0.39086 0.18747 0.31304 0.0
H723 H 0.38272 0.18492 0.21596 0.0
H724 H 0.32446 0.13826 0.1584 0.0
H725 H 0.31626 0.12443 0.24986 0.0
C726 C 0.33776 0.14146 0.33954 0.0
C727 C 0.34951 0.15319 0.38283 0.0
C728 C 0.34423 0.14722 0.28638 0.0
C729 C 0.36903 0.16933 0.37248 0.0
C730 C 0.37611 0.17451 0.31979 0.0
C731 C 0.36855 0.17138 0.2234 0.0
C732 C 0.35416 0.16271 0.18056 0.0
C733 C 0.36338 0.16412 0.27638 0.0
C734 C 0.3357 0.14533 0.1908 0.0
C735 C 0.33097 0.13743 0.24311 0.0
loop_
_geom_bond_atom_site_label_1
_geom_bond_atom_site_label_2
_geom_bond_distance
_geom_bond_site_symmetry_2
_ccdc_geom_bond_type
O0 Cd1 2.223 . S
O0 C8 1.315 . S
Cd1 O0 2.223 . S
Cd1 O4 2.297 . S
Cd1 O5 2.439 . S
Cd1 O11 2.240 . S
Cd2 O3 2.240 . S
Cd2 O10 2.223 . S
Cd2 O12 2.297 1_554 S
Cd2 O13 2.439 1_554 S
O3 Cd2 2.240 . S
O3 C8 1.279 . S
O4 Cd1 2.297 . S
O4 C6 1.247 . S
O5 Cd1 2.439 . S
O5 C6 1.208 . S
C6 O4 1.247 . S
C6 O5 1.208 . S
C7 O12 1.247 . S
C7 O13 1.208 . S
C8 O0 1.315 . S
C8 O3 1.279 . S
C9 O10 1.315 . S
C9 O11 1.279 . S
O10 Cd2 2.223 . S
O10 C9 1.315 . S
O11 Cd1 2.240 . S
O11 C9 1.279 . S
O12 Cd2 2.297 1_556 S
O12 C7 1.247 . S
O13 Cd2 2.439 1_556 S
O13 C7 1.208 . S
O14 Cd15 2.223 . S
O14 C22 1.315 . S
Cd15 O14 2.223 . S
Cd15 O18 2.297 . S
Cd15 O19 2.439 . S
Cd15 O25 2.240 . S
Cd16 O17 2.240 . S
Cd16 O24 2.223 . S
Cd16 O26 2.297 1_554 S
Cd16 O27 2.439 1_554 S
O17 Cd16 2.240 . S
O17 C22 1.279 . S
O18 Cd15 2.297 . S
O18 C20 1.247 . S
O19 Cd15 2.439 . S
O19 C20 1.208 . S
C20 O18 1.247 . S
C20 O19 1.208 . S
C21 O26 1.247 . S
C21 O27 1.208 . S
C22 O14 1.315 . S
C22 O17 1.279 . S
C23 O24 1.315 . S
C23 O25 1.279 . S
O24 Cd16 2.223 . S
O24 C23 1.315 . S
O25 Cd15 2.240 . S
O25 C23 1.279 . S
O26 Cd16 2.297 1_556 S
O26 C21 1.247 . S
O27 Cd16 2.439 1_556 S
O27 C21 1.208 . S
O28 Cd29 2.223 . S
O28 C36 1.315 . S
Cd29 O28 2.223 . S
Cd29 O32 2.297 . S
Cd29 O33 2.439 . S
Cd29 O39 2.240 . S
Cd30 O31 2.240 . S
Cd30 O38 2.223 . S
Cd30 O40 2.297 1_554 S
Cd30 O41 2.439 1_554 S
O31 Cd30 2.240 . S
O31 C36 1.279 . S
O32 Cd29 2.297 . S
O32 C34 1.247 . S
O33 Cd29 2.439 . S
O33 C34 1.208 . S
C34 O32 1.247 . S
C34 O33 1.208 . S
C35 O40 1.247 . S
C35 O41 1.208 . S
C36 O28 1.315 . S
C36 O31 1.279 . S
C37 O38 1.315 . S
C37 O39 1.279 . S
O38 Cd30 2.223 . S
O38 C37 1.315 . S
O39 Cd29 2.240 . S
O39 C37 1.279 . S
O40 Cd30 2.297 1_556 S
O40 C35 1.247 . S
O41 Cd30 2.439 1_556 S
O41 C35 1.208 . S
O42 Cd43 2.223 . S
O42 C50 1.315 . S
Cd43 O42 2.223 . S
Cd43 O46 2.297 . S
Cd43 O47 2.439 . S
Cd43 O53 2.240 . S
Cd44 O45 2.240 . S
Cd44 O52 2.223 . S
Cd44 O54 2.297 1_554 S
Cd44 O55 2.439 1_554 S
O45 Cd44 2.240 . S
O45 C50 1.279 . S
O46 Cd43 2.297 . S
O46 C48 1.247 . S
O47 Cd43 2.439 . S
O47 C48 1.208 . S
C48 O46 1.247 . S
C48 O47 1.208 . S
C49 O54 1.247 . S
C49 O55 1.208 . S
C50 O42 1.315 . S
C50 O45 1.279 . S
C51 O52 1.315 . S
C51 O53 1.279 . S
O52 Cd44 2.223 . S
O52 C51 1.315 . S
O53 Cd43 2.240 . S
O53 C51 1.279 . S
O54 Cd44 2.297 1_556 S
O54 C49 1.247 . S
O55 Cd44 2.439 1_556 S
O55 C49 1.208 . S
O56 Cd57 2.223 . S
O56 C64 1.315 . S
Cd57 O56 2.223 . S
Cd57 O60 2.297 . S
Cd57 O61 2.439 1_556 S
Cd57 O67 2.240 1_556 S
Cd58 O59 2.240 1_554 S
Cd58 O66 2.223 . S
Cd58 O68 2.297 . S
Cd58 O69 2.439 . S
O59 Cd58 2.240 1_556 S
O59 C64 1.279 . S
O60 Cd57 2.297 . S
O60 C62 1.247 . S
O61 Cd57 2.439 1_554 S
O61 C62 1.208 1_554 S
C62 O60 1.247 . S
C62 O61 1.208 1_556 S
C63 O68 1.247 . S
C63 O69 1.208 . S
C64 O56 1.315 . S
C64 O59 1.279 . S
C65 O66 1.315 . S
C65 O67 1.279 . S
O66 Cd58 2.223 . S
O66 C65 1.315 . S
O67 Cd57 2.240 1_554 S
O67 C65 1.279 . S
O68 Cd58 2.297 . S
O68 C63 1.247 . S
O69 Cd58 2.439 . S
O69 C63 1.208 . S
O70 Cd71 2.223 . S
O70 C78 1.315 . S
Cd71 O70 2.223 . S
Cd71 O74 2.297 . S
Cd71 O75 2.439 1_556 S
Cd71 O81 2.240 1_556 S
Cd72 O73 2.240 1_554 S
Cd72 O80 2.223 . S
Cd72 O82 2.297 . S
Cd72 O83 2.439 . S
O73 Cd72 2.240 1_556 S
O73 C78 1.279 . S
O74 Cd71 2.297 . S
O74 C76 1.247 . S
O75 Cd71 2.439 1_554 S
O75 C76 1.208 1_554 S
C76 O74 1.247 . S
C76 O75 1.208 1_556 S
C77 O82 1.247 . S
C77 O83 1.208 . S
C78 O70 1.315 . S
C78 O73 1.279 . S
C79 O80 1.315 . S
C79 O81 1.279 . S
O80 Cd72 2.223 . S
O80 C79 1.315 . S
O81 Cd71 2.240 1_554 S
O81 C79 1.279 . S
O82 Cd72 2.297 . S
O82 C77 1.247 . S
O83 Cd72 2.439 . S
O83 C77 1.208 . S
O84 Cd85 2.223 . S
O84 C92 1.315 . S
Cd85 O84 2.223 . S
Cd85 O88 2.297 . S
Cd85 O89 2.439 1_556 S
Cd85 O95 2.240 1_556 S
Cd86 O87 2.240 1_554 S
Cd86 O94 2.223 . S
Cd86 O96 2.297 . S
Cd86 O97 2.439 . S
O87 Cd86 2.240 1_556 S
O87 C92 1.279 . S
O88 Cd85 2.297 . S
O88 C90 1.247 . S
O89 Cd85 2.439 1_554 S
O89 C90 1.208 1_554 S
C90 O88 1.247 . S
C90 O89 1.208 1_556 S
C91 O96 1.247 . S
C91 O97 1.208 . S
C92 O84 1.315 . S
C92 O87 1.279 . S
C93 O94 1.315 . S
C93 O95 1.279 . S
O94 Cd86 2.223 . S
O94 C93 1.315 . S
O95 Cd85 2.240 1_554 S
O95 C93 1.279 . S
O96 Cd86 2.297 . S
O96 C91 1.247 . S
O97 Cd86 2.439 . S
O97 C91 1.208 . S
O98 Cd99 2.223 . S
O98 C106 1.315 . S
Cd99 O98 2.223 . S
Cd99 O102 2.297 . S
Cd99 O103 2.439 1_556 S
Cd99 O109 2.240 1_556 S
Cd100 O101 2.240 1_554 S
Cd100 O108 2.223 . S
Cd100 O110 2.297 . S
Cd100 O111 2.439 . S
O101 Cd100 2.240 1_556 S
O101 C106 1.279 . S
O102 Cd99 2.297 . S
O102 C104 1.247 . S
O103 Cd99 2.439 1_554 S
O103 C104 1.208 1_554 S
C104 O102 1.247 . S
C104 O103 1.208 1_556 S
C105 O110 1.247 . S
C105 O111 1.208 . S
C106 O98 1.315 . S
C106 O101 1.279 . S
C107 O108 1.315 . S
C107 O109 1.279 . S
O108 Cd100 2.223 . S
O108 C107 1.315 . S
O109 Cd99 2.240 1_554 S
O109 C107 1.279 . S
O110 Cd100 2.297 . S
O110 C105 1.247 . S
O111 Cd100 2.439 . S
O111 C105 1.208 . S
O112 Cd113 2.223 . S
O112 C120 1.315 . S
Cd113 O112 2.223 . S
Cd113 O116 2.297 . S
Cd113 O117 2.439 . S
Cd113 O123 2.240 . S
Cd114 O115 2.240 . S
Cd114 O122 2.223 . S
Cd114 O124 2.297 . S
Cd114 O125 2.439 . S
O115 Cd114 2.240 . S
O115 C120 1.279 . S
O116 Cd113 2.297 . S
O116 C118 1.247 . S
O117 Cd113 2.439 . S
O117 C118 1.208 . S
C118 O116 1.247 . S
C118 O117 1.208 . S
C119 O124 1.247 . S
C119 O125 1.208 . S
C120 O112 1.315 . S
C120 O115 1.279 . S
C121 O122 1.315 . S
C121 O123 1.279 . S
O122 Cd114 2.223 . S
O122 C121 1.315 . S
O123 Cd113 2.240 . S
O123 C121 1.279 . S
O124 Cd114 2.297 . S
O124 C119 1.247 . S
O125 Cd114 2.439 . S
O125 C119 1.208 . S
O126 Cd127 2.223 . S
O126 C134 1.315 . S
Cd127 O126 2.223 . S
Cd127 O130 2.297 . S
Cd127 O131 2.439 . S
Cd127 O137 2.240 . S
Cd128 O129 2.240 . S
Cd128 O136 2.223 . S
Cd128 O138 2.297 . S
Cd128 O139 2.439 . S
O129 Cd128 2.240 . S
O129 C134 1.279 . S
O130 Cd127 2.297 . S
O130 C132 1.247 . S
O131 Cd127 2.439 . S
O131 C132 1.208 . S
C132 O130 1.247 . S
C132 O131 1.208 . S
C133 O138 1.247 . S
C133 O139 1.208 . S
C134 O126 1.315 . S
C134 O129 1.279 . S
C135 O136 1.315 . S
C135 O137 1.279 . S
O136 Cd128 2.223 . S
O136 C135 1.315 . S
O137 Cd127 2.240 . S
O137 C135 1.279 . S
O138 Cd128 2.297 . S
O138 C133 1.247 . S
O139 Cd128 2.439 . S
O139 C133 1.208 . S
O140 Cd141 2.223 . S
O140 C148 1.315 . S
Cd141 O140 2.223 . S
Cd141 O144 2.297 . S
Cd141 O145 2.439 . S
Cd141 O151 2.240 . S
Cd142 O143 2.240 . S
Cd142 O150 2.223 . S
Cd142 O152 2.297 . S
Cd142 O153 2.439 . S
O143 Cd142 2.240 . S
O143 C148 1.279 . S
O144 Cd141 2.297 . S
O144 C146 1.247 . S
O145 Cd141 2.439 . S
O145 C146 1.208 . S
C146 O144 1.247 . S
C146 O145 1.208 . S
C147 O152 1.247 . S
C147 O153 1.208 . S
C148 O140 1.315 . S
C148 O143 1.279 . S
C149 O150 1.315 . S
C149 O151 1.279 . S
O150 Cd142 2.223 . S
O150 C149 1.315 . S
O151 Cd141 2.240 . S
O151 C149 1.279 . S
O152 Cd142 2.297 . S
O152 C147 1.247 . S
O153 Cd142 2.439 . S
O153 C147 1.208 . S
O154 Cd155 2.223 . S
O154 C162 1.315 . S
Cd155 O154 2.223 . S
Cd155 O158 2.297 . S
Cd155 O159 2.439 . S
Cd155 O165 2.240 . S
Cd156 O157 2.240 . S
Cd156 O164 2.223 . S
Cd156 O166 2.297 . S
Cd156 O167 2.439 . S
O157 Cd156 2.240 . S
O157 C162 1.279 . S
O158 Cd155 2.297 . S
O158 C160 1.247 . S
O159 Cd155 2.439 . S
O159 C160 1.208 . S
C160 O158 1.247 . S
C160 O159 1.208 . S
C161 O166 1.247 . S
C161 O167 1.208 . S
C162 O154 1.315 . S
C162 O157 1.279 . S
C163 O164 1.315 . S
C163 O165 1.279 . S
O164 Cd156 2.223 . S
O164 C163 1.315 . S
O165 Cd155 2.240 . S
O165 C163 1.279 . S
O166 Cd156 2.297 . S
O166 C161 1.247 . S
O167 Cd156 2.439 . S
O167 C161 1.208 . S
O168 Cd169 2.223 . S
O168 C176 1.315 . S
Cd169 O168 2.223 . S
Cd169 O172 2.297 . S
Cd169 O173 2.439 . S
Cd169 O179 2.240 . S
Cd170 O171 2.240 . S
Cd170 O178 2.223 . S
Cd170 O180 2.297 . S
Cd170 O181 2.439 . S
O171 Cd170 2.240 . S
O171 C176 1.279 . S
O172 Cd169 2.297 . S
O172 C174 1.247 . S
O173 Cd169 2.439 . S
O173 C174 1.208 . S
C174 O172 1.247 . S
C174 O173 1.208 . S
C175 O180 1.247 . S
C175 O181 1.208 . S
C176 O168 1.315 . S
C176 O171 1.279 . S
C177 O178 1.315 . S
C177 O179 1.279 . S
O178 Cd170 2.223 . S
O178 C177 1.315 . S
O179 Cd169 2.240 . S
O179 C177 1.279 . S
O180 Cd170 2.297 . S
O180 C175 1.247 . S
O181 Cd170 2.439 . S
O181 C175 1.208 . S
O182 Cd183 2.223 . S
O182 C190 1.315 . S
Cd183 O182 2.223 . S
Cd183 O186 2.297 . S
Cd183 O187 2.439 . S
Cd183 O193 2.240 . S
Cd184 O185 2.240 . S
Cd184 O192 2.223 . S
Cd184 O194 2.297 . S
Cd184 O195 2.439 . S
O185 Cd184 2.240 . S
O185 C190 1.279 . S
O186 Cd183 2.297 . S
O186 C188 1.247 . S
O187 Cd183 2.439 . S
O187 C188 1.208 . S
C188 O186 1.247 . S
C188 O187 1.208 . S
C189 O194 1.247 . S
C189 O195 1.208 . S
C190 O182 1.315 . S
C190 O185 1.279 . S
C191 O192 1.315 . S
C191 O193 1.279 . S
O192 Cd184 2.223 . S
O192 C191 1.315 . S
O193 Cd183 2.240 . S
O193 C191 1.279 . S
O194 Cd184 2.297 . S
O194 C189 1.247 . S
O195 Cd184 2.439 . S
O195 C189 1.208 . S
O196 Cd197 2.223 . S
O196 C204 1.315 . S
Cd197 O196 2.223 . S
Cd197 O200 2.297 . S
Cd197 O201 2.439 . S
Cd197 O207 2.240 . S
Cd198 O199 2.240 . S
Cd198 O206 2.223 . S
Cd198 O208 2.297 . S
Cd198 O209 2.439 . S
O199 Cd198 2.240 . S
O199 C204 1.279 . S
O200 Cd197 2.297 . S
O200 C202 1.247 . S
O201 Cd197 2.439 . S
O201 C202 1.208 . S
C202 O200 1.247 . S
C202 O201 1.208 . S
C203 O208 1.247 . S
C203 O209 1.208 . S
C204 O196 1.315 . S
C204 O199 1.279 . S
C205 O206 1.315 . S
C205 O207 1.279 . S
O206 Cd198 2.223 . S
O206 C205 1.315 . S
O207 Cd197 2.240 . S
O207 C205 1.279 . S
O208 Cd198 2.297 . S
O208 C203 1.247 . S
O209 Cd198 2.439 . S
O209 C203 1.208 . S
O210 Cd211 2.223 . S
O210 C218 1.315 . S
Cd211 O210 2.223 . S
Cd211 O214 2.297 . S
Cd211 O215 2.439 . S
Cd211 O221 2.240 . S
Cd212 O213 2.240 . S
Cd212 O220 2.223 . S
Cd212 O222 2.297 . S
Cd212 O223 2.439 . S
O213 Cd212 2.240 . S
O213 C218 1.279 . S
O214 Cd211 2.297 . S
O214 C216 1.247 . S
O215 Cd211 2.439 . S
O215 C216 1.208 . S
C216 O214 1.247 . S
C216 O215 1.208 . S
C217 O222 1.247 . S
C217 O223 1.208 . S
C218 O210 1.315 . S
C218 O213 1.279 . S
C219 O220 1.315 . S
C219 O221 1.279 . S
O220 Cd212 2.223 . S
O220 C219 1.315 . S
O221 Cd211 2.240 . S
O221 C219 1.279 . S
O222 Cd212 2.297 . S
O222 C217 1.247 . S
O223 Cd212 2.439 . S
O223 C217 1.208 . S
H224 C230 0.930 . S
H225 C233 0.930 . S
H226 C234 0.930 . S
H227 C235 0.930 1_556 S
H228 C238 0.930 . S
H229 C239 0.930 . S
C230 H224 0.930 . S
C230 C231 1.351 1_554 S
C230 C232 1.415 . S
C231 C230 1.351 1_556 S
C231 C233 1.423 . S
C232 C230 1.415 . S
C232 C237 1.424 1_554 S
C232 C239 1.409 . S
C233 H225 0.930 . S
C233 C231 1.423 . S
C233 C234 1.362 . S
C234 H226 0.930 . S
C234 C233 1.362 . S
C234 C237 1.411 . S
C235 H227 0.930 1_554 S
C235 C236 1.355 . S
C235 C237 1.415 1_554 S
C236 C235 1.355 . S
C236 C238 1.419 . S
C237 C232 1.424 1_556 S
C237 C234 1.411 . S
C237 C235 1.415 1_556 S
C238 H228 0.930 . S
C238 C236 1.419 . S
C238 C239 1.362 . S
C239 H229 0.930 . S
C239 C232 1.409 . S
C239 C238 1.362 . S
H240 C246 0.930 . S
H241 C249 0.930 . S
H242 C250 0.930 . S
H243 C251 0.930 . S
H244 C254 0.930 . S
H245 C255 0.930 . S
C246 H240 0.930 . S
C246 C247 1.355 1_554 S
C246 C248 1.415 . S
C247 C246 1.355 1_556 S
C247 C249 1.419 . S
C248 C246 1.415 . S
C248 C253 1.425 1_554 S
C248 C255 1.409 . S
C249 H241 0.930 . S
C249 C247 1.419 . S
C249 C250 1.362 . S
C250 H242 0.930 . S
C250 C249 1.362 . S
C250 C253 1.409 . S
C251 H243 0.930 . S
C251 C252 1.355 1_556 S
C251 C253 1.415 . S
C252 C251 1.355 1_554 S
C252 C254 1.419 . S
C253 C248 1.425 1_556 S
C253 C250 1.409 . S
C253 C251 1.415 . S
C254 H244 0.930 . S
C254 C252 1.419 . S
C254 C255 1.362 . S
C255 H245 0.930 . S
C255 C248 1.409 . S
C255 C254 1.362 . S
H256 C262 0.930 . S
H257 C265 0.930 . S
H258 C266 0.930 . S
H259 C267 0.930 . S
H260 C270 0.930 . S
H261 C271 0.930 . S
C262 H256 0.930 . S
C262 C263 1.355 . S
C262 C264 1.415 . S
C263 C262 1.355 . S
C263 C265 1.419 1_554 S
C264 C262 1.415 . S
C264 C269 1.425 . S
C264 C271 1.409 . S
C265 H257 0.930 . S
C265 C263 1.419 1_556 S
C265 C266 1.362 . S
C266 H258 0.930 . S
C266 C265 1.362 . S
C266 C269 1.409 1_556 S
C267 H259 0.930 . S
C267 C268 1.355 . S
C267 C269 1.415 . S
C268 C267 1.355 . S
C268 C270 1.419 . S
C269 C264 1.425 . S
C269 C266 1.409 1_554 S
C269 C267 1.415 . S
C270 H260 0.930 . S
C270 C268 1.419 . S
C270 C271 1.362 . S
C271 H261 0.930 . S
C271 C264 1.409 . S
C271 C270 1.362 . S
H272 C278 0.930 . S
H273 C281 0.930 . S
H274 C282 0.930 . S
H275 C283 0.930 . S
H276 C286 0.930 . S
H277 C287 0.930 . S
C278 H272 0.930 . S
C278 C279 1.355 1_554 S
C278 C280 1.415 . S
C279 C278 1.355 1_556 S
C279 C281 1.419 . S
C280 C278 1.415 . S
C280 C285 1.425 1_554 S
C280 C287 1.409 . S
C281 H273 0.930 . S
C281 C279 1.419 . S
C281 C282 1.362 . S
C282 H274 0.930 . S
C282 C281 1.362 . S
C282 C285 1.409 . S
C283 H275 0.930 . S
C283 C284 1.355 1_556 S
C283 C285 1.415 . S
C284 C283 1.355 1_554 S
C284 C286 1.419 . S
C285 C280 1.425 1_556 S
C285 C282 1.409 . S
C285 C283 1.415 . S
C286 H276 0.930 . S
C286 C284 1.419 . S
C286 C287 1.362 . S
C287 H277 0.930 . S
C287 C280 1.409 . S
C287 C286 1.362 . S
H288 C294 0.930 . S
H289 C297 0.930 . S
H290 C298 0.930 . S
H291 C299 0.930 . S
H292 C302 0.930 . S
H293 C303 0.930 . S
C294 H288 0.930 . S
C294 C295 1.355 . S
C294 C296 1.415 . S
C295 C294 1.355 . S
C295 C297 1.419 . S
C296 C294 1.415 . S
C296 C301 1.425 1_545 S
C296 C303 1.409 1_545 S
C297 H289 0.930 . S
C297 C295 1.419 . S
C297 C298 1.362 . S
C298 H290 0.930 . S
C298 C297 1.362 . S
C298 C301 1.409 1_545 S
C299 H291 0.930 . S
C299 C300 1.355 . S
C299 C301 1.415 . S
C300 C299 1.355 . S
C300 C302 1.419 . S
C301 C296 1.425 1_565 S
C301 C298 1.409 1_565 S
C301 C299 1.415 . S
C302 H292 0.930 . S
C302 C300 1.419 . S
C302 C303 1.362 . S
C303 H293 0.930 . S
C303 C296 1.409 1_565 S
C303 C302 1.362 . S
H304 C310 0.930 . S
H305 C313 0.930 . S
H306 C314 0.930 . S
H307 C315 0.930 . S
H308 C318 0.930 . S
H309 C319 0.930 . S
C310 H304 0.930 . S
C310 C311 1.355 . S
C310 C312 1.415 . S
C311 C310 1.355 . S
C311 C313 1.419 . S
C312 C310 1.415 . S
C312 C317 1.425 1_655 S
C312 C319 1.409 1_655 S
C313 H305 0.930 . S
C313 C311 1.419 . S
C313 C314 1.362 . S
C314 H306 0.930 . S
C314 C313 1.362 . S
C314 C317 1.409 1_655 S
C315 H307 0.930 . S
C315 C316 1.355 . S
C315 C317 1.415 . S
C316 C315 1.355 . S
C316 C318 1.419 . S
C317 C312 1.425 1_455 S
C317 C314 1.409 1_455 S
C317 C315 1.415 . S
C318 H308 0.930 . S
C318 C316 1.419 . S
C318 C319 1.362 . S
C319 H309 0.930 . S
C319 C312 1.409 1_455 S
C319 C318 1.362 . S
H320 C326 0.930 . S
H321 C329 0.930 . S
H322 C330 0.930 . S
H323 C331 0.930 . S
H324 C334 0.930 . S
H325 C335 0.930 . S
C326 H320 0.930 . S
C326 C327 1.355 . S
C326 C328 1.415 . S
C327 C326 1.355 . S
C327 C329 1.419 . S
C328 C326 1.415 . S
C328 C333 1.425 1_545 S
C328 C335 1.409 1_545 S
C329 H321 0.930 . S
C329 C327 1.419 . S
C329 C330 1.362 . S
C330 H322 0.930 . S
C330 C329 1.362 . S
C330 C333 1.409 1_545 S
C331 H323 0.930 . S
C331 C332 1.355 . S
C331 C333 1.415 . S
C332 C331 1.355 . S
C332 C334 1.419 . S
C333 C328 1.425 1_565 S
C333 C330 1.409 1_565 S
C333 C331 1.415 . S
C334 H324 0.930 . S
C334 C332 1.419 . S
C334 C335 1.362 . S
C335 H325 0.930 . S
C335 C328 1.409 1_565 S
C335 C334 1.362 . S
H336 C342 0.930 . S
H337 C345 0.930 . S
H338 C346 0.930 . S
H339 C347 0.930 . S
H340 C350 0.930 . S
H341 C351 0.930 . S
C342 H336 0.930 . S
C342 C343 1.355 . S
C342 C344 1.415 . S
C343 C342 1.355 . S
C343 C345 1.419 . S
C344 C342 1.415 . S
C344 C349 1.425 1_455 S
C344 C351 1.409 1_455 S
C345 H337 0.930 . S
C345 C343 1.419 . S
C345 C346 1.362 . S
C346 H338 0.930 . S
C346 C345 1.362 . S
C346 C349 1.409 1_455 S
C347 H339 0.930 . S
C347 C348 1.355 . S
C347 C349 1.415 . S
C348 C347 1.355 . S
C348 C350 1.419 . S
C349 C344 1.425 1_655 S
C349 C346 1.409 1_655 S
C349 C347 1.415 . S
C350 H340 0.930 . S
C350 C348 1.419 . S
C350 C351 1.362 . S
C351 H341 0.930 . S
C351 C344 1.409 1_655 S
C351 C350 1.362 . S
H352 C358 0.930 . S
H353 C361 0.930 . S
H354 C362 0.930 . S
H355 C363 0.930 . S
H356 C366 0.933 . S
H357 C367 0.930 . S
C358 H352 0.930 . S
C358 C359 1.355 . S
C358 C360 1.415 . S
C359 C358 1.355 . S
C359 C361 1.419 . S
C360 C358 1.415 . S
C360 C365 1.425 . S
C360 C367 1.409 . S
C361 H353 0.930 . S
C361 C359 1.419 . S
C361 C362 1.362 . S
C362 H354 0.930 . S
C362 C361 1.362 . S
C362 C365 1.409 . S
C363 H355 0.930 . S
C363 C364 1.355 . S
C363 C365 1.415 . S
C364 C363 1.355 . S
C364 C366 1.419 . S
C365 C360 1.425 . S
C365 C362 1.409 . S
C365 C363 1.415 . S
C366 H356 0.933 . S
C366 C364 1.419 . S
C366 C367 1.362 . S
C367 H357 0.930 . S
C367 C360 1.409 . S
C367 C366 1.362 . S
H368 C374 0.930 . S
H369 C377 0.930 . S
H370 C378 0.930 . S
H371 C379 0.930 . S
H372 C382 0.930 . S
H373 C383 0.930 . S
C374 H368 0.930 . S
C374 C375 1.355 1_556 S
C374 C376 1.415 . S
C375 C374 1.355 1_554 S
C375 C377 1.419 . S
C376 C374 1.415 . S
C376 C381 1.425 1_556 S
C376 C383 1.409 . S
C377 H369 0.930 . S
C377 C375 1.419 . S
C377 C378 1.362 . S
C378 H370 0.930 . S
C378 C377 1.362 . S
C378 C381 1.409 . S
C379 H371 0.930 . S
C379 C380 1.355 . S
C379 C381 1.415 . S
C380 C379 1.355 . S
C380 C382 1.419 1_554 S
C381 C376 1.425 1_554 S
C381 C378 1.409 . S
C381 C379 1.415 . S
C382 H372 0.930 . S
C382 C380 1.419 1_556 S
C382 C383 1.362 . S
C383 H373 0.930 . S
C383 C376 1.409 . S
C383 C382 1.362 . S
H384 C390 0.930 . S
H385 C393 0.930 . S
H386 C394 0.930 . S
H387 C395 0.930 . S
H388 C398 0.930 . S
H389 C399 0.930 . S
C390 H384 0.930 . S
C390 C391 1.355 1_556 S
C390 C392 1.415 . S
C391 C390 1.355 1_554 S
C391 C393 1.419 . S
C392 C390 1.415 . S
C392 C397 1.425 1_556 S
C392 C399 1.409 . S
C393 H385 0.930 . S
C393 C391 1.419 . S
C393 C394 1.362 . S
C394 H386 0.930 . S
C394 C393 1.362 . S
C394 C397 1.409 . S
C395 H387 0.930 . S
C395 C396 1.355 . S
C395 C397 1.415 . S
C396 C395 1.355 . S
C396 C398 1.419 1_554 S
C397 C392 1.425 1_554 S
C397 C394 1.409 . S
C397 C395 1.415 . S
C398 H388 0.930 . S
C398 C396 1.419 1_556 S
C398 C399 1.362 . S
C399 H389 0.930 . S
C399 C392 1.409 . S
C399 C398 1.362 . S
H400 C406 0.930 . S
H401 C409 0.930 . S
H402 C410 0.930 . S
H403 C411 0.930 1_556 S
H404 C414 0.930 . S
H405 C415 0.930 . S
C406 H400 0.930 . S
C406 C407 1.355 . S
C406 C408 1.415 . S
C407 C406 1.355 . S
C407 C409 1.419 1_554 S
C408 C406 1.415 . S
C408 C413 1.425 . S
C408 C415 1.409 . S
C409 H401 0.930 . S
C409 C407 1.419 1_556 S
C409 C410 1.362 . S
C410 H402 0.930 . S
C410 C409 1.362 . S
C410 C413 1.409 1_556 S
C411 H403 0.930 1_554 S
C411 C412 1.355 . S
C411 C413 1.415 . S
C412 C411 1.355 . S
C412 C414 1.419 . S
C413 C408 1.425 . S
C413 C410 1.409 1_554 S
C413 C411 1.415 . S
C414 H404 0.930 . S
C414 C412 1.419 . S
C414 C415 1.362 . S
C415 H405 0.930 . S
C415 C408 1.409 . S
C415 C414 1.362 . S
H416 C422 0.930 . S
H417 C425 0.930 . S
H418 C426 0.930 . S
H419 C427 0.930 . S
H420 C430 0.930 . S
H421 C431 0.930 . S
C422 H416 0.930 . S
C422 C423 1.355 . S
C422 C424 1.415 . S
C423 C422 1.355 . S
C423 C425 1.419 . S
C424 C422 1.415 . S
C424 C429 1.425 . S
C424 C431 1.409 . S
C425 H417 0.930 . S
C425 C423 1.419 . S
C425 C426 1.362 . S
C426 H418 0.930 . S
C426 C425 1.362 . S
C426 C429 1.409 . S
C427 H419 0.930 . S
C427 C428 1.355 . S
C427 C429 1.415 . S
C428 C427 1.355 . S
C428 C430 1.419 . S
C429 C424 1.425 . S
C429 C426 1.409 . S
C429 C427 1.415 . S
C430 H420 0.930 . S
C430 C428 1.419 . S
C430 C431 1.362 . S
C431 H421 0.930 . S
C431 C424 1.409 . S
C431 C430 1.362 . S
H432 C438 0.930 . S
H433 C441 0.930 . S
H434 C442 0.930 . S
H435 C443 0.930 . S
H436 C446 0.930 . S
H437 C447 0.930 . S
C438 H432 0.930 . S
C438 C439 1.355 . S
C438 C440 1.415 . S
C439 C438 1.355 . S
C439 C441 1.419 . S
C440 C438 1.415 . S
C440 C445 1.425 . S
C440 C447 1.409 . S
C441 H433 0.930 . S
C441 C439 1.419 . S
C441 C442 1.362 . S
C442 H434 0.930 . S
C442 C441 1.362 . S
C442 C445 1.409 . S
C443 H435 0.930 . S
C443 C444 1.355 . S
C443 C445 1.415 . S
C444 C443 1.355 . S
C444 C446 1.419 . S
C445 C440 1.425 . S
C445 C442 1.409 . S
C445 C443 1.415 . S
C446 H436 0.930 . S
C446 C444 1.419 . S
C446 C447 1.362 . S
C447 H437 0.930 . S
C447 C440 1.409 . S
C447 C446 1.362 . S
H448 C454 0.930 . S
H449 C457 0.930 . S
H450 C458 0.930 . S
H451 C459 0.930 . S
H452 C462 0.930 . S
H453 C463 0.930 . S
C454 H448 0.930 . S
C454 C455 1.355 . S
C454 C456 1.415 . S
C455 C454 1.355 . S
C455 C457 1.419 . S
C456 C454 1.415 . S
C456 C461 1.425 . S
C456 C463 1.409 . S
C457 H449 0.930 . S
C457 C455 1.419 . S
C457 C458 1.362 . S
C458 H450 0.930 . S
C458 C457 1.362 . S
C458 C461 1.409 . S
C459 H451 0.930 . S
C459 C460 1.355 . S
C459 C461 1.415 . S
C460 C459 1.355 . S
C460 C462 1.419 . S
C461 C456 1.425 . S
C461 C458 1.409 . S
C461 C459 1.415 . S
C462 H452 0.930 . S
C462 C460 1.419 . S
C462 C463 1.362 . S
C463 H453 0.930 . S
C463 C456 1.409 . S
C463 C462 1.362 . S
H464 C470 0.930 . S
H465 C473 0.930 . S
H466 C474 0.930 . S
H467 C475 0.930 . S
H468 C478 0.930 . S
H469 C479 0.930 . S
C470 H464 0.930 . S
C470 C471 1.355 . S
C470 C472 1.415 . S
C471 C470 1.355 . S
C471 C473 1.419 . S
C472 C470 1.415 . S
C472 C477 1.425 . S
C472 C479 1.409 . S
C473 H465 0.930 . S
C473 C471 1.419 . S
C473 C474 1.362 . S
C474 H466 0.930 . S
C474 C473 1.362 . S
C474 C477 1.409 . S
C475 H467 0.930 . S
C475 C476 1.355 . S
C475 C477 1.415 . S
C476 C475 1.355 . S
C476 C478 1.419 . S
C477 C472 1.425 . S
C477 C474 1.409 . S
C477 C475 1.415 . S
C478 H468 0.930 . S
C478 C476 1.419 . S
C478 C479 1.362 . S
C479 H469 0.930 . S
C479 C472 1.409 . S
C479 C478 1.362 . S
H480 C486 0.930 . S
H481 C489 0.930 . S
H482 C490 0.930 . S
H483 C491 0.930 . S
H484 C494 0.930 . S
H485 C495 0.930 . S
C486 H480 0.930 . S
C486 C487 1.355 . S
C486 C488 1.415 . S
C487 C486 1.355 . S
C487 C489 1.419 . S
C488 C486 1.415 . S
C488 C493 1.425 . S
C488 C495 1.409 . S
C489 H481 0.930 . S
C489 C487 1.419 . S
C489 C490 1.362 . S
C490 H482 0.930 . S
C490 C489 1.362 . S
C490 C493 1.409 . S
C491 H483 0.930 . S
C491 C492 1.355 . S
C491 C493 1.415 . S
C492 C491 1.355 . S
C492 C494 1.419 . S
C493 C488 1.425 . S
C493 C490 1.409 . S
C493 C491 1.415 . S
C494 H484 0.930 . S
C494 C492 1.419 . S
C494 C495 1.362 . S
C495 H485 0.930 . S
C495 C488 1.409 . S
C495 C494 1.362 . S
H496 C502 0.930 . S
H497 C505 0.930 . S
H498 C506 0.930 . S
H499 C507 0.930 . S
H500 C510 0.930 . S
H501 C511 0.930 . S
C502 H496 0.930 . S
C502 C503 1.355 . S
C502 C504 1.415 . S
C503 C502 1.355 . S
C503 C505 1.419 . S
C504 C502 1.415 . S
C504 C509 1.425 . S
C504 C511 1.409 . S
C505 H497 0.930 . S
C505 C503 1.419 . S
C505 C506 1.362 . S
C506 H498 0.930 . S
C506 C505 1.362 . S
C506 C509 1.409 . S
C507 H499 0.930 . S
C507 C508 1.355 . S
C507 C509 1.415 . S
C508 C507 1.355 . S
C508 C510 1.419 . S
C509 C504 1.425 . S
C509 C506 1.409 . S
C509 C507 1.415 . S
C510 H500 0.930 . S
C510 C508 1.419 . S
C510 C511 1.362 . S
C511 H501 0.930 . S
C511 C504 1.409 . S
C511 C510 1.362 . S
H512 C518 0.930 . S
H513 C521 0.930 . S
H514 C522 0.930 . S
H515 C523 0.930 . S
H516 C526 0.930 . S
H517 C527 0.930 . S
C518 H512 0.930 . S
C518 C519 1.355 . S
C518 C520 1.415 . S
C519 C518 1.355 . S
C519 C521 1.419 . S
C520 C518 1.415 . S
C520 C525 1.425 . S
C520 C527 1.409 . S
C521 H513 0.930 . S
C521 C519 1.419 . S
C521 C522 1.362 . S
C522 H514 0.930 . S
C522 C521 1.362 . S
C522 C525 1.409 . S
C523 H515 0.930 . S
C523 C524 1.355 . S
C523 C525 1.415 . S
C524 C523 1.355 . S
C524 C526 1.419 . S
C525 C520 1.425 . S
C525 C522 1.409 . S
C525 C523 1.415 . S
C526 H516 0.930 . S
C526 C524 1.419 . S
C526 C527 1.362 . S
C527 H517 0.930 . S
C527 C520 1.409 . S
C527 C526 1.362 . S
H528 C534 0.930 . S
H529 C537 0.930 . S
H530 C538 0.930 . S
H531 C539 0.930 . S
H532 C542 0.930 . S
H533 C543 0.930 . S
C534 H528 0.930 . S
C534 C535 1.355 . S
C534 C536 1.415 . S
C535 C534 1.355 . S
C535 C537 1.419 . S
C536 C534 1.415 . S
C536 C541 1.425 . S
C536 C543 1.409 . S
C537 H529 0.930 . S
C537 C535 1.419 . S
C537 C538 1.362 . S
C538 H530 0.930 . S
C538 C537 1.362 . S
C538 C541 1.409 . S
C539 H531 0.930 . S
C539 C540 1.355 . S
C539 C541 1.415 . S
C540 C539 1.355 . S
C540 C542 1.419 . S
C541 C536 1.425 . S
C541 C538 1.409 . S
C541 C539 1.415 . S
C542 H532 0.930 . S
C542 C540 1.419 . S
C542 C543 1.362 . S
C543 H533 0.930 . S
C543 C536 1.409 . S
C543 C542 1.362 . S
H544 C550 0.930 . S
H545 C553 0.930 . S
H546 C554 0.930 . S
H547 C555 0.930 . S
H548 C558 0.930 . S
H549 C559 0.930 . S
C550 H544 0.930 . S
C550 C551 1.355 . S
C550 C552 1.415 . S
C551 C550 1.355 . S
C551 C553 1.419 . S
C552 C550 1.415 . S
C552 C557 1.425 . S
C552 C559 1.409 . S
C553 H545 0.930 . S
C553 C551 1.419 . S
C553 C554 1.362 . S
C554 H546 0.930 . S
C554 C553 1.362 . S
C554 C557 1.409 . S
C555 H547 0.930 . S
C555 C556 1.355 . S
C555 C557 1.415 . S
C556 C555 1.355 . S
C556 C558 1.419 . S
C557 C552 1.425 . S
C557 C554 1.409 . S
C557 C555 1.415 . S
C558 H548 0.930 . S
C558 C556 1.419 . S
C558 C559 1.362 . S
C559 H549 0.930 . S
C559 C552 1.409 . S
C559 C558 1.362 . S
H560 C566 0.930 . S
H561 C569 0.930 . S
H562 C570 0.930 . S
H563 C571 0.930 . S
H564 C574 0.930 . S
H565 C575 0.930 . S
C566 H560 0.930 . S
C566 C567 1.355 . S
C566 C568 1.415 . S
C567 C566 1.355 . S
C567 C569 1.419 . S
C568 C566 1.415 . S
C568 C573 1.425 . S
C568 C575 1.409 . S
C569 H561 0.930 . S
C569 C567 1.419 . S
C569 C570 1.362 . S
C570 H562 0.930 . S
C570 C569 1.362 . S
C570 C573 1.409 . S
C571 H563 0.930 . S
C571 C572 1.355 . S
C571 C573 1.415 . S
C572 C571 1.355 . S
C572 C574 1.419 . S
C573 C568 1.425 . S
C573 C570 1.409 . S
C573 C571 1.415 . S
C574 H564 0.930 . S
C574 C572 1.419 . S
C574 C575 1.362 . S
C575 H565 0.930 . S
C575 C568 1.409 . S
C575 C574 1.362 . S
H576 C582 0.930 . S
H577 C585 0.930 . S
H578 C586 0.930 . S
H579 C587 0.930 . S
H580 C590 0.930 . S
H581 C591 0.930 . S
C582 H576 0.930 . S
C582 C583 1.355 . S
C582 C584 1.415 . S
C583 C582 1.355 . S
C583 C585 1.419 . S
C584 C582 1.415 . S
C584 C589 1.425 . S
C584 C591 1.409 . S
C585 H577 0.930 . S
C585 C583 1.419 . S
C585 C586 1.362 . S
C586 H578 0.930 . S
C586 C585 1.362 . S
C586 C589 1.409 . S
C587 H579 0.930 . S
C587 C588 1.355 . S
C587 C589 1.415 . S
C588 C587 1.355 . S
C588 C590 1.419 . S
C589 C584 1.425 . S
C589 C586 1.409 . S
C589 C587 1.415 . S
C590 H580 0.930 . S
C590 C588 1.419 . S
C590 C591 1.362 . S
C591 H581 0.930 . S
C591 C584 1.409 . S
C591 C590 1.362 . S
H592 C598 0.930 . S
H593 C601 0.930 . S
H594 C602 0.930 . S
H595 C603 0.930 . S
H596 C606 0.930 . S
H597 C607 0.930 . S
C598 H592 0.930 . S
C598 C599 1.355 . S
C598 C600 1.415 . S
C599 C598 1.355 . S
C599 C601 1.419 . S
C600 C598 1.415 . S
C600 C605 1.425 . S
C600 C607 1.409 . S
C601 H593 0.930 . S
C601 C599 1.419 . S
C601 C602 1.362 . S
C602 H594 0.930 . S
C602 C601 1.362 . S
C602 C605 1.409 . S
C603 H595 0.930 . S
C603 C604 1.355 . S
C603 C605 1.415 . S
C604 C603 1.355 . S
C604 C606 1.419 . S
C605 C600 1.425 . S
C605 C602 1.409 . S
C605 C603 1.415 . S
C606 H596 0.930 . S
C606 C604 1.419 . S
C606 C607 1.362 . S
C607 H597 0.930 . S
C607 C600 1.409 . S
C607 C606 1.362 . S
H608 C614 0.930 . S
H609 C617 0.930 . S
H610 C618 0.930 . S
H611 C619 0.930 . S
H612 C622 0.930 . S
H613 C623 0.930 . S
C614 H608 0.930 . S
C614 C615 1.355 . S
C614 C616 1.415 . S
C615 C614 1.355 . S
C615 C617 1.419 . S
C616 C614 1.415 . S
C616 C621 1.425 . S
C616 C623 1.409 . S
C617 H609 0.930 . S
C617 C615 1.419 . S
C617 C618 1.362 . S
C618 H610 0.930 . S
C618 C617 1.362 . S
C618 C621 1.409 . S
C619 H611 0.930 . S
C619 C620 1.355 . S
C619 C621 1.415 . S
C620 C619 1.355 . S
C620 C622 1.419 . S
C621 C616 1.425 . S
C621 C618 1.409 . S
C621 C619 1.415 . S
C622 H612 0.930 . S
C622 C620 1.419 . S
C622 C623 1.362 . S
C623 H613 0.930 . S
C623 C616 1.409 . S
C623 C622 1.362 . S
H624 C630 0.930 . S
H625 C633 0.930 . S
H626 C634 0.930 . S
H627 C635 0.930 . S
H628 C638 0.930 . S
H629 C639 0.930 . S
C630 H624 0.930 . S
C630 C631 1.355 . S
C630 C632 1.415 . S
C631 C630 1.355 . S
C631 C633 1.419 . S
C632 C630 1.415 . S
C632 C637 1.425 . S
C632 C639 1.409 . S
C633 H625 0.930 . S
C633 C631 1.419 . S
C633 C634 1.362 . S
C634 H626 0.930 . S
C634 C633 1.362 . S
C634 C637 1.409 . S
C635 H627 0.930 . S
C635 C636 1.355 . S
C635 C637 1.415 . S
C636 C635 1.355 . S
C636 C638 1.419 . S
C637 C632 1.425 . S
C637 C634 1.409 . S
C637 C635 1.415 . S
C638 H628 0.930 . S
C638 C636 1.419 . S
C638 C639 1.362 . S
C639 H629 0.930 . S
C639 C632 1.409 . S
C639 C638 1.362 . S
H640 C646 0.930 . S
H641 C649 0.930 . S
H642 C650 0.930 . S
H643 C651 0.930 . S
H644 C654 0.930 . S
H645 C655 0.930 . S
C646 H640 0.930 . S
C646 C647 1.355 . S
C646 C648 1.415 . S
C647 C646 1.355 . S
C647 C649 1.419 . S
C648 C646 1.415 . S
C648 C653 1.425 . S
C648 C655 1.409 . S
C649 H641 0.930 . S
C649 C647 1.419 . S
C649 C650 1.362 . S
C650 H642 0.930 . S
C650 C649 1.362 . S
C650 C653 1.409 . S
C651 H643 0.930 . S
C651 C652 1.355 . S
C651 C653 1.415 . S
C652 C651 1.355 . S
C652 C654 1.419 . S
C653 C648 1.425 . S
C653 C650 1.409 . S
C653 C651 1.415 . S
C654 H644 0.930 . S
C654 C652 1.419 . S
C654 C655 1.362 . S
C655 H645 0.930 . S
C655 C648 1.409 . S
C655 C654 1.362 . S
H656 C662 0.930 . S
H657 C665 0.930 . S
H658 C666 0.930 . S
H659 C667 0.930 . S
H660 C670 0.930 . S
H661 C671 0.930 . S
C662 H656 0.930 . S
C662 C663 1.355 . S
C662 C664 1.415 . S
C663 C662 1.355 . S
C663 C665 1.419 . S
C664 C662 1.415 . S
C664 C669 1.425 . S
C664 C671 1.409 . S
C665 H657 0.930 . S
C665 C663 1.419 . S
C665 C666 1.362 . S
C666 H658 0.930 . S
C666 C665 1.362 . S
C666 C669 1.409 . S
C667 H659 0.930 . S
C667 C668 1.355 . S
C667 C669 1.415 . S
C668 C667 1.355 . S
C668 C670 1.419 . S
C669 C664 1.425 . S
C669 C666 1.409 . S
C669 C667 1.415 . S
C670 H660 0.930 . S
C670 C668 1.419 . S
C670 C671 1.362 . S
C671 H661 0.930 . S
C671 C664 1.409 . S
C671 C670 1.362 . S
H672 C678 0.930 . S
H673 C681 0.930 . S
H674 C682 0.930 . S
H675 C683 0.930 . S
H676 C686 0.930 . S
H677 C687 0.930 . S
C678 H672 0.930 . S
C678 C679 1.355 . S
C678 C680 1.415 . S
C679 C678 1.355 . S
C679 C681 1.419 . S
C680 C678 1.415 . S
C680 C685 1.425 . S
C680 C687 1.409 . S
C681 H673 0.930 . S
C681 C679 1.419 . S
C681 C682 1.362 . S
C682 H674 0.930 . S
C682 C681 1.362 . S
C682 C685 1.409 . S
C683 H675 0.930 . S
C683 C684 1.355 . S
C683 C685 1.415 . S
C684 C683 1.355 . S
C684 C686 1.419 . S
C685 C680 1.425 . S
C685 C682 1.409 . S
C685 C683 1.415 . S
C686 H676 0.930 . S
C686 C684 1.419 . S
C686 C687 1.362 . S
C687 H677 0.930 . S
C687 C680 1.409 . S
C687 C686 1.362 . S
H688 C694 0.930 . S
H689 C697 0.930 . S
H690 C698 0.930 . S
H691 C699 0.930 . S
H692 C702 0.930 . S
H693 C703 0.930 . S
C694 H688 0.930 . S
C694 C695 1.355 . S
C694 C696 1.415 . S
C695 C694 1.355 . S
C695 C697 1.419 . S
C696 C694 1.415 . S
C696 C701 1.425 . S
C696 C703 1.409 . S
C697 H689 0.930 . S
C697 C695 1.419 . S
C697 C698 1.362 . S
C698 H690 0.930 . S
C698 C697 1.362 . S
C698 C701 1.409 . S
C699 H691 0.930 . S
C699 C700 1.355 . S
C699 C701 1.415 . S
C700 C699 1.355 . S
C700 C702 1.419 . S
C701 C696 1.425 . S
C701 C698 1.409 . S
C701 C699 1.415 . S
C702 H692 0.930 . S
C702 C700 1.419 . S
C702 C703 1.362 . S
C703 H693 0.930 . S
C703 C696 1.409 . S
C703 C702 1.362 . S
H704 C710 0.930 . S
H705 C713 0.930 . S
H706 C714 0.930 . S
H707 C715 0.930 . S
H708 C718 0.930 . S
H709 C719 0.930 . S
C710 H704 0.930 . S
C710 C711 1.355 . S
C710 C712 1.415 . S
C711 C710 1.355 . S
C711 C713 1.419 . S
C712 C710 1.415 . S
C712 C717 1.425 . S
C712 C719 1.409 . S
C713 H705 0.930 . S
C713 C711 1.419 . S
C713 C714 1.362 . S
C714 H706 0.930 . S
C714 C713 1.362 . S
C714 C717 1.409 . S
C715 H707 0.930 . S
C715 C716 1.355 . S
C715 C717 1.415 . S
C716 C715 1.355 . S
C716 C718 1.419 . S
C717 C712 1.425 . S
C717 C714 1.409 . S
C717 C715 1.415 . S
C718 H708 0.930 . S
C718 C716 1.419 . S
C718 C719 1.362 . S
C719 H709 0.930 . S
C719 C712 1.409 . S
C719 C718 1.362 . S
H720 C726 0.930 . S
H721 C729 0.930 . S
H722 C730 0.930 . S
H723 C731 0.930 . S
H724 C734 0.930 . S
H725 C735 0.930 . S
C726 H720 0.930 . S
C726 C727 1.355 . S
C726 C728 1.415 . S
C727 C726 1.355 . S
C727 C729 1.419 . S
C728 C726 1.415 . S
C728 C733 1.425 . S
C728 C735 1.409 . S
C729 H721 0.930 . S
C729 C727 1.419 . S
C729 C730 1.362 . S
C730 H722 0.930 . S
C730 C729 1.362 . S
C730 C733 1.409 . S
C731 H723 0.930 . S
C731 C732 1.355 . S
C731 C733 1.415 . S
C732 C731 1.355 . S
C732 C734 1.419 . S
C733 C728 1.425 . S
C733 C730 1.409 . S
C733 C731 1.415 . S
C734 H724 0.930 . S
C734 C732 1.419 . S
C734 C735 1.362 . S
C735 H725 0.930 . S
C735 C728 1.409 . S
C735 C734 1.362 . S
C231 C62 1.552 . S
C236 C6 1.587 . S
C247 C76 1.564 . S
C252 C20 1.578 . S
C263 C90 1.544 1_554 S
C268 C34 1.588 . S
C279 C104 1.560 . S
C284 C48 1.582 . S
C295 C174 1.587 . S
C300 C118 1.551 . S
C311 C188 1.570 . S
C316 C132 1.552 . S
C327 C146 1.578 . S
C332 C202 1.547 . S
C343 C216 1.580 . S
C348 C160 1.561 . S
C359 C9 1.489 . S
C364 C79 1.530 . S
C375 C93 1.498 . S
C380 C23 1.491 . S
C391 C37 1.536 . S
C396 C107 1.531 . S
C407 C65 1.495 . S
C412 C51 1.536 . S
C423 C191 1.528 . S
C428 C121 1.488 . S
C439 C205 1.485 . S
C444 C135 1.517 . S
C455 C149 1.492 . S
C460 C219 1.497 . S
C471 C163 1.489 . S
C476 C177 1.501 . S
C487 C218 1.935 . S
C492 C8 1.935 . S
C503 C176 1.925 . S
C508 C22 1.924 . S
C519 C190 1.930 . S
C524 C36 1.931 . S
C535 C204 1.934 . S
C540 C50 1.933 . S
C551 C134 1.906 . S
C556 C64 1.905 . S
C567 C148 1.935 . S
C572 C78 1.935 . S
C583 C92 1.925 . S
C588 C162 1.924 . S
C599 C106 1.932 . S
C604 C120 1.933 . S
C615 C189 1.057 . S
C620 C35 1.072 . S
C631 C203 1.062 . S
C636 C49 1.073 . S
C647 C217 1.025 . S
C652 C7 1.040 . S
C663 C21 1.028 . S
C668 C175 1.047 . S
C679 C161 1.053 . S
C684 C91 1.070 . S
C695 C105 1.045 . S
C700 C119 1.066 . S
C711 C133 1.028 . S
C716 C63 1.024 . S
C727 C147 1.025 . S
C732 C77 1.041 . S
