# Generated by pormake.
# Topology vba, (4)-cn, num edge types: 1
# Building blocks:
#     Node 0, Type 0, BuildingBlock: KOZSID_clean_sbu_0, # of connection points: 4
#     Node 1, Type 0, BuildingBlock: KOZSID_clean_sbu_0, # of connection points: 4
#     Node 2, Type 0, BuildingBlock: KOZSID_clean_sbu_0, # of connection points: 4
#     Node 3, Type 0, BuildingBlock: KOZSID_clean_sbu_0, # of connection points: 4
#     Node 4, Type 0, BuildingBlock: KOZSID_clean_sbu_0, # of connection points: 4
#     Node 5, Type 0, BuildingBlock: KOZSID_clean_sbu_0, # of connection points: 4
#     Node 6, Type 0, BuildingBlock: KOZSID_clean_sbu_0, # of connection points: 4
#     Node 7, Type 0, BuildingBlock: KOZSID_clean_sbu_0, # of connection points: 4
#     Node 8, Type 0, BuildingBlock: KOZSID_clean_sbu_0, # of connection points: 4
#     Node 9, Type 0, BuildingBlock: KOZSID_clean_sbu_0, # of connection points: 4
#     Node 10, Type 0, BuildingBlock: KOZSID_clean_sbu_0, # of connection points: 4
#     Node 11, Type 0, BuildingBlock: KOZSID_clean_sbu_0, # of connection points: 4
#     Node 12, Type 0, BuildingBlock: KOZSID_clean_sbu_0, # of connection points: 4
#     Node 13, Type 0, BuildingBlock: KOZSID_clean_sbu_0, # of connection points: 4
#     Node 14, Type 0, BuildingBlock: KOZSID_clean_sbu_0, # of connection points: 4
#     Node 15, Type 0, BuildingBlock: KOZSID_clean_sbu_0, # of connection points: 4
#     Node 16, Type 0, BuildingBlock: KOZSID_clean_sbu_0, # of connection points: 4
#     Node 17, Type 0, BuildingBlock: KOZSID_clean_sbu_0, # of connection points: 4
#     Node 18, Type 0, BuildingBlock: KOZSID_clean_sbu_0, # of connection points: 4
#     Node 19, Type 0, BuildingBlock: KOZSID_clean_sbu_0, # of connection points: 4
#     Node 20, Type 0, BuildingBlock: KOZSID_clean_sbu_0, # of connection points: 4
#     Node 21, Type 0, BuildingBlock: KOZSID_clean_sbu_0, # of connection points: 4
#     Node 22, Type 0, BuildingBlock: KOZSID_clean_sbu_0, # of connection points: 4
#     Node 23, Type 0, BuildingBlock: KOZSID_clean_sbu_0, # of connection points: 4
#     Node 24, Type 0, BuildingBlock: KOZSID_clean_sbu_0, # of connection points: 4
#     Node 25, Type 0, BuildingBlock: KOZSID_clean_sbu_0, # of connection points: 4
#     Node 26, Type 0, BuildingBlock: KOZSID_clean_sbu_0, # of connection points: 4
#     Node 27, Type 0, BuildingBlock: KOZSID_clean_sbu_0, # of connection points: 4
#     Node 28, Type 0, BuildingBlock: KOZSID_clean_sbu_0, # of connection points: 4
#     Node 29, Type 0, BuildingBlock: KOZSID_clean_sbu_0, # of connection points: 4
#     Node 30, Type 0, BuildingBlock: KOZSID_clean_sbu_0, # of connection points: 4
#     Node 31, Type 0, BuildingBlock: KOZSID_clean_sbu_0, # of connection points: 4
#     Edge 32, Type (0, 0), BuildingBlock: AJUNOK_clean_linker_0, # of connection points: 2
#     Edge 33, Type (0, 0), BuildingBlock: AJUNOK_clean_linker_0, # of connection points: 2
#     Edge 34, Type (0, 0), BuildingBlock: AJUNOK_clean_linker_0, # of connection points: 2
#     Edge 35, Type (0, 0), BuildingBlock: AJUNOK_clean_linker_0, # of connection points: 2
#     Edge 36, Type (0, 0), BuildingBlock: AJUNOK_clean_linker_0, # of connection points: 2
#     Edge 37, Type (0, 0), BuildingBlock: AJUNOK_clean_linker_0, # of connection points: 2
#     Edge 38, Type (0, 0), BuildingBlock: AJUNOK_clean_linker_0, # of connection points: 2
#     Edge 39, Type (0, 0), BuildingBlock: AJUNOK_clean_linker_0, # of connection points: 2
#     Edge 40, Type (0, 0), BuildingBlock: AJUNOK_clean_linker_0, # of connection points: 2
#     Edge 41, Type (0, 0), BuildingBlock: AJUNOK_clean_linker_0, # of connection points: 2
#     Edge 42, Type (0, 0), BuildingBlock: AJUNOK_clean_linker_0, # of connection points: 2
#     Edge 43, Type (0, 0), BuildingBlock: AJUNOK_clean_linker_0, # of connection points: 2
#     Edge 44, Type (0, 0), BuildingBlock: AJUNOK_clean_linker_0, # of connection points: 2
#     Edge 45, Type (0, 0), BuildingBlock: AJUNOK_clean_linker_0, # of connection points: 2
#     Edge 46, Type (0, 0), BuildingBlock: AJUNOK_clean_linker_0, # of connection points: 2
#     Edge 47, Type (0, 0), BuildingBlock: AJUNOK_clean_linker_0, # of connection points: 2
#     Edge 48, Type (0, 0), BuildingBlock: AJUNOK_clean_linker_0, # of connection points: 2
#     Edge 49, Type (0, 0), BuildingBlock: AJUNOK_clean_linker_0, # of connection points: 2
#     Edge 50, Type (0, 0), BuildingBlock: AJUNOK_clean_linker_0, # of connection points: 2
#     Edge 51, Type (0, 0), BuildingBlock: AJUNOK_clean_linker_0, # of connection points: 2
#     Edge 52, Type (0, 0), BuildingBlock: AJUNOK_clean_linker_0, # of connection points: 2
#     Edge 53, Type (0, 0), BuildingBlock: AJUNOK_clean_linker_0, # of connection points: 2
#     Edge 54, Type (0, 0), BuildingBlock: AJUNOK_clean_linker_0, # of connection points: 2
#     Edge 55, Type (0, 0), BuildingBlock: AJUNOK_clean_linker_0, # of connection points: 2
#     Edge 56, Type (0, 0), BuildingBlock: AJUNOK_clean_linker_0, # of connection points: 2
#     Edge 57, Type (0, 0), BuildingBlock: AJUNOK_clean_linker_0, # of connection points: 2
#     Edge 58, Type (0, 0), BuildingBlock: AJUNOK_clean_linker_0, # of connection points: 2
#     Edge 59, Type (0, 0), BuildingBlock: AJUNOK_clean_linker_0, # of connection points: 2
#     Edge 60, Type (0, 0), BuildingBlock: AJUNOK_clean_linker_0, # of connection points: 2
#     Edge 61, Type (0, 0), BuildingBlock: AJUNOK_clean_linker_0, # of connection points: 2
#     Edge 62, Type (0, 0), BuildingBlock: AJUNOK_clean_linker_0, # of connection points: 2
#     Edge 63, Type (0, 0), BuildingBlock: AJUNOK_clean_linker_0, # of connection points: 2
#     Edge 64, Type (0, 0), BuildingBlock: AJUNOK_clean_linker_0, # of connection points: 2
#     Edge 65, Type (0, 0), BuildingBlock: AJUNOK_clean_linker_0, # of connection points: 2
#     Edge 66, Type (0, 0), BuildingBlock: AJUNOK_clean_linker_0, # of connection points: 2
#     Edge 67, Type (0, 0), BuildingBlock: AJUNOK_clean_linker_0, # of connection points: 2
#     Edge 68, Type (0, 0), BuildingBlock: AJUNOK_clean_linker_0, # of connection points: 2
#     Edge 69, Type (0, 0), BuildingBlock: AJUNOK_clean_linker_0, # of connection points: 2
#     Edge 70, Type (0, 0), BuildingBlock: AJUNOK_clean_linker_0, # of connection points: 2
#     Edge 71, Type (0, 0), BuildingBlock: AJUNOK_clean_linker_0, # of connection points: 2
#     Edge 72, Type (0, 0), BuildingBlock: AJUNOK_clean_linker_0, # of connection points: 2
#     Edge 73, Type (0, 0), BuildingBlock: AJUNOK_clean_linker_0, # of connection points: 2
#     Edge 74, Type (0, 0), BuildingBlock: AJUNOK_clean_linker_0, # of connection points: 2
#     Edge 75, Type (0, 0), BuildingBlock: AJUNOK_clean_linker_0, # of connection points: 2
#     Edge 76, Type (0, 0), BuildingBlock: AJUNOK_clean_linker_0, # of connection points: 2
#     Edge 77, Type (0, 0), BuildingBlock: AJUNOK_clean_linker_0, # of connection points: 2
#     Edge 78, Type (0, 0), BuildingBlock: AJUNOK_clean_linker_0, # of connection points: 2
#     Edge 79, Type (0, 0), BuildingBlock: AJUNOK_clean_linker_0, # of connection points: 2
#     Edge 80, Type (0, 0), BuildingBlock: AJUNOK_clean_linker_0, # of connection points: 2
#     Edge 81, Type (0, 0), BuildingBlock: AJUNOK_clean_linker_0, # of connection points: 2
#     Edge 82, Type (0, 0), BuildingBlock: AJUNOK_clean_linker_0, # of connection points: 2
#     Edge 83, Type (0, 0), BuildingBlock: AJUNOK_clean_linker_0, # of connection points: 2
#     Edge 84, Type (0, 0), BuildingBlock: AJUNOK_clean_linker_0, # of connection points: 2
#     Edge 85, Type (0, 0), BuildingBlock: AJUNOK_clean_linker_0, # of connection points: 2
#     Edge 86, Type (0, 0), BuildingBlock: AJUNOK_clean_linker_0, # of connection points: 2
#     Edge 87, Type (0, 0), BuildingBlock: AJUNOK_clean_linker_0, # of connection points: 2
#     Edge 88, Type (0, 0), BuildingBlock: AJUNOK_clean_linker_0, # of connection points: 2
#     Edge 89, Type (0, 0), BuildingBlock: AJUNOK_clean_linker_0, # of connection points: 2
#     Edge 90, Type (0, 0), BuildingBlock: AJUNOK_clean_linker_0, # of connection points: 2
#     Edge 91, Type (0, 0), BuildingBlock: AJUNOK_clean_linker_0, # of connection points: 2
#     Edge 92, Type (0, 0), BuildingBlock: AJUNOK_clean_linker_0, # of connection points: 2
#     Edge 93, Type (0, 0), BuildingBlock: AJUNOK_clean_linker_0, # of connection points: 2
#     Edge 94, Type (0, 0), BuildingBlock: AJUNOK_clean_linker_0, # of connection points: 2
#     Edge 95, Type (0, 0), BuildingBlock: AJUNOK_clean_linker_0, # of connection points: 2
# Relax obj value: 0.009
# Max RMSD: 0.110
# Mean RMSD: 0.110
data_MOF--net-vba--node1-KOZSID_clean_sbu_0--edge1-AJUNOK_clean_linker_0
_symmetry_space_group_name_H-M    P1
_symmetry_Int_Tables_number       1
_symmetry_cell_setting            triclinic
loop_
_symmetry_equiv_pos_as_xyz
'x, y, z'
_cell_length_a     23.267741
_cell_length_b     101.54498
_cell_length_c     44.586247
_cell_angle_alpha  90.010007
_cell_angle_beta   89.988617
_cell_angle_gamma 90.027895
loop_
_atom_site_label
_atom_site_type_symbol
_atom_site_fract_x
_atom_site_fract_y
_atom_site_fract_z
_atom_type_partial_charge
C0 C 0.21369 0.07124 0.05715 0.0
C1 C 0.17719 0.06057 0.06159 0.0
C2 C 0.17696 0.05349 0.0354 0.0
C3 C 0.2138 0.0601 0.01668 0.0
N4 N 0.2372 0.07083 0.02934 0.0
Co5 Co 0.29874 0.0817 0.01126 0.0
N6 N 0.27676 0.07627 0.97001 0.0
C7 C 0.24912 0.06491 0.96369 0.0
C8 C 0.25007 0.0617 0.93394 0.0
C9 C 0.28074 0.07153 0.92057 0.0
C10 C 0.29568 0.08055 0.94288 0.0
N11 N 0.36006 0.09268 0.99303 0.0
C12 C 0.36581 0.09721 0.9644 0.0
C13 C 0.41066 0.10623 0.96288 0.0
C14 C 0.4358 0.10658 0.99072 0.0
C15 C 0.40419 0.0981 0.0081 0.0
N16 N 0.31987 0.08656 0.05321 0.0
C17 C 0.36954 0.09235 0.06148 0.0
C18 C 0.36631 0.09757 0.08984 0.0
C19 C 0.31175 0.0949 0.09984 0.0
C20 C 0.2848 0.08752 0.07775 0.0
N21 N 0.35294 0.06654 0.01265 0.0
C22 C 0.43484 0.04578 0.01314 0.0
C23 C 0.39778 0.04796 0.03768 0.0
C24 C 0.35742 0.05839 0.03705 0.0
C25 C 0.42858 0.05409 0.98831 0.0
C26 C 0.38843 0.06433 0.98861 0.0
N27 N 0.24733 0.09729 0.00939 0.0
C28 C 0.23583 0.12042 0.0207 0.0
C29 C 0.18699 0.12139 1.0027 0.0
C30 C 0.16648 0.10964 0.98949 0.0
C31 C 0.19708 0.09766 0.99333 0.0
C32 C 0.2659 0.10866 0.02279 0.0
H33 H 0.18113 0.08883 0.98267 0.0
H34 H 0.30553 0.10912 0.0348 0.0
H35 H 0.33026 0.05995 0.05639 0.0
H36 H 0.3868 0.07051 0.9691 0.0
C37 C 0.22219 0.05759 0.98623 0.0
C38 C 0.22704 0.08117 0.08028 0.0
C39 C 0.33403 0.09202 0.93793 0.0
C40 C 0.40737 0.09706 0.03943 0.0
H41 H 0.15354 0.05807 0.0817 0.0
H42 H 0.15194 0.04477 0.03045 0.0
H43 H 0.23223 0.05302 0.92335 0.0
H44 H 0.29317 0.07148 0.89723 0.0
H45 H 0.42421 0.11198 0.94373 0.0
H46 H 0.47107 0.1128 0.99778 0.0
H47 H 0.39707 0.10409 0.10043 0.0
H48 H 0.29335 0.09891 0.12007 0.0
H49 H 0.40059 0.0418 0.05745 0.0
H50 H 0.45448 0.05268 0.96838 0.0
H51 H 0.25217 0.12886 0.03285 0.0
H52 H 0.12812 0.10976 0.97576 0.0
C53 C 0.0772 0.22579 0.04757 0.0
C54 C 0.12626 0.23359 0.04654 0.0
C55 C 0.12827 0.23906 0.01855 0.0
C56 C 0.08122 0.23416 0.00379 0.0
N57 N 0.04944 0.22595 0.02078 0.0
Co58 Co 0.98131 0.21572 0.00715 0.0
N59 N 1.00189 0.21825 0.96423 0.0
C60 C 0.04077 0.22686 0.9534 0.0
C61 C 0.05067 0.22541 0.92327 0.0
C62 C 0.01502 0.21544 0.91442 0.0
C63 C 0.98428 0.21153 0.93966 0.0
N64 N 0.91321 0.20553 0.99357 0.0
C65 C 0.89859 0.20112 0.96576 0.0
C66 C 0.84447 0.19536 0.9662 0.0
C67 C 0.82451 0.19634 0.99509 0.0
C68 C 0.86724 0.20265 0.01072 0.0
N69 N 0.96244 0.21326 0.05024 0.0
C70 C 0.91086 0.20974 0.06121 0.0
C71 C 0.91105 0.20853 0.09193 0.0
C72 C 0.96623 0.21147 0.10072 0.0
C73 C 0.99686 0.21427 0.07481 0.0
N74 N 0.93313 0.23199 0.00608 0.0
C75 C 0.84672 0.25187 0.00614 0.0
C76 C 0.88454 0.25025 0.03063 0.0
C77 C 0.9274 0.24031 0.03014 0.0
C78 C 0.85628 0.24384 0.98109 0.0
C79 C 0.89878 0.23408 0.98162 0.0
N80 N 0.02634 0.19918 0.00781 0.0
C81 C 0.03183 0.17605 0.02073 0.0
C82 C 0.08073 0.17424 1.00272 0.0
C83 C 0.102 0.18545 0.98769 0.0
C84 C 0.07551 0.1978 0.99129 0.0
C85 C 1.00499 0.18839 0.0225 0.0
H86 H 0.09392 0.20612 0.9798 0.0
H87 H 0.96598 0.18904 0.03536 0.0
H88 H 0.95443 0.23906 0.04963 0.0
H89 H 0.90185 0.22782 0.96247 0.0
C90 C 0.07438 0.23438 0.97276 0.0
C91 C 0.05739 0.21863 0.0744 0.0
C92 C 0.93133 0.20366 0.93799 0.0
C93 C 0.86784 0.20518 0.04172 0.0
H94 H 0.15843 0.23498 0.06371 0.0
H95 H 0.16246 0.24506 0.00935 0.0
H96 H 0.08134 0.23069 0.90954 0.0
H97 H 0.01002 0.21191 0.89166 0.0
H98 H 0.82117 0.19122 0.94743 0.0
H99 H 0.78372 0.19284 0.00364 0.0
H100 H 0.87611 0.20527 0.10613 0.0
H101 H 0.98219 0.2115 0.12352 0.0
H102 H 0.87985 0.25631 0.05046 0.0
H103 H 0.83032 0.2449 0.96108 0.0
H104 H 0.01361 0.16795 0.03333 0.0
H105 H 0.13795 0.1848 0.97243 0.0
C106 C 0.18194 0.22615 0.20953 0.0
C107 C 0.13142 0.23342 0.21094 0.0
C108 C 0.12758 0.23829 0.23948 0.0
C109 C 0.17514 0.23359 0.25412 0.0
N110 N 0.20898 0.22611 0.23651 0.0
Co111 Co 0.27872 0.21635 0.2495 0.0
N112 N 0.25588 0.21743 0.29236 0.0
C113 C 0.21498 0.22534 0.30389 0.0
C114 C 0.20534 0.22324 0.33384 0.0
C115 C 0.24331 0.21359 0.34184 0.0
C116 C 0.27484 0.21048 0.31629 0.0
N117 N 0.34869 0.2067 0.26234 0.0
C118 C 0.36335 0.20172 0.28959 0.0
C119 C 0.41882 0.19669 0.28895 0.0
C120 C 0.43958 0.19875 0.26052 0.0
C121 C 0.39596 0.20494 0.24535 0.0
N122 N 0.2995 0.2152 0.2064 0.0
C123 C 0.35211 0.21263 0.19543 0.0
C124 C 0.35273 0.212 0.16462 0.0
C125 C 0.29696 0.21428 0.15579 0.0
C126 C 0.26524 0.21614 0.18177 0.0
N127 N 0.32307 0.2331 0.25349 0.0
C128 C 0.40368 0.25414 0.25721 0.0
C129 C 0.36928 0.25227 0.23152 0.0
C130 C 0.32886 0.24185 0.23026 0.0
C131 C 0.39496 0.24547 0.28118 0.0
C132 C 0.35503 0.23517 0.27891 0.0
N133 N 0.2375 0.19941 0.24595 0.0
C134 C 0.23883 0.17657 0.23058 0.0
C135 C 0.18735 0.17415 0.24573 0.0
C136 C 0.16035 0.18473 0.26026 0.0
C137 C 0.1857 0.19732 0.25975 0.0
C138 C 0.26336 0.18916 0.23122 0.0
H139 H 0.164 0.20527 0.27106 0.0
H140 H 0.30418 0.19045 0.22029 0.0
H141 H 0.3037 0.24062 0.21009 0.0
H142 H 0.3523 0.22853 0.29755 0.0
C143 C 0.18073 0.23306 0.28522 0.0
C144 C 0.2036 0.21955 0.18235 0.0
C145 C 0.32919 0.20311 0.31729 0.0
C146 C 0.39575 0.20823 0.21472 0.0
H147 H 0.0994 0.23479 0.19368 0.0
H148 H 0.09187 0.24368 0.24903 0.0
H149 H 0.17366 0.22795 0.34802 0.0
H150 H 0.24908 0.20973 0.36426 0.0
H151 H 0.44245 0.19233 0.30734 0.0
H152 H 0.48143 0.19601 0.25195 0.0
H153 H 0.38868 0.20948 0.15032 0.0
H154 H 0.28132 0.21447 0.13293 0.0
H155 H 0.37389 0.25876 0.21238 0.0
H156 H 0.42072 0.24624 0.30134 0.0
H157 H 0.26093 0.16868 0.219 0.0
H158 H 0.12002 0.18327 0.27193 0.0
C159 C 0.06688 0.07006 0.20126 0.0
C160 C 0.10518 0.05967 0.19772 0.0
C161 C 0.11048 0.05379 0.2253 0.0
C162 C 0.07396 0.06063 0.2438 0.0
N163 N 0.04583 0.07033 0.22953 0.0
Co164 Co 0.98141 0.08063 0.24632 0.0
N165 N 1.00719 0.07726 0.28805 0.0
C166 C 0.04659 0.06826 0.29641 0.0
C167 C 0.05982 0.06889 0.32634 0.0
C168 C 0.02564 0.07869 0.33765 0.0
C169 C 0.99215 0.08328 0.31404 0.0
N170 N 0.91547 0.09061 0.2632 0.0
C171 C 0.90361 0.09425 0.29192 0.0
C172 C 0.84928 0.09987 0.2937 0.0
C173 C 0.82647 0.09959 0.26534 0.0
C174 C 0.86768 0.09377 0.24779 0.0
N175 N 0.95863 0.08416 0.20404 0.0
C176 C 0.90699 0.08861 0.19511 0.0
C177 C 0.90738 0.09264 0.16573 0.0
C178 C 0.96249 0.09059 0.15567 0.0
C179 C 0.99307 0.08503 0.17925 0.0
N180 N 0.93289 0.06447 0.2474 0.0
C181 C 0.85325 0.04321 0.24887 0.0
C182 C 0.88627 0.04594 0.22305 0.0
C183 C 0.92575 0.05654 0.2228 0.0
C184 C 0.86285 0.05117 0.27403 0.0
C185 C 0.90223 0.0616 0.27283 0.0
N186 N 0.02744 0.09697 0.24548 0.0
C187 C 0.03143 0.12026 0.23451 0.0
C188 C 0.08728 0.12116 0.2458 0.0
C189 C 0.11311 0.10958 0.25669 0.0
C190 C 0.08262 0.09755 0.25609 0.0
C191 C 1.00241 0.10823 0.23477 0.0
H192 H 0.10335 0.08877 0.2644 0.0
H193 H 0.95913 0.10816 0.22642 0.0
H194 H 0.9498 0.05845 0.20253 0.0
H195 H 0.90635 0.06757 0.2925 0.0
C196 C 0.0735 0.06017 0.27515 0.0
C197 C 0.0531 0.07984 0.17791 0.0
C198 C 0.93915 0.09103 0.3184 0.0
C199 C 0.86584 0.09237 0.21647 0.0
H200 H 0.12863 0.057 0.17766 0.0
H201 H 0.13977 0.04596 0.23141 0.0
H202 H 0.09062 0.06296 0.33852 0.0
H203 H 0.02289 0.08151 0.36102 0.0
H204 H 0.82754 0.10347 0.31352 0.0
H205 H 0.78491 0.10327 0.25837 0.0
H206 H 0.87328 0.09765 0.15382 0.0
H207 H 0.97773 0.09357 0.13391 0.0
H208 H 0.88178 0.03993 0.20313 0.0
H209 H 0.83869 0.04963 0.2945 0.0
H210 H 0.00959 0.12891 0.22603 0.0
H211 H 0.15657 0.10979 0.26536 0.0
C212 C 0.73775 0.96084 0.93295 0.0
C213 C 0.70684 0.95534 0.90938 0.0
C214 C 0.65191 0.95323 0.91962 0.0
C215 C 0.65206 0.95709 0.94911 0.0
N216 N 0.70392 0.96147 0.95793 0.0
Co217 Co 0.72821 0.96445 1.00011 0.0
N218 N 0.66265 0.95432 0.01668 0.0
C219 C 0.61392 0.95155 1.00168 0.0
C220 C 0.57371 0.94533 0.01917 0.0
C221 C 0.59837 0.94434 0.04703 0.0
C222 C 0.65277 0.94993 0.04497 0.0
N223 N 0.75537 0.96726 0.04166 0.0
C224 C 0.74213 0.96063 0.06706 0.0
C225 C 0.77579 0.96503 0.09084 0.0
C226 C 0.80851 0.97523 0.0802 0.0
C227 C 0.79419 0.97632 0.05048 0.0
N228 N 0.79217 0.97497 0.98371 0.0
C229 C 0.81998 0.98462 0.99834 0.0
C230 C 0.85501 0.99191 0.97993 0.0
C231 C 0.8489 0.98639 0.95202 0.0
C232 C 0.81171 0.97577 0.95527 0.0
N233 N 0.68029 0.98061 1.0027 0.0
C234 C 0.60382 1.00233 0.00615 0.0
C235 C 0.61138 0.99375 0.03043 0.0
C236 C 0.64964 0.98312 0.02835 0.0
C237 C 0.63641 0.99986 0.98012 0.0
C238 C 0.67417 0.98899 0.97884 0.0
N239 N 0.77372 0.94805 0.99787 0.0
C240 C 0.8594 0.93521 0.00749 0.0
C241 C 0.83155 0.92353 0.99837 0.0
C242 C 0.77478 0.92462 0.98832 0.0
C243 C 0.74715 0.93681 0.98806 0.0
C244 C 0.82969 0.94734 0.00715 0.0
H245 H 0.70346 0.937 0.98032 0.0
H246 H 0.85166 0.95612 0.01468 0.0
H247 H 0.65345 0.97681 0.0476 0.0
H248 H 0.69775 0.98726 0.95835 0.0
C249 C 0.61107 0.95326 0.97048 0.0
C250 C 0.79734 0.96628 0.93148 0.0
C251 C 0.69063 0.95234 0.07096 0.0
C252 C 0.82014 0.9848 0.0297 0.0
H253 H 0.72175 0.95241 0.88753 0.0
H254 H 0.61762 0.94826 0.90773 0.0
H255 H 0.53187 0.94174 0.01242 0.0
H256 H 0.57792 0.94022 0.06669 0.0
H257 H 0.77447 0.96171 0.11389 0.0
H258 H 0.83932 0.98107 0.09261 0.0
H259 H 0.88362 0.99985 0.98624 0.0
H260 H 0.87095 0.98951 0.93185 0.0
H261 H 0.5879 0.99526 0.05113 0.0
H262 H 0.63182 1.00608 0.96056 0.0
H263 H 0.9038 0.93504 0.01469 0.0
H264 H 0.75095 0.91601 0.98118 0.0
C265 C 0.03359 0.83581 0.92948 0.0
C266 C 0.06194 0.84276 0.90713 0.0
C267 C 0.11681 0.84506 0.91721 0.0
C268 C 0.11882 0.83998 0.94573 0.0
N269 N 0.06827 0.83471 0.95416 0.0
Co270 Co 0.04525 0.83078 0.99627 0.0
N271 N 0.11035 0.84084 0.01384 0.0
C272 C 0.15827 0.84423 0.99878 0.0
C273 C 0.19898 0.84999 0.01676 0.0
C274 C 0.17563 0.85002 0.04501 0.0
C275 C 0.12139 0.84437 0.04272 0.0
N276 N 0.01892 0.8271 0.03779 0.0
C277 C 0.0329 0.83306 0.06401 0.0
C278 C 0.99942 0.82818 0.08735 0.0
C279 C 0.96617 0.81833 0.07562 0.0
C280 C 0.97998 0.81792 0.04575 0.0
N281 N 0.98167 0.82032 0.97879 0.0
C282 C 0.95325 0.81059 0.99289 0.0
C283 C 0.91633 0.80388 0.97439 0.0
C284 C 0.92153 0.80985 0.94697 0.0
C285 C 0.96057 0.8201 0.95047 0.0
N286 N 0.09522 0.81482 0.9972 0.0
C287 C 0.18007 0.79465 0.99839 0.0
C288 C 0.16708 0.80208 0.02394 0.0
C289 C 0.12506 0.81195 0.02293 0.0
C290 C 0.14714 0.79712 0.97244 0.0
C291 C 0.10521 0.80725 0.97227 0.0
N292 N 0.9983 0.847 0.99586 0.0
C293 C 0.91106 0.85917 0.00626 0.0
C294 C 0.93807 0.87106 0.99839 0.0
C295 C 0.99497 0.8706 0.98872 0.0
C296 C 0.02394 0.85859 0.98745 0.0
C297 C 0.94206 0.84722 0.00494 0.0
H298 H 0.06772 0.85881 0.97991 0.0
H299 H 0.92093 0.83821 0.01158 0.0
H300 H 0.11836 0.81751 0.0431 0.0
H301 H 0.08191 0.80916 0.95177 0.0
C302 C 0.15987 0.84348 0.96738 0.0
C303 C 0.97545 0.82963 0.92674 0.0
C304 C 0.08463 0.84121 0.0688 0.0
C305 C 0.95358 0.80996 0.02418 0.0
H306 H 0.04461 0.84656 0.88645 0.0
H307 H 0.14928 0.85097 0.90622 0.0
H308 H 0.24036 0.85389 0.01011 0.0
H309 H 0.19685 0.85355 0.06504 0.0
H310 H 1.00106 0.83097 0.11077 0.0
H311 H 0.93534 0.81226 0.08744 0.0
H312 H 0.8869 0.79606 0.98044 0.0
H313 H 0.89813 0.80715 0.92692 0.0
H314 H 0.18965 0.80036 0.04482 0.0
H315 H 0.15489 0.79155 0.95213 0.0
H316 H 0.86677 0.85913 0.01372 0.0
H317 H 0.01717 0.87954 0.9822 0.0
C318 C 0.74014 0.83273 0.82809 0.0
C319 C 0.70951 0.83862 0.85125 0.0
C320 C 0.65454 0.84066 0.84092 0.0
C321 C 0.6542 0.83629 0.81179 0.0
N322 N 0.70575 0.83162 0.80332 0.0
Co323 Co 0.72873 0.82752 0.76136 0.0
N324 N 0.66461 0.83777 0.74368 0.0
C325 C 0.61675 0.8413 0.7586 0.0
C326 C 0.57707 0.84738 0.74053 0.0
C327 C 0.60109 0.84745 0.7124 0.0
C328 C 0.65456 0.84145 0.71482 0.0
N329 N 0.75462 0.82345 0.72001 0.0
C330 C 0.74069 0.82918 0.69354 0.0
C331 C 0.77227 0.82363 0.67024 0.0
C332 C 0.80432 0.81366 0.68239 0.0
C333 C 0.79167 0.81381 0.71242 0.0
N334 N 0.79162 0.81706 0.77907 0.0
C335 C 0.81849 0.80695 0.76567 0.0
C336 C 0.85488 0.80034 0.78468 0.0
C337 C 0.85082 0.80683 0.81162 0.0
C338 C 0.81327 0.81729 0.80723 0.0
N339 N 0.67793 0.8117 0.76077 0.0
C340 C 0.59458 0.79116 0.75943 0.0
C341 C 0.6057 0.79899 0.73424 0.0
C342 C 0.64716 0.80898 0.73528 0.0
C343 C 0.627 0.79384 0.78548 0.0
C344 C 0.66852 0.80406 0.78565 0.0
N345 N 0.77645 0.84362 0.76142 0.0
C346 C 0.86064 0.85612 0.74697 0.0
C347 C 0.83543 0.86791 0.75734 0.0
C348 C 0.78109 0.86702 0.7706 0.0
C349 C 0.75249 0.855 0.77209 0.0
C350 C 0.83063 0.84407 0.74947 0.0
H351 H 0.71002 0.85507 0.78146 0.0
H352 H 0.85049 0.83519 0.74107 0.0
H353 H 0.65263 0.81475 0.71533 0.0
H354 H 0.69223 0.80594 0.80604 0.0
C355 C 0.61386 0.84009 0.78998 0.0
C356 C 0.80022 0.82751 0.82973 0.0
C357 C 0.69086 0.83792 0.68879 0.0
C358 C 0.81742 0.80588 0.73439 0.0
H359 H 0.72461 0.84184 0.87285 0.0
H360 H 0.62063 0.84593 0.85242 0.0
H361 H 0.53583 0.8514 0.74703 0.0
H362 H 0.58073 0.85115 0.6923 0.0
H363 H 0.77026 0.8261 0.64665 0.0
H364 H 0.83356 0.80715 0.67072 0.0
H365 H 0.88337 0.79226 0.77923 0.0
H366 H 0.87447 0.80446 0.83182 0.0
H367 H 0.58119 0.79774 0.7138 0.0
H368 H 0.62034 0.78809 0.80564 0.0
H369 H 0.90234 0.85622 0.73623 0.0
H370 H 0.75996 0.87567 0.77959 0.0
C371 C 0.015 0.95811 0.82722 0.0
C372 C 0.03286 0.94886 0.84825 0.0
C373 C 0.0777 0.94215 0.83594 0.0
C374 C 0.0837 0.94722 0.80772 0.0
N375 N 0.0461 0.95695 0.80128 0.0
Co376 Co 0.02738 0.963 0.75948 0.0
N377 N 0.09577 0.95394 0.74187 0.0
C378 C 0.13048 0.9454 0.75606 0.0
C379 C 0.17623 0.94136 0.73899 0.0
C380 C 0.16984 0.9477 0.71212 0.0
C381 C 0.11991 0.95513 0.71426 0.0
N382 N 1.00608 0.96845 0.71799 0.0
C383 C 0.03526 0.96724 0.69185 0.0
C384 C 1.00193 0.97128 0.66765 0.0
C385 C 0.95076 0.97549 0.67911 0.0
C386 C 0.95528 0.97361 0.70944 0.0
N387 N 0.96045 0.9726 0.77707 0.0
C388 C 0.91988 0.97925 0.76178 0.0
C389 C 0.88573 0.98696 0.77962 0.0
C390 C 0.9047 0.98473 0.80815 0.0
C391 C 0.94802 0.97535 0.80616 0.0
N392 N 0.07564 0.9791 0.76398 0.0
C393 C 0.15309 1.00074 0.76072 0.0
C394 C 0.09637 1.00175 0.7502 0.0
C395 C 0.05868 0.99091 0.75198 0.0
C396 C 0.16922 0.98876 0.77397 0.0
C397 C 0.12998 0.97821 0.7757 0.0
N398 N 0.98117 0.94669 0.7542 0.0
C399 C 0.91593 0.93027 0.77403 0.0
C400 C 0.93256 0.92125 0.75194 0.0
C401 C 0.97086 0.92549 0.72983 0.0
C402 C 0.99358 0.93828 0.73099 0.0
C403 C 0.94063 0.94289 0.77478 0.0
H404 H 0.02249 0.94114 0.71335 0.0
H405 H 0.92754 0.94937 0.7925 0.0
H406 H 0.01645 0.99205 0.74259 0.0
H407 H 0.14462 0.96915 0.78562 0.0
C408 C 0.12134 0.94236 0.78607 0.0
C409 C 0.96525 0.96702 0.83168 0.0
C410 C 0.09393 0.96219 0.68895 0.0
C411 C 0.91738 0.97867 0.73064 0.0
H412 H 0.01361 0.94642 0.86953 0.0
H413 H 0.1008 0.93396 0.84573 0.0
H414 H 0.21074 0.93481 0.74548 0.0
H415 H 0.19832 0.94679 0.69305 0.0
H416 H 0.01343 0.97134 0.64414 0.0
H417 H 0.91545 0.97989 0.6669 0.0
H418 H 0.85101 0.99337 0.77274 0.0
H419 H 0.88571 0.98876 0.82833 0.0
H420 H 0.08164 1.01072 0.73955 0.0
H421 H 0.21223 0.98748 0.78278 0.0
H422 H 0.88528 0.92746 0.79117 0.0
H423 H 0.98345 0.91894 0.7118 0.0
C424 C 0.20114 0.5679 0.55339 0.0
C425 C 0.16295 0.55746 0.55639 0.0
C426 C 0.15918 0.55157 0.52875 0.0
C427 C 0.19637 0.55847 0.51072 0.0
N428 N 0.22349 0.56821 0.52536 0.0
Co429 Co 0.28758 0.57881 0.5092 0.0
N430 N 0.26291 0.57558 0.46724 0.0
C431 C 0.22533 0.56625 0.45841 0.0
C432 C 0.21351 0.56675 0.42831 0.0
C433 C 0.24674 0.57681 0.41741 0.0
C434 C 0.27815 0.58174 0.44146 0.0
N435 N 0.35282 0.58923 0.49307 0.0
C436 C 0.36444 0.59329 0.46462 0.0
C437 C 0.41833 0.59917 0.46331 0.0
C438 C 0.44099 0.59865 0.49169 0.0
C439 C 0.40018 0.59243 0.50879 0.0
N440 N 0.30951 0.58203 0.55174 0.0
C441 C 0.36099 0.58645 0.56107 0.0
C442 C 0.36 0.59028 0.59057 0.0
C443 C 0.30471 0.58815 0.60028 0.0
C444 C 0.27456 0.58272 0.57637 0.0
N445 N 0.33736 0.56286 0.50748 0.0
C446 C 0.41759 0.54177 0.50449 0.0
C447 C 0.38523 0.5442 0.53066 0.0
C448 C 0.34517 0.5547 0.53163 0.0
C449 C 0.40819 0.55013 0.48003 0.0
C450 C 0.36838 0.56043 0.48192 0.0
N451 N 0.24055 0.59499 0.51037 0.0
C452 C 0.23462 0.61808 0.52297 0.0
C453 C 0.18168 0.61937 0.5083 0.0
C454 C 0.15818 0.60791 0.49523 0.0
C455 C 0.18771 0.5958 0.49703 0.0
C456 C 0.26347 0.60605 0.5232 0.0
H457 H 0.16859 0.58719 0.48691 0.0
H458 H 0.30519 0.60586 0.53346 0.0
H459 H 0.3212 0.55633 0.55206 0.0
H460 H 0.36421 0.56661 0.46255 0.0
C461 C 0.19834 0.55801 0.47937 0.0
C462 C 0.21432 0.57756 0.57716 0.0
C463 C 0.32939 0.59018 0.43785 0.0
C464 C 0.40198 0.59061 0.53999 0.0
H465 H 0.13878 0.55471 0.57617 0.0
H466 H 0.13046 0.54368 0.52226 0.0
H467 H 0.18412 0.56058 0.41577 0.0
H468 H 0.24984 0.57969 0.3941 0.0
H469 H 0.43997 0.60307 0.44376 0.0
H470 H 0.48223 0.60242 0.49896 0.0
H471 H 0.39373 0.59531 0.60277 0.0
H472 H 0.28906 0.59108 0.62199 0.0
H473 H 0.39072 0.53803 0.55026 0.0
H474 H 0.43276 0.54901 0.45956 0.0
H475 H 0.25458 0.62638 0.53407 0.0
H476 H 0.11819 0.60825 0.48291 0.0
C477 C 0.09129 0.72507 0.54397 0.0
C478 C 0.1421 0.73219 0.54171 0.0
C479 C 0.14467 0.73694 0.51302 0.0
C480 C 0.09601 0.73234 0.49917 0.0
N481 N 0.06277 0.72502 0.5174 0.0
Co482 Co 0.99178 0.71539 0.50572 0.0
N483 N 0.01153 0.71643 0.46249 0.0
C484 C 0.05172 0.72433 0.45019 0.0
C485 C 0.05908 0.72226 0.42005 0.0
C486 C 0.0204 0.71264 0.41278 0.0
C487 C 0.99074 0.70951 0.43893 0.0
N488 N 0.92116 0.70557 0.49431 0.0
C489 C 0.90523 0.7003 0.46751 0.0
C490 C 0.8502 0.69506 0.46927 0.0
C491 C 0.831 0.69729 0.49794 0.0
C492 C 0.87506 0.70377 0.51212 0.0
N493 N 0.97312 0.71461 0.5491 0.0
C494 C 0.9209 0.71227 0.56085 0.0
C495 C 0.92168 0.71197 0.59169 0.0
C496 C 0.97793 0.71421 0.59968 0.0
C497 C 1.0085 0.7157 0.5732 0.0
N498 N 0.94803 0.73217 0.50219 0.0
C499 C 0.87046 0.75397 0.50066 0.0
C500 C 0.91556 0.75316 0.52195 0.0
C501 C 0.95267 0.74212 0.52277 0.0
C502 C 0.86839 0.74379 0.47929 0.0
C503 C 0.90798 0.73342 0.47989 0.0
N504 N 0.03277 0.69842 0.5089 0.0
C505 C 0.03314 0.67584 0.52601 0.0
C506 C 0.08048 0.67278 0.50779 0.0
C507 C 0.10534 0.68321 0.49146 0.0
C508 C 0.08155 0.69593 0.49273 0.0
C509 C 0.00938 0.68849 0.5257 0.0
H510 H 0.1018 0.70364 0.47991 0.0
H511 H 0.97111 0.69009 0.53872 0.0
H512 H 0.98459 0.74153 0.54033 0.0
H513 H 0.90429 0.72612 0.46262 0.0
C514 C 0.08799 0.73188 0.46821 0.0
C515 C 0.07038 0.71873 0.5716 0.0
C516 C 0.93685 0.70195 0.43906 0.0
C517 C 0.87657 0.7075 0.54247 0.0
H518 H 0.17492 0.73357 0.55856 0.0
H519 H 0.18003 0.74225 0.50287 0.0
H520 H 0.08991 0.72692 0.40529 0.0
H521 H 0.01311 0.70875 0.39049 0.0
H522 H 0.82566 0.69055 0.4514 0.0
H523 H 0.78976 0.69453 0.50725 0.0
H524 H 0.88638 0.70962 0.60657 0.0
H525 H 0.99468 0.71454 0.62231 0.0
H526 H 0.92295 0.76091 0.53806 0.0
H527 H 0.83537 0.74347 0.46226 0.0
H528 H 0.01392 0.66852 0.54053 0.0
H529 H 0.1423 0.68155 0.47721 0.0
C530 C 0.1883 0.72355 0.70723 0.0
C531 C 0.13802 0.73093 0.7071 0.0
C532 C 0.13138 0.73586 0.73541 0.0
C533 C 0.17723 0.73111 0.75139 0.0
N534 N 0.21262 0.72351 0.73489 0.0
Co535 Co 0.28162 0.71398 0.74989 0.0
N536 N 0.25616 0.71575 0.79232 0.0
C537 C 0.21334 0.72351 0.80241 0.0
C538 C 0.2013 0.72169 0.83222 0.0
C539 C 0.23965 0.7124 0.84172 0.0
C540 C 0.2739 0.70925 0.81719 0.0
N541 N 0.35111 0.70464 0.76496 0.0
C542 C 0.36473 0.7004 0.79304 0.0
C543 C 0.42037 0.69547 0.79377 0.0
C544 C 0.44237 0.69682 0.7654 0.0
C545 C 0.39929 0.70253 0.74889 0.0
N546 N 0.30516 0.71203 0.70726 0.0
C547 C 0.35831 0.7091 0.69752 0.0
C548 C 0.36136 0.70814 0.6668 0.0
C549 C 0.30665 0.71063 0.65666 0.0
C550 C 0.27311 0.71294 0.68182 0.0
N551 N 0.32536 0.73081 0.75268 0.0
C552 C 0.40658 0.75173 0.75444 0.0
C553 C 0.3715 0.74959 0.7291 0.0
C554 C 0.33096 0.7392 0.72877 0.0
C555 C 0.39727 0.74359 0.7793 0.0
C556 C 0.35714 0.7333 0.7779 0.0
N557 N 0.24068 0.69696 0.74722 0.0
C558 C 0.24363 0.67374 0.7353 0.0
C559 C 0.18881 0.67177 0.74749 0.0
C560 C 0.15971 0.68288 0.75868 0.0
C561 C 0.18628 0.69534 0.75833 0.0
C562 C 0.26854 0.68629 0.73536 0.0
H563 H 0.16305 0.70362 0.76737 0.0
H564 H 0.31112 0.68725 0.72622 0.0
H565 H 0.30569 0.73767 0.70876 0.0
H566 H 0.3542 0.72692 0.79685 0.0
C567 C 0.18015 0.73087 0.78258 0.0
C568 C 0.21221 0.7169 0.68072 0.0
C569 C 0.32932 0.70243 0.82011 0.0
C570 C 0.40068 0.7051 0.71795 0.0
H571 H 0.10812 0.73237 0.68885 0.0
H572 H 0.0951 0.74141 0.74385 0.0
H573 H 0.16795 0.72638 0.84536 0.0
H574 H 0.24409 0.70888 0.86452 0.0
H575 H 0.44334 0.69165 0.81299 0.0
H576 H 0.48474 0.69398 0.75776 0.0
H577 H 0.3983 0.70542 0.65342 0.0
H578 H 0.29296 0.71075 0.63346 0.0
H579 H 0.37578 0.7558 0.70948 0.0
H580 H 0.42287 0.74473 0.79943 0.0
H581 H 0.26798 0.66554 0.72632 0.0
H582 H 0.11658 0.68199 0.76757 0.0
C583 C 0.05366 0.5689 0.6981 0.0
C584 C 0.09143 0.55844 0.69409 0.0
C585 C 0.09613 0.55223 0.72125 0.0
C586 C 0.06018 0.55901 0.74012 0.0
N587 N 0.03286 0.56902 0.72649 0.0
Co588 Co 0.97083 0.57975 0.74457 0.0
N589 N 0.99707 0.57561 0.78588 0.0
C590 C 0.0346 0.56606 0.79337 0.0
C591 C 0.04852 0.56609 0.82324 0.0
C592 C 0.01683 0.5761 0.83546 0.0
C593 C 0.98409 0.58145 0.81239 0.0
N594 N 0.90738 0.59014 0.76271 0.0
C595 C 0.89738 0.59364 0.79172 0.0
C596 C 0.84401 0.59967 0.79441 0.0
C597 C 0.82014 0.59991 0.76629 0.0
C598 C 0.85969 0.59393 0.74799 0.0
N599 N 0.94769 0.58408 0.70268 0.0
C600 C 0.89754 0.58965 0.69463 0.0
C601 C 0.89975 0.59491 0.66629 0.0
C602 C 0.95425 0.59241 0.65594 0.0
C603 C 0.98215 0.58515 0.67792 0.0
N604 N 0.91896 0.56411 0.74515 0.0
C605 C 0.83295 0.54417 0.746 0.0
C606 C 0.86596 0.54667 0.72007 0.0
C607 C 0.90848 0.55666 0.72007 0.0
C608 C 0.84632 0.55149 0.77167 0.0
C609 C 0.88885 0.56127 0.77081 0.0
N610 N 0.0199 0.59565 0.74446 0.0
C611 C 0.02705 0.61915 0.73657 0.0
C612 C 0.08369 0.61923 0.7467 0.0
C613 C 0.10853 0.6072 0.75535 0.0
C614 C 0.07588 0.59548 0.75398 0.0
C615 C 0.99616 0.60737 0.73566 0.0
H616 H 0.0955 0.58635 0.76094 0.0
H617 H 0.95248 0.6079 0.72806 0.0
H618 H 0.93195 0.55856 0.69961 0.0
H619 H 0.89591 0.56675 0.79107 0.0
C620 C 0.05985 0.55811 0.77138 0.0
C621 C 0.03959 0.57869 0.67478 0.0
C622 C 0.93408 0.5901 0.81756 0.0
C623 C 0.85738 0.5933 0.71659 0.0
H624 H 0.11432 0.55577 0.67385 0.0
H625 H 0.12462 0.54418 0.72689 0.0
H626 H 0.07849 0.5597 0.83474 0.0
H627 H 0.01583 0.57871 0.85899 0.0
H628 H 0.82367 0.60326 0.81462 0.0
H629 H 0.7792 0.60412 0.75994 0.0
H630 H 0.86782 0.6011 0.65567 0.0
H631 H 0.97175 0.59633 0.6354 0.0
H632 H 0.85792 0.54119 0.69965 0.0
H633 H 0.82379 0.54974 0.79256 0.0
H634 H 1.00638 0.62821 0.72967 0.0
H635 H 0.15248 0.60688 0.76329 0.0
C636 C 0.73855 0.45899 0.4271 0.0
C637 C 0.70734 0.45354 0.4036 0.0
C638 C 0.65199 0.45181 0.41372 0.0
C639 C 0.652 0.45593 0.44304 0.0
N640 N 0.70414 0.46013 0.45184 0.0
Co641 Co 0.72743 0.46366 0.49399 0.0
N642 N 0.66114 0.45395 0.51106 0.0
C643 C 0.61278 0.451 0.49592 0.0
C644 C 0.5719 0.44515 0.51369 0.0
C645 C 0.59572 0.44462 0.54184 0.0
C646 C 0.65023 0.45013 0.53973 0.0
N647 N 0.75389 0.46707 0.53552 0.0
C648 C 0.73953 0.46098 0.56148 0.0
C649 C 0.77282 0.46572 0.58505 0.0
C650 C 0.80649 0.47559 0.57365 0.0
C651 C 0.79304 0.47616 0.54374 0.0
N652 N 0.79229 0.47372 0.47705 0.0
C653 C 0.8204 0.48352 0.491 0.0
C654 C 0.85673 0.49028 0.47224 0.0
C655 C 0.85123 0.48425 0.44483 0.0
C656 C 0.81302 0.47387 0.44874 0.0
N657 N 0.67982 0.47995 0.495 0.0
C658 C 0.59906 0.50096 0.49655 0.0
C659 C 0.60959 0.49312 0.52178 0.0
C660 C 0.64946 0.48281 0.5205 0.0
C661 C 0.63188 0.49828 0.47063 0.0
C662 C 0.672 0.4878 0.47034 0.0
N663 N 0.77184 0.4471 0.49339 0.0
C664 C 0.85396 0.4337 0.50674 0.0
C665 C 0.82617 0.4223 0.4961 0.0
C666 C 0.77118 0.42367 0.48405 0.0
C667 C 0.74508 0.43599 0.48294 0.0
C668 C 0.8262 0.44605 0.50492 0.0
H669 H 0.70232 0.43639 0.474 0.0
H670 H 0.84817 0.45469 0.51318 0.0
H671 H 0.65391 0.47683 0.54009 0.0
H672 H 0.69574 0.48588 0.44998 0.0
C673 C 0.61057 0.4524 0.46456 0.0
C674 C 0.79911 0.46393 0.42579 0.0
C675 C 0.68703 0.45307 0.56591 0.0
C676 C 0.81989 0.48419 0.52234 0.0
H677 H 0.72215 0.45044 0.38186 0.0
H678 H 0.61738 0.44694 0.40188 0.0
H679 H 0.53007 0.44154 0.50696 0.0
H680 H 0.57474 0.4409 0.56177 0.0
H681 H 0.77032 0.46291 0.60844 0.0
H682 H 0.83719 0.48159 0.58573 0.0
H683 H 0.88596 0.49817 0.47807 0.0
H684 H 0.87449 0.48683 0.42464 0.0
H685 H 0.58557 0.49461 0.54232 0.0
H686 H 0.62659 0.5042 0.45063 0.0
H687 H 0.89678 0.43308 0.51614 0.0
H688 H 0.74772 0.41517 0.47592 0.0
C689 C 0.03539 0.33743 0.42811 0.0
C690 C 0.06186 0.34396 0.40448 0.0
C691 C 0.11641 0.34718 0.41382 0.0
C692 C 0.12061 0.34283 0.4429 0.0
N693 N 0.07183 0.337 0.45222 0.0
Co694 Co 0.0541 0.33219 0.49451 0.0
N695 N 0.11468 0.34376 0.51145 0.0
C696 C 0.15717 0.34941 0.49551 0.0
C697 C 0.18701 0.35858 0.51194 0.0
C698 C 0.16265 0.35838 0.54002 0.0
C699 C 0.12047 0.3487 0.53969 0.0
N700 N 0.03466 0.32698 0.53621 0.0
C701 C 0.05303 0.33182 0.56298 0.0
C702 C 0.03739 0.32328 0.58612 0.0
C703 C 1.00805 0.31303 0.57349 0.0
C704 C 1.00791 0.31561 0.54341 0.0
N705 N 0.99364 0.32069 0.47765 0.0
C706 C 0.97312 0.30978 0.49077 0.0
C707 C 0.93677 0.30275 0.47254 0.0
C708 C 0.93423 0.30978 0.44629 0.0
C709 C 0.9683 0.32089 0.4503 0.0
N710 N 0.11056 0.31746 0.49307 0.0
C711 C 0.19335 0.29686 0.49328 0.0
C712 C 0.18853 0.3057 0.51724 0.0
C713 C 0.14743 0.31575 0.51675 0.0
C714 C 0.15621 0.2988 0.46867 0.0
C715 C 0.11517 0.30911 0.46902 0.0
N716 N 1.00056 0.34728 0.49631 0.0
C717 C 0.91266 0.35815 0.51165 0.0
C718 C 0.93225 0.37014 0.4995 0.0
C719 C 0.986 0.37038 0.48593 0.0
C720 C 0.01911 0.35904 0.48471 0.0
C721 C 0.94757 0.34675 0.50967 0.0
H722 H 0.06035 0.35999 0.47437 0.0
H723 H 0.93215 0.33758 0.51898 0.0
H724 H 0.14618 0.32221 0.53582 0.0
H725 H 0.08723 0.31033 0.44987 0.0
C726 C 0.15914 0.34803 0.46413 0.0
C727 C 0.97692 0.33125 0.42755 0.0
C728 C 0.09184 0.34329 0.56693 0.0
C729 C 0.98208 0.30774 0.52139 0.0
H730 H 0.04375 0.34694 0.38332 0.0
H731 H 0.14686 0.35331 0.40189 0.0
H732 H 0.2204 0.36515 0.50407 0.0
H733 H 0.17525 0.36453 0.55871 0.0
H734 H 0.04857 0.32379 0.60959 0.0
H735 H 0.99032 0.30453 0.58485 0.0
H736 H 0.91334 0.29386 0.47799 0.0
H737 H 0.90957 0.30713 0.42661 0.0
H738 H 0.2171 0.30502 0.53635 0.0
H739 H 0.15834 0.29232 0.44942 0.0
H740 H 0.87087 0.35757 0.52225 0.0
H741 H 1.00277 0.37941 0.47633 0.0
C742 C 0.73898 0.33573 0.32926 0.0
C743 C 0.71013 0.3427 0.35139 0.0
C744 C 0.65506 0.34471 0.34125 0.0
C745 C 0.65329 0.3394 0.31293 0.0
N746 N 0.70415 0.33423 0.30473 0.0
Co747 Co 0.72691 0.3298 0.26287 0.0
N748 N 0.66168 0.33959 0.24477 0.0
C749 C 0.61368 0.34307 0.25963 0.0
C750 C 0.57329 0.34878 0.24137 0.0
C751 C 0.597 0.34867 0.21318 0.0
C752 C 0.65108 0.34298 0.21577 0.0
N753 N 0.75296 0.32561 0.22155 0.0
C754 C 0.73868 0.33119 0.19493 0.0
C755 C 0.77116 0.3258 0.17179 0.0
C756 C 0.80428 0.31607 0.18417 0.0
C757 C 0.7913 0.31622 0.21416 0.0
N758 N 0.79082 0.31967 0.28095 0.0
C759 C 0.81941 0.3098 0.2675 0.0
C760 C 0.85776 0.30366 0.28623 0.0
C761 C 0.85331 0.31017 0.31307 0.0
C762 C 0.81312 0.32013 0.30901 0.0
N763 N 0.67708 0.31381 0.26299 0.0
C764 C 0.59224 0.29354 0.26309 0.0
C765 C 0.60494 0.30076 0.23715 0.0
C766 C 0.64692 0.31066 0.23753 0.0
C767 C 0.6252 0.29642 0.28889 0.0
C768 C 0.66721 0.30654 0.28837 0.0
N769 N 0.7735 0.34605 0.26223 0.0
C770 C 0.86088 0.35814 0.25189 0.0
C771 C 0.83344 0.37008 0.2589 0.0
C772 C 0.77627 0.36969 0.26809 0.0
C773 C 0.74748 0.35768 0.26984 0.0
C774 C 0.82993 0.3462 0.25349 0.0
H775 H 0.70362 0.35794 0.27721 0.0
H776 H 0.85128 0.33714 0.24746 0.0
H777 H 0.65308 0.31608 0.21711 0.0
H778 H 0.69083 0.30866 0.30868 0.0
C779 C 0.61207 0.34259 0.29109 0.0
C780 C 0.79796 0.32997 0.33202 0.0
C781 C 0.68808 0.33967 0.18987 0.0
C782 C 0.81823 0.30864 0.23628 0.0
H783 H 0.72719 0.3467 0.37195 0.0
H784 H 0.6222 0.35058 0.35203 0.0
H785 H 0.53199 0.35278 0.24782 0.0
H786 H 0.57623 0.35216 0.19299 0.0
H787 H 0.76922 0.32822 0.14818 0.0
H788 H 0.83461 0.30976 0.17269 0.0
H789 H 0.88774 0.29589 0.28062 0.0
H790 H 0.87792 0.30803 0.33307 0.0
H791 H 0.58114 0.29912 0.21662 0.0
H792 H 0.6187 0.29094 0.30942 0.0
H793 H 0.90543 0.35807 0.24487 0.0
H794 H 0.75383 0.37867 0.27403 0.0
C795 C 0.03408 0.45785 0.32656 0.0
C796 C 0.06382 0.45089 0.34837 0.0
C797 C 0.11887 0.44916 0.33795 0.0
C798 C 0.11967 0.45455 0.30971 0.0
N799 N 0.06816 0.45948 0.30184 0.0
Co800 Co 0.04315 0.46339 0.26009 0.0
N801 N 0.10849 0.45373 0.24182 0.0
C802 C 0.15749 0.45065 0.25622 0.0
C803 C 0.19744 0.44488 0.23779 0.0
C804 C 0.17232 0.44452 0.20996 0.0
C805 C 0.11791 0.45002 0.21295 0.0
N806 N 0.01496 0.46705 0.21897 0.0
C807 C 0.02839 0.4612 0.19256 0.0
C808 C 0.99469 0.46624 0.16949 0.0
C809 C 0.96154 0.47601 0.18167 0.0
C810 C 0.97577 0.47625 0.2115 0.0
N811 N 0.9793 0.47343 0.27827 0.0
C812 C 0.94993 0.48316 0.26478 0.0
C813 C 0.91296 0.48955 0.28384 0.0
C814 C 0.91925 0.48335 0.31096 0.0
C815 C 0.95897 0.4733 0.3067 0.0
N816 N 0.09117 0.47962 0.25887 0.0
C817 C 0.1703 0.50097 0.25653 0.0
C818 C 0.15936 0.49308 0.2314 0.0
C819 C 0.11998 0.48267 0.23295 0.0
C820 C 0.13989 0.49793 0.28302 0.0
C821 C 0.10045 0.4873 0.28369 0.0
N822 N 0.99799 0.44693 0.2608 0.0
C823 C 0.91146 0.43428 0.25196 0.0
C824 C 0.93995 0.42246 0.25939 0.0
C825 C 0.99763 0.42335 0.26794 0.0
C826 C 0.02531 0.43551 0.26872 0.0
C827 C 0.94133 0.44639 0.25266 0.0
H828 H 0.06954 0.43553 0.2755 0.0
H829 H 0.91886 0.4553 0.24649 0.0
H830 H 0.11451 0.47685 0.21304 0.0
H831 H 0.07822 0.48516 0.3044 0.0
C832 C 0.16039 0.4514 0.2876 0.0
C833 C 0.97509 0.46354 0.3297 0.0
C834 C 0.07945 0.4529 0.18743 0.0
C835 C 0.94952 0.48404 0.2335 0.0
H836 H 0.04739 0.44662 0.36877 0.0
H837 H 0.15226 0.44334 0.3484 0.0
H838 H 0.23931 0.44111 0.24393 0.0
H839 H 0.19237 0.44085 0.18973 0.0
H840 H 0.99598 0.46358 0.14599 0.0
H841 H 0.93048 0.48212 0.17017 0.0
H842 H 0.88278 0.49729 0.27836 0.0
H843 H 0.89607 0.48573 0.33129 0.0
H844 H 0.18247 0.49463 0.21061 0.0
H845 H 0.14655 0.5037 0.30314 0.0
H846 H 0.86644 0.43424 0.24588 0.0
H847 H 0.02202 0.41462 0.27364 0.0
C848 C 0.70399 0.06899 0.55383 0.0
C849 C 0.66563 0.05854 0.55623 0.0
C850 C 0.66201 0.05289 0.52838 0.0
C851 C 0.69918 0.05996 0.51073 0.0
N852 N 0.72628 0.06961 0.52577 0.0
Co853 Co 0.78997 0.08048 0.50982 0.0
N854 N 0.76637 0.07711 0.46767 0.0
C855 C 0.72872 0.06784 0.45865 0.0
C856 C 0.71669 0.06846 0.42858 0.0
C857 C 0.74988 0.07854 0.41785 0.0
C858 C 0.78157 0.08333 0.44195 0.0
N859 N 0.85448 0.09128 0.49376 0.0
C860 C 0.86641 0.09529 0.46526 0.0
C861 C 0.91922 0.10166 0.46418 0.0
C862 C 0.94107 0.1015 0.49273 0.0
C863 C 0.90085 0.09499 0.50968 0.0
N864 N 0.81124 0.0838 0.5525 0.0
C865 C 0.86125 0.08908 0.56187 0.0
C866 C 0.85744 0.09395 0.59052 0.0
C867 C 0.80212 0.09154 0.59962 0.0
C868 C 0.77534 0.0846 0.57674 0.0
N869 N 0.84083 0.06473 0.50849 0.0
C870 C 0.91942 0.04332 0.5048 0.0
C871 C 0.88355 0.04505 0.53005 0.0
C872 C 0.84483 0.05582 0.53152 0.0
C873 C 0.91529 0.05278 0.48207 0.0
C874 C 0.87554 0.06303 0.48402 0.0
N875 N 0.74145 0.09646 0.51065 0.0
C876 C 0.73321 0.11955 0.52296 0.0
C877 C 0.68096 0.12064 0.50756 0.0
C878 C 0.65883 0.10906 0.49438 0.0
C879 C 0.68908 0.09706 0.49674 0.0
C880 C 0.76293 0.10764 0.52362 0.0
H881 H 0.67093 0.08837 0.48651 0.0
H882 H 0.80423 0.1077 0.53425 0.0
H883 H 0.81837 0.05698 0.55126 0.0
H884 H 0.87406 0.06973 0.4656 0.0
C885 C 0.70148 0.05961 0.47943 0.0
C886 C 0.71735 0.07827 0.57836 0.0
C887 C 0.83344 0.09151 0.43826 0.0
C888 C 0.90191 0.09343 0.54088 0.0
H889 H 0.64171 0.0555 0.57586 0.0
H890 H 0.63357 0.045 0.52154 0.0
H891 H 0.6872 0.06235 0.41597 0.0
H892 H 0.75326 0.08146 0.39457 0.0
H893 H 0.94069 0.10564 0.44467 0.0
H894 H 0.98137 0.10568 0.50023 0.0
H895 H 0.88868 0.10004 0.60199 0.0
H896 H 0.78332 0.09548 0.6198 0.0
H897 H 0.8851 0.03812 0.54848 0.0
H898 H 0.94337 0.0525 0.46273 0.0
H899 H 0.75211 0.12794 0.53423 0.0
H900 H 0.61945 0.10923 0.48153 0.0
C901 C 0.59109 0.2256 0.5421 0.0
C902 C 0.64352 0.2321 0.54041 0.0
C903 C 0.64787 0.23702 0.51194 0.0
C904 C 0.59872 0.23305 0.49758 0.0
N905 N 0.56351 0.22595 0.51527 0.0
Co906 Co 0.49201 0.21681 0.50244 0.0
N907 N 0.51382 0.21798 0.45944 0.0
C908 C 0.55522 0.22574 0.44784 0.0
C909 C 0.56349 0.22384 0.41771 0.0
C910 C 0.5242 0.21447 0.4097 0.0
C911 C 0.49335 0.2113 0.43544 0.0
N912 N 0.42062 0.20764 0.48982 0.0
C913 C 0.40526 0.20265 0.4627 0.0
C914 C 0.3494 0.19784 0.46357 0.0
C915 C 0.32913 0.20005 0.49203 0.0
C916 C 0.37344 0.2061 0.50698 0.0
N917 N 0.47157 0.21572 0.54562 0.0
C918 C 0.41863 0.21358 0.55669 0.0
C919 C 0.41787 0.21315 0.58751 0.0
C920 C 0.47387 0.21512 0.59627 0.0
C921 C 0.50583 0.2166 0.57023 0.0
N922 N 0.45024 0.23385 0.49912 0.0
C923 C 0.37289 0.25549 0.49733 0.0
C924 C 0.41023 0.25352 0.52184 0.0
C925 C 0.44869 0.24275 0.52221 0.0
C926 C 0.37798 0.24676 0.47315 0.0
C927 C 0.41639 0.23614 0.47448 0.0
N928 N 0.53099 0.19959 0.50535 0.0
C929 C 0.52895 0.1769 0.52167 0.0
C930 C 0.5779 0.17387 0.50459 0.0
C931 C 0.60424 0.18432 0.48902 0.0
C932 C 0.58084 0.19708 0.49012 0.0
C933 C 0.50566 0.1896 0.52117 0.0
H934 H 0.60245 0.20482 0.47802 0.0
H935 H 0.46642 0.19124 0.53338 0.0
H936 H 0.47579 0.24137 0.54163 0.0
H937 H 0.41649 0.22945 0.45582 0.0
C938 C 0.59177 0.23289 0.46653 0.0
C939 C 0.56782 0.21958 0.5696 0.0
C940 C 0.43917 0.20385 0.43489 0.0
C941 C 0.37431 0.20942 0.53757 0.0
H942 H 0.67608 0.23298 0.55758 0.0
H943 H 0.6846 0.242 0.50225 0.0
H944 H 0.59541 0.22841 0.40344 0.0
H945 H 0.51755 0.21073 0.38722 0.0
H946 H 0.32522 0.19352 0.4453 0.0
H947 H 0.28718 0.1975 0.50077 0.0
H948 H 0.38157 0.21099 0.60188 0.0
H949 H 0.48947 0.21538 0.61913 0.0
H950 H 0.4094 0.26018 0.54081 0.0
H951 H 0.35058 0.24776 0.45366 0.0
H952 H 0.5083 0.16956 0.53556 0.0
H953 H 0.6423 0.18269 0.47557 0.0
C954 C 0.68241 0.22373 0.70681 0.0
C955 C 0.63104 0.2307 0.70724 0.0
C956 C 0.62541 0.23583 0.7354 0.0
C957 C 0.67272 0.23152 0.75084 0.0
N958 N 0.70801 0.22396 0.73417 0.0
Co959 Co 0.77759 0.21452 0.74879 0.0
N960 N 0.75389 0.21666 0.79141 0.0
C961 C 0.712 0.22462 0.80173 0.0
C962 C 0.70064 0.22292 0.83164 0.0
C963 C 0.73839 0.21347 0.84094 0.0
C964 C 0.7717 0.21012 0.81619 0.0
N965 N 0.8472 0.20514 0.76344 0.0
C966 C 0.86118 0.20086 0.79144 0.0
C967 C 0.91647 0.19573 0.79183 0.0
C968 C 0.93783 0.19696 0.76329 0.0
C969 C 0.89472 0.2028 0.74704 0.0
N970 N 0.79974 0.21235 0.70598 0.0
C971 C 0.85265 0.20937 0.69592 0.0
C972 C 0.8552 0.20851 0.66519 0.0
C973 C 0.80045 0.21114 0.65533 0.0
C974 C 0.76736 0.21343 0.68068 0.0
N975 N 0.8218 0.23133 0.75062 0.0
C976 C 0.90198 0.25251 0.75169 0.0
C977 C 0.86655 0.25021 0.72655 0.0
C978 C 0.8265 0.23969 0.72658 0.0
C979 C 0.89409 0.24427 0.77653 0.0
C980 C 0.85452 0.23387 0.77548 0.0
N981 N 0.73629 0.1975 0.74733 0.0
C982 C 0.73756 0.17424 0.73549 0.0
C983 C 0.68652 0.17208 0.75155 0.0
C984 C 0.65971 0.1832 0.76425 0.0
C985 C 0.68472 0.19576 0.76155 0.0
C986 C 0.76191 0.18686 0.73404 0.0
H987 H 0.66289 0.20399 0.77166 0.0
H988 H 0.80228 0.18789 0.72251 0.0
H989 H 0.80059 0.23811 0.70681 0.0
H990 H 0.85247 0.2275 0.79453 0.0
C991 C 0.67752 0.23169 0.78196 0.0
C992 C 0.70658 0.21749 0.67982 0.0
C993 C 0.8264 0.20298 0.81868 0.0
C994 C 0.89537 0.20531 0.71607 0.0
H995 H 0.60009 0.23182 0.68934 0.0
H996 H 0.58902 0.24125 0.74415 0.0
H997 H 0.66769 0.22768 0.84492 0.0
H998 H 0.74291 0.20991 0.86371 0.0
H999 H 0.93958 0.19183 0.81092 0.0
H1000 H 0.97976 0.19393 0.75536 0.0
H1001 H 0.89186 0.20578 0.6516 0.0
H1002 H 0.78647 0.21138 0.63219 0.0
H1003 H 0.86976 0.25646 0.70696 0.0
H1004 H 0.92003 0.24551 0.79651 0.0
H1005 H 0.75891 0.16628 0.72386 0.0
H1006 H 0.62001 0.18222 0.77671 0.0
C1007 C 0.54781 0.0683 0.69798 0.0
C1008 C 0.58869 0.05835 0.69653 0.0
C1009 C 0.59634 0.0539 0.72515 0.0
C1010 C 0.5584 0.06103 0.74214 0.0
N1011 N 0.52524 0.06928 0.72598 0.0
Co1012 Co 0.46022 0.08031 0.74118 0.0
N1013 N 0.47634 0.07543 0.78387 0.0
C1014 C 0.5142 0.06618 0.79313 0.0
C1015 C 0.50912 0.06299 0.82279 0.0
C1016 C 0.46579 0.07074 0.83325 0.0
C1017 C 0.44793 0.07865 0.80949 0.0
N1018 N 0.39706 0.0919 0.75654 0.0
C1019 C 0.3846 0.09583 0.78505 0.0
C1020 C 0.34615 0.10629 0.78487 0.0
C1021 C 0.33094 0.10837 0.75564 0.0
C1022 C 0.36242 0.09946 0.73945 0.0
N1023 N 0.44405 0.08472 0.69792 0.0
C1024 C 0.39825 0.09162 0.68781 0.0
C1025 C 0.40343 0.09524 0.65834 0.0
C1026 C 0.45595 0.09071 0.64935 0.0
C1027 C 0.47996 0.08412 0.67359 0.0
N1028 N 0.40491 0.06485 0.73898 0.0
C1029 C 0.32207 0.04398 0.74428 0.0
C1030 C 0.30663 0.05659 0.73429 0.0
C1031 C 0.34794 0.0667 0.73192 0.0
C1032 C 0.38066 0.04192 0.74987 0.0
C1033 C 0.4207 0.05227 0.74689 0.0
N1034 N 0.51297 0.09588 0.74387 0.0
C1035 C 0.53231 0.11856 0.73015 0.0
C1036 C 0.57743 0.11955 0.75059 0.0
C1037 C 0.59139 0.10811 0.76697 0.0
C1038 C 0.55918 0.09638 0.76301 0.0
C1039 C 0.5008 0.10697 0.72753 0.0
H1040 H 0.57126 0.08788 0.77597 0.0
H1041 H 0.4658 0.10747 0.71232 0.0
H1042 H 0.33218 0.076 0.72466 0.0
H1043 H 0.46399 0.04975 0.75165 0.0
C1044 C 0.55192 0.06012 0.77312 0.0
C1045 C 0.53739 0.07772 0.67351 0.0
C1046 C 0.40599 0.08946 0.81265 0.0
C1047 C 0.36331 0.09846 0.70814 0.0
H1048 H 0.61315 0.05524 0.67712 0.0
H1049 H 0.6268 0.04657 0.73275 0.0
H1050 H 0.53303 0.05564 0.83517 0.0
H1051 H 0.44928 0.07044 0.85589 0.0
H1052 H 0.33065 0.1119 0.80382 0.0
H1053 H 0.30169 0.11577 0.74715 0.0
H1054 H 0.37584 0.10188 0.64597 0.0
H1055 H 0.47507 0.09311 0.62805 0.0
H1056 H 0.2626 0.05874 0.7282 0.0
H1057 H 0.39579 0.03237 0.75728 0.0
H1058 H 0.52032 0.12684 0.71618 0.0
H1059 H 0.62575 0.10824 0.78331 0.0
C1060 C 0.24444 0.95695 0.42728 0.0
C1061 C 0.22192 0.9477 0.4076 0.0
C1062 C 0.1704 0.94372 0.41924 0.0
C1063 C 0.16509 0.95029 0.44594 0.0
N1064 N 0.2097 0.95841 0.45184 0.0
Co1065 Co 0.23138 0.96514 0.49267 0.0
N1066 N 0.16412 0.95653 0.51251 0.0
C1067 C 0.11954 0.95075 0.49829 0.0
C1068 C 0.07643 0.94687 0.51731 0.0
C1069 C 0.0944 0.95057 0.54529 0.0
C1070 C 0.14809 0.95635 0.54179 0.0
N1071 N 0.25817 0.9708 0.53322 0.0
C1072 C 0.23812 0.96763 0.56077 0.0
C1073 C 0.2745 0.97221 0.58321 0.0
C1074 C 0.31759 0.97898 0.5693 0.0
C1075 C 0.30592 0.97789 0.5393 0.0
N1076 N 0.2954 0.97478 0.47272 0.0
C1077 C 0.32966 0.9839 0.48544 0.0
C1078 C 0.36395 0.99039 0.46529 0.0
C1079 C 0.35158 0.98481 0.43817 0.0
C1080 C 0.31162 0.97491 0.4436 0.0
N1081 N 0.18151 0.98127 0.48878 0.0
C1082 C 0.097 1.00169 0.49218 0.0
C1083 C 0.14919 1.00252 0.50789 0.0
C1084 C 0.19032 0.99234 0.50593 0.0
C1085 C 0.08946 0.99056 0.47393 0.0
C1086 C 0.13217 0.98084 0.47194 0.0
N1087 N 0.27857 0.94882 0.49697 0.0
C1088 C 0.36981 0.93721 0.49788 0.0
C1089 C 0.34164 0.92497 0.49927 0.0
C1090 C 0.28187 0.92499 0.49999 0.0
C1091 C 0.25161 0.93681 0.49857 0.0
C1092 C 0.33758 0.949 0.49713 0.0
H1093 H 0.20607 0.93583 0.49819 0.0
H1094 H 0.36081 0.95816 0.49641 0.0
H1095 H 0.22845 0.99358 0.51903 0.0
H1096 H 0.12316 0.9728 0.45727 0.0
C1097 C 0.12334 0.94766 0.46777 0.0
C1098 C 0.29845 0.96437 0.42221 0.0
C1099 C 0.18241 0.96152 0.56673 0.0
C1100 C 0.33549 0.9844 0.5165 0.0
H1101 H 0.24147 0.94365 0.3877 0.0
H1102 H 0.1423 0.93617 0.41036 0.0
H1103 H 0.03719 0.94172 0.51163 0.0
H1104 H 0.07075 0.94908 0.5659 0.0
H1105 H 0.26932 0.9712 0.60722 0.0
H1106 H 0.35236 0.98434 0.57984 0.0
H1107 H 0.39661 0.99771 0.46998 0.0
H1108 H 0.3728 0.98708 0.41719 0.0
H1109 H 0.15831 1.01096 0.52195 0.0
H1110 H 0.04986 0.98901 0.46174 0.0
H1111 H 0.4163 0.93767 0.49748 0.0
H1112 H 0.25815 0.9158 0.50074 0.0
C1113 C 0.53669 0.83756 0.42736 0.0
C1114 C 0.56435 0.84495 0.40551 0.0
C1115 C 0.61932 0.84716 0.41551 0.0
C1116 C 0.62199 0.84155 0.44346 0.0
N1117 N 0.57191 0.83597 0.45172 0.0
Co1118 Co 0.54992 0.83126 0.49371 0.0
N1119 N 0.61864 0.83989 0.51155 0.0
C1120 C 0.66633 0.84321 0.49615 0.0
C1121 C 0.70997 0.84761 0.51425 0.0
C1122 C 0.68885 0.84681 0.54289 0.0
C1123 C 0.633 0.84208 0.54069 0.0
N1124 N 0.52286 0.82756 0.53525 0.0
C1125 C 0.5411 0.83242 0.56194 0.0
C1126 C 0.50622 0.82804 0.58523 0.0
C1127 C 0.467 0.81959 0.57292 0.0
C1128 C 0.4791 0.81951 0.54284 0.0
N1129 N 0.48355 0.82179 0.47593 0.0
C1130 C 0.4521 0.81251 0.48988 0.0
C1131 C 0.41474 0.8061 0.4711 0.0
C1132 C 0.42263 0.81182 0.44363 0.0
C1133 C 0.46346 0.82169 0.44743 0.0
N1134 N 0.59668 0.81452 0.49277 0.0
C1135 C 0.68398 0.79456 0.49538 0.0
C1136 C 0.64825 0.79738 0.51997 0.0
C1137 C 0.6071 0.80749 0.51858 0.0
C1138 C 0.67063 0.80125 0.46855 0.0
C1139 C 0.62621 0.81072 0.46751 0.0
N1140 N 0.507 0.84809 0.49495 0.0
C1141 C 0.42053 0.86103 0.50184 0.0
C1142 C 0.45058 0.87278 0.49568 0.0
C1143 C 0.50938 0.8718 0.48985 0.0
C1144 C 0.53622 0.85954 0.48927 0.0
C1145 C 0.4495 0.8488 0.50135 0.0
H1146 H 0.58114 0.85951 0.4841 0.0
H1147 H 0.42545 0.83995 0.50609 0.0
H1148 H 0.58535 0.80953 0.53921 0.0
H1149 H 0.61768 0.81513 0.44605 0.0
C1150 C 0.66524 0.84387 0.46473 0.0
C1151 C 0.47868 0.83141 0.42425 0.0
C1152 C 0.59629 0.83916 0.5668 0.0
C1153 C 0.45051 0.81207 0.52113 0.0
H1154 H 0.54658 0.84897 0.38514 0.0
H1155 H 0.6518 0.85315 0.40471 0.0
H1156 H 0.75171 0.85124 0.50743 0.0
H1157 H 0.71219 0.84935 0.56306 0.0
H1158 H 0.51053 0.83018 0.60891 0.0
H1159 H 0.43415 0.81404 0.58458 0.0
H1160 H 0.38323 0.79869 0.47697 0.0
H1161 H 0.39924 0.80937 0.42341 0.0
H1162 H 0.65158 0.79195 0.5407 0.0
H1163 H 0.69494 0.79949 0.44828 0.0
H1164 H 0.37494 0.86126 0.50669 0.0
H1165 H 0.5352 0.88051 0.486 0.0
C1166 C 0.23998 0.83548 0.32857 0.0
C1167 C 0.21094 0.84149 0.35214 0.0
C1168 C 0.15547 0.84361 0.34268 0.0
C1169 C 0.15329 0.83919 0.31361 0.0
N1170 N 0.20416 0.8344 0.30437 0.0
Co1171 Co 0.22458 0.83024 0.26208 0.0
N1172 N 0.16007 0.84066 0.24536 0.0
C1173 C 0.11332 0.84435 0.26101 0.0
C1174 C 0.07277 0.85045 0.24353 0.0
C1175 C 0.09501 0.85037 0.21501 0.0
C1176 C 0.14842 0.84429 0.21662 0.0
N1177 N 0.24769 0.82601 0.22039 0.0
C1178 C 0.23302 0.83186 0.19417 0.0
C1179 C 0.26373 0.82636 0.1705 0.0
C1180 C 0.29569 0.81626 0.18214 0.0
C1181 C 0.284 0.8163 0.21228 0.0
N1182 N 0.28812 0.81968 0.27885 0.0
C1183 C 0.31393 0.80951 0.26512 0.0
C1184 C 0.35161 0.80295 0.28352 0.0
C1185 C 0.34955 0.80953 0.3104 0.0
C1186 C 0.31176 0.81999 0.30658 0.0
N1187 N 0.17313 0.81452 0.26246 0.0
C1188 C 0.08954 0.79403 0.26305 0.0
C1189 C 0.09853 0.80185 0.2376 0.0
C1190 C 0.14012 0.81184 0.2377 0.0
C1191 C 0.12482 0.79656 0.28815 0.0
C1192 C 0.16616 0.8068 0.28741 0.0
N1193 N 0.27319 0.84621 0.26124 0.0
C1194 C 0.35624 0.85847 0.24427 0.0
C1195 C 0.33532 0.87019 0.25741 0.0
C1196 C 0.2828 0.86936 0.27271 0.0
C1197 C 0.25219 0.85755 0.27364 0.0
C1198 C 0.32533 0.84657 0.24708 0.0
H1199 H 0.21083 0.85776 0.2843 0.0
H1200 H 0.34291 0.83776 0.23715 0.0
H1201 H 0.14431 0.81758 0.21759 0.0
H1202 H 0.19167 0.80864 0.30722 0.0
C1203 C 0.11207 0.84312 0.2924 0.0
C1204 C 0.30004 0.83023 0.32926 0.0
C1205 C 0.1831 0.84065 0.19005 0.0
C1206 C 0.31086 0.80838 0.23389 0.0
H1207 H 0.22747 0.84478 0.3734 0.0
H1208 H 0.1225 0.849 0.35462 0.0
H1209 H 0.03202 0.85453 0.25063 0.0
H1210 H 0.07344 0.85404 0.19521 0.0
H1211 H 0.26122 0.82896 0.14699 0.0
H1212 H 0.32448 0.80977 0.1701 0.0
H1213 H 0.37966 0.79485 0.27766 0.0
H1214 H 0.37455 0.80721 0.33017 0.0
H1215 H 0.0734 0.80026 0.21747 0.0
H1216 H 0.11956 0.79091 0.30856 0.0
H1217 H 0.39534 0.8584 0.23121 0.0
H1218 H 0.26454 0.87783 0.28392 0.0
C1219 C 0.53742 0.9598 0.32845 0.0
C1220 C 0.56789 0.95466 0.35257 0.0
C1221 C 0.62345 0.95278 0.34299 0.0
C1222 C 0.62421 0.95647 0.31338 0.0
N1223 N 0.57237 0.9606 0.30394 0.0
Co1224 Co 0.54986 0.96361 0.26151 0.0
N1225 N 0.61534 0.9533 0.24567 0.0
C1226 C 0.66308 0.95029 0.26126 0.0
C1227 C 0.70352 0.94392 0.24421 0.0
C1228 C 0.68008 0.94308 0.21603 0.0
C1229 C 0.62617 0.94895 0.21744 0.0
N1230 N 0.52485 0.9667 0.21969 0.0
C1231 C 0.5391 0.9602 0.19428 0.0
C1232 C 0.50715 0.96488 0.17015 0.0
C1233 C 0.47447 0.97511 0.18066 0.0
C1234 C 0.48716 0.97596 0.21063 0.0
N1235 N 0.48539 0.97408 0.27738 0.0
C1236 C 0.45765 0.98373 0.26276 0.0
C1237 C 0.41932 0.99033 0.28073 0.0
C1238 C 0.42313 0.98434 0.30827 0.0
C1239 C 0.46271 0.97418 0.30525 0.0
N1240 N 0.59873 0.97969 0.25959 0.0
C1241 C 0.67681 1.0012 0.25639 0.0
C1242 C 0.66885 0.99263 0.23213 0.0
C1243 C 0.63005 0.98211 0.23412 0.0
C1244 C 0.64416 0.99874 0.28245 0.0
C1245 C 0.6052 0.98804 0.28353 0.0
N1246 N 0.50359 0.94728 0.26279 0.0
C1247 C 0.42425 0.93382 0.24563 0.0
C1248 C 0.4483 0.92246 0.25883 0.0
C1249 C 0.49872 0.92418 0.27558 0.0
C1250 C 0.52628 0.93638 0.27642 0.0
C1251 C 0.45192 0.94613 0.24834 0.0
H1252 H 0.56691 0.93682 0.28778 0.0
H1253 H 0.4324 0.95462 0.23796 0.0
H1254 H 0.62672 0.97576 0.21496 0.0
H1255 H 0.58094 0.98641 0.30385 0.0
C1256 C 0.66537 0.95231 0.2924 0.0
C1257 C 0.47669 0.96449 0.32869 0.0
C1258 C 0.59022 0.95175 0.19091 0.0
C1259 C 0.45972 0.9842 0.23141 0.0
H1260 H 0.55237 0.95178 0.37434 0.0
H1261 H 0.65754 0.94797 0.35534 0.0
H1262 H 0.7449 0.94022 0.25141 0.0
H1263 H 0.70112 0.93896 0.19654 0.0
H1264 H 0.50953 0.9617 0.14701 0.0
H1265 H 0.44458 0.98109 0.16801 0.0
H1266 H 0.38971 0.99803 0.27421 0.0
H1267 H 0.39811 0.98681 0.32794 0.0
H1268 H 0.6937 0.99378 0.21177 0.0
H1269 H 0.64855 1.00507 0.30187 0.0
H1270 H 0.38493 0.93323 0.23274 0.0
H1271 H 0.51766 0.91615 0.28807 0.0
C1272 C 0.71254 0.56958 0.05724 0.0
C1273 C 0.67336 0.55933 0.06045 0.0
C1274 C 0.66799 0.55353 0.03285 0.0
C1275 C 0.70498 0.56031 0.01453 0.0
N1276 N 0.73358 0.56993 0.02889 0.0
Co1277 Co 0.79765 0.58034 0.01178 0.0
N1278 N 0.77179 0.57682 0.97007 0.0
C1279 C 0.73303 0.56764 0.96184 0.0
C1280 C 0.71992 0.56805 0.93189 0.0
C1281 C 0.75351 0.57789 0.92038 0.0
C1282 C 0.78644 0.58277 0.94394 0.0
N1283 N 0.86277 0.59053 0.99461 0.0
C1284 C 0.87412 0.59417 0.96581 0.0
C1285 C 0.92818 0.59993 0.96381 0.0
C1286 C 0.95122 0.5998 0.99211 0.0
C1287 C 0.91047 0.59391 0.00983 0.0
N1288 N 0.82092 0.58389 0.0541 0.0
C1289 C 0.87199 0.58886 0.06273 0.0
C1290 C 0.87021 0.59381 0.09136 0.0
C1291 C 0.8151 0.59173 0.10128 0.0
C1292 C 0.78635 0.58495 0.07881 0.0
N1293 N 0.84724 0.56433 0.01058 0.0
C1294 C 0.93168 0.54408 0.00949 0.0
C1295 C 0.89786 0.54641 0.0352 0.0
C1296 C 0.85611 0.55657 0.03531 0.0
C1297 C 0.91969 0.55168 0.98406 0.0
C1298 C 0.8779 0.56161 0.98504 0.0
N1299 N 0.75095 0.59667 0.01251 0.0
C1300 C 0.7462 0.61983 0.02475 0.0
C1301 C 0.69432 0.62137 0.00923 0.0
C1302 C 0.66951 0.6099 0.9969 0.0
C1303 C 0.6981 0.59764 0.99913 0.0
C1304 C 0.77429 0.60772 0.02519 0.0
H1305 H 0.67819 0.58904 0.98938 0.0
H1306 H 0.81585 0.60751 0.03551 0.0
H1307 H 0.83209 0.55835 0.05565 0.0
H1308 H 0.87201 0.56731 0.96503 0.0
C1309 C 0.70595 0.55971 0.98325 0.0
C1310 C 0.72791 0.57891 0.08135 0.0
C1311 C 0.83821 0.59093 0.93948 0.0
C1312 C 0.91252 0.59267 0.04112 0.0
H1313 H 0.65012 0.55651 0.08047 0.0
H1314 H 0.63862 0.54572 0.02663 0.0
H1315 H 0.68934 0.56199 0.91987 0.0
H1316 H 0.75574 0.58068 0.89698 0.0
H1317 H 0.94958 0.60352 0.94389 0.0
H1318 H 0.99261 0.60364 0.99893 0.0
H1319 H 0.90287 0.59965 0.10241 0.0
H1320 H 0.79786 0.5957 0.12182 0.0
H1321 H 0.90479 0.54072 0.0554 0.0
H1322 H 0.94287 0.55006 0.96332 0.0
H1323 H 0.76601 0.62799 0.03645 0.0
H1324 H 0.62897 0.6104 0.98505 0.0
C1325 C 0.58554 0.72566 0.04797 0.0
C1326 C 0.63667 0.7327 0.04646 0.0
C1327 C 0.63996 0.73785 0.01819 0.0
C1328 C 0.59162 0.73347 0.00373 0.0
N1329 N 0.55788 0.72586 0.02113 0.0
Co1330 Co 0.48841 0.71601 0.0078 0.0
N1331 N 0.50929 0.71805 0.96472 0.0
C1332 C 0.54917 0.72635 0.9536 0.0
C1333 C 0.55771 0.72492 0.92336 0.0
C1334 C 0.52015 0.7153 0.91471 0.0
C1335 C 0.4899 0.71153 0.94022 0.0
N1336 N 0.41914 0.7061 0.99455 0.0
C1337 C 0.40409 0.7015 0.96695 0.0
C1338 C 0.34958 0.69595 0.96764 0.0
C1339 C 0.3297 0.69727 0.99646 0.0
C1340 C 0.37291 0.70356 0.01178 0.0
N1341 N 0.46877 0.71408 0.05098 0.0
C1342 C 0.41666 0.71096 0.06193 0.0
C1343 C 0.416 0.71023 0.09271 0.0
C1344 C 0.47117 0.71306 0.10162 0.0
C1345 C 0.50263 0.71532 0.0757 0.0
N1346 N 0.44258 0.73259 0.00592 0.0
C1347 C 0.36258 0.75384 0.00431 0.0
C1348 C 0.39968 0.75191 0.02902 0.0
C1349 C 0.4395 0.74134 0.02927 0.0
C1350 C 0.36854 0.74508 0.98024 0.0
C1351 C 0.40799 0.73468 0.98156 0.0
N1352 N 0.53169 0.69924 0.00935 0.0
C1353 C 0.53702 0.67639 0.02467 0.0
C1354 C 0.58685 0.6743 0.00749 0.0
C1355 C 0.6082 0.68519 0.99135 0.0
C1356 C 0.58128 0.69755 0.99332 0.0
C1357 C 0.50981 0.68873 0.02484 0.0
H1358 H 0.60001 0.70564 0.98115 0.0
H1359 H 0.4704 0.68963 0.0373 0.0
H1360 H 0.46645 0.74002 0.04877 0.0
H1361 H 0.40879 0.72801 0.96307 0.0
C1362 C 0.58446 0.73358 0.97271 0.0
C1363 C 0.5635 0.71935 0.07542 0.0
C1364 C 0.4366 0.70377 0.939 0.0
C1365 C 0.37349 0.7064 0.0426 0.0
H1366 H 0.66909 0.73381 0.06364 0.0
H1367 H 0.67557 0.7433 0.00868 0.0
H1368 H 0.58868 0.72999 0.90939 0.0
H1369 H 0.5139 0.71184 0.89197 0.0
H1370 H 0.32593 0.69176 0.94906 0.0
H1371 H 0.28864 0.69403 0.00516 0.0
H1372 H 0.38042 0.70737 0.10694 0.0
H1373 H 0.48657 0.71338 0.12451 0.0
H1374 H 0.39686 0.75822 0.04853 0.0
H1375 H 0.3422 0.7461 0.96035 0.0
H1376 H 0.51852 0.66854 0.03793 0.0
H1377 H 0.6447 0.68427 0.97652 0.0
C1378 C 0.68157 0.72602 0.21261 0.0
C1379 C 0.6305 0.73309 0.21381 0.0
C1380 C 0.62639 0.73815 0.24214 0.0
C1381 C 0.67422 0.73369 0.25695 0.0
N1382 N 0.7084 0.72614 0.23967 0.0
Co1383 Co 0.77732 0.71622 0.25333 0.0
N1384 N 0.75453 0.71786 0.29615 0.0
C1385 C 0.71436 0.7261 0.30722 0.0
C1386 C 0.70424 0.72431 0.33722 0.0
C1387 C 0.74104 0.71452 0.34575 0.0
C1388 C 0.77248 0.71101 0.32044 0.0
N1389 N 0.84615 0.7063 0.26681 0.0
C1390 C 0.85985 0.70139 0.29427 0.0
C1391 C 0.91477 0.69603 0.294 0.0
C1392 C 0.93609 0.69777 0.26559 0.0
C1393 C 0.89337 0.70411 0.25006 0.0
N1394 N 0.79863 0.71464 0.21031 0.0
C1395 C 0.85125 0.71175 0.19975 0.0
C1396 C 0.85286 0.71115 0.16895 0.0
C1397 C 0.79775 0.71383 0.15966 0.0
C1398 C 0.76541 0.71587 0.18537 0.0
N1399 N 0.82308 0.73278 0.25661 0.0
C1400 C 0.90599 0.75339 0.25906 0.0
C1401 C 0.86979 0.75173 0.23395 0.0
C1402 C 0.82862 0.74145 0.23322 0.0
C1403 C 0.89643 0.745 0.28352 0.0
C1404 C 0.85562 0.73487 0.28181 0.0
N1405 N 0.73443 0.69945 0.25056 0.0
C1406 C 0.73128 0.67662 0.235 0.0
C1407 C 0.68087 0.67434 0.25157 0.0
C1408 C 0.65786 0.68514 0.26738 0.0
C1409 C 0.6841 0.69759 0.26584 0.0
C1410 C 0.75764 0.68904 0.23523 0.0
H1411 H 0.66438 0.70561 0.27784 0.0
H1412 H 0.7976 0.6901 0.22331 0.0
H1413 H 0.80273 0.74025 0.21329 0.0
H1414 H 0.85234 0.72842 0.30081 0.0
C1415 C 0.68009 0.73356 0.28805 0.0
C1416 C 0.70431 0.71971 0.18531 0.0
C1417 C 0.82538 0.70311 0.32179 0.0
C1418 C 0.89398 0.7072 0.21936 0.0
H1419 H 0.59858 0.73425 0.1964 0.0
H1420 H 0.59047 0.74354 0.25147 0.0
H1421 H 0.67261 0.72923 0.35106 0.0
H1422 H 0.74579 0.71073 0.36831 0.0
H1423 H 0.93774 0.69166 0.3126 0.0
H1424 H 0.97773 0.69473 0.25727 0.0
H1425 H 0.88901 0.70847 0.15495 0.0
H1426 H 0.78298 0.71419 0.13665 0.0
H1427 H 0.87449 0.75805 0.21454 0.0
H1428 H 0.92098 0.7461 0.30399 0.0
H1429 H 0.75094 0.66883 0.22199 0.0
H1430 H 0.62064 0.68407 0.28166 0.0
C1431 C 0.56654 0.56858 0.20317 0.0
C1432 C 0.60437 0.55807 0.20032 0.0
C1433 C 0.60873 0.55239 0.22816 0.0
C1434 C 0.57204 0.55946 0.24612 0.0
N1435 N 0.54473 0.56911 0.23129 0.0
Co1436 Co 0.47944 0.57942 0.24709 0.0
N1437 N 0.5037 0.57635 0.28918 0.0
C1438 C 0.5421 0.56724 0.29823 0.0
C1439 C 0.55341 0.56784 0.32837 0.0
C1440 C 0.51896 0.57771 0.33907 0.0
C1441 C 0.4874 0.58243 0.31487 0.0
N1442 N 0.41292 0.58948 0.26289 0.0
C1443 C 0.40027 0.59343 0.2913 0.0
C1444 C 0.3458 0.59903 0.29236 0.0
C1445 C 0.32381 0.59844 0.26384 0.0
C1446 C 0.36559 0.59246 0.24693 0.0
N1447 N 0.45784 0.58246 0.20439 0.0
C1448 C 0.40612 0.58663 0.19485 0.0
C1449 C 0.40718 0.59044 0.16534 0.0
C1450 C 0.46273 0.58853 0.15583 0.0
C1451 C 0.49298 0.58322 0.17984 0.0
N1452 N 0.43113 0.56321 0.2485 0.0
C1453 C 0.35046 0.54217 0.24995 0.0
C1454 C 0.38387 0.54475 0.22422 0.0
C1455 C 0.42402 0.55522 0.224 0.0
C1456 C 0.36028 0.55011 0.2751 0.0
C1457 C 0.40008 0.56046 0.27391 0.0
N1458 N 0.52488 0.5959 0.24611 0.0
C1459 C 0.52827 0.61895 0.23287 0.0
C1460 C 0.57887 0.62089 0.24929 0.0
C1461 C 0.60398 0.60966 0.26254 0.0
C1462 C 0.57673 0.59724 0.26033 0.0
C1463 C 0.50141 0.60669 0.23242 0.0
H1464 H 0.59675 0.58883 0.27083 0.0
H1465 H 0.46061 0.60614 0.2213 0.0
H1466 H 0.44844 0.557 0.2038 0.0
H1467 H 0.40405 0.56647 0.2936 0.0
C1468 C 0.56989 0.55907 0.27746 0.0
C1469 C 0.55334 0.57813 0.17918 0.0
C1470 C 0.43511 0.59053 0.31824 0.0
C1471 C 0.36448 0.59062 0.21574 0.0
H1472 H 0.62796 0.55514 0.18049 0.0
H1473 H 0.63724 0.54449 0.23475 0.0
H1474 H 0.58315 0.56183 0.34107 0.0
H1475 H 0.51515 0.58058 0.36237 0.0
H1476 H 0.3234 0.60279 0.31181 0.0
H1477 H 0.28235 0.60198 0.25637 0.0
H1478 H 0.37324 0.59532 0.15301 0.0
H1479 H 0.47836 0.59155 0.13419 0.0
H1480 H 0.37901 0.53875 0.20431 0.0
H1481 H 0.33581 0.54864 0.2955 0.0
H1482 H 0.50851 0.62691 0.22049 0.0
H1483 H 0.64364 0.61047 0.27509 0.0
C1484 C 0.25201 0.46458 0.93196 0.0
C1485 C 0.22067 0.46265 0.90587 0.0
C1486 C 0.16495 0.46023 0.91451 0.0
C1487 C 0.16523 0.46087 0.94531 0.0
N1488 N 0.21757 0.46355 0.95652 0.0
Co1489 Co 0.23713 0.46504 0.9998 0.0
N1490 N 0.16635 0.45556 0.01251 0.0
C1491 C 0.11975 0.45361 0.99512 0.0
C1492 C 0.07532 0.44764 0.01014 0.0
C1493 C 0.09472 0.44594 0.03892 0.0
C1494 C 0.15025 0.45094 0.03989 0.0
N1495 N 0.25838 0.46648 0.04289 0.0
C1496 C 0.23761 0.45997 0.06711 0.0
C1497 C 0.26824 0.4633 0.09281 0.0
C1498 C 0.30754 0.47263 0.08459 0.0
C1499 C 0.29951 0.47434 0.0544 0.0
N1500 N 0.30772 0.47459 0.98691 0.0
C1501 C 0.34203 0.48192 0.00461 0.0
C1502 C 0.39063 0.48624 0.99026 0.0
C1503 C 0.38695 0.48131 0.96179 0.0
C1504 C 0.33544 0.47443 0.96008 0.0
N1505 N 0.19324 0.48186 1.00261 0.0
C1506 C 0.11397 0.50323 0.00446 0.0
C1507 C 0.12065 0.49463 0.02878 0.0
C1508 C 0.15993 0.48418 0.02744 0.0
C1509 C 0.15024 0.50116 0.97951 0.0
C1510 C 0.18972 0.49055 0.97914 0.0
N1511 N 0.27833 0.44805 0.99739 0.0
C1512 C 0.35648 0.43374 0.01212 0.0
C1513 C 0.33038 0.42295 0.99789 0.0
C1514 C 0.27857 0.42511 0.98274 0.0
C1515 C 0.25313 0.43762 0.98301 0.0
C1516 C 0.33017 0.44621 0.01132 0.0
H1517 H 0.21231 0.43874 0.97196 0.0
H1518 H 0.3514 0.45429 0.02239 0.0
H1519 H 0.1614 0.47771 0.04642 0.0
H1520 H 0.21593 0.48911 0.95941 0.0
C1521 C 0.12108 0.45661 0.9644 0.0
C1522 C 0.3134 0.46818 0.93256 0.0
C1523 C 0.18301 0.45268 0.06792 0.0
C1524 C 0.33527 0.48166 0.03565 0.0
H1525 H 0.23649 0.46292 0.88305 0.0
H1526 H 0.12919 0.45771 0.90009 0.0
H1527 H 0.03374 0.44487 1.00127 0.0
H1528 H 0.07008 0.44187 0.05729 0.0
H1529 H 0.26123 0.45974 0.11541 0.0
H1530 H 0.33903 0.47737 0.09883 0.0
H1531 H 0.4267 0.49146 0.99997 0.0
H1532 H 0.41943 0.48241 0.94463 0.0
H1533 H 0.09497 0.49582 0.04886 0.0
H1534 H 0.14692 0.50738 0.95989 0.0
H1535 H 0.39704 0.43255 0.02373 0.0
H1536 H 0.25692 0.41708 0.97143 0.0
C1537 C 0.51077 0.32895 0.93398 0.0
C1538 C 0.54124 0.33118 0.90775 0.0
C1539 C 0.59707 0.33373 0.91604 0.0
C1540 C 0.59777 0.33287 0.94682 0.0
N1541 N 0.54596 0.32992 0.95833 0.0
Co1542 Co 0.52781 0.32821 1.00178 0.0
N1543 N 0.59829 0.33789 0.0143 0.0
C1544 C 0.64422 0.34007 0.99657 0.0
C1545 C 0.68899 0.34597 0.01145 0.0
C1546 C 0.67058 0.34737 0.0405 0.0
C1547 C 0.61526 0.34228 0.0418 0.0
N1548 N 0.50768 0.32657 0.04503 0.0
C1549 C 0.52884 0.33298 0.06933 0.0
C1550 C 0.49865 0.32954 0.09508 0.0
C1551 C 0.45942 0.3202 0.08686 0.0
C1552 C 0.46698 0.31861 0.05659 0.0
N1553 N 0.45749 0.31847 0.98909 0.0
C1554 C 0.42399 0.311 0.00692 0.0
C1555 C 0.37509 0.30664 0.99292 0.0
C1556 C 0.37761 0.31171 0.96456 0.0
C1557 C 0.42882 0.31869 0.96251 0.0
N1558 N 0.5732 0.31154 0.00397 0.0
C1559 C 0.65654 0.29096 0.00433 0.0
C1560 C 0.64886 0.29928 0.02906 0.0
C1561 C 0.60742 0.30931 0.02851 0.0
C1562 C 0.61903 0.29282 0.97981 0.0
C1563 C 0.57764 0.30306 0.98014 0.0
N1564 N 0.48548 0.34507 0.99982 0.0
C1565 C 0.4059 0.35908 0.01405 0.0
C1566 C 0.43097 0.36991 0.99942 0.0
C1567 C 0.4832 0.36792 0.98456 0.0
C1568 C 0.50984 0.35557 0.98528 0.0
C1569 C 0.43348 0.34674 0.01371 0.0
H1570 H 0.5508 0.35461 0.97431 0.0
H1571 H 0.41299 0.33861 0.02499 0.0
H1572 H 0.6052 0.31557 0.04781 0.0
H1573 H 0.55074 0.30441 0.96064 0.0
C1574 C 0.64209 0.33721 0.96575 0.0
C1575 C 0.44949 0.32515 0.93491 0.0
C1576 C 0.58354 0.34025 0.07012 0.0
C1577 C 0.43133 0.31125 0.03792 0.0
H1578 H 0.52474 0.33103 0.88505 0.0
H1579 H 0.6322 0.3365 0.90144 0.0
H1580 H 0.73022 0.34886 1.00233 0.0
H1581 H 0.69578 0.3513 0.05883 0.0
H1582 H 0.50598 0.33299 0.11773 0.0
H1583 H 0.42834 0.31534 0.10114 0.0
H1584 H 0.33944 0.30136 1.00287 0.0
H1585 H 0.34441 0.31067 0.94777 0.0
H1586 H 0.67543 0.2982 0.04885 0.0
H1587 H 0.62288 0.28675 0.95996 0.0
H1588 H 0.36513 0.36013 0.02553 0.0
H1589 H 0.5042 0.37599 0.97303 0.0
C1590 C 0.23839 0.33212 0.8296 0.0
C1591 C 0.21255 0.33652 0.85578 0.0
C1592 C 0.1612 0.34206 0.84766 0.0
C1593 C 0.15803 0.34066 0.81707 0.0
N1594 N 0.20399 0.33437 0.80534 0.0
Co1595 Co 0.2168 0.33057 0.76169 0.0
N1596 N 0.15093 0.34199 0.7486 0.0
C1597 C 0.11668 0.34907 0.767 0.0
C1598 C 0.0813 0.35761 0.75197 0.0
C1599 C 0.09398 0.35592 0.72221 0.0
C1600 C 0.13566 0.34617 0.72058 0.0
N1601 N 0.22847 0.32605 0.71854 0.0
C1602 C 0.19583 0.32911 0.69439 0.0
C1603 C 0.20783 0.3208 0.67037 0.0
C1604 C 0.25271 0.31304 0.6789 0.0
C1605 C 0.26385 0.31663 0.70791 0.0
N1606 N 0.28568 0.32001 0.77434 0.0
C1607 C 0.32064 0.31311 0.7559 0.0
C1608 C 0.37054 0.30899 0.76912 0.0
C1609 C 0.36806 0.31372 0.79766 0.0
C1610 C 0.31573 0.3202 0.80059 0.0
N1611 N 0.16365 0.31479 0.76472 0.0
C1612 C 0.08212 0.29368 0.76068 0.0
C1613 C 0.14077 0.2917 0.75464 0.0
C1614 C 0.18049 0.30222 0.75718 0.0
C1615 C 0.0661 0.30626 0.77017 0.0
C1616 C 0.10669 0.31646 0.77201 0.0
N1617 N 0.26731 0.34642 0.7584 0.0
C1618 C 0.34709 0.35864 0.73673 0.0
C1619 C 0.33429 0.3697 0.75453 0.0
C1620 C 0.28726 0.36885 0.77372 0.0
C1621 C 0.2548 0.35736 0.77522 0.0
C1622 C 0.31339 0.34707 0.73919 0.0
H1623 H 0.2193 0.35767 0.79019 0.0
H1624 H 0.32481 0.33873 0.72551 0.0
H1625 H 0.22449 0.29996 0.75272 0.0
H1626 H 0.09006 0.32568 0.77896 0.0
C1627 C 0.12025 0.34766 0.79833 0.0
C1628 C 0.2966 0.32639 0.82872 0.0
C1629 C 0.15844 0.34074 0.69221 0.0
C1630 C 0.30738 0.31146 0.72571 0.0
H1631 H 0.23004 0.33622 0.87826 0.0
H1632 H 0.13168 0.34732 0.86211 0.0
H1633 H 0.0508 0.36448 0.76153 0.0
H1634 H 0.07487 0.3614 0.704 0.0
H1635 H 0.1877 0.32066 0.64849 0.0
H1636 H 0.27458 0.30568 0.66556 0.0
H1637 H 0.40573 0.30369 0.75882 0.0
H1638 H 0.40188 0.31272 0.81412 0.0
H1639 H 0.15621 0.28205 0.74822 0.0
H1640 H 0.02164 0.30839 0.7755 0.0
H1641 H 0.38318 0.35887 0.72141 0.0
H1642 H 0.27499 0.37718 0.78753 0.0
C1643 C 0.51679 0.46403 0.82277 0.0
C1644 C 0.54927 0.46214 0.84848 0.0
C1645 C 0.6048 0.45997 0.83923 0.0
C1646 C 0.60328 0.46069 0.80846 0.0
N1647 N 0.55032 0.46316 0.79781 0.0
Co1648 Co 0.52936 0.46483 0.75471 0.0
N1649 N 0.60115 0.45601 0.74102 0.0
C1650 C 0.64852 0.45429 0.75795 0.0
C1651 C 0.69337 0.44882 0.74234 0.0
C1652 C 0.67338 0.44719 0.71364 0.0
C1653 C 0.61714 0.45174 0.71331 0.0
N1654 N 0.50659 0.46636 0.7118 0.0
C1655 C 0.5272 0.46004 0.68727 0.0
C1656 C 0.4947 0.46304 0.66202 0.0
C1657 C 0.45433 0.47202 0.67078 0.0
C1658 C 0.46359 0.47382 0.70086 0.0
N1659 N 0.45784 0.47379 0.76844 0.0
C1660 C 0.42188 0.4809 0.75116 0.0
C1661 C 0.37343 0.48493 0.76605 0.0
C1662 C 0.37897 0.48007 0.79447 0.0
C1663 C 0.43136 0.47352 0.7956 0.0
N1664 N 0.57093 0.482 0.7524 0.0
C1665 C 0.6496 0.50351 0.75092 0.0
C1666 C 0.64214 0.49516 0.72622 0.0
C1667 C 0.60326 0.48463 0.72745 0.0
C1668 C 0.6141 0.50116 0.77607 0.0
C1669 C 0.57487 0.49047 0.77625 0.0
N1670 N 0.49077 0.4475 0.75667 0.0
C1671 C 0.41355 0.4327 0.74289 0.0
C1672 C 0.44273 0.42192 0.75548 0.0
C1673 C 0.49622 0.42433 0.76883 0.0
C1674 C 0.51917 0.43708 0.76928 0.0
C1675 C 0.43802 0.44539 0.74391 0.0
H1676 H 0.5607 0.4384 0.77945 0.0
H1677 H 0.41453 0.45343 0.73402 0.0
H1678 H 0.60162 0.47825 0.70845 0.0
H1679 H 0.54945 0.48878 0.79616 0.0
C1680 C 0.64749 0.45696 0.78884 0.0
C1681 C 0.4553 0.46755 0.82296 0.0
C1682 C 0.58321 0.45337 0.68563 0.0
C1683 C 0.42745 0.48077 0.72007 0.0
H1684 H 0.53437 0.46235 0.87148 0.0
H1685 H 0.64137 0.45764 0.85325 0.0
H1686 H 0.73554 0.44628 0.75078 0.0
H1687 H 0.698 0.44344 0.6949 0.0
H1688 H 0.50131 0.45958 0.63931 0.0
H1689 H 0.42136 0.47647 0.65699 0.0
H1690 H 0.33642 0.48994 0.75677 0.0
H1691 H 0.34721 0.48103 0.81204 0.0
H1692 H 0.66714 0.49655 0.70598 0.0
H1693 H 0.61799 0.50719 0.79598 0.0
H1694 H 0.37186 0.43136 0.73252 0.0
H1695 H 0.52095 0.41635 0.77847 0.0
C1696 C 0.12519 0.08328 0.09986 0.0
C1697 C 0.1847 0.08281 0.10622 0.0
C1698 C 0.08302 0.08233 0.12253 0.0
C1699 C 0.09739 0.08248 0.15326 0.0
H1700 H 0.1108 0.08338 0.07676 0.0
H1701 H 0.03952 0.08057 0.11534 0.0
S1702 S 0.24633 0.08101 0.18315 0.0
N1703 N 0.25462 0.08027 0.14645 0.0
N1704 N 0.17684 0.08303 0.18872 0.0
C1705 C 0.15687 0.08301 0.16005 0.0
C1706 C 0.19988 0.08216 0.13687 0.0
C1707 C 0.14746 0.23073 0.14091 0.0
C1708 C 0.16745 0.21904 0.15433 0.0
C1709 C 0.10998 0.23048 0.11616 0.0
C1710 C 0.09343 0.21855 0.10251 0.0
H1711 H 0.16019 0.24019 0.14996 0.0
H1712 H 0.09463 0.23976 0.10725 0.0
S1713 S 0.13514 0.18517 0.1282 0.0
N1714 N 0.16739 0.19516 0.15217 0.0
N1715 N 0.10019 0.19472 0.10434 0.0
C1716 C 0.11371 0.20679 0.11539 0.0
C1717 C 0.15052 0.20703 0.14128 0.0
C1718 C 0.86419 0.96434 0.8524 0.0
C1719 C 0.92384 0.96543 0.85784 0.0
C1720 C 0.82364 0.9648 0.87575 0.0
C1721 C 0.84025 0.96434 0.9061 0.0
H1722 H 0.84811 0.96394 0.82963 0.0
H1723 H 0.77953 0.96635 0.86942 0.0
S1724 S 0.99127 0.96576 0.9333 0.0
N1725 N 0.99694 0.96726 0.89656 0.0
N1726 N 0.92223 0.96355 0.94009 0.0
C1727 C 0.90018 0.96411 0.91188 0.0
C1728 C 0.94131 0.96563 0.88807 0.0
C1729 C 0.83115 0.83101 0.88477 0.0
C1730 C 0.84505 0.83049 0.854 0.0
C1731 C 0.87369 0.83221 0.90719 0.0
C1732 C 0.93313 0.83133 0.90075 0.0
H1733 H 0.78767 0.82954 0.8923 0.0
H1734 H 0.85955 0.83277 0.93031 0.0
S1735 S 0.99369 0.82824 0.82379 0.0
N1736 N 0.92415 0.83022 0.81829 0.0
N1737 N 1.00246 0.82813 0.8605 0.0
C1738 C 0.94787 0.83021 0.87011 0.0
C1739 C 0.90453 0.83073 0.847 0.0
C1740 C 0.18372 0.57988 0.63256 0.0
C1741 C 0.16961 0.58004 0.60179 0.0
C1742 C 0.14147 0.58089 0.65517 0.0
C1743 C 0.08194 0.58042 0.6488 0.0
H1744 H 0.22709 0.57806 0.63984 0.0
H1745 H 0.15585 0.58102 0.67828 0.0
S1746 S 0.02065 0.57875 0.57178 0.0
N1747 N 0.09026 0.58062 0.56627 0.0
N1748 N 0.01214 0.57805 0.60847 0.0
C1749 C 0.06691 0.57981 0.61812 0.0
C1750 C 0.11012 0.58058 0.59495 0.0
C1751 C 0.12929 0.72956 0.61248 0.0
C1752 C 0.10761 0.718 0.59915 0.0
C1753 C 0.16546 0.72906 0.63773 0.0
C1754 C 0.1793 0.71703 0.65168 0.0
H1755 H 0.11816 0.73909 0.6033 0.0
H1756 H 0.18135 0.73822 0.64703 0.0
S1757 S 0.13263 0.68396 0.62624 0.0
N1758 N 0.10321 0.69414 0.60173 0.0
N1759 N 0.16852 0.69327 0.65022 0.0
C1760 C 0.15775 0.70541 0.63874 0.0
C1761 C 0.12203 0.70589 0.6125 0.0
C1762 C 0.87351 0.46009 0.3485 0.0
C1763 C 0.93274 0.46114 0.35531 0.0
C1764 C 0.83055 0.46087 0.37077 0.0
C1765 C 0.844 0.461 0.4016 0.0
H1766 H 0.85978 0.45983 0.32529 0.0
H1767 H 0.7872 0.46236 0.36313 0.0
S1768 S 0.9919 0.46308 0.43273 0.0
N1769 N 1.00122 0.46392 0.39612 0.0
N1770 N 0.92244 0.46071 0.43771 0.0
C1771 C 0.90334 0.46067 0.40888 0.0
C1772 C 0.94697 0.46177 0.38606 0.0
C1773 C 0.8999 0.3338 0.35042 0.0
C1774 C 0.8409 0.3324 0.35748 0.0
C1775 C 0.94338 0.33349 0.37255 0.0
C1776 C 0.93057 0.33322 0.40349 0.0
H1777 H 0.91314 0.33416 0.32713 0.0
H1778 H 0.98704 0.33255 0.36479 0.0
S1779 S 0.78365 0.32939 0.43513 0.0
N1780 N 0.77363 0.3289 0.39852 0.0
N1781 N 0.85288 0.33219 0.43991 0.0
C1782 C 0.87138 0.33272 0.41101 0.0
C1783 C 0.82743 0.33148 0.38831 0.0
C1784 C 0.6144 0.08024 0.5966 0.0
C1785 C 0.6736 0.07975 0.60378 0.0
C1786 C 0.5711 0.07935 0.61865 0.0
C1787 C 0.58375 0.07982 0.64957 0.0
H1788 H 0.60106 0.08038 0.57332 0.0
H1789 H 0.52782 0.07758 0.61097 0.0
S1790 S 0.73092 0.07847 0.6817 0.0
N1791 N 0.7411 0.07727 0.64519 0.0
N1792 N 0.66128 0.08075 0.68613 0.0
C1793 C 0.64283 0.08039 0.6572 0.0
C1794 C 0.68705 0.07923 0.63469 0.0
C1795 C 0.61865 0.20709 0.61097 0.0
C1796 C 0.60304 0.2192 0.5979 0.0
C1797 C 0.65336 0.20655 0.63695 0.0
C1798 C 0.67411 0.21812 0.65065 0.0
H1799 H 0.60394 0.19796 0.601 0.0
H1800 H 0.66344 0.19705 0.64663 0.0
S1801 S 0.64563 0.25229 0.62533 0.0
N1802 N 0.60911 0.24303 0.60159 0.0
N1803 N 0.67822 0.242 0.64839 0.0
C1804 C 0.65976 0.23025 0.63736 0.0
C1805 C 0.62292 0.23081 0.6117 0.0
C1806 C 0.40096 0.96121 0.40525 0.0
C1807 C 0.342 0.96151 0.39771 0.0
C1808 C 0.44431 0.96208 0.38335 0.0
C1809 C 0.43168 0.96152 0.35248 0.0
H1810 H 0.41383 0.96159 0.4286 0.0
H1811 H 0.48705 0.96425 0.39115 0.0
S1812 S 0.28465 0.96087 0.31995 0.0
N1813 N 0.27377 0.96212 0.35641 0.0
N1814 N 0.35488 0.95968 0.31565 0.0
C1815 C 0.37289 0.96036 0.34462 0.0
C1816 C 0.32838 0.9612 0.36693 0.0
C1817 C 0.37661 0.83466 0.40588 0.0
C1818 C 0.43573 0.83366 0.39879 0.0
C1819 C 0.33321 0.83356 0.38392 0.0
C1820 C 0.34592 0.83312 0.35301 0.0
H1821 H 0.36336 0.83513 0.42915 0.0
H1822 H 0.29004 0.83207 0.3919 0.0
S1823 S 0.49336 0.8311 0.32116 0.0
N1824 N 0.50364 0.83083 0.35776 0.0
N1825 N 0.42356 0.83301 0.31643 0.0
C1826 C 0.4051 0.83338 0.34535 0.0
C1827 C 0.44935 0.83277 0.36799 0.0
C1828 C 0.62625 0.5814 0.10114 0.0
C1829 C 0.68573 0.58058 0.10744 0.0
C1830 C 0.584 0.58045 0.12375 0.0
C1831 C 0.59815 0.5805 0.15452 0.0
H1832 H 0.61178 0.58173 0.07806 0.0
H1833 H 0.54059 0.57877 0.11641 0.0
S1834 S 0.74701 0.57834 0.18439 0.0
N1835 N 0.75523 0.57756 0.1477 0.0
N1836 N 0.67774 0.58073 0.18995 0.0
C1837 C 0.65773 0.58078 0.1613 0.0
C1838 C 0.70073 0.57975 0.1381 0.0
C1839 C 0.65173 0.70789 0.14341 0.0
C1840 C 0.66995 0.71978 0.15665 0.0
C1841 C 0.61674 0.7078 0.11749 0.0
C1842 C 0.59826 0.7196 0.10396 0.0
H1843 H 0.66429 0.69858 0.15332 0.0
H1844 H 0.60429 0.69843 0.10784 0.0
S1845 S 0.63382 0.75337 0.12988 0.0
N1846 N 0.66893 0.74365 0.15324 0.0
N1847 N 0.5989 0.7435 0.10676 0.0
C1848 C 0.61541 0.73153 0.11736 0.0
C1849 C 0.65265 0.73162 0.14293 0.0
C1850 C 0.40264 0.45607 0.86542 0.0
C1851 C 0.42138 0.46784 0.8518 0.0
C1852 C 0.36724 0.45623 0.89122 0.0
C1853 C 0.34887 0.46816 0.90423 0.0
H1854 H 0.41496 0.44668 0.85587 0.0
H1855 H 0.35428 0.44696 0.90113 0.0
S1856 S 0.38551 0.50167 0.87706 0.0
N1857 N 0.42053 0.49173 0.85413 0.0
N1858 N 0.35038 0.49203 0.90058 0.0
C1859 C 0.3667 0.47996 0.8905 0.0
C1860 C 0.40415 0.4798 0.865 0.0
C1861 C 0.35512 0.33763 0.86979 0.0
C1862 C 0.33443 0.32594 0.85643 0.0
C1863 C 0.39306 0.33733 0.89464 0.0
C1864 C 0.41251 0.32534 0.90695 0.0
H1865 H 0.34205 0.34708 0.86085 0.0
H1866 H 0.4069 0.34656 0.90447 0.0
S1867 S 0.37278 0.29199 0.87988 0.0
N1868 N 0.33545 0.30204 0.85827 0.0
N1869 N 0.41051 0.30151 0.90255 0.0
C1870 C 0.39332 0.31363 0.89326 0.0
C1871 C 0.35315 0.31392 0.86884 0.0
C1872 C 0.46579 1.02207 0.02216 0.0
C1873 C 0.47947 0.03496 0.01278 0.0
C1874 C 0.50595 1.01167 0.01998 0.0
C1875 C 0.56174 1.01362 0.00821 0.0
H1876 H 0.42319 1.01991 0.03063 0.0
H1877 H 0.49275 1.00193 0.0271 0.0
S1878 S 0.62188 0.04574 0.98383 0.0
N1879 N 0.55518 0.04921 0.99366 0.0
N1880 N 0.6296 0.02975 0.98927 0.0
C1881 C 0.57643 0.02651 0.99949 0.0
C1882 C 0.53576 0.03711 1.00187 0.0
C1883 C 0.75955 0.28396 0.01564 0.0
C1884 C 0.70432 0.28078 0.00442 0.0
C1885 C 0.80473 0.27464 0.0166 0.0
C1886 C 0.79725 0.26161 0.00632 0.0
H1887 H 0.76833 0.29386 0.02347 0.0
H1888 H 0.84626 0.27775 0.02496 0.0
S1889 S 0.65987 0.24768 0.97762 0.0
N1890 N 0.64439 0.26325 0.98463 0.0
N1891 N 0.72829 0.24584 0.98648 0.0
C1892 C 0.74192 0.25822 0.99561 0.0
C1893 C 0.69598 0.26773 0.9946 0.0
C1894 C 0.49034 0.26605 0.23542 0.0
C1895 C 0.4502 0.26456 0.25886 0.0
C1896 C 0.53624 0.27515 0.23728 0.0
C1897 C 0.54441 0.28335 0.26262 0.0
H1898 H 0.48702 0.25992 0.21561 0.0
H1899 H 0.56601 0.27566 0.21865 0.0
S1900 S 0.44847 0.28416 0.32927 0.0
N1901 N 0.42034 0.2726 0.30777 0.0
N1902 N 0.50535 0.28971 0.31106 0.0
C1903 C 0.50398 0.28207 0.28606 0.0
C1904 C 0.45739 0.27274 0.28422 0.0
C1905 C 0.76011 1.01445 0.27772 0.0
C1906 C 0.72022 1.01226 0.25444 0.0
C1907 C 0.80308 0.02425 0.27554 0.0
C1908 C 0.80843 0.03241 0.24997 0.0
H1909 H 0.75889 1.00835 0.29764 0.0
H1910 H 0.83285 0.02535 0.29404 0.0
S1911 S 0.71135 0.03165 0.18385 0.0
N1912 N 0.68693 1.01976 0.20566 0.0
N1913 N 0.76697 0.03805 0.20165 0.0
C1914 C 0.76816 0.03047 0.22675 0.0
C1915 C 0.72441 1.02049 0.22897 0.0
C1916 C 0.26197 0.76184 0.99085 0.0
C1917 C 0.31677 0.76449 0.00332 0.0
C1918 C 0.21875 0.77158 0.98876 0.0
C1919 C 0.2277 0.7845 0.9993 0.0
H1920 H 0.25187 0.75203 0.98286 0.0
H1921 H 0.17747 0.76888 0.97936 0.0
S1922 S 0.36426 0.79714 0.03168 0.0
N1923 N 0.37788 0.78148 0.0247 0.0
N1924 N 0.29702 0.79959 0.02127 0.0
C1925 C 0.28236 0.78737 0.0115 0.0
C1926 C 0.32653 0.77746 0.01345 0.0
C1927 C 0.50799 0.77931 0.78181 0.0
C1928 C 0.5482 0.78068 0.75831 0.0
C1929 C 0.46225 0.77014 0.78024 0.0
C1930 C 0.45413 0.76191 0.75501 0.0
H1931 H 0.51114 0.78556 0.80142 0.0
H1932 H 0.43255 0.7696 0.7989 0.0
S1933 S 0.55062 0.76044 0.68876 0.0
N1934 N 0.57887 0.7721 0.70993 0.0
N1935 N 0.49321 0.75517 0.70693 0.0
C1936 C 0.49462 0.763 0.73164 0.0
C1937 C 0.54137 0.77225 0.73331 0.0
C1938 C 0.2506 1.00964 0.74485 0.0
C1939 C 0.19554 1.01191 0.75708 0.0
C1940 C 0.29067 1.01995 0.74069 0.0
C1941 C 0.27804 0.03311 0.74873 0.0
H1942 H 0.26259 0.99979 0.73794 0.0
H1943 H 0.33177 1.01758 0.73067 0.0
S1944 S 0.14187 0.04417 0.7845 0.0
N1945 N 0.13182 0.02828 0.77869 0.0
N1946 N 0.20684 0.04749 0.77165 0.0
C1947 C 0.2234 0.03545 0.76157 0.0
C1948 C 0.18244 0.02495 0.76553 0.0
C1949 C 0.54733 0.51971 0.52317 0.0
C1950 C 0.55311 0.5115 0.4977 0.0
C1951 C 0.50307 0.52919 0.52552 0.0
C1952 C 0.46223 0.53098 0.50252 0.0
H1953 H 0.57772 0.51889 0.54147 0.0
H1954 H 0.50157 0.53536 0.54532 0.0
S1955 S 0.45413 0.51125 0.43236 0.0
N1956 N 0.51115 0.50536 0.44983 0.0
N1957 N 0.42863 0.52303 0.45415 0.0
C1958 C 0.46686 0.52268 0.47717 0.0
C1959 C 0.51196 0.51304 0.47477 0.0
C1960 C 0.7521 0.77766 0.4719 0.0
C1961 C 0.73347 0.78467 0.49747 0.0
C1962 C 0.79715 0.76837 0.47308 0.0
C1963 C 0.82542 0.76498 0.50015 0.0
H1964 H 0.73139 0.77914 0.45046 0.0
H1965 H 0.80949 0.76383 0.45212 0.0
S1966 S 0.79652 0.7809 0.57394 0.0
N1967 N 0.75251 0.78841 0.55059 0.0
N1968 N 0.83068 0.76984 0.55356 0.0
C1969 C 0.80764 0.77198 0.526 0.0
C1970 C 0.7634 0.78195 0.52452 0.0
C1971 C 0.79329 0.52128 0.73526 0.0
C1972 C 0.78504 0.53407 0.74673 0.0
C1973 C 0.74985 0.51157 0.73703 0.0
C1974 C 0.69555 0.51412 0.75016 0.0
H1975 H 0.83419 0.51865 0.72534 0.0
H1976 H 0.75937 0.50186 0.72829 0.0
S1977 S 0.64974 0.54643 0.78106 0.0
N1978 N 0.71669 0.54896 0.77021 0.0
N1979 N 0.63555 0.53088 0.77321 0.0
C1980 C 0.68644 0.52696 0.76125 0.0
C1981 C 0.73079 0.53685 0.75956 0.0
C1982 C 0.2738 0.2834 0.46955 0.0
C1983 C 0.23763 0.28595 0.49427 0.0
C1984 C 0.31759 0.27376 0.47085 0.0
C1985 C 0.32754 0.26617 0.49693 0.0
H1986 H 0.26901 0.28909 0.44916 0.0
H1987 H 0.34434 0.27232 0.45124 0.0
S1988 S 0.24096 0.2679 0.56682 0.0
N1989 N 0.21242 0.27927 0.54498 0.0
N1990 N 0.29414 0.26135 0.54736 0.0
C1991 C 0.2909 0.26844 0.52158 0.0
C1992 C 0.24627 0.27823 0.52025 0.0
C1993 C 0.25579 0.51351 0.27788 0.0
C1994 C 0.2146 0.51188 0.25495 0.0
C1995 C 0.29962 0.52313 0.27591 0.0
C1996 C 0.30471 0.53159 0.25087 0.0
H1997 H 0.25492 0.50712 0.29732 0.0
H1998 H 0.33027 0.52384 0.29412 0.0
S1999 S 0.20456 0.53242 0.18608 0.0
N2000 N 0.17973 0.52037 0.20729 0.0
N2001 N 0.26183 0.53818 0.20358 0.0
C2002 C 0.26324 0.53022 0.22806 0.0
C2003 C 0.21843 0.52049 0.23011 0.0
C2004 C 0.03925 1.01827 0.52296 0.0
C2005 C 0.05079 1.01217 0.49507 0.0
C2006 C 0.99601 0.02797 0.52623 0.0
C2007 C 0.96183 0.03206 0.5018 0.0
H2008 H 0.06369 1.0155 0.54264 0.0
H2009 H 0.99025 0.03251 0.54801 0.0
S2010 S 0.97244 1.019 0.42399 0.0
N2011 N 0.02387 1.01127 0.44236 0.0
N2012 N 0.94059 0.02849 0.44897 0.0
C2013 C 0.97186 0.02578 0.47398 0.0
C2014 C 0.01657 1.01613 0.47051 0.0
C2015 C 0.95264 0.27135 0.77819 0.0
C2016 C 0.94728 0.26322 0.75264 0.0
C2017 C 0.99619 0.28098 0.78058 0.0
C2018 C 0.03744 0.2829 0.75777 0.0
H2019 H 0.92258 0.27031 0.79659 0.0
H2020 H 0.99783 0.28691 0.80075 0.0
S2021 S 0.04347 0.26424 0.68616 0.0
N2022 N 0.98791 0.25779 0.70398 0.0
N2023 N 0.06932 0.27581 0.70845 0.0
C2024 C 0.03281 0.27482 0.73211 0.0
C2025 C 0.98794 0.26508 0.72952 0.0
C2026 C 0.98818 0.78623 0.25083 0.0
C2027 C 0.04316 0.78355 0.26292 0.0
C2028 C 0.9446 0.77653 0.24941 0.0
C2029 C 0.95361 0.7636 0.26 0.0
H2030 H 0.97843 0.796 0.24255 0.0
H2031 H 0.90314 0.77926 0.24031 0.0
S2032 S 0.09147 0.75098 0.29106 0.0
N2033 N 0.10474 0.76666 0.28406 0.0
N2034 N 0.02395 0.7485 0.28118 0.0
C2035 C 1.00878 0.76073 0.27166 0.0
C2036 C 0.05302 0.77063 0.27321 0.0
C2037 C 0.0134 0.51127 0.01775 0.0
C2038 C 0.06829 0.51389 0.00538 0.0
C2039 C 0.97015 0.52102 0.0195 0.0
C2040 C 0.97925 0.53391 0.00879 0.0
H2041 H 1.00329 0.50149 0.02587 0.0
H2042 H 0.92876 0.51835 0.02881 0.0
S2043 S 0.11636 0.54644 0.97678 0.0
N2044 N 0.12976 0.53079 0.98397 0.0
N2045 N 0.049 0.54894 0.98695 0.0
C2046 C 0.03411 0.53674 0.99677 0.0
C2047 C 0.07824 0.52682 0.9951 0.0
C2048 C 0.40998 0.09495 0.89728 0.0
C2049 C 0.3517 0.0952 0.90594 0.0
C2050 C 0.42641 0.09497 0.86695 0.0
C2051 C 0.38577 0.09338 0.84375 0.0
H2052 H 0.44367 0.09386 0.91377 0.0
H2053 H 0.47191 0.09485 0.86179 0.0
S2054 S 0.22723 0.09444 0.85404 0.0
N2055 N 0.2532 0.09659 0.88815 0.0
N2056 N 0.28361 0.0926 0.83196 0.0
C2057 C 0.32724 0.09406 0.85193 0.0
C2058 C 0.3106 0.09586 0.88269 0.0
C2059 C 0.89169 0.1913 0.89306 0.0
C2060 C 0.90132 0.20325 0.90827 0.0
C2061 C 0.8683 0.19115 0.86383 0.0
C2062 C 0.85496 0.20297 0.84881 0.0
H2063 H 0.90276 0.18206 0.9037 0.0
H2064 H 0.86049 0.18179 0.85294 0.0
S2065 S 0.87273 0.23684 0.87887 0.0
N2066 N 0.89405 0.22712 0.90628 0.0
N2067 N 0.85447 0.22688 0.85128 0.0
C2068 C 0.86524 0.21493 0.86379 0.0
C2069 C 0.88694 0.21506 0.89358 0.0
C2070 C 0.39526 0.21474 0.39034 0.0
C2071 C 0.40909 0.203 0.40537 0.0
C2072 C 0.37185 0.21457 0.36152 0.0
C2073 C 0.35913 0.20264 0.3469 0.0
H2074 H 0.40374 0.22418 0.40076 0.0
H2075 H 0.36253 0.22389 0.35078 0.0
S2076 S 0.38522 0.16917 0.37691 0.0
N2077 N 0.40872 0.1791 0.40364 0.0
N2078 N 0.36109 0.17877 0.34973 0.0
C2079 C 0.3718 0.1908 0.36178 0.0
C2080 C 0.39723 0.19098 0.39104 0.0
C2081 C 0.87408 0.10326 0.39259 0.0
C2082 C 0.86263 0.09147 0.40812 0.0
C2083 C 0.899 0.10314 0.36369 0.0
C2084 C 0.91215 0.09121 0.34908 0.0
H2085 H 0.86345 0.11263 0.4028 0.0
H2086 H 0.90774 0.11242 0.35262 0.0
S2087 S 0.89001 0.05761 0.37995 0.0
N2088 N 0.8687 0.06756 0.40697 0.0
N2089 N 0.90987 0.0673 0.35214 0.0
C2090 C 0.90003 0.07938 0.36429 0.0
C2091 C 0.87694 0.07951 0.39392 0.0
C2092 C 0.65319 0.96332 0.11709 0.0
C2093 C 0.66535 0.95156 0.10169 0.0
C2094 C 0.63134 0.96317 0.14622 0.0
C2095 C 0.61743 0.95126 0.16061 0.0
H2096 H 0.66127 0.97277 0.10659 0.0
H2097 H 0.62403 0.9725 0.15738 0.0
S2098 S 0.63936 0.91776 0.12983 0.0
N2099 N 0.66311 0.92766 0.10312 0.0
N2100 N 0.61687 0.92739 0.15733 0.0
C2101 C 0.62847 0.93941 0.14542 0.0
C2102 C 0.65314 0.93955 0.11601 0.0
C2103 C 0.12089 0.82976 0.115 0.0
C2104 C 0.10989 0.84165 0.0998 0.0
C2105 C 0.142 0.82965 0.14439 0.0
C2106 C 0.15656 0.84139 0.15938 0.0
H2107 H 0.11237 0.82041 0.10415 0.0
H2108 H 0.14811 0.82022 0.15531 0.0
S2109 S 0.13737 0.87516 0.1295 0.0
N2110 N 0.11361 0.86552 0.10231 0.0
N2111 N 0.1587 0.86527 0.15676 0.0
C2112 C 0.14665 0.85336 0.1444 0.0
C2113 C 0.12262 0.8535 0.11475 0.0
C2114 C 0.6502 0.82711 0.64272 0.0
C2115 C 0.66603 0.83876 0.65776 0.0
C2116 C 0.62955 0.82737 0.61319 0.0
C2117 C 0.62135 0.83933 0.59782 0.0
H2118 H 0.65457 0.81767 0.65379 0.0
H2119 H 0.61918 0.81811 0.60237 0.0
S2120 S 0.65378 0.87262 0.62747 0.0
N2121 N 0.67222 0.86259 0.65504 0.0
N2122 N 0.62951 0.86315 0.60009 0.0
C2123 C 0.6359 0.85107 0.61274 0.0
C2124 C 0.6587 0.85078 0.64262 0.0
C2125 C 0.1487 0.94998 0.61343 0.0
C2126 C 0.15906 0.96178 0.59786 0.0
C2127 C 0.12893 0.95013 0.64318 0.0
C2128 C 0.12086 0.96208 0.65863 0.0
H2129 H 0.15561 0.9406 0.60244 0.0
H2130 H 0.11916 0.94086 0.65404 0.0
S2131 S 0.14129 0.99562 0.62773 0.0
N2132 N 0.15756 0.9857 0.59961 0.0
N2133 N 0.12452 0.98594 0.6562 0.0
C2134 C 0.13182 0.97391 0.6434 0.0
C2135 C 0.1499 0.97377 0.61287 0.0
C2136 C 0.37089 0.57906 0.39243 0.0
C2137 C 0.35671 0.59084 0.40735 0.0
C2138 C 0.3942 0.57914 0.36347 0.0
C2139 C 0.40724 0.59101 0.34862 0.0
H2140 H 0.36321 0.56965 0.40314 0.0
H2141 H 0.40295 0.56978 0.35273 0.0
S2142 S 0.38028 0.62458 0.37807 0.0
N2143 N 0.35661 0.61473 0.4049 0.0
N2144 N 0.40491 0.61488 0.35118 0.0
C2145 C 0.39426 0.60288 0.36339 0.0
C2146 C 0.36842 0.6028 0.39262 0.0
C2147 C 0.86761 0.71382 0.36712 0.0
C2148 C 0.85429 0.70214 0.35165 0.0
C2149 C 0.89096 0.71353 0.39595 0.0
C2150 C 0.90464 0.70155 0.41008 0.0
H2151 H 0.85915 0.72332 0.35695 0.0
H2152 H 0.90017 0.72281 0.40695 0.0
S2153 S 0.87958 0.6682 0.37907 0.0
N2154 N 0.85536 0.67824 0.35274 0.0
N2155 N 0.90361 0.6777 0.40648 0.0
C2156 C 0.89216 0.68977 0.39488 0.0
C2157 C 0.86644 0.69007 0.36568 0.0
C2158 C 0.39694 0.69118 0.89436 0.0
C2159 C 0.40606 0.70319 0.90942 0.0
C2160 C 0.37264 0.69089 0.86533 0.0
C2161 C 0.3575 0.70261 0.85039 0.0
H2162 H 0.40921 0.68201 0.90495 0.0
H2163 H 0.36568 0.68147 0.8545 0.0
S2164 S 0.37295 0.73658 0.88026 0.0
N2165 N 0.39678 0.727 0.90736 0.0
N2166 N 0.35412 0.72651 0.85299 0.0
C2167 C 0.36681 0.71463 0.86533 0.0
C2168 C 0.39006 0.7149 0.89482 0.0
C2169 C 0.89653 0.57916 0.86419 0.0
C2170 C 0.90978 0.59087 0.84876 0.0
C2171 C 0.87588 0.57936 0.89369 0.0
C2172 C 0.86426 0.59128 0.90862 0.0
H2173 H 0.9028 0.5697 0.85342 0.0
H2174 H 0.86783 0.57004 0.90476 0.0
S2175 S 0.88962 0.62473 0.87803 0.0
N2176 N 0.91089 0.61477 0.85088 0.0
N2177 N 0.8669 0.61515 0.90558 0.0
C2178 C 0.87632 0.60309 0.89337 0.0
C2179 C 0.89977 0.60289 0.86359 0.0
C2180 C 0.65118 0.44119 0.61236 0.0
C2181 C 0.66072 0.45301 0.5966 0.0
C2182 C 0.62733 0.44128 0.64148 0.0
C2183 C 0.61299 0.4532 0.6558 0.0
H2184 H 0.662 0.43186 0.60205 0.0
H2185 H 0.61944 0.432 0.65273 0.0
S2186 S 0.63014 0.4868 0.62417 0.0
N2187 N 0.65288 0.47688 0.59742 0.0
N2188 N 0.61152 0.47707 0.65213 0.0
C2189 C 0.62344 0.46504 0.64036 0.0
C2190 C 0.64614 0.46493 0.61073 0.0
C2191 C 0.07008 0.34811 0.62155 0.0
C2192 C 0.11141 0.3466 0.59856 0.0
C2193 C 0.085 0.34697 0.65211 0.0
C2194 C 0.14275 0.34581 0.66126 0.0
H2195 H 0.0249 0.34861 0.61579 0.0
H2196 H 0.05058 0.346 0.66827 0.0
S2197 S 0.26943 0.34472 0.61091 0.0
N2198 N 0.21378 0.34441 0.588 0.0
N2199 N 0.24226 0.34635 0.64487 0.0
C2200 C 0.18505 0.34667 0.63864 0.0
C2201 C 0.16957 0.34608 0.60753 0.0
C2202 C 0.62684 0.32876 0.11452 0.0
C2203 C 0.61493 0.34067 0.09955 0.0
C2204 C 0.64934 0.32862 0.14365 0.0
C2205 C 0.66352 0.34037 0.15873 0.0
H2206 H 0.61678 0.31944 0.10394 0.0
H2207 H 0.65564 0.3192 0.15456 0.0
S2208 S 0.64342 0.37415 0.12908 0.0
N2209 N 0.61918 0.36453 0.10196 0.0
N2210 N 0.66549 0.36425 0.15616 0.0
C2211 C 0.6535 0.35235 0.14376 0.0
C2212 C 0.62875 0.3525 0.11427 0.0
C2213 C 0.117 0.46408 0.14135 0.0
C2214 C 0.10343 0.45228 0.15628 0.0
C2215 C 0.13964 0.46403 0.11229 0.0
C2216 C 0.15213 0.45216 0.09736 0.0
H2217 H 0.11021 0.47348 0.15231 0.0
H2218 H 0.1493 0.47338 0.10176 0.0
S2219 S 0.12523 0.41857 0.12656 0.0
N2220 N 0.10261 0.42839 0.15369 0.0
N2221 N 0.14904 0.42829 0.09951 0.0
C2222 C 0.13885 0.44027 0.11191 0.0
C2223 C 0.11402 0.44033 0.14133 0.0
C2224 C 0.07475 0.14914 1.00113 0.0
C2225 C 0.10843 0.16077 0.9999 0.0
C2226 C 0.09968 0.13645 1.00063 0.0
C2227 C 0.15953 0.13472 0.9984 0.0
H2228 H 0.02844 0.14977 1.00284 0.0
H2229 H 0.0719 0.12795 1.00304 0.0
S2230 S 0.26748 0.16158 0.99102 0.0
N2231 N 0.20583 0.16934 0.99534 0.0
N2232 N 0.25134 0.14577 0.99117 0.0
C2233 C 0.1934 0.1462 0.99513 0.0
C2234 C 0.16835 0.15909 0.99666 0.0
C2235 C 0.14217 0.15476 0.21975 0.0
C2236 C 0.16266 0.16058 0.24631 0.0
C2237 C 0.11914 0.14193 0.21971 0.0
C2238 C 0.11685 0.13427 0.24609 0.0
H2239 H 0.14322 0.16024 0.19892 0.0
H2240 H 0.10274 0.13797 0.19883 0.0
S2241 S 0.16735 0.14483 0.32127 0.0
N2242 N 0.18051 0.15765 0.29951 0.0
N2243 N 0.13827 0.1335 0.29939 0.0
C2244 C 0.13852 0.13989 0.27265 0.0
C2245 C 0.16105 0.15305 0.27277 0.0
C2246 C 0.87437 0.88838 0.97579 0.0
C2247 C 0.9083 0.88405 0.99989 0.0
C2248 C 0.85083 0.90116 0.97533 0.0
C2249 C 0.86007 0.9102 0.999 0.0
H2250 H 0.8669 0.88192 0.95684 0.0
H2251 H 0.82563 0.90402 0.95598 0.0
S2252 S 0.94548 0.90338 0.06768 0.0
N2253 N 0.95044 0.88966 0.04793 0.0
N2254 N 0.90506 0.91348 0.04772 0.0
C2255 C 0.89398 0.90588 0.02332 0.0
C2256 C 0.91824 0.89288 0.02361 0.0
C2257 C 0.82897 0.89228 0.74642 0.0
C2258 C 0.86313 0.88124 0.75399 0.0
C2259 C 0.85167 0.90511 0.74571 0.0
C2260 C 0.90987 0.9075 0.7519 0.0
H2261 H 0.78385 0.89103 0.74119 0.0
H2262 H 0.82343 0.91324 0.74025 0.0
S2263 S 0.01862 0.88244 0.77268 0.0
N2264 N 0.95889 0.87387 0.76805 0.0
N2265 N 1.00174 0.89792 0.76546 0.0
C2266 C 0.94509 0.89665 0.75871 0.0
C2267 C 0.9218 0.88356 0.75994 0.0
C2268 C 0.16404 0.65691 0.50398 0.0
C2269 C 0.10435 0.65896 0.50634 0.0
C2270 C 0.18783 0.64418 0.50367 0.0
C2271 C 0.15352 0.63275 0.50641 0.0
H2272 H 0.1932 0.6652 0.50292 0.0
H2273 H 0.23401 0.64337 0.50139 0.0
S2274 S 0.99405 0.63247 0.51125 0.0
N2275 N 0.01076 0.64822 0.50871 0.0
N2276 N 0.05578 0.62448 0.51088 0.0
C2277 C 0.09357 0.63462 0.50826 0.0
C2278 C 0.06907 0.64762 0.50773 0.0
C2279 C 0.16676 0.64987 0.7229 0.0
C2280 C 0.16288 0.65819 0.74822 0.0
C2281 C 0.14303 0.63709 0.72293 0.0
C2282 C 0.11503 0.63202 0.74838 0.0
H2283 H 0.18726 0.65335 0.70259 0.0
H2284 H 0.14558 0.63122 0.70267 0.0
S2285 S 0.09457 0.6493 0.82078 0.0
N2286 N 0.12993 0.66001 0.79986 0.0
N2287 N 0.08504 0.63613 0.79958 0.0
C2288 C 0.11134 0.64008 0.7739 0.0
C2289 C 0.13527 0.65311 0.77391 0.0
C2290 C 0.87238 0.40339 0.52428 0.0
C2291 C 0.85311 0.40892 0.49706 0.0
C2292 C 0.89451 0.39044 0.5255 0.0
C2293 C 0.89822 0.38258 0.49953 0.0
H2294 H 0.87005 0.4091 0.54478 0.0
H2295 H 0.91051 0.38671 0.54666 0.0
S2296 S 0.85552 0.39248 0.42268 0.0
N2297 N 0.84036 0.40547 0.44353 0.0
N2298 N 0.8819 0.38135 0.44589 0.0
C2299 C 0.87904 0.38799 0.47231 0.0
C2300 C 0.8565 0.40108 0.47106 0.0
C2301 C 0.89984 0.38704 0.28062 0.0
C2302 C 0.86318 0.38305 0.25734 0.0
C2303 C 0.9232 0.39982 0.28133 0.0
C2304 C 0.91127 0.40917 0.25866 0.0
H2305 H 0.90945 0.38032 0.29882 0.0
H2306 H 0.95047 0.40242 0.30011 0.0
S2307 S 0.81828 0.40328 0.19226 0.0
N2308 N 0.81555 0.3893 0.21112 0.0
N2309 N 0.86091 0.41312 0.21167 0.0
C2310 C 0.87469 0.4052 0.23512 0.0
C2311 C 0.85045 0.3922 0.23464 0.0
C2312 C 0.68633 0.14545 0.50274 0.0
C2313 C 0.65231 0.13395 0.50497 0.0
C2314 C 0.66208 0.15812 0.50252 0.0
C2315 C 0.60219 0.16007 0.5037 0.0
H2316 H 0.73267 0.14474 0.50129 0.0
H2317 H 0.69107 0.16645 0.50199 0.0
S2318 S 0.49261 0.13336 0.50667 0.0
N2319 N 0.55461 0.1255 0.5076 0.0
N2320 N 0.5089 0.14915 0.50431 0.0
C2321 C 0.56726 0.14866 0.50449 0.0
C2322 C 0.59219 0.1357 0.50564 0.0
C2323 C 0.5744 0.1444 0.75299 0.0
C2324 C 0.60709 0.13268 0.75433 0.0
C2325 C 0.60021 0.15691 0.75256 0.0
C2326 C 0.66029 0.15849 0.75402 0.0
H2327 H 0.52797 0.14394 0.75167 0.0
H2328 H 0.5725 0.16541 0.75018 0.0
S2329 S 0.76589 0.13116 0.7616 0.0
N2330 N 0.70325 0.1236 0.75889 0.0
N2331 N 0.75165 0.14707 0.76013 0.0
C2332 C 0.69356 0.14689 0.75707 0.0
C2333 C 0.66712 0.13407 0.75693 0.0
C2334 C 0.36013 0.90236 0.52063 0.0
C2335 C 0.37272 0.91207 0.49895 0.0
C2336 C 0.38451 0.88967 0.51922 0.0
C2337 C 0.42223 0.88608 0.49589 0.0
H2338 H 0.33099 0.9046 0.53888 0.0
H2339 H 0.37429 0.88268 0.53677 0.0
S2340 S 0.46445 0.90748 0.43181 0.0
N2341 N 0.42286 0.91697 0.45261 0.0
N2342 N 0.46761 0.89317 0.44937 0.0
C2343 C 0.43422 0.89566 0.47373 0.0
C2344 C 0.40987 0.90861 0.47542 0.0
C2345 C 0.36075 0.90763 0.25517 0.0
C2346 C 0.42097 0.90899 0.25589 0.0
C2347 C 0.33417 0.89518 0.25446 0.0
C2348 C 0.36609 0.88332 0.25533 0.0
H2349 H 0.33341 0.91624 0.25585 0.0
H2350 H 0.28771 0.89495 0.25349 0.0
S2351 S 0.52567 0.88125 0.25437 0.0
N2352 N 0.51208 0.89718 0.25357 0.0
N2353 N 0.46237 0.87397 0.2558 0.0
C2354 C 0.42651 0.88452 0.25525 0.0
C2355 C 0.45371 0.89724 0.25481 0.0
C2356 C 0.58201 0.64921 0.00838 0.0
C2357 C 0.61527 0.66086 0.00644 0.0
C2358 C 0.60734 0.63658 0.00861 0.0
C2359 C 0.66729 0.63487 0.00641 0.0
H2360 H 0.53565 0.64978 0.0098 0.0
H2361 H 0.57955 0.6281 0.0112 0.0
S2362 S 0.77444 0.66188 0.99823 0.0
N2363 N 0.71247 0.66956 1.00205 0.0
N2364 N 0.75886 0.64605 0.99907 0.0
C2365 C 0.70091 0.64638 1.00297 0.0
C2366 C 0.67536 0.65925 0.00378 0.0
C2367 C 0.68822 0.64931 0.2513 0.0
C2368 C 0.6537 0.66077 0.25242 0.0
C2369 C 0.66418 0.63654 0.25093 0.0
C2370 C 0.60431 0.63453 0.25215 0.0
H2371 H 0.73458 0.65012 0.25066 0.0
H2372 H 0.69293 0.62821 0.24903 0.0
S2373 S 0.49409 0.66099 0.25786 0.0
N2374 N 0.55551 0.66899 0.25497 0.0
N2375 N 0.51122 0.64524 0.2576 0.0
C2376 C 0.56934 0.64587 0.25472 0.0
C2377 C 0.59367 0.65886 0.25409 0.0
C2378 C 0.36844 0.40262 0.97209 0.0
C2379 C 0.35635 0.40946 0.99887 0.0
C2380 C 0.3923 0.38987 0.97247 0.0
C2381 C 0.40372 0.38327 0.99964 0.0
H2382 H 0.36001 0.40725 0.95065 0.0
H2383 H 0.40157 0.38509 0.9513 0.0
S2384 S 0.37872 0.39668 0.07593 0.0
N2385 N 0.3573 0.40859 0.0533 0.0
N2386 N 0.40086 0.38458 0.054 0.0
C2387 C 0.39112 0.38992 0.02654 0.0
C2388 C 0.36788 0.40301 0.02616 0.0
C2389 C 0.39579 0.40274 0.72833 0.0
C2390 C 0.41772 0.40827 0.75505 0.0
C2391 C 0.37188 0.38994 0.72775 0.0
C2392 C 0.36838 0.38222 0.75393 0.0
H2393 H 0.39698 0.40837 0.70771 0.0
H2394 H 0.35414 0.38625 0.70692 0.0
S2395 S 0.41956 0.39195 0.8296 0.0
N2396 N 0.43428 0.40483 0.80831 0.0
N2397 N 0.38992 0.38096 0.80713 0.0
C2398 C 0.39095 0.38755 0.78061 0.0
C2399 C 0.41543 0.40049 0.78119 0.0
loop_
_geom_bond_atom_site_label_1
_geom_bond_atom_site_label_2
_geom_bond_distance
_geom_bond_site_symmetry_2
_ccdc_geom_bond_type
C0 C1 1.443 . S
C0 N4 1.376 . S
C0 C38 1.389 . S
C1 C0 1.443 . S
C1 C2 1.340 . S
C1 H41 0.951 . S
C2 C1 1.340 . S
C2 C3 1.439 . S
C2 H42 0.950 . S
C3 C2 1.439 . S
C3 N4 1.374 . S
C3 C37 1.395 1_554 S
N4 C0 1.376 . S
N4 C3 1.374 . S
N4 Co5 2.008 . S
Co5 N4 2.008 . S
Co5 N6 1.995 1_554 S
Co5 N11 2.008 1_554 S
Co5 N16 1.995 . S
Co5 N21 2.282 . S
Co5 N27 2.282 . S
N6 Co5 1.995 1_556 S
N6 C7 1.376 . S
N6 C10 1.383 . S
C7 N6 1.376 . S
C7 C8 1.446 . S
C7 C37 1.391 . S
C8 C7 1.446 . S
C8 C9 1.339 . S
C8 H43 0.949 . S
C9 C8 1.339 . S
C9 C10 1.439 . S
C9 H44 0.950 . S
C10 N6 1.383 . S
C10 C9 1.439 . S
C10 C39 1.392 . S
N11 Co5 2.008 1_556 S
N11 C12 1.376 . S
N11 C15 1.374 1_556 S
C12 N11 1.376 . S
C12 C13 1.443 . S
C12 C39 1.389 . S
C13 C12 1.443 . S
C13 C14 1.340 . S
C13 H45 0.951 . S
C14 C13 1.340 . S
C14 C15 1.439 1_556 S
C14 H46 0.950 . S
C15 N11 1.374 1_554 S
C15 C14 1.439 1_554 S
C15 C40 1.395 . S
N16 Co5 1.995 . S
N16 C17 1.376 . S
N16 C20 1.383 . S
C17 N16 1.376 . S
C17 C18 1.446 . S
C17 C40 1.391 . S
C18 C17 1.446 . S
C18 C19 1.339 . S
C18 H47 0.949 . S
C19 C18 1.339 . S
C19 C20 1.439 . S
C19 H48 0.950 . S
C20 N16 1.383 . S
C20 C19 1.439 . S
C20 C38 1.392 . S
N21 Co5 2.282 . S
N21 C24 1.332 . S
N21 C26 1.332 1_554 S
C22 C23 1.386 . S
C22 C25 1.388 1_554 S
C23 C22 1.386 . S
C23 C24 1.382 . S
C23 H49 0.950 . S
C24 N21 1.332 . S
C24 C23 1.382 . S
C24 H35 0.952 . S
C25 C22 1.388 1_556 S
C25 C26 1.382 . S
C25 H50 0.950 . S
C26 N21 1.332 1_556 S
C26 C25 1.382 . S
C26 H36 0.948 . S
N27 Co5 2.282 . S
N27 C31 1.332 1_554 S
N27 C32 1.332 . S
C28 C29 1.388 . S
C28 C32 1.382 . S
C28 H51 0.950 . S
C29 C28 1.388 . S
C29 C30 1.386 1_554 S
C30 C29 1.386 1_556 S
C30 C31 1.382 . S
C30 H52 0.950 . S
C31 N27 1.332 1_556 S
C31 C30 1.382 . S
C31 H33 0.952 . S
C32 N27 1.332 . S
C32 C28 1.382 . S
C32 H34 0.948 . S
H33 C31 0.952 . S
H34 C32 0.948 . S
H35 C24 0.952 . S
H36 C26 0.948 . S
C37 C3 1.395 1_556 S
C37 C7 1.391 . S
C38 C0 1.389 . S
C38 C20 1.392 . S
C39 C10 1.392 . S
C39 C12 1.389 . S
C40 C15 1.395 . S
C40 C17 1.391 . S
H41 C1 0.951 . S
H42 C2 0.950 . S
H43 C8 0.949 . S
H44 C9 0.950 . S
H45 C13 0.951 . S
H46 C14 0.950 . S
H47 C18 0.949 . S
H48 C19 0.950 . S
H49 C23 0.950 . S
H50 C25 0.950 . S
H51 C28 0.950 . S
H52 C30 0.950 . S
C53 C54 1.443 . S
C53 N57 1.376 . S
C53 C91 1.389 . S
C54 C53 1.443 . S
C54 C55 1.340 . S
C54 H94 0.951 . S
C55 C54 1.340 . S
C55 C56 1.439 . S
C55 H95 0.950 . S
C56 C55 1.439 . S
C56 N57 1.374 . S
C56 C90 1.395 1_554 S
N57 C53 1.376 . S
N57 C56 1.374 . S
N57 Co58 2.008 1_455 S
Co58 N57 2.008 1_655 S
Co58 N59 1.995 1_654 S
Co58 N64 2.008 1_554 S
Co58 N69 1.995 . S
Co58 N74 2.282 . S
Co58 N80 2.282 1_655 S
N59 Co58 1.995 1_456 S
N59 C60 1.376 . S
N59 C63 1.383 1_455 S
C60 N59 1.376 . S
C60 C61 1.446 . S
C60 C90 1.391 . S
C61 C60 1.446 . S
C61 C62 1.339 1_455 S
C61 H96 0.949 . S
C62 C61 1.339 1_655 S
C62 C63 1.439 . S
C62 H97 0.950 . S
C63 N59 1.383 1_655 S
C63 C62 1.439 . S
C63 C92 1.392 . S
N64 Co58 2.008 1_556 S
N64 C65 1.376 . S
N64 C68 1.374 1_556 S
C65 N64 1.376 . S
C65 C66 1.443 . S
C65 C92 1.389 . S
C66 C65 1.443 . S
C66 C67 1.340 . S
C66 H98 0.951 . S
C67 C66 1.340 . S
C67 C68 1.439 1_556 S
C67 H99 0.950 . S
C68 N64 1.374 1_554 S
C68 C67 1.439 1_554 S
C68 C93 1.395 . S
N69 Co58 1.995 . S
N69 C70 1.376 . S
N69 C73 1.383 . S
C70 N69 1.376 . S
C70 C71 1.446 . S
C70 C93 1.391 . S
C71 C70 1.446 . S
C71 C72 1.339 . S
C71 H100 0.949 . S
C72 C71 1.339 . S
C72 C73 1.439 . S
C72 H101 0.950 . S
C73 N69 1.383 . S
C73 C72 1.439 . S
C73 C91 1.392 1_655 S
N74 Co58 2.282 . S
N74 C77 1.332 . S
N74 C79 1.332 1_554 S
C75 C76 1.386 . S
C75 C78 1.388 1_554 S
C76 C75 1.386 . S
C76 C77 1.382 . S
C76 H102 0.950 . S
C77 N74 1.332 . S
C77 C76 1.382 . S
C77 H88 0.952 . S
C78 C75 1.388 1_556 S
C78 C79 1.382 . S
C78 H103 0.950 . S
C79 N74 1.332 1_556 S
C79 C78 1.382 . S
C79 H89 0.948 . S
N80 Co58 2.282 1_455 S
N80 C84 1.332 1_554 S
N80 C85 1.332 . S
C81 C82 1.388 . S
C81 C85 1.382 . S
C81 H104 0.950 . S
C82 C81 1.388 . S
C82 C83 1.386 1_554 S
C83 C82 1.386 1_556 S
C83 C84 1.382 . S
C83 H105 0.950 . S
C84 N80 1.332 1_556 S
C84 C83 1.382 . S
C84 H86 0.952 . S
C85 N80 1.332 . S
C85 C81 1.382 . S
C85 H87 0.948 1_455 S
H86 C84 0.952 . S
H87 C85 0.948 1_655 S
H88 C77 0.952 . S
H89 C79 0.948 . S
C90 C56 1.395 1_556 S
C90 C60 1.391 . S
C91 C53 1.389 . S
C91 C73 1.392 1_455 S
C92 C63 1.392 . S
C92 C65 1.389 . S
C93 C68 1.395 . S
C93 C70 1.391 . S
H94 C54 0.951 . S
H95 C55 0.950 . S
H96 C61 0.949 . S
H97 C62 0.950 . S
H98 C66 0.951 . S
H99 C67 0.950 . S
H100 C71 0.949 . S
H101 C72 0.950 . S
H102 C76 0.950 . S
H103 C78 0.950 . S
H104 C81 0.950 . S
H105 C83 0.950 . S
C106 C107 1.443 . S
C106 N110 1.376 . S
C106 C144 1.389 . S
C107 C106 1.443 . S
C107 C108 1.340 . S
C107 H147 0.951 . S
C108 C107 1.340 . S
C108 C109 1.439 . S
C108 H148 0.950 . S
C109 C108 1.439 . S
C109 N110 1.374 . S
C109 C143 1.395 . S
N110 C106 1.376 . S
N110 C109 1.374 . S
N110 Co111 2.008 . S
Co111 N110 2.008 . S
Co111 N112 1.995 . S
Co111 N117 2.008 . S
Co111 N122 1.995 . S
Co111 N127 2.282 . S
Co111 N133 2.282 . S
N112 Co111 1.995 . S
N112 C113 1.376 . S
N112 C116 1.383 . S
C113 N112 1.376 . S
C113 C114 1.446 . S
C113 C143 1.391 . S
C114 C113 1.446 . S
C114 C115 1.339 . S
C114 H149 0.949 . S
C115 C114 1.339 . S
C115 C116 1.439 . S
C115 H150 0.950 . S
C116 N112 1.383 . S
C116 C115 1.439 . S
C116 C145 1.392 . S
N117 Co111 2.008 . S
N117 C118 1.376 . S
N117 C121 1.374 . S
C118 N117 1.376 . S
C118 C119 1.443 . S
C118 C145 1.389 . S
C119 C118 1.443 . S
C119 C120 1.340 . S
C119 H151 0.951 . S
C120 C119 1.340 . S
C120 C121 1.439 . S
C120 H152 0.950 . S
C121 N117 1.374 . S
C121 C120 1.439 . S
C121 C146 1.395 . S
N122 Co111 1.995 . S
N122 C123 1.376 . S
N122 C126 1.383 . S
C123 N122 1.376 . S
C123 C124 1.446 . S
C123 C146 1.391 . S
C124 C123 1.446 . S
C124 C125 1.339 . S
C124 H153 0.949 . S
C125 C124 1.339 . S
C125 C126 1.439 . S
C125 H154 0.950 . S
C126 N122 1.383 . S
C126 C125 1.439 . S
C126 C144 1.392 . S
N127 Co111 2.282 . S
N127 C130 1.332 . S
N127 C132 1.332 . S
C128 C129 1.386 . S
C128 C131 1.388 . S
C129 C128 1.386 . S
C129 C130 1.382 . S
C129 H155 0.950 . S
C130 N127 1.332 . S
C130 C129 1.382 . S
C130 H141 0.952 . S
C131 C128 1.388 . S
C131 C132 1.382 . S
C131 H156 0.950 . S
C132 N127 1.332 . S
C132 C131 1.382 . S
C132 H142 0.948 . S
N133 Co111 2.282 . S
N133 C137 1.332 . S
N133 C138 1.332 . S
C134 C135 1.388 . S
C134 C138 1.382 . S
C134 H157 0.950 . S
C135 C134 1.388 . S
C135 C136 1.386 . S
C136 C135 1.386 . S
C136 C137 1.382 . S
C136 H158 0.950 . S
C137 N133 1.332 . S
C137 C136 1.382 . S
C137 H139 0.952 . S
C138 N133 1.332 . S
C138 C134 1.382 . S
C138 H140 0.948 . S
H139 C137 0.952 . S
H140 C138 0.948 . S
H141 C130 0.952 . S
H142 C132 0.948 . S
C143 C109 1.395 . S
C143 C113 1.391 . S
C144 C106 1.389 . S
C144 C126 1.392 . S
C145 C116 1.392 . S
C145 C118 1.389 . S
C146 C121 1.395 . S
C146 C123 1.391 . S
H147 C107 0.951 . S
H148 C108 0.950 . S
H149 C114 0.949 . S
H150 C115 0.950 . S
H151 C119 0.951 . S
H152 C120 0.950 . S
H153 C124 0.949 . S
H154 C125 0.950 . S
H155 C129 0.950 . S
H156 C131 0.950 . S
H157 C134 0.950 . S
H158 C136 0.950 . S
C159 C160 1.443 . S
C159 N163 1.376 . S
C159 C197 1.389 . S
C160 C159 1.443 . S
C160 C161 1.340 . S
C160 H200 0.951 . S
C161 C160 1.340 . S
C161 C162 1.439 . S
C161 H201 0.950 . S
C162 C161 1.439 . S
C162 N163 1.374 . S
C162 C196 1.395 . S
N163 C159 1.376 . S
N163 C162 1.374 . S
N163 Co164 2.008 1_455 S
Co164 N163 2.008 1_655 S
Co164 N165 1.995 1_655 S
Co164 N170 2.008 . S
Co164 N175 1.995 . S
Co164 N180 2.282 . S
Co164 N186 2.282 1_655 S
N165 Co164 1.995 1_455 S
N165 C166 1.376 . S
N165 C169 1.383 1_455 S
C166 N165 1.376 . S
C166 C167 1.446 . S
C166 C196 1.391 . S
C167 C166 1.446 . S
C167 C168 1.339 1_455 S
C167 H202 0.949 . S
C168 C167 1.339 1_655 S
C168 C169 1.439 . S
C168 H203 0.950 . S
C169 N165 1.383 1_655 S
C169 C168 1.439 . S
C169 C198 1.392 . S
N170 Co164 2.008 . S
N170 C171 1.376 . S
N170 C174 1.374 . S
C171 N170 1.376 . S
C171 C172 1.443 . S
C171 C198 1.389 . S
C172 C171 1.443 . S
C172 C173 1.340 . S
C172 H204 0.951 . S
C173 C172 1.340 . S
C173 C174 1.439 . S
C173 H205 0.950 . S
C174 N170 1.374 . S
C174 C173 1.439 . S
C174 C199 1.395 . S
N175 Co164 1.995 . S
N175 C176 1.376 . S
N175 C179 1.383 . S
C176 N175 1.376 . S
C176 C177 1.446 . S
C176 C199 1.391 . S
C177 C176 1.446 . S
C177 C178 1.339 . S
C177 H206 0.949 . S
C178 C177 1.339 . S
C178 C179 1.439 . S
C178 H207 0.950 . S
C179 N175 1.383 . S
C179 C178 1.439 . S
C179 C197 1.392 1_655 S
N180 Co164 2.282 . S
N180 C183 1.332 . S
N180 C185 1.332 . S
C181 C182 1.386 . S
C181 C184 1.388 . S
C182 C181 1.386 . S
C182 C183 1.382 . S
C182 H208 0.950 . S
C183 N180 1.332 . S
C183 C182 1.382 . S
C183 H194 0.952 . S
C184 C181 1.388 . S
C184 C185 1.382 . S
C184 H209 0.950 . S
C185 N180 1.332 . S
C185 C184 1.382 . S
C185 H195 0.948 . S
N186 Co164 2.282 1_455 S
N186 C190 1.332 . S
N186 C191 1.332 . S
C187 C188 1.388 . S
C187 C191 1.382 . S
C187 H210 0.950 . S
C188 C187 1.388 . S
C188 C189 1.386 . S
C189 C188 1.386 . S
C189 C190 1.382 . S
C189 H211 0.950 . S
C190 N186 1.332 . S
C190 C189 1.382 . S
C190 H192 0.952 . S
C191 N186 1.332 . S
C191 C187 1.382 . S
C191 H193 0.948 1_455 S
H192 C190 0.952 . S
H193 C191 0.948 1_655 S
H194 C183 0.952 . S
H195 C185 0.948 . S
C196 C162 1.395 . S
C196 C166 1.391 . S
C197 C159 1.389 . S
C197 C179 1.392 1_455 S
C198 C169 1.392 . S
C198 C171 1.389 . S
C199 C174 1.395 . S
C199 C176 1.391 . S
H200 C160 0.951 . S
H201 C161 0.950 . S
H202 C167 0.949 . S
H203 C168 0.950 . S
H204 C172 0.951 . S
H205 C173 0.950 . S
H206 C177 0.949 . S
H207 C178 0.950 . S
H208 C182 0.950 . S
H209 C184 0.950 . S
H210 C187 0.950 . S
H211 C189 0.950 . S
C212 C213 1.443 . S
C212 N216 1.376 . S
C212 C250 1.389 . S
C213 C212 1.443 . S
C213 C214 1.340 . S
C213 H253 0.951 . S
C214 C213 1.340 . S
C214 C215 1.439 . S
C214 H254 0.950 . S
C215 C214 1.439 . S
C215 N216 1.374 . S
C215 C249 1.395 . S
N216 C212 1.376 . S
N216 C215 1.374 . S
N216 Co217 2.008 . S
Co217 N216 2.008 . S
Co217 N218 1.995 1_556 S
Co217 N223 2.008 1_556 S
Co217 N228 1.995 . S
Co217 N233 2.282 . S
Co217 N239 2.280 1_556 S
N218 Co217 1.995 1_554 S
N218 C219 1.376 1_554 S
N218 C222 1.383 . S
C219 N218 1.376 1_556 S
C219 C220 1.446 1_556 S
C219 C249 1.391 . S
C220 C219 1.446 1_554 S
C220 C221 1.339 . S
C220 H255 0.949 . S
C221 C220 1.339 . S
C221 C222 1.439 . S
C221 H256 0.950 . S
C222 N218 1.383 . S
C222 C221 1.439 . S
C222 C251 1.392 . S
N223 Co217 2.008 1_554 S
N223 C224 1.376 . S
N223 C227 1.374 . S
C224 N223 1.376 . S
C224 C225 1.443 . S
C224 C251 1.389 . S
C225 C224 1.443 . S
C225 C226 1.340 . S
C225 H257 0.951 . S
C226 C225 1.340 . S
C226 C227 1.439 . S
C226 H258 0.950 . S
C227 N223 1.374 . S
C227 C226 1.439 . S
C227 C252 1.395 . S
N228 Co217 1.995 . S
N228 C229 1.376 . S
N228 C232 1.383 . S
C229 N228 1.376 . S
C229 C230 1.446 . S
C229 C252 1.391 1_556 S
C230 C229 1.446 . S
C230 C231 1.339 . S
C230 H259 0.949 . S
C231 C230 1.339 . S
C231 C232 1.439 . S
C231 H260 0.950 . S
C232 N228 1.383 . S
C232 C231 1.439 . S
C232 C250 1.392 . S
N233 Co217 2.282 . S
N233 C236 1.332 . S
N233 C238 1.332 . S
C234 C235 1.385 1_556 S
C234 C237 1.388 . S
C235 C234 1.385 1_554 S
C235 C236 1.381 1_554 S
C235 H261 0.951 . S
C236 N233 1.332 . S
C236 C235 1.381 1_556 S
C236 H247 0.952 . S
C237 C234 1.388 . S
C237 C238 1.382 . S
C237 H262 0.950 . S
C238 N233 1.332 . S
C238 C237 1.382 . S
C238 H248 0.948 . S
N239 Co217 2.280 1_554 S
N239 C243 1.328 1_554 S
N239 C244 1.334 . S
C240 C241 1.391 . S
C240 C244 1.381 1_556 S
C240 H263 0.949 1_556 S
C241 C240 1.391 . S
C241 C242 1.386 . S
C242 C241 1.386 . S
C242 C243 1.382 . S
C242 H264 0.950 . S
C243 N239 1.328 1_556 S
C243 C242 1.382 . S
C243 H245 0.952 . S
C244 N239 1.334 . S
C244 C240 1.381 1_554 S
C244 H246 0.948 . S
H245 C243 0.952 . S
H246 C244 0.948 . S
H247 C236 0.952 . S
H248 C238 0.948 . S
C249 C215 1.395 . S
C249 C219 1.391 . S
C250 C212 1.389 . S
C250 C232 1.392 . S
C251 C222 1.392 . S
C251 C224 1.389 . S
C252 C227 1.395 . S
C252 C229 1.391 1_554 S
H253 C213 0.951 . S
H254 C214 0.950 . S
H255 C220 0.949 . S
H256 C221 0.950 . S
H257 C225 0.951 . S
H258 C226 0.950 . S
H259 C230 0.949 . S
H260 C231 0.950 . S
H261 C235 0.951 . S
H262 C237 0.950 . S
H263 C240 0.949 1_554 S
H264 C242 0.950 . S
C265 C266 1.443 . S
C265 N269 1.376 . S
C265 C303 1.389 1_455 S
C266 C265 1.443 . S
C266 C267 1.340 . S
C266 H306 0.951 . S
C267 C266 1.340 . S
C267 C268 1.439 . S
C267 H307 0.950 . S
C268 C267 1.439 . S
C268 N269 1.374 . S
C268 C302 1.395 . S
N269 C265 1.376 . S
N269 C268 1.374 . S
N269 Co270 2.008 . S
Co270 N269 2.008 . S
Co270 N271 1.995 1_556 S
Co270 N276 2.008 1_556 S
Co270 N281 1.995 1_455 S
Co270 N286 2.282 . S
Co270 N292 2.280 1_456 S
N271 Co270 1.995 1_554 S
N271 C272 1.376 1_554 S
N271 C275 1.383 . S
C272 N271 1.376 1_556 S
C272 C273 1.446 1_556 S
C272 C302 1.391 . S
C273 C272 1.446 1_554 S
C273 C274 1.339 . S
C273 H308 0.949 . S
C274 C273 1.339 . S
C274 C275 1.439 . S
C274 H309 0.950 . S
C275 N271 1.383 . S
C275 C274 1.439 . S
C275 C304 1.392 . S
N276 Co270 2.008 1_554 S
N276 C277 1.376 . S
N276 C280 1.374 1_455 S
C277 N276 1.376 . S
C277 C278 1.443 . S
C277 C304 1.389 . S
C278 C277 1.443 . S
C278 C279 1.340 1_455 S
C278 H310 0.951 . S
C279 C278 1.340 1_655 S
C279 C280 1.439 . S
C279 H311 0.950 . S
C280 N276 1.374 1_655 S
C280 C279 1.439 . S
C280 C305 1.395 . S
N281 Co270 1.995 1_655 S
N281 C282 1.376 . S
N281 C285 1.383 . S
C282 N281 1.376 . S
C282 C283 1.446 . S
C282 C305 1.391 1_556 S
C283 C282 1.446 . S
C283 C284 1.339 . S
C283 H312 0.949 . S
C284 C283 1.339 . S
C284 C285 1.439 . S
C284 H313 0.950 . S
C285 N281 1.383 . S
C285 C284 1.439 . S
C285 C303 1.392 . S
N286 Co270 2.282 . S
N286 C289 1.332 . S
N286 C291 1.332 . S
C287 C288 1.385 1_556 S
C287 C290 1.388 . S
C288 C287 1.385 1_554 S
C288 C289 1.381 1_554 S
C288 H314 0.951 . S
C289 N286 1.332 . S
C289 C288 1.381 1_556 S
C289 H300 0.952 . S
C290 C287 1.388 . S
C290 C291 1.382 . S
C290 H315 0.950 . S
C291 N286 1.332 . S
C291 C290 1.382 . S
C291 H301 0.948 . S
N292 Co270 2.280 1_654 S
N292 C296 1.328 1_554 S
N292 C297 1.334 . S
C293 C294 1.391 . S
C293 C297 1.381 1_556 S
C293 H316 0.949 1_556 S
C294 C293 1.391 . S
C294 C295 1.386 . S
C295 C294 1.386 . S
C295 C296 1.382 . S
C295 H317 0.950 . S
C296 N292 1.328 1_556 S
C296 C295 1.382 . S
C296 H298 0.952 1_655 S
C297 N292 1.334 . S
C297 C293 1.381 1_554 S
C297 H299 0.948 . S
H298 C296 0.952 1_455 S
H299 C297 0.948 . S
H300 C289 0.952 . S
H301 C291 0.948 . S
C302 C268 1.395 . S
C302 C272 1.391 . S
C303 C265 1.389 1_655 S
C303 C285 1.392 . S
C304 C275 1.392 . S
C304 C277 1.389 . S
C305 C280 1.395 . S
C305 C282 1.391 1_554 S
H306 C266 0.951 . S
H307 C267 0.950 . S
H308 C273 0.949 . S
H309 C274 0.950 . S
H310 C278 0.951 . S
H311 C279 0.950 . S
H312 C283 0.949 . S
H313 C284 0.950 . S
H314 C288 0.951 . S
H315 C290 0.950 . S
H316 C293 0.949 1_554 S
H317 C295 0.950 . S
C318 C319 1.443 . S
C318 N322 1.376 . S
C318 C356 1.389 . S
C319 C318 1.443 . S
C319 C320 1.340 . S
C319 H359 0.951 . S
C320 C319 1.340 . S
C320 C321 1.439 . S
C320 H360 0.950 . S
C321 C320 1.439 . S
C321 N322 1.374 . S
C321 C355 1.395 . S
N322 C318 1.376 . S
N322 C321 1.374 . S
N322 Co323 2.008 . S
Co323 N322 2.008 . S
Co323 N324 1.995 . S
Co323 N329 2.008 . S
Co323 N334 1.995 . S
Co323 N339 2.282 . S
Co323 N345 2.282 . S
N324 Co323 1.995 . S
N324 C325 1.376 . S
N324 C328 1.383 . S
C325 N324 1.376 . S
C325 C326 1.446 . S
C325 C355 1.391 . S
C326 C325 1.446 . S
C326 C327 1.339 . S
C326 H361 0.949 . S
C327 C326 1.339 . S
C327 C328 1.439 . S
C327 H362 0.950 . S
C328 N324 1.383 . S
C328 C327 1.439 . S
C328 C357 1.392 . S
N329 Co323 2.008 . S
N329 C330 1.376 . S
N329 C333 1.374 . S
C330 N329 1.376 . S
C330 C331 1.443 . S
C330 C357 1.389 . S
C331 C330 1.443 . S
C331 C332 1.340 . S
C331 H363 0.951 . S
C332 C331 1.340 . S
C332 C333 1.439 . S
C332 H364 0.950 . S
C333 N329 1.374 . S
C333 C332 1.439 . S
C333 C358 1.395 . S
N334 Co323 1.995 . S
N334 C335 1.376 . S
N334 C338 1.383 . S
C335 N334 1.376 . S
C335 C336 1.446 . S
C335 C358 1.391 . S
C336 C335 1.446 . S
C336 C337 1.339 . S
C336 H365 0.949 . S
C337 C336 1.339 . S
C337 C338 1.439 . S
C337 H366 0.950 . S
C338 N334 1.383 . S
C338 C337 1.439 . S
C338 C356 1.392 . S
N339 Co323 2.282 . S
N339 C342 1.332 . S
N339 C344 1.332 . S
C340 C341 1.386 . S
C340 C343 1.388 . S
C341 C340 1.386 . S
C341 C342 1.382 . S
C341 H367 0.950 . S
C342 N339 1.332 . S
C342 C341 1.382 . S
C342 H353 0.952 . S
C343 C340 1.388 . S
C343 C344 1.382 . S
C343 H368 0.950 . S
C344 N339 1.332 . S
C344 C343 1.382 . S
C344 H354 0.948 . S
N345 Co323 2.282 . S
N345 C349 1.332 . S
N345 C350 1.332 . S
C346 C347 1.388 . S
C346 C350 1.382 . S
C346 H369 0.950 . S
C347 C346 1.388 . S
C347 C348 1.386 . S
C348 C347 1.386 . S
C348 C349 1.382 . S
C348 H370 0.950 . S
C349 N345 1.332 . S
C349 C348 1.382 . S
C349 H351 0.952 . S
C350 N345 1.332 . S
C350 C346 1.382 . S
C350 H352 0.948 . S
H351 C349 0.952 . S
H352 C350 0.948 . S
H353 C342 0.952 . S
H354 C344 0.948 . S
C355 C321 1.395 . S
C355 C325 1.391 . S
C356 C318 1.389 . S
C356 C338 1.392 . S
C357 C328 1.392 . S
C357 C330 1.389 . S
C358 C333 1.395 . S
C358 C335 1.391 . S
H359 C319 0.951 . S
H360 C320 0.950 . S
H361 C326 0.949 . S
H362 C327 0.950 . S
H363 C331 0.951 . S
H364 C332 0.950 . S
H365 C336 0.949 . S
H366 C337 0.950 . S
H367 C341 0.950 . S
H368 C343 0.950 . S
H369 C346 0.950 . S
H370 C348 0.950 . S
C371 C372 1.443 . S
C371 N375 1.376 . S
C371 C409 1.389 1_455 S
C372 C371 1.443 . S
C372 C373 1.340 . S
C372 H412 0.951 . S
C373 C372 1.340 . S
C373 C374 1.439 . S
C373 H413 0.950 . S
C374 C373 1.439 . S
C374 N375 1.374 . S
C374 C408 1.395 . S
N375 C371 1.376 . S
N375 C374 1.374 . S
N375 Co376 2.008 . S
Co376 N375 2.008 . S
Co376 N377 1.995 . S
Co376 N382 2.008 . S
Co376 N387 1.995 1_455 S
Co376 N392 2.282 . S
Co376 N398 2.282 1_455 S
N377 Co376 1.995 . S
N377 C378 1.376 . S
N377 C381 1.383 . S
C378 N377 1.376 . S
C378 C379 1.446 . S
C378 C408 1.391 . S
C379 C378 1.446 . S
C379 C380 1.339 . S
C379 H414 0.949 . S
C380 C379 1.339 . S
C380 C381 1.439 . S
C380 H415 0.950 . S
C381 N377 1.383 . S
C381 C380 1.439 . S
C381 C410 1.392 . S
N382 Co376 2.008 . S
N382 C383 1.376 . S
N382 C386 1.374 1_455 S
C383 N382 1.376 . S
C383 C384 1.443 . S
C383 C410 1.389 . S
C384 C383 1.443 . S
C384 C385 1.340 1_455 S
C384 H416 0.951 . S
C385 C384 1.340 1_655 S
C385 C386 1.439 . S
C385 H417 0.950 . S
C386 N382 1.374 1_655 S
C386 C385 1.439 . S
C386 C411 1.395 . S
N387 Co376 1.995 1_655 S
N387 C388 1.376 . S
N387 C391 1.383 . S
C388 N387 1.376 . S
C388 C389 1.446 . S
C388 C411 1.391 . S
C389 C388 1.446 . S
C389 C390 1.339 . S
C389 H418 0.949 . S
C390 C389 1.339 . S
C390 C391 1.439 . S
C390 H419 0.950 . S
C391 N387 1.383 . S
C391 C390 1.439 . S
C391 C409 1.392 . S
N392 Co376 2.282 . S
N392 C395 1.332 . S
N392 C397 1.332 . S
C393 C394 1.386 . S
C393 C396 1.388 . S
C394 C393 1.386 . S
C394 C395 1.382 . S
C394 H420 0.950 . S
C395 N392 1.332 . S
C395 C394 1.382 . S
C395 H406 0.952 . S
C396 C393 1.388 . S
C396 C397 1.382 . S
C396 H421 0.950 . S
C397 N392 1.332 . S
C397 C396 1.382 . S
C397 H407 0.948 . S
N398 Co376 2.282 1_655 S
N398 C402 1.332 . S
N398 C403 1.332 . S
C399 C400 1.388 . S
C399 C403 1.382 . S
C399 H422 0.950 . S
C400 C399 1.388 . S
C400 C401 1.386 . S
C401 C400 1.386 . S
C401 C402 1.382 . S
C401 H423 0.950 . S
C402 N398 1.332 . S
C402 C401 1.382 . S
C402 H404 0.952 1_655 S
C403 N398 1.332 . S
C403 C399 1.382 . S
C403 H405 0.948 . S
H404 C402 0.952 1_455 S
H405 C403 0.948 . S
H406 C395 0.952 . S
H407 C397 0.948 . S
C408 C374 1.395 . S
C408 C378 1.391 . S
C409 C371 1.389 1_655 S
C409 C391 1.392 . S
C410 C381 1.392 . S
C410 C383 1.389 . S
C411 C386 1.395 . S
C411 C388 1.391 . S
H412 C372 0.951 . S
H413 C373 0.950 . S
H414 C379 0.949 . S
H415 C380 0.950 . S
H416 C384 0.951 . S
H417 C385 0.950 . S
H418 C389 0.949 . S
H419 C390 0.950 . S
H420 C394 0.950 . S
H421 C396 0.950 . S
H422 C399 0.950 . S
H423 C401 0.950 . S
C424 C425 1.443 . S
C424 N428 1.376 . S
C424 C462 1.389 . S
C425 C424 1.443 . S
C425 C426 1.340 . S
C425 H465 0.951 . S
C426 C425 1.340 . S
C426 C427 1.439 . S
C426 H466 0.950 . S
C427 C426 1.439 . S
C427 N428 1.374 . S
C427 C461 1.395 . S
N428 C424 1.376 . S
N428 C427 1.374 . S
N428 Co429 2.008 . S
Co429 N428 2.008 . S
Co429 N430 1.995 . S
Co429 N435 2.008 . S
Co429 N440 1.995 . S
Co429 N445 2.282 . S
Co429 N451 2.282 . S
N430 Co429 1.995 . S
N430 C431 1.376 . S
N430 C434 1.383 . S
C431 N430 1.376 . S
C431 C432 1.446 . S
C431 C461 1.391 . S
C432 C431 1.446 . S
C432 C433 1.339 . S
C432 H467 0.949 . S
C433 C432 1.339 . S
C433 C434 1.439 . S
C433 H468 0.950 . S
C434 N430 1.383 . S
C434 C433 1.439 . S
C434 C463 1.392 . S
N435 Co429 2.008 . S
N435 C436 1.376 . S
N435 C439 1.374 . S
C436 N435 1.376 . S
C436 C437 1.443 . S
C436 C463 1.389 . S
C437 C436 1.443 . S
C437 C438 1.340 . S
C437 H469 0.951 . S
C438 C437 1.340 . S
C438 C439 1.439 . S
C438 H470 0.950 . S
C439 N435 1.374 . S
C439 C438 1.439 . S
C439 C464 1.395 . S
N440 Co429 1.995 . S
N440 C441 1.376 . S
N440 C444 1.383 . S
C441 N440 1.376 . S
C441 C442 1.446 . S
C441 C464 1.391 . S
C442 C441 1.446 . S
C442 C443 1.339 . S
C442 H471 0.949 . S
C443 C442 1.339 . S
C443 C444 1.439 . S
C443 H472 0.950 . S
C444 N440 1.383 . S
C444 C443 1.439 . S
C444 C462 1.392 . S
N445 Co429 2.282 . S
N445 C448 1.332 . S
N445 C450 1.332 . S
C446 C447 1.386 . S
C446 C449 1.388 . S
C447 C446 1.386 . S
C447 C448 1.382 . S
C447 H473 0.950 . S
C448 N445 1.332 . S
C448 C447 1.382 . S
C448 H459 0.952 . S
C449 C446 1.388 . S
C449 C450 1.382 . S
C449 H474 0.950 . S
C450 N445 1.332 . S
C450 C449 1.382 . S
C450 H460 0.948 . S
N451 Co429 2.282 . S
N451 C455 1.332 . S
N451 C456 1.332 . S
C452 C453 1.388 . S
C452 C456 1.382 . S
C452 H475 0.950 . S
C453 C452 1.388 . S
C453 C454 1.386 . S
C454 C453 1.386 . S
C454 C455 1.382 . S
C454 H476 0.950 . S
C455 N451 1.332 . S
C455 C454 1.382 . S
C455 H457 0.952 . S
C456 N451 1.332 . S
C456 C452 1.382 . S
C456 H458 0.948 . S
H457 C455 0.952 . S
H458 C456 0.948 . S
H459 C448 0.952 . S
H460 C450 0.948 . S
C461 C427 1.395 . S
C461 C431 1.391 . S
C462 C424 1.389 . S
C462 C444 1.392 . S
C463 C434 1.392 . S
C463 C436 1.389 . S
C464 C439 1.395 . S
C464 C441 1.391 . S
H465 C425 0.951 . S
H466 C426 0.950 . S
H467 C432 0.949 . S
H468 C433 0.950 . S
H469 C437 0.951 . S
H470 C438 0.950 . S
H471 C442 0.949 . S
H472 C443 0.950 . S
H473 C447 0.950 . S
H474 C449 0.950 . S
H475 C452 0.950 . S
H476 C454 0.950 . S
C477 C478 1.443 . S
C477 N481 1.376 . S
C477 C515 1.389 . S
C478 C477 1.443 . S
C478 C479 1.340 . S
C478 H518 0.951 . S
C479 C478 1.340 . S
C479 C480 1.439 . S
C479 H519 0.950 . S
C480 C479 1.439 . S
C480 N481 1.374 . S
C480 C514 1.395 . S
N481 C477 1.376 . S
N481 C480 1.374 . S
N481 Co482 2.008 1_455 S
Co482 N481 2.008 1_655 S
Co482 N483 1.995 1_655 S
Co482 N488 2.008 . S
Co482 N493 1.995 . S
Co482 N498 2.282 . S
Co482 N504 2.282 1_655 S
N483 Co482 1.995 1_455 S
N483 C484 1.376 . S
N483 C487 1.383 1_455 S
C484 N483 1.376 . S
C484 C485 1.446 . S
C484 C514 1.391 . S
C485 C484 1.446 . S
C485 C486 1.339 1_455 S
C485 H520 0.949 . S
C486 C485 1.339 1_655 S
C486 C487 1.439 . S
C486 H521 0.950 . S
C487 N483 1.383 1_655 S
C487 C486 1.439 . S
C487 C516 1.392 . S
N488 Co482 2.008 . S
N488 C489 1.376 . S
N488 C492 1.374 . S
C489 N488 1.376 . S
C489 C490 1.443 . S
C489 C516 1.389 . S
C490 C489 1.443 . S
C490 C491 1.340 . S
C490 H522 0.951 . S
C491 C490 1.340 . S
C491 C492 1.439 . S
C491 H523 0.950 . S
C492 N488 1.374 . S
C492 C491 1.439 . S
C492 C517 1.395 . S
N493 Co482 1.995 . S
N493 C494 1.376 . S
N493 C497 1.383 . S
C494 N493 1.376 . S
C494 C495 1.446 . S
C494 C517 1.391 . S
C495 C494 1.446 . S
C495 C496 1.339 . S
C495 H524 0.949 . S
C496 C495 1.339 . S
C496 C497 1.439 . S
C496 H525 0.950 . S
C497 N493 1.383 . S
C497 C496 1.439 . S
C497 C515 1.392 1_655 S
N498 Co482 2.282 . S
N498 C501 1.332 . S
N498 C503 1.332 . S
C499 C500 1.386 . S
C499 C502 1.388 . S
C500 C499 1.386 . S
C500 C501 1.382 . S
C500 H526 0.950 . S
C501 N498 1.332 . S
C501 C500 1.382 . S
C501 H512 0.952 . S
C502 C499 1.388 . S
C502 C503 1.382 . S
C502 H527 0.950 . S
C503 N498 1.332 . S
C503 C502 1.382 . S
C503 H513 0.948 . S
N504 Co482 2.282 1_455 S
N504 C508 1.332 . S
N504 C509 1.332 . S
C505 C506 1.388 . S
C505 C509 1.382 . S
C505 H528 0.950 . S
C506 C505 1.388 . S
C506 C507 1.386 . S
C507 C506 1.386 . S
C507 C508 1.382 . S
C507 H529 0.950 . S
C508 N504 1.332 . S
C508 C507 1.382 . S
C508 H510 0.952 . S
C509 N504 1.332 . S
C509 C505 1.382 . S
C509 H511 0.948 1_455 S
H510 C508 0.952 . S
H511 C509 0.948 1_655 S
H512 C501 0.952 . S
H513 C503 0.948 . S
C514 C480 1.395 . S
C514 C484 1.391 . S
C515 C477 1.389 . S
C515 C497 1.392 1_455 S
C516 C487 1.392 . S
C516 C489 1.389 . S
C517 C492 1.395 . S
C517 C494 1.391 . S
H518 C478 0.951 . S
H519 C479 0.950 . S
H520 C485 0.949 . S
H521 C486 0.950 . S
H522 C490 0.951 . S
H523 C491 0.950 . S
H524 C495 0.949 . S
H525 C496 0.950 . S
H526 C500 0.950 . S
H527 C502 0.950 . S
H528 C505 0.950 . S
H529 C507 0.950 . S
C530 C531 1.443 . S
C530 N534 1.376 . S
C530 C568 1.389 . S
C531 C530 1.443 . S
C531 C532 1.340 . S
C531 H571 0.951 . S
C532 C531 1.340 . S
C532 C533 1.439 . S
C532 H572 0.950 . S
C533 C532 1.439 . S
C533 N534 1.374 . S
C533 C567 1.395 . S
N534 C530 1.376 . S
N534 C533 1.374 . S
N534 Co535 2.008 . S
Co535 N534 2.008 . S
Co535 N536 1.995 . S
Co535 N541 2.008 . S
Co535 N546 1.995 . S
Co535 N551 2.282 . S
Co535 N557 2.282 . S
N536 Co535 1.995 . S
N536 C537 1.376 . S
N536 C540 1.383 . S
C537 N536 1.376 . S
C537 C538 1.446 . S
C537 C567 1.391 . S
C538 C537 1.446 . S
C538 C539 1.339 . S
C538 H573 0.949 . S
C539 C538 1.339 . S
C539 C540 1.439 . S
C539 H574 0.950 . S
C540 N536 1.383 . S
C540 C539 1.439 . S
C540 C569 1.392 . S
N541 Co535 2.008 . S
N541 C542 1.376 . S
N541 C545 1.374 . S
C542 N541 1.376 . S
C542 C543 1.443 . S
C542 C569 1.389 . S
C543 C542 1.443 . S
C543 C544 1.340 . S
C543 H575 0.951 . S
C544 C543 1.340 . S
C544 C545 1.439 . S
C544 H576 0.950 . S
C545 N541 1.374 . S
C545 C544 1.439 . S
C545 C570 1.395 . S
N546 Co535 1.995 . S
N546 C547 1.376 . S
N546 C550 1.383 . S
C547 N546 1.376 . S
C547 C548 1.446 . S
C547 C570 1.391 . S
C548 C547 1.446 . S
C548 C549 1.339 . S
C548 H577 0.949 . S
C549 C548 1.339 . S
C549 C550 1.439 . S
C549 H578 0.950 . S
C550 N546 1.383 . S
C550 C549 1.439 . S
C550 C568 1.392 . S
N551 Co535 2.282 . S
N551 C554 1.332 . S
N551 C556 1.332 . S
C552 C553 1.386 . S
C552 C555 1.388 . S
C553 C552 1.386 . S
C553 C554 1.382 . S
C553 H579 0.950 . S
C554 N551 1.332 . S
C554 C553 1.382 . S
C554 H565 0.952 . S
C555 C552 1.388 . S
C555 C556 1.382 . S
C555 H580 0.950 . S
C556 N551 1.332 . S
C556 C555 1.382 . S
C556 H566 0.948 . S
N557 Co535 2.282 . S
N557 C561 1.332 . S
N557 C562 1.332 . S
C558 C559 1.388 . S
C558 C562 1.382 . S
C558 H581 0.950 . S
C559 C558 1.388 . S
C559 C560 1.386 . S
C560 C559 1.386 . S
C560 C561 1.382 . S
C560 H582 0.950 . S
C561 N557 1.332 . S
C561 C560 1.382 . S
C561 H563 0.952 . S
C562 N557 1.332 . S
C562 C558 1.382 . S
C562 H564 0.948 . S
H563 C561 0.952 . S
H564 C562 0.948 . S
H565 C554 0.952 . S
H566 C556 0.948 . S
C567 C533 1.395 . S
C567 C537 1.391 . S
C568 C530 1.389 . S
C568 C550 1.392 . S
C569 C540 1.392 . S
C569 C542 1.389 . S
C570 C545 1.395 . S
C570 C547 1.391 . S
H571 C531 0.951 . S
H572 C532 0.950 . S
H573 C538 0.949 . S
H574 C539 0.950 . S
H575 C543 0.951 . S
H576 C544 0.950 . S
H577 C548 0.949 . S
H578 C549 0.950 . S
H579 C553 0.950 . S
H580 C555 0.950 . S
H581 C558 0.950 . S
H582 C560 0.950 . S
C583 C584 1.443 . S
C583 N587 1.376 . S
C583 C621 1.389 . S
C584 C583 1.443 . S
C584 C585 1.340 . S
C584 H624 0.951 . S
C585 C584 1.340 . S
C585 C586 1.439 . S
C585 H625 0.950 . S
C586 C585 1.439 . S
C586 N587 1.374 . S
C586 C620 1.395 . S
N587 C583 1.376 . S
N587 C586 1.374 . S
N587 Co588 2.008 1_455 S
Co588 N587 2.008 1_655 S
Co588 N589 1.995 1_655 S
Co588 N594 2.008 . S
Co588 N599 1.995 . S
Co588 N604 2.282 . S
Co588 N610 2.282 1_655 S
N589 Co588 1.995 1_455 S
N589 C590 1.376 . S
N589 C593 1.383 1_455 S
C590 N589 1.376 . S
C590 C591 1.446 . S
C590 C620 1.391 . S
C591 C590 1.446 . S
C591 C592 1.339 1_455 S
C591 H626 0.949 . S
C592 C591 1.339 1_655 S
C592 C593 1.439 . S
C592 H627 0.950 . S
C593 N589 1.383 1_655 S
C593 C592 1.439 . S
C593 C622 1.392 . S
N594 Co588 2.008 . S
N594 C595 1.376 . S
N594 C598 1.374 . S
C595 N594 1.376 . S
C595 C596 1.443 . S
C595 C622 1.389 . S
C596 C595 1.443 . S
C596 C597 1.340 . S
C596 H628 0.951 . S
C597 C596 1.340 . S
C597 C598 1.439 . S
C597 H629 0.950 . S
C598 N594 1.374 . S
C598 C597 1.439 . S
C598 C623 1.395 . S
N599 Co588 1.995 . S
N599 C600 1.376 . S
N599 C603 1.383 . S
C600 N599 1.376 . S
C600 C601 1.446 . S
C600 C623 1.391 . S
C601 C600 1.446 . S
C601 C602 1.339 . S
C601 H630 0.949 . S
C602 C601 1.339 . S
C602 C603 1.439 . S
C602 H631 0.950 . S
C603 N599 1.383 . S
C603 C602 1.439 . S
C603 C621 1.392 1_655 S
N604 Co588 2.282 . S
N604 C607 1.332 . S
N604 C609 1.332 . S
C605 C606 1.386 . S
C605 C608 1.388 . S
C606 C605 1.386 . S
C606 C607 1.382 . S
C606 H632 0.950 . S
C607 N604 1.332 . S
C607 C606 1.382 . S
C607 H618 0.952 . S
C608 C605 1.388 . S
C608 C609 1.382 . S
C608 H633 0.950 . S
C609 N604 1.332 . S
C609 C608 1.382 . S
C609 H619 0.948 . S
N610 Co588 2.282 1_455 S
N610 C614 1.332 . S
N610 C615 1.332 . S
C611 C612 1.388 . S
C611 C615 1.382 . S
C611 H634 0.950 . S
C612 C611 1.388 . S
C612 C613 1.386 . S
C613 C612 1.386 . S
C613 C614 1.382 . S
C613 H635 0.950 . S
C614 N610 1.332 . S
C614 C613 1.382 . S
C614 H616 0.952 . S
C615 N610 1.332 . S
C615 C611 1.382 . S
C615 H617 0.948 1_455 S
H616 C614 0.952 . S
H617 C615 0.948 1_655 S
H618 C607 0.952 . S
H619 C609 0.948 . S
C620 C586 1.395 . S
C620 C590 1.391 . S
C621 C583 1.389 . S
C621 C603 1.392 1_455 S
C622 C593 1.392 . S
C622 C595 1.389 . S
C623 C598 1.395 . S
C623 C600 1.391 . S
H624 C584 0.951 . S
H625 C585 0.950 . S
H626 C591 0.949 . S
H627 C592 0.950 . S
H628 C596 0.951 . S
H629 C597 0.950 . S
H630 C601 0.949 . S
H631 C602 0.950 . S
H632 C606 0.950 . S
H633 C608 0.950 . S
H634 C611 0.950 . S
H635 C613 0.950 . S
C636 C637 1.443 . S
C636 N640 1.376 . S
C636 C674 1.389 . S
C637 C636 1.443 . S
C637 C638 1.340 . S
C637 H677 0.951 . S
C638 C637 1.340 . S
C638 C639 1.439 . S
C638 H678 0.950 . S
C639 C638 1.439 . S
C639 N640 1.374 . S
C639 C673 1.395 . S
N640 C636 1.376 . S
N640 C639 1.374 . S
N640 Co641 2.008 . S
Co641 N640 2.008 . S
Co641 N642 1.995 . S
Co641 N647 2.008 . S
Co641 N652 1.995 . S
Co641 N657 2.282 . S
Co641 N663 2.282 . S
N642 Co641 1.995 . S
N642 C643 1.376 . S
N642 C646 1.383 . S
C643 N642 1.376 . S
C643 C644 1.446 . S
C643 C673 1.391 . S
C644 C643 1.446 . S
C644 C645 1.339 . S
C644 H679 0.949 . S
C645 C644 1.339 . S
C645 C646 1.439 . S
C645 H680 0.950 . S
C646 N642 1.383 . S
C646 C645 1.439 . S
C646 C675 1.392 . S
N647 Co641 2.008 . S
N647 C648 1.376 . S
N647 C651 1.374 . S
C648 N647 1.376 . S
C648 C649 1.443 . S
C648 C675 1.389 . S
C649 C648 1.443 . S
C649 C650 1.340 . S
C649 H681 0.951 . S
C650 C649 1.340 . S
C650 C651 1.439 . S
C650 H682 0.950 . S
C651 N647 1.374 . S
C651 C650 1.439 . S
C651 C676 1.395 . S
N652 Co641 1.995 . S
N652 C653 1.376 . S
N652 C656 1.383 . S
C653 N652 1.376 . S
C653 C654 1.446 . S
C653 C676 1.391 . S
C654 C653 1.446 . S
C654 C655 1.339 . S
C654 H683 0.949 . S
C655 C654 1.339 . S
C655 C656 1.439 . S
C655 H684 0.950 . S
C656 N652 1.383 . S
C656 C655 1.439 . S
C656 C674 1.392 . S
N657 Co641 2.282 . S
N657 C660 1.332 . S
N657 C662 1.332 . S
C658 C659 1.386 . S
C658 C661 1.388 . S
C659 C658 1.386 . S
C659 C660 1.382 . S
C659 H685 0.950 . S
C660 N657 1.332 . S
C660 C659 1.382 . S
C660 H671 0.952 . S
C661 C658 1.388 . S
C661 C662 1.382 . S
C661 H686 0.950 . S
C662 N657 1.332 . S
C662 C661 1.382 . S
C662 H672 0.948 . S
N663 Co641 2.282 . S
N663 C667 1.332 . S
N663 C668 1.332 . S
C664 C665 1.388 . S
C664 C668 1.382 . S
C664 H687 0.950 . S
C665 C664 1.388 . S
C665 C666 1.386 . S
C666 C665 1.386 . S
C666 C667 1.382 . S
C666 H688 0.950 . S
C667 N663 1.332 . S
C667 C666 1.382 . S
C667 H669 0.952 . S
C668 N663 1.332 . S
C668 C664 1.382 . S
C668 H670 0.948 . S
H669 C667 0.952 . S
H670 C668 0.948 . S
H671 C660 0.952 . S
H672 C662 0.948 . S
C673 C639 1.395 . S
C673 C643 1.391 . S
C674 C636 1.389 . S
C674 C656 1.392 . S
C675 C646 1.392 . S
C675 C648 1.389 . S
C676 C651 1.395 . S
C676 C653 1.391 . S
H677 C637 0.951 . S
H678 C638 0.950 . S
H679 C644 0.949 . S
H680 C645 0.950 . S
H681 C649 0.951 . S
H682 C650 0.950 . S
H683 C654 0.949 . S
H684 C655 0.950 . S
H685 C659 0.950 . S
H686 C661 0.950 . S
H687 C664 0.950 . S
H688 C666 0.950 . S
C689 C690 1.443 . S
C689 N693 1.376 . S
C689 C727 1.389 1_455 S
C690 C689 1.443 . S
C690 C691 1.340 . S
C690 H730 0.951 . S
C691 C690 1.340 . S
C691 C692 1.439 . S
C691 H731 0.950 . S
C692 C691 1.439 . S
C692 N693 1.374 . S
C692 C726 1.395 . S
N693 C689 1.376 . S
N693 C692 1.374 . S
N693 Co694 2.008 . S
Co694 N693 2.008 . S
Co694 N695 1.995 . S
Co694 N700 2.008 . S
Co694 N705 1.995 1_455 S
Co694 N710 2.282 . S
Co694 N716 2.282 1_455 S
N695 Co694 1.995 . S
N695 C696 1.376 . S
N695 C699 1.383 . S
C696 N695 1.376 . S
C696 C697 1.446 . S
C696 C726 1.391 . S
C697 C696 1.446 . S
C697 C698 1.339 . S
C697 H732 0.949 . S
C698 C697 1.339 . S
C698 C699 1.439 . S
C698 H733 0.950 . S
C699 N695 1.383 . S
C699 C698 1.439 . S
C699 C728 1.392 . S
N700 Co694 2.008 . S
N700 C701 1.376 . S
N700 C704 1.374 1_455 S
C701 N700 1.376 . S
C701 C702 1.443 . S
C701 C728 1.389 . S
C702 C701 1.443 . S
C702 C703 1.340 1_455 S
C702 H734 0.951 . S
C703 C702 1.340 1_655 S
C703 C704 1.439 . S
C703 H735 0.950 . S
C704 N700 1.374 1_655 S
C704 C703 1.439 . S
C704 C729 1.395 . S
N705 Co694 1.995 1_655 S
N705 C706 1.376 . S
N705 C709 1.383 . S
C706 N705 1.376 . S
C706 C707 1.446 . S
C706 C729 1.391 . S
C707 C706 1.446 . S
C707 C708 1.339 . S
C707 H736 0.949 . S
C708 C707 1.339 . S
C708 C709 1.439 . S
C708 H737 0.950 . S
C709 N705 1.383 . S
C709 C708 1.439 . S
C709 C727 1.392 . S
N710 Co694 2.282 . S
N710 C713 1.332 . S
N710 C715 1.332 . S
C711 C712 1.386 . S
C711 C714 1.388 . S
C712 C711 1.386 . S
C712 C713 1.382 . S
C712 H738 0.950 . S
C713 N710 1.332 . S
C713 C712 1.382 . S
C713 H724 0.952 . S
C714 C711 1.388 . S
C714 C715 1.382 . S
C714 H739 0.950 . S
C715 N710 1.332 . S
C715 C714 1.382 . S
C715 H725 0.948 . S
N716 Co694 2.282 1_655 S
N716 C720 1.332 . S
N716 C721 1.332 . S
C717 C718 1.388 . S
C717 C721 1.382 . S
C717 H740 0.950 . S
C718 C717 1.388 . S
C718 C719 1.386 . S
C719 C718 1.386 . S
C719 C720 1.382 . S
C719 H741 0.950 . S
C720 N716 1.332 . S
C720 C719 1.382 . S
C720 H722 0.952 1_655 S
C721 N716 1.332 . S
C721 C717 1.382 . S
C721 H723 0.948 . S
H722 C720 0.952 1_455 S
H723 C721 0.948 . S
H724 C713 0.952 . S
H725 C715 0.948 . S
C726 C692 1.395 . S
C726 C696 1.391 . S
C727 C689 1.389 1_655 S
C727 C709 1.392 . S
C728 C699 1.392 . S
C728 C701 1.389 . S
C729 C704 1.395 . S
C729 C706 1.391 . S
H730 C690 0.951 . S
H731 C691 0.950 . S
H732 C697 0.949 . S
H733 C698 0.950 . S
H734 C702 0.951 . S
H735 C703 0.950 . S
H736 C707 0.949 . S
H737 C708 0.950 . S
H738 C712 0.950 . S
H739 C714 0.950 . S
H740 C717 0.950 . S
H741 C719 0.950 . S
C742 C743 1.443 . S
C742 N746 1.376 . S
C742 C780 1.389 . S
C743 C742 1.443 . S
C743 C744 1.340 . S
C743 H783 0.951 . S
C744 C743 1.340 . S
C744 C745 1.439 . S
C744 H784 0.950 . S
C745 C744 1.439 . S
C745 N746 1.374 . S
C745 C779 1.395 . S
N746 C742 1.376 . S
N746 C745 1.374 . S
N746 Co747 2.008 . S
Co747 N746 2.008 . S
Co747 N748 1.995 . S
Co747 N753 2.008 . S
Co747 N758 1.995 . S
Co747 N763 2.282 . S
Co747 N769 2.282 . S
N748 Co747 1.995 . S
N748 C749 1.376 . S
N748 C752 1.383 . S
C749 N748 1.376 . S
C749 C750 1.446 . S
C749 C779 1.391 . S
C750 C749 1.446 . S
C750 C751 1.339 . S
C750 H785 0.949 . S
C751 C750 1.339 . S
C751 C752 1.439 . S
C751 H786 0.950 . S
C752 N748 1.383 . S
C752 C751 1.439 . S
C752 C781 1.392 . S
N753 Co747 2.008 . S
N753 C754 1.376 . S
N753 C757 1.374 . S
C754 N753 1.376 . S
C754 C755 1.443 . S
C754 C781 1.389 . S
C755 C754 1.443 . S
C755 C756 1.340 . S
C755 H787 0.951 . S
C756 C755 1.340 . S
C756 C757 1.439 . S
C756 H788 0.950 . S
C757 N753 1.374 . S
C757 C756 1.439 . S
C757 C782 1.395 . S
N758 Co747 1.995 . S
N758 C759 1.376 . S
N758 C762 1.383 . S
C759 N758 1.376 . S
C759 C760 1.446 . S
C759 C782 1.391 . S
C760 C759 1.446 . S
C760 C761 1.339 . S
C760 H789 0.949 . S
C761 C760 1.339 . S
C761 C762 1.439 . S
C761 H790 0.950 . S
C762 N758 1.383 . S
C762 C761 1.439 . S
C762 C780 1.392 . S
N763 Co747 2.282 . S
N763 C766 1.332 . S
N763 C768 1.332 . S
C764 C765 1.386 . S
C764 C767 1.388 . S
C765 C764 1.386 . S
C765 C766 1.382 . S
C765 H791 0.950 . S
C766 N763 1.332 . S
C766 C765 1.382 . S
C766 H777 0.952 . S
C767 C764 1.388 . S
C767 C768 1.382 . S
C767 H792 0.950 . S
C768 N763 1.332 . S
C768 C767 1.382 . S
C768 H778 0.948 . S
N769 Co747 2.282 . S
N769 C773 1.332 . S
N769 C774 1.332 . S
C770 C771 1.388 . S
C770 C774 1.382 . S
C770 H793 0.950 . S
C771 C770 1.388 . S
C771 C772 1.386 . S
C772 C771 1.386 . S
C772 C773 1.382 . S
C772 H794 0.950 . S
C773 N769 1.332 . S
C773 C772 1.382 . S
C773 H775 0.952 . S
C774 N769 1.332 . S
C774 C770 1.382 . S
C774 H776 0.948 . S
H775 C773 0.952 . S
H776 C774 0.948 . S
H777 C766 0.952 . S
H778 C768 0.948 . S
C779 C745 1.395 . S
C779 C749 1.391 . S
C780 C742 1.389 . S
C780 C762 1.392 . S
C781 C752 1.392 . S
C781 C754 1.389 . S
C782 C757 1.395 . S
C782 C759 1.391 . S
H783 C743 0.951 . S
H784 C744 0.950 . S
H785 C750 0.949 . S
H786 C751 0.950 . S
H787 C755 0.951 . S
H788 C756 0.950 . S
H789 C760 0.949 . S
H790 C761 0.950 . S
H791 C765 0.950 . S
H792 C767 0.950 . S
H793 C770 0.950 . S
H794 C772 0.950 . S
C795 C796 1.443 . S
C795 N799 1.376 . S
C795 C833 1.389 1_455 S
C796 C795 1.443 . S
C796 C797 1.340 . S
C796 H836 0.951 . S
C797 C796 1.340 . S
C797 C798 1.439 . S
C797 H837 0.950 . S
C798 C797 1.439 . S
C798 N799 1.374 . S
C798 C832 1.395 . S
N799 C795 1.376 . S
N799 C798 1.374 . S
N799 Co800 2.008 . S
Co800 N799 2.008 . S
Co800 N801 1.995 . S
Co800 N806 2.008 . S
Co800 N811 1.995 1_455 S
Co800 N816 2.282 . S
Co800 N822 2.282 1_455 S
N801 Co800 1.995 . S
N801 C802 1.376 . S
N801 C805 1.383 . S
C802 N801 1.376 . S
C802 C803 1.446 . S
C802 C832 1.391 . S
C803 C802 1.446 . S
C803 C804 1.339 . S
C803 H838 0.949 . S
C804 C803 1.339 . S
C804 C805 1.439 . S
C804 H839 0.950 . S
C805 N801 1.383 . S
C805 C804 1.439 . S
C805 C834 1.392 . S
N806 Co800 2.008 . S
N806 C807 1.376 . S
N806 C810 1.374 1_455 S
C807 N806 1.376 . S
C807 C808 1.443 . S
C807 C834 1.389 . S
C808 C807 1.443 . S
C808 C809 1.340 1_455 S
C808 H840 0.951 . S
C809 C808 1.340 1_655 S
C809 C810 1.439 . S
C809 H841 0.950 . S
C810 N806 1.374 1_655 S
C810 C809 1.439 . S
C810 C835 1.395 . S
N811 Co800 1.995 1_655 S
N811 C812 1.376 . S
N811 C815 1.383 . S
C812 N811 1.376 . S
C812 C813 1.446 . S
C812 C835 1.391 . S
C813 C812 1.446 . S
C813 C814 1.339 . S
C813 H842 0.949 . S
C814 C813 1.339 . S
C814 C815 1.439 . S
C814 H843 0.950 . S
C815 N811 1.383 . S
C815 C814 1.439 . S
C815 C833 1.392 . S
N816 Co800 2.282 . S
N816 C819 1.332 . S
N816 C821 1.332 . S
C817 C818 1.386 . S
C817 C820 1.388 . S
C818 C817 1.386 . S
C818 C819 1.382 . S
C818 H844 0.950 . S
C819 N816 1.332 . S
C819 C818 1.382 . S
C819 H830 0.952 . S
C820 C817 1.388 . S
C820 C821 1.382 . S
C820 H845 0.950 . S
C821 N816 1.332 . S
C821 C820 1.382 . S
C821 H831 0.948 . S
N822 Co800 2.282 1_655 S
N822 C826 1.332 . S
N822 C827 1.332 . S
C823 C824 1.388 . S
C823 C827 1.382 . S
C823 H846 0.950 . S
C824 C823 1.388 . S
C824 C825 1.386 . S
C825 C824 1.386 . S
C825 C826 1.382 . S
C825 H847 0.950 . S
C826 N822 1.332 . S
C826 C825 1.382 . S
C826 H828 0.952 1_655 S
C827 N822 1.332 . S
C827 C823 1.382 . S
C827 H829 0.948 . S
H828 C826 0.952 1_455 S
H829 C827 0.948 . S
H830 C819 0.952 . S
H831 C821 0.948 . S
C832 C798 1.395 . S
C832 C802 1.391 . S
C833 C795 1.389 1_655 S
C833 C815 1.392 . S
C834 C805 1.392 . S
C834 C807 1.389 . S
C835 C810 1.395 . S
C835 C812 1.391 . S
H836 C796 0.951 . S
H837 C797 0.950 . S
H838 C803 0.949 . S
H839 C804 0.950 . S
H840 C808 0.951 . S
H841 C809 0.950 . S
H842 C813 0.949 . S
H843 C814 0.950 . S
H844 C818 0.950 . S
H845 C820 0.950 . S
H846 C823 0.950 . S
H847 C825 0.950 . S
C848 C849 1.443 . S
C848 N852 1.376 . S
C848 C886 1.389 . S
C849 C848 1.443 . S
C849 C850 1.340 . S
C849 H889 0.951 . S
C850 C849 1.340 . S
C850 C851 1.439 . S
C850 H890 0.950 . S
C851 C850 1.439 . S
C851 N852 1.374 . S
C851 C885 1.395 . S
N852 C848 1.376 . S
N852 C851 1.374 . S
N852 Co853 2.008 . S
Co853 N852 2.008 . S
Co853 N854 1.995 . S
Co853 N859 2.008 . S
Co853 N864 1.995 . S
Co853 N869 2.282 . S
Co853 N875 2.282 . S
N854 Co853 1.995 . S
N854 C855 1.376 . S
N854 C858 1.383 . S
C855 N854 1.376 . S
C855 C856 1.446 . S
C855 C885 1.391 . S
C856 C855 1.446 . S
C856 C857 1.339 . S
C856 H891 0.949 . S
C857 C856 1.339 . S
C857 C858 1.439 . S
C857 H892 0.950 . S
C858 N854 1.383 . S
C858 C857 1.439 . S
C858 C887 1.392 . S
N859 Co853 2.008 . S
N859 C860 1.376 . S
N859 C863 1.374 . S
C860 N859 1.376 . S
C860 C861 1.443 . S
C860 C887 1.389 . S
C861 C860 1.443 . S
C861 C862 1.340 . S
C861 H893 0.951 . S
C862 C861 1.340 . S
C862 C863 1.439 . S
C862 H894 0.950 . S
C863 N859 1.374 . S
C863 C862 1.439 . S
C863 C888 1.395 . S
N864 Co853 1.995 . S
N864 C865 1.376 . S
N864 C868 1.383 . S
C865 N864 1.376 . S
C865 C866 1.446 . S
C865 C888 1.391 . S
C866 C865 1.446 . S
C866 C867 1.339 . S
C866 H895 0.949 . S
C867 C866 1.339 . S
C867 C868 1.439 . S
C867 H896 0.950 . S
C868 N864 1.383 . S
C868 C867 1.439 . S
C868 C886 1.392 . S
N869 Co853 2.282 . S
N869 C872 1.332 . S
N869 C874 1.332 . S
C870 C871 1.386 . S
C870 C873 1.388 . S
C871 C870 1.386 . S
C871 C872 1.382 . S
C871 H897 0.950 . S
C872 N869 1.332 . S
C872 C871 1.382 . S
C872 H883 0.952 . S
C873 C870 1.388 . S
C873 C874 1.382 . S
C873 H898 0.950 . S
C874 N869 1.332 . S
C874 C873 1.382 . S
C874 H884 0.948 . S
N875 Co853 2.282 . S
N875 C879 1.332 . S
N875 C880 1.332 . S
C876 C877 1.388 . S
C876 C880 1.382 . S
C876 H899 0.950 . S
C877 C876 1.388 . S
C877 C878 1.386 . S
C878 C877 1.386 . S
C878 C879 1.382 . S
C878 H900 0.950 . S
C879 N875 1.332 . S
C879 C878 1.382 . S
C879 H881 0.952 . S
C880 N875 1.332 . S
C880 C876 1.382 . S
C880 H882 0.948 . S
H881 C879 0.952 . S
H882 C880 0.948 . S
H883 C872 0.952 . S
H884 C874 0.948 . S
C885 C851 1.395 . S
C885 C855 1.391 . S
C886 C848 1.389 . S
C886 C868 1.392 . S
C887 C858 1.392 . S
C887 C860 1.389 . S
C888 C863 1.395 . S
C888 C865 1.391 . S
H889 C849 0.951 . S
H890 C850 0.950 . S
H891 C856 0.949 . S
H892 C857 0.950 . S
H893 C861 0.951 . S
H894 C862 0.950 . S
H895 C866 0.949 . S
H896 C867 0.950 . S
H897 C871 0.950 . S
H898 C873 0.950 . S
H899 C876 0.950 . S
H900 C878 0.950 . S
C901 C902 1.443 . S
C901 N905 1.376 . S
C901 C939 1.389 . S
C902 C901 1.443 . S
C902 C903 1.340 . S
C902 H942 0.951 . S
C903 C902 1.340 . S
C903 C904 1.439 . S
C903 H943 0.950 . S
C904 C903 1.439 . S
C904 N905 1.374 . S
C904 C938 1.395 . S
N905 C901 1.376 . S
N905 C904 1.374 . S
N905 Co906 2.008 . S
Co906 N905 2.008 . S
Co906 N907 1.995 . S
Co906 N912 2.008 . S
Co906 N917 1.995 . S
Co906 N922 2.282 . S
Co906 N928 2.282 . S
N907 Co906 1.995 . S
N907 C908 1.376 . S
N907 C911 1.383 . S
C908 N907 1.376 . S
C908 C909 1.446 . S
C908 C938 1.391 . S
C909 C908 1.446 . S
C909 C910 1.339 . S
C909 H944 0.949 . S
C910 C909 1.339 . S
C910 C911 1.439 . S
C910 H945 0.950 . S
C911 N907 1.383 . S
C911 C910 1.439 . S
C911 C940 1.392 . S
N912 Co906 2.008 . S
N912 C913 1.376 . S
N912 C916 1.374 . S
C913 N912 1.376 . S
C913 C914 1.443 . S
C913 C940 1.389 . S
C914 C913 1.443 . S
C914 C915 1.340 . S
C914 H946 0.951 . S
C915 C914 1.340 . S
C915 C916 1.439 . S
C915 H947 0.950 . S
C916 N912 1.374 . S
C916 C915 1.439 . S
C916 C941 1.395 . S
N917 Co906 1.995 . S
N917 C918 1.376 . S
N917 C921 1.383 . S
C918 N917 1.376 . S
C918 C919 1.446 . S
C918 C941 1.391 . S
C919 C918 1.446 . S
C919 C920 1.339 . S
C919 H948 0.949 . S
C920 C919 1.339 . S
C920 C921 1.439 . S
C920 H949 0.950 . S
C921 N917 1.383 . S
C921 C920 1.439 . S
C921 C939 1.392 . S
N922 Co906 2.282 . S
N922 C925 1.332 . S
N922 C927 1.332 . S
C923 C924 1.386 . S
C923 C926 1.388 . S
C924 C923 1.386 . S
C924 C925 1.382 . S
C924 H950 0.950 . S
C925 N922 1.332 . S
C925 C924 1.382 . S
C925 H936 0.952 . S
C926 C923 1.388 . S
C926 C927 1.382 . S
C926 H951 0.950 . S
C927 N922 1.332 . S
C927 C926 1.382 . S
C927 H937 0.948 . S
N928 Co906 2.282 . S
N928 C932 1.332 . S
N928 C933 1.332 . S
C929 C930 1.388 . S
C929 C933 1.382 . S
C929 H952 0.950 . S
C930 C929 1.388 . S
C930 C931 1.386 . S
C931 C930 1.386 . S
C931 C932 1.382 . S
C931 H953 0.950 . S
C932 N928 1.332 . S
C932 C931 1.382 . S
C932 H934 0.952 . S
C933 N928 1.332 . S
C933 C929 1.382 . S
C933 H935 0.948 . S
H934 C932 0.952 . S
H935 C933 0.948 . S
H936 C925 0.952 . S
H937 C927 0.948 . S
C938 C904 1.395 . S
C938 C908 1.391 . S
C939 C901 1.389 . S
C939 C921 1.392 . S
C940 C911 1.392 . S
C940 C913 1.389 . S
C941 C916 1.395 . S
C941 C918 1.391 . S
H942 C902 0.951 . S
H943 C903 0.950 . S
H944 C909 0.949 . S
H945 C910 0.950 . S
H946 C914 0.951 . S
H947 C915 0.950 . S
H948 C919 0.949 . S
H949 C920 0.950 . S
H950 C924 0.950 . S
H951 C926 0.950 . S
H952 C929 0.950 . S
H953 C931 0.950 . S
C954 C955 1.443 . S
C954 N958 1.376 . S
C954 C992 1.389 . S
C955 C954 1.443 . S
C955 C956 1.340 . S
C955 H995 0.951 . S
C956 C955 1.340 . S
C956 C957 1.439 . S
C956 H996 0.950 . S
C957 C956 1.439 . S
C957 N958 1.374 . S
C957 C991 1.395 . S
N958 C954 1.376 . S
N958 C957 1.374 . S
N958 Co959 2.008 . S
Co959 N958 2.008 . S
Co959 N960 1.995 . S
Co959 N965 2.008 . S
Co959 N970 1.995 . S
Co959 N975 2.282 . S
Co959 N981 2.282 . S
N960 Co959 1.995 . S
N960 C961 1.376 . S
N960 C964 1.383 . S
C961 N960 1.376 . S
C961 C962 1.446 . S
C961 C991 1.391 . S
C962 C961 1.446 . S
C962 C963 1.339 . S
C962 H997 0.949 . S
C963 C962 1.339 . S
C963 C964 1.439 . S
C963 H998 0.950 . S
C964 N960 1.383 . S
C964 C963 1.439 . S
C964 C993 1.392 . S
N965 Co959 2.008 . S
N965 C966 1.376 . S
N965 C969 1.374 . S
C966 N965 1.376 . S
C966 C967 1.443 . S
C966 C993 1.389 . S
C967 C966 1.443 . S
C967 C968 1.340 . S
C967 H999 0.951 . S
C968 C967 1.340 . S
C968 C969 1.439 . S
C968 H1000 0.950 . S
C969 N965 1.374 . S
C969 C968 1.439 . S
C969 C994 1.395 . S
N970 Co959 1.995 . S
N970 C971 1.376 . S
N970 C974 1.383 . S
C971 N970 1.376 . S
C971 C972 1.446 . S
C971 C994 1.391 . S
C972 C971 1.446 . S
C972 C973 1.339 . S
C972 H1001 0.949 . S
C973 C972 1.339 . S
C973 C974 1.439 . S
C973 H1002 0.950 . S
C974 N970 1.383 . S
C974 C973 1.439 . S
C974 C992 1.392 . S
N975 Co959 2.282 . S
N975 C978 1.332 . S
N975 C980 1.332 . S
C976 C977 1.386 . S
C976 C979 1.388 . S
C977 C976 1.386 . S
C977 C978 1.382 . S
C977 H1003 0.950 . S
C978 N975 1.332 . S
C978 C977 1.382 . S
C978 H989 0.952 . S
C979 C976 1.388 . S
C979 C980 1.382 . S
C979 H1004 0.950 . S
C980 N975 1.332 . S
C980 C979 1.382 . S
C980 H990 0.948 . S
N981 Co959 2.282 . S
N981 C985 1.332 . S
N981 C986 1.332 . S
C982 C983 1.388 . S
C982 C986 1.382 . S
C982 H1005 0.950 . S
C983 C982 1.388 . S
C983 C984 1.386 . S
C984 C983 1.386 . S
C984 C985 1.382 . S
C984 H1006 0.950 . S
C985 N981 1.332 . S
C985 C984 1.382 . S
C985 H987 0.952 . S
C986 N981 1.332 . S
C986 C982 1.382 . S
C986 H988 0.948 . S
H987 C985 0.952 . S
H988 C986 0.948 . S
H989 C978 0.952 . S
H990 C980 0.948 . S
C991 C957 1.395 . S
C991 C961 1.391 . S
C992 C954 1.389 . S
C992 C974 1.392 . S
C993 C964 1.392 . S
C993 C966 1.389 . S
C994 C969 1.395 . S
C994 C971 1.391 . S
H995 C955 0.951 . S
H996 C956 0.950 . S
H997 C962 0.949 . S
H998 C963 0.950 . S
H999 C967 0.951 . S
H1000 C968 0.950 . S
H1001 C972 0.949 . S
H1002 C973 0.950 . S
H1003 C977 0.950 . S
H1004 C979 0.950 . S
H1005 C982 0.950 . S
H1006 C984 0.950 . S
C1007 C1008 1.443 . S
C1007 N1011 1.376 . S
C1007 C1045 1.389 . S
C1008 C1007 1.443 . S
C1008 C1009 1.340 . S
C1008 H1048 0.951 . S
C1009 C1008 1.340 . S
C1009 C1010 1.439 . S
C1009 H1049 0.950 . S
C1010 C1009 1.439 . S
C1010 N1011 1.374 . S
C1010 C1044 1.395 . S
N1011 C1007 1.376 . S
N1011 C1010 1.374 . S
N1011 Co1012 2.008 . S
Co1012 N1011 2.008 . S
Co1012 N1013 1.995 . S
Co1012 N1018 2.008 . S
Co1012 N1023 1.995 . S
Co1012 N1028 2.282 . S
Co1012 N1034 2.282 . S
N1013 Co1012 1.995 . S
N1013 C1014 1.376 . S
N1013 C1017 1.383 . S
C1014 N1013 1.376 . S
C1014 C1015 1.446 . S
C1014 C1044 1.391 . S
C1015 C1014 1.446 . S
C1015 C1016 1.339 . S
C1015 H1050 0.949 . S
C1016 C1015 1.339 . S
C1016 C1017 1.439 . S
C1016 H1051 0.950 . S
C1017 N1013 1.383 . S
C1017 C1016 1.439 . S
C1017 C1046 1.392 . S
N1018 Co1012 2.008 . S
N1018 C1019 1.376 . S
N1018 C1022 1.374 . S
C1019 N1018 1.376 . S
C1019 C1020 1.443 . S
C1019 C1046 1.389 . S
C1020 C1019 1.443 . S
C1020 C1021 1.340 . S
C1020 H1052 0.951 . S
C1021 C1020 1.340 . S
C1021 C1022 1.439 . S
C1021 H1053 0.950 . S
C1022 N1018 1.374 . S
C1022 C1021 1.439 . S
C1022 C1047 1.395 . S
N1023 Co1012 1.995 . S
N1023 C1024 1.376 . S
N1023 C1027 1.383 . S
C1024 N1023 1.376 . S
C1024 C1025 1.446 . S
C1024 C1047 1.391 . S
C1025 C1024 1.446 . S
C1025 C1026 1.339 . S
C1025 H1054 0.949 . S
C1026 C1025 1.339 . S
C1026 C1027 1.439 . S
C1026 H1055 0.950 . S
C1027 N1023 1.383 . S
C1027 C1026 1.439 . S
C1027 C1045 1.392 . S
N1028 Co1012 2.282 . S
N1028 C1031 1.332 . S
N1028 C1033 1.332 . S
C1029 C1030 1.386 . S
C1029 C1032 1.388 . S
C1030 C1029 1.386 . S
C1030 C1031 1.382 . S
C1030 H1056 0.950 . S
C1031 N1028 1.332 . S
C1031 C1030 1.382 . S
C1031 H1042 0.952 . S
C1032 C1029 1.388 . S
C1032 C1033 1.382 . S
C1032 H1057 0.950 . S
C1033 N1028 1.332 . S
C1033 C1032 1.382 . S
C1033 H1043 0.948 . S
N1034 Co1012 2.282 . S
N1034 C1038 1.332 . S
N1034 C1039 1.332 . S
C1035 C1036 1.388 . S
C1035 C1039 1.382 . S
C1035 H1058 0.950 . S
C1036 C1035 1.388 . S
C1036 C1037 1.386 . S
C1037 C1036 1.386 . S
C1037 C1038 1.382 . S
C1037 H1059 0.950 . S
C1038 N1034 1.332 . S
C1038 C1037 1.382 . S
C1038 H1040 0.952 . S
C1039 N1034 1.332 . S
C1039 C1035 1.382 . S
C1039 H1041 0.948 . S
H1040 C1038 0.952 . S
H1041 C1039 0.948 . S
H1042 C1031 0.952 . S
H1043 C1033 0.948 . S
C1044 C1010 1.395 . S
C1044 C1014 1.391 . S
C1045 C1007 1.389 . S
C1045 C1027 1.392 . S
C1046 C1017 1.392 . S
C1046 C1019 1.389 . S
C1047 C1022 1.395 . S
C1047 C1024 1.391 . S
H1048 C1008 0.951 . S
H1049 C1009 0.950 . S
H1050 C1015 0.949 . S
H1051 C1016 0.950 . S
H1052 C1020 0.951 . S
H1053 C1021 0.950 . S
H1054 C1025 0.949 . S
H1055 C1026 0.950 . S
H1056 C1030 0.950 . S
H1057 C1032 0.950 . S
H1058 C1035 0.950 . S
H1059 C1037 0.950 . S
C1060 C1061 1.443 . S
C1060 N1064 1.376 . S
C1060 C1098 1.389 . S
C1061 C1060 1.443 . S
C1061 C1062 1.340 . S
C1061 H1101 0.951 . S
C1062 C1061 1.340 . S
C1062 C1063 1.439 . S
C1062 H1102 0.950 . S
C1063 C1062 1.439 . S
C1063 N1064 1.374 . S
C1063 C1097 1.395 . S
N1064 C1060 1.376 . S
N1064 C1063 1.374 . S
N1064 Co1065 2.008 . S
Co1065 N1064 2.008 . S
Co1065 N1066 1.995 . S
Co1065 N1071 2.008 . S
Co1065 N1076 1.995 . S
Co1065 N1081 2.282 . S
Co1065 N1087 2.282 . S
N1066 Co1065 1.995 . S
N1066 C1067 1.376 . S
N1066 C1070 1.383 . S
C1067 N1066 1.376 . S
C1067 C1068 1.446 . S
C1067 C1097 1.391 . S
C1068 C1067 1.446 . S
C1068 C1069 1.339 . S
C1068 H1103 0.949 . S
C1069 C1068 1.339 . S
C1069 C1070 1.439 . S
C1069 H1104 0.950 . S
C1070 N1066 1.383 . S
C1070 C1069 1.439 . S
C1070 C1099 1.392 . S
N1071 Co1065 2.008 . S
N1071 C1072 1.376 . S
N1071 C1075 1.374 . S
C1072 N1071 1.376 . S
C1072 C1073 1.443 . S
C1072 C1099 1.389 . S
C1073 C1072 1.443 . S
C1073 C1074 1.340 . S
C1073 H1105 0.951 . S
C1074 C1073 1.340 . S
C1074 C1075 1.439 . S
C1074 H1106 0.950 . S
C1075 N1071 1.374 . S
C1075 C1074 1.439 . S
C1075 C1100 1.395 . S
N1076 Co1065 1.995 . S
N1076 C1077 1.376 . S
N1076 C1080 1.383 . S
C1077 N1076 1.376 . S
C1077 C1078 1.446 . S
C1077 C1100 1.391 . S
C1078 C1077 1.446 . S
C1078 C1079 1.339 . S
C1078 H1107 0.949 . S
C1079 C1078 1.339 . S
C1079 C1080 1.439 . S
C1079 H1108 0.950 . S
C1080 N1076 1.383 . S
C1080 C1079 1.439 . S
C1080 C1098 1.392 . S
N1081 Co1065 2.282 . S
N1081 C1084 1.332 . S
N1081 C1086 1.332 . S
C1082 C1083 1.386 . S
C1082 C1085 1.388 . S
C1083 C1082 1.386 . S
C1083 C1084 1.382 . S
C1083 H1109 0.950 . S
C1084 N1081 1.332 . S
C1084 C1083 1.382 . S
C1084 H1095 0.952 . S
C1085 C1082 1.388 . S
C1085 C1086 1.382 . S
C1085 H1110 0.950 . S
C1086 N1081 1.332 . S
C1086 C1085 1.382 . S
C1086 H1096 0.948 . S
N1087 Co1065 2.282 . S
N1087 C1091 1.332 . S
N1087 C1092 1.332 . S
C1088 C1089 1.388 . S
C1088 C1092 1.382 . S
C1088 H1111 0.950 . S
C1089 C1088 1.388 . S
C1089 C1090 1.386 . S
C1090 C1089 1.386 . S
C1090 C1091 1.382 . S
C1090 H1112 0.950 . S
C1091 N1087 1.332 . S
C1091 C1090 1.382 . S
C1091 H1093 0.952 . S
C1092 N1087 1.332 . S
C1092 C1088 1.382 . S
C1092 H1094 0.948 . S
H1093 C1091 0.952 . S
H1094 C1092 0.948 . S
H1095 C1084 0.952 . S
H1096 C1086 0.948 . S
C1097 C1063 1.395 . S
C1097 C1067 1.391 . S
C1098 C1060 1.389 . S
C1098 C1080 1.392 . S
C1099 C1070 1.392 . S
C1099 C1072 1.389 . S
C1100 C1075 1.395 . S
C1100 C1077 1.391 . S
H1101 C1061 0.951 . S
H1102 C1062 0.950 . S
H1103 C1068 0.949 . S
H1104 C1069 0.950 . S
H1105 C1073 0.951 . S
H1106 C1074 0.950 . S
H1107 C1078 0.949 . S
H1108 C1079 0.950 . S
H1109 C1083 0.950 . S
H1110 C1085 0.950 . S
H1111 C1088 0.950 . S
H1112 C1090 0.950 . S
C1113 C1114 1.443 . S
C1113 N1117 1.376 . S
C1113 C1151 1.389 . S
C1114 C1113 1.443 . S
C1114 C1115 1.340 . S
C1114 H1154 0.951 . S
C1115 C1114 1.340 . S
C1115 C1116 1.439 . S
C1115 H1155 0.950 . S
C1116 C1115 1.439 . S
C1116 N1117 1.374 . S
C1116 C1150 1.395 . S
N1117 C1113 1.376 . S
N1117 C1116 1.374 . S
N1117 Co1118 2.008 . S
Co1118 N1117 2.008 . S
Co1118 N1119 1.995 . S
Co1118 N1124 2.008 . S
Co1118 N1129 1.995 . S
Co1118 N1134 2.282 . S
Co1118 N1140 2.282 . S
N1119 Co1118 1.995 . S
N1119 C1120 1.376 . S
N1119 C1123 1.383 . S
C1120 N1119 1.376 . S
C1120 C1121 1.446 . S
C1120 C1150 1.391 . S
C1121 C1120 1.446 . S
C1121 C1122 1.339 . S
C1121 H1156 0.949 . S
C1122 C1121 1.339 . S
C1122 C1123 1.439 . S
C1122 H1157 0.950 . S
C1123 N1119 1.383 . S
C1123 C1122 1.439 . S
C1123 C1152 1.392 . S
N1124 Co1118 2.008 . S
N1124 C1125 1.376 . S
N1124 C1128 1.374 . S
C1125 N1124 1.376 . S
C1125 C1126 1.443 . S
C1125 C1152 1.389 . S
C1126 C1125 1.443 . S
C1126 C1127 1.340 . S
C1126 H1158 0.951 . S
C1127 C1126 1.340 . S
C1127 C1128 1.439 . S
C1127 H1159 0.950 . S
C1128 N1124 1.374 . S
C1128 C1127 1.439 . S
C1128 C1153 1.395 . S
N1129 Co1118 1.995 . S
N1129 C1130 1.376 . S
N1129 C1133 1.383 . S
C1130 N1129 1.376 . S
C1130 C1131 1.446 . S
C1130 C1153 1.391 . S
C1131 C1130 1.446 . S
C1131 C1132 1.339 . S
C1131 H1160 0.949 . S
C1132 C1131 1.339 . S
C1132 C1133 1.439 . S
C1132 H1161 0.950 . S
C1133 N1129 1.383 . S
C1133 C1132 1.439 . S
C1133 C1151 1.392 . S
N1134 Co1118 2.282 . S
N1134 C1137 1.332 . S
N1134 C1139 1.332 . S
C1135 C1136 1.386 . S
C1135 C1138 1.388 . S
C1136 C1135 1.386 . S
C1136 C1137 1.382 . S
C1136 H1162 0.950 . S
C1137 N1134 1.332 . S
C1137 C1136 1.382 . S
C1137 H1148 0.952 . S
C1138 C1135 1.388 . S
C1138 C1139 1.382 . S
C1138 H1163 0.950 . S
C1139 N1134 1.332 . S
C1139 C1138 1.382 . S
C1139 H1149 0.948 . S
N1140 Co1118 2.282 . S
N1140 C1144 1.332 . S
N1140 C1145 1.332 . S
C1141 C1142 1.388 . S
C1141 C1145 1.382 . S
C1141 H1164 0.950 . S
C1142 C1141 1.388 . S
C1142 C1143 1.386 . S
C1143 C1142 1.386 . S
C1143 C1144 1.382 . S
C1143 H1165 0.950 . S
C1144 N1140 1.332 . S
C1144 C1143 1.382 . S
C1144 H1146 0.952 . S
C1145 N1140 1.332 . S
C1145 C1141 1.382 . S
C1145 H1147 0.948 . S
H1146 C1144 0.952 . S
H1147 C1145 0.948 . S
H1148 C1137 0.952 . S
H1149 C1139 0.948 . S
C1150 C1116 1.395 . S
C1150 C1120 1.391 . S
C1151 C1113 1.389 . S
C1151 C1133 1.392 . S
C1152 C1123 1.392 . S
C1152 C1125 1.389 . S
C1153 C1128 1.395 . S
C1153 C1130 1.391 . S
H1154 C1114 0.951 . S
H1155 C1115 0.950 . S
H1156 C1121 0.949 . S
H1157 C1122 0.950 . S
H1158 C1126 0.951 . S
H1159 C1127 0.950 . S
H1160 C1131 0.949 . S
H1161 C1132 0.950 . S
H1162 C1136 0.950 . S
H1163 C1138 0.950 . S
H1164 C1141 0.950 . S
H1165 C1143 0.950 . S
C1166 C1167 1.443 . S
C1166 N1170 1.376 . S
C1166 C1204 1.389 . S
C1167 C1166 1.443 . S
C1167 C1168 1.340 . S
C1167 H1207 0.951 . S
C1168 C1167 1.340 . S
C1168 C1169 1.439 . S
C1168 H1208 0.950 . S
C1169 C1168 1.439 . S
C1169 N1170 1.374 . S
C1169 C1203 1.395 . S
N1170 C1166 1.376 . S
N1170 C1169 1.374 . S
N1170 Co1171 2.008 . S
Co1171 N1170 2.008 . S
Co1171 N1172 1.995 . S
Co1171 N1177 2.008 . S
Co1171 N1182 1.995 . S
Co1171 N1187 2.282 . S
Co1171 N1193 2.282 . S
N1172 Co1171 1.995 . S
N1172 C1173 1.376 . S
N1172 C1176 1.383 . S
C1173 N1172 1.376 . S
C1173 C1174 1.446 . S
C1173 C1203 1.391 . S
C1174 C1173 1.446 . S
C1174 C1175 1.339 . S
C1174 H1209 0.949 . S
C1175 C1174 1.339 . S
C1175 C1176 1.439 . S
C1175 H1210 0.950 . S
C1176 N1172 1.383 . S
C1176 C1175 1.439 . S
C1176 C1205 1.392 . S
N1177 Co1171 2.008 . S
N1177 C1178 1.376 . S
N1177 C1181 1.374 . S
C1178 N1177 1.376 . S
C1178 C1179 1.443 . S
C1178 C1205 1.389 . S
C1179 C1178 1.443 . S
C1179 C1180 1.340 . S
C1179 H1211 0.951 . S
C1180 C1179 1.340 . S
C1180 C1181 1.439 . S
C1180 H1212 0.950 . S
C1181 N1177 1.374 . S
C1181 C1180 1.439 . S
C1181 C1206 1.395 . S
N1182 Co1171 1.995 . S
N1182 C1183 1.376 . S
N1182 C1186 1.383 . S
C1183 N1182 1.376 . S
C1183 C1184 1.446 . S
C1183 C1206 1.391 . S
C1184 C1183 1.446 . S
C1184 C1185 1.339 . S
C1184 H1213 0.949 . S
C1185 C1184 1.339 . S
C1185 C1186 1.439 . S
C1185 H1214 0.950 . S
C1186 N1182 1.383 . S
C1186 C1185 1.439 . S
C1186 C1204 1.392 . S
N1187 Co1171 2.282 . S
N1187 C1190 1.332 . S
N1187 C1192 1.332 . S
C1188 C1189 1.386 . S
C1188 C1191 1.388 . S
C1189 C1188 1.386 . S
C1189 C1190 1.382 . S
C1189 H1215 0.950 . S
C1190 N1187 1.332 . S
C1190 C1189 1.382 . S
C1190 H1201 0.952 . S
C1191 C1188 1.388 . S
C1191 C1192 1.382 . S
C1191 H1216 0.950 . S
C1192 N1187 1.332 . S
C1192 C1191 1.382 . S
C1192 H1202 0.948 . S
N1193 Co1171 2.282 . S
N1193 C1197 1.332 . S
N1193 C1198 1.332 . S
C1194 C1195 1.388 . S
C1194 C1198 1.382 . S
C1194 H1217 0.950 . S
C1195 C1194 1.388 . S
C1195 C1196 1.386 . S
C1196 C1195 1.386 . S
C1196 C1197 1.382 . S
C1196 H1218 0.950 . S
C1197 N1193 1.332 . S
C1197 C1196 1.382 . S
C1197 H1199 0.952 . S
C1198 N1193 1.332 . S
C1198 C1194 1.382 . S
C1198 H1200 0.948 . S
H1199 C1197 0.952 . S
H1200 C1198 0.948 . S
H1201 C1190 0.952 . S
H1202 C1192 0.948 . S
C1203 C1169 1.395 . S
C1203 C1173 1.391 . S
C1204 C1166 1.389 . S
C1204 C1186 1.392 . S
C1205 C1176 1.392 . S
C1205 C1178 1.389 . S
C1206 C1181 1.395 . S
C1206 C1183 1.391 . S
H1207 C1167 0.951 . S
H1208 C1168 0.950 . S
H1209 C1174 0.949 . S
H1210 C1175 0.950 . S
H1211 C1179 0.951 . S
H1212 C1180 0.950 . S
H1213 C1184 0.949 . S
H1214 C1185 0.950 . S
H1215 C1189 0.950 . S
H1216 C1191 0.950 . S
H1217 C1194 0.950 . S
H1218 C1196 0.950 . S
C1219 C1220 1.443 . S
C1219 N1223 1.376 . S
C1219 C1257 1.389 . S
C1220 C1219 1.443 . S
C1220 C1221 1.340 . S
C1220 H1260 0.951 . S
C1221 C1220 1.340 . S
C1221 C1222 1.439 . S
C1221 H1261 0.950 . S
C1222 C1221 1.439 . S
C1222 N1223 1.374 . S
C1222 C1256 1.395 . S
N1223 C1219 1.376 . S
N1223 C1222 1.374 . S
N1223 Co1224 2.008 . S
Co1224 N1223 2.008 . S
Co1224 N1225 1.995 . S
Co1224 N1230 2.008 . S
Co1224 N1235 1.995 . S
Co1224 N1240 2.282 . S
Co1224 N1246 2.282 . S
N1225 Co1224 1.995 . S
N1225 C1226 1.376 . S
N1225 C1229 1.383 . S
C1226 N1225 1.376 . S
C1226 C1227 1.446 . S
C1226 C1256 1.391 . S
C1227 C1226 1.446 . S
C1227 C1228 1.339 . S
C1227 H1262 0.949 . S
C1228 C1227 1.339 . S
C1228 C1229 1.439 . S
C1228 H1263 0.950 . S
C1229 N1225 1.383 . S
C1229 C1228 1.439 . S
C1229 C1258 1.392 . S
N1230 Co1224 2.008 . S
N1230 C1231 1.376 . S
N1230 C1234 1.374 . S
C1231 N1230 1.376 . S
C1231 C1232 1.443 . S
C1231 C1258 1.389 . S
C1232 C1231 1.443 . S
C1232 C1233 1.340 . S
C1232 H1264 0.951 . S
C1233 C1232 1.340 . S
C1233 C1234 1.439 . S
C1233 H1265 0.950 . S
C1234 N1230 1.374 . S
C1234 C1233 1.439 . S
C1234 C1259 1.395 . S
N1235 Co1224 1.995 . S
N1235 C1236 1.376 . S
N1235 C1239 1.383 . S
C1236 N1235 1.376 . S
C1236 C1237 1.446 . S
C1236 C1259 1.391 . S
C1237 C1236 1.446 . S
C1237 C1238 1.339 . S
C1237 H1266 0.949 . S
C1238 C1237 1.339 . S
C1238 C1239 1.439 . S
C1238 H1267 0.950 . S
C1239 N1235 1.383 . S
C1239 C1238 1.439 . S
C1239 C1257 1.392 . S
N1240 Co1224 2.282 . S
N1240 C1243 1.332 . S
N1240 C1245 1.332 . S
C1241 C1242 1.386 . S
C1241 C1244 1.388 . S
C1242 C1241 1.386 . S
C1242 C1243 1.382 . S
C1242 H1268 0.950 . S
C1243 N1240 1.332 . S
C1243 C1242 1.382 . S
C1243 H1254 0.952 . S
C1244 C1241 1.388 . S
C1244 C1245 1.382 . S
C1244 H1269 0.950 . S
C1245 N1240 1.332 . S
C1245 C1244 1.382 . S
C1245 H1255 0.948 . S
N1246 Co1224 2.282 . S
N1246 C1250 1.332 . S
N1246 C1251 1.332 . S
C1247 C1248 1.388 . S
C1247 C1251 1.382 . S
C1247 H1270 0.950 . S
C1248 C1247 1.388 . S
C1248 C1249 1.386 . S
C1249 C1248 1.386 . S
C1249 C1250 1.382 . S
C1249 H1271 0.950 . S
C1250 N1246 1.332 . S
C1250 C1249 1.382 . S
C1250 H1252 0.952 . S
C1251 N1246 1.332 . S
C1251 C1247 1.382 . S
C1251 H1253 0.948 . S
H1252 C1250 0.952 . S
H1253 C1251 0.948 . S
H1254 C1243 0.952 . S
H1255 C1245 0.948 . S
C1256 C1222 1.395 . S
C1256 C1226 1.391 . S
C1257 C1219 1.389 . S
C1257 C1239 1.392 . S
C1258 C1229 1.392 . S
C1258 C1231 1.389 . S
C1259 C1234 1.395 . S
C1259 C1236 1.391 . S
H1260 C1220 0.951 . S
H1261 C1221 0.950 . S
H1262 C1227 0.949 . S
H1263 C1228 0.950 . S
H1264 C1232 0.951 . S
H1265 C1233 0.950 . S
H1266 C1237 0.949 . S
H1267 C1238 0.950 . S
H1268 C1242 0.950 . S
H1269 C1244 0.950 . S
H1270 C1247 0.950 . S
H1271 C1249 0.950 . S
C1272 C1273 1.443 . S
C1272 N1276 1.376 . S
C1272 C1310 1.389 . S
C1273 C1272 1.443 . S
C1273 C1274 1.340 . S
C1273 H1313 0.951 . S
C1274 C1273 1.340 . S
C1274 C1275 1.439 . S
C1274 H1314 0.950 . S
C1275 C1274 1.439 . S
C1275 N1276 1.374 . S
C1275 C1309 1.395 1_554 S
N1276 C1272 1.376 . S
N1276 C1275 1.374 . S
N1276 Co1277 2.008 . S
Co1277 N1276 2.008 . S
Co1277 N1278 1.995 1_554 S
Co1277 N1283 2.008 1_554 S
Co1277 N1288 1.995 . S
Co1277 N1293 2.282 . S
Co1277 N1299 2.282 . S
N1278 Co1277 1.995 1_556 S
N1278 C1279 1.376 . S
N1278 C1282 1.383 . S
C1279 N1278 1.376 . S
C1279 C1280 1.446 . S
C1279 C1309 1.391 . S
C1280 C1279 1.446 . S
C1280 C1281 1.339 . S
C1280 H1315 0.949 . S
C1281 C1280 1.339 . S
C1281 C1282 1.439 . S
C1281 H1316 0.950 . S
C1282 N1278 1.383 . S
C1282 C1281 1.439 . S
C1282 C1311 1.392 . S
N1283 Co1277 2.008 1_556 S
N1283 C1284 1.376 . S
N1283 C1287 1.374 1_556 S
C1284 N1283 1.376 . S
C1284 C1285 1.443 . S
C1284 C1311 1.389 . S
C1285 C1284 1.443 . S
C1285 C1286 1.340 . S
C1285 H1317 0.951 . S
C1286 C1285 1.340 . S
C1286 C1287 1.439 1_556 S
C1286 H1318 0.950 . S
C1287 N1283 1.374 1_554 S
C1287 C1286 1.439 1_554 S
C1287 C1312 1.395 . S
N1288 Co1277 1.995 . S
N1288 C1289 1.376 . S
N1288 C1292 1.383 . S
C1289 N1288 1.376 . S
C1289 C1290 1.446 . S
C1289 C1312 1.391 . S
C1290 C1289 1.446 . S
C1290 C1291 1.339 . S
C1290 H1319 0.949 . S
C1291 C1290 1.339 . S
C1291 C1292 1.439 . S
C1291 H1320 0.950 . S
C1292 N1288 1.383 . S
C1292 C1291 1.439 . S
C1292 C1310 1.392 . S
N1293 Co1277 2.282 . S
N1293 C1296 1.332 . S
N1293 C1298 1.332 1_554 S
C1294 C1295 1.386 . S
C1294 C1297 1.388 1_554 S
C1295 C1294 1.386 . S
C1295 C1296 1.382 . S
C1295 H1321 0.950 . S
C1296 N1293 1.332 . S
C1296 C1295 1.382 . S
C1296 H1307 0.952 . S
C1297 C1294 1.388 1_556 S
C1297 C1298 1.382 . S
C1297 H1322 0.950 . S
C1298 N1293 1.332 1_556 S
C1298 C1297 1.382 . S
C1298 H1308 0.948 . S
N1299 Co1277 2.282 . S
N1299 C1303 1.332 1_554 S
N1299 C1304 1.332 . S
C1300 C1301 1.388 . S
C1300 C1304 1.382 . S
C1300 H1323 0.950 . S
C1301 C1300 1.388 . S
C1301 C1302 1.386 1_554 S
C1302 C1301 1.386 1_556 S
C1302 C1303 1.382 . S
C1302 H1324 0.950 . S
C1303 N1299 1.332 1_556 S
C1303 C1302 1.382 . S
C1303 H1305 0.952 . S
C1304 N1299 1.332 . S
C1304 C1300 1.382 . S
C1304 H1306 0.948 . S
H1305 C1303 0.952 . S
H1306 C1304 0.948 . S
H1307 C1296 0.952 . S
H1308 C1298 0.948 . S
C1309 C1275 1.395 1_556 S
C1309 C1279 1.391 . S
C1310 C1272 1.389 . S
C1310 C1292 1.392 . S
C1311 C1282 1.392 . S
C1311 C1284 1.389 . S
C1312 C1287 1.395 . S
C1312 C1289 1.391 . S
H1313 C1273 0.951 . S
H1314 C1274 0.950 . S
H1315 C1280 0.949 . S
H1316 C1281 0.950 . S
H1317 C1285 0.951 . S
H1318 C1286 0.950 . S
H1319 C1290 0.949 . S
H1320 C1291 0.950 . S
H1321 C1295 0.950 . S
H1322 C1297 0.950 . S
H1323 C1300 0.950 . S
H1324 C1302 0.950 . S
C1325 C1326 1.443 . S
C1325 N1329 1.376 . S
C1325 C1363 1.389 . S
C1326 C1325 1.443 . S
C1326 C1327 1.340 . S
C1326 H1366 0.951 . S
C1327 C1326 1.340 . S
C1327 C1328 1.439 . S
C1327 H1367 0.950 . S
C1328 C1327 1.439 . S
C1328 N1329 1.374 . S
C1328 C1362 1.395 1_554 S
N1329 C1325 1.376 . S
N1329 C1328 1.374 . S
N1329 Co1330 2.008 . S
Co1330 N1329 2.008 . S
Co1330 N1331 1.995 1_554 S
Co1330 N1336 2.008 1_554 S
Co1330 N1341 1.995 . S
Co1330 N1346 2.282 . S
Co1330 N1352 2.282 . S
N1331 Co1330 1.995 1_556 S
N1331 C1332 1.376 . S
N1331 C1335 1.383 . S
C1332 N1331 1.376 . S
C1332 C1333 1.446 . S
C1332 C1362 1.391 . S
C1333 C1332 1.446 . S
C1333 C1334 1.339 . S
C1333 H1368 0.949 . S
C1334 C1333 1.339 . S
C1334 C1335 1.439 . S
C1334 H1369 0.950 . S
C1335 N1331 1.383 . S
C1335 C1334 1.439 . S
C1335 C1364 1.392 . S
N1336 Co1330 2.008 1_556 S
N1336 C1337 1.376 . S
N1336 C1340 1.374 1_556 S
C1337 N1336 1.376 . S
C1337 C1338 1.443 . S
C1337 C1364 1.389 . S
C1338 C1337 1.443 . S
C1338 C1339 1.340 . S
C1338 H1370 0.951 . S
C1339 C1338 1.340 . S
C1339 C1340 1.439 1_556 S
C1339 H1371 0.950 . S
C1340 N1336 1.374 1_554 S
C1340 C1339 1.439 1_554 S
C1340 C1365 1.395 . S
N1341 Co1330 1.995 . S
N1341 C1342 1.376 . S
N1341 C1345 1.383 . S
C1342 N1341 1.376 . S
C1342 C1343 1.446 . S
C1342 C1365 1.391 . S
C1343 C1342 1.446 . S
C1343 C1344 1.339 . S
C1343 H1372 0.949 . S
C1344 C1343 1.339 . S
C1344 C1345 1.439 . S
C1344 H1373 0.950 . S
C1345 N1341 1.383 . S
C1345 C1344 1.439 . S
C1345 C1363 1.392 . S
N1346 Co1330 2.282 . S
N1346 C1349 1.332 . S
N1346 C1351 1.332 1_554 S
C1347 C1348 1.386 . S
C1347 C1350 1.388 1_554 S
C1348 C1347 1.386 . S
C1348 C1349 1.382 . S
C1348 H1374 0.950 . S
C1349 N1346 1.332 . S
C1349 C1348 1.382 . S
C1349 H1360 0.952 . S
C1350 C1347 1.388 1_556 S
C1350 C1351 1.382 . S
C1350 H1375 0.950 . S
C1351 N1346 1.332 1_556 S
C1351 C1350 1.382 . S
C1351 H1361 0.948 . S
N1352 Co1330 2.282 . S
N1352 C1356 1.332 1_554 S
N1352 C1357 1.332 . S
C1353 C1354 1.388 . S
C1353 C1357 1.382 . S
C1353 H1376 0.950 . S
C1354 C1353 1.388 . S
C1354 C1355 1.386 1_554 S
C1355 C1354 1.386 1_556 S
C1355 C1356 1.382 . S
C1355 H1377 0.950 . S
C1356 N1352 1.332 1_556 S
C1356 C1355 1.382 . S
C1356 H1358 0.952 . S
C1357 N1352 1.332 . S
C1357 C1353 1.382 . S
C1357 H1359 0.948 . S
H1358 C1356 0.952 . S
H1359 C1357 0.948 . S
H1360 C1349 0.952 . S
H1361 C1351 0.948 . S
C1362 C1328 1.395 1_556 S
C1362 C1332 1.391 . S
C1363 C1325 1.389 . S
C1363 C1345 1.392 . S
C1364 C1335 1.392 . S
C1364 C1337 1.389 . S
C1365 C1340 1.395 . S
C1365 C1342 1.391 . S
H1366 C1326 0.951 . S
H1367 C1327 0.950 . S
H1368 C1333 0.949 . S
H1369 C1334 0.950 . S
H1370 C1338 0.951 . S
H1371 C1339 0.950 . S
H1372 C1343 0.949 . S
H1373 C1344 0.950 . S
H1374 C1348 0.950 . S
H1375 C1350 0.950 . S
H1376 C1353 0.950 . S
H1377 C1355 0.950 . S
C1378 C1379 1.443 . S
C1378 N1382 1.376 . S
C1378 C1416 1.389 . S
C1379 C1378 1.443 . S
C1379 C1380 1.340 . S
C1379 H1419 0.951 . S
C1380 C1379 1.340 . S
C1380 C1381 1.439 . S
C1380 H1420 0.950 . S
C1381 C1380 1.439 . S
C1381 N1382 1.374 . S
C1381 C1415 1.395 . S
N1382 C1378 1.376 . S
N1382 C1381 1.374 . S
N1382 Co1383 2.008 . S
Co1383 N1382 2.008 . S
Co1383 N1384 1.995 . S
Co1383 N1389 2.008 . S
Co1383 N1394 1.995 . S
Co1383 N1399 2.282 . S
Co1383 N1405 2.282 . S
N1384 Co1383 1.995 . S
N1384 C1385 1.376 . S
N1384 C1388 1.383 . S
C1385 N1384 1.376 . S
C1385 C1386 1.446 . S
C1385 C1415 1.391 . S
C1386 C1385 1.446 . S
C1386 C1387 1.339 . S
C1386 H1421 0.949 . S
C1387 C1386 1.339 . S
C1387 C1388 1.439 . S
C1387 H1422 0.950 . S
C1388 N1384 1.383 . S
C1388 C1387 1.439 . S
C1388 C1417 1.392 . S
N1389 Co1383 2.008 . S
N1389 C1390 1.376 . S
N1389 C1393 1.374 . S
C1390 N1389 1.376 . S
C1390 C1391 1.443 . S
C1390 C1417 1.389 . S
C1391 C1390 1.443 . S
C1391 C1392 1.340 . S
C1391 H1423 0.951 . S
C1392 C1391 1.340 . S
C1392 C1393 1.439 . S
C1392 H1424 0.950 . S
C1393 N1389 1.374 . S
C1393 C1392 1.439 . S
C1393 C1418 1.395 . S
N1394 Co1383 1.995 . S
N1394 C1395 1.376 . S
N1394 C1398 1.383 . S
C1395 N1394 1.376 . S
C1395 C1396 1.446 . S
C1395 C1418 1.391 . S
C1396 C1395 1.446 . S
C1396 C1397 1.339 . S
C1396 H1425 0.949 . S
C1397 C1396 1.339 . S
C1397 C1398 1.439 . S
C1397 H1426 0.950 . S
C1398 N1394 1.383 . S
C1398 C1397 1.439 . S
C1398 C1416 1.392 . S
N1399 Co1383 2.282 . S
N1399 C1402 1.332 . S
N1399 C1404 1.332 . S
C1400 C1401 1.386 . S
C1400 C1403 1.388 . S
C1401 C1400 1.386 . S
C1401 C1402 1.382 . S
C1401 H1427 0.950 . S
C1402 N1399 1.332 . S
C1402 C1401 1.382 . S
C1402 H1413 0.952 . S
C1403 C1400 1.388 . S
C1403 C1404 1.382 . S
C1403 H1428 0.950 . S
C1404 N1399 1.332 . S
C1404 C1403 1.382 . S
C1404 H1414 0.948 . S
N1405 Co1383 2.282 . S
N1405 C1409 1.332 . S
N1405 C1410 1.332 . S
C1406 C1407 1.388 . S
C1406 C1410 1.382 . S
C1406 H1429 0.950 . S
C1407 C1406 1.388 . S
C1407 C1408 1.386 . S
C1408 C1407 1.386 . S
C1408 C1409 1.382 . S
C1408 H1430 0.950 . S
C1409 N1405 1.332 . S
C1409 C1408 1.382 . S
C1409 H1411 0.952 . S
C1410 N1405 1.332 . S
C1410 C1406 1.382 . S
C1410 H1412 0.948 . S
H1411 C1409 0.952 . S
H1412 C1410 0.948 . S
H1413 C1402 0.952 . S
H1414 C1404 0.948 . S
C1415 C1381 1.395 . S
C1415 C1385 1.391 . S
C1416 C1378 1.389 . S
C1416 C1398 1.392 . S
C1417 C1388 1.392 . S
C1417 C1390 1.389 . S
C1418 C1393 1.395 . S
C1418 C1395 1.391 . S
H1419 C1379 0.951 . S
H1420 C1380 0.950 . S
H1421 C1386 0.949 . S
H1422 C1387 0.950 . S
H1423 C1391 0.951 . S
H1424 C1392 0.950 . S
H1425 C1396 0.949 . S
H1426 C1397 0.950 . S
H1427 C1401 0.950 . S
H1428 C1403 0.950 . S
H1429 C1406 0.950 . S
H1430 C1408 0.950 . S
C1431 C1432 1.443 . S
C1431 N1435 1.376 . S
C1431 C1469 1.389 . S
C1432 C1431 1.443 . S
C1432 C1433 1.340 . S
C1432 H1472 0.951 . S
C1433 C1432 1.340 . S
C1433 C1434 1.439 . S
C1433 H1473 0.950 . S
C1434 C1433 1.439 . S
C1434 N1435 1.374 . S
C1434 C1468 1.395 . S
N1435 C1431 1.376 . S
N1435 C1434 1.374 . S
N1435 Co1436 2.008 . S
Co1436 N1435 2.008 . S
Co1436 N1437 1.995 . S
Co1436 N1442 2.008 . S
Co1436 N1447 1.995 . S
Co1436 N1452 2.282 . S
Co1436 N1458 2.282 . S
N1437 Co1436 1.995 . S
N1437 C1438 1.376 . S
N1437 C1441 1.383 . S
C1438 N1437 1.376 . S
C1438 C1439 1.446 . S
C1438 C1468 1.391 . S
C1439 C1438 1.446 . S
C1439 C1440 1.339 . S
C1439 H1474 0.949 . S
C1440 C1439 1.339 . S
C1440 C1441 1.439 . S
C1440 H1475 0.950 . S
C1441 N1437 1.383 . S
C1441 C1440 1.439 . S
C1441 C1470 1.392 . S
N1442 Co1436 2.008 . S
N1442 C1443 1.376 . S
N1442 C1446 1.374 . S
C1443 N1442 1.376 . S
C1443 C1444 1.443 . S
C1443 C1470 1.389 . S
C1444 C1443 1.443 . S
C1444 C1445 1.340 . S
C1444 H1476 0.951 . S
C1445 C1444 1.340 . S
C1445 C1446 1.439 . S
C1445 H1477 0.950 . S
C1446 N1442 1.374 . S
C1446 C1445 1.439 . S
C1446 C1471 1.395 . S
N1447 Co1436 1.995 . S
N1447 C1448 1.376 . S
N1447 C1451 1.383 . S
C1448 N1447 1.376 . S
C1448 C1449 1.446 . S
C1448 C1471 1.391 . S
C1449 C1448 1.446 . S
C1449 C1450 1.339 . S
C1449 H1478 0.949 . S
C1450 C1449 1.339 . S
C1450 C1451 1.439 . S
C1450 H1479 0.950 . S
C1451 N1447 1.383 . S
C1451 C1450 1.439 . S
C1451 C1469 1.392 . S
N1452 Co1436 2.282 . S
N1452 C1455 1.332 . S
N1452 C1457 1.332 . S
C1453 C1454 1.386 . S
C1453 C1456 1.388 . S
C1454 C1453 1.386 . S
C1454 C1455 1.382 . S
C1454 H1480 0.950 . S
C1455 N1452 1.332 . S
C1455 C1454 1.382 . S
C1455 H1466 0.952 . S
C1456 C1453 1.388 . S
C1456 C1457 1.382 . S
C1456 H1481 0.950 . S
C1457 N1452 1.332 . S
C1457 C1456 1.382 . S
C1457 H1467 0.948 . S
N1458 Co1436 2.282 . S
N1458 C1462 1.332 . S
N1458 C1463 1.332 . S
C1459 C1460 1.388 . S
C1459 C1463 1.382 . S
C1459 H1482 0.950 . S
C1460 C1459 1.388 . S
C1460 C1461 1.386 . S
C1461 C1460 1.386 . S
C1461 C1462 1.382 . S
C1461 H1483 0.950 . S
C1462 N1458 1.332 . S
C1462 C1461 1.382 . S
C1462 H1464 0.952 . S
C1463 N1458 1.332 . S
C1463 C1459 1.382 . S
C1463 H1465 0.948 . S
H1464 C1462 0.952 . S
H1465 C1463 0.948 . S
H1466 C1455 0.952 . S
H1467 C1457 0.948 . S
C1468 C1434 1.395 . S
C1468 C1438 1.391 . S
C1469 C1431 1.389 . S
C1469 C1451 1.392 . S
C1470 C1441 1.392 . S
C1470 C1443 1.389 . S
C1471 C1446 1.395 . S
C1471 C1448 1.391 . S
H1472 C1432 0.951 . S
H1473 C1433 0.950 . S
H1474 C1439 0.949 . S
H1475 C1440 0.950 . S
H1476 C1444 0.951 . S
H1477 C1445 0.950 . S
H1478 C1449 0.949 . S
H1479 C1450 0.950 . S
H1480 C1454 0.950 . S
H1481 C1456 0.950 . S
H1482 C1459 0.950 . S
H1483 C1461 0.950 . S
C1484 C1485 1.443 . S
C1484 N1488 1.376 . S
C1484 C1522 1.389 . S
C1485 C1484 1.443 . S
C1485 C1486 1.340 . S
C1485 H1525 0.951 . S
C1486 C1485 1.340 . S
C1486 C1487 1.439 . S
C1486 H1526 0.950 . S
C1487 C1486 1.439 . S
C1487 N1488 1.374 . S
C1487 C1521 1.395 . S
N1488 C1484 1.376 . S
N1488 C1487 1.374 . S
N1488 Co1489 2.008 . S
Co1489 N1488 2.008 . S
Co1489 N1490 1.995 1_556 S
Co1489 N1495 2.008 1_556 S
Co1489 N1500 1.995 . S
Co1489 N1505 2.282 . S
Co1489 N1511 2.280 1_556 S
N1490 Co1489 1.995 1_554 S
N1490 C1491 1.376 1_554 S
N1490 C1494 1.383 . S
C1491 N1490 1.376 1_556 S
C1491 C1492 1.446 1_556 S
C1491 C1521 1.391 . S
C1492 C1491 1.446 1_554 S
C1492 C1493 1.339 . S
C1492 H1527 0.949 . S
C1493 C1492 1.339 . S
C1493 C1494 1.439 . S
C1493 H1528 0.950 . S
C1494 N1490 1.383 . S
C1494 C1493 1.439 . S
C1494 C1523 1.392 . S
N1495 Co1489 2.008 1_554 S
N1495 C1496 1.376 . S
N1495 C1499 1.374 . S
C1496 N1495 1.376 . S
C1496 C1497 1.443 . S
C1496 C1523 1.389 . S
C1497 C1496 1.443 . S
C1497 C1498 1.340 . S
C1497 H1529 0.951 . S
C1498 C1497 1.340 . S
C1498 C1499 1.439 . S
C1498 H1530 0.950 . S
C1499 N1495 1.374 . S
C1499 C1498 1.439 . S
C1499 C1524 1.395 . S
N1500 Co1489 1.995 . S
N1500 C1501 1.376 . S
N1500 C1504 1.383 . S
C1501 N1500 1.376 . S
C1501 C1502 1.446 . S
C1501 C1524 1.391 1_556 S
C1502 C1501 1.446 . S
C1502 C1503 1.339 . S
C1502 H1531 0.949 . S
C1503 C1502 1.339 . S
C1503 C1504 1.439 . S
C1503 H1532 0.950 . S
C1504 N1500 1.383 . S
C1504 C1503 1.439 . S
C1504 C1522 1.392 . S
N1505 Co1489 2.282 . S
N1505 C1508 1.332 . S
N1505 C1510 1.332 . S
C1506 C1507 1.385 1_556 S
C1506 C1509 1.388 . S
C1507 C1506 1.385 1_554 S
C1507 C1508 1.381 1_554 S
C1507 H1533 0.951 . S
C1508 N1505 1.332 . S
C1508 C1507 1.381 1_556 S
C1508 H1519 0.952 . S
C1509 C1506 1.388 . S
C1509 C1510 1.382 . S
C1509 H1534 0.950 . S
C1510 N1505 1.332 . S
C1510 C1509 1.382 . S
C1510 H1520 0.948 . S
N1511 Co1489 2.280 1_554 S
N1511 C1515 1.328 1_554 S
N1511 C1516 1.334 . S
C1512 C1513 1.391 . S
C1512 C1516 1.381 1_556 S
C1512 H1535 0.949 1_556 S
C1513 C1512 1.391 . S
C1513 C1514 1.386 . S
C1514 C1513 1.386 . S
C1514 C1515 1.382 . S
C1514 H1536 0.950 . S
C1515 N1511 1.328 1_556 S
C1515 C1514 1.382 . S
C1515 H1517 0.952 . S
C1516 N1511 1.334 . S
C1516 C1512 1.381 1_554 S
C1516 H1518 0.948 . S
H1517 C1515 0.952 . S
H1518 C1516 0.948 . S
H1519 C1508 0.952 . S
H1520 C1510 0.948 . S
C1521 C1487 1.395 . S
C1521 C1491 1.391 . S
C1522 C1484 1.389 . S
C1522 C1504 1.392 . S
C1523 C1494 1.392 . S
C1523 C1496 1.389 . S
C1524 C1499 1.395 . S
C1524 C1501 1.391 1_554 S
H1525 C1485 0.951 . S
H1526 C1486 0.950 . S
H1527 C1492 0.949 . S
H1528 C1493 0.950 . S
H1529 C1497 0.951 . S
H1530 C1498 0.950 . S
H1531 C1502 0.949 . S
H1532 C1503 0.950 . S
H1533 C1507 0.951 . S
H1534 C1509 0.950 . S
H1535 C1512 0.949 1_554 S
H1536 C1514 0.950 . S
C1537 C1538 1.443 . S
C1537 N1541 1.376 . S
C1537 C1575 1.389 . S
C1538 C1537 1.443 . S
C1538 C1539 1.340 . S
C1538 H1578 0.951 . S
C1539 C1538 1.340 . S
C1539 C1540 1.439 . S
C1539 H1579 0.950 . S
C1540 C1539 1.439 . S
C1540 N1541 1.374 . S
C1540 C1574 1.395 . S
N1541 C1537 1.376 . S
N1541 C1540 1.374 . S
N1541 Co1542 2.008 . S
Co1542 N1541 2.008 . S
Co1542 N1543 1.995 1_556 S
Co1542 N1548 2.008 1_556 S
Co1542 N1553 1.995 . S
Co1542 N1558 2.282 . S
Co1542 N1564 2.280 1_556 S
N1543 Co1542 1.995 1_554 S
N1543 C1544 1.376 1_554 S
N1543 C1547 1.383 . S
C1544 N1543 1.376 1_556 S
C1544 C1545 1.446 1_556 S
C1544 C1574 1.391 . S
C1545 C1544 1.446 1_554 S
C1545 C1546 1.339 . S
C1545 H1580 0.949 . S
C1546 C1545 1.339 . S
C1546 C1547 1.439 . S
C1546 H1581 0.950 . S
C1547 N1543 1.383 . S
C1547 C1546 1.439 . S
C1547 C1576 1.392 . S
N1548 Co1542 2.008 1_554 S
N1548 C1549 1.376 . S
N1548 C1552 1.374 . S
C1549 N1548 1.376 . S
C1549 C1550 1.443 . S
C1549 C1576 1.389 . S
C1550 C1549 1.443 . S
C1550 C1551 1.340 . S
C1550 H1582 0.951 . S
C1551 C1550 1.340 . S
C1551 C1552 1.439 . S
C1551 H1583 0.950 . S
C1552 N1548 1.374 . S
C1552 C1551 1.439 . S
C1552 C1577 1.395 . S
N1553 Co1542 1.995 . S
N1553 C1554 1.376 . S
N1553 C1557 1.383 . S
C1554 N1553 1.376 . S
C1554 C1555 1.446 . S
C1554 C1577 1.391 1_556 S
C1555 C1554 1.446 . S
C1555 C1556 1.339 . S
C1555 H1584 0.949 . S
C1556 C1555 1.339 . S
C1556 C1557 1.439 . S
C1556 H1585 0.950 . S
C1557 N1553 1.383 . S
C1557 C1556 1.439 . S
C1557 C1575 1.392 . S
N1558 Co1542 2.282 . S
N1558 C1561 1.332 . S
N1558 C1563 1.332 . S
C1559 C1560 1.385 1_556 S
C1559 C1562 1.388 . S
C1560 C1559 1.385 1_554 S
C1560 C1561 1.381 1_554 S
C1560 H1586 0.951 . S
C1561 N1558 1.332 . S
C1561 C1560 1.381 1_556 S
C1561 H1572 0.952 . S
C1562 C1559 1.388 . S
C1562 C1563 1.382 . S
C1562 H1587 0.950 . S
C1563 N1558 1.332 . S
C1563 C1562 1.382 . S
C1563 H1573 0.948 . S
N1564 Co1542 2.280 1_554 S
N1564 C1568 1.328 1_554 S
N1564 C1569 1.334 . S
C1565 C1566 1.392 . S
C1565 C1569 1.381 1_556 S
C1565 H1588 0.949 1_556 S
C1566 C1565 1.392 . S
C1566 C1567 1.386 . S
C1567 C1566 1.386 . S
C1567 C1568 1.382 . S
C1567 H1589 0.950 . S
C1568 N1564 1.328 1_556 S
C1568 C1567 1.382 . S
C1568 H1570 0.952 . S
C1569 N1564 1.334 . S
C1569 C1565 1.381 1_554 S
C1569 H1571 0.948 . S
H1570 C1568 0.952 . S
H1571 C1569 0.948 . S
H1572 C1561 0.952 . S
H1573 C1563 0.948 . S
C1574 C1540 1.395 . S
C1574 C1544 1.391 . S
C1575 C1537 1.389 . S
C1575 C1557 1.392 . S
C1576 C1547 1.392 . S
C1576 C1549 1.389 . S
C1577 C1552 1.395 . S
C1577 C1554 1.391 1_554 S
H1578 C1538 0.951 . S
H1579 C1539 0.950 . S
H1580 C1545 0.949 . S
H1581 C1546 0.950 . S
H1582 C1550 0.951 . S
H1583 C1551 0.950 . S
H1584 C1555 0.949 . S
H1585 C1556 0.950 . S
H1586 C1560 0.951 . S
H1587 C1562 0.950 . S
H1588 C1565 0.949 1_554 S
H1589 C1567 0.950 . S
C1590 C1591 1.443 . S
C1590 N1594 1.376 . S
C1590 C1628 1.389 . S
C1591 C1590 1.443 . S
C1591 C1592 1.340 . S
C1591 H1631 0.951 . S
C1592 C1591 1.340 . S
C1592 C1593 1.439 . S
C1592 H1632 0.950 . S
C1593 C1592 1.439 . S
C1593 N1594 1.374 . S
C1593 C1627 1.395 . S
N1594 C1590 1.376 . S
N1594 C1593 1.374 . S
N1594 Co1595 2.008 . S
Co1595 N1594 2.008 . S
Co1595 N1596 1.995 . S
Co1595 N1601 2.008 . S
Co1595 N1606 1.995 . S
Co1595 N1611 2.282 . S
Co1595 N1617 2.282 . S
N1596 Co1595 1.995 . S
N1596 C1597 1.376 . S
N1596 C1600 1.383 . S
C1597 N1596 1.376 . S
C1597 C1598 1.446 . S
C1597 C1627 1.391 . S
C1598 C1597 1.446 . S
C1598 C1599 1.339 . S
C1598 H1633 0.949 . S
C1599 C1598 1.339 . S
C1599 C1600 1.439 . S
C1599 H1634 0.950 . S
C1600 N1596 1.383 . S
C1600 C1599 1.439 . S
C1600 C1629 1.392 . S
N1601 Co1595 2.008 . S
N1601 C1602 1.376 . S
N1601 C1605 1.374 . S
C1602 N1601 1.376 . S
C1602 C1603 1.443 . S
C1602 C1629 1.389 . S
C1603 C1602 1.443 . S
C1603 C1604 1.340 . S
C1603 H1635 0.951 . S
C1604 C1603 1.340 . S
C1604 C1605 1.439 . S
C1604 H1636 0.950 . S
C1605 N1601 1.374 . S
C1605 C1604 1.439 . S
C1605 C1630 1.395 . S
N1606 Co1595 1.995 . S
N1606 C1607 1.376 . S
N1606 C1610 1.383 . S
C1607 N1606 1.376 . S
C1607 C1608 1.446 . S
C1607 C1630 1.391 . S
C1608 C1607 1.446 . S
C1608 C1609 1.339 . S
C1608 H1637 0.949 . S
C1609 C1608 1.339 . S
C1609 C1610 1.439 . S
C1609 H1638 0.950 . S
C1610 N1606 1.383 . S
C1610 C1609 1.439 . S
C1610 C1628 1.392 . S
N1611 Co1595 2.282 . S
N1611 C1614 1.332 . S
N1611 C1616 1.332 . S
C1612 C1613 1.386 . S
C1612 C1615 1.388 . S
C1613 C1612 1.386 . S
C1613 C1614 1.382 . S
C1613 H1639 0.950 . S
C1614 N1611 1.332 . S
C1614 C1613 1.382 . S
C1614 H1625 0.952 . S
C1615 C1612 1.388 . S
C1615 C1616 1.382 . S
C1615 H1640 0.950 . S
C1616 N1611 1.332 . S
C1616 C1615 1.382 . S
C1616 H1626 0.948 . S
N1617 Co1595 2.282 . S
N1617 C1621 1.332 . S
N1617 C1622 1.332 . S
C1618 C1619 1.388 . S
C1618 C1622 1.382 . S
C1618 H1641 0.950 . S
C1619 C1618 1.388 . S
C1619 C1620 1.386 . S
C1620 C1619 1.386 . S
C1620 C1621 1.382 . S
C1620 H1642 0.950 . S
C1621 N1617 1.332 . S
C1621 C1620 1.382 . S
C1621 H1623 0.952 . S
C1622 N1617 1.332 . S
C1622 C1618 1.382 . S
C1622 H1624 0.948 . S
H1623 C1621 0.952 . S
H1624 C1622 0.948 . S
H1625 C1614 0.952 . S
H1626 C1616 0.948 . S
C1627 C1593 1.395 . S
C1627 C1597 1.391 . S
C1628 C1590 1.389 . S
C1628 C1610 1.392 . S
C1629 C1600 1.392 . S
C1629 C1602 1.389 . S
C1630 C1605 1.395 . S
C1630 C1607 1.391 . S
H1631 C1591 0.951 . S
H1632 C1592 0.950 . S
H1633 C1598 0.949 . S
H1634 C1599 0.950 . S
H1635 C1603 0.951 . S
H1636 C1604 0.950 . S
H1637 C1608 0.949 . S
H1638 C1609 0.950 . S
H1639 C1613 0.950 . S
H1640 C1615 0.950 . S
H1641 C1618 0.950 . S
H1642 C1620 0.950 . S
C1643 C1644 1.443 . S
C1643 N1647 1.376 . S
C1643 C1681 1.389 . S
C1644 C1643 1.443 . S
C1644 C1645 1.340 . S
C1644 H1684 0.951 . S
C1645 C1644 1.340 . S
C1645 C1646 1.439 . S
C1645 H1685 0.950 . S
C1646 C1645 1.439 . S
C1646 N1647 1.374 . S
C1646 C1680 1.395 . S
N1647 C1643 1.376 . S
N1647 C1646 1.374 . S
N1647 Co1648 2.008 . S
Co1648 N1647 2.008 . S
Co1648 N1649 1.995 . S
Co1648 N1654 2.008 . S
Co1648 N1659 1.995 . S
Co1648 N1664 2.282 . S
Co1648 N1670 2.282 . S
N1649 Co1648 1.995 . S
N1649 C1650 1.376 . S
N1649 C1653 1.383 . S
C1650 N1649 1.376 . S
C1650 C1651 1.446 . S
C1650 C1680 1.391 . S
C1651 C1650 1.446 . S
C1651 C1652 1.339 . S
C1651 H1686 0.949 . S
C1652 C1651 1.339 . S
C1652 C1653 1.439 . S
C1652 H1687 0.950 . S
C1653 N1649 1.383 . S
C1653 C1652 1.439 . S
C1653 C1682 1.392 . S
N1654 Co1648 2.008 . S
N1654 C1655 1.376 . S
N1654 C1658 1.374 . S
C1655 N1654 1.376 . S
C1655 C1656 1.443 . S
C1655 C1682 1.389 . S
C1656 C1655 1.443 . S
C1656 C1657 1.340 . S
C1656 H1688 0.951 . S
C1657 C1656 1.340 . S
C1657 C1658 1.439 . S
C1657 H1689 0.950 . S
C1658 N1654 1.374 . S
C1658 C1657 1.439 . S
C1658 C1683 1.395 . S
N1659 Co1648 1.995 . S
N1659 C1660 1.376 . S
N1659 C1663 1.383 . S
C1660 N1659 1.376 . S
C1660 C1661 1.446 . S
C1660 C1683 1.391 . S
C1661 C1660 1.446 . S
C1661 C1662 1.339 . S
C1661 H1690 0.949 . S
C1662 C1661 1.339 . S
C1662 C1663 1.439 . S
C1662 H1691 0.950 . S
C1663 N1659 1.383 . S
C1663 C1662 1.439 . S
C1663 C1681 1.392 . S
N1664 Co1648 2.282 . S
N1664 C1667 1.332 . S
N1664 C1669 1.332 . S
C1665 C1666 1.386 . S
C1665 C1668 1.388 . S
C1666 C1665 1.386 . S
C1666 C1667 1.382 . S
C1666 H1692 0.950 . S
C1667 N1664 1.332 . S
C1667 C1666 1.382 . S
C1667 H1678 0.952 . S
C1668 C1665 1.388 . S
C1668 C1669 1.382 . S
C1668 H1693 0.950 . S
C1669 N1664 1.332 . S
C1669 C1668 1.382 . S
C1669 H1679 0.948 . S
N1670 Co1648 2.282 . S
N1670 C1674 1.332 . S
N1670 C1675 1.332 . S
C1671 C1672 1.388 . S
C1671 C1675 1.382 . S
C1671 H1694 0.950 . S
C1672 C1671 1.388 . S
C1672 C1673 1.386 . S
C1673 C1672 1.386 . S
C1673 C1674 1.382 . S
C1673 H1695 0.950 . S
C1674 N1670 1.332 . S
C1674 C1673 1.382 . S
C1674 H1676 0.952 . S
C1675 N1670 1.332 . S
C1675 C1671 1.382 . S
C1675 H1677 0.948 . S
H1676 C1674 0.952 . S
H1677 C1675 0.948 . S
H1678 C1667 0.952 . S
H1679 C1669 0.948 . S
C1680 C1646 1.395 . S
C1680 C1650 1.391 . S
C1681 C1643 1.389 . S
C1681 C1663 1.392 . S
C1682 C1653 1.392 . S
C1682 C1655 1.389 . S
C1683 C1658 1.395 . S
C1683 C1660 1.391 . S
H1684 C1644 0.951 . S
H1685 C1645 0.950 . S
H1686 C1651 0.949 . S
H1687 C1652 0.950 . S
H1688 C1656 0.951 . S
H1689 C1657 0.950 . S
H1690 C1661 0.949 . S
H1691 C1662 0.950 . S
H1692 C1666 0.950 . S
H1693 C1668 0.950 . S
H1694 C1671 0.950 . S
H1695 C1673 0.950 . S
C1696 C1697 1.369 . S
C1696 C1698 1.419 . S
C1696 H1700 0.930 . S
C1697 C1696 1.369 . S
C1697 C1706 1.429 . S
C1698 C1696 1.419 . S
C1698 C1699 1.363 . S
C1698 H1701 0.929 . S
C1699 C1698 1.363 . S
C1699 C1705 1.428 . S
H1700 C1696 0.930 . S
H1701 C1698 0.929 . S
S1702 N1703 1.613 . S
S1702 N1704 1.610 . S
N1703 S1702 1.613 . S
N1703 C1706 1.350 . S
N1704 S1702 1.610 . S
N1704 C1705 1.351 . S
C1705 C1699 1.428 . S
C1705 N1704 1.351 . S
C1705 C1706 1.434 . S
C1706 C1697 1.429 . S
C1706 N1703 1.350 . S
C1706 C1705 1.434 . S
C1707 C1708 1.369 . S
C1707 C1709 1.419 . S
C1707 H1711 0.930 . S
C1708 C1707 1.369 . S
C1708 C1717 1.429 . S
C1709 C1707 1.419 . S
C1709 C1710 1.363 . S
C1709 H1712 0.929 . S
C1710 C1709 1.363 . S
C1710 C1716 1.428 . S
H1711 C1707 0.930 . S
H1712 C1709 0.929 . S
S1713 N1714 1.613 . S
S1713 N1715 1.610 . S
N1714 S1713 1.613 . S
N1714 C1717 1.350 . S
N1715 S1713 1.610 . S
N1715 C1716 1.351 . S
C1716 C1710 1.428 . S
C1716 N1715 1.351 . S
C1716 C1717 1.434 . S
C1717 C1708 1.429 . S
C1717 N1714 1.350 . S
C1717 C1716 1.434 . S
C1718 C1719 1.369 . S
C1718 C1720 1.419 . S
C1718 H1722 0.930 . S
C1719 C1718 1.369 . S
C1719 C1728 1.429 . S
C1720 C1718 1.419 . S
C1720 C1721 1.363 . S
C1720 H1723 0.929 . S
C1721 C1720 1.363 . S
C1721 C1727 1.428 . S
H1722 C1718 0.930 . S
H1723 C1720 0.929 . S
S1724 N1725 1.613 . S
S1724 N1726 1.610 . S
N1725 S1724 1.613 . S
N1725 C1728 1.350 . S
N1726 S1724 1.610 . S
N1726 C1727 1.351 . S
C1727 C1721 1.428 . S
C1727 N1726 1.351 . S
C1727 C1728 1.434 . S
C1728 C1719 1.429 . S
C1728 N1725 1.350 . S
C1728 C1727 1.434 . S
C1729 C1730 1.369 . S
C1729 C1731 1.419 . S
C1729 H1733 0.930 . S
C1730 C1729 1.369 . S
C1730 C1739 1.429 . S
C1731 C1729 1.419 . S
C1731 C1732 1.363 . S
C1731 H1734 0.929 . S
C1732 C1731 1.363 . S
C1732 C1738 1.428 . S
H1733 C1729 0.930 . S
H1734 C1731 0.929 . S
S1735 N1736 1.613 . S
S1735 N1737 1.610 . S
N1736 S1735 1.613 . S
N1736 C1739 1.350 . S
N1737 S1735 1.610 . S
N1737 C1738 1.351 . S
C1738 C1732 1.428 . S
C1738 N1737 1.351 . S
C1738 C1739 1.434 . S
C1739 C1730 1.429 . S
C1739 N1736 1.350 . S
C1739 C1738 1.434 . S
C1740 C1741 1.369 . S
C1740 C1742 1.419 . S
C1740 H1744 0.930 . S
C1741 C1740 1.369 . S
C1741 C1750 1.429 . S
C1742 C1740 1.419 . S
C1742 C1743 1.363 . S
C1742 H1745 0.929 . S
C1743 C1742 1.363 . S
C1743 C1749 1.428 . S
H1744 C1740 0.930 . S
H1745 C1742 0.929 . S
S1746 N1747 1.613 . S
S1746 N1748 1.610 . S
N1747 S1746 1.613 . S
N1747 C1750 1.350 . S
N1748 S1746 1.610 . S
N1748 C1749 1.351 . S
C1749 C1743 1.428 . S
C1749 N1748 1.351 . S
C1749 C1750 1.434 . S
C1750 C1741 1.429 . S
C1750 N1747 1.350 . S
C1750 C1749 1.434 . S
C1751 C1752 1.369 . S
C1751 C1753 1.419 . S
C1751 H1755 0.930 . S
C1752 C1751 1.369 . S
C1752 C1761 1.429 . S
C1753 C1751 1.419 . S
C1753 C1754 1.363 . S
C1753 H1756 0.929 . S
C1754 C1753 1.363 . S
C1754 C1760 1.428 . S
H1755 C1751 0.930 . S
H1756 C1753 0.929 . S
S1757 N1758 1.613 . S
S1757 N1759 1.610 . S
N1758 S1757 1.613 . S
N1758 C1761 1.350 . S
N1759 S1757 1.610 . S
N1759 C1760 1.351 . S
C1760 C1754 1.428 . S
C1760 N1759 1.351 . S
C1760 C1761 1.434 . S
C1761 C1752 1.429 . S
C1761 N1758 1.350 . S
C1761 C1760 1.434 . S
C1762 C1763 1.369 . S
C1762 C1764 1.419 . S
C1762 H1766 0.930 . S
C1763 C1762 1.369 . S
C1763 C1772 1.429 . S
C1764 C1762 1.419 . S
C1764 C1765 1.363 . S
C1764 H1767 0.929 . S
C1765 C1764 1.363 . S
C1765 C1771 1.428 . S
H1766 C1762 0.930 . S
H1767 C1764 0.929 . S
S1768 N1769 1.613 . S
S1768 N1770 1.610 . S
N1769 S1768 1.613 . S
N1769 C1772 1.350 . S
N1770 S1768 1.610 . S
N1770 C1771 1.351 . S
C1771 C1765 1.428 . S
C1771 N1770 1.351 . S
C1771 C1772 1.434 . S
C1772 C1763 1.429 . S
C1772 N1769 1.350 . S
C1772 C1771 1.434 . S
C1773 C1774 1.369 . S
C1773 C1775 1.419 . S
C1773 H1777 0.930 . S
C1774 C1773 1.369 . S
C1774 C1783 1.429 . S
C1775 C1773 1.419 . S
C1775 C1776 1.363 . S
C1775 H1778 0.929 . S
C1776 C1775 1.363 . S
C1776 C1782 1.428 . S
H1777 C1773 0.930 . S
H1778 C1775 0.929 . S
S1779 N1780 1.613 . S
S1779 N1781 1.610 . S
N1780 S1779 1.613 . S
N1780 C1783 1.350 . S
N1781 S1779 1.610 . S
N1781 C1782 1.351 . S
C1782 C1776 1.428 . S
C1782 N1781 1.351 . S
C1782 C1783 1.434 . S
C1783 C1774 1.429 . S
C1783 N1780 1.350 . S
C1783 C1782 1.434 . S
C1784 C1785 1.369 . S
C1784 C1786 1.419 . S
C1784 H1788 0.930 . S
C1785 C1784 1.369 . S
C1785 C1794 1.429 . S
C1786 C1784 1.419 . S
C1786 C1787 1.363 . S
C1786 H1789 0.929 . S
C1787 C1786 1.363 . S
C1787 C1793 1.428 . S
H1788 C1784 0.930 . S
H1789 C1786 0.929 . S
S1790 N1791 1.613 . S
S1790 N1792 1.610 . S
N1791 S1790 1.613 . S
N1791 C1794 1.350 . S
N1792 S1790 1.610 . S
N1792 C1793 1.351 . S
C1793 C1787 1.428 . S
C1793 N1792 1.351 . S
C1793 C1794 1.434 . S
C1794 C1785 1.429 . S
C1794 N1791 1.350 . S
C1794 C1793 1.434 . S
C1795 C1796 1.369 . S
C1795 C1797 1.419 . S
C1795 H1799 0.930 . S
C1796 C1795 1.369 . S
C1796 C1805 1.429 . S
C1797 C1795 1.419 . S
C1797 C1798 1.363 . S
C1797 H1800 0.929 . S
C1798 C1797 1.363 . S
C1798 C1804 1.428 . S
H1799 C1795 0.930 . S
H1800 C1797 0.929 . S
S1801 N1802 1.613 . S
S1801 N1803 1.610 . S
N1802 S1801 1.613 . S
N1802 C1805 1.350 . S
N1803 S1801 1.610 . S
N1803 C1804 1.351 . S
C1804 C1798 1.428 . S
C1804 N1803 1.351 . S
C1804 C1805 1.434 . S
C1805 C1796 1.429 . S
C1805 N1802 1.350 . S
C1805 C1804 1.434 . S
C1806 C1807 1.369 . S
C1806 C1808 1.419 . S
C1806 H1810 0.930 . S
C1807 C1806 1.369 . S
C1807 C1816 1.429 . S
C1808 C1806 1.419 . S
C1808 C1809 1.363 . S
C1808 H1811 0.929 . S
C1809 C1808 1.363 . S
C1809 C1815 1.428 . S
H1810 C1806 0.930 . S
H1811 C1808 0.929 . S
S1812 N1813 1.613 . S
S1812 N1814 1.610 . S
N1813 S1812 1.613 . S
N1813 C1816 1.350 . S
N1814 S1812 1.610 . S
N1814 C1815 1.351 . S
C1815 C1809 1.428 . S
C1815 N1814 1.351 . S
C1815 C1816 1.434 . S
C1816 C1807 1.429 . S
C1816 N1813 1.350 . S
C1816 C1815 1.434 . S
C1817 C1818 1.369 . S
C1817 C1819 1.419 . S
C1817 H1821 0.930 . S
C1818 C1817 1.369 . S
C1818 C1827 1.429 . S
C1819 C1817 1.419 . S
C1819 C1820 1.363 . S
C1819 H1822 0.929 . S
C1820 C1819 1.363 . S
C1820 C1826 1.428 . S
H1821 C1817 0.930 . S
H1822 C1819 0.929 . S
S1823 N1824 1.613 . S
S1823 N1825 1.610 . S
N1824 S1823 1.613 . S
N1824 C1827 1.350 . S
N1825 S1823 1.610 . S
N1825 C1826 1.351 . S
C1826 C1820 1.428 . S
C1826 N1825 1.351 . S
C1826 C1827 1.434 . S
C1827 C1818 1.429 . S
C1827 N1824 1.350 . S
C1827 C1826 1.434 . S
C1828 C1829 1.369 . S
C1828 C1830 1.419 . S
C1828 H1832 0.930 . S
C1829 C1828 1.369 . S
C1829 C1838 1.429 . S
C1830 C1828 1.419 . S
C1830 C1831 1.363 . S
C1830 H1833 0.929 . S
C1831 C1830 1.363 . S
C1831 C1837 1.428 . S
H1832 C1828 0.930 . S
H1833 C1830 0.929 . S
S1834 N1835 1.613 . S
S1834 N1836 1.610 . S
N1835 S1834 1.613 . S
N1835 C1838 1.350 . S
N1836 S1834 1.610 . S
N1836 C1837 1.351 . S
C1837 C1831 1.428 . S
C1837 N1836 1.351 . S
C1837 C1838 1.434 . S
C1838 C1829 1.429 . S
C1838 N1835 1.350 . S
C1838 C1837 1.434 . S
C1839 C1840 1.369 . S
C1839 C1841 1.419 . S
C1839 H1843 0.930 . S
C1840 C1839 1.369 . S
C1840 C1849 1.429 . S
C1841 C1839 1.419 . S
C1841 C1842 1.363 . S
C1841 H1844 0.929 . S
C1842 C1841 1.363 . S
C1842 C1848 1.428 . S
H1843 C1839 0.930 . S
H1844 C1841 0.929 . S
S1845 N1846 1.613 . S
S1845 N1847 1.610 . S
N1846 S1845 1.613 . S
N1846 C1849 1.350 . S
N1847 S1845 1.610 . S
N1847 C1848 1.351 . S
C1848 C1842 1.428 . S
C1848 N1847 1.351 . S
C1848 C1849 1.434 . S
C1849 C1840 1.429 . S
C1849 N1846 1.350 . S
C1849 C1848 1.434 . S
C1850 C1851 1.369 . S
C1850 C1852 1.419 . S
C1850 H1854 0.930 . S
C1851 C1850 1.369 . S
C1851 C1860 1.429 . S
C1852 C1850 1.419 . S
C1852 C1853 1.363 . S
C1852 H1855 0.929 . S
C1853 C1852 1.363 . S
C1853 C1859 1.428 . S
H1854 C1850 0.930 . S
H1855 C1852 0.929 . S
S1856 N1857 1.613 . S
S1856 N1858 1.610 . S
N1857 S1856 1.613 . S
N1857 C1860 1.350 . S
N1858 S1856 1.610 . S
N1858 C1859 1.351 . S
C1859 C1853 1.428 . S
C1859 N1858 1.351 . S
C1859 C1860 1.434 . S
C1860 C1851 1.429 . S
C1860 N1857 1.350 . S
C1860 C1859 1.434 . S
C1861 C1862 1.369 . S
C1861 C1863 1.419 . S
C1861 H1865 0.930 . S
C1862 C1861 1.369 . S
C1862 C1871 1.429 . S
C1863 C1861 1.419 . S
C1863 C1864 1.363 . S
C1863 H1866 0.929 . S
C1864 C1863 1.363 . S
C1864 C1870 1.428 . S
H1865 C1861 0.930 . S
H1866 C1863 0.929 . S
S1867 N1868 1.613 . S
S1867 N1869 1.610 . S
N1868 S1867 1.613 . S
N1868 C1871 1.350 . S
N1869 S1867 1.610 . S
N1869 C1870 1.351 . S
C1870 C1864 1.428 . S
C1870 N1869 1.351 . S
C1870 C1871 1.434 . S
C1871 C1862 1.429 . S
C1871 N1868 1.350 . S
C1871 C1870 1.434 . S
C1872 C1873 1.371 . S
C1872 C1874 1.420 . S
C1872 H1876 0.930 . S
C1873 C1872 1.371 . S
C1873 C1882 1.391 1_544 S
C1874 C1872 1.420 . S
C1874 C1875 1.341 1_544 S
C1874 H1877 0.928 . S
C1875 C1874 1.341 1_566 S
C1875 C1881 1.448 . S
H1876 C1872 0.930 . S
H1877 C1874 0.928 . S
S1878 N1879 1.613 . S
S1878 N1880 1.610 . S
N1879 S1878 1.613 . S
N1879 C1882 1.362 . S
N1880 S1878 1.610 . S
N1880 C1881 1.351 . S
C1881 C1875 1.448 . S
C1881 N1880 1.351 . S
C1881 C1882 1.467 . S
C1882 C1873 1.391 1_566 S
C1882 N1879 1.362 . S
C1882 C1881 1.467 . S
C1883 C1884 1.353 1_554 S
C1883 C1885 1.419 . S
C1883 H1887 0.930 . S
C1884 C1883 1.353 1_556 S
C1884 C1893 1.445 . S
C1885 C1883 1.419 . S
C1885 C1886 1.367 . S
C1885 H1888 0.929 . S
C1886 C1885 1.367 . S
C1886 C1892 1.424 1_554 S
H1887 C1883 0.930 . S
H1888 C1885 0.929 . S
S1889 N1890 1.613 . S
S1889 N1891 1.610 . S
N1890 S1889 1.613 . S
N1890 C1893 1.350 . S
N1891 S1889 1.610 . S
N1891 C1892 1.351 . S
C1892 C1886 1.424 1_556 S
C1892 N1891 1.351 . S
C1892 C1893 1.434 . S
C1893 C1884 1.445 . S
C1893 N1890 1.350 . S
C1893 C1892 1.434 . S
C1894 C1895 1.369 . S
C1894 C1896 1.419 . S
C1894 H1898 0.930 . S
C1895 C1894 1.369 . S
C1895 C1904 1.429 . S
C1896 C1894 1.419 . S
C1896 C1897 1.363 . S
C1896 H1899 0.929 . S
C1897 C1896 1.363 . S
C1897 C1903 1.428 . S
H1898 C1894 0.930 . S
H1899 C1896 0.929 . S
S1900 N1901 1.613 . S
S1900 N1902 1.610 . S
N1901 S1900 1.613 . S
N1901 C1904 1.350 . S
N1902 S1900 1.610 . S
N1902 C1903 1.351 . S
C1903 C1897 1.428 . S
C1903 N1902 1.351 . S
C1903 C1904 1.434 . S
C1904 C1895 1.429 . S
C1904 N1901 1.350 . S
C1904 C1903 1.434 . S
C1905 C1906 1.369 . S
C1905 C1907 1.419 . S
C1905 H1909 0.930 . S
C1906 C1905 1.369 . S
C1906 C1915 1.429 1_565 S
C1907 C1905 1.419 . S
C1907 C1908 1.363 1_565 S
C1907 H1910 0.929 . S
C1908 C1907 1.363 1_545 S
C1908 C1914 1.428 . S
H1909 C1905 0.930 . S
H1910 C1907 0.929 . S
S1911 N1912 1.613 . S
S1911 N1913 1.610 . S
N1912 S1911 1.613 . S
N1912 C1915 1.350 . S
N1913 S1911 1.610 . S
N1913 C1914 1.351 . S
C1914 C1908 1.428 . S
C1914 N1913 1.351 . S
C1914 C1915 1.434 . S
C1915 C1906 1.429 1_545 S
C1915 N1912 1.350 . S
C1915 C1914 1.434 . S
C1916 C1917 1.343 1_556 S
C1916 C1918 1.419 . S
C1916 H1920 0.930 . S
C1917 C1916 1.343 1_554 S
C1917 C1926 1.455 . S
C1918 C1916 1.419 . S
C1918 C1919 1.363 . S
C1918 H1921 0.929 . S
C1919 C1918 1.363 . S
C1919 C1925 1.428 1_556 S
H1920 C1916 0.930 . S
H1921 C1918 0.929 . S
S1922 N1923 1.613 . S
S1922 N1924 1.610 . S
N1923 S1922 1.613 . S
N1923 C1926 1.350 . S
N1924 S1922 1.610 . S
N1924 C1925 1.351 . S
C1925 C1919 1.428 1_554 S
C1925 N1924 1.351 . S
C1925 C1926 1.434 . S
C1926 C1917 1.455 . S
C1926 N1923 1.350 . S
C1926 C1925 1.434 . S
C1927 C1928 1.369 . S
C1927 C1929 1.419 . S
C1927 H1931 0.930 . S
C1928 C1927 1.369 . S
C1928 C1937 1.429 . S
C1929 C1927 1.419 . S
C1929 C1930 1.363 . S
C1929 H1932 0.929 . S
C1930 C1929 1.363 . S
C1930 C1936 1.428 . S
H1931 C1927 0.930 . S
H1932 C1929 0.929 . S
S1933 N1934 1.613 . S
S1933 N1935 1.610 . S
N1934 S1933 1.613 . S
N1934 C1937 1.350 . S
N1935 S1933 1.610 . S
N1935 C1936 1.351 . S
C1936 C1930 1.428 . S
C1936 N1935 1.351 . S
C1936 C1937 1.434 . S
C1937 C1928 1.429 . S
C1937 N1934 1.350 . S
C1937 C1936 1.434 . S
C1938 C1939 1.369 . S
C1938 C1940 1.419 . S
C1938 H1942 0.930 . S
C1939 C1938 1.369 . S
C1939 C1948 1.429 1_565 S
C1940 C1938 1.419 . S
C1940 C1941 1.363 1_565 S
C1940 H1943 0.929 . S
C1941 C1940 1.363 1_545 S
C1941 C1947 1.428 . S
H1942 C1938 0.930 . S
H1943 C1940 0.929 . S
S1944 N1945 1.613 . S
S1944 N1946 1.610 . S
N1945 S1944 1.613 . S
N1945 C1948 1.350 . S
N1946 S1944 1.610 . S
N1946 C1947 1.351 . S
C1947 C1941 1.428 . S
C1947 N1946 1.351 . S
C1947 C1948 1.434 . S
C1948 C1939 1.429 1_545 S
C1948 N1945 1.350 . S
C1948 C1947 1.434 . S
C1949 C1950 1.369 . S
C1949 C1951 1.419 . S
C1949 H1953 0.930 . S
C1950 C1949 1.369 . S
C1950 C1959 1.429 . S
C1951 C1949 1.419 . S
C1951 C1952 1.363 . S
C1951 H1954 0.929 . S
C1952 C1951 1.363 . S
C1952 C1958 1.428 . S
H1953 C1949 0.930 . S
H1954 C1951 0.929 . S
S1955 N1956 1.613 . S
S1955 N1957 1.610 . S
N1956 S1955 1.613 . S
N1956 C1959 1.350 . S
N1957 S1955 1.610 . S
N1957 C1958 1.351 . S
C1958 C1952 1.428 . S
C1958 N1957 1.351 . S
C1958 C1959 1.434 . S
C1959 C1950 1.429 . S
C1959 N1956 1.350 . S
C1959 C1958 1.434 . S
C1960 C1961 1.369 . S
C1960 C1962 1.419 . S
C1960 H1964 0.930 . S
C1961 C1960 1.369 . S
C1961 C1970 1.429 . S
C1962 C1960 1.419 . S
C1962 C1963 1.363 . S
C1962 H1965 0.929 . S
C1963 C1962 1.363 . S
C1963 C1969 1.428 . S
H1964 C1960 0.930 . S
H1965 C1962 0.929 . S
S1966 N1967 1.613 . S
S1966 N1968 1.610 . S
N1967 S1966 1.613 . S
N1967 C1970 1.350 . S
N1968 S1966 1.610 . S
N1968 C1969 1.351 . S
C1969 C1963 1.428 . S
C1969 N1968 1.351 . S
C1969 C1970 1.434 . S
C1970 C1961 1.429 . S
C1970 N1967 1.350 . S
C1970 C1969 1.434 . S
C1971 C1972 1.369 . S
C1971 C1973 1.419 . S
C1971 H1975 0.930 . S
C1972 C1971 1.369 . S
C1972 C1981 1.429 . S
C1973 C1971 1.419 . S
C1973 C1974 1.363 . S
C1973 H1976 0.929 . S
C1974 C1973 1.363 . S
C1974 C1980 1.428 . S
H1975 C1971 0.930 . S
H1976 C1973 0.929 . S
S1977 N1978 1.613 . S
S1977 N1979 1.610 . S
N1978 S1977 1.613 . S
N1978 C1981 1.350 . S
N1979 S1977 1.610 . S
N1979 C1980 1.351 . S
C1980 C1974 1.428 . S
C1980 N1979 1.351 . S
C1980 C1981 1.434 . S
C1981 C1972 1.429 . S
C1981 N1978 1.350 . S
C1981 C1980 1.434 . S
C1982 C1983 1.369 . S
C1982 C1984 1.419 . S
C1982 H1986 0.930 . S
C1983 C1982 1.369 . S
C1983 C1992 1.429 . S
C1984 C1982 1.419 . S
C1984 C1985 1.363 . S
C1984 H1987 0.929 . S
C1985 C1984 1.363 . S
C1985 C1991 1.428 . S
H1986 C1982 0.930 . S
H1987 C1984 0.929 . S
S1988 N1989 1.613 . S
S1988 N1990 1.610 . S
N1989 S1988 1.613 . S
N1989 C1992 1.350 . S
N1990 S1988 1.610 . S
N1990 C1991 1.351 . S
C1991 C1985 1.428 . S
C1991 N1990 1.351 . S
C1991 C1992 1.434 . S
C1992 C1983 1.429 . S
C1992 N1989 1.350 . S
C1992 C1991 1.434 . S
C1993 C1994 1.369 . S
C1993 C1995 1.419 . S
C1993 H1997 0.930 . S
C1994 C1993 1.369 . S
C1994 C2003 1.429 . S
C1995 C1993 1.419 . S
C1995 C1996 1.363 . S
C1995 H1998 0.929 . S
C1996 C1995 1.363 . S
C1996 C2002 1.428 . S
H1997 C1993 0.930 . S
H1998 C1995 0.929 . S
S1999 N2000 1.613 . S
S1999 N2001 1.610 . S
N2000 S1999 1.613 . S
N2000 C2003 1.350 . S
N2001 S1999 1.610 . S
N2001 C2002 1.351 . S
C2002 C1996 1.428 . S
C2002 N2001 1.351 . S
C2002 C2003 1.434 . S
C2003 C1994 1.429 . S
C2003 N2000 1.350 . S
C2003 C2002 1.434 . S
C2004 C2005 1.369 1_545 S
C2004 C2006 1.419 1_455 S
C2004 H2008 0.930 . S
C2005 C2004 1.369 1_565 S
C2005 C2014 1.429 . S
C2006 C2004 1.419 1_655 S
C2006 C2007 1.363 . S
C2006 H2009 0.929 . S
C2007 C2006 1.363 . S
C2007 C2013 1.428 1_545 S
H2008 C2004 0.930 . S
H2009 C2006 0.929 . S
S2010 N2011 1.613 1_655 S
S2010 N2012 1.610 . S
N2011 S2010 1.613 1_455 S
N2011 C2014 1.350 . S
N2012 S2010 1.610 . S
N2012 C2013 1.351 . S
C2013 C2007 1.428 1_565 S
C2013 N2012 1.351 . S
C2013 C2014 1.434 1_655 S
C2014 C2005 1.429 . S
C2014 N2011 1.350 . S
C2014 C2013 1.434 1_455 S
C2015 C2016 1.369 . S
C2015 C2017 1.419 1_655 S
C2015 H2019 0.930 . S
C2016 C2015 1.369 . S
C2016 C2025 1.429 . S
C2017 C2015 1.419 1_455 S
C2017 C2018 1.363 . S
C2017 H2020 0.929 . S
C2018 C2017 1.363 . S
C2018 C2024 1.428 . S
H2019 C2015 0.930 . S
H2020 C2017 0.929 . S
S2021 N2022 1.613 1_455 S
S2021 N2023 1.610 . S
N2022 S2021 1.613 1_655 S
N2022 C2025 1.350 . S
N2023 S2021 1.610 . S
N2023 C2024 1.351 . S
C2024 C2018 1.428 . S
C2024 N2023 1.351 . S
C2024 C2025 1.434 1_455 S
C2025 C2016 1.429 . S
C2025 N2022 1.350 . S
C2025 C2024 1.434 1_655 S
C2026 C2027 1.369 . S
C2026 C2028 1.419 1_455 S
C2026 H2030 0.930 . S
C2027 C2026 1.369 . S
C2027 C2036 1.429 . S
C2028 C2026 1.419 1_655 S
C2028 C2029 1.363 . S
C2028 H2031 0.929 . S
C2029 C2028 1.363 . S
C2029 C2035 1.428 . S
H2030 C2026 0.930 . S
H2031 C2028 0.929 . S
S2032 N2033 1.613 . S
S2032 N2034 1.610 1_455 S
N2033 S2032 1.613 . S
N2033 C2036 1.350 . S
N2034 S2032 1.610 1_655 S
N2034 C2035 1.351 . S
C2035 C2029 1.428 . S
C2035 N2034 1.351 . S
C2035 C2036 1.434 1_655 S
C2036 C2027 1.429 . S
C2036 N2033 1.350 . S
C2036 C2035 1.434 1_455 S
C2037 C2038 1.346 1_554 S
C2037 C2039 1.419 1_455 S
C2037 H2041 0.930 . S
C2038 C2037 1.346 1_556 S
C2038 C2047 1.453 . S
C2039 C2037 1.419 1_655 S
C2039 C2040 1.364 . S
C2039 H2042 0.929 . S
C2040 C2039 1.364 . S
C2040 C2046 1.427 1_554 S
H2041 C2037 0.930 . S
H2042 C2039 0.929 . S
S2043 N2044 1.613 1_655 S
S2043 N2045 1.610 . S
N2044 S2043 1.613 1_455 S
N2044 C2047 1.350 . S
N2045 S2043 1.610 . S
N2045 C2046 1.351 . S
C2046 C2040 1.427 1_556 S
C2046 N2045 1.351 . S
C2046 C2047 1.434 1_655 S
C2047 C2038 1.453 . S
C2047 N2044 1.350 . S
C2047 C2046 1.434 1_455 S
C2048 C2049 1.369 . S
C2048 C2050 1.419 . S
C2048 H2052 0.930 . S
C2049 C2048 1.369 . S
C2049 C2058 1.429 . S
C2050 C2048 1.419 . S
C2050 C2051 1.363 . S
C2050 H2053 0.929 . S
C2051 C2050 1.363 . S
C2051 C2057 1.428 . S
H2052 C2048 0.930 . S
H2053 C2050 0.929 . S
S2054 N2055 1.613 . S
S2054 N2056 1.610 . S
N2055 S2054 1.613 . S
N2055 C2058 1.350 . S
N2056 S2054 1.610 . S
N2056 C2057 1.351 . S
C2057 C2051 1.428 . S
C2057 N2056 1.351 . S
C2057 C2058 1.434 . S
C2058 C2049 1.429 . S
C2058 N2055 1.350 . S
C2058 C2057 1.434 . S
C2059 C2060 1.369 . S
C2059 C2061 1.419 . S
C2059 H2063 0.930 . S
C2060 C2059 1.369 . S
C2060 C2069 1.429 . S
C2061 C2059 1.419 . S
C2061 C2062 1.363 . S
C2061 H2064 0.929 . S
C2062 C2061 1.363 . S
C2062 C2068 1.428 . S
H2063 C2059 0.930 . S
H2064 C2061 0.929 . S
S2065 N2066 1.613 . S
S2065 N2067 1.610 . S
N2066 S2065 1.613 . S
N2066 C2069 1.350 . S
N2067 S2065 1.610 . S
N2067 C2068 1.351 . S
C2068 C2062 1.428 . S
C2068 N2067 1.351 . S
C2068 C2069 1.434 . S
C2069 C2060 1.429 . S
C2069 N2066 1.350 . S
C2069 C2068 1.434 . S
C2070 C2071 1.369 . S
C2070 C2072 1.419 . S
C2070 H2074 0.930 . S
C2071 C2070 1.369 . S
C2071 C2080 1.429 . S
C2072 C2070 1.419 . S
C2072 C2073 1.363 . S
C2072 H2075 0.929 . S
C2073 C2072 1.363 . S
C2073 C2079 1.428 . S
H2074 C2070 0.930 . S
H2075 C2072 0.929 . S
S2076 N2077 1.613 . S
S2076 N2078 1.610 . S
N2077 S2076 1.613 . S
N2077 C2080 1.350 . S
N2078 S2076 1.610 . S
N2078 C2079 1.351 . S
C2079 C2073 1.428 . S
C2079 N2078 1.351 . S
C2079 C2080 1.434 . S
C2080 C2071 1.429 . S
C2080 N2077 1.350 . S
C2080 C2079 1.434 . S
C2081 C2082 1.369 . S
C2081 C2083 1.419 . S
C2081 H2085 0.930 . S
C2082 C2081 1.369 . S
C2082 C2091 1.429 . S
C2083 C2081 1.419 . S
C2083 C2084 1.363 . S
C2083 H2086 0.929 . S
C2084 C2083 1.363 . S
C2084 C2090 1.428 . S
H2085 C2081 0.930 . S
H2086 C2083 0.929 . S
S2087 N2088 1.613 . S
S2087 N2089 1.610 . S
N2088 S2087 1.613 . S
N2088 C2091 1.350 . S
N2089 S2087 1.610 . S
N2089 C2090 1.351 . S
C2090 C2084 1.428 . S
C2090 N2089 1.351 . S
C2090 C2091 1.434 . S
C2091 C2082 1.429 . S
C2091 N2088 1.350 . S
C2091 C2090 1.434 . S
C2092 C2093 1.369 . S
C2092 C2094 1.419 . S
C2092 H2096 0.930 . S
C2093 C2092 1.369 . S
C2093 C2102 1.429 . S
C2094 C2092 1.419 . S
C2094 C2095 1.363 . S
C2094 H2097 0.929 . S
C2095 C2094 1.363 . S
C2095 C2101 1.428 . S
H2096 C2092 0.930 . S
H2097 C2094 0.929 . S
S2098 N2099 1.613 . S
S2098 N2100 1.610 . S
N2099 S2098 1.613 . S
N2099 C2102 1.350 . S
N2100 S2098 1.610 . S
N2100 C2101 1.351 . S
C2101 C2095 1.428 . S
C2101 N2100 1.351 . S
C2101 C2102 1.434 . S
C2102 C2093 1.429 . S
C2102 N2099 1.350 . S
C2102 C2101 1.434 . S
C2103 C2104 1.369 . S
C2103 C2105 1.419 . S
C2103 H2107 0.930 . S
C2104 C2103 1.369 . S
C2104 C2113 1.429 . S
C2105 C2103 1.419 . S
C2105 C2106 1.363 . S
C2105 H2108 0.929 . S
C2106 C2105 1.363 . S
C2106 C2112 1.428 . S
H2107 C2103 0.930 . S
H2108 C2105 0.929 . S
S2109 N2110 1.613 . S
S2109 N2111 1.610 . S
N2110 S2109 1.613 . S
N2110 C2113 1.350 . S
N2111 S2109 1.610 . S
N2111 C2112 1.351 . S
C2112 C2106 1.428 . S
C2112 N2111 1.351 . S
C2112 C2113 1.434 . S
C2113 C2104 1.429 . S
C2113 N2110 1.350 . S
C2113 C2112 1.434 . S
C2114 C2115 1.369 . S
C2114 C2116 1.419 . S
C2114 H2118 0.930 . S
C2115 C2114 1.369 . S
C2115 C2124 1.429 . S
C2116 C2114 1.419 . S
C2116 C2117 1.363 . S
C2116 H2119 0.929 . S
C2117 C2116 1.363 . S
C2117 C2123 1.428 . S
H2118 C2114 0.930 . S
H2119 C2116 0.929 . S
S2120 N2121 1.613 . S
S2120 N2122 1.610 . S
N2121 S2120 1.613 . S
N2121 C2124 1.350 . S
N2122 S2120 1.610 . S
N2122 C2123 1.351 . S
C2123 C2117 1.428 . S
C2123 N2122 1.351 . S
C2123 C2124 1.434 . S
C2124 C2115 1.429 . S
C2124 N2121 1.350 . S
C2124 C2123 1.434 . S
C2125 C2126 1.369 . S
C2125 C2127 1.419 . S
C2125 H2129 0.930 . S
C2126 C2125 1.369 . S
C2126 C2135 1.429 . S
C2127 C2125 1.419 . S
C2127 C2128 1.363 . S
C2127 H2130 0.929 . S
C2128 C2127 1.363 . S
C2128 C2134 1.428 . S
H2129 C2125 0.930 . S
H2130 C2127 0.929 . S
S2131 N2132 1.613 . S
S2131 N2133 1.610 . S
N2132 S2131 1.613 . S
N2132 C2135 1.350 . S
N2133 S2131 1.610 . S
N2133 C2134 1.351 . S
C2134 C2128 1.428 . S
C2134 N2133 1.351 . S
C2134 C2135 1.434 . S
C2135 C2126 1.429 . S
C2135 N2132 1.350 . S
C2135 C2134 1.434 . S
C2136 C2137 1.369 . S
C2136 C2138 1.419 . S
C2136 H2140 0.930 . S
C2137 C2136 1.369 . S
C2137 C2146 1.429 . S
C2138 C2136 1.419 . S
C2138 C2139 1.363 . S
C2138 H2141 0.929 . S
C2139 C2138 1.363 . S
C2139 C2145 1.428 . S
H2140 C2136 0.930 . S
H2141 C2138 0.929 . S
S2142 N2143 1.613 . S
S2142 N2144 1.610 . S
N2143 S2142 1.613 . S
N2143 C2146 1.350 . S
N2144 S2142 1.610 . S
N2144 C2145 1.351 . S
C2145 C2139 1.428 . S
C2145 N2144 1.351 . S
C2145 C2146 1.434 . S
C2146 C2137 1.429 . S
C2146 N2143 1.350 . S
C2146 C2145 1.434 . S
C2147 C2148 1.369 . S
C2147 C2149 1.419 . S
C2147 H2151 0.930 . S
C2148 C2147 1.369 . S
C2148 C2157 1.429 . S
C2149 C2147 1.419 . S
C2149 C2150 1.363 . S
C2149 H2152 0.929 . S
C2150 C2149 1.363 . S
C2150 C2156 1.428 . S
H2151 C2147 0.930 . S
H2152 C2149 0.929 . S
S2153 N2154 1.613 . S
S2153 N2155 1.610 . S
N2154 S2153 1.613 . S
N2154 C2157 1.350 . S
N2155 S2153 1.610 . S
N2155 C2156 1.351 . S
C2156 C2150 1.428 . S
C2156 N2155 1.351 . S
C2156 C2157 1.434 . S
C2157 C2148 1.429 . S
C2157 N2154 1.350 . S
C2157 C2156 1.434 . S
C2158 C2159 1.369 . S
C2158 C2160 1.419 . S
C2158 H2162 0.930 . S
C2159 C2158 1.369 . S
C2159 C2168 1.429 . S
C2160 C2158 1.419 . S
C2160 C2161 1.363 . S
C2160 H2163 0.929 . S
C2161 C2160 1.363 . S
C2161 C2167 1.428 . S
H2162 C2158 0.930 . S
H2163 C2160 0.929 . S
S2164 N2165 1.613 . S
S2164 N2166 1.610 . S
N2165 S2164 1.613 . S
N2165 C2168 1.350 . S
N2166 S2164 1.610 . S
N2166 C2167 1.351 . S
C2167 C2161 1.428 . S
C2167 N2166 1.351 . S
C2167 C2168 1.434 . S
C2168 C2159 1.429 . S
C2168 N2165 1.350 . S
C2168 C2167 1.434 . S
C2169 C2170 1.369 . S
C2169 C2171 1.419 . S
C2169 H2173 0.930 . S
C2170 C2169 1.369 . S
C2170 C2179 1.429 . S
C2171 C2169 1.419 . S
C2171 C2172 1.363 . S
C2171 H2174 0.929 . S
C2172 C2171 1.363 . S
C2172 C2178 1.428 . S
H2173 C2169 0.930 . S
H2174 C2171 0.929 . S
S2175 N2176 1.613 . S
S2175 N2177 1.610 . S
N2176 S2175 1.613 . S
N2176 C2179 1.350 . S
N2177 S2175 1.610 . S
N2177 C2178 1.351 . S
C2178 C2172 1.428 . S
C2178 N2177 1.351 . S
C2178 C2179 1.434 . S
C2179 C2170 1.429 . S
C2179 N2176 1.350 . S
C2179 C2178 1.434 . S
C2180 C2181 1.369 . S
C2180 C2182 1.419 . S
C2180 H2184 0.930 . S
C2181 C2180 1.369 . S
C2181 C2190 1.429 . S
C2182 C2180 1.419 . S
C2182 C2183 1.363 . S
C2182 H2185 0.929 . S
C2183 C2182 1.363 . S
C2183 C2189 1.428 . S
H2184 C2180 0.930 . S
H2185 C2182 0.929 . S
S2186 N2187 1.613 . S
S2186 N2188 1.610 . S
N2187 S2186 1.613 . S
N2187 C2190 1.350 . S
N2188 S2186 1.610 . S
N2188 C2189 1.351 . S
C2189 C2183 1.428 . S
C2189 N2188 1.351 . S
C2189 C2190 1.434 . S
C2190 C2181 1.429 . S
C2190 N2187 1.350 . S
C2190 C2189 1.434 . S
C2191 C2192 1.369 . S
C2191 C2193 1.419 . S
C2191 H2195 0.930 . S
C2192 C2191 1.369 . S
C2192 C2201 1.429 . S
C2193 C2191 1.419 . S
C2193 C2194 1.363 . S
C2193 H2196 0.929 . S
C2194 C2193 1.363 . S
C2194 C2200 1.428 . S
H2195 C2191 0.930 . S
H2196 C2193 0.929 . S
S2197 N2198 1.613 . S
S2197 N2199 1.610 . S
N2198 S2197 1.613 . S
N2198 C2201 1.350 . S
N2199 S2197 1.610 . S
N2199 C2200 1.351 . S
C2200 C2194 1.428 . S
C2200 N2199 1.351 . S
C2200 C2201 1.434 . S
C2201 C2192 1.429 . S
C2201 N2198 1.350 . S
C2201 C2200 1.434 . S
C2202 C2203 1.369 . S
C2202 C2204 1.419 . S
C2202 H2206 0.930 . S
C2203 C2202 1.369 . S
C2203 C2212 1.429 . S
C2204 C2202 1.419 . S
C2204 C2205 1.363 . S
C2204 H2207 0.929 . S
C2205 C2204 1.363 . S
C2205 C2211 1.428 . S
H2206 C2202 0.930 . S
H2207 C2204 0.929 . S
S2208 N2209 1.613 . S
S2208 N2210 1.610 . S
N2209 S2208 1.613 . S
N2209 C2212 1.350 . S
N2210 S2208 1.610 . S
N2210 C2211 1.351 . S
C2211 C2205 1.428 . S
C2211 N2210 1.351 . S
C2211 C2212 1.434 . S
C2212 C2203 1.429 . S
C2212 N2209 1.350 . S
C2212 C2211 1.434 . S
C2213 C2214 1.369 . S
C2213 C2215 1.419 . S
C2213 H2217 0.930 . S
C2214 C2213 1.369 . S
C2214 C2223 1.429 . S
C2215 C2213 1.419 . S
C2215 C2216 1.363 . S
C2215 H2218 0.929 . S
C2216 C2215 1.363 . S
C2216 C2222 1.428 . S
H2217 C2213 0.930 . S
H2218 C2215 0.929 . S
S2219 N2220 1.613 . S
S2219 N2221 1.610 . S
N2220 S2219 1.613 . S
N2220 C2223 1.350 . S
N2221 S2219 1.610 . S
N2221 C2222 1.351 . S
C2222 C2216 1.428 . S
C2222 N2221 1.351 . S
C2222 C2223 1.434 . S
C2223 C2214 1.429 . S
C2223 N2220 1.350 . S
C2223 C2222 1.434 . S
C2224 C2225 1.369 . S
C2224 C2226 1.419 . S
C2224 H2228 0.930 1_554 S
C2225 C2224 1.369 . S
C2225 C2234 1.429 . S
C2226 C2224 1.419 . S
C2226 C2227 1.370 . S
C2226 H2229 0.922 1_554 S
C2227 C2226 1.370 . S
C2227 C2233 1.428 . S
H2228 C2224 0.930 1_556 S
H2229 C2226 0.922 1_556 S
S2230 N2231 1.613 . S
S2230 N2232 1.610 . S
N2231 S2230 1.613 . S
N2231 C2234 1.350 . S
N2232 S2230 1.610 . S
N2232 C2233 1.351 . S
C2233 C2227 1.428 . S
C2233 N2232 1.351 . S
C2233 C2234 1.434 . S
C2234 C2225 1.429 . S
C2234 N2231 1.350 . S
C2234 C2233 1.434 . S
C2235 C2236 1.369 . S
C2235 C2237 1.419 . S
C2235 H2239 0.930 . S
C2236 C2235 1.369 . S
C2236 C2245 1.429 . S
C2237 C2235 1.419 . S
C2237 C2238 1.363 . S
C2237 H2240 0.929 . S
C2238 C2237 1.363 . S
C2238 C2244 1.428 . S
H2239 C2235 0.930 . S
H2240 C2237 0.929 . S
S2241 N2242 1.613 . S
S2241 N2243 1.610 . S
N2242 S2241 1.613 . S
N2242 C2245 1.350 . S
N2243 S2241 1.610 . S
N2243 C2244 1.351 . S
C2244 C2238 1.428 . S
C2244 N2243 1.351 . S
C2244 C2245 1.434 . S
C2245 C2236 1.429 . S
C2245 N2242 1.350 . S
C2245 C2244 1.434 . S
C2246 C2247 1.369 . S
C2246 C2248 1.419 . S
C2246 H2250 0.930 . S
C2247 C2246 1.369 . S
C2247 C2256 1.429 1_556 S
C2248 C2246 1.419 . S
C2248 C2249 1.363 . S
C2248 H2251 0.929 . S
C2249 C2248 1.363 . S
C2249 C2255 1.428 1_556 S
H2250 C2246 0.930 . S
H2251 C2248 0.929 . S
S2252 N2253 1.613 . S
S2252 N2254 1.610 . S
N2253 S2252 1.613 . S
N2253 C2256 1.350 . S
N2254 S2252 1.610 . S
N2254 C2255 1.351 . S
C2255 C2249 1.428 1_554 S
C2255 N2254 1.351 . S
C2255 C2256 1.434 . S
C2256 C2247 1.429 1_554 S
C2256 N2253 1.350 . S
C2256 C2255 1.434 . S
C2257 C2258 1.369 . S
C2257 C2259 1.419 . S
C2257 H2261 0.930 . S
C2258 C2257 1.369 . S
C2258 C2267 1.429 . S
C2259 C2257 1.419 . S
C2259 C2260 1.363 . S
C2259 H2262 0.929 . S
C2260 C2259 1.363 . S
C2260 C2266 1.428 . S
H2261 C2257 0.930 . S
H2262 C2259 0.929 . S
S2263 N2264 1.613 1_455 S
S2263 N2265 1.610 1_455 S
N2264 S2263 1.613 1_655 S
N2264 C2267 1.350 . S
N2265 S2263 1.610 1_655 S
N2265 C2266 1.351 . S
C2266 C2260 1.428 . S
C2266 N2265 1.351 . S
C2266 C2267 1.434 . S
C2267 C2258 1.429 . S
C2267 N2264 1.350 . S
C2267 C2266 1.434 . S
C2268 C2269 1.369 . S
C2268 C2270 1.419 . S
C2268 H2272 0.930 . S
C2269 C2268 1.369 . S
C2269 C2278 1.429 . S
C2270 C2268 1.419 . S
C2270 C2271 1.363 . S
C2270 H2273 0.929 . S
C2271 C2270 1.363 . S
C2271 C2277 1.428 . S
H2272 C2268 0.930 . S
H2273 C2270 0.929 . S
S2274 N2275 1.613 1_655 S
S2274 N2276 1.610 1_655 S
N2275 S2274 1.613 1_455 S
N2275 C2278 1.350 . S
N2276 S2274 1.610 1_455 S
N2276 C2277 1.351 . S
C2277 C2271 1.428 . S
C2277 N2276 1.351 . S
C2277 C2278 1.434 . S
C2278 C2269 1.429 . S
C2278 N2275 1.350 . S
C2278 C2277 1.434 . S
C2279 C2280 1.369 . S
C2279 C2281 1.419 . S
C2279 H2283 0.930 . S
C2280 C2279 1.369 . S
C2280 C2289 1.429 . S
C2281 C2279 1.419 . S
C2281 C2282 1.363 . S
C2281 H2284 0.929 . S
C2282 C2281 1.363 . S
C2282 C2288 1.428 . S
H2283 C2279 0.930 . S
H2284 C2281 0.929 . S
S2285 N2286 1.613 . S
S2285 N2287 1.610 . S
N2286 S2285 1.613 . S
N2286 C2289 1.350 . S
N2287 S2285 1.610 . S
N2287 C2288 1.351 . S
C2288 C2282 1.428 . S
C2288 N2287 1.351 . S
C2288 C2289 1.434 . S
C2289 C2280 1.429 . S
C2289 N2286 1.350 . S
C2289 C2288 1.434 . S
C2290 C2291 1.369 . S
C2290 C2292 1.419 . S
C2290 H2294 0.930 . S
C2291 C2290 1.369 . S
C2291 C2300 1.429 . S
C2292 C2290 1.419 . S
C2292 C2293 1.363 . S
C2292 H2295 0.929 . S
C2293 C2292 1.363 . S
C2293 C2299 1.428 . S
H2294 C2290 0.930 . S
H2295 C2292 0.929 . S
S2296 N2297 1.613 . S
S2296 N2298 1.610 . S
N2297 S2296 1.613 . S
N2297 C2300 1.350 . S
N2298 S2296 1.610 . S
N2298 C2299 1.351 . S
C2299 C2293 1.428 . S
C2299 N2298 1.351 . S
C2299 C2300 1.434 . S
C2300 C2291 1.429 . S
C2300 N2297 1.350 . S
C2300 C2299 1.434 . S
C2301 C2302 1.369 . S
C2301 C2303 1.419 . S
C2301 H2305 0.930 . S
C2302 C2301 1.369 . S
C2302 C2311 1.429 . S
C2303 C2301 1.419 . S
C2303 C2304 1.363 . S
C2303 H2306 0.929 . S
C2304 C2303 1.363 . S
C2304 C2310 1.428 . S
H2305 C2301 0.930 . S
H2306 C2303 0.929 . S
S2307 N2308 1.613 . S
S2307 N2309 1.610 . S
N2308 S2307 1.613 . S
N2308 C2311 1.350 . S
N2309 S2307 1.610 . S
N2309 C2310 1.351 . S
C2310 C2304 1.428 . S
C2310 N2309 1.351 . S
C2310 C2311 1.434 . S
C2311 C2302 1.429 . S
C2311 N2308 1.350 . S
C2311 C2310 1.434 . S
C2312 C2313 1.369 . S
C2312 C2314 1.419 . S
C2312 H2316 0.930 . S
C2313 C2312 1.369 . S
C2313 C2322 1.429 . S
C2314 C2312 1.419 . S
C2314 C2315 1.363 . S
C2314 H2317 0.929 . S
C2315 C2314 1.363 . S
C2315 C2321 1.428 . S
H2316 C2312 0.930 . S
H2317 C2314 0.929 . S
S2318 N2319 1.613 . S
S2318 N2320 1.610 . S
N2319 S2318 1.613 . S
N2319 C2322 1.350 . S
N2320 S2318 1.610 . S
N2320 C2321 1.351 . S
C2321 C2315 1.428 . S
C2321 N2320 1.351 . S
C2321 C2322 1.434 . S
C2322 C2313 1.429 . S
C2322 N2319 1.350 . S
C2322 C2321 1.434 . S
C2323 C2324 1.369 . S
C2323 C2325 1.419 . S
C2323 H2327 0.930 . S
C2324 C2323 1.369 . S
C2324 C2333 1.429 . S
C2325 C2323 1.419 . S
C2325 C2326 1.363 . S
C2325 H2328 0.929 . S
C2326 C2325 1.363 . S
C2326 C2332 1.428 . S
H2327 C2323 0.930 . S
H2328 C2325 0.929 . S
S2329 N2330 1.613 . S
S2329 N2331 1.610 . S
N2330 S2329 1.613 . S
N2330 C2333 1.350 . S
N2331 S2329 1.610 . S
N2331 C2332 1.351 . S
C2332 C2326 1.428 . S
C2332 N2331 1.351 . S
C2332 C2333 1.434 . S
C2333 C2324 1.429 . S
C2333 N2330 1.350 . S
C2333 C2332 1.434 . S
C2334 C2335 1.369 . S
C2334 C2336 1.419 . S
C2334 H2338 0.930 . S
C2335 C2334 1.369 . S
C2335 C2344 1.429 . S
C2336 C2334 1.419 . S
C2336 C2337 1.363 . S
C2336 H2339 0.929 . S
C2337 C2336 1.363 . S
C2337 C2343 1.428 . S
H2338 C2334 0.930 . S
H2339 C2336 0.929 . S
S2340 N2341 1.613 . S
S2340 N2342 1.610 . S
N2341 S2340 1.613 . S
N2341 C2344 1.350 . S
N2342 S2340 1.610 . S
N2342 C2343 1.351 . S
C2343 C2337 1.428 . S
C2343 N2342 1.351 . S
C2343 C2344 1.434 . S
C2344 C2335 1.429 . S
C2344 N2341 1.350 . S
C2344 C2343 1.434 . S
C2345 C2346 1.369 . S
C2345 C2347 1.419 . S
C2345 H2349 0.930 . S
C2346 C2345 1.369 . S
C2346 C2355 1.429 . S
C2347 C2345 1.419 . S
C2347 C2348 1.363 . S
C2347 H2350 0.929 . S
C2348 C2347 1.363 . S
C2348 C2354 1.428 . S
H2349 C2345 0.930 . S
H2350 C2347 0.929 . S
S2351 N2352 1.613 . S
S2351 N2353 1.610 . S
N2352 S2351 1.613 . S
N2352 C2355 1.350 . S
N2353 S2351 1.610 . S
N2353 C2354 1.351 . S
C2354 C2348 1.428 . S
C2354 N2353 1.351 . S
C2354 C2355 1.434 . S
C2355 C2346 1.429 . S
C2355 N2352 1.350 . S
C2355 C2354 1.434 . S
C2356 C2357 1.369 . S
C2356 C2358 1.419 . S
C2356 H2360 0.930 . S
C2357 C2356 1.369 . S
C2357 C2366 1.429 . S
C2358 C2356 1.419 . S
C2358 C2359 1.363 . S
C2358 H2361 0.929 . S
C2359 C2358 1.363 . S
C2359 C2365 1.428 . S
H2360 C2356 0.930 . S
H2361 C2358 0.929 . S
S2362 N2363 1.613 . S
S2362 N2364 1.610 . S
N2363 S2362 1.613 . S
N2363 C2366 1.350 . S
N2364 S2362 1.610 . S
N2364 C2365 1.351 . S
C2365 C2359 1.428 . S
C2365 N2364 1.351 . S
C2365 C2366 1.434 . S
C2366 C2357 1.429 . S
C2366 N2363 1.350 . S
C2366 C2365 1.434 . S
C2367 C2368 1.369 . S
C2367 C2369 1.419 . S
C2367 H2371 0.930 . S
C2368 C2367 1.369 . S
C2368 C2377 1.429 . S
C2369 C2367 1.419 . S
C2369 C2370 1.363 . S
C2369 H2372 0.929 . S
C2370 C2369 1.363 . S
C2370 C2376 1.428 . S
H2371 C2367 0.930 . S
H2372 C2369 0.929 . S
S2373 N2374 1.613 . S
S2373 N2375 1.610 . S
N2374 S2373 1.613 . S
N2374 C2377 1.350 . S
N2375 S2373 1.610 . S
N2375 C2376 1.351 . S
C2376 C2370 1.428 . S
C2376 N2375 1.351 . S
C2376 C2377 1.434 . S
C2377 C2368 1.429 . S
C2377 N2374 1.350 . S
C2377 C2376 1.434 . S
C2378 C2379 1.369 . S
C2378 C2380 1.419 . S
C2378 H2382 0.930 . S
C2379 C2378 1.369 . S
C2379 C2388 1.429 1_556 S
C2380 C2378 1.419 . S
C2380 C2381 1.363 . S
C2380 H2383 0.929 . S
C2381 C2380 1.363 . S
C2381 C2387 1.428 1_556 S
H2382 C2378 0.930 . S
H2383 C2380 0.929 . S
S2384 N2385 1.613 . S
S2384 N2386 1.610 . S
N2385 S2384 1.613 . S
N2385 C2388 1.350 . S
N2386 S2384 1.610 . S
N2386 C2387 1.351 . S
C2387 C2381 1.428 1_554 S
C2387 N2386 1.351 . S
C2387 C2388 1.434 . S
C2388 C2379 1.429 1_554 S
C2388 N2385 1.350 . S
C2388 C2387 1.434 . S
C2389 C2390 1.369 . S
C2389 C2391 1.419 . S
C2389 H2393 0.930 . S
C2390 C2389 1.369 . S
C2390 C2399 1.429 . S
C2391 C2389 1.419 . S
C2391 C2392 1.363 . S
C2391 H2394 0.929 . S
C2392 C2391 1.363 . S
C2392 C2398 1.428 . S
H2393 C2389 0.930 . S
H2394 C2391 0.929 . S
S2395 N2396 1.613 . S
S2395 N2397 1.610 . S
N2396 S2395 1.613 . S
N2396 C2399 1.350 . S
N2397 S2395 1.610 . S
N2397 C2398 1.351 . S
C2398 C2392 1.428 . S
C2398 N2397 1.351 . S
C2398 C2399 1.434 . S
C2399 C2390 1.429 . S
C2399 N2396 1.350 . S
C2399 C2398 1.434 . S
C1697 C38 1.616 . S
C1699 C197 1.613 . S
C1708 C144 1.616 . S
C1710 C91 1.614 . S
C1719 C409 1.619 . S
C1721 C250 1.618 . S
C1730 C356 1.616 . S
C1732 C303 1.619 . S
C1741 C462 1.613 . S
C1743 C621 1.616 . S
C1752 C515 1.616 . S
C1754 C568 1.614 . S
C1763 C833 1.619 . S
C1765 C674 1.617 . S
C1774 C780 1.619 . S
C1776 C727 1.618 . S
C1785 C886 1.615 . S
C1787 C1045 1.613 . S
C1796 C939 1.615 . S
C1798 C992 1.614 . S
C1807 C1098 1.619 . S
C1809 C1257 1.617 . S
C1818 C1151 1.620 . S
C1820 C1204 1.618 . S
C1829 C1310 1.616 . S
C1831 C1469 1.613 . S
C1840 C1416 1.615 . S
C1842 C1363 1.614 . S
C1851 C1681 1.617 . S
C1853 C1522 1.618 . S
C1862 C1628 1.617 . S
C1864 C1575 1.618 . S
C1873 C22 1.732 . S
C1875 C234 1.721 . S
C1884 C1559 1.726 . S
C1886 C75 1.727 . S
C1895 C128 1.731 . S
C1897 C764 1.721 . S
C1906 C1241 1.726 . S
C1908 C181 1.727 . S
C1917 C1347 1.730 . S
C1919 C287 1.722 . S
C1928 C340 1.726 . S
C1930 C552 1.727 . S
C1939 C393 1.726 . S
C1941 C1029 1.727 . S
C1950 C658 1.721 . S
C1952 C446 1.731 . S
C1961 C1135 1.725 . S
C1963 C499 1.728 . S
C1972 C605 1.732 . S
C1974 C1665 1.720 . S
C1983 C711 1.726 . S
C1985 C923 1.727 . S
C1994 C817 1.725 . S
C1996 C1453 1.727 . S
C2005 C1082 1.720 . S
C2007 C870 1.731 . S
C2016 C976 1.726 . S
C2018 C1612 1.725 . S
C2027 C1188 1.724 . S
C2029 C1400 1.728 . S
C2038 C1506 1.723 . S
C2040 C1294 1.730 . S
C2049 C39 1.466 . S
C2051 C1046 1.470 . S
C2060 C92 1.471 . S
C2062 C993 1.468 . S
C2071 C940 1.467 . S
C2073 C145 1.469 . S
C2082 C887 1.469 . S
C2084 C198 1.470 . S
C2093 C251 1.465 . S
C2095 C1258 1.465 . S
C2104 C304 1.466 . S
C2106 C1205 1.464 . S
C2115 C357 1.464 . S
C2117 C1152 1.466 . S
C2126 C1099 1.463 . S
C2128 C410 1.467 . S
C2137 C463 1.467 . S
C2139 C1470 1.468 . S
C2148 C1417 1.466 . S
C2150 C516 1.469 . S
C2159 C1364 1.468 . S
C2161 C569 1.470 . S
C2170 C622 1.467 . S
C2172 C1311 1.469 . S
C2181 C675 1.466 . S
C2183 C1682 1.464 . S
C2192 C728 1.468 . S
C2194 C1629 1.464 . S
C2203 C1576 1.464 . S
C2205 C781 1.466 . S
C2214 C834 1.464 . S
C2216 C1523 1.466 . S
C2225 C82 1.715 . S
C2227 C29 1.709 . S
C2236 C135 1.708 . S
C2238 C188 1.714 . S
C2247 C294 1.719 . S
C2249 C241 1.718 . S
C2258 C347 1.722 . S
C2260 C400 1.717 . S
C2269 C506 1.710 . S
C2271 C453 1.714 . S
C2280 C559 1.713 . S
C2282 C612 1.710 . S
C2291 C665 1.720 . S
C2293 C718 1.719 . S
C2302 C771 1.716 . S
C2304 C824 1.721 . S
C2313 C877 1.714 . S
C2315 C930 1.710 . S
C2324 C1036 1.715 . S
C2326 C983 1.709 . S
C2335 C1089 1.720 . S
C2337 C1142 1.719 . S
C2346 C1248 1.715 . S
C2348 C1195 1.721 . S
C2357 C1354 1.716 . S
C2359 C1301 1.709 . S
C2368 C1407 1.715 . S
C2370 C1460 1.709 . S
C2379 C1513 1.719 . S
C2381 C1566 1.718 . S
C2390 C1672 1.720 . S
C2392 C1619 1.718 . S
