# Generated by pormake.
# Topology wjf, (4)-cn, num edge types: 1
# Building blocks:
#     Node 0, Type 0, BuildingBlock: NAHDIM_clean_sbu_0, # of connection points: 4
#     Node 1, Type 0, BuildingBlock: NAHDIM_clean_sbu_0, # of connection points: 4
#     Node 2, Type 0, BuildingBlock: NAHDIM_clean_sbu_0, # of connection points: 4
#     Node 3, Type 0, BuildingBlock: NAHDIM_clean_sbu_0, # of connection points: 4
#     Node 4, Type 0, BuildingBlock: NAHDIM_clean_sbu_0, # of connection points: 4
#     Node 5, Type 0, BuildingBlock: NAHDIM_clean_sbu_0, # of connection points: 4
#     Node 6, Type 0, BuildingBlock: NAHDIM_clean_sbu_0, # of connection points: 4
#     Node 7, Type 0, BuildingBlock: NAHDIM_clean_sbu_0, # of connection points: 4
#     Node 8, Type 0, BuildingBlock: NAHDIM_clean_sbu_0, # of connection points: 4
#     Node 9, Type 0, BuildingBlock: NAHDIM_clean_sbu_0, # of connection points: 4
#     Node 10, Type 0, BuildingBlock: NAHDIM_clean_sbu_0, # of connection points: 4
#     Node 11, Type 0, BuildingBlock: NAHDIM_clean_sbu_0, # of connection points: 4
#     Edge 12, Type (0, 0), BuildingBlock: CIFDUS_clean_linker_0, # of connection points: 2
#     Edge 13, Type (0, 0), BuildingBlock: CIFDUS_clean_linker_0, # of connection points: 2
#     Edge 14, Type (0, 0), BuildingBlock: CIFDUS_clean_linker_0, # of connection points: 2
#     Edge 15, Type (0, 0), BuildingBlock: CIFDUS_clean_linker_0, # of connection points: 2
#     Edge 16, Type (0, 0), BuildingBlock: CIFDUS_clean_linker_0, # of connection points: 2
#     Edge 17, Type (0, 0), BuildingBlock: CIFDUS_clean_linker_0, # of connection points: 2
#     Edge 18, Type (0, 0), BuildingBlock: CIFDUS_clean_linker_0, # of connection points: 2
#     Edge 19, Type (0, 0), BuildingBlock: CIFDUS_clean_linker_0, # of connection points: 2
#     Edge 20, Type (0, 0), BuildingBlock: CIFDUS_clean_linker_0, # of connection points: 2
#     Edge 21, Type (0, 0), BuildingBlock: CIFDUS_clean_linker_0, # of connection points: 2
#     Edge 22, Type (0, 0), BuildingBlock: CIFDUS_clean_linker_0, # of connection points: 2
#     Edge 23, Type (0, 0), BuildingBlock: CIFDUS_clean_linker_0, # of connection points: 2
#     Edge 24, Type (0, 0), BuildingBlock: CIFDUS_clean_linker_0, # of connection points: 2
#     Edge 25, Type (0, 0), BuildingBlock: CIFDUS_clean_linker_0, # of connection points: 2
#     Edge 26, Type (0, 0), BuildingBlock: CIFDUS_clean_linker_0, # of connection points: 2
#     Edge 27, Type (0, 0), BuildingBlock: CIFDUS_clean_linker_0, # of connection points: 2
#     Edge 28, Type (0, 0), BuildingBlock: CIFDUS_clean_linker_0, # of connection points: 2
#     Edge 29, Type (0, 0), BuildingBlock: CIFDUS_clean_linker_0, # of connection points: 2
#     Edge 30, Type (0, 0), BuildingBlock: CIFDUS_clean_linker_0, # of connection points: 2
#     Edge 31, Type (0, 0), BuildingBlock: CIFDUS_clean_linker_0, # of connection points: 2
#     Edge 32, Type (0, 0), BuildingBlock: CIFDUS_clean_linker_0, # of connection points: 2
#     Edge 33, Type (0, 0), BuildingBlock: CIFDUS_clean_linker_0, # of connection points: 2
#     Edge 34, Type (0, 0), BuildingBlock: CIFDUS_clean_linker_0, # of connection points: 2
#     Edge 35, Type (0, 0), BuildingBlock: CIFDUS_clean_linker_0, # of connection points: 2
# Relax obj value: 0.234
# Max RMSD: 0.248
# Mean RMSD: 0.248
data_MOF--net-wjf--node1-NAHDIM_clean_sbu_0--edge1-CIFDUS_clean_linker_0
_symmetry_space_group_name_H-M    P1
_symmetry_Int_Tables_number       1
_symmetry_cell_setting            triclinic
loop_
_symmetry_equiv_pos_as_xyz
'x, y, z'
_cell_length_a     45.742617
_cell_length_b     45.639695
_cell_length_c     22.594063
_cell_angle_alpha  90.059899
_cell_angle_beta   89.973734
_cell_angle_gamma 119.91993
loop_
_atom_site_label
_atom_site_type_symbol
_atom_site_fract_x
_atom_site_fract_y
_atom_site_fract_z
_atom_type_partial_charge
C0 C 0.26261 0.36199 0.07991 0.0
O1 O 0.26012 0.33205 0.08172 0.0
O2 O 0.32071 0.35622 0.19656 0.0
Zn3 Zn 0.32708 0.37759 0.11616 0.0
O4 O 0.32645 0.34719 0.05117 0.0
C5 C 0.39718 0.4233 0.14412 0.0
O6 O 0.39084 0.40099 0.18605 0.0
O7 O 0.28999 0.38757 0.09666 0.0
C8 C 0.35205 0.34417 0.04044 0.0
O9 O 0.37786 0.35792 0.07683 0.0
C10 C 0.31428 0.32604 0.20514 0.0
O11 O 0.30921 0.30626 0.15942 0.0
O12 O 0.37314 0.41974 0.11091 0.0
C13 C 0.85444 0.30821 0.36366 0.0
O14 O 0.86987 0.32985 0.32058 0.0
O15 O 0.94615 0.32941 0.46669 0.0
Zn16 Zn 0.92156 0.33966 0.40435 0.0
O17 O 0.9351 0.3322 0.3242 0.0
C18 C 0.96464 0.41024 0.39226 0.0
O19 O 0.98129 0.39923 0.36057 0.0
O20 O 0.8714 0.30913 0.40893 0.0
C21 C 0.95186 0.31744 0.31395 0.0
O22 O 0.96253 0.30662 0.35824 0.0
C23 C 0.93365 0.30543 0.50395 0.0
O24 O 0.90124 0.28332 0.50221 0.0
O25 O 0.93634 0.38896 0.41457 0.0
C26 C 0.60238 0.88313 0.73452 0.0
O27 O 0.63154 0.91029 0.74549 0.0
O28 O 0.60663 0.9399 0.85774 0.0
Zn29 Zn 0.58565 0.92939 0.77632 0.0
O30 O 0.61663 0.96097 0.71393 0.0
C31 C 0.54341 0.95604 0.81234 0.0
O32 O 0.56587 0.9684 0.85501 0.0
O33 O 0.57551 0.88324 0.74856 0.0
C34 C 0.62133 0.99047 0.70506 0.0
O35 O 0.60875 0.00325 0.74263 0.0
C36 C 0.63597 0.96425 0.86932 0.0
O37 O 0.65543 0.9827 0.82572 0.0
O38 O 0.54499 0.93599 0.77494 0.0
C39 C 0.68707 0.55291 0.04307 0.0
O40 O 0.67479 0.548 0.09703 0.0
O41 O 0.66463 0.62268 0.08031 0.0
Zn42 Zn 0.64904 0.58866 0.01409 0.0
O43 O 0.65279 0.61057 0.93547 0.0
C44 C 0.57679 0.55776 0.01134 0.0
O45 O 0.58421 0.58377 0.97699 0.0
O46 O 0.67871 0.56811 0.00554 0.0
C47 C 0.66503 0.64196 0.92589 0.0
O48 O 0.67467 0.66317 0.97062 0.0
C49 C 0.69303 0.63583 0.10632 0.0
O50 O 0.71588 0.62838 0.0884 0.0
O51 O 0.60054 0.55371 0.03131 0.0
C52 C 0.10472 0.72873 0.42347 0.0
O53 O 0.07758 0.73159 0.42703 0.0
O54 O 0.0461 0.67759 0.55111 0.0
Zn55 Zn 0.057 0.66693 0.47019 0.0
O56 O 0.02562 0.66515 0.40605 0.0
C57 C 0.03111 0.59823 0.5079 0.0
O58 O 0.01778 0.6079 0.54969 0.0
O59 O 0.1035 0.70213 0.44356 0.0
C60 C -0.00335 0.63955 0.39761 0.0
O61 O 0.98437 0.61516 0.437 0.0
C62 C 0.01976 0.67908 0.56342 0.0
O63 O -0.00059 0.67682 0.52044 0.0
O64 O 0.05116 0.62 0.47088 0.0
C65 C 0.44811 0.1467 0.65242 0.0
O66 O 0.44238 0.12561 0.6085 0.0
O67 O 0.38169 0.07556 0.78999 0.0
Zn68 Zn 0.41115 0.08475 0.71792 0.0
O69 O 0.38376 0.06376 0.64451 0.0
C70 C 0.45285 0.06628 0.78457 0.0
O71 O 0.44821 0.08401 0.82556 0.0
O72 O 0.43845 0.13498 0.70428 0.0
C73 C 0.37518 0.03378 0.62902 0.0
O74 O 0.38299 0.01533 0.66292 0.0
C75 C 0.35768 0.0459 0.80074 0.0
O76 O 0.35031 0.02195 0.76157 0.0
O77 O 0.44052 0.0642 0.73331 0.0
C78 C 0.63247 0.75455 0.53976 0.0
O79 O 0.66182 0.75915 0.52192 0.0
O80 O 0.63887 0.70034 0.42771 0.0
Zn81 Zn 0.61918 0.69049 0.50995 0.0
O82 O 0.65082 0.69175 0.5728 0.0
C83 C 0.57823 0.6208 0.47603 0.0
O84 O 0.60006 0.6307 0.43238 0.0
O85 O 0.60687 0.72511 0.53588 0.0
C86 C 0.65573 0.66702 0.58115 0.0
O87 O 0.64483 0.64279 0.54144 0.0
C88 C 0.66668 0.70252 0.4128 0.0
O89 O 0.68639 0.7014 0.45392 0.0
O90 O 0.5797 0.64269 0.51273 0.0
C91 C 0.85242 0.53842 0.01762 0.0
O92 O 0.86923 0.53339 0.05974 0.0
O93 O 0.93793 0.60462 0.89801 0.0
Zn94 Zn 0.91746 0.56996 0.96298 0.0
O95 O 0.93696 0.58978 0.04229 0.0
C96 C 0.9582 0.5398 0.94523 0.0
O97 O 0.98152 0.57014 0.96211 0.0
O98 O 0.86752 0.55226 0.9696 0.0
C99 C 0.95526 0.621 0.05416 0.0
O100 O 0.96475 0.64341 0.01144 0.0
C101 C 0.92105 0.61328 0.86495 0.0
O102 O 0.88872 0.60084 0.87529 0.0
O103 O 0.92762 0.53291 0.94339 0.0
C104 C 0.24668 0.88287 0.23824 0.0
O105 O 0.24514 0.90941 0.21999 0.0
O106 O 0.30493 0.94292 0.13423 0.0
Zn107 Zn 0.31314 0.92999 0.21527 0.0
O108 O 0.31467 0.96006 0.28157 0.0
C109 C 0.38279 0.95744 0.19113 0.0
O110 O 0.37678 0.97847 0.16101 0.0
O111 O 0.27506 0.88411 0.23756 0.0
C112 C 0.33504 0.99136 0.28958 0.0
O113 O 0.35655 0.00916 0.24778 0.0
C114 C 0.30247 0.96861 0.12059 0.0
O115 O 0.304 0.98944 0.16217 0.0
O116 O 0.35834 0.93224 0.21644 0.0
C117 C 0.46645 0.31957 0.54516 0.0
O118 O 0.4614 0.3285 0.49258 0.0
O119 O 0.40299 0.35149 0.54817 0.0
Zn120 Zn 0.44307 0.36407 0.60042 0.0
O121 O 0.43123 0.3611 0.68615 0.0
C122 C 0.46817 0.4337 0.60297 0.0
O123 O 0.44148 0.42238 0.63718 0.0
O124 O 0.46146 0.33255 0.59108 0.0
C125 C 0.40408 0.33815 0.70909 0.0
O126 O 0.38049 0.31517 0.67508 0.0
C127 C 0.38428 0.3236 0.52203 0.0
O128 O 0.38886 0.29778 0.53145 0.0
O129 O 0.47601 0.41277 0.58133 0.0
C130 C 0.10097 0.34981 0.92155 0.0
O131 O 0.07277 0.32189 0.90915 0.0
O132 O 0.0374 0.34878 0.82299 0.0
Zn133 Zn 0.05635 0.37319 0.90001 0.0
O134 O 0.02669 0.34723 0.96807 0.0
C135 C 0.03433 0.42009 0.87124 0.0
O136 O 0.01415 0.39493 0.83657 0.0
O137 O 0.10154 0.37787 0.91784 0.0
C138 C -0.00349 0.34103 0.97359 0.0
O139 O 0.98271 0.34946 0.93083 0.0
C140 C 0.01335 0.31842 0.81885 0.0
O141 O 0.00082 0.30034 0.86704 0.0
O142 O 0.05707 0.41796 0.9002 0.0
C143 C 0.68927 0.14722 0.2446 0.0
O144 O 0.67219 0.1415 0.19509 0.0
O145 O 0.66099 0.05065 0.20558 0.0
Zn146 Zn 0.64942 0.07343 0.27044 0.0
O147 O 0.64796 0.05377 0.35018 0.0
C148 C 0.57952 0.03482 0.25243 0.0
O149 O 0.58683 0.01128 0.26658 0.0
O150 O 0.68332 0.12273 0.2786 0.0
C151 C 0.65922 0.03433 0.36429 0.0
O152 O 0.67212 0.02364 0.3234 0.0
C153 C 0.68644 0.06494 0.17154 0.0
O154 O 0.70931 0.09667 0.18099 0.0
O155 O 0.60308 0.06551 0.25174 0.0
H156 H 0.32096 0.35918 0.30835 0.0
H157 H 0.31692 0.26951 0.23679 0.0
H158 H 0.33371 0.2579 0.33261 0.0
H159 H 0.35718 0.27772 0.43227 0.0
H160 H 0.36295 0.36865 0.50159 0.0
H161 H 0.33739 0.37492 0.41144 0.0
C162 C 0.32324 0.33679 0.31387 0.0
C163 C 0.31829 0.3156 0.26519 0.0
C164 C 0.33347 0.33061 0.36867 0.0
C165 C 0.32086 0.28643 0.2734 0.0
C166 C 0.3306 0.27983 0.32816 0.0
C167 C 0.35213 0.29846 0.42819 0.0
C168 C 0.36246 0.32297 0.47319 0.0
C169 C 0.33811 0.3024 0.37552 0.0
C170 C 0.35565 0.34967 0.46727 0.0
C171 C 0.34111 0.35334 0.41565 0.0
H172 H 0.91383 0.26595 0.603 0.0
H173 H 0.00138 0.34654 0.51693 0.0
H174 H 0.03495 0.35489 0.60539 0.0
H175 H 0.03771 0.34433 0.71058 0.0
H176 H 0.95044 0.26459 0.79823 0.0
H177 H 0.91874 0.25056 0.70553 0.0
C178 C 0.94038 0.28493 0.60326 0.0
C179 C 0.95485 0.30601 0.55382 0.0
C180 C 0.95958 0.28997 0.65471 0.0
C181 C 0.98941 0.33028 0.55468 0.0
C182 C 0.00869 0.33514 0.6053 0.0
C183 C 0.0119 0.32355 0.70923 0.0
C184 C -0.00372 0.30592 0.76132 0.0
C185 C 0.99374 0.31594 0.65615 0.0
C186 C 0.96301 0.2787 0.75873 0.0
C187 C 0.9448 0.27077 0.70581 0.0
H188 H 0.69136 0.0212 0.90965 0.0
H189 H 0.60165 0.9315 0.96911 0.0
H190 H 0.61198 0.95323 0.07004 0.0
H191 H 0.64241 0.00033 0.1387 0.0
H192 H 0.73098 0.09107 0.07921 0.0
H193 H 0.72543 0.066 0.98136 0.0
C194 C 0.67437 0.00613 0.94482 0.0
C195 C 0.64551 0.97497 0.93156 0.0
C196 C 0.68009 0.01906 0.00277 0.0
C197 C 0.62388 0.95572 0.97784 0.0
C198 C 0.62971 0.96815 0.03565 0.0
C199 C 0.66084 0.0145 0.10466 0.0
C200 C 0.68676 0.04775 0.11608 0.0
C201 C 0.65711 0.00023 0.04822 0.0
C202 C 0.71061 0.06553 0.07158 0.0
C203 C 0.70738 0.05126 0.01547 0.0
H204 H 0.65612 0.66357 0.14466 0.0
H205 H 0.74112 0.6518 0.19172 0.0
H206 H 0.74328 0.67581 0.28949 0.0
H207 H 0.71642 0.69334 0.36537 0.0
H208 H 0.6306 0.70375 0.3178 0.0
H209 H 0.63374 0.68752 0.21632 0.0
C210 C 0.67542 0.66665 0.17602 0.0
C211 C 0.69805 0.65539 0.16131 0.0
C212 C 0.67624 0.68004 0.23226 0.0
C213 C 0.72325 0.66008 0.20204 0.0
C214 C 0.72441 0.67367 0.25809 0.0
C215 C 0.6988 0.69269 0.33258 0.0
C216 C 0.67297 0.69922 0.34952 0.0
C217 C 0.70035 0.68275 0.27429 0.0
C218 C 0.65051 0.69848 0.30625 0.0
C219 C 0.65219 0.68909 0.24815 0.0
H220 H 0.9868 0.64282 0.83168 0.0
H221 H 0.88992 0.62704 0.77461 0.0
H222 H 0.91339 0.65049 0.67758 0.0
H223 H 0.95942 0.6686 0.60539 0.0
H224 H 0.05569 0.68256 0.6622 0.0
H225 H 0.03452 0.66715 0.76297 0.0
C226 C 0.97089 0.64493 0.79834 0.0
C227 C 0.93651 0.63264 0.81012 0.0
C228 C 0.98438 0.65791 0.74235 0.0
C229 C 0.91641 0.63602 0.76663 0.0
C230 C 0.92978 0.64934 0.71099 0.0
C231 C 0.97599 0.6689 0.64 0.0
C232 C 0.00893 0.67622 0.62595 0.0
C233 C 0.96345 0.65933 0.69777 0.0
C234 C 0.0301 0.67668 0.67153 0.0
C235 C 0.01799 0.66776 0.72923 0.0
H236 H 0.32518 0.03093 0.07299 0.0
H237 H 0.28187 0.92559 0.02682 0.0
H238 H 0.29102 0.94027 0.92199 0.0
H239 H 0.31739 0.98318 0.84509 0.0
H240 H 0.3648 0.08893 0.89127 0.0
H241 H 0.34755 0.07394 0.99432 0.0
C242 C 0.31713 0.01118 0.03986 0.0
C243 C 0.30308 0.97726 0.05752 0.0
C244 C 0.3235 0.0199 0.97974 0.0
C245 C 0.29299 0.95191 0.01424 0.0
C246 C 0.29826 0.96028 0.95433 0.0
C247 C 0.32348 0.003 0.87741 0.0
C248 C 0.34264 0.03712 0.8606 0.0
C249 C 0.31445 0.99424 0.93676 0.0
C250 C 0.35027 0.06245 0.90313 0.0
C251 C 0.34051 0.0539 0.96211 0.0
H252 H 0.15818 0.40015 0.97292 0.0
H253 H 0.10878 0.29461 0.92413 0.0
H254 H 0.15402 0.28917 0.96981 0.0
H255 H 0.20669 0.31367 0.02519 0.0
H256 H 0.25703 0.41909 0.07445 0.0
H257 H 0.21215 0.42518 0.02738 0.0
C258 C 0.15749 0.37605 0.97184 0.0
C259 C 0.13009 0.34783 0.94517 0.0
C260 C 0.18354 0.37296 -0.00123 0.0
C261 C 0.1295 0.31674 0.94444 0.0
C262 C 0.15533 0.31355 0.97069 0.0
C263 C 0.20786 0.338 0.02596 0.0
C264 C 0.23509 0.36583 0.05362 0.0
C265 C 0.18226 0.34137 -0.00155 0.0
C266 C 0.23628 0.39721 0.05365 0.0
C267 C 0.21067 0.40073 0.02659 0.0
H268 H 0.81536 0.29363 0.26513 0.0
H269 H 0.81622 0.25762 0.44149 0.0
H270 H 0.76358 0.20556 0.42105 0.0
H271 H 0.72056 0.16821 0.35049 0.0
H272 H 0.71991 0.20319 0.17334 0.0
H273 H 0.76924 0.25791 0.19693 0.0
C274 C 0.8038 0.27464 0.29946 0.0
C275 C 0.81995 0.2794 0.35458 0.0
C276 C 0.7738 0.24446 0.28707 0.0
C277 C 0.80448 0.25456 0.39858 0.0
C278 C 0.77443 0.2247 0.38686 0.0
C279 C 0.73104 0.18786 0.31705 0.0
C280 C 0.71687 0.18148 0.25995 0.0
C281 C 0.75943 0.21903 0.33078 0.0
C282 C 0.73044 0.20739 0.21752 0.0
C283 C 0.75869 0.23865 0.23096 0.0
H284 H 0.65363 0.88454 0.67345 0.0
H285 H 0.5489 0.81888 0.71776 0.0
H286 H 0.54831 0.77333 0.65903 0.0
H287 H 0.57829 0.75214 0.59641 0.0
H288 H 0.68283 0.81954 0.55184 0.0
H289 H 0.68252 0.86456 0.60892 0.0
C290 C 0.63064 0.86022 0.67065 0.0
C291 C 0.60145 0.85498 0.70047 0.0
C292 C 0.63039 0.83454 0.63636 0.0
C293 C 0.57178 0.82348 0.69546 0.0
C294 C 0.57142 0.79749 0.6618 0.0
C295 C 0.60089 0.77677 0.59878 0.0
C296 C 0.63058 0.78235 0.57001 0.0
C297 C 0.60065 0.80274 0.63208 0.0
C298 C 0.65965 0.81443 0.5736 0.0
C299 C 0.65957 0.84024 0.60641 0.0
H300 H 0.71991 0.53084 0.11564 0.0
H301 H 0.71459 0.55757 0.93422 0.0
H302 H 0.76345 0.55225 0.90917 0.0
H303 H 0.81088 0.54546 0.94036 0.0
H304 H 0.81726 0.51954 0.12173 0.0
H305 H 0.76467 0.51865 0.14478 0.0
C306 C 0.72914 0.53503 0.07048 0.0
C307 C 0.71382 0.54504 0.02718 0.0
C308 C 0.75763 0.53228 0.05629 0.0
C309 C 0.72606 0.5502 0.96872 0.0
C310 C 0.75408 0.54719 0.95424 0.0
C311 C 0.80058 0.53919 0.98478 0.0
C312 C 0.81822 0.53299 0.02934 0.0
C313 C 0.77057 0.53912 -0.00205 0.0
C314 C 0.80431 0.5246 0.08655 0.0
C315 C 0.77427 0.5242 0.09989 0.0
H316 H 0.10872 0.77937 0.35609 0.0
H317 H 0.16807 0.73611 0.41861 0.0
H318 H 0.21711 0.77905 0.3641 0.0
H319 H 0.24326 0.82978 0.30026 0.0
H320 H 0.1826 0.87178 0.2381 0.0
H321 H 0.13381 0.82807 0.29042 0.0
C322 C 0.13239 0.77933 0.35811 0.0
C323 C 0.13482 0.75477 0.39181 0.0
C324 C 0.1602 0.80373 0.32635 0.0
C325 C 0.16559 0.75486 0.39319 0.0
C326 C 0.1936 0.77935 0.36195 0.0
C327 C 0.21928 0.82913 0.2977 0.0
C328 C 0.21666 0.85412 0.26543 0.0
C329 C 0.1912 0.80398 0.32843 0.0
C330 C 0.18541 0.85298 0.26272 0.0
C331 C 0.15746 0.82803 0.29279 0.0
H332 H 0.45585 0.17697 0.54518 0.0
H333 H 0.46775 0.19772 0.73285 0.0
H334 H 0.47928 0.25517 0.71464 0.0
H335 H 0.47903 0.29677 0.64724 0.0
H336 H 0.46408 0.27548 0.46001 0.0
H337 H 0.46138 0.2212 0.4762 0.0
C338 C 0.46155 0.19423 0.58204 0.0
C339 C 0.46049 0.18289 0.64039 0.0
C340 C 0.46739 0.22705 0.57138 0.0
C341 C 0.46804 0.20565 0.68758 0.0
C342 C 0.47459 0.23852 0.67722 0.0
C343 C 0.47566 0.28053 0.60971 0.0
C344 C 0.47124 0.28999 0.55258 0.0
C345 C 0.47323 0.24908 0.61954 0.0
C346 C 0.46737 0.26878 0.50449 0.0
C347 C 0.46563 0.23763 0.51378 0.0
H348 H 0.34531 0.30685 0.77134 0.0
H349 H 0.45322 0.36839 0.79192 0.0
H350 H 0.4466 0.37119 0.89838 0.0
H351 H 0.41023 0.3608 0.98391 0.0
H352 H 0.30212 0.30347 0.96342 0.0
H353 H 0.30871 0.29373 0.85895 0.0
C354 C 0.36734 0.32054 0.7993 0.0
C355 C 0.39964 0.33764 0.7738 0.0
C356 C 0.36332 0.32275 0.86049 0.0
C357 C 0.42801 0.35537 0.81043 0.0
C358 C 0.42429 0.3569 0.87135 0.0
C359 C 0.3881 0.34553 0.95696 0.0
C360 C 0.35576 0.33288 0.98119 0.0
C361 C 0.39207 0.3413 0.89665 0.0
C362 C 0.32731 0.31351 0.94556 0.0
C363 C 0.33106 0.3081 0.88582 0.0
H364 H 0.92186 0.32257 0.21472 0.0
H365 H 0.00157 0.30544 0.27535 0.0
H366 H 0.02015 0.30729 0.17321 0.0
H367 H 0.0172 0.31971 0.06849 0.0
H368 H 0.93781 0.33763 0.00862 0.0
H369 H 0.91525 0.32891 0.10891 0.0
C370 C 0.94316 0.31899 0.20555 0.0
C371 C 0.96073 0.31449 0.25242 0.0
C372 C 0.95374 0.32026 0.14703 0.0
C373 C 0.98781 0.30918 0.23994 0.0
C374 C -0.00152 0.31032 0.18163 0.0
C375 C 0.99468 0.32125 0.07719 0.0
C376 C 0.97952 0.32985 0.03139 0.0
C377 C 0.98215 0.31672 0.13506 0.0
C378 C 0.9501 0.33127 0.04316 0.0
C379 C 0.93727 0.32647 0.10055 0.0
H380 H 0.64412 0.96777 0.61467 0.0
H381 H 0.62766 0.04978 0.66493 0.0
H382 H 0.63986 0.07152 0.56399 0.0
H383 H 0.6498 0.06421 0.46009 0.0
H384 H 0.66566 0.98206 0.40882 0.0
H385 H 0.65902 0.96334 0.51192 0.0
C386 C 0.64367 0.99069 0.60383 0.0
C387 C 0.63457 0.00689 0.6472 0.0
C388 C 0.65013 0.00273 0.54546 0.0
C389 C 0.6344 0.0367 0.63242 0.0
C390 C 0.64119 0.04906 0.57461 0.0
C391 C 0.65192 0.04225 0.47142 0.0
C392 C 0.65767 0.0242 0.42679 0.0
C393 C 0.64811 0.03172 0.53051 0.0
C394 C 0.66102 0.99623 0.44235 0.0
C395 C 0.65721 0.98553 0.50123 0.0
H396 H 0.67027 0.70743 0.67817 0.0
H397 H 0.66197 0.61359 0.61865 0.0
H398 H 0.66592 0.59849 0.72062 0.0
H399 H 0.66562 0.60907 0.82672 0.0
H400 H 0.67335 0.70242 0.88708 0.0
H401 H 0.67561 0.72055 0.78444 0.0
C402 C 0.66993 0.68394 0.68732 0.0
C403 C 0.66536 0.66146 0.6408 0.0
C404 C 0.67151 0.67506 0.7462 0.0
C405 C 0.66524 0.63127 0.65354 0.0
C406 C 0.66727 0.62249 0.71191 0.0
C407 C 0.66791 0.63345 0.81746 0.0
C408 C 0.66871 0.65414 0.86433 0.0
C409 C 0.66929 0.64368 0.75859 0.0
C410 C 0.67241 0.68594 0.85171 0.0
C411 C 0.67371 0.6963 0.79307 0.0
H412 H 0.01926 0.68184 0.30265 0.0
H413 H 0.93847 0.58459 0.35968 0.0
H414 H 0.91777 0.57103 0.25825 0.0
H415 H 0.92562 0.58456 0.15264 0.0
H416 H 0.00635 0.68148 0.09478 0.0
H417 H 0.02414 0.69738 0.19756 0.0
C418 C -0.00319 0.65788 0.29312 0.0
C419 C 0.98068 0.6341 0.33867 0.0
C420 C 0.98535 0.64998 0.23451 0.0
C421 C 0.95149 0.60329 0.32551 0.0
C422 C 0.93974 0.59541 0.26743 0.0
C423 C 0.94709 0.60921 0.16248 0.0
C424 C 0.96501 0.63162 0.11617 0.0
C425 C 0.95703 0.61817 0.22145 0.0
C426 C 0.9923 0.66371 0.12967 0.0
C427 C 0.00247 0.67279 0.18839 0.0
H428 H 0.31362 0.9562 0.39166 0.0
H429 H 0.36664 0.0579 0.32281 0.0
H430 H 0.3804 0.08035 0.42373 0.0
H431 H 0.38229 0.07053 0.53045 0.0
H432 H 0.3342 0.96836 0.5969 0.0
H433 H 0.31334 0.9465 0.49774 0.0
C434 C 0.32767 0.98333 0.39863 0.0
C435 C 0.33914 0.00539 0.34986 0.0
C436 C 0.33663 0.99587 0.4563 0.0
C437 C 0.35762 0.04043 0.3597 0.0
C438 C 0.36557 0.05324 0.41731 0.0
C439 C 0.36678 0.04352 0.52326 0.0
C440 C 0.35975 0.02101 0.57065 0.0
C441 C 0.35596 0.03113 0.46582 0.0
C442 C 0.34003 0.98608 0.56087 0.0
C443 C 0.32812 0.97361 0.50429 0.0
H444 H 0.41979 0.46972 0.05488 0.0
H445 H 0.45428 0.43376 0.20076 0.0
H446 H 0.51271 0.47155 0.17193 0.0
H447 H 0.55414 0.51364 0.10365 0.0
H448 H 0.51985 0.55055 0.95905 0.0
H449 H 0.46133 0.51341 0.98881 0.0
C450 C 0.44007 0.47035 0.08072 0.0
C451 C 0.43255 0.44881 0.12985 0.0
C452 C 0.47372 0.49208 0.06376 0.0
C453 C 0.45924 0.45002 0.16275 0.0
C454 C 0.49272 0.47154 0.14616 0.0
C455 C 0.53385 0.51345 0.0785 0.0
C456 C 0.54136 0.53464 0.02893 0.0
C457 C 0.50026 0.49239 0.09635 0.0
C458 C 0.51478 0.53443 -0.00268 0.0
C459 C 0.48129 0.51323 0.01434 0.0
H460 H 0.04749 0.56892 0.41848 0.0
H461 H 0.98437 0.54538 0.57342 0.0
H462 H 0.95745 0.48529 0.55024 0.0
H463 H 0.95046 0.43941 0.48435 0.0
H464 H 0.01447 0.46268 0.33091 0.0
H465 H 0.0421 0.52286 0.35482 0.0
C466 C 0.0281 0.55065 0.44755 0.0
C467 C 0.01794 0.56173 0.4975 0.0
C468 C 0.01252 0.51607 0.43381 0.0
C469 C 0.99274 0.53763 0.53465 0.0
C470 C 0.97716 0.50322 0.52129 0.0
C471 C 0.97029 0.45769 0.45594 0.0
C472 C 0.98018 0.44667 0.40564 0.0
C473 C 0.98651 0.49218 0.47056 0.0
C474 C 0.00632 0.47057 0.3698 0.0
C475 C 0.0222 0.50497 0.38351 0.0
H476 H 0.53647 0.00084 0.88142 0.0
H477 H 0.50056 0.94394 0.719 0.0
H478 H 0.46939 0.97311 0.696 0.0
H479 H 0.45457 0.01678 0.71976 0.0
H480 H 0.49063 0.07339 0.88245 0.0
H481 H 0.51974 0.04248 0.90723 0.0
C482 C 0.52158 0.99452 0.84122 0.0
C483 C 0.521 0.9703 0.80192 0.0
C484 C 0.50407 0.01166 0.82792 0.0
C485 C 0.50144 0.96242 0.75014 0.0
C486 C 0.48376 0.97925 0.73675 0.0
C487 C 0.46889 0.02242 0.76055 0.0
C488 C 0.47068 0.04761 0.79891 0.0
C489 C 0.48536 0.00432 0.77485 0.0
C490 C 0.48894 0.05426 0.85199 0.0
C491 C 0.50556 0.03655 0.86628 0.0
H492 H 0.53593 0.59141 0.56954 0.0
H493 H 0.57303 0.56797 0.41105 0.0
H494 H 0.54326 0.50818 0.4372 0.0
H495 H 0.50805 0.46258 0.50669 0.0
H496 H 0.4699 0.48593 0.66375 0.0
H497 H 0.49901 0.54567 0.63685 0.0
C498 C 0.53724 0.57321 0.54036 0.0
C499 C 0.55679 0.58425 0.4885 0.0
C500 C 0.52022 0.53884 0.5558 0.0
C501 C 0.55818 0.56025 0.45127 0.0
C502 C 0.5413 0.52601 0.46632 0.0
C503 C 0.50633 0.48082 0.53517 0.0
C504 C 0.48713 0.46993 0.58736 0.0
C505 C 0.52263 0.51507 0.51888 0.0
C506 C 0.48463 0.49372 0.62338 0.0
C507 C 0.50119 0.52787 0.60798 0.0
H508 H 0.01908 0.54335 0.95817 0.0
H509 H 0.91859 0.47949 0.88974 0.0
H510 H 0.93425 0.43816 0.85721 0.0
H511 H 0.97582 0.4195 0.85021 0.0
H512 H 0.0755 0.48156 0.92286 0.0
H513 H 0.0609 0.5245 0.95115 0.0
C514 C 0.0006 0.52041 0.93608 0.0
C515 C 0.96768 0.51453 0.92649 0.0
C516 C 0.00968 0.49654 0.91798 0.0
C517 C 0.94404 0.4846 0.89798 0.0
C518 C 0.953 0.46099 0.87916 0.0
C519 C 0.99454 0.44259 0.8716 0.0
C520 C 0.0268 0.44744 0.88406 0.0
C521 C 0.98569 0.46666 0.88906 0.0
C522 C 0.05053 0.47728 0.91265 0.0
C523 C 0.04215 0.50176 0.92897 0.0
H524 H 0.52316 0.97321 0.2634 0.0
H525 H 0.55735 0.07535 0.2052 0.0
H526 H 0.49971 0.05969 0.1779 0.0
H527 H 0.43962 0.01746 0.17256 0.0
H528 H 0.40487 0.91592 0.23455 0.0
H529 H 0.4629 0.93085 0.25789 0.0
C530 C 0.51804 0.99206 0.24465 0.0
C531 C 0.54455 0.02543 0.23641 0.0
C532 C 0.4848 0.98296 0.22955 0.0
C533 C 0.53742 0.04954 0.21226 0.0
C534 C 0.50447 0.04058 0.19648 0.0
C535 C 0.44473 -0.00154 0.19064 0.0
C536 C 0.41797 0.96557 0.20156 0.0
C537 C 0.47798 0.00741 0.20509 0.0
C538 C 0.42502 0.9414 0.22569 0.0
C539 C 0.45817 0.94995 0.23914 0.0
loop_
_geom_bond_atom_site_label_1
_geom_bond_atom_site_label_2
_geom_bond_distance
_geom_bond_site_symmetry_2
_ccdc_geom_bond_type
C0 O1 1.160 . S
C0 O7 1.185 . S
O1 C0 1.160 . S
O2 Zn3 1.899 . S
O2 C10 1.284 . S
Zn3 O2 1.899 . S
Zn3 O4 2.037 . S
Zn3 O7 2.086 . S
Zn3 O12 1.977 . S
O4 Zn3 2.037 . S
O4 C8 1.274 1_554 S
C5 O6 1.203 . S
C5 O12 1.267 . S
O6 C5 1.203 . S
O7 C0 1.185 . S
O7 Zn3 2.086 . S
C8 O4 1.274 1_556 S
C8 O9 1.211 . S
O9 C8 1.211 . S
C10 O2 1.284 . S
C10 O11 1.273 . S
O11 C10 1.273 . S
O12 Zn3 1.977 . S
O12 C5 1.267 . S
C13 O14 1.160 . S
C13 O20 1.185 . S
O14 C13 1.160 . S
O15 Zn16 1.899 . S
O15 C23 1.284 . S
Zn16 O15 1.899 . S
Zn16 O17 2.032 . S
Zn16 O20 2.086 . S
Zn16 O25 1.977 . S
O17 Zn16 2.032 . S
O17 C21 1.278 . S
C18 O19 1.203 . S
C18 O25 1.267 . S
O19 C18 1.203 . S
O20 C13 1.185 . S
O20 Zn16 2.086 . S
C21 O17 1.278 . S
C21 O22 1.211 1_655 S
O22 C21 1.211 1_455 S
C23 O15 1.284 . S
C23 O24 1.273 1_655 S
O24 C23 1.273 1_455 S
O25 Zn16 1.977 . S
O25 C18 1.267 . S
C26 O27 1.160 . S
C26 O33 1.185 . S
O27 C26 1.160 . S
O28 Zn29 1.899 . S
O28 C36 1.284 . S
Zn29 O28 1.899 . S
Zn29 O30 2.032 . S
Zn29 O33 2.086 . S
Zn29 O38 1.977 . S
O30 Zn29 2.032 . S
O30 C34 1.278 . S
C31 O32 1.203 . S
C31 O38 1.267 . S
O32 C31 1.203 . S
O33 C26 1.185 . S
O33 Zn29 2.086 . S
C34 O30 1.278 . S
C34 O35 1.211 1_565 S
O35 C34 1.211 1_545 S
C36 O28 1.284 . S
C36 O37 1.273 1_565 S
O37 C36 1.273 1_545 S
O38 Zn29 1.977 . S
O38 C31 1.267 . S
C39 O40 1.160 . S
C39 O46 1.185 . S
O40 C39 1.160 . S
O41 Zn42 1.899 . S
O41 C49 1.284 . S
Zn42 O41 1.899 . S
Zn42 O43 2.037 . S
Zn42 O46 2.086 . S
Zn42 O51 1.977 . S
O43 Zn42 2.037 . S
O43 C47 1.274 1_554 S
C44 O45 1.203 . S
C44 O51 1.267 . S
O45 C44 1.203 . S
O46 C39 1.185 . S
O46 Zn42 2.086 . S
C47 O43 1.274 1_556 S
C47 O48 1.211 . S
O48 C47 1.211 . S
C49 O41 1.284 . S
C49 O50 1.273 . S
O50 C49 1.273 . S
O51 Zn42 1.977 . S
O51 C44 1.267 . S
C52 O53 1.160 . S
C52 O59 1.185 . S
O53 C52 1.160 . S
O54 Zn55 1.899 . S
O54 C62 1.284 . S
Zn55 O54 1.899 . S
Zn55 O56 2.032 . S
Zn55 O59 2.086 . S
Zn55 O64 1.977 . S
O56 Zn55 2.032 . S
O56 C60 1.278 . S
C57 O58 1.203 . S
C57 O64 1.267 . S
O58 C57 1.203 . S
O59 C52 1.185 . S
O59 Zn55 2.086 . S
C60 O56 1.278 . S
C60 O61 1.211 1_455 S
O61 C60 1.211 1_655 S
C62 O54 1.284 . S
C62 O63 1.273 1_455 S
O63 C62 1.273 1_655 S
O64 Zn55 1.977 . S
O64 C57 1.267 . S
C65 O66 1.160 . S
C65 O72 1.185 . S
O66 C65 1.160 . S
O67 Zn68 1.899 . S
O67 C75 1.284 . S
Zn68 O67 1.899 . S
Zn68 O69 2.032 . S
Zn68 O72 2.086 . S
Zn68 O77 1.977 . S
O69 Zn68 2.032 . S
O69 C73 1.278 . S
C70 O71 1.203 . S
C70 O77 1.267 . S
O71 C70 1.203 . S
O72 C65 1.185 . S
O72 Zn68 2.086 . S
C73 O69 1.278 . S
C73 O74 1.211 1_545 S
O74 C73 1.211 1_565 S
C75 O67 1.284 . S
C75 O76 1.273 1_545 S
O76 C75 1.273 1_565 S
O77 Zn68 1.977 . S
O77 C70 1.267 . S
C78 O79 1.160 . S
C78 O85 1.185 . S
O79 C78 1.160 . S
O80 Zn81 1.899 . S
O80 C88 1.284 . S
Zn81 O80 1.899 . S
Zn81 O82 2.032 . S
Zn81 O85 2.086 . S
Zn81 O90 1.977 . S
O82 Zn81 2.032 . S
O82 C86 1.278 . S
C83 O84 1.203 . S
C83 O90 1.267 . S
O84 C83 1.203 . S
O85 C78 1.185 . S
O85 Zn81 2.086 . S
C86 O82 1.278 . S
C86 O87 1.211 . S
O87 C86 1.211 . S
C88 O80 1.284 . S
C88 O89 1.273 . S
O89 C88 1.273 . S
O90 Zn81 1.977 . S
O90 C83 1.267 . S
C91 O92 1.160 . S
C91 O98 1.185 . S
O92 C91 1.160 . S
O93 Zn94 1.899 . S
O93 C101 1.284 . S
Zn94 O93 1.899 . S
Zn94 O95 2.037 . S
Zn94 O98 2.086 . S
Zn94 O103 1.977 . S
O95 Zn94 2.037 . S
O95 C99 1.274 1_556 S
C96 O97 1.203 . S
C96 O103 1.267 . S
O97 C96 1.203 . S
O98 C91 1.185 . S
O98 Zn94 2.086 . S
C99 O95 1.274 1_554 S
C99 O100 1.211 1_655 S
O100 C99 1.211 1_455 S
C101 O93 1.284 . S
C101 O102 1.273 1_655 S
O102 C101 1.273 1_455 S
O103 Zn94 1.977 . S
O103 C96 1.267 . S
C104 O105 1.160 . S
C104 O111 1.185 . S
O105 C104 1.160 . S
O106 Zn107 1.899 . S
O106 C114 1.284 . S
Zn107 O106 1.899 . S
Zn107 O108 2.032 . S
Zn107 O111 2.086 . S
Zn107 O116 1.977 . S
O108 Zn107 2.032 . S
O108 C112 1.278 . S
C109 O110 1.203 . S
C109 O116 1.267 . S
O110 C109 1.203 . S
O111 C104 1.185 . S
O111 Zn107 2.086 . S
C112 O108 1.278 . S
C112 O113 1.211 1_565 S
O113 C112 1.211 1_545 S
C114 O106 1.284 . S
C114 O115 1.273 1_565 S
O115 C114 1.273 1_545 S
O116 Zn107 1.977 . S
O116 C109 1.267 . S
C117 O118 1.160 . S
C117 O124 1.185 . S
O118 C117 1.160 . S
O119 Zn120 1.899 . S
O119 C127 1.284 . S
Zn120 O119 1.899 . S
Zn120 O121 2.032 . S
Zn120 O124 2.086 . S
Zn120 O129 1.977 . S
O121 Zn120 2.032 . S
O121 C125 1.278 . S
C122 O123 1.203 . S
C122 O129 1.267 . S
O123 C122 1.203 . S
O124 C117 1.185 . S
O124 Zn120 2.086 . S
C125 O121 1.278 . S
C125 O126 1.211 . S
O126 C125 1.211 . S
C127 O119 1.284 . S
C127 O128 1.273 . S
O128 C127 1.273 . S
O129 Zn120 1.977 . S
O129 C122 1.267 . S
C130 O131 1.160 . S
C130 O137 1.185 . S
O131 C130 1.160 . S
O132 Zn133 1.899 . S
O132 C140 1.284 . S
Zn133 O132 1.899 . S
Zn133 O134 2.037 . S
Zn133 O137 2.086 . S
Zn133 O142 1.977 . S
O134 Zn133 2.037 . S
O134 C138 1.274 1_556 S
C135 O136 1.203 . S
C135 O142 1.267 . S
O136 C135 1.203 . S
O137 C130 1.185 . S
O137 Zn133 2.086 . S
C138 O134 1.274 1_554 S
C138 O139 1.211 1_455 S
O139 C138 1.211 1_655 S
C140 O132 1.284 . S
C140 O141 1.273 1_455 S
O141 C140 1.273 1_655 S
O142 Zn133 1.977 . S
O142 C135 1.267 . S
C143 O144 1.160 . S
C143 O150 1.185 . S
O144 C143 1.160 . S
O145 Zn146 1.899 . S
O145 C153 1.284 . S
Zn146 O145 1.899 . S
Zn146 O147 2.032 . S
Zn146 O150 2.086 . S
Zn146 O155 1.977 . S
O147 Zn146 2.032 . S
O147 C151 1.278 . S
C148 O149 1.203 . S
C148 O155 1.267 . S
O149 C148 1.203 . S
O150 C143 1.185 . S
O150 Zn146 2.086 . S
C151 O147 1.278 . S
C151 O152 1.211 1_545 S
O152 C151 1.211 1_565 S
C153 O145 1.284 . S
C153 O154 1.273 1_545 S
O154 C153 1.273 1_565 S
O155 Zn146 1.977 . S
O155 C148 1.267 . S
H156 C162 0.930 . S
H157 C165 0.930 . S
H158 C166 0.930 . S
H159 C167 0.930 . S
H160 C170 0.930 . S
H161 C171 0.930 . S
C162 H156 0.930 . S
C162 C163 1.355 . S
C162 C164 1.415 . S
C163 C162 1.355 . S
C163 C165 1.419 . S
C164 C162 1.415 . S
C164 C169 1.425 . S
C164 C171 1.409 . S
C165 H157 0.930 . S
C165 C163 1.419 . S
C165 C166 1.362 . S
C166 H158 0.930 . S
C166 C165 1.362 . S
C166 C169 1.409 . S
C167 H159 0.930 . S
C167 C168 1.355 . S
C167 C169 1.415 . S
C168 C167 1.355 . S
C168 C170 1.419 . S
C169 C164 1.425 . S
C169 C166 1.409 . S
C169 C167 1.415 . S
C170 H160 0.930 . S
C170 C168 1.419 . S
C170 C171 1.362 . S
C171 H161 0.930 . S
C171 C164 1.409 . S
C171 C170 1.362 . S
H172 C178 0.930 . S
H173 C181 0.930 . S
H174 C182 0.930 . S
H175 C183 0.930 . S
H176 C186 0.930 . S
H177 C187 0.930 . S
C178 H172 0.930 . S
C178 C179 1.355 . S
C178 C180 1.415 . S
C179 C178 1.355 . S
C179 C181 1.419 1_655 S
C180 C178 1.415 . S
C180 C185 1.425 1_655 S
C180 C187 1.409 . S
C181 H173 0.930 . S
C181 C179 1.419 1_455 S
C181 C182 1.362 . S
C182 H174 0.930 . S
C182 C181 1.362 . S
C182 C185 1.409 . S
C183 H175 0.930 . S
C183 C184 1.355 . S
C183 C185 1.415 . S
C184 C183 1.355 . S
C184 C186 1.419 1_455 S
C185 C180 1.425 1_455 S
C185 C182 1.409 . S
C185 C183 1.415 . S
C186 H176 0.930 . S
C186 C184 1.419 1_655 S
C186 C187 1.362 . S
C187 H177 0.930 . S
C187 C180 1.409 . S
C187 C186 1.362 . S
H188 C194 0.930 . S
H189 C197 0.948 . S
H190 C198 0.930 . S
H191 C199 0.930 . S
H192 C202 0.948 . S
H193 C203 0.930 . S
C194 H188 0.930 . S
C194 C195 1.355 . S
C194 C196 1.415 . S
C195 C194 1.355 . S
C195 C197 1.393 1_565 S
C196 C194 1.415 . S
C196 C201 1.425 1_566 S
C196 C203 1.409 1_556 S
C197 H189 0.948 . S
C197 C195 1.393 1_545 S
C197 C198 1.371 . S
C198 H190 0.930 . S
C198 C197 1.371 . S
C198 C201 1.409 1_556 S
C199 H191 0.930 . S
C199 C200 1.355 . S
C199 C201 1.415 . S
C200 C199 1.355 . S
C200 C202 1.393 1_545 S
C201 C196 1.425 1_544 S
C201 C198 1.409 1_554 S
C201 C199 1.415 . S
C202 H192 0.948 . S
C202 C200 1.393 1_565 S
C202 C203 1.371 . S
C203 H193 0.930 . S
C203 C196 1.409 1_554 S
C203 C202 1.371 . S
H204 C210 0.930 . S
H205 C213 0.930 . S
H206 C214 0.930 . S
H207 C215 0.930 . S
H208 C218 0.930 . S
H209 C219 0.930 . S
C210 H204 0.930 . S
C210 C211 1.355 . S
C210 C212 1.415 . S
C211 C210 1.355 . S
C211 C213 1.419 . S
C212 C210 1.415 . S
C212 C217 1.425 . S
C212 C219 1.409 . S
C213 H205 0.930 . S
C213 C211 1.419 . S
C213 C214 1.362 . S
C214 H206 0.930 . S
C214 C213 1.362 . S
C214 C217 1.409 . S
C215 H207 0.930 . S
C215 C216 1.355 . S
C215 C217 1.415 . S
C216 C215 1.355 . S
C216 C218 1.419 . S
C217 C212 1.425 . S
C217 C214 1.409 . S
C217 C215 1.415 . S
C218 H208 0.930 . S
C218 C216 1.419 . S
C218 C219 1.362 . S
C219 H209 0.930 . S
C219 C212 1.409 . S
C219 C218 1.362 . S
H220 C226 0.930 . S
H221 C229 0.930 . S
H222 C230 0.930 . S
H223 C231 0.930 . S
H224 C234 0.930 . S
H225 C235 0.930 . S
C226 H220 0.930 . S
C226 C227 1.355 1_455 S
C226 C228 1.415 . S
C227 C226 1.355 1_655 S
C227 C229 1.419 . S
C228 C226 1.415 . S
C228 C233 1.425 1_455 S
C228 C235 1.409 . S
C229 H221 0.930 . S
C229 C227 1.419 . S
C229 C230 1.362 . S
C230 H222 0.930 . S
C230 C229 1.362 . S
C230 C233 1.409 . S
C231 H223 0.930 . S
C231 C232 1.355 1_655 S
C231 C233 1.415 . S
C232 C231 1.355 1_455 S
C232 C234 1.419 . S
C233 C228 1.425 1_655 S
C233 C230 1.409 . S
C233 C231 1.415 . S
C234 H224 0.930 . S
C234 C232 1.419 . S
C234 C235 1.362 . S
C235 H225 0.930 . S
C235 C228 1.409 . S
C235 C234 1.362 . S
H236 C242 0.930 . S
H237 C245 0.930 . S
H238 C246 0.930 . S
H239 C247 0.930 . S
H240 C250 0.930 . S
H241 C251 0.930 . S
C242 H236 0.930 . S
C242 C243 1.355 1_545 S
C242 C244 1.415 . S
C243 C242 1.355 1_565 S
C243 C245 1.419 . S
C244 C242 1.415 . S
C244 C249 1.425 1_544 S
C244 C251 1.409 1_554 S
C245 H237 0.930 . S
C245 C243 1.419 . S
C245 C246 1.362 . S
C246 H238 0.930 . S
C246 C245 1.362 . S
C246 C249 1.409 1_554 S
C247 H239 0.930 . S
C247 C248 1.355 1_565 S
C247 C249 1.415 . S
C248 C247 1.355 1_545 S
C248 C250 1.419 . S
C249 C244 1.425 1_566 S
C249 C246 1.409 1_556 S
C249 C247 1.415 . S
C250 H240 0.930 . S
C250 C248 1.419 . S
C250 C251 1.362 . S
C251 H241 0.930 . S
C251 C244 1.409 1_556 S
C251 C250 1.362 . S
H252 C258 0.930 . S
H253 C261 0.930 . S
H254 C262 0.930 . S
H255 C263 0.930 . S
H256 C266 0.930 . S
H257 C267 0.930 . S
C258 H252 0.930 . S
C258 C259 1.355 . S
C258 C260 1.415 . S
C259 C258 1.355 . S
C259 C261 1.419 1_556 S
C260 C258 1.415 . S
C260 C265 1.425 1_556 S
C260 C267 1.409 . S
C261 H253 0.930 . S
C261 C259 1.419 1_554 S
C261 C262 1.362 . S
C262 H254 0.930 . S
C262 C261 1.362 . S
C262 C265 1.409 . S
C263 H255 0.930 . S
C263 C264 1.355 . S
C263 C265 1.415 . S
C264 C263 1.355 . S
C264 C266 1.419 1_554 S
C265 C260 1.425 1_554 S
C265 C262 1.409 . S
C265 C263 1.415 . S
C266 H256 0.930 . S
C266 C264 1.419 1_556 S
C266 C267 1.362 . S
C267 H257 0.930 . S
C267 C260 1.409 . S
C267 C266 1.362 . S
H268 C274 0.930 . S
H269 C277 0.930 . S
H270 C278 0.930 . S
H271 C279 0.930 . S
H272 C282 0.930 . S
H273 C283 0.930 . S
C274 H268 0.930 . S
C274 C275 1.355 . S
C274 C276 1.415 . S
C275 C274 1.355 . S
C275 C277 1.419 . S
C276 C274 1.415 . S
C276 C281 1.425 . S
C276 C283 1.409 . S
C277 H269 0.930 . S
C277 C275 1.419 . S
C277 C278 1.362 . S
C278 H270 0.930 . S
C278 C277 1.362 . S
C278 C281 1.409 . S
C279 H271 0.930 . S
C279 C280 1.355 . S
C279 C281 1.415 . S
C280 C279 1.355 . S
C280 C282 1.419 . S
C281 C276 1.425 . S
C281 C278 1.409 . S
C281 C279 1.415 . S
C282 H272 0.930 . S
C282 C280 1.419 . S
C282 C283 1.362 . S
C283 H273 0.930 . S
C283 C276 1.409 . S
C283 C282 1.362 . S
H284 C290 0.930 . S
H285 C293 0.930 . S
H286 C294 0.930 . S
H287 C295 0.930 . S
H288 C298 0.930 . S
H289 C299 0.930 . S
C290 H284 0.930 . S
C290 C291 1.355 . S
C290 C292 1.415 . S
C291 C290 1.355 . S
C291 C293 1.419 . S
C292 C290 1.415 . S
C292 C297 1.425 . S
C292 C299 1.409 . S
C293 H285 0.930 . S
C293 C291 1.419 . S
C293 C294 1.362 . S
C294 H286 0.930 . S
C294 C293 1.362 . S
C294 C297 1.409 . S
C295 H287 0.930 . S
C295 C296 1.355 . S
C295 C297 1.415 . S
C296 C295 1.355 . S
C296 C298 1.419 . S
C297 C292 1.425 . S
C297 C294 1.409 . S
C297 C295 1.415 . S
C298 H288 0.930 . S
C298 C296 1.419 . S
C298 C299 1.362 . S
C299 H289 0.930 . S
C299 C292 1.409 . S
C299 C298 1.362 . S
H300 C306 0.930 . S
H301 C309 0.930 . S
H302 C310 0.930 . S
H303 C311 0.930 . S
H304 C314 0.930 . S
H305 C315 0.930 . S
C306 H300 0.930 . S
C306 C307 1.355 . S
C306 C308 1.415 . S
C307 C306 1.355 . S
C307 C309 1.419 1_554 S
C308 C306 1.415 . S
C308 C313 1.425 1_554 S
C308 C315 1.409 . S
C309 H301 0.930 . S
C309 C307 1.419 1_556 S
C309 C310 1.362 . S
C310 H302 0.930 . S
C310 C309 1.362 . S
C310 C313 1.409 . S
C311 H303 0.930 . S
C311 C312 1.355 . S
C311 C313 1.415 . S
C312 C311 1.355 . S
C312 C314 1.419 1_556 S
C313 C308 1.425 1_556 S
C313 C310 1.409 . S
C313 C311 1.415 . S
C314 H304 0.930 . S
C314 C312 1.419 1_554 S
C314 C315 1.362 . S
C315 H305 0.930 . S
C315 C308 1.409 . S
C315 C314 1.362 . S
H316 C322 0.930 . S
H317 C325 0.930 . S
H318 C326 0.930 . S
H319 C327 0.930 . S
H320 C330 0.930 . S
H321 C331 0.930 . S
C322 H316 0.930 . S
C322 C323 1.355 . S
C322 C324 1.415 . S
C323 C322 1.355 . S
C323 C325 1.419 . S
C324 C322 1.415 . S
C324 C329 1.425 . S
C324 C331 1.409 . S
C325 H317 0.930 . S
C325 C323 1.419 . S
C325 C326 1.362 . S
C326 H318 0.930 . S
C326 C325 1.362 . S
C326 C329 1.409 . S
C327 H319 0.930 . S
C327 C328 1.355 . S
C327 C329 1.415 . S
C328 C327 1.355 . S
C328 C330 1.419 . S
C329 C324 1.425 . S
C329 C326 1.409 . S
C329 C327 1.415 . S
C330 H320 0.930 . S
C330 C328 1.419 . S
C330 C331 1.362 . S
C331 H321 0.930 . S
C331 C324 1.409 . S
C331 C330 1.362 . S
H332 C338 0.930 . S
H333 C341 0.930 . S
H334 C342 0.930 . S
H335 C343 0.930 . S
H336 C346 0.930 . S
H337 C347 0.930 . S
C338 H332 0.930 . S
C338 C339 1.355 . S
C338 C340 1.415 . S
C339 C338 1.355 . S
C339 C341 1.419 . S
C340 C338 1.415 . S
C340 C345 1.425 . S
C340 C347 1.409 . S
C341 H333 0.930 . S
C341 C339 1.419 . S
C341 C342 1.362 . S
C342 H334 0.930 . S
C342 C341 1.362 . S
C342 C345 1.409 . S
C343 H335 0.930 . S
C343 C344 1.355 . S
C343 C345 1.415 . S
C344 C343 1.355 . S
C344 C346 1.419 . S
C345 C340 1.425 . S
C345 C342 1.409 . S
C345 C343 1.415 . S
C346 H336 0.930 . S
C346 C344 1.419 . S
C346 C347 1.362 . S
C347 H337 0.930 . S
C347 C340 1.409 . S
C347 C346 1.362 . S
H348 C354 0.930 . S
H349 C357 0.930 . S
H350 C358 0.930 . S
H351 C359 0.930 . S
H352 C362 0.930 . S
H353 C363 0.930 . S
C354 H348 0.930 . S
C354 C355 1.355 . S
C354 C356 1.415 . S
C355 C354 1.355 . S
C355 C357 1.419 . S
C356 C354 1.415 . S
C356 C361 1.425 . S
C356 C363 1.409 . S
C357 H349 0.930 . S
C357 C355 1.419 . S
C357 C358 1.362 . S
C358 H350 0.930 . S
C358 C357 1.362 . S
C358 C361 1.409 . S
C359 H351 0.930 . S
C359 C360 1.355 . S
C359 C361 1.415 . S
C360 C359 1.355 . S
C360 C362 1.419 . S
C361 C356 1.425 . S
C361 C358 1.409 . S
C361 C359 1.415 . S
C362 H352 0.930 . S
C362 C360 1.419 . S
C362 C363 1.362 . S
C363 H353 0.930 . S
C363 C356 1.409 . S
C363 C362 1.362 . S
H364 C370 0.930 . S
H365 C373 0.930 . S
H366 C374 0.930 . S
H367 C375 0.930 . S
H368 C378 0.930 . S
H369 C379 0.930 . S
C370 H364 0.930 . S
C370 C371 1.358 . S
C370 C372 1.415 . S
C371 C370 1.358 . S
C371 C373 1.415 1_655 S
C372 C370 1.415 . S
C372 C377 1.425 1_655 S
C372 C379 1.409 . S
C373 H365 0.930 . S
C373 C371 1.415 1_455 S
C373 C374 1.362 . S
C374 H366 0.930 . S
C374 C373 1.362 . S
C374 C377 1.409 . S
C375 H367 0.930 . S
C375 C376 1.358 . S
C375 C377 1.415 . S
C376 C375 1.358 . S
C376 C378 1.415 1_455 S
C377 C372 1.425 1_455 S
C377 C374 1.409 . S
C377 C375 1.415 . S
C378 H368 0.930 . S
C378 C376 1.415 1_655 S
C378 C379 1.362 . S
C379 H369 0.930 . S
C379 C372 1.409 . S
C379 C378 1.362 . S
H380 C386 0.930 . S
H381 C389 0.930 . S
H382 C390 0.930 . S
H383 C391 0.930 . S
H384 C394 0.930 . S
H385 C395 0.930 . S
C386 H380 0.930 . S
C386 C387 1.355 1_565 S
C386 C388 1.415 . S
C387 C386 1.355 1_545 S
C387 C389 1.419 . S
C388 C386 1.415 . S
C388 C393 1.425 1_565 S
C388 C395 1.409 . S
C389 H381 0.930 . S
C389 C387 1.419 . S
C389 C390 1.362 . S
C390 H382 0.930 . S
C390 C389 1.362 . S
C390 C393 1.409 . S
C391 H383 0.930 . S
C391 C392 1.355 1_545 S
C391 C393 1.415 . S
C392 C391 1.355 1_565 S
C392 C394 1.419 . S
C393 C388 1.425 1_545 S
C393 C390 1.409 . S
C393 C391 1.415 . S
C394 H384 0.930 . S
C394 C392 1.419 . S
C394 C395 1.362 . S
C395 H385 0.930 . S
C395 C388 1.409 . S
C395 C394 1.362 . S
H396 C402 0.930 . S
H397 C405 0.930 . S
H398 C406 0.930 . S
H399 C407 0.930 . S
H400 C410 0.930 . S
H401 C411 0.930 . S
C402 H396 0.930 . S
C402 C403 1.355 . S
C402 C404 1.415 . S
C403 C402 1.355 . S
C403 C405 1.419 . S
C404 C402 1.415 . S
C404 C409 1.425 . S
C404 C411 1.409 . S
C405 H397 0.930 . S
C405 C403 1.419 . S
C405 C406 1.362 . S
C406 H398 0.930 . S
C406 C405 1.362 . S
C406 C409 1.409 . S
C407 H399 0.930 . S
C407 C408 1.355 . S
C407 C409 1.415 . S
C408 C407 1.355 . S
C408 C410 1.419 . S
C409 C404 1.425 . S
C409 C406 1.409 . S
C409 C407 1.415 . S
C410 H400 0.930 . S
C410 C408 1.419 . S
C410 C411 1.362 . S
C411 H401 0.930 . S
C411 C404 1.409 . S
C411 C410 1.362 . S
H412 C418 0.930 . S
H413 C421 0.930 . S
H414 C422 0.930 . S
H415 C423 0.930 . S
H416 C426 0.930 . S
H417 C427 0.930 . S
C418 H412 0.930 . S
C418 C419 1.355 1_455 S
C418 C420 1.415 . S
C419 C418 1.355 1_655 S
C419 C421 1.419 . S
C420 C418 1.415 . S
C420 C425 1.425 1_455 S
C420 C427 1.409 . S
C421 H413 0.930 . S
C421 C419 1.419 . S
C421 C422 1.362 . S
C422 H414 0.930 . S
C422 C421 1.362 . S
C422 C425 1.409 . S
C423 H415 0.930 . S
C423 C424 1.355 1_655 S
C423 C425 1.415 . S
C424 C423 1.355 1_455 S
C424 C426 1.419 . S
C425 C420 1.425 1_655 S
C425 C422 1.409 . S
C425 C423 1.415 . S
C426 H416 0.930 . S
C426 C424 1.419 . S
C426 C427 1.362 . S
C427 H417 0.930 . S
C427 C420 1.409 . S
C427 C426 1.362 . S
H428 C434 0.949 . S
H429 C437 0.930 . S
H430 C438 0.930 . S
H431 C439 0.949 . S
H432 C442 0.930 . S
H433 C443 0.930 . S
C434 H428 0.949 . S
C434 C435 1.341 . S
C434 C436 1.411 1_565 S
C435 C434 1.341 . S
C435 C437 1.419 . S
C436 C434 1.411 1_545 S
C436 C441 1.425 1_545 S
C436 C443 1.409 . S
C437 H429 0.930 . S
C437 C435 1.419 . S
C437 C438 1.362 . S
C438 H430 0.930 . S
C438 C437 1.362 . S
C438 C441 1.409 . S
C439 H431 0.949 . S
C439 C440 1.341 . S
C439 C441 1.411 1_545 S
C440 C439 1.341 . S
C440 C442 1.419 . S
C441 C436 1.425 1_565 S
C441 C438 1.409 . S
C441 C439 1.411 1_565 S
C442 H432 0.930 . S
C442 C440 1.419 . S
C442 C443 1.362 . S
C443 H433 0.930 . S
C443 C436 1.409 . S
C443 C442 1.362 . S
H444 C450 0.930 . S
H445 C453 0.930 . S
H446 C454 0.930 . S
H447 C455 0.930 . S
H448 C458 0.930 . S
H449 C459 0.930 . S
C450 H444 0.930 . S
C450 C451 1.355 . S
C450 C452 1.415 . S
C451 C450 1.355 . S
C451 C453 1.419 . S
C452 C450 1.415 . S
C452 C457 1.425 . S
C452 C459 1.409 . S
C453 H445 0.930 . S
C453 C451 1.419 . S
C453 C454 1.362 . S
C454 H446 0.930 . S
C454 C453 1.362 . S
C454 C457 1.409 . S
C455 H447 0.930 . S
C455 C456 1.355 . S
C455 C457 1.415 . S
C456 C455 1.355 . S
C456 C458 1.419 . S
C457 C452 1.425 . S
C457 C454 1.409 . S
C457 C455 1.415 . S
C458 H448 0.930 . S
C458 C456 1.419 . S
C458 C459 1.362 . S
C459 H449 0.930 . S
C459 C452 1.409 . S
C459 C458 1.362 . S
H460 C466 0.930 . S
H461 C469 0.930 . S
H462 C470 0.930 . S
H463 C471 0.930 . S
H464 C474 0.930 . S
H465 C475 0.930 . S
C466 H460 0.930 . S
C466 C467 1.355 . S
C466 C468 1.415 . S
C467 C466 1.355 . S
C467 C469 1.419 1_455 S
C468 C466 1.415 . S
C468 C473 1.425 1_455 S
C468 C475 1.409 . S
C469 H461 0.930 . S
C469 C467 1.419 1_655 S
C469 C470 1.362 . S
C470 H462 0.930 . S
C470 C469 1.362 . S
C470 C473 1.409 . S
C471 H463 0.930 . S
C471 C472 1.355 . S
C471 C473 1.415 . S
C472 C471 1.355 . S
C472 C474 1.419 1_655 S
C473 C468 1.425 1_655 S
C473 C470 1.409 . S
C473 C471 1.415 . S
C474 H464 0.930 . S
C474 C472 1.419 1_455 S
C474 C475 1.362 . S
C475 H465 0.930 . S
C475 C468 1.409 . S
C475 C474 1.362 . S
H476 C482 0.930 . S
H477 C485 0.930 . S
H478 C486 0.930 . S
H479 C487 0.930 . S
H480 C490 0.930 . S
H481 C491 0.930 . S
C482 H476 0.930 . S
C482 C483 1.355 . S
C482 C484 1.415 1_565 S
C483 C482 1.355 . S
C483 C485 1.419 . S
C484 C482 1.415 1_545 S
C484 C489 1.425 1_545 S
C484 C491 1.409 . S
C485 H477 0.930 . S
C485 C483 1.419 . S
C485 C486 1.362 . S
C486 H478 0.930 . S
C486 C485 1.362 . S
C486 C489 1.409 . S
C487 H479 0.930 . S
C487 C488 1.355 . S
C487 C489 1.415 1_545 S
C488 C487 1.355 . S
C488 C490 1.419 . S
C489 C484 1.425 1_565 S
C489 C486 1.409 . S
C489 C487 1.415 1_565 S
C490 H480 0.930 . S
C490 C488 1.419 . S
C490 C491 1.362 . S
C491 H481 0.930 . S
C491 C484 1.409 . S
C491 C490 1.362 . S
H492 C498 0.930 . S
H493 C501 0.930 . S
H494 C502 0.930 . S
H495 C503 0.930 . S
H496 C506 0.930 . S
H497 C507 0.930 . S
C498 H492 0.930 . S
C498 C499 1.355 . S
C498 C500 1.415 . S
C499 C498 1.355 . S
C499 C501 1.419 . S
C500 C498 1.415 . S
C500 C505 1.425 . S
C500 C507 1.409 . S
C501 H493 0.930 . S
C501 C499 1.419 . S
C501 C502 1.362 . S
C502 H494 0.930 . S
C502 C501 1.362 . S
C502 C505 1.409 . S
C503 H495 0.930 . S
C503 C504 1.355 . S
C503 C505 1.415 . S
C504 C503 1.355 . S
C504 C506 1.419 . S
C505 C500 1.425 . S
C505 C502 1.409 . S
C505 C503 1.415 . S
C506 H496 0.930 . S
C506 C504 1.419 . S
C506 C507 1.362 . S
C507 H497 0.930 . S
C507 C500 1.409 . S
C507 C506 1.362 . S
H508 C514 0.936 . S
H509 C517 0.930 . S
H510 C518 0.930 . S
H511 C519 0.936 . S
H512 C522 0.930 . S
H513 C523 0.930 . S
C514 H508 0.936 . S
C514 C515 1.326 1_455 S
C514 C516 1.438 . S
C515 C514 1.326 1_655 S
C515 C517 1.419 . S
C516 C514 1.438 . S
C516 C521 1.425 1_455 S
C516 C523 1.409 . S
C517 H509 0.930 . S
C517 C515 1.419 . S
C517 C518 1.362 . S
C518 H510 0.930 . S
C518 C517 1.362 . S
C518 C521 1.409 . S
C519 H511 0.936 . S
C519 C520 1.326 1_655 S
C519 C521 1.438 . S
C520 C519 1.326 1_455 S
C520 C522 1.419 . S
C521 C516 1.425 1_655 S
C521 C518 1.409 . S
C521 C519 1.438 . S
C522 H512 0.930 . S
C522 C520 1.419 . S
C522 C523 1.362 . S
C523 H513 0.930 . S
C523 C516 1.409 . S
C523 C522 1.362 . S
H524 C530 0.930 . S
H525 C533 0.930 . S
H526 C534 0.930 . S
H527 C535 0.930 . S
H528 C538 0.930 . S
H529 C539 0.930 . S
C530 H524 0.930 . S
C530 C531 1.355 . S
C530 C532 1.415 1_545 S
C531 C530 1.355 . S
C531 C533 1.419 . S
C532 C530 1.415 1_565 S
C532 C537 1.425 1_565 S
C532 C539 1.409 . S
C533 H525 0.930 . S
C533 C531 1.419 . S
C533 C534 1.362 . S
C534 H526 0.930 . S
C534 C533 1.362 . S
C534 C537 1.409 . S
C535 H527 0.930 . S
C535 C536 1.355 . S
C535 C537 1.415 1_565 S
C536 C535 1.355 . S
C536 C538 1.419 . S
C537 C532 1.425 1_545 S
C537 C534 1.409 . S
C537 C535 1.415 1_545 S
C538 H528 0.930 . S
C538 C536 1.419 . S
C538 C539 1.362 . S
C539 H529 0.930 . S
C539 C532 1.409 . S
C539 C538 1.362 . S
C163 C10 1.407 . S
C168 C127 1.409 . S
C179 C23 1.389 . S
C184 C140 1.414 . S
C195 C36 1.385 . S
C200 C153 1.411 . S
C211 C49 1.402 . S
C216 C88 1.384 . S
C227 C101 1.410 . S
C232 C62 1.384 . S
C243 C114 1.406 . S
C248 C75 1.383 . S
C259 C130 1.370 . S
C264 C0 1.401 . S
C275 C13 1.392 . S
C280 C143 1.360 . S
C291 C26 1.399 . S
C296 C78 1.363 . S
C307 C39 1.395 . S
C312 C91 1.383 . S
C323 C52 1.400 . S
C328 C104 1.365 . S
C339 C65 1.399 . S
C344 C117 1.362 . S
C355 C125 0.772 . S
C360 C8 0.838 . S
C371 C21 0.919 . S
C376 C138 0.763 . S
C387 C34 0.864 1_545 S
C392 C151 0.907 1_565 S
C403 C86 0.849 . S
C408 C47 0.916 . S
C419 C60 0.929 1_655 S
C424 C99 0.791 1_455 S
C435 C112 0.901 . S
C440 C73 0.755 . S
C451 C5 1.329 . S
C456 C44 1.329 . S
C467 C57 1.333 . S
C472 C18 1.327 . S
C483 C31 1.424 . S
C488 C70 1.411 . S
C499 C83 1.330 . S
C504 C122 1.328 . S
C515 C96 1.423 . S
C520 C135 1.427 . S
C531 C148 1.367 . S
C536 C109 1.391 . S
