# Generated by pormake.
# Topology mon, (4)-cn, num edge types: 1
# Building blocks:
#     Node 0, Type 0, BuildingBlock: NAHDIM_clean_sbu_0, # of connection points: 4
#     Node 1, Type 0, BuildingBlock: NAHDIM_clean_sbu_0, # of connection points: 4
#     Node 2, Type 0, BuildingBlock: NAHDIM_clean_sbu_0, # of connection points: 4
#     Node 3, Type 0, BuildingBlock: NAHDIM_clean_sbu_0, # of connection points: 4
#     Node 4, Type 0, BuildingBlock: NAHDIM_clean_sbu_0, # of connection points: 4
#     Node 5, Type 0, BuildingBlock: NAHDIM_clean_sbu_0, # of connection points: 4
#     Node 6, Type 0, BuildingBlock: NAHDIM_clean_sbu_0, # of connection points: 4
#     Node 7, Type 0, BuildingBlock: NAHDIM_clean_sbu_0, # of connection points: 4
#     Node 8, Type 0, BuildingBlock: NAHDIM_clean_sbu_0, # of connection points: 4
#     Node 9, Type 0, BuildingBlock: NAHDIM_clean_sbu_0, # of connection points: 4
#     Node 10, Type 0, BuildingBlock: NAHDIM_clean_sbu_0, # of connection points: 4
#     Node 11, Type 0, BuildingBlock: NAHDIM_clean_sbu_0, # of connection points: 4
#     Node 12, Type 0, BuildingBlock: NAHDIM_clean_sbu_0, # of connection points: 4
#     Node 13, Type 0, BuildingBlock: NAHDIM_clean_sbu_0, # of connection points: 4
#     Node 14, Type 0, BuildingBlock: NAHDIM_clean_sbu_0, # of connection points: 4
#     Node 15, Type 0, BuildingBlock: NAHDIM_clean_sbu_0, # of connection points: 4
#     Edge 16, Type (0, 0), BuildingBlock: XIVTED_clean_linker_0, # of connection points: 2
#     Edge 17, Type (0, 0), BuildingBlock: XIVTED_clean_linker_0, # of connection points: 2
#     Edge 18, Type (0, 0), BuildingBlock: XIVTED_clean_linker_0, # of connection points: 2
#     Edge 19, Type (0, 0), BuildingBlock: XIVTED_clean_linker_0, # of connection points: 2
#     Edge 20, Type (0, 0), BuildingBlock: XIVTED_clean_linker_0, # of connection points: 2
#     Edge 21, Type (0, 0), BuildingBlock: XIVTED_clean_linker_0, # of connection points: 2
#     Edge 22, Type (0, 0), BuildingBlock: XIVTED_clean_linker_0, # of connection points: 2
#     Edge 23, Type (0, 0), BuildingBlock: XIVTED_clean_linker_0, # of connection points: 2
#     Edge 24, Type (0, 0), BuildingBlock: XIVTED_clean_linker_0, # of connection points: 2
#     Edge 25, Type (0, 0), BuildingBlock: XIVTED_clean_linker_0, # of connection points: 2
#     Edge 26, Type (0, 0), BuildingBlock: XIVTED_clean_linker_0, # of connection points: 2
#     Edge 27, Type (0, 0), BuildingBlock: XIVTED_clean_linker_0, # of connection points: 2
#     Edge 28, Type (0, 0), BuildingBlock: XIVTED_clean_linker_0, # of connection points: 2
#     Edge 29, Type (0, 0), BuildingBlock: XIVTED_clean_linker_0, # of connection points: 2
#     Edge 30, Type (0, 0), BuildingBlock: XIVTED_clean_linker_0, # of connection points: 2
#     Edge 31, Type (0, 0), BuildingBlock: XIVTED_clean_linker_0, # of connection points: 2
#     Edge 32, Type (0, 0), BuildingBlock: XIVTED_clean_linker_0, # of connection points: 2
#     Edge 33, Type (0, 0), BuildingBlock: XIVTED_clean_linker_0, # of connection points: 2
#     Edge 34, Type (0, 0), BuildingBlock: XIVTED_clean_linker_0, # of connection points: 2
#     Edge 35, Type (0, 0), BuildingBlock: XIVTED_clean_linker_0, # of connection points: 2
#     Edge 36, Type (0, 0), BuildingBlock: XIVTED_clean_linker_0, # of connection points: 2
#     Edge 37, Type (0, 0), BuildingBlock: XIVTED_clean_linker_0, # of connection points: 2
#     Edge 38, Type (0, 0), BuildingBlock: XIVTED_clean_linker_0, # of connection points: 2
#     Edge 39, Type (0, 0), BuildingBlock: XIVTED_clean_linker_0, # of connection points: 2
#     Edge 40, Type (0, 0), BuildingBlock: XIVTED_clean_linker_0, # of connection points: 2
#     Edge 41, Type (0, 0), BuildingBlock: XIVTED_clean_linker_0, # of connection points: 2
#     Edge 42, Type (0, 0), BuildingBlock: XIVTED_clean_linker_0, # of connection points: 2
#     Edge 43, Type (0, 0), BuildingBlock: XIVTED_clean_linker_0, # of connection points: 2
#     Edge 44, Type (0, 0), BuildingBlock: XIVTED_clean_linker_0, # of connection points: 2
#     Edge 45, Type (0, 0), BuildingBlock: XIVTED_clean_linker_0, # of connection points: 2
#     Edge 46, Type (0, 0), BuildingBlock: XIVTED_clean_linker_0, # of connection points: 2
#     Edge 47, Type (0, 0), BuildingBlock: XIVTED_clean_linker_0, # of connection points: 2
# Relax obj value: 0.123
# Max RMSD: 0.120
# Mean RMSD: 0.120
data_MOF--net-mon--node1-NAHDIM_clean_sbu_0--edge1-XIVTED_clean_linker_0
_symmetry_space_group_name_H-M    P1
_symmetry_Int_Tables_number       1
_symmetry_cell_setting            triclinic
loop_
_symmetry_equiv_pos_as_xyz
'x, y, z'
_cell_length_a     34.86493
_cell_length_b     34.847024
_cell_length_c     81.446041
_cell_angle_alpha  90.012582
_cell_angle_beta   89.915379
_cell_angle_gamma 90.214084
loop_
_atom_site_label
_atom_site_type_symbol
_atom_site_fract_x
_atom_site_fract_y
_atom_site_fract_z
_atom_type_partial_charge
C0 C 0.97676 0.10393 0.5968 0.0
O1 O 0.94414 0.09138 0.59075 0.0
O2 O 0.95105 0.00622 0.60349 0.0
Zn3 Zn -0.00437 0.027 0.59063 0.0
O4 O 0.98581 0.02705 0.56625 0.0
C5 C 0.03717 0.95851 0.59686 0.0
O6 O 0.00253 0.94398 0.5954 0.0
O7 O 0.00477 0.08093 0.59799 0.0
C8 C 0.97375 -0.00221 0.55848 0.0
O9 O 0.96601 0.96612 0.56657 0.0
C10 C 0.91645 0.00413 0.59871 0.0
O11 O 0.90724 0.01609 0.58395 0.0
O12 O 0.04188 -0.00546 0.59547 0.0
C13 C 0.16292 0.71764 0.8331 0.0
O14 O 0.17946 0.6923 0.82349 0.0
O15 O 0.25717 0.68794 0.84887 0.0
Zn16 Zn 0.23989 0.73484 0.83678 0.0
O17 O 0.2474 0.72897 0.81234 0.0
C18 C 0.30695 0.77703 0.84105 0.0
O19 O 0.31925 0.74597 0.83358 0.0
O20 O 0.18374 0.74135 0.84094 0.0
C21 C 0.25322 0.75833 0.80341 0.0
O22 O 0.25513 0.79238 0.81028 0.0
C23 C 0.26554 0.65639 0.84196 0.0
O24 O 0.26318 0.65346 0.82591 0.0
O25 O 0.27149 0.77968 0.84448 0.0
C26 C 0.49373 0.89354 0.08001 0.0
O27 O 0.46555 0.91196 0.07282 0.0
O28 O 0.57842 0.98947 0.08232 0.0
Zn29 Zn 0.53148 0.96392 0.07315 0.0
O30 O 0.53418 0.96352 0.04856 0.0
C31 C 0.47281 -0.00665 0.09453 0.0
O32 O 0.48946 0.97064 0.10522 0.0
O33 O 0.52602 0.91012 0.08156 0.0
C34 C 0.53434 -0.00454 0.04104 0.0
O35 O 0.53344 0.02738 0.04962 0.0
C36 C 0.59092 0.98226 0.09663 0.0
O37 O 0.57379 0.95584 0.10554 0.0
O38 O 0.48569 -0.00508 0.07995 0.0
C39 C 0.37032 0.25513 0.33611 0.0
O40 O 0.3544 0.27879 0.3256 0.0
O41 O 0.28057 0.29585 0.35318 0.0
Zn42 Zn 0.29297 0.24553 0.3425 0.0
O43 O 0.28387 0.24727 0.31805 0.0
C44 C 0.22587 0.21456 0.35665 0.0
O45 O 0.2154 0.25025 0.35413 0.0
O46 O 0.34903 0.23589 0.34577 0.0
C47 C 0.25389 0.23658 0.31045 0.0
O48 O 0.22427 0.22363 0.31877 0.0
C49 C 0.26954 0.32558 0.34554 0.0
O50 O 0.26714 0.3248 0.32945 0.0
O51 O 0.25965 0.20445 0.35268 0.0
C52 C 0.03213 0.88539 0.40729 0.0
O53 O 0.05334 0.90686 0.41698 0.0
O54 O 0.94447 0.96893 0.39102 0.0
Zn55 Zn 0.99131 0.95524 0.40399 0.0
O56 O 0.98162 0.96086 0.42824 0.0
C57 C 0.02703 0.02345 0.39222 0.0
O58 O 0.99098 0.0342 0.39171 0.0
O59 O 0.00409 0.90046 0.39979 0.0
C60 C 0.98156 -0.00711 0.4357 0.0
O61 O 0.98762 0.0246 0.42737 0.0
C62 C 0.91137 0.97289 0.3973 0.0
O63 O 0.90641 0.96633 0.41304 0.0
O64 O 0.03499 0.98978 0.39711 0.0
C65 C 0.37354 0.71693 0.64197 0.0
O66 O 0.35938 0.68389 0.64686 0.0
O67 O 0.27769 0.68834 0.64159 0.0
Zn68 Zn 0.29728 0.74005 0.64883 0.0
O69 O 0.29431 0.74491 0.67336 0.0
C70 C 0.24486 0.7742 0.62601 0.0
O71 O 0.24722 0.74028 0.61905 0.0
O72 O 0.3519 0.74616 0.64163 0.0
C73 C 0.26373 0.73607 0.68099 0.0
O74 O 0.2339 0.72365 0.67267 0.0
C75 C 0.27639 0.65811 0.6503 0.0
O76 O 0.28866 0.65897 0.66553 0.0
O77 O 0.26458 0.78115 0.63878 0.0
C78 C 0.55491 0.12004 0.88237 0.0
O79 O 0.58599 0.10508 0.88878 0.0
O80 O 0.58189 0.02238 0.87773 0.0
Zn81 Zn 0.53172 0.04331 0.88607 0.0
O82 O 0.53077 0.04083 0.91068 0.0
C83 C 0.49276 0.98952 0.86509 0.0
O84 O 0.52563 0.9904 0.8572 0.0
O85 O 0.52639 0.09833 0.87944 0.0
C86 C 0.52937 0.00868 0.91802 0.0
O87 O 0.52833 0.97699 0.90928 0.0
C88 C 0.61129 0.01844 0.88677 0.0
O89 O 0.60977 0.02905 0.90224 0.0
O90 O 0.48815 0.011 0.87754 0.0
C91 C 0.15441 0.23432 0.1374 0.0
O92 O 0.17257 0.26523 0.13235 0.0
O93 O 0.24636 0.26874 0.14603 0.0
Zn94 Zn 0.2252 0.21899 0.15474 0.0
O95 O 0.22435 0.21985 0.17937 0.0
C96 C 0.26754 0.17363 0.132 0.0
O97 O 0.25304 0.19852 0.12162 0.0
O98 O 0.17155 0.21062 0.14667 0.0
C99 C 0.2551 0.22496 0.18743 0.0
O100 O 0.28758 0.22942 0.17943 0.0
C101 C 0.24628 0.30001 0.15406 0.0
O102 O 0.23173 0.30083 0.16894 0.0
O103 O 0.25906 0.17626 0.14712 0.0
C104 C 0.87087 0.22313 0.14166 0.0
O105 O 0.8546 0.19189 0.14747 0.0
O106 O 0.77198 0.20408 0.14142 0.0
Zn107 Zn 0.79809 0.25158 0.15007 0.0
O108 O 0.80026 0.25011 0.17468 0.0
C109 C 0.74732 0.29519 0.13008 0.0
O110 O 0.74991 0.26426 0.12093 0.0
O111 O 0.85165 0.25401 0.14123 0.0
C112 C 0.76965 0.25507 0.18286 0.0
O113 O 0.73731 0.26078 0.17498 0.0
C114 C 0.76423 0.17402 0.14963 0.0
O115 O 0.77396 0.17215 0.16518 0.0
O116 O 0.76717 0.29744 0.14312 0.0
C117 C 0.65424 0.75559 0.64519 0.0
O118 O 0.67132 0.78582 0.63886 0.0
O119 O 0.7393 0.80087 0.6554 0.0
Zn120 Zn 0.72324 0.74989 0.66454 0.0
O121 O 0.72167 0.7519 0.68917 0.0
C122 C 0.79652 0.71783 0.65688 0.0
O123 O 0.80836 0.75156 0.66205 0.0
O124 O 0.67118 0.73609 0.65616 0.0
C125 C 0.73048 0.72286 0.69778 0.0
O126 O 0.74061 0.69092 0.69041 0.0
C127 C 0.75571 0.82681 0.66381 0.0
O128 O 0.76223 0.82092 0.67949 0.0
O129 O 0.76086 0.71027 0.65695 0.0
C130 C 0.65518 0.23012 0.3313 0.0
O131 O 0.67103 0.21016 0.31943 0.0
O132 O 0.74664 0.18835 0.34612 0.0
Zn133 Zn 0.73281 0.24055 0.33767 0.0
O134 O 0.74172 0.24491 0.31335 0.0
C135 C 0.79714 0.27108 0.35467 0.0
O136 O 0.80907 0.2358 0.35229 0.0
O137 O 0.67656 0.24731 0.34159 0.0
C138 C 0.77371 0.24357 0.30591 0.0
O139 O 0.80542 0.23896 0.31436 0.0
C140 C 0.75423 0.15919 0.33737 0.0
O141 O 0.75304 0.16188 0.32129 0.0
O142 O 0.76417 0.28065 0.34946 0.0
C143 C 0.87733 0.73543 0.83808 0.0
O144 O 0.85995 0.74374 0.82425 0.0
O145 O 0.79078 0.79622 0.85679 0.0
Zn146 Zn 0.80105 0.74219 0.84969 0.0
O147 O 0.78368 0.73373 0.82639 0.0
C148 C 0.73697 0.71743 0.86788 0.0
O149 O 0.72577 0.75176 0.86333 0.0
O150 O 0.85774 0.73258 0.8512 0.0
C151 C 0.75493 0.74934 0.81958 0.0
O152 O 0.73333 0.77302 0.82804 0.0
C153 C 0.79375 0.82541 0.84755 0.0
O154 O 0.80553 0.82121 0.83233 0.0
O155 O 0.77037 0.70621 0.86389 0.0
C156 C 0.45964 0.61567 0.10531 0.0
O157 O 0.42855 0.59836 0.09995 0.0
O158 O 0.43743 0.51641 0.11477 0.0
Zn159 Zn 0.48472 0.53922 0.10424 0.0
O160 O 0.48194 0.53412 0.07961 0.0
C161 C 0.52772 0.47523 0.11542 0.0
O162 O 0.49336 0.45968 0.11495 0.0
O163 O 0.48868 0.59552 0.10898 0.0
C164 C 0.48391 0.50222 0.0721 0.0
O165 O 0.48743 0.47038 0.08057 0.0
C166 C 0.40789 0.5073 0.10649 0.0
O167 O 0.4068 0.51521 0.09074 0.0
O168 O 0.53161 0.51061 0.11195 0.0
C169 C 0.02289 0.38321 0.61264 0.0
O170 O 0.0542 0.39674 0.61952 0.0
O171 O 0.06696 0.47307 0.60969 0.0
Zn172 Zn 0.01599 0.46013 0.5998 0.0
O173 O 0.01781 0.46898 0.57548 0.0
C174 C 0.98519 0.53059 0.61044 0.0
O175 O 0.01854 0.54236 0.6048 0.0
O176 O 0.00215 0.40531 0.60404 0.0
C177 C 0.98698 0.47295 0.56738 0.0
O178 O 0.95395 0.47111 0.57513 0.0
C179 C 0.09779 0.47379 0.60138 0.0
O180 O 0.09692 0.46454 0.58575 0.0
O181 O 0.97683 0.49513 0.60966 0.0
C182 C 0.50325 0.39747 0.89572 0.0
O183 O 0.47874 0.41725 0.88693 0.0
O184 O 0.45262 0.47961 0.90526 0.0
Zn185 Zn 0.5008 0.4637 0.91685 0.0
O186 O 0.49361 0.46287 0.94137 0.0
C187 C 0.53462 0.53544 0.90715 0.0
O188 O 0.4985 0.54597 0.90664 0.0
O189 O 0.51634 0.41162 0.90897 0.0
C190 C 0.48879 0.49411 0.94914 0.0
O191 O 0.48759 0.52649 0.94092 0.0
C192 C 0.41993 0.48527 0.91169 0.0
O193 O 0.41511 0.48004 0.92753 0.0
O194 O 0.54278 0.50122 0.9112 0.0
C195 C 0.04383 0.59965 0.4147 0.0
O196 O 0.07198 0.58324 0.42276 0.0
O197 O 0.07039 0.50499 0.40257 0.0
Zn198 Zn 0.02211 0.52281 0.41347 0.0
O199 O 0.02359 0.51408 0.43782 0.0
C200 C 0.98149 0.45616 0.40637 0.0
O201 O 0.01119 0.44314 0.41455 0.0
O202 O 0.01677 0.57888 0.40916 0.0
C203 C -0.00755 0.51783 0.44576 0.0
O204 O 0.96115 0.52729 0.43778 0.0
C205 C 0.10004 0.49338 0.41007 0.0
O206 O 0.10031 0.49285 0.4262 0.0
O207 O 0.97861 0.49208 0.40405 0.0
H208 H 0.92357 0.16095 0.59435 0.0
H209 H 0.06688 0.32532 0.62524 0.0
H210 H 0.03961 0.13928 0.61026 0.0
H211 H 0.95799 0.34711 0.60189 0.0
H212 H 0.05361 0.25644 0.62382 0.0
H213 H 0.93226 0.22869 0.60093 0.0
C214 C 0.95084 0.1704 0.5993 0.0
C215 C 0.98106 0.14452 0.60159 0.0
C216 C 0.03253 0.27635 0.61913 0.0
C217 C 0.99117 0.22201 0.60915 0.0
C218 C 0.04002 0.31566 0.61998 0.0
C219 C 0.01369 0.34194 0.6135 0.0
C220 C -0.00157 0.26336 0.61181 0.0
C221 C 0.97929 0.32784 0.60688 0.0
C222 C 0.95577 0.20909 0.60305 0.0
C223 C 0.01565 0.15833 0.60816 0.0
N224 N 0.97277 0.28949 0.60611 0.0
N225 N 0.01984 0.19623 0.61163 0.0
H226 H 0.92609 0.74006 0.8644 0.0
H227 H 0.11125 0.68483 0.81238 0.0
H228 H 0.9238 0.71992 0.81211 0.0
H229 H 0.11885 0.75264 0.85664 0.0
H230 H 0.04145 0.68721 0.81421 0.0
H231 H -0.00371 0.7346 0.86381 0.0
C232 C 0.94033 0.73423 0.85285 0.0
C233 C 0.91924 0.73053 0.83827 0.0
C234 C 0.05841 0.70155 0.82352 0.0
C235 C -0.00108 0.72403 0.83756 0.0
C236 C 0.09821 0.70011 0.82252 0.0
C237 C 0.12079 0.71873 0.83434 0.0
C238 C 0.04105 0.72125 0.83656 0.0
C239 C 0.1024 0.73815 0.84721 0.0
C240 C 0.98026 0.73135 0.85251 0.0
C241 C 0.93902 0.72318 0.82361 0.0
N242 N 0.06345 0.73881 0.84803 0.0
N243 N 0.97776 0.72002 0.82364 0.0
H244 H 0.4033 0.66673 0.09749 0.0
H245 H 0.54619 0.8466 0.09486 0.0
H246 H 0.52233 0.66094 0.11181 0.0
H247 H 0.42826 0.85024 0.07882 0.0
H248 H 0.53656 0.78019 0.10362 0.0
H249 H 0.41031 0.7357 0.0934 0.0
C250 C 0.43084 0.68002 0.09994 0.0
C251 C 0.46239 0.65796 0.10484 0.0
C252 C 0.51275 0.79559 0.09826 0.0
C253 C 0.47069 0.73696 0.10005 0.0
C254 C 0.51823 0.83349 0.09323 0.0
C255 C 0.48806 0.8539 0.08597 0.0
C256 C 0.47685 0.77797 0.096 0.0
C257 C 0.45241 0.83554 0.08426 0.0
C258 C 0.43484 0.71943 0.09757 0.0
C259 C 0.4973 0.6768 0.10793 0.0
N260 N 0.44786 0.79857 0.08916 0.0
N261 N 0.5006 0.71519 0.10534 0.0
H262 H 0.60395 0.21959 0.30661 0.0
H263 H 0.41633 0.23068 0.36128 0.0
H264 H 0.61104 0.24691 0.35822 0.0
H265 H 0.41932 0.26873 0.31086 0.0
H266 H 0.48658 0.22414 0.36063 0.0
H267 H 0.53417 0.22476 0.30819 0.0
C268 C 0.59077 0.22653 0.31829 0.0
C269 C 0.61316 0.23302 0.3323 0.0
C270 C 0.47165 0.23394 0.34977 0.0
C271 C 0.53361 0.23845 0.3342 0.0
C272 C 0.43176 0.23748 0.35009 0.0
C273 C 0.41221 0.25034 0.33611 0.0
C274 C 0.49166 0.24243 0.33525 0.0
C275 C 0.43338 0.25896 0.32193 0.0
C276 C 0.55106 0.22961 0.31916 0.0
C277 C 0.59469 0.24201 0.34713 0.0
N278 N 0.47199 0.25454 0.32182 0.0
N279 N 0.55578 0.24423 0.34773 0.0
H280 H 0.08749 0.84291 0.4226 0.0
H281 H 0.99219 0.64252 0.39736 0.0
H282 H 0.98977 0.83242 0.39036 0.0
H283 H 0.09537 0.65223 0.42636 0.0
H284 H 0.99208 0.71212 0.39395 0.0
H285 H 0.0926 0.77303 0.4232 0.0
C286 C 0.06731 0.82594 0.41554 0.0
C287 C 0.03799 0.84351 0.40652 0.0
C288 C 0.01484 0.69901 0.401 0.0
C289 C 0.04348 0.7636 0.40725 0.0
C290 C 0.01486 0.65928 0.40299 0.0
C291 C 0.04372 0.64158 0.41223 0.0
C292 C 0.0438 0.72121 0.40837 0.0
C293 C 0.07248 0.66469 0.41918 0.0
C294 C 0.07022 0.78604 0.4159 0.0
C295 C 0.01272 0.82011 0.39755 0.0
N296 N 0.07169 0.70335 0.41717 0.0
N297 N 0.01588 0.78135 0.39825 0.0
H298 H 0.41273 0.78054 0.63128 0.0
H299 H 0.61504 0.68944 0.65164 0.0
H300 H 0.4284 0.66165 0.64456 0.0
H301 H 0.60259 0.8006 0.6289 0.0
H302 H 0.54696 0.67731 0.64725 0.0
H303 H 0.4822 0.78741 0.62841 0.0
C304 C 0.43074 0.7558 0.63343 0.0
C305 C 0.41484 0.72062 0.63841 0.0
C306 C 0.55915 0.70419 0.64303 0.0
C307 C 0.49417 0.72832 0.63522 0.0
C308 C 0.59801 0.71117 0.64558 0.0
C309 C 0.61431 0.74628 0.64082 0.0
C310 C 0.53631 0.73276 0.63588 0.0
C311 C 0.59106 0.77323 0.63286 0.0
C312 C 0.47037 0.75971 0.63175 0.0
C313 C 0.43945 0.68942 0.64088 0.0
N314 N 0.55302 0.76613 0.63084 0.0
N315 N 0.47794 0.69414 0.63946 0.0
H316 H 0.46846 0.35116 0.87297 0.0
H317 H 0.60753 0.1745 0.89105 0.0
H318 H 0.56307 0.35489 0.90709 0.0
H319 H 0.49482 0.16124 0.8698 0.0
H320 H 0.59847 0.24384 0.89145 0.0
H321 H 0.48459 0.28446 0.86652 0.0
C322 C 0.49283 0.33808 0.87898 0.0
C323 C 0.51422 0.35837 0.89073 0.0
C324 C 0.57587 0.22575 0.88657 0.0
C325 C 0.53286 0.28252 0.88333 0.0
C326 C 0.58103 0.18617 0.88629 0.0
C327 C 0.55162 0.16202 0.88062 0.0
C328 C 0.54113 0.24133 0.88109 0.0
C329 C 0.51805 0.17881 0.87446 0.0
C330 C 0.50193 0.30007 0.87532 0.0
C331 C 0.54554 0.34012 0.89811 0.0
N332 N 0.51356 0.2175 0.87498 0.0
N333 N 0.55384 0.30317 0.89432 0.0
H334 H 0.1102 0.17083 0.14312 0.0
H335 H 0.91431 0.28274 0.12976 0.0
H336 H 0.10462 0.28631 0.12408 0.0
H337 H 0.92084 0.16313 0.14328 0.0
H338 H 0.98358 0.28313 0.12512 0.0
H339 H 0.04071 0.16571 0.1407 0.0
C340 C 0.09437 0.195 0.13828 0.0
C341 C 0.11315 0.22924 0.13401 0.0
C342 C 0.96978 0.2567 0.12893 0.0
C343 C 0.0335 0.22371 0.13134 0.0
C344 C 0.93024 0.25647 0.1316 0.0
C345 C 0.91186 0.22298 0.13713 0.0
C346 C 0.99106 0.22327 0.13192 0.0
C347 C 0.93386 0.18971 0.13919 0.0
C348 C 0.05467 0.19205 0.13688 0.0
C349 C 0.09126 0.25947 0.12763 0.0
N350 N 0.97235 0.19082 0.13675 0.0
N351 N 0.05248 0.25618 0.1267 0.0
H352 H 0.96463 0.93323 0.45633 0.0
H353 H 0.98547 0.05898 0.53793 0.0
H354 H 0.98626 0.05532 0.45607 0.0
H355 H 0.95475 0.93882 0.53781 0.0
H356 H 0.98374 0.05883 0.50795 0.0
H357 H 0.95886 0.93527 0.48616 0.0
C358 C 0.96803 0.96052 0.46254 0.0
C359 C 0.97616 -0.00586 0.45369 0.0
C360 C 0.97717 0.03255 0.51448 0.0
C361 C 0.9697 -0.00336 0.48789 0.0
C362 C 0.97817 0.0326 0.53161 0.0
C363 C 0.97047 -0.00122 0.5404 0.0
C364 C 0.9686 -0.0016 0.50607 0.0
C365 C 0.96102 0.96552 0.53155 0.0
C366 C 0.96468 0.96166 0.47959 0.0
C367 C 0.98009 0.02868 0.4624 0.0
N368 N 0.96058 0.96612 0.51488 0.0
N369 N 0.97704 0.029 0.47903 0.0
H370 H 0.28499 0.80923 0.78182 0.0
H371 H 0.21349 0.70034 0.70182 0.0
H372 H 0.22862 0.69887 0.78414 0.0
H373 H 0.31058 0.77757 0.70122 0.0
H374 H 0.21194 0.70474 0.73184 0.0
H375 H 0.28829 0.80331 0.7519 0.0
C376 C 0.27334 0.78375 0.77603 0.0
C377 C 0.25652 0.75448 0.78544 0.0
C378 C 0.2336 0.72061 0.7251 0.0
C379 C 0.25978 0.7478 0.75131 0.0
C380 C 0.23438 0.71831 0.708 0.0
C381 C 0.2622 0.73865 0.69905 0.0
C382 C 0.26037 0.74398 0.73325 0.0
C383 C 0.28873 0.76133 0.70767 0.0
C384 C 0.27536 0.78035 0.75899 0.0
C385 C 0.24199 0.72201 0.77733 0.0
N386 N 0.28699 0.76362 0.7243 0.0
N387 N 0.24364 0.71968 0.76069 0.0
H388 H 0.53431 0.93496 0.01953 0.0
H389 H 0.5318 0.06878 0.93963 0.0
H390 H 0.53459 0.05881 0.02121 0.0
H391 H 0.5287 0.94497 0.93773 0.0
H392 H 0.53359 0.06556 0.96954 0.0
H393 H 0.53327 0.93792 0.98956 0.0
C394 C 0.53423 0.96279 0.0136 0.0
C395 C 0.5345 -0.00329 0.0229 0.0
C396 C 0.5325 0.03908 0.96259 0.0
C397 C 0.53325 0.00028 0.98859 0.0
C398 C 0.53145 0.04089 0.9455 0.0
C399 C 0.53006 0.00707 0.93615 0.0
C400 C 0.53219 0.00319 0.97044 0.0
C401 C 0.52972 0.97177 0.94444 0.0
C402 C 0.53359 0.96444 0.99648 0.0
C403 C 0.53436 0.03193 0.01455 0.0
N404 N 0.5308 0.97075 0.96111 0.0
N405 N 0.53372 0.03279 -0.00212 0.0
H406 H 0.19351 0.21339 0.20777 0.0
H407 H 0.31197 0.25764 0.28971 0.0
H408 H 0.31422 0.24149 0.20837 0.0
H409 H 0.19507 0.21621 0.28981 0.0
H410 H 0.31195 0.25563 0.2598 0.0
H411 H 0.19237 0.21756 0.23771 0.0
C412 C 0.21979 0.22043 0.21419 0.0
C413 C 0.25406 0.22704 0.20555 0.0
C414 C 0.28627 0.24701 0.26635 0.0
C415 C 0.25287 0.23199 0.23982 0.0
C416 C 0.28621 0.24824 0.28345 0.0
C417 C 0.25348 0.23695 0.2923 0.0
C418 C 0.25334 0.23452 0.25798 0.0
C419 C 0.22096 0.22508 0.2835 0.0
C420 C 0.2191 0.22279 0.23129 0.0
C421 C 0.2872 0.23607 0.21452 0.0
N422 N 0.22173 0.22413 0.26681 0.0
N423 N 0.28576 0.23832 0.23116 0.0
H424 H 0.70933 0.26377 0.20399 0.0
H425 H 0.83598 0.23868 0.28528 0.0
H426 H 0.83151 0.24405 0.20306 0.0
H427 H 0.71314 0.25419 0.28524 0.0
H428 H 0.83566 0.24203 0.25524 0.0
H429 H 0.71084 0.26174 0.2339 0.0
C430 C 0.7365 0.25902 0.21007 0.0
C431 C 0.77033 0.25404 0.201 0.0
C432 C 0.80882 0.24473 0.26183 0.0
C433 C 0.7723 0.25168 0.23531 0.0
C434 C 0.80899 0.24286 0.27897 0.0
C435 C 0.77455 0.24613 0.2878 0.0
C436 C 0.77396 0.24995 0.25348 0.0
C437 C 0.74041 0.25148 0.27898 0.0
C438 C 0.73736 0.25786 0.22718 0.0
C439 C 0.80472 0.24801 0.20957 0.0
N440 N 0.74101 0.2532 0.26234 0.0
N441 N 0.80483 0.24699 0.22626 0.0
H442 H 0.70292 0.78108 0.71699 0.0
H443 H 0.78672 0.6945 0.79993 0.0
H444 H 0.75815 0.67058 0.71978 0.0
H445 H 0.70717 0.78914 0.79905 0.0
H446 H 0.77787 0.68629 0.77044 0.0
H447 H 0.70552 0.78575 0.74692 0.0
C448 C 0.71549 0.75774 0.7239 0.0
C449 C 0.73049 0.72544 0.71588 0.0
C450 C 0.76213 0.70868 0.77671 0.0
C451 C 0.7337 0.73072 0.75009 0.0
C452 C 0.76722 0.71345 0.79354 0.0
C453 C 0.74774 0.74266 0.80195 0.0
C454 C 0.73773 0.73356 0.76814 0.0
C455 C 0.72273 0.76624 0.79305 0.0
C456 C 0.71684 0.76039 0.74098 0.0
C457 C 0.74628 0.69602 0.72545 0.0
N458 N 0.71868 0.76139 0.77658 0.0
N459 N 0.74772 0.69949 0.74204 0.0
H460 H 0.49165 0.43266 0.97011 0.0
H461 H 0.4753 0.56248 0.05091 0.0
H462 H 0.47867 0.55583 0.96937 0.0
H463 H 0.48905 0.4394 0.052 0.0
H464 H 0.47431 0.56017 0.02098 0.0
H465 H 0.4885 0.43411 9e-05 0.0
C466 C 0.48801 0.46 0.97624 0.0
C467 C 0.48556 0.49421 0.96722 0.0
C468 C 0.47747 0.53365 0.02775 0.0
C469 C 0.482 0.49606 0.00151 0.0
C470 C 0.47805 0.53494 0.04486 0.0
C471 C 0.4824 0.50108 0.05398 0.0
C472 C 0.48131 0.49825 0.01968 0.0
C473 C 0.48573 0.46622 0.04547 0.0
C474 C 0.48624 0.4608 0.99336 0.0
C475 C 0.4808 0.52877 0.97582 0.0
N476 N 0.48521 0.46572 0.02879 0.0
N477 N 0.47928 0.52881 0.99248 0.0
H478 H 0.05026 0.47556 0.54745 0.0
H479 H 0.92996 0.52003 0.46607 0.0
H480 H 0.92686 0.48545 0.54649 0.0
H481 H 0.05227 0.50099 0.46629 0.0
H482 H 0.92854 0.50919 0.49566 0.0
H483 H 0.05182 0.48655 0.51785 0.0
C484 C 0.02348 0.48004 0.54102 0.0
C485 C 0.98835 0.47956 0.54947 0.0
C486 C 0.95569 0.50736 0.48925 0.0
C487 C 0.98997 0.49221 0.51557 0.0
C488 C 0.95654 0.51359 0.47234 0.0
C489 C 0.9913 0.51142 0.46368 0.0
C490 C 0.98986 0.49898 0.4976 0.0
C491 C 0.02482 0.50293 0.47247 0.0
C492 C 0.0244 0.48629 0.52411 0.0
C493 C 0.95458 0.48554 0.54049 0.0
N494 N 0.02327 0.49706 0.48895 0.0
N495 N 0.95624 0.49165 0.52403 0.0
H496 H 0.1876 0.76321 0.60364 0.0
H497 H 0.10898 0.978 0.60786 0.0
H498 H 0.23875 0.85001 0.63457 0.0
H499 H 0.04002 0.88094 0.59297 0.0
H500 H 0.1622 0.93421 0.61367 0.0
H501 H 0.13878 0.80931 0.5953 0.0
C502 C 0.18879 0.79206 0.60857 0.0
C503 C 0.21712 0.80272 0.61991 0.0
C504 C 0.1354 0.92264 0.60909 0.0
C505 C 0.16139 0.85554 0.61039 0.0
C506 C 0.10511 0.94755 0.60574 0.0
C507 C 0.07 0.93301 0.60002 0.0
C508 C 0.13062 0.88309 0.60646 0.0
C509 C 0.06649 0.89333 0.59749 0.0
C510 C 0.16081 0.81828 0.60385 0.0
C511 C 0.21723 0.84052 0.62589 0.0
N512 N 0.09645 0.86976 0.60069 0.0
N513 N 0.18972 0.86562 0.62107 0.0
H514 H 0.38135 0.78382 0.83111 0.0
H515 H 0.42045 0.98119 0.87799 0.0
H516 H 0.2935 0.84324 0.85843 0.0
H517 H 0.49759 0.93262 0.84211 0.0
H518 H 0.37398 0.93042 0.87181 0.0
H519 H 0.42517 0.83711 0.83615 0.0
C520 C 0.37127 0.80806 0.83821 0.0
C521 C 0.3337 0.80904 0.84438 0.0
C522 C 0.40098 0.93107 0.86522 0.0
C523 C 0.38384 0.87031 0.85019 0.0
C524 C 0.42752 0.96003 0.86873 0.0
C525 C 0.46304 0.96107 0.86059 0.0
C526 C 0.4102 0.90279 0.8536 0.0
C527 C 0.47062 0.93295 0.8487 0.0
C528 C 0.39629 0.83859 0.84102 0.0
C529 C 0.32223 0.84131 0.85345 0.0
N530 N 0.44454 0.90483 0.84566 0.0
N531 N 0.34729 0.87065 0.85613 0.0
H532 H 0.43191 0.04341 0.07553 0.0
H533 H 0.30311 0.11829 0.15027 0.0
H534 H 0.43941 -0.00119 0.12488 0.0
H535 H 0.29481 0.16223 0.10084 0.0
H536 H 0.35099 0.07226 0.14091 0.0
H537 H 0.37966 0.08515 0.0843 0.0
C538 C 0.42249 0.04229 0.08821 0.0
C539 C 0.44019 0.01769 0.09952 0.0
C540 C 0.33859 0.09185 0.13209 0.0
C541 C 0.3804 0.06548 0.10963 0.0
C542 C 0.31121 0.11816 0.13742 0.0
C543 C 0.29504 0.14429 0.12633 0.0
C544 C 0.34998 0.09171 0.11554 0.0
C545 C 0.30659 0.1427 0.10983 0.0
C546 C 0.39263 0.06614 0.0932 0.0
C547 C 0.4267 0.01739 0.11576 0.0
N548 N 0.33348 0.11697 0.10495 0.0
N549 N 0.39771 0.04104 0.12034 0.0
H550 H 0.10451 0.0102 0.3896 0.0
H551 H 0.15133 0.22762 0.3649 0.0
H552 H 0.01933 0.09893 0.38417 0.0
H553 H 0.23595 0.13756 0.36276 0.0
H554 H 0.10391 0.18107 0.37414 0.0
H555 H 0.15426 0.05659 0.3817 0.0
C556 C 0.09627 0.0394 0.38677 0.0
C557 C 0.05769 0.0507 0.38751 0.0
C558 C 0.13284 0.17139 0.37167 0.0
C559 C 0.11433 0.10377 0.37857 0.0
C560 C 0.16002 0.19802 0.36642 0.0
C561 C 0.19767 0.18645 0.36297 0.0
C562 C 0.14324 0.13277 0.37355 0.0
C563 C 0.2072 0.14769 0.36523 0.0
C564 C 0.12466 0.06581 0.38225 0.0
C565 C 0.04865 0.08886 0.38372 0.0
N566 N 0.1801 0.12216 0.37036 0.0
N567 N 0.07673 0.11397 0.37944 0.0
H568 H 0.90913 0.98229 0.36401 0.0
H569 H 0.74689 0.13899 0.36956 0.0
H570 H 0.84366 0.00351 0.40809 0.0
H571 H 0.79364 0.0995 0.32348 0.0
H572 H 0.77767 0.08537 0.38344 0.0
H573 H 0.86313 0.02025 0.34844 0.0
C574 C 0.88476 -0.0055 0.37038 0.0
C575 C 0.88053 0.99026 0.38742 0.0
C576 C 0.78078 0.08804 0.37026 0.0
C577 C 0.82802 0.03408 0.36971 0.0
C578 C 0.76331 0.11875 0.36233 0.0
C579 C 0.76822 0.12399 0.34538 0.0
C580 C 0.80385 0.06273 0.36123 0.0
C581 C 0.78937 0.09666 0.33659 0.0
C582 C 0.85845 0.01611 0.36147 0.0
C583 C 0.84821 0.00633 0.395 0.0
N584 N 0.80697 0.06751 0.34467 0.0
N585 N 0.82352 0.02809 0.38613 0.0
H586 H 0.63259 0.03857 0.08142 0.0
H587 H 0.73695 0.10776 0.16376 0.0
H588 H 0.61937 0.98086 0.12801 0.0
H589 H 0.74355 0.16766 0.11742 0.0
H590 H 0.69905 0.05731 0.15047 0.0
H591 H 0.67889 0.0821 0.09395 0.0
C592 C 0.63964 0.03484 0.09427 0.0
C593 C 0.62179 0.00623 0.10372 0.0
C594 C 0.70901 0.08141 0.14321 0.0
C595 C 0.6747 0.05625 0.1182 0.0
C596 C 0.73065 0.1102 0.15078 0.0
C597 C 0.74319 0.14213 0.14172 0.0
C598 C 0.69993 0.08459 0.12646 0.0
C599 C 0.73428 0.14373 0.12494 0.0
C600 C 0.66608 0.05978 0.10143 0.0
C601 C 0.63228 0.00264 0.12029 0.0
N602 N 0.71308 0.11549 0.11789 0.0
N603 N 0.65785 0.02759 0.12704 0.0
H604 H 0.78443 0.84952 0.87908 0.0
H605 H 0.62787 0.00096 0.8548 0.0
H606 H 0.76554 0.88418 0.82889 0.0
H607 H 0.67265 0.99115 0.90401 0.0
H608 H 0.68084 0.96164 0.8448 0.0
H609 H 0.7472 0.90454 0.8884 0.0
C610 C 0.77294 0.86914 0.87003 0.0
C611 C 0.77763 0.86212 0.8532 0.0
C612 C 0.67941 0.96859 0.85775 0.0
C613 C 0.73445 0.92469 0.86374 0.0
C614 C 0.64909 0.99089 0.86348 0.0
C615 C 0.64556 -0.00116 0.8803 0.0
C616 C 0.70602 0.95367 0.86896 0.0
C617 C 0.67407 0.98542 0.89096 0.0
C618 C 0.75174 0.90057 0.87535 0.0
C619 C 0.76245 0.88853 0.84199 0.0
N620 N 0.70279 0.96297 0.88514 0.0
N621 N 0.74085 0.91832 0.84745 0.0
H622 H 0.74128 0.85136 0.63258 0.0
H623 H 0.92259 0.98887 0.63143 0.0
H624 H 0.80713 0.87924 0.67585 0.0
H625 H 0.84468 0.97813 0.59052 0.0
H626 H 0.87759 0.95297 0.64848 0.0
H627 H 0.77512 0.90181 0.6176 0.0
C628 C 0.76256 0.86841 0.63899 0.0
C629 C 0.77186 0.86071 0.65542 0.0
C630 C 0.87007 0.95881 0.63584 0.0
C631 C 0.81089 0.91825 0.6383 0.0
C632 C 0.89583 0.97919 0.62606 0.0
C633 C 0.88757 0.98601 0.60947 0.0
C634 C 0.836 0.94467 0.62892 0.0
C635 C 0.85229 0.97325 0.60323 0.0
C636 C 0.78182 0.89726 0.63043 0.0
C637 C 0.7993 0.88397 0.66316 0.0
N638 N 0.82799 0.9527 0.61291 0.0
N639 N 0.81827 0.91135 0.65445 0.0
H640 H 0.68738 0.2891 0.10881 0.0
H641 H 0.60081 0.49685 0.12417 0.0
H642 H 0.73987 0.36732 0.1433 0.0
H643 H 0.53168 0.39775 0.11213 0.0
H644 H 0.65685 0.45465 0.12706 0.0
H645 H 0.63506 0.33454 0.10501 0.0
C646 C 0.68817 0.31603 0.11544 0.0
C647 C 0.7179 0.32435 0.12647 0.0
C648 C 0.6293 0.44234 0.12383 0.0
C649 C 0.65811 0.3764 0.12214 0.0
C650 C 0.59743 0.46629 0.12218 0.0
C651 C 0.56158 0.4507 0.11798 0.0
C652 C 0.62527 0.40285 0.12088 0.0
C653 C 0.5587 0.41096 0.11551 0.0
C654 C 0.65817 0.34181 0.11334 0.0
C655 C 0.71734 0.35971 0.13476 0.0
N656 N 0.59018 0.38846 0.11686 0.0
N657 N 0.68783 0.38456 0.13242 0.0
H658 H 0.78628 0.34866 0.35848 0.0
H659 H 0.98286 0.37799 0.40761 0.0
H660 H 0.86541 0.25743 0.36982 0.0
H661 H 0.91494 0.47255 0.38977 0.0
H662 H 0.93672 0.33332 0.39578 0.0
H663 H 0.82984 0.39441 0.37177 0.0
C664 C 0.81271 0.33823 0.36381 0.0
C665 C 0.82228 0.29918 0.363 0.0
C666 C 0.93182 0.36383 0.39445 0.0
C667 C 0.87207 0.35124 0.37821 0.0
C668 C 0.95816 0.38941 0.40123 0.0
C669 C 0.95285 0.4291 0.39962 0.0
C670 C 0.89976 0.37794 0.386 0.0
C671 C 0.92022 0.44216 0.39125 0.0
C672 C 0.83757 0.36436 0.37135 0.0
C673 C 0.8569 0.28727 0.37009 0.0
N674 N 0.89488 0.41661 0.38473 0.0
N675 N 0.88048 0.31318 0.37738 0.0
H676 H -0.00325 0.60692 0.61649 0.0
H677 H 0.78272 0.6433 0.648 0.0
H678 H 0.91143 0.51729 0.62063 0.0
H679 H 0.87335 0.72771 0.6514 0.0
H680 H 0.82876 0.59733 0.63697 0.0
H681 H 0.95112 0.65233 0.6282 0.0
C682 C 0.96841 0.59677 0.61986 0.0
C683 C 0.95787 0.55825 0.61757 0.0
C684 C 0.8386 0.62587 0.64018 0.0
C685 C 0.90549 0.6101 0.63097 0.0
C686 C 0.81232 0.65216 0.64645 0.0
C687 C 0.82422 0.68942 0.6506 0.0
C688 C 0.877 0.63699 0.63794 0.0
C689 C 0.86293 0.69928 0.64838 0.0
C690 C 0.9424 0.62271 0.62659 0.0
C691 C 0.92079 0.54672 0.62219 0.0
N692 N 0.88792 0.67325 0.64213 0.0
N693 N 0.89589 0.57257 0.62863 0.0
H694 H 0.74784 0.64234 0.877 0.0
H695 H 0.52712 0.61178 0.90043 0.0
H696 H 0.66344 0.73273 0.87715 0.0
H697 H 0.61188 0.52222 0.90437 0.0
H698 H 0.57762 0.65685 0.89277 0.0
H699 H 0.69954 0.5983 0.88815 0.0
C700 C 0.71928 0.65302 0.87951 0.0
C701 C 0.70957 0.6912 0.87603 0.0
C702 C 0.58527 0.62739 0.89537 0.0
C703 C 0.65422 0.64099 0.88865 0.0
C704 C 0.55639 0.60158 0.89971 0.0
C705 C 0.56526 0.56312 0.90296 0.0
C706 C 0.62334 0.61465 0.89415 0.0
C707 C 0.60375 0.55161 0.90192 0.0
C708 C 0.69172 0.62785 0.88585 0.0
C709 C 0.67217 0.70349 0.87955 0.0
N710 N 0.63137 0.57725 0.89752 0.0
N711 N 0.64584 0.6784 0.88555 0.0
H712 H 0.35508 0.52244 0.92202 0.0
H713 H 0.30066 0.59076 0.83126 0.0
H714 H 0.41522 0.48655 0.87829 0.0
H715 H 0.26438 0.64917 0.87536 0.0
H716 H 0.33124 0.54173 0.84824 0.0
H717 H 0.31 0.55809 0.90481 0.0
C718 C 0.35842 0.52153 0.9088 0.0
C719 C 0.38924 0.50204 0.90157 0.0
C720 C 0.31624 0.5651 0.85417 0.0
C721 C 0.33799 0.54262 0.88189 0.0
C722 C 0.29873 0.59304 0.8445 0.0
C723 C 0.2805 0.6244 0.85191 0.0
C724 C 0.31523 0.56847 0.87135 0.0
C725 C 0.27866 0.62578 0.86913 0.0
C726 C 0.33281 0.54199 0.899 0.0
C727 C 0.39218 0.50172 0.88438 0.0
N728 N 0.29608 0.59836 0.87827 0.0
N729 N 0.36707 0.52199 0.87513 0.0
H730 H 0.16161 0.50104 0.58558 0.0
H731 H 0.2475 0.59615 0.66695 0.0
H732 H 0.11317 0.4847 0.63391 0.0
H733 H 0.26575 0.6404 0.61805 0.0
H734 H 0.21165 0.5421 0.6552 0.0
H735 H 0.21371 0.53856 0.5978 0.0
C736 C 0.16233 0.5047 0.59879 0.0
C737 C 0.13269 0.4904 0.60873 0.0
C738 C 0.224 0.56343 0.64707 0.0
C739 C 0.19199 0.53313 0.62271 0.0
C740 C 0.24448 0.59416 0.65374 0.0
C741 C 0.259 0.62303 0.64345 0.0
C742 C 0.21851 0.56147 0.63001 0.0
C743 C 0.25444 0.61905 0.62643 0.0
C744 C 0.19195 0.52623 0.60573 0.0
C745 C 0.13513 0.49583 0.62577 0.0
N746 N 0.23435 0.58896 0.62024 0.0
N747 N 0.16408 0.51714 0.63223 0.0
H748 H 0.11146 0.49672 0.37692 0.0
H749 H 0.27436 0.33813 0.37859 0.0
H750 H 0.16198 0.45326 0.42154 0.0
H751 H 0.22912 0.38723 0.33401 0.0
H752 H 0.24007 0.38643 0.39446 0.0
H753 H 0.16037 0.46335 0.36105 0.0
C754 C 0.13308 0.48043 0.3834 0.0
C755 C 0.13227 0.47724 0.40058 0.0
C756 C 0.23802 0.387 0.3812 0.0
C757 C 0.18827 0.43875 0.38245 0.0
C758 C 0.2576 0.3594 0.37212 0.0
C759 C 0.25406 0.35826 0.35496 0.0
C760 C 0.21443 0.41344 0.37308 0.0
C761 C 0.23235 0.3868 0.34722 0.0
C762 C 0.16108 0.46143 0.37432 0.0
C763 C 0.1613 0.45619 0.40831 0.0
N764 N 0.21288 0.41291 0.35637 0.0
N765 N 0.18784 0.43729 0.39917 0.0
H766 H 0.39597 0.49258 0.13913 0.0
H767 H 0.26185 0.314 0.12179 0.0
H768 H 0.35151 0.46664 0.09093 0.0
H769 H 0.27135 0.36456 0.17 0.0
H770 H 0.29555 0.36936 0.11028 0.0
H771 H 0.35106 0.44598 0.15091 0.0
C772 C 0.37645 0.47742 0.13105 0.0
C773 C 0.37769 0.48323 0.11401 0.0
C774 C 0.28992 0.36855 0.12335 0.0
C775 C 0.32673 0.42965 0.12737 0.0
C776 C 0.27087 0.33688 0.12994 0.0
C777 C 0.26408 0.33461 0.14689 0.0
C778 C 0.30288 0.39784 0.13382 0.0
C779 C 0.27608 0.36519 0.15687 0.0
C780 C 0.3508 0.45091 0.13779 0.0
C781 C 0.35164 0.46297 0.10412 0.0
N782 N 0.29538 0.39538 0.15021 0.0
N783 N 0.32759 0.43667 0.11093 0.0
loop_
_geom_bond_atom_site_label_1
_geom_bond_atom_site_label_2
_geom_bond_distance
_geom_bond_site_symmetry_2
_ccdc_geom_bond_type
C0 O1 1.160 1_455 S
C0 O7 1.185 . S
O1 C0 1.160 1_655 S
O2 Zn3 1.899 1_655 S
O2 C10 1.284 1_545 S
Zn3 O2 1.899 1_455 S
Zn3 O4 2.032 . S
Zn3 O7 2.086 . S
Zn3 O12 1.977 . S
O4 Zn3 2.032 . S
O4 C8 1.278 . S
C5 O6 1.203 . S
C5 O12 1.267 1_565 S
O6 C5 1.203 . S
O7 C0 1.185 . S
O7 Zn3 2.086 . S
C8 O4 1.278 . S
C8 O9 1.211 1_545 S
O9 C8 1.211 1_565 S
C10 O2 1.284 1_565 S
C10 O11 1.273 . S
O11 C10 1.273 . S
O12 Zn3 1.977 . S
O12 C5 1.267 1_545 S
C13 O14 1.160 . S
C13 O20 1.185 . S
O14 C13 1.160 . S
O15 Zn16 1.899 . S
O15 C23 1.284 . S
Zn16 O15 1.899 . S
Zn16 O17 2.032 . S
Zn16 O20 2.086 . S
Zn16 O25 1.977 . S
O17 Zn16 2.032 . S
O17 C21 1.278 . S
C18 O19 1.203 . S
C18 O25 1.267 . S
O19 C18 1.203 . S
O20 C13 1.185 . S
O20 Zn16 2.086 . S
C21 O17 1.278 . S
C21 O22 1.211 . S
O22 C21 1.211 . S
C23 O15 1.284 . S
C23 O24 1.273 . S
O24 C23 1.273 . S
O25 Zn16 1.977 . S
O25 C18 1.267 . S
C26 O27 1.160 . S
C26 O33 1.185 . S
O27 C26 1.160 . S
O28 Zn29 1.899 . S
O28 C36 1.284 1_565 S
Zn29 O28 1.899 . S
Zn29 O30 2.032 . S
Zn29 O33 2.086 . S
Zn29 O38 1.977 . S
O30 Zn29 2.032 . S
O30 C34 1.278 . S
C31 O32 1.203 . S
C31 O38 1.267 1_545 S
O32 C31 1.203 . S
O33 C26 1.185 . S
O33 Zn29 2.086 . S
C34 O30 1.278 . S
C34 O35 1.211 1_565 S
O35 C34 1.211 1_545 S
C36 O28 1.284 1_545 S
C36 O37 1.273 . S
O37 C36 1.273 . S
O38 Zn29 1.977 . S
O38 C31 1.267 1_565 S
C39 O40 1.160 . S
C39 O46 1.185 . S
O40 C39 1.160 . S
O41 Zn42 1.899 . S
O41 C49 1.284 . S
Zn42 O41 1.899 . S
Zn42 O43 2.032 . S
Zn42 O46 2.086 . S
Zn42 O51 1.977 . S
O43 Zn42 2.032 . S
O43 C47 1.278 . S
C44 O45 1.203 . S
C44 O51 1.267 . S
O45 C44 1.203 . S
O46 C39 1.185 . S
O46 Zn42 2.086 . S
C47 O43 1.278 . S
C47 O48 1.211 . S
O48 C47 1.211 . S
C49 O41 1.284 . S
C49 O50 1.273 . S
O50 C49 1.273 . S
O51 Zn42 1.977 . S
O51 C44 1.267 . S
C52 O53 1.160 1_455 S
C52 O59 1.185 . S
O53 C52 1.160 1_655 S
O54 Zn55 1.899 1_655 S
O54 C62 1.284 1_565 S
Zn55 O54 1.899 1_455 S
Zn55 O56 2.032 . S
Zn55 O59 2.086 . S
Zn55 O64 1.977 . S
O56 Zn55 2.032 . S
O56 C60 1.278 . S
C57 O58 1.203 . S
C57 O64 1.267 1_545 S
O58 C57 1.203 . S
O59 C52 1.185 . S
O59 Zn55 2.086 . S
C60 O56 1.278 . S
C60 O61 1.211 1_565 S
O61 C60 1.211 1_545 S
C62 O54 1.284 1_545 S
C62 O63 1.273 . S
O63 C62 1.273 . S
O64 Zn55 1.977 . S
O64 C57 1.267 1_565 S
C65 O66 1.160 . S
C65 O72 1.185 . S
O66 C65 1.160 . S
O67 Zn68 1.899 . S
O67 C75 1.284 . S
Zn68 O67 1.899 . S
Zn68 O69 2.032 . S
Zn68 O72 2.086 . S
Zn68 O77 1.977 . S
O69 Zn68 2.032 . S
O69 C73 1.278 . S
C70 O71 1.203 . S
C70 O77 1.267 . S
O71 C70 1.203 . S
O72 C65 1.185 . S
O72 Zn68 2.086 . S
C73 O69 1.278 . S
C73 O74 1.211 . S
O74 C73 1.211 . S
C75 O67 1.284 . S
C75 O76 1.273 . S
O76 C75 1.273 . S
O77 Zn68 1.977 . S
O77 C70 1.267 . S
C78 O79 1.160 . S
C78 O85 1.185 . S
O79 C78 1.160 . S
O80 Zn81 1.899 . S
O80 C88 1.284 1_545 S
Zn81 O80 1.899 . S
Zn81 O82 2.032 . S
Zn81 O85 2.086 . S
Zn81 O90 1.977 . S
O82 Zn81 2.032 . S
O82 C86 1.278 . S
C83 O84 1.203 . S
C83 O90 1.267 1_565 S
O84 C83 1.203 . S
O85 C78 1.185 . S
O85 Zn81 2.086 . S
C86 O82 1.278 . S
C86 O87 1.211 1_545 S
O87 C86 1.211 1_565 S
C88 O80 1.284 1_565 S
C88 O89 1.273 . S
O89 C88 1.273 . S
O90 Zn81 1.977 . S
O90 C83 1.267 1_545 S
C91 O92 1.160 . S
C91 O98 1.185 . S
O92 C91 1.160 . S
O93 Zn94 1.899 . S
O93 C101 1.284 . S
Zn94 O93 1.899 . S
Zn94 O95 2.032 . S
Zn94 O98 2.086 . S
Zn94 O103 1.977 . S
O95 Zn94 2.032 . S
O95 C99 1.278 . S
C96 O97 1.203 . S
C96 O103 1.267 . S
O97 C96 1.203 . S
O98 C91 1.185 . S
O98 Zn94 2.086 . S
C99 O95 1.278 . S
C99 O100 1.211 . S
O100 C99 1.211 . S
C101 O93 1.284 . S
C101 O102 1.273 . S
O102 C101 1.273 . S
O103 Zn94 1.977 . S
O103 C96 1.267 . S
C104 O105 1.160 . S
C104 O111 1.185 . S
O105 C104 1.160 . S
O106 Zn107 1.899 . S
O106 C114 1.284 . S
Zn107 O106 1.899 . S
Zn107 O108 2.032 . S
Zn107 O111 2.086 . S
Zn107 O116 1.977 . S
O108 Zn107 2.032 . S
O108 C112 1.278 . S
C109 O110 1.203 . S
C109 O116 1.267 . S
O110 C109 1.203 . S
O111 C104 1.185 . S
O111 Zn107 2.086 . S
C112 O108 1.278 . S
C112 O113 1.211 . S
O113 C112 1.211 . S
C114 O106 1.284 . S
C114 O115 1.273 . S
O115 C114 1.273 . S
O116 Zn107 1.977 . S
O116 C109 1.267 . S
C117 O118 1.160 . S
C117 O124 1.185 . S
O118 C117 1.160 . S
O119 Zn120 1.899 . S
O119 C127 1.284 . S
Zn120 O119 1.899 . S
Zn120 O121 2.032 . S
Zn120 O124 2.086 . S
Zn120 O129 1.977 . S
O121 Zn120 2.032 . S
O121 C125 1.278 . S
C122 O123 1.203 . S
C122 O129 1.267 . S
O123 C122 1.203 . S
O124 C117 1.185 . S
O124 Zn120 2.086 . S
C125 O121 1.278 . S
C125 O126 1.211 . S
O126 C125 1.211 . S
C127 O119 1.284 . S
C127 O128 1.273 . S
O128 C127 1.273 . S
O129 Zn120 1.977 . S
O129 C122 1.267 . S
C130 O131 1.160 . S
C130 O137 1.185 . S
O131 C130 1.160 . S
O132 Zn133 1.899 . S
O132 C140 1.284 . S
Zn133 O132 1.899 . S
Zn133 O134 2.032 . S
Zn133 O137 2.086 . S
Zn133 O142 1.977 . S
O134 Zn133 2.032 . S
O134 C138 1.278 . S
C135 O136 1.203 . S
C135 O142 1.267 . S
O136 C135 1.203 . S
O137 C130 1.185 . S
O137 Zn133 2.086 . S
C138 O134 1.278 . S
C138 O139 1.211 . S
O139 C138 1.211 . S
C140 O132 1.284 . S
C140 O141 1.273 . S
O141 C140 1.273 . S
O142 Zn133 1.977 . S
O142 C135 1.267 . S
C143 O144 1.160 . S
C143 O150 1.185 . S
O144 C143 1.160 . S
O145 Zn146 1.899 . S
O145 C153 1.284 . S
Zn146 O145 1.899 . S
Zn146 O147 2.032 . S
Zn146 O150 2.086 . S
Zn146 O155 1.977 . S
O147 Zn146 2.032 . S
O147 C151 1.278 . S
C148 O149 1.203 . S
C148 O155 1.267 . S
O149 C148 1.203 . S
O150 C143 1.185 . S
O150 Zn146 2.086 . S
C151 O147 1.278 . S
C151 O152 1.211 . S
O152 C151 1.211 . S
C153 O145 1.284 . S
C153 O154 1.273 . S
O154 C153 1.273 . S
O155 Zn146 1.977 . S
O155 C148 1.267 . S
C156 O157 1.160 . S
C156 O163 1.185 . S
O157 C156 1.160 . S
O158 Zn159 1.899 . S
O158 C166 1.284 . S
Zn159 O158 1.899 . S
Zn159 O160 2.032 . S
Zn159 O163 2.086 . S
Zn159 O168 1.977 . S
O160 Zn159 2.032 . S
O160 C164 1.278 . S
C161 O162 1.203 . S
C161 O168 1.267 . S
O162 C161 1.203 . S
O163 C156 1.185 . S
O163 Zn159 2.086 . S
C164 O160 1.278 . S
C164 O165 1.211 . S
O165 C164 1.211 . S
C166 O158 1.284 . S
C166 O167 1.273 . S
O167 C166 1.273 . S
O168 Zn159 1.977 . S
O168 C161 1.267 . S
C169 O170 1.160 . S
C169 O176 1.185 . S
O170 C169 1.160 . S
O171 Zn172 1.899 . S
O171 C179 1.284 . S
Zn172 O171 1.899 . S
Zn172 O173 2.032 . S
Zn172 O176 2.086 . S
Zn172 O181 1.977 1_455 S
O173 Zn172 2.032 . S
O173 C177 1.278 . S
C174 O175 1.203 . S
C174 O181 1.267 . S
O175 C174 1.203 . S
O176 C169 1.185 . S
O176 Zn172 2.086 . S
C177 O173 1.278 . S
C177 O178 1.211 . S
O178 C177 1.211 . S
C179 O171 1.284 . S
C179 O180 1.273 . S
O180 C179 1.273 . S
O181 Zn172 1.977 1_655 S
O181 C174 1.267 . S
C182 O183 1.160 . S
C182 O189 1.185 . S
O183 C182 1.160 . S
O184 Zn185 1.899 . S
O184 C192 1.284 . S
Zn185 O184 1.899 . S
Zn185 O186 2.032 . S
Zn185 O189 2.086 . S
Zn185 O194 1.977 . S
O186 Zn185 2.032 . S
O186 C190 1.278 . S
C187 O188 1.203 . S
C187 O194 1.267 . S
O188 C187 1.203 . S
O189 C182 1.185 . S
O189 Zn185 2.086 . S
C190 O186 1.278 . S
C190 O191 1.211 . S
O191 C190 1.211 . S
C192 O184 1.284 . S
C192 O193 1.273 . S
O193 C192 1.273 . S
O194 Zn185 1.977 . S
O194 C187 1.267 . S
C195 O196 1.160 . S
C195 O202 1.185 . S
O196 C195 1.160 . S
O197 Zn198 1.899 . S
O197 C205 1.284 . S
Zn198 O197 1.899 . S
Zn198 O199 2.032 . S
Zn198 O202 2.086 . S
Zn198 O207 1.977 1_455 S
O199 Zn198 2.032 . S
O199 C203 1.278 . S
C200 O201 1.203 . S
C200 O207 1.267 . S
O201 C200 1.203 . S
O202 C195 1.185 . S
O202 Zn198 2.086 . S
C203 O199 1.278 . S
C203 O204 1.211 . S
O204 C203 1.211 . S
C205 O197 1.284 . S
C205 O206 1.273 . S
O206 C205 1.273 . S
O207 Zn198 1.977 1_655 S
O207 C200 1.267 . S
H208 C214 0.930 . S
H209 C218 0.930 . S
H210 C223 0.929 . S
H211 C221 0.929 . S
H212 C216 0.929 . S
H213 C222 0.929 . S
C214 H208 0.930 . S
C214 C215 1.367 1_655 S
C214 C222 1.378 . S
C215 C214 1.367 1_455 S
C215 C223 1.433 . S
C216 H212 0.929 . S
C216 C218 1.378 . S
C216 C220 1.350 . S
C217 C220 1.463 . S
C217 C222 1.350 1_455 S
C217 N225 1.427 . S
C218 H209 0.930 . S
C218 C216 1.378 . S
C218 C219 1.367 . S
C219 C218 1.367 . S
C219 C221 1.433 1_455 S
C220 C216 1.350 . S
C220 C217 1.463 . S
C220 N224 1.427 1_455 S
C221 H211 0.929 . S
C221 C219 1.433 1_655 S
C221 N224 1.384 . S
C222 H213 0.929 . S
C222 C214 1.378 . S
C222 C217 1.350 1_655 S
C223 H210 0.929 . S
C223 C215 1.433 . S
C223 N225 1.384 . S
N224 C220 1.427 1_655 S
N224 C221 1.384 . S
N225 C217 1.427 . S
N225 C223 1.384 . S
H226 C232 0.930 . S
H227 C236 0.930 . S
H228 C241 0.929 . S
H229 C239 0.929 . S
H230 C234 0.929 . S
H231 C240 0.929 . S
C232 H226 0.930 . S
C232 C233 1.367 . S
C232 C240 1.378 . S
C233 C232 1.367 . S
C233 C241 1.433 . S
C234 H230 0.929 . S
C234 C236 1.378 . S
C234 C238 1.350 . S
C235 C238 1.463 1_655 S
C235 C240 1.350 . S
C235 N243 1.427 . S
C236 H227 0.930 . S
C236 C234 1.378 . S
C236 C237 1.367 . S
C237 C236 1.367 . S
C237 C239 1.433 . S
C238 C234 1.350 . S
C238 C235 1.463 1_455 S
C238 N242 1.427 . S
C239 H229 0.929 . S
C239 C237 1.433 . S
C239 N242 1.384 . S
C240 H231 0.929 . S
C240 C232 1.378 . S
C240 C235 1.350 . S
C241 H228 0.929 . S
C241 C233 1.433 . S
C241 N243 1.384 . S
N242 C238 1.427 . S
N242 C239 1.384 . S
N243 C235 1.427 . S
N243 C241 1.384 . S
H244 C250 0.930 . S
H245 C254 0.930 . S
H246 C259 0.929 . S
H247 C257 0.929 . S
H248 C252 0.929 . S
H249 C258 0.929 . S
C250 H244 0.930 . S
C250 C251 1.367 . S
C250 C258 1.378 . S
C251 C250 1.367 . S
C251 C259 1.433 . S
C252 H248 0.929 . S
C252 C254 1.378 . S
C252 C256 1.350 . S
C253 C256 1.463 . S
C253 C258 1.350 . S
C253 N261 1.427 . S
C254 H245 0.930 . S
C254 C252 1.378 . S
C254 C255 1.367 . S
C255 C254 1.367 . S
C255 C257 1.433 . S
C256 C252 1.350 . S
C256 C253 1.463 . S
C256 N260 1.427 . S
C257 H247 0.929 . S
C257 C255 1.433 . S
C257 N260 1.384 . S
C258 H249 0.929 . S
C258 C250 1.378 . S
C258 C253 1.350 . S
C259 H246 0.929 . S
C259 C251 1.433 . S
C259 N261 1.384 . S
N260 C256 1.427 . S
N260 C257 1.384 . S
N261 C253 1.427 . S
N261 C259 1.384 . S
H262 C268 0.930 . S
H263 C272 0.930 . S
H264 C277 0.929 . S
H265 C275 0.929 . S
H266 C270 0.929 . S
H267 C276 0.929 . S
C268 H262 0.930 . S
C268 C269 1.367 . S
C268 C276 1.378 . S
C269 C268 1.367 . S
C269 C277 1.433 . S
C270 H266 0.929 . S
C270 C272 1.378 . S
C270 C274 1.350 . S
C271 C274 1.463 . S
C271 C276 1.350 . S
C271 N279 1.427 . S
C272 H263 0.930 . S
C272 C270 1.378 . S
C272 C273 1.367 . S
C273 C272 1.367 . S
C273 C275 1.433 . S
C274 C270 1.350 . S
C274 C271 1.463 . S
C274 N278 1.427 . S
C275 H265 0.929 . S
C275 C273 1.433 . S
C275 N278 1.384 . S
C276 H267 0.929 . S
C276 C268 1.378 . S
C276 C271 1.350 . S
C277 H264 0.929 . S
C277 C269 1.433 . S
C277 N279 1.384 . S
N278 C274 1.427 . S
N278 C275 1.384 . S
N279 C271 1.427 . S
N279 C277 1.384 . S
H280 C286 0.930 . S
H281 C290 0.936 . S
H282 C295 0.929 . S
H283 C293 0.929 . S
H284 C288 0.929 1_655 S
H285 C294 0.929 . S
C286 H280 0.930 . S
C286 C287 1.367 . S
C286 C294 1.378 . S
C287 C286 1.367 . S
C287 C295 1.433 1_455 S
C288 H284 0.929 1_455 S
C288 C290 1.378 . S
C288 C292 1.350 . S
C289 C292 1.463 . S
C289 C294 1.350 . S
C289 N297 1.422 1_455 S
C290 H281 0.936 . S
C290 C288 1.378 . S
C290 C291 1.367 . S
C291 C290 1.367 . S
C291 C293 1.433 . S
C292 C288 1.350 . S
C292 C289 1.463 . S
C292 N296 1.427 . S
C293 H283 0.929 . S
C293 C291 1.433 . S
C293 N296 1.384 . S
C294 H285 0.929 . S
C294 C286 1.378 . S
C294 C289 1.350 . S
C295 H282 0.929 . S
C295 C287 1.433 1_655 S
C295 N297 1.385 . S
N296 C292 1.427 . S
N296 C293 1.384 . S
N297 C289 1.422 1_655 S
N297 C295 1.385 . S
H298 C304 0.930 . S
H299 C308 0.930 . S
H300 C313 0.929 . S
H301 C311 0.929 . S
H302 C306 0.929 . S
H303 C312 0.929 . S
C304 H298 0.930 . S
C304 C305 1.367 . S
C304 C312 1.378 . S
C305 C304 1.367 . S
C305 C313 1.433 . S
C306 H302 0.929 . S
C306 C308 1.378 . S
C306 C310 1.350 . S
C307 C310 1.463 . S
C307 C312 1.350 . S
C307 N315 1.427 . S
C308 H299 0.930 . S
C308 C306 1.378 . S
C308 C309 1.367 . S
C309 C308 1.367 . S
C309 C311 1.433 . S
C310 C306 1.350 . S
C310 C307 1.463 . S
C310 N314 1.427 . S
C311 H301 0.929 . S
C311 C309 1.433 . S
C311 N314 1.384 . S
C312 H303 0.929 . S
C312 C304 1.378 . S
C312 C307 1.350 . S
C313 H300 0.929 . S
C313 C305 1.433 . S
C313 N315 1.384 . S
N314 C310 1.427 . S
N314 C311 1.384 . S
N315 C307 1.427 . S
N315 C313 1.384 . S
H316 C322 0.930 . S
H317 C326 0.930 . S
H318 C331 0.929 . S
H319 C329 0.929 . S
H320 C324 0.929 . S
H321 C330 0.929 . S
C322 H316 0.930 . S
C322 C323 1.367 . S
C322 C330 1.378 . S
C323 C322 1.367 . S
C323 C331 1.433 . S
C324 H320 0.929 . S
C324 C326 1.378 . S
C324 C328 1.350 . S
C325 C328 1.463 . S
C325 C330 1.350 . S
C325 N333 1.427 . S
C326 H317 0.930 . S
C326 C324 1.378 . S
C326 C327 1.367 . S
C327 C326 1.367 . S
C327 C329 1.433 . S
C328 C324 1.350 . S
C328 C325 1.463 . S
C328 N332 1.427 . S
C329 H319 0.929 . S
C329 C327 1.433 . S
C329 N332 1.384 . S
C330 H321 0.929 . S
C330 C322 1.378 . S
C330 C325 1.350 . S
C331 H318 0.929 . S
C331 C323 1.433 . S
C331 N333 1.384 . S
N332 C328 1.427 . S
N332 C329 1.384 . S
N333 C325 1.427 . S
N333 C331 1.384 . S
H334 C340 0.930 . S
H335 C344 0.930 . S
H336 C349 0.929 . S
H337 C347 0.929 . S
H338 C342 0.929 . S
H339 C348 0.929 . S
C340 H334 0.930 . S
C340 C341 1.367 . S
C340 C348 1.378 . S
C341 C340 1.367 . S
C341 C349 1.433 . S
C342 H338 0.929 . S
C342 C344 1.378 . S
C342 C346 1.350 . S
C343 C346 1.463 1_455 S
C343 C348 1.350 . S
C343 N351 1.427 . S
C344 H335 0.930 . S
C344 C342 1.378 . S
C344 C345 1.367 . S
C345 C344 1.367 . S
C345 C347 1.433 . S
C346 C342 1.350 . S
C346 C343 1.463 1_655 S
C346 N350 1.427 . S
C347 H337 0.929 . S
C347 C345 1.433 . S
C347 N350 1.384 . S
C348 H339 0.929 . S
C348 C340 1.378 . S
C348 C343 1.350 . S
C349 H336 0.929 . S
C349 C341 1.433 . S
C349 N351 1.384 . S
N350 C346 1.427 . S
N350 C347 1.384 . S
N351 C343 1.427 . S
N351 C349 1.384 . S
H352 C358 0.930 . S
H353 C362 0.930 . S
H354 C367 0.929 . S
H355 C365 0.929 . S
H356 C360 0.929 . S
H357 C366 0.929 . S
C358 H352 0.930 . S
C358 C359 1.367 . S
C358 C366 1.378 . S
C359 C358 1.367 . S
C359 C367 1.433 1_465 S
C360 H356 0.929 . S
C360 C362 1.378 . S
C360 C364 1.350 1_655 S
C361 C364 1.463 1_565 S
C361 C366 1.350 . S
C361 N369 1.427 1_465 S
C362 H353 0.930 . S
C362 C360 1.378 . S
C362 C363 1.367 1_655 S
C363 C362 1.367 1_455 S
C363 C365 1.433 1_545 S
C364 C360 1.350 1_455 S
C364 C361 1.463 1_545 S
C364 N368 1.427 1_545 S
C365 H355 0.929 . S
C365 C363 1.433 1_565 S
C365 N368 1.384 . S
C366 H357 0.929 . S
C366 C358 1.378 . S
C366 C361 1.350 . S
C367 H354 0.929 . S
C367 C359 1.433 1_645 S
C367 N369 1.384 . S
N368 C364 1.427 1_565 S
N368 C365 1.384 . S
N369 C361 1.427 1_645 S
N369 C367 1.384 . S
H370 C376 0.930 . S
H371 C380 0.930 . S
H372 C385 0.929 . S
H373 C383 0.929 . S
H374 C378 0.929 . S
H375 C384 0.929 . S
C376 H370 0.930 . S
C376 C377 1.367 . S
C376 C384 1.378 . S
C377 C376 1.367 . S
C377 C385 1.433 . S
C378 H374 0.929 . S
C378 C380 1.378 . S
C378 C382 1.350 . S
C379 C382 1.463 . S
C379 C384 1.350 . S
C379 N387 1.427 . S
C380 H371 0.930 . S
C380 C378 1.378 . S
C380 C381 1.367 . S
C381 C380 1.367 . S
C381 C383 1.433 . S
C382 C378 1.350 . S
C382 C379 1.463 . S
C382 N386 1.427 . S
C383 H373 0.929 . S
C383 C381 1.433 . S
C383 N386 1.384 . S
C384 H375 0.929 . S
C384 C376 1.378 . S
C384 C379 1.350 . S
C385 H372 0.929 . S
C385 C377 1.433 . S
C385 N387 1.384 . S
N386 C382 1.427 . S
N386 C383 1.384 . S
N387 C379 1.427 . S
N387 C385 1.384 . S
H388 C394 0.930 . S
H389 C398 0.930 . S
H390 C403 0.929 . S
H391 C401 0.929 . S
H392 C396 0.929 . S
H393 C402 0.929 . S
C394 H388 0.930 . S
C394 C395 1.367 . S
C394 C402 1.378 . S
C395 C394 1.367 . S
C395 C403 1.433 1_565 S
C396 H392 0.929 . S
C396 C398 1.378 . S
C396 C400 1.350 . S
C397 C400 1.463 1_564 S
C397 C402 1.350 . S
C397 N405 1.427 1_565 S
C398 H389 0.930 . S
C398 C396 1.378 . S
C398 C399 1.367 . S
C399 C398 1.367 . S
C399 C401 1.433 1_545 S
C400 C396 1.350 . S
C400 C397 1.463 1_546 S
C400 N404 1.427 1_545 S
C401 H391 0.929 . S
C401 C399 1.433 1_565 S
C401 N404 1.384 . S
C402 H393 0.929 . S
C402 C394 1.378 . S
C402 C397 1.350 . S
C403 H390 0.929 . S
C403 C395 1.433 1_545 S
C403 N405 1.384 . S
N404 C400 1.427 1_565 S
N404 C401 1.384 . S
N405 C397 1.427 1_545 S
N405 C403 1.384 . S
H406 C412 0.930 . S
H407 C416 0.930 . S
H408 C421 0.929 . S
H409 C419 0.929 . S
H410 C414 0.929 . S
H411 C420 0.929 . S
C412 H406 0.930 . S
C412 C413 1.367 . S
C412 C420 1.378 . S
C413 C412 1.367 . S
C413 C421 1.433 . S
C414 H410 0.929 . S
C414 C416 1.378 . S
C414 C418 1.350 . S
C415 C418 1.463 . S
C415 C420 1.350 . S
C415 N423 1.427 . S
C416 H407 0.930 . S
C416 C414 1.378 . S
C416 C417 1.367 . S
C417 C416 1.367 . S
C417 C419 1.433 . S
C418 C414 1.350 . S
C418 C415 1.463 . S
C418 N422 1.427 . S
C419 H409 0.929 . S
C419 C417 1.433 . S
C419 N422 1.384 . S
C420 H411 0.929 . S
C420 C412 1.378 . S
C420 C415 1.350 . S
C421 H408 0.929 . S
C421 C413 1.433 . S
C421 N423 1.384 . S
N422 C418 1.427 . S
N422 C419 1.384 . S
N423 C415 1.427 . S
N423 C421 1.384 . S
H424 C430 0.930 . S
H425 C434 0.930 . S
H426 C439 0.929 . S
H427 C437 0.929 . S
H428 C432 0.929 . S
H429 C438 0.929 . S
C430 H424 0.930 . S
C430 C431 1.367 . S
C430 C438 1.378 . S
C431 C430 1.367 . S
C431 C439 1.433 . S
C432 H428 0.929 . S
C432 C434 1.378 . S
C432 C436 1.350 . S
C433 C436 1.463 . S
C433 C438 1.350 . S
C433 N441 1.427 . S
C434 H425 0.930 . S
C434 C432 1.378 . S
C434 C435 1.367 . S
C435 C434 1.367 . S
C435 C437 1.433 . S
C436 C432 1.350 . S
C436 C433 1.463 . S
C436 N440 1.427 . S
C437 H427 0.929 . S
C437 C435 1.433 . S
C437 N440 1.384 . S
C438 H429 0.929 . S
C438 C430 1.378 . S
C438 C433 1.350 . S
C439 H426 0.929 . S
C439 C431 1.433 . S
C439 N441 1.384 . S
N440 C436 1.427 . S
N440 C437 1.384 . S
N441 C433 1.427 . S
N441 C439 1.384 . S
H442 C448 0.930 . S
H443 C452 0.930 . S
H444 C457 0.929 . S
H445 C455 0.929 . S
H446 C450 0.929 . S
H447 C456 0.929 . S
C448 H442 0.930 . S
C448 C449 1.367 . S
C448 C456 1.378 . S
C449 C448 1.367 . S
C449 C457 1.433 . S
C450 H446 0.929 . S
C450 C452 1.378 . S
C450 C454 1.350 . S
C451 C454 1.463 . S
C451 C456 1.350 . S
C451 N459 1.427 . S
C452 H443 0.930 . S
C452 C450 1.378 . S
C452 C453 1.367 . S
C453 C452 1.367 . S
C453 C455 1.433 . S
C454 C450 1.350 . S
C454 C451 1.463 . S
C454 N458 1.427 . S
C455 H445 0.929 . S
C455 C453 1.433 . S
C455 N458 1.384 . S
C456 H447 0.929 . S
C456 C448 1.378 . S
C456 C451 1.350 . S
C457 H444 0.929 . S
C457 C449 1.433 . S
C457 N459 1.384 . S
N458 C454 1.427 . S
N458 C455 1.384 . S
N459 C451 1.427 . S
N459 C457 1.384 . S
H460 C466 0.930 . S
H461 C470 0.930 . S
H462 C475 0.929 . S
H463 C473 0.929 . S
H464 C468 0.929 . S
H465 C474 0.929 . S
C466 H460 0.930 . S
C466 C467 1.367 . S
C466 C474 1.378 . S
C467 C466 1.367 . S
C467 C475 1.433 . S
C468 H464 0.929 . S
C468 C470 1.378 . S
C468 C472 1.350 . S
C469 C472 1.463 1_556 S
C469 C474 1.350 . S
C469 N477 1.427 . S
C470 H461 0.930 . S
C470 C468 1.378 . S
C470 C471 1.367 . S
C471 C470 1.367 . S
C471 C473 1.433 . S
C472 C468 1.350 . S
C472 C469 1.463 1_554 S
C472 N476 1.427 . S
C473 H463 0.929 . S
C473 C471 1.433 . S
C473 N476 1.384 . S
C474 H465 0.929 . S
C474 C466 1.378 . S
C474 C469 1.350 . S
C475 H462 0.929 . S
C475 C467 1.433 . S
C475 N477 1.384 . S
N476 C472 1.427 . S
N476 C473 1.384 . S
N477 C469 1.427 . S
N477 C475 1.384 . S
H478 C484 0.930 . S
H479 C488 0.930 . S
H480 C493 0.929 . S
H481 C491 0.929 . S
H482 C486 0.929 . S
H483 C492 0.929 . S
C484 H478 0.930 . S
C484 C485 1.367 . S
C484 C492 1.378 . S
C485 C484 1.367 . S
C485 C493 1.433 1_455 S
C486 H482 0.929 . S
C486 C488 1.378 . S
C486 C490 1.350 1_655 S
C487 C490 1.463 . S
C487 C492 1.350 . S
C487 N495 1.427 1_455 S
C488 H479 0.930 . S
C488 C486 1.378 . S
C488 C489 1.367 1_655 S
C489 C488 1.367 1_455 S
C489 C491 1.433 . S
C490 C486 1.350 1_455 S
C490 C487 1.463 . S
C490 N494 1.427 . S
C491 H481 0.929 . S
C491 C489 1.433 . S
C491 N494 1.384 . S
C492 H483 0.929 . S
C492 C484 1.378 . S
C492 C487 1.350 . S
C493 H480 0.929 . S
C493 C485 1.433 1_655 S
C493 N495 1.384 . S
N494 C490 1.427 . S
N494 C491 1.384 . S
N495 C487 1.427 1_655 S
N495 C493 1.384 . S
H496 C502 0.930 . S
H497 C506 0.939 . S
H498 C511 0.929 . S
H499 C509 0.929 . S
H500 C504 0.929 . S
H501 C510 0.929 . S
C502 H496 0.930 . S
C502 C503 1.367 . S
C502 C510 1.378 . S
C503 C502 1.367 . S
C503 C511 1.433 . S
C504 H500 0.929 . S
C504 C506 1.378 . S
C504 C508 1.350 . S
C505 C508 1.463 . S
C505 C510 1.350 . S
C505 N513 1.427 . S
C506 H497 0.939 . S
C506 C504 1.378 . S
C506 C507 1.367 . S
C507 C506 1.367 . S
C507 C509 1.433 . S
C508 C504 1.350 . S
C508 C505 1.463 . S
C508 N512 1.427 . S
C509 H499 0.929 . S
C509 C507 1.433 . S
C509 N512 1.384 . S
C510 H501 0.929 . S
C510 C502 1.378 . S
C510 C505 1.350 . S
C511 H498 0.929 . S
C511 C503 1.433 . S
C511 N513 1.384 . S
N512 C508 1.427 . S
N512 C509 1.384 . S
N513 C505 1.427 . S
N513 C511 1.384 . S
H514 C520 0.930 . S
H515 C524 0.930 . S
H516 C529 0.929 . S
H517 C527 0.929 . S
H518 C522 0.929 . S
H519 C528 0.929 . S
C520 H514 0.930 . S
C520 C521 1.367 . S
C520 C528 1.378 . S
C521 C520 1.367 . S
C521 C529 1.433 . S
C522 H518 0.929 . S
C522 C524 1.378 . S
C522 C526 1.350 . S
C523 C526 1.463 . S
C523 C528 1.350 . S
C523 N531 1.427 . S
C524 H515 0.930 . S
C524 C522 1.378 . S
C524 C525 1.367 . S
C525 C524 1.367 . S
C525 C527 1.433 . S
C526 C522 1.350 . S
C526 C523 1.463 . S
C526 N530 1.427 . S
C527 H517 0.929 . S
C527 C525 1.433 . S
C527 N530 1.384 . S
C528 H519 0.929 . S
C528 C520 1.378 . S
C528 C523 1.350 . S
C529 H516 0.929 . S
C529 C521 1.433 . S
C529 N531 1.384 . S
N530 C526 1.427 . S
N530 C527 1.384 . S
N531 C523 1.427 . S
N531 C529 1.384 . S
H532 C538 0.930 . S
H533 C542 0.930 . S
H534 C547 0.929 . S
H535 C545 0.929 . S
H536 C540 0.929 . S
H537 C546 0.929 . S
C538 H532 0.930 . S
C538 C539 1.367 . S
C538 C546 1.378 . S
C539 C538 1.367 . S
C539 C547 1.433 . S
C540 H536 0.929 . S
C540 C542 1.378 . S
C540 C544 1.350 . S
C541 C544 1.463 . S
C541 C546 1.350 . S
C541 N549 1.427 . S
C542 H533 0.930 . S
C542 C540 1.378 . S
C542 C543 1.367 . S
C543 C542 1.367 . S
C543 C545 1.433 . S
C544 C540 1.350 . S
C544 C541 1.463 . S
C544 N548 1.427 . S
C545 H535 0.929 . S
C545 C543 1.433 . S
C545 N548 1.384 . S
C546 H537 0.929 . S
C546 C538 1.378 . S
C546 C541 1.350 . S
C547 H534 0.929 . S
C547 C539 1.433 . S
C547 N549 1.384 . S
N548 C544 1.427 . S
N548 C545 1.384 . S
N549 C541 1.427 . S
N549 C547 1.384 . S
H550 C556 0.930 1_565 S
H551 C560 0.930 . S
H552 C565 0.929 . S
H553 C563 0.929 . S
H554 C558 0.929 . S
H555 C564 0.929 . S
C556 H550 0.930 1_545 S
C556 C557 1.367 . S
C556 C564 1.378 . S
C557 C556 1.367 . S
C557 C565 1.433 . S
C558 H554 0.929 . S
C558 C560 1.378 . S
C558 C562 1.350 . S
C559 C562 1.463 . S
C559 C564 1.350 . S
C559 N567 1.427 . S
C560 H551 0.930 . S
C560 C558 1.378 . S
C560 C561 1.367 . S
C561 C560 1.367 . S
C561 C563 1.433 . S
C562 C558 1.350 . S
C562 C559 1.463 . S
C562 N566 1.427 . S
C563 H553 0.929 . S
C563 C561 1.433 . S
C563 N566 1.384 . S
C564 H555 0.929 . S
C564 C556 1.378 . S
C564 C559 1.350 . S
C565 H552 0.929 . S
C565 C557 1.433 . S
C565 N567 1.384 . S
N566 C562 1.427 . S
N566 C563 1.384 . S
N567 C559 1.427 . S
N567 C565 1.384 . S
H568 C574 0.930 . S
H569 C578 0.930 . S
H570 C583 0.929 . S
H571 C581 0.929 . S
H572 C576 0.929 . S
H573 C582 0.929 . S
C574 H568 0.930 . S
C574 C575 1.367 . S
C574 C582 1.378 . S
C575 C574 1.367 . S
C575 C583 1.433 . S
C576 H572 0.929 . S
C576 C578 1.378 . S
C576 C580 1.350 . S
C577 C580 1.463 . S
C577 C582 1.350 . S
C577 N585 1.427 . S
C578 H569 0.930 . S
C578 C576 1.378 . S
C578 C579 1.367 . S
C579 C578 1.367 . S
C579 C581 1.433 . S
C580 C576 1.350 . S
C580 C577 1.463 . S
C580 N584 1.427 . S
C581 H571 0.929 . S
C581 C579 1.433 . S
C581 N584 1.384 . S
C582 H573 0.929 . S
C582 C574 1.378 . S
C582 C577 1.350 . S
C583 H570 0.929 . S
C583 C575 1.433 . S
C583 N585 1.384 . S
N584 C580 1.427 . S
N584 C581 1.384 . S
N585 C577 1.427 . S
N585 C583 1.384 . S
H586 C592 0.930 . S
H587 C596 0.930 . S
H588 C601 0.929 1_565 S
H589 C599 0.929 . S
H590 C594 0.929 . S
H591 C600 0.929 . S
C592 H586 0.930 . S
C592 C593 1.367 . S
C592 C600 1.378 . S
C593 C592 1.367 . S
C593 C601 1.433 . S
C594 H590 0.929 . S
C594 C596 1.378 . S
C594 C598 1.350 . S
C595 C598 1.463 . S
C595 C600 1.350 . S
C595 N603 1.427 . S
C596 H587 0.930 . S
C596 C594 1.378 . S
C596 C597 1.367 . S
C597 C596 1.367 . S
C597 C599 1.433 . S
C598 C594 1.350 . S
C598 C595 1.463 . S
C598 N602 1.427 . S
C599 H589 0.929 . S
C599 C597 1.433 . S
C599 N602 1.384 . S
C600 H591 0.929 . S
C600 C592 1.378 . S
C600 C595 1.350 . S
C601 H588 0.929 1_545 S
C601 C593 1.433 . S
C601 N603 1.384 . S
N602 C598 1.427 . S
N602 C599 1.384 . S
N603 C595 1.427 . S
N603 C601 1.384 . S
H604 C610 0.930 . S
H605 C614 0.930 . S
H606 C619 0.929 . S
H607 C617 0.929 . S
H608 C612 0.929 . S
H609 C618 0.929 . S
C610 H604 0.930 . S
C610 C611 1.367 . S
C610 C618 1.378 . S
C611 C610 1.367 . S
C611 C619 1.433 . S
C612 H608 0.929 . S
C612 C614 1.378 . S
C612 C616 1.350 . S
C613 C616 1.463 . S
C613 C618 1.350 . S
C613 N621 1.427 . S
C614 H605 0.930 . S
C614 C612 1.378 . S
C614 C615 1.367 . S
C615 C614 1.367 . S
C615 C617 1.433 . S
C616 C612 1.350 . S
C616 C613 1.463 . S
C616 N620 1.427 . S
C617 H607 0.929 . S
C617 C615 1.433 . S
C617 N620 1.384 . S
C618 H609 0.929 . S
C618 C610 1.378 . S
C618 C613 1.350 . S
C619 H606 0.929 . S
C619 C611 1.433 . S
C619 N621 1.384 . S
N620 C616 1.427 . S
N620 C617 1.384 . S
N621 C613 1.427 . S
N621 C619 1.384 . S
H622 C628 0.930 . S
H623 C632 0.930 . S
H624 C637 0.929 . S
H625 C635 0.929 1_545 S
H626 C630 0.929 . S
H627 C636 0.929 . S
C628 H622 0.930 . S
C628 C629 1.367 . S
C628 C636 1.378 . S
C629 C628 1.367 . S
C629 C637 1.433 . S
C630 H626 0.929 . S
C630 C632 1.378 . S
C630 C634 1.350 . S
C631 C634 1.463 . S
C631 C636 1.350 . S
C631 N639 1.427 . S
C632 H623 0.930 . S
C632 C630 1.378 . S
C632 C633 1.367 . S
C633 C632 1.367 . S
C633 C635 1.433 . S
C634 C630 1.350 . S
C634 C631 1.463 . S
C634 N638 1.427 . S
C635 H625 0.929 1_565 S
C635 C633 1.433 . S
C635 N638 1.384 . S
C636 H627 0.929 . S
C636 C628 1.378 . S
C636 C631 1.350 . S
C637 H624 0.929 . S
C637 C629 1.433 . S
C637 N639 1.384 . S
N638 C634 1.427 . S
N638 C635 1.384 . S
N639 C631 1.427 . S
N639 C637 1.384 . S
H640 C646 0.930 . S
H641 C650 0.930 . S
H642 C655 0.929 . S
H643 C653 0.929 . S
H644 C648 0.929 . S
H645 C654 0.929 . S
C646 H640 0.930 . S
C646 C647 1.367 . S
C646 C654 1.378 . S
C647 C646 1.367 . S
C647 C655 1.433 . S
C648 H644 0.929 . S
C648 C650 1.378 . S
C648 C652 1.350 . S
C649 C652 1.463 . S
C649 C654 1.350 . S
C649 N657 1.427 . S
C650 H641 0.930 . S
C650 C648 1.378 . S
C650 C651 1.367 . S
C651 C650 1.367 . S
C651 C653 1.433 . S
C652 C648 1.350 . S
C652 C649 1.463 . S
C652 N656 1.427 . S
C653 H643 0.929 . S
C653 C651 1.433 . S
C653 N656 1.384 . S
C654 H645 0.929 . S
C654 C646 1.378 . S
C654 C649 1.350 . S
C655 H642 0.929 . S
C655 C647 1.433 . S
C655 N657 1.384 . S
N656 C652 1.427 . S
N656 C653 1.384 . S
N657 C649 1.427 . S
N657 C655 1.384 . S
H658 C664 0.930 . S
H659 C668 0.930 . S
H660 C673 0.929 . S
H661 C671 0.929 . S
H662 C666 0.929 . S
H663 C672 0.929 . S
C664 H658 0.930 . S
C664 C665 1.367 . S
C664 C672 1.378 . S
C665 C664 1.367 . S
C665 C673 1.433 . S
C666 H662 0.929 . S
C666 C668 1.378 . S
C666 C670 1.350 . S
C667 C670 1.463 . S
C667 C672 1.350 . S
C667 N675 1.427 . S
C668 H659 0.930 . S
C668 C666 1.378 . S
C668 C669 1.367 . S
C669 C668 1.367 . S
C669 C671 1.433 . S
C670 C666 1.350 . S
C670 C667 1.463 . S
C670 N674 1.427 . S
C671 H661 0.929 . S
C671 C669 1.433 . S
C671 N674 1.384 . S
C672 H663 0.929 . S
C672 C664 1.378 . S
C672 C667 1.350 . S
C673 H660 0.929 . S
C673 C665 1.433 . S
C673 N675 1.384 . S
N674 C670 1.427 . S
N674 C671 1.384 . S
N675 C667 1.427 . S
N675 C673 1.384 . S
H676 C682 0.930 . S
H677 C686 0.930 . S
H678 C691 0.929 . S
H679 C689 0.929 . S
H680 C684 0.929 . S
H681 C690 0.929 . S
C682 H676 0.930 . S
C682 C683 1.367 . S
C682 C690 1.378 . S
C683 C682 1.367 . S
C683 C691 1.433 . S
C684 H680 0.929 . S
C684 C686 1.378 . S
C684 C688 1.350 . S
C685 C688 1.463 . S
C685 C690 1.350 . S
C685 N693 1.427 . S
C686 H677 0.930 . S
C686 C684 1.378 . S
C686 C687 1.367 . S
C687 C686 1.367 . S
C687 C689 1.433 . S
C688 C684 1.350 . S
C688 C685 1.463 . S
C688 N692 1.427 . S
C689 H679 0.929 . S
C689 C687 1.433 . S
C689 N692 1.384 . S
C690 H681 0.929 . S
C690 C682 1.378 . S
C690 C685 1.350 . S
C691 H678 0.929 . S
C691 C683 1.433 . S
C691 N693 1.384 . S
N692 C688 1.427 . S
N692 C689 1.384 . S
N693 C685 1.427 . S
N693 C691 1.384 . S
H694 C700 0.930 . S
H695 C704 0.930 . S
H696 C709 0.929 . S
H697 C707 0.929 . S
H698 C702 0.929 . S
H699 C708 0.929 . S
C700 H694 0.930 . S
C700 C701 1.367 . S
C700 C708 1.378 . S
C701 C700 1.367 . S
C701 C709 1.433 . S
C702 H698 0.929 . S
C702 C704 1.378 . S
C702 C706 1.350 . S
C703 C706 1.463 . S
C703 C708 1.350 . S
C703 N711 1.427 . S
C704 H695 0.930 . S
C704 C702 1.378 . S
C704 C705 1.367 . S
C705 C704 1.367 . S
C705 C707 1.433 . S
C706 C702 1.350 . S
C706 C703 1.463 . S
C706 N710 1.427 . S
C707 H697 0.929 . S
C707 C705 1.433 . S
C707 N710 1.384 . S
C708 H699 0.929 . S
C708 C700 1.378 . S
C708 C703 1.350 . S
C709 H696 0.929 . S
C709 C701 1.433 . S
C709 N711 1.384 . S
N710 C706 1.427 . S
N710 C707 1.384 . S
N711 C703 1.427 . S
N711 C709 1.384 . S
H712 C718 0.930 . S
H713 C722 0.930 . S
H714 C727 0.929 . S
H715 C725 0.929 . S
H716 C720 0.929 . S
H717 C726 0.929 . S
C718 H712 0.930 . S
C718 C719 1.367 . S
C718 C726 1.378 . S
C719 C718 1.367 . S
C719 C727 1.433 . S
C720 H716 0.929 . S
C720 C722 1.378 . S
C720 C724 1.350 . S
C721 C724 1.463 . S
C721 C726 1.350 . S
C721 N729 1.427 . S
C722 H713 0.930 . S
C722 C720 1.378 . S
C722 C723 1.367 . S
C723 C722 1.367 . S
C723 C725 1.433 . S
C724 C720 1.350 . S
C724 C721 1.463 . S
C724 N728 1.427 . S
C725 H715 0.929 . S
C725 C723 1.433 . S
C725 N728 1.384 . S
C726 H717 0.929 . S
C726 C718 1.378 . S
C726 C721 1.350 . S
C727 H714 0.929 . S
C727 C719 1.433 . S
C727 N729 1.384 . S
N728 C724 1.427 . S
N728 C725 1.384 . S
N729 C721 1.427 . S
N729 C727 1.384 . S
H730 C736 0.930 . S
H731 C740 0.930 . S
H732 C745 0.929 . S
H733 C743 0.929 . S
H734 C738 0.929 . S
H735 C744 0.929 . S
C736 H730 0.930 . S
C736 C737 1.367 . S
C736 C744 1.378 . S
C737 C736 1.367 . S
C737 C745 1.433 . S
C738 H734 0.929 . S
C738 C740 1.378 . S
C738 C742 1.350 . S
C739 C742 1.463 . S
C739 C744 1.350 . S
C739 N747 1.427 . S
C740 H731 0.930 . S
C740 C738 1.378 . S
C740 C741 1.367 . S
C741 C740 1.367 . S
C741 C743 1.433 . S
C742 C738 1.350 . S
C742 C739 1.463 . S
C742 N746 1.427 . S
C743 H733 0.929 . S
C743 C741 1.433 . S
C743 N746 1.384 . S
C744 H735 0.929 . S
C744 C736 1.378 . S
C744 C739 1.350 . S
C745 H732 0.929 . S
C745 C737 1.433 . S
C745 N747 1.384 . S
N746 C742 1.427 . S
N746 C743 1.384 . S
N747 C739 1.427 . S
N747 C745 1.384 . S
H748 C754 0.930 . S
H749 C758 0.930 . S
H750 C763 0.929 . S
H751 C761 0.929 . S
H752 C756 0.929 . S
H753 C762 0.929 . S
C754 H748 0.930 . S
C754 C755 1.367 . S
C754 C762 1.378 . S
C755 C754 1.367 . S
C755 C763 1.433 . S
C756 H752 0.929 . S
C756 C758 1.378 . S
C756 C760 1.350 . S
C757 C760 1.463 . S
C757 C762 1.350 . S
C757 N765 1.427 . S
C758 H749 0.930 . S
C758 C756 1.378 . S
C758 C759 1.367 . S
C759 C758 1.367 . S
C759 C761 1.433 . S
C760 C756 1.350 . S
C760 C757 1.463 . S
C760 N764 1.427 . S
C761 H751 0.929 . S
C761 C759 1.433 . S
C761 N764 1.384 . S
C762 H753 0.929 . S
C762 C754 1.378 . S
C762 C757 1.350 . S
C763 H750 0.929 . S
C763 C755 1.433 . S
C763 N765 1.384 . S
N764 C760 1.427 . S
N764 C761 1.384 . S
N765 C757 1.427 . S
N765 C763 1.384 . S
H766 C772 0.930 . S
H767 C776 0.930 . S
H768 C781 0.929 . S
H769 C779 0.929 . S
H770 C774 0.929 . S
H771 C780 0.929 . S
C772 H766 0.930 . S
C772 C773 1.367 . S
C772 C780 1.378 . S
C773 C772 1.367 . S
C773 C781 1.433 . S
C774 H770 0.929 . S
C774 C776 1.378 . S
C774 C778 1.350 . S
C775 C778 1.463 . S
C775 C780 1.350 . S
C775 N783 1.427 . S
C776 H767 0.930 . S
C776 C774 1.378 . S
C776 C777 1.367 . S
C777 C776 1.367 . S
C777 C779 1.433 . S
C778 C774 1.350 . S
C778 C775 1.463 . S
C778 N782 1.427 . S
C779 H769 0.929 . S
C779 C777 1.433 . S
C779 N782 1.384 . S
C780 H771 0.929 . S
C780 C772 1.378 . S
C780 C775 1.350 . S
C781 H768 0.929 . S
C781 C773 1.433 . S
C781 N783 1.384 . S
N782 C778 1.427 . S
N782 C779 1.384 . S
N783 C775 1.427 . S
N783 C781 1.384 . S
C215 C0 1.108 . S
C219 C169 1.107 . S
C233 C143 1.112 . S
C237 C13 1.114 . S
C251 C156 1.112 . S
C255 C26 1.110 . S
C269 C130 1.111 . S
C273 C39 1.109 . S
C287 C52 1.114 . S
C291 C195 1.112 . S
C305 C65 1.113 . S
C309 C117 1.114 . S
C323 C182 1.107 . S
C327 C78 1.107 . S
C341 C91 1.114 . S
C345 C104 1.112 . S
C359 C60 1.570 . S
C363 C8 1.572 . S
C377 C21 1.562 . S
C381 C73 1.568 . S
C395 C34 1.570 . S
C399 C86 1.572 . S
C413 C99 1.572 . S
C417 C47 1.565 . S
C431 C112 1.561 . S
C435 C138 1.566 . S
C449 C125 1.572 . S
C453 C151 1.565 . S
C467 C190 1.570 . S
C471 C164 1.572 . S
C485 C177 1.571 . S
C489 C203 1.564 . S
C503 C70 1.229 . S
C507 C5 1.240 . S
C521 C18 1.229 . S
C525 C83 1.237 . S
C539 C31 1.233 . S
C543 C96 1.233 . S
C557 C57 1.243 . S
C561 C44 1.225 . S
C575 C62 1.298 . S
C579 C140 1.299 . S
C593 C36 1.288 . S
C597 C114 1.296 . S
C611 C153 1.299 . S
C615 C88 1.299 . S
C629 C127 1.298 . S
C633 C10 1.290 . S
C647 C109 1.229 . S
C651 C161 1.239 . S
C665 C135 1.243 . S
C669 C200 1.225 . S
C683 C174 1.225 . S
C687 C122 1.243 . S
C701 C148 1.243 . S
C705 C187 1.225 . S
C719 C192 1.287 . S
C723 C23 1.287 . S
C737 C179 1.286 . S
C741 C75 1.293 . S
C755 C205 1.300 . S
C759 C49 1.296 . S
C773 C166 1.298 . S
C777 C101 1.299 . S
