# Generated by pormake.
# Topology ske, (6)-cn, num edge types: 1
# Building blocks:
#     Node 0, Type 0, BuildingBlock: BETFAJ_clean_sbu_0, # of connection points: 6
#     Node 1, Type 0, BuildingBlock: BETFAJ_clean_sbu_0, # of connection points: 6
#     Node 2, Type 0, BuildingBlock: BETFAJ_clean_sbu_0, # of connection points: 6
#     Node 3, Type 0, BuildingBlock: BETFAJ_clean_sbu_0, # of connection points: 6
#     Node 4, Type 0, BuildingBlock: BETFAJ_clean_sbu_0, # of connection points: 6
#     Node 5, Type 0, BuildingBlock: BETFAJ_clean_sbu_0, # of connection points: 6
#     Node 6, Type 0, BuildingBlock: BETFAJ_clean_sbu_0, # of connection points: 6
#     Node 7, Type 0, BuildingBlock: BETFAJ_clean_sbu_0, # of connection points: 6
#     Edge 8, Type (0, 0), BuildingBlock: TEMPAE_clean_linker_10, # of connection points: 2
#     Edge 9, Type (0, 0), BuildingBlock: TEMPAE_clean_linker_10, # of connection points: 2
#     Edge 10, Type (0, 0), BuildingBlock: TEMPAE_clean_linker_10, # of connection points: 2
#     Edge 11, Type (0, 0), BuildingBlock: TEMPAE_clean_linker_10, # of connection points: 2
#     Edge 12, Type (0, 0), BuildingBlock: TEMPAE_clean_linker_10, # of connection points: 2
#     Edge 13, Type (0, 0), BuildingBlock: TEMPAE_clean_linker_10, # of connection points: 2
#     Edge 14, Type (0, 0), BuildingBlock: TEMPAE_clean_linker_10, # of connection points: 2
#     Edge 15, Type (0, 0), BuildingBlock: TEMPAE_clean_linker_10, # of connection points: 2
#     Edge 16, Type (0, 0), BuildingBlock: TEMPAE_clean_linker_10, # of connection points: 2
#     Edge 17, Type (0, 0), BuildingBlock: TEMPAE_clean_linker_10, # of connection points: 2
#     Edge 18, Type (0, 0), BuildingBlock: TEMPAE_clean_linker_10, # of connection points: 2
#     Edge 19, Type (0, 0), BuildingBlock: TEMPAE_clean_linker_10, # of connection points: 2
#     Edge 20, Type (0, 0), BuildingBlock: TEMPAE_clean_linker_10, # of connection points: 2
#     Edge 21, Type (0, 0), BuildingBlock: TEMPAE_clean_linker_10, # of connection points: 2
#     Edge 22, Type (0, 0), BuildingBlock: TEMPAE_clean_linker_10, # of connection points: 2
#     Edge 23, Type (0, 0), BuildingBlock: TEMPAE_clean_linker_10, # of connection points: 2
#     Edge 24, Type (0, 0), BuildingBlock: TEMPAE_clean_linker_10, # of connection points: 2
#     Edge 25, Type (0, 0), BuildingBlock: TEMPAE_clean_linker_10, # of connection points: 2
#     Edge 26, Type (0, 0), BuildingBlock: TEMPAE_clean_linker_10, # of connection points: 2
#     Edge 27, Type (0, 0), BuildingBlock: TEMPAE_clean_linker_10, # of connection points: 2
#     Edge 28, Type (0, 0), BuildingBlock: TEMPAE_clean_linker_10, # of connection points: 2
#     Edge 29, Type (0, 0), BuildingBlock: TEMPAE_clean_linker_10, # of connection points: 2
#     Edge 30, Type (0, 0), BuildingBlock: TEMPAE_clean_linker_10, # of connection points: 2
#     Edge 31, Type (0, 0), BuildingBlock: TEMPAE_clean_linker_10, # of connection points: 2
# Relax obj value: 0.206
# Max RMSD: 0.207
# Mean RMSD: 0.201
data_MOF--net-ske--node1-BETFAJ_clean_sbu_0--edge1-TEMPAE_clean_linker_10
_symmetry_space_group_name_H-M    P1
_symmetry_Int_Tables_number       1
_symmetry_cell_setting            triclinic
loop_
_symmetry_equiv_pos_as_xyz
'x, y, z'
_cell_length_a     104.32487
_cell_length_b     29.818237
_cell_length_c     15.89901
_cell_angle_alpha  89.936513
_cell_angle_beta   90.014293
_cell_angle_gamma 84.644273
loop_
_atom_site_label
_atom_site_type_symbol
_atom_site_fract_x
_atom_site_fract_y
_atom_site_fract_z
_atom_type_partial_charge
Sm0 Sm 0.15467 0.25641 0.53219 0.0
Sm1 Sm 0.12647 0.25141 0.54225 0.0
C2 C 0.1791 0.27517 0.54333 0.0
C3 C 0.19153 0.26738 0.58927 0.0
C4 C 0.19566 0.30099 0.64214 0.0
C5 C 0.2081 0.29681 0.6764 0.0
C6 C 0.21678 0.2591 0.65797 0.0
C7 C 0.21252 0.22491 0.60698 0.0
C8 C 0.20008 0.22901 0.57297 0.0
C9 C 0.14769 0.1689 0.52315 0.0
C10 C 0.14143 0.24853 0.7175 0.0
C11 C 0.10205 0.23233 0.53834 0.0
C12 C 0.08846 0.24334 0.5115 0.0
C13 C 0.08282 0.2155 0.45353 0.0
C14 C 0.06949 0.22029 0.43934 0.0
C15 C 0.06147 0.25271 0.48359 0.0
C16 C 0.06719 0.2818 0.53883 0.0
C17 C 0.08051 0.2772 0.55263 0.0
C18 C 0.13343 0.33919 0.54682 0.0
C19 C 0.13996 0.25649 0.35512 0.0
O20 O 0.16954 0.29972 0.5787 0.0
O21 O 0.17528 0.24222 0.49854 0.0
O22 O 0.1429 0.19884 0.57304 0.0
O23 O 0.15677 0.18408 0.47903 0.0
O24 O 0.15046 0.26685 0.67491 0.0
O25 O 0.13218 0.23035 0.67726 0.0
O26 O 0.11067 0.21587 0.48399 0.0
O27 O 0.10678 0.25785 0.59504 0.0
O28 O 0.13827 0.30839 0.49898 0.0
O29 O 0.12427 0.32472 0.59121 0.0
O30 O 0.13018 0.24298 0.39832 0.0
O31 O 0.14996 0.27106 0.39368 0.0
H32 H 0.18941 0.33131 0.65484 0.0
H33 H 0.21108 0.32401 0.71467 0.0
H34 H 0.21887 0.19511 0.59241 0.0
H35 H 0.1973 0.2026 0.53194 0.0
H36 H 0.08864 0.18865 0.42185 0.0
H37 H 0.06539 0.19712 0.39681 0.0
H38 H 0.06132 0.30755 0.57302 0.0
H39 H 0.08447 0.29911 0.59817 0.0
Sm40 Sm 0.87129 0.24412 0.52713 0.0
Sm41 Sm 0.89934 0.25344 0.53652 0.0
C42 C 0.84737 0.22058 0.54076 0.0
C43 C 0.83519 0.227 0.5892 0.0
C44 C 0.8293 0.18903 0.61611 0.0
C45 C 0.81709 0.19372 0.65348 0.0
C46 C 0.81043 0.23658 0.66448 0.0
C47 C 0.81651 0.27469 0.63954 0.0
C48 C 0.82875 0.26998 0.60238 0.0
C49 C 0.87698 0.33292 0.51647 0.0
C50 C 0.88453 0.25475 0.71188 0.0
C51 C 0.92354 0.27503 0.53223 0.0
C52 C 0.93712 0.26503 0.50445 0.0
C53 C 0.94242 0.29297 0.44507 0.0
C54 C 0.95571 0.28906 0.42938 0.0
C55 C 0.96407 0.25736 0.47329 0.0
C56 C 0.95866 0.22825 0.53029 0.0
C57 C 0.94538 0.23204 0.54569 0.0
C58 C 0.89325 0.1646 0.54136 0.0
C59 C 0.88587 0.24676 0.34959 0.0
O60 O 0.8573 0.19778 0.57556 0.0
O61 O 0.85055 0.25414 0.49483 0.0
O62 O 0.88237 0.30381 0.56603 0.0
O63 O 0.86783 0.31631 0.47529 0.0
O64 O 0.87577 0.23475 0.66975 0.0
O65 O 0.89347 0.27439 0.67121 0.0
O66 O 0.91476 0.29091 0.47833 0.0
O67 O 0.91907 0.24887 0.58897 0.0
O68 O 0.88828 0.1949 0.49311 0.0
O69 O 0.90207 0.1802 0.58726 0.0
O70 O 0.89551 0.26137 0.39268 0.0
O71 O 0.87605 0.23086 0.38819 0.0
H72 H 0.834 0.15551 0.60595 0.0
H73 H 0.81268 0.1636 0.67105 0.0
H74 H 0.81175 0.30823 0.64817 0.0
H75 H 0.83303 0.29995 0.58239 0.0
H76 H 0.93636 0.31906 0.41294 0.0
H77 H 0.95946 0.3116 0.38406 0.0
H78 H 0.96474 0.20383 0.56625 0.0
H79 H 0.9417 0.2103 0.59273 0.0
Sm80 Sm 0.12742 0.74717 0.49455 0.0
Sm81 Sm 0.15752 0.75639 0.49908 0.0
C82 C 0.10456 0.71492 0.49388 0.0
C83 C 0.09076 0.72688 0.51208 0.0
C84 C 0.08367 0.69518 0.55175 0.0
C85 C 0.07034 0.7036 0.56198 0.0
C86 C 0.06378 0.74391 0.53228 0.0
C87 C 0.07097 0.77621 0.49462 0.0
C88 C 0.08432 0.76785 0.48479 0.0
C89 C 0.13166 0.83779 0.51189 0.0
C90 C 0.14221 0.75594 0.67433 0.0
C91 C 0.18128 0.78114 0.48698 0.0
C92 C 0.19388 0.77273 0.44335 0.0
C93 C 0.19762 0.80376 0.38364 0.0
C94 C 0.21004 0.79922 0.34928 0.0
C95 C 0.21908 0.76368 0.37419 0.0
C96 C 0.21523 0.73204 0.43252 0.0
C97 C 0.2028 0.73655 0.46681 0.0
C98 C 0.15047 0.6694 0.51484 0.0
C99 C 0.14307 0.75066 0.31386 0.0
O100 O 0.11253 0.70965 0.55759 0.0
O101 O 0.10942 0.73442 0.42898 0.0
O102 O 0.13986 0.80421 0.50722 0.0
O103 O 0.12028 0.82368 0.50714 0.0
O104 O 0.13353 0.73454 0.63355 0.0
O105 O 0.15101 0.77652 0.63334 0.0
O106 O 0.1715 0.80066 0.44479 0.0
O107 O 0.17794 0.75064 0.53989 0.0
O108 O 0.14517 0.6996 0.46703 0.0
O109 O 0.16048 0.68376 0.55097 0.0
O110 O 0.15397 0.75424 0.35523 0.0
O111 O 0.13202 0.74632 0.35261 0.0
H112 H 0.08841 0.66324 0.57277 0.0
H113 H 0.0651 0.6778 0.59045 0.0
H114 H 0.06624 0.80783 0.47205 0.0
H115 H 0.08956 0.79301 0.45422 0.0
H116 H 0.19104 0.83227 0.36487 0.0
H117 H 0.21259 0.82388 0.30365 0.0
H118 H 0.22195 0.70456 0.45401 0.0
H119 H 0.20033 0.7123 0.51346 0.0
Sm120 Sm 0.90048 0.74859 0.50587 0.0
Sm121 Sm 0.87006 0.74646 0.50806 0.0
C122 C 0.92523 0.75785 0.52382 0.0
C123 C 0.93921 0.76144 0.53516 0.0
C124 C 0.94501 0.79922 0.50602 0.0
C125 C 0.95841 0.80038 0.51045 0.0
C126 C 0.96628 0.76361 0.54344 0.0
C127 C 0.9604 0.7264 0.57449 0.0
C128 C 0.94704 0.72537 0.57055 0.0
C129 C 0.89145 0.66478 0.48555 0.0
C130 C 0.88501 0.75115 0.68688 0.0
C131 C 0.84675 0.71804 0.50011 0.0
C132 C 0.83387 0.72667 0.46016 0.0
C133 C 0.82989 0.6963 0.40013 0.0
C134 C 0.81739 0.70142 0.36719 0.0
C135 C 0.80848 0.73691 0.39386 0.0
C136 C 0.81254 0.76778 0.45293 0.0
C137 C 0.82506 0.76269 0.4858 0.0
C138 C 0.87599 0.83561 0.50583 0.0
C139 C 0.88554 0.75429 0.32582 0.0
O140 O 0.91759 0.78709 0.48116 0.0
O141 O 0.91956 0.72506 0.55846 0.0
O142 O 0.88694 0.69513 0.53552 0.0
O143 O 0.90124 0.67804 0.44544 0.0
O144 O 0.89491 0.76477 0.64475 0.0
O145 O 0.87511 0.73568 0.64813 0.0
O146 O 0.85637 0.70184 0.4525 0.0
O147 O 0.85012 0.74673 0.55671 0.0
O148 O 0.8837 0.80053 0.50506 0.0
O149 O 0.86431 0.82391 0.50829 0.0
O150 O 0.87497 0.74438 0.3655 0.0
O151 O 0.89624 0.7619 0.36594 0.0
H152 H 0.93923 0.82748 0.47821 0.0
H153 H 0.96264 0.82944 0.48558 0.0
H154 H 0.96616 0.69783 0.60142 0.0
H155 H 0.94289 0.69572 0.59353 0.0
H156 H 0.8364 0.66798 0.37961 0.0
H157 H 0.8147 0.67737 0.32092 0.0
H158 H 0.80592 0.79521 0.47572 0.0
H159 H 0.82773 0.78648 0.53261 0.0
Sm160 Sm 0.65572 0.75806 0.03385 0.0
Sm161 Sm 0.62765 0.74949 0.04282 0.0
C162 C 0.67979 0.78016 0.04585 0.0
C163 C 0.6922 0.77117 0.09177 0.0
C164 C 0.69517 0.79793 0.16065 0.0
C165 C 0.70743 0.79284 0.19753 0.0
C166 C 0.71707 0.76112 0.16597 0.0
C167 C 0.71399 0.73366 0.09839 0.0
C168 C 0.70175 0.7387 0.06165 0.0
C169 C 0.64982 0.66966 0.02229 0.0
C170 C 0.64237 0.7487 0.22013 0.0
C171 C 0.60358 0.72685 0.03694 0.0
C172 C 0.59012 0.73236 1.00645 0.0
C173 C 0.58365 0.69369 0.99432 0.0
C174 C 0.57035 0.69719 0.98031 0.0
C175 C 0.56319 0.73956 0.97794 0.0
C176 C 0.5698 0.77846 0.98593 0.0
C177 C 0.58313 0.7749 1.00048 0.0
C178 C 0.63389 0.83837 0.04622 0.0
C179 C 0.6411 0.75706 0.85745 0.0
O180 O 0.67005 0.80205 0.08462 0.0
O181 O 0.67627 0.74874 0.99591 0.0
O182 O 0.64453 0.69858 0.0727 0.0
O183 O 0.65885 0.68644 0.98001 0.0
O184 O 0.65198 0.76375 0.17781 0.0
O185 O 0.63254 0.73367 0.18068 0.0
O186 O 0.61273 0.70804 0.98893 0.0
O187 O 0.60744 0.75767 0.08669 0.0
O188 O 0.63886 0.80765 0.99912 0.0
O189 O 0.62488 0.82331 0.09109 0.0
O190 O 0.63206 0.73871 0.90027 0.0
O191 O 0.65026 0.77619 0.89713 0.0
H192 H 0.68812 0.82374 0.1847 0.0
H193 H 0.70949 0.81489 0.24889 0.0
H194 H 0.7211 0.70844 0.07319 0.0
H195 H 0.69988 0.71779 1.00819 0.0
H196 H 0.58881 0.66052 0.99923 0.0
H197 H 0.56562 0.66661 0.9732 0.0
H198 H 0.56457 0.81159 0.98488 0.0
H199 H 0.58786 0.80529 1.01024 0.0
Sm200 Sm 0.3726 0.74919 0.02676 0.0
Sm201 Sm 0.40092 0.7566 0.03531 0.0
C202 C 0.34847 0.7276 0.03935 0.0
C203 C 0.33601 0.73614 0.08478 0.0
C204 C 0.33289 0.70821 0.15167 0.0
C205 C 0.32053 0.71267 0.18723 0.0
C206 C 0.31096 0.74487 0.15619 0.0
C207 C 0.31421 0.77353 0.0908 0.0
C208 C 0.32654 0.76915 0.05544 0.0
C209 C 0.37888 0.83739 0.01813 0.0
C210 C 0.3861 0.757 0.21148 0.0
C211 C 0.42498 0.7791 0.03256 0.0
C212 C 0.43849 0.77398 1.00328 0.0
C213 C 0.44509 0.81268 0.99607 0.0
C214 C 0.45841 0.80912 0.98302 0.0
C215 C 0.46545 0.76667 0.97663 0.0
C216 C 0.45872 0.72788 0.97973 0.0
C217 C 0.44537 0.73148 0.99339 0.0
C218 C 0.39433 0.66828 0.03902 0.0
C219 C 0.38732 0.7502 0.84884 0.0
O220 O 0.35819 0.70538 0.07767 0.0
O221 O 0.35201 0.75935 0.99027 0.0
O222 O 0.38413 0.80748 0.06664 0.0
O223 O 0.36952 0.82195 0.97722 0.0
O224 O 0.37704 0.7387 0.16909 0.0
O225 O 0.39531 0.7755 0.17137 0.0
O226 O 0.41592 0.79853 0.98425 0.0
O227 O 0.42103 0.74767 0.08085 0.0
O228 O 0.38935 0.69927 0.99218 0.0
O229 O 0.40354 0.6828 0.08302 0.0
O230 O 0.39717 0.7637 0.89139 0.0
O231 O 0.37735 0.7356 0.8878 0.0
H232 H 0.33987 0.68196 0.17497 0.0
H233 H 0.31834 0.68973 0.23694 0.0
H234 H 0.30715 0.79913 0.06613 0.0
H235 H 0.32854 0.79096 1.00345 0.0
H236 H 0.44002 0.8458 1.00404 0.0
H237 H 0.46326 0.83966 0.97973 0.0
H238 H 0.46386 0.69468 0.97547 0.0
H239 H 0.44052 0.70106 0.99932 0.0
Sm240 Sm 0.62695 0.25321 0.99911 0.0
Sm241 Sm 0.65742 0.25621 1.00081 0.0
C242 C 0.60231 0.2422 0.01778 0.0
C243 C 0.58841 0.23714 0.02953 0.0
C244 C 0.58267 0.20102 0.99307 0.0
C245 C 0.56934 0.19847 0.99909 0.0
C246 C 0.56145 0.232 0.04168 0.0
C247 C 0.56728 0.26761 0.07945 0.0
C248 C 0.58057 0.27012 0.0735 0.0
C249 C 0.63573 0.33758 0.98048 0.0
C250 C 0.64253 0.25063 0.17971 0.0
C251 C 0.68055 0.28606 0.9936 0.0
C252 C 0.69338 0.27897 0.95367 0.0
C253 C 0.70014 0.31648 0.93707 0.0
C254 C 0.71263 0.31104 0.9042 0.0
C255 C 0.71869 0.26783 0.88718 0.0
C256 C 0.71176 0.23022 0.90216 0.0
C257 C 0.69922 0.23573 0.93517 0.0
C258 C 0.65156 0.16688 0.99895 0.0
C259 C 0.64188 0.24844 0.81873 0.0
O260 O 0.61002 0.21421 0.97317 0.0
O261 O 0.60783 0.27491 0.05373 0.0
O262 O 0.6404 0.30684 0.02931 0.0
O263 O 0.62588 0.32443 0.94081 0.0
O264 O 0.63268 0.23661 0.13767 0.0
O265 O 0.65236 0.26662 0.14091 0.0
O266 O 0.67088 0.30218 0.94631 0.0
O267 O 0.67743 0.25582 0.04805 0.0
O268 O 0.64387 0.20197 0.99797 0.0
O269 O 0.66324 0.17868 1.00121 0.0
O270 O 0.65245 0.25834 0.85834 0.0
O271 O 0.63119 0.24069 0.85891 0.0
H272 H 0.58845 0.17507 0.95877 0.0
H273 H 0.56522 0.17026 0.97013 0.0
H274 H 0.56152 0.29441 0.11164 0.0
H275 H 0.58466 0.29857 0.10185 0.0
H276 H 0.69581 0.35015 0.95062 0.0
H277 H 0.71755 0.34081 0.89209 0.0
H278 H 0.71613 0.19644 0.89036 0.0
H279 H 0.69419 0.20622 0.94739 0.0
Sm280 Sm 0.39925 0.25846 0.98464 0.0
Sm281 Sm 0.37099 0.25025 0.99146 0.0
C282 C 0.4232 0.282 0.99498 0.0
C283 C 0.4368 0.27002 0.01866 0.0
C284 C 0.44364 0.30284 0.05679 0.0
C285 C 0.45699 0.29562 0.06753 0.0
C286 C 0.46382 0.25537 0.04009 0.0
C287 C 0.45685 0.22159 1.00544 0.0
C288 C 0.44347 0.22888 0.99463 0.0
C289 C 0.39332 0.16937 0.98228 0.0
C290 C 0.38528 0.25305 0.1682 0.0
C291 C 0.34696 0.22775 0.98016 0.0
C292 C 0.33453 0.23456 0.93402 0.0
C293 C 0.33007 0.19853 0.88917 0.0
C294 C 0.31769 0.20216 0.85422 0.0
C295 C 0.30939 0.24186 0.86369 0.0
C296 C 0.31401 0.27841 0.90652 0.0
C297 C 0.32641 0.27479 0.9414 0.0
C298 C 0.37728 0.33845 1.00261 0.0
C299 C 0.38458 0.25906 0.80601 0.0
O300 O 0.41462 0.29111 0.05395 0.0
O301 O 0.41869 0.26139 0.93058 0.0
O302 O 0.38784 0.20043 0.02669 0.0
O303 O 0.40288 0.18407 0.94229 0.0
O304 O 0.39411 0.27247 0.12531 0.0
O305 O 0.3764 0.23259 0.1284 0.0
O306 O 0.35674 0.2051 0.94323 0.0
O307 O 0.35037 0.26064 0.02704 0.0
O308 O 0.38244 0.30898 0.95307 0.0
O309 O 0.36804 0.32254 0.04432 0.0
O310 O 0.3748 0.24478 0.84776 0.0
O311 O 0.39449 0.27334 0.84592 0.0
H312 H 0.43872 0.3349 0.07547 0.0
H313 H 0.462 0.32203 0.09581 0.0
H314 H 0.4618 0.19031 0.9832 0.0
H315 H 0.43844 0.20302 0.96464 0.0
H316 H 0.33604 0.16698 0.883 0.0
H317 H 0.31456 0.17357 0.82055 0.0
H318 H 0.30788 0.30934 0.91588 0.0
H319 H 0.32947 0.30311 0.97623 0.0
C320 C 0.23323 0.26926 0.77103 0.0
C321 C 0.23038 0.25627 0.68877 0.0
C322 C 0.24602 0.2673 0.80004 0.0
C323 C 0.25626 0.25215 0.7455 0.0
C324 C 0.25345 0.23909 0.66238 0.0
C325 C 0.24058 0.24126 0.63513 0.0
C326 C 0.24858 0.28131 0.88925 0.0
C327 C 0.26406 0.22296 0.60199 0.0
C328 C 0.29007 0.28401 0.79453 0.0
C329 C 0.29583 0.24446 0.83204 0.0
C330 C 0.27723 0.28702 0.76622 0.0
C331 C 0.26991 0.24959 0.77549 0.0
C332 C 0.27567 0.20957 0.81308 0.0
C333 C 0.28851 0.20751 0.84089 0.0
C334 C 0.2715 0.33026 0.72622 0.0
C335 C 0.26822 0.16891 0.82437 0.0
H336 H 0.22542 0.2805 0.81321 0.0
H337 H 0.23852 0.23187 0.57105 0.0
H338 H 0.25372 0.25277 0.92399 0.0
H339 H 0.2549 0.30923 0.88924 0.0
H340 H 0.23957 0.29247 0.92366 0.0
H341 H 0.26029 0.21408 0.53943 0.0
H342 H 0.27073 0.2495 0.59337 0.0
H343 H 0.26978 0.19293 0.62824 0.0
H344 H 0.29566 0.31259 0.78647 0.0
H345 H 0.29275 0.17706 0.87105 0.0
H346 H 0.26286 0.34387 0.76191 0.0
H347 H 0.26832 0.32362 0.66119 0.0
H348 H 0.27843 0.35636 0.72392 0.0
H349 H 0.25958 0.17788 0.86372 0.0
H350 H 0.27409 0.14027 0.85445 0.0
H351 H 0.2648 0.1577 0.76246 0.0
C352 C 0.73595 0.2308 0.79228 0.0
C353 C 0.73224 0.26226 0.85543 0.0
C354 C 0.74865 0.22589 0.7613 0.0
C355 C 0.75792 0.25299 0.79425 0.0
C356 C 0.75427 0.28453 0.85842 0.0
C357 C 0.74152 0.28874 0.88816 0.0
C358 C 0.75212 0.19196 0.6927 0.0
C359 C 0.76383 0.31395 0.89565 0.0
C360 C 0.79362 0.21461 0.76671 0.0
C361 C 0.79703 0.24131 0.69896 0.0
C362 C 0.78096 0.218 0.79825 0.0
C363 C 0.77141 0.24876 0.76114 0.0
C364 C 0.7748 0.27584 0.69284 0.0
C365 C 0.78753 0.27184 0.66272 0.0
C366 C 0.77779 0.1887 0.87147 0.0
C367 C 0.76494 0.30894 0.65119 0.0
H368 H 0.72886 0.2105 0.7659 0.0
H369 H 0.73884 0.3126 0.93793 0.0
H370 H 0.75547 0.20933 0.63616 0.0
H371 H 0.76018 0.16759 0.71369 0.0
H372 H 0.74387 0.17301 0.67458 0.0
H373 H 0.75951 0.33656 0.94563 0.0
H374 H 0.77211 0.29268 0.92277 0.0
H375 H 0.76769 0.33493 0.84564 0.0
H376 H 0.80089 0.19127 0.79576 0.0
H377 H 0.79 0.29211 0.60955 0.0
H378 H 0.77005 0.16748 0.85346 0.0
H379 H 0.77413 0.21009 0.92494 0.0
H380 H 0.78627 0.16637 0.89312 0.0
H381 H 0.7569 0.29096 0.62625 0.0
H382 H 0.76909 0.3275 0.59871 0.0
H383 H 0.76078 0.33372 0.69805 0.0
C384 C 0.29511 0.74396 0.27585 0.0
C385 C 0.29751 0.74746 0.18931 0.0
C386 C 0.28245 0.7462 0.30728 0.0
C387 C 0.2719 0.75192 0.25089 0.0
C388 C 0.27426 0.75525 0.1635 0.0
C389 C 0.28699 0.75301 0.13387 0.0
C390 C 0.28037 0.74268 0.40091 0.0
C391 C 0.26331 0.76113 0.10113 0.0
C392 C 0.23912 0.71867 0.32113 0.0
C393 C 0.23259 0.76054 0.34183 0.0
C394 C 0.25191 0.71533 0.292 0.0
C395 C 0.25838 0.75478 0.28314 0.0
C396 C 0.25186 0.79712 0.30392 0.0
C397 C 0.23909 0.79948 0.33301 0.0
C398 C 0.25848 0.66955 0.27031 0.0
C399 C 0.2584 0.84001 0.29557 0.0
H400 H 0.30316 0.74006 0.31924 0.0
H401 H 0.28872 0.75495 0.0668 0.0
H402 H 0.27474 0.77361 0.42413 0.0
H403 H 0.27468 0.71394 0.41487 0.0
H404 H 0.28958 0.73798 0.43635 0.0
H405 H 0.26675 0.76304 0.03522 0.0
H406 H 0.25725 0.73258 0.10637 0.0
H407 H 0.25706 0.79235 0.11546 0.0
H408 H 0.23417 0.68844 0.32678 0.0
H409 H 0.23425 0.83191 0.35016 0.0
H410 H 0.26739 0.6628 0.3082 0.0
H411 H 0.26138 0.66877 0.20316 0.0
H412 H 0.2522 0.64207 0.28171 0.0
H413 H 0.26721 0.83794 0.33503 0.0
H414 H 0.25203 0.87024 0.3146 0.0
H415 H 0.26145 0.84443 0.22947 0.0
C416 C 0.73255 0.76008 0.28811 0.0
C417 C 0.73043 0.75775 0.20107 0.0
C418 C 0.74511 0.75716 0.32144 0.0
C419 C 0.75584 0.7519 0.26652 0.0
C420 C 0.75376 0.7497 0.17865 0.0
C421 C 0.74112 0.75266 0.1471 0.0
C422 C 0.74689 0.75949 0.4155 0.0
C423 C 0.76491 0.74429 0.11779 0.0
C424 C 0.78855 0.78325 0.34231 0.0
C425 C 0.79494 0.74096 0.36173 0.0
C426 C 0.77581 0.78736 0.31208 0.0
C427 C 0.76926 0.74826 0.30075 0.0
C428 C 0.77562 0.70552 0.32062 0.0
C429 C 0.78834 0.7024 0.35089 0.0
C430 C 0.76939 0.83356 0.29152 0.0
C431 C 0.769 0.66298 0.30967 0.0
H432 H 0.72437 0.76358 0.33041 0.0
H433 H 0.73961 0.75162 0.07971 0.0
H434 H 0.75237 0.72814 0.4383 0.0
H435 H 0.75261 0.78786 0.43157 0.0
H436 H 0.73757 0.76405 0.44966 0.0
H437 H 0.76168 0.74324 0.05129 0.0
H438 H 0.771 0.77259 0.12517 0.0
H439 H 0.77105 0.71276 0.13181 0.0
H440 H 0.79358 0.81322 0.34952 0.0
H441 H 0.79308 0.66963 0.36706 0.0
H442 H 0.76035 0.83997 0.32805 0.0
H443 H 0.76676 0.83535 0.22391 0.0
H444 H 0.77568 0.8607 0.30548 0.0
H445 H 0.76005 0.66494 0.34764 0.0
H446 H 0.77522 0.63238 0.32873 0.0
H447 H 0.76619 0.65931 0.24291 0.0
C448 C 0.14632 0.89867 0.54093 0.0
C449 C 0.13426 0.88598 0.51647 0.0
C450 C 0.14861 0.94455 0.54621 0.0
C451 C 0.13872 0.97857 0.52436 0.0
C452 C 0.12657 0.96568 0.49895 0.0
C453 C 0.12445 0.91975 0.49642 0.0
C454 C 0.16162 0.95662 0.57541 0.0
C455 C 0.11584 1.00042 0.47288 0.0
C456 C 0.13977 0.10118 0.59485 0.0
C457 C 0.14512 0.12061 0.52422 0.0
C458 C 0.13793 0.05485 0.59668 0.0
C459 C 0.14114 0.02752 0.52526 0.0
C460 C 0.14633 0.04737 0.45334 0.0
C461 C 0.14842 0.09336 0.4542 0.0
C462 C 0.13264 0.03506 0.67537 0.0
C463 C 0.14955 0.02015 0.37485 0.0
H464 H 0.15392 0.87275 0.55702 0.0
H465 H 0.11512 0.9102 0.47714 0.0
H466 H 0.16636 0.9744 0.52447 0.0
H467 H 0.16044 0.97997 0.62975 0.0
H468 H 0.16806 0.92649 0.59418 0.0
H469 H 0.107 0.98494 0.45389 0.0
H470 H 0.11338 0.02413 0.52537 0.0
H471 H 0.11904 0.02052 0.41933 0.0
H472 H 0.13729 0.12197 0.64941 0.0
H473 H 0.1525 0.10824 0.39924 0.0
H474 H 0.13931 0.00633 0.69767 0.0
H475 H 0.12329 0.02176 0.66153 0.0
H476 H 0.1312 0.06018 0.72685 0.0
H477 H 0.15687 0.9918 0.38925 0.0
H478 H 0.15329 0.04073 0.32368 0.0
H479 H 0.14084 0.00535 0.35167 0.0
C480 C 0.87162 0.41096 0.46111 0.0
C481 C 0.87904 0.38165 0.51509 0.0
C482 C 0.87329 0.4572 0.45769 0.0
C483 C 0.88265 0.47493 0.50945 0.0
C484 C 0.89016 0.44551 0.56445 0.0
C485 C 0.88827 0.39924 0.56658 0.0
C486 C 0.8651 0.48704 0.39794 0.0
C487 C 0.90025 0.46289 0.62057 0.0
C488 C 0.89557 0.58457 0.43869 0.0
C489 C 0.88869 0.61673 0.48983 0.0
C490 C 0.89376 0.53849 0.44489 0.0
C491 C 0.88482 0.52391 0.50368 0.0
C492 C 0.87773 0.55634 0.55498 0.0
C493 C 0.87974 0.60231 0.5474 0.0
C494 C 0.90147 0.50535 0.38852 0.0
C495 C 0.86807 0.54241 0.6182 0.0
H496 H 0.86448 0.3977 0.42094 0.0
H497 H 0.89405 0.37682 0.60838 0.0
H498 H 0.85979 0.51506 0.43302 0.0
H499 H 0.87133 0.50233 0.35145 0.0
H500 H 0.85803 0.46832 0.36339 0.0
H501 H 0.90505 0.43607 0.66135 0.0
H502 H 0.90768 0.47731 0.58164 0.0
H503 H 0.89582 0.49037 0.66111 0.0
H504 H 0.90251 0.59538 0.39403 0.0
H505 H 0.87441 0.62693 0.58726 0.0
H506 H 0.89489 0.48718 0.34896 0.0
H507 H 0.9072 0.47977 0.42719 0.0
H508 H 0.90812 0.52197 0.34663 0.0
H509 H 0.86048 0.5253 0.5857 0.0
H510 H 0.86343 0.57154 0.65391 0.0
H511 H 0.87287 0.5179 0.6634 0.0
C512 C 0.89146 0.89517 0.48786 0.0
C513 C 0.87931 0.88297 0.51122 0.0
C514 C 0.89427 0.9406 0.49067 0.0
C515 C 0.8848 0.97442 0.51957 0.0
C516 C 0.87261 0.96187 0.54476 0.0
C517 C 0.86998 0.91657 0.53921 0.0
C518 C 0.90729 0.95252 0.46146 0.0
C519 C 0.86233 0.99631 0.57802 0.0
C520 C 0.895 0.08641 0.60106 0.0
C521 C 0.89121 0.116 0.5351 0.0
C522 C 0.89307 0.04031 0.59666 0.0
C523 C 0.88752 0.02297 0.52352 0.0
C524 C 0.88392 0.05267 0.45597 0.0
C525 C 0.88564 0.09886 0.46307 0.0
C526 C 0.89671 0.01036 0.67115 0.0
C527 C 0.87822 0.03567 0.37618 0.0
H528 H 0.89868 0.86937 0.46575 0.0
H529 H 0.86058 0.90735 0.55784 0.0
H530 H 0.90608 0.97701 0.4088 0.0
H531 H 0.91224 0.96898 0.5131 0.0
H532 H 0.91355 0.92251 0.44013 0.0
H533 H 0.85354 0.98085 0.59821 0.0
H534 H 0.8661 0.01433 0.63241 0.0
H535 H 0.85958 0.02184 0.52888 0.0
H536 H 0.89926 0.09952 0.65703 0.0
H537 H 0.88277 0.12149 0.4116 0.0
H538 H 0.90367 0.98188 0.65172 0.0
H539 H 0.88804 0.99573 0.69556 0.0
H540 H 0.90103 0.02884 0.723 0.0
H541 H 0.88459 0.00708 0.35041 0.0
H542 H 0.87678 0.0623 0.32726 0.0
H543 H 0.86878 0.02294 0.38995 0.0
C544 C 0.13745 0.60615 0.47005 0.0
C545 C 0.1474 0.62157 0.51835 0.0
C546 C 0.13489 0.56044 0.47213 0.0
C547 C 0.14243 0.52933 0.52386 0.0
C548 C 0.15241 0.54499 0.57315 0.0
C549 C 0.15476 0.59069 0.56979 0.0
C550 C 0.12414 0.54538 0.41869 0.0
C551 C 0.16066 0.51338 0.6296 0.0
C552 C 0.12927 0.41963 0.59359 0.0
C553 C 0.13578 0.38768 0.54018 0.0
C554 C 0.1312 0.4657 0.58818 0.0
C555 C 0.13985 0.48055 0.52764 0.0
C556 C 0.14641 0.44841 0.47319 0.0
C557 C 0.14433 0.40244 0.48027 0.0
C558 C 0.12407 0.49847 0.64799 0.0
C559 C 0.1557 0.46255 0.40772 0.0
H560 H 0.1317 0.62976 0.43025 0.0
H561 H 0.16245 0.60225 0.60754 0.0
H562 H 0.12801 0.51871 0.3745 0.0
H563 H 0.11695 0.53057 0.45912 0.0
H564 H 0.11916 0.57353 0.38185 0.0
H565 H 0.16804 0.53075 0.66398 0.0
H566 H 0.15453 0.49776 0.67622 0.0
H567 H 0.16562 0.48571 0.59181 0.0
H568 H 0.12266 0.40858 0.64017 0.0
H569 H 0.14939 0.37803 0.43867 0.0
H570 H 0.1184 0.52543 0.61215 0.0
H571 H 0.13105 0.51495 0.68741 0.0
H572 H 0.11745 0.48185 0.69005 0.0
H573 H 0.1508 0.48871 0.3661 0.0
H574 H 0.15971 0.43385 0.36835 0.0
H575 H 0.16378 0.47771 0.43882 0.0
C576 C 0.6548 0.59239 0.96294 0.0
C577 C 0.64767 0.62098 0.0195 0.0
C578 C 0.65311 0.54621 0.95808 0.0
C579 C 0.64404 0.52772 1.01104 0.0
C580 C 0.6368 0.5564 0.06854 0.0
C581 C 0.63869 0.60268 0.07202 0.0
C582 C 0.661 0.51724 0.89557 0.0
C583 C 0.62701 0.5382 0.12603 0.0
C584 C 0.63107 0.4185 0.93834 0.0
C585 C 0.63831 0.38579 0.98661 0.0
C586 C 0.63274 0.46462 0.94639 0.0
C587 C 0.64192 0.47871 1.00406 0.0
C588 C 0.64934 0.44576 0.05254 0.0
C589 C 0.64746 0.39976 0.04322 0.0
C590 C 0.62466 0.49832 0.89302 0.0
C591 C 0.65927 0.45913 0.1144 0.0
H592 H 0.66174 0.60618 0.92187 0.0
H593 H 0.63313 0.62452 0.11578 0.0
H594 H 0.66655 0.48889 0.92854 0.0
H595 H 0.65455 0.50239 0.85001 0.0
H596 H 0.66784 0.53651 0.86006 0.0
H597 H 0.62237 0.5645 0.16844 0.0
H598 H 0.61943 0.52401 0.08813 0.0
H599 H 0.63168 0.51038 0.16492 0.0
H600 H 0.62397 0.40807 0.89449 0.0
H601 H 0.65307 0.37475 0.08089 0.0
H602 H 0.63098 0.51714 0.8526 0.0
H603 H 0.61912 0.52329 0.93385 0.0
H604 H 0.6178 0.48206 0.85212 0.0
H605 H 0.66669 0.47673 0.08104 0.0
H606 H 0.66411 0.42966 0.14832 0.0
H607 H 0.65466 0.48305 0.16121 0.0
C608 C 0.3905 0.90271 0.0703 0.0
C609 C 0.38138 0.88579 1.01695 0.0
C610 C 0.39268 0.94878 0.06866 0.0
C611 C 0.38563 0.97862 1.01207 0.0
C612 C 0.37644 0.96148 0.95812 0.0
C613 C 0.37444 0.91551 0.96129 0.0
C614 C 0.40254 0.96552 0.12736 0.0
C615 C 0.36875 0.99172 0.89643 0.0
C616 C 0.38228 0.10622 0.04754 0.0
C617 C 0.39138 0.12069 0.99113 0.0
C618 C 0.38051 0.06012 0.05649 0.0
C619 C 0.38796 0.02755 1.00753 0.0
C620 C 0.39721 0.04209 0.9508 0.0
C621 C 0.39881 0.08832 0.9434 0.0
C622 C 0.37055 0.04629 0.11775 0.0
C623 C 0.40531 0.00881 0.89688 0.0
H624 H 0.39591 0.87999 0.11343 0.0
H625 H 0.3674 0.90276 0.91959 0.0
H626 H 0.41023 0.97976 0.09046 0.0
H627 H 0.39798 0.99302 0.16734 0.0
H628 H 0.40703 0.9384 0.16873 0.0
H629 H 0.36189 0.97333 0.85932 0.0
H630 H 0.36324 0.01972 0.9304 0.0
H631 H 0.37534 0.00699 0.85227 0.0
H632 H 0.37651 0.13098 0.08478 0.0
H633 H 0.40587 0.09917 0.89963 0.0
H634 H 0.37503 0.02092 0.16255 0.0
H635 H 0.36293 0.03027 0.0833 0.0
H636 H 0.36597 0.07533 0.15401 0.0
H637 H 0.4106 0.98285 0.93705 0.0
H638 H 0.41238 0.02526 0.85798 0.0
H639 H 0.39901 0.99112 0.85444 0.0
C640 C 0.37326 0.41631 0.0618 0.0
C641 C 0.38006 0.38656 1.00565 0.0
C642 C 0.37559 0.462 0.06622 0.0
C643 C 0.38497 0.47875 1.01315 0.0
C644 C 0.39189 0.44881 0.95631 0.0
C645 C 0.38937 0.40311 0.95333 0.0
C646 C 0.36802 0.49238 0.12804 0.0
C647 C 0.40197 0.46508 0.89862 0.0
C648 C 0.38268 0.60618 0.97573 0.0
C649 C 0.39191 0.61994 0.03204 0.0
C650 C 0.38045 0.56042 0.96811 0.0
C651 C 0.38757 0.52742 0.0181 0.0
C652 C 0.39691 0.54123 0.07498 0.0
C653 C 0.39895 0.58718 0.08125 0.0
C654 C 0.37039 0.5474 0.90683 0.0
C655 C 0.4047 0.50745 0.12978 0.0
H656 H 0.36608 0.40383 0.10271 0.0
H657 H 0.39468 0.38035 0.90992 0.0
H658 H 0.37467 0.50699 0.17263 0.0
H659 H 0.36268 0.52086 0.09422 0.0
H660 H 0.36103 0.4743 0.16465 0.0
H661 H 0.40644 0.43782 0.85761 0.0
H662 H 0.3976 0.4928 0.85826 0.0
H663 H 0.40964 0.47888 0.93628 0.0
H664 H 0.37719 0.63124 0.93749 0.0
H665 H 0.40609 0.59748 0.12496 0.0
H666 H 0.36272 0.53151 0.94109 0.0
H667 H 0.37477 0.52214 0.86157 0.0
H668 H 0.36589 0.5768 0.87105 0.0
H669 H 0.39819 0.49016 0.17147 0.0
H670 H 0.41177 0.52338 0.16948 0.0
H671 H 0.40996 0.48124 0.09013 0.0
C672 C 0.63603 0.10731 0.98316 0.0
C673 C 0.64823 0.11954 1.00554 0.0
C674 C 0.63317 0.06195 0.98756 0.0
C675 C 0.64263 0.02821 0.01713 0.0
C676 C 0.65487 0.04078 0.04123 0.0
C677 C 0.65756 0.08599 0.03406 0.0
C678 C 0.62011 0.05003 0.95937 0.0
C679 C 0.66515 0.00647 0.07516 0.0
C680 C 0.63228 0.91717 0.10309 0.0
C681 C 0.63597 0.8869 0.03812 0.0
C682 C 0.6343 0.96316 0.09696 0.0
C683 C 0.63984 0.97974 0.023 0.0
C684 C 0.64332 0.94936 0.95641 0.0
C685 C 0.64153 0.9033 0.96527 0.0
C686 C 0.63078 0.99382 0.17052 0.0
C687 C 0.64898 0.96549 0.87572 0.0
H688 H 0.62882 0.13303 0.96065 0.0
H689 H 0.66699 0.09522 0.05196 0.0
H690 H 0.62123 0.02497 0.9077 0.0
H691 H 0.61516 0.03424 1.01189 0.0
H692 H 0.61388 0.07993 0.93703 0.0
H693 H 0.67398 0.02193 0.09428 0.0
H694 H 0.66141 0.98902 0.13043 0.0
H695 H 0.6678 0.98046 0.02683 0.0
H696 H 0.62802 0.90465 0.15966 0.0
H697 H 0.64432 0.88017 0.91452 0.0
H698 H 0.62384 0.02224 0.1504 0.0
H699 H 0.6395 0.0085 0.19394 0.0
H700 H 0.62648 0.9759 0.22325 0.0
H701 H 0.64265 0.99404 0.84928 0.0
H702 H 0.6503 0.93843 0.82766 0.0
H703 H 0.65847 0.97803 0.88854 0.0
C704 C 0.12877 0.26761 0.21565 0.0
C705 C 0.13995 0.25468 0.26188 0.0
C706 C 0.12892 0.26731 0.12696 0.0
C707 C 0.14038 0.25192 0.08354 0.0
C708 C 0.15159 0.23767 0.13041 0.0
C709 C 0.1513 0.24011 0.21877 0.0
C710 C 0.11688 0.28428 0.07969 0.0
C711 C 0.16387 0.2194 0.08727 0.0
C712 C 0.13708 0.21294 0.85629 0.0
C713 C 0.14153 0.24873 0.81089 0.0
C714 C 0.13686 0.21316 0.94487 0.0
C715 C 0.14071 0.2509 0.98926 0.0
C716 C 0.14504 0.28744 0.94341 0.0
C717 C 0.14562 0.28552 0.85496 0.0
C718 C 0.13264 0.17276 0.99095 0.0
C719 C 0.14884 0.32894 0.98773 0.0
H720 H 0.12001 0.27916 0.24888 0.0
H721 H 0.15992 0.22965 0.25444 0.0
H722 H 0.11898 0.31213 0.03696 0.0
H723 H 0.11358 0.25704 0.04001 0.0
H724 H 0.10891 0.29663 0.12254 0.0
H725 H 0.17151 0.20738 0.13282 0.0
H726 H 0.16195 0.19102 0.04541 0.0
H727 H 0.16754 0.24585 0.04723 0.0
H728 H 0.13397 0.18433 0.82244 0.0
H729 H 0.14892 0.31351 0.82004 0.0
H730 H 0.12391 0.18273 0.02871 0.0
H731 H 0.14028 0.15944 0.03537 0.0
H732 H 0.13049 0.14531 0.94742 0.0
H733 H 0.14081 0.34329 0.02812 0.0
H734 H 0.1514 0.3553 0.94295 0.0
H735 H 0.15721 0.31994 0.02944 0.0
C736 C 0.89721 0.23738 0.21048 0.0
C737 C 0.88589 0.24855 0.25633 0.0
C738 C 0.89713 0.23776 0.12179 0.0
C739 C 0.88556 0.25147 0.07798 0.0
C740 C 0.87419 0.26395 0.12445 0.0
C741 C 0.87445 0.26144 0.21283 0.0
C742 C 0.90935 0.22267 0.07497 0.0
C743 C 0.86177 0.28039 0.08087 0.0
C744 C 0.88846 0.29107 0.8506 0.0
C745 C 0.88449 0.25449 0.80529 0.0
C746 C 0.88865 0.29088 0.9392 0.0
C747 C 0.88528 0.25243 0.98368 0.0
C748 C 0.88147 0.21509 0.93791 0.0
C749 C 0.88088 0.21693 0.84946 0.0
C750 C 0.89232 0.33206 0.98522 0.0
C751 C 0.8782 0.17285 0.98232 0.0
H752 H 0.90606 0.22713 0.24399 0.0
H753 H 0.86571 0.27057 0.2482 0.0
H754 H 0.90766 0.1944 0.03225 0.0
H755 H 0.9123 0.25053 0.03531 0.0
H756 H 0.91741 0.21153 0.1181 0.0
H757 H 0.85399 0.29125 0.12614 0.0
H758 H 0.86335 0.30917 0.03899 0.0
H759 H 0.85848 0.2533 0.0408 0.0
H760 H 0.8912 0.32026 0.81667 0.0
H761 H 0.87796 0.18834 0.81462 0.0
H762 H 0.90109 0.3234 0.02345 0.0
H763 H 0.8845 0.34431 0.02919 0.0
H764 H 0.89417 0.35988 0.94161 0.0
H765 H 0.88634 0.1598 0.02315 0.0
H766 H 0.87605 0.14595 0.93758 0.0
H767 H 0.86972 0.18054 0.02359 0.0
C768 C 0.1321 0.76837 0.17567 0.0
C769 C 0.14315 0.75152 0.22011 0.0
C770 C 0.13198 0.77014 0.08714 0.0
C771 C 0.14305 0.75336 0.04127 0.0
C772 C 0.1542 0.73579 0.08585 0.0
C773 C 0.15418 0.73574 0.17459 0.0
C774 C 0.12002 0.79037 0.04269 0.0
C775 C 0.16609 0.71641 0.03977 0.0
C776 C 0.13777 0.71968 0.81269 0.0
C777 C 0.14232 0.75559 0.76803 0.0
C778 C 0.13819 0.71811 0.90125 0.0
C779 C 0.14291 0.75398 0.9468 0.0
C780 C 0.14734 0.79068 0.90192 0.0
C781 C 0.14717 0.7907 0.81325 0.0
C782 C 0.13369 0.67776 0.94605 0.0
C783 C 0.1521 0.83025 0.94761 0.0
H784 H 0.12358 0.78107 0.21029 0.0
H785 H 0.16273 0.72242 0.20838 0.0
H786 H 0.12244 0.81824 1.00098 0.0
H787 H 0.11606 0.76467 1.00229 0.0
H788 H 0.1124 0.80365 0.08737 0.0
H789 H 0.17384 0.70296 0.0834 0.0
H790 H 0.16363 0.68884 0.99759 0.0
H791 H 0.16986 0.74264 0.99963 0.0
H792 H 0.13413 0.69218 0.77824 0.0
H793 H 0.15063 0.8187 0.77924 0.0
H794 H 0.12535 0.68845 0.98696 0.0
H795 H 0.14146 0.66225 0.9873 0.0
H796 H 0.1308 0.6518 0.90159 0.0
H797 H 0.1445 0.84542 0.99043 0.0
H798 H 0.15489 0.8567 0.90375 0.0
H799 H 0.16056 0.81881 0.98704 0.0
C800 C 0.87942 0.71971 0.82721 0.0
C801 C 0.8851 0.75253 0.78047 0.0
C802 C 0.87961 0.71993 0.91581 0.0
C803 C 0.88522 0.75476 0.95919 0.0
C804 C 0.89076 0.7885 0.91211 0.0
C805 C 0.89084 0.78651 0.8235 0.0
C806 C 0.87398 0.68243 0.96301 0.0
C807 C 0.89648 0.82705 0.95535 0.0
C808 C 0.87475 0.77456 0.18789 0.0
C809 C 0.88552 0.7554 0.23233 0.0
C810 C 0.87467 0.77574 0.09922 0.0
C811 C 0.88539 0.75558 0.05364 0.0
C812 C 0.89621 0.73556 0.09854 0.0
C813 C 0.89624 0.73652 0.18715 0.0
C814 C 0.86313 0.79886 0.05431 0.0
C815 C 0.90765 0.71223 0.05302 0.0
H816 H 0.87506 0.69312 0.79436 0.0
H817 H 0.89516 0.81218 0.78774 0.0
H818 H 0.88136 0.66537 1.00544 0.0
H819 H 0.86586 0.69641 1.00295 0.0
H820 H 0.87043 0.65692 0.92012 0.0
H821 H 0.89984 0.85172 0.90988 0.0
H822 H 0.88922 0.84483 0.99761 0.0
H823 H 0.90474 0.81401 0.99503 0.0
H824 H 0.86648 0.78945 0.2226 0.0
H825 H 0.90453 0.72124 0.22128 0.0
H826 H 0.8584 0.7741 1.01594 0.0
H827 H 0.86624 0.8248 1.01061 0.0
H828 H 0.85592 0.81525 0.09868 0.0
H829 H 0.90447 0.6852 1.01218 0.0
H830 H 0.91512 0.69712 0.09703 0.0
H831 H 0.91207 0.73646 1.01162 0.0
C832 C 0.63086 0.76159 0.35693 0.0
C833 C 0.64236 0.74959 0.31343 0.0
C834 C 0.63059 0.76385 0.44529 0.0
C835 C 0.64201 0.75203 0.49175 0.0
C836 C 0.65362 0.73903 0.44798 0.0
C837 C 0.65371 0.7389 0.3593 0.0
C838 C 0.61812 0.77955 0.48887 0.0
C839 C 0.6659 0.72464 0.49483 0.0
C840 C 0.6448 0.79287 0.71809 0.0
C841 C 0.64101 0.75624 0.7642 0.0
C842 C 0.64496 0.79226 0.62954 0.0
C843 C 0.64177 0.75335 0.58598 0.0
C844 C 0.63814 0.71595 0.6326 0.0
C845 C 0.63757 0.71821 0.72101 0.0
C846 C 0.64841 0.83352 0.58262 0.0
C847 C 0.63507 0.67325 0.58915 0.0
H848 H 0.62209 0.77038 0.32156 0.0
H849 H 0.6626 0.72937 0.3258 0.0
H850 H 0.61504 0.75238 0.52971 0.0
H851 H 0.61953 0.80873 0.53 0.0
H852 H 0.61025 0.78957 0.44361 0.0
H853 H 0.67396 0.71358 0.45174 0.0
H854 H 0.66879 0.75288 0.53369 0.0
H855 H 0.66433 0.69653 0.5383 0.0
H856 H 0.64741 0.82241 0.75137 0.0
H857 H 0.6348 0.68962 0.75659 0.0
H858 H 0.64055 0.84507 0.5384 0.0
H859 H 0.65721 0.8252 0.54458 0.0
H860 H 0.65011 0.86171 0.62562 0.0
H861 H 0.62655 0.68025 0.54784 0.0
H862 H 0.63307 0.64641 0.63451 0.0
H863 H 0.64325 0.66046 0.54849 0.0
C864 C 0.37605 0.76673 0.71232 0.0
C865 C 0.38733 0.75151 0.75567 0.0
C866 C 0.37579 0.76887 0.62394 0.0
C867 C 0.38694 0.75363 0.57742 0.0
C868 C 0.39831 0.73748 0.62112 0.0
C869 C 0.39845 0.73752 0.70978 0.0
C870 C 0.36361 0.78796 0.58041 0.0
C871 C 0.41027 0.71943 0.57423 0.0
C872 C 0.38163 0.72032 0.34897 0.0
C873 C 0.386 0.75669 0.30486 0.0
C874 C 0.38214 0.71844 0.43744 0.0
C875 C 0.38667 0.7546 0.4832 0.0
C876 C 0.3908 0.79191 0.43877 0.0
C877 C 0.39064 0.7921 0.35022 0.0
C878 C 0.37801 0.67739 0.4819 0.0
C879 C 0.39526 0.83191 0.4848 0.0
H880 H 0.36747 0.77799 0.74781 0.0
H881 H 0.40715 0.72544 0.74326 0.0
H882 H 0.36572 0.81614 0.53851 0.0
H883 H 0.35981 0.76182 0.54035 0.0
H884 H 0.356 0.80049 0.6257 0.0
H885 H 0.41814 0.7064 0.61733 0.0
H886 H 0.40798 0.69184 0.53156 0.0
H887 H 0.4138 0.7463 0.53454 0.0
H888 H 0.37817 0.69264 0.31411 0.0
H889 H 0.39396 0.8204 0.31636 0.0
H890 H 0.36967 0.68709 0.52334 0.0
H891 H 0.38595 0.66243 0.52257 0.0
H892 H 0.37529 0.65128 0.43719 0.0
H893 H 0.38765 0.84586 0.5288 0.0
H894 H 0.39764 0.85907 0.4412 0.0
H895 H 0.40391 0.82127 0.52299 0.0
C896 C 0.64766 0.28322 0.31976 0.0
C897 C 0.64244 0.24933 0.27326 0.0
C898 C 0.64741 0.28315 0.40836 0.0
C899 C 0.64226 0.2474 0.45198 0.0
C900 C 0.63721 0.21259 0.40514 0.0
C901 C 0.63714 0.21443 0.3165 0.0
C902 C 0.6525 0.32177 0.45526 0.0
C903 C 0.63202 0.17307 0.44864 0.0
C904 C 0.65287 0.22955 0.68097 0.0
C905 C 0.64191 0.24719 0.72519 0.0
C906 C 0.653 0.22825 0.59232 0.0
C907 C 0.64208 0.2467 0.54644 0.0
C908 C 0.63105 0.26514 0.59106 0.0
C909 C 0.63102 0.26437 0.67969 0.0
C910 C 0.66479 0.20685 0.54774 0.0
C911 C 0.61937 0.28661 0.54518 0.0
H912 H 0.65166 0.31051 0.28669 0.0
H913 H 0.63319 0.18795 0.28088 0.0
H914 H 0.64492 0.33776 0.49743 0.0
H915 H 0.66075 0.30914 0.49545 0.0
H916 H 0.6557 0.34788 0.41217 0.0
H917 H 0.62902 0.1477 0.40335 0.0
H918 H 0.63945 0.15646 0.4912 0.0
H919 H 0.62361 0.18488 0.48806 0.0
H920 H 0.66129 0.21596 0.71585 0.0
H921 H 0.62257 0.27846 0.71356 0.0
H922 H 0.66918 0.2324 0.50919 0.0
H923 H 0.66205 0.18027 0.50424 0.0
H924 H 0.67217 0.19164 0.59233 0.0
H925 H 0.62219 0.3142 0.50415 0.0
H926 H 0.61172 0.30061 0.58896 0.0
H927 H 0.61532 0.26152 0.50393 0.0
C928 C 0.38142 0.21752 0.30768 0.0
C929 C 0.38535 0.25395 0.26156 0.0
C930 C 0.38139 0.21789 0.39624 0.0
C931 C 0.38489 0.25635 0.43994 0.0
C932 C 0.38865 0.29356 0.39339 0.0
C933 C 0.38906 0.29156 0.30489 0.0
C934 C 0.37776 0.17684 0.44302 0.0
C935 C 0.39206 0.33579 0.43702 0.0
C936 C 0.37323 0.27064 0.66724 0.0
C937 C 0.38456 0.2588 0.71266 0.0
C938 C 0.37325 0.27102 0.57857 0.0
C939 C 0.38476 0.25741 0.53423 0.0
C940 C 0.39616 0.24451 0.58018 0.0
C941 C 0.39597 0.24626 0.66863 0.0
C942 C 0.36099 0.28654 0.53235 0.0
C943 C 0.40852 0.22813 0.53595 0.0
H944 H 0.37862 0.18826 0.27439 0.0
H945 H 0.39197 0.31999 0.26941 0.0
H946 H 0.38564 0.16456 0.48656 0.0
H947 H 0.36906 0.18568 0.48178 0.0
H948 H 0.37581 0.14898 0.3999 0.0
H949 H 0.39418 0.36255 0.39179 0.0
H950 H 0.384 0.34907 0.47823 0.0
H951 H 0.4006 0.32802 0.47782 0.0
H952 H 0.3644 0.28062 0.70113 0.0
H953 H 0.40473 0.23662 0.70362 0.0
H954 H 0.35787 0.2587 0.49344 0.0
H955 H 0.36272 0.31454 0.48899 0.0
H956 H 0.35304 0.29816 0.57586 0.0
H957 H 0.4069 0.19916 0.49476 0.0
H958 H 0.4164 0.21754 0.5808 0.0
H959 H 0.41171 0.25512 0.49507 0.0
C960 C 0.04112 0.25105 0.39808 0.0
C961 C 0.04715 0.25434 0.47652 0.0
C962 C 0.02764 0.25168 0.39159 0.0
C963 C 0.01997 0.25517 0.46535 0.0
C964 C 0.02602 0.25835 0.54464 0.0
C965 C 0.03948 0.25806 0.5492 0.0
C966 C 0.02158 0.24871 0.30581 0.0
C967 C 0.01827 0.26164 0.62497 0.0
C968 C 0.9843 0.29675 0.45726 0.0
C969 C 0.97838 0.25643 0.46406 0.0
C970 C 0.99778 0.29672 0.45492 0.0
C971 C 1.00564 0.25542 0.46021 0.0
C972 C 0.99976 0.21454 0.46506 0.0
C973 C 0.98624 0.21552 0.4666 0.0
C974 C 1.00363 0.34108 0.44938 0.0
C975 C 1.00775 0.16976 0.47093 0.0
H976 H 0.04696 0.24845 0.3416 0.0
H977 H 0.04405 0.25982 0.61018 0.0
H978 H 0.01608 0.21866 0.30258 0.0
H979 H 0.01465 0.27867 0.29475 0.0
H980 H 0.02884 0.24656 0.25454 0.0
H981 H 0.02442 0.26385 0.6816 0.0
H982 H 1.01118 0.29177 0.623 0.0
H983 H 1.01275 0.23174 0.6314 0.0
H984 H 0.9784 0.32864 0.45654 0.0
H985 H 0.98183 0.18411 0.4705 0.0
H986 H 1.01067 0.3403 0.397 0.0
H987 H 1.00894 0.34688 0.50825 0.0
H988 H 0.99625 0.36994 0.4395 0.0
H989 H 0.01461 0.16581 0.41756 0.0
H990 H 1.00174 0.1409 0.47076 0.0
H991 H 1.01353 0.1684 0.52963 0.0
C992 C 0.98824 0.7243 0.51735 0.0
C993 C 0.98059 0.76309 0.54301 0.0
C994 C 1.00174 0.72287 0.51655 0.0
C995 C 1.00781 0.7611 0.54251 0.0
C996 C 1.00015 0.80042 0.56846 0.0
C997 C 0.98664 0.80102 0.56801 0.0
C998 C 1.00951 0.68043 0.48756 0.0
C999 C 1.00624 0.84174 0.59718 0.0
C1000 C 0.0429 0.73923 0.60978 0.0
C1001 C 0.04945 0.75116 0.53716 0.0
C1002 C 0.02937 0.74344 0.61321 0.0
C1003 C 0.02216 0.7597 0.54213 0.0
C1004 C 0.02871 0.77261 0.46923 0.0
C1005 C 0.04225 0.76829 0.4677 0.0
C1006 C 0.02278 0.72964 0.6924 0.0
C1007 C 0.02142 0.78976 0.39184 0.0
H1008 H 0.98365 0.69509 0.49668 0.0
H1009 H 0.9808 0.83098 0.58855 0.0
H1010 H 0.0156 0.68802 0.43312 0.0
H1011 H 0.01606 0.6671 0.53854 0.0
H1012 H 1.00332 0.65372 0.46889 0.0
H1013 H 0.99897 0.86957 0.61565 0.0
H1014 H 1.01266 0.83318 0.65167 0.0
H1015 H 1.0123 0.8539 0.54618 0.0
H1016 H 0.04838 0.72647 0.66407 0.0
H1017 H 0.04721 0.77704 0.41094 0.0
H1018 H 0.01717 0.70064 0.67893 0.0
H1019 H 0.01588 0.75764 0.71484 0.0
H1020 H 0.02973 0.71995 0.74368 0.0
H1021 H 0.01582 0.76298 0.36635 0.0
H1022 H 0.02791 0.80039 0.34169 0.0
H1023 H 0.01444 0.81879 0.40826 0.0
C1024 C 0.54184 0.71457 0.02163 0.0
C1025 C 0.54884 0.74287 0.97238 0.0
C1026 C 0.52831 0.71798 0.01977 0.0
C1027 C 0.52153 0.75029 0.96688 0.0
C1028 C 0.52853 0.77861 0.91616 0.0
C1029 C 0.54208 0.77476 0.9199 0.0
C1030 C 0.52126 0.68754 0.0758 0.0
C1031 C 0.5217 0.81321 0.85838 0.0
C1032 C 0.48654 0.73305 0.91592 0.0
C1033 C 0.47981 0.76306 0.97188 0.0
C1034 C 0.50009 0.72911 0.91245 0.0
C1035 C 0.50712 0.75536 0.96698 0.0
C1036 C 0.50037 0.78568 0.02358 0.0
C1037 C 0.48684 0.78928 0.02507 0.0
C1038 C 0.5069 0.69669 0.85067 0.0
C1039 C 0.50744 0.81383 0.08372 0.0
H1040 H 0.54695 0.69033 0.0634 0.0
H1041 H 0.54741 0.79652 0.88122 0.0
H1042 H 0.51508 0.70812 0.12079 0.0
H1043 H 0.51485 0.66801 0.03754 0.0
H1044 H 0.52794 0.66357 0.11203 0.0
H1045 H 0.52852 0.83147 0.82065 0.0
H1046 H 0.51528 0.79669 0.81485 0.0
H1047 H 0.51553 0.83813 0.89575 0.0
H1048 H 0.48118 0.71291 0.87424 0.0
H1049 H 0.48174 0.81202 0.06947 0.0
H1050 H 0.5131 0.67049 0.885 0.0
H1051 H 0.51328 0.71479 0.80939 0.0
H1052 H 0.50006 0.67983 0.81066 0.0
H1053 H 0.51366 0.79155 0.12593 0.0
H1054 H 0.50078 0.83626 0.12298 0.0
H1055 H 0.51382 0.83487 0.04832 0.0
C1056 C 0.48528 0.28577 0.02054 0.0
C1057 C 0.47819 0.24985 0.04332 0.0
C1058 C 0.4988 0.28122 0.02138 0.0
C1059 C 0.50549 0.2397 0.04557 0.0
C1060 C 0.49842 0.20327 0.06874 0.0
C1061 C 0.48487 0.20874 0.06718 0.0
C1062 C 0.50594 0.32087 0.99578 0.0
C1063 C 0.50518 0.15851 0.09518 0.0
C1064 C 0.54036 0.21886 0.97297 0.0
C1065 C 0.54716 0.23097 0.04446 0.0
C1066 C 0.52684 0.22047 0.9731 0.0
C1067 C 0.51988 0.23463 0.0464 0.0
C1068 C 0.52668 0.24593 0.11933 0.0
C1069 C 0.5402 0.24389 0.11753 0.0
C1070 C 0.51998 0.20818 0.89396 0.0
C1071 C 0.51966 0.26113 0.19882 0.0
H1072 H 0.48024 0.3174 1.00048 0.0
H1073 H 0.47949 0.18091 0.08548 0.0
H1074 H 0.51229 0.33002 0.04778 0.0
H1075 H 0.5122 0.3117 0.94084 0.0
H1076 H 0.49932 0.35093 0.97912 0.0
H1077 H 0.49831 0.13354 0.11147 0.0
H1078 H 0.51153 0.14455 0.04373 0.0
H1079 H 0.5114 0.16313 0.15051 0.0
H1080 H 0.54559 0.2094 0.91584 0.0
H1081 H 0.54534 0.25262 0.17352 0.0
H1082 H 0.514 0.23813 0.86972 0.0
H1083 H 0.51339 0.18198 0.90781 0.0
H1084 H 0.52678 0.19549 0.84377 0.0
H1085 H 0.51352 0.2929 0.18672 0.0
H1086 H 0.52635 0.26691 0.25122 0.0
H1087 H 0.51321 0.2356 0.21898 0.0
loop_
_geom_bond_atom_site_label_1
_geom_bond_atom_site_label_2
_geom_bond_distance
_geom_bond_site_symmetry_2
_ccdc_geom_bond_type
Sm0 C2 2.846 . S
Sm0 O20 2.543 . S
Sm0 O21 2.450 . S
Sm0 O22 2.681 . S
Sm0 O23 2.464 . S
Sm0 O24 2.396 . S
Sm0 O28 2.386 . S
Sm0 O31 2.408 . S
Sm1 C11 2.846 . S
Sm1 O22 2.386 . S
Sm1 O25 2.408 . S
Sm1 O26 2.543 . S
Sm1 O27 2.450 . S
Sm1 O28 2.681 . S
Sm1 O29 2.464 . S
Sm1 O30 2.396 . S
C2 Sm0 2.846 . S
C2 C3 1.506 . S
C2 O20 1.261 . S
C2 O21 1.242 . S
C3 C2 1.506 . S
C3 C4 1.358 . S
C3 C8 1.382 . S
C4 C3 1.358 . S
C4 C5 1.385 . S
C4 H32 0.930 . S
C5 C4 1.385 . S
C5 C6 1.395 . S
C5 H33 0.929 . S
C6 C5 1.395 . S
C6 C7 1.335 . S
C7 C6 1.335 . S
C7 C8 1.398 . S
C7 H34 0.930 . S
C8 C3 1.382 . S
C8 C7 1.398 . S
C8 H35 0.929 . S
C9 O22 1.271 . S
C9 O23 1.251 . S
C10 O24 1.252 . S
C10 O25 1.272 . S
C11 Sm1 2.846 . S
C11 C12 1.506 . S
C11 O26 1.261 . S
C11 O27 1.242 . S
C12 C11 1.506 . S
C12 C13 1.358 . S
C12 C17 1.382 . S
C13 C12 1.358 . S
C13 C14 1.385 . S
C13 H36 0.930 . S
C14 C13 1.385 . S
C14 C15 1.395 . S
C14 H37 0.929 . S
C15 C14 1.395 . S
C15 C16 1.335 . S
C16 C15 1.335 . S
C16 C17 1.398 . S
C16 H38 0.930 . S
C17 C12 1.382 . S
C17 C16 1.398 . S
C17 H39 0.929 . S
C18 O28 1.271 . S
C18 O29 1.251 . S
C19 O30 1.252 . S
C19 O31 1.272 . S
O20 Sm0 2.543 . S
O20 C2 1.261 . S
O21 Sm0 2.450 . S
O21 C2 1.242 . S
O22 Sm0 2.681 . S
O22 Sm1 2.386 . S
O22 C9 1.271 . S
O23 Sm0 2.464 . S
O23 C9 1.251 . S
O24 Sm0 2.396 . S
O24 C10 1.252 . S
O25 Sm1 2.408 . S
O25 C10 1.272 . S
O26 Sm1 2.543 . S
O26 C11 1.261 . S
O27 Sm1 2.450 . S
O27 C11 1.242 . S
O28 Sm0 2.386 . S
O28 Sm1 2.681 . S
O28 C18 1.271 . S
O29 Sm1 2.464 . S
O29 C18 1.251 . S
O30 Sm1 2.396 . S
O30 C19 1.252 . S
O31 Sm0 2.408 . S
O31 C19 1.272 . S
H32 C4 0.930 . S
H33 C5 0.929 . S
H34 C7 0.930 . S
H35 C8 0.929 . S
H36 C13 0.930 . S
H37 C14 0.929 . S
H38 C16 0.930 . S
H39 C17 0.929 . S
Sm40 C42 2.846 . S
Sm40 O60 2.543 . S
Sm40 O61 2.450 . S
Sm40 O62 2.681 . S
Sm40 O63 2.464 . S
Sm40 O64 2.396 . S
Sm40 O68 2.386 . S
Sm40 O71 2.408 . S
Sm41 C51 2.846 . S
Sm41 O62 2.386 . S
Sm41 O65 2.408 . S
Sm41 O66 2.543 . S
Sm41 O67 2.450 . S
Sm41 O68 2.681 . S
Sm41 O69 2.464 . S
Sm41 O70 2.396 . S
C42 Sm40 2.846 . S
C42 C43 1.506 . S
C42 O60 1.261 . S
C42 O61 1.242 . S
C43 C42 1.506 . S
C43 C44 1.358 . S
C43 C48 1.382 . S
C44 C43 1.358 . S
C44 C45 1.385 . S
C44 H72 0.930 . S
C45 C44 1.385 . S
C45 C46 1.395 . S
C45 H73 0.929 . S
C46 C45 1.395 . S
C46 C47 1.335 . S
C47 C46 1.335 . S
C47 C48 1.398 . S
C47 H74 0.930 . S
C48 C43 1.382 . S
C48 C47 1.398 . S
C48 H75 0.929 . S
C49 O62 1.271 . S
C49 O63 1.251 . S
C50 O64 1.252 . S
C50 O65 1.272 . S
C51 Sm41 2.846 . S
C51 C52 1.506 . S
C51 O66 1.261 . S
C51 O67 1.242 . S
C52 C51 1.506 . S
C52 C53 1.358 . S
C52 C57 1.382 . S
C53 C52 1.358 . S
C53 C54 1.385 . S
C53 H76 0.930 . S
C54 C53 1.385 . S
C54 C55 1.395 . S
C54 H77 0.929 . S
C55 C54 1.395 . S
C55 C56 1.335 . S
C56 C55 1.335 . S
C56 C57 1.398 . S
C56 H78 0.930 . S
C57 C52 1.382 . S
C57 C56 1.398 . S
C57 H79 0.929 . S
C58 O68 1.271 . S
C58 O69 1.251 . S
C59 O70 1.252 . S
C59 O71 1.272 . S
O60 Sm40 2.543 . S
O60 C42 1.261 . S
O61 Sm40 2.450 . S
O61 C42 1.242 . S
O62 Sm40 2.681 . S
O62 Sm41 2.386 . S
O62 C49 1.271 . S
O63 Sm40 2.464 . S
O63 C49 1.251 . S
O64 Sm40 2.396 . S
O64 C50 1.252 . S
O65 Sm41 2.408 . S
O65 C50 1.272 . S
O66 Sm41 2.543 . S
O66 C51 1.261 . S
O67 Sm41 2.450 . S
O67 C51 1.242 . S
O68 Sm40 2.386 . S
O68 Sm41 2.681 . S
O68 C58 1.271 . S
O69 Sm41 2.464 . S
O69 C58 1.251 . S
O70 Sm41 2.396 . S
O70 C59 1.252 . S
O71 Sm40 2.408 . S
O71 C59 1.272 . S
H72 C44 0.930 . S
H73 C45 0.929 . S
H74 C47 0.930 . S
H75 C48 0.929 . S
H76 C53 0.930 . S
H77 C54 0.929 . S
H78 C56 0.930 . S
H79 C57 0.929 . S
Sm80 C82 2.846 . S
Sm80 O100 2.543 . S
Sm80 O101 2.450 . S
Sm80 O102 2.681 . S
Sm80 O103 2.464 . S
Sm80 O104 2.396 . S
Sm80 O108 2.386 . S
Sm80 O111 2.408 . S
Sm81 C91 2.846 . S
Sm81 O102 2.386 . S
Sm81 O105 2.408 . S
Sm81 O106 2.543 . S
Sm81 O107 2.450 . S
Sm81 O108 2.681 . S
Sm81 O109 2.464 . S
Sm81 O110 2.396 . S
C82 Sm80 2.846 . S
C82 C83 1.506 . S
C82 O100 1.261 . S
C82 O101 1.242 . S
C83 C82 1.506 . S
C83 C84 1.358 . S
C83 C88 1.382 . S
C84 C83 1.358 . S
C84 C85 1.385 . S
C84 H112 0.930 . S
C85 C84 1.385 . S
C85 C86 1.395 . S
C85 H113 0.929 . S
C86 C85 1.395 . S
C86 C87 1.335 . S
C87 C86 1.335 . S
C87 C88 1.398 . S
C87 H114 0.930 . S
C88 C83 1.382 . S
C88 C87 1.398 . S
C88 H115 0.929 . S
C89 O102 1.271 . S
C89 O103 1.251 . S
C90 O104 1.252 . S
C90 O105 1.272 . S
C91 Sm81 2.846 . S
C91 C92 1.506 . S
C91 O106 1.261 . S
C91 O107 1.242 . S
C92 C91 1.506 . S
C92 C93 1.358 . S
C92 C97 1.382 . S
C93 C92 1.358 . S
C93 C94 1.385 . S
C93 H116 0.930 . S
C94 C93 1.385 . S
C94 C95 1.395 . S
C94 H117 0.929 . S
C95 C94 1.395 . S
C95 C96 1.335 . S
C96 C95 1.335 . S
C96 C97 1.398 . S
C96 H118 0.930 . S
C97 C92 1.382 . S
C97 C96 1.398 . S
C97 H119 0.929 . S
C98 O108 1.271 . S
C98 O109 1.251 . S
C99 O110 1.252 . S
C99 O111 1.272 . S
O100 Sm80 2.543 . S
O100 C82 1.261 . S
O101 Sm80 2.450 . S
O101 C82 1.242 . S
O102 Sm80 2.681 . S
O102 Sm81 2.386 . S
O102 C89 1.271 . S
O103 Sm80 2.464 . S
O103 C89 1.251 . S
O104 Sm80 2.396 . S
O104 C90 1.252 . S
O105 Sm81 2.408 . S
O105 C90 1.272 . S
O106 Sm81 2.543 . S
O106 C91 1.261 . S
O107 Sm81 2.450 . S
O107 C91 1.242 . S
O108 Sm80 2.386 . S
O108 Sm81 2.681 . S
O108 C98 1.271 . S
O109 Sm81 2.464 . S
O109 C98 1.251 . S
O110 Sm81 2.396 . S
O110 C99 1.252 . S
O111 Sm80 2.408 . S
O111 C99 1.272 . S
H112 C84 0.930 . S
H113 C85 0.929 . S
H114 C87 0.930 . S
H115 C88 0.929 . S
H116 C93 0.930 . S
H117 C94 0.929 . S
H118 C96 0.930 . S
H119 C97 0.929 . S
Sm120 C122 2.846 . S
Sm120 O140 2.543 . S
Sm120 O141 2.450 . S
Sm120 O142 2.681 . S
Sm120 O143 2.464 . S
Sm120 O144 2.396 . S
Sm120 O148 2.386 . S
Sm120 O151 2.408 . S
Sm121 C131 2.846 . S
Sm121 O142 2.386 . S
Sm121 O145 2.408 . S
Sm121 O146 2.543 . S
Sm121 O147 2.450 . S
Sm121 O148 2.681 . S
Sm121 O149 2.464 . S
Sm121 O150 2.396 . S
C122 Sm120 2.846 . S
C122 C123 1.506 . S
C122 O140 1.261 . S
C122 O141 1.242 . S
C123 C122 1.506 . S
C123 C124 1.358 . S
C123 C128 1.382 . S
C124 C123 1.358 . S
C124 C125 1.385 . S
C124 H152 0.930 . S
C125 C124 1.385 . S
C125 C126 1.395 . S
C125 H153 0.929 . S
C126 C125 1.395 . S
C126 C127 1.335 . S
C127 C126 1.335 . S
C127 C128 1.398 . S
C127 H154 0.930 . S
C128 C123 1.382 . S
C128 C127 1.398 . S
C128 H155 0.929 . S
C129 O142 1.271 . S
C129 O143 1.251 . S
C130 O144 1.252 . S
C130 O145 1.272 . S
C131 Sm121 2.846 . S
C131 C132 1.506 . S
C131 O146 1.261 . S
C131 O147 1.242 . S
C132 C131 1.506 . S
C132 C133 1.358 . S
C132 C137 1.382 . S
C133 C132 1.358 . S
C133 C134 1.385 . S
C133 H156 0.930 . S
C134 C133 1.385 . S
C134 C135 1.395 . S
C134 H157 0.929 . S
C135 C134 1.395 . S
C135 C136 1.335 . S
C136 C135 1.335 . S
C136 C137 1.398 . S
C136 H158 0.930 . S
C137 C132 1.382 . S
C137 C136 1.398 . S
C137 H159 0.929 . S
C138 O148 1.271 . S
C138 O149 1.251 . S
C139 O150 1.252 . S
C139 O151 1.272 . S
O140 Sm120 2.543 . S
O140 C122 1.261 . S
O141 Sm120 2.450 . S
O141 C122 1.242 . S
O142 Sm120 2.681 . S
O142 Sm121 2.386 . S
O142 C129 1.271 . S
O143 Sm120 2.464 . S
O143 C129 1.251 . S
O144 Sm120 2.396 . S
O144 C130 1.252 . S
O145 Sm121 2.408 . S
O145 C130 1.272 . S
O146 Sm121 2.543 . S
O146 C131 1.261 . S
O147 Sm121 2.450 . S
O147 C131 1.242 . S
O148 Sm120 2.386 . S
O148 Sm121 2.681 . S
O148 C138 1.271 . S
O149 Sm121 2.464 . S
O149 C138 1.251 . S
O150 Sm121 2.396 . S
O150 C139 1.252 . S
O151 Sm120 2.408 . S
O151 C139 1.272 . S
H152 C124 0.930 . S
H153 C125 0.929 . S
H154 C127 0.930 . S
H155 C128 0.929 . S
H156 C133 0.930 . S
H157 C134 0.929 . S
H158 C136 0.930 . S
H159 C137 0.929 . S
Sm160 C162 2.846 1_556 S
Sm160 O180 2.543 1_556 S
Sm160 O181 2.450 1_556 S
Sm160 O182 2.681 . S
Sm160 O183 2.464 . S
Sm160 O184 2.396 1_556 S
Sm160 O188 2.386 1_556 S
Sm160 O191 2.408 . S
Sm161 C171 2.846 1_554 S
Sm161 O182 2.386 1_554 S
Sm161 O185 2.408 . S
Sm161 O186 2.543 1_554 S
Sm161 O187 2.450 1_554 S
Sm161 O188 2.681 . S
Sm161 O189 2.464 . S
Sm161 O190 2.396 1_554 S
C162 Sm160 2.846 1_554 S
C162 C163 1.506 . S
C162 O180 1.261 . S
C162 O181 1.242 . S
C163 C162 1.506 . S
C163 C164 1.358 . S
C163 C168 1.382 . S
C164 C163 1.358 . S
C164 C165 1.385 . S
C164 H192 0.930 . S
C165 C164 1.385 . S
C165 C166 1.395 . S
C165 H193 0.929 . S
C166 C165 1.395 . S
C166 C167 1.335 . S
C167 C166 1.335 . S
C167 C168 1.398 . S
C167 H194 0.930 . S
C168 C163 1.382 . S
C168 C167 1.398 . S
C168 H195 0.929 . S
C169 O182 1.271 . S
C169 O183 1.251 . S
C170 O184 1.252 . S
C170 O185 1.272 . S
C171 Sm161 2.846 1_556 S
C171 C172 1.506 . S
C171 O186 1.261 . S
C171 O187 1.242 . S
C172 C171 1.506 . S
C172 C173 1.358 . S
C172 C177 1.382 . S
C173 C172 1.358 . S
C173 C174 1.385 . S
C173 H196 0.930 . S
C174 C173 1.385 . S
C174 C175 1.395 . S
C174 H197 0.929 . S
C175 C174 1.395 . S
C175 C176 1.335 . S
C176 C175 1.335 . S
C176 C177 1.398 . S
C176 H198 0.930 . S
C177 C172 1.382 . S
C177 C176 1.398 . S
C177 H199 0.929 . S
C178 O188 1.271 . S
C178 O189 1.251 . S
C179 O190 1.252 . S
C179 O191 1.272 . S
O180 Sm160 2.543 1_554 S
O180 C162 1.261 . S
O181 Sm160 2.450 1_554 S
O181 C162 1.242 . S
O182 Sm160 2.681 . S
O182 Sm161 2.386 1_556 S
O182 C169 1.271 . S
O183 Sm160 2.464 . S
O183 C169 1.251 . S
O184 Sm160 2.396 1_554 S
O184 C170 1.252 . S
O185 Sm161 2.408 . S
O185 C170 1.272 . S
O186 Sm161 2.543 1_556 S
O186 C171 1.261 . S
O187 Sm161 2.450 1_556 S
O187 C171 1.242 . S
O188 Sm160 2.386 1_554 S
O188 Sm161 2.681 . S
O188 C178 1.271 . S
O189 Sm161 2.464 . S
O189 C178 1.251 . S
O190 Sm161 2.396 1_556 S
O190 C179 1.252 . S
O191 Sm160 2.408 . S
O191 C179 1.272 . S
H192 C164 0.930 . S
H193 C165 0.929 . S
H194 C167 0.930 . S
H195 C168 0.929 . S
H196 C173 0.930 . S
H197 C174 0.929 . S
H198 C176 0.930 . S
H199 C177 0.929 . S
Sm200 C202 2.846 1_556 S
Sm200 O220 2.543 1_556 S
Sm200 O221 2.450 1_556 S
Sm200 O222 2.681 . S
Sm200 O223 2.464 . S
Sm200 O224 2.396 1_556 S
Sm200 O228 2.386 1_556 S
Sm200 O231 2.408 . S
Sm201 C211 2.846 1_554 S
Sm201 O222 2.386 1_554 S
Sm201 O225 2.408 . S
Sm201 O226 2.543 1_554 S
Sm201 O227 2.450 1_554 S
Sm201 O228 2.681 . S
Sm201 O229 2.464 . S
Sm201 O230 2.396 1_554 S
C202 Sm200 2.846 1_554 S
C202 C203 1.506 . S
C202 O220 1.261 . S
C202 O221 1.242 . S
C203 C202 1.506 . S
C203 C204 1.358 . S
C203 C208 1.382 . S
C204 C203 1.358 . S
C204 C205 1.385 . S
C204 H232 0.930 . S
C205 C204 1.385 . S
C205 C206 1.395 . S
C205 H233 0.929 . S
C206 C205 1.395 . S
C206 C207 1.335 . S
C207 C206 1.335 . S
C207 C208 1.398 . S
C207 H234 0.930 . S
C208 C203 1.382 . S
C208 C207 1.398 . S
C208 H235 0.929 . S
C209 O222 1.271 . S
C209 O223 1.251 . S
C210 O224 1.252 . S
C210 O225 1.272 . S
C211 Sm201 2.846 1_556 S
C211 C212 1.506 . S
C211 O226 1.261 . S
C211 O227 1.242 . S
C212 C211 1.506 . S
C212 C213 1.358 . S
C212 C217 1.382 . S
C213 C212 1.358 . S
C213 C214 1.385 . S
C213 H236 0.930 . S
C214 C213 1.385 . S
C214 C215 1.395 . S
C214 H237 0.929 . S
C215 C214 1.395 . S
C215 C216 1.335 . S
C216 C215 1.335 . S
C216 C217 1.398 . S
C216 H238 0.930 . S
C217 C212 1.382 . S
C217 C216 1.398 . S
C217 H239 0.929 . S
C218 O228 1.271 . S
C218 O229 1.251 . S
C219 O230 1.252 . S
C219 O231 1.272 . S
O220 Sm200 2.543 1_554 S
O220 C202 1.261 . S
O221 Sm200 2.450 1_554 S
O221 C202 1.242 . S
O222 Sm200 2.681 . S
O222 Sm201 2.386 1_556 S
O222 C209 1.271 . S
O223 Sm200 2.464 . S
O223 C209 1.251 . S
O224 Sm200 2.396 1_554 S
O224 C210 1.252 . S
O225 Sm201 2.408 . S
O225 C210 1.272 . S
O226 Sm201 2.543 1_556 S
O226 C211 1.261 . S
O227 Sm201 2.450 1_556 S
O227 C211 1.242 . S
O228 Sm200 2.386 1_554 S
O228 Sm201 2.681 . S
O228 C218 1.271 . S
O229 Sm201 2.464 . S
O229 C218 1.251 . S
O230 Sm201 2.396 1_556 S
O230 C219 1.252 . S
O231 Sm200 2.408 . S
O231 C219 1.272 . S
H232 C204 0.930 . S
H233 C205 0.929 . S
H234 C207 0.930 . S
H235 C208 0.929 . S
H236 C213 0.930 . S
H237 C214 0.929 . S
H238 C216 0.930 . S
H239 C217 0.929 . S
Sm240 C242 2.846 1_556 S
Sm240 O260 2.543 1_556 S
Sm240 O261 2.450 1_556 S
Sm240 O262 2.681 . S
Sm240 O263 2.464 . S
Sm240 O264 2.396 1_556 S
Sm240 O268 2.386 1_556 S
Sm240 O271 2.408 . S
Sm241 C251 2.846 1_554 S
Sm241 O262 2.386 1_554 S
Sm241 O265 2.408 . S
Sm241 O266 2.543 1_554 S
Sm241 O267 2.450 1_554 S
Sm241 O268 2.681 . S
Sm241 O269 2.464 . S
Sm241 O270 2.396 1_554 S
C242 Sm240 2.846 1_554 S
C242 C243 1.506 . S
C242 O260 1.261 . S
C242 O261 1.242 . S
C243 C242 1.506 . S
C243 C244 1.358 . S
C243 C248 1.382 . S
C244 C243 1.358 . S
C244 C245 1.385 . S
C244 H272 0.930 . S
C245 C244 1.385 . S
C245 C246 1.395 . S
C245 H273 0.929 . S
C246 C245 1.395 . S
C246 C247 1.335 . S
C247 C246 1.335 . S
C247 C248 1.398 . S
C247 H274 0.930 . S
C248 C243 1.382 . S
C248 C247 1.398 . S
C248 H275 0.929 . S
C249 O262 1.271 . S
C249 O263 1.251 . S
C250 O264 1.252 . S
C250 O265 1.272 . S
C251 Sm241 2.846 1_556 S
C251 C252 1.506 . S
C251 O266 1.261 . S
C251 O267 1.242 . S
C252 C251 1.506 . S
C252 C253 1.358 . S
C252 C257 1.382 . S
C253 C252 1.358 . S
C253 C254 1.385 . S
C253 H276 0.930 . S
C254 C253 1.385 . S
C254 C255 1.395 . S
C254 H277 0.929 . S
C255 C254 1.395 . S
C255 C256 1.335 . S
C256 C255 1.335 . S
C256 C257 1.398 . S
C256 H278 0.930 . S
C257 C252 1.382 . S
C257 C256 1.398 . S
C257 H279 0.929 . S
C258 O268 1.271 . S
C258 O269 1.251 . S
C259 O270 1.252 . S
C259 O271 1.272 . S
O260 Sm240 2.543 1_554 S
O260 C242 1.261 . S
O261 Sm240 2.450 1_554 S
O261 C242 1.242 . S
O262 Sm240 2.681 . S
O262 Sm241 2.386 1_556 S
O262 C249 1.271 . S
O263 Sm240 2.464 . S
O263 C249 1.251 . S
O264 Sm240 2.396 1_554 S
O264 C250 1.252 . S
O265 Sm241 2.408 . S
O265 C250 1.272 . S
O266 Sm241 2.543 1_556 S
O266 C251 1.261 . S
O267 Sm241 2.450 1_556 S
O267 C251 1.242 . S
O268 Sm240 2.386 1_554 S
O268 Sm241 2.681 . S
O268 C258 1.271 . S
O269 Sm241 2.464 . S
O269 C258 1.251 . S
O270 Sm241 2.396 1_556 S
O270 C259 1.252 . S
O271 Sm240 2.408 . S
O271 C259 1.272 . S
H272 C244 0.930 . S
H273 C245 0.929 . S
H274 C247 0.930 . S
H275 C248 0.929 . S
H276 C253 0.930 . S
H277 C254 0.929 . S
H278 C256 0.930 . S
H279 C257 0.929 . S
Sm280 C282 2.846 1_556 S
Sm280 O300 2.543 1_556 S
Sm280 O301 2.450 1_556 S
Sm280 O302 2.681 . S
Sm280 O303 2.464 . S
Sm280 O304 2.396 1_556 S
Sm280 O308 2.386 1_556 S
Sm280 O311 2.408 . S
Sm281 C291 2.846 1_554 S
Sm281 O302 2.386 1_554 S
Sm281 O305 2.408 . S
Sm281 O306 2.543 1_554 S
Sm281 O307 2.450 1_554 S
Sm281 O308 2.681 . S
Sm281 O309 2.464 . S
Sm281 O310 2.396 1_554 S
C282 Sm280 2.846 1_554 S
C282 C283 1.506 . S
C282 O300 1.261 . S
C282 O301 1.242 . S
C283 C282 1.506 . S
C283 C284 1.358 . S
C283 C288 1.382 . S
C284 C283 1.358 . S
C284 C285 1.385 . S
C284 H312 0.930 . S
C285 C284 1.385 . S
C285 C286 1.395 . S
C285 H313 0.929 . S
C286 C285 1.395 . S
C286 C287 1.335 . S
C287 C286 1.335 . S
C287 C288 1.398 . S
C287 H314 0.930 . S
C288 C283 1.382 . S
C288 C287 1.398 . S
C288 H315 0.929 . S
C289 O302 1.271 . S
C289 O303 1.251 . S
C290 O304 1.252 . S
C290 O305 1.272 . S
C291 Sm281 2.846 1_556 S
C291 C292 1.506 . S
C291 O306 1.261 . S
C291 O307 1.242 . S
C292 C291 1.506 . S
C292 C293 1.358 . S
C292 C297 1.382 . S
C293 C292 1.358 . S
C293 C294 1.385 . S
C293 H316 0.930 . S
C294 C293 1.385 . S
C294 C295 1.395 . S
C294 H317 0.929 . S
C295 C294 1.395 . S
C295 C296 1.335 . S
C296 C295 1.335 . S
C296 C297 1.398 . S
C296 H318 0.930 . S
C297 C292 1.382 . S
C297 C296 1.398 . S
C297 H319 0.929 . S
C298 O308 1.271 . S
C298 O309 1.251 . S
C299 O310 1.252 . S
C299 O311 1.272 . S
O300 Sm280 2.543 1_554 S
O300 C282 1.261 . S
O301 Sm280 2.450 1_554 S
O301 C282 1.242 . S
O302 Sm280 2.681 . S
O302 Sm281 2.386 1_556 S
O302 C289 1.271 . S
O303 Sm280 2.464 . S
O303 C289 1.251 . S
O304 Sm280 2.396 1_554 S
O304 C290 1.252 . S
O305 Sm281 2.408 . S
O305 C290 1.272 . S
O306 Sm281 2.543 1_556 S
O306 C291 1.261 . S
O307 Sm281 2.450 1_556 S
O307 C291 1.242 . S
O308 Sm280 2.386 1_554 S
O308 Sm281 2.681 . S
O308 C298 1.271 . S
O309 Sm281 2.464 . S
O309 C298 1.251 . S
O310 Sm281 2.396 1_556 S
O310 C299 1.252 . S
O311 Sm280 2.408 . S
O311 C299 1.272 . S
H312 C284 0.930 . S
H313 C285 0.929 . S
H314 C287 0.930 . S
H315 C288 0.929 . S
H316 C293 0.930 . S
H317 C294 0.929 . S
H318 C296 0.930 . S
H319 C297 0.929 . S
C320 C321 1.391 . S
C320 C322 1.394 . S
C320 H336 0.931 . S
C321 C320 1.391 . S
C321 C325 1.376 . S
C322 C320 1.394 . S
C322 C323 1.369 . S
C322 C326 1.531 . S
C323 C322 1.369 . S
C323 C324 1.410 . S
C323 C331 1.503 . S
C324 C323 1.410 . S
C324 C325 1.392 . S
C324 C327 1.511 . S
C325 C321 1.376 . S
C325 C324 1.392 . S
C325 H337 0.929 . S
C326 C322 1.531 . S
C326 H338 0.960 . S
C326 H339 0.962 . S
C326 H340 0.960 . S
C327 C324 1.511 . S
C327 H341 0.961 . S
C327 H342 0.961 . S
C327 H343 0.961 . S
C328 C329 1.370 . S
C328 C330 1.363 . S
C328 H344 0.931 . S
C329 C328 1.370 . S
C329 C333 1.408 . S
C330 C328 1.363 . S
C330 C331 1.370 . S
C330 C334 1.524 . S
C331 C323 1.503 . S
C331 C330 1.370 . S
C331 C332 1.403 . S
C332 C331 1.403 . S
C332 C333 1.404 . S
C332 C335 1.539 . S
C333 C329 1.408 . S
C333 C332 1.404 . S
C333 H345 0.930 . S
C334 C330 1.524 . S
C334 H346 0.956 . S
C334 H347 0.961 . S
C334 H348 0.961 . S
C335 C332 1.539 . S
C335 H349 0.958 . S
C335 H350 0.961 . S
C335 H351 0.960 . S
H336 C320 0.931 . S
H337 C325 0.929 . S
H338 C326 0.960 . S
H339 C326 0.962 . S
H340 C326 0.960 . S
H341 C327 0.961 . S
H342 C327 0.961 . S
H343 C327 0.961 . S
H344 C328 0.931 . S
H345 C333 0.930 . S
H346 C334 0.956 . S
H347 C334 0.961 . S
H348 C334 0.961 . S
H349 C335 0.958 . S
H350 C335 0.961 . S
H351 C335 0.960 . S
C352 C353 1.391 . S
C352 C354 1.394 . S
C352 H368 0.931 . S
C353 C352 1.391 . S
C353 C357 1.376 . S
C354 C352 1.394 . S
C354 C355 1.369 . S
C354 C358 1.531 . S
C355 C354 1.369 . S
C355 C356 1.410 . S
C355 C363 1.503 . S
C356 C355 1.410 . S
C356 C357 1.392 . S
C356 C359 1.511 . S
C357 C353 1.376 . S
C357 C356 1.392 . S
C357 H369 0.929 . S
C358 C354 1.531 . S
C358 H370 0.960 . S
C358 H371 0.962 . S
C358 H372 0.960 . S
C359 C356 1.511 . S
C359 H373 0.961 . S
C359 H374 0.961 . S
C359 H375 0.961 . S
C360 C361 1.370 . S
C360 C362 1.363 . S
C360 H376 0.931 . S
C361 C360 1.370 . S
C361 C365 1.408 . S
C362 C360 1.363 . S
C362 C363 1.370 . S
C362 C366 1.524 . S
C363 C355 1.503 . S
C363 C362 1.370 . S
C363 C364 1.403 . S
C364 C363 1.403 . S
C364 C365 1.404 . S
C364 C367 1.539 . S
C365 C361 1.408 . S
C365 C364 1.404 . S
C365 H377 0.930 . S
C366 C362 1.524 . S
C366 H378 0.956 . S
C366 H379 0.961 . S
C366 H380 0.961 . S
C367 C364 1.539 . S
C367 H381 0.958 . S
C367 H382 0.961 . S
C367 H383 0.960 . S
H368 C352 0.931 . S
H369 C357 0.929 . S
H370 C358 0.960 . S
H371 C358 0.962 . S
H372 C358 0.960 . S
H373 C359 0.961 . S
H374 C359 0.961 . S
H375 C359 0.961 . S
H376 C360 0.931 . S
H377 C365 0.930 . S
H378 C366 0.956 . S
H379 C366 0.961 . S
H380 C366 0.961 . S
H381 C367 0.958 . S
H382 C367 0.961 . S
H383 C367 0.960 . S
C384 C385 1.391 . S
C384 C386 1.394 . S
C384 H400 0.931 . S
C385 C384 1.391 . S
C385 C389 1.376 . S
C386 C384 1.394 . S
C386 C387 1.369 . S
C386 C390 1.531 . S
C387 C386 1.369 . S
C387 C388 1.410 . S
C387 C395 1.503 . S
C388 C387 1.410 . S
C388 C389 1.392 . S
C388 C391 1.511 . S
C389 C385 1.376 . S
C389 C388 1.392 . S
C389 H401 0.929 . S
C390 C386 1.531 . S
C390 H402 0.960 . S
C390 H403 0.962 . S
C390 H404 0.960 . S
C391 C388 1.511 . S
C391 H405 0.961 . S
C391 H406 0.961 . S
C391 H407 0.961 . S
C392 C393 1.370 . S
C392 C394 1.363 . S
C392 H408 0.931 . S
C393 C392 1.370 . S
C393 C397 1.408 . S
C394 C392 1.363 . S
C394 C395 1.370 . S
C394 C398 1.524 . S
C395 C387 1.503 . S
C395 C394 1.370 . S
C395 C396 1.403 . S
C396 C395 1.403 . S
C396 C397 1.404 . S
C396 C399 1.539 . S
C397 C393 1.408 . S
C397 C396 1.404 . S
C397 H409 0.930 . S
C398 C394 1.524 . S
C398 H410 0.956 . S
C398 H411 0.961 . S
C398 H412 0.961 . S
C399 C396 1.539 . S
C399 H413 0.958 . S
C399 H414 0.961 . S
C399 H415 0.960 . S
H400 C384 0.931 . S
H401 C389 0.929 . S
H402 C390 0.960 . S
H403 C390 0.962 . S
H404 C390 0.960 . S
H405 C391 0.961 . S
H406 C391 0.961 . S
H407 C391 0.961 . S
H408 C392 0.931 . S
H409 C397 0.930 . S
H410 C398 0.956 . S
H411 C398 0.961 . S
H412 C398 0.961 . S
H413 C399 0.958 . S
H414 C399 0.961 . S
H415 C399 0.960 . S
C416 C417 1.391 . S
C416 C418 1.394 . S
C416 H432 0.931 . S
C417 C416 1.391 . S
C417 C421 1.376 . S
C418 C416 1.394 . S
C418 C419 1.369 . S
C418 C422 1.531 . S
C419 C418 1.369 . S
C419 C420 1.410 . S
C419 C427 1.503 . S
C420 C419 1.410 . S
C420 C421 1.392 . S
C420 C423 1.511 . S
C421 C417 1.376 . S
C421 C420 1.392 . S
C421 H433 0.929 . S
C422 C418 1.531 . S
C422 H434 0.960 . S
C422 H435 0.962 . S
C422 H436 0.960 . S
C423 C420 1.511 . S
C423 H437 0.961 . S
C423 H438 0.961 . S
C423 H439 0.961 . S
C424 C425 1.370 . S
C424 C426 1.363 . S
C424 H440 0.931 . S
C425 C424 1.370 . S
C425 C429 1.408 . S
C426 C424 1.363 . S
C426 C427 1.370 . S
C426 C430 1.524 . S
C427 C419 1.503 . S
C427 C426 1.370 . S
C427 C428 1.403 . S
C428 C427 1.403 . S
C428 C429 1.404 . S
C428 C431 1.539 . S
C429 C425 1.408 . S
C429 C428 1.404 . S
C429 H441 0.930 . S
C430 C426 1.524 . S
C430 H442 0.956 . S
C430 H443 0.961 . S
C430 H444 0.961 . S
C431 C428 1.539 . S
C431 H445 0.958 . S
C431 H446 0.961 . S
C431 H447 0.960 . S
H432 C416 0.931 . S
H433 C421 0.929 . S
H434 C422 0.960 . S
H435 C422 0.962 . S
H436 C422 0.960 . S
H437 C423 0.961 . S
H438 C423 0.961 . S
H439 C423 0.961 . S
H440 C424 0.931 . S
H441 C429 0.930 . S
H442 C430 0.956 . S
H443 C430 0.961 . S
H444 C430 0.961 . S
H445 C431 0.958 . S
H446 C431 0.961 . S
H447 C431 0.960 . S
C448 C449 1.391 . S
C448 C450 1.394 . S
C448 H464 0.931 . S
C449 C448 1.391 . S
C449 C453 1.376 . S
C450 C448 1.394 . S
C450 C451 1.369 . S
C450 C454 1.531 . S
C451 C450 1.369 . S
C451 C452 1.410 . S
C451 C459 1.503 1_565 S
C452 C451 1.410 . S
C452 C453 1.392 . S
C452 C455 1.511 . S
C453 C449 1.376 . S
C453 C452 1.392 . S
C453 H465 0.929 . S
C454 C450 1.531 . S
C454 H466 0.960 . S
C454 H467 0.962 . S
C454 H468 0.960 . S
C455 C452 1.511 . S
C455 H469 0.961 . S
C455 H470 0.961 1_565 S
C455 H471 0.961 . S
C456 C457 1.370 . S
C456 C458 1.363 . S
C456 H472 0.931 . S
C457 C456 1.370 . S
C457 C461 1.408 . S
C458 C456 1.363 . S
C458 C459 1.370 . S
C458 C462 1.524 . S
C459 C451 1.503 1_545 S
C459 C458 1.370 . S
C459 C460 1.403 . S
C460 C459 1.403 . S
C460 C461 1.404 . S
C460 C463 1.539 . S
C461 C457 1.408 . S
C461 C460 1.404 . S
C461 H473 0.930 . S
C462 C458 1.524 . S
C462 H474 0.956 . S
C462 H475 0.961 . S
C462 H476 0.961 . S
C463 C460 1.539 . S
C463 H477 0.958 1_545 S
C463 H478 0.961 . S
C463 H479 0.960 1_545 S
H464 C448 0.931 . S
H465 C453 0.929 . S
H466 C454 0.960 . S
H467 C454 0.962 . S
H468 C454 0.960 . S
H469 C455 0.961 . S
H470 C455 0.961 1_545 S
H471 C455 0.961 . S
H472 C456 0.931 . S
H473 C461 0.930 . S
H474 C462 0.956 . S
H475 C462 0.961 . S
H476 C462 0.961 . S
H477 C463 0.958 1_565 S
H478 C463 0.961 . S
H479 C463 0.960 1_565 S
C480 C481 1.391 . S
C480 C482 1.394 . S
C480 H496 0.931 . S
C481 C480 1.391 . S
C481 C485 1.376 . S
C482 C480 1.394 . S
C482 C483 1.369 . S
C482 C486 1.531 . S
C483 C482 1.369 . S
C483 C484 1.410 . S
C483 C491 1.503 . S
C484 C483 1.410 . S
C484 C485 1.392 . S
C484 C487 1.511 . S
C485 C481 1.376 . S
C485 C484 1.392 . S
C485 H497 0.929 . S
C486 C482 1.531 . S
C486 H498 0.960 . S
C486 H499 0.962 . S
C486 H500 0.960 . S
C487 C484 1.511 . S
C487 H501 0.961 . S
C487 H502 0.961 . S
C487 H503 0.961 . S
C488 C489 1.370 . S
C488 C490 1.363 . S
C488 H504 0.931 . S
C489 C488 1.370 . S
C489 C493 1.408 . S
C490 C488 1.363 . S
C490 C491 1.370 . S
C490 C494 1.524 . S
C491 C483 1.503 . S
C491 C490 1.370 . S
C491 C492 1.403 . S
C492 C491 1.403 . S
C492 C493 1.404 . S
C492 C495 1.539 . S
C493 C489 1.408 . S
C493 C492 1.404 . S
C493 H505 0.930 . S
C494 C490 1.524 . S
C494 H506 0.956 . S
C494 H507 0.961 . S
C494 H508 0.961 . S
C495 C492 1.539 . S
C495 H509 0.958 . S
C495 H510 0.961 . S
C495 H511 0.960 . S
H496 C480 0.931 . S
H497 C485 0.929 . S
H498 C486 0.960 . S
H499 C486 0.962 . S
H500 C486 0.960 . S
H501 C487 0.961 . S
H502 C487 0.961 . S
H503 C487 0.961 . S
H504 C488 0.931 . S
H505 C493 0.930 . S
H506 C494 0.956 . S
H507 C494 0.961 . S
H508 C494 0.961 . S
H509 C495 0.958 . S
H510 C495 0.961 . S
H511 C495 0.960 . S
C512 C513 1.391 . S
C512 C514 1.394 . S
C512 H528 0.931 . S
C513 C512 1.391 . S
C513 C517 1.376 . S
C514 C512 1.394 . S
C514 C515 1.369 . S
C514 C518 1.531 . S
C515 C514 1.369 . S
C515 C516 1.410 . S
C515 C523 1.503 1_565 S
C516 C515 1.410 . S
C516 C517 1.392 . S
C516 C519 1.511 . S
C517 C513 1.376 . S
C517 C516 1.392 . S
C517 H529 0.929 . S
C518 C514 1.531 . S
C518 H530 0.960 . S
C518 H531 0.962 . S
C518 H532 0.960 . S
C519 C516 1.511 . S
C519 H533 0.961 . S
C519 H534 0.961 1_565 S
C519 H535 0.961 . S
C520 C521 1.370 . S
C520 C522 1.363 . S
C520 H536 0.931 . S
C521 C520 1.370 . S
C521 C525 1.408 . S
C522 C520 1.363 . S
C522 C523 1.370 . S
C522 C526 1.524 . S
C523 C515 1.503 1_545 S
C523 C522 1.370 . S
C523 C524 1.403 . S
C524 C523 1.403 . S
C524 C525 1.404 . S
C524 C527 1.539 . S
C525 C521 1.408 . S
C525 C524 1.404 . S
C525 H537 0.930 . S
C526 C522 1.524 . S
C526 H538 0.956 . S
C526 H539 0.961 . S
C526 H540 0.961 . S
C527 C524 1.539 . S
C527 H541 0.958 . S
C527 H542 0.961 . S
C527 H543 0.960 1_545 S
H528 C512 0.931 . S
H529 C517 0.929 . S
H530 C518 0.960 . S
H531 C518 0.962 . S
H532 C518 0.960 . S
H533 C519 0.961 . S
H534 C519 0.961 1_545 S
H535 C519 0.961 . S
H536 C520 0.931 . S
H537 C525 0.930 . S
H538 C526 0.956 . S
H539 C526 0.961 . S
H540 C526 0.961 . S
H541 C527 0.958 . S
H542 C527 0.961 . S
H543 C527 0.960 1_565 S
C544 C545 1.391 . S
C544 C546 1.394 . S
C544 H560 0.931 . S
C545 C544 1.391 . S
C545 C549 1.376 . S
C546 C544 1.394 . S
C546 C547 1.369 . S
C546 C550 1.531 . S
C547 C546 1.369 . S
C547 C548 1.410 . S
C547 C555 1.503 . S
C548 C547 1.410 . S
C548 C549 1.392 . S
C548 C551 1.511 . S
C549 C545 1.376 . S
C549 C548 1.392 . S
C549 H561 0.929 . S
C550 C546 1.531 . S
C550 H562 0.960 . S
C550 H563 0.962 . S
C550 H564 0.960 . S
C551 C548 1.511 . S
C551 H565 0.961 . S
C551 H566 0.961 . S
C551 H567 0.961 . S
C552 C553 1.370 . S
C552 C554 1.363 . S
C552 H568 0.931 . S
C553 C552 1.370 . S
C553 C557 1.408 . S
C554 C552 1.363 . S
C554 C555 1.370 . S
C554 C558 1.524 . S
C555 C547 1.503 . S
C555 C554 1.370 . S
C555 C556 1.403 . S
C556 C555 1.403 . S
C556 C557 1.404 . S
C556 C559 1.539 . S
C557 C553 1.408 . S
C557 C556 1.404 . S
C557 H569 0.930 . S
C558 C554 1.524 . S
C558 H570 0.956 . S
C558 H571 0.961 . S
C558 H572 0.961 . S
C559 C556 1.539 . S
C559 H573 0.958 . S
C559 H574 0.961 . S
C559 H575 0.960 . S
H560 C544 0.931 . S
H561 C549 0.929 . S
H562 C550 0.960 . S
H563 C550 0.962 . S
H564 C550 0.960 . S
H565 C551 0.961 . S
H566 C551 0.961 . S
H567 C551 0.961 . S
H568 C552 0.931 . S
H569 C557 0.930 . S
H570 C558 0.956 . S
H571 C558 0.961 . S
H572 C558 0.961 . S
H573 C559 0.958 . S
H574 C559 0.961 . S
H575 C559 0.960 . S
C576 C577 1.391 . S
C576 C578 1.394 . S
C576 H592 0.931 . S
C577 C576 1.391 . S
C577 C581 1.376 1_556 S
C578 C576 1.394 . S
C578 C579 1.369 . S
C578 C582 1.531 . S
C579 C578 1.369 . S
C579 C580 1.410 1_556 S
C579 C587 1.503 . S
C580 C579 1.410 1_554 S
C580 C581 1.392 . S
C580 C583 1.511 . S
C581 C577 1.376 1_554 S
C581 C580 1.392 . S
C581 H593 0.929 . S
C582 C578 1.531 . S
C582 H594 0.960 . S
C582 H595 0.962 . S
C582 H596 0.960 . S
C583 C580 1.511 . S
C583 H597 0.961 . S
C583 H598 0.961 . S
C583 H599 0.961 . S
C584 C585 1.370 1_554 S
C584 C586 1.363 . S
C584 H600 0.931 . S
C585 C584 1.370 1_556 S
C585 C589 1.408 . S
C586 C584 1.363 . S
C586 C587 1.370 1_554 S
C586 C590 1.524 . S
C587 C579 1.503 . S
C587 C586 1.370 1_556 S
C587 C588 1.403 . S
C588 C587 1.403 . S
C588 C589 1.404 . S
C588 C591 1.539 . S
C589 C585 1.408 . S
C589 C588 1.404 . S
C589 H601 0.930 . S
C590 C586 1.524 . S
C590 H602 0.956 . S
C590 H603 0.961 . S
C590 H604 0.961 . S
C591 C588 1.539 . S
C591 H605 0.958 . S
C591 H606 0.961 . S
C591 H607 0.960 . S
H592 C576 0.931 . S
H593 C581 0.929 . S
H594 C582 0.960 . S
H595 C582 0.962 . S
H596 C582 0.960 . S
H597 C583 0.961 . S
H598 C583 0.961 . S
H599 C583 0.961 . S
H600 C584 0.931 . S
H601 C589 0.930 . S
H602 C590 0.956 . S
H603 C590 0.961 . S
H604 C590 0.961 . S
H605 C591 0.958 . S
H606 C591 0.961 . S
H607 C591 0.960 . S
C608 C609 1.391 1_554 S
C608 C610 1.394 . S
C608 H624 0.931 . S
C609 C608 1.391 1_556 S
C609 C613 1.376 . S
C610 C608 1.394 . S
C610 C611 1.369 1_554 S
C610 C614 1.531 . S
C611 C610 1.369 1_556 S
C611 C612 1.410 . S
C611 C619 1.503 1_565 S
C612 C611 1.410 . S
C612 C613 1.392 . S
C612 C615 1.511 . S
C613 C609 1.376 . S
C613 C612 1.392 . S
C613 H625 0.929 . S
C614 C610 1.531 . S
C614 H626 0.960 1_565 S
C614 H627 0.962 . S
C614 H628 0.960 . S
C615 C612 1.511 . S
C615 H629 0.961 . S
C615 H630 0.961 1_565 S
C615 H631 0.961 . S
C616 C617 1.370 . S
C616 C618 1.363 . S
C616 H632 0.931 1_556 S
C617 C616 1.370 . S
C617 C621 1.408 . S
C618 C616 1.363 . S
C618 C619 1.370 . S
C618 C622 1.524 1_556 S
C619 C611 1.503 1_545 S
C619 C618 1.370 . S
C619 C620 1.403 . S
C620 C619 1.403 . S
C620 C621 1.404 . S
C620 C623 1.539 . S
C621 C617 1.408 . S
C621 C620 1.404 . S
C621 H633 0.930 . S
C622 C618 1.524 1_554 S
C622 H634 0.962 . S
C622 H635 0.955 1_554 S
C622 H636 0.960 1_554 S
C623 C620 1.539 . S
C623 H637 0.958 1_556 S
C623 H638 0.961 . S
C623 H639 0.960 1_545 S
H624 C608 0.931 . S
H625 C613 0.929 . S
H626 C614 0.960 1_545 S
H627 C614 0.962 . S
H628 C614 0.960 . S
H629 C615 0.961 . S
H630 C615 0.961 1_545 S
H631 C615 0.961 . S
H632 C616 0.931 1_554 S
H633 C621 0.930 . S
H634 C622 0.962 . S
H635 C622 0.955 1_556 S
H636 C622 0.960 1_556 S
H637 C623 0.958 1_554 S
H638 C623 0.961 . S
H639 C623 0.960 1_565 S
C640 C641 1.391 . S
C640 C642 1.394 . S
C640 H656 0.931 . S
C641 C640 1.391 . S
C641 C645 1.376 1_554 S
C642 C640 1.394 . S
C642 C643 1.369 1_554 S
C642 C646 1.531 . S
C643 C642 1.369 1_556 S
C643 C644 1.410 . S
C643 C651 1.503 . S
C644 C643 1.410 . S
C644 C645 1.392 . S
C644 C647 1.511 . S
C645 C641 1.376 1_556 S
C645 C644 1.392 . S
C645 H657 0.929 . S
C646 C642 1.531 . S
C646 H658 0.960 . S
C646 H659 0.962 . S
C646 H660 0.960 . S
C647 C644 1.511 . S
C647 H661 0.961 . S
C647 H662 0.961 . S
C647 H663 0.961 . S
C648 C649 1.370 . S
C648 C650 1.363 . S
C648 H664 0.931 . S
C649 C648 1.370 . S
C649 C653 1.408 1_554 S
C650 C648 1.363 . S
C650 C651 1.370 1_554 S
C650 C654 1.524 . S
C651 C643 1.503 . S
C651 C650 1.370 1_556 S
C651 C652 1.403 . S
C652 C651 1.403 . S
C652 C653 1.404 . S
C652 C655 1.539 . S
C653 C649 1.408 1_556 S
C653 C652 1.404 . S
C653 H665 0.930 . S
C654 C650 1.524 . S
C654 H666 0.956 . S
C654 H667 0.961 . S
C654 H668 0.961 . S
C655 C652 1.539 . S
C655 H669 0.958 . S
C655 H670 0.961 . S
C655 H671 0.960 . S
H656 C640 0.931 . S
H657 C645 0.929 . S
H658 C646 0.960 . S
H659 C646 0.962 . S
H660 C646 0.960 . S
H661 C647 0.961 . S
H662 C647 0.961 . S
H663 C647 0.961 . S
H664 C648 0.931 . S
H665 C653 0.930 . S
H666 C654 0.956 . S
H667 C654 0.961 . S
H668 C654 0.961 . S
H669 C655 0.958 . S
H670 C655 0.961 . S
H671 C655 0.960 . S
C672 C673 1.391 . S
C672 C674 1.394 . S
C672 H688 0.931 . S
C673 C672 1.391 . S
C673 C677 1.376 1_556 S
C674 C672 1.394 . S
C674 C675 1.369 . S
C674 C678 1.531 . S
C675 C674 1.369 . S
C675 C676 1.410 1_556 S
C675 C683 1.503 1_545 S
C676 C675 1.410 1_554 S
C676 C677 1.392 . S
C676 C679 1.511 . S
C677 C673 1.376 1_554 S
C677 C676 1.392 . S
C677 H689 0.929 . S
C678 C674 1.531 . S
C678 H690 0.957 1_545 S
C678 H691 0.962 . S
C678 H692 0.960 . S
C679 C676 1.511 . S
C679 H693 0.961 . S
C679 H694 0.961 1_545 S
C679 H695 0.961 . S
C680 C681 1.370 . S
C680 C682 1.363 . S
C680 H696 0.931 . S
C681 C680 1.370 . S
C681 C685 1.408 1_554 S
C682 C680 1.363 . S
C682 C683 1.370 1_554 S
C682 C686 1.524 . S
C683 C675 1.503 1_565 S
C683 C682 1.370 1_556 S
C683 C684 1.403 . S
C684 C683 1.403 . S
C684 C685 1.404 . S
C684 C687 1.539 . S
C685 C681 1.408 1_556 S
C685 C684 1.404 . S
C685 H697 0.930 . S
C686 C682 1.524 . S
C686 H698 0.956 1_565 S
C686 H699 0.961 1_565 S
C686 H700 0.961 . S
C687 C684 1.539 . S
C687 H701 0.958 . S
C687 H702 0.961 . S
C687 H703 0.960 . S
H688 C672 0.931 . S
H689 C677 0.929 . S
H690 C678 0.957 1_565 S
H691 C678 0.962 . S
H692 C678 0.960 . S
H693 C679 0.961 . S
H694 C679 0.961 1_565 S
H695 C679 0.961 . S
H696 C680 0.931 . S
H697 C685 0.930 . S
H698 C686 0.956 1_545 S
H699 C686 0.961 1_545 S
H700 C686 0.961 . S
H701 C687 0.958 . S
H702 C687 0.961 . S
H703 C687 0.960 . S
C704 C705 1.391 . S
C704 C706 1.394 . S
C704 H720 0.931 . S
C705 C704 1.391 . S
C705 C709 1.376 . S
C706 C704 1.394 . S
C706 C707 1.369 1_554 S
C706 C710 1.531 1_554 S
C707 C706 1.369 1_556 S
C707 C708 1.410 1_556 S
C707 C715 1.503 . S
C708 C707 1.410 1_554 S
C708 C709 1.392 . S
C708 C711 1.511 1_554 S
C709 C705 1.376 . S
C709 C708 1.392 . S
C709 H721 0.929 . S
C710 C706 1.531 1_556 S
C710 H722 0.960 . S
C710 H723 0.962 . S
C710 H724 0.960 . S
C711 C708 1.511 1_556 S
C711 H725 0.961 1_556 S
C711 H726 0.961 . S
C711 H727 0.961 . S
C712 C713 1.370 . S
C712 C714 1.363 . S
C712 H728 0.931 . S
C713 C712 1.370 . S
C713 C717 1.408 . S
C714 C712 1.363 . S
C714 C715 1.370 . S
C714 C718 1.524 . S
C715 C707 1.503 . S
C715 C714 1.370 . S
C715 C716 1.403 . S
C716 C715 1.403 . S
C716 C717 1.404 . S
C716 C719 1.539 . S
C717 C713 1.408 . S
C717 C716 1.404 . S
C717 H729 0.930 . S
C718 C714 1.524 . S
C718 H730 0.956 . S
C718 H731 0.961 . S
C718 H732 0.961 . S
C719 C716 1.539 . S
C719 H733 0.958 . S
C719 H734 0.961 . S
C719 H735 0.960 . S
H720 C704 0.931 . S
H721 C709 0.929 . S
H722 C710 0.960 . S
H723 C710 0.962 . S
H724 C710 0.960 . S
H725 C711 0.961 1_554 S
H726 C711 0.961 . S
H727 C711 0.961 . S
H728 C712 0.931 . S
H729 C717 0.930 . S
H730 C718 0.956 . S
H731 C718 0.961 . S
H732 C718 0.961 . S
H733 C719 0.958 . S
H734 C719 0.961 . S
H735 C719 0.960 . S
C736 C737 1.391 . S
C736 C738 1.394 . S
C736 H752 0.931 . S
C737 C736 1.391 . S
C737 C741 1.376 . S
C738 C736 1.394 . S
C738 C739 1.369 1_554 S
C738 C742 1.531 1_554 S
C739 C738 1.369 1_556 S
C739 C740 1.410 1_556 S
C739 C747 1.503 . S
C740 C739 1.410 1_554 S
C740 C741 1.392 . S
C740 C743 1.510 1_554 S
C741 C737 1.376 . S
C741 C740 1.392 . S
C741 H753 0.929 . S
C742 C738 1.531 1_556 S
C742 H754 0.960 . S
C742 H755 0.962 . S
C742 H756 0.960 . S
C743 C740 1.510 1_556 S
C743 H757 0.959 1_556 S
C743 H758 0.964 . S
C743 H759 0.961 . S
C744 C745 1.370 . S
C744 C746 1.363 . S
C744 H760 0.931 . S
C745 C744 1.370 . S
C745 C749 1.408 . S
C746 C744 1.363 . S
C746 C747 1.370 . S
C746 C750 1.524 . S
C747 C739 1.503 . S
C747 C746 1.370 . S
C747 C748 1.403 . S
C748 C747 1.403 . S
C748 C749 1.404 . S
C748 C751 1.539 . S
C749 C745 1.408 . S
C749 C748 1.404 . S
C749 H761 0.930 . S
C750 C746 1.524 . S
C750 H762 0.956 . S
C750 H763 0.961 . S
C750 H764 0.961 . S
C751 C748 1.539 . S
C751 H765 0.958 . S
C751 H766 0.961 . S
C751 H767 0.960 . S
H752 C736 0.931 . S
H753 C741 0.929 . S
H754 C742 0.960 . S
H755 C742 0.962 . S
H756 C742 0.960 . S
H757 C743 0.959 1_554 S
H758 C743 0.964 . S
H759 C743 0.961 . S
H760 C744 0.931 . S
H761 C749 0.930 . S
H762 C750 0.956 . S
H763 C750 0.961 . S
H764 C750 0.961 . S
H765 C751 0.958 . S
H766 C751 0.961 . S
H767 C751 0.960 . S
C768 C769 1.391 . S
C768 C770 1.394 . S
C768 H784 0.931 . S
C769 C768 1.391 . S
C769 C773 1.376 . S
C770 C768 1.394 . S
C770 C771 1.369 . S
C770 C774 1.531 . S
C771 C770 1.369 . S
C771 C772 1.410 . S
C771 C779 1.503 . S
C772 C771 1.410 . S
C772 C773 1.392 . S
C772 C775 1.511 . S
C773 C769 1.376 . S
C773 C772 1.392 . S
C773 H785 0.929 . S
C774 C770 1.531 . S
C774 H786 0.960 . S
C774 H787 0.962 . S
C774 H788 0.960 . S
C775 C772 1.511 . S
C775 H789 0.961 . S
C775 H790 0.961 . S
C775 H791 0.961 . S
C776 C777 1.370 . S
C776 C778 1.363 . S
C776 H792 0.931 . S
C777 C776 1.370 . S
C777 C781 1.408 . S
C778 C776 1.363 . S
C778 C779 1.370 1_556 S
C778 C782 1.524 1_556 S
C779 C771 1.503 . S
C779 C778 1.370 1_554 S
C779 C780 1.403 1_554 S
C780 C779 1.403 1_556 S
C780 C781 1.404 . S
C780 C783 1.539 1_556 S
C781 C777 1.408 . S
C781 C780 1.404 . S
C781 H793 0.930 . S
C782 C778 1.524 1_554 S
C782 H794 0.956 . S
C782 H795 0.961 . S
C782 H796 0.961 . S
C783 C780 1.539 1_554 S
C783 H797 0.958 . S
C783 H798 0.961 1_554 S
C783 H799 0.960 . S
H784 C768 0.931 . S
H785 C773 0.929 . S
H786 C774 0.960 . S
H787 C774 0.962 . S
H788 C774 0.960 . S
H789 C775 0.961 . S
H790 C775 0.961 . S
H791 C775 0.961 . S
H792 C776 0.931 . S
H793 C781 0.930 . S
H794 C782 0.956 . S
H795 C782 0.961 . S
H796 C782 0.961 . S
H797 C783 0.958 . S
H798 C783 0.961 1_556 S
H799 C783 0.960 . S
C800 C801 1.391 . S
C800 C802 1.394 . S
C800 H816 0.931 . S
C801 C800 1.391 . S
C801 C805 1.376 . S
C802 C800 1.394 . S
C802 C803 1.369 1_556 S
C802 C806 1.531 1_556 S
C803 C802 1.369 1_554 S
C803 C804 1.410 1_554 S
C803 C811 1.503 . S
C804 C803 1.410 1_556 S
C804 C805 1.392 . S
C804 C807 1.511 1_556 S
C805 C801 1.376 . S
C805 C804 1.392 . S
C805 H817 0.929 . S
C806 C802 1.531 1_554 S
C806 H818 0.960 . S
C806 H819 0.962 . S
C806 H820 0.960 1_554 S
C807 C804 1.511 1_554 S
C807 H821 0.961 . S
C807 H822 0.961 . S
C807 H823 0.961 . S
C808 C809 1.370 . S
C808 C810 1.363 . S
C808 H824 0.931 . S
C809 C808 1.370 . S
C809 C813 1.408 . S
C810 C808 1.363 . S
C810 C811 1.370 . S
C810 C814 1.524 . S
C811 C803 1.503 . S
C811 C810 1.370 . S
C811 C812 1.403 . S
C812 C811 1.403 . S
C812 C813 1.404 . S
C812 C815 1.539 . S
C813 C809 1.408 . S
C813 C812 1.404 . S
C813 H825 0.930 . S
C814 C810 1.524 . S
C814 H826 0.956 . S
C814 H827 0.961 . S
C814 H828 0.961 . S
C815 C812 1.539 . S
C815 H829 0.958 . S
C815 H830 0.961 . S
C815 H831 0.960 . S
H816 C800 0.931 . S
H817 C805 0.929 . S
H818 C806 0.960 . S
H819 C806 0.962 . S
H820 C806 0.960 1_556 S
H821 C807 0.961 . S
H822 C807 0.961 . S
H823 C807 0.961 . S
H824 C808 0.931 . S
H825 C813 0.930 . S
H826 C814 0.956 . S
H827 C814 0.961 . S
H828 C814 0.961 . S
H829 C815 0.958 . S
H830 C815 0.961 . S
H831 C815 0.960 . S
C832 C833 1.391 . S
C832 C834 1.394 . S
C832 H848 0.931 . S
C833 C832 1.391 . S
C833 C837 1.376 . S
C834 C832 1.394 . S
C834 C835 1.369 . S
C834 C838 1.531 . S
C835 C834 1.369 . S
C835 C836 1.410 . S
C835 C843 1.503 . S
C836 C835 1.410 . S
C836 C837 1.392 . S
C836 C839 1.511 . S
C837 C833 1.376 . S
C837 C836 1.392 . S
C837 H849 0.929 . S
C838 C834 1.531 . S
C838 H850 0.960 . S
C838 H851 0.962 . S
C838 H852 0.960 . S
C839 C836 1.511 . S
C839 H853 0.961 . S
C839 H854 0.961 . S
C839 H855 0.961 . S
C840 C841 1.370 . S
C840 C842 1.363 . S
C840 H856 0.931 . S
C841 C840 1.370 . S
C841 C845 1.408 . S
C842 C840 1.363 . S
C842 C843 1.370 . S
C842 C846 1.524 . S
C843 C835 1.503 . S
C843 C842 1.370 . S
C843 C844 1.403 . S
C844 C843 1.403 . S
C844 C845 1.404 . S
C844 C847 1.539 . S
C845 C841 1.408 . S
C845 C844 1.404 . S
C845 H857 0.930 . S
C846 C842 1.524 . S
C846 H858 0.956 . S
C846 H859 0.961 . S
C846 H860 0.961 . S
C847 C844 1.539 . S
C847 H861 0.958 . S
C847 H862 0.961 . S
C847 H863 0.960 . S
H848 C832 0.931 . S
H849 C837 0.929 . S
H850 C838 0.960 . S
H851 C838 0.962 . S
H852 C838 0.960 . S
H853 C839 0.961 . S
H854 C839 0.961 . S
H855 C839 0.961 . S
H856 C840 0.931 . S
H857 C845 0.930 . S
H858 C846 0.956 . S
H859 C846 0.961 . S
H860 C846 0.961 . S
H861 C847 0.958 . S
H862 C847 0.961 . S
H863 C847 0.960 . S
C864 C865 1.391 . S
C864 C866 1.394 . S
C864 H880 0.931 . S
C865 C864 1.391 . S
C865 C869 1.376 . S
C866 C864 1.394 . S
C866 C867 1.369 . S
C866 C870 1.531 . S
C867 C866 1.369 . S
C867 C868 1.410 . S
C867 C875 1.503 . S
C868 C867 1.410 . S
C868 C869 1.392 . S
C868 C871 1.511 . S
C869 C865 1.376 . S
C869 C868 1.392 . S
C869 H881 0.929 . S
C870 C866 1.531 . S
C870 H882 0.960 . S
C870 H883 0.962 . S
C870 H884 0.960 . S
C871 C868 1.511 . S
C871 H885 0.961 . S
C871 H886 0.961 . S
C871 H887 0.961 . S
C872 C873 1.370 . S
C872 C874 1.363 . S
C872 H888 0.931 . S
C873 C872 1.370 . S
C873 C877 1.408 . S
C874 C872 1.363 . S
C874 C875 1.370 . S
C874 C878 1.524 . S
C875 C867 1.503 . S
C875 C874 1.370 . S
C875 C876 1.403 . S
C876 C875 1.403 . S
C876 C877 1.404 . S
C876 C879 1.539 . S
C877 C873 1.408 . S
C877 C876 1.404 . S
C877 H889 0.930 . S
C878 C874 1.524 . S
C878 H890 0.956 . S
C878 H891 0.961 . S
C878 H892 0.961 . S
C879 C876 1.539 . S
C879 H893 0.958 . S
C879 H894 0.961 . S
C879 H895 0.960 . S
H880 C864 0.931 . S
H881 C869 0.929 . S
H882 C870 0.960 . S
H883 C870 0.962 . S
H884 C870 0.960 . S
H885 C871 0.961 . S
H886 C871 0.961 . S
H887 C871 0.961 . S
H888 C872 0.931 . S
H889 C877 0.930 . S
H890 C878 0.956 . S
H891 C878 0.961 . S
H892 C878 0.961 . S
H893 C879 0.958 . S
H894 C879 0.961 . S
H895 C879 0.960 . S
C896 C897 1.391 . S
C896 C898 1.394 . S
C896 H912 0.931 . S
C897 C896 1.391 . S
C897 C901 1.376 . S
C898 C896 1.394 . S
C898 C899 1.369 . S
C898 C902 1.531 . S
C899 C898 1.369 . S
C899 C900 1.410 . S
C899 C907 1.503 . S
C900 C899 1.410 . S
C900 C901 1.392 . S
C900 C903 1.511 . S
C901 C897 1.376 . S
C901 C900 1.392 . S
C901 H913 0.929 . S
C902 C898 1.531 . S
C902 H914 0.960 . S
C902 H915 0.962 . S
C902 H916 0.960 . S
C903 C900 1.511 . S
C903 H917 0.961 . S
C903 H918 0.961 . S
C903 H919 0.961 . S
C904 C905 1.370 . S
C904 C906 1.363 . S
C904 H920 0.931 . S
C905 C904 1.370 . S
C905 C909 1.408 . S
C906 C904 1.363 . S
C906 C907 1.370 . S
C906 C910 1.524 . S
C907 C899 1.503 . S
C907 C906 1.370 . S
C907 C908 1.403 . S
C908 C907 1.403 . S
C908 C909 1.404 . S
C908 C911 1.539 . S
C909 C905 1.408 . S
C909 C908 1.404 . S
C909 H921 0.930 . S
C910 C906 1.524 . S
C910 H922 0.956 . S
C910 H923 0.961 . S
C910 H924 0.961 . S
C911 C908 1.539 . S
C911 H925 0.958 . S
C911 H926 0.961 . S
C911 H927 0.960 . S
H912 C896 0.931 . S
H913 C901 0.929 . S
H914 C902 0.960 . S
H915 C902 0.962 . S
H916 C902 0.960 . S
H917 C903 0.961 . S
H918 C903 0.961 . S
H919 C903 0.961 . S
H920 C904 0.931 . S
H921 C909 0.930 . S
H922 C910 0.956 . S
H923 C910 0.961 . S
H924 C910 0.961 . S
H925 C911 0.958 . S
H926 C911 0.961 . S
H927 C911 0.960 . S
C928 C929 1.391 . S
C928 C930 1.394 . S
C928 H944 0.931 . S
C929 C928 1.391 . S
C929 C933 1.376 . S
C930 C928 1.394 . S
C930 C931 1.369 . S
C930 C934 1.531 . S
C931 C930 1.369 . S
C931 C932 1.410 . S
C931 C939 1.503 . S
C932 C931 1.410 . S
C932 C933 1.392 . S
C932 C935 1.511 . S
C933 C929 1.376 . S
C933 C932 1.392 . S
C933 H945 0.929 . S
C934 C930 1.531 . S
C934 H946 0.960 . S
C934 H947 0.962 . S
C934 H948 0.960 . S
C935 C932 1.511 . S
C935 H949 0.961 . S
C935 H950 0.961 . S
C935 H951 0.961 . S
C936 C937 1.370 . S
C936 C938 1.363 . S
C936 H952 0.931 . S
C937 C936 1.370 . S
C937 C941 1.408 . S
C938 C936 1.363 . S
C938 C939 1.370 . S
C938 C942 1.524 . S
C939 C931 1.503 . S
C939 C938 1.370 . S
C939 C940 1.403 . S
C940 C939 1.403 . S
C940 C941 1.404 . S
C940 C943 1.539 . S
C941 C937 1.408 . S
C941 C940 1.404 . S
C941 H953 0.930 . S
C942 C938 1.524 . S
C942 H954 0.956 . S
C942 H955 0.961 . S
C942 H956 0.961 . S
C943 C940 1.539 . S
C943 H957 0.958 . S
C943 H958 0.961 . S
C943 H959 0.960 . S
H944 C928 0.931 . S
H945 C933 0.929 . S
H946 C934 0.960 . S
H947 C934 0.962 . S
H948 C934 0.960 . S
H949 C935 0.961 . S
H950 C935 0.961 . S
H951 C935 0.961 . S
H952 C936 0.931 . S
H953 C941 0.930 . S
H954 C942 0.956 . S
H955 C942 0.961 . S
H956 C942 0.961 . S
H957 C943 0.958 . S
H958 C943 0.961 . S
H959 C943 0.960 . S
C960 C961 1.391 . S
C960 C962 1.394 . S
C960 H976 0.931 . S
C961 C960 1.391 . S
C961 C965 1.376 . S
C962 C960 1.394 . S
C962 C963 1.369 . S
C962 C966 1.531 . S
C963 C962 1.369 . S
C963 C964 1.410 . S
C963 C971 1.503 1_455 S
C964 C963 1.410 . S
C964 C965 1.392 . S
C964 C967 1.511 . S
C965 C961 1.376 . S
C965 C964 1.392 . S
C965 H977 0.929 . S
C966 C962 1.531 . S
C966 H978 0.906 1_455 S
C966 H979 0.962 . S
C966 H980 0.960 . S
C967 C964 1.511 . S
C967 H981 0.961 . S
C967 H982 0.961 1_455 S
C967 H983 0.961 . S
C968 C969 1.370 . S
C968 C970 1.363 . S
C968 H984 0.931 . S
C969 C968 1.370 . S
C969 C973 1.408 . S
C970 C968 1.363 . S
C970 C971 1.370 . S
C970 C974 1.524 . S
C971 C963 1.503 1_655 S
C971 C970 1.370 . S
C971 C972 1.403 . S
C972 C971 1.403 . S
C972 C973 1.404 . S
C972 C975 1.539 . S
C973 C969 1.408 . S
C973 C972 1.404 . S
C973 H985 0.930 . S
C974 C970 1.524 . S
C974 H986 0.956 . S
C974 H987 0.961 . S
C974 H988 0.961 . S
C975 C972 1.539 . S
C975 H989 0.958 . S
C975 H990 0.961 . S
C975 H991 0.960 1_655 S
H976 C960 0.931 . S
H977 C965 0.929 . S
H978 C966 0.906 1_655 S
H979 C966 0.962 . S
H980 C966 0.960 . S
H981 C967 0.961 . S
H982 C967 0.961 1_655 S
H983 C967 0.961 . S
H984 C968 0.931 . S
H985 C973 0.930 . S
H986 C974 0.956 . S
H987 C974 0.961 . S
H988 C974 0.961 . S
H989 C975 0.958 . S
H990 C975 0.961 . S
H991 C975 0.960 1_455 S
C992 C993 1.391 . S
C992 C994 1.394 . S
C992 H1008 0.931 . S
C993 C992 1.391 . S
C993 C997 1.376 . S
C994 C992 1.394 . S
C994 C995 1.369 . S
C994 C998 1.531 . S
C995 C994 1.369 . S
C995 C996 1.410 . S
C995 C1003 1.503 1_655 S
C996 C995 1.410 . S
C996 C997 1.392 . S
C996 C999 1.511 . S
C997 C993 1.376 . S
C997 C996 1.392 . S
C997 H1009 0.929 . S
C998 C994 1.531 . S
C998 H1010 0.960 1_655 S
C998 H1011 0.962 . S
C998 H1012 0.960 . S
C999 C996 1.511 . S
C999 H1013 0.961 . S
C999 H1014 1.001 . S
C999 H1015 0.961 . S
C1000 C1001 1.370 . S
C1000 C1002 1.363 . S
C1000 H1016 0.931 . S
C1001 C1000 1.370 . S
C1001 C1005 1.408 . S
C1002 C1000 1.363 . S
C1002 C1003 1.370 . S
C1002 C1006 1.524 . S
C1003 C995 1.503 1_455 S
C1003 C1002 1.370 . S
C1003 C1004 1.403 . S
C1004 C1003 1.403 . S
C1004 C1005 1.404 . S
C1004 C1007 1.539 . S
C1005 C1001 1.408 . S
C1005 C1004 1.404 . S
C1005 H1017 0.930 . S
C1006 C1002 1.524 . S
C1006 H1018 0.956 . S
C1006 H1019 0.943 1_455 S
C1006 H1020 0.961 . S
C1007 C1004 1.539 . S
C1007 H1021 0.958 . S
C1007 H1022 0.961 . S
C1007 H1023 0.960 1_455 S
H1008 C992 0.931 . S
H1009 C997 0.929 . S
H1010 C998 0.960 1_455 S
H1011 C998 0.962 . S
H1012 C998 0.960 . S
H1013 C999 0.961 . S
H1014 C999 1.001 . S
H1015 C999 0.961 . S
H1016 C1000 0.931 . S
H1017 C1005 0.930 . S
H1018 C1006 0.956 . S
H1019 C1006 0.943 1_655 S
H1020 C1006 0.961 . S
H1021 C1007 0.958 . S
H1022 C1007 0.961 . S
H1023 C1007 0.960 1_655 S
C1024 C1025 1.391 . S
C1024 C1026 1.394 . S
C1024 H1040 0.931 . S
C1025 C1024 1.391 . S
C1025 C1029 1.376 . S
C1026 C1024 1.394 . S
C1026 C1027 1.369 . S
C1026 C1030 1.531 . S
C1027 C1026 1.369 . S
C1027 C1028 1.410 . S
C1027 C1035 1.503 . S
C1028 C1027 1.410 . S
C1028 C1029 1.392 . S
C1028 C1031 1.511 . S
C1029 C1025 1.376 . S
C1029 C1028 1.392 . S
C1029 H1041 0.929 . S
C1030 C1026 1.531 . S
C1030 H1042 0.960 . S
C1030 H1043 0.962 . S
C1030 H1044 0.960 . S
C1031 C1028 1.511 . S
C1031 H1045 0.961 . S
C1031 H1046 0.961 . S
C1031 H1047 0.961 . S
C1032 C1033 1.370 . S
C1032 C1034 1.363 . S
C1032 H1048 0.931 . S
C1033 C1032 1.370 . S
C1033 C1037 1.408 . S
C1034 C1032 1.363 . S
C1034 C1035 1.370 . S
C1034 C1038 1.524 . S
C1035 C1027 1.503 . S
C1035 C1034 1.370 . S
C1035 C1036 1.403 . S
C1036 C1035 1.403 . S
C1036 C1037 1.404 . S
C1036 C1039 1.539 . S
C1037 C1033 1.408 . S
C1037 C1036 1.404 . S
C1037 H1049 0.930 . S
C1038 C1034 1.524 . S
C1038 H1050 0.956 . S
C1038 H1051 0.961 . S
C1038 H1052 0.961 . S
C1039 C1036 1.539 . S
C1039 H1053 0.958 . S
C1039 H1054 0.961 . S
C1039 H1055 0.960 . S
H1040 C1024 0.931 . S
H1041 C1029 0.929 . S
H1042 C1030 0.960 . S
H1043 C1030 0.962 . S
H1044 C1030 0.960 . S
H1045 C1031 0.961 . S
H1046 C1031 0.961 . S
H1047 C1031 0.961 . S
H1048 C1032 0.931 . S
H1049 C1037 0.930 . S
H1050 C1038 0.956 . S
H1051 C1038 0.961 . S
H1052 C1038 0.961 . S
H1053 C1039 0.958 . S
H1054 C1039 0.961 . S
H1055 C1039 0.960 . S
C1056 C1057 1.391 . S
C1056 C1058 1.394 . S
C1056 H1072 0.931 . S
C1057 C1056 1.391 . S
C1057 C1061 1.376 . S
C1058 C1056 1.394 . S
C1058 C1059 1.369 . S
C1058 C1062 1.531 . S
C1059 C1058 1.369 . S
C1059 C1060 1.410 . S
C1059 C1067 1.503 . S
C1060 C1059 1.410 . S
C1060 C1061 1.392 . S
C1060 C1063 1.511 . S
C1061 C1057 1.376 . S
C1061 C1060 1.392 . S
C1061 H1073 0.929 . S
C1062 C1058 1.531 . S
C1062 H1074 0.960 . S
C1062 H1075 0.962 . S
C1062 H1076 0.960 . S
C1063 C1060 1.511 . S
C1063 H1077 0.961 . S
C1063 H1078 0.961 . S
C1063 H1079 0.961 . S
C1064 C1065 1.370 . S
C1064 C1066 1.363 . S
C1064 H1080 0.931 . S
C1065 C1064 1.370 . S
C1065 C1069 1.408 . S
C1066 C1064 1.363 . S
C1066 C1067 1.370 . S
C1066 C1070 1.524 . S
C1067 C1059 1.503 . S
C1067 C1066 1.370 . S
C1067 C1068 1.403 . S
C1068 C1067 1.403 . S
C1068 C1069 1.404 . S
C1068 C1071 1.539 . S
C1069 C1065 1.408 . S
C1069 C1068 1.404 . S
C1069 H1081 0.930 . S
C1070 C1066 1.524 . S
C1070 H1082 0.956 . S
C1070 H1083 0.961 . S
C1070 H1084 0.961 . S
C1071 C1068 1.539 . S
C1071 H1085 0.958 . S
C1071 H1086 0.961 . S
C1071 H1087 0.960 . S
H1072 C1056 0.931 . S
H1073 C1061 0.929 . S
H1074 C1062 0.960 . S
H1075 C1062 0.962 . S
H1076 C1062 0.960 . S
H1077 C1063 0.961 . S
H1078 C1063 0.961 . S
H1079 C1063 0.961 . S
H1080 C1064 0.931 . S
H1081 C1069 0.930 . S
H1082 C1070 0.956 . S
H1083 C1070 0.961 . S
H1084 C1070 0.961 . S
H1085 C1071 0.958 . S
H1086 C1071 0.961 . S
H1087 C1071 0.960 . S
C321 C6 1.673 . S
C329 C295 1.677 . S
C353 C255 1.681 . S
C361 C46 1.674 . S
C385 C206 1.669 . S
C393 C95 1.679 . S
C417 C166 1.670 . S
C425 C135 1.679 . S
C449 C89 1.529 . S
C457 C9 1.582 . S
C481 C49 1.543 . S
C489 C129 1.570 . S
C513 C138 1.548 . S
C521 C58 1.571 . S
C545 C98 1.581 . S
C553 C18 1.558 . S
C577 C169 1.412 . S
C585 C249 1.451 . S
C609 C209 1.466 . S
C617 C289 1.429 . S
C641 C298 1.464 . S
C649 C218 1.434 . S
C673 C258 1.425 1_556 S
C681 C178 1.451 . S
C705 C19 2.041 . S
C713 C10 2.076 . S
C737 C59 2.044 . S
C745 C50 2.075 . S
C769 C99 2.079 . S
C777 C90 2.059 . S
C801 C130 2.061 . S
C809 C139 2.066 . S
C833 C170 2.046 . S
C841 C179 2.072 . S
C865 C219 2.084 . S
C873 C210 2.057 . S
C897 C250 2.069 . S
C905 C259 2.062 . S
C929 C290 2.068 . S
C937 C299 2.062 . S
C961 C15 2.313 . S
C969 C55 2.314 . S
C993 C126 2.295 . S
C1001 C86 2.308 . S
C1025 C175 2.295 . S
C1033 C215 2.311 . S
C1057 C286 2.324 . S
C1065 C246 2.322 . S
