# Generated by pormake.
# Topology wfe, (8)-cn, num edge types: 1
# Building blocks:
#     Node 0, Type 0, BuildingBlock: TAGTUT_clean_sbu_1, # of connection points: 8
#     Node 1, Type 0, BuildingBlock: TAGTUT_clean_sbu_1, # of connection points: 8
#     Node 2, Type 0, BuildingBlock: TAGTUT_clean_sbu_1, # of connection points: 8
#     Node 3, Type 0, BuildingBlock: TAGTUT_clean_sbu_1, # of connection points: 8
#     Node 4, Type 0, BuildingBlock: TAGTUT_clean_sbu_1, # of connection points: 8
#     Node 5, Type 0, BuildingBlock: TAGTUT_clean_sbu_1, # of connection points: 8
#     Node 6, Type 0, BuildingBlock: TAGTUT_clean_sbu_1, # of connection points: 8
#     Node 7, Type 0, BuildingBlock: TAGTUT_clean_sbu_1, # of connection points: 8
#     Edge 8, Type (0, 0), BuildingBlock: TEMPAE_clean_linker_10, # of connection points: 2
#     Edge 9, Type (0, 0), BuildingBlock: TEMPAE_clean_linker_10, # of connection points: 2
#     Edge 10, Type (0, 0), BuildingBlock: TEMPAE_clean_linker_10, # of connection points: 2
#     Edge 11, Type (0, 0), BuildingBlock: TEMPAE_clean_linker_10, # of connection points: 2
#     Edge 12, Type (0, 0), BuildingBlock: TEMPAE_clean_linker_10, # of connection points: 2
#     Edge 13, Type (0, 0), BuildingBlock: TEMPAE_clean_linker_10, # of connection points: 2
#     Edge 14, Type (0, 0), BuildingBlock: TEMPAE_clean_linker_10, # of connection points: 2
#     Edge 15, Type (0, 0), BuildingBlock: TEMPAE_clean_linker_10, # of connection points: 2
#     Edge 16, Type (0, 0), BuildingBlock: TEMPAE_clean_linker_10, # of connection points: 2
#     Edge 17, Type (0, 0), BuildingBlock: TEMPAE_clean_linker_10, # of connection points: 2
#     Edge 18, Type (0, 0), BuildingBlock: TEMPAE_clean_linker_10, # of connection points: 2
#     Edge 19, Type (0, 0), BuildingBlock: TEMPAE_clean_linker_10, # of connection points: 2
#     Edge 20, Type (0, 0), BuildingBlock: TEMPAE_clean_linker_10, # of connection points: 2
#     Edge 21, Type (0, 0), BuildingBlock: TEMPAE_clean_linker_10, # of connection points: 2
#     Edge 22, Type (0, 0), BuildingBlock: TEMPAE_clean_linker_10, # of connection points: 2
#     Edge 23, Type (0, 0), BuildingBlock: TEMPAE_clean_linker_10, # of connection points: 2
#     Edge 24, Type (0, 0), BuildingBlock: TEMPAE_clean_linker_10, # of connection points: 2
#     Edge 25, Type (0, 0), BuildingBlock: TEMPAE_clean_linker_10, # of connection points: 2
#     Edge 26, Type (0, 0), BuildingBlock: TEMPAE_clean_linker_10, # of connection points: 2
#     Edge 27, Type (0, 0), BuildingBlock: TEMPAE_clean_linker_10, # of connection points: 2
#     Edge 28, Type (0, 0), BuildingBlock: TEMPAE_clean_linker_10, # of connection points: 2
#     Edge 29, Type (0, 0), BuildingBlock: TEMPAE_clean_linker_10, # of connection points: 2
#     Edge 30, Type (0, 0), BuildingBlock: TEMPAE_clean_linker_10, # of connection points: 2
#     Edge 31, Type (0, 0), BuildingBlock: TEMPAE_clean_linker_10, # of connection points: 2
#     Edge 32, Type (0, 0), BuildingBlock: TEMPAE_clean_linker_10, # of connection points: 2
#     Edge 33, Type (0, 0), BuildingBlock: TEMPAE_clean_linker_10, # of connection points: 2
#     Edge 34, Type (0, 0), BuildingBlock: TEMPAE_clean_linker_10, # of connection points: 2
#     Edge 35, Type (0, 0), BuildingBlock: TEMPAE_clean_linker_10, # of connection points: 2
#     Edge 36, Type (0, 0), BuildingBlock: TEMPAE_clean_linker_10, # of connection points: 2
#     Edge 37, Type (0, 0), BuildingBlock: TEMPAE_clean_linker_10, # of connection points: 2
#     Edge 38, Type (0, 0), BuildingBlock: TEMPAE_clean_linker_10, # of connection points: 2
#     Edge 39, Type (0, 0), BuildingBlock: TEMPAE_clean_linker_10, # of connection points: 2
# Relax obj value: 0.277
# Max RMSD: 0.306
# Mean RMSD: 0.306
data_MOF--net-wfe--node1-TAGTUT_clean_sbu_1--edge1-TEMPAE_clean_linker_10
_symmetry_space_group_name_H-M    P1
_symmetry_Int_Tables_number       1
_symmetry_cell_setting            triclinic
loop_
_symmetry_equiv_pos_as_xyz
'x, y, z'
_cell_length_a     37.933341
_cell_length_b     37.938891
_cell_length_c     25.229035
_cell_angle_alpha  89.922115
_cell_angle_beta   89.964558
_cell_angle_gamma 89.896464
loop_
_atom_site_label
_atom_site_type_symbol
_atom_site_fract_x
_atom_site_fract_y
_atom_site_fract_z
_atom_type_partial_charge
C0 C 0.50601 0.3858 0.10036 0.0
C1 C 0.45469 0.31668 0.20468 0.0
C2 C 0.60005 0.31157 0.29118 0.0
Mg3 Mg 0.50185 0.3043 0.10294 0.0
O4 O 0.53814 0.30993 0.15267 0.0
Mg5 Mg 0.53912 0.34584 0.21078 0.0
Mg6 Mg 0.56451 0.27217 0.18613 0.0
O7 O 0.59273 0.23371 0.21821 0.0
Mg8 Mg 0.63908 0.24693 0.23157 0.0
Mg9 Mg 0.58732 0.19542 0.16275 0.0
C10 C 0.54669 0.23684 0.06244 0.0
C11 C 0.51053 0.20795 0.21782 0.0
O12 O 0.516 0.38528 0.14903 0.0
O13 O 0.50211 0.35767 0.07281 0.0
O14 O 0.4812 0.32987 0.22973 0.0
O15 O 0.45744 0.30366 0.15776 0.0
O16 O 0.52303 0.26014 0.05099 0.0
O17 O 0.56086 0.23712 0.1089 0.0
C18 C 0.61334 0.33998 0.15442 0.0
O19 O 0.61028 0.30613 0.15142 0.0
O20 O 0.59326 0.35832 0.18421 0.0
O21 O 0.61555 0.15997 0.22436 0.0
O22 O 0.65254 0.19741 0.26599 0.0
O23 O 0.6392 0.20591 0.12048 0.0
C24 C 0.63953 0.16661 0.25889 0.0
O25 O 0.66592 0.25195 0.15721 0.0
O26 O 0.62739 0.29241 0.28184 0.0
C27 C 0.66267 0.22959 0.1199 0.0
O28 O 0.5703 0.30617 0.26595 0.0
O29 O 0.51513 0.24146 0.21591 0.0
O30 O 0.53416 0.18635 0.20182 0.0
C31 C 0.62346 0.01898 0.58274 0.0
C32 C 0.67899 0.96641 0.70585 0.0
C33 C 0.69316 0.1119 0.77745 0.0
Mg34 Mg 0.70318 0.0049 0.60107 0.0
O35 O 0.69889 0.04308 0.64763 0.0
Mg36 Mg 0.6581 0.0538 0.69464 0.0
Mg37 Mg 0.73697 0.06533 0.6869 0.0
O38 O 0.77579 0.08957 0.72465 0.0
Mg39 Mg 0.76662 0.13747 0.72618 0.0
Mg40 Mg 0.81744 0.07905 0.67635 0.0
C41 C 0.77652 0.04379 0.56914 0.0
C42 C 0.79121 0.00599 0.73353 0.0
O43 O 0.62224 0.0338 0.62822 0.0
O44 O 0.65207 0.00716 0.56238 0.0
O45 O 0.66463 0.99516 0.7231 0.0
O46 O 0.69685 0.96508 0.66242 0.0
O47 O 0.75112 0.02332 0.5547 0.0
O48 O 0.77751 0.05512 0.61721 0.0
C49 C 0.6832 0.12019 0.6295 0.0
O50 O 0.71506 0.11308 0.64276 0.0
O51 O 0.65714 0.10739 0.6552 0.0
O52 O 0.84716 0.10435 0.74715 0.0
O53 O 0.81399 0.15217 0.76433 0.0
O54 O 0.81802 0.13057 0.62684 0.0
C55 C 0.83891 0.13088 0.77637 0.0
O56 O 0.76717 0.15572 0.64775 0.0
O57 O 0.71695 0.13518 0.76821 0.0
C58 C 0.79277 0.15148 0.61622 0.0
O59 O 0.69614 0.08023 0.75714 0.0
O60 O 0.75855 0.01362 0.72586 0.0
O61 O 0.81606 0.02677 0.71951 0.0
C62 C 1.001 0.12258 0.0917 0.0
C63 C 0.05053 0.18553 0.20509 0.0
C64 C 0.90538 0.1867 0.28695 0.0
Mg65 Mg 0.0045 0.20358 0.10354 0.0
O66 O 0.9693 0.19649 0.15408 0.0
Mg67 Mg 0.96614 0.15644 0.20485 0.0
Mg68 Mg 0.94585 0.23292 0.19564 0.0
O69 O 0.91946 0.26949 0.23526 0.0
Mg70 Mg 0.87262 0.25541 0.23039 0.0
Mg71 Mg 0.92644 0.31269 0.18885 0.0
C72 C 0.9584 0.27358 0.07573 0.0
C73 C 0.00262 0.29024 0.23973 0.0
O74 O 0.98973 0.12107 0.13954 0.0
O75 O 0.00514 0.15182 0.06696 0.0
O76 O 0.02399 0.17025 0.22747 0.0
O77 O 0.04818 0.20141 0.15999 0.0
O78 O 0.97892 0.24886 0.05872 0.0
O79 O 0.95088 0.275 0.12559 0.0
C80 C 0.89294 0.17238 0.1502 0.0
O81 O 0.89901 0.20532 0.15758 0.0
O82 O 0.91211 0.14833 0.17107 0.0
O83 O 0.8983 0.33768 0.26209 0.0
O84 O 0.85262 0.30028 0.27046 0.0
O85 O 0.87522 0.31215 0.14155 0.0
C86 C 0.87077 0.32647 0.28691 0.0
O87 O 0.85689 0.25714 0.14965 0.0
O88 O 0.87905 0.20623 0.2737 0.0
C89 C 0.85879 0.28564 0.12363 0.0
O90 O 0.93684 0.19257 0.26739 0.0
O91 O 0.99679 0.25759 0.23002 0.0
O92 O 0.9797 0.3141 0.22978 0.0
C93 C 0.88584 0.47529 0.60042 0.0
C94 C 0.82418 0.53796 0.70375 0.0
C95 C 0.80234 0.40493 0.80893 0.0
Mg96 Mg 0.80531 0.48972 0.60546 0.0
O97 O 0.80651 0.45522 0.65846 0.0
Mg98 Mg 0.84385 0.45072 0.71382 0.0
Mg99 Mg 0.76541 0.43963 0.69956 0.0
O100 O 0.72362 0.4225 0.73903 0.0
Mg101 Mg 0.72595 0.37776 0.76954 0.0
Mg102 Mg 0.68509 0.43008 0.68412 0.0
C103 C 0.73202 0.45094 0.57416 0.0
C104 C 0.71317 0.5064 0.72503 0.0
O105 O 0.8844 0.46543 0.64903 0.0
O106 O 0.85814 0.48315 0.57376 0.0
O107 O 0.8367 0.51099 0.72876 0.0
O108 O 0.80923 0.53537 0.65806 0.0
O109 O 0.75905 0.46867 0.55815 0.0
O110 O 0.72885 0.44377 0.62394 0.0
C111 C 0.81884 0.37716 0.6658 0.0
O112 O 0.78646 0.38616 0.67324 0.0
O113 O 0.84454 0.39408 0.68673 0.0
O114 O 0.64652 0.41725 0.75361 0.0
O115 O 0.6771 0.38234 0.80964 0.0
O116 O 0.68638 0.37379 0.65312 0.0
C117 C 0.64947 0.39988 0.79715 0.0
O118 O 0.72102 0.34161 0.7061 0.0
O119 O 0.7763 0.38328 0.81117 0.0
C120 C 0.70234 0.34527 0.66451 0.0
O121 O 0.80189 0.43144 0.7757 0.0
O122 O 0.74548 0.49607 0.72327 0.0
O123 O 0.68759 0.48622 0.71241 0.0
C124 C 0.37503 0.84871 0.74464 0.0
C125 C 0.34327 0.79159 0.88098 0.0
C126 C 0.45989 0.7737 0.94506 0.0
Mg127 Mg 0.36884 0.76931 0.77299 0.0
O128 O 0.41625 0.77837 0.78695 0.0
Mg129 Mg 0.42358 0.81669 0.84228 0.0
Mg130 Mg 0.43953 0.73804 0.82272 0.0
O131 O 0.46067 0.69856 0.86133 0.0
Mg132 Mg 0.49945 0.70245 0.90742 0.0
Mg133 Mg 0.45394 0.65998 0.80842 0.0
C134 C 0.39975 0.69796 0.72068 0.0
C135 C 0.38168 0.68193 0.86328 0.0
O136 O 0.3991 0.85384 0.77958 0.0
O137 O 0.36023 0.81885 0.73688 0.0
O138 O 0.37 0.81145 0.88272 0.0
O139 O 0.33862 0.76933 0.84402 0.0
O140 O 0.37537 0.72111 0.72759 0.0
O141 O 0.42956 0.70026 0.74677 0.0
C142 C 0.4995 0.79554 0.78958 0.0
O143 O 0.49239 0.76245 0.7928 0.0
O144 O 0.47763 0.81937 0.80425 0.0
O145 O 0.47218 0.62175 0.87462 0.0
O146 O 0.49726 0.65048 0.94287 0.0
O147 O 0.51312 0.66809 0.78496 0.0
C148 C 0.48603 0.62219 0.921 0.0
O149 O 0.54128 0.69904 0.84851 0.0
O150 O 0.4818 0.7489 0.95718 0.0
C151 C 0.54123 0.68234 0.80413 0.0
O152 O 0.44608 0.77425 0.89826 0.0
O153 O 0.38944 0.71442 0.8556 0.0
O154 O 0.39902 0.6569 0.84145 0.0
C155 C 0.16794 0.87248 0.23456 0.0
C156 C 0.21846 0.85276 0.39219 0.0
C157 C 0.23083 0.95854 0.44267 0.0
Mg158 Mg 0.2416 0.86753 0.28166 0.0
O159 O 0.23095 0.91527 0.28489 0.0
Mg160 Mg 0.18969 0.92436 0.33429 0.0
Mg161 Mg 0.26919 0.94067 0.32192 0.0
O162 O 0.30695 0.96462 0.35933 0.0
Mg163 Mg 0.30259 1.00101 0.40896 0.0
Mg164 Mg 0.34712 0.95621 0.31029 0.0
C165 C 0.31346 0.89637 0.22965 0.0
C166 C 0.32618 0.88807 0.376 0.0
O167 O 0.15966 0.89887 0.26401 0.0
O168 O 0.1937 0.8519 0.24542 0.0
O169 O 0.19236 0.87259 0.38157 0.0
O170 O 0.24362 0.84834 0.35986 0.0
O171 O 0.29062 0.87203 0.23818 0.0
O172 O 0.30924 0.92775 0.25037 0.0
C173 C 0.21265 0.99886 0.27848 0.0
O174 O 0.24551 0.99174 0.28484 0.0
O175 O 0.18846 0.97737 0.29268 0.0
O176 O 0.3838 0.97937 0.37279 0.0
O177 O 0.35523 1.00042 0.44395 0.0
O178 O 0.33722 0.0143 0.28327 0.0
C179 C 0.38377 0.99297 0.41912 0.0
O180 O 0.30727 0.04236 0.34881 0.0
O181 O 0.256 0.97938 0.45712 0.0
C182 C 0.32348 0.04238 0.30378 0.0
O183 O 0.22926 0.94864 0.3938 0.0
O184 O 0.29383 0.89346 0.36369 0.0
O185 O 0.35123 0.90274 0.35014 0.0
C186 C 0.12746 0.65511 0.74762 0.0
C187 C 0.15509 0.71344 0.88773 0.0
C188 C 0.04714 0.73422 0.94658 0.0
Mg189 Mg 0.13351 0.73454 0.77571 0.0
O190 O 0.08603 0.72572 0.78764 0.0
Mg191 Mg 0.0775 0.68768 0.84362 0.0
Mg192 Mg 0.06255 0.76674 0.82146 0.0
O193 O 0.0418 0.80698 0.85816 0.0
Mg194 Mg 0.00685 0.80561 0.91067 0.0
Mg195 Mg 0.04887 0.84513 0.80474 0.0
C196 C 0.10308 0.80573 0.71997 0.0
C197 C 0.12036 0.82418 0.86005 0.0
O198 O 0.10298 0.65028 0.78213 0.0
O199 O 0.14277 0.68479 0.74034 0.0
O200 O 0.12914 0.69243 0.88877 0.0
O201 O 0.16028 0.73499 0.84981 0.0
O202 O 0.12732 0.78268 0.72896 0.0
O203 O 0.0727 0.8037 0.74464 0.0
C204 C 0.00295 0.70904 0.78665 0.0
O205 O 0.00991 0.74216 0.79019 0.0
O206 O 0.02454 0.68533 0.80263 0.0
O207 O 0.03325 0.88498 0.86973 0.0
O208 O 0.01207 0.85815 0.94267 0.0
O209 O 0.98871 0.83755 0.78649 0.0
C210 C 0.02199 0.88577 0.91761 0.0
O211 O 0.96265 0.80971 0.85564 0.0
O212 O 0.02808 0.76073 0.96105 0.0
C213 C 0.96113 0.82502 0.81003 0.0
O214 O 0.0553 0.73077 0.89731 0.0
O215 O 0.11218 0.79145 0.85578 0.0
O216 O 0.10437 0.84818 0.83381 0.0
C217 C 0.32829 0.6376 0.24107 0.0
C218 C 0.27903 0.64979 0.399 0.0
C219 C 0.27264 0.54445 0.44547 0.0
Mg220 Mg 0.25442 0.63532 0.28923 0.0
O221 O 0.26948 0.58856 0.28845 0.0
Mg222 Mg 0.3114 0.58142 0.3373 0.0
Mg223 Mg 0.23314 0.56044 0.32517 0.0
O224 O 0.19708 0.53451 0.36302 0.0
Mg225 Mg 0.20422 0.49791 0.41184 0.0
Mg226 Mg 0.1563 0.54091 0.3145 0.0
C227 C 0.18712 0.60146 0.23107 0.0
C228 C 0.17261 0.61035 0.37793 0.0
O229 O 0.33875 0.61066 0.26787 0.0
O230 O 0.30095 0.65552 0.25377 0.0
O231 O 0.30607 0.63203 0.38578 0.0
O232 O 0.2525 0.6526 0.36878 0.0
O233 O 0.20669 0.62804 0.24242 0.0
O234 O 0.19296 0.57048 0.25252 0.0
C235 C 0.293 0.50587 0.28089 0.0
O236 O 0.25987 0.51113 0.2879 0.0
O237 O 0.31599 0.52882 0.29446 0.0
O238 O 0.121 0.51815 0.38046 0.0
O239 O 0.15223 0.49456 0.4475 0.0
O240 O 0.16909 0.48296 0.28912 0.0
C241 C 0.12294 0.50342 0.42605 0.0
O242 O 0.20294 0.45678 0.35196 0.0
O243 O 0.24866 0.52238 0.46026 0.0
C244 C 0.18562 0.45589 0.30802 0.0
O245 O 0.27365 0.5543 0.39655 0.0
O246 O 0.20539 0.60562 0.36798 0.0
O247 O 0.14889 0.59473 0.35087 0.0
C248 C 0.62086 0.12422 0.3278 0.0
C249 C 0.64814 0.14056 0.29964 0.0
C250 C 0.62626 0.11309 0.38023 0.0
C251 C 0.65932 0.11943 0.40447 0.0
C252 C 0.68828 0.13042 0.37286 0.0
C253 C 0.68217 0.1408 0.32061 0.0
C254 C 0.59582 0.09699 0.41024 0.0
C255 C 0.72553 0.13399 0.3932 0.0
C256 C 0.65747 0.14886 0.54854 0.0
C257 C 0.67741 0.12215 0.57204 0.0
C258 C 0.65051 0.148 0.49374 0.0
C259 C 0.66256 0.11893 0.46299 0.0
C260 C 0.67987 0.09057 0.48787 0.0
C261 C 0.68822 0.09318 0.54152 0.0
C262 C 0.63153 0.17881 0.46865 0.0
C263 C 0.68967 0.0576 0.4577 0.0
H264 H 0.59452 0.12342 0.31113 0.0
H265 H 0.70347 0.15252 0.29789 0.0
H266 H 0.60488 0.08023 0.44368 0.0
H267 H 0.57873 0.1182 0.42626 0.0
H268 H 0.57934 0.08076 0.38332 0.0
H269 H 0.73432 0.16175 0.38907 0.0
H270 H 0.72932 0.12542 0.43471 0.0
H271 H 0.74323 0.11813 0.36765 0.0
H272 H 0.64809 0.17059 0.57261 0.0
H273 H 0.70246 0.07185 0.56001 0.0
H274 H 0.60458 0.17071 0.45708 0.0
H275 H 0.64545 0.18763 0.43226 0.0
H276 H 0.62925 0.20155 0.49616 0.0
H277 H 0.66674 0.04819 0.43436 0.0
H278 H 0.69848 0.03603 0.48437 0.0
H279 H 0.71121 0.06341 0.42932 0.0
C280 C 0.8782 0.11564 0.85357 0.0
C281 C 0.84635 0.12852 0.83348 0.0
C282 C 0.88344 0.11349 0.90867 0.0
C283 C 0.85624 0.12465 0.94356 0.0
C284 C 0.82283 0.13381 0.92315 0.0
C285 C 0.81843 0.13568 0.86855 0.0
C286 C 0.9186 0.10088 0.92909 0.0
C287 C 0.79143 0.14253 0.95789 0.0
C288 C 0.86168 0.12872 0.09355 0.0
C289 C 0.87567 0.16259 0.10042 0.0
C290 C 0.85591 0.11522 0.04247 0.0
C291 C 0.8649 0.13601 0.99787 0.0
C292 C 0.8791 0.17008 1.0048 0.0
C293 C 0.88353 0.1832 0.05585 0.0
C294 C 0.84131 0.07854 0.03607 0.0
C295 C 0.89199 0.19203 0.95861 0.0
H296 H 0.89915 0.10816 0.82656 0.0
H297 H 0.79265 0.14291 0.85338 0.0
H298 H 0.93776 0.12291 0.9278 0.0
H299 H 0.91691 0.09096 0.97043 0.0
H300 H 0.92899 0.07953 0.90337 0.0
H301 H 0.77455 0.11876 0.96111 0.0
H302 H 0.79866 0.15075 0.99849 0.0
H303 H 0.77509 0.16368 0.93975 0.0
H304 H 0.85681 0.11231 0.12799 0.0
H305 H 0.89621 0.2086 0.06067 0.0
H306 H 0.85757 0.06336 1.00743 0.0
H307 H 0.81419 0.08011 0.01982 0.0
H308 H 0.84037 0.06399 0.07429 0.0
H309 H 0.91848 0.18258 0.94656 0.0
H310 H 0.89445 0.22014 0.96943 0.0
H311 H 0.87438 0.19009 0.92369 0.0
C312 C 0.85528 0.3067 0.37696 0.0
C313 C 0.86667 0.33429 0.34388 0.0
C314 C 0.85311 0.31061 0.43161 0.0
C315 C 0.86172 0.34344 0.45439 0.0
C316 C 0.87516 0.37095 0.42195 0.0
C317 C 0.87774 0.36597 0.36674 0.0
C318 C 0.84122 0.27899 0.46345 0.0
C319 C 0.88641 0.40565 0.44556 0.0
C320 C 0.80534 0.36896 0.57118 0.0
C321 C 0.82717 0.36076 0.61442 0.0
C322 C 0.81701 0.36457 0.51913 0.0
C323 C 0.85094 0.35054 0.50972 0.0
C324 C 0.87277 0.34094 0.55289 0.0
C325 C 0.86074 0.34649 0.60492 0.0
C326 C 0.79344 0.37677 0.47446 0.0
C327 C 0.90893 0.32548 0.54396 0.0
H328 H 0.84856 0.2812 0.36041 0.0
H329 H 0.88792 0.3868 0.34162 0.0
H330 H 0.83909 0.28397 0.50641 0.0
H331 H 0.81539 0.26955 0.44845 0.0
H332 H 0.86025 0.25706 0.45747 0.0
H333 H 0.90107 0.42211 0.4166 0.0
H334 H 0.86288 0.42057 0.45892 0.0
H335 H 0.9033 0.40112 0.48084 0.0
H336 H 0.77988 0.38125 0.5777 0.0
H337 H 0.87803 0.34098 0.63813 0.0
H338 H 0.79427 0.35852 0.44017 0.0
H339 H 0.80228 0.40304 0.46053 0.0
H340 H 0.76574 0.37923 0.48779 0.0
H341 H 0.90644 0.29947 0.52426 0.0
H342 H 0.92372 0.32191 0.58159 0.0
H343 H 0.92441 0.34278 0.51717 0.0
C344 C 0.61759 0.39522 0.10204 0.0
C345 C 0.62786 0.35969 0.10856 0.0
C346 C 0.614 0.41019 0.05164 0.0
C347 C 0.62486 0.39062 1.00694 0.0
C348 C 0.64109 0.35721 0.01437 0.0
C349 C 0.64146 0.34163 0.06486 0.0
C350 C 0.5968 0.44603 0.04737 0.0
C351 C 0.65636 0.33678 0.96868 0.0
C352 C 0.60267 0.38697 0.86249 0.0
C353 C 0.62799 0.41007 0.84257 0.0
C354 C 0.59672 0.38491 0.9173 0.0
C355 C 0.61916 0.40393 0.95217 0.0
C356 C 0.64133 0.4306 0.9314 0.0
C357 C 0.64378 0.43458 0.87644 0.0
C358 C 0.56915 0.35945 0.9371 0.0
C359 C 0.66543 0.45258 0.96575 0.0
H360 H 0.60817 0.41028 0.13572 0.0
H361 H 0.6502 0.31455 0.06929 0.0
H362 H 0.61639 0.46653 0.05789 0.0
H363 H 0.58638 0.45166 1.00722 0.0
H364 H 0.57485 0.44847 0.0763 0.0
H365 H 0.6773 0.31911 0.98298 0.0
H366 H 0.63569 0.32006 0.95061 0.0
H367 H 0.66765 0.35429 0.93776 0.0
H368 H 0.58997 0.36838 0.83609 0.0
H369 H 0.66294 0.45292 0.86026 0.0
H370 H 0.5652 0.36073 0.98062 0.0
H371 H 0.5765 0.33214 0.92584 0.0
H372 H 0.54363 0.36524 0.91734 0.0
H373 H 0.68912 0.4614 0.9435 0.0
H374 H 0.67449 0.43822 1.00156 0.0
H375 H 0.65105 0.4766 0.97847 0.0
C376 C 0.33278 0.87797 0.68707 0.0
C377 C 0.36751 0.87546 0.70487 0.0
C378 C 0.32568 0.88563 0.63414 0.0
C379 C 0.35427 0.89223 0.59933 0.0
C380 C 0.38867 0.89667 0.62003 0.0
C381 C 0.39509 0.88762 0.67299 0.0
C382 C 0.28762 0.88473 0.61671 0.0
C383 C 0.41914 0.90826 0.58573 0.0
C384 C 0.35017 0.85867 0.45759 0.0
C385 C 0.33245 0.88652 0.43325 0.0
C386 C 0.35742 0.85997 0.51224 0.0
C387 C 0.34873 0.89088 0.54149 0.0
C388 C 0.33256 0.91964 0.51602 0.0
C389 C 0.32344 0.91644 0.4629 0.0
C390 C 0.37368 0.82807 0.53856 0.0
C391 C 0.32473 0.95368 0.5449 0.0
H392 H 0.31145 0.86958 0.71285 0.0
H393 H 0.42202 0.88625 0.68733 0.0
H394 H 0.2839 0.88319 0.57328 0.0
H395 H 0.27352 0.86246 0.63581 0.0
H396 H 0.27474 0.90913 0.63096 0.0
H397 H 0.43959 0.92173 0.60978 0.0
H398 H 0.43165 0.88491 0.56721 0.0
H399 H 0.41029 0.9263 0.5537 0.0
H400 H 0.35777 0.83591 0.43428 0.0
H401 H 0.30992 0.93802 0.44425 0.0
H402 H 0.36097 0.82267 0.57738 0.0
H403 H 0.40204 0.83296 0.54583 0.0
H404 H 0.37146 0.80415 0.51346 0.0
H405 H 0.30293 0.94975 0.57343 0.0
H406 H 0.31665 0.97514 0.51763 0.0
H407 H 0.34818 0.96233 0.56772 0.0
C408 C 0.1262 0.88476 0.1588 0.0
C409 C 0.15931 0.87453 0.17784 0.0
C410 C 0.11994 0.88601 0.10382 0.0
C411 C 0.14738 0.87657 0.06822 0.0
C412 C 0.18174 0.87028 0.08753 0.0
C413 C 0.18714 0.86939 0.14191 0.0
C414 C 0.08377 0.89597 0.08393 0.0
C415 C 0.21324 0.86359 0.05194 0.0
C416 C 0.12535 0.81546 0.9564 0.0
C417 C 0.13387 0.8358 0.91174 0.0
C418 C 0.12748 0.82945 1.00734 0.0
C419 C 0.13903 0.86457 0.01413 0.0
C420 C 0.14754 0.88547 0.9695 0.0
C421 C 0.14512 0.87073 0.91867 0.0
C422 C 0.11603 0.80666 0.05348 0.0
C423 C 0.15891 0.92332 0.97548 0.0
H424 H 0.1052 0.89077 0.18653 0.0
H425 H 0.21364 0.86436 0.15628 0.0
H426 H 0.08549 0.91044 0.04572 0.0
H427 H 0.06805 0.87178 0.07724 0.0
H428 H 0.06947 0.91256 0.11317 0.0
H429 H 0.23148 0.84407 0.07013 0.0
H430 H 0.20618 0.85417 0.01189 0.0
H431 H 0.22812 0.88857 0.04742 0.0
H432 H 0.11486 0.7891 0.95165 0.0
H433 H 0.1505 0.88695 0.8842 0.0
H434 H 0.08824 0.81285 0.0635 0.0
H435 H 0.13225 0.81099 0.0894 0.0
H436 H 0.11744 0.77832 0.04338 0.0
H437 H 0.14238 0.93698 1.00546 0.0
H438 H 0.15726 0.93797 0.9374 0.0
H439 H 0.18661 0.92414 0.98943 0.0
C440 C 0.16774 0.62662 0.68541 0.0
C441 C 0.13376 0.62885 0.70656 0.0
C442 C 0.17268 0.61783 0.6323 0.0
C443 C 0.14281 0.61053 0.60059 0.0
C444 C 0.10931 0.60648 0.62437 0.0
C445 C 0.105 0.61612 0.67758 0.0
C446 C 0.20971 0.61768 0.61019 0.0
C447 C 0.07787 0.59411 0.59293 0.0
C448 C 0.14897 0.64181 0.45804 0.0
C449 C 0.16446 0.61236 0.43459 0.0
C450 C 0.14055 0.64125 0.51238 0.0
C451 C 0.14669 0.61005 0.54246 0.0
C452 C 0.16091 0.57994 0.51796 0.0
C453 C 0.17021 0.58183 0.46474 0.0
C454 C 0.1255 0.67406 0.53765 0.0
C455 C 0.1657 0.54537 0.54709 0.0
H456 H 0.19001 0.63547 0.70882 0.0
H457 H 0.07871 0.61733 0.69443 0.0
H458 H 0.21926 0.5901 0.60853 0.0
H459 H 0.21078 0.62824 0.56933 0.0
H460 H 0.22815 0.6329 0.63547 0.0
H461 H 0.05558 0.58642 0.61907 0.0
H462 H 0.06874 0.61545 0.56619 0.0
H463 H 0.08524 0.57123 0.56784 0.0
H464 H 0.14392 0.6651 0.4343 0.0
H465 H 0.18176 0.55893 0.4466 0.0
H466 H 0.14009 0.68067 0.57443 0.0
H467 H 0.09766 0.66937 0.54894 0.0
H468 H 0.12631 0.69712 0.51051 0.0
H469 H 0.17254 0.5489 0.5894 0.0
H470 H 0.18644 0.52884 0.52837 0.0
H471 H 0.14048 0.53061 0.54565 0.0
C472 C 0.37102 0.62987 0.16545 0.0
C473 C 0.33777 0.63951 0.18464 0.0
C474 C 0.37769 0.62993 0.11058 0.0
C475 C 0.35037 0.63979 0.07503 0.0
C476 C 0.31605 0.64636 0.0943 0.0
C477 C 0.31039 0.64646 0.14861 0.0
C478 C 0.41399 0.61997 0.09111 0.0
C479 C 0.28453 0.65291 0.05882 0.0
C480 C 0.37328 0.69584 0.95742 0.0
C481 C 0.36599 0.67319 0.91485 0.0
C482 C 0.3704 0.68434 0.00968 0.0
C483 C 0.35848 0.64973 0.0199 0.0
C484 C 0.35042 0.62679 0.97745 0.0
C485 C 0.35425 0.63883 0.92519 0.0
C486 C 0.38228 0.70873 0.05359 0.0
C487 C 0.33868 0.58939 0.98737 0.0
H488 H 0.39172 0.6227 0.19306 0.0
H489 H 0.28379 0.65135 0.16269 0.0
H490 H 0.41335 0.60929 0.05017 0.0
H491 H 0.43113 0.64362 0.09137 0.0
H492 H 0.42627 0.60004 0.11764 0.0
H493 H 0.26829 0.62861 0.05771 0.0
H494 H 0.26754 0.67411 0.07536 0.0
H495 H 0.29149 0.65987 0.01761 0.0
H496 H 0.38395 0.72189 0.95014 0.0
H497 H 0.34976 0.62092 0.89244 0.0
H498 H 0.40859 0.7002 0.06776 0.0
H499 H 0.36407 0.70796 0.08798 0.0
H500 H 0.38477 0.7364 0.03979 0.0
H501 H 0.35621 0.57653 0.01689 0.0
H502 H 0.33863 0.5734 0.95052 0.0
H503 H 0.31161 0.58951 1.00402 0.0
C504 C 0.48932 0.44945 0.10471 0.0
C505 C 0.50052 0.42041 0.07474 0.0
C506 C 0.48567 0.48289 0.08141 0.0
C507 C 0.49456 0.48755 0.02734 0.0
C508 C 0.50594 0.45829 0.99697 0.0
C509 C 0.50808 0.42492 0.02081 0.0
C510 C 0.47264 0.51327 0.11475 0.0
C511 C 0.5167 0.46235 0.93965 0.0
C512 C 0.45922 0.56546 0.94913 0.0
C513 C 0.48782 0.58874 0.95056 0.0
C514 C 0.46065 0.5329 0.97542 0.0
C515 C 0.49186 0.52301 1.00241 0.0
C516 C 0.52071 0.54669 1.00446 0.0
C517 C 0.51814 0.57955 0.97898 0.0
C518 C 0.4289 0.50898 0.97385 0.0
C519 C 0.55481 0.53685 0.03157 0.0
H520 H 0.48317 0.44596 0.14636 0.0
H521 H 0.51694 0.40259 0.99769 0.0
H522 H 0.49355 0.53356 0.11798 0.0
H523 H 0.44955 0.52595 0.09551 0.0
H524 H 0.46494 0.50483 0.15532 0.0
H525 H 0.52594 0.43714 0.92205 0.0
H526 H 0.49416 0.47235 0.916 0.0
H527 H 0.53823 0.482 0.93632 0.0
H528 H 0.43556 0.57289 0.92769 0.0
H529 H 0.54031 0.59755 0.9797 0.0
H530 H 0.4213 0.50111 0.01466 0.0
H531 H 0.43549 0.48453 0.95186 0.0
H532 H 0.40585 0.52169 0.95448 0.0
H533 H 0.5498 0.5247 0.07086 0.0
H534 H 0.57236 0.55997 0.03695 0.0
H535 H 0.56892 0.5171 1.00703 0.0
C536 C 0.57823 0.98406 0.5345 0.0
C537 C 0.59025 0.01654 0.55322 0.0
C538 C 0.54424 0.98093 0.51298 0.0
C539 C 0.52243 0.01122 0.50903 0.0
C540 C 0.53524 0.04435 0.52593 0.0
C541 C 0.56887 0.0465 0.54857 0.0
C542 C 0.5313 0.94511 0.49581 0.0
C543 C 0.51327 0.07742 0.52082 0.0
C544 C 0.4474 0.00702 0.41048 0.0
C545 C 0.41841 1.00004 0.44343 0.0
C546 C 0.48123 0.01146 0.43146 0.0
C547 C 0.48634 0.00828 0.48674 0.0
C548 C 0.45708 0.00192 0.52044 0.0
C549 C 0.42327 0.99823 0.49835 0.0
C550 C 0.51155 0.01917 0.39437 0.0
C551 C 0.46163 0.99834 0.57963 0.0
H552 H 0.59479 0.96091 0.53884 0.0
H553 H 0.57847 0.07163 0.56302 0.0
H554 H 0.50731 0.93797 0.51861 0.0
H555 H 0.52386 0.94575 0.4533 0.0
H556 H 0.55146 0.9242 0.50174 0.0
H557 H 0.5049 0.08115 0.47906 0.0
H558 H 0.489 0.07492 0.54508 0.0
H559 H 0.52779 0.10131 0.53376 0.0
H560 H 0.44362 0.00898 0.36797 0.0
H561 H 0.40091 0.9928 0.5238 0.0
H562 H 0.53114 0.99745 0.39623 0.0
H563 H 0.52519 0.04363 0.4068 0.0
H564 H 0.50282 0.02233 0.35261 0.0
H565 H 0.48023 0.97651 0.58852 0.0
H566 H 0.43628 0.99308 0.60024 0.0
H567 H 0.47324 0.02281 0.59605 0.0
C568 C 0.01997 0.05978 0.09467 0.0
C569 C 0.00884 0.08894 0.06475 0.0
C570 C 0.02512 0.02679 0.07098 0.0
C571 C 0.0182 0.0227 0.01626 0.0
C572 C 0.0081 0.05232 0.98546 0.0
C573 C 0.00378 0.08524 0.01006 0.0
C574 C 0.03717 0.99614 0.10474 0.0
C575 C 1.00067 0.04892 0.92693 0.0
C576 C 0.05122 0.94165 0.94323 0.0
C577 C 0.02142 0.91994 0.94481 0.0
C578 C 0.05085 0.97498 0.96722 0.0
C579 C 0.01958 0.98708 0.99194 0.0
C580 C 0.9894 0.96512 0.99349 0.0
C581 C 0.9909 0.93146 0.9706 0.0
C582 C 0.08395 0.99701 0.96652 0.0
C583 C 0.95536 0.97742 0.01848 0.0
H584 H 0.0245 0.06273 0.13687 0.0
H585 H 0.99518 0.10776 0.9869 0.0
H586 H 0.0159 0.97617 0.10727 0.0
H587 H 0.06037 0.98313 0.08639 0.0
H588 H 0.04429 0.0044 0.14559 0.0
H589 H 0.9962 0.07492 0.90774 0.0
H590 H 0.02291 0.0356 0.90657 0.0
H591 H 0.97692 0.03234 0.92106 0.0
H592 H 0.07496 0.93232 0.92372 0.0
H593 H 0.96786 0.91458 0.97132 0.0
H594 H 0.09413 0.99978 1.00752 0.0
H595 H 0.07825 0.02392 0.95152 0.0
H596 H 0.10497 0.98512 0.94158 0.0
H597 H 0.95965 0.98341 0.06101 0.0
H598 H 0.93408 0.95746 0.01525 0.0
H599 H 0.94634 0.00213 0.99909 0.0
C600 C 0.95125 0.4816 0.6069 0.0
C601 C 0.921 0.47837 0.57523 0.0
C602 C 0.98478 0.48533 0.58416 0.0
C603 C 0.9883 0.48509 0.52835 0.0
C604 C 0.95795 0.4815 0.49608 0.0
C605 C 0.9246 0.47854 0.51993 0.0
C606 C 0.01637 0.49014 0.61985 0.0
C607 C 0.96074 0.48057 0.4364 0.0
C608 C 0.0684 0.52782 0.46534 0.0
C609 C 0.08995 0.49859 0.4555 0.0
C610 C 0.03555 0.52386 0.49006 0.0
C611 C 0.02366 0.48968 0.50379 0.0
C612 C 0.04552 0.46003 0.494 0.0
C613 C 0.07877 0.46493 0.47053 0.0
C614 C 0.0134 0.55618 0.50087 0.0
C615 C 0.03347 0.42316 0.50722 0.0
H616 H 0.94868 0.48193 0.6497 0.0
H617 H 0.90137 0.47604 0.49526 0.0
H618 H 0.03592 0.46892 0.61256 0.0
H619 H 0.02949 0.51557 0.61076 0.0
H620 H 0.00912 0.48986 0.66252 0.0
H621 H 0.93449 0.48023 0.41693 0.0
H622 H 0.97558 0.50377 0.42168 0.0
H623 H 0.97555 0.45668 0.42415 0.0
H624 H 0.07738 0.55385 0.45371 0.0
H625 H 0.09549 0.44239 0.46219 0.0
H626 H 0.0066 0.55753 0.54361 0.0
H627 H 0.98828 0.55458 0.47852 0.0
H628 H 0.0271 0.58093 0.48953 0.0
H629 H 0.02768 0.42104 0.55021 0.0
H630 H 0.05348 0.40294 0.49663 0.0
H631 H 0.00868 0.41723 0.48569 0.0
C632 C 0.68669 0.24207 0.02974 0.0
C633 C 0.69034 0.22713 0.0803 0.0
C634 C 0.717 0.24845 0.9991 0.0
C635 C 0.75023 0.24205 0.02205 0.0
C636 C 0.75255 0.21862 0.06584 0.0
C637 C 0.72233 0.21232 0.09564 0.0
C638 C 0.7145 0.26501 0.94502 0.0
C639 C 0.78724 0.20576 0.08774 0.0
C640 C 0.83971 0.2708 0.03292 0.0
C641 C 0.8347 0.28994 0.07969 0.0
C642 C 0.81062 0.26239 1.00119 0.0
C643 C 0.77678 0.27055 0.02042 0.0
C644 C 0.77321 0.29731 0.05946 0.0
C645 C 0.80254 0.30624 0.08972 0.0
C646 C 0.81536 0.24002 0.95267 0.0
C647 C 0.73793 0.31175 0.07615 0.0
H648 H 0.66107 0.25104 0.01623 0.0
H649 H 0.72433 0.19864 0.13334 0.0
H650 H 0.72838 0.29074 0.94432 0.0
H651 H 0.72787 0.24772 0.91577 0.0
H652 H 0.68677 0.26885 0.93238 0.0
H653 H 0.78389 0.18056 0.10967 0.0
H654 H 0.80688 0.20154 0.05598 0.0
H655 H 0.79762 0.22549 0.11604 0.0
H656 H 0.86538 0.26 0.02388 0.0
H657 H 0.79936 0.32244 0.12484 0.0
H658 H 0.79221 0.24195 0.92597 0.0
H659 H 0.81863 0.21218 0.9647 0.0
H660 H 0.83933 0.24817 0.9307 0.0
H661 H 0.72087 0.31566 0.04126 0.0
H662 H 0.74068 0.33742 0.09689 0.0
H663 H 0.72496 0.29306 0.10376 0.0
C664 C 0.70011 0.28252 0.6434 0.0
C665 C 0.70337 0.31706 0.62561 0.0
C666 C 0.71357 0.25485 0.61338 0.0
C667 C 0.73134 0.26256 0.5652 0.0
C668 C 0.72845 0.29644 0.54272 0.0
C669 C 0.71512 0.32394 0.57397 0.0
C670 C 0.71321 0.21858 0.63775 0.0
C671 C 0.74268 0.30403 0.4883 0.0
C672 C 0.81043 0.20885 0.58616 0.0
C673 C 0.79505 0.17671 0.57303 0.0
C674 C 0.79219 0.24007 0.57555 0.0
C675 C 0.75971 0.23836 0.54793 0.0
C676 C 0.75057 0.20718 0.52121 0.0
C677 C 0.76791 0.17589 0.53539 0.0
C678 C 0.80377 0.27312 0.60347 0.0
C679 C 0.71895 0.2061 0.4854 0.0
H680 H 0.69011 0.27748 0.68301 0.0
H681 H 0.71686 0.35091 0.5599 0.0
H682 H 0.7108 0.19774 0.6073 0.0
H683 H 0.73811 0.21481 0.66003 0.0
H684 H 0.69106 0.21551 0.66623 0.0
H685 H 0.77167 0.30647 0.49061 0.0
H686 H 0.7367 0.28206 0.46085 0.0
H687 H 0.73146 0.32871 0.47168 0.0
H688 H 0.83213 0.20927 0.61418 0.0
H689 H 0.75695 0.15072 0.52357 0.0
H690 H 0.78973 0.27533 0.64195 0.0
H691 H 0.79721 0.29657 0.57942 0.0
H692 H 0.83257 0.27281 0.61145 0.0
H693 H 0.71218 0.17883 0.47473 0.0
H694 H 0.72481 0.22088 0.44849 0.0
H695 H 0.69568 0.2186 0.50431 0.0
C696 C 0.28287 0.80477 0.90771 0.0
C697 C 0.31673 0.79457 0.92223 0.0
C698 C 0.25422 0.79476 0.93877 0.0
C699 C 0.26023 0.7719 0.98249 0.0
C700 C 0.29442 0.76992 1.00416 0.0
C701 C 0.323 0.78088 0.97288 0.0
C702 C 0.21786 0.80257 0.91794 0.0
C703 C 0.30114 0.75056 0.05506 0.0
C704 C 0.17452 0.73111 0.97719 0.0
C705 C 0.18077 0.71248 0.93032 0.0
C706 C 0.20309 0.74418 1.00644 0.0
C707 C 0.23729 0.74037 0.98531 0.0
C708 C 0.24335 0.71412 0.94616 0.0
C709 C 0.21461 0.7009 0.91823 0.0
C710 C 0.19642 0.76641 0.05463 0.0
C711 C 0.27959 0.7056 0.92519 0.0
H712 H 0.27849 0.81724 0.86952 0.0
H713 H 0.34972 0.77503 0.98522 0.0
H714 H 0.20935 0.78093 0.89142 0.0
H715 H 0.19877 0.80502 0.95077 0.0
H716 H 0.2175 0.82744 0.89463 0.0
H717 H 0.32412 0.76195 0.07569 0.0
H718 H 0.27796 0.75136 0.08174 0.0
H719 H 0.30721 0.72271 0.0462 0.0
H720 H 0.14782 0.73813 0.98806 0.0
H721 H 0.21896 0.68523 0.88285 0.0
H722 H 0.18932 0.79339 0.04203 0.0
H723 H 0.22002 0.76809 0.08031 0.0
H724 H 0.17416 0.75552 0.07803 0.0
H725 H 0.28656 0.72456 0.89339 0.0
H726 H 0.28041 0.6787 0.90785 0.0
H727 H 0.29967 0.70712 0.95671 0.0
C728 C 0.24166 0.83122 0.4773 0.0
C729 C 0.2168 0.82867 0.43652 0.0
C730 C 0.25099 0.80111 0.50634 0.0
C731 C 0.23809 0.76818 0.48936 0.0
C732 C 0.2086 0.76692 0.45449 0.0
C733 C 0.1978 0.79779 0.4293 0.0
C734 C 0.27706 0.8039 0.5512 0.0
C735 C 0.19208 0.73275 0.43648 0.0
C736 C 0.30074 0.70569 0.43037 0.0
C737 C 0.2817 0.67527 0.44122 0.0
C738 C 0.29066 0.73745 0.4534 0.0
C739 C 0.26212 0.7375 0.49009 0.0
C740 C 0.24997 0.70529 0.51113 0.0
C741 C 0.25808 0.67422 0.48378 0.0
C742 C 0.30676 0.77085 0.43146 0.0
C743 C 0.22559 0.70407 0.55822 0.0
H744 H 0.2553 0.85592 0.48403 0.0
H745 H 0.1781 0.79664 0.39816 0.0
H746 H 0.26236 0.80975 0.58813 0.0
H747 H 0.29201 0.77917 0.55816 0.0
H748 H 0.29589 0.82559 0.54399 0.0
H749 H 0.169 0.73705 0.41012 0.0
H750 H 0.21167 0.71669 0.41446 0.0
H751 H 0.18291 0.71746 0.47114 0.0
H752 H 0.31964 0.70565 0.39805 0.0
H753 H 0.24452 0.64991 0.49335 0.0
H754 H 0.31657 0.7875 0.46419 0.0
H755 H 0.28668 0.78601 0.40892 0.0
H756 H 0.32929 0.76551 0.40446 0.0
H757 H 0.23925 0.69041 0.59125 0.0
H758 H 0.20175 0.68854 0.54865 0.0
H759 H 0.21769 0.73065 0.57228 0.0
C760 C 0.54915 0.21383 0.96665 0.0
C761 C 0.55962 0.21095 0.02013 0.0
C762 C 0.5646 0.19287 0.92595 0.0
C763 C 0.59292 0.1693 0.93756 0.0
C764 C 0.60244 0.16524 0.99171 0.0
C765 C 0.58482 0.18478 0.03178 0.0
C766 C 0.55082 0.19718 0.87026 0.0
C767 C 0.63262 0.1415 1.00744 0.0
C768 C 0.63834 0.10315 0.83914 0.0
C769 C 0.66387 0.12465 0.81466 0.0
C770 C 0.61412 0.1171 0.87749 0.0
C771 C 0.61584 0.1533 0.89347 0.0
C772 C 0.64118 0.17484 0.86811 0.0
C773 C 0.66377 0.16072 0.82913 0.0
C774 C 0.58716 0.09248 0.90087 0.0
C775 C 0.64555 0.21308 0.88327 0.0
H776 H 0.52918 0.23305 0.95604 0.0
H777 H 0.59152 0.17989 0.07247 0.0
H778 H 0.56112 0.22205 0.85309 0.0
H779 H 0.55835 0.17492 0.84409 0.0
H780 H 0.52161 0.19939 0.87074 0.0
H781 H 0.63849 0.1429 0.05052 0.0
H782 H 0.62622 0.11383 0.99727 0.0
H783 H 0.65675 0.14889 0.98513 0.0
H784 H 0.63744 0.07541 0.82905 0.0
H785 H 0.68245 0.17855 0.81084 0.0
H786 H 0.56498 0.10667 0.92007 0.0
H787 H 0.60014 0.07535 0.93076 0.0
H788 H 0.5764 0.07493 0.86963 0.0
H789 H 0.62228 0.22842 0.87006 0.0
H790 H 0.66931 0.22508 0.86497 0.0
H791 H 0.6475 0.2157 0.92698 0.0
C792 C 0.7948 0.0566 0.47376 0.0
C793 C 0.80301 0.05697 0.52824 0.0
C794 C 0.81632 0.07363 0.43538 0.0
C795 C 0.84756 0.09158 0.45085 0.0
C796 C 0.8572 0.09002 0.50533 0.0
C797 C 0.83502 0.07298 0.54295 0.0
C798 C 0.80496 0.07324 0.37813 0.0
C799 C 0.89056 0.10737 0.52446 0.0
C800 C 0.90819 0.12682 0.33695 0.0
C801 C 0.89731 0.16223 0.33309 0.0
C802 C 0.89363 0.10373 0.37623 0.0
C803 C 0.86689 0.11584 0.41187 0.0
C804 C 0.85699 0.1518 0.40867 0.0
C805 C 0.87254 0.17421 0.37077 0.0
C806 C 0.90611 0.06606 0.37821 0.0
C807 C 0.82872 0.16667 0.44421 0.0
H808 H 0.7706 0.0441 0.46107 0.0
H809 H 0.84265 0.07268 0.58425 0.0
H810 H 0.80462 0.10041 0.36177 0.0
H811 H 0.82423 0.05783 0.35454 0.0
H812 H 0.77848 0.0613 0.37282 0.0
H813 H 0.8982 0.09804 0.5646 0.0
H814 H 0.91262 0.10216 0.49658 0.0
H815 H 0.8866 0.13631 0.52625 0.0
H816 H 0.92691 0.11676 0.30823 0.0
H817 H 0.86397 0.20149 0.3693 0.0
H818 H 0.88702 0.04914 0.35685 0.0
H819 H 0.90779 0.05648 0.41972 0.0
H820 H 0.93229 0.06294 0.359 0.0
H821 H 0.80429 0.15078 0.44063 0.0
H822 H 0.82226 0.19458 0.43495 0.0
H823 H 0.83775 0.16518 0.48585 0.0
C824 C 0.86715 0.39486 0.83791 0.0
C825 C 0.831 0.39786 0.84968 0.0
C826 C 0.89146 0.37954 0.87485 0.0
C827 C 0.87958 0.36569 0.9247 0.0
C828 C 0.84332 0.37092 0.9372 0.0
C829 C 0.82019 0.3868 0.90036 0.0
C830 C 0.92975 0.37818 0.85908 0.0
C831 C 0.82702 0.35859 0.98829 0.0
C832 C 0.93311 0.28754 0.98457 0.0
C833 C 0.94157 0.29903 0.03611 0.0
C834 C 0.91338 0.30861 0.94849 0.0
C835 C 0.90358 0.3438 0.96174 0.0
C836 C 0.91458 0.35652 0.01242 0.0
C837 C 0.93206 0.33385 0.04924 0.0
C838 C 0.90226 0.29246 0.89651 0.0
C839 C 0.90714 0.39396 0.02901 0.0
H840 H 0.87635 0.40301 0.79911 0.0
H841 H 0.7925 0.389 0.91071 0.0
H842 H 0.94741 0.37041 0.89212 0.0
H843 H 0.9331 0.35933 0.82585 0.0
H844 H 0.93814 0.40441 0.84413 0.0
H845 H 0.81568 0.38152 0.00969 0.0
H846 H 0.80483 0.34056 0.97923 0.0
H847 H 0.84563 0.34505 0.01487 0.0
H848 H 0.94059 0.26108 0.97306 0.0
H849 H 0.93859 0.34365 0.08834 0.0
H850 H 0.91935 0.30264 0.86435 0.0
H851 H 0.87456 0.29944 0.88688 0.0
H852 H 0.90477 0.2633 0.89687 0.0
H853 H 0.92754 0.40357 0.05703 0.0
H854 H 0.88138 0.39505 0.0498 0.0
H855 H 0.90608 0.41204 0.99441 0.0
C856 C 0.71638 0.43098 0.48064 0.0
C857 C 0.70588 0.43645 0.53359 0.0
C858 C 0.69504 0.41257 0.44356 0.0
C859 C 0.66042 0.40134 0.45741 0.0
C860 C 0.64869 0.40899 0.50995 0.0
C861 C 0.67163 0.42535 0.54734 0.0
C862 C 0.71055 0.40384 0.39006 0.0
C863 C 0.61212 0.39901 0.5278 0.0
C864 C 0.60634 0.37312 0.33254 0.0
C865 C 0.60474 0.33624 0.33786 0.0
C866 C 0.622 0.39479 0.37241 0.0
C867 C 0.63809 0.3795 0.41839 0.0
C868 C 0.63472 0.34232 0.42465 0.0
C869 C 0.61808 0.32173 0.38518 0.0
C870 C 0.62182 0.43409 0.36359 0.0
C871 C 0.64971 0.32289 0.47171 0.0
H872 H 0.7425 0.43936 0.46869 0.0
H873 H 0.6625 0.42953 0.58752 0.0
H874 H 0.70474 0.37612 0.37909 0.0
H875 H 0.69872 0.42123 0.35955 0.0
H876 H 0.73958 0.40765 0.38915 0.0
H877 H 0.60281 0.41653 0.56018 0.0
H878 H 0.59296 0.40025 0.49461 0.0
H879 H 0.61258 0.37167 0.54341 0.0
H880 H 0.59696 0.38504 0.2961 0.0
H881 H 0.61759 0.2933 0.38999 0.0
H882 H 0.64145 0.44086 0.33262 0.0
H883 H 0.62784 0.44917 0.40011 0.0
H884 H 0.59565 0.44264 0.34852 0.0
H885 H 0.66406 0.29891 0.45845 0.0
H886 H 0.62771 0.31391 0.49739 0.0
H887 H 0.66774 0.33911 0.49571 0.0
C888 C 0.45952 0.7973 0.0405 0.0
C889 C 0.44796 0.79988 0.98755 0.0
C890 C 0.44464 0.81819 0.08172 0.0
C891 C 0.41519 0.84074 0.07152 0.0
C892 C 0.40458 0.84447 0.01766 0.0
C893 C 0.42238 0.82577 0.97689 0.0
C894 C 0.46077 0.81511 0.13614 0.0
C895 C 0.37356 0.86729 1.00232 0.0
C896 C 0.34964 0.84814 0.18796 0.0
C897 C 0.34429 0.88473 0.19485 0.0
C898 C 0.37254 0.834 0.14939 0.0
C899 C 0.39301 0.85658 0.11669 0.0
C900 C 0.39016 0.89375 0.12629 0.0
C901 C 0.36555 0.90731 0.16427 0.0
C902 C 0.37386 0.79435 0.14403 0.0
C903 C 0.4128 0.91991 0.09701 0.0
H904 H 0.48016 0.77859 0.05027 0.0
H905 H 0.41562 0.83105 0.93641 0.0
H906 H 0.44987 0.8343 0.16496 0.0
H907 H 0.45693 0.78794 0.15144 0.0
H908 H 0.48968 0.81929 0.13331 0.0
H909 H 0.35216 0.86591 0.03225 0.0
H910 H 0.38236 0.89504 0.99895 0.0
H911 H 0.36248 0.8595 0.96335 0.0
H912 H 0.33468 0.82978 0.212 0.0
H913 H 0.36253 0.93555 0.16893 0.0
H914 H 0.39509 0.78385 0.16976 0.0
H915 H 0.37909 0.78595 0.10273 0.0
H916 H 0.34887 0.782 0.15749 0.0
H917 H 0.43416 0.90731 0.07368 0.0
H918 H 0.42487 0.93853 0.12566 0.0
H919 H 0.39597 0.93585 0.07011 0.0
C920 C 0.0999 0.86754 0.67304 0.0
C921 C 0.11289 0.83275 0.67722 0.0
C922 C 0.11417 0.89205 0.6351 0.0
C923 C 0.14263 0.88214 0.6008 0.0
C924 C 0.15478 0.84695 0.60468 0.0
C925 C 0.13977 0.82318 0.64124 0.0
C926 C 0.09918 0.92878 0.6327 0.0
C927 C 0.18437 0.83405 0.57026 0.0
C928 C 0.17346 0.92655 0.46936 0.0
C929 C 0.20487 0.94388 0.48396 0.0
C930 C 0.15184 0.90849 0.50691 0.0
C931 C 0.16097 0.90759 0.56169 0.0
C932 C 0.19131 0.92709 0.57716 0.0
C933 C 0.21272 0.94453 0.5387 0.0
C934 C 0.11967 0.88924 0.48732 0.0
C935 C 0.20202 0.92832 0.63462 0.0
H936 H 0.07935 0.87596 0.70006 0.0
H937 H 0.15003 0.7965 0.64213 0.0
H938 H 0.11688 0.947 0.65436 0.0
H939 H 0.09734 0.93816 0.5911 0.0
H940 H 0.07265 0.93017 0.65124 0.0
H941 H 0.19245 0.80661 0.57985 0.0
H942 H 0.1757 0.83491 0.52842 0.0
H943 H 0.2076 0.85156 0.57458 0.0
H944 H 0.16585 0.92658 0.42807 0.0
H945 H 0.23648 0.95777 0.55162 0.0
H946 H 0.09709 0.89339 0.51463 0.0
H947 H 0.12525 0.86055 0.48605 0.0
H948 H 0.11194 0.89789 0.44687 0.0
H949 H 0.17928 0.93621 0.65958 0.0
H950 H 0.22391 0.94713 0.64169 0.0
H951 H 0.21028 0.90162 0.64776 0.0
C952 C 0.12593 0.60738 0.18723 0.0
C953 C 0.16299 0.60804 0.18407 0.0
C954 C 0.10438 0.62359 0.14745 0.0
C955 C 0.11988 0.64207 0.10385 0.0
C956 C 0.15723 0.64099 0.09957 0.0
C957 C 0.17784 0.62425 0.13902 0.0
C958 C 0.06489 0.62192 0.15316 0.0
C959 C 0.17644 0.66016 0.05601 0.0
C960 C 0.07142 0.67382 0.97608 0.0
C961 C 0.06205 0.7089 0.98809 0.0
C962 C 0.08827 0.6514 0.01383 0.0
C963 C 0.09779 0.66428 0.06491 0.0
C964 C 0.08826 0.69967 0.07711 0.0
C965 C 0.06973 0.72081 0.03968 0.0
C966 C 0.09681 0.61399 0.99836 0.0
C967 C 0.09928 0.71601 0.12896 0.0
H968 H 0.11376 0.59581 0.22199 0.0
H969 H 0.20635 0.62578 0.13611 0.0
H970 H 0.05472 0.64792 0.16621 0.0
H971 H 0.05244 0.61576 0.11445 0.0
H972 H 0.05669 0.60178 0.18268 0.0
H973 H 0.20194 0.64716 0.04661 0.0
H974 H 0.16079 0.66205 0.01912 0.0
H975 H 0.18231 0.68714 0.07016 0.0
H976 H 0.06552 0.66373 0.93697 0.0
H977 H 0.06264 0.74757 0.05016 0.0
H978 H 0.08864 0.59554 0.03026 0.0
H979 H 0.12571 0.6111 0.9931 0.0
H980 H 0.08366 0.60623 0.96083 0.0
H981 H 0.08845 0.70067 0.16263 0.0
H982 H 0.09037 0.74381 0.1327 0.0
H983 H 0.12846 0.71528 0.13234 0.0
C984 C 0.40127 0.63535 0.677 0.0
C985 C 0.39117 0.67115 0.67735 0.0
C986 C 0.38687 0.611 0.63916 0.0
C987 C 0.36098 0.62215 0.60132 0.0
C988 C 0.35195 0.65837 0.60112 0.0
C989 C 0.36729 0.68193 0.63755 0.0
C990 C 0.39875 0.57314 0.64092 0.0
C991 C 0.32441 0.67233 0.56374 0.0
C992 C 0.33029 0.5758 0.47171 0.0
C993 C 0.29799 0.56018 0.48632 0.0
C994 C 0.35217 0.5936 0.50905 0.0
C995 C 0.3418 0.59689 0.56315 0.0
C996 C 0.30991 0.57994 0.57847 0.0
C997 C 0.28878 0.56192 0.54049 0.0
C998 C 0.38617 0.60977 0.48998 0.0
C999 C 0.29718 0.58222 0.63497 0.0
H1000 H 0.4194 0.62604 0.70712 0.0
H1001 H 0.35928 0.70936 0.63583 0.0
H1002 H 0.37937 0.55744 0.66386 0.0
H1003 H 0.40038 0.5618 0.60044 0.0
H1004 H 0.42483 0.57046 0.66053 0.0
H1005 H 0.33261 0.66726 0.52233 0.0
H1006 H 0.2993 0.65818 0.57094 0.0
H1007 H 0.31971 0.70107 0.56845 0.0
H1008 H 0.3385 0.57443 0.43066 0.0
H1009 H 0.26406 0.55032 0.5531 0.0
H1010 H 0.40762 0.60504 0.51907 0.0
H1011 H 0.38279 0.63868 0.4859 0.0
H1012 H 0.39434 0.59906 0.45089 0.0
H1013 H 0.27403 0.56505 0.64244 0.0
H1014 H 0.28994 0.6099 0.64419 0.0
H1015 H 0.31851 0.5745 0.66268 0.0
C1016 C 0.44435 0.20755 0.21966 0.0
C1017 C 0.47659 0.1929 0.23578 0.0
C1018 C 0.41242 0.18934 0.22798 0.0
C1019 C 0.4129 0.15607 0.25373 0.0
C1020 C 0.44528 0.1425 0.27316 0.0
C1021 C 0.47665 0.16085 0.26337 0.0
C1022 C 0.37873 0.20475 0.20618 0.0
C1023 C 0.4471 0.10769 0.3023 0.0
C1024 C 0.33679 0.10649 0.31535 0.0
C1025 C 0.33512 0.07693 0.28186 0.0
C1026 C 0.35959 0.13472 0.3041 0.0
C1027 C 0.38059 0.13373 0.25775 0.0
C1028 C 0.37502 0.10658 0.22017 0.0
C1029 C 0.35253 0.07837 0.23279 0.0
C1030 C 0.3642 0.16334 0.34497 0.0
C1031 C 0.39574 0.10524 0.16914 0.0
H1032 H 0.44426 0.23214 0.19774 0.0
H1033 H 0.50155 0.14958 0.27612 0.0
H1034 H 0.37248 0.19173 0.16797 0.0
H1035 H 0.35624 0.20009 0.23339 0.0
H1036 H 0.38117 0.23354 0.19886 0.0
H1037 H 0.47375 0.10239 0.31879 0.0
H1038 H 0.42776 0.10726 0.33531 0.0
H1039 H 0.44021 0.08592 0.27489 0.0
H1040 H 0.32317 0.10607 0.35312 0.0
H1041 H 0.35094 0.05607 0.20607 0.0
H1042 H 0.36757 0.18946 0.32587 0.0
H1043 H 0.38832 0.15785 0.36847 0.0
H1044 H 0.34142 0.16462 0.37262 0.0
H1045 H 0.39717 0.13177 0.15068 0.0
H1046 H 0.38397 0.08657 0.14027 0.0
H1047 H 0.4231 0.09653 0.17768 0.0
C1048 C 0.7901 0.93994 0.73275 0.0
C1049 C 0.80225 0.97147 0.75514 0.0
C1050 C 0.80863 0.90807 0.74074 0.0
C1051 C 0.83983 0.90803 0.7718 0.0
C1052 C 0.84987 0.93924 0.79864 0.0
C1053 C 0.83107 0.97049 0.78976 0.0
C1054 C 0.79638 0.87539 0.7123 0.0
C1055 C 0.8824 0.94051 0.83315 0.0
C1056 C 0.89571 0.83235 0.82208 0.0
C1057 C 0.9258 0.83609 0.78992 0.0
C1058 C 0.86532 0.8529 0.81317 0.0
C1059 C 0.86501 0.87765 0.77115 0.0
C1060 C 0.89332 0.8779 0.73447 0.0
C1061 C 0.92331 0.85709 0.7442 0.0
C1062 C 0.83523 0.85074 0.85213 0.0
C1063 C 0.89375 0.90311 0.68812 0.0
H1064 H 0.76797 0.94066 0.70558 0.0
H1065 H 0.84039 0.99488 0.8072 0.0
H1066 H 0.81055 0.87319 0.67397 0.0
H1067 H 0.80204 0.85125 0.73567 0.0
H1068 H 0.76766 0.8766 0.70377 0.0
H1069 H 0.88465 0.96581 0.85502 0.0
H1070 H 0.88214 0.91863 0.86234 0.0
H1071 H 0.90627 0.93727 0.80813 0.0
H1072 H 0.89682 0.8157 0.85698 0.0
H1073 H 0.94596 0.85968 0.71828 0.0
H1074 H 0.80949 0.85411 0.83188 0.0
H1075 H 0.83784 0.87222 0.88166 0.0
H1076 H 0.83525 0.82519 0.87372 0.0
H1077 H 0.868 0.90294 0.66735 0.0
H1078 H 0.91483 0.89653 0.65917 0.0
H1079 H 0.89834 0.93029 0.70281 0.0
C1080 C 0.15595 0.41853 0.23984 0.0
C1081 C 0.17641 0.42074 0.28602 0.0
C1082 C 0.13487 0.38888 0.22999 0.0
C1083 C 0.13421 0.36093 0.26727 0.0
C1084 C 0.15896 0.36061 0.30916 0.0
C1085 C 0.18001 0.3905 0.31791 0.0
C1086 C 0.11 0.38961 0.18334 0.0
C1087 C 0.16013 0.3308 0.34873 0.0
C1088 C 0.04008 0.33218 0.28945 0.0
C1089 C 0.03775 0.30222 0.25734 0.0
C1090 C 0.07213 0.34985 0.29619 0.0
C1091 C 0.10265 0.33756 0.26941 0.0
C1092 C 0.1011 0.30559 0.24048 0.0
C1093 C 0.06855 0.28817 0.2349 0.0
C1094 C 0.0726 0.38324 0.32886 0.0
C1095 C 0.13291 0.29113 0.21189 0.0
H1096 H 0.1537 0.4413 0.21404 0.0
H1097 H 0.19637 0.3914 0.3531 0.0
H1098 H 0.10889 0.36341 0.16397 0.0
H1099 H 0.08303 0.39614 0.19743 0.0
H1100 H 0.11791 0.4096 0.15342 0.0
H1101 H 0.18576 0.32996 0.36999 0.0
H1102 H 0.1389 0.33463 0.37847 0.0
H1103 H 0.15567 0.30503 0.32914 0.0
H1104 H 0.01631 0.3429 0.30717 0.0
H1105 H 0.0668 0.26515 0.20968 0.0
H1106 H 0.07684 0.40629 0.3025 0.0
H1107 H 0.09462 0.38253 0.35777 0.0
H1108 H 0.04758 0.38733 0.35094 0.0
H1109 H 0.13475 0.30364 0.17221 0.0
H1110 H 0.13071 0.26218 0.2061 0.0
H1111 H 0.15767 0.29687 0.23357 0.0
C1112 C 0.60749 0.6797 0.80722 0.0
C1113 C 0.57584 0.67227 0.78044 0.0
C1114 C 0.63855 0.66069 0.7961 0.0
C1115 C 0.63784 0.6336 0.75761 0.0
C1116 C 0.60742 0.6295 0.72564 0.0
C1117 C 0.57687 0.64899 0.73726 0.0
C1118 C 0.67088 0.66714 0.82942 0.0
C1119 C 0.60566 0.60158 0.68314 0.0
C1120 C 0.71219 0.57209 0.71496 0.0
C1121 C 0.70331 0.54182 0.74385 0.0
C1122 C 0.69319 0.60375 0.72216 0.0
C1123 C 0.66467 0.60469 0.75862 0.0
C1124 C 0.65825 0.57502 0.79144 0.0
C1125 C 0.67761 0.54404 0.78352 0.0
C1126 C 0.70181 0.63499 0.68755 0.0
C1127 C 0.62858 0.57468 0.83148 0.0
H1128 H 0.60744 0.69824 0.83987 0.0
H1129 H 0.55294 0.64357 0.71531 0.0
H1130 H 0.67157 0.64782 0.86246 0.0
H1131 H 0.69531 0.66367 0.80576 0.0
H1132 H 0.67067 0.69406 0.84674 0.0
H1133 H 0.58224 0.60493 0.65718 0.0
H1134 H 0.62971 0.60219 0.65816 0.0
H1135 H 0.60423 0.57517 0.70202 0.0
H1136 H 0.73191 0.57029 0.68393 0.0
H1137 H 0.67078 0.52051 0.80576 0.0
H1138 H 0.69626 0.66024 0.70809 0.0
H1139 H 0.68536 0.63402 0.65124 0.0
H1140 H 0.72993 0.63454 0.67516 0.0
H1141 H 0.63003 0.5982 0.85742 0.0
H1142 H 0.62912 0.55073 0.85687 0.0
H1143 H 0.60289 0.57558 0.81049 0.0
C1144 C 0.64546 0.9324 0.7746 0.0
C1145 C 0.66771 0.93242 0.73013 0.0
C1146 C 0.62494 0.90276 0.78721 0.0
C1147 C 0.62652 0.87249 0.75442 0.0
C1148 C 0.65233 0.87068 0.71402 0.0
C1149 C 0.67281 0.9006 0.70252 0.0
C1150 C 0.59871 0.90536 0.83205 0.0
C1151 C 0.65564 0.83866 0.67896 0.0
C1152 C 0.56528 0.79765 0.79602 0.0
C1153 C 0.53408 0.80799 0.77061 0.0
C1154 C 0.59665 0.81698 0.78882 0.0
C1155 C 0.59656 0.847 0.7552 0.0
C1156 C 0.56575 0.85533 0.72591 0.0
C1157 C 0.53488 0.83596 0.73444 0.0
C1158 C 0.62881 0.80686 0.8205 0.0
C1159 C 0.56449 0.88646 0.68848 0.0
H1160 H 0.64184 0.95647 0.79708 0.0
H1161 H 0.69044 0.89987 0.66871 0.0
H1162 H 0.57189 0.90935 0.81551 0.0
H1163 H 0.59838 0.88062 0.85552 0.0
H1164 H 0.6047 0.92772 0.85896 0.0
H1165 H 0.68153 0.83789 0.65837 0.0
H1166 H 0.65235 0.81402 0.70215 0.0
H1167 H 0.63458 0.83941 0.64847 0.0
H1168 H 0.56454 0.77625 0.82454 0.0
H1169 H 0.51067 0.84391 0.71488 0.0
H1170 H 0.62951 0.82277 0.85736 0.0
H1171 H 0.65346 0.81215 0.7982 0.0
H1172 H 0.62818 0.77857 0.83192 0.0
H1173 H 0.56638 0.91131 0.71146 0.0
H1174 H 0.53975 0.88718 0.66494 0.0
H1175 H 0.58717 0.88566 0.66071 0.0
C1176 C 0.16969 0.03581 0.22948 0.0
C1177 C 0.20101 0.03371 0.25868 0.0
C1178 C 0.15274 0.06814 0.22101 0.0
C1179 C 0.16723 0.09934 0.24286 0.0
C1180 C 0.20039 0.0978 0.26876 0.0
C1181 C 0.21701 0.06488 0.27628 0.0
C1182 C 0.1179 0.0684 0.19186 0.0
C1183 C 0.21716 0.13027 0.29209 0.0
C1184 C 0.11512 0.17637 0.18979 0.0
C1185 C 0.08627 0.17596 0.22484 0.0
C1186 C 0.14451 0.15442 0.19833 0.0
C1187 C 0.14515 0.13198 0.24317 0.0
C1188 C 0.11893 0.13593 0.28276 0.0
C1189 C 0.08976 0.15787 0.27312 0.0
C1190 C 0.17251 0.15207 0.15602 0.0
C1191 C 0.11928 0.11361 0.33231 0.0
H1192 H 0.15744 0.01175 0.21546 0.0
H1193 H 0.24112 0.06335 0.2992 0.0
H1194 H 0.09632 0.07505 0.21986 0.0
H1195 H 0.11803 0.08876 0.16028 0.0
H1196 H 0.11185 0.0425 0.17348 0.0
H1197 H 0.24617 0.12701 0.29594 0.0
H1198 H 0.21161 0.15403 0.26779 0.0
H1199 H 0.20619 0.13483 0.33228 0.0
H1200 H 0.11324 0.1908 0.15279 0.0
H1201 H 0.06811 0.15806 0.3012 0.0
H1202 H 0.16667 0.12939 0.12971 0.0
H1203 H 0.19893 0.14765 0.17368 0.0
H1204 H 0.17326 0.17632 0.13132 0.0
H1205 H 0.11108 0.08636 0.32225 0.0
H1206 H 0.10097 0.124 0.36295 0.0
H1207 H 0.14622 0.11224 0.34928 0.0
C1208 C 0.96941 0.66605 0.73342 0.0
C1209 C 0.96906 0.69632 0.76511 0.0
C1210 C 0.93847 0.64727 0.72297 0.0
C1211 C 0.90614 0.65883 0.7452 0.0
C1212 C 0.90509 0.69111 0.77359 0.0
C1213 C 0.93671 0.7096 0.78322 0.0
C1214 C 0.94103 0.61347 0.69149 0.0
C1215 C 0.87124 0.70484 0.79722 0.0
C1216 C 0.83299 0.60285 0.6886 0.0
C1217 C 0.83445 0.57364 0.72294 0.0
C1218 C 0.85322 0.63322 0.69846 0.0
C1219 C 0.87528 0.6344 0.74365 0.0
C1220 C 0.87293 0.60715 0.78195 0.0
C1221 C 0.85253 0.57714 0.77118 0.0
C1222 C 0.85388 0.66221 0.65751 0.0
C1223 C 0.89516 0.6077 0.83154 0.0
H1224 H 0.99443 0.65592 0.71909 0.0
H1225 H 0.9364 0.73292 0.80803 0.0
H1226 H 0.9357 0.59065 0.71785 0.0
H1227 H 0.921 0.61319 0.65949 0.0
H1228 H 0.96747 0.60981 0.67331 0.0
H1229 H 0.87251 0.73375 0.80397 0.0
H1230 H 0.84832 0.69893 0.77145 0.0
H1231 H 0.86672 0.69185 0.83606 0.0
H1232 H 0.8186 0.60091 0.65162 0.0
H1233 H 0.85323 0.55519 0.79871 0.0
H1234 H 0.87711 0.65851 0.63132 0.0
H1235 H 0.85627 0.68845 0.67651 0.0
H1236 H 0.82981 0.66188 0.63245 0.0
H1237 H 0.92301 0.60197 0.821 0.0
H1238 H 0.88631 0.58776 0.86095 0.0
H1239 H 0.89436 0.63411 0.85029 0.0
C1240 C 0.39091 0.32911 0.18727 0.0
C1241 C 0.41888 0.32678 0.22372 0.0
C1242 C 0.36239 0.35212 0.1961 0.0
C1243 C 0.36157 0.37275 0.24277 0.0
C1244 C 0.38662 0.3661 0.28323 0.0
C1245 C 0.41501 0.34321 0.27322 0.0
C1246 C 0.33565 0.35749 0.15259 0.0
C1247 C 0.38592 0.38639 0.33461 0.0
C1248 C 0.33883 0.46991 0.23552 0.0
C1249 C 0.30627 0.47138 0.26169 0.0
C1250 C 0.35591 0.43769 0.22641 0.0
C1251 C 0.34031 0.40594 0.24455 0.0
C1252 C 0.3063 0.40699 0.2679 0.0
C1253 C 0.2896 0.43978 0.27605 0.0
C1254 C 0.39171 0.43796 0.2 0.0
C1255 C 0.28847 0.37398 0.28765 0.0
H1256 H 0.39304 0.31606 0.1492 0.0
H1257 H 0.43594 0.34098 0.3023 0.0
H1258 H 0.30888 0.3616 0.16921 0.0
H1259 H 0.3427 0.38139 0.12952 0.0
H1260 H 0.33499 0.3347 0.12499 0.0
H1261 H 0.40303 0.37404 0.36519 0.0
H1262 H 0.39543 0.41364 0.32742 0.0
H1263 H 0.35865 0.3882 0.35027 0.0
H1264 H 0.35168 0.49424 0.22393 0.0
H1265 H 0.26457 0.44073 0.29668 0.0
H1266 H 0.39234 0.41892 0.16667 0.0
H1267 H 0.41217 0.42972 0.22892 0.0
H1268 H 0.39883 0.46443 0.18446 0.0
H1269 H 0.29432 0.35106 0.26183 0.0
H1270 H 0.25943 0.37751 0.29012 0.0
H1271 H 0.29834 0.36777 0.32798 0.0
loop_
_geom_bond_atom_site_label_1
_geom_bond_atom_site_label_2
_geom_bond_distance
_geom_bond_site_symmetry_2
_ccdc_geom_bond_type
C0 O12 1.241 . S
C0 O13 1.280 . S
C1 O14 1.277 . S
C1 O15 1.245 . S
C2 O26 1.247 . S
C2 O28 1.289 . S
Mg3 O4 1.926 . S
Mg3 O13 1.984 . S
Mg3 O15 1.988 . S
Mg3 O16 2.061 . S
O4 Mg3 1.926 . S
O4 Mg5 1.986 . S
O4 Mg6 1.917 . S
Mg5 O4 1.986 . S
Mg5 O12 2.042 . S
Mg5 O14 2.041 . S
Mg5 O20 2.038 . S
Mg5 O28 2.238 . S
Mg6 O4 1.917 . S
Mg6 O7 1.917 . S
Mg6 O17 2.106 . S
Mg6 O19 2.079 . S
Mg6 O28 2.106 . S
Mg6 O29 2.079 . S
O7 Mg6 1.917 . S
O7 Mg8 1.926 . S
O7 Mg9 1.986 . S
Mg8 O7 1.926 . S
Mg8 O22 1.984 . S
Mg8 O25 1.988 . S
Mg8 O26 2.061 . S
Mg9 O7 1.986 . S
Mg9 O17 2.238 . S
Mg9 O21 2.042 . S
Mg9 O23 2.041 . S
Mg9 O30 2.038 . S
C10 O16 1.247 . S
C10 O17 1.289 . S
C11 O29 1.245 . S
C11 O30 1.274 . S
O12 C0 1.241 . S
O12 Mg5 2.042 . S
O13 C0 1.280 . S
O13 Mg3 1.984 . S
O14 C1 1.277 . S
O14 Mg5 2.041 . S
O15 C1 1.245 . S
O15 Mg3 1.988 . S
O16 Mg3 2.061 . S
O16 C10 1.247 . S
O17 Mg6 2.106 . S
O17 Mg9 2.238 . S
O17 C10 1.289 . S
C18 O19 1.245 . S
C18 O20 1.274 . S
O19 Mg6 2.079 . S
O19 C18 1.245 . S
O20 Mg5 2.038 . S
O20 C18 1.274 . S
O21 Mg9 2.042 . S
O21 C24 1.241 . S
O22 Mg8 1.984 . S
O22 C24 1.280 . S
O23 Mg9 2.041 . S
O23 C27 1.277 . S
C24 O21 1.241 . S
C24 O22 1.280 . S
O25 Mg8 1.988 . S
O25 C27 1.245 . S
O26 C2 1.247 . S
O26 Mg8 2.061 . S
C27 O23 1.277 . S
C27 O25 1.245 . S
O28 C2 1.289 . S
O28 Mg5 2.238 . S
O28 Mg6 2.106 . S
O29 Mg6 2.079 . S
O29 C11 1.245 . S
O30 Mg9 2.038 . S
O30 C11 1.274 . S
C31 O43 1.241 . S
C31 O44 1.280 1_545 S
C32 O45 1.277 . S
C32 O46 1.245 . S
C33 O57 1.247 . S
C33 O59 1.289 . S
Mg34 O35 1.926 1_565 S
Mg34 O44 1.984 . S
Mg34 O46 1.988 . S
Mg34 O47 2.061 1_565 S
O35 Mg34 1.926 1_545 S
O35 Mg36 1.986 . S
O35 Mg37 1.917 . S
Mg36 O35 1.986 . S
Mg36 O43 2.042 . S
Mg36 O45 2.041 1_545 S
Mg36 O51 2.038 . S
Mg36 O59 2.238 . S
Mg37 O35 1.917 . S
Mg37 O38 1.917 . S
Mg37 O48 2.106 . S
Mg37 O50 2.079 . S
Mg37 O59 2.106 . S
Mg37 O60 2.079 . S
O38 Mg37 1.917 . S
O38 Mg39 1.926 . S
O38 Mg40 1.986 . S
Mg39 O38 1.926 . S
Mg39 O53 1.984 . S
Mg39 O56 1.988 . S
Mg39 O57 2.061 . S
Mg40 O38 1.986 . S
Mg40 O48 2.238 . S
Mg40 O52 2.042 . S
Mg40 O54 2.041 . S
Mg40 O61 2.038 . S
C41 O47 1.247 . S
C41 O48 1.289 . S
C42 O60 1.245 . S
C42 O61 1.274 . S
O43 C31 1.241 . S
O43 Mg36 2.042 . S
O44 C31 1.280 1_565 S
O44 Mg34 1.984 . S
O45 C32 1.277 . S
O45 Mg36 2.041 1_565 S
O46 C32 1.245 . S
O46 Mg34 1.988 . S
O47 Mg34 2.061 1_545 S
O47 C41 1.247 . S
O48 Mg37 2.106 . S
O48 Mg40 2.238 . S
O48 C41 1.289 . S
C49 O50 1.245 . S
C49 O51 1.274 . S
O50 Mg37 2.079 . S
O50 C49 1.245 . S
O51 Mg36 2.038 . S
O51 C49 1.274 . S
O52 Mg40 2.042 . S
O52 C55 1.241 . S
O53 Mg39 1.984 . S
O53 C55 1.280 . S
O54 Mg40 2.041 . S
O54 C58 1.277 . S
C55 O52 1.241 . S
C55 O53 1.280 . S
O56 Mg39 1.988 . S
O56 C58 1.245 . S
O57 C33 1.247 . S
O57 Mg39 2.061 . S
C58 O54 1.277 . S
C58 O56 1.245 . S
O59 C33 1.289 . S
O59 Mg36 2.238 . S
O59 Mg37 2.106 . S
O60 Mg37 2.079 . S
O60 C42 1.245 . S
O61 Mg40 2.038 . S
O61 C42 1.274 . S
C62 O74 1.241 . S
C62 O75 1.280 1_655 S
C63 O76 1.277 . S
C63 O77 1.245 . S
C64 O88 1.247 . S
C64 O90 1.289 . S
Mg65 O66 1.926 1_455 S
Mg65 O75 1.984 . S
Mg65 O77 1.988 . S
Mg65 O78 2.061 1_455 S
O66 Mg65 1.926 1_655 S
O66 Mg67 1.986 . S
O66 Mg68 1.917 . S
Mg67 O66 1.986 . S
Mg67 O74 2.042 . S
Mg67 O76 2.041 1_655 S
Mg67 O82 2.038 . S
Mg67 O90 2.238 . S
Mg68 O66 1.917 . S
Mg68 O69 1.917 . S
Mg68 O79 2.106 . S
Mg68 O81 2.079 . S
Mg68 O90 2.106 . S
Mg68 O91 2.079 . S
O69 Mg68 1.917 . S
O69 Mg70 1.926 . S
O69 Mg71 1.986 . S
Mg70 O69 1.926 . S
Mg70 O84 1.984 . S
Mg70 O87 1.988 . S
Mg70 O88 2.061 . S
Mg71 O69 1.986 . S
Mg71 O79 2.238 . S
Mg71 O83 2.042 . S
Mg71 O85 2.041 . S
Mg71 O92 2.038 . S
C72 O78 1.247 . S
C72 O79 1.289 . S
C73 O91 1.245 . S
C73 O92 1.274 . S
O74 C62 1.241 . S
O74 Mg67 2.042 . S
O75 C62 1.280 1_455 S
O75 Mg65 1.984 . S
O76 C63 1.277 . S
O76 Mg67 2.041 1_455 S
O77 C63 1.245 . S
O77 Mg65 1.988 . S
O78 Mg65 2.061 1_655 S
O78 C72 1.247 . S
O79 Mg68 2.106 . S
O79 Mg71 2.238 . S
O79 C72 1.289 . S
C80 O81 1.245 . S
C80 O82 1.274 . S
O81 Mg68 2.079 . S
O81 C80 1.245 . S
O82 Mg67 2.038 . S
O82 C80 1.274 . S
O83 Mg71 2.042 . S
O83 C86 1.241 . S
O84 Mg70 1.984 . S
O84 C86 1.280 . S
O85 Mg71 2.041 . S
O85 C89 1.277 . S
C86 O83 1.241 . S
C86 O84 1.280 . S
O87 Mg70 1.988 . S
O87 C89 1.245 . S
O88 C64 1.247 . S
O88 Mg70 2.061 . S
C89 O85 1.277 . S
C89 O87 1.245 . S
O90 C64 1.289 . S
O90 Mg67 2.238 . S
O90 Mg68 2.106 . S
O91 Mg68 2.079 . S
O91 C73 1.245 . S
O92 Mg71 2.038 . S
O92 C73 1.274 . S
C93 O105 1.241 . S
C93 O106 1.280 . S
C94 O107 1.277 . S
C94 O108 1.245 . S
C95 O119 1.247 . S
C95 O121 1.289 . S
Mg96 O97 1.926 . S
Mg96 O106 1.984 . S
Mg96 O108 1.988 . S
Mg96 O109 2.061 . S
O97 Mg96 1.926 . S
O97 Mg98 1.986 . S
O97 Mg99 1.917 . S
Mg98 O97 1.986 . S
Mg98 O105 2.042 . S
Mg98 O107 2.041 . S
Mg98 O113 2.038 . S
Mg98 O121 2.238 . S
Mg99 O97 1.917 . S
Mg99 O100 1.917 . S
Mg99 O110 2.106 . S
Mg99 O112 2.079 . S
Mg99 O121 2.106 . S
Mg99 O122 2.079 . S
O100 Mg99 1.917 . S
O100 Mg101 1.926 . S
O100 Mg102 1.986 . S
Mg101 O100 1.926 . S
Mg101 O115 1.984 . S
Mg101 O118 1.988 . S
Mg101 O119 2.061 . S
Mg102 O100 1.986 . S
Mg102 O110 2.238 . S
Mg102 O114 2.042 . S
Mg102 O116 2.041 . S
Mg102 O123 2.038 . S
C103 O109 1.247 . S
C103 O110 1.289 . S
C104 O122 1.245 . S
C104 O123 1.274 . S
O105 C93 1.241 . S
O105 Mg98 2.042 . S
O106 C93 1.280 . S
O106 Mg96 1.984 . S
O107 C94 1.277 . S
O107 Mg98 2.041 . S
O108 C94 1.245 . S
O108 Mg96 1.988 . S
O109 Mg96 2.061 . S
O109 C103 1.247 . S
O110 Mg99 2.106 . S
O110 Mg102 2.238 . S
O110 C103 1.289 . S
C111 O112 1.245 . S
C111 O113 1.274 . S
O112 Mg99 2.079 . S
O112 C111 1.245 . S
O113 Mg98 2.038 . S
O113 C111 1.274 . S
O114 Mg102 2.042 . S
O114 C117 1.241 . S
O115 Mg101 1.984 . S
O115 C117 1.280 . S
O116 Mg102 2.041 . S
O116 C120 1.277 . S
C117 O114 1.241 . S
C117 O115 1.280 . S
O118 Mg101 1.988 . S
O118 C120 1.245 . S
O119 C95 1.247 . S
O119 Mg101 2.061 . S
C120 O116 1.277 . S
C120 O118 1.245 . S
O121 C95 1.289 . S
O121 Mg98 2.238 . S
O121 Mg99 2.106 . S
O122 Mg99 2.079 . S
O122 C104 1.245 . S
O123 Mg102 2.038 . S
O123 C104 1.274 . S
C124 O136 1.241 . S
C124 O137 1.280 . S
C125 O138 1.277 . S
C125 O139 1.245 . S
C126 O150 1.247 . S
C126 O152 1.289 . S
Mg127 O128 1.926 . S
Mg127 O137 1.984 . S
Mg127 O139 1.988 . S
Mg127 O140 2.061 . S
O128 Mg127 1.926 . S
O128 Mg129 1.986 . S
O128 Mg130 1.917 . S
Mg129 O128 1.986 . S
Mg129 O136 2.042 . S
Mg129 O138 2.041 . S
Mg129 O144 2.038 . S
Mg129 O152 2.238 . S
Mg130 O128 1.917 . S
Mg130 O131 1.917 . S
Mg130 O141 2.106 . S
Mg130 O143 2.079 . S
Mg130 O152 2.106 . S
Mg130 O153 2.079 . S
O131 Mg130 1.917 . S
O131 Mg132 1.926 . S
O131 Mg133 1.986 . S
Mg132 O131 1.926 . S
Mg132 O146 1.984 . S
Mg132 O149 1.988 . S
Mg132 O150 2.061 . S
Mg133 O131 1.986 . S
Mg133 O141 2.238 . S
Mg133 O145 2.042 . S
Mg133 O147 2.041 . S
Mg133 O154 2.038 . S
C134 O140 1.247 . S
C134 O141 1.289 . S
C135 O153 1.245 . S
C135 O154 1.274 . S
O136 C124 1.241 . S
O136 Mg129 2.042 . S
O137 C124 1.280 . S
O137 Mg127 1.984 . S
O138 C125 1.277 . S
O138 Mg129 2.041 . S
O139 C125 1.245 . S
O139 Mg127 1.988 . S
O140 Mg127 2.061 . S
O140 C134 1.247 . S
O141 Mg130 2.106 . S
O141 Mg133 2.238 . S
O141 C134 1.289 . S
C142 O143 1.245 . S
C142 O144 1.274 . S
O143 Mg130 2.079 . S
O143 C142 1.245 . S
O144 Mg129 2.038 . S
O144 C142 1.274 . S
O145 Mg133 2.042 . S
O145 C148 1.241 . S
O146 Mg132 1.984 . S
O146 C148 1.280 . S
O147 Mg133 2.041 . S
O147 C151 1.277 . S
C148 O145 1.241 . S
C148 O146 1.280 . S
O149 Mg132 1.988 . S
O149 C151 1.245 . S
O150 C126 1.247 . S
O150 Mg132 2.061 . S
C151 O147 1.277 . S
C151 O149 1.245 . S
O152 C126 1.289 . S
O152 Mg129 2.238 . S
O152 Mg130 2.106 . S
O153 Mg130 2.079 . S
O153 C135 1.245 . S
O154 Mg133 2.038 . S
O154 C135 1.274 . S
C155 O167 1.241 . S
C155 O168 1.280 . S
C156 O169 1.277 . S
C156 O170 1.245 . S
C157 O181 1.247 . S
C157 O183 1.289 . S
Mg158 O159 1.926 . S
Mg158 O168 1.984 . S
Mg158 O170 1.988 . S
Mg158 O171 2.061 . S
O159 Mg158 1.926 . S
O159 Mg160 1.986 . S
O159 Mg161 1.917 . S
Mg160 O159 1.986 . S
Mg160 O167 2.042 . S
Mg160 O169 2.041 . S
Mg160 O175 2.038 . S
Mg160 O183 2.238 . S
Mg161 O159 1.917 . S
Mg161 O162 1.917 . S
Mg161 O172 2.106 . S
Mg161 O174 2.079 . S
Mg161 O183 2.106 . S
Mg161 O184 2.079 . S
O162 Mg161 1.917 . S
O162 Mg163 1.926 1_565 S
O162 Mg164 1.986 . S
Mg163 O162 1.926 1_545 S
Mg163 O177 1.984 . S
Mg163 O180 1.988 . S
Mg163 O181 2.061 1_545 S
Mg164 O162 1.986 . S
Mg164 O172 2.238 . S
Mg164 O176 2.042 . S
Mg164 O178 2.041 1_565 S
Mg164 O185 2.038 . S
C165 O171 1.247 . S
C165 O172 1.289 . S
C166 O184 1.245 . S
C166 O185 1.274 . S
O167 C155 1.241 . S
O167 Mg160 2.042 . S
O168 C155 1.280 . S
O168 Mg158 1.984 . S
O169 C156 1.277 . S
O169 Mg160 2.041 . S
O170 C156 1.245 . S
O170 Mg158 1.988 . S
O171 Mg158 2.061 . S
O171 C165 1.247 . S
O172 Mg161 2.106 . S
O172 Mg164 2.238 . S
O172 C165 1.289 . S
C173 O174 1.245 . S
C173 O175 1.274 . S
O174 Mg161 2.079 . S
O174 C173 1.245 . S
O175 Mg160 2.038 . S
O175 C173 1.274 . S
O176 Mg164 2.042 . S
O176 C179 1.241 . S
O177 Mg163 1.984 . S
O177 C179 1.280 1_545 S
O178 Mg164 2.041 1_545 S
O178 C182 1.277 . S
C179 O176 1.241 . S
C179 O177 1.280 1_565 S
O180 Mg163 1.988 . S
O180 C182 1.245 . S
O181 C157 1.247 . S
O181 Mg163 2.061 1_565 S
C182 O178 1.277 . S
C182 O180 1.245 . S
O183 C157 1.289 . S
O183 Mg160 2.238 . S
O183 Mg161 2.106 . S
O184 Mg161 2.079 . S
O184 C166 1.245 . S
O185 Mg164 2.038 . S
O185 C166 1.274 . S
C186 O198 1.241 . S
C186 O199 1.280 . S
C187 O200 1.277 . S
C187 O201 1.245 . S
C188 O212 1.247 . S
C188 O214 1.289 . S
Mg189 O190 1.926 . S
Mg189 O199 1.984 . S
Mg189 O201 1.988 . S
Mg189 O202 2.061 . S
O190 Mg189 1.926 . S
O190 Mg191 1.986 . S
O190 Mg192 1.917 . S
Mg191 O190 1.986 . S
Mg191 O198 2.042 . S
Mg191 O200 2.041 . S
Mg191 O206 2.038 . S
Mg191 O214 2.238 . S
Mg192 O190 1.917 . S
Mg192 O193 1.917 . S
Mg192 O203 2.106 . S
Mg192 O205 2.079 . S
Mg192 O214 2.106 . S
Mg192 O215 2.079 . S
O193 Mg192 1.917 . S
O193 Mg194 1.926 1_455 S
O193 Mg195 1.986 . S
Mg194 O193 1.926 1_655 S
Mg194 O208 1.984 . S
Mg194 O211 1.988 . S
Mg194 O212 2.061 1_655 S
Mg195 O193 1.986 . S
Mg195 O203 2.238 . S
Mg195 O207 2.042 . S
Mg195 O209 2.041 1_455 S
Mg195 O216 2.038 . S
C196 O202 1.247 . S
C196 O203 1.289 . S
C197 O215 1.245 . S
C197 O216 1.274 . S
O198 C186 1.241 . S
O198 Mg191 2.042 . S
O199 C186 1.280 . S
O199 Mg189 1.984 . S
O200 C187 1.277 . S
O200 Mg191 2.041 . S
O201 C187 1.245 . S
O201 Mg189 1.988 . S
O202 Mg189 2.061 . S
O202 C196 1.247 . S
O203 Mg192 2.106 . S
O203 Mg195 2.238 . S
O203 C196 1.289 . S
C204 O205 1.245 . S
C204 O206 1.274 . S
O205 Mg192 2.079 . S
O205 C204 1.245 . S
O206 Mg191 2.038 . S
O206 C204 1.274 . S
O207 Mg195 2.042 . S
O207 C210 1.241 . S
O208 Mg194 1.984 . S
O208 C210 1.280 1_655 S
O209 Mg195 2.041 1_655 S
O209 C213 1.277 . S
C210 O207 1.241 . S
C210 O208 1.280 1_455 S
O211 Mg194 1.988 . S
O211 C213 1.245 . S
O212 C188 1.247 . S
O212 Mg194 2.061 1_455 S
C213 O209 1.277 . S
C213 O211 1.245 . S
O214 C188 1.289 . S
O214 Mg191 2.238 . S
O214 Mg192 2.106 . S
O215 Mg192 2.079 . S
O215 C197 1.245 . S
O216 Mg195 2.038 . S
O216 C197 1.274 . S
C217 O229 1.241 . S
C217 O230 1.280 . S
C218 O231 1.277 . S
C218 O232 1.245 . S
C219 O243 1.247 . S
C219 O245 1.289 . S
Mg220 O221 1.926 . S
Mg220 O230 1.984 . S
Mg220 O232 1.988 . S
Mg220 O233 2.061 . S
O221 Mg220 1.926 . S
O221 Mg222 1.986 . S
O221 Mg223 1.917 . S
Mg222 O221 1.986 . S
Mg222 O229 2.042 . S
Mg222 O231 2.041 . S
Mg222 O237 2.038 . S
Mg222 O245 2.238 . S
Mg223 O221 1.917 . S
Mg223 O224 1.917 . S
Mg223 O234 2.106 . S
Mg223 O236 2.079 . S
Mg223 O245 2.106 . S
Mg223 O246 2.079 . S
O224 Mg223 1.917 . S
O224 Mg225 1.926 . S
O224 Mg226 1.986 . S
Mg225 O224 1.926 . S
Mg225 O239 1.984 . S
Mg225 O242 1.988 . S
Mg225 O243 2.061 . S
Mg226 O224 1.986 . S
Mg226 O234 2.238 . S
Mg226 O238 2.042 . S
Mg226 O240 2.041 . S
Mg226 O247 2.038 . S
C227 O233 1.247 . S
C227 O234 1.289 . S
C228 O246 1.245 . S
C228 O247 1.274 . S
O229 C217 1.241 . S
O229 Mg222 2.042 . S
O230 C217 1.280 . S
O230 Mg220 1.984 . S
O231 C218 1.277 . S
O231 Mg222 2.041 . S
O232 C218 1.245 . S
O232 Mg220 1.988 . S
O233 Mg220 2.061 . S
O233 C227 1.247 . S
O234 Mg223 2.106 . S
O234 Mg226 2.238 . S
O234 C227 1.289 . S
C235 O236 1.245 . S
C235 O237 1.274 . S
O236 Mg223 2.079 . S
O236 C235 1.245 . S
O237 Mg222 2.038 . S
O237 C235 1.274 . S
O238 Mg226 2.042 . S
O238 C241 1.241 . S
O239 Mg225 1.984 . S
O239 C241 1.280 . S
O240 Mg226 2.041 . S
O240 C244 1.277 . S
C241 O238 1.241 . S
C241 O239 1.280 . S
O242 Mg225 1.988 . S
O242 C244 1.245 . S
O243 C219 1.247 . S
O243 Mg225 2.061 . S
C244 O240 1.277 . S
C244 O242 1.245 . S
O245 C219 1.289 . S
O245 Mg222 2.238 . S
O245 Mg223 2.106 . S
O246 Mg223 2.079 . S
O246 C228 1.245 . S
O247 Mg226 2.038 . S
O247 C228 1.274 . S
C248 C249 1.391 . S
C248 C250 1.394 . S
C248 H264 0.931 . S
C249 C248 1.391 . S
C249 C253 1.376 . S
C250 C248 1.394 . S
C250 C251 1.369 . S
C250 C254 1.531 . S
C251 C250 1.369 . S
C251 C252 1.410 . S
C251 C259 1.503 . S
C252 C251 1.410 . S
C252 C253 1.392 . S
C252 C255 1.511 . S
C253 C249 1.376 . S
C253 C252 1.392 . S
C253 H265 0.929 . S
C254 C250 1.531 . S
C254 H266 0.960 . S
C254 H267 0.962 . S
C254 H268 0.960 . S
C255 C252 1.511 . S
C255 H269 0.961 . S
C255 H270 0.961 . S
C255 H271 0.961 . S
C256 C257 1.370 . S
C256 C258 1.363 . S
C256 H272 0.931 . S
C257 C256 1.370 . S
C257 C261 1.408 . S
C258 C256 1.363 . S
C258 C259 1.370 . S
C258 C262 1.524 . S
C259 C251 1.503 . S
C259 C258 1.370 . S
C259 C260 1.403 . S
C260 C259 1.403 . S
C260 C261 1.404 . S
C260 C263 1.539 . S
C261 C257 1.408 . S
C261 C260 1.404 . S
C261 H273 0.930 . S
C262 C258 1.524 . S
C262 H274 0.956 . S
C262 H275 0.961 . S
C262 H276 0.961 . S
C263 C260 1.539 . S
C263 H277 0.958 . S
C263 H278 0.961 . S
C263 H279 0.960 . S
H264 C248 0.931 . S
H265 C253 0.929 . S
H266 C254 0.960 . S
H267 C254 0.962 . S
H268 C254 0.960 . S
H269 C255 0.961 . S
H270 C255 0.961 . S
H271 C255 0.961 . S
H272 C256 0.931 . S
H273 C261 0.930 . S
H274 C262 0.956 . S
H275 C262 0.961 . S
H276 C262 0.961 . S
H277 C263 0.958 . S
H278 C263 0.961 . S
H279 C263 0.960 . S
C280 C281 1.391 . S
C280 C282 1.394 . S
C280 H296 0.931 . S
C281 C280 1.391 . S
C281 C285 1.376 . S
C282 C280 1.394 . S
C282 C283 1.369 . S
C282 C286 1.531 . S
C283 C282 1.369 . S
C283 C284 1.410 . S
C283 C291 1.503 . S
C284 C283 1.410 . S
C284 C285 1.392 . S
C284 C287 1.511 . S
C285 C281 1.376 . S
C285 C284 1.392 . S
C285 H297 0.929 . S
C286 C282 1.531 . S
C286 H298 0.960 . S
C286 H299 0.962 . S
C286 H300 0.960 . S
C287 C284 1.511 . S
C287 H301 0.961 . S
C287 H302 0.961 . S
C287 H303 0.961 . S
C288 C289 1.370 . S
C288 C290 1.363 . S
C288 H304 0.931 . S
C289 C288 1.370 . S
C289 C293 1.408 . S
C290 C288 1.363 . S
C290 C291 1.370 1_554 S
C290 C294 1.524 . S
C291 C283 1.503 . S
C291 C290 1.370 1_556 S
C291 C292 1.403 . S
C292 C291 1.403 . S
C292 C293 1.404 1_556 S
C292 C295 1.539 . S
C293 C289 1.408 . S
C293 C292 1.404 1_554 S
C293 H305 0.930 . S
C294 C290 1.524 . S
C294 H306 0.956 1_554 S
C294 H307 0.961 1_554 S
C294 H308 0.961 . S
C295 C292 1.539 . S
C295 H309 0.958 . S
C295 H310 0.961 . S
C295 H311 0.960 . S
H296 C280 0.931 . S
H297 C285 0.929 . S
H298 C286 0.960 . S
H299 C286 0.962 . S
H300 C286 0.960 . S
H301 C287 0.961 . S
H302 C287 0.961 . S
H303 C287 0.961 . S
H304 C288 0.931 . S
H305 C293 0.930 . S
H306 C294 0.956 1_556 S
H307 C294 0.961 1_556 S
H308 C294 0.961 . S
H309 C295 0.958 . S
H310 C295 0.961 . S
H311 C295 0.960 . S
C312 C313 1.391 . S
C312 C314 1.394 . S
C312 H328 0.931 . S
C313 C312 1.391 . S
C313 C317 1.376 . S
C314 C312 1.394 . S
C314 C315 1.369 . S
C314 C318 1.531 . S
C315 C314 1.369 . S
C315 C316 1.410 . S
C315 C323 1.503 . S
C316 C315 1.410 . S
C316 C317 1.392 . S
C316 C319 1.511 . S
C317 C313 1.376 . S
C317 C316 1.392 . S
C317 H329 0.929 . S
C318 C314 1.531 . S
C318 H330 0.960 . S
C318 H331 0.962 . S
C318 H332 0.960 . S
C319 C316 1.511 . S
C319 H333 0.961 . S
C319 H334 0.961 . S
C319 H335 0.961 . S
C320 C321 1.370 . S
C320 C322 1.363 . S
C320 H336 0.931 . S
C321 C320 1.370 . S
C321 C325 1.408 . S
C322 C320 1.363 . S
C322 C323 1.370 . S
C322 C326 1.524 . S
C323 C315 1.503 . S
C323 C322 1.370 . S
C323 C324 1.403 . S
C324 C323 1.403 . S
C324 C325 1.404 . S
C324 C327 1.539 . S
C325 C321 1.408 . S
C325 C324 1.404 . S
C325 H337 0.930 . S
C326 C322 1.524 . S
C326 H338 0.956 . S
C326 H339 0.961 . S
C326 H340 0.961 . S
C327 C324 1.539 . S
C327 H341 0.958 . S
C327 H342 0.961 . S
C327 H343 0.960 . S
H328 C312 0.931 . S
H329 C317 0.929 . S
H330 C318 0.960 . S
H331 C318 0.962 . S
H332 C318 0.960 . S
H333 C319 0.961 . S
H334 C319 0.961 . S
H335 C319 0.961 . S
H336 C320 0.931 . S
H337 C325 0.930 . S
H338 C326 0.956 . S
H339 C326 0.961 . S
H340 C326 0.961 . S
H341 C327 0.958 . S
H342 C327 0.961 . S
H343 C327 0.960 . S
C344 C345 1.391 . S
C344 C346 1.394 . S
C344 H360 0.931 . S
C345 C344 1.391 . S
C345 C349 1.376 . S
C346 C344 1.394 . S
C346 C347 1.369 1_554 S
C346 C350 1.531 1_554 S
C347 C346 1.369 1_556 S
C347 C348 1.410 1_556 S
C347 C355 1.503 . S
C348 C347 1.410 1_554 S
C348 C349 1.392 . S
C348 C351 1.511 1_554 S
C349 C345 1.376 . S
C349 C348 1.392 . S
C349 H361 0.929 . S
C350 C346 1.531 1_556 S
C350 H362 0.960 . S
C350 H363 0.962 . S
C350 H364 0.960 1_556 S
C351 C348 1.511 1_556 S
C351 H365 0.961 . S
C351 H366 0.961 . S
C351 H367 0.961 . S
C352 C353 1.370 . S
C352 C354 1.363 . S
C352 H368 0.931 . S
C353 C352 1.370 . S
C353 C357 1.408 . S
C354 C352 1.363 . S
C354 C355 1.370 . S
C354 C358 1.524 . S
C355 C347 1.503 . S
C355 C354 1.370 . S
C355 C356 1.403 . S
C356 C355 1.403 . S
C356 C357 1.404 . S
C356 C359 1.539 . S
C357 C353 1.408 . S
C357 C356 1.404 . S
C357 H369 0.930 . S
C358 C354 1.524 . S
C358 H370 0.956 . S
C358 H371 0.961 . S
C358 H372 0.961 . S
C359 C356 1.539 . S
C359 H373 0.958 . S
C359 H374 0.961 . S
C359 H375 0.964 . S
H360 C344 0.931 . S
H361 C349 0.929 . S
H362 C350 0.960 . S
H363 C350 0.962 . S
H364 C350 0.960 1_554 S
H365 C351 0.961 . S
H366 C351 0.961 . S
H367 C351 0.961 . S
H368 C352 0.931 . S
H369 C357 0.930 . S
H370 C358 0.956 . S
H371 C358 0.961 . S
H372 C358 0.961 . S
H373 C359 0.958 . S
H374 C359 0.961 . S
H375 C359 0.964 . S
C376 C377 1.391 . S
C376 C378 1.394 . S
C376 H392 0.931 . S
C377 C376 1.391 . S
C377 C381 1.376 . S
C378 C376 1.394 . S
C378 C379 1.369 . S
C378 C382 1.531 . S
C379 C378 1.369 . S
C379 C380 1.410 . S
C379 C387 1.503 . S
C380 C379 1.410 . S
C380 C381 1.392 . S
C380 C383 1.511 . S
C381 C377 1.376 . S
C381 C380 1.392 . S
C381 H393 0.929 . S
C382 C378 1.531 . S
C382 H394 0.960 . S
C382 H395 0.962 . S
C382 H396 0.960 . S
C383 C380 1.511 . S
C383 H397 0.961 . S
C383 H398 0.961 . S
C383 H399 0.961 . S
C384 C385 1.370 . S
C384 C386 1.363 . S
C384 H400 0.931 . S
C385 C384 1.370 . S
C385 C389 1.408 . S
C386 C384 1.363 . S
C386 C387 1.370 . S
C386 C390 1.524 . S
C387 C379 1.503 . S
C387 C386 1.370 . S
C387 C388 1.403 . S
C388 C387 1.403 . S
C388 C389 1.404 . S
C388 C391 1.539 . S
C389 C385 1.408 . S
C389 C388 1.404 . S
C389 H401 0.930 . S
C390 C386 1.524 . S
C390 H402 0.956 . S
C390 H403 0.961 . S
C390 H404 0.961 . S
C391 C388 1.539 . S
C391 H405 0.958 . S
C391 H406 0.961 . S
C391 H407 0.960 . S
H392 C376 0.931 . S
H393 C381 0.929 . S
H394 C382 0.960 . S
H395 C382 0.962 . S
H396 C382 0.960 . S
H397 C383 0.961 . S
H398 C383 0.961 . S
H399 C383 0.961 . S
H400 C384 0.931 . S
H401 C389 0.930 . S
H402 C390 0.956 . S
H403 C390 0.961 . S
H404 C390 0.961 . S
H405 C391 0.958 . S
H406 C391 0.961 . S
H407 C391 0.960 . S
C408 C409 1.391 . S
C408 C410 1.394 . S
C408 H424 0.931 . S
C409 C408 1.391 . S
C409 C413 1.376 . S
C410 C408 1.394 . S
C410 C411 1.369 . S
C410 C414 1.531 . S
C411 C410 1.369 . S
C411 C412 1.410 . S
C411 C419 1.503 . S
C412 C411 1.410 . S
C412 C413 1.392 . S
C412 C415 1.511 . S
C413 C409 1.376 . S
C413 C412 1.392 . S
C413 H425 0.929 . S
C414 C410 1.531 . S
C414 H426 0.960 . S
C414 H427 0.962 . S
C414 H428 0.960 . S
C415 C412 1.511 . S
C415 H429 0.961 . S
C415 H430 0.961 . S
C415 H431 0.961 . S
C416 C417 1.370 . S
C416 C418 1.363 1_556 S
C416 H432 0.931 . S
C417 C416 1.370 . S
C417 C421 1.408 . S
C418 C416 1.363 1_554 S
C418 C419 1.370 . S
C418 C422 1.524 . S
C419 C411 1.503 . S
C419 C418 1.370 . S
C419 C420 1.403 1_554 S
C420 C419 1.403 1_556 S
C420 C421 1.404 . S
C420 C423 1.539 . S
C421 C417 1.408 . S
C421 C420 1.404 . S
C421 H433 0.930 . S
C422 C418 1.524 . S
C422 H434 0.956 . S
C422 H435 0.961 . S
C422 H436 0.961 . S
C423 C420 1.539 . S
C423 H437 0.958 . S
C423 H438 0.961 . S
C423 H439 0.960 . S
H424 C408 0.931 . S
H425 C413 0.929 . S
H426 C414 0.960 . S
H427 C414 0.962 . S
H428 C414 0.960 . S
H429 C415 0.961 . S
H430 C415 0.961 . S
H431 C415 0.961 . S
H432 C416 0.931 . S
H433 C421 0.930 . S
H434 C422 0.956 . S
H435 C422 0.961 . S
H436 C422 0.961 . S
H437 C423 0.958 . S
H438 C423 0.961 . S
H439 C423 0.960 . S
C440 C441 1.391 . S
C440 C442 1.394 . S
C440 H456 0.931 . S
C441 C440 1.391 . S
C441 C445 1.376 . S
C442 C440 1.394 . S
C442 C443 1.369 . S
C442 C446 1.531 . S
C443 C442 1.369 . S
C443 C444 1.410 . S
C443 C451 1.503 . S
C444 C443 1.410 . S
C444 C445 1.392 . S
C444 C447 1.511 . S
C445 C441 1.376 . S
C445 C444 1.392 . S
C445 H457 0.929 . S
C446 C442 1.531 . S
C446 H458 0.960 . S
C446 H459 0.962 . S
C446 H460 0.960 . S
C447 C444 1.511 . S
C447 H461 0.961 . S
C447 H462 0.961 . S
C447 H463 0.961 . S
C448 C449 1.370 . S
C448 C450 1.363 . S
C448 H464 0.931 . S
C449 C448 1.370 . S
C449 C453 1.408 . S
C450 C448 1.363 . S
C450 C451 1.370 . S
C450 C454 1.524 . S
C451 C443 1.503 . S
C451 C450 1.370 . S
C451 C452 1.403 . S
C452 C451 1.403 . S
C452 C453 1.404 . S
C452 C455 1.539 . S
C453 C449 1.408 . S
C453 C452 1.404 . S
C453 H465 0.930 . S
C454 C450 1.524 . S
C454 H466 0.956 . S
C454 H467 0.961 . S
C454 H468 0.961 . S
C455 C452 1.539 . S
C455 H469 0.958 . S
C455 H470 0.961 . S
C455 H471 0.960 . S
H456 C440 0.931 . S
H457 C445 0.929 . S
H458 C446 0.960 . S
H459 C446 0.962 . S
H460 C446 0.960 . S
H461 C447 0.961 . S
H462 C447 0.961 . S
H463 C447 0.961 . S
H464 C448 0.931 . S
H465 C453 0.930 . S
H466 C454 0.956 . S
H467 C454 0.961 . S
H468 C454 0.961 . S
H469 C455 0.958 . S
H470 C455 0.961 . S
H471 C455 0.960 . S
C472 C473 1.391 . S
C472 C474 1.394 . S
C472 H488 0.931 . S
C473 C472 1.391 . S
C473 C477 1.376 . S
C474 C472 1.394 . S
C474 C475 1.369 . S
C474 C478 1.531 . S
C475 C474 1.369 . S
C475 C476 1.410 . S
C475 C483 1.503 . S
C476 C475 1.410 . S
C476 C477 1.392 . S
C476 C479 1.511 . S
C477 C473 1.376 . S
C477 C476 1.392 . S
C477 H489 0.929 . S
C478 C474 1.531 . S
C478 H490 0.960 . S
C478 H491 0.962 . S
C478 H492 0.960 . S
C479 C476 1.511 . S
C479 H493 0.961 . S
C479 H494 0.961 . S
C479 H495 0.961 . S
C480 C481 1.370 . S
C480 C482 1.363 1_556 S
C480 H496 0.931 . S
C481 C480 1.370 . S
C481 C485 1.408 . S
C482 C480 1.363 1_554 S
C482 C483 1.370 . S
C482 C486 1.524 . S
C483 C475 1.503 . S
C483 C482 1.370 . S
C483 C484 1.403 1_554 S
C484 C483 1.403 1_556 S
C484 C485 1.404 . S
C484 C487 1.539 . S
C485 C481 1.408 . S
C485 C484 1.404 . S
C485 H497 0.930 . S
C486 C482 1.524 . S
C486 H498 0.956 . S
C486 H499 0.961 . S
C486 H500 0.961 . S
C487 C484 1.539 . S
C487 H501 0.958 . S
C487 H502 0.961 . S
C487 H503 0.960 . S
H488 C472 0.931 . S
H489 C477 0.929 . S
H490 C478 0.960 . S
H491 C478 0.962 . S
H492 C478 0.960 . S
H493 C479 0.961 . S
H494 C479 0.961 . S
H495 C479 0.961 . S
H496 C480 0.931 . S
H497 C485 0.930 . S
H498 C486 0.956 . S
H499 C486 0.961 . S
H500 C486 0.961 . S
H501 C487 0.958 . S
H502 C487 0.961 . S
H503 C487 0.960 . S
C504 C505 1.391 . S
C504 C506 1.394 . S
C504 H520 0.931 . S
C505 C504 1.391 . S
C505 C509 1.376 1_554 S
C506 C504 1.394 . S
C506 C507 1.369 . S
C506 C510 1.531 . S
C507 C506 1.369 . S
C507 C508 1.410 1_554 S
C507 C515 1.507 . S
C508 C507 1.410 1_556 S
C508 C509 1.392 . S
C508 C511 1.511 . S
C509 C505 1.376 1_556 S
C509 C508 1.392 . S
C509 H521 0.929 . S
C510 C506 1.531 . S
C510 H522 0.960 . S
C510 H523 0.962 . S
C510 H524 0.960 . S
C511 C508 1.511 . S
C511 H525 0.961 . S
C511 H526 0.961 . S
C511 H527 0.961 . S
C512 C513 1.370 . S
C512 C514 1.363 . S
C512 H528 0.931 . S
C513 C512 1.370 . S
C513 C517 1.408 1_556 S
C514 C512 1.363 . S
C514 C515 1.359 1_556 S
C514 C518 1.524 . S
C515 C507 1.507 . S
C515 C514 1.359 1_554 S
C515 C516 1.411 . S
C516 C515 1.411 . S
C516 C517 1.404 . S
C516 C519 1.539 . S
C517 C513 1.408 1_554 S
C517 C516 1.404 . S
C517 H529 0.930 . S
C518 C514 1.524 . S
C518 H530 0.956 . S
C518 H531 0.961 . S
C518 H532 0.961 . S
C519 C516 1.539 . S
C519 H533 0.958 . S
C519 H534 0.961 . S
C519 H535 0.960 . S
H520 C504 0.931 . S
H521 C509 0.929 . S
H522 C510 0.960 . S
H523 C510 0.962 . S
H524 C510 0.960 . S
H525 C511 0.961 . S
H526 C511 0.961 . S
H527 C511 0.961 . S
H528 C512 0.931 . S
H529 C517 0.930 . S
H530 C518 0.956 . S
H531 C518 0.961 . S
H532 C518 0.961 . S
H533 C519 0.958 . S
H534 C519 0.961 . S
H535 C519 0.960 . S
C536 C537 1.391 1_565 S
C536 C538 1.394 . S
C536 H552 0.931 . S
C537 C536 1.391 1_545 S
C537 C541 1.376 . S
C538 C536 1.394 . S
C538 C539 1.369 1_565 S
C538 C542 1.531 . S
C539 C538 1.369 1_545 S
C539 C540 1.410 . S
C539 C547 1.505 . S
C540 C539 1.410 . S
C540 C541 1.392 . S
C540 C543 1.511 . S
C541 C537 1.376 . S
C541 C540 1.392 . S
C541 H553 0.929 . S
C542 C538 1.531 . S
C542 H554 0.960 . S
C542 H555 0.962 . S
C542 H556 0.960 . S
C543 C540 1.511 . S
C543 H557 0.961 . S
C543 H558 0.961 . S
C543 H559 0.961 . S
C544 C545 1.370 . S
C544 C546 1.363 . S
C544 H560 0.931 . S
C545 C544 1.370 . S
C545 C549 1.408 1_565 S
C546 C544 1.363 . S
C546 C547 1.362 1_565 S
C546 C550 1.524 . S
C547 C539 1.505 . S
C547 C546 1.362 1_545 S
C547 C548 1.410 . S
C548 C547 1.410 . S
C548 C549 1.404 . S
C548 C551 1.539 . S
C549 C545 1.408 1_545 S
C549 C548 1.404 . S
C549 H561 0.930 . S
C550 C546 1.524 . S
C550 H562 0.956 . S
C550 H563 0.961 . S
C550 H564 0.961 . S
C551 C548 1.539 . S
C551 H565 0.958 . S
C551 H566 0.961 . S
C551 H567 0.960 . S
H552 C536 0.931 . S
H553 C541 0.929 . S
H554 C542 0.960 . S
H555 C542 0.962 . S
H556 C542 0.960 . S
H557 C543 0.961 . S
H558 C543 0.961 . S
H559 C543 0.961 . S
H560 C544 0.931 . S
H561 C549 0.930 . S
H562 C550 0.956 . S
H563 C550 0.961 . S
H564 C550 0.961 . S
H565 C551 0.958 . S
H566 C551 0.961 . S
H567 C551 0.960 . S
C568 C569 1.391 1_455 S
C568 C570 1.394 . S
C568 H584 0.931 . S
C569 C568 1.391 1_655 S
C569 C573 1.376 1_554 S
C570 C568 1.394 . S
C570 C571 1.369 1_455 S
C570 C574 1.531 . S
C571 C570 1.369 1_655 S
C571 C572 1.410 1_554 S
C571 C579 1.503 1_544 S
C572 C571 1.410 1_556 S
C572 C573 1.392 . S
C572 C575 1.511 . S
C573 C569 1.376 1_556 S
C573 C572 1.392 . S
C573 H585 0.929 . S
C574 C570 1.531 . S
C574 H586 0.960 1_545 S
C574 H587 0.962 . S
C574 H588 0.960 . S
C575 C572 1.511 . S
C575 H589 0.961 . S
C575 H590 0.961 . S
C575 H591 0.961 . S
C576 C577 1.370 . S
C576 C578 1.363 . S
C576 H592 0.931 . S
C577 C576 1.370 . S
C577 C581 1.408 1_455 S
C578 C576 1.363 . S
C578 C579 1.370 1_455 S
C578 C582 1.524 . S
C579 C571 1.503 1_566 S
C579 C578 1.370 1_655 S
C579 C580 1.403 1_556 S
C580 C579 1.403 1_554 S
C580 C581 1.404 1_554 S
C580 C583 1.539 . S
C581 C577 1.408 1_655 S
C581 C580 1.404 1_556 S
C581 H593 0.930 1_556 S
C582 C578 1.524 . S
C582 H594 0.956 1_565 S
C582 H595 0.961 1_565 S
C582 H596 0.961 . S
C583 C580 1.539 . S
C583 H597 0.958 . S
C583 H598 0.961 . S
C583 H599 0.960 . S
H584 C568 0.931 . S
H585 C573 0.929 . S
H586 C574 0.960 1_565 S
H587 C574 0.962 . S
H588 C574 0.960 . S
H589 C575 0.961 . S
H590 C575 0.961 . S
H591 C575 0.961 . S
H592 C576 0.931 . S
H593 C581 0.930 1_554 S
H594 C582 0.956 1_545 S
H595 C582 0.961 1_545 S
H596 C582 0.961 . S
H597 C583 0.958 . S
H598 C583 0.961 . S
H599 C583 0.960 . S
C600 C601 1.391 . S
C600 C602 1.394 . S
C600 H616 0.931 . S
C601 C600 1.391 . S
C601 C605 1.376 . S
C602 C600 1.394 . S
C602 C603 1.369 . S
C602 C606 1.531 . S
C603 C602 1.369 . S
C603 C604 1.410 . S
C603 C611 1.503 1_655 S
C604 C603 1.410 . S
C604 C605 1.392 . S
C604 C607 1.511 . S
C605 C601 1.376 . S
C605 C604 1.392 . S
C605 H617 0.929 . S
C606 C602 1.531 . S
C606 H618 0.960 1_655 S
C606 H619 0.962 . S
C606 H620 0.960 . S
C607 C604 1.511 . S
C607 H621 0.961 . S
C607 H622 0.961 . S
C607 H623 0.961 . S
C608 C609 1.370 . S
C608 C610 1.363 . S
C608 H624 0.931 . S
C609 C608 1.370 . S
C609 C613 1.408 . S
C610 C608 1.363 . S
C610 C611 1.370 . S
C610 C614 1.524 . S
C611 C603 1.503 1_455 S
C611 C610 1.370 . S
C611 C612 1.403 . S
C612 C611 1.403 . S
C612 C613 1.404 . S
C612 C615 1.539 . S
C613 C609 1.408 . S
C613 C612 1.404 . S
C613 H625 0.930 . S
C614 C610 1.524 . S
C614 H626 0.956 1_455 S
C614 H627 0.961 1_455 S
C614 H628 0.961 . S
C615 C612 1.539 . S
C615 H629 0.958 . S
C615 H630 0.961 . S
C615 H631 0.960 . S
H616 C600 0.931 . S
H617 C605 0.929 . S
H618 C606 0.960 1_455 S
H619 C606 0.962 . S
H620 C606 0.960 . S
H621 C607 0.961 . S
H622 C607 0.961 . S
H623 C607 0.961 . S
H624 C608 0.931 . S
H625 C613 0.930 . S
H626 C614 0.956 1_655 S
H627 C614 0.961 1_655 S
H628 C614 0.961 . S
H629 C615 0.958 . S
H630 C615 0.961 . S
H631 C615 0.960 . S
C632 C633 1.391 . S
C632 C634 1.394 . S
C632 H648 0.931 . S
C633 C632 1.391 . S
C633 C637 1.376 . S
C634 C632 1.394 . S
C634 C635 1.369 . S
C634 C638 1.531 . S
C635 C634 1.369 . S
C635 C636 1.410 . S
C635 C643 1.503 . S
C636 C635 1.410 . S
C636 C637 1.392 . S
C636 C639 1.511 . S
C637 C633 1.376 . S
C637 C636 1.392 . S
C637 H649 0.929 . S
C638 C634 1.531 . S
C638 H650 0.960 . S
C638 H651 0.962 . S
C638 H652 0.960 . S
C639 C636 1.511 . S
C639 H653 0.961 . S
C639 H654 0.961 . S
C639 H655 0.961 . S
C640 C641 1.370 . S
C640 C642 1.363 . S
C640 H656 0.931 . S
C641 C640 1.370 . S
C641 C645 1.408 . S
C642 C640 1.363 . S
C642 C643 1.370 . S
C642 C646 1.524 . S
C643 C635 1.503 . S
C643 C642 1.370 . S
C643 C644 1.403 . S
C644 C643 1.403 . S
C644 C645 1.404 . S
C644 C647 1.539 . S
C645 C641 1.408 . S
C645 C644 1.404 . S
C645 H657 0.930 . S
C646 C642 1.524 . S
C646 H658 0.956 . S
C646 H659 0.961 . S
C646 H660 0.961 . S
C647 C644 1.539 . S
C647 H661 0.958 . S
C647 H662 0.961 . S
C647 H663 0.960 . S
H648 C632 0.931 . S
H649 C637 0.929 . S
H650 C638 0.960 . S
H651 C638 0.962 . S
H652 C638 0.960 . S
H653 C639 0.961 . S
H654 C639 0.961 . S
H655 C639 0.961 . S
H656 C640 0.931 . S
H657 C645 0.930 . S
H658 C646 0.956 . S
H659 C646 0.961 . S
H660 C646 0.961 . S
H661 C647 0.958 . S
H662 C647 0.961 . S
H663 C647 0.960 . S
C664 C665 1.391 . S
C664 C666 1.394 . S
C664 H680 0.931 . S
C665 C664 1.391 . S
C665 C669 1.376 . S
C666 C664 1.394 . S
C666 C667 1.369 . S
C666 C670 1.531 . S
C667 C666 1.369 . S
C667 C668 1.410 . S
C667 C675 1.503 . S
C668 C667 1.410 . S
C668 C669 1.392 . S
C668 C671 1.511 . S
C669 C665 1.376 . S
C669 C668 1.392 . S
C669 H681 0.929 . S
C670 C666 1.531 . S
C670 H682 0.960 . S
C670 H683 0.962 . S
C670 H684 0.960 . S
C671 C668 1.511 . S
C671 H685 0.961 . S
C671 H686 0.961 . S
C671 H687 0.961 . S
C672 C673 1.370 . S
C672 C674 1.363 . S
C672 H688 0.931 . S
C673 C672 1.370 . S
C673 C677 1.408 . S
C674 C672 1.363 . S
C674 C675 1.370 . S
C674 C678 1.524 . S
C675 C667 1.503 . S
C675 C674 1.370 . S
C675 C676 1.403 . S
C676 C675 1.403 . S
C676 C677 1.404 . S
C676 C679 1.539 . S
C677 C673 1.408 . S
C677 C676 1.404 . S
C677 H689 0.930 . S
C678 C674 1.524 . S
C678 H690 0.956 . S
C678 H691 0.961 . S
C678 H692 0.961 . S
C679 C676 1.539 . S
C679 H693 0.958 . S
C679 H694 0.961 . S
C679 H695 0.960 . S
H680 C664 0.931 . S
H681 C669 0.929 . S
H682 C670 0.960 . S
H683 C670 0.962 . S
H684 C670 0.960 . S
H685 C671 0.961 . S
H686 C671 0.961 . S
H687 C671 0.961 . S
H688 C672 0.931 . S
H689 C677 0.930 . S
H690 C678 0.956 . S
H691 C678 0.961 . S
H692 C678 0.961 . S
H693 C679 0.958 . S
H694 C679 0.961 . S
H695 C679 0.960 . S
C696 C697 1.391 . S
C696 C698 1.394 . S
C696 H712 0.931 . S
C697 C696 1.391 . S
C697 C701 1.376 . S
C698 C696 1.394 . S
C698 C699 1.369 . S
C698 C702 1.531 . S
C699 C698 1.369 . S
C699 C700 1.410 . S
C699 C707 1.503 . S
C700 C699 1.410 . S
C700 C701 1.392 . S
C700 C703 1.511 . S
C701 C697 1.376 . S
C701 C700 1.392 . S
C701 H713 0.929 . S
C702 C698 1.531 . S
C702 H714 0.960 . S
C702 H715 0.962 . S
C702 H716 0.960 . S
C703 C700 1.511 . S
C703 H717 0.961 . S
C703 H718 0.961 . S
C703 H719 0.961 . S
C704 C705 1.370 . S
C704 C706 1.363 . S
C704 H720 0.931 . S
C705 C704 1.370 . S
C705 C709 1.408 . S
C706 C704 1.363 . S
C706 C707 1.370 . S
C706 C710 1.524 . S
C707 C699 1.503 . S
C707 C706 1.370 . S
C707 C708 1.403 . S
C708 C707 1.403 . S
C708 C709 1.404 . S
C708 C711 1.539 . S
C709 C705 1.408 . S
C709 C708 1.404 . S
C709 H721 0.930 . S
C710 C706 1.524 . S
C710 H722 0.956 . S
C710 H723 0.961 . S
C710 H724 0.961 . S
C711 C708 1.539 . S
C711 H725 0.958 . S
C711 H726 0.961 . S
C711 H727 0.960 . S
H712 C696 0.931 . S
H713 C701 0.929 . S
H714 C702 0.960 . S
H715 C702 0.962 . S
H716 C702 0.960 . S
H717 C703 0.961 . S
H718 C703 0.961 . S
H719 C703 0.961 . S
H720 C704 0.931 . S
H721 C709 0.930 . S
H722 C710 0.956 . S
H723 C710 0.961 . S
H724 C710 0.961 . S
H725 C711 0.958 . S
H726 C711 0.961 . S
H727 C711 0.960 . S
C728 C729 1.391 . S
C728 C730 1.394 . S
C728 H744 0.931 . S
C729 C728 1.391 . S
C729 C733 1.376 . S
C730 C728 1.394 . S
C730 C731 1.369 . S
C730 C734 1.531 . S
C731 C730 1.369 . S
C731 C732 1.410 . S
C731 C739 1.503 . S
C732 C731 1.410 . S
C732 C733 1.392 . S
C732 C735 1.511 . S
C733 C729 1.376 . S
C733 C732 1.392 . S
C733 H745 0.929 . S
C734 C730 1.531 . S
C734 H746 0.960 . S
C734 H747 0.962 . S
C734 H748 0.960 . S
C735 C732 1.511 . S
C735 H749 0.961 . S
C735 H750 0.961 . S
C735 H751 0.961 . S
C736 C737 1.370 . S
C736 C738 1.363 . S
C736 H752 0.931 . S
C737 C736 1.370 . S
C737 C741 1.408 . S
C738 C736 1.363 . S
C738 C739 1.370 . S
C738 C742 1.524 . S
C739 C731 1.503 . S
C739 C738 1.370 . S
C739 C740 1.403 . S
C740 C739 1.403 . S
C740 C741 1.404 . S
C740 C743 1.539 . S
C741 C737 1.408 . S
C741 C740 1.404 . S
C741 H753 0.930 . S
C742 C738 1.524 . S
C742 H754 0.956 . S
C742 H755 0.961 . S
C742 H756 0.961 . S
C743 C740 1.539 . S
C743 H757 0.958 . S
C743 H758 0.961 . S
C743 H759 0.960 . S
H744 C728 0.931 . S
H745 C733 0.929 . S
H746 C734 0.960 . S
H747 C734 0.962 . S
H748 C734 0.960 . S
H749 C735 0.961 . S
H750 C735 0.961 . S
H751 C735 0.961 . S
H752 C736 0.931 . S
H753 C741 0.930 . S
H754 C742 0.956 . S
H755 C742 0.961 . S
H756 C742 0.961 . S
H757 C743 0.958 . S
H758 C743 0.961 . S
H759 C743 0.960 . S
C760 C761 1.391 1_556 S
C760 C762 1.394 . S
C760 H776 0.931 . S
C761 C760 1.391 1_554 S
C761 C765 1.376 . S
C762 C760 1.394 . S
C762 C763 1.369 . S
C762 C766 1.531 . S
C763 C762 1.369 . S
C763 C764 1.410 . S
C763 C771 1.503 . S
C764 C763 1.410 . S
C764 C765 1.392 1_556 S
C764 C767 1.511 . S
C765 C761 1.376 . S
C765 C764 1.392 1_554 S
C765 H777 0.929 . S
C766 C762 1.531 . S
C766 H778 0.960 . S
C766 H779 0.962 . S
C766 H780 0.960 . S
C767 C764 1.511 . S
C767 H781 0.961 1_556 S
C767 H782 0.961 . S
C767 H783 0.961 . S
C768 C769 1.370 . S
C768 C770 1.363 . S
C768 H784 0.931 . S
C769 C768 1.370 . S
C769 C773 1.408 . S
C770 C768 1.363 . S
C770 C771 1.370 . S
C770 C774 1.524 . S
C771 C763 1.503 . S
C771 C770 1.370 . S
C771 C772 1.403 . S
C772 C771 1.403 . S
C772 C773 1.404 . S
C772 C775 1.539 . S
C773 C769 1.408 . S
C773 C772 1.404 . S
C773 H785 0.930 . S
C774 C770 1.524 . S
C774 H786 0.956 . S
C774 H787 0.961 . S
C774 H788 0.961 . S
C775 C772 1.539 . S
C775 H789 0.958 . S
C775 H790 0.961 . S
C775 H791 0.960 . S
H776 C760 0.931 . S
H777 C765 0.929 . S
H778 C766 0.960 . S
H779 C766 0.962 . S
H780 C766 0.960 . S
H781 C767 0.961 1_554 S
H782 C767 0.961 . S
H783 C767 0.961 . S
H784 C768 0.931 . S
H785 C773 0.930 . S
H786 C774 0.956 . S
H787 C774 0.961 . S
H788 C774 0.961 . S
H789 C775 0.958 . S
H790 C775 0.961 . S
H791 C775 0.960 . S
C792 C793 1.391 . S
C792 C794 1.394 . S
C792 H808 0.931 . S
C793 C792 1.391 . S
C793 C797 1.376 . S
C794 C792 1.394 . S
C794 C795 1.369 . S
C794 C798 1.531 . S
C795 C794 1.369 . S
C795 C796 1.410 . S
C795 C803 1.503 . S
C796 C795 1.410 . S
C796 C797 1.392 . S
C796 C799 1.511 . S
C797 C793 1.376 . S
C797 C796 1.392 . S
C797 H809 0.929 . S
C798 C794 1.531 . S
C798 H810 0.960 . S
C798 H811 0.962 . S
C798 H812 0.960 . S
C799 C796 1.511 . S
C799 H813 0.961 . S
C799 H814 0.961 . S
C799 H815 0.961 . S
C800 C801 1.370 . S
C800 C802 1.363 . S
C800 H816 0.931 . S
C801 C800 1.370 . S
C801 C805 1.408 . S
C802 C800 1.363 . S
C802 C803 1.370 . S
C802 C806 1.524 . S
C803 C795 1.503 . S
C803 C802 1.370 . S
C803 C804 1.403 . S
C804 C803 1.403 . S
C804 C805 1.404 . S
C804 C807 1.539 . S
C805 C801 1.408 . S
C805 C804 1.404 . S
C805 H817 0.930 . S
C806 C802 1.524 . S
C806 H818 0.956 . S
C806 H819 0.961 . S
C806 H820 0.961 . S
C807 C804 1.539 . S
C807 H821 0.958 . S
C807 H822 0.961 . S
C807 H823 0.960 . S
H808 C792 0.931 . S
H809 C797 0.929 . S
H810 C798 0.960 . S
H811 C798 0.962 . S
H812 C798 0.960 . S
H813 C799 0.961 . S
H814 C799 0.961 . S
H815 C799 0.961 . S
H816 C800 0.931 . S
H817 C805 0.930 . S
H818 C806 0.956 . S
H819 C806 0.961 . S
H820 C806 0.961 . S
H821 C807 0.958 . S
H822 C807 0.961 . S
H823 C807 0.960 . S
C824 C825 1.391 . S
C824 C826 1.394 . S
C824 H840 0.931 . S
C825 C824 1.391 . S
C825 C829 1.376 . S
C826 C824 1.394 . S
C826 C827 1.369 . S
C826 C830 1.531 . S
C827 C826 1.369 . S
C827 C828 1.410 . S
C827 C835 1.503 . S
C828 C827 1.410 . S
C828 C829 1.392 . S
C828 C831 1.511 . S
C829 C825 1.376 . S
C829 C828 1.392 . S
C829 H841 0.929 . S
C830 C826 1.531 . S
C830 H842 0.960 . S
C830 H843 0.962 . S
C830 H844 0.960 . S
C831 C828 1.511 . S
C831 H845 0.961 . S
C831 H846 0.961 . S
C831 H847 0.961 . S
C832 C833 1.370 1_556 S
C832 C834 1.363 . S
C832 H848 0.931 . S
C833 C832 1.370 1_554 S
C833 C837 1.408 . S
C834 C832 1.363 . S
C834 C835 1.370 . S
C834 C838 1.524 . S
C835 C827 1.503 . S
C835 C834 1.370 . S
C835 C836 1.403 . S
C836 C835 1.403 . S
C836 C837 1.404 1_556 S
C836 C839 1.539 1_556 S
C837 C833 1.408 . S
C837 C836 1.404 1_554 S
C837 H849 0.930 . S
C838 C834 1.524 . S
C838 H850 0.956 . S
C838 H851 0.961 . S
C838 H852 0.961 . S
C839 C836 1.539 1_554 S
C839 H853 0.958 . S
C839 H854 0.961 . S
C839 H855 0.960 1_554 S
H840 C824 0.931 . S
H841 C829 0.929 . S
H842 C830 0.960 . S
H843 C830 0.962 . S
H844 C830 0.960 . S
H845 C831 0.961 . S
H846 C831 0.961 . S
H847 C831 0.961 . S
H848 C832 0.931 . S
H849 C837 0.930 . S
H850 C838 0.956 . S
H851 C838 0.961 . S
H852 C838 0.961 . S
H853 C839 0.958 . S
H854 C839 0.961 . S
H855 C839 0.960 1_556 S
C856 C857 1.391 . S
C856 C858 1.394 . S
C856 H872 0.931 . S
C857 C856 1.391 . S
C857 C861 1.376 . S
C858 C856 1.394 . S
C858 C859 1.369 . S
C858 C862 1.531 . S
C859 C858 1.369 . S
C859 C860 1.410 . S
C859 C867 1.503 . S
C860 C859 1.410 . S
C860 C861 1.392 . S
C860 C863 1.511 . S
C861 C857 1.376 . S
C861 C860 1.392 . S
C861 H873 0.929 . S
C862 C858 1.531 . S
C862 H874 0.960 . S
C862 H875 0.962 . S
C862 H876 0.960 . S
C863 C860 1.511 . S
C863 H877 0.961 . S
C863 H878 0.961 . S
C863 H879 0.961 . S
C864 C865 1.370 . S
C864 C866 1.363 . S
C864 H880 0.931 . S
C865 C864 1.370 . S
C865 C869 1.408 . S
C866 C864 1.363 . S
C866 C867 1.370 . S
C866 C870 1.524 . S
C867 C859 1.503 . S
C867 C866 1.370 . S
C867 C868 1.403 . S
C868 C867 1.403 . S
C868 C869 1.404 . S
C868 C871 1.539 . S
C869 C865 1.408 . S
C869 C868 1.404 . S
C869 H881 0.930 . S
C870 C866 1.524 . S
C870 H882 0.956 . S
C870 H883 0.961 . S
C870 H884 0.961 . S
C871 C868 1.539 . S
C871 H885 0.958 . S
C871 H886 0.961 . S
C871 H887 0.960 . S
H872 C856 0.931 . S
H873 C861 0.929 . S
H874 C862 0.960 . S
H875 C862 0.962 . S
H876 C862 0.960 . S
H877 C863 0.961 . S
H878 C863 0.961 . S
H879 C863 0.961 . S
H880 C864 0.931 . S
H881 C869 0.930 . S
H882 C870 0.956 . S
H883 C870 0.961 . S
H884 C870 0.961 . S
H885 C871 0.958 . S
H886 C871 0.961 . S
H887 C871 0.960 . S
C888 C889 1.391 1_554 S
C888 C890 1.394 . S
C888 H904 0.931 . S
C889 C888 1.391 1_556 S
C889 C893 1.376 . S
C890 C888 1.394 . S
C890 C891 1.369 . S
C890 C894 1.531 . S
C891 C890 1.369 . S
C891 C892 1.410 . S
C891 C899 1.503 . S
C892 C891 1.410 . S
C892 C893 1.392 1_554 S
C892 C895 1.511 . S
C893 C889 1.376 . S
C893 C892 1.392 1_556 S
C893 H905 0.929 . S
C894 C890 1.531 . S
C894 H906 0.960 . S
C894 H907 0.962 . S
C894 H908 0.960 . S
C895 C892 1.511 . S
C895 H909 0.961 1_554 S
C895 H910 0.961 . S
C895 H911 0.961 1_554 S
C896 C897 1.370 . S
C896 C898 1.363 . S
C896 H912 0.931 . S
C897 C896 1.370 . S
C897 C901 1.408 . S
C898 C896 1.363 . S
C898 C899 1.370 . S
C898 C902 1.524 . S
C899 C891 1.503 . S
C899 C898 1.370 . S
C899 C900 1.403 . S
C900 C899 1.403 . S
C900 C901 1.404 . S
C900 C903 1.539 . S
C901 C897 1.408 . S
C901 C900 1.404 . S
C901 H913 0.930 . S
C902 C898 1.524 . S
C902 H914 0.956 . S
C902 H915 0.961 . S
C902 H916 0.961 . S
C903 C900 1.539 . S
C903 H917 0.958 . S
C903 H918 0.961 . S
C903 H919 0.960 . S
H904 C888 0.931 . S
H905 C893 0.929 . S
H906 C894 0.960 . S
H907 C894 0.962 . S
H908 C894 0.960 . S
H909 C895 0.961 1_556 S
H910 C895 0.961 . S
H911 C895 0.961 1_556 S
H912 C896 0.931 . S
H913 C901 0.930 . S
H914 C902 0.956 . S
H915 C902 0.961 . S
H916 C902 0.961 . S
H917 C903 0.958 . S
H918 C903 0.961 . S
H919 C903 0.960 . S
C920 C921 1.391 . S
C920 C922 1.394 . S
C920 H936 0.931 . S
C921 C920 1.391 . S
C921 C925 1.376 . S
C922 C920 1.394 . S
C922 C923 1.369 . S
C922 C926 1.531 . S
C923 C922 1.369 . S
C923 C924 1.410 . S
C923 C931 1.503 . S
C924 C923 1.410 . S
C924 C925 1.392 . S
C924 C927 1.511 . S
C925 C921 1.376 . S
C925 C924 1.392 . S
C925 H937 0.929 . S
C926 C922 1.531 . S
C926 H938 0.960 . S
C926 H939 0.962 . S
C926 H940 0.960 . S
C927 C924 1.511 . S
C927 H941 0.961 . S
C927 H942 0.961 . S
C927 H943 0.961 . S
C928 C929 1.370 . S
C928 C930 1.363 . S
C928 H944 0.931 . S
C929 C928 1.370 . S
C929 C933 1.408 . S
C930 C928 1.363 . S
C930 C931 1.370 . S
C930 C934 1.524 . S
C931 C923 1.503 . S
C931 C930 1.370 . S
C931 C932 1.403 . S
C932 C931 1.403 . S
C932 C933 1.404 . S
C932 C935 1.539 . S
C933 C929 1.408 . S
C933 C932 1.404 . S
C933 H945 0.930 . S
C934 C930 1.524 . S
C934 H946 0.956 . S
C934 H947 0.961 . S
C934 H948 0.961 . S
C935 C932 1.539 . S
C935 H949 0.958 . S
C935 H950 0.961 . S
C935 H951 0.960 . S
H936 C920 0.931 . S
H937 C925 0.929 . S
H938 C926 0.960 . S
H939 C926 0.962 . S
H940 C926 0.960 . S
H941 C927 0.961 . S
H942 C927 0.961 . S
H943 C927 0.961 . S
H944 C928 0.931 . S
H945 C933 0.930 . S
H946 C934 0.956 . S
H947 C934 0.961 . S
H948 C934 0.961 . S
H949 C935 0.958 . S
H950 C935 0.961 . S
H951 C935 0.960 . S
C952 C953 1.391 . S
C952 C954 1.394 . S
C952 H968 0.931 . S
C953 C952 1.391 . S
C953 C957 1.376 . S
C954 C952 1.394 . S
C954 C955 1.369 . S
C954 C958 1.531 . S
C955 C954 1.369 . S
C955 C956 1.410 . S
C955 C963 1.503 . S
C956 C955 1.410 . S
C956 C957 1.392 . S
C956 C959 1.511 . S
C957 C953 1.376 . S
C957 C956 1.392 . S
C957 H969 0.929 . S
C958 C954 1.531 . S
C958 H970 0.960 . S
C958 H971 0.962 . S
C958 H972 0.960 . S
C959 C956 1.511 . S
C959 H973 0.961 . S
C959 H974 0.961 . S
C959 H975 0.961 . S
C960 C961 1.370 . S
C960 C962 1.363 1_556 S
C960 H976 0.931 . S
C961 C960 1.370 . S
C961 C965 1.408 1_556 S
C962 C960 1.363 1_554 S
C962 C963 1.370 . S
C962 C966 1.524 1_554 S
C963 C955 1.503 . S
C963 C962 1.370 . S
C963 C964 1.403 . S
C964 C963 1.403 . S
C964 C965 1.404 . S
C964 C967 1.539 . S
C965 C961 1.408 1_554 S
C965 C964 1.404 . S
C965 H977 0.930 . S
C966 C962 1.524 1_556 S
C966 H978 0.956 1_556 S
C966 H979 0.961 1_556 S
C966 H980 0.961 . S
C967 C964 1.539 . S
C967 H981 0.958 . S
C967 H982 0.961 . S
C967 H983 0.960 . S
H968 C952 0.931 . S
H969 C957 0.929 . S
H970 C958 0.960 . S
H971 C958 0.962 . S
H972 C958 0.960 . S
H973 C959 0.961 . S
H974 C959 0.961 . S
H975 C959 0.961 . S
H976 C960 0.931 . S
H977 C965 0.930 . S
H978 C966 0.956 1_554 S
H979 C966 0.961 1_554 S
H980 C966 0.961 . S
H981 C967 0.958 . S
H982 C967 0.961 . S
H983 C967 0.960 . S
C984 C985 1.391 . S
C984 C986 1.394 . S
C984 H1000 0.931 . S
C985 C984 1.391 . S
C985 C989 1.376 . S
C986 C984 1.394 . S
C986 C987 1.369 . S
C986 C990 1.531 . S
C987 C986 1.369 . S
C987 C988 1.410 . S
C987 C995 1.503 . S
C988 C987 1.410 . S
C988 C989 1.392 . S
C988 C991 1.511 . S
C989 C985 1.376 . S
C989 C988 1.392 . S
C989 H1001 0.929 . S
C990 C986 1.531 . S
C990 H1002 0.960 . S
C990 H1003 0.962 . S
C990 H1004 0.960 . S
C991 C988 1.511 . S
C991 H1005 0.961 . S
C991 H1006 0.961 . S
C991 H1007 0.961 . S
C992 C993 1.370 . S
C992 C994 1.363 . S
C992 H1008 0.931 . S
C993 C992 1.370 . S
C993 C997 1.408 . S
C994 C992 1.363 . S
C994 C995 1.370 . S
C994 C998 1.524 . S
C995 C987 1.503 . S
C995 C994 1.370 . S
C995 C996 1.403 . S
C996 C995 1.403 . S
C996 C997 1.404 . S
C996 C999 1.539 . S
C997 C993 1.408 . S
C997 C996 1.404 . S
C997 H1009 0.930 . S
C998 C994 1.524 . S
C998 H1010 0.956 . S
C998 H1011 0.961 . S
C998 H1012 0.961 . S
C999 C996 1.539 . S
C999 H1013 0.958 . S
C999 H1014 0.961 . S
C999 H1015 0.960 . S
H1000 C984 0.931 . S
H1001 C989 0.929 . S
H1002 C990 0.960 . S
H1003 C990 0.962 . S
H1004 C990 0.960 . S
H1005 C991 0.961 . S
H1006 C991 0.961 . S
H1007 C991 0.961 . S
H1008 C992 0.931 . S
H1009 C997 0.930 . S
H1010 C998 0.956 . S
H1011 C998 0.961 . S
H1012 C998 0.961 . S
H1013 C999 0.958 . S
H1014 C999 0.961 . S
H1015 C999 0.960 . S
C1016 C1017 1.391 . S
C1016 C1018 1.394 . S
C1016 H1032 0.931 . S
C1017 C1016 1.391 . S
C1017 C1021 1.376 . S
C1018 C1016 1.394 . S
C1018 C1019 1.369 . S
C1018 C1022 1.531 . S
C1019 C1018 1.369 . S
C1019 C1020 1.410 . S
C1019 C1027 1.503 . S
C1020 C1019 1.410 . S
C1020 C1021 1.392 . S
C1020 C1023 1.511 . S
C1021 C1017 1.376 . S
C1021 C1020 1.392 . S
C1021 H1033 0.929 . S
C1022 C1018 1.531 . S
C1022 H1034 0.960 . S
C1022 H1035 0.962 . S
C1022 H1036 0.960 . S
C1023 C1020 1.511 . S
C1023 H1037 0.961 . S
C1023 H1038 0.961 . S
C1023 H1039 0.961 . S
C1024 C1025 1.370 . S
C1024 C1026 1.363 . S
C1024 H1040 0.931 . S
C1025 C1024 1.370 . S
C1025 C1029 1.408 . S
C1026 C1024 1.363 . S
C1026 C1027 1.370 . S
C1026 C1030 1.524 . S
C1027 C1019 1.503 . S
C1027 C1026 1.370 . S
C1027 C1028 1.403 . S
C1028 C1027 1.403 . S
C1028 C1029 1.404 . S
C1028 C1031 1.539 . S
C1029 C1025 1.408 . S
C1029 C1028 1.404 . S
C1029 H1041 0.930 . S
C1030 C1026 1.524 . S
C1030 H1042 0.956 . S
C1030 H1043 0.961 . S
C1030 H1044 0.961 . S
C1031 C1028 1.539 . S
C1031 H1045 0.958 . S
C1031 H1046 0.961 . S
C1031 H1047 0.960 . S
H1032 C1016 0.931 . S
H1033 C1021 0.929 . S
H1034 C1022 0.960 . S
H1035 C1022 0.962 . S
H1036 C1022 0.960 . S
H1037 C1023 0.961 . S
H1038 C1023 0.961 . S
H1039 C1023 0.961 . S
H1040 C1024 0.931 . S
H1041 C1029 0.930 . S
H1042 C1030 0.956 . S
H1043 C1030 0.961 . S
H1044 C1030 0.961 . S
H1045 C1031 0.958 . S
H1046 C1031 0.961 . S
H1047 C1031 0.960 . S
C1048 C1049 1.391 . S
C1048 C1050 1.394 . S
C1048 H1064 0.931 . S
C1049 C1048 1.391 . S
C1049 C1053 1.376 . S
C1050 C1048 1.394 . S
C1050 C1051 1.369 . S
C1050 C1054 1.531 . S
C1051 C1050 1.369 . S
C1051 C1052 1.410 . S
C1051 C1059 1.503 . S
C1052 C1051 1.410 . S
C1052 C1053 1.392 . S
C1052 C1055 1.511 . S
C1053 C1049 1.376 . S
C1053 C1052 1.392 . S
C1053 H1065 0.929 1_565 S
C1054 C1050 1.531 . S
C1054 H1066 0.960 . S
C1054 H1067 0.962 . S
C1054 H1068 0.960 . S
C1055 C1052 1.511 . S
C1055 H1069 0.961 1_565 S
C1055 H1070 0.961 . S
C1055 H1071 0.961 . S
C1056 C1057 1.370 . S
C1056 C1058 1.363 . S
C1056 H1072 0.931 . S
C1057 C1056 1.370 . S
C1057 C1061 1.408 . S
C1058 C1056 1.363 . S
C1058 C1059 1.370 . S
C1058 C1062 1.524 . S
C1059 C1051 1.503 . S
C1059 C1058 1.370 . S
C1059 C1060 1.403 . S
C1060 C1059 1.403 . S
C1060 C1061 1.404 . S
C1060 C1063 1.539 . S
C1061 C1057 1.408 . S
C1061 C1060 1.404 . S
C1061 H1073 0.930 . S
C1062 C1058 1.524 . S
C1062 H1074 0.956 . S
C1062 H1075 0.961 . S
C1062 H1076 0.961 . S
C1063 C1060 1.539 . S
C1063 H1077 0.958 . S
C1063 H1078 0.961 . S
C1063 H1079 0.960 . S
H1064 C1048 0.931 . S
H1065 C1053 0.929 1_545 S
H1066 C1054 0.960 . S
H1067 C1054 0.962 . S
H1068 C1054 0.960 . S
H1069 C1055 0.961 1_545 S
H1070 C1055 0.961 . S
H1071 C1055 0.961 . S
H1072 C1056 0.931 . S
H1073 C1061 0.930 . S
H1074 C1062 0.956 . S
H1075 C1062 0.961 . S
H1076 C1062 0.961 . S
H1077 C1063 0.958 . S
H1078 C1063 0.961 . S
H1079 C1063 0.960 . S
C1080 C1081 1.391 . S
C1080 C1082 1.394 . S
C1080 H1096 0.931 . S
C1081 C1080 1.391 . S
C1081 C1085 1.376 . S
C1082 C1080 1.394 . S
C1082 C1083 1.369 . S
C1082 C1086 1.531 . S
C1083 C1082 1.369 . S
C1083 C1084 1.410 . S
C1083 C1091 1.503 . S
C1084 C1083 1.410 . S
C1084 C1085 1.392 . S
C1084 C1087 1.511 . S
C1085 C1081 1.376 . S
C1085 C1084 1.392 . S
C1085 H1097 0.929 . S
C1086 C1082 1.531 . S
C1086 H1098 0.960 . S
C1086 H1099 0.962 . S
C1086 H1100 0.960 . S
C1087 C1084 1.511 . S
C1087 H1101 0.961 . S
C1087 H1102 0.961 . S
C1087 H1103 0.961 . S
C1088 C1089 1.370 . S
C1088 C1090 1.363 . S
C1088 H1104 0.945 . S
C1089 C1088 1.370 . S
C1089 C1093 1.408 . S
C1090 C1088 1.363 . S
C1090 C1091 1.370 . S
C1090 C1094 1.524 . S
C1091 C1083 1.503 . S
C1091 C1090 1.370 . S
C1091 C1092 1.403 . S
C1092 C1091 1.403 . S
C1092 C1093 1.404 . S
C1092 C1095 1.539 . S
C1093 C1089 1.408 . S
C1093 C1092 1.404 . S
C1093 H1105 0.930 . S
C1094 C1090 1.524 . S
C1094 H1106 0.956 . S
C1094 H1107 0.961 . S
C1094 H1108 0.961 . S
C1095 C1092 1.539 . S
C1095 H1109 0.958 . S
C1095 H1110 0.961 . S
C1095 H1111 0.960 . S
H1096 C1080 0.931 . S
H1097 C1085 0.929 . S
H1098 C1086 0.960 . S
H1099 C1086 0.962 . S
H1100 C1086 0.960 . S
H1101 C1087 0.961 . S
H1102 C1087 0.961 . S
H1103 C1087 0.961 . S
H1104 C1088 0.945 . S
H1105 C1093 0.930 . S
H1106 C1094 0.956 . S
H1107 C1094 0.961 . S
H1108 C1094 0.961 . S
H1109 C1095 0.958 . S
H1110 C1095 0.961 . S
H1111 C1095 0.960 . S
C1112 C1113 1.391 . S
C1112 C1114 1.394 . S
C1112 H1128 0.931 . S
C1113 C1112 1.391 . S
C1113 C1117 1.376 . S
C1114 C1112 1.394 . S
C1114 C1115 1.369 . S
C1114 C1118 1.531 . S
C1115 C1114 1.369 . S
C1115 C1116 1.410 . S
C1115 C1123 1.503 . S
C1116 C1115 1.410 . S
C1116 C1117 1.392 . S
C1116 C1119 1.511 . S
C1117 C1113 1.376 . S
C1117 C1116 1.392 . S
C1117 H1129 0.929 . S
C1118 C1114 1.531 . S
C1118 H1130 0.960 . S
C1118 H1131 0.962 . S
C1118 H1132 0.960 . S
C1119 C1116 1.511 . S
C1119 H1133 0.961 . S
C1119 H1134 0.961 . S
C1119 H1135 0.961 . S
C1120 C1121 1.370 . S
C1120 C1122 1.363 . S
C1120 H1136 0.931 . S
C1121 C1120 1.370 . S
C1121 C1125 1.408 . S
C1122 C1120 1.363 . S
C1122 C1123 1.370 . S
C1122 C1126 1.524 . S
C1123 C1115 1.503 . S
C1123 C1122 1.370 . S
C1123 C1124 1.403 . S
C1124 C1123 1.403 . S
C1124 C1125 1.404 . S
C1124 C1127 1.539 . S
C1125 C1121 1.408 . S
C1125 C1124 1.404 . S
C1125 H1137 0.930 . S
C1126 C1122 1.524 . S
C1126 H1138 0.956 . S
C1126 H1139 0.961 . S
C1126 H1140 0.961 . S
C1127 C1124 1.539 . S
C1127 H1141 0.958 . S
C1127 H1142 0.961 . S
C1127 H1143 0.960 . S
H1128 C1112 0.931 . S
H1129 C1117 0.929 . S
H1130 C1118 0.960 . S
H1131 C1118 0.962 . S
H1132 C1118 0.960 . S
H1133 C1119 0.961 . S
H1134 C1119 0.961 . S
H1135 C1119 0.961 . S
H1136 C1120 0.931 . S
H1137 C1125 0.930 . S
H1138 C1126 0.956 . S
H1139 C1126 0.961 . S
H1140 C1126 0.961 . S
H1141 C1127 0.958 . S
H1142 C1127 0.961 . S
H1143 C1127 0.960 . S
C1144 C1145 1.391 . S
C1144 C1146 1.394 . S
C1144 H1160 0.931 . S
C1145 C1144 1.391 . S
C1145 C1149 1.376 . S
C1146 C1144 1.394 . S
C1146 C1147 1.369 . S
C1146 C1150 1.531 . S
C1147 C1146 1.369 . S
C1147 C1148 1.410 . S
C1147 C1155 1.503 . S
C1148 C1147 1.410 . S
C1148 C1149 1.392 . S
C1148 C1151 1.511 . S
C1149 C1145 1.376 . S
C1149 C1148 1.392 . S
C1149 H1161 0.929 . S
C1150 C1146 1.531 . S
C1150 H1162 0.960 . S
C1150 H1163 0.962 . S
C1150 H1164 0.960 . S
C1151 C1148 1.511 . S
C1151 H1165 0.961 . S
C1151 H1166 0.961 . S
C1151 H1167 0.961 . S
C1152 C1153 1.370 . S
C1152 C1154 1.363 . S
C1152 H1168 0.931 . S
C1153 C1152 1.370 . S
C1153 C1157 1.408 . S
C1154 C1152 1.363 . S
C1154 C1155 1.370 . S
C1154 C1158 1.524 . S
C1155 C1147 1.503 . S
C1155 C1154 1.370 . S
C1155 C1156 1.403 . S
C1156 C1155 1.403 . S
C1156 C1157 1.404 . S
C1156 C1159 1.539 . S
C1157 C1153 1.408 . S
C1157 C1156 1.404 . S
C1157 H1169 0.930 . S
C1158 C1154 1.524 . S
C1158 H1170 0.956 . S
C1158 H1171 0.961 . S
C1158 H1172 0.961 . S
C1159 C1156 1.539 . S
C1159 H1173 0.958 . S
C1159 H1174 0.961 . S
C1159 H1175 0.960 . S
H1160 C1144 0.931 . S
H1161 C1149 0.929 . S
H1162 C1150 0.960 . S
H1163 C1150 0.962 . S
H1164 C1150 0.960 . S
H1165 C1151 0.961 . S
H1166 C1151 0.961 . S
H1167 C1151 0.961 . S
H1168 C1152 0.931 . S
H1169 C1157 0.930 . S
H1170 C1158 0.956 . S
H1171 C1158 0.961 . S
H1172 C1158 0.961 . S
H1173 C1159 0.958 . S
H1174 C1159 0.961 . S
H1175 C1159 0.960 . S
C1176 C1177 1.391 . S
C1176 C1178 1.394 . S
C1176 H1192 0.931 1_545 S
C1177 C1176 1.391 . S
C1177 C1181 1.376 . S
C1178 C1176 1.394 . S
C1178 C1179 1.369 . S
C1178 C1182 1.531 . S
C1179 C1178 1.369 . S
C1179 C1180 1.410 . S
C1179 C1187 1.503 . S
C1180 C1179 1.410 . S
C1180 C1181 1.392 . S
C1180 C1183 1.511 . S
C1181 C1177 1.376 . S
C1181 C1180 1.392 . S
C1181 H1193 0.929 . S
C1182 C1178 1.531 . S
C1182 H1194 0.960 . S
C1182 H1195 0.962 . S
C1182 H1196 0.960 1_545 S
C1183 C1180 1.511 . S
C1183 H1197 0.961 . S
C1183 H1198 0.961 . S
C1183 H1199 0.961 . S
C1184 C1185 1.370 . S
C1184 C1186 1.363 . S
C1184 H1200 0.931 . S
C1185 C1184 1.370 . S
C1185 C1189 1.408 . S
C1186 C1184 1.363 . S
C1186 C1187 1.370 . S
C1186 C1190 1.524 . S
C1187 C1179 1.503 . S
C1187 C1186 1.370 . S
C1187 C1188 1.403 . S
C1188 C1187 1.403 . S
C1188 C1189 1.404 . S
C1188 C1191 1.539 . S
C1189 C1185 1.408 . S
C1189 C1188 1.404 . S
C1189 H1201 0.930 . S
C1190 C1186 1.524 . S
C1190 H1202 0.956 . S
C1190 H1203 0.961 . S
C1190 H1204 0.961 . S
C1191 C1188 1.539 . S
C1191 H1205 0.958 . S
C1191 H1206 0.961 . S
C1191 H1207 0.960 . S
H1192 C1176 0.931 1_565 S
H1193 C1181 0.929 . S
H1194 C1182 0.960 . S
H1195 C1182 0.962 . S
H1196 C1182 0.960 1_565 S
H1197 C1183 0.961 . S
H1198 C1183 0.961 . S
H1199 C1183 0.961 . S
H1200 C1184 0.931 . S
H1201 C1189 0.930 . S
H1202 C1190 0.956 . S
H1203 C1190 0.961 . S
H1204 C1190 0.961 . S
H1205 C1191 0.958 . S
H1206 C1191 0.961 . S
H1207 C1191 0.960 . S
C1208 C1209 1.391 . S
C1208 C1210 1.394 . S
C1208 H1224 0.931 1_655 S
C1209 C1208 1.391 . S
C1209 C1213 1.376 . S
C1210 C1208 1.394 . S
C1210 C1211 1.369 . S
C1210 C1214 1.531 . S
C1211 C1210 1.369 . S
C1211 C1212 1.410 . S
C1211 C1219 1.503 . S
C1212 C1211 1.410 . S
C1212 C1213 1.392 . S
C1212 C1215 1.511 . S
C1213 C1209 1.376 . S
C1213 C1212 1.392 . S
C1213 H1225 0.929 . S
C1214 C1210 1.531 . S
C1214 H1226 0.960 . S
C1214 H1227 0.962 . S
C1214 H1228 0.960 1_655 S
C1215 C1212 1.511 . S
C1215 H1229 0.961 . S
C1215 H1230 0.961 . S
C1215 H1231 0.961 . S
C1216 C1217 1.370 . S
C1216 C1218 1.363 . S
C1216 H1232 0.931 . S
C1217 C1216 1.370 . S
C1217 C1221 1.408 . S
C1218 C1216 1.363 . S
C1218 C1219 1.370 . S
C1218 C1222 1.524 . S
C1219 C1211 1.503 . S
C1219 C1218 1.370 . S
C1219 C1220 1.403 . S
C1220 C1219 1.403 . S
C1220 C1221 1.404 . S
C1220 C1223 1.539 . S
C1221 C1217 1.408 . S
C1221 C1220 1.404 . S
C1221 H1233 0.930 . S
C1222 C1218 1.524 . S
C1222 H1234 0.956 . S
C1222 H1235 0.961 . S
C1222 H1236 0.961 . S
C1223 C1220 1.539 . S
C1223 H1237 0.958 . S
C1223 H1238 0.961 . S
C1223 H1239 0.960 . S
H1224 C1208 0.931 1_455 S
H1225 C1213 0.929 . S
H1226 C1214 0.960 . S
H1227 C1214 0.962 . S
H1228 C1214 0.960 1_455 S
H1229 C1215 0.961 . S
H1230 C1215 0.961 . S
H1231 C1215 0.961 . S
H1232 C1216 0.931 . S
H1233 C1221 0.930 . S
H1234 C1222 0.956 . S
H1235 C1222 0.961 . S
H1236 C1222 0.961 . S
H1237 C1223 0.958 . S
H1238 C1223 0.961 . S
H1239 C1223 0.960 . S
C1240 C1241 1.391 . S
C1240 C1242 1.394 . S
C1240 H1256 0.931 . S
C1241 C1240 1.391 . S
C1241 C1245 1.376 . S
C1242 C1240 1.394 . S
C1242 C1243 1.369 . S
C1242 C1246 1.531 . S
C1243 C1242 1.369 . S
C1243 C1244 1.410 . S
C1243 C1251 1.503 . S
C1244 C1243 1.410 . S
C1244 C1245 1.392 . S
C1244 C1247 1.511 . S
C1245 C1241 1.376 . S
C1245 C1244 1.392 . S
C1245 H1257 0.929 . S
C1246 C1242 1.531 . S
C1246 H1258 0.960 . S
C1246 H1259 0.962 . S
C1246 H1260 0.960 . S
C1247 C1244 1.511 . S
C1247 H1261 0.961 . S
C1247 H1262 0.961 . S
C1247 H1263 0.961 . S
C1248 C1249 1.370 . S
C1248 C1250 1.363 . S
C1248 H1264 0.931 . S
C1249 C1248 1.370 . S
C1249 C1253 1.408 . S
C1250 C1248 1.363 . S
C1250 C1251 1.370 . S
C1250 C1254 1.524 . S
C1251 C1243 1.503 . S
C1251 C1250 1.370 . S
C1251 C1252 1.403 . S
C1252 C1251 1.403 . S
C1252 C1253 1.404 . S
C1252 C1255 1.539 . S
C1253 C1249 1.408 . S
C1253 C1252 1.404 . S
C1253 H1265 0.930 . S
C1254 C1250 1.524 . S
C1254 H1266 0.956 . S
C1254 H1267 0.961 . S
C1254 H1268 0.961 . S
C1255 C1252 1.539 . S
C1255 H1269 0.958 . S
C1255 H1270 0.961 . S
C1255 H1271 0.960 . S
H1256 C1240 0.931 . S
H1257 C1245 0.929 . S
H1258 C1246 0.960 . S
H1259 C1246 0.962 . S
H1260 C1246 0.960 . S
H1261 C1247 0.961 . S
H1262 C1247 0.961 . S
H1263 C1247 0.961 . S
H1264 C1248 0.931 . S
H1265 C1253 0.930 . S
H1266 C1254 0.956 . S
H1267 C1254 0.961 . S
H1268 C1254 0.961 . S
H1269 C1255 0.958 . S
H1270 C1255 0.961 . S
H1271 C1255 0.960 . S
C249 C24 1.332 . S
C257 C49 1.299 . S
C281 C55 1.313 . S
C289 C80 1.310 . S
C313 C86 1.344 . S
C321 C111 1.319 . S
C345 C18 1.342 . S
C353 C117 1.332 . S
C377 C124 1.320 . S
C385 C166 1.301 . S
C409 C155 1.340 . S
C417 C197 1.324 . S
C441 C186 1.348 . S
C449 C228 1.298 . S
C473 C217 1.343 . S
C481 C135 1.323 . S
C505 C0 1.298 . S
C513 C148 1.332 . S
C537 C31 1.281 . S
C545 C179 1.341 . S
C569 C62 1.315 . S
C577 C210 1.325 . S
C601 C93 1.321 . S
C609 C241 1.323 . S
C633 C27 0.542 . S
C641 C89 0.574 . S
C665 C120 0.631 . S
C673 C58 0.593 . S
C697 C125 0.429 . S
C705 C187 0.525 . S
C729 C156 0.631 . S
C737 C218 0.590 . S
C761 C10 2.440 . S
C769 C33 2.123 . S
C793 C41 2.434 . S
C801 C64 2.134 . S
C825 C95 2.147 . S
C833 C72 2.437 . S
C857 C103 2.438 . S
C865 C2 2.127 . S
C889 C126 2.425 . S
C897 C165 2.153 . S
C921 C196 2.111 . S
C929 C157 2.441 . S
C953 C227 2.105 . S
C961 C188 2.441 . S
C985 C134 2.103 . S
C993 C219 2.440 . S
C1017 C11 1.502 . S
C1025 C182 1.564 . S
C1049 C42 1.476 1_565 S
C1057 C213 1.554 . S
C1081 C244 1.581 . S
C1089 C73 1.519 1_455 S
C1113 C151 1.512 . S
C1121 C104 1.521 . S
C1145 C32 1.522 . S
C1153 C142 1.535 . S
C1177 C173 1.475 1_545 S
C1185 C63 1.556 . S
C1209 C204 1.476 1_655 S
C1217 C94 1.559 . S
C1241 C1 1.581 . S
C1249 C235 1.515 . S
