# Generated by pormake.
# Topology utm, (3)-cn, num edge types: 1
# Building blocks:
#     Node 0, Type 0, BuildingBlock: WUSLED_clean_sbu_0, # of connection points: 3
#     Node 1, Type 0, BuildingBlock: WUSLED_clean_sbu_0, # of connection points: 3
#     Node 2, Type 0, BuildingBlock: WUSLED_clean_sbu_0, # of connection points: 3
#     Node 3, Type 0, BuildingBlock: WUSLED_clean_sbu_0, # of connection points: 3
#     Node 4, Type 0, BuildingBlock: WUSLED_clean_sbu_0, # of connection points: 3
#     Node 5, Type 0, BuildingBlock: WUSLED_clean_sbu_0, # of connection points: 3
#     Node 6, Type 0, BuildingBlock: WUSLED_clean_sbu_0, # of connection points: 3
#     Node 7, Type 0, BuildingBlock: WUSLED_clean_sbu_0, # of connection points: 3
#     Node 8, Type 0, BuildingBlock: WUSLED_clean_sbu_0, # of connection points: 3
#     Node 9, Type 0, BuildingBlock: WUSLED_clean_sbu_0, # of connection points: 3
#     Node 10, Type 0, BuildingBlock: WUSLED_clean_sbu_0, # of connection points: 3
#     Node 11, Type 0, BuildingBlock: WUSLED_clean_sbu_0, # of connection points: 3
#     Node 12, Type 0, BuildingBlock: WUSLED_clean_sbu_0, # of connection points: 3
#     Node 13, Type 0, BuildingBlock: WUSLED_clean_sbu_0, # of connection points: 3
#     Node 14, Type 0, BuildingBlock: WUSLED_clean_sbu_0, # of connection points: 3
#     Node 15, Type 0, BuildingBlock: WUSLED_clean_sbu_0, # of connection points: 3
#     Node 16, Type 0, BuildingBlock: WUSLED_clean_sbu_0, # of connection points: 3
#     Node 17, Type 0, BuildingBlock: WUSLED_clean_sbu_0, # of connection points: 3
#     Node 18, Type 0, BuildingBlock: WUSLED_clean_sbu_0, # of connection points: 3
#     Node 19, Type 0, BuildingBlock: WUSLED_clean_sbu_0, # of connection points: 3
#     Node 20, Type 0, BuildingBlock: WUSLED_clean_sbu_0, # of connection points: 3
#     Node 21, Type 0, BuildingBlock: WUSLED_clean_sbu_0, # of connection points: 3
#     Node 22, Type 0, BuildingBlock: WUSLED_clean_sbu_0, # of connection points: 3
#     Node 23, Type 0, BuildingBlock: WUSLED_clean_sbu_0, # of connection points: 3
#     Node 24, Type 0, BuildingBlock: WUSLED_clean_sbu_0, # of connection points: 3
#     Node 25, Type 0, BuildingBlock: WUSLED_clean_sbu_0, # of connection points: 3
#     Node 26, Type 0, BuildingBlock: WUSLED_clean_sbu_0, # of connection points: 3
#     Node 27, Type 0, BuildingBlock: WUSLED_clean_sbu_0, # of connection points: 3
#     Node 28, Type 0, BuildingBlock: WUSLED_clean_sbu_0, # of connection points: 3
#     Node 29, Type 0, BuildingBlock: WUSLED_clean_sbu_0, # of connection points: 3
#     Node 30, Type 0, BuildingBlock: WUSLED_clean_sbu_0, # of connection points: 3
#     Node 31, Type 0, BuildingBlock: WUSLED_clean_sbu_0, # of connection points: 3
#     Edge 32, Type (0, 0), BuildingBlock: EZIPEK_clean_linker_0, # of connection points: 2
#     Edge 33, Type (0, 0), BuildingBlock: EZIPEK_clean_linker_0, # of connection points: 2
#     Edge 34, Type (0, 0), BuildingBlock: EZIPEK_clean_linker_0, # of connection points: 2
#     Edge 35, Type (0, 0), BuildingBlock: EZIPEK_clean_linker_0, # of connection points: 2
#     Edge 36, Type (0, 0), BuildingBlock: EZIPEK_clean_linker_0, # of connection points: 2
#     Edge 37, Type (0, 0), BuildingBlock: EZIPEK_clean_linker_0, # of connection points: 2
#     Edge 38, Type (0, 0), BuildingBlock: EZIPEK_clean_linker_0, # of connection points: 2
#     Edge 39, Type (0, 0), BuildingBlock: EZIPEK_clean_linker_0, # of connection points: 2
#     Edge 40, Type (0, 0), BuildingBlock: EZIPEK_clean_linker_0, # of connection points: 2
#     Edge 41, Type (0, 0), BuildingBlock: EZIPEK_clean_linker_0, # of connection points: 2
#     Edge 42, Type (0, 0), BuildingBlock: EZIPEK_clean_linker_0, # of connection points: 2
#     Edge 43, Type (0, 0), BuildingBlock: EZIPEK_clean_linker_0, # of connection points: 2
#     Edge 44, Type (0, 0), BuildingBlock: EZIPEK_clean_linker_0, # of connection points: 2
#     Edge 45, Type (0, 0), BuildingBlock: EZIPEK_clean_linker_0, # of connection points: 2
#     Edge 46, Type (0, 0), BuildingBlock: EZIPEK_clean_linker_0, # of connection points: 2
#     Edge 47, Type (0, 0), BuildingBlock: EZIPEK_clean_linker_0, # of connection points: 2
#     Edge 48, Type (0, 0), BuildingBlock: EZIPEK_clean_linker_0, # of connection points: 2
#     Edge 49, Type (0, 0), BuildingBlock: EZIPEK_clean_linker_0, # of connection points: 2
#     Edge 50, Type (0, 0), BuildingBlock: EZIPEK_clean_linker_0, # of connection points: 2
#     Edge 51, Type (0, 0), BuildingBlock: EZIPEK_clean_linker_0, # of connection points: 2
#     Edge 52, Type (0, 0), BuildingBlock: EZIPEK_clean_linker_0, # of connection points: 2
#     Edge 53, Type (0, 0), BuildingBlock: EZIPEK_clean_linker_0, # of connection points: 2
#     Edge 54, Type (0, 0), BuildingBlock: EZIPEK_clean_linker_0, # of connection points: 2
#     Edge 55, Type (0, 0), BuildingBlock: EZIPEK_clean_linker_0, # of connection points: 2
#     Edge 56, Type (0, 0), BuildingBlock: EZIPEK_clean_linker_0, # of connection points: 2
#     Edge 57, Type (0, 0), BuildingBlock: EZIPEK_clean_linker_0, # of connection points: 2
#     Edge 58, Type (0, 0), BuildingBlock: EZIPEK_clean_linker_0, # of connection points: 2
#     Edge 59, Type (0, 0), BuildingBlock: EZIPEK_clean_linker_0, # of connection points: 2
#     Edge 60, Type (0, 0), BuildingBlock: EZIPEK_clean_linker_0, # of connection points: 2
#     Edge 61, Type (0, 0), BuildingBlock: EZIPEK_clean_linker_0, # of connection points: 2
#     Edge 62, Type (0, 0), BuildingBlock: EZIPEK_clean_linker_0, # of connection points: 2
#     Edge 63, Type (0, 0), BuildingBlock: EZIPEK_clean_linker_0, # of connection points: 2
#     Edge 64, Type (0, 0), BuildingBlock: EZIPEK_clean_linker_0, # of connection points: 2
#     Edge 65, Type (0, 0), BuildingBlock: EZIPEK_clean_linker_0, # of connection points: 2
#     Edge 66, Type (0, 0), BuildingBlock: EZIPEK_clean_linker_0, # of connection points: 2
#     Edge 67, Type (0, 0), BuildingBlock: EZIPEK_clean_linker_0, # of connection points: 2
#     Edge 68, Type (0, 0), BuildingBlock: EZIPEK_clean_linker_0, # of connection points: 2
#     Edge 69, Type (0, 0), BuildingBlock: EZIPEK_clean_linker_0, # of connection points: 2
#     Edge 70, Type (0, 0), BuildingBlock: EZIPEK_clean_linker_0, # of connection points: 2
#     Edge 71, Type (0, 0), BuildingBlock: EZIPEK_clean_linker_0, # of connection points: 2
#     Edge 72, Type (0, 0), BuildingBlock: EZIPEK_clean_linker_0, # of connection points: 2
#     Edge 73, Type (0, 0), BuildingBlock: EZIPEK_clean_linker_0, # of connection points: 2
#     Edge 74, Type (0, 0), BuildingBlock: EZIPEK_clean_linker_0, # of connection points: 2
#     Edge 75, Type (0, 0), BuildingBlock: EZIPEK_clean_linker_0, # of connection points: 2
#     Edge 76, Type (0, 0), BuildingBlock: EZIPEK_clean_linker_0, # of connection points: 2
#     Edge 77, Type (0, 0), BuildingBlock: EZIPEK_clean_linker_0, # of connection points: 2
#     Edge 78, Type (0, 0), BuildingBlock: EZIPEK_clean_linker_0, # of connection points: 2
#     Edge 79, Type (0, 0), BuildingBlock: EZIPEK_clean_linker_0, # of connection points: 2
# Relax obj value: 0.005
# Max RMSD: 0.010
# Mean RMSD: 0.010
data_MOF--net-utm--node1-WUSLED_clean_sbu_0--edge1-EZIPEK_clean_linker_0
_symmetry_space_group_name_H-M    P1
_symmetry_Int_Tables_number       1
_symmetry_cell_setting            triclinic
loop_
_symmetry_equiv_pos_as_xyz
'x, y, z'
_cell_length_a     82.964877
_cell_length_b     83.305738
_cell_length_c     64.547735
_cell_angle_alpha  89.882737
_cell_angle_beta   90.009088
_cell_angle_gamma 89.986802
loop_
_atom_site_label
_atom_site_type_symbol
_atom_site_fract_x
_atom_site_fract_y
_atom_site_fract_z
_atom_type_partial_charge
C0 C 0.17438 0.3251 0.16181 0.0
C1 C 0.17559 0.33747 0.14698 0.0
C2 C 0.14822 0.34638 0.15479 0.0
C3 C 0.16264 0.34803 0.14357 0.0
C4 C 0.14672 0.3336 0.16889 0.0
C5 C 0.15969 0.32309 0.17238 0.0
U6 U 0.21335 0.30022 0.15143 0.0
O7 O 0.23686 0.3016 0.16729 0.0
O8 O 0.223 0.27917 0.16816 0.0
C9 C 0.23604 0.2868 0.17427 0.0
C10 C 0.18861 0.31532 0.1681 0.0
C11 C 0.24201 0.28389 0.19564 0.0
C12 C 0.23828 0.27645 0.23194 0.0
C13 C 0.23177 0.28016 0.21236 0.0
C14 C 0.26522 0.28032 0.21839 0.0
C15 C 0.25509 0.27644 0.23504 0.0
C16 C 0.25874 0.284 0.19894 0.0
C17 C 0.22688 0.29475 0.09383 0.0
C18 C 0.25221 0.28376 0.08097 0.0
C19 C 0.2333 0.29595 0.05707 0.0
C20 C 0.22272 0.29896 0.07346 0.0
C21 C 0.24823 0.2886 0.06069 0.0
C22 C 0.24162 0.28689 0.0975 0.0
C23 C 0.21602 0.29982 0.11074 0.0
O24 O 0.18839 0.29992 0.16363 0.0
O25 O 0.20285 0.3219 0.16532 0.0
O26 O 0.22122 0.31164 0.1224 0.0
O27 O 0.20864 0.28851 0.12134 0.0
H28 H 0.18671 0.33933 0.13853 0.0
H29 H 0.16404 0.35779 0.13261 0.0
H30 H 0.13573 0.33211 0.17773 0.0
H31 H 0.15843 0.31371 0.18392 0.0
H32 H 0.23026 0.27348 0.24462 0.0
H33 H 0.21882 0.27992 0.21024 0.0
H34 H 0.27818 0.28034 0.22042 0.0
H35 H 0.26689 0.28671 0.18628 0.0
H36 H 0.26373 0.27812 0.08407 0.0
H37 H 0.23002 0.2998 0.04158 0.0
H38 H 0.21144 0.30504 0.07031 0.0
H39 H 0.24508 0.28359 0.11312 0.0
C40 C 0.95958 0.92235 0.41091 0.0
C41 C 0.94662 0.92358 0.39689 0.0
C42 C 0.93851 0.89597 0.40432 0.0
C43 C 0.93619 0.91053 0.39368 0.0
C44 C 0.95183 0.89449 0.41763 0.0
C45 C 0.96223 0.90755 0.4209 0.0
U46 U 0.98471 0.96152 0.40152 0.0
O47 O 0.98301 0.98463 0.41804 0.0
O48 O 1.00553 0.97082 0.41912 0.0
C49 C 0.99773 0.98366 0.42546 0.0
C50 C 0.96925 0.93662 0.41724 0.0
C51 C 1.00032 0.98931 0.44706 0.0
C52 C 1.0117 0.98642 0.4818 0.0
C53 C 1.00783 0.97982 0.46237 0.0
C54 C 1.00045 1.01192 0.47107 0.0
C55 C 1.00818 1.00259 0.48619 0.0
C56 C 0.99659 1.00536 0.45175 0.0
C57 C 0.99195 0.97649 0.34473 0.0
C58 C 0.99084 1.00263 0.3276 0.0
C59 C 1.00274 0.97999 0.30983 0.0
C60 C 0.99981 0.97028 0.32719 0.0
C61 C 0.99786 0.99612 0.30968 0.0
C62 C 0.98791 0.99292 0.345 0.0
C63 C 0.98623 0.9652 0.361 0.0
O64 O 0.98479 0.93647 0.41318 0.0
O65 O 0.96264 0.95079 0.41434 0.0
O66 O 0.97395 0.96989 0.37235 0.0
O67 O 0.99718 0.95731 0.37168 0.0
H68 H 0.94422 0.93478 0.38892 0.0
H69 H 0.926 0.91193 0.38333 0.0
H70 H 0.95385 0.8834 0.42603 0.0
H71 H 0.97203 0.90627 0.43187 0.0
H72 H 1.01766 0.97901 0.49329 0.0
H73 H 1.01099 0.96746 0.45921 0.0
H74 H 0.99766 0.0244 0.47412 0.0
H75 H 0.99101 1.01301 0.4402 0.0
H76 H 0.98696 1.01505 0.32777 0.0
H77 H 1.00813 0.97473 0.29615 0.0
H78 H 1.00298 0.95767 0.32653 0.0
H79 H 0.98185 0.99809 0.35826 0.0
C80 C 0.36217 0.70617 0.6636 0.0
C81 C 0.3706 0.70761 0.64475 0.0
C82 C 0.38864 0.68562 0.65479 0.0
C83 C 0.38376 0.69742 0.6404 0.0
C84 C 0.38026 0.68436 0.67361 0.0
C85 C 0.36721 0.6945 0.67793 0.0
U86 U 0.3239 0.73248 0.65242 0.0
O87 O 0.30043 0.73176 0.6685 0.0
O88 O 0.31503 0.75371 0.66947 0.0
C89 C 0.30175 0.74647 0.67559 0.0
C90 C 0.34818 0.71652 0.66912 0.0
C91 C 0.29574 0.7495 0.69696 0.0
C92 C 0.29924 0.75769 0.73303 0.0
C93 C 0.30586 0.75385 0.71355 0.0
C94 C 0.27244 0.75281 0.71968 0.0
C95 C 0.28244 0.75727 0.7362 0.0
C96 C 0.27901 0.74898 0.70033 0.0
C97 C 0.31022 0.73837 0.59468 0.0
C98 C 0.28488 0.7492 0.58147 0.0
C99 C 0.30421 0.73754 0.55776 0.0
C100 C 0.31465 0.73448 0.57432 0.0
C101 C 0.28912 0.74464 0.56119 0.0
C102 C 0.29534 0.746 0.59817 0.0
C103 C 0.32092 0.73306 0.61173 0.0
O104 O 0.34889 0.73185 0.66425 0.0
O105 O 0.33381 0.71031 0.66616 0.0
O106 O 0.31542 0.72141 0.6235 0.0
O107 O 0.32868 0.74415 0.62222 0.0
H108 H 0.367 0.7165 0.6334 0.0
H109 H 0.39003 0.69862 0.62577 0.0
H110 H 0.38375 0.6754 0.68493 0.0
H111 H 0.36096 0.69317 0.69258 0.0
H112 H 0.30719 0.7611 0.74559 0.0
H113 H 0.31879 0.75445 0.7114 0.0
H114 H 0.25948 0.75244 0.72172 0.0
H115 H 0.27093 0.74583 0.68779 0.0
H116 H 0.27326 0.75466 0.58444 0.0
H117 H 0.30771 0.73391 0.54229 0.0
H118 H 0.32604 0.72857 0.57128 0.0
H119 H 0.29165 0.74906 0.61377 0.0
C120 C 0.5795 0.10948 0.91387 0.0
C121 C 0.57805 0.1178 0.89494 0.0
C122 C 0.59975 0.13612 0.90503 0.0
C123 C 0.58808 0.13104 0.89058 0.0
C124 C 0.60101 0.12787 0.92394 0.0
C125 C 0.59102 0.11474 0.92829 0.0
U126 U 0.55474 0.07054 0.90222 0.0
O127 O 0.55572 0.0475 0.91904 0.0
O128 O 0.53306 0.06099 0.91785 0.0
C129 C 0.54056 0.04816 0.92482 0.0
C130 C 0.56938 0.09534 0.91933 0.0
C131 C 0.53674 0.04274 0.94616 0.0
C132 C 0.53841 0.04494 0.98375 0.0
C133 C 0.54242 0.05062 0.96384 0.0
C134 C 0.52377 0.02304 0.96853 0.0
C135 C 0.52777 0.0317 0.9867 0.0
C136 C 0.52779 0.02867 0.94874 0.0
C137 C 0.55066 0.05602 0.84477 0.0
C138 C 0.53125 0.03922 0.82634 0.0
C139 C 0.55797 0.04324 0.81219 0.0
C140 C 0.56192 0.05299 0.82903 0.0
C141 C 0.54264 0.03626 0.81064 0.0
C142 C 0.53524 0.04901 0.84335 0.0
C143 C 0.55537 0.06716 0.86164 0.0
O144 O 0.55413 0.09551 0.91371 0.0
O145 O 0.57617 0.08121 0.91698 0.0
O146 O 0.56702 0.06228 0.87391 0.0
O147 O 0.54387 0.07488 0.8715 0.0
H148 H 0.56928 0.11401 0.88352 0.0
H149 H 0.58689 0.13721 0.87588 0.0
H150 H 0.60989 0.13153 0.93531 0.0
H151 H 0.59236 0.10858 0.94299 0.0
H152 H 0.5443 0.05099 0.99629 0.0
H153 H 0.55016 0.06102 0.96227 0.0
H154 H 0.51747 1.0117 0.96937 0.0
H155 H 0.52394 0.02185 0.93533 0.0
H156 H 0.51932 0.03399 0.8254 0.0
H157 H 0.56691 0.04118 0.80024 0.0
H158 H 0.57381 0.05836 0.82965 0.0
H159 H 0.52628 0.05118 0.85522 0.0
C160 C 0.17437 0.70789 0.3864 0.0
C161 C 0.17587 0.69512 0.40061 0.0
C162 C 0.14828 0.68649 0.39344 0.0
C163 C 0.16296 0.68451 0.40404 0.0
C164 C 0.14654 0.69962 0.37994 0.0
C165 C 0.15946 0.71018 0.37644 0.0
U166 U 0.21339 0.73319 0.396 0.0
O167 O 0.23622 0.7327 0.37861 0.0
O168 O 0.22206 0.75493 0.37968 0.0
C169 C 0.23504 0.74774 0.37261 0.0
C170 C 0.18846 0.71787 0.38005 0.0
C171 C 0.24044 0.75167 0.35128 0.0
C172 C 0.24297 0.74575 0.31439 0.0
C173 C 0.23615 0.74243 0.33391 0.0
C174 C 0.25815 0.7677 0.32929 0.0
C175 C 0.25421 0.7583 0.31201 0.0
C176 C 0.25133 0.76442 0.34868 0.0
C177 C 0.2284 0.73922 0.45304 0.0
C178 C 0.255 0.73996 0.46921 0.0
C179 C 0.23154 0.74827 0.48874 0.0
C180 C 0.22177 0.7453 0.47146 0.0
C181 C 0.24817 0.74521 0.48794 0.0
C182 C 0.24521 0.73698 0.45188 0.0
C183 C 0.21731 0.73354 0.43653 0.0
O184 O 0.18815 0.73322 0.38478 0.0
O185 O 0.20283 0.71143 0.38233 0.0
O186 O 0.22252 0.72192 0.42451 0.0
O187 O 0.20891 0.74445 0.42649 0.0
H188 H 0.18717 0.69301 0.40857 0.0
H189 H 0.16457 0.67448 0.41454 0.0
H190 H 0.13536 0.70137 0.37157 0.0
H191 H 0.15797 0.71985 0.36536 0.0
H192 H 0.23974 0.73837 0.30124 0.0
H193 H 0.22782 0.73249 0.33553 0.0
H194 H 0.26677 0.7774 0.32784 0.0
H195 H 0.25491 0.77163 0.36184 0.0
H196 H 0.2678 0.73749 0.4683 0.0
H197 H 0.22603 0.75226 0.50304 0.0
H198 H 0.20888 0.74706 0.4728 0.0
H199 H 0.25068 0.73233 0.43789 0.0
C200 C 0.57915 0.92314 0.6344 0.0
C201 C 0.57876 0.91563 0.65396 0.0
C202 C 0.5998 0.89677 0.64317 0.0
C203 C 0.58898 0.90252 0.65828 0.0
C204 C 0.59997 0.90419 0.62363 0.0
C205 C 0.58978 0.9172 0.61932 0.0
U206 U 0.55433 0.96199 0.64636 0.0
O207 O 0.55522 0.98511 0.62973 0.0
O208 O 0.5326 0.97154 0.63081 0.0
C209 C 0.54004 0.98445 0.62401 0.0
C210 C 0.56897 0.93726 0.62906 0.0
C211 C 0.53616 0.99011 0.60279 0.0
C212 C 0.53752 0.98823 0.56516 0.0
C213 C 0.54144 0.98221 0.58494 0.0
C214 C 0.52377 1.01049 0.58088 0.0
C215 C 0.52733 1.00186 0.56253 0.0
C216 C 0.52769 1.00452 0.60053 0.0
C217 C 0.55048 0.97657 0.70373 0.0
C218 C 0.53129 0.9939 0.72171 0.0
C219 C 0.55774 0.98923 0.7364 0.0
C220 C 0.56162 0.97933 0.71968 0.0
C221 C 0.54257 0.99661 0.73762 0.0
C222 C 0.53523 0.98398 0.70481 0.0
C223 C 0.55513 0.96536 0.68693 0.0
O224 O 0.55375 0.93703 0.63482 0.0
O225 O 0.57571 0.95139 0.63142 0.0
O226 O 0.56675 0.9702 0.67458 0.0
O227 O 0.5436 0.95763 0.67715 0.0
H228 H 0.57069 0.91997 0.6659 0.0
H229 H 0.58862 0.89699 0.67348 0.0
H230 H 0.60817 0.90003 0.61174 0.0
H231 H 0.59031 0.92274 0.60414 0.0
H232 H 0.54317 0.98216 0.55244 0.0
H233 H 0.54885 0.97154 0.58626 0.0
H234 H 0.51798 0.02211 0.58031 0.0
H235 H 0.52421 1.01135 0.61409 0.0
H236 H 0.51949 0.99944 0.7224 0.0
H237 H 0.56658 0.99108 0.74852 0.0
H238 H 0.57338 0.97368 0.7193 0.0
H239 H 0.52637 0.98203 0.69276 0.0
C240 C 0.36239 0.3269 0.88507 0.0
C241 C 0.37084 0.32561 0.90392 0.0
C242 C 0.38865 0.34765 0.89367 0.0
C243 C 0.3839 0.33589 0.90816 0.0
C244 C 0.38023 0.34882 0.87487 0.0
C245 C 0.36727 0.33857 0.87064 0.0
U246 U 0.32452 0.30043 0.89674 0.0
O247 O 0.30138 0.30024 0.88008 0.0
O248 O 0.31626 0.27848 0.88075 0.0
C249 C 0.30299 0.28531 0.87392 0.0
C250 C 0.3486 0.31635 0.87965 0.0
C251 C 0.29786 0.28167 0.85247 0.0
C252 C 0.2978 0.28677 0.81525 0.0
C253 C 0.30412 0.28976 0.83511 0.0
C254 C 0.27918 0.26746 0.8299 0.0
C255 C 0.2851 0.27574 0.81256 0.0
C256 C 0.2855 0.27039 0.84962 0.0
C257 C 0.30991 0.29439 0.9537 0.0
C258 C 0.28316 0.29302 0.96932 0.0
C259 C 0.3066 0.28548 0.98946 0.0
C260 C 0.3165 0.28861 0.97233 0.0
C261 C 0.28992 0.2881 0.98827 0.0
C262 C 0.29307 0.29612 0.95215 0.0
C263 C 0.32099 0.30026 0.9373 0.0
O264 O 0.3495 0.30113 0.885 0.0
O265 O 0.33415 0.32246 0.88233 0.0
O266 O 0.31555 0.31176 0.9252 0.0
O267 O 0.32957 0.28949 0.92733 0.0
H268 H 0.36733 0.31672 0.91532 0.0
H269 H 0.39021 0.33479 0.92278 0.0
H270 H 0.38364 0.35777 0.8635 0.0
H271 H 0.36099 0.33978 0.856 0.0
H272 H 0.30258 0.29324 0.80204 0.0
H273 H 0.31363 0.29854 0.83696 0.0
H274 H 0.26944 0.2589 0.8282 0.0
H275 H 0.28046 0.26406 0.86279 0.0
H276 H 0.27031 0.29514 0.96812 0.0
H277 H 0.31205 0.28174 1.00394 0.0
H278 H 0.32942 0.28721 0.97395 0.0
H279 H 0.28763 0.30052 0.93797 0.0
C280 C 0.95879 0.11018 0.13396 0.0
C281 C 0.96 0.11842 0.15293 0.0
C282 C 0.93795 0.13634 0.14279 0.0
C283 C 0.94967 0.13142 0.15728 0.0
C284 C 0.93689 0.12815 0.12386 0.0
C285 C 0.94718 0.11525 0.11952 0.0
U286 U 0.98492 0.07206 0.14542 0.0
O287 O 0.98505 0.04917 0.1285 0.0
O288 O 1.0071 0.06368 0.12968 0.0
C289 C 1.00009 0.0507 0.12241 0.0
C290 C 0.96935 0.0964 0.12845 0.0
C291 C 1.00393 0.04576 0.10085 0.0
C292 C 0.99594 0.03973 0.06528 0.0
C293 C 0.99258 0.04664 0.08468 0.0
C294 C 0.02218 0.03143 0.07769 0.0
C295 C 1.01068 0.03183 0.06177 0.0
C296 C 0.01884 0.03832 0.09701 0.0
C297 C 0.98949 0.05779 0.20302 0.0
C298 C 1.00145 0.03302 0.21612 0.0
C299 C 0.98808 0.05123 0.23975 0.0
C300 C 0.98482 0.06167 0.22328 0.0
C301 C 0.99617 0.0367 0.23631 0.0
C302 C 0.99804 0.04347 0.19952 0.0
C303 C 0.9843 0.06856 0.18603 0.0
O304 O 0.98458 0.09708 0.13404 0.0
O305 O 0.96307 0.08204 0.13077 0.0
O306 O 0.97309 0.06298 0.17362 0.0
O307 O 0.99554 0.0767 0.17622 0.0
H308 H 0.96884 0.11478 0.16436 0.0
H309 H 0.95071 0.13755 0.17201 0.0
H310 H 0.92797 0.13168 0.11247 0.0
H311 H 0.94603 0.10915 0.10479 0.0
H312 H 0.98691 0.0402 0.05318 0.0
H313 H 0.98097 0.05225 0.0872 0.0
H314 H 0.03361 0.0254 0.07532 0.0
H315 H 0.02774 0.03735 0.10924 0.0
H316 H 1.00769 0.02184 0.21315 0.0
H317 H 0.98393 0.05431 0.25515 0.0
H318 H 0.97822 0.07265 0.22632 0.0
H319 H 1.00174 0.04023 0.18399 0.0
C320 C 0.86738 0.7127 0.88861 0.0
C321 C 0.86712 0.70146 0.90493 0.0
C322 C 0.89358 0.69124 0.89469 0.0
C323 C 0.8801 0.69083 0.90793 0.0
C324 C 0.89412 0.7029 0.87897 0.0
C325 C 0.88117 0.7135 0.87598 0.0
U326 U 0.82777 0.73707 0.89928 0.0
O327 O 0.81858 0.75871 0.8832 0.0
O328 O 0.80499 0.73615 0.8818 0.0
C329 C 0.80585 0.75123 0.87588 0.0
C330 C 0.853 0.72248 0.88292 0.0
C331 C 0.8006 0.75508 0.85444 0.0
C332 C 0.79774 0.74867 0.81772 0.0
C333 C 0.80452 0.74543 0.8373 0.0
C334 C 0.78333 0.77133 0.83209 0.0
C335 C 0.7869 0.76152 0.81506 0.0
C336 C 0.79013 0.76815 0.85153 0.0
C337 C 0.8127 0.74189 0.95646 0.0
C338 C 0.78751 0.75371 0.96865 0.0
C339 C 0.80534 0.74044 0.99295 0.0
C340 C 0.81616 0.73722 0.97688 0.0
C341 C 0.79081 0.74848 0.98898 0.0
C342 C 0.79837 0.7504 0.95245 0.0
C343 C 0.82392 0.73685 0.93985 0.0
O344 O 0.83884 0.71565 0.88536 0.0
O345 O 0.85301 0.73774 0.88808 0.0
O346 O 0.83179 0.74818 0.9299 0.0
O347 O 0.81888 0.7253 0.92764 0.0
H348 H 0.85666 0.70054 0.91492 0.0
H349 H 0.87942 0.68193 0.92015 0.0
H350 H 0.90434 0.70343 0.86855 0.0
H351 H 0.88167 0.72198 0.86325 0.0
H352 H 0.80066 0.74095 0.80476 0.0
H353 H 0.8125 0.73524 0.83914 0.0
H354 H 0.77502 0.78128 0.83041 0.0
H355 H 0.78684 0.7757 0.86452 0.0
H356 H 0.77631 0.75986 0.96525 0.0
H357 H 0.80809 0.73624 1.00845 0.0
H358 H 0.82712 0.73065 0.98032 0.0
H359 H 0.79544 0.75411 0.9368 0.0
C360 C 0.07062 0.11402 0.63929 0.0
C361 C 0.08119 0.11401 0.65636 0.0
C362 C 0.09137 0.14043 0.64646 0.0
C363 C 0.09148 0.12713 0.6599 0.0
C364 C 0.08029 0.14074 0.63001 0.0
C365 C 0.07002 0.12767 0.62649 0.0
U366 U 0.048 0.07368 0.64929 0.0
O367 O 0.02738 0.0632 0.63246 0.0
O368 O 0.05074 0.05083 0.63248 0.0
C369 C 0.03583 0.05093 0.62563 0.0
C370 C 0.06151 0.09946 0.63308 0.0
C371 C 0.03321 0.04546 0.604 0.0
C372 C 0.02254 0.04888 0.569 0.0
C373 C 0.02627 0.05526 0.5886 0.0
C374 C 0.03286 0.02301 0.57979 0.0
C375 C 0.02567 0.03264 0.56456 0.0
C376 C 0.03658 0.02934 0.59927 0.0
C377 C 0.04378 0.05748 0.70595 0.0
C378 C 0.02429 0.04401 0.72848 0.0
C379 C 0.05286 0.04007 0.73406 0.0
C380 C 0.05626 0.05021 0.71735 0.0
C381 C 0.03688 0.03697 0.73991 0.0
C382 C 0.0277 0.05418 0.71162 0.0
C383 C 0.04805 0.06952 0.68977 0.0
O384 O 0.06899 0.08568 0.63546 0.0
O385 O 0.04615 0.09877 0.63806 0.0
O386 O 0.0363 0.07679 0.67977 0.0
O387 O 0.0603 0.06588 0.67776 0.0
H388 H 0.08192 0.10365 0.66647 0.0
H389 H 0.09998 0.12663 0.67263 0.0
H390 H 0.08004 0.15085 0.61943 0.0
H391 H 0.06203 0.12795 0.61321 0.0
H392 H 1.01698 0.05651 0.55742 0.0
H393 H 0.02345 0.0677 0.59181 0.0
H394 H 0.03534 1.01047 0.57672 0.0
H395 H 0.04177 0.02149 0.6109 0.0
H396 H 1.01186 0.04186 0.73284 0.0
H397 H 0.06274 0.03486 0.74274 0.0
H398 H 0.06875 0.05269 0.71364 0.0
H399 H 1.01778 0.05971 0.70335 0.0
C400 C 0.67214 0.32289 0.38735 0.0
C401 C 0.66187 0.32043 0.40444 0.0
C402 C 0.64548 0.34363 0.39432 0.0
C403 C 0.64863 0.33071 0.40787 0.0
C404 C 0.65572 0.34598 0.3773 0.0
C405 C 0.66886 0.33575 0.37386 0.0
U406 U 0.71016 0.29612 0.3992 0.0
O407 O 0.71839 0.27449 0.38235 0.0
O408 O 0.7334 0.29616 0.38275 0.0
C409 C 0.73164 0.28149 0.37569 0.0
C410 C 0.68597 0.31215 0.3824 0.0
C411 C 0.73714 0.27851 0.35405 0.0
C412 C 0.73441 0.26631 0.31973 0.0
C413 C 0.72787 0.27014 0.33928 0.0
C414 C 0.75939 0.27926 0.32936 0.0
C415 C 0.75028 0.27086 0.31463 0.0
C416 C 0.75295 0.28298 0.34877 0.0
C417 C 0.72502 0.29103 0.45651 0.0
C418 C 0.75041 0.27968 0.46885 0.0
C419 C 0.7322 0.29244 0.49307 0.0
C420 C 0.72136 0.2955 0.47693 0.0
C421 C 0.74692 0.28475 0.48917 0.0
C422 C 0.73954 0.28286 0.45258 0.0
C423 C 0.71393 0.29624 0.4398 0.0
O424 O 0.70046 0.31819 0.38494 0.0
O425 O 0.68503 0.29696 0.38789 0.0
O426 O 0.70578 0.28509 0.42989 0.0
O427 O 0.71929 0.30763 0.42751 0.0
H428 H 0.66404 0.3106 0.41508 0.0
H429 H 0.6409 0.32867 0.42114 0.0
H430 H 0.65356 0.35581 0.36664 0.0
H431 H 0.67648 0.33786 0.3605 0.0
H432 H 0.72716 0.25977 0.30864 0.0
H433 H 0.71571 0.26635 0.34291 0.0
H434 H 0.77166 0.28281 0.32589 0.0
H435 H 0.7605 0.28914 0.35991 0.0
H436 H 0.76176 0.27381 0.4655 0.0
H437 H 0.7293 0.29651 0.50856 0.0
H438 H 0.71028 0.30186 0.48031 0.0
H439 H 0.74265 0.27935 0.43693 0.0
C440 C 0.46465 0.9178 0.13894 0.0
C441 C 0.45337 0.91807 0.15524 0.0
C442 C 0.44309 0.89173 0.14504 0.0
C443 C 0.4427 0.90514 0.15825 0.0
C444 C 0.45479 0.89119 0.12933 0.0
C445 C 0.46544 0.90408 0.12634 0.0
U446 U 0.48934 0.95722 0.14921 0.0
O447 O 0.51036 0.96654 0.13187 0.0
O448 O 0.48776 0.98022 0.13243 0.0
C449 C 0.50253 0.97928 0.12519 0.0
C450 C 0.4744 0.93215 0.13317 0.0
C451 C 0.50517 0.98489 0.1035 0.0
C452 C 0.51802 0.98302 0.06942 0.0
C453 C 0.51431 0.97622 0.08888 0.0
C454 C 0.50341 1.00705 0.07883 0.0
C455 C 0.51269 0.99858 0.06435 0.0
C456 C 0.49973 1.00032 0.09811 0.0
C457 C 0.49444 0.9724 0.20632 0.0
C458 C 0.50734 0.99692 0.21868 0.0
C459 C 0.49136 0.98082 0.24223 0.0
C460 C 0.4883 0.96987 0.22632 0.0
C461 C 0.5007 0.99455 0.23854 0.0
C462 C 0.50417 0.98594 0.20261 0.0
C463 C 0.48964 0.96106 0.18978 0.0
O464 O 0.4676 0.94624 0.13583 0.0
O465 O 0.48981 0.93209 0.13799 0.0
O466 O 0.50112 0.95359 0.17959 0.0
O467 O 0.47771 0.9657 0.17782 0.0
H468 H 0.45245 0.92848 0.1652 0.0
H469 H 0.43377 0.90583 0.17046 0.0
H470 H 0.45531 0.88101 0.11893 0.0
H471 H 0.47394 0.90358 0.11361 0.0
H472 H 0.52521 0.97626 0.05847 0.0
H473 H 0.51885 0.96437 0.09259 0.0
H474 H 0.49922 0.01907 0.0753 0.0
H475 H 0.49292 1.00741 0.10911 0.0
H476 H 0.51455 1.00748 0.2155 0.0
H477 H 0.4861 0.97877 0.25737 0.0
H478 H 0.48076 0.95953 0.22953 0.0
H479 H 0.50901 0.98817 0.18729 0.0
C480 C 0.86552 0.32333 0.66123 0.0
C481 C 0.87586 0.32069 0.64425 0.0
C482 C 0.89222 0.34397 0.65399 0.0
C483 C 0.88912 0.33093 0.64069 0.0
C484 C 0.88191 0.3465 0.67089 0.0
C485 C 0.86876 0.33632 0.67445 0.0
U486 U 0.82729 0.29666 0.65007 0.0
O487 O 0.81926 0.27474 0.66657 0.0
O488 O 0.80449 0.29658 0.66747 0.0
C489 C 0.80614 0.28164 0.67371 0.0
C490 C 0.85169 0.31263 0.66637 0.0
C491 C 0.80106 0.27785 0.69522 0.0
C492 C 0.7968 0.2852 0.73141 0.0
C493 C 0.80368 0.28839 0.7119 0.0
C494 C 0.78496 0.2608 0.71797 0.0
C495 C 0.78716 0.2715 0.73447 0.0
C496 C 0.79185 0.26394 0.69858 0.0
C497 C 0.81147 0.29035 0.59364 0.0
C498 C 0.78426 0.2883 0.57943 0.0
C499 C 0.80724 0.28206 0.55781 0.0
C500 C 0.8176 0.28519 0.57449 0.0
C501 C 0.79052 0.28404 0.55996 0.0
C502 C 0.79464 0.29142 0.59616 0.0
C503 C 0.8229 0.29629 0.60962 0.0
O504 O 0.8372 0.31872 0.66401 0.0
O505 O 0.85254 0.29743 0.66095 0.0
O506 O 0.83168 0.28556 0.61945 0.0
O507 O 0.81772 0.30785 0.62176 0.0
H508 H 0.87373 0.31075 0.63382 0.0
H509 H 0.89691 0.32875 0.62752 0.0
H510 H 0.88404 0.35643 0.68135 0.0
H511 H 0.86109 0.33856 0.68772 0.0
H512 H 0.79866 0.29361 0.74397 0.0
H513 H 0.81067 0.29924 0.7097 0.0
H514 H 0.77758 0.25018 0.71998 0.0
H515 H 0.78955 0.25571 0.68594 0.0
H516 H 0.7714 0.28993 0.58141 0.0
H517 H 0.81233 0.27884 0.54294 0.0
H518 H 0.8305 0.2843 0.57212 0.0
H519 H 0.78955 0.29533 0.61075 0.0
C520 C 0.4644 0.11466 0.409 0.0
C521 C 0.45298 0.11441 0.39286 0.0
C522 C 0.44298 0.14086 0.40308 0.0
C523 C 0.44237 0.12741 0.38994 0.0
C524 C 0.4548 0.14136 0.41864 0.0
C525 C 0.46538 0.1284 0.42155 0.0
U526 U 0.48943 0.07529 0.39901 0.0
O527 O 0.51058 0.06652 0.41657 0.0
O528 O 0.48821 0.05246 0.41623 0.0
C529 C 0.50298 0.0537 0.42342 0.0
C530 C 0.47418 0.10032 0.41467 0.0
C531 C 0.50577 0.04828 0.44512 0.0
C532 C 0.51801 0.05091 0.47948 0.0
C533 C 0.51419 0.05747 0.45992 0.0
C534 C 0.5049 0.0261 0.46981 0.0
C535 C 0.51341 0.03511 0.48453 0.0
C536 C 0.50118 0.03256 0.4504 0.0
C537 C 0.49584 0.05902 0.34277 0.0
C538 C 0.49566 0.03208 0.32789 0.0
C539 C 0.50552 0.05445 0.30756 0.0
C540 C 0.50262 0.06481 0.32425 0.0
C541 C 0.50165 0.03808 0.30903 0.0
C542 C 0.49279 0.04245 0.34464 0.0
C543 C 0.49029 0.07075 0.35861 0.0
O544 O 0.46747 0.08618 0.41194 0.0
O545 O 0.48961 0.10048 0.40998 0.0
O546 O 0.50135 0.07895 0.36865 0.0
O547 O 0.47822 0.06628 0.37048 0.0
H548 H 0.45191 0.10399 0.38296 0.0
H549 H 0.43335 0.12677 0.37785 0.0
H550 H 0.45548 0.15156 0.42899 0.0
H551 H 0.47399 0.12888 0.43415 0.0
H552 H 0.52461 0.05809 0.49058 0.0
H553 H 0.51807 0.06956 0.45627 0.0
H554 H 0.5013 1.01388 0.47327 0.0
H555 H 0.49497 0.02508 0.43924 0.0
H556 H 0.49259 0.01949 0.32936 0.0
H557 H 0.51012 0.05934 0.29316 0.0
H558 H 0.50502 0.07751 0.32235 0.0
H559 H 0.48759 0.0376 0.35871 0.0
C560 C 0.67198 0.70927 0.16013 0.0
C561 C 0.6613 0.71236 0.1436 0.0
C562 C 0.64511 0.68881 0.15292 0.0
C563 C 0.64797 0.7022 0.14004 0.0
C564 C 0.65575 0.68584 0.16937 0.0
C565 C 0.66897 0.69593 0.17292 0.0
U566 U 0.71027 0.7362 0.14944 0.0
O567 O 0.7187 0.75725 0.16724 0.0
O568 O 0.73349 0.73542 0.16607 0.0
C569 C 0.73207 0.7501 0.17322 0.0
C570 C 0.68592 0.71985 0.16535 0.0
C571 C 0.73825 0.75322 0.19443 0.0
C572 C 0.73495 0.758 0.23152 0.0
C573 C 0.72826 0.75439 0.21199 0.0
C574 C 0.76153 0.75928 0.21616 0.0
C575 C 0.75167 0.76049 0.23371 0.0
C576 C 0.7549 0.75569 0.19679 0.0
C577 C 0.72598 0.74374 0.09318 0.0
C578 C 0.75326 0.74537 0.07909 0.0
C579 C 0.73046 0.75233 0.05747 0.0
C580 C 0.72 0.74925 0.07408 0.0
C581 C 0.74713 0.74995 0.05964 0.0
C582 C 0.74278 0.7423 0.09574 0.0
C583 C 0.71441 0.7377 0.10897 0.0
O584 O 0.70037 0.71379 0.16253 0.0
O585 O 0.68506 0.73519 0.16055 0.0
O586 O 0.70597 0.74835 0.11936 0.0
O587 O 0.71931 0.72565 0.12053 0.0
H588 H 0.66323 0.72258 0.13351 0.0
H589 H 0.63994 0.70473 0.12722 0.0
H590 H 0.65382 0.67564 0.17951 0.0
H591 H 0.67689 0.69333 0.18586 0.0
H592 H 0.72712 0.75887 0.2449 0.0
H593 H 0.71538 0.7526 0.2106 0.0
H594 H 0.77441 0.76118 0.21746 0.0
H595 H 0.76283 0.75497 0.18348 0.0
H596 H 0.76607 0.74343 0.08108 0.0
H597 H 0.72547 0.75579 0.04261 0.0
H598 H 0.70713 0.75043 0.07167 0.0
H599 H 0.74776 0.73811 0.11029 0.0
C600 C 0.07503 0.91942 0.91224 0.0
C601 C 0.07236 0.90925 0.89516 0.0
C602 C 0.0957 0.89284 0.9048 0.0
C603 C 0.08261 0.89605 0.8915 0.0
C604 C 0.09825 0.90296 0.92182 0.0
C605 C 0.08805 0.91606 0.92549 0.0
U606 U 0.04904 0.95782 0.90054 0.0
O607 O 0.02695 0.96635 0.91634 0.0
O608 O 0.04915 0.98061 0.91767 0.0
C609 C 0.03407 0.97926 0.92365 0.0
C610 C 0.06438 0.93326 0.91738 0.0
C611 C 0.03021 0.98426 0.94516 0.0
C612 C 0.03785 0.9891 0.98115 0.0
C613 C 0.04107 0.98219 0.96171 0.0
C614 C 1.01274 0.99983 0.96795 0.0
C615 C 0.02378 0.99821 0.98429 0.0
C616 C 1.01593 0.99292 0.94861 0.0
C617 C 0.04471 0.97306 0.84344 0.0
C618 C 0.02876 0.99544 0.8301 0.0
C619 C 0.04881 0.98283 0.80826 0.0
C620 C 0.05258 0.97213 0.82426 0.0
C621 C 0.03702 0.9947 0.81105 0.0
C622 C 0.03265 0.98474 0.84627 0.0
C623 C 0.04977 0.96182 0.86002 0.0
O624 O 0.07073 0.94762 0.91531 0.0
O625 O 0.04919 0.93267 0.91154 0.0
O626 O 0.03843 0.95368 0.86964 0.0
O627 O 0.06113 0.96697 0.87252 0.0
H628 H 0.06241 0.91149 0.88469 0.0
H629 H 0.08041 0.8884 0.87824 0.0
H630 H 0.10822 0.90075 0.93229 0.0
H631 H 0.09032 0.9236 0.93883 0.0
H632 H 0.04651 0.98769 0.99358 0.0
H633 H 0.05221 0.97564 0.95946 0.0
H634 H 1.00184 1.0068 0.97003 0.0
H635 H 1.00744 0.9948 0.93608 0.0
H636 H 0.01958 1.00448 0.83256 0.0
H637 H 0.05528 0.98198 0.79373 0.0
H638 H 0.06187 0.9632 0.82171 0.0
H639 H 0.0264 0.98567 0.86095 0.0
C640 C 0.67437 0.82521 0.662 0.0
C641 C 0.67568 0.83759 0.6472 0.0
C642 C 0.6483 0.84664 0.65488 0.0
C643 C 0.66278 0.84821 0.64373 0.0
C644 C 0.64675 0.83389 0.66901 0.0
C645 C 0.65965 0.82331 0.67254 0.0
U646 U 0.71347 0.79995 0.65249 0.0
O647 O 0.7362 0.80042 0.67009 0.0
O648 O 0.72207 0.77818 0.66885 0.0
C649 C 0.73495 0.7854 0.67618 0.0
C650 C 0.68848 0.81524 0.66832 0.0
C651 C 0.74007 0.78152 0.69767 0.0
C652 C 0.74475 0.78877 0.73383 0.0
C653 C 0.73788 0.79216 0.71435 0.0
C654 C 0.75573 0.76398 0.72037 0.0
C655 C 0.75394 0.77475 0.73688 0.0
C656 C 0.74887 0.76733 0.70101 0.0
C657 C 0.72858 0.79394 0.59543 0.0
C658 C 0.75513 0.79329 0.57914 0.0
C659 C 0.73164 0.78492 0.55971 0.0
C660 C 0.72191 0.78785 0.57703 0.0
C661 C 0.74826 0.78802 0.56043 0.0
C662 C 0.74537 0.79623 0.59652 0.0
C663 C 0.71751 0.7996 0.61198 0.0
O664 O 0.68819 0.7999 0.66356 0.0
O665 O 0.70283 0.82171 0.66605 0.0
O666 O 0.72272 0.81119 0.62403 0.0
O667 O 0.70908 0.78869 0.62198 0.0
H668 H 0.68684 0.83938 0.6388 0.0
H669 H 0.66425 0.85795 0.63274 0.0
H670 H 0.63573 0.83245 0.67782 0.0
H671 H 0.65831 0.81394 0.68408 0.0
H672 H 0.74319 0.79723 0.74638 0.0
H673 H 0.73122 0.80322 0.7122 0.0
H674 H 0.76276 0.75312 0.72235 0.0
H675 H 0.75085 0.75901 0.68838 0.0
H676 H 0.76792 0.79579 0.58 0.0
H677 H 0.7261 0.78091 0.54542 0.0
H678 H 0.70902 0.78605 0.57575 0.0
H679 H 0.75087 0.8009 0.61047 0.0
C680 C 0.46035 0.42174 0.91248 0.0
C681 C 0.44789 0.42307 0.89775 0.0
C682 C 0.43898 0.39574 0.90535 0.0
C683 C 0.43728 0.4102 0.89428 0.0
C684 C 0.45182 0.39416 0.91938 0.0
C685 C 0.46238 0.40705 0.92292 0.0
U686 U 0.48474 0.46098 0.9022 0.0
O687 O 0.48414 0.48366 0.91963 0.0
O688 O 0.50674 0.47005 0.91773 0.0
C689 C 0.4993 0.48265 0.92542 0.0
C690 C 0.47029 0.43581 0.91872 0.0
C691 C 0.50328 0.48753 0.94699 0.0
C692 C 0.49557 0.49326 0.98277 0.0
C693 C 0.49209 0.48644 0.96334 0.0
C694 C 0.52159 0.50192 0.97004 0.0
C695 C 0.51026 0.50129 0.98616 0.0
C696 C 0.51813 0.49512 0.95069 0.0
C697 C 0.48837 0.47567 0.84459 0.0
C698 C 0.50328 0.49848 0.83066 0.0
C699 C 0.48467 0.48399 0.80865 0.0
C700 C 0.4811 0.47362 0.82512 0.0
C701 C 0.49568 0.4966 0.81127 0.0
C702 C 0.49959 0.48813 0.84725 0.0
C703 C 0.48367 0.46469 0.86161 0.0
O704 O 0.48557 0.4358 0.91327 0.0
O705 O 0.46352 0.45001 0.9169 0.0
O706 O 0.47237 0.46983 0.8742 0.0
O707 O 0.49527 0.45693 0.87125 0.0
H708 H 0.44602 0.4342 0.88941 0.0
H709 H 0.42747 0.41166 0.88337 0.0
H710 H 0.45335 0.38315 0.92811 0.0
H711 H 0.47183 0.4057 0.93438 0.0
H712 H 0.48667 0.49261 0.99501 0.0
H713 H 0.48051 0.48073 0.96094 0.0
H714 H 0.53297 0.50805 0.97229 0.0
H715 H 0.52691 0.49625 0.93834 0.0
H716 H 0.5118 0.50814 0.83303 0.0
H717 H 0.47869 0.48229 0.7939 0.0
H718 H 0.47246 0.46405 0.82271 0.0
H719 H 0.50535 0.48994 0.86212 0.0
C720 C 0.8628 0.20713 0.16166 0.0
C721 C 0.8616 0.19457 0.14716 0.0
C722 C 0.88922 0.18613 0.15458 0.0
C723 C 0.87467 0.18416 0.14372 0.0
C724 C 0.89068 0.19908 0.16837 0.0
C725 C 0.8776 0.20944 0.17188 0.0
U726 U 0.82354 0.23195 0.15181 0.0
O727 O 0.80034 0.23059 0.16841 0.0
O728 O 0.81404 0.25309 0.16844 0.0
C729 C 0.80103 0.24553 0.1748 0.0
C730 C 0.8485 0.2168 0.16803 0.0
C731 C 0.7952 0.24892 0.19606 0.0
C732 C 0.79717 0.2474 0.23368 0.0
C733 C 0.80325 0.2437 0.21388 0.0
C734 C 0.77455 0.26077 0.21805 0.0
C735 C 0.78334 0.25734 0.23637 0.0
C736 C 0.78057 0.25706 0.19837 0.0
C737 C 0.80923 0.23864 0.09469 0.0
C738 C 0.78262 0.23949 0.07863 0.0
C739 C 0.80607 0.24765 0.05895 0.0
C740 C 0.81586 0.24466 0.07621 0.0
C741 C 0.78944 0.24466 0.05983 0.0
C742 C 0.79243 0.23651 0.09595 0.0
C743 C 0.82031 0.23295 0.11121 0.0
O744 O 0.84861 0.23224 0.16369 0.0
O745 O 0.83427 0.21018 0.16531 0.0
O746 O 0.81525 0.22096 0.12278 0.0
O747 O 0.82824 0.24389 0.12175 0.0
H748 H 0.8504 0.19246 0.13898 0.0
H749 H 0.87327 0.17427 0.13299 0.0
H750 H 0.90176 0.20083 0.17694 0.0
H751 H 0.87887 0.21896 0.18318 0.0
H752 H 0.80337 0.24182 0.24638 0.0
H753 H 0.81411 0.23655 0.21251 0.0
H754 H 0.76279 0.26633 0.21866 0.0
H755 H 0.77363 0.2605 0.18484 0.0
H756 H 0.76981 0.23708 0.07961 0.0
H757 H 0.81157 0.25158 0.04459 0.0
H758 H 0.82877 0.24636 0.07482 0.0
H759 H 0.78697 0.23191 0.11 0.0
C760 C 0.08002 0.60926 0.41358 0.0
C761 C 0.07849 0.61776 0.3948 0.0
C762 C 0.10023 0.63599 0.40504 0.0
C763 C 0.0885 0.63105 0.39059 0.0
C764 C 0.10156 0.62757 0.42382 0.0
C765 C 0.09159 0.61439 0.42802 0.0
U766 U 0.05529 0.57042 0.40136 0.0
O767 O 0.0561 0.54726 0.41796 0.0
O768 O 0.03353 0.56088 0.4168 0.0
C769 C 0.04095 0.548 0.42378 0.0
C770 C 0.06993 0.59506 0.41885 0.0
C771 C 0.03719 0.54275 0.44523 0.0
C772 C 0.03768 0.54618 0.48273 0.0
C773 C 0.04178 0.55154 0.4627 0.0
C774 C 0.02511 0.52279 0.46809 0.0
C775 C 0.02812 0.53219 0.48597 0.0
C776 C 0.0292 0.52814 0.44818 0.0
C777 C 0.05113 0.55664 0.34365 0.0
C778 C 0.03375 0.53617 0.32854 0.0
C779 C 0.05611 0.54678 0.30869 0.0
C780 C 0.06012 0.55687 0.32522 0.0
C781 C 0.04296 0.53627 0.3102 0.0
C782 C 0.03784 0.54624 0.3452 0.0
C783 C 0.05603 0.56751 0.36068 0.0
O784 O 0.05468 0.59528 0.41323 0.0
O785 O 0.07672 0.58096 0.4163 0.0
O786 O 0.06753 0.56226 0.37295 0.0
O787 O 0.04456 0.57516 0.37067 0.0
H788 H 0.06968 0.61409 0.38338 0.0
H789 H 0.08725 0.63736 0.37599 0.0
H790 H 0.11048 0.63112 0.43518 0.0
H791 H 0.09299 0.60809 0.44261 0.0
H792 H 0.04254 0.55324 0.49506 0.0
H793 H 0.04866 0.5625 0.46089 0.0
H794 H 0.01944 0.51114 0.46931 0.0
H795 H 0.02611 0.52074 0.43497 0.0
H796 H 0.02354 0.52814 0.33003 0.0
H797 H 0.06336 0.54708 0.29473 0.0
H798 H 0.07036 0.56485 0.32364 0.0
H799 H 0.03071 0.54584 0.35925 0.0
C800 C 0.67366 0.20818 0.88595 0.0
C801 C 0.67511 0.19563 0.90049 0.0
C802 C 0.64766 0.1867 0.8931 0.0
C803 C 0.66225 0.18498 0.90397 0.0
C804 C 0.64595 0.19962 0.87926 0.0
C805 C 0.65883 0.21022 0.8757 0.0
U806 U 0.71272 0.23313 0.89596 0.0
O807 O 0.7356 0.23267 0.87873 0.0
O808 O 0.72161 0.255 0.88009 0.0
C809 C 0.73445 0.24771 0.87273 0.0
C810 C 0.68772 0.2182 0.87964 0.0
C811 C 0.73952 0.25157 0.85121 0.0
C812 C 0.74509 0.24388 0.81542 0.0
C813 C 0.73814 0.24052 0.83484 0.0
C814 C 0.75448 0.2695 0.82826 0.0
C815 C 0.75354 0.2583 0.81211 0.0
C816 C 0.74754 0.26617 0.84758 0.0
C817 C 0.72716 0.23762 0.95351 0.0
C818 C 0.75238 0.24874 0.96657 0.0
C819 C 0.73345 0.2364 0.99032 0.0
C820 C 0.72296 0.23335 0.97384 0.0
C821 C 0.74835 0.24386 0.98682 0.0
C822 C 0.74186 0.24557 0.94996 0.0
C823 C 0.71628 0.23263 0.93655 0.0
O824 O 0.68748 0.23348 0.88473 0.0
O825 O 0.70206 0.21167 0.8817 0.0
O826 O 0.72166 0.2213 0.92423 0.0
O827 O 0.70836 0.24397 0.92666 0.0
H828 H 0.68635 0.19374 0.90869 0.0
H829 H 0.66382 0.17512 0.91474 0.0
H830 H 0.63484 0.20117 0.87068 0.0
H831 H 0.65738 0.21973 0.86438 0.0
H832 H 0.74421 0.23509 0.80314 0.0
H833 H 0.73209 0.22914 0.8372 0.0
H834 H 0.76094 0.28068 0.82606 0.0
H835 H 0.7489 0.27482 0.85997 0.0
H836 H 0.76386 0.25447 0.96356 0.0
H837 H 0.73013 0.23253 1.00577 0.0
H838 H 0.7117 0.22722 0.97692 0.0
H839 H 0.74535 0.24895 0.93437 0.0
C840 C 0.08032 0.4238 0.13442 0.0
C841 C 0.07877 0.41537 0.15325 0.0
C842 C 0.10056 0.39716 0.14318 0.0
C843 C 0.08881 0.40213 0.15757 0.0
C844 C 0.10197 0.40556 0.1244 0.0
C845 C 0.09197 0.4187 0.12009 0.0
U846 U 0.05485 0.46242 0.14553 0.0
O847 O 0.05458 0.48508 0.128 0.0
O848 O 0.0325 0.47066 0.13 0.0
C849 C 0.03951 0.48343 0.12205 0.0
C850 C 0.06993 0.43771 0.12884 0.0
C851 C 0.03556 0.48785 0.10026 0.0
C852 C 0.04377 0.49637 0.06557 0.0
C853 C 0.04754 0.48961 0.08496 0.0
C854 C 1.01591 0.4991 0.07605 0.0
C855 C 0.02799 0.50146 0.06113 0.0
C856 C 0.01966 0.49238 0.09541 0.0
C857 C 0.05103 0.47677 0.20336 0.0
C858 C 0.03694 0.49984 0.21792 0.0
C859 C 0.05216 0.48234 0.24026 0.0
C860 C 0.05664 0.47308 0.22319 0.0
C861 C 0.04115 0.49529 0.2385 0.0
C862 C 0.04145 0.49047 0.2007 0.0
C863 C 0.05605 0.46628 0.18603 0.0
O864 O 0.05475 0.4373 0.13469 0.0
O865 O 0.07644 0.45201 0.13076 0.0
O866 O 0.06698 0.47198 0.17327 0.0
O867 O 0.04472 0.45801 0.17662 0.0
H868 H 0.06987 0.41901 0.16458 0.0
H869 H 0.08751 0.39584 0.17218 0.0
H870 H 0.11092 0.40199 0.1131 0.0
H871 H 0.09336 0.42494 0.10545 0.0
H872 H 0.05326 0.49804 0.05425 0.0
H873 H 0.05991 0.48629 0.08818 0.0
H874 H 1.00366 0.50293 0.07295 0.0
H875 H 1.01022 0.49131 0.10692 0.0
H876 H 0.03058 0.51075 0.21445 0.0
H877 H 0.05772 0.47926 0.25487 0.0
H878 H 0.0647 0.46299 0.22553 0.0
H879 H 0.03765 0.49406 0.18532 0.0
C880 C 0.86212 0.82671 0.38458 0.0
C881 C 0.87062 0.82527 0.40339 0.0
C882 C 0.88847 0.84739 0.39337 0.0
C883 C 0.88372 0.83552 0.40772 0.0
C884 C 0.88001 0.84867 0.37461 0.0
C885 C 0.86702 0.83847 0.37029 0.0
U886 U 0.824 0.8004 0.39602 0.0
O887 O 0.80058 0.80079 0.37984 0.0
O888 O 0.81526 0.77889 0.37946 0.0
C889 C 0.8019 0.78593 0.37329 0.0
C890 C 0.84821 0.81626 0.37907 0.0
C891 C 0.79584 0.78244 0.35213 0.0
C892 C 0.79896 0.77979 0.31466 0.0
C893 C 0.80553 0.78336 0.33427 0.0
C894 C 0.77312 0.77432 0.33056 0.0
C895 C 0.78265 0.77529 0.31268 0.0
C896 C 0.77964 0.77786 0.35002 0.0
C897 C 0.81029 0.79498 0.45375 0.0
C898 C 0.78499 0.78405 0.4669 0.0
C899 C 0.8042 0.79588 0.49063 0.0
C900 C 0.81466 0.79895 0.4741 0.0
C901 C 0.78917 0.78869 0.48718 0.0
C902 C 0.79547 0.78726 0.45023 0.0
C903 C 0.82101 0.80025 0.43671 0.0
O904 O 0.84898 0.80098 0.38419 0.0
O905 O 0.83381 0.82244 0.38185 0.0
O906 O 0.81543 0.81174 0.42473 0.0
O907 O 0.8289 0.78913 0.42643 0.0
H908 H 0.86712 0.81631 0.41471 0.0
H909 H 0.89005 0.8343 0.42231 0.0
H910 H 0.88341 0.85769 0.36332 0.0
H911 H 0.86072 0.83981 0.35569 0.0
H912 H 0.80655 0.78059 0.30104 0.0
H913 H 0.81807 0.78684 0.33549 0.0
H914 H 0.76056 0.77085 0.32944 0.0
H915 H 0.77195 0.777 0.36355 0.0
H916 H 0.77341 0.77853 0.46391 0.0
H917 H 0.80765 0.79956 0.5061 0.0
H918 H 0.82601 0.80493 0.47715 0.0
H919 H 0.79183 0.78414 0.43464 0.0
C920 C 0.45993 0.61084 0.63618 0.0
C921 C 0.44695 0.60941 0.65013 0.0
C922 C 0.43883 0.63715 0.64337 0.0
C923 C 0.4365 0.62242 0.65363 0.0
C924 C 0.45219 0.63882 0.63017 0.0
C925 C 0.4626 0.6258 0.6266 0.0
U926 U 0.48385 0.57101 0.6455 0.0
O927 O 0.48312 0.54865 0.62736 0.0
O928 O 0.50585 0.56196 0.62997 0.0
C929 C 0.49843 0.5494 0.62219 0.0
C930 C 0.46974 0.59669 0.62969 0.0
C931 C 0.50286 0.54412 0.60098 0.0
C932 C 0.49898 0.54346 0.56347 0.0
C933 C 0.49531 0.55006 0.58301 0.0
C934 C 0.51789 0.52518 0.57961 0.0
C935 C 0.51016 0.53079 0.56167 0.0
C936 C 0.51429 0.53178 0.599 0.0
C937 C 0.48697 0.55584 0.70331 0.0
C938 C 0.5032 0.53479 0.71939 0.0
C939 C 0.48308 0.54856 0.73945 0.0
C940 C 0.4788 0.55764 0.72207 0.0
C941 C 0.49632 0.5378 0.73921 0.0
C942 C 0.49891 0.54399 0.70187 0.0
C943 C 0.48253 0.56664 0.68595 0.0
O944 O 0.485 0.59639 0.63519 0.0
O945 O 0.46279 0.58254 0.63105 0.0
O946 O 0.47132 0.56162 0.67314 0.0
O947 O 0.49422 0.57448 0.67663 0.0
H948 H 0.44456 0.59809 0.65781 0.0
H949 H 0.42629 0.62085 0.6639 0.0
H950 H 0.45423 0.65003 0.62205 0.0
H951 H 0.47245 0.62726 0.61574 0.0
H952 H 0.4929 0.54801 0.54982 0.0
H953 H 0.48641 0.55953 0.58413 0.0
H954 H 0.52653 0.51545 0.57864 0.0
H955 H 0.5202 0.52694 0.61262 0.0
H956 H 0.51165 0.52525 0.71669 0.0
H957 H 0.47575 0.55013 0.75313 0.0
H958 H 0.46903 0.56621 0.72338 0.0
H959 H 0.50486 0.54178 0.68721 0.0
C960 C 0.36556 0.20941 0.38578 0.0
C961 C 0.37564 0.21214 0.40299 0.0
C962 C 0.39226 0.18895 0.39366 0.0
C963 C 0.38892 0.20199 0.40686 0.0
C964 C 0.38222 0.18636 0.37651 0.0
C965 C 0.36906 0.19646 0.37263 0.0
U966 U 0.32755 0.23608 0.39729 0.0
O967 O 0.31858 0.25711 0.37988 0.0
O968 O 0.30393 0.23522 0.38166 0.0
C969 C 0.30521 0.24985 0.37421 0.0
C970 C 0.35154 0.21982 0.38054 0.0
C971 C 0.29903 0.25262 0.35292 0.0
C972 C 0.30226 0.26054 0.31671 0.0
C973 C 0.30903 0.25683 0.33615 0.0
C974 C 0.27556 0.25574 0.3305 0.0
C975 C 0.28544 0.26011 0.31382 0.0
C976 C 0.28228 0.25205 0.34981 0.0
C977 C 0.31325 0.24378 0.45381 0.0
C978 C 0.28611 0.24652 0.46795 0.0
C979 C 0.30926 0.25222 0.48956 0.0
C980 C 0.31953 0.2488 0.47293 0.0
C981 C 0.2925 0.25068 0.48738 0.0
C982 C 0.29641 0.24312 0.45126 0.0
C983 C 0.32451 0.23761 0.43785 0.0
O984 O 0.33719 0.2137 0.38395 0.0
O985 O 0.35242 0.23519 0.38506 0.0
O986 O 0.33268 0.24823 0.42703 0.0
O987 O 0.31931 0.22552 0.42663 0.0
H988 H 0.37326 0.22204 0.41339 0.0
H989 H 0.3965 0.20422 0.42021 0.0
H990 H 0.38455 0.17643 0.36611 0.0
H991 H 0.36157 0.19414 0.35922 0.0
H992 H 0.3101 0.26389 0.304 0.0
H993 H 0.32198 0.25745 0.33812 0.0
H994 H 0.26259 0.25537 0.32863 0.0
H995 H 0.27431 0.249 0.36252 0.0
H996 H 0.27321 0.24522 0.46598 0.0
H997 H 0.31442 0.25534 0.50444 0.0
H998 H 0.33245 0.24937 0.4753 0.0
H999 H 0.29124 0.23932 0.43666 0.0
C1000 C 0.57243 0.61486 0.13802 0.0
C1001 C 0.58366 0.61461 0.15438 0.0
C1002 C 0.5939 0.64101 0.14415 0.0
C1003 C 0.59429 0.62757 0.15741 0.0
C1004 C 0.58224 0.64153 0.12839 0.0
C1005 C 0.57163 0.62861 0.12538 0.0
U1006 U 0.54814 0.57517 0.14838 0.0
O1007 O 0.52651 0.56598 0.13215 0.0
O1008 O 0.54926 0.5526 0.13074 0.0
C1009 C 0.53415 0.55342 0.12469 0.0
C1010 C 0.5627 0.60049 0.13227 0.0
C1011 C 0.53039 0.54834 0.10315 0.0
C1012 C 0.538 0.54361 0.0671 0.0
C1013 C 0.54122 0.55048 0.08658 0.0
C1014 C 0.51298 0.53273 0.08029 0.0
C1015 C 0.52396 0.53446 0.0639 0.0
C1016 C 0.51616 0.53959 0.09966 0.0
C1017 C 0.54333 0.55996 0.20566 0.0
C1018 C 0.53125 0.53505 0.21819 0.0
C1019 C 0.54522 0.55255 0.24211 0.0
C1020 C 0.54839 0.5633 0.22594 0.0
C1021 C 0.53685 0.53823 0.23838 0.0
C1022 C 0.53451 0.54584 0.20188 0.0
C1023 C 0.54828 0.57114 0.18895 0.0
O1024 O 0.56962 0.58641 0.13463 0.0
O1025 O 0.54735 0.60039 0.13739 0.0
O1026 O 0.53685 0.57891 0.179 0.0
O1027 O 0.55992 0.56622 0.17672 0.0
H1028 H 0.58458 0.60419 0.16438 0.0
H1029 H 0.60319 0.62689 0.16966 0.0
H1030 H 0.58172 0.65171 0.11795 0.0
H1031 H 0.56316 0.62911 0.11262 0.0
H1032 H 0.54662 0.54512 0.05465 0.0
H1033 H 0.55232 0.55709 0.08883 0.0
H1034 H 0.50209 0.52573 0.0782 0.0
H1035 H 0.50769 0.53764 0.11219 0.0
H1036 H 0.52483 0.52402 0.21496 0.0
H1037 H 0.5497 0.55521 0.2575 0.0
H1038 H 0.5552 0.5741 0.22921 0.0
H1039 H 0.5305 0.54301 0.18635 0.0
C1040 C 0.17021 0.82089 0.88943 0.0
C1041 C 0.17048 0.8322 0.90563 0.0
C1042 C 0.14379 0.84205 0.89569 0.0
C1043 C 0.15739 0.84267 0.90871 0.0
C1044 C 0.14323 0.83028 0.88015 0.0
C1045 C 0.15629 0.81983 0.87708 0.0
U1046 U 0.21002 0.79656 0.89942 0.0
O1047 O 0.21975 0.77595 0.88193 0.0
O1048 O 0.23321 0.79861 0.88286 0.0
C1049 C 0.23257 0.78388 0.87566 0.0
C1050 C 0.18475 0.81143 0.88348 0.0
C1051 C 0.23855 0.78119 0.85421 0.0
C1052 C 0.23518 0.77261 0.81827 0.0
C1053 C 0.22852 0.7763 0.83778 0.0
C1054 C 0.26182 0.77877 0.83127 0.0
C1055 C 0.25193 0.77371 0.81494 0.0
C1056 C 0.25521 0.78246 0.85064 0.0
C1057 C 0.22481 0.79043 0.95656 0.0
C1058 C 0.25031 0.77911 0.96853 0.0
C1059 C 0.23228 0.79182 0.99302 0.0
C1060 C 0.22131 0.79488 0.97703 0.0
C1061 C 0.24699 0.78417 0.9889 0.0
C1062 C 0.2393 0.78228 0.95241 0.0
C1063 C 0.21351 0.79553 0.94004 0.0
O1064 O 0.19882 0.8183 0.88644 0.0
O1065 O 0.18486 0.79599 0.88782 0.0
O1066 O 0.20614 0.78426 0.9294 0.0
O1067 O 0.21822 0.80764 0.92848 0.0
H1068 H 0.18102 0.83333 0.91541 0.0
H1069 H 0.1581 0.85165 0.92078 0.0
H1070 H 0.13292 0.82958 0.8699 0.0
H1071 H 0.15577 0.8113 0.86445 0.0
H1072 H 0.22732 0.76872 0.80586 0.0
H1073 H 0.21565 0.77511 0.84009 0.0
H1074 H 0.27474 0.77968 0.82909 0.0
H1075 H 0.26322 0.78604 0.86306 0.0
H1076 H 0.26164 0.77326 0.96502 0.0
H1077 H 0.22951 0.79587 1.00855 0.0
H1078 H 0.21023 0.80119 0.98058 0.0
H1079 H 0.24228 0.77877 0.93672 0.0
C1080 C 0.96494 0.4178 0.63892 0.0
C1081 C 0.95364 0.4181 0.6552 0.0
C1082 C 0.94341 0.39171 0.64509 0.0
C1083 C 0.94298 0.40516 0.65824 0.0
C1084 C 0.95515 0.39113 0.62944 0.0
C1085 C 0.96579 0.40402 0.62641 0.0
U1086 U 0.98895 0.45777 0.64855 0.0
O1087 O 1.00989 0.46725 0.63114 0.0
O1088 O 0.987 0.48045 0.63112 0.0
C1089 C 1.00185 0.47974 0.6241 0.0
C1090 C 0.9746 0.43217 0.63301 0.0
C1091 C 1.00459 0.48525 0.60238 0.0
C1092 C 1.01795 0.4835 0.56862 0.0
C1093 C 1.01413 0.47671 0.58805 0.0
C1094 C 1.0027 0.50726 0.57748 0.0
C1095 C 1.01237 0.49893 0.5633 0.0
C1096 C 0.99888 0.50053 0.59673 0.0
C1097 C 0.99311 0.47461 0.70511 0.0
C1098 C 1.01244 0.49064 0.72485 0.0
C1099 C 0.98446 0.48989 0.73534 0.0
C1100 C 0.98097 0.47959 0.71885 0.0
C1101 C 1.0002 0.49548 0.7386 0.0
C1102 C 1.00893 0.48029 0.70821 0.0
C1103 C 0.98884 0.46262 0.68893 0.0
O1104 O 0.96755 0.4462 0.63513 0.0
O1105 O 0.98994 0.43242 0.63816 0.0
O1106 O 1.00053 0.45504 0.67923 0.0
O1107 O 0.97678 0.46644 0.67668 0.0
H1108 H 0.95267 0.42855 0.66508 0.0
H1109 H 0.93402 0.40588 0.6704 0.0
H1110 H 0.9557 0.38093 0.61908 0.0
H1111 H 0.9743 0.4035 0.6137 0.0
H1112 H 0.02545 0.47685 0.5579 0.0
H1113 H 0.01889 0.46499 0.59198 0.0
H1114 H 0.9983 0.51917 0.57376 0.0
H1115 H 0.99177 0.50753 0.60751 0.0
H1116 H 0.0247 0.49475 0.72714 0.0
H1117 H 0.97485 0.49337 0.74577 0.0
H1118 H 0.96874 0.47527 0.71704 0.0
H1119 H 1.0186 0.4766 0.698 0.0
C1120 C 0.36536 0.82316 0.1611 0.0
C1121 C 0.37575 0.82053 0.14418 0.0
C1122 C 0.39203 0.84386 0.15394 0.0
C1123 C 0.389 0.83079 0.14066 0.0
C1124 C 0.38167 0.84638 0.1708 0.0
C1125 C 0.36853 0.83617 0.17432 0.0
U1126 U 0.32723 0.79648 0.14958 0.0
O1127 O 0.31901 0.77465 0.16605 0.0
O1128 O 0.30423 0.79648 0.16658 0.0
C1129 C 0.30572 0.78152 0.17275 0.0
C1130 C 0.3515 0.81246 0.16617 0.0
C1131 C 0.30016 0.77766 0.194 0.0
C1132 C 0.29979 0.78183 0.23141 0.0
C1133 C 0.30647 0.78509 0.21178 0.0
C1134 C 0.2806 0.76366 0.21568 0.0
C1135 C 0.28665 0.77122 0.23344 0.0
C1136 C 0.28732 0.76682 0.19621 0.0
C1137 C 0.31179 0.79013 0.09304 0.0
C1138 C 0.28459 0.78792 0.07884 0.0
C1139 C 0.30761 0.78189 0.05718 0.0
C1140 C 0.31795 0.78507 0.07386 0.0
C1141 C 0.29087 0.78374 0.05936 0.0
C1142 C 0.29495 0.79108 0.09557 0.0
C1143 C 0.32317 0.79607 0.10907 0.0
O1144 O 0.33703 0.81855 0.16362 0.0
O1145 O 0.35239 0.79725 0.16081 0.0
O1146 O 0.33185 0.78533 0.11903 0.0
O1147 O 0.31797 0.80767 0.1211 0.0
H1148 H 0.37367 0.81058 0.13375 0.0
H1149 H 0.39682 0.82861 0.12753 0.0
H1150 H 0.38375 0.85632 0.18125 0.0
H1151 H 0.36082 0.83841 0.18755 0.0
H1152 H 0.30463 0.78779 0.24494 0.0
H1153 H 0.31633 0.79355 0.21045 0.0
H1154 H 0.27052 0.75545 0.21687 0.0
H1155 H 0.28221 0.761 0.18271 0.0
H1156 H 0.27172 0.78944 0.08084 0.0
H1157 H 0.31271 0.77873 0.04229 0.0
H1158 H 0.33085 0.78427 0.07148 0.0
H1159 H 0.28984 0.79491 0.11019 0.0
C1160 C 0.96225 0.61364 0.91067 0.0
C1161 C 0.96495 0.62402 0.89376 0.0
C1162 C 0.9416 0.64032 0.90358 0.0
C1163 C 0.95471 0.63727 0.89027 0.0
C1164 C 0.93903 0.62999 0.92045 0.0
C1165 C 0.94922 0.61685 0.92394 0.0
U1166 U 0.98806 0.57497 0.89925 0.0
O1167 O 1.0101 0.5665 0.91533 0.0
O1168 O 0.98783 0.55236 0.91686 0.0
C1169 C 1.00285 0.55378 0.92305 0.0
C1170 C 0.97292 0.59976 0.9157 0.0
C1171 C 1.00654 0.54915 0.94483 0.0
C1172 C 0.99792 0.54125 0.97959 0.0
C1173 C 0.99452 0.54819 0.96019 0.0
C1174 C 0.0255 0.53669 0.96894 0.0
C1175 C 1.01336 0.53516 0.98396 0.0
C1176 C 0.02212 0.54359 0.94959 0.0
C1177 C 0.99194 0.55896 0.84235 0.0
C1178 C 1.00997 0.5391 0.82693 0.0
C1179 C 0.98575 0.54717 0.80876 0.0
C1180 C 0.98192 0.55765 0.82492 0.0
C1181 C 0.99974 0.53772 0.80959 0.0
C1182 C 1.00607 0.54961 0.84326 0.0
C1183 C 0.98718 0.57042 0.85884 0.0
O1184 O 0.96649 0.58542 0.91393 0.0
O1185 O 0.98805 0.60026 0.90962 0.0
O1186 O 0.99863 0.57858 0.86819 0.0
O1187 O 0.97577 0.56561 0.87152 0.0
H1188 H 0.97493 0.62192 0.88329 0.0
H1189 H 0.95693 0.64507 0.87714 0.0
H1190 H 0.92905 0.63209 0.93092 0.0
H1191 H 0.94693 0.60916 0.93718 0.0
H1192 H 0.9884 0.54025 0.99099 0.0
H1193 H 0.98239 0.5523 0.957 0.0
H1194 H 0.03749 0.5321 0.97199 0.0
H1195 H 0.03156 0.54403 0.93801 0.0
H1196 H 0.02086 0.53196 0.82787 0.0
H1197 H 0.97772 0.54637 0.79557 0.0
H1198 H 0.97103 0.56478 0.8238 0.0
H1199 H 1.01403 0.55042 0.85652 0.0
C1200 C 0.16818 0.2102 0.65492 0.0
C1201 C 0.15443 0.2142 0.64324 0.0
C1202 C 0.14126 0.18936 0.65385 0.0
C1203 C 0.1411 0.20383 0.64264 0.0
C1204 C 0.15474 0.18566 0.66614 0.0
C1205 C 0.1681 0.19595 0.66659 0.0
U1206 U 0.20916 0.23725 0.64869 0.0
O1207 O 0.2132 0.25603 0.67239 0.0
O1208 O 0.22839 0.23401 0.67211 0.0
C1209 C 0.22497 0.24778 0.68099 0.0
C1210 C 0.18314 0.21979 0.65295 0.0
C1211 C 0.23396 0.25373 0.69924 0.0
C1212 C 0.23454 0.26128 0.7357 0.0
C1213 C 0.22586 0.25703 0.71787 0.0
C1214 C 0.25946 0.25973 0.71629 0.0
C1215 C 0.25144 0.26254 0.73512 0.0
C1216 C 0.25081 0.2552 0.69857 0.0
C1217 C 0.22976 0.24683 0.59345 0.0
C1218 C 0.25513 0.257 0.57973 0.0
C1219 C 0.23546 0.24523 0.55655 0.0
C1220 C 0.22512 0.24266 0.57327 0.0
C1221 C 0.25065 0.25214 0.55964 0.0
C1222 C 0.24475 0.25426 0.59663 0.0
C1223 C 0.21911 0.24167 0.61048 0.0
O1224 O 0.19765 0.21348 0.65356 0.0
O1225 O 0.18269 0.2355 0.65095 0.0
O1226 O 0.21004 0.25218 0.62023 0.0
O1227 O 0.22359 0.22944 0.62196 0.0
H1228 H 0.15426 0.22499 0.63384 0.0
H1229 H 0.13089 0.20683 0.6329 0.0
H1230 H 0.15512 0.17454 0.67484 0.0
H1231 H 0.17857 0.19254 0.67562 0.0
H1232 H 0.2281 0.26335 0.75005 0.0
H1233 H 0.21288 0.25584 0.71879 0.0
H1234 H 0.27247 0.26069 0.71546 0.0
H1235 H 0.25729 0.25271 0.68437 0.0
H1236 H 0.26687 0.26228 0.5824 0.0
H1237 H 0.23182 0.24131 0.54125 0.0
H1238 H 0.21364 0.23681 0.57053 0.0
H1239 H 0.24859 0.25748 0.61211 0.0
C1240 C 0.57312 0.41792 0.40874 0.0
C1241 C 0.58462 0.41825 0.3927 0.0
C1242 C 0.5945 0.39166 0.40272 0.0
C1243 C 0.5952 0.40524 0.38972 0.0
C1244 C 0.58256 0.39105 0.41812 0.0
C1245 C 0.572 0.40403 0.42108 0.0
U1246 U 0.54839 0.45753 0.39897 0.0
O1247 O 0.52732 0.46668 0.41629 0.0
O1248 O 0.54994 0.48033 0.41619 0.0
C1249 C 0.53495 0.47958 0.42268 0.0
C1250 C 0.56349 0.43234 0.41461 0.0
C1251 C 0.53145 0.48566 0.44379 0.0
C1252 C 0.53083 0.4834 0.48151 0.0
C1253 C 0.53433 0.47674 0.46194 0.0
C1254 C 0.52156 0.50781 0.46494 0.0
C1255 C 0.52446 0.49904 0.48312 0.0
C1256 C 0.52499 0.50119 0.44554 0.0
C1257 C 0.54145 0.47353 0.3427 0.0
C1258 C 0.54048 0.50073 0.32853 0.0
C1259 C 0.53263 0.47823 0.30713 0.0
C1260 C 0.53558 0.46773 0.32371 0.0
C1261 C 0.53549 0.49476 0.3092 0.0
C1262 C 0.54342 0.49021 0.34516 0.0
C1263 C 0.54717 0.46183 0.3585 0.0
O1264 O 0.5703 0.44642 0.41178 0.0
O1265 O 0.54802 0.43235 0.41018 0.0
O1266 O 0.53619 0.45373 0.36884 0.0
O1267 O 0.55936 0.46634 0.37012 0.0
H1268 H 0.58581 0.42877 0.38293 0.0
H1269 H 0.60431 0.40598 0.37775 0.0
H1270 H 0.5818 0.38076 0.42836 0.0
H1271 H 0.56333 0.40346 0.43361 0.0
H1272 H 0.53317 0.47643 0.49537 0.0
H1273 H 0.5393 0.46474 0.46099 0.0
H1274 H 0.51666 0.51985 0.46579 0.0
H1275 H 0.52264 0.50828 0.43177 0.0
H1276 H 0.54279 0.51343 0.33045 0.0
H1277 H 0.52884 0.47336 0.29236 0.0
H1278 H 0.53399 0.45496 0.32138 0.0
H1279 H 0.54789 0.49505 0.35963 0.0
C1280 C 0.27598 0.25239 0.27803 0.0
C1281 C 0.27794 0.26438 0.29344 0.0
C1282 C 0.26429 0.28415 0.27098 0.0
C1283 C 0.26235 0.27214 0.25556 0.0
N1284 N 0.26437 0.24454 0.24492 0.0
N1285 N 0.27557 0.2919 0.30435 0.0
C1286 C 0.26773 0.25618 0.25922 0.0
C1287 C 0.27244 0.28033 0.28987 0.0
N1288 N 0.28243 0.23747 0.28126 0.0
N1289 N 0.25796 0.2991 0.26764 0.0
H1290 H 0.28134 0.28947 0.31837 0.0
H1291 H 0.27333 0.30407 0.30227 0.0
H1292 H 0.25234 0.3024 0.25381 0.0
H1293 H 0.25743 0.30811 0.27873 0.0
H1294 H 0.28306 0.22855 0.27005 0.0
H1295 H 0.28811 0.23417 0.29504 0.0
H1296 H 0.26642 0.23235 0.24721 0.0
H1297 H 0.2585 0.24692 0.23096 0.0
C1298 C 1.002 1.00935 0.52345 0.0
C1299 C 1.01283 1.01004 0.50643 0.0
C1300 C 0.03189 0.02602 0.52723 0.0
C1301 C 0.02102 0.02537 0.54423 0.0
N1302 N 0.99507 0.0183 0.55821 0.0
N1303 N 0.0386 0.01746 0.4922 0.0
C1304 C 1.0059 0.01748 0.54226 0.0
C1305 C 0.02791 0.01802 0.50833 0.0
N1306 N 0.98819 1.00047 0.52175 0.0
N1307 N 0.04584 0.03467 0.52912 0.0
H1308 H 0.03598 1.01192 0.47812 0.0
H1309 H 0.05038 0.02166 0.49287 0.0
H1310 H 0.04925 0.04032 0.54284 0.0
H1311 H 0.05374 0.03705 0.517 0.0
H1312 H 0.9805 0.99791 0.53404 0.0
H1313 H 0.98477 0.99472 0.5081 0.0
H1314 H 0.98321 1.01434 0.55729 0.0
H1315 H 0.9976 0.02394 0.57225 0.0
C1316 C 0.26493 0.75345 0.79106 0.0
C1317 C 0.25937 0.76938 0.79452 0.0
C1318 C 0.26958 0.77753 0.76018 0.0
C1319 C 0.27506 0.76159 0.75667 0.0
N1320 N 0.27956 0.7347 0.76903 0.0
N1321 N 0.25467 0.79619 0.78199 0.0
C1322 C 0.27313 0.74962 0.7722 0.0
C1323 C 0.26127 0.78133 0.77896 0.0
N1324 N 0.26186 0.7419 0.80564 0.0
N1325 N 0.27285 0.78915 0.74576 0.0
H1326 H 0.24885 0.79946 0.79568 0.0
H1327 H 0.25402 0.80508 0.77069 0.0
H1328 H 0.2787 0.78675 0.73181 0.0
H1329 H 0.27074 0.80133 0.74794 0.0
H1330 H 0.26412 0.72973 0.80364 0.0
H1331 H 0.25612 0.74434 0.81966 0.0
H1332 H 0.2801 0.72572 0.78021 0.0
H1333 H 0.28526 0.73141 0.75528 0.0
C1334 C 0.50832 1.01499 1.00934 0.0
C1335 C 0.52174 0.02567 1.00795 0.0
C1336 C 0.52869 0.01882 0.04394 0.0
C1337 C 0.51684 1.00658 0.04422 0.0
N1338 N 0.4957 0.9923 0.02654 0.0
N1339 N 0.53377 0.04519 0.0307 0.0
C1340 C 0.50675 1.00446 0.02671 0.0
C1341 C 0.52935 0.02973 0.02698 0.0
N1342 N 0.49587 0.01664 0.99566 0.0
N1343 N 0.53917 0.02037 0.06012 0.0
H1344 H 0.52923 0.05454 1.02165 0.0
H1345 H 0.5386 0.04899 0.04478 0.0
H1346 H 0.53901 1.0127 0.07292 0.0
H1347 H 0.54886 0.02835 0.05973 0.0
H1348 H 0.48507 1.01034 0.99685 0.0
H1349 H 0.49554 0.02596 0.98484 0.0
H1350 H 0.48928 0.98904 1.01333 0.0
H1351 H 0.49395 0.98462 0.03913 0.0
C1352 C 0.25751 0.77471 0.27928 0.0
C1353 C 0.26235 0.76142 0.29166 0.0
C1354 C 0.28299 0.75439 0.26574 0.0
C1355 C 0.27878 0.76821 0.25398 0.0
N1356 N 0.26327 0.7925 0.25029 0.0
N1357 N 0.28107 0.7399 0.29836 0.0
C1358 C 0.2664 0.77867 0.26102 0.0
C1359 C 0.27545 0.75158 0.28531 0.0
N1360 N 0.24406 0.78322 0.2847 0.0
N1361 N 0.29402 0.74379 0.258 0.0
H1362 H 0.27577 0.73733 0.31264 0.0
H1363 H 0.29165 0.73349 0.29584 0.0
H1364 H 0.30036 0.74582 0.24428 0.0
H1365 H 0.29623 0.73253 0.26441 0.0
H1366 H 0.23879 0.79199 0.27541 0.0
H1367 H 0.23734 0.78071 0.29798 0.0
H1368 H 0.25573 0.80157 0.25564 0.0
H1369 H 0.26908 0.79549 0.23648 0.0
C1370 C 0.50887 0.0199 0.54009 0.0
C1371 C 0.52151 1.00831 0.54138 0.0
C1372 C 0.52854 1.01442 0.50523 0.0
C1373 C 0.51748 0.02739 0.50489 0.0
N1374 N 0.4976 0.04324 0.5228 0.0
N1375 N 0.53177 0.98782 0.51861 0.0
C1376 C 0.50782 0.03039 0.5226 0.0
C1377 C 0.52856 1.00359 0.52226 0.0
N1378 N 0.4964 0.01913 0.55386 0.0
N1379 N 0.53886 1.01213 0.48904 0.0
H1380 H 0.52687 0.97887 0.52802 0.0
H1381 H 0.53602 0.98362 0.50441 0.0
H1382 H 0.53925 0.01983 0.47628 0.0
H1383 H 0.54795 1.00348 0.48944 0.0
H1384 H 0.48605 0.02617 0.55275 0.0
H1385 H 0.49543 1.00983 0.56464 0.0
H1386 H 0.4917 0.0471 0.53615 0.0
H1387 H 0.49603 0.05083 0.51009 0.0
C1388 C 0.28009 0.25819 0.78141 0.0
C1389 C 0.27755 0.27299 0.7918 0.0
C1390 C 0.25963 0.28175 0.76355 0.0
C1391 C 0.26075 0.26629 0.75441 0.0
N1392 N 0.27012 0.2389 0.75644 0.0
N1393 N 0.26314 0.29806 0.79433 0.0
C1394 C 0.27052 0.25427 0.76379 0.0
C1395 C 0.26688 0.28459 0.78325 0.0
N1396 N 0.2919 0.24801 0.78818 0.0
N1397 N 0.252 0.29387 0.75313 0.0
H1398 H 0.26824 0.30065 0.8087 0.0
H1399 H 0.25404 0.30603 0.79008 0.0
H1400 H 0.24663 0.29227 0.73867 0.0
H1401 H 0.25223 0.3058 0.75791 0.0
H1402 H 0.29552 0.23785 0.78005 0.0
H1403 H 0.29913 0.25051 0.80101 0.0
H1404 H 0.27557 0.22925 0.76395 0.0
H1405 H 0.26311 0.23544 0.74379 0.0
C1406 C 0.0261 0.02284 1.00689 0.0
C1407 C 0.02081 1.0067 1.00439 0.0
C1408 C 1.00899 1.00708 0.03939 0.0
C1409 C 1.01388 0.02333 0.04174 0.0
N1410 N 0.02753 0.04673 0.02869 0.0
N1411 N 1.00577 0.98394 1.01683 0.0
C1412 C 0.02254 0.03124 0.02568 0.0
C1413 C 1.0119 0.99894 1.0203 0.0
N1414 N 0.03426 0.03014 0.99102 0.0
N1415 N 1.00204 0.99925 0.05577 0.0
H1416 H 1.00813 0.97742 1.00339 0.0
H1417 H 0.99759 0.97824 0.02659 0.0
H1418 H 0.99929 1.00489 0.06974 0.0
H1419 H 0.99987 0.98696 0.05617 0.0
H1420 H 0.03798 0.04204 0.99094 0.0
H1421 H 0.03726 0.02425 0.9773 0.0
H1422 H 0.03451 0.0533 1.01836 0.0
H1423 H 0.02484 0.05322 0.04205 0.0
C1424 C 0.77752 0.77858 0.76113 0.0
C1425 C 0.76225 0.7715 0.7571 0.0
C1426 C 0.76372 0.75687 0.79035 0.0
C1427 C 0.77869 0.7645 0.79471 0.0
N1428 N 0.79915 0.78377 0.78566 0.0
N1429 N 0.74042 0.75427 0.76749 0.0
C1430 C 0.7854 0.77566 0.78044 0.0
C1431 C 0.75525 0.7607 0.77164 0.0
N1432 N 0.78475 0.78768 0.74609 0.0
N1433 N 0.75766 0.74602 0.80428 0.0
H1434 H 0.73396 0.7569 0.75404 0.0
H1435 H 0.73409 0.74669 0.77735 0.0
H1436 H 0.76344 0.74316 0.81815 0.0
H1437 H 0.74717 0.73943 0.8022 0.0
H1438 H 0.79659 0.79171 0.74687 0.0
H1439 H 0.77924 0.79039 0.73199 0.0
H1440 H 0.80371 0.79344 0.77729 0.0
H1441 H 0.80561 0.78146 0.79921 0.0
C1442 C 0.75466 0.27641 0.27646 0.0
C1443 C 0.75795 0.26688 0.29421 0.0
C1444 C 0.78186 0.25614 0.27666 0.0
C1445 C 0.77688 0.26304 0.25754 0.0
N1446 N 0.76556 0.28788 0.24502 0.0
N1447 N 0.77369 0.24583 0.31001 0.0
C1448 C 0.76506 0.27547 0.25887 0.0
C1449 C 0.77113 0.25605 0.2938 0.0
N1450 N 0.74162 0.28642 0.27631 0.0
N1451 N 0.79777 0.2532 0.28019 0.0
H1452 H 0.76605 0.24533 0.32285 0.0
H1453 H 0.78251 0.2369 0.30958 0.0
H1454 H 0.80662 0.25819 0.27065 0.0
H1455 H 0.80216 0.24907 0.29437 0.0
H1456 H 0.73754 0.29217 0.26295 0.0
H1457 H 0.73411 0.28796 0.2891 0.0
H1458 H 0.75835 0.29808 0.24614 0.0
H1459 H 0.77482 0.28897 0.23417 0.0
C1460 C 0.75443 0.27104 0.77653 0.0
C1461 C 0.76202 0.26151 0.79202 0.0
C1462 C 0.78615 0.25879 0.77 0.0
C1463 C 0.77873 0.26856 0.75466 0.0
N1464 N 0.75588 0.28364 0.74239 0.0
N1465 N 0.78563 0.24799 0.80502 0.0
C1466 C 0.76288 0.27466 0.75774 0.0
C1467 C 0.77802 0.2558 0.78912 0.0
N1468 N 0.7392 0.27675 0.78005 0.0
N1469 N 0.80082 0.25197 0.76596 0.0
H1470 H 0.77996 0.24519 0.81899 0.0
H1471 H 0.79783 0.24511 0.80505 0.0
H1472 H 0.80739 0.25438 0.75253 0.0
H1473 H 0.80615 0.24321 0.7752 0.0
H1474 H 0.73291 0.28435 0.77018 0.0
H1475 H 0.73264 0.27398 0.79337 0.0
H1476 H 0.74418 0.28806 0.74275 0.0
H1477 H 0.76181 0.28667 0.72868 0.0
C1478 C 0.77338 0.75537 0.28574 0.0
C1479 C 0.77527 0.77161 0.292 0.0
C1480 C 0.76138 0.78067 0.2602 0.0
C1481 C 0.75913 0.76437 0.25428 0.0
N1482 N 0.76115 0.73618 0.2621 0.0
N1483 N 0.7717 0.79985 0.28552 0.0
C1484 C 0.76465 0.75172 0.26726 0.0
C1485 C 0.76943 0.78431 0.27927 0.0
N1486 N 0.78048 0.74346 0.29718 0.0
N1487 N 0.75554 0.79257 0.24761 0.0
H1488 H 0.77737 0.80285 0.2994 0.0
H1489 H 0.76824 0.80994 0.27718 0.0
H1490 H 0.74949 0.79024 0.23377 0.0
H1491 H 0.75633 0.80478 0.25065 0.0
H1492 H 0.78113 0.73153 0.29257 0.0
H1493 H 0.78684 0.74568 0.31081 0.0
H1494 H 0.76316 0.7264 0.27179 0.0
H1495 H 0.75515 0.73305 0.24849 0.0
C1496 C 0.51172 0.53392 0.02804 0.0
C1497 C 0.5209 0.52613 0.04369 0.0
C1498 C 0.52262 0.50178 1.02201 0.0
C1499 C 0.5136 0.50967 1.00627 0.0
N1500 N 0.50126 0.53371 0.99283 0.0
N1501 N 0.5344 0.50257 0.05663 0.0
C1502 C 0.50856 0.52586 1.00894 0.0
C1503 C 0.52624 0.51003 0.04089 0.0
N1504 N 0.50557 0.54887 0.03179 0.0
N1505 N 0.52799 0.48647 1.01857 0.0
H1506 H 0.53758 0.50837 0.07034 0.0
H1507 H 0.53773 0.49055 0.05669 0.0
H1508 H 0.52515 0.48 1.00525 0.0
H1509 H 0.53563 0.48015 0.02839 0.0
H1510 H 0.49722 0.55459 1.02229 0.0
H1511 H 0.50811 0.55534 0.04521 0.0
H1512 H 0.49892 0.54597 0.99262 0.0
H1513 H 0.49833 0.52812 0.97888 0.0
C1514 C 0.02971 0.52993 0.52625 0.0
C1515 C 0.02195 0.52623 0.50718 0.0
C1516 C 1.00661 0.50508 0.52567 0.0
C1517 C 1.0167 0.50695 0.54324 0.0
N1518 N 0.03936 0.52009 0.55926 0.0
N1519 N 0.99636 0.51711 0.49412 0.0
C1520 C 0.02885 0.5189 0.54307 0.0
C1521 C 1.00847 0.5156 0.50832 0.0
N1522 N 0.03449 0.54524 0.53022 0.0
N1523 N 0.99538 0.49309 0.52542 0.0
H1524 H 0.99635 0.52624 0.48301 0.0
H1525 H 0.9855 0.51087 0.49498 0.0
H1526 H 0.99351 0.4854 0.53797 0.0
H1527 H 0.98893 0.48992 0.51221 0.0
H1528 H 0.03974 0.54872 0.54419 0.0
H1529 H 0.02951 0.55481 0.52199 0.0
H1530 H 0.04927 0.52779 0.55894 0.0
H1531 H 0.03898 0.51238 0.57202 0.0
C1532 C 0.02152 0.53536 1.02167 0.0
C1533 C 1.01671 0.52654 1.00391 0.0
C1534 C 0.0195 0.50119 1.0235 0.0
C1535 C 0.02424 0.51005 0.04128 0.0
N1536 N 0.02797 0.53544 0.05844 0.0
N1537 N 1.012 0.50124 0.98697 0.0
C1538 C 0.02478 0.52712 0.04064 0.0
C1539 C 1.01589 0.50947 1.00461 0.0
N1540 N 0.02356 0.55162 1.0201 0.0
N1541 N 1.01799 0.48487 0.02499 0.0
H1542 H 1.00869 0.5069 0.97319 0.0
H1543 H 1.01254 0.48883 0.98547 0.0
H1544 H 0.02084 0.47848 0.03842 0.0
H1545 H 1.01332 0.47755 1.01344 0.0
H1546 H 0.02876 0.5587 0.03154 0.0
H1547 H 0.02091 0.55808 1.00666 0.0
H1548 H 0.02673 0.5478 0.0599 0.0
H1549 H 0.03101 0.52986 0.07238 0.0
C1550 C 0.50554 0.50473 0.51297 0.0
C1551 C 0.52097 0.50658 0.50371 0.0
C1552 C 0.52858 0.52567 0.53113 0.0
C1553 C 0.51359 0.52293 0.54122 0.0
N1554 N 0.48873 0.50805 0.54347 0.0
N1555 N 0.54798 0.51706 0.50522 0.0
C1556 C 0.5023 0.51199 0.53257 0.0
C1557 C 0.53272 0.51655 0.51319 0.0
N1558 N 0.49384 0.49632 0.50277 0.0
N1559 N 0.53862 0.53742 0.53834 0.0
H1560 H 0.55136 0.51081 0.49192 0.0
H1561 H 0.55763 0.52264 0.51258 0.0
H1562 H 0.53596 0.54433 0.55136 0.0
H1563 H 0.5489 0.54125 0.53055 0.0
H1564 H 0.48181 0.49611 0.50734 0.0
H1565 H 0.49592 0.49036 0.48882 0.0
H1566 H 0.48092 0.49885 0.53923 0.0
H1567 H 0.48585 0.51317 0.55773 0.0
C1568 C 0.11004 0.36867 0.13708 0.0
C1569 C 0.11182 0.38349 0.14774 0.0
C1570 C 0.1359 0.37282 0.16536 0.0
C1571 C 0.13519 0.35879 0.15292 0.0
N1572 N 0.1223 0.34361 0.12589 0.0
N1573 N 0.12744 0.40042 0.17038 0.0
C1574 C 0.1224 0.35675 0.13853 0.0
C1575 C 0.12496 0.38571 0.16158 0.0
N1576 N 0.09629 0.36585 0.12599 0.0
N1577 N 0.14694 0.37373 0.18106 0.0
H1578 H 0.11969 0.41013 0.16818 0.0
H1579 H 0.1378 0.40342 0.17861 0.0
H1580 H 0.15541 0.36475 0.18399 0.0
H1581 H 0.14688 0.38273 0.19222 0.0
H1582 H 0.09341 0.35478 0.11953 0.0
H1583 H 0.08703 0.37427 0.1247 0.0
H1584 H 0.11442 0.34221 0.11348 0.0
H1585 H 0.13086 0.33446 0.12699 0.0
C1586 C 0.9169 0.85738 0.38712 0.0
C1587 C 0.90201 0.85886 0.39787 0.0
C1588 C 0.91228 0.88312 0.41525 0.0
C1589 C 0.92632 0.88271 0.40266 0.0
N1590 N 0.94171 0.87014 0.37556 0.0
N1591 N 0.88479 0.87406 0.42065 0.0
C1592 C 0.92859 0.86997 0.38836 0.0
C1593 C 0.89956 0.87192 0.41167 0.0
N1594 N 0.92001 0.84371 0.37614 0.0
N1595 N 0.91122 0.89408 0.43093 0.0
H1596 H 0.87522 0.8661 0.41863 0.0
H1597 H 0.88159 0.88432 0.42885 0.0
H1598 H 0.9201 0.90266 0.43378 0.0
H1599 H 0.90223 0.89386 0.44218 0.0
H1600 H 0.93117 0.84107 0.36963 0.0
H1601 H 0.91176 0.8343 0.37501 0.0
H1602 H 0.94323 0.86227 0.3632 0.0
H1603 H 0.95067 0.87889 0.37644 0.0
C1604 C 0.39971 0.66107 0.6365 0.0
C1605 C 0.4022 0.67416 0.65024 0.0
C1606 C 0.42887 0.66312 0.65951 0.0
C1607 C 0.42658 0.65036 0.64523 0.0
N1608 N 0.41135 0.63899 0.61707 0.0
N1609 N 0.42026 0.68935 0.67182 0.0
C1610 C 0.41246 0.64992 0.63278 0.0
C1611 C 0.41715 0.67568 0.66085 0.0
N1612 N 0.38489 0.65886 0.62769 0.0
N1613 N 0.44207 0.66299 0.6722 0.0
H1614 H 0.41199 0.69874 0.67302 0.0
H1615 H 0.43145 0.69203 0.67823 0.0
H1616 H 0.45104 0.65424 0.67126 0.0
H1617 H 0.44363 0.67087 0.68453 0.0
H1618 H 0.38169 0.64857 0.61954 0.0
H1619 H 0.37529 0.66677 0.6298 0.0
H1620 H 0.40229 0.6392 0.60592 0.0
H1621 H 0.42026 0.63046 0.61409 0.0
C1622 C 0.62422 0.14742 0.88657 0.0
C1623 C 0.6111 0.14973 0.90041 0.0
C1624 C 0.62188 0.17641 0.90956 0.0
C1625 C 0.63462 0.1743 0.89513 0.0
N1626 N 0.6462 0.15927 0.86697 0.0
N1627 N 0.59571 0.16751 0.92214 0.0
C1628 C 0.63523 0.16025 0.88272 0.0
C1629 C 0.60943 0.16458 0.91105 0.0
N1630 N 0.62663 0.13268 0.87781 0.0
N1631 N 0.6219 0.18954 0.92223 0.0
H1632 H 0.58638 0.15917 0.92343 0.0
H1633 H 0.59292 0.17861 0.92858 0.0
H1634 H 0.63053 0.19861 0.92115 0.0
H1635 H 0.61405 0.19097 0.93467 0.0
H1636 H 0.63697 0.12963 0.86958 0.0
H1637 H 0.61886 0.123 0.88008 0.0
H1638 H 0.64606 0.15026 0.85582 0.0
H1639 H 0.65469 0.16821 0.86396 0.0
C1640 C 0.12464 0.64736 0.38653 0.0
C1641 C 0.1116 0.64961 0.40052 0.0
C1642 C 0.1225 0.67618 0.40993 0.0
C1643 C 0.13518 0.67414 0.39538 0.0
N1644 N 0.14653 0.65932 0.36688 0.0
N1645 N 0.09636 0.66727 0.42259 0.0
C1646 C 0.13566 0.6602 0.38276 0.0
C1647 C 0.11002 0.66438 0.41136 0.0
N1648 N 0.12696 0.63269 0.37757 0.0
N1649 N 0.12262 0.68922 0.42276 0.0
H1650 H 0.08702 0.65894 0.42384 0.0
H1651 H 0.09363 0.67832 0.42919 0.0
H1652 H 0.13128 0.69826 0.42173 0.0
H1653 H 0.11483 0.69058 0.43527 0.0
H1654 H 0.13725 0.62968 0.3692 0.0
H1655 H 0.11918 0.62301 0.37978 0.0
H1656 H 0.14629 0.6504 0.35561 0.0
H1657 H 0.15501 0.66827 0.36389 0.0
C1658 C 0.60932 0.86812 0.63823 0.0
C1659 C 0.61143 0.88337 0.64771 0.0
C1660 C 0.63636 0.87356 0.66423 0.0
C1661 C 0.63523 0.85902 0.65285 0.0
N1662 N 0.62137 0.84278 0.62771 0.0
N1663 N 0.62801 0.90133 0.66779 0.0
C1664 C 0.62186 0.85636 0.63953 0.0
C1665 C 0.62519 0.88624 0.66031 0.0
N1666 N 0.59512 0.86474 0.62843 0.0
N1667 N 0.64796 0.87513 0.67913 0.0
H1668 H 0.62017 0.91094 0.66539 0.0
H1669 H 0.63873 0.90468 0.67497 0.0
H1670 H 0.65652 0.86626 0.6822 0.0
H1671 H 0.6483 0.8846 0.68962 0.0
H1672 H 0.59207 0.85338 0.62299 0.0
H1673 H 0.58571 0.87301 0.62732 0.0
H1674 H 0.61296 0.84087 0.61599 0.0
H1675 H 0.6301 0.8338 0.62864 0.0
C1676 C 0.41709 0.35755 0.88749 0.0
C1677 C 0.40216 0.35912 0.89811 0.0
C1678 C 0.41245 0.38326 0.91567 0.0
C1679 C 0.42661 0.38271 0.90332 0.0
N1680 N 0.44209 0.37011 0.87631 0.0
N1681 N 0.38483 0.37448 0.92058 0.0
C1682 C 0.42887 0.37002 0.88894 0.0
C1683 C 0.39967 0.37219 0.91186 0.0
N1684 N 0.42014 0.3439 0.87642 0.0
N1685 N 0.41133 0.39423 0.93133 0.0
H1686 H 0.37519 0.36664 0.91834 0.0
H1687 H 0.38164 0.38476 0.92873 0.0
H1688 H 0.42022 0.40277 0.93429 0.0
H1689 H 0.40223 0.39407 0.94244 0.0
H1690 H 0.43132 0.34119 0.87 0.0
H1691 H 0.41182 0.33457 0.87512 0.0
H1692 H 0.44363 0.3623 0.86391 0.0
H1693 H 0.45114 0.37877 0.87739 0.0
C1694 C 0.91321 0.14714 0.16108 0.0
C1695 C 0.92636 0.14974 0.14737 0.0
C1696 C 0.91526 0.17634 0.13832 0.0
C1697 C 0.90247 0.17395 0.15262 0.0
N1698 N 0.89097 0.15856 0.18059 0.0
N1699 N 0.94161 0.16789 0.1259 0.0
C1700 C 0.902 0.1598 0.16493 0.0
C1701 C 0.92788 0.16469 0.13686 0.0
N1702 N 0.91097 0.13231 0.16973 0.0
N1703 N 0.91513 0.18956 0.12574 0.0
H1704 H 0.95106 0.15967 0.12463 0.0
H1705 H 0.94429 0.17907 0.11958 0.0
H1706 H 0.90636 0.1985 0.12681 0.0
H1707 H 0.92302 0.1912 0.11338 0.0
H1708 H 0.90064 0.12905 0.17785 0.0
H1709 H 0.9189 0.12276 0.16747 0.0
H1710 H 0.89117 0.14946 0.19166 0.0
H1711 H 0.88236 0.16738 0.1836 0.0
C1712 C 0.91989 0.68083 0.90964 0.0
C1713 C 0.90651 0.67864 0.89615 0.0
C1714 C 0.91715 0.65215 0.88581 0.0
C1715 C 0.93017 0.65404 0.89991 0.0
N1716 N 0.9455 0.67076 0.92299 0.0
N1717 N 0.89161 0.66209 0.87235 0.0
C1718 C 0.93196 0.66858 0.91122 0.0
C1719 C 0.90503 0.66432 0.88434 0.0
N1720 N 0.92073 0.69448 0.92135 0.0
N1721 N 0.91658 0.63879 0.87354 0.0
H1722 H 0.88273 0.67083 0.87043 0.0
H1723 H 0.88866 0.65136 0.8651 0.0
H1724 H 0.92485 0.62941 0.87471 0.0
H1725 H 0.90858 0.63727 0.8613 0.0
H1726 H 0.9292 0.69648 0.93292 0.0
H1727 H 0.91238 0.70379 0.92008 0.0
H1728 H 0.94847 0.68139 0.93047 0.0
H1729 H 0.95448 0.66205 0.92438 0.0
C1730 C 0.11839 0.15188 0.63669 0.0
C1731 C 0.10389 0.1533 0.64827 0.0
C1732 C 0.11363 0.17871 0.66334 0.0
C1733 C 0.12798 0.17736 0.65143 0.0
N1734 N 0.14295 0.16443 0.62418 0.0
N1735 N 0.08694 0.16813 0.67162 0.0
C1736 C 0.13004 0.16442 0.63738 0.0
C1737 C 0.10128 0.16679 0.66131 0.0
N1738 N 0.12123 0.13823 0.6255 0.0
N1739 N 0.11198 0.19134 0.6767 0.0
H1740 H 0.07787 0.15949 0.67063 0.0
H1741 H 0.08361 0.17788 0.68067 0.0
H1742 H 0.12068 0.2003 0.67822 0.0
H1743 H 0.10233 0.19294 0.68674 0.0
H1744 H 0.13228 0.13548 0.61876 0.0
H1745 H 0.11286 0.12897 0.62407 0.0
H1746 H 0.14428 0.15646 0.61192 0.0
H1747 H 0.15186 0.17327 0.62438 0.0
C1748 C 0.62155 0.38026 0.41314 0.0
C1749 C 0.6071 0.37872 0.40143 0.0
C1750 C 0.61706 0.3532 0.38679 0.0
C1751 C 0.63175 0.35508 0.39791 0.0
N1752 N 0.64728 0.36885 0.42387 0.0
N1753 N 0.59106 0.36438 0.37654 0.0
C1754 C 0.63376 0.36818 0.41175 0.0
C1755 C 0.6048 0.36528 0.3882 0.0
N1756 N 0.62382 0.39367 0.42501 0.0
N1757 N 0.61474 0.33958 0.37537 0.0
H1758 H 0.58175 0.37276 0.37767 0.0
H1759 H 0.589 0.35586 0.3651 0.0
H1760 H 0.62345 0.3306 0.37408 0.0
H1761 H 0.60397 0.33654 0.36814 0.0
H1762 H 0.63462 0.39665 0.43219 0.0
H1763 H 0.61502 0.40248 0.42695 0.0
H1764 H 0.64894 0.37694 0.43592 0.0
H1765 H 0.65668 0.36059 0.42274 0.0
C1766 C 0.41603 0.88036 0.13474 0.0
C1767 C 0.43045 0.87885 0.14651 0.0
C1768 C 0.42041 0.85346 0.16154 0.0
C1769 C 0.40578 0.85527 0.15027 0.0
N1770 N 0.39038 0.86887 0.12396 0.0
N1771 N 0.44644 0.86464 0.17165 0.0
C1772 C 0.40383 0.86828 0.13621 0.0
C1773 C 0.4327 0.8655 0.15996 0.0
N1774 N 0.41375 0.89376 0.12278 0.0
N1775 N 0.42266 0.83995 0.17327 0.0
H1776 H 0.45578 0.87297 0.17039 0.0
H1777 H 0.44849 0.85618 0.18321 0.0
H1778 H 0.41393 0.831 0.17467 0.0
H1779 H 0.43337 0.83697 0.1807 0.0
H1780 H 0.40295 0.89671 0.11556 0.0
H1781 H 0.42251 0.9026 0.12085 0.0
H1782 H 0.38879 0.87688 0.11176 0.0
H1783 H 0.38098 0.86062 0.12512 0.0
C1784 C 0.93297 0.36546 0.65993 0.0
C1785 C 0.93074 0.37885 0.64653 0.0
C1786 C 0.90406 0.36839 0.63628 0.0
C1787 C 0.906 0.35534 0.65029 0.0
N1788 N 0.92289 0.3399 0.67314 0.0
N1789 N 0.91407 0.39383 0.62284 0.0
C1790 C 0.92066 0.35346 0.66149 0.0
C1791 C 0.91631 0.38042 0.63479 0.0
N1792 N 0.94672 0.36454 0.67159 0.0
N1793 N 0.89058 0.36905 0.62409 0.0
H1794 H 0.92288 0.40263 0.62088 0.0
H1795 H 0.90328 0.39683 0.61563 0.0
H1796 H 0.88116 0.36082 0.62526 0.0
H1797 H 0.88898 0.37709 0.61193 0.0
H1798 H 0.94875 0.35605 0.68312 0.0
H1799 H 0.95608 0.37285 0.67034 0.0
H1800 H 0.93361 0.33687 0.6805 0.0
H1801 H 0.91414 0.33097 0.67454 0.0
C1802 C 0.41602 0.15247 0.41336 0.0
C1803 C 0.43049 0.15387 0.40165 0.0
C1804 C 0.42072 0.17937 0.38666 0.0
C1805 C 0.40599 0.1776 0.39771 0.0
N1806 N 0.39036 0.1641 0.42387 0.0
N1807 N 0.44671 0.16804 0.37673 0.0
C1808 C 0.40389 0.16461 0.41177 0.0
C1809 C 0.43291 0.16725 0.3883 0.0
N1810 N 0.41365 0.13912 0.42538 0.0
N1811 N 0.42314 0.19293 0.37508 0.0
H1812 H 0.45599 0.15964 0.37804 0.0
H1813 H 0.44886 0.17651 0.36522 0.0
H1814 H 0.41449 0.20196 0.37367 0.0
H1815 H 0.43393 0.19588 0.36784 0.0
H1816 H 0.40283 0.13625 0.4326 0.0
H1817 H 0.42238 0.13025 0.42742 0.0
H1818 H 0.38864 0.15609 0.43603 0.0
H1819 H 0.38102 0.17242 0.42262 0.0
C1820 C 0.6043 0.66728 0.15897 0.0
C1821 C 0.60655 0.65391 0.14559 0.0
C1822 C 0.6331 0.66458 0.13509 0.0
C1823 C 0.63125 0.6775 0.14922 0.0
N1824 N 0.61464 0.69257 0.17272 0.0
N1825 N 0.6233 0.63901 0.12199 0.0
C1826 C 0.61668 0.67924 0.16065 0.0
C1827 C 0.62096 0.65244 0.1338 0.0
N1828 N 0.59044 0.66825 0.17039 0.0
N1829 N 0.64639 0.66413 0.12255 0.0
H1830 H 0.61458 0.63011 0.12015 0.0
H1831 H 0.63415 0.63607 0.11488 0.0
H1832 H 0.65572 0.67248 0.1235 0.0
H1833 H 0.64781 0.65622 0.11025 0.0
H1834 H 0.58814 0.67691 0.18157 0.0
H1835 H 0.58111 0.65991 0.16911 0.0
H1836 H 0.60415 0.69538 0.18071 0.0
H1837 H 0.62341 0.70148 0.1741 0.0
C1838 C 0.13226 0.86898 0.88535 0.0
C1839 C 0.13079 0.85457 0.8971 0.0
C1840 C 0.1053 0.8645 0.91212 0.0
C1841 C 0.10712 0.87914 0.90098 0.0
N1842 N 0.12074 0.89462 0.87479 0.0
N1843 N 0.11658 0.83859 0.92222 0.0
C1844 C 0.12015 0.88114 0.88692 0.0
C1845 C 0.1174 0.85228 0.91053 0.0
N1846 N 0.14565 0.87125 0.87331 0.0
N1847 N 0.0917 0.86218 0.92374 0.0
H1848 H 0.12495 0.8293 0.92095 0.0
H1849 H 0.10812 0.83655 0.93381 0.0
H1850 H 0.08269 0.87085 0.92515 0.0
H1851 H 0.08869 0.85144 0.931 0.0
H1852 H 0.14859 0.88201 0.86607 0.0
H1853 H 0.15449 0.86249 0.87126 0.0
H1854 H 0.12877 0.89628 0.86261 0.0
H1855 H 0.11247 0.90399 0.87603 0.0
C1856 C 0.28034 0.30066 1.02146 0.0
C1857 C 0.27984 0.28753 1.00746 0.0
C1858 C 0.25904 0.27453 0.02888 0.0
C1859 C 0.26006 0.28736 0.04331 0.0
N1860 N 0.27351 0.31125 0.05532 0.0
N1861 N 0.2707 0.2609 0.99912 0.0
C1862 C 0.27134 0.29996 0.04022 0.0
C1863 C 0.26975 0.27413 1.01156 0.0
N1864 N 0.28885 0.31417 1.01637 0.0
N1865 N 0.24758 0.26292 0.03156 0.0
H1866 H 0.27827 0.26035 0.98623 0.0
H1867 H 0.26494 0.25008 1.00232 0.0
H1868 H 0.24009 0.26247 0.04454 0.0
H1869 H 0.24486 0.25425 1.02051 0.0
H1870 H 0.28816 0.32487 0.02461 0.0
H1871 H 0.29568 0.31521 1.00287 0.0
H1872 H 0.28286 0.31957 0.05519 0.0
H1873 H 0.26674 0.31156 0.06892 0.0
C1874 C 1.01032 0.0272 0.26884 0.0
C1875 C 0.99796 0.02505 0.25383 0.0
C1876 C 0.98585 1.00378 0.27524 0.0
C1877 C 0.99838 1.00567 0.29004 0.0
N1878 N 0.02389 0.01716 0.2997 0.0
N1879 N 0.97555 1.00965 0.24085 0.0
C1880 C 1.01104 0.0168 0.28645 0.0
C1881 C 0.98627 1.01276 0.25643 0.0
N1882 N 0.02113 0.03945 0.26643 0.0
N1883 N 0.97312 0.99389 0.27959 0.0
H1884 H 0.97494 1.01639 0.22725 0.0
H1885 H 0.96802 0.99966 0.24061 0.0
H1886 H 0.97244 0.98688 0.29297 0.0
H1887 H 0.96264 0.99341 0.27076 0.0
H1888 H 0.02928 0.04296 0.2778 0.0
H1889 H 0.02144 0.04672 0.25325 0.0
H1890 H 0.03432 0.02379 0.29704 0.0
H1891 H 0.02464 1.00985 0.31281 0.0
C1892 C 0.25737 0.73263 0.52141 0.0
C1893 C 0.25805 0.74575 0.50732 0.0
C1894 C 0.2786 0.75875 0.52913 0.0
C1895 C 0.27745 0.7459 0.54358 0.0
N1896 N 0.2639 0.72197 0.55539 0.0
N1897 N 0.2673 0.77238 0.49904 0.0
C1898 C 0.26621 0.7333 0.54031 0.0
C1899 C 0.26809 0.75915 0.51157 0.0
N1900 N 0.24881 0.71918 0.51627 0.0
N1901 N 0.28999 0.77039 0.53201 0.0
H1902 H 0.25991 0.77292 0.48598 0.0
H1903 H 0.27301 0.7832 0.5023 0.0
H1904 H 0.2973 0.77086 0.54515 0.0
H1905 H 0.29282 0.77908 0.52099 0.0
H1906 H 0.24936 0.70847 0.52456 0.0
H1907 H 0.24204 0.71821 0.50271 0.0
H1908 H 0.25455 0.71365 0.55515 0.0
H1909 H 0.27057 0.72161 0.56907 0.0
C1910 C 0.53707 0.99957 0.77573 0.0
C1911 C 0.5388 1.00689 0.75597 0.0
C1912 C 0.5375 0.03344 0.77243 0.0
C1913 C 0.53884 0.02607 0.79221 0.0
N1914 N 0.54056 1.00199 0.8129 0.0
N1915 N 0.54133 0.03092 0.73532 0.0
C1916 C 0.53854 1.00908 0.79396 0.0
C1917 C 0.53894 0.02389 0.75422 0.0
N1918 N 0.53389 0.9835 0.77697 0.0
N1919 N 0.53473 0.04958 0.77113 0.0
H1920 H 0.54226 0.02439 0.72162 0.0
H1921 H 0.54347 0.04315 0.73337 0.0
H1922 H 0.53353 0.05682 0.78422 0.0
H1923 H 0.53209 0.05548 0.7573 0.0
H1924 H 0.53096 0.97767 0.79075 0.0
H1925 H 0.53265 0.97629 0.76386 0.0
H1926 H 0.54237 0.98971 0.81489 0.0
H1927 H 0.5415 1.00849 0.82662 0.0
C1928 C 0.76741 0.73724 1.00903 0.0
C1929 C 0.77858 0.74992 1.00594 0.0
C1930 C 0.76785 0.76369 0.03677 0.0
C1931 C 0.75784 0.75023 0.04096 0.0
N1932 N 0.74956 0.72324 0.03267 0.0
N1933 N 0.79045 0.77474 1.01736 0.0
C1934 C 0.75796 0.73679 0.02744 0.0
C1935 C 0.77905 0.76306 1.01993 0.0
N1936 N 0.7657 0.72567 0.99419 0.0
N1937 N 0.76638 0.77718 0.04865 0.0
H1938 H 0.79834 0.77495 1.00478 0.0
H1939 H 0.79271 0.78371 0.02818 0.0
H1940 H 0.75848 0.77789 0.06119 0.0
H1941 H 0.77208 0.788 0.04529 0.0
H1942 H 0.75648 0.71719 0.99427 0.0
H1943 H 0.77269 0.72529 0.98078 0.0
H1944 H 0.75068 0.71238 0.02487 0.0
H1945 H 0.7424 0.72237 0.04591 0.0
C1946 C 0.03939 0.02261 0.79571 0.0
C1947 C 0.03395 1.00649 0.79394 0.0
C1948 C 0.02842 1.01083 0.75688 0.0
C1949 C 0.03372 0.02697 0.75875 0.0
N1950 N 0.03982 0.04939 0.78086 0.0
N1951 N 0.01944 0.98659 0.7744 0.0
C1952 C 0.03773 0.03322 0.77852 0.0
C1953 C 0.02719 1.00105 0.77498 0.0
N1954 N 0.04702 0.02756 0.81334 0.0
N1955 N 0.0253 1.00461 0.73772 0.0
H1956 H 1.01823 0.97927 0.78745 0.0
H1957 H 1.01292 0.98257 0.76163 0.0
H1958 H 0.02586 1.01143 0.72417 0.0
H1959 H 0.02322 0.99246 0.73507 0.0
H1960 H 0.05291 0.03855 0.81458 0.0
H1961 H 0.04861 0.02021 0.82627 0.0
H1962 H 0.04116 0.05491 0.79523 0.0
H1963 H 0.0386 0.05748 0.76859 0.0
C1964 C 0.75877 0.27046 0.52038 0.0
C1965 C 0.75913 0.28353 0.50619 0.0
C1966 C 0.7796 0.29697 0.52757 0.0
C1967 C 0.77984 0.28359 0.54126 0.0
N1968 N 0.77158 0.25658 0.54926 0.0
N1969 N 0.77179 0.30786 0.49417 0.0
C1970 C 0.76996 0.27001 0.53723 0.0
C1971 C 0.77018 0.29633 0.50914 0.0
N1972 N 0.74748 0.25867 0.51796 0.0
N1973 N 0.78783 0.31064 0.53268 0.0
H1974 H 0.76479 0.30813 0.48076 0.0
H1975 H 0.78094 0.31641 0.49416 0.0
H1976 H 0.79491 0.31165 0.54596 0.0
H1977 H 0.78662 0.32145 0.52472 0.0
H1978 H 0.74528 0.24975 0.52892 0.0
H1979 H 0.7396 0.25831 0.50537 0.0
H1980 H 0.766 0.24569 0.546 0.0
H1981 H 0.7795 0.25598 0.56179 0.0
C1982 C 0.51482 1.01608 0.28787 0.0
C1983 C 0.5023 0.02758 0.29022 0.0
C1984 C 0.49096 0.01948 0.25657 0.0
C1985 C 0.50238 1.00682 0.25532 0.0
N1986 N 0.52465 0.99226 0.27015 0.0
N1987 N 0.47726 0.03898 0.27814 0.0
C1988 C 0.51422 1.00494 0.27106 0.0
C1989 C 0.49012 0.02903 0.27483 0.0
N1990 N 0.52746 1.01609 0.30146 0.0
N1991 N 0.48093 0.02244 0.24019 0.0
H1992 H 0.47611 0.04618 0.29126 0.0
H1993 H 0.46705 0.03918 0.26878 0.0
H1994 H 0.48078 1.01541 0.22684 0.0
H1995 H 0.47368 0.0326 0.23904 0.0
H1996 H 0.53779 1.00917 0.29956 0.0
H1997 H 0.52816 0.02399 0.31395 0.0
H1998 H 0.53234 0.98902 0.2822 0.0
H1999 H 0.52502 0.98437 0.25763 0.0
C2000 C 0.76816 0.7741 0.53675 0.0
C2001 C 0.7581 0.78749 0.54102 0.0
C2002 C 0.76619 0.79995 0.50802 0.0
C2003 C 0.77748 0.78738 0.50476 0.0
N2004 N 0.79007 0.7629 0.5163 0.0
N2005 N 0.74876 0.81403 0.53206 0.0
C2006 C 0.77866 0.77452 0.51919 0.0
C2007 C 0.75736 0.8006 0.52692 0.0
N2008 N 0.76738 0.76086 0.54926 0.0
N2009 N 0.76384 0.81126 0.49293 0.0
H2010 H 0.74199 0.81498 0.54562 0.0
H2011 H 0.74928 0.82474 0.52376 0.0
H2012 H 0.7705 0.81163 0.47924 0.0
H2013 H 0.75447 0.81957 0.49317 0.0
H2014 H 0.77311 0.75005 0.54598 0.0
H2015 H 0.76 0.7603 0.56232 0.0
H2016 H 0.79291 0.7542 0.5273 0.0
H2017 H 0.79738 0.76245 0.50316 0.0
C2018 C 0.50788 0.50358 0.77632 0.0
C2019 C 0.49868 0.5082 0.79394 0.0
C2020 C 0.49582 0.53507 0.77882 0.0
C2021 C 0.50126 0.52923 0.75938 0.0
N2022 N 0.52397 0.5136 0.74801 0.0
N2023 N 0.48343 0.52874 0.81167 0.0
C2024 C 0.51053 0.51488 0.76001 0.0
C2025 C 0.49273 0.52414 0.79526 0.0
N2026 N 0.51428 0.48851 0.7752 0.0
N2027 N 0.49538 0.55122 0.78227 0.0
H2028 H 0.48058 0.52111 0.82396 0.0
H2029 H 0.47744 0.53974 0.81212 0.0
H2030 H 0.49952 0.55941 0.77121 0.0
H2031 H 0.49295 0.55621 0.79673 0.0
H2032 H 0.51953 0.48402 0.76173 0.0
H2033 H 0.51356 0.48026 0.78734 0.0
H2034 H 0.53186 0.50388 0.74874 0.0
H2035 H 0.52882 0.52363 0.74059 0.0
C2036 C 0.76942 0.25852 0.03621 0.0
C2037 C 0.77953 0.24516 0.04049 0.0
C2038 C 0.77139 0.23268 1.0076 0.0
C2039 C 0.76007 0.24522 1.00433 0.0
N2040 N 0.74738 0.26962 1.01583 0.0
N2041 N 0.78885 0.21861 0.03169 0.0
C2042 C 0.75887 0.25806 1.01871 0.0
C2043 C 0.78025 0.23204 0.02648 0.0
N2044 N 0.77019 0.27176 0.04864 0.0
N2045 N 0.77376 0.2214 0.99254 0.0
H2046 H 0.79561 0.21765 0.04525 0.0
H2047 H 0.78832 0.2079 1.02344 0.0
H2048 H 0.76711 0.22106 0.97884 0.0
H2049 H 0.78315 0.21311 0.99281 0.0
H2050 H 0.7644 0.28255 0.04534 0.0
H2051 H 0.77761 0.27235 0.06167 0.0
H2052 H 0.74454 0.2783 0.02681 0.0
H2053 H 0.74002 0.27004 1.00273 0.0
C2054 C 0.03207 0.53089 0.27416 0.0
C2055 C 0.03922 0.52507 0.29275 0.0
C2056 C 0.03892 0.49796 0.27805 0.0
C2057 C 0.03596 0.50447 0.25804 0.0
N2058 N 1.01678 0.52319 0.24397 0.0
N2059 N 0.0495 0.50253 0.31238 0.0
C2060 C 0.02892 0.52001 0.2576 0.0
C2061 C 0.04242 0.5084 0.29483 0.0
N2062 N 0.02812 0.54673 0.27229 0.0
N2063 N 0.03648 0.48199 0.28149 0.0
H2064 H 0.05247 0.50972 0.32503 0.0
H2065 H 0.0536 0.49074 0.3136 0.0
H2066 H 0.03191 0.4745 0.26993 0.0
H2067 H 0.03699 0.47677 0.29617 0.0
H2068 H 0.02454 0.55185 0.25828 0.0
H2069 H 0.02925 0.55487 0.28447 0.0
H2070 H 1.01032 0.53392 0.24387 0.0
H2071 H 1.01128 0.51398 0.23561 0.0
C2072 C 0.27265 0.23936 0.53872 0.0
C2073 C 0.26225 0.25265 0.54198 0.0
C2074 C 0.27248 0.26537 0.51012 0.0
C2075 C 0.28191 0.25148 0.50607 0.0
N2076 N 0.289 0.22417 0.51459 0.0
N2077 N 0.2508 0.27756 0.53 0.0
C2078 C 0.28149 0.2382 0.5199 0.0
C2079 C 0.26177 0.26547 0.52745 0.0
N2080 N 0.27416 0.22784 0.55374 0.0
N2081 N 0.27409 0.27856 0.49767 0.0
H2082 H 0.24329 0.27834 0.54292 0.0
H2083 H 0.24847 0.2863 0.51885 0.0
H2084 H 0.28162 0.27875 0.48473 0.0
H2085 H 0.26887 0.28964 0.50088 0.0
H2086 H 0.28293 0.21891 0.55345 0.0
H2087 H 0.26748 0.2279 0.56742 0.0
H2088 H 0.28758 0.21347 0.52273 0.0
H2089 H 0.29561 0.22278 0.50097 0.0
C2090 C 0.52189 0.51584 0.2868 0.0
C2091 C 0.53518 0.50545 0.29052 0.0
C2092 C 0.54784 0.51458 0.25809 0.0
C2093 C 0.53539 0.52609 0.25542 0.0
N2094 N 0.5111 0.53868 0.26774 0.0
N2095 N 0.56184 0.49639 0.28129 0.0
C2096 C 0.52252 0.52696 0.26991 0.0
C2097 C 0.54839 0.50516 0.27651 0.0
N2098 N 0.50856 0.51479 0.29917 0.0
N2099 N 0.55911 0.51254 0.24285 0.0
H2100 H 0.56277 0.48926 0.29454 0.0
H2101 H 0.57261 0.49716 0.27308 0.0
H2102 H 0.55944 0.51951 0.22942 0.0
H2103 H 0.56733 0.5031 0.24266 0.0
H2104 H 0.49781 0.52079 0.29618 0.0
H2105 H 0.50785 0.50694 0.31175 0.0
H2106 H 0.50241 0.54122 0.27889 0.0
H2107 H 0.51085 0.54654 0.25513 0.0
C2108 C 0.27035 0.79582 1.00858 0.0
C2109 C 0.25933 0.78297 1.00575 0.0
C2110 C 0.27036 0.76954 0.03674 0.0
C2111 C 0.28017 0.78318 0.04068 0.0
N2112 N 0.288 0.81025 0.03196 0.0
N2113 N 0.24786 0.75806 1.01763 0.0
C2114 C 0.27983 0.79653 0.02695 0.0
C2115 C 0.2591 0.76991 1.01995 0.0
N2116 N 0.27185 0.80732 0.99355 0.0
N2117 N 0.27209 0.75613 0.04877 0.0
H2118 H 0.23995 0.75764 1.00508 0.0
H2119 H 0.24575 0.74914 0.02861 0.0
H2120 H 0.28007 0.75559 0.06125 0.0
H2121 H 0.26656 0.74521 0.04558 0.0
H2122 H 0.28097 0.81591 0.99345 0.0
H2123 H 0.2648 0.80753 0.98018 0.0
H2124 H 0.28671 0.82104 1.02397 0.0
H2125 H 0.29512 0.81133 0.0452 0.0
C2126 C 1.00714 0.53275 0.77227 0.0
C2127 C 1.00326 0.52642 0.79211 0.0
C2128 C 1.0026 0.4993 0.77715 0.0
C2129 C 1.00355 0.50598 0.75694 0.0
N2130 N 1.00602 0.52929 0.73497 0.0
N2131 N 0.99623 0.50362 0.81338 0.0
C2132 C 1.00586 0.52276 0.75441 0.0
C2133 C 1.00093 0.50963 0.79461 0.0
N2134 N 1.01222 0.5483 0.7706 0.0
N2135 N 1.00344 0.48302 0.77964 0.0
H2136 H 0.99492 0.51071 0.82655 0.0
H2137 H 0.9925 0.4918 0.81556 0.0
H2138 H 1.00476 0.47518 0.76717 0.0
H2139 H 1.00442 0.47744 0.79403 0.0
H2140 H 1.01673 0.55324 0.75694 0.0
H2141 H 1.0134 0.55582 0.78342 0.0
H2142 H 1.00575 0.5416 0.73214 0.0
H2143 H 1.00532 0.52239 0.72154 0.0
loop_
_geom_bond_atom_site_label_1
_geom_bond_atom_site_label_2
_geom_bond_distance
_geom_bond_site_symmetry_2
_ccdc_geom_bond_type
C0 C1 1.264 . S
C0 C5 1.479 . S
C0 C10 1.465 . S
C1 C0 1.264 . S
C1 C3 1.339 . S
C1 H28 0.931 . S
C2 C3 1.395 . S
C2 C4 1.320 . S
C3 C1 1.339 . S
C3 C2 1.395 . S
C3 H29 0.929 . S
C4 C2 1.320 . S
C4 C5 1.405 . S
C4 H30 0.930 . S
C5 C0 1.479 . S
C5 C4 1.405 . S
C5 H31 0.931 . S
U6 O7 2.454 . S
U6 O8 2.458 . S
U6 C9 2.984 . S
U6 C10 2.847 . S
U6 C23 2.882 . S
U6 O24 2.441 . S
U6 O25 2.420 . S
U6 O26 2.455 . S
U6 O27 2.449 . S
O7 U6 2.454 . S
O7 C9 1.353 . S
O8 U6 2.458 . S
O8 C9 1.286 . S
C9 U6 2.984 . S
C9 O7 1.353 . S
C9 O8 1.286 . S
C9 C11 1.363 . S
C10 C0 1.465 . S
C10 U6 2.847 . S
C10 O24 1.249 . S
C10 O25 1.202 . S
C11 C9 1.363 . S
C11 C13 1.408 . S
C11 C16 1.342 . S
C12 C13 1.310 . S
C12 C15 1.461 . S
C12 H32 0.932 . S
C13 C11 1.408 . S
C13 C12 1.310 . S
C13 H33 0.930 . S
C14 C15 1.474 . S
C14 C16 1.285 . S
C14 H34 0.929 . S
C15 C12 1.461 . S
C15 C14 1.474 . S
C16 C11 1.342 . S
C16 C14 1.285 . S
C16 H35 0.930 . S
C17 C20 1.424 . S
C17 C22 1.245 . S
C17 C23 1.428 . S
C18 C21 1.260 . S
C18 C22 1.477 . S
C18 H36 0.932 . S
C19 C20 1.384 . S
C19 C21 1.479 . S
C19 H37 0.929 . S
C20 C17 1.424 . S
C20 C19 1.384 . S
C20 H38 0.928 . S
C21 C18 1.260 . S
C21 C19 1.479 . S
C22 C17 1.245 . S
C22 C18 1.477 . S
C22 H39 0.932 . S
C23 U6 2.882 . S
C23 C17 1.428 . S
C23 O26 1.301 . S
C23 O27 1.282 . S
O24 U6 2.441 . S
O24 C10 1.249 . S
O25 U6 2.420 . S
O25 C10 1.202 . S
O26 U6 2.455 . S
O26 C23 1.301 . S
O27 U6 2.449 . S
O27 C23 1.282 . S
H28 C1 0.931 . S
H29 C3 0.929 . S
H30 C4 0.930 . S
H31 C5 0.931 . S
H32 C12 0.932 . S
H33 C13 0.930 . S
H34 C14 0.929 . S
H35 C16 0.930 . S
H36 C18 0.932 . S
H37 C19 0.929 . S
H38 C20 0.928 . S
H39 C22 0.932 . S
C40 C41 1.264 . S
C40 C45 1.479 . S
C40 C50 1.465 . S
C41 C40 1.264 . S
C41 C43 1.339 . S
C41 H68 0.931 . S
C42 C43 1.395 . S
C42 C44 1.320 . S
C43 C41 1.339 . S
C43 C42 1.395 . S
C43 H69 0.929 . S
C44 C42 1.320 . S
C44 C45 1.405 . S
C44 H70 0.930 . S
C45 C40 1.479 . S
C45 C44 1.405 . S
C45 H71 0.931 . S
U46 O47 2.454 . S
U46 O48 2.458 . S
U46 C49 2.984 . S
U46 C50 2.847 . S
U46 C63 2.882 . S
U46 O64 2.441 . S
U46 O65 2.420 . S
U46 O66 2.455 . S
U46 O67 2.449 . S
O47 U46 2.454 . S
O47 C49 1.353 . S
O48 U46 2.458 . S
O48 C49 1.286 . S
C49 U46 2.984 . S
C49 O47 1.353 . S
C49 O48 1.286 . S
C49 C51 1.363 . S
C50 C40 1.465 . S
C50 U46 2.847 . S
C50 O64 1.249 . S
C50 O65 1.202 . S
C51 C49 1.363 . S
C51 C53 1.408 . S
C51 C56 1.342 1_655 S
C52 C53 1.310 . S
C52 C55 1.461 1_655 S
C52 H72 0.932 . S
C53 C51 1.408 . S
C53 C52 1.310 . S
C53 H73 0.930 . S
C54 C55 1.474 . S
C54 C56 1.285 . S
C54 H74 0.929 . S
C55 C52 1.461 1_455 S
C55 C54 1.474 . S
C56 C51 1.342 1_455 S
C56 C54 1.285 . S
C56 H75 0.930 . S
C57 C60 1.424 . S
C57 C62 1.245 . S
C57 C63 1.428 . S
C58 C61 1.260 . S
C58 C62 1.477 . S
C58 H76 0.932 . S
C59 C60 1.384 . S
C59 C61 1.479 . S
C59 H77 0.929 . S
C60 C57 1.424 . S
C60 C59 1.384 . S
C60 H78 0.928 . S
C61 C58 1.260 . S
C61 C59 1.479 . S
C62 C57 1.245 . S
C62 C58 1.477 . S
C62 H79 0.932 . S
C63 U46 2.882 . S
C63 C57 1.428 . S
C63 O66 1.301 . S
C63 O67 1.282 . S
O64 U46 2.441 . S
O64 C50 1.249 . S
O65 U46 2.420 . S
O65 C50 1.202 . S
O66 U46 2.455 . S
O66 C63 1.301 . S
O67 U46 2.449 . S
O67 C63 1.282 . S
H68 C41 0.931 . S
H69 C43 0.929 . S
H70 C44 0.930 . S
H71 C45 0.931 . S
H72 C52 0.932 . S
H73 C53 0.930 . S
H74 C54 0.929 . S
H75 C56 0.930 . S
H76 C58 0.932 . S
H77 C59 0.929 . S
H78 C60 0.928 . S
H79 C62 0.932 . S
C80 C81 1.264 . S
C80 C85 1.479 . S
C80 C90 1.465 . S
C81 C80 1.264 . S
C81 C83 1.339 . S
C81 H108 0.931 . S
C82 C83 1.395 . S
C82 C84 1.320 . S
C83 C81 1.339 . S
C83 C82 1.395 . S
C83 H109 0.929 . S
C84 C82 1.320 . S
C84 C85 1.405 . S
C84 H110 0.930 . S
C85 C80 1.479 . S
C85 C84 1.405 . S
C85 H111 0.931 . S
U86 O87 2.454 . S
U86 O88 2.458 . S
U86 C89 2.984 . S
U86 C90 2.847 . S
U86 C103 2.882 . S
U86 O104 2.441 . S
U86 O105 2.420 . S
U86 O106 2.455 . S
U86 O107 2.449 . S
O87 U86 2.454 . S
O87 C89 1.353 . S
O88 U86 2.458 . S
O88 C89 1.286 . S
C89 U86 2.984 . S
C89 O87 1.353 . S
C89 O88 1.286 . S
C89 C91 1.363 . S
C90 C80 1.465 . S
C90 U86 2.847 . S
C90 O104 1.249 . S
C90 O105 1.202 . S
C91 C89 1.363 . S
C91 C93 1.408 . S
C91 C96 1.342 . S
C92 C93 1.310 . S
C92 C95 1.461 . S
C92 H112 0.932 . S
C93 C91 1.408 . S
C93 C92 1.310 . S
C93 H113 0.930 . S
C94 C95 1.474 . S
C94 C96 1.285 . S
C94 H114 0.929 . S
C95 C92 1.461 . S
C95 C94 1.474 . S
C96 C91 1.342 . S
C96 C94 1.285 . S
C96 H115 0.930 . S
C97 C100 1.424 . S
C97 C102 1.245 . S
C97 C103 1.428 . S
C98 C101 1.260 . S
C98 C102 1.477 . S
C98 H116 0.932 . S
C99 C100 1.384 . S
C99 C101 1.479 . S
C99 H117 0.929 . S
C100 C97 1.424 . S
C100 C99 1.384 . S
C100 H118 0.928 . S
C101 C98 1.260 . S
C101 C99 1.479 . S
C102 C97 1.245 . S
C102 C98 1.477 . S
C102 H119 0.932 . S
C103 U86 2.882 . S
C103 C97 1.428 . S
C103 O106 1.301 . S
C103 O107 1.282 . S
O104 U86 2.441 . S
O104 C90 1.249 . S
O105 U86 2.420 . S
O105 C90 1.202 . S
O106 U86 2.455 . S
O106 C103 1.301 . S
O107 U86 2.449 . S
O107 C103 1.282 . S
H108 C81 0.931 . S
H109 C83 0.929 . S
H110 C84 0.930 . S
H111 C85 0.931 . S
H112 C92 0.932 . S
H113 C93 0.930 . S
H114 C94 0.929 . S
H115 C96 0.930 . S
H116 C98 0.932 . S
H117 C99 0.929 . S
H118 C100 0.928 . S
H119 C102 0.932 . S
C120 C121 1.264 . S
C120 C125 1.479 . S
C120 C130 1.465 . S
C121 C120 1.264 . S
C121 C123 1.339 . S
C121 H148 0.931 . S
C122 C123 1.395 . S
C122 C124 1.320 . S
C123 C121 1.339 . S
C123 C122 1.395 . S
C123 H149 0.929 . S
C124 C122 1.320 . S
C124 C125 1.405 . S
C124 H150 0.930 . S
C125 C120 1.479 . S
C125 C124 1.405 . S
C125 H151 0.931 . S
U126 O127 2.454 . S
U126 O128 2.458 . S
U126 C129 2.984 . S
U126 C130 2.847 . S
U126 C143 2.882 . S
U126 O144 2.441 . S
U126 O145 2.420 . S
U126 O146 2.455 . S
U126 O147 2.449 . S
O127 U126 2.454 . S
O127 C129 1.353 . S
O128 U126 2.458 . S
O128 C129 1.286 . S
C129 U126 2.984 . S
C129 O127 1.353 . S
C129 O128 1.286 . S
C129 C131 1.363 . S
C130 C120 1.465 . S
C130 U126 2.847 . S
C130 O144 1.249 . S
C130 O145 1.202 . S
C131 C129 1.363 . S
C131 C133 1.408 . S
C131 C136 1.342 . S
C132 C133 1.310 . S
C132 C135 1.461 . S
C132 H152 0.932 . S
C133 C131 1.408 . S
C133 C132 1.310 . S
C133 H153 0.930 . S
C134 C135 1.474 . S
C134 C136 1.285 . S
C134 H154 0.929 . S
C135 C132 1.461 . S
C135 C134 1.474 . S
C136 C131 1.342 . S
C136 C134 1.285 . S
C136 H155 0.930 . S
C137 C140 1.424 . S
C137 C142 1.245 . S
C137 C143 1.428 . S
C138 C141 1.260 . S
C138 C142 1.477 . S
C138 H156 0.932 . S
C139 C140 1.384 . S
C139 C141 1.479 . S
C139 H157 0.929 . S
C140 C137 1.424 . S
C140 C139 1.384 . S
C140 H158 0.928 . S
C141 C138 1.260 . S
C141 C139 1.479 . S
C142 C137 1.245 . S
C142 C138 1.477 . S
C142 H159 0.932 . S
C143 U126 2.882 . S
C143 C137 1.428 . S
C143 O146 1.301 . S
C143 O147 1.282 . S
O144 U126 2.441 . S
O144 C130 1.249 . S
O145 U126 2.420 . S
O145 C130 1.202 . S
O146 U126 2.455 . S
O146 C143 1.301 . S
O147 U126 2.449 . S
O147 C143 1.282 . S
H148 C121 0.931 . S
H149 C123 0.929 . S
H150 C124 0.930 . S
H151 C125 0.931 . S
H152 C132 0.932 . S
H153 C133 0.930 . S
H154 C134 0.929 . S
H155 C136 0.930 . S
H156 C138 0.932 . S
H157 C139 0.929 . S
H158 C140 0.928 . S
H159 C142 0.932 . S
C160 C161 1.264 . S
C160 C165 1.479 . S
C160 C170 1.465 . S
C161 C160 1.264 . S
C161 C163 1.339 . S
C161 H188 0.931 . S
C162 C163 1.395 . S
C162 C164 1.320 . S
C163 C161 1.339 . S
C163 C162 1.395 . S
C163 H189 0.929 . S
C164 C162 1.320 . S
C164 C165 1.405 . S
C164 H190 0.930 . S
C165 C160 1.479 . S
C165 C164 1.405 . S
C165 H191 0.931 . S
U166 O167 2.454 . S
U166 O168 2.458 . S
U166 C169 2.984 . S
U166 C170 2.847 . S
U166 C183 2.882 . S
U166 O184 2.441 . S
U166 O185 2.420 . S
U166 O186 2.455 . S
U166 O187 2.449 . S
O167 U166 2.454 . S
O167 C169 1.353 . S
O168 U166 2.458 . S
O168 C169 1.286 . S
C169 U166 2.984 . S
C169 O167 1.353 . S
C169 O168 1.286 . S
C169 C171 1.363 . S
C170 C160 1.465 . S
C170 U166 2.847 . S
C170 O184 1.249 . S
C170 O185 1.202 . S
C171 C169 1.363 . S
C171 C173 1.408 . S
C171 C176 1.342 . S
C172 C173 1.310 . S
C172 C175 1.461 . S
C172 H192 0.932 . S
C173 C171 1.408 . S
C173 C172 1.310 . S
C173 H193 0.930 . S
C174 C175 1.474 . S
C174 C176 1.285 . S
C174 H194 0.929 . S
C175 C172 1.461 . S
C175 C174 1.474 . S
C176 C171 1.342 . S
C176 C174 1.285 . S
C176 H195 0.930 . S
C177 C180 1.424 . S
C177 C182 1.245 . S
C177 C183 1.428 . S
C178 C181 1.260 . S
C178 C182 1.477 . S
C178 H196 0.932 . S
C179 C180 1.384 . S
C179 C181 1.479 . S
C179 H197 0.929 . S
C180 C177 1.424 . S
C180 C179 1.384 . S
C180 H198 0.928 . S
C181 C178 1.260 . S
C181 C179 1.479 . S
C182 C177 1.245 . S
C182 C178 1.477 . S
C182 H199 0.932 . S
C183 U166 2.882 . S
C183 C177 1.428 . S
C183 O186 1.301 . S
C183 O187 1.282 . S
O184 U166 2.441 . S
O184 C170 1.249 . S
O185 U166 2.420 . S
O185 C170 1.202 . S
O186 U166 2.455 . S
O186 C183 1.301 . S
O187 U166 2.449 . S
O187 C183 1.282 . S
H188 C161 0.931 . S
H189 C163 0.929 . S
H190 C164 0.930 . S
H191 C165 0.931 . S
H192 C172 0.932 . S
H193 C173 0.930 . S
H194 C174 0.929 . S
H195 C176 0.930 . S
H196 C178 0.932 . S
H197 C179 0.929 . S
H198 C180 0.928 . S
H199 C182 0.932 . S
C200 C201 1.264 . S
C200 C205 1.479 . S
C200 C210 1.465 . S
C201 C200 1.264 . S
C201 C203 1.339 . S
C201 H228 0.931 . S
C202 C203 1.395 . S
C202 C204 1.320 . S
C203 C201 1.339 . S
C203 C202 1.395 . S
C203 H229 0.929 . S
C204 C202 1.320 . S
C204 C205 1.405 . S
C204 H230 0.930 . S
C205 C200 1.479 . S
C205 C204 1.405 . S
C205 H231 0.931 . S
U206 O207 2.454 . S
U206 O208 2.458 . S
U206 C209 2.984 . S
U206 C210 2.847 . S
U206 C223 2.882 . S
U206 O224 2.441 . S
U206 O225 2.420 . S
U206 O226 2.455 . S
U206 O227 2.449 . S
O207 U206 2.454 . S
O207 C209 1.353 . S
O208 U206 2.458 . S
O208 C209 1.286 . S
C209 U206 2.984 . S
C209 O207 1.353 . S
C209 O208 1.286 . S
C209 C211 1.363 . S
C210 C200 1.465 . S
C210 U206 2.847 . S
C210 O224 1.249 . S
C210 O225 1.202 . S
C211 C209 1.363 . S
C211 C213 1.408 . S
C211 C216 1.342 . S
C212 C213 1.310 . S
C212 C215 1.461 . S
C212 H232 0.932 . S
C213 C211 1.408 . S
C213 C212 1.310 . S
C213 H233 0.930 . S
C214 C215 1.474 . S
C214 C216 1.285 . S
C214 H234 0.929 . S
C215 C212 1.461 . S
C215 C214 1.474 . S
C216 C211 1.342 . S
C216 C214 1.285 . S
C216 H235 0.930 . S
C217 C220 1.424 . S
C217 C222 1.245 . S
C217 C223 1.428 . S
C218 C221 1.260 . S
C218 C222 1.477 . S
C218 H236 0.932 . S
C219 C220 1.384 . S
C219 C221 1.479 . S
C219 H237 0.929 . S
C220 C217 1.424 . S
C220 C219 1.384 . S
C220 H238 0.928 . S
C221 C218 1.260 . S
C221 C219 1.479 . S
C222 C217 1.245 . S
C222 C218 1.477 . S
C222 H239 0.932 . S
C223 U206 2.882 . S
C223 C217 1.428 . S
C223 O226 1.301 . S
C223 O227 1.282 . S
O224 U206 2.441 . S
O224 C210 1.249 . S
O225 U206 2.420 . S
O225 C210 1.202 . S
O226 U206 2.455 . S
O226 C223 1.301 . S
O227 U206 2.449 . S
O227 C223 1.282 . S
H228 C201 0.931 . S
H229 C203 0.929 . S
H230 C204 0.930 . S
H231 C205 0.931 . S
H232 C212 0.932 . S
H233 C213 0.930 . S
H234 C214 0.929 . S
H235 C216 0.930 . S
H236 C218 0.932 . S
H237 C219 0.929 . S
H238 C220 0.928 . S
H239 C222 0.932 . S
C240 C241 1.264 . S
C240 C245 1.479 . S
C240 C250 1.465 . S
C241 C240 1.264 . S
C241 C243 1.339 . S
C241 H268 0.931 . S
C242 C243 1.395 . S
C242 C244 1.320 . S
C243 C241 1.339 . S
C243 C242 1.395 . S
C243 H269 0.929 . S
C244 C242 1.320 . S
C244 C245 1.405 . S
C244 H270 0.930 . S
C245 C240 1.479 . S
C245 C244 1.405 . S
C245 H271 0.931 . S
U246 O247 2.454 . S
U246 O248 2.458 . S
U246 C249 2.984 . S
U246 C250 2.847 . S
U246 C263 2.882 . S
U246 O264 2.441 . S
U246 O265 2.420 . S
U246 O266 2.455 . S
U246 O267 2.449 . S
O247 U246 2.454 . S
O247 C249 1.353 . S
O248 U246 2.458 . S
O248 C249 1.286 . S
C249 U246 2.984 . S
C249 O247 1.353 . S
C249 O248 1.286 . S
C249 C251 1.363 . S
C250 C240 1.465 . S
C250 U246 2.847 . S
C250 O264 1.249 . S
C250 O265 1.202 . S
C251 C249 1.363 . S
C251 C253 1.408 . S
C251 C256 1.342 . S
C252 C253 1.310 . S
C252 C255 1.461 . S
C252 H272 0.932 . S
C253 C251 1.408 . S
C253 C252 1.310 . S
C253 H273 0.930 . S
C254 C255 1.474 . S
C254 C256 1.285 . S
C254 H274 0.929 . S
C255 C252 1.461 . S
C255 C254 1.474 . S
C256 C251 1.342 . S
C256 C254 1.285 . S
C256 H275 0.930 . S
C257 C260 1.424 . S
C257 C262 1.245 . S
C257 C263 1.428 . S
C258 C261 1.260 . S
C258 C262 1.477 . S
C258 H276 0.932 . S
C259 C260 1.384 . S
C259 C261 1.479 . S
C259 H277 0.929 . S
C260 C257 1.424 . S
C260 C259 1.384 . S
C260 H278 0.928 . S
C261 C258 1.260 . S
C261 C259 1.479 . S
C262 C257 1.245 . S
C262 C258 1.477 . S
C262 H279 0.932 . S
C263 U246 2.882 . S
C263 C257 1.428 . S
C263 O266 1.301 . S
C263 O267 1.282 . S
O264 U246 2.441 . S
O264 C250 1.249 . S
O265 U246 2.420 . S
O265 C250 1.202 . S
O266 U246 2.455 . S
O266 C263 1.301 . S
O267 U246 2.449 . S
O267 C263 1.282 . S
H268 C241 0.931 . S
H269 C243 0.929 . S
H270 C244 0.930 . S
H271 C245 0.931 . S
H272 C252 0.932 . S
H273 C253 0.930 . S
H274 C254 0.929 . S
H275 C256 0.930 . S
H276 C258 0.932 . S
H277 C259 0.929 . S
H278 C260 0.928 . S
H279 C262 0.932 . S
C280 C281 1.264 . S
C280 C285 1.479 . S
C280 C290 1.465 . S
C281 C280 1.264 . S
C281 C283 1.339 . S
C281 H308 0.931 . S
C282 C283 1.395 . S
C282 C284 1.320 . S
C283 C281 1.339 . S
C283 C282 1.395 . S
C283 H309 0.929 . S
C284 C282 1.320 . S
C284 C285 1.405 . S
C284 H310 0.930 . S
C285 C280 1.479 . S
C285 C284 1.405 . S
C285 H311 0.931 . S
U286 O287 2.454 . S
U286 O288 2.458 . S
U286 C289 2.984 . S
U286 C290 2.847 . S
U286 C303 2.882 . S
U286 O304 2.441 . S
U286 O305 2.420 . S
U286 O306 2.455 . S
U286 O307 2.449 . S
O287 U286 2.454 . S
O287 C289 1.353 . S
O288 U286 2.458 . S
O288 C289 1.286 . S
C289 U286 2.984 . S
C289 O287 1.353 . S
C289 O288 1.286 . S
C289 C291 1.363 . S
C290 C280 1.465 . S
C290 U286 2.847 . S
C290 O304 1.249 . S
C290 O305 1.202 . S
C291 C289 1.363 . S
C291 C293 1.408 . S
C291 C296 1.342 1_655 S
C292 C293 1.310 . S
C292 C295 1.461 1_655 S
C292 H312 0.932 . S
C293 C291 1.408 . S
C293 C292 1.310 . S
C293 H313 0.930 . S
C294 C295 1.474 . S
C294 C296 1.285 . S
C294 H314 0.929 . S
C295 C292 1.461 1_455 S
C295 C294 1.474 . S
C296 C291 1.342 1_455 S
C296 C294 1.285 . S
C296 H315 0.930 . S
C297 C300 1.424 . S
C297 C302 1.245 . S
C297 C303 1.428 . S
C298 C301 1.260 . S
C298 C302 1.477 . S
C298 H316 0.932 . S
C299 C300 1.384 . S
C299 C301 1.479 . S
C299 H317 0.929 . S
C300 C297 1.424 . S
C300 C299 1.384 . S
C300 H318 0.928 . S
C301 C298 1.260 . S
C301 C299 1.479 . S
C302 C297 1.245 . S
C302 C298 1.477 . S
C302 H319 0.932 . S
C303 U286 2.882 . S
C303 C297 1.428 . S
C303 O306 1.301 . S
C303 O307 1.282 . S
O304 U286 2.441 . S
O304 C290 1.249 . S
O305 U286 2.420 . S
O305 C290 1.202 . S
O306 U286 2.455 . S
O306 C303 1.301 . S
O307 U286 2.449 . S
O307 C303 1.282 . S
H308 C281 0.931 . S
H309 C283 0.929 . S
H310 C284 0.930 . S
H311 C285 0.931 . S
H312 C292 0.932 . S
H313 C293 0.930 . S
H314 C294 0.929 . S
H315 C296 0.930 . S
H316 C298 0.932 . S
H317 C299 0.929 . S
H318 C300 0.928 . S
H319 C302 0.932 . S
C320 C321 1.264 . S
C320 C325 1.479 . S
C320 C330 1.465 . S
C321 C320 1.264 . S
C321 C323 1.339 . S
C321 H348 0.931 . S
C322 C323 1.395 . S
C322 C324 1.320 . S
C323 C321 1.339 . S
C323 C322 1.395 . S
C323 H349 0.929 . S
C324 C322 1.320 . S
C324 C325 1.405 . S
C324 H350 0.930 . S
C325 C320 1.479 . S
C325 C324 1.405 . S
C325 H351 0.931 . S
U326 O327 2.454 . S
U326 O328 2.458 . S
U326 C329 2.984 . S
U326 C330 2.847 . S
U326 C343 2.882 . S
U326 O344 2.441 . S
U326 O345 2.420 . S
U326 O346 2.455 . S
U326 O347 2.449 . S
O327 U326 2.454 . S
O327 C329 1.353 . S
O328 U326 2.458 . S
O328 C329 1.286 . S
C329 U326 2.984 . S
C329 O327 1.353 . S
C329 O328 1.286 . S
C329 C331 1.363 . S
C330 C320 1.465 . S
C330 U326 2.847 . S
C330 O344 1.249 . S
C330 O345 1.202 . S
C331 C329 1.363 . S
C331 C333 1.408 . S
C331 C336 1.342 . S
C332 C333 1.310 . S
C332 C335 1.461 . S
C332 H352 0.932 . S
C333 C331 1.408 . S
C333 C332 1.310 . S
C333 H353 0.930 . S
C334 C335 1.474 . S
C334 C336 1.285 . S
C334 H354 0.929 . S
C335 C332 1.461 . S
C335 C334 1.474 . S
C336 C331 1.342 . S
C336 C334 1.285 . S
C336 H355 0.930 . S
C337 C340 1.424 . S
C337 C342 1.245 . S
C337 C343 1.428 . S
C338 C341 1.260 . S
C338 C342 1.477 . S
C338 H356 0.932 . S
C339 C340 1.384 . S
C339 C341 1.479 . S
C339 H357 0.929 . S
C340 C337 1.424 . S
C340 C339 1.384 . S
C340 H358 0.928 . S
C341 C338 1.260 . S
C341 C339 1.479 . S
C342 C337 1.245 . S
C342 C338 1.477 . S
C342 H359 0.932 . S
C343 U326 2.882 . S
C343 C337 1.428 . S
C343 O346 1.301 . S
C343 O347 1.282 . S
O344 U326 2.441 . S
O344 C330 1.249 . S
O345 U326 2.420 . S
O345 C330 1.202 . S
O346 U326 2.455 . S
O346 C343 1.301 . S
O347 U326 2.449 . S
O347 C343 1.282 . S
H348 C321 0.931 . S
H349 C323 0.929 . S
H350 C324 0.930 . S
H351 C325 0.931 . S
H352 C332 0.932 . S
H353 C333 0.930 . S
H354 C334 0.929 . S
H355 C336 0.930 . S
H356 C338 0.932 . S
H357 C339 0.929 . S
H358 C340 0.928 . S
H359 C342 0.932 . S
C360 C361 1.264 . S
C360 C365 1.479 . S
C360 C370 1.465 . S
C361 C360 1.264 . S
C361 C363 1.339 . S
C361 H388 0.931 . S
C362 C363 1.395 . S
C362 C364 1.320 . S
C363 C361 1.339 . S
C363 C362 1.395 . S
C363 H389 0.929 . S
C364 C362 1.320 . S
C364 C365 1.405 . S
C364 H390 0.930 . S
C365 C360 1.479 . S
C365 C364 1.405 . S
C365 H391 0.931 . S
U366 O367 2.454 . S
U366 O368 2.458 . S
U366 C369 2.984 . S
U366 C370 2.847 . S
U366 C383 2.882 . S
U366 O384 2.441 . S
U366 O385 2.420 . S
U366 O386 2.455 . S
U366 O387 2.449 . S
O367 U366 2.454 . S
O367 C369 1.353 . S
O368 U366 2.458 . S
O368 C369 1.286 . S
C369 U366 2.984 . S
C369 O367 1.353 . S
C369 O368 1.286 . S
C369 C371 1.363 . S
C370 C360 1.465 . S
C370 U366 2.847 . S
C370 O384 1.249 . S
C370 O385 1.202 . S
C371 C369 1.363 . S
C371 C373 1.408 . S
C371 C376 1.342 1_455 S
C372 C373 1.310 . S
C372 C375 1.461 1_455 S
C372 H392 0.932 . S
C373 C371 1.408 . S
C373 C372 1.310 . S
C373 H393 0.930 . S
C374 C375 1.474 . S
C374 C376 1.285 . S
C374 H394 0.929 . S
C375 C372 1.461 1_655 S
C375 C374 1.474 . S
C376 C371 1.342 1_655 S
C376 C374 1.285 . S
C376 H395 0.930 . S
C377 C380 1.424 . S
C377 C382 1.245 . S
C377 C383 1.428 . S
C378 C381 1.260 . S
C378 C382 1.477 . S
C378 H396 0.932 1_455 S
C379 C380 1.384 . S
C379 C381 1.479 . S
C379 H397 0.929 . S
C380 C377 1.424 . S
C380 C379 1.384 . S
C380 H398 0.928 . S
C381 C378 1.260 . S
C381 C379 1.479 . S
C382 C377 1.245 . S
C382 C378 1.477 . S
C382 H399 0.907 1_455 S
C383 U366 2.882 . S
C383 C377 1.428 . S
C383 O386 1.301 . S
C383 O387 1.282 . S
O384 U366 2.441 . S
O384 C370 1.249 . S
O385 U366 2.420 . S
O385 C370 1.202 . S
O386 U366 2.455 . S
O386 C383 1.301 . S
O387 U366 2.449 . S
O387 C383 1.282 . S
H388 C361 0.931 . S
H389 C363 0.929 . S
H390 C364 0.930 . S
H391 C365 0.931 . S
H392 C372 0.932 . S
H393 C373 0.930 . S
H394 C374 0.929 . S
H395 C376 0.930 . S
H396 C378 0.932 1_655 S
H397 C379 0.929 . S
H398 C380 0.928 . S
H399 C382 0.907 1_655 S
C400 C401 1.264 . S
C400 C405 1.479 . S
C400 C410 1.465 . S
C401 C400 1.264 . S
C401 C403 1.339 . S
C401 H428 0.931 . S
C402 C403 1.395 . S
C402 C404 1.320 . S
C403 C401 1.339 . S
C403 C402 1.395 . S
C403 H429 0.929 . S
C404 C402 1.320 . S
C404 C405 1.405 . S
C404 H430 0.930 . S
C405 C400 1.479 . S
C405 C404 1.405 . S
C405 H431 0.931 . S
U406 O407 2.454 . S
U406 O408 2.458 . S
U406 C409 2.984 . S
U406 C410 2.847 . S
U406 C423 2.882 . S
U406 O424 2.441 . S
U406 O425 2.420 . S
U406 O426 2.455 . S
U406 O427 2.449 . S
O407 U406 2.454 . S
O407 C409 1.353 . S
O408 U406 2.458 . S
O408 C409 1.286 . S
C409 U406 2.984 . S
C409 O407 1.353 . S
C409 O408 1.286 . S
C409 C411 1.363 . S
C410 C400 1.465 . S
C410 U406 2.847 . S
C410 O424 1.249 . S
C410 O425 1.202 . S
C411 C409 1.363 . S
C411 C413 1.408 . S
C411 C416 1.342 . S
C412 C413 1.310 . S
C412 C415 1.461 . S
C412 H432 0.932 . S
C413 C411 1.408 . S
C413 C412 1.310 . S
C413 H433 0.930 . S
C414 C415 1.474 . S
C414 C416 1.285 . S
C414 H434 0.929 . S
C415 C412 1.461 . S
C415 C414 1.474 . S
C416 C411 1.342 . S
C416 C414 1.285 . S
C416 H435 0.930 . S
C417 C420 1.424 . S
C417 C422 1.245 . S
C417 C423 1.428 . S
C418 C421 1.260 . S
C418 C422 1.477 . S
C418 H436 0.932 . S
C419 C420 1.384 . S
C419 C421 1.479 . S
C419 H437 0.929 . S
C420 C417 1.424 . S
C420 C419 1.384 . S
C420 H438 0.928 . S
C421 C418 1.260 . S
C421 C419 1.479 . S
C422 C417 1.245 . S
C422 C418 1.477 . S
C422 H439 0.932 . S
C423 U406 2.882 . S
C423 C417 1.428 . S
C423 O426 1.301 . S
C423 O427 1.282 . S
O424 U406 2.441 . S
O424 C410 1.249 . S
O425 U406 2.420 . S
O425 C410 1.202 . S
O426 U406 2.455 . S
O426 C423 1.301 . S
O427 U406 2.449 . S
O427 C423 1.282 . S
H428 C401 0.931 . S
H429 C403 0.929 . S
H430 C404 0.930 . S
H431 C405 0.931 . S
H432 C412 0.932 . S
H433 C413 0.930 . S
H434 C414 0.929 . S
H435 C416 0.930 . S
H436 C418 0.932 . S
H437 C419 0.929 . S
H438 C420 0.928 . S
H439 C422 0.932 . S
C440 C441 1.264 . S
C440 C445 1.479 . S
C440 C450 1.465 . S
C441 C440 1.264 . S
C441 C443 1.339 . S
C441 H468 0.931 . S
C442 C443 1.395 . S
C442 C444 1.320 . S
C443 C441 1.339 . S
C443 C442 1.395 . S
C443 H469 0.929 . S
C444 C442 1.320 . S
C444 C445 1.405 . S
C444 H470 0.930 . S
C445 C440 1.479 . S
C445 C444 1.405 . S
C445 H471 0.931 . S
U446 O447 2.454 . S
U446 O448 2.458 . S
U446 C449 2.984 . S
U446 C450 2.847 . S
U446 C463 2.882 . S
U446 O464 2.441 . S
U446 O465 2.420 . S
U446 O466 2.455 . S
U446 O467 2.449 . S
O447 U446 2.454 . S
O447 C449 1.353 . S
O448 U446 2.458 . S
O448 C449 1.286 . S
C449 U446 2.984 . S
C449 O447 1.353 . S
C449 O448 1.286 . S
C449 C451 1.363 . S
C450 C440 1.465 . S
C450 U446 2.847 . S
C450 O464 1.249 . S
C450 O465 1.202 . S
C451 C449 1.363 . S
C451 C453 1.408 . S
C451 C456 1.342 . S
C452 C453 1.310 . S
C452 C455 1.461 . S
C452 H472 0.932 . S
C453 C451 1.408 . S
C453 C452 1.310 . S
C453 H473 0.930 . S
C454 C455 1.474 . S
C454 C456 1.285 . S
C454 H474 0.929 . S
C455 C452 1.461 . S
C455 C454 1.474 . S
C456 C451 1.342 . S
C456 C454 1.285 . S
C456 H475 0.930 . S
C457 C460 1.424 . S
C457 C462 1.245 . S
C457 C463 1.428 . S
C458 C461 1.260 . S
C458 C462 1.477 . S
C458 H476 0.932 . S
C459 C460 1.384 . S
C459 C461 1.479 . S
C459 H477 0.929 . S
C460 C457 1.424 . S
C460 C459 1.384 . S
C460 H478 0.928 . S
C461 C458 1.260 . S
C461 C459 1.479 . S
C462 C457 1.245 . S
C462 C458 1.477 . S
C462 H479 0.932 . S
C463 U446 2.882 . S
C463 C457 1.428 . S
C463 O466 1.301 . S
C463 O467 1.282 . S
O464 U446 2.441 . S
O464 C450 1.249 . S
O465 U446 2.420 . S
O465 C450 1.202 . S
O466 U446 2.455 . S
O466 C463 1.301 . S
O467 U446 2.449 . S
O467 C463 1.282 . S
H468 C441 0.931 . S
H469 C443 0.929 . S
H470 C444 0.930 . S
H471 C445 0.931 . S
H472 C452 0.932 . S
H473 C453 0.930 . S
H474 C454 0.929 . S
H475 C456 0.930 . S
H476 C458 0.932 . S
H477 C459 0.929 . S
H478 C460 0.928 . S
H479 C462 0.932 . S
C480 C481 1.264 . S
C480 C485 1.479 . S
C480 C490 1.465 . S
C481 C480 1.264 . S
C481 C483 1.339 . S
C481 H508 0.931 . S
C482 C483 1.395 . S
C482 C484 1.320 . S
C483 C481 1.339 . S
C483 C482 1.395 . S
C483 H509 0.929 . S
C484 C482 1.320 . S
C484 C485 1.405 . S
C484 H510 0.930 . S
C485 C480 1.479 . S
C485 C484 1.405 . S
C485 H511 0.931 . S
U486 O487 2.454 . S
U486 O488 2.458 . S
U486 C489 2.984 . S
U486 C490 2.847 . S
U486 C503 2.882 . S
U486 O504 2.441 . S
U486 O505 2.420 . S
U486 O506 2.455 . S
U486 O507 2.449 . S
O487 U486 2.454 . S
O487 C489 1.353 . S
O488 U486 2.458 . S
O488 C489 1.286 . S
C489 U486 2.984 . S
C489 O487 1.353 . S
C489 O488 1.286 . S
C489 C491 1.363 . S
C490 C480 1.465 . S
C490 U486 2.847 . S
C490 O504 1.249 . S
C490 O505 1.202 . S
C491 C489 1.363 . S
C491 C493 1.408 . S
C491 C496 1.342 . S
C492 C493 1.310 . S
C492 C495 1.461 . S
C492 H512 0.932 . S
C493 C491 1.408 . S
C493 C492 1.310 . S
C493 H513 0.930 . S
C494 C495 1.474 . S
C494 C496 1.285 . S
C494 H514 0.929 . S
C495 C492 1.461 . S
C495 C494 1.474 . S
C496 C491 1.342 . S
C496 C494 1.285 . S
C496 H515 0.930 . S
C497 C500 1.424 . S
C497 C502 1.245 . S
C497 C503 1.428 . S
C498 C501 1.260 . S
C498 C502 1.477 . S
C498 H516 0.932 . S
C499 C500 1.384 . S
C499 C501 1.479 . S
C499 H517 0.929 . S
C500 C497 1.424 . S
C500 C499 1.384 . S
C500 H518 0.928 . S
C501 C498 1.260 . S
C501 C499 1.479 . S
C502 C497 1.245 . S
C502 C498 1.477 . S
C502 H519 0.932 . S
C503 U486 2.882 . S
C503 C497 1.428 . S
C503 O506 1.301 . S
C503 O507 1.282 . S
O504 U486 2.441 . S
O504 C490 1.249 . S
O505 U486 2.420 . S
O505 C490 1.202 . S
O506 U486 2.455 . S
O506 C503 1.301 . S
O507 U486 2.449 . S
O507 C503 1.282 . S
H508 C481 0.931 . S
H509 C483 0.929 . S
H510 C484 0.930 . S
H511 C485 0.931 . S
H512 C492 0.932 . S
H513 C493 0.930 . S
H514 C494 0.929 . S
H515 C496 0.930 . S
H516 C498 0.932 . S
H517 C499 0.929 . S
H518 C500 0.928 . S
H519 C502 0.932 . S
C520 C521 1.264 . S
C520 C525 1.479 . S
C520 C530 1.465 . S
C521 C520 1.264 . S
C521 C523 1.339 . S
C521 H548 0.931 . S
C522 C523 1.395 . S
C522 C524 1.320 . S
C523 C521 1.339 . S
C523 C522 1.395 . S
C523 H549 0.929 . S
C524 C522 1.320 . S
C524 C525 1.405 . S
C524 H550 0.930 . S
C525 C520 1.479 . S
C525 C524 1.405 . S
C525 H551 0.931 . S
U526 O527 2.454 . S
U526 O528 2.458 . S
U526 C529 2.984 . S
U526 C530 2.847 . S
U526 C543 2.882 . S
U526 O544 2.441 . S
U526 O545 2.420 . S
U526 O546 2.455 . S
U526 O547 2.449 . S
O527 U526 2.454 . S
O527 C529 1.353 . S
O528 U526 2.458 . S
O528 C529 1.286 . S
C529 U526 2.984 . S
C529 O527 1.353 . S
C529 O528 1.286 . S
C529 C531 1.363 . S
C530 C520 1.465 . S
C530 U526 2.847 . S
C530 O544 1.249 . S
C530 O545 1.202 . S
C531 C529 1.363 . S
C531 C533 1.408 . S
C531 C536 1.342 . S
C532 C533 1.310 . S
C532 C535 1.461 . S
C532 H552 0.932 . S
C533 C531 1.408 . S
C533 C532 1.310 . S
C533 H553 0.930 . S
C534 C535 1.474 . S
C534 C536 1.285 . S
C534 H554 0.929 . S
C535 C532 1.461 . S
C535 C534 1.474 . S
C536 C531 1.342 . S
C536 C534 1.285 . S
C536 H555 0.930 . S
C537 C540 1.424 . S
C537 C542 1.245 . S
C537 C543 1.428 . S
C538 C541 1.260 . S
C538 C542 1.477 . S
C538 H556 0.932 . S
C539 C540 1.384 . S
C539 C541 1.479 . S
C539 H557 0.929 . S
C540 C537 1.424 . S
C540 C539 1.384 . S
C540 H558 0.928 . S
C541 C538 1.260 . S
C541 C539 1.479 . S
C542 C537 1.245 . S
C542 C538 1.477 . S
C542 H559 0.932 . S
C543 U526 2.882 . S
C543 C537 1.428 . S
C543 O546 1.301 . S
C543 O547 1.282 . S
O544 U526 2.441 . S
O544 C530 1.249 . S
O545 U526 2.420 . S
O545 C530 1.202 . S
O546 U526 2.455 . S
O546 C543 1.301 . S
O547 U526 2.449 . S
O547 C543 1.282 . S
H548 C521 0.931 . S
H549 C523 0.929 . S
H550 C524 0.930 . S
H551 C525 0.931 . S
H552 C532 0.932 . S
H553 C533 0.930 . S
H554 C534 0.929 . S
H555 C536 0.930 . S
H556 C538 0.932 . S
H557 C539 0.929 . S
H558 C540 0.928 . S
H559 C542 0.932 . S
C560 C561 1.264 . S
C560 C565 1.479 . S
C560 C570 1.465 . S
C561 C560 1.264 . S
C561 C563 1.339 . S
C561 H588 0.931 . S
C562 C563 1.395 . S
C562 C564 1.320 . S
C563 C561 1.339 . S
C563 C562 1.395 . S
C563 H589 0.929 . S
C564 C562 1.320 . S
C564 C565 1.405 . S
C564 H590 0.930 . S
C565 C560 1.479 . S
C565 C564 1.405 . S
C565 H591 0.931 . S
U566 O567 2.454 . S
U566 O568 2.458 . S
U566 C569 2.984 . S
U566 C570 2.847 . S
U566 C583 2.882 . S
U566 O584 2.441 . S
U566 O585 2.420 . S
U566 O586 2.455 . S
U566 O587 2.449 . S
O567 U566 2.454 . S
O567 C569 1.353 . S
O568 U566 2.458 . S
O568 C569 1.286 . S
C569 U566 2.984 . S
C569 O567 1.353 . S
C569 O568 1.286 . S
C569 C571 1.363 . S
C570 C560 1.465 . S
C570 U566 2.847 . S
C570 O584 1.249 . S
C570 O585 1.202 . S
C571 C569 1.363 . S
C571 C573 1.408 . S
C571 C576 1.342 . S
C572 C573 1.310 . S
C572 C575 1.461 . S
C572 H592 0.932 . S
C573 C571 1.408 . S
C573 C572 1.310 . S
C573 H593 0.930 . S
C574 C575 1.474 . S
C574 C576 1.285 . S
C574 H594 0.929 . S
C575 C572 1.461 . S
C575 C574 1.474 . S
C576 C571 1.342 . S
C576 C574 1.285 . S
C576 H595 0.930 . S
C577 C580 1.424 . S
C577 C582 1.245 . S
C577 C583 1.428 . S
C578 C581 1.260 . S
C578 C582 1.477 . S
C578 H596 0.932 . S
C579 C580 1.384 . S
C579 C581 1.479 . S
C579 H597 0.929 . S
C580 C577 1.424 . S
C580 C579 1.384 . S
C580 H598 0.928 . S
C581 C578 1.260 . S
C581 C579 1.479 . S
C582 C577 1.245 . S
C582 C578 1.477 . S
C582 H599 0.932 . S
C583 U566 2.882 . S
C583 C577 1.428 . S
C583 O586 1.301 . S
C583 O587 1.282 . S
O584 U566 2.441 . S
O584 C570 1.249 . S
O585 U566 2.420 . S
O585 C570 1.202 . S
O586 U566 2.455 . S
O586 C583 1.301 . S
O587 U566 2.449 . S
O587 C583 1.282 . S
H588 C561 0.931 . S
H589 C563 0.929 . S
H590 C564 0.930 . S
H591 C565 0.931 . S
H592 C572 0.932 . S
H593 C573 0.930 . S
H594 C574 0.929 . S
H595 C576 0.930 . S
H596 C578 0.932 . S
H597 C579 0.929 . S
H598 C580 0.928 . S
H599 C582 0.932 . S
C600 C601 1.264 . S
C600 C605 1.479 . S
C600 C610 1.465 . S
C601 C600 1.264 . S
C601 C603 1.339 . S
C601 H628 0.931 . S
C602 C603 1.395 . S
C602 C604 1.320 . S
C603 C601 1.339 . S
C603 C602 1.395 . S
C603 H629 0.929 . S
C604 C602 1.320 . S
C604 C605 1.405 . S
C604 H630 0.930 . S
C605 C600 1.479 . S
C605 C604 1.405 . S
C605 H631 0.931 . S
U606 O607 2.454 . S
U606 O608 2.458 . S
U606 C609 2.984 . S
U606 C610 2.847 . S
U606 C623 2.882 . S
U606 O624 2.441 . S
U606 O625 2.420 . S
U606 O626 2.455 . S
U606 O627 2.449 . S
O607 U606 2.454 . S
O607 C609 1.353 . S
O608 U606 2.458 . S
O608 C609 1.286 . S
C609 U606 2.984 . S
C609 O607 1.353 . S
C609 O608 1.286 . S
C609 C611 1.363 . S
C610 C600 1.465 . S
C610 U606 2.847 . S
C610 O624 1.249 . S
C610 O625 1.202 . S
C611 C609 1.363 . S
C611 C613 1.408 . S
C611 C616 1.342 1_455 S
C612 C613 1.310 . S
C612 C615 1.461 1_455 S
C612 H632 0.932 . S
C613 C611 1.408 . S
C613 C612 1.310 . S
C613 H633 0.930 . S
C614 C615 1.474 . S
C614 C616 1.285 . S
C614 H634 0.929 . S
C615 C612 1.461 1_655 S
C615 C614 1.474 . S
C616 C611 1.342 1_655 S
C616 C614 1.285 . S
C616 H635 0.930 . S
C617 C620 1.424 . S
C617 C622 1.245 . S
C617 C623 1.428 . S
C618 C621 1.260 . S
C618 C622 1.477 . S
C618 H636 0.932 1_455 S
C619 C620 1.384 . S
C619 C621 1.479 . S
C619 H637 0.929 . S
C620 C617 1.424 . S
C620 C619 1.384 . S
C620 H638 0.928 . S
C621 C618 1.260 . S
C621 C619 1.479 . S
C622 C617 1.245 . S
C622 C618 1.477 . S
C622 H639 0.907 1_455 S
C623 U606 2.882 . S
C623 C617 1.428 . S
C623 O626 1.301 . S
C623 O627 1.282 . S
O624 U606 2.441 . S
O624 C610 1.249 . S
O625 U606 2.420 . S
O625 C610 1.202 . S
O626 U606 2.455 . S
O626 C623 1.301 . S
O627 U606 2.449 . S
O627 C623 1.282 . S
H628 C601 0.931 . S
H629 C603 0.929 . S
H630 C604 0.930 . S
H631 C605 0.931 . S
H632 C612 0.932 . S
H633 C613 0.930 . S
H634 C614 0.929 . S
H635 C616 0.930 . S
H636 C618 0.932 1_655 S
H637 C619 0.929 . S
H638 C620 0.928 . S
H639 C622 0.907 1_655 S
C640 C641 1.264 . S
C640 C645 1.479 . S
C640 C650 1.465 . S
C641 C640 1.264 . S
C641 C643 1.339 . S
C641 H668 0.931 . S
C642 C643 1.395 . S
C642 C644 1.320 . S
C643 C641 1.339 . S
C643 C642 1.395 . S
C643 H669 0.929 . S
C644 C642 1.320 . S
C644 C645 1.405 . S
C644 H670 0.930 . S
C645 C640 1.479 . S
C645 C644 1.405 . S
C645 H671 0.931 . S
U646 O647 2.454 . S
U646 O648 2.458 . S
U646 C649 2.984 . S
U646 C650 2.847 . S
U646 C663 2.882 . S
U646 O664 2.441 . S
U646 O665 2.420 . S
U646 O666 2.455 . S
U646 O667 2.449 . S
O647 U646 2.454 . S
O647 C649 1.353 . S
O648 U646 2.458 . S
O648 C649 1.286 . S
C649 U646 2.984 . S
C649 O647 1.353 . S
C649 O648 1.286 . S
C649 C651 1.363 . S
C650 C640 1.465 . S
C650 U646 2.847 . S
C650 O664 1.249 . S
C650 O665 1.202 . S
C651 C649 1.363 . S
C651 C653 1.408 . S
C651 C656 1.342 . S
C652 C653 1.310 . S
C652 C655 1.461 . S
C652 H672 0.932 . S
C653 C651 1.408 . S
C653 C652 1.310 . S
C653 H673 0.930 . S
C654 C655 1.474 . S
C654 C656 1.285 . S
C654 H674 0.929 . S
C655 C652 1.461 . S
C655 C654 1.474 . S
C656 C651 1.342 . S
C656 C654 1.285 . S
C656 H675 0.930 . S
C657 C660 1.424 . S
C657 C662 1.245 . S
C657 C663 1.428 . S
C658 C661 1.260 . S
C658 C662 1.477 . S
C658 H676 0.932 . S
C659 C660 1.384 . S
C659 C661 1.479 . S
C659 H677 0.929 . S
C660 C657 1.424 . S
C660 C659 1.384 . S
C660 H678 0.928 . S
C661 C658 1.260 . S
C661 C659 1.479 . S
C662 C657 1.245 . S
C662 C658 1.477 . S
C662 H679 0.932 . S
C663 U646 2.882 . S
C663 C657 1.428 . S
C663 O666 1.301 . S
C663 O667 1.282 . S
O664 U646 2.441 . S
O664 C650 1.249 . S
O665 U646 2.420 . S
O665 C650 1.202 . S
O666 U646 2.455 . S
O666 C663 1.301 . S
O667 U646 2.449 . S
O667 C663 1.282 . S
H668 C641 0.931 . S
H669 C643 0.929 . S
H670 C644 0.930 . S
H671 C645 0.931 . S
H672 C652 0.932 . S
H673 C653 0.930 . S
H674 C654 0.929 . S
H675 C656 0.930 . S
H676 C658 0.932 . S
H677 C659 0.929 . S
H678 C660 0.928 . S
H679 C662 0.932 . S
C680 C681 1.264 . S
C680 C685 1.479 . S
C680 C690 1.465 . S
C681 C680 1.264 . S
C681 C683 1.339 . S
C681 H708 0.931 . S
C682 C683 1.395 . S
C682 C684 1.320 . S
C683 C681 1.339 . S
C683 C682 1.395 . S
C683 H709 0.929 . S
C684 C682 1.320 . S
C684 C685 1.405 . S
C684 H710 0.930 . S
C685 C680 1.479 . S
C685 C684 1.405 . S
C685 H711 0.931 . S
U686 O687 2.454 . S
U686 O688 2.458 . S
U686 C689 2.984 . S
U686 C690 2.847 . S
U686 C703 2.882 . S
U686 O704 2.441 . S
U686 O705 2.420 . S
U686 O706 2.455 . S
U686 O707 2.449 . S
O687 U686 2.454 . S
O687 C689 1.353 . S
O688 U686 2.458 . S
O688 C689 1.286 . S
C689 U686 2.984 . S
C689 O687 1.353 . S
C689 O688 1.286 . S
C689 C691 1.363 . S
C690 C680 1.465 . S
C690 U686 2.847 . S
C690 O704 1.249 . S
C690 O705 1.202 . S
C691 C689 1.363 . S
C691 C693 1.408 . S
C691 C696 1.342 . S
C692 C693 1.310 . S
C692 C695 1.461 . S
C692 H712 0.932 . S
C693 C691 1.408 . S
C693 C692 1.310 . S
C693 H713 0.930 . S
C694 C695 1.474 . S
C694 C696 1.285 . S
C694 H714 0.929 . S
C695 C692 1.461 . S
C695 C694 1.474 . S
C696 C691 1.342 . S
C696 C694 1.285 . S
C696 H715 0.930 . S
C697 C700 1.424 . S
C697 C702 1.245 . S
C697 C703 1.428 . S
C698 C701 1.260 . S
C698 C702 1.477 . S
C698 H716 0.932 . S
C699 C700 1.384 . S
C699 C701 1.479 . S
C699 H717 0.929 . S
C700 C697 1.424 . S
C700 C699 1.384 . S
C700 H718 0.928 . S
C701 C698 1.260 . S
C701 C699 1.479 . S
C702 C697 1.245 . S
C702 C698 1.477 . S
C702 H719 0.932 . S
C703 U686 2.882 . S
C703 C697 1.428 . S
C703 O706 1.301 . S
C703 O707 1.282 . S
O704 U686 2.441 . S
O704 C690 1.249 . S
O705 U686 2.420 . S
O705 C690 1.202 . S
O706 U686 2.455 . S
O706 C703 1.301 . S
O707 U686 2.449 . S
O707 C703 1.282 . S
H708 C681 0.931 . S
H709 C683 0.929 . S
H710 C684 0.930 . S
H711 C685 0.931 . S
H712 C692 0.932 . S
H713 C693 0.930 . S
H714 C694 0.929 . S
H715 C696 0.930 . S
H716 C698 0.932 . S
H717 C699 0.929 . S
H718 C700 0.928 . S
H719 C702 0.932 . S
C720 C721 1.264 . S
C720 C725 1.479 . S
C720 C730 1.465 . S
C721 C720 1.264 . S
C721 C723 1.339 . S
C721 H748 0.931 . S
C722 C723 1.395 . S
C722 C724 1.320 . S
C723 C721 1.339 . S
C723 C722 1.395 . S
C723 H749 0.929 . S
C724 C722 1.320 . S
C724 C725 1.405 . S
C724 H750 0.930 . S
C725 C720 1.479 . S
C725 C724 1.405 . S
C725 H751 0.931 . S
U726 O727 2.454 . S
U726 O728 2.458 . S
U726 C729 2.984 . S
U726 C730 2.847 . S
U726 C743 2.882 . S
U726 O744 2.441 . S
U726 O745 2.420 . S
U726 O746 2.455 . S
U726 O747 2.449 . S
O727 U726 2.454 . S
O727 C729 1.353 . S
O728 U726 2.458 . S
O728 C729 1.286 . S
C729 U726 2.984 . S
C729 O727 1.353 . S
C729 O728 1.286 . S
C729 C731 1.363 . S
C730 C720 1.465 . S
C730 U726 2.847 . S
C730 O744 1.249 . S
C730 O745 1.202 . S
C731 C729 1.363 . S
C731 C733 1.408 . S
C731 C736 1.342 . S
C732 C733 1.310 . S
C732 C735 1.461 . S
C732 H752 0.932 . S
C733 C731 1.408 . S
C733 C732 1.310 . S
C733 H753 0.930 . S
C734 C735 1.474 . S
C734 C736 1.285 . S
C734 H754 0.929 . S
C735 C732 1.461 . S
C735 C734 1.474 . S
C736 C731 1.342 . S
C736 C734 1.285 . S
C736 H755 0.930 . S
C737 C740 1.424 . S
C737 C742 1.245 . S
C737 C743 1.428 . S
C738 C741 1.260 . S
C738 C742 1.477 . S
C738 H756 0.932 . S
C739 C740 1.384 . S
C739 C741 1.479 . S
C739 H757 0.929 . S
C740 C737 1.424 . S
C740 C739 1.384 . S
C740 H758 0.928 . S
C741 C738 1.260 . S
C741 C739 1.479 . S
C742 C737 1.245 . S
C742 C738 1.477 . S
C742 H759 0.932 . S
C743 U726 2.882 . S
C743 C737 1.428 . S
C743 O746 1.301 . S
C743 O747 1.282 . S
O744 U726 2.441 . S
O744 C730 1.249 . S
O745 U726 2.420 . S
O745 C730 1.202 . S
O746 U726 2.455 . S
O746 C743 1.301 . S
O747 U726 2.449 . S
O747 C743 1.282 . S
H748 C721 0.931 . S
H749 C723 0.929 . S
H750 C724 0.930 . S
H751 C725 0.931 . S
H752 C732 0.932 . S
H753 C733 0.930 . S
H754 C734 0.929 . S
H755 C736 0.930 . S
H756 C738 0.932 . S
H757 C739 0.929 . S
H758 C740 0.928 . S
H759 C742 0.932 . S
C760 C761 1.264 . S
C760 C765 1.479 . S
C760 C770 1.465 . S
C761 C760 1.264 . S
C761 C763 1.339 . S
C761 H788 0.931 . S
C762 C763 1.395 . S
C762 C764 1.320 . S
C763 C761 1.339 . S
C763 C762 1.395 . S
C763 H789 0.929 . S
C764 C762 1.320 . S
C764 C765 1.405 . S
C764 H790 0.930 . S
C765 C760 1.479 . S
C765 C764 1.405 . S
C765 H791 0.931 . S
U766 O767 2.454 . S
U766 O768 2.458 . S
U766 C769 2.984 . S
U766 C770 2.847 . S
U766 C783 2.882 . S
U766 O784 2.441 . S
U766 O785 2.420 . S
U766 O786 2.455 . S
U766 O787 2.449 . S
O767 U766 2.454 . S
O767 C769 1.353 . S
O768 U766 2.458 . S
O768 C769 1.286 . S
C769 U766 2.984 . S
C769 O767 1.353 . S
C769 O768 1.286 . S
C769 C771 1.363 . S
C770 C760 1.465 . S
C770 U766 2.847 . S
C770 O784 1.249 . S
C770 O785 1.202 . S
C771 C769 1.363 . S
C771 C773 1.408 . S
C771 C776 1.342 1_455 S
C772 C773 1.310 . S
C772 C775 1.461 1_455 S
C772 H792 0.932 . S
C773 C771 1.408 . S
C773 C772 1.310 . S
C773 H793 0.930 . S
C774 C775 1.474 . S
C774 C776 1.285 . S
C774 H794 0.929 . S
C775 C772 1.461 1_655 S
C775 C774 1.474 . S
C776 C771 1.342 1_655 S
C776 C774 1.285 . S
C776 H795 0.930 . S
C777 C780 1.424 . S
C777 C782 1.245 . S
C777 C783 1.428 . S
C778 C781 1.260 . S
C778 C782 1.477 . S
C778 H796 0.932 . S
C779 C780 1.384 . S
C779 C781 1.479 . S
C779 H797 0.929 . S
C780 C777 1.424 . S
C780 C779 1.384 . S
C780 H798 0.928 . S
C781 C778 1.260 . S
C781 C779 1.479 . S
C782 C777 1.245 . S
C782 C778 1.477 . S
C782 H799 0.932 . S
C783 U766 2.882 . S
C783 C777 1.428 . S
C783 O786 1.301 . S
C783 O787 1.282 . S
O784 U766 2.441 . S
O784 C770 1.249 . S
O785 U766 2.420 . S
O785 C770 1.202 . S
O786 U766 2.455 . S
O786 C783 1.301 . S
O787 U766 2.449 . S
O787 C783 1.282 . S
H788 C761 0.931 . S
H789 C763 0.929 . S
H790 C764 0.930 . S
H791 C765 0.931 . S
H792 C772 0.932 . S
H793 C773 0.930 . S
H794 C774 0.929 . S
H795 C776 0.930 . S
H796 C778 0.932 . S
H797 C779 0.929 . S
H798 C780 0.928 . S
H799 C782 0.932 . S
C800 C801 1.264 . S
C800 C805 1.479 . S
C800 C810 1.465 . S
C801 C800 1.264 . S
C801 C803 1.339 . S
C801 H828 0.931 . S
C802 C803 1.395 . S
C802 C804 1.320 . S
C803 C801 1.339 . S
C803 C802 1.395 . S
C803 H829 0.929 . S
C804 C802 1.320 . S
C804 C805 1.405 . S
C804 H830 0.930 . S
C805 C800 1.479 . S
C805 C804 1.405 . S
C805 H831 0.931 . S
U806 O807 2.454 . S
U806 O808 2.458 . S
U806 C809 2.984 . S
U806 C810 2.847 . S
U806 C823 2.882 . S
U806 O824 2.441 . S
U806 O825 2.420 . S
U806 O826 2.455 . S
U806 O827 2.449 . S
O807 U806 2.454 . S
O807 C809 1.353 . S
O808 U806 2.458 . S
O808 C809 1.286 . S
C809 U806 2.984 . S
C809 O807 1.353 . S
C809 O808 1.286 . S
C809 C811 1.363 . S
C810 C800 1.465 . S
C810 U806 2.847 . S
C810 O824 1.249 . S
C810 O825 1.202 . S
C811 C809 1.363 . S
C811 C813 1.408 . S
C811 C816 1.342 . S
C812 C813 1.310 . S
C812 C815 1.461 . S
C812 H832 0.932 . S
C813 C811 1.408 . S
C813 C812 1.310 . S
C813 H833 0.930 . S
C814 C815 1.474 . S
C814 C816 1.285 . S
C814 H834 0.929 . S
C815 C812 1.461 . S
C815 C814 1.474 . S
C816 C811 1.342 . S
C816 C814 1.285 . S
C816 H835 0.930 . S
C817 C820 1.424 . S
C817 C822 1.245 . S
C817 C823 1.428 . S
C818 C821 1.260 . S
C818 C822 1.477 . S
C818 H836 0.932 . S
C819 C820 1.384 . S
C819 C821 1.479 . S
C819 H837 0.929 . S
C820 C817 1.424 . S
C820 C819 1.384 . S
C820 H838 0.928 . S
C821 C818 1.260 . S
C821 C819 1.479 . S
C822 C817 1.245 . S
C822 C818 1.477 . S
C822 H839 0.932 . S
C823 U806 2.882 . S
C823 C817 1.428 . S
C823 O826 1.301 . S
C823 O827 1.282 . S
O824 U806 2.441 . S
O824 C810 1.249 . S
O825 U806 2.420 . S
O825 C810 1.202 . S
O826 U806 2.455 . S
O826 C823 1.301 . S
O827 U806 2.449 . S
O827 C823 1.282 . S
H828 C801 0.931 . S
H829 C803 0.929 . S
H830 C804 0.930 . S
H831 C805 0.931 . S
H832 C812 0.932 . S
H833 C813 0.930 . S
H834 C814 0.929 . S
H835 C816 0.930 . S
H836 C818 0.932 . S
H837 C819 0.929 . S
H838 C820 0.928 . S
H839 C822 0.932 . S
C840 C841 1.264 . S
C840 C845 1.479 . S
C840 C850 1.465 . S
C841 C840 1.264 . S
C841 C843 1.339 . S
C841 H868 0.931 . S
C842 C843 1.395 . S
C842 C844 1.320 . S
C843 C841 1.339 . S
C843 C842 1.395 . S
C843 H869 0.929 . S
C844 C842 1.320 . S
C844 C845 1.405 . S
C844 H870 0.930 . S
C845 C840 1.479 . S
C845 C844 1.405 . S
C845 H871 0.931 . S
U846 O847 2.454 . S
U846 O848 2.458 . S
U846 C849 2.984 . S
U846 C850 2.847 . S
U846 C863 2.882 . S
U846 O864 2.441 . S
U846 O865 2.420 . S
U846 O866 2.455 . S
U846 O867 2.449 . S
O847 U846 2.454 . S
O847 C849 1.353 . S
O848 U846 2.458 . S
O848 C849 1.286 . S
C849 U846 2.984 . S
C849 O847 1.353 . S
C849 O848 1.286 . S
C849 C851 1.363 . S
C850 C840 1.465 . S
C850 U846 2.847 . S
C850 O864 1.249 . S
C850 O865 1.202 . S
C851 C849 1.363 . S
C851 C853 1.408 . S
C851 C856 1.342 1_455 S
C852 C853 1.310 . S
C852 C855 1.461 1_455 S
C852 H872 0.932 . S
C853 C851 1.408 . S
C853 C852 1.310 . S
C853 H873 0.930 . S
C854 C855 1.474 . S
C854 C856 1.285 . S
C854 H874 0.929 . S
C855 C852 1.461 1_655 S
C855 C854 1.474 . S
C856 C851 1.342 1_655 S
C856 C854 1.285 . S
C856 H875 0.930 . S
C857 C860 1.424 . S
C857 C862 1.245 . S
C857 C863 1.428 . S
C858 C861 1.260 . S
C858 C862 1.477 . S
C858 H876 0.932 . S
C859 C860 1.384 . S
C859 C861 1.479 . S
C859 H877 0.929 . S
C860 C857 1.424 . S
C860 C859 1.384 . S
C860 H878 0.928 . S
C861 C858 1.260 . S
C861 C859 1.479 . S
C862 C857 1.245 . S
C862 C858 1.477 . S
C862 H879 0.932 . S
C863 U846 2.882 . S
C863 C857 1.428 . S
C863 O866 1.301 . S
C863 O867 1.282 . S
O864 U846 2.441 . S
O864 C850 1.249 . S
O865 U846 2.420 . S
O865 C850 1.202 . S
O866 U846 2.455 . S
O866 C863 1.301 . S
O867 U846 2.449 . S
O867 C863 1.282 . S
H868 C841 0.931 . S
H869 C843 0.929 . S
H870 C844 0.930 . S
H871 C845 0.931 . S
H872 C852 0.932 . S
H873 C853 0.930 . S
H874 C854 0.929 . S
H875 C856 0.930 . S
H876 C858 0.932 . S
H877 C859 0.929 . S
H878 C860 0.928 . S
H879 C862 0.932 . S
C880 C881 1.264 . S
C880 C885 1.479 . S
C880 C890 1.465 . S
C881 C880 1.264 . S
C881 C883 1.339 . S
C881 H908 0.931 . S
C882 C883 1.395 . S
C882 C884 1.320 . S
C883 C881 1.339 . S
C883 C882 1.395 . S
C883 H909 0.929 . S
C884 C882 1.320 . S
C884 C885 1.405 . S
C884 H910 0.930 . S
C885 C880 1.479 . S
C885 C884 1.405 . S
C885 H911 0.931 . S
U886 O887 2.454 . S
U886 O888 2.458 . S
U886 C889 2.984 . S
U886 C890 2.847 . S
U886 C903 2.882 . S
U886 O904 2.441 . S
U886 O905 2.420 . S
U886 O906 2.455 . S
U886 O907 2.449 . S
O887 U886 2.454 . S
O887 C889 1.353 . S
O888 U886 2.458 . S
O888 C889 1.286 . S
C889 U886 2.984 . S
C889 O887 1.353 . S
C889 O888 1.286 . S
C889 C891 1.363 . S
C890 C880 1.465 . S
C890 U886 2.847 . S
C890 O904 1.249 . S
C890 O905 1.202 . S
C891 C889 1.363 . S
C891 C893 1.408 . S
C891 C896 1.342 . S
C892 C893 1.310 . S
C892 C895 1.461 . S
C892 H912 0.932 . S
C893 C891 1.408 . S
C893 C892 1.310 . S
C893 H913 0.930 . S
C894 C895 1.474 . S
C894 C896 1.285 . S
C894 H914 0.929 . S
C895 C892 1.461 . S
C895 C894 1.474 . S
C896 C891 1.342 . S
C896 C894 1.285 . S
C896 H915 0.930 . S
C897 C900 1.424 . S
C897 C902 1.245 . S
C897 C903 1.428 . S
C898 C901 1.260 . S
C898 C902 1.477 . S
C898 H916 0.932 . S
C899 C900 1.384 . S
C899 C901 1.479 . S
C899 H917 0.929 . S
C900 C897 1.424 . S
C900 C899 1.384 . S
C900 H918 0.928 . S
C901 C898 1.260 . S
C901 C899 1.479 . S
C902 C897 1.245 . S
C902 C898 1.477 . S
C902 H919 0.932 . S
C903 U886 2.882 . S
C903 C897 1.428 . S
C903 O906 1.301 . S
C903 O907 1.282 . S
O904 U886 2.441 . S
O904 C890 1.249 . S
O905 U886 2.420 . S
O905 C890 1.202 . S
O906 U886 2.455 . S
O906 C903 1.301 . S
O907 U886 2.449 . S
O907 C903 1.282 . S
H908 C881 0.931 . S
H909 C883 0.929 . S
H910 C884 0.930 . S
H911 C885 0.931 . S
H912 C892 0.932 . S
H913 C893 0.930 . S
H914 C894 0.929 . S
H915 C896 0.930 . S
H916 C898 0.932 . S
H917 C899 0.929 . S
H918 C900 0.928 . S
H919 C902 0.932 . S
C920 C921 1.264 . S
C920 C925 1.479 . S
C920 C930 1.465 . S
C921 C920 1.264 . S
C921 C923 1.339 . S
C921 H948 0.931 . S
C922 C923 1.395 . S
C922 C924 1.320 . S
C923 C921 1.339 . S
C923 C922 1.395 . S
C923 H949 0.929 . S
C924 C922 1.320 . S
C924 C925 1.405 . S
C924 H950 0.930 . S
C925 C920 1.479 . S
C925 C924 1.405 . S
C925 H951 0.931 . S
U926 O927 2.454 . S
U926 O928 2.458 . S
U926 C929 2.984 . S
U926 C930 2.847 . S
U926 C943 2.882 . S
U926 O944 2.441 . S
U926 O945 2.420 . S
U926 O946 2.455 . S
U926 O947 2.449 . S
O927 U926 2.454 . S
O927 C929 1.353 . S
O928 U926 2.458 . S
O928 C929 1.286 . S
C929 U926 2.984 . S
C929 O927 1.353 . S
C929 O928 1.286 . S
C929 C931 1.363 . S
C930 C920 1.465 . S
C930 U926 2.847 . S
C930 O944 1.249 . S
C930 O945 1.202 . S
C931 C929 1.363 . S
C931 C933 1.408 . S
C931 C936 1.342 . S
C932 C933 1.310 . S
C932 C935 1.461 . S
C932 H952 0.932 . S
C933 C931 1.408 . S
C933 C932 1.310 . S
C933 H953 0.930 . S
C934 C935 1.474 . S
C934 C936 1.285 . S
C934 H954 0.929 . S
C935 C932 1.461 . S
C935 C934 1.474 . S
C936 C931 1.342 . S
C936 C934 1.285 . S
C936 H955 0.930 . S
C937 C940 1.424 . S
C937 C942 1.245 . S
C937 C943 1.428 . S
C938 C941 1.260 . S
C938 C942 1.477 . S
C938 H956 0.932 . S
C939 C940 1.384 . S
C939 C941 1.479 . S
C939 H957 0.929 . S
C940 C937 1.424 . S
C940 C939 1.384 . S
C940 H958 0.928 . S
C941 C938 1.260 . S
C941 C939 1.479 . S
C942 C937 1.245 . S
C942 C938 1.477 . S
C942 H959 0.932 . S
C943 U926 2.882 . S
C943 C937 1.428 . S
C943 O946 1.301 . S
C943 O947 1.282 . S
O944 U926 2.441 . S
O944 C930 1.249 . S
O945 U926 2.420 . S
O945 C930 1.202 . S
O946 U926 2.455 . S
O946 C943 1.301 . S
O947 U926 2.449 . S
O947 C943 1.282 . S
H948 C921 0.931 . S
H949 C923 0.929 . S
H950 C924 0.930 . S
H951 C925 0.931 . S
H952 C932 0.932 . S
H953 C933 0.930 . S
H954 C934 0.929 . S
H955 C936 0.930 . S
H956 C938 0.932 . S
H957 C939 0.929 . S
H958 C940 0.928 . S
H959 C942 0.932 . S
C960 C961 1.264 . S
C960 C965 1.479 . S
C960 C970 1.465 . S
C961 C960 1.264 . S
C961 C963 1.339 . S
C961 H988 0.931 . S
C962 C963 1.395 . S
C962 C964 1.320 . S
C963 C961 1.339 . S
C963 C962 1.395 . S
C963 H989 0.929 . S
C964 C962 1.320 . S
C964 C965 1.405 . S
C964 H990 0.930 . S
C965 C960 1.479 . S
C965 C964 1.405 . S
C965 H991 0.931 . S
U966 O967 2.454 . S
U966 O968 2.458 . S
U966 C969 2.984 . S
U966 C970 2.847 . S
U966 C983 2.882 . S
U966 O984 2.441 . S
U966 O985 2.420 . S
U966 O986 2.455 . S
U966 O987 2.449 . S
O967 U966 2.454 . S
O967 C969 1.353 . S
O968 U966 2.458 . S
O968 C969 1.286 . S
C969 U966 2.984 . S
C969 O967 1.353 . S
C969 O968 1.286 . S
C969 C971 1.363 . S
C970 C960 1.465 . S
C970 U966 2.847 . S
C970 O984 1.249 . S
C970 O985 1.202 . S
C971 C969 1.363 . S
C971 C973 1.408 . S
C971 C976 1.342 . S
C972 C973 1.310 . S
C972 C975 1.461 . S
C972 H992 0.932 . S
C973 C971 1.408 . S
C973 C972 1.310 . S
C973 H993 0.930 . S
C974 C975 1.474 . S
C974 C976 1.285 . S
C974 H994 0.929 . S
C975 C972 1.461 . S
C975 C974 1.474 . S
C976 C971 1.342 . S
C976 C974 1.285 . S
C976 H995 0.930 . S
C977 C980 1.424 . S
C977 C982 1.245 . S
C977 C983 1.428 . S
C978 C981 1.260 . S
C978 C982 1.477 . S
C978 H996 0.932 . S
C979 C980 1.384 . S
C979 C981 1.479 . S
C979 H997 0.929 . S
C980 C977 1.424 . S
C980 C979 1.384 . S
C980 H998 0.928 . S
C981 C978 1.260 . S
C981 C979 1.479 . S
C982 C977 1.245 . S
C982 C978 1.477 . S
C982 H999 0.932 . S
C983 U966 2.882 . S
C983 C977 1.428 . S
C983 O986 1.301 . S
C983 O987 1.282 . S
O984 U966 2.441 . S
O984 C970 1.249 . S
O985 U966 2.420 . S
O985 C970 1.202 . S
O986 U966 2.455 . S
O986 C983 1.301 . S
O987 U966 2.449 . S
O987 C983 1.282 . S
H988 C961 0.931 . S
H989 C963 0.929 . S
H990 C964 0.930 . S
H991 C965 0.931 . S
H992 C972 0.932 . S
H993 C973 0.930 . S
H994 C974 0.929 . S
H995 C976 0.930 . S
H996 C978 0.932 . S
H997 C979 0.929 . S
H998 C980 0.928 . S
H999 C982 0.932 . S
C1000 C1001 1.264 . S
C1000 C1005 1.479 . S
C1000 C1010 1.465 . S
C1001 C1000 1.264 . S
C1001 C1003 1.339 . S
C1001 H1028 0.931 . S
C1002 C1003 1.395 . S
C1002 C1004 1.320 . S
C1003 C1001 1.339 . S
C1003 C1002 1.395 . S
C1003 H1029 0.929 . S
C1004 C1002 1.320 . S
C1004 C1005 1.405 . S
C1004 H1030 0.930 . S
C1005 C1000 1.479 . S
C1005 C1004 1.405 . S
C1005 H1031 0.931 . S
U1006 O1007 2.454 . S
U1006 O1008 2.458 . S
U1006 C1009 2.984 . S
U1006 C1010 2.847 . S
U1006 C1023 2.882 . S
U1006 O1024 2.441 . S
U1006 O1025 2.420 . S
U1006 O1026 2.455 . S
U1006 O1027 2.449 . S
O1007 U1006 2.454 . S
O1007 C1009 1.353 . S
O1008 U1006 2.458 . S
O1008 C1009 1.286 . S
C1009 U1006 2.984 . S
C1009 O1007 1.353 . S
C1009 O1008 1.286 . S
C1009 C1011 1.363 . S
C1010 C1000 1.465 . S
C1010 U1006 2.847 . S
C1010 O1024 1.249 . S
C1010 O1025 1.202 . S
C1011 C1009 1.363 . S
C1011 C1013 1.408 . S
C1011 C1016 1.342 . S
C1012 C1013 1.310 . S
C1012 C1015 1.461 . S
C1012 H1032 0.932 . S
C1013 C1011 1.408 . S
C1013 C1012 1.310 . S
C1013 H1033 0.930 . S
C1014 C1015 1.474 . S
C1014 C1016 1.285 . S
C1014 H1034 0.929 . S
C1015 C1012 1.461 . S
C1015 C1014 1.474 . S
C1016 C1011 1.342 . S
C1016 C1014 1.285 . S
C1016 H1035 0.930 . S
C1017 C1020 1.424 . S
C1017 C1022 1.245 . S
C1017 C1023 1.428 . S
C1018 C1021 1.260 . S
C1018 C1022 1.477 . S
C1018 H1036 0.932 . S
C1019 C1020 1.384 . S
C1019 C1021 1.479 . S
C1019 H1037 0.929 . S
C1020 C1017 1.424 . S
C1020 C1019 1.384 . S
C1020 H1038 0.928 . S
C1021 C1018 1.260 . S
C1021 C1019 1.479 . S
C1022 C1017 1.245 . S
C1022 C1018 1.477 . S
C1022 H1039 0.932 . S
C1023 U1006 2.882 . S
C1023 C1017 1.428 . S
C1023 O1026 1.301 . S
C1023 O1027 1.282 . S
O1024 U1006 2.441 . S
O1024 C1010 1.249 . S
O1025 U1006 2.420 . S
O1025 C1010 1.202 . S
O1026 U1006 2.455 . S
O1026 C1023 1.301 . S
O1027 U1006 2.449 . S
O1027 C1023 1.282 . S
H1028 C1001 0.931 . S
H1029 C1003 0.929 . S
H1030 C1004 0.930 . S
H1031 C1005 0.931 . S
H1032 C1012 0.932 . S
H1033 C1013 0.930 . S
H1034 C1014 0.929 . S
H1035 C1016 0.930 . S
H1036 C1018 0.932 . S
H1037 C1019 0.929 . S
H1038 C1020 0.928 . S
H1039 C1022 0.932 . S
C1040 C1041 1.264 . S
C1040 C1045 1.479 . S
C1040 C1050 1.465 . S
C1041 C1040 1.264 . S
C1041 C1043 1.339 . S
C1041 H1068 0.931 . S
C1042 C1043 1.395 . S
C1042 C1044 1.320 . S
C1043 C1041 1.339 . S
C1043 C1042 1.395 . S
C1043 H1069 0.929 . S
C1044 C1042 1.320 . S
C1044 C1045 1.405 . S
C1044 H1070 0.930 . S
C1045 C1040 1.479 . S
C1045 C1044 1.405 . S
C1045 H1071 0.931 . S
U1046 O1047 2.454 . S
U1046 O1048 2.458 . S
U1046 C1049 2.984 . S
U1046 C1050 2.847 . S
U1046 C1063 2.882 . S
U1046 O1064 2.441 . S
U1046 O1065 2.420 . S
U1046 O1066 2.455 . S
U1046 O1067 2.449 . S
O1047 U1046 2.454 . S
O1047 C1049 1.353 . S
O1048 U1046 2.458 . S
O1048 C1049 1.286 . S
C1049 U1046 2.984 . S
C1049 O1047 1.353 . S
C1049 O1048 1.286 . S
C1049 C1051 1.363 . S
C1050 C1040 1.465 . S
C1050 U1046 2.847 . S
C1050 O1064 1.249 . S
C1050 O1065 1.202 . S
C1051 C1049 1.363 . S
C1051 C1053 1.408 . S
C1051 C1056 1.342 . S
C1052 C1053 1.310 . S
C1052 C1055 1.461 . S
C1052 H1072 0.932 . S
C1053 C1051 1.408 . S
C1053 C1052 1.310 . S
C1053 H1073 0.930 . S
C1054 C1055 1.474 . S
C1054 C1056 1.285 . S
C1054 H1074 0.929 . S
C1055 C1052 1.461 . S
C1055 C1054 1.474 . S
C1056 C1051 1.342 . S
C1056 C1054 1.285 . S
C1056 H1075 0.930 . S
C1057 C1060 1.424 . S
C1057 C1062 1.245 . S
C1057 C1063 1.428 . S
C1058 C1061 1.260 . S
C1058 C1062 1.477 . S
C1058 H1076 0.932 . S
C1059 C1060 1.384 . S
C1059 C1061 1.479 . S
C1059 H1077 0.929 . S
C1060 C1057 1.424 . S
C1060 C1059 1.384 . S
C1060 H1078 0.928 . S
C1061 C1058 1.260 . S
C1061 C1059 1.479 . S
C1062 C1057 1.245 . S
C1062 C1058 1.477 . S
C1062 H1079 0.932 . S
C1063 U1046 2.882 . S
C1063 C1057 1.428 . S
C1063 O1066 1.301 . S
C1063 O1067 1.282 . S
O1064 U1046 2.441 . S
O1064 C1050 1.249 . S
O1065 U1046 2.420 . S
O1065 C1050 1.202 . S
O1066 U1046 2.455 . S
O1066 C1063 1.301 . S
O1067 U1046 2.449 . S
O1067 C1063 1.282 . S
H1068 C1041 0.931 . S
H1069 C1043 0.929 . S
H1070 C1044 0.930 . S
H1071 C1045 0.931 . S
H1072 C1052 0.932 . S
H1073 C1053 0.930 . S
H1074 C1054 0.929 . S
H1075 C1056 0.930 . S
H1076 C1058 0.932 . S
H1077 C1059 0.929 . S
H1078 C1060 0.928 . S
H1079 C1062 0.932 . S
C1080 C1081 1.264 . S
C1080 C1085 1.479 . S
C1080 C1090 1.465 . S
C1081 C1080 1.264 . S
C1081 C1083 1.339 . S
C1081 H1108 0.931 . S
C1082 C1083 1.395 . S
C1082 C1084 1.320 . S
C1083 C1081 1.339 . S
C1083 C1082 1.395 . S
C1083 H1109 0.929 . S
C1084 C1082 1.320 . S
C1084 C1085 1.405 . S
C1084 H1110 0.930 . S
C1085 C1080 1.479 . S
C1085 C1084 1.405 . S
C1085 H1111 0.931 . S
U1086 O1087 2.454 . S
U1086 O1088 2.458 . S
U1086 C1089 2.984 . S
U1086 C1090 2.847 . S
U1086 C1103 2.882 . S
U1086 O1104 2.441 . S
U1086 O1105 2.420 . S
U1086 O1106 2.455 . S
U1086 O1107 2.449 . S
O1087 U1086 2.454 . S
O1087 C1089 1.353 . S
O1088 U1086 2.458 . S
O1088 C1089 1.286 . S
C1089 U1086 2.984 . S
C1089 O1087 1.353 . S
C1089 O1088 1.286 . S
C1089 C1091 1.363 . S
C1090 C1080 1.465 . S
C1090 U1086 2.847 . S
C1090 O1104 1.249 . S
C1090 O1105 1.202 . S
C1091 C1089 1.363 . S
C1091 C1093 1.408 . S
C1091 C1096 1.342 1_655 S
C1092 C1093 1.310 . S
C1092 C1095 1.461 1_655 S
C1092 H1112 0.932 . S
C1093 C1091 1.408 . S
C1093 C1092 1.310 . S
C1093 H1113 0.930 . S
C1094 C1095 1.474 . S
C1094 C1096 1.285 . S
C1094 H1114 0.929 . S
C1095 C1092 1.461 1_455 S
C1095 C1094 1.474 . S
C1096 C1091 1.342 1_455 S
C1096 C1094 1.285 . S
C1096 H1115 0.930 . S
C1097 C1100 1.424 . S
C1097 C1102 1.245 . S
C1097 C1103 1.428 . S
C1098 C1101 1.260 . S
C1098 C1102 1.477 . S
C1098 H1116 0.932 1_655 S
C1099 C1100 1.384 . S
C1099 C1101 1.479 . S
C1099 H1117 0.929 . S
C1100 C1097 1.424 . S
C1100 C1099 1.384 . S
C1100 H1118 0.928 . S
C1101 C1098 1.260 . S
C1101 C1099 1.479 . S
C1102 C1097 1.245 . S
C1102 C1098 1.477 . S
C1102 H1119 0.907 1_655 S
C1103 U1086 2.882 . S
C1103 C1097 1.428 . S
C1103 O1106 1.301 . S
C1103 O1107 1.282 . S
O1104 U1086 2.441 . S
O1104 C1090 1.249 . S
O1105 U1086 2.420 . S
O1105 C1090 1.202 . S
O1106 U1086 2.455 . S
O1106 C1103 1.301 . S
O1107 U1086 2.449 . S
O1107 C1103 1.282 . S
H1108 C1081 0.931 . S
H1109 C1083 0.929 . S
H1110 C1084 0.930 . S
H1111 C1085 0.931 . S
H1112 C1092 0.932 . S
H1113 C1093 0.930 . S
H1114 C1094 0.929 . S
H1115 C1096 0.930 . S
H1116 C1098 0.932 1_455 S
H1117 C1099 0.929 . S
H1118 C1100 0.928 . S
H1119 C1102 0.907 1_455 S
C1120 C1121 1.264 . S
C1120 C1125 1.479 . S
C1120 C1130 1.465 . S
C1121 C1120 1.264 . S
C1121 C1123 1.339 . S
C1121 H1148 0.931 . S
C1122 C1123 1.395 . S
C1122 C1124 1.320 . S
C1123 C1121 1.339 . S
C1123 C1122 1.395 . S
C1123 H1149 0.929 . S
C1124 C1122 1.320 . S
C1124 C1125 1.405 . S
C1124 H1150 0.930 . S
C1125 C1120 1.479 . S
C1125 C1124 1.405 . S
C1125 H1151 0.931 . S
U1126 O1127 2.454 . S
U1126 O1128 2.458 . S
U1126 C1129 2.984 . S
U1126 C1130 2.847 . S
U1126 C1143 2.882 . S
U1126 O1144 2.441 . S
U1126 O1145 2.420 . S
U1126 O1146 2.455 . S
U1126 O1147 2.449 . S
O1127 U1126 2.454 . S
O1127 C1129 1.353 . S
O1128 U1126 2.458 . S
O1128 C1129 1.286 . S
C1129 U1126 2.984 . S
C1129 O1127 1.353 . S
C1129 O1128 1.286 . S
C1129 C1131 1.363 . S
C1130 C1120 1.465 . S
C1130 U1126 2.847 . S
C1130 O1144 1.249 . S
C1130 O1145 1.202 . S
C1131 C1129 1.363 . S
C1131 C1133 1.408 . S
C1131 C1136 1.342 . S
C1132 C1133 1.310 . S
C1132 C1135 1.461 . S
C1132 H1152 0.932 . S
C1133 C1131 1.408 . S
C1133 C1132 1.310 . S
C1133 H1153 0.930 . S
C1134 C1135 1.474 . S
C1134 C1136 1.285 . S
C1134 H1154 0.929 . S
C1135 C1132 1.461 . S
C1135 C1134 1.474 . S
C1136 C1131 1.342 . S
C1136 C1134 1.285 . S
C1136 H1155 0.930 . S
C1137 C1140 1.424 . S
C1137 C1142 1.245 . S
C1137 C1143 1.428 . S
C1138 C1141 1.260 . S
C1138 C1142 1.477 . S
C1138 H1156 0.932 . S
C1139 C1140 1.384 . S
C1139 C1141 1.479 . S
C1139 H1157 0.929 . S
C1140 C1137 1.424 . S
C1140 C1139 1.384 . S
C1140 H1158 0.928 . S
C1141 C1138 1.260 . S
C1141 C1139 1.479 . S
C1142 C1137 1.245 . S
C1142 C1138 1.477 . S
C1142 H1159 0.932 . S
C1143 U1126 2.882 . S
C1143 C1137 1.428 . S
C1143 O1146 1.301 . S
C1143 O1147 1.282 . S
O1144 U1126 2.441 . S
O1144 C1130 1.249 . S
O1145 U1126 2.420 . S
O1145 C1130 1.202 . S
O1146 U1126 2.455 . S
O1146 C1143 1.301 . S
O1147 U1126 2.449 . S
O1147 C1143 1.282 . S
H1148 C1121 0.931 . S
H1149 C1123 0.929 . S
H1150 C1124 0.930 . S
H1151 C1125 0.931 . S
H1152 C1132 0.932 . S
H1153 C1133 0.930 . S
H1154 C1134 0.929 . S
H1155 C1136 0.930 . S
H1156 C1138 0.932 . S
H1157 C1139 0.929 . S
H1158 C1140 0.928 . S
H1159 C1142 0.932 . S
C1160 C1161 1.264 . S
C1160 C1165 1.479 . S
C1160 C1170 1.465 . S
C1161 C1160 1.264 . S
C1161 C1163 1.339 . S
C1161 H1188 0.931 . S
C1162 C1163 1.395 . S
C1162 C1164 1.320 . S
C1163 C1161 1.339 . S
C1163 C1162 1.395 . S
C1163 H1189 0.929 . S
C1164 C1162 1.320 . S
C1164 C1165 1.405 . S
C1164 H1190 0.930 . S
C1165 C1160 1.479 . S
C1165 C1164 1.405 . S
C1165 H1191 0.931 . S
U1166 O1167 2.454 . S
U1166 O1168 2.458 . S
U1166 C1169 2.984 . S
U1166 C1170 2.847 . S
U1166 C1183 2.882 . S
U1166 O1184 2.441 . S
U1166 O1185 2.420 . S
U1166 O1186 2.455 . S
U1166 O1187 2.449 . S
O1167 U1166 2.454 . S
O1167 C1169 1.353 . S
O1168 U1166 2.458 . S
O1168 C1169 1.286 . S
C1169 U1166 2.984 . S
C1169 O1167 1.353 . S
C1169 O1168 1.286 . S
C1169 C1171 1.363 . S
C1170 C1160 1.465 . S
C1170 U1166 2.847 . S
C1170 O1184 1.249 . S
C1170 O1185 1.202 . S
C1171 C1169 1.363 . S
C1171 C1173 1.408 . S
C1171 C1176 1.342 1_655 S
C1172 C1173 1.310 . S
C1172 C1175 1.461 1_655 S
C1172 H1192 0.932 . S
C1173 C1171 1.408 . S
C1173 C1172 1.310 . S
C1173 H1193 0.930 . S
C1174 C1175 1.474 . S
C1174 C1176 1.285 . S
C1174 H1194 0.929 . S
C1175 C1172 1.461 1_455 S
C1175 C1174 1.474 . S
C1176 C1171 1.342 1_455 S
C1176 C1174 1.285 . S
C1176 H1195 0.930 . S
C1177 C1180 1.424 . S
C1177 C1182 1.245 . S
C1177 C1183 1.428 . S
C1178 C1181 1.260 . S
C1178 C1182 1.477 . S
C1178 H1196 0.932 1_655 S
C1179 C1180 1.384 . S
C1179 C1181 1.479 . S
C1179 H1197 0.929 . S
C1180 C1177 1.424 . S
C1180 C1179 1.384 . S
C1180 H1198 0.928 . S
C1181 C1178 1.260 . S
C1181 C1179 1.479 . S
C1182 C1177 1.245 . S
C1182 C1178 1.477 . S
C1182 H1199 0.907 1_655 S
C1183 U1166 2.882 . S
C1183 C1177 1.428 . S
C1183 O1186 1.301 . S
C1183 O1187 1.282 . S
O1184 U1166 2.441 . S
O1184 C1170 1.249 . S
O1185 U1166 2.420 . S
O1185 C1170 1.202 . S
O1186 U1166 2.455 . S
O1186 C1183 1.301 . S
O1187 U1166 2.449 . S
O1187 C1183 1.282 . S
H1188 C1161 0.931 . S
H1189 C1163 0.929 . S
H1190 C1164 0.930 . S
H1191 C1165 0.931 . S
H1192 C1172 0.932 . S
H1193 C1173 0.930 . S
H1194 C1174 0.929 . S
H1195 C1176 0.930 . S
H1196 C1178 0.932 1_455 S
H1197 C1179 0.929 . S
H1198 C1180 0.928 . S
H1199 C1182 0.907 1_455 S
C1200 C1201 1.264 . S
C1200 C1205 1.479 . S
C1200 C1210 1.465 . S
C1201 C1200 1.264 . S
C1201 C1203 1.339 . S
C1201 H1228 0.931 . S
C1202 C1203 1.395 . S
C1202 C1204 1.320 . S
C1203 C1201 1.339 . S
C1203 C1202 1.395 . S
C1203 H1229 0.929 . S
C1204 C1202 1.320 . S
C1204 C1205 1.405 . S
C1204 H1230 0.930 . S
C1205 C1200 1.479 . S
C1205 C1204 1.405 . S
C1205 H1231 0.931 . S
U1206 O1207 2.454 . S
U1206 O1208 2.458 . S
U1206 C1209 2.984 . S
U1206 C1210 2.847 . S
U1206 C1223 2.882 . S
U1206 O1224 2.441 . S
U1206 O1225 2.420 . S
U1206 O1226 2.455 . S
U1206 O1227 2.449 . S
O1207 U1206 2.454 . S
O1207 C1209 1.353 . S
O1208 U1206 2.458 . S
O1208 C1209 1.286 . S
C1209 U1206 2.984 . S
C1209 O1207 1.353 . S
C1209 O1208 1.286 . S
C1209 C1211 1.363 . S
C1210 C1200 1.465 . S
C1210 U1206 2.847 . S
C1210 O1224 1.249 . S
C1210 O1225 1.202 . S
C1211 C1209 1.363 . S
C1211 C1213 1.408 . S
C1211 C1216 1.342 . S
C1212 C1213 1.310 . S
C1212 C1215 1.461 . S
C1212 H1232 0.932 . S
C1213 C1211 1.408 . S
C1213 C1212 1.310 . S
C1213 H1233 0.930 . S
C1214 C1215 1.474 . S
C1214 C1216 1.285 . S
C1214 H1234 0.929 . S
C1215 C1212 1.461 . S
C1215 C1214 1.474 . S
C1216 C1211 1.342 . S
C1216 C1214 1.285 . S
C1216 H1235 0.930 . S
C1217 C1220 1.424 . S
C1217 C1222 1.245 . S
C1217 C1223 1.428 . S
C1218 C1221 1.260 . S
C1218 C1222 1.477 . S
C1218 H1236 0.932 . S
C1219 C1220 1.384 . S
C1219 C1221 1.479 . S
C1219 H1237 0.929 . S
C1220 C1217 1.424 . S
C1220 C1219 1.384 . S
C1220 H1238 0.928 . S
C1221 C1218 1.260 . S
C1221 C1219 1.479 . S
C1222 C1217 1.245 . S
C1222 C1218 1.477 . S
C1222 H1239 0.932 . S
C1223 U1206 2.882 . S
C1223 C1217 1.428 . S
C1223 O1226 1.301 . S
C1223 O1227 1.282 . S
O1224 U1206 2.441 . S
O1224 C1210 1.249 . S
O1225 U1206 2.420 . S
O1225 C1210 1.202 . S
O1226 U1206 2.455 . S
O1226 C1223 1.301 . S
O1227 U1206 2.449 . S
O1227 C1223 1.282 . S
H1228 C1201 0.931 . S
H1229 C1203 0.929 . S
H1230 C1204 0.930 . S
H1231 C1205 0.931 . S
H1232 C1212 0.932 . S
H1233 C1213 0.930 . S
H1234 C1214 0.929 . S
H1235 C1216 0.930 . S
H1236 C1218 0.932 . S
H1237 C1219 0.929 . S
H1238 C1220 0.928 . S
H1239 C1222 0.932 . S
C1240 C1241 1.264 . S
C1240 C1245 1.479 . S
C1240 C1250 1.465 . S
C1241 C1240 1.264 . S
C1241 C1243 1.339 . S
C1241 H1268 0.931 . S
C1242 C1243 1.395 . S
C1242 C1244 1.320 . S
C1243 C1241 1.339 . S
C1243 C1242 1.395 . S
C1243 H1269 0.929 . S
C1244 C1242 1.320 . S
C1244 C1245 1.405 . S
C1244 H1270 0.930 . S
C1245 C1240 1.479 . S
C1245 C1244 1.405 . S
C1245 H1271 0.931 . S
U1246 O1247 2.454 . S
U1246 O1248 2.458 . S
U1246 C1249 2.984 . S
U1246 C1250 2.847 . S
U1246 C1263 2.882 . S
U1246 O1264 2.441 . S
U1246 O1265 2.420 . S
U1246 O1266 2.455 . S
U1246 O1267 2.449 . S
O1247 U1246 2.454 . S
O1247 C1249 1.353 . S
O1248 U1246 2.458 . S
O1248 C1249 1.286 . S
C1249 U1246 2.984 . S
C1249 O1247 1.353 . S
C1249 O1248 1.286 . S
C1249 C1251 1.363 . S
C1250 C1240 1.465 . S
C1250 U1246 2.847 . S
C1250 O1264 1.249 . S
C1250 O1265 1.202 . S
C1251 C1249 1.363 . S
C1251 C1253 1.408 . S
C1251 C1256 1.342 . S
C1252 C1253 1.310 . S
C1252 C1255 1.461 . S
C1252 H1272 0.932 . S
C1253 C1251 1.408 . S
C1253 C1252 1.310 . S
C1253 H1273 0.930 . S
C1254 C1255 1.474 . S
C1254 C1256 1.285 . S
C1254 H1274 0.929 . S
C1255 C1252 1.461 . S
C1255 C1254 1.474 . S
C1256 C1251 1.342 . S
C1256 C1254 1.285 . S
C1256 H1275 0.930 . S
C1257 C1260 1.424 . S
C1257 C1262 1.245 . S
C1257 C1263 1.428 . S
C1258 C1261 1.260 . S
C1258 C1262 1.477 . S
C1258 H1276 0.932 . S
C1259 C1260 1.384 . S
C1259 C1261 1.479 . S
C1259 H1277 0.929 . S
C1260 C1257 1.424 . S
C1260 C1259 1.384 . S
C1260 H1278 0.928 . S
C1261 C1258 1.260 . S
C1261 C1259 1.479 . S
C1262 C1257 1.245 . S
C1262 C1258 1.477 . S
C1262 H1279 0.932 . S
C1263 U1246 2.882 . S
C1263 C1257 1.428 . S
C1263 O1266 1.301 . S
C1263 O1267 1.282 . S
O1264 U1246 2.441 . S
O1264 C1250 1.249 . S
O1265 U1246 2.420 . S
O1265 C1250 1.202 . S
O1266 U1246 2.455 . S
O1266 C1263 1.301 . S
O1267 U1246 2.449 . S
O1267 C1263 1.282 . S
H1268 C1241 0.931 . S
H1269 C1243 0.929 . S
H1270 C1244 0.930 . S
H1271 C1245 0.931 . S
H1272 C1252 0.932 . S
H1273 C1253 0.930 . S
H1274 C1254 0.929 . S
H1275 C1256 0.930 . S
H1276 C1258 0.932 . S
H1277 C1259 0.929 . S
H1278 C1260 0.928 . S
H1279 C1262 0.932 . S
C1280 C1281 1.363 . S
C1280 C1286 1.379 . S
C1280 N1288 1.356 . S
C1281 C1280 1.363 . S
C1281 C1287 1.363 . S
C1282 C1283 1.363 . S
C1282 C1287 1.379 . S
C1282 N1289 1.356 . S
C1283 C1282 1.363 . S
C1283 C1286 1.363 . S
N1284 C1286 1.356 . S
N1284 H1296 0.984 . S
N1284 H1297 0.985 . S
N1285 C1287 1.356 . S
N1285 H1290 0.984 . S
N1285 H1291 0.985 . S
C1286 C1280 1.379 . S
C1286 C1283 1.363 . S
C1286 N1284 1.356 . S
C1287 C1281 1.363 . S
C1287 C1282 1.379 . S
C1287 N1285 1.356 . S
N1288 C1280 1.356 . S
N1288 H1294 0.984 . S
N1288 H1295 0.984 . S
N1289 C1282 1.356 . S
N1289 H1292 0.984 . S
N1289 H1293 0.985 . S
H1290 N1285 0.984 . S
H1291 N1285 0.985 . S
H1292 N1289 0.984 . S
H1293 N1289 0.985 . S
H1294 N1288 0.984 . S
H1295 N1288 0.984 . S
H1296 N1284 0.984 . S
H1297 N1284 0.985 . S
C1298 C1299 1.363 1_655 S
C1298 C1304 1.379 . S
C1298 N1306 1.356 . S
C1299 C1298 1.363 1_455 S
C1299 C1305 1.363 1_565 S
C1300 C1301 1.363 1_455 S
C1300 C1305 1.379 . S
C1300 N1307 1.356 . S
C1301 C1300 1.363 1_655 S
C1301 C1304 1.363 1_545 S
N1302 C1304 1.356 . S
N1302 H1314 0.984 . S
N1302 H1315 0.985 1_565 S
N1303 C1305 1.356 . S
N1303 H1308 0.984 1_545 S
N1303 H1309 0.985 . S
C1304 C1298 1.379 . S
C1304 C1301 1.363 1_565 S
C1304 N1302 1.356 . S
C1305 C1299 1.363 1_545 S
C1305 C1300 1.379 . S
C1305 N1303 1.356 . S
N1306 C1298 1.356 . S
N1306 H1312 0.984 . S
N1306 H1313 0.984 . S
N1307 C1300 1.356 . S
N1307 H1310 0.984 . S
N1307 H1311 0.985 . S
H1308 N1303 0.984 1_565 S
H1309 N1303 0.985 . S
H1310 N1307 0.984 . S
H1311 N1307 0.985 . S
H1312 N1306 0.984 . S
H1313 N1306 0.984 . S
H1314 N1302 0.984 . S
H1315 N1302 0.985 1_545 S
C1316 C1317 1.363 . S
C1316 C1322 1.379 . S
C1316 N1324 1.356 . S
C1317 C1316 1.363 . S
C1317 C1323 1.363 . S
C1318 C1319 1.363 . S
C1318 C1323 1.379 . S
C1318 N1325 1.356 . S
C1319 C1318 1.363 . S
C1319 C1322 1.363 . S
N1320 C1322 1.356 . S
N1320 H1332 0.984 . S
N1320 H1333 0.985 . S
N1321 C1323 1.356 . S
N1321 H1326 0.984 . S
N1321 H1327 0.985 . S
C1322 C1316 1.379 . S
C1322 C1319 1.363 . S
C1322 N1320 1.356 . S
C1323 C1317 1.363 . S
C1323 C1318 1.379 . S
C1323 N1321 1.356 . S
N1324 C1316 1.356 . S
N1324 H1330 0.984 . S
N1324 H1331 0.984 . S
N1325 C1318 1.356 . S
N1325 H1328 0.984 . S
N1325 H1329 0.985 . S
H1326 N1321 0.984 . S
H1327 N1321 0.985 . S
H1328 N1325 0.984 . S
H1329 N1325 0.985 . S
H1330 N1324 0.984 . S
H1331 N1324 0.984 . S
H1332 N1320 0.984 . S
H1333 N1320 0.985 . S
C1334 C1335 1.363 1_565 S
C1334 C1340 1.414 . S
C1334 N1342 1.356 . S
C1335 C1334 1.363 1_545 S
C1335 C1341 1.325 1_556 S
C1336 C1337 1.363 1_545 S
C1336 C1341 1.414 . S
C1336 N1343 1.356 . S
C1337 C1336 1.363 1_565 S
C1337 C1340 1.325 1_554 S
N1338 C1340 1.347 1_554 S
N1338 H1350 0.984 1_554 S
N1338 H1351 0.985 . S
N1339 C1341 1.347 1_556 S
N1339 H1344 0.984 . S
N1339 H1345 0.985 1_556 S
C1340 C1334 1.414 . S
C1340 C1337 1.325 1_556 S
C1340 N1338 1.347 1_556 S
C1341 C1335 1.325 1_554 S
C1341 C1336 1.414 . S
C1341 N1339 1.347 1_554 S
N1342 C1334 1.356 . S
N1342 H1348 0.984 . S
N1342 H1349 0.984 1_565 S
N1343 C1336 1.356 . S
N1343 H1346 0.984 1_545 S
N1343 H1347 0.985 . S
H1344 N1339 0.984 . S
H1345 N1339 0.985 1_554 S
H1346 N1343 0.984 1_565 S
H1347 N1343 0.985 . S
H1348 N1342 0.984 . S
H1349 N1342 0.984 1_545 S
H1350 N1338 0.984 1_556 S
H1351 N1338 0.985 . S
C1352 C1353 1.363 . S
C1352 C1358 1.379 . S
C1352 N1360 1.356 . S
C1353 C1352 1.363 . S
C1353 C1359 1.363 . S
C1354 C1355 1.363 . S
C1354 C1359 1.379 . S
C1354 N1361 1.356 . S
C1355 C1354 1.363 . S
C1355 C1358 1.363 . S
N1356 C1358 1.356 . S
N1356 H1368 0.984 . S
N1356 H1369 0.985 . S
N1357 C1359 1.356 . S
N1357 H1362 0.984 . S
N1357 H1363 0.985 . S
C1358 C1352 1.379 . S
C1358 C1355 1.363 . S
C1358 N1356 1.356 . S
C1359 C1353 1.363 . S
C1359 C1354 1.379 . S
C1359 N1357 1.356 . S
N1360 C1352 1.356 . S
N1360 H1366 0.984 . S
N1360 H1367 0.984 . S
N1361 C1354 1.356 . S
N1361 H1364 0.984 . S
N1361 H1365 0.985 . S
H1362 N1357 0.984 . S
H1363 N1357 0.985 . S
H1364 N1361 0.984 . S
H1365 N1361 0.985 . S
H1366 N1360 0.984 . S
H1367 N1360 0.984 . S
H1368 N1356 0.984 . S
H1369 N1356 0.985 . S
C1370 C1371 1.363 1_545 S
C1370 C1376 1.379 . S
C1370 N1378 1.356 . S
C1371 C1370 1.363 1_565 S
C1371 C1377 1.363 . S
C1372 C1373 1.363 1_565 S
C1372 C1377 1.379 . S
C1372 N1379 1.356 . S
C1373 C1372 1.363 1_545 S
C1373 C1376 1.363 . S
N1374 C1376 1.356 . S
N1374 H1386 0.984 . S
N1374 H1387 0.985 . S
N1375 C1377 1.356 . S
N1375 H1380 0.984 . S
N1375 H1381 0.985 . S
C1376 C1370 1.379 . S
C1376 C1373 1.363 . S
C1376 N1374 1.356 . S
C1377 C1371 1.363 . S
C1377 C1372 1.379 . S
C1377 N1375 1.356 . S
N1378 C1370 1.356 . S
N1378 H1384 0.984 . S
N1378 H1385 0.984 1_545 S
N1379 C1372 1.356 . S
N1379 H1382 0.984 1_565 S
N1379 H1383 0.985 . S
H1380 N1375 0.984 . S
H1381 N1375 0.985 . S
H1382 N1379 0.984 1_545 S
H1383 N1379 0.985 . S
H1384 N1378 0.984 . S
H1385 N1378 0.984 1_565 S
H1386 N1374 0.984 . S
H1387 N1374 0.985 . S
C1388 C1389 1.363 . S
C1388 C1394 1.379 . S
C1388 N1396 1.356 . S
C1389 C1388 1.363 . S
C1389 C1395 1.363 . S
C1390 C1391 1.363 . S
C1390 C1395 1.379 . S
C1390 N1397 1.356 . S
C1391 C1390 1.363 . S
C1391 C1394 1.363 . S
N1392 C1394 1.356 . S
N1392 H1404 0.984 . S
N1392 H1405 0.985 . S
N1393 C1395 1.356 . S
N1393 H1398 0.984 . S
N1393 H1399 0.985 . S
C1394 C1388 1.379 . S
C1394 C1391 1.363 . S
C1394 N1392 1.356 . S
C1395 C1389 1.363 . S
C1395 C1390 1.379 . S
C1395 N1393 1.356 . S
N1396 C1388 1.356 . S
N1396 H1402 0.984 . S
N1396 H1403 0.984 . S
N1397 C1390 1.356 . S
N1397 H1400 0.984 . S
N1397 H1401 0.985 . S
H1398 N1393 0.984 . S
H1399 N1393 0.985 . S
H1400 N1397 0.984 . S
H1401 N1397 0.985 . S
H1402 N1396 0.984 . S
H1403 N1396 0.984 . S
H1404 N1392 0.984 . S
H1405 N1392 0.985 . S
C1406 C1407 1.363 1_445 S
C1406 C1412 1.379 . S
C1406 N1414 1.365 . S
C1407 C1406 1.363 1_665 S
C1407 C1413 1.363 1_556 S
C1408 C1409 1.363 1_665 S
C1408 C1413 1.379 . S
C1408 N1415 1.365 . S
C1409 C1408 1.363 1_445 S
C1409 C1412 1.363 1_554 S
N1410 C1412 1.356 . S
N1410 H1422 0.984 . S
N1410 H1423 0.985 1_556 S
N1411 C1413 1.356 . S
N1411 H1416 0.984 1_554 S
N1411 H1417 0.985 . S
C1412 C1406 1.379 . S
C1412 C1409 1.363 1_556 S
C1412 N1410 1.356 . S
C1413 C1407 1.363 1_554 S
C1413 C1408 1.379 . S
C1413 N1411 1.356 . S
N1414 C1406 1.365 . S
N1414 H1420 1.035 . S
N1414 H1421 0.929 1_445 S
N1415 C1408 1.365 . S
N1415 H1418 0.929 1_665 S
N1415 H1419 1.035 . S
H1416 N1411 0.984 1_556 S
H1417 N1411 0.985 . S
H1418 N1415 0.929 1_445 S
H1419 N1415 1.035 . S
H1420 N1414 1.035 . S
H1421 N1414 0.929 1_665 S
H1422 N1410 0.984 . S
H1423 N1410 0.985 1_554 S
C1424 C1425 1.363 . S
C1424 C1430 1.379 . S
C1424 N1432 1.356 . S
C1425 C1424 1.363 . S
C1425 C1431 1.363 . S
C1426 C1427 1.363 . S
C1426 C1431 1.379 . S
C1426 N1433 1.356 . S
C1427 C1426 1.363 . S
C1427 C1430 1.363 . S
N1428 C1430 1.356 . S
N1428 H1440 0.984 . S
N1428 H1441 0.985 . S
N1429 C1431 1.356 . S
N1429 H1434 0.984 . S
N1429 H1435 0.985 . S
C1430 C1424 1.379 . S
C1430 C1427 1.363 . S
C1430 N1428 1.356 . S
C1431 C1425 1.363 . S
C1431 C1426 1.379 . S
C1431 N1429 1.356 . S
N1432 C1424 1.356 . S
N1432 H1438 0.984 . S
N1432 H1439 0.984 . S
N1433 C1426 1.356 . S
N1433 H1436 0.984 . S
N1433 H1437 0.985 . S
H1434 N1429 0.984 . S
H1435 N1429 0.985 . S
H1436 N1433 0.984 . S
H1437 N1433 0.985 . S
H1438 N1432 0.984 . S
H1439 N1432 0.984 . S
H1440 N1428 0.984 . S
H1441 N1428 0.985 . S
C1442 C1443 1.363 . S
C1442 C1448 1.379 . S
C1442 N1450 1.356 . S
C1443 C1442 1.363 . S
C1443 C1449 1.363 . S
C1444 C1445 1.363 . S
C1444 C1449 1.379 . S
C1444 N1451 1.356 . S
C1445 C1444 1.363 . S
C1445 C1448 1.363 . S
N1446 C1448 1.356 . S
N1446 H1458 0.984 . S
N1446 H1459 0.985 . S
N1447 C1449 1.356 . S
N1447 H1452 0.984 . S
N1447 H1453 0.985 . S
C1448 C1442 1.379 . S
C1448 C1445 1.363 . S
C1448 N1446 1.356 . S
C1449 C1443 1.363 . S
C1449 C1444 1.379 . S
C1449 N1447 1.356 . S
N1450 C1442 1.356 . S
N1450 H1456 0.984 . S
N1450 H1457 0.984 . S
N1451 C1444 1.356 . S
N1451 H1454 0.984 . S
N1451 H1455 0.985 . S
H1452 N1447 0.984 . S
H1453 N1447 0.985 . S
H1454 N1451 0.984 . S
H1455 N1451 0.985 . S
H1456 N1450 0.984 . S
H1457 N1450 0.984 . S
H1458 N1446 0.984 . S
H1459 N1446 0.985 . S
C1460 C1461 1.363 . S
C1460 C1466 1.379 . S
C1460 N1468 1.356 . S
C1461 C1460 1.363 . S
C1461 C1467 1.363 . S
C1462 C1463 1.363 . S
C1462 C1467 1.379 . S
C1462 N1469 1.356 . S
C1463 C1462 1.363 . S
C1463 C1466 1.363 . S
N1464 C1466 1.356 . S
N1464 H1476 0.984 . S
N1464 H1477 0.985 . S
N1465 C1467 1.356 . S
N1465 H1470 0.984 . S
N1465 H1471 0.985 . S
C1466 C1460 1.379 . S
C1466 C1463 1.363 . S
C1466 N1464 1.356 . S
C1467 C1461 1.363 . S
C1467 C1462 1.379 . S
C1467 N1465 1.356 . S
N1468 C1460 1.356 . S
N1468 H1474 0.984 . S
N1468 H1475 0.984 . S
N1469 C1462 1.356 . S
N1469 H1472 0.984 . S
N1469 H1473 0.985 . S
H1470 N1465 0.984 . S
H1471 N1465 0.985 . S
H1472 N1469 0.984 . S
H1473 N1469 0.985 . S
H1474 N1468 0.984 . S
H1475 N1468 0.984 . S
H1476 N1464 0.984 . S
H1477 N1464 0.985 . S
C1478 C1479 1.363 . S
C1478 C1484 1.379 . S
C1478 N1486 1.356 . S
C1479 C1478 1.363 . S
C1479 C1485 1.363 . S
C1480 C1481 1.363 . S
C1480 C1485 1.379 . S
C1480 N1487 1.356 . S
C1481 C1480 1.363 . S
C1481 C1484 1.363 . S
N1482 C1484 1.356 . S
N1482 H1494 0.984 . S
N1482 H1495 0.985 . S
N1483 C1485 1.356 . S
N1483 H1488 0.984 . S
N1483 H1489 0.985 . S
C1484 C1478 1.379 . S
C1484 C1481 1.363 . S
C1484 N1482 1.356 . S
C1485 C1479 1.363 . S
C1485 C1480 1.379 . S
C1485 N1483 1.356 . S
N1486 C1478 1.356 . S
N1486 H1492 0.984 . S
N1486 H1493 0.984 . S
N1487 C1480 1.356 . S
N1487 H1490 0.984 . S
N1487 H1491 0.985 . S
H1488 N1483 0.984 . S
H1489 N1483 0.985 . S
H1490 N1487 0.984 . S
H1491 N1487 0.985 . S
H1492 N1486 0.984 . S
H1493 N1486 0.984 . S
H1494 N1482 0.984 . S
H1495 N1482 0.985 . S
C1496 C1497 1.363 1_556 S
C1496 C1502 1.379 . S
C1496 N1504 1.356 . S
C1497 C1496 1.363 1_554 S
C1497 C1503 1.363 . S
C1498 C1499 1.363 1_554 S
C1498 C1503 1.379 . S
C1498 N1505 1.356 . S
C1499 C1498 1.363 1_556 S
C1499 C1502 1.363 . S
N1500 C1502 1.356 . S
N1500 H1512 0.984 . S
N1500 H1513 0.985 . S
N1501 C1503 1.356 . S
N1501 H1506 0.984 . S
N1501 H1507 0.985 . S
C1502 C1496 1.379 . S
C1502 C1499 1.363 . S
C1502 N1500 1.356 . S
C1503 C1497 1.363 . S
C1503 C1498 1.379 . S
C1503 N1501 1.356 . S
N1504 C1496 1.356 . S
N1504 H1510 0.984 . S
N1504 H1511 0.984 1_556 S
N1505 C1498 1.356 . S
N1505 H1508 0.984 1_554 S
N1505 H1509 0.985 . S
H1506 N1501 0.984 . S
H1507 N1501 0.985 . S
H1508 N1505 0.984 1_556 S
H1509 N1505 0.985 . S
H1510 N1504 0.984 . S
H1511 N1504 0.984 1_554 S
H1512 N1500 0.984 . S
H1513 N1500 0.985 . S
C1514 C1515 1.363 1_455 S
C1514 C1520 1.379 . S
C1514 N1522 1.356 . S
C1515 C1514 1.363 1_655 S
C1515 C1521 1.363 . S
C1516 C1517 1.363 1_655 S
C1516 C1521 1.379 . S
C1516 N1523 1.356 . S
C1517 C1516 1.363 1_455 S
C1517 C1520 1.363 . S
N1518 C1520 1.356 . S
N1518 H1530 0.984 . S
N1518 H1531 0.985 . S
N1519 C1521 1.356 . S
N1519 H1524 0.984 . S
N1519 H1525 0.985 . S
C1520 C1514 1.379 . S
C1520 C1517 1.363 . S
C1520 N1518 1.356 . S
C1521 C1515 1.363 . S
C1521 C1516 1.379 . S
C1521 N1519 1.356 . S
N1522 C1514 1.356 . S
N1522 H1528 0.984 . S
N1522 H1529 0.984 . S
N1523 C1516 1.356 . S
N1523 H1526 0.984 . S
N1523 H1527 0.985 . S
H1524 N1519 0.984 . S
H1525 N1519 0.985 . S
H1526 N1523 0.984 . S
H1527 N1523 0.985 . S
H1528 N1522 0.984 . S
H1529 N1522 0.984 . S
H1530 N1518 0.984 . S
H1531 N1518 0.985 . S
C1532 C1533 1.363 1_554 S
C1532 C1538 1.379 1_455 S
C1532 N1540 1.356 . S
C1533 C1532 1.363 1_556 S
C1533 C1539 1.363 . S
C1534 C1535 1.363 1_556 S
C1534 C1539 1.379 1_655 S
C1534 N1541 1.356 . S
C1535 C1534 1.363 1_554 S
C1535 C1538 1.363 . S
N1536 C1538 1.356 . S
N1536 H1548 0.984 . S
N1536 H1549 0.985 . S
N1537 C1539 1.356 . S
N1537 H1542 0.984 . S
N1537 H1543 0.985 . S
C1538 C1532 1.379 1_655 S
C1538 C1535 1.363 . S
C1538 N1536 1.356 . S
C1539 C1533 1.363 . S
C1539 C1534 1.379 1_455 S
C1539 N1537 1.356 . S
N1540 C1532 1.356 . S
N1540 H1546 0.984 . S
N1540 H1547 0.984 1_554 S
N1541 C1534 1.356 . S
N1541 H1544 0.984 1_556 S
N1541 H1545 0.985 . S
H1542 N1537 0.984 . S
H1543 N1537 0.985 . S
H1544 N1541 0.984 1_554 S
H1545 N1541 0.985 . S
H1546 N1540 0.984 . S
H1547 N1540 0.984 1_556 S
H1548 N1536 0.984 . S
H1549 N1536 0.985 . S
C1550 C1551 1.363 . S
C1550 C1556 1.379 . S
C1550 N1558 1.356 . S
C1551 C1550 1.363 . S
C1551 C1557 1.363 . S
C1552 C1553 1.363 . S
C1552 C1557 1.379 . S
C1552 N1559 1.356 . S
C1553 C1552 1.363 . S
C1553 C1556 1.363 . S
N1554 C1556 1.356 . S
N1554 H1566 0.984 . S
N1554 H1567 0.985 . S
N1555 C1557 1.356 . S
N1555 H1560 0.984 . S
N1555 H1561 0.985 . S
C1556 C1550 1.379 . S
C1556 C1553 1.363 . S
C1556 N1554 1.356 . S
C1557 C1551 1.363 . S
C1557 C1552 1.379 . S
C1557 N1555 1.356 . S
N1558 C1550 1.356 . S
N1558 H1564 0.984 . S
N1558 H1565 0.984 . S
N1559 C1552 1.356 . S
N1559 H1562 0.984 . S
N1559 H1563 0.985 . S
H1560 N1555 0.984 . S
H1561 N1555 0.985 . S
H1562 N1559 0.984 . S
H1563 N1559 0.985 . S
H1564 N1558 0.984 . S
H1565 N1558 0.984 . S
H1566 N1554 0.984 . S
H1567 N1554 0.985 . S
C1568 C1569 1.363 . S
C1568 C1574 1.379 . S
C1568 N1576 1.356 . S
C1569 C1568 1.363 . S
C1569 C1575 1.363 . S
C1570 C1571 1.363 . S
C1570 C1575 1.379 . S
C1570 N1577 1.356 . S
C1571 C1570 1.363 . S
C1571 C1574 1.363 . S
N1572 C1574 1.356 . S
N1572 H1584 0.984 . S
N1572 H1585 0.985 . S
N1573 C1575 1.356 . S
N1573 H1578 0.984 . S
N1573 H1579 0.985 . S
C1574 C1568 1.379 . S
C1574 C1571 1.363 . S
C1574 N1572 1.356 . S
C1575 C1569 1.363 . S
C1575 C1570 1.379 . S
C1575 N1573 1.356 . S
N1576 C1568 1.356 . S
N1576 H1582 0.984 . S
N1576 H1583 0.984 . S
N1577 C1570 1.356 . S
N1577 H1580 0.984 . S
N1577 H1581 0.985 . S
H1578 N1573 0.984 . S
H1579 N1573 0.985 . S
H1580 N1577 0.984 . S
H1581 N1577 0.985 . S
H1582 N1576 0.984 . S
H1583 N1576 0.984 . S
H1584 N1572 0.984 . S
H1585 N1572 0.985 . S
C1586 C1587 1.363 . S
C1586 C1592 1.379 . S
C1586 N1594 1.356 . S
C1587 C1586 1.363 . S
C1587 C1593 1.363 . S
C1588 C1589 1.363 . S
C1588 C1593 1.379 . S
C1588 N1595 1.356 . S
C1589 C1588 1.363 . S
C1589 C1592 1.363 . S
N1590 C1592 1.356 . S
N1590 H1602 0.984 . S
N1590 H1603 0.985 . S
N1591 C1593 1.356 . S
N1591 H1596 0.984 . S
N1591 H1597 0.985 . S
C1592 C1586 1.379 . S
C1592 C1589 1.363 . S
C1592 N1590 1.356 . S
C1593 C1587 1.363 . S
C1593 C1588 1.379 . S
C1593 N1591 1.356 . S
N1594 C1586 1.356 . S
N1594 H1600 0.984 . S
N1594 H1601 0.984 . S
N1595 C1588 1.356 . S
N1595 H1598 0.984 . S
N1595 H1599 0.985 . S
H1596 N1591 0.984 . S
H1597 N1591 0.985 . S
H1598 N1595 0.984 . S
H1599 N1595 0.985 . S
H1600 N1594 0.984 . S
H1601 N1594 0.984 . S
H1602 N1590 0.984 . S
H1603 N1590 0.985 . S
C1604 C1605 1.363 . S
C1604 C1610 1.379 . S
C1604 N1612 1.356 . S
C1605 C1604 1.363 . S
C1605 C1611 1.363 . S
C1606 C1607 1.363 . S
C1606 C1611 1.379 . S
C1606 N1613 1.356 . S
C1607 C1606 1.363 . S
C1607 C1610 1.363 . S
N1608 C1610 1.356 . S
N1608 H1620 0.984 . S
N1608 H1621 0.985 . S
N1609 C1611 1.356 . S
N1609 H1614 0.984 . S
N1609 H1615 0.985 . S
C1610 C1604 1.379 . S
C1610 C1607 1.363 . S
C1610 N1608 1.356 . S
C1611 C1605 1.363 . S
C1611 C1606 1.379 . S
C1611 N1609 1.356 . S
N1612 C1604 1.356 . S
N1612 H1618 0.984 . S
N1612 H1619 0.984 . S
N1613 C1606 1.356 . S
N1613 H1616 0.984 . S
N1613 H1617 0.985 . S
H1614 N1609 0.984 . S
H1615 N1609 0.985 . S
H1616 N1613 0.984 . S
H1617 N1613 0.985 . S
H1618 N1612 0.984 . S
H1619 N1612 0.984 . S
H1620 N1608 0.984 . S
H1621 N1608 0.985 . S
C1622 C1623 1.363 . S
C1622 C1628 1.379 . S
C1622 N1630 1.356 . S
C1623 C1622 1.363 . S
C1623 C1629 1.363 . S
C1624 C1625 1.363 . S
C1624 C1629 1.379 . S
C1624 N1631 1.356 . S
C1625 C1624 1.363 . S
C1625 C1628 1.363 . S
N1626 C1628 1.356 . S
N1626 H1638 0.984 . S
N1626 H1639 0.985 . S
N1627 C1629 1.356 . S
N1627 H1632 0.984 . S
N1627 H1633 0.985 . S
C1628 C1622 1.379 . S
C1628 C1625 1.363 . S
C1628 N1626 1.356 . S
C1629 C1623 1.363 . S
C1629 C1624 1.379 . S
C1629 N1627 1.356 . S
N1630 C1622 1.356 . S
N1630 H1636 0.984 . S
N1630 H1637 0.984 . S
N1631 C1624 1.356 . S
N1631 H1634 0.984 . S
N1631 H1635 0.985 . S
H1632 N1627 0.984 . S
H1633 N1627 0.985 . S
H1634 N1631 0.984 . S
H1635 N1631 0.985 . S
H1636 N1630 0.984 . S
H1637 N1630 0.984 . S
H1638 N1626 0.984 . S
H1639 N1626 0.985 . S
C1640 C1641 1.363 . S
C1640 C1646 1.379 . S
C1640 N1648 1.356 . S
C1641 C1640 1.363 . S
C1641 C1647 1.363 . S
C1642 C1643 1.363 . S
C1642 C1647 1.379 . S
C1642 N1649 1.356 . S
C1643 C1642 1.363 . S
C1643 C1646 1.363 . S
N1644 C1646 1.356 . S
N1644 H1656 0.984 . S
N1644 H1657 0.985 . S
N1645 C1647 1.356 . S
N1645 H1650 0.984 . S
N1645 H1651 0.985 . S
C1646 C1640 1.379 . S
C1646 C1643 1.363 . S
C1646 N1644 1.356 . S
C1647 C1641 1.363 . S
C1647 C1642 1.379 . S
C1647 N1645 1.356 . S
N1648 C1640 1.356 . S
N1648 H1654 0.984 . S
N1648 H1655 0.984 . S
N1649 C1642 1.356 . S
N1649 H1652 0.984 . S
N1649 H1653 0.985 . S
H1650 N1645 0.984 . S
H1651 N1645 0.985 . S
H1652 N1649 0.984 . S
H1653 N1649 0.985 . S
H1654 N1648 0.984 . S
H1655 N1648 0.984 . S
H1656 N1644 0.984 . S
H1657 N1644 0.985 . S
C1658 C1659 1.363 . S
C1658 C1664 1.379 . S
C1658 N1666 1.356 . S
C1659 C1658 1.363 . S
C1659 C1665 1.363 . S
C1660 C1661 1.363 . S
C1660 C1665 1.379 . S
C1660 N1667 1.356 . S
C1661 C1660 1.363 . S
C1661 C1664 1.363 . S
N1662 C1664 1.356 . S
N1662 H1674 0.984 . S
N1662 H1675 0.985 . S
N1663 C1665 1.356 . S
N1663 H1668 0.984 . S
N1663 H1669 0.985 . S
C1664 C1658 1.379 . S
C1664 C1661 1.363 . S
C1664 N1662 1.356 . S
C1665 C1659 1.363 . S
C1665 C1660 1.379 . S
C1665 N1663 1.356 . S
N1666 C1658 1.356 . S
N1666 H1672 0.984 . S
N1666 H1673 0.984 . S
N1667 C1660 1.356 . S
N1667 H1670 0.984 . S
N1667 H1671 0.985 . S
H1668 N1663 0.984 . S
H1669 N1663 0.985 . S
H1670 N1667 0.984 . S
H1671 N1667 0.985 . S
H1672 N1666 0.984 . S
H1673 N1666 0.984 . S
H1674 N1662 0.984 . S
H1675 N1662 0.985 . S
C1676 C1677 1.363 . S
C1676 C1682 1.379 . S
C1676 N1684 1.356 . S
C1677 C1676 1.363 . S
C1677 C1683 1.363 . S
C1678 C1679 1.363 . S
C1678 C1683 1.379 . S
C1678 N1685 1.356 . S
C1679 C1678 1.363 . S
C1679 C1682 1.363 . S
N1680 C1682 1.356 . S
N1680 H1692 0.984 . S
N1680 H1693 0.985 . S
N1681 C1683 1.356 . S
N1681 H1686 0.984 . S
N1681 H1687 0.985 . S
C1682 C1676 1.379 . S
C1682 C1679 1.363 . S
C1682 N1680 1.356 . S
C1683 C1677 1.363 . S
C1683 C1678 1.379 . S
C1683 N1681 1.356 . S
N1684 C1676 1.356 . S
N1684 H1690 0.984 . S
N1684 H1691 0.984 . S
N1685 C1678 1.356 . S
N1685 H1688 0.984 . S
N1685 H1689 0.985 . S
H1686 N1681 0.984 . S
H1687 N1681 0.985 . S
H1688 N1685 0.984 . S
H1689 N1685 0.985 . S
H1690 N1684 0.984 . S
H1691 N1684 0.984 . S
H1692 N1680 0.984 . S
H1693 N1680 0.985 . S
C1694 C1695 1.363 . S
C1694 C1700 1.379 . S
C1694 N1702 1.356 . S
C1695 C1694 1.363 . S
C1695 C1701 1.363 . S
C1696 C1697 1.363 . S
C1696 C1701 1.379 . S
C1696 N1703 1.356 . S
C1697 C1696 1.363 . S
C1697 C1700 1.363 . S
N1698 C1700 1.356 . S
N1698 H1710 0.984 . S
N1698 H1711 0.985 . S
N1699 C1701 1.356 . S
N1699 H1704 0.984 . S
N1699 H1705 0.985 . S
C1700 C1694 1.379 . S
C1700 C1697 1.363 . S
C1700 N1698 1.356 . S
C1701 C1695 1.363 . S
C1701 C1696 1.379 . S
C1701 N1699 1.356 . S
N1702 C1694 1.356 . S
N1702 H1708 0.984 . S
N1702 H1709 0.984 . S
N1703 C1696 1.356 . S
N1703 H1706 0.984 . S
N1703 H1707 0.985 . S
H1704 N1699 0.984 . S
H1705 N1699 0.985 . S
H1706 N1703 0.984 . S
H1707 N1703 0.985 . S
H1708 N1702 0.984 . S
H1709 N1702 0.984 . S
H1710 N1698 0.984 . S
H1711 N1698 0.985 . S
C1712 C1713 1.363 . S
C1712 C1718 1.379 . S
C1712 N1720 1.356 . S
C1713 C1712 1.363 . S
C1713 C1719 1.363 . S
C1714 C1715 1.363 . S
C1714 C1719 1.379 . S
C1714 N1721 1.356 . S
C1715 C1714 1.363 . S
C1715 C1718 1.363 . S
N1716 C1718 1.356 . S
N1716 H1728 0.984 . S
N1716 H1729 0.985 . S
N1717 C1719 1.356 . S
N1717 H1722 0.984 . S
N1717 H1723 0.985 . S
C1718 C1712 1.379 . S
C1718 C1715 1.363 . S
C1718 N1716 1.356 . S
C1719 C1713 1.363 . S
C1719 C1714 1.379 . S
C1719 N1717 1.356 . S
N1720 C1712 1.356 . S
N1720 H1726 0.984 . S
N1720 H1727 0.984 . S
N1721 C1714 1.356 . S
N1721 H1724 0.984 . S
N1721 H1725 0.985 . S
H1722 N1717 0.984 . S
H1723 N1717 0.985 . S
H1724 N1721 0.984 . S
H1725 N1721 0.985 . S
H1726 N1720 0.984 . S
H1727 N1720 0.984 . S
H1728 N1716 0.984 . S
H1729 N1716 0.985 . S
C1730 C1731 1.363 . S
C1730 C1736 1.379 . S
C1730 N1738 1.356 . S
C1731 C1730 1.363 . S
C1731 C1737 1.363 . S
C1732 C1733 1.363 . S
C1732 C1737 1.379 . S
C1732 N1739 1.356 . S
C1733 C1732 1.363 . S
C1733 C1736 1.363 . S
N1734 C1736 1.356 . S
N1734 H1746 0.984 . S
N1734 H1747 0.985 . S
N1735 C1737 1.356 . S
N1735 H1740 0.984 . S
N1735 H1741 0.985 . S
C1736 C1730 1.379 . S
C1736 C1733 1.363 . S
C1736 N1734 1.356 . S
C1737 C1731 1.363 . S
C1737 C1732 1.379 . S
C1737 N1735 1.356 . S
N1738 C1730 1.356 . S
N1738 H1744 0.984 . S
N1738 H1745 0.984 . S
N1739 C1732 1.356 . S
N1739 H1742 0.984 . S
N1739 H1743 0.985 . S
H1740 N1735 0.984 . S
H1741 N1735 0.985 . S
H1742 N1739 0.984 . S
H1743 N1739 0.985 . S
H1744 N1738 0.984 . S
H1745 N1738 0.984 . S
H1746 N1734 0.984 . S
H1747 N1734 0.985 . S
C1748 C1749 1.363 . S
C1748 C1754 1.379 . S
C1748 N1756 1.356 . S
C1749 C1748 1.363 . S
C1749 C1755 1.363 . S
C1750 C1751 1.363 . S
C1750 C1755 1.379 . S
C1750 N1757 1.356 . S
C1751 C1750 1.363 . S
C1751 C1754 1.363 . S
N1752 C1754 1.356 . S
N1752 H1764 0.984 . S
N1752 H1765 0.985 . S
N1753 C1755 1.356 . S
N1753 H1758 0.984 . S
N1753 H1759 0.985 . S
C1754 C1748 1.379 . S
C1754 C1751 1.363 . S
C1754 N1752 1.356 . S
C1755 C1749 1.363 . S
C1755 C1750 1.379 . S
C1755 N1753 1.356 . S
N1756 C1748 1.356 . S
N1756 H1762 0.984 . S
N1756 H1763 0.984 . S
N1757 C1750 1.356 . S
N1757 H1760 0.984 . S
N1757 H1761 0.985 . S
H1758 N1753 0.984 . S
H1759 N1753 0.985 . S
H1760 N1757 0.984 . S
H1761 N1757 0.985 . S
H1762 N1756 0.984 . S
H1763 N1756 0.984 . S
H1764 N1752 0.984 . S
H1765 N1752 0.985 . S
C1766 C1767 1.363 . S
C1766 C1772 1.379 . S
C1766 N1774 1.356 . S
C1767 C1766 1.363 . S
C1767 C1773 1.363 . S
C1768 C1769 1.363 . S
C1768 C1773 1.379 . S
C1768 N1775 1.356 . S
C1769 C1768 1.363 . S
C1769 C1772 1.363 . S
N1770 C1772 1.356 . S
N1770 H1782 0.984 . S
N1770 H1783 0.985 . S
N1771 C1773 1.356 . S
N1771 H1776 0.984 . S
N1771 H1777 0.985 . S
C1772 C1766 1.379 . S
C1772 C1769 1.363 . S
C1772 N1770 1.356 . S
C1773 C1767 1.363 . S
C1773 C1768 1.379 . S
C1773 N1771 1.356 . S
N1774 C1766 1.356 . S
N1774 H1780 0.984 . S
N1774 H1781 0.984 . S
N1775 C1768 1.356 . S
N1775 H1778 0.984 . S
N1775 H1779 0.985 . S
H1776 N1771 0.984 . S
H1777 N1771 0.985 . S
H1778 N1775 0.984 . S
H1779 N1775 0.985 . S
H1780 N1774 0.984 . S
H1781 N1774 0.984 . S
H1782 N1770 0.984 . S
H1783 N1770 0.985 . S
C1784 C1785 1.363 . S
C1784 C1790 1.379 . S
C1784 N1792 1.356 . S
C1785 C1784 1.363 . S
C1785 C1791 1.363 . S
C1786 C1787 1.363 . S
C1786 C1791 1.379 . S
C1786 N1793 1.356 . S
C1787 C1786 1.363 . S
C1787 C1790 1.363 . S
N1788 C1790 1.356 . S
N1788 H1800 0.984 . S
N1788 H1801 0.985 . S
N1789 C1791 1.356 . S
N1789 H1794 0.984 . S
N1789 H1795 0.985 . S
C1790 C1784 1.379 . S
C1790 C1787 1.363 . S
C1790 N1788 1.356 . S
C1791 C1785 1.363 . S
C1791 C1786 1.379 . S
C1791 N1789 1.356 . S
N1792 C1784 1.356 . S
N1792 H1798 0.984 . S
N1792 H1799 0.984 . S
N1793 C1786 1.356 . S
N1793 H1796 0.984 . S
N1793 H1797 0.985 . S
H1794 N1789 0.984 . S
H1795 N1789 0.985 . S
H1796 N1793 0.984 . S
H1797 N1793 0.985 . S
H1798 N1792 0.984 . S
H1799 N1792 0.984 . S
H1800 N1788 0.984 . S
H1801 N1788 0.985 . S
C1802 C1803 1.363 . S
C1802 C1808 1.379 . S
C1802 N1810 1.356 . S
C1803 C1802 1.363 . S
C1803 C1809 1.363 . S
C1804 C1805 1.363 . S
C1804 C1809 1.379 . S
C1804 N1811 1.356 . S
C1805 C1804 1.363 . S
C1805 C1808 1.363 . S
N1806 C1808 1.356 . S
N1806 H1818 0.984 . S
N1806 H1819 0.985 . S
N1807 C1809 1.356 . S
N1807 H1812 0.984 . S
N1807 H1813 0.985 . S
C1808 C1802 1.379 . S
C1808 C1805 1.363 . S
C1808 N1806 1.356 . S
C1809 C1803 1.363 . S
C1809 C1804 1.379 . S
C1809 N1807 1.356 . S
N1810 C1802 1.356 . S
N1810 H1816 0.984 . S
N1810 H1817 0.984 . S
N1811 C1804 1.356 . S
N1811 H1814 0.984 . S
N1811 H1815 0.985 . S
H1812 N1807 0.984 . S
H1813 N1807 0.985 . S
H1814 N1811 0.984 . S
H1815 N1811 0.985 . S
H1816 N1810 0.984 . S
H1817 N1810 0.984 . S
H1818 N1806 0.984 . S
H1819 N1806 0.985 . S
C1820 C1821 1.363 . S
C1820 C1826 1.379 . S
C1820 N1828 1.356 . S
C1821 C1820 1.363 . S
C1821 C1827 1.363 . S
C1822 C1823 1.363 . S
C1822 C1827 1.379 . S
C1822 N1829 1.356 . S
C1823 C1822 1.363 . S
C1823 C1826 1.363 . S
N1824 C1826 1.356 . S
N1824 H1836 0.984 . S
N1824 H1837 0.985 . S
N1825 C1827 1.356 . S
N1825 H1830 0.984 . S
N1825 H1831 0.985 . S
C1826 C1820 1.379 . S
C1826 C1823 1.363 . S
C1826 N1824 1.356 . S
C1827 C1821 1.363 . S
C1827 C1822 1.379 . S
C1827 N1825 1.356 . S
N1828 C1820 1.356 . S
N1828 H1834 0.984 . S
N1828 H1835 0.984 . S
N1829 C1822 1.356 . S
N1829 H1832 0.984 . S
N1829 H1833 0.985 . S
H1830 N1825 0.984 . S
H1831 N1825 0.985 . S
H1832 N1829 0.984 . S
H1833 N1829 0.985 . S
H1834 N1828 0.984 . S
H1835 N1828 0.984 . S
H1836 N1824 0.984 . S
H1837 N1824 0.985 . S
C1838 C1839 1.363 . S
C1838 C1844 1.379 . S
C1838 N1846 1.356 . S
C1839 C1838 1.363 . S
C1839 C1845 1.363 . S
C1840 C1841 1.363 . S
C1840 C1845 1.379 . S
C1840 N1847 1.356 . S
C1841 C1840 1.363 . S
C1841 C1844 1.363 . S
N1842 C1844 1.356 . S
N1842 H1854 0.984 . S
N1842 H1855 0.985 . S
N1843 C1845 1.356 . S
N1843 H1848 0.984 . S
N1843 H1849 0.985 . S
C1844 C1838 1.379 . S
C1844 C1841 1.363 . S
C1844 N1842 1.356 . S
C1845 C1839 1.363 . S
C1845 C1840 1.379 . S
C1845 N1843 1.356 . S
N1846 C1838 1.356 . S
N1846 H1852 0.984 . S
N1846 H1853 0.984 . S
N1847 C1840 1.356 . S
N1847 H1850 0.984 . S
N1847 H1851 0.985 . S
H1848 N1843 0.984 . S
H1849 N1843 0.985 . S
H1850 N1847 0.984 . S
H1851 N1847 0.985 . S
H1852 N1846 0.984 . S
H1853 N1846 0.984 . S
H1854 N1842 0.984 . S
H1855 N1842 0.985 . S
C1856 C1857 1.340 1_554 S
C1856 C1862 1.401 . S
C1856 N1864 1.350 1_554 S
C1857 C1856 1.340 1_556 S
C1857 C1863 1.363 . S
C1858 C1859 1.340 1_556 S
C1858 C1863 1.401 . S
C1858 N1865 1.350 1_556 S
C1859 C1858 1.340 1_554 S
C1859 C1862 1.363 . S
N1860 C1862 1.356 . S
N1860 H1872 0.984 . S
N1860 H1873 0.985 . S
N1861 C1863 1.356 . S
N1861 H1866 0.984 . S
N1861 H1867 0.985 . S
C1862 C1856 1.401 . S
C1862 C1859 1.363 . S
C1862 N1860 1.356 . S
C1863 C1857 1.363 . S
C1863 C1858 1.401 . S
C1863 N1861 1.356 . S
N1864 C1856 1.350 1_556 S
N1864 H1870 0.984 1_556 S
N1864 H1871 0.984 . S
N1865 C1858 1.350 1_554 S
N1865 H1868 0.984 . S
N1865 H1869 0.985 1_554 S
H1866 N1861 0.984 . S
H1867 N1861 0.985 . S
H1868 N1865 0.984 . S
H1869 N1865 0.985 1_556 S
H1870 N1864 0.984 1_554 S
H1871 N1864 0.984 . S
H1872 N1860 0.984 . S
H1873 N1860 0.985 . S
C1874 C1875 1.366 1_455 S
C1874 C1880 1.377 . S
C1874 N1882 1.354 . S
C1875 C1874 1.366 1_655 S
C1875 C1881 1.365 1_545 S
C1876 C1877 1.363 . S
C1876 C1881 1.377 . S
C1876 N1883 1.356 . S
C1877 C1876 1.363 . S
C1877 C1880 1.368 1_665 S
N1878 C1880 1.355 1_565 S
N1878 H1890 0.984 1_565 S
N1878 H1891 0.985 . S
N1879 C1881 1.357 1_545 S
N1879 H1884 0.984 . S
N1879 H1885 0.985 1_545 S
C1880 C1874 1.377 . S
C1880 C1877 1.368 1_445 S
C1880 N1878 1.355 1_545 S
C1881 C1875 1.365 1_565 S
C1881 C1876 1.377 . S
C1881 N1879 1.357 1_565 S
N1882 C1874 1.354 . S
N1882 H1888 0.984 . S
N1882 H1889 0.984 . S
N1883 C1876 1.356 . S
N1883 H1886 0.984 . S
N1883 H1887 0.985 . S
H1884 N1879 0.984 . S
H1885 N1879 0.985 1_565 S
H1886 N1883 0.984 . S
H1887 N1883 0.985 . S
H1888 N1882 0.984 . S
H1889 N1882 0.984 . S
H1890 N1878 0.984 1_545 S
H1891 N1878 0.985 . S
C1892 C1893 1.363 . S
C1892 C1898 1.379 . S
C1892 N1900 1.356 . S
C1893 C1892 1.363 . S
C1893 C1899 1.363 . S
C1894 C1895 1.363 . S
C1894 C1899 1.379 . S
C1894 N1901 1.356 . S
C1895 C1894 1.363 . S
C1895 C1898 1.363 . S
N1896 C1898 1.356 . S
N1896 H1908 0.984 . S
N1896 H1909 0.985 . S
N1897 C1899 1.356 . S
N1897 H1902 0.984 . S
N1897 H1903 0.985 . S
C1898 C1892 1.379 . S
C1898 C1895 1.363 . S
C1898 N1896 1.356 . S
C1899 C1893 1.363 . S
C1899 C1894 1.379 . S
C1899 N1897 1.356 . S
N1900 C1892 1.356 . S
N1900 H1906 0.984 . S
N1900 H1907 0.984 . S
N1901 C1894 1.356 . S
N1901 H1904 0.984 . S
N1901 H1905 0.985 . S
H1902 N1897 0.984 . S
H1903 N1897 0.985 . S
H1904 N1901 0.984 . S
H1905 N1901 0.985 . S
H1906 N1900 0.984 . S
H1907 N1900 0.984 . S
H1908 N1896 0.984 . S
H1909 N1896 0.985 . S
C1910 C1911 1.363 . S
C1910 C1916 1.379 . S
C1910 N1918 1.356 . S
C1911 C1910 1.363 . S
C1911 C1917 1.363 1_565 S
C1912 C1913 1.363 . S
C1912 C1917 1.379 . S
C1912 N1919 1.356 . S
C1913 C1912 1.363 . S
C1913 C1916 1.363 1_545 S
N1914 C1916 1.356 . S
N1914 H1926 0.984 . S
N1914 H1927 0.985 1_565 S
N1915 C1917 1.356 . S
N1915 H1920 0.984 1_545 S
N1915 H1921 0.985 . S
C1916 C1910 1.379 . S
C1916 C1913 1.363 1_565 S
C1916 N1914 1.356 . S
C1917 C1911 1.363 1_545 S
C1917 C1912 1.379 . S
C1917 N1915 1.356 . S
N1918 C1910 1.356 . S
N1918 H1924 0.984 . S
N1918 H1925 0.984 . S
N1919 C1912 1.356 . S
N1919 H1922 0.984 . S
N1919 H1923 0.985 . S
H1920 N1915 0.984 1_565 S
H1921 N1915 0.985 . S
H1922 N1919 0.984 . S
H1923 N1919 0.985 . S
H1924 N1918 0.984 . S
H1925 N1918 0.984 . S
H1926 N1914 0.984 . S
H1927 N1914 0.985 1_545 S
C1928 C1929 1.363 . S
C1928 C1934 1.400 . S
C1928 N1936 1.356 . S
C1929 C1928 1.363 . S
C1929 C1935 1.340 1_556 S
C1930 C1931 1.363 . S
C1930 C1935 1.401 . S
C1930 N1937 1.356 . S
C1931 C1930 1.363 . S
C1931 C1934 1.340 1_554 S
N1932 C1934 1.350 1_554 S
N1932 H1944 0.984 1_554 S
N1932 H1945 0.985 . S
N1933 C1935 1.350 1_556 S
N1933 H1938 0.984 . S
N1933 H1939 0.985 1_556 S
C1934 C1928 1.400 . S
C1934 C1931 1.340 1_556 S
C1934 N1932 1.350 1_556 S
C1935 C1929 1.340 1_554 S
C1935 C1930 1.401 . S
C1935 N1933 1.350 1_554 S
N1936 C1928 1.356 . S
N1936 H1942 0.984 . S
N1936 H1943 0.984 . S
N1937 C1930 1.356 . S
N1937 H1940 0.984 . S
N1937 H1941 0.985 . S
H1938 N1933 0.984 . S
H1939 N1933 0.985 1_554 S
H1940 N1937 0.984 . S
H1941 N1937 0.985 . S
H1942 N1936 0.984 . S
H1943 N1936 0.984 . S
H1944 N1932 0.984 1_556 S
H1945 N1932 0.985 . S
C1946 C1947 1.363 1_545 S
C1946 C1952 1.379 . S
C1946 N1954 1.347 1_545 S
C1947 C1946 1.363 1_565 S
C1947 C1953 1.363 . S
C1948 C1949 1.363 1_565 S
C1948 C1953 1.379 . S
C1948 N1955 1.347 1_465 S
C1949 C1948 1.363 1_545 S
C1949 C1952 1.363 . S
N1950 C1952 1.356 . S
N1950 H1962 0.984 . S
N1950 H1963 0.985 . S
N1951 C1953 1.356 1_655 S
N1951 H1956 0.993 . S
N1951 H1957 0.985 . S
C1952 C1946 1.379 . S
C1952 C1949 1.363 . S
C1952 N1950 1.356 . S
C1953 C1947 1.363 . S
C1953 C1948 1.379 . S
C1953 N1951 1.356 1_455 S
N1954 C1946 1.347 1_565 S
N1954 H1960 0.940 1_565 S
N1954 H1961 1.041 . S
N1955 C1948 1.347 1_645 S
N1955 H1958 1.048 . S
N1955 H1959 0.940 1_545 S
H1956 N1951 0.993 . S
H1957 N1951 0.985 . S
H1958 N1955 1.048 . S
H1959 N1955 0.940 1_565 S
H1960 N1954 0.940 1_545 S
H1961 N1954 1.041 . S
H1962 N1950 0.984 . S
H1963 N1950 0.985 . S
C1964 C1965 1.363 . S
C1964 C1970 1.379 . S
C1964 N1972 1.356 . S
C1965 C1964 1.363 . S
C1965 C1971 1.363 . S
C1966 C1967 1.363 . S
C1966 C1971 1.379 . S
C1966 N1973 1.356 . S
C1967 C1966 1.363 . S
C1967 C1970 1.363 . S
N1968 C1970 1.356 . S
N1968 H1980 0.984 . S
N1968 H1981 0.985 . S
N1969 C1971 1.356 . S
N1969 H1974 0.984 . S
N1969 H1975 0.985 . S
C1970 C1964 1.379 . S
C1970 C1967 1.363 . S
C1970 N1968 1.356 . S
C1971 C1965 1.363 . S
C1971 C1966 1.379 . S
C1971 N1969 1.356 . S
N1972 C1964 1.356 . S
N1972 H1978 0.984 . S
N1972 H1979 0.984 . S
N1973 C1966 1.356 . S
N1973 H1976 0.984 . S
N1973 H1977 0.985 . S
H1974 N1969 0.984 . S
H1975 N1969 0.985 . S
H1976 N1973 0.984 . S
H1977 N1973 0.985 . S
H1978 N1972 0.984 . S
H1979 N1972 0.984 . S
H1980 N1968 0.984 . S
H1981 N1968 0.985 . S
C1982 C1983 1.320 1_565 S
C1982 C1988 1.419 . S
C1982 N1990 1.346 1_565 S
C1983 C1982 1.320 1_545 S
C1983 C1989 1.363 . S
C1984 C1985 1.320 1_545 S
C1984 C1989 1.419 . S
C1984 N1991 1.346 1_545 S
C1985 C1984 1.320 1_565 S
C1985 C1988 1.363 . S
N1986 C1988 1.356 . S
N1986 H1998 0.984 . S
N1986 H1999 0.985 . S
N1987 C1989 1.356 . S
N1987 H1992 0.984 . S
N1987 H1993 0.985 . S
C1988 C1982 1.419 . S
C1988 C1985 1.363 . S
C1988 N1986 1.356 . S
C1989 C1983 1.363 . S
C1989 C1984 1.419 . S
C1989 N1987 1.356 . S
N1990 C1982 1.346 1_545 S
N1990 H1996 0.984 1_545 S
N1990 H1997 0.984 . S
N1991 C1984 1.346 1_565 S
N1991 H1994 0.984 . S
N1991 H1995 0.985 1_565 S
H1992 N1987 0.984 . S
H1993 N1987 0.985 . S
H1994 N1991 0.984 . S
H1995 N1991 0.985 1_545 S
H1996 N1990 0.984 1_565 S
H1997 N1990 0.984 . S
H1998 N1986 0.984 . S
H1999 N1986 0.985 . S
C2000 C2001 1.363 . S
C2000 C2006 1.379 . S
C2000 N2008 1.356 . S
C2001 C2000 1.363 . S
C2001 C2007 1.363 . S
C2002 C2003 1.363 . S
C2002 C2007 1.379 . S
C2002 N2009 1.356 . S
C2003 C2002 1.363 . S
C2003 C2006 1.363 . S
N2004 C2006 1.356 . S
N2004 H2016 0.984 . S
N2004 H2017 0.985 . S
N2005 C2007 1.356 . S
N2005 H2010 0.984 . S
N2005 H2011 0.985 . S
C2006 C2000 1.379 . S
C2006 C2003 1.363 . S
C2006 N2004 1.356 . S
C2007 C2001 1.363 . S
C2007 C2002 1.379 . S
C2007 N2005 1.356 . S
N2008 C2000 1.356 . S
N2008 H2014 0.984 . S
N2008 H2015 0.984 . S
N2009 C2002 1.356 . S
N2009 H2012 0.984 . S
N2009 H2013 0.985 . S
H2010 N2005 0.984 . S
H2011 N2005 0.985 . S
H2012 N2009 0.984 . S
H2013 N2009 0.985 . S
H2014 N2008 0.984 . S
H2015 N2008 0.984 . S
H2016 N2004 0.984 . S
H2017 N2004 0.985 . S
C2018 C2019 1.363 . S
C2018 C2024 1.379 . S
C2018 N2026 1.356 . S
C2019 C2018 1.363 . S
C2019 C2025 1.363 . S
C2020 C2021 1.363 . S
C2020 C2025 1.379 . S
C2020 N2027 1.356 . S
C2021 C2020 1.363 . S
C2021 C2024 1.363 . S
N2022 C2024 1.356 . S
N2022 H2034 0.984 . S
N2022 H2035 0.985 . S
N2023 C2025 1.356 . S
N2023 H2028 0.984 . S
N2023 H2029 0.985 . S
C2024 C2018 1.379 . S
C2024 C2021 1.363 . S
C2024 N2022 1.356 . S
C2025 C2019 1.363 . S
C2025 C2020 1.379 . S
C2025 N2023 1.356 . S
N2026 C2018 1.356 . S
N2026 H2032 0.984 . S
N2026 H2033 0.984 . S
N2027 C2020 1.356 . S
N2027 H2030 0.984 . S
N2027 H2031 0.985 . S
H2028 N2023 0.984 . S
H2029 N2023 0.985 . S
H2030 N2027 0.984 . S
H2031 N2027 0.985 . S
H2032 N2026 0.984 . S
H2033 N2026 0.984 . S
H2034 N2022 0.984 . S
H2035 N2022 0.985 . S
C2036 C2037 1.363 . S
C2036 C2042 1.400 . S
C2036 N2044 1.356 . S
C2037 C2036 1.363 . S
C2037 C2043 1.341 1_554 S
C2038 C2039 1.363 . S
C2038 C2043 1.400 . S
C2038 N2045 1.356 . S
C2039 C2038 1.363 . S
C2039 C2042 1.341 1_556 S
N2040 C2042 1.350 1_556 S
N2040 H2052 0.984 1_556 S
N2040 H2053 0.985 . S
N2041 C2043 1.350 1_554 S
N2041 H2046 0.984 . S
N2041 H2047 0.985 1_554 S
C2042 C2036 1.400 . S
C2042 C2039 1.341 1_554 S
C2042 N2040 1.350 1_554 S
C2043 C2037 1.341 1_556 S
C2043 C2038 1.400 . S
C2043 N2041 1.350 1_556 S
N2044 C2036 1.356 . S
N2044 H2050 0.984 . S
N2044 H2051 0.984 . S
N2045 C2038 1.356 . S
N2045 H2048 0.984 . S
N2045 H2049 0.985 . S
H2046 N2041 0.984 . S
H2047 N2041 0.985 1_556 S
H2048 N2045 0.984 . S
H2049 N2045 0.985 . S
H2050 N2044 0.984 . S
H2051 N2044 0.984 . S
H2052 N2040 0.984 1_554 S
H2053 N2040 0.985 . S
C2054 C2055 1.363 . S
C2054 C2060 1.379 . S
C2054 N2062 1.375 . S
C2055 C2054 1.363 . S
C2055 C2061 1.363 . S
C2056 C2057 1.363 . S
C2056 C2061 1.379 . S
C2056 N2063 1.356 . S
C2057 C2056 1.363 . S
C2057 C2060 1.363 . S
N2058 C2060 1.375 . S
N2058 H2070 0.961 1_455 S
N2058 H2071 0.995 . S
N2059 C2061 1.356 . S
N2059 H2064 0.984 . S
N2059 H2065 0.985 . S
C2060 C2054 1.379 . S
C2060 C2057 1.363 . S
C2060 N2058 1.375 . S
C2061 C2055 1.363 . S
C2061 C2056 1.379 . S
C2061 N2059 1.356 . S
N2062 C2054 1.375 . S
N2062 H2068 0.961 1_455 S
N2062 H2069 0.995 . S
N2063 C2056 1.356 . S
N2063 H2066 0.984 . S
N2063 H2067 0.985 . S
H2064 N2059 0.984 . S
H2065 N2059 0.985 . S
H2066 N2063 0.984 . S
H2067 N2063 0.985 . S
H2068 N2062 0.961 1_655 S
H2069 N2062 0.995 . S
H2070 N2058 0.961 1_655 S
H2071 N2058 0.995 . S
C2072 C2073 1.363 . S
C2072 C2078 1.379 . S
C2072 N2080 1.356 . S
C2073 C2072 1.363 . S
C2073 C2079 1.363 . S
C2074 C2075 1.363 . S
C2074 C2079 1.379 . S
C2074 N2081 1.356 . S
C2075 C2074 1.363 . S
C2075 C2078 1.363 . S
N2076 C2078 1.356 . S
N2076 H2088 0.984 . S
N2076 H2089 0.985 . S
N2077 C2079 1.356 . S
N2077 H2082 0.984 . S
N2077 H2083 0.985 . S
C2078 C2072 1.379 . S
C2078 C2075 1.363 . S
C2078 N2076 1.356 . S
C2079 C2073 1.363 . S
C2079 C2074 1.379 . S
C2079 N2077 1.356 . S
N2080 C2072 1.356 . S
N2080 H2086 0.984 . S
N2080 H2087 0.984 . S
N2081 C2074 1.356 . S
N2081 H2084 0.984 . S
N2081 H2085 0.985 . S
H2082 N2077 0.984 . S
H2083 N2077 0.985 . S
H2084 N2081 0.984 . S
H2085 N2081 0.985 . S
H2086 N2080 0.984 . S
H2087 N2080 0.984 . S
H2088 N2076 0.984 . S
H2089 N2076 0.985 . S
C2090 C2091 1.363 . S
C2090 C2096 1.379 . S
C2090 N2098 1.356 . S
C2091 C2090 1.363 . S
C2091 C2097 1.363 . S
C2092 C2093 1.363 . S
C2092 C2097 1.379 . S
C2092 N2099 1.356 . S
C2093 C2092 1.363 . S
C2093 C2096 1.363 . S
N2094 C2096 1.356 . S
N2094 H2106 0.984 . S
N2094 H2107 0.985 . S
N2095 C2097 1.356 . S
N2095 H2100 0.984 . S
N2095 H2101 0.985 . S
C2096 C2090 1.379 . S
C2096 C2093 1.363 . S
C2096 N2094 1.356 . S
C2097 C2091 1.363 . S
C2097 C2092 1.379 . S
C2097 N2095 1.356 . S
N2098 C2090 1.356 . S
N2098 H2104 0.984 . S
N2098 H2105 0.984 . S
N2099 C2092 1.356 . S
N2099 H2102 0.984 . S
N2099 H2103 0.985 . S
H2100 N2095 0.984 . S
H2101 N2095 0.985 . S
H2102 N2099 0.984 . S
H2103 N2099 0.985 . S
H2104 N2098 0.984 . S
H2105 N2098 0.984 . S
H2106 N2094 0.984 . S
H2107 N2094 0.985 . S
C2108 C2109 1.363 . S
C2108 C2114 1.401 . S
C2108 N2116 1.356 . S
C2109 C2108 1.363 . S
C2109 C2115 1.340 1_556 S
C2110 C2111 1.363 . S
C2110 C2115 1.401 . S
C2110 N2117 1.356 . S
C2111 C2110 1.363 . S
C2111 C2114 1.340 1_554 S
N2112 C2114 1.350 1_554 S
N2112 H2124 0.984 1_554 S
N2112 H2125 0.985 . S
N2113 C2115 1.350 1_556 S
N2113 H2118 0.984 . S
N2113 H2119 0.985 1_556 S
C2114 C2108 1.401 . S
C2114 C2111 1.340 1_556 S
C2114 N2112 1.350 1_556 S
C2115 C2109 1.340 1_554 S
C2115 C2110 1.401 . S
C2115 N2113 1.350 1_554 S
N2116 C2108 1.356 . S
N2116 H2122 0.984 . S
N2116 H2123 0.984 . S
N2117 C2110 1.356 . S
N2117 H2120 0.984 . S
N2117 H2121 0.985 . S
H2118 N2113 0.984 . S
H2119 N2113 0.985 1_554 S
H2120 N2117 0.984 . S
H2121 N2117 0.985 . S
H2122 N2116 0.984 . S
H2123 N2116 0.984 . S
H2124 N2112 0.984 1_556 S
H2125 N2112 0.985 . S
C2126 C2127 1.363 . S
C2126 C2132 1.379 . S
C2126 N2134 1.356 . S
C2127 C2126 1.363 . S
C2127 C2133 1.363 . S
C2128 C2129 1.363 . S
C2128 C2133 1.379 . S
C2128 N2135 1.356 . S
C2129 C2128 1.363 . S
C2129 C2132 1.363 . S
N2130 C2132 1.356 . S
N2130 H2142 0.984 . S
N2130 H2143 0.985 . S
N2131 C2133 1.356 . S
N2131 H2136 0.984 . S
N2131 H2137 0.985 . S
C2132 C2126 1.379 . S
C2132 C2129 1.363 . S
C2132 N2130 1.356 . S
C2133 C2127 1.363 . S
C2133 C2128 1.379 . S
C2133 N2131 1.356 . S
N2134 C2126 1.356 . S
N2134 H2140 0.984 . S
N2134 H2141 0.984 . S
N2135 C2128 1.356 . S
N2135 H2138 0.984 . S
N2135 H2139 0.985 . S
H2136 N2131 0.984 . S
H2137 N2131 0.985 . S
H2138 N2135 0.984 . S
H2139 N2135 0.985 . S
H2140 N2134 0.984 . S
H2141 N2134 0.984 . S
H2142 N2130 0.984 . S
H2143 N2130 0.985 . S
C1281 C975 2.101 . S
C1283 C15 2.086 . S
C1299 C55 2.086 . S
C1301 C375 2.102 . S
C1317 C1055 2.101 . S
C1319 C95 2.086 . S
C1335 C135 2.086 . S
C1337 C455 2.102 . S
C1353 C175 2.086 . S
C1355 C1135 2.101 . S
C1371 C215 2.086 . S
C1373 C535 2.102 . S
C1389 C255 2.086 . S
C1391 C1215 2.101 . S
C1407 C615 2.102 . S
C1409 C295 2.086 . S
C1425 C655 2.086 . S
C1427 C335 2.101 . S
C1443 C415 2.101 . S
C1445 C735 2.086 . S
C1461 C815 2.086 . S
C1463 C495 2.101 . S
C1479 C895 2.086 . S
C1481 C575 2.101 . S
C1497 C1015 2.102 . S
C1499 C695 2.086 . S
C1515 C775 2.086 . S
C1517 C1095 2.102 . S
C1533 C1175 2.102 . S
C1535 C855 2.086 . S
C1551 C1255 2.102 . S
C1553 C935 2.086 . S
C1569 C842 1.711 . S
C1571 C2 1.711 . S
C1587 C882 1.711 . S
C1589 C42 1.711 . S
C1605 C82 1.711 . S
C1607 C922 1.711 . S
C1623 C122 1.711 . S
C1625 C802 1.711 . S
C1641 C762 1.711 . S
C1643 C162 1.711 . S
C1659 C202 1.711 . S
C1661 C642 1.711 . S
C1677 C242 1.711 . S
C1679 C682 1.711 . S
C1695 C282 1.711 . S
C1697 C722 1.711 . S
C1713 C322 1.749 . S
C1715 C1162 1.749 . S
C1731 C362 1.749 . S
C1733 C1202 1.749 . S
C1749 C1242 1.749 . S
C1751 C402 1.749 . S
C1767 C442 1.749 . S
C1769 C1122 1.749 . S
C1785 C1082 1.749 . S
C1787 C482 1.749 . S
C1803 C522 1.749 . S
C1805 C962 1.749 . S
C1821 C1002 1.749 . S
C1823 C562 1.749 . S
C1839 C1042 1.749 . S
C1841 C602 1.749 . S
C1857 C261 1.688 . S
C1859 C21 1.688 . S
C1875 C301 1.688 . S
C1877 C61 1.688 . S
C1893 C181 1.688 . S
C1895 C101 1.688 . S
C1911 C221 1.688 . S
C1913 C141 1.688 . S
C1929 C341 1.762 . S
C1931 C581 1.762 . S
C1947 C621 1.762 . S
C1949 C381 1.762 . S
C1965 C421 1.762 . S
C1967 C501 1.762 . S
C1983 C541 1.762 . S
C1985 C461 1.762 . S
C2001 C661 1.688 . S
C2003 C901 1.688 . S
C2019 C701 1.688 . S
C2021 C941 1.688 . S
C2037 C741 1.688 . S
C2039 C821 1.688 . S
C2055 C781 1.688 . S
C2057 C861 1.688 . S
C2073 C1221 1.762 . S
C2075 C981 1.762 . S
C2091 C1261 1.762 . S
C2093 C1021 1.762 . S
C2109 C1061 1.762 . S
C2111 C1141 1.762 . S
C2127 C1181 1.762 . S
C2129 C1101 1.762 . S
