# Generated by pormake.
# Topology kag, (6)-cn, num edge types: 1
# Building blocks:
#     Node 0, Type 0, BuildingBlock: MIFKUJ_clean_sbu_0, # of connection points: 6
#     Node 1, Type 0, BuildingBlock: MIFKUJ_clean_sbu_0, # of connection points: 6
#     Node 2, Type 0, BuildingBlock: MIFKUJ_clean_sbu_0, # of connection points: 6
#     Edge 3, Type (0, 0), BuildingBlock: MIFKUJ_clean_linker_0, # of connection points: 2
#     Edge 4, Type (0, 0), BuildingBlock: MIFKUJ_clean_linker_0, # of connection points: 2
#     Edge 5, Type (0, 0), BuildingBlock: MIFKUJ_clean_linker_0, # of connection points: 2
#     Edge 6, Type (0, 0), BuildingBlock: MIFKUJ_clean_linker_0, # of connection points: 2
#     Edge 7, Type (0, 0), BuildingBlock: MIFKUJ_clean_linker_0, # of connection points: 2
#     Edge 8, Type (0, 0), BuildingBlock: MIFKUJ_clean_linker_0, # of connection points: 2
#     Edge 9, Type (0, 0), BuildingBlock: MIFKUJ_clean_linker_0, # of connection points: 2
#     Edge 10, Type (0, 0), BuildingBlock: MIFKUJ_clean_linker_0, # of connection points: 2
#     Edge 11, Type (0, 0), BuildingBlock: MIFKUJ_clean_linker_0, # of connection points: 2
# Relax obj value: 0.013
# Max RMSD: 0.070
# Mean RMSD: 0.048
data_MOF--net-kag--node1-MIFKUJ_clean_sbu_0--edge1-MIFKUJ_clean_linker_0
_symmetry_space_group_name_H-M    P1
_symmetry_Int_Tables_number       1
_symmetry_cell_setting            triclinic
loop_
_symmetry_equiv_pos_as_xyz
'x, y, z'
_cell_length_a     44.403627
_cell_length_b     43.373699
_cell_length_c     18.668249
_cell_angle_alpha  92.020765
_cell_angle_beta   97.473543
_cell_angle_gamma 117.66228
loop_
_atom_site_label
_atom_site_type_symbol
_atom_site_fract_x
_atom_site_fract_y
_atom_site_fract_z
_atom_type_partial_charge
Zn0 Zn 0.05131 0.54671 0.03632 0.0
Zn1 Zn 0.96513 0.47337 0.02774 0.0
C2 C 0.07954 0.49731 0.03841 0.0
O3 O 0.05956 0.48344 0.08699 0.0
C4 C 0.91572 0.49152 0.95962 0.0
O5 O 0.91271 0.46715 0.91105 0.0
O6 O 0.08354 0.5983 0.04025 0.0
O7 O 0.01044 0.53476 0.96065 0.0
O8 O 0.99015 0.47813 0.94352 0.0
C9 C 0.10126 0.60861 0.98943 0.0
O10 O 0.0966 0.5856 0.93577 0.0
O11 O 0.07871 0.52272 0.00784 0.0
C12 C 0.92747 0.39787 0.04846 0.0
O13 O 0.95465 0.40275 0.09469 0.0
O14 O 0.92763 0.4234 0.01693 0.0
O15 O 0.99236 0.48576 0.12932 0.0
O16 O 0.04102 0.53612 0.13651 0.0
O17 O 0.93876 0.50092 0.01587 0.0
C18 C 1.00339 0.50772 0.91939 0.0
C19 C 0.01935 0.51108 0.16604 0.0
Zn20 Zn 0.4664 0.98074 0.97265 0.0
Zn21 Zn 0.53996 0.0363 0.97064 0.0
C22 C 0.47119 0.91955 0.93924 0.0
O23 O 0.44527 0.91605 0.89064 0.0
C24 C 0.53495 0.09749 0.00789 0.0
O25 O 0.559 0.09982 0.06025 0.0
O26 O 0.41657 0.94987 0.98011 0.0
O27 O 0.48514 0.01782 0.05642 0.0
O28 O 0.53447 0.01715 0.06721 0.0
C29 C 0.41149 0.92954 0.02982 0.0
O30 O 0.4381 0.93197 0.07457 0.0
O31 O 0.48748 0.94769 0.9824 0.0
C32 C 0.59958 0.08883 0.92507 0.0
O33 O 0.57555 0.08921 0.87652 0.0
O34 O 0.59076 0.06654 0.97102 0.0
O35 O 0.52125 1.00147 0.88195 0.0
O36 O 0.46927 0.99653 0.87375 0.0
O37 O 0.52041 0.0705 0.96146 0.0
C38 C 0.51116 0.01925 0.09637 0.0
C39 C 0.49278 0.99521 0.84384 0.0
Zn40 Zn 0.53988 0.49193 0.98838 0.0
Zn41 Zn 0.46877 0.52801 0.99314 0.0
C42 C 0.53654 0.42734 0.00647 0.0
O43 O 0.55856 0.44838 0.06269 0.0
C44 C 0.47117 0.59064 0.94824 0.0
O45 O 0.44397 0.56664 0.90441 0.0
O46 O 0.59164 0.51303 0.99273 0.0
O47 O 0.52308 0.51517 0.91402 0.0
O48 O 0.46915 0.50448 0.89883 0.0
C49 C 0.6013 0.50419 0.93786 0.0
O50 O 0.57778 0.48435 0.88242 0.0
O51 O 0.52181 0.43962 0.96167 0.0
C52 C 0.40134 0.497 0.04703 0.0
O53 O 0.41656 0.48954 0.10382 0.0
O54 O 0.41837 0.51176 -0.00263 0.0
O55 O 0.49027 0.51677 0.08394 0.0
O56 O 0.52952 0.49811 0.08809 0.0
O57 O 0.48894 0.58081 0.99131 0.0
C58 C 0.49326 0.50116 0.87584 0.0
C59 C 0.51042 0.50707 0.11904 0.0
H60 H 0.99903 0.45645 0.82292 0.0
H61 H 0.01066 0.4616 0.69834 0.0
H62 H 0.03894 0.57139 0.72454 0.0
H63 H 0.02712 0.56647 0.84901 0.0
H64 H 0.99372 0.53794 0.60102 0.0
H65 H 0.0999 0.54969 0.71686 0.0
H66 H 0.13761 0.53484 0.80088 0.0
H67 H 0.09943 0.43601 0.67288 0.0
H68 H 0.0609 0.44994 0.58884 0.0
H69 H 0.05824 0.56821 0.26516 0.0
H70 H 0.06406 0.57033 0.39764 0.0
H71 H 1.0008 0.4583 0.37956 0.0
H72 H 0.99404 0.4559 0.24671 0.0
H73 H 0.07007 0.49872 0.50067 0.0
H74 H 0.95618 0.48731 0.39989 0.0
H75 H 0.91989 0.50559 0.32008 0.0
H76 H 0.97884 0.61082 0.42463 0.0
H77 H 0.01576 0.59317 0.5044 0.0
C78 C 0.00793 0.48174 0.80234 0.0
C79 C 0.01208 0.51103 0.8456 0.0
C80 C 0.01473 0.48467 0.73136 0.0
C81 C 0.02583 0.51692 0.70265 0.0
C82 C 0.0304 0.5463 0.74593 0.0
C83 C 0.02371 0.54343 0.81698 0.0
C84 C 0.0309 0.51938 0.6261 0.0
C85 C 0.01084 0.5299 0.57944 0.0
C86 C 0.05323 0.50885 0.59812 0.0
C87 C 0.07724 0.50073 0.64685 0.0
C88 C 0.09937 0.52468 0.70681 0.0
C89 C 0.1209 0.51644 0.7545 0.0
C90 C 0.1208 0.48444 0.74248 0.0
C91 C 0.0994 0.46075 0.68233 0.0
C92 C 0.07772 0.46882 0.63455 0.0
C93 C 0.04595 0.54395 0.28936 0.0
C94 C 0.02539 0.51191 0.24573 0.0
C95 C 0.04944 0.54524 0.36487 0.0
C96 C 0.03298 0.51446 0.39771 0.0
C97 C 0.01387 0.48222 0.35469 0.0
C98 C 0.00979 0.48097 0.27905 0.0
C99 C 0.03231 0.51648 0.4762 0.0
C100 C 0.05324 0.50697 0.5229 0.0
C101 C 0.01127 0.52852 0.50473 0.0
C102 C 0.98892 0.53904 0.45739 0.0
C103 C 0.96157 0.5144 0.40534 0.0
C104 C 0.94086 0.52462 0.36024 0.0
C105 C 0.94713 0.55937 0.36711 0.0
C106 C 0.97406 0.58393 0.41927 0.0
C107 C 0.99486 0.57383 0.46445 0.0
H108 H 0.93106 0.56724 0.33217 0.0
H109 H 0.13734 0.47811 0.77985 0.0
H110 H 0.53832 0.98721 0.18612 0.0
H111 H 0.53139 0.97846 0.31327 0.0
H112 H 0.4765 0.03858 0.3085 0.0
H113 H 0.48253 0.04667 0.18094 0.0
H114 H 0.53126 0.05535 0.43451 0.0
H115 H 0.42843 0.96194 0.29751 0.0
H116 H 0.39341 0.91166 0.20451 0.0
H117 H 0.44069 0.85407 0.30639 0.0
H118 H 0.47639 0.90429 0.39971 0.0
H119 H 0.44988 0.00636 0.74309 0.0
H120 H 0.44892 0.00372 0.61155 0.0
H121 H 0.52357 0.96591 0.63492 0.0
H122 H 0.52539 0.96925 0.76677 0.0
H123 H 0.45697 0.93617 0.49923 0.0
H124 H 0.56564 0.03649 0.62776 0.0
H125 H 0.59529 0.08609 0.72442 0.0
H126 H 0.53096 0.12987 0.63761 0.0
H127 H 0.50067 0.08023 0.54096 0.0
C128 C 0.52523 0.99894 0.21266 0.0
C129 C 0.51094 0.0176 0.17438 0.0
C130 C 0.52109 0.99372 0.28472 0.0
C131 C 0.50323 0.00769 0.31924 0.0
C132 C 0.49023 0.02759 0.2821 0.0
C133 C 0.4937 0.03216 0.20967 0.0
C134 C 0.49769 1.00112 0.39408 0.0
C135 C 0.51492 0.02935 0.44859 0.0
C136 C 0.47632 0.96713 0.41178 0.0
C137 C 0.45548 0.9371 0.355 0.0
C138 C 0.43177 0.93878 0.2995 0.0
C139 C 0.41173 0.91025 0.24683 0.0
C140 C 0.415 0.87979 0.24926 0.0
C141 C 0.43831 0.87776 0.30443 0.0
C142 C 0.45843 0.90624 0.35728 0.0
C143 C 0.4655 0.99676 0.71999 0.0
C144 C 0.48812 0.98853 0.76472 0.0
C145 C 0.46478 0.99512 0.64514 0.0
C146 C 0.48615 0.98461 0.61449 0.0
C147 C 0.50681 0.97385 0.65826 0.0
C148 C 0.50805 0.97611 0.73326 0.0
C149 C 0.49098 0.99026 0.53913 0.0
C150 C 0.47354 0.962 0.48479 0.0
C151 C 0.5119 0.02422 0.5212 0.0
C152 C 0.53077 0.0546 0.57765 0.0
C153 C 0.55774 0.05663 0.62958 0.0
C154 C 0.57466 0.08473 0.6843 0.0
C155 C 0.56496 0.11107 0.68726 0.0
C156 C 0.53843 0.10944 0.63528 0.0
C157 C 0.52141 0.08136 0.58049 0.0
H158 H 0.57803 0.13277 0.72974 0.0
H159 H 0.3992 0.85761 0.20886 0.0
H160 H 0.51721 0.46275 0.80781 0.0
H161 H 0.51816 0.45566 0.67731 0.0
H162 H 0.46391 0.51575 0.63746 0.0
H163 H 0.46225 0.52202 0.76722 0.0
H164 H 0.4411 0.46383 0.53414 0.0
H165 H 0.55447 0.55223 0.65707 0.0
H166 H 0.60705 0.5721 0.74831 0.0
H167 H 0.62829 0.49478 0.65044 0.0
H168 H 0.57548 0.47405 0.55921 0.0
H169 H 0.48275 0.53424 0.20885 0.0
H170 H 0.47934 0.52702 0.3369 0.0
H171 H 0.53351 0.4663 0.33558 0.0
H172 H 0.53781 0.4741 0.20747 0.0
H173 H 0.55587 0.51007 0.45763 0.0
H174 H 0.44604 0.42578 0.32691 0.0
H175 H 0.39291 0.40482 0.23696 0.0
H176 H 0.36486 0.47327 0.34925 0.0
H177 H 0.41805 0.49498 0.43943 0.0
C178 C 0.5055 0.4743 0.77087 0.0
C179 C 0.49025 0.49341 0.79723 0.0
C180 C 0.50595 0.47021 0.69654 0.0
C181 C 0.49181 0.48588 0.64788 0.0
C182 C 0.47509 0.50353 0.67402 0.0
C183 C 0.47415 0.50712 0.74809 0.0
C184 C 0.49578 0.48566 0.57033 0.0
C185 C 0.4662 0.47412 0.51742 0.0
C186 C 0.52849 0.4981 0.54847 0.0
C187 C 0.56084 0.51135 0.60179 0.0
C188 C 0.57029 0.53938 0.65516 0.0
C189 C 0.6001 0.55077 0.7069 0.0
C190 C 0.62091 0.53461 0.70534 0.0
C191 C 0.61208 0.50719 0.65168 0.0
C192 C 0.58222 0.49562 0.59993 0.0
C193 C 0.49407 0.51946 0.23572 0.0
C194 C 0.5103 0.50451 0.19777 0.0
C195 C 0.49198 0.51523 0.30889 0.0
C196 C 0.50553 0.49548 0.3453 0.0
C197 C 0.52272 0.48145 0.30834 0.0
C198 C 0.52512 0.48595 0.23516 0.0
C199 C 0.50126 0.48925 0.4217 0.0
C200 C 0.53073 0.49941 0.47427 0.0
C201 C 0.46845 0.47549 0.44334 0.0
C202 C 0.43616 0.46214 0.38975 0.0
C203 C 0.42863 0.43649 0.33224 0.0
C204 C 0.3985 0.42446 0.28123 0.0
C205 C 0.37554 0.43771 0.28739 0.0
C206 C 0.38266 0.463 0.34461 0.0
C207 C 0.41277 0.47514 0.39576 0.0
H208 H 0.35219 0.4283 0.24795 0.0
H209 H 0.64388 0.54335 0.74565 0.0
H210 H 0.12119 0.51536 0.93396 0.0
H211 H 0.17112 0.50575 0.92897 0.0
H212 H 0.14971 0.44826 0.11607 0.0
H213 H 0.09967 0.45734 0.12097 0.0
H214 H 0.21598 0.50221 0.1339 0.0
H215 H 0.13917 0.40681 0.95911 0.0
H216 H 0.09723 0.37428 0.8487 0.0
H217 H 0.17082 0.43563 0.71569 0.0
H218 H 0.21293 0.46934 0.82533 0.0
H219 H 0.35625 0.46503 0.14118 0.0
H220 H 0.29748 0.45669 0.13508 0.0
H221 H 0.3062 0.50617 0.93683 0.0
H222 H 0.36444 0.51385 0.94164 0.0
H223 H 0.24397 0.45097 0.92714 0.0
H224 H 0.31755 0.55111 0.10354 0.0
H225 H 0.3603 0.58165 0.21431 0.0
H226 H 0.2923 0.50917 0.34357 0.0
H227 H 0.24929 0.47795 0.23338 0.0
C228 C 0.12676 0.50014 0.97323 0.0
C229 C 0.1066 0.48737 0.02824 0.0
C230 C 0.15524 0.49457 0.97017 0.0
C231 C 0.16421 0.4764 0.02238 0.0
C232 C 0.14329 0.46242 0.0754 0.0
C233 C 0.11461 0.46757 0.07793 0.0
C234 C 0.19706 0.47479 0.02597 0.0
C235 C 0.22185 0.49049 0.08904 0.0
C236 C 0.20498 0.4601 0.96693 0.0
C237 C 0.17914 0.44095 0.90071 0.0
C238 C 0.14626 0.41385 0.90641 0.0
C239 C 0.12248 0.39509 0.8439 0.0
C240 C 0.13137 0.40286 0.77525 0.0
C241 C 0.16401 0.42957 0.76894 0.0
C242 C 0.1878 0.44861 0.83128 0.0
C243 C 0.34555 0.47389 0.09604 0.0
C244 C 0.36514 0.49025 0.04215 0.0
C245 C 0.31199 0.46923 0.09273 0.0
C246 C 0.29754 0.48121 0.03594 0.0
C247 C 0.31674 0.49669 0.98113 0.0
C248 C 0.35015 0.50118 0.98417 0.0
C249 C 0.26295 0.47885 0.0345 0.0
C250 C 0.23791 0.46251 0.97194 0.0
C251 C 0.25473 0.49301 0.09385 0.0
C252 C 0.28038 0.51201 0.16018 0.0
C253 C 0.31181 0.54158 0.15555 0.0
C254 C 0.33607 0.55902 0.21822 0.0
C255 C 0.32906 0.5473 0.28591 0.0
C256 C 0.29772 0.51818 0.29109 0.0
C257 C 0.27338 0.50063 0.22857 0.0
H258 H 0.34789 0.56082 0.33436 0.0
H259 H 0.11297 0.38816 0.72694 0.0
H260 H 0.6241 0.14804 0.85613 0.0
H261 H 0.6827 0.19641 0.8748 0.0
H262 H 0.71571 0.14108 0.02683 0.0
H263 H 0.65668 0.09288 0.01005 0.0
H264 H 0.74014 0.2064 0.08084 0.0
H265 H 0.73796 0.15061 0.85346 0.0
H266 H 0.71469 0.12404 0.72646 0.0
H267 H 0.72347 0.22162 0.66246 0.0
H268 H 0.74634 0.24865 0.78928 0.0
H269 H 0.91645 0.33688 0.10662 0.0
H270 H 0.86385 0.28026 0.08293 0.0
H271 H 0.81539 0.32416 0.93396 0.0
H272 H 0.86768 0.38037 0.95633 0.0
H273 H 0.80231 0.26036 0.8791 0.0
H274 H 0.7985 0.31374 0.10757 0.0
H275 H 0.82073 0.34035 0.23476 0.0
H276 H 0.82288 0.2468 0.29606 0.0
H277 H 0.80105 0.21979 0.16896 0.0
C278 C 0.64388 0.14591 0.89289 0.0
C279 C 0.63576 0.11656 0.93149 0.0
C280 C 0.67746 0.17359 0.90333 0.0
C281 C 0.70379 0.17223 0.95153 0.0
C282 C 0.69585 0.14269 0.98929 0.0
C283 C 0.66214 0.11511 0.97944 0.0
C284 C 0.73914 0.20241 0.96503 0.0
C285 C 0.75402 0.21775 0.03679 0.0
C286 C 0.75705 0.21766 0.90755 0.0
C287 C 0.74367 0.20159 0.83102 0.0
C288 C 0.73474 0.16635 0.81239 0.0
C289 C 0.72164 0.15121 0.74042 0.0
C290 C 0.71755 0.17111 0.68645 0.0
C291 C 0.72664 0.20623 0.70432 0.0
C292 C 0.73972 0.22149 0.77623 0.0
C293 C 0.89463 0.33441 0.06863 0.0
C294 C 0.89625 0.3632 0.03362 0.0
C295 C 0.86457 0.30208 0.0553 0.0
C296 C 0.8356 0.29808 0.00708 0.0
C297 C 0.83743 0.32661 0.97122 0.0
C298 C 0.86736 0.35881 0.98438 0.0
C299 C 0.80296 0.26453 -0.00535 0.0
C300 C 0.78859 0.24862 0.92312 0.0
C301 C 0.78553 0.24874 0.05229 0.0
C302 C 0.79854 0.26492 0.12867 0.0
C303 C 0.80398 0.29896 0.14808 0.0
C304 C 0.81645 0.31409 0.22016 0.0
C305 C 0.82332 0.29532 0.27342 0.0
C306 C 0.81762 0.26133 0.25473 0.0
C307 C 0.80518 0.24609 0.1827 0.0
H308 H 0.83298 0.30707 0.32919 0.0
H309 H 0.70738 0.15933 0.63078 0.0
H310 H 0.4328 0.85348 0.8711 0.0
H311 H 0.44096 0.80244 0.88942 0.0
H312 H 0.5331 0.86528 0.04481 0.0
H313 H 0.52484 0.91707 0.02744 0.0
H314 H 0.53847 0.81692 0.93995 0.0
H315 H 0.4706 0.81592 0.11541 0.0
H316 H 0.42419 0.82038 0.16651 0.0
H317 H 0.3482 0.73264 0.01833 0.0
H318 H 0.39422 0.72785 0.96558 0.0
H319 H 0.52591 0.64872 0.02911 0.0
H320 H 0.53383 0.7088 0.0412 0.0
H321 H 0.43942 0.6759 0.8909 0.0
H322 H 0.43151 0.61643 0.87795 0.0
H323 H 0.44311 0.71386 0.01932 0.0
H324 H 0.51434 0.72138 0.83618 0.0
H325 H 0.56242 0.71761 0.79092 0.0
H326 H 0.63439 0.79456 0.96397 0.0
H327 H 0.58663 0.79843 0.01084 0.0
C328 C 0.455 0.85673 0.90893 0.0
C329 C 0.47816 0.88945 0.9479 0.0
C330 C 0.45954 0.8274 0.91949 0.0
C331 C 0.48745 0.82998 0.96887 0.0
C332 C 0.51134 0.86275 0.0065 0.0
C333 C 0.50656 0.89225 -0.00341 0.0
C334 C 0.49056 0.79785 0.98112 0.0
C335 C 0.51807 0.7946 0.95894 0.0
C336 C 0.46387 0.76873 0.00564 0.0
C337 C 0.43592 0.77167 0.03621 0.0
C338 C 0.444 0.79778 0.09315 0.0
C339 C 0.41775 0.80033 0.12253 0.0
C340 C 0.38326 0.77683 0.09568 0.0
C341 C 0.37494 0.75081 0.03913 0.0
C342 C 0.40112 0.74812 0.00953 0.0
C343 C 0.50705 0.65441 -0.00185 0.0
C344 C 0.47807 0.62769 0.95257 0.0
C345 C 0.5116 0.68873 0.00515 0.0
C346 C 0.48713 0.69679 0.96713 0.0
C347 C 0.45853 0.67026 0.92104 0.0
C348 C 0.45416 0.63623 0.91346 0.0
C349 C 0.49038 0.73249 0.97571 0.0
C350 C 0.46392 0.73636 0.00179 0.0
C351 C 0.51827 0.76221 0.95574 0.0
C352 C 0.54689 0.75985 0.92755 0.0
C353 C 0.54038 0.73724 0.86499 0.0
C354 C 0.56758 0.73514 0.83895 0.0
C355 C 0.60143 0.75574 0.8747 0.0
C356 C 0.60815 0.77856 0.93644 0.0
C357 C 0.58104 0.78072 0.96274 0.0
H358 H 0.62245 0.75409 0.85443 0.0
H359 H 0.36299 0.77866 0.11898 0.0
H360 H 0.91274 0.54089 0.05072 0.0
H361 H 0.86569 0.5558 0.04659 0.0
H362 H 0.81218 0.48427 0.85173 0.0
H363 H 0.85932 0.4701 0.85425 0.0
H364 H 0.80327 0.54024 0.8428 0.0
H365 H 0.79499 0.4605 0.02548 0.0
H366 H 0.81707 0.44308 0.13639 0.0
H367 H 0.82867 0.53421 0.26092 0.0
H368 H 0.80698 0.55233 0.15049 0.0
H369 H 0.62692 0.47968 0.83845 0.0
H370 H 0.68552 0.48898 0.84361 0.0
H371 H 0.71748 0.55793 0.04234 0.0
H372 H 0.65804 0.54741 0.03914 0.0
H373 H 0.74301 0.51492 0.05635 0.0
H374 H 0.741 0.5887 0.87392 0.0
H375 H 0.71619 0.60316 0.76235 0.0
H376 H 0.72249 0.5223 0.63612 0.0
H377 H 0.74694 0.50704 0.74702 0.0
C378 C 0.89119 0.52876 0.00639 0.0
C379 C 0.88964 0.50402 0.95325 0.0
C380 C 0.86423 0.5372 0.00426 0.0
C381 C 0.83504 0.52066 0.94959 0.0
C382 C 0.83435 0.49734 0.89455 0.0
C383 C 0.86134 0.48915 0.89626 0.0
C384 C 0.80409 0.5255 0.95173 0.0
C385 C 0.79006 0.53469 0.88944 0.0
C386 C 0.78724 0.51914 0.01321 0.0
C387 C 0.79975 0.50796 0.07969 0.0
C388 C 0.80242 0.47689 0.07648 0.0
C389 C 0.81484 0.46689 0.13923 0.0
C390 C 0.82438 0.48759 0.20561 0.0
C391 C 0.82134 0.51824 0.20944 0.0
C392 C 0.80896 0.52838 0.14682 0.0
C393 C 0.64639 0.49711 0.88304 0.0
C394 C 0.63776 0.51279 0.93848 0.0
C395 C 0.68008 0.50264 0.8856 0.0
C396 C 0.70622 0.5247 0.94266 0.0
C397 C 0.69782 0.54092 -0.00243 0.0
C398 C 0.66388 0.53498 -0.00442 0.0
C399 C 0.74167 0.52889 0.94675 0.0
C400 C 0.75654 0.52133 0.0102 0.0
C401 C 0.75921 0.53667 0.88622 0.0
C402 C 0.74572 0.54666 0.81893 0.0
C403 C 0.73706 0.57397 0.82239 0.0
C404 C 0.72306 0.58231 0.75926 0.0
C405 C 0.71774 0.56364 0.69221 0.0
C406 C 0.72664 0.53675 0.68809 0.0
C407 C 0.74067 0.52831 0.75106 0.0
H408 H 0.70672 0.57001 0.64346 0.0
H409 H 0.83405 0.47984 0.25412 0.0
H410 H 0.11655 0.66368 0.08965 0.0
H411 H 0.16424 0.72335 0.09938 0.0
H412 H 0.19632 0.69558 0.90972 0.0
H413 H 0.14839 0.63641 0.89855 0.0
H414 H 0.23069 0.74576 0.12468 0.0
H415 H 0.23485 0.76414 0.81792 0.0
H416 H 0.19423 0.74737 0.70254 0.0
H417 H 0.1135 0.73765 0.81894 0.0
H418 H 0.15374 0.75484 0.93494 0.0
H419 H 0.3961 0.86557 0.07192 0.0
H420 H 0.33921 0.81586 0.06887 0.0
H421 H 0.29181 0.87786 0.98854 0.0
H422 H 0.34914 0.92748 0.98823 0.0
H423 H 0.25937 0.81696 0.91731 0.0
H424 H 0.29321 0.85557 0.17108 0.0
H425 H 0.33256 0.87506 0.28864 0.0
H426 H 0.3333 0.77638 0.2841 0.0
H427 H 0.29416 0.75638 0.16623 0.0
C428 C 0.13353 0.67043 0.04952 0.0
C429 C 0.12865 0.64531 0.99327 0.0
C430 C 0.16082 0.70451 0.05528 0.0
C431 C 0.18368 0.71409 0.0049 0.0
C432 C 0.17863 0.68908 0.94839 0.0
C433 C 0.15127 0.65514 0.94229 0.0
C434 C 0.21391 0.74957 0.01324 0.0
C435 C 0.23679 0.76148 0.07954 0.0
C436 C 0.22159 0.77048 0.95488 0.0
C437 C 0.19729 0.76055 0.88521 0.0
C438 C 0.20848 0.75862 0.81889 0.0
C439 C 0.18551 0.74899 0.75338 0.0
C440 C 0.15129 0.74137 0.75343 0.0
C441 C 0.13999 0.74346 0.81899 0.0
C442 C 0.16286 0.7531 0.88466 0.0
C443 C 0.37355 0.86875 0.05451 0.0
C444 C 0.3769 0.90044 0.03125 0.0
C445 C 0.34102 0.84034 0.05306 0.0
C446 C 0.31114 0.84328 0.03024 0.0
C447 C 0.31447 0.87501 0.00683 0.0
C448 C 0.34714 0.90332 0.00683 0.0
C449 C 0.27661 0.81264 0.02806 0.0
C450 C 0.25298 0.80157 0.96288 0.0
C451 C 0.26786 0.79291 0.08798 0.0
C452 C 0.29073 0.80449 0.1598 0.0
C453 C 0.30176 0.83803 0.19516 0.0
C454 C 0.324 0.84915 0.26189 0.0
C455 C 0.33531 0.82692 0.29394 0.0
C456 C 0.32438 0.79351 0.25937 0.0
C457 C 0.30208 0.78222 0.19272 0.0
H458 H 0.35268 0.83566 0.34541 0.0
H459 H 0.13354 0.7339 0.70265 0.0
H460 H 0.49179 0.37422 0.8992 0.0
H461 H 0.48559 0.31491 0.88119 0.0
H462 H 0.5637 0.33966 0.06909 0.0
H463 H 0.56995 0.3982 0.0874 0.0
H464 H 0.57481 0.30808 0.954 0.0
H465 H 0.47934 0.29079 0.07847 0.0
H466 H 0.42555 0.29252 0.09138 0.0
H467 H 0.37485 0.22536 0.89147 0.0
H468 H 0.42853 0.22362 0.87693 0.0
H469 H 0.56411 0.15882 0.09612 0.0
H470 H 0.55796 0.211 0.07717 0.0
H471 H 0.48466 0.15772 0.88169 0.0
H472 H 0.49073 0.10488 0.90014 0.0
H473 H 0.46682 0.2005 0.97191 0.0
H474 H 0.56023 0.21038 0.85808 0.0
H475 H 0.61349 0.20683 0.84943 0.0
H476 H 0.66812 0.28754 0.02793 0.0
H477 H 0.615 0.2911 0.03868 0.0
C478 C 0.50751 0.36689 0.93671 0.0
C479 C 0.53131 0.39099 -0.00519 0.0
C480 C 0.50394 0.33302 0.92639 0.0
C481 C 0.52423 0.32284 0.9738 0.0
C482 C 0.54791 0.34692 0.03156 0.0
C483 C 0.5513 0.38044 0.04212 0.0
C484 C 0.52132 0.28726 0.96465 0.0
C485 C 0.55118 0.28458 0.95786 0.0
C486 C 0.49024 0.2564 0.96736 0.0
C487 C 0.45804 0.25746 0.97612 0.0
C488 C 0.4568 0.27666 0.03693 0.0
C489 C 0.42633 0.27759 0.04462 0.0
C490 C 0.39683 0.25917 0.99214 0.0
C491 C 0.39774 0.23969 0.93198 0.0
C492 C 0.42817 0.23871 0.924 0.0
C493 C 0.54639 0.1579 0.04934 0.0
C494 C 0.5281 0.12768 -0.00066 0.0
C495 C 0.54296 0.18785 0.03856 0.0
C496 C 0.52121 0.1884 0.97755 0.0
C497 C 0.50166 0.15785 0.92902 0.0
C498 C 0.50521 0.12773 0.93962 0.0
C499 C 0.5206 0.22167 0.96386 0.0
C500 C 0.4902 0.2239 0.96628 0.0
C501 C 0.55118 0.2522 0.95686 0.0
C502 C 0.58351 0.25085 0.94945 0.0
C503 C 0.58354 0.22724 0.89579 0.0
C504 C 0.61371 0.22522 0.89051 0.0
C505 C 0.64416 0.24691 0.93817 0.0
C506 C 0.64451 0.27075 0.99105 0.0
C507 C 0.61437 0.2728 -0.00328 0.0
H508 H 0.66748 0.24528 0.93408 0.0
H509 H 0.37326 0.2599 -0.0018 0.0
loop_
_geom_bond_atom_site_label_1
_geom_bond_atom_site_label_2
_geom_bond_distance
_geom_bond_site_symmetry_2
_ccdc_geom_bond_type
Zn0 O6 1.969 . S
Zn0 O7 1.965 1_554 S
Zn0 O11 2.024 1_554 S
Zn0 O16 1.969 . S
Zn1 O8 1.969 . S
Zn1 O14 1.969 . S
Zn1 O15 1.965 1_556 S
Zn1 O17 2.024 1_556 S
C2 O3 1.229 . S
C2 O11 1.058 1_554 S
O3 C2 1.229 . S
C4 O5 1.229 . S
C4 O17 1.058 1_556 S
O5 C4 1.229 . S
O6 Zn0 1.969 . S
O6 C9 1.267 1_554 S
O7 Zn0 1.965 1_556 S
O7 C18 1.260 1_455 S
O8 Zn1 1.969 . S
O8 C18 1.258 . S
C9 O6 1.267 1_556 S
C9 O10 1.228 . S
O10 C9 1.228 . S
O11 Zn0 2.024 1_556 S
O11 C2 1.058 1_556 S
C12 O13 1.228 . S
C12 O14 1.267 1_554 S
O13 C12 1.228 . S
O14 Zn1 1.969 . S
O14 C12 1.267 1_556 S
O15 Zn1 1.965 1_554 S
O15 C19 1.260 1_655 S
O16 Zn0 1.969 . S
O16 C19 1.258 . S
O17 Zn1 2.024 1_554 S
O17 C4 1.058 1_554 S
C18 O7 1.260 1_655 S
C18 O8 1.258 . S
C19 O15 1.260 1_455 S
C19 O16 1.258 . S
Zn20 O26 1.969 . S
Zn20 O27 1.965 1_556 S
Zn20 O31 2.024 1_556 S
Zn20 O36 1.969 . S
Zn21 O28 1.969 . S
Zn21 O34 1.969 . S
Zn21 O35 1.965 1_554 S
Zn21 O37 2.024 1_554 S
C22 O23 1.229 . S
C22 O31 1.058 1_556 S
O23 C22 1.229 . S
C24 O25 1.229 . S
C24 O37 1.058 1_554 S
O25 C24 1.229 . S
O26 Zn20 1.969 . S
O26 C29 1.267 1_556 S
O27 Zn20 1.965 1_554 S
O27 C38 1.260 1_565 S
O28 Zn21 1.969 . S
O28 C38 1.258 . S
C29 O26 1.267 1_554 S
C29 O30 1.228 . S
O30 C29 1.228 . S
O31 Zn20 2.024 1_554 S
O31 C22 1.058 1_554 S
C32 O33 1.228 . S
C32 O34 1.267 1_556 S
O33 C32 1.228 . S
O34 Zn21 1.969 . S
O34 C32 1.267 1_554 S
O35 Zn21 1.965 1_556 S
O35 C39 1.260 1_545 S
O36 Zn20 1.969 . S
O36 C39 1.258 . S
O37 Zn21 2.024 1_556 S
O37 C24 1.058 1_556 S
C38 O27 1.260 1_545 S
C38 O28 1.258 . S
C39 O35 1.260 1_565 S
C39 O36 1.258 . S
Zn40 O46 1.969 . S
Zn40 O47 1.965 1_554 S
Zn40 O51 2.024 1_554 S
Zn40 O56 1.969 . S
Zn41 O48 1.969 . S
Zn41 O54 1.969 . S
Zn41 O55 1.965 1_556 S
Zn41 O57 2.024 1_556 S
C42 O43 1.229 . S
C42 O51 1.058 1_554 S
O43 C42 1.229 . S
C44 O45 1.229 . S
C44 O57 1.058 1_556 S
O45 C44 1.229 . S
O46 Zn40 1.969 . S
O46 C49 1.267 1_554 S
O47 Zn40 1.965 1_556 S
O47 C58 1.260 . S
O48 Zn41 1.969 . S
O48 C58 1.258 . S
C49 O46 1.267 1_556 S
C49 O50 1.228 . S
O50 C49 1.228 . S
O51 Zn40 2.024 1_556 S
O51 C42 1.058 1_556 S
C52 O53 1.228 . S
C52 O54 1.267 1_554 S
O53 C52 1.228 . S
O54 Zn41 1.969 . S
O54 C52 1.267 1_556 S
O55 Zn41 1.965 1_554 S
O55 C59 1.260 . S
O56 Zn40 1.969 . S
O56 C59 1.258 . S
O57 Zn41 2.024 1_554 S
O57 C44 1.058 1_554 S
C58 O47 1.260 . S
C58 O48 1.258 . S
C59 O55 1.260 . S
C59 O56 1.258 . S
H60 C78 0.951 . S
H61 C80 0.951 . S
H62 C82 0.950 . S
H63 C83 0.950 . S
H64 C85 0.950 . S
H65 C88 0.950 . S
H66 C89 0.950 . S
H67 C91 0.950 . S
H68 C92 0.950 . S
H69 C93 0.951 . S
H70 C95 0.951 . S
H71 C97 0.950 . S
H72 C98 0.944 . S
H73 C100 0.950 . S
H74 C103 0.950 . S
H75 C104 0.950 . S
H76 C106 0.950 . S
H77 C107 0.950 . S
C78 H60 0.951 . S
C78 C79 1.361 . S
C78 C80 1.388 . S
C79 C78 1.361 . S
C79 C83 1.387 1_655 S
C80 H61 0.951 . S
C80 C78 1.388 . S
C80 C81 1.366 1_655 S
C81 C80 1.366 1_455 S
C81 C82 1.414 . S
C81 C84 1.499 . S
C82 H62 0.950 . S
C82 C81 1.414 . S
C82 C83 1.374 . S
C83 H63 0.950 . S
C83 C79 1.387 1_455 S
C83 C82 1.374 . S
C84 C81 1.499 . S
C84 C85 1.373 1_455 S
C84 C86 1.389 . S
C85 H64 0.950 . S
C85 C84 1.373 1_655 S
C85 C101 1.377 . S
C86 C84 1.389 . S
C86 C87 1.524 . S
C86 C100 1.377 . S
C87 C86 1.524 . S
C87 C88 1.397 . S
C87 C92 1.363 . S
C88 H65 0.950 . S
C88 C87 1.397 . S
C88 C89 1.334 . S
C89 H66 0.950 . S
C89 C88 1.334 . S
C89 C90 1.287 . S
C90 C89 1.287 . S
C90 C91 1.524 . S
C90 H109 0.913 . S
C91 H67 0.950 . S
C91 C90 1.524 . S
C91 C92 1.415 . S
C92 H68 0.950 . S
C92 C87 1.363 . S
C92 C91 1.415 . S
C93 H69 0.951 . S
C93 C94 1.366 . S
C93 C95 1.388 . S
C94 C93 1.366 . S
C94 C98 1.389 1_455 S
C95 H70 0.951 . S
C95 C93 1.388 . S
C95 C96 1.359 . S
C96 C95 1.359 . S
C96 C97 1.426 1_455 S
C96 C99 1.495 1_455 S
C97 H71 0.950 . S
C97 C96 1.426 1_655 S
C97 C98 1.376 . S
C98 H72 0.944 . S
C98 C94 1.389 1_655 S
C98 C97 1.376 . S
C99 C96 1.495 1_655 S
C99 C100 1.376 1_655 S
C99 C101 1.387 . S
C100 H73 0.950 . S
C100 C86 1.377 . S
C100 C99 1.376 1_455 S
C101 C85 1.377 . S
C101 C99 1.387 . S
C101 C102 1.524 . S
C102 C101 1.524 . S
C102 C103 1.397 . S
C102 C107 1.363 . S
C103 H74 0.950 . S
C103 C102 1.397 . S
C103 C104 1.334 . S
C104 H75 0.950 . S
C104 C103 1.334 . S
C104 C105 1.287 . S
C105 C104 1.287 . S
C105 C106 1.524 . S
C105 H108 0.999 . S
C106 H76 0.950 . S
C106 C105 1.524 . S
C106 C107 1.415 . S
C107 H77 0.950 . S
C107 C102 1.363 . S
C107 C106 1.415 . S
H108 C105 0.999 . S
H109 C90 0.913 . S
H110 C128 0.951 . S
H111 C130 0.951 . S
H112 C132 0.950 . S
H113 C133 0.950 . S
H114 C135 0.950 . S
H115 C138 0.950 . S
H116 C139 0.950 . S
H117 C141 0.950 . S
H118 C142 0.950 . S
H119 C143 0.951 . S
H120 C145 0.951 . S
H121 C147 0.950 . S
H122 C148 0.950 . S
H123 C150 0.950 . S
H124 C153 0.950 . S
H125 C154 0.950 . S
H126 C156 0.950 . S
H127 C157 0.950 . S
C128 H110 0.951 . S
C128 C129 1.366 1_565 S
C128 C130 1.388 . S
C129 C128 1.366 1_545 S
C129 C133 1.385 . S
C130 H111 0.951 . S
C130 C128 1.388 . S
C130 C131 1.351 1_565 S
C131 C130 1.351 1_545 S
C131 C132 1.429 . S
C131 C134 1.499 . S
C132 H112 0.950 . S
C132 C131 1.429 . S
C132 C133 1.374 . S
C133 H113 0.950 . S
C133 C129 1.385 . S
C133 C132 1.374 . S
C134 C131 1.499 . S
C134 C135 1.373 . S
C134 C136 1.389 1_545 S
C135 H114 0.950 . S
C135 C134 1.373 . S
C135 C151 1.377 . S
C136 C134 1.389 1_565 S
C136 C137 1.524 . S
C136 C150 1.377 . S
C137 C136 1.524 . S
C137 C138 1.397 . S
C137 C142 1.363 . S
C138 H115 0.950 . S
C138 C137 1.397 . S
C138 C139 1.334 . S
C139 H116 0.950 . S
C139 C138 1.334 . S
C139 C140 1.287 . S
C140 C139 1.287 . S
C140 C141 1.524 . S
C140 H159 0.913 . S
C141 H117 0.950 . S
C141 C140 1.524 . S
C141 C142 1.415 . S
C142 H118 0.950 . S
C142 C137 1.363 . S
C142 C141 1.415 . S
C143 H119 0.951 . S
C143 C144 1.366 . S
C143 C145 1.388 . S
C144 C143 1.366 . S
C144 C148 1.385 1_545 S
C145 H120 0.951 . S
C145 C143 1.388 . S
C145 C146 1.366 . S
C146 C145 1.366 . S
C146 C147 1.414 1_545 S
C146 C149 1.499 . S
C147 H121 0.950 . S
C147 C146 1.414 1_565 S
C147 C148 1.374 . S
C148 H122 0.950 . S
C148 C144 1.385 1_565 S
C148 C147 1.374 . S
C149 C146 1.499 . S
C149 C150 1.373 1_545 S
C149 C151 1.389 . S
C150 H123 0.950 . S
C150 C136 1.377 . S
C150 C149 1.373 1_565 S
C151 C135 1.377 . S
C151 C149 1.389 . S
C151 C152 1.524 . S
C152 C151 1.524 . S
C152 C153 1.397 . S
C152 C157 1.363 . S
C153 H124 0.950 . S
C153 C152 1.397 . S
C153 C154 1.334 . S
C154 H125 0.950 . S
C154 C153 1.334 . S
C154 C155 1.287 . S
C155 C154 1.287 . S
C155 C156 1.524 . S
C155 H158 0.999 . S
C156 H126 0.950 . S
C156 C155 1.524 . S
C156 C157 1.415 . S
C157 H127 0.950 . S
C157 C152 1.363 . S
C157 C156 1.415 . S
H158 C155 0.999 . S
H159 C140 0.913 . S
H160 C178 0.951 . S
H161 C180 0.951 . S
H162 C182 0.950 . S
H163 C183 0.950 . S
H164 C185 0.950 . S
H165 C188 0.950 . S
H166 C189 0.950 . S
H167 C191 0.950 . S
H168 C192 0.950 . S
H169 C193 0.951 . S
H170 C195 0.951 . S
H171 C197 0.950 . S
H172 C198 0.950 . S
H173 C200 0.950 . S
H174 C203 0.950 . S
H175 C204 0.950 . S
H176 C206 0.950 . S
H177 C207 0.950 . S
C178 H160 0.951 . S
C178 C179 1.366 . S
C178 C180 1.388 . S
C179 C178 1.366 . S
C179 C183 1.385 . S
C180 H161 0.951 . S
C180 C178 1.388 . S
C180 C181 1.366 . S
C181 C180 1.366 . S
C181 C182 1.414 . S
C181 C184 1.499 . S
C182 H162 0.950 . S
C182 C181 1.414 . S
C182 C183 1.374 . S
C183 H163 0.950 . S
C183 C179 1.385 . S
C183 C182 1.374 . S
C184 C181 1.499 . S
C184 C185 1.373 . S
C184 C186 1.389 . S
C185 H164 0.950 . S
C185 C184 1.373 . S
C185 C201 1.377 . S
C186 C184 1.389 . S
C186 C187 1.524 . S
C186 C200 1.377 . S
C187 C186 1.524 . S
C187 C188 1.397 . S
C187 C192 1.363 . S
C188 H165 0.950 . S
C188 C187 1.397 . S
C188 C189 1.334 . S
C189 H166 0.950 . S
C189 C188 1.334 . S
C189 C190 1.287 . S
C190 C189 1.287 . S
C190 C191 1.524 . S
C190 H209 0.913 . S
C191 H167 0.950 . S
C191 C190 1.524 . S
C191 C192 1.415 . S
C192 H168 0.950 . S
C192 C187 1.363 . S
C192 C191 1.415 . S
C193 H169 0.951 . S
C193 C194 1.366 . S
C193 C195 1.388 . S
C194 C193 1.366 . S
C194 C198 1.385 . S
C195 H170 0.951 . S
C195 C193 1.388 . S
C195 C196 1.366 . S
C196 C195 1.366 . S
C196 C197 1.414 . S
C196 C199 1.499 . S
C197 H171 0.950 . S
C197 C196 1.414 . S
C197 C198 1.374 . S
C198 H172 0.950 . S
C198 C194 1.385 . S
C198 C197 1.374 . S
C199 C196 1.499 . S
C199 C200 1.373 . S
C199 C201 1.389 . S
C200 H173 0.950 . S
C200 C186 1.377 . S
C200 C199 1.373 . S
C201 C185 1.377 . S
C201 C199 1.389 . S
C201 C202 1.524 . S
C202 C201 1.524 . S
C202 C203 1.397 . S
C202 C207 1.363 . S
C203 H174 0.950 . S
C203 C202 1.397 . S
C203 C204 1.334 . S
C204 H175 0.950 . S
C204 C203 1.334 . S
C204 C205 1.287 . S
C205 C204 1.287 . S
C205 C206 1.524 . S
C205 H208 0.999 . S
C206 H176 0.950 . S
C206 C205 1.524 . S
C206 C207 1.415 . S
C207 H177 0.950 . S
C207 C202 1.363 . S
C207 C206 1.415 . S
H208 C205 0.999 . S
H209 C190 0.913 . S
H210 C228 0.951 . S
H211 C230 0.951 . S
H212 C232 0.950 . S
H213 C233 0.950 . S
H214 C235 0.950 . S
H215 C238 0.950 . S
H216 C239 0.950 . S
H217 C241 0.950 . S
H218 C242 0.950 . S
H219 C243 0.951 . S
H220 C245 0.951 . S
H221 C247 0.950 . S
H222 C248 0.950 . S
H223 C250 0.950 . S
H224 C253 0.950 . S
H225 C254 0.950 . S
H226 C256 0.950 . S
H227 C257 0.950 . S
C228 H210 0.951 . S
C228 C229 1.366 1_556 S
C228 C230 1.388 . S
C229 C228 1.366 1_554 S
C229 C233 1.385 . S
C230 H211 0.951 . S
C230 C228 1.388 . S
C230 C231 1.366 1_556 S
C231 C230 1.366 1_554 S
C231 C232 1.414 . S
C231 C234 1.499 . S
C232 H212 0.950 . S
C232 C231 1.414 . S
C232 C233 1.374 . S
C233 H213 0.950 . S
C233 C229 1.385 . S
C233 C232 1.374 . S
C234 C231 1.499 . S
C234 C235 1.373 . S
C234 C236 1.389 1_554 S
C235 H214 0.950 . S
C235 C234 1.373 . S
C235 C251 1.377 . S
C236 C234 1.389 1_556 S
C236 C237 1.524 . S
C236 C250 1.377 . S
C237 C236 1.524 . S
C237 C238 1.397 . S
C237 C242 1.363 . S
C238 H215 0.950 . S
C238 C237 1.397 . S
C238 C239 1.334 . S
C239 H216 0.950 . S
C239 C238 1.334 . S
C239 C240 1.287 . S
C240 C239 1.287 . S
C240 C241 1.524 . S
C240 H259 0.913 . S
C241 H217 0.950 . S
C241 C240 1.524 . S
C241 C242 1.415 . S
C242 H218 0.950 . S
C242 C237 1.363 . S
C242 C241 1.415 . S
C243 H219 0.951 . S
C243 C244 1.366 . S
C243 C245 1.388 . S
C244 C243 1.366 . S
C244 C248 1.385 1_554 S
C245 H220 0.951 . S
C245 C243 1.388 . S
C245 C246 1.366 . S
C246 C245 1.366 . S
C246 C247 1.414 1_554 S
C246 C249 1.499 . S
C247 H221 0.950 . S
C247 C246 1.414 1_556 S
C247 C248 1.374 . S
C248 H222 0.950 . S
C248 C244 1.385 1_556 S
C248 C247 1.374 . S
C249 C246 1.499 . S
C249 C250 1.373 1_554 S
C249 C251 1.389 . S
C250 H223 0.950 . S
C250 C236 1.377 . S
C250 C249 1.373 1_556 S
C251 C235 1.377 . S
C251 C249 1.389 . S
C251 C252 1.524 . S
C252 C251 1.524 . S
C252 C253 1.397 . S
C252 C257 1.363 . S
C253 H224 0.950 . S
C253 C252 1.397 . S
C253 C254 1.334 . S
C254 H225 0.950 . S
C254 C253 1.334 . S
C254 C255 1.287 . S
C255 C254 1.287 . S
C255 C256 1.524 . S
C255 H258 0.999 . S
C256 H226 0.950 . S
C256 C255 1.524 . S
C256 C257 1.415 . S
C257 H227 0.950 . S
C257 C252 1.363 . S
C257 C256 1.415 . S
H258 C255 0.999 . S
H259 C240 0.913 . S
H260 C278 0.951 . S
H261 C280 0.951 . S
H262 C282 0.950 . S
H263 C283 0.950 . S
H264 C285 0.950 . S
H265 C288 0.950 . S
H266 C289 0.950 . S
H267 C291 0.950 . S
H268 C292 0.950 . S
H269 C293 0.951 . S
H270 C295 0.951 . S
H271 C297 0.950 . S
H272 C298 0.950 . S
H273 C300 0.950 . S
H274 C303 0.950 . S
H275 C304 0.950 . S
H276 C306 0.950 . S
H277 C307 0.950 . S
C278 H260 0.951 . S
C278 C279 1.366 . S
C278 C280 1.388 . S
C279 C278 1.366 . S
C279 C283 1.385 1_556 S
C280 H261 0.951 . S
C280 C278 1.388 . S
C280 C281 1.366 . S
C281 C280 1.366 . S
C281 C282 1.414 1_556 S
C281 C284 1.499 . S
C282 H262 0.950 . S
C282 C281 1.414 1_554 S
C282 C283 1.374 . S
C283 H263 0.950 . S
C283 C279 1.385 1_554 S
C283 C282 1.374 . S
C284 C281 1.499 . S
C284 C285 1.373 1_556 S
C284 C286 1.389 . S
C285 H264 0.950 . S
C285 C284 1.373 1_554 S
C285 C301 1.377 . S
C286 C284 1.389 . S
C286 C287 1.524 . S
C286 C300 1.377 . S
C287 C286 1.524 . S
C287 C288 1.397 . S
C287 C292 1.363 . S
C288 H265 0.950 . S
C288 C287 1.397 . S
C288 C289 1.334 . S
C289 H266 0.950 . S
C289 C288 1.334 . S
C289 C290 1.287 . S
C290 C289 1.287 . S
C290 C291 1.524 . S
C290 H309 0.913 . S
C291 H267 0.950 . S
C291 C290 1.524 . S
C291 C292 1.415 . S
C292 H268 0.950 . S
C292 C287 1.363 . S
C292 C291 1.415 . S
C293 H269 0.951 . S
C293 C294 1.366 . S
C293 C295 1.388 . S
C294 C293 1.366 . S
C294 C298 1.385 1_554 S
C295 H270 0.951 . S
C295 C293 1.388 . S
C295 C296 1.366 . S
C296 C295 1.366 . S
C296 C297 1.414 1_554 S
C296 C299 1.499 . S
C297 H271 0.950 . S
C297 C296 1.414 1_556 S
C297 C298 1.374 . S
C298 H272 0.950 . S
C298 C294 1.385 1_556 S
C298 C297 1.374 . S
C299 C296 1.499 . S
C299 C300 1.373 1_554 S
C299 C301 1.389 . S
C300 H273 0.950 . S
C300 C286 1.377 . S
C300 C299 1.373 1_556 S
C301 C285 1.377 . S
C301 C299 1.389 . S
C301 C302 1.524 . S
C302 C301 1.524 . S
C302 C303 1.397 . S
C302 C307 1.363 . S
C303 H274 0.950 . S
C303 C302 1.397 . S
C303 C304 1.334 . S
C304 H275 0.950 . S
C304 C303 1.334 . S
C304 C305 1.287 . S
C305 C304 1.287 . S
C305 C306 1.524 . S
C305 H308 0.999 . S
C306 H276 0.950 . S
C306 C305 1.524 . S
C306 C307 1.415 . S
C307 H277 0.950 . S
C307 C302 1.363 . S
C307 C306 1.415 . S
H308 C305 0.999 . S
H309 C290 0.913 . S
H310 C328 0.951 . S
H311 C330 0.951 . S
H312 C332 0.950 . S
H313 C333 0.950 . S
H314 C335 0.950 . S
H315 C338 0.950 . S
H316 C339 0.950 . S
H317 C341 0.950 . S
H318 C342 0.950 1_556 S
H319 C343 0.951 . S
H320 C345 0.951 . S
H321 C347 0.950 . S
H322 C348 0.950 . S
H323 C350 0.950 . S
H324 C353 0.950 . S
H325 C354 0.950 . S
H326 C356 0.950 . S
H327 C357 0.950 1_554 S
C328 H310 0.951 . S
C328 C329 1.366 . S
C328 C330 1.388 . S
C329 C328 1.366 . S
C329 C333 1.385 1_556 S
C330 H311 0.951 . S
C330 C328 1.388 . S
C330 C331 1.366 1_556 S
C331 C330 1.366 1_554 S
C331 C332 1.414 . S
C331 C334 1.499 . S
C332 H312 0.950 . S
C332 C331 1.414 . S
C332 C333 1.374 . S
C333 H313 0.950 . S
C333 C329 1.385 1_554 S
C333 C332 1.374 . S
C334 C331 1.499 . S
C334 C335 1.373 1_554 S
C334 C336 1.389 . S
C335 H314 0.950 . S
C335 C334 1.373 1_556 S
C335 C351 1.377 . S
C336 C334 1.389 . S
C336 C337 1.524 . S
C336 C350 1.377 . S
C337 C336 1.524 . S
C337 C338 1.397 . S
C337 C342 1.363 . S
C338 H315 0.950 . S
C338 C337 1.397 . S
C338 C339 1.334 . S
C339 H316 0.950 . S
C339 C338 1.334 . S
C339 C340 1.287 . S
C340 C339 1.287 . S
C340 C341 1.524 . S
C340 H359 0.913 . S
C341 H317 0.950 . S
C341 C340 1.524 . S
C341 C342 1.415 . S
C342 H318 0.950 1_554 S
C342 C337 1.363 . S
C342 C341 1.415 . S
C343 H319 0.951 . S
C343 C344 1.366 . S
C343 C345 1.388 . S
C344 C343 1.366 . S
C344 C348 1.385 1_554 S
C345 H320 0.951 . S
C345 C343 1.388 . S
C345 C346 1.366 1_554 S
C346 C345 1.366 1_556 S
C346 C347 1.414 . S
C346 C349 1.499 . S
C347 H321 0.950 . S
C347 C346 1.414 . S
C347 C348 1.374 . S
C348 H322 0.950 . S
C348 C344 1.385 1_556 S
C348 C347 1.374 . S
C349 C346 1.499 . S
C349 C350 1.373 1_556 S
C349 C351 1.389 . S
C350 H323 0.950 . S
C350 C336 1.377 . S
C350 C349 1.373 1_554 S
C351 C335 1.377 . S
C351 C349 1.389 . S
C351 C352 1.524 . S
C352 C351 1.524 . S
C352 C353 1.397 . S
C352 C357 1.363 . S
C353 H324 0.950 . S
C353 C352 1.397 . S
C353 C354 1.334 . S
C354 H325 0.950 . S
C354 C353 1.334 . S
C354 C355 1.287 . S
C355 C354 1.287 . S
C355 C356 1.524 . S
C355 H358 0.999 . S
C356 H326 0.950 . S
C356 C355 1.524 . S
C356 C357 1.415 . S
C357 H327 0.950 1_556 S
C357 C352 1.363 . S
C357 C356 1.415 . S
H358 C355 0.999 . S
H359 C340 0.913 . S
H360 C378 0.951 1_554 S
H361 C380 0.950 1_554 S
H362 C382 0.950 . S
H363 C383 0.950 . S
H364 C385 0.950 . S
H365 C388 0.950 . S
H366 C389 0.950 . S
H367 C391 0.950 . S
H368 C392 0.950 . S
H369 C393 0.951 . S
H370 C395 0.951 . S
H371 C397 0.950 . S
H372 C398 0.950 . S
H373 C400 0.950 . S
H374 C403 0.950 . S
H375 C404 0.950 . S
H376 C406 0.950 . S
H377 C407 0.950 . S
C378 H360 0.951 1_556 S
C378 C379 1.366 . S
C378 C380 1.389 . S
C379 C378 1.366 . S
C379 C383 1.385 . S
C380 H361 0.950 1_556 S
C380 C378 1.389 . S
C380 C381 1.365 . S
C381 C380 1.365 . S
C381 C382 1.414 . S
C381 C384 1.499 . S
C382 H362 0.950 . S
C382 C381 1.414 . S
C382 C383 1.374 . S
C383 H363 0.950 . S
C383 C379 1.385 . S
C383 C382 1.374 . S
C384 C381 1.499 . S
C384 C385 1.373 . S
C384 C386 1.389 1_556 S
C385 H364 0.950 . S
C385 C384 1.373 . S
C385 C401 1.377 . S
C386 C384 1.389 1_554 S
C386 C387 1.524 . S
C386 C400 1.377 . S
C387 C386 1.524 . S
C387 C388 1.397 . S
C387 C392 1.363 . S
C388 H365 0.950 . S
C388 C387 1.397 . S
C388 C389 1.334 . S
C389 H366 0.950 . S
C389 C388 1.334 . S
C389 C390 1.287 . S
C390 C389 1.287 . S
C390 C391 1.524 . S
C390 H409 0.913 . S
C391 H367 0.950 . S
C391 C390 1.524 . S
C391 C392 1.415 . S
C392 H368 0.950 . S
C392 C387 1.363 . S
C392 C391 1.415 . S
C393 H369 0.951 . S
C393 C394 1.366 . S
C393 C395 1.388 . S
C394 C393 1.366 . S
C394 C398 1.385 1_556 S
C395 H370 0.951 . S
C395 C393 1.388 . S
C395 C396 1.366 . S
C396 C395 1.366 . S
C396 C397 1.414 1_556 S
C396 C399 1.499 . S
C397 H371 0.950 . S
C397 C396 1.414 1_554 S
C397 C398 1.374 . S
C398 H372 0.950 . S
C398 C394 1.385 1_554 S
C398 C397 1.374 . S
C399 C396 1.499 . S
C399 C400 1.373 1_556 S
C399 C401 1.389 . S
C400 H373 0.950 . S
C400 C386 1.377 . S
C400 C399 1.373 1_554 S
C401 C385 1.377 . S
C401 C399 1.389 . S
C401 C402 1.524 . S
C402 C401 1.524 . S
C402 C403 1.397 . S
C402 C407 1.363 . S
C403 H374 0.950 . S
C403 C402 1.397 . S
C403 C404 1.334 . S
C404 H375 0.950 . S
C404 C403 1.334 . S
C404 C405 1.287 . S
C405 C404 1.287 . S
C405 C406 1.524 . S
C405 H408 0.999 . S
C406 H376 0.950 . S
C406 C405 1.524 . S
C406 C407 1.415 . S
C407 H377 0.950 . S
C407 C402 1.363 . S
C407 C406 1.415 . S
H408 C405 0.999 . S
H409 C390 0.913 . S
H410 C428 0.951 . S
H411 C430 0.951 . S
H412 C432 0.950 . S
H413 C433 0.950 . S
H414 C435 0.950 . S
H415 C438 0.950 . S
H416 C439 0.950 . S
H417 C441 0.950 . S
H418 C442 0.950 . S
H419 C443 0.951 . S
H420 C445 0.951 . S
H421 C447 0.950 . S
H422 C448 0.950 . S
H423 C450 0.950 . S
H424 C453 0.950 . S
H425 C454 0.950 . S
H426 C456 0.950 . S
H427 C457 0.950 . S
C428 H410 0.951 . S
C428 C429 1.366 . S
C428 C430 1.388 . S
C429 C428 1.366 . S
C429 C433 1.385 1_556 S
C430 H411 0.951 . S
C430 C428 1.388 . S
C430 C431 1.366 . S
C431 C430 1.366 . S
C431 C432 1.414 1_556 S
C431 C434 1.499 . S
C432 H412 0.950 . S
C432 C431 1.414 1_554 S
C432 C433 1.374 . S
C433 H413 0.950 . S
C433 C429 1.385 1_554 S
C433 C432 1.374 . S
C434 C431 1.499 . S
C434 C435 1.373 1_556 S
C434 C436 1.389 . S
C435 H414 0.950 . S
C435 C434 1.373 1_554 S
C435 C451 1.377 . S
C436 C434 1.389 . S
C436 C437 1.524 . S
C436 C450 1.377 . S
C437 C436 1.524 . S
C437 C438 1.397 . S
C437 C442 1.363 . S
C438 H415 0.950 . S
C438 C437 1.397 . S
C438 C439 1.334 . S
C439 H416 0.950 . S
C439 C438 1.334 . S
C439 C440 1.287 . S
C440 C439 1.287 . S
C440 C441 1.524 . S
C440 H459 0.913 . S
C441 H417 0.950 . S
C441 C440 1.524 . S
C441 C442 1.415 . S
C442 H418 0.950 . S
C442 C437 1.363 . S
C442 C441 1.415 . S
C443 H419 0.951 . S
C443 C444 1.366 . S
C443 C445 1.388 . S
C444 C443 1.366 . S
C444 C448 1.385 1_554 S
C445 H420 0.951 . S
C445 C443 1.388 . S
C445 C446 1.366 . S
C446 C445 1.366 . S
C446 C447 1.414 1_554 S
C446 C449 1.499 . S
C447 H421 0.950 . S
C447 C446 1.414 1_556 S
C447 C448 1.374 . S
C448 H422 0.950 . S
C448 C444 1.385 1_556 S
C448 C447 1.374 . S
C449 C446 1.499 . S
C449 C450 1.373 1_554 S
C449 C451 1.389 . S
C450 H423 0.950 . S
C450 C436 1.377 . S
C450 C449 1.373 1_556 S
C451 C435 1.377 . S
C451 C449 1.389 . S
C451 C452 1.524 . S
C452 C451 1.524 . S
C452 C453 1.397 . S
C452 C457 1.363 . S
C453 H424 0.950 . S
C453 C452 1.397 . S
C453 C454 1.334 . S
C454 H425 0.950 . S
C454 C453 1.334 . S
C454 C455 1.287 . S
C455 C454 1.287 . S
C455 C456 1.524 . S
C455 H458 0.999 . S
C456 H426 0.950 . S
C456 C455 1.524 . S
C456 C457 1.415 . S
C457 H427 0.950 . S
C457 C452 1.363 . S
C457 C456 1.415 . S
H458 C455 0.999 . S
H459 C440 0.913 . S
H460 C478 0.951 . S
H461 C480 0.951 . S
H462 C482 0.950 . S
H463 C483 0.950 . S
H464 C485 0.950 . S
H465 C488 0.950 . S
H466 C489 0.950 . S
H467 C491 0.950 1_556 S
H468 C492 0.950 . S
H469 C493 0.951 . S
H470 C495 0.951 . S
H471 C497 0.950 . S
H472 C498 0.950 . S
H473 C500 0.950 . S
H474 C503 0.950 . S
H475 C504 0.950 . S
H476 C506 0.950 1_554 S
H477 C507 0.950 . S
C478 H460 0.951 . S
C478 C479 1.366 . S
C478 C480 1.388 . S
C479 C478 1.366 . S
C479 C483 1.385 1_556 S
C480 H461 0.951 . S
C480 C478 1.388 . S
C480 C481 1.366 1_556 S
C481 C480 1.366 1_554 S
C481 C482 1.414 . S
C481 C484 1.499 . S
C482 H462 0.950 . S
C482 C481 1.414 . S
C482 C483 1.374 . S
C483 H463 0.950 . S
C483 C479 1.385 1_554 S
C483 C482 1.374 . S
C484 C481 1.499 . S
C484 C485 1.373 1_554 S
C484 C486 1.389 . S
C485 H464 0.950 . S
C485 C484 1.373 1_556 S
C485 C501 1.377 . S
C486 C484 1.389 . S
C486 C487 1.524 . S
C486 C500 1.377 . S
C487 C486 1.524 . S
C487 C488 1.397 . S
C487 C492 1.363 1_554 S
C488 H465 0.950 . S
C488 C487 1.397 . S
C488 C489 1.334 . S
C489 H466 0.950 . S
C489 C488 1.334 . S
C489 C490 1.287 . S
C490 C489 1.287 . S
C490 C491 1.524 . S
C490 H509 0.913 . S
C491 H467 0.950 1_554 S
C491 C490 1.524 . S
C491 C492 1.415 1_554 S
C492 H468 0.950 . S
C492 C487 1.363 1_556 S
C492 C491 1.415 1_556 S
C493 H469 0.951 . S
C493 C494 1.366 . S
C493 C495 1.388 . S
C494 C493 1.366 . S
C494 C498 1.385 1_554 S
C495 H470 0.951 . S
C495 C493 1.388 . S
C495 C496 1.361 1_554 S
C496 C495 1.361 1_556 S
C496 C497 1.418 . S
C496 C499 1.499 . S
C497 H471 0.950 . S
C497 C496 1.418 . S
C497 C498 1.374 . S
C498 H472 0.950 . S
C498 C494 1.385 1_556 S
C498 C497 1.374 . S
C499 C496 1.499 . S
C499 C500 1.373 1_556 S
C499 C501 1.389 . S
C500 H473 0.950 . S
C500 C486 1.377 . S
C500 C499 1.373 1_554 S
C501 C485 1.377 . S
C501 C499 1.389 . S
C501 C502 1.524 . S
C502 C501 1.524 . S
C502 C503 1.397 . S
C502 C507 1.363 1_556 S
C503 H474 0.950 . S
C503 C502 1.397 . S
C503 C504 1.334 . S
C504 H475 0.950 . S
C504 C503 1.334 . S
C504 C505 1.287 . S
C505 C504 1.287 . S
C505 C506 1.524 . S
C505 H508 0.999 . S
C506 H476 0.950 1_556 S
C506 C505 1.524 . S
C506 C507 1.415 1_556 S
C507 H477 0.950 . S
C507 C502 1.363 1_554 S
C507 C506 1.415 1_554 S
H508 C505 0.999 . S
H509 C490 0.913 . S
C79 C18 1.496 . S
C94 C19 1.493 . S
C129 C38 1.482 . S
C144 C39 1.482 1_545 S
C179 C58 1.477 . S
C194 C59 1.477 . S
C229 C2 1.295 . S
C244 C52 1.346 . S
C279 C32 1.262 . S
C294 C12 1.260 . S
C329 C22 1.367 . S
C344 C44 1.371 1_554 S
C379 C4 1.295 . S
C394 C49 1.346 . S
C429 C9 1.260 . S
C444 C29 1.262 . S
C479 C42 1.370 1_556 S
C494 C24 1.367 . S
