# Generated by pormake.
# Topology fob, (5)-cn, num edge types: 1
# Building blocks:
#     Node 0, Type 0, BuildingBlock: XOMCOT_clean_sbu_1, # of connection points: 5
#     Node 1, Type 0, BuildingBlock: XOMCOT_clean_sbu_1, # of connection points: 5
#     Node 2, Type 0, BuildingBlock: XOMCOT_clean_sbu_1, # of connection points: 5
#     Node 3, Type 0, BuildingBlock: XOMCOT_clean_sbu_1, # of connection points: 5
#     Node 4, Type 0, BuildingBlock: XOMCOT_clean_sbu_1, # of connection points: 5
#     Node 5, Type 0, BuildingBlock: XOMCOT_clean_sbu_1, # of connection points: 5
#     Node 6, Type 0, BuildingBlock: XOMCOT_clean_sbu_1, # of connection points: 5
#     Node 7, Type 0, BuildingBlock: XOMCOT_clean_sbu_1, # of connection points: 5
#     Node 8, Type 0, BuildingBlock: XOMCOT_clean_sbu_1, # of connection points: 5
#     Node 9, Type 0, BuildingBlock: XOMCOT_clean_sbu_1, # of connection points: 5
#     Node 10, Type 0, BuildingBlock: XOMCOT_clean_sbu_1, # of connection points: 5
#     Node 11, Type 0, BuildingBlock: XOMCOT_clean_sbu_1, # of connection points: 5
#     Node 12, Type 0, BuildingBlock: XOMCOT_clean_sbu_1, # of connection points: 5
#     Node 13, Type 0, BuildingBlock: XOMCOT_clean_sbu_1, # of connection points: 5
#     Node 14, Type 0, BuildingBlock: XOMCOT_clean_sbu_1, # of connection points: 5
#     Node 15, Type 0, BuildingBlock: XOMCOT_clean_sbu_1, # of connection points: 5
#     Edge 16, Type (0, 0), BuildingBlock: KIFKEQ_clean_linker_1, # of connection points: 2
#     Edge 17, Type (0, 0), BuildingBlock: KIFKEQ_clean_linker_1, # of connection points: 2
#     Edge 18, Type (0, 0), BuildingBlock: KIFKEQ_clean_linker_1, # of connection points: 2
#     Edge 19, Type (0, 0), BuildingBlock: KIFKEQ_clean_linker_1, # of connection points: 2
#     Edge 20, Type (0, 0), BuildingBlock: KIFKEQ_clean_linker_1, # of connection points: 2
#     Edge 21, Type (0, 0), BuildingBlock: KIFKEQ_clean_linker_1, # of connection points: 2
#     Edge 22, Type (0, 0), BuildingBlock: KIFKEQ_clean_linker_1, # of connection points: 2
#     Edge 23, Type (0, 0), BuildingBlock: KIFKEQ_clean_linker_1, # of connection points: 2
#     Edge 24, Type (0, 0), BuildingBlock: KIFKEQ_clean_linker_1, # of connection points: 2
#     Edge 25, Type (0, 0), BuildingBlock: KIFKEQ_clean_linker_1, # of connection points: 2
#     Edge 26, Type (0, 0), BuildingBlock: KIFKEQ_clean_linker_1, # of connection points: 2
#     Edge 27, Type (0, 0), BuildingBlock: KIFKEQ_clean_linker_1, # of connection points: 2
#     Edge 28, Type (0, 0), BuildingBlock: KIFKEQ_clean_linker_1, # of connection points: 2
#     Edge 29, Type (0, 0), BuildingBlock: KIFKEQ_clean_linker_1, # of connection points: 2
#     Edge 30, Type (0, 0), BuildingBlock: KIFKEQ_clean_linker_1, # of connection points: 2
#     Edge 31, Type (0, 0), BuildingBlock: KIFKEQ_clean_linker_1, # of connection points: 2
#     Edge 32, Type (0, 0), BuildingBlock: KIFKEQ_clean_linker_1, # of connection points: 2
#     Edge 33, Type (0, 0), BuildingBlock: KIFKEQ_clean_linker_1, # of connection points: 2
#     Edge 34, Type (0, 0), BuildingBlock: KIFKEQ_clean_linker_1, # of connection points: 2
#     Edge 35, Type (0, 0), BuildingBlock: KIFKEQ_clean_linker_1, # of connection points: 2
#     Edge 36, Type (0, 0), BuildingBlock: KIFKEQ_clean_linker_1, # of connection points: 2
#     Edge 37, Type (0, 0), BuildingBlock: KIFKEQ_clean_linker_1, # of connection points: 2
#     Edge 38, Type (0, 0), BuildingBlock: KIFKEQ_clean_linker_1, # of connection points: 2
#     Edge 39, Type (0, 0), BuildingBlock: KIFKEQ_clean_linker_1, # of connection points: 2
#     Edge 40, Type (0, 0), BuildingBlock: KIFKEQ_clean_linker_1, # of connection points: 2
#     Edge 41, Type (0, 0), BuildingBlock: KIFKEQ_clean_linker_1, # of connection points: 2
#     Edge 42, Type (0, 0), BuildingBlock: KIFKEQ_clean_linker_1, # of connection points: 2
#     Edge 43, Type (0, 0), BuildingBlock: KIFKEQ_clean_linker_1, # of connection points: 2
#     Edge 44, Type (0, 0), BuildingBlock: KIFKEQ_clean_linker_1, # of connection points: 2
#     Edge 45, Type (0, 0), BuildingBlock: KIFKEQ_clean_linker_1, # of connection points: 2
#     Edge 46, Type (0, 0), BuildingBlock: KIFKEQ_clean_linker_1, # of connection points: 2
#     Edge 47, Type (0, 0), BuildingBlock: KIFKEQ_clean_linker_1, # of connection points: 2
#     Edge 48, Type (0, 0), BuildingBlock: KIFKEQ_clean_linker_1, # of connection points: 2
#     Edge 49, Type (0, 0), BuildingBlock: KIFKEQ_clean_linker_1, # of connection points: 2
#     Edge 50, Type (0, 0), BuildingBlock: KIFKEQ_clean_linker_1, # of connection points: 2
#     Edge 51, Type (0, 0), BuildingBlock: KIFKEQ_clean_linker_1, # of connection points: 2
#     Edge 52, Type (0, 0), BuildingBlock: KIFKEQ_clean_linker_1, # of connection points: 2
#     Edge 53, Type (0, 0), BuildingBlock: KIFKEQ_clean_linker_1, # of connection points: 2
#     Edge 54, Type (0, 0), BuildingBlock: KIFKEQ_clean_linker_1, # of connection points: 2
#     Edge 55, Type (0, 0), BuildingBlock: KIFKEQ_clean_linker_1, # of connection points: 2
# Relax obj value: 0.099
# Max RMSD: 0.148
# Mean RMSD: 0.148
data_MOF--net-fob--node1-XOMCOT_clean_sbu_1--edge1-KIFKEQ_clean_linker_1
_symmetry_space_group_name_H-M    P1
_symmetry_Int_Tables_number       1
_symmetry_cell_setting            triclinic
loop_
_symmetry_equiv_pos_as_xyz
'x, y, z'
_cell_length_a     25.655092
_cell_length_b     66.056027
_cell_length_c     51.917933
_cell_angle_alpha  99.68278
_cell_angle_beta   90.065578
_cell_angle_gamma 89.930339
loop_
_atom_site_label
_atom_site_type_symbol
_atom_site_fract_x
_atom_site_fract_y
_atom_site_fract_z
_atom_type_partial_charge
C0 C 0.08725 0.19948 0.48876 0.0
C1 C 0.10149 0.21952 0.48895 0.0
N2 N 0.15342 0.22022 0.48519 0.0
N3 N 0.12975 0.18738 0.48474 0.0
C4 C 0.16963 0.20043 0.48275 0.0
H5 H 0.0485 0.19415 0.49227 0.0
Co6 Co 0.1291 0.15922 0.48563 0.0
C7 C 0.19789 0.14029 0.44264 0.0
O8 O 0.16492 0.12496 0.43704 0.0
N9 N 0.12843 0.1308 0.4878 0.0
C10 C 0.15887 0.10091 0.49611 0.0
C11 C 0.17199 0.12018 0.49176 0.0
C12 C 0.08909 0.11752 0.49024 0.0
N13 N 0.10667 0.09925 0.4952 0.0
O14 O 0.1771 0.16306 0.51406 0.0
H15 H 0.21115 0.12626 0.49216 0.0
H16 H 0.04825 0.12132 0.48992 0.0
O17 O 0.18769 0.15509 0.46121 0.0
C18 C 0.16181 0.17184 0.53645 0.0
O19 O 0.11577 0.18069 0.5386 0.0
N20 N 0.07938 0.15582 0.45851 0.0
C21 C 0.99674 0.15434 0.42338 0.0
C22 C 0.04768 0.15752 0.41536 0.0
C23 C 0.08833 0.15888 0.43348 0.0
C24 C 0.02965 0.15359 0.46678 0.0
C25 C 0.98774 0.1526 0.44949 0.0
H26 H 0.12629 0.16327 0.42747 0.0
H27 H 0.02224 0.15342 0.48723 0.0
H28 H 0.20977 0.19551 0.48008 0.0
H29 H 0.07563 0.23263 0.49269 0.0
H30 H 0.18571 0.08915 0.50005 0.0
H31 H 0.05558 0.15991 0.39559 0.0
H32 H 0.94858 0.15083 0.45657 0.0
C33 C 0.08296 0.09623 0.74603 0.0
C34 C 0.09784 0.07615 0.74497 0.0
N35 N 0.14975 0.07563 0.74876 0.0
N36 N 0.12513 0.10846 0.75067 0.0
C37 C 0.16538 0.09547 0.75228 0.0
H38 H 0.04401 0.10152 0.74278 0.0
Co39 Co 0.12394 0.13665 0.75053 0.0
C40 C 0.19058 0.15526 0.79451 0.0
O41 O 0.15669 0.17031 0.80005 0.0
N42 N 0.12281 0.16516 0.74915 0.0
C43 C 0.15262 0.19555 0.74258 0.0
C44 C 0.16608 0.17597 0.74551 0.0
C45 C 0.0833 0.17862 0.74788 0.0
N46 N 0.10038 0.19729 0.74407 0.0
O47 O 0.17279 0.1334 0.72249 0.0
H48 H 0.20529 0.16986 0.74453 0.0
H49 H 0.04268 0.17488 0.74918 0.0
O50 O 0.18175 0.14063 0.77551 0.0
C51 C 0.15828 0.12482 0.69987 0.0
O52 O 0.11241 0.11588 0.69714 0.0
N53 N 0.07336 0.13941 0.77719 0.0
C54 C 0.98982 0.1401 0.81156 0.0
C55 C 0.0406 0.1369 0.81987 0.0
C56 C 0.08171 0.13592 0.8021 0.0
C57 C 0.02377 0.14154 0.76858 0.0
C58 C 0.98142 0.14216 0.78549 0.0
H59 H 0.11958 0.13152 0.80828 0.0
H60 H 0.01692 0.14205 0.74814 0.0
H61 H 0.20556 0.10039 0.75479 0.0
H62 H 0.07238 0.06292 0.74135 0.0
H63 H 0.17941 0.20731 0.73873 0.0
H64 H 0.04807 0.13425 0.83957 0.0
H65 H 0.94241 0.14396 0.77819 0.0
C66 C 0.91595 0.8756 0.4804 0.0
C67 C 0.90352 0.85505 0.47477 0.0
N68 N 0.86269 0.85158 0.48975 0.0
N69 N 0.88308 0.88514 0.49875 0.0
C70 C 0.85124 0.87009 0.50412 0.0
H71 H 0.94708 0.88313 0.47165 0.0
Co72 Co 0.88469 0.91326 0.512 0.0
C73 C 0.77729 0.92103 0.53002 0.0
O74 O 0.77398 0.93614 0.51654 0.0
N75 N 0.8881 0.94161 0.52506 0.0
C76 C 0.88581 0.97213 0.55094 0.0
C77 C 0.87103 0.95187 0.54825 0.0
C78 C 0.9137 0.95599 0.51423 0.0
N79 N 0.91266 0.9747 0.52947 0.0
O80 O 0.84656 0.91808 0.48231 0.0
H81 H 0.85011 0.94505 0.56269 0.0
H82 H 0.93498 0.95269 0.4961 0.0
O83 O 0.81962 0.91089 0.53011 0.0
C84 C 0.87154 0.92113 0.46224 0.0
O85 O 0.92267 0.92182 0.46298 0.0
N86 N 0.92417 0.90803 0.54017 0.0
C87 C 0.99405 0.89977 0.57797 0.0
C88 C 0.94126 0.90315 0.58411 0.0
C89 C 0.90657 0.90706 0.56477 0.0
C90 C 0.97547 0.90506 0.53403 0.0
C91 C 0.01111 0.90067 0.55259 0.0
H92 H 0.86597 0.90944 0.56978 0.0
H93 H 0.98861 0.90605 0.51449 0.0
H94 H 0.81969 0.87264 0.51797 0.0
H95 H 0.92342 0.84357 0.46091 0.0
H96 H 0.87782 0.98399 0.56754 0.0
H97 H 0.92691 0.90252 0.60358 0.0
H98 H 0.05177 0.89832 0.54728 0.0
C99 C 0.90522 0.93366 0.25665 0.0
C100 C 0.89131 0.95404 0.26068 0.0
N101 N 0.85165 0.95653 0.24441 0.0
N102 N 0.87455 0.92314 0.238 0.0
C103 C 0.84244 0.93749 0.23082 0.0
H104 H 0.9355 0.92687 0.26694 0.0
Co105 Co 0.87847 0.89469 0.22739 0.0
C106 C 0.77164 0.88548 0.20934 0.0
O107 O 0.76757 0.87202 0.22521 0.0
N108 N 0.88428 0.86601 0.2171 0.0
C109 C 0.88305 0.83401 0.19517 0.0
C110 C 0.86553 0.85376 0.19564 0.0
C111 C 0.91391 0.85334 0.22898 0.0
N112 N 0.91362 0.8337 0.21623 0.0
O113 O 0.84008 0.89136 0.25765 0.0
H114 H 0.84171 0.85882 0.18077 0.0
H115 H 0.93616 0.8585 0.24645 0.0
O116 O 0.81406 0.89532 0.20822 0.0
C117 C 0.86538 0.88954 0.27814 0.0
O118 O 0.91652 0.88935 0.27754 0.0
N119 N 0.91816 0.89843 0.19872 0.0
C120 C 0.98887 0.9035 0.15996 0.0
C121 C 0.93718 0.89813 0.15346 0.0
C122 C 0.90197 0.89586 0.17329 0.0
C123 C 0.96843 0.90344 0.20524 0.0
C124 C 0.00442 0.90633 0.18616 0.0
H125 H 0.86224 0.89171 0.16799 0.0
H126 H 0.98064 0.90506 0.22543 0.0
H127 H 0.81295 0.93407 0.21591 0.0
H128 H 0.90843 0.96596 0.27502 0.0
H129 H 0.87502 0.82106 0.17996 0.0
H130 H 0.92423 0.89579 0.13331 0.0
H131 H 0.04433 0.91026 0.19172 0.0
C132 C 0.0787 0.68266 -0.00039 0.0
C133 C 0.09294 0.70302 0.00396 0.0
N134 N 0.14072 0.70459 -0.00629 0.0
N135 N 0.1172 0.67142 0.98664 0.0
C136 C 0.15458 0.68516 0.98333 0.0
H137 H 0.0428 0.67635 0.00575 0.0
Co138 Co 0.11577 0.64298 0.97855 0.0
C139 C 0.17745 0.63268 0.9305 0.0
O140 O 0.14001 0.62007 0.92082 0.0
N141 N 0.11448 0.6137 0.97153 0.0
C142 C 0.14326 0.58142 0.96779 0.0
C143 C 0.15712 0.60149 0.96766 0.0
C144 C 0.07551 0.60055 0.97494 0.0
N145 N 0.09184 0.58086 0.97256 0.0
O146 O 0.16467 0.64183 0.00594 0.0
H147 H 0.19661 0.60695 0.96641 0.0
H148 H 0.03657 0.60528 0.98083 0.0
O149 O 0.17326 0.64305 0.95357 0.0
C150 C 0.14647 0.63523 0.02572 0.0
O151 O 0.09771 0.62916 0.02544 0.0
N152 N 0.06489 0.64516 0.95282 0.0
C153 C 0.98471 0.64854 0.91745 0.0
C154 C 0.03417 0.65663 0.91397 0.0
C155 C 0.0733 0.65531 0.9323 0.0
C156 C 0.01558 0.63935 0.95796 0.0
C157 C 0.97523 0.6403 0.94018 0.0
H158 H 0.11024 0.6626 0.92997 0.0
H159 H 0.00687 0.63471 0.9764 0.0
H160 H 0.19182 0.68097 0.97419 0.0
H161 H 0.06982 0.71569 0.01387 0.0
H162 H 0.16967 0.56849 0.96633 0.0
H163 H 0.04272 0.66386 0.89722 0.0
H164 H 0.93664 0.63516 0.94453 0.0
C165 C 0.08546 0.61101 0.23792 0.0
C166 C 0.09798 0.59047 0.23368 0.0
N167 N 0.14627 0.58829 0.24316 0.0
N168 N 0.12547 0.62184 0.25005 0.0
C169 C 0.16212 0.60763 0.2529 0.0
H170 H 0.04941 0.61769 0.2325 0.0
Co171 Co 0.12403 0.6503 0.25945 0.0
C172 C 0.22847 0.65949 0.28049 0.0
O173 O 0.23412 0.67264 0.26432 0.0
N174 N 0.12059 0.67907 0.26871 0.0
C175 C 0.11923 0.71073 0.29151 0.0
C176 C 0.13383 0.69072 0.29169 0.0
C177 C 0.097 0.69231 0.25517 0.0
N178 N 0.09573 0.71175 0.26852 0.0
O179 O 0.16588 0.65254 0.22985 0.0
H180 H 0.15124 0.68494 0.30799 0.0
H181 H 0.07844 0.68758 0.23648 0.0
O182 O 0.18602 0.64948 0.28068 0.0
C183 C 0.14024 0.65349 0.20916 0.0
O184 O 0.08911 0.65271 0.20977 0.0
N185 N 0.08039 0.64785 0.28717 0.0
C186 C 0.0036 0.64472 0.32405 0.0
C187 C 0.05554 0.63959 0.32867 0.0
C188 C 0.09356 0.64111 0.30977 0.0
C189 C 0.0303 0.65287 0.2824 0.0
C190 C 0.99131 0.65151 0.3006 0.0
H191 H 0.13311 0.6366 0.31321 0.0
H192 H 0.02069 0.65791 0.2642 0.0
H193 H 0.1994 0.61135 0.26221 0.0
H194 H 0.07351 0.57817 0.224 0.0
H195 H 0.12472 0.72341 0.3074 0.0
H196 H 0.06639 0.63402 0.34639 0.0
H197 H 0.95187 0.65582 0.29637 0.0
C198 C 0.89672 0.35815 0.97636 0.0
C199 C 0.88314 0.33773 0.97252 0.0
N200 N 0.8424 0.33546 0.98815 0.0
N201 N 0.86484 0.36882 -0.00568 0.0
C202 C 0.83217 0.35456 0.00119 0.0
H203 H 0.92791 0.36484 0.9666 0.0
Co204 Co 0.86939 0.39716 0.00535 0.0
C205 C 0.76382 0.40728 0.02412 0.0
O206 O 0.76106 0.42128 0.00894 0.0
N207 N 0.87583 0.42571 0.01615 0.0
C208 C 0.87519 0.45745 0.03889 0.0
C209 C 0.85863 0.43758 0.03827 0.0
C210 C 0.9038 0.43869 0.00404 0.0
N211 N 0.90372 0.45815 0.01729 0.0
O212 O 0.83043 0.4011 0.97543 0.0
H213 H 0.83615 0.43221 0.05335 0.0
H214 H 0.92575 0.43384 0.98638 0.0
O215 O 0.80521 0.39666 0.02473 0.0
C216 C 0.85526 0.4031 0.95489 0.0
O217 O 0.90643 0.40264 0.95507 0.0
N218 N 0.9097 0.39293 0.03367 0.0
C219 C 0.98202 0.38765 0.07178 0.0
C220 C 0.92997 0.39214 0.07859 0.0
C221 C 0.89397 0.39453 0.05907 0.0
C222 C 0.96023 0.38874 0.02685 0.0
C223 C 0.99702 0.38579 0.04558 0.0
H224 H 0.85401 0.39803 0.0646 0.0
H225 H 0.97201 0.38789 0.0067 0.0
H226 H 0.80192 0.35801 0.0157 0.0
H227 H 0.90133 0.32558 0.95891 0.0
H228 H 0.86687 0.47032 0.05416 0.0
H229 H 0.91732 0.39371 0.09873 0.0
H230 H 0.03712 0.38257 0.03974 0.0
C231 C 0.91906 0.42366 0.74696 0.0
C232 C 0.90579 0.44415 0.75181 0.0
N233 N 0.85599 0.44603 0.74421 0.0
N234 N 0.87804 0.41267 0.73615 0.0
C235 C 0.84005 0.42667 0.73491 0.0
H236 H 0.95628 0.41714 0.751 0.0
Co237 Co 0.8771 0.38431 0.72613 0.0
C238 C 0.81195 0.37807 0.67845 0.0
O239 O 0.84668 0.36528 0.66624 0.0
N240 N 0.87598 0.35518 0.71697 0.0
C241 C 0.84646 0.32292 0.7096 0.0
C242 C 0.83346 0.34325 0.71066 0.0
C243 C 0.9137 0.3416 0.72073 0.0
N244 N 0.89695 0.32195 0.71617 0.0
O245 O 0.82812 0.3827 0.75317 0.0
H246 H 0.79443 0.34895 0.70858 0.0
H247 H 0.95176 0.34592 0.72851 0.0
O248 O 0.81954 0.38653 0.70216 0.0
C249 C 0.84268 0.37458 0.77249 0.0
O250 O 0.8894 0.36641 0.77231 0.0
N251 N 0.92773 0.38693 0.70052 0.0
C252 C 0.0089 0.39317 0.66697 0.0
C253 C 0.95925 0.40125 0.66389 0.0
C254 C 0.91968 0.39849 0.68133 0.0
C255 C 0.97682 0.38039 0.70494 0.0
C256 C 0.0177 0.38287 0.68807 0.0
H257 H 0.88314 0.40633 0.67986 0.0
H258 H 0.98526 0.37425 0.72242 0.0
H259 H 0.80162 0.42276 0.72704 0.0
H260 H 0.93072 0.45664 0.76056 0.0
H261 H 0.81998 0.31 0.70608 0.0
H262 H 0.9516 0.41037 0.64879 0.0
H263 H 0.05603 0.37712 0.69183 0.0
C264 C 0.58566 0.18232 0.00021 0.0
C265 C 0.59962 0.20271 0.00409 0.0
N266 N 0.64742 0.20425 -0.00619 0.0
N267 N 0.62429 0.17101 0.98747 0.0
C268 C 0.66152 0.18475 0.98388 0.0
H269 H 0.54967 0.17607 0.00633 0.0
Co270 Co 0.62287 0.14256 0.97919 0.0
C271 C 0.68273 0.13282 0.9304 0.0
O272 O 0.64517 0.12025 0.92074 0.0
N273 N 0.62175 0.1133 0.97192 0.0
C274 C 0.65081 0.08099 0.96685 0.0
C275 C 0.66427 0.10112 0.9669 0.0
C276 C 0.58342 0.10008 0.97597 0.0
N277 N 0.59994 0.08039 0.97275 0.0
O278 O 0.67299 0.1412 0.00602 0.0
H279 H 0.70352 0.1066 0.96492 0.0
H280 H 0.54492 0.1047 0.98281 0.0
O281 O 0.67916 0.14287 0.95367 0.0
C282 C 0.65468 0.13475 0.0259 0.0
O283 O 0.60535 0.12944 0.02596 0.0
N284 N 0.57065 0.14482 0.95406 0.0
C285 C 0.48828 0.1484 0.91992 0.0
C286 C 0.53754 0.15637 0.9157 0.0
C287 C 0.57774 0.15501 0.93347 0.0
C288 C 0.52174 0.13896 0.95983 0.0
C289 C 0.48025 0.14009 0.94273 0.0
H290 H 0.61436 0.16239 0.93073 0.0
H291 H 0.51425 0.13406 0.97824 0.0
H292 H 0.69866 0.1805 0.97468 0.0
H293 H 0.57606 0.21542 0.01351 0.0
H294 H 0.67715 0.06799 0.96439 0.0
H295 H 0.54463 0.16403 0.89916 0.0
H296 H 0.44229 0.13454 0.94739 0.0
C297 C 0.58608 0.10909 0.24044 0.0
C298 C 0.59962 0.08868 0.2375 0.0
N299 N 0.65013 0.08738 0.24424 0.0
N300 N 0.62763 0.12067 0.24924 0.0
C301 C 0.66629 0.10705 0.25114 0.0
H302 H 0.54832 0.11517 0.23643 0.0
Co303 Co 0.62729 0.14921 0.25589 0.0
C304 C 0.6901 0.16027 0.30345 0.0
O305 O 0.65322 0.17331 0.31276 0.0
N306 N 0.62725 0.1785 0.26146 0.0
C307 C 0.65778 0.21038 0.26354 0.0
C308 C 0.67053 0.19035 0.26471 0.0
C309 C 0.58902 0.1918 0.25736 0.0
N310 N 0.60636 0.21128 0.2588 0.0
O311 O 0.67556 0.14928 0.22798 0.0
H312 H 0.7097 0.18465 0.26641 0.0
H313 H 0.55023 0.18721 0.25099 0.0
O314 O 0.68531 0.14944 0.28069 0.0
C315 C 0.65598 0.15507 0.20792 0.0
O316 O 0.60662 0.16044 0.20826 0.0
N317 N 0.57689 0.14823 0.28233 0.0
C318 C 0.49752 0.14586 0.31849 0.0
C319 C 0.54678 0.13744 0.32172 0.0
C320 C 0.58545 0.13828 0.30304 0.0
C321 C 0.52777 0.15459 0.27764 0.0
C322 C 0.48789 0.15412 0.29579 0.0
H323 H 0.62211 0.13069 0.30519 0.0
H324 H 0.5186 0.15916 0.25921 0.0
H325 H 0.70533 0.11146 0.25771 0.0
H326 H 0.57438 0.0758 0.23053 0.0
H327 H 0.68477 0.2231 0.26518 0.0
H328 H 0.55547 0.13023 0.33848 0.0
H329 H 0.44943 0.15956 0.29165 0.0
C330 C 0.42059 0.85459 0.00311 0.0
C331 C 0.40598 0.8344 0.00125 0.0
N332 N 0.35348 0.83348 0.00223 0.0
N333 N 0.37772 0.86653 0.00564 0.0
C334 C 0.33739 0.85328 0.0049 0.0
H335 H 0.46004 0.8602 0.00234 0.0
Co336 Co 0.37759 0.89483 0.00691 0.0
C337 C 0.30294 0.91147 0.04773 0.0
O338 O 0.33679 0.92603 0.05616 0.0
N339 N 0.37719 0.9237 0.00705 0.0
C340 C 0.34684 0.95392 -2e-05 0.0
C341 C 0.33399 0.93411 0.00202 0.0
C342 C 0.41609 0.93764 0.00752 0.0
N343 N 0.39866 0.9562 0.00337 0.0
O344 O 0.33582 0.89116 0.97623 0.0
H345 H 0.2955 0.92746 -0.00102 0.0
H346 H 0.45665 0.93423 0.00993 0.0
O347 O 0.31445 0.89753 0.02835 0.0
C348 C 0.35906 0.89501 0.95604 0.0
O349 O 0.40774 0.90123 0.95787 0.0
N350 N 0.42184 0.89743 0.03625 0.0
C351 C 0.49713 0.89678 0.07478 0.0
C352 C 0.4451 0.89235 0.07953 0.0
C353 C 0.40833 0.89202 0.05966 0.0
C354 C 0.47286 0.90077 0.031 0.0
C355 C 0.51117 0.90076 0.05009 0.0
H356 H 0.36973 0.88652 0.06289 0.0
H357 H 0.48429 0.90247 0.01145 0.0
H358 H 0.29703 0.85809 0.0055 0.0
H359 H 0.43234 0.82144 -0.00068 0.0
H360 H 0.32021 0.96539 -0.00496 0.0
H361 H 0.43349 0.88818 0.09801 0.0
H362 H 0.55147 0.90346 0.04547 0.0
C363 C 0.41916 0.9233 0.74702 0.0
C364 C 0.40556 0.94372 0.75259 0.0
N365 N 0.3573 0.94587 0.74314 0.0
N366 N 0.37988 0.91257 0.73398 0.0
C367 C 0.34255 0.92672 0.73206 0.0
H368 H 0.45552 0.91667 0.7521 0.0
Co369 Co 0.38218 0.88437 0.722 0.0
C370 C 0.27625 0.87531 0.70324 0.0
O371 O 0.27386 0.86053 0.71727 0.0
N372 N 0.38627 0.85596 0.71014 0.0
C373 C 0.38761 0.82515 0.68512 0.0
C374 C 0.37401 0.84544 0.68633 0.0
C375 C 0.40769 0.84177 0.72288 0.0
N376 N 0.40897 0.82279 0.70819 0.0
O377 O 0.34392 0.88012 0.75186 0.0
H378 H 0.35751 0.85216 0.67055 0.0
H379 H 0.42306 0.84541 0.74241 0.0
O380 O 0.31774 0.88591 0.70318 0.0
C381 C 0.37095 0.87858 0.77191 0.0
O382 O 0.42196 0.87992 0.77073 0.0
N383 N 0.42228 0.88886 0.69378 0.0
C384 C 0.49478 0.89504 0.65591 0.0
C385 C 0.44101 0.89506 0.65058 0.0
C386 C 0.40522 0.89214 0.66991 0.0
C387 C 0.47403 0.88871 0.69932 0.0
C388 C 0.51091 0.89202 0.68085 0.0
H389 H 0.36415 0.8923 0.66542 0.0
H390 H 0.48663 0.88613 0.7184 0.0
H391 H 0.30556 0.92316 0.7224 0.0
H392 H 0.42922 0.95598 0.76303 0.0
H393 H 0.38367 0.81331 0.66812 0.0
H394 H 0.42653 0.89704 0.63157 0.0
H395 H 0.55167 0.89239 0.68631 0.0
C396 C 0.58692 0.70181 0.48545 0.0
C397 C 0.60293 0.72171 0.48615 0.0
N398 N 0.65542 0.72198 0.48508 0.0
N399 N 0.62893 0.6894 0.48365 0.0
C400 C 0.67023 0.70211 0.48346 0.0
H401 H 0.54711 0.69679 0.48687 0.0
Co402 Co 0.62613 0.66137 0.48506 0.0
C403 C 0.6966 0.64136 0.44358 0.0
O404 O 0.66218 0.6266 0.4374 0.0
N405 N 0.6235 0.6331 0.48779 0.0
C406 C 0.65221 0.60292 0.49585 0.0
C407 C 0.66635 0.62217 0.49201 0.0
C408 C 0.58345 0.62009 0.48997 0.0
N409 N 0.59991 0.60156 0.49469 0.0
O410 O 0.67211 0.66513 0.51424 0.0
H411 H 0.70582 0.62796 0.49262 0.0
H412 H 0.5429 0.62425 0.48937 0.0
O413 O 0.68649 0.65645 0.46179 0.0
C414 C 0.65609 0.67395 0.53645 0.0
O415 O 0.61052 0.68318 0.5381 0.0
N416 N 0.57834 0.658 0.45693 0.0
C417 C 0.4999 0.65589 0.41935 0.0
C418 C 0.55169 0.65931 0.41286 0.0
C419 C 0.59011 0.66101 0.43216 0.0
C420 C 0.52765 0.65574 0.46379 0.0
C421 C 0.48776 0.65447 0.44525 0.0
H422 H 0.62874 0.66547 0.42721 0.0
H423 H 0.51784 0.65573 0.48402 0.0
H424 H 0.71033 0.69699 0.48329 0.0
H425 H 0.57766 0.73498 0.4876 0.0
H426 H 0.67868 0.59091 0.49935 0.0
H427 H 0.56198 0.6615 0.39328 0.0
H428 H 0.44781 0.65259 0.45115 0.0
C429 C 0.57683 0.59505 0.74582 0.0
C430 C 0.59216 0.57504 0.74505 0.0
N431 N 0.64421 0.57468 0.74848 0.0
N432 N 0.61885 0.60739 0.74992 0.0
C433 C 0.65945 0.59456 0.75148 0.0
H434 H 0.53762 0.60021 0.74287 0.0
Co435 Co 0.61747 0.63558 0.74973 0.0
C436 C 0.68507 0.65416 0.79331 0.0
O437 O 0.65146 0.66927 0.79916 0.0
N438 N 0.61636 0.66409 0.74835 0.0
C439 C 0.64689 0.69444 0.74205 0.0
C440 C 0.65987 0.67479 0.74474 0.0
C441 C 0.57713 0.67771 0.74721 0.0
N442 N 0.59472 0.69635 0.74361 0.0
O443 O 0.6658 0.63232 0.72151 0.0
H444 H 0.69896 0.66856 0.74371 0.0
H445 H 0.53638 0.67412 0.74849 0.0
O446 O 0.67562 0.63954 0.7744 0.0
C447 C 0.6509 0.62395 0.69887 0.0
O448 O 0.60506 0.61499 0.69622 0.0
N449 N 0.56741 0.6384 0.77662 0.0
C450 C 0.48455 0.63922 0.81141 0.0
C451 C 0.53545 0.63592 0.81946 0.0
C452 C 0.57623 0.63489 0.80149 0.0
C453 C 0.51771 0.64067 0.76827 0.0
C454 C 0.47568 0.64134 0.7854 0.0
H455 H 0.6142 0.63044 0.80747 0.0
H456 H 0.51049 0.64126 0.74789 0.0
H457 H 0.69956 0.59961 0.75367 0.0
H458 H 0.56682 0.56176 0.74198 0.0
H459 H 0.6739 0.70617 0.73829 0.0
H460 H 0.54327 0.63324 0.83912 0.0
H461 H 0.43655 0.64323 0.77829 0.0
C462 C 0.42397 0.37344 0.49841 0.0
C463 C 0.41171 0.35291 0.49505 0.0
N464 N 0.35991 0.35105 0.49845 0.0
N465 N 0.38037 0.38463 0.50425 0.0
C466 C 0.34189 0.3706 0.50397 0.0
H467 H 0.46228 0.3798 0.49647 0.0
Co468 Co 0.3771 0.4132 0.50919 0.0
C469 C 0.30329 0.42541 0.55247 0.0
O470 O 0.33369 0.44096 0.56171 0.0
N471 N 0.37371 0.44234 0.51313 0.0
C472 C 0.34143 0.47326 0.5104 0.0
C473 C 0.32959 0.453 0.51038 0.0
C474 C 0.41196 0.45661 0.51437 0.0
N475 N 0.39343 0.47557 0.51279 0.0
O476 O 0.332 0.41124 0.47979 0.0
H477 H 0.2912 0.44625 0.50743 0.0
H478 H 0.45283 0.45316 0.51539 0.0
O479 O 0.31659 0.41301 0.53189 0.0
C480 C 0.35084 0.41741 0.45986 0.0
O481 O 0.39838 0.42489 0.46098 0.0
N482 N 0.42441 0.41423 0.53712 0.0
C483 C 0.50523 0.41083 0.57236 0.0
C484 C 0.45353 0.40651 0.57836 0.0
C485 C 0.41409 0.40758 0.56014 0.0
C486 C 0.47452 0.41792 0.53065 0.0
C487 C 0.51539 0.41653 0.548 0.0
H488 H 0.37608 0.40201 0.56425 0.0
H489 H 0.48322 0.42085 0.51124 0.0
H490 H 0.3013 0.37472 0.50703 0.0
H491 H 0.43918 0.34039 0.49051 0.0
H492 H 0.31392 0.48509 0.50747 0.0
H493 H 0.4435 0.40173 0.59667 0.0
H494 H 0.55478 0.41897 0.54175 0.0
C495 C 0.40811 0.4343 0.24257 0.0
C496 C 0.39442 0.45468 0.24596 0.0
N497 N 0.344 0.45605 0.23907 0.0
N498 N 0.36682 0.42275 0.23336 0.0
C499 C 0.32816 0.43638 0.23146 0.0
H500 H 0.44577 0.42821 0.24672 0.0
Co501 Co 0.36874 0.39424 0.22768 0.0
C502 C 0.298 0.38041 0.18381 0.0
O503 O 0.33394 0.36714 0.17395 0.0
N504 N 0.37112 0.36503 0.22316 0.0
C505 C 0.34422 0.33317 0.22472 0.0
C506 C 0.32881 0.353 0.22424 0.0
C507 C 0.41192 0.35204 0.22372 0.0
N508 N 0.39663 0.33255 0.22455 0.0
O509 O 0.32488 0.39444 0.25721 0.0
H510 H 0.28905 0.35852 0.226 0.0
H511 H 0.4521 0.35679 0.2249 0.0
O512 O 0.30684 0.39271 0.20518 0.0
C513 C 0.346 0.38857 0.27684 0.0
O514 O 0.39495 0.38262 0.27537 0.0
N515 N 0.41466 0.39506 0.19957 0.0
C516 C 0.4904 0.39875 0.16193 0.0
C517 C 0.43811 0.40378 0.15806 0.0
C518 C 0.40143 0.40265 0.17753 0.0
C519 C 0.46571 0.39155 0.20452 0.0
C520 C 0.50411 0.39302 0.1859 0.0
H521 H 0.36271 0.40835 0.17493 0.0
H522 H 0.47711 0.38845 0.22351 0.0
H523 H 0.28892 0.43195 0.22528 0.0
H524 H 0.41991 0.46749 0.25287 0.0
H525 H 0.31874 0.32048 0.22674 0.0
H526 H 0.42525 0.40872 0.14025 0.0
H527 H 0.54429 0.39025 0.19067 0.0
H528 H 0.2575 0.22509 0.49531 0.0
H529 H 0.12019 0.25738 0.47584 0.0
H530 H 0.30794 0.25672 0.49822 0.0
H531 H 0.17034 0.28889 0.47923 0.0
H532 H 0.26291 0.34568 0.51764 0.0
H533 H 0.21376 0.31377 0.51366 0.0
H534 H 0.34045 0.28118 0.47036 0.0
H535 H 0.38931 0.31301 0.47382 0.0
C536 C 0.23805 0.2388 0.49142 0.0
C537 C 0.18444 0.23858 0.48557 0.0
C538 C 0.267 0.25698 0.49316 0.0
C539 C 0.24303 0.27539 0.48923 0.0
C540 C 0.18978 0.27509 0.48292 0.0
C541 C 0.16098 0.25695 0.48099 0.0
C542 C 0.28025 0.33182 0.50703 0.0
C543 C 0.33039 0.33212 0.49611 0.0
C544 C 0.25201 0.31347 0.50479 0.0
C545 C 0.27322 0.2949 0.49173 0.0
C546 C 0.32328 0.29515 0.48088 0.0
C547 C 0.35136 0.31349 0.48293 0.0
H548 H 0.95297 1.0052 0.56535 0.0
H549 H 0.92958 0.98624 0.48246 0.0
H550 H 0.9972 0.03616 0.55713 0.0
H551 H 0.97448 1.0172 0.47418 0.0
H552 H 0.01374 0.08601 0.47378 0.0
H553 H 0.96384 0.05607 0.48206 0.0
H554 H 0.08172 0.04359 0.53672 0.0
H555 H 0.13099 0.0734 0.52862 0.0
C556 C 0.9569 1.00771 0.54538 0.0
C557 C 0.93782 0.99322 0.52456 0.0
C558 C 0.98262 0.02538 0.54065 0.0
C559 C 0.98945 0.0291 0.515 0.0
C560 C 0.96952 1.01483 0.49417 0.0
C561 C 0.94428 0.99701 0.49889 0.0
C562 C 0.02864 0.07691 0.48768 0.0
C563 C 0.07637 0.08201 0.50046 0.0
C564 C 0.00037 0.05971 0.49226 0.0
C565 C 0.01887 0.04747 0.51005 0.0
C566 C 0.06621 0.05278 0.52306 0.0
C567 C 0.09469 0.06976 0.51823 0.0
H568 H 0.13136 0.03828 0.71992 0.0
H569 H 0.24023 0.07165 0.77464 0.0
H570 H 0.18234 1.00715 0.71879 0.0
H571 H 0.29134 0.04025 0.77389 0.0
H572 H 0.39611 0.98432 0.74549 0.0
H573 H 0.34704 1.0161 0.74693 0.0
H574 H 0.20301 0.98205 0.74524 0.0
H575 H 0.25219 0.95029 0.74347 0.0
C576 C 0.16597 0.03892 0.73195 0.0
C577 C 0.18144 0.05743 0.74758 0.0
C578 C 0.19524 1.02102 0.73135 0.0
C579 C 0.24074 1.02106 0.74646 0.0
C580 C 0.25678 0.03967 0.7618 0.0
C581 C 0.22752 0.05767 0.76228 0.0
C582 C 0.35398 0.98364 0.74564 0.0
C583 C 0.32813 0.96471 0.7443 0.0
C584 C 0.32579 1.00189 0.74651 0.0
C585 C 0.27099 1.0017 0.74613 0.0
C586 C 0.24517 0.98277 0.74505 0.0
C587 C 0.27336 0.96452 0.74405 0.0
H588 H 0.9701 0.31975 0.75323 0.0
H589 H 0.88715 0.28334 0.68942 0.0
H590 H 0.01745 0.2894 0.76093 0.0
H591 H 0.93553 0.25288 0.69655 0.0
H592 H 0.99745 0.19857 0.73093 0.0
H593 H 0.94687 0.22866 0.72526 0.0
H594 H 0.08357 0.26664 0.74286 0.0
H595 H 0.13314 0.23691 0.75012 0.0
C596 C 0.96254 0.30528 0.74059 0.0
C597 C 0.92521 0.30396 0.72057 0.0
C598 C 0.98971 0.28783 0.74498 0.0
C599 C 0.98068 0.26862 0.72928 0.0
C600 C 0.94305 0.26731 0.7093 0.0
C601 C 0.91546 0.28476 0.7051 0.0
C602 C 0.01666 0.21334 0.734 0.0
C603 C 0.06971 0.21513 0.74097 0.0
C604 C 0.98769 0.23063 0.73038 0.0
C605 C 0.01102 0.25016 0.73351 0.0
C606 C 0.06394 0.25195 0.7406 0.0
C607 C 0.09273 0.23474 0.74441 0.0
H608 H 0.85758 0.81886 0.45033 0.0
H609 H 0.80723 0.84032 0.52957 0.0
H610 H 0.81041 0.78684 0.45012 0.0
H611 H 0.76024 0.8083 0.52941 0.0
H612 H 0.63146 0.76076 0.50826 0.0
H613 H 0.68376 0.79146 0.50958 0.0
H614 H 0.80736 0.75518 0.46831 0.0
H615 H 0.75371 0.72431 0.46611 0.0
C616 C 0.83703 0.81668 0.46784 0.0
C617 C 0.83608 0.83231 0.48992 0.0
C618 C 0.80999 0.79826 0.46773 0.0
C619 C 0.78128 0.79496 0.4897 0.0
C620 C 0.78113 0.81043 0.51195 0.0
C621 C 0.80809 0.82885 0.51205 0.0
C622 C 0.66955 0.75926 0.49924 0.0
C623 C 0.68805 0.74001 0.48683 0.0
C624 C 0.69996 0.7769 0.50033 0.0
C625 C 0.74992 0.77587 0.4891 0.0
C626 C 0.76885 0.75659 0.47695 0.0
C627 C 0.73833 0.73885 0.4759 0.0
H628 H 0.75493 0.96068 0.224 0.0
H629 H 0.88477 0.99567 0.26129 0.0
H630 H 0.70766 0.99239 0.22269 0.0
H631 H 0.83634 0.02722 0.2613 0.0
H632 H 0.75419 0.08211 0.23621 0.0
H633 H 0.80386 0.05039 0.23476 0.0
H634 H 0.66321 1.01882 0.25088 0.0
H635 H 0.61379 0.05038 0.25179 0.0
C636 C 0.77363 0.97506 0.23188 0.0
C637 C 0.82387 0.97541 0.24288 0.0
C638 C 0.7461 0.99332 0.23143 0.0
C639 C 0.76786 1.01247 0.24208 0.0
C640 C 0.81836 1.01284 0.25269 0.0
C641 C 0.84599 0.99461 0.253 0.0
C642 C 0.73403 0.06841 0.23959 0.0
C643 C 0.67997 0.06879 0.24402 0.0
C644 C 0.76248 0.05019 0.23878 0.0
C645 C 0.73765 0.03191 0.24259 0.0
C646 C 0.68362 0.03241 0.24727 0.0
C647 C 0.65519 0.05056 0.24789 0.0
H648 H 0.89412 0.79313 0.19896 0.0
H649 H 0.99595 0.83413 0.24973 0.0
H650 H 0.93973 0.7638 0.21102 0.0
H651 H 0.04058 0.80473 0.26206 0.0
H652 H 0.06426 0.74695 0.29989 0.0
H653 H 0.0217 0.77646 0.28673 0.0
H654 H 0.02675 0.74667 0.20614 0.0
H655 H 0.07038 0.71718 0.21913 0.0
C656 C 0.92637 0.79601 0.2125 0.0
C657 C 0.94098 0.81622 0.2233 0.0
C658 C 0.95253 0.77911 0.21944 0.0
C659 C 0.99374 0.78191 0.23753 0.0
C660 C 0.00851 0.80204 0.24833 0.0
C661 C 0.98266 0.81895 0.24125 0.0
C662 C 0.0571 0.74667 0.27931 0.0
C663 C 0.071 0.72948 0.26064 0.0
C664 C 0.0325 0.76366 0.27177 0.0
C665 C 0.02076 0.76393 0.24539 0.0
C666 C 0.03464 0.74684 0.22668 0.0
C667 C 0.05963 0.72988 0.23418 0.0
H668 H 0.25191 0.83069 0.01672 0.0
H669 H 0.38243 0.79419 0.98283 0.0
H670 H 0.19931 0.79974 0.01338 0.0
H671 H 0.33099 0.7633 0.98098 0.0
H672 H 0.21147 0.71273 0.9581 0.0
H673 H 0.2614 0.74427 0.95911 0.0
H674 H 0.189 0.76985 0.03256 0.0
H675 H 0.13843 0.73853 0.03109 0.0
C676 C 0.26956 0.81615 0.00856 0.0
C677 C 0.32179 0.81513 0.00017 0.0
C678 C 0.23947 0.79829 0.00693 0.0
C679 C 0.2608 0.77889 -0.003 0.0
C680 C 0.31285 0.77791 0.98844 0.0
C681 C 0.34278 0.79574 0.9899 0.0
C682 C 0.20648 0.72507 0.97449 0.0
C683 C 0.1709 0.72312 -0.00553 0.0
C684 C 0.23515 0.74318 0.97513 0.0
C685 C 0.22936 0.75973 -0.00407 0.0
C686 C 0.19385 0.75767 0.01595 0.0
C687 C 0.16489 0.73965 0.01518 0.0
H688 H 0.93283 0.46388 0.96867 0.0
H689 H 0.9343 0.49273 0.0498 0.0
H690 H 0.97707 0.49367 0.9569 0.0
H691 H 0.97798 0.52249 0.03797 0.0
H692 H 0.0086 0.58087 0.0049 0.0
H693 H 0.96134 0.55113 0.01466 0.0
H694 H 0.06219 0.51107 0.96237 0.0
H695 H 0.10857 0.54094 0.95199 0.0
C696 C 0.94285 0.47646 0.98405 0.0
C697 C 0.92986 0.47581 0.01023 0.0
C698 C 0.96817 0.49358 0.97726 0.0
C699 C 0.98093 0.5105 -0.00353 0.0
C700 C 0.96792 0.50987 0.02262 0.0
C701 C 0.9428 0.49275 0.02941 0.0
C702 C 0.02024 0.56578 -0.00487 0.0
C703 C 0.06241 0.56332 0.9776 0.0
C704 C 0.99351 0.54869 0.001 0.0
C705 C 0.00814 0.5287 0.98941 0.0
C706 C 0.04967 0.52624 0.9715 0.0
C707 C 0.07657 0.54335 0.96573 0.0
H708 H 0.25129 0.58304 0.24579 0.0
H709 H 0.10541 0.54998 0.23993 0.0
H710 H 0.29832 0.55084 0.2448 0.0
H711 H 0.15242 0.51785 0.23884 0.0
H712 H 0.25838 0.46212 0.21029 0.0
H713 H 0.21012 0.49415 0.21123 0.0
H714 H 0.31321 0.52448 0.27138 0.0
H715 H 0.36111 0.49263 0.27049 0.0
C716 C 0.22913 0.56898 0.2445 0.0
C717 C 0.1744 0.56923 0.24288 0.0
C718 C 0.25615 0.55047 0.24391 0.0
C719 C 0.2292 0.53169 0.24168 0.0
C720 C 0.17453 0.53195 0.24012 0.0
C721 C 0.14752 0.55044 0.24075 0.0
C722 C 0.27044 0.47556 0.22387 0.0
C723 C 0.31399 0.47474 0.24015 0.0
C724 C 0.24279 0.49395 0.22441 0.0
C725 C 0.25798 0.51198 0.24125 0.0
C726 C 0.30104 0.51105 0.25776 0.0
C727 C 0.32857 0.49271 0.25725 0.0
H728 H 0.6409 0.23976 0.02855 0.0
H729 H 0.72093 0.21117 0.9587 0.0
H730 H 0.68869 0.27145 0.02781 0.0
H731 H 0.76857 0.24297 0.95777 0.0
H732 H 0.88127 0.29672 0.97828 0.0
H733 H 0.83498 0.26485 0.98011 0.0
H734 H 0.69491 0.29936 0.00375 0.0
H735 H 0.74147 0.33126 0.00212 0.0
C736 C 0.66839 0.24026 0.01289 0.0
C737 C 0.67686 0.22288 -0.00637 0.0
C738 C 0.69582 0.25849 0.01244 0.0
C739 C 0.73244 0.25987 -0.00732 0.0
C740 C 0.74124 0.24242 0.97352 0.0
C741 C 0.71389 0.22415 0.97402 0.0
C742 C 0.84053 0.29753 0.98373 0.0
C743 C 0.81514 0.31661 0.98998 0.0
C744 C 0.8139 0.27921 0.98474 0.0
C745 C 0.76106 0.27945 0.99199 0.0
C746 C 0.73576 0.29856 -0.00154 0.0
C747 C 0.76248 0.3169 -0.00248 0.0
H748 H 0.73705 0.57171 0.77287 0.0
H749 H 0.62461 0.53655 0.72196 0.0
H750 H 0.78936 0.54067 0.77253 0.0
H751 H 0.67661 0.50576 0.72142 0.0
H752 H 0.75098 0.45043 0.74796 0.0
H753 H 0.70086 0.48192 0.74946 0.0
H754 H 0.84336 0.51589 0.74476 0.0
H755 H 0.89349 0.48436 0.74344 0.0
C756 C 0.72373 0.55742 0.76144 0.0
C757 C 0.67635 0.55661 0.74767 0.0
C758 C 0.75368 0.53962 0.76123 0.0
C759 C 0.73699 0.52062 0.74715 0.0
C760 C 0.6901 0.51997 0.733 0.0
C761 C 0.66022 0.53768 0.73329 0.0
C762 C 0.77164 0.46457 0.74707 0.0
C763 C 0.82632 0.46479 0.74548 0.0
C764 C 0.74288 0.48267 0.74792 0.0
C765 C 0.76799 0.50149 0.74711 0.0
C766 C 0.82272 0.50175 0.74578 0.0
C767 C 0.85151 0.48364 0.745 0.0
H768 H 0.61116 0.04127 0.94803 0.0
H769 H 0.52404 0.07936 0.00876 0.0
H770 H 0.56318 1.01115 0.95631 0.0
H771 H 0.47695 0.04931 0.01767 0.0
H772 H 0.36406 0.99553 0.00803 0.0
H773 H 0.41272 0.02536 0.00037 0.0
H774 H 0.552 0.98829 0.98652 0.0
H775 H 0.50249 0.95811 -0.00746 0.0
C776 C 0.58197 0.04314 0.96329 0.0
C777 C 0.57112 0.06269 0.97759 0.0
C778 C 0.55462 0.02588 0.96817 0.0
C779 C 0.51607 0.02771 0.98771 0.0
C780 C 0.50557 0.0473 0.00214 0.0
C781 C 0.53257 0.06458 -0.00295 0.0
C782 C 0.40491 0.9936 0.0031 0.0
C783 C 0.42893 0.97421 0.00069 0.0
C784 C 0.43313 1.01087 -0.00095 0.0
C785 C 0.48643 1.00933 -0.00726 0.0
C786 C 0.51084 0.99005 0.99092 0.0
C787 C 0.48247 0.97271 -0.00523 0.0
H788 H 0.49309 0.33328 0.24661 0.0
H789 H 0.37313 0.29225 0.21034 0.0
H790 H 0.54453 0.30391 0.25452 0.0
H791 H 0.42449 0.26288 0.21834 0.0
H792 H 0.5022 0.21759 0.26451 0.0
H793 H 0.45237 0.24698 0.25526 0.0
H794 H 0.59376 0.27444 0.23214 0.0
H795 H 0.64353 0.24506 0.24124 0.0
C796 C 0.47794 0.31802 0.23997 0.0
C797 C 0.42876 0.31519 0.22788 0.0
C798 C 0.50744 0.30115 0.24457 0.0
C799 C 0.48851 0.28102 0.23723 0.0
C800 C 0.43981 0.27818 0.22471 0.0
C801 C 0.41038 0.29503 0.22008 0.0
C802 C 0.52264 0.2298 0.25725 0.0
C803 C 0.57697 0.22887 0.25364 0.0
C804 C 0.49405 0.24666 0.25193 0.0
C805 C 0.51903 0.26307 0.2429 0.0
C806 C 0.57336 0.26221 0.2394 0.0
C807 C 0.60195 0.24533 0.24468 0.0
H808 H 0.47282 0.8196 0.74954 0.0
H809 H 0.39698 0.78338 0.68279 0.0
H810 H 0.51266 0.78888 0.76013 0.0
H811 H 0.43964 0.75279 0.69265 0.0
H812 H 0.49321 0.69802 0.72838 0.0
H813 H 0.44443 0.72846 0.7219 0.0
H814 H 0.58032 0.76594 0.74424 0.0
H815 H 0.62781 0.73588 0.75211 0.0
C816 C 0.46429 0.8052 0.73705 0.0
C817 C 0.4316 0.80429 0.71507 0.0
C818 C 0.48787 0.78748 0.74303 0.0
C819 C 0.47996 0.7683 0.72712 0.0
C820 C 0.4464 0.76724 0.7055 0.0
C821 C 0.42241 0.78495 0.69962 0.0
C822 C 0.51243 0.71278 0.73234 0.0
C823 C 0.56471 0.71437 0.74066 0.0
C824 C 0.4846 0.73025 0.7283 0.0
C825 C 0.50838 0.74972 0.73244 0.0
C826 C 0.56036 0.7513 0.74115 0.0
C827 C 0.58798 0.73392 0.74531 0.0
H828 H 0.5006 0.59259 0.47797 0.0
H829 H 0.62786 0.57069 0.52054 0.0
H830 H 0.44963 0.56237 0.48336 0.0
H831 H 0.57742 0.54049 0.52538 0.0
H832 H 0.49587 0.47834 0.49981 0.0
H833 H 0.54452 0.5093 0.4964 0.0
H834 H 0.40729 0.54599 0.51833 0.0
H835 H 0.35853 0.51505 0.52235 0.0
C836 C 0.51764 0.5815 0.48864 0.0
C837 C 0.56869 0.58411 0.49859 0.0
C838 C 0.48841 0.56415 0.49169 0.0
C839 C 0.50968 0.54896 0.50461 0.0
C840 C 0.56029 0.55172 0.5149 0.0
C841 C 0.58929 0.56907 0.51203 0.0
C842 C 0.47599 0.49294 0.50432 0.0
C843 C 0.42298 0.49402 0.5114 0.0
C844 C 0.50399 0.51074 0.50226 0.0
C845 C 0.47974 0.5301 0.50705 0.0
C846 C 0.42689 0.53127 0.51417 0.0
C847 C 0.39894 0.51348 0.51645 0.0
H848 H 0.23311 0.11053 0.40374 0.0
H849 H 0.26758 0.17186 0.44379 0.0
H850 H 0.3071 0.11216 0.37491 0.0
H851 H 0.3423 0.17334 0.41502 0.0
H852 H 0.42823 0.1762 0.33717 0.0
H853 H 0.35764 0.17493 0.36836 0.0
H854 H 0.4027 0.11314 0.37575 0.0
H855 H 0.47225 0.11418 0.34402 0.0
C856 C 0.25667 0.12432 0.40652 0.0
C857 C 0.24435 0.14109 0.42602 0.0
C858 C 0.2993 0.12519 0.39008 0.0
C859 C 0.33054 0.14287 0.3927 0.0
C860 C 0.3186 0.15959 0.41237 0.0
C861 C 0.27601 0.15869 0.42893 0.0
C862 C 0.42288 0.16232 0.34539 0.0
C863 C 0.4557 0.14528 0.33808 0.0
C864 C 0.38285 0.16168 0.36346 0.0
C865 C 0.37463 0.14394 0.37451 0.0
C866 C 0.40779 0.12696 0.3674 0.0
C867 C 0.44794 0.12764 0.34941 0.0
H868 H 0.69157 0.16545 0.35619 0.0
H869 H 0.78952 0.1488 0.2884 0.0
H870 H 0.76533 0.16248 0.38456 0.0
H871 H 0.86489 0.14704 0.31685 0.0
H872 H 0.98258 0.12989 0.37605 0.0
H873 H 0.9081 0.12971 0.34653 0.0
H874 H 0.83964 0.18015 0.39984 0.0
H875 H 0.91238 0.17931 0.42968 0.0
C876 C 0.72923 0.16134 0.34739 0.0
C877 C 0.73509 0.15754 0.32016 0.0
C878 C 0.77173 0.15979 0.36366 0.0
C879 C 0.82158 0.15491 0.35312 0.0
C880 C 0.82714 0.15067 0.32573 0.0
C881 C 0.78411 0.15177 0.30939 0.0
C882 C 0.95127 0.14082 0.38131 0.0
C883 C 0.95263 0.15446 0.40514 0.0
C884 C 0.90878 0.14085 0.36439 0.0
C885 C 0.86736 0.1548 0.3708 0.0
C886 C 0.86981 0.16875 0.39449 0.0
C887 C 0.91165 0.16842 0.41157 0.0
H888 H 0.21746 0.18305 0.83737 0.0
H889 H 0.26645 0.12563 0.79096 0.0
H890 H 0.29012 0.18136 0.86704 0.0
H891 H 0.33911 0.12386 0.821 0.0
H892 H 0.49265 0.13996 0.86661 0.0
H893 H 0.42183 0.14176 0.83556 0.0
H894 H 0.31565 0.1603 0.89973 0.0
H895 H 0.38659 0.15906 0.93069 0.0
C896 C 0.24374 0.17006 0.83346 0.0
C897 C 0.23604 0.15444 0.81183 0.0
C898 C 0.28523 0.16904 0.85058 0.0
C899 C 0.32011 0.15242 0.84646 0.0
C900 C 0.31305 0.13695 0.82457 0.0
C901 C 0.27134 0.13792 0.80744 0.0
C902 C 0.45424 0.14456 0.87404 0.0
C903 C 0.44519 0.14938 0.90109 0.0
C904 C 0.41362 0.14539 0.85628 0.0
C905 C 0.36321 0.15118 0.86521 0.0
C906 C 0.3542 0.15598 0.89225 0.0
C907 C 0.39471 0.15507 0.90999 0.0
H908 H 0.9049 0.11548 0.80418 0.0
H909 H 0.97535 0.16387 0.85927 0.0
H910 H 0.83177 0.11435 0.83365 0.0
H911 H 0.90059 0.16376 0.88843 0.0
H912 H 0.78234 0.14369 0.94561 0.0
H913 H 0.85753 0.14579 0.91732 0.0
H914 H 0.75753 0.13193 0.84947 0.0
H915 H 0.6838 0.12862 0.87768 0.0
C916 C 0.90415 0.12609 0.82253 0.0
C917 C 0.94535 0.13983 0.82949 0.0
C918 C 0.8621 0.12558 0.8394 0.0
C919 C 0.8597 0.13914 0.86341 0.0
C920 C 0.90126 0.15291 0.87032 0.0
C921 C 0.94392 0.1531 0.8536 0.0
C922 C 0.77675 0.14114 0.92462 0.0
C923 C 0.72759 0.13573 0.91377 0.0
C924 C 0.8197 0.14245 0.90838 0.0
C925 C 0.81396 0.13877 0.88098 0.0
C926 C 0.76402 0.13421 0.87036 0.0
C927 C 0.72155 0.13247 0.88654 0.0
H928 H 0.48685 0.91907 0.61751 0.0
H929 H 0.59212 0.87786 0.64839 0.0
H930 H 0.55161 0.92409 0.58511 0.0
H931 H 0.65843 0.88459 0.61804 0.0
H932 H 0.75676 0.88535 0.54783 0.0
H933 H 0.68564 0.87818 0.57554 0.0
H934 H 0.62954 0.94044 0.57934 0.0
H935 H 0.69887 0.94697 0.54983 0.0
C936 C 0.5237 0.91106 0.61747 0.0
C937 C 0.53404 0.8981 0.63578 0.0
C938 C 0.56134 0.91425 0.59911 0.0
C939 C 0.61065 0.90485 0.59887 0.0
C940 C 0.62079 0.89186 0.61716 0.0
C941 C 0.58286 0.88832 0.63507 0.0
C942 C 0.72895 0.89742 0.55433 0.0
C943 C 0.73336 0.91669 0.54658 0.0
C944 C 0.68827 0.8934 0.57052 0.0
C945 C 0.6518 0.90877 0.58006 0.0
C946 C 0.65615 0.92806 0.57211 0.0
C947 C 0.69617 0.93189 0.55532 0.0
H948 H 0.19629 0.8492 0.68637 0.0
H949 H 0.25667 0.90958 0.6819 0.0
H950 H 0.12485 0.85483 0.65708 0.0
H951 H 0.18449 0.91529 0.65319 0.0
H952 H 0.01297 0.92295 0.62552 0.0
H953 H 0.07962 0.91702 0.65741 0.0
H954 H 0.12569 0.86106 0.60709 0.0
H955 H 0.05989 0.86722 0.57501 0.0
C956 C 0.19401 0.86373 0.67937 0.0
C957 C 0.23201 0.87896 0.68643 0.0
C958 C 0.1533 0.86689 0.6626 0.0
C959 C 0.14933 0.88549 0.65307 0.0
C960 C 0.18662 0.90089 0.66052 0.0
C961 C 0.22794 0.89757 0.67684 0.0
C962 C 0.03714 0.90933 0.62147 0.0
C963 C 0.03163 0.89553 0.59792 0.0
C964 C 0.07523 0.906 0.63956 0.0
C965 C 0.1075 0.8886 0.63459 0.0
C966 C 0.10097 0.87452 0.61137 0.0
C967 C 0.06365 0.87807 0.59305 0.0
H968 H 0.69328 0.85841 0.19313 0.0
H969 H 0.75462 0.91759 0.18346 0.0
H970 H 0.62576 0.86149 0.16056 0.0
H971 H 0.68605 0.9208 0.15161 0.0
H972 H 0.5001 0.91848 0.12417 0.0
H973 H 0.56619 0.91625 0.15795 0.0
H974 H 0.64837 0.86995 0.10468 0.0
H975 H 0.58327 0.87255 0.07067 0.0
C976 C 0.69193 0.87217 0.18437 0.0
C977 C 0.72913 0.88779 0.1909 0.0
C978 C 0.65352 0.87386 0.16575 0.0
C979 C 0.65111 0.89138 0.15387 0.0
C980 C 0.68736 0.90721 0.16073 0.0
C981 C 0.72647 0.90533 0.1789 0.0
C982 C 0.53246 0.90792 0.11976 0.0
C983 C 0.53707 0.89575 0.09494 0.0
C984 C 0.57 0.90667 0.13895 0.0
C985 C 0.61177 0.89289 0.1337 0.0
C986 C 0.6162 0.88062 0.109 0.0
C987 C 0.57933 0.88218 0.08964 0.0
H988 H 0.04271 0.93769 0.15445 0.0
H989 H 0.02214 0.87402 0.12052 0.0
H990 H 0.11418 0.94047 0.12432 0.0
H991 H 0.09572 0.87623 0.09123 0.0
H992 H 0.21451 0.88982 0.03133 0.0
H993 H 0.13294 0.88903 0.05547 0.0
H994 H 0.20072 0.92956 0.12106 0.0
H995 H 0.28042 0.93108 0.09661 0.0
C996 C 0.05354 0.92434 0.14033 0.0
C997 C 0.02745 0.90566 0.13968 0.0
C998 C 0.09472 0.92581 0.12325 0.0
C999 C 0.1115 0.90846 0.10564 0.0
C1000 C 0.08369 0.88995 0.10433 0.0
C1001 C 0.04173 0.88862 0.12112 0.0
C1002 C 0.2116 0.89862 0.05086 0.0
C1003 C 0.25364 0.9106 0.06204 0.0
C1004 C 0.16501 0.89812 0.06474 0.0
C1005 C 0.15993 0.90938 0.09017 0.0
C1006 C 0.20244 0.92115 0.10129 0.0
C1007 C 0.24848 0.92189 0.08732 0.0
H1008 H 0.27707 0.64359 0.94583 0.0
H1009 H 0.17899 0.62816 0.87779 0.0
H1010 H 0.35254 0.64543 0.91759 0.0
H1011 H 0.25292 0.6312 0.84964 0.0
H1012 H 0.39991 0.61446 0.80448 0.0
H1013 H 0.32705 0.61342 0.83412 0.0
H1014 H 0.39598 0.66311 0.88843 0.0
H1015 H 0.47053 0.66312 0.85909 0.0
C1016 C 0.27165 0.6409 0.92484 0.0
C1017 C 0.22253 0.63546 0.91393 0.0
C1018 C 0.31474 0.64206 0.90862 0.0
C1019 C 0.30919 0.63818 0.88121 0.0
C1020 C 0.25929 0.63361 0.87055 0.0
C1021 C 0.21669 0.63202 0.88669 0.0
C1022 C 0.39926 0.62514 0.82277 0.0
C1023 C 0.44039 0.63894 0.82952 0.0
C1024 C 0.35736 0.62469 0.83974 0.0
C1025 C 0.35502 0.63838 0.86364 0.0
C1026 C 0.39658 0.65218 0.87039 0.0
C1027 C 0.43912 0.65231 0.85357 0.0
H1028 H 0.71986 0.68393 0.83226 0.0
H1029 H 0.75513 0.62268 0.79209 0.0
H1030 H 0.79396 0.68236 0.86114 0.0
H1031 H 0.82993 0.62126 0.82091 0.0
H1032 H 0.91514 0.61836 0.89898 0.0
H1033 H 0.84456 0.61968 0.86774 0.0
H1034 H 0.88987 0.68138 0.8602 0.0
H1035 H 0.9595 0.68028 0.89198 0.0
C1036 C 0.74361 0.67017 0.82948 0.0
C1037 C 0.73152 0.6534 0.80994 0.0
C1038 C 0.78629 0.66934 0.84593 0.0
C1039 C 0.81774 0.65169 0.84328 0.0
C1040 C 0.80605 0.63498 0.82356 0.0
C1041 C 0.76342 0.63585 0.80698 0.0
C1042 C 0.90982 0.63223 0.89073 0.0
C1043 C 0.94272 0.64924 0.89799 0.0
C1044 C 0.86983 0.6329 0.87263 0.0
C1045 C 0.86174 0.65063 0.86152 0.0
C1046 C 0.89492 0.66757 0.86861 0.0
C1047 C 0.93506 0.66687 0.88662 0.0
H1048 H 0.24724 0.62734 0.3062 0.0
H1049 H 0.30021 0.68839 0.29987 0.0
H1050 H 0.31311 0.62549 0.34008 0.0
H1051 H 0.36463 0.68667 0.33422 0.0
H1052 H 0.41463 0.68052 0.42105 0.0
H1053 H 0.34843 0.68073 0.38692 0.0
H1054 H 0.42541 0.62971 0.33905 0.0
H1055 H 0.49263 0.62989 0.37288 0.0
C1056 C 0.2729 0.64032 0.31204 0.0
C1057 C 0.26883 0.65797 0.30035 0.0
C1058 C 0.31046 0.63923 0.33132 0.0
C1059 C 0.34349 0.65597 0.33965 0.0
C1060 C 0.33933 0.67362 0.32808 0.0
C1061 C 0.30272 0.67453 0.30839 0.0
C1062 C 0.41709 0.66929 0.4033 0.0
C1063 C 0.45845 0.65518 0.39947 0.0
C1064 C 0.37951 0.66946 0.38383 0.0
C1065 C 0.38212 0.65522 0.36054 0.0
C1066 C 0.42269 0.64076 0.35696 0.0
C1067 C 0.461 0.64091 0.37617 0.0
H1068 H 0.73258 0.61019 0.40688 0.0
H1069 H 0.77086 0.67146 0.44587 0.0
H1070 H 0.81011 0.6098 0.37995 0.0
H1071 H 0.84828 0.67118 0.41841 0.0
H1072 H 0.00578 0.65659 0.37725 0.0
H1073 H 0.93445 0.65479 0.40813 0.0
H1074 H 0.83572 0.62716 0.34435 0.0
H1075 H 0.907 0.62838 0.31386 0.0
C1076 C 0.75756 0.62359 0.40972 0.0
C1077 C 0.74529 0.64094 0.42833 0.0
C1078 C 0.80195 0.62337 0.39422 0.0
C1079 C 0.83506 0.64052 0.39688 0.0
C1080 C 0.82373 0.65766 0.41605 0.0
C1081 C 0.77924 0.65787 0.43166 0.0
C1082 C 0.969 0.64988 0.36998 0.0
C1083 C 0.96183 0.64272 0.34315 0.0
C1084 C 0.92808 0.64904 0.38758 0.0
C1085 C 0.87946 0.64086 0.37867 0.0
C1086 C 0.87283 0.63335 0.3519 0.0
C1087 C 0.9135 0.63424 0.33438 0.0
H1088 H 0.57856 0.37521 0.15086 0.0
H1089 H 0.49383 0.42543 0.12646 0.0
H1090 H 0.64453 0.37783 0.11832 0.0
H1091 H 0.55637 0.42639 0.092 0.0
H1092 H 0.70303 0.43814 0.0489 0.0
H1093 H 0.63842 0.43635 0.08264 0.0
H1094 H 0.6642 0.37079 0.07468 0.0
H1095 H 0.73155 0.37312 0.0424 0.0
C1096 C 0.5737 0.38677 0.13855 0.0
C1097 C 0.53047 0.40008 0.1415 0.0
C1098 C 0.61121 0.388 0.11941 0.0
C1099 C 0.60596 0.40223 0.10221 0.0
C1100 C 0.5625 0.41542 0.10503 0.0
C1101 C 0.52574 0.41456 0.1246 0.0
C1102 C 0.69455 0.42337 0.05436 0.0
C1103 C 0.72211 0.40576 0.0431 0.0
C1104 C 0.65726 0.42227 0.07363 0.0
C1105 C 0.64567 0.4034 0.08156 0.0
C1106 C 0.6727 0.3857 0.06968 0.0
C1107 C 0.71102 0.38694 0.05094 0.0
H1108 H 0.04385 0.35471 0.07371 0.0
H1109 H 0.00932 0.41571 0.11423 0.0
H1110 H 0.11646 0.35228 0.10333 0.0
H1111 H 0.08379 0.4139 0.14324 0.0
H1112 H 0.2058 0.39864 0.20169 0.0
H1113 H 0.12439 0.39927 0.17719 0.0
H1114 H 0.2003 0.36637 0.10827 0.0
H1115 H 0.28 0.36499 0.13287 0.0
C1116 C 0.05186 0.36754 0.08914 0.0
C1117 C 0.02149 0.38541 0.09174 0.0
C1118 C 0.09366 0.36628 0.10596 0.0
C1119 C 0.10674 0.38307 0.12537 0.0
C1120 C 0.07472 0.40064 0.12866 0.0
C1121 C 0.0322 0.40173 0.11205 0.0
C1122 C 0.20476 0.39152 0.18131 0.0
C1123 C 0.24905 0.38162 0.16924 0.0
C1124 C 0.15825 0.39192 0.16725 0.0
C1125 C 0.15548 0.38263 0.14081 0.0
C1126 C 0.20034 0.37313 0.12877 0.0
C1127 C 0.24633 0.37249 0.14285 0.0
H1128 H 0.80323 0.37713 0.6261 0.0
H1129 H 0.71819 0.39236 0.6986 0.0
H1130 H 0.72781 0.38713 0.60219 0.0
H1131 H 0.64213 0.40177 0.67438 0.0
H1132 H 0.51289 0.38215 0.605 0.0
H1133 H 0.58596 0.37621 0.63273 0.0
H1134 H 0.67135 0.42532 0.60707 0.0
H1135 H 0.59705 0.43245 0.58051 0.0
C1136 C 0.76833 0.3825 0.63688 0.0
C1137 C 0.76629 0.3839 0.66415 0.0
C1138 C 0.72551 0.38833 0.62324 0.0
C1139 C 0.67967 0.39521 0.63659 0.0
C1140 C 0.67733 0.39651 0.66381 0.0
C1141 C 0.72065 0.39115 0.67756 0.0
C1142 C 0.54637 0.39218 0.60574 0.0
C1143 C 0.54873 0.40785 0.59039 0.0
C1144 C 0.58832 0.38862 0.62152 0.0
C1145 C 0.63386 0.40031 0.62184 0.0
C1146 C 0.63644 0.41608 0.60692 0.0
C1147 C 0.59404 0.42 0.59158 0.0
H1148 H 0.10852 0.40495 0.68051 0.0
H1149 H 0.00636 0.38991 0.61382 0.0
H1150 H 0.17863 0.41222 0.65181 0.0
H1151 H 0.07633 0.39775 0.58512 0.0
H1152 H 0.23533 0.39312 0.54152 0.0
H1153 H 0.16363 0.38465 0.56874 0.0
H1154 H 0.19645 0.43905 0.62514 0.0
H1155 H 0.2682 0.44742 0.59826 0.0
C1156 C 0.10119 0.40303 0.65969 0.0
C1157 C 0.052 0.39683 0.64939 0.0
C1158 C 0.14114 0.40743 0.6433 0.0
C1159 C 0.13278 0.40568 0.61627 0.0
C1160 C 0.08391 0.39912 0.60587 0.0
C1161 C 0.04382 0.3948 0.6223 0.0
C1162 C 0.22704 0.40332 0.55966 0.0
C1163 C 0.25764 0.42088 0.56781 0.0
C1164 C 0.18591 0.3985 0.57518 0.0
C1165 C 0.17482 0.4111 0.59915 0.0
C1166 C 0.2047 0.42887 0.60698 0.0
C1167 C 0.24561 0.43372 0.59147 0.0
H1168 H 0.15267 0.10331 0.65048 0.0
H1169 H 0.2239 0.1568 0.69627 0.0
H1170 H 0.17723 0.11562 0.6105 0.0
H1171 H 0.24751 0.16933 0.65617 0.0
H1172 H 0.22773 0.14006 0.54096 0.0
H1173 H 0.24955 0.12764 0.58139 0.0
H1174 H 0.17666 0.18123 0.62603 0.0
H1175 H 0.15387 0.19345 0.5857 0.0
C1176 C 0.17503 0.11736 0.65197 0.0
C1177 C 0.18562 0.12924 0.67645 0.0
C1178 C 0.18938 0.12436 0.62909 0.0
C1179 C 0.21383 0.14353 0.63031 0.0
C1180 C 0.22852 0.15454 0.65475 0.0
C1181 C 0.21505 0.14733 0.67768 0.0
C1182 C 0.21792 0.14954 0.55941 0.0
C1183 C 0.18825 0.16756 0.56021 0.0
C1184 C 0.23037 0.14239 0.58252 0.0
C1185 C 0.2144 0.15339 0.60675 0.0
C1186 C 0.18976 0.1725 0.60762 0.0
C1187 C 0.17644 0.17945 0.58453 0.0
H1188 H 0.79625 0.89409 0.4425 0.0
H1189 H 0.88982 0.94428 0.42497 0.0
H1190 H 0.77075 0.88563 0.39637 0.0
H1191 H 0.86265 0.93639 0.37924 0.0
H1192 H 0.79781 0.91945 0.29865 0.0
H1193 H 0.77591 0.9289 0.34517 0.0
H1194 H 0.85373 0.87431 0.3609 0.0
H1195 H 0.87752 0.86542 0.3148 0.0
C1196 C 0.80928 0.90387 0.429 0.0
C1197 C 0.84512 0.91974 0.43699 0.0
C1198 C 0.7947 0.89904 0.40274 0.0
C1199 C 0.81458 0.91046 0.3845 0.0
C1200 C 0.84627 0.92758 0.39309 0.0
C1201 C 0.86205 0.93202 0.41912 0.0
C1202 C 0.80824 0.90911 0.31197 0.0
C1203 C 0.83927 0.89176 0.30347 0.0
C1204 C 0.79577 0.9145 0.33844 0.0
C1205 C 0.81294 0.90223 0.35637 0.0
C1206 C 0.83943 0.88381 0.3473 0.0
C1207 C 0.85323 0.87877 0.32105 0.0
H1208 H 0.15383 0.60686 0.0573 0.0
H1209 H 0.20163 0.66818 0.0498 0.0
H1210 H 0.17794 0.61337 0.10341 0.0
H1211 H 0.22432 0.67501 0.09639 0.0
H1212 H 0.11676 0.67881 0.17526 0.0
H1213 H 0.14524 0.6755 0.12994 0.0
H1214 H 0.248 0.62586 0.14106 0.0
H1215 H 0.22055 0.62975 0.187 0.0
C1216 C 0.17153 0.62144 0.06537 0.0
C1217 C 0.17576 0.63706 0.05026 0.0
C1218 C 0.18558 0.62515 0.09168 0.0
C1219 C 0.20272 0.64472 0.1034 0.0
C1220 C 0.21143 0.65977 0.08769 0.0
C1221 C 0.19858 0.65586 0.06112 0.0
C1222 C 0.14688 0.66773 0.16823 0.0
C1223 C 0.16637 0.65445 0.18431 0.0
C1224 C 0.16352 0.66594 0.14242 0.0
C1225 C 0.19887 0.65045 0.13209 0.0
C1226 C 0.22105 0.63803 0.14871 0.0
C1227 C 0.20538 0.64023 0.17486 0.0
H1228 H 0.77159 0.37999 0.93595 0.0
H1229 H 0.87908 0.42581 0.91793 0.0
H1230 H 0.74151 0.3739 0.89038 0.0
H1231 H 0.84799 0.4203 0.87289 0.0
H1232 H 0.7892 0.40895 0.79355 0.0
H1233 H 0.76723 0.41878 0.83988 0.0
H1234 H 0.80971 0.35811 0.85313 0.0
H1235 H 0.83308 0.34854 0.80718 0.0
C1236 C 0.78706 0.38934 0.92249 0.0
C1237 C 0.82791 0.40319 0.93011 0.0
C1238 C 0.76985 0.38589 0.89655 0.0
C1239 C 0.79236 0.39669 0.87826 0.0
C1240 C 0.82949 0.41198 0.88669 0.0
C1241 C 0.84763 0.41501 0.91234 0.0
C1242 C 0.79156 0.39747 0.80618 0.0
C1243 C 0.81338 0.37809 0.79708 0.0
C1244 C 0.77905 0.40311 0.83261 0.0
C1245 C 0.78707 0.38922 0.84997 0.0
C1246 C 0.80272 0.36903 0.84009 0.0
C1247 C 0.81641 0.36358 0.81387 0.0
H1248 H 0.65298 0.18267 0.1752 0.0
H1249 H 0.72337 0.12523 0.18552 0.0
H1250 H 0.68104 0.17714 0.12982 0.0
H1251 H 0.75089 0.11938 0.13958 0.0
H1252 H 0.65321 0.10678 0.05816 0.0
H1253 H 0.68172 0.11216 0.1035 0.0
H1254 H 0.75055 0.17009 0.09401 0.0
H1255 H 0.72255 0.16441 0.04815 0.0
C1256 C 0.67614 0.16919 0.1679 0.0
C1257 C 0.68556 0.15424 0.18357 0.0
C1258 C 0.69265 0.16609 0.14198 0.0
C1259 C 0.71785 0.14775 0.13112 0.0
C1260 C 0.73152 0.13365 0.14752 0.0
C1261 C 0.71588 0.13699 0.17373 0.0
C1262 C 0.67634 0.12025 0.06549 0.0
C1263 C 0.68523 0.13531 0.04994 0.0
C1264 C 0.69307 0.12327 0.0914 0.0
C1265 C 0.71798 0.14164 0.10234 0.0
C1266 C 0.73138 0.15581 0.08601 0.0
C1267 C 0.71548 0.15256 0.05983 0.0
H1268 H 0.40184 0.85408 0.80565 0.0
H1269 H 0.28577 0.89904 0.79409 0.0
H1270 H 0.3733 0.85589 0.8508 0.0
H1271 H 0.25831 0.90146 0.83985 0.0
H1272 H 0.31153 0.86062 0.93075 0.0
H1273 H 0.29155 0.85338 0.88377 0.0
H1274 H 0.32962 0.91603 0.87759 0.0
H1275 H 0.35139 0.92293 0.92403 0.0
C1276 C 0.36923 0.86391 0.81267 0.0
C1277 C 0.3462 0.87656 0.79674 0.0
C1278 C 0.35255 0.8648 0.83835 0.0
C1279 C 0.31357 0.87877 0.84865 0.0
C1280 C 0.28807 0.89044 0.83216 0.0
C1281 C 0.30383 0.8891 0.80615 0.0
C1282 C 0.3136 0.87296 0.91942 0.0
C1283 C 0.33323 0.89224 0.93059 0.0
C1284 C 0.30216 0.86884 0.8927 0.0
C1285 C 0.30897 0.88418 0.87725 0.0
C1286 C 0.32339 0.90405 0.88918 0.0
C1287 C 0.33619 0.90797 0.91562 0.0
H1288 H 0.64461 0.69455 0.58614 0.0
H1289 H 0.7222 0.64225 0.54096 0.0
H1290 H 0.66594 0.68164 0.62622 0.0
H1291 H 0.74231 0.62912 0.58109 0.0
H1292 H 0.71627 0.65612 0.69583 0.0
H1293 H 0.73881 0.66947 0.65617 0.0
H1294 H 0.66772 0.61644 0.60944 0.0
H1295 H 0.64393 0.60333 0.64903 0.0
C1296 C 0.66757 0.68064 0.58483 0.0
C1297 C 0.68096 0.66925 0.56042 0.0
C1298 C 0.68003 0.6733 0.60778 0.0
C1299 C 0.70535 0.6543 0.60664 0.0
C1300 C 0.72262 0.64378 0.58241 0.0
C1301 C 0.7111 0.65133 0.55948 0.0
C1302 C 0.7069 0.64698 0.67709 0.0
C1303 C 0.67751 0.62884 0.6755 0.0
C1304 C 0.71978 0.65466 0.65443 0.0
C1305 C 0.70466 0.64405 0.62985 0.0
C1306 C 0.68015 0.62486 0.62817 0.0
C1307 C 0.6663 0.6174 0.65082 0.0
H1308 H 0.35503 0.36294 0.31196 0.0
H1309 H 0.27672 0.41799 0.29815 0.0
H1310 H 0.32867 0.37002 0.35761 0.0
H1311 H 0.25105 0.42539 0.34429 0.0
H1312 H 0.35275 0.44285 0.42429 0.0
H1313 H 0.32389 0.43492 0.37905 0.0
H1314 H 0.25786 0.37783 0.39374 0.0
H1315 H 0.286 0.38608 0.4395 0.0
C1316 C 0.33068 0.37621 0.3186 0.0
C1317 C 0.31854 0.39012 0.30186 0.0
C1318 C 0.31511 0.38016 0.34464 0.0
C1319 C 0.28812 0.39832 0.35446 0.0
C1320 C 0.27179 0.41128 0.33711 0.0
C1321 C 0.28648 0.40707 0.31081 0.0
C1322 C 0.33044 0.42896 0.41805 0.0
C1323 C 0.32223 0.41489 0.43506 0.0
C1324 C 0.31339 0.42452 0.39226 0.0
C1325 C 0.28888 0.40571 0.38292 0.0
C1326 C 0.2766 0.39245 0.40056 0.0
C1327 C 0.29271 0.39714 0.42663 0.0
loop_
_geom_bond_atom_site_label_1
_geom_bond_atom_site_label_2
_geom_bond_distance
_geom_bond_site_symmetry_2
_ccdc_geom_bond_type
C0 C1 1.351 . S
C0 N3 1.368 . S
C0 H5 0.931 . S
C1 C0 1.351 . S
C1 N2 1.373 . S
C1 H29 0.930 . S
N2 C1 1.373 . S
N2 C4 1.340 . S
N3 C0 1.368 . S
N3 C4 1.321 . S
N3 Co6 2.135 . S
C4 N2 1.340 . S
C4 N3 1.321 . S
C4 H28 0.930 . S
H5 C0 0.931 . S
Co6 N3 2.135 . S
Co6 N9 2.121 . S
Co6 O14 2.055 . S
Co6 O17 2.039 . S
Co6 N20 2.140 . S
C7 O8 1.227 . S
C7 O17 1.265 . S
O8 C7 1.227 . S
N9 Co6 2.121 . S
N9 C11 1.375 . S
N9 C12 1.313 . S
C10 C11 1.338 . S
C10 N13 1.377 . S
C10 H30 0.930 . S
C11 N9 1.375 . S
C11 C10 1.338 . S
C11 H15 0.931 . S
C12 N9 1.313 . S
C12 N13 1.344 . S
C12 H16 0.930 . S
N13 C10 1.377 . S
N13 C12 1.344 . S
O14 Co6 2.055 . S
O14 C18 1.253 . S
H15 C11 0.931 . S
H16 C12 0.930 . S
O17 Co6 2.039 . S
O17 C7 1.265 . S
C18 O14 1.253 . S
C18 O19 1.227 . S
O19 C18 1.227 . S
N20 Co6 2.140 . S
N20 C23 1.346 . S
N20 C24 1.345 1_455 S
C21 C22 1.387 . S
C21 C25 1.391 . S
C22 C21 1.387 . S
C22 C23 1.369 1_655 S
C22 H31 0.929 . S
C23 N20 1.346 . S
C23 C22 1.369 1_455 S
C23 H26 0.928 . S
C24 N20 1.345 1_655 S
C24 C25 1.371 . S
C24 H27 0.931 . S
C25 C21 1.391 . S
C25 C24 1.371 . S
C25 H32 0.930 . S
H26 C23 0.928 . S
H27 C24 0.931 . S
H28 C4 0.930 . S
H29 C1 0.930 . S
H30 C10 0.930 . S
H31 C22 0.929 . S
H32 C25 0.930 . S
C33 C34 1.351 . S
C33 N36 1.368 . S
C33 H38 0.931 . S
C34 C33 1.351 . S
C34 N35 1.373 . S
C34 H62 0.930 . S
N35 C34 1.373 . S
N35 C37 1.340 . S
N36 C33 1.368 . S
N36 C37 1.321 . S
N36 Co39 2.135 . S
C37 N35 1.340 . S
C37 N36 1.321 . S
C37 H61 0.930 . S
H38 C33 0.931 . S
Co39 N36 2.135 . S
Co39 N42 2.121 . S
Co39 O47 2.055 . S
Co39 O50 2.039 . S
Co39 N53 2.140 . S
C40 O41 1.227 . S
C40 O50 1.265 . S
O41 C40 1.227 . S
N42 Co39 2.121 . S
N42 C44 1.375 . S
N42 C45 1.313 . S
C43 C44 1.338 . S
C43 N46 1.377 . S
C43 H63 0.930 . S
C44 N42 1.375 . S
C44 C43 1.338 . S
C44 H48 0.931 . S
C45 N42 1.313 . S
C45 N46 1.344 . S
C45 H49 0.930 . S
N46 C43 1.377 . S
N46 C45 1.344 . S
O47 Co39 2.055 . S
O47 C51 1.253 . S
H48 C44 0.931 . S
H49 C45 0.930 . S
O50 Co39 2.039 . S
O50 C40 1.265 . S
C51 O47 1.253 . S
C51 O52 1.227 . S
O52 C51 1.227 . S
N53 Co39 2.140 . S
N53 C56 1.346 . S
N53 C57 1.345 1_455 S
C54 C55 1.387 . S
C54 C58 1.391 . S
C55 C54 1.387 . S
C55 C56 1.369 1_655 S
C55 H64 0.929 . S
C56 N53 1.346 . S
C56 C55 1.369 1_455 S
C56 H59 0.928 . S
C57 N53 1.345 1_655 S
C57 C58 1.371 . S
C57 H60 0.931 . S
C58 C54 1.391 . S
C58 C57 1.371 . S
C58 H65 0.930 . S
H59 C56 0.928 . S
H60 C57 0.931 . S
H61 C37 0.930 . S
H62 C34 0.930 . S
H63 C43 0.930 . S
H64 C55 0.929 . S
H65 C58 0.930 . S
C66 C67 1.351 . S
C66 N69 1.368 . S
C66 H71 0.931 . S
C67 C66 1.351 . S
C67 N68 1.373 . S
C67 H95 0.930 . S
N68 C67 1.373 . S
N68 C70 1.340 . S
N69 C66 1.368 . S
N69 C70 1.321 . S
N69 Co72 2.135 . S
C70 N68 1.340 . S
C70 N69 1.321 . S
C70 H94 0.930 . S
H71 C66 0.931 . S
Co72 N69 2.135 . S
Co72 N75 2.121 . S
Co72 O80 2.055 . S
Co72 O83 2.039 . S
Co72 N86 2.140 . S
C73 O74 1.227 . S
C73 O83 1.265 . S
O74 C73 1.227 . S
N75 Co72 2.121 . S
N75 C77 1.375 . S
N75 C78 1.313 . S
C76 C77 1.338 . S
C76 N79 1.377 . S
C76 H96 0.930 . S
C77 N75 1.375 . S
C77 C76 1.338 . S
C77 H81 0.931 . S
C78 N75 1.313 . S
C78 N79 1.344 . S
C78 H82 0.930 . S
N79 C76 1.377 . S
N79 C78 1.344 . S
O80 Co72 2.055 . S
O80 C84 1.253 . S
H81 C77 0.931 . S
H82 C78 0.930 . S
O83 Co72 2.039 . S
O83 C73 1.265 . S
C84 O80 1.253 . S
C84 O85 1.227 . S
O85 C84 1.227 . S
N86 Co72 2.140 . S
N86 C89 1.346 . S
N86 C90 1.345 1_655 S
C87 C88 1.387 . S
C87 C91 1.391 . S
C88 C87 1.387 . S
C88 C89 1.369 1_455 S
C88 H97 0.929 . S
C89 N86 1.346 . S
C89 C88 1.369 1_655 S
C89 H92 0.928 . S
C90 N86 1.345 1_455 S
C90 C91 1.371 . S
C90 H93 0.931 . S
C91 C87 1.391 . S
C91 C90 1.371 . S
C91 H98 0.930 . S
H92 C89 0.928 . S
H93 C90 0.931 . S
H94 C70 0.930 . S
H95 C67 0.930 . S
H96 C76 0.930 . S
H97 C88 0.929 . S
H98 C91 0.930 . S
C99 C100 1.351 . S
C99 N102 1.368 . S
C99 H104 0.931 . S
C100 C99 1.351 . S
C100 N101 1.373 . S
C100 H128 0.930 . S
N101 C100 1.373 . S
N101 C103 1.340 . S
N102 C99 1.368 . S
N102 C103 1.321 . S
N102 Co105 2.135 . S
C103 N101 1.340 . S
C103 N102 1.321 . S
C103 H127 0.930 . S
H104 C99 0.931 . S
Co105 N102 2.135 . S
Co105 N108 2.121 . S
Co105 O113 2.055 . S
Co105 O116 2.039 . S
Co105 N119 2.140 . S
C106 O107 1.227 . S
C106 O116 1.265 . S
O107 C106 1.227 . S
N108 Co105 2.121 . S
N108 C110 1.375 . S
N108 C111 1.313 . S
C109 C110 1.338 . S
C109 N112 1.377 . S
C109 H129 0.930 . S
C110 N108 1.375 . S
C110 C109 1.338 . S
C110 H114 0.931 . S
C111 N108 1.313 . S
C111 N112 1.344 . S
C111 H115 0.930 . S
N112 C109 1.377 . S
N112 C111 1.344 . S
O113 Co105 2.055 . S
O113 C117 1.253 . S
H114 C110 0.931 . S
H115 C111 0.930 . S
O116 Co105 2.039 . S
O116 C106 1.265 . S
C117 O113 1.253 . S
C117 O118 1.227 . S
O118 C117 1.227 . S
N119 Co105 2.140 . S
N119 C122 1.346 . S
N119 C123 1.345 1_655 S
C120 C121 1.387 . S
C120 C124 1.391 . S
C121 C120 1.387 . S
C121 C122 1.369 1_455 S
C121 H130 0.929 . S
C122 N119 1.346 . S
C122 C121 1.369 1_655 S
C122 H125 0.928 . S
C123 N119 1.345 1_455 S
C123 C124 1.371 . S
C123 H126 0.931 . S
C124 C120 1.391 . S
C124 C123 1.371 . S
C124 H131 0.930 . S
H125 C122 0.928 . S
H126 C123 0.931 . S
H127 C103 0.930 . S
H128 C100 0.930 . S
H129 C109 0.930 . S
H130 C121 0.929 . S
H131 C124 0.930 . S
C132 C133 1.351 . S
C132 N135 1.368 1_554 S
C132 H137 0.931 . S
C133 C132 1.351 . S
C133 N134 1.373 1_554 S
C133 H161 0.930 . S
N134 C133 1.373 1_556 S
N134 C136 1.340 . S
N135 C132 1.368 1_556 S
N135 C136 1.321 . S
N135 Co138 2.135 . S
C136 N134 1.340 . S
C136 N135 1.321 . S
C136 H160 0.930 . S
H137 C132 0.931 . S
Co138 N135 2.135 . S
Co138 N141 2.121 . S
Co138 O146 2.055 1_556 S
Co138 O149 2.039 . S
Co138 N152 2.140 . S
C139 O140 1.227 . S
C139 O149 1.265 . S
O140 C139 1.227 . S
N141 Co138 2.121 . S
N141 C143 1.375 . S
N141 C144 1.313 . S
C142 C143 1.338 . S
C142 N145 1.377 . S
C142 H162 0.930 . S
C143 N141 1.375 . S
C143 C142 1.338 . S
C143 H147 0.931 . S
C144 N141 1.313 . S
C144 N145 1.344 . S
C144 H148 0.930 1_556 S
N145 C142 1.377 . S
N145 C144 1.344 . S
O146 Co138 2.055 1_554 S
O146 C150 1.253 . S
H147 C143 0.931 . S
H148 C144 0.930 1_554 S
O149 Co138 2.039 . S
O149 C139 1.265 . S
C150 O146 1.253 . S
C150 O151 1.227 . S
O151 C150 1.227 . S
N152 Co138 2.140 . S
N152 C155 1.346 . S
N152 C156 1.345 1_455 S
C153 C154 1.387 . S
C153 C157 1.391 . S
C154 C153 1.387 . S
C154 C155 1.369 1_655 S
C154 H163 0.929 . S
C155 N152 1.346 . S
C155 C154 1.369 1_455 S
C155 H158 0.928 . S
C156 N152 1.345 1_655 S
C156 C157 1.371 . S
C156 H159 0.931 . S
C157 C153 1.391 . S
C157 C156 1.371 . S
C157 H164 0.930 . S
H158 C155 0.928 . S
H159 C156 0.931 . S
H160 C136 0.930 . S
H161 C133 0.930 . S
H162 C142 0.930 . S
H163 C154 0.929 . S
H164 C157 0.930 . S
C165 C166 1.351 . S
C165 N168 1.368 . S
C165 H170 0.931 . S
C166 C165 1.351 . S
C166 N167 1.373 . S
C166 H194 0.930 . S
N167 C166 1.373 . S
N167 C169 1.340 . S
N168 C165 1.368 . S
N168 C169 1.321 . S
N168 Co171 2.135 . S
C169 N167 1.340 . S
C169 N168 1.321 . S
C169 H193 0.930 . S
H170 C165 0.931 . S
Co171 N168 2.135 . S
Co171 N174 2.121 . S
Co171 O179 2.055 . S
Co171 O182 2.039 . S
Co171 N185 2.140 . S
C172 O173 1.227 . S
C172 O182 1.265 . S
O173 C172 1.227 . S
N174 Co171 2.121 . S
N174 C176 1.375 . S
N174 C177 1.313 . S
C175 C176 1.338 . S
C175 N178 1.377 . S
C175 H195 0.930 . S
C176 N174 1.375 . S
C176 C175 1.338 . S
C176 H180 0.931 . S
C177 N174 1.313 . S
C177 N178 1.344 . S
C177 H181 0.930 . S
N178 C175 1.377 . S
N178 C177 1.344 . S
O179 Co171 2.055 . S
O179 C183 1.253 . S
H180 C176 0.931 . S
H181 C177 0.930 . S
O182 Co171 2.039 . S
O182 C172 1.265 . S
C183 O179 1.253 . S
C183 O184 1.227 . S
O184 C183 1.227 . S
N185 Co171 2.140 . S
N185 C188 1.346 . S
N185 C189 1.345 1_455 S
C186 C187 1.387 . S
C186 C190 1.391 . S
C187 C186 1.387 . S
C187 C188 1.369 1_655 S
C187 H196 0.929 . S
C188 N185 1.346 . S
C188 C187 1.369 1_455 S
C188 H191 0.928 . S
C189 N185 1.345 1_655 S
C189 C190 1.371 . S
C189 H192 0.931 . S
C190 C186 1.391 . S
C190 C189 1.371 . S
C190 H197 0.930 . S
H191 C188 0.928 . S
H192 C189 0.931 . S
H193 C169 0.930 . S
H194 C166 0.930 . S
H195 C175 0.930 . S
H196 C187 0.929 . S
H197 C190 0.930 . S
C198 C199 1.351 . S
C198 N201 1.368 1_556 S
C198 H203 0.931 . S
C199 C198 1.351 . S
C199 N200 1.373 1_556 S
C199 H227 0.930 . S
N200 C199 1.373 1_554 S
N200 C202 1.340 . S
N201 C198 1.368 1_554 S
N201 C202 1.321 . S
N201 Co204 2.135 . S
C202 N200 1.340 . S
C202 N201 1.321 . S
C202 H226 0.930 . S
H203 C198 0.931 . S
Co204 N201 2.135 . S
Co204 N207 2.121 . S
Co204 O212 2.055 1_554 S
Co204 O215 2.039 . S
Co204 N218 2.140 . S
C205 O206 1.227 . S
C205 O215 1.265 . S
O206 C205 1.227 . S
N207 Co204 2.121 . S
N207 C209 1.375 . S
N207 C210 1.313 . S
C208 C209 1.338 . S
C208 N211 1.377 . S
C208 H228 0.930 . S
C209 N207 1.375 . S
C209 C208 1.338 . S
C209 H213 0.931 . S
C210 N207 1.313 . S
C210 N211 1.344 . S
C210 H214 0.930 1_554 S
N211 C208 1.377 . S
N211 C210 1.344 . S
O212 Co204 2.055 1_556 S
O212 C216 1.253 . S
H213 C209 0.931 . S
H214 C210 0.930 1_556 S
O215 Co204 2.039 . S
O215 C205 1.265 . S
C216 O212 1.253 . S
C216 O217 1.227 . S
O217 C216 1.227 . S
N218 Co204 2.140 . S
N218 C221 1.346 . S
N218 C222 1.345 1_655 S
C219 C220 1.387 . S
C219 C223 1.391 . S
C220 C219 1.387 . S
C220 C221 1.369 1_455 S
C220 H229 0.929 . S
C221 N218 1.346 . S
C221 C220 1.369 1_655 S
C221 H224 0.928 . S
C222 N218 1.345 1_455 S
C222 C223 1.371 . S
C222 H225 0.931 . S
C223 C219 1.391 . S
C223 C222 1.371 . S
C223 H230 0.930 . S
H224 C221 0.928 . S
H225 C222 0.931 . S
H226 C202 0.930 . S
H227 C199 0.930 . S
H228 C208 0.930 . S
H229 C220 0.929 . S
H230 C223 0.930 . S
C231 C232 1.351 . S
C231 N234 1.368 . S
C231 H236 0.931 . S
C232 C231 1.351 . S
C232 N233 1.373 . S
C232 H260 0.930 . S
N233 C232 1.373 . S
N233 C235 1.340 . S
N234 C231 1.368 . S
N234 C235 1.321 . S
N234 Co237 2.135 . S
C235 N233 1.340 . S
C235 N234 1.321 . S
C235 H259 0.930 . S
H236 C231 0.931 . S
Co237 N234 2.135 . S
Co237 N240 2.121 . S
Co237 O245 2.055 . S
Co237 O248 2.039 . S
Co237 N251 2.140 . S
C238 O239 1.227 . S
C238 O248 1.265 . S
O239 C238 1.227 . S
N240 Co237 2.121 . S
N240 C242 1.375 . S
N240 C243 1.313 . S
C241 C242 1.338 . S
C241 N244 1.377 . S
C241 H261 0.930 . S
C242 N240 1.375 . S
C242 C241 1.338 . S
C242 H246 0.931 . S
C243 N240 1.313 . S
C243 N244 1.344 . S
C243 H247 0.930 . S
N244 C241 1.377 . S
N244 C243 1.344 . S
O245 Co237 2.055 . S
O245 C249 1.253 . S
H246 C242 0.931 . S
H247 C243 0.930 . S
O248 Co237 2.039 . S
O248 C238 1.265 . S
C249 O245 1.253 . S
C249 O250 1.227 . S
O250 C249 1.227 . S
N251 Co237 2.140 . S
N251 C254 1.346 . S
N251 C255 1.345 1_655 S
C252 C253 1.387 . S
C252 C256 1.391 . S
C253 C252 1.387 . S
C253 C254 1.369 1_455 S
C253 H262 0.929 . S
C254 N251 1.346 . S
C254 C253 1.369 1_655 S
C254 H257 0.928 . S
C255 N251 1.345 1_455 S
C255 C256 1.371 . S
C255 H258 0.931 . S
C256 C252 1.391 . S
C256 C255 1.371 . S
C256 H263 0.930 . S
H257 C254 0.928 . S
H258 C255 0.931 . S
H259 C235 0.930 . S
H260 C232 0.930 . S
H261 C241 0.930 . S
H262 C253 0.929 . S
H263 C256 0.930 . S
C264 C265 1.351 . S
C264 N267 1.368 1_554 S
C264 H269 0.931 . S
C265 C264 1.351 . S
C265 N266 1.373 1_554 S
C265 H293 0.930 . S
N266 C265 1.373 1_556 S
N266 C268 1.340 . S
N267 C264 1.368 1_556 S
N267 C268 1.321 . S
N267 Co270 2.135 . S
C268 N266 1.340 . S
C268 N267 1.321 . S
C268 H292 0.930 . S
H269 C264 0.931 . S
Co270 N267 2.135 . S
Co270 N273 2.121 . S
Co270 O278 2.055 1_556 S
Co270 O281 2.039 . S
Co270 N284 2.140 . S
C271 O272 1.227 . S
C271 O281 1.265 . S
O272 C271 1.227 . S
N273 Co270 2.121 . S
N273 C275 1.375 . S
N273 C276 1.313 . S
C274 C275 1.338 . S
C274 N277 1.377 . S
C274 H294 0.930 . S
C275 N273 1.375 . S
C275 C274 1.338 . S
C275 H279 0.931 . S
C276 N273 1.313 . S
C276 N277 1.344 . S
C276 H280 0.930 1_556 S
N277 C274 1.377 . S
N277 C276 1.344 . S
O278 Co270 2.055 1_554 S
O278 C282 1.253 . S
H279 C275 0.931 . S
H280 C276 0.930 1_554 S
O281 Co270 2.039 . S
O281 C271 1.265 . S
C282 O278 1.253 . S
C282 O283 1.227 . S
O283 C282 1.227 . S
N284 Co270 2.140 . S
N284 C287 1.346 . S
N284 C288 1.345 . S
C285 C286 1.387 . S
C285 C289 1.391 . S
C286 C285 1.387 . S
C286 C287 1.369 . S
C286 H295 0.929 . S
C287 N284 1.346 . S
C287 C286 1.369 . S
C287 H290 0.928 . S
C288 N284 1.345 . S
C288 C289 1.371 . S
C288 H291 0.931 . S
C289 C285 1.391 . S
C289 C288 1.371 . S
C289 H296 0.930 . S
H290 C287 0.928 . S
H291 C288 0.931 . S
H292 C268 0.930 . S
H293 C265 0.930 . S
H294 C274 0.930 . S
H295 C286 0.929 . S
H296 C289 0.930 . S
C297 C298 1.351 . S
C297 N300 1.368 . S
C297 H302 0.931 . S
C298 C297 1.351 . S
C298 N299 1.373 . S
C298 H326 0.930 . S
N299 C298 1.373 . S
N299 C301 1.340 . S
N300 C297 1.368 . S
N300 C301 1.321 . S
N300 Co303 2.135 . S
C301 N299 1.340 . S
C301 N300 1.321 . S
C301 H325 0.930 . S
H302 C297 0.931 . S
Co303 N300 2.135 . S
Co303 N306 2.121 . S
Co303 O311 2.055 . S
Co303 O314 2.039 . S
Co303 N317 2.140 . S
C304 O305 1.227 . S
C304 O314 1.265 . S
O305 C304 1.227 . S
N306 Co303 2.121 . S
N306 C308 1.375 . S
N306 C309 1.313 . S
C307 C308 1.338 . S
C307 N310 1.377 . S
C307 H327 0.930 . S
C308 N306 1.375 . S
C308 C307 1.338 . S
C308 H312 0.931 . S
C309 N306 1.313 . S
C309 N310 1.344 . S
C309 H313 0.930 . S
N310 C307 1.377 . S
N310 C309 1.344 . S
O311 Co303 2.055 . S
O311 C315 1.253 . S
H312 C308 0.931 . S
H313 C309 0.930 . S
O314 Co303 2.039 . S
O314 C304 1.265 . S
C315 O311 1.253 . S
C315 O316 1.227 . S
O316 C315 1.227 . S
N317 Co303 2.140 . S
N317 C320 1.346 . S
N317 C321 1.345 . S
C318 C319 1.387 . S
C318 C322 1.391 . S
C319 C318 1.387 . S
C319 C320 1.369 . S
C319 H328 0.929 . S
C320 N317 1.346 . S
C320 C319 1.369 . S
C320 H323 0.928 . S
C321 N317 1.345 . S
C321 C322 1.371 . S
C321 H324 0.931 . S
C322 C318 1.391 . S
C322 C321 1.371 . S
C322 H329 0.930 . S
H323 C320 0.928 . S
H324 C321 0.931 . S
H325 C301 0.930 . S
H326 C298 0.930 . S
H327 C307 0.930 . S
H328 C319 0.929 . S
H329 C322 0.930 . S
C330 C331 1.351 . S
C330 N333 1.368 1_556 S
C330 H335 0.931 . S
C331 C330 1.351 . S
C331 N332 1.373 1_556 S
C331 H359 0.930 . S
N332 C331 1.373 1_554 S
N332 C334 1.340 . S
N333 C330 1.368 1_554 S
N333 C334 1.321 . S
N333 Co336 2.135 . S
C334 N332 1.340 . S
C334 N333 1.321 . S
C334 H358 0.930 . S
H335 C330 0.931 . S
Co336 N333 2.135 . S
Co336 N339 2.121 . S
Co336 O344 2.055 1_554 S
Co336 O347 2.039 . S
Co336 N350 2.140 . S
C337 O338 1.227 . S
C337 O347 1.265 . S
O338 C337 1.227 . S
N339 Co336 2.121 . S
N339 C341 1.375 . S
N339 C342 1.313 . S
C340 C341 1.338 . S
C340 N343 1.377 . S
C340 H360 0.930 . S
C341 N339 1.375 . S
C341 C340 1.338 . S
C341 H345 0.931 . S
C342 N339 1.313 . S
C342 N343 1.344 . S
C342 H346 0.930 1_554 S
N343 C340 1.377 . S
N343 C342 1.344 . S
O344 Co336 2.055 1_556 S
O344 C348 1.253 . S
H345 C341 0.931 . S
H346 C342 0.930 1_556 S
O347 Co336 2.039 . S
O347 C337 1.265 . S
C348 O344 1.253 . S
C348 O349 1.227 . S
O349 C348 1.227 . S
N350 Co336 2.140 . S
N350 C353 1.346 . S
N350 C354 1.345 . S
C351 C352 1.387 . S
C351 C355 1.391 . S
C352 C351 1.387 . S
C352 C353 1.369 . S
C352 H361 0.929 . S
C353 N350 1.346 . S
C353 C352 1.369 . S
C353 H356 0.928 . S
C354 N350 1.345 . S
C354 C355 1.371 . S
C354 H357 0.931 . S
C355 C351 1.391 . S
C355 C354 1.371 . S
C355 H362 0.930 . S
H356 C353 0.928 . S
H357 C354 0.931 . S
H358 C334 0.930 . S
H359 C331 0.930 . S
H360 C340 0.930 . S
H361 C352 0.929 . S
H362 C355 0.930 . S
C363 C364 1.351 . S
C363 N366 1.368 . S
C363 H368 0.931 . S
C364 C363 1.351 . S
C364 N365 1.373 . S
C364 H392 0.930 . S
N365 C364 1.373 . S
N365 C367 1.340 . S
N366 C363 1.368 . S
N366 C367 1.321 . S
N366 Co369 2.135 . S
C367 N365 1.340 . S
C367 N366 1.321 . S
C367 H391 0.930 . S
H368 C363 0.931 . S
Co369 N366 2.135 . S
Co369 N372 2.121 . S
Co369 O377 2.055 . S
Co369 O380 2.039 . S
Co369 N383 2.140 . S
C370 O371 1.227 . S
C370 O380 1.265 . S
O371 C370 1.227 . S
N372 Co369 2.121 . S
N372 C374 1.375 . S
N372 C375 1.313 . S
C373 C374 1.338 . S
C373 N376 1.377 . S
C373 H393 0.930 . S
C374 N372 1.375 . S
C374 C373 1.338 . S
C374 H378 0.931 . S
C375 N372 1.313 . S
C375 N376 1.344 . S
C375 H379 0.930 . S
N376 C373 1.377 . S
N376 C375 1.344 . S
O377 Co369 2.055 . S
O377 C381 1.253 . S
H378 C374 0.931 . S
H379 C375 0.930 . S
O380 Co369 2.039 . S
O380 C370 1.265 . S
C381 O377 1.253 . S
C381 O382 1.227 . S
O382 C381 1.227 . S
N383 Co369 2.140 . S
N383 C386 1.346 . S
N383 C387 1.345 . S
C384 C385 1.387 . S
C384 C388 1.391 . S
C385 C384 1.387 . S
C385 C386 1.369 . S
C385 H394 0.929 . S
C386 N383 1.346 . S
C386 C385 1.369 . S
C386 H389 0.928 . S
C387 N383 1.345 . S
C387 C388 1.371 . S
C387 H390 0.931 . S
C388 C384 1.391 . S
C388 C387 1.371 . S
C388 H395 0.930 . S
H389 C386 0.928 . S
H390 C387 0.931 . S
H391 C367 0.930 . S
H392 C364 0.930 . S
H393 C373 0.930 . S
H394 C385 0.929 . S
H395 C388 0.930 . S
C396 C397 1.351 . S
C396 N399 1.368 . S
C396 H401 0.931 . S
C397 C396 1.351 . S
C397 N398 1.373 . S
C397 H425 0.930 . S
N398 C397 1.373 . S
N398 C400 1.340 . S
N399 C396 1.368 . S
N399 C400 1.321 . S
N399 Co402 2.135 . S
C400 N398 1.340 . S
C400 N399 1.321 . S
C400 H424 0.930 . S
H401 C396 0.931 . S
Co402 N399 2.135 . S
Co402 N405 2.121 . S
Co402 O410 2.055 . S
Co402 O413 2.039 . S
Co402 N416 2.140 . S
C403 O404 1.227 . S
C403 O413 1.265 . S
O404 C403 1.227 . S
N405 Co402 2.121 . S
N405 C407 1.375 . S
N405 C408 1.313 . S
C406 C407 1.338 . S
C406 N409 1.377 . S
C406 H426 0.930 . S
C407 N405 1.375 . S
C407 C406 1.338 . S
C407 H411 0.931 . S
C408 N405 1.313 . S
C408 N409 1.344 . S
C408 H412 0.930 . S
N409 C406 1.377 . S
N409 C408 1.344 . S
O410 Co402 2.055 . S
O410 C414 1.253 . S
H411 C407 0.931 . S
H412 C408 0.930 . S
O413 Co402 2.039 . S
O413 C403 1.265 . S
C414 O410 1.253 . S
C414 O415 1.227 . S
O415 C414 1.227 . S
N416 Co402 2.140 . S
N416 C419 1.346 . S
N416 C420 1.345 . S
C417 C418 1.387 . S
C417 C421 1.391 . S
C418 C417 1.387 . S
C418 C419 1.369 . S
C418 H427 0.929 . S
C419 N416 1.346 . S
C419 C418 1.369 . S
C419 H422 0.928 . S
C420 N416 1.345 . S
C420 C421 1.371 . S
C420 H423 0.931 . S
C421 C417 1.391 . S
C421 C420 1.371 . S
C421 H428 0.930 . S
H422 C419 0.928 . S
H423 C420 0.931 . S
H424 C400 0.930 . S
H425 C397 0.930 . S
H426 C406 0.930 . S
H427 C418 0.929 . S
H428 C421 0.930 . S
C429 C430 1.351 . S
C429 N432 1.368 . S
C429 H434 0.931 . S
C430 C429 1.351 . S
C430 N431 1.373 . S
C430 H458 0.930 . S
N431 C430 1.373 . S
N431 C433 1.340 . S
N432 C429 1.368 . S
N432 C433 1.321 . S
N432 Co435 2.135 . S
C433 N431 1.340 . S
C433 N432 1.321 . S
C433 H457 0.930 . S
H434 C429 0.931 . S
Co435 N432 2.135 . S
Co435 N438 2.121 . S
Co435 O443 2.055 . S
Co435 O446 2.039 . S
Co435 N449 2.140 . S
C436 O437 1.227 . S
C436 O446 1.265 . S
O437 C436 1.227 . S
N438 Co435 2.121 . S
N438 C440 1.375 . S
N438 C441 1.313 . S
C439 C440 1.338 . S
C439 N442 1.377 . S
C439 H459 0.930 . S
C440 N438 1.375 . S
C440 C439 1.338 . S
C440 H444 0.931 . S
C441 N438 1.313 . S
C441 N442 1.344 . S
C441 H445 0.930 . S
N442 C439 1.377 . S
N442 C441 1.344 . S
O443 Co435 2.055 . S
O443 C447 1.253 . S
H444 C440 0.931 . S
H445 C441 0.930 . S
O446 Co435 2.039 . S
O446 C436 1.265 . S
C447 O443 1.253 . S
C447 O448 1.227 . S
O448 C447 1.227 . S
N449 Co435 2.140 . S
N449 C452 1.346 . S
N449 C453 1.345 . S
C450 C451 1.387 . S
C450 C454 1.391 . S
C451 C450 1.387 . S
C451 C452 1.369 . S
C451 H460 0.929 . S
C452 N449 1.346 . S
C452 C451 1.369 . S
C452 H455 0.928 . S
C453 N449 1.345 . S
C453 C454 1.371 . S
C453 H456 0.931 . S
C454 C450 1.391 . S
C454 C453 1.371 . S
C454 H461 0.930 . S
H455 C452 0.928 . S
H456 C453 0.931 . S
H457 C433 0.930 . S
H458 C430 0.930 . S
H459 C439 0.930 . S
H460 C451 0.929 . S
H461 C454 0.930 . S
C462 C463 1.351 . S
C462 N465 1.368 . S
C462 H467 0.931 . S
C463 C462 1.351 . S
C463 N464 1.373 . S
C463 H491 0.930 . S
N464 C463 1.373 . S
N464 C466 1.340 . S
N465 C462 1.368 . S
N465 C466 1.321 . S
N465 Co468 2.135 . S
C466 N464 1.340 . S
C466 N465 1.321 . S
C466 H490 0.930 . S
H467 C462 0.931 . S
Co468 N465 2.135 . S
Co468 N471 2.121 . S
Co468 O476 2.055 . S
Co468 O479 2.039 . S
Co468 N482 2.140 . S
C469 O470 1.227 . S
C469 O479 1.265 . S
O470 C469 1.227 . S
N471 Co468 2.121 . S
N471 C473 1.375 . S
N471 C474 1.313 . S
C472 C473 1.338 . S
C472 N475 1.377 . S
C472 H492 0.930 . S
C473 N471 1.375 . S
C473 C472 1.338 . S
C473 H477 0.931 . S
C474 N471 1.313 . S
C474 N475 1.344 . S
C474 H478 0.930 . S
N475 C472 1.377 . S
N475 C474 1.344 . S
O476 Co468 2.055 . S
O476 C480 1.253 . S
H477 C473 0.931 . S
H478 C474 0.930 . S
O479 Co468 2.039 . S
O479 C469 1.265 . S
C480 O476 1.253 . S
C480 O481 1.227 . S
O481 C480 1.227 . S
N482 Co468 2.140 . S
N482 C485 1.346 . S
N482 C486 1.345 . S
C483 C484 1.387 . S
C483 C487 1.391 . S
C484 C483 1.387 . S
C484 C485 1.369 . S
C484 H493 0.929 . S
C485 N482 1.346 . S
C485 C484 1.369 . S
C485 H488 0.928 . S
C486 N482 1.345 . S
C486 C487 1.371 . S
C486 H489 0.931 . S
C487 C483 1.391 . S
C487 C486 1.371 . S
C487 H494 0.930 . S
H488 C485 0.928 . S
H489 C486 0.931 . S
H490 C466 0.930 . S
H491 C463 0.930 . S
H492 C472 0.930 . S
H493 C484 0.929 . S
H494 C487 0.930 . S
C495 C496 1.351 . S
C495 N498 1.368 . S
C495 H500 0.931 . S
C496 C495 1.351 . S
C496 N497 1.373 . S
C496 H524 0.930 . S
N497 C496 1.373 . S
N497 C499 1.340 . S
N498 C495 1.368 . S
N498 C499 1.321 . S
N498 Co501 2.135 . S
C499 N497 1.340 . S
C499 N498 1.321 . S
C499 H523 0.930 . S
H500 C495 0.931 . S
Co501 N498 2.135 . S
Co501 N504 2.121 . S
Co501 O509 2.055 . S
Co501 O512 2.039 . S
Co501 N515 2.140 . S
C502 O503 1.227 . S
C502 O512 1.265 . S
O503 C502 1.227 . S
N504 Co501 2.121 . S
N504 C506 1.375 . S
N504 C507 1.313 . S
C505 C506 1.338 . S
C505 N508 1.377 . S
C505 H525 0.930 . S
C506 N504 1.375 . S
C506 C505 1.338 . S
C506 H510 0.931 . S
C507 N504 1.313 . S
C507 N508 1.344 . S
C507 H511 0.930 . S
N508 C505 1.377 . S
N508 C507 1.344 . S
O509 Co501 2.055 . S
O509 C513 1.253 . S
H510 C506 0.931 . S
H511 C507 0.930 . S
O512 Co501 2.039 . S
O512 C502 1.265 . S
C513 O509 1.253 . S
C513 O514 1.227 . S
O514 C513 1.227 . S
N515 Co501 2.140 . S
N515 C518 1.346 . S
N515 C519 1.345 . S
C516 C517 1.387 . S
C516 C520 1.391 . S
C517 C516 1.387 . S
C517 C518 1.369 . S
C517 H526 0.929 . S
C518 N515 1.346 . S
C518 C517 1.369 . S
C518 H521 0.928 . S
C519 N515 1.345 . S
C519 C520 1.371 . S
C519 H522 0.931 . S
C520 C516 1.391 . S
C520 C519 1.371 . S
C520 H527 0.930 . S
H521 C518 0.928 . S
H522 C519 0.931 . S
H523 C499 0.930 . S
H524 C496 0.930 . S
H525 C505 0.930 . S
H526 C517 0.929 . S
H527 C520 0.930 . S
H528 C536 0.950 . S
H529 C541 0.950 . S
H530 C538 0.950 . S
H531 C540 0.950 . S
H532 C542 0.950 . S
H533 C544 0.950 . S
H534 C546 0.950 . S
H535 C547 0.950 . S
C536 H528 0.950 . S
C536 C537 1.386 . S
C536 C538 1.391 . S
C537 C536 1.386 . S
C537 C541 1.393 . S
C538 H530 0.950 . S
C538 C536 1.391 . S
C538 C539 1.400 . S
C539 C538 1.400 . S
C539 C540 1.398 . S
C539 C545 1.491 . S
C540 H531 0.950 . S
C540 C539 1.398 . S
C540 C541 1.391 . S
C541 H529 0.950 . S
C541 C537 1.393 . S
C541 C540 1.391 . S
C542 H532 0.950 . S
C542 C543 1.386 . S
C542 C544 1.391 . S
C543 C542 1.386 . S
C543 C547 1.393 . S
C544 H533 0.950 . S
C544 C542 1.391 . S
C544 C545 1.400 . S
C545 C539 1.491 . S
C545 C544 1.400 . S
C545 C546 1.398 . S
C546 H534 0.950 . S
C546 C545 1.398 . S
C546 C547 1.391 . S
C547 H535 0.950 . S
C547 C543 1.393 . S
C547 C546 1.391 . S
H548 C556 0.950 . S
H549 C561 0.950 . S
H550 C558 0.973 . S
H551 C560 0.950 . S
H552 C562 0.950 . S
H553 C564 0.973 . S
H554 C566 0.950 . S
H555 C567 0.950 . S
C556 H548 0.950 . S
C556 C557 1.386 . S
C556 C558 1.391 . S
C557 C556 1.386 . S
C557 C561 1.393 . S
C558 H550 0.973 . S
C558 C556 1.391 . S
C558 C559 1.400 . S
C559 C558 1.400 . S
C559 C560 1.398 . S
C559 C565 1.491 1_665 S
C560 H551 0.950 . S
C560 C559 1.398 . S
C560 C561 1.391 . S
C561 H549 0.950 . S
C561 C557 1.393 . S
C561 C560 1.391 . S
C562 H552 0.950 . S
C562 C563 1.386 . S
C562 C564 1.391 . S
C563 C562 1.386 . S
C563 C567 1.393 . S
C564 H553 0.973 . S
C564 C562 1.391 . S
C564 C565 1.400 . S
C565 C559 1.491 1_445 S
C565 C564 1.400 . S
C565 C566 1.398 . S
C566 H554 0.950 . S
C566 C565 1.398 . S
C566 C567 1.391 . S
C567 H555 0.950 . S
C567 C563 1.393 . S
C567 C566 1.391 . S
H568 C576 0.950 . S
H569 C581 0.950 . S
H570 C578 0.950 1_565 S
H571 C580 0.950 . S
H572 C582 0.950 . S
H573 C584 0.950 1_545 S
H574 C586 0.950 . S
H575 C587 0.950 . S
C576 H568 0.950 . S
C576 C577 1.386 . S
C576 C578 1.391 . S
C577 C576 1.386 . S
C577 C581 1.393 . S
C578 H570 0.950 1_545 S
C578 C576 1.391 . S
C578 C579 1.400 . S
C579 C578 1.400 . S
C579 C580 1.398 . S
C579 C585 1.491 1_545 S
C580 H571 0.950 . S
C580 C579 1.398 . S
C580 C581 1.391 . S
C581 H569 0.950 . S
C581 C577 1.393 . S
C581 C580 1.391 . S
C582 H572 0.950 . S
C582 C583 1.386 . S
C582 C584 1.391 . S
C583 C582 1.386 . S
C583 C587 1.393 . S
C584 H573 0.950 1_565 S
C584 C582 1.391 . S
C584 C585 1.400 . S
C585 C579 1.491 1_565 S
C585 C584 1.400 . S
C585 C586 1.398 . S
C586 H574 0.950 . S
C586 C585 1.398 . S
C586 C587 1.391 . S
C587 H575 0.950 . S
C587 C583 1.393 . S
C587 C586 1.391 . S
H588 C596 0.950 1_455 S
H589 C601 0.950 . S
H590 C598 0.950 . S
H591 C600 0.950 . S
H592 C602 0.950 1_655 S
H593 C604 0.950 . S
H594 C606 0.950 . S
H595 C607 0.950 . S
C596 H588 0.950 1_655 S
C596 C597 1.386 . S
C596 C598 1.391 1_655 S
C597 C596 1.386 . S
C597 C601 1.393 . S
C598 H590 0.950 . S
C598 C596 1.391 1_455 S
C598 C599 1.400 1_455 S
C599 C598 1.400 1_655 S
C599 C600 1.398 . S
C599 C605 1.491 1_655 S
C600 H591 0.950 . S
C600 C599 1.398 . S
C600 C601 1.391 . S
C601 H589 0.950 . S
C601 C597 1.393 . S
C601 C600 1.391 . S
C602 H592 0.950 1_455 S
C602 C603 1.386 . S
C602 C604 1.391 1_455 S
C603 C602 1.386 . S
C603 C607 1.393 . S
C604 H593 0.950 . S
C604 C602 1.391 1_655 S
C604 C605 1.400 1_655 S
C605 C599 1.491 1_455 S
C605 C604 1.400 1_455 S
C605 C606 1.398 . S
C606 H594 0.950 . S
C606 C605 1.398 . S
C606 C607 1.391 . S
C607 H595 0.950 . S
C607 C603 1.393 . S
C607 C606 1.391 . S
H608 C616 0.950 . S
H609 C621 0.950 . S
H610 C618 0.950 . S
H611 C620 0.950 . S
H612 C622 0.950 . S
H613 C624 0.950 . S
H614 C626 0.950 . S
H615 C627 0.950 . S
C616 H608 0.950 . S
C616 C617 1.386 . S
C616 C618 1.391 . S
C617 C616 1.386 . S
C617 C621 1.393 . S
C618 H610 0.950 . S
C618 C616 1.391 . S
C618 C619 1.400 . S
C619 C618 1.400 . S
C619 C620 1.398 . S
C619 C625 1.491 . S
C620 H611 0.950 . S
C620 C619 1.398 . S
C620 C621 1.391 . S
C621 H609 0.950 . S
C621 C617 1.393 . S
C621 C620 1.391 . S
C622 H612 0.950 . S
C622 C623 1.386 . S
C622 C624 1.391 . S
C623 C622 1.386 . S
C623 C627 1.393 . S
C624 H613 0.950 . S
C624 C622 1.391 . S
C624 C625 1.400 . S
C625 C619 1.491 . S
C625 C624 1.400 . S
C625 C626 1.398 . S
C626 H614 0.950 . S
C626 C625 1.398 . S
C626 C627 1.391 . S
C627 H615 0.950 . S
C627 C623 1.393 . S
C627 C626 1.391 . S
H628 C636 0.950 . S
H629 C641 0.950 . S
H630 C638 0.950 . S
H631 C640 0.950 1_545 S
H632 C642 0.950 . S
H633 C644 0.950 . S
H634 C646 0.950 1_565 S
H635 C647 0.950 . S
C636 H628 0.950 . S
C636 C637 1.386 . S
C636 C638 1.391 . S
C637 C636 1.386 . S
C637 C641 1.393 . S
C638 H630 0.950 . S
C638 C636 1.391 . S
C638 C639 1.400 . S
C639 C638 1.400 . S
C639 C640 1.398 . S
C639 C645 1.491 1_565 S
C640 H631 0.950 1_565 S
C640 C639 1.398 . S
C640 C641 1.391 . S
C641 H629 0.950 . S
C641 C637 1.393 . S
C641 C640 1.391 . S
C642 H632 0.950 . S
C642 C643 1.386 . S
C642 C644 1.391 . S
C643 C642 1.386 . S
C643 C647 1.393 . S
C644 H633 0.950 . S
C644 C642 1.391 . S
C644 C645 1.400 . S
C645 C639 1.491 1_545 S
C645 C644 1.400 . S
C645 C646 1.398 . S
C646 H634 0.950 1_545 S
C646 C645 1.398 . S
C646 C647 1.391 . S
C647 H635 0.950 . S
C647 C643 1.393 . S
C647 C646 1.391 . S
H648 C656 0.950 . S
H649 C661 0.950 . S
H650 C658 0.950 . S
H651 C660 0.950 1_455 S
H652 C662 0.950 . S
H653 C664 0.950 . S
H654 C666 0.950 1_655 S
H655 C667 0.950 . S
C656 H648 0.950 . S
C656 C657 1.386 . S
C656 C658 1.391 . S
C657 C656 1.386 . S
C657 C661 1.393 . S
C658 H650 0.950 . S
C658 C656 1.391 . S
C658 C659 1.400 . S
C659 C658 1.400 . S
C659 C660 1.398 . S
C659 C665 1.491 1_655 S
C660 H651 0.950 1_655 S
C660 C659 1.398 . S
C660 C661 1.391 . S
C661 H649 0.950 . S
C661 C657 1.393 . S
C661 C660 1.391 . S
C662 H652 0.950 . S
C662 C663 1.386 . S
C662 C664 1.391 . S
C663 C662 1.386 . S
C663 C667 1.393 . S
C664 H653 0.950 . S
C664 C662 1.391 . S
C664 C665 1.400 . S
C665 C659 1.491 1_455 S
C665 C664 1.400 . S
C665 C666 1.398 . S
C666 H654 0.950 1_455 S
C666 C665 1.398 . S
C666 C667 1.391 . S
C667 H655 0.950 . S
C667 C663 1.393 . S
C667 C666 1.391 . S
H668 C676 0.950 . S
H669 C681 0.950 . S
H670 C678 0.950 . S
H671 C680 0.950 . S
H672 C682 0.950 . S
H673 C684 0.950 . S
H674 C686 0.950 . S
H675 C687 0.950 . S
C676 H668 0.950 . S
C676 C677 1.386 . S
C676 C678 1.391 . S
C677 C676 1.386 . S
C677 C681 1.393 1_554 S
C678 H670 0.950 . S
C678 C676 1.391 . S
C678 C679 1.400 . S
C679 C678 1.400 . S
C679 C680 1.398 1_554 S
C679 C685 1.491 1_554 S
C680 H671 0.950 . S
C680 C679 1.398 1_556 S
C680 C681 1.391 . S
C681 H669 0.950 . S
C681 C677 1.393 1_556 S
C681 C680 1.391 . S
C682 H672 0.950 . S
C682 C683 1.386 . S
C682 C684 1.391 . S
C683 C682 1.386 . S
C683 C687 1.393 1_556 S
C684 H673 0.950 . S
C684 C682 1.391 . S
C684 C685 1.400 . S
C685 C679 1.491 1_556 S
C685 C684 1.400 . S
C685 C686 1.398 1_556 S
C686 H674 0.950 . S
C686 C685 1.398 1_554 S
C686 C687 1.391 . S
C687 H675 0.950 . S
C687 C683 1.393 1_554 S
C687 C686 1.391 . S
H688 C696 0.950 1_455 S
H689 C701 0.950 . S
H690 C698 0.950 . S
H691 C700 0.950 . S
H692 C702 0.950 1_655 S
H693 C704 0.950 . S
H694 C706 0.950 . S
H695 C707 0.950 . S
C696 H688 0.950 1_655 S
C696 C697 1.386 1_556 S
C696 C698 1.391 1_655 S
C697 C696 1.386 1_554 S
C697 C701 1.393 . S
C698 H690 0.950 . S
C698 C696 1.391 1_455 S
C698 C699 1.400 1_456 S
C699 C698 1.400 1_654 S
C699 C700 1.398 . S
C699 C705 1.491 1_654 S
C700 H691 0.950 . S
C700 C699 1.398 . S
C700 C701 1.391 . S
C701 H689 0.950 . S
C701 C697 1.393 . S
C701 C700 1.391 . S
C702 H692 0.950 1_455 S
C702 C703 1.386 1_554 S
C702 C704 1.391 1_455 S
C703 C702 1.386 1_556 S
C703 C707 1.393 . S
C704 H693 0.950 . S
C704 C702 1.391 1_655 S
C704 C705 1.400 1_654 S
C705 C699 1.491 1_456 S
C705 C704 1.400 1_456 S
C705 C706 1.398 . S
C706 H694 0.950 . S
C706 C705 1.398 . S
C706 C707 1.391 . S
C707 H695 0.950 . S
C707 C703 1.393 . S
C707 C706 1.391 . S
H708 C716 0.950 . S
H709 C721 0.950 . S
H710 C718 0.950 . S
H711 C720 0.950 . S
H712 C722 0.950 . S
H713 C724 0.950 . S
H714 C726 0.950 . S
H715 C727 0.950 . S
C716 H708 0.950 . S
C716 C717 1.386 . S
C716 C718 1.391 . S
C717 C716 1.386 . S
C717 C721 1.393 . S
C718 H710 0.950 . S
C718 C716 1.391 . S
C718 C719 1.400 . S
C719 C718 1.400 . S
C719 C720 1.398 . S
C719 C725 1.491 . S
C720 H711 0.950 . S
C720 C719 1.398 . S
C720 C721 1.391 . S
C721 H709 0.950 . S
C721 C717 1.393 . S
C721 C720 1.391 . S
C722 H712 0.950 . S
C722 C723 1.386 . S
C722 C724 1.391 . S
C723 C722 1.386 . S
C723 C727 1.393 . S
C724 H713 0.950 . S
C724 C722 1.391 . S
C724 C725 1.400 . S
C725 C719 1.491 . S
C725 C724 1.400 . S
C725 C726 1.398 . S
C726 H714 0.950 . S
C726 C725 1.398 . S
C726 C727 1.391 . S
C727 H715 0.950 . S
C727 C723 1.393 . S
C727 C726 1.391 . S
H728 C736 0.950 . S
H729 C741 0.950 . S
H730 C738 0.950 . S
H731 C740 0.950 . S
H732 C742 0.950 . S
H733 C744 0.950 . S
H734 C746 0.950 . S
H735 C747 0.950 . S
C736 H728 0.950 . S
C736 C737 1.386 . S
C736 C738 1.391 . S
C737 C736 1.386 . S
C737 C741 1.393 1_556 S
C738 H730 0.950 . S
C738 C736 1.391 . S
C738 C739 1.400 . S
C739 C738 1.400 . S
C739 C740 1.398 1_556 S
C739 C745 1.491 1_556 S
C740 H731 0.950 . S
C740 C739 1.398 1_554 S
C740 C741 1.391 . S
C741 H729 0.950 . S
C741 C737 1.393 1_554 S
C741 C740 1.391 . S
C742 H732 0.950 . S
C742 C743 1.386 . S
C742 C744 1.391 . S
C743 C742 1.386 . S
C743 C747 1.393 1_554 S
C744 H733 0.950 . S
C744 C742 1.391 . S
C744 C745 1.400 . S
C745 C739 1.491 1_554 S
C745 C744 1.400 . S
C745 C746 1.398 1_554 S
C746 H734 0.950 . S
C746 C745 1.398 1_556 S
C746 C747 1.391 . S
C747 H735 0.950 . S
C747 C743 1.393 1_556 S
C747 C746 1.391 . S
H748 C756 0.950 . S
H749 C761 0.950 . S
H750 C758 0.950 . S
H751 C760 0.950 . S
H752 C762 0.950 . S
H753 C764 0.950 . S
H754 C766 0.950 . S
H755 C767 0.950 . S
C756 H748 0.950 . S
C756 C757 1.386 . S
C756 C758 1.391 . S
C757 C756 1.386 . S
C757 C761 1.393 . S
C758 H750 0.950 . S
C758 C756 1.391 . S
C758 C759 1.400 . S
C759 C758 1.400 . S
C759 C760 1.398 . S
C759 C765 1.491 . S
C760 H751 0.950 . S
C760 C759 1.398 . S
C760 C761 1.391 . S
C761 H749 0.950 . S
C761 C757 1.393 . S
C761 C760 1.391 . S
C762 H752 0.950 . S
C762 C763 1.386 . S
C762 C764 1.391 . S
C763 C762 1.386 . S
C763 C767 1.393 . S
C764 H753 0.950 . S
C764 C762 1.391 . S
C764 C765 1.400 . S
C765 C759 1.491 . S
C765 C764 1.400 . S
C765 C766 1.398 . S
C766 H754 0.950 . S
C766 C765 1.398 . S
C766 C767 1.391 . S
C767 H755 0.950 . S
C767 C763 1.393 . S
C767 C766 1.391 . S
H768 C776 0.950 . S
H769 C781 0.950 . S
H770 C778 0.941 1_565 S
H771 C780 0.950 . S
H772 C782 0.950 . S
H773 C784 0.941 1_545 S
H774 C786 0.950 . S
H775 C787 0.950 . S
C776 H768 0.950 . S
C776 C777 1.386 . S
C776 C778 1.391 . S
C777 C776 1.386 . S
C777 C781 1.393 1_556 S
C778 H770 0.941 1_545 S
C778 C776 1.391 . S
C778 C779 1.400 . S
C779 C778 1.400 . S
C779 C780 1.398 1_556 S
C779 C785 1.491 1_546 S
C780 H771 0.950 . S
C780 C779 1.398 1_554 S
C780 C781 1.391 . S
C781 H769 0.950 . S
C781 C777 1.393 1_554 S
C781 C780 1.391 . S
C782 H772 0.950 . S
C782 C783 1.386 . S
C782 C784 1.391 . S
C783 C782 1.386 . S
C783 C787 1.393 1_554 S
C784 H773 0.941 1_565 S
C784 C782 1.391 . S
C784 C785 1.400 . S
C785 C779 1.491 1_564 S
C785 C784 1.400 . S
C785 C786 1.398 1_554 S
C786 H774 0.950 . S
C786 C785 1.398 1_556 S
C786 C787 1.391 . S
C787 H775 0.950 . S
C787 C783 1.393 1_556 S
C787 C786 1.391 . S
H788 C796 0.950 . S
H789 C801 0.950 . S
H790 C798 0.950 . S
H791 C800 0.950 . S
H792 C802 0.950 . S
H793 C804 0.950 . S
H794 C806 0.950 . S
H795 C807 0.950 . S
C796 H788 0.950 . S
C796 C797 1.386 . S
C796 C798 1.391 . S
C797 C796 1.386 . S
C797 C801 1.393 . S
C798 H790 0.950 . S
C798 C796 1.391 . S
C798 C799 1.400 . S
C799 C798 1.400 . S
C799 C800 1.398 . S
C799 C805 1.491 . S
C800 H791 0.950 . S
C800 C799 1.398 . S
C800 C801 1.391 . S
C801 H789 0.950 . S
C801 C797 1.393 . S
C801 C800 1.391 . S
C802 H792 0.950 . S
C802 C803 1.386 . S
C802 C804 1.391 . S
C803 C802 1.386 . S
C803 C807 1.393 . S
C804 H793 0.950 . S
C804 C802 1.391 . S
C804 C805 1.400 . S
C805 C799 1.491 . S
C805 C804 1.400 . S
C805 C806 1.398 . S
C806 H794 0.950 . S
C806 C805 1.398 . S
C806 C807 1.391 . S
C807 H795 0.950 . S
C807 C803 1.393 . S
C807 C806 1.391 . S
H808 C816 0.950 . S
H809 C821 0.950 . S
H810 C818 0.950 . S
H811 C820 0.950 . S
H812 C822 0.950 . S
H813 C824 0.950 . S
H814 C826 0.950 . S
H815 C827 0.950 . S
C816 H808 0.950 . S
C816 C817 1.386 . S
C816 C818 1.391 . S
C817 C816 1.386 . S
C817 C821 1.393 . S
C818 H810 0.950 . S
C818 C816 1.391 . S
C818 C819 1.400 . S
C819 C818 1.400 . S
C819 C820 1.398 . S
C819 C825 1.491 . S
C820 H811 0.950 . S
C820 C819 1.398 . S
C820 C821 1.391 . S
C821 H809 0.950 . S
C821 C817 1.393 . S
C821 C820 1.391 . S
C822 H812 0.950 . S
C822 C823 1.386 . S
C822 C824 1.391 . S
C823 C822 1.386 . S
C823 C827 1.393 . S
C824 H813 0.950 . S
C824 C822 1.391 . S
C824 C825 1.400 . S
C825 C819 1.491 . S
C825 C824 1.400 . S
C825 C826 1.398 . S
C826 H814 0.950 . S
C826 C825 1.398 . S
C826 C827 1.391 . S
C827 H815 0.950 . S
C827 C823 1.393 . S
C827 C826 1.391 . S
H828 C836 0.950 . S
H829 C841 0.950 . S
H830 C838 0.950 . S
H831 C840 0.950 . S
H832 C842 0.950 . S
H833 C844 0.950 . S
H834 C846 0.950 . S
H835 C847 0.950 . S
C836 H828 0.950 . S
C836 C837 1.386 . S
C836 C838 1.391 . S
C837 C836 1.386 . S
C837 C841 1.393 . S
C838 H830 0.950 . S
C838 C836 1.391 . S
C838 C839 1.400 . S
C839 C838 1.400 . S
C839 C840 1.398 . S
C839 C845 1.491 . S
C840 H831 0.950 . S
C840 C839 1.398 . S
C840 C841 1.391 . S
C841 H829 0.950 . S
C841 C837 1.393 . S
C841 C840 1.391 . S
C842 H832 0.950 . S
C842 C843 1.386 . S
C842 C844 1.391 . S
C843 C842 1.386 . S
C843 C847 1.393 . S
C844 H833 0.950 . S
C844 C842 1.391 . S
C844 C845 1.400 . S
C845 C839 1.491 . S
C845 C844 1.400 . S
C845 C846 1.398 . S
C846 H834 0.950 . S
C846 C845 1.398 . S
C846 C847 1.391 . S
C847 H835 0.950 . S
C847 C843 1.393 . S
C847 C846 1.391 . S
H848 C856 0.950 . S
H849 C861 0.950 . S
H850 C858 0.950 . S
H851 C860 0.950 . S
H852 C862 0.950 . S
H853 C864 0.950 . S
H854 C866 0.950 . S
H855 C867 0.950 . S
C856 H848 0.950 . S
C856 C857 1.386 . S
C856 C858 1.391 . S
C857 C856 1.386 . S
C857 C861 1.393 . S
C858 H850 0.950 . S
C858 C856 1.391 . S
C858 C859 1.400 . S
C859 C858 1.400 . S
C859 C860 1.398 . S
C859 C865 1.491 . S
C860 H851 0.950 . S
C860 C859 1.398 . S
C860 C861 1.391 . S
C861 H849 0.950 . S
C861 C857 1.393 . S
C861 C860 1.391 . S
C862 H852 0.950 . S
C862 C863 1.386 . S
C862 C864 1.391 . S
C863 C862 1.386 . S
C863 C867 1.393 . S
C864 H853 0.950 . S
C864 C862 1.391 . S
C864 C865 1.400 . S
C865 C859 1.491 . S
C865 C864 1.400 . S
C865 C866 1.398 . S
C866 H854 0.950 . S
C866 C865 1.398 . S
C866 C867 1.391 . S
C867 H855 0.950 . S
C867 C863 1.393 . S
C867 C866 1.391 . S
H868 C876 0.950 . S
H869 C881 0.950 . S
H870 C878 0.950 . S
H871 C880 0.950 . S
H872 C882 0.950 . S
H873 C884 0.950 . S
H874 C886 0.950 . S
H875 C887 0.950 . S
C876 H868 0.950 . S
C876 C877 1.386 . S
C876 C878 1.391 . S
C877 C876 1.386 . S
C877 C881 1.393 . S
C878 H870 0.950 . S
C878 C876 1.391 . S
C878 C879 1.400 . S
C879 C878 1.400 . S
C879 C880 1.398 . S
C879 C885 1.491 . S
C880 H871 0.950 . S
C880 C879 1.398 . S
C880 C881 1.391 . S
C881 H869 0.950 . S
C881 C877 1.393 . S
C881 C880 1.391 . S
C882 H872 0.950 . S
C882 C883 1.386 . S
C882 C884 1.391 . S
C883 C882 1.386 . S
C883 C887 1.393 . S
C884 H873 0.950 . S
C884 C882 1.391 . S
C884 C885 1.400 . S
C885 C879 1.491 . S
C885 C884 1.400 . S
C885 C886 1.398 . S
C886 H874 0.950 . S
C886 C885 1.398 . S
C886 C887 1.391 . S
C887 H875 0.950 . S
C887 C883 1.393 . S
C887 C886 1.391 . S
H888 C896 0.950 . S
H889 C901 0.950 . S
H890 C898 0.950 . S
H891 C900 0.950 . S
H892 C902 0.950 . S
H893 C904 0.950 . S
H894 C906 0.950 . S
H895 C907 0.950 . S
C896 H888 0.950 . S
C896 C897 1.386 . S
C896 C898 1.391 . S
C897 C896 1.386 . S
C897 C901 1.393 . S
C898 H890 0.950 . S
C898 C896 1.391 . S
C898 C899 1.400 . S
C899 C898 1.400 . S
C899 C900 1.398 . S
C899 C905 1.491 . S
C900 H891 0.950 . S
C900 C899 1.398 . S
C900 C901 1.391 . S
C901 H889 0.950 . S
C901 C897 1.393 . S
C901 C900 1.391 . S
C902 H892 0.950 . S
C902 C903 1.386 . S
C902 C904 1.391 . S
C903 C902 1.386 . S
C903 C907 1.393 . S
C904 H893 0.950 . S
C904 C902 1.391 . S
C904 C905 1.400 . S
C905 C899 1.491 . S
C905 C904 1.400 . S
C905 C906 1.398 . S
C906 H894 0.950 . S
C906 C905 1.398 . S
C906 C907 1.391 . S
C907 H895 0.950 . S
C907 C903 1.393 . S
C907 C906 1.391 . S
H908 C916 0.950 . S
H909 C921 0.950 . S
H910 C918 0.950 . S
H911 C920 0.950 . S
H912 C922 0.950 . S
H913 C924 0.950 . S
H914 C926 0.950 . S
H915 C927 0.950 . S
C916 H908 0.950 . S
C916 C917 1.386 . S
C916 C918 1.391 . S
C917 C916 1.386 . S
C917 C921 1.393 . S
C918 H910 0.950 . S
C918 C916 1.391 . S
C918 C919 1.400 . S
C919 C918 1.400 . S
C919 C920 1.398 . S
C919 C925 1.491 . S
C920 H911 0.950 . S
C920 C919 1.398 . S
C920 C921 1.391 . S
C921 H909 0.950 . S
C921 C917 1.393 . S
C921 C920 1.391 . S
C922 H912 0.950 . S
C922 C923 1.386 . S
C922 C924 1.391 . S
C923 C922 1.386 . S
C923 C927 1.393 . S
C924 H913 0.950 . S
C924 C922 1.391 . S
C924 C925 1.400 . S
C925 C919 1.491 . S
C925 C924 1.400 . S
C925 C926 1.398 . S
C926 H914 0.950 . S
C926 C925 1.398 . S
C926 C927 1.391 . S
C927 H915 0.950 . S
C927 C923 1.393 . S
C927 C926 1.391 . S
H928 C936 0.950 . S
H929 C941 0.950 . S
H930 C938 0.950 . S
H931 C940 0.950 . S
H932 C942 0.950 . S
H933 C944 0.950 . S
H934 C946 0.950 . S
H935 C947 0.950 . S
C936 H928 0.950 . S
C936 C937 1.386 . S
C936 C938 1.391 . S
C937 C936 1.386 . S
C937 C941 1.393 . S
C938 H930 0.950 . S
C938 C936 1.391 . S
C938 C939 1.400 . S
C939 C938 1.400 . S
C939 C940 1.398 . S
C939 C945 1.491 . S
C940 H931 0.950 . S
C940 C939 1.398 . S
C940 C941 1.391 . S
C941 H929 0.950 . S
C941 C937 1.393 . S
C941 C940 1.391 . S
C942 H932 0.950 . S
C942 C943 1.386 . S
C942 C944 1.391 . S
C943 C942 1.386 . S
C943 C947 1.393 . S
C944 H933 0.950 . S
C944 C942 1.391 . S
C944 C945 1.400 . S
C945 C939 1.491 . S
C945 C944 1.400 . S
C945 C946 1.398 . S
C946 H934 0.950 . S
C946 C945 1.398 . S
C946 C947 1.391 . S
C947 H935 0.950 . S
C947 C943 1.393 . S
C947 C946 1.391 . S
H948 C956 0.950 . S
H949 C961 0.950 . S
H950 C958 0.950 . S
H951 C960 0.950 . S
H952 C962 0.950 . S
H953 C964 0.950 . S
H954 C966 0.950 . S
H955 C967 0.950 . S
C956 H948 0.950 . S
C956 C957 1.386 . S
C956 C958 1.391 . S
C957 C956 1.386 . S
C957 C961 1.393 . S
C958 H950 0.950 . S
C958 C956 1.391 . S
C958 C959 1.400 . S
C959 C958 1.400 . S
C959 C960 1.398 . S
C959 C965 1.491 . S
C960 H951 0.950 . S
C960 C959 1.398 . S
C960 C961 1.391 . S
C961 H949 0.950 . S
C961 C957 1.393 . S
C961 C960 1.391 . S
C962 H952 0.950 . S
C962 C963 1.386 . S
C962 C964 1.391 . S
C963 C962 1.386 . S
C963 C967 1.393 . S
C964 H953 0.950 . S
C964 C962 1.391 . S
C964 C965 1.400 . S
C965 C959 1.491 . S
C965 C964 1.400 . S
C965 C966 1.398 . S
C966 H954 0.950 . S
C966 C965 1.398 . S
C966 C967 1.391 . S
C967 H955 0.950 . S
C967 C963 1.393 . S
C967 C966 1.391 . S
H968 C976 0.950 . S
H969 C981 0.950 . S
H970 C978 0.950 . S
H971 C980 0.950 . S
H972 C982 0.950 . S
H973 C984 0.950 . S
H974 C986 0.950 . S
H975 C987 0.950 . S
C976 H968 0.950 . S
C976 C977 1.386 . S
C976 C978 1.391 . S
C977 C976 1.386 . S
C977 C981 1.393 . S
C978 H970 0.950 . S
C978 C976 1.391 . S
C978 C979 1.400 . S
C979 C978 1.400 . S
C979 C980 1.398 . S
C979 C985 1.491 . S
C980 H971 0.950 . S
C980 C979 1.398 . S
C980 C981 1.391 . S
C981 H969 0.950 . S
C981 C977 1.393 . S
C981 C980 1.391 . S
C982 H972 0.950 . S
C982 C983 1.386 . S
C982 C984 1.391 . S
C983 C982 1.386 . S
C983 C987 1.393 . S
C984 H973 0.950 . S
C984 C982 1.391 . S
C984 C985 1.400 . S
C985 C979 1.491 . S
C985 C984 1.400 . S
C985 C986 1.398 . S
C986 H974 0.950 . S
C986 C985 1.398 . S
C986 C987 1.391 . S
C987 H975 0.950 . S
C987 C983 1.393 . S
C987 C986 1.391 . S
H988 C996 0.950 . S
H989 C1001 0.950 . S
H990 C998 0.950 . S
H991 C1000 0.950 . S
H992 C1002 0.950 . S
H993 C1004 0.950 . S
H994 C1006 0.950 . S
H995 C1007 0.950 . S
C996 H988 0.950 . S
C996 C997 1.386 . S
C996 C998 1.391 . S
C997 C996 1.386 . S
C997 C1001 1.393 . S
C998 H990 0.950 . S
C998 C996 1.391 . S
C998 C999 1.400 . S
C999 C998 1.400 . S
C999 C1000 1.398 . S
C999 C1005 1.491 . S
C1000 H991 0.950 . S
C1000 C999 1.398 . S
C1000 C1001 1.391 . S
C1001 H989 0.950 . S
C1001 C997 1.393 . S
C1001 C1000 1.391 . S
C1002 H992 0.950 . S
C1002 C1003 1.386 . S
C1002 C1004 1.391 . S
C1003 C1002 1.386 . S
C1003 C1007 1.393 . S
C1004 H993 0.950 . S
C1004 C1002 1.391 . S
C1004 C1005 1.400 . S
C1005 C999 1.491 . S
C1005 C1004 1.400 . S
C1005 C1006 1.398 . S
C1006 H994 0.950 . S
C1006 C1005 1.398 . S
C1006 C1007 1.391 . S
C1007 H995 0.950 . S
C1007 C1003 1.393 . S
C1007 C1006 1.391 . S
H1008 C1016 0.950 . S
H1009 C1021 0.950 . S
H1010 C1018 0.950 . S
H1011 C1020 0.950 . S
H1012 C1022 0.950 . S
H1013 C1024 0.950 . S
H1014 C1026 0.950 . S
H1015 C1027 0.950 . S
C1016 H1008 0.950 . S
C1016 C1017 1.386 . S
C1016 C1018 1.391 . S
C1017 C1016 1.386 . S
C1017 C1021 1.393 . S
C1018 H1010 0.950 . S
C1018 C1016 1.391 . S
C1018 C1019 1.400 . S
C1019 C1018 1.400 . S
C1019 C1020 1.398 . S
C1019 C1025 1.491 . S
C1020 H1011 0.950 . S
C1020 C1019 1.398 . S
C1020 C1021 1.391 . S
C1021 H1009 0.950 . S
C1021 C1017 1.393 . S
C1021 C1020 1.391 . S
C1022 H1012 0.950 . S
C1022 C1023 1.386 . S
C1022 C1024 1.391 . S
C1023 C1022 1.386 . S
C1023 C1027 1.393 . S
C1024 H1013 0.950 . S
C1024 C1022 1.391 . S
C1024 C1025 1.400 . S
C1025 C1019 1.491 . S
C1025 C1024 1.400 . S
C1025 C1026 1.398 . S
C1026 H1014 0.950 . S
C1026 C1025 1.398 . S
C1026 C1027 1.391 . S
C1027 H1015 0.950 . S
C1027 C1023 1.393 . S
C1027 C1026 1.391 . S
H1028 C1036 0.950 . S
H1029 C1041 0.950 . S
H1030 C1038 0.950 . S
H1031 C1040 0.950 . S
H1032 C1042 0.950 . S
H1033 C1044 0.950 . S
H1034 C1046 0.950 . S
H1035 C1047 0.950 . S
C1036 H1028 0.950 . S
C1036 C1037 1.386 . S
C1036 C1038 1.391 . S
C1037 C1036 1.386 . S
C1037 C1041 1.393 . S
C1038 H1030 0.950 . S
C1038 C1036 1.391 . S
C1038 C1039 1.400 . S
C1039 C1038 1.400 . S
C1039 C1040 1.398 . S
C1039 C1045 1.491 . S
C1040 H1031 0.950 . S
C1040 C1039 1.398 . S
C1040 C1041 1.391 . S
C1041 H1029 0.950 . S
C1041 C1037 1.393 . S
C1041 C1040 1.391 . S
C1042 H1032 0.950 . S
C1042 C1043 1.386 . S
C1042 C1044 1.391 . S
C1043 C1042 1.386 . S
C1043 C1047 1.393 . S
C1044 H1033 0.950 . S
C1044 C1042 1.391 . S
C1044 C1045 1.400 . S
C1045 C1039 1.491 . S
C1045 C1044 1.400 . S
C1045 C1046 1.398 . S
C1046 H1034 0.950 . S
C1046 C1045 1.398 . S
C1046 C1047 1.391 . S
C1047 H1035 0.950 . S
C1047 C1043 1.393 . S
C1047 C1046 1.391 . S
H1048 C1056 0.950 . S
H1049 C1061 0.950 . S
H1050 C1058 0.950 . S
H1051 C1060 0.950 . S
H1052 C1062 0.950 . S
H1053 C1064 0.950 . S
H1054 C1066 0.950 . S
H1055 C1067 0.950 . S
C1056 H1048 0.950 . S
C1056 C1057 1.386 . S
C1056 C1058 1.391 . S
C1057 C1056 1.386 . S
C1057 C1061 1.393 . S
C1058 H1050 0.950 . S
C1058 C1056 1.391 . S
C1058 C1059 1.400 . S
C1059 C1058 1.400 . S
C1059 C1060 1.398 . S
C1059 C1065 1.491 . S
C1060 H1051 0.950 . S
C1060 C1059 1.398 . S
C1060 C1061 1.391 . S
C1061 H1049 0.950 . S
C1061 C1057 1.393 . S
C1061 C1060 1.391 . S
C1062 H1052 0.950 . S
C1062 C1063 1.386 . S
C1062 C1064 1.391 . S
C1063 C1062 1.386 . S
C1063 C1067 1.393 . S
C1064 H1053 0.950 . S
C1064 C1062 1.391 . S
C1064 C1065 1.400 . S
C1065 C1059 1.491 . S
C1065 C1064 1.400 . S
C1065 C1066 1.398 . S
C1066 H1054 0.950 . S
C1066 C1065 1.398 . S
C1066 C1067 1.391 . S
C1067 H1055 0.950 . S
C1067 C1063 1.393 . S
C1067 C1066 1.391 . S
H1068 C1076 0.950 . S
H1069 C1081 0.950 . S
H1070 C1078 0.950 . S
H1071 C1080 0.950 . S
H1072 C1082 0.950 . S
H1073 C1084 0.950 . S
H1074 C1086 0.950 . S
H1075 C1087 0.950 . S
C1076 H1068 0.950 . S
C1076 C1077 1.386 . S
C1076 C1078 1.391 . S
C1077 C1076 1.386 . S
C1077 C1081 1.393 . S
C1078 H1070 0.950 . S
C1078 C1076 1.391 . S
C1078 C1079 1.400 . S
C1079 C1078 1.400 . S
C1079 C1080 1.398 . S
C1079 C1085 1.491 . S
C1080 H1071 0.950 . S
C1080 C1079 1.398 . S
C1080 C1081 1.391 . S
C1081 H1069 0.950 . S
C1081 C1077 1.393 . S
C1081 C1080 1.391 . S
C1082 H1072 0.950 . S
C1082 C1083 1.386 . S
C1082 C1084 1.391 . S
C1083 C1082 1.386 . S
C1083 C1087 1.393 . S
C1084 H1073 0.950 . S
C1084 C1082 1.391 . S
C1084 C1085 1.400 . S
C1085 C1079 1.491 . S
C1085 C1084 1.400 . S
C1085 C1086 1.398 . S
C1086 H1074 0.950 . S
C1086 C1085 1.398 . S
C1086 C1087 1.391 . S
C1087 H1075 0.950 . S
C1087 C1083 1.393 . S
C1087 C1086 1.391 . S
H1088 C1096 0.950 . S
H1089 C1101 0.950 . S
H1090 C1098 0.950 . S
H1091 C1100 0.950 . S
H1092 C1102 0.950 . S
H1093 C1104 0.950 . S
H1094 C1106 0.950 . S
H1095 C1107 0.950 . S
C1096 H1088 0.950 . S
C1096 C1097 1.386 . S
C1096 C1098 1.391 . S
C1097 C1096 1.386 . S
C1097 C1101 1.393 . S
C1098 H1090 0.950 . S
C1098 C1096 1.391 . S
C1098 C1099 1.400 . S
C1099 C1098 1.400 . S
C1099 C1100 1.398 . S
C1099 C1105 1.491 . S
C1100 H1091 0.950 . S
C1100 C1099 1.398 . S
C1100 C1101 1.391 . S
C1101 H1089 0.950 . S
C1101 C1097 1.393 . S
C1101 C1100 1.391 . S
C1102 H1092 0.950 . S
C1102 C1103 1.386 . S
C1102 C1104 1.391 . S
C1103 C1102 1.386 . S
C1103 C1107 1.393 . S
C1104 H1093 0.950 . S
C1104 C1102 1.391 . S
C1104 C1105 1.400 . S
C1105 C1099 1.491 . S
C1105 C1104 1.400 . S
C1105 C1106 1.398 . S
C1106 H1094 0.950 . S
C1106 C1105 1.398 . S
C1106 C1107 1.391 . S
C1107 H1095 0.950 . S
C1107 C1103 1.393 . S
C1107 C1106 1.391 . S
H1108 C1116 0.950 . S
H1109 C1121 0.950 . S
H1110 C1118 0.950 . S
H1111 C1120 0.950 . S
H1112 C1122 0.950 . S
H1113 C1124 0.950 . S
H1114 C1126 0.950 . S
H1115 C1127 0.950 . S
C1116 H1108 0.950 . S
C1116 C1117 1.386 . S
C1116 C1118 1.391 . S
C1117 C1116 1.386 . S
C1117 C1121 1.393 . S
C1118 H1110 0.950 . S
C1118 C1116 1.391 . S
C1118 C1119 1.400 . S
C1119 C1118 1.400 . S
C1119 C1120 1.398 . S
C1119 C1125 1.491 . S
C1120 H1111 0.950 . S
C1120 C1119 1.398 . S
C1120 C1121 1.391 . S
C1121 H1109 0.950 . S
C1121 C1117 1.393 . S
C1121 C1120 1.391 . S
C1122 H1112 0.950 . S
C1122 C1123 1.386 . S
C1122 C1124 1.391 . S
C1123 C1122 1.386 . S
C1123 C1127 1.393 . S
C1124 H1113 0.950 . S
C1124 C1122 1.391 . S
C1124 C1125 1.400 . S
C1125 C1119 1.491 . S
C1125 C1124 1.400 . S
C1125 C1126 1.398 . S
C1126 H1114 0.950 . S
C1126 C1125 1.398 . S
C1126 C1127 1.391 . S
C1127 H1115 0.950 . S
C1127 C1123 1.393 . S
C1127 C1126 1.391 . S
H1128 C1136 0.950 . S
H1129 C1141 0.950 . S
H1130 C1138 0.950 . S
H1131 C1140 0.950 . S
H1132 C1142 0.950 . S
H1133 C1144 0.950 . S
H1134 C1146 0.950 . S
H1135 C1147 0.950 . S
C1136 H1128 0.950 . S
C1136 C1137 1.386 . S
C1136 C1138 1.391 . S
C1137 C1136 1.386 . S
C1137 C1141 1.393 . S
C1138 H1130 0.950 . S
C1138 C1136 1.391 . S
C1138 C1139 1.400 . S
C1139 C1138 1.400 . S
C1139 C1140 1.398 . S
C1139 C1145 1.491 . S
C1140 H1131 0.950 . S
C1140 C1139 1.398 . S
C1140 C1141 1.391 . S
C1141 H1129 0.950 . S
C1141 C1137 1.393 . S
C1141 C1140 1.391 . S
C1142 H1132 0.950 . S
C1142 C1143 1.386 . S
C1142 C1144 1.391 . S
C1143 C1142 1.386 . S
C1143 C1147 1.393 . S
C1144 H1133 0.950 . S
C1144 C1142 1.391 . S
C1144 C1145 1.400 . S
C1145 C1139 1.491 . S
C1145 C1144 1.400 . S
C1145 C1146 1.398 . S
C1146 H1134 0.950 . S
C1146 C1145 1.398 . S
C1146 C1147 1.391 . S
C1147 H1135 0.950 . S
C1147 C1143 1.393 . S
C1147 C1146 1.391 . S
H1148 C1156 0.950 . S
H1149 C1161 0.950 . S
H1150 C1158 0.950 . S
H1151 C1160 0.950 . S
H1152 C1162 0.950 . S
H1153 C1164 0.950 . S
H1154 C1166 0.950 . S
H1155 C1167 0.950 . S
C1156 H1148 0.950 . S
C1156 C1157 1.386 . S
C1156 C1158 1.391 . S
C1157 C1156 1.386 . S
C1157 C1161 1.393 . S
C1158 H1150 0.950 . S
C1158 C1156 1.391 . S
C1158 C1159 1.400 . S
C1159 C1158 1.400 . S
C1159 C1160 1.398 . S
C1159 C1165 1.491 . S
C1160 H1151 0.950 . S
C1160 C1159 1.398 . S
C1160 C1161 1.391 . S
C1161 H1149 0.950 . S
C1161 C1157 1.393 . S
C1161 C1160 1.391 . S
C1162 H1152 0.950 . S
C1162 C1163 1.386 . S
C1162 C1164 1.391 . S
C1163 C1162 1.386 . S
C1163 C1167 1.393 . S
C1164 H1153 0.950 . S
C1164 C1162 1.391 . S
C1164 C1165 1.400 . S
C1165 C1159 1.491 . S
C1165 C1164 1.400 . S
C1165 C1166 1.398 . S
C1166 H1154 0.950 . S
C1166 C1165 1.398 . S
C1166 C1167 1.391 . S
C1167 H1155 0.950 . S
C1167 C1163 1.393 . S
C1167 C1166 1.391 . S
H1168 C1176 0.950 . S
H1169 C1181 0.950 . S
H1170 C1178 0.950 . S
H1171 C1180 0.950 . S
H1172 C1182 0.950 . S
H1173 C1184 0.950 . S
H1174 C1186 0.950 . S
H1175 C1187 0.950 . S
C1176 H1168 0.950 . S
C1176 C1177 1.386 . S
C1176 C1178 1.391 . S
C1177 C1176 1.386 . S
C1177 C1181 1.393 . S
C1178 H1170 0.950 . S
C1178 C1176 1.391 . S
C1178 C1179 1.400 . S
C1179 C1178 1.400 . S
C1179 C1180 1.398 . S
C1179 C1185 1.491 . S
C1180 H1171 0.950 . S
C1180 C1179 1.398 . S
C1180 C1181 1.391 . S
C1181 H1169 0.950 . S
C1181 C1177 1.393 . S
C1181 C1180 1.391 . S
C1182 H1172 0.950 . S
C1182 C1183 1.386 . S
C1182 C1184 1.391 . S
C1183 C1182 1.386 . S
C1183 C1187 1.393 . S
C1184 H1173 0.950 . S
C1184 C1182 1.391 . S
C1184 C1185 1.400 . S
C1185 C1179 1.491 . S
C1185 C1184 1.400 . S
C1185 C1186 1.398 . S
C1186 H1174 0.950 . S
C1186 C1185 1.398 . S
C1186 C1187 1.391 . S
C1187 H1175 0.950 . S
C1187 C1183 1.393 . S
C1187 C1186 1.391 . S
H1188 C1196 0.950 . S
H1189 C1201 0.950 . S
H1190 C1198 0.950 . S
H1191 C1200 0.950 . S
H1192 C1202 0.950 . S
H1193 C1204 0.950 . S
H1194 C1206 0.950 . S
H1195 C1207 0.950 . S
C1196 H1188 0.950 . S
C1196 C1197 1.386 . S
C1196 C1198 1.391 . S
C1197 C1196 1.386 . S
C1197 C1201 1.393 . S
C1198 H1190 0.950 . S
C1198 C1196 1.391 . S
C1198 C1199 1.400 . S
C1199 C1198 1.400 . S
C1199 C1200 1.398 . S
C1199 C1205 1.491 . S
C1200 H1191 0.950 . S
C1200 C1199 1.398 . S
C1200 C1201 1.391 . S
C1201 H1189 0.950 . S
C1201 C1197 1.393 . S
C1201 C1200 1.391 . S
C1202 H1192 0.950 . S
C1202 C1203 1.386 . S
C1202 C1204 1.391 . S
C1203 C1202 1.386 . S
C1203 C1207 1.393 . S
C1204 H1193 0.950 . S
C1204 C1202 1.391 . S
C1204 C1205 1.400 . S
C1205 C1199 1.491 . S
C1205 C1204 1.400 . S
C1205 C1206 1.398 . S
C1206 H1194 0.950 . S
C1206 C1205 1.398 . S
C1206 C1207 1.391 . S
C1207 H1195 0.950 . S
C1207 C1203 1.393 . S
C1207 C1206 1.391 . S
H1208 C1216 0.950 . S
H1209 C1221 0.950 . S
H1210 C1218 0.950 . S
H1211 C1220 0.950 . S
H1212 C1222 0.950 . S
H1213 C1224 0.950 . S
H1214 C1226 0.950 . S
H1215 C1227 0.950 . S
C1216 H1208 0.950 . S
C1216 C1217 1.386 . S
C1216 C1218 1.391 . S
C1217 C1216 1.386 . S
C1217 C1221 1.393 . S
C1218 H1210 0.950 . S
C1218 C1216 1.391 . S
C1218 C1219 1.400 . S
C1219 C1218 1.400 . S
C1219 C1220 1.398 . S
C1219 C1225 1.491 . S
C1220 H1211 0.950 . S
C1220 C1219 1.398 . S
C1220 C1221 1.391 . S
C1221 H1209 0.950 . S
C1221 C1217 1.393 . S
C1221 C1220 1.391 . S
C1222 H1212 0.950 . S
C1222 C1223 1.386 . S
C1222 C1224 1.391 . S
C1223 C1222 1.386 . S
C1223 C1227 1.393 . S
C1224 H1213 0.950 . S
C1224 C1222 1.391 . S
C1224 C1225 1.400 . S
C1225 C1219 1.491 . S
C1225 C1224 1.400 . S
C1225 C1226 1.398 . S
C1226 H1214 0.950 . S
C1226 C1225 1.398 . S
C1226 C1227 1.391 . S
C1227 H1215 0.950 . S
C1227 C1223 1.393 . S
C1227 C1226 1.391 . S
H1228 C1236 0.950 . S
H1229 C1241 0.950 . S
H1230 C1238 0.950 . S
H1231 C1240 0.950 . S
H1232 C1242 0.950 . S
H1233 C1244 0.950 . S
H1234 C1246 0.950 . S
H1235 C1247 0.950 . S
C1236 H1228 0.950 . S
C1236 C1237 1.386 . S
C1236 C1238 1.391 . S
C1237 C1236 1.386 . S
C1237 C1241 1.393 . S
C1238 H1230 0.950 . S
C1238 C1236 1.391 . S
C1238 C1239 1.400 . S
C1239 C1238 1.400 . S
C1239 C1240 1.398 . S
C1239 C1245 1.491 . S
C1240 H1231 0.950 . S
C1240 C1239 1.398 . S
C1240 C1241 1.391 . S
C1241 H1229 0.950 . S
C1241 C1237 1.393 . S
C1241 C1240 1.391 . S
C1242 H1232 0.950 . S
C1242 C1243 1.386 . S
C1242 C1244 1.391 . S
C1243 C1242 1.386 . S
C1243 C1247 1.393 . S
C1244 H1233 0.950 . S
C1244 C1242 1.391 . S
C1244 C1245 1.400 . S
C1245 C1239 1.491 . S
C1245 C1244 1.400 . S
C1245 C1246 1.398 . S
C1246 H1234 0.950 . S
C1246 C1245 1.398 . S
C1246 C1247 1.391 . S
C1247 H1235 0.950 . S
C1247 C1243 1.393 . S
C1247 C1246 1.391 . S
H1248 C1256 0.950 . S
H1249 C1261 0.950 . S
H1250 C1258 0.950 . S
H1251 C1260 0.950 . S
H1252 C1262 0.950 . S
H1253 C1264 0.950 . S
H1254 C1266 0.950 . S
H1255 C1267 0.950 . S
C1256 H1248 0.950 . S
C1256 C1257 1.386 . S
C1256 C1258 1.391 . S
C1257 C1256 1.386 . S
C1257 C1261 1.393 . S
C1258 H1250 0.950 . S
C1258 C1256 1.391 . S
C1258 C1259 1.400 . S
C1259 C1258 1.400 . S
C1259 C1260 1.398 . S
C1259 C1265 1.491 . S
C1260 H1251 0.950 . S
C1260 C1259 1.398 . S
C1260 C1261 1.391 . S
C1261 H1249 0.950 . S
C1261 C1257 1.393 . S
C1261 C1260 1.391 . S
C1262 H1252 0.950 . S
C1262 C1263 1.386 . S
C1262 C1264 1.391 . S
C1263 C1262 1.386 . S
C1263 C1267 1.393 . S
C1264 H1253 0.950 . S
C1264 C1262 1.391 . S
C1264 C1265 1.400 . S
C1265 C1259 1.491 . S
C1265 C1264 1.400 . S
C1265 C1266 1.398 . S
C1266 H1254 0.950 . S
C1266 C1265 1.398 . S
C1266 C1267 1.391 . S
C1267 H1255 0.950 . S
C1267 C1263 1.393 . S
C1267 C1266 1.391 . S
H1268 C1276 0.950 . S
H1269 C1281 0.950 . S
H1270 C1278 0.950 . S
H1271 C1280 0.950 . S
H1272 C1282 0.950 . S
H1273 C1284 0.950 . S
H1274 C1286 0.950 . S
H1275 C1287 0.950 . S
C1276 H1268 0.950 . S
C1276 C1277 1.386 . S
C1276 C1278 1.391 . S
C1277 C1276 1.386 . S
C1277 C1281 1.393 . S
C1278 H1270 0.950 . S
C1278 C1276 1.391 . S
C1278 C1279 1.400 . S
C1279 C1278 1.400 . S
C1279 C1280 1.398 . S
C1279 C1285 1.491 . S
C1280 H1271 0.950 . S
C1280 C1279 1.398 . S
C1280 C1281 1.391 . S
C1281 H1269 0.950 . S
C1281 C1277 1.393 . S
C1281 C1280 1.391 . S
C1282 H1272 0.950 . S
C1282 C1283 1.386 . S
C1282 C1284 1.391 . S
C1283 C1282 1.386 . S
C1283 C1287 1.393 . S
C1284 H1273 0.950 . S
C1284 C1282 1.391 . S
C1284 C1285 1.400 . S
C1285 C1279 1.491 . S
C1285 C1284 1.400 . S
C1285 C1286 1.398 . S
C1286 H1274 0.950 . S
C1286 C1285 1.398 . S
C1286 C1287 1.391 . S
C1287 H1275 0.950 . S
C1287 C1283 1.393 . S
C1287 C1286 1.391 . S
H1288 C1296 0.950 . S
H1289 C1301 0.950 . S
H1290 C1298 0.950 . S
H1291 C1300 0.950 . S
H1292 C1302 0.950 . S
H1293 C1304 0.950 . S
H1294 C1306 0.950 . S
H1295 C1307 0.950 . S
C1296 H1288 0.950 . S
C1296 C1297 1.386 . S
C1296 C1298 1.391 . S
C1297 C1296 1.386 . S
C1297 C1301 1.393 . S
C1298 H1290 0.950 . S
C1298 C1296 1.391 . S
C1298 C1299 1.400 . S
C1299 C1298 1.400 . S
C1299 C1300 1.398 . S
C1299 C1305 1.491 . S
C1300 H1291 0.950 . S
C1300 C1299 1.398 . S
C1300 C1301 1.391 . S
C1301 H1289 0.950 . S
C1301 C1297 1.393 . S
C1301 C1300 1.391 . S
C1302 H1292 0.950 . S
C1302 C1303 1.386 . S
C1302 C1304 1.391 . S
C1303 C1302 1.386 . S
C1303 C1307 1.393 . S
C1304 H1293 0.950 . S
C1304 C1302 1.391 . S
C1304 C1305 1.400 . S
C1305 C1299 1.491 . S
C1305 C1304 1.400 . S
C1305 C1306 1.398 . S
C1306 H1294 0.950 . S
C1306 C1305 1.398 . S
C1306 C1307 1.391 . S
C1307 H1295 0.950 . S
C1307 C1303 1.393 . S
C1307 C1306 1.391 . S
H1308 C1316 0.950 . S
H1309 C1321 0.950 . S
H1310 C1318 0.950 . S
H1311 C1320 0.950 . S
H1312 C1322 0.950 . S
H1313 C1324 0.950 . S
H1314 C1326 0.950 . S
H1315 C1327 0.950 . S
C1316 H1308 0.950 . S
C1316 C1317 1.386 . S
C1316 C1318 1.391 . S
C1317 C1316 1.386 . S
C1317 C1321 1.393 . S
C1318 H1310 0.950 . S
C1318 C1316 1.391 . S
C1318 C1319 1.400 . S
C1319 C1318 1.400 . S
C1319 C1320 1.398 . S
C1319 C1325 1.491 . S
C1320 H1311 0.950 . S
C1320 C1319 1.398 . S
C1320 C1321 1.391 . S
C1321 H1309 0.950 . S
C1321 C1317 1.393 . S
C1321 C1320 1.391 . S
C1322 H1312 0.950 . S
C1322 C1323 1.386 . S
C1322 C1324 1.391 . S
C1323 C1322 1.386 . S
C1323 C1327 1.393 . S
C1324 H1313 0.950 . S
C1324 C1322 1.391 . S
C1324 C1325 1.400 . S
C1325 C1319 1.491 . S
C1325 C1324 1.400 . S
C1325 C1326 1.398 . S
C1326 H1314 0.950 . S
C1326 C1325 1.398 . S
C1326 C1327 1.391 . S
C1327 H1315 0.950 . S
C1327 C1323 1.393 . S
C1327 C1326 1.391 . S
C537 N2 1.601 . S
C543 N464 1.601 . S
C557 N79 1.603 . S
C563 N13 1.603 . S
C577 N35 1.576 . S
C583 N365 1.576 . S
C597 N244 1.604 . S
C603 N46 1.604 . S
C617 N68 1.601 . S
C623 N398 1.601 . S
C637 N101 1.577 . S
C643 N299 1.577 . S
C657 N112 1.602 . S
C663 N178 1.602 . S
C677 N332 1.584 . S
C683 N134 1.584 . S
C697 N211 1.605 . S
C703 N145 1.605 . S
C717 N167 1.597 . S
C723 N497 1.597 . S
C737 N266 1.579 . S
C743 N200 1.579 . S
C757 N431 1.594 . S
C763 N233 1.594 . S
C777 N277 1.603 . S
C783 N343 1.603 . S
C797 N508 1.601 . S
C803 N310 1.601 . S
C817 N376 1.605 . S
C823 N442 1.605 . S
C837 N409 1.598 . S
C843 N475 1.598 . S
C857 C7 1.110 . S
C863 C318 1.131 . S
C877 C304 1.124 . S
C883 C21 1.142 . S
C897 C40 1.116 . S
C903 C285 1.140 . S
C917 C54 1.138 . S
C923 C271 1.114 . S
C937 C384 1.140 . S
C943 C73 1.130 . S
C957 C370 1.132 . S
C963 C87 1.127 . S
C977 C106 1.135 . S
C983 C351 1.134 . S
C997 C120 1.123 . S
C1003 C337 1.124 . S
C1017 C139 1.123 . S
C1023 C450 1.123 . S
C1037 C436 1.122 . S
C1043 C153 1.142 . S
C1057 C172 1.135 . S
C1063 C417 1.130 . S
C1077 C403 1.115 . S
C1083 C186 1.139 . S
C1097 C516 1.132 . S
C1103 C205 1.110 . S
C1117 C219 1.135 . S
C1123 C502 1.135 . S
C1137 C238 1.117 . S
C1143 C483 1.124 . S
C1157 C252 1.133 . S
C1163 C469 1.135 . S
C1177 C51 1.090 . S
C1183 C18 1.090 . S
C1197 C84 1.090 . S
C1203 C117 1.090 . S
C1217 C150 1.094 . S
C1223 C183 1.094 . S
C1237 C216 1.090 . S
C1243 C249 1.090 . S
C1257 C315 1.090 . S
C1263 C282 1.091 . S
C1277 C381 1.096 . S
C1283 C348 1.096 . S
C1297 C414 1.090 . S
C1303 C447 1.090 . S
C1317 C513 1.092 . S
C1323 C480 1.091 . S
