# Generated by pormake.
# Topology soh, (5)-cn, num edge types: 1
# Building blocks:
#     Node 0, Type 0, BuildingBlock: XOMCOT_clean_sbu_1, # of connection points: 5
#     Node 1, Type 0, BuildingBlock: XOMCOT_clean_sbu_1, # of connection points: 5
#     Node 2, Type 0, BuildingBlock: XOMCOT_clean_sbu_1, # of connection points: 5
#     Node 3, Type 0, BuildingBlock: XOMCOT_clean_sbu_1, # of connection points: 5
#     Node 4, Type 0, BuildingBlock: XOMCOT_clean_sbu_1, # of connection points: 5
#     Node 5, Type 0, BuildingBlock: XOMCOT_clean_sbu_1, # of connection points: 5
#     Node 6, Type 0, BuildingBlock: XOMCOT_clean_sbu_1, # of connection points: 5
#     Node 7, Type 0, BuildingBlock: XOMCOT_clean_sbu_1, # of connection points: 5
#     Node 8, Type 0, BuildingBlock: XOMCOT_clean_sbu_1, # of connection points: 5
#     Node 9, Type 0, BuildingBlock: XOMCOT_clean_sbu_1, # of connection points: 5
#     Node 10, Type 0, BuildingBlock: XOMCOT_clean_sbu_1, # of connection points: 5
#     Node 11, Type 0, BuildingBlock: XOMCOT_clean_sbu_1, # of connection points: 5
#     Node 12, Type 0, BuildingBlock: XOMCOT_clean_sbu_1, # of connection points: 5
#     Node 13, Type 0, BuildingBlock: XOMCOT_clean_sbu_1, # of connection points: 5
#     Node 14, Type 0, BuildingBlock: XOMCOT_clean_sbu_1, # of connection points: 5
#     Node 15, Type 0, BuildingBlock: XOMCOT_clean_sbu_1, # of connection points: 5
#     Node 16, Type 0, BuildingBlock: XOMCOT_clean_sbu_1, # of connection points: 5
#     Node 17, Type 0, BuildingBlock: XOMCOT_clean_sbu_1, # of connection points: 5
#     Node 18, Type 0, BuildingBlock: XOMCOT_clean_sbu_1, # of connection points: 5
#     Node 19, Type 0, BuildingBlock: XOMCOT_clean_sbu_1, # of connection points: 5
#     Node 20, Type 0, BuildingBlock: XOMCOT_clean_sbu_1, # of connection points: 5
#     Node 21, Type 0, BuildingBlock: XOMCOT_clean_sbu_1, # of connection points: 5
#     Node 22, Type 0, BuildingBlock: XOMCOT_clean_sbu_1, # of connection points: 5
#     Node 23, Type 0, BuildingBlock: XOMCOT_clean_sbu_1, # of connection points: 5
#     Node 24, Type 0, BuildingBlock: XOMCOT_clean_sbu_1, # of connection points: 5
#     Node 25, Type 0, BuildingBlock: XOMCOT_clean_sbu_1, # of connection points: 5
#     Node 26, Type 0, BuildingBlock: XOMCOT_clean_sbu_1, # of connection points: 5
#     Node 27, Type 0, BuildingBlock: XOMCOT_clean_sbu_1, # of connection points: 5
#     Node 28, Type 0, BuildingBlock: XOMCOT_clean_sbu_1, # of connection points: 5
#     Node 29, Type 0, BuildingBlock: XOMCOT_clean_sbu_1, # of connection points: 5
#     Node 30, Type 0, BuildingBlock: XOMCOT_clean_sbu_1, # of connection points: 5
#     Node 31, Type 0, BuildingBlock: XOMCOT_clean_sbu_1, # of connection points: 5
#     Edge 32, Type (0, 0), BuildingBlock: KIFKEQ_clean_linker_1, # of connection points: 2
#     Edge 33, Type (0, 0), BuildingBlock: KIFKEQ_clean_linker_1, # of connection points: 2
#     Edge 34, Type (0, 0), BuildingBlock: KIFKEQ_clean_linker_1, # of connection points: 2
#     Edge 35, Type (0, 0), BuildingBlock: KIFKEQ_clean_linker_1, # of connection points: 2
#     Edge 36, Type (0, 0), BuildingBlock: KIFKEQ_clean_linker_1, # of connection points: 2
#     Edge 37, Type (0, 0), BuildingBlock: KIFKEQ_clean_linker_1, # of connection points: 2
#     Edge 38, Type (0, 0), BuildingBlock: KIFKEQ_clean_linker_1, # of connection points: 2
#     Edge 39, Type (0, 0), BuildingBlock: KIFKEQ_clean_linker_1, # of connection points: 2
#     Edge 40, Type (0, 0), BuildingBlock: KIFKEQ_clean_linker_1, # of connection points: 2
#     Edge 41, Type (0, 0), BuildingBlock: KIFKEQ_clean_linker_1, # of connection points: 2
#     Edge 42, Type (0, 0), BuildingBlock: KIFKEQ_clean_linker_1, # of connection points: 2
#     Edge 43, Type (0, 0), BuildingBlock: KIFKEQ_clean_linker_1, # of connection points: 2
#     Edge 44, Type (0, 0), BuildingBlock: KIFKEQ_clean_linker_1, # of connection points: 2
#     Edge 45, Type (0, 0), BuildingBlock: KIFKEQ_clean_linker_1, # of connection points: 2
#     Edge 46, Type (0, 0), BuildingBlock: KIFKEQ_clean_linker_1, # of connection points: 2
#     Edge 47, Type (0, 0), BuildingBlock: KIFKEQ_clean_linker_1, # of connection points: 2
#     Edge 48, Type (0, 0), BuildingBlock: KIFKEQ_clean_linker_1, # of connection points: 2
#     Edge 49, Type (0, 0), BuildingBlock: KIFKEQ_clean_linker_1, # of connection points: 2
#     Edge 50, Type (0, 0), BuildingBlock: KIFKEQ_clean_linker_1, # of connection points: 2
#     Edge 51, Type (0, 0), BuildingBlock: KIFKEQ_clean_linker_1, # of connection points: 2
#     Edge 52, Type (0, 0), BuildingBlock: KIFKEQ_clean_linker_1, # of connection points: 2
#     Edge 53, Type (0, 0), BuildingBlock: KIFKEQ_clean_linker_1, # of connection points: 2
#     Edge 54, Type (0, 0), BuildingBlock: KIFKEQ_clean_linker_1, # of connection points: 2
#     Edge 55, Type (0, 0), BuildingBlock: KIFKEQ_clean_linker_1, # of connection points: 2
#     Edge 56, Type (0, 0), BuildingBlock: KIFKEQ_clean_linker_1, # of connection points: 2
#     Edge 57, Type (0, 0), BuildingBlock: KIFKEQ_clean_linker_1, # of connection points: 2
#     Edge 58, Type (0, 0), BuildingBlock: KIFKEQ_clean_linker_1, # of connection points: 2
#     Edge 59, Type (0, 0), BuildingBlock: KIFKEQ_clean_linker_1, # of connection points: 2
#     Edge 60, Type (0, 0), BuildingBlock: KIFKEQ_clean_linker_1, # of connection points: 2
#     Edge 61, Type (0, 0), BuildingBlock: KIFKEQ_clean_linker_1, # of connection points: 2
#     Edge 62, Type (0, 0), BuildingBlock: KIFKEQ_clean_linker_1, # of connection points: 2
#     Edge 63, Type (0, 0), BuildingBlock: KIFKEQ_clean_linker_1, # of connection points: 2
#     Edge 64, Type (0, 0), BuildingBlock: KIFKEQ_clean_linker_1, # of connection points: 2
#     Edge 65, Type (0, 0), BuildingBlock: KIFKEQ_clean_linker_1, # of connection points: 2
#     Edge 66, Type (0, 0), BuildingBlock: KIFKEQ_clean_linker_1, # of connection points: 2
#     Edge 67, Type (0, 0), BuildingBlock: KIFKEQ_clean_linker_1, # of connection points: 2
#     Edge 68, Type (0, 0), BuildingBlock: KIFKEQ_clean_linker_1, # of connection points: 2
#     Edge 69, Type (0, 0), BuildingBlock: KIFKEQ_clean_linker_1, # of connection points: 2
#     Edge 70, Type (0, 0), BuildingBlock: KIFKEQ_clean_linker_1, # of connection points: 2
#     Edge 71, Type (0, 0), BuildingBlock: KIFKEQ_clean_linker_1, # of connection points: 2
#     Edge 72, Type (0, 0), BuildingBlock: KIFKEQ_clean_linker_1, # of connection points: 2
#     Edge 73, Type (0, 0), BuildingBlock: KIFKEQ_clean_linker_1, # of connection points: 2
#     Edge 74, Type (0, 0), BuildingBlock: KIFKEQ_clean_linker_1, # of connection points: 2
#     Edge 75, Type (0, 0), BuildingBlock: KIFKEQ_clean_linker_1, # of connection points: 2
#     Edge 76, Type (0, 0), BuildingBlock: KIFKEQ_clean_linker_1, # of connection points: 2
#     Edge 77, Type (0, 0), BuildingBlock: KIFKEQ_clean_linker_1, # of connection points: 2
#     Edge 78, Type (0, 0), BuildingBlock: KIFKEQ_clean_linker_1, # of connection points: 2
#     Edge 79, Type (0, 0), BuildingBlock: KIFKEQ_clean_linker_1, # of connection points: 2
#     Edge 80, Type (0, 0), BuildingBlock: KIFKEQ_clean_linker_1, # of connection points: 2
#     Edge 81, Type (0, 0), BuildingBlock: KIFKEQ_clean_linker_1, # of connection points: 2
#     Edge 82, Type (0, 0), BuildingBlock: KIFKEQ_clean_linker_1, # of connection points: 2
#     Edge 83, Type (0, 0), BuildingBlock: KIFKEQ_clean_linker_1, # of connection points: 2
#     Edge 84, Type (0, 0), BuildingBlock: KIFKEQ_clean_linker_1, # of connection points: 2
#     Edge 85, Type (0, 0), BuildingBlock: KIFKEQ_clean_linker_1, # of connection points: 2
#     Edge 86, Type (0, 0), BuildingBlock: KIFKEQ_clean_linker_1, # of connection points: 2
#     Edge 87, Type (0, 0), BuildingBlock: KIFKEQ_clean_linker_1, # of connection points: 2
#     Edge 88, Type (0, 0), BuildingBlock: KIFKEQ_clean_linker_1, # of connection points: 2
#     Edge 89, Type (0, 0), BuildingBlock: KIFKEQ_clean_linker_1, # of connection points: 2
#     Edge 90, Type (0, 0), BuildingBlock: KIFKEQ_clean_linker_1, # of connection points: 2
#     Edge 91, Type (0, 0), BuildingBlock: KIFKEQ_clean_linker_1, # of connection points: 2
#     Edge 92, Type (0, 0), BuildingBlock: KIFKEQ_clean_linker_1, # of connection points: 2
#     Edge 93, Type (0, 0), BuildingBlock: KIFKEQ_clean_linker_1, # of connection points: 2
#     Edge 94, Type (0, 0), BuildingBlock: KIFKEQ_clean_linker_1, # of connection points: 2
#     Edge 95, Type (0, 0), BuildingBlock: KIFKEQ_clean_linker_1, # of connection points: 2
#     Edge 96, Type (0, 0), BuildingBlock: KIFKEQ_clean_linker_1, # of connection points: 2
#     Edge 97, Type (0, 0), BuildingBlock: KIFKEQ_clean_linker_1, # of connection points: 2
#     Edge 98, Type (0, 0), BuildingBlock: KIFKEQ_clean_linker_1, # of connection points: 2
#     Edge 99, Type (0, 0), BuildingBlock: KIFKEQ_clean_linker_1, # of connection points: 2
#     Edge 100, Type (0, 0), BuildingBlock: KIFKEQ_clean_linker_1, # of connection points: 2
#     Edge 101, Type (0, 0), BuildingBlock: KIFKEQ_clean_linker_1, # of connection points: 2
#     Edge 102, Type (0, 0), BuildingBlock: KIFKEQ_clean_linker_1, # of connection points: 2
#     Edge 103, Type (0, 0), BuildingBlock: KIFKEQ_clean_linker_1, # of connection points: 2
#     Edge 104, Type (0, 0), BuildingBlock: KIFKEQ_clean_linker_1, # of connection points: 2
#     Edge 105, Type (0, 0), BuildingBlock: KIFKEQ_clean_linker_1, # of connection points: 2
#     Edge 106, Type (0, 0), BuildingBlock: KIFKEQ_clean_linker_1, # of connection points: 2
#     Edge 107, Type (0, 0), BuildingBlock: KIFKEQ_clean_linker_1, # of connection points: 2
#     Edge 108, Type (0, 0), BuildingBlock: KIFKEQ_clean_linker_1, # of connection points: 2
#     Edge 109, Type (0, 0), BuildingBlock: KIFKEQ_clean_linker_1, # of connection points: 2
#     Edge 110, Type (0, 0), BuildingBlock: KIFKEQ_clean_linker_1, # of connection points: 2
#     Edge 111, Type (0, 0), BuildingBlock: KIFKEQ_clean_linker_1, # of connection points: 2
# Relax obj value: 0.202
# Max RMSD: 0.172
# Mean RMSD: 0.172
data_MOF--net-soh--node1-XOMCOT_clean_sbu_1--edge1-KIFKEQ_clean_linker_1
_symmetry_space_group_name_H-M    P1
_symmetry_Int_Tables_number       1
_symmetry_cell_setting            triclinic
loop_
_symmetry_equiv_pos_as_xyz
'x, y, z'
_cell_length_a     85.711175
_cell_length_b     44.520097
_cell_length_c     45.217292
_cell_angle_alpha  89.985472
_cell_angle_beta   89.899976
_cell_angle_gamma 90.028584
loop_
_atom_site_label
_atom_site_type_symbol
_atom_site_fract_x
_atom_site_fract_y
_atom_site_fract_z
_atom_type_partial_charge
C0 C 0.30317 0.37672 0.22482 0.0
C1 C 0.30182 0.39055 0.25177 0.0
N2 N 0.3119 0.37758 0.27071 0.0
N3 N 0.3143 0.35531 0.22622 0.0
C4 C 0.3195 0.35664 0.25446 0.0
H5 H 0.29581 0.38117 0.20597 0.0
Co6 Co 0.31874 0.32577 0.19744 0.0
C7 C 0.35127 0.33996 0.17813 0.0
O8 O 0.34701 0.33458 0.15082 0.0
N9 N 0.32287 0.29499 0.16847 0.0
C10 C 0.32489 0.26908 0.12627 0.0
C11 C 0.3223 0.29678 0.13854 0.0
C12 C 0.32578 0.26541 0.17348 0.0
N13 N 0.32702 0.24922 0.14825 0.0
O14 O 0.32151 0.29685 0.22858 0.0
H15 H 0.32028 0.31692 0.12582 0.0
H16 H 0.3269 0.25562 0.19521 0.0
O17 O 0.34119 0.33744 0.19897 0.0
C18 C 0.30801 0.28907 0.23775 0.0
O19 O 0.29566 0.30115 0.22535 0.0
N20 N 0.31382 0.35363 0.16767 0.0
C21 C 0.29952 0.39432 0.12925 0.0
C22 C 0.31414 0.40078 0.1419 0.0
C23 C 0.32104 0.38024 0.16142 0.0
C24 C 0.29953 0.34733 0.156 0.0
C25 C 0.29229 0.36706 0.13648 0.0
H26 H 0.33171 0.38646 0.17252 0.0
H27 H 0.29355 0.32696 0.16252 0.0
H28 H 0.3279 0.341 0.26345 0.0
H29 H 0.29352 0.40802 0.25713 0.0
H30 H 0.32473 0.26389 0.10289 0.0
H31 H 0.32006 0.42175 0.13722 0.0
H32 H 0.28083 0.36147 0.12807 0.0
C33 C 1.01109 0.90783 0.22476 0.0
C34 C 1.01357 0.8946 0.25182 0.0
N35 N 1.00134 0.90099 0.2695 0.0
N36 N 0.99729 0.92235 0.22522 0.0
C37 C 0.99155 0.91754 0.2527 0.0
H38 H 1.01931 0.90852 0.20659 0.0
Co39 Co 0.99042 0.95061 0.19742 0.0
C40 C 0.95849 0.92513 0.18508 0.0
O41 O 0.96187 0.92183 0.15701 0.0
N42 N 0.98365 0.98038 0.16959 0.0
C43 C 0.9759 1.00502 0.12911 0.0
C44 C 0.97876 0.97725 0.14129 0.0
C45 C 0.98382 1.01061 0.17366 0.0
N46 N 0.97914 0.02607 0.14951 0.0
O47 O 0.98803 0.97897 0.22916 0.0
H48 H 0.97804 0.95634 0.12934 0.0
H49 H 0.98746 0.0214 0.19388 0.0
O50 O 0.96858 0.93618 0.20292 0.0
C51 C 1.00178 0.98761 0.23595 0.0
O52 O 1.01358 0.978 0.21995 0.0
N53 N 0.99509 0.92309 0.16688 0.0
C54 C 1.00987 0.88311 0.12811 0.0
C55 C 0.99798 0.87321 0.14723 0.0
C56 C 0.99093 0.89344 0.16685 0.0
C57 C 1.00668 0.93297 0.14857 0.0
C58 C 1.01403 0.91355 0.12876 0.0
H59 H 0.9828 0.88495 0.18313 0.0
H60 H 1.0107 0.95595 0.15018 0.0
H61 H 0.98112 0.92833 0.26106 0.0
H62 H 1.02396 0.88254 0.25844 0.0
H63 H 0.97238 1.00937 0.10654 0.0
H64 H 0.99472 0.84972 0.14814 0.0
H65 H 1.02316 0.92223 0.11453 0.0
C66 C 0.3022 0.90592 0.03135 0.0
C67 C 0.30251 0.8924 1.00403 0.0
N68 N 0.31484 0.90318 0.98887 0.0
N69 N 0.31442 0.92489 0.03364 0.0
C70 C 0.32189 0.92272 0.00739 0.0
H71 H 0.29319 0.90308 0.04785 0.0
Co72 Co 0.31844 0.95238 0.06379 0.0
C73 C 0.35066 0.9378 0.08362 0.0
O74 O 0.34593 0.9422 0.11087 0.0
N75 N 0.32231 0.9816 0.09452 0.0
C76 C 0.32315 1.00616 0.13765 0.0
C77 C 0.32053 0.979 0.12423 0.0
C78 C 0.32621 1.01097 0.09087 0.0
N79 N 0.32661 0.02642 0.11662 0.0
O80 O 0.32109 0.98282 0.0341 0.0
H81 H 0.3176 0.95869 0.13603 0.0
H82 H 0.32861 0.02117 0.06968 0.0
O83 O 0.34094 0.94111 0.06235 0.0
C84 C 0.30755 0.99443 0.03121 0.0
O85 O 0.29629 0.98484 0.04857 0.0
N86 N 0.31335 0.92278 0.0917 0.0
C87 C 0.29896 0.88051 0.12836 0.0
C88 C 0.31367 0.87469 0.11572 0.0
C89 C 0.32061 0.89601 0.09699 0.0
C90 C 0.29884 0.92817 0.10289 0.0
C91 C 0.29156 0.90766 0.12154 0.0
H92 H 0.33142 0.89048 0.086 0.0
H93 H 0.29281 0.94863 0.09698 0.0
H94 H 0.33197 0.93616 1.00159 0.0
H95 H 0.29377 0.87724 0.99534 0.0
H96 H 0.32204 1.01076 0.16105 0.0
H97 H 0.31969 0.85375 0.11997 0.0
H98 H 0.27999 0.91273 0.12983 0.0
C99 C 1.01063 0.36442 0.03437 0.0
C100 C 1.01224 0.37799 0.00723 0.0
N101 N 0.99941 0.37204 0.99098 0.0
N102 N 0.99677 0.35018 0.0355 0.0
C103 C 0.9902 0.3552 0.0088 0.0
H104 H 1.01937 0.36364 0.05157 0.0
Co105 Co 0.99023 0.32354 0.06485 0.0
C106 C 0.95836 0.34671 0.07933 0.0
O107 O 0.962 0.34607 0.10744 0.0
N108 N 0.98382 0.29495 0.09478 0.0
C109 C 0.97904 0.27194 0.13783 0.0
C110 C 0.98185 0.29898 0.12424 0.0
C111 C 0.98208 0.26475 0.09143 0.0
N112 N 0.97933 0.25017 0.11722 0.0
O113 O 0.98761 0.29385 0.03461 0.0
H114 H 0.98283 0.32011 0.13581 0.0
H115 H 0.98343 0.25324 0.07063 0.0
O116 O 0.96836 0.33824 0.05995 0.0
C117 C 1.00109 0.28189 0.03214 0.0
O118 O 1.01208 0.29025 0.05065 0.0
N119 N 0.99532 0.35254 0.09361 0.0
C120 C 1.01019 0.39443 0.1301 0.0
C121 C 0.99725 0.40273 0.11283 0.0
C122 C 0.99015 0.38156 0.09426 0.0
C123 C 1.00802 0.34432 0.10984 0.0
C124 C 1.01544 0.36467 0.12856 0.0
H125 H 0.9811 0.38891 0.07932 0.0
H126 H 1.01267 0.32184 0.10766 0.0
H127 H 0.97918 0.34545 1.0022 0.0
H128 H 1.02253 0.3897 0.99952 0.0
H129 H 0.97722 0.26873 0.16129 0.0
H130 H 0.99312 0.4257 0.11258 0.0
H131 H 1.02536 0.35718 0.14138 0.0
C132 C 0.75888 0.65731 0.78192 0.0
C133 C 0.75935 0.64389 0.75452 0.0
N134 N 0.74671 0.65277 0.73915 0.0
N135 N 0.74588 0.67424 0.78398 0.0
C136 C 0.73872 0.67103 0.75759 0.0
H137 H 0.7678 0.65585 0.79873 0.0
Co138 Co 0.74041 0.70091 0.81402 0.0
C139 C 0.70857 0.68001 0.83097 0.0
O140 O 0.71271 0.68176 0.8588 0.0
N141 N 0.73499 0.72942 0.84468 0.0
C142 C 0.73176 0.75267 0.88813 0.0
C143 C 0.73449 0.72566 0.87442 0.0
C144 C 0.73237 0.75935 0.84128 0.0
N145 N 0.73055 0.77404 0.86726 0.0
O146 O 0.73763 0.73121 0.78436 0.0
H147 H 0.73615 0.70468 0.88599 0.0
H148 H 0.73239 0.77069 0.82021 0.0
O149 O 0.71832 0.6873 0.81068 0.0
C150 C 0.75118 0.74287 0.78169 0.0
O151 O 0.76232 0.73349 0.79937 0.0
N152 N 0.74569 0.67144 0.84205 0.0
C153 C 0.76044 0.62942 0.87843 0.0
C154 C 0.74682 0.6218 0.86281 0.0
C155 C 0.73978 0.643 0.84418 0.0
C156 C 0.75915 0.67879 0.85634 0.0
C157 C 0.76654 0.6584 0.87498 0.0
H158 H 0.73006 0.63613 0.83059 0.0
H159 H 0.76428 0.70072 0.85296 0.0
H160 H 0.72815 0.68284 0.75164 0.0
H161 H 0.76874 0.63014 0.74597 0.0
H162 H 0.73092 0.75621 0.91175 0.0
H163 H 0.74198 0.59937 0.86412 0.0
H164 H 0.77699 0.66537 0.88655 0.0
C165 C 0.05148 0.12509 0.78448 0.0
C166 C 0.04994 0.13862 0.75741 0.0
N167 N 0.06029 0.1262 0.73857 0.0
N168 N 0.063 0.10448 0.78324 0.0
C169 C 0.06819 0.10581 0.75497 0.0
H170 H 0.04411 0.12932 0.80342 0.0
Co171 Co 0.06825 0.07616 0.81242 0.0
C172 C 0.10067 0.0924 0.82984 0.0
O173 O 0.0964 0.0886 0.85743 0.0
N174 N 0.07328 0.04625 0.84207 0.0
C175 C 0.07575 0.02138 0.88482 0.0
C176 C 0.07287 0.04869 0.87198 0.0
C177 C 0.07657 0.01669 0.83771 0.0
N178 N 0.07798 1.00108 0.86327 0.0
O179 O 0.07055 0.04654 0.78177 0.0
H180 H 0.07067 0.069 0.88431 0.0
H181 H 0.07779 1.00646 0.81619 0.0
O182 O 0.09062 0.08854 0.80921 0.0
C183 C 0.05703 0.03473 0.77929 0.0
O184 O 0.04596 0.04379 0.79735 0.0
N185 N 0.06346 0.10463 0.84174 0.0
C186 C 0.04922 0.14388 0.88168 0.0
C187 C 0.06327 0.15184 0.86752 0.0
C188 C 0.07017 0.13191 0.84725 0.0
C189 C 0.04948 0.09737 0.85429 0.0
C190 C 0.04232 0.11632 0.87459 0.0
H191 H 0.08049 0.13886 0.83533 0.0
H192 H 0.0438 0.07656 0.84829 0.0
H193 H 0.07693 0.09073 0.74617 0.0
H194 H 0.04141 0.15563 0.75197 0.0
H195 H 0.07563 0.01672 0.90831 0.0
H196 H 0.06879 0.17324 0.87194 0.0
H197 H 0.03125 0.10967 0.88416 0.0
C198 C 0.75998 0.11731 0.97553 0.0
C199 C 0.7614 0.13025 1.00298 0.0
N200 N 0.74904 0.12194 0.01951 0.0
N201 N 0.74671 0.10104 0.97462 0.0
C202 C 0.74024 0.10446 1.00171 0.0
H203 H 0.7686 0.11816 0.95808 0.0
Co204 Co 0.74137 0.07321 0.9455 0.0
C205 C 0.70878 0.08957 0.92941 0.0
O206 O 0.71283 0.08698 0.90157 0.0
N207 N 0.73623 0.04349 0.91582 0.0
C208 C 0.73315 0.01892 0.87308 0.0
C209 C 0.73582 0.04632 0.88597 0.0
C210 C 0.73367 0.01364 0.92011 0.0
N211 N 0.73193 0.99817 0.89455 0.0
O212 O 0.73954 0.04345 0.97604 0.0
H213 H 0.73732 0.06698 0.87378 0.0
H214 H 0.73362 1.00299 0.94154 0.0
O215 O 0.71901 0.08502 0.94959 0.0
C216 C 0.75336 0.03294 0.97843 0.0
O217 O 0.76403 0.04265 0.95983 0.0
N218 N 0.74573 0.10232 0.91651 0.0
C219 C 0.75998 0.1452 0.88018 0.0
C220 C 0.74598 0.15176 0.89519 0.0
C221 C 0.73916 0.13012 0.91374 0.0
C222 C 0.75938 0.09582 0.90236 0.0
C223 C 0.76653 0.11662 0.88377 0.0
H224 H 0.72916 0.13629 0.92698 0.0
H225 H 0.76497 0.07439 0.90613 0.0
H226 H 0.73002 0.09224 0.00905 0.0
H227 H 0.7712 0.14343 0.01069 0.0
H228 H 0.73227 0.01474 0.84957 0.0
H229 H 0.74075 0.17384 0.89373 0.0
H230 H 0.77725 0.11043 0.87264 0.0
C231 C 0.05467 0.65394 0.97733 0.0
C232 C 0.05458 0.63966 1.00422 0.0
N233 N 0.06674 0.64976 0.02027 0.0
N234 N 0.06694 0.67288 0.97606 0.0
C235 C 0.0741 0.66975 1.00252 0.0
H236 H 0.04575 0.65193 0.96063 0.0
Co237 Co 0.07065 0.70211 0.94705 0.0
C238 C 0.10378 0.69178 0.92793 0.0
O239 O 0.10026 0.7013 0.90135 0.0
N240 N 0.07399 0.73274 0.91763 0.0
C241 C 0.07494 0.75813 0.87501 0.0
C242 C 0.07272 0.73056 0.88781 0.0
C243 C 0.07694 0.76241 0.92205 0.0
N244 N 0.07755 0.77831 0.89653 0.0
O245 O 0.07316 0.73139 0.97794 0.0
H246 H 0.07058 0.71021 0.87551 0.0
H247 H 0.07856 0.77241 0.94359 0.0
O248 O 0.0932 0.6913 0.94799 0.0
C249 C 0.05932 0.73818 0.98607 0.0
O250 O 0.04752 0.7257 0.97219 0.0
N251 N 0.06592 0.67363 0.91789 0.0
C252 C 0.05222 0.63178 0.87994 0.0
C253 C 0.06734 0.62713 0.89118 0.0
C254 C 0.07393 0.6482 0.91056 0.0
C255 C 0.05121 0.67827 0.90738 0.0
C256 C 0.04423 0.65791 0.88817 0.0
H257 H 0.08509 0.64338 0.9205 0.0
H258 H 0.04478 0.69793 0.91438 0.0
H259 H 0.08406 0.68311 0.00909 0.0
H260 H 0.04553 0.62466 0.01204 0.0
H261 H 0.07425 0.76297 0.8516 0.0
H262 H 0.07377 0.60688 0.88594 0.0
H263 H 0.03262 0.66258 0.87997 0.0
C264 C 0.30359 0.87185 0.72783 0.0
C265 C 0.30368 0.88547 0.75512 0.0
N266 N 0.31579 0.87452 0.7707 0.0
N267 N 0.31573 0.85265 0.726 0.0
C268 C 0.32294 0.8548 0.75247 0.0
H269 H 0.29476 0.87478 0.71105 0.0
Co270 Co 0.31998 0.82487 0.6962 0.0
C271 C 0.35297 0.83762 0.67836 0.0
O272 O 0.34925 0.831 0.65103 0.0
N273 N 0.32403 0.79533 0.6658 0.0
C274 C 0.32518 0.77102 0.62258 0.0
C275 C 0.32288 0.79827 0.63603 0.0
C276 C 0.32719 0.76562 0.66948 0.0
N277 N 0.32775 0.75031 0.64364 0.0
O278 O 0.32207 0.79462 0.72623 0.0
H279 H 0.32071 0.81893 0.62424 0.0
H280 H 0.32855 0.75496 0.69076 0.0
O281 O 0.3425 0.83603 0.69859 0.0
C282 C 0.30839 0.78345 0.72872 0.0
O283 O 0.29748 0.79292 0.7106 0.0
N284 N 0.31542 0.85434 0.66788 0.0
C285 C 0.30131 0.89707 0.6314 0.0
C286 C 0.31621 0.90224 0.64345 0.0
C287 C 0.323 0.8807 0.66214 0.0
C288 C 0.30091 0.84927 0.65663 0.0
C289 C 0.29376 0.87001 0.6381 0.0
H290 H 0.33393 0.88582 0.67284 0.0
H291 H 0.29476 0.82889 0.66243 0.0
H292 H 0.33288 0.84122 0.75862 0.0
H293 H 0.29492 0.90079 0.76349 0.0
H294 H 0.32494 0.7669 0.59901 0.0
H295 H 0.3223 0.92315 0.63933 0.0
H296 H 0.28237 0.8648 0.62915 0.0
C297 C 1.00913 0.40369 0.72677 0.0
C298 C 1.01061 0.39052 0.75408 0.0
N299 N 0.99901 0.40064 0.77155 0.0
N300 N 0.99656 0.42194 0.72678 0.0
C301 C 0.99054 0.41936 0.75437 0.0
H302 H 1.01739 0.40163 0.7088 0.0
Co303 Co 0.99189 0.45106 0.69812 0.0
C304 C 0.95922 0.43736 0.6807 0.0
O305 O 0.96351 0.44135 0.65314 0.0
N306 N 0.98746 0.48187 0.66914 0.0
C307 C 0.98491 0.50771 0.62701 0.0
C308 C 0.98774 0.48007 0.63921 0.0
C309 C 0.98441 0.51144 0.67422 0.0
N310 N 0.98285 0.52762 0.649 0.0
O311 O 0.99034 0.48027 0.72923 0.0
H312 H 0.98967 0.45995 0.62643 0.0
H313 H 0.98339 0.52117 0.69601 0.0
O314 O 0.96934 0.44037 0.70133 0.0
C315 C 1.00455 0.48733 0.73414 0.0
O316 O 1.01538 0.47559 0.71707 0.0
N317 N 0.99598 0.42248 0.6685 0.0
C318 C 1.00958 0.38024 0.63061 0.0
C319 C 0.99531 0.37413 0.64489 0.0
C320 C 0.98881 0.39542 0.66423 0.0
C321 C 1.00997 0.42838 0.6553 0.0
C322 C 1.01679 0.40796 0.63592 0.0
H323 H 0.97852 0.38951 0.67675 0.0
H324 H 1.01599 0.44913 0.66024 0.0
H325 H 0.98102 0.43305 0.76249 0.0
H326 H 1.02002 0.37595 0.76105 0.0
H327 H 0.98481 0.51278 0.60361 0.0
H328 H 0.98955 0.35267 0.6421 0.0
H329 H 1.02772 0.41387 0.62538 0.0
C330 C 0.29827 0.41002 0.53595 0.0
C331 C 0.29623 0.39582 0.50925 0.0
N332 N 0.30813 0.40347 0.49114 0.0
N333 N 0.31154 0.42623 0.53501 0.0
C334 C 0.31728 0.4218 0.50751 0.0
H335 H 0.2903 0.40939 0.55451 0.0
Co336 Co 0.31886 0.45336 0.5632 0.0
C337 C 0.3509 0.42835 0.57371 0.0
O338 O 0.34791 0.42575 0.60202 0.0
N339 N 0.32631 0.48209 0.59183 0.0
C340 C 0.33351 0.50496 0.63368 0.0
C341 C 0.33022 0.47787 0.62056 0.0
C342 C 0.32749 0.51233 0.58834 0.0
N343 N 0.33171 0.52675 0.6134 0.0
O344 O 0.32056 0.48281 0.53226 0.0
H345 H 0.33013 0.45662 0.63206 0.0
H346 H 0.3247 0.52402 0.56815 0.0
O347 O 0.34054 0.43888 0.55612 0.0
C348 C 0.30691 0.4943 0.53098 0.0
O349 O 0.29651 0.48567 0.55063 0.0
N350 N 0.31449 0.42503 0.59297 0.0
C351 C 0.29994 0.38571 0.63263 0.0
C352 C 0.31185 0.37552 0.61368 0.0
C353 C 0.31884 0.39549 0.5936 0.0
C354 C 0.30262 0.43489 0.61054 0.0
C355 C 0.29539 0.41587 0.63074 0.0
H356 H 0.32717 0.38695 0.57772 0.0
H357 H 0.29839 0.45765 0.60817 0.0
H358 H 0.32748 0.43338 0.49919 0.0
H359 H 0.28643 0.38167 0.50351 0.0
H360 H 0.3367 0.50831 0.65659 0.0
H361 H 0.31556 0.35227 0.614 0.0
H362 H 0.28587 0.42455 0.644 0.0
C363 C 1.01094 0.86434 0.53318 0.0
C364 C 1.01297 0.87747 0.50593 0.0
N365 N 1.00038 0.8713 0.48913 0.0
N366 N 0.99704 0.8502 0.53384 0.0
C367 C 0.99087 0.85484 0.50673 0.0
H368 H 1.01945 0.86374 0.55079 0.0
Co369 Co 0.99006 0.82385 0.56307 0.0
C370 C 0.95837 0.84801 0.57722 0.0
O371 O 0.9619 0.84714 0.60539 0.0
N372 N 0.98319 0.79555 0.59295 0.0
C373 C 0.97887 0.77232 0.63609 0.0
C374 C 0.98168 0.79941 0.62254 0.0
C375 C 0.98092 0.76552 0.58943 0.0
N376 N 0.97854 0.75077 0.61526 0.0
O377 O 0.98714 0.79427 0.53277 0.0
H378 H 0.98311 0.82038 0.63423 0.0
H379 H 0.98132 0.75429 0.56834 0.0
O380 O 0.9684 0.83944 0.55794 0.0
C381 C 1.00037 0.78124 0.53059 0.0
O382 O 1.01143 0.78872 0.54932 0.0
N383 N 0.99547 0.8525 0.59197 0.0
C384 C 1.01039 0.89204 0.63086 0.0
C385 C 0.99775 0.90173 0.61346 0.0
C386 C 0.99057 0.88166 0.59375 0.0
C387 C 1.00815 0.84328 0.60769 0.0
C388 C 1.01558 0.86239 0.62755 0.0
H389 H 0.98151 0.88984 0.57924 0.0
H390 H 1.01268 0.82085 0.60442 0.0
H391 H 0.97994 0.84504 0.49967 0.0
H392 H 1.02339 0.88897 0.49853 0.0
H393 H 0.97796 0.76877 0.65969 0.0
H394 H 0.99355 0.92461 0.61487 0.0
H395 H 1.02562 0.85418 0.63961 0.0
C396 C 0.75829 0.15527 0.28161 0.0
C397 C 0.75906 0.14121 0.25464 0.0
N398 N 0.74659 0.14954 0.23848 0.0
N399 N 0.74528 0.17221 0.2828 0.0
C400 C 0.73839 0.16831 0.25619 0.0
H401 H 0.76716 0.15445 0.29854 0.0
Co402 Co 0.74031 0.20004 0.31216 0.0
C403 C 0.70751 0.18639 0.32938 0.0
O404 O 0.71138 0.19226 0.35681 0.0
N405 N 0.73563 0.22977 0.3421 0.0
C406 C 0.73391 0.25506 0.38474 0.0
C407 C 0.73687 0.22771 0.37194 0.0
C408 C 0.73174 0.25905 0.33773 0.0
N409 N 0.7308 0.27493 0.36319 0.0
O410 O 0.73824 0.22987 0.28186 0.0
H411 H 0.73964 0.20765 0.38424 0.0
H412 H 0.72977 0.26891 0.31624 0.0
O413 O 0.71791 0.18834 0.30903 0.0
C414 C 0.7517 0.24201 0.27989 0.0
O415 O 0.76263 0.23327 0.29833 0.0
N416 N 0.74479 0.17085 0.34094 0.0
C417 C 0.7586 0.12834 0.37815 0.0
C418 C 0.74402 0.1227 0.36493 0.0
C419 C 0.7374 0.14412 0.3459 0.0
C420 C 0.75904 0.17631 0.35315 0.0
C421 C 0.76601 0.15571 0.37211 0.0
H422 H 0.72678 0.13861 0.33431 0.0
H423 H 0.76513 0.1969 0.34782 0.0
H424 H 0.72795 0.18014 0.24955 0.0
H425 H 0.76867 0.12753 0.24691 0.0
H426 H 0.73455 0.26008 0.40812 0.0
H427 H 0.73807 0.10153 0.36839 0.0
H428 H 0.77717 0.16127 0.38189 0.0
C429 C 0.05199 0.62248 0.28275 0.0
C430 C 0.05122 0.63591 0.25543 0.0
N431 N 0.0636 0.62683 0.23939 0.0
N432 N 0.06483 0.60501 0.28402 0.0
C433 C 0.07177 0.60843 0.25734 0.0
H434 H 0.04308 0.62363 0.29964 0.0
Co435 Co 0.06897 0.57552 0.31249 0.0
C436 C 0.10144 0.59005 0.33247 0.0
O437 O 0.09729 0.58391 0.3597 0.0
N438 N 0.07281 0.54447 0.34138 0.0
C439 C 0.07435 0.51876 0.38375 0.0
C440 C 0.07255 0.54658 0.3713 0.0
C441 C 0.07472 0.51453 0.33656 0.0
N442 N 0.0756 0.49843 0.36193 0.0
O443 O 0.07199 0.54698 0.28104 0.0
H444 H 0.07121 0.56706 0.38385 0.0
H445 H 0.0749 0.50434 0.31489 0.0
O446 O 0.09138 0.5876 0.31168 0.0
C447 C 0.05822 0.53981 0.27287 0.0
O448 O 0.0463 0.55122 0.28734 0.0
N449 N 0.06363 0.60311 0.34218 0.0
C450 C 0.0489 0.64198 0.38187 0.0
C451 C 0.06332 0.64971 0.36898 0.0
C452 C 0.07047 0.62999 0.34885 0.0
C453 C 0.04939 0.59596 0.35363 0.0
C454 C 0.04196 0.61473 0.37376 0.0
H455 H 0.08113 0.63679 0.33795 0.0
H456 H 0.04368 0.57545 0.34673 0.0
H457 H 0.08173 0.59536 0.25019 0.0
H458 H 0.04175 0.64972 0.24732 0.0
H459 H 0.07469 0.51398 0.40721 0.0
H460 H 0.06895 0.67081 0.37427 0.0
H461 H 0.03063 0.60826 0.38232 0.0
C462 C 0.75525 0.62042 0.47712 0.0
C463 C 0.75551 0.63396 0.50443 0.0
N464 N 0.74385 0.62238 0.52086 0.0
N465 N 0.74332 0.60065 0.47609 0.0
C466 C 0.7366 0.60238 0.50311 0.0
H467 H 0.76372 0.62385 0.45974 0.0
Co468 Co 0.73886 0.57276 0.44641 0.0
C469 C 0.70593 0.5854 0.429 0.0
O470 O 0.70968 0.5786 0.40169 0.0
N471 N 0.73464 0.54311 0.41621 0.0
C472 C 0.73339 0.51806 0.3734 0.0
C473 C 0.73607 0.54542 0.38642 0.0
C474 C 0.73094 0.51369 0.42034 0.0
N475 N 0.73028 0.49795 0.39477 0.0
O476 O 0.7368 0.5426 0.4765 0.0
H477 H 0.73877 0.56565 0.37431 0.0
H478 H 0.72888 0.50366 0.44173 0.0
O479 O 0.71638 0.58396 0.44919 0.0
C480 C 0.7504 0.53114 0.47883 0.0
O481 O 0.76139 0.54057 0.46077 0.0
N482 N 0.7433 0.60219 0.41788 0.0
C483 C 0.75713 0.64534 0.38135 0.0
C484 C 0.74232 0.65032 0.39394 0.0
C485 C 0.73567 0.62857 0.4126 0.0
C486 C 0.75774 0.5973 0.40618 0.0
C487 C 0.76473 0.61823 0.38756 0.0
H488 H 0.72483 0.6336 0.42374 0.0
H489 H 0.76397 0.57694 0.41169 0.0
H490 H 0.72695 0.58833 0.50999 0.0
H491 H 0.76422 0.64969 0.51221 0.0
H492 H 0.73423 0.51323 0.34999 0.0
H493 H 0.73619 0.67126 0.39031 0.0
H494 H 0.77607 0.61316 0.37822 0.0
C495 C 0.0487 0.15877 0.47297 0.0
C496 C 0.04657 0.14495 0.49984 0.0
N497 N 0.05828 0.1532 0.51804 0.0
N498 N 0.06186 0.1753 0.47385 0.0
C499 C 0.06743 0.17147 0.50153 0.0
H500 H 0.04084 0.15763 0.45432 0.0
Co501 Co 0.06903 0.20208 0.44505 0.0
C502 C 0.10119 0.17792 0.43428 0.0
O503 O 0.0982 0.17631 0.40591 0.0
N504 N 0.07619 0.23048 0.41572 0.0
C505 C 0.08246 0.25296 0.37306 0.0
C506 C 0.07958 0.22598 0.38677 0.0
C507 C 0.07724 0.26079 0.41872 0.0
N508 N 0.08089 0.27497 0.39316 0.0
O509 O 0.07074 0.23201 0.47544 0.0
H510 H 0.07938 0.20459 0.37552 0.0
H511 H 0.0747 0.2727 0.43892 0.0
O512 O 0.09078 0.18798 0.45211 0.0
C513 C 0.05707 0.24339 0.47711 0.0
O514 O 0.04655 0.23454 0.45785 0.0
N515 N 0.06477 0.17308 0.41587 0.0
C516 C 0.05017 0.13162 0.37853 0.0
C517 C 0.06262 0.12284 0.39687 0.0
C518 C 0.06959 0.14382 0.41582 0.0
C519 C 0.05259 0.18179 0.39852 0.0
C520 C 0.04531 0.16165 0.37946 0.0
H521 H 0.07821 0.13618 0.43152 0.0
H522 H 0.04808 0.2044 0.40038 0.0
H523 H 0.0775 0.18341 0.50985 0.0
H524 H 0.03683 0.13063 0.50558 0.0
H525 H 0.08516 0.25606 0.34987 0.0
H526 H 0.06666 0.09981 0.3972 0.0
H527 H 0.03543 0.16934 0.36663 0.0
C528 C 0.80037 0.37241 0.7289 0.0
C529 C 0.79944 0.38605 0.75619 0.0
N530 N 0.81185 0.37739 0.77233 0.0
N531 N 0.81343 0.35554 0.72773 0.0
C532 C 0.82019 0.35917 0.75444 0.0
H533 H 0.79164 0.37338 0.7117 0.0
Co534 Co 0.8192 0.32741 0.69896 0.0
C535 C 0.85104 0.35106 0.68306 0.0
O536 O 0.84717 0.35175 0.65507 0.0
N537 N 0.82498 0.29786 0.6699 0.0
C538 C 0.83054 0.27429 0.62761 0.0
C539 C 0.828 0.30159 0.64075 0.0
C540 C 0.82558 0.26757 0.67351 0.0
N541 N 0.82893 0.2526 0.64814 0.0
O542 O 0.8221 0.29843 0.73008 0.0
H543 H 0.82776 0.32267 0.62897 0.0
H544 H 0.82307 0.25652 0.6942 0.0
O545 O 0.84121 0.34172 0.70238 0.0
C546 C 0.80822 0.29021 0.73661 0.0
O547 O 0.79664 0.30053 0.72052 0.0
N548 N 0.81377 0.35522 0.66936 0.0
C549 C 0.79873 0.39336 0.62941 0.0
C550 C 0.81136 0.40373 0.64643 0.0
C551 C 0.81862 0.38435 0.66669 0.0
C552 C 0.80111 0.34537 0.65395 0.0
C553 C 0.79362 0.36377 0.63358 0.0
H554 H 0.82768 0.39303 0.68091 0.0
H555 H 0.79661 0.32302 0.65795 0.0
H556 H 0.83063 0.34735 0.76115 0.0
H557 H 0.78983 0.39957 0.7642 0.0
H558 H 0.83305 0.27101 0.60441 0.0
H559 H 0.81549 0.42662 0.64433 0.0
H560 H 0.78358 0.3551 0.62183 0.0
C561 C 0.50693 0.90499 0.72817 0.0
C562 C 0.50712 0.89126 0.75541 0.0
N563 N 0.49543 0.90275 0.77182 0.0
N564 N 0.49503 0.92479 0.72719 0.0
C565 C 0.48824 0.92286 0.75412 0.0
H566 H 0.51545 0.90174 0.71083 0.0
Co567 Co 0.49076 0.95317 0.69787 0.0
C568 C 0.45784 0.94065 0.67993 0.0
O569 O 0.46174 0.94722 0.65265 0.0
N570 N 0.48674 0.98334 0.66806 0.0
C571 C 0.48523 1.00879 0.62545 0.0
C572 C 0.48767 0.98119 0.63817 0.0
C573 C 0.4837 1.01297 0.67256 0.0
N574 N 0.48286 0.02887 0.64714 0.0
O575 O 0.48873 0.98295 0.72837 0.0
H576 H 0.48984 0.96087 0.62582 0.0
H577 H 0.4822 0.02309 0.69408 0.0
O578 O 0.4682 0.94214 0.7003 0.0
C579 C 0.50246 0.99372 0.73132 0.0
O580 O 0.51352 0.98374 0.71371 0.0
N581 N 0.49519 0.92414 0.66895 0.0
C582 C 0.50895 0.88159 0.63167 0.0
C583 C 0.49424 0.87624 0.64457 0.0
C584 C 0.48762 0.8977 0.66358 0.0
C585 C 0.50955 0.92937 0.65699 0.0
C586 C 0.51649 0.90876 0.63799 0.0
H587 H 0.47687 0.8924 0.67491 0.0
H588 H 0.51573 0.94976 0.66258 0.0
H589 H 0.4786 0.93692 0.76102 0.0
H590 H 0.51581 0.8755 0.76317 0.0
H591 H 0.48569 0.01383 0.60205 0.0
H592 H 0.48817 0.85524 0.6409 0.0
H593 H 0.52775 0.91414 0.62843 0.0
C594 C 0.79879 0.90913 0.5375 0.0
C595 C 0.79665 0.89625 0.5102 0.0
N596 N 0.80858 0.90455 0.49256 0.0
N597 N 0.81211 0.92529 0.53727 0.0
C598 C 0.81788 0.92188 0.50962 0.0
H599 H 0.79059 0.90832 0.55566 0.0
Co600 Co 0.81811 0.95333 0.5658 0.0
C601 C 0.85037 0.93468 0.58196 0.0
O602 O 0.84613 0.93691 0.60972 0.0
N603 N 0.82389 0.98331 0.59489 0.0
C604 C 0.82774 1.00844 0.63717 0.0
C605 C 0.8248 0.98089 0.62476 0.0
C606 C 0.82635 1.01311 0.59011 0.0
N607 N 0.82857 0.02881 0.61535 0.0
O608 O 0.82022 0.98241 0.53467 0.0
H609 H 0.82323 0.96049 0.63735 0.0
H610 H 0.82632 0.02356 0.56856 0.0
O611 O 0.84035 0.94012 0.5616 0.0
C612 C 0.80661 0.99393 0.53258 0.0
O613 O 0.79592 0.9855 0.55174 0.0
N614 N 0.8134 0.92515 0.59545 0.0
C615 C 0.79897 0.88544 0.6348 0.0
C616 C 0.81228 0.87664 0.61872 0.0
C617 C 0.81924 0.8968 0.59876 0.0
C618 C 0.80013 0.93342 0.60997 0.0
C619 C 0.79292 0.91424 0.63004 0.0
H620 H 0.82887 0.88925 0.58522 0.0
H621 H 0.79495 0.9551 0.60551 0.0
H622 H 0.82793 0.93403 0.5014 0.0
H623 H 0.78666 0.88309 0.50343 0.0
H624 H 0.8285 1.01328 0.66058 0.0
H625 H 0.81714 0.85435 0.62131 0.0
H626 H 0.78237 0.92165 0.64107 0.0
C627 C 0.51023 0.37192 0.53431 0.0
C628 C 0.51158 0.38505 0.50684 0.0
N629 N 0.49947 0.37591 0.49015 0.0
N630 N 0.4972 0.35493 0.53502 0.0
C631 C 0.49088 0.35793 0.50786 0.0
H632 H 0.51868 0.37328 0.552 0.0
Co633 Co 0.49112 0.32715 0.56387 0.0
C634 C 0.45884 0.35049 0.57669 0.0
O635 O 0.46227 0.35354 0.60475 0.0
N636 N 0.48503 0.29791 0.59293 0.0
C637 C 0.47831 0.27449 0.63471 0.0
C638 C 0.48088 0.30183 0.62154 0.0
C639 C 0.48501 0.26758 0.58966 0.0
N640 N 0.48097 0.25268 0.61469 0.0
O641 O 0.48924 0.29754 0.53308 0.0
H642 H 0.48034 0.32309 0.63295 0.0
H643 H 0.48836 0.25649 0.56945 0.0
O644 O 0.46902 0.34009 0.55858 0.0
C645 C 0.50333 0.28986 0.52768 0.0
O646 O 0.51443 0.30073 0.54464 0.0
N647 N 0.49552 0.35585 0.59326 0.0
C648 C 0.50987 0.39713 0.63106 0.0
C649 C 0.49746 0.40596 0.6127 0.0
C650 C 0.49063 0.38508 0.59348 0.0
C651 C 0.50771 0.34715 0.61059 0.0
C652 C 0.51485 0.36719 0.62995 0.0
H653 H 0.48201 0.39273 0.57777 0.0
H654 H 0.51225 0.32456 0.60872 0.0
H655 H 0.48061 0.34579 0.50072 0.0
H656 H 0.52128 0.39854 0.49913 0.0
H657 H 0.47504 0.27129 0.65758 0.0
H658 H 0.49354 0.42907 0.61223 0.0
H659 H 0.52435 0.3593 0.64367 0.0
C660 C 0.25459 0.65189 0.28373 0.0
C661 C 0.25434 0.63779 0.25664 0.0
N662 N 0.24253 0.64935 0.24063 0.0
N663 N 0.24287 0.67207 0.28497 0.0
C664 C 0.23567 0.66977 0.25851 0.0
H665 H 0.26339 0.64897 0.30057 0.0
Co666 Co 0.23964 0.70236 0.31308 0.0
C667 C 0.20649 0.69255 0.33224 0.0
O668 O 0.21031 0.69983 0.35935 0.0
N669 N 0.23662 0.73428 0.3414 0.0
C670 C 0.23468 0.76124 0.38301 0.0
C671 C 0.23662 0.733 0.37138 0.0
C672 C 0.23498 0.76413 0.33569 0.0
N673 N 0.23374 0.78085 0.36054 0.0
O674 O 0.23786 0.7307 0.28132 0.0
H675 H 0.23766 0.7128 0.38446 0.0
H676 H 0.23462 0.77375 0.31377 0.0
O677 O 0.21695 0.69294 0.31196 0.0
C678 C 0.25199 0.73618 0.27406 0.0
O679 O 0.26318 0.72361 0.2896 0.0
N680 N 0.24381 0.67454 0.34317 0.0
C681 C 0.25749 0.63256 0.38113 0.0
C682 C 0.24261 0.62739 0.36893 0.0
C683 C 0.23602 0.64857 0.34959 0.0
C684 C 0.25824 0.67974 0.3547 0.0
C685 C 0.26516 0.65941 0.37401 0.0
H686 H 0.22515 0.64333 0.33873 0.0
H687 H 0.26457 0.69974 0.3483 0.0
H688 H 0.22612 0.68415 0.25191 0.0
H689 H 0.26294 0.62196 0.2486 0.0
H690 H 0.2343 0.76699 0.40627 0.0
H691 H 0.23641 0.60666 0.37329 0.0
H692 H 0.27653 0.66467 0.38303 0.0
C693 C 0.55073 0.11999 0.28532 0.0
C694 C 0.54965 0.13386 0.25829 0.0
N695 N 0.56178 0.12499 0.2414 0.0
N696 N 0.5636 0.10262 0.28584 0.0
C697 C 0.5701 0.10611 0.25876 0.0
H698 H 0.54214 0.12121 0.3028 0.0
Co699 Co 0.5687 0.07464 0.31505 0.0
C700 C 0.60173 0.08842 0.33094 0.0
O701 O 0.59811 0.08335 0.35865 0.0
N702 N 0.57345 0.04483 0.34488 0.0
C703 C 0.57582 0.02044 0.38787 0.0
C704 C 0.57339 0.04777 0.37473 0.0
C705 C 0.57596 0.01494 0.34085 0.0
N706 N 0.57727 0.99955 0.36658 0.0
O707 O 0.57041 0.04484 0.28462 0.0
H708 H 0.57187 0.0685 0.38676 0.0
H709 H 0.57628 1.00426 0.31944 0.0
O710 O 0.59116 0.08606 0.31105 0.0
C711 C 0.55662 0.03422 0.28238 0.0
O712 O 0.54592 0.04399 0.3009 0.0
N713 N 0.56456 0.10378 0.34398 0.0
C714 C 0.55098 0.14658 0.38114 0.0
C715 C 0.56539 0.15226 0.36721 0.0
C716 C 0.57189 0.13068 0.34821 0.0
C717 C 0.55054 0.09814 0.35717 0.0
C718 C 0.54367 0.11894 0.37607 0.0
H719 H 0.58232 0.13622 0.33593 0.0
H720 H 0.54449 0.07737 0.35245 0.0
H721 H 0.58032 0.09387 0.25155 0.0
H722 H 0.54004 0.14779 0.25106 0.0
H723 H 0.57638 0.01643 0.41144 0.0
H724 H 0.57123 0.17364 0.36996 0.0
H725 H 0.53262 0.11348 0.38639 0.0
C726 C 0.26412 0.10883 0.47613 0.0
C727 C 0.26729 0.12091 0.50347 0.0
N728 N 0.25453 0.11774 0.52068 0.0
N729 N 0.24936 0.09837 0.47595 0.0
C730 C 0.24381 0.10416 0.50335 0.0
H731 H 0.27228 0.1064 0.45802 0.0
Co732 Co 0.24044 0.0735 0.44727 0.0
C733 C 0.21022 0.10919 0.44322 0.0
O734 O 0.21403 0.12014 0.41727 0.0
N735 N 0.23156 0.04666 0.41903 0.0
C736 C 0.2159 0.02245 0.38766 0.0
C737 C 0.21864 0.04914 0.4021 0.0
C738 C 0.23659 0.01824 0.41379 0.0
N739 N 0.2272 1.00297 0.39512 0.0
O740 O 0.23818 0.04328 0.47734 0.0
H741 H 0.21124 0.06853 0.40055 0.0
H742 H 0.24663 1.00831 0.42434 0.0
O743 O 0.21925 0.09045 0.45644 0.0
C744 C 0.2516 0.03087 0.47908 0.0
O745 O 0.26252 0.0395 0.46046 0.0
N746 N 0.24512 0.10249 0.41755 0.0
C747 C 0.26038 0.14238 0.37897 0.0
C748 C 0.25188 0.15304 0.40339 0.0
C749 C 0.24465 0.13279 0.42268 0.0
C750 C 0.25315 0.0918 0.39366 0.0
C751 C 0.2607 0.11127 0.37403 0.0
H752 H 0.23909 0.14147 0.44239 0.0
H753 H 0.25468 0.06792 0.39068 0.0
H754 H 0.23257 0.09635 0.51115 0.0
H755 H 0.27835 0.13023 0.51046 0.0
H756 H 0.20618 0.0176 0.37316 0.0
H757 H 0.25113 0.17682 0.40814 0.0
H758 H 0.26746 0.10176 0.35609 0.0
C759 C 0.55252 0.65393 0.48032 0.0
C760 C 0.55269 0.64059 0.50775 0.0
N761 N 0.56461 0.65225 0.52336 0.0
N762 N 0.56442 0.67369 0.47841 0.0
C763 C 0.57157 0.67213 0.505 0.0
H764 H 0.54379 0.6504 0.46347 0.0
Co765 Co 0.56843 0.7014 0.44827 0.0
C766 C 0.60157 0.68987 0.43033 0.0
O767 O 0.59796 0.69737 0.40316 0.0
N768 N 0.57219 0.73078 0.41758 0.0
C769 C 0.57329 0.75473 0.37416 0.0
C770 C 0.57098 0.7276 0.38785 0.0
C771 C 0.57531 0.76053 0.42099 0.0
N772 N 0.57587 0.77566 0.39501 0.0
O773 O 0.57051 0.7319 0.47802 0.0
H774 H 0.56885 0.70682 0.37625 0.0
H775 H 0.57669 0.77129 0.4422 0.0
O776 O 0.591 0.69063 0.45043 0.0
C777 C 0.55677 0.74271 0.48068 0.0
O778 O 0.54581 0.73265 0.46295 0.0
N779 N 0.56393 0.6717 0.42019 0.0
C780 C 0.55024 0.6287 0.38347 0.0
C781 C 0.56525 0.62414 0.39529 0.0
C782 C 0.57184 0.64581 0.41407 0.0
C783 C 0.54933 0.6762 0.40915 0.0
C784 C 0.54237 0.6553 0.39053 0.0
H785 H 0.5829 0.64116 0.42449 0.0
H786 H 0.54296 0.69626 0.41517 0.0
H787 H 0.58135 0.6862 0.51112 0.0
H788 H 0.5441 0.62491 0.51614 0.0
H789 H 0.57307 0.75854 0.35054 0.0
H790 H 0.57159 0.60357 0.39092 0.0
H791 H 0.53086 0.65997 0.38181 0.0
C792 C 0.79723 0.86634 0.22965 0.0
C793 C 0.79542 0.87996 0.25673 0.0
N794 N 0.80812 0.87404 0.27333 0.0
N795 N 0.8111 0.85213 0.22895 0.0
C796 C 0.81746 0.85719 0.25581 0.0
H797 H 0.78865 0.86556 0.21216 0.0
Co798 Co 0.81799 0.8256 0.19994 0.0
C799 C 0.85012 0.84847 0.18784 0.0
O800 O 0.84684 0.84988 0.15957 0.0
N801 N 0.82492 0.79722 0.17038 0.0
C802 C 0.83046 0.77394 0.1278 0.0
C803 C 0.82726 0.80107 0.14098 0.0
C804 C 0.8271 0.76723 0.17421 0.0
N805 N 0.83024 0.75247 0.14872 0.0
O806 O 0.81976 0.79561 0.23018 0.0
H807 H 0.8263 0.8221 0.12921 0.0
H808 H 0.82628 0.75606 0.1953 0.0
O809 O 0.83981 0.83928 0.2063 0.0
C810 C 0.80622 0.7836 0.23118 0.0
O811 O 0.79582 0.79206 0.21153 0.0
N812 N 0.81361 0.85489 0.17112 0.0
C813 C 0.79949 0.89686 0.1337 0.0
C814 C 0.81202 0.90519 0.15201 0.0
C815 C 0.81873 0.88397 0.17106 0.0
C816 C 0.8012 0.84675 0.15408 0.0
C817 C 0.79419 0.86711 0.13486 0.0
H818 H 0.82748 0.89125 0.18668 0.0
H819 H 0.7965 0.82427 0.15587 0.0
H820 H 0.82844 0.84751 0.26271 0.0
H821 H 0.78508 0.89171 0.26414 0.0
H822 H 0.83215 0.77031 0.10436 0.0
H823 H 0.81618 0.92816 0.15252 0.0
H824 H 0.78459 0.85956 0.12122 0.0
C825 C 0.50928 0.40604 0.22628 0.0
C826 C 0.51054 0.39248 0.25354 0.0
N827 N 0.49858 0.40187 0.27054 0.0
N828 N 0.49645 0.42359 0.22598 0.0
C829 C 0.49015 0.42041 0.2532 0.0
H830 H 0.51771 0.40462 0.20853 0.0
Co831 Co 0.49066 0.45223 0.19775 0.0
C832 C 0.45859 0.43164 0.18163 0.0
O833 O 0.46232 0.43392 0.1536 0.0
N834 N 0.48488 0.48242 0.16921 0.0
C835 C 0.48048 0.50765 0.12732 0.0
C836 C 0.48346 0.48002 0.13947 0.0
C837 C 0.48266 0.51223 0.17425 0.0
N838 N 0.48002 0.52809 0.14919 0.0
O839 O 0.48828 0.48082 0.2293 0.0
H840 H 0.48477 0.45962 0.1268 0.0
H841 H 0.48313 0.5224 0.19589 0.0
O842 O 0.46863 0.43842 0.2015 0.0
C843 C 0.50233 0.48898 0.23432 0.0
O844 O 0.51337 0.47903 0.21665 0.0
N845 N 0.49565 0.4246 0.16778 0.0
C846 C 0.51056 0.38558 0.12842 0.0
C847 C 0.49727 0.37626 0.14429 0.0
C848 C 0.49008 0.39605 0.16427 0.0
C849 C 0.50886 0.43345 0.15337 0.0
C850 C 0.51631 0.41461 0.13332 0.0
H851 H 0.48055 0.38799 0.17779 0.0
H852 H 0.51383 0.45528 0.158 0.0
H853 H 0.48004 0.43285 0.26068 0.0
H854 H 0.52013 0.37858 0.26095 0.0
H855 H 0.47935 0.51234 0.10394 0.0
H856 H 0.49262 0.35382 0.14161 0.0
H857 H 0.52683 0.42244 0.12246 0.0
C858 C 0.80194 0.40697 0.03564 0.0
C859 C 0.8013 0.39372 0.00818 0.0
N860 N 0.813 0.40488 0.99157 0.0
N861 N 0.81415 0.42611 0.03653 0.0
C862 C 0.82066 0.42426 0.00935 0.0
H863 H 0.79352 0.40393 0.05319 0.0
Co864 Co 0.81903 0.45408 0.06591 0.0
C865 C 0.85138 0.43826 0.08388 0.0
O866 O 0.84713 0.44264 0.11141 0.0
N867 N 0.82381 0.4839 0.09572 0.0
C868 C 0.82575 0.50927 0.13825 0.0
C869 C 0.82283 0.48185 0.12559 0.0
C870 C 0.82758 0.51324 0.0912 0.0
N871 N 0.82865 0.52921 0.1166 0.0
O872 O 0.82144 0.48375 0.03545 0.0
H873 H 0.8202 0.46176 0.13799 0.0
H874 H 0.82939 0.52304 0.06963 0.0
O875 O 0.84135 0.4419 0.06319 0.0
C876 C 0.80785 0.49525 0.03313 0.0
O877 O 0.79695 0.48621 0.0516 0.0
N878 N 0.81411 0.42528 0.09482 0.0
C879 C 0.79978 0.38488 0.13358 0.0
C880 C 0.81396 0.37751 0.11962 0.0
C881 C 0.8209 0.398 0.09994 0.0
C882 C 0.8 0.43196 0.10712 0.0
C883 C 0.7928 0.41245 0.12687 0.0
H884 H 0.83133 0.39149 0.08814 0.0
H885 H 0.79425 0.45277 0.10137 0.0
H886 H 0.83044 0.43792 1.00233 0.0
H887 H 0.7923 0.37859 1.00045 0.0
H888 H 0.82523 0.51421 0.16165 0.0
H889 H 0.81956 0.35612 0.12374 0.0
H890 H 0.78162 0.41866 0.13627 0.0
C891 C 0.50856 0.86865 0.03371 0.0
C892 C 0.50932 0.88191 0.00624 0.0
N893 N 0.49688 0.87281 0.99041 0.0
N894 N 0.49557 0.85161 0.03535 0.0
C895 C 0.48872 0.8546 0.00864 0.0
H896 H 0.51731 0.87027 0.05083 0.0
Co897 Co 0.48988 0.82492 0.06523 0.0
C898 C 0.45785 0.84489 0.08137 0.0
O899 O 0.46178 0.84244 0.10927 0.0
N900 N 0.48423 0.79636 0.09571 0.0
C901 C 0.48135 0.77244 0.13889 0.0
C902 C 0.48421 0.79958 0.12552 0.0
C903 C 0.48104 0.76668 0.09193 0.0
N904 N 0.47949 0.75154 0.11774 0.0
O905 O 0.48749 0.7946 0.03545 0.0
H906 H 0.48632 0.82023 0.13736 0.0
H907 H 0.48007 0.75601 0.07061 0.0
O908 O 0.4678 0.83829 0.06121 0.0
C909 C 0.501 0.7826 0.03376 0.0
O910 O 0.51174 0.79137 0.0526 0.0
N911 N 0.49481 0.85451 0.09337 0.0
C912 C 0.50923 0.89706 0.12971 0.0
C913 C 0.49557 0.90422 0.114 0.0
C914 C 0.48869 0.88276 0.09543 0.0
C915 C 0.50832 0.84761 0.10772 0.0
C916 C 0.51553 0.86822 0.12638 0.0
H917 H 0.47896 0.88935 0.08176 0.0
H918 H 0.51364 0.82584 0.10439 0.0
H919 H 0.47825 0.84262 1.00233 0.0
H920 H 0.51878 0.89569 0.99799 0.0
H921 H 0.48131 0.76836 0.16248 0.0
H922 H 0.49058 0.92654 0.11515 0.0
H923 H 0.526 0.86155 0.13802 0.0
C924 C 0.26149 0.16005 0.78404 0.0
C925 C 0.26367 0.14634 0.75712 0.0
N926 N 0.25143 0.15296 0.7396 0.0
N927 N 0.24781 0.17499 0.78378 0.0
C928 C 0.24196 0.17027 0.75642 0.0
H929 H 0.26976 0.16041 0.80206 0.0
Co930 Co 0.24078 0.20207 0.81239 0.0
C931 C 0.20893 0.17861 0.82623 0.0
O932 O 0.21234 0.1798 0.85444 0.0
N933 N 0.23385 0.23103 0.84157 0.0
C934 C 0.2291 0.25504 0.88412 0.0
C935 C 0.23198 0.2277 0.87116 0.0
C936 C 0.23181 0.26104 0.83745 0.0
N937 N 0.22913 0.2762 0.86291 0.0
O938 O 0.23831 0.23129 0.78156 0.0
H939 H 0.23319 0.20692 0.88327 0.0
H940 H 0.23257 0.27198 0.81623 0.0
O941 O 0.21907 0.1868 0.80699 0.0
C942 C 0.25184 0.24327 0.77977 0.0
O943 O 0.26259 0.23455 0.79861 0.0
N944 N 0.24582 0.17391 0.84194 0.0
C945 C 0.26053 0.13506 0.88173 0.0
C946 C 0.24795 0.12508 0.86433 0.0
C947 C 0.24087 0.14481 0.84416 0.0
C948 C 0.25842 0.18341 0.85775 0.0
C949 C 0.26574 0.16465 0.87803 0.0
H950 H 0.23188 0.13639 0.82963 0.0
H951 H 0.263 0.20577 0.85416 0.0
H952 H 0.23129 0.18054 0.74864 0.0
H953 H 0.27399 0.13409 0.75042 0.0
H954 H 0.2279 0.25907 0.90761 0.0
H955 H 0.24374 0.10221 0.86605 0.0
H956 H 0.27574 0.17306 0.89007 0.0
C957 C 0.55232 0.62142 0.78494 0.0
C958 C 0.55239 0.63497 0.75761 0.0
N959 N 0.56457 0.62417 0.74202 0.0
N960 N 0.56453 0.60242 0.78682 0.0
C961 C 0.57177 0.60461 0.76032 0.0
H962 H 0.54345 0.62419 0.80174 0.0
Co963 Co 0.56867 0.57456 0.81669 0.0
C964 C 0.60099 0.58933 0.83564 0.0
O965 O 0.59635 0.58582 0.86306 0.0
N966 N 0.57268 0.54487 0.84706 0.0
C967 C 0.57423 0.52029 0.89011 0.0
C968 C 0.57179 0.54762 0.87688 0.0
C969 C 0.57582 0.51517 0.84314 0.0
N970 N 0.57663 0.49968 0.86888 0.0
O971 O 0.57086 0.54438 0.7867 0.0
H972 H 0.56969 0.5682 0.88885 0.0
H973 H 0.57702 0.50464 0.82176 0.0
O974 O 0.5912 0.58547 0.8146 0.0
C975 C 0.55701 0.53419 0.78391 0.0
O976 O 0.54614 0.54475 0.80163 0.0
N977 N 0.56394 0.60408 0.84501 0.0
C978 C 0.54971 0.6469 0.88135 0.0
C979 C 0.56424 0.65276 0.86796 0.0
C980 C 0.57105 0.6312 0.84933 0.0
C981 C 0.54969 0.59847 0.85727 0.0
C982 C 0.54252 0.61922 0.87582 0.0
H983 H 0.5816 0.63686 0.83748 0.0
H984 H 0.54377 0.57762 0.85234 0.0
H985 H 0.58176 0.59111 0.75418 0.0
H986 H 0.54358 0.65013 0.74922 0.0
H987 H 0.57422 0.51608 0.91368 0.0
H988 H 0.56999 0.6742 0.87098 0.0
H989 H 0.53139 0.61353 0.8857 0.0
C990 C 0.25573 0.62482 0.97796 0.0
C991 C 0.25533 0.63813 1.00539 0.0
N992 N 0.24355 0.62587 0.02104 0.0
N993 N 0.24412 0.60442 0.97609 0.0
C994 C 0.23687 0.60574 1.00263 0.0
H995 H 0.26452 0.6286 0.96122 0.0
Co996 Co 0.24088 0.57542 0.94665 0.0
C997 C 0.20788 0.58527 0.92727 0.0
O998 O 0.21172 0.57678 0.90046 0.0
N999 N 0.23783 0.5449 0.91696 0.0
C1000 C 0.23728 0.51933 0.87445 0.0
C1001 C 0.2396 0.54689 0.88723 0.0
C1002 C 0.23438 0.51539 0.92135 0.0
N1003 N 0.23403 0.49935 0.89589 0.0
O1004 O 0.23871 0.54572 0.9772 0.0
H1005 H 0.24217 0.56709 0.87497 0.0
H1006 H 0.23216 0.50564 0.94282 0.0
O1007 O 0.21828 0.58538 0.94759 0.0
C1008 C 0.25279 0.53927 0.98385 0.0
O1009 O 0.26405 0.55194 0.9685 0.0
N1010 N 0.24547 0.60442 0.91781 0.0
C1011 C 0.25935 0.64685 0.88049 0.0
C1012 C 0.24414 0.65124 0.89152 0.0
C1013 C 0.23744 0.62986 0.91057 0.0
C1014 C 0.26029 0.60015 0.90766 0.0
C1015 C 0.26733 0.6207 0.88871 0.0
H1016 H 0.22618 0.63442 0.92031 0.0
H1017 H 0.26674 0.5805 0.91458 0.0
H1018 H 0.22733 0.59107 0.0088 0.0
H1019 H 0.26377 0.65406 0.01384 0.0
H1020 H 0.23829 0.51438 0.8511 0.0
H1021 H 0.23768 0.67144 0.8863 0.0
H1022 H 0.27897 0.61602 0.8806 0.0
C1023 C 0.54856 0.16226 0.97815 0.0
C1024 C 0.54625 0.14945 1.00549 0.0
N1025 N 0.55889 0.1551 0.0223 0.0
N1026 N 0.56263 0.1758 0.97762 0.0
C1027 C 0.56869 0.1709 1.00478 0.0
H1028 H 0.54012 0.16319 0.96043 0.0
Co1029 Co 0.56981 0.20245 0.94882 0.0
C1030 C 0.60145 0.17756 0.93542 0.0
O1031 O 0.59805 0.17777 0.9072 0.0
N1032 N 0.57694 0.231 0.91944 0.0
C1033 C 0.58245 0.25423 0.87678 0.0
C1034 C 0.57939 0.2271 0.89007 0.0
C1035 C 0.57873 0.26114 0.92307 0.0
N1036 N 0.5819 0.2758 0.89754 0.0
O1037 O 0.57249 0.2318 0.97944 0.0
H1038 H 0.57845 0.20608 0.8783 0.0
H1039 H 0.57702 0.27265 0.94379 0.0
O1040 O 0.5914 0.18673 0.95438 0.0
C1041 C 0.55905 0.24407 0.98153 0.0
O1042 O 0.54815 0.2358 0.9628 0.0
N1043 N 0.56458 0.17416 0.91952 0.0
C1044 C 0.54973 0.13511 0.88011 0.0
C1045 C 0.56198 0.12493 0.8982 0.0
C1046 C 0.56913 0.14476 0.91816 0.0
C1047 C 0.55229 0.18392 0.90304 0.0
C1048 C 0.54491 0.16504 0.88291 0.0
H1049 H 0.57785 0.13625 0.93321 0.0
H1050 H 0.54798 0.20655 0.90598 0.0
H1051 H 0.57949 0.18089 0.01234 0.0
H1052 H 0.53578 0.13807 0.01287 0.0
H1053 H 0.58453 0.25774 0.85343 0.0
H1054 H 0.56589 0.10183 0.89717 0.0
H1055 H 0.53515 0.17365 0.8703 0.0
H1056 H 0.28948 0.40237 0.30564 0.0
H1057 H 0.33529 0.36184 0.30855 0.0
H1058 H 0.28965 0.40762 0.35871 0.0
H1059 H 0.33507 0.36584 0.36246 0.0
H1060 H 0.3342 0.40834 0.45673 0.0
H1061 H 0.33588 0.40197 0.40328 0.0
H1062 H 0.28736 0.3759 0.40113 0.0
H1063 H 0.28541 0.38369 0.4539 0.0
C1064 C 0.29968 0.39469 0.31742 0.0
C1065 C 0.3124 0.38167 0.30245 0.0
C1066 C 0.29965 0.3973 0.34813 0.0
C1067 C 0.31226 0.38676 0.36497 0.0
C1068 C 0.32516 0.37424 0.35015 0.0
C1069 C 0.32522 0.37171 0.31923 0.0
C1070 C 0.32385 0.40142 0.44491 0.0
C1071 C 0.30961 0.39697 0.4599 0.0
C1072 C 0.32488 0.39742 0.41423 0.0
C1073 C 0.3117 0.3888 0.39782 0.0
C1074 C 0.29766 0.38319 0.41296 0.0
C1075 C 0.29661 0.38731 0.44348 0.0
H1076 H 0.98274 0.84064 0.44902 0.0
H1077 H 1.01429 0.91586 0.45784 0.0
H1078 H 0.98195 0.84855 0.39564 0.0
H1079 H 1.01372 0.92323 0.40451 0.0
H1080 H 1.02531 0.89962 0.30827 0.0
H1081 H 1.02382 0.89331 0.36167 0.0
H1082 H 0.97367 0.88633 0.35619 0.0
H1083 H 0.9752 0.89239 0.30229 0.0
C1084 C 0.98932 0.85914 0.43977 0.0
C1085 C 0.99871 0.87745 0.45788 0.0
C1086 C 0.98889 0.86359 0.4091 0.0
C1087 C 0.99791 0.88628 0.39586 0.0
C1088 C 1.00686 0.90519 0.41402 0.0
C1089 C 1.0072 0.90091 0.44462 0.0
C1090 C 1.01398 0.89637 0.31833 0.0
C1091 C 1.00037 0.89628 0.30101 0.0
C1092 C 1.0131 0.89314 0.349 0.0
C1093 C 0.99862 0.8895 0.36315 0.0
C1094 C 0.985 0.88899 0.34587 0.0
C1095 C 0.98586 0.8926 0.3151 0.0
H1096 H 0.3101 0.92516 0.80183 0.0
H1097 H 0.32807 0.83497 0.80996 0.0
H1098 H 0.31231 0.93182 0.8552 0.0
H1099 H 0.33069 0.84186 0.86326 0.0
H1100 H 0.30933 0.85261 0.95758 0.0
H1101 H 0.312 0.84598 0.90428 0.0
H1102 H 0.33065 0.93583 0.89674 0.0
H1103 H 0.32758 0.94268 0.95 0.0
C1104 C 0.31469 0.9069 0.81499 0.0
C1105 C 0.31882 0.87951 0.80167 0.0
C1106 C 0.31612 0.91079 0.84553 0.0
C1107 C 0.32163 0.88732 0.8635 0.0
C1108 C 0.32626 0.86027 0.85005 0.0
C1109 C 0.32492 0.85644 0.81946 0.0
C1110 C 0.31409 0.87085 0.94455 0.0
C1111 C 0.31816 0.89819 0.95799 0.0
C1112 C 0.31577 0.86697 0.91405 0.0
C1113 C 0.32149 0.89043 0.89624 0.0
C1114 C 0.32607 0.91743 0.90982 0.0
C1115 C 0.32447 0.92124 0.94038 0.0
H1116 H 0.98056 0.34304 0.95155 0.0
H1117 H 1.01335 0.41642 0.95939 0.0
H1118 H 0.97909 0.35163 0.89831 0.0
H1119 H 1.01216 0.42425 0.90617 0.0
H1120 H 1.02296 0.39663 0.80995 0.0
H1121 H 1.02149 0.3914 0.86348 0.0
H1122 H 0.97119 0.39196 0.85894 0.0
H1123 H 0.9727 0.39729 0.80482 0.0
C1124 C 0.98727 0.36128 0.94216 0.0
C1125 C 0.99725 0.37879 0.95994 0.0
C1126 C 0.98643 0.36613 0.91157 0.0
C1127 C 0.99564 0.38837 0.89808 0.0
C1128 C 1.00512 0.4066 0.91593 0.0
C1129 C 1.00584 0.402 0.94645 0.0
C1130 C 1.01158 0.39537 0.82028 0.0
C1131 C 0.99794 0.39711 0.80318 0.0
C1132 C 1.01074 0.39272 0.85098 0.0
C1133 C 0.99623 0.39141 0.86539 0.0
C1134 C 0.98253 0.39285 0.84836 0.0
C1135 C 0.98338 0.39601 0.81752 0.0
H1136 H 0.75433 0.60316 0.70783 0.0
H1137 H 0.7325 0.69018 0.70028 0.0
H1138 H 0.75147 0.59571 0.65461 0.0
H1139 H 0.72931 0.68249 0.6472 0.0
H1140 H 0.74883 0.67365 0.55128 0.0
H1141 H 0.7475 0.68044 0.60478 0.0
H1142 H 0.73198 0.58866 0.61472 0.0
H1143 H 0.73362 0.58176 0.5612 0.0
C1144 C 0.74878 0.62055 0.69483 0.0
C1145 C 0.74369 0.64727 0.70826 0.0
C1146 C 0.74701 0.61618 0.6644 0.0
C1147 C 0.74019 0.63855 0.64668 0.0
C1148 C 0.73472 0.66495 0.66023 0.0
C1149 C 0.7364 0.66922 0.6907 0.0
C1150 C 0.74504 0.65502 0.5649 0.0
C1151 C 0.74139 0.62718 0.55204 0.0
C1152 C 0.74414 0.65896 0.59551 0.0
C1153 C 0.73968 0.63505 0.614 0.0
C1154 C 0.73559 0.60743 0.60107 0.0
C1155 C 0.73636 0.60357 0.5704 0.0
H1156 H 0.08418 0.11171 0.70116 0.0
H1157 H 0.038 0.15076 0.70329 0.0
H1158 H 0.08445 0.11651 0.64732 0.0
H1159 H 0.03866 0.15681 0.65031 0.0
H1160 H 0.03542 0.13298 0.55493 0.0
H1161 H 0.03701 0.12528 0.60769 0.0
H1162 H 0.08528 0.1531 0.60667 0.0
H1163 H 0.08398 0.15944 0.55313 0.0
C1164 C 0.07413 0.12141 0.69034 0.0
C1165 C 0.06105 0.13069 0.70688 0.0
C1166 C 0.07436 0.12443 0.65945 0.0
C1167 C 0.06151 0.13675 0.64442 0.0
C1168 C 0.04864 0.14665 0.66104 0.0
C1169 C 0.04838 0.14357 0.69171 0.0
C1170 C 0.0465 0.13704 0.56557 0.0
C1171 C 0.05954 0.14709 0.54941 0.0
C1172 C 0.04734 0.13297 0.59611 0.0
C1173 C 0.0612 0.13904 0.61156 0.0
C1174 C 0.07442 0.14819 0.59546 0.0
C1175 C 0.0736 0.15215 0.56474 0.0
H1176 H 0.73013 0.1827 0.19843 0.0
H1177 H 0.75757 0.10181 0.20768 0.0
H1178 H 0.72903 0.17475 0.14496 0.0
H1179 H 0.75684 0.09461 0.15434 0.0
H1180 H 0.7721 0.12218 0.05999 0.0
H1181 H 0.76948 0.12739 0.11339 0.0
H1182 H 0.71953 0.13527 0.10427 0.0
H1183 H 0.72218 0.1298 0.0503 0.0
C1184 C 0.73569 0.16298 0.18927 0.0
C1185 C 0.74416 0.14315 0.20747 0.0
C1186 C 0.73508 0.15851 0.1586 0.0
C1187 C 0.74303 0.13431 0.14555 0.0
C1188 C 0.75083 0.11374 0.16381 0.0
C1189 C 0.75129 0.11798 0.19438 0.0
C1190 C 0.76057 0.12529 0.06929 0.0
C1191 C 0.74734 0.1258 0.05098 0.0
C1192 C 0.75905 0.12796 0.09989 0.0
C1193 C 0.7443 0.13158 0.11294 0.0
C1194 C 0.73104 0.13254 0.09471 0.0
C1195 C 0.73254 0.12931 0.06397 0.0
H1196 H 0.09059 0.63512 0.20929 0.0
H1197 H 0.04088 0.62507 0.19842 0.0
H1198 H 0.09362 0.6395 0.15522 0.0
H1199 H 0.04386 0.62899 0.14491 0.0
H1200 H 0.05729 0.60118 0.05171 0.0
H1201 H 0.05793 0.59512 0.1052 0.0
H1202 H 0.08317 0.6785 0.11351 0.0
H1203 H 0.08207 0.68537 0.05993 0.0
C1204 C 0.08037 0.63389 0.19531 0.0
C1205 C 0.0655 0.63008 0.20793 0.0
C1206 C 0.08208 0.63645 0.16455 0.0
C1207 C 0.06897 0.63442 0.146 0.0
C1208 C 0.05416 0.63041 0.15871 0.0
C1209 C 0.05243 0.62848 0.18931 0.0
C1210 C 0.06299 0.61829 0.06479 0.0
C1211 C 0.06935 0.64406 0.05136 0.0
C1212 C 0.06342 0.61469 0.09544 0.0
C1213 C 0.07045 0.6365 0.11342 0.0
C1214 C 0.07772 0.66132 0.10007 0.0
C1215 C 0.07711 0.66516 0.06932 0.0
H1216 H 0.80713 0.3544 0.96039 0.0
H1217 H 0.82336 0.44577 0.95163 0.0
H1218 H 0.8084 0.34829 0.90677 0.0
H1219 H 0.82491 0.43954 0.89803 0.0
H1220 H 0.80371 0.42663 0.80377 0.0
H1221 H 0.80564 0.4334 0.8573 0.0
H1222 H 0.82717 0.34607 0.86508 0.0
H1223 H 0.82493 0.33911 0.81176 0.0
C1224 C 0.81111 0.37307 0.947 0.0
C1225 C 0.81514 0.40053 0.96024 0.0
C1226 C 0.81196 0.36952 0.91633 0.0
C1227 C 0.81674 0.39346 0.89815 0.0
C1228 C 0.82107 0.42076 0.91143 0.0
C1229 C 0.82036 0.42421 0.94215 0.0
C1230 C 0.80891 0.40899 0.81694 0.0
C1231 C 0.81417 0.38239 0.80352 0.0
C1232 C 0.81015 0.41294 0.84754 0.0
C1233 C 0.81654 0.39023 0.86543 0.0
C1234 C 0.82208 0.36387 0.85193 0.0
C1235 C 0.82096 0.36004 0.82132 0.0
H1236 H 0.5047 0.92234 0.95914 0.0
H1237 H 0.48327 0.83496 0.95117 0.0
H1238 H 0.50236 0.92955 0.9058 0.0
H1239 H 0.4806 0.8424 0.89794 0.0
H1240 H 0.50054 0.85155 0.80236 0.0
H1241 H 0.49902 0.84474 0.85586 0.0
H1242 H 0.48314 0.93628 0.86552 0.0
H1243 H 0.48499 0.94323 0.81206 0.0
C1244 C 0.49936 0.90481 0.94601 0.0
C1245 C 0.49421 0.87809 0.95937 0.0
C1246 C 0.49788 0.90904 0.91551 0.0
C1247 C 0.49131 0.88652 0.89763 0.0
C1248 C 0.48582 0.86007 0.91109 0.0
C1249 C 0.4872 0.85594 0.94163 0.0
C1250 C 0.49664 0.87013 0.81592 0.0
C1251 C 0.49293 0.89791 0.80299 0.0
C1252 C 0.49563 0.86617 0.84653 0.0
C1253 C 0.491 0.89001 0.86494 0.0
C1254 C 0.48688 0.91757 0.85194 0.0
C1255 C 0.48777 0.92145 0.82128 0.0
H1256 H 0.83473 0.89886 0.4592 0.0
H1257 H 0.78448 0.90195 0.45424 0.0
H1258 H 0.83608 0.89313 0.40519 0.0
H1259 H 0.7858 0.89612 0.40079 0.0
H1260 H 0.79418 0.91874 0.3044 0.0
H1261 H 0.79529 0.92703 0.35757 0.0
H1262 H 0.8279 0.85378 0.36637 0.0
H1263 H 0.82655 0.84485 0.31323 0.0
C1264 C 0.82402 0.8983 0.44658 0.0
C1265 C 0.80951 0.90061 0.46096 0.0
C1266 C 0.82478 0.8949 0.41578 0.0
C1267 C 0.81104 0.89433 0.3988 0.0
C1268 C 0.79658 0.89679 0.41323 0.0
C1269 C 0.79582 0.89976 0.44391 0.0
C1270 C 0.80157 0.90429 0.31756 0.0
C1271 C 0.81011 0.88086 0.30437 0.0
C1272 C 0.80223 0.90914 0.34805 0.0
C1273 C 0.81157 0.89088 0.36614 0.0
C1274 C 0.82067 0.86833 0.35293 0.0
C1275 C 0.81991 0.86328 0.3224 0.0
H1276 H 0.48763 0.4419 0.31061 0.0
H1277 H 0.50617 0.35223 0.30173 0.0
H1278 H 0.48646 0.43566 0.36419 0.0
H1279 H 0.50524 0.34609 0.35547 0.0
H1280 H 0.48773 0.33623 0.45061 0.0
H1281 H 0.48609 0.34245 0.39707 0.0
H1282 H 0.50605 0.43117 0.40482 0.0
H1283 H 0.50746 0.42507 0.45851 0.0
C1284 C 0.49123 0.42068 0.32007 0.0
C1285 C 0.49692 0.39745 0.30195 0.0
C1286 C 0.49074 0.41725 0.35078 0.0
C1287 C 0.49579 0.39042 0.36404 0.0
C1288 C 0.50114 0.36694 0.34588 0.0
C1289 C 0.50178 0.37049 0.31517 0.0
C1290 C 0.49151 0.35726 0.44094 0.0
C1291 C 0.49765 0.38027 0.45877 0.0
C1292 C 0.49073 0.36067 0.41025 0.0
C1293 C 0.49596 0.38727 0.39674 0.0
C1294 C 0.5018 0.41052 0.41462 0.0
C1295 C 0.50272 0.40698 0.4453 0.0
H1296 H 0.24868 0.59936 0.20856 0.0
H1297 H 0.23065 0.68963 0.2015 0.0
H1298 H 0.24699 0.59381 0.155 0.0
H1299 H 0.22844 0.68373 0.14816 0.0
H1300 H 0.23199 0.58463 0.05962 0.0
H1301 H 0.22931 0.59005 0.11304 0.0
H1302 H 0.24663 0.68099 0.10704 0.0
H1303 H 0.2488 0.67586 0.05353 0.0
C1304 C 0.24419 0.61788 0.19563 0.0
C1305 C 0.23987 0.64494 0.2094 0.0
C1306 C 0.24307 0.61462 0.16494 0.0
C1307 C 0.23763 0.63839 0.14723 0.0
C1308 C 0.23284 0.66511 0.1611 0.0
C1309 C 0.23393 0.66834 0.19179 0.0
C1310 C 0.2349 0.606 0.06958 0.0
C1311 C 0.24063 0.62983 0.05225 0.0
C1312 C 0.23354 0.60897 0.10029 0.0
C1313 C 0.23783 0.63589 0.11439 0.0
C1314 C 0.24308 0.66003 0.09692 0.0
C1315 C 0.24448 0.65701 0.06626 0.0
H1316 H 0.58535 0.14328 0.05293 0.0
H1317 H 0.53574 0.15643 0.06287 0.0
H1318 H 0.58776 0.13672 0.10672 0.0
H1319 H 0.53811 0.14995 0.11616 0.0
H1320 H 0.55075 0.17285 0.21091 0.0
H1321 H 0.55105 0.18006 0.15757 0.0
H1322 H 0.57795 0.09887 0.14712 0.0
H1323 H 0.57731 0.091 0.20061 0.0
C1324 C 0.57499 0.14471 0.0666 0.0
C1325 C 0.56035 0.1502 0.05369 0.0
C1326 C 0.57635 0.14083 0.09727 0.0
C1327 C 0.56313 0.14301 0.11559 0.0
C1328 C 0.54852 0.14844 0.10262 0.0
C1329 C 0.54714 0.15183 0.07205 0.0
C1330 C 0.55671 0.15643 0.19737 0.0
C1331 C 0.56378 0.13108 0.21021 0.0
C1332 C 0.55691 0.16065 0.16678 0.0
C1333 C 0.56436 0.13984 0.1482 0.0
C1334 C 0.57216 0.11532 0.16096 0.0
C1335 C 0.57182 0.11089 0.19166 0.0
H1336 H 0.27796 0.11599 0.56075 0.0
H1337 H 0.22848 0.13169 0.55196 0.0
H1338 H 0.27604 0.124 0.61385 0.0
H1339 H 0.22649 0.13923 0.60553 0.0
H1340 H 0.23545 0.18463 0.69788 0.0
H1341 H 0.23532 0.17569 0.64462 0.0
H1342 H 0.26452 0.09774 0.65697 0.0
H1343 H 0.26449 0.10633 0.71014 0.0
C1344 C 0.26668 0.1214 0.5701 0.0
C1345 C 0.25338 0.12333 0.55205 0.0
C1346 C 0.26554 0.12561 0.60064 0.0
C1347 C 0.2511 0.13205 0.61395 0.0
C1348 C 0.2378 0.13441 0.59591 0.0
C1349 C 0.23892 0.12991 0.5653 0.0
C1350 C 0.2416 0.16525 0.68936 0.0
C1351 C 0.2501 0.14634 0.7084 0.0
C1352 C 0.24155 0.16019 0.65878 0.0
C1353 C 0.25006 0.13622 0.64654 0.0
C1354 C 0.25811 0.11677 0.66565 0.0
C1355 C 0.25809 0.12171 0.69616 0.0
H1356 H 0.57645 0.69244 0.56253 0.0
H1357 H 0.55937 0.60155 0.55477 0.0
H1358 H 0.57914 0.68583 0.61588 0.0
H1359 H 0.56164 0.59517 0.60814 0.0
H1360 H 0.57721 0.58487 0.70282 0.0
H1361 H 0.57993 0.59174 0.64952 0.0
H1362 H 0.56083 0.68116 0.6573 0.0
H1363 H 0.55854 0.67456 0.71067 0.0
C1364 C 0.5735 0.6709 0.57212 0.0
C1365 C 0.56764 0.64753 0.5544 0.0
C1366 C 0.57488 0.66721 0.60275 0.0
C1367 C 0.57052 0.64003 0.61632 0.0
C1368 C 0.56523 0.61631 0.59842 0.0
C1369 C 0.56377 0.62005 0.56785 0.0
C1370 C 0.57392 0.60622 0.69326 0.0
C1371 C 0.5676 0.62916 0.711 0.0
C1372 C 0.57532 0.61004 0.66265 0.0
C1373 C 0.57052 0.63693 0.6491 0.0
C1374 C 0.56477 0.66026 0.66701 0.0
C1375 C 0.5633 0.65638 0.69757 0.0
H1376 H 0.37476 0.34353 0.13807 0.0
H1377 H 0.36443 0.36281 0.22966 0.0
H1378 H 0.40057 0.36411 0.14387 0.0
H1379 H 0.39098 0.3831 0.23579 0.0
H1380 H 0.43417 0.44942 0.21752 0.0
H1381 H 0.40828 0.42551 0.22079 0.0
H1382 H 0.42483 0.35282 0.16577 0.0
H1383 H 0.45009 0.37731 0.16155 0.0
C1384 C 0.37803 0.3519 0.15968 0.0
C1385 C 0.36741 0.35134 0.18341 0.0
C1386 C 0.39302 0.36356 0.16309 0.0
C1387 C 0.39808 0.37498 0.19043 0.0
C1388 C 0.3875 0.37454 0.21438 0.0
C1389 C 0.37233 0.36273 0.21094 0.0
C1390 C 0.43224 0.42806 0.20666 0.0
C1391 C 0.44403 0.41531 0.18904 0.0
C1392 C 0.41744 0.41432 0.20852 0.0
C1393 C 0.41428 0.38751 0.19297 0.0
C1394 C 0.42659 0.37387 0.17729 0.0
C1395 C 0.44115 0.38776 0.17505 0.0
H1396 H 0.93575 0.95347 0.2176 0.0
H1397 H 0.94705 0.86961 0.17502 0.0
H1398 H 0.90893 0.93542 0.22611 0.0
H1399 H 0.92061 0.85126 0.18428 0.0
H1400 H 0.87323 0.82065 0.21947 0.0
H1401 H 0.90008 0.83899 0.22665 0.0
H1402 H 0.88772 0.92283 0.18493 0.0
H1403 H 0.86121 0.90414 0.17698 0.0
C1404 C 0.93263 0.93088 0.21094 0.0
C1405 C 0.94342 0.91289 0.1957 0.0
C1406 C 0.9173 0.9206 0.21567 0.0
C1407 C 0.91268 0.89187 0.20594 0.0
C1408 C 0.92384 0.87332 0.19235 0.0
C1409 C 0.93895 0.88386 0.18695 0.0
C1410 C 0.87621 0.84324 0.21259 0.0
C1411 C 0.8652 0.86105 0.19777 0.0
C1412 C 0.89155 0.85369 0.21655 0.0
C1413 C 0.89599 0.88241 0.20643 0.0
C1414 C 0.88463 0.9008 0.19329 0.0
C1415 C 0.86948 0.89008 0.18865 0.0
H1416 H 0.36475 0.91751 0.03184 0.0
H1417 H 0.37325 0.93128 0.12499 0.0
H1418 H 0.39128 0.89694 0.02639 0.0
H1419 H 0.39902 0.91035 0.11983 0.0
H1420 H 0.44884 0.8976 0.10461 0.0
H1421 H 0.42373 0.92242 0.10039 0.0
H1422 H 0.40817 0.85359 0.03986 0.0
H1423 H 0.43398 0.82939 0.04317 0.0
C1424 C 0.37224 0.91632 0.05106 0.0
C1425 C 0.36683 0.92629 0.07882 0.0
C1426 C 0.3874 0.90433 0.048 0.0
C1427 C 0.39747 0.90225 0.07258 0.0
C1428 C 0.39189 0.9122 0.10017 0.0
C1429 C 0.37693 0.92408 0.10319 0.0
C1430 C 0.44015 0.88802 0.09 0.0
C1431 C 0.4433 0.86143 0.07447 0.0
C1432 C 0.42567 0.90211 0.08772 0.0
C1433 C 0.41366 0.88964 0.07042 0.0
C1434 C 0.4171 0.86387 0.05342 0.0
C1435 C 0.43185 0.84995 0.05532 0.0
H1436 H 0.95042 0.40248 0.09607 0.0
H1437 H 0.93365 0.32738 0.04508 0.0
H1438 H 0.92515 0.42688 0.09184 0.0
H1439 H 0.9078 0.35141 0.04165 0.0
H1440 H 0.86401 0.41463 0.03217 0.0
H1441 H 0.8905 0.39424 0.02524 0.0
H1442 H 0.90114 0.41537 0.1162 0.0
H1443 H 0.87532 0.43585 0.12285 0.0
C1444 C 0.94132 0.39141 0.08352 0.0
C1445 C 0.94395 0.36302 0.07102 0.0
C1446 C 0.92676 0.40526 0.08129 0.0
C1447 C 0.91424 0.39084 0.06704 0.0
C1448 C 0.91715 0.3632 0.05278 0.0
C1449 C 0.93193 0.34941 0.0547 0.0
C1450 C 0.87212 0.41516 0.05051 0.0
C1451 C 0.86749 0.42704 0.07804 0.0
C1452 C 0.88725 0.4033 0.0466 0.0
C1453 C 0.89809 0.40341 0.07005 0.0
C1454 C 0.89334 0.41543 0.09738 0.0
C1455 C 0.87837 0.42704 0.10128 0.0
H1456 H 0.68463 0.69598 0.79311 0.0
H1457 H 0.69948 0.62724 0.854 0.0
H1458 H 0.65869 0.67218 0.79019 0.0
H1459 H 0.67421 0.60289 0.85022 0.0
H1460 H 0.62385 0.59591 0.87644 0.0
H1461 H 0.64972 0.61622 0.87047 0.0
H1462 H 0.64153 0.62856 0.77703 0.0
H1463 H 0.6149 0.60856 0.78328 0.0
C1464 C 0.68246 0.67539 0.80521 0.0
C1465 C 0.69394 0.66367 0.82413 0.0
C1466 C 0.66764 0.66171 0.80353 0.0
C1467 C 0.66418 0.63594 0.82054 0.0
C1468 C 0.67621 0.62318 0.83754 0.0
C1469 C 0.69077 0.63702 0.83958 0.0
C1470 C 0.62744 0.60273 0.85447 0.0
C1471 C 0.6172 0.60039 0.83033 0.0
C1472 C 0.64246 0.61426 0.85098 0.0
C1473 C 0.64792 0.62372 0.82316 0.0
C1474 C 0.63772 0.62152 0.7988 0.0
C1475 C 0.62252 0.60985 0.80233 0.0
H1476 H 0.1245 0.0942 0.86902 0.0
H1477 H 0.11385 0.11475 0.77789 0.0
H1478 H 0.1506 0.11322 0.86253 0.0
H1479 H 0.14069 0.13364 0.7711 0.0
H1480 H 0.18477 0.19846 0.7909 0.0
H1481 H 0.15863 0.17566 0.7871 0.0
H1482 H 0.17454 0.10022 0.83902 0.0
H1483 H 0.20009 0.12349 0.84367 0.0
C1484 C 0.12775 0.10256 0.84737 0.0
C1485 C 0.11696 0.1028 0.82397 0.0
C1486 C 0.1429 0.11332 0.84356 0.0
C1487 C 0.14795 0.12468 0.81616 0.0
C1488 C 0.13721 0.12506 0.79253 0.0
C1489 C 0.12188 0.11405 0.79635 0.0
C1490 C 0.18268 0.17669 0.80084 0.0
C1491 C 0.19438 0.16281 0.81777 0.0
C1492 C 0.16772 0.1636 0.7987 0.0
C1493 C 0.16431 0.13636 0.81333 0.0
C1494 C 0.17653 0.12158 0.82817 0.0
C1495 C 0.19125 0.13478 0.83066 0.0
H1496 H 0.60914 0.12075 0.92184 0.0
H1497 H 0.62638 0.19873 0.96783 0.0
H1498 H 0.63453 0.09674 0.92639 0.0
H1499 H 0.65229 0.17508 0.97153 0.0
H1500 H 0.69672 0.11396 0.98128 0.0
H1501 H 0.67006 0.13327 0.98921 0.0
H1502 H 0.65806 0.10774 0.89996 0.0
H1503 H 0.68406 0.08843 0.89237 0.0
C1504 C 0.61836 0.13251 0.93346 0.0
C1505 C 0.61583 0.16157 0.94443 0.0
C1506 C 0.63297 0.11888 0.93586 0.0
C1507 C 0.64563 0.1342 0.9487 0.0
C1508 C 0.64283 0.16258 0.96155 0.0
C1509 C 0.62801 0.17615 0.95947 0.0
C1510 C 0.68826 0.11217 0.9636 0.0
C1511 C 0.69256 0.09956 0.9362 0.0
C1512 C 0.67304 0.12343 0.96804 0.0
C1513 C 0.6618 0.12186 0.94533 0.0
C1514 C 0.6662 0.10886 0.91823 0.0
C1515 C 0.68126 0.09793 0.91378 0.0
H1516 H 0.12842 0.69294 0.89011 0.0
H1517 H 0.11489 0.65956 0.97616 0.0
H1518 H 0.15305 0.66653 0.89378 0.0
H1519 H 0.14001 0.63288 0.97981 0.0
H1520 H 0.19629 0.61566 0.97621 0.0
H1521 H 0.17105 0.64185 0.98022 0.0
H1522 H 0.1587 0.61067 0.89303 0.0
H1523 H 0.18348 0.58476 0.88899 0.0
C1524 C 0.13071 0.68013 0.91 0.0
C1525 C 0.1195 0.67817 0.93269 0.0
C1526 C 0.14489 0.66488 0.91203 0.0
C1527 C 0.14842 0.6472 0.93686 0.0
C1528 C 0.13761 0.6463 0.96037 0.0
C1529 C 0.12324 0.66155 0.95825 0.0
C1530 C 0.18806 0.61408 0.95812 0.0
C1531 C 0.19205 0.59835 0.93213 0.0
C1532 C 0.17361 0.62904 0.96045 0.0
C1533 C 0.16298 0.62873 0.93674 0.0
C1534 C 0.16673 0.61186 0.91147 0.0
C1535 C 0.18099 0.59689 0.90922 0.0
H1536 H 0.44645 0.90934 0.72869 0.0
H1537 H 0.43301 0.94354 0.64303 0.0
H1538 H 0.42101 0.88361 0.73271 0.0
H1539 H 0.40809 0.91814 0.64706 0.0
H1540 H 0.37786 0.83633 0.64129 0.0
H1541 H 0.40272 0.86176 0.64615 0.0
H1542 H 0.38955 0.89341 0.7328 0.0
H1543 H 0.36417 0.86766 0.72795 0.0
C1544 C 0.43804 0.91179 0.711 0.0
C1545 C 0.44191 0.92821 0.68535 0.0
C1546 C 0.42349 0.89707 0.71332 0.0
C1547 C 0.41265 0.89841 0.68995 0.0
C1548 C 0.41628 0.91614 0.66519 0.0
C1549 C 0.43062 0.93079 0.66294 0.0
C1550 C 0.38017 0.84846 0.66158 0.0
C1551 C 0.36884 0.85022 0.68405 0.0
C1552 C 0.39449 0.86313 0.66431 0.0
C1553 C 0.39804 0.88004 0.68963 0.0
C1554 C 0.38713 0.88058 0.71299 0.0
C1555 C 0.37262 0.86586 0.71019 0.0
H1556 H 0.93513 0.43793 0.6421 0.0
H1557 H 0.94631 0.41303 0.73192 0.0
H1558 H 0.90905 0.4186 0.64827 0.0
H1559 H 0.91952 0.39386 0.73843 0.0
H1560 H 0.87552 0.3297 0.71675 0.0
H1561 H 0.90163 0.35253 0.72093 0.0
H1562 H 0.88522 0.43014 0.6728 0.0
H1563 H 0.8597 0.40689 0.66772 0.0
C1564 C 0.93198 0.42858 0.66341 0.0
C1565 C 0.94291 0.42716 0.68652 0.0
C1566 C 0.91686 0.41763 0.66704 0.0
C1567 C 0.91199 0.40492 0.69399 0.0
C1568 C 0.92286 0.40347 0.71735 0.0
C1569 C 0.93816 0.41466 0.71371 0.0
C1570 C 0.87751 0.3519 0.7077 0.0
C1571 C 0.86568 0.36644 0.69165 0.0
C1572 C 0.89244 0.36502 0.71008 0.0
C1573 C 0.89569 0.39294 0.69661 0.0
C1574 C 0.88336 0.40828 0.68271 0.0
C1575 C 0.86866 0.39507 0.67997 0.0
H1576 H 0.3611 0.37127 0.57903 0.0
H1577 H 0.37464 0.45816 0.5457 0.0
H1578 H 0.38763 0.35259 0.57113 0.0
H1579 H 0.40145 0.43973 0.53847 0.0
H1580 H 0.44702 0.40496 0.58992 0.0
H1581 H 0.4208 0.42391 0.58021 0.0
H1582 H 0.40996 0.34282 0.53216 0.0
H1583 H 0.43661 0.32415 0.54126 0.0
C1584 C 0.3697 0.38609 0.5692 0.0
C1585 C 0.36584 0.41604 0.56272 0.0
C1586 C 0.38487 0.3754 0.56462 0.0
C1587 C 0.39665 0.39466 0.5542 0.0
C1588 C 0.39261 0.42434 0.54648 0.0
C1589 C 0.37728 0.43485 0.55042 0.0
C1590 C 0.43916 0.3915 0.57665 0.0
C1591 C 0.44382 0.36311 0.56632 0.0
C1592 C 0.42417 0.40242 0.57096 0.0
C1593 C 0.4133 0.38491 0.5554 0.0
C1594 C 0.41811 0.35685 0.54417 0.0
C1595 C 0.43334 0.34621 0.54924 0.0
H1596 H 0.87453 0.93389 0.62026 0.0
H1597 H 0.86319 0.91209 0.52975 0.0
H1598 H 0.90059 0.91486 0.61334 0.0
H1599 H 0.88999 0.89312 0.52249 0.0
H1600 H 0.93394 0.8279 0.54272 0.0
H1601 H 0.90789 0.85106 0.53891 0.0
H1602 H 0.92442 0.92724 0.58904 0.0
H1603 H 0.94988 0.90362 0.59375 0.0
C1604 C 0.87763 0.92525 0.59864 0.0
C1605 C 0.86665 0.92462 0.57557 0.0
C1606 C 0.89275 0.91449 0.59458 0.0
C1607 C 0.89759 0.9027 0.56723 0.0
C1608 C 0.88668 0.90203 0.54388 0.0
C1609 C 0.87137 0.9131 0.54795 0.0
C1610 C 0.932 0.8499 0.55226 0.0
C1611 C 0.94385 0.8639 0.56874 0.0
C1612 C 0.91711 0.8632 0.5501 0.0
C1613 C 0.9139 0.89078 0.56423 0.0
C1614 C 0.92625 0.90564 0.57858 0.0
C1615 C 0.94092 0.89224 0.5811 0.0
H1616 H 0.62718 0.08319 0.36579 0.0
H1617 H 0.61265 0.11958 0.28168 0.0
H1618 H 0.65237 0.10738 0.3605 0.0
H1619 H 0.63836 0.1441 0.27636 0.0
H1620 H 0.69599 0.15664 0.27986 0.0
H1621 H 0.67031 0.13193 0.27518 0.0
H1622 H 0.65751 0.16479 0.36159 0.0
H1623 H 0.68265 0.18919 0.36628 0.0
C1624 C 0.6294 0.09614 0.34593 0.0
C1625 C 0.61774 0.09978 0.32438 0.0
C1626 C 0.64389 0.11004 0.34294 0.0
C1627 C 0.64728 0.12806 0.31827 0.0
C1628 C 0.63606 0.13035 0.29565 0.0
C1629 C 0.62136 0.11634 0.2987 0.0
C1630 C 0.68756 0.15895 0.29758 0.0
C1631 C 0.69152 0.17455 0.32365 0.0
C1632 C 0.67288 0.14484 0.29488 0.0
C1633 C 0.662 0.14603 0.31824 0.0
C1634 C 0.66572 0.16299 0.34343 0.0
C1635 C 0.6802 0.17702 0.34607 0.0
H1636 H 0.19527 0.66066 0.28395 0.0
H1637 H 0.18145 0.69656 0.36879 0.0
H1638 H 0.16978 0.6353 0.27991 0.0
H1639 H 0.15642 0.67157 0.36471 0.0
H1640 H 0.12558 0.5906 0.37113 0.0
H1641 H 0.15044 0.61607 0.36686 0.0
H1642 H 0.13878 0.64457 0.27843 0.0
H1643 H 0.11341 0.61871 0.28267 0.0
C1644 C 0.18676 0.66357 0.30145 0.0
C1645 C 0.19053 0.68035 0.32689 0.0
C1646 C 0.17217 0.64906 0.29912 0.0
C1647 C 0.16118 0.65099 0.32224 0.0
C1648 C 0.16472 0.66909 0.34678 0.0
C1649 C 0.17912 0.68352 0.34906 0.0
C1650 C 0.12822 0.60208 0.35059 0.0
C1651 C 0.11731 0.60287 0.32739 0.0
C1652 C 0.14253 0.6168 0.34821 0.0
C1653 C 0.14651 0.63283 0.32253 0.0
C1654 C 0.13603 0.63246 0.29854 0.0
C1655 C 0.12151 0.61767 0.30099 0.0
H1656 H 0.6947 0.61537 0.47864 0.0
H1657 H 0.68116 0.5846 0.39178 0.0
H1658 H 0.66942 0.64145 0.48348 0.0
H1659 H 0.6564 0.61039 0.39661 0.0
H1660 H 0.62667 0.69305 0.39392 0.0
H1661 H 0.65146 0.66725 0.39803 0.0
H1662 H 0.63779 0.63156 0.4829 0.0
H1663 H 0.61248 0.65765 0.47877 0.0
C1664 C 0.68631 0.61376 0.46083 0.0
C1665 C 0.6901 0.59818 0.43465 0.0
C1666 C 0.67185 0.62867 0.46363 0.0
C1667 C 0.66103 0.62838 0.44021 0.0
C1668 C 0.66458 0.61154 0.41483 0.0
C1669 C 0.67883 0.59667 0.41211 0.0
C1670 C 0.62887 0.67997 0.41367 0.0
C1671 C 0.61741 0.67716 0.43582 0.0
C1672 C 0.64313 0.6651 0.41598 0.0
C1673 C 0.64651 0.64695 0.44054 0.0
C1674 C 0.6355 0.64536 0.46367 0.0
C1675 C 0.62103 0.66028 0.46129 0.0
H1676 H 0.19899 0.16528 0.45062 0.0
H1677 H 0.1863 0.07209 0.46009 0.0
H1678 H 0.17174 0.17998 0.45713 0.0
H1679 H 0.1588 0.08672 0.466 0.0
H1680 H 0.11565 0.12837 0.41338 0.0
H1681 H 0.1416 0.10974 0.42527 0.0
H1682 H 0.14691 0.17991 0.49032 0.0
H1683 H 0.12049 0.19828 0.47876 0.0
C1684 C 0.19039 0.14801 0.45514 0.0
C1685 C 0.19474 0.11758 0.45511 0.0
C1686 C 0.17478 0.15644 0.45889 0.0
C1687 C 0.16308 0.13454 0.46195 0.0
C1688 C 0.16756 0.10411 0.46366 0.0
C1689 C 0.18329 0.09571 0.46054 0.0
C1690 C 0.12222 0.13952 0.43064 0.0
C1691 C 0.11608 0.16492 0.44501 0.0
C1692 C 0.13706 0.12866 0.43763 0.0
C1693 C 0.14634 0.14328 0.45877 0.0
C1694 C 0.14002 0.16814 0.47394 0.0
C1695 C 0.12492 0.17862 0.46741 0.0
H1696 H 0.33678 0.05485 0.16608 0.0
H1697 H 0.32091 0.07087 0.07684 0.0
H1698 H 0.33826 0.10886 0.17453 0.0
H1699 H 0.3225 0.12479 0.08524 0.0
H1700 H 0.33962 0.21979 0.10149 0.0
H1701 H 0.34092 0.16572 0.09387 0.0
H1702 H 0.32027 0.15139 0.17992 0.0
H1703 H 0.31889 0.20558 0.18749 0.0
C1704 C 0.33361 0.06984 0.14825 0.0
C1705 C 0.32868 0.05838 0.1208 0.0
C1706 C 0.33445 0.10083 0.15312 0.0
C1707 C 0.33044 0.12119 0.13062 0.0
C1708 C 0.32588 0.10976 0.10294 0.0
C1709 C 0.32499 0.07876 0.09809 0.0
C1710 C 0.33532 0.20516 0.11879 0.0
C1711 C 0.32902 0.21715 0.14501 0.0
C1712 C 0.33607 0.17412 0.1144 0.0
C1713 C 0.33059 0.15418 0.13616 0.0
C1714 C 0.32475 0.16609 0.1628 0.0
C1715 C 0.32397 0.19721 0.16718 0.0
H1716 H 0.99702 0.06804 0.17691 0.0
H1717 H 0.96009 0.05746 0.11299 0.0
H1718 H 0.99668 0.12213 0.16905 0.0
H1719 H 0.9595 0.11166 0.10544 0.0
H1720 H 0.97375 0.20622 0.07637 0.0
H1721 H 0.97373 0.15225 0.08435 0.0
H1722 H 0.98206 0.16638 0.1775 0.0
H1723 H 0.98298 0.22009 0.16936 0.0
C1724 C 0.98867 0.07728 0.16146 0.0
C1725 C 0.97859 0.05831 0.14558 0.0
C1726 C 0.98845 0.1084 0.15694 0.0
C1727 C 0.97806 0.12149 0.13657 0.0
C1728 C 0.96787 0.10248 0.1209 0.0
C1729 C 0.96817 0.07134 0.12529 0.0
C1730 C 0.97573 0.19797 0.09854 0.0
C1731 C 0.97845 0.21797 0.12211 0.0
C1732 C 0.97552 0.16684 0.1032 0.0
C1733 C 0.97793 0.15473 0.1316 0.0
C1734 C 0.9804 0.17471 0.15522 0.0
C1735 C 0.98071 0.20578 0.15056 0.0
H1736 H 0.73939 0.96543 0.84574 0.0
H1737 H 0.72127 0.95719 0.93463 0.0
H1738 H 0.73768 0.91142 0.83956 0.0
H1739 H 0.71971 0.90283 0.92842 0.0
H1740 H 0.73824 0.80566 0.91666 0.0
H1741 H 0.73729 0.85976 0.92348 0.0
H1742 H 0.71909 0.87016 0.8351 0.0
H1743 H 0.7199 0.81589 0.82826 0.0
C1744 C 0.73482 0.95227 0.86389 0.0
C1745 C 0.73045 0.96598 0.89073 0.0
C1746 C 0.73385 0.92113 0.8603 0.0
C1747 C 0.72853 0.9027 0.88345 0.0
C1748 C 0.72404 0.91631 0.91023 0.0
C1749 C 0.72496 0.94755 0.91381 0.0
C1750 C 0.73378 0.81929 0.89878 0.0
C1751 C 0.7292 0.80615 0.87182 0.0
C1752 C 0.73325 0.85045 0.90273 0.0
C1753 C 0.72817 0.86939 0.87982 0.0
C1754 C 0.72331 0.85629 0.85306 0.0
C1755 C 0.72379 0.82509 0.84913 0.0
H1756 H 0.08992 0.97228 0.91108 0.0
H1757 H 0.07019 0.95675 0.82456 0.0
H1758 H 0.09099 0.9183 0.91963 0.0
H1759 H 0.07144 0.90275 0.83304 0.0
H1760 H 0.07103 0.8226 0.93619 0.0
H1761 H 0.07252 0.87669 0.92785 0.0
H1762 H 0.08988 0.86102 0.83949 0.0
H1763 H 0.08856 0.80709 0.84787 0.0
C1764 C 0.0858 0.95741 0.89386 0.0
C1765 C 0.07988 0.96903 0.86717 0.0
C1766 C 0.08642 0.92642 0.8988 0.0
C1767 C 0.08122 0.90617 0.87712 0.0
C1768 C 0.07571 0.9177 0.8501 0.0
C1769 C 0.07502 0.94874 0.8452 0.0
C1770 C 0.0754 0.83064 0.91516 0.0
C1771 C 0.07954 0.81034 0.89263 0.0
C1772 C 0.07623 0.86169 0.91034 0.0
C1773 C 0.08119 0.87321 0.88288 0.0
C1774 C 0.08572 0.85293 0.86068 0.0
C1775 C 0.08495 0.82195 0.86552 0.0
H1776 H 0.34181 0.71002 0.6803 0.0
H1777 H 0.31721 0.71732 0.59731 0.0
H1778 H 0.34396 0.65579 0.67319 0.0
H1779 H 0.31937 0.66348 0.59025 0.0
H1780 H 0.33781 0.56987 0.57244 0.0
H1781 H 0.33794 0.62408 0.57991 0.0
H1782 H 0.3277 0.611 0.67258 0.0
H1783 H 0.32757 0.55688 0.66513 0.0
C1784 C 0.33682 0.70014 0.66061 0.0
C1785 C 0.32939 0.71824 0.63936 0.0
C1786 C 0.33805 0.66901 0.65651 0.0
C1787 C 0.3319 0.65521 0.63106 0.0
C1788 C 0.32453 0.67334 0.60982 0.0
C1789 C 0.32329 0.70436 0.6139 0.0
C1790 C 0.33554 0.57851 0.59439 0.0
C1791 C 0.33261 0.55885 0.61811 0.0
C1792 C 0.33562 0.60965 0.5987 0.0
C1793 C 0.33276 0.622 0.62684 0.0
C1794 C 0.33016 0.60233 0.65069 0.0
C1795 C 0.33009 0.5712 0.64638 0.0
H1796 H 0.98979 0.57193 0.68855 0.0
H1797 H 0.97042 0.55653 0.60171 0.0
H1798 H 0.98758 0.6261 0.6808 0.0
H1799 H 0.96849 0.61043 0.5939 0.0
H1800 H 0.98735 0.70607 0.57734 0.0
H1801 H 0.98712 0.65236 0.58651 0.0
H1802 H 0.96814 0.66757 0.67367 0.0
H1803 H 0.96798 0.72147 0.66442 0.0
C1804 C 0.98488 0.57997 0.66798 0.0
C1805 C 0.98046 0.55966 0.64565 0.0
C1806 C 0.98365 0.61107 0.66352 0.0
C1807 C 0.97802 0.62262 0.63658 0.0
C1808 C 0.97317 0.60233 0.61466 0.0
C1809 C 0.97431 0.57134 0.61917 0.0
C1810 C 0.98285 0.69822 0.59831 0.0
C1811 C 0.97768 0.71856 0.62008 0.0
C1812 C 0.98277 0.66723 0.6036 0.0
C1813 C 0.97765 0.65562 0.63087 0.0
C1814 C 0.97236 0.67579 0.65257 0.0
C1815 C 0.97228 0.70679 0.6472 0.0
H1816 H 0.73685 0.45384 0.43445 0.0
H1817 H 0.71935 0.46901 0.3462 0.0
H1818 H 0.73546 0.3998 0.42641 0.0
H1819 H 0.71801 0.41495 0.33811 0.0
H1820 H 0.73759 0.319 0.32353 0.0
H1821 H 0.73597 0.37307 0.33141 0.0
H1822 H 0.71761 0.35788 0.41916 0.0
H1823 H 0.71919 0.30383 0.41124 0.0
C1824 C 0.73245 0.44572 0.41351 0.0
C1825 C 0.72828 0.46592 0.39095 0.0
C1826 C 0.73167 0.41465 0.40886 0.0
C1827 C 0.7267 0.40295 0.38153 0.0
C1828 C 0.72216 0.42314 0.35924 0.0
C1829 C 0.72292 0.45418 0.3639 0.0
C1830 C 0.73294 0.32713 0.3443 0.0
C1831 C 0.72859 0.30694 0.36679 0.0
C1832 C 0.73203 0.35821 0.34886 0.0
C1833 C 0.72675 0.3699 0.37602 0.0
C1834 C 0.722 0.3497 0.39818 0.0
C1835 C 0.7229 0.31866 0.39362 0.0
H1836 H 0.07532 0.30412 0.34136 0.0
H1837 H 0.08743 0.31895 0.43287 0.0
H1838 H 0.07472 0.35814 0.33308 0.0
H1839 H 0.08686 0.37302 0.42458 0.0
H1840 H 0.06544 0.46529 0.40846 0.0
H1841 H 0.06769 0.41147 0.41536 0.0
H1842 H 0.09041 0.40367 0.33038 0.0
H1843 H 0.08814 0.45799 0.32342 0.0
C1844 C 0.07809 0.31883 0.35965 0.0
C1845 C 0.08136 0.30703 0.38787 0.0
C1846 C 0.07774 0.3499 0.35487 0.0
C1847 C 0.08064 0.37003 0.37817 0.0
C1848 C 0.08426 0.35822 0.40623 0.0
C1849 C 0.0846 0.32716 0.41101 0.0
C1850 C 0.0711 0.45229 0.39133 0.0
C1851 C 0.07674 0.46619 0.36547 0.0
C1852 C 0.0724 0.42129 0.39533 0.0
C1853 C 0.07937 0.40315 0.37359 0.0
C1854 C 0.08487 0.41691 0.34751 0.0
C1855 C 0.08356 0.44807 0.34349 0.0
H1856 H 0.81558 0.07177 0.58075 0.0
H1857 H 0.84407 0.05885 0.65827 0.0
H1858 H 0.816 0.12585 0.58884 0.0
H1859 H 0.84485 0.11303 0.66614 0.0
H1860 H 0.82883 0.20789 0.68986 0.0
H1861 H 0.82905 0.15411 0.6814 0.0
H1862 H 0.83178 0.16929 0.5872 0.0
H1863 H 0.83072 0.22276 0.5953 0.0
C1864 C 0.82218 0.08053 0.59922 0.0
C1865 C 0.8298 0.06098 0.61886 0.0
C1866 C 0.82244 0.11161 0.60392 0.0
C1867 C 0.83043 0.124 0.62824 0.0
C1868 C 0.83831 0.10439 0.64753 0.0
C1869 C 0.83794 0.0733 0.64295 0.0
C1870 C 0.82934 0.20001 0.66728 0.0
C1871 C 0.82965 0.22034 0.64337 0.0
C1872 C 0.82966 0.16892 0.66243 0.0
C1873 C 0.83041 0.15715 0.63357 0.0
C1874 C 0.83094 0.17738 0.60973 0.0
C1875 C 0.83051 0.20839 0.61452 0.0
H1876 H 0.46938 0.05837 0.60152 0.0
H1877 H 0.49294 0.07224 0.68464 0.0
H1878 H 0.4681 0.11253 0.59393 0.0
H1879 H 0.49201 0.1264 0.6769 0.0
H1880 H 0.47636 0.22285 0.66702 0.0
H1881 H 0.47564 0.16926 0.67512 0.0
H1882 H 0.48422 0.15419 0.58218 0.0
H1883 H 0.4842 0.2078 0.57357 0.0
C1884 C 0.47433 0.07303 0.61814 0.0
C1885 C 0.48126 0.06097 0.64367 0.0
C1886 C 0.47367 0.10412 0.61375 0.0
C1887 C 0.48004 0.12402 0.63467 0.0
C1888 C 0.48676 0.1119 0.66047 0.0
C1889 C 0.4873 0.08079 0.66496 0.0
C1890 C 0.47798 0.20844 0.64807 0.0
C1891 C 0.4804 0.22039 0.61952 0.0
C1892 C 0.47771 0.17739 0.65288 0.0
C1893 C 0.47994 0.15718 0.62938 0.0
C1894 C 0.48226 0.16896 0.60083 0.0
C1895 C 0.48243 0.20003 0.59595 0.0
H1896 H 0.2164 0.81113 0.40042 0.0
H1897 H 0.2477 0.82335 0.32662 0.0
H1898 H 0.21472 0.8656 0.40676 0.0
H1899 H 0.24621 0.87809 0.3332 0.0
H1900 H 0.25331 0.96971 0.38638 0.0
H1901 H 0.25466 0.91573 0.37555 0.0
H1902 H 0.20438 0.91096 0.3765 0.0
H1903 H 0.20304 0.96476 0.38702 0.0
C1904 C 0.2229 0.82553 0.38555 0.0
C1905 C 0.23217 0.81302 0.36304 0.0
C1906 C 0.22189 0.85668 0.38906 0.0
C1907 C 0.23035 0.87609 0.37051 0.0
C1908 C 0.23961 0.86365 0.3479 0.0
C1909 C 0.24037 0.83241 0.34399 0.0
C1910 C 0.24257 0.95711 0.38412 0.0
C1911 C 0.22807 0.97149 0.38751 0.0
C1912 C 0.24333 0.92631 0.37773 0.0
C1913 C 0.22962 0.90915 0.3752 0.0
C1914 C 0.21514 0.92359 0.37842 0.0
C1915 C 0.21437 0.95443 0.38424 0.0
H1916 H 0.57012 0.96743 0.41608 0.0
H1917 H 0.58719 0.95779 0.32653 0.0
H1918 H 0.57133 0.91347 0.42264 0.0
H1919 H 0.58813 0.90345 0.33316 0.0
H1920 H 0.56736 0.80803 0.3465 0.0
H1921 H 0.56925 0.86191 0.3395 0.0
H1922 H 0.58979 0.87106 0.4261 0.0
H1923 H 0.58817 0.81686 0.43312 0.0
C1924 C 0.57435 0.95401 0.39784 0.0
C1925 C 0.57856 0.96735 0.3707 0.0
C1926 C 0.57503 0.92289 0.40168 0.0
C1927 C 0.57984 0.9041 0.37846 0.0
C1928 C 0.58421 0.91729 0.3514 0.0
C1929 C 0.58363 0.94851 0.34759 0.0
C1930 C 0.57255 0.82124 0.36396 0.0
C1931 C 0.57759 0.80773 0.39047 0.0
C1932 C 0.57362 0.85231 0.35987 0.0
C1933 C 0.57966 0.87084 0.38222 0.0
C1934 C 0.5849 0.85744 0.40857 0.0
C1935 C 0.58392 0.82629 0.41262 0.0
H1936 H 0.82328 0.57321 0.07586 0.0
H1937 H 0.83901 0.55856 0.16547 0.0
H1938 H 0.82503 0.62733 0.08346 0.0
H1939 H 0.84043 0.61259 0.17311 0.0
H1940 H 0.82005 0.70793 0.18547 0.0
H1941 H 0.82121 0.65414 0.17706 0.0
H1942 H 0.84394 0.66916 0.09312 0.0
H1943 H 0.84315 0.7232 0.10169 0.0
C1944 C 0.82733 0.58137 0.09703 0.0
C1945 C 0.83088 0.56127 0.12011 0.0
C1946 C 0.82829 0.61249 0.10139 0.0
C1947 C 0.83273 0.6243 0.12898 0.0
C1948 C 0.8367 0.60425 0.15176 0.0
C1949 C 0.83585 0.5732 0.14735 0.0
C1950 C 0.82558 0.70001 0.16543 0.0
C1951 C 0.83153 0.7203 0.14432 0.0
C1952 C 0.82619 0.669 0.16058 0.0
C1953 C 0.83265 0.65732 0.13441 0.0
C1954 C 0.83871 0.67744 0.11337 0.0
C1955 C 0.83823 0.7085 0.11832 0.0
H1956 H 0.48909 0.57194 0.18771 0.0
H1957 H 0.467 0.558 0.10293 0.0
H1958 H 0.48762 0.62608 0.18028 0.0
H1959 H 0.46588 0.61204 0.0954 0.0
H1960 H 0.46934 0.72236 0.16714 0.0
H1961 H 0.46852 0.66833 0.17553 0.0
H1962 H 0.48502 0.65315 0.08657 0.0
H1963 H 0.48622 0.70704 0.07825 0.0
C1964 C 0.48375 0.58025 0.16766 0.0
C1965 C 0.47829 0.5603 0.14584 0.0
C1966 C 0.48294 0.6114 0.16339 0.0
C1967 C 0.47675 0.62339 0.13713 0.0
C1968 C 0.47097 0.60353 0.11564 0.0
C1969 C 0.47166 0.57246 0.11999 0.0
C1970 C 0.47288 0.70763 0.14935 0.0
C1971 C 0.47791 0.7194 0.122 0.0
C1972 C 0.47239 0.67658 0.1542 0.0
C1973 C 0.47674 0.65642 0.13176 0.0
C1974 C 0.48141 0.66806 0.10422 0.0
C1975 C 0.48204 0.6991 0.09943 0.0
H1976 H 0.24005 0.31998 0.82607 0.0
H1977 H 0.21662 0.30627 0.90974 0.0
H1978 H 0.23999 0.37386 0.83462 0.0
H1979 H 0.21685 0.36031 0.91843 0.0
H1980 H 0.2384 0.45494 0.93661 0.0
H1981 H 0.23604 0.40089 0.92867 0.0
H1982 H 0.22198 0.41682 0.8384 0.0
H1983 H 0.2241 0.47067 0.84635 0.0
C1984 C 0.23467 0.32832 0.8461 0.0
C1985 C 0.22833 0.30845 0.86718 0.0
C1986 C 0.23469 0.35936 0.85105 0.0
C1987 C 0.22845 0.37145 0.87726 0.0
C1988 C 0.22195 0.35172 0.8982 0.0
C1989 C 0.22183 0.32067 0.89317 0.0
C1990 C 0.23457 0.44702 0.91521 0.0
C1991 C 0.2316 0.46738 0.89207 0.0
C1992 C 0.23324 0.41596 0.91063 0.0
C1993 C 0.22897 0.40448 0.88279 0.0
C1994 C 0.2256 0.42484 0.85994 0.0
C1995 C 0.22684 0.45581 0.86453 0.0
H1996 H 0.57621 0.30648 0.84659 0.0
H1997 H 0.58927 0.31874 0.93804 0.0
H1998 H 0.57608 0.3606 0.83957 0.0
H1999 H 0.58906 0.373 0.93098 0.0
H2000 H 0.56742 0.4663 0.91615 0.0
H2001 H 0.57 0.41247 0.92282 0.0
H2002 H 0.59244 0.40543 0.83755 0.0
H2003 H 0.58996 0.45962 0.83085 0.0
C2004 C 0.57929 0.32059 0.86514 0.0
C2005 C 0.5827 0.30798 0.89297 0.0
C2006 C 0.57921 0.35177 0.86107 0.0
C2007 C 0.58249 0.37126 0.88471 0.0
C2008 C 0.58621 0.3587 0.91238 0.0
C2009 C 0.58632 0.3275 0.91645 0.0
C2010 C 0.57313 0.45351 0.89892 0.0
C2011 C 0.57851 0.4676 0.87294 0.0
C2012 C 0.57461 0.42248 0.9028 0.0
C2013 C 0.58147 0.40451 0.88079 0.0
C2014 C 0.58693 0.41851 0.85483 0.0
C2015 C 0.58549 0.44965 0.85097 0.0
H2016 H 0.27618 0.19347 0.39544 0.0
H2017 H 0.26569 0.13879 0.31897 0.0
H2018 H 0.29057 0.22833 0.36405 0.0
H2019 H 0.28058 0.17327 0.28789 0.0
H2020 H 0.31793 0.23091 0.24316 0.0
H2021 H 0.30827 0.19394 0.27927 0.0
H2022 H 0.28225 0.26389 0.32342 0.0
H2023 H 0.29168 0.30035 0.28724 0.0
C2024 C 0.27684 0.18886 0.37196 0.0
C2025 C 0.26953 0.16336 0.35979 0.0
C2026 C 0.28525 0.20874 0.35404 0.0
C2027 C 0.28677 0.20347 0.32355 0.0
C2028 C 0.27984 0.17766 0.31142 0.0
C2029 C 0.27126 0.15793 0.32928 0.0
C2030 C 0.31054 0.23838 0.26115 0.0
C2031 C 0.30561 0.26838 0.26271 0.0
C2032 C 0.30487 0.21725 0.28157 0.0
C2033 C 0.29443 0.22602 0.30407 0.0
C2034 C 0.29035 0.25647 0.30653 0.0
C2035 C 0.29575 0.27734 0.28587 0.0
H2036 H 0.03817 0.14016 0.32297 0.0
H2037 H 0.04255 0.07316 0.39165 0.0
H2038 H 1.02351 0.1047 0.29285 0.0
H2039 H 1.02814 0.0375 0.3611 0.0
H2040 H 1.02369 0.97656 0.27675 0.0
H2041 H 0.0337 1.01094 0.31405 0.0
H2042 H 0.99826 0.0756 0.29048 0.0
H2043 H 0.98816 0.04067 0.25289 0.0
C2044 C 0.0359 0.11797 0.3318 0.0
C2045 C 0.04164 0.10955 0.35975 0.0
C2046 C 1.02742 0.09769 0.31454 0.0
C2047 C 1.02456 0.06837 0.32468 0.0
C2048 C 0.03023 0.05991 0.35263 0.0
C2049 C 0.03862 0.08027 0.37001 0.0
C2050 C 1.01781 0.99785 0.28008 0.0
C2051 C 1.00519 1.00609 0.26209 0.0
C2052 C 1.02351 0.0175 0.30148 0.0
C2053 C 1.01685 0.04608 0.30506 0.0
C2054 C 1.00369 0.05378 0.288 0.0
C2055 C 0.99781 0.03378 0.26678 0.0
H2056 H 0.31846 1.00121 0.97425 0.0
H2057 H 0.28773 0.04041 0.0393 0.0
H2058 H 0.30826 0.03625 0.93679 0.0
H2059 H 0.27756 0.07482 1.00245 0.0
H2060 H 0.27063 0.14919 0.93718 0.0
H2061 H 0.28466 0.11761 0.97201 0.0
H2062 H 0.28253 0.0436 0.91044 0.0
H2063 H 0.26884 0.07571 0.87491 0.0
C2064 C 0.30983 0.01776 0.98064 0.0
C2065 C 0.30391 0.01825 0.00961 0.0
C2066 C 0.30385 0.0375 0.95921 0.0
C2067 C 0.29205 0.05826 0.96663 0.0
C2068 C 0.28673 0.0594 0.99599 0.0
C2069 C 0.29253 0.0396 0.01712 0.0
C2070 C 0.27326 0.12628 0.93087 0.0
C2071 C 0.26856 0.11499 0.90324 0.0
C2072 C 0.28125 0.10811 0.95093 0.0
C2073 C 0.28473 0.07807 0.94402 0.0
C2074 C 0.28018 0.06675 0.91629 0.0
C2075 C 0.27212 0.08499 0.89615 0.0
H2076 H 0.03643 0.12804 0.93453 0.0
H2077 H 0.04413 0.20475 0.87787 0.0
H2078 H 1.0223 0.1596 0.96939 0.0
H2079 H 0.0302 0.23671 0.91338 0.0
H2080 H 0.99232 0.2792 0.97375 0.0
H2081 H 1.00313 0.24519 0.93591 0.0
H2082 H 0.02995 0.19998 1.00336 0.0
H2083 H 1.01924 0.23352 0.04058 0.0
C2084 C 0.03509 0.1517 0.92952 0.0
C2085 C 0.04143 0.16391 0.90346 0.0
C2086 C 1.02703 0.1698 0.94955 0.0
C2087 C 1.02508 0.20063 0.9441 0.0
C2088 C 0.03135 0.21294 0.91799 0.0
C2089 C 0.03952 0.19477 0.89792 0.0
C2090 C 1.00021 0.26143 0.98038 0.0
C2091 C 1.0049 0.25875 0.01 0.0
C2092 C 1.00655 0.2423 0.95878 0.0
C2093 C 1.01744 0.21999 0.96666 0.0
C2094 C 1.0215 0.21669 0.99655 0.0
C2095 C 1.01538 0.23593 0.01789 0.0
H2096 H 0.77022 0.78979 0.79096 0.0
H2097 H 0.74129 0.74894 0.72412 0.0
H2098 H 0.78067 0.8246 0.75465 0.0
H2099 H 0.75181 0.78432 0.68718 0.0
H2100 H 0.79217 0.82542 0.62806 0.0
H2101 H 0.77826 0.79264 0.66284 0.0
H2102 H 0.77331 0.86699 0.72344 0.0
H2103 H 0.78749 0.8993 0.68932 0.0
C2104 C 0.76587 0.78871 0.76849 0.0
C2105 C 0.75491 0.76683 0.76032 0.0
C2106 C 0.77184 0.80871 0.74767 0.0
C2107 C 0.76712 0.80719 0.718 0.0
C2108 C 0.75575 0.78586 0.70988 0.0
C2109 C 0.74957 0.76593 0.73099 0.0
C2110 C 0.78822 0.83462 0.64893 0.0
C2111 C 0.79101 0.86492 0.65598 0.0
C2112 C 0.78005 0.816 0.66862 0.0
C2113 C 0.77463 0.82726 0.69583 0.0
C2114 C 0.77739 0.85757 0.70274 0.0
C2115 C 0.78547 0.87612 0.68311 0.0
H2116 H 0.06796 0.02762 0.7223 0.0
H2117 H 0.03694 0.98908 0.7873 0.0
H2118 H 0.05787 0.99219 0.68504 0.0
H2119 H 1.0269 0.95431 0.75067 0.0
H2120 H 1.02058 0.87876 0.68646 0.0
H2121 H 0.03441 0.91106 0.72097 0.0
H2122 H 0.03215 0.98417 0.65837 0.0
H2123 H 1.01863 0.95136 0.6232 0.0
C2124 C 0.05927 1.01119 0.72872 0.0
C2125 C 0.05325 1.01099 0.75763 0.0
C2126 C 0.05335 0.99121 0.7074 0.0
C2127 C 0.04155 0.97047 0.71488 0.0
C2128 C 0.03608 0.9697 0.74417 0.0
C2129 C 0.04181 0.98973 0.76517 0.0
C2130 C 1.02315 0.90162 0.67985 0.0
C2131 C 1.01844 0.91246 0.65205 0.0
C2132 C 0.03102 0.92021 0.69973 0.0
C2133 C 0.03439 0.95022 0.69245 0.0
C2134 C 0.02987 0.96107 0.66452 0.0
C2135 C 1.02192 0.94242 0.64457 0.0
H2136 H 0.76821 0.90326 0.12219 0.0
H2137 H 0.81328 0.94044 0.09985 0.0
H2138 H 0.7559 0.93583 0.08559 0.0
H2139 H 0.80091 0.97374 0.06413 0.0
H2140 H 0.77856 0.99674 0.97711 0.0
H2141 H 0.78885 0.96541 0.01625 0.0
H2142 H 0.74963 0.98868 0.07182 0.0
H2143 H 0.73909 0.02026 0.03189 0.0
C2144 C 0.77549 0.91849 0.10958 0.0
C2145 C 0.79179 0.91887 0.11364 0.0
C2146 C 0.76839 0.9374 0.08886 0.0
C2147 C 0.77743 0.95711 0.07166 0.0
C2148 C 0.79363 0.95841 0.07664 0.0
C2149 C 0.80072 0.93954 0.09735 0.0
C2150 C 0.77202 0.99514 0.99759 0.0
C2151 C 0.75805 1.01118 1.0015 0.0
C2152 C 0.77802 0.97731 0.02015 0.0
C2153 C 0.77027 0.97505 0.04742 0.0
C2154 C 0.7559 0.99005 0.05105 0.0
C2155 C 0.74983 1.00801 0.02823 0.0
H2156 H 0.07043 0.79482 0.99796 0.0
H2157 H 0.03972 0.72558 0.03061 0.0
H2158 H 0.05936 0.83028 0.03397 0.0
H2159 H 1.02905 0.7602 0.06701 0.0
H2160 H 0.99776 0.83711 0.09527 0.0
H2161 H 1.01164 0.80183 0.06367 0.0
H2162 H 0.05531 0.84494 0.08542 0.0
H2163 H 0.04134 0.88049 0.11691 0.0
C2164 C 0.06171 0.78699 0.01352 0.0
C2165 C 0.05586 0.75762 0.01158 0.0
C2166 C 0.0553 0.80724 0.03405 0.0
C2167 C 0.04303 0.79828 0.05298 0.0
C2168 C 0.03811 0.76818 0.05224 0.0
C2169 C 0.04435 0.74822 0.03164 0.0
C2170 C 1.01032 0.83895 0.0935 0.0
C2171 C 1.0184 0.86165 0.10864 0.0
C2172 C 1.01833 0.81865 0.07543 0.0
C2173 C 0.03466 0.82031 0.07216 0.0
C2174 C 0.04275 0.84314 0.08718 0.0
C2175 C 0.03471 0.86354 0.10521 0.0
H2176 H 0.28808 0.73801 0.72172 0.0
H2177 H 0.31845 0.77865 0.78633 0.0
H2178 H 0.27685 0.70595 0.75962 0.0
H2179 H 0.30681 0.7469 0.825 0.0
H2180 H 0.29001 0.66487 0.88034 0.0
H2181 H 0.30326 0.6965 0.84419 0.0
H2182 H 0.25932 0.71216 0.80014 0.0
H2183 H 0.24623 0.67927 0.83534 0.0
C2184 C 0.29246 0.73983 0.74412 0.0
C2185 C 0.30411 0.76079 0.75114 0.0
C2186 C 0.28587 0.7217 0.76595 0.0
C2187 C 0.29061 0.72432 0.79557 0.0
C2188 C 0.30288 0.74429 0.80241 0.0
C2189 C 0.30962 0.76235 0.78031 0.0
C2190 C 0.28318 0.6749 0.86281 0.0
C2191 C 0.26706 0.66904 0.86048 0.0
C2192 C 0.29077 0.69336 0.84227 0.0
C2193 C 0.28244 0.70654 0.81892 0.0
C2194 C 0.2662 0.70179 0.81741 0.0
C2195 C 0.25862 0.68325 0.83787 0.0
H2196 H 1.02186 0.61233 0.88125 0.0
H2197 H 0.06523 0.60091 0.83381 0.0
H2198 H 1.00915 0.57675 0.848 0.0
H2199 H 0.05254 0.56556 0.80052 0.0
H2200 H 0.03128 0.48194 0.76458 0.0
H2201 H 0.04202 0.51572 0.80132 0.0
H2202 H 1.00039 0.57023 0.79664 0.0
H2203 H 0.98937 0.53542 0.75991 0.0
C2204 C 1.02866 0.60237 0.86359 0.0
C2205 C 0.04459 0.60945 0.86019 0.0
C2206 C 1.02135 0.58202 0.84452 0.0
C2207 C 0.0298 0.56819 0.82164 0.0
C2208 C 0.04573 0.57534 0.81825 0.0
C2209 C 0.05303 0.59561 0.83734 0.0
C2210 C 1.02433 0.50101 0.77153 0.0
C2211 C 1.00957 0.5063 0.75916 0.0
C2212 C 0.03055 0.52051 0.79248 0.0
C2213 C 1.02226 0.5461 0.80146 0.0
C2214 C 1.0071 0.5507 0.79018 0.0
C2215 C 1.00076 0.53083 0.76921 0.0
H2216 H 0.31713 0.50068 0.47344 0.0
H2217 H 0.28552 0.53797 0.5381 0.0
H2218 H 0.3054 0.53277 0.43522 0.0
H2219 H 0.27416 0.57021 0.50066 0.0
H2220 H 0.24417 0.59791 0.42456 0.0
H2221 H 0.25721 0.56433 0.45913 0.0
H2222 H 0.30154 0.58401 0.41785 0.0
H2223 H 0.2884 0.61643 0.38234 0.0
C2224 C 0.30795 0.51621 0.47957 0.0
C2225 C 0.30217 0.51673 0.50863 0.0
C2226 C 0.30117 0.53448 0.45773 0.0
C2227 C 0.28857 0.55362 0.46472 0.0
C2228 C 0.28347 0.55511 0.49421 0.0
C2229 C 0.29012 0.53683 0.51578 0.0
C2230 C 0.25665 0.59471 0.42251 0.0
C2231 C 0.26522 0.61025 0.40089 0.0
C2232 C 0.26419 0.57573 0.4426 0.0
C2233 C 0.2805 0.57185 0.44166 0.0
C2234 C 0.28899 0.58644 0.41928 0.0
C2235 C 0.28145 0.60535 0.39913 0.0
H2236 H 1.01656 0.73049 0.53983 0.0
H2237 H 0.99285 0.78037 0.47157 0.0
H2238 H 1.02719 0.69645 0.50293 0.0
H2239 H 1.00357 0.74591 0.43407 0.0
H2240 H 0.0449 0.70321 0.37892 0.0
H2241 H 0.0307 0.73536 0.41381 0.0
H2242 H 1.01986 0.65769 0.46726 0.0
H2243 H 0.03429 0.62589 0.43305 0.0
C2244 C 1.01335 0.7337 0.51686 0.0
C2245 C 1.00382 0.75785 0.50849 0.0
C2246 C 1.01943 0.71418 0.49571 0.0
C2247 C 1.0163 0.71854 0.46553 0.0
C2248 C 1.00629 0.74215 0.45715 0.0
C2249 C 0.99998 0.76157 0.47855 0.0
C2250 C 0.03958 0.69312 0.39827 0.0
C2251 C 0.04078 0.66202 0.40327 0.0
C2252 C 0.03125 0.71143 0.41798 0.0
C2253 C 1.02409 0.69904 0.44322 0.0
C2254 C 1.02529 0.66796 0.44811 0.0
C2255 C 0.03352 0.64972 0.42842 0.0
H2256 H 0.79504 0.32401 0.1283 0.0
H2257 H 0.78652 0.39918 0.18646 0.0
H2258 H 0.78111 0.29088 0.1628 0.0
H2259 H 0.77243 0.36643 0.22037 0.0
H2260 H 0.7696 0.29047 0.28978 0.0
H2261 H 0.78025 0.32528 0.25356 0.0
H2262 H 0.75393 0.28131 0.18463 0.0
H2263 H 0.74316 0.24607 0.22144 0.0
C2264 C 0.79025 0.3334 0.14846 0.0
C2265 C 0.79193 0.36417 0.15472 0.0
C2266 C 0.78209 0.31456 0.16796 0.0
C2267 C 0.77561 0.32609 0.19423 0.0
C2268 C 0.77733 0.35684 0.20039 0.0
C2269 C 0.78536 0.37562 0.1809 0.0
C2270 C 0.76585 0.28858 0.26697 0.0
C2271 C 0.75552 0.26575 0.25836 0.0
C2272 C 0.77193 0.30855 0.24622 0.0
C2273 C 0.76799 0.30598 0.2162 0.0
C2274 C 0.75726 0.28365 0.20761 0.0
C2275 C 0.75094 0.2638 0.22863 0.0
H2276 H 0.0706 0.48484 0.25808 0.0
H2277 H 0.03774 0.55228 0.22986 0.0
H2278 H 0.05992 0.44982 0.22128 0.0
H2279 H 1.02741 0.51809 0.19278 0.0
H2280 H 0.99754 0.4385 0.16483 0.0
H2281 H 1.0111 0.47446 0.19614 0.0
H2282 H 0.05541 0.43708 0.16923 0.0
H2283 H 0.0418 0.40095 0.13789 0.0
C2284 C 0.06147 0.49243 0.24333 0.0
C2285 C 0.05491 0.52107 0.24679 0.0
C2286 C 0.05529 0.47242 0.22235 0.0
C2287 C 0.04253 0.48092 0.20451 0.0
C2288 C 0.03688 0.51046 0.20669 0.0
C2289 C 0.04291 0.53016 0.22771 0.0
C2290 C 1.01017 0.43813 0.16533 0.0
C2291 C 1.01854 0.41679 0.14885 0.0
C2292 C 1.01799 0.4588 0.18326 0.0
C2293 C 0.0344 0.45884 0.1851 0.0
C2294 C 0.04278 0.43751 0.1686 0.0
C2295 C 0.03495 0.41678 0.15066 0.0
H2296 H 0.79015 0.4526 0.6357 0.0
H2297 H 0.78857 0.37842 0.57423 0.0
H2298 H 0.77622 0.48409 0.59995 0.0
H2299 H 0.77433 0.40939 0.53916 0.0
H2300 H 0.77075 0.48591 0.47117 0.0
H2301 H 0.78126 0.4522 0.50831 0.0
H2302 H 0.75029 0.4904 0.57373 0.0
H2303 H 0.73973 0.5247 0.53598 0.0
C2304 C 0.78686 0.44304 0.61459 0.0
C2305 C 0.79055 0.41303 0.60777 0.0
C2306 C 0.77867 0.46092 0.59432 0.0
C2307 C 0.77412 0.44921 0.56675 0.0
C2308 C 0.77773 0.41917 0.56011 0.0
C2309 C 0.78584 0.40136 0.58031 0.0
C2310 C 0.76598 0.4868 0.49337 0.0
C2311 C 0.7544 0.50782 0.50072 0.0
C2312 C 0.77197 0.4674 0.51466 0.0
C2313 C 0.76665 0.46863 0.54402 0.0
C2314 C 0.7547 0.48909 0.55131 0.0
C2315 C 0.74852 0.50842 0.52972 0.0
H2316 H 0.04074 0.36672 0.62565 0.0
H2317 H 0.9956 0.34326 0.59005 0.0
H2318 H 0.05335 0.33448 0.5892 0.0
H2319 H 1.00817 0.30992 0.55457 0.0
H2320 H 0.03435 0.28489 0.47228 0.0
H2321 H 1.02351 0.31666 0.51068 0.0
H2322 H 0.05769 0.28296 0.5725 0.0
H2323 H 0.06886 0.25128 0.53331 0.0
C2324 C 0.03348 0.35458 0.61013 0.0
C2325 C 1.01713 0.35803 0.61048 0.0
C2326 C 0.04073 0.33579 0.58946 0.0
C2327 C 0.03182 0.31991 0.56865 0.0
C2328 C 1.01543 0.32234 0.56986 0.0
C2329 C 1.00819 0.34118 0.59047 0.0
C2330 C 0.03968 0.28443 0.49399 0.0
C2331 C 0.05241 0.26549 0.49985 0.0
C2332 C 0.03335 0.30245 0.51613 0.0
C2333 C 0.03946 0.30189 0.54491 0.0
C2334 C 0.05268 0.28392 0.55055 0.0
C2335 C 0.05913 0.26588 0.52815 0.0
H2336 H 0.74698 0.18536 0.84153 0.0
H2337 H 0.79138 0.15682 0.87674 0.0
H2338 H 0.76031 0.22151 0.80991 0.0
H2339 H 0.80475 0.19306 0.84508 0.0
H2340 H 0.82176 0.23758 0.75573 0.0
H2341 H 0.81082 0.20301 0.79282 0.0
H2342 H 0.77474 0.26772 0.81281 0.0
H2343 H 0.78539 0.30142 0.77557 0.0
C2344 C 0.75957 0.18704 0.84279 0.0
C2345 C 0.76807 0.16809 0.86162 0.0
C2346 C 0.76725 0.20779 0.82466 0.0
C2347 C 0.78364 0.21029 0.82499 0.0
C2348 C 0.79215 0.19148 0.84397 0.0
C2349 C 0.78446 0.1707 0.86211 0.0
C2350 C 0.81174 0.24452 0.76867 0.0
C2351 C 0.80432 0.27194 0.76277 0.0
C2352 C 0.80542 0.22477 0.78979 0.0
C2353 C 0.79167 0.23233 0.80533 0.0
C2354 C 0.78504 0.26077 0.80069 0.0
C2355 C 0.79122 0.2802 0.77956 0.0
H2356 H 0.52343 0.03791 0.72366 0.0
H2357 H 0.49109 1.00201 0.78782 0.0
H2358 H 0.53365 0.07244 0.76033 0.0
H2359 H 0.50136 0.03719 0.82511 0.0
H2360 H 0.54054 0.07637 0.88804 0.0
H2361 H 0.52692 0.04395 0.85267 0.0
H2362 H 0.52648 0.11645 0.78923 0.0
H2363 H 0.54042 0.14834 0.82395 0.0
C2364 C 0.51833 0.03779 0.7456 0.0
C2365 C 0.50645 0.01735 0.75291 0.0
C2366 C 0.52415 0.05769 0.76662 0.0
C2367 C 0.51836 0.05757 0.79568 0.0
C2368 C 0.50614 0.03764 0.80292 0.0
C2369 C 0.50013 0.01781 0.78158 0.0
C2370 C 0.53763 0.08525 0.86644 0.0
C2371 C 0.54165 0.11491 0.85878 0.0
C2372 C 0.52962 0.06684 0.84637 0.0
C2373 C 0.52558 0.07764 0.81816 0.0
C2374 C 0.5295 0.10736 0.81069 0.0
C2375 C 0.53743 0.1257 0.83068 0.0
H2376 H 0.78502 0.03749 0.53761 0.0
H2377 H 0.81767 0.99909 0.47548 0.0
H2378 H 0.77401 0.06849 0.49878 0.0
H2379 H 0.80635 0.03005 0.4359 0.0
H2380 H 0.78961 0.11322 0.38106 0.0
H2381 H 0.80248 0.08147 0.41759 0.0
H2382 H 0.75768 0.06034 0.45624 0.0
H2383 H 0.74489 0.0931 0.42057 0.0
C2384 C 0.78993 0.03587 0.51556 0.0
C2385 C 0.80216 0.01579 0.50952 0.0
C2386 C 0.78349 0.05343 0.49321 0.0
C2387 C 0.78901 0.05126 0.46403 0.0
C2388 C 0.8018 0.03222 0.45815 0.0
C2389 C 0.80835 0.01462 0.48077 0.0
C2390 C 0.7825 0.10188 0.39744 0.0
C2391 C 0.76621 0.10614 0.39817 0.0
C2392 C 0.78989 0.0834 0.41817 0.0
C2393 C 0.78117 0.0687 0.44016 0.0
C2394 C 0.76481 0.07186 0.44001 0.0
C2395 C 0.75742 0.09035 0.41931 0.0
H2396 H 0.48891 0.23981 0.50439 0.0
H2397 H 0.52846 0.29875 0.49336 0.0
H2398 H 0.4999 0.20574 0.46696 0.0
H2399 H 0.53915 0.26572 0.45574 0.0
H2400 H 0.56442 0.1823 0.42321 0.0
H2401 H 0.5516 0.21785 0.4562 0.0
H2402 H 0.50722 0.19807 0.41536 0.0
H2403 H 0.52008 0.16224 0.38254 0.0
C2404 C 0.49972 0.24577 0.49344 0.0
C2405 C 0.50795 0.2716 0.50192 0.0
C2406 C 0.50606 0.22633 0.47207 0.0
C2407 C 0.52061 0.23267 0.45878 0.0
C2408 C 0.5282 0.2596 0.46612 0.0
C2409 C 0.522 0.27867 0.48752 0.0
C2410 C 0.55197 0.18578 0.42106 0.0
C2411 C 0.54329 0.16938 0.40031 0.0
C2412 C 0.54458 0.20619 0.43995 0.0
C2413 C 0.52834 0.21092 0.43842 0.0
C2414 C 0.51969 0.1947 0.41745 0.0
C2415 C 0.52707 0.1742 0.39862 0.0
H2416 H 0.27784 0.73031 0.2408 0.0
H2417 H 0.23636 0.78448 0.25004 0.0
H2418 H 0.28777 0.76424 0.20329 0.0
H2419 H 0.24634 0.81884 0.21177 0.0
H2420 H 0.28206 0.89145 0.17862 0.0
H2421 H 0.26842 0.85538 0.20988 0.0
H2422 H 0.28391 0.78319 0.15323 0.0
H2423 H 0.2975 0.81933 0.12175 0.0
C2424 C 0.27073 0.74936 0.23445 0.0
C2425 C 0.25639 0.75495 0.24849 0.0
C2426 C 0.27638 0.76869 0.21274 0.0
C2427 C 0.26789 0.79431 0.2046 0.0
C2428 C 0.25321 0.79937 0.21781 0.0
C2429 C 0.24743 0.77967 0.23948 0.0
C2430 C 0.28242 0.86792 0.17261 0.0
C2431 C 0.29095 0.85828 0.14773 0.0
C2432 C 0.27452 0.84727 0.19046 0.0
C2433 C 0.27501 0.81644 0.18397 0.0
C2434 C 0.28342 0.80679 0.15896 0.0
C2435 C 0.2913 0.82746 0.14105 0.0
H2436 H 0.56944 0.0242 0.22722 0.0
H2437 H 0.53299 0.99456 0.28646 0.0
H2438 H 0.55849 0.99227 0.18799 0.0
H2439 H 0.52233 0.96271 0.24803 0.0
H2440 H 0.49548 0.93728 0.16737 0.0
H2441 H 0.50816 0.97068 0.20254 0.0
H2442 H 0.55331 0.93977 0.17287 0.0
H2443 H 0.54062 0.90725 0.13672 0.0
C2444 C 0.55932 1.01044 0.232 0.0
C2445 C 0.55199 1.01201 0.25977 0.0
C2446 C 0.553 0.99228 0.20958 0.0
C2447 C 0.53931 0.97546 0.2147 0.0
C2448 C 0.53258 0.97604 0.243 0.0
C2449 C 0.53879 0.99413 0.26515 0.0
C2450 C 0.5081 0.93797 0.16793 0.0
C2451 C 0.51699 0.91927 0.14945 0.0
C2452 C 0.5154 0.95686 0.18836 0.0
C2453 C 0.53177 0.9575 0.1909 0.0
C2454 C 0.5407 0.93981 0.17153 0.0
C2455 C 0.53339 0.92091 0.15105 0.0
H2456 H 0.2705 0.91374 0.6314 0.0
H2457 H 0.31431 0.93083 0.5871 0.0
H2458 H 0.25701 0.94519 0.59541 0.0
H2459 H 0.30092 0.96321 0.55183 0.0
H2460 H 0.27171 0.98506 0.4727 0.0
H2461 H 0.28317 0.95417 0.5112 0.0
H2462 H 0.25344 0.9966 0.57617 0.0
H2463 H 0.24167 0.02747 0.53697 0.0
C2464 C 0.27728 0.92439 0.61409 0.0
C2465 C 0.29347 0.91935 0.61183 0.0
C2466 C 0.26955 0.94267 0.59365 0.0
C2467 C 0.27782 0.95633 0.57044 0.0
C2468 C 0.29412 0.95247 0.56907 0.0
C2469 C 0.30186 0.93421 0.5895 0.0
C2470 C 0.26742 0.98747 0.49514 0.0
C2471 C 0.25582 1.00865 0.5019 0.0
C2472 C 0.27413 0.97001 0.51728 0.0
C2473 C 0.26953 0.97343 0.5469 0.0
C2474 C 0.25727 0.99348 0.55355 0.0
C2475 C 0.25045 1.01099 0.53116 0.0
H2476 H 0.53996 0.86623 0.629 0.0
H2477 H 0.49532 0.84616 0.58938 0.0
H2478 H 0.55286 0.83391 0.59299 0.0
H2479 H 0.50813 0.8127 0.55436 0.0
H2480 H 0.53534 0.78627 0.47411 0.0
H2481 H 0.52447 0.8189 0.51185 0.0
H2482 H 0.5568 0.78257 0.57579 0.0
H2483 H 0.56803 0.75013 0.53724 0.0
C2484 C 0.53287 0.85482 0.61269 0.0
C2485 C 0.51659 0.85925 0.6118 0.0
C2486 C 0.54028 0.83599 0.59226 0.0
C2487 C 0.5316 0.82103 0.57045 0.0
C2488 C 0.51525 0.82442 0.57041 0.0
C2489 C 0.50785 0.84331 0.59077 0.0
C2490 C 0.54029 0.78553 0.49614 0.0
C2491 C 0.55249 0.76563 0.50281 0.0
C2492 C 0.53393 0.804 0.51788 0.0
C2493 C 0.53946 0.80286 0.54708 0.0
C2494 C 0.55224 0.78399 0.55351 0.0
C2495 C 0.55874 0.76555 0.53149 0.0
H2496 H 0.78802 0.66158 0.38002 0.0
H2497 H 0.7437 0.68051 0.33866 0.0
H2498 H 0.80111 0.69419 0.34446 0.0
H2499 H 0.75669 0.71419 0.30399 0.0
H2500 H 0.78498 0.73961 0.22437 0.0
H2501 H 0.77366 0.70755 0.26215 0.0
H2502 H 0.80481 0.74576 0.32712 0.0
H2503 H 0.81647 0.77772 0.28862 0.0
C2504 C 0.78104 0.67283 0.36344 0.0
C2505 C 0.76481 0.66798 0.36189 0.0
C2506 C 0.78855 0.69181 0.34326 0.0
C2507 C 0.78002 0.70647 0.32107 0.0
C2508 C 0.76369 0.70271 0.3204 0.0
C2509 C 0.75619 0.68369 0.34053 0.0
C2510 C 0.78956 0.74095 0.24666 0.0
C2511 C 0.80155 0.76122 0.25362 0.0
C2512 C 0.78295 0.72278 0.26841 0.0
C2513 C 0.78804 0.72457 0.29785 0.0
C2514 C 0.8006 0.74386 0.30464 0.0
C2515 C 0.80734 0.76203 0.28264 0.0
H2516 H 0.52807 0.48004 0.26673 0.0
H2517 H 0.48751 0.53707 0.26075 0.0
H2518 H 0.53888 0.51197 0.30505 0.0
H2519 H 0.4986 0.57 0.29906 0.0
H2520 H 0.51971 0.61027 0.38437 0.0
H2521 H 0.5068 0.57516 0.35093 0.0
H2522 H 0.5505 0.56102 0.30524 0.0
H2523 H 0.56337 0.59599 0.33868 0.0
C2524 C 0.52142 0.49945 0.27383 0.0
C2525 C 0.50705 0.50635 0.26059 0.0
C2526 C 0.52767 0.51787 0.29566 0.0
C2527 C 0.51981 0.54396 0.30466 0.0
C2528 C 0.50496 0.55004 0.29261 0.0
C2529 C 0.49858 0.53125 0.27076 0.0
C2530 C 0.52655 0.59972 0.3671 0.0
C2531 C 0.54259 0.606 0.36415 0.0
C2532 C 0.51912 0.57963 0.34792 0.0
C2533 C 0.52758 0.56522 0.3254 0.0
C2534 C 0.54366 0.5713 0.32267 0.0
C2535 C 0.55108 0.59135 0.34185 0.0
H2536 H 0.79187 0.61939 0.88484 0.0
H2537 H 0.74691 0.58996 0.91709 0.0
H2538 H 0.80478 0.58757 0.92141 0.0
H2539 H 0.75981 0.55749 0.95287 0.0
H2540 H 0.7852 0.53687 0.03705 0.0
H2541 H 0.7746 0.56798 0.99793 0.0
H2542 H 0.80958 0.53436 0.93756 0.0
H2543 H 0.82043 0.50303 0.97741 0.0
C2544 C 0.78474 0.60599 0.89961 0.0
C2545 C 0.76833 0.60756 0.89834 0.0
C2546 C 0.79216 0.58754 0.92033 0.0
C2547 C 0.78334 0.57035 0.94031 0.0
C2548 C 0.76695 0.57092 0.93814 0.0
C2549 C 0.75954 0.58928 0.91741 0.0
C2550 C 0.79077 0.53629 0.01552 0.0
C2551 C 0.80357 0.51737 0.0102 0.0
C2552 C 0.78459 0.55394 0.99302 0.0
C2553 C 0.79099 0.55309 0.96444 0.0
C2554 C 0.80436 0.53539 0.95936 0.0
C2555 C 0.81063 0.51761 0.98213 0.0
H2556 H 0.5631 0.68282 0.9234 0.0
H2557 H 0.51862 0.66147 0.88384 0.0
H2558 H 0.55002 0.71566 0.9587 0.0
H2559 H 0.50546 0.69341 0.91995 0.0
H2560 H 0.4901 0.77684 0.97674 0.0
H2561 H 0.50152 0.74536 0.93759 0.0
H2562 H 0.5334 0.70714 1.00122 0.0
H2563 H 0.52228 0.73861 0.03965 0.0
C2564 C 0.55056 0.68533 0.92204 0.0
C2565 C 0.54192 0.66918 0.90102 0.0
C2566 C 0.54301 0.70387 0.94252 0.0
C2567 C 0.52664 0.70673 0.94251 0.0
C2568 C 0.51806 0.69169 0.92062 0.0
C2569 C 0.52561 0.67313 0.90013 0.0
C2570 C 0.49932 0.7612 0.9823 0.0
C2571 C 0.50537 0.76024 0.01112 0.0
C2572 C 0.50592 0.74332 0.95993 0.0
C2573 C 0.51864 0.72425 0.96615 0.0
C2574 C 0.52398 0.72222 0.99542 0.0
C2575 C 0.51748 0.74004 0.01753 0.0
H2576 H 0.27241 0.28795 0.78811 0.0
H2577 H 0.24104 0.25128 0.72284 0.0
H2578 H 0.28291 0.3225 0.75182 0.0
H2579 H 0.2515 0.28677 0.68595 0.0
H2580 H 0.29052 0.32722 0.62387 0.0
H2581 H 0.27674 0.29449 0.65876 0.0
H2582 H 0.27643 0.36611 0.72317 0.0
H2583 H 0.29072 0.39812 0.68909 0.0
C2584 C 0.26757 0.28767 0.76599 0.0
C2585 C 0.25591 0.26695 0.75827 0.0
C2586 C 0.27354 0.30763 0.74518 0.0
C2587 C 0.26807 0.30744 0.71593 0.0
C2588 C 0.25604 0.28728 0.70828 0.0
C2589 C 0.24991 0.26728 0.72939 0.0
C2590 C 0.28765 0.33581 0.64561 0.0
C2591 C 0.29182 0.36526 0.65371 0.0
C2592 C 0.27952 0.31723 0.6654 0.0
C2593 C 0.27545 0.32769 0.69374 0.0
C2594 C 0.27949 0.35722 0.70163 0.0
C2595 C 0.28761 0.37567 0.68197 0.0
H2596 H 0.53239 0.49674 0.78682 0.0
H2597 H 0.57101 0.52127 0.73029 0.0
H2598 H 0.52193 0.46477 0.74831 0.0
H2599 H 0.56032 0.48896 0.69103 0.0
H2600 H 0.54124 0.40276 0.64188 0.0
H2601 H 0.554 0.4353 0.67804 0.0
H2602 H 0.50934 0.47396 0.70061 0.0
H2603 H 0.49654 0.44084 0.66525 0.0
C2604 C 0.53872 0.49515 0.76612 0.0
C2605 C 0.55246 0.51171 0.76147 0.0
C2606 C 0.53263 0.47697 0.74394 0.0
C2607 C 0.54007 0.47486 0.71637 0.0
C2608 C 0.55429 0.49023 0.71206 0.0
C2609 C 0.56045 0.50858 0.7345 0.0
C2610 C 0.53414 0.41817 0.65464 0.0
C2611 C 0.51782 0.41888 0.651 0.0
C2612 C 0.54149 0.43703 0.6751 0.0
C2613 C 0.53267 0.45692 0.69244 0.0
C2614 C 0.51644 0.45848 0.68793 0.0
C2615 C 0.5091 0.43971 0.66746 0.0
H2616 H 0.28262 0.38286 0.07907 0.0
H2617 H 0.29768 0.4554 0.13571 0.0
H2618 H 0.26899 0.41874 0.04755 0.0
H2619 H 0.28411 0.49124 0.10411 0.0
H2620 H 0.27858 0.54439 0.01714 0.0
H2621 H 0.28836 0.50999 0.05424 0.0
H2622 H 0.24692 0.45552 0.04492 0.0
H2623 H 0.23708 0.49042 0.00699 0.0
C2624 C 0.28291 0.40643 0.08496 0.0
C2625 C 0.29138 0.41627 0.10979 0.0
C2626 C 0.27501 0.42696 0.06697 0.0
C2627 C 0.27543 0.45783 0.07332 0.0
C2628 C 0.28369 0.46762 0.09841 0.0
C2629 C 0.29158 0.4471 0.11641 0.0
C2630 C 0.27143 0.52526 0.02319 0.0
C2631 C 0.25711 0.51993 0.00905 0.0
C2632 C 0.277 0.50564 0.04467 0.0
C2633 C 0.26846 0.47996 0.05254 0.0
C2634 C 0.25383 0.47504 0.03912 0.0
C2635 C 0.24812 0.49505 0.01766 0.0
H2636 H 0.56847 0.24912 0.03952 0.0
H2637 H 0.54041 0.29157 0.97232 0.0
H2638 H 0.55792 0.28434 0.07654 0.0
H2639 H 0.5299 0.32615 0.0087 0.0
H2640 H 0.52259 0.39993 0.07438 0.0
H2641 H 0.53704 0.36791 0.04048 0.0
H2642 H 0.53154 0.29307 0.10038 0.0
H2643 H 0.51743 0.32558 0.13502 0.0
C2644 C 0.56036 0.26639 0.0326 0.0
C2645 C 0.55527 0.26778 1.00314 0.0
C2646 C 0.55417 0.28625 0.05375 0.0
C2647 C 0.54303 0.30798 0.04555 0.0
C2648 C 0.53856 0.30996 0.01576 0.0
C2649 C 0.54455 0.29007 0.9949 0.0
C2650 C 0.52457 0.37673 0.08052 0.0
C2651 C 0.5188 0.36532 0.1074 0.0
C2652 C 0.5328 0.35832 0.061 0.0
C2653 C 0.53546 0.32794 0.06772 0.0
C2654 C 0.52984 0.31648 0.09472 0.0
C2655 C 0.52154 0.33496 0.11432 0.0
loop_
_geom_bond_atom_site_label_1
_geom_bond_atom_site_label_2
_geom_bond_distance
_geom_bond_site_symmetry_2
_ccdc_geom_bond_type
C0 C1 1.351 . S
C0 N3 1.368 . S
C0 H5 0.931 . S
C1 C0 1.351 . S
C1 N2 1.373 . S
C1 H29 0.930 . S
N2 C1 1.373 . S
N2 C4 1.340 . S
N3 C0 1.368 . S
N3 C4 1.321 . S
N3 Co6 2.135 . S
C4 N2 1.340 . S
C4 N3 1.321 . S
C4 H28 0.930 . S
H5 C0 0.931 . S
Co6 N3 2.135 . S
Co6 N9 2.121 . S
Co6 O14 2.055 . S
Co6 O17 2.039 . S
Co6 N20 2.140 . S
C7 O8 1.227 . S
C7 O17 1.265 . S
O8 C7 1.227 . S
N9 Co6 2.121 . S
N9 C11 1.375 . S
N9 C12 1.313 . S
C10 C11 1.338 . S
C10 N13 1.377 . S
C10 H30 0.930 . S
C11 N9 1.375 . S
C11 C10 1.338 . S
C11 H15 0.931 . S
C12 N9 1.313 . S
C12 N13 1.344 . S
C12 H16 0.930 . S
N13 C10 1.377 . S
N13 C12 1.344 . S
O14 Co6 2.055 . S
O14 C18 1.253 . S
H15 C11 0.931 . S
H16 C12 0.930 . S
O17 Co6 2.039 . S
O17 C7 1.265 . S
C18 O14 1.253 . S
C18 O19 1.227 . S
O19 C18 1.227 . S
N20 Co6 2.140 . S
N20 C23 1.346 . S
N20 C24 1.345 . S
C21 C22 1.387 . S
C21 C25 1.391 . S
C22 C21 1.387 . S
C22 C23 1.369 . S
C22 H31 0.929 . S
C23 N20 1.346 . S
C23 C22 1.369 . S
C23 H26 0.928 . S
C24 N20 1.345 . S
C24 C25 1.371 . S
C24 H27 0.931 . S
C25 C21 1.391 . S
C25 C24 1.371 . S
C25 H32 0.930 . S
H26 C23 0.928 . S
H27 C24 0.931 . S
H28 C4 0.930 . S
H29 C1 0.930 . S
H30 C10 0.930 . S
H31 C22 0.929 . S
H32 C25 0.930 . S
C33 C34 1.351 . S
C33 N36 1.368 . S
C33 H38 0.931 . S
C34 C33 1.351 . S
C34 N35 1.373 . S
C34 H62 0.930 . S
N35 C34 1.373 . S
N35 C37 1.340 . S
N36 C33 1.368 . S
N36 C37 1.321 . S
N36 Co39 2.135 . S
C37 N35 1.340 . S
C37 N36 1.321 . S
C37 H61 0.930 . S
H38 C33 0.931 . S
Co39 N36 2.135 . S
Co39 N42 2.121 . S
Co39 O47 2.055 1_565 S
Co39 O50 2.039 . S
Co39 N53 2.140 . S
C40 O41 1.227 . S
C40 O50 1.265 . S
O41 C40 1.227 . S
N42 Co39 2.121 . S
N42 C44 1.375 . S
N42 C45 1.313 1_565 S
C43 C44 1.338 1_545 S
C43 N46 1.377 . S
C43 H63 0.930 . S
C44 N42 1.375 . S
C44 C43 1.338 1_565 S
C44 H48 0.931 . S
C45 N42 1.313 1_545 S
C45 N46 1.344 . S
C45 H49 0.930 . S
N46 C43 1.377 . S
N46 C45 1.344 . S
O47 Co39 2.055 1_545 S
O47 C51 1.253 . S
H48 C44 0.931 . S
H49 C45 0.930 . S
O50 Co39 2.039 . S
O50 C40 1.265 . S
C51 O47 1.253 . S
C51 O52 1.227 1_545 S
O52 C51 1.227 1_565 S
N53 Co39 2.140 . S
N53 C56 1.346 . S
N53 C57 1.345 . S
C54 C55 1.387 . S
C54 C58 1.391 . S
C55 C54 1.387 . S
C55 C56 1.369 . S
C55 H64 0.929 . S
C56 N53 1.346 . S
C56 C55 1.369 . S
C56 H59 0.928 . S
C57 N53 1.345 . S
C57 C58 1.371 . S
C57 H60 0.931 . S
C58 C54 1.391 . S
C58 C57 1.371 . S
C58 H65 0.930 . S
H59 C56 0.928 . S
H60 C57 0.931 . S
H61 C37 0.930 . S
H62 C34 0.930 . S
H63 C43 0.930 . S
H64 C55 0.929 . S
H65 C58 0.930 . S
C66 C67 1.351 . S
C66 N69 1.368 . S
C66 H71 0.931 . S
C67 C66 1.351 . S
C67 N68 1.373 . S
C67 H95 0.930 . S
N68 C67 1.373 . S
N68 C70 1.340 . S
N69 C66 1.368 . S
N69 C70 1.321 . S
N69 Co72 2.135 1_556 S
C70 N68 1.340 . S
C70 N69 1.321 . S
C70 H94 0.930 . S
H71 C66 0.931 . S
Co72 N69 2.135 1_554 S
Co72 N75 2.121 . S
Co72 O80 2.055 1_564 S
Co72 O83 2.039 . S
Co72 N86 2.140 . S
C73 O74 1.227 . S
C73 O83 1.265 . S
O74 C73 1.227 . S
N75 Co72 2.121 . S
N75 C77 1.375 . S
N75 C78 1.313 1_565 S
C76 C77 1.338 1_545 S
C76 N79 1.377 . S
C76 H96 0.930 . S
C77 N75 1.375 . S
C77 C76 1.338 1_565 S
C77 H81 0.931 . S
C78 N75 1.313 1_545 S
C78 N79 1.344 . S
C78 H82 0.930 . S
N79 C76 1.377 . S
N79 C78 1.344 . S
O80 Co72 2.055 1_546 S
O80 C84 1.253 . S
H81 C77 0.931 . S
H82 C78 0.930 . S
O83 Co72 2.039 . S
O83 C73 1.265 . S
C84 O80 1.253 . S
C84 O85 1.227 1_546 S
O85 C84 1.227 1_564 S
N86 Co72 2.140 . S
N86 C89 1.346 . S
N86 C90 1.345 . S
C87 C88 1.387 . S
C87 C91 1.391 . S
C88 C87 1.387 . S
C88 C89 1.369 . S
C88 H97 0.929 . S
C89 N86 1.346 . S
C89 C88 1.369 . S
C89 H92 0.928 . S
C90 N86 1.345 . S
C90 C91 1.371 . S
C90 H93 0.931 . S
C91 C87 1.391 . S
C91 C90 1.371 . S
C91 H98 0.930 . S
H92 C89 0.928 . S
H93 C90 0.931 . S
H94 C70 0.930 . S
H95 C67 0.930 . S
H96 C76 0.930 . S
H97 C88 0.929 . S
H98 C91 0.930 . S
C99 C100 1.351 . S
C99 N102 1.368 . S
C99 H104 0.931 . S
C100 C99 1.351 . S
C100 N101 1.373 . S
C100 H128 0.930 . S
N101 C100 1.373 . S
N101 C103 1.340 . S
N102 C99 1.368 . S
N102 C103 1.321 . S
N102 Co105 2.135 1_556 S
C103 N101 1.340 . S
C103 N102 1.321 . S
C103 H127 0.930 . S
H104 C99 0.931 . S
Co105 N102 2.135 1_554 S
Co105 N108 2.121 . S
Co105 O113 2.055 1_554 S
Co105 O116 2.039 . S
Co105 N119 2.140 . S
C106 O107 1.227 . S
C106 O116 1.265 . S
O107 C106 1.227 . S
N108 Co105 2.121 . S
N108 C110 1.375 . S
N108 C111 1.313 . S
C109 C110 1.338 . S
C109 N112 1.377 . S
C109 H129 0.930 . S
C110 N108 1.375 . S
C110 C109 1.338 . S
C110 H114 0.931 . S
C111 N108 1.313 . S
C111 N112 1.344 . S
C111 H115 0.930 . S
N112 C109 1.377 . S
N112 C111 1.344 . S
O113 Co105 2.055 1_556 S
O113 C117 1.253 . S
H114 C110 0.931 . S
H115 C111 0.930 . S
O116 Co105 2.039 . S
O116 C106 1.265 . S
C117 O113 1.253 . S
C117 O118 1.227 1_556 S
O118 C117 1.227 1_554 S
N119 Co105 2.140 . S
N119 C122 1.346 . S
N119 C123 1.345 . S
C120 C121 1.387 . S
C120 C124 1.391 . S
C121 C120 1.387 . S
C121 C122 1.369 . S
C121 H130 0.929 . S
C122 N119 1.346 . S
C122 C121 1.369 . S
C122 H125 0.928 . S
C123 N119 1.345 . S
C123 C124 1.371 . S
C123 H126 0.931 . S
C124 C120 1.391 . S
C124 C123 1.371 . S
C124 H131 0.930 . S
H125 C122 0.928 . S
H126 C123 0.931 . S
H127 C103 0.930 . S
H128 C100 0.930 . S
H129 C109 0.930 . S
H130 C121 0.929 . S
H131 C124 0.930 . S
C132 C133 1.351 . S
C132 N135 1.368 . S
C132 H137 0.931 . S
C133 C132 1.351 . S
C133 N134 1.373 . S
C133 H161 0.930 . S
N134 C133 1.373 . S
N134 C136 1.340 . S
N135 C132 1.368 . S
N135 C136 1.321 . S
N135 Co138 2.135 . S
C136 N134 1.340 . S
C136 N135 1.321 . S
C136 H160 0.930 . S
H137 C132 0.931 . S
Co138 N135 2.135 . S
Co138 N141 2.121 . S
Co138 O146 2.055 . S
Co138 O149 2.039 . S
Co138 N152 2.140 . S
C139 O140 1.227 . S
C139 O149 1.265 . S
O140 C139 1.227 . S
N141 Co138 2.121 . S
N141 C143 1.375 . S
N141 C144 1.313 . S
C142 C143 1.338 . S
C142 N145 1.377 . S
C142 H162 0.930 . S
C143 N141 1.375 . S
C143 C142 1.338 . S
C143 H147 0.931 . S
C144 N141 1.313 . S
C144 N145 1.344 . S
C144 H148 0.930 . S
N145 C142 1.377 . S
N145 C144 1.344 . S
O146 Co138 2.055 . S
O146 C150 1.253 . S
H147 C143 0.931 . S
H148 C144 0.930 . S
O149 Co138 2.039 . S
O149 C139 1.265 . S
C150 O146 1.253 . S
C150 O151 1.227 . S
O151 C150 1.227 . S
N152 Co138 2.140 . S
N152 C155 1.346 . S
N152 C156 1.345 . S
C153 C154 1.387 . S
C153 C157 1.391 . S
C154 C153 1.387 . S
C154 C155 1.369 . S
C154 H163 0.929 . S
C155 N152 1.346 . S
C155 C154 1.369 . S
C155 H158 0.928 . S
C156 N152 1.345 . S
C156 C157 1.371 . S
C156 H159 0.931 . S
C157 C153 1.391 . S
C157 C156 1.371 . S
C157 H164 0.930 . S
H158 C155 0.928 . S
H159 C156 0.931 . S
H160 C136 0.930 . S
H161 C133 0.930 . S
H162 C142 0.930 . S
H163 C154 0.929 . S
H164 C157 0.930 . S
C165 C166 1.351 . S
C165 N168 1.368 . S
C165 H170 0.931 . S
C166 C165 1.351 . S
C166 N167 1.373 . S
C166 H194 0.930 . S
N167 C166 1.373 . S
N167 C169 1.340 . S
N168 C165 1.368 . S
N168 C169 1.321 . S
N168 Co171 2.135 . S
C169 N167 1.340 . S
C169 N168 1.321 . S
C169 H193 0.930 . S
H170 C165 0.931 . S
Co171 N168 2.135 . S
Co171 N174 2.121 . S
Co171 O179 2.055 1_545 S
Co171 O182 2.039 . S
Co171 N185 2.140 . S
C172 O173 1.227 . S
C172 O182 1.265 . S
O173 C172 1.227 . S
N174 Co171 2.121 . S
N174 C176 1.375 . S
N174 C177 1.313 1_545 S
C175 C176 1.338 1_565 S
C175 N178 1.377 . S
C175 H195 0.930 . S
C176 N174 1.375 . S
C176 C175 1.338 1_545 S
C176 H180 0.931 . S
C177 N174 1.313 1_565 S
C177 N178 1.344 . S
C177 H181 0.930 . S
N178 C175 1.377 . S
N178 C177 1.344 . S
O179 Co171 2.055 1_565 S
O179 C183 1.253 . S
H180 C176 0.931 . S
H181 C177 0.930 . S
O182 Co171 2.039 . S
O182 C172 1.265 . S
C183 O179 1.253 . S
C183 O184 1.227 1_565 S
O184 C183 1.227 1_545 S
N185 Co171 2.140 . S
N185 C188 1.346 . S
N185 C189 1.345 . S
C186 C187 1.387 . S
C186 C190 1.391 . S
C187 C186 1.387 . S
C187 C188 1.369 . S
C187 H196 0.929 . S
C188 N185 1.346 . S
C188 C187 1.369 . S
C188 H191 0.928 . S
C189 N185 1.345 . S
C189 C190 1.371 . S
C189 H192 0.931 . S
C190 C186 1.391 . S
C190 C189 1.371 . S
C190 H197 0.930 . S
H191 C188 0.928 . S
H192 C189 0.931 . S
H193 C169 0.930 . S
H194 C166 0.930 . S
H195 C175 0.930 . S
H196 C187 0.929 . S
H197 C190 0.930 . S
C198 C199 1.351 . S
C198 N201 1.368 . S
C198 H203 0.931 . S
C199 C198 1.351 . S
C199 N200 1.373 . S
C199 H227 0.930 . S
N200 C199 1.373 . S
N200 C202 1.340 . S
N201 C198 1.368 . S
N201 C202 1.321 . S
N201 Co204 2.135 1_554 S
C202 N200 1.340 . S
C202 N201 1.321 . S
C202 H226 0.930 . S
H203 C198 0.931 . S
Co204 N201 2.135 1_556 S
Co204 N207 2.121 . S
Co204 O212 2.055 1_546 S
Co204 O215 2.039 . S
Co204 N218 2.140 . S
C205 O206 1.227 . S
C205 O215 1.265 . S
O206 C205 1.227 . S
N207 Co204 2.121 . S
N207 C209 1.375 . S
N207 C210 1.313 1_545 S
C208 C209 1.338 1_565 S
C208 N211 1.377 . S
C208 H228 0.930 . S
C209 N207 1.375 . S
C209 C208 1.338 1_545 S
C209 H213 0.931 . S
C210 N207 1.313 1_565 S
C210 N211 1.344 . S
C210 H214 0.930 . S
N211 C208 1.377 . S
N211 C210 1.344 . S
O212 Co204 2.055 1_564 S
O212 C216 1.253 . S
H213 C209 0.931 . S
H214 C210 0.930 . S
O215 Co204 2.039 . S
O215 C205 1.265 . S
C216 O212 1.253 . S
C216 O217 1.227 1_564 S
O217 C216 1.227 1_546 S
N218 Co204 2.140 . S
N218 C221 1.346 . S
N218 C222 1.345 . S
C219 C220 1.387 . S
C219 C223 1.391 . S
C220 C219 1.387 . S
C220 C221 1.369 . S
C220 H229 0.929 . S
C221 N218 1.346 . S
C221 C220 1.369 . S
C221 H224 0.928 . S
C222 N218 1.345 . S
C222 C223 1.371 . S
C222 H225 0.931 . S
C223 C219 1.391 . S
C223 C222 1.371 . S
C223 H230 0.930 . S
H224 C221 0.928 . S
H225 C222 0.931 . S
H226 C202 0.930 . S
H227 C199 0.930 . S
H228 C208 0.930 . S
H229 C220 0.929 . S
H230 C223 0.930 . S
C231 C232 1.351 . S
C231 N234 1.368 . S
C231 H236 0.931 . S
C232 C231 1.351 . S
C232 N233 1.373 . S
C232 H260 0.930 . S
N233 C232 1.373 . S
N233 C235 1.340 . S
N234 C231 1.368 . S
N234 C235 1.321 . S
N234 Co237 2.135 1_554 S
C235 N233 1.340 . S
C235 N234 1.321 . S
C235 H259 0.930 . S
H236 C231 0.931 . S
Co237 N234 2.135 1_556 S
Co237 N240 2.121 . S
Co237 O245 2.055 1_556 S
Co237 O248 2.039 . S
Co237 N251 2.140 . S
C238 O239 1.227 . S
C238 O248 1.265 . S
O239 C238 1.227 . S
N240 Co237 2.121 . S
N240 C242 1.375 . S
N240 C243 1.313 . S
C241 C242 1.338 . S
C241 N244 1.377 . S
C241 H261 0.930 . S
C242 N240 1.375 . S
C242 C241 1.338 . S
C242 H246 0.931 . S
C243 N240 1.313 . S
C243 N244 1.344 . S
C243 H247 0.930 . S
N244 C241 1.377 . S
N244 C243 1.344 . S
O245 Co237 2.055 1_554 S
O245 C249 1.253 . S
H246 C242 0.931 . S
H247 C243 0.930 . S
O248 Co237 2.039 . S
O248 C238 1.265 . S
C249 O245 1.253 . S
C249 O250 1.227 1_554 S
O250 C249 1.227 1_556 S
N251 Co237 2.140 . S
N251 C254 1.346 . S
N251 C255 1.345 . S
C252 C253 1.387 . S
C252 C256 1.391 . S
C253 C252 1.387 . S
C253 C254 1.369 . S
C253 H262 0.929 . S
C254 N251 1.346 . S
C254 C253 1.369 . S
C254 H257 0.928 . S
C255 N251 1.345 . S
C255 C256 1.371 . S
C255 H258 0.931 . S
C256 C252 1.391 . S
C256 C255 1.371 . S
C256 H263 0.930 . S
H257 C254 0.928 . S
H258 C255 0.931 . S
H259 C235 0.930 . S
H260 C232 0.930 . S
H261 C241 0.930 . S
H262 C253 0.929 . S
H263 C256 0.930 . S
C264 C265 1.351 . S
C264 N267 1.368 . S
C264 H269 0.931 . S
C265 C264 1.351 . S
C265 N266 1.373 . S
C265 H293 0.930 . S
N266 C265 1.373 . S
N266 C268 1.340 . S
N267 C264 1.368 . S
N267 C268 1.321 . S
N267 Co270 2.135 . S
C268 N266 1.340 . S
C268 N267 1.321 . S
C268 H292 0.930 . S
H269 C264 0.931 . S
Co270 N267 2.135 . S
Co270 N273 2.121 . S
Co270 O278 2.055 . S
Co270 O281 2.039 . S
Co270 N284 2.140 . S
C271 O272 1.227 . S
C271 O281 1.265 . S
O272 C271 1.227 . S
N273 Co270 2.121 . S
N273 C275 1.375 . S
N273 C276 1.313 . S
C274 C275 1.338 . S
C274 N277 1.377 . S
C274 H294 0.930 . S
C275 N273 1.375 . S
C275 C274 1.338 . S
C275 H279 0.931 . S
C276 N273 1.313 . S
C276 N277 1.344 . S
C276 H280 0.930 . S
N277 C274 1.377 . S
N277 C276 1.344 . S
O278 Co270 2.055 . S
O278 C282 1.253 . S
H279 C275 0.931 . S
H280 C276 0.930 . S
O281 Co270 2.039 . S
O281 C271 1.265 . S
C282 O278 1.253 . S
C282 O283 1.227 . S
O283 C282 1.227 . S
N284 Co270 2.140 . S
N284 C287 1.346 . S
N284 C288 1.345 . S
C285 C286 1.387 . S
C285 C289 1.391 . S
C286 C285 1.387 . S
C286 C287 1.369 . S
C286 H295 0.929 . S
C287 N284 1.346 . S
C287 C286 1.369 . S
C287 H290 0.928 . S
C288 N284 1.345 . S
C288 C289 1.371 . S
C288 H291 0.931 . S
C289 C285 1.391 . S
C289 C288 1.371 . S
C289 H296 0.930 . S
H290 C287 0.928 . S
H291 C288 0.931 . S
H292 C268 0.930 . S
H293 C265 0.930 . S
H294 C274 0.930 . S
H295 C286 0.929 . S
H296 C289 0.930 . S
C297 C298 1.351 . S
C297 N300 1.368 . S
C297 H302 0.931 . S
C298 C297 1.351 . S
C298 N299 1.373 . S
C298 H326 0.930 . S
N299 C298 1.373 . S
N299 C301 1.340 . S
N300 C297 1.368 . S
N300 C301 1.321 . S
N300 Co303 2.135 . S
C301 N299 1.340 . S
C301 N300 1.321 . S
C301 H325 0.930 . S
H302 C297 0.931 . S
Co303 N300 2.135 . S
Co303 N306 2.121 . S
Co303 O311 2.055 . S
Co303 O314 2.039 . S
Co303 N317 2.140 . S
C304 O305 1.227 . S
C304 O314 1.265 . S
O305 C304 1.227 . S
N306 Co303 2.121 . S
N306 C308 1.375 . S
N306 C309 1.313 . S
C307 C308 1.338 . S
C307 N310 1.377 . S
C307 H327 0.930 . S
C308 N306 1.375 . S
C308 C307 1.338 . S
C308 H312 0.931 . S
C309 N306 1.313 . S
C309 N310 1.344 . S
C309 H313 0.930 . S
N310 C307 1.377 . S
N310 C309 1.344 . S
O311 Co303 2.055 . S
O311 C315 1.253 . S
H312 C308 0.931 . S
H313 C309 0.930 . S
O314 Co303 2.039 . S
O314 C304 1.265 . S
C315 O311 1.253 . S
C315 O316 1.227 . S
O316 C315 1.227 . S
N317 Co303 2.140 . S
N317 C320 1.346 . S
N317 C321 1.345 . S
C318 C319 1.387 . S
C318 C322 1.391 . S
C319 C318 1.387 . S
C319 C320 1.369 . S
C319 H328 0.929 . S
C320 N317 1.346 . S
C320 C319 1.369 . S
C320 H323 0.928 . S
C321 N317 1.345 . S
C321 C322 1.371 . S
C321 H324 0.931 . S
C322 C318 1.391 . S
C322 C321 1.371 . S
C322 H329 0.930 . S
H323 C320 0.928 . S
H324 C321 0.931 . S
H325 C301 0.930 . S
H326 C298 0.930 . S
H327 C307 0.930 . S
H328 C319 0.929 . S
H329 C322 0.930 . S
C330 C331 1.351 . S
C330 N333 1.368 . S
C330 H335 0.931 . S
C331 C330 1.351 . S
C331 N332 1.373 . S
C331 H359 0.930 . S
N332 C331 1.373 . S
N332 C334 1.340 . S
N333 C330 1.368 . S
N333 C334 1.321 . S
N333 Co336 2.135 . S
C334 N332 1.340 . S
C334 N333 1.321 . S
C334 H358 0.930 . S
H335 C330 0.931 . S
Co336 N333 2.135 . S
Co336 N339 2.121 . S
Co336 O344 2.055 . S
Co336 O347 2.039 . S
Co336 N350 2.140 . S
C337 O338 1.227 . S
C337 O347 1.265 . S
O338 C337 1.227 . S
N339 Co336 2.121 . S
N339 C341 1.375 . S
N339 C342 1.313 . S
C340 C341 1.338 . S
C340 N343 1.377 . S
C340 H360 0.930 . S
C341 N339 1.375 . S
C341 C340 1.338 . S
C341 H345 0.931 . S
C342 N339 1.313 . S
C342 N343 1.344 . S
C342 H346 0.930 . S
N343 C340 1.377 . S
N343 C342 1.344 . S
O344 Co336 2.055 . S
O344 C348 1.253 . S
H345 C341 0.931 . S
H346 C342 0.930 . S
O347 Co336 2.039 . S
O347 C337 1.265 . S
C348 O344 1.253 . S
C348 O349 1.227 . S
O349 C348 1.227 . S
N350 Co336 2.140 . S
N350 C353 1.346 . S
N350 C354 1.345 . S
C351 C352 1.387 . S
C351 C355 1.391 . S
C352 C351 1.387 . S
C352 C353 1.369 . S
C352 H361 0.929 . S
C353 N350 1.346 . S
C353 C352 1.369 . S
C353 H356 0.928 . S
C354 N350 1.345 . S
C354 C355 1.371 . S
C354 H357 0.931 . S
C355 C351 1.391 . S
C355 C354 1.371 . S
C355 H362 0.930 . S
H356 C353 0.928 . S
H357 C354 0.931 . S
H358 C334 0.930 . S
H359 C331 0.930 . S
H360 C340 0.930 . S
H361 C352 0.929 . S
H362 C355 0.930 . S
C363 C364 1.351 . S
C363 N366 1.368 . S
C363 H368 0.931 . S
C364 C363 1.351 . S
C364 N365 1.373 . S
C364 H392 0.930 . S
N365 C364 1.373 . S
N365 C367 1.340 . S
N366 C363 1.368 . S
N366 C367 1.321 . S
N366 Co369 2.135 . S
C367 N365 1.340 . S
C367 N366 1.321 . S
C367 H391 0.930 . S
H368 C363 0.931 . S
Co369 N366 2.135 . S
Co369 N372 2.121 . S
Co369 O377 2.055 . S
Co369 O380 2.039 . S
Co369 N383 2.140 . S
C370 O371 1.227 . S
C370 O380 1.265 . S
O371 C370 1.227 . S
N372 Co369 2.121 . S
N372 C374 1.375 . S
N372 C375 1.313 . S
C373 C374 1.338 . S
C373 N376 1.377 . S
C373 H393 0.930 . S
C374 N372 1.375 . S
C374 C373 1.338 . S
C374 H378 0.931 . S
C375 N372 1.313 . S
C375 N376 1.344 . S
C375 H379 0.930 . S
N376 C373 1.377 . S
N376 C375 1.344 . S
O377 Co369 2.055 . S
O377 C381 1.253 . S
H378 C374 0.931 . S
H379 C375 0.930 . S
O380 Co369 2.039 . S
O380 C370 1.265 . S
C381 O377 1.253 . S
C381 O382 1.227 . S
O382 C381 1.227 . S
N383 Co369 2.140 . S
N383 C386 1.346 . S
N383 C387 1.345 . S
C384 C385 1.387 . S
C384 C388 1.391 . S
C385 C384 1.387 . S
C385 C386 1.369 . S
C385 H394 0.929 . S
C386 N383 1.346 . S
C386 C385 1.369 . S
C386 H389 0.928 . S
C387 N383 1.345 . S
C387 C388 1.371 . S
C387 H390 0.931 . S
C388 C384 1.391 . S
C388 C387 1.371 . S
C388 H395 0.930 . S
H389 C386 0.928 . S
H390 C387 0.931 . S
H391 C367 0.930 . S
H392 C364 0.930 . S
H393 C373 0.930 . S
H394 C385 0.929 . S
H395 C388 0.930 . S
C396 C397 1.351 . S
C396 N399 1.368 . S
C396 H401 0.931 . S
C397 C396 1.351 . S
C397 N398 1.373 . S
C397 H425 0.930 . S
N398 C397 1.373 . S
N398 C400 1.340 . S
N399 C396 1.368 . S
N399 C400 1.321 . S
N399 Co402 2.135 . S
C400 N398 1.340 . S
C400 N399 1.321 . S
C400 H424 0.930 . S
H401 C396 0.931 . S
Co402 N399 2.135 . S
Co402 N405 2.121 . S
Co402 O410 2.055 . S
Co402 O413 2.039 . S
Co402 N416 2.140 . S
C403 O404 1.227 . S
C403 O413 1.265 . S
O404 C403 1.227 . S
N405 Co402 2.121 . S
N405 C407 1.375 . S
N405 C408 1.313 . S
C406 C407 1.338 . S
C406 N409 1.377 . S
C406 H426 0.930 . S
C407 N405 1.375 . S
C407 C406 1.338 . S
C407 H411 0.931 . S
C408 N405 1.313 . S
C408 N409 1.344 . S
C408 H412 0.930 . S
N409 C406 1.377 . S
N409 C408 1.344 . S
O410 Co402 2.055 . S
O410 C414 1.253 . S
H411 C407 0.931 . S
H412 C408 0.930 . S
O413 Co402 2.039 . S
O413 C403 1.265 . S
C414 O410 1.253 . S
C414 O415 1.227 . S
O415 C414 1.227 . S
N416 Co402 2.140 . S
N416 C419 1.346 . S
N416 C420 1.345 . S
C417 C418 1.387 . S
C417 C421 1.391 . S
C418 C417 1.387 . S
C418 C419 1.369 . S
C418 H427 0.929 . S
C419 N416 1.346 . S
C419 C418 1.369 . S
C419 H422 0.928 . S
C420 N416 1.345 . S
C420 C421 1.371 . S
C420 H423 0.931 . S
C421 C417 1.391 . S
C421 C420 1.371 . S
C421 H428 0.930 . S
H422 C419 0.928 . S
H423 C420 0.931 . S
H424 C400 0.930 . S
H425 C397 0.930 . S
H426 C406 0.930 . S
H427 C418 0.929 . S
H428 C421 0.930 . S
C429 C430 1.351 . S
C429 N432 1.368 . S
C429 H434 0.931 . S
C430 C429 1.351 . S
C430 N431 1.373 . S
C430 H458 0.930 . S
N431 C430 1.373 . S
N431 C433 1.340 . S
N432 C429 1.368 . S
N432 C433 1.321 . S
N432 Co435 2.135 . S
C433 N431 1.340 . S
C433 N432 1.321 . S
C433 H457 0.930 . S
H434 C429 0.931 . S
Co435 N432 2.135 . S
Co435 N438 2.121 . S
Co435 O443 2.055 . S
Co435 O446 2.039 . S
Co435 N449 2.140 . S
C436 O437 1.227 . S
C436 O446 1.265 . S
O437 C436 1.227 . S
N438 Co435 2.121 . S
N438 C440 1.375 . S
N438 C441 1.313 . S
C439 C440 1.338 . S
C439 N442 1.377 . S
C439 H459 0.930 . S
C440 N438 1.375 . S
C440 C439 1.338 . S
C440 H444 0.931 . S
C441 N438 1.313 . S
C441 N442 1.344 . S
C441 H445 0.930 . S
N442 C439 1.377 . S
N442 C441 1.344 . S
O443 Co435 2.055 . S
O443 C447 1.253 . S
H444 C440 0.931 . S
H445 C441 0.930 . S
O446 Co435 2.039 . S
O446 C436 1.265 . S
C447 O443 1.253 . S
C447 O448 1.227 . S
O448 C447 1.227 . S
N449 Co435 2.140 . S
N449 C452 1.346 . S
N449 C453 1.345 . S
C450 C451 1.387 . S
C450 C454 1.391 . S
C451 C450 1.387 . S
C451 C452 1.369 . S
C451 H460 0.929 . S
C452 N449 1.346 . S
C452 C451 1.369 . S
C452 H455 0.928 . S
C453 N449 1.345 . S
C453 C454 1.371 . S
C453 H456 0.931 . S
C454 C450 1.391 . S
C454 C453 1.371 . S
C454 H461 0.930 . S
H455 C452 0.928 . S
H456 C453 0.931 . S
H457 C433 0.930 . S
H458 C430 0.930 . S
H459 C439 0.930 . S
H460 C451 0.929 . S
H461 C454 0.930 . S
C462 C463 1.351 . S
C462 N465 1.368 . S
C462 H467 0.931 . S
C463 C462 1.351 . S
C463 N464 1.373 . S
C463 H491 0.930 . S
N464 C463 1.373 . S
N464 C466 1.340 . S
N465 C462 1.368 . S
N465 C466 1.321 . S
N465 Co468 2.135 . S
C466 N464 1.340 . S
C466 N465 1.321 . S
C466 H490 0.930 . S
H467 C462 0.931 . S
Co468 N465 2.135 . S
Co468 N471 2.121 . S
Co468 O476 2.055 . S
Co468 O479 2.039 . S
Co468 N482 2.140 . S
C469 O470 1.227 . S
C469 O479 1.265 . S
O470 C469 1.227 . S
N471 Co468 2.121 . S
N471 C473 1.375 . S
N471 C474 1.313 . S
C472 C473 1.338 . S
C472 N475 1.377 . S
C472 H492 0.930 . S
C473 N471 1.375 . S
C473 C472 1.338 . S
C473 H477 0.931 . S
C474 N471 1.313 . S
C474 N475 1.344 . S
C474 H478 0.930 . S
N475 C472 1.377 . S
N475 C474 1.344 . S
O476 Co468 2.055 . S
O476 C480 1.253 . S
H477 C473 0.931 . S
H478 C474 0.930 . S
O479 Co468 2.039 . S
O479 C469 1.265 . S
C480 O476 1.253 . S
C480 O481 1.227 . S
O481 C480 1.227 . S
N482 Co468 2.140 . S
N482 C485 1.346 . S
N482 C486 1.345 . S
C483 C484 1.387 . S
C483 C487 1.391 . S
C484 C483 1.387 . S
C484 C485 1.369 . S
C484 H493 0.929 . S
C485 N482 1.346 . S
C485 C484 1.369 . S
C485 H488 0.928 . S
C486 N482 1.345 . S
C486 C487 1.371 . S
C486 H489 0.931 . S
C487 C483 1.391 . S
C487 C486 1.371 . S
C487 H494 0.930 . S
H488 C485 0.928 . S
H489 C486 0.931 . S
H490 C466 0.930 . S
H491 C463 0.930 . S
H492 C472 0.930 . S
H493 C484 0.929 . S
H494 C487 0.930 . S
C495 C496 1.351 . S
C495 N498 1.368 . S
C495 H500 0.931 . S
C496 C495 1.351 . S
C496 N497 1.373 . S
C496 H524 0.930 . S
N497 C496 1.373 . S
N497 C499 1.340 . S
N498 C495 1.368 . S
N498 C499 1.321 . S
N498 Co501 2.135 . S
C499 N497 1.340 . S
C499 N498 1.321 . S
C499 H523 0.930 . S
H500 C495 0.931 . S
Co501 N498 2.135 . S
Co501 N504 2.121 . S
Co501 O509 2.055 . S
Co501 O512 2.039 . S
Co501 N515 2.140 . S
C502 O503 1.227 . S
C502 O512 1.265 . S
O503 C502 1.227 . S
N504 Co501 2.121 . S
N504 C506 1.375 . S
N504 C507 1.313 . S
C505 C506 1.338 . S
C505 N508 1.377 . S
C505 H525 0.930 . S
C506 N504 1.375 . S
C506 C505 1.338 . S
C506 H510 0.931 . S
C507 N504 1.313 . S
C507 N508 1.344 . S
C507 H511 0.930 . S
N508 C505 1.377 . S
N508 C507 1.344 . S
O509 Co501 2.055 . S
O509 C513 1.253 . S
H510 C506 0.931 . S
H511 C507 0.930 . S
O512 Co501 2.039 . S
O512 C502 1.265 . S
C513 O509 1.253 . S
C513 O514 1.227 . S
O514 C513 1.227 . S
N515 Co501 2.140 . S
N515 C518 1.346 . S
N515 C519 1.345 . S
C516 C517 1.387 . S
C516 C520 1.391 . S
C517 C516 1.387 . S
C517 C518 1.369 . S
C517 H526 0.929 . S
C518 N515 1.346 . S
C518 C517 1.369 . S
C518 H521 0.928 . S
C519 N515 1.345 . S
C519 C520 1.371 . S
C519 H522 0.931 . S
C520 C516 1.391 . S
C520 C519 1.371 . S
C520 H527 0.930 . S
H521 C518 0.928 . S
H522 C519 0.931 . S
H523 C499 0.930 . S
H524 C496 0.930 . S
H525 C505 0.930 . S
H526 C517 0.929 . S
H527 C520 0.930 . S
C528 C529 1.351 . S
C528 N531 1.368 . S
C528 H533 0.931 . S
C529 C528 1.351 . S
C529 N530 1.373 . S
C529 H557 0.930 . S
N530 C529 1.373 . S
N530 C532 1.340 . S
N531 C528 1.368 . S
N531 C532 1.321 . S
N531 Co534 2.135 . S
C532 N530 1.340 . S
C532 N531 1.321 . S
C532 H556 0.930 . S
H533 C528 0.931 . S
Co534 N531 2.135 . S
Co534 N537 2.121 . S
Co534 O542 2.055 . S
Co534 O545 2.039 . S
Co534 N548 2.140 . S
C535 O536 1.227 . S
C535 O545 1.265 . S
O536 C535 1.227 . S
N537 Co534 2.121 . S
N537 C539 1.375 . S
N537 C540 1.313 . S
C538 C539 1.338 . S
C538 N541 1.377 . S
C538 H558 0.930 . S
C539 N537 1.375 . S
C539 C538 1.338 . S
C539 H543 0.931 . S
C540 N537 1.313 . S
C540 N541 1.344 . S
C540 H544 0.930 . S
N541 C538 1.377 . S
N541 C540 1.344 . S
O542 Co534 2.055 . S
O542 C546 1.253 . S
H543 C539 0.931 . S
H544 C540 0.930 . S
O545 Co534 2.039 . S
O545 C535 1.265 . S
C546 O542 1.253 . S
C546 O547 1.227 . S
O547 C546 1.227 . S
N548 Co534 2.140 . S
N548 C551 1.346 . S
N548 C552 1.345 . S
C549 C550 1.387 . S
C549 C553 1.391 . S
C550 C549 1.387 . S
C550 C551 1.369 . S
C550 H559 0.929 . S
C551 N548 1.346 . S
C551 C550 1.369 . S
C551 H554 0.928 . S
C552 N548 1.345 . S
C552 C553 1.371 . S
C552 H555 0.931 . S
C553 C549 1.391 . S
C553 C552 1.371 . S
C553 H560 0.930 . S
H554 C551 0.928 . S
H555 C552 0.931 . S
H556 C532 0.930 . S
H557 C529 0.930 . S
H558 C538 0.930 . S
H559 C550 0.929 . S
H560 C553 0.930 . S
C561 C562 1.351 . S
C561 N564 1.368 . S
C561 H566 0.931 . S
C562 C561 1.351 . S
C562 N563 1.373 . S
C562 H590 0.930 . S
N563 C562 1.373 . S
N563 C565 1.340 . S
N564 C561 1.368 . S
N564 C565 1.321 . S
N564 Co567 2.135 . S
C565 N563 1.340 . S
C565 N564 1.321 . S
C565 H589 0.930 . S
H566 C561 0.931 . S
Co567 N564 2.135 . S
Co567 N570 2.121 . S
Co567 O575 2.055 1_565 S
Co567 O578 2.039 . S
Co567 N581 2.140 . S
C568 O569 1.227 . S
C568 O578 1.265 . S
O569 C568 1.227 . S
N570 Co567 2.121 . S
N570 C572 1.375 . S
N570 C573 1.313 1_565 S
C571 C572 1.338 1_545 S
C571 N574 1.377 . S
C571 H591 0.930 . S
C572 N570 1.375 . S
C572 C571 1.338 1_565 S
C572 H576 0.931 . S
C573 N570 1.313 1_545 S
C573 N574 1.344 . S
C573 H577 0.930 . S
N574 C571 1.377 . S
N574 C573 1.344 . S
O575 Co567 2.055 1_545 S
O575 C579 1.253 . S
H576 C572 0.931 . S
H577 C573 0.930 . S
O578 Co567 2.039 . S
O578 C568 1.265 . S
C579 O575 1.253 . S
C579 O580 1.227 1_545 S
O580 C579 1.227 1_565 S
N581 Co567 2.140 . S
N581 C584 1.346 . S
N581 C585 1.345 . S
C582 C583 1.387 . S
C582 C586 1.391 . S
C583 C582 1.387 . S
C583 C584 1.369 . S
C583 H592 0.929 . S
C584 N581 1.346 . S
C584 C583 1.369 . S
C584 H587 0.928 . S
C585 N581 1.345 . S
C585 C586 1.371 . S
C585 H588 0.931 . S
C586 C582 1.391 . S
C586 C585 1.371 . S
C586 H593 0.930 . S
H587 C584 0.928 . S
H588 C585 0.931 . S
H589 C565 0.930 . S
H590 C562 0.930 . S
H591 C571 0.930 . S
H592 C583 0.929 . S
H593 C586 0.930 . S
C594 C595 1.351 . S
C594 N597 1.368 . S
C594 H599 0.931 . S
C595 C594 1.351 . S
C595 N596 1.373 . S
C595 H623 0.930 . S
N596 C595 1.373 . S
N596 C598 1.340 . S
N597 C594 1.368 . S
N597 C598 1.321 . S
N597 Co600 2.135 . S
C598 N596 1.340 . S
C598 N597 1.321 . S
C598 H622 0.930 . S
H599 C594 0.931 . S
Co600 N597 2.135 . S
Co600 N603 2.121 . S
Co600 O608 2.055 1_565 S
Co600 O611 2.039 . S
Co600 N614 2.140 . S
C601 O602 1.227 . S
C601 O611 1.265 . S
O602 C601 1.227 . S
N603 Co600 2.121 . S
N603 C605 1.375 . S
N603 C606 1.313 1_565 S
C604 C605 1.338 1_545 S
C604 N607 1.377 . S
C604 H624 0.930 . S
C605 N603 1.375 . S
C605 C604 1.338 1_565 S
C605 H609 0.931 . S
C606 N603 1.313 1_545 S
C606 N607 1.344 . S
C606 H610 0.930 . S
N607 C604 1.377 . S
N607 C606 1.344 . S
O608 Co600 2.055 1_545 S
O608 C612 1.253 . S
H609 C605 0.931 . S
H610 C606 0.930 . S
O611 Co600 2.039 . S
O611 C601 1.265 . S
C612 O608 1.253 . S
C612 O613 1.227 1_545 S
O613 C612 1.227 1_565 S
N614 Co600 2.140 . S
N614 C617 1.346 . S
N614 C618 1.345 . S
C615 C616 1.387 . S
C615 C619 1.391 . S
C616 C615 1.387 . S
C616 C617 1.369 . S
C616 H625 0.929 . S
C617 N614 1.346 . S
C617 C616 1.369 . S
C617 H620 0.928 . S
C618 N614 1.345 . S
C618 C619 1.371 . S
C618 H621 0.931 . S
C619 C615 1.391 . S
C619 C618 1.371 . S
C619 H626 0.930 . S
H620 C617 0.928 . S
H621 C618 0.931 . S
H622 C598 0.930 . S
H623 C595 0.930 . S
H624 C604 0.930 . S
H625 C616 0.929 . S
H626 C619 0.930 . S
C627 C628 1.351 . S
C627 N630 1.368 . S
C627 H632 0.931 . S
C628 C627 1.351 . S
C628 N629 1.373 . S
C628 H656 0.930 . S
N629 C628 1.373 . S
N629 C631 1.340 . S
N630 C627 1.368 . S
N630 C631 1.321 . S
N630 Co633 2.135 . S
C631 N629 1.340 . S
C631 N630 1.321 . S
C631 H655 0.930 . S
H632 C627 0.931 . S
Co633 N630 2.135 . S
Co633 N636 2.121 . S
Co633 O641 2.055 . S
Co633 O644 2.039 . S
Co633 N647 2.140 . S
C634 O635 1.227 . S
C634 O644 1.265 . S
O635 C634 1.227 . S
N636 Co633 2.121 . S
N636 C638 1.375 . S
N636 C639 1.313 . S
C637 C638 1.338 . S
C637 N640 1.377 . S
C637 H657 0.930 . S
C638 N636 1.375 . S
C638 C637 1.338 . S
C638 H642 0.931 . S
C639 N636 1.313 . S
C639 N640 1.344 . S
C639 H643 0.930 . S
N640 C637 1.377 . S
N640 C639 1.344 . S
O641 Co633 2.055 . S
O641 C645 1.253 . S
H642 C638 0.931 . S
H643 C639 0.930 . S
O644 Co633 2.039 . S
O644 C634 1.265 . S
C645 O641 1.253 . S
C645 O646 1.227 . S
O646 C645 1.227 . S
N647 Co633 2.140 . S
N647 C650 1.346 . S
N647 C651 1.345 . S
C648 C649 1.387 . S
C648 C652 1.391 . S
C649 C648 1.387 . S
C649 C650 1.369 . S
C649 H658 0.929 . S
C650 N647 1.346 . S
C650 C649 1.369 . S
C650 H653 0.928 . S
C651 N647 1.345 . S
C651 C652 1.371 . S
C651 H654 0.931 . S
C652 C648 1.391 . S
C652 C651 1.371 . S
C652 H659 0.930 . S
H653 C650 0.928 . S
H654 C651 0.931 . S
H655 C631 0.930 . S
H656 C628 0.930 . S
H657 C637 0.930 . S
H658 C649 0.929 . S
H659 C652 0.930 . S
C660 C661 1.351 . S
C660 N663 1.368 . S
C660 H665 0.931 . S
C661 C660 1.351 . S
C661 N662 1.373 . S
C661 H689 0.930 . S
N662 C661 1.373 . S
N662 C664 1.340 . S
N663 C660 1.368 . S
N663 C664 1.321 . S
N663 Co666 2.135 . S
C664 N662 1.340 . S
C664 N663 1.321 . S
C664 H688 0.930 . S
H665 C660 0.931 . S
Co666 N663 2.135 . S
Co666 N669 2.121 . S
Co666 O674 2.055 . S
Co666 O677 2.039 . S
Co666 N680 2.140 . S
C667 O668 1.227 . S
C667 O677 1.265 . S
O668 C667 1.227 . S
N669 Co666 2.121 . S
N669 C671 1.375 . S
N669 C672 1.313 . S
C670 C671 1.338 . S
C670 N673 1.377 . S
C670 H690 0.930 . S
C671 N669 1.375 . S
C671 C670 1.338 . S
C671 H675 0.931 . S
C672 N669 1.313 . S
C672 N673 1.344 . S
C672 H676 0.930 . S
N673 C670 1.377 . S
N673 C672 1.344 . S
O674 Co666 2.055 . S
O674 C678 1.253 . S
H675 C671 0.931 . S
H676 C672 0.930 . S
O677 Co666 2.039 . S
O677 C667 1.265 . S
C678 O674 1.253 . S
C678 O679 1.227 . S
O679 C678 1.227 . S
N680 Co666 2.140 . S
N680 C683 1.346 . S
N680 C684 1.345 . S
C681 C682 1.387 . S
C681 C685 1.391 . S
C682 C681 1.387 . S
C682 C683 1.369 . S
C682 H691 0.929 . S
C683 N680 1.346 . S
C683 C682 1.369 . S
C683 H686 0.928 . S
C684 N680 1.345 . S
C684 C685 1.371 . S
C684 H687 0.931 . S
C685 C681 1.391 . S
C685 C684 1.371 . S
C685 H692 0.930 . S
H686 C683 0.928 . S
H687 C684 0.931 . S
H688 C664 0.930 . S
H689 C661 0.930 . S
H690 C670 0.930 . S
H691 C682 0.929 . S
H692 C685 0.930 . S
C693 C694 1.351 . S
C693 N696 1.368 . S
C693 H698 0.931 . S
C694 C693 1.351 . S
C694 N695 1.373 . S
C694 H722 0.930 . S
N695 C694 1.373 . S
N695 C697 1.340 . S
N696 C693 1.368 . S
N696 C697 1.321 . S
N696 Co699 2.135 . S
C697 N695 1.340 . S
C697 N696 1.321 . S
C697 H721 0.930 . S
H698 C693 0.931 . S
Co699 N696 2.135 . S
Co699 N702 2.121 . S
Co699 O707 2.055 1_545 S
Co699 O710 2.039 . S
Co699 N713 2.140 . S
C700 O701 1.227 . S
C700 O710 1.265 . S
O701 C700 1.227 . S
N702 Co699 2.121 . S
N702 C704 1.375 . S
N702 C705 1.313 1_545 S
C703 C704 1.338 1_565 S
C703 N706 1.377 . S
C703 H723 0.930 . S
C704 N702 1.375 . S
C704 C703 1.338 1_545 S
C704 H708 0.931 . S
C705 N702 1.313 1_565 S
C705 N706 1.344 . S
C705 H709 0.930 . S
N706 C703 1.377 . S
N706 C705 1.344 . S
O707 Co699 2.055 1_565 S
O707 C711 1.253 . S
H708 C704 0.931 . S
H709 C705 0.930 . S
O710 Co699 2.039 . S
O710 C700 1.265 . S
C711 O707 1.253 . S
C711 O712 1.227 1_565 S
O712 C711 1.227 1_545 S
N713 Co699 2.140 . S
N713 C716 1.346 . S
N713 C717 1.345 . S
C714 C715 1.387 . S
C714 C718 1.391 . S
C715 C714 1.387 . S
C715 C716 1.369 . S
C715 H724 0.929 . S
C716 N713 1.346 . S
C716 C715 1.369 . S
C716 H719 0.928 . S
C717 N713 1.345 . S
C717 C718 1.371 . S
C717 H720 0.931 . S
C718 C714 1.391 . S
C718 C717 1.371 . S
C718 H725 0.930 . S
H719 C716 0.928 . S
H720 C717 0.931 . S
H721 C697 0.930 . S
H722 C694 0.930 . S
H723 C703 0.930 . S
H724 C715 0.929 . S
H725 C718 0.930 . S
C726 C727 1.351 . S
C726 N729 1.368 . S
C726 H731 0.931 . S
C727 C726 1.351 . S
C727 N728 1.373 . S
C727 H755 0.930 . S
N728 C727 1.373 . S
N728 C730 1.340 . S
N729 C726 1.368 . S
N729 C730 1.321 . S
N729 Co732 2.135 . S
C730 N728 1.340 . S
C730 N729 1.321 . S
C730 H754 0.930 . S
H731 C726 0.931 . S
Co732 N729 2.135 . S
Co732 N735 2.121 . S
Co732 O740 2.055 1_545 S
Co732 O743 2.039 . S
Co732 N746 2.140 . S
C733 O734 1.227 . S
C733 O743 1.265 . S
O734 C733 1.227 . S
N735 Co732 2.121 . S
N735 C737 1.375 . S
N735 C738 1.313 1_545 S
C736 C737 1.338 1_565 S
C736 N739 1.377 . S
C736 H756 0.930 . S
C737 N735 1.375 . S
C737 C736 1.338 1_545 S
C737 H741 0.931 . S
C738 N735 1.313 1_565 S
C738 N739 1.344 . S
C738 H742 0.930 . S
N739 C736 1.377 . S
N739 C738 1.344 . S
O740 Co732 2.055 1_565 S
O740 C744 1.253 . S
H741 C737 0.931 . S
H742 C738 0.930 . S
O743 Co732 2.039 . S
O743 C733 1.265 . S
C744 O740 1.253 . S
C744 O745 1.227 1_565 S
O745 C744 1.227 1_545 S
N746 Co732 2.140 . S
N746 C749 1.346 . S
N746 C750 1.345 . S
C747 C748 1.387 . S
C747 C751 1.391 . S
C748 C747 1.387 . S
C748 C749 1.369 . S
C748 H757 0.929 . S
C749 N746 1.346 . S
C749 C748 1.369 . S
C749 H752 0.928 . S
C750 N746 1.345 . S
C750 C751 1.371 . S
C750 H753 0.931 . S
C751 C747 1.391 . S
C751 C750 1.371 . S
C751 H758 0.930 . S
H752 C749 0.928 . S
H753 C750 0.931 . S
H754 C730 0.930 . S
H755 C727 0.930 . S
H756 C736 0.930 . S
H757 C748 0.929 . S
H758 C751 0.930 . S
C759 C760 1.351 . S
C759 N762 1.368 . S
C759 H764 0.931 . S
C760 C759 1.351 . S
C760 N761 1.373 . S
C760 H788 0.930 . S
N761 C760 1.373 . S
N761 C763 1.340 . S
N762 C759 1.368 . S
N762 C763 1.321 . S
N762 Co765 2.135 . S
C763 N761 1.340 . S
C763 N762 1.321 . S
C763 H787 0.930 . S
H764 C759 0.931 . S
Co765 N762 2.135 . S
Co765 N768 2.121 . S
Co765 O773 2.055 . S
Co765 O776 2.039 . S
Co765 N779 2.140 . S
C766 O767 1.227 . S
C766 O776 1.265 . S
O767 C766 1.227 . S
N768 Co765 2.121 . S
N768 C770 1.375 . S
N768 C771 1.313 . S
C769 C770 1.338 . S
C769 N772 1.377 . S
C769 H789 0.930 . S
C770 N768 1.375 . S
C770 C769 1.338 . S
C770 H774 0.931 . S
C771 N768 1.313 . S
C771 N772 1.344 . S
C771 H775 0.930 . S
N772 C769 1.377 . S
N772 C771 1.344 . S
O773 Co765 2.055 . S
O773 C777 1.253 . S
H774 C770 0.931 . S
H775 C771 0.930 . S
O776 Co765 2.039 . S
O776 C766 1.265 . S
C777 O773 1.253 . S
C777 O778 1.227 . S
O778 C777 1.227 . S
N779 Co765 2.140 . S
N779 C782 1.346 . S
N779 C783 1.345 . S
C780 C781 1.387 . S
C780 C784 1.391 . S
C781 C780 1.387 . S
C781 C782 1.369 . S
C781 H790 0.929 . S
C782 N779 1.346 . S
C782 C781 1.369 . S
C782 H785 0.928 . S
C783 N779 1.345 . S
C783 C784 1.371 . S
C783 H786 0.931 . S
C784 C780 1.391 . S
C784 C783 1.371 . S
C784 H791 0.930 . S
H785 C782 0.928 . S
H786 C783 0.931 . S
H787 C763 0.930 . S
H788 C760 0.930 . S
H789 C769 0.930 . S
H790 C781 0.929 . S
H791 C784 0.930 . S
C792 C793 1.351 . S
C792 N795 1.368 . S
C792 H797 0.931 . S
C793 C792 1.351 . S
C793 N794 1.373 . S
C793 H821 0.930 . S
N794 C793 1.373 . S
N794 C796 1.340 . S
N795 C792 1.368 . S
N795 C796 1.321 . S
N795 Co798 2.135 . S
C796 N794 1.340 . S
C796 N795 1.321 . S
C796 H820 0.930 . S
H797 C792 0.931 . S
Co798 N795 2.135 . S
Co798 N801 2.121 . S
Co798 O806 2.055 . S
Co798 O809 2.039 . S
Co798 N812 2.140 . S
C799 O800 1.227 . S
C799 O809 1.265 . S
O800 C799 1.227 . S
N801 Co798 2.121 . S
N801 C803 1.375 . S
N801 C804 1.313 . S
C802 C803 1.338 . S
C802 N805 1.377 . S
C802 H822 0.930 . S
C803 N801 1.375 . S
C803 C802 1.338 . S
C803 H807 0.931 . S
C804 N801 1.313 . S
C804 N805 1.344 . S
C804 H808 0.930 . S
N805 C802 1.377 . S
N805 C804 1.344 . S
O806 Co798 2.055 . S
O806 C810 1.253 . S
H807 C803 0.931 . S
H808 C804 0.930 . S
O809 Co798 2.039 . S
O809 C799 1.265 . S
C810 O806 1.253 . S
C810 O811 1.227 . S
O811 C810 1.227 . S
N812 Co798 2.140 . S
N812 C815 1.346 . S
N812 C816 1.345 . S
C813 C814 1.387 . S
C813 C817 1.391 . S
C814 C813 1.387 . S
C814 C815 1.369 . S
C814 H823 0.929 . S
C815 N812 1.346 . S
C815 C814 1.369 . S
C815 H818 0.928 . S
C816 N812 1.345 . S
C816 C817 1.371 . S
C816 H819 0.931 . S
C817 C813 1.391 . S
C817 C816 1.371 . S
C817 H824 0.930 . S
H818 C815 0.928 . S
H819 C816 0.931 . S
H820 C796 0.930 . S
H821 C793 0.930 . S
H822 C802 0.930 . S
H823 C814 0.929 . S
H824 C817 0.930 . S
C825 C826 1.351 . S
C825 N828 1.368 . S
C825 H830 0.931 . S
C826 C825 1.351 . S
C826 N827 1.373 . S
C826 H854 0.930 . S
N827 C826 1.373 . S
N827 C829 1.340 . S
N828 C825 1.368 . S
N828 C829 1.321 . S
N828 Co831 2.135 . S
C829 N827 1.340 . S
C829 N828 1.321 . S
C829 H853 0.930 . S
H830 C825 0.931 . S
Co831 N828 2.135 . S
Co831 N834 2.121 . S
Co831 O839 2.055 . S
Co831 O842 2.039 . S
Co831 N845 2.140 . S
C832 O833 1.227 . S
C832 O842 1.265 . S
O833 C832 1.227 . S
N834 Co831 2.121 . S
N834 C836 1.375 . S
N834 C837 1.313 . S
C835 C836 1.338 . S
C835 N838 1.377 . S
C835 H855 0.930 . S
C836 N834 1.375 . S
C836 C835 1.338 . S
C836 H840 0.931 . S
C837 N834 1.313 . S
C837 N838 1.344 . S
C837 H841 0.930 . S
N838 C835 1.377 . S
N838 C837 1.344 . S
O839 Co831 2.055 . S
O839 C843 1.253 . S
H840 C836 0.931 . S
H841 C837 0.930 . S
O842 Co831 2.039 . S
O842 C832 1.265 . S
C843 O839 1.253 . S
C843 O844 1.227 . S
O844 C843 1.227 . S
N845 Co831 2.140 . S
N845 C848 1.346 . S
N845 C849 1.345 . S
C846 C847 1.387 . S
C846 C850 1.391 . S
C847 C846 1.387 . S
C847 C848 1.369 . S
C847 H856 0.929 . S
C848 N845 1.346 . S
C848 C847 1.369 . S
C848 H851 0.928 . S
C849 N845 1.345 . S
C849 C850 1.371 . S
C849 H852 0.931 . S
C850 C846 1.391 . S
C850 C849 1.371 . S
C850 H857 0.930 . S
H851 C848 0.928 . S
H852 C849 0.931 . S
H853 C829 0.930 . S
H854 C826 0.930 . S
H855 C835 0.930 . S
H856 C847 0.929 . S
H857 C850 0.930 . S
C858 C859 1.351 . S
C858 N861 1.368 . S
C858 H863 0.931 . S
C859 C858 1.351 . S
C859 N860 1.373 . S
C859 H887 0.930 . S
N860 C859 1.373 . S
N860 C862 1.340 . S
N861 C858 1.368 . S
N861 C862 1.321 . S
N861 Co864 2.135 1_556 S
C862 N860 1.340 . S
C862 N861 1.321 . S
C862 H886 0.930 . S
H863 C858 0.931 . S
Co864 N861 2.135 1_554 S
Co864 N867 2.121 . S
Co864 O872 2.055 1_554 S
Co864 O875 2.039 . S
Co864 N878 2.140 . S
C865 O866 1.227 . S
C865 O875 1.265 . S
O866 C865 1.227 . S
N867 Co864 2.121 . S
N867 C869 1.375 . S
N867 C870 1.313 . S
C868 C869 1.338 . S
C868 N871 1.377 . S
C868 H888 0.930 . S
C869 N867 1.375 . S
C869 C868 1.338 . S
C869 H873 0.931 . S
C870 N867 1.313 . S
C870 N871 1.344 . S
C870 H874 0.930 . S
N871 C868 1.377 . S
N871 C870 1.344 . S
O872 Co864 2.055 1_556 S
O872 C876 1.253 . S
H873 C869 0.931 . S
H874 C870 0.930 . S
O875 Co864 2.039 . S
O875 C865 1.265 . S
C876 O872 1.253 . S
C876 O877 1.227 1_556 S
O877 C876 1.227 1_554 S
N878 Co864 2.140 . S
N878 C881 1.346 . S
N878 C882 1.345 . S
C879 C880 1.387 . S
C879 C883 1.391 . S
C880 C879 1.387 . S
C880 C881 1.369 . S
C880 H889 0.929 . S
C881 N878 1.346 . S
C881 C880 1.369 . S
C881 H884 0.928 . S
C882 N878 1.345 . S
C882 C883 1.371 . S
C882 H885 0.931 . S
C883 C879 1.391 . S
C883 C882 1.371 . S
C883 H890 0.930 . S
H884 C881 0.928 . S
H885 C882 0.931 . S
H886 C862 0.930 . S
H887 C859 0.930 . S
H888 C868 0.930 . S
H889 C880 0.929 . S
H890 C883 0.930 . S
C891 C892 1.351 . S
C891 N894 1.368 . S
C891 H896 0.931 . S
C892 C891 1.351 . S
C892 N893 1.373 . S
C892 H920 0.930 . S
N893 C892 1.373 . S
N893 C895 1.340 . S
N894 C891 1.368 . S
N894 C895 1.321 . S
N894 Co897 2.135 1_556 S
C895 N893 1.340 . S
C895 N894 1.321 . S
C895 H919 0.930 . S
H896 C891 0.931 . S
Co897 N894 2.135 1_554 S
Co897 N900 2.121 . S
Co897 O905 2.055 1_554 S
Co897 O908 2.039 . S
Co897 N911 2.140 . S
C898 O899 1.227 . S
C898 O908 1.265 . S
O899 C898 1.227 . S
N900 Co897 2.121 . S
N900 C902 1.375 . S
N900 C903 1.313 . S
C901 C902 1.338 . S
C901 N904 1.377 . S
C901 H921 0.930 . S
C902 N900 1.375 . S
C902 C901 1.338 . S
C902 H906 0.931 . S
C903 N900 1.313 . S
C903 N904 1.344 . S
C903 H907 0.930 . S
N904 C901 1.377 . S
N904 C903 1.344 . S
O905 Co897 2.055 1_556 S
O905 C909 1.253 . S
H906 C902 0.931 . S
H907 C903 0.930 . S
O908 Co897 2.039 . S
O908 C898 1.265 . S
C909 O905 1.253 . S
C909 O910 1.227 1_556 S
O910 C909 1.227 1_554 S
N911 Co897 2.140 . S
N911 C914 1.346 . S
N911 C915 1.345 . S
C912 C913 1.387 . S
C912 C916 1.391 . S
C913 C912 1.387 . S
C913 C914 1.369 . S
C913 H922 0.929 . S
C914 N911 1.346 . S
C914 C913 1.369 . S
C914 H917 0.928 . S
C915 N911 1.345 . S
C915 C916 1.371 . S
C915 H918 0.931 . S
C916 C912 1.391 . S
C916 C915 1.371 . S
C916 H923 0.930 . S
H917 C914 0.928 . S
H918 C915 0.931 . S
H919 C895 0.930 . S
H920 C892 0.930 . S
H921 C901 0.930 . S
H922 C913 0.929 . S
H923 C916 0.930 . S
C924 C925 1.351 . S
C924 N927 1.368 . S
C924 H929 0.931 . S
C925 C924 1.351 . S
C925 N926 1.373 . S
C925 H953 0.930 . S
N926 C925 1.373 . S
N926 C928 1.340 . S
N927 C924 1.368 . S
N927 C928 1.321 . S
N927 Co930 2.135 . S
C928 N926 1.340 . S
C928 N927 1.321 . S
C928 H952 0.930 . S
H929 C924 0.931 . S
Co930 N927 2.135 . S
Co930 N933 2.121 . S
Co930 O938 2.055 . S
Co930 O941 2.039 . S
Co930 N944 2.140 . S
C931 O932 1.227 . S
C931 O941 1.265 . S
O932 C931 1.227 . S
N933 Co930 2.121 . S
N933 C935 1.375 . S
N933 C936 1.313 . S
C934 C935 1.338 . S
C934 N937 1.377 . S
C934 H954 0.930 . S
C935 N933 1.375 . S
C935 C934 1.338 . S
C935 H939 0.931 . S
C936 N933 1.313 . S
C936 N937 1.344 . S
C936 H940 0.930 . S
N937 C934 1.377 . S
N937 C936 1.344 . S
O938 Co930 2.055 . S
O938 C942 1.253 . S
H939 C935 0.931 . S
H940 C936 0.930 . S
O941 Co930 2.039 . S
O941 C931 1.265 . S
C942 O938 1.253 . S
C942 O943 1.227 . S
O943 C942 1.227 . S
N944 Co930 2.140 . S
N944 C947 1.346 . S
N944 C948 1.345 . S
C945 C946 1.387 . S
C945 C949 1.391 . S
C946 C945 1.387 . S
C946 C947 1.369 . S
C946 H955 0.929 . S
C947 N944 1.346 . S
C947 C946 1.369 . S
C947 H950 0.928 . S
C948 N944 1.345 . S
C948 C949 1.371 . S
C948 H951 0.931 . S
C949 C945 1.391 . S
C949 C948 1.371 . S
C949 H956 0.930 . S
H950 C947 0.928 . S
H951 C948 0.931 . S
H952 C928 0.930 . S
H953 C925 0.930 . S
H954 C934 0.930 . S
H955 C946 0.929 . S
H956 C949 0.930 . S
C957 C958 1.351 . S
C957 N960 1.368 . S
C957 H962 0.931 . S
C958 C957 1.351 . S
C958 N959 1.373 . S
C958 H986 0.930 . S
N959 C958 1.373 . S
N959 C961 1.340 . S
N960 C957 1.368 . S
N960 C961 1.321 . S
N960 Co963 2.135 . S
C961 N959 1.340 . S
C961 N960 1.321 . S
C961 H985 0.930 . S
H962 C957 0.931 . S
Co963 N960 2.135 . S
Co963 N966 2.121 . S
Co963 O971 2.055 . S
Co963 O974 2.039 . S
Co963 N977 2.140 . S
C964 O965 1.227 . S
C964 O974 1.265 . S
O965 C964 1.227 . S
N966 Co963 2.121 . S
N966 C968 1.375 . S
N966 C969 1.313 . S
C967 C968 1.338 . S
C967 N970 1.377 . S
C967 H987 0.930 . S
C968 N966 1.375 . S
C968 C967 1.338 . S
C968 H972 0.931 . S
C969 N966 1.313 . S
C969 N970 1.344 . S
C969 H973 0.930 . S
N970 C967 1.377 . S
N970 C969 1.344 . S
O971 Co963 2.055 . S
O971 C975 1.253 . S
H972 C968 0.931 . S
H973 C969 0.930 . S
O974 Co963 2.039 . S
O974 C964 1.265 . S
C975 O971 1.253 . S
C975 O976 1.227 . S
O976 C975 1.227 . S
N977 Co963 2.140 . S
N977 C980 1.346 . S
N977 C981 1.345 . S
C978 C979 1.387 . S
C978 C982 1.391 . S
C979 C978 1.387 . S
C979 C980 1.369 . S
C979 H988 0.929 . S
C980 N977 1.346 . S
C980 C979 1.369 . S
C980 H983 0.928 . S
C981 N977 1.345 . S
C981 C982 1.371 . S
C981 H984 0.931 . S
C982 C978 1.391 . S
C982 C981 1.371 . S
C982 H989 0.930 . S
H983 C980 0.928 . S
H984 C981 0.931 . S
H985 C961 0.930 . S
H986 C958 0.930 . S
H987 C967 0.930 . S
H988 C979 0.929 . S
H989 C982 0.930 . S
C990 C991 1.351 . S
C990 N993 1.368 . S
C990 H995 0.931 . S
C991 C990 1.351 . S
C991 N992 1.373 . S
C991 H1019 0.930 . S
N992 C991 1.373 . S
N992 C994 1.340 . S
N993 C990 1.368 . S
N993 C994 1.321 . S
N993 Co996 2.135 1_554 S
C994 N992 1.340 . S
C994 N993 1.321 . S
C994 H1018 0.930 . S
H995 C990 0.931 . S
Co996 N993 2.135 1_556 S
Co996 N999 2.121 . S
Co996 O1004 2.055 1_556 S
Co996 O1007 2.039 . S
Co996 N1010 2.140 . S
C997 O998 1.227 . S
C997 O1007 1.265 . S
O998 C997 1.227 . S
N999 Co996 2.121 . S
N999 C1001 1.375 . S
N999 C1002 1.313 . S
C1000 C1001 1.338 . S
C1000 N1003 1.377 . S
C1000 H1020 0.930 . S
C1001 N999 1.375 . S
C1001 C1000 1.338 . S
C1001 H1005 0.931 . S
C1002 N999 1.313 . S
C1002 N1003 1.344 . S
C1002 H1006 0.930 . S
N1003 C1000 1.377 . S
N1003 C1002 1.344 . S
O1004 Co996 2.055 1_554 S
O1004 C1008 1.253 . S
H1005 C1001 0.931 . S
H1006 C1002 0.930 . S
O1007 Co996 2.039 . S
O1007 C997 1.265 . S
C1008 O1004 1.253 . S
C1008 O1009 1.227 1_554 S
O1009 C1008 1.227 1_556 S
N1010 Co996 2.140 . S
N1010 C1013 1.346 . S
N1010 C1014 1.345 . S
C1011 C1012 1.387 . S
C1011 C1015 1.391 . S
C1012 C1011 1.387 . S
C1012 C1013 1.369 . S
C1012 H1021 0.929 . S
C1013 N1010 1.346 . S
C1013 C1012 1.369 . S
C1013 H1016 0.928 . S
C1014 N1010 1.345 . S
C1014 C1015 1.371 . S
C1014 H1017 0.931 . S
C1015 C1011 1.391 . S
C1015 C1014 1.371 . S
C1015 H1022 0.930 . S
H1016 C1013 0.928 . S
H1017 C1014 0.931 . S
H1018 C994 0.930 . S
H1019 C991 0.930 . S
H1020 C1000 0.930 . S
H1021 C1012 0.929 . S
H1022 C1015 0.930 . S
C1023 C1024 1.351 . S
C1023 N1026 1.368 . S
C1023 H1028 0.931 . S
C1024 C1023 1.351 . S
C1024 N1025 1.373 . S
C1024 H1052 0.930 . S
N1025 C1024 1.373 . S
N1025 C1027 1.340 . S
N1026 C1023 1.368 . S
N1026 C1027 1.321 . S
N1026 Co1029 2.135 1_554 S
C1027 N1025 1.340 . S
C1027 N1026 1.321 . S
C1027 H1051 0.930 . S
H1028 C1023 0.931 . S
Co1029 N1026 2.135 1_556 S
Co1029 N1032 2.121 . S
Co1029 O1037 2.055 1_556 S
Co1029 O1040 2.039 . S
Co1029 N1043 2.140 . S
C1030 O1031 1.227 . S
C1030 O1040 1.265 . S
O1031 C1030 1.227 . S
N1032 Co1029 2.121 . S
N1032 C1034 1.375 . S
N1032 C1035 1.313 . S
C1033 C1034 1.338 . S
C1033 N1036 1.377 . S
C1033 H1053 0.930 . S
C1034 N1032 1.375 . S
C1034 C1033 1.338 . S
C1034 H1038 0.931 . S
C1035 N1032 1.313 . S
C1035 N1036 1.344 . S
C1035 H1039 0.930 . S
N1036 C1033 1.377 . S
N1036 C1035 1.344 . S
O1037 Co1029 2.055 1_554 S
O1037 C1041 1.253 . S
H1038 C1034 0.931 . S
H1039 C1035 0.930 . S
O1040 Co1029 2.039 . S
O1040 C1030 1.265 . S
C1041 O1037 1.253 . S
C1041 O1042 1.227 1_554 S
O1042 C1041 1.227 1_556 S
N1043 Co1029 2.140 . S
N1043 C1046 1.346 . S
N1043 C1047 1.345 . S
C1044 C1045 1.387 . S
C1044 C1048 1.391 . S
C1045 C1044 1.387 . S
C1045 C1046 1.369 . S
C1045 H1054 0.929 . S
C1046 N1043 1.346 . S
C1046 C1045 1.369 . S
C1046 H1049 0.928 . S
C1047 N1043 1.345 . S
C1047 C1048 1.371 . S
C1047 H1050 0.931 . S
C1048 C1044 1.391 . S
C1048 C1047 1.371 . S
C1048 H1055 0.930 . S
H1049 C1046 0.928 . S
H1050 C1047 0.931 . S
H1051 C1027 0.930 . S
H1052 C1024 0.930 . S
H1053 C1033 0.930 . S
H1054 C1045 0.929 . S
H1055 C1048 0.930 . S
H1056 C1064 0.950 . S
H1057 C1069 0.950 . S
H1058 C1066 0.950 . S
H1059 C1068 0.950 . S
H1060 C1070 0.950 . S
H1061 C1072 0.950 . S
H1062 C1074 0.950 . S
H1063 C1075 0.950 . S
C1064 H1056 0.950 . S
C1064 C1065 1.386 . S
C1064 C1066 1.391 . S
C1065 C1064 1.386 . S
C1065 C1069 1.393 . S
C1066 H1058 0.950 . S
C1066 C1064 1.391 . S
C1066 C1067 1.400 . S
C1067 C1066 1.400 . S
C1067 C1068 1.398 . S
C1067 C1073 1.491 . S
C1068 H1059 0.950 . S
C1068 C1067 1.398 . S
C1068 C1069 1.391 . S
C1069 H1057 0.950 . S
C1069 C1065 1.393 . S
C1069 C1068 1.391 . S
C1070 H1060 0.950 . S
C1070 C1071 1.386 . S
C1070 C1072 1.391 . S
C1071 C1070 1.386 . S
C1071 C1075 1.393 . S
C1072 H1061 0.950 . S
C1072 C1070 1.391 . S
C1072 C1073 1.400 . S
C1073 C1067 1.491 . S
C1073 C1072 1.400 . S
C1073 C1074 1.398 . S
C1074 H1062 0.950 . S
C1074 C1073 1.398 . S
C1074 C1075 1.391 . S
C1075 H1063 0.950 . S
C1075 C1071 1.393 . S
C1075 C1074 1.391 . S
H1076 C1084 0.950 . S
H1077 C1089 0.950 . S
H1078 C1086 0.950 . S
H1079 C1088 0.950 . S
H1080 C1090 0.950 . S
H1081 C1092 0.950 . S
H1082 C1094 0.950 . S
H1083 C1095 0.950 . S
C1084 H1076 0.950 . S
C1084 C1085 1.386 . S
C1084 C1086 1.391 . S
C1085 C1084 1.386 . S
C1085 C1089 1.393 . S
C1086 H1078 0.950 . S
C1086 C1084 1.391 . S
C1086 C1087 1.400 . S
C1087 C1086 1.400 . S
C1087 C1088 1.398 . S
C1087 C1093 1.491 . S
C1088 H1079 0.950 . S
C1088 C1087 1.398 . S
C1088 C1089 1.391 . S
C1089 H1077 0.950 . S
C1089 C1085 1.393 . S
C1089 C1088 1.391 . S
C1090 H1080 0.950 . S
C1090 C1091 1.386 . S
C1090 C1092 1.391 . S
C1091 C1090 1.386 . S
C1091 C1095 1.393 . S
C1092 H1081 0.950 . S
C1092 C1090 1.391 . S
C1092 C1093 1.400 . S
C1093 C1087 1.491 . S
C1093 C1092 1.400 . S
C1093 C1094 1.398 . S
C1094 H1082 0.950 . S
C1094 C1093 1.398 . S
C1094 C1095 1.391 . S
C1095 H1083 0.950 . S
C1095 C1091 1.393 . S
C1095 C1094 1.391 . S
H1096 C1104 0.950 . S
H1097 C1109 0.950 . S
H1098 C1106 0.950 . S
H1099 C1108 0.950 . S
H1100 C1110 0.950 . S
H1101 C1112 0.950 . S
H1102 C1114 0.950 . S
H1103 C1115 0.950 . S
C1104 H1096 0.950 . S
C1104 C1105 1.386 . S
C1104 C1106 1.391 . S
C1105 C1104 1.386 . S
C1105 C1109 1.393 . S
C1106 H1098 0.950 . S
C1106 C1104 1.391 . S
C1106 C1107 1.400 . S
C1107 C1106 1.400 . S
C1107 C1108 1.398 . S
C1107 C1113 1.491 . S
C1108 H1099 0.950 . S
C1108 C1107 1.398 . S
C1108 C1109 1.391 . S
C1109 H1097 0.950 . S
C1109 C1105 1.393 . S
C1109 C1108 1.391 . S
C1110 H1100 0.950 . S
C1110 C1111 1.386 . S
C1110 C1112 1.391 . S
C1111 C1110 1.386 . S
C1111 C1115 1.393 . S
C1112 H1101 0.950 . S
C1112 C1110 1.391 . S
C1112 C1113 1.400 . S
C1113 C1107 1.491 . S
C1113 C1112 1.400 . S
C1113 C1114 1.398 . S
C1114 H1102 0.950 . S
C1114 C1113 1.398 . S
C1114 C1115 1.391 . S
C1115 H1103 0.950 . S
C1115 C1111 1.393 . S
C1115 C1114 1.391 . S
H1116 C1124 0.950 . S
H1117 C1129 0.950 . S
H1118 C1126 0.950 . S
H1119 C1128 0.950 . S
H1120 C1130 0.950 . S
H1121 C1132 0.950 . S
H1122 C1134 0.950 . S
H1123 C1135 0.950 . S
C1124 H1116 0.950 . S
C1124 C1125 1.386 . S
C1124 C1126 1.391 . S
C1125 C1124 1.386 . S
C1125 C1129 1.393 . S
C1126 H1118 0.950 . S
C1126 C1124 1.391 . S
C1126 C1127 1.400 . S
C1127 C1126 1.400 . S
C1127 C1128 1.398 . S
C1127 C1133 1.491 . S
C1128 H1119 0.950 . S
C1128 C1127 1.398 . S
C1128 C1129 1.391 . S
C1129 H1117 0.950 . S
C1129 C1125 1.393 . S
C1129 C1128 1.391 . S
C1130 H1120 0.950 . S
C1130 C1131 1.386 . S
C1130 C1132 1.391 . S
C1131 C1130 1.386 . S
C1131 C1135 1.393 . S
C1132 H1121 0.950 . S
C1132 C1130 1.391 . S
C1132 C1133 1.400 . S
C1133 C1127 1.491 . S
C1133 C1132 1.400 . S
C1133 C1134 1.398 . S
C1134 H1122 0.950 . S
C1134 C1133 1.398 . S
C1134 C1135 1.391 . S
C1135 H1123 0.950 . S
C1135 C1131 1.393 . S
C1135 C1134 1.391 . S
H1136 C1144 0.950 . S
H1137 C1149 0.950 . S
H1138 C1146 0.950 . S
H1139 C1148 0.950 . S
H1140 C1150 0.950 . S
H1141 C1152 0.950 . S
H1142 C1154 0.950 . S
H1143 C1155 0.950 . S
C1144 H1136 0.950 . S
C1144 C1145 1.386 . S
C1144 C1146 1.391 . S
C1145 C1144 1.386 . S
C1145 C1149 1.393 . S
C1146 H1138 0.950 . S
C1146 C1144 1.391 . S
C1146 C1147 1.400 . S
C1147 C1146 1.400 . S
C1147 C1148 1.398 . S
C1147 C1153 1.491 . S
C1148 H1139 0.950 . S
C1148 C1147 1.398 . S
C1148 C1149 1.391 . S
C1149 H1137 0.950 . S
C1149 C1145 1.393 . S
C1149 C1148 1.391 . S
C1150 H1140 0.950 . S
C1150 C1151 1.386 . S
C1150 C1152 1.391 . S
C1151 C1150 1.386 . S
C1151 C1155 1.393 . S
C1152 H1141 0.950 . S
C1152 C1150 1.391 . S
C1152 C1153 1.400 . S
C1153 C1147 1.491 . S
C1153 C1152 1.400 . S
C1153 C1154 1.398 . S
C1154 H1142 0.950 . S
C1154 C1153 1.398 . S
C1154 C1155 1.391 . S
C1155 H1143 0.950 . S
C1155 C1151 1.393 . S
C1155 C1154 1.391 . S
H1156 C1164 0.950 . S
H1157 C1169 0.950 . S
H1158 C1166 0.950 . S
H1159 C1168 0.950 . S
H1160 C1170 0.950 . S
H1161 C1172 0.950 . S
H1162 C1174 0.950 . S
H1163 C1175 0.950 . S
C1164 H1156 0.950 . S
C1164 C1165 1.386 . S
C1164 C1166 1.391 . S
C1165 C1164 1.386 . S
C1165 C1169 1.393 . S
C1166 H1158 0.950 . S
C1166 C1164 1.391 . S
C1166 C1167 1.400 . S
C1167 C1166 1.400 . S
C1167 C1168 1.398 . S
C1167 C1173 1.491 . S
C1168 H1159 0.950 . S
C1168 C1167 1.398 . S
C1168 C1169 1.391 . S
C1169 H1157 0.950 . S
C1169 C1165 1.393 . S
C1169 C1168 1.391 . S
C1170 H1160 0.950 . S
C1170 C1171 1.386 . S
C1170 C1172 1.391 . S
C1171 C1170 1.386 . S
C1171 C1175 1.393 . S
C1172 H1161 0.950 . S
C1172 C1170 1.391 . S
C1172 C1173 1.400 . S
C1173 C1167 1.491 . S
C1173 C1172 1.400 . S
C1173 C1174 1.398 . S
C1174 H1162 0.950 . S
C1174 C1173 1.398 . S
C1174 C1175 1.391 . S
C1175 H1163 0.950 . S
C1175 C1171 1.393 . S
C1175 C1174 1.391 . S
H1176 C1184 0.950 . S
H1177 C1189 0.950 . S
H1178 C1186 0.950 . S
H1179 C1188 0.950 . S
H1180 C1190 0.950 . S
H1181 C1192 0.950 . S
H1182 C1194 0.950 . S
H1183 C1195 0.950 . S
C1184 H1176 0.950 . S
C1184 C1185 1.386 . S
C1184 C1186 1.391 . S
C1185 C1184 1.386 . S
C1185 C1189 1.393 . S
C1186 H1178 0.950 . S
C1186 C1184 1.391 . S
C1186 C1187 1.400 . S
C1187 C1186 1.400 . S
C1187 C1188 1.398 . S
C1187 C1193 1.491 . S
C1188 H1179 0.950 . S
C1188 C1187 1.398 . S
C1188 C1189 1.391 . S
C1189 H1177 0.950 . S
C1189 C1185 1.393 . S
C1189 C1188 1.391 . S
C1190 H1180 0.950 . S
C1190 C1191 1.386 . S
C1190 C1192 1.391 . S
C1191 C1190 1.386 . S
C1191 C1195 1.393 . S
C1192 H1181 0.950 . S
C1192 C1190 1.391 . S
C1192 C1193 1.400 . S
C1193 C1187 1.491 . S
C1193 C1192 1.400 . S
C1193 C1194 1.398 . S
C1194 H1182 0.950 . S
C1194 C1193 1.398 . S
C1194 C1195 1.391 . S
C1195 H1183 0.950 . S
C1195 C1191 1.393 . S
C1195 C1194 1.391 . S
H1196 C1204 0.950 . S
H1197 C1209 0.950 . S
H1198 C1206 0.950 . S
H1199 C1208 0.950 . S
H1200 C1210 0.950 . S
H1201 C1212 0.950 . S
H1202 C1214 0.950 . S
H1203 C1215 0.950 . S
C1204 H1196 0.950 . S
C1204 C1205 1.386 . S
C1204 C1206 1.391 . S
C1205 C1204 1.386 . S
C1205 C1209 1.393 . S
C1206 H1198 0.950 . S
C1206 C1204 1.391 . S
C1206 C1207 1.400 . S
C1207 C1206 1.400 . S
C1207 C1208 1.398 . S
C1207 C1213 1.491 . S
C1208 H1199 0.950 . S
C1208 C1207 1.398 . S
C1208 C1209 1.391 . S
C1209 H1197 0.950 . S
C1209 C1205 1.393 . S
C1209 C1208 1.391 . S
C1210 H1200 0.950 . S
C1210 C1211 1.386 . S
C1210 C1212 1.391 . S
C1211 C1210 1.386 . S
C1211 C1215 1.393 . S
C1212 H1201 0.950 . S
C1212 C1210 1.391 . S
C1212 C1213 1.400 . S
C1213 C1207 1.491 . S
C1213 C1212 1.400 . S
C1213 C1214 1.398 . S
C1214 H1202 0.950 . S
C1214 C1213 1.398 . S
C1214 C1215 1.391 . S
C1215 H1203 0.950 . S
C1215 C1211 1.393 . S
C1215 C1214 1.391 . S
H1216 C1224 0.950 . S
H1217 C1229 0.950 . S
H1218 C1226 0.950 . S
H1219 C1228 0.950 . S
H1220 C1230 0.950 . S
H1221 C1232 0.950 . S
H1222 C1234 0.950 . S
H1223 C1235 0.950 . S
C1224 H1216 0.950 . S
C1224 C1225 1.386 . S
C1224 C1226 1.391 . S
C1225 C1224 1.386 . S
C1225 C1229 1.393 . S
C1226 H1218 0.950 . S
C1226 C1224 1.391 . S
C1226 C1227 1.400 . S
C1227 C1226 1.400 . S
C1227 C1228 1.398 . S
C1227 C1233 1.491 . S
C1228 H1219 0.950 . S
C1228 C1227 1.398 . S
C1228 C1229 1.391 . S
C1229 H1217 0.950 . S
C1229 C1225 1.393 . S
C1229 C1228 1.391 . S
C1230 H1220 0.950 . S
C1230 C1231 1.386 . S
C1230 C1232 1.391 . S
C1231 C1230 1.386 . S
C1231 C1235 1.393 . S
C1232 H1221 0.950 . S
C1232 C1230 1.391 . S
C1232 C1233 1.400 . S
C1233 C1227 1.491 . S
C1233 C1232 1.400 . S
C1233 C1234 1.398 . S
C1234 H1222 0.950 . S
C1234 C1233 1.398 . S
C1234 C1235 1.391 . S
C1235 H1223 0.950 . S
C1235 C1231 1.393 . S
C1235 C1234 1.391 . S
H1236 C1244 0.950 . S
H1237 C1249 0.950 . S
H1238 C1246 0.950 . S
H1239 C1248 0.950 . S
H1240 C1250 0.950 . S
H1241 C1252 0.950 . S
H1242 C1254 0.950 . S
H1243 C1255 0.950 . S
C1244 H1236 0.950 . S
C1244 C1245 1.386 . S
C1244 C1246 1.391 . S
C1245 C1244 1.386 . S
C1245 C1249 1.393 . S
C1246 H1238 0.950 . S
C1246 C1244 1.391 . S
C1246 C1247 1.400 . S
C1247 C1246 1.400 . S
C1247 C1248 1.398 . S
C1247 C1253 1.491 . S
C1248 H1239 0.950 . S
C1248 C1247 1.398 . S
C1248 C1249 1.391 . S
C1249 H1237 0.950 . S
C1249 C1245 1.393 . S
C1249 C1248 1.391 . S
C1250 H1240 0.950 . S
C1250 C1251 1.386 . S
C1250 C1252 1.391 . S
C1251 C1250 1.386 . S
C1251 C1255 1.393 . S
C1252 H1241 0.950 . S
C1252 C1250 1.391 . S
C1252 C1253 1.400 . S
C1253 C1247 1.491 . S
C1253 C1252 1.400 . S
C1253 C1254 1.398 . S
C1254 H1242 0.950 . S
C1254 C1253 1.398 . S
C1254 C1255 1.391 . S
C1255 H1243 0.950 . S
C1255 C1251 1.393 . S
C1255 C1254 1.391 . S
H1256 C1264 0.950 . S
H1257 C1269 0.950 . S
H1258 C1266 0.950 . S
H1259 C1268 0.950 . S
H1260 C1270 0.950 . S
H1261 C1272 0.950 . S
H1262 C1274 0.950 . S
H1263 C1275 0.950 . S
C1264 H1256 0.950 . S
C1264 C1265 1.386 . S
C1264 C1266 1.391 . S
C1265 C1264 1.386 . S
C1265 C1269 1.393 . S
C1266 H1258 0.950 . S
C1266 C1264 1.391 . S
C1266 C1267 1.400 . S
C1267 C1266 1.400 . S
C1267 C1268 1.398 . S
C1267 C1273 1.491 . S
C1268 H1259 0.950 . S
C1268 C1267 1.398 . S
C1268 C1269 1.391 . S
C1269 H1257 0.950 . S
C1269 C1265 1.393 . S
C1269 C1268 1.391 . S
C1270 H1260 0.950 . S
C1270 C1271 1.386 . S
C1270 C1272 1.391 . S
C1271 C1270 1.386 . S
C1271 C1275 1.393 . S
C1272 H1261 0.950 . S
C1272 C1270 1.391 . S
C1272 C1273 1.400 . S
C1273 C1267 1.491 . S
C1273 C1272 1.400 . S
C1273 C1274 1.398 . S
C1274 H1262 0.950 . S
C1274 C1273 1.398 . S
C1274 C1275 1.391 . S
C1275 H1263 0.950 . S
C1275 C1271 1.393 . S
C1275 C1274 1.391 . S
H1276 C1284 0.950 . S
H1277 C1289 0.950 . S
H1278 C1286 0.950 . S
H1279 C1288 0.950 . S
H1280 C1290 0.950 . S
H1281 C1292 0.950 . S
H1282 C1294 0.950 . S
H1283 C1295 0.950 . S
C1284 H1276 0.950 . S
C1284 C1285 1.386 . S
C1284 C1286 1.391 . S
C1285 C1284 1.386 . S
C1285 C1289 1.393 . S
C1286 H1278 0.950 . S
C1286 C1284 1.391 . S
C1286 C1287 1.400 . S
C1287 C1286 1.400 . S
C1287 C1288 1.398 . S
C1287 C1293 1.491 . S
C1288 H1279 0.950 . S
C1288 C1287 1.398 . S
C1288 C1289 1.391 . S
C1289 H1277 0.950 . S
C1289 C1285 1.393 . S
C1289 C1288 1.391 . S
C1290 H1280 0.950 . S
C1290 C1291 1.386 . S
C1290 C1292 1.391 . S
C1291 C1290 1.386 . S
C1291 C1295 1.393 . S
C1292 H1281 0.950 . S
C1292 C1290 1.391 . S
C1292 C1293 1.400 . S
C1293 C1287 1.491 . S
C1293 C1292 1.400 . S
C1293 C1294 1.398 . S
C1294 H1282 0.950 . S
C1294 C1293 1.398 . S
C1294 C1295 1.391 . S
C1295 H1283 0.950 . S
C1295 C1291 1.393 . S
C1295 C1294 1.391 . S
H1296 C1304 0.950 . S
H1297 C1309 0.950 . S
H1298 C1306 0.950 . S
H1299 C1308 0.950 . S
H1300 C1310 0.950 . S
H1301 C1312 0.950 . S
H1302 C1314 0.950 . S
H1303 C1315 0.950 . S
C1304 H1296 0.950 . S
C1304 C1305 1.386 . S
C1304 C1306 1.391 . S
C1305 C1304 1.386 . S
C1305 C1309 1.393 . S
C1306 H1298 0.950 . S
C1306 C1304 1.391 . S
C1306 C1307 1.400 . S
C1307 C1306 1.400 . S
C1307 C1308 1.398 . S
C1307 C1313 1.491 . S
C1308 H1299 0.950 . S
C1308 C1307 1.398 . S
C1308 C1309 1.391 . S
C1309 H1297 0.950 . S
C1309 C1305 1.393 . S
C1309 C1308 1.391 . S
C1310 H1300 0.950 . S
C1310 C1311 1.386 . S
C1310 C1312 1.391 . S
C1311 C1310 1.386 . S
C1311 C1315 1.393 . S
C1312 H1301 0.950 . S
C1312 C1310 1.391 . S
C1312 C1313 1.400 . S
C1313 C1307 1.491 . S
C1313 C1312 1.400 . S
C1313 C1314 1.398 . S
C1314 H1302 0.950 . S
C1314 C1313 1.398 . S
C1314 C1315 1.391 . S
C1315 H1303 0.950 . S
C1315 C1311 1.393 . S
C1315 C1314 1.391 . S
H1316 C1324 0.950 . S
H1317 C1329 0.950 . S
H1318 C1326 0.950 . S
H1319 C1328 0.950 . S
H1320 C1330 0.950 . S
H1321 C1332 0.950 . S
H1322 C1334 0.950 . S
H1323 C1335 0.950 . S
C1324 H1316 0.950 . S
C1324 C1325 1.386 . S
C1324 C1326 1.391 . S
C1325 C1324 1.386 . S
C1325 C1329 1.393 . S
C1326 H1318 0.950 . S
C1326 C1324 1.391 . S
C1326 C1327 1.400 . S
C1327 C1326 1.400 . S
C1327 C1328 1.398 . S
C1327 C1333 1.491 . S
C1328 H1319 0.950 . S
C1328 C1327 1.398 . S
C1328 C1329 1.391 . S
C1329 H1317 0.950 . S
C1329 C1325 1.393 . S
C1329 C1328 1.391 . S
C1330 H1320 0.950 . S
C1330 C1331 1.386 . S
C1330 C1332 1.391 . S
C1331 C1330 1.386 . S
C1331 C1335 1.393 . S
C1332 H1321 0.950 . S
C1332 C1330 1.391 . S
C1332 C1333 1.400 . S
C1333 C1327 1.491 . S
C1333 C1332 1.400 . S
C1333 C1334 1.398 . S
C1334 H1322 0.950 . S
C1334 C1333 1.398 . S
C1334 C1335 1.391 . S
C1335 H1323 0.950 . S
C1335 C1331 1.393 . S
C1335 C1334 1.391 . S
H1336 C1344 0.950 . S
H1337 C1349 0.950 . S
H1338 C1346 0.950 . S
H1339 C1348 0.950 . S
H1340 C1350 0.950 . S
H1341 C1352 0.950 . S
H1342 C1354 0.950 . S
H1343 C1355 0.950 . S
C1344 H1336 0.950 . S
C1344 C1345 1.386 . S
C1344 C1346 1.391 . S
C1345 C1344 1.386 . S
C1345 C1349 1.393 . S
C1346 H1338 0.950 . S
C1346 C1344 1.391 . S
C1346 C1347 1.400 . S
C1347 C1346 1.400 . S
C1347 C1348 1.398 . S
C1347 C1353 1.491 . S
C1348 H1339 0.950 . S
C1348 C1347 1.398 . S
C1348 C1349 1.391 . S
C1349 H1337 0.950 . S
C1349 C1345 1.393 . S
C1349 C1348 1.391 . S
C1350 H1340 0.950 . S
C1350 C1351 1.386 . S
C1350 C1352 1.391 . S
C1351 C1350 1.386 . S
C1351 C1355 1.393 . S
C1352 H1341 0.950 . S
C1352 C1350 1.391 . S
C1352 C1353 1.400 . S
C1353 C1347 1.491 . S
C1353 C1352 1.400 . S
C1353 C1354 1.398 . S
C1354 H1342 0.950 . S
C1354 C1353 1.398 . S
C1354 C1355 1.391 . S
C1355 H1343 0.950 . S
C1355 C1351 1.393 . S
C1355 C1354 1.391 . S
H1356 C1364 0.950 . S
H1357 C1369 0.950 . S
H1358 C1366 0.950 . S
H1359 C1368 0.950 . S
H1360 C1370 0.950 . S
H1361 C1372 0.950 . S
H1362 C1374 0.950 . S
H1363 C1375 0.950 . S
C1364 H1356 0.950 . S
C1364 C1365 1.386 . S
C1364 C1366 1.391 . S
C1365 C1364 1.386 . S
C1365 C1369 1.393 . S
C1366 H1358 0.950 . S
C1366 C1364 1.391 . S
C1366 C1367 1.400 . S
C1367 C1366 1.400 . S
C1367 C1368 1.398 . S
C1367 C1373 1.491 . S
C1368 H1359 0.950 . S
C1368 C1367 1.398 . S
C1368 C1369 1.391 . S
C1369 H1357 0.950 . S
C1369 C1365 1.393 . S
C1369 C1368 1.391 . S
C1370 H1360 0.950 . S
C1370 C1371 1.386 . S
C1370 C1372 1.391 . S
C1371 C1370 1.386 . S
C1371 C1375 1.393 . S
C1372 H1361 0.950 . S
C1372 C1370 1.391 . S
C1372 C1373 1.400 . S
C1373 C1367 1.491 . S
C1373 C1372 1.400 . S
C1373 C1374 1.398 . S
C1374 H1362 0.950 . S
C1374 C1373 1.398 . S
C1374 C1375 1.391 . S
C1375 H1363 0.950 . S
C1375 C1371 1.393 . S
C1375 C1374 1.391 . S
H1376 C1384 0.950 . S
H1377 C1389 0.950 . S
H1378 C1386 0.950 . S
H1379 C1388 0.950 . S
H1380 C1390 0.950 . S
H1381 C1392 0.950 . S
H1382 C1394 0.950 . S
H1383 C1395 0.950 . S
C1384 H1376 0.950 . S
C1384 C1385 1.386 . S
C1384 C1386 1.391 . S
C1385 C1384 1.386 . S
C1385 C1389 1.393 . S
C1386 H1378 0.950 . S
C1386 C1384 1.391 . S
C1386 C1387 1.400 . S
C1387 C1386 1.400 . S
C1387 C1388 1.398 . S
C1387 C1393 1.491 . S
C1388 H1379 0.950 . S
C1388 C1387 1.398 . S
C1388 C1389 1.391 . S
C1389 H1377 0.950 . S
C1389 C1385 1.393 . S
C1389 C1388 1.391 . S
C1390 H1380 0.950 . S
C1390 C1391 1.386 . S
C1390 C1392 1.391 . S
C1391 C1390 1.386 . S
C1391 C1395 1.393 . S
C1392 H1381 0.950 . S
C1392 C1390 1.391 . S
C1392 C1393 1.400 . S
C1393 C1387 1.491 . S
C1393 C1392 1.400 . S
C1393 C1394 1.398 . S
C1394 H1382 0.950 . S
C1394 C1393 1.398 . S
C1394 C1395 1.391 . S
C1395 H1383 0.950 . S
C1395 C1391 1.393 . S
C1395 C1394 1.391 . S
H1396 C1404 0.950 . S
H1397 C1409 0.950 . S
H1398 C1406 0.950 . S
H1399 C1408 0.950 . S
H1400 C1410 0.950 . S
H1401 C1412 0.950 . S
H1402 C1414 0.950 . S
H1403 C1415 0.950 . S
C1404 H1396 0.950 . S
C1404 C1405 1.386 . S
C1404 C1406 1.391 . S
C1405 C1404 1.386 . S
C1405 C1409 1.393 . S
C1406 H1398 0.950 . S
C1406 C1404 1.391 . S
C1406 C1407 1.400 . S
C1407 C1406 1.400 . S
C1407 C1408 1.398 . S
C1407 C1413 1.491 . S
C1408 H1399 0.950 . S
C1408 C1407 1.398 . S
C1408 C1409 1.391 . S
C1409 H1397 0.950 . S
C1409 C1405 1.393 . S
C1409 C1408 1.391 . S
C1410 H1400 0.950 . S
C1410 C1411 1.386 . S
C1410 C1412 1.391 . S
C1411 C1410 1.386 . S
C1411 C1415 1.393 . S
C1412 H1401 0.950 . S
C1412 C1410 1.391 . S
C1412 C1413 1.400 . S
C1413 C1407 1.491 . S
C1413 C1412 1.400 . S
C1413 C1414 1.398 . S
C1414 H1402 0.950 . S
C1414 C1413 1.398 . S
C1414 C1415 1.391 . S
C1415 H1403 0.950 . S
C1415 C1411 1.393 . S
C1415 C1414 1.391 . S
H1416 C1424 0.951 . S
H1417 C1429 0.950 . S
H1418 C1426 0.963 . S
H1419 C1428 0.950 . S
H1420 C1430 0.950 . S
H1421 C1432 0.950 . S
H1422 C1434 0.950 . S
H1423 C1435 0.950 . S
C1424 H1416 0.951 . S
C1424 C1425 1.386 . S
C1424 C1426 1.391 . S
C1425 C1424 1.386 . S
C1425 C1429 1.393 . S
C1426 H1418 0.963 . S
C1426 C1424 1.391 . S
C1426 C1427 1.400 . S
C1427 C1426 1.400 . S
C1427 C1428 1.398 . S
C1427 C1433 1.491 . S
C1428 H1419 0.950 . S
C1428 C1427 1.398 . S
C1428 C1429 1.391 . S
C1429 H1417 0.950 . S
C1429 C1425 1.393 . S
C1429 C1428 1.391 . S
C1430 H1420 0.950 . S
C1430 C1431 1.386 . S
C1430 C1432 1.391 . S
C1431 C1430 1.386 . S
C1431 C1435 1.393 . S
C1432 H1421 0.950 . S
C1432 C1430 1.391 . S
C1432 C1433 1.400 . S
C1433 C1427 1.491 . S
C1433 C1432 1.400 . S
C1433 C1434 1.398 . S
C1434 H1422 0.950 . S
C1434 C1433 1.398 . S
C1434 C1435 1.391 . S
C1435 H1423 0.950 . S
C1435 C1431 1.393 . S
C1435 C1434 1.391 . S
H1436 C1444 0.950 . S
H1437 C1449 0.950 . S
H1438 C1446 0.950 . S
H1439 C1448 0.936 1_556 S
H1440 C1450 0.950 . S
H1441 C1452 0.950 . S
H1442 C1454 0.950 . S
H1443 C1455 0.950 . S
C1444 H1436 0.950 . S
C1444 C1445 1.386 . S
C1444 C1446 1.391 . S
C1445 C1444 1.386 . S
C1445 C1449 1.393 . S
C1446 H1438 0.950 . S
C1446 C1444 1.391 . S
C1446 C1447 1.400 . S
C1447 C1446 1.400 . S
C1447 C1448 1.398 . S
C1447 C1453 1.491 . S
C1448 H1439 0.936 1_554 S
C1448 C1447 1.398 . S
C1448 C1449 1.391 . S
C1449 H1437 0.950 . S
C1449 C1445 1.393 . S
C1449 C1448 1.391 . S
C1450 H1440 0.950 . S
C1450 C1451 1.386 . S
C1450 C1452 1.391 . S
C1451 C1450 1.386 . S
C1451 C1455 1.393 . S
C1452 H1441 0.950 . S
C1452 C1450 1.391 . S
C1452 C1453 1.400 . S
C1453 C1447 1.491 . S
C1453 C1452 1.400 . S
C1453 C1454 1.398 . S
C1454 H1442 0.950 . S
C1454 C1453 1.398 . S
C1454 C1455 1.391 . S
C1455 H1443 0.950 . S
C1455 C1451 1.393 . S
C1455 C1454 1.391 . S
H1456 C1464 0.950 . S
H1457 C1469 0.950 . S
H1458 C1466 0.950 . S
H1459 C1468 0.950 . S
H1460 C1470 0.950 . S
H1461 C1472 0.950 . S
H1462 C1474 0.950 . S
H1463 C1475 0.950 . S
C1464 H1456 0.950 . S
C1464 C1465 1.386 . S
C1464 C1466 1.391 . S
C1465 C1464 1.386 . S
C1465 C1469 1.393 . S
C1466 H1458 0.950 . S
C1466 C1464 1.391 . S
C1466 C1467 1.400 . S
C1467 C1466 1.400 . S
C1467 C1468 1.398 . S
C1467 C1473 1.491 . S
C1468 H1459 0.950 . S
C1468 C1467 1.398 . S
C1468 C1469 1.391 . S
C1469 H1457 0.950 . S
C1469 C1465 1.393 . S
C1469 C1468 1.391 . S
C1470 H1460 0.950 . S
C1470 C1471 1.386 . S
C1470 C1472 1.391 . S
C1471 C1470 1.386 . S
C1471 C1475 1.393 . S
C1472 H1461 0.950 . S
C1472 C1470 1.391 . S
C1472 C1473 1.400 . S
C1473 C1467 1.491 . S
C1473 C1472 1.400 . S
C1473 C1474 1.398 . S
C1474 H1462 0.950 . S
C1474 C1473 1.398 . S
C1474 C1475 1.391 . S
C1475 H1463 0.950 . S
C1475 C1471 1.393 . S
C1475 C1474 1.391 . S
H1476 C1484 0.950 . S
H1477 C1489 0.950 . S
H1478 C1486 0.950 . S
H1479 C1488 0.950 . S
H1480 C1490 0.950 . S
H1481 C1492 0.950 . S
H1482 C1494 0.950 . S
H1483 C1495 0.950 . S
C1484 H1476 0.950 . S
C1484 C1485 1.386 . S
C1484 C1486 1.391 . S
C1485 C1484 1.386 . S
C1485 C1489 1.393 . S
C1486 H1478 0.950 . S
C1486 C1484 1.391 . S
C1486 C1487 1.400 . S
C1487 C1486 1.400 . S
C1487 C1488 1.398 . S
C1487 C1493 1.491 . S
C1488 H1479 0.950 . S
C1488 C1487 1.398 . S
C1488 C1489 1.391 . S
C1489 H1477 0.950 . S
C1489 C1485 1.393 . S
C1489 C1488 1.391 . S
C1490 H1480 0.950 . S
C1490 C1491 1.386 . S
C1490 C1492 1.391 . S
C1491 C1490 1.386 . S
C1491 C1495 1.393 . S
C1492 H1481 0.950 . S
C1492 C1490 1.391 . S
C1492 C1493 1.400 . S
C1493 C1487 1.491 . S
C1493 C1492 1.400 . S
C1493 C1494 1.398 . S
C1494 H1482 0.950 . S
C1494 C1493 1.398 . S
C1494 C1495 1.391 . S
C1495 H1483 0.950 . S
C1495 C1491 1.393 . S
C1495 C1494 1.391 . S
H1496 C1504 0.950 . S
H1497 C1509 0.950 . S
H1498 C1506 0.950 . S
H1499 C1508 0.950 . S
H1500 C1510 0.950 . S
H1501 C1512 0.950 . S
H1502 C1514 0.950 . S
H1503 C1515 0.950 . S
C1504 H1496 0.950 . S
C1504 C1505 1.386 . S
C1504 C1506 1.391 . S
C1505 C1504 1.386 . S
C1505 C1509 1.393 . S
C1506 H1498 0.950 . S
C1506 C1504 1.391 . S
C1506 C1507 1.400 . S
C1507 C1506 1.400 . S
C1507 C1508 1.398 . S
C1507 C1513 1.491 . S
C1508 H1499 0.950 . S
C1508 C1507 1.398 . S
C1508 C1509 1.391 . S
C1509 H1497 0.950 . S
C1509 C1505 1.393 . S
C1509 C1508 1.391 . S
C1510 H1500 0.950 . S
C1510 C1511 1.386 . S
C1510 C1512 1.391 . S
C1511 C1510 1.386 . S
C1511 C1515 1.393 . S
C1512 H1501 0.950 . S
C1512 C1510 1.391 . S
C1512 C1513 1.400 . S
C1513 C1507 1.491 . S
C1513 C1512 1.400 . S
C1513 C1514 1.398 . S
C1514 H1502 0.950 . S
C1514 C1513 1.398 . S
C1514 C1515 1.391 . S
C1515 H1503 0.950 . S
C1515 C1511 1.393 . S
C1515 C1514 1.391 . S
H1516 C1524 0.950 . S
H1517 C1529 0.950 . S
H1518 C1526 0.950 . S
H1519 C1528 0.950 . S
H1520 C1530 0.950 . S
H1521 C1532 0.950 . S
H1522 C1534 0.950 . S
H1523 C1535 0.950 . S
C1524 H1516 0.950 . S
C1524 C1525 1.386 . S
C1524 C1526 1.391 . S
C1525 C1524 1.386 . S
C1525 C1529 1.393 1_556 S
C1526 H1518 0.950 . S
C1526 C1524 1.391 . S
C1526 C1527 1.400 . S
C1527 C1526 1.400 . S
C1527 C1528 1.398 1_556 S
C1527 C1533 1.491 . S
C1528 H1519 0.950 . S
C1528 C1527 1.398 1_554 S
C1528 C1529 1.391 . S
C1529 H1517 0.950 . S
C1529 C1525 1.393 1_554 S
C1529 C1528 1.391 . S
C1530 H1520 0.950 . S
C1530 C1531 1.386 1_554 S
C1530 C1532 1.391 . S
C1531 C1530 1.386 1_556 S
C1531 C1535 1.393 . S
C1532 H1521 0.950 . S
C1532 C1530 1.391 . S
C1532 C1533 1.400 1_554 S
C1533 C1527 1.491 . S
C1533 C1532 1.400 1_556 S
C1533 C1534 1.398 . S
C1534 H1522 0.950 . S
C1534 C1533 1.398 . S
C1534 C1535 1.391 . S
C1535 H1523 0.950 . S
C1535 C1531 1.393 . S
C1535 C1534 1.391 . S
H1536 C1544 0.950 . S
H1537 C1549 0.950 . S
H1538 C1546 0.950 . S
H1539 C1548 0.950 . S
H1540 C1550 0.950 . S
H1541 C1552 0.950 . S
H1542 C1554 0.950 . S
H1543 C1555 0.950 . S
C1544 H1536 0.950 . S
C1544 C1545 1.386 . S
C1544 C1546 1.391 . S
C1545 C1544 1.386 . S
C1545 C1549 1.393 . S
C1546 H1538 0.950 . S
C1546 C1544 1.391 . S
C1546 C1547 1.400 . S
C1547 C1546 1.400 . S
C1547 C1548 1.398 . S
C1547 C1553 1.491 . S
C1548 H1539 0.950 . S
C1548 C1547 1.398 . S
C1548 C1549 1.391 . S
C1549 H1537 0.950 . S
C1549 C1545 1.393 . S
C1549 C1548 1.391 . S
C1550 H1540 0.950 . S
C1550 C1551 1.386 . S
C1550 C1552 1.391 . S
C1551 C1550 1.386 . S
C1551 C1555 1.393 . S
C1552 H1541 0.950 . S
C1552 C1550 1.391 . S
C1552 C1553 1.400 . S
C1553 C1547 1.491 . S
C1553 C1552 1.400 . S
C1553 C1554 1.398 . S
C1554 H1542 0.950 . S
C1554 C1553 1.398 . S
C1554 C1555 1.391 . S
C1555 H1543 0.950 . S
C1555 C1551 1.393 . S
C1555 C1554 1.391 . S
H1556 C1564 0.950 . S
H1557 C1569 0.950 . S
H1558 C1566 0.950 . S
H1559 C1568 0.950 . S
H1560 C1570 0.950 . S
H1561 C1572 0.950 . S
H1562 C1574 0.950 . S
H1563 C1575 0.950 . S
C1564 H1556 0.950 . S
C1564 C1565 1.386 . S
C1564 C1566 1.391 . S
C1565 C1564 1.386 . S
C1565 C1569 1.393 . S
C1566 H1558 0.950 . S
C1566 C1564 1.391 . S
C1566 C1567 1.400 . S
C1567 C1566 1.400 . S
C1567 C1568 1.398 . S
C1567 C1573 1.491 . S
C1568 H1559 0.950 . S
C1568 C1567 1.398 . S
C1568 C1569 1.391 . S
C1569 H1557 0.950 . S
C1569 C1565 1.393 . S
C1569 C1568 1.391 . S
C1570 H1560 0.950 . S
C1570 C1571 1.386 . S
C1570 C1572 1.391 . S
C1571 C1570 1.386 . S
C1571 C1575 1.393 . S
C1572 H1561 0.950 . S
C1572 C1570 1.391 . S
C1572 C1573 1.400 . S
C1573 C1567 1.491 . S
C1573 C1572 1.400 . S
C1573 C1574 1.398 . S
C1574 H1562 0.950 . S
C1574 C1573 1.398 . S
C1574 C1575 1.391 . S
C1575 H1563 0.950 . S
C1575 C1571 1.393 . S
C1575 C1574 1.391 . S
H1576 C1584 0.950 . S
H1577 C1589 0.950 . S
H1578 C1586 0.950 . S
H1579 C1588 0.950 . S
H1580 C1590 0.950 . S
H1581 C1592 0.950 . S
H1582 C1594 0.950 . S
H1583 C1595 0.950 . S
C1584 H1576 0.950 . S
C1584 C1585 1.386 . S
C1584 C1586 1.391 . S
C1585 C1584 1.386 . S
C1585 C1589 1.393 . S
C1586 H1578 0.950 . S
C1586 C1584 1.391 . S
C1586 C1587 1.400 . S
C1587 C1586 1.400 . S
C1587 C1588 1.398 . S
C1587 C1593 1.491 . S
C1588 H1579 0.950 . S
C1588 C1587 1.398 . S
C1588 C1589 1.391 . S
C1589 H1577 0.950 . S
C1589 C1585 1.393 . S
C1589 C1588 1.391 . S
C1590 H1580 0.950 . S
C1590 C1591 1.386 . S
C1590 C1592 1.391 . S
C1591 C1590 1.386 . S
C1591 C1595 1.393 . S
C1592 H1581 0.950 . S
C1592 C1590 1.391 . S
C1592 C1593 1.400 . S
C1593 C1587 1.491 . S
C1593 C1592 1.400 . S
C1593 C1594 1.398 . S
C1594 H1582 0.950 . S
C1594 C1593 1.398 . S
C1594 C1595 1.391 . S
C1595 H1583 0.950 . S
C1595 C1591 1.393 . S
C1595 C1594 1.391 . S
H1596 C1604 0.950 . S
H1597 C1609 0.950 . S
H1598 C1606 0.950 . S
H1599 C1608 0.950 . S
H1600 C1610 0.950 . S
H1601 C1612 0.950 . S
H1602 C1614 0.950 . S
H1603 C1615 0.950 . S
C1604 H1596 0.950 . S
C1604 C1605 1.386 . S
C1604 C1606 1.391 . S
C1605 C1604 1.386 . S
C1605 C1609 1.393 . S
C1606 H1598 0.950 . S
C1606 C1604 1.391 . S
C1606 C1607 1.400 . S
C1607 C1606 1.400 . S
C1607 C1608 1.398 . S
C1607 C1613 1.491 . S
C1608 H1599 0.950 . S
C1608 C1607 1.398 . S
C1608 C1609 1.391 . S
C1609 H1597 0.950 . S
C1609 C1605 1.393 . S
C1609 C1608 1.391 . S
C1610 H1600 0.950 . S
C1610 C1611 1.386 . S
C1610 C1612 1.391 . S
C1611 C1610 1.386 . S
C1611 C1615 1.393 . S
C1612 H1601 0.950 . S
C1612 C1610 1.391 . S
C1612 C1613 1.400 . S
C1613 C1607 1.491 . S
C1613 C1612 1.400 . S
C1613 C1614 1.398 . S
C1614 H1602 0.950 . S
C1614 C1613 1.398 . S
C1614 C1615 1.391 . S
C1615 H1603 0.950 . S
C1615 C1611 1.393 . S
C1615 C1614 1.391 . S
H1616 C1624 0.950 . S
H1617 C1629 0.950 . S
H1618 C1626 0.950 . S
H1619 C1628 0.950 . S
H1620 C1630 0.950 . S
H1621 C1632 0.950 . S
H1622 C1634 0.950 . S
H1623 C1635 0.950 . S
C1624 H1616 0.950 . S
C1624 C1625 1.386 . S
C1624 C1626 1.391 . S
C1625 C1624 1.386 . S
C1625 C1629 1.393 . S
C1626 H1618 0.950 . S
C1626 C1624 1.391 . S
C1626 C1627 1.400 . S
C1627 C1626 1.400 . S
C1627 C1628 1.398 . S
C1627 C1633 1.491 . S
C1628 H1619 0.950 . S
C1628 C1627 1.398 . S
C1628 C1629 1.391 . S
C1629 H1617 0.950 . S
C1629 C1625 1.393 . S
C1629 C1628 1.391 . S
C1630 H1620 0.950 . S
C1630 C1631 1.386 . S
C1630 C1632 1.391 . S
C1631 C1630 1.386 . S
C1631 C1635 1.393 . S
C1632 H1621 0.950 . S
C1632 C1630 1.391 . S
C1632 C1633 1.400 . S
C1633 C1627 1.491 . S
C1633 C1632 1.400 . S
C1633 C1634 1.398 . S
C1634 H1622 0.950 . S
C1634 C1633 1.398 . S
C1634 C1635 1.391 . S
C1635 H1623 0.950 . S
C1635 C1631 1.393 . S
C1635 C1634 1.391 . S
H1636 C1644 0.950 . S
H1637 C1649 0.950 . S
H1638 C1646 0.950 . S
H1639 C1648 0.950 . S
H1640 C1650 0.950 . S
H1641 C1652 0.950 . S
H1642 C1654 0.950 . S
H1643 C1655 0.950 . S
C1644 H1636 0.950 . S
C1644 C1645 1.386 . S
C1644 C1646 1.391 . S
C1645 C1644 1.386 . S
C1645 C1649 1.393 . S
C1646 H1638 0.950 . S
C1646 C1644 1.391 . S
C1646 C1647 1.400 . S
C1647 C1646 1.400 . S
C1647 C1648 1.398 . S
C1647 C1653 1.491 . S
C1648 H1639 0.950 . S
C1648 C1647 1.398 . S
C1648 C1649 1.391 . S
C1649 H1637 0.950 . S
C1649 C1645 1.393 . S
C1649 C1648 1.391 . S
C1650 H1640 0.950 . S
C1650 C1651 1.386 . S
C1650 C1652 1.391 . S
C1651 C1650 1.386 . S
C1651 C1655 1.393 . S
C1652 H1641 0.950 . S
C1652 C1650 1.391 . S
C1652 C1653 1.400 . S
C1653 C1647 1.491 . S
C1653 C1652 1.400 . S
C1653 C1654 1.398 . S
C1654 H1642 0.950 . S
C1654 C1653 1.398 . S
C1654 C1655 1.391 . S
C1655 H1643 0.950 . S
C1655 C1651 1.393 . S
C1655 C1654 1.391 . S
H1656 C1664 0.950 . S
H1657 C1669 0.950 . S
H1658 C1666 0.950 . S
H1659 C1668 0.950 . S
H1660 C1670 0.950 . S
H1661 C1672 0.950 . S
H1662 C1674 0.950 . S
H1663 C1675 0.950 . S
C1664 H1656 0.950 . S
C1664 C1665 1.386 . S
C1664 C1666 1.391 . S
C1665 C1664 1.386 . S
C1665 C1669 1.393 . S
C1666 H1658 0.950 . S
C1666 C1664 1.391 . S
C1666 C1667 1.400 . S
C1667 C1666 1.400 . S
C1667 C1668 1.398 . S
C1667 C1673 1.491 . S
C1668 H1659 0.950 . S
C1668 C1667 1.398 . S
C1668 C1669 1.391 . S
C1669 H1657 0.950 . S
C1669 C1665 1.393 . S
C1669 C1668 1.391 . S
C1670 H1660 0.950 . S
C1670 C1671 1.386 . S
C1670 C1672 1.391 . S
C1671 C1670 1.386 . S
C1671 C1675 1.393 . S
C1672 H1661 0.950 . S
C1672 C1670 1.391 . S
C1672 C1673 1.400 . S
C1673 C1667 1.491 . S
C1673 C1672 1.400 . S
C1673 C1674 1.398 . S
C1674 H1662 0.950 . S
C1674 C1673 1.398 . S
C1674 C1675 1.391 . S
C1675 H1663 0.950 . S
C1675 C1671 1.393 . S
C1675 C1674 1.391 . S
H1676 C1684 0.950 . S
H1677 C1689 0.950 . S
H1678 C1686 0.950 . S
H1679 C1688 0.950 . S
H1680 C1690 0.950 . S
H1681 C1692 0.950 . S
H1682 C1694 0.950 . S
H1683 C1695 0.950 . S
C1684 H1676 0.950 . S
C1684 C1685 1.386 . S
C1684 C1686 1.391 . S
C1685 C1684 1.386 . S
C1685 C1689 1.393 . S
C1686 H1678 0.950 . S
C1686 C1684 1.391 . S
C1686 C1687 1.400 . S
C1687 C1686 1.400 . S
C1687 C1688 1.398 . S
C1687 C1693 1.491 . S
C1688 H1679 0.950 . S
C1688 C1687 1.398 . S
C1688 C1689 1.391 . S
C1689 H1677 0.950 . S
C1689 C1685 1.393 . S
C1689 C1688 1.391 . S
C1690 H1680 0.950 . S
C1690 C1691 1.386 . S
C1690 C1692 1.391 . S
C1691 C1690 1.386 . S
C1691 C1695 1.393 . S
C1692 H1681 0.950 . S
C1692 C1690 1.391 . S
C1692 C1693 1.400 . S
C1693 C1687 1.491 . S
C1693 C1692 1.400 . S
C1693 C1694 1.398 . S
C1694 H1682 0.950 . S
C1694 C1693 1.398 . S
C1694 C1695 1.391 . S
C1695 H1683 0.950 . S
C1695 C1691 1.393 . S
C1695 C1694 1.391 . S
H1696 C1704 0.950 . S
H1697 C1709 0.950 . S
H1698 C1706 0.950 . S
H1699 C1708 0.950 . S
H1700 C1710 0.950 . S
H1701 C1712 0.950 . S
H1702 C1714 0.950 . S
H1703 C1715 0.950 . S
C1704 H1696 0.950 . S
C1704 C1705 1.386 . S
C1704 C1706 1.391 . S
C1705 C1704 1.386 . S
C1705 C1709 1.393 . S
C1706 H1698 0.950 . S
C1706 C1704 1.391 . S
C1706 C1707 1.400 . S
C1707 C1706 1.400 . S
C1707 C1708 1.398 . S
C1707 C1713 1.491 . S
C1708 H1699 0.950 . S
C1708 C1707 1.398 . S
C1708 C1709 1.391 . S
C1709 H1697 0.950 . S
C1709 C1705 1.393 . S
C1709 C1708 1.391 . S
C1710 H1700 0.950 . S
C1710 C1711 1.386 . S
C1710 C1712 1.391 . S
C1711 C1710 1.386 . S
C1711 C1715 1.393 . S
C1712 H1701 0.950 . S
C1712 C1710 1.391 . S
C1712 C1713 1.400 . S
C1713 C1707 1.491 . S
C1713 C1712 1.400 . S
C1713 C1714 1.398 . S
C1714 H1702 0.950 . S
C1714 C1713 1.398 . S
C1714 C1715 1.391 . S
C1715 H1703 0.950 . S
C1715 C1711 1.393 . S
C1715 C1714 1.391 . S
H1716 C1724 0.950 . S
H1717 C1729 0.950 . S
H1718 C1726 0.950 . S
H1719 C1728 0.950 . S
H1720 C1730 0.950 . S
H1721 C1732 0.950 . S
H1722 C1734 0.950 . S
H1723 C1735 0.950 . S
C1724 H1716 0.950 . S
C1724 C1725 1.386 . S
C1724 C1726 1.391 . S
C1725 C1724 1.386 . S
C1725 C1729 1.393 . S
C1726 H1718 0.950 . S
C1726 C1724 1.391 . S
C1726 C1727 1.400 . S
C1727 C1726 1.400 . S
C1727 C1728 1.398 . S
C1727 C1733 1.491 . S
C1728 H1719 0.950 . S
C1728 C1727 1.398 . S
C1728 C1729 1.391 . S
C1729 H1717 0.950 . S
C1729 C1725 1.393 . S
C1729 C1728 1.391 . S
C1730 H1720 0.950 . S
C1730 C1731 1.386 . S
C1730 C1732 1.391 . S
C1731 C1730 1.386 . S
C1731 C1735 1.393 . S
C1732 H1721 0.950 . S
C1732 C1730 1.391 . S
C1732 C1733 1.400 . S
C1733 C1727 1.491 . S
C1733 C1732 1.400 . S
C1733 C1734 1.398 . S
C1734 H1722 0.950 . S
C1734 C1733 1.398 . S
C1734 C1735 1.391 . S
C1735 H1723 0.950 . S
C1735 C1731 1.393 . S
C1735 C1734 1.391 . S
H1736 C1744 0.950 . S
H1737 C1749 0.950 . S
H1738 C1746 0.950 . S
H1739 C1748 0.950 . S
H1740 C1750 0.950 . S
H1741 C1752 0.950 . S
H1742 C1754 0.950 . S
H1743 C1755 0.950 . S
C1744 H1736 0.950 . S
C1744 C1745 1.386 . S
C1744 C1746 1.391 . S
C1745 C1744 1.386 . S
C1745 C1749 1.393 . S
C1746 H1738 0.950 . S
C1746 C1744 1.391 . S
C1746 C1747 1.400 . S
C1747 C1746 1.400 . S
C1747 C1748 1.398 . S
C1747 C1753 1.491 . S
C1748 H1739 0.950 . S
C1748 C1747 1.398 . S
C1748 C1749 1.391 . S
C1749 H1737 0.950 . S
C1749 C1745 1.393 . S
C1749 C1748 1.391 . S
C1750 H1740 0.950 . S
C1750 C1751 1.386 . S
C1750 C1752 1.391 . S
C1751 C1750 1.386 . S
C1751 C1755 1.393 . S
C1752 H1741 0.950 . S
C1752 C1750 1.391 . S
C1752 C1753 1.400 . S
C1753 C1747 1.491 . S
C1753 C1752 1.400 . S
C1753 C1754 1.398 . S
C1754 H1742 0.950 . S
C1754 C1753 1.398 . S
C1754 C1755 1.391 . S
C1755 H1743 0.950 . S
C1755 C1751 1.393 . S
C1755 C1754 1.391 . S
H1756 C1764 0.950 . S
H1757 C1769 0.950 . S
H1758 C1766 0.950 . S
H1759 C1768 0.950 . S
H1760 C1770 0.950 . S
H1761 C1772 0.950 . S
H1762 C1774 0.950 . S
H1763 C1775 0.950 . S
C1764 H1756 0.950 . S
C1764 C1765 1.386 . S
C1764 C1766 1.391 . S
C1765 C1764 1.386 . S
C1765 C1769 1.393 . S
C1766 H1758 0.950 . S
C1766 C1764 1.391 . S
C1766 C1767 1.400 . S
C1767 C1766 1.400 . S
C1767 C1768 1.398 . S
C1767 C1773 1.491 . S
C1768 H1759 0.950 . S
C1768 C1767 1.398 . S
C1768 C1769 1.391 . S
C1769 H1757 0.950 . S
C1769 C1765 1.393 . S
C1769 C1768 1.391 . S
C1770 H1760 0.950 . S
C1770 C1771 1.386 . S
C1770 C1772 1.391 . S
C1771 C1770 1.386 . S
C1771 C1775 1.393 . S
C1772 H1761 0.950 . S
C1772 C1770 1.391 . S
C1772 C1773 1.400 . S
C1773 C1767 1.491 . S
C1773 C1772 1.400 . S
C1773 C1774 1.398 . S
C1774 H1762 0.950 . S
C1774 C1773 1.398 . S
C1774 C1775 1.391 . S
C1775 H1763 0.950 . S
C1775 C1771 1.393 . S
C1775 C1774 1.391 . S
H1776 C1784 0.950 . S
H1777 C1789 0.950 . S
H1778 C1786 0.950 . S
H1779 C1788 0.950 . S
H1780 C1790 0.950 . S
H1781 C1792 0.950 . S
H1782 C1794 0.950 . S
H1783 C1795 0.950 . S
C1784 H1776 0.950 . S
C1784 C1785 1.386 . S
C1784 C1786 1.391 . S
C1785 C1784 1.386 . S
C1785 C1789 1.393 . S
C1786 H1778 0.950 . S
C1786 C1784 1.391 . S
C1786 C1787 1.400 . S
C1787 C1786 1.400 . S
C1787 C1788 1.398 . S
C1787 C1793 1.491 . S
C1788 H1779 0.950 . S
C1788 C1787 1.398 . S
C1788 C1789 1.391 . S
C1789 H1777 0.950 . S
C1789 C1785 1.393 . S
C1789 C1788 1.391 . S
C1790 H1780 0.950 . S
C1790 C1791 1.386 . S
C1790 C1792 1.391 . S
C1791 C1790 1.386 . S
C1791 C1795 1.393 . S
C1792 H1781 0.950 . S
C1792 C1790 1.391 . S
C1792 C1793 1.400 . S
C1793 C1787 1.491 . S
C1793 C1792 1.400 . S
C1793 C1794 1.398 . S
C1794 H1782 0.950 . S
C1794 C1793 1.398 . S
C1794 C1795 1.391 . S
C1795 H1783 0.950 . S
C1795 C1791 1.393 . S
C1795 C1794 1.391 . S
H1796 C1804 0.950 . S
H1797 C1809 0.950 . S
H1798 C1806 0.950 . S
H1799 C1808 0.950 . S
H1800 C1810 0.950 . S
H1801 C1812 0.950 . S
H1802 C1814 0.950 . S
H1803 C1815 0.950 . S
C1804 H1796 0.950 . S
C1804 C1805 1.386 . S
C1804 C1806 1.391 . S
C1805 C1804 1.386 . S
C1805 C1809 1.393 . S
C1806 H1798 0.950 . S
C1806 C1804 1.391 . S
C1806 C1807 1.400 . S
C1807 C1806 1.400 . S
C1807 C1808 1.398 . S
C1807 C1813 1.491 . S
C1808 H1799 0.950 . S
C1808 C1807 1.398 . S
C1808 C1809 1.391 . S
C1809 H1797 0.950 . S
C1809 C1805 1.393 . S
C1809 C1808 1.391 . S
C1810 H1800 0.950 . S
C1810 C1811 1.386 . S
C1810 C1812 1.391 . S
C1811 C1810 1.386 . S
C1811 C1815 1.393 . S
C1812 H1801 0.950 . S
C1812 C1810 1.391 . S
C1812 C1813 1.400 . S
C1813 C1807 1.491 . S
C1813 C1812 1.400 . S
C1813 C1814 1.398 . S
C1814 H1802 0.950 . S
C1814 C1813 1.398 . S
C1814 C1815 1.391 . S
C1815 H1803 0.950 . S
C1815 C1811 1.393 . S
C1815 C1814 1.391 . S
H1816 C1824 0.950 . S
H1817 C1829 0.950 . S
H1818 C1826 0.950 . S
H1819 C1828 0.950 . S
H1820 C1830 0.950 . S
H1821 C1832 0.950 . S
H1822 C1834 0.950 . S
H1823 C1835 0.950 . S
C1824 H1816 0.950 . S
C1824 C1825 1.386 . S
C1824 C1826 1.391 . S
C1825 C1824 1.386 . S
C1825 C1829 1.393 . S
C1826 H1818 0.950 . S
C1826 C1824 1.391 . S
C1826 C1827 1.400 . S
C1827 C1826 1.400 . S
C1827 C1828 1.398 . S
C1827 C1833 1.491 . S
C1828 H1819 0.950 . S
C1828 C1827 1.398 . S
C1828 C1829 1.391 . S
C1829 H1817 0.950 . S
C1829 C1825 1.393 . S
C1829 C1828 1.391 . S
C1830 H1820 0.950 . S
C1830 C1831 1.386 . S
C1830 C1832 1.391 . S
C1831 C1830 1.386 . S
C1831 C1835 1.393 . S
C1832 H1821 0.950 . S
C1832 C1830 1.391 . S
C1832 C1833 1.400 . S
C1833 C1827 1.491 . S
C1833 C1832 1.400 . S
C1833 C1834 1.398 . S
C1834 H1822 0.950 . S
C1834 C1833 1.398 . S
C1834 C1835 1.391 . S
C1835 H1823 0.950 . S
C1835 C1831 1.393 . S
C1835 C1834 1.391 . S
H1836 C1844 0.950 . S
H1837 C1849 0.950 . S
H1838 C1846 0.950 . S
H1839 C1848 0.950 . S
H1840 C1850 0.950 . S
H1841 C1852 0.950 . S
H1842 C1854 0.950 . S
H1843 C1855 0.950 . S
C1844 H1836 0.950 . S
C1844 C1845 1.386 . S
C1844 C1846 1.391 . S
C1845 C1844 1.386 . S
C1845 C1849 1.393 . S
C1846 H1838 0.950 . S
C1846 C1844 1.391 . S
C1846 C1847 1.400 . S
C1847 C1846 1.400 . S
C1847 C1848 1.398 . S
C1847 C1853 1.491 . S
C1848 H1839 0.950 . S
C1848 C1847 1.398 . S
C1848 C1849 1.391 . S
C1849 H1837 0.950 . S
C1849 C1845 1.393 . S
C1849 C1848 1.391 . S
C1850 H1840 0.950 . S
C1850 C1851 1.386 . S
C1850 C1852 1.391 . S
C1851 C1850 1.386 . S
C1851 C1855 1.393 . S
C1852 H1841 0.950 . S
C1852 C1850 1.391 . S
C1852 C1853 1.400 . S
C1853 C1847 1.491 . S
C1853 C1852 1.400 . S
C1853 C1854 1.398 . S
C1854 H1842 0.950 . S
C1854 C1853 1.398 . S
C1854 C1855 1.391 . S
C1855 H1843 0.950 . S
C1855 C1851 1.393 . S
C1855 C1854 1.391 . S
H1856 C1864 0.950 . S
H1857 C1869 0.950 . S
H1858 C1866 0.950 . S
H1859 C1868 0.950 . S
H1860 C1870 0.950 . S
H1861 C1872 0.950 . S
H1862 C1874 0.950 . S
H1863 C1875 0.950 . S
C1864 H1856 0.950 . S
C1864 C1865 1.386 . S
C1864 C1866 1.391 . S
C1865 C1864 1.386 . S
C1865 C1869 1.393 . S
C1866 H1858 0.950 . S
C1866 C1864 1.391 . S
C1866 C1867 1.400 . S
C1867 C1866 1.400 . S
C1867 C1868 1.398 . S
C1867 C1873 1.491 . S
C1868 H1859 0.950 . S
C1868 C1867 1.398 . S
C1868 C1869 1.391 . S
C1869 H1857 0.950 . S
C1869 C1865 1.393 . S
C1869 C1868 1.391 . S
C1870 H1860 0.950 . S
C1870 C1871 1.386 . S
C1870 C1872 1.391 . S
C1871 C1870 1.386 . S
C1871 C1875 1.393 . S
C1872 H1861 0.950 . S
C1872 C1870 1.391 . S
C1872 C1873 1.400 . S
C1873 C1867 1.491 . S
C1873 C1872 1.400 . S
C1873 C1874 1.398 . S
C1874 H1862 0.950 . S
C1874 C1873 1.398 . S
C1874 C1875 1.391 . S
C1875 H1863 0.950 . S
C1875 C1871 1.393 . S
C1875 C1874 1.391 . S
H1876 C1884 0.950 . S
H1877 C1889 0.950 . S
H1878 C1886 0.950 . S
H1879 C1888 0.950 . S
H1880 C1890 0.950 . S
H1881 C1892 0.950 . S
H1882 C1894 0.950 . S
H1883 C1895 0.950 . S
C1884 H1876 0.950 . S
C1884 C1885 1.386 . S
C1884 C1886 1.391 . S
C1885 C1884 1.386 . S
C1885 C1889 1.393 . S
C1886 H1878 0.950 . S
C1886 C1884 1.391 . S
C1886 C1887 1.400 . S
C1887 C1886 1.400 . S
C1887 C1888 1.398 . S
C1887 C1893 1.491 . S
C1888 H1879 0.950 . S
C1888 C1887 1.398 . S
C1888 C1889 1.391 . S
C1889 H1877 0.950 . S
C1889 C1885 1.393 . S
C1889 C1888 1.391 . S
C1890 H1880 0.950 . S
C1890 C1891 1.386 . S
C1890 C1892 1.391 . S
C1891 C1890 1.386 . S
C1891 C1895 1.393 . S
C1892 H1881 0.950 . S
C1892 C1890 1.391 . S
C1892 C1893 1.400 . S
C1893 C1887 1.491 . S
C1893 C1892 1.400 . S
C1893 C1894 1.398 . S
C1894 H1882 0.950 . S
C1894 C1893 1.398 . S
C1894 C1895 1.391 . S
C1895 H1883 0.950 . S
C1895 C1891 1.393 . S
C1895 C1894 1.391 . S
H1896 C1904 0.950 . S
H1897 C1909 0.950 . S
H1898 C1906 0.950 . S
H1899 C1908 0.950 . S
H1900 C1910 0.950 . S
H1901 C1912 0.950 . S
H1902 C1914 0.950 . S
H1903 C1915 0.950 . S
C1904 H1896 0.950 . S
C1904 C1905 1.386 . S
C1904 C1906 1.391 . S
C1905 C1904 1.386 . S
C1905 C1909 1.393 . S
C1906 H1898 0.950 . S
C1906 C1904 1.391 . S
C1906 C1907 1.400 . S
C1907 C1906 1.400 . S
C1907 C1908 1.398 . S
C1907 C1913 1.491 . S
C1908 H1899 0.950 . S
C1908 C1907 1.398 . S
C1908 C1909 1.391 . S
C1909 H1897 0.950 . S
C1909 C1905 1.393 . S
C1909 C1908 1.391 . S
C1910 H1900 0.950 . S
C1910 C1911 1.386 . S
C1910 C1912 1.391 . S
C1911 C1910 1.386 . S
C1911 C1915 1.393 . S
C1912 H1901 0.950 . S
C1912 C1910 1.391 . S
C1912 C1913 1.400 . S
C1913 C1907 1.491 . S
C1913 C1912 1.400 . S
C1913 C1914 1.398 . S
C1914 H1902 0.950 . S
C1914 C1913 1.398 . S
C1914 C1915 1.391 . S
C1915 H1903 0.950 . S
C1915 C1911 1.393 . S
C1915 C1914 1.391 . S
H1916 C1924 0.950 . S
H1917 C1929 0.950 . S
H1918 C1926 0.950 . S
H1919 C1928 0.950 . S
H1920 C1930 0.950 . S
H1921 C1932 0.950 . S
H1922 C1934 0.950 . S
H1923 C1935 0.950 . S
C1924 H1916 0.950 . S
C1924 C1925 1.386 . S
C1924 C1926 1.391 . S
C1925 C1924 1.386 . S
C1925 C1929 1.393 . S
C1926 H1918 0.950 . S
C1926 C1924 1.391 . S
C1926 C1927 1.400 . S
C1927 C1926 1.400 . S
C1927 C1928 1.398 . S
C1927 C1933 1.491 . S
C1928 H1919 0.950 . S
C1928 C1927 1.398 . S
C1928 C1929 1.391 . S
C1929 H1917 0.950 . S
C1929 C1925 1.393 . S
C1929 C1928 1.391 . S
C1930 H1920 0.950 . S
C1930 C1931 1.386 . S
C1930 C1932 1.391 . S
C1931 C1930 1.386 . S
C1931 C1935 1.393 . S
C1932 H1921 0.950 . S
C1932 C1930 1.391 . S
C1932 C1933 1.400 . S
C1933 C1927 1.491 . S
C1933 C1932 1.400 . S
C1933 C1934 1.398 . S
C1934 H1922 0.950 . S
C1934 C1933 1.398 . S
C1934 C1935 1.391 . S
C1935 H1923 0.950 . S
C1935 C1931 1.393 . S
C1935 C1934 1.391 . S
H1936 C1944 0.950 . S
H1937 C1949 0.950 . S
H1938 C1946 0.950 . S
H1939 C1948 0.950 . S
H1940 C1950 0.950 . S
H1941 C1952 0.950 . S
H1942 C1954 0.950 . S
H1943 C1955 0.950 . S
C1944 H1936 0.950 . S
C1944 C1945 1.386 . S
C1944 C1946 1.391 . S
C1945 C1944 1.386 . S
C1945 C1949 1.393 . S
C1946 H1938 0.950 . S
C1946 C1944 1.391 . S
C1946 C1947 1.400 . S
C1947 C1946 1.400 . S
C1947 C1948 1.398 . S
C1947 C1953 1.491 . S
C1948 H1939 0.950 . S
C1948 C1947 1.398 . S
C1948 C1949 1.391 . S
C1949 H1937 0.950 . S
C1949 C1945 1.393 . S
C1949 C1948 1.391 . S
C1950 H1940 0.950 . S
C1950 C1951 1.386 . S
C1950 C1952 1.391 . S
C1951 C1950 1.386 . S
C1951 C1955 1.393 . S
C1952 H1941 0.950 . S
C1952 C1950 1.391 . S
C1952 C1953 1.400 . S
C1953 C1947 1.491 . S
C1953 C1952 1.400 . S
C1953 C1954 1.398 . S
C1954 H1942 0.950 . S
C1954 C1953 1.398 . S
C1954 C1955 1.391 . S
C1955 H1943 0.950 . S
C1955 C1951 1.393 . S
C1955 C1954 1.391 . S
H1956 C1964 0.950 . S
H1957 C1969 0.950 . S
H1958 C1966 0.950 . S
H1959 C1968 0.950 . S
H1960 C1970 0.950 . S
H1961 C1972 0.950 . S
H1962 C1974 0.950 . S
H1963 C1975 0.950 . S
C1964 H1956 0.950 . S
C1964 C1965 1.386 . S
C1964 C1966 1.391 . S
C1965 C1964 1.386 . S
C1965 C1969 1.393 . S
C1966 H1958 0.950 . S
C1966 C1964 1.391 . S
C1966 C1967 1.400 . S
C1967 C1966 1.400 . S
C1967 C1968 1.398 . S
C1967 C1973 1.491 . S
C1968 H1959 0.950 . S
C1968 C1967 1.398 . S
C1968 C1969 1.391 . S
C1969 H1957 0.950 . S
C1969 C1965 1.393 . S
C1969 C1968 1.391 . S
C1970 H1960 0.950 . S
C1970 C1971 1.386 . S
C1970 C1972 1.391 . S
C1971 C1970 1.386 . S
C1971 C1975 1.393 . S
C1972 H1961 0.950 . S
C1972 C1970 1.391 . S
C1972 C1973 1.400 . S
C1973 C1967 1.491 . S
C1973 C1972 1.400 . S
C1973 C1974 1.398 . S
C1974 H1962 0.950 . S
C1974 C1973 1.398 . S
C1974 C1975 1.391 . S
C1975 H1963 0.950 . S
C1975 C1971 1.393 . S
C1975 C1974 1.391 . S
H1976 C1984 0.950 . S
H1977 C1989 0.950 . S
H1978 C1986 0.950 . S
H1979 C1988 0.950 . S
H1980 C1990 0.950 . S
H1981 C1992 0.950 . S
H1982 C1994 0.950 . S
H1983 C1995 0.950 . S
C1984 H1976 0.950 . S
C1984 C1985 1.386 . S
C1984 C1986 1.391 . S
C1985 C1984 1.386 . S
C1985 C1989 1.393 . S
C1986 H1978 0.950 . S
C1986 C1984 1.391 . S
C1986 C1987 1.400 . S
C1987 C1986 1.400 . S
C1987 C1988 1.398 . S
C1987 C1993 1.491 . S
C1988 H1979 0.950 . S
C1988 C1987 1.398 . S
C1988 C1989 1.391 . S
C1989 H1977 0.950 . S
C1989 C1985 1.393 . S
C1989 C1988 1.391 . S
C1990 H1980 0.950 . S
C1990 C1991 1.386 . S
C1990 C1992 1.391 . S
C1991 C1990 1.386 . S
C1991 C1995 1.393 . S
C1992 H1981 0.950 . S
C1992 C1990 1.391 . S
C1992 C1993 1.400 . S
C1993 C1987 1.491 . S
C1993 C1992 1.400 . S
C1993 C1994 1.398 . S
C1994 H1982 0.950 . S
C1994 C1993 1.398 . S
C1994 C1995 1.391 . S
C1995 H1983 0.950 . S
C1995 C1991 1.393 . S
C1995 C1994 1.391 . S
H1996 C2004 0.950 . S
H1997 C2009 0.950 . S
H1998 C2006 0.950 . S
H1999 C2008 0.950 . S
H2000 C2010 0.950 . S
H2001 C2012 0.950 . S
H2002 C2014 0.950 . S
H2003 C2015 0.950 . S
C2004 H1996 0.950 . S
C2004 C2005 1.386 . S
C2004 C2006 1.391 . S
C2005 C2004 1.386 . S
C2005 C2009 1.393 . S
C2006 H1998 0.950 . S
C2006 C2004 1.391 . S
C2006 C2007 1.400 . S
C2007 C2006 1.400 . S
C2007 C2008 1.398 . S
C2007 C2013 1.491 . S
C2008 H1999 0.950 . S
C2008 C2007 1.398 . S
C2008 C2009 1.391 . S
C2009 H1997 0.950 . S
C2009 C2005 1.393 . S
C2009 C2008 1.391 . S
C2010 H2000 0.950 . S
C2010 C2011 1.386 . S
C2010 C2012 1.391 . S
C2011 C2010 1.386 . S
C2011 C2015 1.393 . S
C2012 H2001 0.950 . S
C2012 C2010 1.391 . S
C2012 C2013 1.400 . S
C2013 C2007 1.491 . S
C2013 C2012 1.400 . S
C2013 C2014 1.398 . S
C2014 H2002 0.950 . S
C2014 C2013 1.398 . S
C2014 C2015 1.391 . S
C2015 H2003 0.950 . S
C2015 C2011 1.393 . S
C2015 C2014 1.391 . S
H2016 C2024 0.950 . S
H2017 C2029 0.950 . S
H2018 C2026 0.950 . S
H2019 C2028 0.950 . S
H2020 C2030 0.950 . S
H2021 C2032 0.950 . S
H2022 C2034 0.950 . S
H2023 C2035 0.950 . S
C2024 H2016 0.950 . S
C2024 C2025 1.386 . S
C2024 C2026 1.391 . S
C2025 C2024 1.386 . S
C2025 C2029 1.393 . S
C2026 H2018 0.950 . S
C2026 C2024 1.391 . S
C2026 C2027 1.400 . S
C2027 C2026 1.400 . S
C2027 C2028 1.398 . S
C2027 C2033 1.491 . S
C2028 H2019 0.950 . S
C2028 C2027 1.398 . S
C2028 C2029 1.391 . S
C2029 H2017 0.950 . S
C2029 C2025 1.393 . S
C2029 C2028 1.391 . S
C2030 H2020 0.950 . S
C2030 C2031 1.386 . S
C2030 C2032 1.391 . S
C2031 C2030 1.386 . S
C2031 C2035 1.393 . S
C2032 H2021 0.950 . S
C2032 C2030 1.391 . S
C2032 C2033 1.400 . S
C2033 C2027 1.491 . S
C2033 C2032 1.400 . S
C2033 C2034 1.398 . S
C2034 H2022 0.950 . S
C2034 C2033 1.398 . S
C2034 C2035 1.391 . S
C2035 H2023 0.950 . S
C2035 C2031 1.393 . S
C2035 C2034 1.391 . S
H2036 C2044 0.950 . S
H2037 C2049 0.950 . S
H2038 C2046 0.950 . S
H2039 C2048 0.950 . S
H2040 C2050 0.950 . S
H2041 C2052 0.950 . S
H2042 C2054 0.950 . S
H2043 C2055 0.950 . S
C2044 H2036 0.950 . S
C2044 C2045 1.386 . S
C2044 C2046 1.391 1_455 S
C2045 C2044 1.386 . S
C2045 C2049 1.393 . S
C2046 H2038 0.950 . S
C2046 C2044 1.391 1_655 S
C2046 C2047 1.400 . S
C2047 C2046 1.400 . S
C2047 C2048 1.398 1_655 S
C2047 C2053 1.491 . S
C2048 H2039 0.950 . S
C2048 C2047 1.398 1_455 S
C2048 C2049 1.391 . S
C2049 H2037 0.950 . S
C2049 C2045 1.393 . S
C2049 C2048 1.391 . S
C2050 H2040 0.950 . S
C2050 C2051 1.386 . S
C2050 C2052 1.391 . S
C2051 C2050 1.386 . S
C2051 C2055 1.393 . S
C2052 H2041 0.950 . S
C2052 C2050 1.391 . S
C2052 C2053 1.400 . S
C2053 C2047 1.491 . S
C2053 C2052 1.400 . S
C2053 C2054 1.398 . S
C2054 H2042 0.950 . S
C2054 C2053 1.398 . S
C2054 C2055 1.391 . S
C2055 H2043 0.950 . S
C2055 C2051 1.393 . S
C2055 C2054 1.391 . S
H2056 C2064 0.950 . S
H2057 C2069 0.950 . S
H2058 C2066 0.950 . S
H2059 C2068 0.950 . S
H2060 C2070 0.950 . S
H2061 C2072 0.950 . S
H2062 C2074 0.950 . S
H2063 C2075 0.950 . S
C2064 H2056 0.950 . S
C2064 C2065 1.386 . S
C2064 C2066 1.391 . S
C2065 C2064 1.386 . S
C2065 C2069 1.393 . S
C2066 H2058 0.950 . S
C2066 C2064 1.391 . S
C2066 C2067 1.400 . S
C2067 C2066 1.400 . S
C2067 C2068 1.398 . S
C2067 C2073 1.491 . S
C2068 H2059 0.950 . S
C2068 C2067 1.398 . S
C2068 C2069 1.391 . S
C2069 H2057 0.950 . S
C2069 C2065 1.393 . S
C2069 C2068 1.391 . S
C2070 H2060 0.950 . S
C2070 C2071 1.386 . S
C2070 C2072 1.391 . S
C2071 C2070 1.386 . S
C2071 C2075 1.393 . S
C2072 H2061 0.950 . S
C2072 C2070 1.391 . S
C2072 C2073 1.400 . S
C2073 C2067 1.491 . S
C2073 C2072 1.400 . S
C2073 C2074 1.398 . S
C2074 H2062 0.950 . S
C2074 C2073 1.398 . S
C2074 C2075 1.391 . S
C2075 H2063 0.950 . S
C2075 C2071 1.393 . S
C2075 C2074 1.391 . S
H2076 C2084 0.950 . S
H2077 C2089 0.953 . S
H2078 C2086 0.950 . S
H2079 C2088 0.950 . S
H2080 C2090 0.950 . S
H2081 C2092 0.950 . S
H2082 C2094 0.967 . S
H2083 C2095 0.950 . S
C2084 H2076 0.950 . S
C2084 C2085 1.386 . S
C2084 C2086 1.391 . S
C2085 C2084 1.386 . S
C2085 C2089 1.384 1_455 S
C2086 H2078 0.950 . S
C2086 C2084 1.391 . S
C2086 C2087 1.400 1_455 S
C2087 C2086 1.400 1_655 S
C2087 C2088 1.398 . S
C2087 C2093 1.491 . S
C2088 H2079 0.950 . S
C2088 C2087 1.398 . S
C2088 C2089 1.396 . S
C2089 H2077 0.953 . S
C2089 C2085 1.384 1_655 S
C2089 C2088 1.396 . S
C2090 H2080 0.950 . S
C2090 C2091 1.386 . S
C2090 C2092 1.391 . S
C2091 C2090 1.386 . S
C2091 C2095 1.393 . S
C2092 H2081 0.950 . S
C2092 C2090 1.391 . S
C2092 C2093 1.400 . S
C2093 C2087 1.491 . S
C2093 C2092 1.400 . S
C2093 C2094 1.398 . S
C2094 H2082 0.967 . S
C2094 C2093 1.398 . S
C2094 C2095 1.391 . S
C2095 H2083 0.950 . S
C2095 C2091 1.393 . S
C2095 C2094 1.391 . S
H2096 C2104 0.950 . S
H2097 C2109 0.950 . S
H2098 C2106 0.950 . S
H2099 C2108 0.950 . S
H2100 C2110 0.950 . S
H2101 C2112 0.950 . S
H2102 C2114 0.950 . S
H2103 C2115 0.950 . S
C2104 H2096 0.950 . S
C2104 C2105 1.386 . S
C2104 C2106 1.391 . S
C2105 C2104 1.386 . S
C2105 C2109 1.393 . S
C2106 H2098 0.950 . S
C2106 C2104 1.391 . S
C2106 C2107 1.400 . S
C2107 C2106 1.400 . S
C2107 C2108 1.398 . S
C2107 C2113 1.491 . S
C2108 H2099 0.950 . S
C2108 C2107 1.398 . S
C2108 C2109 1.391 . S
C2109 H2097 0.950 . S
C2109 C2105 1.393 . S
C2109 C2108 1.391 . S
C2110 H2100 0.950 . S
C2110 C2111 1.386 . S
C2110 C2112 1.391 . S
C2111 C2110 1.386 . S
C2111 C2115 1.393 . S
C2112 H2101 0.950 . S
C2112 C2110 1.391 . S
C2112 C2113 1.400 . S
C2113 C2107 1.491 . S
C2113 C2112 1.400 . S
C2113 C2114 1.398 . S
C2114 H2102 0.950 . S
C2114 C2113 1.398 . S
C2114 C2115 1.391 . S
C2115 H2103 0.950 . S
C2115 C2111 1.393 . S
C2115 C2114 1.391 . S
H2116 C2124 0.950 . S
H2117 C2129 0.950 . S
H2118 C2126 0.950 . S
H2119 C2128 0.950 . S
H2120 C2130 0.950 . S
H2121 C2132 0.967 . S
H2122 C2134 0.957 . S
H2123 C2135 0.950 . S
C2124 H2116 0.950 . S
C2124 C2125 1.386 . S
C2124 C2126 1.391 . S
C2125 C2124 1.386 . S
C2125 C2129 1.393 . S
C2126 H2118 0.950 . S
C2126 C2124 1.391 . S
C2126 C2127 1.400 . S
C2127 C2126 1.400 . S
C2127 C2128 1.398 . S
C2127 C2133 1.491 . S
C2128 H2119 0.950 . S
C2128 C2127 1.398 . S
C2128 C2129 1.391 . S
C2129 H2117 0.950 . S
C2129 C2125 1.393 . S
C2129 C2128 1.391 . S
C2130 H2120 0.950 . S
C2130 C2131 1.386 . S
C2130 C2132 1.368 1_655 S
C2131 C2130 1.386 . S
C2131 C2135 1.393 . S
C2132 H2121 0.967 . S
C2132 C2130 1.368 1_455 S
C2132 C2133 1.410 . S
C2133 C2127 1.491 . S
C2133 C2132 1.410 . S
C2133 C2134 1.398 1_455 S
C2134 H2122 0.957 . S
C2134 C2133 1.398 1_655 S
C2134 C2135 1.391 . S
C2135 H2123 0.950 . S
C2135 C2131 1.393 . S
C2135 C2134 1.391 . S
H2136 C2144 0.950 . S
H2137 C2149 0.950 . S
H2138 C2146 0.950 . S
H2139 C2148 0.950 . S
H2140 C2150 0.950 . S
H2141 C2152 0.950 . S
H2142 C2154 0.950 . S
H2143 C2155 0.950 . S
C2144 H2136 0.950 . S
C2144 C2145 1.386 . S
C2144 C2146 1.391 . S
C2145 C2144 1.386 . S
C2145 C2149 1.393 . S
C2146 H2138 0.950 . S
C2146 C2144 1.391 . S
C2146 C2147 1.400 . S
C2147 C2146 1.400 . S
C2147 C2148 1.398 . S
C2147 C2153 1.491 . S
C2148 H2139 0.950 . S
C2148 C2147 1.398 . S
C2148 C2149 1.391 . S
C2149 H2137 0.950 . S
C2149 C2145 1.393 . S
C2149 C2148 1.391 . S
C2150 H2140 0.950 . S
C2150 C2151 1.386 . S
C2150 C2152 1.391 . S
C2151 C2150 1.386 . S
C2151 C2155 1.393 . S
C2152 H2141 0.950 . S
C2152 C2150 1.391 . S
C2152 C2153 1.400 . S
C2153 C2147 1.491 . S
C2153 C2152 1.400 . S
C2153 C2154 1.398 . S
C2154 H2142 0.950 . S
C2154 C2153 1.398 . S
C2154 C2155 1.391 . S
C2155 H2143 0.950 . S
C2155 C2151 1.393 . S
C2155 C2154 1.391 . S
H2156 C2164 0.950 . S
H2157 C2169 0.950 . S
H2158 C2166 0.950 . S
H2159 C2168 0.950 1_655 S
H2160 C2170 0.950 . S
H2161 C2172 0.950 . S
H2162 C2174 0.950 . S
H2163 C2175 0.950 . S
C2164 H2156 0.950 . S
C2164 C2165 1.386 . S
C2164 C2166 1.391 . S
C2165 C2164 1.386 . S
C2165 C2169 1.393 . S
C2166 H2158 0.950 . S
C2166 C2164 1.391 . S
C2166 C2167 1.400 . S
C2167 C2166 1.400 . S
C2167 C2168 1.398 . S
C2167 C2173 1.491 . S
C2168 H2159 0.950 1_455 S
C2168 C2167 1.398 . S
C2168 C2169 1.391 . S
C2169 H2157 0.950 . S
C2169 C2165 1.393 . S
C2169 C2168 1.391 . S
C2170 H2160 0.950 . S
C2170 C2171 1.386 . S
C2170 C2172 1.391 . S
C2171 C2170 1.386 . S
C2171 C2175 1.393 1_655 S
C2172 H2161 0.950 . S
C2172 C2170 1.391 . S
C2172 C2173 1.400 1_655 S
C2173 C2167 1.491 . S
C2173 C2172 1.400 1_455 S
C2173 C2174 1.398 . S
C2174 H2162 0.950 . S
C2174 C2173 1.398 . S
C2174 C2175 1.391 . S
C2175 H2163 0.950 . S
C2175 C2171 1.393 1_455 S
C2175 C2174 1.391 . S
H2176 C2184 0.950 . S
H2177 C2189 0.950 . S
H2178 C2186 0.950 . S
H2179 C2188 0.950 . S
H2180 C2190 0.950 . S
H2181 C2192 0.950 . S
H2182 C2194 0.950 . S
H2183 C2195 0.950 . S
C2184 H2176 0.950 . S
C2184 C2185 1.386 . S
C2184 C2186 1.391 . S
C2185 C2184 1.386 . S
C2185 C2189 1.393 . S
C2186 H2178 0.950 . S
C2186 C2184 1.391 . S
C2186 C2187 1.400 . S
C2187 C2186 1.400 . S
C2187 C2188 1.398 . S
C2187 C2193 1.491 . S
C2188 H2179 0.950 . S
C2188 C2187 1.398 . S
C2188 C2189 1.391 . S
C2189 H2177 0.950 . S
C2189 C2185 1.393 . S
C2189 C2188 1.391 . S
C2190 H2180 0.950 . S
C2190 C2191 1.386 . S
C2190 C2192 1.391 . S
C2191 C2190 1.386 . S
C2191 C2195 1.393 . S
C2192 H2181 0.950 . S
C2192 C2190 1.391 . S
C2192 C2193 1.400 . S
C2193 C2187 1.491 . S
C2193 C2192 1.400 . S
C2193 C2194 1.398 . S
C2194 H2182 0.950 . S
C2194 C2193 1.398 . S
C2194 C2195 1.391 . S
C2195 H2183 0.950 . S
C2195 C2191 1.393 . S
C2195 C2194 1.391 . S
H2196 C2204 0.950 . S
H2197 C2209 0.950 . S
H2198 C2206 0.950 . S
H2199 C2208 0.950 . S
H2200 C2210 0.950 . S
H2201 C2212 0.950 1_455 S
H2202 C2214 0.950 . S
H2203 C2215 0.950 . S
C2204 H2196 0.950 . S
C2204 C2205 1.386 1_655 S
C2204 C2206 1.391 . S
C2205 C2204 1.386 1_455 S
C2205 C2209 1.393 . S
C2206 H2198 0.950 . S
C2206 C2204 1.391 . S
C2206 C2207 1.400 . S
C2207 C2206 1.400 . S
C2207 C2208 1.398 1_655 S
C2207 C2213 1.491 . S
C2208 H2199 0.950 . S
C2208 C2207 1.398 1_455 S
C2208 C2209 1.391 . S
C2209 H2197 0.950 . S
C2209 C2205 1.393 . S
C2209 C2208 1.391 . S
C2210 H2200 0.950 . S
C2210 C2211 1.386 . S
C2210 C2212 1.391 . S
C2211 C2210 1.386 . S
C2211 C2215 1.393 . S
C2212 H2201 0.950 1_655 S
C2212 C2210 1.391 . S
C2212 C2213 1.400 . S
C2213 C2207 1.491 . S
C2213 C2212 1.400 . S
C2213 C2214 1.398 . S
C2214 H2202 0.950 . S
C2214 C2213 1.398 . S
C2214 C2215 1.391 . S
C2215 H2203 0.950 . S
C2215 C2211 1.393 . S
C2215 C2214 1.391 . S
H2216 C2224 0.950 . S
H2217 C2229 0.950 . S
H2218 C2226 0.950 . S
H2219 C2228 0.950 . S
H2220 C2230 0.950 . S
H2221 C2232 0.950 . S
H2222 C2234 0.950 . S
H2223 C2235 0.950 . S
C2224 H2216 0.950 . S
C2224 C2225 1.386 . S
C2224 C2226 1.391 . S
C2225 C2224 1.386 . S
C2225 C2229 1.393 . S
C2226 H2218 0.950 . S
C2226 C2224 1.391 . S
C2226 C2227 1.400 . S
C2227 C2226 1.400 . S
C2227 C2228 1.398 . S
C2227 C2233 1.491 . S
C2228 H2219 0.950 . S
C2228 C2227 1.398 . S
C2228 C2229 1.391 . S
C2229 H2217 0.950 . S
C2229 C2225 1.393 . S
C2229 C2228 1.391 . S
C2230 H2220 0.950 . S
C2230 C2231 1.386 . S
C2230 C2232 1.391 . S
C2231 C2230 1.386 . S
C2231 C2235 1.393 . S
C2232 H2221 0.950 . S
C2232 C2230 1.391 . S
C2232 C2233 1.400 . S
C2233 C2227 1.491 . S
C2233 C2232 1.400 . S
C2233 C2234 1.398 . S
C2234 H2222 0.950 . S
C2234 C2233 1.398 . S
C2234 C2235 1.391 . S
C2235 H2223 0.950 . S
C2235 C2231 1.393 . S
C2235 C2234 1.391 . S
H2236 C2244 0.950 . S
H2237 C2249 0.950 . S
H2238 C2246 0.950 1_455 S
H2239 C2248 0.950 . S
H2240 C2250 0.950 . S
H2241 C2252 0.950 . S
H2242 C2254 0.950 . S
H2243 C2255 0.950 . S
C2244 H2236 0.950 . S
C2244 C2245 1.386 . S
C2244 C2246 1.391 . S
C2245 C2244 1.386 . S
C2245 C2249 1.393 . S
C2246 H2238 0.950 1_655 S
C2246 C2244 1.391 . S
C2246 C2247 1.400 . S
C2247 C2246 1.400 . S
C2247 C2248 1.398 . S
C2247 C2253 1.491 . S
C2248 H2239 0.950 . S
C2248 C2247 1.398 . S
C2248 C2249 1.391 . S
C2249 H2237 0.950 . S
C2249 C2245 1.393 . S
C2249 C2248 1.391 . S
C2250 H2240 0.950 . S
C2250 C2251 1.386 1_655 S
C2250 C2252 1.391 . S
C2251 C2250 1.386 1_455 S
C2251 C2255 1.393 . S
C2252 H2241 0.950 . S
C2252 C2250 1.391 . S
C2252 C2253 1.400 . S
C2253 C2247 1.491 . S
C2253 C2252 1.400 . S
C2253 C2254 1.398 1_655 S
C2254 H2242 0.950 . S
C2254 C2253 1.398 1_455 S
C2254 C2255 1.391 . S
C2255 H2243 0.950 . S
C2255 C2251 1.393 . S
C2255 C2254 1.391 . S
H2256 C2264 0.950 . S
H2257 C2269 0.950 . S
H2258 C2266 0.950 . S
H2259 C2268 0.950 . S
H2260 C2270 0.950 . S
H2261 C2272 0.950 . S
H2262 C2274 0.950 . S
H2263 C2275 0.950 . S
C2264 H2256 0.950 . S
C2264 C2265 1.386 . S
C2264 C2266 1.391 . S
C2265 C2264 1.386 . S
C2265 C2269 1.393 . S
C2266 H2258 0.950 . S
C2266 C2264 1.391 . S
C2266 C2267 1.400 . S
C2267 C2266 1.400 . S
C2267 C2268 1.398 . S
C2267 C2273 1.491 . S
C2268 H2259 0.950 . S
C2268 C2267 1.398 . S
C2268 C2269 1.391 . S
C2269 H2257 0.950 . S
C2269 C2265 1.393 . S
C2269 C2268 1.391 . S
C2270 H2260 0.950 . S
C2270 C2271 1.386 . S
C2270 C2272 1.391 . S
C2271 C2270 1.386 . S
C2271 C2275 1.393 . S
C2272 H2261 0.950 . S
C2272 C2270 1.391 . S
C2272 C2273 1.400 . S
C2273 C2267 1.491 . S
C2273 C2272 1.400 . S
C2273 C2274 1.398 . S
C2274 H2262 0.950 . S
C2274 C2273 1.398 . S
C2274 C2275 1.391 . S
C2275 H2263 0.950 . S
C2275 C2271 1.393 . S
C2275 C2274 1.391 . S
H2276 C2284 0.950 . S
H2277 C2289 0.950 . S
H2278 C2286 0.950 . S
H2279 C2288 0.950 1_655 S
H2280 C2290 0.950 . S
H2281 C2292 0.950 . S
H2282 C2294 0.950 . S
H2283 C2295 0.950 . S
C2284 H2276 0.950 . S
C2284 C2285 1.386 . S
C2284 C2286 1.391 . S
C2285 C2284 1.386 . S
C2285 C2289 1.393 . S
C2286 H2278 0.950 . S
C2286 C2284 1.391 . S
C2286 C2287 1.400 . S
C2287 C2286 1.400 . S
C2287 C2288 1.398 . S
C2287 C2293 1.491 . S
C2288 H2279 0.950 1_455 S
C2288 C2287 1.398 . S
C2288 C2289 1.391 . S
C2289 H2277 0.950 . S
C2289 C2285 1.393 . S
C2289 C2288 1.391 . S
C2290 H2280 0.950 . S
C2290 C2291 1.386 . S
C2290 C2292 1.391 . S
C2291 C2290 1.386 . S
C2291 C2295 1.393 1_655 S
C2292 H2281 0.950 . S
C2292 C2290 1.391 . S
C2292 C2293 1.400 1_655 S
C2293 C2287 1.491 . S
C2293 C2292 1.400 1_455 S
C2293 C2294 1.398 . S
C2294 H2282 0.950 . S
C2294 C2293 1.398 . S
C2294 C2295 1.391 . S
C2295 H2283 0.950 . S
C2295 C2291 1.393 1_455 S
C2295 C2294 1.391 . S
H2296 C2304 0.950 . S
H2297 C2309 0.950 . S
H2298 C2306 0.950 . S
H2299 C2308 0.950 . S
H2300 C2310 0.950 . S
H2301 C2312 0.950 . S
H2302 C2314 0.950 . S
H2303 C2315 0.950 . S
C2304 H2296 0.950 . S
C2304 C2305 1.386 . S
C2304 C2306 1.391 . S
C2305 C2304 1.386 . S
C2305 C2309 1.393 . S
C2306 H2298 0.950 . S
C2306 C2304 1.391 . S
C2306 C2307 1.400 . S
C2307 C2306 1.400 . S
C2307 C2308 1.398 . S
C2307 C2313 1.491 . S
C2308 H2299 0.950 . S
C2308 C2307 1.398 . S
C2308 C2309 1.391 . S
C2309 H2297 0.950 . S
C2309 C2305 1.393 . S
C2309 C2308 1.391 . S
C2310 H2300 0.950 . S
C2310 C2311 1.386 . S
C2310 C2312 1.391 . S
C2311 C2310 1.386 . S
C2311 C2315 1.393 . S
C2312 H2301 0.950 . S
C2312 C2310 1.391 . S
C2312 C2313 1.400 . S
C2313 C2307 1.491 . S
C2313 C2312 1.400 . S
C2313 C2314 1.398 . S
C2314 H2302 0.950 . S
C2314 C2313 1.398 . S
C2314 C2315 1.391 . S
C2315 H2303 0.950 . S
C2315 C2311 1.393 . S
C2315 C2314 1.391 . S
H2316 C2324 0.950 . S
H2317 C2329 0.950 . S
H2318 C2326 0.950 . S
H2319 C2328 0.950 . S
H2320 C2330 0.950 . S
H2321 C2332 0.950 1_655 S
H2322 C2334 0.950 . S
H2323 C2335 0.950 . S
C2324 H2316 0.950 . S
C2324 C2325 1.386 1_455 S
C2324 C2326 1.391 . S
C2325 C2324 1.386 1_655 S
C2325 C2329 1.393 . S
C2326 H2318 0.950 . S
C2326 C2324 1.391 . S
C2326 C2327 1.400 . S
C2327 C2326 1.400 . S
C2327 C2328 1.398 1_455 S
C2327 C2333 1.491 . S
C2328 H2319 0.950 . S
C2328 C2327 1.398 1_655 S
C2328 C2329 1.391 . S
C2329 H2317 0.950 . S
C2329 C2325 1.393 . S
C2329 C2328 1.391 . S
C2330 H2320 0.950 . S
C2330 C2331 1.386 . S
C2330 C2332 1.391 . S
C2331 C2330 1.386 . S
C2331 C2335 1.393 . S
C2332 H2321 0.950 1_455 S
C2332 C2330 1.391 . S
C2332 C2333 1.400 . S
C2333 C2327 1.491 . S
C2333 C2332 1.400 . S
C2333 C2334 1.398 . S
C2334 H2322 0.950 . S
C2334 C2333 1.398 . S
C2334 C2335 1.391 . S
C2335 H2323 0.950 . S
C2335 C2331 1.393 . S
C2335 C2334 1.391 . S
H2336 C2344 0.950 . S
H2337 C2349 0.950 . S
H2338 C2346 0.950 . S
H2339 C2348 0.950 . S
H2340 C2350 0.950 . S
H2341 C2352 0.950 . S
H2342 C2354 0.950 . S
H2343 C2355 0.950 . S
C2344 H2336 0.950 . S
C2344 C2345 1.386 . S
C2344 C2346 1.391 . S
C2345 C2344 1.386 . S
C2345 C2349 1.393 . S
C2346 H2338 0.950 . S
C2346 C2344 1.391 . S
C2346 C2347 1.400 . S
C2347 C2346 1.400 . S
C2347 C2348 1.398 . S
C2347 C2353 1.491 . S
C2348 H2339 0.950 . S
C2348 C2347 1.398 . S
C2348 C2349 1.391 . S
C2349 H2337 0.950 . S
C2349 C2345 1.393 . S
C2349 C2348 1.391 . S
C2350 H2340 0.950 . S
C2350 C2351 1.386 . S
C2350 C2352 1.391 . S
C2351 C2350 1.386 . S
C2351 C2355 1.393 . S
C2352 H2341 0.950 . S
C2352 C2350 1.391 . S
C2352 C2353 1.400 . S
C2353 C2347 1.491 . S
C2353 C2352 1.400 . S
C2353 C2354 1.398 . S
C2354 H2342 0.950 . S
C2354 C2353 1.398 . S
C2354 C2355 1.391 . S
C2355 H2343 0.950 . S
C2355 C2351 1.393 . S
C2355 C2354 1.391 . S
H2356 C2364 0.950 . S
H2357 C2369 0.950 . S
H2358 C2366 0.950 . S
H2359 C2368 0.950 . S
H2360 C2370 0.950 . S
H2361 C2372 0.950 . S
H2362 C2374 0.950 . S
H2363 C2375 0.950 . S
C2364 H2356 0.950 . S
C2364 C2365 1.386 . S
C2364 C2366 1.391 . S
C2365 C2364 1.386 . S
C2365 C2369 1.393 . S
C2366 H2358 0.950 . S
C2366 C2364 1.391 . S
C2366 C2367 1.400 . S
C2367 C2366 1.400 . S
C2367 C2368 1.398 . S
C2367 C2373 1.491 . S
C2368 H2359 0.950 . S
C2368 C2367 1.398 . S
C2368 C2369 1.391 . S
C2369 H2357 0.950 . S
C2369 C2365 1.393 . S
C2369 C2368 1.391 . S
C2370 H2360 0.950 . S
C2370 C2371 1.386 . S
C2370 C2372 1.391 . S
C2371 C2370 1.386 . S
C2371 C2375 1.393 . S
C2372 H2361 0.950 . S
C2372 C2370 1.391 . S
C2372 C2373 1.400 . S
C2373 C2367 1.491 . S
C2373 C2372 1.400 . S
C2373 C2374 1.398 . S
C2374 H2362 0.950 . S
C2374 C2373 1.398 . S
C2374 C2375 1.391 . S
C2375 H2363 0.950 . S
C2375 C2371 1.393 . S
C2375 C2374 1.391 . S
H2376 C2384 0.950 . S
H2377 C2389 0.950 . S
H2378 C2386 0.950 . S
H2379 C2388 0.950 . S
H2380 C2390 0.950 . S
H2381 C2392 0.950 . S
H2382 C2394 0.950 . S
H2383 C2395 0.950 . S
C2384 H2376 0.950 . S
C2384 C2385 1.386 . S
C2384 C2386 1.391 . S
C2385 C2384 1.386 . S
C2385 C2389 1.393 . S
C2386 H2378 0.950 . S
C2386 C2384 1.391 . S
C2386 C2387 1.400 . S
C2387 C2386 1.400 . S
C2387 C2388 1.398 . S
C2387 C2393 1.491 . S
C2388 H2379 0.950 . S
C2388 C2387 1.398 . S
C2388 C2389 1.391 . S
C2389 H2377 0.950 . S
C2389 C2385 1.393 . S
C2389 C2388 1.391 . S
C2390 H2380 0.950 . S
C2390 C2391 1.386 . S
C2390 C2392 1.391 . S
C2391 C2390 1.386 . S
C2391 C2395 1.393 . S
C2392 H2381 0.950 . S
C2392 C2390 1.391 . S
C2392 C2393 1.400 . S
C2393 C2387 1.491 . S
C2393 C2392 1.400 . S
C2393 C2394 1.398 . S
C2394 H2382 0.950 . S
C2394 C2393 1.398 . S
C2394 C2395 1.391 . S
C2395 H2383 0.950 . S
C2395 C2391 1.393 . S
C2395 C2394 1.391 . S
H2396 C2404 0.950 . S
H2397 C2409 0.950 . S
H2398 C2406 0.950 . S
H2399 C2408 0.950 . S
H2400 C2410 0.950 . S
H2401 C2412 0.950 . S
H2402 C2414 0.950 . S
H2403 C2415 0.950 . S
C2404 H2396 0.950 . S
C2404 C2405 1.386 . S
C2404 C2406 1.391 . S
C2405 C2404 1.386 . S
C2405 C2409 1.393 . S
C2406 H2398 0.950 . S
C2406 C2404 1.391 . S
C2406 C2407 1.400 . S
C2407 C2406 1.400 . S
C2407 C2408 1.398 . S
C2407 C2413 1.491 . S
C2408 H2399 0.950 . S
C2408 C2407 1.398 . S
C2408 C2409 1.391 . S
C2409 H2397 0.950 . S
C2409 C2405 1.393 . S
C2409 C2408 1.391 . S
C2410 H2400 0.950 . S
C2410 C2411 1.386 . S
C2410 C2412 1.391 . S
C2411 C2410 1.386 . S
C2411 C2415 1.393 . S
C2412 H2401 0.950 . S
C2412 C2410 1.391 . S
C2412 C2413 1.400 . S
C2413 C2407 1.491 . S
C2413 C2412 1.400 . S
C2413 C2414 1.398 . S
C2414 H2402 0.950 . S
C2414 C2413 1.398 . S
C2414 C2415 1.391 . S
C2415 H2403 0.950 . S
C2415 C2411 1.393 . S
C2415 C2414 1.391 . S
H2416 C2424 0.950 . S
H2417 C2429 0.950 . S
H2418 C2426 0.950 . S
H2419 C2428 0.950 . S
H2420 C2430 0.950 . S
H2421 C2432 0.950 . S
H2422 C2434 0.950 . S
H2423 C2435 0.950 . S
C2424 H2416 0.950 . S
C2424 C2425 1.386 . S
C2424 C2426 1.391 . S
C2425 C2424 1.386 . S
C2425 C2429 1.393 . S
C2426 H2418 0.950 . S
C2426 C2424 1.391 . S
C2426 C2427 1.400 . S
C2427 C2426 1.400 . S
C2427 C2428 1.398 . S
C2427 C2433 1.491 . S
C2428 H2419 0.950 . S
C2428 C2427 1.398 . S
C2428 C2429 1.391 . S
C2429 H2417 0.950 . S
C2429 C2425 1.393 . S
C2429 C2428 1.391 . S
C2430 H2420 0.950 . S
C2430 C2431 1.386 . S
C2430 C2432 1.391 . S
C2431 C2430 1.386 . S
C2431 C2435 1.393 . S
C2432 H2421 0.950 . S
C2432 C2430 1.391 . S
C2432 C2433 1.400 . S
C2433 C2427 1.491 . S
C2433 C2432 1.400 . S
C2433 C2434 1.398 . S
C2434 H2422 0.950 . S
C2434 C2433 1.398 . S
C2434 C2435 1.391 . S
C2435 H2423 0.950 . S
C2435 C2431 1.393 . S
C2435 C2434 1.391 . S
H2436 C2444 0.950 . S
H2437 C2449 0.950 . S
H2438 C2446 0.950 . S
H2439 C2448 0.950 . S
H2440 C2450 0.950 . S
H2441 C2452 0.950 . S
H2442 C2454 0.950 . S
H2443 C2455 0.950 . S
C2444 H2436 0.950 . S
C2444 C2445 1.386 . S
C2444 C2446 1.391 . S
C2445 C2444 1.386 . S
C2445 C2449 1.393 . S
C2446 H2438 0.950 . S
C2446 C2444 1.391 . S
C2446 C2447 1.400 . S
C2447 C2446 1.400 . S
C2447 C2448 1.398 . S
C2447 C2453 1.491 . S
C2448 H2439 0.950 . S
C2448 C2447 1.398 . S
C2448 C2449 1.391 . S
C2449 H2437 0.950 . S
C2449 C2445 1.393 . S
C2449 C2448 1.391 . S
C2450 H2440 0.950 . S
C2450 C2451 1.386 . S
C2450 C2452 1.391 . S
C2451 C2450 1.386 . S
C2451 C2455 1.393 . S
C2452 H2441 0.950 . S
C2452 C2450 1.391 . S
C2452 C2453 1.400 . S
C2453 C2447 1.491 . S
C2453 C2452 1.400 . S
C2453 C2454 1.398 . S
C2454 H2442 0.950 . S
C2454 C2453 1.398 . S
C2454 C2455 1.391 . S
C2455 H2443 0.950 . S
C2455 C2451 1.393 . S
C2455 C2454 1.391 . S
H2456 C2464 0.950 . S
H2457 C2469 0.950 . S
H2458 C2466 0.950 . S
H2459 C2468 0.950 . S
H2460 C2470 0.950 . S
H2461 C2472 0.950 . S
H2462 C2474 0.950 . S
H2463 C2475 0.950 . S
C2464 H2456 0.950 . S
C2464 C2465 1.386 . S
C2464 C2466 1.391 . S
C2465 C2464 1.386 . S
C2465 C2469 1.393 . S
C2466 H2458 0.950 . S
C2466 C2464 1.391 . S
C2466 C2467 1.400 . S
C2467 C2466 1.400 . S
C2467 C2468 1.398 . S
C2467 C2473 1.491 . S
C2468 H2459 0.950 . S
C2468 C2467 1.398 . S
C2468 C2469 1.391 . S
C2469 H2457 0.950 . S
C2469 C2465 1.393 . S
C2469 C2468 1.391 . S
C2470 H2460 0.950 . S
C2470 C2471 1.386 . S
C2470 C2472 1.391 . S
C2471 C2470 1.386 . S
C2471 C2475 1.393 . S
C2472 H2461 0.950 . S
C2472 C2470 1.391 . S
C2472 C2473 1.400 . S
C2473 C2467 1.491 . S
C2473 C2472 1.400 . S
C2473 C2474 1.398 . S
C2474 H2462 0.950 . S
C2474 C2473 1.398 . S
C2474 C2475 1.391 . S
C2475 H2463 0.950 . S
C2475 C2471 1.393 . S
C2475 C2474 1.391 . S
H2476 C2484 0.950 . S
H2477 C2489 0.950 . S
H2478 C2486 0.950 . S
H2479 C2488 0.950 . S
H2480 C2490 0.950 . S
H2481 C2492 0.950 . S
H2482 C2494 0.950 . S
H2483 C2495 0.950 . S
C2484 H2476 0.950 . S
C2484 C2485 1.386 . S
C2484 C2486 1.391 . S
C2485 C2484 1.386 . S
C2485 C2489 1.393 . S
C2486 H2478 0.950 . S
C2486 C2484 1.391 . S
C2486 C2487 1.400 . S
C2487 C2486 1.400 . S
C2487 C2488 1.398 . S
C2487 C2493 1.491 . S
C2488 H2479 0.950 . S
C2488 C2487 1.398 . S
C2488 C2489 1.391 . S
C2489 H2477 0.950 . S
C2489 C2485 1.393 . S
C2489 C2488 1.391 . S
C2490 H2480 0.950 . S
C2490 C2491 1.386 . S
C2490 C2492 1.391 . S
C2491 C2490 1.386 . S
C2491 C2495 1.393 . S
C2492 H2481 0.950 . S
C2492 C2490 1.391 . S
C2492 C2493 1.400 . S
C2493 C2487 1.491 . S
C2493 C2492 1.400 . S
C2493 C2494 1.398 . S
C2494 H2482 0.950 . S
C2494 C2493 1.398 . S
C2494 C2495 1.391 . S
C2495 H2483 0.950 . S
C2495 C2491 1.393 . S
C2495 C2494 1.391 . S
H2496 C2504 0.950 . S
H2497 C2509 0.950 . S
H2498 C2506 0.950 . S
H2499 C2508 0.950 . S
H2500 C2510 0.950 . S
H2501 C2512 0.950 . S
H2502 C2514 0.950 . S
H2503 C2515 0.950 . S
C2504 H2496 0.950 . S
C2504 C2505 1.386 . S
C2504 C2506 1.391 . S
C2505 C2504 1.386 . S
C2505 C2509 1.393 . S
C2506 H2498 0.950 . S
C2506 C2504 1.391 . S
C2506 C2507 1.400 . S
C2507 C2506 1.400 . S
C2507 C2508 1.398 . S
C2507 C2513 1.491 . S
C2508 H2499 0.950 . S
C2508 C2507 1.398 . S
C2508 C2509 1.391 . S
C2509 H2497 0.950 . S
C2509 C2505 1.393 . S
C2509 C2508 1.391 . S
C2510 H2500 0.950 . S
C2510 C2511 1.386 . S
C2510 C2512 1.391 . S
C2511 C2510 1.386 . S
C2511 C2515 1.393 . S
C2512 H2501 0.950 . S
C2512 C2510 1.391 . S
C2512 C2513 1.400 . S
C2513 C2507 1.491 . S
C2513 C2512 1.400 . S
C2513 C2514 1.398 . S
C2514 H2502 0.950 . S
C2514 C2513 1.398 . S
C2514 C2515 1.391 . S
C2515 H2503 0.950 . S
C2515 C2511 1.393 . S
C2515 C2514 1.391 . S
H2516 C2524 0.950 . S
H2517 C2529 0.950 . S
H2518 C2526 0.950 . S
H2519 C2528 0.950 . S
H2520 C2530 0.950 . S
H2521 C2532 0.950 . S
H2522 C2534 0.950 . S
H2523 C2535 0.950 . S
C2524 H2516 0.950 . S
C2524 C2525 1.386 . S
C2524 C2526 1.391 . S
C2525 C2524 1.386 . S
C2525 C2529 1.393 . S
C2526 H2518 0.950 . S
C2526 C2524 1.391 . S
C2526 C2527 1.400 . S
C2527 C2526 1.400 . S
C2527 C2528 1.398 . S
C2527 C2533 1.491 . S
C2528 H2519 0.950 . S
C2528 C2527 1.398 . S
C2528 C2529 1.391 . S
C2529 H2517 0.950 . S
C2529 C2525 1.393 . S
C2529 C2528 1.391 . S
C2530 H2520 0.950 . S
C2530 C2531 1.386 . S
C2530 C2532 1.391 . S
C2531 C2530 1.386 . S
C2531 C2535 1.393 . S
C2532 H2521 0.950 . S
C2532 C2530 1.391 . S
C2532 C2533 1.400 . S
C2533 C2527 1.491 . S
C2533 C2532 1.400 . S
C2533 C2534 1.398 . S
C2534 H2522 0.950 . S
C2534 C2533 1.398 . S
C2534 C2535 1.391 . S
C2535 H2523 0.950 . S
C2535 C2531 1.393 . S
C2535 C2534 1.391 . S
H2536 C2544 0.950 . S
H2537 C2549 0.950 . S
H2538 C2546 0.950 . S
H2539 C2548 0.950 . S
H2540 C2550 0.950 . S
H2541 C2552 0.950 . S
H2542 C2554 0.950 . S
H2543 C2555 0.950 . S
C2544 H2536 0.950 . S
C2544 C2545 1.386 . S
C2544 C2546 1.391 . S
C2545 C2544 1.386 . S
C2545 C2549 1.393 . S
C2546 H2538 0.950 . S
C2546 C2544 1.391 . S
C2546 C2547 1.400 . S
C2547 C2546 1.400 . S
C2547 C2548 1.398 . S
C2547 C2553 1.491 . S
C2548 H2539 0.950 . S
C2548 C2547 1.398 . S
C2548 C2549 1.391 . S
C2549 H2537 0.950 . S
C2549 C2545 1.393 . S
C2549 C2548 1.391 . S
C2550 H2540 0.950 . S
C2550 C2551 1.386 . S
C2550 C2552 1.391 . S
C2551 C2550 1.386 . S
C2551 C2555 1.393 . S
C2552 H2541 0.950 . S
C2552 C2550 1.391 . S
C2552 C2553 1.400 . S
C2553 C2547 1.491 . S
C2553 C2552 1.400 . S
C2553 C2554 1.398 . S
C2554 H2542 0.950 . S
C2554 C2553 1.398 . S
C2554 C2555 1.391 . S
C2555 H2543 0.950 . S
C2555 C2551 1.393 . S
C2555 C2554 1.391 . S
H2556 C2564 0.950 . S
H2557 C2569 0.950 . S
H2558 C2566 0.950 . S
H2559 C2568 0.950 . S
H2560 C2570 0.950 . S
H2561 C2572 0.950 . S
H2562 C2574 0.950 . S
H2563 C2575 0.950 . S
C2564 H2556 0.950 . S
C2564 C2565 1.386 . S
C2564 C2566 1.391 . S
C2565 C2564 1.386 . S
C2565 C2569 1.393 . S
C2566 H2558 0.950 . S
C2566 C2564 1.391 . S
C2566 C2567 1.400 . S
C2567 C2566 1.400 . S
C2567 C2568 1.398 . S
C2567 C2573 1.491 . S
C2568 H2559 0.950 . S
C2568 C2567 1.398 . S
C2568 C2569 1.391 . S
C2569 H2557 0.950 . S
C2569 C2565 1.393 . S
C2569 C2568 1.391 . S
C2570 H2560 0.950 . S
C2570 C2571 1.386 . S
C2570 C2572 1.391 . S
C2571 C2570 1.386 . S
C2571 C2575 1.393 . S
C2572 H2561 0.950 . S
C2572 C2570 1.391 . S
C2572 C2573 1.400 . S
C2573 C2567 1.491 . S
C2573 C2572 1.400 . S
C2573 C2574 1.398 . S
C2574 H2562 0.950 . S
C2574 C2573 1.398 . S
C2574 C2575 1.391 . S
C2575 H2563 0.950 . S
C2575 C2571 1.393 . S
C2575 C2574 1.391 . S
H2576 C2584 0.950 . S
H2577 C2589 0.950 . S
H2578 C2586 0.950 . S
H2579 C2588 0.950 . S
H2580 C2590 0.950 . S
H2581 C2592 0.950 . S
H2582 C2594 0.950 . S
H2583 C2595 0.950 . S
C2584 H2576 0.950 . S
C2584 C2585 1.386 . S
C2584 C2586 1.391 . S
C2585 C2584 1.386 . S
C2585 C2589 1.393 . S
C2586 H2578 0.950 . S
C2586 C2584 1.391 . S
C2586 C2587 1.400 . S
C2587 C2586 1.400 . S
C2587 C2588 1.398 . S
C2587 C2593 1.491 . S
C2588 H2579 0.950 . S
C2588 C2587 1.398 . S
C2588 C2589 1.391 . S
C2589 H2577 0.950 . S
C2589 C2585 1.393 . S
C2589 C2588 1.391 . S
C2590 H2580 0.950 . S
C2590 C2591 1.386 . S
C2590 C2592 1.391 . S
C2591 C2590 1.386 . S
C2591 C2595 1.393 . S
C2592 H2581 0.950 . S
C2592 C2590 1.391 . S
C2592 C2593 1.400 . S
C2593 C2587 1.491 . S
C2593 C2592 1.400 . S
C2593 C2594 1.398 . S
C2594 H2582 0.950 . S
C2594 C2593 1.398 . S
C2594 C2595 1.391 . S
C2595 H2583 0.950 . S
C2595 C2591 1.393 . S
C2595 C2594 1.391 . S
H2596 C2604 0.950 . S
H2597 C2609 0.950 . S
H2598 C2606 0.950 . S
H2599 C2608 0.950 . S
H2600 C2610 0.950 . S
H2601 C2612 0.950 . S
H2602 C2614 0.950 . S
H2603 C2615 0.950 . S
C2604 H2596 0.950 . S
C2604 C2605 1.386 . S
C2604 C2606 1.391 . S
C2605 C2604 1.386 . S
C2605 C2609 1.393 . S
C2606 H2598 0.950 . S
C2606 C2604 1.391 . S
C2606 C2607 1.400 . S
C2607 C2606 1.400 . S
C2607 C2608 1.398 . S
C2607 C2613 1.491 . S
C2608 H2599 0.950 . S
C2608 C2607 1.398 . S
C2608 C2609 1.391 . S
C2609 H2597 0.950 . S
C2609 C2605 1.393 . S
C2609 C2608 1.391 . S
C2610 H2600 0.950 . S
C2610 C2611 1.386 . S
C2610 C2612 1.391 . S
C2611 C2610 1.386 . S
C2611 C2615 1.393 . S
C2612 H2601 0.950 . S
C2612 C2610 1.391 . S
C2612 C2613 1.400 . S
C2613 C2607 1.491 . S
C2613 C2612 1.400 . S
C2613 C2614 1.398 . S
C2614 H2602 0.950 . S
C2614 C2613 1.398 . S
C2614 C2615 1.391 . S
C2615 H2603 0.950 . S
C2615 C2611 1.393 . S
C2615 C2614 1.391 . S
H2616 C2624 0.950 . S
H2617 C2629 0.950 . S
H2618 C2626 0.950 . S
H2619 C2628 0.950 . S
H2620 C2630 0.950 . S
H2621 C2632 0.950 . S
H2622 C2634 0.950 . S
H2623 C2635 0.950 . S
C2624 H2616 0.950 . S
C2624 C2625 1.386 . S
C2624 C2626 1.391 . S
C2625 C2624 1.386 . S
C2625 C2629 1.393 . S
C2626 H2618 0.950 . S
C2626 C2624 1.391 . S
C2626 C2627 1.400 . S
C2627 C2626 1.400 . S
C2627 C2628 1.398 . S
C2627 C2633 1.491 . S
C2628 H2619 0.950 . S
C2628 C2627 1.398 . S
C2628 C2629 1.391 . S
C2629 H2617 0.950 . S
C2629 C2625 1.393 . S
C2629 C2628 1.391 . S
C2630 H2620 0.950 . S
C2630 C2631 1.386 . S
C2630 C2632 1.391 . S
C2631 C2630 1.386 . S
C2631 C2635 1.393 . S
C2632 H2621 0.950 . S
C2632 C2630 1.391 . S
C2632 C2633 1.400 . S
C2633 C2627 1.491 . S
C2633 C2632 1.400 . S
C2633 C2634 1.398 . S
C2634 H2622 0.950 . S
C2634 C2633 1.398 . S
C2634 C2635 1.391 . S
C2635 H2623 0.950 . S
C2635 C2631 1.393 . S
C2635 C2634 1.391 . S
H2636 C2644 0.950 . S
H2637 C2649 0.950 . S
H2638 C2646 0.950 . S
H2639 C2648 0.950 . S
H2640 C2650 0.950 . S
H2641 C2652 0.950 . S
H2642 C2654 0.950 . S
H2643 C2655 0.950 . S
C2644 H2636 0.950 . S
C2644 C2645 1.386 . S
C2644 C2646 1.391 . S
C2645 C2644 1.386 . S
C2645 C2649 1.393 . S
C2646 H2638 0.950 . S
C2646 C2644 1.391 . S
C2646 C2647 1.400 . S
C2647 C2646 1.400 . S
C2647 C2648 1.398 . S
C2647 C2653 1.491 . S
C2648 H2639 0.950 . S
C2648 C2647 1.398 . S
C2648 C2649 1.391 . S
C2649 H2637 0.950 . S
C2649 C2645 1.393 . S
C2649 C2648 1.391 . S
C2650 H2640 0.950 . S
C2650 C2651 1.386 . S
C2650 C2652 1.391 . S
C2651 C2650 1.386 . S
C2651 C2655 1.393 . S
C2652 H2641 0.950 . S
C2652 C2650 1.391 . S
C2652 C2653 1.400 . S
C2653 C2647 1.491 . S
C2653 C2652 1.400 . S
C2653 C2654 1.398 . S
C2654 H2642 0.950 . S
C2654 C2653 1.398 . S
C2654 C2655 1.391 . S
C2655 H2643 0.950 . S
C2655 C2651 1.393 . S
C2655 C2654 1.391 . S
C1065 N2 0.572 . S
C1071 N332 0.567 . S
C1085 N365 0.664 . S
C1091 N35 0.658 . S
C1105 N266 0.601 . S
C1111 N68 0.632 . S
C1125 N101 0.665 . S
C1131 N299 0.655 . S
C1145 N134 0.595 . S
C1151 N464 0.572 . S
C1165 N167 0.567 . S
C1171 N497 0.582 . S
C1185 N398 0.569 . S
C1191 N200 0.589 . S
C1205 N431 0.568 . S
C1211 N233 0.571 . S
C1225 N860 0.580 . S
C1231 N530 0.608 . S
C1245 N893 0.582 . S
C1251 N563 0.611 . S
C1265 N596 0.661 . S
C1271 N794 0.663 . S
C1285 N827 0.658 . S
C1291 N629 0.636 . S
C1305 N662 0.662 . S
C1311 N992 0.662 . S
C1325 N1025 0.582 . S
C1331 N695 0.567 . S
C1345 N728 0.655 . S
C1351 N926 0.665 . S
C1365 N761 0.587 . S
C1371 N959 0.617 . S
C1385 C7 1.788 . S
C1391 C832 1.786 . S
C1405 C40 1.780 . S
C1411 C799 1.779 . S
C1425 C73 1.797 . S
C1431 C898 1.798 . S
C1445 C106 1.784 . S
C1451 C865 1.786 . S
C1465 C139 1.782 . S
C1471 C964 1.784 . S
C1485 C172 1.793 . S
C1491 C931 1.794 . S
C1505 C1030 1.794 . S
C1511 C205 1.792 . S
C1525 C238 1.802 . S
C1531 C997 1.802 . S
C1545 C568 1.802 . S
C1551 C271 1.802 . S
C1565 C304 1.786 . S
C1571 C535 1.785 . S
C1585 C337 1.800 . S
C1591 C634 1.801 . S
C1605 C601 1.783 . S
C1611 C370 1.782 . S
C1625 C700 1.801 . S
C1631 C403 1.800 . S
C1645 C667 1.780 . S
C1651 C436 1.780 . S
C1665 C469 1.779 . S
C1671 C766 1.779 . S
C1685 C733 1.782 . S
C1691 C502 1.781 . S
C1705 N79 1.041 . S
C1711 N13 1.045 . S
C1725 N46 1.049 . S
C1731 N112 1.038 . S
C1745 N211 1.051 . S
C1751 N145 1.035 . S
C1765 N178 1.048 . S
C1771 N244 1.039 . S
C1785 N277 1.051 . S
C1791 N343 1.035 . S
C1805 N310 1.047 . S
C1811 N376 1.040 . S
C1825 N475 1.035 . S
C1831 N409 1.051 . S
C1845 N508 1.051 . S
C1851 N442 1.035 . S
C1865 N607 1.049 . S
C1871 N541 1.038 . S
C1885 N574 1.043 . S
C1891 N640 1.043 . S
C1905 N673 1.048 . S
C1911 N739 1.038 . S
C1925 N706 1.052 . S
C1931 N772 1.034 . S
C1945 N871 1.046 . S
C1951 N805 1.040 . S
C1965 N838 1.043 . S
C1971 N904 1.044 . S
C1985 N937 1.040 . S
C1991 N1003 1.046 . S
C2005 N1036 1.052 . S
C2011 N970 1.035 . S
C2025 C747 1.964 . S
C2031 C18 1.962 . S
C2045 C516 1.958 . S
C2051 C51 1.962 . S
C2065 C84 1.960 . S
C2071 C945 1.964 . S
C2085 C186 1.959 . S
C2091 C117 1.963 . S
C2105 C150 1.960 . S
C2111 C615 1.964 . S
C2125 C183 1.962 . S
C2131 C384 1.958 . S
C2145 C813 1.960 . S
C2151 C216 1.964 . S
C2165 C249 1.962 . S
C2171 C54 1.964 . S
C2185 C282 1.964 . S
C2191 C1011 1.960 . S
C2205 C252 1.959 . S
C2211 C315 1.959 . S
C2225 C348 1.958 . S
C2231 C681 1.961 . S
C2245 C381 1.963 . S
C2251 C450 1.959 . S
C2265 C879 1.958 . S
C2271 C414 1.962 . S
C2285 C447 1.963 . S
C2291 C120 1.964 . S
C2305 C549 1.959 . S
C2311 C480 1.963 . S
C2325 C318 1.961 . S
C2331 C513 1.964 . S
C2345 C219 1.963 . S
C2351 C546 1.963 . S
C2365 C579 1.963 . S
C2371 C1044 1.959 . S
C2385 C612 1.964 . S
C2391 C417 1.961 . S
C2405 C645 1.960 . S
C2411 C714 1.959 . S
C2425 C678 1.964 . S
C2431 C87 1.960 . S
C2445 C711 1.964 . S
C2451 C912 1.962 . S
C2465 C285 1.960 . S
C2471 C744 1.964 . S
C2485 C582 1.961 . S
C2491 C777 1.964 . S
C2505 C483 1.960 . S
C2511 C810 1.959 . S
C2525 C843 1.963 . S
C2531 C780 1.963 . S
C2545 C153 1.960 . S
C2551 C876 1.959 . S
C2565 C978 1.961 . S
C2571 C909 1.964 . S
C2585 C942 1.959 . S
C2591 C351 1.962 . S
C2605 C975 1.959 . S
C2611 C648 1.960 . S
C2625 C21 1.964 . S
C2631 C1008 1.962 . S
C2645 C1041 1.962 . S
C2651 C846 1.958 . S
