# Generated by pormake.
# Topology unn, (4)-cn, num edge types: 1
# Building blocks:
#     Node 0, Type 0, BuildingBlock: NAWXER_clean_sbu_0, # of connection points: 4
#     Node 1, Type 0, BuildingBlock: NAWXER_clean_sbu_0, # of connection points: 4
#     Node 2, Type 0, BuildingBlock: NAWXER_clean_sbu_0, # of connection points: 4
#     Node 3, Type 0, BuildingBlock: NAWXER_clean_sbu_0, # of connection points: 4
#     Node 4, Type 0, BuildingBlock: NAWXER_clean_sbu_0, # of connection points: 4
#     Node 5, Type 0, BuildingBlock: NAWXER_clean_sbu_0, # of connection points: 4
#     Node 6, Type 0, BuildingBlock: NAWXER_clean_sbu_0, # of connection points: 4
#     Node 7, Type 0, BuildingBlock: NAWXER_clean_sbu_0, # of connection points: 4
#     Node 8, Type 0, BuildingBlock: NAWXER_clean_sbu_0, # of connection points: 4
#     Node 9, Type 0, BuildingBlock: NAWXER_clean_sbu_0, # of connection points: 4
#     Node 10, Type 0, BuildingBlock: NAWXER_clean_sbu_0, # of connection points: 4
#     Node 11, Type 0, BuildingBlock: NAWXER_clean_sbu_0, # of connection points: 4
#     Node 12, Type 0, BuildingBlock: NAWXER_clean_sbu_0, # of connection points: 4
#     Node 13, Type 0, BuildingBlock: NAWXER_clean_sbu_0, # of connection points: 4
#     Node 14, Type 0, BuildingBlock: NAWXER_clean_sbu_0, # of connection points: 4
#     Node 15, Type 0, BuildingBlock: NAWXER_clean_sbu_0, # of connection points: 4
#     Node 16, Type 0, BuildingBlock: NAWXER_clean_sbu_0, # of connection points: 4
#     Node 17, Type 0, BuildingBlock: NAWXER_clean_sbu_0, # of connection points: 4
#     Edge 18, Type (0, 0), BuildingBlock: OJICUG_clean_linker_0, # of connection points: 2
#     Edge 19, Type (0, 0), BuildingBlock: OJICUG_clean_linker_0, # of connection points: 2
#     Edge 20, Type (0, 0), BuildingBlock: OJICUG_clean_linker_0, # of connection points: 2
#     Edge 21, Type (0, 0), BuildingBlock: OJICUG_clean_linker_0, # of connection points: 2
#     Edge 22, Type (0, 0), BuildingBlock: OJICUG_clean_linker_0, # of connection points: 2
#     Edge 23, Type (0, 0), BuildingBlock: OJICUG_clean_linker_0, # of connection points: 2
#     Edge 24, Type (0, 0), BuildingBlock: OJICUG_clean_linker_0, # of connection points: 2
#     Edge 25, Type (0, 0), BuildingBlock: OJICUG_clean_linker_0, # of connection points: 2
#     Edge 26, Type (0, 0), BuildingBlock: OJICUG_clean_linker_0, # of connection points: 2
#     Edge 27, Type (0, 0), BuildingBlock: OJICUG_clean_linker_0, # of connection points: 2
#     Edge 28, Type (0, 0), BuildingBlock: OJICUG_clean_linker_0, # of connection points: 2
#     Edge 29, Type (0, 0), BuildingBlock: OJICUG_clean_linker_0, # of connection points: 2
#     Edge 30, Type (0, 0), BuildingBlock: OJICUG_clean_linker_0, # of connection points: 2
#     Edge 31, Type (0, 0), BuildingBlock: OJICUG_clean_linker_0, # of connection points: 2
#     Edge 32, Type (0, 0), BuildingBlock: OJICUG_clean_linker_0, # of connection points: 2
#     Edge 33, Type (0, 0), BuildingBlock: OJICUG_clean_linker_0, # of connection points: 2
#     Edge 34, Type (0, 0), BuildingBlock: OJICUG_clean_linker_0, # of connection points: 2
#     Edge 35, Type (0, 0), BuildingBlock: OJICUG_clean_linker_0, # of connection points: 2
#     Edge 36, Type (0, 0), BuildingBlock: OJICUG_clean_linker_0, # of connection points: 2
#     Edge 37, Type (0, 0), BuildingBlock: OJICUG_clean_linker_0, # of connection points: 2
#     Edge 38, Type (0, 0), BuildingBlock: OJICUG_clean_linker_0, # of connection points: 2
#     Edge 39, Type (0, 0), BuildingBlock: OJICUG_clean_linker_0, # of connection points: 2
#     Edge 40, Type (0, 0), BuildingBlock: OJICUG_clean_linker_0, # of connection points: 2
#     Edge 41, Type (0, 0), BuildingBlock: OJICUG_clean_linker_0, # of connection points: 2
#     Edge 42, Type (0, 0), BuildingBlock: OJICUG_clean_linker_0, # of connection points: 2
#     Edge 43, Type (0, 0), BuildingBlock: OJICUG_clean_linker_0, # of connection points: 2
#     Edge 44, Type (0, 0), BuildingBlock: OJICUG_clean_linker_0, # of connection points: 2
#     Edge 45, Type (0, 0), BuildingBlock: OJICUG_clean_linker_0, # of connection points: 2
#     Edge 46, Type (0, 0), BuildingBlock: OJICUG_clean_linker_0, # of connection points: 2
#     Edge 47, Type (0, 0), BuildingBlock: OJICUG_clean_linker_0, # of connection points: 2
#     Edge 48, Type (0, 0), BuildingBlock: OJICUG_clean_linker_0, # of connection points: 2
#     Edge 49, Type (0, 0), BuildingBlock: OJICUG_clean_linker_0, # of connection points: 2
#     Edge 50, Type (0, 0), BuildingBlock: OJICUG_clean_linker_0, # of connection points: 2
#     Edge 51, Type (0, 0), BuildingBlock: OJICUG_clean_linker_0, # of connection points: 2
#     Edge 52, Type (0, 0), BuildingBlock: OJICUG_clean_linker_0, # of connection points: 2
#     Edge 53, Type (0, 0), BuildingBlock: OJICUG_clean_linker_0, # of connection points: 2
# Relax obj value: 0.039
# Max RMSD: 0.205
# Mean RMSD: 0.205
data_MOF--net-unn--node1-NAWXER_clean_sbu_0--edge1-OJICUG_clean_linker_0
_symmetry_space_group_name_H-M    P1
_symmetry_Int_Tables_number       1
_symmetry_cell_setting            triclinic
loop_
_symmetry_equiv_pos_as_xyz
'x, y, z'
_cell_length_a     32.756711
_cell_length_b     32.794851
_cell_length_c     30.912181
_cell_angle_alpha  89.9565
_cell_angle_beta   90.01002
_cell_angle_gamma 119.96321
loop_
_atom_site_label
_atom_site_type_symbol
_atom_site_fract_x
_atom_site_fract_y
_atom_site_fract_z
_atom_type_partial_charge
C0 C 0.9465 0.73393 0.20108 0.0
C1 C 0.1064 0.81445 0.26839 0.0
O2 O 0.96867 0.77699 0.21291 0.0
Zn3 Zn 0.02644 0.77892 0.23479 0.0
O4 O 0.96483 0.70813 0.20839 0.0
Zn5 Zn 0.02724 0.71314 0.23386 0.0
O6 O 1.00476 0.6727 0.28437 0.0
O7 O 1.0042 0.73937 0.29269 0.0
O8 O 0.08889 0.77068 0.26006 0.0
O9 O 0.08352 0.83495 0.25742 0.0
O10 O 0.04975 0.76415 0.17624 0.0
O11 O 0.0509 0.69758 0.18272 0.0
C12 C 0.99833 0.70066 0.30823 0.0
C13 C 0.05681 0.73243 0.15981 0.0
C14 C 0.32611 0.23439 0.20033 0.0
C15 C 0.24787 0.31784 0.26365 0.0
O16 O 0.28239 0.21492 0.20975 0.0
Zn17 Zn 0.28205 0.2717 0.23159 0.0
O18 O 0.35286 0.27797 0.20884 0.0
Zn19 Zn 0.34952 0.33623 0.23311 0.0
O20 O 0.38745 0.3517 0.28479 0.0
O21 O 0.31856 0.28629 0.29089 0.0
O22 O 0.29218 0.34328 0.25676 0.0
O23 O 0.22672 0.27464 0.25223 0.0
O24 O 0.30043 0.31167 0.17407 0.0
O25 O 0.37062 0.37519 0.18203 0.0
C26 C 0.35728 0.31761 0.30769 0.0
C27 C 0.33501 0.34915 0.15857 0.0
C28 C 0.7413 0.94905 0.26845 0.0
C29 C 0.8213 0.10983 0.20323 0.0
O30 O 0.78484 0.97207 0.25802 0.0
Zn31 Zn 0.78643 0.02952 0.23598 0.0
O32 O 0.71515 0.96683 0.26042 0.0
Zn33 Zn 0.7196 0.02903 0.23529 0.0
O34 O 0.68085 1.00628 0.18368 0.0
O35 O 0.74846 1.00689 0.17794 0.0
O36 O 0.77719 0.09162 0.21054 0.0
O37 O 0.84208 0.08729 0.21443 0.0
O38 O 0.76935 0.05134 0.29359 0.0
O39 O 0.70193 0.05087 0.28653 0.0
C40 C 0.70999 1.00023 0.16115 0.0
C41 C 0.73673 0.05713 0.3098 0.0
C42 C 1.00095 0.31506 0.80973 0.0
C43 C 0.05518 0.3377 0.66043 0.0
O44 O 1.0055 0.28136 0.7944 0.0
Zn45 Zn 0.02544 0.26216 0.73638 0.0
O46 O 1.0073 0.34918 0.78549 0.0
Zn47 Zn 0.02747 0.32922 0.7349 0.0
O48 O 0.96347 0.27214 0.71157 0.0
O49 O 0.96655 0.20673 0.71667 0.0
O50 O 0.05045 0.36739 0.68328 0.0
O51 O 0.04769 0.29887 0.67709 0.0
O52 O 0.08232 0.26215 0.75826 0.0
O53 O 0.08919 0.33244 0.76024 0.0
C54 C 0.94431 0.22779 0.70539 0.0
C55 C 0.10606 0.30559 0.76865 0.0
C56 C 0.7233 0.68604 0.8082 0.0
C57 C 0.70807 0.72595 0.66001 0.0
O58 O 0.75918 0.72354 0.79439 0.0
Zn59 Zn 0.78095 0.766 0.73836 0.0
O60 O 0.68835 0.66189 0.78339 0.0
Zn61 Zn 0.71262 0.70305 0.7339 0.0
O62 O 0.76955 0.69467 0.71102 0.0
O63 O 0.83588 0.76202 0.71884 0.0
O64 O 0.67658 0.6913 0.68143 0.0
O65 O 0.74677 0.75548 0.67813 0.0
O66 O 0.78222 0.82282 0.76201 0.0
O67 O 0.71067 0.76141 0.76019 0.0
C68 C 0.81424 0.71936 0.70586 0.0
C69 C 0.73835 0.80433 0.77043 0.0
C70 C 0.32867 0.1068 0.69964 0.0
C71 C 0.25029 0.94539 0.76295 0.0
O72 O 0.35562 0.09019 0.70836 0.0
Zn73 Zn 0.35226 0.02862 0.73305 0.0
O74 O 0.28496 0.08249 0.70904 0.0
Zn75 Zn 0.28478 0.02561 0.7311 0.0
O76 O 0.32069 0.0472 0.79077 0.0
O77 O 0.38977 0.0509 0.78512 0.0
O78 O 0.22927 0.96756 0.75134 0.0
O79 O 0.29468 0.96417 0.75641 0.0
O80 O 0.37369 1.01068 0.68211 0.0
O81 O 0.30341 1.00385 0.67381 0.0
C82 C 0.35933 0.05457 0.80785 0.0
C83 C 0.33807 1.00087 0.65854 0.0
C84 C 0.60903 0.05146 0.54151 0.0
C85 C 0.77017 0.13571 0.60576 0.0
O86 O 0.63023 0.09406 0.55466 0.0
Zn87 Zn 0.68927 0.09794 0.57357 0.0
O88 O 0.62904 0.02671 0.54609 0.0
Zn89 Zn 0.69445 0.03489 0.56831 0.0
O90 O 0.6776 0.99316 0.61738 0.0
O91 O 0.66858 0.05481 0.62916 0.0
O92 O 0.75474 0.09288 0.59506 0.0
O93 O 0.74501 0.15452 0.59761 0.0
O94 O 0.71268 0.08797 0.51299 0.0
O95 O 0.71867 0.02376 0.51551 0.0
C96 C 0.66683 0.01709 0.64249 0.0
C97 C 0.72184 0.05862 0.49448 0.0
C98 C 1.02187 0.65165 0.64188 0.0
C99 C 0.99004 0.67544 0.49263 0.0
O100 O 0.04954 0.68609 0.61788 0.0
Zn101 Zn 1.00945 0.66652 0.56708 0.0
O102 O 0.98376 0.61797 0.6263 0.0
Zn103 Zn 0.9447 0.59914 0.56816 0.0
O104 O 0.94863 0.54414 0.54773 0.0
O105 O 1.01678 0.60996 0.54296 0.0
O106 O 0.95891 0.6364 0.50914 0.0
O107 O 1.02434 0.70511 0.51561 0.0
O108 O 0.95063 0.66891 0.59273 0.0
O109 O 0.88754 0.59839 0.59027 0.0
C110 C 0.99189 0.56566 0.53634 0.0
C111 C 0.90695 0.6417 0.60106 0.0
C112 C 0.48743 0.44139 0.53476 0.0
C113 C 0.40872 0.28014 0.59906 0.0
O114 O 0.50853 0.41909 0.54572 0.0
Zn115 Zn 0.45318 0.36087 0.567 0.0
O116 O 0.44326 0.42274 0.54202 0.0
Zn117 Zn 0.38603 0.35964 0.56653 0.0
O118 O 0.36804 0.38093 0.61791 0.0
O119 O 0.4358 0.38206 0.62481 0.0
O120 O 0.38218 0.29752 0.59127 0.0
O121 O 0.45225 0.30365 0.58867 0.0
O122 O 0.41523 0.33826 0.50893 0.0
O123 O 0.34728 0.3369 0.51495 0.0
C124 C 0.40297 0.38743 0.64111 0.0
C125 C 0.3766 0.3313 0.49226 0.0
C126 C 0.6653 0.65175 0.142 0.0
C127 C 0.71786 0.68206 -0.00758 0.0
O128 O 0.67293 0.62051 0.12538 0.0
Zn129 Zn 0.69455 0.60559 0.06611 0.0
O130 O 0.66863 0.68544 0.11885 0.0
Zn131 Zn 0.69083 0.66967 0.06712 0.0
O132 O 0.6292 0.61075 0.04352 0.0
O133 O 0.63769 0.54833 0.04492 0.0
O134 O 0.70797 0.70804 0.01561 0.0
O135 O 0.71543 0.64493 0.00827 0.0
O136 O 0.75321 0.60924 0.08639 0.0
O137 O 0.7558 0.67763 0.09043 0.0
C138 C 0.61284 0.56715 0.03546 0.0
C139 C 0.7751 0.65257 0.09737 0.0
C140 C 0.40531 0.02973 0.14134 0.0
C141 C 0.37754 0.06027 -0.00724 0.0
O142 O 0.4375 0.06848 0.12534 0.0
Zn143 Zn 0.45385 0.10776 0.06777 0.0
O144 O 0.37054 1.00136 0.11803 0.0
Zn145 Zn 0.3875 0.04132 0.06705 0.0
O146 O 0.44561 0.03733 0.04184 0.0
O147 O 0.51007 0.10674 0.0458 0.0
O148 O 0.34866 0.02504 0.01537 0.0
O149 O 0.41582 0.0923 0.00958 0.0
O150 O 0.45158 0.1631 0.08987 0.0
O151 O 0.38215 0.0985 0.09248 0.0
C152 C 0.48964 0.06357 0.03435 0.0
C153 C 0.40807 0.14242 0.1004 0.0
C154 C 0.99417 0.44309 0.0366 0.0
C155 C 0.91238 0.28185 0.10076 0.0
O156 O 1.01987 0.42464 0.04384 0.0
Zn157 Zn 1.01436 0.36175 0.06832 0.0
O158 O 0.95082 0.42066 0.0477 0.0
Zn159 Zn 0.94835 0.36252 0.06878 0.0
O160 O 0.98664 0.3833 0.12705 0.0
O161 O 0.05362 0.38295 0.11958 0.0
O162 O 0.89208 0.30505 0.0902 0.0
O163 O 0.95633 0.29948 0.09299 0.0
O164 O 0.0308 0.33927 0.01696 0.0
O165 O 0.96411 0.34039 0.01037 0.0
C166 C 0.02499 0.38876 0.14312 0.0
C167 C 0.99609 0.33371 -0.00603 0.0
C168 C 0.27768 0.38552 0.87193 0.0
C169 C 0.43898 0.47144 0.9357 0.0
O170 O 0.29868 0.42834 0.88445 0.0
Zn171 Zn 0.35781 0.4327 0.90394 0.0
O172 O 0.29785 0.36102 0.8773 0.0
Zn173 Zn 0.36336 0.36978 0.9 0.0
O174 O 0.34666 0.32905 0.94982 0.0
O175 O 0.3373 0.39069 0.96022 0.0
O176 O 0.42376 0.42843 0.92582 0.0
O177 O 0.41348 0.48976 0.92715 0.0
O178 O 0.38108 0.42161 0.84378 0.0
O179 O 0.3873 0.35757 0.84752 0.0
C180 C 0.33573 0.35331 0.97433 0.0
C181 C 0.39019 0.39195 0.82584 0.0
C182 C 0.66789 1.01279 0.82665 0.0
C183 C 0.69066 0.98421 0.97659 0.0
O184 O 0.70368 0.03924 0.84975 0.0
Zn185 Zn 0.68281 1.00124 0.90149 0.0
O186 O 0.63343 0.97559 0.8427 0.0
Zn187 Zn 0.61538 0.93673 0.90078 0.0
O188 O 0.55999 0.93979 0.92073 0.0
O189 O 0.62536 1.00862 0.92442 0.0
O190 O 0.65193 0.95253 0.9601 0.0
O191 O 0.7208 0.01782 0.95325 0.0
O192 O 0.68623 0.94253 0.8784 0.0
O193 O 0.61563 0.87967 0.8801 0.0
C194 C 0.58104 0.98321 0.93138 0.0
C195 C 0.6593 0.89881 0.87061 0.0
C196 C 0.15821 0.77537 0.86813 0.0
C197 C 0.07617 0.61505 0.93394 0.0
O198 O 0.17837 0.7524 0.8798 0.0
Zn199 Zn 0.12185 0.69533 0.90139 0.0
O200 O 0.11419 0.75794 0.87554 0.0
Zn201 Zn 0.05599 0.69601 0.90077 0.0
O202 O 0.03882 0.7187 0.95161 0.0
O203 O 0.10529 0.7175 0.95962 0.0
O204 O 0.05037 0.63328 0.92611 0.0
O205 O 0.11959 0.63755 0.9231 0.0
O206 O 0.08383 0.67352 0.84279 0.0
O207 O 1.01678 0.67387 0.84949 0.0
C208 C 0.07296 0.72409 0.97537 0.0
C209 C 0.04543 0.66763 0.8264 0.0
C210 C 0.3372 0.99355 0.47418 0.0
C211 C 0.39264 1.00857 0.32596 0.0
O212 O 0.3378 0.95716 0.46028 0.0
Zn213 Zn 0.35797 0.93489 0.40398 0.0
O214 O 0.34877 0.0287 0.4494 0.0
Zn215 Zn 0.36498 1.00383 0.39995 0.0
O216 O 0.29906 0.94825 0.3769 0.0
O217 O 0.29835 0.88101 0.38441 0.0
O218 O 0.39036 0.04025 0.34784 0.0
O219 O 0.38239 0.96933 0.34365 0.0
O220 O 0.41256 0.93161 0.4281 0.0
O221 O 0.42399 1.00363 0.42697 0.0
C222 C 0.27813 0.90357 0.37165 0.0
C223 C 0.43828 0.97516 0.43733 0.0
C224 C 0.07593 0.47603 0.43591 0.0
C225 C 0.15718 0.39695 0.36941 0.0
O226 O 0.05004 0.43221 0.42759 0.0
Zn227 Zn 0.05517 0.37507 0.40181 0.0
O228 O 0.11949 0.49678 0.42551 0.0
Zn229 Zn 0.12154 0.44125 0.40317 0.0
O230 O 0.08394 0.42633 0.34459 0.0
O231 O 1.01648 0.3593 0.35029 0.0
O232 O 0.17774 0.43996 0.38139 0.0
O233 O 0.11309 0.37082 0.37662 0.0
O234 O 0.0373 0.33457 0.45224 0.0
O235 O 0.10422 0.40156 0.46075 0.0
C236 C 0.04557 0.39444 0.32774 0.0
C237 C 0.07156 0.36268 0.47617 0.0
C238 C 0.65898 0.77584 0.3693 0.0
C239 C 0.57783 0.61468 0.43392 0.0
O240 O 0.68473 0.75743 0.37648 0.0
Zn241 Zn 0.67953 0.69466 0.40086 0.0
O242 O 0.61559 0.7533 0.38031 0.0
Zn243 Zn 0.61324 0.69526 0.40157 0.0
O244 O 0.65215 0.71689 0.4592 0.0
O245 O 0.71903 0.7163 0.45208 0.0
O246 O 0.55732 0.63773 0.42355 0.0
O247 O 0.62175 0.63246 0.42588 0.0
O248 O 0.69554 0.67208 0.34919 0.0
O249 O 0.62862 0.67285 0.34339 0.0
C250 C 0.69055 0.72261 0.47537 0.0
C251 C 0.66044 0.66619 0.3266 0.0
C252 C 0.0463 0.75484 0.08547 0.0
C253 C 0.06494 0.73379 0.11289 0.0
H254 H 0.03352 0.7677 0.02015 0.0
C255 C 0.08826 0.71197 0.09476 0.0
H256 H 0.02761 0.77148 0.09868 0.0
C257 C 0.09254 0.71088 0.04991 0.0
C258 C 0.07243 0.73045 0.02245 0.0
H259 H 0.10273 0.69542 0.11516 0.0
H260 H 0.11001 0.693 0.0367 0.0
C261 C 0.04944 0.7526 0.04059 0.0
C262 C 0.37204 0.35179 0.04362 0.0
C263 C 0.33253 0.34659 0.02115 0.0
H264 H 0.40475 0.35944 0.10543 0.0
C265 C 0.29522 0.34585 0.04406 0.0
H266 H 0.40191 0.35416 0.02628 0.0
C267 C 0.29677 0.34872 0.08915 0.0
C268 C 0.33666 0.35473 0.11158 0.0
H269 H 0.26514 0.34335 0.02703 0.0
H270 H 0.26689 0.3462 0.10656 0.0
C271 C 0.37431 0.35633 0.08855 0.0
C272 C 0.74456 1.01 0.08784 0.0
C273 C 0.70414 0.99244 0.11423 0.0
H274 H 0.77208 0.02173 0.02329 0.0
C275 C 0.65951 0.97023 0.09509 0.0
H276 H 0.77957 0.02785 0.10182 0.0
C277 C 0.6554 0.96587 0.05018 0.0
C278 C 0.6959 0.98479 0.02378 0.0
H279 H 0.62798 0.9566 0.11472 0.0
H280 H 0.62047 0.94925 0.03605 0.0
C281 C 0.74048 1.00675 0.04295 0.0
C282 C 0.75591 0.04464 0.42798 0.0
C283 C 0.72971 0.06254 0.44756 0.0
H284 H 0.77955 0.03017 0.36884 0.0
C285 C 0.70803 0.08171 0.42164 0.0
H286 H 0.7728 0.02968 0.44728 0.0
C287 C 0.71092 0.08116 0.3766 0.0
C288 C 0.73661 0.06262 0.35699 0.0
H289 H 0.68715 0.09534 0.43612 0.0
H290 H 0.69258 0.0945 0.3572 0.0
C291 C 0.75986 0.04525 0.3831 0.0
C292 C 0.96868 0.64262 0.41818 0.0
C293 C 0.9886 0.68215 0.4457 0.0
H294 H 0.95669 0.61736 0.35276 0.0
C295 C 1.00921 0.72728 0.4277 0.0
H296 H 0.95296 0.60732 0.43131 0.0
C297 C 1.01023 0.73281 0.38288 0.0
C298 C 0.99183 0.69336 0.35529 0.0
H299 H 0.02486 0.75819 0.44819 0.0
H300 H 0.0272 0.7682 0.36981 0.0
C301 C 0.97087 0.6482 0.3733 0.0
C302 C 0.41116 0.34159 0.41889 0.0
C303 C 0.37075 0.32377 0.4453 0.0
H304 H 0.43868 0.35418 0.35431 0.0
C305 C 0.32612 0.30174 0.42616 0.0
H306 H 0.44618 0.35929 0.43286 0.0
C307 C 0.322 0.29796 0.38123 0.0
C308 C 0.3625 0.31727 0.35482 0.0
H309 H 0.29458 0.28791 0.44582 0.0
H310 H 0.28708 0.28156 0.36711 0.0
C311 C 0.40708 0.33892 0.37398 0.0
C312 C 1.01579 0.2968 0.88408 0.0
C313 C 0.99618 0.31702 0.85681 0.0
H314 H 0.03196 0.28692 0.94916 0.0
C315 C 0.97533 0.34119 0.87504 0.0
H316 H 0.03277 0.27849 0.87072 0.0
C317 C 0.97407 0.34505 0.91989 0.0
C318 C 0.99481 0.32592 0.94709 0.0
H319 H 0.9603 0.35726 0.85469 0.0
H320 H 0.9582 0.36442 0.93323 0.0
C321 C 1.01568 0.30176 0.92887 0.0
C322 C 0.75679 0.68234 0.92352 0.0
C323 C 0.72209 0.68744 0.94543 0.0
H324 H 0.78425 0.67767 0.86183 0.0
C325 C 0.68576 0.68799 0.92191 0.0
H326 H 0.78439 0.68063 0.94133 0.0
C327 C 0.6841 0.6834 0.87698 0.0
C328 C 0.71927 0.67919 0.85501 0.0
H329 H 0.65783 0.69039 0.93839 0.0
H330 H 0.65638 0.68501 0.85925 0.0
C331 C 0.75603 0.67941 0.87844 0.0
C332 C 0.32739 0.03876 0.92628 0.0
C333 C 0.37188 0.06184 0.9457 0.0
H334 H 0.28874 0.01953 0.86697 0.0
C335 C 0.41242 0.08475 0.91946 0.0
H336 H 0.29576 0.02075 0.94577 0.0
C337 C 0.40862 0.08327 0.8745 0.0
C338 C 0.36419 0.05994 0.85507 0.0
H339 H 0.44734 0.10241 0.93362 0.0
H340 H 0.44034 0.09991 0.85501 0.0
C341 C 0.32355 0.03836 0.88128 0.0
C342 C 0.37624 0.03228 0.58793 0.0
C343 C 0.33953 0.99605 0.61162 0.0
H344 H 0.40264 0.0611 0.5251 0.0
C345 C 0.3001 0.9608 0.5898 0.0
H346 H 0.40626 0.06061 0.60431 0.0
C347 C 0.29812 0.96097 0.54467 0.0
C348 C 0.33445 0.99768 0.52104 0.0
H349 H 0.27089 0.93325 0.60771 0.0
H350 H 0.26841 0.93242 0.52817 0.0
C351 C 0.37348 0.03336 0.54292 0.0
C352 C 0.08787 0.38933 0.59552 0.0
C353 C 0.06311 0.34425 0.61353 0.0
H354 H 0.11089 0.43018 0.53766 0.0
C355 C 0.04313 0.30467 0.58608 0.0
H356 H 0.10344 0.42026 0.616 0.0
C357 C 0.0464 0.3102 0.5412 0.0
C358 C 0.07083 0.35534 0.52318 0.0
H359 H 1.02335 0.26941 0.59927 0.0
H360 H 0.02946 0.27935 0.52068 0.0
C361 C 0.09225 0.3948 0.55073 0.0
C362 C 0.74072 0.74736 0.54194 0.0
C363 C 0.69635 0.72835 0.52252 0.0
H364 H 0.77907 0.76242 0.60129 0.0
C365 C 0.65586 0.71097 0.54879 0.0
H366 H 0.77231 0.76073 0.52242 0.0
C367 C 0.65948 0.71088 0.59367 0.0
C368 C 0.70373 0.7293 0.61307 0.0
H369 H 0.621 0.69554 0.53465 0.0
H370 H 0.62773 0.69592 0.61311 0.0
C371 C 0.74443 0.74841 0.58696 0.0
C372 C 0.37557 0.41373 0.75276 0.0
C373 C 0.39738 0.39481 0.77884 0.0
H374 H 0.35954 0.42566 0.68825 0.0
C375 C 0.42297 0.37616 0.75937 0.0
H376 H 0.35511 0.4279 0.76713 0.0
C377 C 0.4263 0.37593 0.71446 0.0
C378 C 0.40305 0.39322 0.68825 0.0
H379 H 0.43991 0.36133 0.77878 0.0
H380 H 0.4456 0.36039 0.70027 0.0
C381 C 0.37785 0.41236 0.70773 0.0
C382 C 0.70439 0.01661 0.71126 0.0
C383 C 0.66405 1.00983 0.6892 0.0
H384 H 0.73811 0.02554 0.77274 0.0
C385 C 0.62623 1.00746 0.71252 0.0
H386 H 0.73464 0.02032 0.69358 0.0
C387 C 0.62815 1.01034 0.7576 0.0
C388 C 0.66884 0.01794 0.77962 0.0
H389 H 0.5955 1.00382 0.69581 0.0
H390 H 0.59796 1.00669 0.77531 0.0
C391 C 0.70697 0.02112 0.7562 0.0
C392 C 0.99388 0.63692 0.76111 0.0
C393 C 0.03891 0.66043 0.77942 0.0
H394 H 0.95351 0.61485 0.70286 0.0
C395 C 0.07877 0.6797 0.7522 0.0
H396 H 0.96275 0.62202 0.78139 0.0
C397 C 0.07366 0.67662 0.70729 0.0
C398 C 0.02862 0.65306 0.68899 0.0
H399 H 0.11402 0.69861 0.76559 0.0
H400 H 0.10476 0.69277 0.68697 0.0
C401 C 0.98879 0.6327 0.71625 0.0
C402 C 0.63581 0.67615 0.25324 0.0
C403 C 0.65865 0.65859 0.27965 0.0
H404 H 0.62048 0.68834 0.18866 0.0
C405 C 0.68139 0.6367 0.26051 0.0
H406 H 0.6184 0.69374 0.26722 0.0
C407 C 0.68156 0.63275 0.21558 0.0
C408 C 0.66007 0.65175 0.18917 0.0
H409 H 0.69929 0.62307 0.28015 0.0
H410 H 0.70015 0.61642 0.20147 0.0
C411 C 0.63705 0.67331 0.20833 0.0
C412 C 0.38042 0.97822 0.2072 0.0
C413 C 0.40595 0.0229 0.18838 0.0
H414 H 0.35731 0.93874 0.26603 0.0
C415 C 0.42989 0.06269 0.21527 0.0
H416 H 0.36162 0.94712 0.18724 0.0
C417 C 0.42663 0.05814 0.26014 0.0
C418 C 0.40043 1.01361 0.27896 0.0
H419 H 0.44955 0.09776 0.20167 0.0
H420 H 0.44395 0.08944 0.28006 0.0
C421 C 0.37821 0.97356 0.2522 0.0
C422 C 0.99502 0.37461 0.26187 0.0
C423 C 0.03975 0.39599 0.28076 0.0
H424 H 0.95558 0.35676 0.20312 0.0
C425 C 0.08005 0.41706 0.2541 0.0
H426 H 0.96357 0.35803 0.28172 0.0
C427 C 0.07568 0.4155 0.20916 0.0
C428 C 0.03094 0.394 0.19027 0.0
H429 H 0.1151 0.43332 0.26795 0.0
H430 H 0.10711 0.43072 0.18927 0.0
C431 C 0.99065 0.3742 0.21697 0.0
C432 C 0.2115 0.90613 0.3332 0.0
C433 C 0.23298 0.88019 0.34697 0.0
H434 H 0.15523 0.90631 0.2975 0.0
C435 C 0.21269 0.83302 0.33412 0.0
H436 H 0.22625 0.94272 0.34226 0.0
C437 C 0.17233 0.81244 0.30806 0.0
C438 C 0.15086 0.83832 0.29412 0.0
H439 H 0.22832 0.81207 0.34368 0.0
H440 H 0.15785 0.77589 0.29899 0.0
C441 C 0.17091 0.88544 0.30721 0.0
C442 C 0.24896 0.38597 0.30239 0.0
C443 C 0.22381 0.33843 0.28907 0.0
H444 H 0.24832 0.44169 0.33839 0.0
C445 C 0.17718 0.31049 0.30325 0.0
H446 H 0.28514 0.40864 0.29238 0.0
C447 C 0.15633 0.32945 0.33004 0.0
C448 C 0.18145 0.37696 0.34345 0.0
H449 H 0.15688 0.27376 0.29412 0.0
H450 H 0.12017 0.30667 0.34007 0.0
C451 C 0.22806 0.40498 0.32917 0.0
C452 C 0.67226 0.88081 0.30485 0.0
C453 C 0.72041 0.90398 0.29316 0.0
H454 H 0.61521 0.82297 0.33823 0.0
C455 C 0.74808 0.88513 0.30773 0.0
H456 H 0.64971 0.89436 0.29448 0.0
C457 C 0.72816 0.84424 0.33318 0.0
C458 C 0.68 0.82106 0.34482 0.0
H459 H 0.78521 0.90211 0.29979 0.0
H460 H 0.75068 0.83066 0.34354 0.0
C461 C 0.65235 0.83996 0.33031 0.0
C462 C 0.89187 0.17313 0.16346 0.0
C463 C 0.84549 0.15472 0.17826 0.0
H464 H 0.9488 0.22683 0.12699 0.0
C465 C 0.82066 0.17798 0.16639 0.0
H466 H 0.9119 0.15605 0.17152 0.0
C467 C 0.84163 0.21852 0.14048 0.0
C468 C 0.88802 0.23692 0.12567 0.0
H469 H 0.78468 0.16474 0.17695 0.0
H470 H 0.82163 0.23563 0.13243 0.0
C471 C 0.91282 0.21363 0.13753 0.0
C472 C 0.83955 0.64634 0.13608 0.0
C473 C 0.82014 0.67377 0.12224 0.0
H474 H 0.89372 0.64345 0.1721 0.0
C475 C 0.8423 0.72138 0.1353 0.0
H476 H 0.82334 0.60958 0.1271 0.0
C477 C 0.88267 0.74094 0.16154 0.0
C478 C 0.90196 0.71342 0.17549 0.0
H479 H 0.82824 0.74366 0.12554 0.0
H480 H 0.89888 0.77767 0.17062 0.0
C481 C 0.87983 0.66586 0.1623 0.0
C482 C 0.31885 0.16336 0.16119 0.0
C483 C 0.34675 0.20967 0.17605 0.0
H484 H 0.31607 0.10624 0.12536 0.0
C485 C 0.39508 0.2341 0.16498 0.0
H486 H 0.28158 0.14363 0.16867 0.0
C487 C 0.41492 0.21293 0.13977 0.0
C488 C 0.38706 0.16665 0.12491 0.0
H489 H 0.41784 0.27001 0.17555 0.0
H490 H 0.45218 0.23274 0.13226 0.0
C491 C 0.33874 0.14213 0.13601 0.0
C492 C 0.83363 0.20662 0.64539 0.0
C493 C 0.81508 0.16021 0.63076 0.0
H494 H 0.8884 0.264 0.68071 0.0
C495 C 0.83868 0.13561 0.64227 0.0
H496 H 0.81631 0.22648 0.63757 0.0
C497 C 0.87975 0.15683 0.6674 0.0
C498 C 0.89858 0.20336 0.68169 0.0
H499 H 0.82534 0.09957 0.632 0.0
H500 H 0.89706 0.13694 0.67508 0.0
C501 C 0.87489 0.22794 0.67043 0.0
C502 C 0.8352 0.63281 0.64051 0.0
C503 C 0.88208 0.66107 0.62699 0.0
H504 H 0.77732 0.62876 0.67636 0.0
C505 C 0.9069 0.70839 0.64095 0.0
H506 H 0.81516 0.59624 0.63083 0.0
C507 C 0.88553 0.72696 0.66749 0.0
C508 C 0.83859 0.69887 0.6808 0.0
H509 H 0.94324 0.73135 0.63156 0.0
H510 H 0.90566 0.76357 0.67705 0.0
C511 C 0.81371 0.6515 0.66698 0.0
C512 C 0.32056 0.16977 0.65996 0.0
C513 C 0.34894 0.15197 0.67511 0.0
H514 H 0.31692 0.22343 0.62373 0.0
C515 C 0.39728 0.17623 0.66408 0.0
H516 H 0.28327 0.15193 0.66738 0.0
C517 C 0.41669 0.21711 0.63866 0.0
C518 C 0.38833 0.23495 0.62355 0.0
H519 H 0.42037 0.1635 0.67487 0.0
H520 H 0.45397 0.23493 0.63123 0.0
C521 C 0.33999 0.21069 0.63456 0.0
C522 C 0.17923 0.88229 0.80215 0.0
C523 C 0.22592 0.90069 0.7882 0.0
H524 H 0.12184 0.82927 0.83866 0.0
C525 C 0.25075 0.87793 0.80158 0.0
H526 H 0.15916 0.899 0.79294 0.0
C527 C 0.22948 0.83793 0.82823 0.0
C528 C 0.18282 0.81965 0.84229 0.0
H529 H 0.28696 0.89122 0.79175 0.0
H530 H 0.2495 0.82119 0.83752 0.0
C531 C 0.15802 0.8424 0.8288 0.0
C532 C 0.17309 0.37308 0.80753 0.0
C533 C 0.15063 0.32557 0.79416 0.0
H534 H 0.22978 0.42895 0.84282 0.0
C535 C 0.16963 0.2977 0.80788 0.0
H536 H 0.15943 0.39576 0.79798 0.0
C537 C 0.21013 0.31695 0.83397 0.0
C538 C 0.23257 0.36452 0.84722 0.0
H539 H 0.15316 0.261 0.79865 0.0
H540 H 0.22404 0.29448 0.84353 0.0
C541 C 0.21336 0.39222 0.8337 0.0
C542 C 0.66997 0.80596 0.80567 0.0
C543 C 0.71848 0.82936 0.79533 0.0
H544 H 0.6133 0.80879 0.83777 0.0
C545 C 0.74728 0.87502 0.8113 0.0
H546 H 0.64655 0.77052 0.79428 0.0
C547 C 0.72805 0.89675 0.83662 0.0
C548 C 0.67949 0.87343 0.84676 0.0
H549 H 0.78471 0.89393 0.80443 0.0
H550 H 0.75142 0.93222 0.84797 0.0
C551 C 0.65075 0.82766 0.83102 0.0
C552 C 0.55797 0.50566 0.49574 0.0
C553 C 0.51141 0.48662 0.51026 0.0
H554 H 0.6149 0.56016 0.45992 0.0
C555 C 0.4863 0.50965 0.49861 0.0
H556 H 0.57824 0.48879 0.50364 0.0
C557 C 0.50715 0.55057 0.47317 0.0
C558 C 0.5537 0.56957 0.45861 0.0
H559 H 0.45018 0.49594 0.50897 0.0
H560 H 0.48691 0.56745 0.46524 0.0
C561 C 0.57879 0.54651 0.47028 0.0
C562 C 0.54083 0.98365 0.50333 0.0
C563 C 0.56388 0.03112 0.51694 0.0
H564 H 0.48353 0.9286 0.46745 0.0
C565 C 0.54529 0.05949 0.50385 0.0
H566 H 0.55425 0.96069 0.51261 0.0
C567 C 0.50521 0.04118 0.47753 0.0
C568 C 0.48225 0.99384 0.4636 0.0
H569 H 0.56213 0.09614 0.51332 0.0
H570 H 0.49212 0.06443 0.46827 0.0
C571 C 0.50042 0.96519 0.47712 0.0
C572 C 0.08185 0.5466 0.47476 0.0
C573 C 0.05471 0.49986 0.46074 0.0
H574 H 0.0836 0.60361 0.50993 0.0
C575 C 1.00673 0.47441 0.47289 0.0
H576 H 0.11885 0.56713 0.46643 0.0
C577 C 0.98645 0.4951 0.49821 0.0
C578 C 1.01353 0.54189 0.5121 0.0
H579 H 0.98458 0.43815 0.46299 0.0
H580 H 0.94944 0.47456 0.50647 0.0
C581 C 0.06154 0.56733 0.50004 0.0
C582 C 0.50943 0.4737 0.97073 0.0
C583 C 0.48405 0.49682 0.96036 0.0
H584 H 0.56921 0.47703 0.00277 0.0
C585 C 0.5008 0.54255 0.97609 0.0
H586 H 0.49752 0.43823 0.95949 0.0
C587 C 0.54186 0.56459 0.00128 0.0
C588 C 0.56733 0.54152 0.01152 0.0
H589 H 0.48209 0.56127 0.96919 0.0
H590 H 0.55382 0.60008 0.01248 0.0
C591 C 0.55046 0.49572 -0.00406 0.0
C592 C 0.5818 0.05192 0.96862 0.0
C593 C 0.55682 1.00415 0.95598 0.0
H594 H 0.58084 0.10811 0.00347 0.0
C595 C 0.51012 0.97635 0.97006 0.0
H596 H 0.61802 0.07449 0.95866 0.0
C597 C 0.48907 0.99565 -0.00387 0.0
C598 C 0.51404 0.04336 0.00891 0.0
H599 H 0.48994 0.93947 0.96141 0.0
H600 H 0.45289 0.97294 0.00615 0.0
C601 C 0.56069 0.07127 -0.0053 0.0
C602 C 1.00724 0.54746 0.97119 0.0
C603 C 0.05524 0.57024 0.95906 0.0
H604 H 0.95041 0.49021 0.00537 0.0
C605 C 0.08289 0.55138 0.97369 0.0
H606 H 0.98474 0.56104 0.96079 0.0
C607 C 0.06311 0.51088 -0.00036 0.0
C608 C 1.0151 0.48806 0.01172 0.0
H609 H 0.11993 0.56809 0.96543 0.0
H610 H 0.08562 0.4973 0.01001 0.0
C611 C 0.98745 0.50695 -0.00286 0.0
loop_
_geom_bond_atom_site_label_1
_geom_bond_atom_site_label_2
_geom_bond_distance
_geom_bond_site_symmetry_2
_ccdc_geom_bond_type
C0 O2 1.247 . S
C0 O4 1.258 . S
C1 O8 1.247 . S
C1 O9 1.258 . S
O2 C0 1.247 . S
O2 Zn3 2.028 1_655 S
Zn3 O2 2.028 1_455 S
Zn3 O7 2.035 1_455 S
Zn3 O9 2.035 . S
Zn3 O10 2.028 . S
O4 C0 1.258 . S
O4 Zn5 2.035 1_655 S
Zn5 O4 2.035 1_455 S
Zn5 O6 2.028 1_455 S
Zn5 O8 2.028 . S
Zn5 O11 2.035 . S
O6 Zn5 2.028 1_655 S
O6 C12 1.247 . S
O7 Zn3 2.035 1_655 S
O7 C12 1.258 . S
O8 C1 1.247 . S
O8 Zn5 2.028 . S
O9 C1 1.258 . S
O9 Zn3 2.035 . S
O10 Zn3 2.028 . S
O10 C13 1.247 . S
O11 Zn5 2.035 . S
O11 C13 1.258 . S
C12 O6 1.247 . S
C12 O7 1.258 . S
C13 O10 1.247 . S
C13 O11 1.258 . S
C14 O16 1.247 . S
C14 O18 1.258 . S
C15 O22 1.247 . S
C15 O23 1.258 . S
O16 C14 1.247 . S
O16 Zn17 2.028 . S
Zn17 O16 2.028 . S
Zn17 O21 2.035 . S
Zn17 O23 2.035 . S
Zn17 O24 2.028 . S
O18 C14 1.258 . S
O18 Zn19 2.035 . S
Zn19 O18 2.035 . S
Zn19 O20 2.028 . S
Zn19 O22 2.028 . S
Zn19 O25 2.035 . S
O20 Zn19 2.028 . S
O20 C26 1.247 . S
O21 Zn17 2.035 . S
O21 C26 1.258 . S
O22 C15 1.247 . S
O22 Zn19 2.028 . S
O23 C15 1.258 . S
O23 Zn17 2.035 . S
O24 Zn17 2.028 . S
O24 C27 1.247 . S
O25 Zn19 2.035 . S
O25 C27 1.258 . S
C26 O20 1.247 . S
C26 O21 1.258 . S
C27 O24 1.247 . S
C27 O25 1.258 . S
C28 O30 1.247 . S
C28 O32 1.258 . S
C29 O36 1.247 . S
C29 O37 1.258 . S
O30 C28 1.247 . S
O30 Zn31 2.028 1_565 S
Zn31 O30 2.028 1_545 S
Zn31 O35 2.035 1_545 S
Zn31 O37 2.035 . S
Zn31 O38 2.028 . S
O32 C28 1.258 . S
O32 Zn33 2.035 1_565 S
Zn33 O32 2.035 1_545 S
Zn33 O34 2.028 1_545 S
Zn33 O36 2.028 . S
Zn33 O39 2.035 . S
O34 Zn33 2.028 1_565 S
O34 C40 1.247 . S
O35 Zn31 2.035 1_565 S
O35 C40 1.258 . S
O36 C29 1.247 . S
O36 Zn33 2.028 . S
O37 C29 1.258 . S
O37 Zn31 2.035 . S
O38 Zn31 2.028 . S
O38 C41 1.247 . S
O39 Zn33 2.035 . S
O39 C41 1.258 . S
C40 O34 1.247 . S
C40 O35 1.258 . S
C41 O38 1.247 . S
C41 O39 1.258 . S
C42 O44 1.247 . S
C42 O46 1.258 . S
C43 O50 1.247 . S
C43 O51 1.258 . S
O44 C42 1.247 . S
O44 Zn45 2.028 1_655 S
Zn45 O44 2.028 1_455 S
Zn45 O49 2.035 1_455 S
Zn45 O51 2.035 . S
Zn45 O52 2.028 . S
O46 C42 1.258 . S
O46 Zn47 2.035 1_655 S
Zn47 O46 2.035 1_455 S
Zn47 O48 2.028 1_455 S
Zn47 O50 2.028 . S
Zn47 O53 2.035 . S
O48 Zn47 2.028 1_655 S
O48 C54 1.247 . S
O49 Zn45 2.035 1_655 S
O49 C54 1.258 . S
O50 C43 1.247 . S
O50 Zn47 2.028 . S
O51 C43 1.258 . S
O51 Zn45 2.035 . S
O52 Zn45 2.028 . S
O52 C55 1.247 . S
O53 Zn47 2.035 . S
O53 C55 1.258 . S
C54 O48 1.247 . S
C54 O49 1.258 . S
C55 O52 1.247 . S
C55 O53 1.258 . S
C56 O58 1.247 . S
C56 O60 1.258 . S
C57 O64 1.247 . S
C57 O65 1.258 . S
O58 C56 1.247 . S
O58 Zn59 2.028 . S
Zn59 O58 2.028 . S
Zn59 O63 2.035 . S
Zn59 O65 2.035 . S
Zn59 O66 2.028 . S
O60 C56 1.258 . S
O60 Zn61 2.035 . S
Zn61 O60 2.035 . S
Zn61 O62 2.028 . S
Zn61 O64 2.028 . S
Zn61 O67 2.035 . S
O62 Zn61 2.028 . S
O62 C68 1.247 . S
O63 Zn59 2.035 . S
O63 C68 1.258 . S
O64 C57 1.247 . S
O64 Zn61 2.028 . S
O65 C57 1.258 . S
O65 Zn59 2.035 . S
O66 Zn59 2.028 . S
O66 C69 1.247 . S
O67 Zn61 2.035 . S
O67 C69 1.258 . S
C68 O62 1.247 . S
C68 O63 1.258 . S
C69 O66 1.247 . S
C69 O67 1.258 . S
C70 O72 1.247 . S
C70 O74 1.258 . S
C71 O78 1.247 . S
C71 O79 1.258 . S
O72 C70 1.247 . S
O72 Zn73 2.028 . S
Zn73 O72 2.028 . S
Zn73 O77 2.035 . S
Zn73 O79 2.035 1_545 S
Zn73 O80 2.028 1_545 S
O74 C70 1.258 . S
O74 Zn75 2.035 . S
Zn75 O74 2.035 . S
Zn75 O76 2.028 . S
Zn75 O78 2.028 1_545 S
Zn75 O81 2.035 1_545 S
O76 Zn75 2.028 . S
O76 C82 1.247 . S
O77 Zn73 2.035 . S
O77 C82 1.258 . S
O78 C71 1.247 . S
O78 Zn75 2.028 1_565 S
O79 C71 1.258 . S
O79 Zn73 2.035 1_565 S
O80 Zn73 2.028 1_565 S
O80 C83 1.247 . S
O81 Zn75 2.035 1_565 S
O81 C83 1.258 . S
C82 O76 1.247 . S
C82 O77 1.258 . S
C83 O80 1.247 . S
C83 O81 1.258 . S
C84 O86 1.247 . S
C84 O88 1.258 . S
C85 O92 1.247 . S
C85 O93 1.258 . S
O86 C84 1.247 . S
O86 Zn87 2.028 . S
Zn87 O86 2.028 . S
Zn87 O91 2.035 . S
Zn87 O93 2.035 . S
Zn87 O94 2.028 . S
O88 C84 1.258 . S
O88 Zn89 2.035 . S
Zn89 O88 2.035 . S
Zn89 O90 2.028 . S
Zn89 O92 2.028 . S
Zn89 O95 2.035 . S
O90 Zn89 2.028 . S
O90 C96 1.247 . S
O91 Zn87 2.035 . S
O91 C96 1.258 . S
O92 C85 1.247 . S
O92 Zn89 2.028 . S
O93 C85 1.258 . S
O93 Zn87 2.035 . S
O94 Zn87 2.028 . S
O94 C97 1.247 . S
O95 Zn89 2.035 . S
O95 C97 1.258 . S
C96 O90 1.247 . S
C96 O91 1.258 . S
C97 O94 1.247 . S
C97 O95 1.258 . S
C98 O100 1.247 . S
C98 O102 1.258 . S
C99 O106 1.247 . S
C99 O107 1.258 . S
O100 C98 1.247 . S
O100 Zn101 2.028 . S
Zn101 O100 2.028 . S
Zn101 O105 2.035 . S
Zn101 O107 2.035 . S
Zn101 O108 2.028 . S
O102 C98 1.258 . S
O102 Zn103 2.035 . S
Zn103 O102 2.035 . S
Zn103 O104 2.028 . S
Zn103 O106 2.028 . S
Zn103 O109 2.035 . S
O104 Zn103 2.028 . S
O104 C110 1.247 . S
O105 Zn101 2.035 . S
O105 C110 1.258 . S
O106 C99 1.247 . S
O106 Zn103 2.028 . S
O107 C99 1.258 . S
O107 Zn101 2.035 . S
O108 Zn101 2.028 . S
O108 C111 1.247 . S
O109 Zn103 2.035 . S
O109 C111 1.258 . S
C110 O104 1.247 . S
C110 O105 1.258 . S
C111 O108 1.247 . S
C111 O109 1.258 . S
C112 O114 1.247 . S
C112 O116 1.258 . S
C113 O120 1.247 . S
C113 O121 1.258 . S
O114 C112 1.247 . S
O114 Zn115 2.028 . S
Zn115 O114 2.028 . S
Zn115 O119 2.035 . S
Zn115 O121 2.035 . S
Zn115 O122 2.028 . S
O116 C112 1.258 . S
O116 Zn117 2.035 . S
Zn117 O116 2.035 . S
Zn117 O118 2.028 . S
Zn117 O120 2.028 . S
Zn117 O123 2.035 . S
O118 Zn117 2.028 . S
O118 C124 1.247 . S
O119 Zn115 2.035 . S
O119 C124 1.258 . S
O120 C113 1.247 . S
O120 Zn117 2.028 . S
O121 C113 1.258 . S
O121 Zn115 2.035 . S
O122 Zn115 2.028 . S
O122 C125 1.247 . S
O123 Zn117 2.035 . S
O123 C125 1.258 . S
C124 O118 1.247 . S
C124 O119 1.258 . S
C125 O122 1.247 . S
C125 O123 1.258 . S
C126 O128 1.247 . S
C126 O130 1.258 . S
C127 O134 1.247 . S
C127 O135 1.258 . S
O128 C126 1.247 . S
O128 Zn129 2.028 . S
Zn129 O128 2.028 . S
Zn129 O133 2.035 . S
Zn129 O135 2.035 . S
Zn129 O136 2.028 . S
O130 C126 1.258 . S
O130 Zn131 2.035 . S
Zn131 O130 2.035 . S
Zn131 O132 2.028 . S
Zn131 O134 2.028 . S
Zn131 O137 2.035 . S
O132 Zn131 2.028 . S
O132 C138 1.247 . S
O133 Zn129 2.035 . S
O133 C138 1.258 . S
O134 C127 1.247 . S
O134 Zn131 2.028 . S
O135 C127 1.258 . S
O135 Zn129 2.035 . S
O136 Zn129 2.028 . S
O136 C139 1.247 . S
O137 Zn131 2.035 . S
O137 C139 1.258 . S
C138 O132 1.247 . S
C138 O133 1.258 . S
C139 O136 1.247 . S
C139 O137 1.258 . S
C140 O142 1.247 . S
C140 O144 1.258 . S
C141 O148 1.247 . S
C141 O149 1.258 . S
O142 C140 1.247 . S
O142 Zn143 2.028 . S
Zn143 O142 2.028 . S
Zn143 O147 2.035 . S
Zn143 O149 2.035 . S
Zn143 O150 2.028 . S
O144 C140 1.258 . S
O144 Zn145 2.035 . S
Zn145 O144 2.035 . S
Zn145 O146 2.028 . S
Zn145 O148 2.028 . S
Zn145 O151 2.035 . S
O146 Zn145 2.028 . S
O146 C152 1.247 . S
O147 Zn143 2.035 . S
O147 C152 1.258 . S
O148 C141 1.247 . S
O148 Zn145 2.028 . S
O149 C141 1.258 . S
O149 Zn143 2.035 . S
O150 Zn143 2.028 . S
O150 C153 1.247 . S
O151 Zn145 2.035 . S
O151 C153 1.258 . S
C152 O146 1.247 . S
C152 O147 1.258 . S
C153 O150 1.247 . S
C153 O151 1.258 . S
C154 O156 1.247 . S
C154 O158 1.258 . S
C155 O162 1.247 . S
C155 O163 1.258 . S
O156 C154 1.247 . S
O156 Zn157 2.028 . S
Zn157 O156 2.028 . S
Zn157 O161 2.035 . S
Zn157 O163 2.035 . S
Zn157 O164 2.028 . S
O158 C154 1.258 . S
O158 Zn159 2.035 . S
Zn159 O158 2.035 . S
Zn159 O160 2.028 . S
Zn159 O162 2.028 . S
Zn159 O165 2.035 . S
O160 Zn159 2.028 . S
O160 C166 1.247 . S
O161 Zn157 2.035 . S
O161 C166 1.258 . S
O162 C155 1.247 . S
O162 Zn159 2.028 . S
O163 C155 1.258 . S
O163 Zn157 2.035 . S
O164 Zn157 2.028 . S
O164 C167 1.247 . S
O165 Zn159 2.035 . S
O165 C167 1.258 . S
C166 O160 1.247 . S
C166 O161 1.258 . S
C167 O164 1.247 . S
C167 O165 1.258 . S
C168 O170 1.247 . S
C168 O172 1.258 . S
C169 O176 1.247 . S
C169 O177 1.258 . S
O170 C168 1.247 . S
O170 Zn171 2.028 . S
Zn171 O170 2.028 . S
Zn171 O175 2.035 . S
Zn171 O177 2.035 . S
Zn171 O178 2.028 . S
O172 C168 1.258 . S
O172 Zn173 2.035 . S
Zn173 O172 2.035 . S
Zn173 O174 2.028 . S
Zn173 O176 2.028 . S
Zn173 O179 2.035 . S
O174 Zn173 2.028 . S
O174 C180 1.247 . S
O175 Zn171 2.035 . S
O175 C180 1.258 . S
O176 C169 1.247 . S
O176 Zn173 2.028 . S
O177 C169 1.258 . S
O177 Zn171 2.035 . S
O178 Zn171 2.028 . S
O178 C181 1.247 . S
O179 Zn173 2.035 . S
O179 C181 1.258 . S
C180 O174 1.247 . S
C180 O175 1.258 . S
C181 O178 1.247 . S
C181 O179 1.258 . S
C182 O184 1.247 . S
C182 O186 1.258 . S
C183 O190 1.247 . S
C183 O191 1.258 . S
O184 C182 1.247 . S
O184 Zn185 2.028 . S
Zn185 O184 2.028 . S
Zn185 O189 2.035 . S
Zn185 O191 2.035 . S
Zn185 O192 2.028 . S
O186 C182 1.258 . S
O186 Zn187 2.035 . S
Zn187 O186 2.035 . S
Zn187 O188 2.028 . S
Zn187 O190 2.028 . S
Zn187 O193 2.035 . S
O188 Zn187 2.028 . S
O188 C194 1.247 . S
O189 Zn185 2.035 . S
O189 C194 1.258 . S
O190 C183 1.247 . S
O190 Zn187 2.028 . S
O191 C183 1.258 . S
O191 Zn185 2.035 . S
O192 Zn185 2.028 . S
O192 C195 1.247 . S
O193 Zn187 2.035 . S
O193 C195 1.258 . S
C194 O188 1.247 . S
C194 O189 1.258 . S
C195 O192 1.247 . S
C195 O193 1.258 . S
C196 O198 1.247 . S
C196 O200 1.258 . S
C197 O204 1.247 . S
C197 O205 1.258 . S
O198 C196 1.247 . S
O198 Zn199 2.028 . S
Zn199 O198 2.028 . S
Zn199 O203 2.035 . S
Zn199 O205 2.035 . S
Zn199 O206 2.028 . S
O200 C196 1.258 . S
O200 Zn201 2.035 . S
Zn201 O200 2.035 . S
Zn201 O202 2.028 . S
Zn201 O204 2.028 . S
Zn201 O207 2.035 . S
O202 Zn201 2.028 . S
O202 C208 1.247 . S
O203 Zn199 2.035 . S
O203 C208 1.258 . S
O204 C197 1.247 . S
O204 Zn201 2.028 . S
O205 C197 1.258 . S
O205 Zn199 2.035 . S
O206 Zn199 2.028 . S
O206 C209 1.247 . S
O207 Zn201 2.035 . S
O207 C209 1.258 . S
C208 O202 1.247 . S
C208 O203 1.258 . S
C209 O206 1.247 . S
C209 O207 1.258 . S
C210 O212 1.247 . S
C210 O214 1.258 . S
C211 O218 1.247 . S
C211 O219 1.258 . S
O212 C210 1.247 . S
O212 Zn213 2.028 . S
Zn213 O212 2.028 . S
Zn213 O217 2.035 . S
Zn213 O219 2.035 . S
Zn213 O220 2.028 . S
O214 C210 1.258 . S
O214 Zn215 2.035 . S
Zn215 O214 2.035 . S
Zn215 O216 2.028 . S
Zn215 O218 2.028 . S
Zn215 O221 2.035 . S
O216 Zn215 2.028 . S
O216 C222 1.247 . S
O217 Zn213 2.035 . S
O217 C222 1.258 . S
O218 C211 1.247 . S
O218 Zn215 2.028 . S
O219 C211 1.258 . S
O219 Zn213 2.035 . S
O220 Zn213 2.028 . S
O220 C223 1.247 . S
O221 Zn215 2.035 . S
O221 C223 1.258 . S
C222 O216 1.247 . S
C222 O217 1.258 . S
C223 O220 1.247 . S
C223 O221 1.258 . S
C224 O226 1.247 . S
C224 O228 1.258 . S
C225 O232 1.247 . S
C225 O233 1.258 . S
O226 C224 1.247 . S
O226 Zn227 2.028 . S
Zn227 O226 2.028 . S
Zn227 O231 2.035 . S
Zn227 O233 2.035 . S
Zn227 O234 2.028 . S
O228 C224 1.258 . S
O228 Zn229 2.035 . S
Zn229 O228 2.035 . S
Zn229 O230 2.028 . S
Zn229 O232 2.028 . S
Zn229 O235 2.035 . S
O230 Zn229 2.028 . S
O230 C236 1.247 . S
O231 Zn227 2.035 . S
O231 C236 1.258 . S
O232 C225 1.247 . S
O232 Zn229 2.028 . S
O233 C225 1.258 . S
O233 Zn227 2.035 . S
O234 Zn227 2.028 . S
O234 C237 1.247 . S
O235 Zn229 2.035 . S
O235 C237 1.258 . S
C236 O230 1.247 . S
C236 O231 1.258 . S
C237 O234 1.247 . S
C237 O235 1.258 . S
C238 O240 1.247 . S
C238 O242 1.258 . S
C239 O246 1.247 . S
C239 O247 1.258 . S
O240 C238 1.247 . S
O240 Zn241 2.028 . S
Zn241 O240 2.028 . S
Zn241 O245 2.035 . S
Zn241 O247 2.035 . S
Zn241 O248 2.028 . S
O242 C238 1.258 . S
O242 Zn243 2.035 . S
Zn243 O242 2.035 . S
Zn243 O244 2.028 . S
Zn243 O246 2.028 . S
Zn243 O249 2.035 . S
O244 Zn243 2.028 . S
O244 C250 1.247 . S
O245 Zn241 2.035 . S
O245 C250 1.258 . S
O246 C239 1.247 . S
O246 Zn243 2.028 . S
O247 C239 1.258 . S
O247 Zn241 2.035 . S
O248 Zn241 2.028 . S
O248 C251 1.247 . S
O249 Zn243 2.035 . S
O249 C251 1.258 . S
C250 O244 1.247 . S
C250 O245 1.258 . S
C251 O248 1.247 . S
C251 O249 1.258 . S
C252 C253 1.387 . S
C252 H256 0.950 . S
C252 C261 1.390 . S
C253 C252 1.387 . S
C253 C255 1.387 . S
H254 C261 0.950 . S
C255 C253 1.387 . S
C255 C257 1.390 . S
C255 H259 0.950 . S
H256 C252 0.950 . S
C257 C255 1.390 . S
C257 C258 1.387 . S
C257 H260 0.950 . S
C258 C257 1.387 . S
C258 C261 1.387 . S
H259 C255 0.950 . S
H260 C257 0.950 . S
C261 C252 1.390 . S
C261 H254 0.950 . S
C261 C258 1.387 . S
C262 C263 1.387 . S
C262 H266 0.950 . S
C262 C271 1.390 . S
C263 C262 1.387 . S
C263 C265 1.387 . S
H264 C271 0.950 . S
C265 C263 1.387 . S
C265 C267 1.390 . S
C265 H269 0.950 . S
H266 C262 0.950 . S
C267 C265 1.390 . S
C267 C268 1.387 . S
C267 H270 0.950 . S
C268 C267 1.387 . S
C268 C271 1.387 . S
H269 C265 0.950 . S
H270 C267 0.950 . S
C271 C262 1.390 . S
C271 H264 0.950 . S
C271 C268 1.387 . S
C272 C273 1.387 . S
C272 H276 0.950 1_565 S
C272 C281 1.390 . S
C273 C272 1.387 . S
C273 C275 1.387 . S
H274 C281 0.950 . S
C275 C273 1.387 . S
C275 C277 1.390 . S
C275 H279 0.950 . S
H276 C272 0.950 1_545 S
C277 C275 1.390 . S
C277 C278 1.387 . S
C277 H280 0.950 . S
C278 C277 1.387 . S
C278 C281 1.387 . S
H279 C275 0.950 . S
H280 C277 0.950 . S
C281 C272 1.390 . S
C281 H274 0.950 . S
C281 C278 1.387 . S
C282 C283 1.387 . S
C282 H286 0.950 . S
C282 C291 1.390 . S
C283 C282 1.387 . S
C283 C285 1.387 . S
H284 C291 0.950 1_565 S
C285 C283 1.387 . S
C285 C287 1.390 . S
C285 H289 0.950 . S
H286 C282 0.950 . S
C287 C285 1.390 . S
C287 C288 1.387 . S
C287 H290 0.950 . S
C288 C287 1.387 . S
C288 C291 1.387 . S
H289 C285 0.950 . S
H290 C287 0.950 . S
C291 C282 1.390 . S
C291 H284 0.950 1_545 S
C291 C288 1.387 . S
C292 C293 1.387 . S
C292 H296 0.950 . S
C292 C301 1.390 . S
C293 C292 1.387 . S
C293 C295 1.387 . S
H294 C301 0.950 1_455 S
C295 C293 1.387 . S
C295 C297 1.390 . S
C295 H299 0.950 . S
H296 C292 0.950 . S
C297 C295 1.390 . S
C297 C298 1.387 . S
C297 H300 0.950 . S
C298 C297 1.387 . S
C298 C301 1.387 . S
H299 C295 0.950 . S
H300 C297 0.950 . S
C301 C292 1.390 . S
C301 H294 0.950 1_655 S
C301 C298 1.387 . S
C302 C303 1.387 . S
C302 H306 0.950 . S
C302 C311 1.390 . S
C303 C302 1.387 . S
C303 C305 1.387 . S
H304 C311 0.950 . S
C305 C303 1.387 . S
C305 C307 1.390 . S
C305 H309 0.950 . S
H306 C302 0.950 . S
C307 C305 1.390 . S
C307 C308 1.387 . S
C307 H310 0.950 . S
C308 C307 1.387 . S
C308 C311 1.387 . S
H309 C305 0.950 . S
H310 C307 0.950 . S
C311 C302 1.390 . S
C311 H304 0.950 . S
C311 C308 1.387 . S
C312 C313 1.387 . S
C312 H316 0.950 . S
C312 C321 1.390 . S
C313 C312 1.387 . S
C313 C315 1.387 . S
H314 C321 0.950 . S
C315 C313 1.387 . S
C315 C317 1.390 . S
C315 H319 0.950 1_655 S
H316 C312 0.950 . S
C317 C315 1.390 . S
C317 C318 1.387 . S
C317 H320 0.950 . S
C318 C317 1.387 . S
C318 C321 1.387 . S
H319 C315 0.950 1_455 S
H320 C317 0.950 . S
C321 C312 1.390 . S
C321 H314 0.950 . S
C321 C318 1.387 . S
C322 C323 1.387 . S
C322 H326 0.950 . S
C322 C331 1.390 . S
C323 C322 1.387 . S
C323 C325 1.387 . S
H324 C331 0.950 . S
C325 C323 1.387 . S
C325 C327 1.390 . S
C325 H329 0.950 . S
H326 C322 0.950 . S
C327 C325 1.390 . S
C327 C328 1.387 . S
C327 H330 0.950 . S
C328 C327 1.387 . S
C328 C331 1.387 . S
H329 C325 0.950 . S
H330 C327 0.950 . S
C331 C322 1.390 . S
C331 H324 0.950 . S
C331 C328 1.387 . S
C332 C333 1.387 . S
C332 H336 0.950 . S
C332 C341 1.390 . S
C333 C332 1.387 . S
C333 C335 1.387 . S
H334 C341 0.950 . S
C335 C333 1.387 . S
C335 C337 1.390 . S
C335 H339 0.950 . S
H336 C332 0.950 . S
C337 C335 1.390 . S
C337 C338 1.387 . S
C337 H340 0.950 . S
C338 C337 1.387 . S
C338 C341 1.387 . S
H339 C335 0.950 . S
H340 C337 0.950 . S
C341 C332 1.390 . S
C341 H334 0.950 . S
C341 C338 1.387 . S
C342 C343 1.387 . S
C342 H346 0.950 1_565 S
C342 C351 1.390 . S
C343 C342 1.387 . S
C343 C345 1.387 . S
H344 C351 0.950 . S
C345 C343 1.387 . S
C345 C347 1.390 . S
C345 H349 0.950 . S
H346 C342 0.950 1_545 S
C347 C345 1.390 . S
C347 C348 1.387 . S
C347 H350 0.950 . S
C348 C347 1.387 . S
C348 C351 1.387 . S
H349 C345 0.950 . S
H350 C347 0.950 . S
C351 C342 1.390 . S
C351 H344 0.950 . S
C351 C348 1.387 . S
C352 C353 1.387 . S
C352 H356 0.950 . S
C352 C361 1.390 . S
C353 C352 1.387 . S
C353 C355 1.387 . S
H354 C361 0.950 . S
C355 C353 1.387 . S
C355 C357 1.390 . S
C355 H359 0.950 1_455 S
H356 C352 0.950 . S
C357 C355 1.390 . S
C357 C358 1.387 . S
C357 H360 0.950 . S
C358 C357 1.387 . S
C358 C361 1.387 . S
H359 C355 0.950 1_655 S
H360 C357 0.950 . S
C361 C352 1.390 . S
C361 H354 0.950 . S
C361 C358 1.387 . S
C362 C363 1.387 . S
C362 H366 0.950 . S
C362 C371 1.390 . S
C363 C362 1.387 . S
C363 C365 1.387 . S
H364 C371 0.950 . S
C365 C363 1.387 . S
C365 C367 1.390 . S
C365 H369 0.950 . S
H366 C362 0.950 . S
C367 C365 1.390 . S
C367 C368 1.387 . S
C367 H370 0.950 . S
C368 C367 1.387 . S
C368 C371 1.387 . S
H369 C365 0.950 . S
H370 C367 0.950 . S
C371 C362 1.390 . S
C371 H364 0.950 . S
C371 C368 1.387 . S
C372 C373 1.387 . S
C372 H376 0.950 . S
C372 C381 1.390 . S
C373 C372 1.387 . S
C373 C375 1.387 . S
H374 C381 0.950 . S
C375 C373 1.387 . S
C375 C377 1.390 . S
C375 H379 0.950 . S
H376 C372 0.950 . S
C377 C375 1.390 . S
C377 C378 1.387 . S
C377 H380 0.950 . S
C378 C377 1.387 . S
C378 C381 1.387 . S
H379 C375 0.950 . S
H380 C377 0.950 . S
C381 C372 1.390 . S
C381 H374 0.950 . S
C381 C378 1.387 . S
C382 C383 1.387 . S
C382 H386 0.950 . S
C382 C391 1.390 1_545 S
C383 C382 1.387 . S
C383 C385 1.387 . S
H384 C391 0.950 . S
C385 C383 1.387 . S
C385 C387 1.390 1_545 S
C385 H389 0.950 . S
H386 C382 0.950 . S
C387 C385 1.390 1_565 S
C387 C388 1.387 . S
C387 H390 0.950 . S
C388 C387 1.387 . S
C388 C391 1.387 . S
H389 C385 0.950 . S
H390 C387 0.950 . S
C391 C382 1.390 1_565 S
C391 H384 0.950 . S
C391 C388 1.387 . S
C392 C393 1.387 . S
C392 H396 0.950 . S
C392 C401 1.390 1_455 S
C393 C392 1.387 . S
C393 C395 1.387 . S
H394 C401 0.950 . S
C395 C393 1.387 . S
C395 C397 1.390 . S
C395 H399 0.950 . S
H396 C392 0.950 . S
C397 C395 1.390 . S
C397 C398 1.387 1_455 S
C397 H400 0.950 1_455 S
C398 C397 1.387 1_655 S
C398 C401 1.387 . S
H399 C395 0.950 . S
H400 C397 0.950 1_655 S
C401 C392 1.390 1_655 S
C401 H394 0.950 . S
C401 C398 1.387 . S
C402 C403 1.387 . S
C402 H406 0.950 . S
C402 C411 1.390 . S
C403 C402 1.387 . S
C403 C405 1.387 . S
H404 C411 0.950 . S
C405 C403 1.387 . S
C405 C407 1.390 . S
C405 H409 0.950 . S
H406 C402 0.950 . S
C407 C405 1.390 . S
C407 C408 1.387 . S
C407 H410 0.950 . S
C408 C407 1.387 . S
C408 C411 1.387 . S
H409 C405 0.950 . S
H410 C407 0.950 . S
C411 C402 1.390 . S
C411 H404 0.950 . S
C411 C408 1.387 . S
C412 C413 1.387 . S
C412 H416 0.950 . S
C412 C421 1.390 1_545 S
C413 C412 1.387 . S
C413 C415 1.387 . S
H414 C421 0.950 . S
C415 C413 1.387 . S
C415 C417 1.390 1_545 S
C415 H419 0.950 . S
H416 C412 0.950 . S
C417 C415 1.390 1_565 S
C417 C418 1.387 . S
C417 H420 0.950 . S
C418 C417 1.387 . S
C418 C421 1.387 . S
H419 C415 0.950 . S
H420 C417 0.950 . S
C421 C412 1.390 1_565 S
C421 H414 0.950 . S
C421 C418 1.387 . S
C422 C423 1.387 . S
C422 H426 0.949 1_455 S
C422 C431 1.390 1_455 S
C423 C422 1.387 . S
C423 C425 1.387 . S
H424 C431 0.950 . S
C425 C423 1.387 . S
C425 C427 1.390 . S
C425 H429 0.950 . S
H426 C422 0.949 1_655 S
C427 C425 1.390 . S
C427 C428 1.387 1_455 S
C427 H430 0.950 . S
C428 C427 1.387 1_655 S
C428 C431 1.387 . S
H429 C425 0.950 . S
H430 C427 0.950 . S
C431 C422 1.390 1_655 S
C431 H424 0.950 . S
C431 C428 1.387 . S
C432 C433 1.387 . S
C432 H436 0.950 . S
C432 C441 1.390 . S
C433 C432 1.387 . S
C433 C435 1.387 . S
H434 C441 0.950 . S
C435 C433 1.387 . S
C435 C437 1.390 . S
C435 H439 0.950 . S
H436 C432 0.950 . S
C437 C435 1.390 . S
C437 C438 1.387 . S
C437 H440 0.950 . S
C438 C437 1.387 . S
C438 C441 1.387 . S
H439 C435 0.950 . S
H440 C437 0.950 . S
C441 C432 1.390 . S
C441 H434 0.950 . S
C441 C438 1.387 . S
C442 C443 1.387 . S
C442 H446 0.950 . S
C442 C451 1.390 . S
C443 C442 1.387 . S
C443 C445 1.387 . S
H444 C451 0.950 . S
C445 C443 1.387 . S
C445 C447 1.390 . S
C445 H449 0.950 . S
H446 C442 0.950 . S
C447 C445 1.390 . S
C447 C448 1.387 . S
C447 H450 0.950 . S
C448 C447 1.387 . S
C448 C451 1.387 . S
H449 C445 0.950 . S
H450 C447 0.950 . S
C451 C442 1.390 . S
C451 H444 0.950 . S
C451 C448 1.387 . S
C452 C453 1.387 . S
C452 H456 0.950 . S
C452 C461 1.390 . S
C453 C452 1.387 . S
C453 C455 1.387 . S
H454 C461 0.950 . S
C455 C453 1.387 . S
C455 C457 1.390 . S
C455 H459 0.950 . S
H456 C452 0.950 . S
C457 C455 1.390 . S
C457 C458 1.387 . S
C457 H460 0.950 . S
C458 C457 1.387 . S
C458 C461 1.387 . S
H459 C455 0.950 . S
H460 C457 0.950 . S
C461 C452 1.390 . S
C461 H454 0.950 . S
C461 C458 1.387 . S
C462 C463 1.387 . S
C462 H466 0.950 . S
C462 C471 1.390 . S
C463 C462 1.387 . S
C463 C465 1.387 . S
H464 C471 0.950 . S
C465 C463 1.387 . S
C465 C467 1.390 . S
C465 H469 0.950 . S
H466 C462 0.950 . S
C467 C465 1.390 . S
C467 C468 1.387 . S
C467 H470 0.950 . S
C468 C467 1.387 . S
C468 C471 1.387 . S
H469 C465 0.950 . S
H470 C467 0.950 . S
C471 C462 1.390 . S
C471 H464 0.950 . S
C471 C468 1.387 . S
C472 C473 1.387 . S
C472 H476 0.950 . S
C472 C481 1.390 . S
C473 C472 1.387 . S
C473 C475 1.387 . S
H474 C481 0.950 . S
C475 C473 1.387 . S
C475 C477 1.390 . S
C475 H479 0.950 . S
H476 C472 0.950 . S
C477 C475 1.390 . S
C477 C478 1.387 . S
C477 H480 0.950 . S
C478 C477 1.387 . S
C478 C481 1.387 . S
H479 C475 0.950 . S
H480 C477 0.950 . S
C481 C472 1.390 . S
C481 H474 0.950 . S
C481 C478 1.387 . S
C482 C483 1.387 . S
C482 H486 0.950 . S
C482 C491 1.390 . S
C483 C482 1.387 . S
C483 C485 1.387 . S
H484 C491 0.950 . S
C485 C483 1.387 . S
C485 C487 1.390 . S
C485 H489 0.950 . S
H486 C482 0.950 . S
C487 C485 1.390 . S
C487 C488 1.387 . S
C487 H490 0.950 . S
C488 C487 1.387 . S
C488 C491 1.387 . S
H489 C485 0.950 . S
H490 C487 0.950 . S
C491 C482 1.390 . S
C491 H484 0.950 . S
C491 C488 1.387 . S
C492 C493 1.387 . S
C492 H496 0.950 . S
C492 C501 1.390 . S
C493 C492 1.387 . S
C493 C495 1.387 . S
H494 C501 0.950 . S
C495 C493 1.387 . S
C495 C497 1.390 . S
C495 H499 0.950 . S
H496 C492 0.950 . S
C497 C495 1.390 . S
C497 C498 1.387 . S
C497 H500 0.950 . S
C498 C497 1.387 . S
C498 C501 1.387 . S
H499 C495 0.950 . S
H500 C497 0.950 . S
C501 C492 1.390 . S
C501 H494 0.950 . S
C501 C498 1.387 . S
C502 C503 1.387 . S
C502 H506 0.950 . S
C502 C511 1.390 . S
C503 C502 1.387 . S
C503 C505 1.387 . S
H504 C511 0.950 . S
C505 C503 1.387 . S
C505 C507 1.390 . S
C505 H509 0.950 . S
H506 C502 0.950 . S
C507 C505 1.390 . S
C507 C508 1.387 . S
C507 H510 0.950 . S
C508 C507 1.387 . S
C508 C511 1.387 . S
H509 C505 0.950 . S
H510 C507 0.950 . S
C511 C502 1.390 . S
C511 H504 0.950 . S
C511 C508 1.387 . S
C512 C513 1.387 . S
C512 H516 0.950 . S
C512 C521 1.390 . S
C513 C512 1.387 . S
C513 C515 1.387 . S
H514 C521 0.950 . S
C515 C513 1.387 . S
C515 C517 1.390 . S
C515 H519 0.950 . S
H516 C512 0.950 . S
C517 C515 1.390 . S
C517 C518 1.387 . S
C517 H520 0.950 . S
C518 C517 1.387 . S
C518 C521 1.387 . S
H519 C515 0.950 . S
H520 C517 0.950 . S
C521 C512 1.390 . S
C521 H514 0.950 . S
C521 C518 1.387 . S
C522 C523 1.387 . S
C522 H526 0.950 . S
C522 C531 1.390 . S
C523 C522 1.387 . S
C523 C525 1.387 . S
H524 C531 0.950 . S
C525 C523 1.387 . S
C525 C527 1.390 . S
C525 H529 0.950 . S
H526 C522 0.950 . S
C527 C525 1.390 . S
C527 C528 1.387 . S
C527 H530 0.950 . S
C528 C527 1.387 . S
C528 C531 1.387 . S
H529 C525 0.950 . S
H530 C527 0.950 . S
C531 C522 1.390 . S
C531 H524 0.950 . S
C531 C528 1.387 . S
C532 C533 1.387 . S
C532 H536 0.950 . S
C532 C541 1.390 . S
C533 C532 1.387 . S
C533 C535 1.387 . S
H534 C541 0.950 . S
C535 C533 1.387 . S
C535 C537 1.390 . S
C535 H539 0.950 . S
H536 C532 0.950 . S
C537 C535 1.390 . S
C537 C538 1.387 . S
C537 H540 0.950 . S
C538 C537 1.387 . S
C538 C541 1.387 . S
H539 C535 0.950 . S
H540 C537 0.950 . S
C541 C532 1.390 . S
C541 H534 0.950 . S
C541 C538 1.387 . S
C542 C543 1.387 . S
C542 H546 0.950 . S
C542 C551 1.390 . S
C543 C542 1.387 . S
C543 C545 1.387 . S
H544 C551 0.950 . S
C545 C543 1.387 . S
C545 C547 1.390 . S
C545 H549 0.950 . S
H546 C542 0.950 . S
C547 C545 1.390 . S
C547 C548 1.387 . S
C547 H550 0.950 . S
C548 C547 1.387 . S
C548 C551 1.387 . S
H549 C545 0.950 . S
H550 C547 0.950 . S
C551 C542 1.390 . S
C551 H544 0.950 . S
C551 C548 1.387 . S
C552 C553 1.387 . S
C552 H556 0.950 . S
C552 C561 1.390 . S
C553 C552 1.387 . S
C553 C555 1.387 . S
H554 C561 0.950 . S
C555 C553 1.387 . S
C555 C557 1.390 . S
C555 H559 0.950 . S
H556 C552 0.950 . S
C557 C555 1.390 . S
C557 C558 1.387 . S
C557 H560 0.950 . S
C558 C557 1.387 . S
C558 C561 1.387 . S
H559 C555 0.950 . S
H560 C557 0.950 . S
C561 C552 1.390 . S
C561 H554 0.950 . S
C561 C558 1.387 . S
C562 C563 1.387 1_565 S
C562 H566 0.950 . S
C562 C571 1.390 . S
C563 C562 1.387 1_545 S
C563 C565 1.387 . S
H564 C571 0.950 . S
C565 C563 1.387 . S
C565 C567 1.390 . S
C565 H569 0.950 . S
H566 C562 0.950 . S
C567 C565 1.390 . S
C567 C568 1.387 1_545 S
C567 H570 0.950 . S
C568 C567 1.387 1_565 S
C568 C571 1.387 . S
H569 C565 0.950 . S
H570 C567 0.950 . S
C571 C562 1.390 . S
C571 H564 0.950 . S
C571 C568 1.387 . S
C572 C573 1.387 . S
C572 H576 0.950 . S
C572 C581 1.390 . S
C573 C572 1.387 . S
C573 C575 1.387 1_455 S
H574 C581 0.950 . S
C575 C573 1.387 1_655 S
C575 C577 1.390 . S
C575 H579 0.950 . S
H576 C572 0.950 . S
C577 C575 1.390 . S
C577 C578 1.387 . S
C577 H580 0.950 . S
C578 C577 1.387 . S
C578 C581 1.387 1_655 S
H579 C575 0.950 . S
H580 C577 0.950 . S
C581 C572 1.390 . S
C581 H574 0.950 . S
C581 C578 1.387 1_455 S
C582 C583 1.387 1_554 S
C582 H586 0.950 . S
C582 C591 1.390 . S
C583 C582 1.387 1_556 S
C583 C585 1.387 . S
H584 C591 0.950 . S
C585 C583 1.387 . S
C585 C587 1.390 . S
C585 H589 0.950 . S
H586 C582 0.950 . S
C587 C585 1.390 . S
C587 C588 1.387 1_556 S
C587 H590 0.950 . S
C588 C587 1.387 1_554 S
C588 C591 1.387 . S
H589 C585 0.950 . S
H590 C587 0.950 . S
C591 C582 1.390 . S
C591 H584 0.950 . S
C591 C588 1.387 . S
C592 C593 1.387 1_545 S
C592 H596 0.950 . S
C592 C601 1.390 . S
C593 C592 1.387 1_565 S
C593 C595 1.387 1_556 S
H594 C601 0.950 . S
C595 C593 1.387 1_554 S
C595 C597 1.390 . S
C595 H599 0.950 . S
H596 C592 0.950 . S
C597 C595 1.390 . S
C597 C598 1.387 1_565 S
C597 H600 0.950 . S
C598 C597 1.387 1_545 S
C598 C601 1.387 1_554 S
H599 C595 0.950 . S
H600 C597 0.950 . S
C601 C592 1.390 . S
C601 H594 0.950 . S
C601 C598 1.387 1_556 S
C602 C603 1.387 1_655 S
C602 H606 0.950 . S
C602 C611 1.390 1_556 S
C603 C602 1.387 1_455 S
C603 C605 1.387 . S
H604 C611 0.950 . S
C605 C603 1.387 . S
C605 C607 1.390 1_556 S
C605 H609 0.950 . S
H606 C602 0.950 . S
C607 C605 1.390 1_554 S
C607 C608 1.387 1_455 S
C607 H610 0.950 . S
C608 C607 1.387 1_655 S
C608 C611 1.387 . S
H609 C605 0.950 . S
H610 C607 0.950 . S
C611 C602 1.390 1_554 S
C611 H604 0.950 . S
C611 C608 1.387 . S
C253 C13 1.888 . S
C258 C208 1.884 1_554 S
C263 C180 1.881 1_554 S
C268 C27 1.885 . S
C273 C40 1.881 . S
C278 C183 1.885 1_554 S
C283 C97 1.886 . S
C288 C41 1.885 . S
C293 C99 1.885 . S
C298 C12 1.881 . S
C303 C125 1.885 . S
C308 C26 1.881 . S
C313 C42 1.885 . S
C318 C167 1.881 1_556 S
C323 C127 1.881 1_556 S
C328 C56 1.885 . S
C333 C141 1.883 1_556 S
C338 C82 1.887 . S
C343 C83 1.884 . S
C348 C210 1.888 . S
C353 C43 1.881 . S
C358 C237 1.881 . S
C363 C250 1.885 . S
C368 C57 1.882 . S
C373 C181 1.887 . S
C378 C124 1.884 . S
C383 C96 1.881 . S
C388 C182 1.881 . S
C393 C209 1.888 . S
C398 C98 1.883 . S
C403 C251 1.882 . S
C408 C126 1.886 . S
C413 C140 1.888 . S
C418 C211 1.884 . S
C423 C236 1.887 . S
C428 C166 1.888 . S
C433 C222 1.549 . S
C438 C1 1.549 . S
C443 C15 1.550 . S
C448 C225 1.550 . S
C453 C28 1.549 . S
C458 C238 1.549 . S
C463 C29 1.550 . S
C468 C155 1.549 . S
C473 C139 1.549 . S
C478 C0 1.549 . S
C483 C14 1.550 . S
C488 C153 1.550 . S
C493 C85 1.550 . S
C498 C54 1.550 . S
C503 C111 1.550 . S
C508 C68 1.550 . S
C513 C70 1.549 . S
C518 C113 1.549 . S
C523 C71 1.549 . S
C528 C196 1.549 . S
C533 C55 1.549 . S
C538 C168 1.549 . S
C543 C69 1.550 . S
C548 C195 1.550 . S
C553 C112 1.549 . S
C558 C239 1.549 . S
C563 C84 1.549 . S
C568 C223 1.549 . S
C573 C224 1.550 . S
C578 C110 1.549 . S
C583 C169 1.549 . S
C588 C138 1.549 . S
C593 C194 1.550 . S
C598 C152 1.550 . S
C603 C197 1.549 . S
C608 C154 1.549 . S
