# Generated by pormake.
# Topology mon, (4)-cn, num edge types: 1
# Building blocks:
#     Node 0, Type 0, BuildingBlock: QUQFOY_clean_sbu_3, # of connection points: 4
#     Node 1, Type 0, BuildingBlock: QUQFOY_clean_sbu_3, # of connection points: 4
#     Node 2, Type 0, BuildingBlock: QUQFOY_clean_sbu_3, # of connection points: 4
#     Node 3, Type 0, BuildingBlock: QUQFOY_clean_sbu_3, # of connection points: 4
#     Node 4, Type 0, BuildingBlock: QUQFOY_clean_sbu_3, # of connection points: 4
#     Node 5, Type 0, BuildingBlock: QUQFOY_clean_sbu_3, # of connection points: 4
#     Node 6, Type 0, BuildingBlock: QUQFOY_clean_sbu_3, # of connection points: 4
#     Node 7, Type 0, BuildingBlock: QUQFOY_clean_sbu_3, # of connection points: 4
#     Node 8, Type 0, BuildingBlock: QUQFOY_clean_sbu_3, # of connection points: 4
#     Node 9, Type 0, BuildingBlock: QUQFOY_clean_sbu_3, # of connection points: 4
#     Node 10, Type 0, BuildingBlock: QUQFOY_clean_sbu_3, # of connection points: 4
#     Node 11, Type 0, BuildingBlock: QUQFOY_clean_sbu_3, # of connection points: 4
#     Node 12, Type 0, BuildingBlock: QUQFOY_clean_sbu_3, # of connection points: 4
#     Node 13, Type 0, BuildingBlock: QUQFOY_clean_sbu_3, # of connection points: 4
#     Node 14, Type 0, BuildingBlock: QUQFOY_clean_sbu_3, # of connection points: 4
#     Node 15, Type 0, BuildingBlock: QUQFOY_clean_sbu_3, # of connection points: 4
#     Edge 16, Type (0, 0), BuildingBlock: MIFKUJ_clean_linker_0, # of connection points: 2
#     Edge 17, Type (0, 0), BuildingBlock: MIFKUJ_clean_linker_0, # of connection points: 2
#     Edge 18, Type (0, 0), BuildingBlock: MIFKUJ_clean_linker_0, # of connection points: 2
#     Edge 19, Type (0, 0), BuildingBlock: MIFKUJ_clean_linker_0, # of connection points: 2
#     Edge 20, Type (0, 0), BuildingBlock: MIFKUJ_clean_linker_0, # of connection points: 2
#     Edge 21, Type (0, 0), BuildingBlock: MIFKUJ_clean_linker_0, # of connection points: 2
#     Edge 22, Type (0, 0), BuildingBlock: MIFKUJ_clean_linker_0, # of connection points: 2
#     Edge 23, Type (0, 0), BuildingBlock: MIFKUJ_clean_linker_0, # of connection points: 2
#     Edge 24, Type (0, 0), BuildingBlock: MIFKUJ_clean_linker_0, # of connection points: 2
#     Edge 25, Type (0, 0), BuildingBlock: MIFKUJ_clean_linker_0, # of connection points: 2
#     Edge 26, Type (0, 0), BuildingBlock: MIFKUJ_clean_linker_0, # of connection points: 2
#     Edge 27, Type (0, 0), BuildingBlock: MIFKUJ_clean_linker_0, # of connection points: 2
#     Edge 28, Type (0, 0), BuildingBlock: MIFKUJ_clean_linker_0, # of connection points: 2
#     Edge 29, Type (0, 0), BuildingBlock: MIFKUJ_clean_linker_0, # of connection points: 2
#     Edge 30, Type (0, 0), BuildingBlock: MIFKUJ_clean_linker_0, # of connection points: 2
#     Edge 31, Type (0, 0), BuildingBlock: MIFKUJ_clean_linker_0, # of connection points: 2
#     Edge 32, Type (0, 0), BuildingBlock: MIFKUJ_clean_linker_0, # of connection points: 2
#     Edge 33, Type (0, 0), BuildingBlock: MIFKUJ_clean_linker_0, # of connection points: 2
#     Edge 34, Type (0, 0), BuildingBlock: MIFKUJ_clean_linker_0, # of connection points: 2
#     Edge 35, Type (0, 0), BuildingBlock: MIFKUJ_clean_linker_0, # of connection points: 2
#     Edge 36, Type (0, 0), BuildingBlock: MIFKUJ_clean_linker_0, # of connection points: 2
#     Edge 37, Type (0, 0), BuildingBlock: MIFKUJ_clean_linker_0, # of connection points: 2
#     Edge 38, Type (0, 0), BuildingBlock: MIFKUJ_clean_linker_0, # of connection points: 2
#     Edge 39, Type (0, 0), BuildingBlock: MIFKUJ_clean_linker_0, # of connection points: 2
#     Edge 40, Type (0, 0), BuildingBlock: MIFKUJ_clean_linker_0, # of connection points: 2
#     Edge 41, Type (0, 0), BuildingBlock: MIFKUJ_clean_linker_0, # of connection points: 2
#     Edge 42, Type (0, 0), BuildingBlock: MIFKUJ_clean_linker_0, # of connection points: 2
#     Edge 43, Type (0, 0), BuildingBlock: MIFKUJ_clean_linker_0, # of connection points: 2
#     Edge 44, Type (0, 0), BuildingBlock: MIFKUJ_clean_linker_0, # of connection points: 2
#     Edge 45, Type (0, 0), BuildingBlock: MIFKUJ_clean_linker_0, # of connection points: 2
#     Edge 46, Type (0, 0), BuildingBlock: MIFKUJ_clean_linker_0, # of connection points: 2
#     Edge 47, Type (0, 0), BuildingBlock: MIFKUJ_clean_linker_0, # of connection points: 2
# Relax obj value: 0.181
# Max RMSD: 0.173
# Mean RMSD: 0.173
data_MOF--net-mon--node1-QUQFOY_clean_sbu_3--edge1-MIFKUJ_clean_linker_0
_symmetry_space_group_name_H-M    P1
_symmetry_Int_Tables_number       1
_symmetry_cell_setting            triclinic
loop_
_symmetry_equiv_pos_as_xyz
'x, y, z'
_cell_length_a     44.740747
_cell_length_b     44.629372
_cell_length_c     111.56316
_cell_angle_alpha  90.00046
_cell_angle_beta   90.076886
_cell_angle_gamma 90.12445
loop_
_atom_site_label
_atom_site_type_symbol
_atom_site_fract_x
_atom_site_fract_y
_atom_site_fract_z
_atom_type_partial_charge
C0 C 0.07203 0.98218 0.57341 0.0
O1 O 0.06212 0.96703 0.56461 0.0
Cd2 Cd 0.0159 0.97454 0.55437 0.0
O3 O 0.05757 0.00468 0.57742 0.0
Cd4 Cd 0.01094 0.03307 0.57268 0.0
C5 C 0.96767 0.97196 0.57854 0.0
O6 O 0.01426 0.02709 0.55152 0.0
O7 O 0.97248 0.04558 0.55733 0.0
O8 O 0.03411 0.08191 0.57551 0.0
C9 C 0.98869 0.03683 0.5487 0.0
O10 O 0.97753 0.96005 0.56894 0.0
C11 C 0.01714 0.08986 0.58406 0.0
O12 O 0.97703 -0.00253 0.58206 0.0
O13 O -0.0025 0.07111 0.58745 0.0
C14 C 0.24897 0.8241 0.83214 0.0
O15 O 0.26311 0.81988 0.82243 0.0
Cd16 Cd 0.26098 0.77413 0.8115 0.0
O17 O 0.23048 0.80462 0.83602 0.0
Cd18 Cd 0.20775 0.75648 0.82931 0.0
C19 C 0.27417 0.72324 0.83425 0.0
O20 O 0.20906 0.76564 0.80811 0.0
O21 O 0.20105 0.71961 0.81289 0.0
O22 O 0.15829 0.77563 0.83342 0.0
C23 C 0.20321 0.73923 0.80471 0.0
O24 O 0.28356 0.73678 0.82492 0.0
C25 C 0.15094 0.75513 0.84074 0.0
O26 O 0.24762 0.72705 0.83802 0.0
O27 O 0.17031 0.73506 0.8429 0.0
C28 C 0.43294 0.00229 0.08072 0.0
O29 O 0.44044 0.01828 0.0718 0.0
Cd30 Cd 0.48559 0.01207 0.06091 0.0
O31 O 0.44947 0.9807 0.08419 0.0
Cd32 Cd 0.49733 0.95674 0.07791 0.0
C33 C 0.53492 0.02011 0.08439 0.0
O34 O 0.48859 0.95957 0.05657 0.0
O35 O 0.53425 0.95123 0.06161 0.0
O36 O 0.4743 0.90917 0.08335 0.0
C37 C 0.51484 0.95293 0.05337 0.0
O38 O 0.52416 0.03077 0.07471 0.0
C39 C 0.49719 0.89882 0.08865 0.0
O40 O 0.52758 0.99408 0.088 0.0
O41 O 0.52011 0.9156 0.08908 0.0
C42 C 0.23068 0.18207 0.33799 0.0
O43 O 0.21311 0.18918 0.32951 0.0
Cd44 Cd 0.21849 0.23143 0.31673 0.0
O45 O 0.25387 0.1978 0.34025 0.0
Cd46 Cd 0.27873 0.24363 0.33212 0.0
C47 C 0.218 0.2858 0.33861 0.0
O48 O 0.27005 0.23089 0.3115 0.0
O49 O 0.28645 0.27563 0.31412 0.0
O50 O 0.32557 0.219 0.33726 0.0
C51 C 0.27859 0.25525 0.30686 0.0
O52 O 0.20521 0.27358 0.32964 0.0
C53 C 0.33764 0.24211 0.34183 0.0
O54 O 0.24415 0.27791 0.34182 0.0
O55 O 0.32216 0.26592 0.34198 0.0
C56 C 0.06129 0.00684 0.41088 0.0
O57 O 0.05 0.02229 0.41928 0.0
Cd58 Cd 0.00229 0.01272 0.42813 0.0
O59 O 0.04712 0.98466 0.40644 0.0
Cd60 Cd -0.00186 0.95962 0.40941 0.0
C61 C 0.95918 0.02242 0.40309 0.0
O62 O -0.00098 0.95967 0.43094 0.0
O63 O 0.95582 0.95025 0.4233 0.0
O64 O 0.02064 0.91091 0.4062 0.0
C65 C 0.97216 0.95178 0.43258 0.0
O66 O 0.96555 0.03118 0.41366 0.0
C67 C 0.00345 0.90315 0.39769 0.0
O68 O 0.97006 -0.00177 0.39893 0.0
O69 O 0.98384 0.922 0.39441 0.0
C70 C 0.24279 0.81346 0.65196 0.0
O71 O 0.22582 0.80934 0.66093 0.0
Cd72 Cd 0.22654 0.7666 0.67364 0.0
O73 O 0.26343 0.79476 0.64947 0.0
Cd74 Cd 0.285 0.74764 0.65791 0.0
C75 C 0.21964 0.71271 0.65151 0.0
O76 O 0.27781 0.76057 0.67855 0.0
O77 O 0.28912 0.71442 0.67571 0.0
O78 O 0.33428 0.76781 0.65336 0.0
C79 C 0.28334 0.73523 0.68308 0.0
O80 O 0.20843 0.72662 0.66041 0.0
C81 C 0.34404 0.74407 0.64848 0.0
O82 O 0.24665 0.71712 0.64837 0.0
O83 O 0.32609 0.72204 0.64779 0.0
C84 C 0.43445 0.9901 0.9064 0.0
O85 O 0.43996 0.97566 0.91595 0.0
Cd86 Cd 0.48689 0.98037 0.92603 0.0
O87 O 0.45319 0.00914 0.90238 0.0
Cd88 Cd 0.5016 0.03291 0.90758 0.0
C89 C 0.53453 0.9669 0.90212 0.0
O90 O 0.49485 0.03281 0.929 0.0
O91 O 0.5403 0.03875 0.92314 0.0
O92 O 0.47613 0.07827 0.90168 0.0
C93 C 0.52178 0.03825 0.93172 0.0
O94 O 0.52357 0.95849 0.91212 0.0
C95 C 0.49794 0.08958 0.896 0.0
O96 O 0.52871 0.99273 0.89788 0.0
O97 O 0.52194 0.07443 0.89563 0.0
C98 C 0.26631 0.17834 0.15505 0.0
O99 O 0.28303 0.18739 0.16352 0.0
Cd100 Cd 0.2748 0.23112 0.17525 0.0
O101 O 0.24302 0.19299 0.15205 0.0
Cd102 Cd 0.21805 0.24021 0.15857 0.0
C103 C 0.27941 0.28207 0.15245 0.0
O104 O 0.22261 0.23015 0.17973 0.0
O105 O 0.20903 0.27512 0.17547 0.0
O106 O 0.17034 0.21687 0.15346 0.0
C107 C 0.21353 0.25533 0.18341 0.0
O108 O 0.29051 0.27218 0.16219 0.0
C109 C 0.16023 0.2394 0.14782 0.0
O110 O 0.25422 0.27261 0.1487 0.0
O111 O 0.17733 0.26203 0.14698 0.0
C112 C 0.74301 0.30354 0.16084 0.0
O113 O 0.72939 0.29632 0.17039 0.0
Cd114 Cd 0.73805 0.25123 0.18115 0.0
O115 O 0.76402 0.28717 0.15675 0.0
Cd116 Cd 0.79164 0.24073 0.16252 0.0
C117 C 0.72822 0.20155 0.15771 0.0
O118 O 0.79093 0.24959 0.18373 0.0
O119 O 0.80253 0.20457 0.17886 0.0
O120 O 0.83681 0.26662 0.15617 0.0
C121 C 0.79933 0.22389 0.18707 0.0
O122 O 0.7187 0.21258 0.16753 0.0
C123 C 0.84778 0.24445 0.15059 0.0
O124 O 0.75368 0.20891 0.15356 0.0
O125 O 0.8323 0.22057 0.15033 0.0
C126 C 0.76736 0.68265 0.65264 0.0
O127 O 0.78476 0.69122 0.66097 0.0
Cd128 Cd 0.77761 0.73484 0.67283 0.0
O129 O 0.74389 0.69753 0.65007 0.0
Cd130 Cd 0.71834 0.7439 0.65727 0.0
C131 C 0.77805 0.78696 0.65016 0.0
O132 O 0.72604 0.73363 0.67825 0.0
O133 O 0.70985 0.77795 0.67453 0.0
O134 O 0.67209 0.71725 0.65276 0.0
C135 C 0.71677 0.7584 0.68227 0.0
O136 O 0.79072 0.77588 0.65937 0.0
C137 C 0.65916 0.7394 0.64788 0.0
O138 O 0.75214 0.77821 0.64696 0.0
O139 O 0.674 0.76362 0.64715 0.0
C140 C 0.7535 0.31574 0.33029 0.0
O141 O 0.76826 0.30778 0.32111 0.0
Cd142 Cd 0.76021 0.26323 0.30965 0.0
O143 O 0.73178 0.29984 0.33412 0.0
Cd144 Cd 0.70565 0.2526 0.32864 0.0
C145 C 0.76979 0.21346 0.33284 0.0
O146 O 0.70746 0.26021 0.30744 0.0
O147 O 0.69457 0.21572 0.31255 0.0
O148 O 0.65844 0.27528 0.33446 0.0
C149 C 0.69932 0.23433 0.30418 0.0
O150 O 0.77868 0.22305 0.32269 0.0
C151 C 0.64982 0.25329 0.34081 0.0
O152 O 0.74524 0.22236 0.33737 0.0
O153 O 0.66761 0.23125 0.34174 0.0
C154 C 0.74284 0.67192 0.82926 0.0
O155 O 0.72843 0.67951 0.81993 0.0
Cd156 Cd 0.73461 0.72558 0.80956 0.0
O157 O 0.76363 0.68855 0.83343 0.0
Cd158 Cd 0.78976 0.73605 0.82806 0.0
C159 C 0.72583 0.77386 0.83353 0.0
O160 O 0.78712 0.72916 0.80695 0.0
O161 O 0.79843 0.77418 0.812 0.0
O162 O 0.83826 0.71376 0.83165 0.0
C163 C 0.79439 0.75524 0.80367 0.0
O164 O 0.71585 0.76332 0.82368 0.0
C165 C 0.84644 0.73251 0.83956 0.0
O166 O 0.75157 0.76653 0.83741 0.0
O167 O 0.82803 0.75306 0.84226 0.0
C168 C 0.57616 0.48063 0.08117 0.0
O169 O 0.56933 0.46552 0.07191 0.0
Cd170 Cd 0.52658 0.47282 0.05947 0.0
O171 O 0.56017 0.50278 0.08448 0.0
Cd172 Cd 0.51462 0.52977 0.07756 0.0
C173 C 0.47319 0.46672 0.08163 0.0
O174 O 0.52483 0.52541 0.05659 0.0
O175 O 0.48069 0.54119 0.06053 0.0
O176 O 0.53718 0.57748 0.0832 0.0
C177 C 0.49986 0.53426 0.05266 0.0
O178 O 0.48496 0.45623 0.07211 0.0
C179 C 0.51485 0.58641 0.08925 0.0
O180 O 0.48123 0.49204 0.08581 0.0
O181 O 0.49275 0.56862 0.09005 0.0
C182 C 0.92795 0.50003 0.57834 0.0
O183 O 0.93588 0.51517 0.56925 0.0
Cd184 Cd 0.98105 0.50839 0.55836 0.0
O185 O 0.94416 0.47862 0.58223 0.0
Cd186 Cd 0.99233 0.45414 0.57666 0.0
C187 C 0.03035 0.51863 0.58169 0.0
O188 O 0.98552 0.45571 0.55531 0.0
O189 O 0.03046 0.44594 0.56088 0.0
O190 O 0.97177 0.40471 0.58046 0.0
C191 C 0.01185 0.44859 0.55237 0.0
O192 O 0.01935 0.52821 0.57188 0.0
C193 C 0.99161 0.39689 0.58797 0.0
O194 O 0.02318 0.49296 0.58578 0.0
O195 O 0.01163 0.41611 0.59049 0.0
C196 C 0.56228 0.49783 0.90313 0.0
O197 O 0.55964 0.51218 0.91288 0.0
Cd198 Cd 0.51449 0.51125 0.92407 0.0
O199 O 0.54176 0.47997 0.89963 0.0
Cd200 Cd 0.49381 0.45815 0.90686 0.0
C201 C 0.46311 0.52535 0.90152 0.0
O202 O 0.5051 0.45942 0.92792 0.0
O203 O 0.45854 0.45293 0.9238 0.0
O204 O 0.51461 0.41013 0.90121 0.0
C205 C 0.4789 0.45441 0.93169 0.0
O206 O 0.47773 0.53466 0.9106 0.0
C207 C 0.49164 0.4009 0.89563 0.0
O208 O 0.46524 0.49836 0.89797 0.0
O209 O 0.46939 0.41852 0.89517 0.0
C210 C 0.92599 0.4919 0.40843 0.0
O211 O 0.93346 0.47764 0.41782 0.0
Cd212 Cd 0.97739 0.48577 0.4295 0.0
O213 O 0.94177 0.51377 0.40463 0.0
Cd214 Cd 0.98753 0.54208 0.41066 0.0
C215 C 0.02978 0.47961 0.4069 0.0
O216 O 0.97944 0.5386 0.43171 0.0
O217 O 0.02318 0.55455 0.42706 0.0
O218 O 0.9651 0.5903 0.40625 0.0
C219 C 0.00471 0.54776 0.43523 0.0
O220 O 0.01793 0.46886 0.41636 0.0
C221 C 0.98441 0.598 0.3985 0.0
O222 O 0.02186 0.50499 0.40277 0.0
O223 O 0.00509 0.57938 0.39625 0.0
H224 H 0.04557 0.13844 0.57476 0.0
H225 H 0.0437 0.18982 0.58195 0.0
H226 H 0.99162 0.16144 0.61249 0.0
H227 H 0.9922 0.10991 0.60494 0.0
H228 H 0.96682 0.20672 0.60405 0.0
H229 H 0.06592 0.18977 0.61536 0.0
H230 H 0.118 0.17217 0.61406 0.0
H231 H 0.13448 0.23284 0.58493 0.0
H232 H 0.08239 0.25051 0.58592 0.0
H233 H 0.02711 0.37497 0.60598 0.0
H234 H 0.03179 0.32266 0.61237 0.0
H235 H 0.96426 0.2971 0.58662 0.0
H236 H 0.95862 0.3491 0.58064 0.0
H237 H 0.05131 0.27838 0.6009 0.0
H238 H 0.9281 0.23628 0.59297 0.0
H239 H 0.87695 0.25373 0.59719 0.0
H240 H 0.91023 0.3107 0.62522 0.0
H241 H 0.96154 0.29328 0.62131 0.0
C242 C 0.03411 0.14303 0.58311 0.0
C243 C 0.01893 0.1202 0.58926 0.0
C244 C 0.03327 0.17246 0.58729 0.0
C245 C 0.01792 0.17959 0.59789 0.0
C246 C 0.00364 0.15655 0.6043 0.0
C247 C 0.00401 0.12713 0.59999 0.0
C248 C 0.01434 0.21147 0.60146 0.0
C249 C 0.98537 0.22234 0.60353 0.0
C250 C 0.03865 0.23184 0.60135 0.0
C251 C 0.07014 0.22142 0.6007 0.0
C252 C 0.08058 0.19925 0.60863 0.0
C253 C 0.11013 0.18927 0.60795 0.0
C254 C 0.12953 0.20137 0.59942 0.0
C255 C 0.11943 0.22351 0.59155 0.0
C256 C 0.0899 0.23357 0.59218 0.0
C257 C 0.01284 0.35821 0.60188 0.0
C258 C 0.99251 0.36611 0.5928 0.0
C259 C 0.01557 0.32833 0.60552 0.0
C260 C -0.00186 0.30587 0.6001 0.0
C261 C 0.97737 0.31398 0.59122 0.0
C262 C 0.97434 0.34378 0.58772 0.0
C263 C 0.00355 0.27366 0.60265 0.0
C264 C 0.03287 0.26272 0.60177 0.0
C265 C 0.97971 0.25319 0.60434 0.0
C266 C 0.94875 0.2635 0.60681 0.0
C267 C 0.92452 0.25235 0.6001 0.0
C268 C 0.89548 0.26229 0.60242 0.0
C269 C 0.89035 0.28334 0.61145 0.0
C270 C 0.91424 0.29445 0.6182 0.0
C271 C 0.94332 0.28458 0.61593 0.0
H272 H 0.86786 0.29102 0.61322 0.0
H273 H 0.15239 0.1936 0.59891 0.0
H274 H 0.89445 0.7024 0.83098 0.0
H275 H 0.94551 0.70409 0.83833 0.0
H276 H 0.9179 0.76051 0.86775 0.0
H277 H 0.86667 0.7602 0.85994 0.0
H278 H 0.964 0.78303 0.85943 0.0
H279 H 0.94486 0.68559 0.87213 0.0
H280 H 0.92591 0.6337 0.87184 0.0
H281 H 0.98521 0.61244 0.84285 0.0
H282 H 0.00423 0.6643 0.84283 0.0
H283 H 0.13079 0.72005 0.85923 0.0
H284 H 0.07941 0.71624 0.86672 0.0
H285 H 0.0515 0.78251 0.84083 0.0
H286 H 0.10258 0.78737 0.83381 0.0
H287 H 0.03325 0.69669 0.85676 0.0
H288 H -0.00677 0.82056 0.84786 0.0
H289 H 0.01227 0.87171 0.85128 0.0
H290 H 0.07113 0.83898 0.87872 0.0
H291 H 0.05214 0.78768 0.87561 0.0
C292 C 0.89914 0.71484 0.83911 0.0
C293 C 0.87663 0.73126 0.84486 0.0
C294 C 0.92837 0.71553 0.84341 0.0
C295 C 0.93564 0.73193 0.85377 0.0
C296 C 0.91291 0.74761 0.85976 0.0
C297 C 0.88366 0.74743 0.8553 0.0
C298 C 0.96747 0.73512 0.85739 0.0
C299 C 0.97909 0.76409 0.85904 0.0
C300 C 0.98718 0.71033 0.85753 0.0
C301 C 0.97597 0.67894 0.85748 0.0
C302 C 0.95377 0.66991 0.86565 0.0
C303 C 0.94302 0.64048 0.86554 0.0
C304 C 0.95435 0.61979 0.85733 0.0
C305 C 0.97649 0.62848 0.84922 0.0
C306 C 0.98732 0.65789 0.84928 0.0
C307 C 0.1137 0.73417 0.85532 0.0
C308 C 0.12066 0.75402 0.84595 0.0
C309 C 0.08438 0.73197 0.8596 0.0
C310 C 0.06155 0.74943 0.85449 0.0
C311 C 0.06873 0.76949 0.84522 0.0
C312 C 0.09799 0.77204 0.84111 0.0
C313 C 0.02973 0.74477 0.85781 0.0
C314 C 0.01813 0.71553 0.85754 0.0
C315 C 0.01002 0.76919 0.85947 0.0
C316 C 0.02126 0.80018 0.86147 0.0
C317 C 0.01004 0.82426 0.8547 0.0
C318 C 0.02089 0.8533 0.85656 0.0
C319 C 0.04291 0.85858 0.8652 0.0
C320 C 0.05411 0.83485 0.87201 0.0
C321 C 0.04334 0.80577 0.87019 0.0
H322 H 0.05129 0.88108 0.86662 0.0
H323 H 0.94598 0.59701 0.85726 0.0
H324 H 0.46719 0.61393 0.09977 0.0
H325 H 0.46263 0.66703 0.10481 0.0
H326 H 0.55465 0.68137 0.09485 0.0
H327 H 0.55945 0.62829 0.08975 0.0
H328 H 0.53506 0.71624 0.11522 0.0
H329 H 0.50551 0.69143 0.0743 0.0
H330 H 0.47614 0.66333 0.05931 0.0
H331 H 0.39467 0.69486 0.07518 0.0
H332 H 0.42362 0.72282 0.09038 0.0
H333 H 0.54598 0.86459 0.09363 0.0
H334 H 0.5467 0.81143 0.09868 0.0
H335 H 0.45022 0.81045 0.09974 0.0
H336 H 0.44944 0.86336 0.09409 0.0
H337 H 0.46744 0.7678 0.08664 0.0
H338 H 0.49628 0.79969 0.12559 0.0
H339 H 0.52485 0.8276 0.14086 0.0
H340 H 0.60551 0.78363 0.12983 0.0
H341 H 0.57753 0.75574 0.11437 0.0
C342 C 0.48666 0.62823 0.09889 0.0
C343 C 0.51357 0.61706 0.09419 0.0
C344 C 0.48401 0.65852 0.1018 0.0
C345 C 0.50823 0.67806 0.10008 0.0
C346 C 0.53575 0.66657 0.09625 0.0
C347 C 0.53838 0.6363 0.09327 0.0
C348 C 0.50386 0.71082 0.1007 0.0
C349 C 0.52036 0.7277 0.10899 0.0
C350 C 0.48406 0.72546 0.09275 0.0
C351 C 0.46669 0.7089 0.08355 0.0
C352 C 0.48133 0.69217 0.07465 0.0
C353 C 0.46477 0.6763 0.06611 0.0
C354 C 0.43355 0.67723 0.06632 0.0
C355 C 0.41885 0.69411 0.07505 0.0
C356 C 0.43531 0.70998 0.08362 0.0
C357 C 0.52494 0.85315 0.09514 0.0
C358 C 0.49765 0.86798 0.09337 0.0
C359 C 0.52537 0.82277 0.09814 0.0
C360 C 0.49851 0.80689 0.09972 0.0
C361 C 0.47124 0.82217 0.09855 0.0
C362 C 0.4708 0.85239 0.09532 0.0
C363 C 0.49883 0.77381 0.10116 0.0
C364 C 0.48168 0.75667 0.09313 0.0
C365 C 0.51784 0.75907 0.10944 0.0
C366 C 0.5348 0.77575 0.11875 0.0
C367 C 0.52015 0.79612 0.12635 0.0
C368 C 0.53624 0.81191 0.13506 0.0
C369 C 0.56698 0.80743 0.1363 0.0
C370 C 0.5817 0.78708 0.12886 0.0
C371 C 0.56572 0.77124 0.12013 0.0
H372 H 0.57939 0.81968 0.14305 0.0
H373 H 0.42077 0.66494 0.0597 0.0
H374 H 0.62198 0.20563 0.35137 0.0
H375 H 0.56908 0.20162 0.35666 0.0
H376 H 0.55607 0.29427 0.34705 0.0
H377 H 0.60889 0.2985 0.3417 0.0
H378 H 0.52169 0.27482 0.36749 0.0
H379 H 0.54463 0.24538 0.3264 0.0
H380 H 0.57157 0.21561 0.31126 0.0
H381 H 0.53863 0.13435 0.32712 0.0
H382 H 0.51183 0.16368 0.34247 0.0
H383 H 0.37391 0.28999 0.34628 0.0
H384 H 0.42713 0.28913 0.35102 0.0
H385 H 0.42485 0.19244 0.35221 0.0
H386 H 0.3718 0.19321 0.34695 0.0
H387 H 0.46788 0.20869 0.33891 0.0
H388 H 0.43755 0.23767 0.37795 0.0
H389 H 0.41078 0.26664 0.39337 0.0
H390 H 0.45676 0.34665 0.38248 0.0
H391 H 0.48351 0.31827 0.36687 0.0
C392 C 0.60802 0.22534 0.35064 0.0
C393 C 0.61945 0.25227 0.34595 0.0
C394 C 0.57784 0.223 0.35368 0.0
C395 C 0.55872 0.24758 0.35212 0.0
C396 C 0.57054 0.27509 0.34832 0.0
C397 C 0.60066 0.2774 0.3452 0.0
C398 C 0.52598 0.24368 0.35288 0.0
C399 C 0.50976 0.26043 0.36127 0.0
C400 C 0.51069 0.22427 0.34495 0.0
C401 C 0.52655 0.20668 0.33566 0.0
C402 C 0.54334 0.22116 0.32671 0.0
C403 C 0.55855 0.20437 0.31809 0.0
C404 C 0.5569 0.1731 0.31825 0.0
C405 C 0.53995 0.15856 0.32702 0.0
C406 C 0.52474 0.17525 0.33569 0.0
C407 C 0.38466 0.26857 0.34774 0.0
C408 C 0.3688 0.24166 0.34616 0.0
C409 C 0.41507 0.26809 0.35055 0.0
C410 C 0.43003 0.24071 0.35211 0.0
C411 C 0.41384 0.21384 0.35105 0.0
C412 C 0.38354 0.2143 0.34804 0.0
C413 C 0.46304 0.24009 0.35349 0.0
C414 C 0.4795 0.22259 0.3454 0.0
C415 C 0.47842 0.25863 0.36179 0.0
C416 C 0.4624 0.27584 0.37118 0.0
C417 C 0.4418 0.26149 0.37878 0.0
C418 C 0.42666 0.2778 0.38757 0.0
C419 C 0.43203 0.30848 0.38889 0.0
C420 C 0.45261 0.32289 0.38144 0.0
C421 C 0.46781 0.30669 0.37263 0.0
H422 H 0.42028 0.32106 0.3957 0.0
H423 H 0.56868 0.16014 0.31157 0.0
H424 H 0.03406 0.85537 0.40636 0.0
H425 H 0.03226 0.80397 0.39929 0.0
H426 H 0.97539 0.83068 0.36988 0.0
H427 H 0.97599 0.88234 0.37734 0.0
H428 H 0.95276 0.7848 0.379 0.0
H429 H 0.04931 0.80346 0.36523 0.0
H430 H 0.10107 0.82247 0.36502 0.0
H431 H 0.12373 0.76411 0.39422 0.0
H432 H 0.07202 0.74505 0.39476 0.0
H433 H 0.0167 0.61799 0.37925 0.0
H434 H 0.01896 0.66924 0.37143 0.0
H435 H 0.95464 0.697 0.39802 0.0
H436 H 0.9513 0.64592 0.40541 0.0
H437 H 0.03905 0.71545 0.38117 0.0
H438 H 0.91632 0.7558 0.3913 0.0
H439 H 0.86504 0.73663 0.38864 0.0
H440 H 0.89535 0.6769 0.36107 0.0
H441 H 0.94675 0.696 0.36342 0.0
C442 C 0.02154 0.85045 0.39827 0.0
C443 C 0.00506 0.87285 0.39243 0.0
C444 C 0.02076 0.82101 0.39415 0.0
C445 C 0.00412 0.81338 0.3839 0.0
C446 C 0.98847 0.83598 0.37778 0.0
C447 C 0.98884 0.86547 0.38204 0.0
C448 C 0.00067 0.78135 0.38054 0.0
C449 C 0.97167 0.76966 0.37929 0.0
C450 C 0.02538 0.76159 0.38029 0.0
C451 C 0.05668 0.77283 0.38003 0.0
C452 C 0.06527 0.79477 0.37166 0.0
C453 C 0.09463 0.80556 0.37147 0.0
C454 C 0.11567 0.7945 0.3796 0.0
C455 C 0.10741 0.77261 0.38792 0.0
C456 C 0.07808 0.76176 0.38815 0.0
C457 C 0.00261 0.63498 0.38324 0.0
C458 C 0.98385 0.628 0.39295 0.0
C459 C 0.00393 0.66425 0.37877 0.0
C460 C 0.9867 0.68703 0.38401 0.0
C461 C 0.9675 0.67979 0.39355 0.0
C462 C 0.96581 0.65055 0.39786 0.0
C463 C 0.99102 0.71892 0.38059 0.0
C464 C 0.02019 0.73058 0.38051 0.0
C465 C 0.96654 0.73864 0.37911 0.0
C466 C 0.93549 0.72733 0.37756 0.0
C467 C 0.91205 0.73876 0.38459 0.0
C468 C 0.88294 0.72785 0.38316 0.0
C469 C 0.87695 0.70554 0.3747 0.0
C470 C 0.90003 0.69413 0.36764 0.0
C471 C 0.92917 0.70497 0.36903 0.0
H472 H 0.8544 0.69711 0.37361 0.0
H473 H 0.13839 0.80289 0.37945 0.0
H474 H 0.3847 0.78927 0.64601 0.0
H475 H 0.43799 0.78463 0.64161 0.0
H476 H 0.42777 0.68899 0.63777 0.0
H477 H 0.37431 0.69344 0.64209 0.0
H478 H 0.4717 0.70572 0.65404 0.0
H479 H 0.44406 0.72851 0.6137 0.0
H480 H 0.41929 0.75694 0.59757 0.0
H481 H 0.47053 0.83513 0.60673 0.0
H482 H 0.49531 0.8073 0.62304 0.0
H483 H 0.6257 0.68901 0.64429 0.0
H484 H 0.57207 0.6862 0.6402 0.0
H485 H 0.56763 0.78277 0.63921 0.0
H486 H 0.62145 0.78566 0.64282 0.0
H487 H 0.53043 0.76037 0.62328 0.0
H488 H 0.55154 0.74206 0.66503 0.0
H489 H 0.57538 0.71645 0.68214 0.0
H490 H 0.53519 0.63319 0.6714 0.0
H491 H 0.5114 0.65826 0.65414 0.0
C492 C 0.3937 0.7673 0.64404 0.0
C493 C 0.37539 0.74169 0.64447 0.0
C494 C 0.4241 0.76471 0.64146 0.0
C495 C 0.43674 0.73648 0.63931 0.0
C496 C 0.41836 0.71097 0.63936 0.0
C497 C 0.38786 0.71358 0.64182 0.0
C498 C 0.46955 0.73342 0.63826 0.0
C499 C 0.48454 0.71708 0.64714 0.0
C500 C 0.4862 0.74903 0.62948 0.0
C501 C 0.4714 0.76585 0.61966 0.0
C502 C 0.44988 0.75184 0.61234 0.0
C503 C 0.43587 0.76783 0.60315 0.0
C504 C 0.44329 0.79784 0.60114 0.0
C505 C 0.46479 0.81189 0.6083 0.0
C506 C 0.47886 0.796 0.61751 0.0
C507 C 0.61335 0.70962 0.64302 0.0
C508 C 0.62765 0.73757 0.64402 0.0
C509 C 0.58271 0.70799 0.64072 0.0
C510 C 0.56571 0.73429 0.63968 0.0
C511 C 0.58026 0.76218 0.64002 0.0
C512 C 0.61101 0.76381 0.64213 0.0
C513 C 0.53259 0.73291 0.63915 0.0
C514 C 0.51757 0.74854 0.63003 0.0
C515 C 0.51579 0.71703 0.64784 0.0
C516 C 0.53 0.70195 0.65822 0.0
C517 C 0.54797 0.71824 0.66628 0.0
C518 C 0.56144 0.70384 0.676 0.0
C519 C 0.55688 0.67319 0.67783 0.0
C520 C 0.53876 0.65691 0.66996 0.0
C521 C 0.52527 0.6712 0.6602 0.0
H522 H 0.56733 0.66208 0.68537 0.0
H523 H 0.43242 0.81018 0.59402 0.0
H524 H 0.53789 0.362 0.89282 0.0
H525 H 0.53504 0.30928 0.88715 0.0
H526 H 0.43999 0.31765 0.88159 0.0
H527 H 0.44265 0.37063 0.88727 0.0
H528 H 0.45466 0.27352 0.89741 0.0
H529 H 0.48393 0.3024 0.85808 0.0
H530 H 0.51413 0.32834 0.84279 0.0
H531 H 0.5919 0.27945 0.85392 0.0
H532 H 0.56229 0.25352 0.86941 0.0
H533 H 0.44744 0.11883 0.88926 0.0
H534 H 0.44291 0.17146 0.88353 0.0
H535 H 0.53869 0.18162 0.88593 0.0
H536 H 0.54342 0.12855 0.89114 0.0
H537 H 0.51742 0.21673 0.8687 0.0
H538 H 0.49233 0.1966 0.91006 0.0
H539 H 0.46475 0.17185 0.92645 0.0
H540 H 0.38201 0.20607 0.91256 0.0
H541 H 0.40912 0.23072 0.896 0.0
C542 C 0.51645 0.35279 0.89017 0.0
C543 C 0.49043 0.37034 0.8906 0.0
C544 C 0.51491 0.32271 0.88684 0.0
C545 C 0.48733 0.30964 0.88388 0.0
C546 C 0.4615 0.32742 0.88379 0.0
C547 C 0.46306 0.35763 0.88704 0.0
C548 C 0.48512 0.27673 0.88253 0.0
C549 C 0.46774 0.2611 0.89091 0.0
C550 C 0.50296 0.26064 0.8743 0.0
C551 C 0.52088 0.27612 0.86496 0.0
C552 C 0.50752 0.29733 0.85733 0.0
C553 C 0.52453 0.31201 0.84862 0.0
C554 C 0.55492 0.30558 0.84739 0.0
C555 C 0.56836 0.28441 0.85488 0.0
C556 C 0.55145 0.26968 0.86362 0.0
C557 C 0.46757 0.13218 0.88833 0.0
C558 C 0.49575 0.11984 0.89082 0.0
C559 C 0.46495 0.16222 0.88507 0.0
C560 C 0.49039 0.18065 0.88461 0.0
C561 C 0.51874 0.16785 0.88628 0.0
C562 C 0.52143 0.13758 0.8893 0.0
C563 C 0.48728 0.21363 0.88369 0.0
C564 C 0.50377 0.22921 0.87498 0.0
C565 C 0.46899 0.22986 0.89175 0.0
C566 C 0.45269 0.21518 0.90172 0.0
C567 C 0.46824 0.19867 0.91046 0.0
C568 C 0.4527 0.18469 0.91978 0.0
C569 C 0.42164 0.18731 0.92052 0.0
C570 C 0.40606 0.204 0.91196 0.0
C571 C 0.4215 0.21799 0.90261 0.0
H572 H 0.40964 0.17647 0.92775 0.0
H573 H 0.56806 0.31697 0.84064 0.0
H574 H 0.1299 0.28752 0.13893 0.0
H575 H 0.07643 0.29047 0.13451 0.0
H576 H 0.06684 0.19628 0.14224 0.0
H577 H 0.12029 0.1931 0.14675 0.0
H578 H 0.03049 0.21773 0.12242 0.0
H579 H 0.05492 0.24088 0.16395 0.0
H580 H 0.08196 0.26857 0.17975 0.0
H581 H 0.0466 0.35156 0.16645 0.0
H582 H 0.01969 0.32435 0.15046 0.0
H583 H 0.88334 0.19758 0.14417 0.0
H584 H 0.93618 0.19957 0.13886 0.0
H585 H 0.9336 0.29624 0.13995 0.0
H586 H 0.881 0.29427 0.14577 0.0
H587 H 0.97685 0.27819 0.15285 0.0
H588 H 0.94572 0.25502 0.1132 0.0
H589 H 0.9188 0.22809 0.09718 0.0
H590 H 0.96577 0.1472 0.10597 0.0
H591 H 0.99269 0.17352 0.12216 0.0
C592 C 0.11655 0.26729 0.13946 0.0
C593 C 0.12918 0.24015 0.14334 0.0
C594 C 0.08604 0.26903 0.13691 0.0
C595 C 0.06777 0.24364 0.13815 0.0
C596 C 0.08066 0.21607 0.14121 0.0
C597 C 0.11113 0.21436 0.14386 0.0
C598 C 0.0349 0.24656 0.13777 0.0
C599 C 0.01859 0.23084 0.12905 0.0
C600 C 0.01964 0.26431 0.14627 0.0
C601 C 0.03561 0.28063 0.15593 0.0
C602 C 0.05312 0.26505 0.16434 0.0
C603 C 0.06838 0.28065 0.17333 0.0
C604 C 0.06608 0.31182 0.17408 0.0
C605 C 0.04842 0.32743 0.16585 0.0
C606 C 0.03316 0.31193 0.15682 0.0
C607 C 0.8939 0.21927 0.14304 0.0
C608 C 0.87817 0.24577 0.14549 0.0
C609 C 0.9241 0.2204 0.13992 0.0
C610 C 0.93892 0.24808 0.13892 0.0
C611 C 0.9227 0.27462 0.1407 0.0
C612 C 0.89265 0.27348 0.14402 0.0
C613 C 0.9719 0.24919 0.13749 0.0
C614 C 0.98842 0.26555 0.14597 0.0
C615 C 0.98721 0.2322 0.1287 0.0
C616 C 0.97109 0.21623 0.11896 0.0
C617 C 0.95016 0.23143 0.11178 0.0
C618 C 0.93492 0.21628 0.10266 0.0
C619 C 0.94053 0.18594 0.10057 0.0
C620 C 0.96144 0.1707 0.10759 0.0
C621 C 0.97673 0.18574 0.11674 0.0
H622 H 0.92871 0.17425 0.0935 0.0
H623 H 0.0779 0.32386 0.18105 0.0
H624 H 0.91549 0.96712 0.43952 0.0
H625 H 0.89917 0.97755 0.46014 0.0
H626 H 0.98463 0.9476 0.47346 0.0
H627 H 0.00104 0.9376 0.45303 0.0
H628 H 0.93704 0.93242 0.48868 0.0
H629 H 0.97661 0.01868 0.46593 0.0
H630 H 0.97442 0.0538 0.44887 0.0
H631 H 0.88563 0.07976 0.45906 0.0
H632 H 0.88718 0.04438 0.47608 0.0
H633 H 0.0171 0.01073 0.53 0.0
H634 H -0.0045 -0.00574 0.5111 0.0
H635 H 0.91044 0.03187 0.5211 0.0
H636 H 0.93191 0.04831 0.54035 0.0
H637 H 0.93515 0.04241 0.49536 0.0
H638 H 0.906 0.96604 0.52268 0.0
H639 H 0.91293 0.93183 0.53981 0.0
H640 H 0.98421 0.88747 0.52122 0.0
H641 H 0.97807 0.92173 0.50406 0.0
C642 C 0.93039 0.96193 0.44692 0.0
C643 C 0.95965 0.95188 0.44475 0.0
C644 C 0.92105 0.96792 0.45864 0.0
C645 C 0.94079 0.96352 0.46828 0.0
C646 C 0.96903 0.95104 0.46615 0.0
C647 C 0.97848 0.94551 0.45448 0.0
C648 C 0.93458 0.9758 0.48032 0.0
C649 C 0.93598 0.95641 0.49018 0.0
C650 C 0.93256 0.0071 0.48224 0.0
C651 C 0.93186 0.02868 0.47216 0.0
C652 C 0.95657 0.03176 0.46448 0.0
C653 C 0.95545 0.0517 0.45483 0.0
C654 C 0.92987 0.06894 0.45286 0.0
C655 C 0.9054 0.06633 0.46058 0.0
C656 C 0.90637 0.04633 0.47022 0.0
C657 C -0.00614 0.01585 0.52819 0.0
C658 C 0.97613 0.03061 0.53671 0.0
C659 C 0.98156 0.00633 0.51739 0.0
C660 C 0.95135 0.01152 0.51484 0.0
C661 C 0.93378 0.02756 0.52301 0.0
C662 C 0.94607 0.03692 0.53395 0.0
C663 C 0.93881 -0.00097 0.50367 0.0
C664 C 0.93431 0.01836 0.49395 0.0
C665 C 0.93808 0.96767 0.50188 0.0
C666 C 0.94157 0.94652 0.51208 0.0
C667 C 0.92326 0.94909 0.52226 0.0
C668 C 0.92704 0.92968 0.53198 0.0
C669 C 0.949 0.9075 0.53161 0.0
C670 C 0.96718 0.90464 0.5215 0.0
C671 C 0.96351 0.92402 0.51176 0.0
H672 H 0.95192 0.89251 0.53914 0.0
H673 H 0.92903 0.08436 0.44538 0.0
H674 H 0.20288 0.77743 0.78585 0.0
H675 H 0.21097 0.76561 0.76482 0.0
H676 H 0.21543 0.67144 0.77338 0.0
H677 H 0.20748 0.68323 0.79466 0.0
H678 H 0.26242 0.68975 0.7595 0.0
H679 H 0.1571 0.69596 0.75735 0.0
H680 H 0.10689 0.71652 0.76113 0.0
H681 H 0.13017 0.79679 0.74206 0.0
H682 H 0.18067 0.77694 0.73831 0.0
H683 H 0.28161 0.68084 0.69461 0.0
H684 H 0.26395 0.67112 0.71509 0.0
H685 H 0.251 0.76594 0.72043 0.0
H686 H 0.26832 0.77579 0.70013 0.0
H687 H 0.20161 0.73283 0.72655 0.0
H688 H 0.30969 0.7298 0.7328 0.0
H689 H 0.36024 0.7096 0.72937 0.0
H690 H 0.33083 0.62251 0.74078 0.0
H691 H 0.27998 0.64215 0.74413 0.0
C692 C 0.20516 0.75415 0.78326 0.0
C693 C 0.20463 0.73126 0.79189 0.0
C694 C 0.20962 0.7474 0.77122 0.0
C695 C 0.2135 0.71762 0.76753 0.0
C696 C 0.21232 0.69455 0.77607 0.0
C697 C 0.20768 0.70131 0.78818 0.0
C698 C 0.22098 0.71145 0.75485 0.0
C699 C 0.24876 0.6984 0.75225 0.0
C700 C 0.20322 0.72288 0.74542 0.0
C701 C 0.17276 0.73494 0.74758 0.0
C702 C 0.15159 0.71807 0.75402 0.0
C703 C 0.12306 0.7296 0.75615 0.0
C704 C 0.11535 0.75795 0.75185 0.0
C705 C 0.13616 0.77482 0.74538 0.0
C706 C 0.16473 0.76341 0.74323 0.0
C707 C 0.27533 0.6996 0.70022 0.0
C708 C 0.27618 0.72907 0.69575 0.0
C709 C 0.26522 0.694 0.71189 0.0
C710 C 0.25598 0.71781 0.71921 0.0
C711 C 0.25775 0.74724 0.71486 0.0
C712 C 0.2678 0.75283 0.70328 0.0
C713 C 0.24364 0.71263 0.73132 0.0
C714 C 0.21486 0.72341 0.73378 0.0
C715 C 0.26044 0.69906 0.74058 0.0
C716 C 0.29097 0.68733 0.73856 0.0
C717 C 0.31394 0.70628 0.73447 0.0
C718 C 0.34266 0.69495 0.73257 0.0
C719 C 0.34872 0.66476 0.73482 0.0
C720 C 0.32609 0.64586 0.73901 0.0
C721 C 0.29733 0.65708 0.74092 0.0
H722 H 0.37096 0.65604 0.73334 0.0
H723 H 0.09325 0.76683 0.75351 0.0
H724 H 0.4852 0.92998 0.03434 0.0
H725 H 0.49458 0.94029 0.01316 0.0
H726 H 0.57078 -0.00522 0.02293 0.0
H727 H 0.56265 0.98243 0.04403 0.0
H728 H 0.48837 0.98829 0.00291 0.0
H729 H 0.61729 0.00722 -0.00015 0.0
H730 H 0.66363 0.98529 0.00799 0.0
H731 H 0.6182 0.9018 0.01402 0.0
H732 H 0.57171 0.92309 0.00577 0.0
H733 H 0.50665 0.07065 0.9513 0.0
H734 H 0.51456 0.0563 0.97226 0.0
H735 H 0.56386 0.97841 0.96066 0.0
H736 H 0.55785 -0.00584 0.93978 0.0
H737 H 0.58463 0.99377 0.98102 0.0
H738 H 0.4863 0.97676 0.96591 0.0
H739 H 0.43845 0.98991 0.95627 0.0
H740 H 0.41999 0.05274 0.98444 0.0
H741 H 0.46796 0.04027 -0.00584 0.0
C742 C 0.50447 0.94338 0.03187 0.0
C743 C 0.52332 0.95531 0.04071 0.0
C744 C 0.50974 0.94946 0.0198 0.0
C745 C 0.53339 0.9684 0.01637 0.0
C746 C 0.55282 0.97956 0.02524 0.0
C747 C 0.5481 0.97262 0.03731 0.0
C748 C 0.53563 0.97891 0.00375 0.0
C749 C 0.50948 0.98923 -0.00185 0.0
C750 C 0.563 0.97993 -0.00261 0.0
C751 C 0.59093 0.96688 0.0023 0.0
C752 C 0.61721 0.98415 0.00287 0.0
C753 C 0.64351 0.97184 0.00751 0.0
C754 C 0.64383 0.9422 0.01155 0.0
C755 C 0.61789 0.92479 0.01093 0.0
C756 C 0.59154 0.93699 0.00629 0.0
C757 C 0.52006 0.05111 0.95332 0.0
C758 C 0.53174 0.03348 0.94407 0.0
C759 C 0.52435 0.04272 0.96524 0.0
C760 C 0.53898 0.01573 0.96803 0.0
C761 C 0.5524 -0.00076 0.95877 0.0
C762 C 0.54898 0.00821 0.94685 0.0
C763 C 0.53743 0.00308 0.98033 0.0
C764 C 0.56363 0.99258 0.98585 0.0
C765 C 0.50985 0.00042 0.98645 0.0
C766 C 0.48083 0.00778 0.9807 0.0
C767 C 0.47209 0.99349 0.97001 0.0
C768 C 0.44496 0.00082 0.96453 0.0
C769 C 0.42622 0.02219 0.96972 0.0
C770 C 0.43455 0.03622 0.98042 0.0
C771 C 0.4617 0.02903 0.98592 0.0
H772 H 0.40522 0.02784 0.96547 0.0
H773 H 0.66421 0.93271 0.01515 0.0
H774 H 0.21371 0.21566 0.20176 0.0
H775 H 0.21932 0.22623 0.22306 0.0
H776 H 0.22012 0.32113 0.2157 0.0
H777 H 0.21436 0.31065 0.19417 0.0
H778 H 0.26768 0.30208 0.2302 0.0
H779 H 0.16204 0.29475 0.23004 0.0
H780 H 0.11272 0.27353 0.22494 0.0
H781 H 0.13458 0.19258 0.24377 0.0
H782 H 0.18422 0.21309 0.24884 0.0
H783 H 0.27989 0.30942 0.29517 0.0
H784 H 0.26483 0.31924 0.27437 0.0
H785 H 0.24961 0.22466 0.26901 0.0
H786 H 0.2641 0.21481 0.28968 0.0
H787 H 0.20277 0.25728 0.26147 0.0
H788 H 0.31129 0.26083 0.25769 0.0
H789 H 0.36149 0.28075 0.26227 0.0
H790 H 0.33421 0.36823 0.25062 0.0
H791 H 0.28371 0.34887 0.2461 0.0
C792 C 0.21468 0.23882 0.20467 0.0
C793 C 0.21368 0.26233 0.19632 0.0
C794 C 0.21775 0.24482 0.21685 0.0
C795 C 0.21991 0.27446 0.22094 0.0
C796 C 0.21835 0.29812 0.21268 0.0
C797 C 0.21495 0.2921 0.20044 0.0
C798 C 0.22578 0.27998 0.2338 0.0
C799 C 0.25315 0.29304 0.23709 0.0
C800 C 0.2069 0.26791 0.24273 0.0
C801 C 0.17694 0.25547 0.23979 0.0
C802 C 0.15642 0.27235 0.23304 0.0
C803 C 0.12838 0.26045 0.23016 0.0
C804 C 0.12053 0.23172 0.23402 0.0
C805 C 0.14069 0.21484 0.24079 0.0
C806 C 0.16876 0.22662 0.24369 0.0
C807 C 0.27367 0.29074 0.28949 0.0
C808 C 0.27302 0.26136 0.29405 0.0
C809 C 0.26504 0.29638 0.27763 0.0
C810 C 0.25595 0.27268 0.27018 0.0
C811 C 0.25624 0.24331 0.27465 0.0
C812 C 0.26468 0.23769 0.28645 0.0
C813 C 0.24533 0.27797 0.25779 0.0
C814 C 0.21696 0.26706 0.25462 0.0
C815 C 0.26333 0.29192 0.24899 0.0
C816 C 0.29364 0.30351 0.25172 0.0
C817 C 0.31593 0.28437 0.25621 0.0
C818 C 0.34445 0.29554 0.25877 0.0
C819 C 0.35101 0.32576 0.25678 0.0
C820 C 0.32908 0.34485 0.25219 0.0
C821 C 0.30052 0.33379 0.24962 0.0
H822 H 0.3731 0.33437 0.25877 0.0
H823 H 0.09882 0.22255 0.23178 0.0
H824 H 0.79215 0.16774 0.19666 0.0
H825 H 0.77928 0.15588 0.21751 0.0
H826 H 0.78863 0.24926 0.22687 0.0
H827 H 0.80141 0.26116 0.20618 0.0
H828 H 0.80907 0.21231 0.24472 0.0
H829 H 0.72219 0.22213 0.21831 0.0
H830 H 0.69167 0.20732 0.20085 0.0
H831 H 0.68333 0.11821 0.21501 0.0
H832 H 0.71423 0.13243 0.23248 0.0
H833 H 0.71039 0.2697 0.28496 0.0
H834 H 0.72901 0.25402 0.26545 0.0
H835 H 0.71896 0.16132 0.27557 0.0
H836 H 0.70029 0.17685 0.29532 0.0
H837 H 0.70296 0.18152 0.24936 0.0
H838 H 0.78167 0.17835 0.27865 0.0
H839 H 0.80882 0.19816 0.2962 0.0
H840 H 0.83103 0.27787 0.27656 0.0
H841 H 0.80345 0.25882 0.25897 0.0
C842 C 0.7922 0.18556 0.20325 0.0
C843 C 0.7974 0.21543 0.19981 0.0
C844 C 0.78477 0.17877 0.21512 0.0
C845 C 0.78269 0.20176 0.22367 0.0
C846 C 0.79013 0.23119 0.2204 0.0
C847 C 0.79728 0.23799 0.20857 0.0
C848 C 0.76958 0.19642 0.23564 0.0
C849 C 0.78604 0.20512 0.24576 0.0
C850 C 0.73963 0.18661 0.237 0.0
C851 C 0.72081 0.1782 0.2266 0.0
C852 C 0.71401 0.19932 0.21765 0.0
C853 C 0.69664 0.19105 0.20776 0.0
C854 C 0.68565 0.16182 0.2068 0.0
C855 C 0.69193 0.14083 0.21575 0.0
C856 C 0.70938 0.14897 0.22564 0.0
C857 C 0.7115 0.24596 0.28298 0.0
C858 C 0.70434 0.2245 0.29173 0.0
C859 C 0.72211 0.23706 0.27183 0.0
C860 C 0.7257 0.20659 0.26921 0.0
C861 C 0.71635 0.18495 0.27751 0.0
C862 C 0.70574 0.19387 0.28876 0.0
C863 C 0.74225 0.1982 0.2583 0.0
C864 C 0.72641 0.18725 0.2484 0.0
C865 C 0.77273 0.2061 0.25711 0.0
C866 C 0.79038 0.21717 0.2675 0.0
C867 C 0.79223 0.20016 0.27809 0.0
C868 C 0.80768 0.21126 0.28805 0.0
C869 C 0.82162 0.23927 0.2875 0.0
C870 C 0.82023 0.25617 0.27697 0.0
C871 C 0.80472 0.24521 0.26699 0.0
H872 H 0.83352 0.24786 0.29523 0.0
H873 H 0.6722 0.15545 0.19914 0.0
H874 H 0.72687 0.71925 0.70037 0.0
H875 H 0.73483 0.73045 0.72147 0.0
H876 H 0.72031 0.82444 0.7146 0.0
H877 H 0.71238 0.81333 0.69324 0.0
H878 H 0.77126 0.81361 0.72832 0.0
H879 H 0.66858 0.78882 0.73004 0.0
H880 H 0.62263 0.76029 0.72562 0.0
H881 H 0.65944 0.68281 0.74297 0.0
H882 H 0.7058 0.7107 0.74734 0.0
H883 H 0.7858 0.81182 0.79443 0.0
H884 H 0.7691 0.82394 0.77396 0.0
H885 H 0.77567 0.73059 0.7643 0.0
H886 H 0.79218 0.71843 0.78451 0.0
H887 H 0.7192 0.75596 0.7601 0.0
H888 H 0.82529 0.77893 0.75407 0.0
H889 H 0.87147 0.80744 0.75819 0.0
H890 H 0.82678 0.88944 0.74912 0.0
H891 H 0.78021 0.86141 0.74509 0.0
C892 C 0.72505 0.74229 0.70333 0.0
C893 C 0.719 0.76541 0.69516 0.0
C894 C 0.72949 0.74865 0.71541 0.0
C895 C 0.72785 0.77823 0.7196 0.0
C896 C 0.72152 0.80145 0.71152 0.0
C897 C 0.71688 0.79505 0.69937 0.0
C898 C 0.73424 0.78432 0.73238 0.0
C899 C 0.7594 0.8017 0.73534 0.0
C900 C 0.71871 0.76881 0.74151 0.0
C901 C 0.69074 0.75189 0.739 0.0
C902 C 0.66696 0.76565 0.73286 0.0
C903 C 0.64082 0.74958 0.73037 0.0
C904 C 0.63812 0.71975 0.73401 0.0
C905 C 0.66154 0.70593 0.74017 0.0
C906 C 0.68774 0.72189 0.74268 0.0
C907 C 0.7843 0.79407 0.78783 0.0
C908 C 0.78994 0.76413 0.79107 0.0
C909 C 0.77468 0.801 0.7762 0.0
C910 C 0.77078 0.77805 0.76772 0.0
C911 C 0.77818 0.74853 0.77078 0.0
C912 C 0.78771 0.74164 0.78231 0.0
C913 C 0.75718 0.7837 0.75587 0.0
C914 C 0.73048 0.76864 0.75314 0.0
C915 C 0.77122 0.80142 0.74701 0.0
C916 C 0.79919 0.81815 0.74944 0.0
C917 C 0.82524 0.80308 0.75307 0.0
C918 C 0.8515 0.81913 0.75536 0.0
C919 C 0.85203 0.85025 0.75397 0.0
C920 C 0.82632 0.86535 0.75023 0.0
C921 C 0.8 0.8494 0.74794 0.0
H922 H 0.87238 0.86264 0.75574 0.0
H923 H 0.61787 0.70735 0.73207 0.0
H924 H 0.51778 0.4477 0.95009 0.0
H925 H 0.50879 0.45731 0.97127 0.0
H926 H 0.41615 0.47628 0.96369 0.0
H927 H 0.42503 0.46646 0.94231 0.0
H928 H 0.4444 0.521 0.97699 0.0
H929 H 0.43007 0.41643 0.97975 0.0
H930 H 0.4399 0.36289 0.97609 0.0
H931 H 0.52436 0.37039 -0.00584 0.0
H932 H 0.51528 0.42409 -0.00222 0.0
H933 H 0.44493 0.54205 0.04208 0.0
H934 H 0.43008 0.52632 0.02183 0.0
H935 H 0.5204 0.49769 0.01482 0.0
H936 H 0.53538 0.51327 0.03486 0.0
H937 H 0.47744 0.45391 0.00986 0.0
H938 H 0.49525 0.56042 0.00277 0.0
H939 H 0.48593 0.61425 0.00605 0.0
H940 H 0.39395 0.60234 -0.00396 0.0
H941 H 0.40268 0.54832 0.99285 0.0
C942 C 0.49537 0.45342 0.95294 0.0
C943 C 0.47213 0.45642 0.94458 0.0
C944 C 0.49022 0.45877 0.96505 0.0
C945 C 0.46176 0.46731 0.96904 0.0
C946 C 0.43822 0.46957 0.96077 0.0
C947 C 0.4433 0.46385 0.9486 0.0
C948 C 0.45787 0.47617 0.9817 0.0
C949 C 0.45076 0.50612 0.98424 0.0
C950 C 0.46636 0.45676 0.99111 0.0
C951 C 0.47199 0.42438 0.98901 0.0
C952 C 0.45083 0.40673 0.98288 0.0
C953 C 0.45626 0.37633 0.98082 0.0
C954 C 0.48274 0.36325 0.98488 0.0
C955 C 0.50384 0.38055 0.99103 0.0
C956 C 0.49853 0.41097 0.99311 0.0
C957 C 0.46167 0.53278 0.03614 0.0
C958 C 0.49128 0.5287 0.04008 0.0
C959 C 0.45313 0.52377 0.02462 0.0
C960 C 0.47411 0.51059 0.01692 0.0
C961 C 0.50384 0.50753 0.0207 0.0
C962 C 0.51238 0.51661 0.03213 0.0
C963 C 0.46548 0.49901 0.005 0.0
C964 C 0.47016 0.46851 0.00265 0.0
C965 C 0.45471 0.51788 -0.0042 0.0
C966 C 0.4495 0.55029 -0.00226 0.0
C967 C 0.47297 0.56923 0.00139 0.0
C968 C 0.46782 0.59978 0.0032 0.0
C969 C 0.43934 0.61169 0.0013 0.0
C970 C 0.41598 0.59307 -0.00246 0.0
C971 C 0.42102 0.5625 -0.00427 0.0
H972 H 0.43539 0.63535 0.0027 0.0
H973 H 0.4869 0.33971 0.98328 0.0
H974 H 0.0684 0.45768 0.54359 0.0
H975 H 0.08169 0.47029 0.52284 0.0
H976 H 0.98979 0.45759 0.51217 0.0
H977 H 0.97647 0.44508 0.53273 0.0
H978 H 0.02896 0.43738 0.49506 0.0
H979 H 0.01421 0.5255 0.52066 0.0
H980 H 0.02687 0.55724 0.53805 0.0
H981 H 0.11652 0.56737 0.52493 0.0
H982 H 0.10445 0.53528 0.50754 0.0
H983 H 0.96942 0.53291 0.45401 0.0
H984 H 0.98525 0.51405 0.47348 0.0
H985 H 0.07742 0.53017 0.46423 0.0
H986 H 0.06173 0.5491 0.44449 0.0
H987 H 0.05588 0.54466 0.49001 0.0
H988 H 0.0636 0.46569 0.46119 0.0
H989 H 0.04633 0.43673 0.44367 0.0
H990 H 0.96733 0.41044 0.46282 0.0
H991 H 0.98383 0.43975 0.48037 0.0
C992 C 0.05124 0.45689 0.53674 0.0
C993 C 0.02133 0.45077 0.53976 0.0
C994 C 0.05885 0.46415 0.52492 0.0
C995 C 0.03665 0.46515 0.51602 0.0
C996 C 0.00726 0.45691 0.5189 0.0
C997 C -0.00036 0.44993 0.53067 0.0
C998 C 0.04262 0.4779 0.50403 0.0
C999 C 0.03531 0.46069 0.49393 0.0
C1000 C 0.05146 0.50818 0.50255 0.0
C1001 C 0.05857 0.52772 0.5129 0.0
C1002 C 0.03667 0.53434 0.52153 0.0
C1003 C 0.04373 0.5524 0.53138 0.0
C1004 C 0.07251 0.56424 0.53262 0.0
C1005 C 0.09426 0.55812 0.52398 0.0
C1006 C 0.08734 0.53999 0.51413 0.0
C1007 C -0.00696 0.53301 0.45616 0.0
C1008 C 0.01436 0.54209 0.44767 0.0
C1009 C 0.00203 0.52222 0.46728 0.0
C1010 C 0.03246 0.52035 0.47015 0.0
C1011 C 0.05383 0.5314 0.46209 0.0
C1012 C 0.04482 0.54218 0.45086 0.0
C1013 C 0.04122 0.50436 0.48117 0.0
C1014 C 0.05103 0.52098 0.49107 0.0
C1015 C 0.03454 0.47355 0.48248 0.0
C1016 C 0.02495 0.45502 0.47209 0.0
C1017 C 0.04248 0.45385 0.46165 0.0
C1018 C 0.03282 0.43738 0.4517 0.0
C1019 C 0.00574 0.42177 0.45213 0.0
C1020 C 0.98832 0.42253 0.46251 0.0
C1021 C -0.00216 0.43903 0.47247 0.0
H1022 H -0.00173 0.40908 0.44441 0.0
H1023 H 0.07794 0.57821 0.54025 0.0
H1024 H 0.19828 0.85477 0.65393 0.0
H1025 H 0.18168 0.89008 0.63869 0.0
H1026 H 0.25556 0.86509 0.6161 0.0
H1027 H 0.27232 0.829 0.63126 0.0
H1028 H 0.22707 0.93703 0.61958 0.0
H1029 H 0.21425 0.8329 0.60475 0.0
H1030 H 0.20183 0.77997 0.60878 0.0
H1031 H 0.11621 0.80614 0.62258 0.0
H1032 H 0.12846 0.85932 0.61884 0.0
H1033 H 0.11178 0.94022 0.56562 0.0
H1034 H 0.15302 0.91817 0.57685 0.0
H1035 H 0.13556 0.97816 0.60633 0.0
H1036 H 0.09448 0.00076 0.59506 0.0
H1037 H 0.14491 0.88805 0.59687 0.0
H1038 H 0.19861 0.98687 0.62325 0.0
H1039 H 0.2112 0.04012 0.6201 0.0
H1040 H 0.21626 0.02539 0.58213 0.0
H1041 H 0.20412 0.97198 0.58505 0.0
C1042 C 0.21149 0.85713 0.64586 0.0
C1043 C 0.23637 0.83865 0.64373 0.0
C1044 C 0.20203 0.8775 0.6372 0.0
C1045 C 0.21741 0.88002 0.62633 0.0
C1046 C 0.24357 0.86344 0.6245 0.0
C1047 C 0.25297 0.84275 0.63314 0.0
C1048 C 0.203 0.89606 0.61634 0.0
C1049 C 0.20935 0.92644 0.61445 0.0
C1050 C 0.18013 0.88194 0.60969 0.0
C1051 C 0.17236 0.85001 0.61161 0.0
C1052 C 0.19286 0.82734 0.60871 0.0
C1053 C 0.18585 0.79731 0.61094 0.0
C1054 C 0.15825 0.78968 0.61595 0.0
C1055 C 0.13758 0.81208 0.61871 0.0
C1056 C 0.14455 0.84216 0.61654 0.0
C1057 C 0.11702 0.94914 0.57441 0.0
C1058 C 0.09959 0.97202 0.57951 0.0
C1059 C 0.14065 0.93652 0.5808 0.0
C1060 C 0.14739 0.9465 0.59241 0.0
C1061 C 0.13105 0.97038 0.59731 0.0
C1062 C 0.10744 0.98317 0.59088 0.0
C1063 C 0.16877 0.92947 0.59993 0.0
C1064 C 0.16326 0.89877 0.60159 0.0
C1065 C 0.19257 0.94339 0.60622 0.0
C1066 C 0.20023 0.97543 0.60438 0.0
C1067 C 0.20256 -0.00505 0.61424 0.0
C1068 C 0.20958 0.02517 0.61249 0.0
C1069 C 0.21445 0.03614 0.60092 0.0
C1070 C 0.21238 0.01689 0.59108 0.0
C1071 C 0.20538 0.98664 0.59278 0.0
H1072 H 0.21987 0.05956 0.59959 0.0
H1073 H 0.15287 0.76643 0.61769 0.0
H1074 H 0.27223 0.87727 0.82457 0.0
H1075 H 0.29379 0.91671 0.83708 0.0
H1076 H 0.26573 0.86927 0.86884 0.0
H1077 H 0.24306 0.83031 0.85636 0.0
H1078 H 0.26538 0.92876 0.8728 0.0
H1079 H 0.33398 0.85616 0.85669 0.0
H1080 H 0.35838 0.82699 0.84069 0.0
H1081 H 0.38982 0.90834 0.82441 0.0
H1082 H 0.36522 0.93802 0.84024 0.0
H1083 H 0.38835 0.95279 0.91261 0.0
H1084 H 0.34726 0.93599 0.89981 0.0
H1085 H 0.37771 -0.0053 0.87163 0.0
H1086 H 0.41889 0.01166 0.88434 0.0
H1087 H 0.37428 0.93591 0.86488 0.0
H1088 H 0.31143 0.0074 0.88425 0.0
H1089 H 0.28849 0.03348 0.90139 0.0
H1090 H 0.24824 0.95108 0.91304 0.0
H1091 H 0.27129 0.92438 0.89606 0.0
C1092 C 0.27001 0.87564 0.83421 0.0
C1093 C 0.2565 0.85048 0.83951 0.0
C1094 C 0.28232 0.89817 0.84135 0.0
C1095 C 0.28205 0.89547 0.85388 0.0
C1096 C 0.26631 0.8717 0.85918 0.0
C1097 C 0.25346 0.8494 0.85204 0.0
C1098 C 0.30149 0.91487 0.86133 0.0
C1099 C 0.2892 0.93034 0.87111 0.0
C1100 C 0.33254 0.91709 0.85905 0.0
C1101 C 0.34747 0.8993 0.84956 0.0
C1102 C 0.34592 0.86782 0.84965 0.0
C1103 C 0.3598 0.8512 0.84062 0.0
C1104 C 0.37556 0.86581 0.83152 0.0
C1105 C 0.37755 0.89706 0.83145 0.0
C1106 C 0.36364 0.9138 0.84045 0.0
C1107 C 0.38599 0.96258 0.90378 0.0
C1108 C 0.40714 0.98325 0.89943 0.0
C1109 C 0.36235 0.95312 0.89651 0.0
C1110 C 0.35945 0.96419 0.8848 0.0
C1111 C 0.37957 0.98598 0.88067 0.0
C1112 C 0.40311 -0.00442 0.88794 0.0
C1113 C 0.33827 0.9499 0.87637 0.0
C1114 C 0.35035 0.93502 0.86644 0.0
C1115 C 0.30726 0.94786 0.8787 0.0
C1116 C 0.29329 0.96384 0.88892 0.0
C1117 C 0.29789 -0.00522 0.89052 0.0
C1118 C 0.28482 0.00968 0.9002 0.0
C1119 C 0.26696 0.99393 0.90832 0.0
C1120 C 0.26208 0.96325 0.90675 0.0
C1121 C 0.27511 0.94823 0.89709 0.0
H1122 H 0.25687 0.00552 0.9158 0.0
H1123 H 0.38631 0.8529 0.82454 0.0
H1124 H 0.40314 0.96871 0.09755 0.0
H1125 H 0.36086 0.98457 0.10996 0.0
H1126 H 0.36106 0.07055 0.09219 0.0
H1127 H 0.40184 0.05442 0.0795 0.0
H1128 H 0.35875 0.02336 0.12586 0.0
H1129 H 0.29921 0.10672 0.09243 0.0
H1130 H 0.28282 0.10668 0.07134 0.0
H1131 H 0.28311 0.01049 0.07107 0.0
H1132 H 0.29905 0.00988 0.09222 0.0
H1133 H 0.32193 0.15495 0.15309 0.0
H1134 H 0.3377 0.11242 0.14117 0.0
H1135 H 0.24639 0.09696 0.13012 0.0
H1136 H 0.23066 0.14104 0.14164 0.0
H1137 H 0.27808 0.0911 0.11199 0.0
H1138 H 0.28559 0.0464 0.14957 0.0
H1139 H 0.29697 0.04078 0.17108 0.0
H1140 H 0.39081 0.04869 0.16369 0.0
H1141 H 0.38003 0.05483 0.14216 0.0
C1142 C 0.39368 0.99076 0.09615 0.0
C1143 C 0.40584 0.01032 0.08756 0.0
C1144 C 0.36952 -0.0002 0.10324 0.0
C1145 C 0.35734 0.02862 0.10192 0.0
C1146 C 0.36922 0.04785 0.09316 0.0
C1147 C 0.39288 0.03868 0.08597 0.0
C1148 C 0.33486 0.04036 0.11052 0.0
C1149 C 0.34079 0.03777 0.12283 0.0
C1150 C 0.31035 0.05797 0.10667 0.0
C1151 C 0.3004 0.05827 0.09395 0.0
C1152 C 0.29553 0.08553 0.08792 0.0
C1153 C 0.28639 0.08563 0.07594 0.0
C1154 C 0.28195 0.0586 0.06986 0.0
C1155 C 0.28661 0.03141 0.07577 0.0
C1156 C 0.29574 0.03118 0.08776 0.0
C1157 C 0.3051 0.14234 0.14824 0.0
C1158 C 0.27504 0.15128 0.14832 0.0
C1159 C 0.31411 0.11773 0.1415 0.0
C1160 C 0.29316 0.10082 0.13497 0.0
C1161 C 0.26297 0.10947 0.13515 0.0
C1162 C 0.254 0.13464 0.14171 0.0
C1163 C 0.30372 0.07598 0.12719 0.0
C1164 C 0.2954 0.07597 0.11505 0.0
C1165 C 0.32514 0.05496 0.13126 0.0
C1166 C 0.33195 0.05109 0.14422 0.0
C1167 C 0.30866 0.04708 0.15253 0.0
C1168 C 0.31501 0.0438 0.16473 0.0
C1169 C 0.34459 0.04437 0.16875 0.0
C1170 C 0.3679 0.0482 0.16056 0.0
C1171 C 0.36168 0.0515 0.14835 0.0
H1172 H 0.34946 0.04184 0.1782 0.0
H1173 H 0.2749 0.05873 0.06058 0.0
H1174 H 0.1001 0.97311 0.39757 0.0
H1175 H 0.14492 0.99062 0.3871 0.0
H1176 H 0.13041 0.07967 0.40108 0.0
H1177 H 0.08704 0.06193 0.41202 0.0
H1178 H 0.14845 0.02482 0.36997 0.0
H1179 H 0.18747 0.12347 0.40167 0.0
H1180 H 0.19679 0.13113 0.42322 0.0
H1181 H 0.20646 0.03625 0.42818 0.0
H1182 H 0.19767 0.02798 0.40662 0.0
H1183 H 0.17746 0.15289 0.33912 0.0
H1184 H 0.16349 0.11184 0.35218 0.0
H1185 H 0.25276 0.10995 0.3669 0.0
H1186 H 0.26669 0.15238 0.35405 0.0
H1187 H 0.2162 0.1055 0.38413 0.0
H1188 H 0.2257 0.05072 0.34889 0.0
H1189 H 0.22201 0.03816 0.32742 0.0
H1190 H 0.1263 0.03585 0.32999 0.0
H1191 H 0.12933 0.04885 0.35142 0.0
C1192 C 0.10698 -0.00375 0.3986 0.0
C1193 C 0.09006 0.01618 0.40559 0.0
C1194 C 0.13259 0.00625 0.39262 0.0
C1195 C 0.14143 0.03644 0.39337 0.0
C1196 C 0.12487 0.05607 0.40062 0.0
C1197 C 0.09976 0.04596 0.4068 0.0
C1198 C 0.16516 0.04867 0.38541 0.0
C1199 C 0.16362 0.04209 0.37311 0.0
C1200 C 0.18619 0.07016 0.3895 0.0
C1201 C 0.19184 0.0751 0.40249 0.0
C1202 C 0.19184 0.10423 0.40732 0.0
C1203 C 0.19696 0.10868 0.41956 0.0
C1204 C 0.20219 0.0842 0.42707 0.0
C1205 C 0.20235 0.0552 0.42235 0.0
C1206 C 0.19725 0.05061 0.41012 0.0
C1207 C 0.19432 0.14361 0.34502 0.0
C1208 C 0.22322 0.15588 0.34553 0.0
C1209 C 0.18635 0.11985 0.35243 0.0
C1210 C 0.20725 0.1072 0.36034 0.0
C1211 C 0.23631 0.11917 0.3608 0.0
C1212 C 0.24423 0.14339 0.35347 0.0
C1213 C 0.19743 0.08329 0.36871 0.0
C1214 C 0.20174 0.08756 0.38106 0.0
C1215 C 0.17992 0.05879 0.36471 0.0
C1216 C 0.17779 0.05078 0.3518 0.0
C1217 C 0.20385 0.04768 0.34487 0.0
C1218 C 0.20187 0.04047 0.3327 0.0
C1219 C 0.17394 0.0362 0.32734 0.0
C1220 C 0.14793 0.03911 0.33415 0.0
C1221 C 0.14977 0.04632 0.34633 0.0
H1222 H 0.17246 0.03064 0.31792 0.0
H1223 H 0.20612 0.08769 0.43654 0.0
H1224 H 0.95169 0.01943 0.3788 0.0
H1225 H 0.91893 0.05036 0.36633 0.0
H1226 H 0.88821 0.09714 0.39779 0.0
H1227 H 0.92114 0.06662 0.41034 0.0
H1228 H 0.84185 0.07729 0.38146 0.0
H1229 H 0.93609 0.13111 0.38158 0.0
H1230 H 0.99049 0.13577 0.37854 0.0
H1231 H 0.97995 0.11184 0.34149 0.0
H1232 H 0.9255 0.10662 0.34436 0.0
H1233 H 0.76881 0.2024 0.35686 0.0
H1234 H 0.80054 0.16813 0.36815 0.0
H1235 H 0.8442 0.14124 0.33539 0.0
H1236 H 0.81334 0.17659 0.32411 0.0
H1237 H 0.88405 0.14816 0.35164 0.0
H1238 H 0.79125 0.09574 0.35038 0.0
H1239 H 0.73692 0.08833 0.35264 0.0
H1240 H 0.74399 0.10532 0.39042 0.0
H1241 H 0.79833 0.11323 0.38837 0.0
C1242 C 0.93792 0.03625 0.38307 0.0
C1243 C 0.93905 0.04066 0.39555 0.0
C1244 C 0.9193 0.05391 0.37593 0.0
C1245 C 0.90132 0.07602 0.38116 0.0
C1246 C 0.90198 0.08014 0.39362 0.0
C1247 C 0.92088 0.06279 0.40075 0.0
C1248 C 0.88202 0.09516 0.37363 0.0
C1249 C 0.85097 0.09305 0.37501 0.0
C1250 C 0.89408 0.11483 0.36496 0.0
C1251 C 0.92678 0.11816 0.36322 0.0
C1252 C 0.94541 0.12658 0.37281 0.0
C1253 C 0.97624 0.12938 0.37111 0.0
C1254 C 0.98868 0.12401 0.35984 0.0
C1255 C 0.97029 0.11594 0.35022 0.0
C1256 C 0.93945 0.11308 0.35188 0.0
C1257 C 0.78507 0.18908 0.35205 0.0
C1258 C 0.7885 0.19207 0.33959 0.0
C1259 C 0.8031 0.16935 0.35851 0.0
C1260 C 0.8244 0.15162 0.3526 0.0
C1261 C 0.82789 0.15462 0.34015 0.0
C1262 C 0.81021 0.17478 0.33371 0.0
C1263 C 0.84358 0.13064 0.35949 0.0
C1264 C 0.87471 0.13233 0.358 0.0
C1265 C 0.83153 0.11016 0.36792 0.0
C1266 C 0.79884 0.10533 0.3692 0.0
C1267 C 0.78119 0.09811 0.35916 0.0
C1268 C 0.7504 0.09378 0.3604 0.0
C1269 C 0.737 0.09642 0.37166 0.0
C1270 C 0.75439 0.10331 0.3817 0.0
C1271 C 0.7852 0.10768 0.38051 0.0
H1272 H 0.71315 0.09307 0.3726 0.0
H1273 H 0.01256 0.12619 0.35854 0.0
H1274 H 0.57295 0.00087 0.10192 0.0
H1275 H 0.6063 0.03123 0.11431 0.0
H1276 H 0.57641 0.11103 0.09605 0.0
H1277 H 0.54387 0.08063 0.08331 0.0
H1278 H 0.63308 0.11486 0.09926 0.0
H1279 H 0.55054 0.09085 0.1246 0.0
H1280 H 0.51404 0.05811 0.13476 0.0
H1281 H 0.58531 0.01343 0.15331 0.0
H1282 H 0.62229 0.04565 0.14313 0.0
H1283 H 0.66824 0.19223 0.16038 0.0
H1284 H 0.63562 0.16126 0.14792 0.0
H1285 H 0.71178 0.1327 0.12717 0.0
H1286 H 0.74438 0.16452 0.13932 0.0
H1287 H 0.63027 0.10498 0.14354 0.0
H1288 H 0.69252 0.12156 0.09839 0.0
H1289 H 0.72382 0.1596 0.08835 0.0
H1290 H 0.6837 0.22876 0.10967 0.0
H1291 H 0.6519 0.19121 0.11971 0.0
C1292 C 0.57353 0.02488 0.10052 0.0
C1293 C 0.55567 0.03839 0.09168 0.0
C1294 C 0.59251 0.04223 0.10765 0.0
C1295 C 0.59348 0.0735 0.10627 0.0
C1296 C 0.57603 0.08696 0.0973 0.0
C1297 C 0.5574 0.06956 0.09003 0.0
C1298 C 0.61257 0.09218 0.1142 0.0
C1299 C 0.63246 0.11267 0.10894 0.0
C1300 C 0.61136 0.08984 0.12685 0.0
C1301 C 0.58919 0.07048 0.13302 0.0
C1302 C 0.55844 0.0739 0.13078 0.0
C1303 C 0.53767 0.05546 0.13655 0.0
C1304 C 0.54735 0.03365 0.14465 0.0
C1305 C 0.57784 0.0303 0.14702 0.0
C1306 C 0.59872 0.04866 0.14126 0.0
C1307 C 0.67808 0.17926 0.1532 0.0
C1308 C 0.70885 0.18103 0.15077 0.0
C1309 C 0.6594 0.16152 0.14609 0.0
C1310 C 0.67115 0.14503 0.13648 0.0
C1311 C 0.70208 0.1458 0.13435 0.0
C1312 C 0.72071 0.16388 0.14134 0.0
C1313 C 0.65096 0.12744 0.12859 0.0
C1314 C 0.63092 0.10712 0.13386 0.0
C1315 C 0.65127 0.13071 0.11596 0.0
C1316 C 0.67007 0.15351 0.10988 0.0
C1317 C 0.69031 0.1449 0.1009 0.0
C1318 C 0.70815 0.16637 0.09522 0.0
C1319 C 0.70582 0.19656 0.0984 0.0
C1320 C 0.68557 0.20536 0.10724 0.0
C1321 C 0.66766 0.18399 0.11294 0.0
H1322 H 0.71967 0.21314 0.094 0.0
H1323 H 0.53123 0.0194 0.14911 0.0
H1324 H 0.73976 0.80066 0.85488 0.0
H1325 H 0.70783 0.83266 0.86714 0.0
H1326 H 0.63759 0.82559 0.84076 0.0
H1327 H 0.66917 0.79326 0.82849 0.0
H1328 H 0.6825 0.88614 0.86302 0.0
H1329 H 0.57064 0.82304 0.8553 0.0
H1330 H 0.55344 0.7717 0.85076 0.0
H1331 H 0.63241 0.73565 0.86718 0.0
H1332 H 0.64983 0.78672 0.872 0.0
H1333 H 0.56095 0.97671 0.88036 0.0
H1334 H 0.59397 0.9431 0.86934 0.0
H1335 H 0.58627 0.87732 0.8975 0.0
H1336 H 0.55284 0.91061 0.90854 0.0
H1337 H 0.5821 0.85135 0.87591 0.0
H1338 H 0.64837 0.92 0.89538 0.0
H1339 H 0.66806 0.96952 0.90125 0.0
H1340 H 0.68438 0.99095 0.86431 0.0
H1341 H 0.66439 0.94169 0.8582 0.0
C1342 C 0.71754 0.80592 0.85166 0.0
C1343 C 0.70697 0.79425 0.84073 0.0
C1344 C 0.69937 0.82429 0.85867 0.0
C1345 C 0.67027 0.83121 0.85491 0.0
C1346 C 0.65985 0.82014 0.8439 0.0
C1347 C 0.67799 0.80176 0.83688 0.0
C1348 C 0.65072 0.84984 0.86257 0.0
C1349 C 0.66055 0.87856 0.86584 0.0
C1350 C 0.62237 0.83962 0.86645 0.0
C1351 C 0.61166 0.80875 0.8639 0.0
C1352 C 0.58424 0.80416 0.85801 0.0
C1353 C 0.57447 0.7751 0.85537 0.0
C1354 C 0.59187 0.75044 0.85864 0.0
C1355 C 0.619 0.75477 0.86462 0.0
C1356 C 0.62884 0.78377 0.86729 0.0
C1357 C 0.56623 0.9551 0.88422 0.0
C1358 C 0.55433 0.94642 0.89536 0.0
C1359 C 0.58519 0.93595 0.87792 0.0
C1360 C 0.59282 0.90787 0.88267 0.0
C1361 C 0.58066 0.89892 0.89369 0.0
C1362 C 0.56164 0.91804 0.9 0.0
C1363 C 0.61364 0.88793 0.87614 0.0
C1364 C 0.60405 0.85894 0.87309 0.0
C1365 C 0.6425 0.89764 0.87269 0.0
C1366 C 0.65463 0.92725 0.87633 0.0
C1367 C 0.65595 0.93536 0.8885 0.0
C1368 C 0.6672 0.96337 0.89187 0.0
C1369 C 0.6774 0.9834 0.88316 0.0
C1370 C 0.67644 0.97543 0.87105 0.0
C1371 C 0.66518 0.94745 0.86763 0.0
H1372 H 0.68611 0.00507 0.88579 0.0
H1373 H 0.58432 0.72797 0.85656 0.0
H1374 H 0.83734 0.80088 0.65107 0.0
H1375 H 0.86436 0.83706 0.63884 0.0
H1376 H 0.7823 0.86126 0.62094 0.0
H1377 H 0.75517 0.82414 0.6329 0.0
H1378 H 0.82386 0.85643 0.60518 0.0
H1379 H 0.81606 0.90842 0.64198 0.0
H1380 H 0.81892 0.91635 0.66382 0.0
H1381 H 0.91382 0.90241 0.6629 0.0
H1382 H 0.91148 0.89397 0.64107 0.0
H1383 H 0.93101 -0.00481 0.59575 0.0
H1384 H 0.89312 0.96876 0.60746 0.0
H1385 H 0.91584 0.88613 0.58957 0.0
H1386 H 0.95285 0.91264 0.57751 0.0
H1387 H 0.89647 0.92765 0.62316 0.0
H1388 H 0.85791 0.83965 0.58758 0.0
H1389 H 0.8507 0.83674 0.56569 0.0
H1390 H 0.8396 0.93219 0.56405 0.0
H1391 H 0.84629 0.93563 0.58594 0.0
C1392 C 0.82495 0.814 0.64459 0.0
C1393 C 0.79408 0.8097 0.64298 0.0
C1394 C 0.84043 0.83483 0.63764 0.0
C1395 C 0.8253 0.85229 0.62911 0.0
C1396 C 0.79444 0.8481 0.62749 0.0
C1397 C 0.77896 0.82692 0.63434 0.0
C1398 C 0.84208 0.87406 0.62163 0.0
C1399 C 0.83959 0.87215 0.60911 0.0
C1400 C 0.86196 0.89523 0.62675 0.0
C1401 C 0.86355 0.90037 0.63989 0.0
C1402 C 0.83751 0.90684 0.64644 0.0
C1403 C 0.83905 0.91146 0.65882 0.0
C1404 C 0.86652 0.90984 0.66475 0.0
C1405 C 0.89254 0.90365 0.6583 0.0
C1406 C 0.89113 0.89899 0.64592 0.0
C1407 C 0.92781 0.97141 0.59427 0.0
C1408 C 0.94485 0.956 0.58568 0.0
C1409 C 0.90616 0.95633 0.60098 0.0
C1410 C 0.9013 0.92553 0.59929 0.0
C1411 C 0.9186 0.91005 0.59083 0.0
C1412 C 0.93991 0.92519 0.58398 0.0
C1413 C 0.879 0.90929 0.6067 0.0
C1414 C 0.88047 0.91222 0.61922 0.0
C1415 C 0.85745 0.88984 0.60157 0.0
C1416 C 0.85284 0.8879 0.58841 0.0
C1417 C 0.85375 0.86 0.58256 0.0
C1418 C 0.84979 0.85826 0.57015 0.0
C1419 C 0.84478 0.88427 0.56348 0.0
C1420 C 0.84358 0.91207 0.56922 0.0
C1421 C 0.84749 0.91393 0.58163 0.0
H1422 H 0.84177 0.88288 0.55387 0.0
H1423 H 0.86766 0.91342 0.67433 0.0
H1424 H 0.76454 0.32515 0.13947 0.0
H1425 H 0.74222 0.36429 0.12696 0.0
H1426 H 0.6755 0.38028 0.15405 0.0
H1427 H 0.6975 0.34147 0.1666 0.0
H1428 H 0.65175 0.36657 0.132 0.0
H1429 H 0.72507 0.43295 0.14871 0.0
H1430 H 0.77586 0.44962 0.15417 0.0
H1431 H 0.80106 0.44987 0.11705 0.0
H1432 H 0.75052 0.43276 0.11137 0.0
H1433 H 0.59779 0.50637 0.10181 0.0
H1434 H 0.63348 0.48425 0.11595 0.0
H1435 H 0.64637 0.40958 0.09202 0.0
H1436 H 0.61121 0.4314 0.07782 0.0
H1437 H 0.69694 0.45747 0.11378 0.0
H1438 H 0.62865 0.34957 0.11012 0.0
H1439 H 0.57775 0.33316 0.10459 0.0
H1440 H 0.54227 0.41715 0.11674 0.0
H1441 H 0.59287 0.43382 0.12253 0.0
C1442 C 0.74546 0.33739 0.14286 0.0
C1443 C 0.73258 0.3299 0.15397 0.0
C1444 C 0.73284 0.35982 0.13573 0.0
C1445 C 0.70721 0.37507 0.1396 0.0
C1446 C 0.69526 0.3687 0.15092 0.0
C1447 C 0.70789 0.34646 0.15807 0.0
C1448 C 0.69073 0.39499 0.13134 0.0
C1449 C 0.66162 0.38654 0.1281 0.0
C1450 C 0.70366 0.421 0.12625 0.0
C1451 C 0.73406 0.43131 0.12963 0.0
C1452 C 0.74151 0.43629 0.14172 0.0
C1453 C 0.77024 0.44588 0.14485 0.0
C1454 C 0.79169 0.45073 0.13597 0.0
C1455 C 0.78443 0.44607 0.12392 0.0
C1456 C 0.75573 0.43646 0.12074 0.0
C1457 C 0.60876 0.4856 0.09943 0.0
C1458 C 0.60127 0.47041 0.08878 0.0
C1459 C 0.62926 0.47314 0.10748 0.0
C1460 C 0.64227 0.44528 0.10501 0.0
C1461 C 0.63645 0.43112 0.09404 0.0
C1462 C 0.61622 0.44361 0.08597 0.0
C1463 C 0.65828 0.42874 0.11447 0.0
C1464 C 0.68718 0.43764 0.11783 0.0
C1465 C 0.64521 0.40313 0.11977 0.0
C1466 C 0.61457 0.39303 0.11663 0.0
C1467 C 0.60995 0.36446 0.11166 0.0
C1468 C 0.58116 0.35512 0.10848 0.0
C1469 C 0.5568 0.37414 0.11027 0.0
C1470 C 0.56116 0.40248 0.11531 0.0
C1471 C 0.5899 0.41189 0.11853 0.0
H1472 H 0.53454 0.3669 0.10778 0.0
H1473 H 0.81392 0.45816 0.13841 0.0
H1474 H 0.80403 0.34893 0.32682 0.0
H1475 H 0.82522 0.38637 0.3403 0.0
H1476 H 0.74762 0.37994 0.36301 0.0
H1477 H 0.72617 0.34199 0.34963 0.0
H1478 H 0.77723 0.44257 0.35927 0.0
H1479 H 0.79457 0.33958 0.37213 0.0
H1480 H 0.80941 0.28722 0.36839 0.0
H1481 H 0.89611 0.3168 0.35684 0.0
H1482 H 0.88156 0.36941 0.36033 0.0
H1483 H 0.88629 0.44806 0.41456 0.0
H1484 H 0.84825 0.42517 0.40186 0.0
H1485 H 0.86883 0.4879 0.37363 0.0
H1486 H 0.90702 0.5112 0.38633 0.0
H1487 H 0.86277 0.39756 0.38115 0.0
H1488 H 0.80464 0.49463 0.35584 0.0
H1489 H 0.78917 0.54687 0.35947 0.0
H1490 H 0.78268 0.52907 0.3972 0.0
H1491 H 0.7977 0.47664 0.39379 0.0
C1492 C 0.79107 0.35588 0.33452 0.0
C1493 C 0.7636 0.3421 0.33725 0.0
C1494 C 0.8032 0.37739 0.34218 0.0
C1495 C 0.78798 0.3857 0.35262 0.0
C1496 C 0.75954 0.37382 0.35493 0.0
C1497 C 0.74747 0.352 0.34732 0.0
C1498 C 0.80386 0.40301 0.36192 0.0
C1499 C 0.7959 0.43287 0.36411 0.0
C1500 C 0.8279 0.39003 0.36827 0.0
C1501 C 0.83688 0.35841 0.36638 0.0
C1502 C 0.81671 0.33492 0.3687 0.0
C1503 C 0.82508 0.30521 0.36664 0.0
C1504 C 0.85366 0.29869 0.36235 0.0
C1505 C 0.87397 0.32188 0.36015 0.0
C1506 C 0.86568 0.35165 0.36217 0.0
C1507 C 0.88245 0.45739 0.40573 0.0
C1508 C 0.9 0.48122 0.40139 0.0
C1509 C 0.86065 0.44427 0.39849 0.0
C1510 C 0.85581 0.45478 0.38681 0.0
C1511 C 0.87206 0.47963 0.38267 0.0
C1512 C 0.89396 0.49283 0.38992 0.0
C1513 C 0.83644 0.43747 0.37857 0.0
C1514 C 0.84395 0.40743 0.37646 0.0
C1515 C 0.81195 0.45037 0.37241 0.0
C1516 C 0.80258 0.48177 0.37456 0.0
C1517 C 0.7998 0.50183 0.36491 0.0
C1518 C 0.79113 0.53148 0.36693 0.0
C1519 C 0.78504 0.5413 0.37856 0.0
C1520 C 0.78752 0.52147 0.3882 0.0
C1521 C 0.79617 0.49179 0.38623 0.0
H1522 H 0.77834 0.56427 0.38011 0.0
H1523 H 0.8601 0.27567 0.36075 0.0
H1524 H 0.89646 0.46798 0.59517 0.0
H1525 H 0.85463 0.48581 0.60739 0.0
H1526 H 0.85856 0.57128 0.58929 0.0
H1527 H 0.89876 0.55316 0.57675 0.0
H1528 H 0.85382 0.52464 0.62314 0.0
H1529 H 0.79875 0.61069 0.58957 0.0
H1530 H 0.78268 0.61143 0.56844 0.0
H1531 H 0.77841 0.51533 0.56815 0.0
H1532 H 0.794 0.51395 0.58934 0.0
H1533 H 0.82225 0.6576 0.65043 0.0
H1534 H 0.8365 0.61478 0.63836 0.0
H1535 H 0.74474 0.60284 0.62725 0.0
H1536 H 0.73052 0.6471 0.63897 0.0
H1537 H 0.77658 0.59605 0.60907 0.0
H1538 H 0.78132 0.55081 0.6466 0.0
H1539 H 0.79196 0.54449 0.66814 0.0
H1540 H 0.8862 0.54832 0.6611 0.0
H1541 H 0.87619 0.55513 0.63954 0.0
C1542 C 0.88787 0.49033 0.59365 0.0
C1543 C 0.90091 0.50916 0.585 0.0
C1544 C 0.86397 0.50051 0.60064 0.0
C1545 C 0.85298 0.52979 0.59919 0.0
C1546 C 0.86573 0.54827 0.59036 0.0
C1547 C 0.88907 0.53795 0.58325 0.0
C1548 C 0.83099 0.5427 0.60773 0.0
C1549 C 0.8366 0.53987 0.62006 0.0
C1550 C 0.80738 0.56146 0.60382 0.0
C1551 C 0.79762 0.56223 0.59108 0.0
C1552 C 0.79414 0.5897 0.58505 0.0
C1553 C 0.78518 0.59023 0.57304 0.0
C1554 C 0.77955 0.56345 0.56695 0.0
C1555 C 0.78283 0.53606 0.57287 0.0
C1556 C 0.79177 0.53539 0.58488 0.0
C1557 C 0.80499 0.64573 0.64552 0.0
C1558 C 0.77524 0.65567 0.64567 0.0
C1559 C 0.81312 0.62097 0.63869 0.0
C1560 C 0.7916 0.60494 0.63211 0.0
C1561 C 0.76173 0.61466 0.63232 0.0
C1562 C 0.75364 0.63994 0.639 0.0
C1563 C 0.80124 0.57973 0.62433 0.0
C1564 C 0.79315 0.58013 0.61217 0.0
C1565 C 0.82161 0.55776 0.62845 0.0
C1566 C 0.82795 0.55351 0.64142 0.0
C1567 C 0.80432 0.55046 0.64965 0.0
C1568 C 0.81025 0.54678 0.66186 0.0
C1569 C 0.83973 0.546 0.66598 0.0
C1570 C 0.86337 0.54887 0.65789 0.0
C1571 C 0.85757 0.55257 0.64566 0.0
H1572 H 0.84427 0.54316 0.67545 0.0
H1573 H 0.77264 0.56392 0.55765 0.0
H1574 H 0.70686 0.62696 0.82115 0.0
H1575 H 0.68375 0.58734 0.833 0.0
H1576 H 0.73334 0.61611 0.86413 0.0
H1577 H 0.75702 0.65574 0.85227 0.0
H1578 H 0.72497 0.55408 0.86357 0.0
H1579 H 0.66687 0.64355 0.86075 0.0
H1580 H 0.6417 0.6858 0.85071 0.0
H1581 H 0.58629 0.62419 0.83112 0.0
H1582 H 0.61139 0.58153 0.84096 0.0
H1583 H 0.61502 0.52471 0.90924 0.0
H1584 H 0.6536 0.5431 0.89558 0.0
H1585 H 0.60611 0.50456 0.86564 0.0
H1586 H 0.56756 0.48574 0.87923 0.0
H1587 H 0.61495 0.5678 0.86491 0.0
H1588 H 0.67132 0.47789 0.87128 0.0
H1589 H 0.6961 0.43891 0.88335 0.0
H1590 H 0.75444 0.50511 0.89872 0.0
H1591 H 0.72971 0.5446 0.88687 0.0
C1592 C 0.71334 0.62454 0.83045 0.0
C1593 C 0.73332 0.64484 0.83584 0.0
C1594 C 0.70016 0.60184 0.8372 0.0
C1595 C 0.70645 0.59924 0.84947 0.0
C1596 C 0.72817 0.61787 0.85467 0.0
C1597 C 0.74158 0.64055 0.84789 0.0
C1598 C 0.68762 0.57978 0.85707 0.0
C1599 C 0.70094 0.55708 0.86393 0.0
C1600 C 0.65628 0.58379 0.85749 0.0
C1601 C 0.64126 0.60935 0.85147 0.0
C1602 C 0.64952 0.63901 0.85421 0.0
C1603 C 0.63522 0.66303 0.84858 0.0
C1604 C 0.61249 0.65768 0.84025 0.0
C1605 C 0.60395 0.62829 0.83756 0.0
C1606 C 0.61819 0.60418 0.84316 0.0
C1607 C 0.61314 0.51953 0.89978 0.0
C1608 C 0.58807 0.50413 0.89528 0.0
C1609 C 0.63531 0.52987 0.89201 0.0
C1610 C 0.63261 0.52514 0.87964 0.0
C1611 C 0.60855 0.50827 0.87519 0.0
C1612 C 0.58657 0.49757 0.88297 0.0
C1613 C 0.65215 0.54172 0.8713 0.0
C1614 C 0.63892 0.5643 0.86439 0.0
C1615 C 0.68352 0.53797 0.87112 0.0
C1616 C 0.69847 0.51426 0.87825 0.0
C1617 C 0.68925 0.4842 0.87731 0.0
C1618 C 0.70333 0.46199 0.8841 0.0
C1619 C 0.72679 0.46953 0.89182 0.0
C1620 C 0.73625 0.4993 0.89274 0.0
C1621 C 0.72223 0.5216 0.88598 0.0
H1622 H 0.73766 0.4523 0.89706 0.0
H1623 H 0.60142 0.6763 0.83591 0.0
H1624 H 0.47033 0.58563 0.89892 0.0
H1625 H 0.43928 0.61988 0.88724 0.0
H1626 H 0.38042 0.5466 0.87796 0.0
H1627 H 0.41253 0.51203 0.88902 0.0
H1628 H 0.38736 0.57756 0.85943 0.0
H1629 H 0.36348 0.6033 0.89995 0.0
H1630 H 0.37328 0.61827 0.92088 0.0
H1631 H 0.41309 0.70044 0.90872 0.0
H1632 H 0.40386 0.68578 0.88771 0.0
H1633 H 0.25886 0.6794 0.85015 0.0
H1634 H 0.29247 0.6463 0.86131 0.0
H1635 H 0.36861 0.68892 0.84488 0.0
H1636 H 0.33521 0.72169 0.83342 0.0
H1637 H 0.35253 0.67457 0.876 0.0
H1638 H 0.38025 0.63984 0.83443 0.0
H1639 H 0.36416 0.62296 0.81436 0.0
H1640 H 0.30885 0.55517 0.83038 0.0
H1641 H 0.32434 0.57202 0.85054 0.0
C1642 C 0.45069 0.57692 0.89441 0.0
C1643 C 0.44372 0.54625 0.89489 0.0
C1644 C 0.43284 0.59652 0.88779 0.0
C1645 C 0.40713 0.58599 0.88187 0.0
C1646 C 0.40013 0.55532 0.88242 0.0
C1647 C 0.41841 0.53559 0.88877 0.0
C1648 C 0.38785 0.60673 0.87489 0.0
C1649 C 0.37975 0.59867 0.86314 0.0
C1650 C 0.37772 0.6344 0.87963 0.0
C1651 C 0.38324 0.6433 0.89226 0.0
C1652 C 0.37451 0.62447 0.90174 0.0
C1653 C 0.37994 0.63291 0.91361 0.0
C1654 C 0.39388 0.66026 0.91612 0.0
C1655 C 0.40234 0.67925 0.90676 0.0
C1656 C 0.39699 0.6709 0.89487 0.0
C1657 C 0.28275 0.68168 0.84888 0.0
C1658 C 0.29442 0.70307 0.84088 0.0
C1659 C 0.30185 0.66277 0.85524 0.0
C1660 C 0.33285 0.66518 0.85381 0.0
C1661 C 0.34466 0.68665 0.84597 0.0
C1662 C 0.32557 0.70527 0.83944 0.0
C1663 C 0.35281 0.64537 0.86067 0.0
C1664 C 0.36065 0.65354 0.87238 0.0
C1665 C 0.36221 0.61759 0.85603 0.0
C1666 C 0.35313 0.60741 0.84395 0.0
C1667 C 0.36442 0.62155 0.83366 0.0
C1668 C 0.35547 0.61195 0.82227 0.0
C1669 C 0.33541 0.58807 0.82109 0.0
C1670 C 0.32433 0.5737 0.8313 0.0
C1671 C 0.33318 0.58326 0.8427 0.0
H1672 H 0.32852 0.58066 0.81227 0.0
H1673 H 0.39806 0.66675 0.92532 0.0
H1674 H 0.06787 0.50225 0.59992 0.0
H1675 H 0.1011 0.53464 0.61156 0.0
H1676 H 0.07206 0.61109 0.59094 0.0
H1677 H 0.03971 0.57869 0.57898 0.0
H1678 H 0.1287 0.61526 0.59427 0.0
H1679 H 0.04499 0.59572 0.61979 0.0
H1680 H 0.0084 0.56462 0.63071 0.0
H1681 H 0.0794 0.52415 0.65091 0.0
H1682 H 0.11645 0.55475 0.64001 0.0
H1683 H 0.15912 0.70526 0.65297 0.0
H1684 H 0.12759 0.67226 0.64092 0.0
H1685 H 0.20559 0.63933 0.62245 0.0
H1686 H 0.23724 0.67291 0.63425 0.0
H1687 H 0.12351 0.61447 0.63869 0.0
H1688 H 0.18859 0.62248 0.59391 0.0
H1689 H 0.21986 0.65877 0.58287 0.0
H1690 H 0.17662 0.73157 0.601 0.0
H1691 H 0.14503 0.69578 0.61211 0.0
C1692 C 0.06864 0.52595 0.59784 0.0
C1693 C 0.05105 0.53794 0.58857 0.0
C1694 C 0.08755 0.54446 0.60454 0.0
C1695 C 0.08872 0.5754 0.60227 0.0
C1696 C 0.07155 0.5873 0.59287 0.0
C1697 C 0.053 0.56875 0.58605 0.0
C1698 C 0.10757 0.59549 0.60973 0.0
C1699 C 0.12758 0.61503 0.60398 0.0
C1700 C 0.10573 0.59568 0.6224 0.0
C1701 C 0.08351 0.57731 0.629 0.0
C1702 C 0.05281 0.58004 0.62651 0.0
C1703 C 0.03199 0.56253 0.6327 0.0
C1704 C 0.04158 0.54237 0.64147 0.0
C1705 C 0.07201 0.53974 0.6441 0.0
C1706 C 0.09293 0.55718 0.63792 0.0
C1707 C 0.16961 0.69098 0.64636 0.0
C1708 C 0.20069 0.69183 0.64453 0.0
C1709 C 0.15154 0.67207 0.63949 0.0
C1710 C 0.16417 0.65357 0.63069 0.0
C1711 C 0.19528 0.65384 0.62903 0.0
C1712 C 0.21335 0.67296 0.63582 0.0
C1713 C 0.14472 0.63409 0.62323 0.0
C1714 C 0.12468 0.61461 0.62898 0.0
C1715 C 0.14579 0.63469 0.61056 0.0
C1716 C 0.16469 0.65641 0.60392 0.0
C1717 C 0.18575 0.64624 0.59553 0.0
C1718 C 0.20355 0.66672 0.58927 0.0
C1719 C 0.20033 0.69745 0.59128 0.0
C1720 C 0.17924 0.70777 0.59952 0.0
C1721 C 0.16143 0.68739 0.60582 0.0
H1722 H 0.21411 0.71328 0.58642 0.0
H1723 H 0.02542 0.52883 0.64626 0.0
H1724 H 0.04091 0.41963 0.40858 0.0
H1725 H 0.07753 0.39061 0.39731 0.0
H1726 H 0.10805 0.47137 0.37984 0.0
H1727 H 0.07057 0.5003 0.39071 0.0
H1728 H 0.10306 0.43068 0.36408 0.0
H1729 H 0.14987 0.43468 0.40228 0.0
H1730 H 0.15393 0.43005 0.42424 0.0
H1731 H 0.1362 0.33566 0.42178 0.0
H1732 H 0.1316 0.33978 0.39981 0.0
H1733 H 0.24027 0.32235 0.35622 0.0
H1734 H 0.21312 0.35986 0.36788 0.0
H1735 H 0.13211 0.33806 0.3487 0.0
H1736 H 0.15917 0.30126 0.33681 0.0
H1737 H 0.16921 0.35512 0.383 0.0
H1738 H 0.08799 0.3976 0.34579 0.0
H1739 H 0.08846 0.40652 0.32397 0.0
H1740 H 0.18393 0.41629 0.32477 0.0
H1741 H 0.18401 0.40785 0.34661 0.0
C1742 C 0.05555 0.43122 0.40239 0.0
C1743 C 0.05285 0.46223 0.40051 0.0
C1744 C 0.07661 0.41464 0.396 0.0
C1745 C 0.09589 0.42885 0.38784 0.0
C1746 C 0.09343 0.45989 0.38607 0.0
C1747 C 0.07202 0.4764 0.3923 0.0
C1748 C 0.11764 0.41112 0.38076 0.0
C1749 C 0.11764 0.41429 0.36824 0.0
C1750 C 0.13726 0.39025 0.38618 0.0
C1751 C 0.14019 0.3876 0.39939 0.0
C1752 C 0.14664 0.41297 0.40642 0.0
C1753 C 0.14906 0.41043 0.41888 0.0
C1754 C 0.14527 0.38259 0.4244 0.0
C1755 C 0.13912 0.35721 0.41748 0.0
C1756 C 0.13664 0.35963 0.40503 0.0
C1757 C 0.21671 0.3257 0.35444 0.0
C1758 C 0.20191 0.30891 0.34555 0.0
C1759 C 0.20123 0.34709 0.36113 0.0
C1760 C 0.17068 0.35203 0.35907 0.0
C1761 C 0.15583 0.33512 0.35027 0.0
C1762 C 0.17132 0.31397 0.34351 0.0
C1763 C 0.15396 0.37417 0.36634 0.0
C1764 C 0.15487 0.37177 0.37888 0.0
C1765 C 0.13588 0.39643 0.36097 0.0
C1766 C 0.136 0.40184 0.34783 0.0
C1767 C 0.10907 0.40179 0.34132 0.0
C1768 C 0.10924 0.40674 0.32895 0.0
C1769 C 0.13621 0.41189 0.32298 0.0
C1770 C 0.16307 0.4122 0.32939 0.0
C1771 C 0.16301 0.40729 0.34177 0.0
H1772 H 0.1363 0.41569 0.3134 0.0
H1773 H 0.14714 0.38067 0.43405 0.0
H1774 H 0.45087 0.41163 0.07555 0.0
H1775 H 0.41439 0.38161 0.08656 0.0
H1776 H 0.40771 0.45101 0.11333 0.0
H1777 H 0.44385 0.48139 0.10232 0.0
H1778 H 0.41858 0.35874 0.10848 0.0
H1779 H 0.33705 0.45105 0.12486 0.0
H1780 H 0.31731 0.49967 0.11796 0.0
H1781 H 0.33327 0.47446 0.08139 0.0
H1782 H 0.35271 0.42555 0.08805 0.0
H1783 H 0.33463 0.30562 0.15725 0.0
H1784 H 0.3645 0.33842 0.14447 0.0
H1785 H 0.29351 0.34007 0.11829 0.0
H1786 H 0.26325 0.30746 0.13106 0.0
H1787 H 0.31881 0.39521 0.1212 0.0
H1788 H 0.35122 0.29468 0.11395 0.0
H1789 H 0.3692 0.24434 0.11947 0.0
H1790 H 0.44836 0.2829 0.13494 0.0
H1791 H 0.43063 0.33354 0.12966 0.0
C1792 C 0.44151 0.42064 0.08373 0.0
C1793 C 0.45032 0.44892 0.08805 0.0
C1794 C 0.4207 0.40341 0.09002 0.0
C1795 C 0.4082 0.41418 0.10071 0.0
C1796 C 0.41675 0.44247 0.10501 0.0
C1797 C 0.43754 0.45974 0.09872 0.0
C1798 C 0.38721 0.39525 0.10764 0.0
C1799 C 0.39675 0.36671 0.11124 0.0
C1800 C 0.35856 0.4055 0.11108 0.0
C1801 C 0.34661 0.43474 0.10697 0.0
C1802 C 0.33623 0.45584 0.11534 0.0
C1803 C 0.32512 0.48346 0.11147 0.0
C1804 C 0.32412 0.49019 0.09925 0.0
C1805 C 0.33416 0.46927 0.09086 0.0
C1806 C 0.34527 0.44161 0.09468 0.0
C1807 C 0.32522 0.31311 0.14882 0.0
C1808 C 0.29664 0.30369 0.14513 0.0
C1809 C 0.34237 0.3318 0.14152 0.0
C1810 C 0.33135 0.3413 0.13037 0.0
C1811 C 0.30242 0.33289 0.12685 0.0
C1812 C 0.28523 0.31418 0.13415 0.0
C1813 C 0.35049 0.35904 0.12221 0.0
C1814 C 0.34063 0.3873 0.11841 0.0
C1815 C 0.37865 0.34834 0.11838 0.0
C1816 C 0.38946 0.31791 0.12151 0.0
C1817 C 0.37236 0.29244 0.11861 0.0
C1818 C 0.38252 0.26385 0.12168 0.0
C1819 C 0.40987 0.26043 0.12758 0.0
C1820 C 0.42716 0.28559 0.13038 0.0
C1821 C 0.41708 0.31424 0.12735 0.0
H1822 H 0.41771 0.23828 0.12995 0.0
H1823 H 0.31553 0.51159 0.09627 0.0
loop_
_geom_bond_atom_site_label_1
_geom_bond_atom_site_label_2
_geom_bond_distance
_geom_bond_site_symmetry_2
_ccdc_geom_bond_type
C0 O1 1.306 1_545 S
C0 O3 1.160 . S
O1 C0 1.306 1_565 S
O1 Cd2 2.228 . S
Cd2 O1 2.228 . S
Cd2 O6 2.273 1_565 S
Cd2 O10 2.277 1_455 S
O3 C0 1.160 . S
O3 Cd4 2.180 1_455 S
Cd4 O3 2.180 1_655 S
Cd4 O6 2.400 1_655 S
Cd4 O7 2.348 . S
Cd4 O8 2.330 1_655 S
Cd4 O12 2.306 . S
Cd4 O13 2.366 . S
C5 O10 1.209 . S
C5 O12 1.226 1_565 S
O6 Cd2 2.273 1_545 S
O6 Cd4 2.400 1_455 S
O6 C9 1.320 1_455 S
O7 Cd4 2.348 . S
O7 C9 1.214 . S
O8 Cd4 2.330 1_455 S
O8 C11 1.258 . S
C9 O6 1.320 1_655 S
C9 O7 1.214 . S
O10 Cd2 2.277 1_655 S
O10 C5 1.209 . S
C11 O8 1.258 . S
C11 O13 1.282 1_455 S
O12 Cd4 2.306 . S
O12 C5 1.226 1_545 S
O13 Cd4 2.366 . S
O13 C11 1.282 1_655 S
C14 O15 1.306 . S
C14 O17 1.160 . S
O15 C14 1.306 . S
O15 Cd16 2.228 . S
Cd16 O15 2.228 . S
Cd16 O20 2.273 . S
Cd16 O24 2.277 . S
O17 C14 1.160 . S
O17 Cd18 2.203 . S
Cd18 O17 2.203 . S
Cd18 O20 2.411 . S
Cd18 O21 2.333 . S
Cd18 O22 2.352 . S
Cd18 O26 2.277 . S
Cd18 O27 2.356 . S
C19 O24 1.209 . S
C19 O26 1.226 . S
O20 Cd16 2.273 . S
O20 Cd18 2.411 . S
O20 C23 1.320 . S
O21 Cd18 2.333 . S
O21 C23 1.214 . S
O22 Cd18 2.352 . S
O22 C25 1.258 . S
C23 O20 1.320 . S
C23 O21 1.214 . S
O24 Cd16 2.277 . S
O24 C19 1.209 . S
C25 O22 1.258 . S
C25 O27 1.282 . S
O26 Cd18 2.277 . S
O26 C19 1.226 . S
O27 Cd18 2.356 . S
O27 C25 1.282 . S
C28 O29 1.306 1_565 S
C28 O31 1.160 . S
O29 C28 1.306 1_545 S
O29 Cd30 2.228 . S
Cd30 O29 2.228 . S
Cd30 O34 2.273 1_545 S
Cd30 O38 2.277 . S
O31 C28 1.160 . S
O31 Cd32 2.203 . S
Cd32 O31 2.203 . S
Cd32 O34 2.411 . S
Cd32 O35 2.333 . S
Cd32 O36 2.352 . S
Cd32 O40 2.277 . S
Cd32 O41 2.356 . S
C33 O38 1.209 . S
C33 O40 1.226 1_545 S
O34 Cd30 2.273 1_565 S
O34 Cd32 2.411 . S
O34 C37 1.320 . S
O35 Cd32 2.333 . S
O35 C37 1.214 . S
O36 Cd32 2.352 . S
O36 C39 1.258 . S
C37 O34 1.320 . S
C37 O35 1.214 . S
O38 Cd30 2.277 . S
O38 C33 1.209 . S
C39 O36 1.258 . S
C39 O41 1.282 . S
O40 Cd32 2.277 . S
O40 C33 1.226 1_565 S
O41 Cd32 2.356 . S
O41 C39 1.282 . S
C42 O43 1.306 . S
C42 O45 1.160 . S
O43 C42 1.306 . S
O43 Cd44 2.228 . S
Cd44 O43 2.228 . S
Cd44 O48 2.273 . S
Cd44 O52 2.277 . S
O45 C42 1.160 . S
O45 Cd46 2.203 . S
Cd46 O45 2.203 . S
Cd46 O48 2.411 . S
Cd46 O49 2.333 . S
Cd46 O50 2.352 . S
Cd46 O54 2.277 . S
Cd46 O55 2.356 . S
C47 O52 1.209 . S
C47 O54 1.226 . S
O48 Cd44 2.273 . S
O48 Cd46 2.411 . S
O48 C51 1.320 . S
O49 Cd46 2.333 . S
O49 C51 1.214 . S
O50 Cd46 2.352 . S
O50 C53 1.258 . S
C51 O48 1.320 . S
C51 O49 1.214 . S
O52 Cd44 2.277 . S
O52 C47 1.209 . S
C53 O50 1.258 . S
C53 O55 1.282 . S
O54 Cd46 2.277 . S
O54 C47 1.226 . S
O55 Cd46 2.356 . S
O55 C53 1.282 . S
C56 O57 1.306 1_565 S
C56 O59 1.160 . S
O57 C56 1.306 1_545 S
O57 Cd58 2.228 . S
Cd58 O57 2.228 . S
Cd58 O62 2.273 1_545 S
Cd58 O66 2.277 1_455 S
O59 C56 1.160 . S
O59 Cd60 2.180 1_455 S
Cd60 O59 2.180 1_655 S
Cd60 O62 2.400 1_655 S
Cd60 O63 2.348 . S
Cd60 O64 2.330 1_655 S
Cd60 O68 2.306 . S
Cd60 O69 2.366 . S
C61 O66 1.209 . S
C61 O68 1.226 1_545 S
O62 Cd58 2.273 1_565 S
O62 Cd60 2.400 1_455 S
O62 C65 1.320 1_455 S
O63 Cd60 2.348 . S
O63 C65 1.214 . S
O64 Cd60 2.330 1_455 S
O64 C67 1.258 . S
C65 O62 1.320 1_655 S
C65 O63 1.214 . S
O66 Cd58 2.277 1_655 S
O66 C61 1.209 . S
C67 O64 1.258 . S
C67 O69 1.282 1_455 S
O68 Cd60 2.306 . S
O68 C61 1.226 1_565 S
O69 Cd60 2.366 . S
O69 C67 1.282 1_655 S
C70 O71 1.306 . S
C70 O73 1.160 . S
O71 C70 1.306 . S
O71 Cd72 2.228 . S
Cd72 O71 2.228 . S
Cd72 O76 2.273 . S
Cd72 O80 2.277 . S
O73 C70 1.160 . S
O73 Cd74 2.203 . S
Cd74 O73 2.203 . S
Cd74 O76 2.411 . S
Cd74 O77 2.333 . S
Cd74 O78 2.352 . S
Cd74 O82 2.277 . S
Cd74 O83 2.356 . S
C75 O80 1.209 . S
C75 O82 1.226 . S
O76 Cd72 2.273 . S
O76 Cd74 2.411 . S
O76 C79 1.320 . S
O77 Cd74 2.333 . S
O77 C79 1.214 . S
O78 Cd74 2.352 . S
O78 C81 1.258 . S
C79 O76 1.320 . S
C79 O77 1.214 . S
O80 Cd72 2.277 . S
O80 C75 1.209 . S
C81 O78 1.258 . S
C81 O83 1.282 . S
O82 Cd74 2.277 . S
O82 C75 1.226 . S
O83 Cd74 2.356 . S
O83 C81 1.282 . S
C84 O85 1.306 1_545 S
C84 O87 1.160 . S
O85 C84 1.306 1_565 S
O85 Cd86 2.228 . S
Cd86 O85 2.228 . S
Cd86 O90 2.273 1_565 S
Cd86 O94 2.277 . S
O87 C84 1.160 . S
O87 Cd88 2.203 . S
Cd88 O87 2.203 . S
Cd88 O90 2.411 . S
Cd88 O91 2.333 . S
Cd88 O92 2.352 . S
Cd88 O96 2.277 . S
Cd88 O97 2.356 . S
C89 O94 1.209 . S
C89 O96 1.226 1_565 S
O90 Cd86 2.273 1_545 S
O90 Cd88 2.411 . S
O90 C93 1.320 . S
O91 Cd88 2.333 . S
O91 C93 1.214 . S
O92 Cd88 2.352 . S
O92 C95 1.258 . S
C93 O90 1.320 . S
C93 O91 1.214 . S
O94 Cd86 2.277 . S
O94 C89 1.209 . S
C95 O92 1.258 . S
C95 O97 1.282 . S
O96 Cd88 2.277 . S
O96 C89 1.226 1_545 S
O97 Cd88 2.356 . S
O97 C95 1.282 . S
C98 O99 1.306 . S
C98 O101 1.160 . S
O99 C98 1.306 . S
O99 Cd100 2.228 . S
Cd100 O99 2.228 . S
Cd100 O104 2.273 . S
Cd100 O108 2.277 . S
O101 C98 1.160 . S
O101 Cd102 2.203 . S
Cd102 O101 2.203 . S
Cd102 O104 2.411 . S
Cd102 O105 2.333 . S
Cd102 O106 2.352 . S
Cd102 O110 2.277 . S
Cd102 O111 2.356 . S
C103 O108 1.209 . S
C103 O110 1.226 . S
O104 Cd100 2.273 . S
O104 Cd102 2.411 . S
O104 C107 1.320 . S
O105 Cd102 2.333 . S
O105 C107 1.214 . S
O106 Cd102 2.352 . S
O106 C109 1.258 . S
C107 O104 1.320 . S
C107 O105 1.214 . S
O108 Cd100 2.277 . S
O108 C103 1.209 . S
C109 O106 1.258 . S
C109 O111 1.282 . S
O110 Cd102 2.277 . S
O110 C103 1.226 . S
O111 Cd102 2.356 . S
O111 C109 1.282 . S
C112 O113 1.306 . S
C112 O115 1.160 . S
O113 C112 1.306 . S
O113 Cd114 2.228 . S
Cd114 O113 2.228 . S
Cd114 O118 2.273 . S
Cd114 O122 2.277 . S
O115 C112 1.160 . S
O115 Cd116 2.203 . S
Cd116 O115 2.203 . S
Cd116 O118 2.411 . S
Cd116 O119 2.333 . S
Cd116 O120 2.352 . S
Cd116 O124 2.277 . S
Cd116 O125 2.356 . S
C117 O122 1.209 . S
C117 O124 1.226 . S
O118 Cd114 2.273 . S
O118 Cd116 2.411 . S
O118 C121 1.320 . S
O119 Cd116 2.333 . S
O119 C121 1.214 . S
O120 Cd116 2.352 . S
O120 C123 1.258 . S
C121 O118 1.320 . S
C121 O119 1.214 . S
O122 Cd114 2.277 . S
O122 C117 1.209 . S
C123 O120 1.258 . S
C123 O125 1.282 . S
O124 Cd116 2.277 . S
O124 C117 1.226 . S
O125 Cd116 2.356 . S
O125 C123 1.282 . S
C126 O127 1.306 . S
C126 O129 1.160 . S
O127 C126 1.306 . S
O127 Cd128 2.228 . S
Cd128 O127 2.228 . S
Cd128 O132 2.273 . S
Cd128 O136 2.277 . S
O129 C126 1.160 . S
O129 Cd130 2.203 . S
Cd130 O129 2.203 . S
Cd130 O132 2.411 . S
Cd130 O133 2.333 . S
Cd130 O134 2.352 . S
Cd130 O138 2.277 . S
Cd130 O139 2.356 . S
C131 O136 1.209 . S
C131 O138 1.226 . S
O132 Cd128 2.273 . S
O132 Cd130 2.411 . S
O132 C135 1.320 . S
O133 Cd130 2.333 . S
O133 C135 1.214 . S
O134 Cd130 2.352 . S
O134 C137 1.258 . S
C135 O132 1.320 . S
C135 O133 1.214 . S
O136 Cd128 2.277 . S
O136 C131 1.209 . S
C137 O134 1.258 . S
C137 O139 1.282 . S
O138 Cd130 2.277 . S
O138 C131 1.226 . S
O139 Cd130 2.356 . S
O139 C137 1.282 . S
C140 O141 1.306 . S
C140 O143 1.160 . S
O141 C140 1.306 . S
O141 Cd142 2.228 . S
Cd142 O141 2.228 . S
Cd142 O146 2.273 . S
Cd142 O150 2.277 . S
O143 C140 1.160 . S
O143 Cd144 2.203 . S
Cd144 O143 2.203 . S
Cd144 O146 2.411 . S
Cd144 O147 2.333 . S
Cd144 O148 2.352 . S
Cd144 O152 2.277 . S
Cd144 O153 2.356 . S
C145 O150 1.209 . S
C145 O152 1.226 . S
O146 Cd142 2.273 . S
O146 Cd144 2.411 . S
O146 C149 1.320 . S
O147 Cd144 2.333 . S
O147 C149 1.214 . S
O148 Cd144 2.352 . S
O148 C151 1.258 . S
C149 O146 1.320 . S
C149 O147 1.214 . S
O150 Cd142 2.277 . S
O150 C145 1.209 . S
C151 O148 1.258 . S
C151 O153 1.282 . S
O152 Cd144 2.277 . S
O152 C145 1.226 . S
O153 Cd144 2.356 . S
O153 C151 1.282 . S
C154 O155 1.306 . S
C154 O157 1.160 . S
O155 C154 1.306 . S
O155 Cd156 2.228 . S
Cd156 O155 2.228 . S
Cd156 O160 2.273 . S
Cd156 O164 2.277 . S
O157 C154 1.160 . S
O157 Cd158 2.203 . S
Cd158 O157 2.203 . S
Cd158 O160 2.411 . S
Cd158 O161 2.333 . S
Cd158 O162 2.352 . S
Cd158 O166 2.277 . S
Cd158 O167 2.356 . S
C159 O164 1.209 . S
C159 O166 1.226 . S
O160 Cd156 2.273 . S
O160 Cd158 2.411 . S
O160 C163 1.320 . S
O161 Cd158 2.333 . S
O161 C163 1.214 . S
O162 Cd158 2.352 . S
O162 C165 1.258 . S
C163 O160 1.320 . S
C163 O161 1.214 . S
O164 Cd156 2.277 . S
O164 C159 1.209 . S
C165 O162 1.258 . S
C165 O167 1.282 . S
O166 Cd158 2.277 . S
O166 C159 1.226 . S
O167 Cd158 2.356 . S
O167 C165 1.282 . S
C168 O169 1.306 . S
C168 O171 1.160 . S
O169 C168 1.306 . S
O169 Cd170 2.228 . S
Cd170 O169 2.228 . S
Cd170 O174 2.273 . S
Cd170 O178 2.277 . S
O171 C168 1.160 . S
O171 Cd172 2.203 . S
Cd172 O171 2.203 . S
Cd172 O174 2.411 . S
Cd172 O175 2.333 . S
Cd172 O176 2.352 . S
Cd172 O180 2.277 . S
Cd172 O181 2.356 . S
C173 O178 1.209 . S
C173 O180 1.226 . S
O174 Cd170 2.273 . S
O174 Cd172 2.411 . S
O174 C177 1.320 . S
O175 Cd172 2.333 . S
O175 C177 1.214 . S
O176 Cd172 2.352 . S
O176 C179 1.258 . S
C177 O174 1.320 . S
C177 O175 1.214 . S
O178 Cd170 2.277 . S
O178 C173 1.209 . S
C179 O176 1.258 . S
C179 O181 1.282 . S
O180 Cd172 2.277 . S
O180 C173 1.226 . S
O181 Cd172 2.356 . S
O181 C179 1.282 . S
C182 O183 1.306 . S
C182 O185 1.160 . S
O183 C182 1.306 . S
O183 Cd184 2.228 . S
Cd184 O183 2.228 . S
Cd184 O188 2.273 . S
Cd184 O192 2.277 1_655 S
O185 C182 1.160 . S
O185 Cd186 2.203 1_655 S
Cd186 O185 2.203 1_455 S
Cd186 O188 2.411 1_455 S
Cd186 O189 2.333 . S
Cd186 O190 2.352 1_455 S
Cd186 O194 2.277 . S
Cd186 O195 2.356 . S
C187 O192 1.209 . S
C187 O194 1.226 . S
O188 Cd184 2.273 . S
O188 Cd186 2.411 1_655 S
O188 C191 1.320 1_655 S
O189 Cd186 2.333 . S
O189 C191 1.214 . S
O190 Cd186 2.352 1_655 S
O190 C193 1.258 . S
C191 O188 1.320 1_455 S
C191 O189 1.214 . S
O192 Cd184 2.277 1_455 S
O192 C187 1.209 . S
C193 O190 1.258 . S
C193 O195 1.282 1_655 S
O194 Cd186 2.277 . S
O194 C187 1.226 . S
O195 Cd186 2.356 . S
O195 C193 1.282 1_455 S
C196 O197 1.306 . S
C196 O199 1.160 . S
O197 C196 1.306 . S
O197 Cd198 2.228 . S
Cd198 O197 2.228 . S
Cd198 O202 2.273 . S
Cd198 O206 2.277 . S
O199 C196 1.160 . S
O199 Cd200 2.203 . S
Cd200 O199 2.203 . S
Cd200 O202 2.411 . S
Cd200 O203 2.333 . S
Cd200 O204 2.352 . S
Cd200 O208 2.277 . S
Cd200 O209 2.356 . S
C201 O206 1.209 . S
C201 O208 1.226 . S
O202 Cd198 2.273 . S
O202 Cd200 2.411 . S
O202 C205 1.320 . S
O203 Cd200 2.333 . S
O203 C205 1.214 . S
O204 Cd200 2.352 . S
O204 C207 1.258 . S
C205 O202 1.320 . S
C205 O203 1.214 . S
O206 Cd198 2.277 . S
O206 C201 1.209 . S
C207 O204 1.258 . S
C207 O209 1.282 . S
O208 Cd200 2.277 . S
O208 C201 1.226 . S
O209 Cd200 2.356 . S
O209 C207 1.282 . S
C210 O211 1.306 . S
C210 O213 1.160 . S
O211 C210 1.306 . S
O211 Cd212 2.228 . S
Cd212 O211 2.228 . S
Cd212 O216 2.273 . S
Cd212 O220 2.277 1_655 S
O213 C210 1.160 . S
O213 Cd214 2.203 1_655 S
Cd214 O213 2.203 1_455 S
Cd214 O216 2.411 1_455 S
Cd214 O217 2.333 . S
Cd214 O218 2.352 1_455 S
Cd214 O222 2.277 . S
Cd214 O223 2.356 . S
C215 O220 1.209 . S
C215 O222 1.226 . S
O216 Cd212 2.273 . S
O216 Cd214 2.411 1_655 S
O216 C219 1.320 1_655 S
O217 Cd214 2.333 . S
O217 C219 1.214 . S
O218 Cd214 2.352 1_655 S
O218 C221 1.258 . S
C219 O216 1.320 1_455 S
C219 O217 1.214 . S
O220 Cd212 2.277 1_455 S
O220 C215 1.209 . S
C221 O218 1.258 . S
C221 O223 1.282 1_655 S
O222 Cd214 2.277 . S
O222 C215 1.226 . S
O223 Cd214 2.356 . S
O223 C221 1.282 1_455 S
H224 C242 0.951 . S
H225 C244 0.951 . S
H226 C246 0.950 . S
H227 C247 0.950 . S
H228 C249 0.950 . S
H229 C252 0.950 . S
H230 C253 0.950 . S
H231 C255 0.950 . S
H232 C256 0.950 . S
H233 C257 0.951 . S
H234 C259 0.951 . S
H235 C261 0.950 . S
H236 C262 0.950 . S
H237 C264 0.950 . S
H238 C267 0.950 . S
H239 C268 0.950 . S
H240 C270 0.950 . S
H241 C271 0.950 . S
C242 H224 0.951 . S
C242 C243 1.366 . S
C242 C244 1.388 . S
C243 C242 1.366 . S
C243 C247 1.385 . S
C244 H225 0.951 . S
C244 C242 1.388 . S
C244 C245 1.366 . S
C245 C244 1.366 . S
C245 C246 1.414 . S
C245 C248 1.499 . S
C246 H226 0.950 . S
C246 C245 1.414 . S
C246 C247 1.374 . S
C247 H227 0.950 . S
C247 C243 1.385 . S
C247 C246 1.374 . S
C248 C245 1.499 . S
C248 C249 1.373 1_455 S
C248 C250 1.389 . S
C249 H228 0.950 . S
C249 C248 1.373 1_655 S
C249 C265 1.377 . S
C250 C248 1.389 . S
C250 C251 1.524 . S
C250 C264 1.377 . S
C251 C250 1.524 . S
C251 C252 1.397 . S
C251 C256 1.363 . S
C252 H229 0.950 . S
C252 C251 1.397 . S
C252 C253 1.334 . S
C253 H230 0.950 . S
C253 C252 1.334 . S
C253 C254 1.287 . S
C254 C253 1.287 . S
C254 C255 1.524 . S
C254 H273 0.913 . S
C255 H231 0.950 . S
C255 C254 1.524 . S
C255 C256 1.415 . S
C256 H232 0.950 . S
C256 C251 1.363 . S
C256 C255 1.415 . S
C257 H233 0.951 . S
C257 C258 1.366 . S
C257 C259 1.388 . S
C258 C257 1.366 . S
C258 C262 1.385 . S
C259 H234 0.951 . S
C259 C257 1.388 . S
C259 C260 1.366 . S
C260 C259 1.366 . S
C260 C261 1.414 . S
C260 C263 1.497 1_655 S
C261 H235 0.950 . S
C261 C260 1.414 . S
C261 C262 1.374 . S
C262 H236 0.950 . S
C262 C258 1.385 . S
C262 C261 1.374 . S
C263 C260 1.497 1_455 S
C263 C264 1.390 . S
C263 C265 1.377 1_455 S
C264 H237 0.950 . S
C264 C250 1.377 . S
C264 C263 1.390 . S
C265 C249 1.377 . S
C265 C263 1.377 1_655 S
C265 C266 1.524 . S
C266 C265 1.524 . S
C266 C267 1.397 . S
C266 C271 1.363 . S
C267 H238 0.950 . S
C267 C266 1.397 . S
C267 C268 1.334 . S
C268 H239 0.950 . S
C268 C267 1.334 . S
C268 C269 1.287 . S
C269 C268 1.287 . S
C269 C270 1.524 . S
C269 H272 0.999 . S
C270 H240 0.950 . S
C270 C269 1.524 . S
C270 C271 1.415 . S
C271 H241 0.950 . S
C271 C266 1.363 . S
C271 C270 1.415 . S
H272 C269 0.999 . S
H273 C254 0.913 . S
H274 C292 0.951 . S
H275 C294 0.951 . S
H276 C296 0.950 . S
H277 C297 0.950 . S
H278 C299 0.950 . S
H279 C302 0.950 . S
H280 C303 0.950 . S
H281 C305 0.950 . S
H282 C306 0.950 . S
H283 C307 0.951 . S
H284 C309 0.951 . S
H285 C311 0.950 . S
H286 C312 0.950 . S
H287 C314 0.950 . S
H288 C317 0.950 . S
H289 C318 0.950 . S
H290 C320 0.950 . S
H291 C321 0.950 . S
C292 H274 0.951 . S
C292 C293 1.366 . S
C292 C294 1.388 . S
C293 C292 1.366 . S
C293 C297 1.385 . S
C294 H275 0.951 . S
C294 C292 1.388 . S
C294 C295 1.366 . S
C295 C294 1.366 . S
C295 C296 1.414 . S
C295 C298 1.499 . S
C296 H276 0.950 . S
C296 C295 1.414 . S
C296 C297 1.374 . S
C297 H277 0.950 . S
C297 C293 1.385 . S
C297 C296 1.374 . S
C298 C295 1.499 . S
C298 C299 1.373 . S
C298 C300 1.389 . S
C299 H278 0.950 . S
C299 C298 1.373 . S
C299 C315 1.377 1_655 S
C300 C298 1.389 . S
C300 C301 1.524 . S
C300 C314 1.377 1_655 S
C301 C300 1.524 . S
C301 C302 1.397 . S
C301 C306 1.363 . S
C302 H279 0.950 . S
C302 C301 1.397 . S
C302 C303 1.334 . S
C303 H280 0.950 . S
C303 C302 1.334 . S
C303 C304 1.287 . S
C304 C303 1.287 . S
C304 C305 1.524 . S
C304 H323 0.913 . S
C305 H281 0.950 . S
C305 C304 1.524 . S
C305 C306 1.415 . S
C306 H282 0.950 . S
C306 C301 1.363 . S
C306 C305 1.415 . S
C307 H283 0.951 . S
C307 C308 1.366 . S
C307 C309 1.388 . S
C308 C307 1.366 . S
C308 C312 1.385 . S
C309 H284 0.951 . S
C309 C307 1.388 . S
C309 C310 1.366 . S
C310 C309 1.366 . S
C310 C311 1.414 . S
C310 C313 1.499 . S
C311 H285 0.950 . S
C311 C310 1.414 . S
C311 C312 1.374 . S
C312 H286 0.950 . S
C312 C308 1.385 . S
C312 C311 1.374 . S
C313 C310 1.499 . S
C313 C314 1.373 . S
C313 C315 1.389 . S
C314 H287 0.950 . S
C314 C300 1.377 1_455 S
C314 C313 1.373 . S
C315 C299 1.377 1_455 S
C315 C313 1.389 . S
C315 C316 1.524 . S
C316 C315 1.524 . S
C316 C317 1.397 . S
C316 C321 1.363 . S
C317 H288 0.950 . S
C317 C316 1.397 . S
C317 C318 1.334 . S
C318 H289 0.950 . S
C318 C317 1.334 . S
C318 C319 1.287 . S
C319 C318 1.287 . S
C319 C320 1.524 . S
C319 H322 0.999 . S
C320 H290 0.950 . S
C320 C319 1.524 . S
C320 C321 1.415 . S
C321 H291 0.950 . S
C321 C316 1.363 . S
C321 C320 1.415 . S
H322 C319 0.999 . S
H323 C304 0.913 . S
H324 C342 0.951 . S
H325 C344 0.951 . S
H326 C346 0.950 . S
H327 C347 0.950 . S
H328 C349 0.950 . S
H329 C352 0.950 . S
H330 C353 0.950 . S
H331 C355 0.950 . S
H332 C356 0.950 . S
H333 C357 0.951 . S
H334 C359 0.951 . S
H335 C361 0.950 . S
H336 C362 0.950 . S
H337 C364 0.950 . S
H338 C367 0.950 . S
H339 C368 0.950 . S
H340 C370 0.950 . S
H341 C371 0.950 . S
C342 H324 0.951 . S
C342 C343 1.366 . S
C342 C344 1.388 . S
C343 C342 1.366 . S
C343 C347 1.385 . S
C344 H325 0.951 . S
C344 C342 1.388 . S
C344 C345 1.366 . S
C345 C344 1.366 . S
C345 C346 1.414 . S
C345 C348 1.499 . S
C346 H326 0.950 . S
C346 C345 1.414 . S
C346 C347 1.374 . S
C347 H327 0.950 . S
C347 C343 1.385 . S
C347 C346 1.374 . S
C348 C345 1.499 . S
C348 C349 1.373 . S
C348 C350 1.389 . S
C349 H328 0.950 . S
C349 C348 1.373 . S
C349 C365 1.377 . S
C350 C348 1.389 . S
C350 C351 1.524 . S
C350 C364 1.377 . S
C351 C350 1.524 . S
C351 C352 1.397 . S
C351 C356 1.363 . S
C352 H329 0.950 . S
C352 C351 1.397 . S
C352 C353 1.334 . S
C353 H330 0.950 . S
C353 C352 1.334 . S
C353 C354 1.287 . S
C354 C353 1.287 . S
C354 C355 1.524 . S
C354 H373 0.913 . S
C355 H331 0.950 . S
C355 C354 1.524 . S
C355 C356 1.415 . S
C356 H332 0.950 . S
C356 C351 1.363 . S
C356 C355 1.415 . S
C357 H333 0.951 . S
C357 C358 1.366 . S
C357 C359 1.388 . S
C358 C357 1.366 . S
C358 C362 1.385 . S
C359 H334 0.951 . S
C359 C357 1.388 . S
C359 C360 1.366 . S
C360 C359 1.366 . S
C360 C361 1.414 . S
C360 C363 1.499 . S
C361 H335 0.950 . S
C361 C360 1.414 . S
C361 C362 1.374 . S
C362 H336 0.950 . S
C362 C358 1.385 . S
C362 C361 1.374 . S
C363 C360 1.499 . S
C363 C364 1.373 . S
C363 C365 1.389 . S
C364 H337 0.950 . S
C364 C350 1.377 . S
C364 C363 1.373 . S
C365 C349 1.377 . S
C365 C363 1.389 . S
C365 C366 1.524 . S
C366 C365 1.524 . S
C366 C367 1.397 . S
C366 C371 1.363 . S
C367 H338 0.950 . S
C367 C366 1.397 . S
C367 C368 1.334 . S
C368 H339 0.950 . S
C368 C367 1.334 . S
C368 C369 1.287 . S
C369 C368 1.287 . S
C369 C370 1.524 . S
C369 H372 0.999 . S
C370 H340 0.950 . S
C370 C369 1.524 . S
C370 C371 1.415 . S
C371 H341 0.950 . S
C371 C366 1.363 . S
C371 C370 1.415 . S
H372 C369 0.999 . S
H373 C354 0.913 . S
H374 C392 0.951 . S
H375 C394 0.951 . S
H376 C396 0.950 . S
H377 C397 0.950 . S
H378 C399 0.950 . S
H379 C402 0.950 . S
H380 C403 0.950 . S
H381 C405 0.950 . S
H382 C406 0.950 . S
H383 C407 0.951 . S
H384 C409 0.951 . S
H385 C411 0.950 . S
H386 C412 0.950 . S
H387 C414 0.950 . S
H388 C417 0.950 . S
H389 C418 0.950 . S
H390 C420 0.950 . S
H391 C421 0.950 . S
C392 H374 0.951 . S
C392 C393 1.366 . S
C392 C394 1.388 . S
C393 C392 1.366 . S
C393 C397 1.385 . S
C394 H375 0.951 . S
C394 C392 1.388 . S
C394 C395 1.366 . S
C395 C394 1.366 . S
C395 C396 1.414 . S
C395 C398 1.499 . S
C396 H376 0.950 . S
C396 C395 1.414 . S
C396 C397 1.374 . S
C397 H377 0.950 . S
C397 C393 1.385 . S
C397 C396 1.374 . S
C398 C395 1.499 . S
C398 C399 1.373 . S
C398 C400 1.389 . S
C399 H378 0.950 . S
C399 C398 1.373 . S
C399 C415 1.377 . S
C400 C398 1.389 . S
C400 C401 1.524 . S
C400 C414 1.377 . S
C401 C400 1.524 . S
C401 C402 1.397 . S
C401 C406 1.363 . S
C402 H379 0.950 . S
C402 C401 1.397 . S
C402 C403 1.334 . S
C403 H380 0.950 . S
C403 C402 1.334 . S
C403 C404 1.287 . S
C404 C403 1.287 . S
C404 C405 1.524 . S
C404 H423 0.913 . S
C405 H381 0.950 . S
C405 C404 1.524 . S
C405 C406 1.415 . S
C406 H382 0.950 . S
C406 C401 1.363 . S
C406 C405 1.415 . S
C407 H383 0.951 . S
C407 C408 1.366 . S
C407 C409 1.388 . S
C408 C407 1.366 . S
C408 C412 1.385 . S
C409 H384 0.951 . S
C409 C407 1.388 . S
C409 C410 1.366 . S
C410 C409 1.366 . S
C410 C411 1.414 . S
C410 C413 1.499 . S
C411 H385 0.950 . S
C411 C410 1.414 . S
C411 C412 1.374 . S
C412 H386 0.950 . S
C412 C408 1.385 . S
C412 C411 1.374 . S
C413 C410 1.499 . S
C413 C414 1.373 . S
C413 C415 1.389 . S
C414 H387 0.950 . S
C414 C400 1.377 . S
C414 C413 1.373 . S
C415 C399 1.377 . S
C415 C413 1.389 . S
C415 C416 1.524 . S
C416 C415 1.524 . S
C416 C417 1.397 . S
C416 C421 1.363 . S
C417 H388 0.950 . S
C417 C416 1.397 . S
C417 C418 1.334 . S
C418 H389 0.950 . S
C418 C417 1.334 . S
C418 C419 1.287 . S
C419 C418 1.287 . S
C419 C420 1.524 . S
C419 H422 0.999 . S
C420 H390 0.950 . S
C420 C419 1.524 . S
C420 C421 1.415 . S
C421 H391 0.950 . S
C421 C416 1.363 . S
C421 C420 1.415 . S
H422 C419 0.999 . S
H423 C404 0.913 . S
H424 C442 0.951 . S
H425 C444 0.951 . S
H426 C446 0.950 . S
H427 C447 0.950 . S
H428 C449 0.950 . S
H429 C452 0.950 . S
H430 C453 0.950 . S
H431 C455 0.950 . S
H432 C456 0.950 . S
H433 C457 0.951 . S
H434 C459 0.951 . S
H435 C461 0.950 . S
H436 C462 0.950 . S
H437 C464 0.950 . S
H438 C467 0.950 . S
H439 C468 0.950 . S
H440 C470 0.950 . S
H441 C471 0.950 . S
C442 H424 0.951 . S
C442 C443 1.366 . S
C442 C444 1.388 . S
C443 C442 1.366 . S
C443 C447 1.385 . S
C444 H425 0.951 . S
C444 C442 1.388 . S
C444 C445 1.366 . S
C445 C444 1.366 . S
C445 C446 1.414 . S
C445 C448 1.499 . S
C446 H426 0.950 . S
C446 C445 1.414 . S
C446 C447 1.374 . S
C447 H427 0.950 . S
C447 C443 1.385 . S
C447 C446 1.374 . S
C448 C445 1.499 . S
C448 C449 1.373 1_455 S
C448 C450 1.389 . S
C449 H428 0.950 . S
C449 C448 1.373 1_655 S
C449 C465 1.377 . S
C450 C448 1.389 . S
C450 C451 1.524 . S
C450 C464 1.377 . S
C451 C450 1.524 . S
C451 C452 1.397 . S
C451 C456 1.363 . S
C452 H429 0.950 . S
C452 C451 1.397 . S
C452 C453 1.334 . S
C453 H430 0.950 . S
C453 C452 1.334 . S
C453 C454 1.287 . S
C454 C453 1.287 . S
C454 C455 1.524 . S
C454 H473 0.913 . S
C455 H431 0.950 . S
C455 C454 1.524 . S
C455 C456 1.415 . S
C456 H432 0.950 . S
C456 C451 1.363 . S
C456 C455 1.415 . S
C457 H433 0.951 . S
C457 C458 1.366 . S
C457 C459 1.388 . S
C458 C457 1.366 . S
C458 C462 1.385 1_655 S
C459 H434 0.951 . S
C459 C457 1.388 . S
C459 C460 1.366 . S
C460 C459 1.366 . S
C460 C461 1.414 1_655 S
C460 C463 1.496 1_655 S
C461 H435 0.950 . S
C461 C460 1.414 1_455 S
C461 C462 1.374 . S
C462 H436 0.950 . S
C462 C458 1.385 1_455 S
C462 C461 1.374 . S
C463 C460 1.496 1_455 S
C463 C464 1.402 . S
C463 C465 1.366 1_455 S
C464 H437 0.950 . S
C464 C450 1.377 . S
C464 C463 1.402 . S
C465 C449 1.377 . S
C465 C463 1.366 1_655 S
C465 C466 1.524 . S
C466 C465 1.524 . S
C466 C467 1.397 . S
C466 C471 1.363 . S
C467 H438 0.950 . S
C467 C466 1.397 . S
C467 C468 1.334 . S
C468 H439 0.950 . S
C468 C467 1.334 . S
C468 C469 1.287 . S
C469 C468 1.287 . S
C469 C470 1.524 . S
C469 H472 0.999 . S
C470 H440 0.950 . S
C470 C469 1.524 . S
C470 C471 1.415 . S
C471 H441 0.950 . S
C471 C466 1.363 . S
C471 C470 1.415 . S
H472 C469 0.999 . S
H473 C454 0.913 . S
H474 C492 0.951 . S
H475 C494 0.951 . S
H476 C496 0.950 . S
H477 C497 0.950 . S
H478 C499 0.950 . S
H479 C502 0.950 . S
H480 C503 0.950 . S
H481 C505 0.950 . S
H482 C506 0.950 . S
H483 C507 0.951 . S
H484 C509 0.951 . S
H485 C511 0.950 . S
H486 C512 0.950 . S
H487 C514 0.950 . S
H488 C517 0.950 . S
H489 C518 0.950 . S
H490 C520 0.950 . S
H491 C521 0.950 . S
C492 H474 0.951 . S
C492 C493 1.366 . S
C492 C494 1.388 . S
C493 C492 1.366 . S
C493 C497 1.385 . S
C494 H475 0.951 . S
C494 C492 1.388 . S
C494 C495 1.366 . S
C495 C494 1.366 . S
C495 C496 1.414 . S
C495 C498 1.499 . S
C496 H476 0.950 . S
C496 C495 1.414 . S
C496 C497 1.374 . S
C497 H477 0.950 . S
C497 C493 1.385 . S
C497 C496 1.374 . S
C498 C495 1.499 . S
C498 C499 1.373 . S
C498 C500 1.389 . S
C499 H478 0.950 . S
C499 C498 1.373 . S
C499 C515 1.377 . S
C500 C498 1.389 . S
C500 C501 1.524 . S
C500 C514 1.377 . S
C501 C500 1.524 . S
C501 C502 1.397 . S
C501 C506 1.363 . S
C502 H479 0.950 . S
C502 C501 1.397 . S
C502 C503 1.334 . S
C503 H480 0.950 . S
C503 C502 1.334 . S
C503 C504 1.287 . S
C504 C503 1.287 . S
C504 C505 1.524 . S
C504 H523 0.913 . S
C505 H481 0.950 . S
C505 C504 1.524 . S
C505 C506 1.415 . S
C506 H482 0.950 . S
C506 C501 1.363 . S
C506 C505 1.415 . S
C507 H483 0.951 . S
C507 C508 1.366 . S
C507 C509 1.388 . S
C508 C507 1.366 . S
C508 C512 1.385 . S
C509 H484 0.951 . S
C509 C507 1.388 . S
C509 C510 1.366 . S
C510 C509 1.366 . S
C510 C511 1.414 . S
C510 C513 1.499 . S
C511 H485 0.950 . S
C511 C510 1.414 . S
C511 C512 1.374 . S
C512 H486 0.950 . S
C512 C508 1.385 . S
C512 C511 1.374 . S
C513 C510 1.499 . S
C513 C514 1.373 . S
C513 C515 1.389 . S
C514 H487 0.950 . S
C514 C500 1.377 . S
C514 C513 1.373 . S
C515 C499 1.377 . S
C515 C513 1.389 . S
C515 C516 1.524 . S
C516 C515 1.524 . S
C516 C517 1.397 . S
C516 C521 1.363 . S
C517 H488 0.950 . S
C517 C516 1.397 . S
C517 C518 1.334 . S
C518 H489 0.950 . S
C518 C517 1.334 . S
C518 C519 1.287 . S
C519 C518 1.287 . S
C519 C520 1.524 . S
C519 H522 0.999 . S
C520 H490 0.950 . S
C520 C519 1.524 . S
C520 C521 1.415 . S
C521 H491 0.950 . S
C521 C516 1.363 . S
C521 C520 1.415 . S
H522 C519 0.999 . S
H523 C504 0.913 . S
H524 C542 0.951 . S
H525 C544 0.951 . S
H526 C546 0.950 . S
H527 C547 0.950 . S
H528 C549 0.950 . S
H529 C552 0.950 . S
H530 C553 0.950 . S
H531 C555 0.950 . S
H532 C556 0.950 . S
H533 C557 0.951 . S
H534 C559 0.951 . S
H535 C561 0.950 . S
H536 C562 0.950 . S
H537 C564 0.950 . S
H538 C567 0.950 . S
H539 C568 0.950 . S
H540 C570 0.950 . S
H541 C571 0.950 . S
C542 H524 0.951 . S
C542 C543 1.366 . S
C542 C544 1.388 . S
C543 C542 1.366 . S
C543 C547 1.385 . S
C544 H525 0.951 . S
C544 C542 1.388 . S
C544 C545 1.366 . S
C545 C544 1.366 . S
C545 C546 1.414 . S
C545 C548 1.499 . S
C546 H526 0.950 . S
C546 C545 1.414 . S
C546 C547 1.374 . S
C547 H527 0.950 . S
C547 C543 1.385 . S
C547 C546 1.374 . S
C548 C545 1.499 . S
C548 C549 1.373 . S
C548 C550 1.389 . S
C549 H528 0.950 . S
C549 C548 1.373 . S
C549 C565 1.377 . S
C550 C548 1.389 . S
C550 C551 1.524 . S
C550 C564 1.377 . S
C551 C550 1.524 . S
C551 C552 1.397 . S
C551 C556 1.363 . S
C552 H529 0.950 . S
C552 C551 1.397 . S
C552 C553 1.334 . S
C553 H530 0.950 . S
C553 C552 1.334 . S
C553 C554 1.287 . S
C554 C553 1.287 . S
C554 C555 1.524 . S
C554 H573 0.913 . S
C555 H531 0.950 . S
C555 C554 1.524 . S
C555 C556 1.415 . S
C556 H532 0.950 . S
C556 C551 1.363 . S
C556 C555 1.415 . S
C557 H533 0.951 . S
C557 C558 1.366 . S
C557 C559 1.388 . S
C558 C557 1.366 . S
C558 C562 1.385 . S
C559 H534 0.951 . S
C559 C557 1.388 . S
C559 C560 1.366 . S
C560 C559 1.366 . S
C560 C561 1.414 . S
C560 C563 1.499 . S
C561 H535 0.950 . S
C561 C560 1.414 . S
C561 C562 1.374 . S
C562 H536 0.950 . S
C562 C558 1.385 . S
C562 C561 1.374 . S
C563 C560 1.499 . S
C563 C564 1.373 . S
C563 C565 1.389 . S
C564 H537 0.950 . S
C564 C550 1.377 . S
C564 C563 1.373 . S
C565 C549 1.377 . S
C565 C563 1.389 . S
C565 C566 1.524 . S
C566 C565 1.524 . S
C566 C567 1.397 . S
C566 C571 1.363 . S
C567 H538 0.950 . S
C567 C566 1.397 . S
C567 C568 1.334 . S
C568 H539 0.950 . S
C568 C567 1.334 . S
C568 C569 1.287 . S
C569 C568 1.287 . S
C569 C570 1.524 . S
C569 H572 0.999 . S
C570 H540 0.950 . S
C570 C569 1.524 . S
C570 C571 1.415 . S
C571 H541 0.950 . S
C571 C566 1.363 . S
C571 C570 1.415 . S
H572 C569 0.999 . S
H573 C554 0.913 . S
H574 C592 0.951 . S
H575 C594 0.951 . S
H576 C596 0.950 . S
H577 C597 0.950 . S
H578 C599 0.950 . S
H579 C602 0.950 . S
H580 C603 0.950 . S
H581 C605 0.950 . S
H582 C606 0.950 . S
H583 C607 0.951 . S
H584 C609 0.951 . S
H585 C611 0.950 . S
H586 C612 0.950 . S
H587 C614 0.950 . S
H588 C617 0.950 . S
H589 C618 0.950 . S
H590 C620 0.950 . S
H591 C621 0.950 . S
C592 H574 0.951 . S
C592 C593 1.366 . S
C592 C594 1.388 . S
C593 C592 1.366 . S
C593 C597 1.385 . S
C594 H575 0.951 . S
C594 C592 1.388 . S
C594 C595 1.366 . S
C595 C594 1.366 . S
C595 C596 1.414 . S
C595 C598 1.499 . S
C596 H576 0.950 . S
C596 C595 1.414 . S
C596 C597 1.374 . S
C597 H577 0.950 . S
C597 C593 1.385 . S
C597 C596 1.374 . S
C598 C595 1.499 . S
C598 C599 1.373 . S
C598 C600 1.389 . S
C599 H578 0.950 . S
C599 C598 1.373 . S
C599 C615 1.377 1_455 S
C600 C598 1.389 . S
C600 C601 1.524 . S
C600 C614 1.377 1_455 S
C601 C600 1.524 . S
C601 C602 1.397 . S
C601 C606 1.363 . S
C602 H579 0.950 . S
C602 C601 1.397 . S
C602 C603 1.334 . S
C603 H580 0.950 . S
C603 C602 1.334 . S
C603 C604 1.287 . S
C604 C603 1.287 . S
C604 C605 1.524 . S
C604 H623 0.913 . S
C605 H581 0.950 . S
C605 C604 1.524 . S
C605 C606 1.415 . S
C606 H582 0.950 . S
C606 C601 1.363 . S
C606 C605 1.415 . S
C607 H583 0.951 . S
C607 C608 1.366 . S
C607 C609 1.388 . S
C608 C607 1.366 . S
C608 C612 1.385 . S
C609 H584 0.951 . S
C609 C607 1.388 . S
C609 C610 1.366 . S
C610 C609 1.366 . S
C610 C611 1.414 . S
C610 C613 1.499 . S
C611 H585 0.950 . S
C611 C610 1.414 . S
C611 C612 1.374 . S
C612 H586 0.950 . S
C612 C608 1.385 . S
C612 C611 1.374 . S
C613 C610 1.499 . S
C613 C614 1.373 . S
C613 C615 1.389 . S
C614 H587 0.950 . S
C614 C600 1.377 1_655 S
C614 C613 1.373 . S
C615 C599 1.377 1_655 S
C615 C613 1.389 . S
C615 C616 1.524 . S
C616 C615 1.524 . S
C616 C617 1.397 . S
C616 C621 1.363 . S
C617 H588 0.950 . S
C617 C616 1.397 . S
C617 C618 1.334 . S
C618 H589 0.950 . S
C618 C617 1.334 . S
C618 C619 1.287 . S
C619 C618 1.287 . S
C619 C620 1.524 . S
C619 H622 0.999 . S
C620 H590 0.950 . S
C620 C619 1.524 . S
C620 C621 1.415 . S
C621 H591 0.950 . S
C621 C616 1.363 . S
C621 C620 1.415 . S
H622 C619 0.999 . S
H623 C604 0.913 . S
H624 C642 0.951 . S
H625 C644 0.951 . S
H626 C646 0.950 . S
H627 C647 0.950 . S
H628 C649 0.950 . S
H629 C652 0.950 . S
H630 C653 0.950 . S
H631 C655 0.950 . S
H632 C656 0.962 . S
H633 C657 0.951 . S
H634 C659 0.951 . S
H635 C661 0.950 . S
H636 C662 0.950 . S
H637 C664 0.950 1_455 S
H638 C667 0.950 . S
H639 C668 0.950 . S
H640 C670 0.950 . S
H641 C671 0.950 1_455 S
C642 H624 0.951 . S
C642 C643 1.366 1_545 S
C642 C644 1.388 . S
C643 C642 1.366 1_565 S
C643 C647 1.385 1_655 S
C644 H625 0.951 . S
C644 C642 1.388 . S
C644 C645 1.366 1_545 S
C645 C644 1.366 1_565 S
C645 C646 1.414 1_655 S
C645 C648 1.499 . S
C646 H626 0.950 . S
C646 C645 1.414 1_455 S
C646 C647 1.374 . S
C647 H627 0.950 . S
C647 C643 1.385 1_455 S
C647 C646 1.374 . S
C648 C645 1.499 . S
C648 C649 1.373 . S
C648 C650 1.385 1_665 S
C649 H628 0.950 . S
C649 C648 1.373 . S
C649 C665 1.377 . S
C650 C648 1.385 1_445 S
C650 C651 1.533 . S
C650 C664 1.375 1_455 S
C651 C650 1.533 . S
C651 C652 1.397 . S
C651 C656 1.357 1_455 S
C652 H629 0.950 . S
C652 C651 1.397 . S
C652 C653 1.334 . S
C653 H630 0.950 . S
C653 C652 1.334 . S
C653 C654 1.287 . S
C654 C653 1.287 . S
C654 C655 1.524 . S
C654 H673 0.913 . S
C655 H631 0.950 . S
C655 C654 1.524 . S
C655 C656 1.410 1_455 S
C656 H632 0.962 . S
C656 C651 1.357 1_655 S
C656 C655 1.410 1_655 S
C657 H633 0.951 . S
C657 C658 1.366 1_465 S
C657 C659 1.388 . S
C658 C657 1.366 1_645 S
C658 C662 1.385 . S
C659 H634 0.951 . S
C659 C657 1.388 . S
C659 C660 1.366 1_465 S
C660 C659 1.366 1_645 S
C660 C661 1.414 . S
C660 C663 1.499 . S
C661 H635 0.950 . S
C661 C660 1.414 . S
C661 C662 1.374 . S
C662 H636 0.950 . S
C662 C658 1.385 . S
C662 C661 1.374 . S
C663 C660 1.499 . S
C663 C664 1.373 . S
C663 C665 1.389 1_545 S
C664 H637 0.950 1_655 S
C664 C650 1.375 1_655 S
C664 C663 1.373 . S
C665 C649 1.377 . S
C665 C663 1.389 1_565 S
C665 C666 1.524 . S
C666 C665 1.524 . S
C666 C667 1.397 . S
C666 C671 1.363 . S
C667 H638 0.950 . S
C667 C666 1.397 . S
C667 C668 1.334 . S
C668 H639 0.950 . S
C668 C667 1.334 . S
C668 C669 1.287 . S
C669 C668 1.287 . S
C669 C670 1.524 . S
C669 H672 0.999 . S
C670 H640 0.950 . S
C670 C669 1.524 . S
C670 C671 1.415 . S
C671 H641 0.950 1_655 S
C671 C666 1.363 . S
C671 C670 1.415 . S
H672 C669 0.999 . S
H673 C654 0.913 . S
H674 C692 0.951 . S
H675 C694 0.951 . S
H676 C696 0.950 . S
H677 C697 0.950 . S
H678 C699 0.950 . S
H679 C702 0.950 . S
H680 C703 0.950 . S
H681 C705 0.950 . S
H682 C706 0.950 . S
H683 C707 0.951 . S
H684 C709 0.951 . S
H685 C711 0.950 . S
H686 C712 0.950 . S
H687 C714 0.950 . S
H688 C717 0.950 . S
H689 C718 0.950 . S
H690 C720 0.950 . S
H691 C721 0.950 . S
C692 H674 0.951 . S
C692 C693 1.366 . S
C692 C694 1.388 . S
C693 C692 1.366 . S
C693 C697 1.385 . S
C694 H675 0.951 . S
C694 C692 1.388 . S
C694 C695 1.366 . S
C695 C694 1.366 . S
C695 C696 1.414 . S
C695 C698 1.499 . S
C696 H676 0.950 . S
C696 C695 1.414 . S
C696 C697 1.374 . S
C697 H677 0.950 . S
C697 C693 1.385 . S
C697 C696 1.374 . S
C698 C695 1.499 . S
C698 C699 1.373 . S
C698 C700 1.389 . S
C699 H678 0.950 . S
C699 C698 1.373 . S
C699 C715 1.377 . S
C700 C698 1.389 . S
C700 C701 1.524 . S
C700 C714 1.377 . S
C701 C700 1.524 . S
C701 C702 1.397 . S
C701 C706 1.363 . S
C702 H679 0.950 . S
C702 C701 1.397 . S
C702 C703 1.334 . S
C703 H680 0.950 . S
C703 C702 1.334 . S
C703 C704 1.287 . S
C704 C703 1.287 . S
C704 C705 1.524 . S
C704 H723 0.913 . S
C705 H681 0.950 . S
C705 C704 1.524 . S
C705 C706 1.415 . S
C706 H682 0.950 . S
C706 C701 1.363 . S
C706 C705 1.415 . S
C707 H683 0.951 . S
C707 C708 1.366 . S
C707 C709 1.388 . S
C708 C707 1.366 . S
C708 C712 1.385 . S
C709 H684 0.951 . S
C709 C707 1.388 . S
C709 C710 1.366 . S
C710 C709 1.366 . S
C710 C711 1.414 . S
C710 C713 1.499 . S
C711 H685 0.950 . S
C711 C710 1.414 . S
C711 C712 1.374 . S
C712 H686 0.950 . S
C712 C708 1.385 . S
C712 C711 1.374 . S
C713 C710 1.499 . S
C713 C714 1.373 . S
C713 C715 1.389 . S
C714 H687 0.950 . S
C714 C700 1.377 . S
C714 C713 1.373 . S
C715 C699 1.377 . S
C715 C713 1.389 . S
C715 C716 1.524 . S
C716 C715 1.524 . S
C716 C717 1.397 . S
C716 C721 1.363 . S
C717 H688 0.950 . S
C717 C716 1.397 . S
C717 C718 1.334 . S
C718 H689 0.950 . S
C718 C717 1.334 . S
C718 C719 1.287 . S
C719 C718 1.287 . S
C719 C720 1.524 . S
C719 H722 0.999 . S
C720 H690 0.950 . S
C720 C719 1.524 . S
C720 C721 1.415 . S
C721 H691 0.950 . S
C721 C716 1.363 . S
C721 C720 1.415 . S
H722 C719 0.999 . S
H723 C704 0.913 . S
H724 C742 0.951 . S
H725 C744 0.951 . S
H726 C746 0.950 . S
H727 C747 0.950 . S
H728 C749 0.950 . S
H729 C752 0.952 1_545 S
H730 C753 0.950 . S
H731 C755 0.950 . S
H732 C756 0.950 1_556 S
H733 C757 0.951 . S
H734 C759 0.951 . S
H735 C761 0.950 . S
H736 C762 0.950 . S
H737 C764 0.950 . S
H738 C767 0.952 1_565 S
H739 C768 0.950 . S
H740 C770 0.950 . S
H741 C771 0.950 1_554 S
C742 H724 0.951 . S
C742 C743 1.366 . S
C742 C744 1.388 . S
C743 C742 1.366 . S
C743 C747 1.385 1_565 S
C744 H725 0.951 . S
C744 C742 1.388 . S
C744 C745 1.366 . S
C745 C744 1.366 . S
C745 C746 1.414 1_565 S
C745 C748 1.499 . S
C746 H726 0.950 . S
C746 C745 1.414 1_545 S
C746 C747 1.374 . S
C747 H727 0.950 . S
C747 C743 1.385 1_545 S
C747 C746 1.374 . S
C748 C745 1.499 . S
C748 C749 1.373 1_565 S
C748 C750 1.389 . S
C749 H728 0.950 . S
C749 C748 1.373 1_545 S
C749 C765 1.377 1_554 S
C750 C748 1.389 . S
C750 C751 1.524 . S
C750 C764 1.377 1_554 S
C751 C750 1.524 . S
C751 C752 1.397 . S
C751 C756 1.363 . S
C752 H729 0.952 1_565 S
C752 C751 1.397 . S
C752 C753 1.334 . S
C753 H730 0.950 . S
C753 C752 1.334 . S
C753 C754 1.287 . S
C754 C753 1.287 . S
C754 C755 1.524 . S
C754 H773 0.913 . S
C755 H731 0.950 . S
C755 C754 1.524 . S
C755 C756 1.415 . S
C756 H732 0.950 1_554 S
C756 C751 1.363 . S
C756 C755 1.415 . S
C757 H733 0.951 . S
C757 C758 1.366 . S
C757 C759 1.388 . S
C758 C757 1.366 . S
C758 C762 1.385 1_545 S
C759 H734 0.951 . S
C759 C757 1.388 . S
C759 C760 1.366 . S
C760 C759 1.366 . S
C760 C761 1.414 1_545 S
C760 C763 1.499 . S
C761 H735 0.950 . S
C761 C760 1.414 1_565 S
C761 C762 1.374 . S
C762 H736 0.950 . S
C762 C758 1.385 1_565 S
C762 C761 1.374 . S
C763 C760 1.499 . S
C763 C764 1.373 1_545 S
C763 C765 1.389 . S
C764 H737 0.950 . S
C764 C750 1.377 1_556 S
C764 C763 1.373 1_565 S
C765 C749 1.377 1_556 S
C765 C763 1.389 . S
C765 C766 1.524 . S
C766 C765 1.524 . S
C766 C767 1.397 . S
C766 C771 1.363 . S
C767 H738 0.952 1_545 S
C767 C766 1.397 . S
C767 C768 1.334 . S
C768 H739 0.950 . S
C768 C767 1.334 . S
C768 C769 1.287 . S
C769 C768 1.287 . S
C769 C770 1.524 . S
C769 H772 0.999 . S
C770 H740 0.950 . S
C770 C769 1.524 . S
C770 C771 1.415 . S
C771 H741 0.950 1_556 S
C771 C766 1.363 . S
C771 C770 1.415 . S
H772 C769 0.999 . S
H773 C754 0.913 . S
H774 C792 0.951 . S
H775 C794 0.951 . S
H776 C796 0.950 . S
H777 C797 0.950 . S
H778 C799 0.950 . S
H779 C802 0.950 . S
H780 C803 0.950 . S
H781 C805 0.950 . S
H782 C806 0.950 . S
H783 C807 0.951 . S
H784 C809 0.951 . S
H785 C811 0.950 . S
H786 C812 0.950 . S
H787 C814 0.950 . S
H788 C817 0.950 . S
H789 C818 0.950 . S
H790 C820 0.950 . S
H791 C821 0.950 . S
C792 H774 0.951 . S
C792 C793 1.366 . S
C792 C794 1.388 . S
C793 C792 1.366 . S
C793 C797 1.385 . S
C794 H775 0.951 . S
C794 C792 1.388 . S
C794 C795 1.366 . S
C795 C794 1.366 . S
C795 C796 1.414 . S
C795 C798 1.499 . S
C796 H776 0.950 . S
C796 C795 1.414 . S
C796 C797 1.374 . S
C797 H777 0.950 . S
C797 C793 1.385 . S
C797 C796 1.374 . S
C798 C795 1.499 . S
C798 C799 1.373 . S
C798 C800 1.389 . S
C799 H778 0.950 . S
C799 C798 1.373 . S
C799 C815 1.377 . S
C800 C798 1.389 . S
C800 C801 1.524 . S
C800 C814 1.377 . S
C801 C800 1.524 . S
C801 C802 1.397 . S
C801 C806 1.363 . S
C802 H779 0.950 . S
C802 C801 1.397 . S
C802 C803 1.334 . S
C803 H780 0.950 . S
C803 C802 1.334 . S
C803 C804 1.287 . S
C804 C803 1.287 . S
C804 C805 1.524 . S
C804 H823 0.913 . S
C805 H781 0.950 . S
C805 C804 1.524 . S
C805 C806 1.415 . S
C806 H782 0.950 . S
C806 C801 1.363 . S
C806 C805 1.415 . S
C807 H783 0.951 . S
C807 C808 1.366 . S
C807 C809 1.388 . S
C808 C807 1.366 . S
C808 C812 1.385 . S
C809 H784 0.951 . S
C809 C807 1.388 . S
C809 C810 1.366 . S
C810 C809 1.366 . S
C810 C811 1.414 . S
C810 C813 1.499 . S
C811 H785 0.950 . S
C811 C810 1.414 . S
C811 C812 1.374 . S
C812 H786 0.950 . S
C812 C808 1.385 . S
C812 C811 1.374 . S
C813 C810 1.499 . S
C813 C814 1.373 . S
C813 C815 1.389 . S
C814 H787 0.950 . S
C814 C800 1.377 . S
C814 C813 1.373 . S
C815 C799 1.377 . S
C815 C813 1.389 . S
C815 C816 1.524 . S
C816 C815 1.524 . S
C816 C817 1.397 . S
C816 C821 1.363 . S
C817 H788 0.950 . S
C817 C816 1.397 . S
C817 C818 1.334 . S
C818 H789 0.950 . S
C818 C817 1.334 . S
C818 C819 1.287 . S
C819 C818 1.287 . S
C819 C820 1.524 . S
C819 H822 0.999 . S
C820 H790 0.950 . S
C820 C819 1.524 . S
C820 C821 1.415 . S
C821 H791 0.950 . S
C821 C816 1.363 . S
C821 C820 1.415 . S
H822 C819 0.999 . S
H823 C804 0.913 . S
H824 C842 0.951 . S
H825 C844 0.951 . S
H826 C846 0.950 . S
H827 C847 0.950 . S
H828 C849 0.950 . S
H829 C852 0.950 . S
H830 C853 0.950 . S
H831 C855 0.950 . S
H832 C856 0.950 . S
H833 C857 0.951 . S
H834 C859 0.951 . S
H835 C861 0.950 . S
H836 C862 0.950 . S
H837 C864 0.950 . S
H838 C867 0.950 . S
H839 C868 0.950 . S
H840 C870 0.950 . S
H841 C871 0.950 . S
C842 H824 0.951 . S
C842 C843 1.366 . S
C842 C844 1.388 . S
C843 C842 1.366 . S
C843 C847 1.385 . S
C844 H825 0.951 . S
C844 C842 1.388 . S
C844 C845 1.366 . S
C845 C844 1.366 . S
C845 C846 1.414 . S
C845 C848 1.499 . S
C846 H826 0.950 . S
C846 C845 1.414 . S
C846 C847 1.374 . S
C847 H827 0.950 . S
C847 C843 1.385 . S
C847 C846 1.374 . S
C848 C845 1.499 . S
C848 C849 1.373 . S
C848 C850 1.389 . S
C849 H828 0.950 . S
C849 C848 1.373 . S
C849 C865 1.377 . S
C850 C848 1.389 . S
C850 C851 1.524 . S
C850 C864 1.377 . S
C851 C850 1.524 . S
C851 C852 1.397 . S
C851 C856 1.363 . S
C852 H829 0.950 . S
C852 C851 1.397 . S
C852 C853 1.334 . S
C853 H830 0.950 . S
C853 C852 1.334 . S
C853 C854 1.287 . S
C854 C853 1.287 . S
C854 C855 1.524 . S
C854 H873 0.913 . S
C855 H831 0.950 . S
C855 C854 1.524 . S
C855 C856 1.415 . S
C856 H832 0.950 . S
C856 C851 1.363 . S
C856 C855 1.415 . S
C857 H833 0.951 . S
C857 C858 1.366 . S
C857 C859 1.388 . S
C858 C857 1.366 . S
C858 C862 1.385 . S
C859 H834 0.951 . S
C859 C857 1.388 . S
C859 C860 1.366 . S
C860 C859 1.366 . S
C860 C861 1.414 . S
C860 C863 1.499 . S
C861 H835 0.950 . S
C861 C860 1.414 . S
C861 C862 1.374 . S
C862 H836 0.950 . S
C862 C858 1.385 . S
C862 C861 1.374 . S
C863 C860 1.499 . S
C863 C864 1.373 . S
C863 C865 1.389 . S
C864 H837 0.950 . S
C864 C850 1.377 . S
C864 C863 1.373 . S
C865 C849 1.377 . S
C865 C863 1.389 . S
C865 C866 1.524 . S
C866 C865 1.524 . S
C866 C867 1.397 . S
C866 C871 1.363 . S
C867 H838 0.950 . S
C867 C866 1.397 . S
C867 C868 1.334 . S
C868 H839 0.950 . S
C868 C867 1.334 . S
C868 C869 1.287 . S
C869 C868 1.287 . S
C869 C870 1.524 . S
C869 H872 0.999 . S
C870 H840 0.950 . S
C870 C869 1.524 . S
C870 C871 1.415 . S
C871 H841 0.950 . S
C871 C866 1.363 . S
C871 C870 1.415 . S
H872 C869 0.999 . S
H873 C854 0.913 . S
H874 C892 0.951 . S
H875 C894 0.951 . S
H876 C896 0.950 . S
H877 C897 0.950 . S
H878 C899 0.950 . S
H879 C902 0.950 . S
H880 C903 0.950 . S
H881 C905 0.950 . S
H882 C906 0.950 . S
H883 C907 0.951 . S
H884 C909 0.951 . S
H885 C911 0.950 . S
H886 C912 0.950 . S
H887 C914 0.950 . S
H888 C917 0.950 . S
H889 C918 0.950 . S
H890 C920 0.950 . S
H891 C921 0.950 . S
C892 H874 0.951 . S
C892 C893 1.366 . S
C892 C894 1.388 . S
C893 C892 1.366 . S
C893 C897 1.385 . S
C894 H875 0.951 . S
C894 C892 1.388 . S
C894 C895 1.366 . S
C895 C894 1.366 . S
C895 C896 1.414 . S
C895 C898 1.499 . S
C896 H876 0.950 . S
C896 C895 1.414 . S
C896 C897 1.374 . S
C897 H877 0.950 . S
C897 C893 1.385 . S
C897 C896 1.374 . S
C898 C895 1.499 . S
C898 C899 1.373 . S
C898 C900 1.389 . S
C899 H878 0.950 . S
C899 C898 1.373 . S
C899 C915 1.377 . S
C900 C898 1.389 . S
C900 C901 1.524 . S
C900 C914 1.377 . S
C901 C900 1.524 . S
C901 C902 1.397 . S
C901 C906 1.363 . S
C902 H879 0.950 . S
C902 C901 1.397 . S
C902 C903 1.334 . S
C903 H880 0.950 . S
C903 C902 1.334 . S
C903 C904 1.287 . S
C904 C903 1.287 . S
C904 C905 1.524 . S
C904 H923 0.913 . S
C905 H881 0.950 . S
C905 C904 1.524 . S
C905 C906 1.415 . S
C906 H882 0.950 . S
C906 C901 1.363 . S
C906 C905 1.415 . S
C907 H883 0.951 . S
C907 C908 1.366 . S
C907 C909 1.388 . S
C908 C907 1.366 . S
C908 C912 1.385 . S
C909 H884 0.951 . S
C909 C907 1.388 . S
C909 C910 1.366 . S
C910 C909 1.366 . S
C910 C911 1.414 . S
C910 C913 1.499 . S
C911 H885 0.950 . S
C911 C910 1.414 . S
C911 C912 1.374 . S
C912 H886 0.950 . S
C912 C908 1.385 . S
C912 C911 1.374 . S
C913 C910 1.499 . S
C913 C914 1.373 . S
C913 C915 1.389 . S
C914 H887 0.950 . S
C914 C900 1.377 . S
C914 C913 1.373 . S
C915 C899 1.377 . S
C915 C913 1.389 . S
C915 C916 1.524 . S
C916 C915 1.524 . S
C916 C917 1.397 . S
C916 C921 1.363 . S
C917 H888 0.950 . S
C917 C916 1.397 . S
C917 C918 1.334 . S
C918 H889 0.950 . S
C918 C917 1.334 . S
C918 C919 1.287 . S
C919 C918 1.287 . S
C919 C920 1.524 . S
C919 H922 0.999 . S
C920 H890 0.950 . S
C920 C919 1.524 . S
C920 C921 1.415 . S
C921 H891 0.950 . S
C921 C916 1.363 . S
C921 C920 1.415 . S
H922 C919 0.999 . S
H923 C904 0.913 . S
H924 C942 0.951 . S
H925 C944 0.951 . S
H926 C946 0.950 . S
H927 C947 0.950 . S
H928 C949 0.950 . S
H929 C952 0.950 . S
H930 C953 0.950 . S
H931 C955 0.950 . S
H932 C956 0.950 1_554 S
H933 C957 0.951 . S
H934 C959 0.951 . S
H935 C961 0.950 . S
H936 C962 0.950 . S
H937 C964 0.950 . S
H938 C967 0.950 . S
H939 C968 0.950 . S
H940 C970 0.950 . S
H941 C971 0.950 1_556 S
C942 H924 0.951 . S
C942 C943 1.366 . S
C942 C944 1.388 . S
C943 C942 1.366 . S
C943 C947 1.385 . S
C944 H925 0.951 . S
C944 C942 1.388 . S
C944 C945 1.366 . S
C945 C944 1.366 . S
C945 C946 1.414 . S
C945 C948 1.499 . S
C946 H926 0.950 . S
C946 C945 1.414 . S
C946 C947 1.374 . S
C947 H927 0.950 . S
C947 C943 1.385 . S
C947 C946 1.374 . S
C948 C945 1.499 . S
C948 C949 1.373 . S
C948 C950 1.389 . S
C949 H928 0.950 . S
C949 C948 1.373 . S
C949 C965 1.377 1_556 S
C950 C948 1.389 . S
C950 C951 1.524 . S
C950 C964 1.377 1_556 S
C951 C950 1.524 . S
C951 C952 1.397 . S
C951 C956 1.363 . S
C952 H929 0.950 . S
C952 C951 1.397 . S
C952 C953 1.334 . S
C953 H930 0.950 . S
C953 C952 1.334 . S
C953 C954 1.287 . S
C954 C953 1.287 . S
C954 C955 1.524 . S
C954 H973 0.913 . S
C955 H931 0.950 . S
C955 C954 1.524 . S
C955 C956 1.415 . S
C956 H932 0.950 1_556 S
C956 C951 1.363 . S
C956 C955 1.415 . S
C957 H933 0.951 . S
C957 C958 1.366 . S
C957 C959 1.388 . S
C958 C957 1.366 . S
C958 C962 1.385 . S
C959 H934 0.951 . S
C959 C957 1.388 . S
C959 C960 1.366 . S
C960 C959 1.366 . S
C960 C961 1.414 . S
C960 C963 1.499 . S
C961 H935 0.950 . S
C961 C960 1.414 . S
C961 C962 1.374 . S
C962 H936 0.950 . S
C962 C958 1.385 . S
C962 C961 1.374 . S
C963 C960 1.499 . S
C963 C964 1.373 . S
C963 C965 1.389 . S
C964 H937 0.950 . S
C964 C950 1.377 1_554 S
C964 C963 1.373 . S
C965 C949 1.377 1_554 S
C965 C963 1.389 . S
C965 C966 1.524 . S
C966 C965 1.524 . S
C966 C967 1.397 . S
C966 C971 1.363 . S
C967 H938 0.950 . S
C967 C966 1.397 . S
C967 C968 1.334 . S
C968 H939 0.950 . S
C968 C967 1.334 . S
C968 C969 1.287 . S
C969 C968 1.287 . S
C969 C970 1.524 . S
C969 H972 0.999 . S
C970 H940 0.950 . S
C970 C969 1.524 . S
C970 C971 1.415 . S
C971 H941 0.950 1_554 S
C971 C966 1.363 . S
C971 C970 1.415 . S
H972 C969 0.999 . S
H973 C954 0.913 . S
H974 C992 0.951 . S
H975 C994 0.951 . S
H976 C996 0.950 . S
H977 C997 0.950 . S
H978 C999 0.950 . S
H979 C1002 0.950 . S
H980 C1003 0.950 . S
H981 C1005 0.950 . S
H982 C1006 0.950 . S
H983 C1007 0.951 . S
H984 C1009 0.951 . S
H985 C1011 0.950 . S
H986 C1012 0.950 . S
H987 C1014 0.950 . S
H988 C1017 0.950 . S
H989 C1018 0.950 . S
H990 C1020 0.950 . S
H991 C1021 0.950 . S
C992 H974 0.951 . S
C992 C993 1.366 . S
C992 C994 1.388 . S
C993 C992 1.366 . S
C993 C997 1.385 1_455 S
C994 H975 0.951 . S
C994 C992 1.388 . S
C994 C995 1.366 . S
C995 C994 1.366 . S
C995 C996 1.414 1_455 S
C995 C998 1.499 . S
C996 H976 0.950 . S
C996 C995 1.414 1_655 S
C996 C997 1.374 . S
C997 H977 0.950 . S
C997 C993 1.385 1_655 S
C997 C996 1.374 . S
C998 C995 1.499 . S
C998 C999 1.373 1_455 S
C998 C1000 1.389 . S
C999 H978 0.950 . S
C999 C998 1.373 1_655 S
C999 C1015 1.377 . S
C1000 C998 1.389 . S
C1000 C1001 1.524 . S
C1000 C1014 1.377 . S
C1001 C1000 1.524 . S
C1001 C1002 1.397 . S
C1001 C1006 1.363 . S
C1002 H979 0.950 . S
C1002 C1001 1.397 . S
C1002 C1003 1.334 . S
C1003 H980 0.950 . S
C1003 C1002 1.334 . S
C1003 C1004 1.287 . S
C1004 C1003 1.287 . S
C1004 C1005 1.524 . S
C1004 H1023 0.913 . S
C1005 H981 0.950 . S
C1005 C1004 1.524 . S
C1005 C1006 1.415 . S
C1006 H982 0.950 . S
C1006 C1001 1.363 . S
C1006 C1005 1.415 . S
C1007 H983 0.951 . S
C1007 C1008 1.366 1_655 S
C1007 C1009 1.388 . S
C1008 C1007 1.366 1_455 S
C1008 C1012 1.385 . S
C1009 H984 0.951 . S
C1009 C1007 1.388 . S
C1009 C1010 1.366 1_655 S
C1010 C1009 1.366 1_455 S
C1010 C1011 1.414 . S
C1010 C1013 1.499 . S
C1011 H985 0.950 . S
C1011 C1010 1.414 . S
C1011 C1012 1.374 . S
C1012 H986 0.950 . S
C1012 C1008 1.385 . S
C1012 C1011 1.374 . S
C1013 C1010 1.499 . S
C1013 C1014 1.373 . S
C1013 C1015 1.389 1_455 S
C1014 H987 0.950 . S
C1014 C1000 1.377 . S
C1014 C1013 1.373 . S
C1015 C999 1.377 . S
C1015 C1013 1.389 1_655 S
C1015 C1016 1.524 . S
C1016 C1015 1.524 . S
C1016 C1017 1.397 . S
C1016 C1021 1.363 . S
C1017 H988 0.950 . S
C1017 C1016 1.397 . S
C1017 C1018 1.334 . S
C1018 H989 0.950 . S
C1018 C1017 1.334 . S
C1018 C1019 1.287 . S
C1019 C1018 1.287 . S
C1019 C1020 1.524 . S
C1019 H1022 0.999 . S
C1020 H990 0.950 . S
C1020 C1019 1.524 . S
C1020 C1021 1.415 . S
C1021 H991 0.950 . S
C1021 C1016 1.363 . S
C1021 C1020 1.415 . S
H1022 C1019 0.999 . S
H1023 C1004 0.913 . S
H1024 C1042 0.951 . S
H1025 C1044 0.951 . S
H1026 C1046 0.950 . S
H1027 C1047 0.950 . S
H1028 C1049 0.950 . S
H1029 C1052 0.950 . S
H1030 C1053 0.950 . S
H1031 C1055 0.950 . S
H1032 C1056 0.950 . S
H1033 C1057 0.971 . S
H1034 C1059 0.951 . S
H1035 C1061 0.950 . S
H1036 C1062 0.950 . S
H1037 C1064 0.950 . S
H1038 C1067 0.950 . S
H1039 C1068 0.950 . S
H1040 C1070 0.950 . S
H1041 C1071 0.950 . S
C1042 H1024 0.951 . S
C1042 C1043 1.366 . S
C1042 C1044 1.388 . S
C1043 C1042 1.366 . S
C1043 C1047 1.385 . S
C1044 H1025 0.951 . S
C1044 C1042 1.388 . S
C1044 C1045 1.366 . S
C1045 C1044 1.366 . S
C1045 C1046 1.414 . S
C1045 C1048 1.499 . S
C1046 H1026 0.950 . S
C1046 C1045 1.414 . S
C1046 C1047 1.374 . S
C1047 H1027 0.950 . S
C1047 C1043 1.385 . S
C1047 C1046 1.374 . S
C1048 C1045 1.499 . S
C1048 C1049 1.373 . S
C1048 C1050 1.389 . S
C1049 H1028 0.950 . S
C1049 C1048 1.373 . S
C1049 C1065 1.377 . S
C1050 C1048 1.389 . S
C1050 C1051 1.524 . S
C1050 C1064 1.377 . S
C1051 C1050 1.524 . S
C1051 C1052 1.397 . S
C1051 C1056 1.363 . S
C1052 H1029 0.950 . S
C1052 C1051 1.397 . S
C1052 C1053 1.334 . S
C1053 H1030 0.950 . S
C1053 C1052 1.334 . S
C1053 C1054 1.287 . S
C1054 C1053 1.287 . S
C1054 C1055 1.524 . S
C1054 H1073 0.913 . S
C1055 H1031 0.950 . S
C1055 C1054 1.524 . S
C1055 C1056 1.415 . S
C1056 H1032 0.950 . S
C1056 C1051 1.363 . S
C1056 C1055 1.415 . S
C1057 H1033 0.971 . S
C1057 C1058 1.366 . S
C1057 C1059 1.388 . S
C1058 C1057 1.366 . S
C1058 C1062 1.385 . S
C1059 H1034 0.951 . S
C1059 C1057 1.388 . S
C1059 C1060 1.366 . S
C1060 C1059 1.366 . S
C1060 C1061 1.414 . S
C1060 C1063 1.499 . S
C1061 H1035 0.950 . S
C1061 C1060 1.414 . S
C1061 C1062 1.374 . S
C1062 H1036 0.950 . S
C1062 C1058 1.385 . S
C1062 C1061 1.374 . S
C1063 C1060 1.499 . S
C1063 C1064 1.373 . S
C1063 C1065 1.389 . S
C1064 H1037 0.950 . S
C1064 C1050 1.377 . S
C1064 C1063 1.373 . S
C1065 C1049 1.377 . S
C1065 C1063 1.389 . S
C1065 C1066 1.524 . S
C1066 C1065 1.524 . S
C1066 C1067 1.397 . S
C1066 C1071 1.363 . S
C1067 H1038 0.950 . S
C1067 C1066 1.397 . S
C1067 C1068 1.334 1_565 S
C1068 H1039 0.950 . S
C1068 C1067 1.334 1_545 S
C1068 C1069 1.287 . S
C1069 C1068 1.287 . S
C1069 C1070 1.524 . S
C1069 H1072 0.999 . S
C1070 H1040 0.950 . S
C1070 C1069 1.524 . S
C1070 C1071 1.415 1_545 S
C1071 H1041 0.950 . S
C1071 C1066 1.363 . S
C1071 C1070 1.415 1_565 S
H1072 C1069 0.999 . S
H1073 C1054 0.913 . S
H1074 C1092 0.951 . S
H1075 C1094 0.951 . S
H1076 C1096 0.950 . S
H1077 C1097 0.950 . S
H1078 C1099 0.950 . S
H1079 C1102 0.950 . S
H1080 C1103 0.950 . S
H1081 C1105 0.950 . S
H1082 C1106 0.950 . S
H1083 C1107 0.951 . S
H1084 C1109 0.951 . S
H1085 C1111 0.950 . S
H1086 C1112 0.950 . S
H1087 C1114 0.950 . S
H1088 C1117 0.950 . S
H1089 C1118 0.950 1_545 S
H1090 C1120 0.950 . S
H1091 C1121 0.950 . S
C1092 H1074 0.951 . S
C1092 C1093 1.366 . S
C1092 C1094 1.388 . S
C1093 C1092 1.366 . S
C1093 C1097 1.385 . S
C1094 H1075 0.951 . S
C1094 C1092 1.388 . S
C1094 C1095 1.366 . S
C1095 C1094 1.366 . S
C1095 C1096 1.414 . S
C1095 C1098 1.499 . S
C1096 H1076 0.950 . S
C1096 C1095 1.414 . S
C1096 C1097 1.374 . S
C1097 H1077 0.950 . S
C1097 C1093 1.385 . S
C1097 C1096 1.374 . S
C1098 C1095 1.499 . S
C1098 C1099 1.373 . S
C1098 C1100 1.389 . S
C1099 H1078 0.950 . S
C1099 C1098 1.373 . S
C1099 C1115 1.377 . S
C1100 C1098 1.389 . S
C1100 C1101 1.524 . S
C1100 C1114 1.377 . S
C1101 C1100 1.524 . S
C1101 C1102 1.397 . S
C1101 C1106 1.363 . S
C1102 H1079 0.950 . S
C1102 C1101 1.397 . S
C1102 C1103 1.334 . S
C1103 H1080 0.950 . S
C1103 C1102 1.334 . S
C1103 C1104 1.287 . S
C1104 C1103 1.287 . S
C1104 C1105 1.524 . S
C1104 H1123 0.913 . S
C1105 H1081 0.950 . S
C1105 C1104 1.524 . S
C1105 C1106 1.415 . S
C1106 H1082 0.950 . S
C1106 C1101 1.363 . S
C1106 C1105 1.415 . S
C1107 H1083 0.951 . S
C1107 C1108 1.366 . S
C1107 C1109 1.388 . S
C1108 C1107 1.366 . S
C1108 C1112 1.385 . S
C1109 H1084 0.951 . S
C1109 C1107 1.388 . S
C1109 C1110 1.366 . S
C1110 C1109 1.366 . S
C1110 C1111 1.414 . S
C1110 C1113 1.499 . S
C1111 H1085 0.950 . S
C1111 C1110 1.414 . S
C1111 C1112 1.374 . S
C1112 H1086 0.950 . S
C1112 C1108 1.385 . S
C1112 C1111 1.374 . S
C1113 C1110 1.499 . S
C1113 C1114 1.373 . S
C1113 C1115 1.389 . S
C1114 H1087 0.950 . S
C1114 C1100 1.377 . S
C1114 C1113 1.373 . S
C1115 C1099 1.377 . S
C1115 C1113 1.389 . S
C1115 C1116 1.524 . S
C1116 C1115 1.524 . S
C1116 C1117 1.397 . S
C1116 C1121 1.363 . S
C1117 H1088 0.950 . S
C1117 C1116 1.397 . S
C1117 C1118 1.334 . S
C1118 H1089 0.950 1_565 S
C1118 C1117 1.334 . S
C1118 C1119 1.287 . S
C1119 C1118 1.287 . S
C1119 C1120 1.524 . S
C1119 H1122 0.988 1_565 S
C1120 H1090 0.950 . S
C1120 C1119 1.524 . S
C1120 C1121 1.415 . S
C1121 H1091 0.950 . S
C1121 C1116 1.363 . S
C1121 C1120 1.415 . S
H1122 C1119 0.988 1_545 S
H1123 C1104 0.913 . S
H1124 C1142 0.951 1_565 S
H1125 C1144 0.951 . S
H1126 C1146 0.950 . S
H1127 C1147 0.950 . S
H1128 C1149 0.950 . S
H1129 C1152 0.950 . S
H1130 C1153 0.950 . S
H1131 C1155 0.950 . S
H1132 C1156 0.950 . S
H1133 C1157 0.951 . S
H1134 C1159 0.951 . S
H1135 C1161 0.950 . S
H1136 C1162 0.950 . S
H1137 C1164 0.950 . S
H1138 C1167 0.950 . S
H1139 C1168 0.950 . S
H1140 C1170 0.950 . S
H1141 C1171 0.950 . S
C1142 H1124 0.951 1_545 S
C1142 C1143 1.366 . S
C1142 C1144 1.388 . S
C1143 C1142 1.366 . S
C1143 C1147 1.385 . S
C1144 H1125 0.951 . S
C1144 C1142 1.388 . S
C1144 C1145 1.366 . S
C1145 C1144 1.366 . S
C1145 C1146 1.414 . S
C1145 C1148 1.499 . S
C1146 H1126 0.950 . S
C1146 C1145 1.414 . S
C1146 C1147 1.374 . S
C1147 H1127 0.950 . S
C1147 C1143 1.385 . S
C1147 C1146 1.374 . S
C1148 C1145 1.499 . S
C1148 C1149 1.373 . S
C1148 C1150 1.389 . S
C1149 H1128 0.950 . S
C1149 C1148 1.373 . S
C1149 C1165 1.377 . S
C1150 C1148 1.389 . S
C1150 C1151 1.524 . S
C1150 C1164 1.377 . S
C1151 C1150 1.524 . S
C1151 C1152 1.397 . S
C1151 C1156 1.363 . S
C1152 H1129 0.950 . S
C1152 C1151 1.397 . S
C1152 C1153 1.334 . S
C1153 H1130 0.950 . S
C1153 C1152 1.334 . S
C1153 C1154 1.287 . S
C1154 C1153 1.287 . S
C1154 C1155 1.524 . S
C1154 H1173 0.913 . S
C1155 H1131 0.950 . S
C1155 C1154 1.524 . S
C1155 C1156 1.415 . S
C1156 H1132 0.950 . S
C1156 C1151 1.363 . S
C1156 C1155 1.415 . S
C1157 H1133 0.951 . S
C1157 C1158 1.366 . S
C1157 C1159 1.388 . S
C1158 C1157 1.366 . S
C1158 C1162 1.385 . S
C1159 H1134 0.951 . S
C1159 C1157 1.388 . S
C1159 C1160 1.366 . S
C1160 C1159 1.366 . S
C1160 C1161 1.414 . S
C1160 C1163 1.499 . S
C1161 H1135 0.950 . S
C1161 C1160 1.414 . S
C1161 C1162 1.374 . S
C1162 H1136 0.950 . S
C1162 C1158 1.385 . S
C1162 C1161 1.374 . S
C1163 C1160 1.499 . S
C1163 C1164 1.373 . S
C1163 C1165 1.389 . S
C1164 H1137 0.950 . S
C1164 C1150 1.377 . S
C1164 C1163 1.373 . S
C1165 C1149 1.377 . S
C1165 C1163 1.389 . S
C1165 C1166 1.524 . S
C1166 C1165 1.524 . S
C1166 C1167 1.397 . S
C1166 C1171 1.363 . S
C1167 H1138 0.950 . S
C1167 C1166 1.397 . S
C1167 C1168 1.334 . S
C1168 H1139 0.950 . S
C1168 C1167 1.334 . S
C1168 C1169 1.287 . S
C1169 C1168 1.287 . S
C1169 C1170 1.524 . S
C1169 H1172 0.999 . S
C1170 H1140 0.950 . S
C1170 C1169 1.524 . S
C1170 C1171 1.415 . S
C1171 H1141 0.950 . S
C1171 C1166 1.363 . S
C1171 C1170 1.415 . S
H1172 C1169 0.999 . S
H1173 C1154 0.913 . S
H1174 C1192 0.951 1_565 S
H1175 C1194 0.951 . S
H1176 C1196 0.950 . S
H1177 C1197 0.950 . S
H1178 C1199 0.950 . S
H1179 C1202 0.950 . S
H1180 C1203 0.950 . S
H1181 C1205 0.950 . S
H1182 C1206 0.950 . S
H1183 C1207 0.951 . S
H1184 C1209 0.951 . S
H1185 C1211 0.950 . S
H1186 C1212 0.950 . S
H1187 C1214 0.950 . S
H1188 C1217 0.950 . S
H1189 C1218 0.950 . S
H1190 C1220 0.950 . S
H1191 C1221 0.950 . S
C1192 H1174 0.951 1_545 S
C1192 C1193 1.366 . S
C1192 C1194 1.388 . S
C1193 C1192 1.366 . S
C1193 C1197 1.385 . S
C1194 H1175 0.951 . S
C1194 C1192 1.388 . S
C1194 C1195 1.366 . S
C1195 C1194 1.366 . S
C1195 C1196 1.414 . S
C1195 C1198 1.499 . S
C1196 H1176 0.950 . S
C1196 C1195 1.414 . S
C1196 C1197 1.374 . S
C1197 H1177 0.950 . S
C1197 C1193 1.385 . S
C1197 C1196 1.374 . S
C1198 C1195 1.499 . S
C1198 C1199 1.373 . S
C1198 C1200 1.389 . S
C1199 H1178 0.950 . S
C1199 C1198 1.373 . S
C1199 C1215 1.377 . S
C1200 C1198 1.389 . S
C1200 C1201 1.524 . S
C1200 C1214 1.377 . S
C1201 C1200 1.524 . S
C1201 C1202 1.397 . S
C1201 C1206 1.363 . S
C1202 H1179 0.950 . S
C1202 C1201 1.397 . S
C1202 C1203 1.334 . S
C1203 H1180 0.950 . S
C1203 C1202 1.334 . S
C1203 C1204 1.287 . S
C1204 C1203 1.287 . S
C1204 C1205 1.524 . S
C1204 H1223 0.913 . S
C1205 H1181 0.950 . S
C1205 C1204 1.524 . S
C1205 C1206 1.415 . S
C1206 H1182 0.950 . S
C1206 C1201 1.363 . S
C1206 C1205 1.415 . S
C1207 H1183 0.951 . S
C1207 C1208 1.366 . S
C1207 C1209 1.388 . S
C1208 C1207 1.366 . S
C1208 C1212 1.385 . S
C1209 H1184 0.951 . S
C1209 C1207 1.388 . S
C1209 C1210 1.366 . S
C1210 C1209 1.366 . S
C1210 C1211 1.414 . S
C1210 C1213 1.499 . S
C1211 H1185 0.950 . S
C1211 C1210 1.414 . S
C1211 C1212 1.374 . S
C1212 H1186 0.950 . S
C1212 C1208 1.385 . S
C1212 C1211 1.374 . S
C1213 C1210 1.499 . S
C1213 C1214 1.373 . S
C1213 C1215 1.389 . S
C1214 H1187 0.950 . S
C1214 C1200 1.377 . S
C1214 C1213 1.373 . S
C1215 C1199 1.377 . S
C1215 C1213 1.389 . S
C1215 C1216 1.524 . S
C1216 C1215 1.524 . S
C1216 C1217 1.397 . S
C1216 C1221 1.363 . S
C1217 H1188 0.950 . S
C1217 C1216 1.397 . S
C1217 C1218 1.334 . S
C1218 H1189 0.950 . S
C1218 C1217 1.334 . S
C1218 C1219 1.287 . S
C1219 C1218 1.287 . S
C1219 C1220 1.524 . S
C1219 H1222 0.999 . S
C1220 H1190 0.950 . S
C1220 C1219 1.524 . S
C1220 C1221 1.415 . S
C1221 H1191 0.950 . S
C1221 C1216 1.363 . S
C1221 C1220 1.415 . S
H1222 C1219 0.999 . S
H1223 C1204 0.913 . S
H1224 C1242 0.974 . S
H1225 C1244 0.951 . S
H1226 C1246 0.950 . S
H1227 C1247 0.950 . S
H1228 C1249 0.950 . S
H1229 C1252 0.950 . S
H1230 C1253 0.950 . S
H1231 C1255 0.950 . S
H1232 C1256 0.950 . S
H1233 C1257 0.951 . S
H1234 C1259 0.951 . S
H1235 C1261 0.950 . S
H1236 C1262 0.950 . S
H1237 C1264 0.950 . S
H1238 C1267 0.950 . S
H1239 C1268 0.950 . S
H1240 C1270 0.950 . S
H1241 C1271 0.950 . S
C1242 H1224 0.974 . S
C1242 C1243 1.366 . S
C1242 C1244 1.388 . S
C1243 C1242 1.366 . S
C1243 C1247 1.385 . S
C1244 H1225 0.951 . S
C1244 C1242 1.388 . S
C1244 C1245 1.366 . S
C1245 C1244 1.366 . S
C1245 C1246 1.414 . S
C1245 C1248 1.499 . S
C1246 H1226 0.950 . S
C1246 C1245 1.414 . S
C1246 C1247 1.374 . S
C1247 H1227 0.950 . S
C1247 C1243 1.385 . S
C1247 C1246 1.374 . S
C1248 C1245 1.499 . S
C1248 C1249 1.373 . S
C1248 C1250 1.389 . S
C1249 H1228 0.950 . S
C1249 C1248 1.373 . S
C1249 C1265 1.377 . S
C1250 C1248 1.389 . S
C1250 C1251 1.524 . S
C1250 C1264 1.377 . S
C1251 C1250 1.524 . S
C1251 C1252 1.397 . S
C1251 C1256 1.363 . S
C1252 H1229 0.950 . S
C1252 C1251 1.397 . S
C1252 C1253 1.334 . S
C1253 H1230 0.950 . S
C1253 C1252 1.334 . S
C1253 C1254 1.287 . S
C1254 C1253 1.287 . S
C1254 C1255 1.524 . S
C1254 H1273 0.913 . S
C1255 H1231 0.950 . S
C1255 C1254 1.524 . S
C1255 C1256 1.415 . S
C1256 H1232 0.950 . S
C1256 C1251 1.363 . S
C1256 C1255 1.415 . S
C1257 H1233 0.951 . S
C1257 C1258 1.366 . S
C1257 C1259 1.388 . S
C1258 C1257 1.366 . S
C1258 C1262 1.385 . S
C1259 H1234 0.951 . S
C1259 C1257 1.388 . S
C1259 C1260 1.366 . S
C1260 C1259 1.366 . S
C1260 C1261 1.414 . S
C1260 C1263 1.499 . S
C1261 H1235 0.950 . S
C1261 C1260 1.414 . S
C1261 C1262 1.374 . S
C1262 H1236 0.950 . S
C1262 C1258 1.385 . S
C1262 C1261 1.374 . S
C1263 C1260 1.499 . S
C1263 C1264 1.373 . S
C1263 C1265 1.389 . S
C1264 H1237 0.950 . S
C1264 C1250 1.377 . S
C1264 C1263 1.373 . S
C1265 C1249 1.377 . S
C1265 C1263 1.389 . S
C1265 C1266 1.524 . S
C1266 C1265 1.524 . S
C1266 C1267 1.397 . S
C1266 C1271 1.363 . S
C1267 H1238 0.950 . S
C1267 C1266 1.397 . S
C1267 C1268 1.334 . S
C1268 H1239 0.950 . S
C1268 C1267 1.334 . S
C1268 C1269 1.287 . S
C1269 C1268 1.287 . S
C1269 C1270 1.524 . S
C1269 H1272 0.999 . S
C1270 H1240 0.950 . S
C1270 C1269 1.524 . S
C1270 C1271 1.415 . S
C1271 H1241 0.950 . S
C1271 C1266 1.363 . S
C1271 C1270 1.415 . S
H1272 C1269 0.999 . S
H1273 C1254 0.913 . S
H1274 C1292 0.951 1_565 S
H1275 C1294 0.951 . S
H1276 C1296 0.950 . S
H1277 C1297 0.950 . S
H1278 C1299 0.950 . S
H1279 C1302 0.950 . S
H1280 C1303 0.950 . S
H1281 C1305 0.950 . S
H1282 C1306 0.950 . S
H1283 C1307 0.951 . S
H1284 C1309 0.951 . S
H1285 C1311 0.950 . S
H1286 C1312 0.950 . S
H1287 C1314 0.950 . S
H1288 C1317 0.950 . S
H1289 C1318 0.950 . S
H1290 C1320 0.950 . S
H1291 C1321 0.950 . S
C1292 H1274 0.951 1_545 S
C1292 C1293 1.366 . S
C1292 C1294 1.388 . S
C1293 C1292 1.366 . S
C1293 C1297 1.385 . S
C1294 H1275 0.951 . S
C1294 C1292 1.388 . S
C1294 C1295 1.366 . S
C1295 C1294 1.366 . S
C1295 C1296 1.414 . S
C1295 C1298 1.499 . S
C1296 H1276 0.950 . S
C1296 C1295 1.414 . S
C1296 C1297 1.374 . S
C1297 H1277 0.950 . S
C1297 C1293 1.385 . S
C1297 C1296 1.374 . S
C1298 C1295 1.499 . S
C1298 C1299 1.373 . S
C1298 C1300 1.389 . S
C1299 H1278 0.950 . S
C1299 C1298 1.373 . S
C1299 C1315 1.377 . S
C1300 C1298 1.389 . S
C1300 C1301 1.524 . S
C1300 C1314 1.377 . S
C1301 C1300 1.524 . S
C1301 C1302 1.397 . S
C1301 C1306 1.363 . S
C1302 H1279 0.950 . S
C1302 C1301 1.397 . S
C1302 C1303 1.334 . S
C1303 H1280 0.950 . S
C1303 C1302 1.334 . S
C1303 C1304 1.287 . S
C1304 C1303 1.287 . S
C1304 C1305 1.524 . S
C1304 H1323 0.913 . S
C1305 H1281 0.950 . S
C1305 C1304 1.524 . S
C1305 C1306 1.415 . S
C1306 H1282 0.950 . S
C1306 C1301 1.363 . S
C1306 C1305 1.415 . S
C1307 H1283 0.951 . S
C1307 C1308 1.366 . S
C1307 C1309 1.388 . S
C1308 C1307 1.366 . S
C1308 C1312 1.385 . S
C1309 H1284 0.951 . S
C1309 C1307 1.388 . S
C1309 C1310 1.366 . S
C1310 C1309 1.366 . S
C1310 C1311 1.414 . S
C1310 C1313 1.499 . S
C1311 H1285 0.950 . S
C1311 C1310 1.414 . S
C1311 C1312 1.374 . S
C1312 H1286 0.950 . S
C1312 C1308 1.385 . S
C1312 C1311 1.374 . S
C1313 C1310 1.499 . S
C1313 C1314 1.373 . S
C1313 C1315 1.389 . S
C1314 H1287 0.950 . S
C1314 C1300 1.377 . S
C1314 C1313 1.373 . S
C1315 C1299 1.377 . S
C1315 C1313 1.389 . S
C1315 C1316 1.524 . S
C1316 C1315 1.524 . S
C1316 C1317 1.397 . S
C1316 C1321 1.363 . S
C1317 H1288 0.950 . S
C1317 C1316 1.397 . S
C1317 C1318 1.334 . S
C1318 H1289 0.950 . S
C1318 C1317 1.334 . S
C1318 C1319 1.287 . S
C1319 C1318 1.287 . S
C1319 C1320 1.524 . S
C1319 H1322 0.999 . S
C1320 H1290 0.950 . S
C1320 C1319 1.524 . S
C1320 C1321 1.415 . S
C1321 H1291 0.950 . S
C1321 C1316 1.363 . S
C1321 C1320 1.415 . S
H1322 C1319 0.999 . S
H1323 C1304 0.913 . S
H1324 C1342 0.951 . S
H1325 C1344 0.951 . S
H1326 C1346 0.950 . S
H1327 C1347 0.950 . S
H1328 C1349 0.950 . S
H1329 C1352 0.950 . S
H1330 C1353 0.950 . S
H1331 C1355 0.950 . S
H1332 C1356 0.950 . S
H1333 C1357 0.951 1_545 S
H1334 C1359 0.951 . S
H1335 C1361 0.950 . S
H1336 C1362 0.950 . S
H1337 C1364 0.950 . S
H1338 C1367 0.950 . S
H1339 C1368 0.950 . S
H1340 C1370 0.950 1_545 S
H1341 C1371 0.950 . S
C1342 H1324 0.951 . S
C1342 C1343 1.366 . S
C1342 C1344 1.388 . S
C1343 C1342 1.366 . S
C1343 C1347 1.385 . S
C1344 H1325 0.951 . S
C1344 C1342 1.388 . S
C1344 C1345 1.366 . S
C1345 C1344 1.366 . S
C1345 C1346 1.414 . S
C1345 C1348 1.499 . S
C1346 H1326 0.950 . S
C1346 C1345 1.414 . S
C1346 C1347 1.374 . S
C1347 H1327 0.950 . S
C1347 C1343 1.385 . S
C1347 C1346 1.374 . S
C1348 C1345 1.499 . S
C1348 C1349 1.373 . S
C1348 C1350 1.389 . S
C1349 H1328 0.950 . S
C1349 C1348 1.373 . S
C1349 C1365 1.377 . S
C1350 C1348 1.389 . S
C1350 C1351 1.524 . S
C1350 C1364 1.377 . S
C1351 C1350 1.524 . S
C1351 C1352 1.397 . S
C1351 C1356 1.363 . S
C1352 H1329 0.950 . S
C1352 C1351 1.397 . S
C1352 C1353 1.334 . S
C1353 H1330 0.950 . S
C1353 C1352 1.334 . S
C1353 C1354 1.287 . S
C1354 C1353 1.287 . S
C1354 C1355 1.524 . S
C1354 H1373 0.913 . S
C1355 H1331 0.950 . S
C1355 C1354 1.524 . S
C1355 C1356 1.415 . S
C1356 H1332 0.950 . S
C1356 C1351 1.363 . S
C1356 C1355 1.415 . S
C1357 H1333 0.951 1_565 S
C1357 C1358 1.366 . S
C1357 C1359 1.388 . S
C1358 C1357 1.366 . S
C1358 C1362 1.385 . S
C1359 H1334 0.951 . S
C1359 C1357 1.388 . S
C1359 C1360 1.366 . S
C1360 C1359 1.366 . S
C1360 C1361 1.414 . S
C1360 C1363 1.499 . S
C1361 H1335 0.950 . S
C1361 C1360 1.414 . S
C1361 C1362 1.374 . S
C1362 H1336 0.950 . S
C1362 C1358 1.385 . S
C1362 C1361 1.374 . S
C1363 C1360 1.499 . S
C1363 C1364 1.373 . S
C1363 C1365 1.389 . S
C1364 H1337 0.950 . S
C1364 C1350 1.377 . S
C1364 C1363 1.373 . S
C1365 C1349 1.377 . S
C1365 C1363 1.389 . S
C1365 C1366 1.524 . S
C1366 C1365 1.524 . S
C1366 C1367 1.397 . S
C1366 C1371 1.363 . S
C1367 H1338 0.950 . S
C1367 C1366 1.397 . S
C1367 C1368 1.334 . S
C1368 H1339 0.950 . S
C1368 C1367 1.334 . S
C1368 C1369 1.308 . S
C1369 C1368 1.308 . S
C1369 C1370 1.527 . S
C1369 H1372 0.969 1_565 S
C1370 H1340 0.950 1_565 S
C1370 C1369 1.527 . S
C1370 C1371 1.415 . S
C1371 H1341 0.950 . S
C1371 C1366 1.363 . S
C1371 C1370 1.415 . S
H1372 C1369 0.969 1_545 S
H1373 C1354 0.913 . S
H1374 C1392 0.951 . S
H1375 C1394 0.951 . S
H1376 C1396 0.950 . S
H1377 C1397 0.950 . S
H1378 C1399 0.950 . S
H1379 C1402 0.950 . S
H1380 C1403 0.950 . S
H1381 C1405 0.950 . S
H1382 C1406 0.950 . S
H1383 C1407 0.951 1_545 S
H1384 C1409 0.951 . S
H1385 C1411 0.950 . S
H1386 C1412 0.950 . S
H1387 C1414 0.950 . S
H1388 C1417 0.950 . S
H1389 C1418 0.950 . S
H1390 C1420 0.950 . S
H1391 C1421 0.950 . S
C1392 H1374 0.951 . S
C1392 C1393 1.366 . S
C1392 C1394 1.388 . S
C1393 C1392 1.366 . S
C1393 C1397 1.385 . S
C1394 H1375 0.951 . S
C1394 C1392 1.388 . S
C1394 C1395 1.366 . S
C1395 C1394 1.366 . S
C1395 C1396 1.414 . S
C1395 C1398 1.499 . S
C1396 H1376 0.950 . S
C1396 C1395 1.414 . S
C1396 C1397 1.374 . S
C1397 H1377 0.950 . S
C1397 C1393 1.385 . S
C1397 C1396 1.374 . S
C1398 C1395 1.499 . S
C1398 C1399 1.373 . S
C1398 C1400 1.389 . S
C1399 H1378 0.950 . S
C1399 C1398 1.373 . S
C1399 C1415 1.377 . S
C1400 C1398 1.389 . S
C1400 C1401 1.524 . S
C1400 C1414 1.377 . S
C1401 C1400 1.524 . S
C1401 C1402 1.397 . S
C1401 C1406 1.363 . S
C1402 H1379 0.950 . S
C1402 C1401 1.397 . S
C1402 C1403 1.334 . S
C1403 H1380 0.950 . S
C1403 C1402 1.334 . S
C1403 C1404 1.287 . S
C1404 C1403 1.287 . S
C1404 C1405 1.524 . S
C1404 H1423 0.913 . S
C1405 H1381 0.950 . S
C1405 C1404 1.524 . S
C1405 C1406 1.415 . S
C1406 H1382 0.950 . S
C1406 C1401 1.363 . S
C1406 C1405 1.415 . S
C1407 H1383 0.951 1_565 S
C1407 C1408 1.366 . S
C1407 C1409 1.388 . S
C1408 C1407 1.366 . S
C1408 C1412 1.385 . S
C1409 H1384 0.951 . S
C1409 C1407 1.388 . S
C1409 C1410 1.366 . S
C1410 C1409 1.366 . S
C1410 C1411 1.414 . S
C1410 C1413 1.499 . S
C1411 H1385 0.950 . S
C1411 C1410 1.414 . S
C1411 C1412 1.374 . S
C1412 H1386 0.950 . S
C1412 C1408 1.385 . S
C1412 C1411 1.374 . S
C1413 C1410 1.499 . S
C1413 C1414 1.373 . S
C1413 C1415 1.389 . S
C1414 H1387 0.950 . S
C1414 C1400 1.377 . S
C1414 C1413 1.373 . S
C1415 C1399 1.377 . S
C1415 C1413 1.389 . S
C1415 C1416 1.524 . S
C1416 C1415 1.524 . S
C1416 C1417 1.397 . S
C1416 C1421 1.363 . S
C1417 H1388 0.950 . S
C1417 C1416 1.397 . S
C1417 C1418 1.334 . S
C1418 H1389 0.950 . S
C1418 C1417 1.334 . S
C1418 C1419 1.287 . S
C1419 C1418 1.287 . S
C1419 C1420 1.524 . S
C1419 H1422 0.999 . S
C1420 H1390 0.950 . S
C1420 C1419 1.524 . S
C1420 C1421 1.415 . S
C1421 H1391 0.950 . S
C1421 C1416 1.363 . S
C1421 C1420 1.415 . S
H1422 C1419 0.999 . S
H1423 C1404 0.913 . S
H1424 C1442 0.951 . S
H1425 C1444 0.951 . S
H1426 C1446 0.950 . S
H1427 C1447 0.950 . S
H1428 C1449 0.950 . S
H1429 C1452 0.950 . S
H1430 C1453 0.950 . S
H1431 C1455 0.950 . S
H1432 C1456 0.950 . S
H1433 C1457 0.951 . S
H1434 C1459 0.951 . S
H1435 C1461 0.950 . S
H1436 C1462 0.950 . S
H1437 C1464 0.950 . S
H1438 C1467 0.950 . S
H1439 C1468 0.950 . S
H1440 C1470 0.950 . S
H1441 C1471 0.950 . S
C1442 H1424 0.951 . S
C1442 C1443 1.366 . S
C1442 C1444 1.388 . S
C1443 C1442 1.366 . S
C1443 C1447 1.385 . S
C1444 H1425 0.951 . S
C1444 C1442 1.388 . S
C1444 C1445 1.366 . S
C1445 C1444 1.366 . S
C1445 C1446 1.414 . S
C1445 C1448 1.499 . S
C1446 H1426 0.950 . S
C1446 C1445 1.414 . S
C1446 C1447 1.374 . S
C1447 H1427 0.950 . S
C1447 C1443 1.385 . S
C1447 C1446 1.374 . S
C1448 C1445 1.499 . S
C1448 C1449 1.373 . S
C1448 C1450 1.389 . S
C1449 H1428 0.950 . S
C1449 C1448 1.373 . S
C1449 C1465 1.377 . S
C1450 C1448 1.389 . S
C1450 C1451 1.524 . S
C1450 C1464 1.377 . S
C1451 C1450 1.524 . S
C1451 C1452 1.397 . S
C1451 C1456 1.363 . S
C1452 H1429 0.950 . S
C1452 C1451 1.397 . S
C1452 C1453 1.334 . S
C1453 H1430 0.950 . S
C1453 C1452 1.334 . S
C1453 C1454 1.287 . S
C1454 C1453 1.287 . S
C1454 C1455 1.524 . S
C1454 H1473 0.913 . S
C1455 H1431 0.950 . S
C1455 C1454 1.524 . S
C1455 C1456 1.415 . S
C1456 H1432 0.950 . S
C1456 C1451 1.363 . S
C1456 C1455 1.415 . S
C1457 H1433 0.951 . S
C1457 C1458 1.366 . S
C1457 C1459 1.388 . S
C1458 C1457 1.366 . S
C1458 C1462 1.385 . S
C1459 H1434 0.951 . S
C1459 C1457 1.388 . S
C1459 C1460 1.366 . S
C1460 C1459 1.366 . S
C1460 C1461 1.414 . S
C1460 C1463 1.499 . S
C1461 H1435 0.950 . S
C1461 C1460 1.414 . S
C1461 C1462 1.374 . S
C1462 H1436 0.950 . S
C1462 C1458 1.385 . S
C1462 C1461 1.374 . S
C1463 C1460 1.499 . S
C1463 C1464 1.373 . S
C1463 C1465 1.389 . S
C1464 H1437 0.950 . S
C1464 C1450 1.377 . S
C1464 C1463 1.373 . S
C1465 C1449 1.377 . S
C1465 C1463 1.389 . S
C1465 C1466 1.524 . S
C1466 C1465 1.524 . S
C1466 C1467 1.397 . S
C1466 C1471 1.363 . S
C1467 H1438 0.950 . S
C1467 C1466 1.397 . S
C1467 C1468 1.334 . S
C1468 H1439 0.950 . S
C1468 C1467 1.334 . S
C1468 C1469 1.287 . S
C1469 C1468 1.287 . S
C1469 C1470 1.524 . S
C1469 H1472 0.999 . S
C1470 H1440 0.950 . S
C1470 C1469 1.524 . S
C1470 C1471 1.415 . S
C1471 H1441 0.950 . S
C1471 C1466 1.363 . S
C1471 C1470 1.415 . S
H1472 C1469 0.999 . S
H1473 C1454 0.913 . S
H1474 C1492 0.951 . S
H1475 C1494 0.951 . S
H1476 C1496 0.950 . S
H1477 C1497 0.950 . S
H1478 C1499 0.950 . S
H1479 C1502 0.950 . S
H1480 C1503 0.950 . S
H1481 C1505 0.950 . S
H1482 C1506 0.950 . S
H1483 C1507 0.951 . S
H1484 C1509 0.951 . S
H1485 C1511 0.950 . S
H1486 C1512 0.950 . S
H1487 C1514 0.950 . S
H1488 C1517 0.950 . S
H1489 C1518 0.950 . S
H1490 C1520 0.950 . S
H1491 C1521 0.950 . S
C1492 H1474 0.951 . S
C1492 C1493 1.366 . S
C1492 C1494 1.388 . S
C1493 C1492 1.366 . S
C1493 C1497 1.385 . S
C1494 H1475 0.951 . S
C1494 C1492 1.388 . S
C1494 C1495 1.366 . S
C1495 C1494 1.366 . S
C1495 C1496 1.414 . S
C1495 C1498 1.499 . S
C1496 H1476 0.950 . S
C1496 C1495 1.414 . S
C1496 C1497 1.374 . S
C1497 H1477 0.950 . S
C1497 C1493 1.385 . S
C1497 C1496 1.374 . S
C1498 C1495 1.499 . S
C1498 C1499 1.373 . S
C1498 C1500 1.389 . S
C1499 H1478 0.950 . S
C1499 C1498 1.373 . S
C1499 C1515 1.377 . S
C1500 C1498 1.389 . S
C1500 C1501 1.524 . S
C1500 C1514 1.377 . S
C1501 C1500 1.524 . S
C1501 C1502 1.397 . S
C1501 C1506 1.363 . S
C1502 H1479 0.950 . S
C1502 C1501 1.397 . S
C1502 C1503 1.334 . S
C1503 H1480 0.950 . S
C1503 C1502 1.334 . S
C1503 C1504 1.287 . S
C1504 C1503 1.287 . S
C1504 C1505 1.524 . S
C1504 H1523 0.913 . S
C1505 H1481 0.950 . S
C1505 C1504 1.524 . S
C1505 C1506 1.415 . S
C1506 H1482 0.950 . S
C1506 C1501 1.363 . S
C1506 C1505 1.415 . S
C1507 H1483 0.951 . S
C1507 C1508 1.366 . S
C1507 C1509 1.388 . S
C1508 C1507 1.366 . S
C1508 C1512 1.385 . S
C1509 H1484 0.951 . S
C1509 C1507 1.388 . S
C1509 C1510 1.366 . S
C1510 C1509 1.366 . S
C1510 C1511 1.414 . S
C1510 C1513 1.499 . S
C1511 H1485 0.950 . S
C1511 C1510 1.414 . S
C1511 C1512 1.374 . S
C1512 H1486 0.950 . S
C1512 C1508 1.385 . S
C1512 C1511 1.374 . S
C1513 C1510 1.499 . S
C1513 C1514 1.373 . S
C1513 C1515 1.389 . S
C1514 H1487 0.950 . S
C1514 C1500 1.377 . S
C1514 C1513 1.373 . S
C1515 C1499 1.377 . S
C1515 C1513 1.389 . S
C1515 C1516 1.524 . S
C1516 C1515 1.524 . S
C1516 C1517 1.397 . S
C1516 C1521 1.363 . S
C1517 H1488 0.950 . S
C1517 C1516 1.397 . S
C1517 C1518 1.334 . S
C1518 H1489 0.950 . S
C1518 C1517 1.334 . S
C1518 C1519 1.287 . S
C1519 C1518 1.287 . S
C1519 C1520 1.524 . S
C1519 H1522 0.999 . S
C1520 H1490 0.950 . S
C1520 C1519 1.524 . S
C1520 C1521 1.415 . S
C1521 H1491 0.950 . S
C1521 C1516 1.363 . S
C1521 C1520 1.415 . S
H1522 C1519 0.999 . S
H1523 C1504 0.913 . S
H1524 C1542 0.951 . S
H1525 C1544 0.951 . S
H1526 C1546 0.950 . S
H1527 C1547 0.950 . S
H1528 C1549 0.950 . S
H1529 C1552 0.950 . S
H1530 C1553 0.950 . S
H1531 C1555 0.950 . S
H1532 C1556 0.950 . S
H1533 C1557 0.951 . S
H1534 C1559 0.951 . S
H1535 C1561 0.950 . S
H1536 C1562 0.950 . S
H1537 C1564 0.950 . S
H1538 C1567 0.950 . S
H1539 C1568 0.950 . S
H1540 C1570 0.950 . S
H1541 C1571 0.950 . S
C1542 H1524 0.951 . S
C1542 C1543 1.366 . S
C1542 C1544 1.388 . S
C1543 C1542 1.366 . S
C1543 C1547 1.385 . S
C1544 H1525 0.951 . S
C1544 C1542 1.388 . S
C1544 C1545 1.366 . S
C1545 C1544 1.366 . S
C1545 C1546 1.414 . S
C1545 C1548 1.499 . S
C1546 H1526 0.950 . S
C1546 C1545 1.414 . S
C1546 C1547 1.374 . S
C1547 H1527 0.950 . S
C1547 C1543 1.385 . S
C1547 C1546 1.374 . S
C1548 C1545 1.499 . S
C1548 C1549 1.373 . S
C1548 C1550 1.389 . S
C1549 H1528 0.950 . S
C1549 C1548 1.373 . S
C1549 C1565 1.377 . S
C1550 C1548 1.389 . S
C1550 C1551 1.524 . S
C1550 C1564 1.377 . S
C1551 C1550 1.524 . S
C1551 C1552 1.397 . S
C1551 C1556 1.363 . S
C1552 H1529 0.950 . S
C1552 C1551 1.397 . S
C1552 C1553 1.334 . S
C1553 H1530 0.950 . S
C1553 C1552 1.334 . S
C1553 C1554 1.287 . S
C1554 C1553 1.287 . S
C1554 C1555 1.524 . S
C1554 H1573 0.913 . S
C1555 H1531 0.950 . S
C1555 C1554 1.524 . S
C1555 C1556 1.415 . S
C1556 H1532 0.950 . S
C1556 C1551 1.363 . S
C1556 C1555 1.415 . S
C1557 H1533 0.951 . S
C1557 C1558 1.366 . S
C1557 C1559 1.388 . S
C1558 C1557 1.366 . S
C1558 C1562 1.385 . S
C1559 H1534 0.951 . S
C1559 C1557 1.388 . S
C1559 C1560 1.366 . S
C1560 C1559 1.366 . S
C1560 C1561 1.414 . S
C1560 C1563 1.499 . S
C1561 H1535 0.950 . S
C1561 C1560 1.414 . S
C1561 C1562 1.374 . S
C1562 H1536 0.950 . S
C1562 C1558 1.385 . S
C1562 C1561 1.374 . S
C1563 C1560 1.499 . S
C1563 C1564 1.373 . S
C1563 C1565 1.389 . S
C1564 H1537 0.950 . S
C1564 C1550 1.377 . S
C1564 C1563 1.373 . S
C1565 C1549 1.377 . S
C1565 C1563 1.389 . S
C1565 C1566 1.524 . S
C1566 C1565 1.524 . S
C1566 C1567 1.397 . S
C1566 C1571 1.363 . S
C1567 H1538 0.950 . S
C1567 C1566 1.397 . S
C1567 C1568 1.334 . S
C1568 H1539 0.950 . S
C1568 C1567 1.334 . S
C1568 C1569 1.287 . S
C1569 C1568 1.287 . S
C1569 C1570 1.524 . S
C1569 H1572 0.999 . S
C1570 H1540 0.950 . S
C1570 C1569 1.524 . S
C1570 C1571 1.415 . S
C1571 H1541 0.950 . S
C1571 C1566 1.363 . S
C1571 C1570 1.415 . S
H1572 C1569 0.999 . S
H1573 C1554 0.913 . S
H1574 C1592 0.951 . S
H1575 C1594 0.951 . S
H1576 C1596 0.950 . S
H1577 C1597 0.950 . S
H1578 C1599 0.950 . S
H1579 C1602 0.950 . S
H1580 C1603 0.950 . S
H1581 C1605 0.950 . S
H1582 C1606 0.950 . S
H1583 C1607 0.951 . S
H1584 C1609 0.951 . S
H1585 C1611 0.950 . S
H1586 C1612 0.950 . S
H1587 C1614 0.950 . S
H1588 C1617 0.950 . S
H1589 C1618 0.950 . S
H1590 C1620 0.950 . S
H1591 C1621 0.950 . S
C1592 H1574 0.951 . S
C1592 C1593 1.366 . S
C1592 C1594 1.388 . S
C1593 C1592 1.366 . S
C1593 C1597 1.385 . S
C1594 H1575 0.951 . S
C1594 C1592 1.388 . S
C1594 C1595 1.366 . S
C1595 C1594 1.366 . S
C1595 C1596 1.414 . S
C1595 C1598 1.499 . S
C1596 H1576 0.950 . S
C1596 C1595 1.414 . S
C1596 C1597 1.374 . S
C1597 H1577 0.950 . S
C1597 C1593 1.385 . S
C1597 C1596 1.374 . S
C1598 C1595 1.499 . S
C1598 C1599 1.373 . S
C1598 C1600 1.389 . S
C1599 H1578 0.950 . S
C1599 C1598 1.373 . S
C1599 C1615 1.377 . S
C1600 C1598 1.389 . S
C1600 C1601 1.524 . S
C1600 C1614 1.377 . S
C1601 C1600 1.524 . S
C1601 C1602 1.397 . S
C1601 C1606 1.363 . S
C1602 H1579 0.950 . S
C1602 C1601 1.397 . S
C1602 C1603 1.334 . S
C1603 H1580 0.950 . S
C1603 C1602 1.334 . S
C1603 C1604 1.287 . S
C1604 C1603 1.287 . S
C1604 C1605 1.524 . S
C1604 H1623 0.913 . S
C1605 H1581 0.950 . S
C1605 C1604 1.524 . S
C1605 C1606 1.415 . S
C1606 H1582 0.950 . S
C1606 C1601 1.363 . S
C1606 C1605 1.415 . S
C1607 H1583 0.951 . S
C1607 C1608 1.366 . S
C1607 C1609 1.388 . S
C1608 C1607 1.366 . S
C1608 C1612 1.385 . S
C1609 H1584 0.951 . S
C1609 C1607 1.388 . S
C1609 C1610 1.366 . S
C1610 C1609 1.366 . S
C1610 C1611 1.414 . S
C1610 C1613 1.499 . S
C1611 H1585 0.950 . S
C1611 C1610 1.414 . S
C1611 C1612 1.374 . S
C1612 H1586 0.950 . S
C1612 C1608 1.385 . S
C1612 C1611 1.374 . S
C1613 C1610 1.499 . S
C1613 C1614 1.373 . S
C1613 C1615 1.389 . S
C1614 H1587 0.950 . S
C1614 C1600 1.377 . S
C1614 C1613 1.373 . S
C1615 C1599 1.377 . S
C1615 C1613 1.389 . S
C1615 C1616 1.524 . S
C1616 C1615 1.524 . S
C1616 C1617 1.397 . S
C1616 C1621 1.363 . S
C1617 H1588 0.950 . S
C1617 C1616 1.397 . S
C1617 C1618 1.334 . S
C1618 H1589 0.950 . S
C1618 C1617 1.334 . S
C1618 C1619 1.287 . S
C1619 C1618 1.287 . S
C1619 C1620 1.524 . S
C1619 H1622 0.999 . S
C1620 H1590 0.950 . S
C1620 C1619 1.524 . S
C1620 C1621 1.415 . S
C1621 H1591 0.950 . S
C1621 C1616 1.363 . S
C1621 C1620 1.415 . S
H1622 C1619 0.999 . S
H1623 C1604 0.913 . S
H1624 C1642 0.951 . S
H1625 C1644 0.951 . S
H1626 C1646 0.950 . S
H1627 C1647 0.950 . S
H1628 C1649 0.950 . S
H1629 C1652 0.950 . S
H1630 C1653 0.950 . S
H1631 C1655 0.950 . S
H1632 C1656 0.950 . S
H1633 C1657 0.951 . S
H1634 C1659 0.951 . S
H1635 C1661 0.950 . S
H1636 C1662 0.950 . S
H1637 C1664 0.950 . S
H1638 C1667 0.950 . S
H1639 C1668 0.950 . S
H1640 C1670 0.950 . S
H1641 C1671 0.950 . S
C1642 H1624 0.951 . S
C1642 C1643 1.366 . S
C1642 C1644 1.388 . S
C1643 C1642 1.366 . S
C1643 C1647 1.385 . S
C1644 H1625 0.951 . S
C1644 C1642 1.388 . S
C1644 C1645 1.366 . S
C1645 C1644 1.366 . S
C1645 C1646 1.414 . S
C1645 C1648 1.499 . S
C1646 H1626 0.950 . S
C1646 C1645 1.414 . S
C1646 C1647 1.374 . S
C1647 H1627 0.950 . S
C1647 C1643 1.385 . S
C1647 C1646 1.374 . S
C1648 C1645 1.499 . S
C1648 C1649 1.373 . S
C1648 C1650 1.389 . S
C1649 H1628 0.950 . S
C1649 C1648 1.373 . S
C1649 C1665 1.377 . S
C1650 C1648 1.389 . S
C1650 C1651 1.524 . S
C1650 C1664 1.377 . S
C1651 C1650 1.524 . S
C1651 C1652 1.397 . S
C1651 C1656 1.363 . S
C1652 H1629 0.950 . S
C1652 C1651 1.397 . S
C1652 C1653 1.334 . S
C1653 H1630 0.950 . S
C1653 C1652 1.334 . S
C1653 C1654 1.287 . S
C1654 C1653 1.287 . S
C1654 C1655 1.524 . S
C1654 H1673 0.913 . S
C1655 H1631 0.950 . S
C1655 C1654 1.524 . S
C1655 C1656 1.415 . S
C1656 H1632 0.950 . S
C1656 C1651 1.363 . S
C1656 C1655 1.415 . S
C1657 H1633 0.951 . S
C1657 C1658 1.366 . S
C1657 C1659 1.388 . S
C1658 C1657 1.366 . S
C1658 C1662 1.385 . S
C1659 H1634 0.951 . S
C1659 C1657 1.388 . S
C1659 C1660 1.366 . S
C1660 C1659 1.366 . S
C1660 C1661 1.414 . S
C1660 C1663 1.499 . S
C1661 H1635 0.950 . S
C1661 C1660 1.414 . S
C1661 C1662 1.374 . S
C1662 H1636 0.950 . S
C1662 C1658 1.385 . S
C1662 C1661 1.374 . S
C1663 C1660 1.499 . S
C1663 C1664 1.373 . S
C1663 C1665 1.389 . S
C1664 H1637 0.950 . S
C1664 C1650 1.377 . S
C1664 C1663 1.373 . S
C1665 C1649 1.377 . S
C1665 C1663 1.389 . S
C1665 C1666 1.524 . S
C1666 C1665 1.524 . S
C1666 C1667 1.397 . S
C1666 C1671 1.363 . S
C1667 H1638 0.950 . S
C1667 C1666 1.397 . S
C1667 C1668 1.334 . S
C1668 H1639 0.950 . S
C1668 C1667 1.334 . S
C1668 C1669 1.287 . S
C1669 C1668 1.287 . S
C1669 C1670 1.524 . S
C1669 H1672 0.999 . S
C1670 H1640 0.950 . S
C1670 C1669 1.524 . S
C1670 C1671 1.415 . S
C1671 H1641 0.950 . S
C1671 C1666 1.363 . S
C1671 C1670 1.415 . S
H1672 C1669 0.999 . S
H1673 C1654 0.913 . S
H1674 C1692 0.951 . S
H1675 C1694 0.951 . S
H1676 C1696 0.950 . S
H1677 C1697 0.950 . S
H1678 C1699 0.950 . S
H1679 C1702 0.950 . S
H1680 C1703 0.950 . S
H1681 C1705 0.950 . S
H1682 C1706 0.950 . S
H1683 C1707 0.951 . S
H1684 C1709 0.951 . S
H1685 C1711 0.950 . S
H1686 C1712 0.950 . S
H1687 C1714 0.950 . S
H1688 C1717 0.950 . S
H1689 C1718 0.950 . S
H1690 C1720 0.950 . S
H1691 C1721 0.950 . S
C1692 H1674 0.951 . S
C1692 C1693 1.366 . S
C1692 C1694 1.388 . S
C1693 C1692 1.366 . S
C1693 C1697 1.385 . S
C1694 H1675 0.951 . S
C1694 C1692 1.388 . S
C1694 C1695 1.366 . S
C1695 C1694 1.366 . S
C1695 C1696 1.414 . S
C1695 C1698 1.499 . S
C1696 H1676 0.950 . S
C1696 C1695 1.414 . S
C1696 C1697 1.374 . S
C1697 H1677 0.950 . S
C1697 C1693 1.385 . S
C1697 C1696 1.374 . S
C1698 C1695 1.499 . S
C1698 C1699 1.373 . S
C1698 C1700 1.389 . S
C1699 H1678 0.950 . S
C1699 C1698 1.373 . S
C1699 C1715 1.377 . S
C1700 C1698 1.389 . S
C1700 C1701 1.524 . S
C1700 C1714 1.377 . S
C1701 C1700 1.524 . S
C1701 C1702 1.397 . S
C1701 C1706 1.363 . S
C1702 H1679 0.950 . S
C1702 C1701 1.397 . S
C1702 C1703 1.334 . S
C1703 H1680 0.950 . S
C1703 C1702 1.334 . S
C1703 C1704 1.287 . S
C1704 C1703 1.287 . S
C1704 C1705 1.524 . S
C1704 H1723 0.913 . S
C1705 H1681 0.950 . S
C1705 C1704 1.524 . S
C1705 C1706 1.415 . S
C1706 H1682 0.950 . S
C1706 C1701 1.363 . S
C1706 C1705 1.415 . S
C1707 H1683 0.951 . S
C1707 C1708 1.366 . S
C1707 C1709 1.388 . S
C1708 C1707 1.366 . S
C1708 C1712 1.385 . S
C1709 H1684 0.951 . S
C1709 C1707 1.388 . S
C1709 C1710 1.366 . S
C1710 C1709 1.366 . S
C1710 C1711 1.414 . S
C1710 C1713 1.499 . S
C1711 H1685 0.950 . S
C1711 C1710 1.414 . S
C1711 C1712 1.374 . S
C1712 H1686 0.950 . S
C1712 C1708 1.385 . S
C1712 C1711 1.374 . S
C1713 C1710 1.499 . S
C1713 C1714 1.373 . S
C1713 C1715 1.389 . S
C1714 H1687 0.950 . S
C1714 C1700 1.377 . S
C1714 C1713 1.373 . S
C1715 C1699 1.377 . S
C1715 C1713 1.389 . S
C1715 C1716 1.524 . S
C1716 C1715 1.524 . S
C1716 C1717 1.397 . S
C1716 C1721 1.363 . S
C1717 H1688 0.950 . S
C1717 C1716 1.397 . S
C1717 C1718 1.334 . S
C1718 H1689 0.950 . S
C1718 C1717 1.334 . S
C1718 C1719 1.287 . S
C1719 C1718 1.287 . S
C1719 C1720 1.524 . S
C1719 H1722 0.999 . S
C1720 H1690 0.950 . S
C1720 C1719 1.524 . S
C1720 C1721 1.415 . S
C1721 H1691 0.950 . S
C1721 C1716 1.363 . S
C1721 C1720 1.415 . S
H1722 C1719 0.999 . S
H1723 C1704 0.913 . S
H1724 C1742 0.951 . S
H1725 C1744 0.951 . S
H1726 C1746 0.950 . S
H1727 C1747 0.950 . S
H1728 C1749 0.950 . S
H1729 C1752 0.950 . S
H1730 C1753 0.950 . S
H1731 C1755 0.950 . S
H1732 C1756 0.950 . S
H1733 C1757 0.951 . S
H1734 C1759 0.951 . S
H1735 C1761 0.950 . S
H1736 C1762 0.950 . S
H1737 C1764 0.950 . S
H1738 C1767 0.950 . S
H1739 C1768 0.950 . S
H1740 C1770 0.950 . S
H1741 C1771 0.950 . S
C1742 H1724 0.951 . S
C1742 C1743 1.366 . S
C1742 C1744 1.388 . S
C1743 C1742 1.366 . S
C1743 C1747 1.385 . S
C1744 H1725 0.951 . S
C1744 C1742 1.388 . S
C1744 C1745 1.366 . S
C1745 C1744 1.366 . S
C1745 C1746 1.414 . S
C1745 C1748 1.499 . S
C1746 H1726 0.950 . S
C1746 C1745 1.414 . S
C1746 C1747 1.374 . S
C1747 H1727 0.950 . S
C1747 C1743 1.385 . S
C1747 C1746 1.374 . S
C1748 C1745 1.499 . S
C1748 C1749 1.373 . S
C1748 C1750 1.389 . S
C1749 H1728 0.950 . S
C1749 C1748 1.373 . S
C1749 C1765 1.377 . S
C1750 C1748 1.389 . S
C1750 C1751 1.524 . S
C1750 C1764 1.377 . S
C1751 C1750 1.524 . S
C1751 C1752 1.397 . S
C1751 C1756 1.363 . S
C1752 H1729 0.950 . S
C1752 C1751 1.397 . S
C1752 C1753 1.334 . S
C1753 H1730 0.950 . S
C1753 C1752 1.334 . S
C1753 C1754 1.287 . S
C1754 C1753 1.287 . S
C1754 C1755 1.524 . S
C1754 H1773 0.913 . S
C1755 H1731 0.950 . S
C1755 C1754 1.524 . S
C1755 C1756 1.415 . S
C1756 H1732 0.950 . S
C1756 C1751 1.363 . S
C1756 C1755 1.415 . S
C1757 H1733 0.951 . S
C1757 C1758 1.366 . S
C1757 C1759 1.388 . S
C1758 C1757 1.366 . S
C1758 C1762 1.385 . S
C1759 H1734 0.951 . S
C1759 C1757 1.388 . S
C1759 C1760 1.366 . S
C1760 C1759 1.366 . S
C1760 C1761 1.414 . S
C1760 C1763 1.499 . S
C1761 H1735 0.950 . S
C1761 C1760 1.414 . S
C1761 C1762 1.374 . S
C1762 H1736 0.950 . S
C1762 C1758 1.385 . S
C1762 C1761 1.374 . S
C1763 C1760 1.499 . S
C1763 C1764 1.373 . S
C1763 C1765 1.389 . S
C1764 H1737 0.950 . S
C1764 C1750 1.377 . S
C1764 C1763 1.373 . S
C1765 C1749 1.377 . S
C1765 C1763 1.389 . S
C1765 C1766 1.524 . S
C1766 C1765 1.524 . S
C1766 C1767 1.397 . S
C1766 C1771 1.363 . S
C1767 H1738 0.950 . S
C1767 C1766 1.397 . S
C1767 C1768 1.334 . S
C1768 H1739 0.950 . S
C1768 C1767 1.334 . S
C1768 C1769 1.287 . S
C1769 C1768 1.287 . S
C1769 C1770 1.524 . S
C1769 H1772 0.999 . S
C1770 H1740 0.950 . S
C1770 C1769 1.524 . S
C1770 C1771 1.415 . S
C1771 H1741 0.950 . S
C1771 C1766 1.363 . S
C1771 C1770 1.415 . S
H1772 C1769 0.999 . S
H1773 C1754 0.913 . S
H1774 C1792 0.951 . S
H1775 C1794 0.951 . S
H1776 C1796 0.950 . S
H1777 C1797 0.950 . S
H1778 C1799 0.950 . S
H1779 C1802 0.950 . S
H1780 C1803 0.950 . S
H1781 C1805 0.950 . S
H1782 C1806 0.950 . S
H1783 C1807 0.951 . S
H1784 C1809 0.951 . S
H1785 C1811 0.950 . S
H1786 C1812 0.950 . S
H1787 C1814 0.950 . S
H1788 C1817 0.950 . S
H1789 C1818 0.950 . S
H1790 C1820 0.950 . S
H1791 C1821 0.950 . S
C1792 H1774 0.951 . S
C1792 C1793 1.366 . S
C1792 C1794 1.388 . S
C1793 C1792 1.366 . S
C1793 C1797 1.385 . S
C1794 H1775 0.951 . S
C1794 C1792 1.388 . S
C1794 C1795 1.366 . S
C1795 C1794 1.366 . S
C1795 C1796 1.414 . S
C1795 C1798 1.499 . S
C1796 H1776 0.950 . S
C1796 C1795 1.414 . S
C1796 C1797 1.374 . S
C1797 H1777 0.950 . S
C1797 C1793 1.385 . S
C1797 C1796 1.374 . S
C1798 C1795 1.499 . S
C1798 C1799 1.373 . S
C1798 C1800 1.389 . S
C1799 H1778 0.950 . S
C1799 C1798 1.373 . S
C1799 C1815 1.377 . S
C1800 C1798 1.389 . S
C1800 C1801 1.524 . S
C1800 C1814 1.377 . S
C1801 C1800 1.524 . S
C1801 C1802 1.397 . S
C1801 C1806 1.363 . S
C1802 H1779 0.950 . S
C1802 C1801 1.397 . S
C1802 C1803 1.334 . S
C1803 H1780 0.950 . S
C1803 C1802 1.334 . S
C1803 C1804 1.287 . S
C1804 C1803 1.287 . S
C1804 C1805 1.524 . S
C1804 H1823 0.913 . S
C1805 H1781 0.950 . S
C1805 C1804 1.524 . S
C1805 C1806 1.415 . S
C1806 H1782 0.950 . S
C1806 C1801 1.363 . S
C1806 C1805 1.415 . S
C1807 H1783 0.951 . S
C1807 C1808 1.366 . S
C1807 C1809 1.388 . S
C1808 C1807 1.366 . S
C1808 C1812 1.385 . S
C1809 H1784 0.951 . S
C1809 C1807 1.388 . S
C1809 C1810 1.366 . S
C1810 C1809 1.366 . S
C1810 C1811 1.414 . S
C1810 C1813 1.499 . S
C1811 H1785 0.950 . S
C1811 C1810 1.414 . S
C1811 C1812 1.374 . S
C1812 H1786 0.950 . S
C1812 C1808 1.385 . S
C1812 C1811 1.374 . S
C1813 C1810 1.499 . S
C1813 C1814 1.373 . S
C1813 C1815 1.389 . S
C1814 H1787 0.950 . S
C1814 C1800 1.377 . S
C1814 C1813 1.373 . S
C1815 C1799 1.377 . S
C1815 C1813 1.389 . S
C1815 C1816 1.524 . S
C1816 C1815 1.524 . S
C1816 C1817 1.397 . S
C1816 C1821 1.363 . S
C1817 H1788 0.950 . S
C1817 C1816 1.397 . S
C1817 C1818 1.334 . S
C1818 H1789 0.950 . S
C1818 C1817 1.334 . S
C1818 C1819 1.287 . S
C1819 C1818 1.287 . S
C1819 C1820 1.524 . S
C1819 H1822 0.999 . S
C1820 H1790 0.950 . S
C1820 C1819 1.524 . S
C1820 C1821 1.415 . S
C1821 H1791 0.950 . S
C1821 C1816 1.363 . S
C1821 C1820 1.415 . S
H1822 C1819 0.999 . S
H1823 C1804 0.913 . S
C243 C11 1.151 . S
C258 C193 1.151 . S
C293 C165 1.151 . S
C308 C25 1.151 . S
C343 C179 1.152 . S
C358 C39 1.152 . S
C393 C151 1.151 . S
C408 C53 1.151 . S
C443 C67 1.151 . S
C458 C221 1.151 . S
C493 C81 1.151 . S
C508 C137 1.151 . S
C543 C207 1.151 . S
C558 C95 1.151 . S
C593 C109 1.151 . S
C608 C123 1.151 . S
C643 C65 1.671 . S
C658 C9 1.671 . S
C693 C23 1.671 . S
C708 C79 1.671 . S
C743 C37 1.671 . S
C758 C93 1.671 . S
C793 C107 1.671 . S
C808 C51 1.671 . S
C843 C121 1.671 . S
C858 C149 1.671 . S
C893 C135 1.671 . S
C908 C163 1.671 . S
C943 C205 1.671 . S
C958 C177 1.671 . S
C993 C191 1.671 . S
C1008 C219 1.671 . S
C1043 C70 1.350 . S
C1058 C0 1.350 1_565 S
C1093 C14 1.351 . S
C1108 C84 1.350 1_565 S
C1143 C28 1.350 1_545 S
C1158 C98 1.351 . S
C1193 C56 1.351 1_545 S
C1208 C42 1.350 . S
C1243 C61 1.139 . S
C1258 C145 1.138 . S
C1293 C33 1.139 . S
C1308 C117 1.139 . S
C1343 C159 1.139 . S
C1358 C89 1.138 . S
C1393 C131 1.138 . S
C1408 C5 1.138 . S
C1443 C112 1.350 . S
C1458 C168 1.351 . S
C1493 C140 1.350 . S
C1508 C210 1.350 . S
C1543 C182 1.351 . S
C1558 C126 1.351 . S
C1593 C154 1.350 . S
C1608 C196 1.349 . S
C1643 C201 1.139 . S
C1658 C19 1.138 . S
C1693 C187 1.139 . S
C1708 C75 1.139 . S
C1743 C215 1.138 . S
C1758 C47 1.138 . S
C1793 C173 1.138 . S
C1808 C103 1.139 . S
