# Generated by pormake.
# Topology umf, (4)-cn, num edge types: 1
# Building blocks:
#     Node 0, Type 0, BuildingBlock: ICAMEG_clean_sbu_1, # of connection points: 4
#     Node 1, Type 0, BuildingBlock: ICAMEG_clean_sbu_1, # of connection points: 4
#     Node 2, Type 0, BuildingBlock: ICAMEG_clean_sbu_1, # of connection points: 4
#     Node 3, Type 0, BuildingBlock: ICAMEG_clean_sbu_1, # of connection points: 4
#     Node 4, Type 0, BuildingBlock: ICAMEG_clean_sbu_1, # of connection points: 4
#     Node 5, Type 0, BuildingBlock: ICAMEG_clean_sbu_1, # of connection points: 4
#     Node 6, Type 0, BuildingBlock: ICAMEG_clean_sbu_1, # of connection points: 4
#     Node 7, Type 0, BuildingBlock: ICAMEG_clean_sbu_1, # of connection points: 4
#     Edge 8, Type (0, 0), BuildingBlock: EYOCIG_clean_linker_4, # of connection points: 2
#     Edge 9, Type (0, 0), BuildingBlock: EYOCIG_clean_linker_4, # of connection points: 2
#     Edge 10, Type (0, 0), BuildingBlock: EYOCIG_clean_linker_4, # of connection points: 2
#     Edge 11, Type (0, 0), BuildingBlock: EYOCIG_clean_linker_4, # of connection points: 2
#     Edge 12, Type (0, 0), BuildingBlock: EYOCIG_clean_linker_4, # of connection points: 2
#     Edge 13, Type (0, 0), BuildingBlock: EYOCIG_clean_linker_4, # of connection points: 2
#     Edge 14, Type (0, 0), BuildingBlock: EYOCIG_clean_linker_4, # of connection points: 2
#     Edge 15, Type (0, 0), BuildingBlock: EYOCIG_clean_linker_4, # of connection points: 2
#     Edge 16, Type (0, 0), BuildingBlock: EYOCIG_clean_linker_4, # of connection points: 2
#     Edge 17, Type (0, 0), BuildingBlock: EYOCIG_clean_linker_4, # of connection points: 2
#     Edge 18, Type (0, 0), BuildingBlock: EYOCIG_clean_linker_4, # of connection points: 2
#     Edge 19, Type (0, 0), BuildingBlock: EYOCIG_clean_linker_4, # of connection points: 2
#     Edge 20, Type (0, 0), BuildingBlock: EYOCIG_clean_linker_4, # of connection points: 2
#     Edge 21, Type (0, 0), BuildingBlock: EYOCIG_clean_linker_4, # of connection points: 2
#     Edge 22, Type (0, 0), BuildingBlock: EYOCIG_clean_linker_4, # of connection points: 2
#     Edge 23, Type (0, 0), BuildingBlock: EYOCIG_clean_linker_4, # of connection points: 2
# Relax obj value: 0.111
# Max RMSD: 0.201
# Mean RMSD: 0.201
data_MOF--net-umf--node1-ICAMEG_clean_sbu_1--edge1-EYOCIG_clean_linker_4
_symmetry_space_group_name_H-M    P1
_symmetry_Int_Tables_number       1
_symmetry_cell_setting            triclinic
loop_
_symmetry_equiv_pos_as_xyz
'x, y, z'
_cell_length_a     24.092159
_cell_length_b     24.094573
_cell_length_c     45.945172
_cell_angle_alpha  89.948371
_cell_angle_beta   89.994296
_cell_angle_gamma 89.995025
loop_
_atom_site_label
_atom_site_type_symbol
_atom_site_fract_x
_atom_site_fract_y
_atom_site_fract_z
_atom_type_partial_charge
Co0 Co 0.10395 0.18972 0.12803 0.0
Co1 Co 0.0044 0.24829 0.17158 0.0
O2 O 0.05191 0.25076 0.13634 0.0
C3 C 0.03598 0.20028 0.07551 0.0
O4 O 0.99384 0.20152 0.09347 0.0
C5 C 0.0404 0.3651 0.16539 0.0
O6 O 0.08988 0.34819 0.15745 0.0
O7 O 0.07227 0.24701 0.19584 0.0
O8 O 0.1221 0.18334 0.17101 0.0
H9 H 0.9402 0.16861 0.26702 0.0
H10 H 0.1225 0.29356 0.09403 0.0
O11 O 0.0855 0.19572 0.08518 0.0
H12 H 0.30055 0.25174 0.14244 0.0
H13 H 0.24844 0.08202 0.07174 0.0
H14 H 0.12628 0.08312 0.15772 0.0
H15 H 0.21791 0.19476 0.15201 0.0
H16 H 0.18662 0.16191 0.08128 0.0
O17 O 0.00265 0.33095 0.17241 0.0
H18 H 0.00315 0.17865 0.22519 0.0
H19 H 0.90797 0.31442 0.19352 0.0
H20 H 0.18686 0.00276 0.14897 0.0
H21 H 0.20487 0.35147 0.08341 0.0
H22 H 0.24885 0.00187 0.1058 0.0
H23 H 0.29478 0.33008 0.10742 0.0
O24 O 0.04359 0.13603 0.13183 0.0
H25 H 0.87912 0.31887 0.09203 0.0
H26 H 0.90197 0.17867 0.16929 0.0
H27 H 0.81782 0.17747 0.13896 0.0
H28 H 0.80566 0.24821 0.10014 0.0
H29 H 0.96376 0.31741 0.12221 0.0
H30 H 0.84565 0.30754 0.23597 0.0
H31 H 0.86063 0.2332 0.27263 0.0
O32 O 0.00373 0.16582 0.17252 0.0
C33 C 0.11156 0.21168 0.19397 0.0
C34 C 0.93313 0.20108 0.25115 0.0
C35 C 0.88007 0.27901 0.23369 0.0
N36 N 0.95895 0.24667 0.20659 0.0
C37 C 0.96853 0.20688 0.22727 0.0
C38 C 0.91584 0.28303 0.20982 0.0
C39 C 0.8885 0.23733 0.25428 0.0
C40 C 0.16134 0.28471 0.10485 0.0
N41 N 0.1653 0.24104 0.12364 0.0
C42 C 0.20782 0.31748 0.09874 0.0
C43 C 0.2583 0.30551 0.11223 0.0
C44 C 0.26159 0.26165 0.13191 0.0
C45 C 0.21438 0.22986 0.13746 0.0
C46 C 0.22166 0.08202 0.09065 0.0
C47 C 0.15303 0.08331 0.13886 0.0
C48 C 0.18655 0.12708 0.09612 0.0
N49 N 0.15313 0.1275 0.12014 0.0
C50 C 0.18727 0.03752 0.13402 0.0
C51 C 0.22193 0.03703 0.10977 0.0
C52 C 0.01429 0.12841 0.15414 0.0
C53 C 0.88393 0.28787 0.1089 0.0
C54 C 0.89762 0.2091 0.15215 0.0
C55 C 0.84957 0.20843 0.13517 0.0
C56 C 0.84275 0.24817 0.11343 0.0
N57 N 0.93802 0.24803 0.14752 0.0
C58 C 0.93162 0.2871 0.12621 0.0
Co59 Co 0.80196 0.10355 0.62793 0.0
Co60 Co 0.74341 0.00394 0.67155 0.0
O61 O 0.74085 0.05157 0.63633 0.0
C62 C 0.79113 0.03577 0.57541 0.0
O63 O 0.78955 0.99365 0.59339 0.0
C64 C 0.62653 0.03997 0.66543 0.0
O65 O 0.64336 0.08927 0.65713 0.0
O66 O 0.74504 0.0717 0.69585 0.0
O67 O 0.80863 0.12151 0.67092 0.0
H68 H 0.82361 0.9396 0.76682 0.0
H69 H 0.69812 0.12241 0.59404 0.0
O70 O 0.79584 0.08526 0.58508 0.0
H71 H 0.74012 0.30012 0.64263 0.0
H72 H 0.90933 0.24869 0.57181 0.0
H73 H 0.90884 0.12534 0.65737 0.0
H74 H 0.79703 0.21738 0.65206 0.0
H75 H 0.82956 0.18666 0.5813 0.0
O76 O 0.66074 0.00237 0.67261 0.0
H77 H 0.81347 0.00246 0.72494 0.0
H78 H 0.67725 0.90758 0.69368 0.0
H79 H 0.98913 0.18606 0.64865 0.0
H80 H 0.64029 0.2049 0.58354 0.0
H81 H 0.98969 0.24868 0.6057 0.0
H82 H 0.66177 0.29464 0.60765 0.0
O83 O 0.85558 0.04309 0.63158 0.0
H84 H 0.67194 0.87921 0.59206 0.0
H85 H 0.81266 0.90125 0.66905 0.0
H86 H 0.81339 0.81723 0.63867 0.0
H87 H 0.7424 0.80547 0.59999 0.0
H88 H 0.67385 0.96371 0.6223 0.0
H89 H 0.68425 0.84535 0.73617 0.0
H90 H 0.75884 0.86023 0.77266 0.0
O91 O 0.82586 0.00299 0.67225 0.0
C92 C 0.78046 0.1109 0.69394 0.0
C93 C 0.79103 0.93257 0.75102 0.0
C94 C 0.71286 0.87968 0.73379 0.0
N95 N 0.74521 0.95841 0.70655 0.0
C96 C 0.78516 0.96792 0.72712 0.0
C97 C 0.70877 0.9154 0.7099 0.0
C98 C 0.75468 0.88806 0.75428 0.0
C99 C 0.70701 0.16118 0.6049 0.0
N100 N 0.75068 0.16498 0.62367 0.0
C101 C 0.67428 0.20773 0.59886 0.0
C102 C 0.6863 0.25811 0.6124 0.0
C103 C 0.73017 0.26123 0.63206 0.0
C104 C 0.76191 0.21396 0.63754 0.0
C105 C 0.90947 0.22163 0.59062 0.0
C106 C 0.90854 0.15233 0.6386 0.0
C107 C 0.86448 0.1864 0.59606 0.0
N108 N 0.86422 0.15268 0.61998 0.0
C109 C 0.95428 0.18665 0.63377 0.0
C110 C 0.95458 0.22167 0.60965 0.0
C111 C 0.86319 0.0135 0.65379 0.0
C112 C 0.70305 0.88384 0.60888 0.0
C113 C 0.7821 0.89707 0.65198 0.0
C114 C 0.78252 0.8491 0.63497 0.0
C115 C 0.74264 0.84251 0.6133 0.0
N116 N 0.74328 0.93763 0.64746 0.0
C117 C 0.70407 0.93145 0.62622 0.0
Co118 Co 0.88802 0.80226 0.12812 0.0
Co119 Co 0.9875 0.74305 0.17157 0.0
O120 O 0.93995 0.74102 0.13634 0.0
C121 C 0.95577 0.79182 0.07551 0.0
O122 O -0.00207 0.79 0.09343 0.0
C123 C 0.95103 0.6264 0.16529 0.0
O124 O 0.90169 0.64352 0.15721 0.0
O125 O 0.91968 0.74458 0.19589 0.0
O126 O 0.86998 0.80847 0.17111 0.0
H127 H 0.05196 0.82214 0.26699 0.0
H128 H 0.86934 0.69876 0.09401 0.0
O129 O 0.90631 0.79658 0.08524 0.0
H130 H 0.69146 0.74001 0.1427 0.0
H131 H 0.74275 0.91014 0.07238 0.0
H132 H 0.86634 0.90889 0.15779 0.0
H133 H 0.77408 0.79703 0.15221 0.0
H134 H 0.80484 0.8303 0.08162 0.0
O135 O 0.98884 0.66039 0.17241 0.0
H136 H 0.98901 0.81247 0.22516 0.0
H137 H 0.08371 0.67646 0.19349 0.0
H138 H 0.80553 0.98923 0.14931 0.0
H139 H 0.787 0.64084 0.08343 0.0
H140 H 0.74279 0.99016 0.10644 0.0
H141 H 0.69718 0.66193 0.10759 0.0
O142 O 0.94852 0.85582 0.13193 0.0
H143 H 0.11219 0.6723 0.09185 0.0
H144 H 0.09032 0.81211 0.16925 0.0
H145 H 0.17433 0.81313 0.13881 0.0
H146 H 0.18599 0.7426 0.09991 0.0
H147 H 0.02769 0.67395 0.12214 0.0
H148 H 0.14605 0.68299 0.23593 0.0
H149 H 0.13131 0.75725 0.2726 0.0
O150 O 0.98866 0.82548 0.17247 0.0
C151 C 0.88051 0.78004 0.19406 0.0
C152 C 0.05893 0.7897 0.25112 0.0
C153 C 0.11173 0.71165 0.23366 0.0
N154 N 0.03297 0.74435 0.20656 0.0
C155 C 0.02352 0.7841 0.22724 0.0
C156 C 0.07595 0.70782 0.20979 0.0
C157 C 0.10343 0.75329 0.25425 0.0
C158 C 0.83053 0.7075 0.10488 0.0
N159 N 0.82661 0.75102 0.12373 0.0
C160 C 0.78407 0.67472 0.09879 0.0
C161 C 0.73364 0.68652 0.11237 0.0
C162 C 0.73039 0.73023 0.1321 0.0
C163 C 0.77758 0.76205 0.13762 0.0
C164 C 0.76985 0.91011 0.09116 0.0
C165 C 0.83929 0.90876 0.13905 0.0
C166 C 0.80512 0.86509 0.09646 0.0
N167 N 0.8389 0.86461 0.12034 0.0
C168 C 0.80492 0.95453 0.13436 0.0
C169 C 0.76983 0.95503 0.11028 0.0
C170 C 0.97829 0.86303 0.15411 0.0
C171 C 0.10759 0.70321 0.10875 0.0
C172 C 0.09446 0.78176 0.15209 0.0
C173 C 0.14242 0.78233 0.13504 0.0
C174 C 0.14897 0.74271 0.11326 0.0
N175 N 0.05384 0.74305 0.14748 0.0
C176 C 0.05999 0.70409 0.12613 0.0
Co177 Co 0.18975 0.88783 0.62802 0.0
Co178 Co 0.24855 0.98724 0.67158 0.0
O179 O 0.25092 0.93975 0.63635 0.0
C180 C 0.20035 0.95583 0.57551 0.0
O181 O 0.20204 -0.00211 0.59348 0.0
C182 C 0.36519 0.95067 0.66563 0.0
O183 O 0.34806 0.90126 0.65773 0.0
O184 O 0.24694 0.91939 0.69588 0.0
O185 O 0.18331 0.86964 0.671 0.0
H186 H 0.1686 0.05149 0.76687 0.0
H187 H 0.29345 0.86917 0.594 0.0
O188 O 0.19566 0.90631 0.58517 0.0
H189 H 0.25167 0.69117 0.64252 0.0
H190 H 0.08207 0.74296 0.57202 0.0
H191 H 0.08297 0.86602 0.65758 0.0
H192 H 0.19478 0.77385 0.65207 0.0
H193 H 0.16193 0.8049 0.58142 0.0
O194 O 0.3312 0.98863 0.67253 0.0
H195 H 0.17869 0.98861 0.72506 0.0
H196 H 0.31491 0.08342 0.69364 0.0
H197 H 0.0026 0.80539 0.64894 0.0
H198 H 0.35126 0.78676 0.58338 0.0
H199 H 0.00183 0.74292 0.606 0.0
H200 H 0.32989 0.69688 0.60745 0.0
O201 O 0.13616 0.94828 0.63177 0.0
H202 H 0.31983 0.11217 0.59202 0.0
H203 H 0.17938 0.08999 0.66917 0.0
H204 H 0.17854 0.17407 0.63875 0.0
H205 H 0.2494 0.18589 0.59999 0.0
H206 H 0.31801 0.0276 0.62229 0.0
H207 H 0.30797 0.14567 0.73608 0.0
H208 H 0.23339 0.13086 0.7726 0.0
O209 O 0.16611 0.98832 0.67238 0.0
C210 C 0.2116 0.88014 0.69397 0.0
C211 C 0.20118 0.0585 0.75106 0.0
C212 C 0.27935 0.11135 0.73374 0.0
N213 N 0.24694 0.03264 0.70659 0.0
C214 C 0.20702 0.02313 0.72719 0.0
C215 C 0.28341 0.07562 0.70989 0.0
C216 C 0.23754 0.10301 0.75425 0.0
C217 C 0.28461 0.83034 0.60484 0.0
N218 N 0.241 0.82642 0.62366 0.0
C219 C 0.31733 0.78383 0.59873 0.0
C220 C 0.30537 0.73337 0.61225 0.0
C221 C 0.26158 0.73012 0.63196 0.0
C222 C 0.22984 0.77736 0.63751 0.0
C223 C 0.08202 0.76995 0.59083 0.0
C224 C 0.08319 0.83909 0.63881 0.0
C225 C 0.12706 0.80512 0.59622 0.0
N226 N 0.12744 0.83876 0.62014 0.0
C227 C 0.0374 0.80482 0.63403 0.0
C228 C 0.03698 0.76988 0.60991 0.0
C229 C 0.12872 0.97793 0.65395 0.0
C230 C 0.28878 0.1075 0.60887 0.0
C231 C 0.20987 0.09419 0.65206 0.0
C232 C 0.2094 0.1422 0.63503 0.0
C233 C 0.24921 0.14883 0.61331 0.0
N234 N 0.24866 0.05363 0.6475 0.0
C235 C 0.2878 0.05986 0.62623 0.0
Co236 Co 0.10376 0.80187 0.88381 0.0
Co237 Co 0.00435 0.7432 0.84017 0.0
O238 O 0.05181 0.74076 0.87544 0.0
C239 C 0.03556 0.79131 0.93627 0.0
O240 O 0.99355 0.78952 0.91824 0.0
C241 C 0.04089 0.62655 0.84608 0.0
O242 O 0.09035 0.64367 0.85393 0.0
O243 O 0.07222 0.74474 0.81591 0.0
O244 O 0.1221 0.80821 0.84085 0.0
H245 H 0.94003 0.82303 0.74479 0.0
H246 H 0.12211 0.69821 0.91793 0.0
O247 O 0.0851 0.79604 0.92665 0.0
H248 H 0.30043 0.73971 0.86971 0.0
H249 H 0.24815 0.90968 0.9401 0.0
H250 H 0.12604 0.90847 0.85411 0.0
H251 H 0.21786 0.7967 0.85996 0.0
H252 H 0.18632 0.8298 0.9306 0.0
O253 O 0.00288 0.66056 0.83925 0.0
H254 H 0.00302 0.81295 0.7866 0.0
H255 H 0.90804 0.67698 0.81818 0.0
H256 H 0.18664 0.98882 0.86283 0.0
H257 H 0.2044 0.64033 0.92875 0.0
H258 H 0.24861 0.98976 0.906 0.0
H259 H 0.29444 0.66155 0.90483 0.0
O260 O 0.04339 0.85553 0.87993 0.0
H261 H 0.87912 0.67182 0.91955 0.0
H262 H 0.90182 0.8127 0.84262 0.0
H263 H 0.81774 0.81365 0.873 0.0
H264 H 0.80564 0.74257 0.91166 0.0
H265 H 0.96373 0.67359 0.88935 0.0
H266 H 0.84567 0.68392 0.77577 0.0
H267 H 0.86052 0.75838 0.73916 0.0
O268 O 0.00344 0.82565 0.83929 0.0
C269 C 0.11155 0.78 0.81785 0.0
C270 C 0.93301 0.7905 0.76064 0.0
C271 C 0.88005 0.71248 0.77806 0.0
N272 N 0.95892 0.74482 0.80515 0.0
C273 C 0.96844 0.78467 0.7845 0.0
C274 C 0.91586 0.70842 0.80191 0.0
C275 C 0.88842 0.75423 0.7575 0.0
C276 C 0.16102 0.70699 0.90716 0.0
N277 N 0.16509 0.75057 0.88831 0.0
C278 C 0.20745 0.67423 0.91338 0.0
C279 C 0.258 0.68611 0.89994 0.0
C280 C 0.26141 0.72988 0.8802 0.0
C281 C 0.21424 0.76166 0.87455 0.0
C282 C 0.22138 0.90965 0.92119 0.0
C283 C 0.15278 0.90831 0.87297 0.0
C284 C 0.18626 0.8646 0.91574 0.0
N285 N 0.15287 0.86414 0.89172 0.0
C286 C 0.18703 0.95409 0.8778 0.0
C287 C 0.22168 0.9546 0.90204 0.0
C288 C 0.01398 0.86307 0.85766 0.0
C289 C 0.88391 0.70298 0.90276 0.0
C290 C 0.89751 0.78213 0.85969 0.0
C291 C 0.8495 0.78266 0.8767 0.0
C292 C 0.84272 0.74273 0.89835 0.0
N293 N 0.93795 0.74319 0.86422 0.0
C294 C 0.93158 0.70392 0.88543 0.0
Co295 Co 0.1894 0.10376 0.38376 0.0
Co296 Co 0.2486 0.0044 0.34029 0.0
O297 O 0.25065 0.05188 0.37552 0.0
C298 C 0.19985 0.03579 0.4363 0.0
O299 O 0.20163 0.99371 0.41834 0.0
C300 C 0.36515 0.04115 0.34641 0.0
O301 O 0.3479 0.09055 0.35426 0.0
O302 O 0.24702 0.07224 0.31598 0.0
O303 O 0.18321 0.12196 0.34078 0.0
H304 H 0.16937 0.93988 0.2449 0.0
H305 H 0.29292 0.12228 0.4179 0.0
O306 O 0.19508 0.08528 0.42661 0.0
H307 H 0.25155 0.30039 0.3694 0.0
H308 H 0.08135 0.24855 0.43964 0.0
H309 H 0.08277 0.12556 0.35405 0.0
H310 H 0.19457 0.2178 0.35977 0.0
H311 H 0.16128 0.18665 0.43033 0.0
O312 O 0.33126 0.00313 0.33948 0.0
H313 H 0.17915 0.00291 0.28668 0.0
H314 H 0.31521 0.90825 0.31841 0.0
H315 H 0.00233 0.18618 0.36258 0.0
H316 H 0.3508 0.20458 0.4286 0.0
H317 H 0.0013 0.24861 0.40555 0.0
H318 H 0.32965 0.29452 0.40454 0.0
O319 O 0.13583 0.04329 0.37989 0.0
H320 H 0.31953 0.87956 0.41998 0.0
H321 H 0.1795 0.9016 0.34263 0.0
H322 H 0.17852 0.81757 0.37307 0.0
H323 H 0.24916 0.80581 0.41195 0.0
H324 H 0.31784 0.9641 0.38969 0.0
H325 H 0.30857 0.84583 0.27603 0.0
H326 H 0.23421 0.8605 0.23937 0.0
O327 O 0.16617 0.00321 0.33935 0.0
C328 C 0.21161 0.11146 0.31784 0.0
C329 C 0.20185 0.93294 0.26078 0.0
C330 C 0.27992 0.88016 0.27828 0.0
N331 N 0.24729 0.95897 0.3053 0.0
C332 C 0.20751 0.9684 0.28462 0.0
C333 C 0.28382 0.91599 0.3021 0.0
C334 C 0.23824 0.88842 0.25769 0.0
C335 C 0.28416 0.16114 0.40708 0.0
N336 N 0.24062 0.16515 0.38822 0.0
C337 C 0.31692 0.20758 0.41323 0.0
C338 C 0.30508 0.25807 0.3997 0.0
C339 C 0.26136 0.26142 0.37996 0.0
C340 C 0.22957 0.21424 0.37437 0.0
C341 C 0.08141 0.22158 0.42081 0.0
C342 C 0.08287 0.15249 0.37282 0.0
C343 C 0.1265 0.18643 0.41548 0.0
N344 N 0.12702 0.15282 0.39155 0.0
C345 C 0.03704 0.18675 0.37755 0.0
C346 C 0.03648 0.22166 0.40168 0.0
C347 C 0.12862 0.01359 0.3577 0.0
C348 C 0.28857 0.8842 0.40309 0.0
C349 C 0.2099 0.89743 0.35978 0.0
C350 C 0.20935 0.84945 0.37683 0.0
C351 C 0.24903 0.84286 0.3986 0.0
N352 N 0.24864 0.93802 0.36438 0.0
C353 C 0.28767 0.93182 0.38571 0.0
Co354 Co 0.88845 0.18956 0.88378 0.0
Co355 Co 0.98788 0.24833 0.84013 0.0
O356 O 0.94035 0.25072 0.87536 0.0
C357 C 0.95647 0.20027 0.93626 0.0
O358 O -0.00142 0.20152 0.91828 0.0
C359 C 0.95173 0.36517 0.84626 0.0
O360 O 0.9025 0.34831 0.85463 0.0
O361 O 0.92004 0.24659 0.81584 0.0
O362 O 0.87031 0.18296 0.84081 0.0
H363 H 0.05208 0.1683 0.74487 0.0
H364 H 0.8697 0.29333 0.9177 0.0
O365 O 0.90694 0.19568 0.92661 0.0
H366 H 0.69176 0.25131 0.86928 0.0
H367 H 0.74351 0.08229 0.94006 0.0
H368 H 0.86653 0.08267 0.8544 0.0
H369 H 0.77451 0.19452 0.85974 0.0
H370 H 0.80558 0.16199 0.93049 0.0
O371 O 0.98932 0.33099 0.83905 0.0
H372 H 0.9892 0.17847 0.78671 0.0
H373 H 0.08424 0.31451 0.81803 0.0
H374 H 0.80574 0.00245 0.8632 0.0
H375 H 0.78721 0.35104 0.92832 0.0
H376 H 0.74329 0.00195 0.9062 0.0
H377 H 0.69735 0.32955 0.9043 0.0
O378 O 0.9489 0.13592 0.88005 0.0
H379 H 0.11229 0.31963 0.9198 0.0
H380 H 0.09074 0.1793 0.84263 0.0
H381 H 0.17463 0.17849 0.87316 0.0
H382 H 0.18612 0.24927 0.91195 0.0
H383 H 0.02793 0.3178 0.88942 0.0
H384 H 0.14654 0.30745 0.77558 0.0
H385 H 0.13159 0.23293 0.73909 0.0
O386 O 0.989 0.16592 0.83943 0.0
C387 C 0.88086 0.21115 0.81778 0.0
C388 C 0.05915 0.20085 0.76067 0.0
C389 C 0.11215 0.2789 0.77794 0.0
N390 N 0.03334 0.24663 0.80513 0.0
C391 C 0.02378 0.20674 0.78455 0.0
C392 C 0.0764 0.28302 0.8018 0.0
C393 C 0.10373 0.23712 0.75744 0.0
C394 C 0.83088 0.28444 0.90688 0.0
N395 N 0.82702 0.24082 0.88809 0.0
C396 C 0.78433 0.3171 0.91299 0.0
C397 C 0.73388 0.30507 0.89949 0.0
C398 C 0.73069 0.26127 0.87982 0.0
C399 C 0.77798 0.22959 0.87427 0.0
C400 C 0.77049 0.08212 0.92122 0.0
C401 C 0.83961 0.083 0.87319 0.0
C402 C 0.80574 0.12707 0.91574 0.0
N403 N 0.83936 0.12731 0.89179 0.0
C404 C 0.80525 0.03729 0.87807 0.0
C405 C 0.77032 0.03702 0.90221 0.0
C406 C 0.97857 0.1285 0.85786 0.0
C407 C 0.10777 0.28862 0.90294 0.0
C408 C 0.09483 0.20979 0.85973 0.0
C409 C 0.14272 0.20932 0.87683 0.0
C410 C 0.14916 0.24909 0.89856 0.0
N411 N 0.0542 0.24854 0.86423 0.0
C412 C 0.06025 0.28764 0.88551 0.0
Co413 Co 0.80206 0.88759 0.38385 0.0
Co414 Co 0.74338 0.98718 0.34026 0.0
O415 O 0.74096 0.93962 0.37551 0.0
C416 C 0.79146 0.95551 0.43634 0.0
O417 O 0.78984 -0.0024 0.41834 0.0
C418 C 0.6264 0.95154 0.34668 0.0
O419 O 0.64311 0.90227 0.3551 0.0
O420 O 0.74475 0.91935 0.31599 0.0
O421 O 0.80841 0.86949 0.34087 0.0
H422 H 0.82315 0.05148 0.24487 0.0
H423 H 0.69836 0.86904 0.41789 0.0
O424 O 0.79618 0.90601 0.4267 0.0
H425 H 0.73993 0.69103 0.3695 0.0
H426 H 0.90984 0.74289 0.44007 0.0
H427 H 0.90867 0.86543 0.35419 0.0
H428 H 0.79691 0.77365 0.35988 0.0
H429 H 0.82995 0.80479 0.43058 0.0
O430 O 0.6607 0.98894 0.33934 0.0
H431 H 0.81305 0.98849 0.28669 0.0
H432 H 0.67731 0.0837 0.31828 0.0
H433 H 0.98904 0.80479 0.36289 0.0
H434 H 0.64047 0.7867 0.42858 0.0
H435 H 0.98995 0.7426 0.40601 0.0
H436 H 0.66173 0.69681 0.40457 0.0
O437 O 0.85573 0.94797 0.38005 0.0
H438 H 0.67251 0.1123 0.41973 0.0
H439 H 0.81298 0.08964 0.34266 0.0
H440 H 0.81408 0.1737 0.373 0.0
H441 H 0.7432 0.18578 0.41173 0.0
H442 H 0.6741 0.02773 0.38956 0.0
H443 H 0.68426 0.14607 0.27585 0.0
H444 H 0.75861 0.1311 0.23922 0.0
O445 O 0.82584 0.98792 0.33938 0.0
C446 C 0.78012 0.88009 0.31788 0.0
C447 C 0.79067 0.05855 0.26072 0.0
C448 C 0.71277 0.11164 0.27814 0.0
N449 N 0.74504 0.03269 0.30525 0.0
C450 C 0.78483 0.02312 0.2846 0.0
C451 C 0.7087 0.07583 0.302 0.0
C452 C 0.75446 0.1032 0.25757 0.0
C453 C 0.70716 0.83021 0.40708 0.0
N454 N 0.75075 0.82625 0.38826 0.0
C455 C 0.67439 0.78374 0.41323 0.0
C456 C 0.68629 0.73328 0.39974 0.0
C457 C 0.73008 0.72998 0.38003 0.0
C458 C 0.76186 0.77719 0.37444 0.0
C459 C 0.90982 0.76976 0.42118 0.0
C460 C 0.9085 0.8386 0.37302 0.0
C461 C 0.86477 0.80491 0.41574 0.0
N462 N 0.86433 0.83842 0.39174 0.0
C463 C 0.9543 0.80433 0.37785 0.0
C464 C 0.95479 0.76955 0.40206 0.0
C465 C 0.86328 0.97737 0.35777 0.0
C466 C 0.70357 0.10753 0.4029 0.0
C467 C 0.78249 0.09394 0.35975 0.0
C468 C 0.7831 0.14194 0.37674 0.0
C469 C 0.74329 0.14871 0.39843 0.0
N470 N 0.74355 0.05352 0.36432 0.0
C471 C 0.70441 0.05988 0.38559 0.0
C472 C 0.00763 0.46908 0.16404 0.0
C473 C 0.0259 0.4226 0.16411 0.0
C474 C 0.98355 0.52235 0.16401 0.0
C475 C 0.96536 0.56886 0.16403 0.0
C476 C 0.4693 0.98301 0.66439 0.0
C477 C 0.42277 0.96488 0.6644 0.0
C478 C 0.52257 0.00706 0.66434 0.0
C479 C 0.56904 0.02536 0.66427 0.0
C480 C 0.98458 0.46914 0.84728 0.0
C481 C 0.96632 0.42267 0.84738 0.0
C482 C 0.00861 0.52243 0.84723 0.0
C483 C 0.02671 0.56896 0.84725 0.0
C484 C 0.46929 0.0089 0.34776 0.0
C485 C 0.42275 0.02703 0.3477 0.0
C486 C 0.52254 0.98478 0.34782 0.0
C487 C 0.56896 0.96636 0.34788 0.0
C488 C 0.98487 0.203 0.99168 0.0
C489 C 0.96799 0.20158 0.96694 0.0
C490 C 0.00766 0.203 0.02008 0.0
C491 C 0.02451 0.20158 0.04482 0.0
C492 C 0.78905 0.00719 0.52003 0.0
C493 C 0.7902 0.02425 0.54473 0.0
C494 C 0.78913 0.98411 0.49172 0.0
C495 C 0.79041 0.96706 0.46702 0.0
C496 C 0.98402 0.78961 0.02006 0.0
C497 C 0.96716 0.79084 0.0448 0.0
C498 C 0.0069 0.78949 0.99167 0.0
C499 C 0.02389 0.79054 0.96695 0.0
C500 C 0.20215 0.00734 0.49172 0.0
C501 C 0.20088 0.02427 0.46699 0.0
C502 C 0.20228 0.98442 0.5201 0.0
C503 C 0.20119 0.96743 0.54482 0.0
C504 C 0.16302 0.18404 0.24264 0.0
C505 C 0.13958 0.19658 0.22039 0.0
C506 C 0.18404 0.16298 0.26915 0.0
C507 C 0.19656 0.13951 0.29141 0.0
C508 C 0.82957 0.18311 0.76912 0.0
C509 C 0.85291 0.19582 0.79137 0.0
C510 C 0.80851 0.16208 0.74262 0.0
C511 C 0.79579 0.13878 0.72036 0.0
C512 C 0.80798 0.82874 0.26923 0.0
C513 C 0.79531 0.85214 0.29146 0.0
C514 C 0.82911 0.8077 0.24274 0.0
C515 C 0.85254 0.79511 0.2205 0.0
C516 C 0.18403 0.82862 0.74265 0.0
C517 C 0.1965 0.85205 0.72038 0.0
C518 C 0.16308 0.80763 0.7692 0.0
C519 C 0.13965 0.79514 0.79146 0.0
C520 C -0.00198 0.02427 0.16463 0.0
C521 C 0.00321 0.07301 0.16176 0.0
C522 C -0.0037 0.96686 0.16456 0.0
C523 C 0.9903 0.91824 0.16166 0.0
C524 C 0.0247 0.99528 0.66418 0.0
C525 C 0.0734 0.98964 0.66143 0.0
C526 C 0.96729 -0.0032 0.66412 0.0
C527 C 0.91857 0.00219 0.6613 0.0
C528 C -0.00406 0.02457 0.84739 0.0
C529 C 0.9902 0.07321 0.85031 0.0
C530 C -0.00251 0.96717 0.84724 0.0
C531 C 0.00273 0.91843 0.85005 0.0
C532 C 0.96736 0.99389 0.34723 0.0
C533 C 0.91865 0.98857 0.35014 0.0
C534 C 0.02477 0.99566 0.34724 0.0
C535 C 0.0734 0.00161 0.35012 0.0
loop_
_geom_bond_atom_site_label_1
_geom_bond_atom_site_label_2
_geom_bond_distance
_geom_bond_site_symmetry_2
_ccdc_geom_bond_type
Co0 O2 2.143 . S
Co0 O8 2.074 . S
Co0 O11 2.093 . S
Co0 O24 2.097 . S
Co0 N41 2.151 . S
Co0 N49 2.214 . S
Co1 O2 2.160 . S
Co1 O7 2.058 . S
Co1 O17 2.057 1_455 S
Co1 O32 2.037 1_455 S
Co1 N36 2.145 1_455 S
Co1 N57 2.257 1_455 S
O2 Co0 2.143 . S
O2 Co1 2.160 . S
C3 O4 1.278 . S
C3 O11 1.224 . S
O4 C3 1.278 . S
C5 O6 1.245 . S
C5 O17 1.232 1_455 S
O6 C5 1.245 . S
O7 Co1 2.058 . S
O7 C33 1.269 . S
O8 Co0 2.074 . S
O8 C33 1.257 . S
H9 C34 0.930 . S
H10 C40 0.930 . S
O11 Co0 2.093 . S
O11 C3 1.224 . S
H12 C44 0.929 . S
H13 C46 0.930 . S
H14 C47 0.930 . S
H15 C45 0.929 . S
H16 C48 0.928 . S
O17 Co1 2.057 1_655 S
O17 C5 1.232 1_655 S
H18 C37 0.929 . S
H19 C38 0.929 . S
H20 C50 0.931 1_565 S
H21 C42 0.929 . S
H22 C51 0.930 1_565 S
H23 C43 0.931 . S
O24 Co0 2.097 . S
O24 C52 1.214 . S
H25 C53 0.929 . S
H26 C54 0.929 . S
H27 C55 0.930 . S
H28 C56 0.929 . S
H29 C58 0.930 . S
H30 C35 0.930 . S
H31 C39 0.930 . S
O32 Co1 2.037 1_655 S
O32 C52 1.234 1_655 S
C33 O7 1.269 . S
C33 O8 1.257 . S
C34 H9 0.930 . S
C34 C37 1.388 . S
C34 C39 1.418 . S
C35 H30 0.930 . S
C35 C38 1.404 . S
C35 C39 1.353 . S
N36 Co1 2.145 1_655 S
N36 C37 1.397 . S
N36 C38 1.334 . S
C37 H18 0.929 . S
C37 C34 1.388 . S
C37 N36 1.397 . S
C38 H19 0.929 . S
C38 C35 1.404 . S
C38 N36 1.334 . S
C39 H31 0.930 . S
C39 C34 1.418 . S
C39 C35 1.353 . S
C40 H10 0.930 . S
C40 N41 1.330 . S
C40 C42 1.446 . S
N41 Co0 2.151 . S
N41 C40 1.330 . S
N41 C45 1.418 . S
C42 H21 0.929 . S
C42 C40 1.446 . S
C42 C43 1.332 . S
C43 H23 0.931 . S
C43 C42 1.332 . S
C43 C44 1.267 . S
C44 H12 0.929 . S
C44 C43 1.267 . S
C44 C45 1.251 . S
C45 H15 0.929 . S
C45 N41 1.418 . S
C45 C44 1.251 . S
C46 H13 0.930 . S
C46 C48 1.406 . S
C46 C51 1.261 . S
C47 H14 0.930 . S
C47 N49 1.325 . S
C47 C50 1.357 . S
C48 H16 0.928 . S
C48 C46 1.406 . S
C48 N49 1.261 . S
N49 Co0 2.214 . S
N49 C47 1.325 . S
N49 C48 1.261 . S
C50 H20 0.931 1_545 S
C50 C47 1.357 . S
C50 C51 1.312 . S
C51 H22 0.930 1_545 S
C51 C46 1.261 . S
C51 C50 1.312 . S
C52 O24 1.214 . S
C52 O32 1.234 1_455 S
C53 H25 0.929 . S
C53 C56 1.391 . S
C53 C58 1.391 . S
C54 H26 0.929 . S
C54 C55 1.390 . S
C54 N57 1.391 . S
C55 H27 0.930 . S
C55 C54 1.390 . S
C55 C56 1.392 . S
C56 H28 0.929 . S
C56 C53 1.391 . S
C56 C55 1.392 . S
N57 Co1 2.257 1_655 S
N57 C54 1.391 . S
N57 C58 1.388 . S
C58 H29 0.930 . S
C58 C53 1.391 . S
C58 N57 1.388 . S
Co59 O61 2.143 . S
Co59 O67 2.074 . S
Co59 O70 2.093 . S
Co59 O83 2.097 . S
Co59 N100 2.151 . S
Co59 N108 2.214 . S
Co60 O61 2.160 . S
Co60 O66 2.058 . S
Co60 O76 2.057 1_545 S
Co60 O91 2.037 1_545 S
Co60 N95 2.145 1_545 S
Co60 N116 2.257 1_545 S
O61 Co59 2.143 . S
O61 Co60 2.160 . S
C62 O63 1.278 . S
C62 O70 1.224 . S
O63 C62 1.278 . S
C64 O65 1.245 . S
C64 O76 1.232 1_545 S
O65 C64 1.245 . S
O66 Co60 2.058 . S
O66 C92 1.269 . S
O67 Co59 2.074 . S
O67 C92 1.257 . S
H68 C93 0.930 . S
H69 C99 0.930 . S
O70 Co59 2.093 . S
O70 C62 1.224 . S
H71 C103 0.929 . S
H72 C105 0.930 . S
H73 C106 0.930 . S
H74 C104 0.929 . S
H75 C107 0.928 . S
O76 Co60 2.057 1_565 S
O76 C64 1.232 1_565 S
H77 C96 0.929 . S
H78 C97 0.929 . S
H79 C109 0.931 1_455 S
H80 C101 0.929 . S
H81 C110 0.930 1_455 S
H82 C102 0.931 . S
O83 Co59 2.097 . S
O83 C111 1.214 . S
H84 C112 0.929 . S
H85 C113 0.929 . S
H86 C114 0.930 . S
H87 C115 0.929 . S
H88 C117 0.930 . S
H89 C94 0.930 . S
H90 C98 0.930 . S
O91 Co60 2.037 1_565 S
O91 C111 1.234 1_565 S
C92 O66 1.269 . S
C92 O67 1.257 . S
C93 H68 0.930 . S
C93 C96 1.388 . S
C93 C98 1.418 . S
C94 H89 0.930 . S
C94 C97 1.404 . S
C94 C98 1.353 . S
N95 Co60 2.145 1_565 S
N95 C96 1.397 . S
N95 C97 1.334 . S
C96 H77 0.929 . S
C96 C93 1.388 . S
C96 N95 1.397 . S
C97 H78 0.929 . S
C97 C94 1.404 . S
C97 N95 1.334 . S
C98 H90 0.930 . S
C98 C93 1.418 . S
C98 C94 1.353 . S
C99 H69 0.930 . S
C99 N100 1.330 . S
C99 C101 1.446 . S
N100 Co59 2.151 . S
N100 C99 1.330 . S
N100 C104 1.418 . S
C101 H80 0.929 . S
C101 C99 1.446 . S
C101 C102 1.332 . S
C102 H82 0.931 . S
C102 C101 1.332 . S
C102 C103 1.267 . S
C103 H71 0.929 . S
C103 C102 1.267 . S
C103 C104 1.251 . S
C104 H74 0.929 . S
C104 N100 1.418 . S
C104 C103 1.251 . S
C105 H72 0.930 . S
C105 C107 1.406 . S
C105 C110 1.261 . S
C106 H73 0.930 . S
C106 N108 1.325 . S
C106 C109 1.357 . S
C107 H75 0.928 . S
C107 C105 1.406 . S
C107 N108 1.261 . S
N108 Co59 2.214 . S
N108 C106 1.325 . S
N108 C107 1.261 . S
C109 H79 0.931 1_655 S
C109 C106 1.357 . S
C109 C110 1.312 . S
C110 H81 0.930 1_655 S
C110 C105 1.261 . S
C110 C109 1.312 . S
C111 O83 1.214 . S
C111 O91 1.234 1_545 S
C112 H84 0.929 . S
C112 C115 1.391 . S
C112 C117 1.391 . S
C113 H85 0.929 . S
C113 C114 1.390 . S
C113 N116 1.391 . S
C114 H86 0.930 . S
C114 C113 1.390 . S
C114 C115 1.392 . S
C115 H87 0.929 . S
C115 C112 1.391 . S
C115 C114 1.392 . S
N116 Co60 2.257 1_565 S
N116 C113 1.391 . S
N116 C117 1.388 . S
C117 H88 0.930 . S
C117 C112 1.391 . S
C117 N116 1.388 . S
Co118 O120 2.143 . S
Co118 O126 2.074 . S
Co118 O129 2.093 . S
Co118 O142 2.097 . S
Co118 N159 2.151 . S
Co118 N167 2.214 . S
Co119 O120 2.160 . S
Co119 O125 2.058 . S
Co119 O135 2.057 1_655 S
Co119 O150 2.037 1_655 S
Co119 N154 2.145 1_655 S
Co119 N175 2.257 1_655 S
O120 Co118 2.143 . S
O120 Co119 2.160 . S
C121 O122 1.278 . S
C121 O129 1.224 . S
O122 C121 1.278 . S
C123 O124 1.245 . S
C123 O135 1.232 1_655 S
O124 C123 1.245 . S
O125 Co119 2.058 . S
O125 C151 1.269 . S
O126 Co118 2.074 . S
O126 C151 1.257 . S
H127 C152 0.930 . S
H128 C158 0.930 . S
O129 Co118 2.093 . S
O129 C121 1.224 . S
H130 C162 0.929 . S
H131 C164 0.930 . S
H132 C165 0.930 . S
H133 C163 0.929 . S
H134 C166 0.928 . S
O135 Co119 2.057 1_455 S
O135 C123 1.232 1_455 S
H136 C155 0.929 . S
H137 C156 0.929 . S
H138 C168 0.931 1_545 S
H139 C160 0.929 . S
H140 C169 0.930 1_545 S
H141 C161 0.931 . S
O142 Co118 2.097 . S
O142 C170 1.214 . S
H143 C171 0.929 . S
H144 C172 0.929 . S
H145 C173 0.930 . S
H146 C174 0.929 . S
H147 C176 0.930 . S
H148 C153 0.930 . S
H149 C157 0.930 . S
O150 Co119 2.037 1_455 S
O150 C170 1.234 1_455 S
C151 O125 1.269 . S
C151 O126 1.257 . S
C152 H127 0.930 . S
C152 C155 1.388 . S
C152 C157 1.418 . S
C153 H148 0.930 . S
C153 C156 1.404 . S
C153 C157 1.353 . S
N154 Co119 2.145 1_455 S
N154 C155 1.397 . S
N154 C156 1.334 . S
C155 H136 0.929 . S
C155 C152 1.388 . S
C155 N154 1.397 . S
C156 H137 0.929 . S
C156 C153 1.404 . S
C156 N154 1.334 . S
C157 H149 0.930 . S
C157 C152 1.418 . S
C157 C153 1.353 . S
C158 H128 0.930 . S
C158 N159 1.330 . S
C158 C160 1.446 . S
N159 Co118 2.151 . S
N159 C158 1.330 . S
N159 C163 1.418 . S
C160 H139 0.929 . S
C160 C158 1.446 . S
C160 C161 1.332 . S
C161 H141 0.931 . S
C161 C160 1.332 . S
C161 C162 1.267 . S
C162 H130 0.929 . S
C162 C161 1.267 . S
C162 C163 1.251 . S
C163 H133 0.929 . S
C163 N159 1.418 . S
C163 C162 1.251 . S
C164 H131 0.930 . S
C164 C166 1.406 . S
C164 C169 1.261 . S
C165 H132 0.930 . S
C165 N167 1.325 . S
C165 C168 1.357 . S
C166 H134 0.928 . S
C166 C164 1.406 . S
C166 N167 1.261 . S
N167 Co118 2.214 . S
N167 C165 1.325 . S
N167 C166 1.261 . S
C168 H138 0.931 1_565 S
C168 C165 1.357 . S
C168 C169 1.312 . S
C169 H140 0.930 1_565 S
C169 C164 1.261 . S
C169 C168 1.312 . S
C170 O142 1.214 . S
C170 O150 1.234 1_655 S
C171 H143 0.929 . S
C171 C174 1.391 . S
C171 C176 1.391 . S
C172 H144 0.929 . S
C172 C173 1.390 . S
C172 N175 1.391 . S
C173 H145 0.930 . S
C173 C172 1.390 . S
C173 C174 1.392 . S
C174 H146 0.929 . S
C174 C171 1.391 . S
C174 C173 1.392 . S
N175 Co119 2.257 1_455 S
N175 C172 1.391 . S
N175 C176 1.388 . S
C176 H147 0.930 . S
C176 C171 1.391 . S
C176 N175 1.388 . S
Co177 O179 2.143 . S
Co177 O185 2.074 . S
Co177 O188 2.093 . S
Co177 O201 2.097 . S
Co177 N218 2.151 . S
Co177 N226 2.214 . S
Co178 O179 2.160 . S
Co178 O184 2.058 . S
Co178 O194 2.057 1_565 S
Co178 O209 2.037 1_565 S
Co178 N213 2.145 1_565 S
Co178 N234 2.257 1_565 S
O179 Co177 2.143 . S
O179 Co178 2.160 . S
C180 O181 1.278 . S
C180 O188 1.224 . S
O181 C180 1.278 . S
C182 O183 1.245 . S
C182 O194 1.232 1_565 S
O183 C182 1.245 . S
O184 Co178 2.058 . S
O184 C210 1.269 . S
O185 Co177 2.074 . S
O185 C210 1.257 . S
H186 C211 0.930 . S
H187 C217 0.930 . S
O188 Co177 2.093 . S
O188 C180 1.224 . S
H189 C221 0.929 . S
H190 C223 0.930 . S
H191 C224 0.930 . S
H192 C222 0.929 . S
H193 C225 0.928 . S
O194 Co178 2.057 1_545 S
O194 C182 1.232 1_545 S
H195 C214 0.929 . S
H196 C215 0.929 . S
H197 C227 0.931 1_655 S
H198 C219 0.929 . S
H199 C228 0.930 1_655 S
H200 C220 0.931 . S
O201 Co177 2.097 . S
O201 C229 1.214 . S
H202 C230 0.929 . S
H203 C231 0.929 . S
H204 C232 0.930 . S
H205 C233 0.929 . S
H206 C235 0.930 . S
H207 C212 0.930 . S
H208 C216 0.930 . S
O209 Co178 2.037 1_545 S
O209 C229 1.234 1_545 S
C210 O184 1.269 . S
C210 O185 1.257 . S
C211 H186 0.930 . S
C211 C214 1.388 . S
C211 C216 1.418 . S
C212 H207 0.930 . S
C212 C215 1.404 . S
C212 C216 1.353 . S
N213 Co178 2.145 1_545 S
N213 C214 1.397 . S
N213 C215 1.334 . S
C214 H195 0.929 . S
C214 C211 1.388 . S
C214 N213 1.397 . S
C215 H196 0.929 . S
C215 C212 1.404 . S
C215 N213 1.334 . S
C216 H208 0.930 . S
C216 C211 1.418 . S
C216 C212 1.353 . S
C217 H187 0.930 . S
C217 N218 1.330 . S
C217 C219 1.446 . S
N218 Co177 2.151 . S
N218 C217 1.330 . S
N218 C222 1.418 . S
C219 H198 0.929 . S
C219 C217 1.446 . S
C219 C220 1.332 . S
C220 H200 0.931 . S
C220 C219 1.332 . S
C220 C221 1.267 . S
C221 H189 0.929 . S
C221 C220 1.267 . S
C221 C222 1.251 . S
C222 H192 0.929 . S
C222 N218 1.418 . S
C222 C221 1.251 . S
C223 H190 0.930 . S
C223 C225 1.406 . S
C223 C228 1.261 . S
C224 H191 0.930 . S
C224 N226 1.325 . S
C224 C227 1.357 . S
C225 H193 0.928 . S
C225 C223 1.406 . S
C225 N226 1.261 . S
N226 Co177 2.214 . S
N226 C224 1.325 . S
N226 C225 1.261 . S
C227 H197 0.931 1_455 S
C227 C224 1.357 . S
C227 C228 1.312 . S
C228 H199 0.930 1_455 S
C228 C223 1.261 . S
C228 C227 1.312 . S
C229 O201 1.214 . S
C229 O209 1.234 1_565 S
C230 H202 0.929 . S
C230 C233 1.391 . S
C230 C235 1.391 . S
C231 H203 0.929 . S
C231 C232 1.390 . S
C231 N234 1.391 . S
C232 H204 0.930 . S
C232 C231 1.390 . S
C232 C233 1.392 . S
C233 H205 0.929 . S
C233 C230 1.391 . S
C233 C232 1.392 . S
N234 Co178 2.257 1_545 S
N234 C231 1.391 . S
N234 C235 1.388 . S
C235 H206 0.930 . S
C235 C230 1.391 . S
C235 N234 1.388 . S
Co236 O238 2.143 . S
Co236 O244 2.074 . S
Co236 O247 2.093 . S
Co236 O260 2.097 . S
Co236 N277 2.151 . S
Co236 N285 2.214 . S
Co237 O238 2.160 . S
Co237 O243 2.058 . S
Co237 O253 2.057 1_455 S
Co237 O268 2.037 1_455 S
Co237 N272 2.145 1_455 S
Co237 N293 2.257 1_455 S
O238 Co236 2.143 . S
O238 Co237 2.160 . S
C239 O240 1.278 . S
C239 O247 1.224 . S
O240 C239 1.278 . S
C241 O242 1.245 . S
C241 O253 1.232 1_455 S
O242 C241 1.245 . S
O243 Co237 2.058 . S
O243 C269 1.269 . S
O244 Co236 2.074 . S
O244 C269 1.257 . S
H245 C270 0.930 . S
H246 C276 0.930 . S
O247 Co236 2.093 . S
O247 C239 1.224 . S
H248 C280 0.929 . S
H249 C282 0.930 . S
H250 C283 0.930 . S
H251 C281 0.929 . S
H252 C284 0.928 . S
O253 Co237 2.057 1_655 S
O253 C241 1.232 1_655 S
H254 C273 0.929 . S
H255 C274 0.929 . S
H256 C286 0.931 1_545 S
H257 C278 0.929 . S
H258 C287 0.930 1_545 S
H259 C279 0.931 . S
O260 Co236 2.097 . S
O260 C288 1.214 . S
H261 C289 0.929 . S
H262 C290 0.929 . S
H263 C291 0.930 . S
H264 C292 0.929 . S
H265 C294 0.930 . S
H266 C271 0.930 . S
H267 C275 0.930 . S
O268 Co237 2.037 1_655 S
O268 C288 1.234 1_655 S
C269 O243 1.269 . S
C269 O244 1.257 . S
C270 H245 0.930 . S
C270 C273 1.388 . S
C270 C275 1.418 . S
C271 H266 0.930 . S
C271 C274 1.404 . S
C271 C275 1.353 . S
N272 Co237 2.145 1_655 S
N272 C273 1.397 . S
N272 C274 1.334 . S
C273 H254 0.929 . S
C273 C270 1.388 . S
C273 N272 1.397 . S
C274 H255 0.929 . S
C274 C271 1.404 . S
C274 N272 1.334 . S
C275 H267 0.930 . S
C275 C270 1.418 . S
C275 C271 1.353 . S
C276 H246 0.930 . S
C276 N277 1.330 . S
C276 C278 1.446 . S
N277 Co236 2.151 . S
N277 C276 1.330 . S
N277 C281 1.418 . S
C278 H257 0.929 . S
C278 C276 1.446 . S
C278 C279 1.332 . S
C279 H259 0.931 . S
C279 C278 1.332 . S
C279 C280 1.267 . S
C280 H248 0.929 . S
C280 C279 1.267 . S
C280 C281 1.251 . S
C281 H251 0.929 . S
C281 N277 1.418 . S
C281 C280 1.251 . S
C282 H249 0.930 . S
C282 C284 1.406 . S
C282 C287 1.261 . S
C283 H250 0.930 . S
C283 N285 1.325 . S
C283 C286 1.357 . S
C284 H252 0.928 . S
C284 C282 1.406 . S
C284 N285 1.261 . S
N285 Co236 2.214 . S
N285 C283 1.325 . S
N285 C284 1.261 . S
C286 H256 0.931 1_565 S
C286 C283 1.357 . S
C286 C287 1.312 . S
C287 H258 0.930 1_565 S
C287 C282 1.261 . S
C287 C286 1.312 . S
C288 O260 1.214 . S
C288 O268 1.234 1_455 S
C289 H261 0.929 . S
C289 C292 1.391 . S
C289 C294 1.391 . S
C290 H262 0.929 . S
C290 C291 1.390 . S
C290 N293 1.391 . S
C291 H263 0.930 . S
C291 C290 1.390 . S
C291 C292 1.392 . S
C292 H264 0.929 . S
C292 C289 1.391 . S
C292 C291 1.392 . S
N293 Co237 2.257 1_655 S
N293 C290 1.391 . S
N293 C294 1.388 . S
C294 H265 0.930 . S
C294 C289 1.391 . S
C294 N293 1.388 . S
Co295 O297 2.143 . S
Co295 O303 2.074 . S
Co295 O306 2.093 . S
Co295 O319 2.097 . S
Co295 N336 2.151 . S
Co295 N344 2.214 . S
Co296 O297 2.160 . S
Co296 O302 2.058 . S
Co296 O312 2.057 1_545 S
Co296 O327 2.037 1_545 S
Co296 N331 2.145 1_545 S
Co296 N352 2.257 1_545 S
O297 Co295 2.143 . S
O297 Co296 2.160 . S
C298 O299 1.278 . S
C298 O306 1.224 . S
O299 C298 1.278 . S
C300 O301 1.245 . S
C300 O312 1.232 1_545 S
O301 C300 1.245 . S
O302 Co296 2.058 . S
O302 C328 1.269 . S
O303 Co295 2.074 . S
O303 C328 1.257 . S
H304 C329 0.930 . S
H305 C335 0.930 . S
O306 Co295 2.093 . S
O306 C298 1.224 . S
H307 C339 0.929 . S
H308 C341 0.930 . S
H309 C342 0.930 . S
H310 C340 0.929 . S
H311 C343 0.928 . S
O312 Co296 2.057 1_565 S
O312 C300 1.232 1_565 S
H313 C332 0.929 . S
H314 C333 0.929 . S
H315 C345 0.931 1_655 S
H316 C337 0.929 . S
H317 C346 0.930 1_655 S
H318 C338 0.931 . S
O319 Co295 2.097 . S
O319 C347 1.214 . S
H320 C348 0.929 . S
H321 C349 0.929 . S
H322 C350 0.930 . S
H323 C351 0.929 . S
H324 C353 0.930 . S
H325 C330 0.930 . S
H326 C334 0.930 . S
O327 Co296 2.037 1_565 S
O327 C347 1.234 1_565 S
C328 O302 1.269 . S
C328 O303 1.257 . S
C329 H304 0.930 . S
C329 C332 1.388 . S
C329 C334 1.418 . S
C330 H325 0.930 . S
C330 C333 1.404 . S
C330 C334 1.353 . S
N331 Co296 2.145 1_565 S
N331 C332 1.397 . S
N331 C333 1.334 . S
C332 H313 0.929 . S
C332 C329 1.388 . S
C332 N331 1.397 . S
C333 H314 0.929 . S
C333 C330 1.404 . S
C333 N331 1.334 . S
C334 H326 0.930 . S
C334 C329 1.418 . S
C334 C330 1.353 . S
C335 H305 0.930 . S
C335 N336 1.330 . S
C335 C337 1.446 . S
N336 Co295 2.151 . S
N336 C335 1.330 . S
N336 C340 1.418 . S
C337 H316 0.929 . S
C337 C335 1.446 . S
C337 C338 1.332 . S
C338 H318 0.931 . S
C338 C337 1.332 . S
C338 C339 1.267 . S
C339 H307 0.929 . S
C339 C338 1.267 . S
C339 C340 1.251 . S
C340 H310 0.929 . S
C340 N336 1.418 . S
C340 C339 1.251 . S
C341 H308 0.930 . S
C341 C343 1.406 . S
C341 C346 1.261 . S
C342 H309 0.930 . S
C342 N344 1.325 . S
C342 C345 1.357 . S
C343 H311 0.928 . S
C343 C341 1.406 . S
C343 N344 1.261 . S
N344 Co295 2.214 . S
N344 C342 1.325 . S
N344 C343 1.261 . S
C345 H315 0.931 1_455 S
C345 C342 1.357 . S
C345 C346 1.312 . S
C346 H317 0.930 1_455 S
C346 C341 1.261 . S
C346 C345 1.312 . S
C347 O319 1.214 . S
C347 O327 1.234 1_545 S
C348 H320 0.929 . S
C348 C351 1.391 . S
C348 C353 1.391 . S
C349 H321 0.929 . S
C349 C350 1.390 . S
C349 N352 1.391 . S
C350 H322 0.930 . S
C350 C349 1.390 . S
C350 C351 1.392 . S
C351 H323 0.929 . S
C351 C348 1.391 . S
C351 C350 1.392 . S
N352 Co296 2.257 1_565 S
N352 C349 1.391 . S
N352 C353 1.388 . S
C353 H324 0.930 . S
C353 C348 1.391 . S
C353 N352 1.388 . S
Co354 O356 2.143 . S
Co354 O362 2.074 . S
Co354 O365 2.093 . S
Co354 O378 2.097 . S
Co354 N395 2.151 . S
Co354 N403 2.214 . S
Co355 O356 2.160 . S
Co355 O361 2.058 . S
Co355 O371 2.057 1_655 S
Co355 O386 2.037 1_655 S
Co355 N390 2.145 1_655 S
Co355 N411 2.257 1_655 S
O356 Co354 2.143 . S
O356 Co355 2.160 . S
C357 O358 1.278 . S
C357 O365 1.224 . S
O358 C357 1.278 . S
C359 O360 1.245 . S
C359 O371 1.232 1_655 S
O360 C359 1.245 . S
O361 Co355 2.058 . S
O361 C387 1.269 . S
O362 Co354 2.074 . S
O362 C387 1.257 . S
H363 C388 0.930 . S
H364 C394 0.930 . S
O365 Co354 2.093 . S
O365 C357 1.224 . S
H366 C398 0.929 . S
H367 C400 0.930 . S
H368 C401 0.930 . S
H369 C399 0.929 . S
H370 C402 0.928 . S
O371 Co355 2.057 1_455 S
O371 C359 1.232 1_455 S
H372 C391 0.929 . S
H373 C392 0.929 . S
H374 C404 0.931 1_565 S
H375 C396 0.929 . S
H376 C405 0.930 1_565 S
H377 C397 0.931 . S
O378 Co354 2.097 . S
O378 C406 1.214 . S
H379 C407 0.929 . S
H380 C408 0.929 . S
H381 C409 0.930 . S
H382 C410 0.929 . S
H383 C412 0.930 . S
H384 C389 0.930 . S
H385 C393 0.930 . S
O386 Co355 2.037 1_455 S
O386 C406 1.234 1_455 S
C387 O361 1.269 . S
C387 O362 1.257 . S
C388 H363 0.930 . S
C388 C391 1.388 . S
C388 C393 1.418 . S
C389 H384 0.930 . S
C389 C392 1.404 . S
C389 C393 1.353 . S
N390 Co355 2.145 1_455 S
N390 C391 1.397 . S
N390 C392 1.334 . S
C391 H372 0.929 . S
C391 C388 1.388 . S
C391 N390 1.397 . S
C392 H373 0.929 . S
C392 C389 1.404 . S
C392 N390 1.334 . S
C393 H385 0.930 . S
C393 C388 1.418 . S
C393 C389 1.353 . S
C394 H364 0.930 . S
C394 N395 1.330 . S
C394 C396 1.446 . S
N395 Co354 2.151 . S
N395 C394 1.330 . S
N395 C399 1.418 . S
C396 H375 0.929 . S
C396 C394 1.446 . S
C396 C397 1.332 . S
C397 H377 0.931 . S
C397 C396 1.332 . S
C397 C398 1.267 . S
C398 H366 0.929 . S
C398 C397 1.267 . S
C398 C399 1.251 . S
C399 H369 0.929 . S
C399 N395 1.418 . S
C399 C398 1.251 . S
C400 H367 0.930 . S
C400 C402 1.406 . S
C400 C405 1.261 . S
C401 H368 0.930 . S
C401 N403 1.325 . S
C401 C404 1.357 . S
C402 H370 0.928 . S
C402 C400 1.406 . S
C402 N403 1.261 . S
N403 Co354 2.214 . S
N403 C401 1.325 . S
N403 C402 1.261 . S
C404 H374 0.931 1_545 S
C404 C401 1.357 . S
C404 C405 1.312 . S
C405 H376 0.930 1_545 S
C405 C400 1.261 . S
C405 C404 1.312 . S
C406 O378 1.214 . S
C406 O386 1.234 1_655 S
C407 H379 0.929 . S
C407 C410 1.391 . S
C407 C412 1.391 . S
C408 H380 0.929 . S
C408 C409 1.390 . S
C408 N411 1.391 . S
C409 H381 0.930 . S
C409 C408 1.390 . S
C409 C410 1.392 . S
C410 H382 0.929 . S
C410 C407 1.391 . S
C410 C409 1.392 . S
N411 Co355 2.257 1_455 S
N411 C408 1.391 . S
N411 C412 1.388 . S
C412 H383 0.930 . S
C412 C407 1.391 . S
C412 N411 1.388 . S
Co413 O415 2.143 . S
Co413 O421 2.074 . S
Co413 O424 2.093 . S
Co413 O437 2.097 . S
Co413 N454 2.151 . S
Co413 N462 2.214 . S
Co414 O415 2.160 . S
Co414 O420 2.058 . S
Co414 O430 2.057 1_565 S
Co414 O445 2.037 1_565 S
Co414 N449 2.145 1_565 S
Co414 N470 2.257 1_565 S
O415 Co413 2.143 . S
O415 Co414 2.160 . S
C416 O417 1.278 . S
C416 O424 1.224 . S
O417 C416 1.278 . S
C418 O419 1.245 . S
C418 O430 1.232 1_565 S
O419 C418 1.245 . S
O420 Co414 2.058 . S
O420 C446 1.269 . S
O421 Co413 2.074 . S
O421 C446 1.257 . S
H422 C447 0.930 . S
H423 C453 0.930 . S
O424 Co413 2.093 . S
O424 C416 1.224 . S
H425 C457 0.929 . S
H426 C459 0.930 . S
H427 C460 0.930 . S
H428 C458 0.929 . S
H429 C461 0.928 . S
O430 Co414 2.057 1_545 S
O430 C418 1.232 1_545 S
H431 C450 0.929 . S
H432 C451 0.929 . S
H433 C463 0.931 1_455 S
H434 C455 0.929 . S
H435 C464 0.930 1_455 S
H436 C456 0.931 . S
O437 Co413 2.097 . S
O437 C465 1.214 . S
H438 C466 0.929 . S
H439 C467 0.929 . S
H440 C468 0.930 . S
H441 C469 0.929 . S
H442 C471 0.930 . S
H443 C448 0.930 . S
H444 C452 0.930 . S
O445 Co414 2.037 1_545 S
O445 C465 1.234 1_545 S
C446 O420 1.269 . S
C446 O421 1.257 . S
C447 H422 0.930 . S
C447 C450 1.388 . S
C447 C452 1.418 . S
C448 H443 0.930 . S
C448 C451 1.404 . S
C448 C452 1.353 . S
N449 Co414 2.145 1_545 S
N449 C450 1.397 . S
N449 C451 1.334 . S
C450 H431 0.929 . S
C450 C447 1.388 . S
C450 N449 1.397 . S
C451 H432 0.929 . S
C451 C448 1.404 . S
C451 N449 1.334 . S
C452 H444 0.930 . S
C452 C447 1.418 . S
C452 C448 1.353 . S
C453 H423 0.930 . S
C453 N454 1.330 . S
C453 C455 1.446 . S
N454 Co413 2.151 . S
N454 C453 1.330 . S
N454 C458 1.418 . S
C455 H434 0.929 . S
C455 C453 1.446 . S
C455 C456 1.332 . S
C456 H436 0.931 . S
C456 C455 1.332 . S
C456 C457 1.267 . S
C457 H425 0.929 . S
C457 C456 1.267 . S
C457 C458 1.251 . S
C458 H428 0.929 . S
C458 N454 1.418 . S
C458 C457 1.251 . S
C459 H426 0.930 . S
C459 C461 1.406 . S
C459 C464 1.261 . S
C460 H427 0.930 . S
C460 N462 1.325 . S
C460 C463 1.357 . S
C461 H429 0.928 . S
C461 C459 1.406 . S
C461 N462 1.261 . S
N462 Co413 2.214 . S
N462 C460 1.325 . S
N462 C461 1.261 . S
C463 H433 0.931 1_655 S
C463 C460 1.357 . S
C463 C464 1.312 . S
C464 H435 0.930 1_655 S
C464 C459 1.261 . S
C464 C463 1.312 . S
C465 O437 1.214 . S
C465 O445 1.234 1_565 S
C466 H438 0.929 . S
C466 C469 1.391 . S
C466 C471 1.391 . S
C467 H439 0.929 . S
C467 C468 1.390 . S
C467 N470 1.391 . S
C468 H440 0.930 . S
C468 C467 1.390 . S
C468 C469 1.392 . S
C469 H441 0.929 . S
C469 C466 1.391 . S
C469 C468 1.392 . S
N470 Co414 2.257 1_545 S
N470 C467 1.391 . S
N470 C471 1.388 . S
C471 H442 0.930 . S
C471 C466 1.391 . S
C471 N470 1.388 . S
C472 C473 1.170 . S
C472 C474 1.380 1_455 S
C473 C472 1.170 . S
C474 C472 1.380 1_655 S
C474 C475 1.170 . S
C475 C474 1.170 . S
C476 C477 1.170 . S
C476 C478 1.380 1_565 S
C477 C476 1.170 . S
C478 C476 1.380 1_545 S
C478 C479 1.170 . S
C479 C478 1.170 . S
C480 C481 1.171 . S
C480 C482 1.380 1_655 S
C481 C480 1.171 . S
C482 C480 1.380 1_455 S
C482 C483 1.170 . S
C483 C482 1.170 . S
C484 C485 1.170 . S
C484 C486 1.382 . S
C485 C484 1.170 . S
C486 C484 1.382 . S
C486 C487 1.168 1_545 S
C487 C486 1.168 1_565 S
C488 C489 1.170 . S
C488 C490 1.380 1_656 S
C489 C488 1.170 . S
C490 C488 1.380 1_454 S
C490 C491 1.170 . S
C491 C490 1.170 . S
C492 C493 1.170 . S
C492 C494 1.380 1_545 S
C493 C492 1.170 . S
C494 C492 1.380 1_565 S
C494 C495 1.170 . S
C495 C494 1.170 . S
C496 C497 1.170 . S
C496 C498 1.380 1_654 S
C497 C496 1.170 . S
C498 C496 1.380 1_456 S
C498 C499 1.170 . S
C499 C498 1.170 . S
C500 C501 1.170 . S
C500 C502 1.380 1_545 S
C501 C500 1.170 . S
C502 C500 1.380 1_565 S
C502 C503 1.170 . S
C503 C502 1.170 . S
C504 C505 1.170 . S
C504 C506 1.380 . S
C505 C504 1.170 . S
C506 C504 1.380 . S
C506 C507 1.170 . S
C507 C506 1.170 . S
C508 C509 1.170 . S
C508 C510 1.380 . S
C509 C508 1.170 . S
C510 C508 1.380 . S
C510 C511 1.170 . S
C511 C510 1.170 . S
C512 C513 1.170 . S
C512 C514 1.380 . S
C513 C512 1.170 . S
C514 C512 1.380 . S
C514 C515 1.170 . S
C515 C514 1.170 . S
C516 C517 1.170 . S
C516 C518 1.380 . S
C517 C516 1.170 . S
C518 C516 1.380 . S
C518 C519 1.170 . S
C519 C518 1.170 . S
C520 C521 1.170 . S
C520 C522 1.380 1_545 S
C521 C520 1.170 . S
C522 C520 1.380 1_565 S
C522 C523 1.169 1_455 S
C523 C522 1.169 1_655 S
C524 C525 1.170 . S
C524 C526 1.380 1_465 S
C525 C524 1.170 . S
C526 C524 1.380 1_645 S
C526 C527 1.170 . S
C527 C526 1.170 . S
C528 C529 1.169 1_455 S
C528 C530 1.380 1_545 S
C529 C528 1.169 1_655 S
C530 C528 1.380 1_565 S
C530 C531 1.170 . S
C531 C530 1.170 . S
C532 C533 1.170 . S
C532 C534 1.380 1_655 S
C533 C532 1.170 . S
C534 C532 1.380 1_455 S
C534 C535 1.170 1_565 S
C535 C534 1.170 1_545 S
C473 C5 1.424 . S
C475 C123 1.424 . S
C477 C182 1.420 . S
C479 C64 1.429 . S
C481 C359 1.436 . S
C483 C241 1.424 . S
C485 C300 1.419 . S
C487 C418 1.433 . S
C489 C357 1.596 . S
C491 C3 1.619 . S
C493 C62 1.575 . S
C495 C416 1.595 . S
C497 C121 1.603 . S
C499 C239 1.574 . S
C501 C298 1.608 . S
C503 C180 1.575 . S
C505 C33 1.405 . S
C507 C328 1.399 . S
C509 C387 1.377 . S
C511 C92 1.391 . S
C513 C446 1.403 . S
C515 C151 1.380 . S
C517 C210 1.398 . S
C519 C269 1.405 . S
C521 C52 1.080 . S
C523 C170 1.104 . S
C525 C229 1.072 . S
C527 C111 1.066 . S
C529 C406 1.106 . S
C531 C288 1.085 . S
C533 C465 1.086 . S
C535 C347 1.100 . S
