# Generated by pormake.
# Topology uon, (4)-cn, num edge types: 1
# Building blocks:
#     Node 0, Type 0, BuildingBlock: MUDLON_clean_sbu_0, # of connection points: 4
#     Node 1, Type 0, BuildingBlock: MUDLON_clean_sbu_0, # of connection points: 4
#     Node 2, Type 0, BuildingBlock: MUDLON_clean_sbu_0, # of connection points: 4
#     Node 3, Type 0, BuildingBlock: MUDLON_clean_sbu_0, # of connection points: 4
#     Node 4, Type 0, BuildingBlock: MUDLON_clean_sbu_0, # of connection points: 4
#     Node 5, Type 0, BuildingBlock: MUDLON_clean_sbu_0, # of connection points: 4
#     Edge 6, Type (0, 0), BuildingBlock: MIFKUJ_clean_linker_0, # of connection points: 2
#     Edge 7, Type (0, 0), BuildingBlock: MIFKUJ_clean_linker_0, # of connection points: 2
#     Edge 8, Type (0, 0), BuildingBlock: MIFKUJ_clean_linker_0, # of connection points: 2
#     Edge 9, Type (0, 0), BuildingBlock: MIFKUJ_clean_linker_0, # of connection points: 2
#     Edge 10, Type (0, 0), BuildingBlock: MIFKUJ_clean_linker_0, # of connection points: 2
#     Edge 11, Type (0, 0), BuildingBlock: MIFKUJ_clean_linker_0, # of connection points: 2
#     Edge 12, Type (0, 0), BuildingBlock: MIFKUJ_clean_linker_0, # of connection points: 2
#     Edge 13, Type (0, 0), BuildingBlock: MIFKUJ_clean_linker_0, # of connection points: 2
#     Edge 14, Type (0, 0), BuildingBlock: MIFKUJ_clean_linker_0, # of connection points: 2
#     Edge 15, Type (0, 0), BuildingBlock: MIFKUJ_clean_linker_0, # of connection points: 2
#     Edge 16, Type (0, 0), BuildingBlock: MIFKUJ_clean_linker_0, # of connection points: 2
#     Edge 17, Type (0, 0), BuildingBlock: MIFKUJ_clean_linker_0, # of connection points: 2
# Relax obj value: 0.139
# Max RMSD: 0.110
# Mean RMSD: 0.106
data_MOF--net-uon--node1-MUDLON_clean_sbu_0--edge1-MIFKUJ_clean_linker_0
_symmetry_space_group_name_H-M    P1
_symmetry_Int_Tables_number       1
_symmetry_cell_setting            triclinic
loop_
_symmetry_equiv_pos_as_xyz
'x, y, z'
_cell_length_a     48.405184
_cell_length_b     48.400282
_cell_length_c     21.736429
_cell_angle_alpha  90.392096
_cell_angle_beta   89.620227
_cell_angle_gamma 119.99196
loop_
_atom_site_label
_atom_site_type_symbol
_atom_site_fract_x
_atom_site_fract_y
_atom_site_fract_z
_atom_type_partial_charge
Mg0 Mg 0.23343 0.44201 0.21675 0.0
C1 C 0.29275 0.49464 0.17584 0.0
O2 O 0.29921 0.47318 0.1973 0.0
C3 C 0.16368 0.39729 0.22768 0.0
O4 O 0.17527 0.37794 0.23173 0.0
C5 C 0.25523 0.39321 0.1962 0.0
O6 O 0.26154 0.39767 0.25532 0.0
O7 O 0.24273 0.4077 0.17013 0.0
O8 O 0.26373 0.48774 0.17363 0.0
O9 O 0.25204 0.4544 0.30927 0.0
C10 C 0.23404 0.45311 0.35325 0.0
O11 O 0.20306 0.43466 0.3472 0.0
O12 O 0.18288 0.42678 0.21838 0.0
Mg13 Mg 0.76937 0.19805 0.40421 0.0
C14 C 0.77883 0.21891 0.2734 0.0
O15 O 0.80762 0.22327 0.28148 0.0
C16 C 0.75947 0.15001 0.49793 0.0
O17 O 0.7773 0.1772 0.52669 0.0
C18 C 0.83496 0.25686 0.40399 0.0
O19 O 0.81784 0.27064 0.39496 0.0
O20 O 0.82077 0.22686 0.41228 0.0
O21 O 0.75678 0.2003 0.3098 0.0
O22 O 0.74482 0.22024 0.44719 0.0
C23 C 0.72032 0.20437 0.48069 0.0
O24 O 0.71257 0.17539 0.49762 0.0
O25 O 0.75213 0.1507 0.4421 0.0
Mg26 Mg 0.56308 0.79723 0.90055 0.0
C27 C 0.50301 0.79581 0.88379 0.0
O28 O 0.52109 0.82214 0.91486 0.0
C29 C 0.60656 0.76928 0.89846 0.0
O30 O 0.62759 0.79909 0.88585 0.0
C31 C 0.60822 0.86704 0.86875 0.0
O32 O 0.60421 0.87107 0.92729 0.0
O33 O 0.59474 0.83895 0.84655 0.0
O34 O 0.51484 0.77867 0.86703 0.0
O35 O 0.55797 0.8068 0.99613 0.0
C36 C 0.56507 0.79237 0.03609 0.0
O37 O 0.58971 0.78861 0.02506 0.0
O38 O 0.57728 0.76119 0.90264 0.0
Mg39 Mg 0.8007 0.56986 0.08447 0.0
C40 C 0.77416 0.54812 0.95749 0.0
O41 O 0.7648 0.56907 0.96618 0.0
C42 C 0.8519 0.61775 0.16203 0.0
O43 O 0.82573 0.61273 0.19035 0.0
C44 C 0.74217 0.5798 0.09433 0.0
O45 O 0.72545 0.54882 0.10289 0.0
O46 O 0.77234 0.59329 0.08915 0.0
O47 O 0.79427 0.54794 0.99451 0.0
O48 O 0.78661 0.528 0.14088 0.0
C49 C 0.80748 0.51945 0.13544 0.0
O50 O 0.83358 0.53791 0.10408 0.0
O51 O 0.84937 0.6036 0.11109 0.0
Mg52 Mg 0.2013 0.76386 0.57019 0.0
C53 C 0.20849 0.7106 0.53837 0.0
O54 O 0.18044 0.69934 0.56494 0.0
C55 C 0.21825 0.83188 0.58786 0.0
O56 O 0.18704 0.81727 0.59315 0.0
C57 C 0.13186 0.74518 0.53862 0.0
O58 O 0.12958 0.75077 0.59712 0.0
O59 O 0.15809 0.74896 0.51767 0.0
O60 O 0.22493 0.74043 0.52856 0.0
O61 O 0.19466 0.74401 0.66184 0.0
C62 C 0.20986 0.76223 0.70651 0.0
O63 O 0.21888 0.79266 0.70246 0.0
O64 O 0.23142 0.81542 0.57554 0.0
Mg65 Mg 0.43499 0.23393 0.74988 0.0
C66 C 0.45436 0.23355 0.618 0.0
O67 O 0.43079 0.20391 0.62034 0.0
C68 C 0.3963 0.24392 0.84094 0.0
O69 O 0.40901 0.22964 0.87126 0.0
C70 C 0.38379 0.16499 0.74336 0.0
O71 O 0.36625 0.17868 0.74091 0.0
O72 O 0.41381 0.18239 0.74936 0.0
O73 O 0.45745 0.25244 0.66168 0.0
O74 O 0.47628 0.25755 0.80851 0.0
C75 C 0.50161 0.25734 0.79368 0.0
O76 O 0.50046 0.23815 0.74945 0.0
O77 O 0.40212 0.2488 0.78367 0.0
H78 H 0.28227 0.35863 0.23628 0.0
H79 H 0.30277 0.33068 0.17346 0.0
H80 H 0.27242 0.3572 0.00895 0.0
H81 H 0.25126 0.38459 0.0714 0.0
H82 H 0.26109 0.29763 0.99891 0.0
H83 H 0.34999 0.39851 0.05504 0.0
H84 H 0.38566 0.44184 0.12526 0.0
H85 H 0.40937 0.37815 0.21691 0.0
H86 H 0.37345 0.33429 0.14776 0.0
H87 H 0.3653 0.27364 0.79389 0.0
H88 H 0.33773 0.29647 0.8519 0.0
H89 H 0.35835 0.2648 0.02154 0.0
H90 H 0.38573 0.242 0.96439 0.0
H91 H 0.37454 0.32793 0.02533 0.0
H92 H 0.28451 0.22684 0.9655 0.0
H93 H 0.24963 0.18518 0.89166 0.0
H94 H 0.22957 0.25189 0.80168 0.0
H95 H 0.26471 0.29409 0.87452 0.0
C96 C 0.27969 0.35828 0.18678 0.0
C97 C 0.26536 0.37407 0.15888 0.0
C98 C 0.29155 0.34241 0.15089 0.0
C99 C 0.28963 0.34233 0.08639 0.0
C100 C 0.27425 0.35703 0.05858 0.0
C101 C 0.26224 0.37276 0.09442 0.0
C102 C 0.30464 0.32789 0.04792 0.0
C103 C 0.286 0.30452 0.00418 0.0
C104 C 0.33708 0.3367 0.05502 0.0
C105 C 0.35878 0.36304 0.09661 0.0
C106 C 0.36262 0.39368 0.09048 0.0
C107 C 0.38291 0.41834 0.13004 0.0
C108 C 0.39971 0.41273 0.17563 0.0
C109 C 0.3963 0.38245 0.18164 0.0
C110 C 0.376 0.35768 0.14225 0.0
C111 C 0.36371 0.27132 0.84349 0.0
C112 C 0.37778 0.25607 0.8745 0.0
C113 C 0.3479 0.2843 0.87653 0.0
C114 C 0.34598 0.28227 0.94102 0.0
C115 C 0.35962 0.26669 0.97184 0.0
C116 C 0.3752 0.25358 0.93897 0.0
C117 C 0.33089 0.29737 0.97704 0.0
C118 C 0.34962 0.32102 0.02013 0.0
C119 C 0.29869 0.28907 0.96876 0.0
C120 C 0.27751 0.26371 0.92505 0.0
C121 C 0.27289 0.2327 0.92964 0.0
C122 C 0.25302 0.20898 0.88804 0.0
C123 C 0.23747 0.21591 0.8419 0.0
C124 C 0.24168 0.24657 0.83738 0.0
C125 C 0.26154 0.27039 0.87884 0.0
H126 H 0.22209 0.19751 0.80974 0.0
H127 H 0.41542 0.43185 0.2062 0.0
H128 H 0.87291 0.32075 0.38143 0.0
H129 H 0.92979 0.34918 0.35573 0.0
H130 H 0.93272 0.26217 0.37801 0.0
H131 H 0.87624 0.23384 0.40522 0.0
H132 H 0.98488 0.31104 0.42415 0.0
H133 H 0.92523 0.28901 0.23532 0.0
H134 H 0.88567 0.29102 0.16737 0.0
H135 H 0.93996 0.39339 0.16857 0.0
H136 H 0.9796 0.39198 0.23738 0.0
H137 H 0.1175 0.33599 0.25085 0.0
H138 H 0.06244 0.31672 0.28244 0.0
H139 H 0.07701 0.41188 0.26706 0.0
H140 H 0.13243 0.43151 0.23498 0.0
H141 H 0.01766 0.36477 0.22138 0.0
H142 H 0.07966 0.38592 0.40462 0.0
H143 H 0.1185 0.38289 0.47295 0.0
H144 H 0.05922 0.28102 0.48162 0.0
H145 H 0.02024 0.28339 0.41251 0.0
C146 C 0.88577 0.30777 0.38166 0.0
C147 C 0.86998 0.27497 0.395 0.0
C148 C 0.91825 0.32402 0.36661 0.0
C149 C 0.93541 0.30768 0.36384 0.0
C150 C 0.91998 0.27527 0.37966 0.0
C151 C 0.88762 0.25908 0.39512 0.0
C152 C 0.96907 0.32379 0.34229 0.0
C153 C 0.99197 0.32258 0.37964 0.0
C154 C 0.97852 0.33953 0.28476 0.0
C155 C 0.9552 0.3404 0.24199 0.0
C156 C 0.92865 0.31195 0.22132 0.0
C157 C 0.90621 0.31298 0.18268 0.0
C158 C 0.91024 0.34232 0.16383 0.0
C159 C 0.93683 0.37069 0.18331 0.0
C160 C 0.9593 0.36979 0.22211 0.0
C161 C 0.10902 0.35286 0.25359 0.0
C162 C 0.12948 0.38536 0.24084 0.0
C163 C 0.07752 0.34178 0.27184 0.0
C164 C 0.0658 0.36295 0.27802 0.0
C165 C 0.08566 0.39518 0.26279 0.0
C166 C 0.1173 0.40634 0.24455 0.0
C167 C 0.03321 0.35139 0.30281 0.0
C168 C 0.01058 0.3535 0.26613 0.0
C169 C 0.0239 0.33631 0.36086 0.0
C170 C 0.04714 0.33482 0.403 0.0
C171 C 0.075 0.36285 0.42075 0.0
C172 C 0.09704 0.36125 0.45967 0.0
C173 C 0.09136 0.33177 0.48153 0.0
C174 C 0.06359 0.30384 0.46462 0.0
C175 C 0.0415 0.3053 0.42563 0.0
H176 H 0.10845 0.33059 0.51164 0.0
H177 H 0.8928 0.34307 0.13403 0.0
H178 H 0.72657 0.08895 0.45188 0.0
H179 H 0.70309 0.03904 0.51 0.0
H180 H 0.73774 0.09252 0.67904 0.0
H181 H 0.76205 0.14219 0.62131 0.0
H182 H 0.74629 0.04387 0.68264 0.0
H183 H 0.65819 0.05879 0.63012 0.0
H184 H 0.62297 0.06703 0.56039 0.0
H185 H 0.59761 0.97891 0.46768 0.0
H186 H 0.63301 0.97035 0.5364 0.0
H187 H 0.64313 0.92997 0.90187 0.0
H188 H 0.67092 0.9761 0.83409 0.0
H189 H 0.64209 0.91365 0.676 0.0
H190 H 0.6142 0.86734 0.74338 0.0
H191 H 0.63133 0.96416 0.66141 0.0
H192 H 0.71759 0.94838 0.72262 0.0
H193 H 0.75177 0.94102 0.79656 0.0
H194 H 0.77935 0.03223 0.878 0.0
H195 H 0.74498 0.03995 0.80506 0.0
C196 C 0.72931 0.09002 0.5014 0.0
C197 C 0.74611 0.11955 0.53196 0.0
C198 C 0.71573 0.06148 0.53463 0.0
C199 C 0.71822 0.06197 0.59911 0.0
C200 C 0.73548 0.09145 0.6294 0.0
C201 C 0.74933 0.11989 0.59625 0.0
C202 C 0.70266 0.03199 0.63553 0.0
C203 C 0.72108 0.02661 0.67831 0.0
C204 C 0.66988 0.00906 0.62918 0.0
C205 C 0.64852 0.01411 0.58794 0.0
C206 C 0.64528 0.04129 0.59456 0.0
C207 C 0.62526 0.046 0.55528 0.0
C208 C 0.60814 0.02355 0.50952 0.0
C209 C 0.61093 0.9963 0.50307 0.0
C210 C 0.63095 0.9915 0.54219 0.0
C211 C 0.64286 0.926 0.85273 0.0
C212 C 0.62646 0.89495 0.82809 0.0
C213 C 0.65883 0.9524 0.81405 0.0
C214 C 0.65873 0.94828 0.75002 0.0
C215 C 0.64248 0.91734 0.72528 0.0
C216 C 0.62667 0.89091 0.76393 0.0
C217 C 0.6749 0.97637 0.70888 0.0
C218 C 0.65658 0.98135 0.66527 0.0
C219 C 0.70766 0.99913 0.715 0.0
C220 C 0.7285 0.99462 0.75868 0.0
C221 C 0.73076 0.96677 0.75658 0.0
C222 C 0.7502 0.96255 0.79827 0.0
C223 C 0.76767 0.98611 0.84203 0.0
C224 C 0.76579 0.01399 0.8441 0.0
C225 C 0.74636 0.01831 0.80256 0.0
H226 H 0.7827 0.98279 0.87427 0.0
H227 H 0.59264 0.02724 0.47916 0.0
H228 H 0.76825 0.63897 0.04379 0.0
H229 H 0.74164 0.66843 0.01655 0.0
H230 H 0.65312 0.59306 0.09067 0.0
H231 H 0.67955 0.56256 0.11576 0.0
H232 H 0.64113 0.61157 0.98829 0.0
H233 H 0.69882 0.66733 0.1662 0.0
H234 H 0.74503 0.69498 0.23537 0.0
H235 H 0.79485 0.76709 0.09883 0.0
H236 H 0.74911 0.73964 0.02846 0.0
H237 H 0.57311 0.71364 0.96253 0.0
H238 H 0.59261 0.67918 0.00106 0.0
H239 H 0.6843 0.74037 0.91718 0.0
H240 H 0.66494 0.77498 0.87876 0.0
H241 H 0.6901 0.72704 0.03539 0.0
H242 H 0.63052 0.66609 0.8557 0.0
H243 H 0.58154 0.63877 0.79341 0.0
H244 H 0.53186 0.5764 0.9444 0.0
H245 H 0.5805 0.60358 0.00778 0.0
C246 C 0.74319 0.6287 0.05499 0.0
C247 C 0.72609 0.59847 0.08245 0.0
C248 C 0.72797 0.64571 0.03955 0.0
C249 C 0.69544 0.63336 0.0526 0.0
C250 C 0.67826 0.6032 0.08032 0.0
C251 C 0.69342 0.58585 0.09492 0.0
C252 C 0.67947 0.65171 0.03526 0.0
C253 C 0.65159 0.63669 0.99958 0.0
C254 C 0.69302 0.68458 0.04959 0.0
C255 C 0.72059 0.70128 0.09187 0.0
C256 C 0.71971 0.68897 0.15075 0.0
C257 C 0.74581 0.70463 0.1902 0.0
C258 C 0.77288 0.73274 0.17147 0.0
C259 C 0.77387 0.7453 0.11328 0.0
C260 C 0.74784 0.72973 0.07362 0.0
C261 C 0.59718 0.71934 0.95108 0.0
C262 C 0.61735 0.74681 0.91687 0.0
C263 C 0.60836 0.69971 0.97344 0.0
C264 C 0.63988 0.70705 0.96167 0.0
C265 C 0.65991 0.73425 0.92689 0.0
C266 C 0.64878 0.75394 0.90473 0.0
C267 C 0.6525 0.68713 0.98707 0.0
C268 C 0.67964 0.70187 0.02454 0.0
C269 C 0.63793 0.65397 0.97535 0.0
C270 C 0.60906 0.63699 0.93656 0.0
C271 C 0.60912 0.6466 0.87563 0.0
C272 C 0.58143 0.63115 0.84015 0.0
C273 C 0.55359 0.60591 0.86498 0.0
C274 C 0.55344 0.59596 0.92523 0.0
C275 C 0.58107 0.61133 0.96091 0.0
H276 H 0.53215 0.59404 0.8375 0.0
H277 H 0.79307 0.74482 0.20207 0.0
H278 H 0.90999 0.62633 0.12492 0.0
H279 H 0.95991 0.65183 0.1831 0.0
H280 H 0.91403 0.67562 0.32813 0.0
H281 H 0.86436 0.65074 0.27005 0.0
H282 H 0.97371 0.72367 0.30946 0.0
H283 H 0.92212 0.61011 0.33824 0.0
H284 H 0.89733 0.554 0.30444 0.0
H285 H 0.98487 0.57336 0.21648 0.0
H286 H 0.01005 0.62975 0.24898 0.0
H287 H 0.07443 0.74151 0.56265 0.0
H288 H 0.02892 0.72326 0.49306 0.0
H289 H 0.08117 0.70595 0.35109 0.0
H290 H 0.12667 0.72409 0.4201 0.0
H291 H 0.02009 0.65598 0.36412 0.0
H292 H 0.07234 0.76959 0.34122 0.0
H293 H 0.09642 0.82535 0.37678 0.0
H294 H 0.00694 0.80539 0.45655 0.0
H295 H 0.98243 0.74935 0.42221 0.0
C296 C 0.91067 0.6374 0.16878 0.0
C297 C 0.88312 0.63625 0.19309 0.0
C298 C 0.93916 0.65182 0.20211 0.0
C299 C 0.94054 0.66517 0.26044 0.0
C300 C 0.91351 0.6654 0.28335 0.0
C301 C 0.88507 0.65104 0.2501 0.0
C302 C 0.96951 0.67742 0.29917 0.0
C303 C 0.9837 0.70879 0.32184 0.0
C304 C 0.98285 0.65817 0.31457 0.0
C305 C 0.96785 0.62422 0.29544 0.0
C306 C 0.93601 0.60246 0.31129 0.0
C307 C 0.9219 0.5706 0.29242 0.0
C308 C 0.93948 0.56014 0.25817 0.0
C309 C 0.97126 0.58151 0.2429 0.0
C310 C 0.98547 0.61342 0.26155 0.0
C311 C 0.07625 0.73386 0.51661 0.0
C312 C 0.1042 0.73431 0.49693 0.0
C313 C 0.05028 0.72356 0.47682 0.0
C314 C 0.05178 0.71348 0.41675 0.0
C315 C 0.07954 0.71367 0.39721 0.0
C316 C 0.10555 0.72415 0.43672 0.0
C317 C 0.02421 0.70218 0.37456 0.0
C318 C 0.01024 0.67094 0.35139 0.0
C319 C 0.01099 0.72149 0.35904 0.0
C320 C 0.02564 0.75519 0.37966 0.0
C321 C 0.05787 0.77702 0.3668 0.0
C322 C 0.07158 0.80869 0.38665 0.0
C323 C 0.05324 0.81889 0.41905 0.0
C324 C 0.02113 0.79744 0.43152 0.0
C325 C 0.0073 0.76573 0.41183 0.0
H326 H 0.0639 0.84342 0.43436 0.0
H327 H 0.92851 0.53547 0.2436 0.0
H328 H 0.32033 0.121 0.73733 0.0
H329 H 0.29586 0.06401 0.71569 0.0
H330 H 0.38896 0.07278 0.70638 0.0
H331 H 0.41375 0.13005 0.72768 0.0
H332 H 0.35167 0.03881 0.60953 0.0
H333 H 0.34182 0.03699 0.82795 0.0
H334 H 0.32803 0.0502 0.92911 0.0
H335 H 0.2295 0.0051 0.87678 0.0
H336 H 0.24276 0.99201 0.77491 0.0
H337 H 0.28346 0.86858 0.5944 0.0
H338 H 0.31484 0.92485 0.62435 0.0
H339 H 0.22837 0.92929 0.64344 0.0
H340 H 0.19691 0.87317 0.61438 0.0
H341 H 0.26684 0.95604 0.74083 0.0
H342 H 0.27768 0.9619 0.5197 0.0
H343 H 0.29156 0.9491 0.41819 0.0
H344 H 0.38852 0.9867 0.47623 0.0
H345 H 0.3751 0.99935 0.57843 0.0
C346 C 0.33565 0.11082 0.73118 0.0
C347 C 0.369 0.13008 0.73432 0.0
C348 C 0.3216 0.07818 0.71902 0.0
C349 C 0.34058 0.06409 0.70989 0.0
C350 C 0.37388 0.08318 0.71338 0.0
C351 C 0.38798 0.11586 0.72584 0.0
C352 C 0.32549 0.02963 0.69461 0.0
C353 C 0.33354 0.02062 0.63878 0.0
C354 C 0.30147 0.00598 0.73228 0.0
C355 C 0.29334 0.01374 0.79357 0.0
C356 C 0.31725 0.0301 0.83781 0.0
C357 C 0.30952 0.03753 0.89532 0.0
C358 C 0.27792 0.02856 0.90931 0.0
C359 C 0.25397 0.01206 0.86585 0.0
C360 C 0.26158 0.0046 0.80824 0.0
C361 C 0.27116 0.88162 0.60451 0.0
C362 C 0.23767 0.86639 0.60191 0.0
C363 C 0.28913 0.91378 0.62157 0.0
C364 C 0.27395 0.93132 0.63591 0.0
C365 C 0.24058 0.9162 0.63279 0.0
C366 C 0.22263 0.88413 0.61587 0.0
C367 C 0.29255 0.96529 0.65517 0.0
C368 C 0.28519 0.97419 0.71186 0.0
C369 C 0.3172 0.9888 0.6183 0.0
C370 C 0.3253 0.98122 0.55691 0.0
C371 C 0.30189 0.96718 0.51099 0.0
C372 C 0.30969 0.96001 0.4533 0.0
C373 C 0.34087 0.96699 0.44083 0.0
C374 C 0.36435 0.98125 0.48599 0.0
C375 C 0.35667 0.98844 0.54378 0.0
H376 H 0.34687 0.96142 0.39613 0.0
H377 H 0.27198 0.03433 0.95387 0.0
H378 H 0.18343 0.64958 0.57699 0.0
H379 H 0.20313 0.61297 0.55769 0.0
H380 H 0.28158 0.68507 0.45218 0.0
H381 H 0.26191 0.72243 0.47171 0.0
H382 H 0.24785 0.62497 0.39365 0.0
H383 H 0.29872 0.66674 0.58579 0.0
H384 H 0.30114 0.68452 0.69323 0.0
H385 H 0.23115 0.58933 0.74588 0.0
H386 H 0.22796 0.57103 0.63866 0.0
H387 H 0.29086 0.5093 0.34784 0.0
H388 H 0.3015 0.55953 0.39477 0.0
H389 H 0.21549 0.50981 0.50282 0.0
H390 H 0.20414 0.45933 0.45515 0.0
H391 H 0.26661 0.56699 0.56104 0.0
H392 H 0.20792 0.52817 0.3711 0.0
H393 H 0.20038 0.50898 0.26393 0.0
H394 H 0.27992 0.59838 0.20684 0.0
H395 H 0.288 0.61793 0.31398 0.0
C396 C 0.20493 0.65784 0.54972 0.0
C397 C 0.22105 0.68889 0.52559 0.0
C398 C 0.21631 0.63691 0.53923 0.0
C399 C 0.24405 0.64648 0.50435 0.0
C400 C 0.26026 0.6774 0.47973 0.0
C401 C 0.24899 0.69863 0.49078 0.0
C402 C 0.25442 0.62302 0.491 0.0
C403 C 0.253 0.61295 0.42996 0.0
C404 C 0.26029 0.60691 0.53883 0.0
C405 C 0.26301 0.61752 0.60397 0.0
C406 C 0.28377 0.6496 0.62022 0.0
C407 C 0.28526 0.65978 0.68109 0.0
C408 C 0.26621 0.63809 0.72627 0.0
C409 C 0.24587 0.60611 0.71079 0.0
C410 C 0.24427 0.5958 0.64999 0.0
C411 C 0.27479 0.50872 0.38339 0.0
C412 C 0.24616 0.48037 0.39669 0.0
C413 C 0.281 0.53756 0.41017 0.0
C414 C 0.25897 0.53838 0.45125 0.0
C415 C 0.2327 0.50962 0.47095 0.0
C416 C 0.22619 0.48079 0.44349 0.0
C417 C 0.25962 0.56878 0.46378 0.0
C418 C 0.26273 0.57984 0.52456 0.0
C419 C 0.25489 0.58566 0.41576 0.0
C420 C 0.24942 0.5741 0.35103 0.0
C421 C 0.22418 0.54354 0.33595 0.0
C422 C 0.21964 0.53265 0.2751 0.0
C423 C 0.2398 0.55235 0.22866 0.0
C424 C 0.26444 0.58304 0.24293 0.0
C425 C 0.26908 0.59399 0.30375 0.0
H426 H 0.23618 0.54391 0.18155 0.0
H427 H 0.26719 0.64605 0.77327 0.0
H428 H 0.51642 0.27879 0.63855 0.0
H429 H 0.56303 0.28025 0.59285 0.0
H430 H 0.5031 0.20787 0.46186 0.0
H431 H 0.45583 0.20457 0.51063 0.0
H432 H 0.53694 0.18953 0.51305 0.0
H433 H 0.56169 0.28682 0.42252 0.0
H434 H 0.57116 0.34147 0.41093 0.0
H435 H 0.65137 0.37679 0.53252 0.0
H436 H 0.6418 0.32226 0.5467 0.0
H437 H 0.71031 0.24296 0.40454 0.0
H438 H 0.66607 0.25377 0.4086 0.0
H439 H 0.63351 0.2012 0.57844 0.0
H440 H 0.677 0.18929 0.57322 0.0
H441 H 0.64517 0.28241 0.48096 0.0
H442 H 0.55476 0.15807 0.58339 0.0
H443 H 0.54538 0.10307 0.58051 0.0
H444 H 0.59487 0.1219 0.40763 0.0
H445 H 0.60414 0.17684 0.40899 0.0
C446 C 0.5131 0.26385 0.59875 0.0
C447 C 0.48233 0.24125 0.57859 0.0
C448 C 0.53998 0.26496 0.57224 0.0
C449 C 0.5368 0.24437 0.52357 0.0
C450 C 0.50623 0.22389 0.49963 0.0
C451 C 0.47921 0.22214 0.52725 0.0
C452 C 0.56448 0.24077 0.50478 0.0
C453 C 0.56047 0.20995 0.50541 0.0
C454 C 0.59527 0.26725 0.49339 0.0
C455 C 0.6008 0.3002 0.48608 0.0
C456 C 0.58109 0.30612 0.44752 0.0
C457 C 0.58651 0.33713 0.44043 0.0
C458 C 0.61182 0.36257 0.47102 0.0
C459 C 0.63182 0.35707 0.50871 0.0
C460 C 0.62633 0.32606 0.51644 0.0
C461 C 0.69406 0.23426 0.44341 0.0
C462 C 0.69705 0.21533 0.48873 0.0
C463 C 0.66875 0.24038 0.44553 0.0
C464 C 0.64614 0.22783 0.49319 0.0
C465 C 0.65024 0.21051 0.54041 0.0
C466 C 0.6752 0.20391 0.53773 0.0
C467 C 0.61751 0.23155 0.49248 0.0
C468 C 0.62142 0.26222 0.48798 0.0
C469 C 0.58642 0.20495 0.49833 0.0
C470 C 0.58035 0.17168 0.49658 0.0
C471 C 0.56347 0.15042 0.54458 0.0
C472 C 0.55822 0.11926 0.54325 0.0
C473 C 0.56961 0.10903 0.49402 0.0
C474 C 0.58615 0.12989 0.44585 0.0
C475 C 0.59143 0.16105 0.4469 0.0
H476 H 0.56558 0.08492 0.49315 0.0
H477 H 0.61597 0.38656 0.46548 0.0
H478 H 0.56318 0.74268 0.099 0.0
H479 H 0.51522 0.69495 0.13405 0.0
H480 H 0.45884 0.73887 0.09404 0.0
H481 H 0.50671 0.78686 0.05851 0.0
H482 H 0.4385 0.69599 0.20276 0.0
H483 H 0.46366 0.69906 0.98489 0.0
H484 H 0.49957 0.70649 0.89769 0.0
H485 H 0.51402 0.63171 0.96644 0.0
H486 H 0.47851 0.62414 0.05461 0.0
H487 H 0.29042 0.54954 0.15662 0.0
H488 H 0.33587 0.60365 0.14256 0.0
H489 H 0.40028 0.56642 0.14894 0.0
H490 H 0.35536 0.51277 0.16326 0.0
H491 H 0.41511 0.60784 0.05635 0.0
H492 H 0.3918 0.60259 0.27053 0.0
H493 H 0.36044 0.59536 0.36484 0.0
H494 H 0.34638 0.67281 0.31241 0.0
H495 H 0.37714 0.68009 0.21695 0.0
C496 C 0.54084 0.74274 0.09949 0.0
C497 C 0.53871 0.76838 0.07465 0.0
C498 C 0.51341 0.71535 0.11943 0.0
C499 C 0.48352 0.71327 0.11539 0.0
C500 C 0.48174 0.74005 0.09717 0.0
C501 C 0.50915 0.76744 0.07684 0.0
C502 C 0.45409 0.68195 0.12154 0.0
C503 C 0.433 0.67678 0.17037 0.0
C504 C 0.44749 0.65685 0.07983 0.0
C505 C 0.4686 0.66118 0.02653 0.0
C506 C 0.47465 0.68434 0.98162 0.0
C507 C 0.49487 0.68853 0.93196 0.0
C508 C 0.50895 0.66949 0.92641 0.0
C509 C 0.50297 0.64633 0.97067 0.0
C510 C 0.48279 0.64208 0.02047 0.0
C511 C 0.31425 0.55295 0.15464 0.0
C512 C 0.31929 0.52693 0.16132 0.0
C513 C 0.34019 0.58384 0.14697 0.0
C514 C 0.37146 0.58905 0.1453 0.0
C515 C 0.37637 0.56295 0.15018 0.0
C516 C 0.35061 0.53227 0.15839 0.0
C517 C 0.39935 0.62152 0.13804 0.0
C518 C 0.42024 0.627 0.08863 0.0
C519 C 0.40592 0.64663 0.17988 0.0
C520 C 0.38641 0.64159 0.23608 0.0
C521 C 0.38161 0.61777 0.27857 0.0
C522 C 0.36403 0.61373 0.33237 0.0
C523 C 0.3514 0.63359 0.3446 0.0
C524 C 0.35622 0.65746 0.30289 0.0
C525 C 0.37365 0.6615 0.24884 0.0
H526 H 0.33783 0.63044 0.38635 0.0
H527 H 0.52461 0.67276 0.88795 0.0
H528 H 0.84856 0.49667 0.12919 0.0
H529 H 0.83727 0.44253 0.14793 0.0
H530 H 0.74152 0.41544 0.20456 0.0
H531 H 0.75276 0.47023 0.18602 0.0
H532 H 0.76884 0.38939 0.27783 0.0
H533 H 0.75402 0.39676 0.0636 0.0
H534 H 0.76767 0.41984 0.9597 0.0
H535 H 0.84887 0.4064 0.95511 0.0
H536 H 0.83588 0.38359 0.0595 0.0
H537 H 0.72647 0.22672 0.27205 0.0
H538 H 0.7254 0.27485 0.24328 0.0
H539 H 0.82252 0.31734 0.17841 0.0
H540 H 0.82382 0.26928 0.20666 0.0
H541 H 0.78714 0.33266 0.10524 0.0
H542 H 0.80586 0.33119 0.32228 0.0
H543 H 0.7949 0.31164 0.42911 0.0
H544 H 0.70853 0.31609 0.42983 0.0
H545 H 0.71862 0.33509 0.32255 0.0
C546 C 0.8251 0.47937 0.14608 0.0
C547 C 0.80134 0.48765 0.15523 0.0
C548 C 0.81866 0.44833 0.15645 0.0
C549 C 0.7883 0.42477 0.17597 0.0
C550 C 0.76498 0.43324 0.1886 0.0
C551 C 0.77142 0.46448 0.1781 0.0
C552 C 0.78117 0.39132 0.1821 0.0
C553 C 0.77213 0.37665 0.23981 0.0
C554 C 0.78614 0.37505 0.13264 0.0
C555 C 0.79401 0.38861 0.06962 0.0
C556 C 0.77486 0.39888 0.04061 0.0
C557 C 0.78248 0.41191 0.98159 0.0
C558 C 0.80916 0.41465 0.95081 0.0
C559 C 0.82821 0.40428 0.97901 0.0
C560 C 0.82069 0.39125 0.0381 0.0
C561 C 0.74738 0.24594 0.25022 0.0
C562 C 0.77539 0.24422 0.24232 0.0
C563 C 0.74677 0.27357 0.23428 0.0
C564 C 0.77411 0.29994 0.21003 0.0
C565 C 0.80122 0.29734 0.1975 0.0
C566 C 0.80189 0.26977 0.21356 0.0
C567 C 0.77531 0.33091 0.20129 0.0
C568 C 0.78329 0.34514 0.14303 0.0
C569 C 0.76951 0.34683 0.25036 0.0
C570 C 0.76279 0.33416 0.31404 0.0
C571 C 0.78429 0.32755 0.34486 0.0
C572 C 0.77828 0.31665 0.40557 0.0
C573 C 0.75103 0.31259 0.43617 0.0
C574 C 0.72963 0.31924 0.40604 0.0
C575 C 0.73544 0.33001 0.34525 0.0
H576 H 0.74647 0.30423 0.48322 0.0
H577 H 0.81503 0.42475 0.90509 0.0
H578 H 0.24285 0.79267 0.81009 0.0
H579 H 0.28682 0.78834 0.85398 0.0
H580 H 0.26382 0.70752 0.73669 0.0
H581 H 0.21928 0.71108 0.69367 0.0
H582 H 0.29394 0.70651 0.84805 0.0
H583 H 0.31012 0.77699 0.67917 0.0
H584 H 0.30459 0.81896 0.62658 0.0
H585 H 0.35753 0.88539 0.77061 0.0
H586 H 0.36279 0.84359 0.82474 0.0
H587 H 0.45797 0.74328 0.82 0.0
H588 H 0.4027 0.72924 0.79847 0.0
H589 H 0.41716 0.81283 0.89808 0.0
H590 H 0.47205 0.82719 0.91873 0.0
H591 H 0.39009 0.80844 0.78976 0.0
H592 H 0.3729 0.73741 0.9602 0.0
H593 H 0.37786 0.69511 0.01294 0.0
H594 H 0.32842 0.63018 0.86461 0.0
H595 H 0.32376 0.67233 0.81052 0.0
C596 C 0.24628 0.77315 0.79547 0.0
C597 C 0.22808 0.75278 0.74734 0.0
C598 C 0.27145 0.77071 0.82054 0.0
C599 C 0.27912 0.74822 0.79715 0.0
C600 C 0.25847 0.72521 0.75497 0.0
C601 C 0.23299 0.72737 0.73036 0.0
C602 C 0.31141 0.75281 0.80737 0.0
C603 C 0.315 0.72866 0.83502 0.0
C604 C 0.33887 0.78162 0.78973 0.0
C605 C 0.33662 0.80709 0.75626 0.0
C606 C 0.32045 0.8005 0.69977 0.0
C607 C 0.31734 0.82425 0.66971 0.0
C608 C 0.33066 0.85481 0.69529 0.0
C609 C 0.3472 0.8617 0.75089 0.0
C610 C 0.35025 0.83799 0.78128 0.0
C611 C 0.4493 0.7586 0.83728 0.0
C612 C 0.46947 0.78646 0.87072 0.0
C613 C 0.41768 0.75045 0.8253 0.0
C614 C 0.40576 0.76992 0.84698 0.0
C615 C 0.42585 0.7975 0.88077 0.0
C616 C 0.45729 0.80567 0.89253 0.0
C617 C 0.37286 0.7627 0.83276 0.0
C618 C 0.36912 0.78629 0.80322 0.0
C619 C 0.34549 0.7334 0.84851 0.0
C620 C 0.34802 0.708 0.88126 0.0
C621 C 0.36322 0.71414 0.93873 0.0
C622 C 0.366 0.69021 0.96886 0.0
C623 C 0.35347 0.65997 0.94215 0.0
C624 C 0.33809 0.6536 0.88529 0.0
C625 C 0.33533 0.67748 0.85492 0.0
H626 H 0.35566 0.64149 0.96553 0.0
H627 H 0.32823 0.87317 0.672 0.0
H628 H 0.51383 0.31244 0.85165 0.0
H629 H 0.56595 0.35932 0.87075 0.0
H630 H 0.61227 0.30859 0.80404 0.0
H631 H 0.56003 0.26164 0.78255 0.0
H632 H 0.62894 0.35589 0.93763 0.0
H633 H 0.62218 0.34469 0.70976 0.0
H634 H 0.59064 0.3355 0.61565 0.0
H635 H 0.58092 0.417 0.65717 0.0
H636 H 0.61112 0.42582 0.75331 0.0
H637 H 0.77896 0.49415 0.94681 0.0
H638 H 0.73772 0.44216 0.90889 0.0
H639 H 0.68197 0.48387 0.84881 0.0
H640 H 0.72319 0.53599 0.88553 0.0
H641 H 0.6726 0.43778 0.7734 0.0
H642 H 0.67139 0.45191 0.98724 0.0
H643 H 0.68728 0.4616 0.09611 0.0
H644 H 0.69914 0.37947 0.09649 0.0
H645 H 0.68473 0.37005 0.98656 0.0
C646 C 0.53503 0.31096 0.84189 0.0
C647 C 0.53281 0.28334 0.81529 0.0
C648 C 0.56476 0.33784 0.8526 0.0
C649 C 0.59274 0.3374 0.83788 0.0
C650 C 0.59078 0.30933 0.81501 0.0
C651 C 0.56099 0.28256 0.80302 0.0
C652 C 0.62383 0.36692 0.8444 0.0
C653 C 0.63924 0.37349 0.90127 0.0
C654 C 0.63579 0.3904 0.79792 0.0
C655 C 0.61854 0.38563 0.73917 0.0
C656 C 0.61293 0.36037 0.69935 0.0
C657 C 0.59533 0.35525 0.64557 0.0
C658 C 0.58383 0.37564 0.6303 0.0
C659 C 0.58982 0.40119 0.66901 0.0
C660 C 0.60707 0.40619 0.7233 0.0
C661 C 0.75838 0.49251 0.92388 0.0
C662 C 0.75413 0.51918 0.92019 0.0
C663 C 0.73473 0.46268 0.90264 0.0
C664 C 0.70642 0.45898 0.87755 0.0
C665 C 0.70352 0.4861 0.86844 0.0
C666 C 0.72716 0.51594 0.88954 0.0
C667 C 0.67865 0.42671 0.86653 0.0
C668 C 0.66337 0.41981 0.80918 0.0
C669 C 0.66598 0.4034 0.91369 0.0
C670 C 0.67749 0.41058 0.9782 0.0
C671 C 0.6782 0.43637 0.00995 0.0
C672 C 0.68688 0.44178 0.07193 0.0
C673 C 0.6943 0.42121 0.10306 0.0
C674 C 0.69361 0.3955 0.07207 0.0
C675 C 0.68536 0.39021 0.00983 0.0
H676 H 0.7002 0.42498 0.15142 0.0
H677 H 0.57033 0.37166 0.58844 0.0
loop_
_geom_bond_atom_site_label_1
_geom_bond_atom_site_label_2
_geom_bond_distance
_geom_bond_site_symmetry_2
_ccdc_geom_bond_type
Mg0 O7 2.141 . S
Mg0 O8 2.048 . S
Mg0 O9 2.048 . S
Mg0 O12 2.141 . S
C1 O2 1.313 . S
C1 O8 1.195 . S
O2 C1 1.313 . S
C3 O4 1.245 . S
C3 O12 1.289 . S
O4 C3 1.245 . S
C5 O6 1.245 . S
C5 O7 1.289 . S
O6 C5 1.245 . S
O7 Mg0 2.141 . S
O7 C5 1.289 . S
O8 Mg0 2.048 . S
O8 C1 1.195 . S
O9 Mg0 2.048 . S
O9 C10 1.195 . S
C10 O9 1.195 . S
C10 O11 1.313 . S
O11 C10 1.313 . S
O12 Mg0 2.141 . S
O12 C3 1.289 . S
Mg13 O20 2.141 . S
Mg13 O21 2.048 . S
Mg13 O22 2.048 . S
Mg13 O25 2.141 . S
C14 O15 1.313 . S
C14 O21 1.195 . S
O15 C14 1.313 . S
C16 O17 1.245 . S
C16 O25 1.289 . S
O17 C16 1.245 . S
C18 O19 1.245 . S
C18 O20 1.289 . S
O19 C18 1.245 . S
O20 Mg13 2.141 . S
O20 C18 1.289 . S
O21 Mg13 2.048 . S
O21 C14 1.195 . S
O22 Mg13 2.048 . S
O22 C23 1.195 . S
C23 O22 1.195 . S
C23 O24 1.313 . S
O24 C23 1.313 . S
O25 Mg13 2.141 . S
O25 C16 1.289 . S
Mg26 O33 2.141 . S
Mg26 O34 2.048 . S
Mg26 O35 2.048 1_556 S
Mg26 O38 2.141 . S
C27 O28 1.313 1_556 S
C27 O34 1.195 . S
O28 C27 1.313 1_554 S
C29 O30 1.245 . S
C29 O38 1.289 1_554 S
O30 C29 1.245 . S
C31 O32 1.245 . S
C31 O33 1.289 . S
O32 C31 1.245 . S
O33 Mg26 2.141 . S
O33 C31 1.289 . S
O34 Mg26 2.048 . S
O34 C27 1.195 . S
O35 Mg26 2.048 1_554 S
O35 C36 1.195 . S
C36 O35 1.195 . S
C36 O37 1.313 . S
O37 C36 1.313 . S
O38 Mg26 2.141 . S
O38 C29 1.289 1_556 S
Mg39 O46 2.141 . S
Mg39 O47 2.048 . S
Mg39 O48 2.048 . S
Mg39 O51 2.141 1_556 S
C40 O41 1.313 . S
C40 O47 1.195 . S
O41 C40 1.313 . S
C42 O43 1.245 . S
C42 O51 1.289 . S
O43 C42 1.245 . S
C44 O45 1.245 1_556 S
C44 O46 1.289 . S
O45 C44 1.245 1_554 S
O46 Mg39 2.141 . S
O46 C44 1.289 . S
O47 Mg39 2.048 . S
O47 C40 1.195 . S
O48 Mg39 2.048 . S
O48 C49 1.195 1_556 S
C49 O48 1.195 1_554 S
C49 O50 1.313 . S
O50 C49 1.313 . S
O51 Mg39 2.141 1_554 S
O51 C42 1.289 . S
Mg52 O59 2.141 . S
Mg52 O60 2.048 . S
Mg52 O61 2.048 . S
Mg52 O64 2.141 . S
C53 O54 1.313 . S
C53 O60 1.195 . S
O54 C53 1.313 . S
C55 O56 1.245 . S
C55 O64 1.289 . S
O56 C55 1.245 . S
C57 O58 1.245 . S
C57 O59 1.289 . S
O58 C57 1.245 . S
O59 Mg52 2.141 . S
O59 C57 1.289 . S
O60 Mg52 2.048 . S
O60 C53 1.195 . S
O61 Mg52 2.048 . S
O61 C62 1.195 . S
C62 O61 1.195 . S
C62 O63 1.313 . S
O63 C62 1.313 . S
O64 Mg52 2.141 . S
O64 C55 1.289 . S
Mg65 O72 2.141 . S
Mg65 O73 2.048 . S
Mg65 O74 2.048 . S
Mg65 O77 2.141 . S
C66 O67 1.313 . S
C66 O73 1.195 . S
O67 C66 1.313 . S
C68 O69 1.245 . S
C68 O77 1.289 . S
O69 C68 1.245 . S
C70 O71 1.245 . S
C70 O72 1.289 . S
O71 C70 1.245 . S
O72 Mg65 2.141 . S
O72 C70 1.289 . S
O73 Mg65 2.048 . S
O73 C66 1.195 . S
O74 Mg65 2.048 . S
O74 C75 1.195 . S
C75 O74 1.195 . S
C75 O76 1.313 . S
O76 C75 1.313 . S
O77 Mg65 2.141 . S
O77 C68 1.289 . S
H78 C96 0.951 . S
H79 C98 0.951 . S
H80 C100 0.950 . S
H81 C101 0.950 . S
H82 C103 0.950 . S
H83 C106 0.950 . S
H84 C107 0.950 . S
H85 C109 0.950 . S
H86 C110 0.950 . S
H87 C111 0.951 . S
H88 C113 0.951 . S
H89 C115 0.950 . S
H90 C116 0.950 . S
H91 C118 0.950 . S
H92 C121 0.950 . S
H93 C122 0.950 . S
H94 C124 0.950 . S
H95 C125 0.950 . S
C96 H78 0.951 . S
C96 C97 1.366 . S
C96 C98 1.388 . S
C97 C96 1.366 . S
C97 C101 1.385 . S
C98 H79 0.951 . S
C98 C96 1.388 . S
C98 C99 1.366 . S
C99 C98 1.366 . S
C99 C100 1.414 . S
C99 C102 1.499 . S
C100 H80 0.950 . S
C100 C99 1.414 . S
C100 C101 1.374 . S
C101 H81 0.950 . S
C101 C97 1.385 . S
C101 C100 1.374 . S
C102 C99 1.499 . S
C102 C103 1.373 . S
C102 C104 1.389 . S
C103 H82 0.950 . S
C103 C102 1.373 . S
C103 C119 1.377 1_554 S
C104 C102 1.389 . S
C104 C105 1.524 . S
C104 C118 1.377 1_554 S
C105 C104 1.524 . S
C105 C106 1.397 . S
C105 C110 1.363 . S
C106 H83 0.950 . S
C106 C105 1.397 . S
C106 C107 1.334 . S
C107 H84 0.950 . S
C107 C106 1.334 . S
C107 C108 1.287 . S
C108 C107 1.287 . S
C108 C109 1.524 . S
C108 H127 0.913 . S
C109 H85 0.950 . S
C109 C108 1.524 . S
C109 C110 1.415 . S
C110 H86 0.950 . S
C110 C105 1.363 . S
C110 C109 1.415 . S
C111 H87 0.951 . S
C111 C112 1.366 . S
C111 C113 1.388 . S
C112 C111 1.366 . S
C112 C116 1.385 . S
C113 H88 0.951 . S
C113 C111 1.388 . S
C113 C114 1.366 . S
C114 C113 1.366 . S
C114 C115 1.414 . S
C114 C117 1.499 . S
C115 H89 0.950 . S
C115 C114 1.414 . S
C115 C116 1.374 . S
C116 H90 0.950 . S
C116 C112 1.385 . S
C116 C115 1.374 . S
C117 C114 1.499 . S
C117 C118 1.373 . S
C117 C119 1.389 . S
C118 H91 0.950 . S
C118 C104 1.377 1_556 S
C118 C117 1.373 . S
C119 C103 1.377 1_556 S
C119 C117 1.389 . S
C119 C120 1.524 . S
C120 C119 1.524 . S
C120 C121 1.397 . S
C120 C125 1.363 . S
C121 H92 0.950 . S
C121 C120 1.397 . S
C121 C122 1.334 . S
C122 H93 0.950 . S
C122 C121 1.334 . S
C122 C123 1.287 . S
C123 C122 1.287 . S
C123 C124 1.524 . S
C123 H126 0.999 . S
C124 H94 0.950 . S
C124 C123 1.524 . S
C124 C125 1.415 . S
C125 H95 0.950 . S
C125 C120 1.363 . S
C125 C124 1.415 . S
H126 C123 0.999 . S
H127 C108 0.913 . S
H128 C146 0.951 . S
H129 C148 0.951 . S
H130 C150 0.950 . S
H131 C151 0.950 . S
H132 C153 0.950 . S
H133 C156 0.950 . S
H134 C157 0.950 . S
H135 C159 0.950 . S
H136 C160 0.950 . S
H137 C161 0.951 . S
H138 C163 0.951 . S
H139 C165 0.950 . S
H140 C166 0.950 . S
H141 C168 0.950 . S
H142 C171 0.950 . S
H143 C172 0.950 . S
H144 C174 0.950 . S
H145 C175 0.950 . S
C146 H128 0.951 . S
C146 C147 1.366 . S
C146 C148 1.388 . S
C147 C146 1.366 . S
C147 C151 1.385 . S
C148 H129 0.951 . S
C148 C146 1.388 . S
C148 C149 1.366 . S
C149 C148 1.366 . S
C149 C150 1.414 . S
C149 C152 1.499 . S
C150 H130 0.950 . S
C150 C149 1.414 . S
C150 C151 1.374 . S
C151 H131 0.950 . S
C151 C147 1.385 . S
C151 C150 1.374 . S
C152 C149 1.499 . S
C152 C153 1.373 . S
C152 C154 1.389 . S
C153 H132 0.950 . S
C153 C152 1.373 . S
C153 C169 1.377 1_655 S
C154 C152 1.389 . S
C154 C155 1.524 . S
C154 C168 1.377 1_655 S
C155 C154 1.524 . S
C155 C156 1.397 . S
C155 C160 1.363 . S
C156 H133 0.950 . S
C156 C155 1.397 . S
C156 C157 1.334 . S
C157 H134 0.950 . S
C157 C156 1.334 . S
C157 C158 1.287 . S
C158 C157 1.287 . S
C158 C159 1.524 . S
C158 H177 0.913 . S
C159 H135 0.950 . S
C159 C158 1.524 . S
C159 C160 1.415 . S
C160 H136 0.950 . S
C160 C155 1.363 . S
C160 C159 1.415 . S
C161 H137 0.951 . S
C161 C162 1.366 . S
C161 C163 1.388 . S
C162 C161 1.366 . S
C162 C166 1.385 . S
C163 H138 0.951 . S
C163 C161 1.388 . S
C163 C164 1.366 . S
C164 C163 1.366 . S
C164 C165 1.414 . S
C164 C167 1.499 . S
C165 H139 0.950 . S
C165 C164 1.414 . S
C165 C166 1.374 . S
C166 H140 0.950 . S
C166 C162 1.385 . S
C166 C165 1.374 . S
C167 C164 1.499 . S
C167 C168 1.373 . S
C167 C169 1.389 . S
C168 H141 0.950 . S
C168 C154 1.377 1_455 S
C168 C167 1.373 . S
C169 C153 1.377 1_455 S
C169 C167 1.389 . S
C169 C170 1.524 . S
C170 C169 1.524 . S
C170 C171 1.397 . S
C170 C175 1.363 . S
C171 H142 0.950 . S
C171 C170 1.397 . S
C171 C172 1.334 . S
C172 H143 0.950 . S
C172 C171 1.334 . S
C172 C173 1.287 . S
C173 C172 1.287 . S
C173 C174 1.524 . S
C173 H176 0.999 . S
C174 H144 0.950 . S
C174 C173 1.524 . S
C174 C175 1.415 . S
C175 H145 0.950 . S
C175 C170 1.363 . S
C175 C174 1.415 . S
H176 C173 0.999 . S
H177 C158 0.913 . S
H178 C196 0.951 . S
H179 C198 0.951 . S
H180 C200 0.950 . S
H181 C201 0.950 . S
H182 C203 0.950 . S
H183 C206 0.950 . S
H184 C207 0.950 . S
H185 C209 0.950 . S
H186 C210 0.950 . S
H187 C211 0.951 . S
H188 C213 0.951 . S
H189 C215 0.950 . S
H190 C216 0.950 . S
H191 C218 0.950 . S
H192 C221 0.950 . S
H193 C222 0.950 . S
H194 C224 0.950 . S
H195 C225 0.950 . S
C196 H178 0.951 . S
C196 C197 1.366 . S
C196 C198 1.388 . S
C197 C196 1.366 . S
C197 C201 1.385 . S
C198 H179 0.951 . S
C198 C196 1.388 . S
C198 C199 1.366 . S
C199 C198 1.366 . S
C199 C200 1.414 . S
C199 C202 1.499 . S
C200 H180 0.950 . S
C200 C199 1.414 . S
C200 C201 1.374 . S
C201 H181 0.950 . S
C201 C197 1.385 . S
C201 C200 1.374 . S
C202 C199 1.499 . S
C202 C203 1.373 . S
C202 C204 1.389 1_545 S
C203 H182 0.950 . S
C203 C202 1.373 . S
C203 C219 1.377 . S
C204 C202 1.389 1_565 S
C204 C205 1.524 . S
C204 C218 1.377 . S
C205 C204 1.524 . S
C205 C206 1.397 1_565 S
C205 C210 1.363 . S
C206 H183 0.950 . S
C206 C205 1.397 1_545 S
C206 C207 1.334 . S
C207 H184 0.950 . S
C207 C206 1.334 . S
C207 C208 1.287 1_545 S
C208 C207 1.287 1_565 S
C208 C209 1.524 . S
C208 H227 0.913 . S
C209 H185 0.950 . S
C209 C208 1.524 . S
C209 C210 1.415 . S
C210 H186 0.950 . S
C210 C205 1.363 . S
C210 C209 1.415 . S
C211 H187 0.951 . S
C211 C212 1.366 . S
C211 C213 1.388 . S
C212 C211 1.366 . S
C212 C216 1.385 . S
C213 H188 0.951 . S
C213 C211 1.388 . S
C213 C214 1.366 . S
C214 C213 1.366 . S
C214 C215 1.414 . S
C214 C217 1.499 . S
C215 H189 0.950 . S
C215 C214 1.414 . S
C215 C216 1.374 . S
C216 H190 0.950 . S
C216 C212 1.385 . S
C216 C215 1.374 . S
C217 C214 1.499 . S
C217 C218 1.373 . S
C217 C219 1.389 1_565 S
C218 H191 0.950 . S
C218 C204 1.377 . S
C218 C217 1.373 . S
C219 C203 1.377 . S
C219 C217 1.389 1_545 S
C219 C220 1.524 . S
C220 C219 1.524 . S
C220 C221 1.397 1_545 S
C220 C225 1.363 . S
C221 H192 0.950 . S
C221 C220 1.397 1_565 S
C221 C222 1.334 . S
C222 H193 0.950 . S
C222 C221 1.334 . S
C222 C223 1.287 1_565 S
C223 C222 1.287 1_545 S
C223 C224 1.524 . S
C223 H226 0.999 . S
C224 H194 0.950 . S
C224 C223 1.524 . S
C224 C225 1.415 . S
C225 H195 0.950 . S
C225 C220 1.363 . S
C225 C224 1.415 . S
H226 C223 0.999 . S
H227 C208 0.913 . S
H228 C246 0.951 . S
H229 C248 0.951 . S
H230 C250 0.950 . S
H231 C251 0.950 . S
H232 C253 0.950 . S
H233 C256 0.950 . S
H234 C257 0.950 . S
H235 C259 0.950 . S
H236 C260 0.950 . S
H237 C261 0.951 . S
H238 C263 0.951 . S
H239 C265 0.950 . S
H240 C266 0.950 1_556 S
H241 C268 0.950 . S
H242 C271 0.950 . S
H243 C272 0.950 . S
H244 C274 0.950 . S
H245 C275 0.950 . S
C246 H228 0.951 . S
C246 C247 1.366 . S
C246 C248 1.388 . S
C247 C246 1.366 . S
C247 C251 1.385 1_556 S
C248 H229 0.951 . S
C248 C246 1.388 . S
C248 C249 1.366 . S
C249 C248 1.366 . S
C249 C250 1.414 1_556 S
C249 C252 1.499 . S
C250 H230 0.950 . S
C250 C249 1.414 1_554 S
C250 C251 1.374 . S
C251 H231 0.950 . S
C251 C247 1.385 1_554 S
C251 C250 1.374 . S
C252 C249 1.499 . S
C252 C253 1.373 . S
C252 C254 1.389 1_556 S
C253 H232 0.950 . S
C253 C252 1.373 . S
C253 C269 1.377 . S
C254 C252 1.389 1_554 S
C254 C255 1.524 . S
C254 C268 1.377 . S
C255 C254 1.524 . S
C255 C256 1.397 . S
C255 C260 1.363 . S
C256 H233 0.950 . S
C256 C255 1.397 . S
C256 C257 1.334 . S
C257 H234 0.950 . S
C257 C256 1.334 . S
C257 C258 1.287 . S
C258 C257 1.287 . S
C258 C259 1.524 . S
C258 H277 0.913 . S
C259 H235 0.950 . S
C259 C258 1.524 . S
C259 C260 1.415 . S
C260 H236 0.950 . S
C260 C255 1.363 . S
C260 C259 1.415 . S
C261 H237 0.951 . S
C261 C262 1.366 . S
C261 C263 1.388 . S
C262 C261 1.366 . S
C262 C266 1.385 . S
C263 H238 0.951 . S
C263 C261 1.388 . S
C263 C264 1.366 . S
C264 C263 1.366 . S
C264 C265 1.414 1_554 S
C264 C267 1.499 . S
C265 H239 0.950 . S
C265 C264 1.414 1_556 S
C265 C266 1.374 1_556 S
C266 H240 0.950 1_554 S
C266 C262 1.385 . S
C266 C265 1.374 1_554 S
C267 C264 1.499 . S
C267 C268 1.373 . S
C267 C269 1.389 1_554 S
C268 H241 0.950 . S
C268 C254 1.377 . S
C268 C267 1.373 . S
C269 C253 1.377 . S
C269 C267 1.389 1_556 S
C269 C270 1.524 . S
C270 C269 1.524 . S
C270 C271 1.397 . S
C270 C275 1.363 . S
C271 H242 0.950 . S
C271 C270 1.397 . S
C271 C272 1.334 . S
C272 H243 0.950 . S
C272 C271 1.334 . S
C272 C273 1.287 . S
C273 C272 1.287 . S
C273 C274 1.524 . S
C273 H276 0.999 . S
C274 H244 0.950 . S
C274 C273 1.524 . S
C274 C275 1.415 . S
C275 H245 0.950 . S
C275 C270 1.363 . S
C275 C274 1.415 . S
H276 C273 0.999 . S
H277 C258 0.913 . S
H278 C296 0.951 . S
H279 C298 0.951 . S
H280 C300 0.950 . S
H281 C301 0.950 . S
H282 C303 0.950 . S
H283 C306 0.950 . S
H284 C307 0.950 . S
H285 C309 0.950 . S
H286 C310 0.950 1_455 S
H287 C311 0.951 . S
H288 C313 0.951 . S
H289 C315 0.950 . S
H290 C316 0.950 . S
H291 C318 0.950 . S
H292 C321 0.950 . S
H293 C322 0.950 . S
H294 C324 0.950 . S
H295 C325 0.950 1_655 S
C296 H278 0.951 . S
C296 C297 1.366 . S
C296 C298 1.388 . S
C297 C296 1.366 . S
C297 C301 1.385 . S
C298 H279 0.951 . S
C298 C296 1.388 . S
C298 C299 1.366 . S
C299 C298 1.366 . S
C299 C300 1.414 . S
C299 C302 1.499 . S
C300 H280 0.950 . S
C300 C299 1.414 . S
C300 C301 1.374 . S
C301 H281 0.950 . S
C301 C297 1.385 . S
C301 C300 1.374 . S
C302 C299 1.499 . S
C302 C303 1.373 . S
C302 C304 1.389 . S
C303 H282 0.950 . S
C303 C302 1.373 . S
C303 C319 1.377 1_655 S
C304 C302 1.389 . S
C304 C305 1.524 . S
C304 C318 1.377 1_655 S
C305 C304 1.524 . S
C305 C306 1.397 . S
C305 C310 1.363 . S
C306 H283 0.950 . S
C306 C305 1.397 . S
C306 C307 1.334 . S
C307 H284 0.950 . S
C307 C306 1.334 . S
C307 C308 1.287 . S
C308 C307 1.287 . S
C308 C309 1.524 . S
C308 H327 0.913 . S
C309 H285 0.950 . S
C309 C308 1.524 . S
C309 C310 1.415 . S
C310 H286 0.950 1_655 S
C310 C305 1.363 . S
C310 C309 1.415 . S
C311 H287 0.951 . S
C311 C312 1.366 . S
C311 C313 1.388 . S
C312 C311 1.366 . S
C312 C316 1.385 . S
C313 H288 0.951 . S
C313 C311 1.388 . S
C313 C314 1.366 . S
C314 C313 1.366 . S
C314 C315 1.414 . S
C314 C317 1.499 . S
C315 H289 0.950 . S
C315 C314 1.414 . S
C315 C316 1.374 . S
C316 H290 0.950 . S
C316 C312 1.385 . S
C316 C315 1.374 . S
C317 C314 1.499 . S
C317 C318 1.373 . S
C317 C319 1.389 . S
C318 H291 0.950 . S
C318 C304 1.377 1_455 S
C318 C317 1.373 . S
C319 C303 1.377 1_455 S
C319 C317 1.389 . S
C319 C320 1.524 . S
C320 C319 1.524 . S
C320 C321 1.397 . S
C320 C325 1.363 . S
C321 H292 0.950 . S
C321 C320 1.397 . S
C321 C322 1.334 . S
C322 H293 0.950 . S
C322 C321 1.334 . S
C322 C323 1.287 . S
C323 C322 1.287 . S
C323 C324 1.524 . S
C323 H326 0.999 . S
C324 H294 0.950 . S
C324 C323 1.524 . S
C324 C325 1.415 . S
C325 H295 0.950 1_455 S
C325 C320 1.363 . S
C325 C324 1.415 . S
H326 C323 0.999 . S
H327 C308 0.913 . S
H328 C346 0.951 . S
H329 C348 0.951 . S
H330 C350 0.950 . S
H331 C351 0.950 . S
H332 C353 0.950 . S
H333 C356 0.950 . S
H334 C357 0.950 . S
H335 C359 0.950 . S
H336 C360 0.950 . S
H337 C361 0.951 . S
H338 C363 0.951 . S
H339 C365 0.950 . S
H340 C366 0.950 . S
H341 C368 0.950 . S
H342 C371 0.950 . S
H343 C372 0.950 . S
H344 C374 0.950 . S
H345 C375 0.950 . S
C346 H328 0.951 . S
C346 C347 1.366 . S
C346 C348 1.388 . S
C347 C346 1.366 . S
C347 C351 1.385 . S
C348 H329 0.951 . S
C348 C346 1.388 . S
C348 C349 1.366 . S
C349 C348 1.366 . S
C349 C350 1.414 . S
C349 C352 1.499 . S
C350 H330 0.950 . S
C350 C349 1.414 . S
C350 C351 1.374 . S
C351 H331 0.950 . S
C351 C347 1.385 . S
C351 C350 1.374 . S
C352 C349 1.499 . S
C352 C353 1.373 . S
C352 C354 1.389 . S
C353 H332 0.950 . S
C353 C352 1.373 . S
C353 C369 1.377 1_545 S
C354 C352 1.389 . S
C354 C355 1.524 . S
C354 C368 1.377 1_545 S
C355 C354 1.524 . S
C355 C356 1.397 . S
C355 C360 1.363 . S
C356 H333 0.950 . S
C356 C355 1.397 . S
C356 C357 1.334 . S
C357 H334 0.950 . S
C357 C356 1.334 . S
C357 C358 1.287 . S
C358 C357 1.287 . S
C358 C359 1.524 . S
C358 H377 0.913 . S
C359 H335 0.950 . S
C359 C358 1.524 . S
C359 C360 1.415 . S
C360 H336 0.950 . S
C360 C355 1.363 . S
C360 C359 1.415 . S
C361 H337 0.951 . S
C361 C362 1.366 . S
C361 C363 1.388 . S
C362 C361 1.366 . S
C362 C366 1.385 . S
C363 H338 0.951 . S
C363 C361 1.388 . S
C363 C364 1.366 . S
C364 C363 1.366 . S
C364 C365 1.414 . S
C364 C367 1.499 . S
C365 H339 0.950 . S
C365 C364 1.414 . S
C365 C366 1.374 . S
C366 H340 0.950 . S
C366 C362 1.385 . S
C366 C365 1.374 . S
C367 C364 1.499 . S
C367 C368 1.373 . S
C367 C369 1.389 . S
C368 H341 0.950 . S
C368 C354 1.377 1_565 S
C368 C367 1.373 . S
C369 C353 1.377 1_565 S
C369 C367 1.389 . S
C369 C370 1.524 . S
C370 C369 1.524 . S
C370 C371 1.397 . S
C370 C375 1.363 . S
C371 H342 0.950 . S
C371 C370 1.397 . S
C371 C372 1.334 . S
C372 H343 0.950 . S
C372 C371 1.334 . S
C372 C373 1.287 . S
C373 C372 1.287 . S
C373 C374 1.524 . S
C373 H376 0.999 . S
C374 H344 0.950 . S
C374 C373 1.524 . S
C374 C375 1.415 . S
C375 H345 0.950 . S
C375 C370 1.363 . S
C375 C374 1.415 . S
H376 C373 0.999 . S
H377 C358 0.913 . S
H378 C396 0.951 . S
H379 C398 0.951 . S
H380 C400 0.950 . S
H381 C401 0.950 . S
H382 C403 0.950 . S
H383 C406 0.950 . S
H384 C407 0.950 . S
H385 C409 0.950 . S
H386 C410 0.950 . S
H387 C411 0.951 . S
H388 C413 0.951 . S
H389 C415 0.950 . S
H390 C416 0.950 . S
H391 C418 0.950 . S
H392 C421 0.950 . S
H393 C422 0.950 . S
H394 C424 0.950 . S
H395 C425 0.950 . S
C396 H378 0.951 . S
C396 C397 1.366 . S
C396 C398 1.388 . S
C397 C396 1.366 . S
C397 C401 1.385 . S
C398 H379 0.951 . S
C398 C396 1.388 . S
C398 C399 1.366 . S
C399 C398 1.366 . S
C399 C400 1.414 . S
C399 C402 1.499 . S
C400 H380 0.950 . S
C400 C399 1.414 . S
C400 C401 1.374 . S
C401 H381 0.950 . S
C401 C397 1.385 . S
C401 C400 1.374 . S
C402 C399 1.499 . S
C402 C403 1.373 . S
C402 C404 1.389 . S
C403 H382 0.950 . S
C403 C402 1.373 . S
C403 C419 1.377 . S
C404 C402 1.389 . S
C404 C405 1.524 . S
C404 C418 1.377 . S
C405 C404 1.524 . S
C405 C406 1.397 . S
C405 C410 1.363 . S
C406 H383 0.950 . S
C406 C405 1.397 . S
C406 C407 1.334 . S
C407 H384 0.950 . S
C407 C406 1.334 . S
C407 C408 1.287 . S
C408 C407 1.287 . S
C408 C409 1.524 . S
C408 H427 0.913 . S
C409 H385 0.950 . S
C409 C408 1.524 . S
C409 C410 1.415 . S
C410 H386 0.950 . S
C410 C405 1.363 . S
C410 C409 1.415 . S
C411 H387 0.951 . S
C411 C412 1.366 . S
C411 C413 1.388 . S
C412 C411 1.366 . S
C412 C416 1.385 . S
C413 H388 0.951 . S
C413 C411 1.388 . S
C413 C414 1.366 . S
C414 C413 1.366 . S
C414 C415 1.414 . S
C414 C417 1.499 . S
C415 H389 0.950 . S
C415 C414 1.414 . S
C415 C416 1.374 . S
C416 H390 0.950 . S
C416 C412 1.385 . S
C416 C415 1.374 . S
C417 C414 1.499 . S
C417 C418 1.373 . S
C417 C419 1.389 . S
C418 H391 0.950 . S
C418 C404 1.377 . S
C418 C417 1.373 . S
C419 C403 1.377 . S
C419 C417 1.389 . S
C419 C420 1.524 . S
C420 C419 1.524 . S
C420 C421 1.397 . S
C420 C425 1.363 . S
C421 H392 0.950 . S
C421 C420 1.397 . S
C421 C422 1.334 . S
C422 H393 0.950 . S
C422 C421 1.334 . S
C422 C423 1.287 . S
C423 C422 1.287 . S
C423 C424 1.524 . S
C423 H426 0.999 . S
C424 H394 0.950 . S
C424 C423 1.524 . S
C424 C425 1.415 . S
C425 H395 0.950 . S
C425 C420 1.363 . S
C425 C424 1.415 . S
H426 C423 0.999 . S
H427 C408 0.913 . S
H428 C446 0.951 . S
H429 C448 0.951 . S
H430 C450 0.950 . S
H431 C451 0.950 . S
H432 C453 0.950 . S
H433 C456 0.950 . S
H434 C457 0.950 . S
H435 C459 0.950 . S
H436 C460 0.950 . S
H437 C461 0.951 . S
H438 C463 0.951 . S
H439 C465 0.950 . S
H440 C466 0.950 . S
H441 C468 0.950 . S
H442 C471 0.950 . S
H443 C472 0.950 . S
H444 C474 0.950 . S
H445 C475 0.950 . S
C446 H428 0.951 . S
C446 C447 1.366 . S
C446 C448 1.388 . S
C447 C446 1.366 . S
C447 C451 1.385 . S
C448 H429 0.951 . S
C448 C446 1.388 . S
C448 C449 1.366 . S
C449 C448 1.366 . S
C449 C450 1.414 . S
C449 C452 1.499 . S
C450 H430 0.950 . S
C450 C449 1.414 . S
C450 C451 1.374 . S
C451 H431 0.950 . S
C451 C447 1.385 . S
C451 C450 1.374 . S
C452 C449 1.499 . S
C452 C453 1.373 . S
C452 C454 1.389 . S
C453 H432 0.950 . S
C453 C452 1.373 . S
C453 C469 1.377 . S
C454 C452 1.389 . S
C454 C455 1.524 . S
C454 C468 1.377 . S
C455 C454 1.524 . S
C455 C456 1.397 . S
C455 C460 1.363 . S
C456 H433 0.950 . S
C456 C455 1.397 . S
C456 C457 1.334 . S
C457 H434 0.950 . S
C457 C456 1.334 . S
C457 C458 1.287 . S
C458 C457 1.287 . S
C458 C459 1.524 . S
C458 H477 0.913 . S
C459 H435 0.950 . S
C459 C458 1.524 . S
C459 C460 1.415 . S
C460 H436 0.950 . S
C460 C455 1.363 . S
C460 C459 1.415 . S
C461 H437 0.951 . S
C461 C462 1.366 . S
C461 C463 1.388 . S
C462 C461 1.366 . S
C462 C466 1.385 . S
C463 H438 0.951 . S
C463 C461 1.388 . S
C463 C464 1.366 . S
C464 C463 1.366 . S
C464 C465 1.414 . S
C464 C467 1.499 . S
C465 H439 0.950 . S
C465 C464 1.414 . S
C465 C466 1.374 . S
C466 H440 0.950 . S
C466 C462 1.385 . S
C466 C465 1.374 . S
C467 C464 1.499 . S
C467 C468 1.373 . S
C467 C469 1.389 . S
C468 H441 0.950 . S
C468 C454 1.377 . S
C468 C467 1.373 . S
C469 C453 1.377 . S
C469 C467 1.389 . S
C469 C470 1.524 . S
C470 C469 1.524 . S
C470 C471 1.397 . S
C470 C475 1.363 . S
C471 H442 0.950 . S
C471 C470 1.397 . S
C471 C472 1.334 . S
C472 H443 0.950 . S
C472 C471 1.334 . S
C472 C473 1.287 . S
C473 C472 1.287 . S
C473 C474 1.524 . S
C473 H476 0.999 . S
C474 H444 0.950 . S
C474 C473 1.524 . S
C474 C475 1.415 . S
C475 H445 0.950 . S
C475 C470 1.363 . S
C475 C474 1.415 . S
H476 C473 0.999 . S
H477 C458 0.913 . S
H478 C496 0.951 . S
H479 C498 0.951 . S
H480 C500 0.950 . S
H481 C501 0.950 . S
H482 C503 0.950 . S
H483 C506 0.950 . S
H484 C507 0.967 . S
H485 C509 0.950 . S
H486 C510 0.950 . S
H487 C511 0.951 . S
H488 C513 0.951 . S
H489 C515 0.950 . S
H490 C516 0.950 . S
H491 C518 0.950 . S
H492 C521 0.950 . S
H493 C522 0.950 . S
H494 C524 0.950 . S
H495 C525 0.950 . S
C496 H478 0.951 . S
C496 C497 1.366 . S
C496 C498 1.388 . S
C497 C496 1.366 . S
C497 C501 1.385 . S
C498 H479 0.951 . S
C498 C496 1.388 . S
C498 C499 1.366 . S
C499 C498 1.366 . S
C499 C500 1.414 . S
C499 C502 1.499 . S
C500 H480 0.950 . S
C500 C499 1.414 . S
C500 C501 1.374 . S
C501 H481 0.950 . S
C501 C497 1.385 . S
C501 C500 1.374 . S
C502 C499 1.499 . S
C502 C503 1.373 . S
C502 C504 1.389 . S
C503 H482 0.950 . S
C503 C502 1.373 . S
C503 C519 1.377 . S
C504 C502 1.389 . S
C504 C505 1.524 . S
C504 C518 1.377 . S
C505 C504 1.524 . S
C505 C506 1.397 . S
C505 C510 1.363 . S
C506 H483 0.950 . S
C506 C505 1.397 . S
C506 C507 1.334 . S
C507 H484 0.967 . S
C507 C506 1.334 . S
C507 C508 1.287 . S
C508 C507 1.287 . S
C508 C509 1.524 . S
C508 H527 0.913 . S
C509 H485 0.950 . S
C509 C508 1.524 . S
C509 C510 1.415 . S
C510 H486 0.950 . S
C510 C505 1.363 . S
C510 C509 1.415 . S
C511 H487 0.951 . S
C511 C512 1.366 . S
C511 C513 1.388 . S
C512 C511 1.366 . S
C512 C516 1.385 . S
C513 H488 0.951 . S
C513 C511 1.388 . S
C513 C514 1.366 . S
C514 C513 1.366 . S
C514 C515 1.414 . S
C514 C517 1.499 . S
C515 H489 0.950 . S
C515 C514 1.414 . S
C515 C516 1.374 . S
C516 H490 0.950 . S
C516 C512 1.385 . S
C516 C515 1.374 . S
C517 C514 1.499 . S
C517 C518 1.373 . S
C517 C519 1.389 . S
C518 H491 0.950 . S
C518 C504 1.377 . S
C518 C517 1.373 . S
C519 C503 1.377 . S
C519 C517 1.389 . S
C519 C520 1.524 . S
C520 C519 1.524 . S
C520 C521 1.397 . S
C520 C525 1.363 . S
C521 H492 0.950 . S
C521 C520 1.397 . S
C521 C522 1.334 . S
C522 H493 0.950 . S
C522 C521 1.334 . S
C522 C523 1.287 . S
C523 C522 1.287 . S
C523 C524 1.524 . S
C523 H526 0.999 . S
C524 H494 0.950 . S
C524 C523 1.524 . S
C524 C525 1.415 . S
C525 H495 0.950 . S
C525 C520 1.363 . S
C525 C524 1.415 . S
H526 C523 0.999 . S
H527 C508 0.913 . S
H528 C546 0.951 . S
H529 C548 0.951 . S
H530 C550 0.950 . S
H531 C551 0.950 . S
H532 C553 0.950 . S
H533 C556 0.950 . S
H534 C557 0.950 . S
H535 C559 0.950 . S
H536 C560 0.950 . S
H537 C561 0.951 . S
H538 C563 0.951 . S
H539 C565 0.950 . S
H540 C566 0.950 . S
H541 C568 0.950 . S
H542 C571 0.950 . S
H543 C572 0.950 . S
H544 C574 0.950 . S
H545 C575 0.950 . S
C546 H528 0.951 . S
C546 C547 1.366 . S
C546 C548 1.388 . S
C547 C546 1.366 . S
C547 C551 1.385 . S
C548 H529 0.951 . S
C548 C546 1.388 . S
C548 C549 1.366 . S
C549 C548 1.366 . S
C549 C550 1.414 . S
C549 C552 1.499 . S
C550 H530 0.950 . S
C550 C549 1.414 . S
C550 C551 1.374 . S
C551 H531 0.950 . S
C551 C547 1.385 . S
C551 C550 1.374 . S
C552 C549 1.499 . S
C552 C553 1.373 . S
C552 C554 1.389 . S
C553 H532 0.950 . S
C553 C552 1.373 . S
C553 C569 1.377 . S
C554 C552 1.389 . S
C554 C555 1.524 . S
C554 C568 1.377 . S
C555 C554 1.524 . S
C555 C556 1.397 1_554 S
C555 C560 1.363 . S
C556 H533 0.950 . S
C556 C555 1.397 1_556 S
C556 C557 1.334 . S
C557 H534 0.950 . S
C557 C556 1.334 . S
C557 C558 1.287 . S
C558 C557 1.287 . S
C558 C559 1.524 1_556 S
C558 H577 0.913 . S
C559 H535 0.950 . S
C559 C558 1.524 1_554 S
C559 C560 1.415 . S
C560 H536 0.950 . S
C560 C555 1.363 . S
C560 C559 1.415 . S
C561 H537 0.951 . S
C561 C562 1.366 . S
C561 C563 1.388 . S
C562 C561 1.366 . S
C562 C566 1.385 . S
C563 H538 0.951 . S
C563 C561 1.388 . S
C563 C564 1.366 . S
C564 C563 1.366 . S
C564 C565 1.414 . S
C564 C567 1.499 . S
C565 H539 0.950 . S
C565 C564 1.414 . S
C565 C566 1.374 . S
C566 H540 0.950 . S
C566 C562 1.385 . S
C566 C565 1.374 . S
C567 C564 1.499 . S
C567 C568 1.373 . S
C567 C569 1.389 . S
C568 H541 0.950 . S
C568 C554 1.377 . S
C568 C567 1.373 . S
C569 C553 1.377 . S
C569 C567 1.389 . S
C569 C570 1.524 . S
C570 C569 1.524 . S
C570 C571 1.397 . S
C570 C575 1.363 . S
C571 H542 0.950 . S
C571 C570 1.397 . S
C571 C572 1.334 . S
C572 H543 0.950 . S
C572 C571 1.334 . S
C572 C573 1.287 . S
C573 C572 1.287 . S
C573 C574 1.524 . S
C573 H576 0.999 . S
C574 H544 0.950 . S
C574 C573 1.524 . S
C574 C575 1.415 . S
C575 H545 0.950 . S
C575 C570 1.363 . S
C575 C574 1.415 . S
H576 C573 0.999 . S
H577 C558 0.913 . S
H578 C596 0.951 . S
H579 C598 0.951 . S
H580 C600 0.950 . S
H581 C601 0.950 . S
H582 C603 0.950 . S
H583 C606 0.950 . S
H584 C607 0.950 . S
H585 C609 0.950 1_554 S
H586 C610 0.950 1_554 S
H587 C611 0.951 . S
H588 C613 0.951 . S
H589 C615 0.950 1_554 S
H590 C616 0.950 . S
H591 C618 0.950 . S
H592 C621 0.950 . S
H593 C622 0.950 . S
H594 C624 0.950 . S
H595 C625 0.950 . S
C596 H578 0.951 . S
C596 C597 1.366 . S
C596 C598 1.388 . S
C597 C596 1.366 . S
C597 C601 1.385 . S
C598 H579 0.951 . S
C598 C596 1.388 . S
C598 C599 1.366 . S
C599 C598 1.366 . S
C599 C600 1.414 . S
C599 C602 1.499 . S
C600 H580 0.950 . S
C600 C599 1.414 . S
C600 C601 1.374 . S
C601 H581 0.950 . S
C601 C597 1.385 . S
C601 C600 1.374 . S
C602 C599 1.499 . S
C602 C603 1.373 . S
C602 C604 1.389 . S
C603 H582 0.950 . S
C603 C602 1.373 . S
C603 C619 1.377 . S
C604 C602 1.389 . S
C604 C605 1.524 . S
C604 C618 1.377 . S
C605 C604 1.524 . S
C605 C606 1.397 . S
C605 C610 1.363 . S
C606 H583 0.950 . S
C606 C605 1.397 . S
C606 C607 1.334 . S
C607 H584 0.950 . S
C607 C606 1.334 . S
C607 C608 1.287 . S
C608 C607 1.287 . S
C608 C609 1.524 . S
C608 H627 0.913 . S
C609 H585 0.950 1_556 S
C609 C608 1.524 . S
C609 C610 1.415 . S
C610 H586 0.950 1_556 S
C610 C605 1.363 . S
C610 C609 1.415 . S
C611 H587 0.951 . S
C611 C612 1.366 . S
C611 C613 1.388 . S
C612 C611 1.366 . S
C612 C616 1.385 1_556 S
C613 H588 0.951 . S
C613 C611 1.388 . S
C613 C614 1.366 . S
C614 C613 1.366 . S
C614 C615 1.414 . S
C614 C617 1.499 . S
C615 H589 0.950 1_556 S
C615 C614 1.414 . S
C615 C616 1.374 1_556 S
C616 H590 0.950 . S
C616 C612 1.385 1_554 S
C616 C615 1.374 1_554 S
C617 C614 1.499 . S
C617 C618 1.373 . S
C617 C619 1.389 . S
C618 H591 0.950 . S
C618 C604 1.377 . S
C618 C617 1.373 . S
C619 C603 1.377 . S
C619 C617 1.389 . S
C619 C620 1.524 . S
C620 C619 1.524 . S
C620 C621 1.397 . S
C620 C625 1.363 . S
C621 H592 0.950 . S
C621 C620 1.397 . S
C621 C622 1.334 . S
C622 H593 0.950 . S
C622 C621 1.334 . S
C622 C623 1.287 . S
C623 C622 1.287 . S
C623 C624 1.524 . S
C623 H626 0.999 . S
C624 H594 0.950 . S
C624 C623 1.524 . S
C624 C625 1.415 . S
C625 H595 0.950 . S
C625 C620 1.363 . S
C625 C624 1.415 . S
H626 C623 0.999 . S
H627 C608 0.913 . S
H628 C646 0.951 . S
H629 C648 0.951 . S
H630 C650 0.950 . S
H631 C651 0.950 . S
H632 C653 0.950 . S
H633 C656 0.950 . S
H634 C657 0.950 . S
H635 C659 0.950 . S
H636 C660 0.950 . S
H637 C661 0.951 . S
H638 C663 0.951 . S
H639 C665 0.950 . S
H640 C666 0.950 . S
H641 C668 0.950 . S
H642 C671 0.950 . S
H643 C672 0.950 1_554 S
H644 C674 0.950 . S
H645 C675 0.950 . S
C646 H628 0.951 . S
C646 C647 1.366 . S
C646 C648 1.388 . S
C647 C646 1.366 . S
C647 C651 1.385 . S
C648 H629 0.951 . S
C648 C646 1.388 . S
C648 C649 1.366 . S
C649 C648 1.366 . S
C649 C650 1.414 . S
C649 C652 1.499 . S
C650 H630 0.950 . S
C650 C649 1.414 . S
C650 C651 1.374 . S
C651 H631 0.950 . S
C651 C647 1.385 . S
C651 C650 1.374 . S
C652 C649 1.499 . S
C652 C653 1.373 . S
C652 C654 1.389 . S
C653 H632 0.950 . S
C653 C652 1.373 . S
C653 C669 1.377 . S
C654 C652 1.389 . S
C654 C655 1.524 . S
C654 C668 1.377 . S
C655 C654 1.524 . S
C655 C656 1.397 . S
C655 C660 1.363 . S
C656 H633 0.950 . S
C656 C655 1.397 . S
C656 C657 1.334 . S
C657 H634 0.950 . S
C657 C656 1.334 . S
C657 C658 1.287 . S
C658 C657 1.287 . S
C658 C659 1.524 . S
C658 H677 0.913 . S
C659 H635 0.950 . S
C659 C658 1.524 . S
C659 C660 1.415 . S
C660 H636 0.950 . S
C660 C655 1.363 . S
C660 C659 1.415 . S
C661 H637 0.951 . S
C661 C662 1.366 . S
C661 C663 1.388 . S
C662 C661 1.366 . S
C662 C666 1.385 . S
C663 H638 0.951 . S
C663 C661 1.388 . S
C663 C664 1.366 . S
C664 C663 1.366 . S
C664 C665 1.414 . S
C664 C667 1.499 . S
C665 H639 0.950 . S
C665 C664 1.414 . S
C665 C666 1.374 . S
C666 H640 0.950 . S
C666 C662 1.385 . S
C666 C665 1.374 . S
C667 C664 1.499 . S
C667 C668 1.373 . S
C667 C669 1.389 . S
C668 H641 0.950 . S
C668 C654 1.377 . S
C668 C667 1.373 . S
C669 C653 1.377 . S
C669 C667 1.389 . S
C669 C670 1.524 . S
C670 C669 1.524 . S
C670 C671 1.397 . S
C670 C675 1.363 . S
C671 H642 0.950 . S
C671 C670 1.397 . S
C671 C672 1.334 . S
C672 H643 0.950 1_556 S
C672 C671 1.334 . S
C672 C673 1.287 1_556 S
C673 C672 1.287 1_554 S
C673 C674 1.524 . S
C673 H676 0.999 . S
C674 H644 0.950 . S
C674 C673 1.524 . S
C674 C675 1.415 1_554 S
C675 H645 0.950 . S
C675 C670 1.363 . S
C675 C674 1.415 1_556 S
H676 C673 0.999 . S
H677 C658 0.913 . S
C97 C5 1.945 . S
C112 C68 1.879 . S
C147 C18 1.789 . S
C162 C3 1.890 . S
C197 C16 1.851 . S
C212 C31 1.918 . S
C247 C44 1.670 . S
C262 C29 1.753 . S
C297 C42 1.857 . S
C312 C57 1.917 . S
C347 C70 1.788 . S
C362 C55 1.890 . S
C397 C53 1.754 . S
C412 C10 1.772 . S
C447 C66 1.736 . S
C462 C23 1.692 . S
C497 C36 1.802 . S
C512 C1 1.786 . S
C547 C49 1.618 . S
C562 C14 1.643 . S
C597 C62 1.682 . S
C612 C27 1.669 . S
C647 C75 1.722 . S
C662 C40 1.770 . S
