# Generated by pormake.
# Topology vbm, (6)-cn, num edge types: 1
# Building blocks:
#     Node 0, Type 0, BuildingBlock: KUMBOL_clean_sbu_0, # of connection points: 6
#     Node 1, Type 0, BuildingBlock: KUMBOL_clean_sbu_0, # of connection points: 6
#     Node 2, Type 0, BuildingBlock: KUMBOL_clean_sbu_0, # of connection points: 6
#     Node 3, Type 0, BuildingBlock: KUMBOL_clean_sbu_0, # of connection points: 6
#     Node 4, Type 0, BuildingBlock: KUMBOL_clean_sbu_0, # of connection points: 6
#     Node 5, Type 0, BuildingBlock: KUMBOL_clean_sbu_0, # of connection points: 6
#     Node 6, Type 0, BuildingBlock: KUMBOL_clean_sbu_0, # of connection points: 6
#     Node 7, Type 0, BuildingBlock: KUMBOL_clean_sbu_0, # of connection points: 6
#     Node 8, Type 0, BuildingBlock: KUMBOL_clean_sbu_0, # of connection points: 6
#     Node 9, Type 0, BuildingBlock: KUMBOL_clean_sbu_0, # of connection points: 6
#     Node 10, Type 0, BuildingBlock: KUMBOL_clean_sbu_0, # of connection points: 6
#     Node 11, Type 0, BuildingBlock: KUMBOL_clean_sbu_0, # of connection points: 6
#     Node 12, Type 0, BuildingBlock: KUMBOL_clean_sbu_0, # of connection points: 6
#     Node 13, Type 0, BuildingBlock: KUMBOL_clean_sbu_0, # of connection points: 6
#     Node 14, Type 0, BuildingBlock: KUMBOL_clean_sbu_0, # of connection points: 6
#     Node 15, Type 0, BuildingBlock: KUMBOL_clean_sbu_0, # of connection points: 6
#     Edge 16, Type (0, 0), BuildingBlock: XIVTED_clean_linker_0, # of connection points: 2
#     Edge 17, Type (0, 0), BuildingBlock: XIVTED_clean_linker_0, # of connection points: 2
#     Edge 18, Type (0, 0), BuildingBlock: XIVTED_clean_linker_0, # of connection points: 2
#     Edge 19, Type (0, 0), BuildingBlock: XIVTED_clean_linker_0, # of connection points: 2
#     Edge 20, Type (0, 0), BuildingBlock: XIVTED_clean_linker_0, # of connection points: 2
#     Edge 21, Type (0, 0), BuildingBlock: XIVTED_clean_linker_0, # of connection points: 2
#     Edge 22, Type (0, 0), BuildingBlock: XIVTED_clean_linker_0, # of connection points: 2
#     Edge 23, Type (0, 0), BuildingBlock: XIVTED_clean_linker_0, # of connection points: 2
#     Edge 24, Type (0, 0), BuildingBlock: XIVTED_clean_linker_0, # of connection points: 2
#     Edge 25, Type (0, 0), BuildingBlock: XIVTED_clean_linker_0, # of connection points: 2
#     Edge 26, Type (0, 0), BuildingBlock: XIVTED_clean_linker_0, # of connection points: 2
#     Edge 27, Type (0, 0), BuildingBlock: XIVTED_clean_linker_0, # of connection points: 2
#     Edge 28, Type (0, 0), BuildingBlock: XIVTED_clean_linker_0, # of connection points: 2
#     Edge 29, Type (0, 0), BuildingBlock: XIVTED_clean_linker_0, # of connection points: 2
#     Edge 30, Type (0, 0), BuildingBlock: XIVTED_clean_linker_0, # of connection points: 2
#     Edge 31, Type (0, 0), BuildingBlock: XIVTED_clean_linker_0, # of connection points: 2
#     Edge 32, Type (0, 0), BuildingBlock: XIVTED_clean_linker_0, # of connection points: 2
#     Edge 33, Type (0, 0), BuildingBlock: XIVTED_clean_linker_0, # of connection points: 2
#     Edge 34, Type (0, 0), BuildingBlock: XIVTED_clean_linker_0, # of connection points: 2
#     Edge 35, Type (0, 0), BuildingBlock: XIVTED_clean_linker_0, # of connection points: 2
#     Edge 36, Type (0, 0), BuildingBlock: XIVTED_clean_linker_0, # of connection points: 2
#     Edge 37, Type (0, 0), BuildingBlock: XIVTED_clean_linker_0, # of connection points: 2
#     Edge 38, Type (0, 0), BuildingBlock: XIVTED_clean_linker_0, # of connection points: 2
#     Edge 39, Type (0, 0), BuildingBlock: XIVTED_clean_linker_0, # of connection points: 2
#     Edge 40, Type (0, 0), BuildingBlock: XIVTED_clean_linker_0, # of connection points: 2
#     Edge 41, Type (0, 0), BuildingBlock: XIVTED_clean_linker_0, # of connection points: 2
#     Edge 42, Type (0, 0), BuildingBlock: XIVTED_clean_linker_0, # of connection points: 2
#     Edge 43, Type (0, 0), BuildingBlock: XIVTED_clean_linker_0, # of connection points: 2
#     Edge 44, Type (0, 0), BuildingBlock: XIVTED_clean_linker_0, # of connection points: 2
#     Edge 45, Type (0, 0), BuildingBlock: XIVTED_clean_linker_0, # of connection points: 2
#     Edge 46, Type (0, 0), BuildingBlock: XIVTED_clean_linker_0, # of connection points: 2
#     Edge 47, Type (0, 0), BuildingBlock: XIVTED_clean_linker_0, # of connection points: 2
#     Edge 48, Type (0, 0), BuildingBlock: XIVTED_clean_linker_0, # of connection points: 2
#     Edge 49, Type (0, 0), BuildingBlock: XIVTED_clean_linker_0, # of connection points: 2
#     Edge 50, Type (0, 0), BuildingBlock: XIVTED_clean_linker_0, # of connection points: 2
#     Edge 51, Type (0, 0), BuildingBlock: XIVTED_clean_linker_0, # of connection points: 2
#     Edge 52, Type (0, 0), BuildingBlock: XIVTED_clean_linker_0, # of connection points: 2
#     Edge 53, Type (0, 0), BuildingBlock: XIVTED_clean_linker_0, # of connection points: 2
#     Edge 54, Type (0, 0), BuildingBlock: XIVTED_clean_linker_0, # of connection points: 2
#     Edge 55, Type (0, 0), BuildingBlock: XIVTED_clean_linker_0, # of connection points: 2
#     Edge 56, Type (0, 0), BuildingBlock: XIVTED_clean_linker_0, # of connection points: 2
#     Edge 57, Type (0, 0), BuildingBlock: XIVTED_clean_linker_0, # of connection points: 2
#     Edge 58, Type (0, 0), BuildingBlock: XIVTED_clean_linker_0, # of connection points: 2
#     Edge 59, Type (0, 0), BuildingBlock: XIVTED_clean_linker_0, # of connection points: 2
#     Edge 60, Type (0, 0), BuildingBlock: XIVTED_clean_linker_0, # of connection points: 2
#     Edge 61, Type (0, 0), BuildingBlock: XIVTED_clean_linker_0, # of connection points: 2
#     Edge 62, Type (0, 0), BuildingBlock: XIVTED_clean_linker_0, # of connection points: 2
#     Edge 63, Type (0, 0), BuildingBlock: XIVTED_clean_linker_0, # of connection points: 2
# Relax obj value: 0.082
# Max RMSD: 0.146
# Mean RMSD: 0.146
data_MOF--net-vbm--node1-KUMBOL_clean_sbu_0--edge1-XIVTED_clean_linker_0
_symmetry_space_group_name_H-M    P1
_symmetry_Int_Tables_number       1
_symmetry_cell_setting            triclinic
loop_
_symmetry_equiv_pos_as_xyz
'x, y, z'
_cell_length_a     52.13102
_cell_length_b     24.60261
_cell_length_c     58.940003
_cell_angle_alpha  89.995423
_cell_angle_beta   90.005378
_cell_angle_gamma 89.958161
loop_
_atom_site_label
_atom_site_type_symbol
_atom_site_fract_x
_atom_site_fract_y
_atom_site_fract_z
_atom_type_partial_charge
Gd0 Gd 0.12262 0.19484 0.13605 0.0
Gd1 Gd 0.16018 0.07442 0.12045 0.0
C2 C 0.24652 0.08271 0.10769 0.0
C3 C 0.24915 0.06454 0.06722 0.0
C4 C 0.20778 0.06512 0.08627 0.0
C5 C 0.21959 0.07779 0.10657 0.0
C6 C 0.22243 0.05744 0.06642 0.0
C7 C 0.26118 0.07713 0.08783 0.0
C8 C 0.25796 0.09154 0.12885 0.0
C9 C 0.24266 0.0933 0.14827 0.0
N10 N 0.20486 0.08225 0.12546 0.0
C11 C 0.21605 0.08777 0.14629 0.0
H12 H 0.20451 0.08938 0.16145 0.0
C13 C 0.16975 0.04004 0.06706 0.0
N14 N 0.18198 0.05809 0.08616 0.0
C15 C 0.18342 0.03232 0.0469 0.0
C16 C 0.20985 0.04162 0.0465 0.0
H17 H 0.1493 0.03314 0.06722 0.0
H18 H 0.28187 0.08122 0.08833 0.0
H19 H 0.07902 0.18486 0.09405 0.0
H20 H 0.27857 0.09574 0.13043 0.0
H21 H 0.25135 0.09908 0.16477 0.0
H22 H 0.26073 0.0592 0.05212 0.0
H23 H 0.13244 0.23277 0.18988 0.0
H24 H 1.00428 0.17923 0.12365 0.0
H25 H 0.03226 0.17749 0.08978 0.0
H26 H 0.02056 0.20867 0.20272 0.0
H27 H 0.17357 1.01931 0.03168 0.0
H28 H 0.2204 0.03544 0.03088 0.0
H29 H 1.00012 0.19016 0.16587 0.0
H30 H 0.10744 0.24494 0.22512 0.0
N31 N 0.07797 0.18927 0.13012 0.0
C32 C 0.02488 0.18248 0.12566 0.0
C33 C 0.0406 0.18162 0.10651 0.0
C34 C 0.03589 0.18911 0.14712 0.0
C35 C 0.06283 0.19289 0.14879 0.0
C36 C 0.06721 0.1858 0.10903 0.0
N37 N 0.10008 0.20971 0.17011 0.0
C38 C 0.07425 0.20348 0.16946 0.0
C39 C 0.09787 0.23305 0.2096 0.0
C40 C 0.0714 0.22439 0.20943 0.0
C41 C 0.11195 0.22631 0.18961 0.0
C42 C 0.05919 0.21026 0.18912 0.0
H43 H 0.06052 0.2299 0.22492 0.0
O44 O 0.13454 0.27725 0.14424 0.0
O45 O 0.16189 0.16338 0.12783 0.0
O46 O 0.15799 0.08684 0.15864 0.0
O47 O 0.12003 0.13428 0.16489 0.0
O48 O 0.15916 0.21543 0.15498 0.0
O49 O 0.1122 0.26208 0.11395 0.0
O50 O 0.1486 0.99126 0.1133 0.0
O51 O 0.12119 0.10652 0.12852 0.0
O52 O 0.12497 0.18266 0.09748 0.0
O53 O 0.16266 0.13377 0.0917 0.0
O54 O 0.12315 0.05209 0.10225 0.0
O55 O 0.17193 1.0087 0.14281 0.0
C56 C 0.17504 0.18844 0.14261 0.0
C57 C 0.03245 0.20409 0.18776 0.0
C58 C 0.02082 0.19353 0.16679 0.0
C59 C 0.1226 0.29876 0.12703 0.0
C60 C 0.10722 0.34772 0.13191 0.0
C61 C 0.08171 0.34316 0.13917 0.0
C62 C 0.11828 0.39966 0.12956 0.0
C63 C 0.1039 0.44701 0.1343 0.0
C64 C 0.0674 0.38966 0.144 0.0
C65 C 0.07833 0.44116 0.14161 0.0
C66 C 0.13857 0.1014 0.17182 0.0
C67 C 0.10765 0.08086 0.11429 0.0
C68 C 0.16138 0.97104 0.13031 0.0
C69 C 0.17696 0.92236 0.1254 0.0
C70 C 0.20252 0.92732 0.11831 0.0
C71 C 0.16604 0.87027 0.12761 0.0
C72 C 0.18058 0.82314 0.12288 0.0
C73 C 0.217 0.88103 0.11351 0.0
C74 C 0.2062 0.82937 0.11575 0.0
C75 C 0.14401 0.16551 0.08429 0.0
H76 H 0.07286 0.30374 0.14112 0.0
H77 H 0.13794 0.40307 0.12376 0.0
H78 H 0.04774 0.38578 0.1497 0.0
H79 H 0.06682 0.47641 0.14582 0.0
H80 H 0.21128 0.96687 0.11649 0.0
H81 H 0.14635 0.86656 0.1333 0.0
H82 H 0.2367 0.8852 0.10795 0.0
H83 H 0.21784 0.7943 0.11156 0.0
Gd84 Gd 0.90631 0.84334 0.13559 0.0
Gd85 Gd 0.86946 0.9646 0.11986 0.0
C86 C 0.78278 0.95462 0.11 0.0
C87 C 0.77845 0.97037 0.06945 0.0
C88 C 0.82056 0.97143 0.08717 0.0
C89 C 0.80962 0.95978 0.10797 0.0
C90 C 0.80508 0.97795 0.06774 0.0
C91 C 0.76731 0.95871 0.09055 0.0
C92 C 0.77222 0.94722 0.1316 0.0
C93 C 0.78827 0.9472 0.15056 0.0
N94 N 0.82509 0.95683 0.12646 0.0
C95 C 0.81478 0.95286 0.1477 0.0
H96 H 0.82694 0.95247 0.1625 0.0
C97 C 0.85766 0.99672 0.06661 0.0
N98 N 0.8463 0.97901 0.08617 0.0
C99 C 0.84314 1.00333 0.04684 0.0
C100 C 0.81677 0.99329 0.04733 0.0
H101 H 0.87807 1.00411 0.06612 0.0
H102 H 0.74668 0.95434 0.09173 0.0
H103 H 0.9498 0.85406 0.09349 0.0
H104 H 0.7517 0.94292 0.13388 0.0
H105 H 0.78027 0.9426 0.16739 0.0
H106 H 0.76624 0.97473 0.05469 0.0
H107 H 0.89738 0.79739 0.18837 0.0
H108 H 0.02463 0.86114 0.12287 0.0
H109 H 0.99649 0.86251 0.08909 0.0
H110 H 1.00891 0.82656 0.20165 0.0
H111 H 0.85229 1.01604 0.03124 0.0
H112 H 0.80556 0.99861 0.03201 0.0
H113 H 0.02905 0.84862 0.16501 0.0
H114 H 0.92259 0.78258 0.22333 0.0
N115 N 0.95099 0.84967 0.12957 0.0
C116 C 1.00405 0.85747 0.12494 0.0
C117 C 0.98824 0.85808 0.10584 0.0
C118 C 0.99317 0.85005 0.1464 0.0
C119 C 0.96626 0.84573 0.14815 0.0
C120 C 0.96167 0.85328 0.10845 0.0
N121 N 0.92929 0.82561 0.16921 0.0
C122 C 0.95502 0.83323 0.16867 0.0
C123 C 0.93195 0.79715 0.20811 0.0
C124 C 0.95827 0.80766 0.20815 0.0
C125 C 0.91774 0.80547 0.18828 0.0
C126 C 0.97023 0.82491 0.18815 0.0
H127 H 0.96927 0.80083 0.22348 0.0
O128 O 0.89356 0.76098 0.1429 0.0
O129 O 0.86722 0.87596 0.12755 0.0
O130 O 0.87334 0.95787 0.15815 0.0
O131 O 0.9079 0.89988 0.16579 0.0
O132 O 0.8698 0.82398 0.15472 0.0
O133 O 0.91672 0.77665 0.11322 0.0
O134 O 0.88067 0.0469 0.11082 0.0
O135 O 0.9084 0.93206 0.12816 0.0
O136 O 0.90394 0.85562 0.09706 0.0
O137 O 0.86631 0.90448 0.09142 0.0
O138 O 0.90626 0.98468 0.1011 0.0
O139 O 0.85831 0.0325 0.14125 0.0
C140 C 0.85402 0.85159 0.14248 0.0
C141 C 0.99691 0.8322 0.18682 0.0
C142 C 1.00837 0.84478 0.16596 0.0
C143 C 0.90593 0.73976 0.1259 0.0
C144 C 0.92122 0.69086 0.13098 0.0
C145 C 0.94655 0.69545 0.13871 0.0
C146 C 0.91026 0.63898 0.12834 0.0
C147 C 0.92456 0.59168 0.13327 0.0
C148 C 0.96079 0.64897 0.14374 0.0
C149 C 0.94995 0.59748 0.14107 0.0
C150 C 0.89112 0.93763 0.17182 0.0
C151 C 0.9218 0.95687 0.11352 0.0
C152 C 0.86844 0.06881 0.12781 0.0
C153 C 0.85267 0.11688 0.1225 0.0
C154 C 0.82725 0.1112 0.11513 0.0
C155 C 0.86328 0.1692 0.1247 0.0
C156 C 0.84858 0.21587 0.11964 0.0
C157 C 0.81261 0.15706 0.10998 0.0
C158 C 0.82313 0.209 0.11219 0.0
C159 C 0.88482 0.87253 0.08395 0.0
H160 H 0.95534 0.73487 0.14084 0.0
H161 H 0.89074 0.63555 0.12216 0.0
H162 H 0.9803 0.65286 0.1498 0.0
H163 H 0.96137 0.5622 0.14542 0.0
H164 H 0.81871 0.07144 0.11338 0.0
H165 H 0.88285 0.17344 0.13065 0.0
H166 H 0.79303 0.15234 0.1042 0.0
H167 H 0.81139 0.24376 0.10777 0.0
Gd168 Gd 0.11826 0.84527 0.36358 0.0
Gd169 Gd 0.15583 0.96499 0.37988 0.0
C170 C 0.24188 0.95562 0.39383 0.0
C171 C 0.2438 0.97251 0.43443 0.0
C172 C 0.20279 0.97319 0.41478 0.0
C173 C 0.21495 0.96094 0.39458 0.0
C174 C 0.21709 0.97999 0.43488 0.0
C175 C 0.25617 0.96037 0.41394 0.0
C176 C 0.25367 0.94718 0.3728 0.0
C177 C 0.23873 0.94609 0.35315 0.0
N178 N 0.20056 0.95711 0.37547 0.0
C179 C 0.21209 0.95191 0.35477 0.0
H180 H 0.20081 0.95075 0.33945 0.0
C181 C 0.16445 0.99783 0.43359 0.0
N182 N 0.17701 0.98043 0.41456 0.0
C183 C 0.17776 1.00472 0.454 0.0
C184 C 0.20416 0.9952 0.45471 0.0
H185 H 0.14401 1.00486 0.43321 0.0
H186 H 0.27685 0.95592 0.41373 0.0
H187 H 0.07434 0.85502 0.4053 0.0
H188 H 0.2743 0.94272 0.37149 0.0
H189 H 0.24769 0.94056 0.33675 0.0
H190 H 0.25511 0.97716 0.44974 0.0
H191 H 0.1285 0.80803 0.30972 0.0
H192 H 0.99985 0.86183 0.37519 0.0
H193 H 0.02754 0.86277 0.40926 0.0
H194 H 0.01679 0.83355 0.29615 0.0
H195 H 0.16764 1.01722 0.46916 0.0
H196 H 0.21444 1.00068 0.47053 0.0
H197 H 0.99605 0.85163 0.33291 0.0
H198 H 0.10381 0.79675 0.27426 0.0
N199 N 0.07357 0.85115 0.36921 0.0
C200 C 0.02046 0.8584 0.37332 0.0
C201 C 0.03602 0.85881 0.39259 0.0
C202 C 0.03165 0.852 0.35192 0.0
C203 C 0.0586 0.84796 0.35042 0.0
C204 C 0.06264 0.85441 0.39023 0.0
N205 N 0.09601 0.83114 0.32933 0.0
C206 C 0.07019 0.83762 0.32981 0.0
C207 C 0.09412 0.80847 0.28975 0.0
C208 C 0.06767 0.81742 0.28975 0.0
C209 C 0.10803 0.81471 0.30987 0.0
C210 C 0.05529 0.83134 0.31002 0.0
H211 H 0.05691 0.81231 0.27417 0.0
O212 O 0.13044 0.76306 0.3554 0.0
O213 O 0.15743 0.87629 0.37214 0.0
O214 O 0.15411 0.95331 0.34163 0.0
O215 O 0.11618 0.90622 0.33486 0.0
O216 O 0.15494 0.82454 0.34488 0.0
O217 O 0.10729 0.77773 0.38528 0.0
O218 O 0.14395 0.04797 0.38696 0.0
O219 O 0.11688 0.93343 0.37139 0.0
O220 O 0.12045 0.85657 0.40223 0.0
O221 O 0.15829 0.90462 0.40822 0.0
O222 O 0.1187 0.98709 0.39794 0.0
O223 O 0.16819 0.03099 0.35795 0.0
C224 C 0.1707 0.85133 0.35742 0.0
C225 C 0.02855 0.83776 0.3112 0.0
C226 C 0.01675 0.84806 0.33213 0.0
C227 C 0.11809 0.7413 0.37232 0.0
C228 C 0.10298 0.69234 0.36701 0.0
C229 C 0.07769 0.69664 0.35914 0.0
C230 C 0.11419 0.6406 0.36948 0.0
C231 C 0.10022 0.59312 0.36421 0.0
C232 C 0.06375 0.64997 0.35382 0.0
C233 C 0.07485 0.59861 0.3563 0.0
C234 C 0.13486 0.93904 0.32821 0.0
C235 C 0.10327 0.9588 0.38565 0.0
C236 C 0.15719 0.06842 0.37028 0.0
C237 C 0.17246 0.11713 0.37565 0.0
C238 C 0.19775 0.11247 0.38348 0.0
C239 C 0.1614 0.16902 0.37323 0.0
C240 C 0.17551 0.21631 0.37852 0.0
C241 C 0.21185 0.15896 0.38879 0.0
C242 C 0.20088 0.21047 0.38636 0.0
C243 C 0.13959 0.87291 0.41548 0.0
H244 H 0.06874 0.73597 0.35708 0.0
H245 H 0.13368 0.63745 0.37575 0.0
H246 H 0.04426 0.65361 0.34766 0.0
H247 H 0.06366 0.56323 0.3517 0.0
H248 H 0.2066 0.07302 0.38549 0.0
H249 H 0.1419 0.17243 0.36698 0.0
H250 H 0.23134 0.15506 0.39492 0.0
H251 H 0.21217 0.2457 0.39097 0.0
Gd252 Gd 0.90238 0.19785 0.36316 0.0
Gd253 Gd 0.86537 0.07741 0.37939 0.0
C254 C 0.77893 0.08782 0.39084 0.0
C255 C 0.77554 0.0722 0.43146 0.0
C256 C 0.81723 0.0708 0.41298 0.0
C257 C 0.80581 0.08245 0.39238 0.0
C258 C 0.80221 0.06448 0.43269 0.0
C259 C 0.76392 0.08386 0.41057 0.0
C260 C 0.76789 0.09538 0.36943 0.0
C261 C 0.7835 0.09542 0.35019 0.0
N262 N 0.82086 0.08535 0.37363 0.0
C263 C 0.81006 0.08954 0.35258 0.0
H264 H 0.82189 0.08986 0.33757 0.0
C265 C 0.85479 0.04556 0.43289 0.0
N266 N 0.84298 0.06315 0.41351 0.0
C267 C 0.84074 0.03913 0.45293 0.0
C268 C 0.81437 0.04925 0.4529 0.0
H269 H 0.87521 0.03808 0.43303 0.0
H270 H 0.74327 0.0884 0.40976 0.0
H271 H 0.9467 0.18651 0.40447 0.0
H272 H 0.74732 0.09984 0.36752 0.0
H273 H 0.77512 0.10016 0.33351 0.0
H274 H 0.76368 0.06799 0.44645 0.0
H275 H 0.89193 0.24349 0.31056 0.0
H276 H 0.02096 0.18165 0.37387 0.0
H277 H 0.99354 0.17869 0.40808 0.0
H278 H 1.00344 0.21893 0.2956 0.0
H279 H 0.85026 0.02652 0.46838 0.0
H280 H 0.80352 0.04409 0.46843 0.0
H281 H 0.02444 0.19585 0.33175 0.0
H282 H 0.91643 0.26132 0.27551 0.0
N283 N 0.94715 0.19181 0.36841 0.0
C284 C 1.00033 0.18492 0.37214 0.0
C285 C 0.98492 0.18343 0.39149 0.0
C286 C 0.98896 0.19279 0.3509 0.0
C287 C 0.96199 0.19653 0.3496 0.0
C288 C 0.95828 0.18786 0.38934 0.0
N289 N 0.92445 0.21619 0.32918 0.0
C290 C 0.95025 0.20941 0.32932 0.0
C291 C 0.92617 0.24641 0.29048 0.0
C292 C 0.95258 0.23686 0.29001 0.0
C293 C 0.91236 0.23632 0.31039 0.0
C294 C 0.96503 0.21897 0.30968 0.0
H295 H 0.96325 0.2448 0.27459 0.0
O296 O 0.88949 0.28033 0.35617 0.0
O297 O 0.8633 0.16594 0.37154 0.0
O298 O 0.86849 0.08592 0.34105 0.0
O299 O 0.90458 0.1391 0.3336 0.0
O300 O 0.86574 0.21724 0.34417 0.0
O301 O 0.91326 0.26431 0.38547 0.0
O302 O 0.87698 0.99488 0.38777 0.0
O303 O 0.90432 0.10936 0.37093 0.0
O304 O 0.90054 0.18584 0.40172 0.0
O305 O 0.86276 0.13784 0.40776 0.0
O306 O 0.90223 0.05665 0.39794 0.0
O307 O 0.8535 1.00989 0.3581 0.0
C308 C 0.85001 0.19022 0.35664 0.0
C309 C 0.99177 0.21234 0.31056 0.0
C310 C 1.00373 0.19919 0.33114 0.0
C311 C 0.90218 0.30136 0.37302 0.0
C312 C 0.91732 0.35041 0.36782 0.0
C313 C 0.94258 0.34596 0.35989 0.0
C314 C 0.9063 0.40229 0.37058 0.0
C315 C 0.92049 0.44967 0.36554 0.0
C316 C 0.95668 0.3925 0.35474 0.0
C317 C 0.94579 0.44395 0.35751 0.0
C318 C 0.88724 0.10243 0.32748 0.0
C319 C 0.91775 0.08443 0.38552 0.0
C320 C 0.86415 0.97329 0.37109 0.0
C321 C 0.84862 0.92509 0.3767 0.0
C322 C 0.8234 0.93068 0.3846 0.0
C323 C 0.85925 0.87278 0.3743 0.0
C324 C 0.84475 0.82605 0.37966 0.0
C325 C 0.80896 0.88477 0.39004 0.0
C326 C 0.81948 0.83287 0.38762 0.0
C327 C 0.88149 0.16944 0.41502 0.0
H328 H 0.95142 0.30661 0.35769 0.0
H329 H 0.88685 0.40563 0.37692 0.0
H330 H 0.97613 0.3887 0.34851 0.0
H331 H 0.95711 0.47925 0.35306 0.0
H332 H 0.81485 0.97043 0.38654 0.0
H333 H 0.87867 0.86859 0.36797 0.0
H334 H 0.78953 0.88944 0.39622 0.0
H335 H 0.80791 0.79808 0.39228 0.0
Gd336 Gd 0.86647 0.96436 0.87907 0.0
Gd337 Gd 0.90403 0.84425 0.86323 0.0
C338 C 0.99067 0.85027 0.85175 0.0
C339 C 0.99387 0.83535 0.81109 0.0
C340 C 0.95218 0.83576 0.8296 0.0
C341 C 0.96373 0.84639 0.85021 0.0
C342 C 0.96713 0.82907 0.80985 0.0
C343 C 1.00563 0.84592 0.83201 0.0
C344 C 1.00181 0.85694 0.87316 0.0
C345 C 0.9862 0.85777 0.89239 0.0
N346 N 0.9487 0.84998 0.86895 0.0
C347 C 0.95958 0.8535 0.88999 0.0
H348 H 0.94784 0.85443 0.90502 0.0
C349 C 0.91438 0.81279 0.80963 0.0
N350 N 0.92636 0.82943 0.82907 0.0
C351 C 0.92834 0.80614 0.78956 0.0
C352 C 0.9548 0.81492 0.7896 0.0
H353 H 0.8939 0.80625 0.80945 0.0
H354 H 0.02633 0.84937 0.83283 0.0
H355 H 0.8217 0.94968 0.83849 0.0
H356 H 0.02242 0.86028 0.87507 0.0
H357 H 0.99464 0.86194 0.90907 0.0
H358 H 1.00567 0.83083 0.79607 0.0
H359 H 0.87799 1.00542 0.93229 0.0
H360 H 0.74804 0.94246 0.87024 0.0
H361 H 0.77483 0.93965 0.83562 0.0
H362 H 0.76681 0.97838 0.94844 0.0
H363 H 0.91868 0.79424 0.77408 0.0
H364 H 0.9656 0.80949 0.77405 0.0
H365 H 0.74526 0.95645 0.91242 0.0
H366 H 0.85416 1.01874 0.96807 0.0
N367 N 0.82176 0.95654 0.87449 0.0
C368 C 0.76866 0.94683 0.87162 0.0
C369 C 0.78371 0.94538 0.85204 0.0
C370 C 0.78035 0.95558 0.89268 0.0
C371 C 0.80727 0.96077 0.89353 0.0
C372 C 0.81033 0.95111 0.85376 0.0
N373 N 0.84511 0.98055 0.9136 0.0
C374 C 0.81932 0.97338 0.91373 0.0
C375 C 0.84413 1.00586 0.95292 0.0
C376 C 0.81773 0.9964 0.95357 0.0
C377 C 0.85756 0.99842 0.93261 0.0
C378 C 0.80491 0.98072 0.93375 0.0
H379 H 0.80737 1.00231 0.96931 0.0
O380 O 0.87832 0.04742 0.88599 0.0
O381 O 0.90549 0.93257 0.87077 0.0
O382 O 0.90176 0.85622 0.90184 0.0
O383 O 0.86396 0.90464 0.90766 0.0
O384 O 0.90351 0.98659 0.89722 0.0
O385 O 0.85421 0.03007 0.85693 0.0
O386 O 0.89194 0.76191 0.85522 0.0
O387 O 0.86484 0.87555 0.87159 0.0
O388 O 0.86838 0.95217 0.84084 0.0
O389 O 0.9063 0.90477 0.83437 0.0
O390 O 0.86738 0.82343 0.84448 0.0
O391 O 0.91486 0.77706 0.88519 0.0
C392 C 0.91901 0.95812 0.88505 0.0
C393 C 0.77821 0.97333 0.93321 0.0
C394 C 0.76594 0.9608 0.9127 0.0
C395 C 0.86513 0.06766 0.86922 0.0
C396 C 0.84978 0.11641 0.87444 0.0
C397 C 0.82435 0.11183 0.88191 0.0
C398 C 0.8609 0.16827 0.87222 0.0
C399 C 0.84671 0.21558 0.87736 0.0
C400 C 0.81018 0.15834 0.88708 0.0
C401 C 0.8212 0.20982 0.88485 0.0
C402 C 0.88265 0.87298 0.91504 0.0
C403 C 0.85158 0.85048 0.85691 0.0
C404 C 0.9042 0.74042 0.87225 0.0
C405 C 0.91941 0.69142 0.86715 0.0
C406 C 0.94485 0.69566 0.85969 0.0
C407 C 0.90815 0.63971 0.86944 0.0
C408 C 0.92223 0.5922 0.86438 0.0
C409 C 0.9589 0.64895 0.85458 0.0
C410 C 0.94775 0.59762 0.85687 0.0
C411 C 0.8877 0.93762 0.82754 0.0
H412 H 0.81545 0.0724 0.88377 0.0
H413 H 0.8805 0.17164 0.86625 0.0
H414 H 0.79058 0.15449 0.89293 0.0
H415 H 0.80983 0.24508 0.88933 0.0
H416 H 0.95384 0.73495 0.85778 0.0
H417 H 0.88854 0.63661 0.8754 0.0
H418 H 0.97851 0.65254 0.84872 0.0
H419 H 0.95903 0.56221 0.85244 0.0
Gd420 Gd 0.15748 0.07344 0.87935 0.0
Gd421 Gd 0.12025 0.19402 0.86344 0.0
C422 C 0.03365 0.18846 0.85172 0.0
C423 C 0.03062 0.20308 0.81102 0.0
C424 C 0.07224 0.20248 0.82965 0.0
C425 C 0.06061 0.19209 0.85024 0.0
C426 C 0.05738 0.20916 0.80986 0.0
C427 C 0.01878 0.19275 0.83193 0.0
C428 C 0.02243 0.18227 0.87312 0.0
C429 C 0.03796 0.1818 0.8924 0.0
N430 N 0.07556 0.18871 0.86904 0.0
C431 C 0.0646 0.18582 0.89006 0.0
H432 H 0.07629 0.18518 0.90514 0.0
C433 C 0.11015 0.22517 0.80977 0.0
N434 N 0.09808 0.20866 0.82918 0.0
C435 C 0.09627 0.23182 0.78965 0.0
C436 C 0.06979 0.22317 0.78963 0.0
H437 H 0.13064 0.23162 0.80966 0.0
H438 H 0.99807 0.1895 0.83269 0.0
H439 H 0.20219 0.0889 0.83872 0.0
H440 H 1.0018 0.17915 0.87498 0.0
H441 H 0.02945 0.1781 0.90907 0.0
H442 H 0.01887 0.2076 0.79597 0.0
H443 H 0.1461 0.03192 0.93252 0.0
H444 H 0.27592 0.09523 0.87033 0.0
H445 H 0.24903 0.09885 0.83578 0.0
H446 H 0.25737 0.05812 0.94846 0.0
H447 H 0.10599 0.24362 0.7742 0.0
H448 H 0.05906 0.22861 0.77405 0.0
H449 H 0.27883 0.08049 0.91245 0.0
H450 H 0.17003 1.01799 0.96821 0.0
N451 N 0.2022 0.0812 0.87469 0.0
C452 C 0.25531 0.09088 0.87174 0.0
C453 C 0.2402 0.0928 0.8522 0.0
C454 C 0.24368 0.08175 0.89279 0.0
C455 C 0.21675 0.07661 0.89369 0.0
C456 C 0.21358 0.08709 0.85396 0.0
N457 N 0.17896 0.05681 0.9138 0.0
C458 C 0.20476 0.06382 0.91389 0.0
C459 C 0.18003 0.03101 0.95307 0.0
C460 C 0.20645 0.04029 0.95367 0.0
C461 C 0.16655 0.0388 0.9328 0.0
C462 C 0.21922 0.05615 0.93385 0.0
H463 H 0.21686 0.0341 0.96937 0.0
O464 O 0.14554 0.99041 0.8863 0.0
O465 O 0.1185 0.10567 0.87106 0.0
O466 O 0.12242 0.18232 0.90208 0.0
O467 O 0.15991 0.13281 0.90808 0.0
O468 O 0.12048 0.05173 0.89758 0.0
O469 O 0.16943 1.00766 0.85712 0.0
O470 O 0.13229 0.27629 0.85518 0.0
O471 O 0.15925 0.16229 0.87202 0.0
O472 O 0.15572 0.08587 0.84115 0.0
O473 O 0.11786 0.13338 0.8346 0.0
O474 O 0.15719 0.21463 0.845 0.0
O475 O 0.10952 0.26153 0.88526 0.0
C476 C 0.10501 0.08036 0.88545 0.0
C477 C 0.24593 0.06341 0.93327 0.0
C478 C 0.25814 0.07619 0.91277 0.0
C479 C 0.15862 0.97008 0.86949 0.0
C480 C 0.17407 0.92141 0.87469 0.0
C481 C 0.19965 0.9263 0.88173 0.0
C482 C 0.16294 0.86941 0.87298 0.0
C483 C 0.17725 0.82233 0.8783 0.0
C484 C 0.21396 0.88003 0.88696 0.0
C485 C 0.20293 0.82846 0.88527 0.0
C486 C 0.14136 0.16497 0.91536 0.0
C487 C 0.17279 0.18741 0.85756 0.0
C488 C 0.12007 0.29803 0.87217 0.0
C489 C 0.10475 0.34687 0.86697 0.0
C490 C 0.07913 0.34225 0.85999 0.0
C491 C 0.11603 0.39873 0.86857 0.0
C492 C 0.10184 0.44594 0.86321 0.0
C493 C 0.06495 0.38865 0.85471 0.0
C494 C 0.07614 0.44009 0.85629 0.0
C495 C 0.13644 0.10045 0.82782 0.0
H496 H 0.20858 0.96578 0.88315 0.0
H497 H 0.14305 0.86579 0.86784 0.0
H498 H 0.23373 0.88412 0.8923 0.0
H499 H 0.21466 0.79331 0.88914 0.0
H500 H 0.07009 0.30288 0.85864 0.0
H501 H 0.13595 0.40214 0.87367 0.0
H502 H 0.04515 0.38476 0.84941 0.0
H503 H 0.0645 0.47535 0.85239 0.0
Gd504 Gd 0.8648 0.07418 0.61946 0.0
Gd505 Gd 0.90235 0.19396 0.63568 0.0
C506 C 0.98895 0.18744 0.64738 0.0
C507 C 0.99202 0.20191 0.68808 0.0
C508 C 0.95039 0.20182 0.66946 0.0
C509 C 0.962 0.1914 0.64886 0.0
C510 C 0.96528 0.20825 0.68925 0.0
C511 C 1.00384 0.19152 0.66717 0.0
C512 C 1.00015 0.18097 0.62598 0.0
C513 C 0.9846 0.18041 0.60671 0.0
N514 N 0.94703 0.18809 0.63007 0.0
C515 C 0.95797 0.18476 0.60905 0.0
H516 H 0.94628 0.18406 0.59399 0.0
C517 C 0.91253 0.22468 0.68938 0.0
N518 N 0.92457 0.20822 0.66994 0.0
C519 C 0.92643 0.23109 0.70949 0.0
C520 C 0.95289 0.22223 0.7095 0.0
H521 H 0.89205 0.23129 0.68951 0.0
H522 H 0.02455 0.18801 0.6664 0.0
H523 H 0.81988 0.08861 0.65993 0.0
H524 H 0.02077 0.17758 0.62412 0.0
H525 H 0.99309 0.1764 0.59004 0.0
H526 H 1.00378 0.20623 0.70313 0.0
H527 H 0.87653 0.03409 0.56614 0.0
H528 H 0.74634 0.09644 0.62798 0.0
H529 H 0.773 0.09879 0.66268 0.0
H530 H 0.76541 0.06166 0.54974 0.0
H531 H 0.91672 0.24286 0.72497 0.0
H532 H 0.96364 0.22748 0.72508 0.0
H533 H 0.74372 0.08304 0.58576 0.0
H534 H 0.85285 0.02157 0.53023 0.0
N535 N 0.82007 0.08206 0.62393 0.0
C536 C 0.76697 0.09199 0.62665 0.0
C537 C 0.78194 0.09319 0.64628 0.0
C538 C 0.77873 0.08344 0.60561 0.0
C539 C 0.80566 0.07813 0.60483 0.0
C540 C 0.80857 0.08736 0.64463 0.0
N541 N 0.84357 0.05859 0.58482 0.0
C542 C 0.81778 0.06582 0.58463 0.0
C543 C 0.84275 0.03413 0.5454 0.0
C544 C 0.81635 0.04363 0.54471 0.0
C545 C 0.8561 0.04111 0.56578 0.0
C546 C 0.80345 0.05892 0.56455 0.0
H547 H 0.80605 0.03808 0.52891 0.0
O548 O 0.87674 0.99121 0.61243 0.0
O549 O 0.90379 0.10573 0.62793 0.0
O550 O 0.90014 0.1826 0.59703 0.0
O551 O 0.86233 0.13442 0.59107 0.0
O552 O 0.90187 0.05213 0.60133 0.0
O553 O 0.85247 1.00821 0.64142 0.0
O554 O 0.89024 0.27623 0.64384 0.0
O555 O 0.86323 0.16286 0.62713 0.0
O556 O 0.86655 0.08599 0.65771 0.0
O557 O 0.9045 0.13305 0.66443 0.0
O558 O 0.8656 0.21477 0.65431 0.0
O559 O 0.91332 0.26141 0.61393 0.0
C560 C 0.91733 0.08037 0.6136 0.0
C561 C 0.77674 0.06637 0.56502 0.0
C562 C 0.7644 0.0786 0.58553 0.0
C563 C 0.8635 0.97077 0.62911 0.0
C564 C 0.84825 0.92203 0.62375 0.0
C565 C 0.82295 0.92663 0.61593 0.0
C566 C 0.85934 0.87016 0.62617 0.0
C567 C 0.84525 0.82285 0.62087 0.0
C568 C 0.80888 0.88011 0.61061 0.0
C569 C 0.81988 0.82862 0.61304 0.0
C570 C 0.88101 0.16617 0.5838 0.0
C571 C 0.84987 0.18787 0.64176 0.0
C572 C 0.90258 0.2979 0.62691 0.0
C573 C 0.91774 0.34682 0.63217 0.0
C574 C 0.94307 0.34245 0.63992 0.0
C575 C 0.90654 0.39858 0.62976 0.0
C576 C 0.92057 0.44603 0.63499 0.0
C577 C 0.95707 0.38909 0.64519 0.0
C578 C 0.94598 0.44047 0.64277 0.0
C579 C 0.88584 0.10022 0.67111 0.0
H580 H 0.81408 0.96606 0.61391 0.0
H581 H 0.87884 0.86679 0.6324 0.0
H582 H 0.78939 0.88397 0.60449 0.0
H583 H 0.8086 0.79337 0.60843 0.0
H584 H 0.95202 0.30311 0.64193 0.0
H585 H 0.88702 0.40179 0.62358 0.0
H586 H 0.97659 0.38539 0.65127 0.0
H587 H 0.95721 0.47582 0.64734 0.0
Gd588 Gd 0.15553 0.96285 0.61973 0.0
Gd589 Gd 0.11795 0.84317 0.63621 0.0
C590 C 0.03133 0.84999 0.64788 0.0
C591 C 0.02826 0.83672 0.68865 0.0
C592 C 0.06988 0.83612 0.67003 0.0
C593 C 0.05828 0.84601 0.64938 0.0
C594 C 0.055 0.83029 0.68985 0.0
C595 C 0.01644 0.84655 0.66769 0.0
C596 C 0.02013 0.85571 0.62645 0.0
C597 C 0.03567 0.85541 0.60717 0.0
N598 N 0.07325 0.84863 0.63058 0.0
C599 C 0.06229 0.85109 0.60954 0.0
H600 H 0.07397 0.85115 0.59447 0.0
C601 C 0.10773 0.81355 0.69003 0.0
N602 N 0.0957 0.82958 0.67052 0.0
C603 C 0.09384 0.80776 0.71018 0.0
C604 C 0.06738 0.81678 0.71016 0.0
H605 H 0.1282 0.80685 0.6902 0.0
H606 H 0.99574 0.85008 0.6669 0.0
H607 H 0.20018 0.94953 0.66051 0.0
H608 H 0.99951 0.85908 0.62456 0.0
H609 H 0.02717 0.85876 0.59047 0.0
H610 H 0.01651 0.83286 0.70372 0.0
H611 H 0.14429 1.00274 0.56632 0.0
H612 H 0.27392 0.94029 0.629 0.0
H613 H 0.24702 0.93915 0.66357 0.0
H614 H 0.25545 0.97384 0.55055 0.0
H615 H 0.10354 0.79635 0.72571 0.0
H616 H 0.05664 0.81202 0.72577 0.0
H617 H 0.27685 0.95278 0.58674 0.0
H618 H 0.16825 1.01484 0.53053 0.0
N619 N 0.20023 0.95488 0.62447 0.0
C620 C 0.25331 0.94478 0.62753 0.0
C621 C 0.2382 0.94428 0.64708 0.0
C622 C 0.2417 0.95284 0.60639 0.0
C623 C 0.21478 0.95823 0.60543 0.0
C624 C 0.21159 0.95022 0.64526 0.0
N625 N 0.17706 0.97786 0.58518 0.0
C626 C 0.20282 0.97033 0.58514 0.0
C627 C 0.1782 1.00219 0.54575 0.0
C628 C 0.20459 0.99234 0.54521 0.0
C629 C 0.1647 0.99544 0.56607 0.0
C630 C 0.2173 0.97698 0.56513 0.0
H631 H 0.21501 0.99775 0.52947 0.0
O632 O 0.14369 0.04572 0.61229 0.0
O633 O 0.1165 0.93127 0.62811 0.0
O634 O 0.12004 0.8542 0.59758 0.0
O635 O 0.15781 0.90238 0.59137 0.0
O636 O 0.11858 0.98458 0.60138 0.0
O637 O 0.16758 0.02934 0.64156 0.0
O638 O 0.13003 0.76103 0.6447 0.0
O639 O 0.15712 0.87422 0.62766 0.0
O640 O 0.15354 0.95184 0.65802 0.0
O641 O 0.11562 0.9047 0.66471 0.0
O642 O 0.15459 0.82299 0.65508 0.0
O643 O 0.10734 0.77528 0.61454 0.0
C644 C 0.10307 0.95641 0.61362 0.0
C645 C 0.244 0.96933 0.56578 0.0
C646 C 0.25618 0.95729 0.58638 0.0
C647 C 0.1567 0.06655 0.62902 0.0
C648 C 0.17206 0.11518 0.62364 0.0
C649 C 0.19725 0.11014 0.6156 0.0
C650 C 0.16127 0.16732 0.62629 0.0
C651 C 0.17559 0.21441 0.62105 0.0
C652 C 0.21151 0.15639 0.6103 0.0
C653 C 0.20084 0.20809 0.61297 0.0
C654 C 0.13905 0.87067 0.58422 0.0
C655 C 0.17038 0.84961 0.6425 0.0
C656 C 0.11796 0.739 0.6277 0.0
C657 C 0.10275 0.69008 0.63293 0.0
C658 C 0.07755 0.69471 0.64097 0.0
C659 C 0.11369 0.63812 0.63015 0.0
C660 C 0.0995 0.59079 0.63527 0.0
C661 C 0.06341 0.64823 0.64616 0.0
C662 C 0.07423 0.59669 0.64337 0.0
C663 C 0.13421 0.9377 0.67138 0.0
H664 H 0.20589 0.07054 0.61341 0.0
H665 H 0.14186 0.17108 0.63269 0.0
H666 H 0.23092 0.15215 0.604 0.0
H667 H 0.21228 0.24313 0.60838 0.0
H668 H 0.06881 0.73417 0.64326 0.0
H669 H 0.13312 0.63468 0.62376 0.0
H670 H 0.044 0.65214 0.65247 0.0
H671 H 0.06288 0.56147 0.64788 0.0
Gd672 Gd 0.62199 0.69912 0.13475 0.0
Gd673 Gd 0.65902 0.57855 0.119 0.0
C674 C 0.74549 0.58847 0.10777 0.0
C675 C 0.74901 0.57222 0.0672 0.0
C676 C 0.70727 0.57118 0.08558 0.0
C677 C 0.71861 0.58313 0.10618 0.0
C678 C 0.72236 0.56456 0.06592 0.0
C679 C 0.76056 0.58416 0.08809 0.0
C680 C 0.75646 0.59642 0.12918 0.0
C681 C 0.74077 0.59689 0.14838 0.0
N682 N 0.70351 0.58646 0.12488 0.0
C683 C 0.71422 0.59105 0.14594 0.0
H684 H 0.70234 0.59173 0.16091 0.0
C685 C 0.66976 0.5459 0.06561 0.0
N686 N 0.68151 0.56366 0.08498 0.0
C687 C 0.68388 0.53917 0.04563 0.0
C688 C 0.71026 0.54916 0.04571 0.0
H689 H 0.64934 0.53855 0.06542 0.0
H690 H 0.78121 0.58867 0.08895 0.0
H691 H 0.57792 0.68603 0.09333 0.0
H692 H 0.77701 0.60087 0.13113 0.0
H693 H 0.7491 0.60196 0.16507 0.0
H694 H 0.76093 0.56777 0.05225 0.0
H695 H 0.63225 0.74541 0.18728 0.0
H696 H 0.50348 0.68291 0.12365 0.0
H697 H 0.53109 0.67832 0.08958 0.0
H698 H 0.52061 0.7223 0.2018 0.0
H699 H 0.67441 0.52644 0.03017 0.0
H700 H 0.72116 0.54378 0.03022 0.0
H701 H 0.49979 0.6985 0.16566 0.0
H702 H 0.60758 0.7641 0.22216 0.0
N703 N 0.57726 0.69293 0.12935 0.0
C704 C 0.52411 0.68615 0.12543 0.0
C705 C 0.53962 0.68372 0.10616 0.0
C706 C 0.53537 0.69473 0.14668 0.0
C707 C 0.56233 0.69839 0.14806 0.0
C708 C 0.56626 0.6881 0.1084 0.0
N709 N 0.59979 0.71817 0.16858 0.0
C710 C 0.57397 0.71167 0.16834 0.0
C711 C 0.5979 0.74905 0.20718 0.0
C712 C 0.57147 0.73983 0.20756 0.0
C713 C 0.61181 0.73846 0.18738 0.0
C714 C 0.5591 0.72174 0.18788 0.0
H715 H 0.56072 0.74815 0.2229 0.0
O716 O 0.63496 0.7816 0.14144 0.0
O717 O 0.66114 0.66718 0.12657 0.0
O718 O 0.65571 0.58755 0.15731 0.0
O719 O 0.61955 0.6408 0.16445 0.0
O720 O 0.65854 0.71873 0.15384 0.0
O721 O 0.61084 0.76526 0.11237 0.0
O722 O 0.64742 0.49596 0.11086 0.0
O723 O 0.62004 0.61053 0.1273 0.0
O724 O 0.62412 0.6867 0.09617 0.0
O725 O 0.66196 0.63857 0.09054 0.0
O726 O 0.62217 0.5576 0.10042 0.0
O727 O 0.67104 0.51142 0.14043 0.0
C728 C 0.67436 0.69163 0.14146 0.0
C729 C 0.53235 0.71532 0.18691 0.0
C730 C 0.5205 0.70176 0.16634 0.0
C731 C 0.62204 0.80241 0.12465 0.0
C732 C 0.607 0.85156 0.12989 0.0
C733 C 0.58162 0.84753 0.13756 0.0
C734 C 0.6183 0.90317 0.1275 0.0
C735 C 0.60433 0.95075 0.13266 0.0
C736 C 0.5677 0.8943 0.14282 0.0
C737 C 0.5789 0.94552 0.14042 0.0
C738 C 0.63682 0.60409 0.17073 0.0
C739 C 0.6066 0.58542 0.11279 0.0
C740 C 0.66036 0.47466 0.12756 0.0
C741 C 0.67585 0.42635 0.12203 0.0
C742 C 0.70123 0.43152 0.11449 0.0
C743 C 0.66494 0.37432 0.12412 0.0
C744 C 0.67928 0.32736 0.11878 0.0
C745 C 0.71555 0.38535 0.1091 0.0
C746 C 0.70472 0.33365 0.1112 0.0
C747 C 0.64331 0.67014 0.08306 0.0
H748 H 0.57255 0.80834 0.13948 0.0
H749 H 0.63785 0.90615 0.12135 0.0
H750 H 0.54816 0.89083 0.14885 0.0
H751 H 0.56773 0.98102 0.14495 0.0
H752 H 0.70998 0.4711 0.11279 0.0
H753 H 0.6454 0.37051 0.13019 0.0
H754 H 0.7351 0.38964 0.1032 0.0
H755 H 0.71619 0.29865 0.10658 0.0
Gd756 Gd 0.40478 0.34478 0.13604 0.0
Gd757 Gd 0.3692 0.46307 0.11574 0.0
C758 C 0.28293 0.44294 0.10632 0.0
C759 C 0.27871 0.44462 0.06523 0.0
C760 C 0.32061 0.45495 0.08279 0.0
C761 C 0.30967 0.44969 0.10409 0.0
C762 C 0.30518 0.45407 0.06316 0.0
C763 C 0.26761 0.439 0.08677 0.0
C764 C 0.2723 0.44204 0.12812 0.0
C765 C 0.28813 0.44981 0.14695 0.0
N766 N 0.32497 0.45452 0.12263 0.0
C767 C 0.31454 0.45675 0.14386 0.0
H768 H 0.32659 0.46229 0.15856 0.0
C769 C 0.3572 0.47871 0.06117 0.0
N770 N 0.34617 0.46499 0.08143 0.0
C771 C 0.34272 0.47787 0.04119 0.0
C772 C 0.31667 0.46469 0.04214 0.0
H773 H 0.37741 0.48838 0.0604 0.0
H774 H 0.24707 0.43322 0.08815 0.0
H775 H 0.44798 0.33745 0.09164 0.0
H776 H 0.25185 0.43674 0.13056 0.0
H777 H 0.28004 0.4502 0.16385 0.0
H778 H 0.26655 0.44319 0.05033 0.0
H779 H 0.39966 0.30893 0.19116 0.0
H780 H 0.52246 0.36628 0.11836 0.0
H781 H 0.49372 0.35043 0.08574 0.0
H782 H 0.51013 0.35791 0.19852 0.0
H783 H 0.35166 0.48718 0.02508 0.0
H784 H 0.30547 0.46431 0.02665 0.0
H785 H 0.52829 0.37012 0.1604 0.0
H786 H 0.42679 0.30723 0.22541 0.0
N787 N 0.44924 0.35022 0.12755 0.0
C788 C 0.50206 0.36125 0.12117 0.0
C789 C 0.4859 0.35235 0.10273 0.0
C790 C 0.49188 0.36068 0.14309 0.0
C791 C 0.46511 0.35419 0.14584 0.0
C792 C 0.45956 0.34579 0.10625 0.0
N793 N 0.4295 0.33683 0.16944 0.0
C794 C 0.45492 0.34747 0.16739 0.0
C795 C 0.43494 0.31894 0.20924 0.0
C796 C 0.46069 0.33378 0.20773 0.0
C797 C 0.41967 0.31951 0.18976 0.0
C798 C 0.47116 0.34696 0.18657 0.0
H799 H 0.47254 0.333 0.22284 0.0
O800 O 0.38695 0.27405 0.12004 0.0
O801 O 0.36591 0.37667 0.1273 0.0
O802 O 0.37329 0.47057 0.15388 0.0
O803 O 0.40003 0.40025 0.16634 0.0
O804 O 0.36897 0.33414 0.15724 0.0
O805 O 0.41779 0.26256 0.14357 0.0
O806 O 0.37908 0.5423 0.10192 0.0
O807 O 0.40799 0.43257 0.12655 0.0
O808 O 0.40533 0.35161 0.09734 0.0
O809 O 0.36697 0.39579 0.09011 0.0
O810 O 0.40672 0.47896 0.09744 0.0
O811 O 0.35644 0.53696 0.13263 0.0
C812 C 0.35293 0.35714 0.14358 0.0
C813 C 0.49746 0.35728 0.18395 0.0
C814 C 0.5078 0.3642 0.16224 0.0
C815 C 0.40011 0.23888 0.13163 0.0
C816 C 0.38533 0.19557 0.14319 0.0
C817 C 0.37396 0.20584 0.16436 0.0
C818 C 0.3824 0.14372 0.13325 0.0
C819 C 0.36771 0.10327 0.14426 0.0
C820 C 0.35942 0.16619 0.1752 0.0
C821 C 0.35621 0.11538 0.16524 0.0
C822 C 0.38661 0.44512 0.16976 0.0
C823 C 0.42183 0.45435 0.11138 0.0
C824 C 0.36615 0.56909 0.11723 0.0
C825 C 0.34938 0.61307 0.10877 0.0
C826 C 0.32748 0.60056 0.09603 0.0
C827 C 0.35518 0.66799 0.11336 0.0
C828 C 0.33903 0.70997 0.1053 0.0
C829 C 0.31174 0.64169 0.08767 0.0
C830 C 0.31745 0.69594 0.09219 0.0
C831 C 0.38622 0.3648 0.08356 0.0
H832 H 0.37639 0.24433 0.17271 0.0
H833 H 0.39123 0.13513 0.11699 0.0
H834 H 0.35071 0.17479 0.19148 0.0
H835 H 0.34506 0.08505 0.1742 0.0
H836 H 0.32247 0.55907 0.09252 0.0
H837 H 0.37188 0.67783 0.12351 0.0
H838 H 0.295 0.63146 0.07769 0.0
H839 H 0.30493 0.727 0.08532 0.0
Gd840 Gd 0.61844 0.34382 0.36281 0.0
Gd841 Gd 0.65566 0.4651 0.37782 0.0
C842 C 0.74282 0.45174 0.38244 0.0
C843 C 0.75028 0.46555 0.42274 0.0
C844 C 0.70694 0.46891 0.40755 0.0
C845 C 0.71622 0.45787 0.38605 0.0
C846 C 0.7239 0.4742 0.42605 0.0
C847 C 0.75972 0.4543 0.40098 0.0
C848 C 0.75171 0.44489 0.36023 0.0
C849 C 0.73432 0.44628 0.34224 0.0
N850 N 0.6994 0.45633 0.36848 0.0
C851 C 0.70813 0.45273 0.34666 0.0
H852 H 0.695 0.45328 0.33255 0.0
C853 C 0.67176 0.49582 0.4303 0.0
N854 N 0.68142 0.47761 0.41011 0.0
C855 C 0.68779 0.50123 0.4492 0.0
C856 C 0.71393 0.48965 0.44715 0.0
H857 H 0.6515 0.5043 0.43194 0.0
H858 H 0.78018 0.44911 0.39856 0.0
H859 H 0.57497 0.35776 0.40478 0.0
H860 H 0.77199 0.43988 0.35675 0.0
H861 H 0.74104 0.44207 0.32496 0.0
H862 H 0.7636 0.46888 0.43678 0.0
H863 H 0.62732 0.29519 0.31042 0.0
H864 H 0.50013 0.36333 0.37537 0.0
H865 H 0.5283 0.36686 0.4091 0.0
H866 H 0.51577 0.32375 0.29699 0.0
H867 H 0.67997 0.51417 0.46533 0.0
H868 H 0.72633 0.49406 0.46179 0.0
H869 H 0.49568 0.34811 0.3334 0.0
H870 H 0.60207 0.27841 0.27567 0.0
N871 N 0.57376 0.35093 0.36876 0.0
C872 C 0.5207 0.35939 0.37333 0.0
C873 C 0.53653 0.36123 0.39241 0.0
C874 C 0.53156 0.35048 0.35196 0.0
C875 C 0.55848 0.34588 0.35025 0.0
C876 C 0.5631 0.35605 0.38984 0.0
N877 N 0.59543 0.32443 0.32936 0.0
C878 C 0.56969 0.33211 0.32986 0.0
C879 C 0.59273 0.29383 0.29075 0.0
C880 C 0.5664 0.30433 0.29064 0.0
C881 C 0.60696 0.30327 0.31047 0.0
C882 C 0.55446 0.32273 0.31048 0.0
H883 H 0.55538 0.29665 0.27539 0.0
O884 O 0.63144 0.2612 0.35627 0.0
O885 O 0.65761 0.37627 0.37056 0.0
O886 O 0.64985 0.46006 0.33968 0.0
O887 O 0.61647 0.39895 0.33217 0.0
O888 O 0.65474 0.32401 0.3435 0.0
O889 O 0.60778 0.27802 0.38553 0.0
O890 O 0.64535 0.54683 0.38849 0.0
O891 O 0.61668 0.43274 0.3699 0.0
O892 O 0.62084 0.35702 0.40127 0.0
O893 O 0.65848 0.40589 0.40668 0.0
O894 O 0.61907 0.48554 0.3969 0.0
O895 O 0.66563 0.5344 0.35678 0.0
C896 C 0.67064 0.3516 0.35559 0.0
C897 C 0.52779 0.3302 0.31175 0.0
C898 C 0.51635 0.34408 0.33247 0.0
C899 C 0.61883 0.24065 0.37326 0.0
C900 C 0.60369 0.19147 0.36836 0.0
C901 C 0.57828 0.19563 0.36075 0.0
C902 C 0.61484 0.13976 0.3711 0.0
C903 C 0.60066 0.09222 0.36639 0.0
C904 C 0.56417 0.14889 0.35593 0.0
C905 C 0.57521 0.09758 0.35872 0.0
C906 C 0.63249 0.43807 0.32608 0.0
C907 C 0.6034 0.45796 0.3845 0.0
C908 C 0.65645 0.56982 0.37116 0.0
C909 C 0.67256 0.6175 0.37615 0.0
C910 C 0.69824 0.61127 0.38271 0.0
C911 C 0.66204 0.67002 0.37441 0.0
C912 C 0.67706 0.71638 0.37913 0.0
C913 C 0.71321 0.65682 0.38751 0.0
C914 C 0.70278 0.70897 0.38576 0.0
C915 C 0.63995 0.37422 0.4143 0.0
H916 H 0.56934 0.2349 0.35854 0.0
H917 H 0.63442 0.13667 0.37717 0.0
H918 H 0.5446 0.15243 0.34997 0.0
H919 H 0.56387 0.06208 0.35455 0.0
H920 H 0.70671 0.57132 0.38407 0.0
H921 H 0.64226 0.67466 0.36906 0.0
H922 H 0.733 0.65168 0.39266 0.0
H923 H 0.71479 0.74347 0.38989 0.0
Gd924 Gd 0.40273 0.69973 0.36283 0.0
Gd925 Gd 0.3657 0.57885 0.37844 0.0
C926 C 0.27927 0.58875 0.39018 0.0
C927 C 0.27604 0.57211 0.43074 0.0
C928 C 0.31766 0.57129 0.41213 0.0
C929 C 0.30617 0.58346 0.39162 0.0
C930 C 0.30271 0.56441 0.43186 0.0
C931 C 0.26434 0.58426 0.40993 0.0
C932 C 0.26814 0.59667 0.36883 0.0
C933 C 0.28368 0.59704 0.34954 0.0
N934 N 0.32114 0.58678 0.37284 0.0
C935 C 0.31025 0.59122 0.35183 0.0
H936 H 0.322 0.59179 0.33678 0.0
C937 C 0.3553 0.54554 0.43182 0.0
N938 N 0.34342 0.56365 0.41256 0.0
C939 C 0.34132 0.53856 0.45187 0.0
C940 C 0.31495 0.54865 0.45196 0.0
H941 H 0.37571 0.53808 0.43188 0.0
H942 H 0.24368 0.58873 0.40919 0.0
H943 H 0.44701 0.68707 0.4041 0.0
H944 H 0.24757 0.60108 0.367 0.0
H945 H 0.27522 0.60201 0.3329 0.0
H946 H 0.26423 0.56747 0.44574 0.0
H947 H 0.39254 0.7483 0.31066 0.0
H948 H 0.52128 0.68199 0.37351 0.0
H949 H 0.49383 0.67866 0.40771 0.0
H950 H 0.50391 0.72183 0.29544 0.0
H951 H 0.3509 0.52553 0.46723 0.0
H952 H 0.30415 0.54305 0.46749 0.0
H953 H 0.52482 0.69719 0.33146 0.0
H954 H 0.41711 0.76714 0.27573 0.0
N955 N 0.4475 0.69305 0.36806 0.0
C956 C 0.50065 0.68552 0.37179 0.0
C957 C 0.48523 0.68383 0.39113 0.0
C958 C 0.48932 0.69402 0.35058 0.0
C959 C 0.46236 0.69811 0.34928 0.0
C960 C 0.4586 0.6886 0.38898 0.0
N961 N 0.42491 0.71921 0.32901 0.0
C962 C 0.45068 0.71187 0.32909 0.0
C963 C 0.42678 0.75128 0.29058 0.0
C964 C 0.45312 0.74104 0.29 0.0
C965 C 0.41292 0.74062 0.31041 0.0
C966 C 0.46549 0.72199 0.30952 0.0
H967 H 0.46383 0.74943 0.27464 0.0
O968 O 0.38976 0.78241 0.35635 0.0
O969 O 0.36365 0.6676 0.37108 0.0
O970 O 0.36847 0.58865 0.34015 0.0
O971 O 0.40424 0.64277 0.33261 0.0
O972 O 0.36611 0.71997 0.34402 0.0
O973 O 0.41378 0.76556 0.38539 0.0
O974 O 0.37734 0.49614 0.38648 0.0
O975 O 0.40467 0.61088 0.36997 0.0
O976 O 0.40084 0.68657 0.40135 0.0
O977 O 0.36302 0.63853 0.40709 0.0
O978 O 0.40258 0.55772 0.39685 0.0
O979 O 0.35388 0.51184 0.35685 0.0
C980 C 0.3504 0.69239 0.3563 0.0
C981 C 0.49221 0.71486 0.31036 0.0
C982 C 0.50411 0.70082 0.33086 0.0
C983 C 0.40266 0.80297 0.37318 0.0
C984 C 0.41784 0.85199 0.36801 0.0
C985 C 0.44318 0.84747 0.36028 0.0
C986 C 0.40679 0.90389 0.37055 0.0
C987 C 0.42101 0.95121 0.36552 0.0
C988 C 0.45732 0.89395 0.35512 0.0
C989 C 0.44639 0.94541 0.35769 0.0
C990 C 0.38675 0.60652 0.32639 0.0
C991 C 0.4181 0.58559 0.38447 0.0
C992 C 0.36449 0.47493 0.36972 0.0
C993 C 0.3489 0.4267 0.37519 0.0
C994 C 0.32356 0.43227 0.3828 0.0
C995 C 0.35959 0.3744 0.37296 0.0
C996 C 0.34504 0.32767 0.37821 0.0
C997 C 0.30908 0.38636 0.38813 0.0
C998 C 0.31966 0.33447 0.38588 0.0
C999 C 0.38176 0.66987 0.41454 0.0
H1000 H 0.45206 0.80809 0.35824 0.0
H1001 H 0.38727 0.90729 0.37673 0.0
H1002 H 0.47683 0.89008 0.34905 0.0
H1003 H 0.45775 0.98068 0.35324 0.0
H1004 H 0.31496 0.472 0.38461 0.0
H1005 H 0.3791 0.37022 0.36685 0.0
H1006 H 0.28956 0.39101 0.3941 0.0
H1007 H 0.30804 0.29969 0.39046 0.0
Gd1008 Gd 0.36751 0.46188 0.87943 0.0
Gd1009 Gd 0.40435 0.34105 0.86317 0.0
C1010 C 0.49098 0.34837 0.85113 0.0
C1011 C 0.49402 0.32993 0.81072 0.0
C1012 C 0.45246 0.33094 0.82944 0.0
C1013 C 0.46404 0.34382 0.84978 0.0
C1014 C 0.46733 0.32242 0.80978 0.0
C1015 C 0.50583 0.34291 0.83138 0.0
C1016 C 0.50224 0.35612 0.87243 0.0
C1017 C 0.48677 0.35677 0.89175 0.0
N1018 N 0.44911 0.34785 0.86855 0.0
C1019 C 0.46016 0.3517 0.88952 0.0
H1020 H 0.44856 0.3525 0.90464 0.0
C1021 C 0.41488 0.30258 0.81044 0.0
N1022 N 0.42673 0.32313 0.82927 0.0
C1023 C 0.42874 0.29401 0.79044 0.0
C1024 C 0.45504 0.30473 0.79 0.0
H1025 H 0.39453 0.29435 0.81066 0.0
H1026 H 0.52652 0.34691 0.83203 0.0
H1027 H 0.32476 0.44866 0.83702 0.0
H1028 H 0.52284 0.35995 0.8742 0.0
H1029 H 0.49532 0.36142 0.90837 0.0
H1030 H 0.50576 0.32414 0.79574 0.0
H1031 H 0.37645 0.50073 0.93322 0.0
H1032 H 0.24971 0.43909 0.866 0.0
H1033 H 0.27807 0.43841 0.83236 0.0
H1034 H 0.26472 0.47079 0.94514 0.0
H1035 H 0.41914 0.2791 0.7754 0.0
H1036 H 0.46578 0.29772 0.77454 0.0
H1037 H 0.24494 0.45059 0.90817 0.0
H1038 H 0.3509 0.51191 0.96828 0.0
N1039 N 0.32311 0.4538 0.87305 0.0
C1040 C 0.27023 0.44363 0.86817 0.0
C1041 C 0.28617 0.44337 0.84914 0.0
C1042 C 0.28091 0.45136 0.88971 0.0
C1043 C 0.30775 0.45681 0.8916 0.0
C1044 C 0.31269 0.44927 0.85187 0.0
N1045 N 0.34456 0.47589 0.91327 0.0
C1046 C 0.31882 0.4683 0.91237 0.0
C1047 C 0.34165 0.4995 0.95269 0.0
C1048 C 0.31529 0.4894 0.95229 0.0
C1049 C 0.35603 0.49331 0.93282 0.0
C1050 C 0.30347 0.47443 0.93189 0.0
H1051 H 0.30417 0.49437 0.96769 0.0
O1052 O 0.3789 0.54403 0.88844 0.0
O1053 O 0.40643 0.4298 0.87069 0.0
O1054 O 0.40255 0.35306 0.90174 0.0
O1055 O 0.36494 0.40165 0.90791 0.0
O1056 O 0.40435 0.48188 0.898 0.0
O1057 O 0.35593 0.52995 0.85833 0.0
O1058 O 0.39143 0.25866 0.85625 0.0
O1059 O 0.36548 0.37343 0.87171 0.0
O1060 O 0.37113 0.4558 0.84107 0.0
O1061 O 0.4054 0.39742 0.83292 0.0
O1062 O 0.36739 0.32123 0.84466 0.0
O1063 O 0.41552 0.27456 0.88535 0.0
C1064 C 0.41984 0.45453 0.88536 0.0
C1065 C 0.27683 0.46672 0.9303 0.0
C1066 C 0.26557 0.4552 0.90925 0.0
C1067 C 0.36638 0.56608 0.87166 0.0
C1068 C 0.35086 0.61429 0.87722 0.0
C1069 C 0.3255 0.60904 0.88482 0.0
C1070 C 0.3617 0.66634 0.87504 0.0
C1071 C 0.34734 0.71325 0.88038 0.0
C1072 C 0.31116 0.65519 0.8902 0.0
C1073 C 0.32193 0.70692 0.88802 0.0
C1074 C 0.38359 0.36968 0.91509 0.0
C1075 C 0.35187 0.34886 0.85714 0.0
C1076 C 0.40434 0.23761 0.87297 0.0
C1077 C 0.4194 0.18862 0.86761 0.0
C1078 C 0.44465 0.19284 0.85962 0.0
C1079 C 0.40824 0.13697 0.87021 0.0
C1080 C 0.42221 0.08948 0.86495 0.0
C1081 C 0.45859 0.14613 0.8543 0.0
C1082 C 0.44752 0.09482 0.85692 0.0
C1083 C 0.38865 0.43549 0.82715 0.0
H1084 H 0.31679 0.56943 0.88656 0.0
H1085 H 0.38122 0.67018 0.86891 0.0
H1086 H 0.29162 0.65085 0.89614 0.0
H1087 H 0.31045 0.74192 0.89262 0.0
H1088 H 0.45359 0.23213 0.85749 0.0
H1089 H 0.38879 0.13389 0.8766 0.0
H1090 H 0.47804 0.14969 0.84804 0.0
H1091 H 0.45869 0.05935 0.85234 0.0
Gd1092 Gd 0.65676 0.57791 0.87768 0.0
Gd1093 Gd 0.61965 0.69932 0.86257 0.0
C1094 C 0.53274 0.69225 0.85203 0.0
C1095 C 0.52877 0.71198 0.81178 0.0
C1096 C 0.57075 0.71044 0.82976 0.0
C1097 C 0.55964 0.6969 0.85022 0.0
C1098 C 0.55543 0.71955 0.81041 0.0
C1099 C 0.51744 0.69832 0.83257 0.0
C1100 C 0.52198 0.68363 0.87346 0.0
C1101 C 0.53788 0.68213 0.89249 0.0
N1102 N 0.575 0.69219 0.8687 0.0
C1103 C 0.56444 0.68735 0.88983 0.0
H1104 H 0.57637 0.68589 0.90473 0.0
C1105 C 0.60789 0.73936 0.81024 0.0
N1106 N 0.59647 0.71827 0.82918 0.0
C1107 C 0.59357 0.74851 0.79054 0.0
C1108 C 0.56727 0.73781 0.79051 0.0
H1109 H 0.62823 0.74758 0.81013 0.0
H1110 H 0.49678 0.69424 0.83357 0.0
H1111 H 0.6981 0.59066 0.83412 0.0
H1112 H 0.50142 0.67966 0.87557 0.0
H1113 H 0.52973 0.67673 0.90922 0.0
H1114 H 0.51669 0.7182 0.79705 0.0
H1115 H 0.64976 0.53751 0.93145 0.0
H1116 H 0.77404 0.60113 0.86115 0.0
H1117 H 0.74458 0.6011 0.82825 0.0
H1118 H 0.76175 0.56885 0.9406 0.0
H1119 H 0.60283 0.76384 0.7754 0.0
H1120 H 0.55618 0.74526 0.77527 0.0
H1121 H 0.78023 0.58974 0.90317 0.0
H1122 H 0.67654 0.52558 0.96578 0.0
N1123 N 0.70091 0.58621 0.87012 0.0
C1124 C 0.7536 0.59655 0.86386 0.0
C1125 C 0.73704 0.59637 0.84524 0.0
C1126 C 0.74365 0.58897 0.88568 0.0
C1127 C 0.71688 0.58344 0.88827 0.0
C1128 C 0.71064 0.59037 0.84867 0.0
N1129 N 0.68087 0.56362 0.91085 0.0
C1130 C 0.70654 0.57162 0.9093 0.0
C1131 C 0.68521 0.53871 0.95002 0.0
C1132 C 0.71151 0.54934 0.94899 0.0
C1133 C 0.67013 0.54532 0.93058 0.0
C1134 C 0.72257 0.56515 0.92838 0.0
H1135 H 0.72316 0.54401 0.96405 0.0
O1136 O 0.64573 0.49572 0.88707 0.0
O1137 O 0.61775 0.61036 0.86962 0.0
O1138 O 0.6222 0.68629 0.90103 0.0
O1139 O 0.65983 0.63727 0.90645 0.0
O1140 O 0.62016 0.55755 0.89664 0.0
O1141 O 0.66763 0.50972 0.85635 0.0
O1142 O 0.6324 0.78193 0.85574 0.0
O1143 O 0.65875 0.66666 0.87032 0.0
O1144 O 0.65202 0.58437 0.83944 0.0
O1145 O 0.61793 0.64387 0.83204 0.0
O1146 O 0.65604 0.71916 0.84336 0.0
O1147 O 0.60912 0.76531 0.88525 0.0
C1148 C 0.6045 0.58521 0.88426 0.0
C1149 C 0.74913 0.57314 0.92611 0.0
C1150 C 0.75965 0.58506 0.90479 0.0
C1151 C 0.65771 0.47358 0.87 0.0
C1152 C 0.67354 0.42556 0.87523 0.0
C1153 C 0.69907 0.43132 0.88227 0.0
C1154 C 0.66288 0.37323 0.87328 0.0
C1155 C 0.67765 0.32661 0.87826 0.0
C1156 C 0.71379 0.38551 0.88734 0.0
C1157 C 0.70322 0.33355 0.88538 0.0
C1158 C 0.64133 0.6691 0.91405 0.0
C1159 C 0.67189 0.69132 0.85544 0.0
C1160 C 0.61993 0.80261 0.87279 0.0
C1161 C 0.60462 0.85161 0.86791 0.0
C1162 C 0.57917 0.84717 0.86045 0.0
C1163 C 0.61567 0.90345 0.87048 0.0
C1164 C 0.60133 0.95083 0.86575 0.0
C1165 C 0.56491 0.89374 0.85562 0.0
C1166 C 0.57584 0.94517 0.85822 0.0
C1167 C 0.63437 0.60553 0.82587 0.0
H1168 H 0.70765 0.4711 0.88381 0.0
H1169 H 0.64322 0.36893 0.86758 0.0
H1170 H 0.73346 0.39029 0.89286 0.0
H1171 H 0.71502 0.29883 0.88973 0.0
H1172 H 0.57032 0.8078 0.85838 0.0
H1173 H 0.63527 0.90676 0.87644 0.0
H1174 H 0.54531 0.88996 0.84977 0.0
H1175 H 0.56439 0.98052 0.85403 0.0
Gd1176 Gd 0.36473 0.57448 0.61928 0.0
Gd1177 Gd 0.40188 0.69469 0.6353 0.0
C1178 C 0.48852 0.68922 0.64723 0.0
C1179 C 0.49158 0.70964 0.68748 0.0
C1180 C 0.44995 0.70657 0.6689 0.0
C1181 C 0.46156 0.69317 0.64862 0.0
C1182 C 0.46485 0.7165 0.68843 0.0
C1183 C 0.5034 0.69593 0.66691 0.0
C1184 C 0.49976 0.68086 0.62597 0.0
C1185 C 0.48425 0.67912 0.60669 0.0
N1186 N 0.44662 0.68817 0.6299 0.0
C1187 C 0.45762 0.68377 0.60893 0.0
H1188 H 0.44597 0.68221 0.59385 0.0
C1189 C 0.41221 0.7344 0.68784 0.0
N1190 N 0.42417 0.71359 0.6691 0.0
C1191 C 0.42615 0.74489 0.70764 0.0
C1192 C 0.45253 0.73503 0.70807 0.0
H1193 H 0.39181 0.7418 0.68769 0.0
H1194 H 0.52411 0.69244 0.66623 0.0
H1195 H 0.32123 0.58756 0.66106 0.0
H1196 H 0.52038 0.67742 0.62418 0.0
H1197 H 0.49278 0.67401 0.59008 0.0
H1198 H 0.50334 0.71649 0.70237 0.0
H1199 H 0.3746 0.53507 0.56564 0.0
H1200 H 0.24669 0.59733 0.63104 0.0
H1201 H 0.27447 0.59801 0.66507 0.0
H1202 H 0.26308 0.56487 0.55217 0.0
H1203 H 0.41652 0.76033 0.72258 0.0
H1204 H 0.4633 0.74328 0.72341 0.0
H1205 H 0.24265 0.58549 0.58883 0.0
H1206 H 0.34967 0.52349 0.53029 0.0
N1207 N 0.32022 0.58256 0.62501 0.0
C1208 C 0.26725 0.59278 0.62916 0.0
C1209 C 0.28286 0.59303 0.64841 0.0
C1210 C 0.2783 0.58495 0.60777 0.0
C1211 C 0.30518 0.57948 0.60626 0.0
C1212 C 0.30942 0.58707 0.64604 0.0
N1213 N 0.34236 0.56007 0.58515 0.0
C1214 C 0.31661 0.56768 0.58567 0.0
C1215 C 0.34014 0.53607 0.54573 0.0
C1216 C 0.31377 0.54614 0.54575 0.0
C1217 C 0.35418 0.5425 0.56578 0.0
C1218 C 0.30159 0.56135 0.56596 0.0
H1219 H 0.30292 0.54099 0.53022 0.0
O1220 O 0.37639 0.49193 0.61106 0.0
O1221 O 0.40377 0.60605 0.6278 0.0
O1222 O 0.39982 0.68252 0.59671 0.0
O1223 O 0.3619 0.63486 0.59093 0.0
O1224 O 0.40153 0.55358 0.6007 0.0
O1225 O 0.35259 0.50717 0.64053 0.0
O1226 O 0.38892 0.77719 0.64205 0.0
O1227 O 0.3628 0.66298 0.62702 0.0
O1228 O 0.36781 0.58313 0.6576 0.0
O1229 O 0.40375 0.63668 0.66518 0.0
O1230 O 0.36528 0.71448 0.65429 0.0
O1231 O 0.41295 0.76087 0.61293 0.0
C1232 C 0.41712 0.58102 0.61318 0.0
C1233 C 0.27493 0.56911 0.56717 0.0
C1234 C 0.2633 0.58089 0.58804 0.0
C1235 C 0.36338 0.4705 0.62768 0.0
C1236 C 0.34797 0.42221 0.62202 0.0
C1237 C 0.32265 0.42742 0.6143 0.0
C1238 C 0.35887 0.37015 0.62418 0.0
C1239 C 0.34459 0.32321 0.61873 0.0
C1240 C 0.3084 0.38127 0.6088 0.0
C1241 C 0.31922 0.32955 0.61097 0.0
C1242 C 0.38061 0.66634 0.58354 0.0
C1243 C 0.34951 0.68742 0.64187 0.0
C1244 C 0.40176 0.79801 0.62524 0.0
C1245 C 0.4168 0.84714 0.63045 0.0
C1246 C 0.44216 0.84305 0.63819 0.0
C1247 C 0.40552 0.89878 0.62795 0.0
C1248 C 0.4195 0.94635 0.63308 0.0
C1249 C 0.45608 0.88981 0.6434 0.0
C1250 C 0.4449 0.94107 0.6409 0.0
C1251 C 0.3864 0.59998 0.67126 0.0
H1252 H 0.3139 0.46702 0.61253 0.0
H1253 H 0.37836 0.36631 0.63039 0.0
H1254 H 0.28889 0.3856 0.60276 0.0
H1255 H 0.3078 0.29457 0.60627 0.0
H1256 H 0.4512 0.80382 0.64021 0.0
H1257 H 0.38599 0.9018 0.62175 0.0
H1258 H 0.47561 0.88631 0.64948 0.0
H1259 H 0.45608 0.97655 0.64539 0.0
Gd1260 Gd 0.65497 0.46058 0.61915 0.0
Gd1261 Gd 0.618 0.34023 0.63532 0.0
C1262 C 0.53154 0.34527 0.64823 0.0
C1263 C 0.52907 0.32464 0.68849 0.0
C1264 C 0.57042 0.32791 0.66945 0.0
C1265 C 0.55851 0.3414 0.64932 0.0
C1266 C 0.55581 0.31787 0.68914 0.0
C1267 C 0.51694 0.33839 0.66806 0.0
C1268 C 0.51999 0.35383 0.6271 0.0
C1269 C 0.53523 0.35596 0.60766 0.0
N1270 N 0.57319 0.34667 0.63044 0.0
C1271 C 0.5619 0.35139 0.60961 0.0
H1272 H 0.57335 0.35323 0.59441 0.0
C1273 C 0.60845 0.30024 0.68797 0.0
N1274 N 0.59621 0.321 0.66937 0.0
C1275 C 0.59481 0.28967 0.70793 0.0
C1276 C 0.56842 0.29939 0.70864 0.0
H1277 H 0.62885 0.29289 0.68763 0.0
H1278 H 0.49623 0.34184 0.66761 0.0
H1279 H 0.6987 0.44871 0.6608 0.0
H1280 H 0.49934 0.35721 0.62554 0.0
H1281 H 0.52647 0.36129 0.59116 0.0
H1282 H 0.51753 0.31771 0.7035 0.0
H1283 H 0.64482 0.49995 0.56555 0.0
H1284 H 0.77308 0.43823 0.63049 0.0
H1285 H 0.74551 0.43843 0.66464 0.0
H1286 H 0.75624 0.46955 0.5516 0.0
H1287 H 0.60467 0.27427 0.72276 0.0
H1288 H 0.55789 0.29108 0.7241 0.0
H1289 H 0.77687 0.44928 0.58822 0.0
H1290 H 0.66956 0.51135 0.53008 0.0
N1291 N 0.69951 0.4527 0.62472 0.0
C1292 C 0.7525 0.44269 0.62868 0.0
C1293 C 0.73701 0.44296 0.648 0.0
C1294 C 0.74133 0.45004 0.60731 0.0
C1295 C 0.71444 0.45543 0.60589 0.0
C1296 C 0.71044 0.44882 0.64572 0.0
N1297 N 0.67714 0.47477 0.58491 0.0
C1298 C 0.7029 0.46704 0.58534 0.0
C1299 C 0.67916 0.49873 0.54549 0.0
C1300 C 0.70553 0.48848 0.54539 0.0
C1301 C 0.66523 0.4924 0.5656 0.0
C1302 C 0.7178 0.47325 0.56555 0.0
H1303 H 0.71629 0.49355 0.52981 0.0
O1304 O 0.64327 0.54304 0.61085 0.0
O1305 O 0.61605 0.42884 0.62786 0.0
O1306 O 0.61967 0.35277 0.59672 0.0
O1307 O 0.65762 0.40012 0.59081 0.0
O1308 O 0.61794 0.48156 0.60085 0.0
O1309 O 0.6672 0.52805 0.64027 0.0
O1310 O 0.63128 0.25777 0.64169 0.0
O1311 O 0.65706 0.37208 0.62694 0.0
O1312 O 0.65201 0.45212 0.6575 0.0
O1313 O 0.61616 0.39829 0.66516 0.0
O1314 O 0.65461 0.32063 0.65426 0.0
O1315 O 0.60652 0.27416 0.61305 0.0
C1316 C 0.60251 0.45395 0.61342 0.0
C1317 C 0.74447 0.46543 0.56666 0.0
C1318 C 0.75621 0.45385 0.5875 0.0
C1319 C 0.65637 0.56461 0.62738 0.0
C1320 C 0.67178 0.61278 0.62157 0.0
C1321 C 0.69699 0.60741 0.6136 0.0
C1322 C 0.66096 0.6649 0.62379 0.0
C1323 C 0.67521 0.71173 0.61814 0.0
C1324 C 0.71121 0.65346 0.60791 0.0
C1325 C 0.70047 0.70524 0.61013 0.0
C1326 C 0.63879 0.36896 0.58345 0.0
C1327 C 0.67034 0.34783 0.64186 0.0
C1328 C 0.61804 0.23699 0.62511 0.0
C1329 C 0.60316 0.1878 0.63059 0.0
C1330 C 0.57799 0.19182 0.6388 0.0
C1331 C 0.61442 0.1362 0.62792 0.0
C1332 C 0.60061 0.0886 0.63335 0.0
C1333 C 0.56424 0.14504 0.64431 0.0
C1334 C 0.5754 0.09382 0.64165 0.0
C1335 C 0.63348 0.43512 0.6712 0.0
H1336 H 0.70567 0.56776 0.61179 0.0
H1337 H 0.64156 0.66886 0.63019 0.0
H1338 H 0.73063 0.64901 0.60167 0.0
H1339 H 0.71186 0.74014 0.60526 0.0
H1340 H 0.56896 0.23101 0.64095 0.0
H1341 H 0.6338 0.13323 0.62137 0.0
H1342 H 0.54486 0.14849 0.65076 0.0
H1343 H 0.56437 0.05831 0.64638 0.0
H1344 H 0.2067 0.20063 0.10458 0.0
H1345 H 0.32164 0.33113 0.1786 0.0
H1346 H 0.20548 0.22104 0.17713 0.0
H1347 H 0.32356 0.32983 0.10557 0.0
H1348 H 0.27962 0.28734 0.17759 0.0
H1349 H 0.24991 0.24222 0.1037 0.0
C1350 C 0.21565 0.21295 0.12034 0.0
C1351 C 0.20249 0.20653 0.14104 0.0
C1352 C 0.28898 0.29686 0.16169 0.0
C1353 C 0.25174 0.25549 0.14011 0.0
C1354 C 0.31304 0.32219 0.16228 0.0
C1355 C 0.32604 0.33543 0.14218 0.0
C1356 C 0.27757 0.2834 0.14078 0.0
C1357 C 0.31403 0.32164 0.12152 0.0
C1358 C 0.24024 0.23723 0.11981 0.0
C1359 C 0.21488 0.22463 0.16082 0.0
N1360 N 0.29055 0.29644 0.12135 0.0
N1361 N 0.23856 0.24798 0.15985 0.0
H1362 H 0.8232 0.82319 0.17726 0.0
H1363 H 0.70553 0.70557 0.10318 0.0
H1364 H 0.82269 0.83547 0.10439 0.0
H1365 H 0.70517 0.72345 0.17585 0.0
H1366 H 0.74881 0.74689 0.10216 0.0
H1367 H 0.78048 0.7829 0.17609 0.0
C1368 C 0.81391 0.818 0.16095 0.0
C1369 C 0.82653 0.83376 0.14097 0.0
C1370 C 0.73928 0.74148 0.11832 0.0
C1371 C 0.7772 0.7855 0.13934 0.0
C1372 C 0.71466 0.71732 0.11893 0.0
C1373 C 0.70175 0.71011 0.13971 0.0
C1374 C 0.7511 0.75872 0.13863 0.0
C1375 C 0.71438 0.72756 0.15948 0.0
C1376 C 0.78944 0.79466 0.16026 0.0
C1377 C 0.81355 0.825 0.12029 0.0
N1378 N 0.73811 0.75064 0.15844 0.0
N1379 N 0.78969 0.8013 0.11999 0.0
H1380 H 0.31953 0.7205 0.32155 0.0
H1381 H 0.20181 0.83754 0.39571 0.0
H1382 H 0.31914 0.70819 0.39442 0.0
H1383 H 0.20159 0.82035 0.32301 0.0
H1384 H 0.24515 0.79638 0.39673 0.0
H1385 H 0.27679 0.76072 0.32276 0.0
C1386 C 0.31025 0.72567 0.33786 0.0
C1387 C 0.3229 0.70996 0.35784 0.0
C1388 C 0.23564 0.80192 0.38056 0.0
C1389 C 0.27357 0.75811 0.35952 0.0
C1390 C 0.211 0.82598 0.37996 0.0
C1391 C 0.19812 0.83328 0.35916 0.0
C1392 C 0.24748 0.78488 0.36024 0.0
C1393 C 0.21079 0.81612 0.33939 0.0
C1394 C 0.28578 0.74897 0.33858 0.0
C1395 C 0.30996 0.71865 0.37854 0.0
N1396 N 0.23454 0.79311 0.34042 0.0
N1397 N 0.28609 0.74232 0.37886 0.0
H1398 H 0.81903 0.20498 0.39497 0.0
H1399 H 0.70118 0.32177 0.32082 0.0
H1400 H 0.81904 0.22105 0.32222 0.0
H1401 H 0.70205 0.33574 0.39363 0.0
H1402 H 0.7438 0.28091 0.32201 0.0
H1403 H 0.77576 0.24649 0.39598 0.0
C1404 C 0.80981 0.21636 0.37921 0.0
C1405 C 0.82262 0.20861 0.35841 0.0
C1406 C 0.73494 0.29317 0.33782 0.0
C1407 C 0.77331 0.25742 0.35946 0.0
C1408 C 0.71053 0.31682 0.33712 0.0
C1409 C 0.69807 0.33331 0.35707 0.0
C1410 C 0.74726 0.28439 0.35874 0.0
C1411 C 0.71109 0.32478 0.37775 0.0
C1412 C 0.78521 0.24062 0.3798 0.0
C1413 C 0.8099 0.22559 0.33861 0.0
N1414 N 0.73489 0.30078 0.37806 0.0
N1415 N 0.78619 0.24879 0.33964 0.0
H1416 H 0.70259 0.72078 0.82075 0.0
H1417 H 0.82029 0.83705 0.89513 0.0
H1418 H 0.70321 0.70682 0.89356 0.0
H1419 H 0.82078 0.81941 0.82244 0.0
H1420 H 0.77693 0.79605 0.89604 0.0
H1421 H 0.74528 0.76119 0.82204 0.0
C1422 C 0.7119 0.72564 0.83706 0.0
C1423 C 0.69934 0.70933 0.85699 0.0
C1424 C 0.7865 0.80146 0.8799 0.0
C1425 C 0.74861 0.7577 0.85878 0.0
C1426 C 0.81116 0.82543 0.87935 0.0
C1427 C 0.82413 0.83254 0.85859 0.0
C1428 C 0.77472 0.78437 0.85955 0.0
C1429 C 0.81152 0.81532 0.83879 0.0
C1430 C 0.73635 0.74903 0.83782 0.0
C1431 C 0.71231 0.71769 0.8777 0.0
N1432 N 0.78775 0.79244 0.83977 0.0
N1433 N 0.73616 0.74144 0.87807 0.0
H1434 H 0.32223 0.33728 0.89632 0.0
H1435 H 0.20293 0.19752 0.89651 0.0
H1436 H 0.31983 0.31422 0.82394 0.0
H1437 H 0.20447 0.22281 0.82425 0.0
H1438 H 0.24601 0.23774 0.89922 0.0
H1439 H 0.27922 0.29687 0.89922 0.0
C1440 C 0.31255 0.32428 0.881 0.0
C1441 C 0.32463 0.33006 0.85978 0.0
C1442 C 0.23701 0.23488 0.88275 0.0
C1443 C 0.27544 0.28125 0.86297 0.0
C1444 C 0.21244 0.21098 0.88118 0.0
C1445 C 0.20009 0.20597 0.86005 0.0
C1446 C 0.24935 0.25449 0.86302 0.0
C1447 C 0.21324 0.22534 0.84087 0.0
C1448 C 0.28801 0.30026 0.88267 0.0
C1449 C 0.31126 0.31116 0.84063 0.0
N1450 N 0.23695 0.24832 0.8428 0.0
N1451 N 0.2876 0.28804 0.84267 0.0
H1452 H 0.70116 0.32063 0.67674 0.0
H1453 H 0.81897 0.20125 0.60331 0.0
H1454 H 0.7016 0.3306 0.60381 0.0
H1455 H 0.81882 0.21949 0.67597 0.0
H1456 H 0.77567 0.24256 0.60201 0.0
H1457 H 0.74383 0.28012 0.67578 0.0
C1458 C 0.71043 0.31488 0.66046 0.0
C1459 C 0.69782 0.33003 0.6404 0.0
C1460 C 0.78508 0.23721 0.61823 0.0
C1461 C 0.74709 0.28154 0.63901 0.0
C1462 C 0.80971 0.21306 0.61899 0.0
C1463 C 0.82248 0.20602 0.63986 0.0
C1464 C 0.77315 0.25461 0.63846 0.0
C1465 C 0.80971 0.22351 0.65954 0.0
C1466 C 0.73488 0.29141 0.65989 0.0
C1467 C 0.71075 0.3206 0.61975 0.0
N1468 N 0.78599 0.24661 0.65835 0.0
N1469 N 0.7346 0.2968 0.61958 0.0
H1470 H 0.20122 0.82183 0.67731 0.0
H1471 H 0.31859 0.70186 0.60346 0.0
H1472 H 0.20158 0.83268 0.6044 0.0
H1473 H 0.3186 0.71908 0.67617 0.0
H1474 H 0.27542 0.74381 0.60232 0.0
H1475 H 0.24381 0.78089 0.67621 0.0
C1476 C 0.21046 0.81618 0.66101 0.0
C1477 C 0.19783 0.83164 0.64099 0.0
C1478 C 0.28484 0.7381 0.61851 0.0
C1479 C 0.247 0.78268 0.63944 0.0
C1480 C 0.30939 0.71358 0.61919 0.0
C1481 C 0.32216 0.70603 0.64002 0.0
C1482 C 0.27299 0.7554 0.6388 0.0
C1483 C 0.30948 0.72346 0.65976 0.0
C1484 C 0.23485 0.79246 0.66036 0.0
C1485 C 0.21073 0.82238 0.62032 0.0
N1486 N 0.28583 0.74693 0.65865 0.0
N1487 N 0.23452 0.79832 0.62006 0.0
H1488 H 0.09407 0.9468 0.29869 0.0
H1489 H 0.17835 0.05964 0.1963 0.0
H1490 H 0.1749 0.9822 0.30449 0.0
H1491 H 0.0971 0.09204 0.20048 0.0
H1492 H 0.17687 1.0194 0.23408 0.0
H1493 H 0.09423 0.98779 0.26061 0.0
C1494 C 0.11185 0.96285 0.29193 0.0
C1495 C 0.13451 0.96115 0.30482 0.0
C1496 C 0.15936 0.03545 0.22678 0.0
C1497 C 0.1348 1.00762 0.26141 0.0
C1498 C 0.16017 0.05837 0.20517 0.0
C1499 C 0.13781 0.07933 0.19519 0.0
C1500 C 0.13596 0.03249 0.23848 0.0
C1501 C 0.11482 0.07661 0.20759 0.0
C1502 C 0.11187 0.98651 0.27031 0.0
C1503 C 0.15696 0.9828 0.29526 0.0
N1504 N 0.11442 0.05318 0.22855 0.0
N1505 N 0.15655 1.00482 0.27414 0.0
H1506 H 0.8611 1.0136 0.31162 0.0
H1507 H 0.89805 0.04345 0.1829 0.0
H1508 H 0.91744 0.13226 0.29106 0.0
H1509 H 0.88714 0.88519 0.21262 0.0
H1510 H 0.89888 0.0834 0.22115 0.0
H1511 H 0.86397 0.97186 0.27412 0.0
C1512 C 0.87395 0.03133 0.29924 0.0
C1513 C 0.88878 0.07737 0.30454 0.0
C1514 C 0.89653 0.03989 0.21927 0.0
C1515 C 0.89181 0.02973 0.2614 0.0
C1516 C 0.89598 1.01719 0.19754 0.0
C1517 C 0.89278 0.96101 0.19477 0.0
C1518 C 0.89303 1.00632 0.23825 0.0
C1519 C 0.89004 0.92856 0.21416 0.0
C1520 C 0.87563 1.00714 0.27787 0.0
C1521 C 0.90526 0.09775 0.28771 0.0
N1522 N 0.88987 0.95179 0.23513 0.0
N1523 N 0.90609 0.07426 0.26679 0.0
H1524 H 0.84574 0.05828 0.69513 0.0
H1525 H 0.92876 0.94505 0.79834 0.0
H1526 H 0.92693 0.09048 0.7002 0.0
H1527 H 0.84788 0.98077 0.80344 0.0
H1528 H 0.92902 0.98592 0.76025 0.0
H1529 H 0.84673 1.01786 0.7329 0.0
C1530 C 0.8638 0.05692 0.70419 0.0
C1531 C 0.88628 0.0779 0.69446 0.0
C1532 C 0.91128 0.98474 0.76979 0.0
C1533 C 0.88758 0.03084 0.73773 0.0
C1534 C 0.91106 0.96113 0.79143 0.0
C1535 C 0.88826 0.95957 0.80413 0.0
C1536 C 0.88845 1.00593 0.76068 0.0
C1537 C 0.86592 0.98127 0.79436 0.0
C1538 C 0.86433 0.0339 0.72579 0.0
C1539 C 0.90912 0.07505 0.7071 0.0
N1540 N 0.86656 1.00322 0.77322 0.0
N1541 N 0.90924 0.05152 0.72805 0.0
H1542 H 0.17647 0.05877 0.80361 0.0
H1543 H 0.09321 0.94549 0.70067 0.0
H1544 H 0.09526 0.09113 0.79879 0.0
H1545 H 0.17401 0.98152 0.69527 0.0
H1546 H 0.09303 0.98667 0.7387 0.0
H1547 H 0.17538 1.01866 0.76578 0.0
C1548 C 0.15838 0.05752 0.79459 0.0
C1549 C 0.13592 0.07843 0.80441 0.0
C1550 C 0.11074 0.9855 0.7291 0.0
C1551 C 0.13451 0.03171 0.76107 0.0
C1552 C 0.11091 0.96173 0.70749 0.0
C1553 C 0.13367 0.96012 0.69473 0.0
C1554 C 0.13357 1.00682 0.73812 0.0
C1555 C 0.156 0.98203 0.7044 0.0
C1556 C 0.1578 0.03468 0.77295 0.0
C1557 C 0.11306 0.07573 0.79182 0.0
N1558 N 0.15541 1.00413 0.72551 0.0
N1559 N 0.11288 0.05235 0.77084 0.0
H1560 H 0.62556 0.54396 0.31507 0.0
H1561 H 0.66214 0.51404 0.18646 0.0
H1562 H 0.63527 0.38547 0.2852 0.0
H1563 H 0.60663 0.63455 0.20709 0.0
H1564 H 0.6587 0.47176 0.22382 0.0
H1565 H 0.62451 0.58403 0.27686 0.0
C1566 C 0.6273 0.51766 0.3004 0.0
C1567 C 0.63029 0.46139 0.30313 0.0
C1568 C 0.64732 0.50754 0.22011 0.0
C1569 C 0.6298 0.50687 0.25968 0.0
C1570 C 0.64935 0.53206 0.19882 0.0
C1571 C 0.63493 0.57876 0.19359 0.0
C1572 C 0.63122 0.53045 0.23657 0.0
C1573 C 0.61849 0.59947 0.2104 0.0
C1574 C 0.62661 0.54045 0.2787 0.0
C1575 C 0.63257 0.42892 0.28371 0.0
N1576 N 0.61733 0.57564 0.23124 0.0
N1577 N 0.63266 0.45223 0.26274 0.0
H1578 H 0.41648 0.63835 0.28992 0.0
H1579 H 0.38079 0.39178 0.21003 0.0
H1580 H 0.35903 0.52107 0.30943 0.0
H1581 H 0.39232 0.55151 0.18181 0.0
H1582 H 0.38128 0.43149 0.24827 0.0
H1583 H 0.41614 0.60046 0.25144 0.0
C1584 C 0.40363 0.60517 0.28616 0.0
C1585 C 0.38736 0.58391 0.30296 0.0
C1586 C 0.38374 0.45773 0.23368 0.0
C1587 C 0.38776 0.53883 0.25922 0.0
C1588 C 0.38363 0.43511 0.21193 0.0
C1589 C 0.38658 0.46848 0.19283 0.0
C1590 C 0.38749 0.51388 0.23634 0.0
C1591 C 0.38984 0.52455 0.19617 0.0
C1592 C 0.40356 0.58341 0.26421 0.0
C1593 C 0.37173 0.53944 0.2971 0.0
N1594 N 0.39049 0.54552 0.21755 0.0
N1595 N 0.37248 0.51814 0.27582 0.0
H1596 H 0.39397 0.54193 0.81621 0.0
H1597 H 0.36118 0.50956 0.68662 0.0
H1598 H 0.38604 0.38318 0.78621 0.0
H1599 H 0.41507 0.63203 0.70837 0.0
H1600 H 0.36345 0.46829 0.72424 0.0
H1601 H 0.39517 0.58207 0.77799 0.0
C1602 C 0.39258 0.5156 0.80152 0.0
C1603 C 0.39014 0.45922 0.80422 0.0
C1604 C 0.37472 0.50431 0.72073 0.0
C1605 C 0.39088 0.5047 0.76075 0.0
C1606 C 0.37337 0.52823 0.69928 0.0
C1607 C 0.38769 0.57516 0.69427 0.0
C1608 C 0.39002 0.52803 0.73756 0.0
C1609 C 0.40333 0.59672 0.71148 0.0
C1610 C 0.39337 0.53843 0.77982 0.0
C1611 C 0.38834 0.42671 0.78477 0.0
N1612 N 0.40383 0.57343 0.73245 0.0
N1613 N 0.3884 0.45 0.7638 0.0
H1614 H 0.63585 0.65898 0.78515 0.0
H1615 H 0.60467 0.40301 0.70817 0.0
H1616 H 0.62875 0.49937 0.81455 0.0
H1617 H 0.65853 0.52573 0.68661 0.0
H1618 H 0.6038 0.44467 0.74596 0.0
H1619 H 0.6343 0.61786 0.7471 0.0
C1620 C 0.63358 0.61544 0.78355 0.0
C1621 C 0.63232 0.58241 0.80287 0.0
C1622 C 0.61581 0.46219 0.73287 0.0
C1623 C 0.63031 0.53541 0.75972 0.0
C1624 C 0.61644 0.43829 0.71132 0.0
C1625 C 0.63214 0.4599 0.6942 0.0
C1626 C 0.6303 0.50917 0.73709 0.0
C1627 C 0.64639 0.50696 0.69926 0.0
C1628 C 0.6329 0.59202 0.76193 0.0
C1629 C 0.62985 0.52605 0.79997 0.0
N1630 N 0.64499 0.53019 0.72016 0.0
N1631 N 0.62872 0.50426 0.77877 0.0
H1632 H 0.10071 0.19534 0.94257 0.0
H1633 H 0.18478 0.16494 0.05551 0.0
H1634 H 0.1822 0.16455 0.94406 0.0
H1635 H 0.10324 0.19501 0.05706 0.0
H1636 H 0.18423 0.17444 0.01448 0.0
H1637 H 0.10124 0.20542 0.98407 0.0
C1638 C 0.11874 0.19151 0.95155 0.0
C1639 C 0.14139 0.17845 0.93985 0.0
C1640 C 0.16642 0.1795 0.02371 0.0
C1641 C 0.14212 0.18959 0.98719 0.0
C1642 C 0.16673 0.174 0.04721 0.0
C1643 C 0.14396 0.17854 0.05976 0.0
C1644 C 0.14314 0.18947 0.01244 0.0
C1645 C 0.12123 0.19108 0.04805 0.0
C1646 C 0.11902 0.19699 0.97524 0.0
C1647 C 0.16419 0.17379 0.95236 0.0
N1648 N 0.12133 0.19553 0.02499 0.0
N1649 N 0.16392 0.17895 0.97527 0.0
H1650 H 0.84174 0.87262 0.94364 0.0
H1651 H 0.92546 0.84254 0.05675 0.0
H1652 H 0.92338 0.84376 0.94237 0.0
H1653 H 0.84395 0.87293 0.05521 0.0
H1654 H 0.92503 0.83261 0.01527 0.0
H1655 H 0.84211 0.86288 0.98466 0.0
C1656 C 0.85978 0.86376 0.952 0.0
C1657 C 0.88263 0.85965 0.93954 0.0
C1658 C 0.90723 0.84094 0.02408 0.0
C1659 C 0.88323 0.84845 0.98685 0.0
C1660 C 0.90744 0.84636 0.04775 0.0
C1661 C 0.88477 0.85928 0.05944 0.0
C1662 C 0.88415 0.84826 0.01209 0.0
C1663 C 0.86198 0.86385 0.0469 0.0
C1664 C 0.85997 0.85813 0.9755 0.0
C1665 C 0.90533 0.84734 0.95131 0.0
N1666 N 0.86231 0.85876 0.02398 0.0
N1667 N 0.90512 0.84276 0.97437 0.0
H1668 H 0.18071 0.87043 0.44376 0.0
H1669 H 0.09788 0.84197 0.55738 0.0
H1670 H 0.09888 0.84435 0.44293 0.0
H1671 H 0.17959 0.86939 0.55518 0.0
H1672 H 0.09782 0.83213 0.51588 0.0
H1673 H 0.18065 0.8598 0.48473 0.0
C1674 C 0.16269 0.86196 0.45221 0.0
C1675 C 0.13971 0.8589 0.4399 0.0
C1676 C 0.11577 0.83973 0.52456 0.0
C1677 C 0.13945 0.84675 0.48715 0.0
C1678 C 0.11584 0.84508 0.54824 0.0
C1679 C 0.13873 0.85715 0.55974 0.0
C1680 C 0.13877 0.84628 0.5124 0.0
C1681 C 0.16142 0.86091 0.54703 0.0
C1682 C 0.16267 0.85583 0.47568 0.0
C1683 C 0.11702 0.8471 0.45177 0.0
N1684 N 0.16081 0.85592 0.52412 0.0
N1685 N 0.1174 0.84206 0.47482 0.0
H1686 H 0.83988 0.16834 0.5555 0.0
H1687 H 0.92266 0.19769 0.44191 0.0
H1688 H 0.92167 0.19506 0.55634 0.0
H1689 H 0.84093 0.1706 0.44404 0.0
H1690 H 0.92274 0.20719 0.48341 0.0
H1691 H 0.83992 0.17912 0.51454 0.0
C1692 C 0.85788 0.17697 0.54706 0.0
C1693 C 0.88087 0.18018 0.55937 0.0
C1694 C 0.90478 0.19972 0.47473 0.0
C1695 C 0.88109 0.19251 0.51212 0.0
C1696 C 0.90471 0.19456 0.45104 0.0
C1697 C 0.88181 0.18267 0.43952 0.0
C1698 C 0.88176 0.19315 0.48688 0.0
C1699 C 0.85911 0.17891 0.45222 0.0
C1700 C 0.85789 0.18319 0.52359 0.0
C1701 C 0.90353 0.19219 0.5475 0.0
N1702 N 0.85972 0.1837 0.47514 0.0
N1703 N 0.90313 0.19732 0.52446 0.0
H1704 H 0.68433 0.67088 0.05456 0.0
H1705 H 0.6008 0.69982 0.94123 0.0
H1706 H 0.60259 0.6985 0.05558 0.0
H1707 H 0.68215 0.66757 0.94291 0.0
H1708 H 0.60121 0.71002 0.98268 0.0
H1709 H 0.68403 0.67997 0.01349 0.0
C1710 C 0.66628 0.67932 0.04613 0.0
C1711 C 0.64338 0.68324 0.05853 0.0
C1712 C 0.61898 0.70117 0.97391 0.0
C1713 C 0.64288 0.69372 0.01119 0.0
C1714 C 0.61878 0.69558 0.95024 0.0
C1715 C 0.64141 0.68209 0.9386 0.0
C1716 C 0.642 0.69349 0.98594 0.0
C1717 C 0.66415 0.67705 0.95118 0.0
C1718 C 0.66613 0.68457 0.02261 0.0
C1719 C 0.62068 0.69506 0.04668 0.0
N1720 N 0.66381 0.68236 0.97409 0.0
N1721 N 0.62093 0.6993 0.02361 0.0
H1722 H 0.34299 0.36797 0.94412 0.0
H1723 H 0.42824 0.34813 0.05599 0.0
H1724 H 0.4247 0.34046 0.94185 0.0
H1725 H 0.34552 0.34829 0.05567 0.0
H1726 H 0.42789 0.33857 0.01456 0.0
H1727 H 0.34388 0.35569 0.98508 0.0
C1728 C 0.36114 0.35887 0.95224 0.0
C1729 C 0.38385 0.35574 0.93954 0.0
C1730 C 0.40983 0.33984 0.02362 0.0
C1731 C 0.38506 0.34162 0.98671 0.0
C1732 C 0.41003 0.34483 0.04731 0.0
C1733 C 0.38687 0.34934 0.0593 0.0
C1734 C 0.38631 0.33958 0.01192 0.0
C1735 C 0.36384 0.34561 0.04708 0.0
C1736 C 0.36163 0.35167 0.97568 0.0
C1737 C 0.40674 0.34324 0.95099 0.0
N1738 N 0.36414 0.34158 0.02412 0.0
N1739 N 0.40683 0.33728 0.97398 0.0
H1740 H 0.68094 0.37409 0.44292 0.0
H1741 H 0.59753 0.34299 0.55621 0.0
H1742 H 0.59933 0.34518 0.44172 0.0
H1743 H 0.67949 0.36693 0.55458 0.0
H1744 H 0.59763 0.33493 0.51462 0.0
H1745 H 0.68067 0.36352 0.48394 0.0
C1746 C 0.66293 0.36518 0.45129 0.0
C1747 C 0.64006 0.36121 0.43886 0.0
C1748 C 0.6156 0.34139 0.52343 0.0
C1749 C 0.63958 0.34889 0.48615 0.0
C1750 C 0.61557 0.34569 0.54717 0.0
C1751 C 0.63849 0.35628 0.55887 0.0
C1752 C 0.63874 0.34754 0.51141 0.0
C1753 C 0.66129 0.3596 0.54628 0.0
C1754 C 0.66279 0.359 0.47479 0.0
C1755 C 0.61739 0.34869 0.45065 0.0
N1756 N 0.66079 0.35569 0.52332 0.0
N1757 N 0.61766 0.34354 0.47369 0.0
H1758 H 0.33957 0.66812 0.55508 0.0
H1759 H 0.4228 0.69792 0.44165 0.0
H1760 H 0.42136 0.69475 0.55612 0.0
H1761 H 0.34112 0.67006 0.44351 0.0
H1762 H 0.42271 0.70692 0.48318 0.0
H1763 H 0.33979 0.67847 0.51408 0.0
C1764 C 0.35761 0.6766 0.54667 0.0
C1765 C 0.38054 0.67992 0.55905 0.0
C1766 C 0.4048 0.69936 0.47444 0.0
C1767 C 0.38097 0.69184 0.51177 0.0
C1768 C 0.40482 0.69448 0.45073 0.0
C1769 C 0.38199 0.68257 0.43911 0.0
C1770 C 0.38175 0.6925 0.48651 0.0
C1771 C 0.35926 0.67841 0.45175 0.0
C1772 C 0.35772 0.68259 0.52318 0.0
C1773 C 0.40325 0.69178 0.54722 0.0
N1774 N 0.35977 0.68296 0.47469 0.0
N1775 N 0.40295 0.69673 0.52417 0.0
H1776 H 0.95288 0.98314 0.0785 0.0
H1777 H 0.07611 0.07191 0.15234 0.0
H1778 H 0.95382 0.96797 0.15127 0.0
H1779 H 0.07595 0.0538 0.07968 0.0
H1780 H 0.03109 0.04045 0.15326 0.0
H1781 H 0.9973 1.01461 0.07944 0.0
C1782 C 0.96256 0.98601 0.09472 0.0
C1783 C 0.94967 0.97165 0.11475 0.0
C1784 C 0.04088 0.04361 0.13712 0.0
C1785 C 1.00095 1.00938 0.11612 0.0
C1786 C 0.06652 0.06211 0.13657 0.0
C1787 C 0.07973 0.06673 0.11581 0.0
C1788 C 0.0283 0.02947 0.11677 0.0
C1789 C 0.0665 0.05171 0.09602 0.0
C1790 C 0.98802 1.00414 0.09528 0.0
C1791 C 0.96316 0.97732 0.13534 0.0
N1792 N 0.0417 0.03425 0.09698 0.0
N1793 N 0.988 0.99577 0.13551 0.0
H1794 H 0.94868 0.05871 0.42066 0.0
H1795 H 0.07215 0.96876 0.34739 0.0
H1796 H 0.94993 0.07333 0.34787 0.0
H1797 H 0.07138 0.98586 0.42009 0.0
H1798 H 0.02722 1.0009 0.34623 0.0
H1799 H 0.99307 0.02701 0.41992 0.0
C1800 C 0.95843 0.05569 0.40448 0.0
C1801 C 0.94563 0.06987 0.38438 0.0
C1802 C 0.03686 0.99738 0.36243 0.0
C1803 C 0.99686 0.03189 0.38325 0.0
C1804 C 0.06244 0.97849 0.36312 0.0
C1805 C 0.07544 0.97339 0.38396 0.0
C1806 C 0.02416 1.01145 0.38272 0.0
C1807 C 0.06208 0.98833 0.40369 0.0
C1808 C 0.98387 0.03742 0.40403 0.0
C1809 C 0.9592 0.06406 0.36384 0.0
N1810 N 0.03736 1.00619 0.4026 0.0
N1811 N 0.98403 0.04546 0.36379 0.0
H1812 H 0.07379 0.05607 0.92061 0.0
H1813 H 0.95044 0.96727 0.84696 0.0
H1814 H 0.0729 0.06976 0.84778 0.0
H1815 H 0.95071 0.98546 0.91962 0.0
H1816 H 0.99544 0.99884 0.84598 0.0
H1817 H 0.02923 0.02542 0.91977 0.0
C1818 C 0.06408 0.05313 0.9044 0.0
C1819 C 0.07703 0.06678 0.88432 0.0
C1820 C 0.98567 0.9957 0.86213 0.0
C1821 C 0.02563 0.02989 0.88308 0.0
C1822 C 0.96004 0.97714 0.86272 0.0
C1823 C 0.94688 0.97249 0.88349 0.0
C1824 C 0.99827 1.00989 0.88246 0.0
C1825 C 0.96013 0.98758 0.90327 0.0
C1826 C 0.03855 0.03544 0.90391 0.0
C1827 C 0.06351 0.06099 0.86375 0.0
N1828 N 0.98491 1.00511 0.90227 0.0
N1829 N 0.03861 0.04293 0.86365 0.0
H1830 H 0.94859 0.07066 0.65177 0.0
H1831 H 0.07189 0.98014 0.57836 0.0
H1832 H 0.9491 0.05312 0.57908 0.0
H1833 H 0.071 0.96808 0.65123 0.0
H1834 H 0.02738 1.01126 0.57908 0.0
H1835 H 0.99354 0.03869 0.65284 0.0
C1836 C 0.95824 0.06085 0.63603 0.0
C1837 C 0.94517 0.06579 0.61522 0.0
C1838 C 0.03669 1.00149 0.59498 0.0
C1839 C 0.99648 0.02792 0.61635 0.0
C1840 C 0.06218 0.98353 0.59455 0.0
C1841 C 0.07511 0.97021 0.61469 0.0
C1842 C 0.02379 1.00761 0.61579 0.0
C1843 C 0.06162 0.97657 0.63524 0.0
C1844 C 0.98383 0.04207 0.63666 0.0
C1845 C 0.95846 0.05077 0.59546 0.0
N1846 N 0.03676 0.99486 0.63527 0.0
N1847 N 0.98321 0.03299 0.5965 0.0
H1848 H 0.45437 0.47263 0.07649 0.0
H1849 H 0.57474 0.57704 0.15075 0.0
H1850 H 0.45207 0.47526 0.14949 0.0
H1851 H 0.57548 0.55528 0.07826 0.0
H1852 H 0.52995 0.54397 0.15157 0.0
H1853 H 0.4985 0.50575 0.07761 0.0
C1854 C 0.4633 0.47971 0.09283 0.0
C1855 C 0.4496 0.46978 0.1129 0.0
C1856 C 0.53989 0.54668 0.13549 0.0
C1857 C 0.50053 0.50955 0.11443 0.0
C1858 C 0.56541 0.56603 0.135 0.0
C1859 C 0.57881 0.57003 0.11431 0.0
C1860 C 0.52768 0.53091 0.11517 0.0
C1861 C 0.5659 0.5536 0.09455 0.0
C1862 C 0.48858 0.49885 0.09349 0.0
C1863 C 0.46209 0.48097 0.13359 0.0
N1864 N 0.54127 0.53519 0.09546 0.0
N1865 N 0.48679 0.50021 0.13383 0.0
H1866 H 0.44901 0.55938 0.41957 0.0
H1867 H 0.57205 0.46717 0.34635 0.0
H1868 H 0.4503 0.5748 0.3468 0.0
H1869 H 0.572 0.48833 0.41887 0.0
H1870 H 0.52723 0.50009 0.34519 0.0
H1871 H 0.49341 0.52775 0.41879 0.0
C1872 C 0.45877 0.55653 0.40338 0.0
C1873 C 0.44597 0.57094 0.3833 0.0
C1874 C 0.53702 0.49737 0.36135 0.0
C1875 C 0.49722 0.53302 0.38213 0.0
C1876 C 0.56254 0.4781 0.36204 0.0
C1877 C 0.5757 0.47388 0.38283 0.0
C1878 C 0.52452 0.51259 0.38159 0.0
C1879 C 0.56258 0.49016 0.40251 0.0
C1880 C 0.48421 0.53833 0.40292 0.0
C1881 C 0.45956 0.56535 0.36276 0.0
N1882 N 0.53789 0.50826 0.40142 0.0
N1883 N 0.48439 0.54675 0.36269 0.0
H1884 H 0.451 0.48067 0.92028 0.0
H1885 H 0.57294 0.57564 0.84624 0.0
H1886 H 0.45153 0.46673 0.84746 0.0
H1887 H 0.57335 0.55528 0.91881 0.0
H1888 H 0.52822 0.54213 0.84534 0.0
H1889 H 0.4952 0.51334 0.91921 0.0
C1890 C 0.46056 0.48406 0.90402 0.0
C1891 C 0.44761 0.46978 0.88401 0.0
C1892 C 0.53809 0.54519 0.86145 0.0
C1893 C 0.49862 0.50889 0.8825 0.0
C1894 C 0.56355 0.5648 0.86199 0.0
C1895 C 0.57681 0.56935 0.88272 0.0
C1896 C 0.52578 0.52992 0.88179 0.0
C1897 C 0.56385 0.55317 0.90249 0.0
C1898 C 0.48588 0.50287 0.90339 0.0
C1899 C 0.46093 0.47607 0.86336 0.0
N1900 N 0.53924 0.53468 0.90154 0.0
N1901 N 0.48564 0.49523 0.86313 0.0
H1902 H 0.44802 0.55413 0.57815 0.0
H1903 H 0.57123 0.46359 0.65164 0.0
H1904 H 0.44925 0.57012 0.65089 0.0
H1905 H 0.57086 0.48251 0.57901 0.0
H1906 H 0.52632 0.49607 0.65274 0.0
H1907 H 0.49238 0.52228 0.57903 0.0
C1908 C 0.45775 0.55134 0.59435 0.0
C1909 C 0.44495 0.56598 0.61439 0.0
C1910 C 0.53606 0.49293 0.63657 0.0
C1911 C 0.49617 0.52785 0.61568 0.0
C1912 C 0.56164 0.4739 0.63593 0.0
C1913 C 0.57474 0.46925 0.61512 0.0
C1914 C 0.52347 0.50747 0.61628 0.0
C1915 C 0.5615 0.48472 0.59539 0.0
C1916 C 0.48317 0.53301 0.59487 0.0
C1917 C 0.45851 0.56047 0.63496 0.0
N1918 N 0.53678 0.50263 0.59644 0.0
N1919 N 0.48332 0.5418 0.63509 0.0
H1920 H 0.20336 0.73047 0.13952 0.0
H1921 H 0.08122 0.53961 0.11755 0.0
H1922 H 0.13196 0.78862 0.11147 0.0
H1923 H 0.15265 0.48124 0.14547 0.0
H1924 H 0.09948 0.6308 0.1152 0.0
H1925 H 0.18519 0.63917 0.14175 0.0
C1926 C 0.18388 0.72411 0.13373 0.0
C1927 C 0.16926 0.76759 0.12518 0.0
C1928 C 0.1112 0.59809 0.12182 0.0
C1929 C 0.14816 0.66261 0.12792 0.0
C1930 C 0.10073 0.54591 0.12327 0.0
C1931 C 0.11533 0.50241 0.13184 0.0
C1932 C 0.13652 0.60727 0.12898 0.0
C1933 C 0.1407 0.51319 0.13855 0.0
C1934 C 0.17347 0.67187 0.13512 0.0
C1935 C 0.14392 0.75671 0.11839 0.0
N1936 N 0.15043 0.56444 0.13704 0.0
N1937 N 0.13424 0.70541 0.11985 0.0
H1938 H 0.82519 0.30817 0.1359 0.0
H1939 H 0.94761 0.49962 0.11652 0.0
H1940 H 0.8972 0.25095 0.10873 0.0
H1941 H 0.87565 0.55729 0.1436 0.0
H1942 H 0.9294 0.40855 0.11344 0.0
H1943 H 0.84317 0.39958 0.1386 0.0
C1944 C 0.84476 0.31478 0.13039 0.0
C1945 C 0.85963 0.27155 0.12199 0.0
C1946 C 0.91755 0.44108 0.12004 0.0
C1947 C 0.88049 0.37653 0.12528 0.0
C1948 C 0.92799 0.49317 0.12191 0.0
C1949 C 0.91322 0.53639 0.13046 0.0
C1950 C 0.89209 0.43177 0.12675 0.0
C1951 C 0.88772 0.52551 0.13673 0.0
C1952 C 0.85506 0.36706 0.13206 0.0
C1953 C 0.88505 0.28269 0.11555 0.0
N1954 N 0.87802 0.47434 0.13481 0.0
N1955 N 0.89463 0.33399 0.11728 0.0
H1956 H 0.12628 0.24894 0.38865 0.0
H1957 H 0.14955 0.56076 0.35422 0.0
H1958 H 0.19822 0.31007 0.36294 0.0
H1959 H 0.07764 0.49937 0.3799 0.0
H1960 H 0.16786 0.46958 0.35769 0.0
H1961 H 0.10805 0.34017 0.38525 0.0
C1962 C 0.13822 0.28138 0.38213 0.0
C1963 C 0.16389 0.27154 0.3761 0.0
C1964 C 0.14807 0.47605 0.36257 0.0
C1965 C 0.14315 0.37668 0.37244 0.0
C1966 C 0.13763 0.52828 0.36075 0.0
C1967 C 0.11194 0.53801 0.36673 0.0
C1968 C 0.13278 0.43298 0.37048 0.0
C1969 C 0.0974 0.49387 0.37475 0.0
C1970 C 0.12783 0.33365 0.38035 0.0
C1971 C 0.17848 0.31566 0.36811 0.0
N1972 N 0.10799 0.44346 0.37637 0.0
N1973 N 0.16793 0.36613 0.36653 0.0
H1974 H 0.94373 0.54175 0.38202 0.0
H1975 H 0.82104 0.73362 0.36394 0.0
H1976 H 0.87139 0.48419 0.35579 0.0
H1977 H 0.89366 0.79097 0.38966 0.0
H1978 H 0.83895 0.6421 0.36114 0.0
H1979 H 0.9256 0.63294 0.38515 0.0
C1980 C 0.92404 0.54824 0.37683 0.0
C1981 C 0.90915 0.505 0.36849 0.0
C1982 C 0.85099 0.67467 0.36738 0.0
C1983 C 0.8881 0.60981 0.37226 0.0
C1984 C 0.84074 0.72702 0.3691 0.0
C1985 C 0.8558 0.77033 0.37714 0.0
C1986 C 0.87657 0.66518 0.37375 0.0
C1987 C 0.88136 0.75918 0.38314 0.0
C1988 C 0.91365 0.60041 0.37873 0.0
C1989 C 0.88356 0.51597 0.3625 0.0
N1990 N 0.89089 0.7078 0.38138 0.0
N1991 N 0.87391 0.56722 0.36443 0.0
H1992 H 0.89574 0.24802 0.88823 0.0
H1993 H 0.87312 0.55999 0.8536 0.0
H1994 H 0.82429 0.30946 0.86149 0.0
H1995 H 0.9445 0.49838 0.88041 0.0
H1996 H 0.85474 0.46886 0.85675 0.0
H1997 H 0.91402 0.33922 0.88517 0.0
C1998 C 0.88392 0.28052 0.88156 0.0
C1999 C 0.85837 0.27078 0.87515 0.0
C2000 C 0.87443 0.47527 0.86195 0.0
C2001 C 0.87917 0.37587 0.87186 0.0
C2002 C 0.8849 0.52747 0.8603 0.0
C2003 C 0.91047 0.53712 0.8667 0.0
C2004 C 0.88957 0.43214 0.87008 0.0
C2005 C 0.92485 0.49293 0.87494 0.0
C2006 C 0.89434 0.33277 0.87996 0.0
C2007 C 0.84393 0.31497 0.86696 0.0
N2008 N 0.91423 0.44255 0.87638 0.0
N2009 N 0.85451 0.36541 0.86557 0.0
H2010 H 0.09576 0.53265 0.83427 0.0
H2011 H 0.18354 0.73547 0.90712 0.0
H2012 H 0.13463 0.48576 0.89589 0.0
H2013 H 0.14461 0.78239 0.84553 0.0
H2014 H 0.16592 0.64399 0.90324 0.0
H2015 H 0.11351 0.62403 0.83807 0.0
C2016 C 0.10795 0.54154 0.84867 0.0
C2017 C 0.11355 0.50123 0.86485 0.0
C2018 C 0.1612 0.67425 0.89056 0.0
C2019 C 0.13421 0.60624 0.8692 0.0
C2020 C 0.17136 0.72656 0.89271 0.0
C2021 C 0.16569 0.76692 0.87657 0.0
C2022 C 0.14518 0.6618 0.87213 0.0
C2023 C 0.14935 0.75296 0.85852 0.0
C2024 C 0.11819 0.59379 0.85077 0.0
C2025 C 0.12993 0.51516 0.88288 0.0
N2026 N 0.13976 0.70164 0.85676 0.0
N2027 N 0.13959 0.56643 0.8846 0.0
H2028 H 0.89448 0.79027 0.61071 0.0
H2029 H 0.87131 0.47847 0.64518 0.0
H2030 H 0.82259 0.72908 0.6365 0.0
H2031 H 0.9431 0.53976 0.61923 0.0
H2032 H 0.853 0.56966 0.64179 0.0
H2033 H 0.91273 0.69905 0.61408 0.0
C2034 C 0.88255 0.75783 0.61724 0.0
C2035 C 0.85689 0.76764 0.62329 0.0
C2036 C 0.87277 0.56316 0.63683 0.0
C2037 C 0.87766 0.66252 0.62693 0.0
C2038 C 0.8832 0.51092 0.63861 0.0
C2039 C 0.90886 0.50116 0.63253 0.0
C2040 C 0.88803 0.60622 0.62886 0.0
C2041 C 0.92338 0.54529 0.62446 0.0
C2042 C 0.89295 0.70556 0.61901 0.0
C2043 C 0.84233 0.72351 0.6313 0.0
N2044 N 0.91279 0.59572 0.62288 0.0
N2045 N 0.85289 0.67305 0.63288 0.0
H2046 H 0.19913 0.30697 0.63687 0.0
H2047 H 0.07614 0.49835 0.61917 0.0
H2048 H 0.12648 0.24912 0.61141 0.0
H2049 H 0.14868 0.55632 0.64483 0.0
H2050 H 0.09428 0.40711 0.61615 0.0
H2051 H 0.18109 0.39835 0.63976 0.0
C2052 C 0.1794 0.31341 0.63179 0.0
C2053 C 0.16438 0.26999 0.62377 0.0
C2054 C 0.10626 0.43975 0.62243 0.0
C2055 C 0.14345 0.37505 0.62728 0.0
C2056 C 0.09588 0.49196 0.62426 0.0
C2057 C 0.11082 0.53536 0.6324 0.0
C2058 C 0.13187 0.43043 0.62875 0.0
C2059 C 0.13645 0.52445 0.63828 0.0
C2060 C 0.16906 0.3657 0.63356 0.0
C2061 C 0.13876 0.28098 0.6179 0.0
N2062 N 0.1461 0.47317 0.6364 0.0
N2063 N 0.12916 0.33231 0.61971 0.0
H2064 H 0.65353 0.98301 0.14302 0.0
H2065 H 0.63034 0.29443 0.10799 0.0
H2066 H 0.58193 0.0442 0.11652 0.0
H2067 H 0.70207 0.23372 0.13443 0.0
H2068 H 0.61226 0.20314 0.11119 0.0
H2069 H 0.67187 0.07413 0.13953 0.0
C2070 C 0.6417 1.01544 0.13632 0.0
C2071 C 0.61608 1.00572 0.13012 0.0
C2072 C 0.63196 0.20976 0.11629 0.0
C2073 C 0.63692 0.11059 0.12633 0.0
C2074 C 0.64227 0.26205 0.11461 0.0
C2075 C 0.66782 0.27202 0.12093 0.0
C2076 C 0.64725 0.16684 0.12438 0.0
C2077 C 0.68241 0.228 0.12905 0.0
C2078 C 0.65214 0.06761 0.13447 0.0
C2079 C 0.60162 0.04975 0.12184 0.0
N2080 N 0.67194 0.17749 0.13054 0.0
N2081 N 0.61221 0.1001 0.12021 0.0
H2082 H 0.30399 0.78731 0.11739 0.0
H2083 H 0.40442 0.03299 0.12778 0.0
H2084 H 0.38507 0.76597 0.10561 0.0
H2085 H 0.32303 0.04714 0.13935 0.0
H2086 H 0.39824 0.93696 0.11736 0.0
H2087 H 0.31116 0.88356 0.12407 0.0
C2088 C 0.32335 0.80291 0.1161 0.0
C2089 C 0.34391 0.76832 0.11071 0.0
C2090 C 0.38174 0.96128 0.122 0.0
C2091 C 0.35239 0.87945 0.11864 0.0
C2092 C 0.38523 1.01614 0.12774 0.0
C2093 C 0.36422 0.04793 0.13458 0.0
C2094 C 0.35705 0.9383 0.12304 0.0
C2095 C 0.3398 0.02396 0.13444 0.0
C2096 C 0.32747 0.85807 0.12 0.0
C2097 C 0.36866 0.79098 0.10983 0.0
N2098 N 0.33694 0.97074 0.12892 0.0
N2099 N 0.37221 0.84516 0.11369 0.0
H2100 H 0.57809 1.00039 0.38376 0.0
H2101 H 0.70012 0.80861 0.36244 0.0
H2102 H 0.64953 0.05805 0.3557 0.0
H2103 H 0.62895 0.75203 0.39143 0.0
H2104 H 0.68215 0.90017 0.36016 0.0
H2105 H 0.59653 0.90946 0.38687 0.0
C2106 C 0.59765 0.99396 0.37817 0.0
C2107 C 0.61219 0.03712 0.36932 0.0
C2108 C 0.67045 0.86776 0.36702 0.0
C2109 C 0.63358 0.93266 0.37304 0.0
C2110 C 0.68075 0.81539 0.36844 0.0
C2111 C 0.66608 0.77227 0.3772 0.0
C2112 C 0.64524 0.87741 0.37439 0.0
C2113 C 0.64091 0.78365 0.38431 0.0
C2114 C 0.60821 0.94196 0.38006 0.0
C2115 C 0.63763 0.02629 0.3628 0.0
N2116 N 0.63133 0.83501 0.38277 0.0
N2117 N 0.64746 0.97519 0.36472 0.0
H2118 H 0.44406 0.04351 0.38199 0.0
H2119 H 0.32158 0.2351 0.36233 0.0
H2120 H 0.37201 0.98557 0.35526 0.0
H2121 H 0.39382 0.29273 0.38877 0.0
H2122 H 0.33955 0.14357 0.35986 0.0
H2123 H 0.42588 0.13473 0.38475 0.0
C2124 C 0.42442 0.04992 0.37661 0.0
C2125 C 0.40963 1.00657 0.36824 0.0
C2126 C 0.35149 0.17621 0.36619 0.0
C2127 C 0.38854 0.11142 0.37159 0.0
C2128 C 0.34121 0.22857 0.36772 0.0
C2129 C 0.35614 0.27195 0.37587 0.0
C2130 C 0.37698 0.16679 0.37286 0.0
C2131 C 0.38162 0.26088 0.38216 0.0
C2132 C 0.41401 0.10211 0.3783 0.0
C2133 C 0.38411 1.01744 0.362 0.0
N2134 N 0.39118 0.20949 0.38058 0.0
N2135 N 0.37443 0.06871 0.36373 0.0
H2136 H 0.3963 0.74637 0.89097 0.0
H2137 H 0.37293 0.05708 0.85506 0.0
H2138 H 0.32445 0.80666 0.86462 0.0
H2139 H 0.44485 0.99622 0.88104 0.0
H2140 H 0.35461 0.9661 0.859 0.0
H2141 H 0.4144 0.83756 0.88738 0.0
C2142 C 0.38435 0.77864 0.88429 0.0
C2143 C 0.35876 0.76859 0.87809 0.0
C2144 C 0.3744 0.97264 0.86384 0.0
C2145 C 0.37935 0.87363 0.8742 0.0
C2146 C 0.38484 0.02474 0.86174 0.0
C2147 C 0.41053 0.03452 0.86768 0.0
C2148 C 0.3897 0.92979 0.87198 0.0
C2149 C 0.42509 0.99061 0.87592 0.0
C2150 C 0.39466 0.83087 0.88239 0.0
C2151 C 0.34414 0.81246 0.8699 0.0
N2152 N 0.41449 0.94031 0.87781 0.0
N2153 N 0.35462 0.86292 0.86819 0.0
H2154 H 0.7008 0.23413 0.8619 0.0
H2155 H 0.5786 0.04293 0.88281 0.0
H2156 H 0.62921 0.29161 0.88981 0.0
H2157 H 0.65013 0.98509 0.8549 0.0
H2158 H 0.59691 0.13396 0.88568 0.0
H2159 H 0.68276 0.14272 0.85952 0.0
C2160 C 0.68131 0.22758 0.86764 0.0
C2161 C 0.66656 0.27089 0.87614 0.0
C2162 C 0.60864 0.1014 0.87895 0.0
C2163 C 0.64564 0.1659 0.87324 0.0
C2164 C 0.59815 0.04933 0.8772 0.0
C2165 C 0.61276 1.00607 0.86848 0.0
C2166 C 0.63401 0.11066 0.87194 0.0
C2167 C 0.63817 1.0169 0.86192 0.0
C2168 C 0.67098 0.17529 0.86616 0.0
C2169 C 0.64124 0.25981 0.8829 0.0
N2170 N 0.64794 0.06805 0.86372 0.0
N2171 N 0.63164 0.20851 0.88134 0.0
H2172 H 0.37025 0.97884 0.64325 0.0
H2173 H 0.39363 0.29017 0.60827 0.0
H2174 H 0.44196 0.03969 0.61693 0.0
H2175 H 0.3217 0.2296 0.63422 0.0
H2176 H 0.41171 0.19881 0.61157 0.0
H2177 H 0.35193 0.06999 0.63963 0.0
C2178 C 0.38211 1.01119 0.63655 0.0
C2179 C 0.40775 1.00136 0.63045 0.0
C2180 C 0.39196 0.20548 0.61654 0.0
C2181 C 0.38693 0.1063 0.62652 0.0
C2182 C 0.38166 0.25781 0.61481 0.0
C2183 C 0.35605 0.26784 0.62096 0.0
C2184 C 0.37661 0.16259 0.62452 0.0
C2185 C 0.3414 0.22384 0.62897 0.0
C2186 C 0.37167 0.06339 0.63464 0.0
C2187 C 0.42225 0.04532 0.62219 0.0
N2188 N 0.35187 0.1733 0.63052 0.0
N2189 N 0.41166 0.0957 0.6205 0.0
H2190 H 0.62605 0.74486 0.60821 0.0
H2191 H 0.65011 0.05628 0.64264 0.0
H2192 H 0.69841 0.80537 0.63324 0.0
H2193 H 0.57783 0.9952 0.61766 0.0
H2194 H 0.66838 0.96514 0.63876 0.0
H2195 H 0.60806 0.83624 0.61168 0.0
C2196 C 0.63814 0.77721 0.61458 0.0
C2197 C 0.66383 0.76716 0.62043 0.0
C2198 C 0.64852 0.97168 0.63412 0.0
C2199 C 0.64338 0.87244 0.62418 0.0
C2200 C 0.63811 0.02387 0.63618 0.0
C2201 C 0.61232 0.03363 0.63053 0.0
C2202 C 0.63309 0.92872 0.62631 0.0
C2203 C 0.59766 0.98962 0.62257 0.0
C2204 C 0.62789 0.82956 0.61641 0.0
C2205 C 0.67863 0.81115 0.62823 0.0
N2206 N 0.60823 0.93926 0.62072 0.0
N2207 N 0.6682 0.86171 0.62988 0.0
loop_
_geom_bond_atom_site_label_1
_geom_bond_atom_site_label_2
_geom_bond_distance
_geom_bond_site_symmetry_2
_ccdc_geom_bond_type
Gd0 N31 2.661 . S
Gd0 N37 2.601 . S
Gd0 O44 2.545 . S
Gd0 O45 2.606 . S
Gd0 O47 2.429 . S
Gd0 O48 2.545 . S
Gd0 O49 2.412 . S
Gd0 O51 2.362 . S
Gd0 O52 2.324 . S
Gd0 C59 2.828 . S
Gd1 N10 2.661 . S
Gd1 N14 2.601 . S
Gd1 O45 2.362 . S
Gd1 O46 2.324 . S
Gd1 O50 2.545 1_545 S
Gd1 O51 2.606 . S
Gd1 O53 2.429 . S
Gd1 O54 2.545 . S
Gd1 O55 2.412 1_545 S
Gd1 C68 2.828 1_545 S
C2 C5 1.417 . S
C2 C7 1.431 . S
C2 C8 1.412 . S
C3 C6 1.437 . S
C3 C7 1.317 . S
C3 H22 0.929 . S
C4 C5 1.426 . S
C4 C6 1.413 . S
C4 N14 1.359 . S
C5 C2 1.417 . S
C5 C4 1.426 . S
C5 N10 1.350 . S
C6 C3 1.437 . S
C6 C4 1.413 . S
C6 C16 1.391 . S
C7 C2 1.431 . S
C7 C3 1.317 . S
C7 H18 0.930 . S
C8 C2 1.412 . S
C8 C9 1.355 . S
C8 H20 0.930 . S
C9 C8 1.355 . S
C9 C11 1.402 . S
C9 H21 0.930 . S
N10 Gd1 2.661 . S
N10 C5 1.350 . S
N10 C11 1.307 . S
C11 C9 1.402 . S
C11 N10 1.307 . S
C11 H12 0.930 . S
H12 C11 0.930 . S
C13 N14 1.334 . S
C13 C15 1.394 . S
C13 H17 0.930 . S
N14 Gd1 2.601 . S
N14 C4 1.359 . S
N14 C13 1.334 . S
C15 C13 1.394 . S
C15 C16 1.359 . S
C15 H27 0.930 . S
C16 C6 1.391 . S
C16 C15 1.359 . S
C16 H28 0.929 . S
H17 C13 0.930 . S
H18 C7 0.930 . S
H19 C36 0.930 . S
H20 C8 0.930 . S
H21 C9 0.930 . S
H22 C3 0.929 . S
H23 C41 0.930 . S
H24 C32 0.930 1_655 S
H25 C33 0.930 . S
H26 C57 0.929 1_655 S
H27 C15 0.930 . S
H28 C16 0.929 . S
H29 C58 0.945 . S
H30 C39 0.930 . S
N31 Gd0 2.661 . S
N31 C35 1.350 . S
N31 C36 1.307 . S
C32 H24 0.930 1_455 S
C32 C33 1.355 . S
C32 C34 1.412 . S
C33 H25 0.930 . S
C33 C32 1.355 . S
C33 C36 1.402 . S
C34 C32 1.412 . S
C34 C35 1.417 . S
C34 C58 1.420 1_455 S
C35 N31 1.350 . S
C35 C34 1.417 . S
C35 C38 1.426 . S
C36 H19 0.930 . S
C36 N31 1.307 . S
C36 C33 1.402 . S
N37 Gd0 2.601 . S
N37 C38 1.359 . S
N37 C41 1.334 . S
C38 C35 1.426 . S
C38 N37 1.359 . S
C38 C42 1.413 . S
C39 H30 0.930 . S
C39 C40 1.359 . S
C39 C41 1.394 . S
C40 C39 1.359 . S
C40 C42 1.391 . S
C40 H43 0.929 . S
C41 H23 0.930 . S
C41 N37 1.334 . S
C41 C39 1.394 . S
C42 C38 1.413 . S
C42 C40 1.391 . S
C42 C57 1.437 . S
H43 C40 0.929 . S
O44 Gd0 2.545 . S
O44 C59 1.258 . S
O45 Gd0 2.606 . S
O45 Gd1 2.362 . S
O45 C56 1.284 . S
O46 Gd1 2.324 . S
O46 C66 1.254 . S
O47 Gd0 2.429 . S
O47 C66 1.268 . S
O48 Gd0 2.545 . S
O48 C56 1.250 . S
O49 Gd0 2.412 . S
O49 C59 1.252 . S
O50 Gd1 2.545 1_565 S
O50 C68 1.258 . S
O51 Gd0 2.362 . S
O51 Gd1 2.606 . S
O51 C67 1.284 . S
O52 Gd0 2.324 . S
O52 C75 1.254 . S
O53 Gd1 2.429 . S
O53 C75 1.268 . S
O54 Gd1 2.545 . S
O54 C67 1.250 . S
O55 Gd1 2.412 1_565 S
O55 C68 1.252 . S
C56 O45 1.284 . S
C56 O48 1.250 . S
C57 H26 0.929 1_455 S
C57 C42 1.437 . S
C57 C58 1.314 1_455 S
C58 H29 0.945 . S
C58 C34 1.420 1_655 S
C58 C57 1.314 1_655 S
C59 Gd0 2.828 . S
C59 O44 1.258 . S
C59 O49 1.252 . S
C59 C60 1.497 . S
C60 C59 1.497 . S
C60 C61 1.395 . S
C60 C62 1.380 . S
C61 C60 1.395 . S
C61 C64 1.398 . S
C61 H76 0.930 . S
C62 C60 1.380 . S
C62 C63 1.391 . S
C62 H77 0.930 . S
C63 C62 1.391 . S
C63 C65 1.387 . S
C64 C61 1.398 . S
C64 C65 1.380 . S
C64 H78 0.930 . S
C65 C63 1.387 . S
C65 C64 1.380 . S
C65 H79 0.930 . S
C66 O46 1.254 . S
C66 O47 1.268 . S
C67 O51 1.284 . S
C67 O54 1.250 . S
C68 Gd1 2.828 1_565 S
C68 O50 1.258 . S
C68 O55 1.252 . S
C68 C69 1.497 . S
C69 C68 1.497 . S
C69 C70 1.395 . S
C69 C71 1.380 . S
C70 C69 1.395 . S
C70 C73 1.398 . S
C70 H80 0.930 . S
C71 C69 1.380 . S
C71 C72 1.391 . S
C71 H81 0.930 . S
C72 C71 1.391 . S
C72 C74 1.387 . S
C73 C70 1.398 . S
C73 C74 1.380 . S
C73 H82 0.930 . S
C74 C72 1.387 . S
C74 C73 1.380 . S
C74 H83 0.930 . S
C75 O52 1.254 . S
C75 O53 1.268 . S
H76 C61 0.930 . S
H77 C62 0.930 . S
H78 C64 0.930 . S
H79 C65 0.930 . S
H80 C70 0.930 . S
H81 C71 0.930 . S
H82 C73 0.930 . S
H83 C74 0.930 . S
Gd84 N115 2.661 . S
Gd84 N121 2.601 . S
Gd84 O128 2.545 . S
Gd84 O129 2.606 . S
Gd84 O131 2.429 . S
Gd84 O132 2.545 . S
Gd84 O133 2.412 . S
Gd84 O135 2.362 . S
Gd84 O136 2.324 . S
Gd84 C143 2.828 . S
Gd85 N94 2.661 . S
Gd85 N98 2.601 . S
Gd85 O129 2.362 . S
Gd85 O130 2.324 . S
Gd85 O134 2.545 1_565 S
Gd85 O135 2.606 . S
Gd85 O137 2.429 . S
Gd85 O138 2.545 . S
Gd85 O139 2.412 1_565 S
Gd85 C152 2.828 1_565 S
C86 C89 1.417 . S
C86 C91 1.431 . S
C86 C92 1.412 . S
C87 C90 1.437 . S
C87 C91 1.317 . S
C87 H106 0.929 . S
C88 C89 1.426 . S
C88 C90 1.413 . S
C88 N98 1.359 . S
C89 C86 1.417 . S
C89 C88 1.426 . S
C89 N94 1.350 . S
C90 C87 1.437 . S
C90 C88 1.413 . S
C90 C100 1.391 . S
C91 C86 1.431 . S
C91 C87 1.317 . S
C91 H102 0.930 . S
C92 C86 1.412 . S
C92 C93 1.355 . S
C92 H104 0.930 . S
C93 C92 1.355 . S
C93 C95 1.402 . S
C93 H105 0.930 . S
N94 Gd85 2.661 . S
N94 C89 1.350 . S
N94 C95 1.307 . S
C95 C93 1.402 . S
C95 N94 1.307 . S
C95 H96 0.930 . S
H96 C95 0.930 . S
C97 N98 1.334 . S
C97 C99 1.394 . S
C97 H101 0.930 . S
N98 Gd85 2.601 . S
N98 C88 1.359 . S
N98 C97 1.334 . S
C99 C97 1.394 . S
C99 C100 1.359 . S
C99 H111 0.930 . S
C100 C90 1.391 . S
C100 C99 1.359 . S
C100 H112 0.929 . S
H101 C97 0.930 . S
H102 C91 0.930 . S
H103 C120 0.930 . S
H104 C92 0.930 . S
H105 C93 0.930 . S
H106 C87 0.929 . S
H107 C125 0.930 . S
H108 C116 0.930 1_455 S
H109 C117 0.930 . S
H110 C141 0.929 1_455 S
H111 C99 0.930 . S
H112 C100 0.929 . S
H113 C142 0.945 . S
H114 C123 0.930 . S
N115 Gd84 2.661 . S
N115 C119 1.350 . S
N115 C120 1.307 . S
C116 H108 0.930 1_655 S
C116 C117 1.355 . S
C116 C118 1.412 . S
C117 H109 0.930 . S
C117 C116 1.355 . S
C117 C120 1.402 . S
C118 C116 1.412 . S
C118 C119 1.417 . S
C118 C142 1.420 1_655 S
C119 N115 1.350 . S
C119 C118 1.417 . S
C119 C122 1.426 . S
C120 H103 0.930 . S
C120 N115 1.307 . S
C120 C117 1.402 . S
N121 Gd84 2.601 . S
N121 C122 1.359 . S
N121 C125 1.334 . S
C122 C119 1.426 . S
C122 N121 1.359 . S
C122 C126 1.413 . S
C123 H114 0.930 . S
C123 C124 1.359 . S
C123 C125 1.394 . S
C124 C123 1.359 . S
C124 C126 1.391 . S
C124 H127 0.929 . S
C125 H107 0.930 . S
C125 N121 1.334 . S
C125 C123 1.394 . S
C126 C122 1.413 . S
C126 C124 1.391 . S
C126 C141 1.437 . S
H127 C124 0.929 . S
O128 Gd84 2.545 . S
O128 C143 1.258 . S
O129 Gd84 2.606 . S
O129 Gd85 2.362 . S
O129 C140 1.284 . S
O130 Gd85 2.324 . S
O130 C150 1.254 . S
O131 Gd84 2.429 . S
O131 C150 1.268 . S
O132 Gd84 2.545 . S
O132 C140 1.250 . S
O133 Gd84 2.412 . S
O133 C143 1.252 . S
O134 Gd85 2.545 1_545 S
O134 C152 1.258 . S
O135 Gd84 2.362 . S
O135 Gd85 2.606 . S
O135 C151 1.284 . S
O136 Gd84 2.324 . S
O136 C159 1.254 . S
O137 Gd85 2.429 . S
O137 C159 1.268 . S
O138 Gd85 2.545 . S
O138 C151 1.250 . S
O139 Gd85 2.412 1_545 S
O139 C152 1.252 . S
C140 O129 1.284 . S
C140 O132 1.250 . S
C141 H110 0.929 1_655 S
C141 C126 1.437 . S
C141 C142 1.314 1_655 S
C142 H113 0.945 . S
C142 C118 1.420 1_455 S
C142 C141 1.314 1_455 S
C143 Gd84 2.828 . S
C143 O128 1.258 . S
C143 O133 1.252 . S
C143 C144 1.497 . S
C144 C143 1.497 . S
C144 C145 1.395 . S
C144 C146 1.380 . S
C145 C144 1.395 . S
C145 C148 1.398 . S
C145 H160 0.930 . S
C146 C144 1.380 . S
C146 C147 1.391 . S
C146 H161 0.930 . S
C147 C146 1.391 . S
C147 C149 1.387 . S
C148 C145 1.398 . S
C148 C149 1.380 . S
C148 H162 0.930 . S
C149 C147 1.387 . S
C149 C148 1.380 . S
C149 H163 0.930 . S
C150 O130 1.254 . S
C150 O131 1.268 . S
C151 O135 1.284 . S
C151 O138 1.250 . S
C152 Gd85 2.828 1_545 S
C152 O134 1.258 . S
C152 O139 1.252 . S
C152 C153 1.497 . S
C153 C152 1.497 . S
C153 C154 1.395 . S
C153 C155 1.380 . S
C154 C153 1.395 . S
C154 C157 1.398 . S
C154 H164 0.930 . S
C155 C153 1.380 . S
C155 C156 1.391 . S
C155 H165 0.930 . S
C156 C155 1.391 . S
C156 C158 1.387 . S
C157 C154 1.398 . S
C157 C158 1.380 . S
C157 H166 0.930 . S
C158 C156 1.387 . S
C158 C157 1.380 . S
C158 H167 0.930 . S
C159 O136 1.254 . S
C159 O137 1.268 . S
H160 C145 0.930 . S
H161 C146 0.930 . S
H162 C148 0.930 . S
H163 C149 0.930 . S
H164 C154 0.930 . S
H165 C155 0.930 . S
H166 C157 0.930 . S
H167 C158 0.930 . S
Gd168 N199 2.661 . S
Gd168 N205 2.601 . S
Gd168 O212 2.545 . S
Gd168 O213 2.606 . S
Gd168 O215 2.429 . S
Gd168 O216 2.545 . S
Gd168 O217 2.412 . S
Gd168 O219 2.362 . S
Gd168 O220 2.324 . S
Gd168 C227 2.828 . S
Gd169 N178 2.661 . S
Gd169 N182 2.601 . S
Gd169 O213 2.362 . S
Gd169 O214 2.324 . S
Gd169 O218 2.545 1_565 S
Gd169 O219 2.606 . S
Gd169 O221 2.429 . S
Gd169 O222 2.545 . S
Gd169 O223 2.412 1_565 S
Gd169 C236 2.828 1_565 S
C170 C173 1.417 . S
C170 C175 1.431 . S
C170 C176 1.412 . S
C171 C174 1.437 . S
C171 C175 1.317 . S
C171 H190 0.929 . S
C172 C173 1.426 . S
C172 C174 1.413 . S
C172 N182 1.359 . S
C173 C170 1.417 . S
C173 C172 1.426 . S
C173 N178 1.350 . S
C174 C171 1.437 . S
C174 C172 1.413 . S
C174 C184 1.391 . S
C175 C170 1.431 . S
C175 C171 1.317 . S
C175 H186 0.930 . S
C176 C170 1.412 . S
C176 C177 1.355 . S
C176 H188 0.930 . S
C177 C176 1.355 . S
C177 C179 1.402 . S
C177 H189 0.930 . S
N178 Gd169 2.661 . S
N178 C173 1.350 . S
N178 C179 1.307 . S
C179 C177 1.402 . S
C179 N178 1.307 . S
C179 H180 0.930 . S
H180 C179 0.930 . S
C181 N182 1.334 . S
C181 C183 1.394 . S
C181 H185 0.930 . S
N182 Gd169 2.601 . S
N182 C172 1.359 . S
N182 C181 1.334 . S
C183 C181 1.394 . S
C183 C184 1.359 . S
C183 H195 0.930 . S
C184 C174 1.391 . S
C184 C183 1.359 . S
C184 H196 0.929 . S
H185 C181 0.930 . S
H186 C175 0.930 . S
H187 C204 0.930 . S
H188 C176 0.930 . S
H189 C177 0.930 . S
H190 C171 0.929 . S
H191 C209 0.930 . S
H192 C200 0.930 1_655 S
H193 C201 0.930 . S
H194 C225 0.929 1_655 S
H195 C183 0.930 . S
H196 C184 0.929 . S
H197 C226 0.945 . S
H198 C207 0.930 . S
N199 Gd168 2.661 . S
N199 C203 1.350 . S
N199 C204 1.307 . S
C200 H192 0.930 1_455 S
C200 C201 1.355 . S
C200 C202 1.412 . S
C201 H193 0.930 . S
C201 C200 1.355 . S
C201 C204 1.402 . S
C202 C200 1.412 . S
C202 C203 1.417 . S
C202 C226 1.420 1_455 S
C203 N199 1.350 . S
C203 C202 1.417 . S
C203 C206 1.426 . S
C204 H187 0.930 . S
C204 N199 1.307 . S
C204 C201 1.402 . S
N205 Gd168 2.601 . S
N205 C206 1.359 . S
N205 C209 1.334 . S
C206 C203 1.426 . S
C206 N205 1.359 . S
C206 C210 1.413 . S
C207 H198 0.930 . S
C207 C208 1.359 . S
C207 C209 1.394 . S
C208 C207 1.359 . S
C208 C210 1.391 . S
C208 H211 0.929 . S
C209 H191 0.930 . S
C209 N205 1.334 . S
C209 C207 1.394 . S
C210 C206 1.413 . S
C210 C208 1.391 . S
C210 C225 1.437 . S
H211 C208 0.929 . S
O212 Gd168 2.545 . S
O212 C227 1.258 . S
O213 Gd168 2.606 . S
O213 Gd169 2.362 . S
O213 C224 1.284 . S
O214 Gd169 2.324 . S
O214 C234 1.254 . S
O215 Gd168 2.429 . S
O215 C234 1.268 . S
O216 Gd168 2.545 . S
O216 C224 1.250 . S
O217 Gd168 2.412 . S
O217 C227 1.252 . S
O218 Gd169 2.545 1_545 S
O218 C236 1.258 . S
O219 Gd168 2.362 . S
O219 Gd169 2.606 . S
O219 C235 1.284 . S
O220 Gd168 2.324 . S
O220 C243 1.254 . S
O221 Gd169 2.429 . S
O221 C243 1.268 . S
O222 Gd169 2.545 . S
O222 C235 1.250 . S
O223 Gd169 2.412 1_545 S
O223 C236 1.252 . S
C224 O213 1.284 . S
C224 O216 1.250 . S
C225 H194 0.929 1_455 S
C225 C210 1.437 . S
C225 C226 1.314 1_455 S
C226 H197 0.945 . S
C226 C202 1.420 1_655 S
C226 C225 1.314 1_655 S
C227 Gd168 2.828 . S
C227 O212 1.258 . S
C227 O217 1.252 . S
C227 C228 1.497 . S
C228 C227 1.497 . S
C228 C229 1.395 . S
C228 C230 1.380 . S
C229 C228 1.395 . S
C229 C232 1.398 . S
C229 H244 0.930 . S
C230 C228 1.380 . S
C230 C231 1.391 . S
C230 H245 0.930 . S
C231 C230 1.391 . S
C231 C233 1.387 . S
C232 C229 1.398 . S
C232 C233 1.380 . S
C232 H246 0.930 . S
C233 C231 1.387 . S
C233 C232 1.380 . S
C233 H247 0.930 . S
C234 O214 1.254 . S
C234 O215 1.268 . S
C235 O219 1.284 . S
C235 O222 1.250 . S
C236 Gd169 2.828 1_545 S
C236 O218 1.258 . S
C236 O223 1.252 . S
C236 C237 1.497 . S
C237 C236 1.497 . S
C237 C238 1.395 . S
C237 C239 1.380 . S
C238 C237 1.395 . S
C238 C241 1.398 . S
C238 H248 0.930 . S
C239 C237 1.380 . S
C239 C240 1.391 . S
C239 H249 0.930 . S
C240 C239 1.391 . S
C240 C242 1.387 . S
C241 C238 1.398 . S
C241 C242 1.380 . S
C241 H250 0.930 . S
C242 C240 1.387 . S
C242 C241 1.380 . S
C242 H251 0.930 . S
C243 O220 1.254 . S
C243 O221 1.268 . S
H244 C229 0.930 . S
H245 C230 0.930 . S
H246 C232 0.930 . S
H247 C233 0.930 . S
H248 C238 0.930 . S
H249 C239 0.930 . S
H250 C241 0.930 . S
H251 C242 0.930 . S
Gd252 N283 2.661 . S
Gd252 N289 2.601 . S
Gd252 O296 2.545 . S
Gd252 O297 2.606 . S
Gd252 O299 2.429 . S
Gd252 O300 2.545 . S
Gd252 O301 2.412 . S
Gd252 O303 2.362 . S
Gd252 O304 2.324 . S
Gd252 C311 2.828 . S
Gd253 N262 2.661 . S
Gd253 N266 2.601 . S
Gd253 O297 2.362 . S
Gd253 O298 2.324 . S
Gd253 O302 2.545 1_545 S
Gd253 O303 2.606 . S
Gd253 O305 2.429 . S
Gd253 O306 2.545 . S
Gd253 O307 2.412 1_545 S
Gd253 C320 2.828 1_545 S
C254 C257 1.417 . S
C254 C259 1.431 . S
C254 C260 1.412 . S
C255 C258 1.437 . S
C255 C259 1.317 . S
C255 H274 0.929 . S
C256 C257 1.426 . S
C256 C258 1.413 . S
C256 N266 1.359 . S
C257 C254 1.417 . S
C257 C256 1.426 . S
C257 N262 1.350 . S
C258 C255 1.437 . S
C258 C256 1.413 . S
C258 C268 1.391 . S
C259 C254 1.431 . S
C259 C255 1.317 . S
C259 H270 0.930 . S
C260 C254 1.412 . S
C260 C261 1.355 . S
C260 H272 0.930 . S
C261 C260 1.355 . S
C261 C263 1.402 . S
C261 H273 0.930 . S
N262 Gd253 2.661 . S
N262 C257 1.350 . S
N262 C263 1.307 . S
C263 C261 1.402 . S
C263 N262 1.307 . S
C263 H264 0.930 . S
H264 C263 0.930 . S
C265 N266 1.334 . S
C265 C267 1.394 . S
C265 H269 0.930 . S
N266 Gd253 2.601 . S
N266 C256 1.359 . S
N266 C265 1.334 . S
C267 C265 1.394 . S
C267 C268 1.359 . S
C267 H279 0.930 . S
C268 C258 1.391 . S
C268 C267 1.359 . S
C268 H280 0.929 . S
H269 C265 0.930 . S
H270 C259 0.930 . S
H271 C288 0.930 . S
H272 C260 0.930 . S
H273 C261 0.930 . S
H274 C255 0.929 . S
H275 C293 0.930 . S
H276 C284 0.930 1_455 S
H277 C285 0.930 . S
H278 C309 0.929 1_455 S
H279 C267 0.930 . S
H280 C268 0.929 . S
H281 C310 0.945 . S
H282 C291 0.930 . S
N283 Gd252 2.661 . S
N283 C287 1.350 . S
N283 C288 1.307 . S
C284 H276 0.930 1_655 S
C284 C285 1.355 . S
C284 C286 1.412 . S
C285 H277 0.930 . S
C285 C284 1.355 . S
C285 C288 1.402 . S
C286 C284 1.412 . S
C286 C287 1.417 . S
C286 C310 1.420 1_655 S
C287 N283 1.350 . S
C287 C286 1.417 . S
C287 C290 1.426 . S
C288 H271 0.930 . S
C288 N283 1.307 . S
C288 C285 1.402 . S
N289 Gd252 2.601 . S
N289 C290 1.359 . S
N289 C293 1.334 . S
C290 C287 1.426 . S
C290 N289 1.359 . S
C290 C294 1.413 . S
C291 H282 0.930 . S
C291 C292 1.359 . S
C291 C293 1.394 . S
C292 C291 1.359 . S
C292 C294 1.391 . S
C292 H295 0.929 . S
C293 H275 0.930 . S
C293 N289 1.334 . S
C293 C291 1.394 . S
C294 C290 1.413 . S
C294 C292 1.391 . S
C294 C309 1.437 . S
H295 C292 0.929 . S
O296 Gd252 2.545 . S
O296 C311 1.258 . S
O297 Gd252 2.606 . S
O297 Gd253 2.362 . S
O297 C308 1.284 . S
O298 Gd253 2.324 . S
O298 C318 1.254 . S
O299 Gd252 2.429 . S
O299 C318 1.268 . S
O300 Gd252 2.545 . S
O300 C308 1.250 . S
O301 Gd252 2.412 . S
O301 C311 1.252 . S
O302 Gd253 2.545 1_565 S
O302 C320 1.258 . S
O303 Gd252 2.362 . S
O303 Gd253 2.606 . S
O303 C319 1.284 . S
O304 Gd252 2.324 . S
O304 C327 1.254 . S
O305 Gd253 2.429 . S
O305 C327 1.268 . S
O306 Gd253 2.545 . S
O306 C319 1.250 . S
O307 Gd253 2.412 1_565 S
O307 C320 1.252 . S
C308 O297 1.284 . S
C308 O300 1.250 . S
C309 H278 0.929 1_655 S
C309 C294 1.437 . S
C309 C310 1.314 1_655 S
C310 H281 0.945 . S
C310 C286 1.420 1_455 S
C310 C309 1.314 1_455 S
C311 Gd252 2.828 . S
C311 O296 1.258 . S
C311 O301 1.252 . S
C311 C312 1.497 . S
C312 C311 1.497 . S
C312 C313 1.395 . S
C312 C314 1.380 . S
C313 C312 1.395 . S
C313 C316 1.398 . S
C313 H328 0.930 . S
C314 C312 1.380 . S
C314 C315 1.391 . S
C314 H329 0.930 . S
C315 C314 1.391 . S
C315 C317 1.387 . S
C316 C313 1.398 . S
C316 C317 1.380 . S
C316 H330 0.930 . S
C317 C315 1.387 . S
C317 C316 1.380 . S
C317 H331 0.930 . S
C318 O298 1.254 . S
C318 O299 1.268 . S
C319 O303 1.284 . S
C319 O306 1.250 . S
C320 Gd253 2.828 1_565 S
C320 O302 1.258 . S
C320 O307 1.252 . S
C320 C321 1.497 . S
C321 C320 1.497 . S
C321 C322 1.395 . S
C321 C323 1.380 . S
C322 C321 1.395 . S
C322 C325 1.398 . S
C322 H332 0.930 . S
C323 C321 1.380 . S
C323 C324 1.391 . S
C323 H333 0.930 . S
C324 C323 1.391 . S
C324 C326 1.387 . S
C325 C322 1.398 . S
C325 C326 1.380 . S
C325 H334 0.930 . S
C326 C324 1.387 . S
C326 C325 1.380 . S
C326 H335 0.930 . S
C327 O304 1.254 . S
C327 O305 1.268 . S
H328 C313 0.930 . S
H329 C314 0.930 . S
H330 C316 0.930 . S
H331 C317 0.930 . S
H332 C322 0.930 . S
H333 C323 0.930 . S
H334 C325 0.930 . S
H335 C326 0.930 . S
Gd336 N367 2.661 . S
Gd336 N373 2.601 . S
Gd336 O380 2.545 1_565 S
Gd336 O381 2.606 . S
Gd336 O383 2.429 . S
Gd336 O384 2.545 . S
Gd336 O385 2.412 1_565 S
Gd336 O387 2.362 . S
Gd336 O388 2.324 . S
Gd336 C395 2.828 1_565 S
Gd337 N346 2.661 . S
Gd337 N350 2.601 . S
Gd337 O381 2.362 . S
Gd337 O382 2.324 . S
Gd337 O386 2.545 . S
Gd337 O387 2.606 . S
Gd337 O389 2.429 . S
Gd337 O390 2.545 . S
Gd337 O391 2.412 . S
Gd337 C404 2.828 . S
C338 C341 1.417 . S
C338 C343 1.420 1_655 S
C338 C344 1.412 . S
C339 C342 1.437 . S
C339 C343 1.314 1_655 S
C339 H358 0.929 1_655 S
C340 C341 1.426 . S
C340 C342 1.413 . S
C340 N350 1.359 . S
C341 C338 1.417 . S
C341 C340 1.426 . S
C341 N346 1.350 . S
C342 C339 1.437 . S
C342 C340 1.413 . S
C342 C352 1.391 . S
C343 C338 1.420 1_455 S
C343 C339 1.314 1_455 S
C343 H354 0.945 . S
C344 C338 1.412 . S
C344 C345 1.355 . S
C344 H356 0.930 1_655 S
C345 C344 1.355 . S
C345 C347 1.402 . S
C345 H357 0.930 . S
N346 Gd337 2.661 . S
N346 C341 1.350 . S
N346 C347 1.307 . S
C347 C345 1.402 . S
C347 N346 1.307 . S
C347 H348 0.930 . S
H348 C347 0.930 . S
C349 N350 1.334 . S
C349 C351 1.394 . S
C349 H353 0.930 . S
N350 Gd337 2.601 . S
N350 C340 1.359 . S
N350 C349 1.334 . S
C351 C349 1.394 . S
C351 C352 1.359 . S
C351 H363 0.930 . S
C352 C342 1.391 . S
C352 C351 1.359 . S
C352 H364 0.929 . S
H353 C349 0.930 . S
H354 C343 0.945 . S
H355 C372 0.930 . S
H356 C344 0.930 1_455 S
H357 C345 0.930 . S
H358 C339 0.929 1_455 S
H359 C377 0.930 . S
H360 C368 0.930 . S
H361 C369 0.930 . S
H362 C393 0.929 . S
H363 C351 0.930 . S
H364 C352 0.929 . S
H365 C394 0.930 . S
H366 C375 0.930 . S
N367 Gd336 2.661 . S
N367 C371 1.350 . S
N367 C372 1.307 . S
C368 H360 0.930 . S
C368 C369 1.355 . S
C368 C370 1.412 . S
C369 H361 0.930 . S
C369 C368 1.355 . S
C369 C372 1.402 . S
C370 C368 1.412 . S
C370 C371 1.417 . S
C370 C394 1.431 . S
C371 N367 1.350 . S
C371 C370 1.417 . S
C371 C374 1.426 . S
C372 H355 0.930 . S
C372 N367 1.307 . S
C372 C369 1.402 . S
N373 Gd336 2.601 . S
N373 C374 1.359 . S
N373 C377 1.334 . S
C374 C371 1.426 . S
C374 N373 1.359 . S
C374 C378 1.413 . S
C375 H366 0.930 . S
C375 C376 1.359 . S
C375 C377 1.394 . S
C376 C375 1.359 . S
C376 C378 1.391 . S
C376 H379 0.929 . S
C377 H359 0.930 . S
C377 N373 1.334 . S
C377 C375 1.394 . S
C378 C374 1.413 . S
C378 C376 1.391 . S
C378 C393 1.437 . S
H379 C376 0.929 . S
O380 Gd336 2.545 1_545 S
O380 C395 1.258 . S
O381 Gd336 2.606 . S
O381 Gd337 2.362 . S
O381 C392 1.284 . S
O382 Gd337 2.324 . S
O382 C402 1.254 . S
O383 Gd336 2.429 . S
O383 C402 1.268 . S
O384 Gd336 2.545 . S
O384 C392 1.250 . S
O385 Gd336 2.412 1_545 S
O385 C395 1.252 . S
O386 Gd337 2.545 . S
O386 C404 1.258 . S
O387 Gd336 2.362 . S
O387 Gd337 2.606 . S
O387 C403 1.284 . S
O388 Gd336 2.324 . S
O388 C411 1.254 . S
O389 Gd337 2.429 . S
O389 C411 1.268 . S
O390 Gd337 2.545 . S
O390 C403 1.250 . S
O391 Gd337 2.412 . S
O391 C404 1.252 . S
C392 O381 1.284 . S
C392 O384 1.250 . S
C393 H362 0.929 . S
C393 C378 1.437 . S
C393 C394 1.317 . S
C394 H365 0.930 . S
C394 C370 1.431 . S
C394 C393 1.317 . S
C395 Gd336 2.828 1_545 S
C395 O380 1.258 . S
C395 O385 1.252 . S
C395 C396 1.497 . S
C396 C395 1.497 . S
C396 C397 1.395 . S
C396 C398 1.380 . S
C397 C396 1.395 . S
C397 C400 1.398 . S
C397 H412 0.930 . S
C398 C396 1.380 . S
C398 C399 1.391 . S
C398 H413 0.930 . S
C399 C398 1.391 . S
C399 C401 1.387 . S
C400 C397 1.398 . S
C400 C401 1.380 . S
C400 H414 0.930 . S
C401 C399 1.387 . S
C401 C400 1.380 . S
C401 H415 0.930 . S
C402 O382 1.254 . S
C402 O383 1.268 . S
C403 O387 1.284 . S
C403 O390 1.250 . S
C404 Gd337 2.828 . S
C404 O386 1.258 . S
C404 O391 1.252 . S
C404 C405 1.497 . S
C405 C404 1.497 . S
C405 C406 1.395 . S
C405 C407 1.380 . S
C406 C405 1.395 . S
C406 C409 1.398 . S
C406 H416 0.930 . S
C407 C405 1.380 . S
C407 C408 1.391 . S
C407 H417 0.930 . S
C408 C407 1.391 . S
C408 C410 1.387 . S
C409 C406 1.398 . S
C409 C410 1.380 . S
C409 H418 0.930 . S
C410 C408 1.387 . S
C410 C409 1.380 . S
C410 H419 0.930 . S
C411 O388 1.254 . S
C411 O389 1.268 . S
H412 C397 0.930 . S
H413 C398 0.930 . S
H414 C400 0.930 . S
H415 C401 0.930 . S
H416 C406 0.930 . S
H417 C407 0.930 . S
H418 C409 0.930 . S
H419 C410 0.930 . S
Gd420 N451 2.661 . S
Gd420 N457 2.601 . S
Gd420 O464 2.545 1_545 S
Gd420 O465 2.606 . S
Gd420 O467 2.429 . S
Gd420 O468 2.545 . S
Gd420 O469 2.412 1_545 S
Gd420 O471 2.362 . S
Gd420 O472 2.324 . S
Gd420 C479 2.828 1_545 S
Gd421 N430 2.661 . S
Gd421 N434 2.601 . S
Gd421 O465 2.362 . S
Gd421 O466 2.324 . S
Gd421 O470 2.545 . S
Gd421 O471 2.606 . S
Gd421 O473 2.429 . S
Gd421 O474 2.545 . S
Gd421 O475 2.412 . S
Gd421 C488 2.828 . S
C422 C425 1.417 . S
C422 C427 1.420 1_455 S
C422 C428 1.412 . S
C423 C426 1.437 . S
C423 C427 1.314 1_455 S
C423 H442 0.929 1_455 S
C424 C425 1.426 . S
C424 C426 1.413 . S
C424 N434 1.359 . S
C425 C422 1.417 . S
C425 C424 1.426 . S
C425 N430 1.350 . S
C426 C423 1.437 . S
C426 C424 1.413 . S
C426 C436 1.391 . S
C427 C422 1.420 1_655 S
C427 C423 1.314 1_655 S
C427 H438 0.945 . S
C428 C422 1.412 . S
C428 C429 1.355 . S
C428 H440 0.930 1_455 S
C429 C428 1.355 . S
C429 C431 1.402 . S
C429 H441 0.930 . S
N430 Gd421 2.661 . S
N430 C425 1.350 . S
N430 C431 1.307 . S
C431 C429 1.402 . S
C431 N430 1.307 . S
C431 H432 0.930 . S
H432 C431 0.930 . S
C433 N434 1.334 . S
C433 C435 1.394 . S
C433 H437 0.930 . S
N434 Gd421 2.601 . S
N434 C424 1.359 . S
N434 C433 1.334 . S
C435 C433 1.394 . S
C435 C436 1.359 . S
C435 H447 0.930 . S
C436 C426 1.391 . S
C436 C435 1.359 . S
C436 H448 0.929 . S
H437 C433 0.930 . S
H438 C427 0.945 . S
H439 C456 0.930 . S
H440 C428 0.930 1_655 S
H441 C429 0.930 . S
H442 C423 0.929 1_655 S
H443 C461 0.930 . S
H444 C452 0.930 . S
H445 C453 0.930 . S
H446 C477 0.929 . S
H447 C435 0.930 . S
H448 C436 0.929 . S
H449 C478 0.930 . S
H450 C459 0.930 . S
N451 Gd420 2.661 . S
N451 C455 1.350 . S
N451 C456 1.307 . S
C452 H444 0.930 . S
C452 C453 1.355 . S
C452 C454 1.412 . S
C453 H445 0.930 . S
C453 C452 1.355 . S
C453 C456 1.402 . S
C454 C452 1.412 . S
C454 C455 1.417 . S
C454 C478 1.431 . S
C455 N451 1.350 . S
C455 C454 1.417 . S
C455 C458 1.426 . S
C456 H439 0.930 . S
C456 N451 1.307 . S
C456 C453 1.402 . S
N457 Gd420 2.601 . S
N457 C458 1.359 . S
N457 C461 1.334 . S
C458 C455 1.426 . S
C458 N457 1.359 . S
C458 C462 1.413 . S
C459 H450 0.930 . S
C459 C460 1.359 . S
C459 C461 1.394 . S
C460 C459 1.359 . S
C460 C462 1.391 . S
C460 H463 0.929 . S
C461 H443 0.930 . S
C461 N457 1.334 . S
C461 C459 1.394 . S
C462 C458 1.413 . S
C462 C460 1.391 . S
C462 C477 1.437 . S
H463 C460 0.929 . S
O464 Gd420 2.545 1_565 S
O464 C479 1.258 . S
O465 Gd420 2.606 . S
O465 Gd421 2.362 . S
O465 C476 1.284 . S
O466 Gd421 2.324 . S
O466 C486 1.254 . S
O467 Gd420 2.429 . S
O467 C486 1.268 . S
O468 Gd420 2.545 . S
O468 C476 1.250 . S
O469 Gd420 2.412 1_565 S
O469 C479 1.252 . S
O470 Gd421 2.545 . S
O470 C488 1.258 . S
O471 Gd420 2.362 . S
O471 Gd421 2.606 . S
O471 C487 1.284 . S
O472 Gd420 2.324 . S
O472 C495 1.254 . S
O473 Gd421 2.429 . S
O473 C495 1.268 . S
O474 Gd421 2.545 . S
O474 C487 1.250 . S
O475 Gd421 2.412 . S
O475 C488 1.252 . S
C476 O465 1.284 . S
C476 O468 1.250 . S
C477 H446 0.929 . S
C477 C462 1.437 . S
C477 C478 1.317 . S
C478 H449 0.930 . S
C478 C454 1.431 . S
C478 C477 1.317 . S
C479 Gd420 2.828 1_565 S
C479 O464 1.258 . S
C479 O469 1.252 . S
C479 C480 1.497 . S
C480 C479 1.497 . S
C480 C481 1.395 . S
C480 C482 1.380 . S
C481 C480 1.395 . S
C481 C484 1.398 . S
C481 H496 0.930 . S
C482 C480 1.380 . S
C482 C483 1.391 . S
C482 H497 0.930 . S
C483 C482 1.391 . S
C483 C485 1.387 . S
C484 C481 1.398 . S
C484 C485 1.380 . S
C484 H498 0.930 . S
C485 C483 1.387 . S
C485 C484 1.380 . S
C485 H499 0.930 . S
C486 O466 1.254 . S
C486 O467 1.268 . S
C487 O471 1.284 . S
C487 O474 1.250 . S
C488 Gd421 2.828 . S
C488 O470 1.258 . S
C488 O475 1.252 . S
C488 C489 1.497 . S
C489 C488 1.497 . S
C489 C490 1.395 . S
C489 C491 1.380 . S
C490 C489 1.395 . S
C490 C493 1.398 . S
C490 H500 0.930 . S
C491 C489 1.380 . S
C491 C492 1.391 . S
C491 H501 0.930 . S
C492 C491 1.391 . S
C492 C494 1.387 . S
C493 C490 1.398 . S
C493 C494 1.380 . S
C493 H502 0.930 . S
C494 C492 1.387 . S
C494 C493 1.380 . S
C494 H503 0.930 . S
C495 O472 1.254 . S
C495 O473 1.268 . S
H496 C481 0.930 . S
H497 C482 0.930 . S
H498 C484 0.930 . S
H499 C485 0.930 . S
H500 C490 0.930 . S
H501 C491 0.930 . S
H502 C493 0.930 . S
H503 C494 0.930 . S
Gd504 N535 2.661 . S
Gd504 N541 2.601 . S
Gd504 O548 2.545 1_545 S
Gd504 O549 2.606 . S
Gd504 O551 2.429 . S
Gd504 O552 2.545 . S
Gd504 O553 2.412 1_545 S
Gd504 O555 2.362 . S
Gd504 O556 2.324 . S
Gd504 C563 2.828 1_545 S
Gd505 N514 2.661 . S
Gd505 N518 2.601 . S
Gd505 O549 2.362 . S
Gd505 O550 2.324 . S
Gd505 O554 2.545 . S
Gd505 O555 2.606 . S
Gd505 O557 2.429 . S
Gd505 O558 2.545 . S
Gd505 O559 2.412 . S
Gd505 C572 2.828 . S
C506 C509 1.417 . S
C506 C511 1.420 1_655 S
C506 C512 1.412 . S
C507 C510 1.437 . S
C507 C511 1.314 1_655 S
C507 H526 0.929 1_655 S
C508 C509 1.426 . S
C508 C510 1.413 . S
C508 N518 1.359 . S
C509 C506 1.417 . S
C509 C508 1.426 . S
C509 N514 1.350 . S
C510 C507 1.437 . S
C510 C508 1.413 . S
C510 C520 1.391 . S
C511 C506 1.420 1_455 S
C511 C507 1.314 1_455 S
C511 H522 0.945 . S
C512 C506 1.412 . S
C512 C513 1.355 . S
C512 H524 0.930 1_655 S
C513 C512 1.355 . S
C513 C515 1.402 . S
C513 H525 0.930 . S
N514 Gd505 2.661 . S
N514 C509 1.350 . S
N514 C515 1.307 . S
C515 C513 1.402 . S
C515 N514 1.307 . S
C515 H516 0.930 . S
H516 C515 0.930 . S
C517 N518 1.334 . S
C517 C519 1.394 . S
C517 H521 0.930 . S
N518 Gd505 2.601 . S
N518 C508 1.359 . S
N518 C517 1.334 . S
C519 C517 1.394 . S
C519 C520 1.359 . S
C519 H531 0.930 . S
C520 C510 1.391 . S
C520 C519 1.359 . S
C520 H532 0.929 . S
H521 C517 0.930 . S
H522 C511 0.945 . S
H523 C540 0.930 . S
H524 C512 0.930 1_455 S
H525 C513 0.930 . S
H526 C507 0.929 1_455 S
H527 C545 0.930 . S
H528 C536 0.930 . S
H529 C537 0.930 . S
H530 C561 0.929 . S
H531 C519 0.930 . S
H532 C520 0.929 . S
H533 C562 0.930 . S
H534 C543 0.930 . S
N535 Gd504 2.661 . S
N535 C539 1.350 . S
N535 C540 1.307 . S
C536 H528 0.930 . S
C536 C537 1.355 . S
C536 C538 1.412 . S
C537 H529 0.930 . S
C537 C536 1.355 . S
C537 C540 1.402 . S
C538 C536 1.412 . S
C538 C539 1.417 . S
C538 C562 1.431 . S
C539 N535 1.350 . S
C539 C538 1.417 . S
C539 C542 1.426 . S
C540 H523 0.930 . S
C540 N535 1.307 . S
C540 C537 1.402 . S
N541 Gd504 2.601 . S
N541 C542 1.359 . S
N541 C545 1.334 . S
C542 C539 1.426 . S
C542 N541 1.359 . S
C542 C546 1.413 . S
C543 H534 0.930 . S
C543 C544 1.359 . S
C543 C545 1.394 . S
C544 C543 1.359 . S
C544 C546 1.391 . S
C544 H547 0.929 . S
C545 H527 0.930 . S
C545 N541 1.334 . S
C545 C543 1.394 . S
C546 C542 1.413 . S
C546 C544 1.391 . S
C546 C561 1.437 . S
H547 C544 0.929 . S
O548 Gd504 2.545 1_565 S
O548 C563 1.258 . S
O549 Gd504 2.606 . S
O549 Gd505 2.362 . S
O549 C560 1.284 . S
O550 Gd505 2.324 . S
O550 C570 1.254 . S
O551 Gd504 2.429 . S
O551 C570 1.268 . S
O552 Gd504 2.545 . S
O552 C560 1.250 . S
O553 Gd504 2.412 1_565 S
O553 C563 1.252 . S
O554 Gd505 2.545 . S
O554 C572 1.258 . S
O555 Gd504 2.362 . S
O555 Gd505 2.606 . S
O555 C571 1.284 . S
O556 Gd504 2.324 . S
O556 C579 1.254 . S
O557 Gd505 2.429 . S
O557 C579 1.268 . S
O558 Gd505 2.545 . S
O558 C571 1.250 . S
O559 Gd505 2.412 . S
O559 C572 1.252 . S
C560 O549 1.284 . S
C560 O552 1.250 . S
C561 H530 0.929 . S
C561 C546 1.437 . S
C561 C562 1.317 . S
C562 H533 0.930 . S
C562 C538 1.431 . S
C562 C561 1.317 . S
C563 Gd504 2.828 1_565 S
C563 O548 1.258 . S
C563 O553 1.252 . S
C563 C564 1.497 . S
C564 C563 1.497 . S
C564 C565 1.395 . S
C564 C566 1.380 . S
C565 C564 1.395 . S
C565 C568 1.398 . S
C565 H580 0.930 . S
C566 C564 1.380 . S
C566 C567 1.391 . S
C566 H581 0.930 . S
C567 C566 1.391 . S
C567 C569 1.387 . S
C568 C565 1.398 . S
C568 C569 1.380 . S
C568 H582 0.930 . S
C569 C567 1.387 . S
C569 C568 1.380 . S
C569 H583 0.930 . S
C570 O550 1.254 . S
C570 O551 1.268 . S
C571 O555 1.284 . S
C571 O558 1.250 . S
C572 Gd505 2.828 . S
C572 O554 1.258 . S
C572 O559 1.252 . S
C572 C573 1.497 . S
C573 C572 1.497 . S
C573 C574 1.395 . S
C573 C575 1.380 . S
C574 C573 1.395 . S
C574 C577 1.398 . S
C574 H584 0.930 . S
C575 C573 1.380 . S
C575 C576 1.391 . S
C575 H585 0.930 . S
C576 C575 1.391 . S
C576 C578 1.387 . S
C577 C574 1.398 . S
C577 C578 1.380 . S
C577 H586 0.930 . S
C578 C576 1.387 . S
C578 C577 1.380 . S
C578 H587 0.930 . S
C579 O556 1.254 . S
C579 O557 1.268 . S
H580 C565 0.930 . S
H581 C566 0.930 . S
H582 C568 0.930 . S
H583 C569 0.930 . S
H584 C574 0.930 . S
H585 C575 0.930 . S
H586 C577 0.930 . S
H587 C578 0.930 . S
Gd588 N619 2.661 . S
Gd588 N625 2.601 . S
Gd588 O632 2.545 1_565 S
Gd588 O633 2.606 . S
Gd588 O635 2.429 . S
Gd588 O636 2.545 . S
Gd588 O637 2.412 1_565 S
Gd588 O639 2.362 . S
Gd588 O640 2.324 . S
Gd588 C647 2.828 1_565 S
Gd589 N598 2.661 . S
Gd589 N602 2.601 . S
Gd589 O633 2.362 . S
Gd589 O634 2.324 . S
Gd589 O638 2.545 . S
Gd589 O639 2.606 . S
Gd589 O641 2.429 . S
Gd589 O642 2.545 . S
Gd589 O643 2.412 . S
Gd589 C656 2.828 . S
C590 C593 1.417 . S
C590 C595 1.420 1_455 S
C590 C596 1.412 . S
C591 C594 1.437 . S
C591 C595 1.314 1_455 S
C591 H610 0.929 1_455 S
C592 C593 1.426 . S
C592 C594 1.413 . S
C592 N602 1.359 . S
C593 C590 1.417 . S
C593 C592 1.426 . S
C593 N598 1.350 . S
C594 C591 1.437 . S
C594 C592 1.413 . S
C594 C604 1.391 . S
C595 C590 1.420 1_655 S
C595 C591 1.314 1_655 S
C595 H606 0.945 . S
C596 C590 1.412 . S
C596 C597 1.355 . S
C596 H608 0.930 1_455 S
C597 C596 1.355 . S
C597 C599 1.402 . S
C597 H609 0.930 . S
N598 Gd589 2.661 . S
N598 C593 1.350 . S
N598 C599 1.307 . S
C599 C597 1.402 . S
C599 N598 1.307 . S
C599 H600 0.930 . S
H600 C599 0.930 . S
C601 N602 1.334 . S
C601 C603 1.394 . S
C601 H605 0.930 . S
N602 Gd589 2.601 . S
N602 C592 1.359 . S
N602 C601 1.334 . S
C603 C601 1.394 . S
C603 C604 1.359 . S
C603 H615 0.930 . S
C604 C594 1.391 . S
C604 C603 1.359 . S
C604 H616 0.929 . S
H605 C601 0.930 . S
H606 C595 0.945 . S
H607 C624 0.930 . S
H608 C596 0.930 1_655 S
H609 C597 0.930 . S
H610 C591 0.929 1_655 S
H611 C629 0.930 . S
H612 C620 0.930 . S
H613 C621 0.930 . S
H614 C645 0.929 . S
H615 C603 0.930 . S
H616 C604 0.929 . S
H617 C646 0.930 . S
H618 C627 0.930 . S
N619 Gd588 2.661 . S
N619 C623 1.350 . S
N619 C624 1.307 . S
C620 H612 0.930 . S
C620 C621 1.355 . S
C620 C622 1.412 . S
C621 H613 0.930 . S
C621 C620 1.355 . S
C621 C624 1.402 . S
C622 C620 1.412 . S
C622 C623 1.417 . S
C622 C646 1.431 . S
C623 N619 1.350 . S
C623 C622 1.417 . S
C623 C626 1.426 . S
C624 H607 0.930 . S
C624 N619 1.307 . S
C624 C621 1.402 . S
N625 Gd588 2.601 . S
N625 C626 1.359 . S
N625 C629 1.334 . S
C626 C623 1.426 . S
C626 N625 1.359 . S
C626 C630 1.413 . S
C627 H618 0.930 . S
C627 C628 1.359 . S
C627 C629 1.394 . S
C628 C627 1.359 . S
C628 C630 1.391 . S
C628 H631 0.929 . S
C629 H611 0.930 . S
C629 N625 1.334 . S
C629 C627 1.394 . S
C630 C626 1.413 . S
C630 C628 1.391 . S
C630 C645 1.437 . S
H631 C628 0.929 . S
O632 Gd588 2.545 1_545 S
O632 C647 1.258 . S
O633 Gd588 2.606 . S
O633 Gd589 2.362 . S
O633 C644 1.284 . S
O634 Gd589 2.324 . S
O634 C654 1.254 . S
O635 Gd588 2.429 . S
O635 C654 1.268 . S
O636 Gd588 2.545 . S
O636 C644 1.250 . S
O637 Gd588 2.412 1_545 S
O637 C647 1.252 . S
O638 Gd589 2.545 . S
O638 C656 1.258 . S
O639 Gd588 2.362 . S
O639 Gd589 2.606 . S
O639 C655 1.284 . S
O640 Gd588 2.324 . S
O640 C663 1.254 . S
O641 Gd589 2.429 . S
O641 C663 1.268 . S
O642 Gd589 2.545 . S
O642 C655 1.250 . S
O643 Gd589 2.412 . S
O643 C656 1.252 . S
C644 O633 1.284 . S
C644 O636 1.250 . S
C645 H614 0.929 . S
C645 C630 1.437 . S
C645 C646 1.317 . S
C646 H617 0.930 . S
C646 C622 1.431 . S
C646 C645 1.317 . S
C647 Gd588 2.828 1_545 S
C647 O632 1.258 . S
C647 O637 1.252 . S
C647 C648 1.497 . S
C648 C647 1.497 . S
C648 C649 1.395 . S
C648 C650 1.380 . S
C649 C648 1.395 . S
C649 C652 1.398 . S
C649 H664 0.930 . S
C650 C648 1.380 . S
C650 C651 1.391 . S
C650 H665 0.930 . S
C651 C650 1.391 . S
C651 C653 1.387 . S
C652 C649 1.398 . S
C652 C653 1.380 . S
C652 H666 0.930 . S
C653 C651 1.387 . S
C653 C652 1.380 . S
C653 H667 0.930 . S
C654 O634 1.254 . S
C654 O635 1.268 . S
C655 O639 1.284 . S
C655 O642 1.250 . S
C656 Gd589 2.828 . S
C656 O638 1.258 . S
C656 O643 1.252 . S
C656 C657 1.497 . S
C657 C656 1.497 . S
C657 C658 1.395 . S
C657 C659 1.380 . S
C658 C657 1.395 . S
C658 C661 1.398 . S
C658 H668 0.930 . S
C659 C657 1.380 . S
C659 C660 1.391 . S
C659 H669 0.930 . S
C660 C659 1.391 . S
C660 C662 1.387 . S
C661 C658 1.398 . S
C661 C662 1.380 . S
C661 H670 0.930 . S
C662 C660 1.387 . S
C662 C661 1.380 . S
C662 H671 0.930 . S
C663 O640 1.254 . S
C663 O641 1.268 . S
H664 C649 0.930 . S
H665 C650 0.930 . S
H666 C652 0.930 . S
H667 C653 0.930 . S
H668 C658 0.930 . S
H669 C659 0.930 . S
H670 C661 0.930 . S
H671 C662 0.930 . S
Gd672 N703 2.661 . S
Gd672 N709 2.601 . S
Gd672 O716 2.545 . S
Gd672 O717 2.606 . S
Gd672 O719 2.429 . S
Gd672 O720 2.545 . S
Gd672 O721 2.412 . S
Gd672 O723 2.362 . S
Gd672 O724 2.324 . S
Gd672 C731 2.828 . S
Gd673 N682 2.661 . S
Gd673 N686 2.601 . S
Gd673 O717 2.362 . S
Gd673 O718 2.324 . S
Gd673 O722 2.545 . S
Gd673 O723 2.606 . S
Gd673 O725 2.429 . S
Gd673 O726 2.545 . S
Gd673 O727 2.412 . S
Gd673 C740 2.828 . S
C674 C677 1.417 . S
C674 C679 1.431 . S
C674 C680 1.412 . S
C675 C678 1.437 . S
C675 C679 1.317 . S
C675 H694 0.929 . S
C676 C677 1.426 . S
C676 C678 1.413 . S
C676 N686 1.359 . S
C677 C674 1.417 . S
C677 C676 1.426 . S
C677 N682 1.350 . S
C678 C675 1.437 . S
C678 C676 1.413 . S
C678 C688 1.391 . S
C679 C674 1.431 . S
C679 C675 1.317 . S
C679 H690 0.930 . S
C680 C674 1.412 . S
C680 C681 1.355 . S
C680 H692 0.930 . S
C681 C680 1.355 . S
C681 C683 1.402 . S
C681 H693 0.930 . S
N682 Gd673 2.661 . S
N682 C677 1.350 . S
N682 C683 1.307 . S
C683 C681 1.402 . S
C683 N682 1.307 . S
C683 H684 0.930 . S
H684 C683 0.930 . S
C685 N686 1.334 . S
C685 C687 1.394 . S
C685 H689 0.930 . S
N686 Gd673 2.601 . S
N686 C676 1.359 . S
N686 C685 1.334 . S
C687 C685 1.394 . S
C687 C688 1.359 . S
C687 H699 0.930 . S
C688 C678 1.391 . S
C688 C687 1.359 . S
C688 H700 0.929 . S
H689 C685 0.930 . S
H690 C679 0.930 . S
H691 C708 0.930 . S
H692 C680 0.930 . S
H693 C681 0.930 . S
H694 C675 0.929 . S
H695 C713 0.930 . S
H696 C704 0.930 . S
H697 C705 0.930 . S
H698 C729 0.929 . S
H699 C687 0.930 . S
H700 C688 0.929 . S
H701 C730 0.930 . S
H702 C711 0.930 . S
N703 Gd672 2.661 . S
N703 C707 1.350 . S
N703 C708 1.307 . S
C704 H696 0.930 . S
C704 C705 1.355 . S
C704 C706 1.412 . S
C705 H697 0.930 . S
C705 C704 1.355 . S
C705 C708 1.402 . S
C706 C704 1.412 . S
C706 C707 1.417 . S
C706 C730 1.431 . S
C707 N703 1.350 . S
C707 C706 1.417 . S
C707 C710 1.426 . S
C708 H691 0.930 . S
C708 N703 1.307 . S
C708 C705 1.402 . S
N709 Gd672 2.601 . S
N709 C710 1.359 . S
N709 C713 1.334 . S
C710 C707 1.426 . S
C710 N709 1.359 . S
C710 C714 1.413 . S
C711 H702 0.930 . S
C711 C712 1.359 . S
C711 C713 1.394 . S
C712 C711 1.359 . S
C712 C714 1.391 . S
C712 H715 0.929 . S
C713 H695 0.930 . S
C713 N709 1.334 . S
C713 C711 1.394 . S
C714 C710 1.413 . S
C714 C712 1.391 . S
C714 C729 1.437 . S
H715 C712 0.929 . S
O716 Gd672 2.545 . S
O716 C731 1.258 . S
O717 Gd672 2.606 . S
O717 Gd673 2.362 . S
O717 C728 1.284 . S
O718 Gd673 2.324 . S
O718 C738 1.254 . S
O719 Gd672 2.429 . S
O719 C738 1.268 . S
O720 Gd672 2.545 . S
O720 C728 1.250 . S
O721 Gd672 2.412 . S
O721 C731 1.252 . S
O722 Gd673 2.545 . S
O722 C740 1.258 . S
O723 Gd672 2.362 . S
O723 Gd673 2.606 . S
O723 C739 1.284 . S
O724 Gd672 2.324 . S
O724 C747 1.254 . S
O725 Gd673 2.429 . S
O725 C747 1.268 . S
O726 Gd673 2.545 . S
O726 C739 1.250 . S
O727 Gd673 2.412 . S
O727 C740 1.252 . S
C728 O717 1.284 . S
C728 O720 1.250 . S
C729 H698 0.929 . S
C729 C714 1.437 . S
C729 C730 1.317 . S
C730 H701 0.930 . S
C730 C706 1.431 . S
C730 C729 1.317 . S
C731 Gd672 2.828 . S
C731 O716 1.258 . S
C731 O721 1.252 . S
C731 C732 1.497 . S
C732 C731 1.497 . S
C732 C733 1.395 . S
C732 C734 1.380 . S
C733 C732 1.395 . S
C733 C736 1.398 . S
C733 H748 0.930 . S
C734 C732 1.380 . S
C734 C735 1.391 . S
C734 H749 0.930 . S
C735 C734 1.391 . S
C735 C737 1.387 . S
C736 C733 1.398 . S
C736 C737 1.380 . S
C736 H750 0.930 . S
C737 C735 1.387 . S
C737 C736 1.380 . S
C737 H751 0.930 1_565 S
C738 O718 1.254 . S
C738 O719 1.268 . S
C739 O723 1.284 . S
C739 O726 1.250 . S
C740 Gd673 2.828 . S
C740 O722 1.258 . S
C740 O727 1.252 . S
C740 C741 1.497 . S
C741 C740 1.497 . S
C741 C742 1.395 . S
C741 C743 1.380 . S
C742 C741 1.395 . S
C742 C745 1.398 . S
C742 H752 0.930 . S
C743 C741 1.380 . S
C743 C744 1.391 . S
C743 H753 0.930 . S
C744 C743 1.391 . S
C744 C746 1.387 . S
C745 C742 1.398 . S
C745 C746 1.380 . S
C745 H754 0.930 . S
C746 C744 1.387 . S
C746 C745 1.380 . S
C746 H755 0.930 . S
C747 O724 1.254 . S
C747 O725 1.268 . S
H748 C733 0.930 . S
H749 C734 0.930 . S
H750 C736 0.930 . S
H751 C737 0.930 1_545 S
H752 C742 0.930 . S
H753 C743 0.930 . S
H754 C745 0.930 . S
H755 C746 0.930 . S
Gd756 N787 2.661 . S
Gd756 N793 2.601 . S
Gd756 O800 2.545 . S
Gd756 O801 2.606 . S
Gd756 O803 2.429 . S
Gd756 O804 2.545 . S
Gd756 O805 2.412 . S
Gd756 O807 2.362 . S
Gd756 O808 2.324 . S
Gd756 C815 2.828 . S
Gd757 N766 2.661 . S
Gd757 N770 2.601 . S
Gd757 O801 2.362 . S
Gd757 O802 2.324 . S
Gd757 O806 2.545 . S
Gd757 O807 2.606 . S
Gd757 O809 2.429 . S
Gd757 O810 2.545 . S
Gd757 O811 2.412 . S
Gd757 C824 2.828 . S
C758 C761 1.417 . S
C758 C763 1.431 . S
C758 C764 1.412 . S
C759 C762 1.437 . S
C759 C763 1.317 . S
C759 H778 0.929 . S
C760 C761 1.426 . S
C760 C762 1.413 . S
C760 N770 1.359 . S
C761 C758 1.417 . S
C761 C760 1.426 . S
C761 N766 1.350 . S
C762 C759 1.437 . S
C762 C760 1.413 . S
C762 C772 1.391 . S
C763 C758 1.431 . S
C763 C759 1.317 . S
C763 H774 0.930 . S
C764 C758 1.412 . S
C764 C765 1.355 . S
C764 H776 0.930 . S
C765 C764 1.355 . S
C765 C767 1.402 . S
C765 H777 0.930 . S
N766 Gd757 2.661 . S
N766 C761 1.350 . S
N766 C767 1.307 . S
C767 C765 1.402 . S
C767 N766 1.307 . S
C767 H768 0.930 . S
H768 C767 0.930 . S
C769 N770 1.334 . S
C769 C771 1.394 . S
C769 H773 0.930 . S
N770 Gd757 2.601 . S
N770 C760 1.359 . S
N770 C769 1.334 . S
C771 C769 1.394 . S
C771 C772 1.359 . S
C771 H783 0.930 . S
C772 C762 1.391 . S
C772 C771 1.359 . S
C772 H784 0.929 . S
H773 C769 0.930 . S
H774 C763 0.930 . S
H775 C792 0.930 . S
H776 C764 0.930 . S
H777 C765 0.930 . S
H778 C759 0.929 . S
H779 C797 0.930 . S
H780 C788 0.930 . S
H781 C789 0.930 . S
H782 C813 0.929 . S
H783 C771 0.930 . S
H784 C772 0.929 . S
H785 C814 0.930 . S
H786 C795 0.930 . S
N787 Gd756 2.661 . S
N787 C791 1.350 . S
N787 C792 1.307 . S
C788 H780 0.930 . S
C788 C789 1.355 . S
C788 C790 1.412 . S
C789 H781 0.930 . S
C789 C788 1.355 . S
C789 C792 1.402 . S
C790 C788 1.412 . S
C790 C791 1.417 . S
C790 C814 1.431 . S
C791 N787 1.350 . S
C791 C790 1.417 . S
C791 C794 1.426 . S
C792 H775 0.930 . S
C792 N787 1.307 . S
C792 C789 1.402 . S
N793 Gd756 2.601 . S
N793 C794 1.359 . S
N793 C797 1.334 . S
C794 C791 1.426 . S
C794 N793 1.359 . S
C794 C798 1.413 . S
C795 H786 0.930 . S
C795 C796 1.359 . S
C795 C797 1.394 . S
C796 C795 1.359 . S
C796 C798 1.391 . S
C796 H799 0.929 . S
C797 H779 0.930 . S
C797 N793 1.334 . S
C797 C795 1.394 . S
C798 C794 1.413 . S
C798 C796 1.391 . S
C798 C813 1.437 . S
H799 C796 0.929 . S
O800 Gd756 2.545 . S
O800 C815 1.258 . S
O801 Gd756 2.606 . S
O801 Gd757 2.362 . S
O801 C812 1.284 . S
O802 Gd757 2.324 . S
O802 C822 1.254 . S
O803 Gd756 2.429 . S
O803 C822 1.268 . S
O804 Gd756 2.545 . S
O804 C812 1.250 . S
O805 Gd756 2.412 . S
O805 C815 1.252 . S
O806 Gd757 2.545 . S
O806 C824 1.258 . S
O807 Gd756 2.362 . S
O807 Gd757 2.606 . S
O807 C823 1.284 . S
O808 Gd756 2.324 . S
O808 C831 1.254 . S
O809 Gd757 2.429 . S
O809 C831 1.268 . S
O810 Gd757 2.545 . S
O810 C823 1.250 . S
O811 Gd757 2.412 . S
O811 C824 1.252 . S
C812 O801 1.284 . S
C812 O804 1.250 . S
C813 H782 0.929 . S
C813 C798 1.437 . S
C813 C814 1.317 . S
C814 H785 0.930 . S
C814 C790 1.431 . S
C814 C813 1.317 . S
C815 Gd756 2.828 . S
C815 O800 1.258 . S
C815 O805 1.252 . S
C815 C816 1.497 . S
C816 C815 1.497 . S
C816 C817 1.395 . S
C816 C818 1.380 . S
C817 C816 1.395 . S
C817 C820 1.398 . S
C817 H832 0.930 . S
C818 C816 1.380 . S
C818 C819 1.391 . S
C818 H833 0.930 . S
C819 C818 1.391 . S
C819 C821 1.387 . S
C820 C817 1.398 . S
C820 C821 1.380 . S
C820 H834 0.930 . S
C821 C819 1.387 . S
C821 C820 1.380 . S
C821 H835 0.930 1_545 S
C822 O802 1.254 . S
C822 O803 1.268 . S
C823 O807 1.284 . S
C823 O810 1.250 . S
C824 Gd757 2.828 . S
C824 O806 1.258 . S
C824 O811 1.252 . S
C824 C825 1.497 . S
C825 C824 1.497 . S
C825 C826 1.395 . S
C825 C827 1.380 . S
C826 C825 1.395 . S
C826 C829 1.398 . S
C826 H836 0.930 . S
C827 C825 1.380 . S
C827 C828 1.391 . S
C827 H837 0.930 . S
C828 C827 1.391 . S
C828 C830 1.387 . S
C829 C826 1.398 . S
C829 C830 1.380 . S
C829 H838 0.930 . S
C830 C828 1.387 . S
C830 C829 1.380 . S
C830 H839 0.930 . S
C831 O808 1.254 . S
C831 O809 1.268 . S
H832 C817 0.930 . S
H833 C818 0.930 . S
H834 C820 0.930 . S
H835 C821 0.930 1_565 S
H836 C826 0.930 . S
H837 C827 0.930 . S
H838 C829 0.930 . S
H839 C830 0.930 . S
Gd840 N871 2.661 . S
Gd840 N877 2.601 . S
Gd840 O884 2.545 . S
Gd840 O885 2.606 . S
Gd840 O887 2.429 . S
Gd840 O888 2.545 . S
Gd840 O889 2.412 . S
Gd840 O891 2.362 . S
Gd840 O892 2.324 . S
Gd840 C899 2.828 . S
Gd841 N850 2.661 . S
Gd841 N854 2.601 . S
Gd841 O885 2.362 . S
Gd841 O886 2.324 . S
Gd841 O890 2.545 . S
Gd841 O891 2.606 . S
Gd841 O893 2.429 . S
Gd841 O894 2.545 . S
Gd841 O895 2.412 . S
Gd841 C908 2.828 . S
C842 C845 1.417 . S
C842 C847 1.431 . S
C842 C848 1.412 . S
C843 C846 1.437 . S
C843 C847 1.317 . S
C843 H862 0.929 . S
C844 C845 1.426 . S
C844 C846 1.413 . S
C844 N854 1.359 . S
C845 C842 1.417 . S
C845 C844 1.426 . S
C845 N850 1.350 . S
C846 C843 1.437 . S
C846 C844 1.413 . S
C846 C856 1.391 . S
C847 C842 1.431 . S
C847 C843 1.317 . S
C847 H858 0.930 . S
C848 C842 1.412 . S
C848 C849 1.355 . S
C848 H860 0.930 . S
C849 C848 1.355 . S
C849 C851 1.402 . S
C849 H861 0.930 . S
N850 Gd841 2.661 . S
N850 C845 1.350 . S
N850 C851 1.307 . S
C851 C849 1.402 . S
C851 N850 1.307 . S
C851 H852 0.930 . S
H852 C851 0.930 . S
C853 N854 1.334 . S
C853 C855 1.394 . S
C853 H857 0.930 . S
N854 Gd841 2.601 . S
N854 C844 1.359 . S
N854 C853 1.334 . S
C855 C853 1.394 . S
C855 C856 1.359 . S
C855 H867 0.930 . S
C856 C846 1.391 . S
C856 C855 1.359 . S
C856 H868 0.929 . S
H857 C853 0.930 . S
H858 C847 0.930 . S
H859 C876 0.930 . S
H860 C848 0.930 . S
H861 C849 0.930 . S
H862 C843 0.929 . S
H863 C881 0.930 . S
H864 C872 0.930 . S
H865 C873 0.930 . S
H866 C897 0.929 . S
H867 C855 0.930 . S
H868 C856 0.929 . S
H869 C898 0.930 . S
H870 C879 0.930 . S
N871 Gd840 2.661 . S
N871 C875 1.350 . S
N871 C876 1.307 . S
C872 H864 0.930 . S
C872 C873 1.355 . S
C872 C874 1.412 . S
C873 H865 0.930 . S
C873 C872 1.355 . S
C873 C876 1.402 . S
C874 C872 1.412 . S
C874 C875 1.417 . S
C874 C898 1.431 . S
C875 N871 1.350 . S
C875 C874 1.417 . S
C875 C878 1.426 . S
C876 H859 0.930 . S
C876 N871 1.307 . S
C876 C873 1.402 . S
N877 Gd840 2.601 . S
N877 C878 1.359 . S
N877 C881 1.334 . S
C878 C875 1.426 . S
C878 N877 1.359 . S
C878 C882 1.413 . S
C879 H870 0.930 . S
C879 C880 1.359 . S
C879 C881 1.394 . S
C880 C879 1.359 . S
C880 C882 1.391 . S
C880 H883 0.929 . S
C881 H863 0.930 . S
C881 N877 1.334 . S
C881 C879 1.394 . S
C882 C878 1.413 . S
C882 C880 1.391 . S
C882 C897 1.437 . S
H883 C880 0.929 . S
O884 Gd840 2.545 . S
O884 C899 1.258 . S
O885 Gd840 2.606 . S
O885 Gd841 2.362 . S
O885 C896 1.284 . S
O886 Gd841 2.324 . S
O886 C906 1.254 . S
O887 Gd840 2.429 . S
O887 C906 1.268 . S
O888 Gd840 2.545 . S
O888 C896 1.250 . S
O889 Gd840 2.412 . S
O889 C899 1.252 . S
O890 Gd841 2.545 . S
O890 C908 1.258 . S
O891 Gd840 2.362 . S
O891 Gd841 2.606 . S
O891 C907 1.284 . S
O892 Gd840 2.324 . S
O892 C915 1.254 . S
O893 Gd841 2.429 . S
O893 C915 1.268 . S
O894 Gd841 2.545 . S
O894 C907 1.250 . S
O895 Gd841 2.412 . S
O895 C908 1.252 . S
C896 O885 1.284 . S
C896 O888 1.250 . S
C897 H866 0.929 . S
C897 C882 1.437 . S
C897 C898 1.317 . S
C898 H869 0.930 . S
C898 C874 1.431 . S
C898 C897 1.317 . S
C899 Gd840 2.828 . S
C899 O884 1.258 . S
C899 O889 1.252 . S
C899 C900 1.497 . S
C900 C899 1.497 . S
C900 C901 1.395 . S
C900 C902 1.380 . S
C901 C900 1.395 . S
C901 C904 1.398 . S
C901 H916 0.930 . S
C902 C900 1.380 . S
C902 C903 1.391 . S
C902 H917 0.930 . S
C903 C902 1.391 . S
C903 C905 1.387 . S
C904 C901 1.398 . S
C904 C905 1.380 . S
C904 H918 0.930 . S
C905 C903 1.387 . S
C905 C904 1.380 . S
C905 H919 0.930 1_545 S
C906 O886 1.254 . S
C906 O887 1.268 . S
C907 O891 1.284 . S
C907 O894 1.250 . S
C908 Gd841 2.828 . S
C908 O890 1.258 . S
C908 O895 1.252 . S
C908 C909 1.497 . S
C909 C908 1.497 . S
C909 C910 1.395 . S
C909 C911 1.380 . S
C910 C909 1.395 . S
C910 C913 1.398 . S
C910 H920 0.930 . S
C911 C909 1.380 . S
C911 C912 1.391 . S
C911 H921 0.930 . S
C912 C911 1.391 . S
C912 C914 1.387 . S
C913 C910 1.398 . S
C913 C914 1.380 . S
C913 H922 0.930 . S
C914 C912 1.387 . S
C914 C913 1.380 . S
C914 H923 0.930 . S
C915 O892 1.254 . S
C915 O893 1.268 . S
H916 C901 0.930 . S
H917 C902 0.930 . S
H918 C904 0.930 . S
H919 C905 0.930 1_565 S
H920 C910 0.930 . S
H921 C911 0.930 . S
H922 C913 0.930 . S
H923 C914 0.930 . S
Gd924 N955 2.661 . S
Gd924 N961 2.601 . S
Gd924 O968 2.545 . S
Gd924 O969 2.606 . S
Gd924 O971 2.429 . S
Gd924 O972 2.545 . S
Gd924 O973 2.412 . S
Gd924 O975 2.362 . S
Gd924 O976 2.324 . S
Gd924 C983 2.828 . S
Gd925 N934 2.661 . S
Gd925 N938 2.601 . S
Gd925 O969 2.362 . S
Gd925 O970 2.324 . S
Gd925 O974 2.545 . S
Gd925 O975 2.606 . S
Gd925 O977 2.429 . S
Gd925 O978 2.545 . S
Gd925 O979 2.412 . S
Gd925 C992 2.828 . S
C926 C929 1.417 . S
C926 C931 1.431 . S
C926 C932 1.412 . S
C927 C930 1.437 . S
C927 C931 1.317 . S
C927 H946 0.929 . S
C928 C929 1.426 . S
C928 C930 1.413 . S
C928 N938 1.359 . S
C929 C926 1.417 . S
C929 C928 1.426 . S
C929 N934 1.350 . S
C930 C927 1.437 . S
C930 C928 1.413 . S
C930 C940 1.391 . S
C931 C926 1.431 . S
C931 C927 1.317 . S
C931 H942 0.930 . S
C932 C926 1.412 . S
C932 C933 1.355 . S
C932 H944 0.930 . S
C933 C932 1.355 . S
C933 C935 1.402 . S
C933 H945 0.930 . S
N934 Gd925 2.661 . S
N934 C929 1.350 . S
N934 C935 1.307 . S
C935 C933 1.402 . S
C935 N934 1.307 . S
C935 H936 0.930 . S
H936 C935 0.930 . S
C937 N938 1.334 . S
C937 C939 1.394 . S
C937 H941 0.930 . S
N938 Gd925 2.601 . S
N938 C928 1.359 . S
N938 C937 1.334 . S
C939 C937 1.394 . S
C939 C940 1.359 . S
C939 H951 0.930 . S
C940 C930 1.391 . S
C940 C939 1.359 . S
C940 H952 0.929 . S
H941 C937 0.930 . S
H942 C931 0.930 . S
H943 C960 0.930 . S
H944 C932 0.930 . S
H945 C933 0.930 . S
H946 C927 0.929 . S
H947 C965 0.930 . S
H948 C956 0.930 . S
H949 C957 0.930 . S
H950 C981 0.929 . S
H951 C939 0.930 . S
H952 C940 0.929 . S
H953 C982 0.930 . S
H954 C963 0.930 . S
N955 Gd924 2.661 . S
N955 C959 1.350 . S
N955 C960 1.307 . S
C956 H948 0.930 . S
C956 C957 1.355 . S
C956 C958 1.412 . S
C957 H949 0.930 . S
C957 C956 1.355 . S
C957 C960 1.402 . S
C958 C956 1.412 . S
C958 C959 1.417 . S
C958 C982 1.431 . S
C959 N955 1.350 . S
C959 C958 1.417 . S
C959 C962 1.426 . S
C960 H943 0.930 . S
C960 N955 1.307 . S
C960 C957 1.402 . S
N961 Gd924 2.601 . S
N961 C962 1.359 . S
N961 C965 1.334 . S
C962 C959 1.426 . S
C962 N961 1.359 . S
C962 C966 1.413 . S
C963 H954 0.930 . S
C963 C964 1.359 . S
C963 C965 1.394 . S
C964 C963 1.359 . S
C964 C966 1.391 . S
C964 H967 0.929 . S
C965 H947 0.930 . S
C965 N961 1.334 . S
C965 C963 1.394 . S
C966 C962 1.413 . S
C966 C964 1.391 . S
C966 C981 1.437 . S
H967 C964 0.929 . S
O968 Gd924 2.545 . S
O968 C983 1.258 . S
O969 Gd924 2.606 . S
O969 Gd925 2.362 . S
O969 C980 1.284 . S
O970 Gd925 2.324 . S
O970 C990 1.254 . S
O971 Gd924 2.429 . S
O971 C990 1.268 . S
O972 Gd924 2.545 . S
O972 C980 1.250 . S
O973 Gd924 2.412 . S
O973 C983 1.252 . S
O974 Gd925 2.545 . S
O974 C992 1.258 . S
O975 Gd924 2.362 . S
O975 Gd925 2.606 . S
O975 C991 1.284 . S
O976 Gd924 2.324 . S
O976 C999 1.254 . S
O977 Gd925 2.429 . S
O977 C999 1.268 . S
O978 Gd925 2.545 . S
O978 C991 1.250 . S
O979 Gd925 2.412 . S
O979 C992 1.252 . S
C980 O969 1.284 . S
C980 O972 1.250 . S
C981 H950 0.929 . S
C981 C966 1.437 . S
C981 C982 1.317 . S
C982 H953 0.930 . S
C982 C958 1.431 . S
C982 C981 1.317 . S
C983 Gd924 2.828 . S
C983 O968 1.258 . S
C983 O973 1.252 . S
C983 C984 1.497 . S
C984 C983 1.497 . S
C984 C985 1.395 . S
C984 C986 1.380 . S
C985 C984 1.395 . S
C985 C988 1.398 . S
C985 H1000 0.930 . S
C986 C984 1.380 . S
C986 C987 1.391 . S
C986 H1001 0.930 . S
C987 C986 1.391 . S
C987 C989 1.387 . S
C988 C985 1.398 . S
C988 C989 1.380 . S
C988 H1002 0.930 . S
C989 C987 1.387 . S
C989 C988 1.380 . S
C989 H1003 0.930 1_565 S
C990 O970 1.254 . S
C990 O971 1.268 . S
C991 O975 1.284 . S
C991 O978 1.250 . S
C992 Gd925 2.828 . S
C992 O974 1.258 . S
C992 O979 1.252 . S
C992 C993 1.497 . S
C993 C992 1.497 . S
C993 C994 1.395 . S
C993 C995 1.380 . S
C994 C993 1.395 . S
C994 C997 1.398 . S
C994 H1004 0.930 . S
C995 C993 1.380 . S
C995 C996 1.391 . S
C995 H1005 0.930 . S
C996 C995 1.391 . S
C996 C998 1.387 . S
C997 C994 1.398 . S
C997 C998 1.380 . S
C997 H1006 0.930 . S
C998 C996 1.387 . S
C998 C997 1.380 . S
C998 H1007 0.930 . S
C999 O976 1.254 . S
C999 O977 1.268 . S
H1000 C985 0.930 . S
H1001 C986 0.930 . S
H1002 C988 0.930 . S
H1003 C989 0.930 1_545 S
H1004 C994 0.930 . S
H1005 C995 0.930 . S
H1006 C997 0.930 . S
H1007 C998 0.930 . S
Gd1008 N1039 2.661 . S
Gd1008 N1045 2.601 . S
Gd1008 O1052 2.545 . S
Gd1008 O1053 2.606 . S
Gd1008 O1055 2.429 . S
Gd1008 O1056 2.545 . S
Gd1008 O1057 2.412 . S
Gd1008 O1059 2.362 . S
Gd1008 O1060 2.324 . S
Gd1008 C1067 2.828 . S
Gd1009 N1018 2.661 . S
Gd1009 N1022 2.601 . S
Gd1009 O1053 2.362 . S
Gd1009 O1054 2.324 . S
Gd1009 O1058 2.545 . S
Gd1009 O1059 2.606 . S
Gd1009 O1061 2.429 . S
Gd1009 O1062 2.545 . S
Gd1009 O1063 2.412 . S
Gd1009 C1076 2.828 . S
C1010 C1013 1.417 . S
C1010 C1015 1.431 . S
C1010 C1016 1.412 . S
C1011 C1014 1.437 . S
C1011 C1015 1.317 . S
C1011 H1030 0.929 . S
C1012 C1013 1.426 . S
C1012 C1014 1.413 . S
C1012 N1022 1.359 . S
C1013 C1010 1.417 . S
C1013 C1012 1.426 . S
C1013 N1018 1.350 . S
C1014 C1011 1.437 . S
C1014 C1012 1.413 . S
C1014 C1024 1.391 . S
C1015 C1010 1.431 . S
C1015 C1011 1.317 . S
C1015 H1026 0.930 . S
C1016 C1010 1.412 . S
C1016 C1017 1.355 . S
C1016 H1028 0.930 . S
C1017 C1016 1.355 . S
C1017 C1019 1.402 . S
C1017 H1029 0.930 . S
N1018 Gd1009 2.661 . S
N1018 C1013 1.350 . S
N1018 C1019 1.307 . S
C1019 C1017 1.402 . S
C1019 N1018 1.307 . S
C1019 H1020 0.930 . S
H1020 C1019 0.930 . S
C1021 N1022 1.334 . S
C1021 C1023 1.394 . S
C1021 H1025 0.930 . S
N1022 Gd1009 2.601 . S
N1022 C1012 1.359 . S
N1022 C1021 1.334 . S
C1023 C1021 1.394 . S
C1023 C1024 1.359 . S
C1023 H1035 0.930 . S
C1024 C1014 1.391 . S
C1024 C1023 1.359 . S
C1024 H1036 0.929 . S
H1025 C1021 0.930 . S
H1026 C1015 0.930 . S
H1027 C1044 0.930 . S
H1028 C1016 0.930 . S
H1029 C1017 0.930 . S
H1030 C1011 0.929 . S
H1031 C1049 0.930 . S
H1032 C1040 0.930 . S
H1033 C1041 0.930 . S
H1034 C1065 0.929 . S
H1035 C1023 0.930 . S
H1036 C1024 0.929 . S
H1037 C1066 0.930 . S
H1038 C1047 0.930 . S
N1039 Gd1008 2.661 . S
N1039 C1043 1.350 . S
N1039 C1044 1.307 . S
C1040 H1032 0.930 . S
C1040 C1041 1.355 . S
C1040 C1042 1.412 . S
C1041 H1033 0.930 . S
C1041 C1040 1.355 . S
C1041 C1044 1.402 . S
C1042 C1040 1.412 . S
C1042 C1043 1.417 . S
C1042 C1066 1.431 . S
C1043 N1039 1.350 . S
C1043 C1042 1.417 . S
C1043 C1046 1.426 . S
C1044 H1027 0.930 . S
C1044 N1039 1.307 . S
C1044 C1041 1.402 . S
N1045 Gd1008 2.601 . S
N1045 C1046 1.359 . S
N1045 C1049 1.334 . S
C1046 C1043 1.426 . S
C1046 N1045 1.359 . S
C1046 C1050 1.413 . S
C1047 H1038 0.930 . S
C1047 C1048 1.359 . S
C1047 C1049 1.394 . S
C1048 C1047 1.359 . S
C1048 C1050 1.391 . S
C1048 H1051 0.929 . S
C1049 H1031 0.930 . S
C1049 N1045 1.334 . S
C1049 C1047 1.394 . S
C1050 C1046 1.413 . S
C1050 C1048 1.391 . S
C1050 C1065 1.437 . S
H1051 C1048 0.929 . S
O1052 Gd1008 2.545 . S
O1052 C1067 1.258 . S
O1053 Gd1008 2.606 . S
O1053 Gd1009 2.362 . S
O1053 C1064 1.284 . S
O1054 Gd1009 2.324 . S
O1054 C1074 1.254 . S
O1055 Gd1008 2.429 . S
O1055 C1074 1.268 . S
O1056 Gd1008 2.545 . S
O1056 C1064 1.250 . S
O1057 Gd1008 2.412 . S
O1057 C1067 1.252 . S
O1058 Gd1009 2.545 . S
O1058 C1076 1.258 . S
O1059 Gd1008 2.362 . S
O1059 Gd1009 2.606 . S
O1059 C1075 1.284 . S
O1060 Gd1008 2.324 . S
O1060 C1083 1.254 . S
O1061 Gd1009 2.429 . S
O1061 C1083 1.268 . S
O1062 Gd1009 2.545 . S
O1062 C1075 1.250 . S
O1063 Gd1009 2.412 . S
O1063 C1076 1.252 . S
C1064 O1053 1.284 . S
C1064 O1056 1.250 . S
C1065 H1034 0.929 . S
C1065 C1050 1.437 . S
C1065 C1066 1.317 . S
C1066 H1037 0.930 . S
C1066 C1042 1.431 . S
C1066 C1065 1.317 . S
C1067 Gd1008 2.828 . S
C1067 O1052 1.258 . S
C1067 O1057 1.252 . S
C1067 C1068 1.497 . S
C1068 C1067 1.497 . S
C1068 C1069 1.395 . S
C1068 C1070 1.380 . S
C1069 C1068 1.395 . S
C1069 C1072 1.398 . S
C1069 H1084 0.930 . S
C1070 C1068 1.380 . S
C1070 C1071 1.391 . S
C1070 H1085 0.930 . S
C1071 C1070 1.391 . S
C1071 C1073 1.387 . S
C1072 C1069 1.398 . S
C1072 C1073 1.380 . S
C1072 H1086 0.930 . S
C1073 C1071 1.387 . S
C1073 C1072 1.380 . S
C1073 H1087 0.930 . S
C1074 O1054 1.254 . S
C1074 O1055 1.268 . S
C1075 O1059 1.284 . S
C1075 O1062 1.250 . S
C1076 Gd1009 2.828 . S
C1076 O1058 1.258 . S
C1076 O1063 1.252 . S
C1076 C1077 1.497 . S
C1077 C1076 1.497 . S
C1077 C1078 1.395 . S
C1077 C1079 1.380 . S
C1078 C1077 1.395 . S
C1078 C1081 1.398 . S
C1078 H1088 0.930 . S
C1079 C1077 1.380 . S
C1079 C1080 1.391 . S
C1079 H1089 0.930 . S
C1080 C1079 1.391 . S
C1080 C1082 1.387 . S
C1081 C1078 1.398 . S
C1081 C1082 1.380 . S
C1081 H1090 0.930 . S
C1082 C1080 1.387 . S
C1082 C1081 1.380 . S
C1082 H1091 0.930 1_545 S
C1083 O1060 1.254 . S
C1083 O1061 1.268 . S
H1084 C1069 0.930 . S
H1085 C1070 0.930 . S
H1086 C1072 0.930 . S
H1087 C1073 0.930 . S
H1088 C1078 0.930 . S
H1089 C1079 0.930 . S
H1090 C1081 0.930 . S
H1091 C1082 0.930 1_565 S
Gd1092 N1123 2.661 . S
Gd1092 N1129 2.601 . S
Gd1092 O1136 2.545 . S
Gd1092 O1137 2.606 . S
Gd1092 O1139 2.429 . S
Gd1092 O1140 2.545 . S
Gd1092 O1141 2.412 . S
Gd1092 O1143 2.362 . S
Gd1092 O1144 2.324 . S
Gd1092 C1151 2.828 . S
Gd1093 N1102 2.661 . S
Gd1093 N1106 2.601 . S
Gd1093 O1137 2.362 . S
Gd1093 O1138 2.324 . S
Gd1093 O1142 2.545 . S
Gd1093 O1143 2.606 . S
Gd1093 O1145 2.429 . S
Gd1093 O1146 2.545 . S
Gd1093 O1147 2.412 . S
Gd1093 C1160 2.828 . S
C1094 C1097 1.417 . S
C1094 C1099 1.431 . S
C1094 C1100 1.412 . S
C1095 C1098 1.437 . S
C1095 C1099 1.317 . S
C1095 H1114 0.929 . S
C1096 C1097 1.426 . S
C1096 C1098 1.413 . S
C1096 N1106 1.359 . S
C1097 C1094 1.417 . S
C1097 C1096 1.426 . S
C1097 N1102 1.350 . S
C1098 C1095 1.437 . S
C1098 C1096 1.413 . S
C1098 C1108 1.391 . S
C1099 C1094 1.431 . S
C1099 C1095 1.317 . S
C1099 H1110 0.930 . S
C1100 C1094 1.412 . S
C1100 C1101 1.355 . S
C1100 H1112 0.930 . S
C1101 C1100 1.355 . S
C1101 C1103 1.402 . S
C1101 H1113 0.930 . S
N1102 Gd1093 2.661 . S
N1102 C1097 1.350 . S
N1102 C1103 1.307 . S
C1103 C1101 1.402 . S
C1103 N1102 1.307 . S
C1103 H1104 0.930 . S
H1104 C1103 0.930 . S
C1105 N1106 1.334 . S
C1105 C1107 1.394 . S
C1105 H1109 0.930 . S
N1106 Gd1093 2.601 . S
N1106 C1096 1.359 . S
N1106 C1105 1.334 . S
C1107 C1105 1.394 . S
C1107 C1108 1.359 . S
C1107 H1119 0.930 . S
C1108 C1098 1.391 . S
C1108 C1107 1.359 . S
C1108 H1120 0.929 . S
H1109 C1105 0.930 . S
H1110 C1099 0.930 . S
H1111 C1128 0.930 . S
H1112 C1100 0.930 . S
H1113 C1101 0.930 . S
H1114 C1095 0.929 . S
H1115 C1133 0.930 . S
H1116 C1124 0.930 . S
H1117 C1125 0.930 . S
H1118 C1149 0.929 . S
H1119 C1107 0.930 . S
H1120 C1108 0.929 . S
H1121 C1150 0.930 . S
H1122 C1131 0.930 . S
N1123 Gd1092 2.661 . S
N1123 C1127 1.350 . S
N1123 C1128 1.307 . S
C1124 H1116 0.930 . S
C1124 C1125 1.355 . S
C1124 C1126 1.412 . S
C1125 H1117 0.930 . S
C1125 C1124 1.355 . S
C1125 C1128 1.402 . S
C1126 C1124 1.412 . S
C1126 C1127 1.417 . S
C1126 C1150 1.431 . S
C1127 N1123 1.350 . S
C1127 C1126 1.417 . S
C1127 C1130 1.426 . S
C1128 H1111 0.930 . S
C1128 N1123 1.307 . S
C1128 C1125 1.402 . S
N1129 Gd1092 2.601 . S
N1129 C1130 1.359 . S
N1129 C1133 1.334 . S
C1130 C1127 1.426 . S
C1130 N1129 1.359 . S
C1130 C1134 1.413 . S
C1131 H1122 0.930 . S
C1131 C1132 1.359 . S
C1131 C1133 1.394 . S
C1132 C1131 1.359 . S
C1132 C1134 1.391 . S
C1132 H1135 0.929 . S
C1133 H1115 0.930 . S
C1133 N1129 1.334 . S
C1133 C1131 1.394 . S
C1134 C1130 1.413 . S
C1134 C1132 1.391 . S
C1134 C1149 1.437 . S
H1135 C1132 0.929 . S
O1136 Gd1092 2.545 . S
O1136 C1151 1.258 . S
O1137 Gd1092 2.606 . S
O1137 Gd1093 2.362 . S
O1137 C1148 1.284 . S
O1138 Gd1093 2.324 . S
O1138 C1158 1.254 . S
O1139 Gd1092 2.429 . S
O1139 C1158 1.268 . S
O1140 Gd1092 2.545 . S
O1140 C1148 1.250 . S
O1141 Gd1092 2.412 . S
O1141 C1151 1.252 . S
O1142 Gd1093 2.545 . S
O1142 C1160 1.258 . S
O1143 Gd1092 2.362 . S
O1143 Gd1093 2.606 . S
O1143 C1159 1.284 . S
O1144 Gd1092 2.324 . S
O1144 C1167 1.254 . S
O1145 Gd1093 2.429 . S
O1145 C1167 1.268 . S
O1146 Gd1093 2.545 . S
O1146 C1159 1.250 . S
O1147 Gd1093 2.412 . S
O1147 C1160 1.252 . S
C1148 O1137 1.284 . S
C1148 O1140 1.250 . S
C1149 H1118 0.929 . S
C1149 C1134 1.437 . S
C1149 C1150 1.317 . S
C1150 H1121 0.930 . S
C1150 C1126 1.431 . S
C1150 C1149 1.317 . S
C1151 Gd1092 2.828 . S
C1151 O1136 1.258 . S
C1151 O1141 1.252 . S
C1151 C1152 1.497 . S
C1152 C1151 1.497 . S
C1152 C1153 1.395 . S
C1152 C1154 1.380 . S
C1153 C1152 1.395 . S
C1153 C1156 1.398 . S
C1153 H1168 0.930 . S
C1154 C1152 1.380 . S
C1154 C1155 1.391 . S
C1154 H1169 0.930 . S
C1155 C1154 1.391 . S
C1155 C1157 1.387 . S
C1156 C1153 1.398 . S
C1156 C1157 1.380 . S
C1156 H1170 0.930 . S
C1157 C1155 1.387 . S
C1157 C1156 1.380 . S
C1157 H1171 0.930 . S
C1158 O1138 1.254 . S
C1158 O1139 1.268 . S
C1159 O1143 1.284 . S
C1159 O1146 1.250 . S
C1160 Gd1093 2.828 . S
C1160 O1142 1.258 . S
C1160 O1147 1.252 . S
C1160 C1161 1.497 . S
C1161 C1160 1.497 . S
C1161 C1162 1.395 . S
C1161 C1163 1.380 . S
C1162 C1161 1.395 . S
C1162 C1165 1.398 . S
C1162 H1172 0.930 . S
C1163 C1161 1.380 . S
C1163 C1164 1.391 . S
C1163 H1173 0.930 . S
C1164 C1163 1.391 . S
C1164 C1166 1.387 . S
C1165 C1162 1.398 . S
C1165 C1166 1.380 . S
C1165 H1174 0.930 . S
C1166 C1164 1.387 . S
C1166 C1165 1.380 . S
C1166 H1175 0.930 1_565 S
C1167 O1144 1.254 . S
C1167 O1145 1.268 . S
H1168 C1153 0.930 . S
H1169 C1154 0.930 . S
H1170 C1156 0.930 . S
H1171 C1157 0.930 . S
H1172 C1162 0.930 . S
H1173 C1163 0.930 . S
H1174 C1165 0.930 . S
H1175 C1166 0.930 1_545 S
Gd1176 N1207 2.661 . S
Gd1176 N1213 2.601 . S
Gd1176 O1220 2.545 . S
Gd1176 O1221 2.606 . S
Gd1176 O1223 2.429 . S
Gd1176 O1224 2.545 . S
Gd1176 O1225 2.412 . S
Gd1176 O1227 2.362 . S
Gd1176 O1228 2.324 . S
Gd1176 C1235 2.828 . S
Gd1177 N1186 2.661 . S
Gd1177 N1190 2.601 . S
Gd1177 O1221 2.362 . S
Gd1177 O1222 2.324 . S
Gd1177 O1226 2.545 . S
Gd1177 O1227 2.606 . S
Gd1177 O1229 2.429 . S
Gd1177 O1230 2.545 . S
Gd1177 O1231 2.412 . S
Gd1177 C1244 2.828 . S
C1178 C1181 1.417 . S
C1178 C1183 1.431 . S
C1178 C1184 1.412 . S
C1179 C1182 1.437 . S
C1179 C1183 1.317 . S
C1179 H1198 0.929 . S
C1180 C1181 1.426 . S
C1180 C1182 1.413 . S
C1180 N1190 1.359 . S
C1181 C1178 1.417 . S
C1181 C1180 1.426 . S
C1181 N1186 1.350 . S
C1182 C1179 1.437 . S
C1182 C1180 1.413 . S
C1182 C1192 1.391 . S
C1183 C1178 1.431 . S
C1183 C1179 1.317 . S
C1183 H1194 0.930 . S
C1184 C1178 1.412 . S
C1184 C1185 1.355 . S
C1184 H1196 0.930 . S
C1185 C1184 1.355 . S
C1185 C1187 1.402 . S
C1185 H1197 0.930 . S
N1186 Gd1177 2.661 . S
N1186 C1181 1.350 . S
N1186 C1187 1.307 . S
C1187 C1185 1.402 . S
C1187 N1186 1.307 . S
C1187 H1188 0.930 . S
H1188 C1187 0.930 . S
C1189 N1190 1.334 . S
C1189 C1191 1.394 . S
C1189 H1193 0.930 . S
N1190 Gd1177 2.601 . S
N1190 C1180 1.359 . S
N1190 C1189 1.334 . S
C1191 C1189 1.394 . S
C1191 C1192 1.359 . S
C1191 H1203 0.930 . S
C1192 C1182 1.391 . S
C1192 C1191 1.359 . S
C1192 H1204 0.929 . S
H1193 C1189 0.930 . S
H1194 C1183 0.930 . S
H1195 C1212 0.930 . S
H1196 C1184 0.930 . S
H1197 C1185 0.930 . S
H1198 C1179 0.929 . S
H1199 C1217 0.930 . S
H1200 C1208 0.930 . S
H1201 C1209 0.930 . S
H1202 C1233 0.929 . S
H1203 C1191 0.930 . S
H1204 C1192 0.929 . S
H1205 C1234 0.930 . S
H1206 C1215 0.930 . S
N1207 Gd1176 2.661 . S
N1207 C1211 1.350 . S
N1207 C1212 1.307 . S
C1208 H1200 0.930 . S
C1208 C1209 1.355 . S
C1208 C1210 1.412 . S
C1209 H1201 0.930 . S
C1209 C1208 1.355 . S
C1209 C1212 1.402 . S
C1210 C1208 1.412 . S
C1210 C1211 1.417 . S
C1210 C1234 1.431 . S
C1211 N1207 1.350 . S
C1211 C1210 1.417 . S
C1211 C1214 1.426 . S
C1212 H1195 0.930 . S
C1212 N1207 1.307 . S
C1212 C1209 1.402 . S
N1213 Gd1176 2.601 . S
N1213 C1214 1.359 . S
N1213 C1217 1.334 . S
C1214 C1211 1.426 . S
C1214 N1213 1.359 . S
C1214 C1218 1.413 . S
C1215 H1206 0.930 . S
C1215 C1216 1.359 . S
C1215 C1217 1.394 . S
C1216 C1215 1.359 . S
C1216 C1218 1.391 . S
C1216 H1219 0.929 . S
C1217 H1199 0.930 . S
C1217 N1213 1.334 . S
C1217 C1215 1.394 . S
C1218 C1214 1.413 . S
C1218 C1216 1.391 . S
C1218 C1233 1.437 . S
H1219 C1216 0.929 . S
O1220 Gd1176 2.545 . S
O1220 C1235 1.258 . S
O1221 Gd1176 2.606 . S
O1221 Gd1177 2.362 . S
O1221 C1232 1.284 . S
O1222 Gd1177 2.324 . S
O1222 C1242 1.254 . S
O1223 Gd1176 2.429 . S
O1223 C1242 1.268 . S
O1224 Gd1176 2.545 . S
O1224 C1232 1.250 . S
O1225 Gd1176 2.412 . S
O1225 C1235 1.252 . S
O1226 Gd1177 2.545 . S
O1226 C1244 1.258 . S
O1227 Gd1176 2.362 . S
O1227 Gd1177 2.606 . S
O1227 C1243 1.284 . S
O1228 Gd1176 2.324 . S
O1228 C1251 1.254 . S
O1229 Gd1177 2.429 . S
O1229 C1251 1.268 . S
O1230 Gd1177 2.545 . S
O1230 C1243 1.250 . S
O1231 Gd1177 2.412 . S
O1231 C1244 1.252 . S
C1232 O1221 1.284 . S
C1232 O1224 1.250 . S
C1233 H1202 0.929 . S
C1233 C1218 1.437 . S
C1233 C1234 1.317 . S
C1234 H1205 0.930 . S
C1234 C1210 1.431 . S
C1234 C1233 1.317 . S
C1235 Gd1176 2.828 . S
C1235 O1220 1.258 . S
C1235 O1225 1.252 . S
C1235 C1236 1.497 . S
C1236 C1235 1.497 . S
C1236 C1237 1.395 . S
C1236 C1238 1.380 . S
C1237 C1236 1.395 . S
C1237 C1240 1.398 . S
C1237 H1252 0.930 . S
C1238 C1236 1.380 . S
C1238 C1239 1.391 . S
C1238 H1253 0.930 . S
C1239 C1238 1.391 . S
C1239 C1241 1.387 . S
C1240 C1237 1.398 . S
C1240 C1241 1.380 . S
C1240 H1254 0.930 . S
C1241 C1239 1.387 . S
C1241 C1240 1.380 . S
C1241 H1255 0.930 . S
C1242 O1222 1.254 . S
C1242 O1223 1.268 . S
C1243 O1227 1.284 . S
C1243 O1230 1.250 . S
C1244 Gd1177 2.828 . S
C1244 O1226 1.258 . S
C1244 O1231 1.252 . S
C1244 C1245 1.497 . S
C1245 C1244 1.497 . S
C1245 C1246 1.395 . S
C1245 C1247 1.380 . S
C1246 C1245 1.395 . S
C1246 C1249 1.398 . S
C1246 H1256 0.930 . S
C1247 C1245 1.380 . S
C1247 C1248 1.391 . S
C1247 H1257 0.930 . S
C1248 C1247 1.391 . S
C1248 C1250 1.387 . S
C1249 C1246 1.398 . S
C1249 C1250 1.380 . S
C1249 H1258 0.930 . S
C1250 C1248 1.387 . S
C1250 C1249 1.380 . S
C1250 H1259 0.930 1_565 S
C1251 O1228 1.254 . S
C1251 O1229 1.268 . S
H1252 C1237 0.930 . S
H1253 C1238 0.930 . S
H1254 C1240 0.930 . S
H1255 C1241 0.930 . S
H1256 C1246 0.930 . S
H1257 C1247 0.930 . S
H1258 C1249 0.930 . S
H1259 C1250 0.930 1_545 S
Gd1260 N1291 2.661 . S
Gd1260 N1297 2.601 . S
Gd1260 O1304 2.545 . S
Gd1260 O1305 2.606 . S
Gd1260 O1307 2.429 . S
Gd1260 O1308 2.545 . S
Gd1260 O1309 2.412 . S
Gd1260 O1311 2.362 . S
Gd1260 O1312 2.324 . S
Gd1260 C1319 2.828 . S
Gd1261 N1270 2.661 . S
Gd1261 N1274 2.601 . S
Gd1261 O1305 2.362 . S
Gd1261 O1306 2.324 . S
Gd1261 O1310 2.545 . S
Gd1261 O1311 2.606 . S
Gd1261 O1313 2.429 . S
Gd1261 O1314 2.545 . S
Gd1261 O1315 2.412 . S
Gd1261 C1328 2.828 . S
C1262 C1265 1.417 . S
C1262 C1267 1.431 . S
C1262 C1268 1.412 . S
C1263 C1266 1.437 . S
C1263 C1267 1.317 . S
C1263 H1282 0.929 . S
C1264 C1265 1.426 . S
C1264 C1266 1.413 . S
C1264 N1274 1.359 . S
C1265 C1262 1.417 . S
C1265 C1264 1.426 . S
C1265 N1270 1.350 . S
C1266 C1263 1.437 . S
C1266 C1264 1.413 . S
C1266 C1276 1.391 . S
C1267 C1262 1.431 . S
C1267 C1263 1.317 . S
C1267 H1278 0.930 . S
C1268 C1262 1.412 . S
C1268 C1269 1.355 . S
C1268 H1280 0.930 . S
C1269 C1268 1.355 . S
C1269 C1271 1.402 . S
C1269 H1281 0.930 . S
N1270 Gd1261 2.661 . S
N1270 C1265 1.350 . S
N1270 C1271 1.307 . S
C1271 C1269 1.402 . S
C1271 N1270 1.307 . S
C1271 H1272 0.930 . S
H1272 C1271 0.930 . S
C1273 N1274 1.334 . S
C1273 C1275 1.394 . S
C1273 H1277 0.930 . S
N1274 Gd1261 2.601 . S
N1274 C1264 1.359 . S
N1274 C1273 1.334 . S
C1275 C1273 1.394 . S
C1275 C1276 1.359 . S
C1275 H1287 0.930 . S
C1276 C1266 1.391 . S
C1276 C1275 1.359 . S
C1276 H1288 0.929 . S
H1277 C1273 0.930 . S
H1278 C1267 0.930 . S
H1279 C1296 0.930 . S
H1280 C1268 0.930 . S
H1281 C1269 0.930 . S
H1282 C1263 0.929 . S
H1283 C1301 0.930 . S
H1284 C1292 0.930 . S
H1285 C1293 0.930 . S
H1286 C1317 0.929 . S
H1287 C1275 0.930 . S
H1288 C1276 0.929 . S
H1289 C1318 0.930 . S
H1290 C1299 0.930 . S
N1291 Gd1260 2.661 . S
N1291 C1295 1.350 . S
N1291 C1296 1.307 . S
C1292 H1284 0.930 . S
C1292 C1293 1.355 . S
C1292 C1294 1.412 . S
C1293 H1285 0.930 . S
C1293 C1292 1.355 . S
C1293 C1296 1.402 . S
C1294 C1292 1.412 . S
C1294 C1295 1.417 . S
C1294 C1318 1.431 . S
C1295 N1291 1.350 . S
C1295 C1294 1.417 . S
C1295 C1298 1.426 . S
C1296 H1279 0.930 . S
C1296 N1291 1.307 . S
C1296 C1293 1.402 . S
N1297 Gd1260 2.601 . S
N1297 C1298 1.359 . S
N1297 C1301 1.334 . S
C1298 C1295 1.426 . S
C1298 N1297 1.359 . S
C1298 C1302 1.413 . S
C1299 H1290 0.930 . S
C1299 C1300 1.359 . S
C1299 C1301 1.394 . S
C1300 C1299 1.359 . S
C1300 C1302 1.391 . S
C1300 H1303 0.929 . S
C1301 H1283 0.930 . S
C1301 N1297 1.334 . S
C1301 C1299 1.394 . S
C1302 C1298 1.413 . S
C1302 C1300 1.391 . S
C1302 C1317 1.437 . S
H1303 C1300 0.929 . S
O1304 Gd1260 2.545 . S
O1304 C1319 1.258 . S
O1305 Gd1260 2.606 . S
O1305 Gd1261 2.362 . S
O1305 C1316 1.284 . S
O1306 Gd1261 2.324 . S
O1306 C1326 1.254 . S
O1307 Gd1260 2.429 . S
O1307 C1326 1.268 . S
O1308 Gd1260 2.545 . S
O1308 C1316 1.250 . S
O1309 Gd1260 2.412 . S
O1309 C1319 1.252 . S
O1310 Gd1261 2.545 . S
O1310 C1328 1.258 . S
O1311 Gd1260 2.362 . S
O1311 Gd1261 2.606 . S
O1311 C1327 1.284 . S
O1312 Gd1260 2.324 . S
O1312 C1335 1.254 . S
O1313 Gd1261 2.429 . S
O1313 C1335 1.268 . S
O1314 Gd1261 2.545 . S
O1314 C1327 1.250 . S
O1315 Gd1261 2.412 . S
O1315 C1328 1.252 . S
C1316 O1305 1.284 . S
C1316 O1308 1.250 . S
C1317 H1286 0.929 . S
C1317 C1302 1.437 . S
C1317 C1318 1.317 . S
C1318 H1289 0.930 . S
C1318 C1294 1.431 . S
C1318 C1317 1.317 . S
C1319 Gd1260 2.828 . S
C1319 O1304 1.258 . S
C1319 O1309 1.252 . S
C1319 C1320 1.497 . S
C1320 C1319 1.497 . S
C1320 C1321 1.395 . S
C1320 C1322 1.380 . S
C1321 C1320 1.395 . S
C1321 C1324 1.398 . S
C1321 H1336 0.930 . S
C1322 C1320 1.380 . S
C1322 C1323 1.391 . S
C1322 H1337 0.930 . S
C1323 C1322 1.391 . S
C1323 C1325 1.387 . S
C1324 C1321 1.398 . S
C1324 C1325 1.380 . S
C1324 H1338 0.930 . S
C1325 C1323 1.387 . S
C1325 C1324 1.380 . S
C1325 H1339 0.930 . S
C1326 O1306 1.254 . S
C1326 O1307 1.268 . S
C1327 O1311 1.284 . S
C1327 O1314 1.250 . S
C1328 Gd1261 2.828 . S
C1328 O1310 1.258 . S
C1328 O1315 1.252 . S
C1328 C1329 1.497 . S
C1329 C1328 1.497 . S
C1329 C1330 1.395 . S
C1329 C1331 1.380 . S
C1330 C1329 1.395 . S
C1330 C1333 1.398 . S
C1330 H1340 0.930 . S
C1331 C1329 1.380 . S
C1331 C1332 1.391 . S
C1331 H1341 0.930 . S
C1332 C1331 1.391 . S
C1332 C1334 1.387 . S
C1333 C1330 1.398 . S
C1333 C1334 1.380 . S
C1333 H1342 0.930 . S
C1334 C1332 1.387 . S
C1334 C1333 1.380 . S
C1334 H1343 0.930 1_545 S
C1335 O1312 1.254 . S
C1335 O1313 1.268 . S
H1336 C1321 0.930 . S
H1337 C1322 0.930 . S
H1338 C1324 0.930 . S
H1339 C1325 0.930 . S
H1340 C1330 0.930 . S
H1341 C1331 0.930 . S
H1342 C1333 0.930 . S
H1343 C1334 0.930 1_565 S
H1344 C1350 0.930 . S
H1345 C1354 0.930 . S
H1346 C1359 0.929 . S
H1347 C1357 0.929 . S
H1348 C1352 0.929 . S
H1349 C1358 0.929 . S
C1350 H1344 0.930 . S
C1350 C1351 1.367 . S
C1350 C1358 1.378 . S
C1351 C1350 1.367 . S
C1351 C1359 1.433 . S
C1352 H1348 0.929 . S
C1352 C1354 1.378 . S
C1352 C1356 1.350 . S
C1353 C1356 1.463 . S
C1353 C1358 1.350 . S
C1353 N1361 1.427 . S
C1354 H1345 0.930 . S
C1354 C1352 1.378 . S
C1354 C1355 1.367 . S
C1355 C1354 1.367 . S
C1355 C1357 1.433 . S
C1356 C1352 1.350 . S
C1356 C1353 1.463 . S
C1356 N1360 1.427 . S
C1357 H1347 0.929 . S
C1357 C1355 1.433 . S
C1357 N1360 1.384 . S
C1358 H1349 0.929 . S
C1358 C1350 1.378 . S
C1358 C1353 1.350 . S
C1359 H1346 0.929 . S
C1359 C1351 1.433 . S
C1359 N1361 1.384 . S
N1360 C1356 1.427 . S
N1360 C1357 1.384 . S
N1361 C1353 1.427 . S
N1361 C1359 1.384 . S
H1362 C1368 0.930 . S
H1363 C1372 0.930 . S
H1364 C1377 0.929 . S
H1365 C1375 0.929 . S
H1366 C1370 0.929 . S
H1367 C1376 0.929 . S
C1368 H1362 0.930 . S
C1368 C1369 1.367 . S
C1368 C1376 1.378 . S
C1369 C1368 1.367 . S
C1369 C1377 1.433 . S
C1370 H1366 0.929 . S
C1370 C1372 1.378 . S
C1370 C1374 1.350 . S
C1371 C1374 1.463 . S
C1371 C1376 1.350 . S
C1371 N1379 1.427 . S
C1372 H1363 0.930 . S
C1372 C1370 1.378 . S
C1372 C1373 1.367 . S
C1373 C1372 1.367 . S
C1373 C1375 1.433 . S
C1374 C1370 1.350 . S
C1374 C1371 1.463 . S
C1374 N1378 1.427 . S
C1375 H1365 0.929 . S
C1375 C1373 1.433 . S
C1375 N1378 1.384 . S
C1376 H1367 0.929 . S
C1376 C1368 1.378 . S
C1376 C1371 1.350 . S
C1377 H1364 0.929 . S
C1377 C1369 1.433 . S
C1377 N1379 1.384 . S
N1378 C1374 1.427 . S
N1378 C1375 1.384 . S
N1379 C1371 1.427 . S
N1379 C1377 1.384 . S
H1380 C1386 0.930 . S
H1381 C1390 0.930 . S
H1382 C1395 0.929 . S
H1383 C1393 0.929 . S
H1384 C1388 0.929 . S
H1385 C1394 0.929 . S
C1386 H1380 0.930 . S
C1386 C1387 1.367 . S
C1386 C1394 1.378 . S
C1387 C1386 1.367 . S
C1387 C1395 1.433 . S
C1388 H1384 0.929 . S
C1388 C1390 1.378 . S
C1388 C1392 1.350 . S
C1389 C1392 1.463 . S
C1389 C1394 1.350 . S
C1389 N1397 1.427 . S
C1390 H1381 0.930 . S
C1390 C1388 1.378 . S
C1390 C1391 1.367 . S
C1391 C1390 1.367 . S
C1391 C1393 1.433 . S
C1392 C1388 1.350 . S
C1392 C1389 1.463 . S
C1392 N1396 1.427 . S
C1393 H1383 0.929 . S
C1393 C1391 1.433 . S
C1393 N1396 1.384 . S
C1394 H1385 0.929 . S
C1394 C1386 1.378 . S
C1394 C1389 1.350 . S
C1395 H1382 0.929 . S
C1395 C1387 1.433 . S
C1395 N1397 1.384 . S
N1396 C1392 1.427 . S
N1396 C1393 1.384 . S
N1397 C1389 1.427 . S
N1397 C1395 1.384 . S
H1398 C1404 0.930 . S
H1399 C1408 0.930 . S
H1400 C1413 0.929 . S
H1401 C1411 0.929 . S
H1402 C1406 0.929 . S
H1403 C1412 0.929 . S
C1404 H1398 0.930 . S
C1404 C1405 1.367 . S
C1404 C1412 1.378 . S
C1405 C1404 1.367 . S
C1405 C1413 1.433 . S
C1406 H1402 0.929 . S
C1406 C1408 1.378 . S
C1406 C1410 1.350 . S
C1407 C1410 1.463 . S
C1407 C1412 1.350 . S
C1407 N1415 1.427 . S
C1408 H1399 0.930 . S
C1408 C1406 1.378 . S
C1408 C1409 1.367 . S
C1409 C1408 1.367 . S
C1409 C1411 1.433 . S
C1410 C1406 1.350 . S
C1410 C1407 1.463 . S
C1410 N1414 1.427 . S
C1411 H1401 0.929 . S
C1411 C1409 1.433 . S
C1411 N1414 1.384 . S
C1412 H1403 0.929 . S
C1412 C1404 1.378 . S
C1412 C1407 1.350 . S
C1413 H1400 0.929 . S
C1413 C1405 1.433 . S
C1413 N1415 1.384 . S
N1414 C1410 1.427 . S
N1414 C1411 1.384 . S
N1415 C1407 1.427 . S
N1415 C1413 1.384 . S
H1416 C1422 0.930 . S
H1417 C1426 0.930 . S
H1418 C1431 0.929 . S
H1419 C1429 0.929 . S
H1420 C1424 0.929 . S
H1421 C1430 0.929 . S
C1422 H1416 0.930 . S
C1422 C1423 1.367 . S
C1422 C1430 1.378 . S
C1423 C1422 1.367 . S
C1423 C1431 1.433 . S
C1424 H1420 0.929 . S
C1424 C1426 1.378 . S
C1424 C1428 1.350 . S
C1425 C1428 1.463 . S
C1425 C1430 1.350 . S
C1425 N1433 1.427 . S
C1426 H1417 0.930 . S
C1426 C1424 1.378 . S
C1426 C1427 1.367 . S
C1427 C1426 1.367 . S
C1427 C1429 1.433 . S
C1428 C1424 1.350 . S
C1428 C1425 1.463 . S
C1428 N1432 1.427 . S
C1429 H1419 0.929 . S
C1429 C1427 1.433 . S
C1429 N1432 1.384 . S
C1430 H1421 0.929 . S
C1430 C1422 1.378 . S
C1430 C1425 1.350 . S
C1431 H1418 0.929 . S
C1431 C1423 1.433 . S
C1431 N1433 1.384 . S
N1432 C1428 1.427 . S
N1432 C1429 1.384 . S
N1433 C1425 1.427 . S
N1433 C1431 1.384 . S
H1434 C1440 0.930 . S
H1435 C1444 0.930 . S
H1436 C1449 0.929 . S
H1437 C1447 0.929 . S
H1438 C1442 0.929 . S
H1439 C1448 0.929 . S
C1440 H1434 0.930 . S
C1440 C1441 1.367 . S
C1440 C1448 1.378 . S
C1441 C1440 1.367 . S
C1441 C1449 1.433 . S
C1442 H1438 0.929 . S
C1442 C1444 1.378 . S
C1442 C1446 1.350 . S
C1443 C1446 1.463 . S
C1443 C1448 1.350 . S
C1443 N1451 1.427 . S
C1444 H1435 0.930 . S
C1444 C1442 1.378 . S
C1444 C1445 1.367 . S
C1445 C1444 1.367 . S
C1445 C1447 1.433 . S
C1446 C1442 1.350 . S
C1446 C1443 1.463 . S
C1446 N1450 1.427 . S
C1447 H1437 0.929 . S
C1447 C1445 1.433 . S
C1447 N1450 1.384 . S
C1448 H1439 0.929 . S
C1448 C1440 1.378 . S
C1448 C1443 1.350 . S
C1449 H1436 0.929 . S
C1449 C1441 1.433 . S
C1449 N1451 1.384 . S
N1450 C1446 1.427 . S
N1450 C1447 1.384 . S
N1451 C1443 1.427 . S
N1451 C1449 1.384 . S
H1452 C1458 0.930 . S
H1453 C1462 0.930 . S
H1454 C1467 0.929 . S
H1455 C1465 0.929 . S
H1456 C1460 0.929 . S
H1457 C1466 0.929 . S
C1458 H1452 0.930 . S
C1458 C1459 1.367 . S
C1458 C1466 1.378 . S
C1459 C1458 1.367 . S
C1459 C1467 1.433 . S
C1460 H1456 0.929 . S
C1460 C1462 1.378 . S
C1460 C1464 1.350 . S
C1461 C1464 1.463 . S
C1461 C1466 1.350 . S
C1461 N1469 1.427 . S
C1462 H1453 0.930 . S
C1462 C1460 1.378 . S
C1462 C1463 1.367 . S
C1463 C1462 1.367 . S
C1463 C1465 1.433 . S
C1464 C1460 1.350 . S
C1464 C1461 1.463 . S
C1464 N1468 1.427 . S
C1465 H1455 0.929 . S
C1465 C1463 1.433 . S
C1465 N1468 1.384 . S
C1466 H1457 0.929 . S
C1466 C1458 1.378 . S
C1466 C1461 1.350 . S
C1467 H1454 0.929 . S
C1467 C1459 1.433 . S
C1467 N1469 1.384 . S
N1468 C1464 1.427 . S
N1468 C1465 1.384 . S
N1469 C1461 1.427 . S
N1469 C1467 1.384 . S
H1470 C1476 0.930 . S
H1471 C1480 0.930 . S
H1472 C1485 0.929 . S
H1473 C1483 0.929 . S
H1474 C1478 0.929 . S
H1475 C1484 0.929 . S
C1476 H1470 0.930 . S
C1476 C1477 1.367 . S
C1476 C1484 1.378 . S
C1477 C1476 1.367 . S
C1477 C1485 1.433 . S
C1478 H1474 0.929 . S
C1478 C1480 1.378 . S
C1478 C1482 1.350 . S
C1479 C1482 1.463 . S
C1479 C1484 1.350 . S
C1479 N1487 1.427 . S
C1480 H1471 0.930 . S
C1480 C1478 1.378 . S
C1480 C1481 1.367 . S
C1481 C1480 1.367 . S
C1481 C1483 1.433 . S
C1482 C1478 1.350 . S
C1482 C1479 1.463 . S
C1482 N1486 1.427 . S
C1483 H1473 0.929 . S
C1483 C1481 1.433 . S
C1483 N1486 1.384 . S
C1484 H1475 0.929 . S
C1484 C1476 1.378 . S
C1484 C1479 1.350 . S
C1485 H1472 0.929 . S
C1485 C1477 1.433 . S
C1485 N1487 1.384 . S
N1486 C1482 1.427 . S
N1486 C1483 1.384 . S
N1487 C1479 1.427 . S
N1487 C1485 1.384 . S
H1488 C1494 0.930 . S
H1489 C1498 0.930 . S
H1490 C1503 0.929 . S
H1491 C1501 0.929 . S
H1492 C1496 0.929 . S
H1493 C1502 0.929 . S
C1494 H1488 0.930 . S
C1494 C1495 1.367 . S
C1494 C1502 1.378 . S
C1495 C1494 1.367 . S
C1495 C1503 1.433 . S
C1496 H1492 0.929 . S
C1496 C1498 1.378 . S
C1496 C1500 1.350 . S
C1497 C1500 1.463 1_565 S
C1497 C1502 1.350 . S
C1497 N1505 1.427 . S
C1498 H1489 0.930 . S
C1498 C1496 1.378 . S
C1498 C1499 1.367 . S
C1499 C1498 1.367 . S
C1499 C1501 1.433 . S
C1500 C1496 1.350 . S
C1500 C1497 1.463 1_545 S
C1500 N1504 1.427 . S
C1501 H1491 0.929 . S
C1501 C1499 1.433 . S
C1501 N1504 1.384 . S
C1502 H1493 0.929 . S
C1502 C1494 1.378 . S
C1502 C1497 1.350 . S
C1503 H1490 0.929 . S
C1503 C1495 1.433 . S
C1503 N1505 1.384 . S
N1504 C1500 1.427 . S
N1504 C1501 1.384 . S
N1505 C1497 1.427 . S
N1505 C1503 1.384 . S
H1506 C1512 0.930 . S
H1507 C1516 0.930 . S
H1508 C1521 0.929 . S
H1509 C1519 0.929 . S
H1510 C1514 0.929 . S
H1511 C1520 0.929 . S
C1512 H1506 0.930 . S
C1512 C1513 1.367 . S
C1512 C1520 1.378 1_545 S
C1513 C1512 1.367 . S
C1513 C1521 1.433 . S
C1514 H1510 0.929 . S
C1514 C1516 1.378 1_545 S
C1514 C1518 1.350 1_545 S
C1515 C1518 1.463 1_545 S
C1515 C1520 1.350 1_545 S
C1515 N1523 1.427 . S
C1516 H1507 0.930 . S
C1516 C1514 1.378 1_565 S
C1516 C1517 1.367 . S
C1517 C1516 1.367 . S
C1517 C1519 1.433 . S
C1518 C1514 1.350 1_565 S
C1518 C1515 1.463 1_565 S
C1518 N1522 1.427 . S
C1519 H1509 0.929 . S
C1519 C1517 1.433 . S
C1519 N1522 1.384 . S
C1520 H1511 0.929 . S
C1520 C1512 1.378 1_565 S
C1520 C1515 1.350 1_565 S
C1521 H1508 0.929 . S
C1521 C1513 1.433 . S
C1521 N1523 1.384 . S
N1522 C1518 1.427 . S
N1522 C1519 1.384 . S
N1523 C1515 1.427 . S
N1523 C1521 1.384 . S
H1524 C1530 0.930 . S
H1525 C1534 0.930 . S
H1526 C1539 0.929 . S
H1527 C1537 0.929 . S
H1528 C1532 0.929 . S
H1529 C1538 0.929 . S
C1530 H1524 0.930 . S
C1530 C1531 1.367 . S
C1530 C1538 1.378 . S
C1531 C1530 1.367 . S
C1531 C1539 1.433 . S
C1532 H1528 0.929 . S
C1532 C1534 1.378 . S
C1532 C1536 1.350 . S
C1533 C1536 1.463 1_545 S
C1533 C1538 1.350 . S
C1533 N1541 1.427 . S
C1534 H1525 0.930 . S
C1534 C1532 1.378 . S
C1534 C1535 1.367 . S
C1535 C1534 1.367 . S
C1535 C1537 1.433 . S
C1536 C1532 1.350 . S
C1536 C1533 1.463 1_565 S
C1536 N1540 1.427 . S
C1537 H1527 0.929 . S
C1537 C1535 1.433 . S
C1537 N1540 1.384 . S
C1538 H1529 0.929 . S
C1538 C1530 1.378 . S
C1538 C1533 1.350 . S
C1539 H1526 0.929 . S
C1539 C1531 1.433 . S
C1539 N1541 1.384 . S
N1540 C1536 1.427 . S
N1540 C1537 1.384 . S
N1541 C1533 1.427 . S
N1541 C1539 1.384 . S
H1542 C1548 0.930 . S
H1543 C1552 0.930 . S
H1544 C1557 0.929 . S
H1545 C1555 0.929 . S
H1546 C1550 0.929 . S
H1547 C1556 0.929 . S
C1548 H1542 0.930 . S
C1548 C1549 1.367 . S
C1548 C1556 1.378 . S
C1549 C1548 1.367 . S
C1549 C1557 1.433 . S
C1550 H1546 0.929 . S
C1550 C1552 1.378 . S
C1550 C1554 1.350 . S
C1551 C1554 1.463 1_545 S
C1551 C1556 1.350 . S
C1551 N1559 1.427 . S
C1552 H1543 0.930 . S
C1552 C1550 1.378 . S
C1552 C1553 1.367 . S
C1553 C1552 1.367 . S
C1553 C1555 1.433 . S
C1554 C1550 1.350 . S
C1554 C1551 1.463 1_565 S
C1554 N1558 1.427 . S
C1555 H1545 0.929 . S
C1555 C1553 1.433 . S
C1555 N1558 1.384 . S
C1556 H1547 0.929 . S
C1556 C1548 1.378 . S
C1556 C1551 1.350 . S
C1557 H1544 0.929 . S
C1557 C1549 1.433 . S
C1557 N1559 1.384 . S
N1558 C1554 1.427 . S
N1558 C1555 1.384 . S
N1559 C1551 1.427 . S
N1559 C1557 1.384 . S
H1560 C1566 0.930 . S
H1561 C1570 0.930 . S
H1562 C1575 0.929 . S
H1563 C1573 0.929 . S
H1564 C1568 0.929 . S
H1565 C1574 0.929 . S
C1566 H1560 0.930 . S
C1566 C1567 1.367 . S
C1566 C1574 1.378 . S
C1567 C1566 1.367 . S
C1567 C1575 1.433 . S
C1568 H1564 0.929 . S
C1568 C1570 1.378 . S
C1568 C1572 1.350 . S
C1569 C1572 1.463 . S
C1569 C1574 1.350 . S
C1569 N1577 1.427 . S
C1570 H1561 0.930 . S
C1570 C1568 1.378 . S
C1570 C1571 1.367 . S
C1571 C1570 1.367 . S
C1571 C1573 1.433 . S
C1572 C1568 1.350 . S
C1572 C1569 1.463 . S
C1572 N1576 1.427 . S
C1573 H1563 0.929 . S
C1573 C1571 1.433 . S
C1573 N1576 1.384 . S
C1574 H1565 0.929 . S
C1574 C1566 1.378 . S
C1574 C1569 1.350 . S
C1575 H1562 0.929 . S
C1575 C1567 1.433 . S
C1575 N1577 1.384 . S
N1576 C1572 1.427 . S
N1576 C1573 1.384 . S
N1577 C1569 1.427 . S
N1577 C1575 1.384 . S
H1578 C1584 0.930 . S
H1579 C1588 0.930 . S
H1580 C1593 0.929 . S
H1581 C1591 0.929 . S
H1582 C1586 0.929 . S
H1583 C1592 0.929 . S
C1584 H1578 0.930 . S
C1584 C1585 1.367 . S
C1584 C1592 1.378 . S
C1585 C1584 1.367 . S
C1585 C1593 1.433 . S
C1586 H1582 0.929 . S
C1586 C1588 1.378 . S
C1586 C1590 1.350 . S
C1587 C1590 1.463 . S
C1587 C1592 1.350 . S
C1587 N1595 1.427 . S
C1588 H1579 0.930 . S
C1588 C1586 1.378 . S
C1588 C1589 1.367 . S
C1589 C1588 1.367 . S
C1589 C1591 1.433 . S
C1590 C1586 1.350 . S
C1590 C1587 1.463 . S
C1590 N1594 1.427 . S
C1591 H1581 0.929 . S
C1591 C1589 1.433 . S
C1591 N1594 1.384 . S
C1592 H1583 0.929 . S
C1592 C1584 1.378 . S
C1592 C1587 1.350 . S
C1593 H1580 0.929 . S
C1593 C1585 1.433 . S
C1593 N1595 1.384 . S
N1594 C1590 1.427 . S
N1594 C1591 1.384 . S
N1595 C1587 1.427 . S
N1595 C1593 1.384 . S
H1596 C1602 0.930 . S
H1597 C1606 0.930 . S
H1598 C1611 0.929 . S
H1599 C1609 0.929 . S
H1600 C1604 0.929 . S
H1601 C1610 0.929 . S
C1602 H1596 0.930 . S
C1602 C1603 1.367 . S
C1602 C1610 1.378 . S
C1603 C1602 1.367 . S
C1603 C1611 1.433 . S
C1604 H1600 0.929 . S
C1604 C1606 1.378 . S
C1604 C1608 1.350 . S
C1605 C1608 1.463 . S
C1605 C1610 1.350 . S
C1605 N1613 1.427 . S
C1606 H1597 0.930 . S
C1606 C1604 1.378 . S
C1606 C1607 1.367 . S
C1607 C1606 1.367 . S
C1607 C1609 1.433 . S
C1608 C1604 1.350 . S
C1608 C1605 1.463 . S
C1608 N1612 1.427 . S
C1609 H1599 0.929 . S
C1609 C1607 1.433 . S
C1609 N1612 1.384 . S
C1610 H1601 0.929 . S
C1610 C1602 1.378 . S
C1610 C1605 1.350 . S
C1611 H1598 0.929 . S
C1611 C1603 1.433 . S
C1611 N1613 1.384 . S
N1612 C1608 1.427 . S
N1612 C1609 1.384 . S
N1613 C1605 1.427 . S
N1613 C1611 1.384 . S
H1614 C1620 0.930 . S
H1615 C1624 0.930 . S
H1616 C1629 0.929 . S
H1617 C1627 0.929 . S
H1618 C1622 0.929 . S
H1619 C1628 0.929 . S
C1620 H1614 0.930 . S
C1620 C1621 1.367 . S
C1620 C1628 1.378 . S
C1621 C1620 1.367 . S
C1621 C1629 1.433 . S
C1622 H1618 0.929 . S
C1622 C1624 1.378 . S
C1622 C1626 1.350 . S
C1623 C1626 1.463 . S
C1623 C1628 1.350 . S
C1623 N1631 1.427 . S
C1624 H1615 0.930 . S
C1624 C1622 1.378 . S
C1624 C1625 1.367 . S
C1625 C1624 1.367 . S
C1625 C1627 1.433 . S
C1626 C1622 1.350 . S
C1626 C1623 1.463 . S
C1626 N1630 1.427 . S
C1627 H1617 0.929 . S
C1627 C1625 1.433 . S
C1627 N1630 1.384 . S
C1628 H1619 0.929 . S
C1628 C1620 1.378 . S
C1628 C1623 1.350 . S
C1629 H1616 0.929 . S
C1629 C1621 1.433 . S
C1629 N1631 1.384 . S
N1630 C1626 1.427 . S
N1630 C1627 1.384 . S
N1631 C1623 1.427 . S
N1631 C1629 1.384 . S
H1632 C1638 0.930 . S
H1633 C1642 0.930 . S
H1634 C1647 0.929 . S
H1635 C1645 0.929 . S
H1636 C1640 0.929 . S
H1637 C1646 0.929 . S
C1638 H1632 0.930 . S
C1638 C1639 1.367 . S
C1638 C1646 1.378 . S
C1639 C1638 1.367 . S
C1639 C1647 1.433 . S
C1640 H1636 0.929 . S
C1640 C1642 1.378 . S
C1640 C1644 1.350 . S
C1641 C1644 1.463 1_556 S
C1641 C1646 1.350 . S
C1641 N1649 1.427 . S
C1642 H1633 0.930 . S
C1642 C1640 1.378 . S
C1642 C1643 1.367 . S
C1643 C1642 1.367 . S
C1643 C1645 1.433 . S
C1644 C1640 1.350 . S
C1644 C1641 1.463 1_554 S
C1644 N1648 1.427 . S
C1645 H1635 0.929 . S
C1645 C1643 1.433 . S
C1645 N1648 1.384 . S
C1646 H1637 0.929 . S
C1646 C1638 1.378 . S
C1646 C1641 1.350 . S
C1647 H1634 0.929 . S
C1647 C1639 1.433 . S
C1647 N1649 1.384 . S
N1648 C1644 1.427 . S
N1648 C1645 1.384 . S
N1649 C1641 1.427 . S
N1649 C1647 1.384 . S
H1650 C1656 0.930 . S
H1651 C1660 0.930 . S
H1652 C1665 0.929 . S
H1653 C1663 0.929 . S
H1654 C1658 0.929 . S
H1655 C1664 0.929 . S
C1656 H1650 0.930 . S
C1656 C1657 1.367 . S
C1656 C1664 1.378 . S
C1657 C1656 1.367 . S
C1657 C1665 1.433 . S
C1658 H1654 0.929 . S
C1658 C1660 1.378 . S
C1658 C1662 1.350 . S
C1659 C1662 1.463 1_556 S
C1659 C1664 1.350 . S
C1659 N1667 1.427 . S
C1660 H1651 0.930 . S
C1660 C1658 1.378 . S
C1660 C1661 1.367 . S
C1661 C1660 1.367 . S
C1661 C1663 1.433 . S
C1662 C1658 1.350 . S
C1662 C1659 1.463 1_554 S
C1662 N1666 1.427 . S
C1663 H1653 0.929 . S
C1663 C1661 1.433 . S
C1663 N1666 1.384 . S
C1664 H1655 0.929 . S
C1664 C1656 1.378 . S
C1664 C1659 1.350 . S
C1665 H1652 0.929 . S
C1665 C1657 1.433 . S
C1665 N1667 1.384 . S
N1666 C1662 1.427 . S
N1666 C1663 1.384 . S
N1667 C1659 1.427 . S
N1667 C1665 1.384 . S
H1668 C1674 0.930 . S
H1669 C1678 0.930 . S
H1670 C1683 0.929 . S
H1671 C1681 0.929 . S
H1672 C1676 0.929 . S
H1673 C1682 0.929 . S
C1674 H1668 0.930 . S
C1674 C1675 1.367 . S
C1674 C1682 1.378 . S
C1675 C1674 1.367 . S
C1675 C1683 1.433 . S
C1676 H1672 0.929 . S
C1676 C1678 1.378 . S
C1676 C1680 1.350 . S
C1677 C1680 1.463 . S
C1677 C1682 1.350 . S
C1677 N1685 1.427 . S
C1678 H1669 0.930 . S
C1678 C1676 1.378 . S
C1678 C1679 1.367 . S
C1679 C1678 1.367 . S
C1679 C1681 1.433 . S
C1680 C1676 1.350 . S
C1680 C1677 1.463 . S
C1680 N1684 1.427 . S
C1681 H1671 0.929 . S
C1681 C1679 1.433 . S
C1681 N1684 1.384 . S
C1682 H1673 0.929 . S
C1682 C1674 1.378 . S
C1682 C1677 1.350 . S
C1683 H1670 0.929 . S
C1683 C1675 1.433 . S
C1683 N1685 1.384 . S
N1684 C1680 1.427 . S
N1684 C1681 1.384 . S
N1685 C1677 1.427 . S
N1685 C1683 1.384 . S
H1686 C1692 0.930 . S
H1687 C1696 0.930 . S
H1688 C1701 0.929 . S
H1689 C1699 0.929 . S
H1690 C1694 0.929 . S
H1691 C1700 0.929 . S
C1692 H1686 0.930 . S
C1692 C1693 1.367 . S
C1692 C1700 1.378 . S
C1693 C1692 1.367 . S
C1693 C1701 1.433 . S
C1694 H1690 0.929 . S
C1694 C1696 1.378 . S
C1694 C1698 1.350 . S
C1695 C1698 1.463 . S
C1695 C1700 1.350 . S
C1695 N1703 1.427 . S
C1696 H1687 0.930 . S
C1696 C1694 1.378 . S
C1696 C1697 1.367 . S
C1697 C1696 1.367 . S
C1697 C1699 1.433 . S
C1698 C1694 1.350 . S
C1698 C1695 1.463 . S
C1698 N1702 1.427 . S
C1699 H1689 0.929 . S
C1699 C1697 1.433 . S
C1699 N1702 1.384 . S
C1700 H1691 0.929 . S
C1700 C1692 1.378 . S
C1700 C1695 1.350 . S
C1701 H1688 0.929 . S
C1701 C1693 1.433 . S
C1701 N1703 1.384 . S
N1702 C1698 1.427 . S
N1702 C1699 1.384 . S
N1703 C1695 1.427 . S
N1703 C1701 1.384 . S
H1704 C1710 0.930 . S
H1705 C1714 0.930 . S
H1706 C1719 0.929 . S
H1707 C1717 0.929 . S
H1708 C1712 0.929 . S
H1709 C1718 0.929 . S
C1710 H1704 0.930 . S
C1710 C1711 1.367 . S
C1710 C1718 1.378 . S
C1711 C1710 1.367 . S
C1711 C1719 1.433 . S
C1712 H1708 0.929 . S
C1712 C1714 1.378 . S
C1712 C1716 1.350 . S
C1713 C1716 1.463 1_554 S
C1713 C1718 1.350 . S
C1713 N1721 1.427 . S
C1714 H1705 0.930 . S
C1714 C1712 1.378 . S
C1714 C1715 1.367 . S
C1715 C1714 1.367 . S
C1715 C1717 1.433 . S
C1716 C1712 1.350 . S
C1716 C1713 1.463 1_556 S
C1716 N1720 1.427 . S
C1717 H1707 0.929 . S
C1717 C1715 1.433 . S
C1717 N1720 1.384 . S
C1718 H1709 0.929 . S
C1718 C1710 1.378 . S
C1718 C1713 1.350 . S
C1719 H1706 0.929 . S
C1719 C1711 1.433 . S
C1719 N1721 1.384 . S
N1720 C1716 1.427 . S
N1720 C1717 1.384 . S
N1721 C1713 1.427 . S
N1721 C1719 1.384 . S
H1722 C1728 0.930 . S
H1723 C1732 0.930 . S
H1724 C1737 0.929 . S
H1725 C1735 0.929 . S
H1726 C1730 0.929 . S
H1727 C1736 0.929 . S
C1728 H1722 0.930 . S
C1728 C1729 1.367 . S
C1728 C1736 1.378 . S
C1729 C1728 1.367 . S
C1729 C1737 1.433 . S
C1730 H1726 0.929 . S
C1730 C1732 1.378 . S
C1730 C1734 1.350 . S
C1731 C1734 1.463 1_556 S
C1731 C1736 1.350 . S
C1731 N1739 1.427 . S
C1732 H1723 0.930 . S
C1732 C1730 1.378 . S
C1732 C1733 1.367 . S
C1733 C1732 1.367 . S
C1733 C1735 1.433 . S
C1734 C1730 1.350 . S
C1734 C1731 1.463 1_554 S
C1734 N1738 1.427 . S
C1735 H1725 0.929 . S
C1735 C1733 1.433 . S
C1735 N1738 1.384 . S
C1736 H1727 0.929 . S
C1736 C1728 1.378 . S
C1736 C1731 1.350 . S
C1737 H1724 0.929 . S
C1737 C1729 1.433 . S
C1737 N1739 1.384 . S
N1738 C1734 1.427 . S
N1738 C1735 1.384 . S
N1739 C1731 1.427 . S
N1739 C1737 1.384 . S
H1740 C1746 0.930 . S
H1741 C1750 0.930 . S
H1742 C1755 0.929 . S
H1743 C1753 0.929 . S
H1744 C1748 0.929 . S
H1745 C1754 0.929 . S
C1746 H1740 0.930 . S
C1746 C1747 1.367 . S
C1746 C1754 1.378 . S
C1747 C1746 1.367 . S
C1747 C1755 1.433 . S
C1748 H1744 0.929 . S
C1748 C1750 1.378 . S
C1748 C1752 1.350 . S
C1749 C1752 1.463 . S
C1749 C1754 1.350 . S
C1749 N1757 1.427 . S
C1750 H1741 0.930 . S
C1750 C1748 1.378 . S
C1750 C1751 1.367 . S
C1751 C1750 1.367 . S
C1751 C1753 1.433 . S
C1752 C1748 1.350 . S
C1752 C1749 1.463 . S
C1752 N1756 1.427 . S
C1753 H1743 0.929 . S
C1753 C1751 1.433 . S
C1753 N1756 1.384 . S
C1754 H1745 0.929 . S
C1754 C1746 1.378 . S
C1754 C1749 1.350 . S
C1755 H1742 0.929 . S
C1755 C1747 1.433 . S
C1755 N1757 1.384 . S
N1756 C1752 1.427 . S
N1756 C1753 1.384 . S
N1757 C1749 1.427 . S
N1757 C1755 1.384 . S
H1758 C1764 0.930 . S
H1759 C1768 0.930 . S
H1760 C1773 0.929 . S
H1761 C1771 0.929 . S
H1762 C1766 0.929 . S
H1763 C1772 0.929 . S
C1764 H1758 0.930 . S
C1764 C1765 1.367 . S
C1764 C1772 1.378 . S
C1765 C1764 1.367 . S
C1765 C1773 1.433 . S
C1766 H1762 0.929 . S
C1766 C1768 1.378 . S
C1766 C1770 1.350 . S
C1767 C1770 1.463 . S
C1767 C1772 1.350 . S
C1767 N1775 1.427 . S
C1768 H1759 0.930 . S
C1768 C1766 1.378 . S
C1768 C1769 1.367 . S
C1769 C1768 1.367 . S
C1769 C1771 1.433 . S
C1770 C1766 1.350 . S
C1770 C1767 1.463 . S
C1770 N1774 1.427 . S
C1771 H1761 0.929 . S
C1771 C1769 1.433 . S
C1771 N1774 1.384 . S
C1772 H1763 0.929 . S
C1772 C1764 1.378 . S
C1772 C1767 1.350 . S
C1773 H1760 0.929 . S
C1773 C1765 1.433 . S
C1773 N1775 1.384 . S
N1774 C1770 1.427 . S
N1774 C1771 1.384 . S
N1775 C1767 1.427 . S
N1775 C1773 1.384 . S
H1776 C1782 0.930 . S
H1777 C1786 0.930 . S
H1778 C1791 0.929 . S
H1779 C1789 0.929 . S
H1780 C1784 0.929 . S
H1781 C1790 0.929 . S
C1782 H1776 0.930 . S
C1782 C1783 1.367 . S
C1782 C1790 1.378 . S
C1783 C1782 1.367 . S
C1783 C1791 1.433 . S
C1784 H1780 0.929 . S
C1784 C1786 1.378 . S
C1784 C1788 1.350 . S
C1785 C1788 1.463 1_665 S
C1785 C1790 1.350 . S
C1785 N1793 1.427 . S
C1786 H1777 0.930 . S
C1786 C1784 1.378 . S
C1786 C1787 1.367 . S
C1787 C1786 1.367 . S
C1787 C1789 1.433 . S
C1788 C1784 1.350 . S
C1788 C1785 1.463 1_445 S
C1788 N1792 1.427 . S
C1789 H1779 0.929 . S
C1789 C1787 1.433 . S
C1789 N1792 1.384 . S
C1790 H1781 0.929 . S
C1790 C1782 1.378 . S
C1790 C1785 1.350 . S
C1791 H1778 0.929 . S
C1791 C1783 1.433 . S
C1791 N1793 1.384 . S
N1792 C1788 1.427 . S
N1792 C1789 1.384 . S
N1793 C1785 1.427 . S
N1793 C1791 1.384 . S
H1794 C1800 0.930 . S
H1795 C1804 0.930 . S
H1796 C1809 0.929 1_565 S
H1797 C1807 0.929 1_545 S
H1798 C1802 0.929 . S
H1799 C1808 0.929 . S
C1800 H1794 0.930 . S
C1800 C1801 1.367 . S
C1800 C1808 1.378 . S
C1801 C1800 1.367 . S
C1801 C1809 1.433 . S
C1802 H1798 0.929 . S
C1802 C1804 1.378 . S
C1802 C1806 1.350 . S
C1803 C1806 1.463 1_645 S
C1803 C1808 1.350 . S
C1803 N1811 1.427 1_545 S
C1804 H1795 0.930 . S
C1804 C1802 1.378 . S
C1804 C1805 1.367 . S
C1805 C1804 1.367 . S
C1805 C1807 1.433 . S
C1806 C1802 1.350 . S
C1806 C1803 1.463 1_465 S
C1806 N1810 1.427 1_565 S
C1807 H1797 0.929 1_565 S
C1807 C1805 1.433 . S
C1807 N1810 1.384 1_565 S
C1808 H1799 0.929 . S
C1808 C1800 1.378 . S
C1808 C1803 1.350 . S
C1809 H1796 0.929 1_545 S
C1809 C1801 1.433 . S
C1809 N1811 1.384 1_545 S
N1810 C1806 1.427 1_545 S
N1810 C1807 1.384 1_545 S
N1811 C1803 1.427 1_565 S
N1811 C1809 1.384 1_565 S
H1812 C1818 0.930 . S
H1813 C1822 0.930 . S
H1814 C1827 0.929 . S
H1815 C1825 0.929 . S
H1816 C1820 0.929 . S
H1817 C1826 0.929 . S
C1818 H1812 0.930 . S
C1818 C1819 1.367 . S
C1818 C1826 1.378 . S
C1819 C1818 1.367 . S
C1819 C1827 1.433 . S
C1820 H1816 0.929 . S
C1820 C1822 1.378 . S
C1820 C1824 1.350 . S
C1821 C1824 1.463 1_445 S
C1821 C1826 1.350 . S
C1821 N1829 1.427 . S
C1822 H1813 0.930 . S
C1822 C1820 1.378 . S
C1822 C1823 1.367 . S
C1823 C1822 1.367 . S
C1823 C1825 1.433 . S
C1824 C1820 1.350 . S
C1824 C1821 1.463 1_665 S
C1824 N1828 1.427 . S
C1825 H1815 0.929 . S
C1825 C1823 1.433 . S
C1825 N1828 1.384 . S
C1826 H1817 0.929 . S
C1826 C1818 1.378 . S
C1826 C1821 1.350 . S
C1827 H1814 0.929 . S
C1827 C1819 1.433 . S
C1827 N1829 1.384 . S
N1828 C1824 1.427 . S
N1828 C1825 1.384 . S
N1829 C1821 1.427 . S
N1829 C1827 1.384 . S
H1830 C1836 0.930 . S
H1831 C1840 0.930 . S
H1832 C1845 0.929 . S
H1833 C1843 0.929 . S
H1834 C1838 0.929 . S
H1835 C1844 0.929 . S
C1836 H1830 0.930 . S
C1836 C1837 1.367 . S
C1836 C1844 1.378 . S
C1837 C1836 1.367 . S
C1837 C1845 1.433 . S
C1838 H1834 0.929 . S
C1838 C1840 1.378 . S
C1838 C1842 1.350 . S
C1839 C1842 1.463 1_645 S
C1839 C1844 1.350 . S
C1839 N1847 1.427 . S
C1840 H1831 0.930 . S
C1840 C1838 1.378 . S
C1840 C1841 1.367 . S
C1841 C1840 1.367 . S
C1841 C1843 1.433 . S
C1842 C1838 1.350 . S
C1842 C1839 1.463 1_465 S
C1842 N1846 1.427 . S
C1843 H1833 0.929 . S
C1843 C1841 1.433 . S
C1843 N1846 1.384 . S
C1844 H1835 0.929 . S
C1844 C1836 1.378 . S
C1844 C1839 1.350 . S
C1845 H1832 0.929 . S
C1845 C1837 1.433 . S
C1845 N1847 1.384 . S
N1846 C1842 1.427 . S
N1846 C1843 1.384 . S
N1847 C1839 1.427 . S
N1847 C1845 1.384 . S
H1848 C1854 0.930 . S
H1849 C1858 0.930 . S
H1850 C1863 0.929 . S
H1851 C1861 0.929 . S
H1852 C1856 0.929 . S
H1853 C1862 0.929 . S
C1854 H1848 0.930 . S
C1854 C1855 1.367 . S
C1854 C1862 1.378 . S
C1855 C1854 1.367 . S
C1855 C1863 1.433 . S
C1856 H1852 0.929 . S
C1856 C1858 1.378 . S
C1856 C1860 1.350 . S
C1857 C1860 1.463 . S
C1857 C1862 1.350 . S
C1857 N1865 1.427 . S
C1858 H1849 0.930 . S
C1858 C1856 1.378 . S
C1858 C1859 1.367 . S
C1859 C1858 1.367 . S
C1859 C1861 1.433 . S
C1860 C1856 1.350 . S
C1860 C1857 1.463 . S
C1860 N1864 1.427 . S
C1861 H1851 0.929 . S
C1861 C1859 1.433 . S
C1861 N1864 1.384 . S
C1862 H1853 0.929 . S
C1862 C1854 1.378 . S
C1862 C1857 1.350 . S
C1863 H1850 0.929 . S
C1863 C1855 1.433 . S
C1863 N1865 1.384 . S
N1864 C1860 1.427 . S
N1864 C1861 1.384 . S
N1865 C1857 1.427 . S
N1865 C1863 1.384 . S
H1866 C1872 0.930 . S
H1867 C1876 0.930 . S
H1868 C1881 0.929 . S
H1869 C1879 0.929 . S
H1870 C1874 0.929 . S
H1871 C1880 0.929 . S
C1872 H1866 0.930 . S
C1872 C1873 1.367 . S
C1872 C1880 1.378 . S
C1873 C1872 1.367 . S
C1873 C1881 1.433 . S
C1874 H1870 0.929 . S
C1874 C1876 1.378 . S
C1874 C1878 1.350 . S
C1875 C1878 1.463 . S
C1875 C1880 1.350 . S
C1875 N1883 1.427 . S
C1876 H1867 0.930 . S
C1876 C1874 1.378 . S
C1876 C1877 1.367 . S
C1877 C1876 1.367 . S
C1877 C1879 1.433 . S
C1878 C1874 1.350 . S
C1878 C1875 1.463 . S
C1878 N1882 1.427 . S
C1879 H1869 0.929 . S
C1879 C1877 1.433 . S
C1879 N1882 1.384 . S
C1880 H1871 0.929 . S
C1880 C1872 1.378 . S
C1880 C1875 1.350 . S
C1881 H1868 0.929 . S
C1881 C1873 1.433 . S
C1881 N1883 1.384 . S
N1882 C1878 1.427 . S
N1882 C1879 1.384 . S
N1883 C1875 1.427 . S
N1883 C1881 1.384 . S
H1884 C1890 0.930 . S
H1885 C1894 0.930 . S
H1886 C1899 0.929 . S
H1887 C1897 0.929 . S
H1888 C1892 0.929 . S
H1889 C1898 0.929 . S
C1890 H1884 0.930 . S
C1890 C1891 1.367 . S
C1890 C1898 1.378 . S
C1891 C1890 1.367 . S
C1891 C1899 1.433 . S
C1892 H1888 0.929 . S
C1892 C1894 1.378 . S
C1892 C1896 1.350 . S
C1893 C1896 1.463 . S
C1893 C1898 1.350 . S
C1893 N1901 1.427 . S
C1894 H1885 0.930 . S
C1894 C1892 1.378 . S
C1894 C1895 1.367 . S
C1895 C1894 1.367 . S
C1895 C1897 1.433 . S
C1896 C1892 1.350 . S
C1896 C1893 1.463 . S
C1896 N1900 1.427 . S
C1897 H1887 0.929 . S
C1897 C1895 1.433 . S
C1897 N1900 1.384 . S
C1898 H1889 0.929 . S
C1898 C1890 1.378 . S
C1898 C1893 1.350 . S
C1899 H1886 0.929 . S
C1899 C1891 1.433 . S
C1899 N1901 1.384 . S
N1900 C1896 1.427 . S
N1900 C1897 1.384 . S
N1901 C1893 1.427 . S
N1901 C1899 1.384 . S
H1902 C1908 0.930 . S
H1903 C1912 0.930 . S
H1904 C1917 0.929 . S
H1905 C1915 0.929 . S
H1906 C1910 0.929 . S
H1907 C1916 0.929 . S
C1908 H1902 0.930 . S
C1908 C1909 1.367 . S
C1908 C1916 1.378 . S
C1909 C1908 1.367 . S
C1909 C1917 1.433 . S
C1910 H1906 0.929 . S
C1910 C1912 1.378 . S
C1910 C1914 1.350 . S
C1911 C1914 1.463 . S
C1911 C1916 1.350 . S
C1911 N1919 1.427 . S
C1912 H1903 0.930 . S
C1912 C1910 1.378 . S
C1912 C1913 1.367 . S
C1913 C1912 1.367 . S
C1913 C1915 1.433 . S
C1914 C1910 1.350 . S
C1914 C1911 1.463 . S
C1914 N1918 1.427 . S
C1915 H1905 0.929 . S
C1915 C1913 1.433 . S
C1915 N1918 1.384 . S
C1916 H1907 0.929 . S
C1916 C1908 1.378 . S
C1916 C1911 1.350 . S
C1917 H1904 0.929 . S
C1917 C1909 1.433 . S
C1917 N1919 1.384 . S
N1918 C1914 1.427 . S
N1918 C1915 1.384 . S
N1919 C1911 1.427 . S
N1919 C1917 1.384 . S
H1920 C1926 0.930 . S
H1921 C1930 0.930 . S
H1922 C1935 0.929 . S
H1923 C1933 0.929 . S
H1924 C1928 0.929 . S
H1925 C1934 0.929 . S
C1926 H1920 0.930 . S
C1926 C1927 1.367 . S
C1926 C1934 1.378 . S
C1927 C1926 1.367 . S
C1927 C1935 1.433 . S
C1928 H1924 0.929 . S
C1928 C1930 1.378 . S
C1928 C1932 1.350 . S
C1929 C1932 1.463 . S
C1929 C1934 1.350 . S
C1929 N1937 1.427 . S
C1930 H1921 0.930 . S
C1930 C1928 1.378 . S
C1930 C1931 1.367 . S
C1931 C1930 1.367 . S
C1931 C1933 1.433 . S
C1932 C1928 1.350 . S
C1932 C1929 1.463 . S
C1932 N1936 1.427 . S
C1933 H1923 0.929 . S
C1933 C1931 1.433 . S
C1933 N1936 1.384 . S
C1934 H1925 0.929 . S
C1934 C1926 1.378 . S
C1934 C1929 1.350 . S
C1935 H1922 0.929 . S
C1935 C1927 1.433 . S
C1935 N1937 1.384 . S
N1936 C1932 1.427 . S
N1936 C1933 1.384 . S
N1937 C1929 1.427 . S
N1937 C1935 1.384 . S
H1938 C1944 0.930 . S
H1939 C1948 0.930 . S
H1940 C1953 0.929 . S
H1941 C1951 0.929 . S
H1942 C1946 0.929 . S
H1943 C1952 0.929 . S
C1944 H1938 0.930 . S
C1944 C1945 1.367 . S
C1944 C1952 1.378 . S
C1945 C1944 1.367 . S
C1945 C1953 1.433 . S
C1946 H1942 0.929 . S
C1946 C1948 1.378 . S
C1946 C1950 1.350 . S
C1947 C1950 1.463 . S
C1947 C1952 1.350 . S
C1947 N1955 1.427 . S
C1948 H1939 0.930 . S
C1948 C1946 1.378 . S
C1948 C1949 1.367 . S
C1949 C1948 1.367 . S
C1949 C1951 1.433 . S
C1950 C1946 1.350 . S
C1950 C1947 1.463 . S
C1950 N1954 1.427 . S
C1951 H1941 0.929 . S
C1951 C1949 1.433 . S
C1951 N1954 1.384 . S
C1952 H1943 0.929 . S
C1952 C1944 1.378 . S
C1952 C1947 1.350 . S
C1953 H1940 0.929 . S
C1953 C1945 1.433 . S
C1953 N1955 1.384 . S
N1954 C1950 1.427 . S
N1954 C1951 1.384 . S
N1955 C1947 1.427 . S
N1955 C1953 1.384 . S
H1956 C1962 0.930 . S
H1957 C1966 0.930 . S
H1958 C1971 0.929 . S
H1959 C1969 0.929 . S
H1960 C1964 0.929 . S
H1961 C1970 0.929 . S
C1962 H1956 0.930 . S
C1962 C1963 1.367 . S
C1962 C1970 1.378 . S
C1963 C1962 1.367 . S
C1963 C1971 1.433 . S
C1964 H1960 0.929 . S
C1964 C1966 1.378 . S
C1964 C1968 1.350 . S
C1965 C1968 1.463 . S
C1965 C1970 1.350 . S
C1965 N1973 1.427 . S
C1966 H1957 0.930 . S
C1966 C1964 1.378 . S
C1966 C1967 1.367 . S
C1967 C1966 1.367 . S
C1967 C1969 1.433 . S
C1968 C1964 1.350 . S
C1968 C1965 1.463 . S
C1968 N1972 1.427 . S
C1969 H1959 0.929 . S
C1969 C1967 1.433 . S
C1969 N1972 1.384 . S
C1970 H1961 0.929 . S
C1970 C1962 1.378 . S
C1970 C1965 1.350 . S
C1971 H1958 0.929 . S
C1971 C1963 1.433 . S
C1971 N1973 1.384 . S
N1972 C1968 1.427 . S
N1972 C1969 1.384 . S
N1973 C1965 1.427 . S
N1973 C1971 1.384 . S
H1974 C1980 0.930 . S
H1975 C1984 0.930 . S
H1976 C1989 0.929 . S
H1977 C1987 0.929 . S
H1978 C1982 0.929 . S
H1979 C1988 0.929 . S
C1980 H1974 0.930 . S
C1980 C1981 1.367 . S
C1980 C1988 1.378 . S
C1981 C1980 1.367 . S
C1981 C1989 1.433 . S
C1982 H1978 0.929 . S
C1982 C1984 1.378 . S
C1982 C1986 1.350 . S
C1983 C1986 1.463 . S
C1983 C1988 1.350 . S
C1983 N1991 1.427 . S
C1984 H1975 0.930 . S
C1984 C1982 1.378 . S
C1984 C1985 1.367 . S
C1985 C1984 1.367 . S
C1985 C1987 1.433 . S
C1986 C1982 1.350 . S
C1986 C1983 1.463 . S
C1986 N1990 1.427 . S
C1987 H1977 0.929 . S
C1987 C1985 1.433 . S
C1987 N1990 1.384 . S
C1988 H1979 0.929 . S
C1988 C1980 1.378 . S
C1988 C1983 1.350 . S
C1989 H1976 0.929 . S
C1989 C1981 1.433 . S
C1989 N1991 1.384 . S
N1990 C1986 1.427 . S
N1990 C1987 1.384 . S
N1991 C1983 1.427 . S
N1991 C1989 1.384 . S
H1992 C1998 0.930 . S
H1993 C2002 0.930 . S
H1994 C2007 0.929 . S
H1995 C2005 0.929 . S
H1996 C2000 0.929 . S
H1997 C2006 0.929 . S
C1998 H1992 0.930 . S
C1998 C1999 1.367 . S
C1998 C2006 1.378 . S
C1999 C1998 1.367 . S
C1999 C2007 1.433 . S
C2000 H1996 0.929 . S
C2000 C2002 1.378 . S
C2000 C2004 1.350 . S
C2001 C2004 1.463 . S
C2001 C2006 1.350 . S
C2001 N2009 1.427 . S
C2002 H1993 0.930 . S
C2002 C2000 1.378 . S
C2002 C2003 1.367 . S
C2003 C2002 1.367 . S
C2003 C2005 1.433 . S
C2004 C2000 1.350 . S
C2004 C2001 1.463 . S
C2004 N2008 1.427 . S
C2005 H1995 0.929 . S
C2005 C2003 1.433 . S
C2005 N2008 1.384 . S
C2006 H1997 0.929 . S
C2006 C1998 1.378 . S
C2006 C2001 1.350 . S
C2007 H1994 0.929 . S
C2007 C1999 1.433 . S
C2007 N2009 1.384 . S
N2008 C2004 1.427 . S
N2008 C2005 1.384 . S
N2009 C2001 1.427 . S
N2009 C2007 1.384 . S
H2010 C2016 0.930 . S
H2011 C2020 0.930 . S
H2012 C2025 0.929 . S
H2013 C2023 0.929 . S
H2014 C2018 0.929 . S
H2015 C2024 0.929 . S
C2016 H2010 0.930 . S
C2016 C2017 1.367 . S
C2016 C2024 1.378 . S
C2017 C2016 1.367 . S
C2017 C2025 1.433 . S
C2018 H2014 0.929 . S
C2018 C2020 1.378 . S
C2018 C2022 1.350 . S
C2019 C2022 1.463 . S
C2019 C2024 1.350 . S
C2019 N2027 1.427 . S
C2020 H2011 0.930 . S
C2020 C2018 1.378 . S
C2020 C2021 1.367 . S
C2021 C2020 1.367 . S
C2021 C2023 1.433 . S
C2022 C2018 1.350 . S
C2022 C2019 1.463 . S
C2022 N2026 1.427 . S
C2023 H2013 0.929 . S
C2023 C2021 1.433 . S
C2023 N2026 1.384 . S
C2024 H2015 0.929 . S
C2024 C2016 1.378 . S
C2024 C2019 1.350 . S
C2025 H2012 0.929 . S
C2025 C2017 1.433 . S
C2025 N2027 1.384 . S
N2026 C2022 1.427 . S
N2026 C2023 1.384 . S
N2027 C2019 1.427 . S
N2027 C2025 1.384 . S
H2028 C2034 0.930 . S
H2029 C2038 0.930 . S
H2030 C2043 0.929 . S
H2031 C2041 0.929 . S
H2032 C2036 0.929 . S
H2033 C2042 0.929 . S
C2034 H2028 0.930 . S
C2034 C2035 1.367 . S
C2034 C2042 1.378 . S
C2035 C2034 1.367 . S
C2035 C2043 1.433 . S
C2036 H2032 0.929 . S
C2036 C2038 1.378 . S
C2036 C2040 1.350 . S
C2037 C2040 1.463 . S
C2037 C2042 1.350 . S
C2037 N2045 1.427 . S
C2038 H2029 0.930 . S
C2038 C2036 1.378 . S
C2038 C2039 1.367 . S
C2039 C2038 1.367 . S
C2039 C2041 1.433 . S
C2040 C2036 1.350 . S
C2040 C2037 1.463 . S
C2040 N2044 1.427 . S
C2041 H2031 0.929 . S
C2041 C2039 1.433 . S
C2041 N2044 1.384 . S
C2042 H2033 0.929 . S
C2042 C2034 1.378 . S
C2042 C2037 1.350 . S
C2043 H2030 0.929 . S
C2043 C2035 1.433 . S
C2043 N2045 1.384 . S
N2044 C2040 1.427 . S
N2044 C2041 1.384 . S
N2045 C2037 1.427 . S
N2045 C2043 1.384 . S
H2046 C2052 0.930 . S
H2047 C2056 0.930 . S
H2048 C2061 0.929 . S
H2049 C2059 0.929 . S
H2050 C2054 0.929 . S
H2051 C2060 0.929 . S
C2052 H2046 0.930 . S
C2052 C2053 1.367 . S
C2052 C2060 1.378 . S
C2053 C2052 1.367 . S
C2053 C2061 1.433 . S
C2054 H2050 0.929 . S
C2054 C2056 1.378 . S
C2054 C2058 1.350 . S
C2055 C2058 1.463 . S
C2055 C2060 1.350 . S
C2055 N2063 1.427 . S
C2056 H2047 0.930 . S
C2056 C2054 1.378 . S
C2056 C2057 1.367 . S
C2057 C2056 1.367 . S
C2057 C2059 1.433 . S
C2058 C2054 1.350 . S
C2058 C2055 1.463 . S
C2058 N2062 1.427 . S
C2059 H2049 0.929 . S
C2059 C2057 1.433 . S
C2059 N2062 1.384 . S
C2060 H2051 0.929 . S
C2060 C2052 1.378 . S
C2060 C2055 1.350 . S
C2061 H2048 0.929 . S
C2061 C2053 1.433 . S
C2061 N2063 1.384 . S
N2062 C2058 1.427 . S
N2062 C2059 1.384 . S
N2063 C2055 1.427 . S
N2063 C2061 1.384 . S
H2064 C2070 0.930 1_565 S
H2065 C2074 0.930 . S
H2066 C2079 0.929 . S
H2067 C2077 0.929 . S
H2068 C2072 0.929 . S
H2069 C2078 0.929 . S
C2070 H2064 0.930 1_545 S
C2070 C2071 1.367 1_545 S
C2070 C2078 1.378 . S
C2071 C2070 1.367 1_565 S
C2071 C2079 1.433 1_565 S
C2072 H2068 0.929 . S
C2072 C2074 1.378 . S
C2072 C2076 1.350 . S
C2073 C2076 1.463 . S
C2073 C2078 1.350 . S
C2073 N2081 1.427 . S
C2074 H2065 0.930 . S
C2074 C2072 1.378 . S
C2074 C2075 1.367 . S
C2075 C2074 1.367 . S
C2075 C2077 1.433 . S
C2076 C2072 1.350 . S
C2076 C2073 1.463 . S
C2076 N2080 1.427 . S
C2077 H2067 0.929 . S
C2077 C2075 1.433 . S
C2077 N2080 1.384 . S
C2078 H2069 0.929 . S
C2078 C2070 1.378 . S
C2078 C2073 1.350 . S
C2079 H2066 0.929 . S
C2079 C2071 1.433 1_545 S
C2079 N2081 1.384 . S
N2080 C2076 1.427 . S
N2080 C2077 1.384 . S
N2081 C2073 1.427 . S
N2081 C2079 1.384 . S
H2082 C2088 0.930 . S
H2083 C2092 0.930 1_545 S
H2084 C2097 0.929 . S
H2085 C2095 0.929 . S
H2086 C2090 0.929 . S
H2087 C2096 0.929 . S
C2088 H2082 0.930 . S
C2088 C2089 1.367 . S
C2088 C2096 1.378 . S
C2089 C2088 1.367 . S
C2089 C2097 1.433 . S
C2090 H2086 0.929 . S
C2090 C2092 1.378 . S
C2090 C2094 1.350 . S
C2091 C2094 1.463 . S
C2091 C2096 1.350 . S
C2091 N2099 1.427 . S
C2092 H2083 0.930 1_565 S
C2092 C2090 1.378 . S
C2092 C2093 1.367 1_565 S
C2093 C2092 1.367 1_545 S
C2093 C2095 1.433 1_545 S
C2094 C2090 1.350 . S
C2094 C2091 1.463 . S
C2094 N2098 1.427 . S
C2095 H2085 0.929 . S
C2095 C2093 1.433 1_565 S
C2095 N2098 1.384 . S
C2096 H2087 0.929 . S
C2096 C2088 1.378 . S
C2096 C2091 1.350 . S
C2097 H2084 0.929 . S
C2097 C2089 1.433 . S
C2097 N2099 1.384 . S
N2098 C2094 1.427 . S
N2098 C2095 1.384 . S
N2099 C2091 1.427 . S
N2099 C2097 1.384 . S
H2100 C2106 0.930 . S
H2101 C2110 0.930 . S
H2102 C2115 0.939 . S
H2103 C2113 0.929 . S
H2104 C2108 0.929 . S
H2105 C2114 0.929 . S
C2106 H2100 0.930 . S
C2106 C2107 1.367 1_565 S
C2106 C2114 1.378 . S
C2107 C2106 1.367 1_545 S
C2107 C2115 1.433 1_545 S
C2108 H2104 0.929 . S
C2108 C2110 1.378 . S
C2108 C2112 1.350 . S
C2109 C2112 1.463 . S
C2109 C2114 1.350 . S
C2109 N2117 1.427 . S
C2110 H2101 0.930 . S
C2110 C2108 1.378 . S
C2110 C2111 1.367 . S
C2111 C2110 1.367 . S
C2111 C2113 1.433 . S
C2112 C2108 1.350 . S
C2112 C2109 1.463 . S
C2112 N2116 1.427 . S
C2113 H2103 0.929 . S
C2113 C2111 1.433 . S
C2113 N2116 1.384 . S
C2114 H2105 0.929 . S
C2114 C2106 1.378 . S
C2114 C2109 1.350 . S
C2115 H2102 0.939 . S
C2115 C2107 1.433 1_565 S
C2115 N2117 1.384 . S
N2116 C2112 1.427 . S
N2116 C2113 1.384 . S
N2117 C2109 1.427 . S
N2117 C2115 1.384 . S
H2118 C2124 0.930 1_565 S
H2119 C2128 0.930 . S
H2120 C2133 0.929 . S
H2121 C2131 0.929 . S
H2122 C2126 0.929 . S
H2123 C2132 0.929 . S
C2124 H2118 0.930 1_545 S
C2124 C2125 1.367 1_545 S
C2124 C2132 1.378 . S
C2125 C2124 1.367 1_565 S
C2125 C2133 1.433 1_565 S
C2126 H2122 0.929 . S
C2126 C2128 1.378 . S
C2126 C2130 1.350 . S
C2127 C2130 1.463 . S
C2127 C2132 1.350 . S
C2127 N2135 1.427 . S
C2128 H2119 0.930 . S
C2128 C2126 1.378 . S
C2128 C2129 1.367 . S
C2129 C2128 1.367 . S
C2129 C2131 1.433 . S
C2130 C2126 1.350 . S
C2130 C2127 1.463 . S
C2130 N2134 1.427 . S
C2131 H2121 0.929 . S
C2131 C2129 1.433 . S
C2131 N2134 1.384 . S
C2132 H2123 0.929 . S
C2132 C2124 1.378 . S
C2132 C2127 1.350 . S
C2133 H2120 0.929 . S
C2133 C2125 1.433 1_545 S
C2133 N2135 1.384 . S
N2134 C2130 1.427 . S
N2134 C2131 1.384 . S
N2135 C2127 1.427 . S
N2135 C2133 1.384 . S
H2136 C2142 0.930 . S
H2137 C2146 0.930 1_545 S
H2138 C2151 0.929 . S
H2139 C2149 0.929 . S
H2140 C2144 0.929 . S
H2141 C2150 0.929 . S
C2142 H2136 0.930 . S
C2142 C2143 1.367 . S
C2142 C2150 1.378 . S
C2143 C2142 1.367 . S
C2143 C2151 1.433 . S
C2144 H2140 0.929 . S
C2144 C2146 1.378 . S
C2144 C2148 1.350 . S
C2145 C2148 1.463 . S
C2145 C2150 1.350 . S
C2145 N2153 1.427 . S
C2146 H2137 0.930 1_565 S
C2146 C2144 1.378 . S
C2146 C2147 1.367 1_565 S
C2147 C2146 1.367 1_545 S
C2147 C2149 1.433 1_545 S
C2148 C2144 1.350 . S
C2148 C2145 1.463 . S
C2148 N2152 1.427 . S
C2149 H2139 0.929 . S
C2149 C2147 1.433 1_565 S
C2149 N2152 1.384 . S
C2150 H2141 0.929 . S
C2150 C2142 1.378 . S
C2150 C2145 1.350 . S
C2151 H2138 0.929 . S
C2151 C2143 1.433 . S
C2151 N2153 1.384 . S
N2152 C2148 1.427 . S
N2152 C2149 1.384 . S
N2153 C2145 1.427 . S
N2153 C2151 1.384 . S
H2154 C2160 0.930 . S
H2155 C2164 0.930 . S
H2156 C2169 0.929 . S
H2157 C2167 0.929 1_565 S
H2158 C2162 0.929 . S
H2159 C2168 0.929 . S
C2160 H2154 0.930 . S
C2160 C2161 1.367 . S
C2160 C2168 1.378 . S
C2161 C2160 1.367 . S
C2161 C2169 1.433 . S
C2162 H2158 0.929 . S
C2162 C2164 1.378 . S
C2162 C2166 1.350 . S
C2163 C2166 1.463 . S
C2163 C2168 1.350 . S
C2163 N2171 1.427 . S
C2164 H2155 0.930 . S
C2164 C2162 1.378 . S
C2164 C2165 1.367 1_545 S
C2165 C2164 1.367 1_565 S
C2165 C2167 1.433 1_565 S
C2166 C2162 1.350 . S
C2166 C2163 1.463 . S
C2166 N2170 1.427 . S
C2167 H2157 0.929 1_545 S
C2167 C2165 1.433 1_545 S
C2167 N2170 1.384 . S
C2168 H2159 0.929 . S
C2168 C2160 1.378 . S
C2168 C2163 1.350 . S
C2169 H2156 0.929 . S
C2169 C2161 1.433 . S
C2169 N2171 1.384 . S
N2170 C2166 1.427 . S
N2170 C2167 1.384 . S
N2171 C2163 1.427 . S
N2171 C2169 1.384 . S
H2172 C2178 0.930 1_565 S
H2173 C2182 0.930 . S
H2174 C2187 0.929 . S
H2175 C2185 0.929 . S
H2176 C2180 0.929 . S
H2177 C2186 0.929 . S
C2178 H2172 0.930 1_545 S
C2178 C2179 1.367 1_545 S
C2178 C2186 1.378 . S
C2179 C2178 1.367 1_565 S
C2179 C2187 1.433 1_565 S
C2180 H2176 0.929 . S
C2180 C2182 1.378 . S
C2180 C2184 1.350 . S
C2181 C2184 1.463 . S
C2181 C2186 1.350 . S
C2181 N2189 1.427 . S
C2182 H2173 0.930 . S
C2182 C2180 1.378 . S
C2182 C2183 1.367 . S
C2183 C2182 1.367 . S
C2183 C2185 1.433 . S
C2184 C2180 1.350 . S
C2184 C2181 1.463 . S
C2184 N2188 1.427 . S
C2185 H2175 0.929 . S
C2185 C2183 1.433 . S
C2185 N2188 1.384 . S
C2186 H2177 0.929 . S
C2186 C2178 1.378 . S
C2186 C2181 1.350 . S
C2187 H2174 0.929 . S
C2187 C2179 1.433 1_545 S
C2187 N2189 1.384 . S
N2188 C2184 1.427 . S
N2188 C2185 1.384 . S
N2189 C2181 1.427 . S
N2189 C2187 1.384 . S
H2190 C2196 0.930 . S
H2191 C2200 0.940 . S
H2192 C2205 0.929 . S
H2193 C2203 0.929 . S
H2194 C2198 0.929 . S
H2195 C2204 0.929 . S
C2196 H2190 0.930 . S
C2196 C2197 1.367 . S
C2196 C2204 1.378 . S
C2197 C2196 1.367 . S
C2197 C2205 1.433 . S
C2198 H2194 0.929 . S
C2198 C2200 1.378 . S
C2198 C2202 1.350 . S
C2199 C2202 1.463 . S
C2199 C2204 1.350 . S
C2199 N2207 1.427 . S
C2200 H2191 0.940 . S
C2200 C2198 1.378 . S
C2200 C2201 1.367 1_565 S
C2201 C2200 1.367 1_545 S
C2201 C2203 1.433 1_545 S
C2202 C2198 1.350 . S
C2202 C2199 1.463 . S
C2202 N2206 1.427 . S
C2203 H2193 0.929 . S
C2203 C2201 1.433 1_565 S
C2203 N2206 1.384 . S
C2204 H2195 0.929 . S
C2204 C2196 1.378 . S
C2204 C2199 1.350 . S
C2205 H2192 0.929 . S
C2205 C2197 1.433 . S
C2205 N2207 1.384 . S
N2206 C2202 1.427 . S
N2206 C2203 1.384 . S
N2207 C2199 1.427 . S
N2207 C2205 1.384 . S
C1351 C56 1.456 . S
C1355 C812 1.449 . S
C1369 C140 1.453 . S
C1373 C728 1.462 . S
C1387 C980 1.459 . S
C1391 C224 1.464 . S
C1405 C308 1.461 . S
C1409 C896 1.452 . S
C1423 C1159 1.449 . S
C1427 C403 1.458 . S
C1441 C1075 1.462 . S
C1445 C487 1.462 . S
C1459 C1327 1.448 . S
C1463 C571 1.455 . S
C1477 C655 1.449 . S
C1481 C1243 1.451 . S
C1495 C234 1.635 . S
C1499 C66 1.625 . S
C1513 C318 1.627 . S
C1517 C150 1.634 . S
C1531 C579 1.625 . S
C1535 C411 1.635 . S
C1549 C495 1.625 . S
C1553 C663 1.635 . S
C1567 C906 1.634 . S
C1571 C738 1.628 . S
C1585 C990 1.633 . S
C1589 C822 1.626 . S
C1603 C1083 1.634 . S
C1607 C1251 1.627 . S
C1621 C1167 1.627 . S
C1625 C1335 1.631 . S
C1639 C486 1.723 . S
C1643 C75 1.714 . S
C1657 C402 1.716 . S
C1661 C159 1.721 . S
C1675 C243 1.726 . S
C1679 C654 1.711 . S
C1693 C570 1.719 . S
C1697 C327 1.717 . S
C1711 C747 1.726 . S
C1715 C1158 1.710 . S
C1729 C1074 1.719 . S
C1733 C831 1.718 . S
C1747 C915 1.724 . S
C1751 C1326 1.713 . S
C1765 C1242 1.717 . S
C1769 C999 1.720 . S
C1783 C151 1.447 . S
C1787 C67 1.455 . S
C1801 C319 1.453 . S
C1805 C235 1.456 . S
C1819 C476 1.446 . S
C1823 C392 1.455 . S
C1837 C560 1.452 . S
C1841 C644 1.443 . S
C1855 C823 1.443 . S
C1859 C739 1.452 . S
C1873 C991 1.446 . S
C1877 C907 1.455 . S
C1891 C1064 1.448 . S
C1895 C1148 1.456 . S
C1909 C1232 1.444 . S
C1913 C1316 1.453 . S
C1927 C72 1.394 . S
C1931 C63 1.394 . S
C1945 C156 1.370 . S
C1949 C147 1.370 . S
C1963 C240 1.399 . S
C1967 C231 1.399 . S
C1981 C315 1.377 . S
C1985 C324 1.377 . S
C1999 C399 1.371 . S
C2003 C408 1.371 . S
C2017 C492 1.370 . S
C2021 C483 1.370 . S
C2035 C567 1.399 . S
C2039 C576 1.399 . S
C2053 C651 1.384 . S
C2057 C660 1.384 . S
C2071 C735 1.374 . S
C2075 C744 1.374 . S
C2089 C828 1.370 . S
C2093 C819 1.370 . S
C2107 C903 1.383 . S
C2111 C912 1.383 . S
C2125 C987 1.377 . S
C2129 C996 1.377 . S
C2143 C1071 1.371 . S
C2147 C1080 1.371 . S
C2161 C1155 1.391 . S
C2165 C1164 1.391 . S
C2179 C1248 1.379 . S
C2183 C1239 1.379 . S
C2197 C1323 1.385 . S
C2201 C1332 1.385 . S
