# Generated by pormake.
# Topology zfj, (5)-cn, num edge types: 1
# Building blocks:
#     Node 0, Type 0, BuildingBlock: XOMCOT_clean_sbu_0, # of connection points: 5
#     Node 1, Type 0, BuildingBlock: XOMCOT_clean_sbu_0, # of connection points: 5
#     Node 2, Type 0, BuildingBlock: XOMCOT_clean_sbu_0, # of connection points: 5
#     Node 3, Type 0, BuildingBlock: XOMCOT_clean_sbu_0, # of connection points: 5
#     Node 4, Type 0, BuildingBlock: XOMCOT_clean_sbu_0, # of connection points: 5
#     Node 5, Type 0, BuildingBlock: XOMCOT_clean_sbu_0, # of connection points: 5
#     Node 6, Type 0, BuildingBlock: XOMCOT_clean_sbu_0, # of connection points: 5
#     Node 7, Type 0, BuildingBlock: XOMCOT_clean_sbu_0, # of connection points: 5
#     Node 8, Type 0, BuildingBlock: XOMCOT_clean_sbu_0, # of connection points: 5
#     Node 9, Type 0, BuildingBlock: XOMCOT_clean_sbu_0, # of connection points: 5
#     Node 10, Type 0, BuildingBlock: XOMCOT_clean_sbu_0, # of connection points: 5
#     Node 11, Type 0, BuildingBlock: XOMCOT_clean_sbu_0, # of connection points: 5
#     Node 12, Type 0, BuildingBlock: XOMCOT_clean_sbu_0, # of connection points: 5
#     Node 13, Type 0, BuildingBlock: XOMCOT_clean_sbu_0, # of connection points: 5
#     Node 14, Type 0, BuildingBlock: XOMCOT_clean_sbu_0, # of connection points: 5
#     Node 15, Type 0, BuildingBlock: XOMCOT_clean_sbu_0, # of connection points: 5
#     Edge 16, Type (0, 0), BuildingBlock: CIFDUS_clean_linker_0, # of connection points: 2
#     Edge 17, Type (0, 0), BuildingBlock: CIFDUS_clean_linker_0, # of connection points: 2
#     Edge 18, Type (0, 0), BuildingBlock: CIFDUS_clean_linker_0, # of connection points: 2
#     Edge 19, Type (0, 0), BuildingBlock: CIFDUS_clean_linker_0, # of connection points: 2
#     Edge 20, Type (0, 0), BuildingBlock: CIFDUS_clean_linker_0, # of connection points: 2
#     Edge 21, Type (0, 0), BuildingBlock: CIFDUS_clean_linker_0, # of connection points: 2
#     Edge 22, Type (0, 0), BuildingBlock: CIFDUS_clean_linker_0, # of connection points: 2
#     Edge 23, Type (0, 0), BuildingBlock: CIFDUS_clean_linker_0, # of connection points: 2
#     Edge 24, Type (0, 0), BuildingBlock: CIFDUS_clean_linker_0, # of connection points: 2
#     Edge 25, Type (0, 0), BuildingBlock: CIFDUS_clean_linker_0, # of connection points: 2
#     Edge 26, Type (0, 0), BuildingBlock: CIFDUS_clean_linker_0, # of connection points: 2
#     Edge 27, Type (0, 0), BuildingBlock: CIFDUS_clean_linker_0, # of connection points: 2
#     Edge 28, Type (0, 0), BuildingBlock: CIFDUS_clean_linker_0, # of connection points: 2
#     Edge 29, Type (0, 0), BuildingBlock: CIFDUS_clean_linker_0, # of connection points: 2
#     Edge 30, Type (0, 0), BuildingBlock: CIFDUS_clean_linker_0, # of connection points: 2
#     Edge 31, Type (0, 0), BuildingBlock: CIFDUS_clean_linker_0, # of connection points: 2
#     Edge 32, Type (0, 0), BuildingBlock: CIFDUS_clean_linker_0, # of connection points: 2
#     Edge 33, Type (0, 0), BuildingBlock: CIFDUS_clean_linker_0, # of connection points: 2
#     Edge 34, Type (0, 0), BuildingBlock: CIFDUS_clean_linker_0, # of connection points: 2
#     Edge 35, Type (0, 0), BuildingBlock: CIFDUS_clean_linker_0, # of connection points: 2
#     Edge 36, Type (0, 0), BuildingBlock: CIFDUS_clean_linker_0, # of connection points: 2
#     Edge 37, Type (0, 0), BuildingBlock: CIFDUS_clean_linker_0, # of connection points: 2
#     Edge 38, Type (0, 0), BuildingBlock: CIFDUS_clean_linker_0, # of connection points: 2
#     Edge 39, Type (0, 0), BuildingBlock: CIFDUS_clean_linker_0, # of connection points: 2
#     Edge 40, Type (0, 0), BuildingBlock: CIFDUS_clean_linker_0, # of connection points: 2
#     Edge 41, Type (0, 0), BuildingBlock: CIFDUS_clean_linker_0, # of connection points: 2
#     Edge 42, Type (0, 0), BuildingBlock: CIFDUS_clean_linker_0, # of connection points: 2
#     Edge 43, Type (0, 0), BuildingBlock: CIFDUS_clean_linker_0, # of connection points: 2
#     Edge 44, Type (0, 0), BuildingBlock: CIFDUS_clean_linker_0, # of connection points: 2
#     Edge 45, Type (0, 0), BuildingBlock: CIFDUS_clean_linker_0, # of connection points: 2
#     Edge 46, Type (0, 0), BuildingBlock: CIFDUS_clean_linker_0, # of connection points: 2
#     Edge 47, Type (0, 0), BuildingBlock: CIFDUS_clean_linker_0, # of connection points: 2
#     Edge 48, Type (0, 0), BuildingBlock: CIFDUS_clean_linker_0, # of connection points: 2
#     Edge 49, Type (0, 0), BuildingBlock: CIFDUS_clean_linker_0, # of connection points: 2
#     Edge 50, Type (0, 0), BuildingBlock: CIFDUS_clean_linker_0, # of connection points: 2
#     Edge 51, Type (0, 0), BuildingBlock: CIFDUS_clean_linker_0, # of connection points: 2
#     Edge 52, Type (0, 0), BuildingBlock: CIFDUS_clean_linker_0, # of connection points: 2
#     Edge 53, Type (0, 0), BuildingBlock: CIFDUS_clean_linker_0, # of connection points: 2
#     Edge 54, Type (0, 0), BuildingBlock: CIFDUS_clean_linker_0, # of connection points: 2
#     Edge 55, Type (0, 0), BuildingBlock: CIFDUS_clean_linker_0, # of connection points: 2
# Relax obj value: 0.190
# Max RMSD: 0.167
# Mean RMSD: 0.167
data_MOF--net-zfj--node1-XOMCOT_clean_sbu_0--edge1-CIFDUS_clean_linker_0
_symmetry_space_group_name_H-M    P1
_symmetry_Int_Tables_number       1
_symmetry_cell_setting            triclinic
loop_
_symmetry_equiv_pos_as_xyz
'x, y, z'
_cell_length_a     31.253799
_cell_length_b     31.37033
_cell_length_c     43.263565
_cell_angle_alpha  89.676504
_cell_angle_beta   90.220665
_cell_angle_gamma 89.718313
loop_
_atom_site_label
_atom_site_type_symbol
_atom_site_fract_x
_atom_site_fract_y
_atom_site_fract_z
_atom_type_partial_charge
Co0 Co 0.49885 0.22522 0.13093 0.0
C1 C 0.48802 0.31996 0.13016 0.0
C2 C 0.4444 0.29152 0.16205 0.0
C3 C 0.43862 0.33515 0.16259 0.0
N4 N 0.47647 0.28174 0.14238 0.0
N5 N 0.46605 0.35287 0.14245 0.0
H6 H 0.51184 0.32401 0.11234 0.0
H7 H 0.42484 0.26899 0.17437 0.0
C8 C 0.45957 0.19801 0.19207 0.0
O9 O 0.48289 0.2252 0.20774 0.0
N10 N 0.52123 0.16966 0.11894 0.0
C11 C 0.5587 0.16314 0.10437 0.0
C12 C 0.56707 0.12009 0.10349 0.0
C13 C 0.50718 0.13019 0.12663 0.0
N14 N 0.5349 0.09928 0.11769 0.0
C15 C 0.57398 0.26503 0.15399 0.0
C16 C 0.6001 0.1999 0.19302 0.0
C17 C 0.62824 0.23386 0.18739 0.0
C18 C 0.61406 0.26705 0.16797 0.0
C19 C 0.56033 0.19878 0.17803 0.0
N20 N 0.54757 0.23122 0.15879 0.0
H21 H 0.56586 0.28928 0.13732 0.0
H22 H 0.54074 0.17077 0.18081 0.0
H23 H 0.57955 0.1881 0.0961 0.0
H24 H 0.47853 0.12422 0.13986 0.0
O25 O 0.5241 0.24976 0.0946 0.0
O26 O 0.45835 0.22368 0.09694 0.0
O27 O 0.46217 0.19611 0.1627 0.0
C28 C 0.48816 0.24182 0.08059 0.0
H29 H 0.41489 0.35241 0.1758 0.0
H30 H 0.59524 0.10538 0.09363 0.0
H31 H 0.60926 0.17346 0.20785 0.0
H32 H 0.63476 0.29321 0.16165 0.0
Co33 Co 0.29345 0.51811 0.63909 0.0
C34 C 0.19976 0.49547 0.63843 0.0
C35 C 0.24027 0.44281 0.65075 0.0
C36 C 0.19872 0.4286 0.64918 0.0
N37 N 0.24111 0.48504 0.64464 0.0
N38 N 0.17328 0.46182 0.64153 0.0
H39 H 0.18901 0.52577 0.62954 0.0
H40 H 0.26824 0.42316 0.65491 0.0
C41 C 0.30924 0.47444 0.69989 0.0
O42 O 0.27147 0.48759 0.70921 0.0
N43 N 0.34583 0.54989 0.63302 0.0
C44 C 0.34811 0.59017 0.62232 0.0
C45 C 0.39021 0.60261 0.62241 0.0
C46 C 0.38672 0.53816 0.63932 0.0
N47 N 0.41457 0.57007 0.63324 0.0
C48 C 0.24058 0.58746 0.65779 0.0
C49 C 0.28816 0.6126 0.70827 0.0
C50 C 0.25325 0.63787 0.69872 0.0
C51 C 0.22903 0.62423 0.67345 0.0
C52 C 0.29833 0.57528 0.69203 0.0
N53 N 0.27415 0.56263 0.6673 0.0
H54 H 0.22463 0.58155 0.63627 0.0
H55 H 0.32724 0.55822 0.69821 0.0
H56 H 0.3209 0.60943 0.61538 0.0
H57 H 0.39578 0.5075 0.64896 0.0
O58 O 0.27095 0.54236 0.60155 0.0
O59 O 0.30805 0.48195 0.60421 0.0
O60 O 0.32258 0.48422 0.67292 0.0
C61 C 0.28809 0.51033 0.58734 0.0
H62 H 0.18817 0.39613 0.65272 0.0
H63 H 0.40192 0.63346 0.61511 0.0
H64 H 0.30854 0.62256 0.72718 0.0
H65 H 0.20337 0.64374 0.66402 0.0
Co66 Co 1.01015 0.29069 0.14611 0.0
C67 C 0.02898 0.1964 0.14746 0.0
C68 C 0.07798 0.23283 0.16949 0.0
C69 C 0.0908 0.19084 0.16878 0.0
N70 N 0.03857 0.23659 0.15688 0.0
N71 N 0.06006 0.1678 0.15482 0.0
H72 H 1.00187 0.18849 0.13313 0.0
H73 H 0.09757 0.25908 0.17706 0.0
C74 C 0.0446 0.31041 0.20909 0.0
O75 O 0.02639 0.27564 0.21972 0.0
N76 N 0.98227 0.3442 0.1345 0.0
C77 C 0.94443 0.34664 0.11957 0.0
C78 C 0.93183 0.38854 0.1177 0.0
C79 C 0.9924 0.38514 0.1414 0.0
N80 N 0.96173 0.41287 0.1315 0.0
C81 C 0.93545 0.24445 0.1635 0.0
C82 C 0.90495 0.30299 0.20556 0.0
C83 C 0.87799 0.26981 0.1961 0.0
C84 C 0.89443 0.23967 0.17542 0.0
C85 C 0.94572 0.30696 0.19266 0.0
N86 N 0.96064 0.27789 0.17179 0.0
H87 H 0.94498 0.22335 0.14534 0.0
H88 H 0.96394 0.33518 0.19789 0.0
H89 H 0.92635 0.31953 0.11154 0.0
H90 H 0.0204 0.39429 0.15452 0.0
O91 O 0.99024 0.26595 0.10834 0.0
O92 O 0.05233 0.29916 0.11393 0.0
O93 O 0.04089 0.32074 0.18062 0.0
C94 C 0.02564 0.27915 0.09598 0.0
H95 H 0.12124 0.17855 0.17696 0.0
H96 H 0.90234 0.40022 0.10745 0.0
H97 H 0.89392 0.32711 0.2215 0.0
H98 H 0.87468 0.21438 0.16633 0.0
Co99 Co 0.22141 1.00687 0.63693 0.0
C100 C 0.317 0.01999 0.64112 0.0
C101 C 0.28114 0.07707 0.64903 0.0
C102 C 0.32407 0.08674 0.64987 0.0
N103 N 0.27642 0.03497 0.64413 0.0
N104 N 0.34684 0.05076 0.64493 0.0
H105 H 0.325 0.98777 0.63527 0.0
H106 H 0.25503 0.09966 0.65083 0.0
C107 C 0.20492 0.05481 0.69604 0.0
O108 O 0.24069 0.04063 0.70853 0.0
N109 N 0.1664 0.9802 0.62955 0.0
C110 C 0.15962 0.93895 0.62274 0.0
C111 C 0.11614 0.93172 0.62218 0.0
C112 C 0.12697 0.99768 0.63267 0.0
N113 N 0.09559 0.9686 0.6285 0.0
C114 C 0.26621 0.9324 0.65593 0.0
C115 C 0.21938 0.91325 0.70805 0.0
C116 C 0.25195 0.88518 0.69869 0.0
C117 C 0.27557 0.89559 0.67243 0.0
C118 C 0.21172 0.95096 0.69106 0.0
N119 N 0.23577 0.96059 0.66558 0.0
H120 H 0.28176 0.93626 0.63402 0.0
H121 H 0.18494 0.97089 0.6974 0.0
H122 H 0.18457 0.91551 0.61914 0.0
H123 H 0.12135 0.0306 0.63885 0.0
O124 O 0.24334 0.98167 0.59992 0.0
O125 O 0.21169 0.04498 0.60209 0.0
O126 O 0.19352 0.04295 0.66917 0.0
C127 C 0.23039 0.0158 0.58557 0.0
H128 H 0.3372 0.11832 0.65269 0.0
H129 H 0.10084 0.90153 0.61756 0.0
H130 H 0.19925 0.90549 0.72759 0.0
H131 H 0.29921 0.87376 0.66319 0.0
Co132 Co 0.51645 0.3052 0.85052 0.0
C133 C 0.50039 0.2116 0.85696 0.0
C134 C 0.45578 0.23997 0.8253 0.0
C135 C 0.4476 0.19687 0.8271 0.0
N136 N 0.49017 0.24927 0.84308 0.0
N137 N 0.47569 0.17925 0.84704 0.0
H138 H 0.52516 0.20759 0.87426 0.0
H139 H 0.43639 0.26269 0.81271 0.0
C140 C 0.47846 0.32464 0.78795 0.0
O141 O 0.50022 0.29255 0.7764 0.0
N142 N 0.54235 0.36022 0.85892 0.0
C143 C 0.58122 0.36539 0.87179 0.0
C144 C 0.5895 0.40814 0.87414 0.0
C145 C 0.52739 0.4002 0.85353 0.0
N146 N 0.5559 0.43033 0.86248 0.0
C147 C 0.58817 0.25765 0.82924 0.0
C148 C 0.61849 0.3178 0.78811 0.0
C149 C 0.64495 0.28304 0.79612 0.0
C150 C 0.62845 0.25217 0.81631 0.0
C151 C 0.57846 0.32252 0.80217 0.0
N152 N 0.56378 0.29271 0.8227 0.0
H153 H 0.57871 0.23543 0.84683 0.0
H154 H 0.56042 0.35144 0.79787 0.0
H155 H 0.60237 0.33971 0.87886 0.0
H156 H 0.49674 0.40699 0.84286 0.0
O157 O 0.54265 0.28358 0.88748 0.0
O158 O 0.47802 0.31331 0.8853 0.0
O159 O 0.48048 0.33275 0.81684 0.0
C160 C 0.50859 0.29615 0.90188 0.0
H161 H 0.422 0.18003 0.81557 0.0
H162 H 0.6182 0.42158 0.88405 0.0
H163 H 0.62935 0.34241 0.77241 0.0
H164 H 0.64765 0.2255 0.82434 0.0
Co165 Co 0.22267 0.50829 0.35737 0.0
C166 C 0.31733 0.49694 0.3503 0.0
C167 C 0.28289 0.44158 0.33621 0.0
C168 C 0.32605 0.43338 0.3335 0.0
N169 N 0.27717 0.482 0.34586 0.0
N170 N 0.34786 0.46829 0.34242 0.0
H171 H 0.32446 0.52682 0.36118 0.0
H172 H 0.25749 0.41896 0.33224 0.0
C173 C 0.20293 0.46874 0.29639 0.0
O174 O 0.23773 0.4866 0.28544 0.0
N175 N 0.16881 0.53456 0.3695 0.0
C176 C 0.16575 0.57075 0.386 0.0
C177 C 0.1237 0.58339 0.387 0.0
C178 C 0.12817 0.52568 0.36059 0.0
N179 N 0.09998 0.55536 0.37087 0.0
C180 C 0.26301 0.58517 0.33723 0.0
C181 C 0.20652 0.60495 0.29 0.0
C182 C 0.23926 0.63379 0.29701 0.0
C183 C 0.26779 0.62319 0.32095 0.0
C184 C 0.20268 0.56725 0.30716 0.0
N185 N 0.23169 0.55687 0.32981 0.0
H186 H 0.28273 0.58036 0.35733 0.0
H187 H 0.17511 0.54751 0.30302 0.0
H188 H 0.19251 0.58793 0.39565 0.0
H189 H 0.1196 0.49945 0.3457 0.0
O190 O 0.2495 0.53038 0.39398 0.0
O191 O 0.21808 0.46741 0.39108 0.0
O192 O 0.19202 0.47463 0.32448 0.0
C193 C 0.23876 0.4951 0.40768 0.0
H194 H 0.34001 0.40358 0.32605 0.0
H195 H 0.11163 0.61169 0.39829 0.0
H196 H 0.18302 0.61211 0.27224 0.0
H197 H 0.29199 0.64536 0.32864 0.0
Co198 Co 0.0176 0.22809 0.86332 0.0
C199 C 0.02919 0.32244 0.86568 0.0
C200 C 0.07813 0.29348 0.83846 0.0
C201 C 0.08477 0.33687 0.83875 0.0
N202 N 0.04219 0.28429 0.85443 0.0
N203 N 0.05386 0.35497 0.85587 0.0
H204 H 1.00235 0.3266 0.88106 0.0
H205 H 0.09958 0.27061 0.82824 0.0
C206 C 0.06368 0.20387 0.80495 0.0
O207 O 0.04174 0.23261 0.78927 0.0
N208 N 0.99412 0.17232 0.87291 0.0
C209 C 0.95646 0.16432 0.8869 0.0
C210 C 0.95156 0.12086 0.88974 0.0
C211 C 1.0114 0.13358 0.86715 0.0
N212 N 0.98599 0.10176 0.87718 0.0
C213 C 0.94728 0.27067 0.83514 0.0
C214 C 0.92166 0.20539 0.79694 0.0
C215 C 0.89388 0.24023 0.80139 0.0
C216 C 0.90809 0.27359 0.82014 0.0
C217 C 0.96088 0.20353 0.81284 0.0
N218 N 0.97307 0.23582 0.83205 0.0
H219 H 0.95443 0.29484 0.85171 0.0
H220 H 0.98016 0.17496 0.81107 0.0
H221 H 0.93381 0.18835 0.89423 0.0
H222 H 0.04185 0.12849 0.85594 0.0
O223 O 0.98615 0.25138 0.89709 0.0
O224 O 0.05202 0.2249 0.90081 0.0
O225 O 0.05866 0.19988 0.83405 0.0
C226 C 0.01882 0.24173 0.91438 0.0
H227 H 0.11119 0.35361 0.82816 0.0
H228 H 0.9243 0.10449 0.89948 0.0
H229 H 0.91244 0.17881 0.78257 0.0
H230 H 0.88773 0.30048 0.82564 0.0
Co231 Co 0.29561 0.99404 0.35551 0.0
C232 C 0.20082 1.00896 0.35505 0.0
C233 C 0.23403 0.06284 0.33687 0.0
C234 C 0.19075 0.07179 0.3368 0.0
N235 N 0.24053 0.02266 0.34729 0.0
N236 N 0.16978 0.03768 0.34813 0.0
H237 H 0.19459 0.97979 0.36751 0.0
H238 H 0.25885 0.08512 0.33075 0.0
C239 C 0.31929 0.0448 0.2991 0.0
O240 O 0.28667 0.02838 0.28414 0.0
N241 N 0.34987 0.96541 0.36449 0.0
C242 C 0.3532 0.92568 0.37628 0.0
C243 C 0.39537 0.91334 0.37621 0.0
C244 C 0.39057 0.97674 0.35735 0.0
N245 N 0.419 0.94514 0.36408 0.0
C246 C 0.25165 0.92612 0.32635 0.0
C247 C 0.31441 0.90539 0.28424 0.0
C248 C 0.28025 0.87712 0.28878 0.0
C249 C 0.24796 0.88896 0.30941 0.0
C250 C 0.31685 0.94271 0.30184 0.0
N251 N 0.28584 0.95246 0.32297 0.0
H252 H 0.22902 0.93085 0.34449 0.0
H253 H 0.34525 0.962 0.30002 0.0
H254 H 0.32656 0.90612 0.38337 0.0
H255 H 0.39902 1.0064 0.34612 0.0
O256 O 0.26978 0.96311 0.38887 0.0
O257 O 0.30057 0.02646 0.39332 0.0
O258 O 0.32643 0.03456 0.32723 0.0
C259 C 0.28081 0.99467 0.40641 0.0
H260 H 0.17609 0.10142 0.32931 0.0
H261 H 0.40755 0.88276 0.38402 0.0
H262 H 0.34029 0.89762 0.26866 0.0
H263 H 0.22182 0.86777 0.31499 0.0
Co264 Co 0.5307 0.80479 0.86315 0.0
C265 C 0.54977 0.70981 0.8604 0.0
C266 C 0.60129 0.74909 0.84483 0.0
C267 C 0.61409 0.70727 0.84327 0.0
N268 N 0.56053 0.75107 0.85483 0.0
N269 N 0.58176 0.68241 0.85311 0.0
H270 H 0.52057 0.69963 0.87119 0.0
H271 H 0.62098 0.77643 0.83962 0.0
C272 C 0.56399 0.81817 0.79891 0.0
O273 O 0.54677 0.78181 0.79066 0.0
N274 N 0.50267 0.85906 0.87155 0.0
C275 C 0.47016 0.86638 0.89129 0.0
C276 C 0.46038 0.90935 0.89085 0.0
C277 C 0.51181 0.89763 0.85912 0.0
N278 N 0.48645 0.92876 0.87049 0.0
C279 C 0.45678 0.75544 0.84983 0.0
C280 C 0.42643 0.80352 0.8007 0.0
C281 C 0.4027 0.76838 0.81093 0.0
C282 C 0.41846 0.74429 0.83579 0.0
C283 C 0.46534 0.81321 0.81525 0.0
N284 N 0.48085 0.78831 0.8389 0.0
H285 H 0.46538 0.73915 0.87085 0.0
H286 H 0.48202 0.84169 0.80821 0.0
H287 H 0.45444 0.84222 0.90501 0.0
H288 H 0.53659 0.9032 0.84223 0.0
O289 O 0.51241 0.783 0.90257 0.0
O290 O 0.57327 0.81748 0.89462 0.0
O291 O 0.56008 0.83167 0.82654 0.0
C292 C 0.54756 0.79839 0.9138 0.0
H293 H 0.64514 0.69615 0.83571 0.0
H294 H 0.43537 0.92499 0.90388 0.0
H295 H 0.41457 0.82384 0.78222 0.0
H296 H 0.39998 0.71847 0.84566 0.0
Co297 Co 0.72271 0.50186 0.35555 0.0
C298 C 0.81755 0.515 0.35305 0.0
C299 C 0.78324 0.56969 0.33649 0.0
C300 C 0.82646 0.57821 0.33531 0.0
N301 N 0.77748 0.5294 0.34667 0.0
N302 N 0.84811 0.54363 0.34566 0.0
H303 H 0.82455 0.48553 0.36489 0.0
H304 H 0.75784 0.59199 0.33096 0.0
C305 C 0.70441 0.54425 0.29467 0.0
O306 O 0.7395 0.5265 0.28398 0.0
N307 N 0.66873 0.47421 0.3651 0.0
C308 C 0.66571 0.43615 0.37948 0.0
C309 C 0.62379 0.42354 0.37944 0.0
C310 C 0.62819 0.48427 0.35635 0.0
N311 N 0.6001 0.45348 0.3647 0.0
C312 C 0.76655 0.42717 0.33517 0.0
C313 C 0.71003 0.405 0.28889 0.0
C314 C 0.74266 0.37617 0.29722 0.0
C315 C 0.77157 0.38835 0.32029 0.0
C316 C 0.70617 0.4439 0.30449 0.0
N317 N 0.73462 0.45497 0.3272 0.0
H318 H 0.78604 0.43246 0.35518 0.0
H319 H 0.67855 0.46364 0.29961 0.0
H320 H 0.69245 0.41783 0.38843 0.0
H321 H 0.61966 0.51233 0.343 0.0
O322 O 0.74714 0.47695 0.39224 0.0
O323 O 0.71509 0.54009 0.39054 0.0
O324 O 0.69308 0.53753 0.32263 0.0
C325 C 0.73417 0.51054 0.40688 0.0
H326 H 0.84063 0.60783 0.32768 0.0
H327 H 0.6118 0.39407 0.38912 0.0
H328 H 0.68641 0.39678 0.27158 0.0
H329 H 0.7959 0.36657 0.32887 0.0
Co330 Co 0.01736 0.7345 0.84817 0.0
C331 C 0.01902 0.82915 0.8412 0.0
C332 C 0.97409 0.80074 0.80993 0.0
C333 C 0.97278 0.84428 0.80582 0.0
N334 N 1.00355 0.79106 0.83185 0.0
N335 N 1.00081 0.86191 0.82558 0.0
H336 H 0.04271 0.83311 0.85925 0.0
H337 H 0.95423 0.77808 0.79795 0.0
C338 C 0.98957 0.69297 0.78817 0.0
O339 O 0.02907 0.69235 0.77823 0.0
N340 N 0.02867 0.67733 0.86516 0.0
C341 C 0.03508 0.66654 0.89516 0.0
C342 C 0.04078 0.62324 0.89753 0.0
C343 C 0.03094 0.63985 0.8498 0.0
N344 N 0.03808 0.60639 0.86905 0.0
C345 C 0.10522 0.71406 0.83797 0.0
C346 C 0.11793 0.76618 0.78721 0.0
C347 C 0.15328 0.74705 0.80167 0.0
C348 C 0.14637 0.71977 0.82673 0.0
C349 C 0.0768 0.75874 0.79876 0.0
N350 N 0.07056 0.73314 0.82418 0.0
H351 H 0.10231 0.69682 0.85941 0.0
H352 H 0.05026 0.77436 0.78735 0.0
H353 H 0.03633 0.68821 0.91439 0.0
H354 H 0.02746 0.63679 0.82513 0.0
O355 O 0.04272 0.76025 0.88352 0.0
O356 O 0.97409 0.74325 0.88009 0.0
O357 O 0.98033 0.70718 0.81503 0.0
C358 C 1.00513 0.76027 0.89611 0.0
H359 H 0.95162 0.86182 0.79042 0.0
H360 H 0.04724 0.60564 0.91864 0.0
H361 H 0.12215 0.78763 0.76776 0.0
H362 H 0.173 0.70548 0.8392 0.0
Co363 Co 0.79626 1.00377 0.35991 0.0
C364 C 0.70181 0.99132 0.35293 0.0
C365 C 0.73681 0.9384 0.33489 0.0
C366 C 0.69367 0.93012 0.33215 0.0
N367 N 0.74219 0.97752 0.34705 0.0
N368 N 0.67148 0.96352 0.34353 0.0
H369 H 0.69448 0.01956 0.36595 0.0
H370 H 0.76229 0.91631 0.32949 0.0
C371 C 0.82379 0.96093 0.30087 0.0
O372 O 0.79154 0.97859 0.28589 0.0
N373 N 0.84953 0.03013 0.37329 0.0
C374 C 0.85194 0.06667 0.38942 0.0
C375 C 0.89391 0.07928 0.391 0.0
C376 C 0.8905 0.02102 0.36523 0.0
N377 N 0.91825 0.05087 0.37561 0.0
C378 C 0.75543 0.07896 0.33688 0.0
C379 C 0.8166 0.10116 0.29393 0.0
C380 C 0.78311 0.12995 0.29996 0.0
C381 C 0.75195 0.11778 0.32142 0.0
C382 C 0.81895 0.06237 0.31014 0.0
N383 N 0.78826 0.05137 0.33117 0.0
H384 H 0.73347 0.07317 0.35538 0.0
H385 H 0.84686 0.04251 0.30699 0.0
H386 H 0.82482 0.08417 0.39832 0.0
H387 H 0.89967 0.99457 0.35073 0.0
O388 O 0.76752 0.02737 0.39523 0.0
O389 O 0.79923 0.96407 0.39431 0.0
O390 O 0.82951 0.96844 0.32952 0.0
C391 C 0.77761 0.99235 0.40975 0.0
H392 H 0.68 0.90119 0.32302 0.0
H393 H 0.90545 0.10788 0.40208 0.0
H394 H 0.84183 0.10925 0.27789 0.0
H395 H 0.72663 0.13942 0.32823 0.0
Co396 Co 0.52062 0.72847 0.14005 0.0
C397 C 0.53723 0.82281 0.14238 0.0
C398 C 0.58498 0.78658 0.16663 0.0
C399 C 0.59634 0.8289 0.16725 0.0
N400 N 0.54721 0.78254 0.15173 0.0
N401 N 0.56624 0.85172 0.15201 0.0
H402 H 0.51149 0.83087 0.12675 0.0
H403 H 0.60433 0.76043 0.17522 0.0
C404 C 0.54939 0.70813 0.20552 0.0
O405 O 0.53018 0.74252 0.2159 0.0
N406 N 0.49528 0.67429 0.12811 0.0
C407 C 0.46633 0.66764 0.10544 0.0
C408 C 0.4572 0.62466 0.10417 0.0
C409 C 0.50294 0.63521 0.14049 0.0
N410 N 0.48009 0.60446 0.12633 0.0
C411 C 0.44453 0.77609 0.15105 0.0
C412 C 0.41021 0.72494 0.19662 0.0
C413 C 0.38641 0.76019 0.18583 0.0
C414 C 0.40444 0.78585 0.16283 0.0
C415 C 0.45082 0.71639 0.18417 0.0
N416 N 0.46806 0.74258 0.16213 0.0
H417 H 0.45504 0.79412 0.13141 0.0
H418 H 0.46751 0.68781 0.19144 0.0
H419 H 0.45248 0.69226 0.0909 0.0
H420 H 0.5249 0.62899 0.15936 0.0
O421 O 0.50558 0.75304 0.10059 0.0
O422 O 0.56653 0.71916 0.1106 0.0
O423 O 0.54786 0.699 0.17682 0.0
C424 C 0.54256 0.73989 0.09086 0.0
H425 H 0.62519 0.84167 0.17746 0.0
H426 H 0.43469 0.60956 0.08868 0.0
H427 H 0.39718 0.70355 0.21388 0.0
H428 H 0.38659 0.81192 0.15239 0.0
Co429 Co 0.79365 0.51594 0.63744 0.0
C430 C 0.69833 0.52136 0.64286 0.0
C431 C 0.73028 0.57183 0.66687 0.0
C432 C 0.68689 0.57784 0.6695 0.0
N433 N 0.73763 0.53634 0.65032 0.0
N434 N 0.66659 0.54639 0.6542 0.0
H435 H 0.69316 0.49363 0.62859 0.0
H436 H 0.75466 0.59269 0.67591 0.0
C437 C 0.83904 0.53368 0.69769 0.0
O438 O 0.84576 0.49265 0.70149 0.0
N439 N 0.85095 0.49734 0.62359 0.0
C440 C 0.86009 0.4754 0.59753 0.0
C441 C 0.90359 0.46978 0.59516 0.0
C442 C 0.89001 0.50647 0.6357 0.0
N443 N 0.92242 0.48927 0.6192 0.0
C444 C 0.79642 0.42638 0.64752 0.0
C445 C 0.7552 0.42379 0.70388 0.0
C446 C 0.76848 0.38566 0.6901 0.0
C447 C 0.78915 0.38736 0.66163 0.0
C448 C 0.76409 0.46277 0.68909 0.0
N449 N 0.78558 0.46373 0.66151 0.0
H450 H 0.80911 0.42599 0.62456 0.0
H451 H 0.75388 0.49207 0.69988 0.0
H452 H 0.83684 0.46374 0.58111 0.0
H453 H 0.89534 0.52577 0.6558 0.0
O454 O 0.76864 0.49515 0.60023 0.0
O455 O 0.7946 0.5603 0.60551 0.0
O456 O 0.82071 0.54789 0.67316 0.0
C457 C 0.77635 0.53201 0.58779 0.0
H458 H 0.67161 0.60382 0.68162 0.0
H459 H 0.92013 0.45331 0.57679 0.0
H460 H 0.73828 0.42343 0.72567 0.0
H461 H 0.7982 0.35843 0.64968 0.0
Co462 Co 1.00429 0.79336 0.12763 0.0
C463 C 0.99469 0.69764 0.13038 0.0
C464 C 0.94286 0.73016 0.15232 0.0
C465 C 0.9364 0.6869 0.15506 0.0
N466 N 0.98015 0.73724 0.13763 0.0
N467 N 0.96915 0.66625 0.14137 0.0
H468 H 0.02211 0.69149 0.11609 0.0
H469 H 0.92113 0.75464 0.16018 0.0
C470 C 0.967 0.81354 0.19131 0.0
O471 O 0.98649 0.78157 0.20528 0.0
N472 N 0.02763 0.84925 0.11777 0.0
C473 C 0.0651 0.85687 0.10358 0.0
C474 C 0.07249 0.90016 0.10355 0.0
C475 C 0.01264 0.88814 0.12607 0.0
N476 N 0.03963 0.91996 0.11786 0.0
C477 C 0.08207 0.74996 0.1412 0.0
C478 C 0.10889 0.79868 0.19041 0.0
C479 C 0.13519 0.76521 0.18011 0.0
C480 C 0.12107 0.74087 0.15518 0.0
C481 C 0.06917 0.80629 0.17589 0.0
N482 N 0.0556 0.78109 0.15209 0.0
H483 H 0.07472 0.7334 0.12025 0.0
H484 H 0.05038 0.8335 0.18294 0.0
H485 H 0.08619 0.83252 0.0946 0.0
H486 H 0.98334 0.89301 0.13881 0.0
O487 O 0.02405 0.77241 0.08842 0.0
O488 O 0.96012 0.8013 0.09646 0.0
O489 O 0.97227 0.82045 0.16255 0.0
C490 C 0.98723 0.78441 0.07731 0.0
H491 H 0.90954 0.67203 0.16645 0.0
H492 H 0.10026 0.91571 0.09388 0.0
H493 H 0.11928 0.81927 0.20896 0.0
H494 H 0.14124 0.71642 0.14516 0.0
Co495 Co 0.7219 0.01746 0.6395 0.0
C496 C 0.81677 0.99309 0.64401 0.0
C497 C 0.77368 0.94029 0.64244 0.0
C498 C 0.81481 0.92474 0.64336 0.0
N499 N 0.77442 0.98321 0.643 0.0
N500 N 0.84214 0.95785 0.64442 0.0
H501 H 0.82941 0.02483 0.64453 0.0
H502 H 0.74488 0.92142 0.64097 0.0
C503 C 0.71321 0.97243 0.69969 0.0
O504 O 0.752 0.9854 0.70654 0.0
N505 N 0.6691 0.04997 0.63558 0.0
C506 C 0.66622 0.09163 0.62811 0.0
C507 C 0.62405 0.10415 0.62979 0.0
C508 C 0.62845 0.03743 0.64122 0.0
N509 N 0.60031 0.07015 0.63802 0.0
C510 C 0.77521 0.08656 0.65626 0.0
C511 C 0.72965 0.11265 0.70741 0.0
C512 C 0.76277 0.13839 0.6962 0.0
C513 C 0.78621 0.12429 0.67075 0.0
C514 C 0.72029 0.07415 0.69252 0.0
N515 N 0.74319 0.06135 0.66725 0.0
H516 H 0.79038 0.0797 0.63454 0.0
H517 H 0.6925 0.05652 0.69988 0.0
H518 H 0.69312 0.11178 0.62253 0.0
H519 H 0.6198 1.00553 0.64844 0.0
O520 O 0.74149 0.04218 0.60152 0.0
O521 O 0.70445 0.98213 0.60489 0.0
O522 O 0.69587 0.98317 0.67403 0.0
C523 C 0.7233 0.01054 0.58766 0.0
H524 H 0.82372 0.8914 0.64248 0.0
H525 H 0.61175 0.13595 0.62545 0.0
H526 H 0.71001 0.1231 0.72652 0.0
H527 H 0.81067 0.14406 0.66038 0.0
H528 H 0.5463 0.27792 0.04325 0.0
H529 H 0.41688 0.23085 0.04404 0.0
H530 H 0.40972 0.24728 0.98873 0.0
H531 H 0.44248 0.27153 0.93925 0.0
H532 H 0.57342 0.31433 0.93991 0.0
H533 H 0.57761 0.30363 0.99561 0.0
C534 C 0.51638 0.27138 0.03144 0.0
C535 C 0.48229 0.25297 0.04764 0.0
C536 C 0.51278 0.2803 -0.00015 0.0
C537 C 0.44371 0.24485 0.03198 0.0
C538 C 0.4396 0.25427 0.00039 0.0
C539 C 0.47153 0.27904 0.95184 0.0
C540 C 0.5076 0.29367 0.93575 0.0
C541 C 0.47416 0.27158 0.98395 0.0
C542 C 0.54538 0.30283 0.95198 0.0
C543 C 0.54784 0.29669 0.98376 0.0
H544 H 0.27838 0.54985 0.44579 0.0
H545 H 0.22214 0.42462 0.44376 0.0
H546 H 0.23654 0.41587 0.49925 0.0
H547 H 0.26125 0.44644 0.54927 0.0
H548 H 0.31274 0.57365 0.55008 0.0
H549 H 0.30473 0.57886 0.49408 0.0
C550 C 0.26945 0.52046 0.45736 0.0
C551 C 0.24902 0.48804 0.44073 0.0
C552 C 0.27718 0.51603 0.4891 0.0
C553 C 0.23776 0.45016 0.45612 0.0
C554 C 0.24601 0.44515 0.48782 0.0
C555 C 0.27134 0.47482 0.53692 0.0
C556 C 0.28779 0.50956 0.55344 0.0
C557 C 0.26523 0.47815 0.50468 0.0
C558 C 0.30008 0.5466 0.53758 0.0
C559 C 0.29538 0.54964 0.50566 0.0
H560 H 0.08278 0.2566 0.95664 0.0
H561 H 0.94664 0.23733 0.94737 0.0
H562 H 0.93742 0.24605 0.00265 0.0
H563 H 0.96691 0.26031 0.05321 0.0
H564 H 0.10179 0.28412 0.06441 0.0
H565 H 0.11275 0.27272 0.00882 0.0
C566 C 0.05129 0.25418 0.96691 0.0
C567 C 0.01545 0.2464 0.94807 0.0
C568 C 0.04594 0.2602 -0.00107 0.0
C569 C 0.97466 0.24365 0.96142 0.0
C570 C 0.96931 0.24852 0.99303 0.0
C571 C 0.99882 0.26282 0.04359 0.0
C572 C 0.03352 0.27274 0.06279 0.0
C573 C 1.00459 0.25701 0.01191 0.0
C574 C 0.07456 0.2765 0.04994 0.0
C575 C 0.0808 0.26991 0.01823 0.0
H576 H 0.26718 0.06115 0.44567 0.0
H577 H 0.27445 0.92389 0.4414 0.0
H578 H 0.25906 0.91867 0.49641 0.0
H579 H 0.24385 0.95253 0.54549 0.0
H580 H 0.23237 0.08929 0.55088 0.0
H581 H 0.24857 0.09546 0.49552 0.0
C582 C 0.26554 0.03025 0.45696 0.0
C583 C 0.27214 0.99297 0.43972 0.0
C584 C 0.25566 0.0274 0.48859 0.0
C585 C 0.26936 0.95299 0.45429 0.0
C586 C 0.2606 0.94995 0.4857 0.0
C587 C 0.24487 0.98374 0.53456 0.0
C588 C 0.23728 0.02042 0.55211 0.0
C589 C 0.25368 0.98687 0.50301 0.0
C590 C 0.23806 0.0606 0.53767 0.0
C591 C 0.2475 0.06411 0.50613 0.0
H592 H 0.58914 0.73955 0.94924 0.0
H593 H 0.5173 0.85692 0.95292 0.0
H594 H 0.51204 0.8507 0.00913 0.0
H595 H 0.52081 0.80783 0.05614 0.0
H596 H 0.59346 0.69081 0.05376 0.0
H597 H 0.60618 0.70095 -0.00179 0.0
C598 C 0.57356 0.76426 0.96263 0.0
C599 C 0.55398 0.79888 0.94735 0.0
C600 C 0.57035 0.76016 0.99497 0.0
C601 C 0.53303 0.8304 0.9645 0.0
C602 C 0.52974 0.82665 0.99653 0.0
C603 C 0.53986 0.78481 0.04349 0.0
C604 C 0.55567 0.74834 0.05871 0.0
C605 C 0.54713 0.79104 0.01185 0.0
C606 C 0.58091 0.71908 0.04236 0.0
C607 C 0.588 0.7248 0.01063 0.0
H608 H 0.75323 0.57794 0.44525 0.0
H609 H 0.72125 0.44425 0.44447 0.0
H610 H 0.72876 0.44052 0.50029 0.0
H611 H 0.74747 0.47315 0.54856 0.0
H612 H 0.78494 0.60517 0.55199 0.0
H613 H 0.7722 0.61183 0.49593 0.0
C614 C 0.7476 0.54828 0.45752 0.0
C615 C 0.73677 0.51136 0.44088 0.0
C616 C 0.7532 0.54599 0.48994 0.0
C617 C 0.72992 0.47294 0.45681 0.0
C618 C 0.73415 0.47076 0.48872 0.0
C619 C 0.7527 0.50365 0.53728 0.0
C620 C 0.76712 0.53863 0.55448 0.0
C621 C 0.74631 0.50681 0.5054 0.0
C622 C 0.77382 0.57772 0.53926 0.0
C623 C 0.76658 0.58147 0.50723 0.0
H624 H 0.03769 0.81413 0.03295 0.0
H625 H 0.91814 0.74979 0.04755 0.0
H626 H 0.91005 0.73947 0.99142 0.0
H627 H 0.94155 0.74331 0.93848 0.0
H628 H 0.05998 0.81153 0.92587 0.0
H629 H 0.06353 0.82652 0.98071 0.0
C630 C 1.00966 0.79825 0.02371 0.0
C631 C 0.97887 0.78216 0.04396 0.0
C632 C 1.00508 0.79317 0.99177 0.0
C633 C 0.94226 0.76226 0.03207 0.0
C634 C 0.93777 0.7563 9e-05 0.0
C635 C 0.96751 0.76221 0.94773 0.0
C636 C 1.00084 0.77555 0.9282 0.0
C637 C 0.96952 0.77088 0.97969 0.0
C638 C 0.03427 0.8002 0.94045 0.0
C639 C 0.03646 0.80881 0.97187 0.0
H640 H 0.73644 0.04827 0.44627 0.0
H641 H 0.79161 0.92195 0.44644 0.0
H642 H 0.77467 0.91391 0.50144 0.0
H643 H 0.74896 0.94554 0.55057 0.0
H644 H 0.69891 0.07379 0.54971 0.0
H645 H 0.70829 0.07818 0.49379 0.0
C646 C 0.74453 0.01881 0.45823 0.0
C647 C 0.76552 0.9859 0.4424 0.0
C648 C 0.73538 0.01476 0.48974 0.0
C649 C 0.77566 0.94789 0.45822 0.0
C650 C 0.76594 0.94326 0.48963 0.0
C651 C 0.73933 0.97392 0.53784 0.0
C652 C 0.72299 1.0092 0.55383 0.0
C653 C 0.74638 0.97678 0.50578 0.0
C654 C 0.71139 0.0463 0.53756 0.0
C655 C 0.71693 0.04888 0.50571 0.0
H656 H 0.4982 0.90476 0.14454 0.0
H657 H 0.63618 0.90096 0.14425 0.0
H658 H 0.63843 0.97732 0.13386 0.0
H659 H 0.6017 0.04531 0.12517 0.0
H660 H 0.46384 0.05078 0.12536 0.0
H661 H 0.46102 0.97394 0.13571 0.0
C662 C 0.52871 0.92065 0.14197 0.0
C663 C 0.56699 0.89697 0.14527 0.0
C664 C 0.52981 0.96497 0.1361 0.0
C665 C 0.60626 0.91827 0.14227 0.0
C666 C 0.60759 0.96201 0.13615 0.0
C667 C 0.57095 0.02976 0.12708 0.0
C668 C 0.53301 0.05396 0.12416 0.0
C669 C 0.56962 0.98568 0.13307 0.0
C670 C 0.49354 0.03313 0.12761 0.0
C671 C 0.49193 0.9891 0.13339 0.0
H672 H 0.60831 0.61 0.65609 0.0
H673 H 0.62091 0.4747 0.64132 0.0
H674 H 0.54328 0.46937 0.63392 0.0
H675 H 0.47126 0.50388 0.63159 0.0
H676 H 0.46123 0.63916 0.6479 0.0
H677 H 0.53815 0.6435 0.6552 0.0
C678 C 0.59431 0.57911 0.65172 0.0
C679 C 0.62077 0.54277 0.64954 0.0
C680 C 0.54982 0.57628 0.64772 0.0
C681 C 0.6016 0.50331 0.64294 0.0
C682 C 0.55708 0.50022 0.63888 0.0
C683 C 0.48594 0.53417 0.63697 0.0
C684 C 0.46025 0.57124 0.63882 0.0
C685 C 0.53076 0.53655 0.64123 0.0
C686 C 0.48001 0.61029 0.64566 0.0
C687 C 0.52412 0.6128 0.65004 0.0
H688 H 0.02474 0.47239 0.12907 0.0
H689 H 0.88985 0.45591 0.14537 0.0
H690 H 0.88022 0.53273 0.14963 0.0
H691 H 0.90897 0.60475 0.14683 0.0
H692 H 0.04388 0.62325 0.13121 0.0
H693 H 0.05439 0.54614 0.12807 0.0
C694 C 0.99344 0.48574 0.1339 0.0
C695 C 0.958 0.45831 0.13665 0.0
C696 C 0.98793 0.53049 0.13602 0.0
C697 C 0.91753 0.47619 0.14269 0.0
C698 C 0.91198 0.52021 0.14519 0.0
C699 C 0.94084 0.59221 0.14306 0.0
C700 C 0.97544 0.62039 0.1392 0.0
C701 C 0.94678 0.54773 0.14153 0.0
C702 C 0.01634 0.60281 0.13382 0.0
C703 C 0.02251 0.55848 0.13226 0.0
H704 H 0.89975 0.01865 0.62705 0.0
H705 H 0.89042 0.89085 0.66402 0.0
H706 H 0.96766 0.88317 0.66225 0.0
H707 H 0.03829 0.9115 0.64931 0.0
H708 H 0.04954 0.03972 0.61427 0.0
H709 H 0.97163 0.04873 0.61685 0.0
C710 C 0.9145 0.98928 0.63506 0.0
C711 C 0.88858 0.95515 0.64516 0.0
C712 C 0.95958 0.98508 0.63436 0.0
C713 C 0.90889 0.91737 0.65534 0.0
C714 C 0.95335 0.91295 0.65456 0.0
C715 C 0.02372 0.94136 0.64208 0.0
C716 C 0.0498 0.97471 0.63128 0.0
C717 C 0.979 0.94633 0.64378 0.0
C718 C 0.03032 0.01357 0.62274 0.0
C719 C 0.9857 0.01864 0.62409 0.0
H720 H 0.51454 0.62754 0.85095 0.0
H721 H 0.65162 0.63301 0.86293 0.0
H722 H 0.65537 0.55581 0.8657 0.0
H723 H 0.62086 0.48692 0.86395 0.0
H724 H 0.48361 0.47879 0.85462 0.0
H725 H 0.47901 0.55661 0.85112 0.0
C726 C 0.54513 0.61183 0.85448 0.0
C727 C 0.5828 0.63642 0.85638 0.0
C728 C 0.54717 0.56684 0.85629 0.0
C729 C 0.62219 0.61526 0.86071 0.0
C730 C 0.6244 0.57093 0.86248 0.0
C731 C 0.58969 0.50176 0.86165 0.0
C732 C 0.55263 0.47641 0.85986 0.0
C733 C 0.58721 0.54642 0.86015 0.0
C734 C 0.51283 0.49704 0.85591 0.0
C735 C 0.51013 0.54172 0.85409 0.0
H736 H 0.90724 0.60605 0.35088 0.0
H737 H 0.89339 0.46936 0.34806 0.0
H738 H 0.97051 0.46051 0.35475 0.0
H739 H 0.04256 0.49178 0.36243 0.0
H740 H 0.05516 0.62859 0.36408 0.0
H741 H 0.97843 0.63702 0.35641 0.0
C742 C 0.92092 0.57428 0.35138 0.0
C743 C 0.89405 0.53852 0.34913 0.0
C744 C 0.96545 0.56935 0.35505 0.0
C745 C 0.91286 0.4976 0.35026 0.0
C746 C 0.95717 0.49245 0.35388 0.0
C747 C 0.02848 0.52336 0.36081 0.0
C748 C 0.05472 0.55944 0.36424 0.0
C749 C 0.98387 0.52811 0.35645 0.0
C750 C 0.03581 0.6002 0.3622 0.0
C751 C 0.99183 0.60512 0.35765 0.0
H752 H 1.01037 0.0615 0.82558 0.0
H753 H 0.97484 0.04114 0.92051 0.0
H754 H 0.98087 0.96377 0.91377 0.0
H755 H 0.99172 0.90175 0.87968 0.0
H756 H 0.01934 0.92209 0.78344 0.0
H757 H 0.02148 0.99946 0.79154 0.0
C758 C 1.00458 0.03995 0.84479 0.0
C759 C 0.99246 0.05666 0.87354 0.0
C760 C 1.0066 0.99559 0.84035 0.0
C761 C 0.98415 0.0287 0.89821 0.0
C762 C 0.98762 0.9846 0.89434 0.0
C763 C 0.99885 0.92332 0.86074 0.0
C764 C 1.00585 0.9067 0.83112 0.0
C765 C 0.9982 0.96765 0.8654 0.0
C766 C 0.0141 0.93457 0.80641 0.0
C767 C 0.0152 0.97864 0.81106 0.0
H768 H 0.47612 1.01036 0.36289 0.0
H769 H 0.46467 0.87462 0.35002 0.0
H770 H 0.54146 0.86842 0.34263 0.0
H771 H 0.61234 0.90046 0.34152 0.0
H772 H 0.62532 0.03647 0.35249 0.0
H773 H 0.54813 0.04336 0.35911 0.0
C774 C 0.49044 0.97956 0.35819 0.0
C775 C 0.46442 0.94296 0.35755 0.0
C776 C 0.53518 0.97606 0.35387 0.0
C777 C 0.48373 0.90324 0.35144 0.0
C778 C 0.5278 0.89963 0.34701 0.0
C779 C 0.59858 0.93178 0.345 0.0
C780 C 0.62535 0.96775 0.3467 0.0
C781 C 0.55395 0.93569 0.34851 0.0
C782 C 0.60613 1.00792 0.35161 0.0
C783 C 0.5617 0.01201 0.3552 0.0
H784 H 0.47903 0.11138 0.80974 0.0
H785 H 0.47819 0.14859 0.90528 0.0
H786 H 0.48033 0.07342 0.92144 0.0
H787 H 0.48193 0.9967 0.90805 0.0
H788 H 0.48942 0.96001 0.81249 0.0
H789 H 0.48544 0.035 0.79642 0.0
C790 C 0.47928 0.10277 0.83404 0.0
C791 C 0.47806 0.13515 0.85636 0.0
C792 C 0.4818 0.05961 0.84304 0.0
C793 C 0.47912 0.124 0.88782 0.0
C794 C 0.48026 0.08112 0.89699 0.0
C795 C 0.48266 1.00535 0.88376 0.0
C796 C 0.48565 0.97305 0.86142 0.0
C797 C 0.4815 0.04861 0.8748 0.0
C798 C 0.48726 0.98444 0.83001 0.0
C799 C 0.48484 0.02725 0.82086 0.0
H800 H 0.40777 0.40551 0.34415 0.0
H801 H 0.39295 0.54236 0.34628 0.0
H802 H 0.4701 0.55034 0.35246 0.0
H803 H 0.54242 0.51812 0.35875 0.0
H804 H 0.55568 0.38133 0.35457 0.0
H805 H 0.47897 0.37397 0.3472 0.0
C806 C 0.42111 0.43721 0.34555 0.0
C807 C 0.39391 0.47315 0.34499 0.0
C808 C 0.46565 0.44169 0.34878 0.0
C809 C 0.41255 0.51388 0.34723 0.0
C810 C 0.45692 0.51857 0.35055 0.0
C811 C 0.5285 0.48681 0.35589 0.0
C812 C 0.55491 0.45034 0.35776 0.0
C813 C 0.48387 0.48266 0.35159 0.0
C814 C 0.53621 0.40994 0.35403 0.0
C815 C 0.49223 0.40565 0.34963 0.0
H816 H 0.07239 0.42156 0.81865 0.0
H817 H 0.02286 0.38885 0.90855 0.0
H818 H 0.01256 0.46423 0.92022 0.0
H819 H 0.01791 0.53931 0.90509 0.0
H820 H 0.06747 0.57295 0.81537 0.0
H821 H 0.07702 0.49741 0.80322 0.0
C822 C 0.05967 0.43104 0.84086 0.0
C823 C 0.04848 0.39961 0.86272 0.0
C824 C 0.05361 0.47456 0.84735 0.0
C825 C 0.03132 0.41232 0.89122 0.0
C826 C 0.02559 0.45544 0.89795 0.0
C827 C 0.03114 0.5302 0.88296 0.0
C828 C 0.04227 0.56186 0.86129 0.0
C829 C 0.03665 0.48681 0.87622 0.0
C830 C 0.05838 0.54932 0.83241 0.0
C831 C 0.0641 0.50611 0.82553 0.0
H832 H 0.97606 0.98706 0.3673 0.0
H833 H 0.96296 0.12395 0.36944 0.0
H834 H 0.03948 0.13193 0.36132 0.0
H835 H 0.1107 0.10054 0.35463 0.0
H836 H 0.12488 0.96378 0.35149 0.0
H837 H 0.04803 0.95541 0.35916 0.0
C838 C 0.98996 0.01858 0.36575 0.0
C839 C 0.96358 0.05479 0.36936 0.0
C840 C 0.03447 0.02308 0.3611 0.0
C841 C 0.98235 0.09544 0.36743 0.0
C842 C 0.02624 0.10011 0.36259 0.0
C843 C 0.09712 0.06887 0.35533 0.0
C844 C 0.12403 0.03293 0.35259 0.0
C845 C 0.05271 0.0642 0.35961 0.0
C846 C 0.10539 0.99214 0.35401 0.0
C847 C 0.06122 0.98727 0.35819 0.0
H848 H 0.4681 0.41887 0.18182 0.0
H849 H 0.47234 0.38678 0.08527 0.0
H850 H 0.47642 0.46254 0.07139 0.0
H851 H 0.47797 0.53835 0.0869 0.0
H852 H 0.47927 0.57009 0.18359 0.0
H853 H 0.47409 0.49443 0.19742 0.0
C854 C 0.46986 0.42867 0.15779 0.0
C855 C 0.46958 0.39745 0.13456 0.0
C856 C 0.47328 0.47224 0.15009 0.0
C857 C 0.47261 0.41031 0.10349 0.0
C858 C 0.47482 0.45359 0.09559 0.0
C859 C 0.47707 0.52854 0.11095 0.0
C860 C 0.47871 0.5597 0.13421 0.0
C861 C 0.47503 0.48488 0.11868 0.0
C862 C 0.47824 0.54665 0.16533 0.0
C863 C 0.47509 0.50343 0.17321 0.0
H864 H 0.11537 0.52355 0.65377 0.0
H865 H 0.1288 0.39752 0.61574 0.0
H866 H 0.05198 0.39501 0.60538 0.0
H867 H 0.98088 0.42849 0.60709 0.0
H868 H 0.96619 0.55361 0.64638 0.0
H869 H 0.04329 0.55663 0.65651 0.0
C870 C 0.10139 0.4957 0.64307 0.0
C871 C 0.12781 0.46079 0.63548 0.0
C872 C 0.05693 0.49428 0.63752 0.0
C873 C 0.10919 0.42461 0.62205 0.0
C874 C 0.06526 0.42324 0.61601 0.0
C875 C 0.99459 0.45655 0.61765 0.0
C876 C 0.96779 0.4909 0.62573 0.0
C877 C 0.03883 0.45786 0.62362 0.0
C878 C 0.98599 0.52665 0.64007 0.0
C879 C 0.03013 0.52846 0.64573 0.0
H880 H 0.10384 0.9772 0.12281 0.0
H881 H 0.96664 0.96542 0.12833 0.0
H882 H 0.96042 0.04149 0.13982 0.0
H883 H 0.99431 0.11199 0.14864 0.0
H884 H 0.13163 0.12217 0.1425 0.0
H885 H 0.13721 0.04663 0.13067 0.0
C886 C 0.07244 0.99115 0.12612 0.0
C887 C 0.03578 0.96518 0.12449 0.0
C888 C 0.06907 0.03497 0.1327 0.0
C889 C 0.99553 0.98421 0.12963 0.0
C890 C 0.99191 0.02791 0.13607 0.0
C891 C 0.02538 0.0977 0.14448 0.0
C892 C 0.0625 0.12302 0.14673 0.0
C893 C 0.02849 0.05371 0.13769 0.0
C894 C 0.10254 0.10367 0.14151 0.0
C895 C 0.1058 0.06033 0.13454 0.0
H896 H 0.40666 0.1062 0.66574 0.0
H897 H 0.39285 0.98565 0.61907 0.0
H898 H 0.47021 0.97939 0.61492 0.0
H899 H 0.54278 1.00964 0.62244 0.0
H900 H 0.55538 0.13191 0.66626 0.0
H901 H 0.47798 0.1361 0.67326 0.0
C902 C 0.42022 0.07865 0.65438 0.0
C903 C 0.39312 0.04663 0.64273 0.0
C904 C 0.465 0.07553 0.65145 0.0
C905 C 0.41219 0.01082 0.62866 0.0
C906 C 0.45676 1.00723 0.62607 0.0
C907 C 0.52846 0.0369 0.63378 0.0
C908 C 0.55478 0.07049 0.64374 0.0
C909 C 0.48357 0.0395 0.63719 0.0
C910 C 0.53579 0.10589 0.65811 0.0
C911 C 0.49152 0.10825 0.66217 0.0
H912 H 0.82556 0.20107 0.20491 0.0
H913 H 0.82482 0.33887 0.20378 0.0
H914 H 0.74724 0.33923 0.20663 0.0
H915 H 0.67955 0.30111 0.20277 0.0
H916 H 0.68041 0.16368 0.19596 0.0
H917 H 0.75747 0.16275 0.20367 0.0
C918 C 0.80855 0.23127 0.20517 0.0
C919 C 0.83145 0.26982 0.20363 0.0
C920 C 0.76364 0.23141 0.20517 0.0
C921 C 0.80857 0.30855 0.20518 0.0
C922 C 0.76395 0.30887 0.20635 0.0
C923 C 0.69643 0.27085 0.20268 0.0
C924 C 0.67377 0.23266 0.19803 0.0
C925 C 0.74118 0.27055 0.20525 0.0
C926 C 0.69642 0.19375 0.19959 0.0
C927 C 0.74081 0.19314 0.20354 0.0
H928 H 0.31277 0.69788 0.71248 0.0
H929 H 0.17653 0.67644 0.71132 0.0
H930 H 0.16344 0.7529 0.71626 0.0
H931 H 0.19102 0.82616 0.7117 0.0
H932 H 0.32723 0.84702 0.71486 0.0
H933 H 0.33996 0.7704 0.71919 0.0
C934 C 0.28021 0.70967 0.71434 0.0
C935 C 0.2457 0.68152 0.71085 0.0
C936 C 0.27288 0.7537 0.71696 0.0
C937 C 0.2037 0.69757 0.71331 0.0
C938 C 0.19615 0.74131 0.71601 0.0
C939 C 0.22337 0.81404 0.71451 0.0
C940 C 0.25816 0.84208 0.7123 0.0
C941 C 0.23052 0.76982 0.71654 0.0
C942 C 0.29995 0.82589 0.716 0.0
C943 C 0.30729 0.78209 0.71814 0.0
H944 H 0.84359 0.30839 0.78473 0.0
H945 H 0.84049 0.17121 0.79441 0.0
H946 H 0.76313 0.1724 0.78791 0.0
H947 H 0.69584 0.21271 0.78658 0.0
H948 H 0.69936 0.35054 0.78679 0.0
H949 H 0.77667 0.34849 0.78231 0.0
C950 C 0.82618 0.27863 0.78583 0.0
C951 C 0.8483 0.23989 0.79086 0.0
C952 C 0.78139 0.27965 0.78439 0.0
C953 C 0.8249 0.20164 0.79049 0.0
C954 C 0.78037 0.20228 0.78729 0.0
C955 C 0.71334 0.24244 0.78597 0.0
C956 C 0.69122 0.28168 0.78762 0.0
C957 C 0.75822 0.24121 0.78542 0.0
C958 C 0.71484 0.3197 0.78535 0.0
C959 C 0.75937 0.31865 0.78328 0.0
H960 H 0.21275 0.82801 0.27091 0.0
H961 H 0.35028 0.82496 0.28109 0.0
H962 H 0.34977 0.74759 0.27754 0.0
H963 H 0.3095 0.68101 0.28231 0.0
H964 H 0.17131 0.68507 0.28085 0.0
H965 H 0.17295 0.76124 0.27023 0.0
C966 C 0.2427 0.81051 0.27231 0.0
C967 C 0.2813 0.83249 0.27725 0.0
C968 C 0.24199 0.76588 0.27259 0.0
C969 C 0.31995 0.80925 0.27741 0.0
C970 C 0.31968 0.76478 0.27591 0.0
C971 C 0.2797 0.69849 0.27949 0.0
C972 C 0.24039 0.67731 0.28316 0.0
C973 C 0.28073 0.7428 0.27524 0.0
C974 C 0.20213 0.70023 0.27824 0.0
C975 C 0.20297 0.74406 0.27259 0.0
H976 H 0.21984 0.69386 0.79105 0.0
H977 H 0.18604 0.827 0.79587 0.0
H978 H 0.26181 0.84639 0.79494 0.0
H979 H 0.33737 0.82443 0.80057 0.0
H980 H 0.37057 0.69104 0.79516 0.0
H981 H 0.29533 0.67274 0.78832 0.0
C982 C 0.22918 0.72712 0.79143 0.0
C983 C 0.19767 0.75895 0.79389 0.0
C984 C 0.27261 0.73789 0.7914 0.0
C985 C 0.20987 0.80199 0.79388 0.0
C986 C 0.25314 0.81303 0.79371 0.0
C987 C 0.32823 0.79151 0.79702 0.0
C988 C 0.35931 0.75904 0.79892 0.0
C989 C 0.2848 0.78115 0.79353 0.0
C990 C 0.34703 0.71649 0.7943 0.0
C991 C 0.30406 0.70598 0.79059 0.0
H992 H 0.71458 0.17982 0.28363 0.0
H993 H 0.85252 0.18159 0.2901 0.0
H994 H 0.85201 0.25866 0.28337 0.0
H995 H 0.81223 0.32613 0.28486 0.0
H996 H 0.67406 0.32444 0.2853 0.0
H997 H 0.67498 0.24723 0.27986 0.0
C998 C 0.74462 0.19698 0.2835 0.0
C999 C 0.78343 0.17473 0.28817 0.0
C1000 C 0.74405 0.24162 0.28142 0.0
C1001 C 0.82207 0.19749 0.28658 0.0
C1002 C 0.82182 0.24181 0.28321 0.0
C1003 C 0.78226 0.30894 0.28361 0.0
C1004 C 0.74318 0.33123 0.28619 0.0
C1005 C 0.78295 0.26428 0.28206 0.0
C1006 C 0.7047 0.30846 0.28335 0.0
C1007 C 0.70515 0.26409 0.2807 0.0
H1008 H 0.32372 0.70137 0.19588 0.0
H1009 H 0.34692 0.83688 0.19608 0.0
H1010 H 0.27015 0.85083 0.19787 0.0
H1011 H 0.19649 0.82455 0.19189 0.0
H1012 H 0.17342 0.68914 0.1941 0.0
H1013 H 0.24996 0.67528 0.19978 0.0
C1014 C 0.31216 0.73394 0.1972 0.0
C1015 C 0.34113 0.76798 0.19496 0.0
C1016 C 0.26786 0.74184 0.19819 0.0
C1017 C 0.3253 0.81001 0.19681 0.0
C1018 C 0.28136 0.81809 0.1978 0.0
C1019 C 0.20808 0.79208 0.19449 0.0
C1020 C 0.17938 0.75793 0.19192 0.0
C1021 C 0.25229 0.78426 0.19732 0.0
C1022 C 0.195 0.71599 0.19537 0.0
C1023 C 0.23879 0.708 0.19846 0.0
H1024 H 0.70259 0.19993 0.70567 0.0
H1025 H 0.83857 0.1761 0.70989 0.0
H1026 H 0.85212 0.25248 0.71288 0.0
H1027 H 0.8259 0.32562 0.70621 0.0
H1028 H 0.69044 0.35052 0.70141 0.0
H1029 H 0.67581 0.27418 0.70778 0.0
C1030 C 0.73506 0.21143 0.70828 0.0
C1031 C 0.7696 0.18253 0.70711 0.0
C1032 C 0.74266 0.25554 0.70945 0.0
C1033 C 0.81155 0.19786 0.71031 0.0
C1034 C 0.81933 0.24148 0.71179 0.0
C1035 C 0.79319 0.3143 0.70744 0.0
C1036 C 0.75925 0.34324 0.70329 0.0
C1037 C 0.78525 0.27056 0.71014 0.0
C1038 C 0.71696 0.32862 0.70484 0.0
C1039 C 0.70868 0.28499 0.70801 0.0
H1040 H 0.32142 0.06628 0.23809 0.0
H1041 H 0.38175 0.09298 0.32575 0.0
H1042 H 0.42948 0.14371 0.30074 0.0
H1043 H 0.45502 0.17993 0.25375 0.0
H1044 H 0.39599 0.15117 0.16596 0.0
H1045 H 0.34701 0.10212 0.19125 0.0
C1046 C 0.34488 0.0833 0.25175 0.0
C1047 C 0.34784 0.07585 0.28374 0.0
C1048 C 0.3726 0.11218 0.2372 0.0
C1049 C 0.37871 0.09801 0.30105 0.0
C1050 C 0.40606 0.12712 0.28678 0.0
C1051 C 0.43126 0.16314 0.2402 0.0
C1052 C 0.42918 0.16939 0.20804 0.0
C1053 C 0.40339 0.13441 0.25484 0.0
C1054 C 0.39843 0.14701 0.19078 0.0
C1055 C 0.37031 0.11888 0.2052 0.0
H1056 H 0.41151 0.37545 0.80459 0.0
H1057 H 0.48263 0.33223 0.7253 0.0
H1058 H 0.43718 0.37538 0.69125 0.0
H1059 H 0.37713 0.42511 0.68387 0.0
H1060 H 0.30347 0.46569 0.76266 0.0
H1061 H 0.34993 0.42381 0.79699 0.0
C1062 C 0.41709 0.37554 0.77986 0.0
C1063 C 0.45048 0.35071 0.76752 0.0
C1064 C 0.39033 0.39989 0.76032 0.0
C1065 C 0.45705 0.35089 0.7354 0.0
C1066 C 0.43112 0.37564 0.7159 0.0
C1067 C 0.37126 0.42487 0.70857 0.0
C1068 C 0.33695 0.44862 0.72069 0.0
C1069 C 0.39765 0.4002 0.72809 0.0
C1070 C 0.32956 0.4476 0.75271 0.0
C1071 C 0.35618 0.42373 0.77237 0.0
H1072 H 0.14227 0.41148 0.31345 0.0
H1073 H 0.20297 0.46702 0.23343 0.0
H1074 H 0.15848 0.42375 0.19947 0.0
H1075 H 0.10301 0.36976 0.19246 0.0
H1076 H 0.04449 0.31144 0.27228 0.0
H1077 H 0.0875 0.35622 0.30639 0.0
C1078 C 0.14566 0.41418 0.28857 0.0
C1079 C 0.17583 0.44248 0.27598 0.0
C1080 C 0.12045 0.38869 0.26917 0.0
C1081 C 0.18012 0.44537 0.24372 0.0
C1082 C 0.15464 0.4207 0.22428 0.0
C1083 C 0.09953 0.36691 0.21733 0.0
C1084 C 0.0705 0.3374 0.22982 0.0
C1085 C 0.1248 0.3922 0.23675 0.0
C1086 C 0.06671 0.33382 0.26208 0.0
C1087 C 0.09123 0.35946 0.28159 0.0
H1088 H 0.07069 0.18988 0.74333 0.0
H1089 H 0.12624 0.15441 0.8313 0.0
H1090 H 0.17607 0.10625 0.80553 0.0
H1091 H 0.20292 0.07271 0.75785 0.0
H1092 H 0.14446 0.10642 0.67042 0.0
H1093 H 0.09706 0.15656 0.6961 0.0
C1094 C 0.0939 0.17187 0.75685 0.0
C1095 C 0.09482 0.17591 0.78913 0.0
C1096 C 0.12199 0.14368 0.74197 0.0
C1097 C 0.1248 0.15192 0.80636 0.0
C1098 C 0.15337 0.12433 0.79166 0.0
C1099 C 0.17996 0.09122 0.74447 0.0
C1100 C 0.17729 0.08574 0.71231 0.0
C1101 C 0.15212 0.11974 0.75946 0.0
C1102 C 0.14709 0.10975 0.69527 0.0
C1103 C 0.11995 0.13858 0.7099 0.0
H1104 H 0.64915 0.91679 0.68744 0.0
H1105 H 0.72334 0.96951 0.76219 0.0
H1106 H 0.6829 0.9272 0.79953 0.0
H1107 H 0.62658 0.87518 0.81093 0.0
H1108 H 0.55561 0.81861 0.73608 0.0
H1109 H 0.59469 0.86237 0.69873 0.0
C1110 C 0.65635 0.91904 0.71192 0.0
C1111 C 0.689 0.94637 0.7221 0.0
C1112 C 0.63362 0.89389 0.73319 0.0
C1113 C 0.69843 0.9486 0.75381 0.0
C1114 C 0.67526 0.9245 0.77517 0.0
C1115 C 0.61963 0.8725 0.78643 0.0
C1116 C 0.58813 0.8439 0.77625 0.0
C1117 C 0.64282 0.89705 0.76512 0.0
C1118 C 0.57983 0.84032 0.74445 0.0
C1119 C 0.60207 0.86541 0.72311 0.0
H1120 H 0.60822 0.64821 0.18985 0.0
H1121 H 0.54705 0.70514 0.26888 0.0
H1122 H 0.5886 0.65861 0.30348 0.0
H1123 H 0.64302 0.60205 0.31122 0.0
H1124 H 0.70611 0.54816 0.23181 0.0
H1125 H 0.66303 0.59314 0.19749 0.0
C1126 C 0.6038 0.65043 0.21465 0.0
C1127 C 0.57441 0.6801 0.22672 0.0
C1128 C 0.62823 0.6241 0.23437 0.0
C1129 C 0.5695 0.68271 0.25894 0.0
C1130 C 0.59321 0.65604 0.27874 0.0
C1131 C 0.64724 0.60009 0.2864 0.0
C1132 C 0.67778 0.57168 0.27413 0.0
C1133 C 0.62277 0.62666 0.26671 0.0
C1134 C 0.68304 0.56981 0.24192 0.0
C1135 C 0.65834 0.59549 0.22224 0.0
H1136 H 0.87688 0.60925 0.68453 0.0
H1137 H 0.84766 0.52369 0.75974 0.0
H1138 H 0.88739 0.56889 0.79566 0.0
H1139 H 0.9358 0.62953 0.80473 0.0
H1140 H 0.97177 0.70991 0.7282 0.0
H1141 H 0.9239 0.67058 0.69378 0.0
C1142 C 0.87862 0.60102 0.70889 0.0
C1143 C 0.85923 0.56345 0.7196 0.0
C1144 C 0.90295 0.62623 0.72911 0.0
C1145 C 0.86241 0.55254 0.75106 0.0
C1146 C 0.88512 0.57832 0.77156 0.0
C1147 C 0.93229 0.63882 0.78065 0.0
C1148 C 0.95659 0.67274 0.76893 0.0
C1149 C 0.90624 0.61481 0.76075 0.0
C1150 C 0.95296 0.684 0.7376 0.0
C1151 C 0.92577 0.66145 0.71795 0.0
H1152 H 0.96045 0.82655 0.25377 0.0
H1153 H 0.90568 0.86445 0.166 0.0
H1154 H 0.85663 0.9127 0.19187 0.0
H1155 H 0.82923 0.94505 0.23921 0.0
H1156 H 0.88507 0.90973 0.32714 0.0
H1157 H 0.9334 0.86003 0.30151 0.0
C1158 C 0.93762 0.84521 0.24039 0.0
C1159 C 0.93683 0.84173 0.20802 0.0
C1160 C 0.9096 0.87363 0.25542 0.0
C1161 C 0.90724 0.86651 0.19096 0.0
C1162 C 0.87902 0.89418 0.20572 0.0
C1163 C 0.8519 0.92644 0.25279 0.0
C1164 C 0.85332 0.93112 0.28503 0.0
C1165 C 0.87996 0.89815 0.2379 0.0
C1166 C 0.8832 0.90689 0.30223 0.0
C1167 C 0.91089 0.87832 0.28761 0.0
loop_
_geom_bond_atom_site_label_1
_geom_bond_atom_site_label_2
_geom_bond_distance
_geom_bond_site_symmetry_2
_ccdc_geom_bond_type
Co0 N4 2.148 . S
Co0 N10 2.128 . S
Co0 N20 2.194 . S
Co0 O25 2.351 . S
Co0 O26 2.155 . S
Co0 O27 2.096 . S
C1 N4 1.301 . S
C1 N5 1.328 . S
C1 H6 0.930 . S
C2 C3 1.333 . S
C2 N4 1.317 . S
C2 H7 0.930 . S
C3 C2 1.333 . S
C3 N5 1.350 . S
C3 H29 0.931 . S
N4 Co0 2.148 . S
N4 C1 1.301 . S
N4 C2 1.317 . S
N5 C1 1.328 . S
N5 C3 1.350 . S
H6 C1 0.930 . S
H7 C2 0.930 . S
C8 O9 1.224 . S
C8 O27 1.247 . S
O9 C8 1.224 . S
N10 Co0 2.128 . S
N10 C11 1.355 . S
N10 C13 1.311 . S
C11 N10 1.355 . S
C11 C12 1.363 . S
C11 H23 0.929 . S
C12 C11 1.363 . S
C12 N14 1.375 . S
C12 H30 0.931 . S
C13 N10 1.311 . S
C13 N14 1.347 . S
C13 H24 0.929 . S
N14 C12 1.375 . S
N14 C13 1.347 . S
C15 C18 1.365 . S
C15 N20 1.328 . S
C15 H21 0.929 . S
C16 C17 1.362 . S
C16 C19 1.378 . S
C16 H31 0.929 . S
C17 C16 1.362 . S
C17 C18 1.366 . S
C18 C15 1.365 . S
C18 C17 1.366 . S
C18 H32 0.930 . S
C19 C16 1.378 . S
C19 N20 1.315 . S
C19 H22 0.930 . S
N20 Co0 2.194 . S
N20 C15 1.328 . S
N20 C19 1.315 . S
H21 C15 0.929 . S
H22 C19 0.930 . S
H23 C11 0.929 . S
H24 C13 0.929 . S
O25 Co0 2.351 . S
O25 C28 1.244 . S
O26 Co0 2.155 . S
O26 C28 1.240 . S
O27 Co0 2.096 . S
O27 C8 1.247 . S
C28 O25 1.244 . S
C28 O26 1.240 . S
H29 C3 0.931 . S
H30 C12 0.931 . S
H31 C16 0.929 . S
H32 C18 0.930 . S
Co33 N37 2.148 . S
Co33 N43 2.128 . S
Co33 N53 2.194 . S
Co33 O58 2.351 . S
Co33 O59 2.155 . S
Co33 O60 2.096 . S
C34 N37 1.301 . S
C34 N38 1.328 . S
C34 H39 0.930 . S
C35 C36 1.333 . S
C35 N37 1.317 . S
C35 H40 0.930 . S
C36 C35 1.333 . S
C36 N38 1.350 . S
C36 H62 0.931 . S
N37 Co33 2.148 . S
N37 C34 1.301 . S
N37 C35 1.317 . S
N38 C34 1.328 . S
N38 C36 1.350 . S
H39 C34 0.930 . S
H40 C35 0.930 . S
C41 O42 1.224 . S
C41 O60 1.247 . S
O42 C41 1.224 . S
N43 Co33 2.128 . S
N43 C44 1.355 . S
N43 C46 1.311 . S
C44 N43 1.355 . S
C44 C45 1.363 . S
C44 H56 0.929 . S
C45 C44 1.363 . S
C45 N47 1.375 . S
C45 H63 0.931 . S
C46 N43 1.311 . S
C46 N47 1.347 . S
C46 H57 0.929 . S
N47 C45 1.375 . S
N47 C46 1.347 . S
C48 C51 1.365 . S
C48 N53 1.328 . S
C48 H54 0.929 . S
C49 C50 1.362 . S
C49 C52 1.378 . S
C49 H64 0.929 . S
C50 C49 1.362 . S
C50 C51 1.366 . S
C51 C48 1.365 . S
C51 C50 1.366 . S
C51 H65 0.930 . S
C52 C49 1.378 . S
C52 N53 1.315 . S
C52 H55 0.930 . S
N53 Co33 2.194 . S
N53 C48 1.328 . S
N53 C52 1.315 . S
H54 C48 0.929 . S
H55 C52 0.930 . S
H56 C44 0.929 . S
H57 C46 0.929 . S
O58 Co33 2.351 . S
O58 C61 1.244 . S
O59 Co33 2.155 . S
O59 C61 1.240 . S
O60 Co33 2.096 . S
O60 C41 1.247 . S
C61 O58 1.244 . S
C61 O59 1.240 . S
H62 C36 0.931 . S
H63 C45 0.931 . S
H64 C49 0.929 . S
H65 C51 0.930 . S
Co66 N70 2.148 . S
Co66 N76 2.128 . S
Co66 N86 2.194 1_455 S
Co66 O91 2.351 1_455 S
Co66 O92 2.155 . S
Co66 O93 2.096 . S
C67 N70 1.301 . S
C67 N71 1.328 . S
C67 H72 0.930 1_455 S
C68 C69 1.333 . S
C68 N70 1.317 . S
C68 H73 0.930 . S
C69 C68 1.333 . S
C69 N71 1.350 . S
C69 H95 0.931 . S
N70 Co66 2.148 . S
N70 C67 1.301 . S
N70 C68 1.317 . S
N71 C67 1.328 . S
N71 C69 1.350 . S
H72 C67 0.930 1_655 S
H73 C68 0.930 . S
C74 O75 1.224 . S
C74 O93 1.247 . S
O75 C74 1.224 . S
N76 Co66 2.128 . S
N76 C77 1.355 1_455 S
N76 C79 1.311 . S
C77 N76 1.355 1_655 S
C77 C78 1.363 . S
C77 H89 0.929 . S
C78 C77 1.363 . S
C78 N80 1.368 1_655 S
C78 H96 0.931 . S
C79 N76 1.311 . S
C79 N80 1.351 . S
C79 H90 0.929 . S
N80 C78 1.368 1_455 S
N80 C79 1.351 . S
C81 C84 1.365 . S
C81 N86 1.328 . S
C81 H87 0.929 . S
C82 C83 1.362 . S
C82 C85 1.378 . S
C82 H97 0.929 . S
C83 C82 1.362 . S
C83 C84 1.366 . S
C84 C81 1.365 . S
C84 C83 1.366 . S
C84 H98 0.930 . S
C85 C82 1.378 . S
C85 N86 1.315 . S
C85 H88 0.930 . S
N86 Co66 2.194 1_655 S
N86 C81 1.328 . S
N86 C85 1.315 . S
H87 C81 0.929 . S
H88 C85 0.930 . S
H89 C77 0.929 . S
H90 C79 0.929 . S
O91 Co66 2.351 1_655 S
O91 C94 1.244 1_655 S
O92 Co66 2.155 . S
O92 C94 1.240 . S
O93 Co66 2.096 . S
O93 C74 1.247 . S
C94 O91 1.244 1_455 S
C94 O92 1.240 . S
H95 C69 0.931 . S
H96 C78 0.931 . S
H97 C82 0.929 . S
H98 C84 0.930 . S
Co99 N103 2.148 . S
Co99 N109 2.128 . S
Co99 N119 2.194 1_545 S
Co99 O124 2.351 1_545 S
Co99 O125 2.155 . S
Co99 O126 2.096 . S
C100 N103 1.301 . S
C100 N104 1.328 . S
C100 H105 0.930 1_545 S
C101 C102 1.333 . S
C101 N103 1.317 . S
C101 H106 0.930 . S
C102 C101 1.333 . S
C102 N104 1.350 . S
C102 H128 0.931 . S
N103 Co99 2.148 . S
N103 C100 1.301 . S
N103 C101 1.317 . S
N104 C100 1.328 . S
N104 C102 1.350 . S
H105 C100 0.930 1_565 S
H106 C101 0.930 . S
C107 O108 1.224 . S
C107 O126 1.247 . S
O108 C107 1.224 . S
N109 Co99 2.128 . S
N109 C110 1.355 1_545 S
N109 C112 1.311 . S
C110 N109 1.355 1_565 S
C110 C111 1.363 . S
C110 H122 0.929 . S
C111 C110 1.363 . S
C111 N113 1.369 1_565 S
C111 H129 0.931 . S
C112 N109 1.311 . S
C112 N113 1.351 . S
C112 H123 0.929 . S
N113 C111 1.369 1_545 S
N113 C112 1.351 . S
C114 C117 1.365 . S
C114 N119 1.328 . S
C114 H120 0.929 . S
C115 C116 1.362 . S
C115 C118 1.378 . S
C115 H130 0.929 . S
C116 C115 1.362 . S
C116 C117 1.366 . S
C117 C114 1.365 . S
C117 C116 1.366 . S
C117 H131 0.930 . S
C118 C115 1.378 . S
C118 N119 1.315 . S
C118 H121 0.930 . S
N119 Co99 2.194 1_565 S
N119 C114 1.328 . S
N119 C118 1.315 . S
H120 C114 0.929 . S
H121 C118 0.930 . S
H122 C110 0.929 . S
H123 C112 0.929 . S
O124 Co99 2.351 1_565 S
O124 C127 1.244 1_565 S
O125 Co99 2.155 . S
O125 C127 1.240 . S
O126 Co99 2.096 . S
O126 C107 1.247 . S
C127 O124 1.244 1_545 S
C127 O125 1.240 . S
H128 C102 0.931 . S
H129 C111 0.931 . S
H130 C115 0.929 . S
H131 C117 0.930 . S
Co132 N136 2.148 . S
Co132 N142 2.128 . S
Co132 N152 2.194 . S
Co132 O157 2.351 . S
Co132 O158 2.155 . S
Co132 O159 2.096 . S
C133 N136 1.301 . S
C133 N137 1.328 . S
C133 H138 0.930 . S
C134 C135 1.333 . S
C134 N136 1.317 . S
C134 H139 0.930 . S
C135 C134 1.333 . S
C135 N137 1.350 . S
C135 H161 0.931 . S
N136 Co132 2.148 . S
N136 C133 1.301 . S
N136 C134 1.317 . S
N137 C133 1.328 . S
N137 C135 1.350 . S
H138 C133 0.930 . S
H139 C134 0.930 . S
C140 O141 1.224 . S
C140 O159 1.247 . S
O141 C140 1.224 . S
N142 Co132 2.128 . S
N142 C143 1.355 . S
N142 C145 1.311 . S
C143 N142 1.355 . S
C143 C144 1.363 . S
C143 H155 0.929 . S
C144 C143 1.363 . S
C144 N146 1.375 . S
C144 H162 0.931 . S
C145 N142 1.311 . S
C145 N146 1.347 . S
C145 H156 0.929 . S
N146 C144 1.375 . S
N146 C145 1.347 . S
C147 C150 1.365 . S
C147 N152 1.328 . S
C147 H153 0.929 . S
C148 C149 1.362 . S
C148 C151 1.378 . S
C148 H163 0.929 . S
C149 C148 1.362 . S
C149 C150 1.366 . S
C150 C147 1.365 . S
C150 C149 1.366 . S
C150 H164 0.930 . S
C151 C148 1.378 . S
C151 N152 1.315 . S
C151 H154 0.930 . S
N152 Co132 2.194 . S
N152 C147 1.328 . S
N152 C151 1.315 . S
H153 C147 0.929 . S
H154 C151 0.930 . S
H155 C143 0.929 . S
H156 C145 0.929 . S
O157 Co132 2.351 . S
O157 C160 1.244 . S
O158 Co132 2.155 . S
O158 C160 1.240 . S
O159 Co132 2.096 . S
O159 C140 1.247 . S
C160 O157 1.244 . S
C160 O158 1.240 . S
H161 C135 0.931 . S
H162 C144 0.931 . S
H163 C148 0.929 . S
H164 C150 0.930 . S
Co165 N169 2.148 . S
Co165 N175 2.128 . S
Co165 N185 2.194 . S
Co165 O190 2.351 . S
Co165 O191 2.155 . S
Co165 O192 2.096 . S
C166 N169 1.301 . S
C166 N170 1.328 . S
C166 H171 0.930 . S
C167 C168 1.333 . S
C167 N169 1.317 . S
C167 H172 0.930 . S
C168 C167 1.333 . S
C168 N170 1.350 . S
C168 H194 0.931 . S
N169 Co165 2.148 . S
N169 C166 1.301 . S
N169 C167 1.317 . S
N170 C166 1.328 . S
N170 C168 1.350 . S
H171 C166 0.930 . S
H172 C167 0.930 . S
C173 O174 1.224 . S
C173 O192 1.247 . S
O174 C173 1.224 . S
N175 Co165 2.128 . S
N175 C176 1.355 . S
N175 C178 1.311 . S
C176 N175 1.355 . S
C176 C177 1.363 . S
C176 H188 0.929 . S
C177 C176 1.363 . S
C177 N179 1.375 . S
C177 H195 0.931 . S
C178 N175 1.311 . S
C178 N179 1.347 . S
C178 H189 0.929 . S
N179 C177 1.375 . S
N179 C178 1.347 . S
C180 C183 1.365 . S
C180 N185 1.328 . S
C180 H186 0.929 . S
C181 C182 1.362 . S
C181 C184 1.378 . S
C181 H196 0.929 . S
C182 C181 1.362 . S
C182 C183 1.366 . S
C183 C180 1.365 . S
C183 C182 1.366 . S
C183 H197 0.930 . S
C184 C181 1.378 . S
C184 N185 1.315 . S
C184 H187 0.930 . S
N185 Co165 2.194 . S
N185 C180 1.328 . S
N185 C184 1.315 . S
H186 C180 0.929 . S
H187 C184 0.930 . S
H188 C176 0.929 . S
H189 C178 0.929 . S
O190 Co165 2.351 . S
O190 C193 1.244 . S
O191 Co165 2.155 . S
O191 C193 1.240 . S
O192 Co165 2.096 . S
O192 C173 1.247 . S
C193 O190 1.244 . S
C193 O191 1.240 . S
H194 C168 0.931 . S
H195 C177 0.931 . S
H196 C181 0.929 . S
H197 C183 0.930 . S
Co198 N202 2.148 . S
Co198 N208 2.128 . S
Co198 N218 2.194 1_455 S
Co198 O223 2.351 1_455 S
Co198 O224 2.155 . S
Co198 O225 2.096 . S
C199 N202 1.301 . S
C199 N203 1.328 . S
C199 H204 0.930 1_455 S
C200 C201 1.333 . S
C200 N202 1.317 . S
C200 H205 0.930 . S
C201 C200 1.333 . S
C201 N203 1.350 . S
C201 H227 0.931 . S
N202 Co198 2.148 . S
N202 C199 1.301 . S
N202 C200 1.317 . S
N203 C199 1.328 . S
N203 C201 1.350 . S
H204 C199 0.930 1_655 S
H205 C200 0.930 . S
C206 O207 1.224 . S
C206 O225 1.247 . S
O207 C206 1.224 . S
N208 Co198 2.128 . S
N208 C209 1.355 1_455 S
N208 C211 1.311 . S
C209 N208 1.355 1_655 S
C209 C210 1.363 . S
C209 H221 0.929 . S
C210 C209 1.363 . S
C210 N212 1.369 1_655 S
C210 H228 0.931 . S
C211 N208 1.311 . S
C211 N212 1.351 . S
C211 H222 0.929 . S
N212 C210 1.369 1_455 S
N212 C211 1.351 . S
C213 C216 1.365 . S
C213 N218 1.328 . S
C213 H219 0.929 . S
C214 C215 1.362 . S
C214 C217 1.378 . S
C214 H229 0.929 . S
C215 C214 1.362 . S
C215 C216 1.366 . S
C216 C213 1.365 . S
C216 C215 1.366 . S
C216 H230 0.930 . S
C217 C214 1.378 . S
C217 N218 1.315 . S
C217 H220 0.930 . S
N218 Co198 2.194 1_655 S
N218 C213 1.328 . S
N218 C217 1.315 . S
H219 C213 0.929 . S
H220 C217 0.930 . S
H221 C209 0.929 . S
H222 C211 0.929 . S
O223 Co198 2.351 1_655 S
O223 C226 1.244 1_655 S
O224 Co198 2.155 . S
O224 C226 1.240 . S
O225 Co198 2.096 . S
O225 C206 1.247 . S
C226 O223 1.244 1_455 S
C226 O224 1.240 . S
H227 C201 0.931 . S
H228 C210 0.931 . S
H229 C214 0.929 . S
H230 C216 0.930 . S
Co231 N235 2.148 . S
Co231 N241 2.128 . S
Co231 N251 2.194 1_545 S
Co231 O256 2.351 1_545 S
Co231 O257 2.155 . S
Co231 O258 2.096 . S
C232 N235 1.301 . S
C232 N236 1.328 . S
C232 H237 0.930 1_545 S
C233 C234 1.333 . S
C233 N235 1.317 . S
C233 H238 0.930 . S
C234 C233 1.333 . S
C234 N236 1.350 . S
C234 H260 0.931 . S
N235 Co231 2.148 . S
N235 C232 1.301 . S
N235 C233 1.317 . S
N236 C232 1.328 . S
N236 C234 1.350 . S
H237 C232 0.930 1_565 S
H238 C233 0.930 . S
C239 O240 1.224 . S
C239 O258 1.247 . S
O240 C239 1.224 . S
N241 Co231 2.128 . S
N241 C242 1.355 1_545 S
N241 C244 1.311 . S
C242 N241 1.355 1_565 S
C242 C243 1.363 . S
C242 H254 0.929 . S
C243 C242 1.363 . S
C243 N245 1.368 1_565 S
C243 H261 0.931 . S
C244 N241 1.311 . S
C244 N245 1.351 . S
C244 H255 0.929 . S
N245 C243 1.368 1_545 S
N245 C244 1.351 . S
C246 C249 1.365 . S
C246 N251 1.328 . S
C246 H252 0.929 . S
C247 C248 1.362 . S
C247 C250 1.378 . S
C247 H262 0.929 . S
C248 C247 1.362 . S
C248 C249 1.366 . S
C249 C246 1.365 . S
C249 C248 1.366 . S
C249 H263 0.930 . S
C250 C247 1.378 . S
C250 N251 1.315 . S
C250 H253 0.930 . S
N251 Co231 2.194 1_565 S
N251 C246 1.328 . S
N251 C250 1.315 . S
H252 C246 0.929 . S
H253 C250 0.930 . S
H254 C242 0.929 . S
H255 C244 0.929 . S
O256 Co231 2.351 1_565 S
O256 C259 1.244 1_565 S
O257 Co231 2.155 . S
O257 C259 1.240 . S
O258 Co231 2.096 . S
O258 C239 1.247 . S
C259 O256 1.244 1_545 S
C259 O257 1.240 . S
H260 C234 0.931 . S
H261 C243 0.931 . S
H262 C247 0.929 . S
H263 C249 0.930 . S
Co264 N268 2.148 . S
Co264 N274 2.128 . S
Co264 N284 2.194 . S
Co264 O289 2.351 . S
Co264 O290 2.155 . S
Co264 O291 2.096 . S
C265 N268 1.301 . S
C265 N269 1.328 . S
C265 H270 0.930 . S
C266 C267 1.333 . S
C266 N268 1.317 . S
C266 H271 0.930 . S
C267 C266 1.333 . S
C267 N269 1.350 . S
C267 H293 0.931 . S
N268 Co264 2.148 . S
N268 C265 1.301 . S
N268 C266 1.317 . S
N269 C265 1.328 . S
N269 C267 1.350 . S
H270 C265 0.930 . S
H271 C266 0.930 . S
C272 O273 1.224 . S
C272 O291 1.247 . S
O273 C272 1.224 . S
N274 Co264 2.128 . S
N274 C275 1.355 . S
N274 C277 1.311 . S
C275 N274 1.355 . S
C275 C276 1.363 . S
C275 H287 0.929 . S
C276 C275 1.363 . S
C276 N278 1.375 . S
C276 H294 0.931 . S
C277 N274 1.311 . S
C277 N278 1.347 . S
C277 H288 0.929 . S
N278 C276 1.375 . S
N278 C277 1.347 . S
C279 C282 1.365 . S
C279 N284 1.328 . S
C279 H285 0.929 . S
C280 C281 1.362 . S
C280 C283 1.378 . S
C280 H295 0.929 . S
C281 C280 1.362 . S
C281 C282 1.366 . S
C282 C279 1.365 . S
C282 C281 1.366 . S
C282 H296 0.930 . S
C283 C280 1.378 . S
C283 N284 1.315 . S
C283 H286 0.930 . S
N284 Co264 2.194 . S
N284 C279 1.328 . S
N284 C283 1.315 . S
H285 C279 0.929 . S
H286 C283 0.930 . S
H287 C275 0.929 . S
H288 C277 0.929 . S
O289 Co264 2.351 . S
O289 C292 1.244 . S
O290 Co264 2.155 . S
O290 C292 1.240 . S
O291 Co264 2.096 . S
O291 C272 1.247 . S
C292 O289 1.244 . S
C292 O290 1.240 . S
H293 C267 0.931 . S
H294 C276 0.931 . S
H295 C280 0.929 . S
H296 C282 0.930 . S
Co297 N301 2.148 . S
Co297 N307 2.128 . S
Co297 N317 2.194 . S
Co297 O322 2.351 . S
Co297 O323 2.155 . S
Co297 O324 2.096 . S
C298 N301 1.301 . S
C298 N302 1.328 . S
C298 H303 0.930 . S
C299 C300 1.333 . S
C299 N301 1.317 . S
C299 H304 0.930 . S
C300 C299 1.333 . S
C300 N302 1.350 . S
C300 H326 0.931 . S
N301 Co297 2.148 . S
N301 C298 1.301 . S
N301 C299 1.317 . S
N302 C298 1.328 . S
N302 C300 1.350 . S
H303 C298 0.930 . S
H304 C299 0.930 . S
C305 O306 1.224 . S
C305 O324 1.247 . S
O306 C305 1.224 . S
N307 Co297 2.128 . S
N307 C308 1.355 . S
N307 C310 1.311 . S
C308 N307 1.355 . S
C308 C309 1.363 . S
C308 H320 0.929 . S
C309 C308 1.363 . S
C309 N311 1.375 . S
C309 H327 0.931 . S
C310 N307 1.311 . S
C310 N311 1.347 . S
C310 H321 0.929 . S
N311 C309 1.375 . S
N311 C310 1.347 . S
C312 C315 1.365 . S
C312 N317 1.328 . S
C312 H318 0.929 . S
C313 C314 1.362 . S
C313 C316 1.378 . S
C313 H328 0.929 . S
C314 C313 1.362 . S
C314 C315 1.366 . S
C315 C312 1.365 . S
C315 C314 1.366 . S
C315 H329 0.930 . S
C316 C313 1.378 . S
C316 N317 1.315 . S
C316 H319 0.930 . S
N317 Co297 2.194 . S
N317 C312 1.328 . S
N317 C316 1.315 . S
H318 C312 0.929 . S
H319 C316 0.930 . S
H320 C308 0.929 . S
H321 C310 0.929 . S
O322 Co297 2.351 . S
O322 C325 1.244 . S
O323 Co297 2.155 . S
O323 C325 1.240 . S
O324 Co297 2.096 . S
O324 C305 1.247 . S
C325 O322 1.244 . S
C325 O323 1.240 . S
H326 C300 0.931 . S
H327 C309 0.931 . S
H328 C313 0.929 . S
H329 C315 0.930 . S
Co330 N334 2.148 . S
Co330 N340 2.128 . S
Co330 N350 2.194 1_655 S
Co330 O355 2.351 1_655 S
Co330 O356 2.155 . S
Co330 O357 2.096 . S
C331 N334 1.301 . S
C331 N335 1.328 . S
C331 H336 0.930 1_655 S
C332 C333 1.333 . S
C332 N334 1.317 . S
C332 H337 0.930 . S
C333 C332 1.333 . S
C333 N335 1.350 . S
C333 H359 0.931 . S
N334 Co330 2.148 . S
N334 C331 1.301 . S
N334 C332 1.317 . S
N335 C331 1.328 . S
N335 C333 1.350 . S
H336 C331 0.930 1_455 S
H337 C332 0.930 . S
C338 O339 1.224 . S
C338 O357 1.247 . S
O339 C338 1.224 . S
N340 Co330 2.128 . S
N340 C341 1.355 1_655 S
N340 C343 1.311 . S
C341 N340 1.355 1_455 S
C341 C342 1.363 . S
C341 H353 0.929 . S
C342 C341 1.363 . S
C342 N344 1.368 1_455 S
C342 H360 0.931 . S
C343 N340 1.311 . S
C343 N344 1.351 . S
C343 H354 0.929 . S
N344 C342 1.368 1_655 S
N344 C343 1.351 . S
C345 C348 1.365 . S
C345 N350 1.328 . S
C345 H351 0.929 . S
C346 C347 1.362 . S
C346 C349 1.378 . S
C346 H361 0.929 . S
C347 C346 1.362 . S
C347 C348 1.366 . S
C348 C345 1.365 . S
C348 C347 1.366 . S
C348 H362 0.930 . S
C349 C346 1.378 . S
C349 N350 1.315 . S
C349 H352 0.930 . S
N350 Co330 2.194 1_455 S
N350 C345 1.328 . S
N350 C349 1.315 . S
H351 C345 0.929 . S
H352 C349 0.930 . S
H353 C341 0.929 . S
H354 C343 0.929 . S
O355 Co330 2.351 1_455 S
O355 C358 1.244 1_455 S
O356 Co330 2.155 . S
O356 C358 1.240 . S
O357 Co330 2.096 . S
O357 C338 1.247 . S
C358 O355 1.244 1_655 S
C358 O356 1.240 . S
H359 C333 0.931 . S
H360 C342 0.931 . S
H361 C346 0.929 . S
H362 C348 0.930 . S
Co363 N367 2.148 . S
Co363 N373 2.128 . S
Co363 N383 2.194 1_565 S
Co363 O388 2.351 1_565 S
Co363 O389 2.155 . S
Co363 O390 2.096 . S
C364 N367 1.301 . S
C364 N368 1.328 . S
C364 H369 0.930 1_565 S
C365 C366 1.333 . S
C365 N367 1.317 . S
C365 H370 0.930 . S
C366 C365 1.333 . S
C366 N368 1.350 . S
C366 H392 0.931 . S
N367 Co363 2.148 . S
N367 C364 1.301 . S
N367 C365 1.317 . S
N368 C364 1.328 . S
N368 C366 1.350 . S
H369 C364 0.930 1_545 S
H370 C365 0.930 . S
C371 O372 1.224 . S
C371 O390 1.247 . S
O372 C371 1.224 . S
N373 Co363 2.128 . S
N373 C374 1.355 1_565 S
N373 C376 1.311 . S
C374 N373 1.355 1_545 S
C374 C375 1.363 . S
C374 H386 0.929 . S
C375 C374 1.363 . S
C375 N377 1.369 1_545 S
C375 H393 0.931 . S
C376 N373 1.311 . S
C376 N377 1.351 . S
C376 H387 0.929 . S
N377 C375 1.369 1_565 S
N377 C376 1.351 . S
C378 C381 1.365 . S
C378 N383 1.328 . S
C378 H384 0.929 . S
C379 C380 1.362 . S
C379 C382 1.378 . S
C379 H394 0.929 . S
C380 C379 1.362 . S
C380 C381 1.366 . S
C381 C378 1.365 . S
C381 C380 1.366 . S
C381 H395 0.930 . S
C382 C379 1.378 . S
C382 N383 1.315 . S
C382 H385 0.930 . S
N383 Co363 2.194 1_545 S
N383 C378 1.328 . S
N383 C382 1.315 . S
H384 C378 0.929 . S
H385 C382 0.930 . S
H386 C374 0.929 . S
H387 C376 0.929 . S
O388 Co363 2.351 1_545 S
O388 C391 1.244 1_545 S
O389 Co363 2.155 . S
O389 C391 1.240 . S
O390 Co363 2.096 . S
O390 C371 1.247 . S
C391 O388 1.244 1_565 S
C391 O389 1.240 . S
H392 C366 0.931 . S
H393 C375 0.931 . S
H394 C379 0.929 . S
H395 C381 0.930 . S
Co396 N400 2.148 . S
Co396 N406 2.128 . S
Co396 N416 2.194 . S
Co396 O421 2.351 . S
Co396 O422 2.155 . S
Co396 O423 2.096 . S
C397 N400 1.301 . S
C397 N401 1.328 . S
C397 H402 0.930 . S
C398 C399 1.333 . S
C398 N400 1.317 . S
C398 H403 0.930 . S
C399 C398 1.333 . S
C399 N401 1.350 . S
C399 H425 0.931 . S
N400 Co396 2.148 . S
N400 C397 1.301 . S
N400 C398 1.317 . S
N401 C397 1.328 . S
N401 C399 1.350 . S
H402 C397 0.930 . S
H403 C398 0.930 . S
C404 O405 1.224 . S
C404 O423 1.247 . S
O405 C404 1.224 . S
N406 Co396 2.128 . S
N406 C407 1.355 . S
N406 C409 1.311 . S
C407 N406 1.355 . S
C407 C408 1.363 . S
C407 H419 0.929 . S
C408 C407 1.363 . S
C408 N410 1.375 . S
C408 H426 0.931 . S
C409 N406 1.311 . S
C409 N410 1.347 . S
C409 H420 0.929 . S
N410 C408 1.375 . S
N410 C409 1.347 . S
C411 C414 1.365 . S
C411 N416 1.328 . S
C411 H417 0.929 . S
C412 C413 1.362 . S
C412 C415 1.378 . S
C412 H427 0.929 . S
C413 C412 1.362 . S
C413 C414 1.366 . S
C414 C411 1.365 . S
C414 C413 1.366 . S
C414 H428 0.930 . S
C415 C412 1.378 . S
C415 N416 1.315 . S
C415 H418 0.930 . S
N416 Co396 2.194 . S
N416 C411 1.328 . S
N416 C415 1.315 . S
H417 C411 0.929 . S
H418 C415 0.930 . S
H419 C407 0.929 . S
H420 C409 0.929 . S
O421 Co396 2.351 . S
O421 C424 1.244 . S
O422 Co396 2.155 . S
O422 C424 1.240 . S
O423 Co396 2.096 . S
O423 C404 1.247 . S
C424 O421 1.244 . S
C424 O422 1.240 . S
H425 C399 0.931 . S
H426 C408 0.931 . S
H427 C412 0.929 . S
H428 C414 0.930 . S
Co429 N433 2.148 . S
Co429 N439 2.128 . S
Co429 N449 2.194 . S
Co429 O454 2.351 . S
Co429 O455 2.155 . S
Co429 O456 2.096 . S
C430 N433 1.301 . S
C430 N434 1.328 . S
C430 H435 0.930 . S
C431 C432 1.333 . S
C431 N433 1.317 . S
C431 H436 0.930 . S
C432 C431 1.333 . S
C432 N434 1.350 . S
C432 H458 0.931 . S
N433 Co429 2.148 . S
N433 C430 1.301 . S
N433 C431 1.317 . S
N434 C430 1.328 . S
N434 C432 1.350 . S
H435 C430 0.930 . S
H436 C431 0.930 . S
C437 O438 1.224 . S
C437 O456 1.247 . S
O438 C437 1.224 . S
N439 Co429 2.128 . S
N439 C440 1.355 . S
N439 C442 1.311 . S
C440 N439 1.355 . S
C440 C441 1.363 . S
C440 H452 0.929 . S
C441 C440 1.363 . S
C441 N443 1.375 . S
C441 H459 0.931 . S
C442 N439 1.311 . S
C442 N443 1.347 . S
C442 H453 0.929 . S
N443 C441 1.375 . S
N443 C442 1.347 . S
C444 C447 1.365 . S
C444 N449 1.328 . S
C444 H450 0.929 . S
C445 C446 1.362 . S
C445 C448 1.378 . S
C445 H460 0.929 . S
C446 C445 1.362 . S
C446 C447 1.366 . S
C447 C444 1.365 . S
C447 C446 1.366 . S
C447 H461 0.930 . S
C448 C445 1.378 . S
C448 N449 1.315 . S
C448 H451 0.930 . S
N449 Co429 2.194 . S
N449 C444 1.328 . S
N449 C448 1.315 . S
H450 C444 0.929 . S
H451 C448 0.930 . S
H452 C440 0.929 . S
H453 C442 0.929 . S
O454 Co429 2.351 . S
O454 C457 1.244 . S
O455 Co429 2.155 . S
O455 C457 1.240 . S
O456 Co429 2.096 . S
O456 C437 1.247 . S
C457 O454 1.244 . S
C457 O455 1.240 . S
H458 C432 0.931 . S
H459 C441 0.931 . S
H460 C445 0.929 . S
H461 C447 0.930 . S
Co462 N466 2.148 . S
Co462 N472 2.128 . S
Co462 N482 2.194 1_655 S
Co462 O487 2.351 1_655 S
Co462 O488 2.155 . S
Co462 O489 2.096 . S
C463 N466 1.301 . S
C463 N467 1.328 . S
C463 H468 0.930 1_655 S
C464 C465 1.333 . S
C464 N466 1.317 . S
C464 H469 0.930 . S
C465 C464 1.333 . S
C465 N467 1.350 . S
C465 H491 0.931 . S
N466 Co462 2.148 . S
N466 C463 1.301 . S
N466 C464 1.317 . S
N467 C463 1.328 . S
N467 C465 1.350 . S
H468 C463 0.930 1_455 S
H469 C464 0.930 . S
C470 O471 1.224 . S
C470 O489 1.247 . S
O471 C470 1.224 . S
N472 Co462 2.128 . S
N472 C473 1.355 1_655 S
N472 C475 1.311 . S
C473 N472 1.355 1_455 S
C473 C474 1.363 . S
C473 H485 0.929 . S
C474 C473 1.363 . S
C474 N476 1.369 1_455 S
C474 H492 0.931 . S
C475 N472 1.311 . S
C475 N476 1.351 . S
C475 H486 0.929 . S
N476 C474 1.369 1_655 S
N476 C475 1.351 . S
C477 C480 1.365 . S
C477 N482 1.328 . S
C477 H483 0.929 . S
C478 C479 1.362 . S
C478 C481 1.378 . S
C478 H493 0.929 . S
C479 C478 1.362 . S
C479 C480 1.366 . S
C480 C477 1.365 . S
C480 C479 1.366 . S
C480 H494 0.930 . S
C481 C478 1.378 . S
C481 N482 1.315 . S
C481 H484 0.930 . S
N482 Co462 2.194 1_455 S
N482 C477 1.328 . S
N482 C481 1.315 . S
H483 C477 0.929 . S
H484 C481 0.930 . S
H485 C473 0.929 . S
H486 C475 0.929 . S
O487 Co462 2.351 1_455 S
O487 C490 1.244 1_455 S
O488 Co462 2.155 . S
O488 C490 1.240 . S
O489 Co462 2.096 . S
O489 C470 1.247 . S
C490 O487 1.244 1_655 S
C490 O488 1.240 . S
H491 C465 0.931 . S
H492 C474 0.931 . S
H493 C478 0.929 . S
H494 C480 0.930 . S
Co495 N499 2.148 . S
Co495 N505 2.128 . S
Co495 N515 2.194 1_565 S
Co495 O520 2.351 1_565 S
Co495 O521 2.155 . S
Co495 O522 2.096 . S
C496 N499 1.301 . S
C496 N500 1.328 . S
C496 H501 0.930 1_565 S
C497 C498 1.333 . S
C497 N499 1.317 . S
C497 H502 0.930 . S
C498 C497 1.333 . S
C498 N500 1.350 . S
C498 H524 0.931 . S
N499 Co495 2.148 . S
N499 C496 1.301 . S
N499 C497 1.317 . S
N500 C496 1.328 . S
N500 C498 1.350 . S
H501 C496 0.930 1_545 S
H502 C497 0.930 . S
C503 O504 1.224 . S
C503 O522 1.247 . S
O504 C503 1.224 . S
N505 Co495 2.128 . S
N505 C506 1.355 1_565 S
N505 C508 1.311 . S
C506 N505 1.355 1_545 S
C506 C507 1.363 . S
C506 H518 0.929 . S
C507 C506 1.363 . S
C507 N509 1.368 1_545 S
C507 H525 0.931 . S
C508 N505 1.311 . S
C508 N509 1.351 . S
C508 H519 0.929 . S
N509 C507 1.368 1_565 S
N509 C508 1.351 . S
C510 C513 1.365 . S
C510 N515 1.328 . S
C510 H516 0.929 . S
C511 C512 1.362 . S
C511 C514 1.378 . S
C511 H526 0.929 . S
C512 C511 1.362 . S
C512 C513 1.366 . S
C513 C510 1.365 . S
C513 C512 1.366 . S
C513 H527 0.930 . S
C514 C511 1.378 . S
C514 N515 1.315 . S
C514 H517 0.930 . S
N515 Co495 2.194 1_545 S
N515 C510 1.328 . S
N515 C514 1.315 . S
H516 C510 0.929 . S
H517 C514 0.930 . S
H518 C506 0.929 . S
H519 C508 0.929 . S
O520 Co495 2.351 1_545 S
O520 C523 1.244 1_545 S
O521 Co495 2.155 . S
O521 C523 1.240 . S
O522 Co495 2.096 . S
O522 C503 1.247 . S
C523 O520 1.244 1_565 S
C523 O521 1.240 . S
H524 C498 0.931 . S
H525 C507 0.931 . S
H526 C511 0.929 . S
H527 C513 0.930 . S
H528 C534 0.930 . S
H529 C537 0.930 . S
H530 C538 0.930 . S
H531 C539 0.930 . S
H532 C542 0.930 . S
H533 C543 0.930 . S
C534 H528 0.930 . S
C534 C535 1.355 . S
C534 C536 1.415 . S
C535 C534 1.355 . S
C535 C537 1.419 . S
C536 C534 1.415 . S
C536 C541 1.425 1_554 S
C536 C543 1.409 1_554 S
C537 H529 0.930 . S
C537 C535 1.419 . S
C537 C538 1.362 . S
C538 H530 0.930 . S
C538 C537 1.362 . S
C538 C541 1.409 1_554 S
C539 H531 0.930 . S
C539 C540 1.355 . S
C539 C541 1.415 . S
C540 C539 1.355 . S
C540 C542 1.419 . S
C541 C536 1.425 1_556 S
C541 C538 1.409 1_556 S
C541 C539 1.415 . S
C542 H532 0.930 . S
C542 C540 1.419 . S
C542 C543 1.362 . S
C543 H533 0.930 . S
C543 C536 1.409 1_556 S
C543 C542 1.362 . S
H544 C550 0.930 . S
H545 C553 0.930 . S
H546 C554 0.930 . S
H547 C555 0.930 . S
H548 C558 0.930 . S
H549 C559 0.930 . S
C550 H544 0.930 . S
C550 C551 1.355 . S
C550 C552 1.415 . S
C551 C550 1.355 . S
C551 C553 1.419 . S
C552 C550 1.415 . S
C552 C557 1.425 . S
C552 C559 1.409 . S
C553 H545 0.930 . S
C553 C551 1.419 . S
C553 C554 1.362 . S
C554 H546 0.930 . S
C554 C553 1.362 . S
C554 C557 1.409 . S
C555 H547 0.930 . S
C555 C556 1.355 . S
C555 C557 1.415 . S
C556 C555 1.355 . S
C556 C558 1.419 . S
C557 C552 1.425 . S
C557 C554 1.409 . S
C557 C555 1.415 . S
C558 H548 0.930 . S
C558 C556 1.419 . S
C558 C559 1.362 . S
C559 H549 0.930 . S
C559 C552 1.409 . S
C559 C558 1.362 . S
H560 C566 0.930 . S
H561 C569 0.930 . S
H562 C570 0.930 . S
H563 C571 0.930 . S
H564 C574 0.930 . S
H565 C575 0.930 . S
C566 H560 0.930 . S
C566 C567 1.355 . S
C566 C568 1.415 . S
C567 C566 1.355 . S
C567 C569 1.419 . S
C568 C566 1.415 . S
C568 C573 1.425 1_556 S
C568 C575 1.409 1_556 S
C569 H561 0.930 . S
C569 C567 1.419 . S
C569 C570 1.362 . S
C570 H562 0.930 . S
C570 C569 1.362 . S
C570 C573 1.409 1_556 S
C571 H563 0.930 . S
C571 C572 1.355 . S
C571 C573 1.415 . S
C572 C571 1.355 . S
C572 C574 1.419 . S
C573 C568 1.425 1_554 S
C573 C570 1.409 1_554 S
C573 C571 1.415 . S
C574 H564 0.930 . S
C574 C572 1.419 . S
C574 C575 1.362 . S
C575 H565 0.930 . S
C575 C568 1.409 1_554 S
C575 C574 1.362 . S
H576 C582 0.930 . S
H577 C585 0.930 1_565 S
H578 C586 0.930 . S
H579 C587 0.930 1_565 S
H580 C590 0.930 . S
H581 C591 0.930 . S
C582 H576 0.930 . S
C582 C583 1.355 . S
C582 C584 1.415 . S
C583 C582 1.355 . S
C583 C585 1.419 . S
C584 C582 1.415 . S
C584 C589 1.425 . S
C584 C591 1.409 . S
C585 H577 0.930 1_545 S
C585 C583 1.419 . S
C585 C586 1.362 1_545 S
C586 H578 0.930 . S
C586 C585 1.362 1_565 S
C586 C589 1.409 1_565 S
C587 H579 0.930 1_545 S
C587 C588 1.355 . S
C587 C589 1.415 . S
C588 C587 1.355 . S
C588 C590 1.419 . S
C589 C584 1.425 . S
C589 C586 1.409 1_545 S
C589 C587 1.415 . S
C590 H580 0.930 . S
C590 C588 1.419 . S
C590 C591 1.362 . S
C591 H581 0.930 . S
C591 C584 1.409 . S
C591 C590 1.362 . S
H592 C598 0.930 . S
H593 C601 0.930 . S
H594 C602 0.930 . S
H595 C603 0.930 . S
H596 C606 0.930 . S
H597 C607 0.930 . S
C598 H592 0.930 . S
C598 C599 1.355 . S
C598 C600 1.415 . S
C599 C598 1.355 . S
C599 C601 1.419 . S
C600 C598 1.415 . S
C600 C605 1.425 1_556 S
C600 C607 1.409 1_556 S
C601 H593 0.930 . S
C601 C599 1.419 . S
C601 C602 1.362 . S
C602 H594 0.930 . S
C602 C601 1.362 . S
C602 C605 1.409 1_556 S
C603 H595 0.930 . S
C603 C604 1.355 . S
C603 C605 1.415 . S
C604 C603 1.355 . S
C604 C606 1.419 . S
C605 C600 1.425 1_554 S
C605 C602 1.409 1_554 S
C605 C603 1.415 . S
C606 H596 0.930 . S
C606 C604 1.419 . S
C606 C607 1.362 . S
C607 H597 0.930 . S
C607 C600 1.409 1_554 S
C607 C606 1.362 . S
H608 C614 0.930 . S
H609 C617 0.930 . S
H610 C618 0.930 . S
H611 C619 0.930 . S
H612 C622 0.930 . S
H613 C623 0.930 . S
C614 H608 0.930 . S
C614 C615 1.355 . S
C614 C616 1.415 . S
C615 C614 1.355 . S
C615 C617 1.419 . S
C616 C614 1.415 . S
C616 C621 1.425 . S
C616 C623 1.409 . S
C617 H609 0.930 . S
C617 C615 1.419 . S
C617 C618 1.362 . S
C618 H610 0.930 . S
C618 C617 1.362 . S
C618 C621 1.409 . S
C619 H611 0.930 . S
C619 C620 1.355 . S
C619 C621 1.415 . S
C620 C619 1.355 . S
C620 C622 1.419 . S
C621 C616 1.425 . S
C621 C618 1.409 . S
C621 C619 1.415 . S
C622 H612 0.930 . S
C622 C620 1.419 . S
C622 C623 1.362 . S
C623 H613 0.930 . S
C623 C616 1.409 . S
C623 C622 1.362 . S
H624 C630 0.930 . S
H625 C633 0.930 . S
H626 C634 0.930 . S
H627 C635 0.930 . S
H628 C638 0.930 1_455 S
H629 C639 0.930 1_455 S
C630 H624 0.930 . S
C630 C631 1.355 . S
C630 C632 1.415 . S
C631 C630 1.355 . S
C631 C633 1.419 . S
C632 C630 1.415 . S
C632 C637 1.425 1_554 S
C632 C639 1.409 1_554 S
C633 H625 0.930 . S
C633 C631 1.419 . S
C633 C634 1.362 . S
C634 H626 0.930 . S
C634 C633 1.362 . S
C634 C637 1.409 1_554 S
C635 H627 0.930 . S
C635 C636 1.355 . S
C635 C637 1.415 . S
C636 C635 1.355 . S
C636 C638 1.419 . S
C637 C632 1.425 1_556 S
C637 C634 1.409 1_556 S
C637 C635 1.415 . S
C638 H628 0.930 1_655 S
C638 C636 1.419 . S
C638 C639 1.362 . S
C639 H629 0.930 1_655 S
C639 C632 1.409 1_556 S
C639 C638 1.362 . S
H640 C646 0.930 1_545 S
H641 C649 0.930 . S
H642 C650 0.930 . S
H643 C651 0.930 . S
H644 C654 0.930 1_545 S
H645 C655 0.930 . S
C646 H640 0.930 1_565 S
C646 C647 1.355 . S
C646 C648 1.415 . S
C647 C646 1.355 . S
C647 C649 1.419 . S
C648 C646 1.415 . S
C648 C653 1.425 . S
C648 C655 1.409 1_565 S
C649 H641 0.930 . S
C649 C647 1.419 . S
C649 C650 1.362 . S
C650 H642 0.930 . S
C650 C649 1.362 . S
C650 C653 1.409 . S
C651 H643 0.930 . S
C651 C652 1.355 . S
C651 C653 1.415 . S
C652 C651 1.355 . S
C652 C654 1.419 . S
C653 C648 1.425 . S
C653 C650 1.409 . S
C653 C651 1.415 . S
C654 H644 0.930 1_565 S
C654 C652 1.419 . S
C654 C655 1.362 1_565 S
C655 H645 0.930 . S
C655 C648 1.409 1_545 S
C655 C654 1.362 1_545 S
H656 C662 0.930 . S
H657 C665 0.930 . S
H658 C666 0.930 . S
H659 C667 0.930 . S
H660 C670 0.930 . S
H661 C671 0.930 . S
C662 H656 0.930 . S
C662 C663 1.355 . S
C662 C664 1.415 . S
C663 C662 1.355 . S
C663 C665 1.419 . S
C664 C662 1.415 . S
C664 C669 1.425 . S
C664 C671 1.409 . S
C665 H657 0.930 . S
C665 C663 1.419 . S
C665 C666 1.362 . S
C666 H658 0.930 . S
C666 C665 1.362 . S
C666 C669 1.409 . S
C667 H659 0.930 . S
C667 C668 1.355 . S
C667 C669 1.415 1_545 S
C668 C667 1.355 . S
C668 C670 1.419 . S
C669 C664 1.425 . S
C669 C666 1.409 . S
C669 C667 1.415 1_565 S
C670 H660 0.930 . S
C670 C668 1.419 . S
C670 C671 1.362 1_545 S
C671 H661 0.930 . S
C671 C664 1.409 . S
C671 C670 1.362 1_565 S
H672 C678 0.930 . S
H673 C681 0.930 . S
H674 C682 0.930 . S
H675 C683 0.930 . S
H676 C686 0.930 . S
H677 C687 0.930 . S
C678 H672 0.930 . S
C678 C679 1.355 . S
C678 C680 1.415 . S
C679 C678 1.355 . S
C679 C681 1.419 . S
C680 C678 1.415 . S
C680 C685 1.425 . S
C680 C687 1.409 . S
C681 H673 0.930 . S
C681 C679 1.419 . S
C681 C682 1.362 . S
C682 H674 0.930 . S
C682 C681 1.362 . S
C682 C685 1.409 . S
C683 H675 0.930 . S
C683 C684 1.355 . S
C683 C685 1.415 . S
C684 C683 1.355 . S
C684 C686 1.419 . S
C685 C680 1.425 . S
C685 C682 1.409 . S
C685 C683 1.415 . S
C686 H676 0.930 . S
C686 C684 1.419 . S
C686 C687 1.362 . S
C687 H677 0.930 . S
C687 C680 1.409 . S
C687 C686 1.362 . S
H688 C694 0.930 . S
H689 C697 0.930 . S
H690 C698 0.930 . S
H691 C699 0.930 . S
H692 C702 0.930 . S
H693 C703 0.930 . S
C694 H688 0.930 . S
C694 C695 1.355 1_455 S
C694 C696 1.415 . S
C695 C694 1.355 1_655 S
C695 C697 1.419 . S
C696 C694 1.415 . S
C696 C701 1.425 1_455 S
C696 C703 1.409 . S
C697 H689 0.930 . S
C697 C695 1.419 . S
C697 C698 1.362 . S
C698 H690 0.930 . S
C698 C697 1.362 . S
C698 C701 1.409 . S
C699 H691 0.930 . S
C699 C700 1.355 . S
C699 C701 1.415 . S
C700 C699 1.355 . S
C700 C702 1.419 1_655 S
C701 C696 1.425 1_655 S
C701 C698 1.409 . S
C701 C699 1.415 . S
C702 H692 0.930 . S
C702 C700 1.419 1_455 S
C702 C703 1.362 . S
C703 H693 0.930 . S
C703 C696 1.409 . S
C703 C702 1.362 . S
H704 C710 0.930 1_545 S
H705 C713 0.930 . S
H706 C714 0.930 . S
H707 C715 0.930 . S
H708 C718 0.930 . S
H709 C719 0.930 . S
C710 H704 0.930 1_565 S
C710 C711 1.355 . S
C710 C712 1.418 . S
C711 C710 1.355 . S
C711 C713 1.419 . S
C712 C710 1.418 . S
C712 C717 1.438 . S
C712 C719 1.394 1_565 S
C713 H705 0.930 . S
C713 C711 1.419 . S
C713 C714 1.362 . S
C714 H706 0.930 . S
C714 C713 1.362 . S
C714 C717 1.409 . S
C715 H707 0.930 . S
C715 C716 1.355 1_565 S
C715 C717 1.415 1_455 S
C716 C715 1.355 1_545 S
C716 C718 1.419 . S
C717 C712 1.438 . S
C717 C714 1.409 . S
C717 C715 1.415 1_655 S
C718 H708 0.930 . S
C718 C716 1.419 . S
C718 C719 1.362 1_455 S
C719 H709 0.930 . S
C719 C712 1.394 1_545 S
C719 C718 1.362 1_655 S
H720 C726 0.930 . S
H721 C729 0.930 . S
H722 C730 0.930 . S
H723 C731 0.930 . S
H724 C734 0.930 . S
H725 C735 0.930 . S
C726 H720 0.930 . S
C726 C727 1.355 . S
C726 C728 1.415 . S
C727 C726 1.355 . S
C727 C729 1.419 . S
C728 C726 1.415 . S
C728 C733 1.425 . S
C728 C735 1.409 . S
C729 H721 0.930 . S
C729 C727 1.419 . S
C729 C730 1.362 . S
C730 H722 0.930 . S
C730 C729 1.362 . S
C730 C733 1.409 . S
C731 H723 0.930 . S
C731 C732 1.355 . S
C731 C733 1.415 . S
C732 C731 1.355 . S
C732 C734 1.419 . S
C733 C728 1.425 . S
C733 C730 1.409 . S
C733 C731 1.415 . S
C734 H724 0.930 . S
C734 C732 1.419 . S
C734 C735 1.362 . S
C735 H725 0.930 . S
C735 C728 1.409 . S
C735 C734 1.362 . S
H736 C742 0.930 . S
H737 C745 0.930 . S
H738 C746 0.930 . S
H739 C747 0.930 . S
H740 C750 0.930 . S
H741 C751 0.930 . S
C742 H736 0.930 . S
C742 C743 1.355 . S
C742 C744 1.415 . S
C743 C742 1.355 . S
C743 C745 1.419 . S
C744 C742 1.415 . S
C744 C749 1.425 . S
C744 C751 1.409 1_655 S
C745 H737 0.930 . S
C745 C743 1.419 . S
C745 C746 1.362 . S
C746 H738 0.930 . S
C746 C745 1.362 . S
C746 C749 1.409 . S
C747 H739 0.930 . S
C747 C748 1.355 . S
C747 C749 1.415 1_455 S
C748 C747 1.355 . S
C748 C750 1.419 . S
C749 C744 1.425 . S
C749 C746 1.409 . S
C749 C747 1.415 1_655 S
C750 H740 0.930 . S
C750 C748 1.419 . S
C750 C751 1.362 . S
C751 H741 0.930 . S
C751 C744 1.409 1_455 S
C751 C750 1.362 . S
H752 C758 0.930 . S
H753 C761 0.930 . S
H754 C762 0.930 . S
H755 C763 0.930 1_455 S
H756 C766 0.930 . S
H757 C767 0.930 . S
C758 H752 0.930 . S
C758 C759 1.355 1_655 S
C758 C760 1.415 1_545 S
C759 C758 1.355 1_455 S
C759 C761 1.419 . S
C760 C758 1.415 1_565 S
C760 C765 1.425 . S
C760 C767 1.409 . S
C761 H753 0.930 . S
C761 C759 1.419 . S
C761 C762 1.362 1_545 S
C762 H754 0.930 . S
C762 C761 1.362 1_565 S
C762 C765 1.409 1_455 S
C763 H755 0.930 1_655 S
C763 C764 1.355 . S
C763 C765 1.415 . S
C764 C763 1.355 . S
C764 C766 1.419 . S
C765 C760 1.425 . S
C765 C762 1.409 1_655 S
C765 C763 1.415 . S
C766 H756 0.930 . S
C766 C764 1.419 . S
C766 C767 1.362 . S
C767 H757 0.930 . S
C767 C760 1.409 . S
C767 C766 1.362 . S
H768 C774 0.930 . S
H769 C777 0.930 . S
H770 C778 0.930 . S
H771 C779 0.930 . S
H772 C782 0.930 . S
H773 C783 0.930 . S
C774 H768 0.930 . S
C774 C775 1.355 1_545 S
C774 C776 1.415 . S
C775 C774 1.355 1_565 S
C775 C777 1.419 . S
C776 C774 1.415 . S
C776 C781 1.425 1_545 S
C776 C783 1.409 . S
C777 H769 0.930 . S
C777 C775 1.419 . S
C777 C778 1.362 . S
C778 H770 0.930 . S
C778 C777 1.362 . S
C778 C781 1.409 . S
C779 H771 0.930 . S
C779 C780 1.355 . S
C779 C781 1.415 . S
C780 C779 1.355 . S
C780 C782 1.419 1_565 S
C781 C776 1.425 1_565 S
C781 C778 1.409 . S
C781 C779 1.415 . S
C782 H772 0.930 . S
C782 C780 1.419 1_545 S
C782 C783 1.362 . S
C783 H773 0.930 . S
C783 C776 1.409 . S
C783 C782 1.362 . S
H784 C790 0.930 . S
H785 C793 0.930 . S
H786 C794 0.930 . S
H787 C795 0.930 . S
H788 C798 0.930 . S
H789 C799 0.931 . S
C790 H784 0.930 . S
C790 C791 1.355 . S
C790 C792 1.415 . S
C791 C790 1.355 . S
C791 C793 1.419 . S
C792 C790 1.415 . S
C792 C797 1.425 . S
C792 C799 1.411 . S
C793 H785 0.930 . S
C793 C791 1.419 . S
C793 C794 1.362 . S
C794 H786 0.930 . S
C794 C793 1.362 . S
C794 C797 1.409 . S
C795 H787 0.930 . S
C795 C796 1.355 . S
C795 C797 1.415 1_565 S
C796 C795 1.355 . S
C796 C798 1.419 . S
C797 C792 1.425 . S
C797 C794 1.409 . S
C797 C795 1.415 1_545 S
C798 H788 0.930 . S
C798 C796 1.419 . S
C798 C799 1.360 1_565 S
C799 H789 0.931 . S
C799 C792 1.411 . S
C799 C798 1.360 1_545 S
H800 C806 0.930 . S
H801 C809 0.930 . S
H802 C810 0.930 . S
H803 C811 0.930 . S
H804 C814 0.930 . S
H805 C815 0.930 . S
C806 H800 0.930 . S
C806 C807 1.355 . S
C806 C808 1.415 . S
C807 C806 1.355 . S
C807 C809 1.419 . S
C808 C806 1.415 . S
C808 C813 1.425 . S
C808 C815 1.409 . S
C809 H801 0.930 . S
C809 C807 1.419 . S
C809 C810 1.362 . S
C810 H802 0.930 . S
C810 C809 1.362 . S
C810 C813 1.409 . S
C811 H803 0.930 . S
C811 C812 1.355 . S
C811 C813 1.415 . S
C812 C811 1.355 . S
C812 C814 1.419 . S
C813 C808 1.425 . S
C813 C810 1.409 . S
C813 C811 1.415 . S
C814 H804 0.930 . S
C814 C812 1.419 . S
C814 C815 1.362 . S
C815 H805 0.930 . S
C815 C808 1.409 . S
C815 C814 1.362 . S
H816 C822 0.930 1_655 S
H817 C825 0.930 . S
H818 C826 0.930 . S
H819 C827 0.930 . S
H820 C830 0.930 . S
H821 C831 0.930 . S
C822 H816 0.930 1_455 S
C822 C823 1.355 . S
C822 C824 1.415 . S
C823 C822 1.355 . S
C823 C825 1.419 . S
C824 C822 1.415 . S
C824 C829 1.425 . S
C824 C831 1.409 1_455 S
C825 H817 0.930 . S
C825 C823 1.419 . S
C825 C826 1.362 . S
C826 H818 0.930 . S
C826 C825 1.362 . S
C826 C829 1.409 . S
C827 H819 0.930 . S
C827 C828 1.355 1_455 S
C827 C829 1.415 . S
C828 C827 1.355 1_655 S
C828 C830 1.419 . S
C829 C824 1.425 . S
C829 C826 1.409 . S
C829 C827 1.415 . S
C830 H820 0.930 . S
C830 C828 1.419 . S
C830 C831 1.362 . S
C831 H821 0.930 . S
C831 C824 1.409 1_655 S
C831 C830 1.362 . S
H832 C838 0.930 . S
H833 C841 0.930 . S
H834 C842 0.930 . S
H835 C843 0.930 . S
H836 C846 0.930 . S
H837 C847 0.930 . S
C838 H832 0.930 . S
C838 C839 1.355 1_565 S
C838 C840 1.415 1_655 S
C839 C838 1.355 1_545 S
C839 C841 1.419 . S
C840 C838 1.415 1_455 S
C840 C845 1.425 1_565 S
C840 C847 1.409 . S
C841 H833 0.930 . S
C841 C839 1.419 . S
C841 C842 1.362 . S
C842 H834 0.930 . S
C842 C841 1.362 . S
C842 C845 1.409 1_655 S
C843 H835 0.930 . S
C843 C844 1.355 . S
C843 C845 1.415 . S
C844 C843 1.355 . S
C844 C846 1.419 1_545 S
C845 C840 1.425 1_545 S
C845 C842 1.409 1_455 S
C845 C843 1.415 . S
C846 H836 0.930 . S
C846 C844 1.419 1_565 S
C846 C847 1.362 . S
C847 H837 0.930 . S
C847 C840 1.409 . S
C847 C846 1.362 . S
H848 C854 0.930 . S
H849 C857 0.930 . S
H850 C858 0.930 . S
H851 C859 0.930 . S
H852 C862 0.930 . S
H853 C863 0.930 . S
C854 H848 0.930 . S
C854 C855 1.355 . S
C854 C856 1.415 . S
C855 C854 1.355 . S
C855 C857 1.419 . S
C856 C854 1.415 . S
C856 C861 1.425 . S
C856 C863 1.409 . S
C857 H849 0.930 . S
C857 C855 1.419 . S
C857 C858 1.362 . S
C858 H850 0.930 . S
C858 C857 1.362 . S
C858 C861 1.409 . S
C859 H851 0.930 . S
C859 C860 1.355 . S
C859 C861 1.415 . S
C860 C859 1.355 . S
C860 C862 1.419 . S
C861 C856 1.425 . S
C861 C858 1.409 . S
C861 C859 1.415 . S
C862 H852 0.930 . S
C862 C860 1.419 . S
C862 C863 1.362 . S
C863 H853 0.930 . S
C863 C856 1.409 . S
C863 C862 1.362 . S
H864 C870 0.930 . S
H865 C873 0.930 . S
H866 C874 0.930 . S
H867 C875 0.930 . S
H868 C878 0.930 . S
H869 C879 0.930 . S
C870 H864 0.930 . S
C870 C871 1.355 . S
C870 C872 1.415 . S
C871 C870 1.355 . S
C871 C873 1.419 . S
C872 C870 1.415 . S
C872 C877 1.425 . S
C872 C879 1.409 . S
C873 H865 0.930 . S
C873 C871 1.419 . S
C873 C874 1.362 . S
C874 H866 0.930 . S
C874 C873 1.362 . S
C874 C877 1.409 . S
C875 H867 0.930 . S
C875 C876 1.355 . S
C875 C877 1.415 1_655 S
C876 C875 1.355 . S
C876 C878 1.419 . S
C877 C872 1.425 . S
C877 C874 1.409 . S
C877 C875 1.415 1_455 S
C878 H868 0.930 . S
C878 C876 1.419 . S
C878 C879 1.362 1_655 S
C879 H869 0.930 . S
C879 C872 1.409 . S
C879 C878 1.362 1_455 S
H880 C886 0.930 . S
H881 C889 0.930 . S
H882 C890 0.930 . S
H883 C891 0.930 . S
H884 C894 0.930 . S
H885 C895 0.930 . S
C886 H880 0.930 . S
C886 C887 1.355 1_455 S
C886 C888 1.415 1_565 S
C887 C886 1.355 1_655 S
C887 C889 1.419 . S
C888 C886 1.415 1_545 S
C888 C893 1.425 1_455 S
C888 C895 1.409 . S
C889 H881 0.930 . S
C889 C887 1.419 . S
C889 C890 1.362 1_565 S
C890 H882 0.930 . S
C890 C889 1.362 1_545 S
C890 C893 1.409 . S
C891 H883 0.930 . S
C891 C892 1.355 1_655 S
C891 C893 1.415 . S
C892 C891 1.355 1_455 S
C892 C894 1.419 . S
C893 C888 1.425 1_655 S
C893 C890 1.409 . S
C893 C891 1.415 . S
C894 H884 0.930 . S
C894 C892 1.419 . S
C894 C895 1.362 . S
C895 H885 0.930 . S
C895 C888 1.409 . S
C895 C894 1.362 . S
H896 C902 0.930 . S
H897 C905 0.930 . S
H898 C906 0.930 . S
H899 C907 0.930 . S
H900 C910 0.930 . S
H901 C911 0.930 . S
C902 H896 0.930 . S
C902 C903 1.355 . S
C902 C904 1.415 . S
C903 C902 1.355 . S
C903 C905 1.419 1_545 S
C904 C902 1.415 . S
C904 C909 1.425 1_545 S
C904 C911 1.409 . S
C905 H897 0.930 . S
C905 C903 1.419 1_565 S
C905 C906 1.362 . S
C906 H898 0.930 . S
C906 C905 1.362 . S
C906 C909 1.409 . S
C907 H899 0.930 . S
C907 C908 1.340 1_565 S
C907 C909 1.415 . S
C908 C907 1.340 1_545 S
C908 C910 1.443 . S
C909 C904 1.425 1_565 S
C909 C906 1.409 . S
C909 C907 1.415 . S
C910 H900 0.930 . S
C910 C908 1.443 . S
C910 C911 1.362 . S
C911 H901 0.930 . S
C911 C904 1.409 . S
C911 C910 1.362 . S
H912 C918 0.930 . S
H913 C921 0.930 . S
H914 C922 0.930 . S
H915 C923 0.930 . S
H916 C926 0.930 . S
H917 C927 0.930 . S
C918 H912 0.930 . S
C918 C919 1.355 . S
C918 C920 1.415 . S
C919 C918 1.355 . S
C919 C921 1.419 . S
C920 C918 1.415 . S
C920 C925 1.425 . S
C920 C927 1.409 . S
C921 H913 0.930 . S
C921 C919 1.419 . S
C921 C922 1.362 . S
C922 H914 0.930 . S
C922 C921 1.362 . S
C922 C925 1.409 . S
C923 H915 0.930 . S
C923 C924 1.355 . S
C923 C925 1.415 . S
C924 C923 1.355 . S
C924 C926 1.419 . S
C925 C920 1.425 . S
C925 C922 1.409 . S
C925 C923 1.415 . S
C926 H916 0.930 . S
C926 C924 1.419 . S
C926 C927 1.362 . S
C927 H917 0.930 . S
C927 C920 1.409 . S
C927 C926 1.362 . S
H928 C934 0.930 . S
H929 C937 0.930 . S
H930 C938 0.930 . S
H931 C939 0.930 . S
H932 C942 0.930 . S
H933 C943 0.930 . S
C934 H928 0.930 . S
C934 C935 1.355 . S
C934 C936 1.415 . S
C935 C934 1.355 . S
C935 C937 1.419 . S
C936 C934 1.415 . S
C936 C941 1.425 . S
C936 C943 1.409 . S
C937 H929 0.930 . S
C937 C935 1.419 . S
C937 C938 1.362 . S
C938 H930 0.930 . S
C938 C937 1.362 . S
C938 C941 1.409 . S
C939 H931 0.930 . S
C939 C940 1.355 . S
C939 C941 1.415 . S
C940 C939 1.355 . S
C940 C942 1.419 . S
C941 C936 1.425 . S
C941 C938 1.409 . S
C941 C939 1.415 . S
C942 H932 0.930 . S
C942 C940 1.419 . S
C942 C943 1.362 . S
C943 H933 0.930 . S
C943 C936 1.409 . S
C943 C942 1.362 . S
H944 C950 0.930 . S
H945 C953 0.930 . S
H946 C954 0.930 . S
H947 C955 0.930 . S
H948 C958 0.930 . S
H949 C959 0.930 . S
C950 H944 0.930 . S
C950 C951 1.355 . S
C950 C952 1.415 . S
C951 C950 1.355 . S
C951 C953 1.419 . S
C952 C950 1.415 . S
C952 C957 1.425 . S
C952 C959 1.409 . S
C953 H945 0.930 . S
C953 C951 1.419 . S
C953 C954 1.362 . S
C954 H946 0.930 . S
C954 C953 1.362 . S
C954 C957 1.409 . S
C955 H947 0.930 . S
C955 C956 1.355 . S
C955 C957 1.415 . S
C956 C955 1.355 . S
C956 C958 1.419 . S
C957 C952 1.425 . S
C957 C954 1.409 . S
C957 C955 1.415 . S
C958 H948 0.930 . S
C958 C956 1.419 . S
C958 C959 1.362 . S
C959 H949 0.930 . S
C959 C952 1.409 . S
C959 C958 1.362 . S
H960 C966 0.930 . S
H961 C969 0.930 . S
H962 C970 0.930 . S
H963 C971 0.930 . S
H964 C974 0.930 . S
H965 C975 0.930 . S
C966 H960 0.930 . S
C966 C967 1.355 . S
C966 C968 1.415 . S
C967 C966 1.355 . S
C967 C969 1.419 . S
C968 C966 1.415 . S
C968 C973 1.425 . S
C968 C975 1.409 . S
C969 H961 0.930 . S
C969 C967 1.419 . S
C969 C970 1.362 . S
C970 H962 0.930 . S
C970 C969 1.362 . S
C970 C973 1.409 . S
C971 H963 0.930 . S
C971 C972 1.355 . S
C971 C973 1.415 . S
C972 C971 1.355 . S
C972 C974 1.419 . S
C973 C968 1.425 . S
C973 C970 1.409 . S
C973 C971 1.415 . S
C974 H964 0.930 . S
C974 C972 1.419 . S
C974 C975 1.362 . S
C975 H965 0.930 . S
C975 C968 1.409 . S
C975 C974 1.362 . S
H976 C982 0.930 . S
H977 C985 0.930 . S
H978 C986 0.930 . S
H979 C987 0.930 . S
H980 C990 0.930 . S
H981 C991 0.930 . S
C982 H976 0.930 . S
C982 C983 1.355 . S
C982 C984 1.415 . S
C983 C982 1.355 . S
C983 C985 1.419 . S
C984 C982 1.415 . S
C984 C989 1.425 . S
C984 C991 1.409 . S
C985 H977 0.930 . S
C985 C983 1.419 . S
C985 C986 1.362 . S
C986 H978 0.930 . S
C986 C985 1.362 . S
C986 C989 1.409 . S
C987 H979 0.930 . S
C987 C988 1.355 . S
C987 C989 1.415 . S
C988 C987 1.355 . S
C988 C990 1.419 . S
C989 C984 1.425 . S
C989 C986 1.409 . S
C989 C987 1.415 . S
C990 H980 0.930 . S
C990 C988 1.419 . S
C990 C991 1.362 . S
C991 H981 0.930 . S
C991 C984 1.409 . S
C991 C990 1.362 . S
H992 C998 0.930 . S
H993 C1001 0.930 . S
H994 C1002 0.930 . S
H995 C1003 0.930 . S
H996 C1006 0.930 . S
H997 C1007 0.930 . S
C998 H992 0.930 . S
C998 C999 1.355 . S
C998 C1000 1.415 . S
C999 C998 1.355 . S
C999 C1001 1.419 . S
C1000 C998 1.415 . S
C1000 C1005 1.425 . S
C1000 C1007 1.409 . S
C1001 H993 0.930 . S
C1001 C999 1.419 . S
C1001 C1002 1.362 . S
C1002 H994 0.930 . S
C1002 C1001 1.362 . S
C1002 C1005 1.409 . S
C1003 H995 0.930 . S
C1003 C1004 1.355 . S
C1003 C1005 1.415 . S
C1004 C1003 1.355 . S
C1004 C1006 1.419 . S
C1005 C1000 1.425 . S
C1005 C1002 1.409 . S
C1005 C1003 1.415 . S
C1006 H996 0.930 . S
C1006 C1004 1.419 . S
C1006 C1007 1.362 . S
C1007 H997 0.930 . S
C1007 C1000 1.409 . S
C1007 C1006 1.362 . S
H1008 C1014 0.930 . S
H1009 C1017 0.930 . S
H1010 C1018 0.930 . S
H1011 C1019 0.930 . S
H1012 C1022 0.930 . S
H1013 C1023 0.930 . S
C1014 H1008 0.930 . S
C1014 C1015 1.355 . S
C1014 C1016 1.415 . S
C1015 C1014 1.355 . S
C1015 C1017 1.419 . S
C1016 C1014 1.415 . S
C1016 C1021 1.425 . S
C1016 C1023 1.409 . S
C1017 H1009 0.930 . S
C1017 C1015 1.419 . S
C1017 C1018 1.362 . S
C1018 H1010 0.930 . S
C1018 C1017 1.362 . S
C1018 C1021 1.409 . S
C1019 H1011 0.930 . S
C1019 C1020 1.355 . S
C1019 C1021 1.415 . S
C1020 C1019 1.355 . S
C1020 C1022 1.419 . S
C1021 C1016 1.425 . S
C1021 C1018 1.409 . S
C1021 C1019 1.415 . S
C1022 H1012 0.930 . S
C1022 C1020 1.419 . S
C1022 C1023 1.362 . S
C1023 H1013 0.930 . S
C1023 C1016 1.409 . S
C1023 C1022 1.362 . S
H1024 C1030 0.930 . S
H1025 C1033 0.930 . S
H1026 C1034 0.930 . S
H1027 C1035 0.930 . S
H1028 C1038 0.930 . S
H1029 C1039 0.930 . S
C1030 H1024 0.930 . S
C1030 C1031 1.355 . S
C1030 C1032 1.415 . S
C1031 C1030 1.355 . S
C1031 C1033 1.419 . S
C1032 C1030 1.415 . S
C1032 C1037 1.425 . S
C1032 C1039 1.409 . S
C1033 H1025 0.930 . S
C1033 C1031 1.419 . S
C1033 C1034 1.362 . S
C1034 H1026 0.930 . S
C1034 C1033 1.362 . S
C1034 C1037 1.409 . S
C1035 H1027 0.930 . S
C1035 C1036 1.355 . S
C1035 C1037 1.415 . S
C1036 C1035 1.355 . S
C1036 C1038 1.419 . S
C1037 C1032 1.425 . S
C1037 C1034 1.409 . S
C1037 C1035 1.415 . S
C1038 H1028 0.930 . S
C1038 C1036 1.419 . S
C1038 C1039 1.362 . S
C1039 H1029 0.930 . S
C1039 C1032 1.409 . S
C1039 C1038 1.362 . S
H1040 C1046 0.930 . S
H1041 C1049 0.930 . S
H1042 C1050 0.930 . S
H1043 C1051 0.930 . S
H1044 C1054 0.930 . S
H1045 C1055 0.930 . S
C1046 H1040 0.930 . S
C1046 C1047 1.355 . S
C1046 C1048 1.415 . S
C1047 C1046 1.355 . S
C1047 C1049 1.419 . S
C1048 C1046 1.415 . S
C1048 C1053 1.425 . S
C1048 C1055 1.409 . S
C1049 H1041 0.930 . S
C1049 C1047 1.419 . S
C1049 C1050 1.362 . S
C1050 H1042 0.930 . S
C1050 C1049 1.362 . S
C1050 C1053 1.409 . S
C1051 H1043 0.930 . S
C1051 C1052 1.355 . S
C1051 C1053 1.415 . S
C1052 C1051 1.355 . S
C1052 C1054 1.419 . S
C1053 C1048 1.425 . S
C1053 C1050 1.409 . S
C1053 C1051 1.415 . S
C1054 H1044 0.930 . S
C1054 C1052 1.419 . S
C1054 C1055 1.362 . S
C1055 H1045 0.930 . S
C1055 C1048 1.409 . S
C1055 C1054 1.362 . S
H1056 C1062 0.930 . S
H1057 C1065 0.930 . S
H1058 C1066 0.930 . S
H1059 C1067 0.930 . S
H1060 C1070 0.930 . S
H1061 C1071 0.930 . S
C1062 H1056 0.930 . S
C1062 C1063 1.355 . S
C1062 C1064 1.415 . S
C1063 C1062 1.355 . S
C1063 C1065 1.419 . S
C1064 C1062 1.415 . S
C1064 C1069 1.425 . S
C1064 C1071 1.409 . S
C1065 H1057 0.930 . S
C1065 C1063 1.419 . S
C1065 C1066 1.362 . S
C1066 H1058 0.930 . S
C1066 C1065 1.362 . S
C1066 C1069 1.409 . S
C1067 H1059 0.930 . S
C1067 C1068 1.355 . S
C1067 C1069 1.415 . S
C1068 C1067 1.355 . S
C1068 C1070 1.419 . S
C1069 C1064 1.425 . S
C1069 C1066 1.409 . S
C1069 C1067 1.415 . S
C1070 H1060 0.930 . S
C1070 C1068 1.419 . S
C1070 C1071 1.362 . S
C1071 H1061 0.930 . S
C1071 C1064 1.409 . S
C1071 C1070 1.362 . S
H1072 C1078 0.930 . S
H1073 C1081 0.930 . S
H1074 C1082 0.930 . S
H1075 C1083 0.930 . S
H1076 C1086 0.930 . S
H1077 C1087 0.930 . S
C1078 H1072 0.930 . S
C1078 C1079 1.355 . S
C1078 C1080 1.415 . S
C1079 C1078 1.355 . S
C1079 C1081 1.419 . S
C1080 C1078 1.415 . S
C1080 C1085 1.425 . S
C1080 C1087 1.409 . S
C1081 H1073 0.930 . S
C1081 C1079 1.419 . S
C1081 C1082 1.362 . S
C1082 H1074 0.930 . S
C1082 C1081 1.362 . S
C1082 C1085 1.409 . S
C1083 H1075 0.930 . S
C1083 C1084 1.355 . S
C1083 C1085 1.415 . S
C1084 C1083 1.355 . S
C1084 C1086 1.419 . S
C1085 C1080 1.425 . S
C1085 C1082 1.409 . S
C1085 C1083 1.415 . S
C1086 H1076 0.930 . S
C1086 C1084 1.419 . S
C1086 C1087 1.362 . S
C1087 H1077 0.930 . S
C1087 C1080 1.409 . S
C1087 C1086 1.362 . S
H1088 C1094 0.930 . S
H1089 C1097 0.930 . S
H1090 C1098 0.930 . S
H1091 C1099 0.930 . S
H1092 C1102 0.930 . S
H1093 C1103 0.930 . S
C1094 H1088 0.930 . S
C1094 C1095 1.355 . S
C1094 C1096 1.415 . S
C1095 C1094 1.355 . S
C1095 C1097 1.419 . S
C1096 C1094 1.415 . S
C1096 C1101 1.425 . S
C1096 C1103 1.409 . S
C1097 H1089 0.930 . S
C1097 C1095 1.419 . S
C1097 C1098 1.362 . S
C1098 H1090 0.930 . S
C1098 C1097 1.362 . S
C1098 C1101 1.409 . S
C1099 H1091 0.930 . S
C1099 C1100 1.355 . S
C1099 C1101 1.415 . S
C1100 C1099 1.355 . S
C1100 C1102 1.419 . S
C1101 C1096 1.425 . S
C1101 C1098 1.409 . S
C1101 C1099 1.415 . S
C1102 H1092 0.930 . S
C1102 C1100 1.419 . S
C1102 C1103 1.362 . S
C1103 H1093 0.930 . S
C1103 C1096 1.409 . S
C1103 C1102 1.362 . S
H1104 C1110 0.930 . S
H1105 C1113 0.930 . S
H1106 C1114 0.930 . S
H1107 C1115 0.930 . S
H1108 C1118 0.930 . S
H1109 C1119 0.930 . S
C1110 H1104 0.930 . S
C1110 C1111 1.355 . S
C1110 C1112 1.415 . S
C1111 C1110 1.355 . S
C1111 C1113 1.419 . S
C1112 C1110 1.415 . S
C1112 C1117 1.425 . S
C1112 C1119 1.409 . S
C1113 H1105 0.930 . S
C1113 C1111 1.419 . S
C1113 C1114 1.362 . S
C1114 H1106 0.930 . S
C1114 C1113 1.362 . S
C1114 C1117 1.409 . S
C1115 H1107 0.930 . S
C1115 C1116 1.355 . S
C1115 C1117 1.415 . S
C1116 C1115 1.355 . S
C1116 C1118 1.419 . S
C1117 C1112 1.425 . S
C1117 C1114 1.409 . S
C1117 C1115 1.415 . S
C1118 H1108 0.930 . S
C1118 C1116 1.419 . S
C1118 C1119 1.362 . S
C1119 H1109 0.930 . S
C1119 C1112 1.409 . S
C1119 C1118 1.362 . S
H1120 C1126 0.930 . S
H1121 C1129 0.930 . S
H1122 C1130 0.930 . S
H1123 C1131 0.930 . S
H1124 C1134 0.930 . S
H1125 C1135 0.930 . S
C1126 H1120 0.930 . S
C1126 C1127 1.355 . S
C1126 C1128 1.415 . S
C1127 C1126 1.355 . S
C1127 C1129 1.419 . S
C1128 C1126 1.415 . S
C1128 C1133 1.425 . S
C1128 C1135 1.409 . S
C1129 H1121 0.930 . S
C1129 C1127 1.419 . S
C1129 C1130 1.362 . S
C1130 H1122 0.930 . S
C1130 C1129 1.362 . S
C1130 C1133 1.409 . S
C1131 H1123 0.930 . S
C1131 C1132 1.355 . S
C1131 C1133 1.415 . S
C1132 C1131 1.355 . S
C1132 C1134 1.419 . S
C1133 C1128 1.425 . S
C1133 C1130 1.409 . S
C1133 C1131 1.415 . S
C1134 H1124 0.930 . S
C1134 C1132 1.419 . S
C1134 C1135 1.362 . S
C1135 H1125 0.930 . S
C1135 C1128 1.409 . S
C1135 C1134 1.362 . S
H1136 C1142 0.930 . S
H1137 C1145 0.930 . S
H1138 C1146 0.930 . S
H1139 C1147 0.930 . S
H1140 C1150 0.930 . S
H1141 C1151 0.930 . S
C1142 H1136 0.930 . S
C1142 C1143 1.355 . S
C1142 C1144 1.415 . S
C1143 C1142 1.355 . S
C1143 C1145 1.419 . S
C1144 C1142 1.415 . S
C1144 C1149 1.425 . S
C1144 C1151 1.409 . S
C1145 H1137 0.930 . S
C1145 C1143 1.419 . S
C1145 C1146 1.362 . S
C1146 H1138 0.930 . S
C1146 C1145 1.362 . S
C1146 C1149 1.409 . S
C1147 H1139 0.930 . S
C1147 C1148 1.355 . S
C1147 C1149 1.415 . S
C1148 C1147 1.355 . S
C1148 C1150 1.419 . S
C1149 C1144 1.425 . S
C1149 C1146 1.409 . S
C1149 C1147 1.415 . S
C1150 H1140 0.930 . S
C1150 C1148 1.419 . S
C1150 C1151 1.362 . S
C1151 H1141 0.930 . S
C1151 C1144 1.409 . S
C1151 C1150 1.362 . S
H1152 C1158 0.930 . S
H1153 C1161 0.930 . S
H1154 C1162 0.930 . S
H1155 C1163 0.930 . S
H1156 C1166 0.930 . S
H1157 C1167 0.930 . S
C1158 H1152 0.930 . S
C1158 C1159 1.355 . S
C1158 C1160 1.415 . S
C1159 C1158 1.355 . S
C1159 C1161 1.419 . S
C1160 C1158 1.415 . S
C1160 C1165 1.425 . S
C1160 C1167 1.409 . S
C1161 H1153 0.930 . S
C1161 C1159 1.419 . S
C1161 C1162 1.362 . S
C1162 H1154 0.930 . S
C1162 C1161 1.362 . S
C1162 C1165 1.409 . S
C1163 H1155 0.930 . S
C1163 C1164 1.355 . S
C1163 C1165 1.415 . S
C1164 C1163 1.355 . S
C1164 C1166 1.419 . S
C1165 C1160 1.425 . S
C1165 C1162 1.409 . S
C1165 C1163 1.415 . S
C1166 H1156 0.930 . S
C1166 C1164 1.419 . S
C1166 C1167 1.362 . S
C1167 H1157 0.930 . S
C1167 C1160 1.409 . S
C1167 C1166 1.362 . S
C535 C28 1.566 . S
C540 C160 1.535 . S
C551 C193 1.565 . S
C556 C61 1.533 . S
C567 C226 1.544 . S
C572 C94 1.566 . S
C583 C259 1.533 . S
C588 C127 1.565 . S
C599 C292 1.546 . S
C604 C424 1.567 . S
C615 C325 1.540 . S
C620 C457 1.567 . S
C631 C490 1.566 . S
C636 C358 1.536 . S
C647 C391 1.544 . S
C652 C523 1.524 . S
C663 N401 1.363 . S
C668 N14 1.359 . S
C679 N434 1.353 . S
C684 N47 1.295 . S
C695 N80 1.302 1_655 S
C700 N467 1.355 . S
C711 N500 1.341 . S
C716 N113 1.339 . S
C727 N269 1.364 . S
C732 N146 1.361 . S
C743 N302 1.353 . S
C748 N179 1.295 . S
C759 N212 1.310 . S
C764 N335 1.334 . S
C775 N245 1.302 1_565 S
C780 N368 1.355 . S
C791 N137 1.368 . S
C796 N278 1.350 . S
C807 N170 1.358 . S
C812 N311 1.300 . S
C823 N203 1.362 . S
C828 N344 1.358 . S
C839 N377 1.293 1_545 S
C844 N236 1.348 . S
C855 N5 1.370 . S
C860 N410 1.353 . S
C871 N38 1.344 . S
C876 N443 1.338 . S
C887 N476 1.357 . S
C892 N71 1.356 . S
C903 N104 1.360 . S
C908 N509 1.308 1_545 S
C919 C83 1.409 . S
C924 C17 1.401 . S
C935 C50 1.395 . S
C940 C116 1.379 . S
C951 C215 1.390 . S
C956 C149 1.414 . S
C967 C248 1.411 . S
C972 C182 1.400 . S
C983 C347 1.383 . S
C988 C281 1.392 . S
C999 C380 1.410 . S
C1004 C314 1.400 . S
C1015 C413 1.382 . S
C1020 C479 1.393 . S
C1031 C512 1.379 . S
C1036 C446 1.399 . S
C1047 C239 1.167 . S
C1052 C8 1.123 . S
C1063 C140 1.182 . S
C1068 C41 1.128 . S
C1079 C173 1.146 . S
C1084 C74 1.194 . S
C1095 C206 1.142 . S
C1100 C107 1.138 . S
C1111 C503 1.183 . S
C1116 C272 1.130 . S
C1127 C404 1.145 . S
C1132 C305 1.188 . S
C1143 C437 1.162 . S
C1148 C338 1.191 . S
C1159 C470 1.140 . S
C1164 C371 1.140 . S
