# Generated by pormake.
# Topology zfp, (5)-cn, num edge types: 1
# Building blocks:
#     Node 0, Type 0, BuildingBlock: XOMCOT_clean_sbu_1, # of connection points: 5
#     Node 1, Type 0, BuildingBlock: XOMCOT_clean_sbu_1, # of connection points: 5
#     Node 2, Type 0, BuildingBlock: XOMCOT_clean_sbu_1, # of connection points: 5
#     Node 3, Type 0, BuildingBlock: XOMCOT_clean_sbu_1, # of connection points: 5
#     Node 4, Type 0, BuildingBlock: XOMCOT_clean_sbu_1, # of connection points: 5
#     Node 5, Type 0, BuildingBlock: XOMCOT_clean_sbu_1, # of connection points: 5
#     Node 6, Type 0, BuildingBlock: XOMCOT_clean_sbu_1, # of connection points: 5
#     Node 7, Type 0, BuildingBlock: XOMCOT_clean_sbu_1, # of connection points: 5
#     Node 8, Type 0, BuildingBlock: XOMCOT_clean_sbu_1, # of connection points: 5
#     Node 9, Type 0, BuildingBlock: XOMCOT_clean_sbu_1, # of connection points: 5
#     Node 10, Type 0, BuildingBlock: XOMCOT_clean_sbu_1, # of connection points: 5
#     Node 11, Type 0, BuildingBlock: XOMCOT_clean_sbu_1, # of connection points: 5
#     Node 12, Type 0, BuildingBlock: XOMCOT_clean_sbu_1, # of connection points: 5
#     Node 13, Type 0, BuildingBlock: XOMCOT_clean_sbu_1, # of connection points: 5
#     Node 14, Type 0, BuildingBlock: XOMCOT_clean_sbu_1, # of connection points: 5
#     Node 15, Type 0, BuildingBlock: XOMCOT_clean_sbu_1, # of connection points: 5
#     Edge 16, Type (0, 0), BuildingBlock: ZUJKAS_clean_linker_0, # of connection points: 2
#     Edge 17, Type (0, 0), BuildingBlock: ZUJKAS_clean_linker_0, # of connection points: 2
#     Edge 18, Type (0, 0), BuildingBlock: ZUJKAS_clean_linker_0, # of connection points: 2
#     Edge 19, Type (0, 0), BuildingBlock: ZUJKAS_clean_linker_0, # of connection points: 2
#     Edge 20, Type (0, 0), BuildingBlock: ZUJKAS_clean_linker_0, # of connection points: 2
#     Edge 21, Type (0, 0), BuildingBlock: ZUJKAS_clean_linker_0, # of connection points: 2
#     Edge 22, Type (0, 0), BuildingBlock: ZUJKAS_clean_linker_0, # of connection points: 2
#     Edge 23, Type (0, 0), BuildingBlock: ZUJKAS_clean_linker_0, # of connection points: 2
#     Edge 24, Type (0, 0), BuildingBlock: ZUJKAS_clean_linker_0, # of connection points: 2
#     Edge 25, Type (0, 0), BuildingBlock: ZUJKAS_clean_linker_0, # of connection points: 2
#     Edge 26, Type (0, 0), BuildingBlock: ZUJKAS_clean_linker_0, # of connection points: 2
#     Edge 27, Type (0, 0), BuildingBlock: ZUJKAS_clean_linker_0, # of connection points: 2
#     Edge 28, Type (0, 0), BuildingBlock: ZUJKAS_clean_linker_0, # of connection points: 2
#     Edge 29, Type (0, 0), BuildingBlock: ZUJKAS_clean_linker_0, # of connection points: 2
#     Edge 30, Type (0, 0), BuildingBlock: ZUJKAS_clean_linker_0, # of connection points: 2
#     Edge 31, Type (0, 0), BuildingBlock: ZUJKAS_clean_linker_0, # of connection points: 2
#     Edge 32, Type (0, 0), BuildingBlock: ZUJKAS_clean_linker_0, # of connection points: 2
#     Edge 33, Type (0, 0), BuildingBlock: ZUJKAS_clean_linker_0, # of connection points: 2
#     Edge 34, Type (0, 0), BuildingBlock: ZUJKAS_clean_linker_0, # of connection points: 2
#     Edge 35, Type (0, 0), BuildingBlock: ZUJKAS_clean_linker_0, # of connection points: 2
#     Edge 36, Type (0, 0), BuildingBlock: ZUJKAS_clean_linker_0, # of connection points: 2
#     Edge 37, Type (0, 0), BuildingBlock: ZUJKAS_clean_linker_0, # of connection points: 2
#     Edge 38, Type (0, 0), BuildingBlock: ZUJKAS_clean_linker_0, # of connection points: 2
#     Edge 39, Type (0, 0), BuildingBlock: ZUJKAS_clean_linker_0, # of connection points: 2
#     Edge 40, Type (0, 0), BuildingBlock: ZUJKAS_clean_linker_0, # of connection points: 2
#     Edge 41, Type (0, 0), BuildingBlock: ZUJKAS_clean_linker_0, # of connection points: 2
#     Edge 42, Type (0, 0), BuildingBlock: ZUJKAS_clean_linker_0, # of connection points: 2
#     Edge 43, Type (0, 0), BuildingBlock: ZUJKAS_clean_linker_0, # of connection points: 2
#     Edge 44, Type (0, 0), BuildingBlock: ZUJKAS_clean_linker_0, # of connection points: 2
#     Edge 45, Type (0, 0), BuildingBlock: ZUJKAS_clean_linker_0, # of connection points: 2
#     Edge 46, Type (0, 0), BuildingBlock: ZUJKAS_clean_linker_0, # of connection points: 2
#     Edge 47, Type (0, 0), BuildingBlock: ZUJKAS_clean_linker_0, # of connection points: 2
#     Edge 48, Type (0, 0), BuildingBlock: ZUJKAS_clean_linker_0, # of connection points: 2
#     Edge 49, Type (0, 0), BuildingBlock: ZUJKAS_clean_linker_0, # of connection points: 2
#     Edge 50, Type (0, 0), BuildingBlock: ZUJKAS_clean_linker_0, # of connection points: 2
#     Edge 51, Type (0, 0), BuildingBlock: ZUJKAS_clean_linker_0, # of connection points: 2
#     Edge 52, Type (0, 0), BuildingBlock: ZUJKAS_clean_linker_0, # of connection points: 2
#     Edge 53, Type (0, 0), BuildingBlock: ZUJKAS_clean_linker_0, # of connection points: 2
#     Edge 54, Type (0, 0), BuildingBlock: ZUJKAS_clean_linker_0, # of connection points: 2
#     Edge 55, Type (0, 0), BuildingBlock: ZUJKAS_clean_linker_0, # of connection points: 2
# Relax obj value: 0.292
# Max RMSD: 0.214
# Mean RMSD: 0.214
data_MOF--net-zfp--node1-XOMCOT_clean_sbu_1--edge1-ZUJKAS_clean_linker_0
_symmetry_space_group_name_H-M    P1
_symmetry_Int_Tables_number       1
_symmetry_cell_setting            triclinic
loop_
_symmetry_equiv_pos_as_xyz
'x, y, z'
_cell_length_a     38.358393
_cell_length_b     38.280162
_cell_length_c     87.46109
_cell_angle_alpha  89.965205
_cell_angle_beta   90.059772
_cell_angle_gamma 90.054801
loop_
_atom_site_label
_atom_site_type_symbol
_atom_site_fract_x
_atom_site_fract_y
_atom_site_fract_z
_atom_type_partial_charge
C0 C 0.19746 0.304 0.11175 0.0
C1 C 0.19678 0.30266 0.09607 0.0
N2 N 0.16747 0.286 0.09172 0.0
N3 N 0.16883 0.28809 0.11731 0.0
C4 C 0.15089 0.27738 0.10482 0.0
H5 H 0.21756 0.31583 0.11871 0.0
Co6 Co 0.16071 0.28379 0.13819 0.0
C7 C 0.08534 0.26798 0.1422 0.0
O8 O 0.08718 0.29019 0.15361 0.0
N9 N 0.15368 0.27832 0.15955 0.0
C10 C 0.14213 0.25004 0.18124 0.0
C11 C 0.14363 0.24742 0.16562 0.0
C12 C 0.15921 0.29906 0.17188 0.0
N13 N 0.15207 0.28248 0.18516 0.0
O14 O 0.1885 0.24156 0.13805 0.0
H15 H 0.13797 0.22419 0.15903 0.0
H16 H 0.16868 0.32555 0.17135 0.0
O17 O 0.11323 0.26074 0.13447 0.0
C18 C 0.21803 0.2534 0.14274 0.0
O19 O 0.21958 0.28586 0.14756 0.0
N20 N 0.14049 0.32787 0.13772 0.0
C21 C 0.12942 0.39621 0.12854 0.0
C22 C 0.10757 0.3695 0.12338 0.0
C23 C 0.11399 0.33548 0.12783 0.0
C24 C 0.16179 0.35384 0.14297 0.0
C25 C 0.15615 0.38857 0.13882 0.0
H26 H 0.10008 0.3153 0.12191 0.0
H27 H 0.18528 0.3474 0.14914 0.0
H28 H 0.12644 0.26331 0.10528 0.0
H29 H 0.21617 0.31351 0.08843 0.0
H30 H 0.13549 0.22929 0.18914 0.0
H31 H 0.0867 0.37468 0.11532 0.0
H32 H 0.1737 0.40881 0.1428 0.0
C33 C 0.7069 0.18795 0.61354 0.0
C34 C 0.70713 0.18884 0.59788 0.0
N35 N 0.73177 0.16662 0.59287 0.0
N36 N 0.73149 0.16552 0.61853 0.0
C37 C 0.74622 0.15275 0.6056 0.0
H38 H 0.6888 0.20173 0.62083 0.0
Co39 Co 0.7367 0.15391 0.63925 0.0
C40 C 0.79036 0.09066 0.63071 0.0
O41 O 0.82152 0.09921 0.62574 0.0
N42 N 0.74141 0.14259 0.66022 0.0
C43 C 0.75542 0.11667 0.68217 0.0
C44 C 0.75792 0.11498 0.66656 0.0
C45 C 0.72907 0.16067 0.67238 0.0
N46 N 0.73741 0.14557 0.68587 0.0
O47 O 0.77235 0.19013 0.6411 0.0
H48 H 0.77137 0.09466 0.66048 0.0
H49 H 0.71451 0.1847 0.6714 0.0
O50 O 0.76922 0.11549 0.63408 0.0
C51 C 0.75382 0.21715 0.64426 0.0
O52 O 0.72013 0.21262 0.64607 0.0
N53 N 0.69921 0.12437 0.63738 0.0
C54 C 0.63571 0.1107 0.62383 0.0
C55 C 0.66556 0.09247 0.61925 0.0
C56 C 0.69729 0.10012 0.62601 0.0
C57 C 0.6698 0.13909 0.64326 0.0
C58 C 0.63748 0.13269 0.63657 0.0
H59 H 0.7204 0.09 0.62063 0.0
H60 H 0.67185 0.15942 0.65178 0.0
H61 H 0.76646 0.13313 0.60546 0.0
H62 H 0.68945 0.20358 0.59069 0.0
H63 H 0.76591 0.09776 0.69013 0.0
H64 H 0.66491 0.07433 0.60975 0.0
H65 H 0.61479 0.14689 0.64051 0.0
C66 C 0.83233 0.71015 0.11218 0.0
C67 C 0.83395 0.70996 0.09655 0.0
N68 N 0.85918 0.73227 0.09212 0.0
N69 N 0.85642 0.7324 0.11771 0.0
C70 C 0.87265 0.7455 0.10521 0.0
H71 H 0.8145 0.69514 0.11915 0.0
Co72 Co 0.86025 0.74039 0.13859 0.0
C73 C 0.93311 0.76195 0.14502 0.0
O74 O 0.92954 0.74337 0.15754 0.0
N75 N 0.86246 0.74903 0.1599 0.0
C76 C 0.86622 0.77977 0.18144 0.0
C77 C 0.86624 0.78146 0.16577 0.0
C78 C 0.85966 0.72811 0.17234 0.0
N79 N 0.86207 0.74616 0.18556 0.0
O80 O 0.83112 0.78119 0.13615 0.0
H81 H 0.86902 0.80498 0.15902 0.0
H82 H 0.85635 0.70019 0.17189 0.0
O83 O 0.90681 0.76526 0.13585 0.0
C84 C 0.80106 0.76862 0.13955 0.0
O85 O 0.79917 0.73624 0.14446 0.0
N86 N 0.88266 0.69753 0.14025 0.0
C87 C 0.89778 0.62898 0.13293 0.0
C88 C 0.92057 0.65575 0.12873 0.0
C89 C 0.91213 0.68994 0.13216 0.0
C90 C 0.86081 0.67135 0.14485 0.0
C91 C 0.86822 0.63654 0.14153 0.0
H92 H 0.92718 0.70993 0.12661 0.0
H93 H 0.83575 0.67765 0.14974 0.0
H94 H 0.89323 0.76483 0.10566 0.0
H95 H 0.81783 0.69444 0.08898 0.0
H96 H 0.86832 0.80172 0.18917 0.0
H97 H 0.9434 0.65045 0.1218 0.0
H98 H 0.84989 0.61619 0.14463 0.0
C99 C 0.32337 0.84205 0.61318 0.0
C100 C 0.32514 0.8437 0.59752 0.0
N101 N 0.29807 0.86286 0.59244 0.0
N102 N 0.29544 0.86024 0.61804 0.0
C103 C 0.28021 0.87232 0.6051 0.0
H104 H 0.3421 0.82955 0.62063 0.0
Co105 Co 0.28722 0.86931 0.63874 0.0
C106 C 0.23511 0.93293 0.62971 0.0
O107 O 0.20479 0.92362 0.62403 0.0
N108 N 0.27964 0.8781 0.65967 0.0
C109 C 0.26634 0.90366 0.68176 0.0
C110 C 0.26224 0.90493 0.66619 0.0
C111 C 0.2934 0.8604 0.67165 0.0
N112 N 0.28598 0.87569 0.68516 0.0
O113 O 0.25027 0.835 0.63852 0.0
H114 H 0.24786 0.92486 0.66022 0.0
H115 H 0.30984 0.83761 0.67051 0.0
O116 O 0.25677 0.90896 0.63347 0.0
C117 C 0.26585 0.80607 0.64131 0.0
O118 O 0.29937 0.80681 0.64435 0.0
N119 N 0.32568 0.89825 0.6388 0.0
C120 C 0.39121 0.91799 0.6293 0.0
C121 C 0.36181 0.93553 0.62383 0.0
C122 C 0.32909 0.92486 0.62853 0.0
C123 C 0.35428 0.88349 0.64546 0.0
C124 C 0.3877 0.89316 0.64088 0.0
H125 H 0.30703 0.93492 0.62234 0.0
H126 H 0.35135 0.86114 0.65287 0.0
H127 H 0.25754 0.88906 0.60494 0.0
H128 H 0.34509 0.83206 0.59042 0.0
H129 H 0.25592 0.92205 0.68996 0.0
H130 H 0.36397 0.95511 0.61492 0.0
H131 H 0.41016 0.87921 0.64525 0.0
C132 C 0.68237 0.19958 0.91056 0.0
C133 C 0.68396 0.19924 0.92623 0.0
N134 N 0.6624 0.2241 0.93162 0.0
N135 N 0.66001 0.2246 0.90598 0.0
C136 C 0.64808 0.23911 0.9191 0.0
H137 H 0.69636 0.18235 0.90294 0.0
Co138 Co 0.65036 0.23314 0.88533 0.0
C139 C 0.5837 0.27912 0.89529 0.0
O140 O 0.59399 0.30868 0.90144 0.0
N141 N 0.64091 0.24137 0.86444 0.0
C142 C 0.61348 0.252 0.84251 0.0
C143 C 0.61081 0.25266 0.85812 0.0
C144 C 0.66153 0.23415 0.85228 0.0
N145 N 0.64543 0.24032 0.83877 0.0
O146 O 0.68022 0.27378 0.88631 0.0
H147 H 0.58764 0.26002 0.86424 0.0
H148 H 0.68756 0.22371 0.85333 0.0
O149 O 0.60666 0.25739 0.89063 0.0
C150 C 0.71034 0.26056 0.88353 0.0
O151 O 0.71213 0.22732 0.87994 0.0
N152 N 0.62661 0.19142 0.88445 0.0
C153 C 0.61172 0.12232 0.89031 0.0
C154 C 0.59288 0.14874 0.89761 0.0
C155 C 0.60101 0.1833 0.89465 0.0
C156 C 0.64338 0.16595 0.8764 0.0
C157 C 0.63606 0.13083 0.87908 0.0
H158 H 0.58924 0.20305 0.90176 0.0
H159 H 0.66485 0.17266 0.86899 0.0
H160 H 0.62956 0.26033 0.91952 0.0
H161 H 0.69931 0.18154 0.93315 0.0
H162 H 0.59276 0.2583 0.83458 0.0
H163 H 0.5737 0.14264 0.90631 0.0
H164 H 0.65091 0.11071 0.87332 0.0
C165 C 0.82366 0.68703 0.41349 0.0
C166 C 0.82603 0.68269 0.429 0.0
N167 N 0.80322 0.65776 0.43324 0.0
N168 N 0.79973 0.66472 0.40783 0.0
C169 C 0.78729 0.64738 0.42019 0.0
H170 H 0.83875 0.70511 0.40668 0.0
Co171 Co 0.79116 0.66184 0.3869 0.0
C172 C 0.76943 0.58909 0.38006 0.0
O173 O 0.78797 0.59299 0.36756 0.0
N174 N 0.78205 0.66052 0.36567 0.0
C175 C 0.75104 0.65588 0.34423 0.0
C176 C 0.74969 0.65564 0.3599 0.0
C177 C 0.8025 0.66466 0.35318 0.0
N178 N 0.78426 0.6616 0.34004 0.0
O179 O 0.75047 0.69081 0.38966 0.0
H180 H 0.72653 0.65166 0.36673 0.0
H181 H 0.83021 0.66936 0.35351 0.0
O182 O 0.76638 0.61512 0.3894 0.0
C183 C 0.763 0.72107 0.38649 0.0
O184 O 0.79545 0.72324 0.38182 0.0
N185 N 0.83401 0.63947 0.38486 0.0
C186 C 0.9016 0.62741 0.39441 0.0
C187 C 0.87564 0.60265 0.39718 0.0
C188 C 0.8418 0.60957 0.39269 0.0
C189 C 0.85988 0.66231 0.3809 0.0
C190 C 0.89422 0.65669 0.38553 0.0
H191 H 0.82195 0.59331 0.39761 0.0
H192 H 0.85329 0.68736 0.37601 0.0
H193 H 0.76764 0.62711 0.41961 0.0
H194 H 0.84302 0.69706 0.43664 0.0
H195 H 0.7292 0.65274 0.3365 0.0
H196 H 0.88079 0.57992 0.40424 0.0
H197 H 0.91389 0.67645 0.38346 0.0
C198 C 0.33067 0.8109 0.91367 0.0
C199 C 0.33467 0.81294 0.9292 0.0
N200 N 0.3629 0.79414 0.93321 0.0
N201 N 0.35623 0.79097 0.90777 0.0
C202 C 0.37544 0.78073 0.91999 0.0
H203 H 0.31072 0.82378 0.90699 0.0
Co204 Co 0.36036 0.78535 0.8867 0.0
C205 C 0.43365 0.76645 0.87992 0.0
O206 O 0.42971 0.78727 0.8681 0.0
N207 N 0.36291 0.7791 0.86524 0.0
C208 C 0.36803 0.75032 0.8432 0.0
C209 C 0.36891 0.74748 0.85884 0.0
C210 C 0.35767 0.80065 0.85316 0.0
N211 N 0.36107 0.78371 0.83974 0.0
O212 O 0.33168 0.74387 0.88812 0.0
H213 H 0.3736 0.72373 0.86521 0.0
H214 H 0.35101 0.82795 0.85398 0.0
O215 O 0.40742 0.76101 0.88893 0.0
C216 C 0.30163 0.75644 0.88466 0.0
O217 O 0.29968 0.78919 0.88028 0.0
N218 N 0.38203 0.82884 0.88607 0.0
C219 C 0.39222 0.89537 0.8976 0.0
C220 C 0.4169 0.86922 0.9002 0.0
C221 C 0.411 0.83596 0.89464 0.0
C222 C 0.35911 0.85489 0.88249 0.0
C223 C 0.36395 0.88874 0.88801 0.0
H224 H 0.42734 0.81566 0.89917 0.0
H225 H 0.33465 0.84865 0.87702 0.0
H226 H 0.39871 0.76489 0.91918 0.0
H227 H 0.318 0.82721 0.93698 0.0
H228 H 0.37141 0.72945 0.83499 0.0
H229 H 0.43928 0.87378 0.90752 0.0
H230 H 0.34446 0.90861 0.88586 0.0
C231 C 0.19601 0.33739 0.41197 0.0
C232 C 0.19447 0.33921 0.42764 0.0
N233 N 0.22107 0.35925 0.43257 0.0
N234 N 0.22334 0.35634 0.40696 0.0
C235 C 0.23845 0.36902 0.41982 0.0
H236 H 0.17739 0.32442 0.40461 0.0
Co237 Co 0.23062 0.36615 0.38622 0.0
C238 C 0.28312 0.4296 0.39508 0.0
O239 O 0.31331 0.42058 0.40096 0.0
N240 N 0.23758 0.3757 0.36523 0.0
C241 C 0.25562 0.39859 0.34321 0.0
C242 C 0.25784 0.40063 0.35882 0.0
C243 C 0.22348 0.35872 0.35311 0.0
N244 N 0.23402 0.37217 0.33958 0.0
O245 O 0.26729 0.33166 0.38587 0.0
H246 H 0.27351 0.41943 0.36486 0.0
H247 H 0.20605 0.33665 0.35416 0.0
O248 O 0.26159 0.40539 0.39142 0.0
C249 C 0.25096 0.30343 0.38256 0.0
O250 O 0.2174 0.30532 0.37969 0.0
N251 N 0.19227 0.39512 0.38673 0.0
C252 C 0.12694 0.41358 0.39708 0.0
C253 C 0.15659 0.43065 0.40266 0.0
C254 C 0.18916 0.42066 0.3975 0.0
C255 C 0.16343 0.38071 0.38009 0.0
C256 C 0.13017 0.3898 0.38508 0.0
H257 H 0.21153 0.43047 0.40359 0.0
H258 H 0.16611 0.35908 0.37229 0.0
H259 H 0.2605 0.38661 0.41986 0.0
H260 H 0.17489 0.32719 0.43483 0.0
H261 H 0.26857 0.41572 0.33516 0.0
H262 H 0.15477 0.44971 0.41178 0.0
H263 H 0.10758 0.37635 0.38052 0.0
C264 C 0.83997 0.70203 0.91298 0.0
C265 C 0.8418 0.70207 0.92861 0.0
N266 N 0.86389 0.72755 0.93297 0.0
N267 N 0.86076 0.72736 0.90741 0.0
C268 C 0.87528 0.74252 0.91987 0.0
H269 H 0.82398 0.68498 0.90604 0.0
Co270 Co 0.86202 0.73679 0.88661 0.0
C271 C 0.93343 0.76054 0.87895 0.0
O272 O 0.92827 0.74272 0.86633 0.0
N273 N 0.86144 0.747 0.86532 0.0
C274 C 0.86193 0.77967 0.84423 0.0
C275 C 0.86372 0.78 0.8599 0.0
C276 C 0.85769 0.72717 0.85259 0.0
N277 N 0.85816 0.74635 0.83962 0.0
O278 O 0.83138 0.7761 0.88993 0.0
H279 H 0.86673 0.80299 0.86696 0.0
H280 H 0.85502 0.69923 0.8526 0.0
O281 O 0.90811 0.76337 0.88868 0.0
C282 C 0.80169 0.7621 0.88698 0.0
O283 O 0.80089 0.72934 0.88253 0.0
N284 N 0.88649 0.69536 0.88396 0.0
C285 C 0.91654 0.63014 0.88241 0.0
C286 C 0.93352 0.65721 0.89007 0.0
C287 C 0.91746 0.68933 0.89119 0.0
C288 C 0.8682 0.66819 0.87779 0.0
C289 C 0.88321 0.63518 0.8765 0.0
H290 H 0.92938 0.70872 0.89844 0.0
H291 H 0.84148 0.67194 0.87423 0.0
H292 H 0.89278 0.76469 0.9194 0.0
H293 H 0.82777 0.68479 0.93625 0.0
H294 H 0.86264 0.80236 0.83686 0.0
H295 H 0.9585 0.65311 0.89561 0.0
H296 H 0.86883 0.61387 0.87134 0.0
C297 C 0.32175 0.84058 0.41333 0.0
C298 C 0.32293 0.84482 0.42888 0.0
N299 N 0.29664 0.86606 0.43301 0.0
N300 N 0.29506 0.85931 0.40758 0.0
C301 C 0.27982 0.87432 0.41989 0.0
H302 H 0.33986 0.82552 0.40655 0.0
Co303 Co 0.28792 0.8632 0.38655 0.0
C304 C 0.26074 0.93423 0.38043 0.0
O305 O 0.2811 0.93288 0.36839 0.0
N306 N 0.28022 0.86563 0.36519 0.0
C307 C 0.2494 0.86936 0.34366 0.0
C308 C 0.24773 0.86844 0.3593 0.0
C309 C 0.30118 0.86384 0.35275 0.0
N310 N 0.28302 0.86644 0.33956 0.0
O311 O 0.25024 0.82925 0.38795 0.0
H312 H 0.22416 0.87004 0.36605 0.0
H313 H 0.32912 0.86094 0.35314 0.0
O314 O 0.25843 0.90718 0.38929 0.0
C315 C 0.26765 0.80164 0.38453 0.0
O316 O 0.30103 0.80527 0.38153 0.0
N317 N 0.32836 0.89035 0.38566 0.0
C318 C 0.39402 0.91082 0.3952 0.0
C319 C 0.36483 0.93039 0.39924 0.0
C320 C 0.33217 0.91929 0.39466 0.0
C321 C 0.35704 0.87221 0.38092 0.0
C322 C 0.39045 0.88235 0.38541 0.0
H323 H 0.31036 0.93124 0.40024 0.0
H324 H 0.35397 0.84731 0.3753 0.0
H325 H 0.25779 0.89191 0.41923 0.0
H326 H 0.34175 0.83325 0.4366 0.0
H327 H 0.22751 0.87116 0.33588 0.0
H328 H 0.36699 0.9523 0.40704 0.0
H329 H 0.41274 0.86645 0.38239 0.0
C330 C 0.18713 0.31225 0.91309 0.0
C331 C 0.18709 0.31055 0.92875 0.0
N332 N 0.16007 0.29048 0.93316 0.0
N333 N 0.16039 0.2932 0.90756 0.0
C334 C 0.14415 0.28027 0.9201 0.0
H335 H 0.20528 0.32693 0.90616 0.0
Co336 Co 0.15137 0.28979 0.88663 0.0
C337 C 0.07732 0.2704 0.88307 0.0
O338 O 0.07779 0.29414 0.87222 0.0
N339 N 0.14348 0.28521 0.86518 0.0
C340 C 0.13375 0.25667 0.84338 0.0
C341 C 0.13519 0.25392 0.85899 0.0
C342 C 0.14788 0.30643 0.85289 0.0
N343 N 0.14195 0.28966 0.83954 0.0
O344 O 0.18392 0.25012 0.88568 0.0
H345 H 0.13114 0.23022 0.86549 0.0
H346 H 0.156 0.33334 0.85347 0.0
O347 O 0.10582 0.26338 0.89045 0.0
C348 C 0.21082 0.26825 0.88166 0.0
O349 O 0.20558 0.30119 0.87823 0.0
N350 N 0.128 0.33235 0.88804 0.0
C351 C 0.12847 0.39625 0.90362 0.0
C352 C 0.10334 0.37038 0.90691 0.0
C353 C 0.10381 0.33861 0.89916 0.0
C354 C 0.14967 0.35846 0.88348 0.0
C355 C 0.15046 0.39023 0.89105 0.0
H356 H 0.08809 0.31788 0.90376 0.0
H357 H 0.17047 0.35339 0.87559 0.0
H358 H 0.12124 0.26378 0.9197 0.0
H359 H 0.20515 0.32365 0.93634 0.0
H360 H 0.12872 0.2356 0.83542 0.0
H361 H 0.08426 0.37316 0.91586 0.0
H362 H 0.17 0.40853 0.88731 0.0
C363 C 0.71851 0.19622 0.41353 0.0
C364 C 0.72004 0.19548 0.42916 0.0
N365 N 0.73813 0.16697 0.43345 0.0
N366 N 0.73562 0.16842 0.40786 0.0
C367 C 0.74724 0.15077 0.42029 0.0
H368 H 0.70553 0.21577 0.40665 0.0
Co369 Co 0.73868 0.16209 0.38685 0.0
C370 C 0.75656 0.08834 0.38084 0.0
O371 O 0.73352 0.09135 0.36979 0.0
N372 N 0.74253 0.15747 0.36534 0.0
C373 C 0.76941 0.14952 0.34308 0.0
C374 C 0.77346 0.15042 0.35863 0.0
C375 C 0.72017 0.16176 0.35348 0.0
N376 N 0.73592 0.1567 0.33984 0.0
O377 O 0.78 0.19109 0.38685 0.0
H378 H 0.79762 0.14616 0.36474 0.0
H379 H 0.693 0.1685 0.35464 0.0
O380 O 0.76355 0.11525 0.38929 0.0
C381 C 0.76758 0.22078 0.38271 0.0
O382 O 0.73474 0.2224 0.3785 0.0
N383 N 0.69551 0.13993 0.38767 0.0
C384 C 0.62983 0.12808 0.39968 0.0
C385 C 0.65716 0.1052 0.40292 0.0
C386 C 0.68993 0.11195 0.39709 0.0
C387 C 0.66854 0.16147 0.3838 0.0
C388 C 0.63507 0.15564 0.3895 0.0
H389 H 0.71108 0.09707 0.40185 0.0
H390 H 0.67364 0.18553 0.37775 0.0
H391 H 0.7622 0.12685 0.41974 0.0
H392 H 0.70824 0.21423 0.43684 0.0
H393 H 0.78979 0.14499 0.33476 0.0
H394 H 0.65375 0.08358 0.4108 0.0
H395 H 0.61428 0.17386 0.38694 0.0
C396 C 0.33737 0.82295 0.11131 0.0
C397 C 0.34172 0.82506 0.09579 0.0
N398 N 0.36657 0.80212 0.09161 0.0
N399 N 0.35934 0.79885 0.11702 0.0
C400 C 0.37671 0.78625 0.10473 0.0
H401 H 0.31951 0.83832 0.11809 0.0
Co402 Co 0.36145 0.79028 0.13794 0.0
C403 C 0.43304 0.7668 0.14523 0.0
O404 O 0.42874 0.78567 0.15763 0.0
N405 N 0.36187 0.78099 0.15922 0.0
C406 C 0.36367 0.74861 0.18034 0.0
C407 C 0.36541 0.74818 0.16471 0.0
C408 C 0.35728 0.80087 0.17188 0.0
N409 N 0.35845 0.78178 0.18488 0.0
O410 O 0.33045 0.75083 0.13521 0.0
H411 H 0.36939 0.72526 0.1577 0.0
H412 H 0.35235 0.82856 0.17172 0.0
O413 O 0.40726 0.76354 0.13575 0.0
C414 C 0.30107 0.76503 0.13852 0.0
O415 O 0.30085 0.79795 0.14275 0.0
N416 N 0.38606 0.832 0.14002 0.0
C417 C 0.40923 0.89967 0.13566 0.0
C418 C 0.42894 0.87157 0.1304 0.0
C419 C 0.41637 0.83802 0.13224 0.0
C420 C 0.36662 0.85939 0.14523 0.0
C421 C 0.37804 0.89374 0.14338 0.0
H422 H 0.42943 0.81765 0.126 0.0
H423 H 0.34066 0.85486 0.14957 0.0
H424 H 0.39686 0.76655 0.10542 0.0
H425 H 0.32736 0.84203 0.08815 0.0
H426 H 0.3663 0.72615 0.18777 0.0
H427 H 0.45256 0.87573 0.12384 0.0
H428 H 0.36176 0.91529 0.147 0.0
C429 C 0.2065 0.33795 0.61092 0.0
C430 C 0.20487 0.34311 0.59545 0.0
N431 N 0.22768 0.36841 0.59173 0.0
N432 N 0.22989 0.36019 0.61707 0.0
C433 C 0.24288 0.37825 0.60502 0.0
H434 H 0.19101 0.31954 0.61739 0.0
Co435 Co 0.23596 0.36264 0.63824 0.0
C436 C 0.25683 0.43498 0.64599 0.0
O437 O 0.23602 0.43054 0.65775 0.0
N438 N 0.2425 0.36343 0.65972 0.0
C439 C 0.27174 0.36581 0.68168 0.0
C440 C 0.27449 0.36639 0.66606 0.0
C441 C 0.22068 0.36062 0.67185 0.0
N442 N 0.23786 0.36223 0.68536 0.0
O443 O 0.27644 0.33276 0.63628 0.0
H444 H 0.29846 0.36908 0.65966 0.0
H445 H 0.19276 0.35806 0.67093 0.0
O446 O 0.26162 0.40927 0.6366 0.0
C447 C 0.26246 0.30275 0.63872 0.0
O448 O 0.22959 0.30166 0.64288 0.0
N449 N 0.19321 0.38556 0.63925 0.0
C450 C 0.12877 0.39424 0.6255 0.0
C451 C 0.15458 0.41981 0.62396 0.0
C452 C 0.18682 0.41476 0.63069 0.0
C453 C 0.16692 0.36248 0.64229 0.0
C454 C 0.1342 0.3664 0.63553 0.0
H455 H 0.20738 0.43169 0.62685 0.0
H456 H 0.17258 0.33816 0.64803 0.0
H457 H 0.26213 0.39883 0.60599 0.0
H458 H 0.18826 0.32924 0.58748 0.0
H459 H 0.29322 0.36721 0.68968 0.0
H460 H 0.15085 0.44229 0.6166 0.0
H461 H 0.11453 0.34639 0.63708 0.0
C462 C 0.69387 0.20867 0.11253 0.0
C463 C 0.69384 0.20885 0.09687 0.0
N464 N 0.6674 0.22919 0.092 0.0
N465 N 0.66752 0.22867 0.11765 0.0
C466 C 0.65163 0.24085 0.10487 0.0
H467 H 0.71203 0.19484 0.1198 0.0
Co468 Co 0.6604 0.2353 0.13849 0.0
C469 C 0.58561 0.25087 0.14314 0.0
O470 O 0.58871 0.22965 0.15487 0.0
N471 N 0.65458 0.2431 0.15975 0.0
C472 C 0.64471 0.27417 0.18075 0.0
C473 C 0.64537 0.2748 0.16512 0.0
C474 C 0.66022 0.22377 0.1725 0.0
N475 N 0.65433 0.2421 0.1855 0.0
O476 O 0.68808 0.2775 0.1372 0.0
H477 H 0.63948 0.29719 0.15802 0.0
H478 H 0.6695 0.19723 0.17235 0.0
O479 O 0.61271 0.25762 0.1348 0.0
C480 C 0.71788 0.26607 0.14175 0.0
O481 O 0.71982 0.23397 0.14697 0.0
N482 N 0.6404 0.19108 0.13916 0.0
C483 C 0.63644 0.12353 0.128 0.0
C484 C 0.61108 0.14817 0.12406 0.0
C485 C 0.61383 0.18198 0.12952 0.0
C486 C 0.66372 0.1665 0.14402 0.0
C487 C 0.66194 0.13222 0.13871 0.0
H488 H 0.59746 0.20125 0.12419 0.0
H489 H 0.68664 0.17431 0.15029 0.0
H490 H 0.62945 0.25829 0.10499 0.0
H491 H 0.7118 0.19476 0.0896 0.0
H492 H 0.63778 0.29602 0.18795 0.0
H493 H 0.59064 0.14202 0.11592 0.0
H494 H 0.6819 0.11361 0.14193 0.0
C495 C 0.82708 0.68412 0.61337 0.0
C496 C 0.83001 0.68121 0.59778 0.0
N497 N 0.80519 0.65908 0.59276 0.0
N498 N 0.80069 0.66378 0.61826 0.0
C499 C 0.78756 0.64903 0.60541 0.0
H500 H 0.84337 0.6999 0.62073 0.0
Co501 Co 0.78942 0.65892 0.63885 0.0
C502 C 0.74124 0.59231 0.63071 0.0
O503 O 0.71299 0.6036 0.62381 0.0
N504 N 0.77803 0.65413 0.65963 0.0
C505 C 0.75028 0.63931 0.681 0.0
C506 C 0.74919 0.63859 0.6653 0.0
C507 C 0.79573 0.66498 0.67214 0.0
N508 N 0.77965 0.65589 0.68527 0.0
O509 O 0.75003 0.68988 0.63592 0.0
H510 H 0.72831 0.62767 0.65852 0.0
H511 H 0.82001 0.67917 0.67175 0.0
O512 O 0.76434 0.61444 0.63498 0.0
C513 C 0.76313 0.71969 0.63954 0.0
O514 O 0.79527 0.72065 0.64469 0.0
N515 N 0.8304 0.63428 0.64167 0.0
C516 C 0.89775 0.60892 0.64181 0.0
C517 C 0.87049 0.58845 0.63612 0.0
C518 C 0.83709 0.60213 0.63566 0.0
C519 C 0.85684 0.65441 0.64729 0.0
C520 C 0.89096 0.64218 0.64749 0.0
H521 H 0.81771 0.58797 0.62928 0.0
H522 H 0.85192 0.68119 0.65047 0.0
H523 H 0.76599 0.63086 0.60532 0.0
H524 H 0.84876 0.69473 0.59067 0.0
H525 H 0.73063 0.62903 0.68865 0.0
H526 H 0.87555 0.56338 0.6308 0.0
H527 H 0.91196 0.65913 0.6512 0.0
H528 H 0.11197 0.26774 0.20962 0.0
H529 H 0.12243 0.28516 0.23615 0.0
H530 H 0.21428 0.34177 0.22204 0.0
H531 H 0.2032 0.32518 0.19544 0.0
H532 H 0.17601 0.26902 0.25377 0.0
H533 H 0.16954 0.41309 0.24892 0.0
H534 H 0.15519 0.38453 0.23377 0.0
H535 H 0.20079 0.39449 0.23607 0.0
C536 C 0.13413 0.28426 0.21219 0.0
C537 C 0.15671 0.29524 0.2005 0.0
C538 C 0.14009 0.29421 0.22733 0.0
C539 C 0.16887 0.31518 0.2311 0.0
C540 C 0.19133 0.32643 0.2194 0.0
H541 H 0.27167 0.38026 0.31365 0.0
H542 H 0.25397 0.3655 0.28767 0.0
C543 C 0.18507 0.31688 0.2042 0.0
C544 C 0.17648 0.3234 0.24737 0.0
H545 H 0.19409 0.39033 0.272 0.0
C546 C 0.17959 0.29558 0.25778 0.0
C547 C 0.18111 0.35806 0.25263 0.0
C548 C 0.17614 0.38925 0.24229 0.0
C549 C 0.18818 0.3014 0.27318 0.0
C550 C 0.19356 0.33597 0.27833 0.0
C551 C 0.19004 0.36382 0.26799 0.0
C552 C 0.20413 0.34383 0.29426 0.0
C553 C 0.19245 0.27047 0.28373 0.0
C554 C 0.18195 0.33646 0.30661 0.0
C555 C 0.19195 0.34506 0.32155 0.0
C556 C 0.22421 0.3614 0.32435 0.0
C557 C 0.24643 0.36827 0.31191 0.0
C558 C 0.23643 0.35972 0.29704 0.0
H559 H 0.19462 0.24552 0.27732 0.0
H560 H 0.21594 0.27361 0.29103 0.0
H561 H 0.16939 0.26866 0.29134 0.0
H562 H 0.15665 0.32468 0.30467 0.0
H563 H 0.17405 0.33979 0.33083 0.0
H564 H 0.62094 0.26759 0.81216 0.0
H565 H 0.6384 0.25206 0.78635 0.0
H566 H 0.71774 0.18382 0.80443 0.0
H567 H 0.6991 0.19756 0.83041 0.0
H568 H 0.69858 0.25945 0.77109 0.0
H569 H 0.66623 0.11856 0.7762 0.0
H570 H 0.65326 0.1502 0.79037 0.0
H571 H 0.69707 0.13345 0.79019 0.0
C572 C 0.6418 0.2489 0.81075 0.0
C573 C 0.65808 0.23338 0.8235 0.0
C574 C 0.65198 0.2403 0.79592 0.0
C575 C 0.67884 0.21619 0.79344 0.0
C576 C 0.69629 0.20179 0.80608 0.0
H577 H 0.77243 0.13011 0.71197 0.0
H578 H 0.7581 0.14851 0.73784 0.0
C579 C 0.68587 0.21009 0.82097 0.0
C580 C 0.68823 0.20615 0.77759 0.0
H581 H 0.69455 0.13639 0.75343 0.0
C582 C 0.69762 0.23255 0.76721 0.0
C583 C 0.68674 0.17105 0.77253 0.0
C584 C 0.67496 0.14171 0.78285 0.0
C585 C 0.70609 0.22476 0.75198 0.0
C586 C 0.70482 0.18968 0.74699 0.0
C587 C 0.69552 0.16327 0.75734 0.0
C588 C 0.71363 0.17959 0.73112 0.0
C589 C 0.71692 0.25399 0.74142 0.0
C590 C 0.69322 0.19088 0.71874 0.0
C591 C 0.70115 0.1801 0.70385 0.0
C592 C 0.72955 0.1577 0.70111 0.0
C593 C 0.75002 0.14679 0.7136 0.0
C594 C 0.74202 0.15748 0.72843 0.0
H595 H 0.7241 0.278 0.74782 0.0
H596 H 0.73939 0.24598 0.73424 0.0
H597 H 0.69488 0.26046 0.73369 0.0
H598 H 0.6708 0.2075 0.72062 0.0
H599 H 0.68456 0.18868 0.69457 0.0
H600 H 0.83428 0.70572 0.3299 0.0
H601 H 0.85141 0.71537 0.30321 0.0
H602 H 0.78089 0.6338 0.28889 0.0
H603 H 0.76305 0.62489 0.31546 0.0
H604 H 0.8798 0.67478 0.28098 0.0
H605 H 0.74633 0.71494 0.26396 0.0
H606 H 0.75883 0.70921 0.28368 0.0
H607 H 0.74798 0.67194 0.27206 0.0
C608 C 0.82273 0.6897 0.32104 0.0
C609 C 0.79696 0.66496 0.32466 0.0
C610 C 0.83246 0.69524 0.30582 0.0
C611 C 0.81674 0.67592 0.29402 0.0
C612 C 0.79251 0.64979 0.29774 0.0
H613 H 0.82681 0.68844 0.19487 0.0
H614 H 0.81896 0.66826 0.22118 0.0
C615 C 0.78242 0.64463 0.3129 0.0
C616 C 0.82485 0.68384 0.27782 0.0
H617 H 0.78749 0.70841 0.24404 0.0
C618 C 0.85965 0.68217 0.2729 0.0
C619 C 0.7985 0.69362 0.2673 0.0
C620 C 0.76088 0.69789 0.27203 0.0
C621 C 0.86874 0.68963 0.25769 0.0
C622 C 0.84236 0.69926 0.24721 0.0
C623 C 0.80759 0.70071 0.2521 0.0
C624 C 0.85015 0.70939 0.23124 0.0
C625 C 0.90642 0.68681 0.25293 0.0
C626 C 0.87041 0.73909 0.2282 0.0
C627 C 0.87504 0.75061 0.21318 0.0
C628 C 0.85928 0.73278 0.20092 0.0
C629 C 0.83962 0.70255 0.204 0.0
C630 C 0.83496 0.69108 0.21904 0.0
H631 H 0.92164 0.67029 0.26097 0.0
H632 H 0.90872 0.67573 0.24124 0.0
H633 H 0.91827 0.71326 0.25286 0.0
H634 H 0.88184 0.75396 0.23747 0.0
H635 H 0.89067 0.7737 0.21119 0.0
H636 H 0.40929 0.80648 0.81992 0.0
H637 H 0.3992 0.82439 0.79322 0.0
H638 H 0.289 0.8054 0.799 0.0
H639 H 0.29932 0.78882 0.82576 0.0
H640 H 0.37396 0.78764 0.76988 0.0
H641 H 0.2871 0.90051 0.78007 0.0
H642 H 0.3116 0.88005 0.79523 0.0
H643 H 0.27089 0.86149 0.78891 0.0
C644 C 0.38296 0.80699 0.81544 0.0
C645 C 0.3549 0.7971 0.82472 0.0
C646 C 0.37718 0.81691 0.80025 0.0
C647 C 0.34324 0.81683 0.79416 0.0
C648 C 0.31525 0.80668 0.80353 0.0
H649 H 0.28973 0.81062 0.69706 0.0
H650 H 0.3054 0.79524 0.72346 0.0
C651 C 0.32104 0.79715 0.81874 0.0
C652 C 0.33722 0.82604 0.77787 0.0
H653 H 0.28846 0.87824 0.7546 0.0
C654 C 0.35549 0.80768 0.76652 0.0
C655 C 0.31349 0.85248 0.77349 0.0
C656 C 0.29494 0.87501 0.78507 0.0
C657 C 0.35026 0.81465 0.75091 0.0
C658 C 0.32526 0.83995 0.74652 0.0
C659 C 0.30738 0.85859 0.75791 0.0
C660 C 0.3176 0.84833 0.73025 0.0
C661 C 0.37216 0.79536 0.73934 0.0
C662 C 0.31854 0.88324 0.72533 0.0
C663 C 0.30873 0.892 0.71046 0.0
C664 C 0.29817 0.86603 0.70011 0.0
C665 C 0.29815 0.83098 0.70483 0.0
C666 C 0.30731 0.82223 0.71986 0.0
H667 H 0.39684 0.78573 0.74449 0.0
H668 H 0.35744 0.77232 0.73514 0.0
H669 H 0.37865 0.81224 0.72942 0.0
H670 H 0.32645 0.90386 0.73308 0.0
H671 H 0.30927 0.91917 0.70701 0.0
H672 H 0.8797 0.77872 0.81365 0.0
H673 H 0.86933 0.75985 0.78739 0.0
H674 H 0.81956 0.66617 0.80393 0.0
H675 H 0.82821 0.68551 0.8302 0.0
H676 H 0.88908 0.70047 0.77136 0.0
H677 H 0.74499 0.70863 0.7766 0.0
H678 H 0.77409 0.72677 0.79074 0.0
H679 H 0.76536 0.68061 0.79042 0.0
C680 C 0.86622 0.75427 0.81175 0.0
C681 C 0.85431 0.73399 0.82412 0.0
C682 C 0.86065 0.74336 0.79671 0.0
C683 C 0.84309 0.71196 0.79373 0.0
C684 C 0.83251 0.69087 0.806 0.0
H685 H 0.76674 0.61638 0.71027 0.0
H686 H 0.78472 0.62847 0.73656 0.0
C687 C 0.83786 0.70185 0.82104 0.0
C688 C 0.83492 0.70189 0.77779 0.0
H689 H 0.76714 0.68579 0.75349 0.0
C690 C 0.86244 0.69725 0.76742 0.0
C691 C 0.80012 0.69782 0.77271 0.0
C692 C 0.7694 0.70401 0.78314 0.0
C693 C 0.85608 0.68818 0.75211 0.0
C694 C 0.82127 0.68426 0.74704 0.0
C695 C 0.79381 0.68872 0.75744 0.0
C696 C 0.81246 0.67601 0.73096 0.0
C697 C 0.88666 0.68235 0.74159 0.0
C698 C 0.822 0.69881 0.71911 0.0
C699 C 0.81172 0.69197 0.70407 0.0
C700 C 0.79132 0.66244 0.70066 0.0
C701 C 0.78201 0.63958 0.71256 0.0
C702 C 0.79244 0.64633 0.72757 0.0
H703 H 0.91095 0.67679 0.74807 0.0
H704 H 0.88158 0.66035 0.73362 0.0
H705 H 0.89111 0.70628 0.7347 0.0
H706 H 0.83668 0.72235 0.72153 0.0
H707 H 0.81888 0.71033 0.69519 0.0
H708 H 0.25891 0.90173 0.31509 0.0
H709 H 0.27601 0.89338 0.2884 0.0
H710 H 0.35299 0.81778 0.30245 0.0
H711 H 0.33636 0.82666 0.32926 0.0
H712 H 0.37617 0.86047 0.27884 0.0
H713 H 0.24523 0.80584 0.26597 0.0
H714 H 0.24419 0.84934 0.27357 0.0
H715 H 0.25992 0.81396 0.28523 0.0
C716 C 0.27964 0.88353 0.31247 0.0
C717 C 0.29598 0.86445 0.32417 0.0
C718 C 0.28936 0.87875 0.29725 0.0
C719 C 0.31515 0.85433 0.29344 0.0
C720 C 0.33287 0.83661 0.30516 0.0
H721 H 0.33601 0.74363 0.20904 0.0
H722 H 0.32828 0.7633 0.23523 0.0
C723 C 0.32342 0.84172 0.32044 0.0
C724 C 0.32211 0.84574 0.27722 0.0
H725 H 0.28336 0.81345 0.24506 0.0
C726 C 0.35593 0.85023 0.27142 0.0
C727 C 0.29568 0.83197 0.26765 0.0
C728 C 0.25931 0.82465 0.27343 0.0
C729 C 0.36402 0.84134 0.25624 0.0
C730 C 0.33741 0.82817 0.24663 0.0
C731 C 0.30362 0.82384 0.25244 0.0
C732 C 0.34422 0.81655 0.23077 0.0
C733 C 0.40111 0.84512 0.25077 0.0
C734 C 0.35573 0.84002 0.21952 0.0
C735 C 0.3606 0.8287 0.20445 0.0
C736 C 0.35379 0.79376 0.20038 0.0
C737 C 0.34214 0.77051 0.21174 0.0
C738 C 0.33745 0.78177 0.22674 0.0
H739 H 0.4197 0.84804 0.26044 0.0
H740 H 0.40898 0.82217 0.24383 0.0
H741 H 0.40321 0.86872 0.24346 0.0
H742 H 0.3605 0.86716 0.22233 0.0
H743 H 0.36984 0.84726 0.19604 0.0
H744 H 0.26572 0.38831 0.71146 0.0
H745 H 0.24502 0.37894 0.7375 0.0
H746 H 0.15633 0.32216 0.72013 0.0
H747 H 0.17762 0.3302 0.69399 0.0
H748 H 0.18334 0.39654 0.75211 0.0
H749 H 0.20053 0.25255 0.74971 0.0
H750 H 0.2184 0.28147 0.73543 0.0
H751 H 0.1729 0.27021 0.73504 0.0
C752 C 0.24195 0.37357 0.71314 0.0
C753 C 0.22371 0.35946 0.7006 0.0
C754 C 0.22999 0.36852 0.72805 0.0
C755 C 0.19952 0.34928 0.73077 0.0
C756 C 0.18032 0.33647 0.71829 0.0
H757 H 0.10533 0.27172 0.81441 0.0
H758 H 0.11739 0.28891 0.78799 0.0
C759 C 0.19234 0.34143 0.70334 0.0
C760 C 0.18856 0.34193 0.74672 0.0
H761 H 0.17547 0.27558 0.77216 0.0
C762 C 0.18152 0.37011 0.75651 0.0
C763 C 0.18643 0.30742 0.75244 0.0
C764 C 0.19525 0.27614 0.74268 0.0
C765 C 0.17189 0.36469 0.77183 0.0
C766 C 0.1699 0.33017 0.77757 0.0
C767 C 0.17685 0.30203 0.76774 0.0
C768 C 0.16098 0.32238 0.79374 0.0
C769 C 0.16337 0.39599 0.78161 0.0
C770 C 0.18128 0.33567 0.8058 0.0
C771 C 0.17416 0.32611 0.82093 0.0
C772 C 0.14705 0.30257 0.82423 0.0
C773 C 0.1265 0.28972 0.81217 0.0
C774 C 0.13336 0.29956 0.79709 0.0
H775 H 0.15603 0.41895 0.77454 0.0
H776 H 0.14172 0.39016 0.78964 0.0
H777 H 0.1867 0.40326 0.78842 0.0
H778 H 0.20332 0.35254 0.80349 0.0
H779 H 0.19081 0.33591 0.82997 0.0
H780 H 0.68673 0.20298 0.33066 0.0
H781 H 0.66779 0.21379 0.30421 0.0
H782 H 0.73392 0.13023 0.28853 0.0
H783 H 0.75276 0.11921 0.31486 0.0
H784 H 0.73615 0.21596 0.27716 0.0
H785 H 0.61814 0.1322 0.27056 0.0
H786 H 0.62759 0.15349 0.28854 0.0
H787 H 0.6545 0.11819 0.28219 0.0
C788 C 0.69655 0.18645 0.32161 0.0
C789 C 0.72136 0.16041 0.32476 0.0
C790 C 0.68585 0.1927 0.30655 0.0
C791 C 0.69951 0.17271 0.29453 0.0
C792 C 0.72312 0.14582 0.29771 0.0
H793 H 0.66287 0.17539 0.19619 0.0
H794 H 0.67418 0.15772 0.22258 0.0
C795 C 0.73395 0.1397 0.3127 0.0
C796 C 0.69173 0.18181 0.2785 0.0
H797 H 0.63571 0.16516 0.24907 0.0
C798 C 0.71416 0.20501 0.27099 0.0
C799 C 0.66343 0.16687 0.27054 0.0
C800 C 0.63935 0.14123 0.27826 0.0
C801 C 0.7089 0.21394 0.25562 0.0
C802 C 0.67992 0.19981 0.24769 0.0
C803 C 0.65776 0.17611 0.25519 0.0
C804 C 0.67185 0.21013 0.23174 0.0
C805 C 0.73484 0.23791 0.24796 0.0
C806 C 0.66608 0.24532 0.22818 0.0
C807 C 0.66027 0.25565 0.21312 0.0
C808 C 0.65937 0.23093 0.20118 0.0
C809 C 0.66396 0.19538 0.2049 0.0
C810 C 0.67016 0.18512 0.22004 0.0
H811 H 0.76044 0.23759 0.25392 0.0
H812 H 0.73896 0.23053 0.23582 0.0
H813 H 0.72484 0.26509 0.24831 0.0
H814 H 0.66643 0.26498 0.23708 0.0
H815 H 0.65709 0.28323 0.21095 0.0
H816 H 0.1018 0.28778 0.0801 0.0
H817 H 0.08522 0.28083 0.05301 0.0
H818 H 0.19291 0.26253 0.04142 0.0
H819 H 0.20936 0.26934 0.06822 0.0
H820 H 0.11294 0.32253 0.02785 0.0
H821 H 0.13964 0.18165 0.02026 0.0
H822 H 0.13206 0.20109 0.03879 0.0
H823 H 0.17432 0.20409 0.02996 0.0
C824 C 0.12171 0.28168 0.07175 0.0
C825 C 0.15687 0.27914 0.07621 0.0
C826 C 0.11228 0.27789 0.05633 0.0
C827 C 0.1378 0.27075 0.04525 0.0
C828 C 0.17272 0.2675 0.0498 0.0
H829 H 0.20446 0.27795 0.95626 0.0
H830 H 0.19015 0.2703 0.98325 0.0
C831 C 0.18215 0.27167 0.06508 0.0
C832 C 0.12909 0.26874 0.02875 0.0
H833 H 0.14272 0.21732 0.99746 0.0
C834 C 0.11837 0.29927 0.02119 0.0
C835 C 0.13611 0.23833 0.02013 0.0
C836 C 0.14584 0.20431 0.02771 0.0
C837 C 0.11737 0.30094 1.00513 0.0
C838 C 0.12709 0.27126 0.99651 0.0
C839 C 0.13535 0.24006 1.00411 0.0
C840 C 0.13438 0.2737 0.97991 0.0
C841 C 0.10849 0.33508 0.99744 0.0
C842 C 0.10765 0.27745 0.96903 0.0
C843 C 0.11586 0.28164 0.95349 0.0
C844 C 0.15087 0.28251 0.94873 0.0
C845 C 0.17732 0.27778 0.95965 0.0
C846 C 0.16917 0.27327 0.97504 0.0
H847 H 0.10325 0.35625 1.00581 0.0
H848 H 0.13024 0.34334 0.98989 0.0
H849 H 0.08502 0.33159 0.99017 0.0
H850 H 0.08062 0.27764 0.97259 0.0
H851 H 0.09503 0.28545 0.9453 0.0
H852 H 0.73899 0.10128 0.44538 0.0
H853 H 0.74226 0.08618 0.47281 0.0
H854 H 0.75573 0.19506 0.48388 0.0
H855 H 0.75268 0.2101 0.45679 0.0
H856 H 0.79994 0.11755 0.49908 0.0
H857 H 0.65862 0.14816 0.5037 0.0
H858 H 0.67801 0.13165 0.48631 0.0
H859 H 0.68436 0.17641 0.49171 0.0
C860 C 0.74347 0.12176 0.45369 0.0
C861 C 0.7452 0.15691 0.44902 0.0
C862 C 0.74525 0.11315 0.4693 0.0
C863 C 0.74906 0.1396 0.4803 0.0
C864 C 0.7527 0.17434 0.47554 0.0
H865 H 0.7288 0.2109 0.56906 0.0
H866 H 0.73419 0.1966 0.542 0.0
C867 C 0.75076 0.1829 0.46009 0.0
C868 C 0.74611 0.13236 0.49687 0.0
H869 H 0.69132 0.14809 0.52674 0.0
C870 C 0.77604 0.12326 0.5052 0.0
C871 C 0.71487 0.13994 0.50471 0.0
C872 C 0.68197 0.14939 0.4962 0.0
C873 C 0.77605 0.12386 0.52131 0.0
C874 C 0.74534 0.13379 0.52913 0.0
C875 C 0.71489 0.14064 0.52073 0.0
C876 C 0.74503 0.14179 0.54574 0.0
C877 C 0.80936 0.1161 0.52981 0.0
C878 C 0.74993 0.11582 0.55691 0.0
C879 C 0.74698 0.12408 0.5725 0.0
C880 C 0.73871 0.15833 0.57709 0.0
C881 C 0.73476 0.18426 0.56586 0.0
C882 C 0.7379 0.1761 0.5504 0.0
H883 H 0.83195 0.11311 0.52199 0.0
H884 H 0.81517 0.13726 0.53811 0.0
H885 H 0.80623 0.09145 0.53636 0.0
H886 H 0.75498 0.08906 0.55357 0.0
H887 H 0.74974 0.1035 0.58091 0.0
H888 H 0.92663 0.74584 0.94509 0.0
H889 H 0.93988 0.75273 0.9726 0.0
H890 H 0.83124 0.73714 0.98322 0.0
H891 H 0.81814 0.73018 0.95609 0.0
H892 H 0.90598 0.79894 0.99768 0.0
H893 H 0.88798 0.65615 1.00496 0.0
H894 H 0.89735 0.67593 0.98665 0.0
H895 H 0.85381 0.67689 0.99423 0.0
C896 C 0.90564 0.74463 0.95335 0.0
C897 C 0.87145 0.73697 0.94856 0.0
C898 C 0.9132 0.74846 0.96899 0.0
C899 C 0.88658 0.74487 0.97991 0.0
C900 C 0.85221 0.73949 0.97499 0.0
H901 H 0.81518 0.7357 0.06824 0.0
H902 H 0.83032 0.74129 0.0413 0.0
C903 C 0.84477 0.73544 0.95951 0.0
C904 C 0.89406 0.74405 0.99654 0.0
H905 H 0.88257 0.69119 0.02754 0.0
C906 C 0.90185 0.77526 1.00425 0.0
C907 C 0.88885 0.71304 1.00503 0.0
C908 C 0.88185 0.6785 0.9973 0.0
C909 C 0.90186 0.77668 0.02035 0.0
C910 C 0.89388 0.74619 0.02878 0.0
C911 C 0.88856 0.71457 0.02103 0.0
C912 C 0.88564 0.74717 0.04532 0.0
C913 C 0.90809 0.81104 0.0283 0.0
C914 C 0.91175 0.74934 0.05656 0.0
C915 C 0.90307 0.74605 0.07211 0.0
C916 C 0.86827 0.74019 0.07651 0.0
C917 C 0.84226 0.73954 0.06519 0.0
C918 C 0.85085 0.74292 0.0498 0.0
H919 H 0.91363 0.83251 0.0201 0.0
H920 H 0.88487 0.81811 0.0352 0.0
H921 H 0.93049 0.80849 0.03627 0.0
H922 H 0.93881 0.75235 0.0533 0.0
H923 H 0.92362 0.74649 0.08061 0.0
H924 H 0.2335 0.87185 0.44665 0.0
H925 H 0.22284 0.88275 0.47403 0.0
H926 H 0.33334 0.89587 0.48124 0.0
H927 H 0.34384 0.88516 0.45411 0.0
H928 H 0.25099 0.8402 0.49729 0.0
H929 H 0.29211 0.97742 0.50545 0.0
H930 H 0.28093 0.95977 0.48692 0.0
H931 H 0.32354 0.95243 0.49493 0.0
C932 C 0.25527 0.87797 0.45407 0.0
C933 C 0.28948 0.87752 0.44835 0.0
C934 C 0.24923 0.88404 0.46967 0.0
C935 C 0.27727 0.8905 0.47965 0.0
C936 C 0.31124 0.89159 0.47375 0.0
H937 H 0.34581 0.876 0.57051 0.0
H938 H 0.3348 0.88682 0.54339 0.0
C939 C 0.31727 0.88516 0.45828 0.0
C940 C 0.27205 0.8923 0.49646 0.0
H941 H 0.29371 0.94059 0.52791 0.0
C942 C 0.25945 0.86248 0.504 0.0
C943 C 0.28328 0.92132 0.50518 0.0
C944 C 0.2954 0.95468 0.4977 0.0
C945 C 0.25992 0.86004 0.52003 0.0
C946 C 0.27284 0.88839 0.52873 0.0
C947 C 0.28383 0.91888 0.52121 0.0
C948 C 0.27864 0.88528 0.54546 0.0
C949 C 0.24867 0.82635 0.52753 0.0
C950 C 0.25066 0.88171 0.5557 0.0
C951 C 0.25693 0.8755 0.57127 0.0
C952 C 0.29125 0.87245 0.57677 0.0
C953 C 0.3191 0.87746 0.56655 0.0
C954 C 0.31285 0.88393 0.55108 0.0
H955 H 0.24394 0.80524 0.51906 0.0
H956 H 0.26878 0.81736 0.53578 0.0
H957 H 0.22418 0.8308 0.53398 0.0
H958 H 0.22404 0.88302 0.5516 0.0
H959 H 0.23502 0.87181 0.57889 0.0
H960 H 0.71265 0.23385 0.06857 0.0
H961 H 0.69889 0.23871 0.04146 0.0
H962 H 0.58949 0.24636 0.05212 0.0
H963 H 0.6032 0.241 0.0796 0.0
H964 H 0.64697 0.1865 0.02726 0.0
H965 H 0.61648 0.32762 0.01896 0.0
H966 H 0.64514 0.31371 0.0342 0.0
H967 H 0.59953 0.30398 0.03522 0.0
C968 C 0.68564 0.23669 0.06521 0.0
C969 C 0.65898 0.2365 0.07623 0.0
C970 C 0.67784 0.23971 0.04971 0.0
C971 C 0.64323 0.24286 0.0448 0.0
C972 C 0.61643 0.24419 0.05572 0.0
H973 H 0.60165 0.24539 0.94477 0.0
H974 H 0.59037 0.25155 0.97239 0.0
C975 C 0.62428 0.24119 0.07138 0.0
C976 C 0.63592 0.24155 0.02816 0.0
H977 H 0.62462 0.29349 0.99673 0.0
C978 C 0.64135 0.20974 0.0206 0.0
C979 C 0.62833 0.27184 0.01953 0.0
C980 C 0.62198 0.30639 0.02728 0.0
C981 C 0.64126 0.20775 1.00459 0.0
C982 C 0.63637 0.23853 0.99589 0.0
C983 C 0.62864 0.26999 1.00343 0.0
C984 C 0.6431 0.23875 0.97917 0.0
C985 C 0.64761 0.1728 0.99712 0.0
C986 C 0.67665 0.2308 0.97386 0.0
C987 C 0.68304 0.22721 0.95825 0.0
C988 C 0.65613 0.23179 0.94753 0.0
C989 C 0.62289 0.24173 0.95277 0.0
C990 C 0.61641 0.24516 0.96852 0.0
H991 H 0.64039 0.15089 1.00483 0.0
H992 H 0.6326 0.1703 0.98631 0.0
H993 H 0.67575 0.17027 0.99441 0.0
H994 H 0.6978 0.2265 0.98186 0.0
H995 H 0.70907 0.22033 0.95455 0.0
H996 H 0.85353 0.65349 0.57047 0.0
H997 H 0.84334 0.64192 0.54341 0.0
H998 H 0.73354 0.62876 0.55224 0.0
H999 H 0.74354 0.6412 0.57946 0.0
H1000 H 0.81333 0.58428 0.52806 0.0
H1001 H 0.73668 0.70634 0.51951 0.0
H1002 H 0.76248 0.6989 0.53646 0.0
H1003 H 0.72164 0.67667 0.53403 0.0
C1004 C 0.82717 0.64826 0.56668 0.0
C1005 C 0.79926 0.64888 0.57708 0.0
C1006 C 0.82142 0.64136 0.55121 0.0
C1007 C 0.78762 0.63502 0.54575 0.0
C1008 C 0.75977 0.63414 0.55617 0.0
H1009 H 0.74184 0.64019 0.44665 0.0
H1010 H 0.73265 0.62756 0.47399 0.0
C1011 C 0.76555 0.64096 0.57173 0.0
C1012 C 0.78202 0.63089 0.52904 0.0
H1013 H 0.75044 0.67376 0.49767 0.0
C1014 C 0.79909 0.60352 0.52143 0.0
C1015 C 0.76331 0.65591 0.52039 0.0
C1016 C 0.74511 0.68629 0.52793 0.0
C1017 C 0.79913 0.60131 0.5054 0.0
C1018 C 0.78216 0.62748 0.49673 0.0
C1019 C 0.76341 0.6537 0.50434 0.0
C1020 C 0.78734 0.6308 0.47995 0.0
C1021 C 0.81808 0.57141 0.49787 0.0
C1022 C 0.82103 0.63653 0.47425 0.0
C1023 C 0.8262 0.64381 0.45879 0.0
C1024 C 0.79781 0.64566 0.44865 0.0
C1025 C 0.76415 0.63861 0.4542 0.0
C1026 C 0.75891 0.63159 0.46979 0.0
H1027 H 0.81912 0.5482 0.50549 0.0
H1028 H 0.80543 0.56384 0.48694 0.0
H1029 H 0.8453 0.57947 0.49541 0.0
H1030 H 0.8433 0.63674 0.48187 0.0
H1031 H 0.85243 0.64886 0.45479 0.0
H1032 H 0.39179 0.74197 0.07922 0.0
H1033 H 0.40713 0.73225 0.05223 0.0
H1034 H 0.38333 0.83998 0.04227 0.0
H1035 H 0.36932 0.84998 0.06898 0.0
H1036 H 0.36334 0.73904 0.02779 0.0
H1037 H 0.47405 0.82915 0.01992 0.0
H1038 H 0.45913 0.81591 0.03863 0.0
H1039 H 0.4381 0.85132 0.02864 0.0
C1040 C 0.39066 0.76369 0.07131 0.0
C1041 C 0.37905 0.79667 0.07623 0.0
C1042 C 0.39927 0.75809 0.05589 0.0
C1043 C 0.39691 0.78552 0.04523 0.0
C1044 C 0.3862 0.81858 0.05028 0.0
H1045 H 0.36138 0.84271 0.95547 0.0
H1046 H 0.37667 0.83482 0.98229 0.0
C1047 C 0.37765 0.82414 0.06556 0.0
C1048 C 0.40229 0.77951 0.0286 0.0
H1049 H 0.43964 0.81674 0.99711 0.0
C1050 C 0.38073 0.7553 0.02108 0.0
C1051 C 0.42511 0.80061 0.01984 0.0
C1052 C 0.45065 0.82542 0.02722 0.0
C1053 C 0.37923 0.75375 1.00503 0.0
C1054 C 0.40015 0.77677 0.99628 0.0
C1055 C 0.42347 0.79923 1.00381 0.0
C1056 C 0.39452 0.78159 0.9796 0.0
C1057 C 0.35348 0.72929 0.99756 0.0
C1058 C 0.40043 0.75459 0.96902 0.0
C1059 C 0.39149 0.75905 0.95356 0.0
C1060 C 0.37636 0.79049 0.94853 0.0
C1061 C 0.37223 0.81793 0.95905 0.0
C1062 C 0.38122 0.81354 0.97438 0.0
H1063 H 0.33597 0.71658 1.00601 0.0
H1064 H 0.33726 0.74357 0.98909 0.0
H1065 H 0.36785 0.70851 0.99137 0.0
H1066 H 0.41122 0.7299 0.97277 0.0
H1067 H 0.39504 0.73752 0.9457 0.0
H1068 H 0.28972 0.37916 0.57776 0.0
H1069 H 0.29854 0.39019 0.55025 0.0
H1070 H 0.18716 0.39617 0.54392 0.0
H1071 H 0.17854 0.38518 0.57119 0.0
H1072 H 0.27194 0.34465 0.5278 0.0
H1073 H 0.22228 0.47848 0.51827 0.0
H1074 H 0.23532 0.46279 0.53691 0.0
H1075 H 0.19291 0.45225 0.52938 0.0
C1076 C 0.26734 0.38393 0.5705 0.0
C1077 C 0.23348 0.38133 0.5765 0.0
C1078 C 0.27232 0.39003 0.55483 0.0
C1079 C 0.24351 0.39437 0.54504 0.0
C1080 C 0.2098 0.39358 0.55125 0.0
H1081 H 0.17311 0.37099 0.45458 0.0
H1082 H 0.18404 0.38382 0.48153 0.0
C1083 C 0.20486 0.38708 0.56679 0.0
C1084 C 0.24788 0.39541 0.52817 0.0
H1085 H 0.22222 0.44024 0.4963 0.0
C1086 C 0.26191 0.36593 0.52089 0.0
C1087 C 0.23456 0.42308 0.51917 0.0
C1088 C 0.22073 0.4561 0.52634 0.0
C1089 C 0.26098 0.36242 0.5049 0.0
C1090 C 0.24613 0.38938 0.49595 0.0
C1091 C 0.23358 0.41959 0.50318 0.0
C1092 C 0.24017 0.38496 0.47928 0.0
C1093 C 0.27391 0.32899 0.49775 0.0
C1094 C 0.26811 0.38219 0.46897 0.0
C1095 C 0.26189 0.37478 0.4535 0.0
C1096 C 0.22767 0.36973 0.44815 0.0
C1097 C 0.19979 0.37392 0.45842 0.0
C1098 C 0.20597 0.38158 0.47379 0.0
H1099 H 0.2798 0.30864 0.50644 0.0
H1100 H 0.25424 0.31845 0.48964 0.0
H1101 H 0.29809 0.3344 0.49121 0.0
H1102 H 0.2947 0.3851 0.47295 0.0
H1103 H 0.28384 0.3718 0.44585 0.0
H1104 H 0.11299 0.45287 0.14538 0.0
H1105 H 0.07565 0.49963 0.13584 0.0
H1106 H 0.09209 0.46437 0.08958 0.0
H1107 H 0.12983 0.41775 0.09909 0.0
H1108 H 0.06663 0.55205 0.10866 0.0
H1109 H 0.99389 0.42548 0.10724 0.0
H1110 H 0.03444 0.42945 0.11753 0.0
H1111 H 0.03441 0.42965 0.09702 0.0
C1112 C 0.11053 0.45663 0.13314 0.0
C1113 C 0.12323 0.43161 0.12293 0.0
C1114 C 0.08921 0.48324 0.12769 0.0
C1115 C 0.0807 0.48455 0.11208 0.0
C1116 C 0.09841 0.4634 0.10165 0.0
H1117 H 0.89423 0.60877 0.10353 0.0
H1118 H 0.93236 0.56409 0.09267 0.0
C1119 C 0.11984 0.43688 0.10709 0.0
C1120 C 0.04698 0.49953 0.10792 0.0
H1121 H 0.961 0.47674 0.10867 0.0
C1122 C 0.04348 0.53581 0.10801 0.0
C1123 C 0.01708 0.47778 0.10727 0.0
C1124 C 0.01984 0.4384 0.10728 0.0
C1125 C 1.01047 0.55108 0.1087 0.0
C1126 C 0.98071 0.5292 0.10937 0.0
C1127 C 0.98408 0.49307 0.10803 0.0
C1128 C 0.94754 0.54339 0.11466 0.0
C1129 C 1.0077 0.59031 0.11016 0.0
C1130 C 0.94143 0.5439 0.13048 0.0
C1131 C 0.91992 0.56944 0.1367 0.0
C1132 C 0.90454 0.59407 0.12702 0.0
C1133 C 0.90604 0.5897 0.11109 0.0
C1134 C 0.92772 0.56433 0.10488 0.0
H1135 H 0.03351 0.6034 0.10947 0.0
H1136 H 0.99082 0.60077 0.10092 0.0
H1137 H 0.99547 0.5972 0.12126 0.0
H1138 H 0.95677 0.52772 0.13811 0.0
H1139 H 0.9191 0.57273 0.149 0.0
H1140 H 0.40362 0.90882 0.5993 0.0
H1141 H 0.45061 0.93665 0.58488 0.0
H1142 H 0.49983 0.96715 0.62722 0.0
H1143 H 0.45239 0.93996 0.64167 0.0
H1144 H 0.4495 1.01143 0.59426 0.0
H1145 H 0.58142 0.95227 0.59502 0.0
H1146 H 0.54184 0.92645 0.59557 0.0
H1147 H 0.55766 0.94744 0.6126 0.0
C1148 C 0.42533 0.92025 0.60547 0.0
C1149 C 0.42438 0.92338 0.62147 0.0
C1150 C 0.45216 0.93574 0.59725 0.0
C1151 C 0.47832 0.95385 0.60503 0.0
C1152 C 0.47988 0.95276 0.62108 0.0
H1153 H 0.5696 0.10274 0.63468 0.0
H1154 H 0.52174 0.07646 0.62052 0.0
C1155 C 0.45282 0.93751 0.62933 0.0
C1156 C 0.49698 0.98189 0.5972 0.0
H1157 H 0.57849 0.01557 0.59552 0.0
C1158 C 0.47776 1.01216 0.5938 0.0
C1159 C 0.53357 0.98242 0.59661 0.0
C1160 C 0.55488 0.95028 0.60002 0.0
C1161 C 0.49452 0.0443 0.59204 0.0
C1162 C 0.531 0.04552 0.59339 0.0
C1163 C 0.55032 0.0144 0.59443 0.0
C1164 C 0.54867 0.07708 0.59875 0.0
C1165 C 0.47313 0.07713 0.59059 0.0
C1166 C 0.57797 0.089 0.59083 0.0
C1167 C 0.60523 0.10427 0.5989 0.0
C1168 C 0.60343 0.1069 0.61493 0.0
C1169 C 0.57178 0.1004 0.62237 0.0
C1170 C 0.54426 0.08575 0.61423 0.0
H1171 H 0.44766 0.07173 0.585 0.0
H1172 H 0.46788 0.0877 0.60217 0.0
H1173 H 0.48733 0.09736 0.58394 0.0
H1174 H 0.58164 0.08247 0.57889 0.0
H1175 H 0.62907 0.11055 0.59285 0.0
H1176 H 0.39665 0.905 0.92812 0.0
H1177 H 0.43406 0.94957 0.93942 0.0
H1178 H 0.43541 1.00489 0.89646 0.0
H1179 H 0.39914 0.95964 0.88497 0.0
H1180 H 0.49428 0.94093 0.91676 0.0
H1181 H 0.46306 0.07829 0.93197 0.0
H1182 H 0.43315 0.04243 0.93529 0.0
H1183 H 0.43832 0.06004 0.91639 0.0
C1184 C 0.40317 0.9279 0.9214 0.0
C1185 C 0.39645 0.92865 0.9056 0.0
C1186 C 0.42427 0.95341 0.92791 0.0
C1187 C 0.43787 0.97987 0.91865 0.0
C1188 C 0.42497 0.9845 0.90374 0.0
H1189 H 0.58427 0.06836 0.87433 0.0
H1190 H 0.55308 0.01983 0.8863 0.0
C1191 C 0.40436 0.95861 0.89714 0.0
C1192 C 0.47335 0.99213 0.92161 0.0
H1193 H 0.52029 0.06715 0.92174 0.0
C1194 C 0.50037 0.96834 0.91851 0.0
C1195 C 0.48076 0.02771 0.92374 0.0
C1196 C 0.45234 0.05368 0.92715 0.0
C1197 C 0.53426 0.98007 0.91574 0.0
C1198 C 0.54096 0.01609 0.91648 0.0
C1199 C 0.51483 0.03935 0.9213 0.0
C1200 C 0.57155 0.03149 0.90916 0.0
C1201 C 0.56182 0.95456 0.91066 0.0
C1202 C 0.59425 0.05179 0.91795 0.0
C1203 C 0.61216 0.07919 0.91111 0.0
C1204 C 0.60691 0.08646 0.89554 0.0
C1205 C 0.58856 0.0629 0.88634 0.0
C1206 C 0.5709 0.03522 0.89318 0.0
H1207 H 0.55531 0.92741 0.91414 0.0
H1208 H 0.56384 0.95531 0.898 0.0
H1209 H 0.58766 0.96179 0.91546 0.0
H1210 H 0.59473 0.04924 0.93029 0.0
H1211 H 0.6265 0.09727 0.91829 0.0
H1212 H 0.11321 0.4093 0.42734 0.0
H1213 H 0.06651 0.44073 0.44034 0.0
H1214 H 0.01879 0.46314 0.39672 0.0
H1215 H 0.06586 0.43244 0.38368 0.0
H1216 H 0.07382 0.51072 0.42831 0.0
H1217 H 0.93631 0.46659 0.42785 0.0
H1218 H 0.97271 0.43653 0.42869 0.0
H1219 H 0.9595 0.45528 0.41073 0.0
C1220 C 0.09183 0.41967 0.42062 0.0
C1221 C 0.09341 0.41987 0.40457 0.0
C1222 C 0.06504 0.43712 0.42807 0.0
C1223 C 0.03961 0.4544 0.41946 0.0
C1224 C 0.03814 0.44959 0.40354 0.0
H1225 H 0.96501 0.61119 0.38289 0.0
H1226 H 1.00854 0.57835 0.39735 0.0
C1227 C 0.06514 0.43237 0.39607 0.0
C1228 C 0.02351 0.48596 0.4257 0.0
H1229 H 0.94646 0.52896 0.42368 0.0
C1230 C 0.04581 0.51465 0.42806 0.0
C1231 C 0.9872 0.49079 0.42532 0.0
C1232 C 0.9625 0.46055 0.42314 0.0
C1233 C 0.03285 0.54872 0.42783 0.0
C1234 C 0.99694 0.55367 0.42558 0.0
C1235 C 0.97418 0.52486 0.42543 0.0
C1236 C 0.9834 0.58632 0.41925 0.0
C1237 C 0.05779 0.57913 0.42826 0.0
C1238 C 0.95704 0.604 0.42707 0.0
C1239 C 0.93266 0.6232 0.41885 0.0
C1240 C 0.93431 0.62396 0.4028 0.0
C1241 C 0.96363 0.61094 0.39526 0.0
C1242 C 0.98841 0.59226 0.40354 0.0
H1243 H 0.08262 0.57198 0.43402 0.0
H1244 H 0.06388 0.58728 0.41638 0.0
H1245 H 0.04594 0.60176 0.43426 0.0
H1246 H 0.95278 0.59934 0.43915 0.0
H1247 H 0.90997 0.63324 0.42477 0.0
H1248 H 0.96502 0.60941 0.86236 0.0
H1249 H 0.01381 0.57226 0.86986 0.0
H1250 H 0.9579 0.54116 0.91046 0.0
H1251 H 0.90926 0.5788 0.90302 0.0
H1252 H 0.02086 0.57919 0.91562 0.0
H1253 H 0.03846 0.46876 0.87497 0.0
H1254 H 0.03134 0.51073 0.8663 0.0
H1255 H 0.99727 0.49084 0.87737 0.0
C1256 C 0.96233 0.59275 0.87231 0.0
C1257 C 0.93376 0.59644 0.88213 0.0
C1258 C 0.99026 0.57194 0.87669 0.0
C1259 C 0.98932 0.55458 0.89078 0.0
C1260 C 0.95884 0.55467 0.89958 0.0
H1261 H 0.09403 0.41552 0.9308 0.0
H1262 H 0.0755 0.47444 0.93569 0.0
C1263 C 0.93093 0.57552 0.89521 0.0
C1264 C 0.02162 0.54115 0.89739 0.0
H1265 H 0.08357 0.47929 0.89255 0.0
C1266 C 0.03478 0.55734 0.91064 0.0
C1267 C 0.03964 0.51328 0.89058 0.0
C1268 C 0.02592 0.49465 0.87659 0.0
C1269 C 0.06534 0.54528 0.91761 0.0
C1270 C 0.08283 0.51685 0.91104 0.0
C1271 C 0.0703 0.5017 0.89742 0.0
C1272 C 0.1102 0.49757 0.91912 0.0
C1273 C 0.07841 0.56211 0.93209 0.0
C1274 C 0.14101 0.49231 0.91095 0.0
C1275 C 0.15072 0.45828 0.90732 0.0
C1276 C 0.13017 0.42985 0.91245 0.0
C1277 C 0.10742 0.43622 0.92483 0.0
C1278 C 0.09783 0.47038 0.92832 0.0
H1279 H 0.06547 0.58756 0.9343 0.0
H1280 H 0.07322 0.54442 0.94189 0.0
H1281 H 0.10705 0.5662 0.93143 0.0
H1282 H 0.1526 0.51365 0.90458 0.0
H1283 H 0.17157 0.45553 0.89918 0.0
H1284 H 0.61926 0.12812 0.43022 0.0
H1285 H 0.5741 0.09346 0.44285 0.0
H1286 H 0.5219 0.08005 0.39953 0.0
H1287 H 0.56715 0.11434 0.38688 0.0
H1288 H 0.47869 0.07466 0.4292 0.0
H1289 H 0.59866 0.99267 0.42441 0.0
H1290 H 0.59988 0.0333 0.43476 0.0
H1291 H 0.59556 0.03363 0.41433 0.0
C1292 C 0.59697 0.11941 0.42361 0.0
C1293 C 0.59671 0.12283 0.4076 0.0
C1294 C 0.57127 0.09978 0.43083 0.0
C1295 C 0.54542 0.08377 0.42201 0.0
C1296 C 0.54191 0.09231 0.40646 0.0
H1297 H 0.45268 0.93594 0.38209 0.0
H1298 H 0.49703 0.96988 0.39566 0.0
C1299 C 0.56768 0.11184 0.39922 0.0
C1300 C 0.52931 0.05122 0.42723 0.0
H1301 H 0.54491 0.96402 0.42354 0.0
C1302 C 0.49309 0.05031 0.42875 0.0
C1303 C 0.54863 0.01972 0.42654 0.0
C1304 C 0.58784 0.01956 0.42491 0.0
C1305 C 0.47514 0.01859 0.42781 0.0
C1306 C 0.49428 0.98752 0.42526 0.0
C1307 C 0.53066 0.98805 0.42556 0.0
C1308 C 0.47713 0.95742 0.41821 0.0
C1309 C 0.43577 0.01898 0.4277 0.0
C1310 C 0.4534 0.93735 0.42656 0.0
C1311 C 0.42827 0.91801 0.41881 0.0
C1312 C 0.42698 0.91881 0.40276 0.0
C1313 C 0.45356 0.93503 0.39447 0.0
C1314 C 0.47873 0.95433 0.40222 0.0
H1315 H 0.42503 0.04553 0.42971 0.0
H1316 H 0.4259 1.00932 0.41654 0.0
H1317 H 0.42572 1.0013 0.43674 0.0
H1318 H 0.45206 0.93952 0.43889 0.0
H1319 H 0.40774 0.90543 0.42531 0.0
H1320 H 0.44543 0.94605 0.15256 0.0
H1321 H 0.48636 0.98801 0.14141 0.0
H1322 H 0.44222 0.96963 0.09675 0.0
H1323 H 0.4007 0.92833 0.10796 0.0
H1324 H 0.52002 0.94365 0.10815 0.0
H1325 H 0.48436 0.08446 0.11167 0.0
H1326 H 0.47274 0.0567 0.12753 0.0
H1327 H 0.45207 0.05034 0.10934 0.0
C1328 C 0.44297 0.95291 0.14059 0.0
C1329 C 0.4202 0.93449 0.13105 0.0
C1330 C 0.46643 0.97649 0.1342 0.0
C1331 C 0.46713 0.98134 0.11831 0.0
C1332 C 0.44161 0.96616 0.10905 0.0
H1333 H 0.63481 0.11075 0.09753 0.0
H1334 H 0.60364 0.06122 0.08661 0.0
C1335 C 0.41786 0.94295 0.11546 0.0
C1336 C 0.4988 0.99531 0.1114 0.0
H1337 H 0.54436 0.07075 0.10841 0.0
C1338 C 0.52529 0.97149 0.10766 0.0
C1339 C 0.50503 0.03141 0.11086 0.0
C1340 C 0.47706 0.05739 0.11498 0.0
C1341 C 0.55923 0.9831 0.10475 0.0
C1342 C 0.56614 0.01912 0.10543 0.0
C1343 C 0.53873 0.04301 0.10767 0.0
C1344 C 0.60141 0.03265 0.10789 0.0
C1345 C 0.58797 0.95698 0.10218 0.0
C1346 C 0.61413 0.03055 0.12293 0.0
C1347 C 0.63105 0.05925 0.12932 0.0
C1348 C 0.63576 0.08934 0.12048 0.0
C1349 C 0.63037 0.08789 0.10459 0.0
C1350 C 0.61308 0.05942 0.09827 0.0
H1351 H 0.57753 0.93141 0.09827 0.0
H1352 H 0.60689 0.96695 0.09361 0.0
H1353 H 0.60222 0.95278 0.11308 0.0
H1354 H 0.60547 1.00984 0.13048 0.0
H1355 H 0.63559 0.05975 0.14155 0.0
H1356 H 0.06172 0.38906 0.63538 0.0
H1357 H 0.01432 0.42217 0.62397 0.0
H1358 H 0.07709 0.44176 0.58403 0.0
H1359 H 0.12393 0.40691 0.595 0.0
H1360 H 0.07894 0.49081 0.61178 0.0
H1361 H 0.94636 0.46422 0.589 0.0
H1362 H 0.96296 0.43225 0.60225 0.0
H1363 H 0.98401 0.43798 0.58408 0.0
C1364 C 0.06444 0.39818 0.62371 0.0
C1365 C 0.0968 0.39739 0.61636 0.0
C1366 C 0.03717 0.41683 0.61708 0.0
C1367 C 0.04302 0.43545 0.60347 0.0
C1368 C 0.07241 0.42788 0.59463 0.0
H1369 H 0.93894 0.63402 0.61962 0.0
H1370 H 0.98419 0.59965 0.60681 0.0
C1371 C 0.09936 0.40854 0.60107 0.0
C1372 C 0.02977 0.47128 0.60321 0.0
H1373 H 0.95286 0.51462 0.60546 0.0
C1374 C 0.05167 0.49677 0.60973 0.0
C1375 C 0.99433 0.47847 0.60072 0.0
C1376 C 0.97049 0.45189 0.59351 0.0
C1377 C 0.03793 0.52771 0.61559 0.0
C1378 C 1.00188 0.53331 0.61441 0.0
C1379 C 0.98068 0.50983 0.60628 0.0
C1380 C 0.98447 0.55908 0.62399 0.0
C1381 C 0.06105 0.55234 0.62445 0.0
C1382 C 0.97172 0.5482 0.63823 0.0
C1383 C 0.94586 0.56746 0.64545 0.0
C1384 C 0.93319 0.5978 0.63849 0.0
C1385 C 0.94908 0.61089 0.62522 0.0
C1386 C 0.97457 0.59129 0.61786 0.0
H1387 H 0.08915 0.54719 0.62236 0.0
H1388 H 0.0551 0.57985 0.62138 0.0
H1389 H 0.05585 0.54915 0.63686 0.0
H1390 H 0.97923 0.52312 0.64296 0.0
H1391 H 0.93333 0.55687 0.65554 0.0
H1392 H 0.55147 0.24287 0.11546 0.0
H1393 H 0.48768 0.24097 0.11192 0.0
H1394 H 0.47361 0.27364 0.15866 0.0
H1395 H 0.53658 0.27584 0.16211 0.0
H1396 H 0.44123 0.1984 0.12729 0.0
H1397 H 0.40428 0.33571 0.13772 0.0
H1398 H 0.4487 0.323 0.13387 0.0
H1399 H 0.43102 0.31912 0.15288 0.0
C1400 C 0.53472 0.2512 0.12473 0.0
C1401 C 0.5492 0.26042 0.13896 0.0
C1402 C 0.49819 0.24954 0.12279 0.0
C1403 C 0.47548 0.25751 0.13497 0.0
C1404 C 0.49016 0.26817 0.14893 0.0
H1405 H 0.26437 0.23979 0.16499 0.0
H1406 H 0.32753 0.23648 0.16158 0.0
C1407 C 0.52636 0.26962 0.15088 0.0
C1408 C 0.4367 0.25254 0.13371 0.0
H1409 H 0.35898 0.29291 0.14133 0.0
C1410 C 0.42325 0.21928 0.13007 0.0
C1411 C 0.4129 0.2796 0.13739 0.0
C1412 C 0.42495 0.31643 0.14053 0.0
C1413 C 0.38708 0.21215 0.13065 0.0
C1414 C 0.36364 0.23886 0.13496 0.0
C1415 C 0.37693 0.27229 0.13814 0.0
C1416 C 0.32538 0.2327 0.13694 0.0
C1417 C 0.37407 0.1758 0.12729 0.0
C1418 C 0.30283 0.22996 0.12428 0.0
C1419 C 0.26639 0.23138 0.12626 0.0
C1420 C 0.25197 0.23551 0.14094 0.0
C1421 C 0.27459 0.23546 0.1536 0.0
C1422 C 0.3108 0.23412 0.15164 0.0
H1423 H 0.39572 0.15717 0.12517 0.0
H1424 H 0.35815 0.1661 0.13701 0.0
H1425 H 0.35698 0.17643 0.11704 0.0
H1426 H 0.31341 0.22931 0.11281 0.0
H1427 H 0.2498 0.23284 0.11625 0.0
H1428 H 0.72984 0.26694 0.66299 0.0
H1429 H 0.73584 0.3296 0.66043 0.0
H1430 H 0.81269 0.31496 0.625 0.0
H1431 H 0.80468 0.25111 0.6269 0.0
H1432 H 0.7794 0.37617 0.66423 0.0
H1433 H 0.75088 0.37792 0.60208 0.0
H1434 H 0.74831 0.33848 0.61324 0.0
H1435 H 0.78995 0.35468 0.60687 0.0
C1436 C 0.7485 0.27691 0.65477 0.0
C1437 C 0.76668 0.25385 0.64512 0.0
C1438 C 0.75192 0.31306 0.65329 0.0
C1439 C 0.774 0.32774 0.64221 0.0
C1440 C 0.79446 0.30472 0.6333 0.0
H1441 H 0.78913 0.55883 0.64934 0.0
H1442 H 0.80176 0.49661 0.651 0.0
C1443 C 0.79058 0.26807 0.63463 0.0
C1444 C 0.77401 0.36691 0.64007 0.0
H1445 H 0.76121 0.43222 0.61382 0.0
C1446 C 0.77541 0.3883 0.65316 0.0
C1447 C 0.76831 0.3833 0.62571 0.0
C1448 C 0.76392 0.36246 0.61119 0.0
C1449 C 0.77004 0.42473 0.65246 0.0
C1450 C 0.76522 0.44132 0.63807 0.0
C1451 C 0.76493 0.42006 0.6249 0.0
C1452 C 0.75907 0.4802 0.6364 0.0
C1453 C 0.7676 0.44439 0.66738 0.0
C1454 C 0.73203 0.4929 0.62698 0.0
C1455 C 0.72619 0.52899 0.62524 0.0
C1456 C 0.74693 0.55371 0.63298 0.0
C1457 C 0.77339 0.54098 0.64269 0.0
C1458 C 0.78004 0.50497 0.64401 0.0
H1459 H 0.75957 0.42692 0.67691 0.0
H1460 H 0.79362 0.45511 0.67035 0.0
H1461 H 0.74859 0.46617 0.66669 0.0
H1462 H 0.71517 0.47484 0.62095 0.0
H1463 H 0.70541 0.53749 0.61773 0.0
H1464 H 0.48513 0.75476 0.16519 0.0
H1465 H 0.54729 0.75891 0.16071 0.0
H1466 H 0.52888 0.76498 0.11211 0.0
H1467 H 0.46551 0.76304 0.11673 0.0
H1468 H 0.59404 0.72364 0.14793 0.0
H1469 H 0.58836 0.84897 0.11601 0.0
H1470 H 0.55044 0.83024 0.12501 0.0
H1471 H 0.56552 0.81377 0.10691 0.0
C1472 C 0.49414 0.75641 0.15347 0.0
C1473 C 0.47007 0.75868 0.14134 0.0
C1474 C 0.52998 0.75894 0.15092 0.0
C1475 C 0.5433 0.76333 0.13609 0.0
C1476 C 0.51951 0.76288 0.12374 0.0
H1477 H 0.76613 0.77384 0.1127 0.0
H1478 H 0.7023 0.77598 0.11059 0.0
C1479 C 0.4832 0.76087 0.12634 0.0
C1480 C 0.58195 0.7686 0.13407 0.0
H1481 H 0.64416 0.8245 0.11991 0.0
C1482 C 0.60477 0.74575 0.14176 0.0
C1483 C 0.59653 0.79745 0.12605 0.0
C1484 C 0.57399 0.82422 0.11814 0.0
C1485 C 0.64106 0.75112 0.14192 0.0
C1486 C 0.65548 0.78014 0.13412 0.0
C1487 C 0.63308 0.8024 0.12597 0.0
C1488 C 0.6938 0.78738 0.1345 0.0
C1489 C 0.66377 0.72562 0.15055 0.0
C1490 C 0.71041 0.79532 0.14841 0.0
C1491 C 0.74686 0.79455 0.14956 0.0
C1492 C 0.76751 0.78635 0.13681 0.0
C1493 C 0.75101 0.78163 0.12258 0.0
C1494 C 0.71445 0.78227 0.12143 0.0
H1495 H 0.64985 0.7008 0.15305 0.0
H1496 H 0.6878 0.71956 0.144 0.0
H1497 H 0.67169 0.73744 0.16161 0.0
H1498 H 0.69511 0.79958 0.15864 0.0
H1499 H 0.75874 0.79706 0.16076 0.0
H1500 H 0.26124 0.46954 0.61802 0.0
H1501 H 0.26215 0.5335 0.61428 0.0
H1502 H 0.26987 0.54784 0.66306 0.0
H1503 H 0.27049 0.48505 0.6667 0.0
H1504 H 0.21592 0.5819 0.62378 0.0
H1505 H 0.34211 0.61519 0.65023 0.0
H1506 H 0.33067 0.57076 0.64555 0.0
H1507 H 0.31632 0.5901 0.66327 0.0
C1508 C 0.26472 0.4864 0.62784 0.0
C1509 C 0.26652 0.47201 0.64265 0.0
C1510 C 0.26464 0.52303 0.62574 0.0
C1511 C 0.26663 0.54591 0.63837 0.0
C1512 C 0.2694 0.53126 0.65304 0.0
H1513 H 0.2499 0.76191 0.66428 0.0
H1514 H 0.24594 0.69825 0.66223 0.0
C1515 C 0.26972 0.49506 0.65511 0.0
C1516 C 0.26374 0.58491 0.63666 0.0
H1517 H 0.29983 0.66157 0.6492 0.0
C1518 C 0.2346 0.59931 0.62913 0.0
C1519 C 0.28797 0.60804 0.6436 0.0
C1520 C 0.32117 0.59518 0.65096 0.0
C1521 C 0.22831 0.63573 0.629 0.0
C1522 C 0.25178 0.65853 0.63655 0.0
C1523 C 0.28141 0.64421 0.64363 0.0
C1524 C 0.24647 0.69728 0.63749 0.0
C1525 C 0.19594 0.64941 0.62125 0.0
C1526 C 0.24651 0.71837 0.62429 0.0
C1527 C 0.24804 0.755 0.6255 0.0
C1528 C 0.24957 0.77122 0.63991 0.0
C1529 C 0.24745 0.75023 0.65304 0.0
C1530 C 0.24575 0.71375 0.65186 0.0
H1531 H 0.17654 0.62837 0.61918 0.0
H1532 H 0.18354 0.67023 0.62821 0.0
H1533 H 0.20318 0.66088 0.61004 0.0
H1534 H 0.24792 0.70652 0.61307 0.0
H1535 H 0.25122 0.77042 0.61519 0.0
H1536 H 0.04336 0.27937 0.91058 0.0
H1537 H 0.97964 0.28074 0.91377 0.0
H1538 H 0.96667 0.23877 0.86845 0.0
H1539 H 0.03003 0.23849 0.86503 0.0
H1540 H 0.93394 0.32065 0.88772 0.0
H1541 H 0.89831 0.18284 0.90081 0.0
H1542 H 0.93998 0.20117 0.90626 0.0
H1543 H 0.93144 0.19092 0.88663 0.0
C1544 C 0.02705 0.26911 0.90153 0.0
C1545 C 0.04198 0.25815 0.88763 0.0
C1546 C 0.99052 0.27035 0.90329 0.0
C1547 C 0.96825 0.26003 0.89131 0.0
C1548 C 0.98318 0.24675 0.87788 0.0
H1549 H 0.75433 0.2898 0.86295 0.0
H1550 H 0.81776 0.29414 0.86606 0.0
C1551 C 0.0195 0.24609 0.87603 0.0
C1552 C 0.92965 0.26552 0.89219 0.0
H1553 H 0.85211 0.22201 0.89583 0.0
C1554 C 0.91605 0.29915 0.88965 0.0
C1555 C 0.90622 0.23752 0.89458 0.0
C1556 C 0.91946 0.20098 0.8973 0.0
C1557 C 0.87975 0.3053 0.88919 0.0
C1558 C 0.8563 0.27716 0.89136 0.0
C1559 C 0.86996 0.24368 0.89422 0.0
C1560 C 0.81756 0.28146 0.89017 0.0
C1561 C 0.86663 0.34185 0.88634 0.0
C1562 C 0.79597 0.2742 0.90276 0.0
C1563 C 0.75957 0.27265 0.90105 0.0
C1564 C 0.74395 0.27804 0.88668 0.0
C1565 C 0.76542 0.28714 0.87429 0.0
C1566 C 0.8018 0.28911 0.87603 0.0
H1567 H 0.88741 0.3617 0.88808 0.0
H1568 H 0.85724 0.3439 0.87437 0.0
H1569 H 0.8444 0.34794 0.89401 0.0
H1570 H 0.80739 0.26789 0.91375 0.0
H1571 H 0.7439 0.264 0.91064 0.0
H1572 H 0.75293 0.75525 0.41327 0.0
H1573 H 0.74742 0.81892 0.41574 0.0
H1574 H 0.73348 0.82728 0.36694 0.0
H1575 H 0.73845 0.76392 0.3646 0.0
H1576 H 0.79363 0.86385 0.40343 0.0
H1577 H 0.66323 0.8976 0.381 0.0
H1578 H 0.67464 0.85361 0.3865 0.0
H1579 H 0.68681 0.87027 0.36799 0.0
C1580 C 0.74643 0.77055 0.40324 0.0
C1581 C 0.74466 0.75447 0.38882 0.0
C1582 C 0.74401 0.80706 0.40459 0.0
C1583 C 0.7397 0.82821 0.39155 0.0
C1584 C 0.73583 0.81182 0.37726 0.0
H1585 H 0.77113 0.03715 0.36083 0.0
H1586 H 0.76833 0.97434 0.36534 0.0
C1587 C 0.73831 0.77542 0.37592 0.0
C1588 C 0.74334 0.86714 0.39252 0.0
H1589 H 0.70593 0.94386 0.38092 0.0
C1590 C 0.77409 0.88135 0.39879 0.0
C1591 C 0.71807 0.89022 0.38639 0.0
C1592 C 0.6837 0.87716 0.38023 0.0
C1593 C 0.78078 0.91761 0.39851 0.0
C1594 C 0.75608 0.94045 0.39188 0.0
C1595 C 0.72495 0.92639 0.386 0.0
C1596 C 0.76298 0.97862 0.38984 0.0
C1597 C 0.8149 0.93126 0.40465 0.0
C1598 C 0.76235 1.00221 0.40221 0.0
C1599 C 0.76422 0.03859 0.39966 0.0
C1600 C 0.76669 0.05183 0.38468 0.0
C1601 C 0.76965 0.02788 0.37252 0.0
C1602 C 0.76767 0.99188 0.37506 0.0
H1603 H 0.83281 0.90987 0.40812 0.0
H1604 H 0.82801 0.94762 0.39588 0.0
H1605 H 0.80984 0.94806 0.41474 0.0
H1606 H 0.75853 0.99261 0.41374 0.0
H1607 H 0.76102 0.05622 0.40923 0.0
H1608 H 0.96736 0.76251 0.90722 0.0
H1609 H 0.03104 0.76039 0.91134 0.0
H1610 H 0.04711 0.76748 0.86265 0.0
H1611 H 0.9849 0.77186 0.85866 0.0
H1612 H 0.07759 0.71329 0.90298 0.0
H1613 H 0.11761 0.83564 0.87488 0.0
H1614 H 0.07254 0.82661 0.87914 0.0
H1615 H 0.09222 0.81026 0.86181 0.0
C1616 C 0.98462 0.76524 0.89751 0.0
C1617 C 0.9708 0.76801 0.88263 0.0
C1618 C 0.02108 0.76343 0.89982 0.0
C1619 C 0.0444 0.76442 0.88733 0.0
C1620 C 0.03033 0.76793 0.87259 0.0
H1621 H 0.25873 0.73316 0.86253 0.0
H1622 H 0.19518 0.73074 0.86467 0.0
C1623 C 0.99438 0.77028 0.87032 0.0
C1624 C 0.08313 0.75975 0.88925 0.0
H1625 H 0.16159 0.79072 0.87635 0.0
C1626 C 0.09593 0.73061 0.89737 0.0
C1627 C 0.10756 0.78221 0.882 0.0
C1628 C 0.09671 0.81559 0.87413 0.0
C1629 C 0.13193 0.7226 0.8978 0.0
C1630 C 0.15589 0.74412 0.88988 0.0
C1631 C 0.14326 0.77375 0.88219 0.0
C1632 C 0.19424 0.73686 0.88925 0.0
C1633 C 0.14401 0.69055 0.90631 0.0
C1634 C 0.21522 0.73928 0.90242 0.0
C1635 C 0.25179 0.73998 0.9012 0.0
C1636 C 0.26803 0.73827 0.88681 0.0
C1637 C 0.24707 0.73313 0.87382 0.0
C1638 C 0.21064 0.73239 0.87502 0.0
H1639 H 0.12201 0.67284 0.90918 0.0
H1640 H 0.16347 0.67587 0.89947 0.0
H1641 H 0.15677 0.69868 0.91713 0.0
H1642 H 0.20337 0.7435 0.91349 0.0
H1643 H 0.26713 0.74561 0.91132 0.0
H1644 H 0.28402 0.26998 0.40627 0.0
H1645 H 0.29102 0.20619 0.40875 0.0
H1646 H 0.25456 0.1932 0.36244 0.0
H1647 H 0.24819 0.25626 0.35996 0.0
H1648 H 0.23784 0.15872 0.40697 0.0
H1649 H 0.33442 0.126 0.36253 0.0
H1650 H 0.32836 0.17009 0.36932 0.0
H1651 H 0.29998 0.15229 0.35485 0.0
C1652 C 0.27931 0.25351 0.39641 0.0
C1653 C 0.26657 0.26812 0.38276 0.0
C1654 C 0.28271 0.21701 0.3979 0.0
C1655 C 0.27371 0.19462 0.38572 0.0
C1656 C 0.2626 0.20961 0.37189 0.0
H1657 H 0.23299 0.98262 0.36176 0.0
H1658 H 0.23518 0.04576 0.36514 0.0
C1659 C 0.2591 0.2458 0.37044 0.0
C1660 C 0.2725 0.15574 0.38767 0.0
H1661 H 0.29582 0.07944 0.37016 0.0
C1662 C 0.25101 0.14132 0.39909 0.0
C1663 C 0.2896 0.13283 0.37742 0.0
C1664 C 0.31465 0.14611 0.36545 0.0
C1665 C 0.24466 0.105 0.39998 0.0
C1666 C 0.26053 0.08228 0.38927 0.0
C1667 C 0.28318 0.09667 0.37828 0.0
C1668 C 0.25302 0.04381 0.38859 0.0
C1669 C 0.21978 0.09151 0.41195 0.0
C1670 C 0.26034 0.02117 0.40091 0.0
C1671 C 0.25811 0.98461 0.39909 0.0
C1672 C 0.24929 0.97004 0.38481 0.0
C1673 C 0.23948 0.99287 0.37295 0.0
C1674 C 0.24126 0.02913 0.37481 0.0
H1675 H 0.20345 0.11273 0.4168 0.0
H1676 H 0.20239 0.07109 0.40713 0.0
H1677 H 0.23493 0.07968 0.42144 0.0
H1678 H 0.26987 0.03159 0.41163 0.0
H1679 H 0.26618 0.96796 0.40845 0.0
H1680 H 0.48512 0.7508 0.86017 0.0
H1681 H 0.54776 0.75463 0.86457 0.0
H1682 H 0.52959 0.77017 0.9127 0.0
H1683 H 0.4662 0.76625 0.90831 0.0
H1684 H 0.57939 0.81588 0.87656 0.0
H1685 H 0.61135 0.69866 0.91148 0.0
H1686 H 0.57202 0.70155 0.90018 0.0
H1687 H 0.57543 0.72512 0.91784 0.0
C1688 C 0.49438 0.75381 0.87181 0.0
C1689 C 0.47048 0.75784 0.8839 0.0
C1690 C 0.53032 0.75637 0.87428 0.0
C1691 C 0.54364 0.76285 0.88894 0.0
C1692 C 0.52007 0.7648 0.90128 0.0
H1693 H 0.7665 0.77904 0.913 0.0
H1694 H 0.70283 0.78528 0.91485 0.0
C1695 C 0.48377 0.76222 0.89879 0.0
C1696 C 0.58182 0.77005 0.89081 0.0
H1697 H 0.65748 0.7369 0.90563 0.0
C1698 C 0.5964 0.79873 0.88303 0.0
C1699 C 0.60416 0.74795 0.89931 0.0
C1700 C 0.59019 0.71641 0.90763 0.0
C1701 C 0.63251 0.80559 0.88332 0.0
C1702 C 0.6551 0.7827 0.89133 0.0
C1703 C 0.64038 0.75461 0.89951 0.0
C1704 C 0.69405 0.78564 0.89039 0.0
C1705 C 0.64596 0.83746 0.87505 0.0
C1706 C 0.71074 0.78505 0.87608 0.0
C1707 C 0.74706 0.78228 0.87506 0.0
C1708 C 0.76772 0.77991 0.88829 0.0
C1709 C 0.7514 0.78237 0.90262 0.0
C1710 C 0.71491 0.78521 0.90366 0.0
H1711 H 0.6258 0.85824 0.8745 0.0
H1712 H 0.66958 0.84829 0.88067 0.0
H1713 H 0.6527 0.83024 0.86313 0.0
H1714 H 0.69557 0.78424 0.86564 0.0
H1715 H 0.75879 0.77893 0.86388 0.0
H1716 H 0.229 0.46046 0.37876 0.0
H1717 H 0.21377 0.52232 0.37746 0.0
H1718 H 0.30486 0.54773 0.40419 0.0
H1719 H 0.31812 0.48579 0.40683 0.0
H1720 H 0.25647 0.58705 0.4134 0.0
H1721 H 0.25114 0.59394 0.35025 0.0
H1722 H 0.21944 0.56424 0.3578 0.0
H1723 H 0.26529 0.55522 0.36012 0.0
C1724 C 0.24535 0.47905 0.3847 0.0
C1725 C 0.27437 0.46764 0.39324 0.0
C1726 C 0.23702 0.51478 0.38364 0.0
C1727 C 0.25838 0.54034 0.39049 0.0
C1728 C 0.28768 0.52893 0.3988 0.0
H1729 H 0.28887 0.7517 0.36528 0.0
H1730 H 0.28023 0.68937 0.36733 0.0
C1731 C 0.29545 0.49326 0.40021 0.0
C1732 C 0.25061 0.57882 0.38918 0.0
H1733 H 0.23427 0.64458 0.36362 0.0
C1734 C 0.2517 0.59958 0.40248 0.0
C1735 C 0.24435 0.59565 0.37497 0.0
C1736 C 0.24533 0.57618 0.35997 0.0
C1737 C 0.24819 0.63628 0.40194 0.0
C1738 C 0.24166 0.65304 0.38774 0.0
C1739 C 0.239 0.63208 0.37456 0.0
C1740 C 0.24276 0.69213 0.38581 0.0
C1741 C 0.25356 0.65668 0.41652 0.0
C1742 C 0.22354 0.71554 0.39505 0.0
C1743 C 0.22908 0.752 0.39406 0.0
C1744 C 0.25343 0.76553 0.38362 0.0
C1745 C 0.27013 0.74222 0.37358 0.0
C1746 C 0.26512 0.70627 0.37472 0.0
H1747 H 0.26639 0.64071 0.42552 0.0
H1748 H 0.26979 0.68023 0.41446 0.0
H1749 H 0.22788 0.66515 0.421 0.0
H1750 H 0.2051 0.70568 0.40334 0.0
H1751 H 0.21591 0.76922 0.40199 0.0
H1752 H 0.55145 0.22423 0.88013 0.0
H1753 H 0.48914 0.21172 0.878 0.0
H1754 H 0.46593 0.30284 0.90495 0.0
H1755 H 0.52835 0.31549 0.90731 0.0
H1756 H 0.42651 0.23738 0.91301 0.0
H1757 H 0.4207 0.27273 0.85135 0.0
H1758 H 0.45525 0.24392 0.85726 0.0
H1759 H 0.45484 0.28829 0.86383 0.0
C1760 C 0.53333 0.24156 0.88576 0.0
C1761 C 0.54543 0.27093 0.89397 0.0
C1762 C 0.49749 0.23437 0.88445 0.0
C1763 C 0.47264 0.25631 0.89129 0.0
C1764 C 0.4845 0.28537 0.89962 0.0
H1765 H 0.26519 0.30557 0.87113 0.0
H1766 H 0.32628 0.29606 0.87418 0.0
C1767 C 0.52034 0.29267 0.90089 0.0
C1768 C 0.43435 0.24982 0.88929 0.0
H1769 H 0.36898 0.25374 0.86277 0.0
C1770 C 0.41384 0.24074 0.90202 0.0
C1771 C 0.41778 0.25419 0.87496 0.0
C1772 C 0.43804 0.26552 0.86103 0.0
C1773 C 0.37721 0.23699 0.9009 0.0
C1774 C 0.36048 0.24196 0.88658 0.0
C1775 C 0.38143 0.24967 0.87377 0.0
C1776 C 0.32153 0.24535 0.88489 0.0
C1777 C 0.35671 0.22936 0.91522 0.0
C1778 C 0.29714 0.2199 0.88982 0.0
C1779 C 0.26073 0.22581 0.88848 0.0
C1780 C 0.24825 0.25696 0.8819 0.0
C1781 C 0.27306 0.28122 0.87641 0.0
C1782 C 0.30865 0.27577 0.87806 0.0
H1783 H 0.37276 0.23259 0.92571 0.0
H1784 H 0.33367 0.24678 0.91606 0.0
H1785 H 0.34733 0.20195 0.91487 0.0
H1786 H 0.30613 0.19563 0.89479 0.0
H1787 H 0.2426 0.20654 0.89283 0.0
H1788 H 0.78652 0.25374 0.40904 0.0
H1789 H 0.78994 0.31762 0.41186 0.0
H1790 H 0.78714 0.329 0.36287 0.0
H1791 H 0.78361 0.26551 0.36007 0.0
H1792 H 0.8338 0.37758 0.39685 0.0
H1793 H 0.69355 0.37255 0.38105 0.0
H1794 H 0.717 0.33471 0.38786 0.0
H1795 H 0.72279 0.34955 0.36855 0.0
C1796 C 0.78884 0.2698 0.39889 0.0
C1797 C 0.78578 0.25457 0.38431 0.0
C1798 C 0.79019 0.30637 0.40051 0.0
C1799 C 0.78832 0.32817 0.38758 0.0
C1800 C 0.78849 0.31279 0.37301 0.0
H1801 H 0.7479 0.5384 0.36091 0.0
H1802 H 0.75133 0.47551 0.36485 0.0
C1803 C 0.78707 0.27642 0.37141 0.0
C1804 C 0.78177 0.36646 0.38915 0.0
H1805 H 0.71941 0.42853 0.38257 0.0
C1806 C 0.80872 0.38878 0.39391 0.0
C1807 C 0.74899 0.38106 0.38532 0.0
C1808 C 0.71874 0.35832 0.38051 0.0
C1809 C 0.80421 0.42542 0.3943 0.0
C1810 C 0.77153 0.44014 0.39017 0.0
C1811 C 0.74438 0.41752 0.38583 0.0
C1812 C 0.76587 0.47879 0.38871 0.0
C1813 C 0.83502 0.44808 0.39839 0.0
C1814 C 0.77107 0.50208 0.401 0.0
C1815 C 0.76864 0.53853 0.39879 0.0
C1816 C 0.76103 0.55228 0.38423 0.0
C1817 C 0.75354 0.52875 0.3723 0.0
C1818 C 0.7558 0.49264 0.37451 0.0
H1819 H 0.85994 0.43333 0.39801 0.0
H1820 H 0.837 0.47075 0.39051 0.0
H1821 H 0.83162 0.45823 0.41018 0.0
H1822 H 0.77801 0.49216 0.41219 0.0
H1823 H 0.775 0.55582 0.40818 0.0
H1824 H 0.98437 0.78344 0.16386 0.0
H1825 H 0.04703 0.77877 0.15973 0.0
H1826 H 0.02881 0.75016 0.11274 0.0
H1827 H 0.96554 0.75551 0.11679 0.0
H1828 H 0.07867 0.71635 0.15199 0.0
H1829 H 0.11077 0.81858 0.10907 0.0
H1830 H 0.07062 0.81904 0.11984 0.0
H1831 H 0.07583 0.78937 0.10411 0.0
C1832 C 0.99366 0.77746 0.15246 0.0
C1833 C 0.96979 0.77014 0.14065 0.0
C1834 C 0.0296 0.77438 0.15016 0.0
C1835 C 0.04294 0.76392 0.13595 0.0
C1836 C 0.01936 0.75868 0.12378 0.0
H1837 H 0.26626 0.73931 0.11357 0.0
H1838 H 0.20256 0.73217 0.11185 0.0
C1839 C 0.98309 0.76198 0.12608 0.0
C1840 C 0.08109 0.75598 0.13453 0.0
H1841 H 0.15666 0.78221 0.1172 0.0
C1842 C 0.09565 0.73064 0.14429 0.0
C1843 C 0.10341 0.77418 0.1244 0.0
C1844 C 0.08958 0.80201 0.11381 0.0
C1845 C 0.13168 0.72352 0.14442 0.0
C1846 C 0.15429 0.74281 0.13477 0.0
C1847 C 0.13957 0.76728 0.12461 0.0
C1848 C 0.19326 0.74044 0.13601 0.0
C1849 C 0.14499 0.69524 0.15494 0.0
C1850 C 0.20964 0.74618 0.15017 0.0
C1851 C 0.2459 0.74938 0.15116 0.0
C1852 C 0.26688 0.74725 0.13803 0.0
C1853 C 0.25092 0.73966 0.12396 0.0
C1854 C 0.21441 0.73628 0.12295 0.0
H1855 H 0.12486 0.6748 0.15682 0.0
H1856 H 0.16881 0.6826 0.15033 0.0
H1857 H 0.15125 0.70682 0.16624 0.0
H1858 H 0.1943 0.75064 0.16036 0.0
H1859 H 0.25736 0.75651 0.16206 0.0
H1860 H 0.24498 0.26303 0.61477 0.0
H1861 H 0.24981 0.19966 0.61348 0.0
H1862 H 0.31793 0.2008 0.65277 0.0
H1863 H 0.31116 0.26457 0.65456 0.0
H1864 H 0.29424 0.15081 0.60993 0.0
H1865 H 0.24548 0.13846 0.66942 0.0
H1866 H 0.24788 0.17997 0.65977 0.0
H1867 H 0.28642 0.16081 0.66805 0.0
C1868 C 0.26216 0.2499 0.62276 0.0
C1869 C 0.27829 0.26889 0.63456 0.0
C1870 C 0.26458 0.21345 0.62215 0.0
C1871 C 0.28331 0.19485 0.63333 0.0
C1872 C 0.30224 0.21413 0.64431 0.0
H1873 H 0.28608 0.96554 0.64733 0.0
H1874 H 0.30064 0.0279 0.64826 0.0
C1875 C 0.29926 0.25078 0.64508 0.0
C1876 C 0.28093 0.15561 0.63375 0.0
H1877 H 0.25718 0.08612 0.65628 0.0
C1878 C 0.28628 0.13681 0.62012 0.0
C1879 C 0.27032 0.13683 0.64699 0.0
C1880 C 0.26185 0.15502 0.66184 0.0
C1881 C 0.28099 0.1004 0.6193 0.0
C1882 C 0.27 0.08181 0.63245 0.0
C1883 C 0.26567 0.10025 0.6462 0.0
C1884 C 0.26127 0.04362 0.63194 0.0
C1885 C 0.28711 0.08212 0.60427 0.0
C1886 C 0.23388 0.03145 0.62268 0.0
C1887 C 0.2255 0.99577 0.62211 0.0
C1888 C 0.24428 0.97105 0.63076 0.0
C1889 C 0.27132 0.98343 0.64028 0.0
C1890 C 0.27963 0.01925 0.64089 0.0
H1891 H 0.30404 0.09778 0.59656 0.0
H1892 H 0.29928 0.05613 0.60607 0.0
H1893 H 0.26172 0.07815 0.59842 0.0
H1894 H 0.21874 0.04965 0.61591 0.0
H1895 H 0.20438 0.98751 0.61472 0.0
H1896 H 0.76214 0.28848 0.16357 0.0
H1897 H 0.8255 0.29201 0.16085 0.0
H1898 H 0.81509 0.28047 0.11205 0.0
H1899 H 0.75141 0.27701 0.11482 0.0
H1900 H 0.85892 0.22953 0.12642 0.0
H1901 H 0.89667 0.36341 0.14441 0.0
H1902 H 0.86687 0.34134 0.15698 0.0
H1903 H 0.85315 0.35274 0.13798 0.0
C1904 C 0.77322 0.28892 0.15217 0.0
C1905 C 0.75162 0.28392 0.13936 0.0
C1906 C 0.80959 0.29045 0.15064 0.0
C1907 C 0.82533 0.2867 0.13623 0.0
C1908 C 0.80368 0.28373 0.12328 0.0
H1909 H 0.05012 0.28738 0.11604 0.0
H1910 H 0.98657 0.29117 0.11355 0.0
C1911 C 0.76718 0.28251 0.12482 0.0
C1912 C 0.86402 0.28204 0.13496 0.0
H1913 H 0.94236 0.32147 0.14256 0.0
C1914 C 0.87712 0.24982 0.12978 0.0
C1915 C 0.88796 0.30828 0.13948 0.0
C1916 C 0.87559 0.34352 0.14492 0.0
C1917 C 0.91326 0.24299 0.12931 0.0
C1918 C 0.93712 0.26905 0.13398 0.0
C1919 C 0.92411 0.30148 0.13891 0.0
C1920 C 0.97561 0.26272 0.13435 0.0
C1921 C 0.92591 0.20778 0.124 0.0
C1922 C 0.99076 0.24453 0.14661 0.0
C1923 C 0.02717 0.24269 0.14816 0.0
C1924 C 0.0494 0.25829 0.13732 0.0
C1925 C 0.03411 0.2744 0.12447 0.0
C1926 C 0.99761 0.27692 0.1231 0.0
H1927 H 0.90452 0.19161 0.11916 0.0
H1928 H 0.94655 0.21104 0.11521 0.0
H1929 H 0.9376 0.19357 0.13381 0.0
H1930 H 0.97442 0.23343 0.15547 0.0
H1931 H 0.038 0.23102 0.1584 0.0
H1932 H 0.73393 0.05854 0.6455 0.0
H1933 H 0.71983 0.99607 0.64658 0.0
H1934 H 0.81169 0.97269 0.62032 0.0
H1935 H 0.82552 0.03492 0.61874 0.0
H1936 H 0.72193 0.94168 0.61533 0.0
H1937 H 0.80555 0.916 0.66618 0.0
H1938 H 0.78405 0.95751 0.66337 0.0
H1939 H 0.82073 0.94609 0.65175 0.0
C1940 C 0.75091 0.04039 0.63969 0.0
C1941 C 0.78069 0.05244 0.63179 0.0
C1942 C 0.74284 1.00445 0.64041 0.0
C1943 C 0.76457 0.97954 0.63346 0.0
C1944 C 0.79437 0.99131 0.62572 0.0
H1945 H 0.76155 0.75689 0.61316 0.0
H1946 H 0.75731 0.8206 0.61143 0.0
C1947 C 0.80228 0.02711 0.62488 0.0
C1948 C 0.75698 0.94116 0.63453 0.0
H1949 H 0.78042 0.86731 0.65405 0.0
C1950 C 0.73448 0.92542 0.62386 0.0
C1951 C 0.77315 0.91985 0.64568 0.0
C1952 C 0.7972 0.93546 0.65749 0.0
C1953 C 0.72817 0.88898 0.62393 0.0
C1954 C 0.74524 0.8674 0.63481 0.0
C1955 C 0.76718 0.88346 0.64567 0.0
C1956 C 0.74176 0.82817 0.63501 0.0
C1957 C 0.70294 0.87411 0.61241 0.0
C1958 C 0.7339 0.81048 0.6487 0.0
C1959 C 0.73628 0.77391 0.64964 0.0
C1960 C 0.74616 0.75392 0.63689 0.0
C1961 C 0.75213 0.77133 0.62297 0.0
C1962 C 0.75003 0.80798 0.62204 0.0
H1963 H 0.68394 0.89413 0.60852 0.0
H1964 H 0.71763 0.86509 0.60223 0.0
H1965 H 0.68834 0.85155 0.61719 0.0
H1966 H 0.7277 0.82513 0.65894 0.0
H1967 H 0.73304 0.76146 0.66068 0.0
loop_
_geom_bond_atom_site_label_1
_geom_bond_atom_site_label_2
_geom_bond_distance
_geom_bond_site_symmetry_2
_ccdc_geom_bond_type
C0 C1 1.351 . S
C0 N3 1.368 . S
C0 H5 0.931 . S
C1 C0 1.351 . S
C1 N2 1.373 . S
C1 H29 0.930 . S
N2 C1 1.373 . S
N2 C4 1.340 . S
N3 C0 1.368 . S
N3 C4 1.321 . S
N3 Co6 2.135 . S
C4 N2 1.340 . S
C4 N3 1.321 . S
C4 H28 0.930 . S
H5 C0 0.931 . S
Co6 N3 2.135 . S
Co6 N9 2.121 . S
Co6 O14 2.055 . S
Co6 O17 2.039 . S
Co6 N20 2.140 . S
C7 O8 1.227 . S
C7 O17 1.265 . S
O8 C7 1.227 . S
N9 Co6 2.121 . S
N9 C11 1.375 . S
N9 C12 1.313 . S
C10 C11 1.338 . S
C10 N13 1.377 . S
C10 H30 0.930 . S
C11 N9 1.375 . S
C11 C10 1.338 . S
C11 H15 0.931 . S
C12 N9 1.313 . S
C12 N13 1.344 . S
C12 H16 0.930 . S
N13 C10 1.377 . S
N13 C12 1.344 . S
O14 Co6 2.055 . S
O14 C18 1.253 . S
H15 C11 0.931 . S
H16 C12 0.930 . S
O17 Co6 2.039 . S
O17 C7 1.265 . S
C18 O14 1.253 . S
C18 O19 1.227 . S
O19 C18 1.227 . S
N20 Co6 2.140 . S
N20 C23 1.346 . S
N20 C24 1.345 . S
C21 C22 1.387 . S
C21 C25 1.391 . S
C22 C21 1.387 . S
C22 C23 1.369 . S
C22 H31 0.929 . S
C23 N20 1.346 . S
C23 C22 1.369 . S
C23 H26 0.928 . S
C24 N20 1.345 . S
C24 C25 1.371 . S
C24 H27 0.931 . S
C25 C21 1.391 . S
C25 C24 1.371 . S
C25 H32 0.930 . S
H26 C23 0.928 . S
H27 C24 0.931 . S
H28 C4 0.930 . S
H29 C1 0.930 . S
H30 C10 0.930 . S
H31 C22 0.929 . S
H32 C25 0.930 . S
C33 C34 1.351 . S
C33 N36 1.368 . S
C33 H38 0.931 . S
C34 C33 1.351 . S
C34 N35 1.373 . S
C34 H62 0.930 . S
N35 C34 1.373 . S
N35 C37 1.340 . S
N36 C33 1.368 . S
N36 C37 1.321 . S
N36 Co39 2.135 . S
C37 N35 1.340 . S
C37 N36 1.321 . S
C37 H61 0.930 . S
H38 C33 0.931 . S
Co39 N36 2.135 . S
Co39 N42 2.121 . S
Co39 O47 2.055 . S
Co39 O50 2.039 . S
Co39 N53 2.140 . S
C40 O41 1.227 . S
C40 O50 1.265 . S
O41 C40 1.227 . S
N42 Co39 2.121 . S
N42 C44 1.375 . S
N42 C45 1.313 . S
C43 C44 1.338 . S
C43 N46 1.377 . S
C43 H63 0.930 . S
C44 N42 1.375 . S
C44 C43 1.338 . S
C44 H48 0.931 . S
C45 N42 1.313 . S
C45 N46 1.344 . S
C45 H49 0.930 . S
N46 C43 1.377 . S
N46 C45 1.344 . S
O47 Co39 2.055 . S
O47 C51 1.253 . S
H48 C44 0.931 . S
H49 C45 0.930 . S
O50 Co39 2.039 . S
O50 C40 1.265 . S
C51 O47 1.253 . S
C51 O52 1.227 . S
O52 C51 1.227 . S
N53 Co39 2.140 . S
N53 C56 1.346 . S
N53 C57 1.345 . S
C54 C55 1.387 . S
C54 C58 1.391 . S
C55 C54 1.387 . S
C55 C56 1.369 . S
C55 H64 0.929 . S
C56 N53 1.346 . S
C56 C55 1.369 . S
C56 H59 0.928 . S
C57 N53 1.345 . S
C57 C58 1.371 . S
C57 H60 0.931 . S
C58 C54 1.391 . S
C58 C57 1.371 . S
C58 H65 0.930 . S
H59 C56 0.928 . S
H60 C57 0.931 . S
H61 C37 0.930 . S
H62 C34 0.930 . S
H63 C43 0.930 . S
H64 C55 0.929 . S
H65 C58 0.930 . S
C66 C67 1.351 . S
C66 N69 1.368 . S
C66 H71 0.931 . S
C67 C66 1.351 . S
C67 N68 1.373 . S
C67 H95 0.930 . S
N68 C67 1.373 . S
N68 C70 1.340 . S
N69 C66 1.368 . S
N69 C70 1.321 . S
N69 Co72 2.135 . S
C70 N68 1.340 . S
C70 N69 1.321 . S
C70 H94 0.930 . S
H71 C66 0.931 . S
Co72 N69 2.135 . S
Co72 N75 2.121 . S
Co72 O80 2.055 . S
Co72 O83 2.039 . S
Co72 N86 2.140 . S
C73 O74 1.227 . S
C73 O83 1.265 . S
O74 C73 1.227 . S
N75 Co72 2.121 . S
N75 C77 1.375 . S
N75 C78 1.313 . S
C76 C77 1.338 . S
C76 N79 1.377 . S
C76 H96 0.930 . S
C77 N75 1.375 . S
C77 C76 1.338 . S
C77 H81 0.931 . S
C78 N75 1.313 . S
C78 N79 1.344 . S
C78 H82 0.930 . S
N79 C76 1.377 . S
N79 C78 1.344 . S
O80 Co72 2.055 . S
O80 C84 1.253 . S
H81 C77 0.931 . S
H82 C78 0.930 . S
O83 Co72 2.039 . S
O83 C73 1.265 . S
C84 O80 1.253 . S
C84 O85 1.227 . S
O85 C84 1.227 . S
N86 Co72 2.140 . S
N86 C89 1.346 . S
N86 C90 1.345 . S
C87 C88 1.387 . S
C87 C91 1.391 . S
C88 C87 1.387 . S
C88 C89 1.369 . S
C88 H97 0.929 . S
C89 N86 1.346 . S
C89 C88 1.369 . S
C89 H92 0.928 . S
C90 N86 1.345 . S
C90 C91 1.371 . S
C90 H93 0.931 . S
C91 C87 1.391 . S
C91 C90 1.371 . S
C91 H98 0.930 . S
H92 C89 0.928 . S
H93 C90 0.931 . S
H94 C70 0.930 . S
H95 C67 0.930 . S
H96 C76 0.930 . S
H97 C88 0.929 . S
H98 C91 0.930 . S
C99 C100 1.351 . S
C99 N102 1.368 . S
C99 H104 0.931 . S
C100 C99 1.351 . S
C100 N101 1.373 . S
C100 H128 0.930 . S
N101 C100 1.373 . S
N101 C103 1.340 . S
N102 C99 1.368 . S
N102 C103 1.321 . S
N102 Co105 2.135 . S
C103 N101 1.340 . S
C103 N102 1.321 . S
C103 H127 0.930 . S
H104 C99 0.931 . S
Co105 N102 2.135 . S
Co105 N108 2.121 . S
Co105 O113 2.055 . S
Co105 O116 2.039 . S
Co105 N119 2.140 . S
C106 O107 1.227 . S
C106 O116 1.265 . S
O107 C106 1.227 . S
N108 Co105 2.121 . S
N108 C110 1.375 . S
N108 C111 1.313 . S
C109 C110 1.338 . S
C109 N112 1.377 . S
C109 H129 0.930 . S
C110 N108 1.375 . S
C110 C109 1.338 . S
C110 H114 0.931 . S
C111 N108 1.313 . S
C111 N112 1.344 . S
C111 H115 0.930 . S
N112 C109 1.377 . S
N112 C111 1.344 . S
O113 Co105 2.055 . S
O113 C117 1.253 . S
H114 C110 0.931 . S
H115 C111 0.930 . S
O116 Co105 2.039 . S
O116 C106 1.265 . S
C117 O113 1.253 . S
C117 O118 1.227 . S
O118 C117 1.227 . S
N119 Co105 2.140 . S
N119 C122 1.346 . S
N119 C123 1.345 . S
C120 C121 1.387 . S
C120 C124 1.391 . S
C121 C120 1.387 . S
C121 C122 1.369 . S
C121 H130 0.929 . S
C122 N119 1.346 . S
C122 C121 1.369 . S
C122 H125 0.928 . S
C123 N119 1.345 . S
C123 C124 1.371 . S
C123 H126 0.931 . S
C124 C120 1.391 . S
C124 C123 1.371 . S
C124 H131 0.930 . S
H125 C122 0.928 . S
H126 C123 0.931 . S
H127 C103 0.930 . S
H128 C100 0.930 . S
H129 C109 0.930 . S
H130 C121 0.929 . S
H131 C124 0.930 . S
C132 C133 1.351 . S
C132 N135 1.368 . S
C132 H137 0.931 . S
C133 C132 1.351 . S
C133 N134 1.373 . S
C133 H161 0.930 . S
N134 C133 1.373 . S
N134 C136 1.340 . S
N135 C132 1.368 . S
N135 C136 1.321 . S
N135 Co138 2.135 . S
C136 N134 1.340 . S
C136 N135 1.321 . S
C136 H160 0.930 . S
H137 C132 0.931 . S
Co138 N135 2.135 . S
Co138 N141 2.121 . S
Co138 O146 2.055 . S
Co138 O149 2.039 . S
Co138 N152 2.140 . S
C139 O140 1.227 . S
C139 O149 1.265 . S
O140 C139 1.227 . S
N141 Co138 2.121 . S
N141 C143 1.375 . S
N141 C144 1.313 . S
C142 C143 1.338 . S
C142 N145 1.377 . S
C142 H162 0.930 . S
C143 N141 1.375 . S
C143 C142 1.338 . S
C143 H147 0.931 . S
C144 N141 1.313 . S
C144 N145 1.344 . S
C144 H148 0.930 . S
N145 C142 1.377 . S
N145 C144 1.344 . S
O146 Co138 2.055 . S
O146 C150 1.253 . S
H147 C143 0.931 . S
H148 C144 0.930 . S
O149 Co138 2.039 . S
O149 C139 1.265 . S
C150 O146 1.253 . S
C150 O151 1.227 . S
O151 C150 1.227 . S
N152 Co138 2.140 . S
N152 C155 1.346 . S
N152 C156 1.345 . S
C153 C154 1.387 . S
C153 C157 1.391 . S
C154 C153 1.387 . S
C154 C155 1.369 . S
C154 H163 0.929 . S
C155 N152 1.346 . S
C155 C154 1.369 . S
C155 H158 0.928 . S
C156 N152 1.345 . S
C156 C157 1.371 . S
C156 H159 0.931 . S
C157 C153 1.391 . S
C157 C156 1.371 . S
C157 H164 0.930 . S
H158 C155 0.928 . S
H159 C156 0.931 . S
H160 C136 0.930 . S
H161 C133 0.930 . S
H162 C142 0.930 . S
H163 C154 0.929 . S
H164 C157 0.930 . S
C165 C166 1.351 . S
C165 N168 1.368 . S
C165 H170 0.931 . S
C166 C165 1.351 . S
C166 N167 1.373 . S
C166 H194 0.930 . S
N167 C166 1.373 . S
N167 C169 1.340 . S
N168 C165 1.368 . S
N168 C169 1.321 . S
N168 Co171 2.135 . S
C169 N167 1.340 . S
C169 N168 1.321 . S
C169 H193 0.930 . S
H170 C165 0.931 . S
Co171 N168 2.135 . S
Co171 N174 2.121 . S
Co171 O179 2.055 . S
Co171 O182 2.039 . S
Co171 N185 2.140 . S
C172 O173 1.227 . S
C172 O182 1.265 . S
O173 C172 1.227 . S
N174 Co171 2.121 . S
N174 C176 1.375 . S
N174 C177 1.313 . S
C175 C176 1.338 . S
C175 N178 1.377 . S
C175 H195 0.930 . S
C176 N174 1.375 . S
C176 C175 1.338 . S
C176 H180 0.931 . S
C177 N174 1.313 . S
C177 N178 1.344 . S
C177 H181 0.930 . S
N178 C175 1.377 . S
N178 C177 1.344 . S
O179 Co171 2.055 . S
O179 C183 1.253 . S
H180 C176 0.931 . S
H181 C177 0.930 . S
O182 Co171 2.039 . S
O182 C172 1.265 . S
C183 O179 1.253 . S
C183 O184 1.227 . S
O184 C183 1.227 . S
N185 Co171 2.140 . S
N185 C188 1.346 . S
N185 C189 1.345 . S
C186 C187 1.387 . S
C186 C190 1.391 . S
C187 C186 1.387 . S
C187 C188 1.369 . S
C187 H196 0.929 . S
C188 N185 1.346 . S
C188 C187 1.369 . S
C188 H191 0.928 . S
C189 N185 1.345 . S
C189 C190 1.371 . S
C189 H192 0.931 . S
C190 C186 1.391 . S
C190 C189 1.371 . S
C190 H197 0.930 . S
H191 C188 0.928 . S
H192 C189 0.931 . S
H193 C169 0.930 . S
H194 C166 0.930 . S
H195 C175 0.930 . S
H196 C187 0.929 . S
H197 C190 0.930 . S
C198 C199 1.351 . S
C198 N201 1.368 . S
C198 H203 0.931 . S
C199 C198 1.351 . S
C199 N200 1.373 . S
C199 H227 0.930 . S
N200 C199 1.373 . S
N200 C202 1.340 . S
N201 C198 1.368 . S
N201 C202 1.321 . S
N201 Co204 2.135 . S
C202 N200 1.340 . S
C202 N201 1.321 . S
C202 H226 0.930 . S
H203 C198 0.931 . S
Co204 N201 2.135 . S
Co204 N207 2.121 . S
Co204 O212 2.055 . S
Co204 O215 2.039 . S
Co204 N218 2.140 . S
C205 O206 1.227 . S
C205 O215 1.265 . S
O206 C205 1.227 . S
N207 Co204 2.121 . S
N207 C209 1.375 . S
N207 C210 1.313 . S
C208 C209 1.338 . S
C208 N211 1.377 . S
C208 H228 0.930 . S
C209 N207 1.375 . S
C209 C208 1.338 . S
C209 H213 0.931 . S
C210 N207 1.313 . S
C210 N211 1.344 . S
C210 H214 0.930 . S
N211 C208 1.377 . S
N211 C210 1.344 . S
O212 Co204 2.055 . S
O212 C216 1.253 . S
H213 C209 0.931 . S
H214 C210 0.930 . S
O215 Co204 2.039 . S
O215 C205 1.265 . S
C216 O212 1.253 . S
C216 O217 1.227 . S
O217 C216 1.227 . S
N218 Co204 2.140 . S
N218 C221 1.346 . S
N218 C222 1.345 . S
C219 C220 1.387 . S
C219 C223 1.391 . S
C220 C219 1.387 . S
C220 C221 1.369 . S
C220 H229 0.929 . S
C221 N218 1.346 . S
C221 C220 1.369 . S
C221 H224 0.928 . S
C222 N218 1.345 . S
C222 C223 1.371 . S
C222 H225 0.931 . S
C223 C219 1.391 . S
C223 C222 1.371 . S
C223 H230 0.930 . S
H224 C221 0.928 . S
H225 C222 0.931 . S
H226 C202 0.930 . S
H227 C199 0.930 . S
H228 C208 0.930 . S
H229 C220 0.929 . S
H230 C223 0.930 . S
C231 C232 1.351 . S
C231 N234 1.368 . S
C231 H236 0.931 . S
C232 C231 1.351 . S
C232 N233 1.373 . S
C232 H260 0.930 . S
N233 C232 1.373 . S
N233 C235 1.340 . S
N234 C231 1.368 . S
N234 C235 1.321 . S
N234 Co237 2.135 . S
C235 N233 1.340 . S
C235 N234 1.321 . S
C235 H259 0.930 . S
H236 C231 0.931 . S
Co237 N234 2.135 . S
Co237 N240 2.121 . S
Co237 O245 2.055 . S
Co237 O248 2.039 . S
Co237 N251 2.140 . S
C238 O239 1.227 . S
C238 O248 1.265 . S
O239 C238 1.227 . S
N240 Co237 2.121 . S
N240 C242 1.375 . S
N240 C243 1.313 . S
C241 C242 1.338 . S
C241 N244 1.377 . S
C241 H261 0.930 . S
C242 N240 1.375 . S
C242 C241 1.338 . S
C242 H246 0.931 . S
C243 N240 1.313 . S
C243 N244 1.344 . S
C243 H247 0.930 . S
N244 C241 1.377 . S
N244 C243 1.344 . S
O245 Co237 2.055 . S
O245 C249 1.253 . S
H246 C242 0.931 . S
H247 C243 0.930 . S
O248 Co237 2.039 . S
O248 C238 1.265 . S
C249 O245 1.253 . S
C249 O250 1.227 . S
O250 C249 1.227 . S
N251 Co237 2.140 . S
N251 C254 1.346 . S
N251 C255 1.345 . S
C252 C253 1.387 . S
C252 C256 1.391 . S
C253 C252 1.387 . S
C253 C254 1.369 . S
C253 H262 0.929 . S
C254 N251 1.346 . S
C254 C253 1.369 . S
C254 H257 0.928 . S
C255 N251 1.345 . S
C255 C256 1.371 . S
C255 H258 0.931 . S
C256 C252 1.391 . S
C256 C255 1.371 . S
C256 H263 0.930 . S
H257 C254 0.928 . S
H258 C255 0.931 . S
H259 C235 0.930 . S
H260 C232 0.930 . S
H261 C241 0.930 . S
H262 C253 0.929 . S
H263 C256 0.930 . S
C264 C265 1.351 . S
C264 N267 1.368 . S
C264 H269 0.931 . S
C265 C264 1.351 . S
C265 N266 1.373 . S
C265 H293 0.930 . S
N266 C265 1.373 . S
N266 C268 1.340 . S
N267 C264 1.368 . S
N267 C268 1.321 . S
N267 Co270 2.135 . S
C268 N266 1.340 . S
C268 N267 1.321 . S
C268 H292 0.930 . S
H269 C264 0.931 . S
Co270 N267 2.135 . S
Co270 N273 2.121 . S
Co270 O278 2.055 . S
Co270 O281 2.039 . S
Co270 N284 2.140 . S
C271 O272 1.227 . S
C271 O281 1.265 . S
O272 C271 1.227 . S
N273 Co270 2.121 . S
N273 C275 1.375 . S
N273 C276 1.313 . S
C274 C275 1.338 . S
C274 N277 1.377 . S
C274 H294 0.930 . S
C275 N273 1.375 . S
C275 C274 1.338 . S
C275 H279 0.931 . S
C276 N273 1.313 . S
C276 N277 1.344 . S
C276 H280 0.930 . S
N277 C274 1.377 . S
N277 C276 1.344 . S
O278 Co270 2.055 . S
O278 C282 1.253 . S
H279 C275 0.931 . S
H280 C276 0.930 . S
O281 Co270 2.039 . S
O281 C271 1.265 . S
C282 O278 1.253 . S
C282 O283 1.227 . S
O283 C282 1.227 . S
N284 Co270 2.140 . S
N284 C287 1.346 . S
N284 C288 1.345 . S
C285 C286 1.387 . S
C285 C289 1.391 . S
C286 C285 1.387 . S
C286 C287 1.369 . S
C286 H295 0.929 . S
C287 N284 1.346 . S
C287 C286 1.369 . S
C287 H290 0.928 . S
C288 N284 1.345 . S
C288 C289 1.371 . S
C288 H291 0.931 . S
C289 C285 1.391 . S
C289 C288 1.371 . S
C289 H296 0.930 . S
H290 C287 0.928 . S
H291 C288 0.931 . S
H292 C268 0.930 . S
H293 C265 0.930 . S
H294 C274 0.930 . S
H295 C286 0.929 . S
H296 C289 0.930 . S
C297 C298 1.351 . S
C297 N300 1.368 . S
C297 H302 0.931 . S
C298 C297 1.351 . S
C298 N299 1.373 . S
C298 H326 0.930 . S
N299 C298 1.373 . S
N299 C301 1.340 . S
N300 C297 1.368 . S
N300 C301 1.321 . S
N300 Co303 2.135 . S
C301 N299 1.340 . S
C301 N300 1.321 . S
C301 H325 0.930 . S
H302 C297 0.931 . S
Co303 N300 2.135 . S
Co303 N306 2.121 . S
Co303 O311 2.055 . S
Co303 O314 2.039 . S
Co303 N317 2.140 . S
C304 O305 1.227 . S
C304 O314 1.265 . S
O305 C304 1.227 . S
N306 Co303 2.121 . S
N306 C308 1.375 . S
N306 C309 1.313 . S
C307 C308 1.338 . S
C307 N310 1.377 . S
C307 H327 0.930 . S
C308 N306 1.375 . S
C308 C307 1.338 . S
C308 H312 0.931 . S
C309 N306 1.313 . S
C309 N310 1.344 . S
C309 H313 0.930 . S
N310 C307 1.377 . S
N310 C309 1.344 . S
O311 Co303 2.055 . S
O311 C315 1.253 . S
H312 C308 0.931 . S
H313 C309 0.930 . S
O314 Co303 2.039 . S
O314 C304 1.265 . S
C315 O311 1.253 . S
C315 O316 1.227 . S
O316 C315 1.227 . S
N317 Co303 2.140 . S
N317 C320 1.346 . S
N317 C321 1.345 . S
C318 C319 1.387 . S
C318 C322 1.391 . S
C319 C318 1.387 . S
C319 C320 1.369 . S
C319 H328 0.929 . S
C320 N317 1.346 . S
C320 C319 1.369 . S
C320 H323 0.928 . S
C321 N317 1.345 . S
C321 C322 1.371 . S
C321 H324 0.931 . S
C322 C318 1.391 . S
C322 C321 1.371 . S
C322 H329 0.930 . S
H323 C320 0.928 . S
H324 C321 0.931 . S
H325 C301 0.930 . S
H326 C298 0.930 . S
H327 C307 0.930 . S
H328 C319 0.929 . S
H329 C322 0.930 . S
C330 C331 1.351 . S
C330 N333 1.368 . S
C330 H335 0.931 . S
C331 C330 1.351 . S
C331 N332 1.373 . S
C331 H359 0.930 . S
N332 C331 1.373 . S
N332 C334 1.340 . S
N333 C330 1.368 . S
N333 C334 1.321 . S
N333 Co336 2.135 . S
C334 N332 1.340 . S
C334 N333 1.321 . S
C334 H358 0.930 . S
H335 C330 0.931 . S
Co336 N333 2.135 . S
Co336 N339 2.121 . S
Co336 O344 2.055 . S
Co336 O347 2.039 . S
Co336 N350 2.140 . S
C337 O338 1.227 . S
C337 O347 1.265 . S
O338 C337 1.227 . S
N339 Co336 2.121 . S
N339 C341 1.375 . S
N339 C342 1.313 . S
C340 C341 1.338 . S
C340 N343 1.377 . S
C340 H360 0.930 . S
C341 N339 1.375 . S
C341 C340 1.338 . S
C341 H345 0.931 . S
C342 N339 1.313 . S
C342 N343 1.344 . S
C342 H346 0.930 . S
N343 C340 1.377 . S
N343 C342 1.344 . S
O344 Co336 2.055 . S
O344 C348 1.253 . S
H345 C341 0.931 . S
H346 C342 0.930 . S
O347 Co336 2.039 . S
O347 C337 1.265 . S
C348 O344 1.253 . S
C348 O349 1.227 . S
O349 C348 1.227 . S
N350 Co336 2.140 . S
N350 C353 1.346 . S
N350 C354 1.345 . S
C351 C352 1.387 . S
C351 C355 1.391 . S
C352 C351 1.387 . S
C352 C353 1.369 . S
C352 H361 0.929 . S
C353 N350 1.346 . S
C353 C352 1.369 . S
C353 H356 0.928 . S
C354 N350 1.345 . S
C354 C355 1.371 . S
C354 H357 0.931 . S
C355 C351 1.391 . S
C355 C354 1.371 . S
C355 H362 0.930 . S
H356 C353 0.928 . S
H357 C354 0.931 . S
H358 C334 0.930 . S
H359 C331 0.930 . S
H360 C340 0.930 . S
H361 C352 0.929 . S
H362 C355 0.930 . S
C363 C364 1.351 . S
C363 N366 1.368 . S
C363 H368 0.931 . S
C364 C363 1.351 . S
C364 N365 1.373 . S
C364 H392 0.930 . S
N365 C364 1.373 . S
N365 C367 1.340 . S
N366 C363 1.368 . S
N366 C367 1.321 . S
N366 Co369 2.135 . S
C367 N365 1.340 . S
C367 N366 1.321 . S
C367 H391 0.930 . S
H368 C363 0.931 . S
Co369 N366 2.135 . S
Co369 N372 2.121 . S
Co369 O377 2.055 . S
Co369 O380 2.039 . S
Co369 N383 2.140 . S
C370 O371 1.227 . S
C370 O380 1.265 . S
O371 C370 1.227 . S
N372 Co369 2.121 . S
N372 C374 1.375 . S
N372 C375 1.313 . S
C373 C374 1.338 . S
C373 N376 1.377 . S
C373 H393 0.930 . S
C374 N372 1.375 . S
C374 C373 1.338 . S
C374 H378 0.931 . S
C375 N372 1.313 . S
C375 N376 1.344 . S
C375 H379 0.930 . S
N376 C373 1.377 . S
N376 C375 1.344 . S
O377 Co369 2.055 . S
O377 C381 1.253 . S
H378 C374 0.931 . S
H379 C375 0.930 . S
O380 Co369 2.039 . S
O380 C370 1.265 . S
C381 O377 1.253 . S
C381 O382 1.227 . S
O382 C381 1.227 . S
N383 Co369 2.140 . S
N383 C386 1.346 . S
N383 C387 1.345 . S
C384 C385 1.387 . S
C384 C388 1.391 . S
C385 C384 1.387 . S
C385 C386 1.369 . S
C385 H394 0.929 . S
C386 N383 1.346 . S
C386 C385 1.369 . S
C386 H389 0.928 . S
C387 N383 1.345 . S
C387 C388 1.371 . S
C387 H390 0.931 . S
C388 C384 1.391 . S
C388 C387 1.371 . S
C388 H395 0.930 . S
H389 C386 0.928 . S
H390 C387 0.931 . S
H391 C367 0.930 . S
H392 C364 0.930 . S
H393 C373 0.930 . S
H394 C385 0.929 . S
H395 C388 0.930 . S
C396 C397 1.351 . S
C396 N399 1.368 . S
C396 H401 0.931 . S
C397 C396 1.351 . S
C397 N398 1.373 . S
C397 H425 0.930 . S
N398 C397 1.373 . S
N398 C400 1.340 . S
N399 C396 1.368 . S
N399 C400 1.321 . S
N399 Co402 2.135 . S
C400 N398 1.340 . S
C400 N399 1.321 . S
C400 H424 0.930 . S
H401 C396 0.931 . S
Co402 N399 2.135 . S
Co402 N405 2.121 . S
Co402 O410 2.055 . S
Co402 O413 2.039 . S
Co402 N416 2.140 . S
C403 O404 1.227 . S
C403 O413 1.265 . S
O404 C403 1.227 . S
N405 Co402 2.121 . S
N405 C407 1.375 . S
N405 C408 1.313 . S
C406 C407 1.338 . S
C406 N409 1.377 . S
C406 H426 0.930 . S
C407 N405 1.375 . S
C407 C406 1.338 . S
C407 H411 0.931 . S
C408 N405 1.313 . S
C408 N409 1.344 . S
C408 H412 0.930 . S
N409 C406 1.377 . S
N409 C408 1.344 . S
O410 Co402 2.055 . S
O410 C414 1.253 . S
H411 C407 0.931 . S
H412 C408 0.930 . S
O413 Co402 2.039 . S
O413 C403 1.265 . S
C414 O410 1.253 . S
C414 O415 1.227 . S
O415 C414 1.227 . S
N416 Co402 2.140 . S
N416 C419 1.346 . S
N416 C420 1.345 . S
C417 C418 1.387 . S
C417 C421 1.391 . S
C418 C417 1.387 . S
C418 C419 1.369 . S
C418 H427 0.929 . S
C419 N416 1.346 . S
C419 C418 1.369 . S
C419 H422 0.928 . S
C420 N416 1.345 . S
C420 C421 1.371 . S
C420 H423 0.931 . S
C421 C417 1.391 . S
C421 C420 1.371 . S
C421 H428 0.930 . S
H422 C419 0.928 . S
H423 C420 0.931 . S
H424 C400 0.930 . S
H425 C397 0.930 . S
H426 C406 0.930 . S
H427 C418 0.929 . S
H428 C421 0.930 . S
C429 C430 1.351 . S
C429 N432 1.368 . S
C429 H434 0.931 . S
C430 C429 1.351 . S
C430 N431 1.373 . S
C430 H458 0.930 . S
N431 C430 1.373 . S
N431 C433 1.340 . S
N432 C429 1.368 . S
N432 C433 1.321 . S
N432 Co435 2.135 . S
C433 N431 1.340 . S
C433 N432 1.321 . S
C433 H457 0.930 . S
H434 C429 0.931 . S
Co435 N432 2.135 . S
Co435 N438 2.121 . S
Co435 O443 2.055 . S
Co435 O446 2.039 . S
Co435 N449 2.140 . S
C436 O437 1.227 . S
C436 O446 1.265 . S
O437 C436 1.227 . S
N438 Co435 2.121 . S
N438 C440 1.375 . S
N438 C441 1.313 . S
C439 C440 1.338 . S
C439 N442 1.377 . S
C439 H459 0.930 . S
C440 N438 1.375 . S
C440 C439 1.338 . S
C440 H444 0.931 . S
C441 N438 1.313 . S
C441 N442 1.344 . S
C441 H445 0.930 . S
N442 C439 1.377 . S
N442 C441 1.344 . S
O443 Co435 2.055 . S
O443 C447 1.253 . S
H444 C440 0.931 . S
H445 C441 0.930 . S
O446 Co435 2.039 . S
O446 C436 1.265 . S
C447 O443 1.253 . S
C447 O448 1.227 . S
O448 C447 1.227 . S
N449 Co435 2.140 . S
N449 C452 1.346 . S
N449 C453 1.345 . S
C450 C451 1.387 . S
C450 C454 1.391 . S
C451 C450 1.387 . S
C451 C452 1.369 . S
C451 H460 0.929 . S
C452 N449 1.346 . S
C452 C451 1.369 . S
C452 H455 0.928 . S
C453 N449 1.345 . S
C453 C454 1.371 . S
C453 H456 0.931 . S
C454 C450 1.391 . S
C454 C453 1.371 . S
C454 H461 0.930 . S
H455 C452 0.928 . S
H456 C453 0.931 . S
H457 C433 0.930 . S
H458 C430 0.930 . S
H459 C439 0.930 . S
H460 C451 0.929 . S
H461 C454 0.930 . S
C462 C463 1.351 . S
C462 N465 1.368 . S
C462 H467 0.931 . S
C463 C462 1.351 . S
C463 N464 1.373 . S
C463 H491 0.930 . S
N464 C463 1.373 . S
N464 C466 1.340 . S
N465 C462 1.368 . S
N465 C466 1.321 . S
N465 Co468 2.135 . S
C466 N464 1.340 . S
C466 N465 1.321 . S
C466 H490 0.930 . S
H467 C462 0.931 . S
Co468 N465 2.135 . S
Co468 N471 2.121 . S
Co468 O476 2.055 . S
Co468 O479 2.039 . S
Co468 N482 2.140 . S
C469 O470 1.227 . S
C469 O479 1.265 . S
O470 C469 1.227 . S
N471 Co468 2.121 . S
N471 C473 1.375 . S
N471 C474 1.313 . S
C472 C473 1.338 . S
C472 N475 1.377 . S
C472 H492 0.930 . S
C473 N471 1.375 . S
C473 C472 1.338 . S
C473 H477 0.931 . S
C474 N471 1.313 . S
C474 N475 1.344 . S
C474 H478 0.930 . S
N475 C472 1.377 . S
N475 C474 1.344 . S
O476 Co468 2.055 . S
O476 C480 1.253 . S
H477 C473 0.931 . S
H478 C474 0.930 . S
O479 Co468 2.039 . S
O479 C469 1.265 . S
C480 O476 1.253 . S
C480 O481 1.227 . S
O481 C480 1.227 . S
N482 Co468 2.140 . S
N482 C485 1.346 . S
N482 C486 1.345 . S
C483 C484 1.387 . S
C483 C487 1.391 . S
C484 C483 1.387 . S
C484 C485 1.369 . S
C484 H493 0.929 . S
C485 N482 1.346 . S
C485 C484 1.369 . S
C485 H488 0.928 . S
C486 N482 1.345 . S
C486 C487 1.371 . S
C486 H489 0.931 . S
C487 C483 1.391 . S
C487 C486 1.371 . S
C487 H494 0.930 . S
H488 C485 0.928 . S
H489 C486 0.931 . S
H490 C466 0.930 . S
H491 C463 0.930 . S
H492 C472 0.930 . S
H493 C484 0.929 . S
H494 C487 0.930 . S
C495 C496 1.351 . S
C495 N498 1.368 . S
C495 H500 0.931 . S
C496 C495 1.351 . S
C496 N497 1.373 . S
C496 H524 0.930 . S
N497 C496 1.373 . S
N497 C499 1.340 . S
N498 C495 1.368 . S
N498 C499 1.321 . S
N498 Co501 2.135 . S
C499 N497 1.340 . S
C499 N498 1.321 . S
C499 H523 0.930 . S
H500 C495 0.931 . S
Co501 N498 2.135 . S
Co501 N504 2.121 . S
Co501 O509 2.055 . S
Co501 O512 2.039 . S
Co501 N515 2.140 . S
C502 O503 1.227 . S
C502 O512 1.265 . S
O503 C502 1.227 . S
N504 Co501 2.121 . S
N504 C506 1.375 . S
N504 C507 1.313 . S
C505 C506 1.338 . S
C505 N508 1.377 . S
C505 H525 0.930 . S
C506 N504 1.375 . S
C506 C505 1.338 . S
C506 H510 0.931 . S
C507 N504 1.313 . S
C507 N508 1.344 . S
C507 H511 0.930 . S
N508 C505 1.377 . S
N508 C507 1.344 . S
O509 Co501 2.055 . S
O509 C513 1.253 . S
H510 C506 0.931 . S
H511 C507 0.930 . S
O512 Co501 2.039 . S
O512 C502 1.265 . S
C513 O509 1.253 . S
C513 O514 1.227 . S
O514 C513 1.227 . S
N515 Co501 2.140 . S
N515 C518 1.346 . S
N515 C519 1.345 . S
C516 C517 1.387 . S
C516 C520 1.391 . S
C517 C516 1.387 . S
C517 C518 1.369 . S
C517 H526 0.929 . S
C518 N515 1.346 . S
C518 C517 1.369 . S
C518 H521 0.928 . S
C519 N515 1.345 . S
C519 C520 1.371 . S
C519 H522 0.931 . S
C520 C516 1.391 . S
C520 C519 1.371 . S
C520 H527 0.930 . S
H521 C518 0.928 . S
H522 C519 0.931 . S
H523 C499 0.930 . S
H524 C496 0.930 . S
H525 C505 0.930 . S
H526 C517 0.929 . S
H527 C520 0.930 . S
H528 C536 0.929 . S
H529 C538 0.930 . S
H530 C540 0.930 . S
H531 C543 0.929 . S
H532 C546 0.930 . S
H533 C548 0.960 . S
H534 C548 0.960 . S
H535 C548 0.960 . S
C536 H528 0.929 . S
C536 C537 1.377 . S
C536 C538 1.384 . S
C537 C536 1.377 . S
C537 C543 1.390 . S
C538 H529 0.930 . S
C538 C536 1.384 . S
C538 C539 1.372 . S
C539 C538 1.372 . S
C539 C540 1.400 . S
C539 C544 1.490 . S
C540 H530 0.930 . S
C540 C539 1.400 . S
C540 C543 1.386 . S
H541 C557 0.930 . S
H542 C558 0.931 . S
C543 H531 0.929 . S
C543 C537 1.390 . S
C543 C540 1.386 . S
C544 C539 1.490 . S
C544 C546 1.395 . S
C544 C547 1.403 . S
H545 C551 0.930 . S
C546 H532 0.930 . S
C546 C544 1.395 . S
C546 C549 1.403 . S
C547 C544 1.403 . S
C547 C548 1.524 . S
C547 C551 1.400 . S
C548 H533 0.960 . S
C548 H534 0.960 . S
C548 H535 0.960 . S
C548 C547 1.524 . S
C549 C546 1.403 . S
C549 C550 1.392 . S
C549 C553 1.495 . S
C550 C549 1.392 . S
C550 C551 1.385 . S
C550 C552 1.478 . S
C551 H545 0.930 . S
C551 C547 1.400 . S
C551 C550 1.385 . S
C552 C550 1.478 . S
C552 C554 1.381 . S
C552 C558 1.383 . S
C553 C549 1.495 . S
C553 H559 0.959 . S
C553 H560 0.961 . S
C553 H561 0.960 . S
C554 C552 1.381 . S
C554 C555 1.394 . S
C554 H562 0.930 . S
C555 C554 1.394 . S
C555 C556 1.383 . S
C555 H563 0.929 . S
C556 C555 1.383 . S
C556 C557 1.377 . S
C557 H541 0.930 . S
C557 C556 1.377 . S
C557 C558 1.379 . S
C558 H542 0.931 . S
C558 C552 1.383 . S
C558 C557 1.379 . S
H559 C553 0.959 . S
H560 C553 0.961 . S
H561 C553 0.960 . S
H562 C554 0.930 . S
H563 C555 0.929 . S
H564 C572 0.929 . S
H565 C574 0.930 . S
H566 C576 0.930 . S
H567 C579 0.929 . S
H568 C582 0.930 . S
H569 C584 0.960 . S
H570 C584 0.960 . S
H571 C584 0.960 . S
C572 H564 0.929 . S
C572 C573 1.377 . S
C572 C574 1.384 . S
C573 C572 1.377 . S
C573 C579 1.390 . S
C574 H565 0.930 . S
C574 C572 1.384 . S
C574 C575 1.372 . S
C575 C574 1.372 . S
C575 C576 1.400 . S
C575 C580 1.490 . S
C576 H566 0.930 . S
C576 C575 1.400 . S
C576 C579 1.386 . S
H577 C593 0.930 . S
H578 C594 0.931 . S
C579 H567 0.929 . S
C579 C573 1.390 . S
C579 C576 1.386 . S
C580 C575 1.490 . S
C580 C582 1.395 . S
C580 C583 1.403 . S
H581 C587 0.930 . S
C582 H568 0.930 . S
C582 C580 1.395 . S
C582 C585 1.403 . S
C583 C580 1.403 . S
C583 C584 1.524 . S
C583 C587 1.400 . S
C584 H569 0.960 . S
C584 H570 0.960 . S
C584 H571 0.960 . S
C584 C583 1.524 . S
C585 C582 1.403 . S
C585 C586 1.392 . S
C585 C589 1.495 . S
C586 C585 1.392 . S
C586 C587 1.385 . S
C586 C588 1.478 . S
C587 H581 0.930 . S
C587 C583 1.400 . S
C587 C586 1.385 . S
C588 C586 1.478 . S
C588 C590 1.381 . S
C588 C594 1.383 . S
C589 C585 1.495 . S
C589 H595 0.959 . S
C589 H596 0.961 . S
C589 H597 0.960 . S
C590 C588 1.381 . S
C590 C591 1.394 . S
C590 H598 0.930 . S
C591 C590 1.394 . S
C591 C592 1.383 . S
C591 H599 0.929 . S
C592 C591 1.383 . S
C592 C593 1.377 . S
C593 H577 0.930 . S
C593 C592 1.377 . S
C593 C594 1.379 . S
C594 H578 0.931 . S
C594 C588 1.383 . S
C594 C593 1.379 . S
H595 C589 0.959 . S
H596 C589 0.961 . S
H597 C589 0.960 . S
H598 C590 0.930 . S
H599 C591 0.929 . S
H600 C608 0.929 . S
H601 C610 0.930 . S
H602 C612 0.930 . S
H603 C615 0.929 . S
H604 C618 0.930 . S
H605 C620 0.960 . S
H606 C620 0.960 . S
H607 C620 0.960 . S
C608 H600 0.929 . S
C608 C609 1.377 . S
C608 C610 1.384 . S
C609 C608 1.377 . S
C609 C615 1.390 . S
C610 H601 0.930 . S
C610 C608 1.384 . S
C610 C611 1.372 . S
C611 C610 1.372 . S
C611 C612 1.400 . S
C611 C616 1.490 . S
C612 H602 0.930 . S
C612 C611 1.400 . S
C612 C615 1.386 . S
H613 C629 0.930 . S
H614 C630 0.931 . S
C615 H603 0.929 . S
C615 C609 1.390 . S
C615 C612 1.386 . S
C616 C611 1.490 . S
C616 C618 1.395 . S
C616 C619 1.403 . S
H617 C623 0.930 . S
C618 H604 0.930 . S
C618 C616 1.395 . S
C618 C621 1.403 . S
C619 C616 1.403 . S
C619 C620 1.524 . S
C619 C623 1.400 . S
C620 H605 0.960 . S
C620 H606 0.960 . S
C620 H607 0.960 . S
C620 C619 1.524 . S
C621 C618 1.403 . S
C621 C622 1.392 . S
C621 C625 1.495 . S
C622 C621 1.392 . S
C622 C623 1.385 . S
C622 C624 1.478 . S
C623 H617 0.930 . S
C623 C619 1.400 . S
C623 C622 1.385 . S
C624 C622 1.478 . S
C624 C626 1.381 . S
C624 C630 1.383 . S
C625 C621 1.495 . S
C625 H631 0.959 . S
C625 H632 0.961 . S
C625 H633 0.960 . S
C626 C624 1.381 . S
C626 C627 1.394 . S
C626 H634 0.930 . S
C627 C626 1.394 . S
C627 C628 1.383 . S
C627 H635 0.929 . S
C628 C627 1.383 . S
C628 C629 1.377 . S
C629 H613 0.930 . S
C629 C628 1.377 . S
C629 C630 1.379 . S
C630 H614 0.931 . S
C630 C624 1.383 . S
C630 C629 1.379 . S
H631 C625 0.959 . S
H632 C625 0.961 . S
H633 C625 0.960 . S
H634 C626 0.930 . S
H635 C627 0.929 . S
H636 C644 0.929 . S
H637 C646 0.930 . S
H638 C648 0.930 . S
H639 C651 0.929 . S
H640 C654 0.930 . S
H641 C656 0.960 . S
H642 C656 0.960 . S
H643 C656 0.960 . S
C644 H636 0.929 . S
C644 C645 1.377 . S
C644 C646 1.384 . S
C645 C644 1.377 . S
C645 C651 1.390 . S
C646 H637 0.930 . S
C646 C644 1.384 . S
C646 C647 1.372 . S
C647 C646 1.372 . S
C647 C648 1.400 . S
C647 C652 1.490 . S
C648 H638 0.930 . S
C648 C647 1.400 . S
C648 C651 1.386 . S
H649 C665 0.930 . S
H650 C666 0.931 . S
C651 H639 0.929 . S
C651 C645 1.390 . S
C651 C648 1.386 . S
C652 C647 1.490 . S
C652 C654 1.395 . S
C652 C655 1.403 . S
H653 C659 0.930 . S
C654 H640 0.930 . S
C654 C652 1.395 . S
C654 C657 1.403 . S
C655 C652 1.403 . S
C655 C656 1.524 . S
C655 C659 1.400 . S
C656 H641 0.960 . S
C656 H642 0.960 . S
C656 H643 0.960 . S
C656 C655 1.524 . S
C657 C654 1.403 . S
C657 C658 1.392 . S
C657 C661 1.495 . S
C658 C657 1.392 . S
C658 C659 1.385 . S
C658 C660 1.478 . S
C659 H653 0.930 . S
C659 C655 1.400 . S
C659 C658 1.385 . S
C660 C658 1.478 . S
C660 C662 1.381 . S
C660 C666 1.383 . S
C661 C657 1.495 . S
C661 H667 0.959 . S
C661 H668 0.961 . S
C661 H669 0.960 . S
C662 C660 1.381 . S
C662 C663 1.394 . S
C662 H670 0.930 . S
C663 C662 1.394 . S
C663 C664 1.383 . S
C663 H671 0.929 . S
C664 C663 1.383 . S
C664 C665 1.377 . S
C665 H649 0.930 . S
C665 C664 1.377 . S
C665 C666 1.379 . S
C666 H650 0.931 . S
C666 C660 1.383 . S
C666 C665 1.379 . S
H667 C661 0.959 . S
H668 C661 0.961 . S
H669 C661 0.960 . S
H670 C662 0.930 . S
H671 C663 0.929 . S
H672 C680 0.929 . S
H673 C682 0.930 . S
H674 C684 0.930 . S
H675 C687 0.929 . S
H676 C690 0.930 . S
H677 C692 0.960 . S
H678 C692 0.960 . S
H679 C692 0.960 . S
C680 H672 0.929 . S
C680 C681 1.377 . S
C680 C682 1.384 . S
C681 C680 1.377 . S
C681 C687 1.390 . S
C682 H673 0.930 . S
C682 C680 1.384 . S
C682 C683 1.372 . S
C683 C682 1.372 . S
C683 C684 1.400 . S
C683 C688 1.490 . S
C684 H674 0.930 . S
C684 C683 1.400 . S
C684 C687 1.386 . S
H685 C701 0.930 . S
H686 C702 0.931 . S
C687 H675 0.929 . S
C687 C681 1.390 . S
C687 C684 1.386 . S
C688 C683 1.490 . S
C688 C690 1.395 . S
C688 C691 1.403 . S
H689 C695 0.930 . S
C690 H676 0.930 . S
C690 C688 1.395 . S
C690 C693 1.403 . S
C691 C688 1.403 . S
C691 C692 1.524 . S
C691 C695 1.400 . S
C692 H677 0.960 . S
C692 H678 0.960 . S
C692 H679 0.960 . S
C692 C691 1.524 . S
C693 C690 1.403 . S
C693 C694 1.392 . S
C693 C697 1.495 . S
C694 C693 1.392 . S
C694 C695 1.385 . S
C694 C696 1.478 . S
C695 H689 0.930 . S
C695 C691 1.400 . S
C695 C694 1.385 . S
C696 C694 1.478 . S
C696 C698 1.381 . S
C696 C702 1.383 . S
C697 C693 1.495 . S
C697 H703 0.959 . S
C697 H704 0.961 . S
C697 H705 0.960 . S
C698 C696 1.381 . S
C698 C699 1.394 . S
C698 H706 0.930 . S
C699 C698 1.394 . S
C699 C700 1.383 . S
C699 H707 0.929 . S
C700 C699 1.383 . S
C700 C701 1.377 . S
C701 H685 0.930 . S
C701 C700 1.377 . S
C701 C702 1.379 . S
C702 H686 0.931 . S
C702 C696 1.383 . S
C702 C701 1.379 . S
H703 C697 0.959 . S
H704 C697 0.961 . S
H705 C697 0.960 . S
H706 C698 0.930 . S
H707 C699 0.929 . S
H708 C716 0.929 . S
H709 C718 0.930 . S
H710 C720 0.930 . S
H711 C723 0.929 . S
H712 C726 0.930 . S
H713 C728 0.960 . S
H714 C728 0.960 . S
H715 C728 0.960 . S
C716 H708 0.929 . S
C716 C717 1.377 . S
C716 C718 1.384 . S
C717 C716 1.377 . S
C717 C723 1.390 . S
C718 H709 0.930 . S
C718 C716 1.384 . S
C718 C719 1.372 . S
C719 C718 1.372 . S
C719 C720 1.400 . S
C719 C724 1.490 . S
C720 H710 0.930 . S
C720 C719 1.400 . S
C720 C723 1.386 . S
H721 C737 0.930 . S
H722 C738 0.931 . S
C723 H711 0.929 . S
C723 C717 1.390 . S
C723 C720 1.386 . S
C724 C719 1.490 . S
C724 C726 1.395 . S
C724 C727 1.403 . S
H725 C731 0.930 . S
C726 H712 0.930 . S
C726 C724 1.395 . S
C726 C729 1.403 . S
C727 C724 1.403 . S
C727 C728 1.524 . S
C727 C731 1.400 . S
C728 H713 0.960 . S
C728 H714 0.960 . S
C728 H715 0.960 . S
C728 C727 1.524 . S
C729 C726 1.403 . S
C729 C730 1.392 . S
C729 C733 1.495 . S
C730 C729 1.392 . S
C730 C731 1.385 . S
C730 C732 1.478 . S
C731 H725 0.930 . S
C731 C727 1.400 . S
C731 C730 1.385 . S
C732 C730 1.478 . S
C732 C734 1.381 . S
C732 C738 1.383 . S
C733 C729 1.495 . S
C733 H739 0.959 . S
C733 H740 0.961 . S
C733 H741 0.960 . S
C734 C732 1.381 . S
C734 C735 1.394 . S
C734 H742 0.930 . S
C735 C734 1.394 . S
C735 C736 1.383 . S
C735 H743 0.929 . S
C736 C735 1.383 . S
C736 C737 1.377 . S
C737 H721 0.930 . S
C737 C736 1.377 . S
C737 C738 1.379 . S
C738 H722 0.931 . S
C738 C732 1.383 . S
C738 C737 1.379 . S
H739 C733 0.959 . S
H740 C733 0.961 . S
H741 C733 0.960 . S
H742 C734 0.930 . S
H743 C735 0.929 . S
H744 C752 0.929 . S
H745 C754 0.930 . S
H746 C756 0.930 . S
H747 C759 0.929 . S
H748 C762 0.930 . S
H749 C764 0.960 . S
H750 C764 0.960 . S
H751 C764 0.960 . S
C752 H744 0.929 . S
C752 C753 1.377 . S
C752 C754 1.384 . S
C753 C752 1.377 . S
C753 C759 1.390 . S
C754 H745 0.930 . S
C754 C752 1.384 . S
C754 C755 1.372 . S
C755 C754 1.372 . S
C755 C756 1.400 . S
C755 C760 1.490 . S
C756 H746 0.930 . S
C756 C755 1.400 . S
C756 C759 1.386 . S
H757 C773 0.930 . S
H758 C774 0.931 . S
C759 H747 0.929 . S
C759 C753 1.390 . S
C759 C756 1.386 . S
C760 C755 1.490 . S
C760 C762 1.395 . S
C760 C763 1.403 . S
H761 C767 0.930 . S
C762 H748 0.930 . S
C762 C760 1.395 . S
C762 C765 1.403 . S
C763 C760 1.403 . S
C763 C764 1.524 . S
C763 C767 1.400 . S
C764 H749 0.960 . S
C764 H750 0.960 . S
C764 H751 0.960 . S
C764 C763 1.524 . S
C765 C762 1.403 . S
C765 C766 1.392 . S
C765 C769 1.495 . S
C766 C765 1.392 . S
C766 C767 1.385 . S
C766 C768 1.478 . S
C767 H761 0.930 . S
C767 C763 1.400 . S
C767 C766 1.385 . S
C768 C766 1.478 . S
C768 C770 1.381 . S
C768 C774 1.383 . S
C769 C765 1.495 . S
C769 H775 0.959 . S
C769 H776 0.961 . S
C769 H777 0.960 . S
C770 C768 1.381 . S
C770 C771 1.394 . S
C770 H778 0.930 . S
C771 C770 1.394 . S
C771 C772 1.383 . S
C771 H779 0.929 . S
C772 C771 1.383 . S
C772 C773 1.377 . S
C773 H757 0.930 . S
C773 C772 1.377 . S
C773 C774 1.379 . S
C774 H758 0.931 . S
C774 C768 1.383 . S
C774 C773 1.379 . S
H775 C769 0.959 . S
H776 C769 0.961 . S
H777 C769 0.960 . S
H778 C770 0.930 . S
H779 C771 0.929 . S
H780 C788 0.929 . S
H781 C790 0.930 . S
H782 C792 0.930 . S
H783 C795 0.929 . S
H784 C798 0.930 . S
H785 C800 0.960 . S
H786 C800 0.960 . S
H787 C800 0.960 . S
C788 H780 0.929 . S
C788 C789 1.377 . S
C788 C790 1.384 . S
C789 C788 1.377 . S
C789 C795 1.390 . S
C790 H781 0.930 . S
C790 C788 1.384 . S
C790 C791 1.372 . S
C791 C790 1.372 . S
C791 C792 1.400 . S
C791 C796 1.490 . S
C792 H782 0.930 . S
C792 C791 1.400 . S
C792 C795 1.386 . S
H793 C809 0.930 . S
H794 C810 0.931 . S
C795 H783 0.929 . S
C795 C789 1.390 . S
C795 C792 1.386 . S
C796 C791 1.490 . S
C796 C798 1.395 . S
C796 C799 1.403 . S
H797 C803 0.930 . S
C798 H784 0.930 . S
C798 C796 1.395 . S
C798 C801 1.403 . S
C799 C796 1.403 . S
C799 C800 1.524 . S
C799 C803 1.400 . S
C800 H785 0.960 . S
C800 H786 0.960 . S
C800 H787 0.960 . S
C800 C799 1.524 . S
C801 C798 1.403 . S
C801 C802 1.392 . S
C801 C805 1.495 . S
C802 C801 1.392 . S
C802 C803 1.385 . S
C802 C804 1.478 . S
C803 H797 0.930 . S
C803 C799 1.400 . S
C803 C802 1.385 . S
C804 C802 1.478 . S
C804 C806 1.381 . S
C804 C810 1.383 . S
C805 C801 1.495 . S
C805 H811 0.959 . S
C805 H812 0.961 . S
C805 H813 0.960 . S
C806 C804 1.381 . S
C806 C807 1.394 . S
C806 H814 0.930 . S
C807 C806 1.394 . S
C807 C808 1.383 . S
C807 H815 0.929 . S
C808 C807 1.383 . S
C808 C809 1.377 . S
C809 H793 0.930 . S
C809 C808 1.377 . S
C809 C810 1.379 . S
C810 H794 0.931 . S
C810 C804 1.383 . S
C810 C809 1.379 . S
H811 C805 0.959 . S
H812 C805 0.961 . S
H813 C805 0.960 . S
H814 C806 0.930 . S
H815 C807 0.929 . S
H816 C824 0.929 . S
H817 C826 0.930 . S
H818 C828 0.930 . S
H819 C831 0.929 . S
H820 C834 0.930 . S
H821 C836 0.960 . S
H822 C836 0.960 . S
H823 C836 0.960 . S
C824 H816 0.929 . S
C824 C825 1.377 . S
C824 C826 1.384 . S
C825 C824 1.377 . S
C825 C831 1.390 . S
C826 H817 0.930 . S
C826 C824 1.384 . S
C826 C827 1.372 . S
C827 C826 1.372 . S
C827 C828 1.400 . S
C827 C832 1.490 . S
C828 H818 0.930 . S
C828 C827 1.400 . S
C828 C831 1.386 . S
H829 C845 0.930 . S
H830 C846 0.931 . S
C831 H819 0.929 . S
C831 C825 1.390 . S
C831 C828 1.386 . S
C832 C827 1.490 . S
C832 C834 1.395 . S
C832 C835 1.403 . S
H833 C839 0.930 . S
C834 H820 0.930 . S
C834 C832 1.395 . S
C834 C837 1.403 1_554 S
C835 C832 1.403 . S
C835 C836 1.524 . S
C835 C839 1.400 1_554 S
C836 H821 0.960 . S
C836 H822 0.960 . S
C836 H823 0.960 . S
C836 C835 1.524 . S
C837 C834 1.403 1_556 S
C837 C838 1.392 . S
C837 C841 1.495 . S
C838 C837 1.392 . S
C838 C839 1.385 . S
C838 C840 1.478 . S
C839 H833 0.930 . S
C839 C835 1.400 1_556 S
C839 C838 1.385 . S
C840 C838 1.478 . S
C840 C842 1.381 . S
C840 C846 1.383 . S
C841 C837 1.495 . S
C841 H847 0.959 . S
C841 H848 0.961 . S
C841 H849 0.960 . S
C842 C840 1.381 . S
C842 C843 1.394 . S
C842 H850 0.930 . S
C843 C842 1.394 . S
C843 C844 1.383 . S
C843 H851 0.929 . S
C844 C843 1.383 . S
C844 C845 1.377 . S
C845 H829 0.930 . S
C845 C844 1.377 . S
C845 C846 1.379 . S
C846 H830 0.931 . S
C846 C840 1.383 . S
C846 C845 1.379 . S
H847 C841 0.959 . S
H848 C841 0.961 . S
H849 C841 0.960 . S
H850 C842 0.930 . S
H851 C843 0.929 . S
H852 C860 0.929 . S
H853 C862 0.930 . S
H854 C864 0.930 . S
H855 C867 0.929 . S
H856 C870 0.930 . S
H857 C872 0.960 . S
H858 C872 0.960 . S
H859 C872 0.960 . S
C860 H852 0.929 . S
C860 C861 1.377 . S
C860 C862 1.384 . S
C861 C860 1.377 . S
C861 C867 1.390 . S
C862 H853 0.930 . S
C862 C860 1.384 . S
C862 C863 1.372 . S
C863 C862 1.372 . S
C863 C864 1.400 . S
C863 C868 1.490 . S
C864 H854 0.930 . S
C864 C863 1.400 . S
C864 C867 1.386 . S
H865 C881 0.930 . S
H866 C882 0.931 . S
C867 H855 0.929 . S
C867 C861 1.390 . S
C867 C864 1.386 . S
C868 C863 1.490 . S
C868 C870 1.395 . S
C868 C871 1.403 . S
H869 C875 0.930 . S
C870 H856 0.930 . S
C870 C868 1.395 . S
C870 C873 1.403 . S
C871 C868 1.403 . S
C871 C872 1.524 . S
C871 C875 1.400 . S
C872 H857 0.960 . S
C872 H858 0.960 . S
C872 H859 0.960 . S
C872 C871 1.524 . S
C873 C870 1.403 . S
C873 C874 1.392 . S
C873 C877 1.495 . S
C874 C873 1.392 . S
C874 C875 1.385 . S
C874 C876 1.478 . S
C875 H869 0.930 . S
C875 C871 1.400 . S
C875 C874 1.385 . S
C876 C874 1.478 . S
C876 C878 1.381 . S
C876 C882 1.383 . S
C877 C873 1.495 . S
C877 H883 0.959 . S
C877 H884 0.961 . S
C877 H885 0.960 . S
C878 C876 1.381 . S
C878 C879 1.394 . S
C878 H886 0.930 . S
C879 C878 1.394 . S
C879 C880 1.383 . S
C879 H887 0.929 . S
C880 C879 1.383 . S
C880 C881 1.377 . S
C881 H865 0.930 . S
C881 C880 1.377 . S
C881 C882 1.379 . S
C882 H866 0.931 . S
C882 C876 1.383 . S
C882 C881 1.379 . S
H883 C877 0.959 . S
H884 C877 0.961 . S
H885 C877 0.960 . S
H886 C878 0.930 . S
H887 C879 0.929 . S
H888 C896 0.929 . S
H889 C898 0.930 . S
H890 C900 0.930 . S
H891 C903 0.929 . S
H892 C906 0.930 . S
H893 C908 0.960 . S
H894 C908 0.960 . S
H895 C908 0.960 . S
C896 H888 0.929 . S
C896 C897 1.377 . S
C896 C898 1.384 . S
C897 C896 1.377 . S
C897 C903 1.390 . S
C898 H889 0.930 . S
C898 C896 1.384 . S
C898 C899 1.372 . S
C899 C898 1.372 . S
C899 C900 1.400 . S
C899 C904 1.490 . S
C900 H890 0.930 . S
C900 C899 1.400 . S
C900 C903 1.386 . S
H901 C917 0.930 . S
H902 C918 0.931 . S
C903 H891 0.929 . S
C903 C897 1.390 . S
C903 C900 1.386 . S
C904 C899 1.490 . S
C904 C906 1.395 . S
C904 C907 1.403 . S
H905 C911 0.930 . S
C906 H892 0.930 . S
C906 C904 1.395 . S
C906 C909 1.403 1_556 S
C907 C904 1.403 . S
C907 C908 1.524 . S
C907 C911 1.400 1_556 S
C908 H893 0.960 . S
C908 H894 0.960 . S
C908 H895 0.960 . S
C908 C907 1.524 . S
C909 C906 1.403 1_554 S
C909 C910 1.392 . S
C909 C913 1.495 . S
C910 C909 1.392 . S
C910 C911 1.385 . S
C910 C912 1.478 . S
C911 H905 0.930 . S
C911 C907 1.400 1_554 S
C911 C910 1.385 . S
C912 C910 1.478 . S
C912 C914 1.381 . S
C912 C918 1.383 . S
C913 C909 1.495 . S
C913 H919 0.959 . S
C913 H920 0.961 . S
C913 H921 0.960 . S
C914 C912 1.381 . S
C914 C915 1.394 . S
C914 H922 0.930 . S
C915 C914 1.394 . S
C915 C916 1.383 . S
C915 H923 0.929 . S
C916 C915 1.383 . S
C916 C917 1.377 . S
C917 H901 0.930 . S
C917 C916 1.377 . S
C917 C918 1.379 . S
C918 H902 0.931 . S
C918 C912 1.383 . S
C918 C917 1.379 . S
H919 C913 0.959 . S
H920 C913 0.961 . S
H921 C913 0.960 . S
H922 C914 0.930 . S
H923 C915 0.929 . S
H924 C932 0.929 . S
H925 C934 0.930 . S
H926 C936 0.930 . S
H927 C939 0.929 . S
H928 C942 0.930 . S
H929 C944 0.960 1_545 S
H930 C944 0.960 . S
H931 C944 0.960 . S
C932 H924 0.929 . S
C932 C933 1.377 . S
C932 C934 1.384 . S
C933 C932 1.377 . S
C933 C939 1.390 . S
C934 H925 0.930 . S
C934 C932 1.384 . S
C934 C935 1.372 . S
C935 C934 1.372 . S
C935 C936 1.400 . S
C935 C940 1.490 . S
C936 H926 0.930 . S
C936 C935 1.400 . S
C936 C939 1.386 . S
H937 C953 0.930 . S
H938 C954 0.931 . S
C939 H927 0.929 . S
C939 C933 1.390 . S
C939 C936 1.386 . S
C940 C935 1.490 . S
C940 C942 1.395 . S
C940 C943 1.403 . S
H941 C947 0.930 . S
C942 H928 0.930 . S
C942 C940 1.395 . S
C942 C945 1.403 . S
C943 C940 1.403 . S
C943 C944 1.524 . S
C943 C947 1.400 . S
C944 H929 0.960 1_565 S
C944 H930 0.960 . S
C944 H931 0.960 . S
C944 C943 1.524 . S
C945 C942 1.403 . S
C945 C946 1.392 . S
C945 C949 1.495 . S
C946 C945 1.392 . S
C946 C947 1.385 . S
C946 C948 1.478 . S
C947 H941 0.930 . S
C947 C943 1.400 . S
C947 C946 1.385 . S
C948 C946 1.478 . S
C948 C950 1.381 . S
C948 C954 1.383 . S
C949 C945 1.495 . S
C949 H955 0.959 . S
C949 H956 0.961 . S
C949 H957 0.960 . S
C950 C948 1.381 . S
C950 C951 1.394 . S
C950 H958 0.930 . S
C951 C950 1.394 . S
C951 C952 1.383 . S
C951 H959 0.929 . S
C952 C951 1.383 . S
C952 C953 1.377 . S
C953 H937 0.930 . S
C953 C952 1.377 . S
C953 C954 1.379 . S
C954 H938 0.931 . S
C954 C948 1.383 . S
C954 C953 1.379 . S
H955 C949 0.959 . S
H956 C949 0.961 . S
H957 C949 0.960 . S
H958 C950 0.930 . S
H959 C951 0.929 . S
H960 C968 0.929 . S
H961 C970 0.930 . S
H962 C972 0.930 . S
H963 C975 0.929 . S
H964 C978 0.930 . S
H965 C980 0.960 . S
H966 C980 0.960 . S
H967 C980 0.960 . S
C968 H960 0.929 . S
C968 C969 1.377 . S
C968 C970 1.384 . S
C969 C968 1.377 . S
C969 C975 1.390 . S
C970 H961 0.930 . S
C970 C968 1.384 . S
C970 C971 1.372 . S
C971 C970 1.372 . S
C971 C972 1.400 . S
C971 C976 1.490 . S
C972 H962 0.930 . S
C972 C971 1.400 . S
C972 C975 1.386 . S
H973 C989 0.930 . S
H974 C990 0.931 . S
C975 H963 0.929 . S
C975 C969 1.390 . S
C975 C972 1.386 . S
C976 C971 1.490 . S
C976 C978 1.395 . S
C976 C979 1.403 . S
H977 C983 0.930 . S
C978 H964 0.930 . S
C978 C976 1.395 . S
C978 C981 1.403 1_554 S
C979 C976 1.403 . S
C979 C980 1.524 . S
C979 C983 1.400 1_554 S
C980 H965 0.960 . S
C980 H966 0.960 . S
C980 H967 0.960 . S
C980 C979 1.524 . S
C981 C978 1.403 1_556 S
C981 C982 1.392 . S
C981 C985 1.495 . S
C982 C981 1.392 . S
C982 C983 1.385 . S
C982 C984 1.478 . S
C983 H977 0.930 . S
C983 C979 1.400 1_556 S
C983 C982 1.385 . S
C984 C982 1.478 . S
C984 C986 1.381 . S
C984 C990 1.383 . S
C985 C981 1.495 . S
C985 H991 0.959 . S
C985 H992 0.961 . S
C985 H993 0.960 . S
C986 C984 1.381 . S
C986 C987 1.394 . S
C986 H994 0.930 . S
C987 C986 1.394 . S
C987 C988 1.383 . S
C987 H995 0.929 . S
C988 C987 1.383 . S
C988 C989 1.377 . S
C989 H973 0.930 . S
C989 C988 1.377 . S
C989 C990 1.379 . S
C990 H974 0.931 . S
C990 C984 1.383 . S
C990 C989 1.379 . S
H991 C985 0.959 . S
H992 C985 0.961 . S
H993 C985 0.960 . S
H994 C986 0.930 . S
H995 C987 0.929 . S
H996 C1004 0.929 . S
H997 C1006 0.930 . S
H998 C1008 0.930 . S
H999 C1011 0.929 . S
H1000 C1014 0.930 . S
H1001 C1016 0.960 . S
H1002 C1016 0.960 . S
H1003 C1016 0.960 . S
C1004 H996 0.929 . S
C1004 C1005 1.377 . S
C1004 C1006 1.384 . S
C1005 C1004 1.377 . S
C1005 C1011 1.390 . S
C1006 H997 0.930 . S
C1006 C1004 1.384 . S
C1006 C1007 1.372 . S
C1007 C1006 1.372 . S
C1007 C1008 1.400 . S
C1007 C1012 1.490 . S
C1008 H998 0.930 . S
C1008 C1007 1.400 . S
C1008 C1011 1.386 . S
H1009 C1025 0.930 . S
H1010 C1026 0.931 . S
C1011 H999 0.929 . S
C1011 C1005 1.390 . S
C1011 C1008 1.386 . S
C1012 C1007 1.490 . S
C1012 C1014 1.395 . S
C1012 C1015 1.403 . S
H1013 C1019 0.930 . S
C1014 H1000 0.930 . S
C1014 C1012 1.395 . S
C1014 C1017 1.403 . S
C1015 C1012 1.403 . S
C1015 C1016 1.524 . S
C1015 C1019 1.400 . S
C1016 H1001 0.960 . S
C1016 H1002 0.960 . S
C1016 H1003 0.960 . S
C1016 C1015 1.524 . S
C1017 C1014 1.403 . S
C1017 C1018 1.392 . S
C1017 C1021 1.495 . S
C1018 C1017 1.392 . S
C1018 C1019 1.385 . S
C1018 C1020 1.478 . S
C1019 H1013 0.930 . S
C1019 C1015 1.400 . S
C1019 C1018 1.385 . S
C1020 C1018 1.478 . S
C1020 C1022 1.381 . S
C1020 C1026 1.383 . S
C1021 C1017 1.495 . S
C1021 H1027 0.959 . S
C1021 H1028 0.961 . S
C1021 H1029 0.960 . S
C1022 C1020 1.381 . S
C1022 C1023 1.394 . S
C1022 H1030 0.930 . S
C1023 C1022 1.394 . S
C1023 C1024 1.383 . S
C1023 H1031 0.929 . S
C1024 C1023 1.383 . S
C1024 C1025 1.377 . S
C1025 H1009 0.930 . S
C1025 C1024 1.377 . S
C1025 C1026 1.379 . S
C1026 H1010 0.931 . S
C1026 C1020 1.383 . S
C1026 C1025 1.379 . S
H1027 C1021 0.959 . S
H1028 C1021 0.961 . S
H1029 C1021 0.960 . S
H1030 C1022 0.930 . S
H1031 C1023 0.929 . S
H1032 C1040 0.929 . S
H1033 C1042 0.930 . S
H1034 C1044 0.930 . S
H1035 C1047 0.929 . S
H1036 C1050 0.930 . S
H1037 C1052 0.960 . S
H1038 C1052 0.960 . S
H1039 C1052 0.960 . S
C1040 H1032 0.929 . S
C1040 C1041 1.377 . S
C1040 C1042 1.384 . S
C1041 C1040 1.377 . S
C1041 C1047 1.390 . S
C1042 H1033 0.930 . S
C1042 C1040 1.384 . S
C1042 C1043 1.372 . S
C1043 C1042 1.372 . S
C1043 C1044 1.400 . S
C1043 C1048 1.490 . S
C1044 H1034 0.930 . S
C1044 C1043 1.400 . S
C1044 C1047 1.386 . S
H1045 C1061 0.930 . S
H1046 C1062 0.931 . S
C1047 H1035 0.929 . S
C1047 C1041 1.390 . S
C1047 C1044 1.386 . S
C1048 C1043 1.490 . S
C1048 C1050 1.395 . S
C1048 C1051 1.403 . S
H1049 C1055 0.930 . S
C1050 H1036 0.930 . S
C1050 C1048 1.395 . S
C1050 C1053 1.403 1_554 S
C1051 C1048 1.403 . S
C1051 C1052 1.524 . S
C1051 C1055 1.400 1_554 S
C1052 H1037 0.960 . S
C1052 H1038 0.960 . S
C1052 H1039 0.960 . S
C1052 C1051 1.524 . S
C1053 C1050 1.403 1_556 S
C1053 C1054 1.392 . S
C1053 C1057 1.495 . S
C1054 C1053 1.392 . S
C1054 C1055 1.385 . S
C1054 C1056 1.478 . S
C1055 H1049 0.930 . S
C1055 C1051 1.400 1_556 S
C1055 C1054 1.385 . S
C1056 C1054 1.478 . S
C1056 C1058 1.381 . S
C1056 C1062 1.383 . S
C1057 C1053 1.495 . S
C1057 H1063 0.959 . S
C1057 H1064 0.961 . S
C1057 H1065 0.960 . S
C1058 C1056 1.381 . S
C1058 C1059 1.394 . S
C1058 H1066 0.930 . S
C1059 C1058 1.394 . S
C1059 C1060 1.383 . S
C1059 H1067 0.929 . S
C1060 C1059 1.383 . S
C1060 C1061 1.377 . S
C1061 H1045 0.930 . S
C1061 C1060 1.377 . S
C1061 C1062 1.379 . S
C1062 H1046 0.931 . S
C1062 C1056 1.383 . S
C1062 C1061 1.379 . S
H1063 C1057 0.959 . S
H1064 C1057 0.961 . S
H1065 C1057 0.960 . S
H1066 C1058 0.930 . S
H1067 C1059 0.929 . S
H1068 C1076 0.929 . S
H1069 C1078 0.930 . S
H1070 C1080 0.930 . S
H1071 C1083 0.929 . S
H1072 C1086 0.930 . S
H1073 C1088 0.960 . S
H1074 C1088 0.960 . S
H1075 C1088 0.960 . S
C1076 H1068 0.929 . S
C1076 C1077 1.377 . S
C1076 C1078 1.384 . S
C1077 C1076 1.377 . S
C1077 C1083 1.390 . S
C1078 H1069 0.930 . S
C1078 C1076 1.384 . S
C1078 C1079 1.372 . S
C1079 C1078 1.372 . S
C1079 C1080 1.400 . S
C1079 C1084 1.490 . S
C1080 H1070 0.930 . S
C1080 C1079 1.400 . S
C1080 C1083 1.386 . S
H1081 C1097 0.930 . S
H1082 C1098 0.931 . S
C1083 H1071 0.929 . S
C1083 C1077 1.390 . S
C1083 C1080 1.386 . S
C1084 C1079 1.490 . S
C1084 C1086 1.395 . S
C1084 C1087 1.403 . S
H1085 C1091 0.930 . S
C1086 H1072 0.930 . S
C1086 C1084 1.395 . S
C1086 C1089 1.403 . S
C1087 C1084 1.403 . S
C1087 C1088 1.524 . S
C1087 C1091 1.400 . S
C1088 H1073 0.960 . S
C1088 H1074 0.960 . S
C1088 H1075 0.960 . S
C1088 C1087 1.524 . S
C1089 C1086 1.403 . S
C1089 C1090 1.392 . S
C1089 C1093 1.495 . S
C1090 C1089 1.392 . S
C1090 C1091 1.385 . S
C1090 C1092 1.478 . S
C1091 H1085 0.930 . S
C1091 C1087 1.400 . S
C1091 C1090 1.385 . S
C1092 C1090 1.478 . S
C1092 C1094 1.381 . S
C1092 C1098 1.383 . S
C1093 C1089 1.495 . S
C1093 H1099 0.959 . S
C1093 H1100 0.961 . S
C1093 H1101 0.960 . S
C1094 C1092 1.381 . S
C1094 C1095 1.394 . S
C1094 H1102 0.930 . S
C1095 C1094 1.394 . S
C1095 C1096 1.383 . S
C1095 H1103 0.929 . S
C1096 C1095 1.383 . S
C1096 C1097 1.377 . S
C1097 H1081 0.930 . S
C1097 C1096 1.377 . S
C1097 C1098 1.379 . S
C1098 H1082 0.931 . S
C1098 C1092 1.383 . S
C1098 C1097 1.379 . S
H1099 C1093 0.959 . S
H1100 C1093 0.961 . S
H1101 C1093 0.960 . S
H1102 C1094 0.930 . S
H1103 C1095 0.929 . S
H1104 C1112 0.929 . S
H1105 C1114 0.930 . S
H1106 C1116 0.930 . S
H1107 C1119 0.929 . S
H1108 C1122 0.930 . S
H1109 C1124 0.960 . S
H1110 C1124 0.960 . S
H1111 C1124 0.960 . S
C1112 H1104 0.929 . S
C1112 C1113 1.377 . S
C1112 C1114 1.384 . S
C1113 C1112 1.377 . S
C1113 C1119 1.390 . S
C1114 H1105 0.930 . S
C1114 C1112 1.384 . S
C1114 C1115 1.372 . S
C1115 C1114 1.372 . S
C1115 C1116 1.400 . S
C1115 C1120 1.490 . S
C1116 H1106 0.930 . S
C1116 C1115 1.400 . S
C1116 C1119 1.386 . S
H1117 C1133 0.930 . S
H1118 C1134 0.931 . S
C1119 H1107 0.929 . S
C1119 C1113 1.390 . S
C1119 C1116 1.386 . S
C1120 C1115 1.490 . S
C1120 C1122 1.395 . S
C1120 C1123 1.403 1_455 S
H1121 C1127 0.930 . S
C1122 H1108 0.930 . S
C1122 C1120 1.395 . S
C1122 C1125 1.403 . S
C1123 C1120 1.403 1_655 S
C1123 C1124 1.524 . S
C1123 C1127 1.400 . S
C1124 H1109 0.960 . S
C1124 H1110 0.960 . S
C1124 H1111 0.960 . S
C1124 C1123 1.524 . S
C1125 C1122 1.403 . S
C1125 C1126 1.392 1_455 S
C1125 C1129 1.495 . S
C1126 C1125 1.392 1_655 S
C1126 C1127 1.385 . S
C1126 C1128 1.478 . S
C1127 H1121 0.930 . S
C1127 C1123 1.400 . S
C1127 C1126 1.385 . S
C1128 C1126 1.478 . S
C1128 C1130 1.381 . S
C1128 C1134 1.383 . S
C1129 C1125 1.495 . S
C1129 H1135 0.959 . S
C1129 H1136 0.961 . S
C1129 H1137 0.960 . S
C1130 C1128 1.381 . S
C1130 C1131 1.394 . S
C1130 H1138 0.930 . S
C1131 C1130 1.394 . S
C1131 C1132 1.383 . S
C1131 H1139 0.929 . S
C1132 C1131 1.383 . S
C1132 C1133 1.377 . S
C1133 H1117 0.930 . S
C1133 C1132 1.377 . S
C1133 C1134 1.379 . S
C1134 H1118 0.931 . S
C1134 C1128 1.383 . S
C1134 C1133 1.379 . S
H1135 C1129 0.959 . S
H1136 C1129 0.961 . S
H1137 C1129 0.960 . S
H1138 C1130 0.930 . S
H1139 C1131 0.929 . S
H1140 C1148 0.929 . S
H1141 C1150 0.930 . S
H1142 C1152 0.930 . S
H1143 C1155 0.929 . S
H1144 C1158 0.930 . S
H1145 C1160 0.960 . S
H1146 C1160 0.960 . S
H1147 C1160 0.960 . S
C1148 H1140 0.929 . S
C1148 C1149 1.377 . S
C1148 C1150 1.384 . S
C1149 C1148 1.377 . S
C1149 C1155 1.390 . S
C1150 H1141 0.930 . S
C1150 C1148 1.384 . S
C1150 C1151 1.372 . S
C1151 C1150 1.372 . S
C1151 C1152 1.400 . S
C1151 C1156 1.490 . S
C1152 H1142 0.930 . S
C1152 C1151 1.400 . S
C1152 C1155 1.386 . S
H1153 C1169 0.930 . S
H1154 C1170 0.931 . S
C1155 H1143 0.929 . S
C1155 C1149 1.390 . S
C1155 C1152 1.386 . S
C1156 C1151 1.490 . S
C1156 C1158 1.395 1_565 S
C1156 C1159 1.403 . S
H1157 C1163 0.930 . S
C1158 H1144 0.930 . S
C1158 C1156 1.395 1_545 S
C1158 C1161 1.403 . S
C1159 C1156 1.403 . S
C1159 C1160 1.524 . S
C1159 C1163 1.400 . S
C1160 H1145 0.960 . S
C1160 H1146 0.960 . S
C1160 H1147 0.960 . S
C1160 C1159 1.524 . S
C1161 C1158 1.403 . S
C1161 C1162 1.392 . S
C1161 C1165 1.495 . S
C1162 C1161 1.392 . S
C1162 C1163 1.385 1_545 S
C1162 C1164 1.478 . S
C1163 H1157 0.930 . S
C1163 C1159 1.400 . S
C1163 C1162 1.385 1_565 S
C1164 C1162 1.478 . S
C1164 C1166 1.381 . S
C1164 C1170 1.383 . S
C1165 C1161 1.495 . S
C1165 H1171 0.959 . S
C1165 H1172 0.961 . S
C1165 H1173 0.960 . S
C1166 C1164 1.381 . S
C1166 C1167 1.394 . S
C1166 H1174 0.930 . S
C1167 C1166 1.394 . S
C1167 C1168 1.383 . S
C1167 H1175 0.929 . S
C1168 C1167 1.383 . S
C1168 C1169 1.377 . S
C1169 H1153 0.930 . S
C1169 C1168 1.377 . S
C1169 C1170 1.379 . S
C1170 H1154 0.931 . S
C1170 C1164 1.383 . S
C1170 C1169 1.379 . S
H1171 C1165 0.959 . S
H1172 C1165 0.961 . S
H1173 C1165 0.960 . S
H1174 C1166 0.930 . S
H1175 C1167 0.929 . S
H1176 C1184 0.929 . S
H1177 C1186 0.930 . S
H1178 C1188 0.930 . S
H1179 C1191 0.929 . S
H1180 C1194 0.930 . S
H1181 C1196 0.960 . S
H1182 C1196 0.960 1_565 S
H1183 C1196 0.960 . S
C1184 H1176 0.929 . S
C1184 C1185 1.377 . S
C1184 C1186 1.384 . S
C1185 C1184 1.377 . S
C1185 C1191 1.390 . S
C1186 H1177 0.930 . S
C1186 C1184 1.384 . S
C1186 C1187 1.372 . S
C1187 C1186 1.372 . S
C1187 C1188 1.400 . S
C1187 C1192 1.490 . S
C1188 H1178 0.930 . S
C1188 C1187 1.400 . S
C1188 C1191 1.386 . S
H1189 C1205 0.930 . S
H1190 C1206 0.931 . S
C1191 H1179 0.929 . S
C1191 C1185 1.390 . S
C1191 C1188 1.386 . S
C1192 C1187 1.490 . S
C1192 C1194 1.395 . S
C1192 C1195 1.403 1_565 S
H1193 C1199 0.930 . S
C1194 H1180 0.930 . S
C1194 C1192 1.395 . S
C1194 C1197 1.403 . S
C1195 C1192 1.403 1_545 S
C1195 C1196 1.524 . S
C1195 C1199 1.400 . S
C1196 H1181 0.960 . S
C1196 H1182 0.960 1_545 S
C1196 H1183 0.960 . S
C1196 C1195 1.524 . S
C1197 C1194 1.403 . S
C1197 C1198 1.392 1_565 S
C1197 C1201 1.495 . S
C1198 C1197 1.392 1_545 S
C1198 C1199 1.385 . S
C1198 C1200 1.478 . S
C1199 H1193 0.930 . S
C1199 C1195 1.400 . S
C1199 C1198 1.385 . S
C1200 C1198 1.478 . S
C1200 C1202 1.381 . S
C1200 C1206 1.383 . S
C1201 C1197 1.495 . S
C1201 H1207 0.959 . S
C1201 H1208 0.961 . S
C1201 H1209 0.960 . S
C1202 C1200 1.381 . S
C1202 C1203 1.394 . S
C1202 H1210 0.930 . S
C1203 C1202 1.394 . S
C1203 C1204 1.383 . S
C1203 H1211 0.929 . S
C1204 C1203 1.383 . S
C1204 C1205 1.377 . S
C1205 H1189 0.930 . S
C1205 C1204 1.377 . S
C1205 C1206 1.379 . S
C1206 H1190 0.931 . S
C1206 C1200 1.383 . S
C1206 C1205 1.379 . S
H1207 C1201 0.959 . S
H1208 C1201 0.961 . S
H1209 C1201 0.960 . S
H1210 C1202 0.930 . S
H1211 C1203 0.929 . S
H1212 C1220 0.929 . S
H1213 C1222 0.930 . S
H1214 C1224 0.930 . S
H1215 C1227 0.929 . S
H1216 C1230 0.930 . S
H1217 C1232 0.960 . S
H1218 C1232 0.960 . S
H1219 C1232 0.955 1_455 S
C1220 H1212 0.929 . S
C1220 C1221 1.377 . S
C1220 C1222 1.384 . S
C1221 C1220 1.377 . S
C1221 C1227 1.390 . S
C1222 H1213 0.930 . S
C1222 C1220 1.384 . S
C1222 C1223 1.372 . S
C1223 C1222 1.372 . S
C1223 C1224 1.400 . S
C1223 C1228 1.490 . S
C1224 H1214 0.930 . S
C1224 C1223 1.400 . S
C1224 C1227 1.386 . S
H1225 C1241 0.930 . S
H1226 C1242 0.931 . S
C1227 H1215 0.929 . S
C1227 C1221 1.390 . S
C1227 C1224 1.386 . S
C1228 C1223 1.490 . S
C1228 C1230 1.395 . S
C1228 C1231 1.403 1_455 S
H1229 C1235 0.930 . S
C1230 H1216 0.930 . S
C1230 C1228 1.395 . S
C1230 C1233 1.403 . S
C1231 C1228 1.403 1_655 S
C1231 C1232 1.524 . S
C1231 C1235 1.400 . S
C1232 H1217 0.960 . S
C1232 H1218 0.960 . S
C1232 H1219 0.955 1_655 S
C1232 C1231 1.524 . S
C1233 C1230 1.403 . S
C1233 C1234 1.392 1_455 S
C1233 C1237 1.495 . S
C1234 C1233 1.392 1_655 S
C1234 C1235 1.385 . S
C1234 C1236 1.478 . S
C1235 H1229 0.930 . S
C1235 C1231 1.400 . S
C1235 C1234 1.385 . S
C1236 C1234 1.478 . S
C1236 C1238 1.381 . S
C1236 C1242 1.383 . S
C1237 C1233 1.495 . S
C1237 H1243 0.959 . S
C1237 H1244 0.961 . S
C1237 H1245 0.960 . S
C1238 C1236 1.381 . S
C1238 C1239 1.394 . S
C1238 H1246 0.930 . S
C1239 C1238 1.394 . S
C1239 C1240 1.383 . S
C1239 H1247 0.929 . S
C1240 C1239 1.383 . S
C1240 C1241 1.377 . S
C1241 H1225 0.930 . S
C1241 C1240 1.377 . S
C1241 C1242 1.379 . S
C1242 H1226 0.931 . S
C1242 C1236 1.383 . S
C1242 C1241 1.379 . S
H1243 C1237 0.959 . S
H1244 C1237 0.961 . S
H1245 C1237 0.960 . S
H1246 C1238 0.930 . S
H1247 C1239 0.929 . S
H1248 C1256 0.929 . S
H1249 C1258 0.930 . S
H1250 C1260 0.930 . S
H1251 C1263 0.929 . S
H1252 C1266 0.930 . S
H1253 C1268 0.960 . S
H1254 C1268 0.960 . S
H1255 C1268 0.960 . S
C1256 H1248 0.929 . S
C1256 C1257 1.377 . S
C1256 C1258 1.384 . S
C1257 C1256 1.377 . S
C1257 C1263 1.390 . S
C1258 H1249 0.930 . S
C1258 C1256 1.384 . S
C1258 C1259 1.372 . S
C1259 C1258 1.372 . S
C1259 C1260 1.400 . S
C1259 C1264 1.490 . S
C1260 H1250 0.930 . S
C1260 C1259 1.400 . S
C1260 C1263 1.386 . S
H1261 C1277 0.930 . S
H1262 C1278 0.931 . S
C1263 H1251 0.929 . S
C1263 C1257 1.390 . S
C1263 C1260 1.386 . S
C1264 C1259 1.490 . S
C1264 C1266 1.395 1_655 S
C1264 C1267 1.403 . S
H1265 C1271 0.930 . S
C1266 H1252 0.930 . S
C1266 C1264 1.395 1_455 S
C1266 C1269 1.403 . S
C1267 C1264 1.403 . S
C1267 C1268 1.524 . S
C1267 C1271 1.400 . S
C1268 H1253 0.960 . S
C1268 H1254 0.960 . S
C1268 H1255 0.960 . S
C1268 C1267 1.524 . S
C1269 C1266 1.403 . S
C1269 C1270 1.392 . S
C1269 C1273 1.495 . S
C1270 C1269 1.392 . S
C1270 C1271 1.385 1_455 S
C1270 C1272 1.478 . S
C1271 H1265 0.930 . S
C1271 C1267 1.400 . S
C1271 C1270 1.385 1_655 S
C1272 C1270 1.478 . S
C1272 C1274 1.381 . S
C1272 C1278 1.383 . S
C1273 C1269 1.495 . S
C1273 H1279 0.959 . S
C1273 H1280 0.961 . S
C1273 H1281 0.960 . S
C1274 C1272 1.381 . S
C1274 C1275 1.394 . S
C1274 H1282 0.930 . S
C1275 C1274 1.394 . S
C1275 C1276 1.383 . S
C1275 H1283 0.929 . S
C1276 C1275 1.383 . S
C1276 C1277 1.377 . S
C1277 H1261 0.930 . S
C1277 C1276 1.377 . S
C1277 C1278 1.379 . S
C1278 H1262 0.931 . S
C1278 C1272 1.383 . S
C1278 C1277 1.379 . S
H1279 C1273 0.959 . S
H1280 C1273 0.961 . S
H1281 C1273 0.960 . S
H1282 C1274 0.930 . S
H1283 C1275 0.929 . S
H1284 C1292 0.929 . S
H1285 C1294 0.930 . S
H1286 C1296 0.930 . S
H1287 C1299 0.929 . S
H1288 C1302 0.930 . S
H1289 C1304 0.960 . S
H1290 C1304 0.960 . S
H1291 C1304 0.960 . S
C1292 H1284 0.929 . S
C1292 C1293 1.377 . S
C1292 C1294 1.384 . S
C1293 C1292 1.377 . S
C1293 C1299 1.390 . S
C1294 H1285 0.930 . S
C1294 C1292 1.384 . S
C1294 C1295 1.372 . S
C1295 C1294 1.372 . S
C1295 C1296 1.400 . S
C1295 C1300 1.490 . S
C1296 H1286 0.930 . S
C1296 C1295 1.400 . S
C1296 C1299 1.386 . S
H1297 C1313 0.930 . S
H1298 C1314 0.931 . S
C1299 H1287 0.929 . S
C1299 C1293 1.390 . S
C1299 C1296 1.386 . S
C1300 C1295 1.490 . S
C1300 C1302 1.395 . S
C1300 C1303 1.403 1_545 S
H1301 C1307 0.930 . S
C1302 H1288 0.930 . S
C1302 C1300 1.395 . S
C1302 C1305 1.403 . S
C1303 C1300 1.403 1_565 S
C1303 C1304 1.524 . S
C1303 C1307 1.400 . S
C1304 H1289 0.960 . S
C1304 H1290 0.960 . S
C1304 H1291 0.960 . S
C1304 C1303 1.524 . S
C1305 C1302 1.403 . S
C1305 C1306 1.392 1_545 S
C1305 C1309 1.495 . S
C1306 C1305 1.392 1_565 S
C1306 C1307 1.385 . S
C1306 C1308 1.478 . S
C1307 H1301 0.930 . S
C1307 C1303 1.400 . S
C1307 C1306 1.385 . S
C1308 C1306 1.478 . S
C1308 C1310 1.381 . S
C1308 C1314 1.383 . S
C1309 C1305 1.495 . S
C1309 H1315 0.959 . S
C1309 H1316 0.961 . S
C1309 H1317 0.960 . S
C1310 C1308 1.381 . S
C1310 C1311 1.394 . S
C1310 H1318 0.930 . S
C1311 C1310 1.394 . S
C1311 C1312 1.383 . S
C1311 H1319 0.929 . S
C1312 C1311 1.383 . S
C1312 C1313 1.377 . S
C1313 H1297 0.930 . S
C1313 C1312 1.377 . S
C1313 C1314 1.379 . S
C1314 H1298 0.931 . S
C1314 C1308 1.383 . S
C1314 C1313 1.379 . S
H1315 C1309 0.959 . S
H1316 C1309 0.961 . S
H1317 C1309 0.960 . S
H1318 C1310 0.930 . S
H1319 C1311 0.929 . S
H1320 C1328 0.929 . S
H1321 C1330 0.930 . S
H1322 C1332 0.930 . S
H1323 C1335 0.929 . S
H1324 C1338 0.930 . S
H1325 C1340 0.960 . S
H1326 C1340 0.959 . S
H1327 C1340 0.960 . S
C1328 H1320 0.929 . S
C1328 C1329 1.377 . S
C1328 C1330 1.384 . S
C1329 C1328 1.377 . S
C1329 C1335 1.390 . S
C1330 H1321 0.930 . S
C1330 C1328 1.384 . S
C1330 C1331 1.372 . S
C1331 C1330 1.372 . S
C1331 C1332 1.400 . S
C1331 C1336 1.490 . S
C1332 H1322 0.930 . S
C1332 C1331 1.400 . S
C1332 C1335 1.386 . S
H1333 C1349 0.930 . S
H1334 C1350 0.931 . S
C1335 H1323 0.929 . S
C1335 C1329 1.390 . S
C1335 C1332 1.386 . S
C1336 C1331 1.490 . S
C1336 C1338 1.395 . S
C1336 C1339 1.403 1_565 S
H1337 C1343 0.930 . S
C1338 H1324 0.930 . S
C1338 C1336 1.395 . S
C1338 C1341 1.403 . S
C1339 C1336 1.403 1_545 S
C1339 C1340 1.524 . S
C1339 C1343 1.400 . S
C1340 H1325 0.960 . S
C1340 H1326 0.959 . S
C1340 H1327 0.960 . S
C1340 C1339 1.524 . S
C1341 C1338 1.403 . S
C1341 C1342 1.392 1_565 S
C1341 C1345 1.495 . S
C1342 C1341 1.392 1_545 S
C1342 C1343 1.385 . S
C1342 C1344 1.478 . S
C1343 H1337 0.930 . S
C1343 C1339 1.400 . S
C1343 C1342 1.385 . S
C1344 C1342 1.478 . S
C1344 C1346 1.381 . S
C1344 C1350 1.383 . S
C1345 C1341 1.495 . S
C1345 H1351 0.959 . S
C1345 H1352 0.961 . S
C1345 H1353 0.960 . S
C1346 C1344 1.381 . S
C1346 C1347 1.394 . S
C1346 H1354 0.930 . S
C1347 C1346 1.394 . S
C1347 C1348 1.383 . S
C1347 H1355 0.929 . S
C1348 C1347 1.383 . S
C1348 C1349 1.377 . S
C1349 H1333 0.930 . S
C1349 C1348 1.377 . S
C1349 C1350 1.379 . S
C1350 H1334 0.931 . S
C1350 C1344 1.383 . S
C1350 C1349 1.379 . S
H1351 C1345 0.959 . S
H1352 C1345 0.961 . S
H1353 C1345 0.960 . S
H1354 C1346 0.930 . S
H1355 C1347 0.929 . S
H1356 C1364 0.929 . S
H1357 C1366 0.930 . S
H1358 C1368 0.930 . S
H1359 C1371 0.929 . S
H1360 C1374 0.930 . S
H1361 C1376 0.960 1_655 S
H1362 C1376 0.960 . S
H1363 C1376 0.960 . S
C1364 H1356 0.929 . S
C1364 C1365 1.377 . S
C1364 C1366 1.384 . S
C1365 C1364 1.377 . S
C1365 C1371 1.390 . S
C1366 H1357 0.930 . S
C1366 C1364 1.384 . S
C1366 C1367 1.372 . S
C1367 C1366 1.372 . S
C1367 C1368 1.400 . S
C1367 C1372 1.490 . S
C1368 H1358 0.930 . S
C1368 C1367 1.400 . S
C1368 C1371 1.386 . S
H1369 C1385 0.930 . S
H1370 C1386 0.931 . S
C1371 H1359 0.929 . S
C1371 C1365 1.390 . S
C1371 C1368 1.386 . S
C1372 C1367 1.490 . S
C1372 C1374 1.395 . S
C1372 C1375 1.403 . S
H1373 C1379 0.930 . S
C1374 H1360 0.930 . S
C1374 C1372 1.395 . S
C1374 C1377 1.403 1_455 S
C1375 C1372 1.403 . S
C1375 C1376 1.524 . S
C1375 C1379 1.400 1_455 S
C1376 H1361 0.960 1_455 S
C1376 H1362 0.960 . S
C1376 H1363 0.960 . S
C1376 C1375 1.524 . S
C1377 C1374 1.403 1_655 S
C1377 C1378 1.392 . S
C1377 C1381 1.495 . S
C1378 C1377 1.392 . S
C1378 C1379 1.385 . S
C1378 C1380 1.478 . S
C1379 H1373 0.930 . S
C1379 C1375 1.400 1_655 S
C1379 C1378 1.385 . S
C1380 C1378 1.478 . S
C1380 C1382 1.381 . S
C1380 C1386 1.383 . S
C1381 C1377 1.495 . S
C1381 H1387 0.959 1_655 S
C1381 H1388 0.961 . S
C1381 H1389 0.960 . S
C1382 C1380 1.381 . S
C1382 C1383 1.394 . S
C1382 H1390 0.930 . S
C1383 C1382 1.394 . S
C1383 C1384 1.383 . S
C1383 H1391 0.929 . S
C1384 C1383 1.383 . S
C1384 C1385 1.377 . S
C1385 H1369 0.930 . S
C1385 C1384 1.377 . S
C1385 C1386 1.379 . S
C1386 H1370 0.931 . S
C1386 C1380 1.383 . S
C1386 C1385 1.379 . S
H1387 C1381 0.959 1_455 S
H1388 C1381 0.961 . S
H1389 C1381 0.960 . S
H1390 C1382 0.930 . S
H1391 C1383 0.929 . S
H1392 C1400 0.929 . S
H1393 C1402 0.930 . S
H1394 C1404 0.930 . S
H1395 C1407 0.929 . S
H1396 C1410 0.930 . S
H1397 C1412 0.960 . S
H1398 C1412 0.960 . S
H1399 C1412 0.960 . S
C1400 H1392 0.929 . S
C1400 C1401 1.377 . S
C1400 C1402 1.384 . S
C1401 C1400 1.377 . S
C1401 C1407 1.390 . S
C1402 H1393 0.930 . S
C1402 C1400 1.384 . S
C1402 C1403 1.372 . S
C1403 C1402 1.372 . S
C1403 C1404 1.400 . S
C1403 C1408 1.490 . S
C1404 H1394 0.930 . S
C1404 C1403 1.400 . S
C1404 C1407 1.386 . S
H1405 C1421 0.930 . S
H1406 C1422 0.931 . S
C1407 H1395 0.929 . S
C1407 C1401 1.390 . S
C1407 C1404 1.386 . S
C1408 C1403 1.490 . S
C1408 C1410 1.395 . S
C1408 C1411 1.403 . S
H1409 C1415 0.930 . S
C1410 H1396 0.930 . S
C1410 C1408 1.395 . S
C1410 C1413 1.403 . S
C1411 C1408 1.403 . S
C1411 C1412 1.524 . S
C1411 C1415 1.400 . S
C1412 H1397 0.960 . S
C1412 H1398 0.960 . S
C1412 H1399 0.960 . S
C1412 C1411 1.524 . S
C1413 C1410 1.403 . S
C1413 C1414 1.392 . S
C1413 C1417 1.495 . S
C1414 C1413 1.392 . S
C1414 C1415 1.385 . S
C1414 C1416 1.478 . S
C1415 H1409 0.930 . S
C1415 C1411 1.400 . S
C1415 C1414 1.385 . S
C1416 C1414 1.478 . S
C1416 C1418 1.381 . S
C1416 C1422 1.383 . S
C1417 C1413 1.495 . S
C1417 H1423 0.959 . S
C1417 H1424 0.961 . S
C1417 H1425 0.960 . S
C1418 C1416 1.381 . S
C1418 C1419 1.394 . S
C1418 H1426 0.930 . S
C1419 C1418 1.394 . S
C1419 C1420 1.383 . S
C1419 H1427 0.929 . S
C1420 C1419 1.383 . S
C1420 C1421 1.377 . S
C1421 H1405 0.930 . S
C1421 C1420 1.377 . S
C1421 C1422 1.379 . S
C1422 H1406 0.931 . S
C1422 C1416 1.383 . S
C1422 C1421 1.379 . S
H1423 C1417 0.959 . S
H1424 C1417 0.961 . S
H1425 C1417 0.960 . S
H1426 C1418 0.930 . S
H1427 C1419 0.929 . S
H1428 C1436 0.929 . S
H1429 C1438 0.930 . S
H1430 C1440 0.930 . S
H1431 C1443 0.929 . S
H1432 C1446 0.930 . S
H1433 C1448 0.960 . S
H1434 C1448 0.960 . S
H1435 C1448 0.960 . S
C1436 H1428 0.929 . S
C1436 C1437 1.377 . S
C1436 C1438 1.384 . S
C1437 C1436 1.377 . S
C1437 C1443 1.390 . S
C1438 H1429 0.930 . S
C1438 C1436 1.384 . S
C1438 C1439 1.372 . S
C1439 C1438 1.372 . S
C1439 C1440 1.400 . S
C1439 C1444 1.490 . S
C1440 H1430 0.930 . S
C1440 C1439 1.400 . S
C1440 C1443 1.386 . S
H1441 C1457 0.930 . S
H1442 C1458 0.931 . S
C1443 H1431 0.929 . S
C1443 C1437 1.390 . S
C1443 C1440 1.386 . S
C1444 C1439 1.490 . S
C1444 C1446 1.395 . S
C1444 C1447 1.403 . S
H1445 C1451 0.930 . S
C1446 H1432 0.930 . S
C1446 C1444 1.395 . S
C1446 C1449 1.403 . S
C1447 C1444 1.403 . S
C1447 C1448 1.524 . S
C1447 C1451 1.400 . S
C1448 H1433 0.960 . S
C1448 H1434 0.960 . S
C1448 H1435 0.960 . S
C1448 C1447 1.524 . S
C1449 C1446 1.403 . S
C1449 C1450 1.392 . S
C1449 C1453 1.495 . S
C1450 C1449 1.392 . S
C1450 C1451 1.385 . S
C1450 C1452 1.478 . S
C1451 H1445 0.930 . S
C1451 C1447 1.400 . S
C1451 C1450 1.385 . S
C1452 C1450 1.478 . S
C1452 C1454 1.381 . S
C1452 C1458 1.383 . S
C1453 C1449 1.495 . S
C1453 H1459 0.959 . S
C1453 H1460 0.961 . S
C1453 H1461 0.960 . S
C1454 C1452 1.381 . S
C1454 C1455 1.394 . S
C1454 H1462 0.930 . S
C1455 C1454 1.394 . S
C1455 C1456 1.383 . S
C1455 H1463 0.929 . S
C1456 C1455 1.383 . S
C1456 C1457 1.377 . S
C1457 H1441 0.930 . S
C1457 C1456 1.377 . S
C1457 C1458 1.379 . S
C1458 H1442 0.931 . S
C1458 C1452 1.383 . S
C1458 C1457 1.379 . S
H1459 C1453 0.959 . S
H1460 C1453 0.961 . S
H1461 C1453 0.960 . S
H1462 C1454 0.930 . S
H1463 C1455 0.929 . S
H1464 C1472 0.929 . S
H1465 C1474 0.930 . S
H1466 C1476 0.930 . S
H1467 C1479 0.929 . S
H1468 C1482 0.930 . S
H1469 C1484 0.960 . S
H1470 C1484 0.960 . S
H1471 C1484 0.960 . S
C1472 H1464 0.929 . S
C1472 C1473 1.377 . S
C1472 C1474 1.384 . S
C1473 C1472 1.377 . S
C1473 C1479 1.390 . S
C1474 H1465 0.930 . S
C1474 C1472 1.384 . S
C1474 C1475 1.372 . S
C1475 C1474 1.372 . S
C1475 C1476 1.400 . S
C1475 C1480 1.490 . S
C1476 H1466 0.930 . S
C1476 C1475 1.400 . S
C1476 C1479 1.386 . S
H1477 C1493 0.930 . S
H1478 C1494 0.931 . S
C1479 H1467 0.929 . S
C1479 C1473 1.390 . S
C1479 C1476 1.386 . S
C1480 C1475 1.490 . S
C1480 C1482 1.395 . S
C1480 C1483 1.403 . S
H1481 C1487 0.930 . S
C1482 H1468 0.930 . S
C1482 C1480 1.395 . S
C1482 C1485 1.403 . S
C1483 C1480 1.403 . S
C1483 C1484 1.524 . S
C1483 C1487 1.400 . S
C1484 H1469 0.960 . S
C1484 H1470 0.960 . S
C1484 H1471 0.960 . S
C1484 C1483 1.524 . S
C1485 C1482 1.403 . S
C1485 C1486 1.392 . S
C1485 C1489 1.495 . S
C1486 C1485 1.392 . S
C1486 C1487 1.385 . S
C1486 C1488 1.478 . S
C1487 H1481 0.930 . S
C1487 C1483 1.400 . S
C1487 C1486 1.385 . S
C1488 C1486 1.478 . S
C1488 C1490 1.381 . S
C1488 C1494 1.383 . S
C1489 C1485 1.495 . S
C1489 H1495 0.959 . S
C1489 H1496 0.961 . S
C1489 H1497 0.960 . S
C1490 C1488 1.381 . S
C1490 C1491 1.394 . S
C1490 H1498 0.930 . S
C1491 C1490 1.394 . S
C1491 C1492 1.383 . S
C1491 H1499 0.929 . S
C1492 C1491 1.383 . S
C1492 C1493 1.377 . S
C1493 H1477 0.930 . S
C1493 C1492 1.377 . S
C1493 C1494 1.379 . S
C1494 H1478 0.931 . S
C1494 C1488 1.383 . S
C1494 C1493 1.379 . S
H1495 C1489 0.959 . S
H1496 C1489 0.961 . S
H1497 C1489 0.960 . S
H1498 C1490 0.930 . S
H1499 C1491 0.929 . S
H1500 C1508 0.929 . S
H1501 C1510 0.930 . S
H1502 C1512 0.930 . S
H1503 C1515 0.929 . S
H1504 C1518 0.930 . S
H1505 C1520 0.960 . S
H1506 C1520 0.960 . S
H1507 C1520 0.960 . S
C1508 H1500 0.929 . S
C1508 C1509 1.377 . S
C1508 C1510 1.384 . S
C1509 C1508 1.377 . S
C1509 C1515 1.390 . S
C1510 H1501 0.930 . S
C1510 C1508 1.384 . S
C1510 C1511 1.372 . S
C1511 C1510 1.372 . S
C1511 C1512 1.400 . S
C1511 C1516 1.490 . S
C1512 H1502 0.930 . S
C1512 C1511 1.400 . S
C1512 C1515 1.386 . S
H1513 C1529 0.930 . S
H1514 C1530 0.931 . S
C1515 H1503 0.929 . S
C1515 C1509 1.390 . S
C1515 C1512 1.386 . S
C1516 C1511 1.490 . S
C1516 C1518 1.395 . S
C1516 C1519 1.403 . S
H1517 C1523 0.930 . S
C1518 H1504 0.930 . S
C1518 C1516 1.395 . S
C1518 C1521 1.403 . S
C1519 C1516 1.403 . S
C1519 C1520 1.524 . S
C1519 C1523 1.400 . S
C1520 H1505 0.960 . S
C1520 H1506 0.960 . S
C1520 H1507 0.960 . S
C1520 C1519 1.524 . S
C1521 C1518 1.403 . S
C1521 C1522 1.392 . S
C1521 C1525 1.495 . S
C1522 C1521 1.392 . S
C1522 C1523 1.385 . S
C1522 C1524 1.478 . S
C1523 H1517 0.930 . S
C1523 C1519 1.400 . S
C1523 C1522 1.385 . S
C1524 C1522 1.478 . S
C1524 C1526 1.381 . S
C1524 C1530 1.383 . S
C1525 C1521 1.495 . S
C1525 H1531 0.959 . S
C1525 H1532 0.961 . S
C1525 H1533 0.960 . S
C1526 C1524 1.381 . S
C1526 C1527 1.394 . S
C1526 H1534 0.930 . S
C1527 C1526 1.394 . S
C1527 C1528 1.383 . S
C1527 H1535 0.929 . S
C1528 C1527 1.383 . S
C1528 C1529 1.377 . S
C1529 H1513 0.930 . S
C1529 C1528 1.377 . S
C1529 C1530 1.379 . S
C1530 H1514 0.931 . S
C1530 C1524 1.383 . S
C1530 C1529 1.379 . S
H1531 C1525 0.959 . S
H1532 C1525 0.961 . S
H1533 C1525 0.960 . S
H1534 C1526 0.930 . S
H1535 C1527 0.929 . S
H1536 C1544 0.929 . S
H1537 C1546 0.930 . S
H1538 C1548 0.930 . S
H1539 C1551 0.929 . S
H1540 C1554 0.930 . S
H1541 C1556 0.960 . S
H1542 C1556 0.960 . S
H1543 C1556 0.960 . S
C1544 H1536 0.929 . S
C1544 C1545 1.377 . S
C1544 C1546 1.384 . S
C1545 C1544 1.377 . S
C1545 C1551 1.390 . S
C1546 H1537 0.930 . S
C1546 C1544 1.384 . S
C1546 C1547 1.372 . S
C1547 C1546 1.372 . S
C1547 C1548 1.400 . S
C1547 C1552 1.490 . S
C1548 H1538 0.930 . S
C1548 C1547 1.400 . S
C1548 C1551 1.386 . S
H1549 C1565 0.930 . S
H1550 C1566 0.931 . S
C1551 H1539 0.929 . S
C1551 C1545 1.390 . S
C1551 C1548 1.386 . S
C1552 C1547 1.490 . S
C1552 C1554 1.395 . S
C1552 C1555 1.403 . S
H1553 C1559 0.930 . S
C1554 H1540 0.930 . S
C1554 C1552 1.395 . S
C1554 C1557 1.403 . S
C1555 C1552 1.403 . S
C1555 C1556 1.524 . S
C1555 C1559 1.400 . S
C1556 H1541 0.960 . S
C1556 H1542 0.960 . S
C1556 H1543 0.960 . S
C1556 C1555 1.524 . S
C1557 C1554 1.403 . S
C1557 C1558 1.392 . S
C1557 C1561 1.495 . S
C1558 C1557 1.392 . S
C1558 C1559 1.385 . S
C1558 C1560 1.478 . S
C1559 H1553 0.930 . S
C1559 C1555 1.400 . S
C1559 C1558 1.385 . S
C1560 C1558 1.478 . S
C1560 C1562 1.381 . S
C1560 C1566 1.383 . S
C1561 C1557 1.495 . S
C1561 H1567 0.959 . S
C1561 H1568 0.961 . S
C1561 H1569 0.960 . S
C1562 C1560 1.381 . S
C1562 C1563 1.394 . S
C1562 H1570 0.930 . S
C1563 C1562 1.394 . S
C1563 C1564 1.383 . S
C1563 H1571 0.929 . S
C1564 C1563 1.383 . S
C1564 C1565 1.377 . S
C1565 H1549 0.930 . S
C1565 C1564 1.377 . S
C1565 C1566 1.379 . S
C1566 H1550 0.931 . S
C1566 C1560 1.383 . S
C1566 C1565 1.379 . S
H1567 C1561 0.959 . S
H1568 C1561 0.961 . S
H1569 C1561 0.960 . S
H1570 C1562 0.930 . S
H1571 C1563 0.929 . S
H1572 C1580 0.929 . S
H1573 C1582 0.930 . S
H1574 C1584 0.930 . S
H1575 C1587 0.929 . S
H1576 C1590 0.930 . S
H1577 C1592 0.960 . S
H1578 C1592 0.960 . S
H1579 C1592 0.960 . S
C1580 H1572 0.929 . S
C1580 C1581 1.377 . S
C1580 C1582 1.384 . S
C1581 C1580 1.377 . S
C1581 C1587 1.390 . S
C1582 H1573 0.930 . S
C1582 C1580 1.384 . S
C1582 C1583 1.372 . S
C1583 C1582 1.372 . S
C1583 C1584 1.400 . S
C1583 C1588 1.490 . S
C1584 H1574 0.930 . S
C1584 C1583 1.400 . S
C1584 C1587 1.386 . S
H1585 C1601 0.930 . S
H1586 C1602 0.931 . S
C1587 H1575 0.929 . S
C1587 C1581 1.390 . S
C1587 C1584 1.386 . S
C1588 C1583 1.490 . S
C1588 C1590 1.395 . S
C1588 C1591 1.403 . S
H1589 C1595 0.930 . S
C1590 H1576 0.930 . S
C1590 C1588 1.395 . S
C1590 C1593 1.403 . S
C1591 C1588 1.403 . S
C1591 C1592 1.524 . S
C1591 C1595 1.400 . S
C1592 H1577 0.960 . S
C1592 H1578 0.960 . S
C1592 H1579 0.960 . S
C1592 C1591 1.524 . S
C1593 C1590 1.403 . S
C1593 C1594 1.392 . S
C1593 C1597 1.495 . S
C1594 C1593 1.392 . S
C1594 C1595 1.385 . S
C1594 C1596 1.478 . S
C1595 H1589 0.930 . S
C1595 C1591 1.400 . S
C1595 C1594 1.385 . S
C1596 C1594 1.478 . S
C1596 C1598 1.381 . S
C1596 C1602 1.383 . S
C1597 C1593 1.495 . S
C1597 H1603 0.959 . S
C1597 H1604 0.961 . S
C1597 H1605 0.960 . S
C1598 C1596 1.381 . S
C1598 C1599 1.394 . S
C1598 H1606 0.930 . S
C1599 C1598 1.394 . S
C1599 C1600 1.383 . S
C1599 H1607 0.929 . S
C1600 C1599 1.383 . S
C1600 C1601 1.377 . S
C1601 H1585 0.930 . S
C1601 C1600 1.377 . S
C1601 C1602 1.379 . S
C1602 H1586 0.931 . S
C1602 C1596 1.383 . S
C1602 C1601 1.379 . S
H1603 C1597 0.959 . S
H1604 C1597 0.961 . S
H1605 C1597 0.960 . S
H1606 C1598 0.930 . S
H1607 C1599 0.929 . S
H1608 C1616 0.929 . S
H1609 C1618 0.930 . S
H1610 C1620 0.930 . S
H1611 C1623 0.929 . S
H1612 C1626 0.930 . S
H1613 C1628 0.960 . S
H1614 C1628 0.960 . S
H1615 C1628 0.960 . S
C1616 H1608 0.929 . S
C1616 C1617 1.377 . S
C1616 C1618 1.384 . S
C1617 C1616 1.377 . S
C1617 C1623 1.390 . S
C1618 H1609 0.930 . S
C1618 C1616 1.384 . S
C1618 C1619 1.372 . S
C1619 C1618 1.372 . S
C1619 C1620 1.400 . S
C1619 C1624 1.490 . S
C1620 H1610 0.930 . S
C1620 C1619 1.400 . S
C1620 C1623 1.386 . S
H1621 C1637 0.930 . S
H1622 C1638 0.931 . S
C1623 H1611 0.929 . S
C1623 C1617 1.390 . S
C1623 C1620 1.386 . S
C1624 C1619 1.490 . S
C1624 C1626 1.395 . S
C1624 C1627 1.403 . S
H1625 C1631 0.930 . S
C1626 H1612 0.930 . S
C1626 C1624 1.395 . S
C1626 C1629 1.403 . S
C1627 C1624 1.403 . S
C1627 C1628 1.524 . S
C1627 C1631 1.400 . S
C1628 H1613 0.960 . S
C1628 H1614 0.960 . S
C1628 H1615 0.960 . S
C1628 C1627 1.524 . S
C1629 C1626 1.403 . S
C1629 C1630 1.392 . S
C1629 C1633 1.495 . S
C1630 C1629 1.392 . S
C1630 C1631 1.385 . S
C1630 C1632 1.478 . S
C1631 H1625 0.930 . S
C1631 C1627 1.400 . S
C1631 C1630 1.385 . S
C1632 C1630 1.478 . S
C1632 C1634 1.381 . S
C1632 C1638 1.383 . S
C1633 C1629 1.495 . S
C1633 H1639 0.959 . S
C1633 H1640 0.961 . S
C1633 H1641 0.960 . S
C1634 C1632 1.381 . S
C1634 C1635 1.394 . S
C1634 H1642 0.930 . S
C1635 C1634 1.394 . S
C1635 C1636 1.383 . S
C1635 H1643 0.929 . S
C1636 C1635 1.383 . S
C1636 C1637 1.377 . S
C1637 H1621 0.930 . S
C1637 C1636 1.377 . S
C1637 C1638 1.379 . S
C1638 H1622 0.931 . S
C1638 C1632 1.383 . S
C1638 C1637 1.379 . S
H1639 C1633 0.959 . S
H1640 C1633 0.961 . S
H1641 C1633 0.960 . S
H1642 C1634 0.930 . S
H1643 C1635 0.929 . S
H1644 C1652 0.929 . S
H1645 C1654 0.930 . S
H1646 C1656 0.930 . S
H1647 C1659 0.929 . S
H1648 C1662 0.930 . S
H1649 C1664 0.960 . S
H1650 C1664 0.960 . S
H1651 C1664 0.960 . S
C1652 H1644 0.929 . S
C1652 C1653 1.377 . S
C1652 C1654 1.384 . S
C1653 C1652 1.377 . S
C1653 C1659 1.390 . S
C1654 H1645 0.930 . S
C1654 C1652 1.384 . S
C1654 C1655 1.372 . S
C1655 C1654 1.372 . S
C1655 C1656 1.400 . S
C1655 C1660 1.490 . S
C1656 H1646 0.930 . S
C1656 C1655 1.400 . S
C1656 C1659 1.386 . S
H1657 C1673 0.930 . S
H1658 C1674 0.931 . S
C1659 H1647 0.929 . S
C1659 C1653 1.390 . S
C1659 C1656 1.386 . S
C1660 C1655 1.490 . S
C1660 C1662 1.395 . S
C1660 C1663 1.403 . S
H1661 C1667 0.930 . S
C1662 H1648 0.930 . S
C1662 C1660 1.395 . S
C1662 C1665 1.403 . S
C1663 C1660 1.403 . S
C1663 C1664 1.524 . S
C1663 C1667 1.400 . S
C1664 H1649 0.960 . S
C1664 H1650 0.960 . S
C1664 H1651 0.960 . S
C1664 C1663 1.524 . S
C1665 C1662 1.403 . S
C1665 C1666 1.392 . S
C1665 C1669 1.495 . S
C1666 C1665 1.392 . S
C1666 C1667 1.385 . S
C1666 C1668 1.478 . S
C1667 H1661 0.930 . S
C1667 C1663 1.400 . S
C1667 C1666 1.385 . S
C1668 C1666 1.478 . S
C1668 C1670 1.381 . S
C1668 C1674 1.383 . S
C1669 C1665 1.495 . S
C1669 H1675 0.959 . S
C1669 H1676 0.961 . S
C1669 H1677 0.960 . S
C1670 C1668 1.381 . S
C1670 C1671 1.394 . S
C1670 H1678 0.930 . S
C1671 C1670 1.394 . S
C1671 C1672 1.383 . S
C1671 H1679 0.929 . S
C1672 C1671 1.383 . S
C1672 C1673 1.377 . S
C1673 H1657 0.930 . S
C1673 C1672 1.377 . S
C1673 C1674 1.379 . S
C1674 H1658 0.931 . S
C1674 C1668 1.383 . S
C1674 C1673 1.379 . S
H1675 C1669 0.959 . S
H1676 C1669 0.961 . S
H1677 C1669 0.960 . S
H1678 C1670 0.930 . S
H1679 C1671 0.929 . S
H1680 C1688 0.929 . S
H1681 C1690 0.930 . S
H1682 C1692 0.930 . S
H1683 C1695 0.929 . S
H1684 C1698 0.930 . S
H1685 C1700 0.960 . S
H1686 C1700 0.960 . S
H1687 C1700 0.960 . S
C1688 H1680 0.929 . S
C1688 C1689 1.377 . S
C1688 C1690 1.384 . S
C1689 C1688 1.377 . S
C1689 C1695 1.390 . S
C1690 H1681 0.930 . S
C1690 C1688 1.384 . S
C1690 C1691 1.372 . S
C1691 C1690 1.372 . S
C1691 C1692 1.400 . S
C1691 C1696 1.490 . S
C1692 H1682 0.930 . S
C1692 C1691 1.400 . S
C1692 C1695 1.386 . S
H1693 C1709 0.930 . S
H1694 C1710 0.931 . S
C1695 H1683 0.929 . S
C1695 C1689 1.390 . S
C1695 C1692 1.386 . S
C1696 C1691 1.490 . S
C1696 C1698 1.395 . S
C1696 C1699 1.403 . S
H1697 C1703 0.930 . S
C1698 H1684 0.930 . S
C1698 C1696 1.395 . S
C1698 C1701 1.403 . S
C1699 C1696 1.403 . S
C1699 C1700 1.524 . S
C1699 C1703 1.400 . S
C1700 H1685 0.960 . S
C1700 H1686 0.960 . S
C1700 H1687 0.960 . S
C1700 C1699 1.524 . S
C1701 C1698 1.403 . S
C1701 C1702 1.392 . S
C1701 C1705 1.495 . S
C1702 C1701 1.392 . S
C1702 C1703 1.385 . S
C1702 C1704 1.478 . S
C1703 H1697 0.930 . S
C1703 C1699 1.400 . S
C1703 C1702 1.385 . S
C1704 C1702 1.478 . S
C1704 C1706 1.381 . S
C1704 C1710 1.383 . S
C1705 C1701 1.495 . S
C1705 H1711 0.959 . S
C1705 H1712 0.961 . S
C1705 H1713 0.960 . S
C1706 C1704 1.381 . S
C1706 C1707 1.394 . S
C1706 H1714 0.930 . S
C1707 C1706 1.394 . S
C1707 C1708 1.383 . S
C1707 H1715 0.929 . S
C1708 C1707 1.383 . S
C1708 C1709 1.377 . S
C1709 H1693 0.930 . S
C1709 C1708 1.377 . S
C1709 C1710 1.379 . S
C1710 H1694 0.931 . S
C1710 C1704 1.383 . S
C1710 C1709 1.379 . S
H1711 C1705 0.959 . S
H1712 C1705 0.961 . S
H1713 C1705 0.960 . S
H1714 C1706 0.930 . S
H1715 C1707 0.929 . S
H1716 C1724 0.929 . S
H1717 C1726 0.930 . S
H1718 C1728 0.930 . S
H1719 C1731 0.929 . S
H1720 C1734 0.930 . S
H1721 C1736 0.960 . S
H1722 C1736 0.960 . S
H1723 C1736 0.960 . S
C1724 H1716 0.929 . S
C1724 C1725 1.377 . S
C1724 C1726 1.384 . S
C1725 C1724 1.377 . S
C1725 C1731 1.390 . S
C1726 H1717 0.930 . S
C1726 C1724 1.384 . S
C1726 C1727 1.372 . S
C1727 C1726 1.372 . S
C1727 C1728 1.400 . S
C1727 C1732 1.490 . S
C1728 H1718 0.930 . S
C1728 C1727 1.400 . S
C1728 C1731 1.386 . S
H1729 C1745 0.930 . S
H1730 C1746 0.931 . S
C1731 H1719 0.929 . S
C1731 C1725 1.390 . S
C1731 C1728 1.386 . S
C1732 C1727 1.490 . S
C1732 C1734 1.395 . S
C1732 C1735 1.403 . S
H1733 C1739 0.930 . S
C1734 H1720 0.930 . S
C1734 C1732 1.395 . S
C1734 C1737 1.403 . S
C1735 C1732 1.403 . S
C1735 C1736 1.524 . S
C1735 C1739 1.400 . S
C1736 H1721 0.960 . S
C1736 H1722 0.960 . S
C1736 H1723 0.960 . S
C1736 C1735 1.524 . S
C1737 C1734 1.403 . S
C1737 C1738 1.392 . S
C1737 C1741 1.495 . S
C1738 C1737 1.392 . S
C1738 C1739 1.385 . S
C1738 C1740 1.478 . S
C1739 H1733 0.930 . S
C1739 C1735 1.400 . S
C1739 C1738 1.385 . S
C1740 C1738 1.478 . S
C1740 C1742 1.381 . S
C1740 C1746 1.383 . S
C1741 C1737 1.495 . S
C1741 H1747 0.959 . S
C1741 H1748 0.961 . S
C1741 H1749 0.960 . S
C1742 C1740 1.381 . S
C1742 C1743 1.394 . S
C1742 H1750 0.930 . S
C1743 C1742 1.394 . S
C1743 C1744 1.383 . S
C1743 H1751 0.929 . S
C1744 C1743 1.383 . S
C1744 C1745 1.377 . S
C1745 H1729 0.930 . S
C1745 C1744 1.377 . S
C1745 C1746 1.379 . S
C1746 H1730 0.931 . S
C1746 C1740 1.383 . S
C1746 C1745 1.379 . S
H1747 C1741 0.959 . S
H1748 C1741 0.961 . S
H1749 C1741 0.960 . S
H1750 C1742 0.930 . S
H1751 C1743 0.929 . S
H1752 C1760 0.929 . S
H1753 C1762 0.930 . S
H1754 C1764 0.930 . S
H1755 C1767 0.929 . S
H1756 C1770 0.930 . S
H1757 C1772 0.960 . S
H1758 C1772 0.960 . S
H1759 C1772 0.960 . S
C1760 H1752 0.929 . S
C1760 C1761 1.377 . S
C1760 C1762 1.384 . S
C1761 C1760 1.377 . S
C1761 C1767 1.390 . S
C1762 H1753 0.930 . S
C1762 C1760 1.384 . S
C1762 C1763 1.372 . S
C1763 C1762 1.372 . S
C1763 C1764 1.400 . S
C1763 C1768 1.490 . S
C1764 H1754 0.930 . S
C1764 C1763 1.400 . S
C1764 C1767 1.386 . S
H1765 C1781 0.930 . S
H1766 C1782 0.931 . S
C1767 H1755 0.929 . S
C1767 C1761 1.390 . S
C1767 C1764 1.386 . S
C1768 C1763 1.490 . S
C1768 C1770 1.395 . S
C1768 C1771 1.403 . S
H1769 C1775 0.930 . S
C1770 H1756 0.930 . S
C1770 C1768 1.395 . S
C1770 C1773 1.403 . S
C1771 C1768 1.403 . S
C1771 C1772 1.524 . S
C1771 C1775 1.400 . S
C1772 H1757 0.960 . S
C1772 H1758 0.960 . S
C1772 H1759 0.960 . S
C1772 C1771 1.524 . S
C1773 C1770 1.403 . S
C1773 C1774 1.392 . S
C1773 C1777 1.495 . S
C1774 C1773 1.392 . S
C1774 C1775 1.385 . S
C1774 C1776 1.478 . S
C1775 H1769 0.930 . S
C1775 C1771 1.400 . S
C1775 C1774 1.385 . S
C1776 C1774 1.478 . S
C1776 C1778 1.381 . S
C1776 C1782 1.383 . S
C1777 C1773 1.495 . S
C1777 H1783 0.959 . S
C1777 H1784 0.961 . S
C1777 H1785 0.960 . S
C1778 C1776 1.381 . S
C1778 C1779 1.394 . S
C1778 H1786 0.930 . S
C1779 C1778 1.394 . S
C1779 C1780 1.383 . S
C1779 H1787 0.929 . S
C1780 C1779 1.383 . S
C1780 C1781 1.377 . S
C1781 H1765 0.930 . S
C1781 C1780 1.377 . S
C1781 C1782 1.379 . S
C1782 H1766 0.931 . S
C1782 C1776 1.383 . S
C1782 C1781 1.379 . S
H1783 C1777 0.959 . S
H1784 C1777 0.961 . S
H1785 C1777 0.960 . S
H1786 C1778 0.930 . S
H1787 C1779 0.929 . S
H1788 C1796 0.929 . S
H1789 C1798 0.930 . S
H1790 C1800 0.930 . S
H1791 C1803 0.929 . S
H1792 C1806 0.930 . S
H1793 C1808 0.960 . S
H1794 C1808 0.960 . S
H1795 C1808 0.960 . S
C1796 H1788 0.929 . S
C1796 C1797 1.377 . S
C1796 C1798 1.384 . S
C1797 C1796 1.377 . S
C1797 C1803 1.390 . S
C1798 H1789 0.930 . S
C1798 C1796 1.384 . S
C1798 C1799 1.372 . S
C1799 C1798 1.372 . S
C1799 C1800 1.400 . S
C1799 C1804 1.490 . S
C1800 H1790 0.930 . S
C1800 C1799 1.400 . S
C1800 C1803 1.386 . S
H1801 C1817 0.930 . S
H1802 C1818 0.931 . S
C1803 H1791 0.929 . S
C1803 C1797 1.390 . S
C1803 C1800 1.386 . S
C1804 C1799 1.490 . S
C1804 C1806 1.395 . S
C1804 C1807 1.403 . S
H1805 C1811 0.930 . S
C1806 H1792 0.930 . S
C1806 C1804 1.395 . S
C1806 C1809 1.403 . S
C1807 C1804 1.403 . S
C1807 C1808 1.524 . S
C1807 C1811 1.400 . S
C1808 H1793 0.960 . S
C1808 H1794 0.960 . S
C1808 H1795 0.960 . S
C1808 C1807 1.524 . S
C1809 C1806 1.403 . S
C1809 C1810 1.392 . S
C1809 C1813 1.495 . S
C1810 C1809 1.392 . S
C1810 C1811 1.385 . S
C1810 C1812 1.478 . S
C1811 H1805 0.930 . S
C1811 C1807 1.400 . S
C1811 C1810 1.385 . S
C1812 C1810 1.478 . S
C1812 C1814 1.381 . S
C1812 C1818 1.383 . S
C1813 C1809 1.495 . S
C1813 H1819 0.959 . S
C1813 H1820 0.961 . S
C1813 H1821 0.960 . S
C1814 C1812 1.381 . S
C1814 C1815 1.394 . S
C1814 H1822 0.930 . S
C1815 C1814 1.394 . S
C1815 C1816 1.383 . S
C1815 H1823 0.929 . S
C1816 C1815 1.383 . S
C1816 C1817 1.377 . S
C1817 H1801 0.930 . S
C1817 C1816 1.377 . S
C1817 C1818 1.379 . S
C1818 H1802 0.931 . S
C1818 C1812 1.383 . S
C1818 C1817 1.379 . S
H1819 C1813 0.959 . S
H1820 C1813 0.961 . S
H1821 C1813 0.960 . S
H1822 C1814 0.930 . S
H1823 C1815 0.929 . S
H1824 C1832 0.929 . S
H1825 C1834 0.930 . S
H1826 C1836 0.930 . S
H1827 C1839 0.929 . S
H1828 C1842 0.930 . S
H1829 C1844 0.960 . S
H1830 C1844 0.960 . S
H1831 C1844 0.960 . S
C1832 H1824 0.929 . S
C1832 C1833 1.377 . S
C1832 C1834 1.384 . S
C1833 C1832 1.377 . S
C1833 C1839 1.390 . S
C1834 H1825 0.930 . S
C1834 C1832 1.384 . S
C1834 C1835 1.372 . S
C1835 C1834 1.372 . S
C1835 C1836 1.400 . S
C1835 C1840 1.490 . S
C1836 H1826 0.930 . S
C1836 C1835 1.400 . S
C1836 C1839 1.386 . S
H1837 C1853 0.930 . S
H1838 C1854 0.931 . S
C1839 H1827 0.929 . S
C1839 C1833 1.390 . S
C1839 C1836 1.386 . S
C1840 C1835 1.490 . S
C1840 C1842 1.395 . S
C1840 C1843 1.403 . S
H1841 C1847 0.930 . S
C1842 H1828 0.930 . S
C1842 C1840 1.395 . S
C1842 C1845 1.403 . S
C1843 C1840 1.403 . S
C1843 C1844 1.524 . S
C1843 C1847 1.400 . S
C1844 H1829 0.960 . S
C1844 H1830 0.960 . S
C1844 H1831 0.960 . S
C1844 C1843 1.524 . S
C1845 C1842 1.403 . S
C1845 C1846 1.392 . S
C1845 C1849 1.495 . S
C1846 C1845 1.392 . S
C1846 C1847 1.385 . S
C1846 C1848 1.478 . S
C1847 H1841 0.930 . S
C1847 C1843 1.400 . S
C1847 C1846 1.385 . S
C1848 C1846 1.478 . S
C1848 C1850 1.381 . S
C1848 C1854 1.383 . S
C1849 C1845 1.495 . S
C1849 H1855 0.959 . S
C1849 H1856 0.961 . S
C1849 H1857 0.960 . S
C1850 C1848 1.381 . S
C1850 C1851 1.394 . S
C1850 H1858 0.930 . S
C1851 C1850 1.394 . S
C1851 C1852 1.383 . S
C1851 H1859 0.929 . S
C1852 C1851 1.383 . S
C1852 C1853 1.377 . S
C1853 H1837 0.930 . S
C1853 C1852 1.377 . S
C1853 C1854 1.379 . S
C1854 H1838 0.931 . S
C1854 C1848 1.383 . S
C1854 C1853 1.379 . S
H1855 C1849 0.959 . S
H1856 C1849 0.961 . S
H1857 C1849 0.960 . S
H1858 C1850 0.930 . S
H1859 C1851 0.929 . S
H1860 C1868 0.929 . S
H1861 C1870 0.930 . S
H1862 C1872 0.930 . S
H1863 C1875 0.929 . S
H1864 C1878 0.930 . S
H1865 C1880 0.960 . S
H1866 C1880 0.960 . S
H1867 C1880 0.960 . S
C1868 H1860 0.929 . S
C1868 C1869 1.377 . S
C1868 C1870 1.384 . S
C1869 C1868 1.377 . S
C1869 C1875 1.390 . S
C1870 H1861 0.930 . S
C1870 C1868 1.384 . S
C1870 C1871 1.372 . S
C1871 C1870 1.372 . S
C1871 C1872 1.400 . S
C1871 C1876 1.490 . S
C1872 H1862 0.930 . S
C1872 C1871 1.400 . S
C1872 C1875 1.386 . S
H1873 C1889 0.930 . S
H1874 C1890 0.931 . S
C1875 H1863 0.929 . S
C1875 C1869 1.390 . S
C1875 C1872 1.386 . S
C1876 C1871 1.490 . S
C1876 C1878 1.395 . S
C1876 C1879 1.403 . S
H1877 C1883 0.930 . S
C1878 H1864 0.930 . S
C1878 C1876 1.395 . S
C1878 C1881 1.403 . S
C1879 C1876 1.403 . S
C1879 C1880 1.524 . S
C1879 C1883 1.400 . S
C1880 H1865 0.960 . S
C1880 H1866 0.960 . S
C1880 H1867 0.960 . S
C1880 C1879 1.524 . S
C1881 C1878 1.403 . S
C1881 C1882 1.392 . S
C1881 C1885 1.495 . S
C1882 C1881 1.392 . S
C1882 C1883 1.385 . S
C1882 C1884 1.478 . S
C1883 H1877 0.930 . S
C1883 C1879 1.400 . S
C1883 C1882 1.385 . S
C1884 C1882 1.478 . S
C1884 C1886 1.381 . S
C1884 C1890 1.383 . S
C1885 C1881 1.495 . S
C1885 H1891 0.959 . S
C1885 H1892 0.961 . S
C1885 H1893 0.960 . S
C1886 C1884 1.381 . S
C1886 C1887 1.394 . S
C1886 H1894 0.930 . S
C1887 C1886 1.394 . S
C1887 C1888 1.383 . S
C1887 H1895 0.929 . S
C1888 C1887 1.383 . S
C1888 C1889 1.377 . S
C1889 H1873 0.930 . S
C1889 C1888 1.377 . S
C1889 C1890 1.379 . S
C1890 H1874 0.931 . S
C1890 C1884 1.383 . S
C1890 C1889 1.379 . S
H1891 C1885 0.959 . S
H1892 C1885 0.961 . S
H1893 C1885 0.960 . S
H1894 C1886 0.930 . S
H1895 C1887 0.929 . S
H1896 C1904 0.929 . S
H1897 C1906 0.930 . S
H1898 C1908 0.930 . S
H1899 C1911 0.929 . S
H1900 C1914 0.930 . S
H1901 C1916 0.960 . S
H1902 C1916 0.960 . S
H1903 C1916 0.960 . S
C1904 H1896 0.929 . S
C1904 C1905 1.377 . S
C1904 C1906 1.384 . S
C1905 C1904 1.377 . S
C1905 C1911 1.390 . S
C1906 H1897 0.930 . S
C1906 C1904 1.384 . S
C1906 C1907 1.372 . S
C1907 C1906 1.372 . S
C1907 C1908 1.400 . S
C1907 C1912 1.490 . S
C1908 H1898 0.930 . S
C1908 C1907 1.400 . S
C1908 C1911 1.386 . S
H1909 C1925 0.930 . S
H1910 C1926 0.931 . S
C1911 H1899 0.929 . S
C1911 C1905 1.390 . S
C1911 C1908 1.386 . S
C1912 C1907 1.490 . S
C1912 C1914 1.395 . S
C1912 C1915 1.403 . S
H1913 C1919 0.930 . S
C1914 H1900 0.930 . S
C1914 C1912 1.395 . S
C1914 C1917 1.403 . S
C1915 C1912 1.403 . S
C1915 C1916 1.524 . S
C1915 C1919 1.400 . S
C1916 H1901 0.960 . S
C1916 H1902 0.960 . S
C1916 H1903 0.960 . S
C1916 C1915 1.524 . S
C1917 C1914 1.403 . S
C1917 C1918 1.392 . S
C1917 C1921 1.495 . S
C1918 C1917 1.392 . S
C1918 C1919 1.385 . S
C1918 C1920 1.478 . S
C1919 H1913 0.930 . S
C1919 C1915 1.400 . S
C1919 C1918 1.385 . S
C1920 C1918 1.478 . S
C1920 C1922 1.381 . S
C1920 C1926 1.383 . S
C1921 C1917 1.495 . S
C1921 H1927 0.959 . S
C1921 H1928 0.961 . S
C1921 H1929 0.960 . S
C1922 C1920 1.381 . S
C1922 C1923 1.394 . S
C1922 H1930 0.930 . S
C1923 C1922 1.394 . S
C1923 C1924 1.383 . S
C1923 H1931 0.929 . S
C1924 C1923 1.383 . S
C1924 C1925 1.377 . S
C1925 H1909 0.930 . S
C1925 C1924 1.377 . S
C1925 C1926 1.379 . S
C1926 H1910 0.931 . S
C1926 C1920 1.383 . S
C1926 C1925 1.379 . S
H1927 C1921 0.959 . S
H1928 C1921 0.961 . S
H1929 C1921 0.960 . S
H1930 C1922 0.930 . S
H1931 C1923 0.929 . S
H1932 C1940 0.929 . S
H1933 C1942 0.930 . S
H1934 C1944 0.930 . S
H1935 C1947 0.929 . S
H1936 C1950 0.930 . S
H1937 C1952 0.960 . S
H1938 C1952 0.960 . S
H1939 C1952 0.960 . S
C1940 H1932 0.929 . S
C1940 C1941 1.377 . S
C1940 C1942 1.384 . S
C1941 C1940 1.377 . S
C1941 C1947 1.390 . S
C1942 H1933 0.930 . S
C1942 C1940 1.384 . S
C1942 C1943 1.372 . S
C1943 C1942 1.372 . S
C1943 C1944 1.400 . S
C1943 C1948 1.490 . S
C1944 H1934 0.930 . S
C1944 C1943 1.400 . S
C1944 C1947 1.386 . S
H1945 C1961 0.930 . S
H1946 C1962 0.931 . S
C1947 H1935 0.929 . S
C1947 C1941 1.390 . S
C1947 C1944 1.386 . S
C1948 C1943 1.490 . S
C1948 C1950 1.395 . S
C1948 C1951 1.403 . S
H1949 C1955 0.930 . S
C1950 H1936 0.930 . S
C1950 C1948 1.395 . S
C1950 C1953 1.403 . S
C1951 C1948 1.403 . S
C1951 C1952 1.524 . S
C1951 C1955 1.400 . S
C1952 H1937 0.960 . S
C1952 H1938 0.960 . S
C1952 H1939 0.960 . S
C1952 C1951 1.524 . S
C1953 C1950 1.403 . S
C1953 C1954 1.392 . S
C1953 C1957 1.495 . S
C1954 C1953 1.392 . S
C1954 C1955 1.385 . S
C1954 C1956 1.478 . S
C1955 H1949 0.930 . S
C1955 C1951 1.400 . S
C1955 C1954 1.385 . S
C1956 C1954 1.478 . S
C1956 C1958 1.381 . S
C1956 C1962 1.383 . S
C1957 C1953 1.495 . S
C1957 H1963 0.959 . S
C1957 H1964 0.961 . S
C1957 H1965 0.960 . S
C1958 C1956 1.381 . S
C1958 C1959 1.394 . S
C1958 H1966 0.930 . S
C1959 C1958 1.394 . S
C1959 C1960 1.383 . S
C1959 H1967 0.929 . S
C1960 C1959 1.383 . S
C1960 C1961 1.377 . S
C1961 H1945 0.930 . S
C1961 C1960 1.377 . S
C1961 C1962 1.379 . S
C1962 H1946 0.931 . S
C1962 C1956 1.383 . S
C1962 C1961 1.379 . S
H1963 C1957 0.959 . S
H1964 C1957 0.961 . S
H1965 C1957 0.960 . S
H1966 C1958 0.930 . S
H1967 C1959 0.929 . S
C537 N13 1.752 . S
C556 N244 1.760 . S
C573 N145 1.752 . S
C592 N46 1.762 . S
C609 N178 1.758 . S
C628 N79 1.740 . S
C645 N211 1.753 . S
C664 N112 1.750 . S
C681 N277 1.758 . S
C700 N508 1.742 . S
C717 N310 1.754 . S
C736 N409 1.740 . S
C753 N442 1.758 . S
C772 N343 1.741 . S
C789 N376 1.755 . S
C808 N475 1.764 . S
C825 N2 1.562 . S
C844 N332 1.552 . S
C861 N365 1.560 . S
C880 N35 1.566 . S
C897 N266 1.561 . S
C916 N68 1.560 . S
C933 N299 1.560 . S
C952 N101 1.527 . S
C969 N464 1.554 . S
C988 N134 1.543 . S
C1005 N497 1.552 . S
C1024 N167 1.576 . S
C1041 N398 1.563 . S
C1060 N200 1.541 . S
C1077 N431 1.560 . S
C1096 N233 1.527 . S
C1113 C21 0.952 . S
C1132 C87 0.935 . S
C1149 C120 0.964 . S
C1168 C54 1.000 . S
C1185 C219 0.959 . S
C1204 C153 0.997 . S
C1221 C252 0.963 . S
C1240 C186 1.002 . S
C1257 C285 0.958 . S
C1276 C351 1.001 . S
C1293 C384 0.952 . S
C1312 C318 0.945 . S
C1329 C417 0.958 . S
C1348 C483 1.002 . S
C1365 C450 0.965 . S
C1384 C516 0.979 . S
C1401 C469 1.515 . S
C1420 C18 1.614 . S
C1437 C51 1.598 . S
C1456 C502 1.524 . S
C1473 C403 1.507 . S
C1492 C84 1.591 . S
C1509 C436 1.521 . S
C1528 C117 1.608 . S
C1545 C337 1.513 1_655 S
C1564 C150 1.613 . S
C1581 C183 1.602 . S
C1600 C370 1.544 1_565 S
C1617 C271 1.521 1_455 S
C1636 C216 1.605 . S
C1653 C249 1.604 . S
C1672 C304 1.508 1_545 S
C1689 C205 1.521 . S
C1708 C282 1.613 . S
C1725 C238 1.510 . S
C1744 C315 1.599 . S
C1761 C139 1.510 . S
C1780 C348 1.601 . S
C1797 C381 1.599 . S
C1816 C172 1.479 . S
C1833 C73 1.521 1_455 S
C1852 C414 1.604 . S
C1869 C447 1.598 . S
C1888 C106 1.510 1_545 S
C1905 C480 1.600 . S
C1924 C7 1.529 1_655 S
C1941 C40 1.511 1_565 S
C1960 C513 1.603 . S
