# Generated by pormake.
# Topology lon, (4)-cn, num edge types: 1
# Building blocks:
#     Node 0, Type 0, BuildingBlock: UXUYUI_clean_sbu_0, # of connection points: 4
#     Node 1, Type 0, BuildingBlock: UXUYUI_clean_sbu_0, # of connection points: 4
#     Node 2, Type 0, BuildingBlock: UXUYUI_clean_sbu_0, # of connection points: 4
#     Node 3, Type 0, BuildingBlock: UXUYUI_clean_sbu_0, # of connection points: 4
#     Edge 4, Type (0, 0), BuildingBlock: CIFDUS_clean_linker_0, # of connection points: 2
#     Edge 5, Type (0, 0), BuildingBlock: CIFDUS_clean_linker_0, # of connection points: 2
#     Edge 6, Type (0, 0), BuildingBlock: CIFDUS_clean_linker_0, # of connection points: 2
#     Edge 7, Type (0, 0), BuildingBlock: CIFDUS_clean_linker_0, # of connection points: 2
#     Edge 8, Type (0, 0), BuildingBlock: CIFDUS_clean_linker_0, # of connection points: 2
#     Edge 9, Type (0, 0), BuildingBlock: CIFDUS_clean_linker_0, # of connection points: 2
#     Edge 10, Type (0, 0), BuildingBlock: CIFDUS_clean_linker_0, # of connection points: 2
#     Edge 11, Type (0, 0), BuildingBlock: CIFDUS_clean_linker_0, # of connection points: 2
# Relax obj value: 0.000
# Max RMSD: 0.004
# Mean RMSD: 0.003
data_MOF--net-lon--node1-UXUYUI_clean_sbu_0--edge1-CIFDUS_clean_linker_0
_symmetry_space_group_name_H-M    P1
_symmetry_Int_Tables_number       1
_symmetry_cell_setting            triclinic
loop_
_symmetry_equiv_pos_as_xyz
'x, y, z'
_cell_length_a     33.171371
_cell_length_b     33.205755
_cell_length_c     54.217307
_cell_angle_alpha  90.219409
_cell_angle_beta   89.838609
_cell_angle_gamma 119.97346
loop_
_atom_site_label
_atom_site_type_symbol
_atom_site_fract_x
_atom_site_fract_y
_atom_site_fract_z
_atom_type_partial_charge
Li0 Li 0.35431 0.67689 0.10286 0.0
Li1 Li 0.38265 0.65534 0.0679 0.0
Li2 Li 0.382 0.72781 0.06861 0.0
Li3 Li 0.30719 0.65408 0.06631 0.0
C4 C 0.44753 0.70165 0.10399 0.0
N5 N 0.50646 0.68554 0.13292 0.0
C6 C 0.43159 0.65813 0.11485 0.0
C7 C 0.49342 0.73694 0.10785 0.0
C8 C 0.46192 0.65069 0.12941 0.0
C9 C 0.52268 0.72812 0.12253 0.0
C10 C 0.3013 0.57074 0.07745 0.0
C11 C 0.27724 0.51803 0.04275 0.0
N12 N 0.25536 0.48145 0.05844 0.0
C13 C 0.27855 0.53258 0.0932 0.0
C14 C 0.30065 0.5634 0.05199 0.0
C15 C 0.25555 0.48773 0.08325 0.0
C16 C 0.31991 0.63461 0.14923 0.0
N17 N 0.35177 0.67456 0.13804 0.0
C18 C 0.38138 0.71094 0.17708 0.0
C19 C 0.3824 0.71233 0.15134 0.0
C20 C 0.34926 0.66993 0.18912 0.0
C21 C 0.31829 0.63137 0.17493 0.0
H22 H 0.29593 0.60521 0.13817 0.0
H23 H 0.40775 0.74347 0.14193 0.0
C24 C 0.45462 0.65312 0.04163 0.0
N25 N 0.41786 0.62742 0.05676 0.0
C26 C 0.4817 0.63486 0.03263 0.0
C27 C 0.43355 0.56456 0.05562 0.0
C28 C 0.40768 0.58432 0.06431 0.0
C29 C 0.47087 0.58975 0.03939 0.0
H30 H 0.46303 0.68795 0.03668 0.0
H31 H 0.37975 0.56523 0.07723 0.0
C32 C 0.31729 0.72966 0.10756 0.0
N33 N 0.30514 0.76902 0.14992 0.0
C34 C 0.27676 0.70535 0.12161 0.0
C35 C 0.35163 0.77404 0.11506 0.0
C36 C 0.2713 0.72581 0.14298 0.0
C37 C 0.3448 0.79336 0.13651 0.0
C38 C 0.36337 0.7062 0.02164 0.0
C39 C 0.33282 0.7233 0.01847 0.0
C40 C 0.39908 0.71765 1.00455 0.0
C41 C 0.33862 0.75171 0.99828 0.0
C42 C 0.40377 0.74622 0.98461 0.0
N43 N 0.37372 0.76253 0.98192 0.0
C44 C 0.46089 0.80795 0.05105 0.0
C45 C 0.39317 0.81475 0.05359 0.0
C46 C 0.48626 0.85261 0.0412 0.0
N47 N 0.41527 0.79004 0.05695 0.0
C48 C 0.41716 0.85951 0.04374 0.0
C49 C 0.46436 0.87899 0.03733 0.0
H50 H 0.47738 0.78726 0.05379 0.0
H51 H 0.35667 0.79934 0.05818 0.0
C52 C 0.2089 0.6049 0.06866 0.0
N53 N 0.24576 0.62169 0.05296 0.0
C54 C 0.16349 0.58002 0.05958 0.0
C55 C 0.19482 0.58915 0.01838 0.0
C56 C 0.23958 0.61381 0.02826 0.0
C57 C 0.15597 0.57196 0.03409 0.0
H58 H 0.21478 0.61018 0.08827 0.0
H59 H 0.2694 0.62625 0.0162 0.0
O60 O 0.41867 0.71005 0.08962 0.0
O61 O 0.32351 0.61483 0.08708 0.0
O62 O 0.32378 0.7098 0.08687 0.0
O63 O 0.35898 0.67943 0.04172 0.0
H64 H 0.39622 0.63036 0.11215 0.0
H65 H 0.50627 0.77082 0.09957 0.0
H66 H 0.45003 0.6172 0.13793 0.0
H67 H 0.55829 0.75514 0.12568 0.0
H68 H 0.27651 0.51191 0.02311 0.0
H69 H 0.27869 0.5375 0.11294 0.0
H70 H 0.31816 0.59222 0.03942 0.0
H71 H 0.23784 0.45792 0.09525 0.0
H72 H 0.40605 0.74121 0.18747 0.0
H73 H 0.2929 0.59927 0.18364 0.0
H74 H 0.51034 0.65553 0.02024 0.0
H75 H 0.42481 0.53014 0.06178 0.0
H76 H 0.25003 0.67086 0.11628 0.0
H77 H 0.38361 0.79307 0.10474 0.0
H78 H 0.24021 0.70727 0.15409 0.0
H79 H 0.3712 0.82756 0.14258 0.0
H80 H 0.30538 0.71534 0.03172 0.0
H81 H 0.42296 0.70469 1.00662 0.0
H82 H 0.3154 0.76539 0.9957 0.0
H83 H 0.43134 0.75545 0.97128 0.0
H84 H 0.52267 0.8664 0.03678 0.0
H85 H 0.39867 0.87824 0.04072 0.0
H86 H 0.13462 0.5665 0.07242 0.0
H87 H 0.19072 0.58391 0.99861 0.0
Li88 Li 0.6584 0.37227 0.56597 0.0
Li89 Li 0.73399 0.37591 0.56493 0.0
Li90 Li 0.66016 0.30103 0.56775 0.0
Li91 Li 0.68699 0.35193 0.60334 0.0
C92 C 0.67406 0.3609 0.51878 0.0
N93 N 0.65541 0.3905 0.47493 0.0
C94 C 0.70809 0.40185 0.50769 0.0
C95 C 0.6308 0.33463 0.50737 0.0
C96 C 0.69793 0.41633 0.48557 0.0
C97 C 0.62196 0.35029 0.48526 0.0
C98 C 0.75137 0.44626 0.59932 0.0
C99 C 0.82254 0.47157 0.62199 0.0
N100 N 0.82411 0.51243 0.6272 0.0
C101 C 0.75365 0.48845 0.60489 0.0
C102 C 0.78605 0.43767 0.60793 0.0
C103 C 0.79073 0.52149 0.61901 0.0
C104 C 0.58037 0.38491 0.56113 0.0
N105 N 0.62583 0.40273 0.55483 0.0
C106 C 0.6259 0.46604 0.53386 0.0
C107 C 0.64896 0.44281 0.54171 0.0
C108 C 0.5789 0.44835 0.54008 0.0
C109 C 0.55613 0.40723 0.55392 0.0
H110 H 0.563 0.3537 0.57208 0.0
H111 H 0.6855 0.4571 0.53761 0.0
C112 C 0.81152 0.3775 0.54374 0.0
N113 N 0.79497 0.40561 0.55118 0.0
C114 C 0.85612 0.39644 0.53372 0.0
C115 C 0.86547 0.47303 0.53863 0.0
C116 C 0.82068 0.45256 0.54866 0.0
C117 C 0.88387 0.44488 0.53108 0.0
H118 H 0.78995 0.34026 0.54558 0.0
H119 H 0.80634 0.4741 0.5543 0.0
C120 C 0.58055 0.28155 0.591 0.0
N121 N 0.4938 0.20277 0.59451 0.0
C122 C 0.56471 0.25901 0.61366 0.0
C123 C 0.55199 0.26434 0.57023 0.0
C124 C 0.52081 0.21915 0.61503 0.0
C125 C 0.50834 0.22438 0.57235 0.0
C126 C 0.71782 0.28525 0.59883 0.0
C127 C 0.68312 0.25992 0.6162 0.0
C128 C 0.75151 0.27283 0.59374 0.0
C129 C 0.68247 0.22236 0.62809 0.0
C130 C 0.7497 0.23503 0.60601 0.0
N131 N 0.71549 0.21077 0.62278 0.0
C132 C 0.63978 0.23151 0.53254 0.0
C133 C 0.60582 0.20107 0.57147 0.0
C134 C 0.62127 0.18672 0.52283 0.0
N135 N 0.63168 0.2379 0.55644 0.0
C136 C 0.5865 0.15569 0.56251 0.0
C137 C 0.59416 0.14805 0.53787 0.0
H138 H 0.66083 0.26128 0.52101 0.0
H139 H 0.60019 0.20669 0.59047 0.0
C140 C 0.65641 0.36181 0.65009 0.0
N141 N 0.68992 0.3568 0.63839 0.0
C142 C 0.6561 0.36459 0.67579 0.0
C143 C 0.7254 0.35796 0.6769 0.0
C144 C 0.7243 0.35521 0.65117 0.0
C145 C 0.69081 0.36247 0.68958 0.0
H146 H 0.62961 0.36315 0.63941 0.0
H147 H 0.7508 0.35162 0.6414 0.0
O148 O 0.6832 0.3464 0.54057 0.0
O149 O 0.71506 0.41352 0.58567 0.0
O150 O 0.62357 0.32048 0.58925 0.0
O151 O 0.71907 0.32217 0.58695 0.0
H152 H 0.74179 0.42254 0.51621 0.0
H153 H 0.60438 0.30242 0.51543 0.0
H154 H 0.72381 0.44816 0.4769 0.0
H155 H 0.58855 0.33041 0.4763 0.0
H156 H 0.84961 0.46539 0.62877 0.0
H157 H 0.727 0.49556 0.59838 0.0
H158 H 0.7849 0.40522 0.6038 0.0
H159 H 0.79294 0.55432 0.62346 0.0
H160 H 0.64493 0.49808 0.52357 0.0
H161 H 0.51988 0.3924 0.55906 0.0
H162 H 0.86889 0.37335 0.52841 0.0
H163 H 0.8852 0.51044 0.53654 0.0
H164 H 0.5861 0.27199 0.63 0.0
H165 H 0.56351 0.2816 0.55264 0.0
H166 H 0.50822 0.20123 0.63241 0.0
H167 H 0.48603 0.21055 0.55637 0.0
H168 H 0.65678 0.26897 0.62036 0.0
H169 H 0.77886 0.29219 0.5805 0.0
H170 H 0.65566 0.20239 0.6415 0.0
H171 H 0.77553 0.22501 0.60222 0.0
H172 H 0.62771 0.18244 0.50367 0.0
H173 H 0.56635 0.12688 0.57485 0.0
H174 H 0.62848 0.36755 0.68476 0.0
H175 H 0.75324 0.35692 0.68672 0.0
Li176 Li 0.37621 0.73257 0.46023 0.0
Li177 Li 0.35173 0.68538 0.42247 0.0
Li178 Li 0.30482 0.6591 0.46044 0.0
Li179 Li 0.37928 0.66029 0.45701 0.0
C180 C 0.27845 0.71202 0.4374 0.0
N181 N 0.19126 0.70273 0.43266 0.0
C182 C 0.25443 0.6972 0.41505 0.0
C183 C 0.2582 0.72235 0.4573 0.0
C184 C 0.21039 0.69272 0.41303 0.0
C185 C 0.21404 0.71731 0.45455 0.0
C186 C 0.44366 0.73854 0.41851 0.0
C187 C 0.48066 0.73327 0.38124 0.0
N188 N 0.5 0.77992 0.37802 0.0
C189 C 0.46403 0.78645 0.41489 0.0
C190 C 0.45218 0.71172 0.40163 0.0
C191 C 0.49239 0.80671 0.39429 0.0
C192 C 0.45057 0.81399 0.48191 0.0
N193 N 0.40654 0.79451 0.47288 0.0
C194 C 0.40278 0.86261 0.48304 0.0
C195 C 0.38277 0.81802 0.47298 0.0
C196 C 0.4479 0.88343 0.4929 0.0
C197 C 0.47208 0.85872 0.49206 0.0
H198 H 0.46876 0.79456 0.48145 0.0
H199 H 0.34819 0.80212 0.46531 0.0
C200 C 0.32923 0.64735 0.37424 0.0
N201 N 0.34928 0.6876 0.3874 0.0
C202 C 0.32725 0.64835 0.34853 0.0
C203 C 0.36668 0.73224 0.35042 0.0
C204 C 0.36706 0.72953 0.3761 0.0
C205 C 0.34655 0.69127 0.33617 0.0
H206 H 0.31442 0.61441 0.38372 0.0
H207 H 0.3819 0.76097 0.38706 0.0
C208 C 0.37549 0.70646 0.50566 0.0
N209 N 0.41872 0.76078 0.54657 0.0
C210 C 0.41705 0.71066 0.51436 0.0
C211 C 0.35579 0.72969 0.51782 0.0
C212 C 0.43836 0.73829 0.53508 0.0
C213 C 0.37825 0.75709 0.53843 0.0
C214 C 0.31647 0.57997 0.43762 0.0
C215 C 0.28481 0.54612 0.45374 0.0
C216 C 0.34419 0.56976 0.42232 0.0
C217 C 0.28173 0.50261 0.45444 0.0
C218 C 0.34014 0.52588 0.42361 0.0
N219 N 0.30927 0.4935 0.43952 0.0
C220 C 0.20646 0.60427 0.45756 0.0
C221 C 0.23648 0.6267 0.49801 0.0
C222 C 0.16088 0.58343 0.46649 0.0
N223 N 0.24304 0.62618 0.47329 0.0
C224 C 0.19155 0.60597 0.50776 0.0
C225 C 0.15291 0.58455 0.49191 0.0
H226 H 0.21274 0.60407 0.43799 0.0
H227 H 0.26616 0.64361 0.51015 0.0
C228 C 0.45561 0.64412 0.45748 0.0
N229 N 0.41236 0.62955 0.46669 0.0
C230 C 0.48012 0.62177 0.46421 0.0
C231 C 0.41529 0.5701 0.49001 0.0
C232 C 0.39223 0.59373 0.48293 0.0
C233 C 0.45992 0.58399 0.48061 0.0
H234 H 0.47128 0.67333 0.44502 0.0
H235 H 0.35809 0.58334 0.49029 0.0
O236 O 0.32135 0.71601 0.43985 0.0
O237 O 0.4154 0.718 0.43842 0.0
O238 O 0.35464 0.68041 0.48508 0.0
O239 O 0.32056 0.62301 0.43695 0.0
H240 H 0.26944 0.68894 0.39947 0.0
H241 H 0.27597 0.73322 0.47485 0.0
H242 H 0.19135 0.68114 0.39587 0.0
H243 H 0.1978 0.72476 0.46987 0.0
H244 H 0.48729 0.71289 0.36795 0.0
H245 H 0.45769 0.80772 0.42771 0.0
H246 H 0.43652 0.67457 0.4041 0.0
H247 H 0.50823 0.84372 0.3912 0.0
H248 H 0.38327 0.88078 0.4829 0.0
H249 H 0.50685 0.87344 0.49957 0.0
H250 H 0.31027 0.61575 0.33853 0.0
H251 H 0.38255 0.7662 0.34191 0.0
H252 H 0.43292 0.69314 0.5051 0.0
H253 H 0.32393 0.72726 0.51115 0.0
H254 H 0.47062 0.74201 0.54197 0.0
H255 H 0.36361 0.77557 0.5479 0.0
H256 H 0.26317 0.55349 0.46574 0.0
H257 H 0.36889 0.59562 0.40976 0.0
H258 H 0.25755 0.47613 0.46691 0.0
H259 H 0.3616 0.51759 0.41201 0.0
H260 H 0.13231 0.56772 0.45352 0.0
H261 H 0.18719 0.60677 0.52752 0.0
H262 H 0.51478 0.63443 0.45689 0.0
H263 H 0.39804 0.54093 0.50248 0.0
Li264 Li 0.66223 0.29423 0.96027 0.0
Li265 Li 0.6637 0.36873 0.95935 0.0
Li266 Li 0.6928 0.34316 0.92285 0.0
Li267 Li 0.73747 0.37101 0.96123 0.0
C268 C 0.58861 0.27889 0.92766 0.0
N269 N 0.50691 0.20784 0.90808 0.0
C270 C 0.54561 0.27219 0.93572 0.0
C271 C 0.58998 0.24999 0.90928 0.0
C272 C 0.50471 0.23592 0.92572 0.0
C273 C 0.54834 0.21414 0.8997 0.0
C274 C 0.67095 0.354 1.00714 0.0
C275 C 0.67376 0.40988 0.03667 0.0
N276 N 0.63823 0.37489 0.04941 0.0
C277 C 0.63476 0.31856 0.02066 0.0
C278 C 0.69093 0.39999 0.01533 0.0
C279 C 0.61861 0.32984 0.04194 0.0
C280 C 0.65283 0.20934 0.97743 0.0
N281 N 0.62942 0.23241 0.97285 0.0
C282 C 0.55874 0.16843 0.98803 0.0
C283 C 0.58333 0.21304 0.97808 0.0
C284 C 0.58185 0.14354 0.99277 0.0
C285 C 0.62954 0.1645 0.98726 0.0
H286 H 0.68974 0.22597 0.97369 0.0
H287 H 0.56584 0.23262 0.97504 0.0
C288 C 0.64458 0.443 0.96341 0.0
N289 N 0.6295 0.39801 0.96947 0.0
C290 C 0.61993 0.46468 0.97131 0.0
C291 C 0.56471 0.39321 0.99143 0.0
C292 C 0.59025 0.37292 0.98304 0.0
C293 C 0.5794 0.43973 0.98558 0.0
H294 H 0.67568 0.46204 0.9524 0.0
H295 H 0.579 0.33716 0.98757 0.0
C296 C 0.7342 0.28621 0.92911 0.0
N297 N 0.75941 0.23117 0.90236 0.0
C298 C 0.78116 0.30113 0.92478 0.0
C299 C 0.70015 0.24286 0.92022 0.0
C300 C 0.79319 0.27294 0.9111 0.0
C301 C 0.71356 0.21565 0.90664 0.0
C302 C 0.7593 0.44755 0.93549 0.0
C303 C 0.78601 0.45667 0.91408 0.0
C304 C 0.77408 0.48109 0.95416 0.0
C305 C 0.82753 0.49898 0.91187 0.0
C306 C 0.81584 0.52293 0.95127 0.0
N307 N 0.8415 0.53092 0.93038 0.0
C308 C 0.66179 0.34425 0.87468 0.0
C309 C 0.73179 0.34159 0.87604 0.0
C310 C 0.66216 0.34359 0.84891 0.0
N311 N 0.69598 0.34268 0.88766 0.0
C312 C 0.7335 0.34074 0.85032 0.0
C313 C 0.69825 0.34154 0.8364 0.0
H314 H 0.63403 0.34575 0.88437 0.0
H315 H 0.75944 0.34203 0.88667 0.0
C316 C 0.80487 0.40921 0.99919 0.0
N317 N 0.79903 0.40332 0.97438 0.0
C318 C 0.84951 0.43354 1.00927 0.0
C319 C 0.8814 0.44467 0.9681 0.0
C320 C 0.83614 0.42017 0.95883 0.0
C321 C 0.88854 0.45174 0.99365 0.0
H322 H 0.77486 0.39487 1.0112 0.0
H323 H 0.83059 0.41484 0.93918 0.0
O324 O 0.62901 0.31436 0.93728 0.0
O325 O 0.68676 0.34368 0.98604 0.0
O326 O 0.72189 0.31354 0.94244 0.0
O327 O 0.71884 0.40606 0.93811 0.0
H328 H 0.54376 0.29458 0.94964 0.0
H329 H 0.62279 0.25552 0.90217 0.0
H330 H 0.47123 0.23014 0.93194 0.0
H331 H 0.54898 0.19148 0.8855 0.0
H332 H 0.68868 0.44537 0.0431 0.0
H333 H 0.61919 0.28274 0.01477 0.0
H334 H 0.71915 0.42779 1.00521 0.0
H335 H 0.59045 0.30277 0.0525 0.0
H336 H 0.52199 0.15357 0.99194 0.0
H337 H 0.64887 0.14686 0.99103 0.0
H338 H 0.63218 0.50038 0.96605 0.0
H339 H 0.53413 0.37279 1.00267 0.0
H340 H 0.80807 0.33424 0.93178 0.0
H341 H 0.66379 0.22997 0.92408 0.0
H342 H 0.82939 0.28426 0.90746 0.0
H343 H 0.6875 0.18208 0.89962 0.0
H344 H 0.775 0.43126 0.89939 0.0
H345 H 0.75366 0.47482 0.97074 0.0
H346 H 0.84868 0.50638 0.89546 0.0
H347 H 0.82785 0.54906 0.96565 0.0
H348 H 0.63415 0.34401 0.83892 0.0
H349 H 0.76247 0.34015 0.84142 0.0
H350 H 0.85342 0.43753 0.0291 0.0
H351 H 0.91045 0.45847 0.95537 0.0
H352 H 0.34289 0.72849 0.2218 0.0
H353 H 0.35421 0.60491 0.21722 0.0
H354 H 0.35506 0.60086 0.26228 0.0
H355 H 0.35426 0.63345 0.30277 0.0
H356 H 0.33663 0.75372 0.30736 0.0
H357 H 0.33769 0.75864 0.26256 0.0
C358 C 0.3456 0.70078 0.23076 0.0
C359 C 0.34867 0.66715 0.21635 0.0
C360 C 0.34532 0.69829 0.25663 0.0
C361 C 0.3516 0.63103 0.22803 0.0
C362 C 0.35224 0.62882 0.25374 0.0
C363 C 0.34986 0.66036 0.29409 0.0
C364 C 0.34572 0.69333 0.30868 0.0
C365 C 0.34915 0.66229 0.26822 0.0
C366 C 0.34097 0.7284 0.29681 0.0
C367 C 0.34114 0.73106 0.2711 0.0
H368 H 0.70979 0.31161 0.72197 0.0
H369 H 0.67135 0.41796 0.71886 0.0
H370 H 0.66958 0.42037 0.76384 0.0
H371 H 0.67971 0.39286 0.80412 0.0
H372 H 0.71897 0.28715 0.80717 0.0
H373 H 0.72075 0.28475 0.76218 0.0
C374 C 0.70155 0.33572 0.73111 0.0
C375 C 0.69067 0.36451 0.717 0.0
C376 C 0.70093 0.3372 0.757 0.0
C377 C 0.67926 0.39494 0.72922 0.0
C378 C 0.67849 0.39655 0.75496 0.0
C379 C 0.68829 0.36904 0.79493 0.0
C380 C 0.69918 0.34023 0.80901 0.0
C381 C 0.68916 0.36776 0.76904 0.0
C382 C 0.71096 0.31008 0.7968 0.0
C383 C 0.71175 0.3085 0.77106 0.0
H384 H 0.43756 0.50258 0.02125 0.0
H385 H 0.56545 0.63038 0.03543 0.0
H386 H 0.61035 0.5956 0.01971 0.0
H387 H 0.61317 0.52815 1.0029 0.0
H388 H 0.48483 0.401 0.98789 0.0
H389 H 0.4403 0.43598 1.00345 0.0
C390 C 0.47528 0.5227 0.02104 0.0
C391 C 0.49815 0.5689 0.02957 0.0
C392 C 0.5008 0.50252 1.01196 0.0
C393 C 0.54702 0.59485 0.02879 0.0
C394 C 0.5727 0.57491 0.01991 0.0
C395 C 0.57546 0.50825 1.00274 0.0
C396 C 0.55249 0.46188 0.99435 0.0
C397 C 0.54995 0.52874 1.01149 0.0
C398 C 0.50354 0.43646 0.99463 0.0
C399 C 0.47797 0.45652 1.00339 0.0
H400 H 0.07505 0.50489 0.47726 0.0
H401 H 0.12218 0.61893 0.52889 0.0
H402 H 0.0437 0.58572 0.54561 0.0
H403 H 0.96173 0.52419 0.5458 0.0
H404 H 0.91369 0.41237 0.49272 0.0
H405 H 0.99241 0.44502 0.47634 0.0
C406 C 0.06814 0.52283 0.49198 0.0
C407 C 0.10473 0.56428 0.50184 0.0
C408 C 0.0227 0.5039 0.50132 0.0
C409 C 0.09503 0.58653 0.5212 0.0
C410 C 0.05001 0.56776 0.53068 0.0
C411 C 0.96828 0.50723 0.53044 0.0
C412 C 0.9317 0.46574 0.52062 0.0
C413 C 1.01359 0.52645 0.5209 0.0
C414 C 0.9412 0.44392 0.50096 0.0
C415 C 0.98621 0.46271 0.49145 0.0
H416 H 0.58765 0.06724 0.97989 0.0
H417 H 0.51914 0.11412 0.03063 0.0
H418 H 0.47684 0.03666 0.04879 0.0
H419 H 0.45987 0.95587 0.05059 0.0
H420 H 0.52748 0.90851 0.9995 0.0
H421 H 0.57037 0.98615 0.98159 0.0
C422 C 0.56374 0.06057 0.99506 0.0
C423 C 0.55651 0.0964 1.00384 0.0
C424 C 0.53956 0.01594 1.00546 0.0
C425 C 0.5249 0.08702 0.02329 0.0
C426 C 0.50088 0.0428 0.03378 0.0
C427 C 0.48365 0.96238 0.03538 0.0
C428 C 0.49043 0.92634 0.02646 0.0
C429 C 0.50786 1.00698 0.02499 0.0
C430 C 0.52203 0.9357 1.00699 0.0
C431 C 0.54637 0.98004 0.99662 0.0
H432 H 0.57883 0.48449 0.49511 0.0
H433 H 0.523 0.46777 0.5687 0.0
H434 H 0.48155 0.50827 0.55689 0.0
H435 H 0.4619 0.54918 0.52586 0.0
H436 H 0.51526 0.56337 0.45174 0.0
H437 H 0.55771 0.52413 0.46372 0.0
C438 C 0.55779 0.49 0.50857 0.0
C439 C 0.55397 0.47314 0.53273 0.0
C440 C 0.53381 0.51309 0.50161 0.0
C441 C 0.52612 0.47999 0.54991 0.0
C442 C 0.50258 0.50332 0.5432 0.0
C443 C 0.48231 0.54323 0.5122 0.0
C444 C 0.48533 0.55944 0.48792 0.0
C445 C 0.50609 0.51994 0.51909 0.0
C446 C 0.51279 0.55205 0.47066 0.0
C447 C 0.53688 0.52928 0.47744 0.0
H448 H 0.0801 0.57803 0.04778 0.0
H449 H 0.12398 0.50611 0.99759 0.0
H450 H 0.04555 0.4632 0.9805 0.0
H451 H 0.96425 0.44535 0.98011 0.0
H452 H 0.9202 0.5169 0.03044 0.0
H453 H 0.99866 0.55983 0.04757 0.0
C454 C 0.07241 0.55264 0.03327 0.0
C455 C 0.10798 0.54545 0.02396 0.0
C456 C 0.02714 0.52782 0.02363 0.0
C457 C 0.0975 0.51288 1.00488 0.0
C458 C 0.05257 0.4881 0.99518 0.0
C459 C 0.97191 0.47064 0.99468 0.0
C460 C 0.93637 0.47788 1.00396 0.0
C461 C 1.01714 0.49534 1.00438 0.0
C462 C 0.94675 0.51023 0.02314 0.0
C463 C 0.99167 0.535 0.03286 0.0
H464 H 0.50696 0.07517 0.54534 0.0
H465 H 0.63611 0.11327 0.50796 0.0
H466 H 0.60264 0.0347 0.49107 0.0
H467 H 0.53624 0.95533 0.48649 0.0
H468 H 0.40738 0.91739 0.52414 0.0
H469 H 0.44126 0.99562 0.54146 0.0
C470 C 0.52795 0.06615 0.53371 0.0
C471 C 0.57395 0.10006 0.52792 0.0
C472 C 0.5085 0.02094 0.52407 0.0
C473 C 0.60042 0.08799 0.51247 0.0
C474 C 0.5814 0.043 0.50291 0.0
C475 C 0.51577 0.96409 0.49869 0.0
C476 C 0.46934 0.93063 0.50397 0.0
C477 C 0.53543 1.00922 0.50853 0.0
C478 C 0.44303 0.94268 0.51954 0.0
C479 C 0.46242 0.98734 0.52954 0.0
loop_
_geom_bond_atom_site_label_1
_geom_bond_atom_site_label_2
_geom_bond_distance
_geom_bond_site_symmetry_2
_ccdc_geom_bond_type
Li0 N17 1.990 . S
Li0 O60 1.956 . S
Li0 O61 1.970 . S
Li0 O62 1.961 . S
Li1 N25 1.990 . S
Li1 O60 1.970 . S
Li1 O61 1.956 . S
Li1 O63 1.961 . S
Li2 N47 1.990 . S
Li2 O60 1.961 . S
Li2 O62 1.956 . S
Li2 O63 1.970 . S
Li3 N53 1.990 . S
Li3 O61 1.961 . S
Li3 O62 1.970 . S
Li3 O63 1.956 . S
C4 C6 1.348 . S
C4 C7 1.356 . S
C4 O60 1.325 . S
N5 C8 1.314 . S
N5 C9 1.279 . S
C6 C4 1.348 . S
C6 C8 1.353 . S
C6 H64 0.929 . S
C7 C4 1.356 . S
C7 C9 1.358 . S
C7 H65 0.930 . S
C8 N5 1.314 . S
C8 C6 1.353 . S
C8 H66 0.930 . S
C9 N5 1.279 . S
C9 C7 1.358 . S
C9 H67 0.930 . S
C10 C13 1.348 . S
C10 C14 1.356 . S
C10 O61 1.325 . S
C11 N12 1.279 . S
C11 C14 1.358 . S
C11 H68 0.930 . S
N12 C11 1.279 . S
N12 C15 1.314 . S
C13 C10 1.348 . S
C13 C15 1.353 . S
C13 H69 0.929 . S
C14 C10 1.356 . S
C14 C11 1.358 . S
C14 H70 0.930 . S
C15 N12 1.314 . S
C15 C13 1.353 . S
C15 H71 0.930 . S
C16 N17 1.314 . S
C16 C21 1.353 . S
C16 H22 0.930 . S
N17 Li0 1.990 . S
N17 C16 1.314 . S
N17 C19 1.279 . S
C18 C19 1.358 . S
C18 C20 1.356 . S
C18 H72 0.930 . S
C19 N17 1.279 . S
C19 C18 1.358 . S
C19 H23 0.930 . S
C20 C18 1.356 . S
C20 C21 1.348 . S
C21 C16 1.353 . S
C21 C20 1.348 . S
C21 H73 0.929 . S
H22 C16 0.930 . S
H23 C19 0.930 . S
C24 N25 1.314 . S
C24 C26 1.353 . S
C24 H30 0.930 . S
N25 Li1 1.990 . S
N25 C24 1.314 . S
N25 C28 1.279 . S
C26 C24 1.353 . S
C26 C29 1.348 . S
C26 H74 0.956 . S
C27 C28 1.358 . S
C27 C29 1.356 . S
C27 H75 0.930 . S
C28 N25 1.279 . S
C28 C27 1.358 . S
C28 H31 0.930 . S
C29 C26 1.348 . S
C29 C27 1.356 . S
H30 C24 0.930 . S
H31 C28 0.930 . S
C32 C34 1.348 . S
C32 C35 1.356 . S
C32 O62 1.325 . S
N33 C36 1.314 . S
N33 C37 1.279 . S
C34 C32 1.348 . S
C34 C36 1.353 . S
C34 H76 0.929 . S
C35 C32 1.356 . S
C35 C37 1.358 . S
C35 H77 0.930 . S
C36 N33 1.314 . S
C36 C34 1.353 . S
C36 H78 0.930 . S
C37 N33 1.279 . S
C37 C35 1.358 . S
C37 H79 0.930 . S
C38 C39 1.348 1_554 S
C38 C40 1.356 1_554 S
C38 O63 1.325 . S
C39 C38 1.348 1_556 S
C39 C41 1.353 . S
C39 H80 0.929 1_556 S
C40 C38 1.356 1_556 S
C40 C42 1.358 . S
C40 H81 0.930 1_556 S
C41 C39 1.353 . S
C41 N43 1.314 . S
C41 H82 0.930 . S
C42 C40 1.358 . S
C42 N43 1.279 . S
C42 H83 0.930 . S
N43 C41 1.314 . S
N43 C42 1.279 . S
C44 C46 1.353 . S
C44 N47 1.314 . S
C44 H50 0.930 . S
C45 N47 1.279 . S
C45 C48 1.358 . S
C45 H51 0.930 . S
C46 C44 1.353 . S
C46 C49 1.348 . S
C46 H84 0.929 . S
N47 Li2 1.990 . S
N47 C44 1.314 . S
N47 C45 1.279 . S
C48 C45 1.358 . S
C48 C49 1.356 . S
C48 H85 0.930 . S
C49 C46 1.348 . S
C49 C48 1.356 . S
H50 C44 0.930 . S
H51 C45 0.930 . S
C52 N53 1.314 . S
C52 C54 1.353 . S
C52 H58 0.930 . S
N53 Li3 1.990 . S
N53 C52 1.314 . S
N53 C56 1.279 . S
C54 C52 1.353 . S
C54 C57 1.348 . S
C54 H86 0.929 . S
C55 C56 1.358 . S
C55 C57 1.356 . S
C55 H87 0.930 1_554 S
C56 N53 1.279 . S
C56 C55 1.358 . S
C56 H59 0.930 . S
C57 C54 1.348 . S
C57 C55 1.356 . S
H58 C52 0.930 . S
H59 C56 0.930 . S
O60 Li0 1.956 . S
O60 Li1 1.970 . S
O60 Li2 1.961 . S
O60 C4 1.325 . S
O61 Li0 1.970 . S
O61 Li1 1.956 . S
O61 Li3 1.961 . S
O61 C10 1.325 . S
O62 Li0 1.961 . S
O62 Li2 1.956 . S
O62 Li3 1.970 . S
O62 C32 1.325 . S
O63 Li1 1.961 . S
O63 Li2 1.970 . S
O63 Li3 1.956 . S
O63 C38 1.325 . S
H64 C6 0.929 . S
H65 C7 0.930 . S
H66 C8 0.930 . S
H67 C9 0.930 . S
H68 C11 0.930 . S
H69 C13 0.929 . S
H70 C14 0.930 . S
H71 C15 0.930 . S
H72 C18 0.930 . S
H73 C21 0.929 . S
H74 C26 0.956 . S
H75 C27 0.930 . S
H76 C34 0.929 . S
H77 C35 0.930 . S
H78 C36 0.930 . S
H79 C37 0.930 . S
H80 C39 0.929 1_554 S
H81 C40 0.930 1_554 S
H82 C41 0.930 . S
H83 C42 0.930 . S
H84 C46 0.929 . S
H85 C48 0.930 . S
H86 C54 0.929 . S
H87 C55 0.930 1_556 S
Li88 N105 1.990 . S
Li88 O148 1.956 . S
Li88 O149 1.970 . S
Li88 O150 1.961 . S
Li89 N113 1.990 . S
Li89 O148 1.970 . S
Li89 O149 1.956 . S
Li89 O151 1.961 . S
Li90 N135 1.990 . S
Li90 O148 1.961 . S
Li90 O150 1.956 . S
Li90 O151 1.970 . S
Li91 N141 1.990 . S
Li91 O149 1.961 . S
Li91 O150 1.970 . S
Li91 O151 1.956 . S
C92 C94 1.348 . S
C92 C95 1.356 . S
C92 O148 1.325 . S
N93 C96 1.314 . S
N93 C97 1.279 . S
C94 C92 1.348 . S
C94 C96 1.353 . S
C94 H152 0.929 . S
C95 C92 1.356 . S
C95 C97 1.358 . S
C95 H153 0.930 . S
C96 N93 1.314 . S
C96 C94 1.353 . S
C96 H154 0.930 . S
C97 N93 1.279 . S
C97 C95 1.358 . S
C97 H155 0.930 . S
C98 C101 1.348 . S
C98 C102 1.356 . S
C98 O149 1.325 . S
C99 N100 1.279 . S
C99 C102 1.358 . S
C99 H156 0.930 . S
N100 C99 1.279 . S
N100 C103 1.314 . S
C101 C98 1.348 . S
C101 C103 1.353 . S
C101 H157 0.929 . S
C102 C98 1.356 . S
C102 C99 1.358 . S
C102 H158 0.930 . S
C103 N100 1.314 . S
C103 C101 1.353 . S
C103 H159 0.930 . S
C104 N105 1.314 . S
C104 C109 1.353 . S
C104 H110 0.930 . S
N105 Li88 1.990 . S
N105 C104 1.314 . S
N105 C107 1.279 . S
C106 C107 1.358 . S
C106 C108 1.356 . S
C106 H160 0.930 . S
C107 N105 1.279 . S
C107 C106 1.358 . S
C107 H111 0.930 . S
C108 C106 1.356 . S
C108 C109 1.348 . S
C109 C104 1.353 . S
C109 C108 1.348 . S
C109 H161 0.929 . S
H110 C104 0.930 . S
H111 C107 0.930 . S
C112 N113 1.314 . S
C112 C114 1.353 . S
C112 H118 0.930 . S
N113 Li89 1.990 . S
N113 C112 1.314 . S
N113 C116 1.279 . S
C114 C112 1.353 . S
C114 C117 1.348 . S
C114 H162 0.929 . S
C115 C116 1.358 . S
C115 C117 1.356 . S
C115 H163 0.930 . S
C116 N113 1.279 . S
C116 C115 1.358 . S
C116 H119 0.930 . S
C117 C114 1.348 . S
C117 C115 1.356 . S
H118 C112 0.930 . S
H119 C116 0.930 . S
C120 C122 1.348 . S
C120 C123 1.356 . S
C120 O150 1.325 . S
N121 C124 1.314 . S
N121 C125 1.279 . S
C122 C120 1.348 . S
C122 C124 1.353 . S
C122 H164 0.929 . S
C123 C120 1.356 . S
C123 C125 1.358 . S
C123 H165 0.930 . S
C124 N121 1.314 . S
C124 C122 1.353 . S
C124 H166 0.930 . S
C125 N121 1.279 . S
C125 C123 1.358 . S
C125 H167 0.930 . S
C126 C127 1.348 . S
C126 C128 1.356 . S
C126 O151 1.325 . S
C127 C126 1.348 . S
C127 C129 1.353 . S
C127 H168 0.929 . S
C128 C126 1.356 . S
C128 C130 1.358 . S
C128 H169 0.930 . S
C129 C127 1.353 . S
C129 N131 1.314 . S
C129 H170 0.930 . S
C130 C128 1.358 . S
C130 N131 1.279 . S
C130 H171 0.930 . S
N131 C129 1.314 . S
N131 C130 1.279 . S
C132 C134 1.353 . S
C132 N135 1.314 . S
C132 H138 0.930 . S
C133 N135 1.279 . S
C133 C136 1.358 . S
C133 H139 0.930 . S
C134 C132 1.353 . S
C134 C137 1.348 . S
C134 H172 0.929 . S
N135 Li90 1.990 . S
N135 C132 1.314 . S
N135 C133 1.279 . S
C136 C133 1.358 . S
C136 C137 1.356 . S
C136 H173 0.930 . S
C137 C134 1.348 . S
C137 C136 1.356 . S
H138 C132 0.930 . S
H139 C133 0.930 . S
C140 N141 1.314 . S
C140 C142 1.353 . S
C140 H146 0.930 . S
N141 Li91 1.990 . S
N141 C140 1.314 . S
N141 C144 1.279 . S
C142 C140 1.353 . S
C142 C145 1.348 . S
C142 H174 0.929 . S
C143 C144 1.358 . S
C143 C145 1.356 . S
C143 H175 0.930 . S
C144 N141 1.279 . S
C144 C143 1.358 . S
C144 H147 0.930 . S
C145 C142 1.348 . S
C145 C143 1.356 . S
H146 C140 0.930 . S
H147 C144 0.930 . S
O148 Li88 1.956 . S
O148 Li89 1.970 . S
O148 Li90 1.961 . S
O148 C92 1.325 . S
O149 Li88 1.970 . S
O149 Li89 1.956 . S
O149 Li91 1.961 . S
O149 C98 1.325 . S
O150 Li88 1.961 . S
O150 Li90 1.956 . S
O150 Li91 1.970 . S
O150 C120 1.325 . S
O151 Li89 1.961 . S
O151 Li90 1.970 . S
O151 Li91 1.956 . S
O151 C126 1.325 . S
H152 C94 0.929 . S
H153 C95 0.930 . S
H154 C96 0.930 . S
H155 C97 0.930 . S
H156 C99 0.930 . S
H157 C101 0.929 . S
H158 C102 0.930 . S
H159 C103 0.930 . S
H160 C106 0.930 . S
H161 C109 0.929 . S
H162 C114 0.929 . S
H163 C115 0.930 . S
H164 C122 0.929 . S
H165 C123 0.930 . S
H166 C124 0.930 . S
H167 C125 0.930 . S
H168 C127 0.929 . S
H169 C128 0.930 . S
H170 C129 0.930 . S
H171 C130 0.930 . S
H172 C134 0.929 . S
H173 C136 0.930 . S
H174 C142 0.929 . S
H175 C143 0.930 . S
Li176 N193 1.990 . S
Li176 O236 1.956 . S
Li176 O237 1.970 . S
Li176 O238 1.961 . S
Li177 N201 1.990 . S
Li177 O236 1.970 . S
Li177 O237 1.956 . S
Li177 O239 1.961 . S
Li178 N223 1.990 . S
Li178 O236 1.961 . S
Li178 O238 1.956 . S
Li178 O239 1.970 . S
Li179 N229 1.990 . S
Li179 O237 1.961 . S
Li179 O238 1.970 . S
Li179 O239 1.956 . S
C180 C182 1.348 . S
C180 C183 1.356 . S
C180 O236 1.325 . S
N181 C184 1.314 . S
N181 C185 1.279 . S
C182 C180 1.348 . S
C182 C184 1.353 . S
C182 H240 0.929 . S
C183 C180 1.356 . S
C183 C185 1.358 . S
C183 H241 0.930 . S
C184 N181 1.314 . S
C184 C182 1.353 . S
C184 H242 0.930 . S
C185 N181 1.279 . S
C185 C183 1.358 . S
C185 H243 0.930 . S
C186 C189 1.348 . S
C186 C190 1.356 . S
C186 O237 1.325 . S
C187 N188 1.279 . S
C187 C190 1.358 . S
C187 H244 0.930 . S
N188 C187 1.279 . S
N188 C191 1.314 . S
C189 C186 1.348 . S
C189 C191 1.353 . S
C189 H245 0.929 . S
C190 C186 1.356 . S
C190 C187 1.358 . S
C190 H246 0.930 . S
C191 N188 1.314 . S
C191 C189 1.353 . S
C191 H247 0.930 . S
C192 N193 1.314 . S
C192 C197 1.353 . S
C192 H198 0.930 . S
N193 Li176 1.990 . S
N193 C192 1.314 . S
N193 C195 1.279 . S
C194 C195 1.358 . S
C194 C196 1.356 . S
C194 H248 0.930 . S
C195 N193 1.279 . S
C195 C194 1.358 . S
C195 H199 0.930 . S
C196 C194 1.356 . S
C196 C197 1.348 . S
C197 C192 1.353 . S
C197 C196 1.348 . S
C197 H249 0.929 . S
H198 C192 0.930 . S
H199 C195 0.930 . S
C200 N201 1.314 . S
C200 C202 1.353 . S
C200 H206 0.930 . S
N201 Li177 1.990 . S
N201 C200 1.314 . S
N201 C204 1.279 . S
C202 C200 1.353 . S
C202 C205 1.348 . S
C202 H250 0.929 . S
C203 C204 1.358 . S
C203 C205 1.356 . S
C203 H251 0.930 . S
C204 N201 1.279 . S
C204 C203 1.358 . S
C204 H207 0.930 . S
C205 C202 1.348 . S
C205 C203 1.356 . S
H206 C200 0.930 . S
H207 C204 0.930 . S
C208 C210 1.348 . S
C208 C211 1.356 . S
C208 O238 1.325 . S
N209 C212 1.314 . S
N209 C213 1.279 . S
C210 C208 1.348 . S
C210 C212 1.353 . S
C210 H252 0.929 . S
C211 C208 1.356 . S
C211 C213 1.358 . S
C211 H253 0.930 . S
C212 N209 1.314 . S
C212 C210 1.353 . S
C212 H254 0.930 . S
C213 N209 1.279 . S
C213 C211 1.358 . S
C213 H255 0.930 . S
C214 C215 1.348 . S
C214 C216 1.356 . S
C214 O239 1.325 . S
C215 C214 1.348 . S
C215 C217 1.353 . S
C215 H256 0.929 . S
C216 C214 1.356 . S
C216 C218 1.358 . S
C216 H257 0.930 . S
C217 C215 1.353 . S
C217 N219 1.314 . S
C217 H258 0.930 . S
C218 C216 1.358 . S
C218 N219 1.279 . S
C218 H259 0.930 . S
N219 C217 1.314 . S
N219 C218 1.279 . S
C220 C222 1.353 . S
C220 N223 1.314 . S
C220 H226 0.930 . S
C221 N223 1.279 . S
C221 C224 1.358 . S
C221 H227 0.930 . S
C222 C220 1.353 . S
C222 C225 1.348 . S
C222 H260 0.929 . S
N223 Li178 1.990 . S
N223 C220 1.314 . S
N223 C221 1.279 . S
C224 C221 1.358 . S
C224 C225 1.356 . S
C224 H261 0.930 . S
C225 C222 1.348 . S
C225 C224 1.356 . S
H226 C220 0.930 . S
H227 C221 0.930 . S
C228 N229 1.314 . S
C228 C230 1.353 . S
C228 H234 0.930 . S
N229 Li179 1.990 . S
N229 C228 1.314 . S
N229 C232 1.279 . S
C230 C228 1.353 . S
C230 C233 1.348 . S
C230 H262 0.929 . S
C231 C232 1.358 . S
C231 C233 1.356 . S
C231 H263 0.930 . S
C232 N229 1.279 . S
C232 C231 1.358 . S
C232 H235 0.930 . S
C233 C230 1.348 . S
C233 C231 1.356 . S
H234 C228 0.930 . S
H235 C232 0.930 . S
O236 Li176 1.956 . S
O236 Li177 1.970 . S
O236 Li178 1.961 . S
O236 C180 1.325 . S
O237 Li176 1.970 . S
O237 Li177 1.956 . S
O237 Li179 1.961 . S
O237 C186 1.325 . S
O238 Li176 1.961 . S
O238 Li178 1.956 . S
O238 Li179 1.970 . S
O238 C208 1.325 . S
O239 Li177 1.961 . S
O239 Li178 1.970 . S
O239 Li179 1.956 . S
O239 C214 1.325 . S
H240 C182 0.929 . S
H241 C183 0.930 . S
H242 C184 0.930 . S
H243 C185 0.930 . S
H244 C187 0.930 . S
H245 C189 0.929 . S
H246 C190 0.930 . S
H247 C191 0.930 . S
H248 C194 0.930 . S
H249 C197 0.929 . S
H250 C202 0.929 . S
H251 C203 0.930 . S
H252 C210 0.929 . S
H253 C211 0.930 . S
H254 C212 0.930 . S
H255 C213 0.930 . S
H256 C215 0.929 . S
H257 C216 0.930 . S
H258 C217 0.930 . S
H259 C218 0.930 . S
H260 C222 0.929 . S
H261 C224 0.930 . S
H262 C230 0.929 . S
H263 C231 0.930 . S
Li264 N281 1.990 . S
Li264 O324 1.956 . S
Li264 O325 1.970 . S
Li264 O326 1.961 . S
Li265 N289 1.990 . S
Li265 O324 1.970 . S
Li265 O325 1.956 . S
Li265 O327 1.961 . S
Li266 N311 1.990 . S
Li266 O324 1.961 . S
Li266 O326 1.956 . S
Li266 O327 1.970 . S
Li267 N317 1.990 . S
Li267 O325 1.961 . S
Li267 O326 1.970 . S
Li267 O327 1.956 . S
C268 C270 1.348 . S
C268 C271 1.356 . S
C268 O324 1.325 . S
N269 C272 1.314 . S
N269 C273 1.279 . S
C270 C268 1.348 . S
C270 C272 1.353 . S
C270 H328 0.929 . S
C271 C268 1.356 . S
C271 C273 1.358 . S
C271 H329 0.930 . S
C272 N269 1.314 . S
C272 C270 1.353 . S
C272 H330 0.930 . S
C273 N269 1.279 . S
C273 C271 1.358 . S
C273 H331 0.930 . S
C274 C277 1.348 1_556 S
C274 C278 1.356 1_556 S
C274 O325 1.325 . S
C275 N276 1.279 . S
C275 C278 1.358 . S
C275 H332 0.930 . S
N276 C275 1.279 . S
N276 C279 1.314 . S
C277 C274 1.348 1_554 S
C277 C279 1.353 . S
C277 H333 0.929 1_554 S
C278 C274 1.356 1_554 S
C278 C275 1.358 . S
C278 H334 0.930 1_554 S
C279 N276 1.314 . S
C279 C277 1.353 . S
C279 H335 0.930 . S
C280 N281 1.314 . S
C280 C285 1.353 . S
C280 H286 0.930 . S
N281 Li264 1.990 . S
N281 C280 1.314 . S
N281 C283 1.279 . S
C282 C283 1.358 . S
C282 C284 1.356 . S
C282 H336 0.930 . S
C283 N281 1.279 . S
C283 C282 1.358 . S
C283 H287 0.930 . S
C284 C282 1.356 . S
C284 C285 1.348 . S
C285 C280 1.353 . S
C285 C284 1.348 . S
C285 H337 0.929 . S
H286 C280 0.930 . S
H287 C283 0.930 . S
C288 N289 1.314 . S
C288 C290 1.353 . S
C288 H294 0.930 . S
N289 Li265 1.990 . S
N289 C288 1.314 . S
N289 C292 1.279 . S
C290 C288 1.353 . S
C290 C293 1.348 . S
C290 H338 0.929 . S
C291 C292 1.358 . S
C291 C293 1.356 . S
C291 H339 0.930 1_556 S
C292 N289 1.279 . S
C292 C291 1.358 . S
C292 H295 0.930 . S
C293 C290 1.348 . S
C293 C291 1.356 . S
H294 C288 0.930 . S
H295 C292 0.930 . S
C296 C298 1.348 . S
C296 C299 1.356 . S
C296 O326 1.325 . S
N297 C300 1.314 . S
N297 C301 1.279 . S
C298 C296 1.348 . S
C298 C300 1.353 . S
C298 H340 0.929 . S
C299 C296 1.356 . S
C299 C301 1.358 . S
C299 H341 0.930 . S
C300 N297 1.314 . S
C300 C298 1.353 . S
C300 H342 0.930 . S
C301 N297 1.279 . S
C301 C299 1.358 . S
C301 H343 0.930 . S
C302 C303 1.348 . S
C302 C304 1.356 . S
C302 O327 1.325 . S
C303 C302 1.348 . S
C303 C305 1.353 . S
C303 H344 0.929 . S
C304 C302 1.356 . S
C304 C306 1.358 . S
C304 H345 0.930 . S
C305 C303 1.353 . S
C305 N307 1.314 . S
C305 H346 0.930 . S
C306 C304 1.358 . S
C306 N307 1.279 . S
C306 H347 0.930 . S
N307 C305 1.314 . S
N307 C306 1.279 . S
C308 C310 1.353 . S
C308 N311 1.314 . S
C308 H314 0.930 . S
C309 N311 1.279 . S
C309 C312 1.358 . S
C309 H315 0.930 . S
C310 C308 1.353 . S
C310 C313 1.348 . S
C310 H348 0.929 . S
N311 Li266 1.990 . S
N311 C308 1.314 . S
N311 C309 1.279 . S
C312 C309 1.358 . S
C312 C313 1.356 . S
C312 H349 0.930 . S
C313 C310 1.348 . S
C313 C312 1.356 . S
H314 C308 0.930 . S
H315 C309 0.930 . S
C316 N317 1.314 . S
C316 C318 1.353 . S
C316 H322 0.930 . S
N317 Li267 1.990 . S
N317 C316 1.314 . S
N317 C320 1.279 . S
C318 C316 1.353 . S
C318 C321 1.348 . S
C318 H350 0.956 . S
C319 C320 1.358 . S
C319 C321 1.356 . S
C319 H351 0.930 . S
C320 N317 1.279 . S
C320 C319 1.358 . S
C320 H323 0.930 . S
C321 C318 1.348 . S
C321 C319 1.356 . S
H322 C316 0.930 . S
H323 C320 0.930 . S
O324 Li264 1.956 . S
O324 Li265 1.970 . S
O324 Li266 1.961 . S
O324 C268 1.325 . S
O325 Li264 1.970 . S
O325 Li265 1.956 . S
O325 Li267 1.961 . S
O325 C274 1.325 . S
O326 Li264 1.961 . S
O326 Li266 1.956 . S
O326 Li267 1.970 . S
O326 C296 1.325 . S
O327 Li265 1.961 . S
O327 Li266 1.970 . S
O327 Li267 1.956 . S
O327 C302 1.325 . S
H328 C270 0.929 . S
H329 C271 0.930 . S
H330 C272 0.930 . S
H331 C273 0.930 . S
H332 C275 0.930 . S
H333 C277 0.929 1_556 S
H334 C278 0.930 1_556 S
H335 C279 0.930 . S
H336 C282 0.930 . S
H337 C285 0.929 . S
H338 C290 0.929 . S
H339 C291 0.930 1_554 S
H340 C298 0.929 . S
H341 C299 0.930 . S
H342 C300 0.930 . S
H343 C301 0.930 . S
H344 C303 0.929 . S
H345 C304 0.930 . S
H346 C305 0.930 . S
H347 C306 0.930 . S
H348 C310 0.929 . S
H349 C312 0.930 . S
H350 C318 0.956 . S
H351 C319 0.930 . S
H352 C358 0.930 . S
H353 C361 0.930 . S
H354 C362 0.930 . S
H355 C363 0.930 . S
H356 C366 0.930 . S
H357 C367 0.930 . S
C358 H352 0.930 . S
C358 C359 1.355 . S
C358 C360 1.415 . S
C359 C358 1.355 . S
C359 C361 1.419 . S
C360 C358 1.415 . S
C360 C365 1.425 . S
C360 C367 1.409 . S
C361 H353 0.930 . S
C361 C359 1.419 . S
C361 C362 1.362 . S
C362 H354 0.930 . S
C362 C361 1.362 . S
C362 C365 1.409 . S
C363 H355 0.930 . S
C363 C364 1.355 . S
C363 C365 1.415 . S
C364 C363 1.355 . S
C364 C366 1.419 . S
C365 C360 1.425 . S
C365 C362 1.409 . S
C365 C363 1.415 . S
C366 H356 0.930 . S
C366 C364 1.419 . S
C366 C367 1.362 . S
C367 H357 0.930 . S
C367 C360 1.409 . S
C367 C366 1.362 . S
H368 C374 0.930 . S
H369 C377 0.930 . S
H370 C378 0.930 . S
H371 C379 0.930 . S
H372 C382 0.930 . S
H373 C383 0.930 . S
C374 H368 0.930 . S
C374 C375 1.355 . S
C374 C376 1.415 . S
C375 C374 1.355 . S
C375 C377 1.419 . S
C376 C374 1.415 . S
C376 C381 1.425 . S
C376 C383 1.409 . S
C377 H369 0.930 . S
C377 C375 1.419 . S
C377 C378 1.362 . S
C378 H370 0.930 . S
C378 C377 1.362 . S
C378 C381 1.409 . S
C379 H371 0.930 . S
C379 C380 1.355 . S
C379 C381 1.415 . S
C380 C379 1.355 . S
C380 C382 1.419 . S
C381 C376 1.425 . S
C381 C378 1.409 . S
C381 C379 1.415 . S
C382 H372 0.930 . S
C382 C380 1.419 . S
C382 C383 1.362 . S
C383 H373 0.930 . S
C383 C376 1.409 . S
C383 C382 1.362 . S
H384 C390 0.930 . S
H385 C393 0.930 . S
H386 C394 0.930 . S
H387 C395 0.930 . S
H388 C398 0.930 . S
H389 C399 0.930 . S
C390 H384 0.930 . S
C390 C391 1.355 . S
C390 C392 1.415 . S
C391 C390 1.355 . S
C391 C393 1.419 1_554 S
C392 C390 1.415 . S
C392 C397 1.425 1_554 S
C392 C399 1.409 . S
C393 H385 0.930 . S
C393 C391 1.419 1_556 S
C393 C394 1.362 . S
C394 H386 0.930 . S
C394 C393 1.362 . S
C394 C397 1.409 . S
C395 H387 0.930 . S
C395 C396 1.355 . S
C395 C397 1.415 . S
C396 C395 1.355 . S
C396 C398 1.419 1_556 S
C397 C392 1.425 1_556 S
C397 C394 1.409 . S
C397 C395 1.415 . S
C398 H388 0.930 . S
C398 C396 1.419 1_554 S
C398 C399 1.362 . S
C399 H389 0.930 . S
C399 C392 1.409 . S
C399 C398 1.362 . S
H400 C406 0.930 . S
H401 C409 0.930 . S
H402 C410 0.930 . S
H403 C411 0.930 . S
H404 C414 0.930 . S
H405 C415 0.930 . S
C406 H400 0.930 . S
C406 C407 1.355 . S
C406 C408 1.415 . S
C407 C406 1.355 . S
C407 C409 1.419 . S
C408 C406 1.415 . S
C408 C413 1.426 1_455 S
C408 C415 1.409 1_455 S
C409 H401 0.930 . S
C409 C407 1.419 . S
C409 C410 1.362 . S
C410 H402 0.930 . S
C410 C409 1.362 . S
C410 C413 1.410 1_455 S
C411 H403 0.930 . S
C411 C412 1.355 . S
C411 C413 1.413 . S
C412 C411 1.355 . S
C412 C414 1.419 . S
C413 C408 1.426 1_655 S
C413 C410 1.410 1_655 S
C413 C411 1.413 . S
C414 H404 0.930 . S
C414 C412 1.419 . S
C414 C415 1.362 . S
C415 H405 0.930 . S
C415 C408 1.409 1_655 S
C415 C414 1.362 . S
H416 C422 0.930 . S
H417 C425 0.930 . S
H418 C426 0.930 . S
H419 C427 0.930 . S
H420 C430 0.930 . S
H421 C431 0.930 . S
C422 H416 0.930 . S
C422 C423 1.355 . S
C422 C424 1.415 . S
C423 C422 1.355 . S
C423 C425 1.419 1_556 S
C424 C422 1.415 . S
C424 C429 1.425 1_546 S
C424 C431 1.409 1_545 S
C425 H417 0.930 . S
C425 C423 1.419 1_554 S
C425 C426 1.362 . S
C426 H418 0.930 . S
C426 C425 1.362 . S
C426 C429 1.409 1_545 S
C427 H419 0.930 . S
C427 C428 1.355 . S
C427 C429 1.415 . S
C428 C427 1.355 . S
C428 C430 1.419 1_554 S
C429 C424 1.425 1_564 S
C429 C426 1.409 1_565 S
C429 C427 1.415 . S
C430 H420 0.930 . S
C430 C428 1.419 1_556 S
C430 C431 1.362 . S
C431 H421 0.930 . S
C431 C424 1.409 1_565 S
C431 C430 1.362 . S
H432 C438 0.930 . S
H433 C441 0.930 . S
H434 C442 0.930 . S
H435 C443 0.930 . S
H436 C446 0.930 . S
H437 C447 0.930 . S
C438 H432 0.930 . S
C438 C439 1.355 . S
C438 C440 1.415 . S
C439 C438 1.355 . S
C439 C441 1.419 . S
C440 C438 1.415 . S
C440 C445 1.425 . S
C440 C447 1.409 . S
C441 H433 0.930 . S
C441 C439 1.419 . S
C441 C442 1.362 . S
C442 H434 0.930 . S
C442 C441 1.362 . S
C442 C445 1.409 . S
C443 H435 0.930 . S
C443 C444 1.355 . S
C443 C445 1.415 . S
C444 C443 1.355 . S
C444 C446 1.419 . S
C445 C440 1.425 . S
C445 C442 1.409 . S
C445 C443 1.415 . S
C446 H436 0.930 . S
C446 C444 1.419 . S
C446 C447 1.362 . S
C447 H437 0.930 . S
C447 C440 1.409 . S
C447 C446 1.362 . S
H448 C454 0.930 . S
H449 C457 0.930 . S
H450 C458 0.930 . S
H451 C459 0.930 . S
H452 C462 0.930 . S
H453 C463 0.930 . S
C454 H448 0.930 . S
C454 C455 1.355 . S
C454 C456 1.435 . S
C455 C454 1.355 . S
C455 C457 1.419 1_554 S
C456 C454 1.435 . S
C456 C461 1.432 1_454 S
C456 C463 1.382 1_455 S
C457 H449 0.930 . S
C457 C455 1.419 1_556 S
C457 C458 1.362 . S
C458 H450 0.930 . S
C458 C457 1.362 . S
C458 C461 1.409 1_455 S
C459 H451 0.930 . S
C459 C460 1.355 . S
C459 C461 1.415 . S
C460 C459 1.355 . S
C460 C462 1.419 1_556 S
C461 C456 1.432 1_656 S
C461 C458 1.409 1_655 S
C461 C459 1.415 . S
C462 H452 0.930 . S
C462 C460 1.419 1_554 S
C462 C463 1.362 . S
C463 H453 0.930 . S
C463 C456 1.382 1_655 S
C463 C462 1.362 . S
H464 C470 0.930 . S
H465 C473 0.930 . S
H466 C474 0.930 . S
H467 C475 0.930 . S
H468 C478 0.930 . S
H469 C479 0.930 . S
C470 H464 0.930 . S
C470 C471 1.355 . S
C470 C472 1.415 . S
C471 C470 1.355 . S
C471 C473 1.419 . S
C472 C470 1.415 . S
C472 C477 1.425 1_545 S
C472 C479 1.409 1_545 S
C473 H465 0.930 . S
C473 C471 1.419 . S
C473 C474 1.362 . S
C474 H466 0.930 . S
C474 C473 1.362 . S
C474 C477 1.409 1_545 S
C475 H467 0.930 . S
C475 C476 1.355 . S
C475 C477 1.415 . S
C476 C475 1.355 . S
C476 C478 1.419 . S
C477 C472 1.425 1_565 S
C477 C474 1.409 1_565 S
C477 C475 1.415 . S
C478 H468 0.930 . S
C478 C476 1.419 . S
C478 C479 1.362 . S
C479 H469 0.930 . S
C479 C472 1.409 1_565 S
C479 C478 1.362 . S
C359 C20 1.496 . S
C364 C205 1.493 . S
C375 C145 1.494 . S
C380 C313 1.491 . S
C391 C29 1.491 . S
C396 C293 1.489 . S
C407 C225 1.496 . S
C412 C117 1.501 . S
C423 C284 1.505 . S
C428 C49 1.507 . S
C439 C108 1.501 . S
C444 C233 1.497 . S
C455 C57 1.485 . S
C460 C321 1.485 . S
C471 C137 1.485 . S
C476 C196 1.480 . S
