# Generated by pormake.
# Topology crb, (4)-cn, num edge types: 1
# Building blocks:
#     Node 0, Type 0, BuildingBlock: ICAMEG_clean_sbu_1, # of connection points: 4
#     Node 1, Type 0, BuildingBlock: ICAMEG_clean_sbu_1, # of connection points: 4
#     Node 2, Type 0, BuildingBlock: ICAMEG_clean_sbu_1, # of connection points: 4
#     Node 3, Type 0, BuildingBlock: ICAMEG_clean_sbu_1, # of connection points: 4
#     Node 4, Type 0, BuildingBlock: ICAMEG_clean_sbu_1, # of connection points: 4
#     Node 5, Type 0, BuildingBlock: ICAMEG_clean_sbu_1, # of connection points: 4
#     Node 6, Type 0, BuildingBlock: ICAMEG_clean_sbu_1, # of connection points: 4
#     Node 7, Type 0, BuildingBlock: ICAMEG_clean_sbu_1, # of connection points: 4
#     Edge 8, Type (0, 0), None
#     Edge 9, Type (0, 0), None
#     Edge 10, Type (0, 0), None
#     Edge 11, Type (0, 0), None
#     Edge 12, Type (0, 0), None
#     Edge 13, Type (0, 0), None
#     Edge 14, Type (0, 0), None
#     Edge 15, Type (0, 0), None
#     Edge 16, Type (0, 0), None
#     Edge 17, Type (0, 0), None
#     Edge 18, Type (0, 0), None
#     Edge 19, Type (0, 0), None
#     Edge 20, Type (0, 0), None
#     Edge 21, Type (0, 0), None
#     Edge 22, Type (0, 0), None
#     Edge 23, Type (0, 0), None
# Relax obj value: 0.180
# Max RMSD: 0.232
# Mean RMSD: 0.231
data_MOF--net-crb--node1-ICAMEG_clean_sbu_1--edge1-none
_symmetry_space_group_name_H-M    P1
_symmetry_Int_Tables_number       1
_symmetry_cell_setting            triclinic
loop_
_symmetry_equiv_pos_as_xyz
'x, y, z'
_cell_length_a     21.327975
_cell_length_b     21.295659
_cell_length_c     13.449851
_cell_angle_alpha  89.173398
_cell_angle_beta   89.314485
_cell_angle_gamma 92.025773
loop_
_atom_site_label
_atom_site_type_symbol
_atom_site_fract_x
_atom_site_fract_y
_atom_site_fract_z
_atom_type_partial_charge
Co0 Co 0.35326 0.35416 0.87337 0.0
Co1 Co 0.34158 0.36129 0.13096 0.0
O2 O 0.31908 0.32368 0.00227 0.0
C3 C 0.22069 0.31176 0.79796 0.0
O4 O 0.20073 0.2843 0.88095 0.0
C5 C 0.31166 0.22436 0.20278 0.0
O6 O 0.29345 0.20265 0.11662 0.0
O7 O 0.43661 0.35261 0.09653 0.0
O8 O 0.43848 0.3596 0.92908 0.0
H9 H 0.39186 0.54565 0.34246 0.0
H10 H 0.28947 0.22681 0.91454 0.0
O11 O 0.26954 0.34866 0.79804 0.0
H12 H 0.49461 0.18277 0.7665 0.0
H13 H 0.39059 0.34767 0.50643 0.0
H14 H 0.4483 0.45088 0.81865 0.0
H15 H 0.46116 0.29122 0.7786 0.0
H16 H 0.33971 0.3139 0.66344 0.0
O17 O 0.34022 0.27774 0.20739 0.0
H18 H 0.41478 0.47693 0.20237 0.0
H19 H 0.29708 0.33374 0.33588 0.0
H20 H 0.50398 0.47913 0.66578 0.0
H21 H 0.32053 0.11819 0.90137 0.0
H22 H 0.46589 0.44034 0.50549 0.0
H23 H 0.42503 0.09514 0.83078 0.0
O24 O 0.33965 0.44692 0.91012 0.0
H25 H 0.11151 0.3039 0.08964 0.0
H26 H 0.26316 0.46705 0.20004 0.0
H27 H 0.15203 0.49054 0.19138 0.0
H28 H 0.07505 0.40932 0.1336 0.0
H29 H 0.2229 0.28299 0.09491 0.0
H30 H 0.27817 0.39921 0.47873 0.0
H31 H 0.32246 0.50693 0.48114 0.0
O32 O 0.34629 0.44635 0.07475 0.0
C33 C 0.46644 0.35454 0.01068 0.0
C34 C 0.37275 0.49844 0.34235 0.0
C35 C 0.30824 0.41656 0.4183 0.0
N36 N 0.35717 0.40041 0.25892 0.0
C37 C 0.38527 0.45899 0.26293 0.0
C38 C 0.32145 0.37843 0.33816 0.0
C39 C 0.33353 0.47715 0.41979 0.0
C40 C 0.33278 0.21817 0.87701 0.0
N41 N 0.37118 0.26669 0.8423 0.0
C42 C 0.35109 0.15595 0.87236 0.0
C43 C 0.40984 0.14305 0.83332 0.0
C44 C 0.44874 0.19214 0.79699 0.0
C45 C 0.42875 0.25373 0.80249 0.0
C46 C 0.4011 0.37262 0.57382 0.0
C47 C 0.43426 0.42895 0.75007 0.0
C48 C 0.37269 0.35352 0.66297 0.0
N49 N 0.38881 0.38266 0.74924 0.0
C50 C 0.46488 0.44696 0.66298 0.0
C51 C 0.44517 0.42231 0.57367 0.0
C52 C 0.34359 0.47571 -0.00577 0.0
C53 C 0.14457 0.33961 0.11539 0.0
C54 C 0.23055 0.43006 0.17824 0.0
C55 C 0.16729 0.4443 0.17202 0.0
C56 C 0.12418 0.39886 0.13937 0.0
N57 N 0.25113 0.37215 0.15215 0.0
C58 C 0.20831 0.3273 0.12147 0.0
Co59 Co 0.64875 0.35116 0.14164 0.0
Co60 Co 0.66352 0.35514 0.88267 0.0
O61 O 0.68355 0.32298 0.01529 0.0
C62 C 0.78209 0.31642 0.21577 0.0
O63 O 0.80359 0.29487 0.13167 0.0
C64 C 0.69404 0.2192 0.81906 0.0
O65 O 0.71572 0.19838 0.90358 0.0
O66 O 0.56741 0.34802 0.91677 0.0
O67 O 0.56513 0.35558 0.08329 0.0
H68 H 0.60458 0.51911 0.63238 0.0
H69 H 0.7077 0.22673 0.10462 0.0
O70 O 0.73286 0.3491 0.21577 0.0
H71 H 0.49572 0.17426 0.23527 0.0
H72 H 0.61419 0.30227 0.49764 0.0
H73 H 0.53504 0.421 0.2115 0.0
H74 H 0.53477 0.28215 0.22768 0.0
H75 H 0.67768 0.31882 0.3519 0.0
O76 O 0.66 0.26771 0.81748 0.0
H77 H 0.5912 0.46218 0.79322 0.0
H78 H 0.71388 0.32488 0.69014 0.0
H79 H 0.46488 0.39145 0.35257 0.0
H80 H 0.66719 0.11613 0.10737 0.0
H81 H 0.50414 0.32804 0.49293 0.0
H82 H 0.56151 0.08986 0.17131 0.0
O83 O 0.66627 0.44472 0.09706 0.0
H84 H 0.89154 0.31106 0.94268 0.0
H85 H 0.74582 0.45766 0.79143 0.0
H86 H 0.85769 0.48645 0.79666 0.0
H87 H 0.93156 0.41397 0.87539 0.0
H88 H 0.77962 0.28489 0.93948 0.0
H89 H 0.7217 0.37471 0.52738 0.0
H90 H 0.66893 0.47168 0.49641 0.0
O91 O 0.66542 0.44218 0.92955 0.0
C92 C 0.53727 0.35225 0.00169 0.0
C93 C 0.62566 0.47428 0.64314 0.0
C94 C 0.69167 0.39346 0.58406 0.0
N95 N 0.64911 0.38774 0.75002 0.0
C96 C 0.61823 0.44187 0.73406 0.0
C97 C 0.68459 0.36349 0.67552 0.0
C98 C 0.66197 0.44898 0.56762 0.0
C99 C 0.66284 0.21554 0.13858 0.0
N100 N 0.62651 0.26234 0.17291 0.0
C101 C 0.63994 0.15299 0.13776 0.0
C102 C 0.57974 0.13793 0.17266 0.0
C103 C 0.5431 0.18506 0.20897 0.0
C104 C 0.56689 0.24686 0.20736 0.0
C105 C 0.59689 0.32928 0.43571 0.0
C106 C 0.55373 0.39622 0.27446 0.0
C107 C 0.63468 0.34261 0.35298 0.0
N108 N 0.61243 0.37293 0.27038 0.0
C109 C 0.51328 0.37977 0.35401 0.0
C110 C 0.53497 0.34484 0.43367 0.0
C111 C 0.66954 0.47228 0.00912 0.0
C112 C 0.85986 0.34288 0.9074 0.0
C113 C 0.77724 0.42382 0.82163 0.0
C114 C 0.84083 0.44133 0.82615 0.0
C115 C 0.88223 0.40078 0.87046 0.0
N116 N 0.75466 0.36724 0.8601 0.0
C117 C 0.79584 0.3272 0.90235 0.0
Co118 Co 0.654 0.6478 0.13337 0.0
Co119 Co 0.66468 0.66701 0.88332 0.0
O120 O 0.69057 0.69022 0.01685 0.0
C121 C 0.7018 0.77571 0.21278 0.0
O122 O 0.72222 0.79496 0.12469 0.0
C123 C 0.80288 0.66889 0.7959 0.0
O124 O 0.8152 0.61003 0.81534 0.0
O125 O 0.68632 0.57381 0.91486 0.0
O126 O 0.63825 0.56952 0.06185 0.0
H127 H 0.53619 0.70724 0.59219 0.0
H128 H 0.78601 0.70199 0.11413 0.0
O129 O 0.66886 0.72438 0.222 0.0
H130 H 0.80869 0.48399 0.23045 0.0
H131 H 0.64716 0.57078 0.48638 0.0
H132 H 0.5468 0.55732 0.16308 0.0
H133 H 0.70441 0.52745 0.21655 0.0
H134 H 0.68808 0.63723 0.34697 0.0
O135 O 0.7522 0.69257 0.82824 0.0
H136 H 0.54484 0.66591 0.75973 0.0
H137 H 0.72538 0.60554 0.70065 0.0
H138 H 0.49745 0.50492 0.30844 0.0
H139 H 0.89056 0.65964 0.12466 0.0
H140 H 0.54878 0.50925 0.47114 0.0
H141 H 0.90295 0.54935 0.18134 0.0
O142 O 0.56718 0.67614 0.087 0.0
H143 H 0.71099 0.89986 0.90924 0.0
H144 H 0.54358 0.74459 0.84409 0.0
H145 H 0.51977 0.8533 0.8479 0.0
H146 H 0.60335 0.93322 0.88308 0.0
H147 H 0.73481 0.78793 0.90469 0.0
H148 H 0.72521 0.65462 0.53347 0.0
H149 H 0.62868 0.70755 0.47774 0.0
O150 O 0.57536 0.64668 0.92771 0.0
C151 C 0.66907 0.54298 -0.0041 0.0
C152 C 0.57972 0.68806 0.61539 0.0
C153 C 0.68578 0.65943 0.58388 0.0
N154 N 0.64112 0.64701 0.74701 0.0
C155 C 0.58509 0.66557 0.71222 0.0
C156 C 0.68673 0.63349 0.67959 0.0
C157 C 0.63165 0.68821 0.55217 0.0
C158 C 0.78991 0.65473 0.14174 0.0
N159 N 0.73769 0.61826 0.16625 0.0
C160 C 0.84984 0.63057 0.14615 0.0
C161 C 0.85678 0.56872 0.17779 0.0
C162 C 0.80399 0.53217 0.20563 0.0
C163 C 0.74474 0.5576 0.19866 0.0
C164 C 0.62279 0.57192 0.41778 0.0
C165 C 0.56792 0.56315 0.23508 0.0
C166 C 0.64608 0.60807 0.33776 0.0
N167 N 0.61802 0.60373 0.24741 0.0
C168 C 0.54007 0.53207 0.31663 0.0
C169 C 0.56827 0.53555 0.40829 0.0
C170 C 0.54274 0.66742 -0.00049 0.0
C171 C 0.67503 0.86514 0.89193 0.0
C172 C 0.58259 0.77626 0.85268 0.0
C173 C 0.5677 0.83943 0.85755 0.0
C174 C 0.61428 0.88411 0.87792 0.0
N175 N 0.64283 0.75666 0.86545 0.0
C176 C 0.68839 0.8014 0.88613 0.0
Co177 Co 0.35459 0.65612 0.85709 0.0
Co178 Co 0.35335 0.6726 0.11441 0.0
O179 O 0.3216 0.69029 0.98186 0.0
C180 C 0.31736 0.78909 0.77944 0.0
O181 O 0.29934 0.81061 0.86561 0.0
C182 C 0.21642 0.70123 0.18865 0.0
O183 O 0.1926 0.72217 0.10576 0.0
O184 O 0.34223 0.57662 0.085 0.0
O185 O 0.36417 0.57326 0.91962 0.0
H186 H 0.53534 0.6636 0.33268 0.0
H187 H 0.22902 0.71187 0.88702 0.0
O188 O 0.34505 0.73695 0.7751 0.0
H189 H 0.18566 0.49328 0.7881 0.0
H190 H 0.33754 0.6186 0.49249 0.0
H191 H 0.46854 0.59008 0.7874 0.0
H192 H 0.29296 0.53892 0.77861 0.0
H193 H 0.30195 0.65305 0.65513 0.0
O194 O 0.26697 0.67042 0.18633 0.0
H195 H 0.46619 0.61452 0.2026 0.0
H196 H 0.31857 0.71931 0.31213 0.0
H197 H 0.5135 0.5748 0.61872 0.0
H198 H 0.12152 0.66784 0.89955 0.0
H199 H 0.44644 0.58082 0.47366 0.0
H200 H 0.09931 0.55686 0.8533 0.0
O201 O 0.44687 0.67812 0.89619 0.0
H202 H 0.30403 0.8995 0.05002 0.0
H203 H 0.46066 0.75717 0.17925 0.0
H204 H 0.48655 0.8693 0.16577 0.0
H205 H 0.40852 0.94176 0.09823 0.0
H206 H 0.27994 0.78663 0.06304 0.0
H207 H 0.37733 0.7488 0.4568 0.0
H208 H 0.4906 0.73196 0.45559 0.0
O209 O 0.43983 0.66981 0.06145 0.0
C210 C 0.34905 0.5463 0.00122 0.0
C211 C 0.48593 0.67008 0.33159 0.0
C212 C 0.39776 0.71991 0.40069 0.0
N213 N 0.38736 0.66247 0.2481 0.0
C214 C 0.44714 0.64366 0.2584 0.0
C215 C 0.36221 0.69804 0.3216 0.0
C216 C 0.46103 0.70918 0.40178 0.0
C217 C 0.21979 0.66491 0.86164 0.0
N218 N 0.26785 0.62907 0.83007 0.0
C219 C 0.15874 0.63955 0.8712 0.0
C220 C 0.14638 0.57721 0.84581 0.0
C221 C 0.1947 0.54166 0.80879 0.0
C222 C 0.25537 0.56833 0.80188 0.0
C223 C 0.36757 0.61391 0.55616 0.0
C224 C 0.44065 0.59878 0.72252 0.0
C225 C 0.34684 0.63164 0.64945 0.0
N226 N 0.38285 0.62308 0.73182 0.0
C227 C 0.46556 0.58788 0.62822 0.0
C228 C 0.42799 0.59266 0.54553 0.0
C229 C 0.47253 0.67323 0.98317 0.0
C230 C 0.33771 0.86848 0.08149 0.0
C231 C 0.42452 0.78763 0.15508 0.0
C232 C 0.4403 0.85161 0.14558 0.0
C233 C 0.3967 0.89215 0.10744 0.0
N234 N 0.36654 0.76391 0.12839 0.0
C235 C 0.32357 0.80414 0.09194 0.0
Co236 Co 0.85997 0.85018 0.38073 0.0
Co237 Co 0.84519 0.84494 0.63147 0.0
O238 O 0.81848 0.81728 0.5004 0.0
C239 C 0.73063 0.80372 0.30362 0.0
O240 O 0.71069 0.78473 0.392 0.0
C241 C 0.84052 0.70655 0.71989 0.0
O242 O 0.89871 0.69298 0.69865 0.0
O243 O 0.93687 0.82034 0.59702 0.0
O244 O 0.93976 0.86699 0.44867 0.0
H245 H 0.82508 0.98934 0.90878 0.0
H246 H 0.80254 0.72009 0.40755 0.0
O247 O 0.78294 0.83468 0.29389 0.0
H248 H 0.02006 0.68843 0.29905 0.0
H249 H 0.94524 0.84088 0.03359 0.0
H250 H 0.94177 0.96036 0.33928 0.0
H251 H 0.97908 0.7944 0.3027 0.0
H252 H 0.87616 0.80499 0.17223 0.0
O253 O 0.81807 0.75856 0.69013 0.0
H254 H 0.86466 0.9684 0.74322 0.0
H255 H 0.89674 0.78222 0.82306 0.0
H256 H 0.97987 0.01338 0.18441 0.0
H257 H 0.84213 0.61397 0.40679 0.0
H258 H 0.98975 0.95081 0.03196 0.0
H259 H 0.95219 0.59712 0.35426 0.0
O260 O 0.83288 0.93862 0.42291 0.0
H261 H 0.61168 0.81008 0.60479 0.0
H262 H 0.77474 0.96746 0.68339 0.0
H263 H 0.66741 0.9971 0.68108 0.0
H264 H 0.58378 0.91868 0.63894 0.0
H265 H 0.72201 0.77998 0.61042 0.0
H266 H 0.8462 0.79522 0.98587 0.0
H267 H 0.80959 0.90089 0.03138 0.0
O268 O 0.86607 0.93326 0.58059 0.0
C269 C 0.96682 0.83623 0.51473 0.0
C270 C 0.83792 0.94243 0.89048 0.0
C271 C 0.8489 0.83379 0.93248 0.0
N272 N 0.8689 0.87034 0.76601 0.0
C273 C 0.8602 0.93027 0.79523 0.0
C274 C 0.87458 0.82539 0.83823 0.0
C275 C 0.82935 0.89304 0.95838 0.0
C276 C 0.84971 0.71412 0.38146 0.0
N277 N 0.88757 0.76479 0.35375 0.0
C278 C 0.87231 0.65337 0.38273 0.0
C279 C 0.93403 0.64394 0.35345 0.0
C280 C 0.97199 0.69506 0.32222 0.0
C281 C 0.94808 0.75524 0.32354 0.0
C282 C 0.9388 0.87062 0.09639 0.0
C283 C 0.93724 0.93683 0.2691 0.0
C284 C 0.90186 0.84951 0.17686 0.0
N285 N 0.90237 0.8825 0.26303 0.0
C286 C 0.96275 0.96526 0.18325 0.0
C287 C 0.96569 0.93099 0.09683 0.0
C288 C 0.84285 0.96462 0.50902 0.0
C289 C 0.64793 0.84369 0.62534 0.0
C290 C 0.74099 0.93056 0.67147 0.0
C291 C 0.67885 0.9488 0.66767 0.0
C292 C 0.63209 0.90507 0.64356 0.0
N293 N 0.75736 0.86986 0.65336 0.0
C294 C 0.71066 0.82685 0.63069 0.0
Co295 Co 0.15606 0.85619 0.36543 0.0
Co296 Co 0.15579 0.84396 0.62349 0.0
O297 O 0.18801 0.82332 0.49063 0.0
C298 C 0.19247 0.72447 0.2873 0.0
O299 O 0.21455 0.70266 0.37106 0.0
C300 C 0.29232 0.81571 0.68411 0.0
O301 O 0.31269 0.79454 0.59908 0.0
O302 O 0.16131 0.94099 0.58737 0.0
O303 O 0.15076 0.94022 0.42224 0.0
H304 H 0.9907 0.89626 0.87776 0.0
H305 H 0.28266 0.80142 0.39376 0.0
O306 O 0.16102 0.77442 0.28724 0.0
H307 H 0.32493 0.0166 0.2663 0.0
H308 H 0.20163 0.92644 0.02424 0.0
H309 H 0.06277 0.94684 0.31579 0.0
H310 H 0.2181 0.9732 0.27795 0.0
H311 H 0.19229 0.84235 0.15037 0.0
O312 O 0.24376 0.84956 0.68647 0.0
H313 H 0.04107 0.90443 0.71215 0.0
H314 H 0.19109 0.79953 0.8187 0.0
H315 H 0.07845 0.0335 0.19889 0.0
H316 H 0.39197 0.84524 0.38497 0.0
H317 H 0.15282 0.02824 0.06276 0.0
H318 H 0.41304 0.953 0.32346 0.0
O319 O 0.064 0.83533 0.41225 0.0
H320 H 0.20122 0.61657 0.56053 0.0
H321 H 0.05565 0.76006 0.71821 0.0
H322 H 0.02677 0.64851 0.70906 0.0
H323 H 0.09864 0.57567 0.62693 0.0
H324 H 0.22738 0.72838 0.56681 0.0
H325 H 0.14841 0.7984 0.98569 0.0
H326 H 0.04831 0.84553 0.01822 0.0
O327 O 0.06848 0.84042 0.57822 0.0
C328 C 0.1564 0.97006 0.5012 0.0
C329 C 0.03651 0.87739 0.86606 0.0
C330 C 0.12521 0.82325 0.92716 0.0
N331 N 0.12313 0.85792 0.75659 0.0
C332 C 0.06565 0.8824 0.77228 0.0
C333 C 0.15146 0.82719 0.83272 0.0
C334 C 0.0677 0.84891 0.94425 0.0
C335 C 0.29176 0.84703 0.36058 0.0
N336 N 0.24307 0.88216 0.33001 0.0
C337 C 0.35349 0.87196 0.35831 0.0
C338 C 0.36559 0.93317 0.32454 0.0
C339 C 0.31637 0.96862 0.292 0.0
C340 C 0.25549 0.94266 0.29642 0.0
C341 C 0.17049 0.93058 0.0876 0.0
C342 C 0.09153 0.94096 0.25015 0.0
C343 C 0.16246 0.88183 0.15719 0.0
N344 N 0.12805 0.89069 0.24221 0.0
C345 C 0.10111 0.99115 0.18533 0.0
C346 C 0.14236 0.987 0.1065 0.0
C347 C 0.03733 0.83433 0.50024 0.0
C348 C 0.16964 0.64781 0.59718 0.0
C349 C 0.08943 0.72927 0.68677 0.0
C350 C 0.07176 0.66574 0.67986 0.0
C351 C 0.11193 0.62494 0.63361 0.0
N352 N 0.14548 0.75259 0.64769 0.0
C353 C 0.18536 0.71182 0.60413 0.0
Co354 Co 0.15116 0.1553 0.61894 0.0
Co355 Co 0.14154 0.16368 0.36626 0.0
O356 O 0.17872 0.19113 0.49196 0.0
C357 C 0.19608 0.28819 0.70019 0.0
O358 O 0.21755 0.31317 0.61616 0.0
C359 C 0.28143 0.19888 0.29642 0.0
O360 O 0.30706 0.20994 0.38293 0.0
O361 O 0.16332 0.07062 0.40078 0.0
O362 O 0.13537 0.07068 0.56178 0.0
H363 H 0.96396 0.16101 0.12841 0.0
H364 H 0.27646 0.22056 0.58867 0.0
O365 O 0.16602 0.23504 0.70081 0.0
H366 H 0.32393 1.00238 0.67483 0.0
H367 H 0.20648 0.05688 0.92936 0.0
H368 H 0.04083 0.08059 0.68261 0.0
H369 H 0.21558 0.03681 0.68156 0.0
H370 H 0.20697 0.14911 0.81989 0.0
O371 O 0.22357 0.18246 0.29148 0.0
H372 H 0.00817 0.13165 0.2842 0.0
H373 H 0.19058 0.13636 0.15307 0.0
H374 H 0.03273 0.9944 0.79871 0.0
H375 H 0.38527 0.18837 0.58258 0.0
H376 H 0.11861 0.97577 0.91646 0.0
H377 H 0.40984 0.07782 0.62244 0.0
O378 O 0.06017 0.17721 0.58576 0.0
H379 H 0.1807 0.39599 0.39862 0.0
H380 H 0.02016 0.23434 0.32404 0.0
H381 H 0.99128 0.34265 0.33114 0.0
H382 H 0.0712 0.42519 0.37246 0.0
H383 H 0.20922 0.28533 0.38719 0.0
H384 H 0.14754 0.16801 -0.00435 0.0
H385 H 0.03303 0.18022 0.97903 0.0
O386 O 0.05887 0.14453 0.42873 0.0
C387 C 0.15382 0.04148 0.48671 0.0
C388 C 0.01405 0.15632 0.13278 0.0
C389 C 0.11667 0.16031 0.05901 0.0
N390 N 0.10437 0.1427 0.23585 0.0
C391 C 0.04046 0.14132 0.22379 0.0
C392 C 0.14141 0.14541 0.15153 0.0
C393 C 0.05261 0.16734 0.05 0.0
C394 C 0.28625 0.17356 0.61183 0.0
N395 N 0.23862 0.13183 0.63867 0.0
C396 C 0.3483 0.15501 0.60579 0.0
C397 C 0.36201 0.09295 0.62758 0.0
C398 C 0.31391 0.05073 0.65718 0.0
C399 C 0.25238 0.07089 0.6616 0.0
C400 C 0.16739 0.06353 0.88032 0.0
C401 C 0.0742 0.07858 0.74209 0.0
C402 C 0.16744 0.11598 0.81805 0.0
N403 N 0.12535 0.11812 0.74279 0.0
C404 C 0.07052 0.02796 0.8068 0.0
C405 C 0.1187 0.01849 0.8731 0.0
C406 C 0.03051 0.1634 0.50451 0.0
C407 C 0.14605 0.36035 0.37905 0.0
C408 C 0.05742 0.26844 0.33367 0.0
C409 C 0.03977 0.33071 0.34093 0.0
C410 C 0.08435 0.37685 0.36491 0.0
N411 N 0.11841 0.25179 0.34725 0.0
C412 C 0.16227 0.29766 0.36949 0.0
Co413 Co 0.85128 0.15636 0.64543 0.0
Co414 Co 0.83334 0.15338 0.38733 0.0
O415 O 0.81545 0.18582 0.51945 0.0
C416 C 0.71951 0.19425 0.72302 0.0
O417 O 0.69927 0.21535 0.63759 0.0
C418 C 0.80571 0.29128 0.31395 0.0
O419 O 0.78683 0.31508 0.39801 0.0
O420 O 0.92907 0.16446 0.41619 0.0
O421 O 0.93407 0.15003 0.58337 0.0
H422 H 0.83865 0.97024 0.17355 0.0
H423 H 0.79322 0.28119 0.60545 0.0
O424 O 0.76941 0.1626 0.72618 0.0
H425 H 0.00796 0.33074 0.71578 0.0
H426 H 0.88646 0.18063 0.00924 0.0
H427 H 0.92972 0.051 0.71789 0.0
H428 H 0.96536 0.2224 0.72453 0.0
H429 H 0.84818 0.20992 0.84578 0.0
O430 O 0.8345 0.23949 0.31448 0.0
H431 H 0.88906 0.04011 0.30187 0.0
H432 H 0.79039 0.18956 0.18462 0.0
H433 H 0.9534 0.01119 0.88884 0.0
H434 H 0.83399 0.38997 0.59612 0.0
H435 H 0.93456 0.07596 0.03242 0.0
H436 H 0.94306 0.41532 0.6476 0.0
O437 O 0.8338 0.06232 0.60924 0.0
H438 H 0.60579 0.19968 0.45028 0.0
H439 H 0.75036 0.04505 0.32334 0.0
H440 H 0.63891 0.01758 0.33636 0.0
H441 H 0.56545 0.09464 0.40323 0.0
H442 H 0.71865 0.22642 0.43572 0.0
H443 H 0.76344 0.13114 0.03879 0.0
H444 H 0.77548 0.01681 0.04392 0.0
O445 O 0.83644 0.06691 0.44293 0.0
C446 C 0.96011 0.16022 0.4997 0.0
C447 C 0.83489 0.0204 0.17132 0.0
C448 C 0.79016 0.10998 0.09712 0.0
N449 N 0.84397 0.11942 0.2534 0.0
C450 C 0.86182 0.05937 0.24413 0.0
C451 C 0.81053 0.14519 0.17761 0.0
C452 C 0.79865 0.04618 0.09787 0.0
C453 C 0.83893 0.29162 0.63454 0.0
N454 N 0.8751 0.24464 0.66965 0.0
C455 C 0.86258 0.35351 0.62636 0.0
C456 C 0.92394 0.36768 0.65459 0.0
C457 C 0.9602 0.32036 0.69327 0.0
C458 C 0.93508 0.259 0.69988 0.0
C459 C 0.89477 0.15057 0.94677 0.0
C460 C 0.91851 0.07826 0.78236 0.0
C461 C 0.87412 0.16764 0.85309 0.0
N462 N 0.88608 0.13171 0.77192 0.0
C463 C 0.9346 0.05686 0.87721 0.0
C464 C 0.92283 0.09319 0.95936 0.0
C465 C 0.83631 0.03533 0.52285 0.0
C466 C 0.63756 0.1667 0.41929 0.0
C467 C 0.7195 0.08097 0.34654 0.0
C468 C 0.65588 0.06421 0.35605 0.0
C469 C 0.61481 0.10724 0.39389 0.0
N470 N 0.74238 0.13942 0.37269 0.0
C471 C 0.70163 0.18205 0.40838 0.0
loop_
_geom_bond_atom_site_label_1
_geom_bond_atom_site_label_2
_geom_bond_distance
_geom_bond_site_symmetry_2
_ccdc_geom_bond_type
Co0 O2 2.143 1_556 S
Co0 O8 2.074 . S
Co0 O11 2.093 . S
Co0 O24 2.097 . S
Co0 N41 2.151 . S
Co0 N49 2.214 . S
Co1 O2 2.160 . S
Co1 O7 2.058 . S
Co1 O17 2.057 . S
Co1 O32 2.037 . S
Co1 N36 2.145 . S
Co1 N57 2.257 . S
O2 Co0 2.143 1_554 S
O2 Co1 2.160 . S
C3 O4 1.278 . S
C3 O11 1.224 . S
O4 C3 1.278 . S
C5 O6 1.245 . S
C5 O17 1.232 . S
O6 C5 1.245 . S
O7 Co1 2.058 . S
O7 C33 1.269 . S
O8 Co0 2.074 . S
O8 C33 1.257 1_556 S
H9 C34 0.930 . S
H10 C40 0.930 . S
O11 Co0 2.093 . S
O11 C3 1.224 . S
H12 C44 0.929 . S
H13 C46 0.930 . S
H14 C47 0.930 . S
H15 C45 0.929 . S
H16 C48 0.928 . S
O17 Co1 2.057 . S
O17 C5 1.232 . S
H18 C37 0.929 . S
H19 C38 0.929 . S
H20 C50 0.931 . S
H21 C42 0.929 . S
H22 C51 0.930 . S
H23 C43 0.931 . S
O24 Co0 2.097 . S
O24 C52 1.214 . S
H25 C53 0.929 . S
H26 C54 0.929 . S
H27 C55 0.930 . S
H28 C56 0.929 . S
H29 C58 0.930 . S
H30 C35 0.930 . S
H31 C39 0.930 . S
O32 Co1 2.037 . S
O32 C52 1.234 1_554 S
C33 O7 1.269 . S
C33 O8 1.257 1_554 S
C34 H9 0.930 . S
C34 C37 1.388 . S
C34 C39 1.418 . S
C35 H30 0.930 . S
C35 C38 1.404 . S
C35 C39 1.353 . S
N36 Co1 2.145 . S
N36 C37 1.397 . S
N36 C38 1.334 . S
C37 H18 0.929 . S
C37 C34 1.388 . S
C37 N36 1.397 . S
C38 H19 0.929 . S
C38 C35 1.404 . S
C38 N36 1.334 . S
C39 H31 0.930 . S
C39 C34 1.418 . S
C39 C35 1.353 . S
C40 H10 0.930 . S
C40 N41 1.330 . S
C40 C42 1.446 . S
N41 Co0 2.151 . S
N41 C40 1.330 . S
N41 C45 1.418 . S
C42 H21 0.929 . S
C42 C40 1.446 . S
C42 C43 1.332 . S
C43 H23 0.931 . S
C43 C42 1.332 . S
C43 C44 1.267 . S
C44 H12 0.929 . S
C44 C43 1.267 . S
C44 C45 1.251 . S
C45 H15 0.929 . S
C45 N41 1.418 . S
C45 C44 1.251 . S
C46 H13 0.930 . S
C46 C48 1.406 . S
C46 C51 1.261 . S
C47 H14 0.930 . S
C47 N49 1.325 . S
C47 C50 1.357 . S
C48 H16 0.928 . S
C48 C46 1.406 . S
C48 N49 1.261 . S
N49 Co0 2.214 . S
N49 C47 1.325 . S
N49 C48 1.261 . S
C50 H20 0.931 . S
C50 C47 1.357 . S
C50 C51 1.312 . S
C51 H22 0.930 . S
C51 C46 1.261 . S
C51 C50 1.312 . S
C52 O24 1.214 . S
C52 O32 1.234 1_556 S
C53 H25 0.929 . S
C53 C56 1.391 . S
C53 C58 1.391 . S
C54 H26 0.929 . S
C54 C55 1.390 . S
C54 N57 1.391 . S
C55 H27 0.930 . S
C55 C54 1.390 . S
C55 C56 1.392 . S
C56 H28 0.929 . S
C56 C53 1.391 . S
C56 C55 1.392 . S
N57 Co1 2.257 . S
N57 C54 1.391 . S
N57 C58 1.388 . S
C58 H29 0.930 . S
C58 C53 1.391 . S
C58 N57 1.388 . S
Co59 O61 2.143 . S
Co59 O67 2.074 . S
Co59 O70 2.093 . S
Co59 O83 2.097 . S
Co59 N100 2.151 . S
Co59 N108 2.214 . S
Co60 O61 2.160 1_556 S
Co60 O66 2.058 . S
Co60 O76 2.057 . S
Co60 O91 2.037 . S
Co60 N95 2.145 . S
Co60 N116 2.257 . S
O61 Co59 2.143 . S
O61 Co60 2.160 1_554 S
C62 O63 1.278 . S
C62 O70 1.224 . S
O63 C62 1.278 . S
C64 O65 1.245 . S
C64 O76 1.232 . S
O65 C64 1.245 . S
O66 Co60 2.058 . S
O66 C92 1.269 . S
O67 Co59 2.074 . S
O67 C92 1.257 1_554 S
H68 C93 0.930 . S
H69 C99 0.930 . S
O70 Co59 2.093 . S
O70 C62 1.224 . S
H71 C103 0.929 . S
H72 C105 0.930 . S
H73 C106 0.930 . S
H74 C104 0.929 . S
H75 C107 0.928 . S
O76 Co60 2.057 . S
O76 C64 1.232 . S
H77 C96 0.929 . S
H78 C97 0.929 . S
H79 C109 0.931 . S
H80 C101 0.929 . S
H81 C110 0.930 . S
H82 C102 0.931 . S
O83 Co59 2.097 . S
O83 C111 1.214 . S
H84 C112 0.929 . S
H85 C113 0.929 . S
H86 C114 0.930 . S
H87 C115 0.929 . S
H88 C117 0.930 . S
H89 C94 0.930 . S
H90 C98 0.930 . S
O91 Co60 2.037 . S
O91 C111 1.234 1_556 S
C92 O66 1.269 . S
C92 O67 1.257 1_556 S
C93 H68 0.930 . S
C93 C96 1.388 . S
C93 C98 1.418 . S
C94 H89 0.930 . S
C94 C97 1.404 . S
C94 C98 1.353 . S
N95 Co60 2.145 . S
N95 C96 1.397 . S
N95 C97 1.334 . S
C96 H77 0.929 . S
C96 C93 1.388 . S
C96 N95 1.397 . S
C97 H78 0.929 . S
C97 C94 1.404 . S
C97 N95 1.334 . S
C98 H90 0.930 . S
C98 C93 1.418 . S
C98 C94 1.353 . S
C99 H69 0.930 . S
C99 N100 1.330 . S
C99 C101 1.446 . S
N100 Co59 2.151 . S
N100 C99 1.330 . S
N100 C104 1.418 . S
C101 H80 0.929 . S
C101 C99 1.446 . S
C101 C102 1.332 . S
C102 H82 0.931 . S
C102 C101 1.332 . S
C102 C103 1.267 . S
C103 H71 0.929 . S
C103 C102 1.267 . S
C103 C104 1.251 . S
C104 H74 0.929 . S
C104 N100 1.418 . S
C104 C103 1.251 . S
C105 H72 0.930 . S
C105 C107 1.406 . S
C105 C110 1.261 . S
C106 H73 0.930 . S
C106 N108 1.325 . S
C106 C109 1.357 . S
C107 H75 0.928 . S
C107 C105 1.406 . S
C107 N108 1.261 . S
N108 Co59 2.214 . S
N108 C106 1.325 . S
N108 C107 1.261 . S
C109 H79 0.931 . S
C109 C106 1.357 . S
C109 C110 1.312 . S
C110 H81 0.930 . S
C110 C105 1.261 . S
C110 C109 1.312 . S
C111 O83 1.214 . S
C111 O91 1.234 1_554 S
C112 H84 0.929 . S
C112 C115 1.391 . S
C112 C117 1.391 . S
C113 H85 0.929 . S
C113 C114 1.390 . S
C113 N116 1.391 . S
C114 H86 0.930 . S
C114 C113 1.390 . S
C114 C115 1.392 . S
C115 H87 0.929 . S
C115 C112 1.391 . S
C115 C114 1.392 . S
N116 Co60 2.257 . S
N116 C113 1.391 . S
N116 C117 1.388 . S
C117 H88 0.930 . S
C117 C112 1.391 . S
C117 N116 1.388 . S
Co118 O120 2.143 . S
Co118 O126 2.074 . S
Co118 O129 2.093 . S
Co118 O142 2.097 . S
Co118 N159 2.151 . S
Co118 N167 2.214 . S
Co119 O120 2.160 1_556 S
Co119 O125 2.058 . S
Co119 O135 2.057 . S
Co119 O150 2.037 . S
Co119 N154 2.145 . S
Co119 N175 2.257 . S
O120 Co118 2.143 . S
O120 Co119 2.160 1_554 S
C121 O122 1.278 . S
C121 O129 1.224 . S
O122 C121 1.278 . S
C123 O124 1.245 . S
C123 O135 1.232 . S
O124 C123 1.245 . S
O125 Co119 2.058 . S
O125 C151 1.269 . S
O126 Co118 2.074 . S
O126 C151 1.257 1_554 S
H127 C152 0.930 . S
H128 C158 0.930 . S
O129 Co118 2.093 . S
O129 C121 1.224 . S
H130 C162 0.929 . S
H131 C164 0.930 . S
H132 C165 0.930 . S
H133 C163 0.929 . S
H134 C166 0.928 . S
O135 Co119 2.057 . S
O135 C123 1.232 . S
H136 C155 0.929 . S
H137 C156 0.929 . S
H138 C168 0.931 . S
H139 C160 0.929 . S
H140 C169 0.930 . S
H141 C161 0.931 . S
O142 Co118 2.097 . S
O142 C170 1.214 . S
H143 C171 0.929 . S
H144 C172 0.929 . S
H145 C173 0.930 . S
H146 C174 0.929 . S
H147 C176 0.930 . S
H148 C153 0.930 . S
H149 C157 0.930 . S
O150 Co119 2.037 . S
O150 C170 1.234 1_556 S
C151 O125 1.269 . S
C151 O126 1.257 1_556 S
C152 H127 0.930 . S
C152 C155 1.388 . S
C152 C157 1.418 . S
C153 H148 0.930 . S
C153 C156 1.404 . S
C153 C157 1.353 . S
N154 Co119 2.145 . S
N154 C155 1.397 . S
N154 C156 1.334 . S
C155 H136 0.929 . S
C155 C152 1.388 . S
C155 N154 1.397 . S
C156 H137 0.929 . S
C156 C153 1.404 . S
C156 N154 1.334 . S
C157 H149 0.930 . S
C157 C152 1.418 . S
C157 C153 1.353 . S
C158 H128 0.930 . S
C158 N159 1.330 . S
C158 C160 1.446 . S
N159 Co118 2.151 . S
N159 C158 1.330 . S
N159 C163 1.418 . S
C160 H139 0.929 . S
C160 C158 1.446 . S
C160 C161 1.332 . S
C161 H141 0.931 . S
C161 C160 1.332 . S
C161 C162 1.267 . S
C162 H130 0.929 . S
C162 C161 1.267 . S
C162 C163 1.251 . S
C163 H133 0.929 . S
C163 N159 1.418 . S
C163 C162 1.251 . S
C164 H131 0.930 . S
C164 C166 1.406 . S
C164 C169 1.261 . S
C165 H132 0.930 . S
C165 N167 1.325 . S
C165 C168 1.357 . S
C166 H134 0.928 . S
C166 C164 1.406 . S
C166 N167 1.261 . S
N167 Co118 2.214 . S
N167 C165 1.325 . S
N167 C166 1.261 . S
C168 H138 0.931 . S
C168 C165 1.357 . S
C168 C169 1.312 . S
C169 H140 0.930 . S
C169 C164 1.261 . S
C169 C168 1.312 . S
C170 O142 1.214 . S
C170 O150 1.234 1_554 S
C171 H143 0.929 . S
C171 C174 1.391 . S
C171 C176 1.391 . S
C172 H144 0.929 . S
C172 C173 1.390 . S
C172 N175 1.391 . S
C173 H145 0.930 . S
C173 C172 1.390 . S
C173 C174 1.392 . S
C174 H146 0.929 . S
C174 C171 1.391 . S
C174 C173 1.392 . S
N175 Co119 2.257 . S
N175 C172 1.391 . S
N175 C176 1.388 . S
C176 H147 0.930 . S
C176 C171 1.391 . S
C176 N175 1.388 . S
Co177 O179 2.143 1_556 S
Co177 O185 2.074 . S
Co177 O188 2.093 . S
Co177 O201 2.097 . S
Co177 N218 2.151 . S
Co177 N226 2.214 . S
Co178 O179 2.160 . S
Co178 O184 2.058 . S
Co178 O194 2.057 . S
Co178 O209 2.037 . S
Co178 N213 2.145 . S
Co178 N234 2.257 . S
O179 Co177 2.143 1_554 S
O179 Co178 2.160 . S
C180 O181 1.278 . S
C180 O188 1.224 . S
O181 C180 1.278 . S
C182 O183 1.245 . S
C182 O194 1.232 . S
O183 C182 1.245 . S
O184 Co178 2.058 . S
O184 C210 1.269 . S
O185 Co177 2.074 . S
O185 C210 1.257 1_556 S
H186 C211 0.930 . S
H187 C217 0.930 . S
O188 Co177 2.093 . S
O188 C180 1.224 . S
H189 C221 0.929 . S
H190 C223 0.930 . S
H191 C224 0.930 . S
H192 C222 0.929 . S
H193 C225 0.928 . S
O194 Co178 2.057 . S
O194 C182 1.232 . S
H195 C214 0.929 . S
H196 C215 0.929 . S
H197 C227 0.931 . S
H198 C219 0.929 . S
H199 C228 0.930 . S
H200 C220 0.931 . S
O201 Co177 2.097 . S
O201 C229 1.214 . S
H202 C230 0.929 . S
H203 C231 0.929 . S
H204 C232 0.930 . S
H205 C233 0.929 . S
H206 C235 0.930 . S
H207 C212 0.930 . S
H208 C216 0.930 . S
O209 Co178 2.037 . S
O209 C229 1.234 1_554 S
C210 O184 1.269 . S
C210 O185 1.257 1_554 S
C211 H186 0.930 . S
C211 C214 1.388 . S
C211 C216 1.418 . S
C212 H207 0.930 . S
C212 C215 1.404 . S
C212 C216 1.353 . S
N213 Co178 2.145 . S
N213 C214 1.397 . S
N213 C215 1.334 . S
C214 H195 0.929 . S
C214 C211 1.388 . S
C214 N213 1.397 . S
C215 H196 0.929 . S
C215 C212 1.404 . S
C215 N213 1.334 . S
C216 H208 0.930 . S
C216 C211 1.418 . S
C216 C212 1.353 . S
C217 H187 0.930 . S
C217 N218 1.330 . S
C217 C219 1.446 . S
N218 Co177 2.151 . S
N218 C217 1.330 . S
N218 C222 1.418 . S
C219 H198 0.929 . S
C219 C217 1.446 . S
C219 C220 1.332 . S
C220 H200 0.931 . S
C220 C219 1.332 . S
C220 C221 1.267 . S
C221 H189 0.929 . S
C221 C220 1.267 . S
C221 C222 1.251 . S
C222 H192 0.929 . S
C222 N218 1.418 . S
C222 C221 1.251 . S
C223 H190 0.930 . S
C223 C225 1.406 . S
C223 C228 1.261 . S
C224 H191 0.930 . S
C224 N226 1.325 . S
C224 C227 1.357 . S
C225 H193 0.928 . S
C225 C223 1.406 . S
C225 N226 1.261 . S
N226 Co177 2.214 . S
N226 C224 1.325 . S
N226 C225 1.261 . S
C227 H197 0.931 . S
C227 C224 1.357 . S
C227 C228 1.312 . S
C228 H199 0.930 . S
C228 C223 1.261 . S
C228 C227 1.312 . S
C229 O201 1.214 . S
C229 O209 1.234 1_556 S
C230 H202 0.929 . S
C230 C233 1.391 . S
C230 C235 1.391 . S
C231 H203 0.929 . S
C231 C232 1.390 . S
C231 N234 1.391 . S
C232 H204 0.930 . S
C232 C231 1.390 . S
C232 C233 1.392 . S
C233 H205 0.929 . S
C233 C230 1.391 . S
C233 C232 1.392 . S
N234 Co178 2.257 . S
N234 C231 1.391 . S
N234 C235 1.388 . S
C235 H206 0.930 . S
C235 C230 1.391 . S
C235 N234 1.388 . S
Co236 O238 2.143 . S
Co236 O244 2.074 . S
Co236 O247 2.093 . S
Co236 O260 2.097 . S
Co236 N277 2.151 . S
Co236 N285 2.214 . S
Co237 O238 2.160 . S
Co237 O243 2.058 . S
Co237 O253 2.057 . S
Co237 O268 2.037 . S
Co237 N272 2.145 . S
Co237 N293 2.257 . S
O238 Co236 2.143 . S
O238 Co237 2.160 . S
C239 O240 1.278 . S
C239 O247 1.224 . S
O240 C239 1.278 . S
C241 O242 1.245 . S
C241 O253 1.232 . S
O242 C241 1.245 . S
O243 Co237 2.058 . S
O243 C269 1.269 . S
O244 Co236 2.074 . S
O244 C269 1.257 . S
H245 C270 0.930 . S
H246 C276 0.930 . S
O247 Co236 2.093 . S
O247 C239 1.224 . S
H248 C280 0.929 1_455 S
H249 C282 0.930 . S
H250 C283 0.930 . S
H251 C281 0.929 . S
H252 C284 0.928 . S
O253 Co237 2.057 . S
O253 C241 1.232 . S
H254 C273 0.929 . S
H255 C274 0.929 . S
H256 C286 0.931 . S
H257 C278 0.929 . S
H258 C287 0.930 . S
H259 C279 0.931 . S
O260 Co236 2.097 . S
O260 C288 1.214 . S
H261 C289 0.929 . S
H262 C290 0.929 . S
H263 C291 0.930 1_545 S
H264 C292 0.929 . S
H265 C294 0.930 . S
H266 C271 0.930 1_554 S
H267 C275 0.924 1_545 S
O268 Co237 2.037 . S
O268 C288 1.234 . S
C269 O243 1.269 . S
C269 O244 1.257 . S
C270 H245 0.930 . S
C270 C273 1.388 1_545 S
C270 C275 1.416 1_545 S
C271 H266 0.930 1_556 S
C271 C274 1.404 . S
C271 C275 1.360 . S
N272 Co237 2.145 . S
N272 C273 1.397 . S
N272 C274 1.334 . S
C273 H254 0.929 . S
C273 C270 1.388 1_565 S
C273 N272 1.397 . S
C274 H255 0.929 . S
C274 C271 1.404 . S
C274 N272 1.334 . S
C275 H267 0.924 1_565 S
C275 C270 1.416 1_565 S
C275 C271 1.360 . S
C276 H246 0.930 . S
C276 N277 1.330 . S
C276 C278 1.446 . S
N277 Co236 2.151 . S
N277 C276 1.330 . S
N277 C281 1.418 . S
C278 H257 0.929 . S
C278 C276 1.446 . S
C278 C279 1.332 . S
C279 H259 0.931 . S
C279 C278 1.332 . S
C279 C280 1.267 . S
C280 H248 0.929 1_655 S
C280 C279 1.267 . S
C280 C281 1.251 . S
C281 H251 0.929 . S
C281 N277 1.418 . S
C281 C280 1.251 . S
C282 H249 0.930 . S
C282 C284 1.406 . S
C282 C287 1.261 1_655 S
C283 H250 0.930 . S
C283 N285 1.325 . S
C283 C286 1.357 1_655 S
C284 H252 0.928 . S
C284 C282 1.406 . S
C284 N285 1.261 . S
N285 Co236 2.214 . S
N285 C283 1.325 . S
N285 C284 1.261 . S
C286 H256 0.931 . S
C286 C283 1.357 1_455 S
C286 C287 1.312 . S
C287 H258 0.930 . S
C287 C282 1.261 1_455 S
C287 C286 1.312 . S
C288 O260 1.214 . S
C288 O268 1.234 . S
C289 H261 0.929 . S
C289 C292 1.391 . S
C289 C294 1.391 . S
C290 H262 0.929 . S
C290 C291 1.390 . S
C290 N293 1.391 . S
C291 H263 0.930 1_565 S
C291 C290 1.390 . S
C291 C292 1.392 . S
C292 H264 0.929 . S
C292 C289 1.391 . S
C292 C291 1.392 . S
N293 Co237 2.257 . S
N293 C290 1.391 . S
N293 C294 1.388 . S
C294 H265 0.930 . S
C294 C289 1.391 . S
C294 N293 1.388 . S
Co295 O297 2.143 . S
Co295 O303 2.074 . S
Co295 O306 2.093 . S
Co295 O319 2.097 . S
Co295 N336 2.151 . S
Co295 N344 2.214 . S
Co296 O297 2.160 . S
Co296 O302 2.058 . S
Co296 O312 2.057 . S
Co296 O327 2.037 . S
Co296 N331 2.145 . S
Co296 N352 2.257 . S
O297 Co295 2.143 . S
O297 Co296 2.160 . S
C298 O299 1.278 . S
C298 O306 1.224 . S
O299 C298 1.278 . S
C300 O301 1.245 . S
C300 O312 1.232 . S
O301 C300 1.245 . S
O302 Co296 2.058 . S
O302 C328 1.269 . S
O303 Co295 2.074 . S
O303 C328 1.257 . S
H304 C329 0.930 . S
H305 C335 0.930 . S
O306 Co295 2.093 . S
O306 C298 1.224 . S
H307 C339 0.929 1_545 S
H308 C341 0.930 . S
H309 C342 0.930 . S
H310 C340 0.929 . S
H311 C343 0.928 . S
O312 Co296 2.057 . S
O312 C300 1.232 . S
H313 C332 0.929 . S
H314 C333 0.929 . S
H315 C345 0.931 . S
H316 C337 0.929 . S
H317 C346 0.930 . S
H318 C338 0.931 . S
O319 Co295 2.097 . S
O319 C347 1.214 . S
H320 C348 0.929 . S
H321 C349 0.929 . S
H322 C350 0.930 1_655 S
H323 C351 0.929 . S
H324 C353 0.930 . S
H325 C330 0.930 1_554 S
H326 C334 0.918 1_654 S
O327 Co296 2.037 . S
O327 C347 1.234 . S
C328 O302 1.269 . S
C328 O303 1.257 . S
C329 H304 0.930 . S
C329 C332 1.388 1_655 S
C329 C334 1.413 1_655 S
C330 H325 0.930 1_556 S
C330 C333 1.404 . S
C330 C334 1.369 . S
N331 Co296 2.145 . S
N331 C332 1.397 . S
N331 C333 1.334 . S
C332 H313 0.929 . S
C332 C329 1.388 1_455 S
C332 N331 1.397 . S
C333 H314 0.929 . S
C333 C330 1.404 . S
C333 N331 1.334 . S
C334 H326 0.918 1_456 S
C334 C329 1.413 1_455 S
C334 C330 1.369 . S
C335 H305 0.930 . S
C335 N336 1.330 . S
C335 C337 1.446 . S
N336 Co295 2.151 . S
N336 C335 1.330 . S
N336 C340 1.418 . S
C337 H316 0.929 . S
C337 C335 1.446 . S
C337 C338 1.332 . S
C338 H318 0.931 . S
C338 C337 1.332 . S
C338 C339 1.267 . S
C339 H307 0.929 1_565 S
C339 C338 1.267 . S
C339 C340 1.251 . S
C340 H310 0.929 . S
C340 N336 1.418 . S
C340 C339 1.251 . S
C341 H308 0.930 . S
C341 C343 1.406 . S
C341 C346 1.261 1_565 S
C342 H309 0.930 . S
C342 N344 1.325 . S
C342 C345 1.357 1_565 S
C343 H311 0.928 . S
C343 C341 1.406 . S
C343 N344 1.261 . S
N344 Co295 2.214 . S
N344 C342 1.325 . S
N344 C343 1.261 . S
C345 H315 0.931 . S
C345 C342 1.357 1_545 S
C345 C346 1.312 . S
C346 H317 0.930 . S
C346 C341 1.261 1_545 S
C346 C345 1.312 . S
C347 O319 1.214 . S
C347 O327 1.234 . S
C348 H320 0.929 . S
C348 C351 1.391 . S
C348 C353 1.391 . S
C349 H321 0.929 . S
C349 C350 1.390 . S
C349 N352 1.391 . S
C350 H322 0.930 1_455 S
C350 C349 1.390 . S
C350 C351 1.392 . S
C351 H323 0.929 . S
C351 C348 1.391 . S
C351 C350 1.392 . S
N352 Co296 2.257 . S
N352 C349 1.391 . S
N352 C353 1.388 . S
C353 H324 0.930 . S
C353 C348 1.391 . S
C353 N352 1.388 . S
Co354 O356 2.143 . S
Co354 O362 2.074 . S
Co354 O365 2.093 . S
Co354 O378 2.097 . S
Co354 N395 2.151 . S
Co354 N403 2.214 . S
Co355 O356 2.160 . S
Co355 O361 2.058 . S
Co355 O371 2.057 . S
Co355 O386 2.037 . S
Co355 N390 2.145 . S
Co355 N411 2.257 . S
O356 Co354 2.143 . S
O356 Co355 2.160 . S
C357 O358 1.278 . S
C357 O365 1.224 . S
O358 C357 1.278 . S
C359 O360 1.245 . S
C359 O371 1.232 . S
O360 C359 1.245 . S
O361 Co355 2.058 . S
O361 C387 1.269 . S
O362 Co354 2.074 . S
O362 C387 1.257 . S
H363 C388 0.930 . S
H364 C394 0.930 . S
O365 Co354 2.093 . S
O365 C357 1.224 . S
H366 C398 0.929 1_565 S
H367 C400 0.930 1_554 S
H368 C401 0.930 . S
H369 C399 0.929 . S
H370 C402 0.928 . S
O371 Co355 2.057 . S
O371 C359 1.232 . S
H372 C391 0.929 . S
H373 C392 0.929 . S
H374 C404 0.931 . S
H375 C396 0.929 . S
H376 C405 0.930 . S
H377 C397 0.931 . S
O378 Co354 2.097 . S
O378 C406 1.214 . S
H379 C407 0.929 . S
H380 C408 0.929 . S
H381 C409 0.930 1_655 S
H382 C410 0.929 . S
H383 C412 0.930 . S
H384 C389 0.930 . S
H385 C393 0.924 1_655 S
O386 Co355 2.037 . S
O386 C406 1.234 . S
C387 O361 1.269 . S
C387 O362 1.257 . S
C388 H363 0.930 . S
C388 C391 1.388 1_655 S
C388 C393 1.415 1_655 S
C389 H384 0.930 . S
C389 C392 1.404 . S
C389 C393 1.362 . S
N390 Co355 2.145 . S
N390 C391 1.397 . S
N390 C392 1.334 . S
C391 H372 0.929 . S
C391 C388 1.388 1_455 S
C391 N390 1.397 . S
C392 H373 0.929 . S
C392 C389 1.404 . S
C392 N390 1.334 . S
C393 H385 0.924 1_455 S
C393 C388 1.415 1_455 S
C393 C389 1.362 . S
C394 H364 0.930 . S
C394 N395 1.330 . S
C394 C396 1.446 . S
N395 Co354 2.151 . S
N395 C394 1.330 . S
N395 C399 1.418 . S
C396 H375 0.929 . S
C396 C394 1.446 . S
C396 C397 1.332 . S
C397 H377 0.931 . S
C397 C396 1.332 . S
C397 C398 1.267 . S
C398 H366 0.929 1_545 S
C398 C397 1.267 . S
C398 C399 1.251 . S
C399 H369 0.929 . S
C399 N395 1.418 . S
C399 C398 1.251 . S
C400 H367 0.930 1_556 S
C400 C402 1.406 . S
C400 C405 1.261 1_545 S
C401 H368 0.930 . S
C401 N403 1.325 . S
C401 C404 1.357 1_545 S
C402 H370 0.928 . S
C402 C400 1.406 . S
C402 N403 1.261 . S
N403 Co354 2.214 . S
N403 C401 1.325 . S
N403 C402 1.261 . S
C404 H374 0.931 . S
C404 C401 1.357 1_565 S
C404 C405 1.312 . S
C405 H376 0.930 . S
C405 C400 1.261 1_565 S
C405 C404 1.312 . S
C406 O378 1.214 . S
C406 O386 1.234 . S
C407 H379 0.929 . S
C407 C410 1.391 . S
C407 C412 1.391 . S
C408 H380 0.929 . S
C408 C409 1.390 . S
C408 N411 1.391 . S
C409 H381 0.930 1_455 S
C409 C408 1.390 . S
C409 C410 1.392 . S
C410 H382 0.929 . S
C410 C407 1.391 . S
C410 C409 1.392 . S
N411 Co355 2.257 . S
N411 C408 1.391 . S
N411 C412 1.388 . S
C412 H383 0.930 . S
C412 C407 1.391 . S
C412 N411 1.388 . S
Co413 O415 2.143 . S
Co413 O421 2.074 . S
Co413 O424 2.093 . S
Co413 O437 2.097 . S
Co413 N454 2.151 . S
Co413 N462 2.214 . S
Co414 O415 2.160 . S
Co414 O420 2.058 . S
Co414 O430 2.057 . S
Co414 O445 2.037 . S
Co414 N449 2.145 . S
Co414 N470 2.257 . S
O415 Co413 2.143 . S
O415 Co414 2.160 . S
C416 O417 1.278 . S
C416 O424 1.224 . S
O417 C416 1.278 . S
C418 O419 1.245 . S
C418 O430 1.232 . S
O419 C418 1.245 . S
O420 Co414 2.058 . S
O420 C446 1.269 . S
O421 Co413 2.074 . S
O421 C446 1.257 . S
H422 C447 0.930 . S
H423 C453 0.930 . S
O424 Co413 2.093 . S
O424 C416 1.224 . S
H425 C457 0.929 1_455 S
H426 C459 0.930 1_554 S
H427 C460 0.930 . S
H428 C458 0.929 . S
H429 C461 0.928 . S
O430 Co414 2.057 . S
O430 C418 1.232 . S
H431 C450 0.929 . S
H432 C451 0.929 . S
H433 C463 0.931 . S
H434 C455 0.929 . S
H435 C464 0.930 . S
H436 C456 0.931 . S
O437 Co413 2.097 . S
O437 C465 1.214 . S
H438 C466 0.929 . S
H439 C467 0.929 . S
H440 C468 0.930 1_565 S
H441 C469 0.929 . S
H442 C471 0.930 . S
H443 C448 0.930 . S
H444 C452 0.923 1_565 S
O445 Co414 2.037 . S
O445 C465 1.234 . S
C446 O420 1.269 . S
C446 O421 1.257 . S
C447 H422 0.930 . S
C447 C450 1.388 1_565 S
C447 C452 1.415 1_565 S
C448 H443 0.930 . S
C448 C451 1.404 . S
C448 C452 1.363 . S
N449 Co414 2.145 . S
N449 C450 1.397 . S
N449 C451 1.334 . S
C450 H431 0.929 . S
C450 C447 1.388 1_545 S
C450 N449 1.397 . S
C451 H432 0.929 . S
C451 C448 1.404 . S
C451 N449 1.334 . S
C452 H444 0.923 1_545 S
C452 C447 1.415 1_545 S
C452 C448 1.363 . S
C453 H423 0.930 . S
C453 N454 1.330 . S
C453 C455 1.446 . S
N454 Co413 2.151 . S
N454 C453 1.330 . S
N454 C458 1.418 . S
C455 H434 0.929 . S
C455 C453 1.446 . S
C455 C456 1.332 . S
C456 H436 0.931 . S
C456 C455 1.332 . S
C456 C457 1.267 . S
C457 H425 0.929 1_655 S
C457 C456 1.267 . S
C457 C458 1.251 . S
C458 H428 0.929 . S
C458 N454 1.418 . S
C458 C457 1.251 . S
C459 H426 0.930 1_556 S
C459 C461 1.406 . S
C459 C464 1.261 1_655 S
C460 H427 0.930 . S
C460 N462 1.325 . S
C460 C463 1.357 1_655 S
C461 H429 0.928 . S
C461 C459 1.406 . S
C461 N462 1.261 . S
N462 Co413 2.214 . S
N462 C460 1.325 . S
N462 C461 1.261 . S
C463 H433 0.931 . S
C463 C460 1.357 1_455 S
C463 C464 1.312 . S
C464 H435 0.930 . S
C464 C459 1.261 1_455 S
C464 C463 1.312 . S
C465 O437 1.214 . S
C465 O445 1.234 . S
C466 H438 0.929 . S
C466 C469 1.391 . S
C466 C471 1.391 . S
C467 H439 0.929 . S
C467 C468 1.390 . S
C467 N470 1.391 . S
C468 H440 0.930 1_545 S
C468 C467 1.390 . S
C468 C469 1.392 . S
C469 H441 0.929 . S
C469 C466 1.391 . S
C469 C468 1.392 . S
N470 Co414 2.257 . S
N470 C467 1.391 . S
N470 C471 1.388 . S
C471 H442 0.930 . S
C471 C466 1.391 . S
C471 N470 1.388 . S
C52 C210 2.185 1_556 S
C33 C92 2.183 1_554 S
C111 C151 2.183 1_554 S
C229 C170 2.182 1_556 S
C288 C465 2.182 1_565 S
C347 C269 2.183 1_455 S
C387 C328 2.183 1_545 S
C446 C406 2.185 1_655 S
C359 C5 1.692 . S
C62 C418 1.685 . S
C239 C121 1.684 . S
C298 C182 1.685 . S
C300 C180 1.685 . S
C3 C357 1.686 . S
C64 C416 1.685 . S
C123 C241 1.690 . S
