# Generated by pormake.
# Topology wiu, (6)-cn, num edge types: 1
# Building blocks:
#     Node 0, Type 0, BuildingBlock: HISSIN_clean_sbu_0, # of connection points: 6
#     Node 1, Type 0, BuildingBlock: HISSIN_clean_sbu_0, # of connection points: 6
#     Node 2, Type 0, BuildingBlock: HISSIN_clean_sbu_0, # of connection points: 6
#     Node 3, Type 0, BuildingBlock: HISSIN_clean_sbu_0, # of connection points: 6
#     Node 4, Type 0, BuildingBlock: HISSIN_clean_sbu_0, # of connection points: 6
#     Node 5, Type 0, BuildingBlock: HISSIN_clean_sbu_0, # of connection points: 6
#     Node 6, Type 0, BuildingBlock: HISSIN_clean_sbu_0, # of connection points: 6
#     Node 7, Type 0, BuildingBlock: HISSIN_clean_sbu_0, # of connection points: 6
#     Node 8, Type 0, BuildingBlock: HISSIN_clean_sbu_0, # of connection points: 6
#     Node 9, Type 0, BuildingBlock: HISSIN_clean_sbu_0, # of connection points: 6
#     Node 10, Type 0, BuildingBlock: HISSIN_clean_sbu_0, # of connection points: 6
#     Node 11, Type 0, BuildingBlock: HISSIN_clean_sbu_0, # of connection points: 6
#     Node 12, Type 0, BuildingBlock: HISSIN_clean_sbu_0, # of connection points: 6
#     Node 13, Type 0, BuildingBlock: HISSIN_clean_sbu_0, # of connection points: 6
#     Node 14, Type 0, BuildingBlock: HISSIN_clean_sbu_0, # of connection points: 6
#     Node 15, Type 0, BuildingBlock: HISSIN_clean_sbu_0, # of connection points: 6
#     Edge 16, Type (0, 0), BuildingBlock: CIFDUS_clean_linker_0, # of connection points: 2
#     Edge 17, Type (0, 0), BuildingBlock: CIFDUS_clean_linker_0, # of connection points: 2
#     Edge 18, Type (0, 0), BuildingBlock: CIFDUS_clean_linker_0, # of connection points: 2
#     Edge 19, Type (0, 0), BuildingBlock: CIFDUS_clean_linker_0, # of connection points: 2
#     Edge 20, Type (0, 0), BuildingBlock: CIFDUS_clean_linker_0, # of connection points: 2
#     Edge 21, Type (0, 0), BuildingBlock: CIFDUS_clean_linker_0, # of connection points: 2
#     Edge 22, Type (0, 0), BuildingBlock: CIFDUS_clean_linker_0, # of connection points: 2
#     Edge 23, Type (0, 0), BuildingBlock: CIFDUS_clean_linker_0, # of connection points: 2
#     Edge 24, Type (0, 0), BuildingBlock: CIFDUS_clean_linker_0, # of connection points: 2
#     Edge 25, Type (0, 0), BuildingBlock: CIFDUS_clean_linker_0, # of connection points: 2
#     Edge 26, Type (0, 0), BuildingBlock: CIFDUS_clean_linker_0, # of connection points: 2
#     Edge 27, Type (0, 0), BuildingBlock: CIFDUS_clean_linker_0, # of connection points: 2
#     Edge 28, Type (0, 0), BuildingBlock: CIFDUS_clean_linker_0, # of connection points: 2
#     Edge 29, Type (0, 0), BuildingBlock: CIFDUS_clean_linker_0, # of connection points: 2
#     Edge 30, Type (0, 0), BuildingBlock: CIFDUS_clean_linker_0, # of connection points: 2
#     Edge 31, Type (0, 0), BuildingBlock: CIFDUS_clean_linker_0, # of connection points: 2
#     Edge 32, Type (0, 0), BuildingBlock: CIFDUS_clean_linker_0, # of connection points: 2
#     Edge 33, Type (0, 0), BuildingBlock: CIFDUS_clean_linker_0, # of connection points: 2
#     Edge 34, Type (0, 0), BuildingBlock: CIFDUS_clean_linker_0, # of connection points: 2
#     Edge 35, Type (0, 0), BuildingBlock: CIFDUS_clean_linker_0, # of connection points: 2
#     Edge 36, Type (0, 0), BuildingBlock: CIFDUS_clean_linker_0, # of connection points: 2
#     Edge 37, Type (0, 0), BuildingBlock: CIFDUS_clean_linker_0, # of connection points: 2
#     Edge 38, Type (0, 0), BuildingBlock: CIFDUS_clean_linker_0, # of connection points: 2
#     Edge 39, Type (0, 0), BuildingBlock: CIFDUS_clean_linker_0, # of connection points: 2
#     Edge 40, Type (0, 0), BuildingBlock: CIFDUS_clean_linker_0, # of connection points: 2
#     Edge 41, Type (0, 0), BuildingBlock: CIFDUS_clean_linker_0, # of connection points: 2
#     Edge 42, Type (0, 0), BuildingBlock: CIFDUS_clean_linker_0, # of connection points: 2
#     Edge 43, Type (0, 0), BuildingBlock: CIFDUS_clean_linker_0, # of connection points: 2
#     Edge 44, Type (0, 0), BuildingBlock: CIFDUS_clean_linker_0, # of connection points: 2
#     Edge 45, Type (0, 0), BuildingBlock: CIFDUS_clean_linker_0, # of connection points: 2
#     Edge 46, Type (0, 0), BuildingBlock: CIFDUS_clean_linker_0, # of connection points: 2
#     Edge 47, Type (0, 0), BuildingBlock: CIFDUS_clean_linker_0, # of connection points: 2
#     Edge 48, Type (0, 0), BuildingBlock: CIFDUS_clean_linker_0, # of connection points: 2
#     Edge 49, Type (0, 0), BuildingBlock: CIFDUS_clean_linker_0, # of connection points: 2
#     Edge 50, Type (0, 0), BuildingBlock: CIFDUS_clean_linker_0, # of connection points: 2
#     Edge 51, Type (0, 0), BuildingBlock: CIFDUS_clean_linker_0, # of connection points: 2
#     Edge 52, Type (0, 0), BuildingBlock: CIFDUS_clean_linker_0, # of connection points: 2
#     Edge 53, Type (0, 0), BuildingBlock: CIFDUS_clean_linker_0, # of connection points: 2
#     Edge 54, Type (0, 0), BuildingBlock: CIFDUS_clean_linker_0, # of connection points: 2
#     Edge 55, Type (0, 0), BuildingBlock: CIFDUS_clean_linker_0, # of connection points: 2
#     Edge 56, Type (0, 0), BuildingBlock: CIFDUS_clean_linker_0, # of connection points: 2
#     Edge 57, Type (0, 0), BuildingBlock: CIFDUS_clean_linker_0, # of connection points: 2
#     Edge 58, Type (0, 0), BuildingBlock: CIFDUS_clean_linker_0, # of connection points: 2
#     Edge 59, Type (0, 0), BuildingBlock: CIFDUS_clean_linker_0, # of connection points: 2
#     Edge 60, Type (0, 0), BuildingBlock: CIFDUS_clean_linker_0, # of connection points: 2
#     Edge 61, Type (0, 0), BuildingBlock: CIFDUS_clean_linker_0, # of connection points: 2
#     Edge 62, Type (0, 0), BuildingBlock: CIFDUS_clean_linker_0, # of connection points: 2
#     Edge 63, Type (0, 0), BuildingBlock: CIFDUS_clean_linker_0, # of connection points: 2
# Relax obj value: 0.581
# Max RMSD: 0.320
# Mean RMSD: 0.320
data_MOF--net-wiu--node1-HISSIN_clean_sbu_0--edge1-CIFDUS_clean_linker_0
_symmetry_space_group_name_H-M    P1
_symmetry_Int_Tables_number       1
_symmetry_cell_setting            triclinic
loop_
_symmetry_equiv_pos_as_xyz
'x, y, z'
_cell_length_a     33.675234
_cell_length_b     33.712337
_cell_length_c     49.025765
_cell_angle_alpha  90.026155
_cell_angle_beta   89.436217
_cell_angle_gamma 89.976598
loop_
_atom_site_label
_atom_site_type_symbol
_atom_site_fract_x
_atom_site_fract_y
_atom_site_fract_z
_atom_type_partial_charge
Eu0 Eu 0.34338 0.18531 0.33089 0.0
Eu1 Eu 0.40233 0.11996 0.3088 0.0
C2 C 0.30824 0.10174 0.31498 0.0
C3 C 0.29053 0.28481 0.33529 0.0
C4 C 0.25152 0.29927 0.33669 0.0
C5 C 0.30915 0.34224 0.30772 0.0
C6 C 0.24118 0.33442 0.32331 0.0
C7 C 0.31941 0.30683 0.32092 0.0
C8 C 0.26971 0.35601 0.3083 0.0
C9 C 0.29973 0.24543 0.34703 0.0
O10 O 0.37517 0.14428 0.26864 0.0
O11 O 0.32124 0.177 0.28632 0.0
C12 C 0.33974 0.16086 0.26504 0.0
O13 O 0.39692 0.2201 0.31389 0.0
O14 O 0.4186 0.05908 0.29805 0.0
O15 O 0.46158 0.10633 0.29375 0.0
O16 O 0.443 0.17267 0.32025 0.0
C17 C 0.43457 0.2104 0.3165 0.0
O18 O 0.36432 0.15312 0.37088 0.0
O19 O 0.39436 0.09799 0.35282 0.0
O20 O 0.34076 0.0959 0.30049 0.0
O21 O 0.33601 0.23933 0.35518 0.0
O22 O 0.28582 0.21511 0.33371 0.0
O23 O 0.3071 0.1293 0.33389 0.0
C24 C 0.46138 0.05908 0.25984 0.0
C25 C 0.43346 0.06832 0.23975 0.0
C26 C 0.51181 0.0506 0.22496 0.0
C27 C 0.44512 0.07039 0.21247 0.0
C28 C 0.50015 0.04871 0.25226 0.0
C29 C 0.48484 0.06325 0.20504 0.0
C30 C 0.45304 0.06961 0.28813 0.0
C31 C 0.38059 0.1173 0.37431 0.0
H32 H 0.22874 0.2828 0.34758 0.0
H33 H 0.33172 0.358 0.29616 0.0
H34 H 0.21065 0.34447 0.32441 0.0
H35 H 0.34966 0.29615 0.31927 0.0
H36 H 0.40343 0.0768 0.24534 0.0
H37 H 0.54241 0.04408 0.21959 0.0
H38 H 0.42376 0.08025 0.19754 0.0
H39 H 0.52207 0.04191 0.26761 0.0
Eu40 Eu 0.6406 0.6014 0.5798 0.0
Eu41 Eu 0.70296 0.66147 0.5544 0.0
C42 C 0.7257 0.56835 0.56256 0.0
C43 C 0.54294 0.5456 0.58547 0.0
C44 C 0.52749 0.50731 0.58907 0.0
C45 C 0.48667 0.56141 0.55637 0.0
C46 C 0.49235 0.49591 0.57613 0.0
C47 C 0.52202 0.5727 0.56919 0.0
C48 C 0.47177 0.5226 0.55926 0.0
C49 C 0.58242 0.55557 0.59672 0.0
O50 O 0.67691 0.6332 0.51546 0.0
O51 O 0.64846 0.57851 0.53503 0.0
C52 C 0.66244 0.59676 0.51297 0.0
O53 O 0.60203 0.65417 0.5661 0.0
O54 O 0.7409 0.68478 0.52192 0.0
O55 O 0.73921 0.71422 0.56103 0.0
O56 O 0.64904 0.70193 0.56338 0.0
C57 C 0.61129 0.6921 0.5646 0.0
O58 O 0.67607 0.62251 0.61858 0.0
O59 O 0.7304 0.64719 0.59606 0.0
O60 O 0.73176 0.60113 0.54854 0.0
O61 O 0.58777 0.59176 0.60541 0.0
O62 O 0.61272 0.54296 0.58253 0.0
O63 O 0.69729 0.56606 0.58104 0.0
C64 C 0.74277 0.75395 0.52191 0.0
C65 C 0.7035 0.76496 0.51629 0.0
C66 C 0.7666 0.80968 0.49534 0.0
C67 C 0.69585 0.79729 0.49942 0.0
C68 C 0.77422 0.77723 0.51221 0.0
C69 C 0.72741 0.81894 0.48788 0.0
C70 C 0.75072 0.7163 0.53565 0.0
C71 C 0.71333 0.63611 0.61922 0.0
H72 H 0.54315 0.48583 0.6014 0.0
H73 H 0.47183 0.5826 0.54336 0.0
H74 H 0.48149 0.46597 0.57909 0.0
H75 H 0.53353 0.60229 0.56578 0.0
H76 H 0.67885 0.74725 0.52369 0.0
H77 H 0.79152 0.82551 0.48643 0.0
H78 H 0.66542 0.80386 0.49401 0.0
H79 H 0.80467 0.76908 0.51643 0.0
Eu80 Eu 0.22068 0.88774 0.8305 0.0
Eu81 Eu 0.16281 0.95483 0.80871 0.0
C82 C 0.25749 0.97204 0.81539 0.0
C83 C 0.27159 0.78694 0.83474 0.0
C84 C 0.30673 0.76779 0.84235 0.0
C85 C 0.25983 0.73457 0.80143 0.0
C86 C 0.31871 0.73273 0.82933 0.0
C87 C 0.24797 0.76986 0.81436 0.0
C88 C 0.29577 0.716 0.80839 0.0
C89 C 0.26169 0.82604 0.8467 0.0
O90 O 0.19548 0.9343 0.76918 0.0
O91 O 0.24559 0.89617 0.78649 0.0
C92 C 0.2299 0.91558 0.76571 0.0
O93 O 0.16659 0.85506 0.8129 0.0
O94 O 0.14244 1.01628 0.80644 0.0
O95 O 0.11201 0.97031 0.78381 0.0
O96 O 0.12065 0.90285 0.81978 0.0
C97 C 0.12893 0.86504 0.81585 0.0
O98 O 0.20105 0.92101 0.8706 0.0
O99 O 0.16793 0.97474 0.85332 0.0
O100 O 0.22445 0.98031 0.80253 0.0
O101 O 0.27721 0.8565 0.83429 0.0
O102 O 0.2247 0.83232 0.8536 0.0
O103 O 0.25977 0.94177 0.83216 0.0
C104 C 0.12318 1.0313 0.7618 0.0
C105 C 0.14021 1.01321 0.73872 0.0
C106 C 0.11801 0.09299 0.73663 0.0
C107 C 0.14486 1.03434 0.71457 0.0
C108 C 0.11299 0.07156 0.76085 0.0
C109 C 0.13304 0.07428 0.71298 0.0
C110 C 0.11754 1.00839 0.78699 0.0
C111 C 0.18331 0.95609 0.87438 0.0
H112 H 0.32543 0.78047 0.85796 0.0
H113 H 0.24164 0.72266 0.78527 0.0
H114 H 0.34628 0.71893 0.83545 0.0
H115 H 0.22089 0.78433 0.80797 0.0
H116 H 0.14901 0.98232 0.73905 0.0
H117 H 0.10915 0.12386 0.73623 0.0
H118 H 0.15584 1.01856 0.69679 0.0
H119 H 0.10065 0.08623 0.77869 0.0
Eu120 Eu 0.93209 0.47405 1.07958 0.0
Eu121 Eu 0.86769 0.41382 1.05887 0.0
C122 C 0.84741 0.50724 1.0652 0.0
C123 C 1.03291 0.52415 1.08348 0.0
C124 C 0.0451 0.56196 1.07479 0.0
C125 C 0.09721 0.49788 1.06887 0.0
C126 C 0.08274 0.56765 1.06301 0.0
C127 C 0.05946 0.49215 1.08048 0.0
C128 C 0.10923 0.53566 1.05979 0.0
C129 C 0.99197 0.51837 1.0943 0.0
O130 O 0.88988 0.44199 1.01804 0.0
O131 O 0.92249 0.49605 1.03496 0.0
C132 C 0.90607 0.47757 1.01399 0.0
O133 O 0.968 0.42041 1.06407 0.0
O134 O 0.80652 0.39553 1.05126 0.0
O135 O 0.85519 0.35532 1.04274 0.0
O136 O 0.92087 0.37397 1.0708 0.0
C137 C 0.95866 0.38277 1.06719 0.0
O138 O 0.89942 0.45476 1.12016 0.0
O139 O 0.84594 0.42143 1.10303 0.0
O140 O 0.84216 0.47487 1.05073 0.0
O141 O 0.9634 0.53086 1.07876 0.0
O142 O 0.98358 0.4842 1.1055 0.0
O143 O 0.87536 0.50888 1.08361 0.0
C144 C 0.80327 0.35455 1.01255 0.0
C145 C 0.81051 0.38264 0.992 0.0
C146 C 0.79059 0.30467 0.97841 0.0
C147 C 0.80971 0.37123 0.96473 0.0
C148 C 0.79153 0.31609 1.00569 0.0
C149 C 0.80175 0.33162 0.95785 0.0
C150 C 0.81739 0.36219 1.03999 0.0
C151 C 0.8643 0.43706 1.12407 0.0
H152 H 1.02527 0.58713 1.07685 0.0
H153 H 0.11673 0.47254 1.06652 0.0
H154 H 0.09123 0.59723 1.0566 0.0
H155 H 0.05096 0.46254 1.08678 0.0
H156 H 0.81999 0.41242 0.99707 0.0
H157 H 0.78359 0.27415 0.97348 0.0
H158 H 0.81849 0.39253 0.94927 0.0
H159 H 0.78618 0.29409 1.02142 0.0
Eu160 Eu 0.66904 0.95821 0.9896 0.0
Eu161 Eu 0.72323 0.88528 0.96934 0.0
C162 C 0.62829 0.86794 0.98351 0.0
C163 C 0.62186 0.04943 1.02352 0.0
C164 C 0.6459 0.04861 1.04666 0.0
C165 C 0.58223 0.10172 1.04363 0.0
C166 C 0.63627 0.07238 1.06904 0.0
C167 C 0.59177 0.07782 1.02132 0.0
C168 C 0.60244 0.09679 1.06833 0.0
C169 C 0.62329 1.01707 1.00384 0.0
O170 O 0.71487 0.92294 0.92933 0.0
O171 O 0.66993 0.96966 0.94359 0.0
C172 C 0.69205 0.95436 0.92399 0.0
O173 O 0.73134 0.98186 0.99467 0.0
O174 O 0.77847 0.85162 0.96931 0.0
O175 O 0.72977 0.83109 0.94483 0.0
O176 O 0.76807 0.93459 0.97189 0.0
C177 C 0.76547 0.96805 0.98551 0.0
O178 O 0.70608 0.94607 1.02854 0.0
O179 O 0.73596 0.88739 1.01607 0.0
O180 O 0.66374 0.8534 0.97783 0.0
O181 O 0.64998 1.0196 0.98451 0.0
O182 O 0.62034 0.98138 1.01409 0.0
O183 O 0.6242 0.90647 0.98769 0.0
C184 C 0.77058 0.78178 0.96589 0.0
C185 C 0.80002 0.77461 0.98547 0.0
C186 C 0.75358 0.71141 0.96732 0.0
C187 C 0.80589 0.73654 0.99601 0.0
C188 C 0.74763 0.74961 0.95678 0.0
C189 C 0.78268 0.70442 0.98718 0.0
C190 C 0.76445 0.82247 0.9549 0.0
C191 C 0.7304 0.91625 1.03427 0.0
H192 H 0.66959 1.02701 1.0484 0.0
H193 H 0.55628 0.12065 1.0426 0.0
H194 H 0.6523 0.06796 1.08784 0.0
H195 H 0.57335 0.07901 1.00334 0.0
H196 H 0.81873 0.79846 0.99268 0.0
H197 H 0.73505 0.68742 0.96011 0.0
H198 H 0.82914 0.73218 1.01083 0.0
H199 H 0.72496 0.75395 0.94154 0.0
Eu200 Eu 0.36272 0.41352 0.74419 0.0
Eu201 Eu 0.43507 0.46519 0.7232 0.0
C202 C 0.45162 0.37327 0.73816 0.0
C203 C 0.31319 0.32305 0.77304 0.0
C204 C 0.35103 0.30658 0.7767 0.0
C205 C 0.28443 0.26979 0.79976 0.0
C206 C 0.35573 0.27272 0.79265 0.0
C207 C 0.27977 0.30371 0.78375 0.0
C208 C 0.32263 0.25509 0.80535 0.0
C209 C 0.30935 0.36247 0.76086 0.0
O210 O 0.40227 0.44529 0.68324 0.0
O211 O 0.34155 0.42945 0.70127 0.0
C212 C 0.36396 0.43655 0.67964 0.0
O213 O 0.33615 0.4751 0.74614 0.0
O214 O 0.46686 0.52011 0.71389 0.0
O215 O 0.49521 0.46413 0.70564 0.0
O216 O 0.38643 0.51098 0.72564 0.0
C217 C 0.35148 0.50896 0.7378 0.0
O218 O 0.38565 0.44106 0.78447 0.0
O219 O 0.42683 0.4892 0.7674 0.0
O220 O 0.46548 0.40952 0.74065 0.0
O221 O 0.32256 0.39143 0.77582 0.0
O222 O 0.32105 0.36559 0.73558 0.0
O223 O 0.41312 0.36904 0.73475 0.0
C224 C 0.53516 0.51489 0.72389 0.0
C225 C 0.53139 0.5238 0.75179 0.0
C226 C 0.60616 0.52784 0.72666 0.0
C227 C 0.56453 0.53509 0.7669 0.0
C228 C 0.57283 0.51677 0.71147 0.0
C229 C 0.60233 0.53739 0.75454 0.0
C230 C 0.50015 0.50224 0.70813 0.0
C231 C 0.40602 0.47436 0.78809 0.0
H232 H 0.37716 0.32126 0.76865 0.0
H233 H 0.25843 0.25712 0.80959 0.0
H234 H 0.38544 0.26196 0.7966 0.0
H235 H 0.25038 0.31615 0.78111 0.0
H236 H 0.50276 0.522 0.76198 0.0
H237 H 0.63479 0.52965 0.71647 0.0
H238 H 0.5606 0.54172 0.78838 0.0
H239 H 0.57647 0.50971 0.69003 0.0
Eu240 Eu 0.90797 0.12618 0.48959 0.0
Eu241 Eu 0.84846 0.19061 0.46757 0.0
C242 C 0.9381 0.21813 0.48375 0.0
C243 C 0.99498 0.09273 0.52804 0.0
C244 C 0.99765 0.1326 0.53614 0.0
C245 C 0.04453 0.07525 0.56134 0.0
C246 C 1.02254 0.14352 0.55736 0.0
C247 C 1.01939 0.06428 0.54011 0.0
C248 C 0.0451 0.1147 0.57079 0.0
C249 C 0.96344 0.08102 0.50942 0.0
O250 O 0.86996 0.15699 0.42804 0.0
O251 O 0.89624 0.10083 0.44685 0.0
C252 C 0.88416 0.12019 0.42505 0.0
O253 O 0.84853 0.09502 0.49263 0.0
O254 O 0.79192 0.22219 0.46579 0.0
O255 O 0.84161 0.24334 0.44184 0.0
O256 O 0.81002 0.13607 0.46641 0.0
C257 C 0.81424 0.10417 0.48155 0.0
O258 O 0.87924 0.15097 0.5293 0.0
O259 O 0.82374 0.17913 0.51126 0.0
O260 O 0.90008 0.22707 0.48518 0.0
O261 O 0.92783 0.08341 0.51985 0.0
O262 O 0.96545 0.09672 0.48518 0.0
O263 O 0.94774 0.1806 0.48079 0.0
C264 C 0.79927 0.29232 0.46216 0.0
C265 C 0.77142 0.29927 0.48324 0.0
C266 C 0.81471 0.36312 0.46211 0.0
C267 C 0.76557 0.33749 0.49376 0.0
C268 C 0.82059 0.32484 0.45158 0.0
C269 C 0.78724 0.36997 0.48346 0.0
C270 C 0.80623 0.25147 0.45143 0.0
C271 C 0.84225 0.16401 0.53255 0.0
H272 H 0.97877 0.15492 0.52711 0.0
H273 H 0.06127 0.05238 0.57165 0.0
H274 H 1.02249 0.17405 0.56429 0.0
H275 H 1.01747 1.0334 0.53414 0.0
H276 H 0.75407 0.27513 0.49174 0.0
H277 H 0.83213 0.38729 0.45374 0.0
H278 H 0.74358 0.34164 0.50977 0.0
H279 H 0.84208 0.32066 0.43524 0.0
Eu280 Eu 0.2004 0.6584 0.24124 0.0
Eu281 Eu 0.13548 0.59611 0.2219 0.0
C282 C 0.10897 0.68928 0.23334 0.0
C283 C 0.27538 0.71392 0.28264 0.0
C284 C 0.27246 0.68474 0.30293 0.0
C285 C 0.29997 0.7607 0.31559 0.0
C286 C 0.28104 0.69433 0.32986 0.0
C287 C 0.29133 0.75111 0.28869 0.0
C288 C 0.29232 0.73318 0.33649 0.0
C289 C 0.25333 0.70913 0.25755 0.0
O290 O 0.1717 0.60843 0.18156 0.0
O291 O 0.21692 0.6546 0.19592 0.0
C292 C 0.20269 0.63208 0.17638 0.0
O293 O 0.22764 0.59798 0.24953 0.0
O294 O 0.10531 0.53883 0.22289 0.0
O295 O 0.08251 0.58562 0.19733 0.0
O296 O 0.19132 0.5599 0.22033 0.0
C297 C 0.22063 0.56381 0.23753 0.0
O298 O 0.18146 0.62888 0.28246 0.0
O299 O 0.14458 0.57645 0.26692 0.0
O300 O 0.09926 0.65141 0.23462 0.0
O301 O 0.26204 0.67818 0.24271 0.0
O302 O 0.21513 0.7142 0.26059 0.0
O303 O 0.14684 0.69869 0.23177 0.0
C304 C 1.03588 0.54266 0.2192 0.0
C305 C 1.01976 0.50449 0.2169 0.0
C306 C 0.97911 0.56187 0.24757 0.0
C307 C 0.98412 0.4948 0.23022 0.0
C308 C 1.01503 0.57148 0.23439 0.0
C309 C 0.96372 0.52314 0.24614 0.0
C310 C 0.07595 0.55061 0.20784 0.0
C311 C 0.16352 0.59425 0.28711 0.0
H312 H 0.25992 0.65589 0.29843 0.0
H313 H 0.30915 0.79069 0.32037 0.0
H314 H 0.27485 0.67271 0.34569 0.0
H315 H 0.29359 0.77385 0.27313 0.0
H316 H 1.03538 0.48176 0.2054 0.0
H317 H 0.96427 0.58426 0.25981 0.0
H318 H 0.97282 0.46483 0.22845 0.0
H319 H 1.0271 0.60104 0.23672 0.0
Eu320 Eu 0.84584 0.68583 0.83225 0.0
Eu321 Eu 0.90383 0.62134 0.80742 0.0
C322 C 0.81084 0.59905 0.81791 0.0
C323 C 0.79332 0.78448 0.83893 0.0
C324 C 0.75803 0.80364 0.84671 0.0
C325 C 0.8051 0.83605 0.80497 0.0
C326 C 0.746 0.83838 0.83345 0.0
C327 C 0.81698 0.80119 0.81814 0.0
C328 C 0.76907 0.85469 0.8121 0.0
C329 C 0.80341 0.74547 0.85075 0.0
O330 O 0.86896 0.64041 0.76846 0.0
O331 O 0.82086 0.6787 0.78866 0.0
C332 C 0.83439 0.65937 0.7669 0.0
O333 O 0.89697 0.72287 0.81422 0.0
O334 O 0.9272 0.58546 0.77397 0.0
O335 O 0.95755 0.58573 0.81249 0.0
O336 O 0.94403 0.67562 0.81609 0.0
C337 C 0.93483 0.71344 0.81453 0.0
O338 O 0.86856 0.65128 0.87064 0.0
O339 O 0.89293 0.59504 0.85044 0.0
O340 O 0.84526 0.58881 0.80706 0.0
O341 O 0.78844 0.71501 0.83824 0.0
O342 O 0.84047 0.7396 0.85709 0.0
O343 O 0.80634 0.63196 0.83204 0.0
C344 C 0.9962 0.58711 0.77241 0.0
C345 C 1.00518 0.62737 0.76842 0.0
C346 C 0.04959 0.56928 0.74138 0.0
C347 C 1.03517 0.63859 0.75025 0.0
C348 C 1.01948 0.55808 0.75961 0.0
C349 C 0.05644 0.60966 0.73564 0.0
C350 C 0.95952 0.57612 0.7868 0.0
C351 C 0.88212 0.6142 0.87287 0.0
H352 H 0.73926 0.79118 0.86261 0.0
H353 H 0.82337 0.84754 0.78847 0.0
H354 H 0.71834 0.85225 0.83968 0.0
H355 H 0.84411 0.78669 0.81154 0.0
H356 H 0.98731 0.65021 0.77792 0.0
H357 H 0.06518 0.54632 0.73011 0.0
H358 H 0.03988 0.66985 0.74622 0.0
H359 H 1.01278 0.5269 0.76239 0.0
Eu360 Eu 0.13772 0.09885 1.08131 0.0
Eu361 Eu 0.20285 0.15778 1.05789 0.0
C362 C 0.22156 0.06409 1.06498 0.0
C363 C 0.03914 0.04505 1.08659 0.0
C364 C 1.02106 1.00883 1.09321 0.0
C365 C 0.98651 0.05791 1.05398 0.0
C366 C 0.98638 0.99687 1.07999 0.0
C367 C 1.02138 0.06973 1.06708 0.0
C368 C 0.96903 1.02096 1.05988 0.0
C369 C 0.07812 0.05509 1.09829 0.0
O370 O 0.17973 0.1275 1.01846 0.0
O371 O 0.14501 0.07543 1.0368 0.0
C372 C 0.16194 0.09262 1.01533 0.0
O373 O 0.1028 0.15273 1.06552 0.0
O374 O 0.26468 0.17619 1.05248 0.0
O375 O 0.21727 0.21093 1.03476 0.0
O376 O 0.15058 0.1993 1.0697 0.0
C377 C 0.1126 0.19047 1.06747 0.0
O378 O 0.17024 0.12009 1.12084 0.0
O379 O 0.22397 0.15244 1.10234 0.0
O380 O 0.2267 0.09594 1.04993 0.0
O381 O 0.0835 0.09183 1.10581 0.0
O382 O 0.10877 0.04112 1.08506 0.0
O383 O 0.19429 0.06347 1.08425 0.0
C384 C 0.27519 0.20115 1.00819 0.0
C385 C 0.2528 0.19476 0.9846 0.0
C386 C 0.33542 0.2006 0.98052 0.0
C387 C 0.27134 0.19248 0.95919 0.0
C388 C 0.31667 0.20343 1.00605 0.0
C389 C 0.31287 0.19579 0.95671 0.0
C390 C 0.25538 0.20374 1.03501 0.0
C391 C 0.2054 0.13776 1.12395 0.0
H392 H 1.03434 0.9893 1.10811 0.0
H393 H 0.97413 0.07698 1.03845 0.0
H394 H 0.97339 0.96846 1.08526 0.0
H395 H 1.03507 0.09765 1.06142 0.0
H396 H 0.22075 0.19215 0.98562 0.0
H397 H 0.36747 0.2028 0.97943 0.0
H398 H 0.25271 0.18972 0.94142 0.0
H399 H 0.33452 0.2076 1.0241 0.0
Eu400 Eu 0.71895 0.38844 0.32996 0.0
Eu401 Eu 0.6598 0.45368 0.30769 0.0
C402 C 0.7536 0.4744 0.3155 0.0
C403 C 0.77272 0.28945 0.33482 0.0
C404 C 0.8107 0.27356 0.33888 0.0
C405 C 0.75759 0.23372 0.30493 0.0
C406 C 0.82232 0.23851 0.32571 0.0
C407 C 0.74607 0.26902 0.31795 0.0
C408 C 0.79615 0.21849 0.30821 0.0
C409 C 0.7627 0.3288 0.34638 0.0
O410 O 0.68903 0.42974 0.26782 0.0
O411 O 0.7429 0.39826 0.28586 0.0
C412 C 0.7252 0.4145 0.2646 0.0
O413 O 0.66647 0.3522 0.31351 0.0
O414 O 0.63696 0.49268 0.27606 0.0
O415 O 0.60655 0.48935 0.31492 0.0
O416 O 0.61926 0.39964 0.31626 0.0
C417 C 0.62857 0.36182 0.31444 0.0
O418 O 0.69706 0.4216 0.36947 0.0
O419 O 0.67297 0.47853 0.35047 0.0
O420 O 0.71987 0.48363 0.30368 0.0
O421 O 0.77661 0.35906 0.3329 0.0
O422 O 0.72609 0.33456 0.35438 0.0
O423 O 0.75659 0.44339 0.33158 0.0
C424 C 0.56772 0.49364 0.27563 0.0
C425 C 0.55732 0.4544 0.26933 0.0
C426 C 0.51227 0.51728 0.24911 0.0
C427 C 0.52541 0.4467 0.25222 0.0
C428 C 0.54432 0.52496 0.26621 0.0
C429 C 0.50353 0.47816 0.24112 0.0
C430 C 0.60493 0.50166 0.2898 0.0
C431 C 0.68389 0.45875 0.37239 0.0
H432 H 0.83177 0.28886 0.35171 0.0
H433 H 0.73686 0.21922 0.29143 0.0
H434 H 0.85207 0.22731 0.32892 0.0
H435 H 0.71674 0.28091 0.31423 0.0
H436 H 0.57513 0.42984 0.27646 0.0
H437 H 0.49623 0.54212 0.24055 0.0
H438 H 0.51923 0.41632 0.24642 0.0
H439 H 0.55203 0.55539 0.27093 0.0
Eu440 Eu 0.4348 0.97656 0.57989 0.0
Eu441 Eu 0.36788 0.91811 0.56082 0.0
C442 C 0.35023 1.01205 0.56642 0.0
C443 C 0.53338 1.02902 0.57644 0.0
C444 C 0.53228 1.03135 0.54783 0.0
C445 C 0.60404 0.04464 0.57455 0.0
C446 C 0.56646 0.04089 0.53278 0.0
C447 C 0.56961 1.03541 0.58966 0.0
C448 C 0.60273 0.04788 0.54592 0.0
C449 C 0.49693 1.01939 0.59223 0.0
O450 O 0.38599 0.94726 0.51946 0.0
O451 O 0.42466 0.99818 0.53529 0.0
C452 C 0.40512 0.98126 0.51497 0.0
O453 O 0.46771 0.92243 0.56221 0.0
O454 O 0.30666 0.89741 0.5634 0.0
O455 O 0.35044 0.86423 0.53992 0.0
O456 O 0.42068 0.87704 0.57166 0.0
C457 C 0.45822 0.88503 0.56629 0.0
O458 O 0.40533 0.95648 0.62148 0.0
O459 O 0.34893 0.92787 0.60511 0.0
O460 O 0.34317 0.97951 0.55247 0.0
O461 O 0.4927 0.98246 0.59963 0.0
O462 O 0.46396 1.03413 0.58291 0.0
O463 O 0.37907 1.01312 0.58423 0.0
C464 C 0.2849 0.86164 0.52541 0.0
C465 C 0.28458 0.88759 0.50312 0.0
C466 C 0.24482 0.81483 0.50066 0.0
C467 C 0.26639 0.876 0.47901 0.0
C468 C 0.26303 0.82643 0.52474 0.0
C469 C 0.24884 0.83831 0.47716 0.0
C470 C 0.31317 0.86744 0.54721 0.0
C471 C 0.36928 0.94107 0.62594 0.0
H472 H 0.50488 1.02598 0.53705 0.0
H473 H 0.63145 0.05013 0.58528 0.0
H474 H 0.56454 0.04264 0.51077 0.0
H475 H 0.57123 1.03351 0.61168 0.0
H476 H 0.30138 0.915 0.50355 0.0
H477 H 0.23118 0.78576 0.49961 0.0
H478 H 0.27005 0.89448 0.46109 0.0
H479 H 0.26294 0.80635 0.542 0.0
Eu480 Eu 0.1674 0.45856 0.49468 0.0
Eu481 Eu 0.22459 0.39076 0.47259 0.0
C482 C 0.13214 0.36949 0.4866 0.0
C483 C 0.12981 0.53255 0.5439 0.0
C484 C 0.14129 0.51031 0.5667 0.0
C485 C 0.13477 0.5927 0.57093 0.0
C486 C 0.14849 0.52885 0.59147 0.0
C487 C 0.12727 0.57395 0.54602 0.0
C488 C 0.14481 0.57022 0.59409 0.0
C489 C 0.12357 0.51263 0.5176 0.0
O490 O 0.20627 0.42494 0.43264 0.0
O491 O 0.17309 0.47882 0.45012 0.0
C492 C 0.18856 0.46005 0.42892 0.0
O493 O 0.22972 0.48196 0.50167 0.0
O494 O 0.28001 0.35737 0.46933 0.0
O495 O 0.22822 0.33626 0.44825 0.0
O496 O 0.2657 0.44327 0.47203 0.0
C497 C 0.26337 0.47303 0.48925 0.0
O498 O 0.19689 0.43584 0.53434 0.0
O499 O 0.24737 0.39758 0.51711 0.0
O500 O 0.16947 0.35895 0.48985 0.0
O501 O 0.14979 0.52072 0.49866 0.0
O502 O 0.11534 0.47479 0.51886 0.0
O503 O 0.12457 0.40752 0.48305 0.0
C504 C 0.27104 0.28725 0.46754 0.0
C505 C 0.30168 0.28031 0.48629 0.0
C506 C 0.25382 0.21696 0.47019 0.0
C507 C 0.30809 0.24234 0.49699 0.0
C508 C 0.24737 0.25499 0.4595 0.0
C509 C 0.28421 0.21011 0.48917 0.0
C510 C 0.26404 0.32777 0.45634 0.0
C511 C 0.23078 0.41652 0.53802 0.0
H512 H 0.14422 0.47836 0.5656 0.0
H513 H 0.13203 0.62465 0.57217 0.0
H514 H 0.15526 0.51031 0.60886 0.0
H515 H 0.11937 0.5917 0.52847 0.0
H516 H 0.32088 0.30424 0.49273 0.0
H517 H 0.23465 0.19299 0.46381 0.0
H518 H 0.33226 0.23814 0.51111 0.0
H519 H 0.22369 0.25913 0.44498 0.0
Eu520 Eu 0.86661 0.91646 0.24111 0.0
Eu521 Eu 0.93344 0.97599 0.21946 0.0
C522 C 0.95692 0.88306 0.2328 0.0
C523 C 0.78929 0.87324 0.2877 0.0
C524 C 0.80768 0.88404 0.31215 0.0
C525 C 0.72628 0.8679 0.31192 0.0
C526 C 0.78594 0.88537 0.33639 0.0
C527 C 0.74831 0.866 0.2876 0.0
C528 C 0.74505 0.87668 0.33675 0.0
C529 C 0.81267 0.87038 0.2623 0.0
O530 O 0.89693 0.96218 0.17991 0.0
O531 O 0.84906 0.91939 0.19587 0.0
C532 C 0.86463 0.94009 0.17555 0.0
O533 O 0.84086 0.97798 0.24805 0.0
O534 O 0.96686 1.03139 0.2185 0.0
O535 O 0.98646 0.98233 0.1935 0.0
O536 O 0.87978 1.01539 0.21936 0.0
C537 C 0.84942 1.01196 0.23616 0.0
O538 O 0.88707 0.94771 0.28101 0.0
O539 O 0.92545 0.99833 0.26404 0.0
O540 O 0.96715 0.92074 0.23448 0.0
O541 O 0.80482 0.8969 0.24377 0.0
O542 O 0.85077 0.86453 0.2651 0.0
O543 O 0.91892 0.87445 0.23067 0.0
C544 C 1.03588 1.02261 0.21365 0.0
C545 C 0.06387 0.04498 0.19894 0.0
C546 C 0.08439 1.01341 0.24967 0.0
C547 C 0.10182 0.0517 0.20954 0.0
C548 C 0.04652 1.00664 0.23901 0.0
C549 C 0.11254 1.03622 0.23515 0.0
C550 C 0.99525 1.01733 0.2031 0.0
C551 C 0.90607 0.98186 0.28479 0.0
H552 H 0.83917 0.89052 0.31274 0.0
H553 H 0.69477 0.86161 0.31133 0.0
H554 H 0.80185 0.89143 0.35502 0.0
H555 H 0.73347 0.85838 0.2688 0.0
H556 H 0.05621 0.05772 0.17939 0.0
H557 H 0.09171 1.00058 0.26923 0.0
H558 H 0.12249 0.06976 0.19791 0.0
H559 H 1.02534 0.98921 0.2507 0.0
Eu560 Eu 0.40418 0.612 0.99413 0.0
Eu561 Eu 0.35568 0.68619 0.97102 0.0
C562 C 0.44858 0.69951 0.98534 0.0
C563 C 0.44012 0.53206 1.04132 0.0
C564 C 0.42774 0.55065 1.06555 0.0
C565 C 0.44731 0.47012 1.06601 0.0
C566 C 0.42703 0.52972 1.09 0.0
C567 C 0.44872 0.4914 1.04152 0.0
C568 C 0.4379 0.4894 1.09077 0.0
C569 C 0.44529 0.55536 1.0162 0.0
O570 O 0.37519 0.65083 0.93151 0.0
O571 O 0.39846 0.59257 0.9496 0.0
C572 C 0.38802 0.61351 0.92812 0.0
O573 O 0.33982 0.59422 0.99917 0.0
O574 O 0.35511 0.74189 0.94783 0.0
O575 O 0.30096 0.71996 0.96626 0.0
O576 O 0.31212 0.63573 0.96778 0.0
C577 C 0.30911 0.60604 0.98499 0.0
O578 O 0.3675 0.62972 1.03245 0.0
O579 O 0.33442 0.68438 1.01645 0.0
O580 O 0.41302 0.71551 0.98586 0.0
O581 O 0.41958 0.54905 0.99693 0.0
O582 O 0.45289 0.59304 1.01965 0.0
O583 O 0.45141 0.66038 0.98422 0.0
C584 C 0.30998 0.79008 0.9662 0.0
C585 C 0.28091 0.79539 0.98673 0.0
C586 C 0.32258 0.86137 0.96731 0.0
C587 C 0.27283 0.83312 0.99741 0.0
C588 C 0.33061 0.82359 0.95658 0.0
C589 C 0.29352 0.86671 0.98787 0.0
C590 C 0.3184 0.75005 0.95456 0.0
C591 C 0.34094 0.65824 1.03621 0.0
H592 H 0.42023 0.5819 1.06588 0.0
H593 H 0.45499 0.43894 1.06565 0.0
H594 H 0.42023 0.54609 1.10845 0.0
H595 H 0.45761 0.47639 1.02289 0.0
H596 H 0.2641 0.7704 0.99454 0.0
H597 H 0.33945 0.88638 0.95961 0.0
H598 H 0.24975 0.83601 1.01281 0.0
H599 H 0.35303 0.82061 0.94071 0.0
Eu600 Eu 0.71098 0.15342 0.73949 0.0
Eu601 Eu 0.63704 0.10189 0.71929 0.0
C602 C 0.62136 0.19507 0.73448 0.0
C603 C 0.80071 0.19996 0.77438 0.0
C604 C 0.79933 0.17456 0.79697 0.0
C605 C 0.8505 0.2399 0.79639 0.0
C606 C 0.82138 0.18363 0.82005 0.0
C607 C 0.82832 0.23091 0.77338 0.0
C608 C 0.84453 0.21829 0.82057 0.0
C609 C 0.76919 0.19911 0.7543 0.0
O610 O 0.6706 0.1185 0.67832 0.0
O611 O 0.72702 0.14773 0.69445 0.0
C612 C 0.70649 0.1343 0.67378 0.0
O613 O 0.73328 0.09095 0.74495 0.0
O614 O 0.57989 0.09935 0.6984 0.0
O615 O 0.60499 0.04586 0.71505 0.0
O616 O 0.68607 0.05623 0.72122 0.0
C617 C 0.71917 0.05757 0.73519 0.0
O618 O 0.69722 0.11672 0.77859 0.0
O619 O 0.63974 0.08551 0.76547 0.0
O620 O 0.6061 0.1592 0.7335 0.0
O621 O 0.77247 0.17281 0.73494 0.0
O622 O 0.73308 0.20183 0.76418 0.0
O623 O 0.66039 0.19908 0.73359 0.0
C624 C 0.53533 0.05169 0.71746 0.0
C625 C 0.51943 1.01375 0.7133 0.0
C626 C 0.48083 0.06605 0.7491 0.0
C627 C 0.48496 1.00178 0.7272 0.0
C628 C 0.51558 0.07791 0.73534 0.0
C629 C 0.4655 1.02758 0.74554 0.0
C630 C 0.57376 0.06217 0.70443 0.0
C631 C 0.66789 0.09146 0.7839 0.0
H632 H 0.77833 0.15021 0.79778 0.0
H633 H 0.8685 0.26654 0.79634 0.0
H634 H 0.81626 0.16652 0.83845 0.0
H635 H 0.82993 0.25041 0.75583 0.0
H636 H 0.53416 0.99301 0.69967 0.0
H637 H 0.46671 0.08649 0.76322 0.0
H638 H 0.47364 0.97215 0.72374 0.0
H639 H 0.52745 0.10724 0.73912 0.0
H640 H 0.51836 0.20408 0.31733 0.0
H641 H 0.42504 0.2914 0.31327 0.0
H642 H 0.47435 0.34444 0.31214 0.0
H643 H 0.54498 0.36786 0.31267 0.0
H644 H 0.63846 0.28062 0.31584 0.0
H645 H 0.58915 0.22749 0.31684 0.0
C646 C 0.50858 0.23465 0.31618 0.0
C647 C 0.46699 0.24277 0.31547 0.0
C648 C 0.53773 0.26589 0.31536 0.0
C649 C 0.45611 0.28323 0.31388 0.0
C650 C 0.48465 0.31404 0.31324 0.0
C651 C 0.55482 0.33728 0.31353 0.0
C652 C 0.59641 0.3292 0.31418 0.0
C653 C 0.52572 0.30602 0.31401 0.0
C654 C 0.60737 0.28873 0.31524 0.0
C655 C 0.57884 0.25789 0.31587 0.0
H656 H 0.61617 0.77533 0.55912 0.0
H657 H 0.53033 0.68185 0.57069 0.0
H658 H 0.47679 0.73079 0.57229 0.0
H659 H 0.45265 0.80135 0.57089 0.0
H660 H 0.5387 0.89451 0.5587 0.0
H661 H 0.59203 0.84552 0.55693 0.0
C662 C 0.5858 0.76539 0.56196 0.0
C663 C 0.57827 0.72393 0.56478 0.0
C664 C 0.55431 0.79426 0.56282 0.0
C665 C 0.53804 0.71285 0.56838 0.0
C666 C 0.50697 0.74118 0.56935 0.0
C667 C 0.483 0.81116 0.56781 0.0
C668 C 0.49065 0.85262 0.56498 0.0
C669 C 0.51445 0.78217 0.56667 0.0
C670 C 0.53085 0.86353 0.56097 0.0
C671 C 0.56184 0.83519 0.55996 0.0
H672 H 0.04494 0.87138 0.81724 0.0
H673 H 0.13837 0.78411 0.81215 0.0
H674 H 0.08909 0.73108 0.81108 0.0
H675 H 1.01849 0.70757 0.81204 0.0
H676 H 0.92485 0.79466 0.8163 0.0
H677 H 0.97411 0.84785 0.81715 0.0
C678 C 0.05476 0.84083 0.81587 0.0
C679 C 0.09639 0.83275 0.81482 0.0
C680 C 1.02562 0.80955 0.8151 0.0
C681 C 0.10728 0.79229 0.81298 0.0
C682 C 0.07876 0.76147 0.81238 0.0
C683 C 1.0086 0.73813 0.81309 0.0
C684 C 0.96698 0.74613 0.8141 0.0
C685 C 0.03768 0.76944 0.81349 0.0
C686 C 0.95597 0.78659 0.81542 0.0
C687 C 0.98448 0.81747 0.81597 0.0
H688 H 0.11796 0.27436 1.06615 0.0
H689 H 1.03154 0.18005 1.06853 0.0
H690 H 0.97781 0.22866 1.06886 0.0
H691 H 0.95346 0.299 1.06862 0.0
H692 H 0.03975 0.39332 1.06506 0.0
H693 H 0.09355 0.34475 1.06506 0.0
C694 C 0.08744 0.26421 1.06673 0.0
C695 C 0.07982 0.22256 1.06733 0.0
C696 C 0.05574 0.29293 1.06673 0.0
C697 C 0.03937 0.2112 1.068 0.0
C698 C 1.00815 0.23933 1.06822 0.0
C699 C 0.98397 0.30916 1.06784 0.0
C700 C 0.99155 0.3508 1.06691 0.0
C701 C 1.01567 0.28045 1.06761 0.0
C702 C 1.03197 0.36218 1.06581 0.0
C703 C 0.06322 0.33407 1.06582 0.0
H704 H 0.62164 0.78432 0.97963 0.0
H705 H 0.54976 0.88919 0.99037 0.0
H706 H 0.48991 0.84841 0.99186 0.0
H707 H 0.45601 0.78246 0.98987 0.0
H708 H 0.52744 0.67719 0.98013 0.0
H709 H 0.58761 0.71789 0.97861 0.0
C710 C 0.59298 0.79848 0.98236 0.0
C711 C 0.59136 0.84071 0.98485 0.0
C712 C 0.55769 0.77433 0.9834 0.0
C713 C 0.5531 0.85737 0.98839 0.0
C714 C 0.51835 0.83378 0.98924 0.0
C715 C 0.48464 0.76813 0.98748 0.0
C716 C 0.48609 0.72593 0.98513 0.0
C717 C 0.51996 0.79213 0.98674 0.0
C718 C 0.52432 0.70904 0.98206 0.0
C719 C 0.5592 0.73259 0.98114 0.0
H720 H 0.53786 0.20148 0.7339 0.0
H721 H 0.64307 0.27383 0.73883 0.0
H722 H 0.60201 0.3336 0.74086 0.0
H723 H 0.53538 0.36721 0.74073 0.0
H724 H 0.4304 0.29453 0.73536 0.0
H725 H 0.47145 0.2349 0.73414 0.0
C726 C 0.55206 0.23022 0.73548 0.0
C727 C 0.59438 0.23206 0.73618 0.0
C728 C 0.52782 0.26536 0.73659 0.0
C729 C 0.61113 0.27041 0.7382 0.0
C730 C 0.58738 0.30508 0.73937 0.0
C731 C 0.52126 0.33841 0.7394 0.0
C732 C 0.47895 0.33648 0.73825 0.0
C733 C 0.54555 0.30324 0.73852 0.0
C734 C 0.4623 0.29807 0.73639 0.0
C735 C 0.48604 0.26344 0.73564 0.0
H736 H 0.04809 0.37627 0.48475 0.0
H737 H 0.14116 0.28857 0.48863 0.0
H738 H 0.09184 0.23567 0.48822 0.0
H739 H 1.02143 0.21234 0.4864 0.0
H740 H 0.92786 0.29946 0.48338 0.0
H741 H 0.97714 0.35275 0.48388 0.0
C742 C 0.0578 0.34565 0.48555 0.0
C743 C 0.09936 0.33742 0.48673 0.0
C744 C 1.0286 0.31438 0.48545 0.0
C745 C 0.11013 0.29688 0.48778 0.0
C746 C 0.08159 0.26612 0.4875 0.0
C747 C 1.01156 0.24293 0.48587 0.0
C748 C 0.97 0.25094 0.48481 0.0
C749 C 0.04059 0.27421 0.4863 0.0
C750 C 0.95896 0.29142 0.48426 0.0
C751 C 0.98748 0.32233 0.4845 0.0
H752 H 0.1148 0.77289 0.23389 0.0
H753 H 1.02761 0.67932 0.23317 0.0
H754 H 0.97428 0.72848 0.23292 0.0
H755 H 0.95065 0.7992 0.23265 0.0
H756 H 0.03807 0.8926 0.23403 0.0
H757 H 0.09124 0.8434 0.23428 0.0
C758 C 0.0842 0.76299 0.23371 0.0
C759 C 0.07622 0.7214 0.23355 0.0
C760 C 0.05282 0.79202 0.23366 0.0
C761 C 1.03569 0.71039 0.23334 0.0
C762 C 1.00472 0.73885 0.23317 0.0
C763 C 0.98127 0.80903 0.23304 0.0
C764 C 0.98934 0.85061 0.23331 0.0
C765 C 1.01264 0.77994 0.23329 0.0
C766 C 1.02989 0.86154 0.23384 0.0
C767 C 0.06079 0.83307 0.23396 0.0
H768 H 0.5515 0.10306 0.1907 0.0
H769 H 0.44894 0.04464 0.15708 0.0
H770 H 0.47337 0.05813 1.11095 0.0
H771 H 0.52722 0.0789 1.08091 0.0
H772 H 0.63278 0.13204 1.11409 0.0
H773 H 0.6035 0.12881 0.16003 0.0
C774 C 0.53465 0.0931 0.17324 0.0
C775 C 0.49892 0.0722 0.17716 0.0
C776 C 0.54921 0.10034 1.1469 0.0
C777 C 0.47664 0.06057 0.15448 0.0
C778 C 0.49058 0.06828 1.12817 0.0
C779 C 0.54328 0.09116 1.09804 0.0
C780 C 0.58193 0.10598 1.09424 0.0
C781 C 0.52717 0.08735 1.12422 0.0
C782 C 0.60286 0.12076 1.11667 0.0
C783 C 0.58631 0.1185 1.14285 0.0
H784 H 0.68313 0.80177 0.4442 0.0
H785 H 0.758 0.89295 0.47774 0.0
H786 H 0.76176 0.92547 0.43312 0.0
H787 H 0.75473 0.91976 0.38353 0.0
H788 H 0.68812 0.82185 0.35014 0.0
H789 H 0.66815 0.80169 0.39574 0.0
C790 C 0.69903 0.8296 0.44201 0.0
C791 C 0.72059 0.84482 0.46406 0.0
C792 C 0.70272 0.84678 0.41615 0.0
C793 C 0.74151 0.88058 0.46089 0.0
C794 C 0.74377 0.899 0.4354 0.0
C795 C 0.73553 0.89422 0.38619 0.0
C796 C 0.72405 0.87173 0.36335 0.0
C797 C 0.72635 0.88104 0.41262 0.0
C798 C 0.69768 0.83979 0.36717 0.0
C799 C 0.68659 0.82783 0.39336 0.0
H800 H 0.07536 0.1235 0.6947 0.0
H801 H 0.18568 0.06832 0.66987 0.0
H802 H 0.17058 0.08161 0.62216 0.0
H803 H 0.11968 0.09677 0.58779 0.0
H804 H 1.01005 0.15221 0.61346 0.0
H805 H 1.03202 0.15227 0.66061 0.0
C806 C 0.09701 0.11575 0.67908 0.0
C807 C 0.13091 0.09366 0.68584 0.0
C808 C 0.08803 0.12315 0.65174 0.0
C809 C 0.15858 0.08409 0.66514 0.0
C810 C 0.15002 0.09169 0.63784 0.0
C811 C 0.1012 0.10977 0.60369 0.0
C812 C 0.06316 0.12384 0.59735 0.0
C813 C 0.11374 0.10913 0.63088 0.0
C814 C 0.03951 0.1412 0.6179 0.0
C815 C 0.0519 0.14095 0.64491 0.0
H816 H 0.84276 0.26596 0.94353 0.0
H817 H 0.78046 0.36635 0.90993 0.0
H818 H 0.79545 0.34297 0.86377 0.0
H819 H 0.82059 0.29131 0.83365 0.0
H820 H 0.8784 0.18808 0.8668 0.0
H821 H 0.87138 0.21566 0.91292 0.0
C822 C 0.83214 0.28247 0.92607 0.0
C823 C 0.80992 0.31737 0.92997 0.0
C824 C 0.84052 0.26867 0.89976 0.0
C825 C 0.79739 0.33926 0.9073 0.0
C826 C 0.80601 0.32597 0.881 0.0
C827 C 0.83293 0.27545 0.85086 0.0
C828 C 0.85049 0.23803 0.84698 0.0
C829 C 0.82708 0.29051 0.87707 0.0
C830 C 0.86521 0.21716 0.86946 0.0
C831 C 0.86078 0.2327 0.89572 0.0
H832 H 0.37291 0.26514 0.84692 0.0
H833 H 0.28326 0.18564 0.81662 0.0
H834 H 0.27959 0.1528 0.86114 0.0
H835 H 0.29239 0.15612 0.91026 0.0
H836 H 0.37485 0.24329 0.94083 0.0
H837 H 0.39256 0.26201 0.89449 0.0
C838 C 0.35365 0.23964 0.84972 0.0
C839 C 0.32813 0.22797 0.82869 0.0
C840 C 0.35026 0.22247 0.8756 0.0
C841 C 0.3029 0.19528 0.83269 0.0
C842 C 0.30071 0.17669 0.85813 0.0
C843 C 0.31452 0.17898 0.90679 0.0
C844 C 0.33131 0.19903 0.92912 0.0
C845 C 0.32264 0.19157 0.88008 0.0
C846 C 0.36121 0.22733 0.92421 0.0
C847 C 0.37105 0.23849 0.89762 0.0
H848 H 0.28195 0.76977 0.46172 0.0
H849 H 0.21119 0.86708 0.43212 0.0
H850 H 0.21903 0.84245 0.38532 0.0
H851 H 0.24976 0.7959 0.35315 0.0
H852 H 0.32242 0.69999 0.38272 0.0
H853 H 0.31019 0.7216 0.42981 0.0
C854 C 0.26723 0.7849 0.44511 0.0
C855 C 0.24555 0.81979 0.45017 0.0
C856 C 0.27306 0.77142 0.41848 0.0
C857 C 0.22762 0.83992 0.42851 0.0
C858 C 0.23245 0.82608 0.40187 0.0
C859 C 0.2634 0.78014 0.36993 0.0
C860 C 0.28773 0.74709 0.36472 0.0
C861 C 0.25599 0.79252 0.39665 0.0
C862 C 0.3041 0.72589 0.38647 0.0
C863 C 0.29692 0.73807 0.41325 0.0
H864 H 0.09734 0.62875 0.614 0.0
H865 H 0.1942 0.55197 0.63665 0.0
H866 H 0.17954 0.56381 0.68481 0.0
H867 H 0.12952 0.58352 0.71935 0.0
H868 H 1.03283 0.65978 0.69579 0.0
H869 H 0.05826 0.66197 0.64924 0.0
C870 C 0.11643 0.61587 0.62932 0.0
C871 C 0.14574 0.58821 0.62173 0.0
C872 C 0.10756 0.62238 0.65691 0.0
C873 C 0.17035 0.57218 0.64201 0.0
C874 C 0.16202 0.57892 0.66956 0.0
C875 C 0.11484 0.60156 0.70415 0.0
C876 C 0.079 0.62072 0.71078 0.0
C877 C 0.12906 0.6019 0.67716 0.0
C878 C 0.06048 0.64465 0.69116 0.0
C879 C 0.07476 0.6456 0.66442 0.0
H880 H 0.52056 0.4344 0.19672 0.0
H881 H 0.42889 0.50787 0.2323 0.0
H882 H 0.39431 0.50955 0.18858 0.0
H883 H 0.39724 0.50013 1.13898 0.0
H884 H 0.4955 0.43504 1.10332 0.0
H885 H 0.51878 0.41791 1.1484 0.0
C886 C 0.49228 0.44963 0.19517 0.0
C887 C 0.47736 0.47122 0.21755 0.0
C888 C 0.47377 0.45202 0.16981 0.0
C889 C 0.44103 0.49133 0.21519 0.0
C890 C 0.42139 0.49237 0.19022 0.0
C891 C 0.42362 0.48197 1.14101 0.0
C892 C 0.44508 0.47 1.11757 0.0
C893 C 0.43864 0.47451 0.16709 0.0
C894 C 0.47815 0.44491 1.12074 0.0
C895 C 0.49196 0.43547 1.14665 0.0
H896 H 0.30605 0.42875 0.30487 0.0
H897 H 0.20621 0.36221 0.2748 0.0
H898 H 0.1849 0.41925 0.24809 0.0
H899 H 0.19271 0.48853 0.23468 0.0
H900 H 0.28973 0.55743 0.2665 0.0
H901 H 0.31452 0.49887 0.29056 0.0
C902 C 0.27981 0.42674 0.2923 0.0
C903 C 0.25764 0.39126 0.29198 0.0
C904 C 0.26739 0.45999 0.27711 0.0
C905 C 0.2235 0.38926 0.27576 0.0
C906 C 0.21143 0.4218 0.26031 0.0
C907 C 0.2198 0.49068 0.24637 0.0
C908 C 0.23963 0.52733 0.24841 0.0
C909 C 0.23297 0.45736 0.26095 0.0
C910 C 0.2741 0.52955 0.2643 0.0
C911 C 0.28812 0.49612 0.27824 0.0
H912 H 0.40102 0.56164 0.55189 0.0
H913 H 0.46264 0.4533 0.5313 0.0
H914 H 0.4052 0.43029 0.50583 0.0
H915 H 0.33672 0.43964 0.4905 0.0
H916 H 0.27307 0.54592 0.51295 0.0
H917 H 0.3321 0.57133 0.53597 0.0
C918 C 0.40197 0.53315 0.54165 0.0
C919 C 0.43621 0.50922 0.54368 0.0
C920 C 0.36851 0.51984 0.5271 0.0
C921 C 0.43661 0.47214 0.53048 0.0
C922 C 0.40383 0.45904 0.5157 0.0
C923 C 0.33598 0.46878 0.49988 0.0
C924 C 0.30064 0.49116 0.49952 0.0
C925 C 0.36957 0.48253 0.51393 0.0
C926 C 0.29997 0.5283 0.51259 0.0
C927 C 0.33367 0.54271 0.52593 0.0
H928 H 0.2547 0.64922 0.79318 0.0
H929 H 0.37054 0.70363 0.7887 0.0
H930 H 0.39654 0.64621 0.76414 0.0
H931 H 0.38752 0.57972 0.74556 0.0
H932 H 0.27339 0.52233 0.75209 0.0
H933 H 0.24538 0.58198 0.77353 0.0
C934 C 0.28552 0.64859 0.7866 0.0
C935 C 0.31066 0.68071 0.79297 0.0
C936 C 0.30053 0.61507 0.77261 0.0
C937 C 0.35065 0.67919 0.78449 0.0
C938 C 0.36552 0.64644 0.77024 0.0
C939 C 0.35626 0.58043 0.75109 0.0
C940 C 0.33247 0.54667 0.74681 0.0
C941 C 0.34084 0.61414 0.76434 0.0
C942 C 0.2923 0.54796 0.75488 0.0
C943 C 0.27635 0.582 0.76732 0.0
H944 H 0.12822 0.57908 1.01449 0.0
H945 H 0.18042 0.50575 1.0767 0.0
H946 H 0.24638 0.51719 1.05704 0.0
H947 H 0.2897 0.55148 1.02407 0.0
H948 H 0.23769 0.62668 0.96274 0.0
H949 H 0.17141 0.61058 0.97994 0.0
C950 C 0.15405 0.5657 1.02381 0.0
C951 C 0.14928 0.54175 1.04716 0.0
C952 C 0.19202 0.57262 1.01249 0.0
C953 C 0.18308 0.52406 1.05863 0.0
C954 C 0.22088 0.53073 1.04745 0.0
C955 C 0.26391 0.564 1.01418 0.0
C956 C 0.26895 0.59054 0.9922 0.0
C957 C 0.22577 0.55534 1.02458 0.0
C958 C 0.23496 0.60622 0.97967 0.0
C959 C 0.19693 0.59724 0.98963 0.0
H960 H 0.81818 0.52457 1.01513 0.0
H961 H 0.83646 0.57503 1.09491 0.0
H962 H 0.81594 0.64012 1.07808 0.0
H963 H 0.7973 0.68355 1.03998 0.0
H964 H 0.78378 0.63375 0.95949 0.0
H965 H 0.79785 0.56764 0.97732 0.0
C966 C 0.81685 0.5496 1.02901 0.0
C967 C 0.82856 0.54482 1.05634 0.0
C968 C 0.80637 0.58722 1.01895 0.0
C969 C 0.82743 0.57782 1.07385 0.0
C970 C 0.81593 0.61511 1.06418 0.0
C971 C 0.79747 0.65826 1.02631 0.0
C972 C 0.78946 0.6638 0.99839 0.0
C973 C 0.8062 0.62033 1.03663 0.0
C974 C 0.78926 0.63046 0.9811 0.0
C975 C 0.79751 0.59259 0.99127 0.0
H976 H 0.67742 0.50613 0.75491 0.0
H977 H 0.60563 0.59925 0.7903 0.0
H978 H 0.66262 0.62325 0.81582 0.0
H979 H 0.73363 0.62082 0.82569 0.0
H980 H 0.80649 0.52904 0.78953 0.0
H981 H 0.74827 0.50124 0.76718 0.0
C982 C 0.6743 0.53168 0.7682 0.0
C983 C 0.63724 0.55089 0.77058 0.0
C984 C 0.70735 0.54547 0.78286 0.0
C985 C 0.63363 0.58365 0.78822 0.0
C986 C 0.66627 0.5975 0.80279 0.0
C987 C 0.7368 0.5942 0.81344 0.0
C988 C 0.77463 0.57713 0.80941 0.0
C989 C 0.70336 0.57891 0.80007 0.0
C990 C 0.77787 0.54283 0.79316 0.0
C991 C 0.74457 0.52707 0.78013 0.0
H992 H 0.77547 0.39183 0.53675 0.0
H993 H 0.78387 0.44031 0.45542 0.0
H994 H 0.77092 0.50666 0.47335 0.0
H995 H 0.7527 0.55042 0.51163 0.0
H996 H 0.73917 0.5013 0.5924 0.0
H997 H 0.75899 0.43596 0.57526 0.0
C998 C 0.77438 0.41685 0.52289 0.0
C999 C 0.7807 0.4108 0.4947 0.0
C1000 C 0.76625 0.455 0.5333 0.0
C1001 C 0.77975 0.4439 0.47721 0.0
C1002 C 0.77214 0.48195 0.48745 0.0
C1003 C 0.75506 0.52565 0.52564 0.0
C1004 C 0.7449 0.5309 0.55338 0.0
C1005 C 0.765 0.48783 0.51542 0.0
C1006 C 0.74712 0.49818 0.57104 0.0
C1007 C 0.75817 0.46073 0.56119 0.0
H1008 H 0.82833 0.44493 0.31805 0.0
H1009 H 0.76232 0.54602 0.28926 0.0
H1010 H 0.82201 0.57119 0.26611 0.0
H1011 H 0.89212 0.56172 0.25123 0.0
H1012 H 0.95552 0.45787 0.27816 0.0
H1013 H 0.89765 0.4364 0.3045 0.0
C1014 C 0.82705 0.47299 0.30728 0.0
C1015 C 0.79083 0.49379 0.30577 0.0
C1016 C 0.86098 0.4864 0.29314 0.0
C1017 C 0.7898 0.52957 0.29105 0.0
C1018 C 0.8239 0.54382 0.2776 0.0
C1019 C 0.89328 0.53458 0.26306 0.0
C1020 C 0.92809 0.5113 0.26253 0.0
C1021 C 0.8595 0.52205 0.27803 0.0
C1022 C 0.92899 0.47604 0.27783 0.0
C1023 C 0.89596 0.46385 0.29307 0.0
H1024 H 0.81109 0.91991 0.79508 0.0
H1025 H 0.69416 0.86775 0.79348 0.0
H1026 H 0.66962 0.92392 0.76718 0.0
H1027 H 0.6806 0.98873 0.74572 0.0
H1028 H 0.79625 0.04318 0.74924 0.0
H1029 H 0.82228 0.98493 0.773 0.0
C1030 C 0.78032 0.92072 0.78879 0.0
C1031 C 0.75452 0.88961 0.79637 0.0
C1032 C 0.76627 0.95334 0.77369 0.0
C1033 C 0.71458 0.89147 0.78832 0.0
C1034 C 0.70056 0.92346 0.77305 0.0
C1035 C 0.71176 0.98744 0.75105 0.0
C1036 C 0.73666 1.01994 0.74518 0.0
C1037 C 0.72609 0.95457 0.76564 0.0
C1038 C 0.77662 1.01832 0.75313 0.0
C1039 C 0.79142 0.98516 0.76693 0.0
H1040 H 0.8366 0.93225 0.99272 0.0
H1041 H 0.77684 0.04455 1.00281 0.0
H1042 H 0.83491 0.07135 1.02622 0.0
H1043 H 0.90148 0.0615 1.04616 0.0
H1044 H 0.95885 0.94762 1.03778 0.0
H1045 H 0.90275 0.92274 1.01177 0.0
C1046 C 0.83654 0.9629 0.99945 0.0
C1047 C 0.80258 0.98655 0.99557 0.0
C1048 C 0.86939 0.97761 1.01374 0.0
C1049 C 0.80273 1.02584 1.00521 0.0
C1050 C 0.83583 0.04108 1.01879 0.0
C1051 C 0.90177 1.03134 1.03845 0.0
C1052 C 0.93432 1.00643 1.04407 0.0
C1053 C 0.86913 1.01704 1.02357 0.0
C1054 C 0.934 0.96727 1.03416 0.0
C1055 C 0.90203 0.95308 1.01908 0.0
H1056 H 0.88116 0.0857 0.2377 0.0
H1057 H 0.776 1.02005 0.26026 0.0
H1058 H 0.7494 0.07855 0.2839 0.0
H1059 H 0.75795 0.14755 0.30039 0.0
H1060 H 0.86561 0.21065 0.27994 0.0
H1061 H 0.88948 0.15387 0.25364 0.0
C1062 C 0.85199 0.08436 0.24723 0.0
C1063 C 0.83029 0.04867 0.24675 0.0
C1064 C 0.83767 0.11753 0.26167 0.0
C1065 C 0.7931 0.04726 0.26001 0.0
C1066 C 0.77802 0.08064 0.2737 0.0
C1067 C 0.78649 0.1489 0.29 0.0
C1068 C 0.81 0.18333 0.29225 0.0
C1069 C 0.80033 0.11579 0.27505 0.0
C1070 C 0.84713 0.18441 0.27888 0.0
C1071 C 0.86071 0.15203 0.26366 0.0
H1072 H 0.73694 0.12233 0.47076 0.0
H1073 H 0.80945 0.03978 0.51559 0.0
H1074 H 0.75055 1.01485 0.53935 0.0
H1075 H 0.6788 1.01984 0.55001 0.0
H1076 H 0.60696 0.10297 0.50536 0.0
H1077 H 0.66512 0.12426 0.47914 0.0
C1078 C 0.73992 0.09828 0.48528 0.0
C1079 C 0.77786 0.08309 0.49126 0.0
C1080 C 0.70596 0.08455 0.49933 0.0
C1081 C 0.78079 0.05208 0.51037 0.0
C1082 C 0.74708 1.03798 0.52422 0.0
C1083 C 0.67594 0.04261 0.53454 0.0
C1084 C 0.63852 0.05984 0.52975 0.0
C1085 C 0.70962 0.05467 0.51937 0.0
C1086 C 0.63527 0.08897 0.50936 0.0
C1087 C 0.66857 0.10125 0.49437 0.0
H1088 H 0.30316 0.18956 0.54149 0.0
H1089 H 0.28206 0.13894 0.46207 0.0
H1090 H 0.29588 0.07279 0.47985 0.0
H1091 H 0.3178 1.0296 0.51723 0.0
H1092 H 0.34349 0.0807 0.59578 0.0
H1093 H 0.32366 0.14611 0.57917 0.0
C1094 C 0.30167 0.16411 0.52801 0.0
C1095 C 0.29148 0.16949 0.50041 0.0
C1096 C 0.31023 0.12606 0.5383 0.0
C1097 C 0.28919 0.13587 0.48345 0.0
C1098 C 0.29728 0.09794 0.49359 0.0
C1099 C 0.31827 0.05487 0.53092 0.0
C1100 C 0.33188 0.05011 0.55783 0.0
C1101 C 0.30812 0.09269 0.52093 0.0
C1102 C 0.33301 0.08343 0.57505 0.0
C1103 C 0.32189 0.12092 0.56549 0.0
H1104 H 0.13136 0.05453 0.2879 0.0
H1105 H 0.18438 1.03619 0.20838 0.0
H1106 H 0.24983 0.05117 0.2267 0.0
H1107 H 0.29182 0.07188 0.26481 0.0
H1108 H 0.2387 0.09358 0.34385 0.0
H1109 H 0.17383 0.07363 0.32643 0.0
C1110 C 0.15728 0.05321 0.27464 0.0
C1111 C 0.15272 0.04416 0.24673 0.0
C1112 C 0.19497 0.0621 0.2853 0.0
C1113 C 0.18674 0.04342 0.22983 0.0
C1114 C 0.22431 0.05171 0.24035 0.0
C1115 C 0.26624 0.07149 0.27843 0.0
C1116 C 0.2703 0.08387 0.30574 0.0
C1117 C 0.22877 0.06133 0.26801 0.0
C1118 C 0.23654 0.08398 0.32283 0.0
C1119 C 0.19936 0.07279 0.31281 0.0
H1120 H 0.25108 0.04585 1.01474 0.0
H1121 H 0.23192 0.99634 1.09491 0.0
H1122 H 0.2541 0.93135 1.07843 0.0
H1123 H 0.2757 0.88787 1.04066 0.0
H1124 H 0.28952 0.93691 0.95977 0.0
H1125 H 0.27279 1.00265 0.97716 0.0
C1126 C 0.25244 1.02106 1.02879 0.0
C1127 C 0.24019 1.02614 1.05615 0.0
C1128 C 0.26391 0.98349 1.01894 0.0
C1129 C 0.24138 0.99337 1.07383 0.0
C1130 C 0.25386 0.95613 1.06436 0.0
C1131 C 0.27492 0.91285 1.02677 0.0
C1132 C 0.28413 0.90714 0.99888 0.0
C1133 C 0.26453 0.95067 1.03683 0.0
C1134 C 0.28338 0.94023 0.98138 0.0
C1135 C 0.27357 0.97794 0.99129 0.0
H1136 H 0.39479 0.06586 0.75477 0.0
H1137 H 0.45762 0.95758 0.77271 0.0
H1138 H 0.40037 0.93292 0.79844 0.0
H1139 H 0.33148 0.94047 0.81407 0.0
H1140 H 0.26638 0.04641 0.79381 0.0
H1141 H 0.32559 0.074 0.77142 0.0
C1142 C 0.39602 1.03705 0.76455 0.0
C1143 C 0.43046 1.01356 0.7617 0.0
C1144 C 0.36265 1.02274 0.77912 0.0
C1145 C 0.43137 0.97607 0.77426 0.0
C1146 C 0.39871 0.96202 0.78914 0.0
C1147 C 0.33047 0.97001 0.80535 0.0
C1148 C 0.29469 0.99162 0.80603 0.0
C1149 C 0.3641 0.98494 0.79156 0.0
C1150 C 0.29365 1.02935 0.79385 0.0
C1151 C 0.32743 0.045 0.78086 0.0
H1152 H 0.25858 0.15346 0.25113 0.0
H1153 H 0.37469 0.16132 0.21385 0.0
H1154 H 0.34489 0.15639 0.16858 0.0
H1155 H 0.28551 0.14945 1.13827 0.0
H1156 H 0.17007 0.13423 0.17547 0.0
H1157 H 0.19944 0.14191 0.22077 0.0
C1158 C 0.27755 0.15446 0.23317 0.0
C1159 C 0.31954 0.15878 0.23673 0.0
C1160 C 0.25998 0.14999 0.20655 0.0
C1161 C 0.34272 0.15869 0.21255 0.0
C1162 C 0.32545 0.15571 0.18632 0.0
C1163 C 0.26647 0.14788 0.15618 0.0
C1164 C 0.22477 0.14165 0.15252 0.0
C1165 C 0.28405 0.15134 0.18283 0.0
C1166 C 0.20178 0.13914 0.17676 0.0
C1167 C 0.21879 0.14367 0.20303 0.0
H1168 H 0.67193 0.53908 0.38649 0.0
H1169 H 0.68862 0.42483 0.42406 0.0
H1170 H 0.68177 0.45534 0.4693 0.0
H1171 H 0.67074 0.51523 0.49954 0.0
H1172 H 0.65938 0.62989 0.4616 0.0
H1173 H 0.66406 0.59893 0.4165 0.0
C1174 C 0.67406 0.52053 0.40446 0.0
C1175 C 0.68059 0.47884 0.40091 0.0
C1176 C 0.67072 0.53872 0.43105 0.0
C1177 C 0.68356 0.45651 0.42524 0.0
C1178 C 0.6795 0.47418 0.45148 0.0
C1179 C 0.66886 0.53362 0.48148 0.0
C1180 C 0.66385 0.57559 0.48483 0.0
C1181 C 0.67289 0.51536 0.45488 0.0
C1182 C 0.66273 0.59798 0.46049 0.0
C1183 C 0.66554 0.58005 0.43434 0.0
H1184 H 0.312 0.9233 0.75296 0.0
H1185 H 0.19763 0.91645 0.71455 0.0
H1186 H 0.22944 0.92293 0.6697 0.0
H1187 H 0.2896 0.93071 0.64023 0.0
H1188 H 0.40398 0.94393 0.67775 0.0
H1189 H 0.3728 0.93547 0.72301 0.0
C1190 C 0.29392 0.92282 0.73481 0.0
C1191 C 0.25174 0.91832 0.73785 0.0
C1192 C 0.31271 0.92809 0.70841 0.0
C1193 C 0.22966 0.91917 0.71355 0.0
C1194 C 0.24806 0.92304 0.68759 0.0
C1195 C 0.30808 0.93177 0.65818 0.0
C1196 C 0.3499 0.93775 0.6547 0.0
C1197 C 0.28956 0.92754 0.68458 0.0
C1198 C 0.37218 0.9394 0.67897 0.0
C1199 C 0.35412 0.93436 0.70516 0.0
H1200 H 0.89088 0.53307 0.88712 0.0
H1201 H 0.88228 0.6486 0.92436 0.0
H1202 H 0.89039 0.61859 0.96948 0.0
H1203 H 0.90068 0.55897 0.99978 0.0
H1204 H 0.90289 0.44301 0.96286 0.0
H1205 H 0.89696 0.47321 0.91761 0.0
C1206 C 0.89082 0.55199 0.90499 0.0
C1207 C 0.88623 0.59395 0.90132 0.0
C1208 C 0.89475 0.53407 0.93165 0.0
C1209 C 0.88581 0.61673 0.92558 0.0
C1210 C 0.89062 0.59934 0.95178 0.0
C1211 C 0.90026 0.54008 0.9819 0.0
C1212 C 0.90327 0.49798 0.98559 0.0
C1213 C 0.89537 0.55796 0.95531 0.0
C1214 C 0.9013 0.47504 0.96149 0.0
C1215 C 0.89776 0.49255 0.93525 0.0
H1216 H 0.80872 0.88641 0.15343 0.0
H1217 H 0.8721 0.99336 1.13252 0.0
H1218 H 0.83678 0.99659 1.08907 0.0
H1219 H 0.7858 0.97018 1.05622 0.0
H1220 H 0.72748 0.85982 1.07512 0.0
H1221 H 0.76183 0.85727 1.11904 0.0
C1222 C 0.81515 0.9105 1.13946 0.0
C1223 C 0.84377 0.9398 1.14728 0.0
C1224 C 0.79483 0.91186 1.11363 0.0
C1225 C 0.85091 0.9702 1.12795 0.0
C1226 C 0.83029 0.97219 1.10279 0.0
C1227 C 0.7804 0.94549 1.06988 0.0
C1228 C 0.75281 0.91543 1.06178 0.0
C1229 C 0.8018 0.94343 1.09528 0.0
C1230 C 0.74768 0.88362 1.0802 0.0
C1231 C 0.76763 0.88215 1.10561 0.0
H1232 H 0.3937 0.53299 0.91403 0.0
H1233 H 0.38951 0.64831 0.87633 0.0
H1234 H 0.39659 0.61725 0.83118 0.0
H1235 H 0.40443 0.55636 0.8012 0.0
H1236 H 0.40235 0.44128 0.83939 0.0
H1237 H 0.39777 0.47272 0.88434 0.0
C1238 C 0.39439 0.55167 0.89606 0.0
C1239 C 0.39132 0.59376 0.89951 0.0
C1240 C 0.39771 0.53323 0.8696 0.0
C1241 C 0.39182 0.61631 0.87519 0.0
C1242 C 0.39602 0.5983 0.84902 0.0
C1243 C 0.40332 0.53798 0.8193 0.0
C1244 C 0.40458 0.49568 0.81612 0.0
C1245 C 0.3992 0.55665 0.84576 0.0
C1246 C 0.40194 0.47337 0.84044 0.0
C1247 C 0.3992 0.49158 0.86647 0.0
H1248 H 0.78443 0.15366 0.65878 0.0
H1249 H 0.67273 0.12291 0.62221 0.0
H1250 H 0.70299 0.13052 0.57663 0.0
H1251 H 0.76207 0.1467 0.54603 0.0
H1252 H 0.87431 0.17243 0.58364 0.0
H1253 H 0.84326 0.16647 0.62882 0.0
C1254 C 0.7663 0.1486 0.64098 0.0
C1255 C 0.72547 0.13788 0.64485 0.0
C1256 C 0.78434 0.15255 0.61439 0.0
C1257 C 0.70373 0.13126 0.62074 0.0
C1258 C 0.72126 0.13576 0.59434 0.0
C1259 C 0.77982 0.15141 0.56406 0.0
C1260 C 0.82111 0.16091 0.56066 0.0
C1261 C 0.76163 0.14666 0.5907 0.0
C1262 C 0.84293 0.16555 0.58488 0.0
C1263 C 0.82496 0.16204 0.61103 0.0
H1264 H 0.17589 0.53979 0.41405 0.0
H1265 H 0.19374 0.42488 0.37744 0.0
H1266 H 0.18616 0.4543 0.33195 0.0
H1267 H 0.17354 0.51338 0.30131 0.0
H1268 H 0.1625 0.62894 0.33816 0.0
H1269 H 0.16796 0.59904 0.38354 0.0
C1270 C 0.17812 0.52086 0.39624 0.0
C1271 C 0.18513 0.4793 0.40014 0.0
C1272 C 0.17456 0.53847 0.36952 0.0
C1273 C 0.18834 0.45647 0.37599 0.0
C1274 C 0.18383 0.47352 0.34962 0.0
C1275 C 0.17198 0.53219 0.31921 0.0
C1276 C 0.16657 0.57407 0.3155 0.0
C1277 C 0.17666 0.51457 0.3459 0.0
C1278 C 0.16602 0.59708 0.33959 0.0
C1279 C 0.16926 0.57975 0.36588 0.0
H1280 H 0.69419 0.65192 0.67568 0.0
H1281 H 0.79324 0.62339 0.62292 0.0
H1282 H 0.83829 0.62696 0.66151 0.0
H1283 H 0.85189 0.63906 0.71126 0.0
H1284 H 0.75378 0.67195 0.76363 0.0
H1285 H 0.70817 0.66583 0.72544 0.0
C1286 C 0.72553 0.64612 0.67248 0.0
C1287 C 0.73927 0.63693 0.64544 0.0
C1288 C 0.75251 0.64935 0.69531 0.0
C1289 C 0.78072 0.63044 0.64277 0.0
C1290 C 0.807 0.63253 0.66517 0.0
C1291 C 0.82061 0.64516 0.7145 0.0
C1292 C 0.80741 0.65649 0.74124 0.0
C1293 C 0.79365 0.64222 0.69171 0.0
C1294 C 0.76607 0.66382 0.74391 0.0
C1295 C 0.73942 0.66008 0.72175 0.0
H1296 H 0.1707 1.03583 0.88884 0.0
H1297 H 0.18918 0.92152 0.92588 0.0
H1298 H 0.18234 0.95166 0.9713 0.0
H1299 H 0.17048 1.01126 1.00175 0.0
H1300 H 0.15911 0.12618 0.9642 0.0
H1301 H 0.16337 0.09549 0.91898 0.0
C1302 C 0.17317 1.01718 0.90674 0.0
C1303 C 0.18008 0.9756 0.90304 0.0
C1304 C 0.1701 1.03519 0.93336 0.0
C1305 C 0.18373 0.95312 0.92723 0.0
C1306 C 0.17967 0.97058 0.95355 0.0
C1307 C 0.16854 1.02974 0.98373 0.0
C1308 C 0.16345 0.07168 0.98718 0.0
C1309 C 0.17262 1.01167 0.9571 0.0
C1310 C 0.16237 0.09427 0.96295 0.0
C1311 C 0.16496 0.07651 0.93676 0.0
H1312 H 0.78475 0.42197 1.13833 0.0
H1313 H 0.89748 0.44587 0.17574 0.0
H1314 H 0.86639 0.43955 0.22108 0.0
H1315 H 0.80633 0.42667 0.25132 0.0
H1316 H 0.69293 0.40877 0.21327 0.0
H1317 H 0.72466 0.41297 0.16818 0.0
C1318 C 0.80285 0.42578 0.15629 0.0
C1319 C 0.84428 0.43416 0.15271 0.0
C1320 C 0.78427 0.42286 0.18283 0.0
C1321 C 0.86603 0.43937 0.17698 0.0
C1322 C 0.84802 0.4356 0.20326 0.0
C1323 C 0.78842 0.42333 0.23322 0.0
C1324 C 0.74659 0.41653 0.23649 0.0
C1325 C 0.80707 0.42715 0.20666 0.0
C1326 C 0.72471 0.41355 0.21216 0.0
C1327 C 0.74308 0.41604 0.18605 0.0
H1328 H 0.39894 0.06272 0.50126 0.0
H1329 H 0.40273 0.94704 0.46395 0.0
H1330 H 0.39674 0.97746 0.4188 0.0
H1331 H 0.39015 1.03714 0.38867 0.0
H1332 H 0.37912 0.15249 0.42584 0.0
H1333 H 0.38755 0.12249 0.47106 0.0
C1334 C 0.39876 0.04398 0.48331 0.0
C1335 C 0.4022 1.00189 0.48678 0.0
C1336 C 0.39365 0.06197 0.45679 0.0
C1337 C 0.40068 0.97904 0.46267 0.0
C1338 C 0.39712 0.99666 0.43652 0.0
C1339 C 0.38959 0.05603 0.40656 0.0
C1340 C 0.38429 0.09786 0.40292 0.0
C1341 C 0.39355 1.03814 0.43311 0.0
C1342 C 0.38318 0.12069 0.42713 0.0
C1343 C 0.38819 0.1033 0.45333 0.0
H1344 H 0.28378 0.43279 0.66445 0.0
H1345 H 0.40104 0.43277 0.6285 0.0
H1346 H 0.37202 0.42489 0.58304 0.0
H1347 H 0.31244 0.41726 0.55226 0.0
H1348 H 0.19553 0.42256 0.58866 0.0
H1349 H 0.22487 0.42866 0.6339 0.0
C1350 C 0.30332 0.43108 0.64679 0.0
C1351 C 0.34531 0.43326 0.65084 0.0
C1352 C 0.2861 0.42701 0.62013 0.0
C1353 C 0.36903 0.43126 0.6269 0.0
C1354 C 0.35221 0.42655 0.60056 0.0
C1355 C 0.2932 0.41925 0.57006 0.0
C1356 C 0.25104 0.4184 0.56627 0.0
C1357 C 0.31066 0.4241 0.5967 0.0
C1358 C 0.2276 0.42244 0.59017 0.0
C1359 C 0.24458 0.4261 0.61639 0.0
H1360 H 0.89236 0.03945 0.41109 0.0
H1361 H 0.88348 0.1545 0.37338 0.0
H1362 H 0.89111 0.1238 0.32823 0.0
H1363 H 0.90112 0.06351 0.29819 0.0
H1364 H 0.9034 0.94823 0.33604 0.0
H1365 H 0.898 0.97926 0.38113 0.0
C1366 C 0.89212 0.05811 0.3931 0.0
C1367 C 0.88759 0.10007 0.39657 0.0
C1368 C 0.89575 0.03982 0.36657 0.0
C1369 C 0.88692 0.1226 0.37224 0.0
C1370 C 0.89146 0.10481 0.34606 0.0
C1371 C 0.9008 0.04499 0.31624 0.0
C1372 C 0.90368 1.00282 0.31294 0.0
C1373 C 0.89616 0.06335 0.34275 0.0
C1374 C 0.90188 0.98028 0.3372 0.0
C1375 C 0.89865 0.99826 0.36331 0.0
H1376 H 0.24335 0.6933 1.1487 0.0
H1377 H 0.21375 0.56961 1.14037 0.0
H1378 H 0.25454 0.56584 1.09872 0.0
H1379 H 0.3007 0.59712 1.06408 0.0
H1380 H 0.32306 0.72263 1.0691 0.0
H1381 H 0.28403 0.72598 1.11162 0.0
C1382 C 0.24531 0.66547 1.13771 0.0
C1383 C 0.22471 0.63168 1.14847 0.0
C1384 C 0.26827 0.66373 1.11274 0.0
C1385 C 0.22831 0.59632 1.13316 0.0
C1386 C 0.2521 0.59409 1.10911 0.0
C1387 C 0.29711 0.62534 1.07435 0.0
C1388 C 0.31607 0.65959 1.0629 0.0
C1389 C 0.27261 0.62746 1.09862 0.0
C1390 C 0.30973 0.69565 1.07692 0.0
C1391 C 0.28709 0.69757 1.10149 0.0
H1392 H 0.637 1.00769 0.90148 0.0
H1393 H 0.74739 0.94942 0.88137 0.0
H1394 H 0.75076 0.98627 0.8382 0.0
H1395 H 0.72349 1.03761 0.80568 0.0
H1396 H 0.60987 0.09043 0.82399 0.0
H1397 H 0.60713 0.05426 0.86741 0.0
C1398 C 0.66187 1.00264 0.88772 0.0
C1399 C 0.69209 0.9751 0.89564 0.0
C1400 C 0.66333 1.02384 0.86218 0.0
C1401 C 0.72351 0.96973 0.87664 0.0
C1402 C 0.72557 0.99125 0.85169 0.0
C1403 C 0.69804 0.04137 0.81911 0.0
C1404 C 0.66709 0.06801 0.81106 0.0
C1405 C 0.69591 1.01886 0.84416 0.0
C1406 C 0.63434 0.07105 0.82911 0.0
C1407 C 0.63276 0.05006 0.8542 0.0
loop_
_geom_bond_atom_site_label_1
_geom_bond_atom_site_label_2
_geom_bond_distance
_geom_bond_site_symmetry_2
_ccdc_geom_bond_type
Eu0 C9 2.828 . S
Eu0 O11 2.392 . S
Eu0 O13 2.418 . S
Eu0 O18 2.373 . S
Eu0 O21 2.488 . S
Eu0 O22 2.471 . S
Eu0 O23 2.349 . S
Eu1 O10 2.373 . S
Eu1 O14 2.488 . S
Eu1 O15 2.471 . S
Eu1 O16 2.349 . S
Eu1 O19 2.392 . S
Eu1 O20 2.418 . S
Eu1 C30 2.828 . S
C2 O20 1.244 . S
C2 O23 1.265 . S
C3 C4 1.379 . S
C3 C7 1.373 . S
C3 C9 1.505 . S
C4 C3 1.379 . S
C4 C6 1.369 . S
C4 H32 0.930 . S
C5 C7 1.383 . S
C5 C8 1.382 . S
C5 H33 0.930 . S
C6 C4 1.369 . S
C6 C8 1.392 . S
C6 H34 0.930 . S
C7 C3 1.373 . S
C7 C5 1.383 . S
C7 H35 0.931 . S
C8 C5 1.382 . S
C8 C6 1.392 . S
C9 Eu0 2.828 . S
C9 C3 1.505 . S
C9 O21 1.249 . S
C9 O22 1.244 . S
O10 Eu1 2.373 . S
O10 C12 1.258 . S
O11 Eu0 2.392 . S
O11 C12 1.242 . S
C12 O10 1.258 . S
C12 O11 1.242 . S
O13 Eu0 2.418 . S
O13 C17 1.244 . S
O14 Eu1 2.488 . S
O14 C30 1.249 . S
O15 Eu1 2.471 . S
O15 C30 1.244 . S
O16 Eu1 2.349 . S
O16 C17 1.265 . S
C17 O13 1.244 . S
C17 O16 1.265 . S
O18 Eu0 2.373 . S
O18 C31 1.258 . S
O19 Eu1 2.392 . S
O19 C31 1.242 . S
O20 Eu1 2.418 . S
O20 C2 1.244 . S
O21 Eu0 2.488 . S
O21 C9 1.249 . S
O22 Eu0 2.471 . S
O22 C9 1.244 . S
O23 Eu0 2.349 . S
O23 C2 1.265 . S
C24 C25 1.379 . S
C24 C28 1.373 1_545 S
C24 C30 1.505 . S
C25 C24 1.379 . S
C25 C27 1.369 . S
C25 H36 0.930 . S
C26 C28 1.383 . S
C26 C29 1.382 . S
C26 H37 0.930 . S
C27 C25 1.369 . S
C27 C29 1.392 1_545 S
C27 H38 0.930 . S
C28 C24 1.373 1_565 S
C28 C26 1.383 . S
C28 H39 0.931 . S
C29 C26 1.382 . S
C29 C27 1.392 1_565 S
C30 Eu1 2.828 . S
C30 O14 1.249 . S
C30 O15 1.244 . S
C30 C24 1.505 . S
C31 O18 1.258 . S
C31 O19 1.242 . S
H32 C4 0.930 . S
H33 C5 0.930 . S
H34 C6 0.930 . S
H35 C7 0.931 . S
H36 C25 0.930 . S
H37 C26 0.930 . S
H38 C27 0.930 . S
H39 C28 0.931 . S
Eu40 C49 2.828 . S
Eu40 O51 2.392 . S
Eu40 O53 2.418 . S
Eu40 O58 2.373 . S
Eu40 O61 2.488 . S
Eu40 O62 2.471 . S
Eu40 O63 2.349 . S
Eu41 O50 2.373 . S
Eu41 O54 2.488 . S
Eu41 O55 2.471 . S
Eu41 O56 2.349 . S
Eu41 O59 2.392 . S
Eu41 O60 2.418 . S
Eu41 C70 2.828 . S
C42 O60 1.244 . S
C42 O63 1.265 . S
C43 C44 1.379 . S
C43 C47 1.373 . S
C43 C49 1.505 . S
C44 C43 1.379 . S
C44 C46 1.369 . S
C44 H72 0.930 . S
C45 C47 1.383 . S
C45 C48 1.382 . S
C45 H73 0.930 . S
C46 C44 1.369 . S
C46 C48 1.392 . S
C46 H74 0.930 . S
C47 C43 1.373 . S
C47 C45 1.383 . S
C47 H75 0.931 . S
C48 C45 1.382 . S
C48 C46 1.392 . S
C49 Eu40 2.828 . S
C49 C43 1.505 . S
C49 O61 1.249 . S
C49 O62 1.244 . S
O50 Eu41 2.373 . S
O50 C52 1.258 . S
O51 Eu40 2.392 . S
O51 C52 1.242 . S
C52 O50 1.258 . S
C52 O51 1.242 . S
O53 Eu40 2.418 . S
O53 C57 1.244 . S
O54 Eu41 2.488 . S
O54 C70 1.249 . S
O55 Eu41 2.471 . S
O55 C70 1.244 . S
O56 Eu41 2.349 . S
O56 C57 1.265 . S
C57 O53 1.244 . S
C57 O56 1.265 . S
O58 Eu40 2.373 . S
O58 C71 1.258 . S
O59 Eu41 2.392 . S
O59 C71 1.242 . S
O60 Eu41 2.418 . S
O60 C42 1.244 . S
O61 Eu40 2.488 . S
O61 C49 1.249 . S
O62 Eu40 2.471 . S
O62 C49 1.244 . S
O63 Eu40 2.349 . S
O63 C42 1.265 . S
C64 C65 1.379 . S
C64 C68 1.373 . S
C64 C70 1.505 . S
C65 C64 1.379 . S
C65 C67 1.369 . S
C65 H76 0.930 . S
C66 C68 1.383 . S
C66 C69 1.382 . S
C66 H77 0.930 . S
C67 C65 1.369 . S
C67 C69 1.392 . S
C67 H78 0.930 . S
C68 C64 1.373 . S
C68 C66 1.383 . S
C68 H79 0.931 . S
C69 C66 1.382 . S
C69 C67 1.392 . S
C70 Eu41 2.828 . S
C70 O54 1.249 . S
C70 O55 1.244 . S
C70 C64 1.505 . S
C71 O58 1.258 . S
C71 O59 1.242 . S
H72 C44 0.930 . S
H73 C45 0.930 . S
H74 C46 0.930 . S
H75 C47 0.931 . S
H76 C65 0.930 . S
H77 C66 0.930 . S
H78 C67 0.930 . S
H79 C68 0.931 . S
Eu80 C89 2.828 . S
Eu80 O91 2.392 . S
Eu80 O93 2.418 . S
Eu80 O98 2.373 . S
Eu80 O101 2.488 . S
Eu80 O102 2.471 . S
Eu80 O103 2.349 . S
Eu81 O90 2.373 . S
Eu81 O94 2.488 . S
Eu81 O95 2.471 . S
Eu81 O96 2.349 . S
Eu81 O99 2.392 . S
Eu81 O100 2.418 . S
Eu81 C110 2.828 . S
C82 O100 1.244 . S
C82 O103 1.265 . S
C83 C84 1.379 . S
C83 C87 1.373 . S
C83 C89 1.505 . S
C84 C83 1.379 . S
C84 C86 1.369 . S
C84 H112 0.930 . S
C85 C87 1.383 . S
C85 C88 1.382 . S
C85 H113 0.930 . S
C86 C84 1.369 . S
C86 C88 1.392 . S
C86 H114 0.930 . S
C87 C83 1.373 . S
C87 C85 1.383 . S
C87 H115 0.931 . S
C88 C85 1.382 . S
C88 C86 1.392 . S
C89 Eu80 2.828 . S
C89 C83 1.505 . S
C89 O101 1.249 . S
C89 O102 1.244 . S
O90 Eu81 2.373 . S
O90 C92 1.258 . S
O91 Eu80 2.392 . S
O91 C92 1.242 . S
C92 O90 1.258 . S
C92 O91 1.242 . S
O93 Eu80 2.418 . S
O93 C97 1.244 . S
O94 Eu81 2.488 . S
O94 C110 1.249 . S
O95 Eu81 2.471 . S
O95 C110 1.244 . S
O96 Eu81 2.349 . S
O96 C97 1.265 . S
C97 O93 1.244 . S
C97 O96 1.265 . S
O98 Eu80 2.373 . S
O98 C111 1.258 . S
O99 Eu81 2.392 . S
O99 C111 1.242 . S
O100 Eu81 2.418 . S
O100 C82 1.244 . S
O101 Eu80 2.488 . S
O101 C89 1.249 . S
O102 Eu80 2.471 . S
O102 C89 1.244 . S
O103 Eu80 2.349 . S
O103 C82 1.265 . S
C104 C105 1.379 . S
C104 C108 1.373 1_565 S
C104 C110 1.505 . S
C105 C104 1.379 . S
C105 C107 1.369 . S
C105 H116 0.930 . S
C106 C108 1.383 . S
C106 C109 1.382 . S
C106 H117 0.930 . S
C107 C105 1.369 . S
C107 C109 1.392 1_565 S
C107 H118 0.930 . S
C108 C104 1.373 1_545 S
C108 C106 1.383 . S
C108 H119 0.931 . S
C109 C106 1.382 . S
C109 C107 1.392 1_545 S
C110 Eu81 2.828 . S
C110 O94 1.249 . S
C110 O95 1.244 . S
C110 C104 1.505 . S
C111 O98 1.258 . S
C111 O99 1.242 . S
H112 C84 0.930 . S
H113 C85 0.930 . S
H114 C86 0.930 . S
H115 C87 0.931 . S
H116 C105 0.930 . S
H117 C106 0.930 . S
H118 C107 0.930 . S
H119 C108 0.931 . S
Eu120 C129 2.828 . S
Eu120 O131 2.392 . S
Eu120 O133 2.418 . S
Eu120 O138 2.373 . S
Eu120 O141 2.488 1_655 S
Eu120 O142 2.471 . S
Eu120 O143 2.349 . S
Eu121 O130 2.373 . S
Eu121 O134 2.488 . S
Eu121 O135 2.471 . S
Eu121 O136 2.349 . S
Eu121 O139 2.392 . S
Eu121 O140 2.418 . S
Eu121 C150 2.828 . S
C122 O140 1.244 . S
C122 O143 1.265 . S
C123 C124 1.379 . S
C123 C127 1.373 . S
C123 C129 1.505 1_455 S
C124 C123 1.379 . S
C124 C126 1.369 . S
C124 H152 0.930 1_455 S
C125 C127 1.383 . S
C125 C128 1.382 . S
C125 H153 0.930 . S
C126 C124 1.369 . S
C126 C128 1.392 . S
C126 H154 0.930 . S
C127 C123 1.373 . S
C127 C125 1.383 . S
C127 H155 0.931 . S
C128 C125 1.382 . S
C128 C126 1.392 . S
C129 Eu120 2.828 . S
C129 C123 1.505 1_655 S
C129 O141 1.249 1_655 S
C129 O142 1.244 . S
O130 Eu121 2.373 . S
O130 C132 1.258 . S
O131 Eu120 2.392 . S
O131 C132 1.242 . S
C132 O130 1.258 . S
C132 O131 1.242 . S
O133 Eu120 2.418 . S
O133 C137 1.244 . S
O134 Eu121 2.488 . S
O134 C150 1.249 . S
O135 Eu121 2.471 . S
O135 C150 1.244 . S
O136 Eu121 2.349 . S
O136 C137 1.265 . S
C137 O133 1.244 . S
C137 O136 1.265 . S
O138 Eu120 2.373 . S
O138 C151 1.258 . S
O139 Eu121 2.392 . S
O139 C151 1.242 . S
O140 Eu121 2.418 . S
O140 C122 1.244 . S
O141 Eu120 2.488 1_455 S
O141 C129 1.249 1_455 S
O142 Eu120 2.471 . S
O142 C129 1.244 . S
O143 Eu120 2.349 . S
O143 C122 1.265 . S
C144 C145 1.379 . S
C144 C148 1.373 . S
C144 C150 1.505 . S
C145 C144 1.379 . S
C145 C147 1.369 . S
C145 H156 0.930 . S
C146 C148 1.383 . S
C146 C149 1.382 . S
C146 H157 0.930 . S
C147 C145 1.369 . S
C147 C149 1.392 . S
C147 H158 0.930 . S
C148 C144 1.373 . S
C148 C146 1.383 . S
C148 H159 0.931 . S
C149 C146 1.382 . S
C149 C147 1.392 . S
C150 Eu121 2.828 . S
C150 O134 1.249 . S
C150 O135 1.244 . S
C150 C144 1.505 . S
C151 O138 1.258 . S
C151 O139 1.242 . S
H152 C124 0.930 1_655 S
H153 C125 0.930 . S
H154 C126 0.930 . S
H155 C127 0.931 . S
H156 C145 0.930 . S
H157 C146 0.930 . S
H158 C147 0.930 . S
H159 C148 0.931 . S
Eu160 C169 2.828 . S
Eu160 O171 2.392 . S
Eu160 O173 2.418 . S
Eu160 O178 2.373 . S
Eu160 O181 2.488 . S
Eu160 O182 2.471 . S
Eu160 O183 2.349 . S
Eu161 O170 2.373 . S
Eu161 O174 2.488 . S
Eu161 O175 2.471 . S
Eu161 O176 2.349 . S
Eu161 O179 2.392 . S
Eu161 O180 2.418 . S
Eu161 C190 2.828 . S
C162 O180 1.244 . S
C162 O183 1.265 . S
C163 C164 1.379 . S
C163 C167 1.373 1_565 S
C163 C169 1.505 . S
C164 C163 1.379 . S
C164 C166 1.369 . S
C164 H192 0.930 . S
C165 C167 1.383 . S
C165 C168 1.382 . S
C165 H193 0.930 . S
C166 C164 1.369 . S
C166 C168 1.392 1_565 S
C166 H194 0.930 . S
C167 C163 1.373 1_545 S
C167 C165 1.383 . S
C167 H195 0.931 . S
C168 C165 1.382 . S
C168 C166 1.392 1_545 S
C169 Eu160 2.828 . S
C169 C163 1.505 . S
C169 O181 1.249 . S
C169 O182 1.244 . S
O170 Eu161 2.373 . S
O170 C172 1.258 . S
O171 Eu160 2.392 . S
O171 C172 1.242 . S
C172 O170 1.258 . S
C172 O171 1.242 . S
O173 Eu160 2.418 . S
O173 C177 1.244 . S
O174 Eu161 2.488 . S
O174 C190 1.249 . S
O175 Eu161 2.471 . S
O175 C190 1.244 . S
O176 Eu161 2.349 . S
O176 C177 1.265 . S
C177 O173 1.244 . S
C177 O176 1.265 . S
O178 Eu160 2.373 . S
O178 C191 1.258 . S
O179 Eu161 2.392 . S
O179 C191 1.242 . S
O180 Eu161 2.418 . S
O180 C162 1.244 . S
O181 Eu160 2.488 . S
O181 C169 1.249 . S
O182 Eu160 2.471 . S
O182 C169 1.244 . S
O183 Eu160 2.349 . S
O183 C162 1.265 . S
C184 C185 1.379 . S
C184 C188 1.373 . S
C184 C190 1.505 . S
C185 C184 1.379 . S
C185 C187 1.369 . S
C185 H196 0.930 . S
C186 C188 1.383 . S
C186 C189 1.382 . S
C186 H197 0.930 . S
C187 C185 1.369 . S
C187 C189 1.392 . S
C187 H198 0.930 . S
C188 C184 1.373 . S
C188 C186 1.383 . S
C188 H199 0.931 . S
C189 C186 1.382 . S
C189 C187 1.392 . S
C190 Eu161 2.828 . S
C190 O174 1.249 . S
C190 O175 1.244 . S
C190 C184 1.505 . S
C191 O178 1.258 . S
C191 O179 1.242 . S
H192 C164 0.930 . S
H193 C165 0.930 . S
H194 C166 0.930 . S
H195 C167 0.931 . S
H196 C185 0.930 . S
H197 C186 0.930 . S
H198 C187 0.930 . S
H199 C188 0.931 . S
Eu200 C209 2.828 . S
Eu200 O211 2.392 . S
Eu200 O213 2.418 . S
Eu200 O218 2.373 . S
Eu200 O221 2.488 . S
Eu200 O222 2.471 . S
Eu200 O223 2.349 . S
Eu201 O210 2.373 . S
Eu201 O214 2.488 . S
Eu201 O215 2.471 . S
Eu201 O216 2.349 . S
Eu201 O219 2.392 . S
Eu201 O220 2.418 . S
Eu201 C230 2.828 . S
C202 O220 1.244 . S
C202 O223 1.265 . S
C203 C204 1.379 . S
C203 C207 1.373 . S
C203 C209 1.505 . S
C204 C203 1.379 . S
C204 C206 1.369 . S
C204 H232 0.930 . S
C205 C207 1.383 . S
C205 C208 1.382 . S
C205 H233 0.930 . S
C206 C204 1.369 . S
C206 C208 1.392 . S
C206 H234 0.930 . S
C207 C203 1.373 . S
C207 C205 1.383 . S
C207 H235 0.931 . S
C208 C205 1.382 . S
C208 C206 1.392 . S
C209 Eu200 2.828 . S
C209 C203 1.505 . S
C209 O221 1.249 . S
C209 O222 1.244 . S
O210 Eu201 2.373 . S
O210 C212 1.258 . S
O211 Eu200 2.392 . S
O211 C212 1.242 . S
C212 O210 1.258 . S
C212 O211 1.242 . S
O213 Eu200 2.418 . S
O213 C217 1.244 . S
O214 Eu201 2.488 . S
O214 C230 1.249 . S
O215 Eu201 2.471 . S
O215 C230 1.244 . S
O216 Eu201 2.349 . S
O216 C217 1.265 . S
C217 O213 1.244 . S
C217 O216 1.265 . S
O218 Eu200 2.373 . S
O218 C231 1.258 . S
O219 Eu201 2.392 . S
O219 C231 1.242 . S
O220 Eu201 2.418 . S
O220 C202 1.244 . S
O221 Eu200 2.488 . S
O221 C209 1.249 . S
O222 Eu200 2.471 . S
O222 C209 1.244 . S
O223 Eu200 2.349 . S
O223 C202 1.265 . S
C224 C225 1.379 . S
C224 C228 1.373 . S
C224 C230 1.505 . S
C225 C224 1.379 . S
C225 C227 1.369 . S
C225 H236 0.930 . S
C226 C228 1.383 . S
C226 C229 1.382 . S
C226 H237 0.930 . S
C227 C225 1.369 . S
C227 C229 1.392 . S
C227 H238 0.930 . S
C228 C224 1.373 . S
C228 C226 1.383 . S
C228 H239 0.931 . S
C229 C226 1.382 . S
C229 C227 1.392 . S
C230 Eu201 2.828 . S
C230 O214 1.249 . S
C230 O215 1.244 . S
C230 C224 1.505 . S
C231 O218 1.258 . S
C231 O219 1.242 . S
H232 C204 0.930 . S
H233 C205 0.930 . S
H234 C206 0.930 . S
H235 C207 0.931 . S
H236 C225 0.930 . S
H237 C226 0.930 . S
H238 C227 0.930 . S
H239 C228 0.931 . S
Eu240 C249 2.828 . S
Eu240 O251 2.392 . S
Eu240 O253 2.418 . S
Eu240 O258 2.373 . S
Eu240 O261 2.488 . S
Eu240 O262 2.471 . S
Eu240 O263 2.349 . S
Eu241 O250 2.373 . S
Eu241 O254 2.488 . S
Eu241 O255 2.471 . S
Eu241 O256 2.349 . S
Eu241 O259 2.392 . S
Eu241 O260 2.418 . S
Eu241 C270 2.828 . S
C242 O260 1.244 . S
C242 O263 1.265 . S
C243 C244 1.379 . S
C243 C247 1.373 1_545 S
C243 C249 1.505 . S
C244 C243 1.379 . S
C244 C246 1.369 . S
C244 H272 0.930 . S
C245 C247 1.383 . S
C245 C248 1.382 . S
C245 H273 0.930 . S
C246 C244 1.369 . S
C246 C248 1.392 1_545 S
C246 H274 0.930 . S
C247 C243 1.373 1_565 S
C247 C245 1.383 . S
C247 H275 0.931 . S
C248 C245 1.382 . S
C248 C246 1.392 1_565 S
C249 Eu240 2.828 . S
C249 C243 1.505 . S
C249 O261 1.249 . S
C249 O262 1.244 . S
O250 Eu241 2.373 . S
O250 C252 1.258 . S
O251 Eu240 2.392 . S
O251 C252 1.242 . S
C252 O250 1.258 . S
C252 O251 1.242 . S
O253 Eu240 2.418 . S
O253 C257 1.244 . S
O254 Eu241 2.488 . S
O254 C270 1.249 . S
O255 Eu241 2.471 . S
O255 C270 1.244 . S
O256 Eu241 2.349 . S
O256 C257 1.265 . S
C257 O253 1.244 . S
C257 O256 1.265 . S
O258 Eu240 2.373 . S
O258 C271 1.258 . S
O259 Eu241 2.392 . S
O259 C271 1.242 . S
O260 Eu241 2.418 . S
O260 C242 1.244 . S
O261 Eu240 2.488 . S
O261 C249 1.249 . S
O262 Eu240 2.471 . S
O262 C249 1.244 . S
O263 Eu240 2.349 . S
O263 C242 1.265 . S
C264 C265 1.379 . S
C264 C268 1.373 . S
C264 C270 1.505 . S
C265 C264 1.379 . S
C265 C267 1.369 . S
C265 H276 0.930 . S
C266 C268 1.383 . S
C266 C269 1.382 . S
C266 H277 0.930 . S
C267 C265 1.369 . S
C267 C269 1.392 . S
C267 H278 0.930 . S
C268 C264 1.373 . S
C268 C266 1.383 . S
C268 H279 0.931 . S
C269 C266 1.382 . S
C269 C267 1.392 . S
C270 Eu241 2.828 . S
C270 O254 1.249 . S
C270 O255 1.244 . S
C270 C264 1.505 . S
C271 O258 1.258 . S
C271 O259 1.242 . S
H272 C244 0.930 . S
H273 C245 0.930 . S
H274 C246 0.930 . S
H275 C247 0.931 . S
H276 C265 0.930 . S
H277 C266 0.930 . S
H278 C267 0.930 . S
H279 C268 0.931 . S
Eu280 C289 2.828 . S
Eu280 O291 2.392 . S
Eu280 O293 2.418 . S
Eu280 O298 2.373 . S
Eu280 O301 2.488 . S
Eu280 O302 2.471 . S
Eu280 O303 2.349 . S
Eu281 O290 2.373 . S
Eu281 O294 2.488 1_455 S
Eu281 O295 2.471 . S
Eu281 O296 2.349 . S
Eu281 O299 2.392 . S
Eu281 O300 2.418 . S
Eu281 C310 2.828 . S
C282 O300 1.244 . S
C282 O303 1.265 . S
C283 C284 1.379 . S
C283 C287 1.373 . S
C283 C289 1.505 . S
C284 C283 1.379 . S
C284 C286 1.369 . S
C284 H312 0.930 . S
C285 C287 1.383 . S
C285 C288 1.382 . S
C285 H313 0.930 . S
C286 C284 1.369 . S
C286 C288 1.392 . S
C286 H314 0.930 . S
C287 C283 1.373 . S
C287 C285 1.383 . S
C287 H315 0.931 . S
C288 C285 1.382 . S
C288 C286 1.392 . S
C289 Eu280 2.828 . S
C289 C283 1.505 . S
C289 O301 1.249 . S
C289 O302 1.244 . S
O290 Eu281 2.373 . S
O290 C292 1.258 . S
O291 Eu280 2.392 . S
O291 C292 1.242 . S
C292 O290 1.258 . S
C292 O291 1.242 . S
O293 Eu280 2.418 . S
O293 C297 1.244 . S
O294 Eu281 2.488 1_655 S
O294 C310 1.249 1_655 S
O295 Eu281 2.471 . S
O295 C310 1.244 . S
O296 Eu281 2.349 . S
O296 C297 1.265 . S
C297 O293 1.244 . S
C297 O296 1.265 . S
O298 Eu280 2.373 . S
O298 C311 1.258 . S
O299 Eu281 2.392 . S
O299 C311 1.242 . S
O300 Eu281 2.418 . S
O300 C282 1.244 . S
O301 Eu280 2.488 . S
O301 C289 1.249 . S
O302 Eu280 2.471 . S
O302 C289 1.244 . S
O303 Eu280 2.349 . S
O303 C282 1.265 . S
C304 C305 1.379 . S
C304 C308 1.373 . S
C304 C310 1.505 1_655 S
C305 C304 1.379 . S
C305 C307 1.369 . S
C305 H316 0.930 1_655 S
C306 C308 1.383 . S
C306 C309 1.382 . S
C306 H317 0.930 . S
C307 C305 1.369 . S
C307 C309 1.392 . S
C307 H318 0.930 . S
C308 C304 1.373 . S
C308 C306 1.383 . S
C308 H319 0.931 . S
C309 C306 1.382 . S
C309 C307 1.392 . S
C310 Eu281 2.828 . S
C310 O294 1.249 1_455 S
C310 O295 1.244 . S
C310 C304 1.505 1_455 S
C311 O298 1.258 . S
C311 O299 1.242 . S
H312 C284 0.930 . S
H313 C285 0.930 . S
H314 C286 0.930 . S
H315 C287 0.931 . S
H316 C305 0.930 1_455 S
H317 C306 0.930 . S
H318 C307 0.930 . S
H319 C308 0.931 . S
Eu320 C329 2.828 . S
Eu320 O331 2.392 . S
Eu320 O333 2.418 . S
Eu320 O338 2.373 . S
Eu320 O341 2.488 . S
Eu320 O342 2.471 . S
Eu320 O343 2.349 . S
Eu321 O330 2.373 . S
Eu321 O334 2.488 . S
Eu321 O335 2.471 . S
Eu321 O336 2.349 . S
Eu321 O339 2.392 . S
Eu321 O340 2.418 . S
Eu321 C350 2.828 . S
C322 O340 1.244 . S
C322 O343 1.265 . S
C323 C324 1.379 . S
C323 C327 1.373 . S
C323 C329 1.505 . S
C324 C323 1.379 . S
C324 C326 1.369 . S
C324 H352 0.930 . S
C325 C327 1.383 . S
C325 C328 1.382 . S
C325 H353 0.930 . S
C326 C324 1.369 . S
C326 C328 1.392 . S
C326 H354 0.930 . S
C327 C323 1.373 . S
C327 C325 1.383 . S
C327 H355 0.931 . S
C328 C325 1.382 . S
C328 C326 1.392 . S
C329 Eu320 2.828 . S
C329 C323 1.505 . S
C329 O341 1.249 . S
C329 O342 1.244 . S
O330 Eu321 2.373 . S
O330 C332 1.258 . S
O331 Eu320 2.392 . S
O331 C332 1.242 . S
C332 O330 1.258 . S
C332 O331 1.242 . S
O333 Eu320 2.418 . S
O333 C337 1.244 . S
O334 Eu321 2.488 . S
O334 C350 1.249 . S
O335 Eu321 2.471 . S
O335 C350 1.244 . S
O336 Eu321 2.349 . S
O336 C337 1.265 . S
C337 O333 1.244 . S
C337 O336 1.265 . S
O338 Eu320 2.373 . S
O338 C351 1.258 . S
O339 Eu321 2.392 . S
O339 C351 1.242 . S
O340 Eu321 2.418 . S
O340 C322 1.244 . S
O341 Eu320 2.488 . S
O341 C329 1.249 . S
O342 Eu320 2.471 . S
O342 C329 1.244 . S
O343 Eu320 2.349 . S
O343 C322 1.265 . S
C344 C345 1.379 . S
C344 C348 1.373 . S
C344 C350 1.505 . S
C345 C344 1.379 . S
C345 C347 1.369 . S
C345 H356 0.930 . S
C346 C348 1.383 . S
C346 C349 1.382 . S
C346 H357 0.930 . S
C347 C345 1.369 . S
C347 C349 1.392 . S
C347 H358 0.930 . S
C348 C344 1.373 . S
C348 C346 1.383 . S
C348 H359 0.931 . S
C349 C346 1.382 . S
C349 C347 1.392 . S
C350 Eu321 2.828 . S
C350 O334 1.249 . S
C350 O335 1.244 . S
C350 C344 1.505 . S
C351 O338 1.258 . S
C351 O339 1.242 . S
H352 C324 0.930 . S
H353 C325 0.930 . S
H354 C326 0.930 . S
H355 C327 0.931 . S
H356 C345 0.930 . S
H357 C346 0.930 . S
H358 C347 0.930 . S
H359 C348 0.931 . S
Eu360 C369 2.823 1_545 S
Eu360 O371 2.392 . S
Eu360 O373 2.418 . S
Eu360 O378 2.373 . S
Eu360 O381 2.488 1_455 S
Eu360 O382 2.471 1_545 S
Eu360 O383 2.349 . S
Eu361 O370 2.373 . S
Eu361 O374 2.488 . S
Eu361 O375 2.471 . S
Eu361 O376 2.349 . S
Eu361 O379 2.392 . S
Eu361 O380 2.418 . S
Eu361 C390 2.828 . S
C362 O380 1.244 1_565 S
C362 O383 1.265 1_565 S
C363 C364 1.379 . S
C363 C367 1.373 . S
C363 C369 1.510 1_655 S
C364 C363 1.379 . S
C364 C366 1.369 . S
C364 H392 0.930 1_655 S
C365 C367 1.383 . S
C365 C368 1.382 . S
C365 H393 0.930 . S
C366 C364 1.369 . S
C366 C368 1.392 . S
C366 H394 0.930 . S
C367 C363 1.373 . S
C367 C365 1.383 . S
C367 H395 0.931 1_565 S
C368 C365 1.382 . S
C368 C366 1.392 . S
C369 Eu360 2.823 1_565 S
C369 C363 1.510 1_455 S
C369 O381 1.239 1_465 S
C369 O382 1.250 . S
O370 Eu361 2.373 . S
O370 C372 1.258 . S
O371 Eu360 2.392 . S
O371 C372 1.242 . S
C372 O370 1.258 . S
C372 O371 1.242 . S
O373 Eu360 2.418 . S
O373 C377 1.244 . S
O374 Eu361 2.488 . S
O374 C390 1.249 . S
O375 Eu361 2.471 . S
O375 C390 1.244 . S
O376 Eu361 2.349 . S
O376 C377 1.265 . S
C377 O373 1.244 . S
C377 O376 1.265 . S
O378 Eu360 2.373 . S
O378 C391 1.258 . S
O379 Eu361 2.392 . S
O379 C391 1.242 . S
O380 Eu361 2.418 . S
O380 C362 1.244 1_545 S
O381 Eu360 2.488 1_655 S
O381 C369 1.239 1_645 S
O382 Eu360 2.471 1_565 S
O382 C369 1.250 . S
O383 Eu360 2.349 . S
O383 C362 1.265 1_545 S
C384 C385 1.379 . S
C384 C388 1.373 . S
C384 C390 1.505 . S
C385 C384 1.379 . S
C385 C387 1.369 . S
C385 H396 0.930 . S
C386 C388 1.383 . S
C386 C389 1.382 . S
C386 H397 0.930 . S
C387 C385 1.369 . S
C387 C389 1.392 . S
C387 H398 0.930 . S
C388 C384 1.373 . S
C388 C386 1.383 . S
C388 H399 0.931 . S
C389 C386 1.382 . S
C389 C387 1.392 . S
C390 Eu361 2.828 . S
C390 O374 1.249 . S
C390 O375 1.244 . S
C390 C384 1.505 . S
C391 O378 1.258 . S
C391 O379 1.242 . S
H392 C364 0.930 1_455 S
H393 C365 0.930 . S
H394 C366 0.930 . S
H395 C367 0.931 1_545 S
H396 C385 0.930 . S
H397 C386 0.930 . S
H398 C387 0.930 . S
H399 C388 0.931 . S
Eu400 C409 2.828 . S
Eu400 O411 2.392 . S
Eu400 O413 2.418 . S
Eu400 O418 2.373 . S
Eu400 O421 2.488 . S
Eu400 O422 2.471 . S
Eu400 O423 2.349 . S
Eu401 O410 2.373 . S
Eu401 O414 2.488 . S
Eu401 O415 2.471 . S
Eu401 O416 2.349 . S
Eu401 O419 2.392 . S
Eu401 O420 2.418 . S
Eu401 C430 2.828 . S
C402 O420 1.244 . S
C402 O423 1.265 . S
C403 C404 1.379 . S
C403 C407 1.373 . S
C403 C409 1.505 . S
C404 C403 1.379 . S
C404 C406 1.369 . S
C404 H432 0.930 . S
C405 C407 1.383 . S
C405 C408 1.382 . S
C405 H433 0.930 . S
C406 C404 1.369 . S
C406 C408 1.392 . S
C406 H434 0.930 . S
C407 C403 1.373 . S
C407 C405 1.383 . S
C407 H435 0.931 . S
C408 C405 1.382 . S
C408 C406 1.392 . S
C409 Eu400 2.828 . S
C409 C403 1.505 . S
C409 O421 1.249 . S
C409 O422 1.244 . S
O410 Eu401 2.373 . S
O410 C412 1.258 . S
O411 Eu400 2.392 . S
O411 C412 1.242 . S
C412 O410 1.258 . S
C412 O411 1.242 . S
O413 Eu400 2.418 . S
O413 C417 1.244 . S
O414 Eu401 2.488 . S
O414 C430 1.249 . S
O415 Eu401 2.471 . S
O415 C430 1.244 . S
O416 Eu401 2.349 . S
O416 C417 1.265 . S
C417 O413 1.244 . S
C417 O416 1.265 . S
O418 Eu400 2.373 . S
O418 C431 1.258 . S
O419 Eu401 2.392 . S
O419 C431 1.242 . S
O420 Eu401 2.418 . S
O420 C402 1.244 . S
O421 Eu400 2.488 . S
O421 C409 1.249 . S
O422 Eu400 2.471 . S
O422 C409 1.244 . S
O423 Eu400 2.349 . S
O423 C402 1.265 . S
C424 C425 1.379 . S
C424 C428 1.373 . S
C424 C430 1.505 . S
C425 C424 1.379 . S
C425 C427 1.369 . S
C425 H436 0.930 . S
C426 C428 1.383 . S
C426 C429 1.382 . S
C426 H437 0.930 . S
C427 C425 1.369 . S
C427 C429 1.392 . S
C427 H438 0.930 . S
C428 C424 1.373 . S
C428 C426 1.383 . S
C428 H439 0.931 . S
C429 C426 1.382 . S
C429 C427 1.392 . S
C430 Eu401 2.828 . S
C430 O414 1.249 . S
C430 O415 1.244 . S
C430 C424 1.505 . S
C431 O418 1.258 . S
C431 O419 1.242 . S
H432 C404 0.930 . S
H433 C405 0.930 . S
H434 C406 0.930 . S
H435 C407 0.931 . S
H436 C425 0.930 . S
H437 C426 0.930 . S
H438 C427 0.930 . S
H439 C428 0.931 . S
Eu440 C449 2.823 1_565 S
Eu440 O451 2.392 . S
Eu440 O453 2.418 . S
Eu440 O458 2.373 . S
Eu440 O461 2.488 . S
Eu440 O462 2.471 1_565 S
Eu440 O463 2.349 . S
Eu441 O450 2.373 . S
Eu441 O454 2.488 . S
Eu441 O455 2.471 . S
Eu441 O456 2.349 . S
Eu441 O459 2.392 . S
Eu441 O460 2.418 . S
Eu441 C470 2.828 . S
C442 O460 1.244 1_545 S
C442 O463 1.265 1_545 S
C443 C444 1.379 . S
C443 C447 1.373 . S
C443 C449 1.510 . S
C444 C443 1.379 . S
C444 C446 1.369 . S
C444 H472 0.930 . S
C445 C447 1.383 . S
C445 C448 1.382 . S
C445 H473 0.930 . S
C446 C444 1.369 . S
C446 C448 1.392 . S
C446 H474 0.930 . S
C447 C443 1.373 . S
C447 C445 1.383 . S
C447 H475 0.931 1_545 S
C448 C445 1.382 . S
C448 C446 1.392 . S
C449 Eu440 2.823 1_545 S
C449 C443 1.510 . S
C449 O461 1.239 1_545 S
C449 O462 1.250 . S
O450 Eu441 2.373 . S
O450 C452 1.258 . S
O451 Eu440 2.392 . S
O451 C452 1.242 . S
C452 O450 1.258 . S
C452 O451 1.242 . S
O453 Eu440 2.418 . S
O453 C457 1.244 . S
O454 Eu441 2.488 . S
O454 C470 1.249 . S
O455 Eu441 2.471 . S
O455 C470 1.244 . S
O456 Eu441 2.349 . S
O456 C457 1.265 . S
C457 O453 1.244 . S
C457 O456 1.265 . S
O458 Eu440 2.373 . S
O458 C471 1.258 . S
O459 Eu441 2.392 . S
O459 C471 1.242 . S
O460 Eu441 2.418 . S
O460 C442 1.244 1_565 S
O461 Eu440 2.488 . S
O461 C449 1.239 1_565 S
O462 Eu440 2.471 1_545 S
O462 C449 1.250 . S
O463 Eu440 2.349 . S
O463 C442 1.265 1_565 S
C464 C465 1.379 . S
C464 C468 1.373 . S
C464 C470 1.505 . S
C465 C464 1.379 . S
C465 C467 1.369 . S
C465 H476 0.930 . S
C466 C468 1.383 . S
C466 C469 1.382 . S
C466 H477 0.930 . S
C467 C465 1.369 . S
C467 C469 1.392 . S
C467 H478 0.930 . S
C468 C464 1.373 . S
C468 C466 1.383 . S
C468 H479 0.931 . S
C469 C466 1.382 . S
C469 C467 1.392 . S
C470 Eu441 2.828 . S
C470 O454 1.249 . S
C470 O455 1.244 . S
C470 C464 1.505 . S
C471 O458 1.258 . S
C471 O459 1.242 . S
H472 C444 0.930 . S
H473 C445 0.930 . S
H474 C446 0.930 . S
H475 C447 0.931 1_565 S
H476 C465 0.930 . S
H477 C466 0.930 . S
H478 C467 0.930 . S
H479 C468 0.931 . S
Eu480 C489 2.828 . S
Eu480 O491 2.392 . S
Eu480 O493 2.418 . S
Eu480 O498 2.373 . S
Eu480 O501 2.488 . S
Eu480 O502 2.471 . S
Eu480 O503 2.349 . S
Eu481 O490 2.373 . S
Eu481 O494 2.488 . S
Eu481 O495 2.471 . S
Eu481 O496 2.349 . S
Eu481 O499 2.392 . S
Eu481 O500 2.418 . S
Eu481 C510 2.828 . S
C482 O500 1.244 . S
C482 O503 1.265 . S
C483 C484 1.379 . S
C483 C487 1.373 . S
C483 C489 1.505 . S
C484 C483 1.379 . S
C484 C486 1.369 . S
C484 H512 0.930 . S
C485 C487 1.383 . S
C485 C488 1.382 . S
C485 H513 0.930 . S
C486 C484 1.369 . S
C486 C488 1.392 . S
C486 H514 0.930 . S
C487 C483 1.373 . S
C487 C485 1.383 . S
C487 H515 0.931 . S
C488 C485 1.382 . S
C488 C486 1.392 . S
C489 Eu480 2.828 . S
C489 C483 1.505 . S
C489 O501 1.249 . S
C489 O502 1.244 . S
O490 Eu481 2.373 . S
O490 C492 1.258 . S
O491 Eu480 2.392 . S
O491 C492 1.242 . S
C492 O490 1.258 . S
C492 O491 1.242 . S
O493 Eu480 2.418 . S
O493 C497 1.244 . S
O494 Eu481 2.488 . S
O494 C510 1.249 . S
O495 Eu481 2.471 . S
O495 C510 1.244 . S
O496 Eu481 2.349 . S
O496 C497 1.265 . S
C497 O493 1.244 . S
C497 O496 1.265 . S
O498 Eu480 2.373 . S
O498 C511 1.258 . S
O499 Eu481 2.392 . S
O499 C511 1.242 . S
O500 Eu481 2.418 . S
O500 C482 1.244 . S
O501 Eu480 2.488 . S
O501 C489 1.249 . S
O502 Eu480 2.471 . S
O502 C489 1.244 . S
O503 Eu480 2.349 . S
O503 C482 1.265 . S
C504 C505 1.379 . S
C504 C508 1.373 . S
C504 C510 1.505 . S
C505 C504 1.379 . S
C505 C507 1.369 . S
C505 H516 0.930 . S
C506 C508 1.383 . S
C506 C509 1.382 . S
C506 H517 0.930 . S
C507 C505 1.369 . S
C507 C509 1.392 . S
C507 H518 0.930 . S
C508 C504 1.373 . S
C508 C506 1.383 . S
C508 H519 0.931 . S
C509 C506 1.382 . S
C509 C507 1.392 . S
C510 Eu481 2.828 . S
C510 O494 1.249 . S
C510 O495 1.244 . S
C510 C504 1.505 . S
C511 O498 1.258 . S
C511 O499 1.242 . S
H512 C484 0.930 . S
H513 C485 0.930 . S
H514 C486 0.930 . S
H515 C487 0.931 . S
H516 C505 0.930 . S
H517 C506 0.930 . S
H518 C507 0.930 . S
H519 C508 0.931 . S
Eu520 C529 2.828 . S
Eu520 O531 2.392 . S
Eu520 O533 2.418 . S
Eu520 O538 2.373 . S
Eu520 O541 2.488 . S
Eu520 O542 2.471 . S
Eu520 O543 2.349 . S
Eu521 O530 2.373 . S
Eu521 O534 2.488 1_655 S
Eu521 O535 2.471 1_565 S
Eu521 O536 2.349 . S
Eu521 O539 2.392 . S
Eu521 O540 2.418 . S
Eu521 C550 2.823 1_565 S
C522 O540 1.244 . S
C522 O543 1.265 . S
C523 C524 1.379 . S
C523 C527 1.373 . S
C523 C529 1.505 . S
C524 C523 1.379 . S
C524 C526 1.369 . S
C524 H552 0.930 . S
C525 C527 1.383 . S
C525 C528 1.382 . S
C525 H553 0.930 . S
C526 C524 1.369 . S
C526 C528 1.392 . S
C526 H554 0.930 . S
C527 C523 1.373 . S
C527 C525 1.383 . S
C527 H555 0.931 . S
C528 C525 1.382 . S
C528 C526 1.392 . S
C529 Eu520 2.828 . S
C529 C523 1.505 . S
C529 O541 1.249 . S
C529 O542 1.244 . S
O530 Eu521 2.373 . S
O530 C532 1.258 . S
O531 Eu520 2.392 . S
O531 C532 1.242 . S
C532 O530 1.258 . S
C532 O531 1.242 . S
O533 Eu520 2.418 . S
O533 C537 1.244 1_565 S
O534 Eu521 2.488 1_455 S
O534 C550 1.239 1_465 S
O535 Eu521 2.471 1_545 S
O535 C550 1.250 . S
O536 Eu521 2.349 . S
O536 C537 1.265 1_565 S
C537 O533 1.244 1_545 S
C537 O536 1.265 1_545 S
O538 Eu520 2.373 . S
O538 C551 1.258 . S
O539 Eu521 2.392 . S
O539 C551 1.242 . S
O540 Eu521 2.418 . S
O540 C522 1.244 . S
O541 Eu520 2.488 . S
O541 C529 1.249 . S
O542 Eu520 2.471 . S
O542 C529 1.244 . S
O543 Eu520 2.349 . S
O543 C522 1.265 . S
C544 C545 1.379 . S
C544 C548 1.373 . S
C544 C550 1.510 1_455 S
C545 C544 1.379 . S
C545 C547 1.369 . S
C545 H556 0.930 1_455 S
C546 C548 1.383 . S
C546 C549 1.382 . S
C546 H557 0.930 . S
C547 C545 1.369 . S
C547 C549 1.392 . S
C547 H558 0.930 . S
C548 C544 1.373 . S
C548 C546 1.383 . S
C548 H559 0.931 1_545 S
C549 C546 1.382 . S
C549 C547 1.392 . S
C550 Eu521 2.823 1_545 S
C550 O534 1.239 1_645 S
C550 O535 1.250 . S
C550 C544 1.510 1_655 S
C551 O538 1.258 . S
C551 O539 1.242 . S
H552 C524 0.930 . S
H553 C525 0.930 . S
H554 C526 0.930 . S
H555 C527 0.931 . S
H556 C545 0.930 1_655 S
H557 C546 0.930 . S
H558 C547 0.930 . S
H559 C548 0.931 1_565 S
Eu560 C569 2.828 . S
Eu560 O571 2.392 . S
Eu560 O573 2.418 . S
Eu560 O578 2.373 . S
Eu560 O581 2.488 . S
Eu560 O582 2.471 . S
Eu560 O583 2.349 . S
Eu561 O570 2.373 . S
Eu561 O574 2.488 . S
Eu561 O575 2.471 . S
Eu561 O576 2.349 . S
Eu561 O579 2.392 . S
Eu561 O580 2.418 . S
Eu561 C590 2.828 . S
C562 O580 1.244 . S
C562 O583 1.265 . S
C563 C564 1.379 . S
C563 C567 1.373 . S
C563 C569 1.505 . S
C564 C563 1.379 . S
C564 C566 1.369 . S
C564 H592 0.930 . S
C565 C567 1.383 . S
C565 C568 1.382 . S
C565 H593 0.930 . S
C566 C564 1.369 . S
C566 C568 1.392 . S
C566 H594 0.930 . S
C567 C563 1.373 . S
C567 C565 1.383 . S
C567 H595 0.931 . S
C568 C565 1.382 . S
C568 C566 1.392 . S
C569 Eu560 2.828 . S
C569 C563 1.505 . S
C569 O581 1.249 . S
C569 O582 1.244 . S
O570 Eu561 2.373 . S
O570 C572 1.258 . S
O571 Eu560 2.392 . S
O571 C572 1.242 . S
C572 O570 1.258 . S
C572 O571 1.242 . S
O573 Eu560 2.418 . S
O573 C577 1.244 . S
O574 Eu561 2.488 . S
O574 C590 1.249 . S
O575 Eu561 2.471 . S
O575 C590 1.244 . S
O576 Eu561 2.349 . S
O576 C577 1.265 . S
C577 O573 1.244 . S
C577 O576 1.265 . S
O578 Eu560 2.373 . S
O578 C591 1.258 . S
O579 Eu561 2.392 . S
O579 C591 1.242 . S
O580 Eu561 2.418 . S
O580 C562 1.244 . S
O581 Eu560 2.488 . S
O581 C569 1.249 . S
O582 Eu560 2.471 . S
O582 C569 1.244 . S
O583 Eu560 2.349 . S
O583 C562 1.265 . S
C584 C585 1.379 . S
C584 C588 1.373 . S
C584 C590 1.505 . S
C585 C584 1.379 . S
C585 C587 1.369 . S
C585 H596 0.930 . S
C586 C588 1.383 . S
C586 C589 1.382 . S
C586 H597 0.930 . S
C587 C585 1.369 . S
C587 C589 1.392 . S
C587 H598 0.930 . S
C588 C584 1.373 . S
C588 C586 1.383 . S
C588 H599 0.931 . S
C589 C586 1.382 . S
C589 C587 1.392 . S
C590 Eu561 2.828 . S
C590 O574 1.249 . S
C590 O575 1.244 . S
C590 C584 1.505 . S
C591 O578 1.258 . S
C591 O579 1.242 . S
H592 C564 0.930 . S
H593 C565 0.930 . S
H594 C566 0.930 . S
H595 C567 0.931 . S
H596 C585 0.930 . S
H597 C586 0.930 . S
H598 C587 0.930 . S
H599 C588 0.931 . S
Eu600 C609 2.828 . S
Eu600 O611 2.392 . S
Eu600 O613 2.418 . S
Eu600 O618 2.373 . S
Eu600 O621 2.488 . S
Eu600 O622 2.471 . S
Eu600 O623 2.349 . S
Eu601 O610 2.373 . S
Eu601 O614 2.488 . S
Eu601 O615 2.471 1_545 S
Eu601 O616 2.349 . S
Eu601 O619 2.392 . S
Eu601 O620 2.418 . S
Eu601 C630 2.823 1_545 S
C602 O620 1.244 . S
C602 O623 1.265 . S
C603 C604 1.379 . S
C603 C607 1.373 . S
C603 C609 1.505 . S
C604 C603 1.379 . S
C604 C606 1.369 . S
C604 H632 0.930 . S
C605 C607 1.383 . S
C605 C608 1.382 . S
C605 H633 0.930 . S
C606 C604 1.369 . S
C606 C608 1.392 . S
C606 H634 0.930 . S
C607 C603 1.373 . S
C607 C605 1.383 . S
C607 H635 0.931 . S
C608 C605 1.382 . S
C608 C606 1.392 . S
C609 Eu600 2.828 . S
C609 C603 1.505 . S
C609 O621 1.249 . S
C609 O622 1.244 . S
O610 Eu601 2.373 . S
O610 C612 1.258 . S
O611 Eu600 2.392 . S
O611 C612 1.242 . S
C612 O610 1.258 . S
C612 O611 1.242 . S
O613 Eu600 2.418 . S
O613 C617 1.244 1_545 S
O614 Eu601 2.488 . S
O614 C630 1.239 1_545 S
O615 Eu601 2.471 1_565 S
O615 C630 1.250 . S
O616 Eu601 2.349 . S
O616 C617 1.265 1_545 S
C617 O613 1.244 1_565 S
C617 O616 1.265 1_565 S
O618 Eu600 2.373 . S
O618 C631 1.258 . S
O619 Eu601 2.392 . S
O619 C631 1.242 . S
O620 Eu601 2.418 . S
O620 C602 1.244 . S
O621 Eu600 2.488 . S
O621 C609 1.249 . S
O622 Eu600 2.471 . S
O622 C609 1.244 . S
O623 Eu600 2.349 . S
O623 C602 1.265 . S
C624 C625 1.379 . S
C624 C628 1.373 . S
C624 C630 1.510 . S
C625 C624 1.379 . S
C625 C627 1.369 . S
C625 H636 0.930 . S
C626 C628 1.383 . S
C626 C629 1.382 . S
C626 H637 0.930 . S
C627 C625 1.369 . S
C627 C629 1.392 . S
C627 H638 0.930 . S
C628 C624 1.373 . S
C628 C626 1.383 . S
C628 H639 0.931 1_565 S
C629 C626 1.382 . S
C629 C627 1.392 . S
C630 Eu601 2.823 1_565 S
C630 O614 1.239 1_565 S
C630 O615 1.250 . S
C630 C624 1.510 . S
C631 O618 1.258 . S
C631 O619 1.242 . S
H632 C604 0.930 . S
H633 C605 0.930 . S
H634 C606 0.930 . S
H635 C607 0.931 . S
H636 C625 0.930 . S
H637 C626 0.930 . S
H638 C627 0.930 . S
H639 C628 0.931 1_545 S
H640 C646 0.930 . S
H641 C649 0.930 . S
H642 C650 0.930 . S
H643 C651 0.930 . S
H644 C654 0.930 . S
H645 C655 0.930 . S
C646 H640 0.930 . S
C646 C647 1.355 . S
C646 C648 1.415 . S
C647 C646 1.355 . S
C647 C649 1.419 . S
C648 C646 1.415 . S
C648 C653 1.425 . S
C648 C655 1.409 . S
C649 H641 0.930 . S
C649 C647 1.419 . S
C649 C650 1.362 . S
C650 H642 0.930 . S
C650 C649 1.362 . S
C650 C653 1.409 . S
C651 H643 0.930 . S
C651 C652 1.355 . S
C651 C653 1.415 . S
C652 C651 1.355 . S
C652 C654 1.419 . S
C653 C648 1.425 . S
C653 C650 1.409 . S
C653 C651 1.415 . S
C654 H644 0.930 . S
C654 C652 1.419 . S
C654 C655 1.362 . S
C655 H645 0.930 . S
C655 C648 1.409 . S
C655 C654 1.362 . S
H656 C662 0.930 . S
H657 C665 0.930 . S
H658 C666 0.930 . S
H659 C667 0.930 . S
H660 C670 0.930 . S
H661 C671 0.930 . S
C662 H656 0.930 . S
C662 C663 1.355 . S
C662 C664 1.415 . S
C663 C662 1.355 . S
C663 C665 1.419 . S
C664 C662 1.415 . S
C664 C669 1.425 . S
C664 C671 1.409 . S
C665 H657 0.930 . S
C665 C663 1.419 . S
C665 C666 1.362 . S
C666 H658 0.930 . S
C666 C665 1.362 . S
C666 C669 1.409 . S
C667 H659 0.930 . S
C667 C668 1.355 . S
C667 C669 1.415 . S
C668 C667 1.355 . S
C668 C670 1.419 . S
C669 C664 1.425 . S
C669 C666 1.409 . S
C669 C667 1.415 . S
C670 H660 0.930 . S
C670 C668 1.419 . S
C670 C671 1.362 . S
C671 H661 0.930 . S
C671 C664 1.409 . S
C671 C670 1.362 . S
H672 C678 0.930 . S
H673 C681 0.930 . S
H674 C682 0.930 . S
H675 C683 0.930 . S
H676 C686 0.930 . S
H677 C687 0.930 . S
C678 H672 0.930 . S
C678 C679 1.355 . S
C678 C680 1.415 1_455 S
C679 C678 1.355 . S
C679 C681 1.419 . S
C680 C678 1.415 1_655 S
C680 C685 1.425 1_655 S
C680 C687 1.409 . S
C681 H673 0.930 . S
C681 C679 1.419 . S
C681 C682 1.362 . S
C682 H674 0.930 . S
C682 C681 1.362 . S
C682 C685 1.409 . S
C683 H675 0.930 . S
C683 C684 1.355 . S
C683 C685 1.415 1_655 S
C684 C683 1.355 . S
C684 C686 1.419 . S
C685 C680 1.425 1_455 S
C685 C682 1.409 . S
C685 C683 1.415 1_455 S
C686 H676 0.930 . S
C686 C684 1.419 . S
C686 C687 1.362 . S
C687 H677 0.930 . S
C687 C680 1.409 . S
C687 C686 1.362 . S
H688 C694 0.930 . S
H689 C697 0.930 . S
H690 C698 0.930 . S
H691 C699 0.930 . S
H692 C702 0.930 . S
H693 C703 0.930 . S
C694 H688 0.930 . S
C694 C695 1.355 . S
C694 C696 1.415 . S
C695 C694 1.355 . S
C695 C697 1.419 1_455 S
C696 C694 1.415 . S
C696 C701 1.425 1_455 S
C696 C703 1.409 . S
C697 H689 0.930 . S
C697 C695 1.419 1_655 S
C697 C698 1.362 . S
C698 H690 0.930 . S
C698 C697 1.362 . S
C698 C701 1.409 . S
C699 H691 0.930 . S
C699 C700 1.355 . S
C699 C701 1.415 . S
C700 C699 1.355 . S
C700 C702 1.419 1_655 S
C701 C696 1.425 1_655 S
C701 C698 1.409 . S
C701 C699 1.415 . S
C702 H692 0.930 . S
C702 C700 1.419 1_455 S
C702 C703 1.362 . S
C703 H693 0.930 . S
C703 C696 1.409 . S
C703 C702 1.362 . S
H704 C710 0.930 . S
H705 C713 0.930 . S
H706 C714 0.930 . S
H707 C715 0.930 . S
H708 C718 0.930 . S
H709 C719 0.930 . S
C710 H704 0.930 . S
C710 C711 1.355 . S
C710 C712 1.415 . S
C711 C710 1.355 . S
C711 C713 1.419 . S
C712 C710 1.415 . S
C712 C717 1.425 . S
C712 C719 1.409 . S
C713 H705 0.930 . S
C713 C711 1.419 . S
C713 C714 1.362 . S
C714 H706 0.930 . S
C714 C713 1.362 . S
C714 C717 1.409 . S
C715 H707 0.930 . S
C715 C716 1.355 . S
C715 C717 1.415 . S
C716 C715 1.355 . S
C716 C718 1.419 . S
C717 C712 1.425 . S
C717 C714 1.409 . S
C717 C715 1.415 . S
C718 H708 0.930 . S
C718 C716 1.419 . S
C718 C719 1.362 . S
C719 H709 0.930 . S
C719 C712 1.409 . S
C719 C718 1.362 . S
H720 C726 0.930 . S
H721 C729 0.930 . S
H722 C730 0.930 . S
H723 C731 0.930 . S
H724 C734 0.930 . S
H725 C735 0.930 . S
C726 H720 0.930 . S
C726 C727 1.355 . S
C726 C728 1.415 . S
C727 C726 1.355 . S
C727 C729 1.419 . S
C728 C726 1.415 . S
C728 C733 1.425 . S
C728 C735 1.409 . S
C729 H721 0.930 . S
C729 C727 1.419 . S
C729 C730 1.362 . S
C730 H722 0.930 . S
C730 C729 1.362 . S
C730 C733 1.409 . S
C731 H723 0.930 . S
C731 C732 1.355 . S
C731 C733 1.415 . S
C732 C731 1.355 . S
C732 C734 1.419 . S
C733 C728 1.425 . S
C733 C730 1.409 . S
C733 C731 1.415 . S
C734 H724 0.930 . S
C734 C732 1.419 . S
C734 C735 1.362 . S
C735 H725 0.930 . S
C735 C728 1.409 . S
C735 C734 1.362 . S
H736 C742 0.930 . S
H737 C745 0.930 . S
H738 C746 0.930 . S
H739 C747 0.930 . S
H740 C750 0.930 . S
H741 C751 0.930 . S
C742 H736 0.930 . S
C742 C743 1.355 . S
C742 C744 1.399 1_455 S
C743 C742 1.355 . S
C743 C745 1.419 . S
C744 C742 1.399 1_655 S
C744 C749 1.425 1_655 S
C744 C751 1.426 . S
C745 H737 0.930 . S
C745 C743 1.419 . S
C745 C746 1.362 . S
C746 H738 0.930 . S
C746 C745 1.362 . S
C746 C749 1.426 . S
C747 H739 0.930 . S
C747 C748 1.355 . S
C747 C749 1.399 1_655 S
C748 C747 1.355 . S
C748 C750 1.419 . S
C749 C744 1.425 1_455 S
C749 C746 1.426 . S
C749 C747 1.399 1_455 S
C750 H740 0.930 . S
C750 C748 1.419 . S
C750 C751 1.362 . S
C751 H741 0.930 . S
C751 C744 1.426 . S
C751 C750 1.362 . S
H752 C758 0.930 . S
H753 C761 0.930 . S
H754 C762 0.930 . S
H755 C763 0.930 . S
H756 C766 0.930 . S
H757 C767 0.930 . S
C758 H752 0.930 . S
C758 C759 1.355 . S
C758 C760 1.415 . S
C759 C758 1.355 . S
C759 C761 1.419 1_455 S
C760 C758 1.415 . S
C760 C765 1.425 1_455 S
C760 C767 1.409 . S
C761 H753 0.930 . S
C761 C759 1.419 1_655 S
C761 C762 1.362 . S
C762 H754 0.930 . S
C762 C761 1.362 . S
C762 C765 1.409 . S
C763 H755 0.930 . S
C763 C764 1.355 . S
C763 C765 1.415 . S
C764 C763 1.355 . S
C764 C766 1.419 1_655 S
C765 C760 1.425 1_655 S
C765 C762 1.409 . S
C765 C763 1.415 . S
C766 H756 0.930 . S
C766 C764 1.419 1_455 S
C766 C767 1.362 . S
C767 H757 0.930 . S
C767 C760 1.409 . S
C767 C766 1.362 . S
H768 C774 0.930 . S
H769 C777 0.930 . S
H770 C778 0.928 1_545 S
H771 C779 0.930 . S
H772 C782 0.930 . S
H773 C783 0.928 1_565 S
C774 H768 0.930 . S
C774 C775 1.355 . S
C774 C776 1.415 . S
C775 C774 1.355 . S
C775 C777 1.419 1_554 S
C776 C774 1.415 . S
C776 C781 1.425 1_564 S
C776 C783 1.408 1_565 S
C777 H769 0.930 . S
C777 C775 1.419 1_556 S
C777 C778 1.366 . S
C778 H770 0.928 1_565 S
C778 C777 1.366 . S
C778 C781 1.408 1_565 S
C779 H771 0.930 . S
C779 C780 1.355 . S
C779 C781 1.415 . S
C780 C779 1.355 . S
C780 C782 1.419 1_556 S
C781 C776 1.425 1_546 S
C781 C778 1.408 1_545 S
C781 C779 1.415 . S
C782 H772 0.930 . S
C782 C780 1.419 1_554 S
C782 C783 1.366 . S
C783 H773 0.928 1_545 S
C783 C776 1.408 1_545 S
C783 C782 1.366 . S
H784 C790 0.930 . S
H785 C793 0.930 . S
H786 C794 0.930 . S
H787 C795 0.930 . S
H788 C798 0.930 . S
H789 C799 0.930 . S
C790 H784 0.930 . S
C790 C791 1.355 . S
C790 C792 1.415 . S
C791 C790 1.355 . S
C791 C793 1.419 . S
C792 C790 1.415 . S
C792 C797 1.425 . S
C792 C799 1.409 . S
C793 H785 0.930 . S
C793 C791 1.419 . S
C793 C794 1.362 . S
C794 H786 0.930 . S
C794 C793 1.362 . S
C794 C797 1.409 . S
C795 H787 0.930 . S
C795 C796 1.355 . S
C795 C797 1.415 . S
C796 C795 1.355 . S
C796 C798 1.419 . S
C797 C792 1.425 . S
C797 C794 1.409 . S
C797 C795 1.415 . S
C798 H788 0.930 . S
C798 C796 1.419 . S
C798 C799 1.362 . S
C799 H789 0.930 . S
C799 C792 1.409 . S
C799 C798 1.362 . S
H800 C806 0.930 . S
H801 C809 0.930 . S
H802 C810 0.930 . S
H803 C811 0.930 . S
H804 C814 0.930 . S
H805 C815 0.930 . S
C806 H800 0.930 . S
C806 C807 1.355 . S
C806 C808 1.415 . S
C807 C806 1.355 . S
C807 C809 1.419 1_545 S
C808 C806 1.415 . S
C808 C813 1.425 1_445 S
C808 C815 1.409 1_455 S
C809 H801 0.930 . S
C809 C807 1.419 1_565 S
C809 C810 1.362 . S
C810 H802 0.930 . S
C810 C809 1.362 . S
C810 C813 1.409 1_455 S
C811 H803 0.930 . S
C811 C812 1.355 . S
C811 C813 1.415 . S
C812 C811 1.355 . S
C812 C814 1.419 1_565 S
C813 C808 1.425 1_665 S
C813 C810 1.409 1_655 S
C813 C811 1.415 . S
C814 H804 0.930 . S
C814 C812 1.419 1_545 S
C814 C815 1.362 . S
C815 H805 0.930 . S
C815 C808 1.409 1_655 S
C815 C814 1.362 . S
H816 C822 0.930 . S
H817 C825 0.930 . S
H818 C826 0.930 . S
H819 C827 0.930 . S
H820 C830 0.930 . S
H821 C831 0.930 . S
C822 H816 0.930 . S
C822 C823 1.355 . S
C822 C824 1.415 . S
C823 C822 1.355 . S
C823 C825 1.419 . S
C824 C822 1.415 . S
C824 C829 1.425 . S
C824 C831 1.409 . S
C825 H817 0.930 . S
C825 C823 1.419 . S
C825 C826 1.362 . S
C826 H818 0.930 . S
C826 C825 1.362 . S
C826 C829 1.409 . S
C827 H819 0.930 . S
C827 C828 1.355 . S
C827 C829 1.415 . S
C828 C827 1.355 . S
C828 C830 1.419 . S
C829 C824 1.425 . S
C829 C826 1.409 . S
C829 C827 1.415 . S
C830 H820 0.930 . S
C830 C828 1.419 . S
C830 C831 1.362 . S
C831 H821 0.930 . S
C831 C824 1.409 . S
C831 C830 1.362 . S
H832 C838 0.930 . S
H833 C841 0.930 . S
H834 C842 0.930 . S
H835 C843 0.930 . S
H836 C846 0.930 . S
H837 C847 0.930 . S
C838 H832 0.930 . S
C838 C839 1.355 . S
C838 C840 1.415 . S
C839 C838 1.355 . S
C839 C841 1.419 . S
C840 C838 1.415 . S
C840 C845 1.425 . S
C840 C847 1.409 . S
C841 H833 0.930 . S
C841 C839 1.419 . S
C841 C842 1.362 . S
C842 H834 0.930 . S
C842 C841 1.362 . S
C842 C845 1.409 . S
C843 H835 0.930 . S
C843 C844 1.355 . S
C843 C845 1.415 . S
C844 C843 1.355 . S
C844 C846 1.419 . S
C845 C840 1.425 . S
C845 C842 1.409 . S
C845 C843 1.415 . S
C846 H836 0.930 . S
C846 C844 1.419 . S
C846 C847 1.362 . S
C847 H837 0.930 . S
C847 C840 1.409 . S
C847 C846 1.362 . S
H848 C854 0.930 . S
H849 C857 0.930 . S
H850 C858 0.930 . S
H851 C859 0.930 . S
H852 C862 0.930 . S
H853 C863 0.930 . S
C854 H848 0.930 . S
C854 C855 1.355 . S
C854 C856 1.415 . S
C855 C854 1.355 . S
C855 C857 1.419 . S
C856 C854 1.415 . S
C856 C861 1.425 . S
C856 C863 1.409 . S
C857 H849 0.930 . S
C857 C855 1.419 . S
C857 C858 1.362 . S
C858 H850 0.930 . S
C858 C857 1.362 . S
C858 C861 1.409 . S
C859 H851 0.930 . S
C859 C860 1.355 . S
C859 C861 1.415 . S
C860 C859 1.355 . S
C860 C862 1.419 . S
C861 C856 1.425 . S
C861 C858 1.409 . S
C861 C859 1.415 . S
C862 H852 0.930 . S
C862 C860 1.419 . S
C862 C863 1.362 . S
C863 H853 0.930 . S
C863 C856 1.409 . S
C863 C862 1.362 . S
H864 C870 0.930 . S
H865 C873 0.930 . S
H866 C874 0.930 . S
H867 C875 0.930 . S
H868 C878 0.930 . S
H869 C879 0.930 . S
C870 H864 0.930 . S
C870 C871 1.355 . S
C870 C872 1.415 . S
C871 C870 1.355 . S
C871 C873 1.419 . S
C872 C870 1.415 . S
C872 C877 1.425 1_455 S
C872 C879 1.409 1_455 S
C873 H865 0.930 . S
C873 C871 1.419 . S
C873 C874 1.362 . S
C874 H866 0.930 . S
C874 C873 1.362 . S
C874 C877 1.409 1_455 S
C875 H867 0.930 . S
C875 C876 1.355 . S
C875 C877 1.415 . S
C876 C875 1.355 . S
C876 C878 1.419 . S
C877 C872 1.425 1_655 S
C877 C874 1.409 1_655 S
C877 C875 1.415 . S
C878 H868 0.930 . S
C878 C876 1.419 . S
C878 C879 1.362 . S
C879 H869 0.930 . S
C879 C872 1.409 1_655 S
C879 C878 1.362 . S
H880 C886 0.930 . S
H881 C889 0.930 . S
H882 C890 0.930 . S
H883 C891 0.930 . S
H884 C894 0.930 . S
H885 C895 0.930 . S
C886 H880 0.930 . S
C886 C887 1.355 1_556 S
C886 C888 1.415 . S
C887 C886 1.355 1_554 S
C887 C889 1.419 . S
C888 C886 1.415 . S
C888 C893 1.425 1_556 S
C888 C895 1.409 . S
C889 H881 0.930 . S
C889 C887 1.419 . S
C889 C890 1.362 . S
C890 H882 0.930 . S
C890 C889 1.362 . S
C890 C893 1.409 . S
C891 H883 0.930 . S
C891 C892 1.355 1_554 S
C891 C893 1.415 . S
C892 C891 1.355 1_556 S
C892 C894 1.419 . S
C893 C888 1.425 1_554 S
C893 C890 1.409 . S
C893 C891 1.415 . S
C894 H884 0.930 . S
C894 C892 1.419 . S
C894 C895 1.362 . S
C895 H885 0.930 . S
C895 C888 1.409 . S
C895 C894 1.362 . S
H896 C902 0.930 . S
H897 C905 0.930 . S
H898 C906 0.930 . S
H899 C907 0.930 . S
H900 C910 0.930 . S
H901 C911 0.930 . S
C902 H896 0.930 . S
C902 C903 1.355 . S
C902 C904 1.415 . S
C903 C902 1.355 . S
C903 C905 1.419 . S
C904 C902 1.415 . S
C904 C909 1.425 . S
C904 C911 1.409 . S
C905 H897 0.930 . S
C905 C903 1.419 . S
C905 C906 1.362 . S
C906 H898 0.930 . S
C906 C905 1.362 . S
C906 C909 1.409 . S
C907 H899 0.930 . S
C907 C908 1.355 . S
C907 C909 1.415 . S
C908 C907 1.355 . S
C908 C910 1.419 . S
C909 C904 1.425 . S
C909 C906 1.409 . S
C909 C907 1.415 . S
C910 H900 0.930 . S
C910 C908 1.419 . S
C910 C911 1.362 . S
C911 H901 0.930 . S
C911 C904 1.409 . S
C911 C910 1.362 . S
H912 C918 0.930 . S
H913 C921 0.930 . S
H914 C922 0.930 . S
H915 C923 0.930 . S
H916 C926 0.930 . S
H917 C927 0.930 . S
C918 H912 0.930 . S
C918 C919 1.355 . S
C918 C920 1.415 . S
C919 C918 1.355 . S
C919 C921 1.419 . S
C920 C918 1.415 . S
C920 C925 1.425 . S
C920 C927 1.409 . S
C921 H913 0.930 . S
C921 C919 1.419 . S
C921 C922 1.362 . S
C922 H914 0.930 . S
C922 C921 1.362 . S
C922 C925 1.409 . S
C923 H915 0.930 . S
C923 C924 1.355 . S
C923 C925 1.415 . S
C924 C923 1.355 . S
C924 C926 1.419 . S
C925 C920 1.425 . S
C925 C922 1.409 . S
C925 C923 1.415 . S
C926 H916 0.930 . S
C926 C924 1.419 . S
C926 C927 1.362 . S
C927 H917 0.930 . S
C927 C920 1.409 . S
C927 C926 1.362 . S
H928 C934 0.930 . S
H929 C937 0.930 . S
H930 C938 0.930 . S
H931 C939 0.930 . S
H932 C942 0.930 . S
H933 C943 0.930 . S
C934 H928 0.930 . S
C934 C935 1.355 . S
C934 C936 1.415 . S
C935 C934 1.355 . S
C935 C937 1.419 . S
C936 C934 1.415 . S
C936 C941 1.425 . S
C936 C943 1.409 . S
C937 H929 0.930 . S
C937 C935 1.419 . S
C937 C938 1.362 . S
C938 H930 0.930 . S
C938 C937 1.362 . S
C938 C941 1.409 . S
C939 H931 0.930 . S
C939 C940 1.355 . S
C939 C941 1.415 . S
C940 C939 1.355 . S
C940 C942 1.419 . S
C941 C936 1.425 . S
C941 C938 1.409 . S
C941 C939 1.415 . S
C942 H932 0.930 . S
C942 C940 1.419 . S
C942 C943 1.362 . S
C943 H933 0.930 . S
C943 C936 1.409 . S
C943 C942 1.362 . S
H944 C950 0.930 . S
H945 C953 0.930 . S
H946 C954 0.930 . S
H947 C955 0.930 . S
H948 C958 0.930 . S
H949 C959 0.930 . S
C950 H944 0.930 . S
C950 C951 1.355 . S
C950 C952 1.415 . S
C951 C950 1.355 . S
C951 C953 1.419 . S
C952 C950 1.415 . S
C952 C957 1.425 . S
C952 C959 1.409 . S
C953 H945 0.930 . S
C953 C951 1.419 . S
C953 C954 1.362 . S
C954 H946 0.930 . S
C954 C953 1.362 . S
C954 C957 1.409 . S
C955 H947 0.930 . S
C955 C956 1.355 . S
C955 C957 1.415 . S
C956 C955 1.355 . S
C956 C958 1.419 . S
C957 C952 1.425 . S
C957 C954 1.409 . S
C957 C955 1.415 . S
C958 H948 0.930 . S
C958 C956 1.419 . S
C958 C959 1.362 . S
C959 H949 0.930 . S
C959 C952 1.409 . S
C959 C958 1.362 . S
H960 C966 0.930 . S
H961 C969 0.930 . S
H962 C970 0.930 . S
H963 C971 0.930 . S
H964 C974 0.930 . S
H965 C975 0.930 . S
C966 H960 0.930 . S
C966 C967 1.355 . S
C966 C968 1.415 . S
C967 C966 1.355 . S
C967 C969 1.419 . S
C968 C966 1.415 . S
C968 C973 1.425 . S
C968 C975 1.409 . S
C969 H961 0.930 . S
C969 C967 1.419 . S
C969 C970 1.362 . S
C970 H962 0.930 . S
C970 C969 1.362 . S
C970 C973 1.409 . S
C971 H963 0.930 . S
C971 C972 1.355 . S
C971 C973 1.415 . S
C972 C971 1.355 . S
C972 C974 1.419 . S
C973 C968 1.425 . S
C973 C970 1.409 . S
C973 C971 1.415 . S
C974 H964 0.930 . S
C974 C972 1.419 . S
C974 C975 1.362 . S
C975 H965 0.930 . S
C975 C968 1.409 . S
C975 C974 1.362 . S
H976 C982 0.930 . S
H977 C985 0.930 . S
H978 C986 0.930 . S
H979 C987 0.930 . S
H980 C990 0.930 . S
H981 C991 0.930 . S
C982 H976 0.930 . S
C982 C983 1.355 . S
C982 C984 1.415 . S
C983 C982 1.355 . S
C983 C985 1.419 . S
C984 C982 1.415 . S
C984 C989 1.425 . S
C984 C991 1.409 . S
C985 H977 0.930 . S
C985 C983 1.419 . S
C985 C986 1.362 . S
C986 H978 0.930 . S
C986 C985 1.362 . S
C986 C989 1.409 . S
C987 H979 0.930 . S
C987 C988 1.355 . S
C987 C989 1.415 . S
C988 C987 1.355 . S
C988 C990 1.419 . S
C989 C984 1.425 . S
C989 C986 1.409 . S
C989 C987 1.415 . S
C990 H980 0.930 . S
C990 C988 1.419 . S
C990 C991 1.362 . S
C991 H981 0.930 . S
C991 C984 1.409 . S
C991 C990 1.362 . S
H992 C998 0.930 . S
H993 C1001 0.930 . S
H994 C1002 0.930 . S
H995 C1003 0.930 . S
H996 C1006 0.930 . S
H997 C1007 0.930 . S
C998 H992 0.930 . S
C998 C999 1.355 . S
C998 C1000 1.415 . S
C999 C998 1.355 . S
C999 C1001 1.419 . S
C1000 C998 1.415 . S
C1000 C1005 1.425 . S
C1000 C1007 1.409 . S
C1001 H993 0.930 . S
C1001 C999 1.419 . S
C1001 C1002 1.362 . S
C1002 H994 0.930 . S
C1002 C1001 1.362 . S
C1002 C1005 1.409 . S
C1003 H995 0.930 . S
C1003 C1004 1.355 . S
C1003 C1005 1.415 . S
C1004 C1003 1.355 . S
C1004 C1006 1.419 . S
C1005 C1000 1.425 . S
C1005 C1002 1.409 . S
C1005 C1003 1.415 . S
C1006 H996 0.930 . S
C1006 C1004 1.419 . S
C1006 C1007 1.362 . S
C1007 H997 0.930 . S
C1007 C1000 1.409 . S
C1007 C1006 1.362 . S
H1008 C1014 0.930 . S
H1009 C1017 0.930 . S
H1010 C1018 0.930 . S
H1011 C1019 0.930 . S
H1012 C1022 0.930 . S
H1013 C1023 0.930 . S
C1014 H1008 0.930 . S
C1014 C1015 1.355 . S
C1014 C1016 1.415 . S
C1015 C1014 1.355 . S
C1015 C1017 1.419 . S
C1016 C1014 1.415 . S
C1016 C1021 1.425 . S
C1016 C1023 1.409 . S
C1017 H1009 0.930 . S
C1017 C1015 1.419 . S
C1017 C1018 1.362 . S
C1018 H1010 0.930 . S
C1018 C1017 1.362 . S
C1018 C1021 1.409 . S
C1019 H1011 0.930 . S
C1019 C1020 1.355 . S
C1019 C1021 1.415 . S
C1020 C1019 1.355 . S
C1020 C1022 1.419 . S
C1021 C1016 1.425 . S
C1021 C1018 1.409 . S
C1021 C1019 1.415 . S
C1022 H1012 0.930 . S
C1022 C1020 1.419 . S
C1022 C1023 1.362 . S
C1023 H1013 0.930 . S
C1023 C1016 1.409 . S
C1023 C1022 1.362 . S
H1024 C1030 0.930 . S
H1025 C1033 0.930 . S
H1026 C1034 0.930 . S
H1027 C1035 0.930 . S
H1028 C1038 0.930 . S
H1029 C1039 0.930 . S
C1030 H1024 0.930 . S
C1030 C1031 1.355 . S
C1030 C1032 1.415 . S
C1031 C1030 1.355 . S
C1031 C1033 1.419 . S
C1032 C1030 1.415 . S
C1032 C1037 1.425 . S
C1032 C1039 1.409 . S
C1033 H1025 0.930 . S
C1033 C1031 1.419 . S
C1033 C1034 1.362 . S
C1034 H1026 0.930 . S
C1034 C1033 1.362 . S
C1034 C1037 1.409 . S
C1035 H1027 0.930 . S
C1035 C1036 1.355 . S
C1035 C1037 1.415 . S
C1036 C1035 1.355 . S
C1036 C1038 1.419 . S
C1037 C1032 1.425 . S
C1037 C1034 1.409 . S
C1037 C1035 1.415 . S
C1038 H1028 0.930 . S
C1038 C1036 1.419 . S
C1038 C1039 1.362 . S
C1039 H1029 0.930 . S
C1039 C1032 1.409 . S
C1039 C1038 1.362 . S
H1040 C1046 0.930 . S
H1041 C1049 0.930 . S
H1042 C1050 0.930 . S
H1043 C1051 0.930 . S
H1044 C1054 0.930 . S
H1045 C1055 0.930 . S
C1046 H1040 0.930 . S
C1046 C1047 1.355 . S
C1046 C1048 1.415 . S
C1047 C1046 1.355 . S
C1047 C1049 1.419 . S
C1048 C1046 1.415 . S
C1048 C1053 1.425 . S
C1048 C1055 1.409 . S
C1049 H1041 0.930 . S
C1049 C1047 1.419 . S
C1049 C1050 1.362 . S
C1050 H1042 0.930 . S
C1050 C1049 1.362 . S
C1050 C1053 1.409 . S
C1051 H1043 0.930 . S
C1051 C1052 1.355 . S
C1051 C1053 1.415 . S
C1052 C1051 1.355 . S
C1052 C1054 1.419 . S
C1053 C1048 1.425 . S
C1053 C1050 1.409 . S
C1053 C1051 1.415 . S
C1054 H1044 0.930 . S
C1054 C1052 1.419 . S
C1054 C1055 1.362 . S
C1055 H1045 0.930 . S
C1055 C1048 1.409 . S
C1055 C1054 1.362 . S
H1056 C1062 0.930 . S
H1057 C1065 0.930 . S
H1058 C1066 0.930 . S
H1059 C1067 0.930 . S
H1060 C1070 0.930 . S
H1061 C1071 0.930 . S
C1062 H1056 0.930 . S
C1062 C1063 1.355 . S
C1062 C1064 1.415 . S
C1063 C1062 1.355 . S
C1063 C1065 1.419 . S
C1064 C1062 1.415 . S
C1064 C1069 1.425 . S
C1064 C1071 1.409 . S
C1065 H1057 0.930 . S
C1065 C1063 1.419 . S
C1065 C1066 1.362 . S
C1066 H1058 0.930 . S
C1066 C1065 1.362 . S
C1066 C1069 1.409 . S
C1067 H1059 0.930 . S
C1067 C1068 1.355 . S
C1067 C1069 1.415 . S
C1068 C1067 1.355 . S
C1068 C1070 1.419 . S
C1069 C1064 1.425 . S
C1069 C1066 1.409 . S
C1069 C1067 1.415 . S
C1070 H1060 0.930 . S
C1070 C1068 1.419 . S
C1070 C1071 1.362 . S
C1071 H1061 0.930 . S
C1071 C1064 1.409 . S
C1071 C1070 1.362 . S
H1072 C1078 0.930 . S
H1073 C1081 0.930 . S
H1074 C1082 0.930 . S
H1075 C1083 0.930 . S
H1076 C1086 0.930 . S
H1077 C1087 0.930 . S
C1078 H1072 0.930 . S
C1078 C1079 1.355 . S
C1078 C1080 1.415 . S
C1079 C1078 1.355 . S
C1079 C1081 1.419 . S
C1080 C1078 1.415 . S
C1080 C1085 1.425 . S
C1080 C1087 1.409 . S
C1081 H1073 0.930 . S
C1081 C1079 1.419 . S
C1081 C1082 1.362 . S
C1082 H1074 0.930 . S
C1082 C1081 1.362 . S
C1082 C1085 1.409 . S
C1083 H1075 0.930 . S
C1083 C1084 1.355 . S
C1083 C1085 1.415 . S
C1084 C1083 1.355 . S
C1084 C1086 1.419 . S
C1085 C1080 1.425 . S
C1085 C1082 1.409 . S
C1085 C1083 1.415 . S
C1086 H1076 0.930 . S
C1086 C1084 1.419 . S
C1086 C1087 1.362 . S
C1087 H1077 0.930 . S
C1087 C1080 1.409 . S
C1087 C1086 1.362 . S
H1088 C1094 0.930 . S
H1089 C1097 0.930 . S
H1090 C1098 0.930 . S
H1091 C1099 0.930 . S
H1092 C1102 0.930 . S
H1093 C1103 0.930 . S
C1094 H1088 0.930 . S
C1094 C1095 1.355 . S
C1094 C1096 1.415 . S
C1095 C1094 1.355 . S
C1095 C1097 1.419 . S
C1096 C1094 1.415 . S
C1096 C1101 1.425 . S
C1096 C1103 1.409 . S
C1097 H1089 0.930 . S
C1097 C1095 1.419 . S
C1097 C1098 1.362 . S
C1098 H1090 0.930 . S
C1098 C1097 1.362 . S
C1098 C1101 1.409 . S
C1099 H1091 0.930 . S
C1099 C1100 1.355 . S
C1099 C1101 1.415 . S
C1100 C1099 1.355 . S
C1100 C1102 1.419 . S
C1101 C1096 1.425 . S
C1101 C1098 1.409 . S
C1101 C1099 1.415 . S
C1102 H1092 0.930 . S
C1102 C1100 1.419 . S
C1102 C1103 1.362 . S
C1103 H1093 0.930 . S
C1103 C1096 1.409 . S
C1103 C1102 1.362 . S
H1104 C1110 0.930 . S
H1105 C1113 0.930 . S
H1106 C1114 0.930 . S
H1107 C1115 0.930 . S
H1108 C1118 0.930 . S
H1109 C1119 0.930 . S
C1110 H1104 0.930 . S
C1110 C1111 1.355 . S
C1110 C1112 1.415 . S
C1111 C1110 1.355 . S
C1111 C1113 1.419 . S
C1112 C1110 1.415 . S
C1112 C1117 1.425 . S
C1112 C1119 1.409 . S
C1113 H1105 0.930 . S
C1113 C1111 1.419 . S
C1113 C1114 1.362 . S
C1114 H1106 0.930 . S
C1114 C1113 1.362 . S
C1114 C1117 1.409 . S
C1115 H1107 0.930 . S
C1115 C1116 1.355 . S
C1115 C1117 1.415 . S
C1116 C1115 1.355 . S
C1116 C1118 1.419 . S
C1117 C1112 1.425 . S
C1117 C1114 1.409 . S
C1117 C1115 1.415 . S
C1118 H1108 0.930 . S
C1118 C1116 1.419 . S
C1118 C1119 1.362 . S
C1119 H1109 0.930 . S
C1119 C1112 1.409 . S
C1119 C1118 1.362 . S
H1120 C1126 0.930 . S
H1121 C1129 0.930 . S
H1122 C1130 0.930 . S
H1123 C1131 0.930 . S
H1124 C1134 0.930 . S
H1125 C1135 0.930 . S
C1126 H1120 0.930 . S
C1126 C1127 1.355 . S
C1126 C1128 1.415 . S
C1127 C1126 1.355 . S
C1127 C1129 1.419 . S
C1128 C1126 1.415 . S
C1128 C1133 1.425 . S
C1128 C1135 1.409 . S
C1129 H1121 0.930 . S
C1129 C1127 1.419 . S
C1129 C1130 1.362 . S
C1130 H1122 0.930 . S
C1130 C1129 1.362 . S
C1130 C1133 1.409 . S
C1131 H1123 0.930 . S
C1131 C1132 1.355 . S
C1131 C1133 1.415 . S
C1132 C1131 1.355 . S
C1132 C1134 1.419 . S
C1133 C1128 1.425 . S
C1133 C1130 1.409 . S
C1133 C1131 1.415 . S
C1134 H1124 0.930 . S
C1134 C1132 1.419 . S
C1134 C1135 1.362 . S
C1135 H1125 0.930 . S
C1135 C1128 1.409 . S
C1135 C1134 1.362 . S
H1136 C1142 0.930 . S
H1137 C1145 0.930 . S
H1138 C1146 0.930 . S
H1139 C1147 0.930 . S
H1140 C1150 0.930 . S
H1141 C1151 0.930 . S
C1142 H1136 0.930 . S
C1142 C1143 1.355 . S
C1142 C1144 1.415 . S
C1143 C1142 1.355 . S
C1143 C1145 1.419 . S
C1144 C1142 1.415 . S
C1144 C1149 1.425 . S
C1144 C1151 1.409 . S
C1145 H1137 0.930 . S
C1145 C1143 1.419 . S
C1145 C1146 1.362 . S
C1146 H1138 0.930 . S
C1146 C1145 1.362 . S
C1146 C1149 1.409 . S
C1147 H1139 0.930 . S
C1147 C1148 1.355 . S
C1147 C1149 1.415 . S
C1148 C1147 1.355 . S
C1148 C1150 1.419 . S
C1149 C1144 1.425 . S
C1149 C1146 1.409 . S
C1149 C1147 1.415 . S
C1150 H1140 0.930 . S
C1150 C1148 1.419 . S
C1150 C1151 1.362 . S
C1151 H1141 0.930 . S
C1151 C1144 1.409 . S
C1151 C1150 1.362 . S
H1152 C1158 0.930 1_554 S
H1153 C1161 0.930 . S
H1154 C1162 0.930 . S
H1155 C1163 0.930 . S
H1156 C1166 0.930 . S
H1157 C1167 0.930 . S
C1158 H1152 0.930 1_556 S
C1158 C1159 1.353 1_556 S
C1158 C1160 1.415 . S
C1159 C1158 1.353 1_554 S
C1159 C1161 1.405 1_554 S
C1160 C1158 1.415 . S
C1160 C1165 1.425 . S
C1160 C1167 1.409 . S
C1161 H1153 0.930 . S
C1161 C1159 1.405 1_556 S
C1161 C1162 1.362 . S
C1162 H1154 0.930 . S
C1162 C1161 1.362 . S
C1162 C1165 1.409 . S
C1163 H1155 0.930 . S
C1163 C1164 1.355 . S
C1163 C1165 1.415 . S
C1164 C1163 1.355 . S
C1164 C1166 1.419 . S
C1165 C1160 1.425 . S
C1165 C1162 1.409 . S
C1165 C1163 1.415 . S
C1166 H1156 0.930 . S
C1166 C1164 1.419 . S
C1166 C1167 1.362 . S
C1167 H1157 0.930 . S
C1167 C1160 1.409 . S
C1167 C1166 1.362 . S
H1168 C1174 0.930 . S
H1169 C1177 0.930 . S
H1170 C1178 0.930 . S
H1171 C1179 0.930 . S
H1172 C1182 0.930 . S
H1173 C1183 0.930 . S
C1174 H1168 0.930 . S
C1174 C1175 1.355 . S
C1174 C1176 1.415 . S
C1175 C1174 1.355 . S
C1175 C1177 1.419 . S
C1176 C1174 1.415 . S
C1176 C1181 1.425 . S
C1176 C1183 1.409 . S
C1177 H1169 0.930 . S
C1177 C1175 1.419 . S
C1177 C1178 1.362 . S
C1178 H1170 0.930 . S
C1178 C1177 1.362 . S
C1178 C1181 1.409 . S
C1179 H1171 0.930 . S
C1179 C1180 1.355 . S
C1179 C1181 1.415 . S
C1180 C1179 1.355 . S
C1180 C1182 1.419 . S
C1181 C1176 1.425 . S
C1181 C1178 1.409 . S
C1181 C1179 1.415 . S
C1182 H1172 0.930 . S
C1182 C1180 1.419 . S
C1182 C1183 1.362 . S
C1183 H1173 0.930 . S
C1183 C1176 1.409 . S
C1183 C1182 1.362 . S
H1184 C1190 0.930 . S
H1185 C1193 0.930 . S
H1186 C1194 0.930 . S
H1187 C1195 0.930 . S
H1188 C1198 0.930 . S
H1189 C1199 0.930 . S
C1190 H1184 0.930 . S
C1190 C1191 1.355 . S
C1190 C1192 1.415 . S
C1191 C1190 1.355 . S
C1191 C1193 1.419 . S
C1192 C1190 1.415 . S
C1192 C1197 1.425 . S
C1192 C1199 1.409 . S
C1193 H1185 0.930 . S
C1193 C1191 1.419 . S
C1193 C1194 1.362 . S
C1194 H1186 0.930 . S
C1194 C1193 1.362 . S
C1194 C1197 1.409 . S
C1195 H1187 0.930 . S
C1195 C1196 1.355 . S
C1195 C1197 1.415 . S
C1196 C1195 1.355 . S
C1196 C1198 1.419 . S
C1197 C1192 1.425 . S
C1197 C1194 1.409 . S
C1197 C1195 1.415 . S
C1198 H1188 0.930 . S
C1198 C1196 1.419 . S
C1198 C1199 1.362 . S
C1199 H1189 0.930 . S
C1199 C1192 1.409 . S
C1199 C1198 1.362 . S
H1200 C1206 0.930 . S
H1201 C1209 0.930 . S
H1202 C1210 0.930 . S
H1203 C1211 0.930 . S
H1204 C1214 0.930 . S
H1205 C1215 0.930 . S
C1206 H1200 0.930 . S
C1206 C1207 1.355 . S
C1206 C1208 1.415 . S
C1207 C1206 1.355 . S
C1207 C1209 1.419 . S
C1208 C1206 1.415 . S
C1208 C1213 1.425 . S
C1208 C1215 1.409 . S
C1209 H1201 0.930 . S
C1209 C1207 1.419 . S
C1209 C1210 1.362 . S
C1210 H1202 0.930 . S
C1210 C1209 1.362 . S
C1210 C1213 1.409 . S
C1211 H1203 0.930 . S
C1211 C1212 1.355 . S
C1211 C1213 1.415 . S
C1212 C1211 1.355 . S
C1212 C1214 1.419 . S
C1213 C1208 1.425 . S
C1213 C1210 1.409 . S
C1213 C1211 1.415 . S
C1214 H1204 0.930 . S
C1214 C1212 1.419 . S
C1214 C1215 1.362 . S
C1215 H1205 0.930 . S
C1215 C1208 1.409 . S
C1215 C1214 1.362 . S
H1216 C1222 0.930 . S
H1217 C1225 0.930 . S
H1218 C1226 0.930 . S
H1219 C1227 0.930 . S
H1220 C1230 0.930 1_556 S
H1221 C1231 0.930 . S
C1222 H1216 0.930 . S
C1222 C1223 1.355 . S
C1222 C1224 1.415 . S
C1223 C1222 1.355 . S
C1223 C1225 1.419 . S
C1224 C1222 1.415 . S
C1224 C1229 1.425 . S
C1224 C1231 1.409 . S
C1225 H1217 0.930 . S
C1225 C1223 1.419 . S
C1225 C1226 1.362 . S
C1226 H1218 0.930 . S
C1226 C1225 1.362 . S
C1226 C1229 1.409 . S
C1227 H1219 0.930 . S
C1227 C1228 1.355 1_554 S
C1227 C1229 1.415 . S
C1228 C1227 1.355 1_556 S
C1228 C1230 1.419 1_556 S
C1229 C1224 1.425 . S
C1229 C1226 1.409 . S
C1229 C1227 1.415 . S
C1230 H1220 0.930 1_554 S
C1230 C1228 1.419 1_554 S
C1230 C1231 1.362 . S
C1231 H1221 0.930 . S
C1231 C1224 1.409 . S
C1231 C1230 1.362 . S
H1232 C1238 0.930 . S
H1233 C1241 0.930 . S
H1234 C1242 0.930 . S
H1235 C1243 0.930 . S
H1236 C1246 0.930 . S
H1237 C1247 0.930 . S
C1238 H1232 0.930 . S
C1238 C1239 1.355 . S
C1238 C1240 1.415 . S
C1239 C1238 1.355 . S
C1239 C1241 1.419 . S
C1240 C1238 1.415 . S
C1240 C1245 1.425 . S
C1240 C1247 1.409 . S
C1241 H1233 0.930 . S
C1241 C1239 1.419 . S
C1241 C1242 1.362 . S
C1242 H1234 0.930 . S
C1242 C1241 1.362 . S
C1242 C1245 1.409 . S
C1243 H1235 0.930 . S
C1243 C1244 1.355 . S
C1243 C1245 1.415 . S
C1244 C1243 1.355 . S
C1244 C1246 1.419 . S
C1245 C1240 1.425 . S
C1245 C1242 1.409 . S
C1245 C1243 1.415 . S
C1246 H1236 0.930 . S
C1246 C1244 1.419 . S
C1246 C1247 1.362 . S
C1247 H1237 0.930 . S
C1247 C1240 1.409 . S
C1247 C1246 1.362 . S
H1248 C1254 0.930 . S
H1249 C1257 0.930 . S
H1250 C1258 0.930 . S
H1251 C1259 0.930 . S
H1252 C1262 0.930 . S
H1253 C1263 0.930 . S
C1254 H1248 0.930 . S
C1254 C1255 1.355 . S
C1254 C1256 1.415 . S
C1255 C1254 1.355 . S
C1255 C1257 1.419 . S
C1256 C1254 1.415 . S
C1256 C1261 1.425 . S
C1256 C1263 1.409 . S
C1257 H1249 0.930 . S
C1257 C1255 1.419 . S
C1257 C1258 1.362 . S
C1258 H1250 0.930 . S
C1258 C1257 1.362 . S
C1258 C1261 1.409 . S
C1259 H1251 0.930 . S
C1259 C1260 1.355 . S
C1259 C1261 1.415 . S
C1260 C1259 1.355 . S
C1260 C1262 1.419 . S
C1261 C1256 1.425 . S
C1261 C1258 1.409 . S
C1261 C1259 1.415 . S
C1262 H1252 0.930 . S
C1262 C1260 1.419 . S
C1262 C1263 1.362 . S
C1263 H1253 0.930 . S
C1263 C1256 1.409 . S
C1263 C1262 1.362 . S
H1264 C1270 0.930 . S
H1265 C1273 0.930 . S
H1266 C1274 0.930 . S
H1267 C1275 0.930 . S
H1268 C1278 0.930 . S
H1269 C1279 0.930 . S
C1270 H1264 0.930 . S
C1270 C1271 1.355 . S
C1270 C1272 1.415 . S
C1271 C1270 1.355 . S
C1271 C1273 1.419 . S
C1272 C1270 1.415 . S
C1272 C1277 1.425 . S
C1272 C1279 1.409 . S
C1273 H1265 0.930 . S
C1273 C1271 1.419 . S
C1273 C1274 1.362 . S
C1274 H1266 0.930 . S
C1274 C1273 1.362 . S
C1274 C1277 1.409 . S
C1275 H1267 0.930 . S
C1275 C1276 1.355 . S
C1275 C1277 1.415 . S
C1276 C1275 1.355 . S
C1276 C1278 1.419 . S
C1277 C1272 1.425 . S
C1277 C1274 1.409 . S
C1277 C1275 1.415 . S
C1278 H1268 0.930 . S
C1278 C1276 1.419 . S
C1278 C1279 1.362 . S
C1279 H1269 0.930 . S
C1279 C1272 1.409 . S
C1279 C1278 1.362 . S
H1280 C1286 0.930 . S
H1281 C1289 0.930 . S
H1282 C1290 0.930 . S
H1283 C1291 0.930 . S
H1284 C1294 0.930 . S
H1285 C1295 0.930 . S
C1286 H1280 0.930 . S
C1286 C1287 1.355 . S
C1286 C1288 1.415 . S
C1287 C1286 1.355 . S
C1287 C1289 1.419 . S
C1288 C1286 1.415 . S
C1288 C1293 1.425 . S
C1288 C1295 1.409 . S
C1289 H1281 0.930 . S
C1289 C1287 1.419 . S
C1289 C1290 1.362 . S
C1290 H1282 0.930 . S
C1290 C1289 1.362 . S
C1290 C1293 1.409 . S
C1291 H1283 0.930 . S
C1291 C1292 1.355 . S
C1291 C1293 1.415 . S
C1292 C1291 1.355 . S
C1292 C1294 1.419 . S
C1293 C1288 1.425 . S
C1293 C1290 1.409 . S
C1293 C1291 1.415 . S
C1294 H1284 0.930 . S
C1294 C1292 1.419 . S
C1294 C1295 1.362 . S
C1295 H1285 0.930 . S
C1295 C1288 1.409 . S
C1295 C1294 1.362 . S
H1296 C1302 0.930 . S
H1297 C1305 0.930 . S
H1298 C1306 0.930 . S
H1299 C1307 0.930 . S
H1300 C1310 0.930 . S
H1301 C1311 0.930 1_545 S
C1302 H1296 0.930 . S
C1302 C1303 1.355 . S
C1302 C1304 1.415 . S
C1303 C1302 1.355 . S
C1303 C1305 1.419 . S
C1304 C1302 1.415 . S
C1304 C1309 1.425 . S
C1304 C1311 1.409 . S
C1305 H1297 0.930 . S
C1305 C1303 1.419 . S
C1305 C1306 1.362 . S
C1306 H1298 0.930 . S
C1306 C1305 1.362 . S
C1306 C1309 1.409 . S
C1307 H1299 0.930 . S
C1307 C1308 1.355 . S
C1307 C1309 1.415 . S
C1308 C1307 1.355 . S
C1308 C1310 1.419 1_565 S
C1309 C1304 1.425 . S
C1309 C1306 1.409 . S
C1309 C1307 1.415 . S
C1310 H1300 0.930 . S
C1310 C1308 1.419 1_545 S
C1310 C1311 1.362 1_545 S
C1311 H1301 0.930 1_565 S
C1311 C1304 1.409 . S
C1311 C1310 1.362 1_565 S
H1312 C1318 0.930 . S
H1313 C1321 0.930 . S
H1314 C1322 0.930 . S
H1315 C1323 0.930 1_554 S
H1316 C1326 0.930 . S
H1317 C1327 0.930 . S
C1318 H1312 0.930 . S
C1318 C1319 1.355 . S
C1318 C1320 1.415 . S
C1319 C1318 1.355 . S
C1319 C1321 1.419 . S
C1320 C1318 1.415 . S
C1320 C1325 1.425 . S
C1320 C1327 1.409 . S
C1321 H1313 0.930 . S
C1321 C1319 1.419 . S
C1321 C1322 1.362 . S
C1322 H1314 0.930 . S
C1322 C1321 1.362 . S
C1322 C1325 1.409 . S
C1323 H1315 0.930 1_556 S
C1323 C1324 1.352 1_556 S
C1323 C1325 1.415 . S
C1324 C1323 1.352 1_554 S
C1324 C1326 1.403 1_554 S
C1325 C1320 1.425 . S
C1325 C1322 1.409 . S
C1325 C1323 1.415 . S
C1326 H1316 0.930 . S
C1326 C1324 1.403 1_556 S
C1326 C1327 1.362 . S
C1327 H1317 0.930 . S
C1327 C1320 1.409 . S
C1327 C1326 1.362 . S
H1328 C1334 0.930 . S
H1329 C1337 0.930 . S
H1330 C1338 0.930 . S
H1331 C1339 0.930 . S
H1332 C1342 0.930 . S
H1333 C1343 0.930 . S
C1334 H1328 0.930 . S
C1334 C1335 1.355 . S
C1334 C1336 1.415 . S
C1335 C1334 1.355 . S
C1335 C1337 1.419 . S
C1336 C1334 1.415 . S
C1336 C1341 1.425 . S
C1336 C1343 1.409 . S
C1337 H1329 0.930 . S
C1337 C1335 1.419 . S
C1337 C1338 1.362 . S
C1338 H1330 0.930 . S
C1338 C1337 1.362 . S
C1338 C1341 1.409 . S
C1339 H1331 0.930 . S
C1339 C1340 1.355 . S
C1339 C1341 1.415 . S
C1340 C1339 1.355 . S
C1340 C1342 1.419 . S
C1341 C1336 1.425 . S
C1341 C1338 1.409 . S
C1341 C1339 1.415 . S
C1342 H1332 0.930 . S
C1342 C1340 1.419 . S
C1342 C1343 1.362 . S
C1343 H1333 0.930 . S
C1343 C1336 1.409 . S
C1343 C1342 1.362 . S
H1344 C1350 0.930 . S
H1345 C1353 0.930 . S
H1346 C1354 0.930 . S
H1347 C1355 0.930 . S
H1348 C1358 0.930 . S
H1349 C1359 0.930 . S
C1350 H1344 0.930 . S
C1350 C1351 1.355 . S
C1350 C1352 1.415 . S
C1351 C1350 1.355 . S
C1351 C1353 1.419 . S
C1352 C1350 1.415 . S
C1352 C1357 1.425 . S
C1352 C1359 1.409 . S
C1353 H1345 0.930 . S
C1353 C1351 1.419 . S
C1353 C1354 1.362 . S
C1354 H1346 0.930 . S
C1354 C1353 1.362 . S
C1354 C1357 1.409 . S
C1355 H1347 0.930 . S
C1355 C1356 1.355 . S
C1355 C1357 1.415 . S
C1356 C1355 1.355 . S
C1356 C1358 1.419 . S
C1357 C1352 1.425 . S
C1357 C1354 1.409 . S
C1357 C1355 1.415 . S
C1358 H1348 0.930 . S
C1358 C1356 1.419 . S
C1358 C1359 1.362 . S
C1359 H1349 0.930 . S
C1359 C1352 1.409 . S
C1359 C1358 1.362 . S
H1360 C1366 0.930 . S
H1361 C1369 0.930 . S
H1362 C1370 0.930 . S
H1363 C1371 0.930 . S
H1364 C1374 0.930 1_565 S
H1365 C1375 0.930 . S
C1366 H1360 0.930 . S
C1366 C1367 1.355 . S
C1366 C1368 1.415 . S
C1367 C1366 1.355 . S
C1367 C1369 1.419 . S
C1368 C1366 1.415 . S
C1368 C1373 1.425 . S
C1368 C1375 1.409 . S
C1369 H1361 0.930 . S
C1369 C1367 1.419 . S
C1369 C1370 1.362 . S
C1370 H1362 0.930 . S
C1370 C1369 1.362 . S
C1370 C1373 1.409 . S
C1371 H1363 0.930 . S
C1371 C1372 1.355 . S
C1371 C1373 1.415 . S
C1372 C1371 1.355 . S
C1372 C1374 1.419 . S
C1373 C1368 1.425 . S
C1373 C1370 1.409 . S
C1373 C1371 1.415 . S
C1374 H1364 0.930 1_545 S
C1374 C1372 1.419 . S
C1374 C1375 1.362 . S
C1375 H1365 0.930 . S
C1375 C1368 1.409 . S
C1375 C1374 1.362 . S
H1376 C1382 0.930 . S
H1377 C1385 0.930 . S
H1378 C1386 0.930 . S
H1379 C1387 0.930 . S
H1380 C1390 0.930 . S
H1381 C1391 0.930 1_556 S
C1382 H1376 0.930 . S
C1382 C1383 1.355 . S
C1382 C1384 1.415 . S
C1383 C1382 1.355 . S
C1383 C1385 1.419 . S
C1384 C1382 1.415 . S
C1384 C1389 1.425 . S
C1384 C1391 1.409 . S
C1385 H1377 0.930 . S
C1385 C1383 1.419 . S
C1385 C1386 1.362 . S
C1386 H1378 0.930 . S
C1386 C1385 1.362 . S
C1386 C1389 1.409 . S
C1387 H1379 0.930 . S
C1387 C1388 1.355 1_554 S
C1387 C1389 1.415 . S
C1388 C1387 1.355 1_556 S
C1388 C1390 1.419 . S
C1389 C1384 1.425 . S
C1389 C1386 1.409 . S
C1389 C1387 1.415 . S
C1390 H1380 0.930 . S
C1390 C1388 1.419 . S
C1390 C1391 1.362 1_556 S
C1391 H1381 0.930 1_554 S
C1391 C1384 1.409 . S
C1391 C1390 1.362 1_554 S
H1392 C1398 0.930 . S
H1393 C1401 0.930 . S
H1394 C1402 0.930 . S
H1395 C1403 0.930 1_545 S
H1396 C1406 0.930 . S
H1397 C1407 0.930 . S
C1398 H1392 0.930 . S
C1398 C1399 1.355 . S
C1398 C1400 1.415 . S
C1399 C1398 1.355 . S
C1399 C1401 1.419 . S
C1400 C1398 1.415 . S
C1400 C1405 1.425 . S
C1400 C1407 1.409 . S
C1401 H1393 0.930 . S
C1401 C1399 1.419 . S
C1401 C1402 1.362 . S
C1402 H1394 0.930 . S
C1402 C1401 1.362 . S
C1402 C1405 1.409 . S
C1403 H1395 0.930 1_565 S
C1403 C1404 1.355 . S
C1403 C1405 1.415 . S
C1404 C1403 1.355 . S
C1404 C1406 1.419 . S
C1405 C1400 1.425 . S
C1405 C1402 1.409 . S
C1405 C1403 1.415 . S
C1406 H1396 0.930 . S
C1406 C1404 1.419 . S
C1406 C1407 1.362 . S
C1407 H1397 0.930 . S
C1407 C1400 1.409 . S
C1407 C1406 1.362 . S
C647 C17 2.849 . S
C652 C417 2.851 . S
C663 C57 2.849 . S
C668 C457 2.854 . S
C679 C97 2.849 . S
C684 C337 2.852 . S
C695 C377 2.849 . S
C700 C137 2.853 . S
C711 C162 2.870 . S
C716 C562 2.876 . S
C727 C602 2.868 . S
C732 C202 2.876 . S
C743 C482 2.849 . S
C748 C242 2.852 . S
C759 C282 2.859 . S
C764 C522 2.850 . S
C775 C29 1.109 . S
C780 C168 1.109 . S
C791 C69 0.980 . S
C796 C528 0.980 . S
C807 C109 1.028 . S
C812 C248 1.028 . S
C823 C149 0.985 . S
C828 C608 0.985 . S
C839 C208 1.023 . S
C844 C389 1.023 . S
C855 C469 1.146 . S
C860 C288 1.146 . S
C871 C488 1.144 . S
C876 C349 1.144 . S
C887 C429 1.115 . S
C892 C568 1.115 . S
C903 C8 1.130 . S
C908 C297 1.416 . S
C919 C48 1.173 . S
C924 C497 1.411 . S
C935 C88 1.278 . S
C940 C217 1.461 . S
C951 C128 1.174 . S
C956 C577 1.453 . S
C967 C122 1.448 . S
C972 C189 1.166 . S
C983 C229 1.280 . S
C988 C322 1.462 . S
C999 C269 1.263 . S
C1004 C42 1.485 . S
C1015 C402 1.452 . S
C1020 C309 1.266 . S
C1031 C328 1.130 . S
C1036 C617 1.414 . S
C1047 C177 1.409 . S
C1052 C368 1.135 . S
C1063 C537 1.427 . S
C1068 C408 1.137 . S
C1079 C257 1.462 . S
C1084 C448 1.279 . S
C1095 C509 1.181 . S
C1100 C442 1.456 . S
C1111 C549 1.291 . S
C1116 C2 1.478 . S
C1127 C362 1.486 . S
C1132 C589 1.264 . S
C1143 C629 1.155 . S
C1148 C82 1.441 . S
C1159 C12 4.073 . S
C1164 C391 3.993 . S
C1175 C431 3.994 . S
C1180 C52 4.057 . S
C1191 C92 4.044 . S
C1196 C471 3.982 . S
C1207 C351 3.995 . S
C1212 C132 4.057 . S
C1223 C532 3.977 . S
C1228 C191 4.045 . S
C1239 C572 3.987 . S
C1244 C231 4.052 . S
C1255 C612 3.963 . S
C1260 C271 4.032 . S
C1271 C492 3.995 . S
C1276 C311 4.057 . S
C1287 C71 3.962 . S
C1292 C332 4.030 . S
C1303 C111 3.994 . S
C1308 C372 4.055 1_565 S
C1319 C151 3.995 . S
C1324 C412 4.076 . S
C1335 C452 4.032 1_545 S
C1340 C31 3.965 . S
C1351 C212 3.968 . S
C1356 C511 4.034 . S
C1367 C252 3.994 . S
C1372 C551 4.057 1_545 S
C1383 C292 3.963 . S
C1388 C591 4.033 . S
C1399 C172 3.961 . S
C1404 C631 4.030 1_565 S
