# Generated by pormake.
# Topology afw, (4)-cn, num edge types: 1
# Building blocks:
#     Node 0, Type 0, BuildingBlock: QUQFOY_clean_sbu_1, # of connection points: 4
#     Node 1, Type 0, BuildingBlock: QUQFOY_clean_sbu_1, # of connection points: 4
#     Node 2, Type 0, BuildingBlock: QUQFOY_clean_sbu_1, # of connection points: 4
#     Node 3, Type 0, BuildingBlock: QUQFOY_clean_sbu_1, # of connection points: 4
#     Node 4, Type 0, BuildingBlock: QUQFOY_clean_sbu_1, # of connection points: 4
#     Node 5, Type 0, BuildingBlock: QUQFOY_clean_sbu_1, # of connection points: 4
#     Node 6, Type 0, BuildingBlock: QUQFOY_clean_sbu_1, # of connection points: 4
#     Node 7, Type 0, BuildingBlock: QUQFOY_clean_sbu_1, # of connection points: 4
#     Node 8, Type 0, BuildingBlock: QUQFOY_clean_sbu_1, # of connection points: 4
#     Edge 9, Type (0, 0), BuildingBlock: FUNLAD_clean_linker_0, # of connection points: 2
#     Edge 10, Type (0, 0), BuildingBlock: FUNLAD_clean_linker_0, # of connection points: 2
#     Edge 11, Type (0, 0), BuildingBlock: FUNLAD_clean_linker_0, # of connection points: 2
#     Edge 12, Type (0, 0), BuildingBlock: FUNLAD_clean_linker_0, # of connection points: 2
#     Edge 13, Type (0, 0), BuildingBlock: FUNLAD_clean_linker_0, # of connection points: 2
#     Edge 14, Type (0, 0), BuildingBlock: FUNLAD_clean_linker_0, # of connection points: 2
#     Edge 15, Type (0, 0), BuildingBlock: FUNLAD_clean_linker_0, # of connection points: 2
#     Edge 16, Type (0, 0), BuildingBlock: FUNLAD_clean_linker_0, # of connection points: 2
#     Edge 17, Type (0, 0), BuildingBlock: FUNLAD_clean_linker_0, # of connection points: 2
#     Edge 18, Type (0, 0), BuildingBlock: FUNLAD_clean_linker_0, # of connection points: 2
#     Edge 19, Type (0, 0), BuildingBlock: FUNLAD_clean_linker_0, # of connection points: 2
#     Edge 20, Type (0, 0), BuildingBlock: FUNLAD_clean_linker_0, # of connection points: 2
#     Edge 21, Type (0, 0), BuildingBlock: FUNLAD_clean_linker_0, # of connection points: 2
#     Edge 22, Type (0, 0), BuildingBlock: FUNLAD_clean_linker_0, # of connection points: 2
#     Edge 23, Type (0, 0), BuildingBlock: FUNLAD_clean_linker_0, # of connection points: 2
#     Edge 24, Type (0, 0), BuildingBlock: FUNLAD_clean_linker_0, # of connection points: 2
#     Edge 25, Type (0, 0), BuildingBlock: FUNLAD_clean_linker_0, # of connection points: 2
#     Edge 26, Type (0, 0), BuildingBlock: FUNLAD_clean_linker_0, # of connection points: 2
# Relax obj value: 0.127
# Max RMSD: 0.152
# Mean RMSD: 0.152
data_MOF--net-afw--node1-QUQFOY_clean_sbu_1--edge1-FUNLAD_clean_linker_0
_symmetry_space_group_name_H-M    P1
_symmetry_Int_Tables_number       1
_symmetry_cell_setting            triclinic
loop_
_symmetry_equiv_pos_as_xyz
'x, y, z'
_cell_length_a     49.619755
_cell_length_b     49.656442
_cell_length_c     43.391046
_cell_angle_alpha  89.950034
_cell_angle_beta   89.953795
_cell_angle_gamma 120.03602
loop_
_atom_site_label
_atom_site_type_symbol
_atom_site_fract_x
_atom_site_fract_y
_atom_site_fract_z
_atom_type_partial_charge
O0 O 0.06086 0.21406 0.99276 0.0
Cd1 Cd 0.02108 0.21628 0.98438 0.0
Cd2 Cd 0.01832 0.21512 0.04697 0.0
O3 O 0.06022 0.21588 0.04351 0.0
O4 O 0.02476 0.22917 0.94039 0.0
O5 O 0.02398 0.25795 0.97886 0.0
C6 C 0.02623 0.25454 0.94962 0.0
C7 C 0.01318 0.24826 0.08161 0.0
C8 C 0.073 0.21441 0.01865 0.0
C9 C 0.96635 0.16111 0.01306 0.0
O10 O 0.97855 0.17309 0.03886 0.0
O11 O 0.9791 0.17517 0.9881 0.0
O12 O 0.01466 0.22438 0.09091 0.0
O13 O 0.01543 0.2539 0.05236 0.0
O14 O 0.86635 0.82539 0.04465 0.0
Cd15 Cd 0.82507 0.82444 0.05401 0.0
Cd16 Cd 0.82496 0.82758 0.98964 0.0
O17 O 0.86505 0.82493 0.99379 0.0
O18 O 0.81861 0.81415 0.09877 0.0
O19 O 0.78582 0.78374 0.06308 0.0
C20 C 0.79351 0.78882 0.09182 0.0
C21 C 0.78942 0.80016 0.95037 0.0
C22 C 0.87849 0.8253 0.01887 0.0
C23 C 0.82815 0.8812 0.02626 0.0
O24 O 0.82856 0.86977 1.0002 0.0
O25 O 0.82569 0.86624 0.05088 0.0
O26 O 0.81588 0.82453 0.94468 0.0
O27 O 0.78338 0.79039 0.97851 0.0
O28 O 0.17132 0.98035 0.97772 0.0
Cd29 Cd 0.21384 0.02028 0.97172 0.0
Cd30 Cd 0.21159 0.01914 0.03474 0.0
O31 O 0.17089 0.97733 0.02843 0.0
O32 O 0.22226 0.01936 0.92694 0.0
O33 O 0.2524 0.01742 0.96324 0.0
C34 C 0.24621 0.01715 0.93429 0.0
C35 C 0.24919 0.02306 0.06966 0.0
C36 C 0.15802 0.96645 1.00256 0.0
C37 C 0.211 0.07277 1.00286 0.0
O38 O 0.20882 0.05884 0.02812 0.0
O39 O 0.21466 0.06197 0.97763 0.0
O40 O 0.22334 0.0206 0.07885 0.0
O41 O 0.25343 0.02244 0.04033 0.0
O42 O 0.64389 0.50031 0.37606 0.0
Cd43 Cd 0.68386 0.54302 0.38016 0.0
Cd44 Cd 0.67824 0.54053 0.31685 0.0
O45 O 0.63685 0.50011 0.32586 0.0
O46 O 0.68549 0.55225 0.42502 0.0
O47 O 0.68057 0.58115 0.38922 0.0
C48 C 0.68205 0.57558 0.41808 0.0
C49 C 0.68017 0.57562 0.27968 0.0
C50 C 0.62805 0.48714 0.35209 0.0
C51 C 0.73418 0.54046 0.3445 0.0
O52 O 0.71829 0.53792 0.3206 0.0
O53 O 0.72534 0.5443 0.37083 0.0
O54 O 0.6767 0.54897 0.27218 0.0
O55 O 0.68152 0.5821 0.30867 0.0
O56 O 0.5309 0.15724 0.36348 0.0
Cd57 Cd 0.48877 0.1543 0.37328 0.0
Cd58 Cd 0.48524 0.15286 0.30962 0.0
O59 O 0.52674 0.1528 0.31289 0.0
O60 O 0.48364 0.14583 0.41844 0.0
O61 O 0.45109 0.11294 0.38397 0.0
C62 C 0.45925 0.11948 0.41249 0.0
C63 C 0.44738 0.11971 0.27449 0.0
C64 C 0.54198 0.15593 0.33746 0.0
C65 C 0.48725 0.20758 0.34232 0.0
O66 O 0.48726 0.19488 0.31692 0.0
O67 O 0.48659 0.19451 0.36774 0.0
O68 O 0.47286 0.14368 0.26552 0.0
O69 O 0.44363 0.1139 0.3037 0.0
O70 O 0.87476 0.38877 0.37552 0.0
Cd71 Cd 0.8772 0.34879 0.3812 0.0
Cd72 Cd 0.87658 0.34967 0.31877 0.0
O73 O 0.87795 0.39162 0.32483 0.0
O74 O 0.88974 0.35023 0.42502 0.0
O75 O 0.91903 0.35183 0.38584 0.0
C76 C 0.91535 0.35254 0.41526 0.0
C77 C 0.91064 0.34592 0.28422 0.0
C78 C 0.87587 0.40269 0.35056 0.0
C79 C 0.8222 0.29587 0.35058 0.0
O80 O 0.83418 0.30971 0.32532 0.0
O81 O 0.8363 0.30698 0.3759 0.0
O82 O 0.88723 0.34821 0.27478 0.0
O83 O 0.91527 0.3466 0.31359 0.0
O84 O 0.38663 0.87128 0.64877 0.0
Cd85 Cd 0.34767 0.87584 0.64498 0.0
Cd86 Cd 0.35367 0.87828 0.70844 0.0
O87 O 0.39428 0.87786 0.69892 0.0
O88 O 0.34619 0.8836 0.60011 0.0
O89 O 0.35277 0.91804 0.63582 0.0
C90 C 0.35085 0.91083 0.60698 0.0
C91 C 0.35322 0.91189 0.74593 0.0
C92 C 0.4025 0.87336 0.67255 0.0
C93 C 0.2963 0.82385 0.68074 0.0
O94 O 0.31268 0.83644 0.70458 0.0
O95 O 0.30529 0.83672 0.65449 0.0
O96 O 0.35572 0.88807 0.75319 0.0
O97 O 0.35203 0.91738 0.71699 0.0
O98 O 0.20159 0.49577 0.70376 0.0
Cd99 Cd 0.15906 0.49267 0.71127 0.0
Cd100 Cd 0.15597 0.48882 0.64909 0.0
O101 O 0.19726 0.48848 0.65349 0.0
O102 O 0.14908 0.48068 0.75539 0.0
O103 O 0.12082 0.45067 0.71688 0.0
C104 C 0.12579 0.45476 0.7462 0.0
C105 C 0.11762 0.45409 0.61532 0.0
C106 C 0.21259 0.49297 0.67827 0.0
C107 C 0.15828 0.5451 0.67859 0.0
O108 O 0.1584 0.53131 0.65396 0.0
O109 O 0.1572 0.53292 0.70469 0.0
O110 O 0.14311 0.47742 0.60539 0.0
O111 O 0.11416 0.44983 0.64477 0.0
O112 O 0.50409 0.6417 0.66119 0.0
Cd113 Cd 0.54543 0.68164 0.65088 0.0
Cd114 Cd 0.54885 0.68467 0.71511 0.0
O115 O 0.50745 0.64303 0.71195 0.0
O116 O 0.5505 0.67801 0.60578 0.0
O117 O 0.58387 0.67932 0.64024 0.0
C118 C 0.57546 0.67711 0.61175 0.0
C119 C 0.58516 0.68993 0.75248 0.0
C120 C 0.4928 0.62993 0.68738 0.0
C121 C 0.54602 0.73642 0.68076 0.0
O122 O 0.54696 0.72453 0.70639 0.0
O123 O 0.54614 0.72341 0.65559 0.0
O124 O 0.5597 0.68935 0.7597 0.0
O125 O 0.58983 0.6866 0.72379 0.0
C126 C 0.19924 0.11029 0.02998 0.0
C127 C 0.20588 0.09974 1.0025 0.0
C128 C 0.18955 0.13231 0.02929 0.0
C129 C 0.18645 0.14448 1.00103 0.0
C130 C 0.19466 0.1351 0.97375 0.0
C131 C 0.20437 0.11309 0.97445 0.0
C132 C 0.17132 0.16382 0.99855 0.0
C133 C 0.16742 0.17898 0.02238 0.0
C134 C 0.14657 0.1925 0.02097 0.0
C135 C 0.13333 0.19545 0.04848 0.0
C136 C 0.11048 0.20406 0.04794 0.0
C137 C 0.10044 0.21005 0.01981 0.0
H138 H 0.14872 0.20017 0.9714 0.0
C139 C 0.11522 0.20923 0.99246 0.0
C140 C 0.13815 0.20073 0.99302 0.0
H141 H 0.10847 0.21428 0.97043 0.0
H142 H 0.20013 0.1005 0.05201 0.0
H143 H 0.18292 0.13824 0.05087 0.0
H144 H 0.19246 0.14397 0.95164 0.0
H145 H 0.20937 0.10558 0.95282 0.0
H146 H 0.16121 0.16359 0.97633 0.0
H147 H 0.17754 0.17928 0.04461 0.0
H148 H 0.13963 0.18968 0.0704 0.0
H149 H 0.09978 0.20472 0.06949 0.0
C150 C 0.83815 0.93068 1.00077 0.0
C151 C 0.83376 0.91344 0.0279 0.0
C152 C 0.84807 0.96241 1.0021 0.0
C153 C 0.85365 0.97768 0.03071 0.0
C154 C 0.8477 0.96005 0.0578 0.0
C155 C 0.83778 0.92829 0.05646 0.0
C156 C 0.86896 0.01216 0.03338 0.0
C157 C 0.87161 0.03135 0.01005 0.0
C158 C 0.8926 0.06569 0.01137 0.0
C159 C 0.90521 0.08194 0.98373 0.0
C160 C 0.92815 0.11339 0.9841 0.0
C161 C 0.93886 0.12933 0.01219 0.0
H162 H 0.89163 0.07096 0.06107 0.0
C163 C 0.92468 0.11363 0.03972 0.0
C164 C 0.90171 0.08221 0.03934 0.0
H165 H 0.93196 0.12534 0.06175 0.0
H166 H 0.83525 0.91999 0.97835 0.0
H167 H 0.85282 0.97492 0.98055 0.0
H168 H 0.85183 0.97111 0.08017 0.0
H169 H 0.83456 0.91574 0.07784 0.0
H170 H 0.88038 0.02202 0.05515 0.0
H171 H 0.86036 0.02172 0.98819 0.0
H172 H 0.89835 0.06994 0.96181 0.0
H173 H 0.93836 0.12482 0.96243 0.0
C174 C 0.92552 0.83224 0.9901 0.0
C175 C 0.91004 0.82893 0.01821 0.0
C176 C 0.9569 0.84038 0.98968 0.0
C177 C 0.97355 0.84564 0.01742 0.0
C178 C 0.95742 0.84011 0.04542 0.0
C179 C 0.92608 0.83194 0.04586 0.0
C180 C 0.0079 0.85878 0.01842 0.0
C181 C 0.02714 0.87613 0.99547 0.0
C182 C 0.06163 0.89505 0.99835 0.0
C183 C 0.0794 0.90643 0.97132 0.0
C184 C 0.11114 0.92826 0.97274 0.0
C185 C 0.1259 0.93948 1.0013 0.0
H186 H 0.06399 0.89747 0.04848 0.0
C187 C 0.10855 0.92689 0.02845 0.0
C188 C 0.07675 0.90501 0.02703 0.0
H189 H 0.11915 0.93507 0.05083 0.0
H190 H 0.91374 0.8296 0.96837 0.0
H191 H 0.968 0.84305 0.96754 0.0
H192 H 0.96946 0.84354 0.06715 0.0
H193 H 0.91483 0.82924 0.06796 0.0
H194 H 0.01765 0.85634 0.03991 0.0
H195 H 0.01742 0.87848 0.97394 0.0
H196 H 0.06844 0.89927 0.94893 0.0
H197 H 0.12377 0.93732 0.95134 0.0
C198 C 0.86939 0.44408 0.32407 0.0
C199 C 0.87187 0.43034 0.35146 0.0
C200 C 0.8613 0.46731 0.32494 0.0
C201 C 0.85531 0.47715 0.35329 0.0
C202 C 0.85996 0.46495 0.38066 0.0
C203 C 0.86802 0.44174 0.3798 0.0
C204 C 0.84236 0.49841 0.35542 0.0
C205 C 0.82475 0.50068 0.33304 0.0
C206 C 0.80576 0.51607 0.33682 0.0
C207 C 0.79277 0.52133 0.31036 0.0
C208 C 0.77082 0.53098 0.3128 0.0
C209 C 0.76119 0.53551 0.34186 0.0
H210 H 0.80625 0.51808 0.38702 0.0
C211 C 0.77544 0.532 0.36835 0.0
C212 C 0.79739 0.52227 0.36591 0.0
H213 H 0.76853 0.53523 0.3911 0.0
H214 H 0.87268 0.43621 0.30185 0.0
H215 H 0.85926 0.47703 0.30334 0.0
H216 H 0.85593 0.47235 0.40283 0.0
H217 H 0.8701 0.43196 0.40138 0.0
H218 H 0.84505 0.51009 0.37726 0.0
H219 H 0.8221 0.48881 0.31131 0.0
H220 H 0.79871 0.51678 0.28766 0.0
H221 H 0.76047 0.53363 0.29188 0.0
C222 C 0.49423 0.25507 0.36996 0.0
C223 C 0.49104 0.23916 0.3422 0.0
C224 C 0.50225 0.28639 0.3697 0.0
C225 C 0.5075 0.30254 0.34161 0.0
C226 C 0.50214 0.286 0.31394 0.0
C227 C 0.49411 0.25473 0.31419 0.0
C228 C 0.52038 0.33679 0.34 0.0
C229 C 0.53826 0.35641 0.3624 0.0
C230 C 0.55701 0.39085 0.35898 0.0
C231 C 0.56996 0.40882 0.38559 0.0
C232 C 0.59171 0.44052 0.38342 0.0
C233 C 0.60119 0.45506 0.35449 0.0
H234 H 0.5564 0.39294 0.30882 0.0
C235 C 0.58698 0.43755 0.32788 0.0
C236 C 0.56522 0.40578 0.33004 0.0
H237 H 0.59379 0.44799 0.30522 0.0
H238 H 0.49154 0.24366 0.39195 0.0
H239 H 0.50482 0.29785 0.39157 0.0
H240 H 0.50558 0.29769 0.29197 0.0
H241 H 0.4915 0.24313 0.29234 0.0
H242 H 0.51734 0.34606 0.31847 0.0
H243 H 0.54126 0.34697 0.38385 0.0
H244 H 0.56415 0.39804 0.40818 0.0
H245 H 0.60204 0.4533 0.40445 0.0
C246 C 0.59188 0.1667 0.36258 0.0
C247 C 0.57424 0.16152 0.33562 0.0
C248 C 0.6237 0.1769 0.36088 0.0
C249 C 0.63863 0.18199 0.33209 0.0
C250 C 0.62061 0.17524 0.30521 0.0
C251 C 0.58878 0.165 0.30692 0.0
C252 C 0.67313 0.19777 0.32899 0.0
C253 C 0.69255 0.20025 0.35198 0.0
C254 C 0.72687 0.22162 0.35069 0.0
C255 C 0.74318 0.23271 0.37852 0.0
C256 C 0.77458 0.25584 0.37855 0.0
C257 C 0.79043 0.26831 0.35066 0.0
H258 H 0.73211 0.22374 0.30078 0.0
C259 C 0.77469 0.25574 0.32278 0.0
C260 C 0.74332 0.23255 0.32276 0.0
H261 H 0.78635 0.26441 0.30087 0.0
H262 H 0.58145 0.16426 0.3851 0.0
H263 H 0.63657 0.18236 0.38224 0.0
H264 H 0.63144 0.17901 0.28272 0.0
H265 H 0.57592 0.1612 0.28566 0.0
H266 H 0.68269 0.20954 0.30727 0.0
H267 H 0.68299 0.18837 0.37366 0.0
H268 H 0.73127 0.22447 0.40039 0.0
H269 H 0.78603 0.26478 0.40046 0.0
C270 C 0.44353 0.86427 0.69605 0.0
C271 C 0.42886 0.86741 0.66969 0.0
C272 C 0.46511 0.85407 0.6935 0.0
C273 C 0.47267 0.847 0.66443 0.0
C274 C 0.45912 0.85165 0.63806 0.0
C275 C 0.43757 0.86181 0.64061 0.0
C276 C 0.49149 0.83142 0.66071 0.0
C277 C 0.51045 0.83072 0.68255 0.0
C278 C 0.52386 0.80981 0.68084 0.0
C279 C 0.52818 0.79819 0.65279 0.0
C280 C 0.53686 0.77537 0.65266 0.0
C281 C 0.54162 0.76385 0.6805 0.0
H282 H 0.52809 0.8087 0.73041 0.0
C283 C 0.53945 0.77709 0.70836 0.0
C284 C 0.53079 0.79987 0.70849 0.0
H285 H 0.54328 0.76905 0.73025 0.0
H286 H 0.4373 0.86829 0.71882 0.0
H287 H 0.47437 0.85025 0.71454 0.0
H288 H 0.4644 0.84637 0.61539 0.0
H289 H 0.42686 0.8641 0.61978 0.0
H290 H 0.48778 0.81837 0.63958 0.0
H291 H 0.51419 0.84371 0.70373 0.0
H292 H 0.5244 0.80615 0.63088 0.0
H293 H 0.5388 0.76604 0.63075 0.0
C294 C 0.25221 0.77604 0.65681 0.0
C295 C 0.26827 0.79254 0.6833 0.0
C296 C 0.22885 0.7448 0.6589 0.0
C297 C 0.22121 0.72936 0.68756 0.0
C298 C 0.23563 0.74653 0.71421 0.0
C299 C 0.25897 0.77771 0.71214 0.0
C300 C 0.20012 0.69515 0.69057 0.0
C301 C 0.19609 0.675 0.66781 0.0
C302 C 0.18124 0.6407 0.67198 0.0
C303 C 0.17355 0.62201 0.64554 0.0
C304 C 0.16437 0.59051 0.64783 0.0
C305 C 0.16277 0.5769 0.67669 0.0
H306 H 0.18417 0.64011 0.72208 0.0
C307 C 0.16874 0.5951 0.70334 0.0
C308 C 0.17799 0.62668 0.70106 0.0
H309 H 0.1678 0.58539 0.72593 0.0
H310 H 0.25843 0.78688 0.63428 0.0
H311 H 0.21738 0.73281 0.63792 0.0
H312 H 0.22993 0.7354 0.73663 0.0
H313 H 0.27056 0.78979 0.73309 0.0
H314 H 0.19025 0.68642 0.71318 0.0
H315 H 0.20611 0.68393 0.64528 0.0
H316 H 0.17583 0.63208 0.62286 0.0
H317 H 0.15978 0.57717 0.6268 0.0
C318 C 0.26264 0.50523 0.7041 0.0
C319 C 0.24473 0.49818 0.67708 0.0
C320 C 0.29433 0.5148 0.7026 0.0
C321 C 0.30884 0.51736 0.67397 0.0
C322 C 0.29054 0.50882 0.64717 0.0
C323 C 0.25885 0.49922 0.64868 0.0
C324 C 0.34324 0.53223 0.67063 0.0
C325 C 0.36281 0.53608 0.69397 0.0
C326 C 0.39719 0.5567 0.69179 0.0
C327 C 0.41324 0.56486 0.66346 0.0
C328 C 0.44472 0.58764 0.66221 0.0
C329 C 0.46099 0.60254 0.68922 0.0
H330 H 0.40243 0.5639 0.74113 0.0
C331 C 0.44555 0.59272 0.71771 0.0
C332 C 0.41403 0.57001 0.71894 0.0
H333 H 0.45741 0.6035 0.73901 0.0
H334 H 0.25254 0.50471 0.72638 0.0
H335 H 0.30746 0.52173 0.72382 0.0
H336 H 0.30104 0.51063 0.62479 0.0
H337 H 0.24577 0.49392 0.62739 0.0
H338 H 0.35266 0.54218 0.64821 0.0
H339 H 0.35341 0.52609 0.71639 0.0
H340 H 0.40159 0.55423 0.64209 0.0
H341 H 0.45604 0.59421 0.63992 0.0
C342 C 0.0357 0.27541 0.8958 0.0
C343 C 0.03192 0.27942 0.92725 0.0
C344 C 0.04369 0.29959 0.87479 0.0
C345 C 0.04783 0.32843 0.88469 0.0
C346 C 0.04337 0.33217 0.91606 0.0
C347 C 0.03542 0.30794 0.93712 0.0
C348 C 0.05938 0.3558 0.86367 0.0
C349 C 0.05838 0.35376 0.83261 0.0
C350 C 0.07387 0.38109 0.8115 0.0
C351 C 0.06609 0.3769 0.78003 0.0
C352 C 0.08221 0.40106 0.75885 0.0
C353 C 0.10662 0.42999 0.76869 0.0
H354 H 0.10541 0.41459 0.84513 0.0
C355 C 0.11392 0.43449 0.80024 0.0
C356 C 0.0979 0.41035 0.82138 0.0
H357 H 0.13273 0.45644 0.8086 0.0
H358 H 0.03336 0.2538 0.88742 0.0
H359 H 0.04774 0.29577 0.85114 0.0
H360 H 0.04663 0.35415 0.92445 0.0
H361 H 0.03275 0.31182 0.96121 0.0
H362 H 0.0693 0.37846 0.87452 0.0
H363 H 0.04595 0.33104 0.82182 0.0
H364 H 0.04788 0.3546 0.77165 0.0
H365 H 0.07603 0.39681 0.7347 0.0
C366 C 0.7419 0.75453 0.92754 0.0
C367 C 0.76608 0.78563 0.9256 0.0
C368 C 0.71904 0.74188 0.90452 0.0
C369 C 0.71967 0.76044 0.87972 0.0
C370 C 0.74388 0.79138 0.87781 0.0
C371 C 0.76712 0.80371 0.9002 0.0
C372 C 0.69404 0.74919 0.85705 0.0
C373 C 0.68058 0.72073 0.84426 0.0
C374 C 0.65522 0.71114 0.82139 0.0
C375 C 0.65556 0.69633 0.79396 0.0
C376 C 0.63274 0.68919 0.7714 0.0
C377 C 0.60874 0.69595 0.7764 0.0
H378 H 0.62982 0.72826 0.84778 0.0
C379 C 0.60782 0.70962 0.80445 0.0
C380 C 0.63092 0.71734 0.82658 0.0
H381 H 0.58963 0.71509 0.80904 0.0
H382 H 0.74054 0.74013 0.94691 0.0
H383 H 0.70026 0.71806 0.90676 0.0
H384 H 0.74466 0.80617 0.85903 0.0
H385 H 0.78531 0.82782 0.89819 0.0
H386 H 0.68711 0.7657 0.84937 0.0
H387 H 0.68948 0.70516 0.8492 0.0
H388 H 0.67401 0.69118 0.78959 0.0
H389 H 0.63391 0.67851 0.75007 0.0
C390 C 0.34467 0.95548 0.76283 0.0
C391 C 0.3498 0.93087 0.7703 0.0
C392 C 0.33832 0.97118 0.78599 0.0
C393 C 0.33669 0.96234 0.81715 0.0
C394 C 0.34337 0.93877 0.82457 0.0
C395 C 0.34976 0.92318 0.80148 0.0
C396 C 0.32715 0.97606 0.84255 0.0
C397 C 0.31068 0.99061 0.83809 0.0
C398 C 0.29657 0.99979 0.86344 0.0
C399 C 0.27233 0.00546 0.85596 0.0
C400 C 0.25663 0.01187 0.87891 0.0
C401 C 0.26484 0.01293 0.91005 0.0
H402 H 0.32493 0.99904 0.9014 0.0
C403 C 0.28992 0.00856 0.91761 0.0
C404 C 0.30574 0.00217 0.89456 0.0
H405 H 0.29703 0.00956 0.94137 0.0
H406 H 0.3449 0.96222 0.73903 0.0
H407 H 0.33451 0.98996 0.77922 0.0
H408 H 0.34267 0.93164 0.84831 0.0
H409 H 0.35384 0.90449 0.80812 0.0
H410 H 0.33137 0.97117 0.86586 0.0
H411 H 0.30464 0.99351 0.81479 0.0
H412 H 0.26488 0.00411 0.83226 0.0
H413 H 0.23756 0.01533 0.8722 0.0
C414 C 0.42722 0.10875 0.22046 0.0
C415 C 0.42273 0.10072 0.25187 0.0
C416 C 0.40322 0.09292 0.19922 0.0
C417 C 0.3741 0.06834 0.20882 0.0
C418 C 0.3699 0.05985 0.24014 0.0
C419 C 0.39395 0.07578 0.26144 0.0
C420 C 0.34691 0.05299 0.18756 0.0
C421 C 0.34926 0.05449 0.15651 0.0
C422 C 0.32214 0.0432 0.13523 0.0
C423 C 0.32657 0.04005 0.10371 0.0
C424 C 0.30265 0.03254 0.08242 0.0
C425 C 0.27372 0.02814 0.09221 0.0
H426 H 0.28846 0.04105 0.16883 0.0
C427 C 0.26898 0.03052 0.1238 0.0
C428 C 0.29288 0.0381 0.14504 0.0
H429 H 0.24703 0.02745 0.13212 0.0
H430 H 0.44905 0.12797 0.21231 0.0
H431 H 0.40744 0.101 0.17563 0.0
H432 H 0.3477 0.0412 0.2483 0.0
H433 H 0.3897 0.06905 0.28548 0.0
H434 H 0.32411 0.04026 0.19822 0.0
H435 H 0.37208 0.06475 0.14586 0.0
H436 H 0.34888 0.04405 0.09538 0.0
H437 H 0.30709 0.03094 0.05824 0.0
C438 C 0.00365 0.2596 0.13538 0.0
C439 C 0.00742 0.26741 0.10391 0.0
C440 C 0.9955 0.27567 0.15632 0.0
C441 C 0.99119 0.30026 0.14636 0.0
C442 C 0.99569 0.30851 0.11499 0.0
C443 C 0.00379 0.29234 0.09398 0.0
C444 C 0.97936 0.31585 0.16729 0.0
C445 C 0.98014 0.31464 0.19836 0.0
C446 C 0.96415 0.32598 0.21936 0.0
C447 C 0.97156 0.32932 0.25092 0.0
C448 C 0.95491 0.33679 0.27197 0.0
C449 C 0.93035 0.34096 0.26191 0.0
H450 H 0.93275 0.32782 0.18543 0.0
C451 C 0.92345 0.33845 0.23027 0.0
C452 C 0.93999 0.33091 0.20926 0.0
H453 H 0.90455 0.34137 0.22174 0.0
H454 H 0.00609 0.24039 0.1438 0.0
H455 H 0.99144 0.26776 0.17998 0.0
H456 H 0.9923 0.32715 0.10655 0.0
H457 H 0.00646 0.2989 0.06988 0.0
H458 H 0.96932 0.32845 0.15638 0.0
H459 H 0.99268 0.30451 0.20924 0.0
H460 H 0.98987 0.32546 0.25946 0.0
H461 H 0.9608 0.33851 0.29619 0.0
C462 C 0.69132 0.6288 0.26323 0.0
C463 C 0.68448 0.59855 0.25551 0.0
C464 C 0.69854 0.65122 0.24021 0.0
C465 C 0.69929 0.64384 0.20895 0.0
C466 C 0.69088 0.61316 0.20129 0.0
C467 C 0.68367 0.59083 0.22424 0.0
C468 C 0.70963 0.66735 0.1837 0.0
C469 C 0.72814 0.69818 0.18826 0.0
C470 C 0.74279 0.72143 0.16293 0.0
C471 C 0.76878 0.75036 0.17008 0.0
C472 C 0.78474 0.77235 0.14707 0.0
C473 C 0.77503 0.76606 0.1162 0.0
H474 H 0.71181 0.69401 0.12562 0.0
C475 C 0.74836 0.7376 0.10902 0.0
C476 C 0.73229 0.71552 0.13214 0.0
H477 H 0.7401 0.7322 0.08549 0.0
H478 H 0.6918 0.63539 0.2871 0.0
H479 H 0.7037 0.67422 0.24714 0.0
H480 H 0.69087 0.60663 0.17746 0.0
H481 H 0.67825 0.56767 0.21742 0.0
H482 H 0.7042 0.65842 0.16036 0.0
H483 H 0.73537 0.70673 0.21152 0.0
H484 H 0.7773 0.75578 0.19354 0.0
H485 H 0.80507 0.79411 0.15349 0.0
C486 C 0.09659 0.44073 0.56174 0.0
C487 C 0.0926 0.43413 0.59347 0.0
C488 C 0.0722 0.42409 0.54112 0.0
C489 C 0.04317 0.40011 0.55168 0.0
C490 C 0.0395 0.39299 0.58333 0.0
C491 C 0.06394 0.40975 0.60401 0.0
C492 C 0.01552 0.38408 0.53108 0.0
C493 C 0.01714 0.38471 0.49998 0.0
C494 C 0.98954 0.37308 0.4793 0.0
C495 C 0.99328 0.36948 0.44771 0.0
C496 C 0.96893 0.3618 0.42692 0.0
C497 C 0.94027 0.35765 0.43729 0.0
H498 H 0.95659 0.37144 0.51355 0.0
C499 C 0.93619 0.36039 0.46896 0.0
C500 C 0.96051 0.36816 0.4897 0.0
H501 H 0.91445 0.3575 0.47772 0.0
H502 H 0.11833 0.45948 0.55283 0.0
H503 H 0.07606 0.43114 0.51721 0.0
H504 H 0.01739 0.37484 0.59224 0.0
H505 H 0.06008 0.40412 0.62832 0.0
H506 H 0.99298 0.37173 0.54229 0.0
H507 H 0.03968 0.39462 0.48881 0.0
H508 H 0.01538 0.37332 0.43894 0.0
H509 H 0.97285 0.35991 0.40266 0.0
C510 C 0.67138 0.61761 0.43565 0.0
C511 C 0.67809 0.59397 0.44272 0.0
C512 C 0.66475 0.63276 0.45917 0.0
C513 C 0.66446 0.62434 0.49027 0.0
C514 C 0.67264 0.60176 0.49725 0.0
C515 C 0.67927 0.58668 0.47382 0.0
C516 C 0.65498 0.63764 0.5161 0.0
C517 C 0.63695 0.65062 0.5124 0.0
C518 C 0.6233 0.6595 0.53841 0.0
C519 C 0.59744 0.66299 0.5323 0.0
C520 C 0.58241 0.66933 0.55602 0.0
C521 C 0.59295 0.6725 0.58657 0.0
H522 H 0.65509 0.66243 0.5746 0.0
C523 C 0.61951 0.67017 0.5927 0.0
C524 C 0.63464 0.66386 0.56888 0.0
H525 H 0.62842 0.67284 0.61595 0.0
H526 H 0.67063 0.624 0.41193 0.0
H527 H 0.65971 0.65082 0.45273 0.0
H528 H 0.67299 0.595 0.52094 0.0
H529 H 0.68458 0.56874 0.48014 0.0
H530 H 0.6607 0.63375 0.53919 0.0
H531 H 0.62936 0.65234 0.48941 0.0
H532 H 0.58828 0.66008 0.50911 0.0
H533 H 0.56213 0.67118 0.5504 0.0
C534 C 0.36338 0.96411 0.58925 0.0
C535 C 0.35561 0.93343 0.58227 0.0
C536 C 0.37059 0.98599 0.56566 0.0
C537 C 0.37039 0.97763 0.53457 0.0
C538 C 0.36124 0.9466 0.52769 0.0
C539 C 0.35404 0.9248 0.5512 0.0
C540 C 0.38019 1.00036 0.50862 0.0
C541 C 0.39868 0.03134 0.51212 0.0
C542 C 0.41222 0.05381 0.486 0.0
C543 C 0.43801 0.08326 0.49199 0.0
C544 C 0.45279 0.10466 0.46821 0.0
C545 C 0.44211 0.09724 0.43771 0.0
H546 H 0.38041 0.0248 0.4499 0.0
C547 C 0.4157 0.06821 0.43169 0.0
C548 C 0.40079 0.04674 0.45557 0.0
H549 H 0.40669 0.06192 0.40847 0.0
H550 H 0.36448 0.97141 0.61296 0.0
H551 H 0.37639 0.00932 0.57204 0.0
H552 H 0.3605 0.93932 0.50402 0.0
H553 H 0.34791 0.90131 0.54494 0.0
H554 H 0.37411 0.99067 0.4856 0.0
H555 H 0.40655 0.04069 0.53504 0.0
H556 H 0.44725 0.08956 0.51514 0.0
H557 H 0.47299 0.12688 0.47375 0.0
loop_
_geom_bond_atom_site_label_1
_geom_bond_atom_site_label_2
_geom_bond_distance
_geom_bond_site_symmetry_2
_ccdc_geom_bond_type
O0 Cd1 2.223 . S
O0 C8 1.315 . S
Cd1 O0 2.223 . S
Cd1 O4 2.297 . S
Cd1 O5 2.439 . S
Cd1 O11 2.240 1_456 S
Cd2 O3 2.240 . S
Cd2 O10 2.223 1_455 S
Cd2 O12 2.297 1_455 S
Cd2 O13 2.439 1_455 S
O3 Cd2 2.240 . S
O3 C8 1.279 1_554 S
O4 Cd1 2.297 . S
O4 C6 1.247 . S
O5 Cd1 2.439 . S
O5 C6 1.208 . S
C6 O4 1.247 . S
C6 O5 1.208 . S
C7 O12 1.247 . S
C7 O13 1.208 . S
C8 O0 1.315 . S
C8 O3 1.279 1_556 S
C9 O10 1.315 . S
C9 O11 1.279 . S
O10 Cd2 2.223 1_655 S
O10 C9 1.315 . S
O11 Cd1 2.240 1_654 S
O11 C9 1.279 . S
O12 Cd2 2.297 1_655 S
O12 C7 1.247 . S
O13 Cd2 2.439 1_655 S
O13 C7 1.208 . S
O14 Cd15 2.223 . S
O14 C22 1.315 . S
Cd15 O14 2.223 . S
Cd15 O18 2.297 . S
Cd15 O19 2.439 . S
Cd15 O25 2.240 . S
Cd16 O17 2.240 1_556 S
Cd16 O24 2.223 . S
Cd16 O26 2.297 . S
Cd16 O27 2.439 . S
O17 Cd16 2.240 1_554 S
O17 C22 1.279 . S
O18 Cd15 2.297 . S
O18 C20 1.247 . S
O19 Cd15 2.439 . S
O19 C20 1.208 . S
C20 O18 1.247 . S
C20 O19 1.208 . S
C21 O26 1.247 . S
C21 O27 1.208 . S
C22 O14 1.315 . S
C22 O17 1.279 . S
C23 O24 1.315 . S
C23 O25 1.279 1_556 S
O24 Cd16 2.223 . S
O24 C23 1.315 . S
O25 Cd15 2.240 . S
O25 C23 1.279 1_554 S
O26 Cd16 2.297 . S
O26 C21 1.247 . S
O27 Cd16 2.439 . S
O27 C21 1.208 . S
O28 Cd29 2.223 1_565 S
O28 C36 1.315 . S
Cd29 O28 2.223 1_545 S
Cd29 O32 2.297 1_545 S
Cd29 O33 2.459 . S
Cd29 O39 2.240 1_556 S
Cd30 O31 2.240 1_545 S
Cd30 O38 2.223 . S
Cd30 O40 2.297 . S
Cd30 O41 2.439 . S
O31 Cd30 2.240 1_565 S
O31 C36 1.279 1_554 S
O32 Cd29 2.297 1_565 S
O32 C34 1.247 . S
O33 Cd29 2.459 . S
O33 C34 1.201 1_545 S
C34 O32 1.247 . S
C34 O33 1.201 1_565 S
C35 O40 1.247 . S
C35 O41 1.208 . S
C36 O28 1.315 . S
C36 O31 1.279 1_556 S
C37 O38 1.315 . S
C37 O39 1.279 . S
O38 Cd30 2.223 . S
O38 C37 1.315 . S
O39 Cd29 2.240 1_554 S
O39 C37 1.279 . S
O40 Cd30 2.297 . S
O40 C35 1.247 . S
O41 Cd30 2.439 . S
O41 C35 1.208 . S
O42 Cd43 2.223 . S
O42 C50 1.315 . S
Cd43 O42 2.223 . S
Cd43 O46 2.297 . S
Cd43 O47 2.439 . S
Cd43 O53 2.240 . S
Cd44 O45 2.240 . S
Cd44 O52 2.223 . S
Cd44 O54 2.297 . S
Cd44 O55 2.439 . S
O45 Cd44 2.240 . S
O45 C50 1.279 . S
O46 Cd43 2.297 . S
O46 C48 1.247 . S
O47 Cd43 2.439 . S
O47 C48 1.208 . S
C48 O46 1.247 . S
C48 O47 1.208 . S
C49 O54 1.247 . S
C49 O55 1.208 . S
C50 O42 1.315 . S
C50 O45 1.279 . S
C51 O52 1.315 . S
C51 O53 1.279 . S
O52 Cd44 2.223 . S
O52 C51 1.315 . S
O53 Cd43 2.240 . S
O53 C51 1.279 . S
O54 Cd44 2.297 . S
O54 C49 1.247 . S
O55 Cd44 2.439 . S
O55 C49 1.208 . S
O56 Cd57 2.223 . S
O56 C64 1.315 . S
Cd57 O56 2.223 . S
Cd57 O60 2.297 . S
Cd57 O61 2.439 . S
Cd57 O67 2.240 . S
Cd58 O59 2.240 . S
Cd58 O66 2.223 . S
Cd58 O68 2.297 . S
Cd58 O69 2.439 . S
O59 Cd58 2.240 . S
O59 C64 1.279 . S
O60 Cd57 2.297 . S
O60 C62 1.247 . S
O61 Cd57 2.439 . S
O61 C62 1.208 . S
C62 O60 1.247 . S
C62 O61 1.208 . S
C63 O68 1.247 . S
C63 O69 1.208 . S
C64 O56 1.315 . S
C64 O59 1.279 . S
C65 O66 1.315 . S
C65 O67 1.279 . S
O66 Cd58 2.223 . S
O66 C65 1.315 . S
O67 Cd57 2.240 . S
O67 C65 1.279 . S
O68 Cd58 2.297 . S
O68 C63 1.247 . S
O69 Cd58 2.439 . S
O69 C63 1.208 . S
O70 Cd71 2.223 . S
O70 C78 1.315 . S
Cd71 O70 2.223 . S
Cd71 O74 2.297 . S
Cd71 O75 2.439 . S
Cd71 O81 2.240 . S
Cd72 O73 2.240 . S
Cd72 O80 2.223 . S
Cd72 O82 2.297 . S
Cd72 O83 2.439 . S
O73 Cd72 2.240 . S
O73 C78 1.279 . S
O74 Cd71 2.297 . S
O74 C76 1.247 . S
O75 Cd71 2.439 . S
O75 C76 1.208 . S
C76 O74 1.247 . S
C76 O75 1.208 . S
C77 O82 1.247 . S
C77 O83 1.208 . S
C78 O70 1.315 . S
C78 O73 1.279 . S
C79 O80 1.315 . S
C79 O81 1.279 . S
O80 Cd72 2.223 . S
O80 C79 1.315 . S
O81 Cd71 2.240 . S
O81 C79 1.279 . S
O82 Cd72 2.297 . S
O82 C77 1.247 . S
O83 Cd72 2.439 . S
O83 C77 1.208 . S
O84 Cd85 2.223 . S
O84 C92 1.315 . S
Cd85 O84 2.223 . S
Cd85 O88 2.297 . S
Cd85 O89 2.439 . S
Cd85 O95 2.240 . S
Cd86 O87 2.240 . S
Cd86 O94 2.223 . S
Cd86 O96 2.297 . S
Cd86 O97 2.439 . S
O87 Cd86 2.240 . S
O87 C92 1.279 . S
O88 Cd85 2.297 . S
O88 C90 1.247 . S
O89 Cd85 2.439 . S
O89 C90 1.208 . S
C90 O88 1.247 . S
C90 O89 1.208 . S
C91 O96 1.247 . S
C91 O97 1.208 . S
C92 O84 1.315 . S
C92 O87 1.279 . S
C93 O94 1.315 . S
C93 O95 1.279 . S
O94 Cd86 2.223 . S
O94 C93 1.315 . S
O95 Cd85 2.240 . S
O95 C93 1.279 . S
O96 Cd86 2.297 . S
O96 C91 1.247 . S
O97 Cd86 2.439 . S
O97 C91 1.208 . S
O98 Cd99 2.223 . S
O98 C106 1.315 . S
Cd99 O98 2.223 . S
Cd99 O102 2.297 . S
Cd99 O103 2.439 . S
Cd99 O109 2.240 . S
Cd100 O101 2.240 . S
Cd100 O108 2.223 . S
Cd100 O110 2.297 . S
Cd100 O111 2.439 . S
O101 Cd100 2.240 . S
O101 C106 1.279 . S
O102 Cd99 2.297 . S
O102 C104 1.247 . S
O103 Cd99 2.439 . S
O103 C104 1.208 . S
C104 O102 1.247 . S
C104 O103 1.208 . S
C105 O110 1.247 . S
C105 O111 1.208 . S
C106 O98 1.315 . S
C106 O101 1.279 . S
C107 O108 1.315 . S
C107 O109 1.279 . S
O108 Cd100 2.223 . S
O108 C107 1.315 . S
O109 Cd99 2.240 . S
O109 C107 1.279 . S
O110 Cd100 2.297 . S
O110 C105 1.247 . S
O111 Cd100 2.439 . S
O111 C105 1.208 . S
O112 Cd113 2.223 . S
O112 C120 1.315 . S
Cd113 O112 2.223 . S
Cd113 O116 2.297 . S
Cd113 O117 2.439 . S
Cd113 O123 2.240 . S
Cd114 O115 2.240 . S
Cd114 O122 2.223 . S
Cd114 O124 2.297 . S
Cd114 O125 2.439 . S
O115 Cd114 2.240 . S
O115 C120 1.279 . S
O116 Cd113 2.297 . S
O116 C118 1.247 . S
O117 Cd113 2.439 . S
O117 C118 1.208 . S
C118 O116 1.247 . S
C118 O117 1.208 . S
C119 O124 1.247 . S
C119 O125 1.208 . S
C120 O112 1.315 . S
C120 O115 1.279 . S
C121 O122 1.315 . S
C121 O123 1.279 . S
O122 Cd114 2.223 . S
O122 C121 1.315 . S
O123 Cd113 2.240 . S
O123 C121 1.279 . S
O124 Cd114 2.297 . S
O124 C119 1.247 . S
O125 Cd114 2.439 . S
O125 C119 1.208 . S
C126 C127 1.386 . S
C126 C128 1.383 . S
C126 H142 0.951 . S
C127 C126 1.386 . S
C127 C131 1.383 1_554 S
C128 C126 1.383 . S
C128 C129 1.402 1_554 S
C128 H143 0.951 . S
C129 C128 1.402 1_556 S
C129 C130 1.375 . S
C129 C132 1.481 . S
C130 C129 1.375 . S
C130 C131 1.367 . S
C130 H144 0.951 . S
C131 C127 1.383 1_556 S
C131 C130 1.367 . S
C131 H145 0.950 . S
C132 C129 1.481 . S
C132 C133 1.297 1_556 S
C132 H146 0.950 . S
C133 C132 1.297 1_554 S
C133 C134 1.479 . S
C133 H147 0.950 . S
C134 C133 1.479 . S
C134 C135 1.375 . S
C134 C140 1.404 1_554 S
C135 C134 1.375 . S
C135 C136 1.369 . S
C135 H148 0.950 . S
C136 C135 1.369 . S
C136 C137 1.392 1_554 S
C136 H149 0.951 . S
C137 C136 1.392 1_556 S
C137 C139 1.384 . S
H138 C140 0.949 . S
C139 C137 1.384 . S
C139 C140 1.385 . S
C139 H141 0.950 . S
C140 C134 1.404 1_556 S
C140 H138 0.949 . S
C140 C139 1.385 . S
H141 C139 0.950 . S
H142 C126 0.951 . S
H143 C128 0.951 . S
H144 C130 0.951 . S
H145 C131 0.950 . S
H146 C132 0.950 . S
H147 C133 0.950 . S
H148 C135 0.950 . S
H149 C136 0.951 . S
C150 C151 1.378 1_556 S
C150 C152 1.383 . S
C150 H166 0.951 . S
C151 C150 1.378 1_554 S
C151 C155 1.391 . S
C152 C150 1.383 . S
C152 C153 1.402 1_556 S
C152 H167 0.951 . S
C153 C152 1.402 1_554 S
C153 C154 1.375 . S
C153 C156 1.481 1_565 S
C154 C153 1.375 . S
C154 C155 1.367 . S
C154 H168 0.951 . S
C155 C151 1.391 . S
C155 C154 1.367 . S
C155 H169 0.950 . S
C156 C153 1.481 1_545 S
C156 C157 1.297 1_554 S
C156 H170 0.950 . S
C157 C156 1.297 1_556 S
C157 C158 1.474 1_556 S
C157 H171 0.950 . S
C158 C157 1.474 1_554 S
C158 C159 1.347 1_554 S
C158 C164 1.437 . S
C159 C158 1.347 1_556 S
C159 C160 1.369 . S
C159 H172 0.950 . S
C160 C159 1.369 . S
C160 C161 1.392 1_556 S
C160 H173 0.951 . S
C161 C160 1.392 1_554 S
C161 C163 1.384 . S
H162 C164 0.949 . S
C163 C161 1.384 . S
C163 C164 1.385 . S
C163 H165 0.950 . S
C164 C158 1.437 . S
C164 H162 0.949 . S
C164 C163 1.385 . S
H165 C163 0.950 . S
H166 C150 0.951 . S
H167 C152 0.951 . S
H168 C154 0.951 . S
H169 C155 0.950 . S
H170 C156 0.950 . S
H171 C157 0.950 . S
H172 C159 0.950 . S
H173 C160 0.951 . S
C174 C175 1.386 1_556 S
C174 C176 1.383 . S
C174 H190 0.951 . S
C175 C174 1.386 1_554 S
C175 C179 1.383 . S
C176 C174 1.383 . S
C176 C177 1.402 1_556 S
C176 H191 0.951 . S
C177 C176 1.402 1_554 S
C177 C178 1.375 . S
C177 C180 1.481 1_655 S
C178 C177 1.375 . S
C178 C179 1.367 . S
C178 H192 0.951 . S
C179 C175 1.383 . S
C179 C178 1.367 . S
C179 H193 0.950 . S
C180 C177 1.481 1_455 S
C180 C181 1.297 1_554 S
C180 H194 0.950 . S
C181 C180 1.297 1_556 S
C181 C182 1.479 . S
C181 H195 0.950 . S
C182 C181 1.479 . S
C182 C183 1.375 . S
C182 C188 1.404 1_556 S
C183 C182 1.375 . S
C183 C184 1.369 . S
C183 H196 0.950 . S
C184 C183 1.369 . S
C184 C185 1.392 . S
C184 H197 0.951 . S
C185 C184 1.392 . S
C185 C187 1.384 1_556 S
H186 C188 0.949 . S
C187 C185 1.384 1_554 S
C187 C188 1.385 . S
C187 H189 0.950 . S
C188 C182 1.404 1_554 S
C188 H186 0.949 . S
C188 C187 1.385 . S
H189 C187 0.950 . S
H190 C174 0.951 . S
H191 C176 0.951 . S
H192 C178 0.951 . S
H193 C179 0.950 . S
H194 C180 0.950 . S
H195 C181 0.950 . S
H196 C183 0.950 . S
H197 C184 0.951 . S
C198 C199 1.386 . S
C198 C200 1.383 . S
C198 H214 0.951 . S
C199 C198 1.386 . S
C199 C203 1.383 . S
C200 C198 1.383 . S
C200 C201 1.402 . S
C200 H215 0.951 . S
C201 C200 1.402 . S
C201 C202 1.375 . S
C201 C204 1.481 . S
C202 C201 1.375 . S
C202 C203 1.367 . S
C202 H216 0.951 . S
C203 C199 1.383 . S
C203 C202 1.367 . S
C203 H217 0.950 . S
C204 C201 1.481 . S
C204 C205 1.297 . S
C204 H218 0.950 . S
C205 C204 1.297 . S
C205 C206 1.479 . S
C205 H219 0.950 . S
C206 C205 1.479 . S
C206 C207 1.375 . S
C206 C212 1.404 . S
C207 C206 1.375 . S
C207 C208 1.369 . S
C207 H220 0.950 . S
C208 C207 1.369 . S
C208 C209 1.392 . S
C208 H221 0.951 . S
C209 C208 1.392 . S
C209 C211 1.384 . S
H210 C212 0.949 . S
C211 C209 1.384 . S
C211 C212 1.385 . S
C211 H213 0.950 . S
C212 C206 1.404 . S
C212 H210 0.949 . S
C212 C211 1.385 . S
H213 C211 0.950 . S
H214 C198 0.951 . S
H215 C200 0.951 . S
H216 C202 0.951 . S
H217 C203 0.950 . S
H218 C204 0.950 . S
H219 C205 0.950 . S
H220 C207 0.950 . S
H221 C208 0.951 . S
C222 C223 1.386 . S
C222 C224 1.383 . S
C222 H238 0.951 . S
C223 C222 1.386 . S
C223 C227 1.383 . S
C224 C222 1.383 . S
C224 C225 1.402 . S
C224 H239 0.951 . S
C225 C224 1.402 . S
C225 C226 1.375 . S
C225 C228 1.481 . S
C226 C225 1.375 . S
C226 C227 1.367 . S
C226 H240 0.951 . S
C227 C223 1.383 . S
C227 C226 1.367 . S
C227 H241 0.950 . S
C228 C225 1.481 . S
C228 C229 1.297 . S
C228 H242 0.950 . S
C229 C228 1.297 . S
C229 C230 1.479 . S
C229 H243 0.950 . S
C230 C229 1.479 . S
C230 C231 1.375 . S
C230 C236 1.404 . S
C231 C230 1.375 . S
C231 C232 1.369 . S
C231 H244 0.950 . S
C232 C231 1.369 . S
C232 C233 1.392 . S
C232 H245 0.951 . S
C233 C232 1.392 . S
C233 C235 1.384 . S
H234 C236 0.949 . S
C235 C233 1.384 . S
C235 C236 1.385 . S
C235 H237 0.950 . S
C236 C230 1.404 . S
C236 H234 0.949 . S
C236 C235 1.385 . S
H237 C235 0.950 . S
H238 C222 0.951 . S
H239 C224 0.951 . S
H240 C226 0.951 . S
H241 C227 0.950 . S
H242 C228 0.950 . S
H243 C229 0.950 . S
H244 C231 0.950 . S
H245 C232 0.951 . S
C246 C247 1.386 . S
C246 C248 1.383 . S
C246 H262 0.951 . S
C247 C246 1.386 . S
C247 C251 1.383 . S
C248 C246 1.383 . S
C248 C249 1.402 . S
C248 H263 0.951 . S
C249 C248 1.402 . S
C249 C250 1.375 . S
C249 C252 1.481 . S
C250 C249 1.375 . S
C250 C251 1.367 . S
C250 H264 0.951 . S
C251 C247 1.383 . S
C251 C250 1.367 . S
C251 H265 0.950 . S
C252 C249 1.481 . S
C252 C253 1.297 . S
C252 H266 0.950 . S
C253 C252 1.297 . S
C253 C254 1.479 . S
C253 H267 0.950 . S
C254 C253 1.479 . S
C254 C255 1.375 . S
C254 C260 1.404 . S
C255 C254 1.375 . S
C255 C256 1.369 . S
C255 H268 0.950 . S
C256 C255 1.369 . S
C256 C257 1.392 . S
C256 H269 0.951 . S
C257 C256 1.392 . S
C257 C259 1.384 . S
H258 C260 0.949 . S
C259 C257 1.384 . S
C259 C260 1.385 . S
C259 H261 0.950 . S
C260 C254 1.404 . S
C260 H258 0.949 . S
C260 C259 1.385 . S
H261 C259 0.950 . S
H262 C246 0.951 . S
H263 C248 0.951 . S
H264 C250 0.951 . S
H265 C251 0.950 . S
H266 C252 0.950 . S
H267 C253 0.950 . S
H268 C255 0.950 . S
H269 C256 0.951 . S
C270 C271 1.386 . S
C270 C272 1.383 . S
C270 H286 0.951 . S
C271 C270 1.386 . S
C271 C275 1.383 . S
C272 C270 1.383 . S
C272 C273 1.402 . S
C272 H287 0.951 . S
C273 C272 1.402 . S
C273 C274 1.375 . S
C273 C276 1.481 . S
C274 C273 1.375 . S
C274 C275 1.367 . S
C274 H288 0.951 . S
C275 C271 1.383 . S
C275 C274 1.367 . S
C275 H289 0.950 . S
C276 C273 1.481 . S
C276 C277 1.297 . S
C276 H290 0.950 . S
C277 C276 1.297 . S
C277 C278 1.479 . S
C277 H291 0.950 . S
C278 C277 1.479 . S
C278 C279 1.375 . S
C278 C284 1.404 . S
C279 C278 1.375 . S
C279 C280 1.369 . S
C279 H292 0.950 . S
C280 C279 1.369 . S
C280 C281 1.392 . S
C280 H293 0.951 . S
C281 C280 1.392 . S
C281 C283 1.384 . S
H282 C284 0.949 . S
C283 C281 1.384 . S
C283 C284 1.385 . S
C283 H285 0.950 . S
C284 C278 1.404 . S
C284 H282 0.949 . S
C284 C283 1.385 . S
H285 C283 0.950 . S
H286 C270 0.951 . S
H287 C272 0.951 . S
H288 C274 0.951 . S
H289 C275 0.950 . S
H290 C276 0.950 . S
H291 C277 0.950 . S
H292 C279 0.950 . S
H293 C280 0.951 . S
C294 C295 1.386 . S
C294 C296 1.383 . S
C294 H310 0.951 . S
C295 C294 1.386 . S
C295 C299 1.383 . S
C296 C294 1.383 . S
C296 C297 1.402 . S
C296 H311 0.951 . S
C297 C296 1.402 . S
C297 C298 1.375 . S
C297 C300 1.481 . S
C298 C297 1.375 . S
C298 C299 1.367 . S
C298 H312 0.951 . S
C299 C295 1.383 . S
C299 C298 1.367 . S
C299 H313 0.950 . S
C300 C297 1.481 . S
C300 C301 1.297 . S
C300 H314 0.950 . S
C301 C300 1.297 . S
C301 C302 1.479 . S
C301 H315 0.950 . S
C302 C301 1.479 . S
C302 C303 1.375 . S
C302 C308 1.404 . S
C303 C302 1.375 . S
C303 C304 1.369 . S
C303 H316 0.950 . S
C304 C303 1.369 . S
C304 C305 1.392 . S
C304 H317 0.951 . S
C305 C304 1.392 . S
C305 C307 1.384 . S
H306 C308 0.949 . S
C307 C305 1.384 . S
C307 C308 1.385 . S
C307 H309 0.950 . S
C308 C302 1.404 . S
C308 H306 0.949 . S
C308 C307 1.385 . S
H309 C307 0.950 . S
H310 C294 0.951 . S
H311 C296 0.951 . S
H312 C298 0.951 . S
H313 C299 0.950 . S
H314 C300 0.950 . S
H315 C301 0.950 . S
H316 C303 0.950 . S
H317 C304 0.951 . S
C318 C319 1.386 . S
C318 C320 1.383 . S
C318 H334 0.951 . S
C319 C318 1.386 . S
C319 C323 1.383 . S
C320 C318 1.383 . S
C320 C321 1.402 . S
C320 H335 0.951 . S
C321 C320 1.402 . S
C321 C322 1.375 . S
C321 C324 1.481 . S
C322 C321 1.375 . S
C322 C323 1.367 . S
C322 H336 0.951 . S
C323 C319 1.383 . S
C323 C322 1.367 . S
C323 H337 0.950 . S
C324 C321 1.481 . S
C324 C325 1.297 . S
C324 H338 0.950 . S
C325 C324 1.297 . S
C325 C326 1.479 . S
C325 H339 0.950 . S
C326 C325 1.479 . S
C326 C327 1.375 . S
C326 C332 1.404 . S
C327 C326 1.375 . S
C327 C328 1.369 . S
C327 H340 0.950 . S
C328 C327 1.369 . S
C328 C329 1.392 . S
C328 H341 0.951 . S
C329 C328 1.392 . S
C329 C331 1.384 . S
H330 C332 0.949 . S
C331 C329 1.384 . S
C331 C332 1.385 . S
C331 H333 0.950 . S
C332 C326 1.404 . S
C332 H330 0.949 . S
C332 C331 1.385 . S
H333 C331 0.950 . S
H334 C318 0.951 . S
H335 C320 0.951 . S
H336 C322 0.951 . S
H337 C323 0.950 . S
H338 C324 0.950 . S
H339 C325 0.950 . S
H340 C327 0.950 . S
H341 C328 0.951 . S
C342 C343 1.386 . S
C342 C344 1.383 . S
C342 H358 0.951 . S
C343 C342 1.386 . S
C343 C347 1.383 . S
C344 C342 1.383 . S
C344 C345 1.402 . S
C344 H359 0.951 . S
C345 C344 1.402 . S
C345 C346 1.375 . S
C345 C348 1.481 . S
C346 C345 1.375 . S
C346 C347 1.367 . S
C346 H360 0.951 . S
C347 C343 1.383 . S
C347 C346 1.367 . S
C347 H361 0.950 . S
C348 C345 1.481 . S
C348 C349 1.297 . S
C348 H362 0.950 . S
C349 C348 1.297 . S
C349 C350 1.479 . S
C349 H363 0.950 . S
C350 C349 1.479 . S
C350 C351 1.375 . S
C350 C356 1.404 . S
C351 C350 1.375 . S
C351 C352 1.369 . S
C351 H364 0.950 . S
C352 C351 1.369 . S
C352 C353 1.392 . S
C352 H365 0.951 . S
C353 C352 1.392 . S
C353 C355 1.384 . S
H354 C356 0.949 . S
C355 C353 1.384 . S
C355 C356 1.385 . S
C355 H357 0.950 . S
C356 C350 1.404 . S
C356 H354 0.949 . S
C356 C355 1.385 . S
H357 C355 0.950 . S
H358 C342 0.951 . S
H359 C344 0.951 . S
H360 C346 0.951 . S
H361 C347 0.950 . S
H362 C348 0.950 . S
H363 C349 0.950 . S
H364 C351 0.950 . S
H365 C352 0.951 . S
C366 C367 1.386 . S
C366 C368 1.383 . S
C366 H382 0.951 . S
C367 C366 1.386 . S
C367 C371 1.383 . S
C368 C366 1.383 . S
C368 C369 1.402 . S
C368 H383 0.951 . S
C369 C368 1.402 . S
C369 C370 1.375 . S
C369 C372 1.481 . S
C370 C369 1.375 . S
C370 C371 1.367 . S
C370 H384 0.951 . S
C371 C367 1.383 . S
C371 C370 1.367 . S
C371 H385 0.950 . S
C372 C369 1.481 . S
C372 C373 1.297 . S
C372 H386 0.950 . S
C373 C372 1.297 . S
C373 C374 1.479 . S
C373 H387 0.950 . S
C374 C373 1.479 . S
C374 C375 1.375 . S
C374 C380 1.404 . S
C375 C374 1.375 . S
C375 C376 1.369 . S
C375 H388 0.950 . S
C376 C375 1.369 . S
C376 C377 1.392 . S
C376 H389 0.951 . S
C377 C376 1.392 . S
C377 C379 1.384 . S
H378 C380 0.949 . S
C379 C377 1.384 . S
C379 C380 1.385 . S
C379 H381 0.950 . S
C380 C374 1.404 . S
C380 H378 0.949 . S
C380 C379 1.385 . S
H381 C379 0.950 . S
H382 C366 0.951 . S
H383 C368 0.951 . S
H384 C370 0.951 . S
H385 C371 0.950 . S
H386 C372 0.950 . S
H387 C373 0.950 . S
H388 C375 0.950 . S
H389 C376 0.951 . S
C390 C391 1.386 . S
C390 C392 1.383 . S
C390 H406 0.951 . S
C391 C390 1.386 . S
C391 C395 1.383 . S
C392 C390 1.383 . S
C392 C393 1.402 . S
C392 H407 0.951 . S
C393 C392 1.402 . S
C393 C394 1.375 . S
C393 C396 1.481 . S
C394 C393 1.375 . S
C394 C395 1.367 . S
C394 H408 0.951 . S
C395 C391 1.383 . S
C395 C394 1.367 . S
C395 H409 0.950 . S
C396 C393 1.481 . S
C396 C397 1.297 . S
C396 H410 0.950 . S
C397 C396 1.297 . S
C397 C398 1.479 . S
C397 H411 0.950 . S
C398 C397 1.479 . S
C398 C399 1.375 . S
C398 C404 1.404 . S
C399 C398 1.375 . S
C399 C400 1.369 . S
C399 H412 0.950 . S
C400 C399 1.369 . S
C400 C401 1.392 . S
C400 H413 0.951 1_565 S
C401 C400 1.392 . S
C401 C403 1.384 . S
H402 C404 0.949 . S
C403 C401 1.384 . S
C403 C404 1.385 . S
C403 H405 0.950 . S
C404 C398 1.404 . S
C404 H402 0.949 . S
C404 C403 1.385 . S
H405 C403 0.950 . S
H406 C390 0.951 . S
H407 C392 0.951 . S
H408 C394 0.951 . S
H409 C395 0.950 . S
H410 C396 0.950 . S
H411 C397 0.950 . S
H412 C399 0.950 . S
H413 C400 0.951 1_545 S
C414 C415 1.386 . S
C414 C416 1.383 . S
C414 H430 0.951 . S
C415 C414 1.386 . S
C415 C419 1.383 . S
C416 C414 1.383 . S
C416 C417 1.402 . S
C416 H431 0.951 . S
C417 C416 1.402 . S
C417 C418 1.375 . S
C417 C420 1.481 . S
C418 C417 1.375 . S
C418 C419 1.367 . S
C418 H432 0.951 . S
C419 C415 1.383 . S
C419 C418 1.367 . S
C419 H433 0.950 . S
C420 C417 1.481 . S
C420 C421 1.297 . S
C420 H434 0.950 . S
C421 C420 1.297 . S
C421 C422 1.479 . S
C421 H435 0.950 . S
C422 C421 1.479 . S
C422 C423 1.375 . S
C422 C428 1.404 . S
C423 C422 1.375 . S
C423 C424 1.369 . S
C423 H436 0.950 . S
C424 C423 1.369 . S
C424 C425 1.392 . S
C424 H437 0.951 . S
C425 C424 1.392 . S
C425 C427 1.384 . S
H426 C428 0.949 . S
C427 C425 1.384 . S
C427 C428 1.385 . S
C427 H429 0.950 . S
C428 C422 1.404 . S
C428 H426 0.949 . S
C428 C427 1.385 . S
H429 C427 0.950 . S
H430 C414 0.951 . S
H431 C416 0.951 . S
H432 C418 0.951 . S
H433 C419 0.950 . S
H434 C420 0.950 . S
H435 C421 0.950 . S
H436 C423 0.950 . S
H437 C424 0.951 . S
C438 C439 1.386 . S
C438 C440 1.383 . S
C438 H454 0.951 . S
C439 C438 1.386 . S
C439 C443 1.383 . S
C440 C438 1.383 . S
C440 C441 1.402 . S
C440 H455 0.951 . S
C441 C440 1.402 . S
C441 C442 1.375 . S
C441 C444 1.481 . S
C442 C441 1.375 . S
C442 C443 1.367 . S
C442 H456 0.951 . S
C443 C439 1.383 . S
C443 C442 1.367 . S
C443 H457 0.950 . S
C444 C441 1.481 . S
C444 C445 1.297 . S
C444 H458 0.950 . S
C445 C444 1.297 . S
C445 C446 1.479 . S
C445 H459 0.950 . S
C446 C445 1.479 . S
C446 C447 1.375 . S
C446 C452 1.404 . S
C447 C446 1.375 . S
C447 C448 1.369 . S
C447 H460 0.950 . S
C448 C447 1.369 . S
C448 C449 1.392 . S
C448 H461 0.951 . S
C449 C448 1.392 . S
C449 C451 1.384 . S
H450 C452 0.949 . S
C451 C449 1.384 . S
C451 C452 1.385 . S
C451 H453 0.950 . S
C452 C446 1.404 . S
C452 H450 0.949 . S
C452 C451 1.385 . S
H453 C451 0.950 . S
H454 C438 0.951 . S
H455 C440 0.951 . S
H456 C442 0.951 . S
H457 C443 0.950 . S
H458 C444 0.950 . S
H459 C445 0.950 . S
H460 C447 0.950 . S
H461 C448 0.951 . S
C462 C463 1.386 . S
C462 C464 1.383 . S
C462 H478 0.951 . S
C463 C462 1.386 . S
C463 C467 1.383 . S
C464 C462 1.383 . S
C464 C465 1.402 . S
C464 H479 0.951 . S
C465 C464 1.402 . S
C465 C466 1.375 . S
C465 C468 1.481 . S
C466 C465 1.375 . S
C466 C467 1.367 . S
C466 H480 0.951 . S
C467 C463 1.383 . S
C467 C466 1.367 . S
C467 H481 0.950 . S
C468 C465 1.481 . S
C468 C469 1.297 . S
C468 H482 0.950 . S
C469 C468 1.297 . S
C469 C470 1.479 . S
C469 H483 0.950 . S
C470 C469 1.479 . S
C470 C471 1.375 . S
C470 C476 1.404 . S
C471 C470 1.375 . S
C471 C472 1.369 . S
C471 H484 0.950 . S
C472 C471 1.369 . S
C472 C473 1.392 . S
C472 H485 0.951 . S
C473 C472 1.392 . S
C473 C475 1.384 . S
H474 C476 0.949 . S
C475 C473 1.384 . S
C475 C476 1.385 . S
C475 H477 0.950 . S
C476 C470 1.404 . S
C476 H474 0.949 . S
C476 C475 1.385 . S
H477 C475 0.950 . S
H478 C462 0.951 . S
H479 C464 0.951 . S
H480 C466 0.951 . S
H481 C467 0.950 . S
H482 C468 0.950 . S
H483 C469 0.950 . S
H484 C471 0.950 . S
H485 C472 0.951 . S
C486 C487 1.386 . S
C486 C488 1.383 . S
C486 H502 0.951 . S
C487 C486 1.386 . S
C487 C491 1.383 . S
C488 C486 1.383 . S
C488 C489 1.402 . S
C488 H503 0.951 . S
C489 C488 1.402 . S
C489 C490 1.375 . S
C489 C492 1.481 . S
C490 C489 1.375 . S
C490 C491 1.367 . S
C490 H504 0.951 . S
C491 C487 1.383 . S
C491 C490 1.367 . S
C491 H505 0.950 . S
C492 C489 1.481 . S
C492 C493 1.297 . S
C492 H506 0.950 1_455 S
C493 C492 1.297 . S
C493 C494 1.479 1_455 S
C493 H507 0.950 . S
C494 C493 1.479 1_655 S
C494 C495 1.375 1_655 S
C494 C500 1.404 . S
C495 C494 1.375 1_455 S
C495 C496 1.369 1_455 S
C495 H508 0.950 . S
C496 C495 1.369 1_655 S
C496 C497 1.392 . S
C496 H509 0.951 . S
C497 C496 1.392 . S
C497 C499 1.384 . S
H498 C500 0.949 . S
C499 C497 1.384 . S
C499 C500 1.385 . S
C499 H501 0.950 . S
C500 C494 1.404 . S
C500 H498 0.949 . S
C500 C499 1.385 . S
H501 C499 0.950 . S
H502 C486 0.951 . S
H503 C488 0.951 . S
H504 C490 0.951 . S
H505 C491 0.950 . S
H506 C492 0.950 1_655 S
H507 C493 0.950 . S
H508 C495 0.950 . S
H509 C496 0.951 . S
C510 C511 1.386 . S
C510 C512 1.383 . S
C510 H526 0.951 . S
C511 C510 1.386 . S
C511 C515 1.383 . S
C512 C510 1.383 . S
C512 C513 1.402 . S
C512 H527 0.951 . S
C513 C512 1.402 . S
C513 C514 1.375 . S
C513 C516 1.481 . S
C514 C513 1.375 . S
C514 C515 1.367 . S
C514 H528 0.951 . S
C515 C511 1.383 . S
C515 C514 1.367 . S
C515 H529 0.950 . S
C516 C513 1.481 . S
C516 C517 1.297 . S
C516 H530 0.950 . S
C517 C516 1.297 . S
C517 C518 1.479 . S
C517 H531 0.950 . S
C518 C517 1.479 . S
C518 C519 1.375 . S
C518 C524 1.404 . S
C519 C518 1.375 . S
C519 C520 1.369 . S
C519 H532 0.950 . S
C520 C519 1.369 . S
C520 C521 1.392 . S
C520 H533 0.951 . S
C521 C520 1.392 . S
C521 C523 1.384 . S
H522 C524 0.949 . S
C523 C521 1.384 . S
C523 C524 1.385 . S
C523 H525 0.950 . S
C524 C518 1.404 . S
C524 H522 0.949 . S
C524 C523 1.385 . S
H525 C523 0.950 . S
H526 C510 0.951 . S
H527 C512 0.951 . S
H528 C514 0.951 . S
H529 C515 0.950 . S
H530 C516 0.950 . S
H531 C517 0.950 . S
H532 C519 0.950 . S
H533 C520 0.951 . S
C534 C535 1.386 . S
C534 C536 1.383 . S
C534 H550 0.951 . S
C535 C534 1.386 . S
C535 C539 1.383 . S
C536 C534 1.383 . S
C536 C537 1.402 . S
C536 H551 0.951 . S
C537 C536 1.402 . S
C537 C538 1.375 . S
C537 C540 1.480 . S
C538 C537 1.375 . S
C538 C539 1.367 . S
C538 H552 0.951 . S
C539 C535 1.383 . S
C539 C538 1.367 . S
C539 H553 0.950 . S
C540 C537 1.480 . S
C540 C541 1.297 1_565 S
C540 H554 0.964 . S
C541 C540 1.297 1_545 S
C541 C542 1.479 . S
C541 H555 0.950 . S
C542 C541 1.479 . S
C542 C543 1.375 . S
C542 C548 1.404 . S
C543 C542 1.375 . S
C543 C544 1.369 . S
C543 H556 0.950 . S
C544 C543 1.369 . S
C544 C545 1.392 . S
C544 H557 0.951 . S
C545 C544 1.392 . S
C545 C547 1.384 . S
H546 C548 0.949 . S
C547 C545 1.384 . S
C547 C548 1.385 . S
C547 H549 0.950 . S
C548 C542 1.404 . S
C548 H546 0.949 . S
C548 C547 1.385 . S
H549 C547 0.950 . S
H550 C534 0.951 . S
H551 C536 0.951 . S
H552 C538 0.951 . S
H553 C539 0.950 . S
H554 C540 0.964 . S
H555 C541 0.950 . S
H556 C543 0.950 . S
H557 C544 0.951 . S
C127 C37 1.185 . S
C137 C8 1.185 . S
C151 C23 1.183 1_554 S
C161 C9 1.193 . S
C175 C22 1.140 . S
C185 C36 1.123 . S
C199 C78 1.150 . S
C209 C51 1.153 . S
C223 C65 1.141 . S
C233 C50 1.131 . S
C247 C64 1.185 . S
C257 C79 1.187 . S
C271 C92 1.157 . S
C281 C121 1.130 . S
C295 C93 1.146 . S
C305 C107 1.144 . S
C319 C106 1.168 . S
C329 C120 1.183 . S
C343 C6 1.500 . S
C353 C104 1.435 . S
C367 C21 1.490 . S
C377 C119 1.428 . S
C391 C91 1.466 . S
C401 C34 1.453 . S
C415 C63 1.470 . S
C425 C35 1.506 . S
C439 C7 1.482 . S
C449 C77 1.493 . S
C463 C49 1.454 . S
C473 C20 1.507 . S
C487 C105 1.488 . S
C497 C76 1.485 . S
C511 C48 1.467 . S
C521 C118 1.452 . S
C535 C90 1.454 . S
C545 C62 1.507 . S
