# Generated by pormake.
# Topology son, (6)-cn, num edge types: 1
# Building blocks:
#     Node 0, Type 0, BuildingBlock: BETDAH_clean_sbu_0, # of connection points: 6
#     Node 1, Type 0, BuildingBlock: BETDAH_clean_sbu_0, # of connection points: 6
#     Node 2, Type 0, BuildingBlock: BETDAH_clean_sbu_0, # of connection points: 6
#     Node 3, Type 0, BuildingBlock: BETDAH_clean_sbu_0, # of connection points: 6
#     Node 4, Type 0, BuildingBlock: BETDAH_clean_sbu_0, # of connection points: 6
#     Node 5, Type 0, BuildingBlock: BETDAH_clean_sbu_0, # of connection points: 6
#     Node 6, Type 0, BuildingBlock: BETDAH_clean_sbu_0, # of connection points: 6
#     Node 7, Type 0, BuildingBlock: BETDAH_clean_sbu_0, # of connection points: 6
#     Node 8, Type 0, BuildingBlock: BETDAH_clean_sbu_0, # of connection points: 6
#     Node 9, Type 0, BuildingBlock: BETDAH_clean_sbu_0, # of connection points: 6
#     Node 10, Type 0, BuildingBlock: BETDAH_clean_sbu_0, # of connection points: 6
#     Node 11, Type 0, BuildingBlock: BETDAH_clean_sbu_0, # of connection points: 6
#     Node 12, Type 0, BuildingBlock: BETDAH_clean_sbu_0, # of connection points: 6
#     Node 13, Type 0, BuildingBlock: BETDAH_clean_sbu_0, # of connection points: 6
#     Node 14, Type 0, BuildingBlock: BETDAH_clean_sbu_0, # of connection points: 6
#     Node 15, Type 0, BuildingBlock: BETDAH_clean_sbu_0, # of connection points: 6
#     Node 16, Type 0, BuildingBlock: BETDAH_clean_sbu_0, # of connection points: 6
#     Node 17, Type 0, BuildingBlock: BETDAH_clean_sbu_0, # of connection points: 6
#     Node 18, Type 0, BuildingBlock: BETDAH_clean_sbu_0, # of connection points: 6
#     Node 19, Type 0, BuildingBlock: BETDAH_clean_sbu_0, # of connection points: 6
#     Node 20, Type 0, BuildingBlock: BETDAH_clean_sbu_0, # of connection points: 6
#     Node 21, Type 0, BuildingBlock: BETDAH_clean_sbu_0, # of connection points: 6
#     Node 22, Type 0, BuildingBlock: BETDAH_clean_sbu_0, # of connection points: 6
#     Node 23, Type 0, BuildingBlock: BETDAH_clean_sbu_0, # of connection points: 6
#     Node 24, Type 0, BuildingBlock: BETDAH_clean_sbu_0, # of connection points: 6
#     Node 25, Type 0, BuildingBlock: BETDAH_clean_sbu_0, # of connection points: 6
#     Node 26, Type 0, BuildingBlock: BETDAH_clean_sbu_0, # of connection points: 6
#     Node 27, Type 0, BuildingBlock: BETDAH_clean_sbu_0, # of connection points: 6
#     Node 28, Type 0, BuildingBlock: BETDAH_clean_sbu_0, # of connection points: 6
#     Node 29, Type 0, BuildingBlock: BETDAH_clean_sbu_0, # of connection points: 6
#     Node 30, Type 0, BuildingBlock: BETDAH_clean_sbu_0, # of connection points: 6
#     Node 31, Type 0, BuildingBlock: BETDAH_clean_sbu_0, # of connection points: 6
#     Edge 32, Type (0, 0), BuildingBlock: AJUNOK_clean_linker_0, # of connection points: 2
#     Edge 33, Type (0, 0), BuildingBlock: AJUNOK_clean_linker_0, # of connection points: 2
#     Edge 34, Type (0, 0), BuildingBlock: AJUNOK_clean_linker_0, # of connection points: 2
#     Edge 35, Type (0, 0), BuildingBlock: AJUNOK_clean_linker_0, # of connection points: 2
#     Edge 36, Type (0, 0), BuildingBlock: AJUNOK_clean_linker_0, # of connection points: 2
#     Edge 37, Type (0, 0), BuildingBlock: AJUNOK_clean_linker_0, # of connection points: 2
#     Edge 38, Type (0, 0), BuildingBlock: AJUNOK_clean_linker_0, # of connection points: 2
#     Edge 39, Type (0, 0), BuildingBlock: AJUNOK_clean_linker_0, # of connection points: 2
#     Edge 40, Type (0, 0), BuildingBlock: AJUNOK_clean_linker_0, # of connection points: 2
#     Edge 41, Type (0, 0), BuildingBlock: AJUNOK_clean_linker_0, # of connection points: 2
#     Edge 42, Type (0, 0), BuildingBlock: AJUNOK_clean_linker_0, # of connection points: 2
#     Edge 43, Type (0, 0), BuildingBlock: AJUNOK_clean_linker_0, # of connection points: 2
#     Edge 44, Type (0, 0), BuildingBlock: AJUNOK_clean_linker_0, # of connection points: 2
#     Edge 45, Type (0, 0), BuildingBlock: AJUNOK_clean_linker_0, # of connection points: 2
#     Edge 46, Type (0, 0), BuildingBlock: AJUNOK_clean_linker_0, # of connection points: 2
#     Edge 47, Type (0, 0), BuildingBlock: AJUNOK_clean_linker_0, # of connection points: 2
#     Edge 48, Type (0, 0), BuildingBlock: AJUNOK_clean_linker_0, # of connection points: 2
#     Edge 49, Type (0, 0), BuildingBlock: AJUNOK_clean_linker_0, # of connection points: 2
#     Edge 50, Type (0, 0), BuildingBlock: AJUNOK_clean_linker_0, # of connection points: 2
#     Edge 51, Type (0, 0), BuildingBlock: AJUNOK_clean_linker_0, # of connection points: 2
#     Edge 52, Type (0, 0), BuildingBlock: AJUNOK_clean_linker_0, # of connection points: 2
#     Edge 53, Type (0, 0), BuildingBlock: AJUNOK_clean_linker_0, # of connection points: 2
#     Edge 54, Type (0, 0), BuildingBlock: AJUNOK_clean_linker_0, # of connection points: 2
#     Edge 55, Type (0, 0), BuildingBlock: AJUNOK_clean_linker_0, # of connection points: 2
#     Edge 56, Type (0, 0), BuildingBlock: AJUNOK_clean_linker_0, # of connection points: 2
#     Edge 57, Type (0, 0), BuildingBlock: AJUNOK_clean_linker_0, # of connection points: 2
#     Edge 58, Type (0, 0), BuildingBlock: AJUNOK_clean_linker_0, # of connection points: 2
#     Edge 59, Type (0, 0), BuildingBlock: AJUNOK_clean_linker_0, # of connection points: 2
#     Edge 60, Type (0, 0), BuildingBlock: AJUNOK_clean_linker_0, # of connection points: 2
#     Edge 61, Type (0, 0), BuildingBlock: AJUNOK_clean_linker_0, # of connection points: 2
#     Edge 62, Type (0, 0), BuildingBlock: AJUNOK_clean_linker_0, # of connection points: 2
#     Edge 63, Type (0, 0), BuildingBlock: AJUNOK_clean_linker_0, # of connection points: 2
#     Edge 64, Type (0, 0), BuildingBlock: AJUNOK_clean_linker_0, # of connection points: 2
#     Edge 65, Type (0, 0), BuildingBlock: AJUNOK_clean_linker_0, # of connection points: 2
#     Edge 66, Type (0, 0), BuildingBlock: AJUNOK_clean_linker_0, # of connection points: 2
#     Edge 67, Type (0, 0), BuildingBlock: AJUNOK_clean_linker_0, # of connection points: 2
#     Edge 68, Type (0, 0), BuildingBlock: AJUNOK_clean_linker_0, # of connection points: 2
#     Edge 69, Type (0, 0), BuildingBlock: AJUNOK_clean_linker_0, # of connection points: 2
#     Edge 70, Type (0, 0), BuildingBlock: AJUNOK_clean_linker_0, # of connection points: 2
#     Edge 71, Type (0, 0), BuildingBlock: AJUNOK_clean_linker_0, # of connection points: 2
#     Edge 72, Type (0, 0), BuildingBlock: AJUNOK_clean_linker_0, # of connection points: 2
#     Edge 73, Type (0, 0), BuildingBlock: AJUNOK_clean_linker_0, # of connection points: 2
#     Edge 74, Type (0, 0), BuildingBlock: AJUNOK_clean_linker_0, # of connection points: 2
#     Edge 75, Type (0, 0), BuildingBlock: AJUNOK_clean_linker_0, # of connection points: 2
#     Edge 76, Type (0, 0), BuildingBlock: AJUNOK_clean_linker_0, # of connection points: 2
#     Edge 77, Type (0, 0), BuildingBlock: AJUNOK_clean_linker_0, # of connection points: 2
#     Edge 78, Type (0, 0), BuildingBlock: AJUNOK_clean_linker_0, # of connection points: 2
#     Edge 79, Type (0, 0), BuildingBlock: AJUNOK_clean_linker_0, # of connection points: 2
#     Edge 80, Type (0, 0), BuildingBlock: AJUNOK_clean_linker_0, # of connection points: 2
#     Edge 81, Type (0, 0), BuildingBlock: AJUNOK_clean_linker_0, # of connection points: 2
#     Edge 82, Type (0, 0), BuildingBlock: AJUNOK_clean_linker_0, # of connection points: 2
#     Edge 83, Type (0, 0), BuildingBlock: AJUNOK_clean_linker_0, # of connection points: 2
#     Edge 84, Type (0, 0), BuildingBlock: AJUNOK_clean_linker_0, # of connection points: 2
#     Edge 85, Type (0, 0), BuildingBlock: AJUNOK_clean_linker_0, # of connection points: 2
#     Edge 86, Type (0, 0), BuildingBlock: AJUNOK_clean_linker_0, # of connection points: 2
#     Edge 87, Type (0, 0), BuildingBlock: AJUNOK_clean_linker_0, # of connection points: 2
#     Edge 88, Type (0, 0), BuildingBlock: AJUNOK_clean_linker_0, # of connection points: 2
#     Edge 89, Type (0, 0), BuildingBlock: AJUNOK_clean_linker_0, # of connection points: 2
#     Edge 90, Type (0, 0), BuildingBlock: AJUNOK_clean_linker_0, # of connection points: 2
#     Edge 91, Type (0, 0), BuildingBlock: AJUNOK_clean_linker_0, # of connection points: 2
#     Edge 92, Type (0, 0), BuildingBlock: AJUNOK_clean_linker_0, # of connection points: 2
#     Edge 93, Type (0, 0), BuildingBlock: AJUNOK_clean_linker_0, # of connection points: 2
#     Edge 94, Type (0, 0), BuildingBlock: AJUNOK_clean_linker_0, # of connection points: 2
#     Edge 95, Type (0, 0), BuildingBlock: AJUNOK_clean_linker_0, # of connection points: 2
#     Edge 96, Type (0, 0), BuildingBlock: AJUNOK_clean_linker_0, # of connection points: 2
#     Edge 97, Type (0, 0), BuildingBlock: AJUNOK_clean_linker_0, # of connection points: 2
#     Edge 98, Type (0, 0), BuildingBlock: AJUNOK_clean_linker_0, # of connection points: 2
#     Edge 99, Type (0, 0), BuildingBlock: AJUNOK_clean_linker_0, # of connection points: 2
#     Edge 100, Type (0, 0), BuildingBlock: AJUNOK_clean_linker_0, # of connection points: 2
#     Edge 101, Type (0, 0), BuildingBlock: AJUNOK_clean_linker_0, # of connection points: 2
#     Edge 102, Type (0, 0), BuildingBlock: AJUNOK_clean_linker_0, # of connection points: 2
#     Edge 103, Type (0, 0), BuildingBlock: AJUNOK_clean_linker_0, # of connection points: 2
#     Edge 104, Type (0, 0), BuildingBlock: AJUNOK_clean_linker_0, # of connection points: 2
#     Edge 105, Type (0, 0), BuildingBlock: AJUNOK_clean_linker_0, # of connection points: 2
#     Edge 106, Type (0, 0), BuildingBlock: AJUNOK_clean_linker_0, # of connection points: 2
#     Edge 107, Type (0, 0), BuildingBlock: AJUNOK_clean_linker_0, # of connection points: 2
#     Edge 108, Type (0, 0), BuildingBlock: AJUNOK_clean_linker_0, # of connection points: 2
#     Edge 109, Type (0, 0), BuildingBlock: AJUNOK_clean_linker_0, # of connection points: 2
#     Edge 110, Type (0, 0), BuildingBlock: AJUNOK_clean_linker_0, # of connection points: 2
#     Edge 111, Type (0, 0), BuildingBlock: AJUNOK_clean_linker_0, # of connection points: 2
#     Edge 112, Type (0, 0), BuildingBlock: AJUNOK_clean_linker_0, # of connection points: 2
#     Edge 113, Type (0, 0), BuildingBlock: AJUNOK_clean_linker_0, # of connection points: 2
#     Edge 114, Type (0, 0), BuildingBlock: AJUNOK_clean_linker_0, # of connection points: 2
#     Edge 115, Type (0, 0), BuildingBlock: AJUNOK_clean_linker_0, # of connection points: 2
#     Edge 116, Type (0, 0), BuildingBlock: AJUNOK_clean_linker_0, # of connection points: 2
#     Edge 117, Type (0, 0), BuildingBlock: AJUNOK_clean_linker_0, # of connection points: 2
#     Edge 118, Type (0, 0), BuildingBlock: AJUNOK_clean_linker_0, # of connection points: 2
#     Edge 119, Type (0, 0), BuildingBlock: AJUNOK_clean_linker_0, # of connection points: 2
#     Edge 120, Type (0, 0), BuildingBlock: AJUNOK_clean_linker_0, # of connection points: 2
#     Edge 121, Type (0, 0), BuildingBlock: AJUNOK_clean_linker_0, # of connection points: 2
#     Edge 122, Type (0, 0), BuildingBlock: AJUNOK_clean_linker_0, # of connection points: 2
#     Edge 123, Type (0, 0), BuildingBlock: AJUNOK_clean_linker_0, # of connection points: 2
#     Edge 124, Type (0, 0), BuildingBlock: AJUNOK_clean_linker_0, # of connection points: 2
#     Edge 125, Type (0, 0), BuildingBlock: AJUNOK_clean_linker_0, # of connection points: 2
#     Edge 126, Type (0, 0), BuildingBlock: AJUNOK_clean_linker_0, # of connection points: 2
#     Edge 127, Type (0, 0), BuildingBlock: AJUNOK_clean_linker_0, # of connection points: 2
# Relax obj value: 0.204
# Max RMSD: 0.225
# Mean RMSD: 0.224
data_MOF--net-son--node1-BETDAH_clean_sbu_0--edge1-AJUNOK_clean_linker_0
_symmetry_space_group_name_H-M    P1
_symmetry_Int_Tables_number       1
_symmetry_cell_setting            triclinic
loop_
_symmetry_equiv_pos_as_xyz
'x, y, z'
_cell_length_a     62.34289
_cell_length_b     36.548401
_cell_length_c     20.507535
_cell_angle_alpha  89.869153
_cell_angle_beta   89.982059
_cell_angle_gamma 89.968902
loop_
_atom_site_label
_atom_site_type_symbol
_atom_site_fract_x
_atom_site_fract_y
_atom_site_fract_z
_atom_type_partial_charge
Ho0 Ho 0.30798 0.27836 0.20055 0.0
Ho1 Ho 0.27247 0.26139 0.30771 0.0
C2 C 0.25747 0.27609 0.15997 0.0
C3 C 0.3267 0.28627 0.08879 0.0
C4 C 0.31897 0.28361 1.01987 0.0
C5 C 0.31363 0.24973 0.99147 0.0
C6 C 0.30605 0.24792 0.92703 0.0
C7 C 0.30337 0.2799 0.88957 0.0
C8 C 0.3085 0.31373 0.91798 0.0
C9 C 0.31645 0.3155 0.98195 0.0
C10 C 0.3027 0.32884 0.29731 0.0
C11 C 0.32349 0.24213 0.32935 0.0
C12 C 0.25184 0.26997 0.4166 0.0
C13 C 0.25851 0.2711 0.48665 0.0
C14 C 0.25897 0.30438 0.52099 0.0
C15 C 0.26592 0.30568 0.58617 0.0
C16 C 0.2725 0.27366 0.61894 0.0
C17 C 0.2712 0.2402 0.5853 0.0
C18 C 0.26441 0.23894 0.52016 0.0
C19 C 0.28065 0.19906 0.24041 0.0
O20 O 0.27777 0.27966 0.14466 0.0
O21 O 0.2505 0.27085 0.22082 0.0
O22 O 0.31921 0.31371 0.12285 0.0
O23 O 0.32776 0.25597 0.12315 0.0
O24 O 0.32087 0.32228 0.26848 0.0
O25 O 0.28809 0.31058 0.26923 0.0
O26 O 0.30479 0.25203 0.3552 0.0
O27 O 0.32759 0.24459 0.26642 0.0
O28 O 0.25375 0.23859 0.38678 0.0
O29 O 0.25761 0.29737 0.37927 0.0
O30 O 0.26681 0.20207 0.28738 0.0
O31 O 0.28946 0.23016 0.23198 0.0
H32 H 0.31527 0.22454 1.01894 0.0
H33 H 0.30209 0.22147 0.90657 0.0
H34 H 0.30674 0.33881 0.89021 0.0
H35 H 0.32067 0.34194 1.00178 0.0
H36 H 0.25414 0.32956 0.4972 0.0
H37 H 0.26652 0.33191 0.61053 0.0
H38 H 0.27532 0.21479 0.60948 0.0
H39 H 0.26381 0.21261 0.49615 0.0
Ho40 Ho 0.91349 0.97382 0.19118 0.0
Ho41 Ho 0.94651 0.99936 0.29794 0.0
C42 C 0.96368 0.9862 0.1524 0.0
C43 C 0.89543 0.95969 0.08047 0.0
C44 C 0.90239 0.96358 1.01106 0.0
C45 C 0.904 0.99807 0.98074 0.0
C46 C 0.91139 1.00128 0.91629 0.0
C47 C 0.91738 0.97013 0.88035 0.0
C48 C 0.91537 0.9356 0.91025 0.0
C49 C 0.90798 0.93237 0.97465 0.0
C50 C 0.91916 0.92568 0.29221 0.0
C51 C 0.89528 0.01019 0.3167 0.0
C52 C 0.96682 1.00094 0.4083 0.0
C53 C 0.96031 0.9954 0.47781 0.0
C54 C 0.95931 0.96034 0.50607 0.0
C55 C 0.95272 0.95566 0.57107 0.0
C56 C 0.94727 0.98603 0.60989 0.0
C57 C 0.94866 0.02112 0.582 0.0
C58 C 0.95517 0.02575 0.51707 0.0
C59 C 0.93493 0.05837 0.22449 0.0
O60 O 0.94398 0.97732 0.13656 0.0
O61 O 0.96969 0.99383 0.21325 0.0
O62 O 0.9057 0.93512 0.11503 0.0
O63 O 0.8917 0.98972 0.1136 0.0
O64 O 0.9014 0.93096 0.26052 0.0
O65 O 0.93383 0.94523 0.26589 0.0
O66 O 0.91389 1.0017 0.34394 0.0
O67 O 0.89177 1.0065 0.25358 0.0
O68 O 0.95884 0.02984 0.37979 0.0
O69 O 0.96718 0.97259 0.36926 0.0
O70 O 0.94841 0.05951 0.27243 0.0
O71 O 0.92856 0.02556 0.21859 0.0
H72 H 0.89974 0.02272 1.00691 0.0
H73 H 0.91271 0.02829 0.89482 0.0
H74 H 0.91932 0.91094 0.88361 0.0
H75 H 0.90671 0.90535 0.99613 0.0
H76 H 0.9639 0.93654 0.47833 0.0
H77 H 0.95172 0.92819 0.5907 0.0
H78 H 0.94488 0.04513 0.61066 0.0
H79 H 0.95615 0.05326 0.49758 0.0
Ho80 Ho 0.30961 0.98181 0.11973 0.0
Ho81 Ho 0.2749 1.00471 1.01602 0.0
C82 C 0.26034 0.99592 0.1646 0.0
C83 C 0.32626 0.96343 0.23056 0.0
C84 C 0.31929 0.96789 0.29999 0.0
C85 C 0.32055 1.00182 0.3322 0.0
C86 C 0.31356 1.00548 0.39705 0.0
C87 C 0.30509 0.97539 0.43149 0.0
C88 C 0.30365 0.94158 0.39918 0.0
C89 C 0.31078 0.93783 0.33457 0.0
C90 C 0.30327 0.93369 1.01923 0.0
C91 C 0.32646 0.02034 0.99667 0.0
C92 C 0.25504 1.00333 0.90452 0.0
C93 C 0.2621 0.99886 0.83514 0.0
C94 C 0.25838 0.96609 0.80105 0.0
C95 C 0.26522 0.96194 0.73605 0.0
C96 C 0.27587 0.99057 0.7032 0.0
C97 C 0.27891 0.02373 0.73671 0.0
C98 C 0.27225 0.02776 0.8016 0.0
C99 C 0.28528 0.06481 0.08714 0.0
O100 O 0.28081 0.99347 0.17756 0.0
O101 O 0.25272 0.99603 0.10362 0.0
O102 O 0.31455 0.94132 0.1952 0.0
O103 O 0.33222 0.99276 0.19799 0.0
O104 O 0.32152 0.94032 0.0472 0.0
O105 O 0.28875 0.95197 0.04849 0.0
O106 O 0.30773 0.01116 0.97031 0.0
O107 O 0.33052 0.01629 0.05937 0.0
O108 O 0.26102 0.03331 0.9338 0.0
O109 O 0.25634 0.97496 0.9433 0.0
O110 O 0.27046 0.06389 0.04279 0.0
O111 O 0.29309 0.03276 0.09238 0.0
H112 H 0.32685 0.02567 0.30732 0.0
H113 H 0.31461 0.03204 0.42014 0.0
H114 H 0.2973 0.91782 0.42428 0.0
H115 H 0.30959 0.91126 0.31154 0.0
H116 H 0.2502 0.94359 0.82465 0.0
H117 H 0.26242 0.93609 0.71178 0.0
H118 H 0.28633 0.04686 0.71257 0.0
H119 H 0.27502 0.05377 0.82531 0.0
Ho120 Ho 0.91719 0.27936 0.1171 0.0
Ho121 Ho 0.94937 0.25507 1.01175 0.0
C122 C 0.96518 0.25773 0.1589 0.0
C123 C 0.90271 0.30132 0.22841 0.0
C124 C 0.90918 0.29514 0.29734 0.0
C125 C 0.91412 0.26002 0.32128 0.0
C126 C 0.92124 0.25528 0.3857 0.0
C127 C 0.92378 0.28553 0.42742 0.0
C128 C 0.91921 0.32066 0.40299 0.0
C129 C 0.91191 0.32536 0.33883 0.0
C130 C 0.92366 0.32929 1.01891 0.0
C131 C 0.89729 0.24684 0.99334 0.0
C132 C 0.97032 0.25486 0.90191 0.0
C133 C 0.96446 0.25986 0.83177 0.0
C134 C 0.96289 0.29476 0.80302 0.0
C135 C 0.95664 0.2988 0.73757 0.0
C136 C 0.95197 0.26801 0.69895 0.0
C137 C 0.95449 0.23308 0.72695 0.0
C138 C 0.96059 0.22908 0.79232 0.0
C139 C 0.93705 0.19369 0.07704 0.0
O140 O 0.94473 0.25792 0.17285 0.0
O141 O 0.97226 0.2615 0.09793 0.0
O142 O 0.91658 0.31983 0.19356 0.0
O143 O 0.8942 0.27386 0.19611 0.0
O144 O 0.9056 0.32247 0.04758 0.0
O145 O 0.93817 0.30949 0.04546 0.0
O146 O 0.91623 0.25423 0.96636 0.0
O147 O 0.89394 0.24964 0.05667 0.0
O148 O 0.96275 0.2256 0.93004 0.0
O149 O 0.96955 0.28316 0.94071 0.0
O150 O 0.95114 0.19461 1.03082 0.0
O151 O 0.93073 0.22625 0.08785 0.0
H152 H 0.91269 0.23627 0.2901 0.0
H153 H 0.92503 0.22795 0.40271 0.0
H154 H 0.92103 0.34449 0.43382 0.0
H155 H 0.90856 0.35277 0.32133 0.0
H156 H 0.96658 0.31897 0.83089 0.0
H157 H 0.95516 0.32611 0.71747 0.0
H158 H 0.95189 0.2087 0.69812 0.0
H159 H 0.96229 0.2017 0.812 0.0
Ho160 Ho 0.702 0.75182 0.77055 0.0
Ho161 Ho 0.66722 0.73396 0.87828 0.0
C162 C 0.6508 0.76779 0.74773 0.0
C163 C 0.72249 0.74285 0.66171 0.0
C164 C 0.71526 0.73946 0.59258 0.0
C165 C 0.71697 0.70599 0.55913 0.0
C166 C 0.70967 0.7027 0.49452 0.0
C167 C 0.70042 0.73278 0.46197 0.0
C168 C 0.69919 0.76638 0.49499 0.0
C169 C 0.70643 0.76967 0.55929 0.0
C170 C 0.69296 0.8145 0.83629 0.0
C171 C 0.71771 0.73686 0.91771 0.0
C172 C 0.6484 0.72533 0.98968 0.0
C173 C 0.65604 0.72565 0.05887 0.0
C174 C 0.65423 0.75748 0.09696 0.0
C175 C 0.6613 0.75791 0.16191 0.0
C176 C 0.67018 0.72643 0.19101 0.0
C177 C 0.67221 0.69469 0.15284 0.0
C178 C 0.66517 0.69423 0.08778 0.0
C179 C 0.67214 0.68374 0.78099 0.0
O180 O 0.66971 0.75894 0.72237 0.0
O181 O 0.64677 0.76582 0.81089 0.0
O182 O 0.71959 0.77463 0.68936 0.0
O183 O 0.71796 0.71578 0.70129 0.0
O184 O 0.70687 0.81166 0.78942 0.0
O185 O 0.68462 0.78311 0.84574 0.0
O186 O 0.69766 0.73032 0.93292 0.0
O187 O 0.72428 0.74469 0.85739 0.0
O188 O 0.6548 0.69801 0.95328 0.0
O189 O 0.64853 0.75657 0.95796 0.0
O190 O 0.65413 0.691 0.81028 0.0
O191 O 0.68692 0.70191 0.80869 0.0
H192 H 0.72382 0.68228 0.58312 0.0
H193 H 0.71093 0.67646 0.47038 0.0
H194 H 0.69271 0.79035 0.47087 0.0
H195 H 0.70506 0.79607 0.58281 0.0
H196 H 0.64735 0.78219 0.07654 0.0
H197 H 0.65993 0.78311 0.18928 0.0
H198 H 0.67895 0.66996 0.17364 0.0
H199 H 0.66685 0.66913 0.06028 0.0
Ho200 Ho 0.02478 0.01327 0.76899 0.0
Ho201 Ho 0.05713 0.0386 0.87572 0.0
C202 C 0.07604 1.00179 0.75306 0.0
C203 C 0.00556 0.01123 0.65685 0.0
C204 C 0.01256 0.01704 0.58823 0.0
C205 C 0.02344 0.0488 0.56833 0.0
C206 C 0.03054 0.05293 0.50382 0.0
C207 C 0.02716 0.02513 0.45756 0.0
C208 C 0.01637 0.99321 0.47778 0.0
C209 C 0.0094 0.98913 0.54236 0.0
C210 C 0.03595 0.95334 0.83988 0.0
C211 C 0.00684 0.02583 0.91319 0.0
C212 C 0.07489 0.05542 0.98597 0.0
C213 C 0.06824 0.05124 0.05503 0.0
C214 C 0.0525 0.02562 0.07283 0.0
C215 C 0.04631 0.02145 0.13804 0.0
C216 C 0.05524 0.04369 0.18672 0.0
C217 C 0.07046 0.07027 0.16877 0.0
C218 C 0.07704 0.07378 0.10351 0.0
C219 C 0.05197 0.08615 0.77364 0.0
O220 O 0.05771 0.0111 0.72503 0.0
O221 O 0.07925 1.00527 0.81629 0.0
O222 O 0.01385 0.98264 0.68531 0.0
O223 O 0.00458 0.03946 0.69601 0.0
O224 O 0.02243 0.95354 0.79214 0.0
O225 O 0.04261 0.98589 0.84863 0.0
O226 O 0.02662 0.03365 0.9295 0.0
O227 O 0.00094 0.0186 0.85214 0.0
O228 O 0.0635 0.07842 0.95142 0.0
O229 O 0.07911 0.02522 0.95399 0.0
O230 O 0.06976 0.08036 0.80481 0.0
O231 O 0.03716 0.06739 0.80073 0.0
H232 H 0.02686 0.07013 0.60277 0.0
H233 H 0.03906 0.07767 0.49051 0.0
H234 H 0.01305 0.97144 0.44355 0.0
H235 H 0.00155 0.96393 0.55667 0.0
H236 H 0.04482 1.00899 0.03624 0.0
H237 H 0.03426 1.00122 0.15035 0.0
H238 H 0.07749 0.0879 0.20538 0.0
H239 H 0.08896 0.09417 0.09089 0.0
Ho240 Ho 0.69891 0.01191 0.05686 0.0
Ho241 Ho 0.66646 0.03581 0.95097 0.0
C242 C 0.64744 0.99899 0.07314 0.0
C243 C 0.71834 0.01072 0.16876 0.0
C244 C 0.71171 0.01641 0.2378 0.0
C245 C 0.7046 0.05053 0.26069 0.0
C246 C 0.69827 0.05504 0.32578 0.0
C247 C 0.69897 0.02551 0.36998 0.0
C248 C 0.70575 0.99121 0.3467 0.0
C249 C 0.71209 0.98677 0.2816 0.0
C250 C 0.69043 0.95178 0.98343 0.0
C251 C 0.71686 0.02789 0.91323 0.0
C252 C 0.64871 0.05176 0.84043 0.0
C253 C 0.65576 0.04746 0.77167 0.0
C254 C 0.66695 0.01611 0.751 0.0
C255 C 0.6742 0.01311 0.68646 0.0
C256 C 0.67075 0.0416 0.64142 0.0
C257 C 0.65974 0.07308 0.66233 0.0
C258 C 0.65229 0.07592 0.72671 0.0
C259 C 0.67176 0.08441 0.05163 0.0
O260 O 0.66584 1.00788 0.1013 0.0
O261 O 0.64462 1.00189 1.0098 0.0
O262 O 0.71039 0.98178 0.14075 0.0
O263 O 0.71877 0.03895 0.12933 0.0
O264 O 0.70405 0.95318 1.03091 0.0
O265 O 0.68233 0.98355 0.97569 0.0
O266 O 0.69678 0.03239 0.89631 0.0
O267 O 0.72285 0.02128 0.97454 0.0
O268 O 0.65967 0.07533 0.87481 0.0
O269 O 0.64437 0.02182 0.87329 0.0
O270 O 0.65379 0.07765 1.02206 0.0
O271 O 0.68646 0.06573 1.02426 0.0
H272 H 0.70367 0.07368 0.2283 0.0
H273 H 0.69246 0.08159 0.34109 0.0
H274 H 0.70659 0.96785 0.37918 0.0
H275 H 0.71747 0.96007 0.26557 0.0
H276 H 0.67024 0.994 0.78483 0.0
H277 H 0.6828 0.98869 0.67191 0.0
H278 H 0.65671 0.09536 0.62865 0.0
H279 H 0.64391 0.10051 0.74155 0.0
Ho280 Ho 0.02413 0.75844 0.05481 0.0
Ho281 Ho 0.05895 0.7354 0.94753 0.0
C282 C 0.07552 0.77079 0.07647 0.0
C283 C 0.00328 0.75584 0.16437 0.0
C284 C 0.00973 0.75362 0.23447 0.0
C285 C 0.00871 0.72022 0.26854 0.0
C286 C 0.01505 0.71789 0.3341 0.0
C287 C 0.0225 0.74896 0.36774 0.0
C288 C 0.02327 0.78246 0.33376 0.0
C289 C 0.01692 0.78479 0.26827 0.0
C290 C 0.03657 0.81789 0.9844 0.0
C291 C 0.00843 0.74381 0.90764 0.0
C292 C 0.07732 0.72493 0.8362 0.0
C293 C 0.06962 0.72856 0.76737 0.0
C294 C 0.07102 0.76214 0.7338 0.0
C295 C 0.06314 0.7657 0.66997 0.0
C296 C 0.05361 0.73584 0.63782 0.0
C297 C 0.05255 0.70212 0.6709 0.0
C298 C 0.06045 0.69851 0.73468 0.0
C299 C 0.0527 0.68704 0.04738 0.0
O300 O 0.05658 0.76258 0.1021 0.0
O301 O 0.07971 0.7676 1.01349 0.0
O302 O 0.00758 0.78624 0.13342 0.0
O303 O 0.00693 0.72714 0.1281 0.0
O304 O 0.02268 0.81908 1.03147 0.0
O305 O 0.04267 0.78507 0.97844 0.0
O306 O 0.02846 0.73669 0.89261 0.0
O307 O 0.00183 0.75119 0.96815 0.0
O308 O 0.06882 0.69845 0.87088 0.0
O309 O 0.07961 0.75518 0.86996 0.0
O310 O 0.07076 0.69201 1.01683 0.0
O311 O 0.03827 0.70636 1.01967 0.0
H312 H 0.00294 0.69582 0.24452 0.0
H313 H 0.01395 0.6917 0.35868 0.0
H314 H 0.02936 0.80685 0.35715 0.0
H315 H 0.01789 0.81108 0.244 0.0
H316 H 0.07817 0.7858 0.75687 0.0
H317 H 0.06476 0.79184 0.64548 0.0
H318 H 0.04535 0.67853 0.64771 0.0
H319 H 0.0592 0.67213 0.75856 0.0
Ho320 Ho 0.30806 0.78217 0.69531 0.0
Ho321 Ho 0.274 0.75836 0.80052 0.0
C322 C 0.25783 0.77266 0.6545 0.0
C323 C 0.32561 0.79677 0.58392 0.0
C324 C 0.31804 0.79208 0.51557 0.0
C325 C 0.30595 0.76133 0.49706 0.0
C326 C 0.29845 0.75756 0.43294 0.0
C327 C 0.3027 0.7846 0.38574 0.0
C328 C 0.31427 0.81589 0.40471 0.0
C329 C 0.32192 0.81949 0.46884 0.0
C330 C 0.30236 0.83044 0.79565 0.0
C331 C 0.32536 0.74562 0.82053 0.0
C332 C 0.25436 0.75698 0.91214 0.0
C333 C 0.26113 0.76162 0.98144 0.0
C334 C 0.27032 0.79426 1.00445 0.0
C335 C 0.27675 0.79766 0.06978 0.0
C336 C 0.27441 0.76831 0.11382 0.0
C337 C 0.26518 0.73565 0.09068 0.0
C338 C 0.25867 0.73237 1.02546 0.0
C339 C 0.2854 0.69838 0.73059 0.0
O340 O 0.27798 0.77825 0.63973 0.0
O341 O 0.25106 0.766 0.71513 0.0
O342 O 0.31516 0.82105 0.61833 0.0
O343 O 0.32982 0.76694 0.61742 0.0
O344 O 0.32032 0.82448 0.76534 0.0
O345 O 0.28762 0.81169 0.76827 0.0
O346 O 0.30669 0.75493 0.84663 0.0
O347 O 0.32925 0.74871 0.75754 0.0
O348 O 0.2618 0.72792 0.88317 0.0
O349 O 0.25435 0.78557 0.8735 0.0
O350 O 0.27113 0.69853 0.7764 0.0
O351 O 0.29224 0.73087 0.7232 0.0
H352 H 0.30217 0.74026 0.53227 0.0
H353 H 0.28916 0.73356 0.42035 0.0
H354 H 0.3177 0.8373 0.36962 0.0
H355 H 0.33086 0.84379 0.482 0.0
H356 H 0.27275 0.81708 0.97199 0.0
H357 H 0.28393 0.82313 0.08552 0.0
H358 H 0.26256 0.71276 0.12331 0.0
H359 H 0.25151 0.70692 1.00949 0.0
Ho360 Ho 0.91644 0.48185 0.69767 0.0
Ho361 Ho 0.95095 0.50418 0.80353 0.0
C362 C 0.96654 0.49511 0.65591 0.0
C363 C 0.89843 0.46669 0.58732 0.0
C364 C 0.90529 0.4703 0.51806 0.0
C365 C 0.91688 0.50094 0.49592 0.0
C366 C 0.92407 0.503 0.4311 0.0
C367 C 0.92013 0.47427 0.38705 0.0
C368 C 0.90855 0.44363 0.40937 0.0
C369 C 0.90124 0.4417 0.47406 0.0
C370 C 0.92344 0.43286 0.79644 0.0
C371 C 0.89928 0.51633 0.82529 0.0
C372 C 0.97055 0.49893 0.91452 0.0
C373 C 0.96321 0.49418 0.98335 0.0
C374 C 0.95421 0.46114 1.00567 0.0
C375 C 0.94739 0.4573 0.07057 0.0
C376 C 0.94964 0.48625 0.11533 0.0
C377 C 0.95847 0.51939 0.0927 0.0
C378 C 0.96516 0.52327 1.02773 0.0
C379 C 0.93888 0.56505 0.73692 0.0
O380 O 0.94629 0.48981 0.64132 0.0
O381 O 0.97358 0.49914 0.71693 0.0
O382 O 0.90914 0.44268 0.62183 0.0
O383 O 0.89456 0.49692 0.61985 0.0
O384 O 0.90507 0.43867 0.76843 0.0
O385 O 0.93757 0.45215 0.76768 0.0
O386 O 0.91828 0.50801 0.85041 0.0
O387 O 0.8951 0.51352 0.76233 0.0
O388 O 0.96581 0.53014 0.88692 0.0
O389 O 0.96836 0.4713 0.87439 0.0
O390 O 0.95311 0.56465 0.78314 0.0
O391 O 0.93219 0.53255 0.72851 0.0
H392 H 0.9206 0.52314 0.52886 0.0
H393 H 0.93311 0.5268 0.41572 0.0
H394 H 0.905 0.42123 0.37664 0.0
H395 H 0.89252 0.41764 0.48991 0.0
H396 H 0.95233 0.43823 0.97304 0.0
H397 H 0.94007 0.43174 0.08534 0.0
H398 H 0.96057 0.54226 0.12557 0.0
H399 H 0.97213 0.54903 1.01235 0.0
Ho400 Ho 0.30869 0.48073 0.61681 0.0
Ho401 Ho 0.27524 0.50715 0.50811 0.0
C402 C 0.25849 0.49224 0.65505 0.0
C403 C 0.32567 0.46916 0.72985 0.0
C404 C 0.31679 0.4713 0.79751 0.0
C405 C 0.32158 0.50131 0.83782 0.0
C406 C 0.31284 0.50395 0.90076 0.0
C407 C 0.29921 0.4765 0.92543 0.0
C408 C 0.29436 0.44654 0.88505 0.0
C409 C 0.30308 0.44389 0.82216 0.0
C410 C 0.30154 0.43362 0.51578 0.0
C411 C 0.32731 0.51725 0.49158 0.0
C412 C 0.25334 0.5036 0.40058 0.0
C413 C 0.25835 0.49981 0.32978 0.0
C414 C 0.25177 0.46852 0.29545 0.0
C415 C 0.25664 0.4644 0.22899 0.0
C416 C 0.26847 0.49132 0.19521 0.0
C417 C 0.27451 0.52307 0.2293 0.0
C418 C 0.26953 0.52729 0.29554 0.0
C419 C 0.28755 0.56523 0.58065 0.0
O420 O 0.27789 0.4811 0.6697 0.0
O421 O 0.25262 0.50228 0.59499 0.0
O422 O 0.31835 0.44288 0.69258 0.0
O423 O 0.32785 0.50014 0.69807 0.0
O424 O 0.31936 0.43552 0.5486 0.0
O425 O 0.28773 0.4542 0.54306 0.0
O426 O 0.30834 0.51181 0.46365 0.0
O427 O 0.33112 0.51165 0.55408 0.0
O428 O 0.25886 0.53426 0.42862 0.0
O429 O 0.25694 0.47516 0.43805 0.0
O430 O 0.27424 0.56731 0.53204 0.0
O431 O 0.29348 0.53214 0.58676 0.0
H432 H 0.33208 0.52288 0.82061 0.0
H433 H 0.317 0.52732 0.93057 0.0
H434 H 0.28359 0.42525 0.90178 0.0
H435 H 0.29887 0.42042 0.79271 0.0
H436 H 0.24282 0.44717 0.32007 0.0
H437 H 0.25106 0.44013 0.20409 0.0
H438 H 0.28365 0.54435 0.20518 0.0
H439 H 0.27476 0.55193 0.32005 0.0
Ho440 Ho 0.91383 0.78083 0.62478 0.0
Ho441 Ho 0.94897 0.75944 0.51741 0.0
C442 C 0.96447 0.77383 0.66484 0.0
C443 C 0.89446 0.79208 0.7346 0.0
C444 C 0.90075 0.78898 0.80478 0.0
C445 C 0.90069 0.75501 0.83725 0.0
C446 C 0.90771 0.75207 0.90209 0.0
C447 C 0.91496 0.78301 0.9365 0.0
C448 C 0.91397 0.81725 0.90506 0.0
C449 C 0.90704 0.82018 0.84011 0.0
C450 C 0.91974 0.829 0.52429 0.0
C451 C 0.89756 0.74483 0.49636 0.0
C452 C 0.96897 0.76625 0.40719 0.0
C453 C 0.96186 0.76808 0.3376 0.0
C454 C 0.96127 0.80172 0.30414 0.0
C455 C 0.95427 0.80367 0.2391 0.0
C456 C 0.94779 0.77198 0.20538 0.0
C457 C 0.94861 0.7383 0.2388 0.0
C458 C 0.95556 0.73636 0.30378 0.0
C459 C 0.93751 0.69915 0.58704 0.0
O460 O 0.94424 0.7791 0.6801 0.0
O461 O 0.97126 0.76751 0.6041 0.0
O462 O 0.90377 0.81811 0.70082 0.0
O463 O 0.89261 0.76161 0.70122 0.0
O464 O 0.90161 0.82338 0.554 0.0
O465 O 0.93421 0.81046 0.55303 0.0
O466 O 0.91646 0.75322 0.47048 0.0
O467 O 0.8935 0.74767 0.55943 0.0
O468 O 0.96664 0.73499 0.43757 0.0
O469 O 0.9641 0.79407 0.44448 0.0
O470 O 0.95132 0.69879 0.53953 0.0
O471 O 0.93076 0.73166 0.59346 0.0
H472 H 0.89542 0.7305 0.81241 0.0
H473 H 0.90738 0.72545 0.92531 0.0
H474 H 0.91921 0.84174 0.93003 0.0
H475 H 0.90697 0.84691 0.8172 0.0
H476 H 0.96621 0.82665 0.32832 0.0
H477 H 0.95408 0.83007 0.21499 0.0
H478 H 0.94332 0.71338 0.21538 0.0
H479 H 0.9558 0.70989 0.3276 0.0
Ho480 Ho 0.7001 0.26145 0.2618 0.0
Ho481 Ho 0.66549 0.23922 0.36972 0.0
C482 C 0.64853 0.26893 0.23669 0.0
C483 C 0.72007 0.25816 0.15103 0.0
C484 C 0.71245 0.25535 0.08209 0.0
C485 C 0.71227 0.22146 0.04963 0.0
C486 C 0.70462 0.21861 0.98544 0.0
C487 C 0.69688 0.24959 0.95195 0.0
C488 C 0.69753 0.28361 0.98383 0.0
C489 C 0.70518 0.28647 0.04792 0.0
C490 C 0.68784 0.32205 0.32961 0.0
C491 C 0.71625 0.24345 0.40725 0.0
C492 C 0.64577 0.23249 0.48072 0.0
C493 C 0.65257 0.23462 0.55009 0.0
C494 C 0.67308 0.24735 0.56683 0.0
C495 C 0.67959 0.24912 0.63213 0.0
C496 C 0.66573 0.23823 0.68255 0.0
C497 C 0.64512 0.22544 0.66591 0.0
C498 C 0.63863 0.22362 0.60029 0.0
C499 C 0.67188 0.1894 0.27246 0.0
O500 O 0.66803 0.26349 0.21325 0.0
O501 O 0.64392 0.2671 0.29949 0.0
O502 O 0.71617 0.2888 0.18153 0.0
O503 O 0.71703 0.22978 0.18875 0.0
O504 O 0.70166 0.32226 0.28233 0.0
O505 O 0.68146 0.28933 0.33719 0.0
O506 O 0.6965 0.23387 0.4214 0.0
O507 O 0.72247 0.25427 0.34802 0.0
O508 O 0.65326 0.20472 0.44748 0.0
O509 O 0.64649 0.2631 0.44729 0.0
O510 O 0.65385 0.19441 0.30333 0.0
O511 O 0.68622 0.20946 0.29882 0.0
H512 H 0.71801 0.19705 0.07392 0.0
H513 H 0.70446 0.19202 0.96227 0.0
H514 H 0.69228 0.3082 0.95895 0.0
H515 H 0.70538 0.31318 0.07063 0.0
H516 H 0.68407 0.25634 0.52953 0.0
H517 H 0.69538 0.25965 0.6434 0.0
H518 H 0.63411 0.21649 0.70356 0.0
H519 H 0.62274 0.21357 0.58878 0.0
Ho520 Ho 0.02644 0.51569 0.26934 0.0
Ho521 Ho 0.05852 0.53492 0.37022 0.0
C522 C 0.07777 0.50446 0.24392 0.0
C523 C 0.00836 0.50929 0.15579 0.0
C524 C 0.01573 0.51449 0.08708 0.0
C525 C 0.02498 0.54748 0.06562 0.0
C526 C 0.03191 0.55171 1.00089 0.0
C527 C 0.03004 0.52285 0.95583 0.0
C528 C 0.02081 0.4898 0.9774 0.0
C529 C 0.01382 0.48567 0.04215 0.0
C530 C 0.03268 0.45924 0.3519 0.0
C531 C 0.00909 0.52903 0.41343 0.0
C532 C 0.07772 0.54739 0.48024 0.0
C533 C 0.07138 0.54329 0.54993 0.0
C534 C 0.06093 0.51168 0.57294 0.0
C535 C 0.05463 0.50879 0.63852 0.0
C536 C 0.05849 0.53746 0.68287 0.0
C537 C 0.06861 0.56933 0.65924 0.0
C538 C 0.07507 0.57208 0.5938 0.0
C539 C 0.05283 0.5877 0.27625 0.0
O540 O 0.05873 0.51264 0.21978 0.0
O541 O 0.08167 0.50662 0.30674 0.0
O542 O 0.01699 0.48196 0.18728 0.0
O543 O 0.00634 0.53829 0.19265 0.0
O544 O 0.01457 0.468 0.32502 0.0
O545 O 0.04746 0.48065 0.33188 0.0
O546 O 0.02933 0.52819 0.42938 0.0
O547 O 0.00277 0.52797 0.35141 0.0
O548 O 0.06745 0.57252 0.4473 0.0
O549 O 0.08048 0.51745 0.44629 0.0
O550 O 0.07098 0.579 0.30298 0.0
O551 O 0.03807 0.56902 0.30323 0.0
H552 H 0.02697 0.57005 0.09883 0.0
H553 H 0.0386 0.57776 0.98604 0.0
H554 H 0.01917 0.46693 0.9443 0.0
H555 H 0.00679 0.45987 0.05711 0.0
H556 H 0.05754 0.48918 0.54023 0.0
H557 H 0.04686 0.48386 0.65464 0.0
H558 H 0.07126 0.59251 0.69102 0.0
H559 H 0.08277 0.597 0.57722 0.0
Ho560 Ho 0.69884 0.51651 0.5497 0.0
Ho561 Ho 0.66609 0.54206 0.44338 0.0
C562 C 0.64745 0.50456 0.56692 0.0
C563 C 0.71928 0.5157 0.65994 0.0
C564 C 0.71285 0.52128 0.72949 0.0
C565 C 0.71599 0.55494 0.76124 0.0
C566 C 0.7102 0.5594 0.82708 0.0
C567 C 0.70111 0.53029 0.86292 0.0
C568 C 0.69773 0.49688 0.83061 0.0
C569 C 0.70372 0.49232 0.76538 0.0
C570 C 0.68807 0.4572 0.47709 0.0
C571 C 0.71613 0.5312 0.40426 0.0
C572 C 0.64837 0.55667 0.33234 0.0
C573 C 0.65607 0.55368 0.26347 0.0
C574 C 0.65189 0.52209 0.22652 0.0
C575 C 0.65975 0.51867 0.16272 0.0
C576 C 0.67199 0.54676 0.13397 0.0
C577 C 0.67581 0.57869 0.17026 0.0
C578 C 0.66798 0.58212 0.23415 0.0
C579 C 0.67122 0.58913 0.54605 0.0
O580 O 0.66598 0.51268 0.59508 0.0
O581 O 0.64423 0.50869 0.50377 0.0
O582 O 0.71148 0.48664 0.6318 0.0
O583 O 0.71939 0.54396 0.62053 0.0
O584 O 0.70145 0.45686 0.5253 0.0
O585 O 0.68124 0.48976 0.46966 0.0
O586 O 0.69659 0.54114 0.38904 0.0
O587 O 0.72202 0.52185 0.46453 0.0
O588 O 0.65767 0.58143 0.36869 0.0
O589 O 0.64502 0.52601 0.3642 0.0
O590 O 0.6535 0.58374 0.51421 0.0
O591 O 0.68601 0.57046 0.5187 0.0
H592 H 0.72327 0.57767 0.73553 0.0
H593 H 0.71318 0.58551 0.85022 0.0
H594 H 0.69013 0.47415 0.85539 0.0
H595 H 0.701 0.4659 0.74305 0.0
H596 H 0.64259 0.49982 0.24698 0.0
H597 H 0.65608 0.49407 0.13561 0.0
H598 H 0.68516 0.60083 0.14955 0.0
H599 H 0.67143 0.60701 0.26071 0.0
Ho600 Ho 0.02499 0.25783 0.55338 0.0
Ho601 Ho 0.06017 0.23705 0.44824 0.0
C602 C 0.07648 0.27307 0.57438 0.0
C603 C 0.00547 0.25662 0.66528 0.0
C604 C 0.01261 0.25244 0.7346 0.0
C605 C 0.01625 0.21782 0.7626 0.0
C606 C 0.02301 0.21438 0.82766 0.0
C607 C 0.02608 0.24551 0.86697 0.0
C608 C 0.02232 0.28013 0.8391 0.0
C609 C 0.01567 0.28354 0.77398 0.0
C610 C 0.03527 0.31853 0.48353 0.0
C611 C 0.01029 0.24918 0.40517 0.0
C612 C 0.07807 0.22166 0.33787 0.0
C613 C 0.07152 0.2262 0.26832 0.0
C614 C 0.0669 0.26076 0.24121 0.0
C615 C 0.05964 0.26394 0.17654 0.0
C616 C 0.0565 0.23268 0.13767 0.0
C617 C 0.06148 0.19824 0.16454 0.0
C618 C 0.06891 0.19508 0.22888 0.0
C619 C 0.05367 0.18745 0.54697 0.0
O620 O 0.05776 0.26303 0.59968 0.0
O621 O 0.08072 0.2706 0.51149 0.0
O622 O 0.01142 0.2866 0.63577 0.0
O623 O 0.00661 0.22821 0.62667 0.0
O624 O 0.02022 0.31701 0.52709 0.0
O625 O 0.04325 0.28675 0.4782 0.0
O626 O 0.03079 0.24764 0.39108 0.0
O627 O 0.00284 0.24859 0.46631 0.0
O628 O 0.06672 0.19811 0.37155 0.0
O629 O 0.08276 0.25117 0.37152 0.0
O630 O 0.07197 0.19427 0.51926 0.0
O631 O 0.03929 0.20619 0.51812 0.0
H632 H 0.01391 0.19332 0.73431 0.0
H633 H 0.02607 0.18727 0.84692 0.0
H634 H 0.02431 0.30468 0.86793 0.0
H635 H 0.01277 0.31068 0.75457 0.0
H636 H 0.0686 0.28535 0.27012 0.0
H637 H 0.05606 0.29086 0.15727 0.0
H638 H 0.05974 0.17364 0.13566 0.0
H639 H 0.07241 0.16809 0.24815 0.0
Ho640 Ho 0.80671 0.28601 0.69578 0.0
Ho641 Ho 0.77278 0.26209 0.80155 0.0
C642 C 0.75682 0.27394 0.65408 0.0
C643 C 0.82503 0.30064 0.58554 0.0
C644 C 0.81852 0.29603 0.51588 0.0
C645 C 0.81895 0.2616 0.48531 0.0
C646 C 0.81196 0.25752 0.42066 0.0
C647 C 0.80413 0.28765 0.3848 0.0
C648 C 0.80432 0.32225 0.41485 0.0
C649 C 0.81141 0.32637 0.47937 0.0
C650 C 0.80004 0.33459 0.79522 0.0
C651 C 0.82442 0.25028 0.82175 0.0
C652 C 0.75266 0.26308 0.91253 0.0
C653 C 0.75974 0.26639 0.98201 0.0
C654 C 0.75912 0.30018 1.01467 0.0
C655 C 0.76591 0.30315 0.07978 0.0
C656 C 0.77341 0.27232 0.11438 0.0
C657 C 0.77391 0.2385 0.0817 0.0
C658 C 0.76709 0.23554 1.01677 0.0
C659 C 0.78462 0.20201 0.73293 0.0
O660 O 0.77694 0.2799 0.63907 0.0
O661 O 0.75003 0.26834 0.71509 0.0
O662 O 0.81411 0.32476 0.6191 0.0
O663 O 0.82921 0.27099 0.61957 0.0
O664 O 0.81821 0.32898 0.76591 0.0
O665 O 0.78571 0.31525 0.76741 0.0
O666 O 0.80558 0.25844 0.84823 0.0
O667 O 0.82815 0.25353 0.75869 0.0
O668 O 0.75812 0.23314 0.88222 0.0
O669 O 0.75452 0.29181 0.87484 0.0
O670 O 0.77052 0.20206 0.77935 0.0
O671 O 0.79129 0.23456 0.72483 0.0
H672 H 0.82458 0.23764 0.51134 0.0
H673 H 0.8129 0.23068 0.39865 0.0
H674 H 0.7985 0.34615 0.38901 0.0
H675 H 0.811 0.35336 0.50106 0.0
H676 H 0.75325 0.32435 0.99006 0.0
H677 H 0.76502 0.3296 0.10333 0.0
H678 H 0.78 0.21426 0.10579 0.0
H679 H 0.76775 0.20893 0.99372 0.0
Ho680 Ho 0.4156 0.98414 0.69861 0.0
Ho681 Ho 0.44909 1.00793 0.80508 0.0
C682 C 0.46594 0.99565 0.65939 0.0
C683 C 0.39772 0.96886 0.58821 0.0
C684 C 0.40469 0.97303 0.5193 0.0
C685 C 0.41565 1.00448 0.49788 0.0
C686 C 0.42293 1.00728 0.43335 0.0
C687 C 0.41969 0.97853 0.38893 0.0
C688 C 0.40885 0.94699 0.41054 0.0
C689 C 0.40143 0.94431 0.47499 0.0
C690 C 0.42105 0.93574 0.79914 0.0
C691 C 0.39778 0.02086 0.82279 0.0
C692 C 0.46853 1.00845 0.91689 0.0
C693 C 0.46155 1.00305 0.98576 0.0
C694 C 0.4534 0.96947 1.00814 0.0
C695 C 0.44684 0.96507 0.07305 0.0
C696 C 0.44829 0.9942 0.11759 0.0
C697 C 0.45599 0.0281 0.09477 0.0
C698 C 0.46258 0.03241 1.02982 0.0
C699 C 0.43764 0.06794 0.73511 0.0
O700 O 0.44586 0.98977 0.64358 0.0
O701 O 0.47237 1.00146 0.72051 0.0
O702 O 0.40858 0.94497 0.62251 0.0
O703 O 0.39361 0.99887 0.62101 0.0
O704 O 0.40314 0.94194 0.7688 0.0
O705 O 0.43585 0.95455 0.77209 0.0
O706 O 0.4162 0.01105 0.84993 0.0
O707 O 0.39422 0.01781 0.75964 0.0
O708 O 0.46118 0.03778 0.88833 0.0
O709 O 0.46863 0.98018 0.87771 0.0
O710 O 0.45169 0.06797 0.78157 0.0
O711 O 0.43104 0.0354 0.72738 0.0
H712 H 0.41876 0.02679 0.53113 0.0
H713 H 0.4314 0.03177 0.41837 0.0
H714 H 0.40591 0.92451 0.37739 0.0
H715 H 0.39323 0.91962 0.49039 0.0
H716 H 0.45185 0.94665 0.97548 0.0
H717 H 0.44029 0.93892 0.08799 0.0
H718 H 0.45733 0.0512 0.12751 0.0
H719 H 0.46868 0.05874 1.01411 0.0
Ho720 Ho 0.80935 0.98467 0.62614 0.0
Ho721 Ho 0.77382 1.00661 0.52085 0.0
C722 C 0.75921 0.99605 0.6696 0.0
C723 C 0.82772 0.97126 0.73687 0.0
C724 C 0.82047 0.97321 0.8065 0.0
C725 C 0.81825 1.00689 0.83907 0.0
C726 C 0.81079 1.00832 0.90371 0.0
C727 C 0.80573 0.9761 0.93817 0.0
C728 C 0.80812 0.94239 0.90591 0.0
C729 C 0.81537 0.94098 0.84106 0.0
C730 C 0.80206 0.93594 0.52798 0.0
C731 C 0.82526 0.01961 0.49648 0.0
C732 C 0.75388 1.0002 0.41064 0.0
C733 C 0.76122 0.99546 0.34155 0.0
C734 C 0.7657 0.96061 0.31571 0.0
C735 C 0.7726 0.95653 0.25084 0.0
C736 C 0.77531 0.98719 0.20975 0.0
C737 C 0.77035 0.02194 0.23531 0.0
C738 C 0.76343 0.026 0.30007 0.0
C739 C 0.78624 0.06712 0.58731 0.0
O740 O 0.77938 0.98905 0.68298 0.0
O741 O 0.7519 1.00166 0.60913 0.0
O742 O 0.81867 0.94596 0.70104 0.0
O743 O 0.83027 1.00215 0.70483 0.0
O744 O 0.82057 0.94153 0.55533 0.0
O745 O 0.78801 0.95517 0.55719 0.0
O746 O 0.80614 0.01116 0.47249 0.0
O747 O 0.82994 0.01669 0.55923 0.0
O748 O 0.75805 0.0317 0.43792 0.0
O749 O 0.75662 0.97277 0.45114 0.0
O750 O 0.77191 0.06729 0.54129 0.0
O751 O 0.7929 0.03454 0.59461 0.0
H752 H 0.82227 0.03224 0.81461 0.0
H753 H 0.80925 0.03472 0.92717 0.0
H754 H 0.80413 0.91706 0.93061 0.0
H755 H 0.81691 0.91452 0.81779 0.0
H756 H 0.76374 0.93636 0.34546 0.0
H757 H 0.77553 0.92919 0.23271 0.0
H758 H 0.77216 0.04624 0.20551 0.0
H759 H 0.7598 0.05323 0.31766 0.0
Ho760 Ho 0.41466 0.28563 0.62094 0.0
Ho761 Ho 0.44838 0.25977 0.51296 0.0
C762 C 0.46509 0.27547 0.6592 0.0
C763 C 0.39665 0.29906 0.7319 0.0
C764 C 0.40404 0.29594 0.80105 0.0
C765 C 0.40024 0.2639 0.83743 0.0
C766 C 0.40791 0.26041 0.90145 0.0
C767 C 0.41955 0.28889 0.93107 0.0
C768 C 0.42275 0.32138 0.89552 0.0
C769 C 0.41517 0.32484 0.83137 0.0
C770 C 0.42079 0.33145 0.51747 0.0
C771 C 0.39665 0.24709 0.49708 0.0
C772 C 0.46922 0.26268 0.40365 0.0
C773 C 0.46267 0.26634 0.33385 0.0
C774 C 0.46704 0.29858 0.2987 0.0
C775 C 0.46072 0.30219 0.2332 0.0
C776 C 0.45006 0.2735 0.20094 0.0
C777 C 0.44575 0.24126 0.23616 0.0
C778 C 0.452 0.23768 0.30149 0.0
C779 C 0.43658 0.20155 0.58647 0.0
O780 O 0.44534 0.28421 0.67481 0.0
O781 O 0.47116 0.2663 0.59896 0.0
O782 O 0.4059 0.32429 0.6961 0.0
O783 O 0.39366 0.26847 0.69968 0.0
O784 O 0.40297 0.32891 0.55007 0.0
O785 O 0.43502 0.3123 0.54589 0.0
O786 O 0.41532 0.25428 0.46833 0.0
O787 O 0.39325 0.25214 0.55997 0.0
O788 O 0.46406 0.23216 0.43302 0.0
O789 O 0.4666 0.29119 0.4415 0.0
O790 O 0.45003 0.1998 0.53819 0.0
O791 O 0.43035 0.23447 0.59227 0.0
H792 H 0.39143 0.24131 0.81628 0.0
H793 H 0.40457 0.2354 0.92798 0.0
H794 H 0.43149 0.34396 0.91694 0.0
H795 H 0.41823 0.35013 0.80538 0.0
H796 H 0.47535 0.32107 0.32192 0.0
H797 H 0.46442 0.32734 0.20754 0.0
H798 H 0.43721 0.21886 0.21352 0.0
H799 H 0.4483 0.21238 0.32664 0.0
Ho800 Ho 0.19945 0.75969 0.26355 0.0
Ho801 Ho 0.16663 0.73504 0.36937 0.0
C802 C 0.14805 0.77283 0.24792 0.0
C803 C 0.2184 0.76411 0.15114 0.0
C804 C 0.21165 0.75943 0.08196 0.0
C805 C 0.20324 0.72631 0.05863 0.0
C806 C 0.1972 0.72257 0.99315 0.0
C807 C 0.19907 0.75214 0.94947 0.0
C808 C 0.2069 0.78564 0.97314 0.0
C809 C 0.21328 0.78913 0.03845 0.0
C810 C 0.19042 0.81892 0.33768 0.0
C811 C 0.21684 0.74441 0.40809 0.0
C812 C 0.14905 0.71977 0.48031 0.0
C813 C 0.15612 0.72567 0.54875 0.0
C814 C 0.16496 0.75923 0.56901 0.0
C815 C 0.17244 0.76371 0.63305 0.0
C816 C 0.17161 0.7346 0.67799 0.0
C817 C 0.16287 0.70103 0.65755 0.0
C818 C 0.15517 0.69667 0.59374 0.0
C819 C 0.17195 0.68739 0.26754 0.0
O820 O 0.16635 0.76349 0.21959 0.0
O821 O 0.14525 0.77003 0.31126 0.0
O822 O 0.20983 0.79194 0.18094 0.0
O823 O 0.21971 0.73523 0.18899 0.0
O824 O 0.20429 0.81804 0.29087 0.0
O825 O 0.18257 0.78702 0.34483 0.0
O826 O 0.19682 0.73872 0.42431 0.0
O827 O 0.22309 0.75099 0.3469 0.0
O828 O 0.16042 0.69619 0.44702 0.0
O829 O 0.14402 0.74882 0.44586 0.0
O830 O 0.15405 0.69333 0.29813 0.0
O831 O 0.18666 0.70591 0.29507 0.0
H832 H 0.20122 0.70333 0.09087 0.0
H833 H 0.19079 0.69661 0.97683 0.0
H834 H 0.20858 0.8089 0.94072 0.0
H835 H 0.21964 0.81509 0.05493 0.0
H836 H 0.16628 0.78194 0.53524 0.0
H837 H 0.17921 0.7898 0.6472 0.0
H838 H 0.16178 0.67821 0.69119 0.0
H839 H 0.14859 0.67048 0.57931 0.0
Ho840 Ho 0.52413 0.01722 0.26932 0.0
Ho841 Ho 0.55955 0.03595 0.37443 0.0
C842 C 0.57531 0.99967 0.24679 0.0
C843 C 0.50463 0.0248 0.15848 0.0
C844 C 0.51217 0.02894 0.08951 0.0
C845 C 0.51785 0.06332 0.06367 0.0
C846 C 0.52509 0.06679 0.99904 0.0
C847 C 0.52667 0.03599 0.95812 0.0
C848 C 0.5205 1.00176 0.98348 0.0
C849 C 0.51342 0.99827 0.04819 0.0
C850 C 0.5338 0.95514 0.33603 0.0
C851 C 0.50913 0.02819 0.417 0.0
C852 C 0.57821 0.04959 0.4845 0.0
C853 C 0.57141 0.04718 0.55419 0.0
C854 C 0.56341 0.01456 0.58153 0.0
C855 C 0.55649 0.01343 0.64677 0.0
C856 C 0.55726 0.04488 0.68645 0.0
C857 C 0.56497 0.07757 0.65848 0.0
C858 C 0.57206 0.07861 0.59353 0.0
C859 C 0.55348 0.08555 0.27583 0.0
O860 O 0.55654 0.00967 0.22196 0.0
O861 O 0.5797 1.0022 0.30965 0.0
O862 O 0.50813 0.99311 0.18614 0.0
O863 O 0.50789 0.05206 0.19871 0.0
O864 O 0.51928 0.9576 0.29076 0.0
O865 O 0.54197 0.9867 0.34436 0.0
O866 O 0.52953 0.0316 0.43169 0.0
O867 O 0.50195 0.02484 0.35601 0.0
O868 O 0.56838 0.07446 0.44961 0.0
O869 O 0.58106 0.01898 0.45222 0.0
O870 O 0.57189 0.07798 0.30228 0.0
O871 O 0.53911 0.06752 0.30575 0.0
H872 H 0.5166 0.08765 0.09326 0.0
H873 H 0.52918 0.09374 0.98087 0.0
H874 H 0.52143 0.97747 0.95346 0.0
H875 H 0.50885 0.97142 0.06581 0.0
H876 H 0.56236 0.98992 0.55253 0.0
H877 H 0.55067 0.98773 0.66629 0.0
H878 H 0.56522 0.10264 0.68639 0.0
H879 H 0.57786 0.10427 0.57371 0.0
Ho880 Ho 0.19911 0.01209 0.55745 0.0
Ho881 Ho 0.16452 0.03585 0.45182 0.0
C882 C 0.14738 1.00071 0.57893 0.0
C883 C 0.21937 0.01338 0.66818 0.0
C884 C 0.21214 0.01786 0.73728 0.0
C885 C 0.21845 0.04842 0.77419 0.0
C886 C 0.21142 0.05284 0.83893 0.0
C887 C 0.19787 0.02677 0.8684 0.0
C888 C 0.192 0.99581 0.83188 0.0
C889 C 0.19894 0.99147 0.76735 0.0
C890 C 0.1861 0.95212 0.49037 0.0
C891 C 0.21363 0.01769 0.40785 0.0
C892 C 0.14705 0.05221 0.34111 0.0
C893 C 0.15403 0.04878 0.27147 0.0
C894 C 0.14669 0.01984 0.23228 0.0
C895 C 0.15339 0.01653 0.16711 0.0
C896 C 0.16751 0.04225 0.13898 0.0
C897 C 0.17475 0.07129 0.17812 0.0
C898 C 0.16808 0.07459 0.24321 0.0
C899 C 0.17182 0.08474 0.54998 0.0
O900 O 0.16641 1.00868 0.60449 0.0
O901 O 0.14316 1.00422 0.51611 0.0
O902 O 0.21354 0.98336 0.63876 0.0
O903 O 0.21789 0.04177 0.62958 0.0
O904 O 0.20109 0.95195 0.5342 0.0
O905 O 0.17957 0.98482 0.48404 0.0
O906 O 0.19353 0.02465 0.39445 0.0
O907 O 0.22124 0.01621 0.4688 0.0
O908 O 0.15767 0.0757 0.37685 0.0
O909 O 0.14253 0.022 0.37322 0.0
O910 O 0.15354 0.07923 0.52136 0.0
O911 O 0.18605 0.06507 0.52203 0.0
H912 H 0.22888 0.0689 0.75302 0.0
H913 H 0.21638 0.07691 0.86568 0.0
H914 H 0.18206 0.97469 0.85336 0.0
H915 H 0.19386 0.96732 0.74109 0.0
H916 H 0.13587 0.99949 0.25214 0.0
H917 H 0.14784 0.99329 0.1392 0.0
H918 H 0.18541 0.09186 0.15815 0.0
H919 H 0.174 0.09751 0.27132 0.0
Ho920 Ho 0.52675 0.75908 0.54998 0.0
Ho921 Ho 0.56009 0.73497 0.44339 0.0
C922 C 0.57901 0.76604 0.57108 0.0
C923 C 0.50541 0.75819 0.65895 0.0
C924 C 0.51145 0.75544 0.72919 0.0
C925 C 0.5074 0.72314 0.76443 0.0
C926 C 0.51339 0.71997 0.83013 0.0
C927 C 0.52329 0.74929 0.86273 0.0
C928 C 0.52694 0.78189 0.82784 0.0
C929 C 0.52114 0.78493 0.762 0.0
C930 C 0.54004 0.81964 0.48372 0.0
C931 C 0.51173 0.75527 0.40158 0.0
C932 C 0.57555 0.71638 0.33135 0.0
C933 C 0.56843 0.72216 0.26255 0.0
C934 C 0.57116 0.75589 0.23034 0.0
C935 C 0.56363 0.76092 0.16636 0.0
C936 C 0.55308 0.73245 0.13301 0.0
C937 C 0.55058 0.69866 0.16509 0.0
C938 C 0.55819 0.69357 0.22875 0.0
C939 C 0.55113 0.68399 0.53781 0.0
O940 O 0.55974 0.75975 0.59679 0.0
O941 O 0.58302 0.76279 0.50805 0.0
O942 O 0.51068 0.78813 0.62816 0.0
O943 O 0.50857 0.72931 0.623 0.0
O944 O 0.52532 0.81964 0.52829 0.0
O945 O 0.54617 0.78679 0.47622 0.0
O946 O 0.53219 0.75447 0.38771 0.0
O947 O 0.50441 0.75241 0.46258 0.0
O948 O 0.56311 0.69525 0.36647 0.0
O949 O 0.58267 0.7447 0.36437 0.0
O950 O 0.56967 0.6894 0.51075 0.0
O951 O 0.53758 0.70557 0.51127 0.0
H952 H 0.49954 0.70028 0.74123 0.0
H953 H 0.51007 0.69463 0.85568 0.0
H954 H 0.53478 0.80487 0.85098 0.0
H955 H 0.52442 0.81038 0.73681 0.0
H956 H 0.57908 0.77847 0.2545 0.0
H957 H 0.56635 0.78703 0.14271 0.0
H958 H 0.54249 0.67615 0.14119 0.0
H959 H 0.55585 0.66718 0.25182 0.0
Ho960 Ho 0.80563 0.78863 0.19993 0.0
Ho961 Ho 0.77359 0.76226 0.30909 0.0
C962 C 0.75557 0.77492 0.16405 0.0
C963 C 0.82437 0.80214 0.0892 0.0
C964 C 0.81793 0.79994 1.01961 0.0
C965 C 0.79862 0.78309 1.0013 0.0
C966 C 0.79237 0.78172 0.93572 0.0
C967 C 0.80529 0.79714 0.8867 0.0
C968 C 0.82466 0.81411 0.90501 0.0
C969 C 0.83088 0.81553 0.97085 0.0
C970 C 0.80046 0.83645 0.30108 0.0
C971 C 0.82499 0.75301 0.32536 0.0
C972 C 0.75329 0.76152 0.41949 0.0
C973 C 0.76016 0.76847 0.48825 0.0
C974 C 0.75692 0.80256 0.51857 0.0
C975 C 0.76433 0.80889 0.58241 0.0
C976 C 0.77513 0.78124 0.61739 0.0
C977 C 0.77756 0.74681 0.58794 0.0
C978 C 0.77021 0.74052 0.52452 0.0
C979 C 0.78566 0.70328 0.23715 0.0
O980 O 0.77443 0.78834 0.149 0.0
O981 O 0.7503 0.76416 0.22404 0.0
O982 O 0.81451 0.827 0.12389 0.0
O983 O 0.82627 0.77107 0.1207 0.0
O984 O 0.81801 0.83154 0.26813 0.0
O985 O 0.78568 0.81671 0.27595 0.0
O986 O 0.80645 0.76055 0.35397 0.0
O987 O 0.82791 0.7568 0.26198 0.0
O988 O 0.76151 0.73252 0.39217 0.0
O989 O 0.75237 0.7892 0.37881 0.0
O990 O 0.77261 0.70191 0.28625 0.0
O991 O 0.79149 0.73632 0.22952 0.0
H992 H 0.78839 0.77076 0.03761 0.0
H993 H 0.77755 0.76805 0.92309 0.0
H994 H 0.83487 0.82662 0.86851 0.0
H995 H 0.84578 0.82893 0.9837 0.0
H996 H 0.74874 0.8244 0.49291 0.0
H997 H 0.76193 0.83559 0.60402 0.0
H998 H 0.78508 0.72449 0.6142 0.0
H999 H 0.77255 0.71356 0.50389 0.0
Ho1000 Ho 0.41652 0.48035 0.19183 0.0
Ho1001 Ho 0.45075 0.50092 0.29811 0.0
C1002 C 0.46662 0.48784 0.15046 0.0
C1003 C 0.3985 0.46727 0.08071 0.0
C1004 C 0.40605 0.46948 1.01157 0.0
C1005 C 0.40417 0.50214 0.97553 0.0
C1006 C 0.4114 0.50412 0.91081 0.0
C1007 C 0.42056 0.47345 0.88007 0.0
C1008 C 0.42261 0.44087 0.91617 0.0
C1009 C 0.41535 0.43884 0.98087 0.0
C1010 C 0.4229 0.43072 0.29031 0.0
C1011 C 0.39898 0.51723 0.31673 0.0
C1012 C 0.47106 0.49183 0.40749 0.0
C1013 C 0.46446 0.48934 0.47731 0.0
C1014 C 0.46705 0.45643 0.5122 0.0
C1015 C 0.46045 0.4536 0.57756 0.0
C1016 C 0.45092 0.48356 0.60945 0.0
C1017 C 0.44895 0.51677 0.57508 0.0
C1018 C 0.45557 0.51962 0.50996 0.0
C1019 C 0.44207 0.56262 0.23079 0.0
O1020 O 0.44649 0.48247 0.13528 0.0
O1021 O 0.47332 0.49371 0.21141 0.0
O1022 O 0.40731 0.44186 0.11699 0.0
O1023 O 0.39591 0.49812 0.11247 0.0
O1024 O 0.40478 0.43594 0.26076 0.0
O1025 O 0.43701 0.45001 0.26189 0.0
O1026 O 0.41805 0.51079 0.34332 0.0
O1027 O 0.39477 0.51206 0.25456 0.0
O1028 O 0.46884 0.52352 0.37862 0.0
O1029 O 0.46557 0.4647 0.36948 0.0
O1030 O 0.45561 0.56002 0.27867 0.0
O1031 O 0.43352 0.53126 0.22064 0.0
H1032 H 0.39716 0.52632 0.99733 0.0
H1033 H 0.40996 0.52986 0.88491 0.0
H1034 H 0.42953 0.41671 0.89398 0.0
H1035 H 0.41701 0.41314 1.00679 0.0
H1036 H 0.47401 0.43272 0.48869 0.0
H1037 H 0.46228 0.42767 0.6026 0.0
H1038 H 0.44226 0.54068 0.59863 0.0
H1039 H 0.45358 0.5456 0.48522 0.0
Ho1040 Ho 0.80668 0.48369 0.12187 0.0
Ho1041 Ho 0.77484 0.51087 1.01485 0.0
C1042 C 0.75676 0.49828 0.15946 0.0
C1043 C 0.82413 0.46697 0.23229 0.0
C1044 C 0.8175 0.47208 0.30139 0.0
C1045 C 0.81258 0.50691 0.32653 0.0
C1046 C 0.80567 0.51092 0.39121 0.0
C1047 C 0.80325 0.48023 0.43205 0.0
C1048 C 0.80814 0.44543 0.40688 0.0
C1049 C 0.81522 0.44143 0.34237 0.0
C1050 C 0.80009 0.43614 1.02094 0.0
C1051 C 0.82666 0.51842 0.99829 0.0
C1052 C 0.75513 0.5124 0.90359 0.0
C1053 C 0.76205 0.50732 0.83461 0.0
C1054 C 0.76482 0.47226 0.80795 0.0
C1055 C 0.77156 0.4678 0.74333 0.0
C1056 C 0.77538 0.49836 0.7031 0.0
C1057 C 0.77268 0.53348 0.72971 0.0
C1058 C 0.76613 0.53789 0.79461 0.0
C1059 C 0.78661 0.56974 0.08668 0.0
O1060 O 0.77647 0.49033 0.17641 0.0
O1061 O 0.75098 0.50565 0.09826 0.0
O1062 O 0.81247 0.44406 0.19851 0.0
O1063 O 0.82933 0.49629 0.19875 0.0
O1064 O 0.81806 0.44066 0.05175 0.0
O1065 O 0.78585 0.45615 0.04775 0.0
O1066 O 0.80791 0.51188 0.97012 0.0
O1067 O 0.82949 0.51501 0.06164 0.0
O1068 O 0.76244 0.54152 0.93273 0.0
O1069 O 0.7552 0.48382 0.94216 0.0
O1070 O 0.7732 0.57071 0.03855 0.0
O1071 O 0.79283 0.53688 0.09475 0.0
H1072 H 0.81391 0.53109 0.29618 0.0
H1073 H 0.80189 0.53804 0.40907 0.0
H1074 H 0.80669 0.42128 0.43729 0.0
H1075 H 0.81879 0.41426 0.32432 0.0
H1076 H 0.76195 0.44819 0.83703 0.0
H1077 H 0.77397 0.44032 0.7251 0.0
H1078 H 0.77532 0.55761 0.70003 0.0
H1079 H 0.76403 0.56536 0.8133 0.0
Ho1080 Ho 0.41392 0.78139 0.11946 0.0
Ho1081 Ho 0.4484 0.76025 1.01327 0.0
C1082 C 0.46384 0.77083 0.16067 0.0
C1083 C 0.39626 0.79518 0.23093 0.0
C1084 C 0.40395 0.7923 0.29995 0.0
C1085 C 0.39773 0.76277 0.33982 0.0
C1086 C 0.40524 0.75971 0.40421 0.0
C1087 C 0.41918 0.78614 0.43065 0.0
C1088 C 0.42511 0.816 0.3912 0.0
C1089 C 0.41764 0.81904 0.32685 0.0
C1090 C 0.42 0.83111 1.02118 0.0
C1091 C 0.39703 0.74467 0.99394 0.0
C1092 C 0.46916 0.76428 0.90367 0.0
C1093 C 0.46251 0.7678 0.83411 0.0
C1094 C 0.46739 0.79952 0.79808 0.0
C1095 C 0.46122 0.80279 0.73239 0.0
C1096 C 0.4501 0.77427 0.70097 0.0
C1097 C 0.44514 0.74273 0.73747 0.0
C1098 C 0.45134 0.73944 0.80277 0.0
C1099 C 0.43826 0.69915 0.08235 0.0
O1100 O 0.44366 0.77558 0.17559 0.0
O1101 O 0.47093 0.76825 0.09948 0.0
O1102 O 0.40543 0.82018 0.19453 0.0
O1103 O 0.393 0.76457 0.19901 0.0
O1104 O 0.40177 0.82415 0.04932 0.0
O1105 O 0.43456 0.81224 0.04909 0.0
O1106 O 0.41566 0.7539 0.96692 0.0
O1107 O 0.39323 0.74779 0.05697 0.0
O1108 O 0.46461 0.73351 0.93303 0.0
O1109 O 0.46577 0.79237 0.94142 0.0
O1110 O 0.45271 0.70059 0.03692 0.0
O1111 O 0.43049 0.7311 0.08936 0.0
H1112 H 0.38704 0.7419 0.32119 0.0
H1113 H 0.39997 0.73675 0.43356 0.0
H1114 H 0.43581 0.83685 0.40983 0.0
H1115 H 0.42273 0.84237 0.29813 0.0
H1116 H 0.4762 0.82167 0.82053 0.0
H1117 H 0.46548 0.8274 0.70592 0.0
H1118 H 0.43614 0.72056 0.71591 0.0
H1119 H 0.44723 0.71456 0.82867 0.0
Ho1120 Ho 0.199 0.25904 0.76974 0.0
Ho1121 Ho 0.16521 0.23329 0.87649 0.0
C1122 C 0.14735 0.27017 0.75129 0.0
C1123 C 0.21874 0.25937 0.65831 0.0
C1124 C 0.2117 0.25437 0.58917 0.0
C1125 C 0.20993 0.21942 0.56108 0.0
C1126 C 0.20288 0.21509 0.49654 0.0
C1127 C 0.19742 0.24567 0.45814 0.0
C1128 C 0.19976 0.2807 0.48564 0.0
C1129 C 0.20673 0.28497 0.55016 0.0
C1130 C 0.18662 0.31736 0.84263 0.0
C1131 C 0.21546 0.24634 0.91572 0.0
C1132 C 0.14769 0.21712 0.98709 0.0
C1133 C 0.15442 0.22171 0.05633 0.0
C1134 C 0.1597 0.25626 0.08197 0.0
C1135 C 0.16644 0.25981 0.14692 0.0
C1136 C 0.16828 0.22894 0.18767 0.0
C1137 C 0.16333 0.19436 0.16182 0.0
C1138 C 0.15637 0.19083 0.09704 0.0
C1139 C 0.1718 0.18605 0.77539 0.0
O1140 O 0.16614 0.26219 0.72437 0.0
O1141 O 0.14361 0.26617 0.8143 0.0
O1142 O 0.21187 0.28888 0.68738 0.0
O1143 O 0.2184 0.23091 0.69724 0.0
O1144 O 0.20074 0.31905 0.79631 0.0
O1145 O 0.18047 0.28448 0.84775 0.0
O1146 O 0.19536 0.24036 0.93129 0.0
O1147 O 0.22208 0.25227 0.85472 0.0
O1148 O 0.159 0.19378 0.95299 0.0
O1149 O 0.14282 0.24674 0.95375 0.0
O1150 O 0.15375 0.19068 0.80588 0.0
O1151 O 0.18612 0.20546 0.80313 0.0
H1152 H 0.2139 0.19535 0.58896 0.0
H1153 H 0.20138 0.1877 0.47703 0.0
H1154 H 0.19642 0.30496 0.45699 0.0
H1155 H 0.20833 0.3124 0.56941 0.0
H1156 H 0.15873 0.28058 0.05184 0.0
H1157 H 0.17045 0.28674 0.1652 0.0
H1158 H 0.16465 0.17008 0.19197 0.0
H1159 H 0.15262 0.16384 0.07855 0.0
Ho1160 Ho 0.52245 0.50865 0.75555 0.0
Ho1161 Ho 0.55605 0.53295 0.86154 0.0
C1162 C 0.57432 0.49811 0.73627 0.0
C1163 C 0.5027 0.51094 0.6442 0.0
C1164 C 0.50973 0.51718 0.57527 0.0
C1165 C 0.50879 0.55213 0.54646 0.0
C1166 C 0.51554 0.55774 0.48181 0.0
C1167 C 0.52309 0.52837 0.44392 0.0
C1168 C 0.52365 0.49332 0.4722 0.0
C1169 C 0.51716 0.48783 0.53695 0.0
C1170 C 0.53442 0.44851 0.82421 0.0
C1171 C 0.50623 0.5192 0.90276 0.0
C1172 C 0.57372 0.5501 0.97142 0.0
C1173 C 0.56692 0.54736 0.04105 0.0
C1174 C 0.56304 0.51338 0.0712 0.0
C1175 C 0.55607 0.51156 0.13622 0.0
C1176 C 0.55269 0.54361 0.17296 0.0
C1177 C 0.55643 0.57759 0.14244 0.0
C1178 C 0.56356 0.57939 0.07759 0.0
C1179 C 0.54935 0.58098 0.76112 0.0
O1180 O 0.55541 0.50586 0.70971 0.0
O1181 O 0.57791 0.50104 0.7994 0.0
O1182 O 0.50936 0.48077 0.67172 0.0
O1183 O 0.5032 0.53862 0.68461 0.0
O1184 O 0.52031 0.44853 0.77774 0.0
O1185 O 0.54097 0.48114 0.83253 0.0
O1186 O 0.52631 0.52546 0.91776 0.0
O1187 O 0.4995 0.51377 0.84173 0.0
O1188 O 0.56286 0.57334 0.93565 0.0
O1189 O 0.57806 0.51965 0.9401 0.0
O1190 O 0.56755 0.5755 0.79023 0.0
O1191 O 0.53509 0.56176 0.78953 0.0
H1192 H 0.50275 0.57515 0.57374 0.0
H1193 H 0.51457 0.58498 0.46113 0.0
H1194 H 0.52931 0.47011 0.44431 0.0
H1195 H 0.51786 0.46037 0.5568 0.0
H1196 H 0.56529 0.48811 0.04459 0.0
H1197 H 0.55349 0.48489 0.15791 0.0
H1198 H 0.55337 0.60293 0.16806 0.0
H1199 H 0.56615 0.60601 0.05561 0.0
Ho1200 Ho 0.19998 0.51669 0.04496 0.0
Ho1201 Ho 0.16617 0.539 0.94002 0.0
C1202 C 0.14843 0.50339 0.06507 0.0
C1203 C 0.21919 0.51987 0.15715 0.0
C1204 C 0.21168 0.5258 0.22571 0.0
C1205 C 0.21364 0.56017 0.2559 0.0
C1206 C 0.20657 0.56565 0.32023 0.0
C1207 C 0.19789 0.53657 0.35661 0.0
C1208 C 0.19631 0.50203 0.32718 0.0
C1209 C 0.20291 0.49677 0.26246 0.0
C1210 C 0.18925 0.455 0.97956 0.0
C1211 C 0.21613 0.52736 0.89818 0.0
C1212 C 0.14842 0.5572 0.8304 0.0
C1213 C 0.15491 0.55474 0.76052 0.0
C1214 C 0.16184 0.52165 0.73302 0.0
C1215 C 0.1683 0.51984 0.66761 0.0
C1216 C 0.1685 0.55135 0.62782 0.0
C1217 C 0.162 0.58474 0.65603 0.0
C1218 C 0.15511 0.58631 0.72124 0.0
C1219 C 0.17195 0.58753 0.03991 0.0
O1220 O 0.16722 0.51226 0.09098 0.0
O1221 O 0.14463 0.50618 1.002 0.0
O1222 O 0.21334 0.48939 0.1294 0.0
O1223 O 0.21837 0.54747 0.11653 0.0
O1224 O 0.20362 0.45704 1.02502 0.0
O1225 O 0.18176 0.487 0.96875 0.0
O1226 O 0.19588 0.53164 0.88308 0.0
O1227 O 0.22295 0.52322 0.95942 0.0
O1228 O 0.15966 0.57984 0.86596 0.0
O1229 O 0.14398 0.52665 0.86151 0.0
O1230 O 0.15379 0.58062 1.01173 0.0
O1231 O 0.18654 0.56925 1.01116 0.0
H1232 H 0.22078 0.5828 0.22996 0.0
H1233 H 0.2082 0.5925 0.34194 0.0
H1234 H 0.18977 0.47909 0.35416 0.0
H1235 H 0.20135 0.46972 0.24157 0.0
H1236 H 0.16246 0.49715 0.76223 0.0
H1237 H 0.17311 0.49355 0.64827 0.0
H1238 H 0.16274 0.60997 0.62847 0.0
H1239 H 0.15029 0.61243 0.74138 0.0
Ho1240 Ho 0.52449 0.25654 0.04917 0.0
Ho1241 Ho 0.55614 0.22915 0.94025 0.0
C1242 C 0.57603 0.26417 0.06387 0.0
C1243 C 0.50393 0.25876 0.15907 0.0
C1244 C 0.50998 0.2524 0.22866 0.0
C1245 C 0.50691 0.21823 0.25903 0.0
C1246 C 0.51327 0.21255 0.32402 0.0
C1247 C 0.52236 0.24117 0.36059 0.0
C1248 C 0.5247 0.2756 0.33105 0.0
C1249 C 0.51872 0.28111 0.26599 0.0
C1250 C 0.53616 0.31477 0.97453 0.0
C1251 C 0.50609 0.24236 0.90425 0.0
C1252 C 0.5742 0.21468 0.8297 0.0
C1253 C 0.56729 0.21796 0.76025 0.0
C1254 C 0.56792 0.25173 0.72714 0.0
C1255 C 0.56058 0.25472 0.66269 0.0
C1256 C 0.55276 0.22393 0.62926 0.0
C1257 C 0.55243 0.19005 0.66192 0.0
C1258 C 0.55961 0.18711 0.72653 0.0
C1259 C 0.55137 0.18238 0.04376 0.0
O1260 O 0.55752 0.25779 0.09355 0.0
O1261 O 0.57849 0.26139 1.00025 0.0
O1262 O 0.51263 0.28726 0.13127 0.0
O1263 O 0.50316 0.23065 0.11961 0.0
O1264 O 0.5233 0.31662 1.02398 0.0
O1265 O 0.54204 0.28172 0.968 0.0
O1266 O 0.52528 0.231 0.88792 0.0
O1267 O 0.50086 0.25242 0.96471 0.0
O1268 O 0.56417 0.19012 0.86493 0.0
O1269 O 0.57761 0.24509 0.86198 0.0
O1270 O 0.56873 0.18671 1.00964 0.0
O1271 O 0.53653 0.20182 1.01807 0.0
H1272 H 0.49958 0.19588 0.23265 0.0
H1273 H 0.51088 0.18587 0.34595 0.0
H1274 H 0.53155 0.29821 0.35802 0.0
H1275 H 0.52095 0.30805 0.245 0.0
H1276 H 0.57396 0.276 0.75111 0.0
H1277 H 0.5612 0.28113 0.63869 0.0
H1278 H 0.5463 0.16588 0.63782 0.0
H1279 H 0.55896 0.16066 0.75037 0.0
C1280 C 0.24024 0.28391 0.98401 0.0
C1281 C 0.2292 0.25097 0.97398 0.0
C1282 C 0.24754 0.29365 0.04659 0.0
C1283 C 0.24377 0.27119 0.10177 0.0
H1284 H 0.24251 0.3029 0.94396 0.0
H1285 H 0.2567 0.31868 0.05173 0.0
S1286 S 0.21678 0.18103 0.10032 0.0
N1287 N 0.21561 0.19515 1.02387 0.0
N1288 N 0.22929 0.21367 0.14082 0.0
C1289 C 0.23291 0.23814 0.09209 0.0
C1290 C 0.22578 0.22795 1.02846 0.0
C1291 C 0.98194 0.98576 0.97639 0.0
C1292 C -0.00707 0.01907 0.97058 0.0
C1293 C 0.97415 0.97377 0.03717 0.0
C1294 C 0.97725 0.99433 0.09483 0.0
H1295 H 0.98012 0.96812 0.93439 0.0
H1296 H 0.96524 0.94833 0.03891 0.0
S1297 S 0.00394 0.08453 0.10513 0.0
N1298 N 0.00583 0.07322 1.02739 0.0
N1299 N -0.00881 0.05044 0.14104 0.0
C1300 C -0.01192 0.02775 0.08951 0.0
C1301 C -0.00424 0.04022 1.02763 0.0
C1302 C 0.24708 0.02232 0.33963 0.0
C1303 C 0.22632 1.00897 0.34843 0.0
C1304 C 0.25729 0.01904 0.27891 0.0
C1305 C 0.24729 1.00207 0.22437 0.0
H1306 H 0.25518 0.03644 0.37893 0.0
H1307 H 0.27331 0.0303 0.27468 0.0
S1308 S 0.19369 0.95935 0.22408 0.0
N1309 N 0.19638 0.97609 0.29833 0.0
N1310 N 0.21602 0.96998 0.18514 0.0
C1311 C 0.22673 0.98807 0.23287 0.0
C1312 C 0.21624 0.99133 0.29463 0.0
C1313 C 0.98102 0.2287 0.32955 0.0
C1314 C -0.00321 0.25425 0.34628 0.0
C1315 C 0.97225 0.22822 0.26629 0.0
C1316 C 0.97899 0.25301 0.21708 0.0
H1317 H 0.97593 0.20829 0.36467 0.0
H1318 H 0.95969 0.2086 0.25602 0.0
S1319 S 0.01905 0.32658 0.23749 0.0
N1320 N 0.01855 0.3055 0.30878 0.0
N1321 N 0.0016 0.3048 0.19109 0.0
C1322 C -0.00537 0.27872 0.23337 0.0
C1323 C 0.00353 0.27933 0.29761 0.0
C1324 C 0.73733 0.77954 0.98925 0.0
C1325 C 0.73103 0.74347 0.97605 0.0
C1326 C 0.74303 0.79048 0.0525 0.0
C1327 C 0.74268 0.76583 0.10563 0.0
H1328 H 0.73704 0.79985 0.95086 0.0
H1329 H 0.74847 0.81835 0.05958 0.0
S1330 S 0.72806 0.66767 0.09656 0.0
N1331 N 0.72467 0.68295 1.02134 0.0
N1332 N 0.73639 0.70308 0.13961 0.0
C1333 C 0.73651 0.72957 0.09305 0.0
C1334 C 0.73055 0.71851 1.02858 0.0
C1335 C 0.75143 0.98287 0.78653 0.0
C1336 C 0.7464 1.00302 0.72936 0.0
C1337 C 0.7442 0.99369 0.84853 0.0
C1338 C 0.73128 0.02472 0.85599 0.0
H1339 H 0.76152 0.95877 0.78347 0.0
H1340 H 0.74808 0.97694 0.89037 0.0
S1341 S 0.71667 0.09069 0.72518 0.0
N1342 N 0.73015 0.05836 0.68661 0.0
N1343 N 0.71585 0.07802 0.80246 0.0
C1344 C 0.72704 0.04612 0.79992 0.0
C1345 C 0.73452 0.03527 0.73687 0.0
C1346 C -0.00931 0.73785 0.73124 0.0
C1347 C 0.97834 0.76962 0.72317 0.0
C1348 C -0.00121 0.72801 0.7929 0.0
C1349 C -0.00525 0.74932 0.84921 0.0
H1350 H -0.0066 0.71972 0.69033 0.0
H1351 H 0.00871 0.70372 0.79638 0.0
S1352 S 0.96451 0.8363 0.85328 0.0
N1353 N 0.96312 0.82317 0.77638 0.0
N1354 N 0.97851 0.80454 0.89156 0.0
C1355 C 0.98259 0.78121 0.84159 0.0
C1356 C 0.97448 0.79145 0.77886 0.0
C1357 C 0.22709 0.72602 0.52048 0.0
C1358 C 0.23068 0.74923 0.46613 0.0
C1359 C 0.23385 0.73543 0.58372 0.0
C1360 C 0.24437 0.76865 0.59545 0.0
H1361 H 0.21831 0.70067 0.51426 0.0
H1362 H 0.23159 0.71593 0.62302 0.0
S1363 S 0.25715 0.83978 0.47123 0.0
N1364 N 0.24494 0.80736 0.42931 0.0
N1365 N 0.25799 0.82506 0.54743 0.0
C1366 C 0.24796 0.7922 0.54161 0.0
C1367 C 0.24119 0.78245 0.47727 0.0
C1368 C -0.0086 0.53381 0.58902 0.0
C1369 C 0.97996 0.50107 0.59708 0.0
C1370 C -0.00117 0.54468 0.52702 0.0
C1371 C -0.00524 0.52375 0.47033 0.0
H1372 H -0.00594 0.55165 0.63034 0.0
H1373 H 0.00847 0.56928 0.52358 0.0
S1374 S 0.96641 0.4348 0.46628 0.0
N1375 N 0.96555 0.4471 0.54362 0.0
N1376 N 0.97922 0.46796 0.42769 0.0
C1377 C 0.98331 0.49106 0.47796 0.0
C1378 C 0.97611 0.47961 0.54104 0.0
C1379 C 0.24899 0.4784 0.77098 0.0
C1380 C 0.24522 0.49941 0.71391 0.0
C1381 C 0.24149 0.48943 0.83262 0.0
C1382 C 0.22985 0.52199 0.83989 0.0
H1383 H 0.25819 0.45331 0.7681 0.0
H1384 H 0.24398 0.47155 0.87415 0.0
S1385 S 0.21616 0.58755 0.70729 0.0
N1386 N 0.22966 0.55493 0.66992 0.0
N1387 N 0.21502 0.57538 0.78485 0.0
C1388 C 0.22605 0.54332 0.78337 0.0
C1389 C 0.2337 0.53205 0.72073 0.0
C1390 C 0.73404 0.23451 0.58303 0.0
C1391 C 0.74334 0.26877 0.59529 0.0
C1392 C 0.7271 0.22498 0.51993 0.0
C1393 C 0.72962 0.24895 0.46618 0.0
H1394 H 0.7327 0.21452 0.62192 0.0
H1395 H 0.71913 0.19893 0.51338 0.0
S1396 S 0.75326 0.34154 0.47204 0.0
N1397 N 0.75492 0.32659 0.54797 0.0
N1398 N 0.74194 0.30836 0.43003 0.0
C1399 C 0.73918 0.28292 0.47768 0.0
C1400 C 0.74591 0.29292 0.5419 0.0
C1401 C 0.72841 0.54907 0.29318 0.0
C1402 C 0.72943 0.52405 0.34585 0.0
C1403 C 0.73507 0.53939 0.22992 0.0
C1404 C 0.74271 0.50407 0.21652 0.0
H1405 H 0.72194 0.57626 0.30079 0.0
H1406 H 0.73512 0.56014 0.19208 0.0
S1407 S 0.74682 0.42733 0.33494 0.0
N1408 N 0.73729 0.46167 0.37847 0.0
N1409 N 0.75022 0.44358 0.26042 0.0
C1410 C 0.74336 0.47861 0.26832 0.0
C1411 C 0.73673 0.48855 0.33265 0.0
C1412 C 0.49154 0.03316 0.59332 0.0
C1413 C 0.47987 1.00067 0.60148 0.0
C1414 C 0.49937 0.04348 0.53154 0.0
C1415 C 0.49553 0.02212 0.47524 0.0
H1416 H 0.49394 0.05139 0.63427 0.0
H1417 H 0.5089 0.06819 0.52788 0.0
S1418 S 0.46732 0.93306 0.4718 0.0
N1419 N 0.46582 0.94615 0.54867 0.0
N1420 N 0.4805 0.96577 0.43318 0.0
C1421 C 0.48414 0.98939 0.48304 0.0
C1422 C 0.47644 0.9786 0.5459 0.0
C1423 C 0.48638 0.23435 0.73098 0.0
C1424 C 0.47876 0.26968 0.71734 0.0
C1425 C 0.49312 0.22462 0.79414 0.0
C1426 C 0.49236 0.24963 0.84662 0.0
H1427 H 0.48629 0.2136 0.69331 0.0
H1428 H 0.49954 0.19738 0.80174 0.0
S1429 S 0.47496 0.34639 0.83536 0.0
N1430 N 0.47134 0.33015 0.76104 0.0
N1431 N 0.48441 0.31196 0.87913 0.0
C1432 C 0.48486 0.28508 0.83348 0.0
C1433 C 0.47809 0.29506 0.76912 0.0
C1434 C 0.49616 0.78376 0.22986 0.0
C1435 C 0.47726 0.7643 0.21899 0.0
C1436 C 0.50644 0.78189 0.29063 0.0
C1437 C 0.49808 0.76094 0.34328 0.0
H1438 H 0.50262 0.80139 0.19227 0.0
H1439 H 0.52133 0.79684 0.29614 0.0
S1440 S 0.44994 0.70221 0.33679 0.0
N1441 N 0.45089 0.72209 0.2646 0.0
N1442 N 0.47077 0.71809 0.37764 0.0
C1443 C 0.4794 0.74096 0.33248 0.0
C1444 C 0.4689 0.74279 0.27073 0.0
C1445 C 0.48335 0.47981 0.97414 0.0
C1446 C 0.49282 0.51394 0.9617 0.0
C1447 C 0.47694 0.46995 0.0377 0.0
C1448 C 0.48011 0.49343 0.09175 0.0
H1449 H 0.48164 0.46007 0.93516 0.0
H1450 H 0.46885 0.44398 0.04449 0.0
S1451 S 0.5037 0.58621 0.08442 0.0
N1452 N 0.50471 0.57153 1.00843 0.0
N1453 N 0.49277 0.55276 0.12728 0.0
C1454 C 0.4896 0.52749 0.07979 0.0
C1455 C 0.49579 0.53781 1.01509 0.0
C1456 C 0.35721 0.24333 0.48111 0.0
C1457 C 0.37801 0.23778 0.45633 0.0
C1458 C 0.33932 0.24168 0.44045 0.0
C1459 C 0.34158 0.23435 0.37356 0.0
H1460 H 0.35471 0.25126 0.53141 0.0
H1461 H 0.32384 0.24855 0.46111 0.0
S1462 S 0.39203 0.20881 0.28843 0.0
N1463 N 0.39952 0.21829 0.36369 0.0
N1464 N 0.36579 0.21476 0.28693 0.0
C1465 C 0.36203 0.22486 0.34968 0.0
C1466 C 0.3803 0.22676 0.39116 0.0
C1467 C 0.86415 0.0246 0.47188 0.0
C1468 C 0.84284 0.02603 0.4498 0.0
C1469 C 0.88111 0.02171 0.42795 0.0
C1470 C 0.87743 0.02013 0.36031 0.0
H1471 H 0.86779 0.02344 0.52346 0.0
H1472 H 0.89714 0.01884 0.44778 0.0
S1473 S 0.82492 0.03059 0.2771 0.0
N1474 N 0.81916 0.03167 0.35559 0.0
N1475 N 0.85119 0.02588 0.27293 0.0
C1476 C 0.8564 0.02518 0.33728 0.0
C1477 C 0.83906 0.02825 0.38214 0.0
C1478 C 0.35864 0.02652 0.84217 0.0
C1479 C 0.37969 0.02958 0.86588 0.0
C1480 C 0.34124 0.02644 0.8848 0.0
C1481 C 0.34431 0.0294 0.95256 0.0
H1482 H 0.35557 0.02172 0.79089 0.0
H1483 H 0.32544 0.02173 0.86449 0.0
S1484 S 0.39597 0.04728 0.03708 0.0
N1485 N 0.40246 0.04251 0.95957 0.0
N1486 N 0.36967 0.04232 0.04011 0.0
C1487 C 0.36509 0.03657 0.97609 0.0
C1488 C 0.38283 0.03663 0.93258 0.0
C1489 C 0.86372 0.24596 0.8406 0.0
C1490 C 0.84274 0.24256 0.86505 0.0
C1491 C 0.88138 0.24515 0.88225 0.0
C1492 C 0.87876 0.24085 0.94994 0.0
H1493 H 0.86659 0.25119 0.78933 0.0
H1494 H 0.8971 0.2497 0.86119 0.0
S1495 S 0.82747 0.22331 0.03667 0.0
N1496 N 0.82048 0.22933 0.95979 0.0
N1497 N 0.8538 0.22766 0.03838 0.0
C1498 C 0.85801 0.23426 0.97439 0.0
C1499 C 0.83997 0.23519 0.93184 0.0
C1500 C 0.61831 0.76786 0.59258 0.0
C1501 C 0.59724 0.77275 0.61539 0.0
C1502 C 0.63573 0.76872 0.63528 0.0
C1503 C 0.63276 0.77449 0.70253 0.0
H1504 H 0.62141 0.7615 0.54186 0.0
H1505 H 0.65149 0.76288 0.61558 0.0
S1506 S 0.58118 0.7958 0.78475 0.0
N1507 N 0.57461 0.78867 0.70789 0.0
N1508 N 0.60741 0.79033 0.78838 0.0
C1509 C 0.61195 0.78237 0.72512 0.0
C1510 C 0.59416 0.78142 0.68155 0.0
C1511 C 0.11525 0.99804 0.73397 0.0
C1512 C 0.09428 0.99313 0.71068 0.0
C1513 C 0.13263 0.99786 0.69124 0.0
C1514 C 0.12959 0.99278 0.62385 0.0
H1515 H 0.11821 1.00443 0.78473 0.0
H1516 H 0.14834 1.00395 0.711 0.0
S1517 S 0.07828 0.97006 0.5413 0.0
N1518 N 0.07172 0.97661 0.61834 0.0
N1519 N 0.10447 0.97627 0.53766 0.0
C1520 C 0.10895 0.98404 0.60105 0.0
C1521 C 0.09124 0.98424 0.64465 0.0
C1522 C 0.63162 0.98889 0.18299 0.0
C1523 C 0.62874 0.99132 0.1151 0.0
C1524 C 0.61409 0.98885 0.22529 0.0
C1525 C 0.59302 0.99133 0.20136 0.0
H1526 H 0.64755 0.98884 0.20407 0.0
H1527 H 0.61726 0.98895 0.27724 0.0
S1528 S 0.57664 0.99163 1.02708 0.0
N1529 N 0.60309 0.99127 1.02538 0.0
N1530 N 0.5701 0.99101 0.105 0.0
C1531 C 0.58981 0.99037 0.13336 0.0
C1532 C 0.60771 0.99042 0.0902 0.0
C1533 C 0.11437 0.78147 0.09649 0.0
C1534 C 0.09339 0.77898 0.12118 0.0
C1535 C 0.13202 0.78207 0.13825 0.0
C1536 C 0.12931 0.78029 0.20626 0.0
H1537 H 0.11738 0.78099 0.04445 0.0
H1538 H 0.14789 0.78207 0.11675 0.0
S1539 S 0.07754 0.78058 0.29594 0.0
N1540 N 0.07075 0.78011 0.21823 0.0
N1541 N 0.10397 0.78123 0.29676 0.0
C1542 C 0.10837 0.78126 0.23178 0.0
C1543 C 0.09037 0.78058 0.18921 0.0
C1544 C 0.34043 0.74349 0.93225 0.0
C1545 C 0.34321 0.73741 0.86508 0.0
C1546 C 0.35787 0.74313 0.97453 0.0
C1547 C 0.37873 0.73674 0.95124 0.0
H1548 H 0.3249 0.7507 0.95216 0.0
H1549 H 0.35503 0.75026 1.02508 0.0
S1550 S 0.3937 0.70988 0.78306 0.0
N1551 N 0.36769 0.71795 0.77936 0.0
N1552 N 0.40071 0.7175 0.85946 0.0
C1553 C 0.38146 0.72695 0.88556 0.0
C1554 C 0.36361 0.7272 0.84232 0.0
C1555 C 0.86034 0.52573 0.84613 0.0
C1556 C 0.88138 0.52373 0.87045 0.0
C1557 C 0.84275 0.52616 0.88817 0.0
C1558 C 0.84551 0.52464 0.95619 0.0
H1559 H 0.85726 0.52521 0.79415 0.0
H1560 H 0.82686 0.52609 0.86678 0.0
S1561 S 0.8975 0.52511 0.04497 0.0
N1562 N 0.90414 0.52484 0.96714 0.0
N1563 N 0.87104 0.52547 0.04626 0.0
C1564 C 0.86652 0.52552 0.98137 0.0
C1565 C 0.88447 0.52512 0.93846 0.0
C1566 C 0.35621 0.55151 0.43268 0.0
C1567 C 0.34588 0.51854 0.44877 0.0
C1568 C 0.37371 0.55152 0.38933 0.0
C1569 C 0.38058 0.51871 0.36048 0.0
H1570 H 0.35077 0.57708 0.45356 0.0
H1571 H 0.38172 0.57704 0.37798 0.0
S1572 S 0.35923 0.42554 0.39038 0.0
N1573 N 0.34493 0.45257 0.43771 0.0
N1574 N 0.37569 0.45305 0.35098 0.0
C1575 C 0.3701 0.48601 0.3762 0.0
C1576 C 0.35325 0.48579 0.42203 0.0
C1577 C 0.84075 0.74278 0.43517 0.0
C1578 C 0.84346 0.74379 0.36713 0.0
C1579 C 0.85834 0.74013 0.47683 0.0
C1580 C 0.87934 0.7385 0.45199 0.0
H1581 H 0.825 0.7458 0.45697 0.0
H1582 H 0.8554 0.74158 0.5288 0.0
S1583 S 0.89478 0.7328 0.27738 0.0
N1584 N 0.86848 0.73743 0.27656 0.0
N1585 N 0.90167 0.73243 0.35504 0.0
C1586 C 0.88216 0.73605 0.38406 0.0
C1587 C 0.86419 0.73873 0.3415 0.0
C1588 C 0.61096 0.28596 0.20858 0.0
C1589 C 0.6309 0.27159 0.1895 0.0
C1590 C 0.59335 0.28478 0.16648 0.0
C1591 C 0.5952 0.26934 0.10406 0.0
H1592 H 0.60882 0.29742 0.25681 0.0
H1593 H 0.57808 0.29533 0.18341 0.0
S1594 S 0.64359 0.22608 1.03212 0.0
N1595 N 0.65132 0.24053 0.10444 0.0
N1596 N 0.61825 0.23851 1.02563 0.0
C1597 C 0.61513 0.2555 0.08385 0.0
C1598 C 0.63301 0.25659 0.12658 0.0
C1599 C 0.11675 0.49992 0.22111 0.0
C1600 C 0.09555 0.49712 0.19871 0.0
C1601 C 0.1339 0.49943 0.17754 0.0
C1602 C 0.13047 0.49619 0.10996 0.0
H1603 H 0.12018 0.50446 0.27223 0.0
H1604 H 0.14986 0.50353 0.19714 0.0
S1605 S 0.07817 0.48011 1.02827 0.0
N1606 N 0.07213 0.48516 0.10607 0.0
N1607 N 0.10448 0.48438 1.02377 0.0
C1608 C 0.10946 0.49005 0.08749 0.0
C1609 C 0.09196 0.49054 0.13203 0.0
C1610 C 0.60808 0.50065 0.58412 0.0
C1611 C 0.62895 0.49574 0.60863 0.0
C1612 C 0.59031 0.4989 0.62531 0.0
C1613 C 0.59273 0.49217 0.69243 0.0
H1614 H 0.60544 0.50791 0.53358 0.0
H1615 H 0.57469 0.50489 0.60455 0.0
S1616 S 0.64361 0.46978 0.7779 0.0
N1617 N 0.65084 0.47834 0.70197 0.0
N1618 N 0.61732 0.47494 0.77965 0.0
C1619 C 0.61334 0.48396 0.7165 0.0
C1620 C 0.63147 0.48583 0.67441 0.0
C1621 C 0.13269 0.27789 0.63954 0.0
C1622 C 0.12935 0.27891 0.70738 0.0
C1623 C 0.11548 0.27887 0.59628 0.0
C1624 C 0.09428 0.28086 0.61929 0.0
H1625 H 0.14861 0.27429 0.61934 0.0
H1626 H 0.11885 0.27573 0.54477 0.0
S1627 S 0.07725 0.29322 0.79128 0.0
N1628 N 0.10355 0.28862 0.79495 0.0
N1629 N 0.07106 0.29051 0.71324 0.0
C1630 C 0.09083 0.28576 0.68649 0.0
C1631 C 0.10841 0.28478 0.7307 0.0
C1632 C 0.27001 0.29618 0.73551 0.0
C1633 C 0.28067 0.2751 0.68784 0.0
C1634 C 0.2774 0.29767 0.80044 0.0
C1635 C 0.29567 0.27795 0.82058 0.0
H1636 H 0.25569 0.31138 0.72277 0.0
H1637 H 0.2686 0.31406 0.83536 0.0
S1638 S 0.33063 0.22158 0.71439 0.0
N1639 N 0.31148 0.23625 0.66521 0.0
N1640 N 0.32493 0.23848 0.78697 0.0
C1641 C 0.30662 0.25721 0.77347 0.0
C1642 C 0.29925 0.25592 0.70734 0.0
C1643 C 0.92163 0.99995 0.70178 0.0
C1644 C 0.93998 0.98138 0.67907 0.0
C1645 C 0.91449 0.99621 0.76658 0.0
C1646 C 0.92538 0.97374 0.81165 0.0
H1647 H 0.91252 0.01724 0.66893 0.0
H1648 H 0.90012 0.01071 0.78125 0.0
S1649 S 0.97536 0.92176 0.77856 0.0
N1650 N 0.96954 0.94126 0.70809 0.0
N1651 N 0.95624 0.93432 0.82955 0.0
C1652 C 0.94393 0.95543 0.78982 0.0
C1653 C 0.95118 0.95921 0.72379 0.0
C1654 C 0.27759 0.96662 0.52101 0.0
C1655 C 0.29797 0.9791 0.50106 0.0
C1656 C 0.27063 0.97009 0.58617 0.0
C1657 C 0.28375 0.98612 0.63433 0.0
H1658 H 0.26679 0.95454 0.48572 0.0
H1659 H 0.25469 0.96062 0.59863 0.0
S1660 S 0.33947 0.01932 0.60895 0.0
N1661 N 0.33173 1.00575 0.53592 0.0
N1662 N 0.31887 0.01188 0.65781 0.0
C1663 C 0.30438 0.99781 0.61519 0.0
C1664 C 0.31141 0.99442 0.54889 0.0
C1665 C 0.94821 0.30085 0.52168 0.0
C1666 C 0.9309 0.2805 0.4965 0.0
C1667 C 0.95493 0.29673 0.58689 0.0
C1668 C 0.94457 0.27218 0.62973 0.0
H1669 H 0.95676 0.31987 0.49052 0.0
H1670 H 0.96849 0.31265 0.60364 0.0
S1671 S 0.8971 0.21515 0.58943 0.0
N1672 N 0.90283 0.23648 0.52055 0.0
N1673 N 0.91516 0.22907 0.64275 0.0
C1674 C 0.92701 0.25218 0.60527 0.0
C1675 C 0.92027 0.25625 0.53889 0.0
C1676 C 0.69738 0.71232 0.27916 0.0
C1677 C 0.67726 0.72675 0.26092 0.0
C1678 C 0.70462 0.71367 0.34421 0.0
C1679 C 0.69204 0.7295 0.39379 0.0
H1680 H 0.70782 0.70053 0.24267 0.0
H1681 H 0.7204 0.70297 0.35544 0.0
S1682 S 0.63692 0.76639 0.37386 0.0
N1683 N 0.64405 0.75411 0.29951 0.0
N1684 N 0.65761 0.75667 0.42107 0.0
C1685 C 0.67158 0.74275 0.37665 0.0
C1686 C 0.66422 0.74138 0.31057 0.0
C1687 C 0.03884 0.0676 0.29036 0.0
C1688 C 0.04867 0.03885 0.25604 0.0
C1689 C 0.03197 0.06297 0.35528 0.0
C1690 C 0.03484 0.0295 0.38867 0.0
H1691 H 0.0361 0.09366 0.26644 0.0
H1692 H 0.02405 0.08567 0.37915 0.0
S1693 S 0.06173 0.94695 0.32169 0.0
N1694 N 0.06193 0.97651 0.26067 0.0
N1695 N 0.04975 0.96801 0.38285 0.0
C1696 C 0.04517 1.00087 0.35499 0.0
C1697 C 0.05191 1.0055 0.28876 0.0
C1698 C 0.67253 1.0074 0.53529 0.0
C1699 C 0.67833 0.03812 0.57259 0.0
C1700 C 0.67924 1.00359 0.47018 0.0
C1701 C 0.69228 0.03013 0.43971 0.0
H1702 H 0.6624 0.98639 0.55632 0.0
H1703 H 0.6739 0.97984 0.44323 0.0
S1704 S 0.71371 0.11392 0.51847 0.0
N1705 N 0.69862 0.09478 0.57523 0.0
N1706 N 0.71205 0.08691 0.45423 0.0
C1707 C 0.69864 0.06055 0.47716 0.0
C1708 C 0.69148 0.06471 0.54311 0.0
C1709 C 0.04272 0.71635 0.45749 0.0
C1710 C 0.02991 0.74612 0.43734 0.0
C1711 C 0.05015 0.71315 0.52207 0.0
C1712 C 0.04514 0.73958 0.56964 0.0
H1713 H 0.04741 0.69556 0.42273 0.0
H1714 H 0.06023 0.69002 0.53454 0.0
S1715 S 0.01076 0.82139 0.54427 0.0
N1716 N 0.01174 0.80175 0.47192 0.0
N1717 N 0.02547 0.79548 0.59286 0.0
C1718 C 0.03205 0.76917 0.5506 0.0
C1719 C 0.02453 0.77251 0.48476 0.0
C1720 C 0.27683 0.80358 0.21971 0.0
C1721 C 0.28159 0.77181 0.18345 0.0
C1722 C 0.28365 0.80758 0.28485 0.0
C1723 C 0.29539 0.77988 0.31672 0.0
H1724 H 0.26758 0.82547 0.19774 0.0
H1725 H 0.27951 0.83242 0.31071 0.0
S1726 S 0.31345 0.69254 0.24286 0.0
N1727 N 0.2999 0.71303 0.18403 0.0
N1728 N 0.31228 0.72032 0.30614 0.0
C1729 C 0.30035 0.74812 0.28107 0.0
C1730 C 0.29357 0.74414 0.2147 0.0
C1731 C 0.92401 0.50813 0.28048 0.0
C1732 C 0.92793 0.47651 0.31802 0.0
C1733 C 0.93101 0.51094 0.21542 0.0
C1734 C 0.94245 0.48238 0.18495 0.0
H1735 H 0.91514 0.53076 0.30129 0.0
H1736 H 0.92715 0.5356 0.18849 0.0
S1737 S 0.95864 0.39494 0.26383 0.0
N1738 N 0.94487 0.4166 0.32069 0.0
N1739 N 0.95858 0.42226 0.19955 0.0
C1740 C 0.94686 0.45085 0.22245 0.0
C1741 C 0.93949 0.44783 0.28851 0.0
C1742 C 0.28137 0.51198 1.01611 0.0
C1743 C 0.29037 0.47902 0.99333 0.0
C1744 C 0.27389 0.51547 0.08062 0.0
C1745 C 0.27509 0.48617 0.12538 0.0
H1746 H 0.28009 0.53536 0.98376 0.0
H1747 H 0.26714 0.54145 0.09557 0.0
S1748 S 0.29766 0.39421 0.09085 0.0
N1749 N 0.3002 0.41656 1.02124 0.0
N1750 N 0.28625 0.4231 0.14184 0.0
C1751 C 0.28379 0.45291 0.10288 0.0
C1752 C 0.29139 0.44935 0.03721 0.0
C1753 C 0.91772 0.8051 0.05311 0.0
C1754 C 0.92362 0.77968 1.00466 0.0
C1755 C 0.92563 0.80247 0.11731 0.0
C1756 C 0.93979 0.77427 0.13626 0.0
H1757 H 0.90663 0.82701 0.04164 0.0
H1758 H 0.92028 0.82244 0.15271 0.0
S1759 S 0.9615 0.70212 1.02703 0.0
N1760 N 0.94559 0.72654 0.97955 0.0
N1761 N 0.95999 0.72114 0.0998 0.0
C1762 C 0.94598 0.74886 0.08807 0.0
C1763 C 0.93805 0.75169 1.02259 0.0
C1764 C 0.69273 0.22507 0.77107 0.0
C1765 C 0.67295 0.24045 0.75202 0.0
C1766 C 0.70016 0.22766 0.83572 0.0
C1767 C 0.68838 0.24645 0.88382 0.0
H1768 H 0.70251 0.21072 0.73571 0.0
H1769 H 0.71546 0.21534 0.84784 0.0
S1770 S 0.6356 0.29168 0.85919 0.0
N1771 N 0.64167 0.27492 0.78677 0.0
N1772 N 0.65574 0.28042 0.90753 0.0
C1773 C 0.66859 0.26202 0.86529 0.0
C1774 C 0.66085 0.25881 0.79975 0.0
C1775 C 0.02474 0.51547 0.83427 0.0
C1776 C 0.03767 0.52706 0.88669 0.0
C1777 C 0.0315 0.51912 0.76907 0.0
C1778 C 0.05165 0.53422 0.75302 0.0
H1779 H 0.00911 0.50379 0.84352 0.0
H1780 H 0.0207 0.51033 0.73082 0.0
S1781 S 0.09249 0.56592 0.87221 0.0
N1782 N 0.0721 0.55273 0.91791 0.0
N1783 N 0.085 0.5589 0.79603 0.0
C1784 C 0.06491 0.5454 0.80506 0.0
C1785 C 0.05791 0.54196 0.87148 0.0
C1786 C 0.67749 0.57084 1.01962 0.0
C1787 C 0.68053 0.54284 0.06608 0.0
C1788 C 0.68446 0.56686 0.95466 0.0
C1789 C 0.69484 0.53472 0.93329 0.0
H1790 H 0.66916 0.59571 1.03314 0.0
H1791 H 0.68116 0.58881 0.92054 0.0
S1792 S 0.70905 0.45511 0.03812 0.0
N1793 N 0.69628 0.48325 0.0876 0.0
N1794 N 0.70928 0.47557 0.96629 0.0
C1795 C 0.6986 0.50704 0.98008 0.0
C1796 C 0.6915 0.51115 0.0461 0.0
C1797 C 0.04991 0.26455 0.96075 0.0
C1798 C 0.03335 0.24207 0.93654 0.0
C1799 C 0.05718 0.26154 1.02559 0.0
C1800 C 0.04818 0.236 0.06927 0.0
H1801 H 0.05757 0.28433 0.92907 0.0
H1802 H 0.07021 0.27902 0.04132 0.0
S1803 S 0.0027 0.17381 1.03303 0.0
N1804 N 0.00716 0.19521 0.96339 0.0
N1805 N 0.02057 0.18992 0.08495 0.0
C1806 C 0.03123 0.21405 0.04627 0.0
C1807 C 0.02391 0.21698 0.98018 0.0
C1808 C 0.79378 0.30539 0.20311 0.0
C1809 C 0.78088 0.27562 0.18387 0.0
C1810 C 0.80115 0.30905 0.26767 0.0
C1811 C 0.79591 0.2832 0.31632 0.0
H1812 H 0.79857 0.32583 0.16765 0.0
H1813 H 0.81134 0.33213 0.27923 0.0
S1814 S 0.76132 0.20147 0.29311 0.0
N1815 N 0.7626 0.22039 0.22008 0.0
N1816 N 0.77585 0.22783 0.34112 0.0
C1817 C 0.7827 0.25364 0.29807 0.0
C1818 C 0.77538 0.24971 0.23216 0.0
C1819 C 0.42212 0.013 0.28284 0.0
C1820 C 0.42733 0.98182 0.32005 0.0
C1821 C 0.42893 0.01674 0.21779 0.0
C1822 C 0.44145 0.9896 0.18721 0.0
H1823 H 0.41237 0.0345 0.30389 0.0
H1824 H 0.42407 0.04092 0.19096 0.0
S1825 S 0.46115 0.90411 0.26534 0.0
N1826 N 0.44656 0.924 0.32239 0.0
N1827 N 0.45998 0.93148 0.20125 0.0
C1828 C 0.44717 0.9586 0.22443 0.0
C1829 C 0.43997 0.9546 0.29042 0.0
C1830 C 0.78105 1.00135 1.02486 0.0
C1831 C 0.798 0.97781 1.00746 0.0
C1832 C 0.77378 1.00395 0.08976 0.0
C1833 C 0.78314 0.98324 0.14055 0.0
H1834 H 0.77321 0.01776 0.98781 0.0
H1835 H 0.7606 0.02232 0.10004 0.0
S1836 S 0.82931 0.91969 0.12171 0.0
N1837 N 0.82461 0.93454 0.04694 0.0
N1838 N 0.8113 0.93982 0.16857 0.0
C1839 C 0.8003 0.95985 0.12377 0.0
C1840 C 0.80761 0.95705 0.05754 0.0
C1841 C 0.42527 0.31304 0.04513 0.0
C1842 C 0.42812 0.2849 0.99901 0.0
C1843 C 0.43263 0.30936 0.10975 0.0
C1844 C 0.44311 0.27733 0.1312 0.0
H1845 H 0.41689 0.33788 1.03158 0.0
H1846 H 0.42964 0.33151 0.14358 0.0
S1847 S 0.45677 0.19725 1.02782 0.0
N1848 N 0.44386 0.22522 0.97813 0.0
N1849 N 0.45719 0.21792 0.09932 0.0
C1850 C 0.44651 0.24935 0.08509 0.0
C1851 C 0.43918 0.25323 1.01923 0.0
C1852 C 0.17867 0.77303 0.84988 0.0
C1853 C 0.19285 0.74799 0.8795 0.0
C1854 C 0.17211 0.7688 0.78461 0.0
C1855 C 0.17949 0.7394 0.74631 0.0
H1856 H 0.17225 0.79566 0.87777 0.0
H1857 H 0.16083 0.7883 0.76436 0.0
S1858 S 0.21915 0.66946 0.79804 0.0
N1859 N 0.21551 0.69474 0.86367 0.0
N1860 N 0.20335 0.6869 0.74128 0.0
C1861 C 0.19423 0.71493 0.77473 0.0
C1862 C 0.20085 0.7192 0.84114 0.0
C1863 C 0.5309 0.02423 0.77287 0.0
C1864 C 0.54971 0.04355 0.7562 0.0
C1865 C 0.52361 0.02203 0.83776 0.0
C1866 C 0.53463 0.03933 0.88919 0.0
H1867 H 0.52156 0.01085 0.73533 0.0
H1868 H 0.5091 1.0068 0.84757 0.0
S1869 S 0.58548 0.09146 0.87333 0.0
N1870 N 0.57979 0.07889 0.79799 0.0
N1871 N 0.56587 0.07527 0.91916 0.0
C1872 C 0.55347 0.0587 0.87342 0.0
C1873 C 0.56103 0.06071 0.80735 0.0
C1874 C 0.20384 0.04103 0.9879 0.0
C1875 C 0.18977 0.03164 0.93683 0.0
C1876 C 0.19658 0.04436 0.05273 0.0
C1877 C 0.17485 0.03876 0.06941 0.0
H1878 H 0.22071 0.04522 0.978 0.0
H1879 H 0.20819 0.05084 0.09027 0.0
S1880 S 0.13103 0.01777 0.9527 0.0
N1881 N 0.15278 0.01936 0.90693 0.0
N1882 N 0.1391 0.02608 1.02788 0.0
C1883 C 0.16053 0.03034 1.01844 0.0
C1884 C 0.16796 0.02673 0.95258 0.0
C1885 C 0.5415 0.71404 0.95284 0.0
C1886 C 0.53027 0.74548 0.93231 0.0
C1887 C 0.54873 0.7101 1.01744 0.0
C1888 C 0.54507 0.73744 0.06457 0.0
H1889 H 0.54509 0.69247 0.91835 0.0
H1890 H 0.55759 0.68561 1.03025 0.0
S1891 S 0.51471 0.82364 0.03762 0.0
N1892 N 0.51471 0.8035 0.96564 0.0
N1893 N 0.52827 0.79618 0.0866 0.0
C1894 C 0.53353 0.76876 0.04495 0.0
C1895 C 0.52615 0.77275 0.97913 0.0
C1896 C 0.77051 0.80297 0.73347 0.0
C1897 C 0.78366 0.78769 0.68471 0.0
C1898 C 0.77767 0.80614 0.79833 0.0
C1899 C 0.79846 0.79509 0.81687 0.0
H1900 H 0.75437 0.81167 0.72189 0.0
H1901 H 0.76681 0.81723 0.83443 0.0
S1902 S 0.83968 0.75552 0.7072 0.0
N1903 N 0.81888 0.76295 0.65917 0.0
N1904 N 0.8323 0.76922 0.78055 0.0
C1905 C 0.81201 0.78091 0.76821 0.0
C1906 C 0.80462 0.77716 0.70242 0.0
C1907 C 0.44819 0.46201 0.79217 0.0
C1908 C 0.42784 0.47538 0.81052 0.0
C1909 C 0.45544 0.46429 0.72721 0.0
C1910 C 0.44271 0.4802 0.6779 0.0
H1911 H 0.45874 0.45018 0.82849 0.0
H1912 H 0.47129 0.45401 0.71581 0.0
S1913 S 0.38709 0.51476 0.6985 0.0
N1914 N 0.39434 0.50195 0.77255 0.0
N1915 N 0.40796 0.50644 0.6512 0.0
C1916 C 0.4221 0.49262 0.69529 0.0
C1917 C 0.41469 0.49019 0.76126 0.0
C1918 C 0.80571 0.5102 0.54231 0.0
C1919 C 0.79579 0.48462 0.50084 0.0
C1920 C 0.79904 0.51456 0.6074 0.0
C1921 C 0.78211 0.49364 0.63362 0.0
H1922 H 0.81895 0.52663 0.52458 0.0
H1923 H 0.80743 0.53413 0.63769 0.0
S1924 S 0.74937 0.4259 0.54354 0.0
N1925 N 0.76737 0.43968 0.48981 0.0
N1926 N 0.75461 0.44837 0.61128 0.0
C1927 C 0.77178 0.46859 0.59219 0.0
C1928 C 0.77867 0.46396 0.52616 0.0
C1929 C 0.4345 0.81022 0.60641 0.0
C1930 C 0.44332 0.77738 0.63087 0.0
C1931 C 0.42692 0.81292 0.54182 0.0
C1932 C 0.4275 0.78276 0.49909 0.0
H1933 H 0.43301 0.83388 0.63777 0.0
H1934 H 0.42011 0.83867 0.52567 0.0
S1935 S 0.45093 0.69166 0.53654 0.0
N1936 N 0.45409 0.71517 0.60442 0.0
N1937 N 0.43856 0.71953 0.48548 0.0
C1938 C 0.43653 0.74999 0.52269 0.0
C1939 C 0.44476 0.7475 0.58774 0.0
C1940 C 0.19273 0.21273 0.28145 0.0
C1941 C 0.17522 0.23291 0.25704 0.0
C1942 C 0.19976 0.21685 0.3463 0.0
C1943 C 0.18945 0.24112 0.38962 0.0
H1944 H 0.20127 0.19398 0.24991 0.0
H1945 H 0.21357 0.20126 0.36232 0.0
S1946 S 0.14105 0.29663 0.35191 0.0
N1947 N 0.14673 0.27586 0.28259 0.0
N1948 N 0.15953 0.28308 0.40435 0.0
C1949 C 0.17148 0.26055 0.36618 0.0
C1950 C 0.16448 0.25657 0.30008 0.0
C1951 C 0.52208 0.51177 0.32472 0.0
C1952 C 0.53029 0.5339 0.37496 0.0
C1953 C 0.52906 0.51563 0.25985 0.0
C1954 C 0.54495 0.54131 0.24231 0.0
H1955 H 0.5101 0.49122 0.33552 0.0
H1956 H 0.52191 0.49825 0.22311 0.0
S1957 S 0.5729 0.60398 0.35681 0.0
N1958 N 0.55563 0.5817 0.40325 0.0
N1959 N 0.56941 0.5881 0.28223 0.0
C1960 C 0.55344 0.56345 0.29238 0.0
C1961 C 0.54601 0.55991 0.35832 0.0
C1962 C 0.2002 0.52202 0.47635 0.0
C1963 C 0.19062 0.54194 0.42534 0.0
C1964 C 0.19328 0.52589 0.54127 0.0
C1965 C 0.17604 0.54915 0.55809 0.0
H1966 H 0.21321 0.5033 0.46607 0.0
H1967 H 0.2016 0.51041 0.57857 0.0
S1968 S 0.14446 0.60526 0.44076 0.0
N1969 N 0.16281 0.58513 0.39511 0.0
N1970 N 0.1489 0.59106 0.51607 0.0
C1971 C 0.16616 0.56893 0.50694 0.0
C1972 C 0.17361 0.56557 0.44099 0.0
C1973 C 0.52268 0.25894 0.47926 0.0
C1974 C 0.52964 0.23539 0.42922 0.0
C1975 C 0.53006 0.25488 0.54371 0.0
C1976 C 0.54486 0.2273 0.56067 0.0
H1977 H 0.51143 0.28071 0.4685 0.0
H1978 H 0.52409 0.27344 0.58063 0.0
S1979 S 0.56983 0.16125 0.44641 0.0
N1980 N 0.55313 0.185 0.40034 0.0
N1981 N 0.56723 0.17767 0.52096 0.0
C1982 C 0.55215 0.20392 0.51089 0.0
C1983 C 0.54452 0.20791 0.44539 0.0
C1984 C 0.2969 0.36984 0.46948 0.0
C1985 C 0.29818 0.40797 0.45892 0.0
C1986 C 0.29743 0.34445 0.41721 0.0
C1987 C 0.29976 0.35595 0.35185 0.0
H1988 H 0.29613 0.35944 0.51891 0.0
H1989 H 0.29696 0.31551 0.42841 0.0
S1990 S 0.30728 0.45182 0.29771 0.0
N1991 N 0.30312 0.45527 0.37697 0.0
N1992 N 0.30559 0.40782 0.2806 0.0
C1993 C 0.30164 0.39377 0.34076 0.0
C1994 C 0.30041 0.41965 0.39358 0.0
C1995 C 0.93949 0.87096 0.44318 0.0
C1996 C 0.92141 0.8498 0.46068 0.0
C1997 C 0.93934 0.89416 0.38717 0.0
C1998 C 0.92106 0.89763 0.34686 0.0
H1999 H 0.95359 0.87045 0.47398 0.0
H2000 H 0.95354 0.90974 0.376 0.0
S2001 S 0.87198 0.84009 0.36151 0.0
N2002 N 0.88638 0.82888 0.42592 0.0
N2003 N 0.88611 0.87136 0.32233 0.0
C2004 C 0.90373 0.87393 0.36107 0.0
C2005 C 0.90388 0.85056 0.41752 0.0
C2006 C 0.32019 0.89577 0.93109 0.0
C2007 C 0.30121 0.90787 0.96172 0.0
C2008 C 0.31997 0.87115 0.87837 0.0
C2009 C 0.30075 0.85723 0.8519 0.0
H2010 H 0.33564 0.90528 0.94822 0.0
H2011 H 0.33529 0.86284 0.8583 0.0
S2012 S 0.24622 0.87944 0.91344 0.0
N2013 N 0.26237 0.90194 0.96312 0.0
N2014 N 0.26186 0.85912 0.85938 0.0
C2015 C 0.28149 0.8697 0.88067 0.0
C2016 C 0.28174 0.89399 0.93654 0.0
C2017 C 0.94354 0.38762 0.87129 0.0
C2018 C 0.9257 0.41036 0.85806 0.0
C2019 C 0.94364 0.36285 0.92525 0.0
C2020 C 0.92577 0.3591 0.96726 0.0
H2021 H 0.95723 0.38819 0.83882 0.0
H2022 H 0.95767 0.34629 0.93329 0.0
S2023 S 0.87757 0.41923 0.96321 0.0
N2024 N 0.89151 0.43194 0.89874 0.0
N2025 N 0.8915 0.38601 0.99759 0.0
C2026 C 0.90871 0.38399 0.95704 0.0
C2027 C 0.90869 0.40917 0.90311 0.0
C2028 C 0.69171 0.64253 0.69815 0.0
C2029 C 0.67336 0.66229 0.71809 0.0
C2030 C 0.6915 0.62003 0.64144 0.0
C2031 C 0.67283 0.61559 0.60302 0.0
H2032 H 0.70619 0.64383 0.72718 0.0
H2033 H 0.70605 0.60605 0.62801 0.0
S2034 S 0.62208 0.66744 0.62719 0.0
N2035 N 0.63717 0.67988 0.68911 0.0
N2036 N 0.63651 0.63786 0.5853 0.0
C2037 C 0.6549 0.63707 0.62085 0.0
C2038 C 0.65521 0.66005 0.6776 0.0
C2039 C 0.06992 0.12654 0.69086 0.0
C2040 C 0.0506 0.11257 0.71671 0.0
C2041 C 0.07034 0.15067 0.63726 0.0
C2042 C 0.05149 0.16215 0.6052 0.0
H2043 H 0.08515 0.11864 0.71208 0.0
H2044 H 0.08584 0.1603 0.62058 0.0
S2045 S -0.00365 0.13325 0.6513 0.0
N2046 N 0.01176 0.11368 0.707 0.0
N2047 N 0.0127 0.15556 0.60171 0.0
C2048 C 0.03194 0.14818 0.62974 0.0
C2049 C 0.03146 0.12447 0.68651 0.0
C2050 C 0.65464 0.12765 0.13135 0.0
C2051 C 0.67365 0.1124 0.10595 0.0
C2052 C 0.65466 0.15258 0.18359 0.0
C2053 C 0.67373 0.16398 0.21438 0.0
H2054 H 0.63933 0.12011 0.11081 0.0
H2055 H 0.63932 0.16292 0.20023 0.0
S2056 S 0.72847 0.13414 0.16575 0.0
N2057 N 0.71258 0.11344 0.11285 0.0
N2058 N 0.71254 0.15732 0.21521 0.0
C2059 C 0.69307 0.14947 0.18927 0.0
C2060 C 0.69306 0.12462 0.13418 0.0
C2061 C 0.07 0.65343 0.14031 0.0
C2062 C 0.05095 0.66319 0.10753 0.0
C2063 C 0.07006 0.62985 0.19469 0.0
C2064 C 0.05104 0.6147 0.22039 0.0
H2065 H 0.08529 0.66386 0.12338 0.0
H2066 H 0.08541 0.6231 0.21634 0.0
S2067 S -0.00355 0.63111 0.15364 0.0
N2068 N 0.01234 0.65422 0.10387 0.0
N2069 N 0.01221 0.61297 0.20995 0.0
C2070 C 0.03167 0.62508 0.18965 0.0
C2071 C 0.03168 0.6484 0.13243 0.0
C2072 C 0.81709 0.39631 0.93624 0.0
C2073 C 0.79804 0.41022 0.96364 0.0
C2074 C 0.81711 0.37209 0.88309 0.0
C2075 C 0.79803 0.36007 0.85318 0.0
H2076 H 0.83242 0.40427 0.95615 0.0
H2077 H 0.83252 0.36267 0.86529 0.0
S2078 S 0.74317 0.38731 0.90568 0.0
N2079 N 0.75909 0.40821 0.95827 0.0
N2080 N 0.75911 0.36524 0.85462 0.0
C2081 C 0.77863 0.37373 0.87954 0.0
C2082 C 0.77863 0.39804 0.93544 0.0
C2083 C 0.40331 0.89491 0.88171 0.0
C2084 C 0.42256 0.90872 0.85514 0.0
C2085 C 0.40305 0.86999 0.93416 0.0
C2086 C 0.42202 0.85756 0.96444 0.0
H2087 H 0.388 0.90349 0.86184 0.0
H2088 H 0.38759 0.86046 0.9513 0.0
S2089 S 0.47708 0.8857 0.9158 0.0
N2090 N 0.46145 0.90628 0.86187 0.0
N2091 N 0.46087 0.8635 0.96597 0.0
C2092 C 0.44152 0.87155 0.9394 0.0
C2093 C 0.4418 0.89593 0.88354 0.0
C2094 C 0.78178 0.86625 0.40029 0.0
C2095 C 0.79871 0.86509 0.35447 0.0
C2096 C 0.78216 0.89024 0.45493 0.0
C2097 C 0.79948 0.91432 0.46584 0.0
H2098 H 0.76832 0.84817 0.39482 0.0
H2099 H 0.76919 0.88895 0.49 0.0
S2100 S 0.84519 0.929 0.35289 0.0
N2101 N 0.83135 0.89566 0.31881 0.0
N2102 N 0.83233 0.93911 0.42078 0.0
C2103 C 0.81564 0.91527 0.41797 0.0
C2104 C 0.81516 0.89131 0.36256 0.0
C2105 C 0.42922 0.34501 0.3982 0.0
C2106 C 0.42409 0.35747 0.46138 0.0
C2107 C 0.42993 0.36915 0.34385 0.0
C2108 C 0.42561 0.40689 0.35017 0.0
H2109 H 0.43148 0.31608 0.38996 0.0
H2110 H 0.43301 0.35791 0.29596 0.0
S2111 S 0.40948 0.45269 0.50442 0.0
N2112 N 0.41325 0.40964 0.52599 0.0
N2113 N 0.41532 0.45474 0.42602 0.0
C2114 C 0.42048 0.41946 0.41338 0.0
C2115 C 0.41946 0.39488 0.4682 0.0
C2116 C 0.15467 0.62221 0.13143 0.0
C2117 C 0.17372 0.61211 0.09895 0.0
C2118 C 0.15466 0.64599 0.18535 0.0
C2119 C 0.17372 0.66094 0.21101 0.0
H2120 H 0.13936 0.61184 0.11473 0.0
H2121 H 0.13931 0.65291 0.20684 0.0
S2122 S 0.22832 0.64371 0.14488 0.0
N2123 N 0.21236 0.62078 0.09525 0.0
N2124 N 0.21257 0.66194 0.20106 0.0
C2125 C 0.19307 0.65022 0.18059 0.0
C2126 C 0.19302 0.62686 0.12361 0.0
C2127 C 0.53381 0.13133 0.20182 0.0
C2128 C 0.55112 0.10721 0.2134 0.0
C2129 C 0.53325 0.15454 0.14592 0.0
C2130 C 0.55001 0.15496 0.0995 0.0
H2131 H 0.52089 0.133 0.237 0.0
H2132 H 0.51974 0.17243 0.13963 0.0
S2133 S 0.59657 0.09117 0.10023 0.0
N2134 N 0.58381 0.0817 0.16864 0.0
N2135 N 0.58277 0.12433 0.06519 0.0
C2136 C 0.5666 0.12906 0.10885 0.0
C2137 C 0.56717 0.10567 0.16527 0.0
C2138 C 0.15474 0.12385 0.63541 0.0
C2139 C 0.17387 0.1106 0.60727 0.0
C2140 C 0.15471 0.14816 0.68838 0.0
C2141 C 0.1738 0.16065 0.71758 0.0
H2142 H 0.13933 0.11535 0.61637 0.0
H2143 H 0.13929 0.15719 0.70671 0.0
S2144 S 0.22869 0.13456 0.66437 0.0
N2145 N 0.21282 0.1138 0.61148 0.0
N2146 N 0.2127 0.1562 0.71582 0.0
C2147 C 0.19321 0.1474 0.691 0.0
C2148 C 0.19327 0.12329 0.63493 0.0
C2149 C 0.56643 0.61371 0.66762 0.0
C2150 C 0.54743 0.60511 0.70139 0.0
C2151 C 0.5667 0.63789 0.61438 0.0
C2152 C 0.54814 0.6558 0.59155 0.0
H2153 H 0.58155 0.60169 0.68261 0.0
H2154 H 0.58188 0.64264 0.59068 0.0
S2155 S 0.49317 0.63818 0.65465 0.0
N2156 N 0.5088 0.6143 0.70413 0.0
N2157 N 0.50923 0.65763 0.60054 0.0
C2158 C 0.5286 0.64559 0.62161 0.0
C2159 C 0.5283 0.621 0.67732 0.0
C2160 C 0.30159 0.15533 0.16649 0.0
C2161 C 0.283 0.16438 0.20225 0.0
C2162 C 0.30327 0.12142 0.13308 0.0
C2163 C 0.2864 0.09564 0.13427 0.0
H2164 H 0.31482 0.17448 0.16417 0.0
H2165 H 0.31744 0.11602 0.1041 0.0
S2166 S 0.23393 0.10687 0.21699 0.0
N2167 N 0.24729 0.14442 0.23517 0.0
N2168 N 0.25028 0.08265 0.17089 0.0
C2169 C 0.26783 0.1047 0.16927 0.0
C2170 C 0.2662 0.13847 0.20369 0.0
C2171 C 0.92715 0.15859 0.17941 0.0
C2172 C 0.93154 0.15902 0.11221 0.0
C2173 C 0.92674 0.12532 0.21467 0.0
C2174 C 0.92988 0.09115 0.18386 0.0
H2175 H 0.92549 0.18411 0.20565 0.0
H2176 H 0.92487 0.12646 0.26715 0.0
S2177 S 0.94017 0.07711 1.00799 0.0
N2178 N 0.93799 0.12194 1.01565 0.0
N2179 N 0.93628 0.05999 0.08164 0.0
C2180 C 0.93278 0.0911 0.11615 0.0
C2181 C 0.93383 0.12489 0.0805 0.0
C2182 C 0.67082 0.89926 0.92651 0.0
C2183 C 0.68976 0.91922 0.93938 0.0
C2184 C 0.67156 0.86439 0.89564 0.0
C2185 C 0.69126 0.84869 0.87611 0.0
H2186 H 0.65548 0.91001 0.94226 0.0
H2187 H 0.65671 0.85002 0.88609 0.0
S2188 S 0.74524 0.88946 0.90024 0.0
N2189 N 0.72858 0.91948 0.93239 0.0
N2190 N 0.72992 0.85634 0.87199 0.0
C2191 C 0.71007 0.86878 0.88836 0.0
C2192 C 0.70934 0.90331 0.92062 0.0
C2193 C 0.03694 0.88503 0.84427 0.0
C2194 C 0.04138 0.91877 0.87528 0.0
C2195 C 0.03761 0.85152 0.87821 0.0
C2196 C 0.04246 0.85045 0.94492 0.0
H2197 H 0.03186 0.88461 0.79375 0.0
H2198 H 0.0327 0.82678 0.85329 0.0
S2199 S 0.05777 0.92964 0.0476 0.0
N2200 N 0.05309 0.9479 0.97515 0.0
N2201 N 0.05352 0.88526 0.03975 0.0
C2202 C 0.04817 0.88349 0.97564 0.0
C2203 C 0.04792 0.91756 0.94065 0.0
C2204 C 0.29478 0.66483 0.62715 0.0
C2205 C 0.29131 0.66439 0.69472 0.0
C2206 C 0.29526 0.63201 0.59112 0.0
C2207 C 0.29291 0.59749 0.6215 0.0
H2208 H 0.29547 0.69064 0.60139 0.0
H2209 H 0.29637 0.63376 0.53848 0.0
S2210 S 0.28525 0.58123 0.7981 0.0
N2211 N 0.2867 0.62622 0.79125 0.0
N2212 N 0.28834 0.56498 0.7236 0.0
C2213 C 0.29097 0.59658 0.6895 0.0
C2214 C 0.28996 0.62993 0.72602 0.0
C2215 C 0.93077 0.63175 0.59621 0.0
C2216 C 0.93246 0.6662 0.62697 0.0
C2217 C 0.93085 0.59879 0.63224 0.0
C2218 C 0.9333 0.59905 0.70031 0.0
H2219 H 0.93033 0.63021 0.54347 0.0
H2220 H 0.93061 0.57302 0.6063 0.0
S2221 S 0.93798 0.68184 0.8044 0.0
N2222 N 0.93568 0.69833 0.72968 0.0
N2223 N 0.93666 0.63688 0.79729 0.0
C2224 C 0.93417 0.6334 0.73175 0.0
C2225 C 0.93353 0.66685 0.69519 0.0
C2226 C 0.6814 0.42313 0.37162 0.0
C2227 C 0.68276 0.42324 0.44 0.0
C2228 C 0.68165 0.38988 0.33648 0.0
C2229 C 0.68264 0.35549 0.36825 0.0
H2230 H 0.68173 0.44877 0.34499 0.0
H2231 H 0.68199 0.39115 0.2837 0.0
S2232 S 0.6856 0.34099 0.54662 0.0
N2233 N 0.68451 0.38588 0.53816 0.0
N2234 N 0.6844 0.32407 0.4721 0.0
C2235 C 0.68282 0.35532 0.43652 0.0
C2236 C 0.68303 0.38902 0.47226 0.0
C2237 C 0.01786 0.36511 0.4151 0.0
C2238 C 0.0371 0.35037 0.43899 0.0
C2239 C 0.01711 0.39961 0.38587 0.0
C2240 C 0.03547 0.42189 0.38054 0.0
H2241 H 0.00296 0.35013 0.42071 0.0
H2242 H 0.00167 0.40911 0.36859 0.0
S2243 S 0.09018 0.39601 0.43507 0.0
N2244 N 0.07529 0.36015 0.4545 0.0
N2245 N 0.07388 0.42593 0.40014 0.0
C2246 C 0.05509 0.40726 0.40279 0.0
C2247 C 0.05589 0.37137 0.432 0.0
C2248 C 0.7933 0.13449 0.59425 0.0
C2249 C 0.79148 0.10028 0.6261 0.0
C2250 C 0.79314 0.16776 0.62919 0.0
C2251 C 0.79046 0.16796 0.6972 0.0
H2252 H 0.79384 0.13562 0.54147 0.0
H2253 H 0.79349 0.19335 0.60243 0.0
S2254 S 0.78521 0.08601 0.80375 0.0
N2255 N 0.78781 0.06896 0.72967 0.0
N2256 N 0.78672 0.13087 0.79524 0.0
C2257 C 0.78948 0.13385 0.72968 0.0
C2258 C 0.79019 0.10014 0.69425 0.0
C2259 C 0.4295 0.13452 0.59502 0.0
C2260 C 0.43086 0.16892 0.62611 0.0
C2261 C 0.42962 0.10153 0.63073 0.0
C2262 C 0.43169 0.10176 0.69882 0.0
H2263 H 0.42948 0.13303 0.54225 0.0
H2264 H 0.42984 0.07583 0.60461 0.0
S2265 S 0.43444 0.18439 0.80397 0.0
N2266 N 0.43277 0.20101 0.72917 0.0
N2267 N 0.43369 0.1394 0.79644 0.0
C2268 C 0.4319 0.13602 0.73067 0.0
C2269 C 0.43128 0.16954 0.69434 0.0
C2270 C 0.20129 0.9136 0.40398 0.0
C2271 C 0.18375 0.9213 0.44434 0.0
C2272 C 0.20285 0.8805 0.37039 0.0
C2273 C 0.18726 0.85276 0.37693 0.0
H2274 H 0.21445 0.93284 0.40023 0.0
H2275 H 0.2169 0.87637 0.34016 0.0
S2276 S 0.13849 0.85844 0.47974 0.0
N2277 N 0.15058 0.89822 0.4911 0.0
N2278 N 0.1536 0.83529 0.42787 0.0
C2279 C 0.16958 0.85982 0.41757 0.0
C2280 C 0.16785 0.89418 0.45143 0.0
C2281 C 0.52567 0.85729 0.39362 0.0
C2282 C 0.54235 0.85093 0.43804 0.0
C2283 C 0.52366 0.89071 0.36057 0.0
C2284 C 0.53785 0.92011 0.37181 0.0
H2285 H 0.51328 0.83694 0.38702 0.0
H2286 H 0.51023 0.89386 0.32753 0.0
S2287 S 0.58397 0.91822 0.48584 0.0
N2288 N 0.57323 0.87704 0.49302 0.0
N2289 N 0.56937 0.94034 0.43116 0.0
C2290 C 0.55474 0.91424 0.4161 0.0
C2291 C 0.55694 0.87967 0.44936 0.0
C2292 C 0.79156 0.63559 0.22921 0.0
C2293 C 0.79126 0.67022 0.19817 0.0
C2294 C 0.79215 0.60266 0.19335 0.0
C2295 C 0.79195 0.60316 0.12492 0.0
H2296 H 0.79033 0.63387 0.28183 0.0
H2297 H 0.79112 0.57685 0.21924 0.0
S2298 S 0.79215 0.68622 1.02002 0.0
N2299 N 0.79203 0.70256 0.09506 0.0
N2300 N 0.79251 0.64123 1.0275 0.0
C2301 C 0.79264 0.63759 0.09346 0.0
C2302 C 0.79249 0.67099 0.13003 0.0
C2303 C 0.42136 0.60774 0.15845 0.0
C2304 C 0.44004 0.59754 0.19283 0.0
C2305 C 0.4199 0.64221 0.12647 0.0
C2306 C 0.43712 0.66733 0.12753 0.0
H2307 H 0.40785 0.58917 0.15647 0.0
H2308 H 0.40559 0.64863 0.09881 0.0
S2309 S 0.48985 0.65331 0.20725 0.0
N2310 N 0.47611 0.61602 0.22496 0.0
N2311 N 0.47365 0.67849 0.16215 0.0
C2312 C 0.45582 0.65703 0.16069 0.0
C2313 C 0.45718 0.62285 0.19416 0.0
C2314 C 0.19108 0.35269 0.94527 0.0
C2315 C 0.18128 0.34926 0.88416 0.0
C2316 C 0.19242 0.38686 0.97639 0.0
C2317 C 0.18401 0.41917 0.94792 0.0
H2318 H 0.1991 0.32938 0.9671 0.0
H2319 H 0.20105 0.3881 1.02218 0.0
S2320 S 0.15383 0.42313 0.79253 0.0
N2321 N 0.16117 0.37985 0.79885 0.0
N2322 N 0.16317 0.44399 0.85816 0.0
C2323 C 0.17272 0.41547 0.88907 0.0
C2324 C 0.17158 0.38057 0.85697 0.0
C2325 C 0.54345 0.38186 0.96444 0.0
C2326 C 0.5414 0.34737 0.93389 0.0
C2327 C 0.54317 0.41483 0.92846 0.0
C2328 C 0.54018 0.41453 0.86062 0.0
H2329 H 0.54425 0.38346 1.01713 0.0
H2330 H 0.54369 0.44061 0.95439 0.0
S2331 S 0.53491 0.33168 0.75687 0.0
N2332 N 0.53759 0.31518 0.83148 0.0
N2333 N 0.53627 0.37664 0.76387 0.0
C2334 C 0.5391 0.38014 0.82927 0.0
C2335 C 0.53993 0.34667 0.8658 0.0
loop_
_geom_bond_atom_site_label_1
_geom_bond_atom_site_label_2
_geom_bond_distance
_geom_bond_site_symmetry_2
_ccdc_geom_bond_type
Ho0 C3 2.811 . S
Ho0 O20 2.322 . S
Ho0 O22 2.378 . S
Ho0 O23 2.524 . S
Ho0 O24 2.381 . S
Ho0 O25 2.669 . S
Ho0 O27 2.346 . S
Ho0 O31 2.305 . S
Ho1 C12 2.811 . S
Ho1 O21 2.346 . S
Ho1 O25 2.305 . S
Ho1 O26 2.322 . S
Ho1 O28 2.378 . S
Ho1 O29 2.524 . S
Ho1 O30 2.381 . S
Ho1 O31 2.669 . S
C2 O20 1.259 . S
C2 O21 1.268 . S
C3 Ho0 2.811 . S
C3 C4 1.488 1_554 S
C3 O22 1.215 . S
C3 O23 1.289 . S
C4 C3 1.488 1_556 S
C4 C5 1.348 . S
C4 C9 1.413 . S
C5 C4 1.348 . S
C5 C6 1.442 . S
C5 H32 0.930 . S
C6 C5 1.442 . S
C6 C7 1.381 . S
C6 H33 0.931 . S
C7 C6 1.381 . S
C7 C8 1.321 . S
C8 C7 1.321 . S
C8 C9 1.403 . S
C8 H34 0.934 . S
C9 C4 1.413 . S
C9 C8 1.403 . S
C9 H35 0.930 . S
C10 O24 1.275 . S
C10 O25 1.256 . S
C11 O26 1.259 . S
C11 O27 1.268 . S
C12 Ho1 2.811 . S
C12 C13 1.488 . S
C12 O28 1.215 . S
C12 O29 1.289 . S
C13 C12 1.488 . S
C13 C14 1.348 . S
C13 C18 1.413 . S
C14 C13 1.348 . S
C14 C15 1.442 . S
C14 H36 0.930 . S
C15 C14 1.442 . S
C15 C16 1.381 . S
C15 H37 0.931 . S
C16 C15 1.381 . S
C16 C17 1.321 . S
C17 C16 1.321 . S
C17 C18 1.403 . S
C17 H38 0.934 . S
C18 C13 1.413 . S
C18 C17 1.403 . S
C18 H39 0.930 . S
C19 O30 1.275 . S
C19 O31 1.256 . S
O20 Ho0 2.322 . S
O20 C2 1.259 . S
O21 Ho1 2.346 . S
O21 C2 1.268 . S
O22 Ho0 2.378 . S
O22 C3 1.215 . S
O23 Ho0 2.524 . S
O23 C3 1.289 . S
O24 Ho0 2.381 . S
O24 C10 1.275 . S
O25 Ho0 2.669 . S
O25 Ho1 2.305 . S
O25 C10 1.256 . S
O26 Ho1 2.322 . S
O26 C11 1.259 . S
O27 Ho0 2.346 . S
O27 C11 1.268 . S
O28 Ho1 2.378 . S
O28 C12 1.215 . S
O29 Ho1 2.524 . S
O29 C12 1.289 . S
O30 Ho1 2.381 . S
O30 C19 1.275 . S
O31 Ho0 2.305 . S
O31 Ho1 2.669 . S
O31 C19 1.256 . S
H32 C5 0.930 . S
H33 C6 0.931 . S
H34 C8 0.934 . S
H35 C9 0.930 . S
H36 C14 0.930 . S
H37 C15 0.931 . S
H38 C17 0.934 . S
H39 C18 0.930 . S
Ho40 C43 2.811 . S
Ho40 O60 2.322 . S
Ho40 O62 2.378 . S
Ho40 O63 2.524 1_565 S
Ho40 O64 2.381 . S
Ho40 O65 2.669 . S
Ho40 O67 2.346 . S
Ho40 O71 2.305 1_565 S
Ho41 C52 2.811 . S
Ho41 O61 2.346 . S
Ho41 O65 2.305 1_545 S
Ho41 O66 2.322 . S
Ho41 O68 2.378 . S
Ho41 O69 2.524 1_545 S
Ho41 O70 2.381 . S
Ho41 O71 2.669 . S
C42 O60 1.259 . S
C42 O61 1.268 1_565 S
C43 Ho40 2.811 . S
C43 C44 1.488 1_554 S
C43 O62 1.215 . S
C43 O63 1.289 1_565 S
C44 C43 1.488 1_556 S
C44 C45 1.348 . S
C44 C49 1.413 . S
C45 C44 1.348 . S
C45 C46 1.442 . S
C45 H72 0.930 1_565 S
C46 C45 1.442 . S
C46 C47 1.381 . S
C46 H73 0.931 1_565 S
C47 C46 1.381 . S
C47 C48 1.321 . S
C48 C47 1.321 . S
C48 C49 1.403 . S
C48 H74 0.934 . S
C49 C44 1.413 . S
C49 C48 1.403 . S
C49 H75 0.930 . S
C50 O64 1.275 . S
C50 O65 1.256 . S
C51 O66 1.259 . S
C51 O67 1.268 1_545 S
C52 Ho41 2.811 . S
C52 C53 1.488 . S
C52 O68 1.215 . S
C52 O69 1.289 1_545 S
C53 C52 1.488 . S
C53 C54 1.348 . S
C53 C58 1.413 . S
C54 C53 1.348 . S
C54 C55 1.442 . S
C54 H76 0.930 1_545 S
C55 C54 1.442 . S
C55 C56 1.381 . S
C55 H77 0.931 1_545 S
C56 C55 1.381 . S
C56 C57 1.321 . S
C57 C56 1.321 . S
C57 C58 1.403 . S
C57 H78 0.934 . S
C58 C53 1.413 . S
C58 C57 1.403 . S
C58 H79 0.930 . S
C59 O70 1.275 . S
C59 O71 1.256 . S
O60 Ho40 2.322 . S
O60 C42 1.259 . S
O61 Ho41 2.346 . S
O61 C42 1.268 1_545 S
O62 Ho40 2.378 . S
O62 C43 1.215 . S
O63 Ho40 2.524 1_545 S
O63 C43 1.289 1_545 S
O64 Ho40 2.381 . S
O64 C50 1.275 . S
O65 Ho40 2.669 . S
O65 Ho41 2.305 1_565 S
O65 C50 1.256 . S
O66 Ho41 2.322 . S
O66 C51 1.259 . S
O67 Ho40 2.346 . S
O67 C51 1.268 1_565 S
O68 Ho41 2.378 . S
O68 C52 1.215 . S
O69 Ho41 2.524 1_565 S
O69 C52 1.289 1_565 S
O70 Ho41 2.381 . S
O70 C59 1.275 . S
O71 Ho40 2.305 1_545 S
O71 Ho41 2.669 . S
O71 C59 1.256 . S
H72 C45 0.930 1_545 S
H73 C46 0.931 1_545 S
H74 C48 0.934 . S
H75 C49 0.930 . S
H76 C54 0.930 1_565 S
H77 C55 0.931 1_565 S
H78 C57 0.934 . S
H79 C58 0.930 . S
Ho80 C83 2.811 . S
Ho80 O100 2.322 . S
Ho80 O102 2.378 . S
Ho80 O103 2.524 1_565 S
Ho80 O104 2.381 . S
Ho80 O105 2.669 1_554 S
Ho80 O107 2.346 . S
Ho80 O111 2.305 1_565 S
Ho81 C92 2.811 . S
Ho81 O101 2.346 1_556 S
Ho81 O105 2.305 1_545 S
Ho81 O106 2.322 . S
Ho81 O108 2.378 . S
Ho81 O109 2.524 1_545 S
Ho81 O110 2.381 1_556 S
Ho81 O111 2.669 1_556 S
C82 O100 1.259 . S
C82 O101 1.268 1_565 S
C83 Ho80 2.811 . S
C83 C84 1.488 . S
C83 O102 1.215 . S
C83 O103 1.289 1_565 S
C84 C83 1.488 . S
C84 C85 1.348 . S
C84 C89 1.413 . S
C85 C84 1.348 . S
C85 C86 1.442 . S
C85 H112 0.930 1_565 S
C86 C85 1.442 . S
C86 C87 1.381 . S
C86 H113 0.931 1_565 S
C87 C86 1.381 . S
C87 C88 1.321 . S
C88 C87 1.321 . S
C88 C89 1.403 . S
C88 H114 0.934 . S
C89 C84 1.413 . S
C89 C88 1.403 . S
C89 H115 0.930 . S
C90 O104 1.275 . S
C90 O105 1.256 1_554 S
C91 O106 1.259 . S
C91 O107 1.268 1_546 S
C92 Ho81 2.811 . S
C92 C93 1.488 . S
C92 O108 1.215 . S
C92 O109 1.289 1_545 S
C93 C92 1.488 . S
C93 C94 1.348 . S
C93 C98 1.413 . S
C94 C93 1.348 . S
C94 C95 1.442 . S
C94 H116 0.930 1_545 S
C95 C94 1.442 . S
C95 C96 1.381 . S
C95 H117 0.931 1_545 S
C96 C95 1.381 . S
C96 C97 1.321 . S
C97 C96 1.321 . S
C97 C98 1.403 . S
C97 H118 0.934 . S
C98 C93 1.413 . S
C98 C97 1.403 . S
C98 H119 0.930 . S
C99 O110 1.275 . S
C99 O111 1.256 . S
O100 Ho80 2.322 . S
O100 C82 1.259 . S
O101 Ho81 2.346 1_554 S
O101 C82 1.268 1_545 S
O102 Ho80 2.378 . S
O102 C83 1.215 . S
O103 Ho80 2.524 1_545 S
O103 C83 1.289 1_545 S
O104 Ho80 2.381 . S
O104 C90 1.275 . S
O105 Ho80 2.669 1_556 S
O105 Ho81 2.305 1_565 S
O105 C90 1.256 1_556 S
O106 Ho81 2.322 . S
O106 C91 1.259 . S
O107 Ho80 2.346 . S
O107 C91 1.268 1_564 S
O108 Ho81 2.378 . S
O108 C92 1.215 . S
O109 Ho81 2.524 1_565 S
O109 C92 1.289 1_565 S
O110 Ho81 2.381 1_554 S
O110 C99 1.275 . S
O111 Ho80 2.305 1_545 S
O111 Ho81 2.669 1_554 S
O111 C99 1.256 . S
H112 C85 0.930 1_545 S
H113 C86 0.931 1_545 S
H114 C88 0.934 . S
H115 C89 0.930 . S
H116 C94 0.930 1_565 S
H117 C95 0.931 1_565 S
H118 C97 0.934 . S
H119 C98 0.930 . S
Ho120 C123 2.811 . S
Ho120 O140 2.322 . S
Ho120 O142 2.378 . S
Ho120 O143 2.524 . S
Ho120 O144 2.381 . S
Ho120 O145 2.669 1_554 S
Ho120 O147 2.346 . S
Ho120 O151 2.305 . S
Ho121 C132 2.811 . S
Ho121 O141 2.346 1_556 S
Ho121 O145 2.305 . S
Ho121 O146 2.322 . S
Ho121 O148 2.378 . S
Ho121 O149 2.524 . S
Ho121 O150 2.381 1_556 S
Ho121 O151 2.669 1_556 S
C122 O140 1.259 . S
C122 O141 1.268 . S
C123 Ho120 2.811 . S
C123 C124 1.488 . S
C123 O142 1.215 . S
C123 O143 1.289 . S
C124 C123 1.488 . S
C124 C125 1.348 . S
C124 C129 1.413 . S
C125 C124 1.348 . S
C125 C126 1.442 . S
C125 H152 0.930 . S
C126 C125 1.442 . S
C126 C127 1.381 . S
C126 H153 0.931 . S
C127 C126 1.381 . S
C127 C128 1.321 . S
C128 C127 1.321 . S
C128 C129 1.403 . S
C128 H154 0.934 . S
C129 C124 1.413 . S
C129 C128 1.403 . S
C129 H155 0.930 . S
C130 O144 1.275 . S
C130 O145 1.256 1_554 S
C131 O146 1.259 . S
C131 O147 1.268 1_556 S
C132 Ho121 2.811 . S
C132 C133 1.488 . S
C132 O148 1.215 . S
C132 O149 1.289 . S
C133 C132 1.488 . S
C133 C134 1.348 . S
C133 C138 1.413 . S
C134 C133 1.348 . S
C134 C135 1.442 . S
C134 H156 0.930 . S
C135 C134 1.442 . S
C135 C136 1.381 . S
C135 H157 0.931 . S
C136 C135 1.381 . S
C136 C137 1.321 . S
C137 C136 1.321 . S
C137 C138 1.403 . S
C137 H158 0.934 . S
C138 C133 1.413 . S
C138 C137 1.403 . S
C138 H159 0.930 . S
C139 O150 1.275 . S
C139 O151 1.256 . S
O140 Ho120 2.322 . S
O140 C122 1.259 . S
O141 Ho121 2.346 1_554 S
O141 C122 1.268 . S
O142 Ho120 2.378 . S
O142 C123 1.215 . S
O143 Ho120 2.524 . S
O143 C123 1.289 . S
O144 Ho120 2.381 . S
O144 C130 1.275 . S
O145 Ho120 2.669 1_556 S
O145 Ho121 2.305 . S
O145 C130 1.256 1_556 S
O146 Ho121 2.322 . S
O146 C131 1.259 . S
O147 Ho120 2.346 . S
O147 C131 1.268 1_554 S
O148 Ho121 2.378 . S
O148 C132 1.215 . S
O149 Ho121 2.524 . S
O149 C132 1.289 . S
O150 Ho121 2.381 1_554 S
O150 C139 1.275 . S
O151 Ho120 2.305 . S
O151 Ho121 2.669 1_554 S
O151 C139 1.256 . S
H152 C125 0.930 . S
H153 C126 0.931 . S
H154 C128 0.934 . S
H155 C129 0.930 . S
H156 C134 0.930 . S
H157 C135 0.931 . S
H158 C137 0.934 . S
H159 C138 0.930 . S
Ho160 C163 2.811 . S
Ho160 O180 2.322 . S
Ho160 O182 2.378 . S
Ho160 O183 2.524 . S
Ho160 O184 2.381 . S
Ho160 O185 2.669 . S
Ho160 O187 2.346 . S
Ho160 O191 2.305 . S
Ho161 C172 2.811 . S
Ho161 O181 2.346 . S
Ho161 O185 2.305 . S
Ho161 O186 2.322 . S
Ho161 O188 2.378 . S
Ho161 O189 2.524 . S
Ho161 O190 2.381 . S
Ho161 O191 2.669 . S
C162 O180 1.259 . S
C162 O181 1.268 . S
C163 Ho160 2.811 . S
C163 C164 1.488 . S
C163 O182 1.215 . S
C163 O183 1.289 . S
C164 C163 1.488 . S
C164 C165 1.348 . S
C164 C169 1.413 . S
C165 C164 1.348 . S
C165 C166 1.442 . S
C165 H192 0.930 . S
C166 C165 1.442 . S
C166 C167 1.381 . S
C166 H193 0.931 . S
C167 C166 1.381 . S
C167 C168 1.321 . S
C168 C167 1.321 . S
C168 C169 1.403 . S
C168 H194 0.934 . S
C169 C164 1.413 . S
C169 C168 1.403 . S
C169 H195 0.930 . S
C170 O184 1.275 . S
C170 O185 1.256 . S
C171 O186 1.259 . S
C171 O187 1.268 . S
C172 Ho161 2.811 . S
C172 C173 1.488 1_556 S
C172 O188 1.215 . S
C172 O189 1.289 . S
C173 C172 1.488 1_554 S
C173 C174 1.348 . S
C173 C178 1.413 . S
C174 C173 1.348 . S
C174 C175 1.442 . S
C174 H196 0.930 . S
C175 C174 1.442 . S
C175 C176 1.381 . S
C175 H197 0.931 . S
C176 C175 1.381 . S
C176 C177 1.321 . S
C177 C176 1.321 . S
C177 C178 1.403 . S
C177 H198 0.934 . S
C178 C173 1.413 . S
C178 C177 1.403 . S
C178 H199 0.930 . S
C179 O190 1.275 . S
C179 O191 1.256 . S
O180 Ho160 2.322 . S
O180 C162 1.259 . S
O181 Ho161 2.346 . S
O181 C162 1.268 . S
O182 Ho160 2.378 . S
O182 C163 1.215 . S
O183 Ho160 2.524 . S
O183 C163 1.289 . S
O184 Ho160 2.381 . S
O184 C170 1.275 . S
O185 Ho160 2.669 . S
O185 Ho161 2.305 . S
O185 C170 1.256 . S
O186 Ho161 2.322 . S
O186 C171 1.259 . S
O187 Ho160 2.346 . S
O187 C171 1.268 . S
O188 Ho161 2.378 . S
O188 C172 1.215 . S
O189 Ho161 2.524 . S
O189 C172 1.289 . S
O190 Ho161 2.381 . S
O190 C179 1.275 . S
O191 Ho160 2.305 . S
O191 Ho161 2.669 . S
O191 C179 1.256 . S
H192 C165 0.930 . S
H193 C166 0.931 . S
H194 C168 0.934 . S
H195 C169 0.930 . S
H196 C174 0.930 . S
H197 C175 0.931 . S
H198 C177 0.934 . S
H199 C178 0.930 . S
Ho200 C203 2.811 . S
Ho200 O220 2.322 . S
Ho200 O222 2.378 . S
Ho200 O223 2.524 1_565 S
Ho200 O224 2.381 . S
Ho200 O225 2.669 . S
Ho200 O227 2.346 . S
Ho200 O231 2.305 1_565 S
Ho201 C212 2.811 . S
Ho201 O221 2.346 . S
Ho201 O225 2.305 1_545 S
Ho201 O226 2.322 . S
Ho201 O228 2.378 . S
Ho201 O229 2.524 1_545 S
Ho201 O230 2.381 . S
Ho201 O231 2.669 . S
C202 O220 1.259 . S
C202 O221 1.268 1_565 S
C203 Ho200 2.811 . S
C203 C204 1.488 . S
C203 O222 1.215 . S
C203 O223 1.289 1_565 S
C204 C203 1.488 . S
C204 C205 1.348 . S
C204 C209 1.413 . S
C205 C204 1.348 . S
C205 C206 1.442 . S
C205 H232 0.930 1_565 S
C206 C205 1.442 . S
C206 C207 1.381 . S
C206 H233 0.931 1_565 S
C207 C206 1.381 . S
C207 C208 1.321 . S
C208 C207 1.321 . S
C208 C209 1.403 . S
C208 H234 0.934 . S
C209 C204 1.413 . S
C209 C208 1.403 . S
C209 H235 0.930 . S
C210 O224 1.275 . S
C210 O225 1.256 . S
C211 O226 1.259 . S
C211 O227 1.268 1_545 S
C212 Ho201 2.811 . S
C212 C213 1.488 1_556 S
C212 O228 1.215 . S
C212 O229 1.289 1_545 S
C213 C212 1.488 1_554 S
C213 C214 1.348 . S
C213 C218 1.413 . S
C214 C213 1.348 . S
C214 C215 1.442 . S
C214 H236 0.930 1_545 S
C215 C214 1.442 . S
C215 C216 1.381 . S
C215 H237 0.931 1_545 S
C216 C215 1.381 . S
C216 C217 1.321 . S
C217 C216 1.321 . S
C217 C218 1.403 . S
C217 H238 0.934 . S
C218 C213 1.413 . S
C218 C217 1.403 . S
C218 H239 0.930 . S
C219 O230 1.275 . S
C219 O231 1.256 . S
O220 Ho200 2.322 . S
O220 C202 1.259 . S
O221 Ho201 2.346 . S
O221 C202 1.268 1_545 S
O222 Ho200 2.378 . S
O222 C203 1.215 . S
O223 Ho200 2.524 1_545 S
O223 C203 1.289 1_545 S
O224 Ho200 2.381 . S
O224 C210 1.275 . S
O225 Ho200 2.669 . S
O225 Ho201 2.305 1_565 S
O225 C210 1.256 . S
O226 Ho201 2.322 . S
O226 C211 1.259 . S
O227 Ho200 2.346 . S
O227 C211 1.268 1_565 S
O228 Ho201 2.378 . S
O228 C212 1.215 . S
O229 Ho201 2.524 1_565 S
O229 C212 1.289 1_565 S
O230 Ho201 2.381 . S
O230 C219 1.275 . S
O231 Ho200 2.305 1_545 S
O231 Ho201 2.669 . S
O231 C219 1.256 . S
H232 C205 0.930 1_545 S
H233 C206 0.931 1_545 S
H234 C208 0.934 . S
H235 C209 0.930 . S
H236 C214 0.930 1_565 S
H237 C215 0.931 1_565 S
H238 C217 0.934 . S
H239 C218 0.930 . S
Ho240 C243 2.811 . S
Ho240 O260 2.322 . S
Ho240 O262 2.378 . S
Ho240 O263 2.524 1_565 S
Ho240 O264 2.381 1_554 S
Ho240 O265 2.669 1_554 S
Ho240 O267 2.346 1_554 S
Ho240 O271 2.305 1_565 S
Ho241 C252 2.811 . S
Ho241 O261 2.346 . S
Ho241 O265 2.305 1_545 S
Ho241 O266 2.322 . S
Ho241 O268 2.378 . S
Ho241 O269 2.524 1_545 S
Ho241 O270 2.381 . S
Ho241 O271 2.669 1_556 S
C242 O260 1.259 . S
C242 O261 1.268 1_564 S
C243 Ho240 2.811 . S
C243 C244 1.488 . S
C243 O262 1.215 . S
C243 O263 1.289 1_565 S
C244 C243 1.488 . S
C244 C245 1.348 . S
C244 C249 1.413 . S
C245 C244 1.348 . S
C245 C246 1.442 . S
C245 H272 0.930 1_565 S
C246 C245 1.442 . S
C246 C247 1.381 . S
C246 H273 0.931 1_565 S
C247 C246 1.381 . S
C247 C248 1.321 . S
C248 C247 1.321 . S
C248 C249 1.403 . S
C248 H274 0.934 . S
C249 C244 1.413 . S
C249 C248 1.403 . S
C249 H275 0.930 . S
C250 O264 1.275 . S
C250 O265 1.256 . S
C251 O266 1.259 . S
C251 O267 1.268 1_545 S
C252 Ho241 2.811 . S
C252 C253 1.488 . S
C252 O268 1.215 . S
C252 O269 1.289 1_545 S
C253 C252 1.488 . S
C253 C254 1.348 . S
C253 C258 1.413 . S
C254 C253 1.348 . S
C254 C255 1.442 . S
C254 H276 0.930 1_545 S
C255 C254 1.442 . S
C255 C256 1.381 . S
C255 H277 0.931 1_545 S
C256 C255 1.381 . S
C256 C257 1.321 . S
C257 C256 1.321 . S
C257 C258 1.403 . S
C257 H278 0.934 . S
C258 C253 1.413 . S
C258 C257 1.403 . S
C258 H279 0.930 . S
C259 O270 1.275 . S
C259 O271 1.256 1_556 S
O260 Ho240 2.322 . S
O260 C242 1.259 . S
O261 Ho241 2.346 . S
O261 C242 1.268 1_546 S
O262 Ho240 2.378 . S
O262 C243 1.215 . S
O263 Ho240 2.524 1_545 S
O263 C243 1.289 1_545 S
O264 Ho240 2.381 1_556 S
O264 C250 1.275 . S
O265 Ho240 2.669 1_556 S
O265 Ho241 2.305 1_565 S
O265 C250 1.256 . S
O266 Ho241 2.322 . S
O266 C251 1.259 . S
O267 Ho240 2.346 1_556 S
O267 C251 1.268 1_565 S
O268 Ho241 2.378 . S
O268 C252 1.215 . S
O269 Ho241 2.524 1_565 S
O269 C252 1.289 1_565 S
O270 Ho241 2.381 . S
O270 C259 1.275 . S
O271 Ho240 2.305 1_545 S
O271 Ho241 2.669 1_554 S
O271 C259 1.256 1_554 S
H272 C245 0.930 1_545 S
H273 C246 0.931 1_545 S
H274 C248 0.934 . S
H275 C249 0.930 . S
H276 C254 0.930 1_565 S
H277 C255 0.931 1_565 S
H278 C257 0.934 . S
H279 C258 0.930 . S
Ho280 C283 2.811 . S
Ho280 O300 2.322 . S
Ho280 O302 2.378 . S
Ho280 O303 2.524 . S
Ho280 O304 2.381 1_554 S
Ho280 O305 2.669 1_554 S
Ho280 O307 2.346 1_554 S
Ho280 O311 2.305 . S
Ho281 C292 2.811 . S
Ho281 O301 2.346 . S
Ho281 O305 2.305 . S
Ho281 O306 2.322 . S
Ho281 O308 2.378 . S
Ho281 O309 2.524 . S
Ho281 O310 2.381 . S
Ho281 O311 2.669 1_556 S
C282 O300 1.259 . S
C282 O301 1.268 1_554 S
C283 Ho280 2.811 . S
C283 C284 1.488 . S
C283 O302 1.215 . S
C283 O303 1.289 . S
C284 C283 1.488 . S
C284 C285 1.348 . S
C284 C289 1.413 . S
C285 C284 1.348 . S
C285 C286 1.442 . S
C285 H312 0.930 . S
C286 C285 1.442 . S
C286 C287 1.381 . S
C286 H313 0.931 . S
C287 C286 1.381 . S
C287 C288 1.321 . S
C288 C287 1.321 . S
C288 C289 1.403 . S
C288 H314 0.934 . S
C289 C284 1.413 . S
C289 C288 1.403 . S
C289 H315 0.930 . S
C290 O304 1.275 . S
C290 O305 1.256 . S
C291 O306 1.259 . S
C291 O307 1.268 . S
C292 Ho281 2.811 . S
C292 C293 1.488 . S
C292 O308 1.215 . S
C292 O309 1.289 . S
C293 C292 1.488 . S
C293 C294 1.348 . S
C293 C298 1.413 . S
C294 C293 1.348 . S
C294 C295 1.442 . S
C294 H316 0.930 . S
C295 C294 1.442 . S
C295 C296 1.381 . S
C295 H317 0.931 . S
C296 C295 1.381 . S
C296 C297 1.321 . S
C297 C296 1.321 . S
C297 C298 1.403 . S
C297 H318 0.934 . S
C298 C293 1.413 . S
C298 C297 1.403 . S
C298 H319 0.930 . S
C299 O310 1.275 . S
C299 O311 1.256 1_556 S
O300 Ho280 2.322 . S
O300 C282 1.259 . S
O301 Ho281 2.346 . S
O301 C282 1.268 1_556 S
O302 Ho280 2.378 . S
O302 C283 1.215 . S
O303 Ho280 2.524 . S
O303 C283 1.289 . S
O304 Ho280 2.381 1_556 S
O304 C290 1.275 . S
O305 Ho280 2.669 1_556 S
O305 Ho281 2.305 . S
O305 C290 1.256 . S
O306 Ho281 2.322 . S
O306 C291 1.259 . S
O307 Ho280 2.346 1_556 S
O307 C291 1.268 . S
O308 Ho281 2.378 . S
O308 C292 1.215 . S
O309 Ho281 2.524 . S
O309 C292 1.289 . S
O310 Ho281 2.381 . S
O310 C299 1.275 . S
O311 Ho280 2.305 . S
O311 Ho281 2.669 1_554 S
O311 C299 1.256 1_554 S
H312 C285 0.930 . S
H313 C286 0.931 . S
H314 C288 0.934 . S
H315 C289 0.930 . S
H316 C294 0.930 . S
H317 C295 0.931 . S
H318 C297 0.934 . S
H319 C298 0.930 . S
Ho320 C323 2.811 . S
Ho320 O340 2.322 . S
Ho320 O342 2.378 . S
Ho320 O343 2.524 . S
Ho320 O344 2.381 . S
Ho320 O345 2.669 . S
Ho320 O347 2.346 . S
Ho320 O351 2.305 . S
Ho321 C332 2.811 . S
Ho321 O341 2.346 . S
Ho321 O345 2.305 . S
Ho321 O346 2.322 . S
Ho321 O348 2.378 . S
Ho321 O349 2.524 . S
Ho321 O350 2.381 . S
Ho321 O351 2.669 . S
C322 O340 1.259 . S
C322 O341 1.268 . S
C323 Ho320 2.811 . S
C323 C324 1.488 . S
C323 O342 1.215 . S
C323 O343 1.289 . S
C324 C323 1.488 . S
C324 C325 1.348 . S
C324 C329 1.413 . S
C325 C324 1.348 . S
C325 C326 1.442 . S
C325 H352 0.930 . S
C326 C325 1.442 . S
C326 C327 1.381 . S
C326 H353 0.931 . S
C327 C326 1.381 . S
C327 C328 1.321 . S
C328 C327 1.321 . S
C328 C329 1.403 . S
C328 H354 0.934 . S
C329 C324 1.413 . S
C329 C328 1.403 . S
C329 H355 0.930 . S
C330 O344 1.275 . S
C330 O345 1.256 . S
C331 O346 1.259 . S
C331 O347 1.268 . S
C332 Ho321 2.811 . S
C332 C333 1.488 . S
C332 O348 1.215 . S
C332 O349 1.289 . S
C333 C332 1.488 . S
C333 C334 1.348 1_556 S
C333 C338 1.413 1_556 S
C334 C333 1.348 1_554 S
C334 C335 1.442 . S
C334 H356 0.930 . S
C335 C334 1.442 . S
C335 C336 1.381 . S
C335 H357 0.931 . S
C336 C335 1.381 . S
C336 C337 1.321 . S
C337 C336 1.321 . S
C337 C338 1.403 . S
C337 H358 0.934 . S
C338 C333 1.413 1_554 S
C338 C337 1.403 . S
C338 H359 0.930 1_554 S
C339 O350 1.275 . S
C339 O351 1.256 . S
O340 Ho320 2.322 . S
O340 C322 1.259 . S
O341 Ho321 2.346 . S
O341 C322 1.268 . S
O342 Ho320 2.378 . S
O342 C323 1.215 . S
O343 Ho320 2.524 . S
O343 C323 1.289 . S
O344 Ho320 2.381 . S
O344 C330 1.275 . S
O345 Ho320 2.669 . S
O345 Ho321 2.305 . S
O345 C330 1.256 . S
O346 Ho321 2.322 . S
O346 C331 1.259 . S
O347 Ho320 2.346 . S
O347 C331 1.268 . S
O348 Ho321 2.378 . S
O348 C332 1.215 . S
O349 Ho321 2.524 . S
O349 C332 1.289 . S
O350 Ho321 2.381 . S
O350 C339 1.275 . S
O351 Ho320 2.305 . S
O351 Ho321 2.669 . S
O351 C339 1.256 . S
H352 C325 0.930 . S
H353 C326 0.931 . S
H354 C328 0.934 . S
H355 C329 0.930 . S
H356 C334 0.930 . S
H357 C335 0.931 . S
H358 C337 0.934 . S
H359 C338 0.930 1_556 S
Ho360 C363 2.811 . S
Ho360 O380 2.322 . S
Ho360 O382 2.378 . S
Ho360 O383 2.524 . S
Ho360 O384 2.381 . S
Ho360 O385 2.669 . S
Ho360 O387 2.346 . S
Ho360 O391 2.305 . S
Ho361 C372 2.811 . S
Ho361 O381 2.346 . S
Ho361 O385 2.305 . S
Ho361 O386 2.322 . S
Ho361 O388 2.378 . S
Ho361 O389 2.524 . S
Ho361 O390 2.381 . S
Ho361 O391 2.669 . S
C362 O380 1.259 . S
C362 O381 1.268 . S
C363 Ho360 2.811 . S
C363 C364 1.488 . S
C363 O382 1.215 . S
C363 O383 1.289 . S
C364 C363 1.488 . S
C364 C365 1.348 . S
C364 C369 1.413 . S
C365 C364 1.348 . S
C365 C366 1.442 . S
C365 H392 0.930 . S
C366 C365 1.442 . S
C366 C367 1.381 . S
C366 H393 0.931 . S
C367 C366 1.381 . S
C367 C368 1.321 . S
C368 C367 1.321 . S
C368 C369 1.403 . S
C368 H394 0.934 . S
C369 C364 1.413 . S
C369 C368 1.403 . S
C369 H395 0.930 . S
C370 O384 1.275 . S
C370 O385 1.256 . S
C371 O386 1.259 . S
C371 O387 1.268 . S
C372 Ho361 2.811 . S
C372 C373 1.488 . S
C372 O388 1.215 . S
C372 O389 1.289 . S
C373 C372 1.488 . S
C373 C374 1.348 1_556 S
C373 C378 1.413 1_556 S
C374 C373 1.348 1_554 S
C374 C375 1.442 . S
C374 H396 0.930 . S
C375 C374 1.442 . S
C375 C376 1.381 . S
C375 H397 0.931 . S
C376 C375 1.381 . S
C376 C377 1.321 . S
C377 C376 1.321 . S
C377 C378 1.403 . S
C377 H398 0.934 . S
C378 C373 1.413 1_554 S
C378 C377 1.403 . S
C378 H399 0.930 1_554 S
C379 O390 1.275 . S
C379 O391 1.256 . S
O380 Ho360 2.322 . S
O380 C362 1.259 . S
O381 Ho361 2.346 . S
O381 C362 1.268 . S
O382 Ho360 2.378 . S
O382 C363 1.215 . S
O383 Ho360 2.524 . S
O383 C363 1.289 . S
O384 Ho360 2.381 . S
O384 C370 1.275 . S
O385 Ho360 2.669 . S
O385 Ho361 2.305 . S
O385 C370 1.256 . S
O386 Ho361 2.322 . S
O386 C371 1.259 . S
O387 Ho360 2.346 . S
O387 C371 1.268 . S
O388 Ho361 2.378 . S
O388 C372 1.215 . S
O389 Ho361 2.524 . S
O389 C372 1.289 . S
O390 Ho361 2.381 . S
O390 C379 1.275 . S
O391 Ho360 2.305 . S
O391 Ho361 2.669 . S
O391 C379 1.256 . S
H392 C365 0.930 . S
H393 C366 0.931 . S
H394 C368 0.934 . S
H395 C369 0.930 . S
H396 C374 0.930 . S
H397 C375 0.931 . S
H398 C377 0.934 . S
H399 C378 0.930 1_556 S
Ho400 C403 2.811 . S
Ho400 O420 2.322 . S
Ho400 O422 2.378 . S
Ho400 O423 2.524 . S
Ho400 O424 2.381 . S
Ho400 O425 2.669 . S
Ho400 O427 2.346 . S
Ho400 O431 2.305 . S
Ho401 C412 2.811 . S
Ho401 O421 2.346 . S
Ho401 O425 2.305 . S
Ho401 O426 2.322 . S
Ho401 O428 2.378 . S
Ho401 O429 2.524 . S
Ho401 O430 2.381 . S
Ho401 O431 2.669 . S
C402 O420 1.259 . S
C402 O421 1.268 . S
C403 Ho400 2.811 . S
C403 C404 1.488 . S
C403 O422 1.215 . S
C403 O423 1.289 . S
C404 C403 1.488 . S
C404 C405 1.348 . S
C404 C409 1.413 . S
C405 C404 1.348 . S
C405 C406 1.442 . S
C405 H432 0.930 . S
C406 C405 1.442 . S
C406 C407 1.381 . S
C406 H433 0.931 . S
C407 C406 1.381 . S
C407 C408 1.321 . S
C408 C407 1.321 . S
C408 C409 1.403 . S
C408 H434 0.934 . S
C409 C404 1.413 . S
C409 C408 1.403 . S
C409 H435 0.930 . S
C410 O424 1.275 . S
C410 O425 1.256 . S
C411 O426 1.259 . S
C411 O427 1.268 . S
C412 Ho401 2.811 . S
C412 C413 1.488 . S
C412 O428 1.215 . S
C412 O429 1.289 . S
C413 C412 1.488 . S
C413 C414 1.348 . S
C413 C418 1.413 . S
C414 C413 1.348 . S
C414 C415 1.442 . S
C414 H436 0.930 . S
C415 C414 1.442 . S
C415 C416 1.381 . S
C415 H437 0.931 . S
C416 C415 1.381 . S
C416 C417 1.321 . S
C417 C416 1.321 . S
C417 C418 1.403 . S
C417 H438 0.934 . S
C418 C413 1.413 . S
C418 C417 1.403 . S
C418 H439 0.930 . S
C419 O430 1.275 . S
C419 O431 1.256 . S
O420 Ho400 2.322 . S
O420 C402 1.259 . S
O421 Ho401 2.346 . S
O421 C402 1.268 . S
O422 Ho400 2.378 . S
O422 C403 1.215 . S
O423 Ho400 2.524 . S
O423 C403 1.289 . S
O424 Ho400 2.381 . S
O424 C410 1.275 . S
O425 Ho400 2.669 . S
O425 Ho401 2.305 . S
O425 C410 1.256 . S
O426 Ho401 2.322 . S
O426 C411 1.259 . S
O427 Ho400 2.346 . S
O427 C411 1.268 . S
O428 Ho401 2.378 . S
O428 C412 1.215 . S
O429 Ho401 2.524 . S
O429 C412 1.289 . S
O430 Ho401 2.381 . S
O430 C419 1.275 . S
O431 Ho400 2.305 . S
O431 Ho401 2.669 . S
O431 C419 1.256 . S
H432 C405 0.930 . S
H433 C406 0.931 . S
H434 C408 0.934 . S
H435 C409 0.930 . S
H436 C414 0.930 . S
H437 C415 0.931 . S
H438 C417 0.934 . S
H439 C418 0.930 . S
Ho440 C443 2.811 . S
Ho440 O460 2.322 . S
Ho440 O462 2.378 . S
Ho440 O463 2.524 . S
Ho440 O464 2.381 . S
Ho440 O465 2.669 . S
Ho440 O467 2.346 . S
Ho440 O471 2.305 . S
Ho441 C452 2.811 . S
Ho441 O461 2.346 . S
Ho441 O465 2.305 . S
Ho441 O466 2.322 . S
Ho441 O468 2.378 . S
Ho441 O469 2.524 . S
Ho441 O470 2.381 . S
Ho441 O471 2.669 . S
C442 O460 1.259 . S
C442 O461 1.268 . S
C443 Ho440 2.811 . S
C443 C444 1.488 . S
C443 O462 1.215 . S
C443 O463 1.289 . S
C444 C443 1.488 . S
C444 C445 1.348 . S
C444 C449 1.413 . S
C445 C444 1.348 . S
C445 C446 1.442 . S
C445 H472 0.930 . S
C446 C445 1.442 . S
C446 C447 1.381 . S
C446 H473 0.931 . S
C447 C446 1.381 . S
C447 C448 1.321 . S
C448 C447 1.321 . S
C448 C449 1.403 . S
C448 H474 0.934 . S
C449 C444 1.413 . S
C449 C448 1.403 . S
C449 H475 0.930 . S
C450 O464 1.275 . S
C450 O465 1.256 . S
C451 O466 1.259 . S
C451 O467 1.268 . S
C452 Ho441 2.811 . S
C452 C453 1.488 . S
C452 O468 1.215 . S
C452 O469 1.289 . S
C453 C452 1.488 . S
C453 C454 1.348 . S
C453 C458 1.413 . S
C454 C453 1.348 . S
C454 C455 1.442 . S
C454 H476 0.930 . S
C455 C454 1.442 . S
C455 C456 1.381 . S
C455 H477 0.931 . S
C456 C455 1.381 . S
C456 C457 1.321 . S
C457 C456 1.321 . S
C457 C458 1.403 . S
C457 H478 0.934 . S
C458 C453 1.413 . S
C458 C457 1.403 . S
C458 H479 0.930 . S
C459 O470 1.275 . S
C459 O471 1.256 . S
O460 Ho440 2.322 . S
O460 C442 1.259 . S
O461 Ho441 2.346 . S
O461 C442 1.268 . S
O462 Ho440 2.378 . S
O462 C443 1.215 . S
O463 Ho440 2.524 . S
O463 C443 1.289 . S
O464 Ho440 2.381 . S
O464 C450 1.275 . S
O465 Ho440 2.669 . S
O465 Ho441 2.305 . S
O465 C450 1.256 . S
O466 Ho441 2.322 . S
O466 C451 1.259 . S
O467 Ho440 2.346 . S
O467 C451 1.268 . S
O468 Ho441 2.378 . S
O468 C452 1.215 . S
O469 Ho441 2.524 . S
O469 C452 1.289 . S
O470 Ho441 2.381 . S
O470 C459 1.275 . S
O471 Ho440 2.305 . S
O471 Ho441 2.669 . S
O471 C459 1.256 . S
H472 C445 0.930 . S
H473 C446 0.931 . S
H474 C448 0.934 . S
H475 C449 0.930 . S
H476 C454 0.930 . S
H477 C455 0.931 . S
H478 C457 0.934 . S
H479 C458 0.930 . S
Ho480 C483 2.811 . S
Ho480 O500 2.322 . S
Ho480 O502 2.378 . S
Ho480 O503 2.524 . S
Ho480 O504 2.381 . S
Ho480 O505 2.669 . S
Ho480 O507 2.346 . S
Ho480 O511 2.305 . S
Ho481 C492 2.811 . S
Ho481 O501 2.346 . S
Ho481 O505 2.305 . S
Ho481 O506 2.322 . S
Ho481 O508 2.378 . S
Ho481 O509 2.524 . S
Ho481 O510 2.381 . S
Ho481 O511 2.669 . S
C482 O500 1.259 . S
C482 O501 1.268 . S
C483 Ho480 2.811 . S
C483 C484 1.488 . S
C483 O502 1.215 . S
C483 O503 1.289 . S
C484 C483 1.488 . S
C484 C485 1.348 1_554 S
C484 C489 1.413 1_554 S
C485 C484 1.348 1_556 S
C485 C486 1.442 . S
C485 H512 0.930 . S
C486 C485 1.442 . S
C486 C487 1.381 . S
C486 H513 0.931 . S
C487 C486 1.381 . S
C487 C488 1.321 . S
C488 C487 1.321 . S
C488 C489 1.403 . S
C488 H514 0.934 . S
C489 C484 1.413 1_556 S
C489 C488 1.403 . S
C489 H515 0.930 1_556 S
C490 O504 1.275 . S
C490 O505 1.256 . S
C491 O506 1.259 . S
C491 O507 1.268 . S
C492 Ho481 2.811 . S
C492 C493 1.488 . S
C492 O508 1.215 . S
C492 O509 1.289 . S
C493 C492 1.488 . S
C493 C494 1.348 . S
C493 C498 1.413 . S
C494 C493 1.348 . S
C494 C495 1.442 . S
C494 H516 0.930 . S
C495 C494 1.442 . S
C495 C496 1.381 . S
C495 H517 0.931 . S
C496 C495 1.381 . S
C496 C497 1.321 . S
C497 C496 1.321 . S
C497 C498 1.403 . S
C497 H518 0.934 . S
C498 C493 1.413 . S
C498 C497 1.403 . S
C498 H519 0.930 . S
C499 O510 1.275 . S
C499 O511 1.256 . S
O500 Ho480 2.322 . S
O500 C482 1.259 . S
O501 Ho481 2.346 . S
O501 C482 1.268 . S
O502 Ho480 2.378 . S
O502 C483 1.215 . S
O503 Ho480 2.524 . S
O503 C483 1.289 . S
O504 Ho480 2.381 . S
O504 C490 1.275 . S
O505 Ho480 2.669 . S
O505 Ho481 2.305 . S
O505 C490 1.256 . S
O506 Ho481 2.322 . S
O506 C491 1.259 . S
O507 Ho480 2.346 . S
O507 C491 1.268 . S
O508 Ho481 2.378 . S
O508 C492 1.215 . S
O509 Ho481 2.524 . S
O509 C492 1.289 . S
O510 Ho481 2.381 . S
O510 C499 1.275 . S
O511 Ho480 2.305 . S
O511 Ho481 2.669 . S
O511 C499 1.256 . S
H512 C485 0.930 . S
H513 C486 0.931 . S
H514 C488 0.934 . S
H515 C489 0.930 1_554 S
H516 C494 0.930 . S
H517 C495 0.931 . S
H518 C497 0.934 . S
H519 C498 0.930 . S
Ho520 C523 2.811 . S
Ho520 O540 2.322 . S
Ho520 O542 2.378 . S
Ho520 O543 2.524 . S
Ho520 O544 2.381 . S
Ho520 O545 2.669 . S
Ho520 O547 2.346 . S
Ho520 O551 2.305 . S
Ho521 C532 2.811 . S
Ho521 O541 2.346 . S
Ho521 O545 2.305 . S
Ho521 O546 2.322 . S
Ho521 O548 2.378 . S
Ho521 O549 2.524 . S
Ho521 O550 2.381 . S
Ho521 O551 2.669 . S
C522 O540 1.259 . S
C522 O541 1.268 . S
C523 Ho520 2.811 . S
C523 C524 1.488 . S
C523 O542 1.215 . S
C523 O543 1.289 . S
C524 C523 1.488 . S
C524 C525 1.348 1_554 S
C524 C529 1.413 1_554 S
C525 C524 1.348 1_556 S
C525 C526 1.442 . S
C525 H552 0.930 . S
C526 C525 1.442 . S
C526 C527 1.381 . S
C526 H553 0.931 . S
C527 C526 1.381 . S
C527 C528 1.321 . S
C528 C527 1.321 . S
C528 C529 1.403 . S
C528 H554 0.934 . S
C529 C524 1.413 1_556 S
C529 C528 1.403 . S
C529 H555 0.930 1_556 S
C530 O544 1.275 . S
C530 O545 1.256 . S
C531 O546 1.259 . S
C531 O547 1.268 . S
C532 Ho521 2.811 . S
C532 C533 1.488 . S
C532 O548 1.215 . S
C532 O549 1.289 . S
C533 C532 1.488 . S
C533 C534 1.348 . S
C533 C538 1.413 . S
C534 C533 1.348 . S
C534 C535 1.442 . S
C534 H556 0.930 . S
C535 C534 1.442 . S
C535 C536 1.381 . S
C535 H557 0.931 . S
C536 C535 1.381 . S
C536 C537 1.321 . S
C537 C536 1.321 . S
C537 C538 1.403 . S
C537 H558 0.934 . S
C538 C533 1.413 . S
C538 C537 1.403 . S
C538 H559 0.930 . S
C539 O550 1.275 . S
C539 O551 1.256 . S
O540 Ho520 2.322 . S
O540 C522 1.259 . S
O541 Ho521 2.346 . S
O541 C522 1.268 . S
O542 Ho520 2.378 . S
O542 C523 1.215 . S
O543 Ho520 2.524 . S
O543 C523 1.289 . S
O544 Ho520 2.381 . S
O544 C530 1.275 . S
O545 Ho520 2.669 . S
O545 Ho521 2.305 . S
O545 C530 1.256 . S
O546 Ho521 2.322 . S
O546 C531 1.259 . S
O547 Ho520 2.346 . S
O547 C531 1.268 . S
O548 Ho521 2.378 . S
O548 C532 1.215 . S
O549 Ho521 2.524 . S
O549 C532 1.289 . S
O550 Ho521 2.381 . S
O550 C539 1.275 . S
O551 Ho520 2.305 . S
O551 Ho521 2.669 . S
O551 C539 1.256 . S
H552 C525 0.930 . S
H553 C526 0.931 . S
H554 C528 0.934 . S
H555 C529 0.930 1_554 S
H556 C534 0.930 . S
H557 C535 0.931 . S
H558 C537 0.934 . S
H559 C538 0.930 . S
Ho560 C563 2.811 . S
Ho560 O580 2.322 . S
Ho560 O582 2.378 . S
Ho560 O583 2.524 . S
Ho560 O584 2.381 . S
Ho560 O585 2.669 . S
Ho560 O587 2.346 . S
Ho560 O591 2.305 . S
Ho561 C572 2.811 . S
Ho561 O581 2.346 . S
Ho561 O585 2.305 . S
Ho561 O586 2.322 . S
Ho561 O588 2.378 . S
Ho561 O589 2.524 . S
Ho561 O590 2.381 . S
Ho561 O591 2.669 . S
C562 O580 1.259 . S
C562 O581 1.268 . S
C563 Ho560 2.811 . S
C563 C564 1.488 . S
C563 O582 1.215 . S
C563 O583 1.289 . S
C564 C563 1.488 . S
C564 C565 1.348 . S
C564 C569 1.413 . S
C565 C564 1.348 . S
C565 C566 1.442 . S
C565 H592 0.930 . S
C566 C565 1.442 . S
C566 C567 1.381 . S
C566 H593 0.931 . S
C567 C566 1.381 . S
C567 C568 1.321 . S
C568 C567 1.321 . S
C568 C569 1.403 . S
C568 H594 0.934 . S
C569 C564 1.413 . S
C569 C568 1.403 . S
C569 H595 0.930 . S
C570 O584 1.275 . S
C570 O585 1.256 . S
C571 O586 1.259 . S
C571 O587 1.268 . S
C572 Ho561 2.811 . S
C572 C573 1.488 . S
C572 O588 1.215 . S
C572 O589 1.289 . S
C573 C572 1.488 . S
C573 C574 1.348 . S
C573 C578 1.413 . S
C574 C573 1.348 . S
C574 C575 1.442 . S
C574 H596 0.930 . S
C575 C574 1.442 . S
C575 C576 1.381 . S
C575 H597 0.931 . S
C576 C575 1.381 . S
C576 C577 1.321 . S
C577 C576 1.321 . S
C577 C578 1.403 . S
C577 H598 0.934 . S
C578 C573 1.413 . S
C578 C577 1.403 . S
C578 H599 0.930 . S
C579 O590 1.275 . S
C579 O591 1.256 . S
O580 Ho560 2.322 . S
O580 C562 1.259 . S
O581 Ho561 2.346 . S
O581 C562 1.268 . S
O582 Ho560 2.378 . S
O582 C563 1.215 . S
O583 Ho560 2.524 . S
O583 C563 1.289 . S
O584 Ho560 2.381 . S
O584 C570 1.275 . S
O585 Ho560 2.669 . S
O585 Ho561 2.305 . S
O585 C570 1.256 . S
O586 Ho561 2.322 . S
O586 C571 1.259 . S
O587 Ho560 2.346 . S
O587 C571 1.268 . S
O588 Ho561 2.378 . S
O588 C572 1.215 . S
O589 Ho561 2.524 . S
O589 C572 1.289 . S
O590 Ho561 2.381 . S
O590 C579 1.275 . S
O591 Ho560 2.305 . S
O591 Ho561 2.669 . S
O591 C579 1.256 . S
H592 C565 0.930 . S
H593 C566 0.931 . S
H594 C568 0.934 . S
H595 C569 0.930 . S
H596 C574 0.930 . S
H597 C575 0.931 . S
H598 C577 0.934 . S
H599 C578 0.930 . S
Ho600 C603 2.811 . S
Ho600 O620 2.322 . S
Ho600 O622 2.378 . S
Ho600 O623 2.524 . S
Ho600 O624 2.381 . S
Ho600 O625 2.669 . S
Ho600 O627 2.346 . S
Ho600 O631 2.305 . S
Ho601 C612 2.811 . S
Ho601 O621 2.346 . S
Ho601 O625 2.305 . S
Ho601 O626 2.322 . S
Ho601 O628 2.378 . S
Ho601 O629 2.524 . S
Ho601 O630 2.381 . S
Ho601 O631 2.669 . S
C602 O620 1.259 . S
C602 O621 1.268 . S
C603 Ho600 2.811 . S
C603 C604 1.488 . S
C603 O622 1.215 . S
C603 O623 1.289 . S
C604 C603 1.488 . S
C604 C605 1.348 . S
C604 C609 1.413 . S
C605 C604 1.348 . S
C605 C606 1.442 . S
C605 H632 0.930 . S
C606 C605 1.442 . S
C606 C607 1.381 . S
C606 H633 0.931 . S
C607 C606 1.381 . S
C607 C608 1.321 . S
C608 C607 1.321 . S
C608 C609 1.403 . S
C608 H634 0.934 . S
C609 C604 1.413 . S
C609 C608 1.403 . S
C609 H635 0.930 . S
C610 O624 1.275 . S
C610 O625 1.256 . S
C611 O626 1.259 . S
C611 O627 1.268 . S
C612 Ho601 2.811 . S
C612 C613 1.488 . S
C612 O628 1.215 . S
C612 O629 1.289 . S
C613 C612 1.488 . S
C613 C614 1.348 . S
C613 C618 1.413 . S
C614 C613 1.348 . S
C614 C615 1.442 . S
C614 H636 0.930 . S
C615 C614 1.442 . S
C615 C616 1.381 . S
C615 H637 0.931 . S
C616 C615 1.381 . S
C616 C617 1.321 . S
C617 C616 1.321 . S
C617 C618 1.403 . S
C617 H638 0.934 . S
C618 C613 1.413 . S
C618 C617 1.403 . S
C618 H639 0.930 . S
C619 O630 1.275 . S
C619 O631 1.256 . S
O620 Ho600 2.322 . S
O620 C602 1.259 . S
O621 Ho601 2.346 . S
O621 C602 1.268 . S
O622 Ho600 2.378 . S
O622 C603 1.215 . S
O623 Ho600 2.524 . S
O623 C603 1.289 . S
O624 Ho600 2.381 . S
O624 C610 1.275 . S
O625 Ho600 2.669 . S
O625 Ho601 2.305 . S
O625 C610 1.256 . S
O626 Ho601 2.322 . S
O626 C611 1.259 . S
O627 Ho600 2.346 . S
O627 C611 1.268 . S
O628 Ho601 2.378 . S
O628 C612 1.215 . S
O629 Ho601 2.524 . S
O629 C612 1.289 . S
O630 Ho601 2.381 . S
O630 C619 1.275 . S
O631 Ho600 2.305 . S
O631 Ho601 2.669 . S
O631 C619 1.256 . S
H632 C605 0.930 . S
H633 C606 0.931 . S
H634 C608 0.934 . S
H635 C609 0.930 . S
H636 C614 0.930 . S
H637 C615 0.931 . S
H638 C617 0.934 . S
H639 C618 0.930 . S
Ho640 C643 2.811 . S
Ho640 O660 2.322 . S
Ho640 O662 2.378 . S
Ho640 O663 2.524 . S
Ho640 O664 2.381 . S
Ho640 O665 2.669 . S
Ho640 O667 2.346 . S
Ho640 O671 2.305 . S
Ho641 C652 2.811 . S
Ho641 O661 2.346 . S
Ho641 O665 2.305 . S
Ho641 O666 2.322 . S
Ho641 O668 2.378 . S
Ho641 O669 2.524 . S
Ho641 O670 2.381 . S
Ho641 O671 2.669 . S
C642 O660 1.259 . S
C642 O661 1.268 . S
C643 Ho640 2.811 . S
C643 C644 1.488 . S
C643 O662 1.215 . S
C643 O663 1.289 . S
C644 C643 1.488 . S
C644 C645 1.348 . S
C644 C649 1.413 . S
C645 C644 1.348 . S
C645 C646 1.442 . S
C645 H672 0.930 . S
C646 C645 1.442 . S
C646 C647 1.381 . S
C646 H673 0.931 . S
C647 C646 1.381 . S
C647 C648 1.321 . S
C648 C647 1.321 . S
C648 C649 1.403 . S
C648 H674 0.934 . S
C649 C644 1.413 . S
C649 C648 1.403 . S
C649 H675 0.930 . S
C650 O664 1.275 . S
C650 O665 1.256 . S
C651 O666 1.259 . S
C651 O667 1.268 . S
C652 Ho641 2.811 . S
C652 C653 1.488 . S
C652 O668 1.215 . S
C652 O669 1.289 . S
C653 C652 1.488 . S
C653 C654 1.348 1_556 S
C653 C658 1.413 1_556 S
C654 C653 1.348 1_554 S
C654 C655 1.442 . S
C654 H676 0.930 . S
C655 C654 1.442 . S
C655 C656 1.381 . S
C655 H677 0.931 . S
C656 C655 1.381 . S
C656 C657 1.321 . S
C657 C656 1.321 . S
C657 C658 1.403 . S
C657 H678 0.934 . S
C658 C653 1.413 1_554 S
C658 C657 1.403 . S
C658 H679 0.930 1_554 S
C659 O670 1.275 . S
C659 O671 1.256 . S
O660 Ho640 2.322 . S
O660 C642 1.259 . S
O661 Ho641 2.346 . S
O661 C642 1.268 . S
O662 Ho640 2.378 . S
O662 C643 1.215 . S
O663 Ho640 2.524 . S
O663 C643 1.289 . S
O664 Ho640 2.381 . S
O664 C650 1.275 . S
O665 Ho640 2.669 . S
O665 Ho641 2.305 . S
O665 C650 1.256 . S
O666 Ho641 2.322 . S
O666 C651 1.259 . S
O667 Ho640 2.346 . S
O667 C651 1.268 . S
O668 Ho641 2.378 . S
O668 C652 1.215 . S
O669 Ho641 2.524 . S
O669 C652 1.289 . S
O670 Ho641 2.381 . S
O670 C659 1.275 . S
O671 Ho640 2.305 . S
O671 Ho641 2.669 . S
O671 C659 1.256 . S
H672 C645 0.930 . S
H673 C646 0.931 . S
H674 C648 0.934 . S
H675 C649 0.930 . S
H676 C654 0.930 . S
H677 C655 0.931 . S
H678 C657 0.934 . S
H679 C658 0.930 1_556 S
Ho680 C683 2.811 . S
Ho680 O700 2.322 . S
Ho680 O702 2.378 . S
Ho680 O703 2.524 1_565 S
Ho680 O704 2.381 . S
Ho680 O705 2.669 . S
Ho680 O707 2.346 . S
Ho680 O711 2.305 1_565 S
Ho681 C692 2.811 . S
Ho681 O701 2.346 . S
Ho681 O705 2.305 1_545 S
Ho681 O706 2.322 . S
Ho681 O708 2.378 . S
Ho681 O709 2.524 1_545 S
Ho681 O710 2.381 . S
Ho681 O711 2.669 . S
C682 O700 1.259 . S
C682 O701 1.268 1_565 S
C683 Ho680 2.811 . S
C683 C684 1.488 . S
C683 O702 1.215 . S
C683 O703 1.289 1_565 S
C684 C683 1.488 . S
C684 C685 1.348 . S
C684 C689 1.413 . S
C685 C684 1.348 . S
C685 C686 1.442 . S
C685 H712 0.930 1_565 S
C686 C685 1.442 . S
C686 C687 1.381 . S
C686 H713 0.931 1_565 S
C687 C686 1.381 . S
C687 C688 1.321 . S
C688 C687 1.321 . S
C688 C689 1.403 . S
C688 H714 0.934 . S
C689 C684 1.413 . S
C689 C688 1.403 . S
C689 H715 0.930 . S
C690 O704 1.275 . S
C690 O705 1.256 . S
C691 O706 1.259 . S
C691 O707 1.268 1_545 S
C692 Ho681 2.811 . S
C692 C693 1.488 . S
C692 O708 1.215 . S
C692 O709 1.289 1_545 S
C693 C692 1.488 . S
C693 C694 1.348 1_556 S
C693 C698 1.413 1_556 S
C694 C693 1.348 1_554 S
C694 C695 1.442 . S
C694 H716 0.930 1_545 S
C695 C694 1.442 . S
C695 C696 1.381 . S
C695 H717 0.931 1_545 S
C696 C695 1.381 . S
C696 C697 1.321 . S
C697 C696 1.321 . S
C697 C698 1.403 . S
C697 H718 0.934 . S
C698 C693 1.413 1_554 S
C698 C697 1.403 . S
C698 H719 0.930 1_554 S
C699 O710 1.275 . S
C699 O711 1.256 . S
O700 Ho680 2.322 . S
O700 C682 1.259 . S
O701 Ho681 2.346 . S
O701 C682 1.268 1_545 S
O702 Ho680 2.378 . S
O702 C683 1.215 . S
O703 Ho680 2.524 1_545 S
O703 C683 1.289 1_545 S
O704 Ho680 2.381 . S
O704 C690 1.275 . S
O705 Ho680 2.669 . S
O705 Ho681 2.305 1_565 S
O705 C690 1.256 . S
O706 Ho681 2.322 . S
O706 C691 1.259 . S
O707 Ho680 2.346 . S
O707 C691 1.268 1_565 S
O708 Ho681 2.378 . S
O708 C692 1.215 . S
O709 Ho681 2.524 1_565 S
O709 C692 1.289 1_565 S
O710 Ho681 2.381 . S
O710 C699 1.275 . S
O711 Ho680 2.305 1_545 S
O711 Ho681 2.669 . S
O711 C699 1.256 . S
H712 C685 0.930 1_545 S
H713 C686 0.931 1_545 S
H714 C688 0.934 . S
H715 C689 0.930 . S
H716 C694 0.930 1_565 S
H717 C695 0.931 1_565 S
H718 C697 0.934 . S
H719 C698 0.930 1_556 S
Ho720 C723 2.811 . S
Ho720 O740 2.322 . S
Ho720 O742 2.378 . S
Ho720 O743 2.524 1_565 S
Ho720 O744 2.381 . S
Ho720 O745 2.669 . S
Ho720 O747 2.346 . S
Ho720 O751 2.305 1_565 S
Ho721 C732 2.811 . S
Ho721 O741 2.346 . S
Ho721 O745 2.305 1_545 S
Ho721 O746 2.322 . S
Ho721 O748 2.378 . S
Ho721 O749 2.524 1_545 S
Ho721 O750 2.381 . S
Ho721 O751 2.669 . S
C722 O740 1.259 . S
C722 O741 1.268 1_565 S
C723 Ho720 2.811 . S
C723 C724 1.488 . S
C723 O742 1.215 . S
C723 O743 1.289 1_565 S
C724 C723 1.488 . S
C724 C725 1.348 . S
C724 C729 1.413 . S
C725 C724 1.348 . S
C725 C726 1.442 . S
C725 H752 0.930 1_565 S
C726 C725 1.442 . S
C726 C727 1.381 . S
C726 H753 0.931 1_565 S
C727 C726 1.381 . S
C727 C728 1.321 . S
C728 C727 1.321 . S
C728 C729 1.403 . S
C728 H754 0.934 . S
C729 C724 1.413 . S
C729 C728 1.403 . S
C729 H755 0.930 . S
C730 O744 1.275 . S
C730 O745 1.256 . S
C731 O746 1.259 . S
C731 O747 1.268 1_545 S
C732 Ho721 2.811 . S
C732 C733 1.488 . S
C732 O748 1.215 . S
C732 O749 1.289 1_545 S
C733 C732 1.488 . S
C733 C734 1.348 . S
C733 C738 1.413 . S
C734 C733 1.348 . S
C734 C735 1.442 . S
C734 H756 0.930 1_545 S
C735 C734 1.442 . S
C735 C736 1.381 . S
C735 H757 0.931 1_545 S
C736 C735 1.381 . S
C736 C737 1.321 . S
C737 C736 1.321 . S
C737 C738 1.403 . S
C737 H758 0.934 . S
C738 C733 1.413 . S
C738 C737 1.403 . S
C738 H759 0.930 . S
C739 O750 1.275 . S
C739 O751 1.256 . S
O740 Ho720 2.322 . S
O740 C722 1.259 . S
O741 Ho721 2.346 . S
O741 C722 1.268 1_545 S
O742 Ho720 2.378 . S
O742 C723 1.215 . S
O743 Ho720 2.524 1_545 S
O743 C723 1.289 1_545 S
O744 Ho720 2.381 . S
O744 C730 1.275 . S
O745 Ho720 2.669 . S
O745 Ho721 2.305 1_565 S
O745 C730 1.256 . S
O746 Ho721 2.322 . S
O746 C731 1.259 . S
O747 Ho720 2.346 . S
O747 C731 1.268 1_565 S
O748 Ho721 2.378 . S
O748 C732 1.215 . S
O749 Ho721 2.524 1_565 S
O749 C732 1.289 1_565 S
O750 Ho721 2.381 . S
O750 C739 1.275 . S
O751 Ho720 2.305 1_545 S
O751 Ho721 2.669 . S
O751 C739 1.256 . S
H752 C725 0.930 1_545 S
H753 C726 0.931 1_545 S
H754 C728 0.934 . S
H755 C729 0.930 . S
H756 C734 0.930 1_565 S
H757 C735 0.931 1_565 S
H758 C737 0.934 . S
H759 C738 0.930 . S
Ho760 C763 2.811 . S
Ho760 O780 2.322 . S
Ho760 O782 2.378 . S
Ho760 O783 2.524 . S
Ho760 O784 2.381 . S
Ho760 O785 2.669 . S
Ho760 O787 2.346 . S
Ho760 O791 2.305 . S
Ho761 C772 2.811 . S
Ho761 O781 2.346 . S
Ho761 O785 2.305 . S
Ho761 O786 2.322 . S
Ho761 O788 2.378 . S
Ho761 O789 2.524 . S
Ho761 O790 2.381 . S
Ho761 O791 2.669 . S
C762 O780 1.259 . S
C762 O781 1.268 . S
C763 Ho760 2.811 . S
C763 C764 1.488 . S
C763 O782 1.215 . S
C763 O783 1.289 . S
C764 C763 1.488 . S
C764 C765 1.348 . S
C764 C769 1.413 . S
C765 C764 1.348 . S
C765 C766 1.442 . S
C765 H792 0.930 . S
C766 C765 1.442 . S
C766 C767 1.381 . S
C766 H793 0.931 . S
C767 C766 1.381 . S
C767 C768 1.321 . S
C768 C767 1.321 . S
C768 C769 1.403 . S
C768 H794 0.934 . S
C769 C764 1.413 . S
C769 C768 1.403 . S
C769 H795 0.930 . S
C770 O784 1.275 . S
C770 O785 1.256 . S
C771 O786 1.259 . S
C771 O787 1.268 . S
C772 Ho761 2.811 . S
C772 C773 1.488 . S
C772 O788 1.215 . S
C772 O789 1.289 . S
C773 C772 1.488 . S
C773 C774 1.348 . S
C773 C778 1.413 . S
C774 C773 1.348 . S
C774 C775 1.442 . S
C774 H796 0.930 . S
C775 C774 1.442 . S
C775 C776 1.381 . S
C775 H797 0.931 . S
C776 C775 1.381 . S
C776 C777 1.321 . S
C777 C776 1.321 . S
C777 C778 1.403 . S
C777 H798 0.934 . S
C778 C773 1.413 . S
C778 C777 1.403 . S
C778 H799 0.930 . S
C779 O790 1.275 . S
C779 O791 1.256 . S
O780 Ho760 2.322 . S
O780 C762 1.259 . S
O781 Ho761 2.346 . S
O781 C762 1.268 . S
O782 Ho760 2.378 . S
O782 C763 1.215 . S
O783 Ho760 2.524 . S
O783 C763 1.289 . S
O784 Ho760 2.381 . S
O784 C770 1.275 . S
O785 Ho760 2.669 . S
O785 Ho761 2.305 . S
O785 C770 1.256 . S
O786 Ho761 2.322 . S
O786 C771 1.259 . S
O787 Ho760 2.346 . S
O787 C771 1.268 . S
O788 Ho761 2.378 . S
O788 C772 1.215 . S
O789 Ho761 2.524 . S
O789 C772 1.289 . S
O790 Ho761 2.381 . S
O790 C779 1.275 . S
O791 Ho760 2.305 . S
O791 Ho761 2.669 . S
O791 C779 1.256 . S
H792 C765 0.930 . S
H793 C766 0.931 . S
H794 C768 0.934 . S
H795 C769 0.930 . S
H796 C774 0.930 . S
H797 C775 0.931 . S
H798 C777 0.934 . S
H799 C778 0.930 . S
Ho800 C803 2.811 . S
Ho800 O820 2.322 . S
Ho800 O822 2.378 . S
Ho800 O823 2.524 . S
Ho800 O824 2.381 . S
Ho800 O825 2.669 . S
Ho800 O827 2.346 . S
Ho800 O831 2.305 . S
Ho801 C812 2.811 . S
Ho801 O821 2.346 . S
Ho801 O825 2.305 . S
Ho801 O826 2.322 . S
Ho801 O828 2.378 . S
Ho801 O829 2.524 . S
Ho801 O830 2.381 . S
Ho801 O831 2.669 . S
C802 O820 1.259 . S
C802 O821 1.268 . S
C803 Ho800 2.811 . S
C803 C804 1.488 . S
C803 O822 1.215 . S
C803 O823 1.289 . S
C804 C803 1.488 . S
C804 C805 1.348 1_554 S
C804 C809 1.413 1_554 S
C805 C804 1.348 1_556 S
C805 C806 1.442 . S
C805 H832 0.930 . S
C806 C805 1.442 . S
C806 C807 1.381 . S
C806 H833 0.931 . S
C807 C806 1.381 . S
C807 C808 1.321 . S
C808 C807 1.321 . S
C808 C809 1.403 . S
C808 H834 0.934 . S
C809 C804 1.413 1_556 S
C809 C808 1.403 . S
C809 H835 0.930 1_556 S
C810 O824 1.275 . S
C810 O825 1.256 . S
C811 O826 1.259 . S
C811 O827 1.268 . S
C812 Ho801 2.811 . S
C812 C813 1.488 . S
C812 O828 1.215 . S
C812 O829 1.289 . S
C813 C812 1.488 . S
C813 C814 1.348 . S
C813 C818 1.413 . S
C814 C813 1.348 . S
C814 C815 1.442 . S
C814 H836 0.930 . S
C815 C814 1.442 . S
C815 C816 1.381 . S
C815 H837 0.931 . S
C816 C815 1.381 . S
C816 C817 1.321 . S
C817 C816 1.321 . S
C817 C818 1.403 . S
C817 H838 0.934 . S
C818 C813 1.413 . S
C818 C817 1.403 . S
C818 H839 0.930 . S
C819 O830 1.275 . S
C819 O831 1.256 . S
O820 Ho800 2.322 . S
O820 C802 1.259 . S
O821 Ho801 2.346 . S
O821 C802 1.268 . S
O822 Ho800 2.378 . S
O822 C803 1.215 . S
O823 Ho800 2.524 . S
O823 C803 1.289 . S
O824 Ho800 2.381 . S
O824 C810 1.275 . S
O825 Ho800 2.669 . S
O825 Ho801 2.305 . S
O825 C810 1.256 . S
O826 Ho801 2.322 . S
O826 C811 1.259 . S
O827 Ho800 2.346 . S
O827 C811 1.268 . S
O828 Ho801 2.378 . S
O828 C812 1.215 . S
O829 Ho801 2.524 . S
O829 C812 1.289 . S
O830 Ho801 2.381 . S
O830 C819 1.275 . S
O831 Ho800 2.305 . S
O831 Ho801 2.669 . S
O831 C819 1.256 . S
H832 C805 0.930 . S
H833 C806 0.931 . S
H834 C808 0.934 . S
H835 C809 0.930 1_554 S
H836 C814 0.930 . S
H837 C815 0.931 . S
H838 C817 0.934 . S
H839 C818 0.930 . S
Ho840 C843 2.811 . S
Ho840 O860 2.322 . S
Ho840 O862 2.378 . S
Ho840 O863 2.524 1_565 S
Ho840 O864 2.381 . S
Ho840 O865 2.669 . S
Ho840 O867 2.346 . S
Ho840 O871 2.305 1_565 S
Ho841 C852 2.811 . S
Ho841 O861 2.346 . S
Ho841 O865 2.305 1_545 S
Ho841 O866 2.322 . S
Ho841 O868 2.378 . S
Ho841 O869 2.524 1_545 S
Ho841 O870 2.381 . S
Ho841 O871 2.669 . S
C842 O860 1.259 . S
C842 O861 1.268 1_565 S
C843 Ho840 2.811 . S
C843 C844 1.488 . S
C843 O862 1.215 . S
C843 O863 1.289 1_565 S
C844 C843 1.488 . S
C844 C845 1.348 1_554 S
C844 C849 1.413 1_554 S
C845 C844 1.348 1_556 S
C845 C846 1.442 . S
C845 H872 0.930 1_565 S
C846 C845 1.442 . S
C846 C847 1.381 . S
C846 H873 0.931 1_565 S
C847 C846 1.381 . S
C847 C848 1.321 . S
C848 C847 1.321 . S
C848 C849 1.403 . S
C848 H874 0.934 . S
C849 C844 1.413 1_556 S
C849 C848 1.403 . S
C849 H875 0.930 1_556 S
C850 O864 1.275 . S
C850 O865 1.256 . S
C851 O866 1.259 . S
C851 O867 1.268 1_545 S
C852 Ho841 2.811 . S
C852 C853 1.488 . S
C852 O868 1.215 . S
C852 O869 1.289 1_545 S
C853 C852 1.488 . S
C853 C854 1.348 . S
C853 C858 1.413 . S
C854 C853 1.348 . S
C854 C855 1.442 . S
C854 H876 0.930 1_545 S
C855 C854 1.442 . S
C855 C856 1.381 . S
C855 H877 0.931 1_545 S
C856 C855 1.381 . S
C856 C857 1.321 . S
C857 C856 1.321 . S
C857 C858 1.403 . S
C857 H878 0.934 . S
C858 C853 1.413 . S
C858 C857 1.403 . S
C858 H879 0.930 . S
C859 O870 1.275 . S
C859 O871 1.256 . S
O860 Ho840 2.322 . S
O860 C842 1.259 . S
O861 Ho841 2.346 . S
O861 C842 1.268 1_545 S
O862 Ho840 2.378 . S
O862 C843 1.215 . S
O863 Ho840 2.524 1_545 S
O863 C843 1.289 1_545 S
O864 Ho840 2.381 . S
O864 C850 1.275 . S
O865 Ho840 2.669 . S
O865 Ho841 2.305 1_565 S
O865 C850 1.256 . S
O866 Ho841 2.322 . S
O866 C851 1.259 . S
O867 Ho840 2.346 . S
O867 C851 1.268 1_565 S
O868 Ho841 2.378 . S
O868 C852 1.215 . S
O869 Ho841 2.524 1_565 S
O869 C852 1.289 1_565 S
O870 Ho841 2.381 . S
O870 C859 1.275 . S
O871 Ho840 2.305 1_545 S
O871 Ho841 2.669 . S
O871 C859 1.256 . S
H872 C845 0.930 1_545 S
H873 C846 0.931 1_545 S
H874 C848 0.934 . S
H875 C849 0.930 1_554 S
H876 C854 0.930 1_565 S
H877 C855 0.931 1_565 S
H878 C857 0.934 . S
H879 C858 0.930 . S
Ho880 C883 2.811 . S
Ho880 O900 2.322 . S
Ho880 O902 2.378 . S
Ho880 O903 2.524 1_565 S
Ho880 O904 2.381 . S
Ho880 O905 2.669 . S
Ho880 O907 2.346 . S
Ho880 O911 2.305 1_565 S
Ho881 C892 2.811 . S
Ho881 O901 2.346 . S
Ho881 O905 2.305 1_545 S
Ho881 O906 2.322 . S
Ho881 O908 2.378 . S
Ho881 O909 2.524 1_545 S
Ho881 O910 2.381 . S
Ho881 O911 2.669 . S
C882 O900 1.259 . S
C882 O901 1.268 1_565 S
C883 Ho880 2.811 . S
C883 C884 1.488 . S
C883 O902 1.215 . S
C883 O903 1.289 1_565 S
C884 C883 1.488 . S
C884 C885 1.348 . S
C884 C889 1.413 . S
C885 C884 1.348 . S
C885 C886 1.442 . S
C885 H912 0.930 1_565 S
C886 C885 1.442 . S
C886 C887 1.381 . S
C886 H913 0.931 1_565 S
C887 C886 1.381 . S
C887 C888 1.321 . S
C888 C887 1.321 . S
C888 C889 1.403 . S
C888 H914 0.934 . S
C889 C884 1.413 . S
C889 C888 1.403 . S
C889 H915 0.930 . S
C890 O904 1.275 . S
C890 O905 1.256 . S
C891 O906 1.259 . S
C891 O907 1.268 1_545 S
C892 Ho881 2.811 . S
C892 C893 1.488 . S
C892 O908 1.215 . S
C892 O909 1.289 1_545 S
C893 C892 1.488 . S
C893 C894 1.348 . S
C893 C898 1.413 . S
C894 C893 1.348 . S
C894 C895 1.442 . S
C894 H916 0.930 1_545 S
C895 C894 1.442 . S
C895 C896 1.381 . S
C895 H917 0.931 1_545 S
C896 C895 1.381 . S
C896 C897 1.321 . S
C897 C896 1.321 . S
C897 C898 1.403 . S
C897 H918 0.934 . S
C898 C893 1.413 . S
C898 C897 1.403 . S
C898 H919 0.930 . S
C899 O910 1.275 . S
C899 O911 1.256 . S
O900 Ho880 2.322 . S
O900 C882 1.259 . S
O901 Ho881 2.346 . S
O901 C882 1.268 1_545 S
O902 Ho880 2.378 . S
O902 C883 1.215 . S
O903 Ho880 2.524 1_545 S
O903 C883 1.289 1_545 S
O904 Ho880 2.381 . S
O904 C890 1.275 . S
O905 Ho880 2.669 . S
O905 Ho881 2.305 1_565 S
O905 C890 1.256 . S
O906 Ho881 2.322 . S
O906 C891 1.259 . S
O907 Ho880 2.346 . S
O907 C891 1.268 1_565 S
O908 Ho881 2.378 . S
O908 C892 1.215 . S
O909 Ho881 2.524 1_565 S
O909 C892 1.289 1_565 S
O910 Ho881 2.381 . S
O910 C899 1.275 . S
O911 Ho880 2.305 1_545 S
O911 Ho881 2.669 . S
O911 C899 1.256 . S
H912 C885 0.930 1_545 S
H913 C886 0.931 1_545 S
H914 C888 0.934 . S
H915 C889 0.930 . S
H916 C894 0.930 1_565 S
H917 C895 0.931 1_565 S
H918 C897 0.934 . S
H919 C898 0.930 . S
Ho920 C923 2.811 . S
Ho920 O940 2.322 . S
Ho920 O942 2.378 . S
Ho920 O943 2.524 . S
Ho920 O944 2.381 . S
Ho920 O945 2.669 . S
Ho920 O947 2.346 . S
Ho920 O951 2.305 . S
Ho921 C932 2.811 . S
Ho921 O941 2.346 . S
Ho921 O945 2.305 . S
Ho921 O946 2.322 . S
Ho921 O948 2.378 . S
Ho921 O949 2.524 . S
Ho921 O950 2.381 . S
Ho921 O951 2.669 . S
C922 O940 1.259 . S
C922 O941 1.268 . S
C923 Ho920 2.811 . S
C923 C924 1.488 . S
C923 O942 1.215 . S
C923 O943 1.289 . S
C924 C923 1.488 . S
C924 C925 1.348 . S
C924 C929 1.413 . S
C925 C924 1.348 . S
C925 C926 1.442 . S
C925 H952 0.930 . S
C926 C925 1.442 . S
C926 C927 1.381 . S
C926 H953 0.931 . S
C927 C926 1.381 . S
C927 C928 1.321 . S
C928 C927 1.321 . S
C928 C929 1.403 . S
C928 H954 0.934 . S
C929 C924 1.413 . S
C929 C928 1.403 . S
C929 H955 0.930 . S
C930 O944 1.275 . S
C930 O945 1.256 . S
C931 O946 1.259 . S
C931 O947 1.268 . S
C932 Ho921 2.811 . S
C932 C933 1.488 . S
C932 O948 1.215 . S
C932 O949 1.289 . S
C933 C932 1.488 . S
C933 C934 1.348 . S
C933 C938 1.413 . S
C934 C933 1.348 . S
C934 C935 1.442 . S
C934 H956 0.930 . S
C935 C934 1.442 . S
C935 C936 1.381 . S
C935 H957 0.931 . S
C936 C935 1.381 . S
C936 C937 1.321 . S
C937 C936 1.321 . S
C937 C938 1.403 . S
C937 H958 0.934 . S
C938 C933 1.413 . S
C938 C937 1.403 . S
C938 H959 0.930 . S
C939 O950 1.275 . S
C939 O951 1.256 . S
O940 Ho920 2.322 . S
O940 C922 1.259 . S
O941 Ho921 2.346 . S
O941 C922 1.268 . S
O942 Ho920 2.378 . S
O942 C923 1.215 . S
O943 Ho920 2.524 . S
O943 C923 1.289 . S
O944 Ho920 2.381 . S
O944 C930 1.275 . S
O945 Ho920 2.669 . S
O945 Ho921 2.305 . S
O945 C930 1.256 . S
O946 Ho921 2.322 . S
O946 C931 1.259 . S
O947 Ho920 2.346 . S
O947 C931 1.268 . S
O948 Ho921 2.378 . S
O948 C932 1.215 . S
O949 Ho921 2.524 . S
O949 C932 1.289 . S
O950 Ho921 2.381 . S
O950 C939 1.275 . S
O951 Ho920 2.305 . S
O951 Ho921 2.669 . S
O951 C939 1.256 . S
H952 C925 0.930 . S
H953 C926 0.931 . S
H954 C928 0.934 . S
H955 C929 0.930 . S
H956 C934 0.930 . S
H957 C935 0.931 . S
H958 C937 0.934 . S
H959 C938 0.930 . S
Ho960 C963 2.811 . S
Ho960 O980 2.322 . S
Ho960 O982 2.378 . S
Ho960 O983 2.524 . S
Ho960 O984 2.381 . S
Ho960 O985 2.669 . S
Ho960 O987 2.346 . S
Ho960 O991 2.305 . S
Ho961 C972 2.811 . S
Ho961 O981 2.346 . S
Ho961 O985 2.305 . S
Ho961 O986 2.322 . S
Ho961 O988 2.378 . S
Ho961 O989 2.524 . S
Ho961 O990 2.381 . S
Ho961 O991 2.669 . S
C962 O980 1.259 . S
C962 O981 1.268 . S
C963 Ho960 2.811 . S
C963 C964 1.488 1_554 S
C963 O982 1.215 . S
C963 O983 1.289 . S
C964 C963 1.488 1_556 S
C964 C965 1.348 . S
C964 C969 1.413 . S
C965 C964 1.348 . S
C965 C966 1.442 . S
C965 H992 0.930 . S
C966 C965 1.442 . S
C966 C967 1.381 . S
C966 H993 0.931 . S
C967 C966 1.381 . S
C967 C968 1.321 . S
C968 C967 1.321 . S
C968 C969 1.403 . S
C968 H994 0.934 . S
C969 C964 1.413 . S
C969 C968 1.403 . S
C969 H995 0.930 . S
C970 O984 1.275 . S
C970 O985 1.256 . S
C971 O986 1.259 . S
C971 O987 1.268 . S
C972 Ho961 2.811 . S
C972 C973 1.488 . S
C972 O988 1.215 . S
C972 O989 1.289 . S
C973 C972 1.488 . S
C973 C974 1.348 . S
C973 C978 1.413 . S
C974 C973 1.348 . S
C974 C975 1.442 . S
C974 H996 0.930 . S
C975 C974 1.442 . S
C975 C976 1.381 . S
C975 H997 0.931 . S
C976 C975 1.381 . S
C976 C977 1.321 . S
C977 C976 1.321 . S
C977 C978 1.403 . S
C977 H998 0.934 . S
C978 C973 1.413 . S
C978 C977 1.403 . S
C978 H999 0.930 . S
C979 O990 1.275 . S
C979 O991 1.256 . S
O980 Ho960 2.322 . S
O980 C962 1.259 . S
O981 Ho961 2.346 . S
O981 C962 1.268 . S
O982 Ho960 2.378 . S
O982 C963 1.215 . S
O983 Ho960 2.524 . S
O983 C963 1.289 . S
O984 Ho960 2.381 . S
O984 C970 1.275 . S
O985 Ho960 2.669 . S
O985 Ho961 2.305 . S
O985 C970 1.256 . S
O986 Ho961 2.322 . S
O986 C971 1.259 . S
O987 Ho960 2.346 . S
O987 C971 1.268 . S
O988 Ho961 2.378 . S
O988 C972 1.215 . S
O989 Ho961 2.524 . S
O989 C972 1.289 . S
O990 Ho961 2.381 . S
O990 C979 1.275 . S
O991 Ho960 2.305 . S
O991 Ho961 2.669 . S
O991 C979 1.256 . S
H992 C965 0.930 . S
H993 C966 0.931 . S
H994 C968 0.934 . S
H995 C969 0.930 . S
H996 C974 0.930 . S
H997 C975 0.931 . S
H998 C977 0.934 . S
H999 C978 0.930 . S
Ho1000 C1003 2.811 . S
Ho1000 O1020 2.322 . S
Ho1000 O1022 2.378 . S
Ho1000 O1023 2.524 . S
Ho1000 O1024 2.381 . S
Ho1000 O1025 2.669 . S
Ho1000 O1027 2.346 . S
Ho1000 O1031 2.305 . S
Ho1001 C1012 2.811 . S
Ho1001 O1021 2.346 . S
Ho1001 O1025 2.305 . S
Ho1001 O1026 2.322 . S
Ho1001 O1028 2.378 . S
Ho1001 O1029 2.524 . S
Ho1001 O1030 2.381 . S
Ho1001 O1031 2.669 . S
C1002 O1020 1.259 . S
C1002 O1021 1.268 . S
C1003 Ho1000 2.811 . S
C1003 C1004 1.488 1_554 S
C1003 O1022 1.215 . S
C1003 O1023 1.289 . S
C1004 C1003 1.488 1_556 S
C1004 C1005 1.348 . S
C1004 C1009 1.413 . S
C1005 C1004 1.348 . S
C1005 C1006 1.442 . S
C1005 H1032 0.930 . S
C1006 C1005 1.442 . S
C1006 C1007 1.381 . S
C1006 H1033 0.931 . S
C1007 C1006 1.381 . S
C1007 C1008 1.321 . S
C1008 C1007 1.321 . S
C1008 C1009 1.403 . S
C1008 H1034 0.934 . S
C1009 C1004 1.413 . S
C1009 C1008 1.403 . S
C1009 H1035 0.930 . S
C1010 O1024 1.275 . S
C1010 O1025 1.256 . S
C1011 O1026 1.259 . S
C1011 O1027 1.268 . S
C1012 Ho1001 2.811 . S
C1012 C1013 1.488 . S
C1012 O1028 1.215 . S
C1012 O1029 1.289 . S
C1013 C1012 1.488 . S
C1013 C1014 1.348 . S
C1013 C1018 1.413 . S
C1014 C1013 1.348 . S
C1014 C1015 1.442 . S
C1014 H1036 0.930 . S
C1015 C1014 1.442 . S
C1015 C1016 1.381 . S
C1015 H1037 0.931 . S
C1016 C1015 1.381 . S
C1016 C1017 1.321 . S
C1017 C1016 1.321 . S
C1017 C1018 1.403 . S
C1017 H1038 0.934 . S
C1018 C1013 1.413 . S
C1018 C1017 1.403 . S
C1018 H1039 0.930 . S
C1019 O1030 1.275 . S
C1019 O1031 1.256 . S
O1020 Ho1000 2.322 . S
O1020 C1002 1.259 . S
O1021 Ho1001 2.346 . S
O1021 C1002 1.268 . S
O1022 Ho1000 2.378 . S
O1022 C1003 1.215 . S
O1023 Ho1000 2.524 . S
O1023 C1003 1.289 . S
O1024 Ho1000 2.381 . S
O1024 C1010 1.275 . S
O1025 Ho1000 2.669 . S
O1025 Ho1001 2.305 . S
O1025 C1010 1.256 . S
O1026 Ho1001 2.322 . S
O1026 C1011 1.259 . S
O1027 Ho1000 2.346 . S
O1027 C1011 1.268 . S
O1028 Ho1001 2.378 . S
O1028 C1012 1.215 . S
O1029 Ho1001 2.524 . S
O1029 C1012 1.289 . S
O1030 Ho1001 2.381 . S
O1030 C1019 1.275 . S
O1031 Ho1000 2.305 . S
O1031 Ho1001 2.669 . S
O1031 C1019 1.256 . S
H1032 C1005 0.930 . S
H1033 C1006 0.931 . S
H1034 C1008 0.934 . S
H1035 C1009 0.930 . S
H1036 C1014 0.930 . S
H1037 C1015 0.931 . S
H1038 C1017 0.934 . S
H1039 C1018 0.930 . S
Ho1040 C1043 2.811 . S
Ho1040 O1060 2.322 . S
Ho1040 O1062 2.378 . S
Ho1040 O1063 2.524 . S
Ho1040 O1064 2.381 . S
Ho1040 O1065 2.669 1_554 S
Ho1040 O1067 2.346 . S
Ho1040 O1071 2.305 . S
Ho1041 C1052 2.811 . S
Ho1041 O1061 2.346 1_556 S
Ho1041 O1065 2.305 . S
Ho1041 O1066 2.322 . S
Ho1041 O1068 2.378 . S
Ho1041 O1069 2.524 . S
Ho1041 O1070 2.381 1_556 S
Ho1041 O1071 2.669 1_556 S
C1042 O1060 1.259 . S
C1042 O1061 1.268 . S
C1043 Ho1040 2.811 . S
C1043 C1044 1.488 . S
C1043 O1062 1.215 . S
C1043 O1063 1.289 . S
C1044 C1043 1.488 . S
C1044 C1045 1.348 . S
C1044 C1049 1.413 . S
C1045 C1044 1.348 . S
C1045 C1046 1.442 . S
C1045 H1072 0.930 . S
C1046 C1045 1.442 . S
C1046 C1047 1.381 . S
C1046 H1073 0.931 . S
C1047 C1046 1.381 . S
C1047 C1048 1.321 . S
C1048 C1047 1.321 . S
C1048 C1049 1.403 . S
C1048 H1074 0.934 . S
C1049 C1044 1.413 . S
C1049 C1048 1.403 . S
C1049 H1075 0.930 . S
C1050 O1064 1.275 . S
C1050 O1065 1.256 1_554 S
C1051 O1066 1.259 . S
C1051 O1067 1.268 1_556 S
C1052 Ho1041 2.811 . S
C1052 C1053 1.488 . S
C1052 O1068 1.215 . S
C1052 O1069 1.289 . S
C1053 C1052 1.488 . S
C1053 C1054 1.348 . S
C1053 C1058 1.413 . S
C1054 C1053 1.348 . S
C1054 C1055 1.442 . S
C1054 H1076 0.930 . S
C1055 C1054 1.442 . S
C1055 C1056 1.381 . S
C1055 H1077 0.931 . S
C1056 C1055 1.381 . S
C1056 C1057 1.321 . S
C1057 C1056 1.321 . S
C1057 C1058 1.403 . S
C1057 H1078 0.934 . S
C1058 C1053 1.413 . S
C1058 C1057 1.403 . S
C1058 H1079 0.930 . S
C1059 O1070 1.275 . S
C1059 O1071 1.256 . S
O1060 Ho1040 2.322 . S
O1060 C1042 1.259 . S
O1061 Ho1041 2.346 1_554 S
O1061 C1042 1.268 . S
O1062 Ho1040 2.378 . S
O1062 C1043 1.215 . S
O1063 Ho1040 2.524 . S
O1063 C1043 1.289 . S
O1064 Ho1040 2.381 . S
O1064 C1050 1.275 . S
O1065 Ho1040 2.669 1_556 S
O1065 Ho1041 2.305 . S
O1065 C1050 1.256 1_556 S
O1066 Ho1041 2.322 . S
O1066 C1051 1.259 . S
O1067 Ho1040 2.346 . S
O1067 C1051 1.268 1_554 S
O1068 Ho1041 2.378 . S
O1068 C1052 1.215 . S
O1069 Ho1041 2.524 . S
O1069 C1052 1.289 . S
O1070 Ho1041 2.381 1_554 S
O1070 C1059 1.275 . S
O1071 Ho1040 2.305 . S
O1071 Ho1041 2.669 1_554 S
O1071 C1059 1.256 . S
H1072 C1045 0.930 . S
H1073 C1046 0.931 . S
H1074 C1048 0.934 . S
H1075 C1049 0.930 . S
H1076 C1054 0.930 . S
H1077 C1055 0.931 . S
H1078 C1057 0.934 . S
H1079 C1058 0.930 . S
Ho1080 C1083 2.811 . S
Ho1080 O1100 2.322 . S
Ho1080 O1102 2.378 . S
Ho1080 O1103 2.524 . S
Ho1080 O1104 2.381 . S
Ho1080 O1105 2.669 1_554 S
Ho1080 O1107 2.346 . S
Ho1080 O1111 2.305 . S
Ho1081 C1092 2.811 . S
Ho1081 O1101 2.346 1_556 S
Ho1081 O1105 2.305 . S
Ho1081 O1106 2.322 . S
Ho1081 O1108 2.378 . S
Ho1081 O1109 2.524 . S
Ho1081 O1110 2.381 1_556 S
Ho1081 O1111 2.669 1_556 S
C1082 O1100 1.259 . S
C1082 O1101 1.268 . S
C1083 Ho1080 2.811 . S
C1083 C1084 1.488 . S
C1083 O1102 1.215 . S
C1083 O1103 1.289 . S
C1084 C1083 1.488 . S
C1084 C1085 1.348 . S
C1084 C1089 1.413 . S
C1085 C1084 1.348 . S
C1085 C1086 1.442 . S
C1085 H1112 0.930 . S
C1086 C1085 1.442 . S
C1086 C1087 1.381 . S
C1086 H1113 0.931 . S
C1087 C1086 1.381 . S
C1087 C1088 1.321 . S
C1088 C1087 1.321 . S
C1088 C1089 1.403 . S
C1088 H1114 0.934 . S
C1089 C1084 1.413 . S
C1089 C1088 1.403 . S
C1089 H1115 0.930 . S
C1090 O1104 1.275 . S
C1090 O1105 1.256 1_554 S
C1091 O1106 1.259 . S
C1091 O1107 1.268 1_556 S
C1092 Ho1081 2.811 . S
C1092 C1093 1.488 . S
C1092 O1108 1.215 . S
C1092 O1109 1.289 . S
C1093 C1092 1.488 . S
C1093 C1094 1.348 . S
C1093 C1098 1.413 . S
C1094 C1093 1.348 . S
C1094 C1095 1.442 . S
C1094 H1116 0.930 . S
C1095 C1094 1.442 . S
C1095 C1096 1.381 . S
C1095 H1117 0.931 . S
C1096 C1095 1.381 . S
C1096 C1097 1.321 . S
C1097 C1096 1.321 . S
C1097 C1098 1.403 . S
C1097 H1118 0.934 . S
C1098 C1093 1.413 . S
C1098 C1097 1.403 . S
C1098 H1119 0.930 . S
C1099 O1110 1.275 . S
C1099 O1111 1.256 . S
O1100 Ho1080 2.322 . S
O1100 C1082 1.259 . S
O1101 Ho1081 2.346 1_554 S
O1101 C1082 1.268 . S
O1102 Ho1080 2.378 . S
O1102 C1083 1.215 . S
O1103 Ho1080 2.524 . S
O1103 C1083 1.289 . S
O1104 Ho1080 2.381 . S
O1104 C1090 1.275 . S
O1105 Ho1080 2.669 1_556 S
O1105 Ho1081 2.305 . S
O1105 C1090 1.256 1_556 S
O1106 Ho1081 2.322 . S
O1106 C1091 1.259 . S
O1107 Ho1080 2.346 . S
O1107 C1091 1.268 1_554 S
O1108 Ho1081 2.378 . S
O1108 C1092 1.215 . S
O1109 Ho1081 2.524 . S
O1109 C1092 1.289 . S
O1110 Ho1081 2.381 1_554 S
O1110 C1099 1.275 . S
O1111 Ho1080 2.305 . S
O1111 Ho1081 2.669 1_554 S
O1111 C1099 1.256 . S
H1112 C1085 0.930 . S
H1113 C1086 0.931 . S
H1114 C1088 0.934 . S
H1115 C1089 0.930 . S
H1116 C1094 0.930 . S
H1117 C1095 0.931 . S
H1118 C1097 0.934 . S
H1119 C1098 0.930 . S
Ho1120 C1123 2.811 . S
Ho1120 O1140 2.322 . S
Ho1120 O1142 2.378 . S
Ho1120 O1143 2.524 . S
Ho1120 O1144 2.381 . S
Ho1120 O1145 2.669 . S
Ho1120 O1147 2.346 . S
Ho1120 O1151 2.305 . S
Ho1121 C1132 2.811 . S
Ho1121 O1141 2.346 . S
Ho1121 O1145 2.305 . S
Ho1121 O1146 2.322 . S
Ho1121 O1148 2.378 . S
Ho1121 O1149 2.524 . S
Ho1121 O1150 2.381 . S
Ho1121 O1151 2.669 . S
C1122 O1140 1.259 . S
C1122 O1141 1.268 . S
C1123 Ho1120 2.811 . S
C1123 C1124 1.488 . S
C1123 O1142 1.215 . S
C1123 O1143 1.289 . S
C1124 C1123 1.488 . S
C1124 C1125 1.348 . S
C1124 C1129 1.413 . S
C1125 C1124 1.348 . S
C1125 C1126 1.442 . S
C1125 H1152 0.930 . S
C1126 C1125 1.442 . S
C1126 C1127 1.381 . S
C1126 H1153 0.931 . S
C1127 C1126 1.381 . S
C1127 C1128 1.321 . S
C1128 C1127 1.321 . S
C1128 C1129 1.403 . S
C1128 H1154 0.934 . S
C1129 C1124 1.413 . S
C1129 C1128 1.403 . S
C1129 H1155 0.930 . S
C1130 O1144 1.275 . S
C1130 O1145 1.256 . S
C1131 O1146 1.259 . S
C1131 O1147 1.268 . S
C1132 Ho1121 2.811 . S
C1132 C1133 1.488 1_556 S
C1132 O1148 1.215 . S
C1132 O1149 1.289 . S
C1133 C1132 1.488 1_554 S
C1133 C1134 1.348 . S
C1133 C1138 1.413 . S
C1134 C1133 1.348 . S
C1134 C1135 1.442 . S
C1134 H1156 0.930 . S
C1135 C1134 1.442 . S
C1135 C1136 1.381 . S
C1135 H1157 0.931 . S
C1136 C1135 1.381 . S
C1136 C1137 1.321 . S
C1137 C1136 1.321 . S
C1137 C1138 1.403 . S
C1137 H1158 0.934 . S
C1138 C1133 1.413 . S
C1138 C1137 1.403 . S
C1138 H1159 0.930 . S
C1139 O1150 1.275 . S
C1139 O1151 1.256 . S
O1140 Ho1120 2.322 . S
O1140 C1122 1.259 . S
O1141 Ho1121 2.346 . S
O1141 C1122 1.268 . S
O1142 Ho1120 2.378 . S
O1142 C1123 1.215 . S
O1143 Ho1120 2.524 . S
O1143 C1123 1.289 . S
O1144 Ho1120 2.381 . S
O1144 C1130 1.275 . S
O1145 Ho1120 2.669 . S
O1145 Ho1121 2.305 . S
O1145 C1130 1.256 . S
O1146 Ho1121 2.322 . S
O1146 C1131 1.259 . S
O1147 Ho1120 2.346 . S
O1147 C1131 1.268 . S
O1148 Ho1121 2.378 . S
O1148 C1132 1.215 . S
O1149 Ho1121 2.524 . S
O1149 C1132 1.289 . S
O1150 Ho1121 2.381 . S
O1150 C1139 1.275 . S
O1151 Ho1120 2.305 . S
O1151 Ho1121 2.669 . S
O1151 C1139 1.256 . S
H1152 C1125 0.930 . S
H1153 C1126 0.931 . S
H1154 C1128 0.934 . S
H1155 C1129 0.930 . S
H1156 C1134 0.930 . S
H1157 C1135 0.931 . S
H1158 C1137 0.934 . S
H1159 C1138 0.930 . S
Ho1160 C1163 2.811 . S
Ho1160 O1180 2.322 . S
Ho1160 O1182 2.378 . S
Ho1160 O1183 2.524 . S
Ho1160 O1184 2.381 . S
Ho1160 O1185 2.669 . S
Ho1160 O1187 2.346 . S
Ho1160 O1191 2.305 . S
Ho1161 C1172 2.811 . S
Ho1161 O1181 2.346 . S
Ho1161 O1185 2.305 . S
Ho1161 O1186 2.322 . S
Ho1161 O1188 2.378 . S
Ho1161 O1189 2.524 . S
Ho1161 O1190 2.381 . S
Ho1161 O1191 2.669 . S
C1162 O1180 1.259 . S
C1162 O1181 1.268 . S
C1163 Ho1160 2.811 . S
C1163 C1164 1.488 . S
C1163 O1182 1.215 . S
C1163 O1183 1.289 . S
C1164 C1163 1.488 . S
C1164 C1165 1.348 . S
C1164 C1169 1.413 . S
C1165 C1164 1.348 . S
C1165 C1166 1.442 . S
C1165 H1192 0.930 . S
C1166 C1165 1.442 . S
C1166 C1167 1.381 . S
C1166 H1193 0.931 . S
C1167 C1166 1.381 . S
C1167 C1168 1.321 . S
C1168 C1167 1.321 . S
C1168 C1169 1.403 . S
C1168 H1194 0.934 . S
C1169 C1164 1.413 . S
C1169 C1168 1.403 . S
C1169 H1195 0.930 . S
C1170 O1184 1.275 . S
C1170 O1185 1.256 . S
C1171 O1186 1.259 . S
C1171 O1187 1.268 . S
C1172 Ho1161 2.811 . S
C1172 C1173 1.488 1_556 S
C1172 O1188 1.215 . S
C1172 O1189 1.289 . S
C1173 C1172 1.488 1_554 S
C1173 C1174 1.348 . S
C1173 C1178 1.413 . S
C1174 C1173 1.348 . S
C1174 C1175 1.442 . S
C1174 H1196 0.930 . S
C1175 C1174 1.442 . S
C1175 C1176 1.381 . S
C1175 H1197 0.931 . S
C1176 C1175 1.381 . S
C1176 C1177 1.321 . S
C1177 C1176 1.321 . S
C1177 C1178 1.403 . S
C1177 H1198 0.934 . S
C1178 C1173 1.413 . S
C1178 C1177 1.403 . S
C1178 H1199 0.930 . S
C1179 O1190 1.275 . S
C1179 O1191 1.256 . S
O1180 Ho1160 2.322 . S
O1180 C1162 1.259 . S
O1181 Ho1161 2.346 . S
O1181 C1162 1.268 . S
O1182 Ho1160 2.378 . S
O1182 C1163 1.215 . S
O1183 Ho1160 2.524 . S
O1183 C1163 1.289 . S
O1184 Ho1160 2.381 . S
O1184 C1170 1.275 . S
O1185 Ho1160 2.669 . S
O1185 Ho1161 2.305 . S
O1185 C1170 1.256 . S
O1186 Ho1161 2.322 . S
O1186 C1171 1.259 . S
O1187 Ho1160 2.346 . S
O1187 C1171 1.268 . S
O1188 Ho1161 2.378 . S
O1188 C1172 1.215 . S
O1189 Ho1161 2.524 . S
O1189 C1172 1.289 . S
O1190 Ho1161 2.381 . S
O1190 C1179 1.275 . S
O1191 Ho1160 2.305 . S
O1191 Ho1161 2.669 . S
O1191 C1179 1.256 . S
H1192 C1165 0.930 . S
H1193 C1166 0.931 . S
H1194 C1168 0.934 . S
H1195 C1169 0.930 . S
H1196 C1174 0.930 . S
H1197 C1175 0.931 . S
H1198 C1177 0.934 . S
H1199 C1178 0.930 . S
Ho1200 C1203 2.811 . S
Ho1200 O1220 2.322 . S
Ho1200 O1222 2.378 . S
Ho1200 O1223 2.524 . S
Ho1200 O1224 2.381 1_554 S
Ho1200 O1225 2.669 1_554 S
Ho1200 O1227 2.346 1_554 S
Ho1200 O1231 2.305 . S
Ho1201 C1212 2.811 . S
Ho1201 O1221 2.346 . S
Ho1201 O1225 2.305 . S
Ho1201 O1226 2.322 . S
Ho1201 O1228 2.378 . S
Ho1201 O1229 2.524 . S
Ho1201 O1230 2.381 . S
Ho1201 O1231 2.669 1_556 S
C1202 O1220 1.259 . S
C1202 O1221 1.268 1_554 S
C1203 Ho1200 2.811 . S
C1203 C1204 1.488 . S
C1203 O1222 1.215 . S
C1203 O1223 1.289 . S
C1204 C1203 1.488 . S
C1204 C1205 1.348 . S
C1204 C1209 1.413 . S
C1205 C1204 1.348 . S
C1205 C1206 1.442 . S
C1205 H1232 0.930 . S
C1206 C1205 1.442 . S
C1206 C1207 1.381 . S
C1206 H1233 0.931 . S
C1207 C1206 1.381 . S
C1207 C1208 1.321 . S
C1208 C1207 1.321 . S
C1208 C1209 1.403 . S
C1208 H1234 0.934 . S
C1209 C1204 1.413 . S
C1209 C1208 1.403 . S
C1209 H1235 0.930 . S
C1210 O1224 1.275 . S
C1210 O1225 1.256 . S
C1211 O1226 1.259 . S
C1211 O1227 1.268 . S
C1212 Ho1201 2.811 . S
C1212 C1213 1.488 . S
C1212 O1228 1.215 . S
C1212 O1229 1.289 . S
C1213 C1212 1.488 . S
C1213 C1214 1.348 . S
C1213 C1218 1.413 . S
C1214 C1213 1.348 . S
C1214 C1215 1.442 . S
C1214 H1236 0.930 . S
C1215 C1214 1.442 . S
C1215 C1216 1.381 . S
C1215 H1237 0.931 . S
C1216 C1215 1.381 . S
C1216 C1217 1.321 . S
C1217 C1216 1.321 . S
C1217 C1218 1.403 . S
C1217 H1238 0.934 . S
C1218 C1213 1.413 . S
C1218 C1217 1.403 . S
C1218 H1239 0.930 . S
C1219 O1230 1.275 . S
C1219 O1231 1.256 1_556 S
O1220 Ho1200 2.322 . S
O1220 C1202 1.259 . S
O1221 Ho1201 2.346 . S
O1221 C1202 1.268 1_556 S
O1222 Ho1200 2.378 . S
O1222 C1203 1.215 . S
O1223 Ho1200 2.524 . S
O1223 C1203 1.289 . S
O1224 Ho1200 2.381 1_556 S
O1224 C1210 1.275 . S
O1225 Ho1200 2.669 1_556 S
O1225 Ho1201 2.305 . S
O1225 C1210 1.256 . S
O1226 Ho1201 2.322 . S
O1226 C1211 1.259 . S
O1227 Ho1200 2.346 1_556 S
O1227 C1211 1.268 . S
O1228 Ho1201 2.378 . S
O1228 C1212 1.215 . S
O1229 Ho1201 2.524 . S
O1229 C1212 1.289 . S
O1230 Ho1201 2.381 . S
O1230 C1219 1.275 . S
O1231 Ho1200 2.305 . S
O1231 Ho1201 2.669 1_554 S
O1231 C1219 1.256 1_554 S
H1232 C1205 0.930 . S
H1233 C1206 0.931 . S
H1234 C1208 0.934 . S
H1235 C1209 0.930 . S
H1236 C1214 0.930 . S
H1237 C1215 0.931 . S
H1238 C1217 0.934 . S
H1239 C1218 0.930 . S
Ho1240 C1243 2.811 . S
Ho1240 O1260 2.322 . S
Ho1240 O1262 2.378 . S
Ho1240 O1263 2.524 . S
Ho1240 O1264 2.381 1_554 S
Ho1240 O1265 2.669 1_554 S
Ho1240 O1267 2.346 1_554 S
Ho1240 O1271 2.305 . S
Ho1241 C1252 2.811 . S
Ho1241 O1261 2.346 . S
Ho1241 O1265 2.305 . S
Ho1241 O1266 2.322 . S
Ho1241 O1268 2.378 . S
Ho1241 O1269 2.524 . S
Ho1241 O1270 2.381 . S
Ho1241 O1271 2.669 1_556 S
C1242 O1260 1.259 . S
C1242 O1261 1.268 1_554 S
C1243 Ho1240 2.811 . S
C1243 C1244 1.488 . S
C1243 O1262 1.215 . S
C1243 O1263 1.289 . S
C1244 C1243 1.488 . S
C1244 C1245 1.348 . S
C1244 C1249 1.413 . S
C1245 C1244 1.348 . S
C1245 C1246 1.442 . S
C1245 H1272 0.930 . S
C1246 C1245 1.442 . S
C1246 C1247 1.381 . S
C1246 H1273 0.931 . S
C1247 C1246 1.381 . S
C1247 C1248 1.321 . S
C1248 C1247 1.321 . S
C1248 C1249 1.403 . S
C1248 H1274 0.934 . S
C1249 C1244 1.413 . S
C1249 C1248 1.403 . S
C1249 H1275 0.930 . S
C1250 O1264 1.275 . S
C1250 O1265 1.256 . S
C1251 O1266 1.259 . S
C1251 O1267 1.268 . S
C1252 Ho1241 2.811 . S
C1252 C1253 1.488 . S
C1252 O1268 1.215 . S
C1252 O1269 1.289 . S
C1253 C1252 1.488 . S
C1253 C1254 1.348 . S
C1253 C1258 1.413 . S
C1254 C1253 1.348 . S
C1254 C1255 1.442 . S
C1254 H1276 0.930 . S
C1255 C1254 1.442 . S
C1255 C1256 1.381 . S
C1255 H1277 0.931 . S
C1256 C1255 1.381 . S
C1256 C1257 1.321 . S
C1257 C1256 1.321 . S
C1257 C1258 1.403 . S
C1257 H1278 0.934 . S
C1258 C1253 1.413 . S
C1258 C1257 1.403 . S
C1258 H1279 0.930 . S
C1259 O1270 1.275 . S
C1259 O1271 1.256 1_556 S
O1260 Ho1240 2.322 . S
O1260 C1242 1.259 . S
O1261 Ho1241 2.346 . S
O1261 C1242 1.268 1_556 S
O1262 Ho1240 2.378 . S
O1262 C1243 1.215 . S
O1263 Ho1240 2.524 . S
O1263 C1243 1.289 . S
O1264 Ho1240 2.381 1_556 S
O1264 C1250 1.275 . S
O1265 Ho1240 2.669 1_556 S
O1265 Ho1241 2.305 . S
O1265 C1250 1.256 . S
O1266 Ho1241 2.322 . S
O1266 C1251 1.259 . S
O1267 Ho1240 2.346 1_556 S
O1267 C1251 1.268 . S
O1268 Ho1241 2.378 . S
O1268 C1252 1.215 . S
O1269 Ho1241 2.524 . S
O1269 C1252 1.289 . S
O1270 Ho1241 2.381 . S
O1270 C1259 1.275 . S
O1271 Ho1240 2.305 . S
O1271 Ho1241 2.669 1_554 S
O1271 C1259 1.256 1_554 S
H1272 C1245 0.930 . S
H1273 C1246 0.931 . S
H1274 C1248 0.934 . S
H1275 C1249 0.930 . S
H1276 C1254 0.930 . S
H1277 C1255 0.931 . S
H1278 C1257 0.934 . S
H1279 C1258 0.930 . S
C1280 C1281 1.369 . S
C1280 C1282 1.419 1_556 S
C1280 H1284 0.930 . S
C1281 C1280 1.369 . S
C1281 C1290 1.429 . S
C1282 C1280 1.419 1_554 S
C1282 C1283 1.363 . S
C1282 H1285 0.929 . S
C1283 C1282 1.363 . S
C1283 C1289 1.428 . S
H1284 C1280 0.930 . S
H1285 C1282 0.929 . S
S1286 N1287 1.613 . S
S1286 N1288 1.610 1_556 S
N1287 S1286 1.613 . S
N1287 C1290 1.350 . S
N1288 S1286 1.610 1_554 S
N1288 C1289 1.351 . S
C1289 C1283 1.428 . S
C1289 N1288 1.351 . S
C1289 C1290 1.434 1_554 S
C1290 C1281 1.429 . S
C1290 N1287 1.350 . S
C1290 C1289 1.434 1_556 S
C1291 C1292 1.369 1_665 S
C1291 C1293 1.419 1_556 S
C1291 H1295 0.930 . S
C1292 C1291 1.369 1_445 S
C1292 C1301 1.429 . S
C1293 C1291 1.419 1_554 S
C1293 C1294 1.363 . S
C1293 H1296 0.929 . S
C1294 C1293 1.363 . S
C1294 C1300 1.428 1_665 S
H1295 C1291 0.930 . S
H1296 C1293 0.929 . S
S1297 N1298 1.613 1_554 S
S1297 N1299 1.610 . S
N1298 S1297 1.613 1_556 S
N1298 C1301 1.350 . S
N1299 S1297 1.610 . S
N1299 C1300 1.351 . S
C1300 C1294 1.428 1_445 S
C1300 N1299 1.351 . S
C1300 C1301 1.434 1_554 S
C1301 C1292 1.429 . S
C1301 N1298 1.350 . S
C1301 C1300 1.434 1_556 S
C1302 C1303 1.369 . S
C1302 C1304 1.419 . S
C1302 H1306 0.930 . S
C1303 C1302 1.369 . S
C1303 C1312 1.429 1_545 S
C1304 C1302 1.419 . S
C1304 C1305 1.363 1_545 S
C1304 H1307 0.929 . S
C1305 C1304 1.363 1_565 S
C1305 C1311 1.428 . S
H1306 C1302 0.930 . S
H1307 C1304 0.929 . S
S1308 N1309 1.613 . S
S1308 N1310 1.610 . S
N1309 S1308 1.613 . S
N1309 C1312 1.350 . S
N1310 S1308 1.610 . S
N1310 C1311 1.351 . S
C1311 C1305 1.428 . S
C1311 N1310 1.351 . S
C1311 C1312 1.434 . S
C1312 C1303 1.429 1_565 S
C1312 N1309 1.350 . S
C1312 C1311 1.434 . S
C1313 C1314 1.369 1_655 S
C1313 C1315 1.419 . S
C1313 H1317 0.930 . S
C1314 C1313 1.369 1_455 S
C1314 C1323 1.429 . S
C1315 C1313 1.419 . S
C1315 C1316 1.363 . S
C1315 H1318 0.929 . S
C1316 C1315 1.363 . S
C1316 C1322 1.428 1_655 S
H1317 C1313 0.930 . S
H1318 C1315 0.929 . S
S1319 N1320 1.613 . S
S1319 N1321 1.610 . S
N1320 S1319 1.613 . S
N1320 C1323 1.350 . S
N1321 S1319 1.610 . S
N1321 C1322 1.351 . S
C1322 C1316 1.428 1_455 S
C1322 N1321 1.351 . S
C1322 C1323 1.434 . S
C1323 C1314 1.429 . S
C1323 N1320 1.350 . S
C1323 C1322 1.434 . S
C1324 C1325 1.369 . S
C1324 C1326 1.419 1_556 S
C1324 H1328 0.930 . S
C1325 C1324 1.369 . S
C1325 C1334 1.429 . S
C1326 C1324 1.419 1_554 S
C1326 C1327 1.363 . S
C1326 H1329 0.929 . S
C1327 C1326 1.363 . S
C1327 C1333 1.428 . S
H1328 C1324 0.930 . S
H1329 C1326 0.929 . S
S1330 N1331 1.613 . S
S1330 N1332 1.610 1_556 S
N1331 S1330 1.613 . S
N1331 C1334 1.350 . S
N1332 S1330 1.610 1_554 S
N1332 C1333 1.351 . S
C1333 C1327 1.428 . S
C1333 N1332 1.351 . S
C1333 C1334 1.434 1_554 S
C1334 C1325 1.429 . S
C1334 N1331 1.350 . S
C1334 C1333 1.434 1_556 S
C1335 C1336 1.372 . S
C1335 C1337 1.416 1_565 S
C1335 H1339 0.931 . S
C1336 C1335 1.372 . S
C1336 C1345 1.429 . S
C1337 C1335 1.416 1_545 S
C1337 C1338 1.363 . S
C1337 H1340 0.929 . S
C1338 C1337 1.363 . S
C1338 C1344 1.428 . S
H1339 C1335 0.931 . S
H1340 C1337 0.929 . S
S1341 N1342 1.613 . S
S1341 N1343 1.610 . S
N1342 S1341 1.613 . S
N1342 C1345 1.350 . S
N1343 S1341 1.610 . S
N1343 C1344 1.351 1_565 S
C1344 C1338 1.428 . S
C1344 N1343 1.351 1_545 S
C1344 C1345 1.434 1_545 S
C1345 C1336 1.429 . S
C1345 N1342 1.350 . S
C1345 C1344 1.434 1_565 S
C1346 C1347 1.369 1_455 S
C1346 C1348 1.419 . S
C1346 H1350 0.930 . S
C1347 C1346 1.369 1_655 S
C1347 C1356 1.429 . S
C1348 C1346 1.419 . S
C1348 C1349 1.363 . S
C1348 H1351 0.929 . S
C1349 C1348 1.363 . S
C1349 C1355 1.428 1_455 S
H1350 C1346 0.930 . S
H1351 C1348 0.929 . S
S1352 N1353 1.613 . S
S1352 N1354 1.610 . S
N1353 S1352 1.613 . S
N1353 C1356 1.350 . S
N1354 S1352 1.610 . S
N1354 C1355 1.351 . S
C1355 C1349 1.428 1_655 S
C1355 N1354 1.351 . S
C1355 C1356 1.434 . S
C1356 C1347 1.429 . S
C1356 N1353 1.350 . S
C1356 C1355 1.434 . S
C1357 C1358 1.369 . S
C1357 C1359 1.419 . S
C1357 H1361 0.930 . S
C1358 C1357 1.369 . S
C1358 C1367 1.429 . S
C1359 C1357 1.419 . S
C1359 C1360 1.363 . S
C1359 H1362 0.929 . S
C1360 C1359 1.363 . S
C1360 C1366 1.428 . S
H1361 C1357 0.930 . S
H1362 C1359 0.929 . S
S1363 N1364 1.613 . S
S1363 N1365 1.610 . S
N1364 S1363 1.613 . S
N1364 C1367 1.350 . S
N1365 S1363 1.610 . S
N1365 C1366 1.351 . S
C1366 C1360 1.428 . S
C1366 N1365 1.351 . S
C1366 C1367 1.434 . S
C1367 C1358 1.429 . S
C1367 N1364 1.350 . S
C1367 C1366 1.434 . S
C1368 C1369 1.369 1_455 S
C1368 C1370 1.419 . S
C1368 H1372 0.930 . S
C1369 C1368 1.369 1_655 S
C1369 C1378 1.429 . S
C1370 C1368 1.419 . S
C1370 C1371 1.363 . S
C1370 H1373 0.929 . S
C1371 C1370 1.363 . S
C1371 C1377 1.428 1_455 S
H1372 C1368 0.930 . S
H1373 C1370 0.929 . S
S1374 N1375 1.613 . S
S1374 N1376 1.610 . S
N1375 S1374 1.613 . S
N1375 C1378 1.350 . S
N1376 S1374 1.610 . S
N1376 C1377 1.351 . S
C1377 C1371 1.428 1_655 S
C1377 N1376 1.351 . S
C1377 C1378 1.434 . S
C1378 C1369 1.429 . S
C1378 N1375 1.350 . S
C1378 C1377 1.434 . S
C1379 C1380 1.369 . S
C1379 C1381 1.419 . S
C1379 H1383 0.930 . S
C1380 C1379 1.369 . S
C1380 C1389 1.429 . S
C1381 C1379 1.419 . S
C1381 C1382 1.363 . S
C1381 H1384 0.929 . S
C1382 C1381 1.363 . S
C1382 C1388 1.428 . S
H1383 C1379 0.930 . S
H1384 C1381 0.929 . S
S1385 N1386 1.613 . S
S1385 N1387 1.610 . S
N1386 S1385 1.613 . S
N1386 C1389 1.350 . S
N1387 S1385 1.610 . S
N1387 C1388 1.351 . S
C1388 C1382 1.428 . S
C1388 N1387 1.351 . S
C1388 C1389 1.434 . S
C1389 C1380 1.429 . S
C1389 N1386 1.350 . S
C1389 C1388 1.434 . S
C1390 C1391 1.369 . S
C1390 C1392 1.419 . S
C1390 H1394 0.930 . S
C1391 C1390 1.369 . S
C1391 C1400 1.429 . S
C1392 C1390 1.419 . S
C1392 C1393 1.363 . S
C1392 H1395 0.929 . S
C1393 C1392 1.363 . S
C1393 C1399 1.428 . S
H1394 C1390 0.930 . S
H1395 C1392 0.929 . S
S1396 N1397 1.613 . S
S1396 N1398 1.610 . S
N1397 S1396 1.613 . S
N1397 C1400 1.350 . S
N1398 S1396 1.610 . S
N1398 C1399 1.351 . S
C1399 C1393 1.428 . S
C1399 N1398 1.351 . S
C1399 C1400 1.434 . S
C1400 C1391 1.429 . S
C1400 N1397 1.350 . S
C1400 C1399 1.434 . S
C1401 C1402 1.369 . S
C1401 C1403 1.419 . S
C1401 H1405 0.930 . S
C1402 C1401 1.369 . S
C1402 C1411 1.429 . S
C1403 C1401 1.419 . S
C1403 C1404 1.363 . S
C1403 H1406 0.929 . S
C1404 C1403 1.363 . S
C1404 C1410 1.428 . S
H1405 C1401 0.930 . S
H1406 C1403 0.929 . S
S1407 N1408 1.613 . S
S1407 N1409 1.610 . S
N1408 S1407 1.613 . S
N1408 C1411 1.350 . S
N1409 S1407 1.610 . S
N1409 C1410 1.351 . S
C1410 C1404 1.428 . S
C1410 N1409 1.351 . S
C1410 C1411 1.434 . S
C1411 C1402 1.429 . S
C1411 N1408 1.350 . S
C1411 C1410 1.434 . S
C1412 C1413 1.369 1_545 S
C1412 C1414 1.419 . S
C1412 H1416 0.930 . S
C1413 C1412 1.369 1_565 S
C1413 C1422 1.429 . S
C1414 C1412 1.419 . S
C1414 C1415 1.363 . S
C1414 H1417 0.929 . S
C1415 C1414 1.363 . S
C1415 C1421 1.428 1_545 S
H1416 C1412 0.930 . S
H1417 C1414 0.929 . S
S1418 N1419 1.613 . S
S1418 N1420 1.610 . S
N1419 S1418 1.613 . S
N1419 C1422 1.350 . S
N1420 S1418 1.610 . S
N1420 C1421 1.351 . S
C1421 C1415 1.428 1_565 S
C1421 N1420 1.351 . S
C1421 C1422 1.434 . S
C1422 C1413 1.429 . S
C1422 N1419 1.350 . S
C1422 C1421 1.434 . S
C1423 C1424 1.369 . S
C1423 C1425 1.419 . S
C1423 H1427 0.930 . S
C1424 C1423 1.369 . S
C1424 C1433 1.429 . S
C1425 C1423 1.419 . S
C1425 C1426 1.363 . S
C1425 H1428 0.929 . S
C1426 C1425 1.363 . S
C1426 C1432 1.428 . S
H1427 C1423 0.930 . S
H1428 C1425 0.929 . S
S1429 N1430 1.613 . S
S1429 N1431 1.610 . S
N1430 S1429 1.613 . S
N1430 C1433 1.350 . S
N1431 S1429 1.610 . S
N1431 C1432 1.351 . S
C1432 C1426 1.428 . S
C1432 N1431 1.351 . S
C1432 C1433 1.434 . S
C1433 C1424 1.429 . S
C1433 N1430 1.350 . S
C1433 C1432 1.434 . S
C1434 C1435 1.369 . S
C1434 C1436 1.419 . S
C1434 H1438 0.930 . S
C1435 C1434 1.369 . S
C1435 C1444 1.429 . S
C1436 C1434 1.419 . S
C1436 C1437 1.363 . S
C1436 H1439 0.929 . S
C1437 C1436 1.363 . S
C1437 C1443 1.428 . S
H1438 C1434 0.930 . S
H1439 C1436 0.929 . S
S1440 N1441 1.613 . S
S1440 N1442 1.610 . S
N1441 S1440 1.613 . S
N1441 C1444 1.350 . S
N1442 S1440 1.610 . S
N1442 C1443 1.351 . S
C1443 C1437 1.428 . S
C1443 N1442 1.351 . S
C1443 C1444 1.434 . S
C1444 C1435 1.429 . S
C1444 N1441 1.350 . S
C1444 C1443 1.434 . S
C1445 C1446 1.369 . S
C1445 C1447 1.419 1_556 S
C1445 H1449 0.930 . S
C1446 C1445 1.369 . S
C1446 C1455 1.429 . S
C1447 C1445 1.419 1_554 S
C1447 C1448 1.363 . S
C1447 H1450 0.929 . S
C1448 C1447 1.363 . S
C1448 C1454 1.428 . S
H1449 C1445 0.930 . S
H1450 C1447 0.929 . S
S1451 N1452 1.613 . S
S1451 N1453 1.610 1_556 S
N1452 S1451 1.613 . S
N1452 C1455 1.350 . S
N1453 S1451 1.610 1_554 S
N1453 C1454 1.351 . S
C1454 C1448 1.428 . S
C1454 N1453 1.351 . S
C1454 C1455 1.434 1_554 S
C1455 C1446 1.429 . S
C1455 N1452 1.350 . S
C1455 C1454 1.434 1_556 S
C1456 C1457 1.369 . S
C1456 C1458 1.419 . S
C1456 H1460 0.930 . S
C1457 C1456 1.369 . S
C1457 C1466 1.429 . S
C1458 C1456 1.419 . S
C1458 C1459 1.363 . S
C1458 H1461 0.929 . S
C1459 C1458 1.363 . S
C1459 C1465 1.428 . S
H1460 C1456 0.930 . S
H1461 C1458 0.929 . S
S1462 N1463 1.613 . S
S1462 N1464 1.610 . S
N1463 S1462 1.613 . S
N1463 C1466 1.350 . S
N1464 S1462 1.610 . S
N1464 C1465 1.351 . S
C1465 C1459 1.428 . S
C1465 N1464 1.351 . S
C1465 C1466 1.434 . S
C1466 C1457 1.429 . S
C1466 N1463 1.350 . S
C1466 C1465 1.434 . S
C1467 C1468 1.369 . S
C1467 C1469 1.419 . S
C1467 H1471 0.930 . S
C1468 C1467 1.369 . S
C1468 C1477 1.429 1_545 S
C1469 C1467 1.419 . S
C1469 C1470 1.363 . S
C1469 H1472 0.929 . S
C1470 C1469 1.363 . S
C1470 C1476 1.428 1_545 S
H1471 C1467 0.930 . S
H1472 C1469 0.929 . S
S1473 N1474 1.613 . S
S1473 N1475 1.610 . S
N1474 S1473 1.613 . S
N1474 C1477 1.350 . S
N1475 S1473 1.610 . S
N1475 C1476 1.351 . S
C1476 C1470 1.428 1_565 S
C1476 N1475 1.351 . S
C1476 C1477 1.434 . S
C1477 C1468 1.429 1_565 S
C1477 N1474 1.350 . S
C1477 C1476 1.434 . S
C1478 C1479 1.369 1_565 S
C1478 C1480 1.419 . S
C1478 H1482 0.930 . S
C1479 C1478 1.369 1_545 S
C1479 C1488 1.429 . S
C1480 C1478 1.419 . S
C1480 C1481 1.363 1_565 S
C1480 H1483 0.929 . S
C1481 C1480 1.363 1_545 S
C1481 C1487 1.428 . S
H1482 C1478 0.930 . S
H1483 C1480 0.929 . S
S1484 N1485 1.613 . S
S1484 N1486 1.610 . S
N1485 S1484 1.613 . S
N1485 C1488 1.350 . S
N1486 S1484 1.610 . S
N1486 C1487 1.351 . S
C1487 C1481 1.428 . S
C1487 N1486 1.351 . S
C1487 C1488 1.434 . S
C1488 C1479 1.429 . S
C1488 N1485 1.350 . S
C1488 C1487 1.434 . S
C1489 C1490 1.369 . S
C1489 C1491 1.419 . S
C1489 H1493 0.930 . S
C1490 C1489 1.369 . S
C1490 C1499 1.429 . S
C1491 C1489 1.419 . S
C1491 C1492 1.363 . S
C1491 H1494 0.929 . S
C1492 C1491 1.363 . S
C1492 C1498 1.428 . S
H1493 C1489 0.930 . S
H1494 C1491 0.929 . S
S1495 N1496 1.613 . S
S1495 N1497 1.610 . S
N1496 S1495 1.613 . S
N1496 C1499 1.350 . S
N1497 S1495 1.610 . S
N1497 C1498 1.351 . S
C1498 C1492 1.428 . S
C1498 N1497 1.351 . S
C1498 C1499 1.434 . S
C1499 C1490 1.429 . S
C1499 N1496 1.350 . S
C1499 C1498 1.434 . S
C1500 C1501 1.369 . S
C1500 C1502 1.419 . S
C1500 H1504 0.930 . S
C1501 C1500 1.369 . S
C1501 C1510 1.429 . S
C1502 C1500 1.419 . S
C1502 C1503 1.363 . S
C1502 H1505 0.929 . S
C1503 C1502 1.363 . S
C1503 C1509 1.428 . S
H1504 C1500 0.930 . S
H1505 C1502 0.929 . S
S1506 N1507 1.613 . S
S1506 N1508 1.610 . S
N1507 S1506 1.613 . S
N1507 C1510 1.350 . S
N1508 S1506 1.610 . S
N1508 C1509 1.351 . S
C1509 C1503 1.428 . S
C1509 N1508 1.351 . S
C1509 C1510 1.434 . S
C1510 C1501 1.429 . S
C1510 N1507 1.350 . S
C1510 C1509 1.434 . S
C1511 C1512 1.369 . S
C1511 C1513 1.419 . S
C1511 H1515 0.930 . S
C1512 C1511 1.369 . S
C1512 C1521 1.429 1_565 S
C1513 C1511 1.419 . S
C1513 C1514 1.363 . S
C1513 H1516 0.929 . S
C1514 C1513 1.363 . S
C1514 C1520 1.428 1_565 S
H1515 C1511 0.930 . S
H1516 C1513 0.929 . S
S1517 N1518 1.613 . S
S1517 N1519 1.610 . S
N1518 S1517 1.613 . S
N1518 C1521 1.350 . S
N1519 S1517 1.610 . S
N1519 C1520 1.351 . S
C1520 C1514 1.428 1_545 S
C1520 N1519 1.351 . S
C1520 C1521 1.434 . S
C1521 C1512 1.429 1_545 S
C1521 N1518 1.350 . S
C1521 C1520 1.434 . S
C1522 C1523 1.369 . S
C1522 C1524 1.419 . S
C1522 H1526 0.930 . S
C1523 C1522 1.369 . S
C1523 C1532 1.429 1_565 S
C1524 C1522 1.419 . S
C1524 C1525 1.363 . S
C1524 H1527 0.929 . S
C1525 C1524 1.363 . S
C1525 C1531 1.428 1_565 S
H1526 C1522 0.930 . S
H1527 C1524 0.929 . S
S1528 N1529 1.613 . S
S1528 N1530 1.610 . S
N1529 S1528 1.613 . S
N1529 C1532 1.350 . S
N1530 S1528 1.610 . S
N1530 C1531 1.351 . S
C1531 C1525 1.428 1_545 S
C1531 N1530 1.351 . S
C1531 C1532 1.434 . S
C1532 C1523 1.429 1_545 S
C1532 N1529 1.350 . S
C1532 C1531 1.434 . S
C1533 C1534 1.369 . S
C1533 C1535 1.419 . S
C1533 H1537 0.930 . S
C1534 C1533 1.369 . S
C1534 C1543 1.429 . S
C1535 C1533 1.419 . S
C1535 C1536 1.363 . S
C1535 H1538 0.929 . S
C1536 C1535 1.363 . S
C1536 C1542 1.428 . S
H1537 C1533 0.930 . S
H1538 C1535 0.929 . S
S1539 N1540 1.613 . S
S1539 N1541 1.610 . S
N1540 S1539 1.613 . S
N1540 C1543 1.350 . S
N1541 S1539 1.610 . S
N1541 C1542 1.351 . S
C1542 C1536 1.428 . S
C1542 N1541 1.351 . S
C1542 C1543 1.434 . S
C1543 C1534 1.429 . S
C1543 N1540 1.350 . S
C1543 C1542 1.434 . S
C1544 C1545 1.369 . S
C1544 C1546 1.419 . S
C1544 H1548 0.930 . S
C1545 C1544 1.369 . S
C1545 C1554 1.429 . S
C1546 C1544 1.419 . S
C1546 C1547 1.363 . S
C1546 H1549 0.929 . S
C1547 C1546 1.363 . S
C1547 C1553 1.428 . S
H1548 C1544 0.930 . S
H1549 C1546 0.929 . S
S1550 N1551 1.613 . S
S1550 N1552 1.610 . S
N1551 S1550 1.613 . S
N1551 C1554 1.350 . S
N1552 S1550 1.610 . S
N1552 C1553 1.351 . S
C1553 C1547 1.428 . S
C1553 N1552 1.351 . S
C1553 C1554 1.434 . S
C1554 C1545 1.429 . S
C1554 N1551 1.350 . S
C1554 C1553 1.434 . S
C1555 C1556 1.369 . S
C1555 C1557 1.419 . S
C1555 H1559 0.930 . S
C1556 C1555 1.369 . S
C1556 C1565 1.429 . S
C1557 C1555 1.419 . S
C1557 C1558 1.363 . S
C1557 H1560 0.929 . S
C1558 C1557 1.363 . S
C1558 C1564 1.428 . S
H1559 C1555 0.930 . S
H1560 C1557 0.929 . S
S1561 N1562 1.613 . S
S1561 N1563 1.610 . S
N1562 S1561 1.613 . S
N1562 C1565 1.350 . S
N1563 S1561 1.610 . S
N1563 C1564 1.351 . S
C1564 C1558 1.428 . S
C1564 N1563 1.351 . S
C1564 C1565 1.434 . S
C1565 C1556 1.429 . S
C1565 N1562 1.350 . S
C1565 C1564 1.434 . S
C1566 C1567 1.369 . S
C1566 C1568 1.419 . S
C1566 H1570 0.930 . S
C1567 C1566 1.369 . S
C1567 C1576 1.429 . S
C1568 C1566 1.419 . S
C1568 C1569 1.363 . S
C1568 H1571 0.929 . S
C1569 C1568 1.363 . S
C1569 C1575 1.428 . S
H1570 C1566 0.930 . S
H1571 C1568 0.929 . S
S1572 N1573 1.613 . S
S1572 N1574 1.610 . S
N1573 S1572 1.613 . S
N1573 C1576 1.350 . S
N1574 S1572 1.610 . S
N1574 C1575 1.351 . S
C1575 C1569 1.428 . S
C1575 N1574 1.351 . S
C1575 C1576 1.434 . S
C1576 C1567 1.429 . S
C1576 N1573 1.350 . S
C1576 C1575 1.434 . S
C1577 C1578 1.369 . S
C1577 C1579 1.419 . S
C1577 H1581 0.930 . S
C1578 C1577 1.369 . S
C1578 C1587 1.429 . S
C1579 C1577 1.419 . S
C1579 C1580 1.363 . S
C1579 H1582 0.929 . S
C1580 C1579 1.363 . S
C1580 C1586 1.428 . S
H1581 C1577 0.930 . S
H1582 C1579 0.929 . S
S1583 N1584 1.613 . S
S1583 N1585 1.610 . S
N1584 S1583 1.613 . S
N1584 C1587 1.350 . S
N1585 S1583 1.610 . S
N1585 C1586 1.351 . S
C1586 C1580 1.428 . S
C1586 N1585 1.351 . S
C1586 C1587 1.434 . S
C1587 C1578 1.429 . S
C1587 N1584 1.350 . S
C1587 C1586 1.434 . S
C1588 C1589 1.369 . S
C1588 C1590 1.419 . S
C1588 H1592 0.930 . S
C1589 C1588 1.369 . S
C1589 C1598 1.429 . S
C1590 C1588 1.419 . S
C1590 C1591 1.363 . S
C1590 H1593 0.929 . S
C1591 C1590 1.363 . S
C1591 C1597 1.428 . S
H1592 C1588 0.930 . S
H1593 C1590 0.929 . S
S1594 N1595 1.613 1_556 S
S1594 N1596 1.610 1_556 S
N1595 S1594 1.613 1_554 S
N1595 C1598 1.350 . S
N1596 S1594 1.610 1_554 S
N1596 C1597 1.351 . S
C1597 C1591 1.428 . S
C1597 N1596 1.351 . S
C1597 C1598 1.434 . S
C1598 C1589 1.429 . S
C1598 N1595 1.350 . S
C1598 C1597 1.434 . S
C1599 C1600 1.369 . S
C1599 C1601 1.419 . S
C1599 H1603 0.930 . S
C1600 C1599 1.369 . S
C1600 C1609 1.429 . S
C1601 C1599 1.419 . S
C1601 C1602 1.363 . S
C1601 H1604 0.929 . S
C1602 C1601 1.363 . S
C1602 C1608 1.428 . S
H1603 C1599 0.930 . S
H1604 C1601 0.929 . S
S1605 N1606 1.613 . S
S1605 N1607 1.610 . S
N1606 S1605 1.613 . S
N1606 C1609 1.350 . S
N1607 S1605 1.610 . S
N1607 C1608 1.351 . S
C1608 C1602 1.428 . S
C1608 N1607 1.351 . S
C1608 C1609 1.434 . S
C1609 C1600 1.429 . S
C1609 N1606 1.350 . S
C1609 C1608 1.434 . S
C1610 C1611 1.369 . S
C1610 C1612 1.419 . S
C1610 H1614 0.930 . S
C1611 C1610 1.369 . S
C1611 C1620 1.429 . S
C1612 C1610 1.419 . S
C1612 C1613 1.363 . S
C1612 H1615 0.929 . S
C1613 C1612 1.363 . S
C1613 C1619 1.428 . S
H1614 C1610 0.930 . S
H1615 C1612 0.929 . S
S1616 N1617 1.613 . S
S1616 N1618 1.610 . S
N1617 S1616 1.613 . S
N1617 C1620 1.350 . S
N1618 S1616 1.610 . S
N1618 C1619 1.351 . S
C1619 C1613 1.428 . S
C1619 N1618 1.351 . S
C1619 C1620 1.434 . S
C1620 C1611 1.429 . S
C1620 N1617 1.350 . S
C1620 C1619 1.434 . S
C1621 C1622 1.369 . S
C1621 C1623 1.419 . S
C1621 H1625 0.930 . S
C1622 C1621 1.369 . S
C1622 C1631 1.429 . S
C1623 C1621 1.419 . S
C1623 C1624 1.363 . S
C1623 H1626 0.929 . S
C1624 C1623 1.363 . S
C1624 C1630 1.428 . S
H1625 C1621 0.930 . S
H1626 C1623 0.929 . S
S1627 N1628 1.613 . S
S1627 N1629 1.610 . S
N1628 S1627 1.613 . S
N1628 C1631 1.350 . S
N1629 S1627 1.610 . S
N1629 C1630 1.351 . S
C1630 C1624 1.428 . S
C1630 N1629 1.351 . S
C1630 C1631 1.434 . S
C1631 C1622 1.429 . S
C1631 N1628 1.350 . S
C1631 C1630 1.434 . S
C1632 C1633 1.369 . S
C1632 C1634 1.419 . S
C1632 H1636 0.930 . S
C1633 C1632 1.369 . S
C1633 C1642 1.429 . S
C1634 C1632 1.419 . S
C1634 C1635 1.363 . S
C1634 H1637 0.929 . S
C1635 C1634 1.363 . S
C1635 C1641 1.428 . S
H1636 C1632 0.930 . S
H1637 C1634 0.929 . S
S1638 N1639 1.613 . S
S1638 N1640 1.610 . S
N1639 S1638 1.613 . S
N1639 C1642 1.350 . S
N1640 S1638 1.610 . S
N1640 C1641 1.351 . S
C1641 C1635 1.428 . S
C1641 N1640 1.351 . S
C1641 C1642 1.434 . S
C1642 C1633 1.429 . S
C1642 N1639 1.350 . S
C1642 C1641 1.434 . S
C1643 C1644 1.369 . S
C1643 C1645 1.419 . S
C1643 H1647 0.930 . S
C1644 C1643 1.369 . S
C1644 C1653 1.429 1_545 S
C1645 C1643 1.419 . S
C1645 C1646 1.363 1_545 S
C1645 H1648 0.929 . S
C1646 C1645 1.363 1_565 S
C1646 C1652 1.428 . S
H1647 C1643 0.930 . S
H1648 C1645 0.929 . S
S1649 N1650 1.613 . S
S1649 N1651 1.610 . S
N1650 S1649 1.613 . S
N1650 C1653 1.350 . S
N1651 S1649 1.610 . S
N1651 C1652 1.351 . S
C1652 C1646 1.428 . S
C1652 N1651 1.351 . S
C1652 C1653 1.434 . S
C1653 C1644 1.429 1_565 S
C1653 N1650 1.350 . S
C1653 C1652 1.434 . S
C1654 C1655 1.369 . S
C1654 C1656 1.419 1_565 S
C1654 H1658 0.930 . S
C1655 C1654 1.369 . S
C1655 C1664 1.429 . S
C1656 C1654 1.419 1_545 S
C1656 C1657 1.363 . S
C1656 H1659 0.929 . S
C1657 C1656 1.363 . S
C1657 C1663 1.428 . S
H1658 C1654 0.930 . S
H1659 C1656 0.929 . S
S1660 N1661 1.601 1_545 S
S1660 N1662 1.610 . S
N1661 S1660 1.601 1_565 S
N1661 C1664 1.350 . S
N1662 S1660 1.610 . S
N1662 C1663 1.351 . S
C1663 C1657 1.428 . S
C1663 N1662 1.351 . S
C1663 C1664 1.434 1_545 S
C1664 C1655 1.429 . S
C1664 N1661 1.350 . S
C1664 C1663 1.434 1_565 S
C1665 C1666 1.369 . S
C1665 C1667 1.419 . S
C1665 H1669 0.930 . S
C1666 C1665 1.369 . S
C1666 C1675 1.429 . S
C1667 C1665 1.419 . S
C1667 C1668 1.363 . S
C1667 H1670 0.929 . S
C1668 C1667 1.363 . S
C1668 C1674 1.428 . S
H1669 C1665 0.930 . S
H1670 C1667 0.929 . S
S1671 N1672 1.613 . S
S1671 N1673 1.610 . S
N1672 S1671 1.613 . S
N1672 C1675 1.350 . S
N1673 S1671 1.610 . S
N1673 C1674 1.351 . S
C1674 C1668 1.428 . S
C1674 N1673 1.351 . S
C1674 C1675 1.434 . S
C1675 C1666 1.429 . S
C1675 N1672 1.350 . S
C1675 C1674 1.434 . S
C1676 C1677 1.369 . S
C1676 C1678 1.419 . S
C1676 H1680 0.930 . S
C1677 C1676 1.369 . S
C1677 C1686 1.429 . S
C1678 C1676 1.419 . S
C1678 C1679 1.363 . S
C1678 H1681 0.929 . S
C1679 C1678 1.363 . S
C1679 C1685 1.428 . S
H1680 C1676 0.930 . S
H1681 C1678 0.929 . S
S1682 N1683 1.613 . S
S1682 N1684 1.610 . S
N1683 S1682 1.613 . S
N1683 C1686 1.350 . S
N1684 S1682 1.610 . S
N1684 C1685 1.351 . S
C1685 C1679 1.428 . S
C1685 N1684 1.351 . S
C1685 C1686 1.434 . S
C1686 C1677 1.429 . S
C1686 N1683 1.350 . S
C1686 C1685 1.434 . S
C1687 C1688 1.369 . S
C1687 C1689 1.419 . S
C1687 H1691 0.930 . S
C1688 C1687 1.369 . S
C1688 C1697 1.429 1_545 S
C1689 C1687 1.419 . S
C1689 C1690 1.363 1_545 S
C1689 H1692 0.929 . S
C1690 C1689 1.363 1_565 S
C1690 C1696 1.428 . S
H1691 C1687 0.930 . S
H1692 C1689 0.929 . S
S1693 N1694 1.613 . S
S1693 N1695 1.610 . S
N1694 S1693 1.613 . S
N1694 C1697 1.350 . S
N1695 S1693 1.610 . S
N1695 C1696 1.351 . S
C1696 C1690 1.428 . S
C1696 N1695 1.351 . S
C1696 C1697 1.434 . S
C1697 C1688 1.429 1_565 S
C1697 N1694 1.350 . S
C1697 C1696 1.434 . S
C1698 C1699 1.369 1_565 S
C1698 C1700 1.419 . S
C1698 H1702 0.930 . S
C1699 C1698 1.369 1_545 S
C1699 C1708 1.429 . S
C1700 C1698 1.419 . S
C1700 C1701 1.363 . S
C1700 H1703 0.929 . S
C1701 C1700 1.363 . S
C1701 C1707 1.428 1_565 S
H1702 C1698 0.930 . S
H1703 C1700 0.929 . S
S1704 N1705 1.613 . S
S1704 N1706 1.610 . S
N1705 S1704 1.613 . S
N1705 C1708 1.350 . S
N1706 S1704 1.610 . S
N1706 C1707 1.351 . S
C1707 C1701 1.428 1_545 S
C1707 N1706 1.351 . S
C1707 C1708 1.434 . S
C1708 C1699 1.429 . S
C1708 N1705 1.350 . S
C1708 C1707 1.434 . S
C1709 C1710 1.369 . S
C1709 C1711 1.419 . S
C1709 H1713 0.930 . S
C1710 C1709 1.369 . S
C1710 C1719 1.429 . S
C1711 C1709 1.419 . S
C1711 C1712 1.363 . S
C1711 H1714 0.929 . S
C1712 C1711 1.363 . S
C1712 C1718 1.428 . S
H1713 C1709 0.930 . S
H1714 C1711 0.929 . S
S1715 N1716 1.613 1_655 S
S1715 N1717 1.610 1_655 S
N1716 S1715 1.613 1_455 S
N1716 C1719 1.350 . S
N1717 S1715 1.610 1_455 S
N1717 C1718 1.351 . S
C1718 C1712 1.428 . S
C1718 N1717 1.351 . S
C1718 C1719 1.434 . S
C1719 C1710 1.429 . S
C1719 N1716 1.350 . S
C1719 C1718 1.434 . S
C1720 C1721 1.369 . S
C1720 C1722 1.419 . S
C1720 H1724 0.930 . S
C1721 C1720 1.369 . S
C1721 C1730 1.429 . S
C1722 C1720 1.419 . S
C1722 C1723 1.363 . S
C1722 H1725 0.929 . S
C1723 C1722 1.363 . S
C1723 C1729 1.428 . S
H1724 C1720 0.930 . S
H1725 C1722 0.929 . S
S1726 N1727 1.613 . S
S1726 N1728 1.610 . S
N1727 S1726 1.613 . S
N1727 C1730 1.350 . S
N1728 S1726 1.610 . S
N1728 C1729 1.351 . S
C1729 C1723 1.428 . S
C1729 N1728 1.351 . S
C1729 C1730 1.434 . S
C1730 C1721 1.429 . S
C1730 N1727 1.350 . S
C1730 C1729 1.434 . S
C1731 C1732 1.369 . S
C1731 C1733 1.419 . S
C1731 H1735 0.930 . S
C1732 C1731 1.369 . S
C1732 C1741 1.429 . S
C1733 C1731 1.419 . S
C1733 C1734 1.363 . S
C1733 H1736 0.929 . S
C1734 C1733 1.363 . S
C1734 C1740 1.428 . S
H1735 C1731 0.930 . S
H1736 C1733 0.929 . S
S1737 N1738 1.613 . S
S1737 N1739 1.610 . S
N1738 S1737 1.613 . S
N1738 C1741 1.350 . S
N1739 S1737 1.610 . S
N1739 C1740 1.351 . S
C1740 C1734 1.428 . S
C1740 N1739 1.351 . S
C1740 C1741 1.434 . S
C1741 C1732 1.429 . S
C1741 N1738 1.350 . S
C1741 C1740 1.434 . S
C1742 C1743 1.369 . S
C1742 C1744 1.419 1_556 S
C1742 H1746 0.930 . S
C1743 C1742 1.369 . S
C1743 C1752 1.429 1_556 S
C1744 C1742 1.419 1_554 S
C1744 C1745 1.363 . S
C1744 H1747 0.931 . S
C1745 C1744 1.363 . S
C1745 C1751 1.428 . S
H1746 C1742 0.930 . S
H1747 C1744 0.931 . S
S1748 N1749 1.613 . S
S1748 N1750 1.610 . S
N1749 S1748 1.613 . S
N1749 C1752 1.350 . S
N1750 S1748 1.610 . S
N1750 C1751 1.351 . S
C1751 C1745 1.428 . S
C1751 N1750 1.351 . S
C1751 C1752 1.434 . S
C1752 C1743 1.429 1_554 S
C1752 N1749 1.350 . S
C1752 C1751 1.434 . S
C1753 C1754 1.369 1_554 S
C1753 C1755 1.419 . S
C1753 H1757 0.930 . S
C1754 C1753 1.369 1_556 S
C1754 C1763 1.429 . S
C1755 C1753 1.419 . S
C1755 C1756 1.363 . S
C1755 H1758 0.929 . S
C1756 C1755 1.363 . S
C1756 C1762 1.428 . S
H1757 C1753 0.930 . S
H1758 C1755 0.929 . S
S1759 N1760 1.613 . S
S1759 N1761 1.610 . S
N1760 S1759 1.613 . S
N1760 C1763 1.350 . S
N1761 S1759 1.610 . S
N1761 C1762 1.351 1_556 S
C1762 C1756 1.428 . S
C1762 N1761 1.351 1_554 S
C1762 C1763 1.434 1_554 S
C1763 C1754 1.429 . S
C1763 N1760 1.350 . S
C1763 C1762 1.434 1_556 S
C1764 C1765 1.369 . S
C1764 C1766 1.419 . S
C1764 H1768 0.930 . S
C1765 C1764 1.369 . S
C1765 C1774 1.429 . S
C1766 C1764 1.419 . S
C1766 C1767 1.363 . S
C1766 H1769 0.929 . S
C1767 C1766 1.363 . S
C1767 C1773 1.428 . S
H1768 C1764 0.930 . S
H1769 C1766 0.929 . S
S1770 N1771 1.613 . S
S1770 N1772 1.610 . S
N1771 S1770 1.613 . S
N1771 C1774 1.350 . S
N1772 S1770 1.610 . S
N1772 C1773 1.351 . S
C1773 C1767 1.428 . S
C1773 N1772 1.351 . S
C1773 C1774 1.434 . S
C1774 C1765 1.429 . S
C1774 N1771 1.350 . S
C1774 C1773 1.434 . S
C1775 C1776 1.369 . S
C1775 C1777 1.419 . S
C1775 H1779 0.930 . S
C1776 C1775 1.369 . S
C1776 C1785 1.429 . S
C1777 C1775 1.419 . S
C1777 C1778 1.363 . S
C1777 H1780 0.929 . S
C1778 C1777 1.363 . S
C1778 C1784 1.428 . S
H1779 C1775 0.930 . S
H1780 C1777 0.929 . S
S1781 N1782 1.613 . S
S1781 N1783 1.610 . S
N1782 S1781 1.613 . S
N1782 C1785 1.350 . S
N1783 S1781 1.610 . S
N1783 C1784 1.351 . S
C1784 C1778 1.428 . S
C1784 N1783 1.351 . S
C1784 C1785 1.434 . S
C1785 C1776 1.429 . S
C1785 N1782 1.350 . S
C1785 C1784 1.434 . S
C1786 C1787 1.369 1_556 S
C1786 C1788 1.419 . S
C1786 H1790 0.930 . S
C1787 C1786 1.369 1_554 S
C1787 C1796 1.429 . S
C1788 C1786 1.419 . S
C1788 C1789 1.363 . S
C1788 H1791 0.929 . S
C1789 C1788 1.363 . S
C1789 C1795 1.428 . S
H1790 C1786 0.930 . S
H1791 C1788 0.929 . S
S1792 N1793 1.613 . S
S1792 N1794 1.610 . S
N1793 S1792 1.613 . S
N1793 C1796 1.350 . S
N1794 S1792 1.610 . S
N1794 C1795 1.351 1_554 S
C1795 C1789 1.428 . S
C1795 N1794 1.351 1_556 S
C1795 C1796 1.434 1_556 S
C1796 C1787 1.429 . S
C1796 N1793 1.350 . S
C1796 C1795 1.434 1_554 S
C1797 C1798 1.369 . S
C1797 C1799 1.419 . S
C1797 H1801 0.930 . S
C1798 C1797 1.369 . S
C1798 C1807 1.429 . S
C1799 C1797 1.419 . S
C1799 C1800 1.363 1_556 S
C1799 H1802 0.929 . S
C1800 C1799 1.363 1_554 S
C1800 C1806 1.428 . S
H1801 C1797 0.930 . S
H1802 C1799 0.929 . S
S1803 N1804 1.613 1_654 S
S1803 N1805 1.610 1_655 S
N1804 S1803 1.613 1_456 S
N1804 C1807 1.350 . S
N1805 S1803 1.610 1_455 S
N1805 C1806 1.351 . S
C1806 C1800 1.428 . S
C1806 N1805 1.351 . S
C1806 C1807 1.434 1_554 S
C1807 C1798 1.429 . S
C1807 N1804 1.350 . S
C1807 C1806 1.434 1_556 S
C1808 C1809 1.369 . S
C1808 C1810 1.419 . S
C1808 H1812 0.930 . S
C1809 C1808 1.369 . S
C1809 C1818 1.429 . S
C1810 C1808 1.419 . S
C1810 C1811 1.363 . S
C1810 H1813 0.929 . S
C1811 C1810 1.363 . S
C1811 C1817 1.428 . S
H1812 C1808 0.930 . S
H1813 C1810 0.929 . S
S1814 N1815 1.613 . S
S1814 N1816 1.610 . S
N1815 S1814 1.613 . S
N1815 C1818 1.350 . S
N1816 S1814 1.610 . S
N1816 C1817 1.351 . S
C1817 C1811 1.428 . S
C1817 N1816 1.351 . S
C1817 C1818 1.434 . S
C1818 C1809 1.429 . S
C1818 N1815 1.350 . S
C1818 C1817 1.434 . S
C1819 C1820 1.369 1_545 S
C1819 C1821 1.419 . S
C1819 H1823 0.930 . S
C1820 C1819 1.369 1_565 S
C1820 C1829 1.429 . S
C1821 C1819 1.419 . S
C1821 C1822 1.363 . S
C1821 H1824 0.929 . S
C1822 C1821 1.363 . S
C1822 C1828 1.428 1_545 S
H1823 C1819 0.930 . S
H1824 C1821 0.929 . S
S1825 N1826 1.613 . S
S1825 N1827 1.610 . S
N1826 S1825 1.613 . S
N1826 C1829 1.350 . S
N1827 S1825 1.610 . S
N1827 C1828 1.351 . S
C1828 C1822 1.428 1_565 S
C1828 N1827 1.351 . S
C1828 C1829 1.434 . S
C1829 C1820 1.429 . S
C1829 N1826 1.350 . S
C1829 C1828 1.434 . S
C1830 C1831 1.349 1_545 S
C1830 C1832 1.437 1_556 S
C1830 H1834 0.933 . S
C1831 C1830 1.349 1_565 S
C1831 C1840 1.429 1_556 S
C1832 C1830 1.437 1_554 S
C1832 C1833 1.363 . S
C1832 H1835 0.929 . S
C1833 C1832 1.363 . S
C1833 C1839 1.428 1_545 S
H1834 C1830 0.933 . S
H1835 C1832 0.929 . S
S1836 N1837 1.613 . S
S1836 N1838 1.610 . S
N1837 S1836 1.613 . S
N1837 C1840 1.350 . S
N1838 S1836 1.610 . S
N1838 C1839 1.351 . S
C1839 C1833 1.428 1_565 S
C1839 N1838 1.351 . S
C1839 C1840 1.434 . S
C1840 C1831 1.429 1_554 S
C1840 N1837 1.350 . S
C1840 C1839 1.434 . S
C1841 C1842 1.369 1_554 S
C1841 C1843 1.419 . S
C1841 H1845 0.930 . S
C1842 C1841 1.369 1_556 S
C1842 C1851 1.429 . S
C1843 C1841 1.419 . S
C1843 C1844 1.363 . S
C1843 H1846 0.929 . S
C1844 C1843 1.363 . S
C1844 C1850 1.428 . S
H1845 C1841 0.930 . S
H1846 C1843 0.929 . S
S1847 N1848 1.613 . S
S1847 N1849 1.610 . S
N1848 S1847 1.613 . S
N1848 C1851 1.350 . S
N1849 S1847 1.610 . S
N1849 C1850 1.351 1_556 S
C1850 C1844 1.428 . S
C1850 N1849 1.351 1_554 S
C1850 C1851 1.434 1_554 S
C1851 C1842 1.429 . S
C1851 N1848 1.350 . S
C1851 C1850 1.434 1_556 S
C1852 C1853 1.369 . S
C1852 C1854 1.419 . S
C1852 H1856 0.930 . S
C1853 C1852 1.369 . S
C1853 C1862 1.429 . S
C1854 C1852 1.419 . S
C1854 C1855 1.363 . S
C1854 H1857 0.929 . S
C1855 C1854 1.363 . S
C1855 C1861 1.428 . S
H1856 C1852 0.930 . S
H1857 C1854 0.929 . S
S1858 N1859 1.613 . S
S1858 N1860 1.610 . S
N1859 S1858 1.613 . S
N1859 C1862 1.350 . S
N1860 S1858 1.610 . S
N1860 C1861 1.351 . S
C1861 C1855 1.428 . S
C1861 N1860 1.351 . S
C1861 C1862 1.434 . S
C1862 C1853 1.429 . S
C1862 N1859 1.350 . S
C1862 C1861 1.434 . S
C1863 C1864 1.367 1_565 S
C1863 C1865 1.420 . S
C1863 H1867 0.930 . S
C1864 C1863 1.367 1_545 S
C1864 C1873 1.429 . S
C1865 C1863 1.420 . S
C1865 C1866 1.363 . S
C1865 H1868 0.929 . S
C1866 C1865 1.363 . S
C1866 C1872 1.428 1_565 S
H1867 C1863 0.930 . S
H1868 C1865 0.929 . S
S1869 N1870 1.613 . S
S1869 N1871 1.610 . S
N1870 S1869 1.613 . S
N1870 C1873 1.350 . S
N1871 S1869 1.610 . S
N1871 C1872 1.351 . S
C1872 C1866 1.428 1_545 S
C1872 N1871 1.351 . S
C1872 C1873 1.434 . S
C1873 C1864 1.429 . S
C1873 N1870 1.350 . S
C1873 C1872 1.434 . S
C1874 C1875 1.369 . S
C1874 C1876 1.419 1_566 S
C1874 H1878 0.930 . S
C1875 C1874 1.369 . S
C1875 C1884 1.429 . S
C1876 C1874 1.419 1_544 S
C1876 C1877 1.363 . S
C1876 H1879 0.929 . S
C1877 C1876 1.363 . S
C1877 C1883 1.428 1_554 S
H1878 C1874 0.930 . S
H1879 C1876 0.929 . S
S1880 N1881 1.613 . S
S1880 N1882 1.610 1_565 S
N1881 S1880 1.613 . S
N1881 C1884 1.350 . S
N1882 S1880 1.610 1_545 S
N1882 C1883 1.351 . S
C1883 C1877 1.428 1_556 S
C1883 N1882 1.351 . S
C1883 C1884 1.434 1_545 S
C1884 C1875 1.429 . S
C1884 N1881 1.350 . S
C1884 C1883 1.434 1_565 S
C1885 C1886 1.369 . S
C1885 C1887 1.419 . S
C1885 H1889 0.930 . S
C1886 C1885 1.369 . S
C1886 C1895 1.429 . S
C1887 C1885 1.419 . S
C1887 C1888 1.363 1_556 S
C1887 H1890 0.929 . S
C1888 C1887 1.363 1_554 S
C1888 C1894 1.428 . S
H1889 C1885 0.930 . S
H1890 C1887 0.929 . S
S1891 N1892 1.613 1_554 S
S1891 N1893 1.610 . S
N1892 S1891 1.613 1_556 S
N1892 C1895 1.350 . S
N1893 S1891 1.610 . S
N1893 C1894 1.351 . S
C1894 C1888 1.428 . S
C1894 N1893 1.351 . S
C1894 C1895 1.434 1_554 S
C1895 C1886 1.429 . S
C1895 N1892 1.350 . S
C1895 C1894 1.434 1_556 S
C1896 C1897 1.369 . S
C1896 C1898 1.419 . S
C1896 H1900 0.930 . S
C1897 C1896 1.369 . S
C1897 C1906 1.429 . S
C1898 C1896 1.419 . S
C1898 C1899 1.363 . S
C1898 H1901 0.929 . S
C1899 C1898 1.363 . S
C1899 C1905 1.428 . S
H1900 C1896 0.930 . S
H1901 C1898 0.929 . S
S1902 N1903 1.613 . S
S1902 N1904 1.610 . S
N1903 S1902 1.613 . S
N1903 C1906 1.350 . S
N1904 S1902 1.610 . S
N1904 C1905 1.351 . S
C1905 C1899 1.428 . S
C1905 N1904 1.351 . S
C1905 C1906 1.434 . S
C1906 C1897 1.429 . S
C1906 N1903 1.350 . S
C1906 C1905 1.434 . S
C1907 C1908 1.369 . S
C1907 C1909 1.419 . S
C1907 H1911 0.930 . S
C1908 C1907 1.369 . S
C1908 C1917 1.429 . S
C1909 C1907 1.419 . S
C1909 C1910 1.363 . S
C1909 H1912 0.929 . S
C1910 C1909 1.363 . S
C1910 C1916 1.428 . S
H1911 C1907 0.930 . S
H1912 C1909 0.929 . S
S1913 N1914 1.613 . S
S1913 N1915 1.610 . S
N1914 S1913 1.613 . S
N1914 C1917 1.350 . S
N1915 S1913 1.610 . S
N1915 C1916 1.351 . S
C1916 C1910 1.428 . S
C1916 N1915 1.351 . S
C1916 C1917 1.434 . S
C1917 C1908 1.429 . S
C1917 N1914 1.350 . S
C1917 C1916 1.434 . S
C1918 C1919 1.369 . S
C1918 C1920 1.419 . S
C1918 H1922 0.930 . S
C1919 C1918 1.369 . S
C1919 C1928 1.429 . S
C1920 C1918 1.419 . S
C1920 C1921 1.363 . S
C1920 H1923 0.929 . S
C1921 C1920 1.363 . S
C1921 C1927 1.428 . S
H1922 C1918 0.930 . S
H1923 C1920 0.929 . S
S1924 N1925 1.613 . S
S1924 N1926 1.610 . S
N1925 S1924 1.613 . S
N1925 C1928 1.350 . S
N1926 S1924 1.610 . S
N1926 C1927 1.351 . S
C1927 C1921 1.428 . S
C1927 N1926 1.351 . S
C1927 C1928 1.434 . S
C1928 C1919 1.429 . S
C1928 N1925 1.350 . S
C1928 C1927 1.434 . S
C1929 C1930 1.369 . S
C1929 C1931 1.419 . S
C1929 H1933 0.930 . S
C1930 C1929 1.369 . S
C1930 C1939 1.429 . S
C1931 C1929 1.419 . S
C1931 C1932 1.363 . S
C1931 H1934 0.929 . S
C1932 C1931 1.363 . S
C1932 C1938 1.428 . S
H1933 C1929 0.930 . S
H1934 C1931 0.929 . S
S1935 N1936 1.613 . S
S1935 N1937 1.610 . S
N1936 S1935 1.613 . S
N1936 C1939 1.350 . S
N1937 S1935 1.610 . S
N1937 C1938 1.351 . S
C1938 C1932 1.428 . S
C1938 N1937 1.351 . S
C1938 C1939 1.434 . S
C1939 C1930 1.429 . S
C1939 N1936 1.350 . S
C1939 C1938 1.434 . S
C1940 C1941 1.369 . S
C1940 C1942 1.419 . S
C1940 H1944 0.930 . S
C1941 C1940 1.369 . S
C1941 C1950 1.429 . S
C1942 C1940 1.419 . S
C1942 C1943 1.363 . S
C1942 H1945 0.929 . S
C1943 C1942 1.363 . S
C1943 C1949 1.428 . S
H1944 C1940 0.930 . S
H1945 C1942 0.929 . S
S1946 N1947 1.613 . S
S1946 N1948 1.610 . S
N1947 S1946 1.613 . S
N1947 C1950 1.350 . S
N1948 S1946 1.610 . S
N1948 C1949 1.351 . S
C1949 C1943 1.428 . S
C1949 N1948 1.351 . S
C1949 C1950 1.434 . S
C1950 C1941 1.429 . S
C1950 N1947 1.350 . S
C1950 C1949 1.434 . S
C1951 C1952 1.369 . S
C1951 C1953 1.419 . S
C1951 H1955 0.930 . S
C1952 C1951 1.369 . S
C1952 C1961 1.429 . S
C1953 C1951 1.419 . S
C1953 C1954 1.363 . S
C1953 H1956 0.929 . S
C1954 C1953 1.363 . S
C1954 C1960 1.428 . S
H1955 C1951 0.930 . S
H1956 C1953 0.929 . S
S1957 N1958 1.613 . S
S1957 N1959 1.610 . S
N1958 S1957 1.613 . S
N1958 C1961 1.350 . S
N1959 S1957 1.610 . S
N1959 C1960 1.351 . S
C1960 C1954 1.428 . S
C1960 N1959 1.351 . S
C1960 C1961 1.434 . S
C1961 C1952 1.429 . S
C1961 N1958 1.350 . S
C1961 C1960 1.434 . S
C1962 C1963 1.369 . S
C1962 C1964 1.419 . S
C1962 H1966 0.930 . S
C1963 C1962 1.369 . S
C1963 C1972 1.429 . S
C1964 C1962 1.419 . S
C1964 C1965 1.363 . S
C1964 H1967 0.929 . S
C1965 C1964 1.363 . S
C1965 C1971 1.428 . S
H1966 C1962 0.930 . S
H1967 C1964 0.929 . S
S1968 N1969 1.613 . S
S1968 N1970 1.610 . S
N1969 S1968 1.613 . S
N1969 C1972 1.350 . S
N1970 S1968 1.610 . S
N1970 C1971 1.351 . S
C1971 C1965 1.428 . S
C1971 N1970 1.351 . S
C1971 C1972 1.434 . S
C1972 C1963 1.429 . S
C1972 N1969 1.350 . S
C1972 C1971 1.434 . S
C1973 C1974 1.369 . S
C1973 C1975 1.419 . S
C1973 H1977 0.930 . S
C1974 C1973 1.369 . S
C1974 C1983 1.429 . S
C1975 C1973 1.419 . S
C1975 C1976 1.363 . S
C1975 H1978 0.929 . S
C1976 C1975 1.363 . S
C1976 C1982 1.428 . S
H1977 C1973 0.930 . S
H1978 C1975 0.929 . S
S1979 N1980 1.613 . S
S1979 N1981 1.610 . S
N1980 S1979 1.613 . S
N1980 C1983 1.350 . S
N1981 S1979 1.610 . S
N1981 C1982 1.351 . S
C1982 C1976 1.428 . S
C1982 N1981 1.351 . S
C1982 C1983 1.434 . S
C1983 C1974 1.429 . S
C1983 N1980 1.350 . S
C1983 C1982 1.434 . S
C1984 C1985 1.369 . S
C1984 C1986 1.419 . S
C1984 H1988 0.930 . S
C1985 C1984 1.369 . S
C1985 C1994 1.429 . S
C1986 C1984 1.419 . S
C1986 C1987 1.363 . S
C1986 H1989 0.929 . S
C1987 C1986 1.363 . S
C1987 C1993 1.428 . S
H1988 C1984 0.930 . S
H1989 C1986 0.929 . S
S1990 N1991 1.613 . S
S1990 N1992 1.610 . S
N1991 S1990 1.613 . S
N1991 C1994 1.350 . S
N1992 S1990 1.610 . S
N1992 C1993 1.351 . S
C1993 C1987 1.428 . S
C1993 N1992 1.351 . S
C1993 C1994 1.434 . S
C1994 C1985 1.429 . S
C1994 N1991 1.350 . S
C1994 C1993 1.434 . S
C1995 C1996 1.369 . S
C1995 C1997 1.419 . S
C1995 H1999 0.930 . S
C1996 C1995 1.369 . S
C1996 C2005 1.429 . S
C1997 C1995 1.419 . S
C1997 C1998 1.363 . S
C1997 H2000 0.929 . S
C1998 C1997 1.363 . S
C1998 C2004 1.428 . S
H1999 C1995 0.930 . S
H2000 C1997 0.929 . S
S2001 N2002 1.613 . S
S2001 N2003 1.610 . S
N2002 S2001 1.613 . S
N2002 C2005 1.350 . S
N2003 S2001 1.610 . S
N2003 C2004 1.351 . S
C2004 C1998 1.428 . S
C2004 N2003 1.351 . S
C2004 C2005 1.434 . S
C2005 C1996 1.429 . S
C2005 N2002 1.350 . S
C2005 C2004 1.434 . S
C2006 C2007 1.369 . S
C2006 C2008 1.419 . S
C2006 H2010 0.930 . S
C2007 C2006 1.369 . S
C2007 C2016 1.429 . S
C2008 C2006 1.419 . S
C2008 C2009 1.363 . S
C2008 H2011 0.929 . S
C2009 C2008 1.363 . S
C2009 C2015 1.428 . S
H2010 C2006 0.930 . S
H2011 C2008 0.929 . S
S2012 N2013 1.613 . S
S2012 N2014 1.610 . S
N2013 S2012 1.613 . S
N2013 C2016 1.350 . S
N2014 S2012 1.610 . S
N2014 C2015 1.351 . S
C2015 C2009 1.428 . S
C2015 N2014 1.351 . S
C2015 C2016 1.434 . S
C2016 C2007 1.429 . S
C2016 N2013 1.350 . S
C2016 C2015 1.434 . S
C2017 C2018 1.369 . S
C2017 C2019 1.419 . S
C2017 H2021 0.930 . S
C2018 C2017 1.369 . S
C2018 C2027 1.429 . S
C2019 C2017 1.419 . S
C2019 C2020 1.363 . S
C2019 H2022 0.929 . S
C2020 C2019 1.363 . S
C2020 C2026 1.428 . S
H2021 C2017 0.930 . S
H2022 C2019 0.929 . S
S2023 N2024 1.613 . S
S2023 N2025 1.610 . S
N2024 S2023 1.613 . S
N2024 C2027 1.350 . S
N2025 S2023 1.610 . S
N2025 C2026 1.351 . S
C2026 C2020 1.428 . S
C2026 N2025 1.351 . S
C2026 C2027 1.434 . S
C2027 C2018 1.429 . S
C2027 N2024 1.350 . S
C2027 C2026 1.434 . S
C2028 C2029 1.369 . S
C2028 C2030 1.419 . S
C2028 H2032 0.930 . S
C2029 C2028 1.369 . S
C2029 C2038 1.429 . S
C2030 C2028 1.419 . S
C2030 C2031 1.363 . S
C2030 H2033 0.929 . S
C2031 C2030 1.363 . S
C2031 C2037 1.428 . S
H2032 C2028 0.930 . S
H2033 C2030 0.929 . S
S2034 N2035 1.613 . S
S2034 N2036 1.610 . S
N2035 S2034 1.613 . S
N2035 C2038 1.350 . S
N2036 S2034 1.610 . S
N2036 C2037 1.351 . S
C2037 C2031 1.428 . S
C2037 N2036 1.351 . S
C2037 C2038 1.434 . S
C2038 C2029 1.429 . S
C2038 N2035 1.350 . S
C2038 C2037 1.434 . S
C2039 C2040 1.369 . S
C2039 C2041 1.419 . S
C2039 H2043 0.930 . S
C2040 C2039 1.369 . S
C2040 C2049 1.429 . S
C2041 C2039 1.419 . S
C2041 C2042 1.363 . S
C2041 H2044 0.929 . S
C2042 C2041 1.363 . S
C2042 C2048 1.428 . S
H2043 C2039 0.930 . S
H2044 C2041 0.929 . S
S2045 N2046 1.614 1_655 S
S2045 N2047 1.611 1_655 S
N2046 S2045 1.614 1_455 S
N2046 C2049 1.350 . S
N2047 S2045 1.611 1_455 S
N2047 C2048 1.351 . S
C2048 C2042 1.428 . S
C2048 N2047 1.351 . S
C2048 C2049 1.434 . S
C2049 C2040 1.429 . S
C2049 N2046 1.350 . S
C2049 C2048 1.434 . S
C2050 C2051 1.369 . S
C2050 C2052 1.419 . S
C2050 H2054 0.930 . S
C2051 C2050 1.369 . S
C2051 C2060 1.429 . S
C2052 C2050 1.419 . S
C2052 C2053 1.363 . S
C2052 H2055 0.929 . S
C2053 C2052 1.363 . S
C2053 C2059 1.428 . S
H2054 C2050 0.930 . S
H2055 C2052 0.929 . S
S2056 N2057 1.613 . S
S2056 N2058 1.610 . S
N2057 S2056 1.613 . S
N2057 C2060 1.350 . S
N2058 S2056 1.610 . S
N2058 C2059 1.351 . S
C2059 C2053 1.428 . S
C2059 N2058 1.351 . S
C2059 C2060 1.434 . S
C2060 C2051 1.429 . S
C2060 N2057 1.350 . S
C2060 C2059 1.434 . S
C2061 C2062 1.369 . S
C2061 C2063 1.419 . S
C2061 H2065 0.930 . S
C2062 C2061 1.369 . S
C2062 C2071 1.429 . S
C2063 C2061 1.419 . S
C2063 C2064 1.363 . S
C2063 H2066 0.929 . S
C2064 C2063 1.363 . S
C2064 C2070 1.428 . S
H2065 C2061 0.930 . S
H2066 C2063 0.929 . S
S2067 N2068 1.613 . S
S2067 N2069 1.610 . S
N2068 S2067 1.613 . S
N2068 C2071 1.350 . S
N2069 S2067 1.610 . S
N2069 C2070 1.351 . S
C2070 C2064 1.428 . S
C2070 N2069 1.351 . S
C2070 C2071 1.434 . S
C2071 C2062 1.429 . S
C2071 N2068 1.350 . S
C2071 C2070 1.434 . S
C2072 C2073 1.369 . S
C2072 C2074 1.419 . S
C2072 H2076 0.930 . S
C2073 C2072 1.369 . S
C2073 C2082 1.429 . S
C2074 C2072 1.419 . S
C2074 C2075 1.363 . S
C2074 H2077 0.929 . S
C2075 C2074 1.363 . S
C2075 C2081 1.428 . S
H2076 C2072 0.930 . S
H2077 C2074 0.929 . S
S2078 N2079 1.613 . S
S2078 N2080 1.610 . S
N2079 S2078 1.613 . S
N2079 C2082 1.350 . S
N2080 S2078 1.610 . S
N2080 C2081 1.351 . S
C2081 C2075 1.428 . S
C2081 N2080 1.351 . S
C2081 C2082 1.434 . S
C2082 C2073 1.429 . S
C2082 N2079 1.350 . S
C2082 C2081 1.434 . S
C2083 C2084 1.369 . S
C2083 C2085 1.419 . S
C2083 H2087 0.930 . S
C2084 C2083 1.369 . S
C2084 C2093 1.429 . S
C2085 C2083 1.419 . S
C2085 C2086 1.363 . S
C2085 H2088 0.929 . S
C2086 C2085 1.363 . S
C2086 C2092 1.428 . S
H2087 C2083 0.930 . S
H2088 C2085 0.929 . S
S2089 N2090 1.613 . S
S2089 N2091 1.610 . S
N2090 S2089 1.613 . S
N2090 C2093 1.350 . S
N2091 S2089 1.610 . S
N2091 C2092 1.351 . S
C2092 C2086 1.428 . S
C2092 N2091 1.351 . S
C2092 C2093 1.434 . S
C2093 C2084 1.429 . S
C2093 N2090 1.350 . S
C2093 C2092 1.434 . S
C2094 C2095 1.369 . S
C2094 C2096 1.419 . S
C2094 H2098 0.930 . S
C2095 C2094 1.369 . S
C2095 C2104 1.429 . S
C2096 C2094 1.419 . S
C2096 C2097 1.363 . S
C2096 H2099 0.929 . S
C2097 C2096 1.363 . S
C2097 C2103 1.428 . S
H2098 C2094 0.930 . S
H2099 C2096 0.929 . S
S2100 N2101 1.613 . S
S2100 N2102 1.610 . S
N2101 S2100 1.613 . S
N2101 C2104 1.350 . S
N2102 S2100 1.610 . S
N2102 C2103 1.351 . S
C2103 C2097 1.428 . S
C2103 N2102 1.351 . S
C2103 C2104 1.434 . S
C2104 C2095 1.429 . S
C2104 N2101 1.350 . S
C2104 C2103 1.434 . S
C2105 C2106 1.369 . S
C2105 C2107 1.419 . S
C2105 H2109 0.930 . S
C2106 C2105 1.369 . S
C2106 C2115 1.429 . S
C2107 C2105 1.419 . S
C2107 C2108 1.363 . S
C2107 H2110 0.929 . S
C2108 C2107 1.363 . S
C2108 C2114 1.428 . S
H2109 C2105 0.930 . S
H2110 C2107 0.929 . S
S2111 N2112 1.613 . S
S2111 N2113 1.610 . S
N2112 S2111 1.613 . S
N2112 C2115 1.350 . S
N2113 S2111 1.610 . S
N2113 C2114 1.351 . S
C2114 C2108 1.428 . S
C2114 N2113 1.351 . S
C2114 C2115 1.434 . S
C2115 C2106 1.429 . S
C2115 N2112 1.350 . S
C2115 C2114 1.434 . S
C2116 C2117 1.369 . S
C2116 C2118 1.419 . S
C2116 H2120 0.930 . S
C2117 C2116 1.369 . S
C2117 C2126 1.429 . S
C2118 C2116 1.419 . S
C2118 C2119 1.363 . S
C2118 H2121 0.929 . S
C2119 C2118 1.363 . S
C2119 C2125 1.428 . S
H2120 C2116 0.930 . S
H2121 C2118 0.929 . S
S2122 N2123 1.613 . S
S2122 N2124 1.610 . S
N2123 S2122 1.613 . S
N2123 C2126 1.350 . S
N2124 S2122 1.610 . S
N2124 C2125 1.351 . S
C2125 C2119 1.428 . S
C2125 N2124 1.351 . S
C2125 C2126 1.434 . S
C2126 C2117 1.429 . S
C2126 N2123 1.350 . S
C2126 C2125 1.434 . S
C2127 C2128 1.369 . S
C2127 C2129 1.419 . S
C2127 H2131 0.930 . S
C2128 C2127 1.369 . S
C2128 C2137 1.429 . S
C2129 C2127 1.419 . S
C2129 C2130 1.363 . S
C2129 H2132 0.929 . S
C2130 C2129 1.363 . S
C2130 C2136 1.428 . S
H2131 C2127 0.930 . S
H2132 C2129 0.929 . S
S2133 N2134 1.613 . S
S2133 N2135 1.610 . S
N2134 S2133 1.613 . S
N2134 C2137 1.350 . S
N2135 S2133 1.610 . S
N2135 C2136 1.351 . S
C2136 C2130 1.428 . S
C2136 N2135 1.351 . S
C2136 C2137 1.434 . S
C2137 C2128 1.429 . S
C2137 N2134 1.350 . S
C2137 C2136 1.434 . S
C2138 C2139 1.369 . S
C2138 C2140 1.419 . S
C2138 H2142 0.930 . S
C2139 C2138 1.369 . S
C2139 C2148 1.429 . S
C2140 C2138 1.419 . S
C2140 C2141 1.363 . S
C2140 H2143 0.929 . S
C2141 C2140 1.363 . S
C2141 C2147 1.428 . S
H2142 C2138 0.930 . S
H2143 C2140 0.929 . S
S2144 N2145 1.613 . S
S2144 N2146 1.610 . S
N2145 S2144 1.613 . S
N2145 C2148 1.350 . S
N2146 S2144 1.610 . S
N2146 C2147 1.351 . S
C2147 C2141 1.428 . S
C2147 N2146 1.351 . S
C2147 C2148 1.434 . S
C2148 C2139 1.429 . S
C2148 N2145 1.350 . S
C2148 C2147 1.434 . S
C2149 C2150 1.369 . S
C2149 C2151 1.419 . S
C2149 H2153 0.930 . S
C2150 C2149 1.369 . S
C2150 C2159 1.429 . S
C2151 C2149 1.419 . S
C2151 C2152 1.363 . S
C2151 H2154 0.929 . S
C2152 C2151 1.363 . S
C2152 C2158 1.428 . S
H2153 C2149 0.930 . S
H2154 C2151 0.929 . S
S2155 N2156 1.613 . S
S2155 N2157 1.610 . S
N2156 S2155 1.613 . S
N2156 C2159 1.350 . S
N2157 S2155 1.610 . S
N2157 C2158 1.351 . S
C2158 C2152 1.428 . S
C2158 N2157 1.351 . S
C2158 C2159 1.434 . S
C2159 C2150 1.429 . S
C2159 N2156 1.350 . S
C2159 C2158 1.434 . S
C2160 C2161 1.369 . S
C2160 C2162 1.419 . S
C2160 H2164 0.930 . S
C2161 C2160 1.369 . S
C2161 C2170 1.429 . S
C2162 C2160 1.419 . S
C2162 C2163 1.363 . S
C2162 H2165 0.929 . S
C2163 C2162 1.363 . S
C2163 C2169 1.428 . S
H2164 C2160 0.930 . S
H2165 C2162 0.929 . S
S2166 N2167 1.613 . S
S2166 N2168 1.610 . S
N2167 S2166 1.613 . S
N2167 C2170 1.350 . S
N2168 S2166 1.610 . S
N2168 C2169 1.351 . S
C2169 C2163 1.428 . S
C2169 N2168 1.351 . S
C2169 C2170 1.434 . S
C2170 C2161 1.429 . S
C2170 N2167 1.350 . S
C2170 C2169 1.434 . S
C2171 C2172 1.369 . S
C2171 C2173 1.419 . S
C2171 H2175 0.930 . S
C2172 C2171 1.369 . S
C2172 C2181 1.429 . S
C2173 C2171 1.419 . S
C2173 C2174 1.363 . S
C2173 H2176 0.929 . S
C2174 C2173 1.363 . S
C2174 C2180 1.428 . S
H2175 C2171 0.930 . S
H2176 C2173 0.929 . S
S2177 N2178 1.613 . S
S2177 N2179 1.610 . S
N2178 S2177 1.613 . S
N2178 C2181 1.350 . S
N2179 S2177 1.610 . S
N2179 C2180 1.351 . S
C2180 C2174 1.428 . S
C2180 N2179 1.351 . S
C2180 C2181 1.434 . S
C2181 C2172 1.429 . S
C2181 N2178 1.350 . S
C2181 C2180 1.434 . S
C2182 C2183 1.369 . S
C2182 C2184 1.419 . S
C2182 H2186 0.930 . S
C2183 C2182 1.369 . S
C2183 C2192 1.429 . S
C2184 C2182 1.419 . S
C2184 C2185 1.363 . S
C2184 H2187 0.929 . S
C2185 C2184 1.363 . S
C2185 C2191 1.428 . S
H2186 C2182 0.930 . S
H2187 C2184 0.929 . S
S2188 N2189 1.613 . S
S2188 N2190 1.610 . S
N2189 S2188 1.613 . S
N2189 C2192 1.350 . S
N2190 S2188 1.610 . S
N2190 C2191 1.351 . S
C2191 C2185 1.428 . S
C2191 N2190 1.351 . S
C2191 C2192 1.434 . S
C2192 C2183 1.429 . S
C2192 N2189 1.350 . S
C2192 C2191 1.434 . S
C2193 C2194 1.369 . S
C2193 C2195 1.419 . S
C2193 H2197 0.930 . S
C2194 C2193 1.369 . S
C2194 C2203 1.429 . S
C2195 C2193 1.419 . S
C2195 C2196 1.363 . S
C2195 H2198 0.929 . S
C2196 C2195 1.363 . S
C2196 C2202 1.428 . S
H2197 C2193 0.930 . S
H2198 C2195 0.929 . S
S2199 N2200 1.613 . S
S2199 N2201 1.610 . S
N2200 S2199 1.613 . S
N2200 C2203 1.350 . S
N2201 S2199 1.610 . S
N2201 C2202 1.351 . S
C2202 C2196 1.428 . S
C2202 N2201 1.351 . S
C2202 C2203 1.434 . S
C2203 C2194 1.429 . S
C2203 N2200 1.350 . S
C2203 C2202 1.434 . S
C2204 C2205 1.369 . S
C2204 C2206 1.419 . S
C2204 H2208 0.930 . S
C2205 C2204 1.369 . S
C2205 C2214 1.429 . S
C2206 C2204 1.419 . S
C2206 C2207 1.363 . S
C2206 H2209 0.929 . S
C2207 C2206 1.363 . S
C2207 C2213 1.428 . S
H2208 C2204 0.930 . S
H2209 C2206 0.929 . S
S2210 N2211 1.613 . S
S2210 N2212 1.610 . S
N2211 S2210 1.613 . S
N2211 C2214 1.350 . S
N2212 S2210 1.610 . S
N2212 C2213 1.351 . S
C2213 C2207 1.428 . S
C2213 N2212 1.351 . S
C2213 C2214 1.434 . S
C2214 C2205 1.429 . S
C2214 N2211 1.350 . S
C2214 C2213 1.434 . S
C2215 C2216 1.369 . S
C2215 C2217 1.419 . S
C2215 H2219 0.930 . S
C2216 C2215 1.369 . S
C2216 C2225 1.429 . S
C2217 C2215 1.419 . S
C2217 C2218 1.363 . S
C2217 H2220 0.929 . S
C2218 C2217 1.363 . S
C2218 C2224 1.428 . S
H2219 C2215 0.930 . S
H2220 C2217 0.929 . S
S2221 N2222 1.613 . S
S2221 N2223 1.610 . S
N2222 S2221 1.613 . S
N2222 C2225 1.350 . S
N2223 S2221 1.610 . S
N2223 C2224 1.351 . S
C2224 C2218 1.428 . S
C2224 N2223 1.351 . S
C2224 C2225 1.434 . S
C2225 C2216 1.429 . S
C2225 N2222 1.350 . S
C2225 C2224 1.434 . S
C2226 C2227 1.369 . S
C2226 C2228 1.419 . S
C2226 H2230 0.930 . S
C2227 C2226 1.369 . S
C2227 C2236 1.429 . S
C2228 C2226 1.419 . S
C2228 C2229 1.363 . S
C2228 H2231 0.929 . S
C2229 C2228 1.363 . S
C2229 C2235 1.428 . S
H2230 C2226 0.930 . S
H2231 C2228 0.929 . S
S2232 N2233 1.613 . S
S2232 N2234 1.610 . S
N2233 S2232 1.613 . S
N2233 C2236 1.350 . S
N2234 S2232 1.610 . S
N2234 C2235 1.351 . S
C2235 C2229 1.428 . S
C2235 N2234 1.351 . S
C2235 C2236 1.434 . S
C2236 C2227 1.429 . S
C2236 N2233 1.350 . S
C2236 C2235 1.434 . S
C2237 C2238 1.369 . S
C2237 C2239 1.419 . S
C2237 H2241 0.930 . S
C2238 C2237 1.369 . S
C2238 C2247 1.429 . S
C2239 C2237 1.419 . S
C2239 C2240 1.363 . S
C2239 H2242 0.929 . S
C2240 C2239 1.363 . S
C2240 C2246 1.428 . S
H2241 C2237 0.930 . S
H2242 C2239 0.929 . S
S2243 N2244 1.613 . S
S2243 N2245 1.610 . S
N2244 S2243 1.613 . S
N2244 C2247 1.350 . S
N2245 S2243 1.610 . S
N2245 C2246 1.351 . S
C2246 C2240 1.428 . S
C2246 N2245 1.351 . S
C2246 C2247 1.434 . S
C2247 C2238 1.429 . S
C2247 N2244 1.350 . S
C2247 C2246 1.434 . S
C2248 C2249 1.369 . S
C2248 C2250 1.419 . S
C2248 H2252 0.930 . S
C2249 C2248 1.369 . S
C2249 C2258 1.429 . S
C2250 C2248 1.419 . S
C2250 C2251 1.363 . S
C2250 H2253 0.929 . S
C2251 C2250 1.363 . S
C2251 C2257 1.428 . S
H2252 C2248 0.930 . S
H2253 C2250 0.929 . S
S2254 N2255 1.613 . S
S2254 N2256 1.610 . S
N2255 S2254 1.613 . S
N2255 C2258 1.350 . S
N2256 S2254 1.610 . S
N2256 C2257 1.351 . S
C2257 C2251 1.428 . S
C2257 N2256 1.351 . S
C2257 C2258 1.434 . S
C2258 C2249 1.429 . S
C2258 N2255 1.350 . S
C2258 C2257 1.434 . S
C2259 C2260 1.369 . S
C2259 C2261 1.419 . S
C2259 H2263 0.930 . S
C2260 C2259 1.369 . S
C2260 C2269 1.429 . S
C2261 C2259 1.419 . S
C2261 C2262 1.363 . S
C2261 H2264 0.929 . S
C2262 C2261 1.363 . S
C2262 C2268 1.428 . S
H2263 C2259 0.930 . S
H2264 C2261 0.929 . S
S2265 N2266 1.613 . S
S2265 N2267 1.610 . S
N2266 S2265 1.613 . S
N2266 C2269 1.350 . S
N2267 S2265 1.610 . S
N2267 C2268 1.351 . S
C2268 C2262 1.428 . S
C2268 N2267 1.351 . S
C2268 C2269 1.434 . S
C2269 C2260 1.429 . S
C2269 N2266 1.350 . S
C2269 C2268 1.434 . S
C2270 C2271 1.369 . S
C2270 C2272 1.419 . S
C2270 H2274 0.930 . S
C2271 C2270 1.369 . S
C2271 C2280 1.429 . S
C2272 C2270 1.419 . S
C2272 C2273 1.363 . S
C2272 H2275 0.929 . S
C2273 C2272 1.363 . S
C2273 C2279 1.428 . S
H2274 C2270 0.930 . S
H2275 C2272 0.929 . S
S2276 N2277 1.613 . S
S2276 N2278 1.610 . S
N2277 S2276 1.613 . S
N2277 C2280 1.350 . S
N2278 S2276 1.610 . S
N2278 C2279 1.351 . S
C2279 C2273 1.428 . S
C2279 N2278 1.351 . S
C2279 C2280 1.434 . S
C2280 C2271 1.429 . S
C2280 N2277 1.350 . S
C2280 C2279 1.434 . S
C2281 C2282 1.369 . S
C2281 C2283 1.419 . S
C2281 H2285 0.930 . S
C2282 C2281 1.369 . S
C2282 C2291 1.429 . S
C2283 C2281 1.419 . S
C2283 C2284 1.363 . S
C2283 H2286 0.929 . S
C2284 C2283 1.363 . S
C2284 C2290 1.428 . S
H2285 C2281 0.930 . S
H2286 C2283 0.929 . S
S2287 N2288 1.613 . S
S2287 N2289 1.610 . S
N2288 S2287 1.613 . S
N2288 C2291 1.350 . S
N2289 S2287 1.610 . S
N2289 C2290 1.351 . S
C2290 C2284 1.428 . S
C2290 N2289 1.351 . S
C2290 C2291 1.434 . S
C2291 C2282 1.429 . S
C2291 N2288 1.350 . S
C2291 C2290 1.434 . S
C2292 C2293 1.369 . S
C2292 C2294 1.419 . S
C2292 H2296 0.930 . S
C2293 C2292 1.369 . S
C2293 C2302 1.429 . S
C2294 C2292 1.419 . S
C2294 C2295 1.363 . S
C2294 H2297 0.929 . S
C2295 C2294 1.363 . S
C2295 C2301 1.428 . S
H2296 C2292 0.930 . S
H2297 C2294 0.929 . S
S2298 N2299 1.613 . S
S2298 N2300 1.610 . S
N2299 S2298 1.613 . S
N2299 C2302 1.350 . S
N2300 S2298 1.610 . S
N2300 C2301 1.351 . S
C2301 C2295 1.428 . S
C2301 N2300 1.351 . S
C2301 C2302 1.434 . S
C2302 C2293 1.429 . S
C2302 N2299 1.350 . S
C2302 C2301 1.434 . S
C2303 C2304 1.369 . S
C2303 C2305 1.419 . S
C2303 H2307 0.930 . S
C2304 C2303 1.369 . S
C2304 C2313 1.429 . S
C2305 C2303 1.419 . S
C2305 C2306 1.363 . S
C2305 H2308 0.929 . S
C2306 C2305 1.363 . S
C2306 C2312 1.428 . S
H2307 C2303 0.930 . S
H2308 C2305 0.929 . S
S2309 N2310 1.613 . S
S2309 N2311 1.610 . S
N2310 S2309 1.613 . S
N2310 C2313 1.350 . S
N2311 S2309 1.610 . S
N2311 C2312 1.351 . S
C2312 C2306 1.428 . S
C2312 N2311 1.351 . S
C2312 C2313 1.434 . S
C2313 C2304 1.429 . S
C2313 N2310 1.350 . S
C2313 C2312 1.434 . S
C2314 C2315 1.369 . S
C2314 C2316 1.419 . S
C2314 H2318 0.930 . S
C2315 C2314 1.369 . S
C2315 C2324 1.429 . S
C2316 C2314 1.419 . S
C2316 C2317 1.363 . S
C2316 H2319 0.929 . S
C2317 C2316 1.363 . S
C2317 C2323 1.428 . S
H2318 C2314 0.930 . S
H2319 C2316 0.929 . S
S2320 N2321 1.613 . S
S2320 N2322 1.610 . S
N2321 S2320 1.613 . S
N2321 C2324 1.350 . S
N2322 S2320 1.610 . S
N2322 C2323 1.351 . S
C2323 C2317 1.428 . S
C2323 N2322 1.351 . S
C2323 C2324 1.434 . S
C2324 C2315 1.429 . S
C2324 N2321 1.350 . S
C2324 C2323 1.434 . S
C2325 C2326 1.369 . S
C2325 C2327 1.419 . S
C2325 H2329 0.930 . S
C2326 C2325 1.369 . S
C2326 C2335 1.429 . S
C2327 C2325 1.419 . S
C2327 C2328 1.363 . S
C2327 H2330 0.929 . S
C2328 C2327 1.363 . S
C2328 C2334 1.428 . S
H2329 C2325 0.930 . S
H2330 C2327 0.929 . S
S2331 N2332 1.613 . S
S2331 N2333 1.610 . S
N2332 S2331 1.613 . S
N2332 C2335 1.350 . S
N2333 S2331 1.610 . S
N2333 C2334 1.351 . S
C2334 C2328 1.428 . S
C2334 N2333 1.351 . S
C2334 C2335 1.434 . S
C2335 C2326 1.429 . S
C2335 N2332 1.350 . S
C2335 C2334 1.434 . S
C1281 C1131 1.895 . S
C1283 C2 1.890 . S
C1292 C211 1.886 . S
C1294 C42 1.893 . S
C1303 C891 1.888 . S
C1305 C82 1.892 . S
C1314 C611 1.891 . S
C1316 C122 1.894 . S
C1325 C171 1.892 . S
C1327 C962 1.892 . S
C1336 C722 1.886 . S
C1338 C251 1.893 . S
C1347 C442 1.891 . S
C1349 C291 1.894 . S
C1358 C811 1.896 . S
C1360 C322 1.889 . S
C1369 C362 1.890 . S
C1371 C531 1.892 . S
C1380 C402 1.894 . S
C1382 C1211 1.890 . S
C1391 C642 1.891 . S
C1393 C491 1.893 . S
C1402 C571 1.895 . S
C1404 C1042 1.889 . S
C1413 C682 1.887 . S
C1415 C851 1.893 . S
C1424 C762 1.890 . S
C1426 C1251 1.895 . S
C1435 C1082 1.889 . S
C1437 C931 1.895 . S
C1446 C1171 1.891 . S
C1448 C1002 1.892 . S
C1457 C771 1.561 . S
C1459 C11 1.557 . S
C1468 C731 1.555 . S
C1470 C51 1.554 . S
C1479 C691 1.556 . S
C1481 C91 1.552 . S
C1490 C651 1.561 . S
C1492 C131 1.557 . S
C1501 C922 1.561 . S
C1503 C162 1.557 . S
C1512 C202 1.556 . S
C1514 C882 1.553 . S
C1523 C242 1.554 . S
C1525 C842 1.555 . S
C1534 C282 1.561 . S
C1536 C802 1.557 . S
C1545 C331 1.568 . S
C1547 C1091 1.571 . S
C1556 C371 1.556 . S
C1558 C1051 1.557 . S
C1567 C411 1.558 . S
C1569 C1011 1.558 . S
C1578 C971 1.568 . S
C1580 C451 1.572 . S
C1589 C482 1.573 . S
C1591 C1242 1.568 . S
C1600 C522 1.556 . S
C1602 C1202 1.557 . S
C1611 C562 1.556 . S
C1613 C1162 1.557 . S
C1622 C1122 1.568 . S
C1624 C602 1.572 . S
C1633 C16 1.705 . S
C1635 C7 1.700 . S
C1644 C56 1.674 . S
C1646 C47 1.686 . S
C1655 C87 1.683 . S
C1657 C96 1.679 . S
C1666 C127 1.701 . S
C1668 C136 1.703 . S
C1677 C176 1.698 . S
C1679 C167 1.705 . S
C1688 C216 1.676 . S
C1690 C207 1.684 . S
C1699 C256 1.685 . S
C1701 C247 1.678 . S
C1710 C287 1.707 . S
C1712 C296 1.698 . S
C1721 C336 1.722 . S
C1723 C327 1.711 . S
C1732 C367 1.695 . S
C1734 C376 1.692 . S
C1743 C407 1.700 . S
C1745 C416 1.689 . S
C1754 C447 1.710 . S
C1756 C456 1.721 . S
C1765 C496 1.711 . S
C1767 C487 1.720 . S
C1776 C527 1.689 . S
C1778 C536 1.698 . S
C1787 C576 1.690 . S
C1789 C567 1.697 . S
C1798 C607 1.720 . S
C1800 C616 1.714 . S
C1809 C656 1.708 . S
C1811 C647 1.697 . S
C1820 C687 1.686 . S
C1822 C696 1.677 . S
C1831 C727 1.687 . S
C1833 C736 1.676 . S
C1842 C767 1.696 . S
C1844 C776 1.707 . S
C1853 C807 1.698 . S
C1855 C816 1.705 . S
C1864 C856 1.685 . S
C1866 C847 1.677 . S
C1875 C887 1.676 . S
C1877 C896 1.684 . S
C1886 C927 1.707 . S
C1888 C936 1.698 . S
C1897 C976 1.716 . S
C1899 C967 1.717 . S
C1908 C1007 1.692 . S
C1910 C1016 1.695 . S
C1919 C1047 1.691 . S
C1921 C1056 1.696 . S
C1930 C1096 1.719 . S
C1932 C1087 1.714 . S
C1941 C1136 1.710 . S
C1943 C1127 1.721 . S
C1952 C1167 1.688 . S
C1954 C1176 1.699 . S
C1963 C1207 1.689 . S
C1965 C1216 1.697 . S
C1974 C1247 1.711 . S
C1976 C1256 1.720 . S
C1985 C410 2.271 . S
C1987 C10 2.274 . S
C1996 C450 2.237 . S
C1998 C50 2.235 . S
C2007 C90 2.238 1_556 S
C2009 C330 2.235 . S
C2018 C370 2.272 . S
C2020 C130 2.276 1_556 S
C2029 C179 2.276 . S
C2031 C579 2.272 . S
C2040 C219 2.236 . S
C2042 C619 2.238 . S
C2051 C259 2.239 1_554 S
C2053 C499 2.236 . S
C2062 C299 2.277 1_554 S
C2064 C539 2.273 . S
C2073 C1050 2.275 1_556 S
C2075 C650 2.275 . S
C2084 C690 2.238 . S
C2086 C1090 2.235 1_556 S
C2095 C970 2.237 . S
C2097 C730 2.234 . S
C2106 C770 2.275 . S
C2108 C1010 2.271 . S
C2117 C1219 2.271 1_554 S
C2119 C819 2.276 . S
C2128 C859 2.238 . S
C2130 C1259 2.235 1_554 S
C2139 C899 2.235 . S
C2141 C1139 2.238 . S
C2150 C1179 2.273 . S
C2152 C939 2.276 . S
C2161 C19 1.172 . S
C2163 C99 1.171 . S
C2172 C139 1.171 . S
C2174 C59 1.171 . S
C2183 C250 1.166 . S
C2185 C170 1.173 . S
C2194 C210 1.173 . S
C2196 C290 1.178 . S
C2205 C339 1.126 . S
C2207 C419 1.124 . S
C2216 C459 1.124 . S
C2218 C379 1.123 . S
C2227 C570 1.124 . S
C2229 C490 1.124 . S
C2238 C610 1.125 . S
C2240 C530 1.123 . S
C2249 C739 1.172 . S
C2251 C659 1.177 . S
C2260 C779 1.173 . S
C2262 C699 1.174 . S
C2271 C890 1.171 . S
C2273 C810 1.176 . S
C2282 C930 1.176 . S
C2284 C850 1.175 . S
C2293 C979 1.124 . S
C2295 C1059 1.124 . S
C2304 C1019 1.121 . S
C2306 C1099 1.121 . S
C2315 C1130 1.124 . S
C2317 C1210 1.122 . S
C2326 C1250 1.126 . S
C2328 C1170 1.124 . S
