# Generated by pormake.
# Topology ukg, (4)-cn, num edge types: 1
# Building blocks:
#     Node 0, Type 0, BuildingBlock: ICAMEG_clean_sbu_1, # of connection points: 4
#     Node 1, Type 0, BuildingBlock: ICAMEG_clean_sbu_1, # of connection points: 4
#     Node 2, Type 0, BuildingBlock: ICAMEG_clean_sbu_1, # of connection points: 4
#     Node 3, Type 0, BuildingBlock: ICAMEG_clean_sbu_1, # of connection points: 4
#     Node 4, Type 0, BuildingBlock: ICAMEG_clean_sbu_1, # of connection points: 4
#     Node 5, Type 0, BuildingBlock: ICAMEG_clean_sbu_1, # of connection points: 4
#     Node 6, Type 0, BuildingBlock: ICAMEG_clean_sbu_1, # of connection points: 4
#     Node 7, Type 0, BuildingBlock: ICAMEG_clean_sbu_1, # of connection points: 4
#     Edge 8, Type (0, 0), BuildingBlock: XUDNAN_clean_linker_2, # of connection points: 2
#     Edge 9, Type (0, 0), BuildingBlock: XUDNAN_clean_linker_2, # of connection points: 2
#     Edge 10, Type (0, 0), BuildingBlock: XUDNAN_clean_linker_2, # of connection points: 2
#     Edge 11, Type (0, 0), BuildingBlock: XUDNAN_clean_linker_2, # of connection points: 2
#     Edge 12, Type (0, 0), BuildingBlock: XUDNAN_clean_linker_2, # of connection points: 2
#     Edge 13, Type (0, 0), BuildingBlock: XUDNAN_clean_linker_2, # of connection points: 2
#     Edge 14, Type (0, 0), BuildingBlock: XUDNAN_clean_linker_2, # of connection points: 2
#     Edge 15, Type (0, 0), BuildingBlock: XUDNAN_clean_linker_2, # of connection points: 2
#     Edge 16, Type (0, 0), BuildingBlock: XUDNAN_clean_linker_2, # of connection points: 2
#     Edge 17, Type (0, 0), BuildingBlock: XUDNAN_clean_linker_2, # of connection points: 2
#     Edge 18, Type (0, 0), BuildingBlock: XUDNAN_clean_linker_2, # of connection points: 2
#     Edge 19, Type (0, 0), BuildingBlock: XUDNAN_clean_linker_2, # of connection points: 2
#     Edge 20, Type (0, 0), BuildingBlock: XUDNAN_clean_linker_2, # of connection points: 2
#     Edge 21, Type (0, 0), BuildingBlock: XUDNAN_clean_linker_2, # of connection points: 2
#     Edge 22, Type (0, 0), BuildingBlock: XUDNAN_clean_linker_2, # of connection points: 2
#     Edge 23, Type (0, 0), BuildingBlock: XUDNAN_clean_linker_2, # of connection points: 2
# Relax obj value: 0.018
# Max RMSD: 0.101
# Mean RMSD: 0.101
data_MOF--net-ukg--node1-ICAMEG_clean_sbu_1--edge1-XUDNAN_clean_linker_2
_symmetry_space_group_name_H-M    P1
_symmetry_Int_Tables_number       1
_symmetry_cell_setting            triclinic
loop_
_symmetry_equiv_pos_as_xyz
'x, y, z'
_cell_length_a     32.622788
_cell_length_b     32.660678
_cell_length_c     40.062394
_cell_angle_alpha  89.975638
_cell_angle_beta   90.011795
_cell_angle_gamma 90.075119
loop_
_atom_site_label
_atom_site_type_symbol
_atom_site_fract_x
_atom_site_fract_y
_atom_site_fract_z
_atom_type_partial_charge
Co0 Co 0.03428 0.6479 0.20321 0.0
Co1 Co 0.98994 0.66448 0.12554 0.0
O2 O 0.03514 0.6464 0.15423 0.0
C3 C 0.10664 0.69793 0.18407 0.0
O4 O 0.08589 0.71045 0.15797 0.0
C5 C 1.00218 0.5777 0.10565 0.0
O6 O 0.00438 0.56892 0.13759 0.0
O7 O 0.94898 0.63395 0.15315 0.0
O8 O 0.97757 0.62481 0.20372 0.0
H9 H 0.85047 0.72272 0.10197 0.0
H10 H 0.1035 0.60775 0.16845 0.0
O11 O 0.09107 0.67208 0.20431 0.0
H12 H 0.03924 0.49929 0.23637 0.0
H13 H 0.09491 0.6293 0.31782 0.0
H14 H 0.97282 0.67175 0.25409 0.0
H15 H 0.01234 0.56983 0.23757 0.0
H16 H 0.09505 0.62725 0.25624 0.0
O17 O 0.99693 0.61467 0.09641 0.0
H18 H 0.90801 0.70054 0.13762 0.0
H19 H 0.97606 0.66554 0.05191 0.0
H20 H 0.9712 0.67397 0.3156 0.0
H21 H 0.1316 0.53767 0.16668 0.0
H22 H 0.0326 0.65264 0.34789 0.0
H23 H 0.09933 0.48286 0.20075 0.0
O24 O 0.01157 0.70422 0.2036 0.0
H25 H 0.12175 0.68006 0.06195 0.0
H26 H 0.99483 0.74912 0.0977 0.0
H27 H 0.04599 0.78739 0.06474 0.0
H28 H 0.10999 0.7528 0.04662 0.0
H29 H 0.06997 0.64312 0.09529 0.0
H30 H 0.91914 0.68696 0.01536 0.0
H31 H 0.85584 0.71595 0.04037 0.0
O32 O 0.98209 0.71487 0.15359 0.0
C33 C 0.94783 0.62113 0.18327 0.0
C34 C 0.87795 0.71026 0.09077 0.0
C35 C 0.91646 0.69014 0.04216 0.0
N36 N 0.94545 0.68208 0.09685 0.0
C37 C 0.91066 0.69778 0.11082 0.0
C38 C 0.94855 0.67798 0.06299 0.0
C39 C 0.88096 0.70641 0.05621 0.0
C40 C 0.08956 0.58412 0.18357 0.0
N41 N 0.05652 0.59289 0.20323 0.0
C42 C 0.10549 0.54448 0.18237 0.0
C43 C 0.08733 0.51373 0.20146 0.0
C44 C 0.0536 0.52292 0.22144 0.0
C45 C 0.03847 0.5629 0.22197 0.0
C46 C 0.06794 0.63856 0.30403 0.0
C47 C 0.99953 0.66212 0.26797 0.0
C48 C 0.06786 0.63752 0.26917 0.0
N49 N 0.03383 0.64899 0.25162 0.0
C50 C 0.99849 0.66358 0.3028 0.0
C51 C 0.03296 0.65166 0.32089 0.0
C52 C 0.99178 0.72641 0.18303 0.0
C53 C 0.09397 0.69545 0.06966 0.0
C54 C 0.02272 0.73397 0.0901 0.0
C55 C 0.0515 0.75572 0.07132 0.0
C56 C 0.08738 0.73628 0.06112 0.0
N57 N 0.02946 0.69397 0.09847 0.0
C58 C 0.06447 0.67464 0.08842 0.0
Co59 Co 0.37901 0.5522 0.72169 0.0
Co60 Co 0.34788 0.49889 0.65129 0.0
O61 O 0.37062 0.54699 0.67361 0.0
C62 C 0.32388 0.61997 0.70269 0.0
O63 O 0.30626 0.59423 0.68208 0.0
C64 C 0.43064 0.5095 0.62302 0.0
O65 O 0.44214 0.51439 0.65414 0.0
O66 O 0.38311 0.46152 0.67796 0.0
O67 O 0.40282 0.49567 0.72414 0.0
H68 H 0.28618 0.35806 0.64529 0.0
H69 H 0.41075 0.61659 0.6764 0.0
O70 O 0.35416 0.60863 0.72061 0.0
H71 H 0.53227 0.56149 0.73415 0.0
H72 H 0.41827 0.6279 0.82635 0.0
H73 H 0.36694 0.49766 0.78011 0.0
H74 H 0.46317 0.5351 0.7471 0.0
H75 H 0.40812 0.61979 0.76567 0.0
O76 O 0.39286 0.50284 0.61648 0.0
H77 H 0.31448 0.41894 0.67359 0.0
H78 H 0.33462 0.47669 0.58001 0.0
H79 H 0.37702 0.50427 0.84088 0.0
H80 H 0.47924 0.64408 0.66284 0.0
H81 H 0.40284 0.5698 0.86438 0.0
H82 H 0.5406 0.61636 0.69173 0.0
O83 O 0.32413 0.52938 0.73105 0.0
H84 H 0.31938 0.62233 0.58013 0.0
H85 H 0.25877 0.50127 0.63485 0.0
H86 H 0.21421 0.54849 0.60337 0.0
H87 H 0.24451 0.60956 0.57578 0.0
H88 H 0.36277 0.57448 0.61207 0.0
H89 H 0.30695 0.41626 0.55065 0.0
H90 H 0.28231 0.35648 0.58337 0.0
O91 O 0.30312 0.49393 0.68604 0.0
C92 C 0.40185 0.46367 0.70586 0.0
C93 C 0.29669 0.38397 0.63076 0.0
C94 C 0.3084 0.41662 0.57764 0.0
N95 N 0.32582 0.45143 0.62846 0.0
C96 C 0.31261 0.41857 0.64665 0.0
C97 C 0.32411 0.4507 0.59439 0.0
C98 C 0.29456 0.38309 0.59602 0.0
C99 C 0.43727 0.60473 0.68933 0.0
N100 N 0.43297 0.5745 0.71265 0.0
C101 C 0.47599 0.62026 0.68145 0.0
C102 C 0.51041 0.60466 0.69763 0.0
C103 C 0.50576 0.57385 0.72143 0.0
C104 C 0.46657 0.55901 0.72863 0.0
C105 C 0.40711 0.59917 0.81641 0.0
C106 C 0.37853 0.52614 0.79012 0.0
C107 C 0.40124 0.59442 0.78209 0.0
N108 N 0.38734 0.55815 0.76936 0.0
C109 C 0.38401 0.52976 0.82456 0.0
C110 C 0.39845 0.56655 0.83773 0.0
C111 C 0.29812 0.50694 0.71593 0.0
C112 C 0.30585 0.59576 0.59195 0.0
C113 C 0.27217 0.52778 0.62292 0.0
C114 C 0.2468 0.55437 0.60507 0.0
C115 C 0.26382 0.58861 0.58957 0.0
N116 N 0.31334 0.53505 0.62518 0.0
C117 C 0.33029 0.56845 0.60993 0.0
Co118 Co 0.45294 0.87281 0.20728 0.0
Co119 Co 0.50847 0.82958 0.14268 0.0
O120 O 0.46001 0.85706 0.16047 0.0
C121 C 0.38206 0.81954 0.19202 0.0
O122 O 0.40748 0.79668 0.17489 0.0
C123 C 0.50156 0.90389 0.09961 0.0
O124 O 0.49696 0.9259 0.12677 0.0
O125 O 0.54527 0.87016 0.16452 0.0
O126 O 0.511 0.89295 0.20967 0.0
H127 H 0.64917 0.76772 0.14901 0.0
H128 H 0.39341 0.90166 0.15664 0.0
O129 O 0.39478 0.85199 0.20643 0.0
H130 H 0.45448 0.02689 0.20427 0.0
H131 H 0.3751 0.93269 0.30409 0.0
H132 H 0.50347 0.86611 0.26861 0.0
H133 H 0.47512 0.95875 0.22484 0.0
H134 H 0.3855 0.91289 0.24526 0.0
O135 O 0.50614 0.86516 0.10172 0.0
H136 H 0.58766 0.80214 0.17118 0.0
H137 H 0.5326 0.79977 0.07512 0.0
H138 H 0.49457 0.88576 0.32759 0.0
H139 H 0.37167 0.96919 0.13547 0.0
H140 H 0.42996 0.91928 0.34567 0.0
H141 H 0.40239 0.03239 0.15926 0.0
O142 O 0.47109 0.81829 0.22313 0.0
H143 H 0.38665 0.7864 0.07441 0.0
H144 H 0.50586 0.73829 0.1391 0.0
H145 H 0.4591 0.68782 0.11361 0.0
H146 H 0.39897 0.7118 0.081 0.0
H147 H 0.43397 0.83582 0.10062 0.0
H148 H 0.59371 0.76575 0.05182 0.0
H149 H 0.65246 0.74933 0.08892 0.0
O150 O 0.51201 0.79316 0.18301 0.0
C151 C 0.54306 0.89084 0.19148 0.0
C152 C 0.62372 0.77462 0.13262 0.0
C153 C 0.59261 0.77357 0.07806 0.0
N154 N 0.55648 0.80267 0.12452 0.0
C155 C 0.58877 0.794 0.14504 0.0
C156 C 0.55815 0.79293 0.09137 0.0
C157 C 0.62556 0.76434 0.09889 0.0
C158 C 0.4066 0.92906 0.16733 0.0
N159 N 0.4353 0.92631 0.19206 0.0
C160 C 0.3943 0.96719 0.15515 0.0
C161 C 0.41159 1.00264 0.16848 0.0
C162 C 0.44084 0.99957 0.19372 0.0
C163 C 0.45245 0.96091 0.20523 0.0
C164 C 0.40342 0.91819 0.2965 0.0
C165 C 0.47543 0.881 0.27623 0.0
C166 C 0.40945 0.90685 0.26325 0.0
N167 N 0.44521 0.88871 0.25348 0.0
C168 C 0.47049 0.89191 0.30969 0.0
C169 C 0.43422 0.91067 0.31982 0.0
C170 C 0.49562 0.79129 0.21192 0.0
C171 C 0.4128 0.77557 0.08849 0.0
C172 C 0.4797 0.74897 0.12505 0.0
C173 C 0.45339 0.72024 0.11058 0.0
C174 C 0.41969 0.73372 0.09225 0.0
N175 N 0.47267 0.78997 0.12134 0.0
C176 C 0.43981 0.80341 0.10325 0.0
Co177 Co 0.13577 0.95785 0.69571 0.0
Co178 Co 0.17824 0.01237 0.62999 0.0
O179 O 0.15204 0.96368 0.64888 0.0
C180 C 0.19242 0.88883 0.68353 0.0
O181 O 0.21361 0.91346 0.66428 0.0
C182 C 0.10352 1.00162 0.58759 0.0
O183 O 0.08213 0.99596 0.61496 0.0
O184 O 0.13719 0.04898 0.65149 0.0
O185 O 0.11295 0.01464 0.69607 0.0
H186 H 0.23705 0.15455 0.63325 0.0
H187 H 0.11091 0.8945 0.64688 0.0
O188 O 0.15943 0.90106 0.69734 0.0
H189 H 0.9817 0.95144 0.6906 0.0
H190 H 0.07667 0.88209 0.79407 0.0
H191 H 0.14003 0.01088 0.75569 0.0
H192 H 0.04837 0.97651 0.71136 0.0
H193 H 0.09729 0.89065 0.73522 0.0
O194 O 0.14206 0.00823 0.58935 0.0
H195 H 0.20442 0.09281 0.65684 0.0
H196 H 0.2067 0.03541 0.56175 0.0
H197 H 0.11941 0.0039 0.81463 0.0
H198 H 0.04491 0.86832 0.62555 0.0
H199 H 0.08751 0.93907 0.83418 0.0
H200 H 0.97971 0.89695 0.64738 0.0
O201 O 0.18915 0.97941 0.71154 0.0
H202 H 0.22319 0.89028 0.56315 0.0
H203 H 0.26957 0.01186 0.62564 0.0
H204 H 0.32077 0.96594 0.60028 0.0
H205 H 0.29766 0.90465 0.56873 0.0
H206 H 0.17303 0.93678 0.58927 0.0
H207 H 0.23896 0.09669 0.53704 0.0
H208 H 0.25451 0.15675 0.57292 0.0
O209 O 0.21519 0.0177 0.67001 0.0
C210 C 0.11532 0.0466 0.67783 0.0
C211 C 0.23053 0.12854 0.61738 0.0
C212 C 0.23155 0.09608 0.56337 0.0
N213 N 0.20395 0.06046 0.61075 0.0
C214 C 0.21217 0.09345 0.63061 0.0
C215 C 0.21318 0.06151 0.57748 0.0
C216 C 0.24029 0.12976 0.58352 0.0
C217 C 0.08264 0.90679 0.65671 0.0
N218 N 0.08345 0.93679 0.68045 0.0
C219 C 0.04538 0.89198 0.64446 0.0
C220 C 0.00881 0.90811 0.65668 0.0
C221 C 0.0099 0.9387 0.68091 0.0
C222 C 0.04773 0.95281 0.69254 0.0
C223 C 0.0904 0.91054 0.78583 0.0
C224 C 0.12574 0.98279 0.76392 0.0
C225 C 0.10218 0.91554 0.75256 0.0
N226 N 0.11932 0.95147 0.74195 0.0
C227 C 0.11433 0.97892 0.79737 0.0
C228 C 0.09648 0.94252 0.80833 0.0
C229 C 0.21643 1.00324 0.69964 0.0
C230 C 0.23363 0.91693 0.57677 0.0
C231 C 0.25927 0.98515 0.6121 0.0
C232 C 0.28841 0.95933 0.59769 0.0
C233 C 0.27542 0.92498 0.57996 0.0
N234 N 0.21835 0.97701 0.60892 0.0
C235 C 0.20537 0.94347 0.59147 0.0
Co236 Co 0.96107 0.36766 0.80049 0.0
Co237 Co 0.01686 0.32349 0.86471 0.0
O238 O 0.96811 0.35057 0.84702 0.0
C239 C 0.89253 0.31087 0.814 0.0
O240 O 0.91864 0.28905 0.83136 0.0
C241 C 0.00854 0.39737 0.90786 0.0
O242 O 1.00301 0.41897 0.88058 0.0
O243 O 0.05324 0.36465 0.84306 0.0
O244 O 0.01825 0.39027 0.79925 0.0
H245 H 0.15826 0.2633 0.85805 0.0
H246 H 0.89948 0.39199 0.85103 0.0
O247 O 0.90389 0.34418 0.80012 0.0
H248 H 0.95609 0.52145 0.8074 0.0
H249 H 0.88216 0.42787 0.70434 0.0
H250 H 0.01273 0.36541 0.73957 0.0
H251 H 0.97985 0.45508 0.78533 0.0
H252 H 0.89253 0.40625 0.76275 0.0
O253 O 0.0142 0.35878 0.90591 0.0
H254 H 0.0963 0.29713 0.83605 0.0
H255 H 0.04142 0.29346 0.93213 0.0
H256 H 1.00387 0.38697 0.68101 0.0
H257 H 0.87462 0.45768 0.87367 0.0
H258 H 0.93816 0.41842 0.66305 0.0
H259 H 0.9031 0.523 0.85191 0.0
O260 O 0.98176 0.31461 0.78351 0.0
H261 H 0.89541 0.2784 0.93256 0.0
H262 H 0.01537 0.23218 0.86796 0.0
H263 H 0.96914 0.18097 0.89312 0.0
H264 H 0.90862 0.20401 0.92568 0.0
H265 H 0.94223 0.32857 0.90668 0.0
H266 H 0.10295 0.26 0.95526 0.0
H267 H 0.16184 0.24453 0.91808 0.0
O268 O 0.02068 0.28748 0.82414 0.0
C269 C 0.05053 0.38718 0.8171 0.0
C270 C 0.13275 0.26978 0.87449 0.0
C271 C 0.10172 0.26797 0.92906 0.0
N272 N 0.06518 0.29696 0.88273 0.0
C273 C 0.09755 0.28881 0.86215 0.0
C274 C 0.06701 0.28702 0.91584 0.0
C275 C 0.13475 0.25929 0.90817 0.0
C276 C 0.91168 0.42031 0.84121 0.0
N277 N 0.94087 0.41974 0.81677 0.0
C278 C 0.89763 0.4574 0.85422 0.0
C279 C 0.91367 0.49404 0.84202 0.0
C280 C 0.94341 0.49319 0.81706 0.0
C281 C 0.95679 0.45553 0.8047 0.0
C282 C 0.91096 0.41429 0.71187 0.0
C283 C 0.9842 0.3794 0.73201 0.0
C284 C 0.91698 0.40193 0.74489 0.0
N285 N 0.95334 0.38495 0.75461 0.0
C286 C 0.97929 0.39139 0.69879 0.0
C287 C 0.9424 0.409 0.68872 0.0
C288 C 0.00558 0.28698 0.79472 0.0
C289 C 0.92173 0.26799 0.9185 0.0
C290 C 0.98905 0.24244 0.882 0.0
C291 C 0.96304 0.2133 0.89628 0.0
C292 C 0.92912 0.22625 0.91458 0.0
N293 N 0.98152 0.28332 0.88587 0.0
C294 C 0.94846 0.29625 0.90393 0.0
Co295 Co 0.63158 0.46332 0.31447 0.0
Co296 Co 0.67609 0.52256 0.37583 0.0
O297 O 0.64964 0.47273 0.3602 0.0
C298 C 0.68789 0.39377 0.32679 0.0
O299 O 0.71628 0.42086 0.33406 0.0
C300 C 0.60401 0.51395 0.42076 0.0
O301 O 0.58167 0.50807 0.39392 0.0
O302 O 0.63303 0.55701 0.35478 0.0
O303 O 0.61101 0.52096 0.31032 0.0
H304 H 0.73264 0.66503 0.36446 0.0
H305 H 0.60503 0.407 0.3685 0.0
O306 O 0.65211 0.4054 0.31808 0.0
H307 H 0.47754 0.46439 0.32184 0.0
H308 H 0.56772 0.3791 0.22299 0.0
H309 H 0.63497 0.50997 0.25094 0.0
H310 H 0.54475 0.48384 0.29845 0.0
H311 H 0.59033 0.39331 0.28062 0.0
O312 O 0.64257 0.51998 0.41804 0.0
H313 H 0.6993 0.60165 0.34475 0.0
H314 H 0.70828 0.55 0.44178 0.0
H315 H 0.61249 0.49724 0.19309 0.0
H316 H 0.53846 0.3865 0.39247 0.0
H317 H 0.57861 0.43137 0.1788 0.0
H318 H 0.47412 0.4154 0.36921 0.0
O319 O 0.68532 0.48149 0.29623 0.0
H320 H 0.72784 0.40381 0.44345 0.0
H321 H 0.76753 0.52422 0.3765 0.0
H322 H 0.82128 0.48023 0.40067 0.0
H323 H 0.80153 0.41953 0.43446 0.0
H324 H 0.67509 0.44849 0.41856 0.0
H325 H 0.74128 0.61301 0.46265 0.0
H326 H 0.75385 0.67099 0.42381 0.0
O327 O 0.70998 0.52614 0.334 0.0
C328 C 0.61214 0.55347 0.32801 0.0
C329 C 0.72744 0.63993 0.3816 0.0
C330 C 0.73224 0.61075 0.43672 0.0
N331 N 0.70216 0.57208 0.39204 0.0
C332 C 0.70869 0.60393 0.37056 0.0
C333 C 0.71344 0.57521 0.42479 0.0
C334 C 0.73929 0.64327 0.41491 0.0
C335 C 0.57714 0.41936 0.35799 0.0
N336 N 0.57876 0.4464 0.33198 0.0
C337 C 0.53955 0.40778 0.37177 0.0
C338 C 0.50346 0.42405 0.35873 0.0
C339 C 0.50536 0.45156 0.33217 0.0
C340 C 0.54351 0.46251 0.31907 0.0
C341 C 0.58237 0.40795 0.22892 0.0
C342 C 0.61997 0.48138 0.24497 0.0
C343 C 0.59531 0.41612 0.26148 0.0
N344 N 0.61362 0.45257 0.26917 0.0
C345 C 0.60744 0.47428 0.21214 0.0
C346 C 0.58848 0.4373 0.20414 0.0
C347 C 0.71147 0.50819 0.30567 0.0
C348 C 0.73683 0.43023 0.42884 0.0
C349 C 0.75871 0.49781 0.39109 0.0
C350 C 0.78927 0.47306 0.40478 0.0
C351 C 0.77817 0.43903 0.42375 0.0
N352 N 0.71823 0.48899 0.39621 0.0
C353 C 0.7071 0.4557 0.41479 0.0
Co354 Co 0.55015 0.1283 0.79923 0.0
Co355 Co 0.49949 0.16145 0.87034 0.0
O356 O 0.5461 0.13625 0.84747 0.0
C357 C 0.62192 0.17938 0.81732 0.0
O358 O 0.59873 0.19688 0.83987 0.0
C359 C 0.50482 0.07786 0.89775 0.0
O360 O 0.50898 0.06642 0.86655 0.0
O361 O 0.45948 0.12931 0.84336 0.0
O362 O 0.49234 0.10755 0.79728 0.0
H363 H 0.36304 0.23203 0.87767 0.0
H364 H 0.61369 0.09276 0.84329 0.0
O365 O 0.60792 0.15026 0.79937 0.0
H366 H 0.55079 0.97511 0.78549 0.0
H367 H 0.62113 0.08594 0.69318 0.0
H368 H 0.49553 0.14504 0.74167 0.0
H369 H 0.52786 0.04555 0.77346 0.0
H370 H 0.61491 0.09563 0.75406 0.0
O371 O 0.50058 0.11582 0.90457 0.0
H372 H 0.42179 0.20038 0.8488 0.0
H373 H 0.47849 0.17466 0.9419 0.0
H374 H 0.50023 0.13548 0.68073 0.0
H375 H 0.63779 0.02285 0.85592 0.0
H376 H 0.56342 0.10575 0.6561 0.0
H377 H 0.60614 0.96344 0.827 0.0
O378 O 0.53042 0.1844 0.79068 0.0
H379 H 0.62465 0.18036 0.94185 0.0
H380 H 0.50792 0.24978 0.88792 0.0
H381 H 0.55794 0.29043 0.92012 0.0
H382 H 0.61682 0.25569 0.94736 0.0
H383 H 0.57412 0.14094 0.90915 0.0
H384 H 0.42015 0.20562 0.97182 0.0
H385 H 0.36198 0.23476 0.93964 0.0
O386 O 0.49744 0.20707 0.83633 0.0
C387 C 0.46034 0.11049 0.81546 0.0
C388 C 0.38826 0.21955 0.89197 0.0
C389 C 0.42029 0.20468 0.94481 0.0
N390 N 0.45365 0.18603 0.89365 0.0
C391 C 0.42166 0.20172 0.87576 0.0
C392 C 0.45319 0.1871 0.92774 0.0
C393 C 0.38767 0.22104 0.92674 0.0
C394 C 0.60011 0.06706 0.83036 0.0
N395 N 0.56963 0.0732 0.80753 0.0
C396 C 0.61374 0.02755 0.83771 0.0
C397 C 0.59593 0.99423 0.82151 0.0
C398 C 0.56485 1.00075 0.79823 0.0
C399 C 0.55196 0.04069 0.79155 0.0
C400 C 0.59339 0.09879 0.70362 0.0
C401 C 0.52295 0.1317 0.73116 0.0
C402 C 0.58972 0.10439 0.73805 0.0
N403 N 0.55468 0.12038 0.75141 0.0
C404 C 0.52551 0.12654 0.69663 0.0
C405 C 0.56099 0.10991 0.68283 0.0
C406 C 0.51038 0.2117 0.8064 0.0
C407 C 0.59906 0.19583 0.93018 0.0
C408 C 0.5335 0.23445 0.89965 0.0
C409 C 0.56168 0.25762 0.91791 0.0
C410 C 0.59468 0.23811 0.93321 0.0
N411 N 0.53803 0.19301 0.89677 0.0
C412 C 0.57025 0.17364 0.91177 0.0
Co413 Co 0.86306 0.06149 0.30172 0.0
Co414 Co 0.84311 0.98544 0.35972 0.0
O415 O 0.85794 0.04126 0.34727 0.0
C416 C 0.79859 0.11364 0.33079 0.0
O417 O 0.78252 0.0796 0.3423 0.0
C418 C 0.92572 0.9981 0.38766 0.0
O419 O 0.93487 0.01172 0.35777 0.0
O420 O 0.88047 0.96148 0.32554 0.0
O421 O 0.89274 0.01072 0.28756 0.0
H422 H 0.80135 0.83955 0.33883 0.0
H423 H 0.88965 0.11396 0.35805 0.0
O424 O 0.83227 0.11256 0.31463 0.0
H425 H 0.01339 0.09284 0.28953 0.0
H426 H 0.8873 0.17084 0.2154 0.0
H427 H 0.85422 0.02528 0.23412 0.0
H428 H 0.94714 0.06272 0.27267 0.0
H429 H 0.8817 0.14332 0.27257 0.0
O430 O 0.88936 0.98543 0.39358 0.0
H431 H 0.81888 0.91041 0.32294 0.0
H432 H 0.83727 0.94159 0.42476 0.0
H433 H 0.85986 0.05141 0.17654 0.0
H434 H 0.95521 0.14489 0.37573 0.0
H435 H 0.8765 0.12471 0.16689 0.0
H436 H 0.01769 0.13425 0.3414 0.0
O437 O 0.81068 0.03499 0.28858 0.0
H438 H 0.80393 0.07962 0.45358 0.0
H439 H 0.75579 0.9707 0.37785 0.0
H440 H 0.70783 1.0005 0.41873 0.0
H441 H 0.73187 0.05532 0.45702 0.0
H442 H 0.85074 0.04924 0.41208 0.0
H443 H 0.82009 0.87099 0.44178 0.0
H444 H 0.80187 0.81946 0.39864 0.0
O445 O 0.79729 0.98493 0.32582 0.0
C446 C 0.89633 0.97404 0.29826 0.0
C447 C 0.80907 0.86176 0.35787 0.0
C448 C 0.81966 0.8794 0.41564 0.0
N449 N 0.82873 0.93015 0.37293 0.0
C450 C 0.8189 0.90196 0.34903 0.0
C451 C 0.82941 0.9193 0.40587 0.0
C452 C 0.80942 0.8505 0.39143 0.0
C453 C 0.91664 0.10958 0.34282 0.0
N454 N 0.91456 0.08681 0.31428 0.0
C455 C 0.9537 0.12701 0.35302 0.0
C456 C 0.98875 0.12098 0.33377 0.0
C457 C 0.98637 0.09773 0.30467 0.0
C458 C 0.9488 0.08072 0.29527 0.0
C459 C 0.88013 0.13883 0.21927 0.0
C460 C 0.86177 0.05713 0.23012 0.0
C461 C 0.87685 0.12308 0.25158 0.0
N462 N 0.86799 0.08264 0.25666 0.0
C463 C 0.86479 0.07179 0.19746 0.0
C464 C 0.87408 0.11292 0.19207 0.0
C465 C 0.78889 0.00527 0.29933 0.0
C466 C 0.79313 0.05568 0.4371 0.0
C467 C 0.76643 0.99462 0.39436 0.0
C468 C 0.73917 0.01132 0.4175 0.0
C469 C 0.75268 0.04206 0.43899 0.0
N470 N 0.80607 0.00808 0.39272 0.0
C471 C 0.81954 0.03825 0.41365 0.0
H472 H 0.99761 0.47935 0.92221 0.0
H473 H 0.01987 0.36146 0.96898 0.0
H474 H 0.021 0.3947 0.02422 0.0
H475 H 0.06276 0.53848 0.97658 0.0
H476 H 0.02908 0.58217 0.97759 0.0
H477 H 0.02974 0.54919 0.94156 0.0
H478 H 0.95147 0.53767 0.94731 0.0
H479 H 0.95057 0.57068 0.98331 0.0
H480 H 0.93095 0.51919 0.98629 0.0
H481 H 0.01996 0.44069 0.07464 0.0
H482 H 0.01617 0.49602 0.11648 0.0
H483 H 0.9947 0.58424 0.03726 0.0
C484 C 1.00271 0.46048 0.94404 0.0
C485 C 0.00869 0.41769 0.9411 0.0
C486 C 0.01522 0.39424 0.97043 0.0
C487 C 0.01594 0.41286 1.002 0.0
C488 C 0.01007 0.45504 1.004 0.0
C489 C 1.00353 0.47859 0.97583 0.0
C490 C 0.99804 0.52335 0.98496 0.0
C491 C 0.03193 0.54985 0.96924 0.0
C492 C 0.95521 0.53861 0.97487 0.0
C493 C 1.00254 0.52126 0.02263 0.0
C494 C 0.00947 0.48155 0.03308 0.0
C495 C 0.01453 0.4719 0.06674 0.0
C496 C 0.01232 0.5036 0.09035 0.0
C497 C 0.00512 0.54457 0.0803 0.0
C498 C 1.0003 0.55331 0.04587 0.0
H499 H 0.42083 0.49835 0.5547 0.0
H500 H 0.51196 0.52613 0.63054 0.0
H501 H 0.56529 0.52963 0.58734 0.0
H502 H 0.48629 0.43476 0.50353 0.0
H503 H 0.46586 0.45309 0.46449 0.0
H504 H 0.4341 0.45267 0.50129 0.0
H505 H 0.42002 0.53017 0.49398 0.0
H506 H 0.45165 0.5308 0.45712 0.0
H507 H 0.46257 0.56528 0.49111 0.0
H508 H 0.6093 0.52995 0.53661 0.0
H509 H 0.64113 0.52816 0.48088 0.0
H510 H 0.5226 0.50056 0.43676 0.0
C511 C 0.45199 0.50519 0.56218 0.0
C512 C 0.46205 0.51185 0.59617 0.0
C513 C 0.50328 0.52075 0.60481 0.0
C514 C 0.53395 0.52284 0.58041 0.0
C515 C 0.52314 0.516 0.54728 0.0
C516 C 0.48323 0.50743 0.53801 0.0
C517 C 0.48019 0.50152 0.50045 0.0
C518 C 0.46576 0.45791 0.49195 0.0
C519 C 0.45193 0.53388 0.48475 0.0
C520 C 0.52458 0.50816 0.49023 0.0
C521 C 0.54875 0.5164 0.51772 0.0
C522 C 0.59071 0.52357 0.51485 0.0
C523 C 0.60853 0.52245 0.48302 0.0
C524 C 0.58449 0.51429 0.4543 0.0
C525 C 0.54189 0.50696 0.45813 0.0
H526 H 0.49395 0.98626 0.08414 0.0
H527 H 0.51066 0.8664 0.03915 0.0
H528 H 0.51307 0.89819 0.98352 0.0
H529 H 0.42898 0.02772 0.01892 0.0
H530 H 0.45102 0.0783 0.02088 0.0
H531 H 0.45028 0.04637 0.05757 0.0
H532 H 0.52896 0.05436 0.06328 0.0
H533 H 0.52995 0.08623 0.02658 0.0
H534 H 0.5615 0.04104 0.02858 0.0
H535 H 0.51469 0.94205 0.93293 0.0
H536 H 0.51436 0.99558 0.8898 0.0
H537 H 0.49625 0.08822 0.96621 0.0
C538 C 0.49803 0.9667 0.06258 0.0
C539 C 0.50216 0.92371 0.06618 0.0
C540 C 0.50745 0.89931 0.03724 0.0
C541 C 0.50888 0.9171 0.00543 0.0
C542 C 0.50492 0.95941 1.00277 0.0
C543 C 0.49951 0.984 0.03046 0.0
C544 C 0.49617 0.02876 0.02034 0.0
C545 C 0.45411 0.04631 0.03 0.0
C546 C 0.53124 0.05408 0.03561 0.0
C547 C 0.50064 0.02535 0.98268 0.0
C548 C 0.50567 0.98498 0.97324 0.0
C549 C 0.51067 0.97377 0.93998 0.0
C550 C 0.51042 0.00454 0.91563 0.0
C551 C 0.50517 0.04624 0.92447 0.0
C552 C 0.50027 0.05667 0.95858 0.0
H553 H 0.91767 0.98359 0.45578 0.0
H554 H 0.00699 0.0137 0.37915 0.0
H555 H 0.06128 0.01618 0.42161 0.0
H556 H 0.95986 0.04984 0.51883 0.0
H557 H 0.95004 0.01526 0.55299 0.0
H558 H 0.91774 0.01416 0.51652 0.0
H559 H 0.93274 0.93688 0.50903 0.0
H560 H 0.96508 0.93774 0.54551 0.0
H561 H 0.98512 0.91966 0.50627 0.0
H562 H 0.10616 0.0164 0.47162 0.0
H563 H 0.13901 0.01564 0.52689 0.0
H564 H 0.02181 0.98657 0.57272 0.0
C565 C 0.94871 0.99039 0.44795 0.0
C566 C 0.95794 0.99826 0.41396 0.0
C567 C 0.99894 0.00748 0.40488 0.0
C568 C 0.03015 0.00894 0.42886 0.0
C569 C 0.0201 1.00127 0.46203 0.0
C570 C 0.98045 0.99224 0.47174 0.0
C571 C 0.97818 0.98632 0.50936 0.0
C572 C 0.94977 0.01831 0.52536 0.0
C573 C 0.96447 0.94254 0.51805 0.0
C574 C 0.02267 0.99355 0.51911 0.0
C575 C 0.04622 1.00193 0.49129 0.0
C576 C 0.08808 0.00984 0.49362 0.0
C577 C 0.10647 0.00933 0.52523 0.0
C578 C 0.08313 1.00111 0.55433 0.0
C579 C 0.04059 0.993 0.55106 0.0
H580 H 0.16947 0.71434 0.14067 0.0
H581 H 0.13393 0.72343 0.24466 0.0
H582 H 0.1994 0.75846 0.25752 0.0
H583 H 0.276 0.69048 0.15831 0.0
H584 H 0.2953 0.71811 0.12265 0.0
H585 H 0.24483 0.69573 0.12139 0.0
H586 H 0.214 0.76652 0.10663 0.0
H587 H 0.26436 0.78916 0.10806 0.0
H588 H 0.22379 0.80961 0.13361 0.0
H589 H 0.26677 0.7964 0.25818 0.0
H590 H 0.33636 0.82448 0.24872 0.0
H591 H 0.33185 0.78333 0.1459 0.0
C592 C 0.17563 0.72377 0.1661 0.0
C593 C 0.14673 0.71664 0.1917 0.0
C594 C 0.15585 0.72869 0.22479 0.0
C595 C 0.19278 0.74877 0.23226 0.0
C596 C 0.22063 0.75565 0.20646 0.0
C597 C 0.21297 0.74267 0.1742 0.0
C598 C 0.24921 0.7515 0.15158 0.0
C599 C 0.26741 0.71157 0.13767 0.0
C600 C 0.2371 0.78095 0.1233 0.0
C601 C 0.27823 0.77183 0.17608 0.0
C602 C 0.26079 0.77467 0.20744 0.0
C603 C 0.28095 0.79389 0.23385 0.0
C604 C 0.32029 0.80992 0.22823 0.0
C605 C 0.33937 0.80573 0.19671 0.0
C606 C 0.31799 0.78653 0.17033 0.0
H607 H 0.29873 0.67162 0.65322 0.0
H608 H 0.31011 0.66101 0.76068 0.0
H609 H 0.27555 0.72802 0.76749 0.0
H610 H 0.32114 0.78121 0.65095 0.0
H611 H 0.28649 0.79083 0.61679 0.0
H612 H 0.31106 0.74168 0.62063 0.0
H613 H 0.24003 0.70615 0.61979 0.0
H614 H 0.21521 0.75519 0.61624 0.0
H615 H 0.20168 0.721 0.64982 0.0
H616 H 0.23436 0.79302 0.76241 0.0
H617 H 0.20032 0.85769 0.74593 0.0
H618 H 0.2236 0.83032 0.6418 0.0
C619 C 0.29407 0.68366 0.67813 0.0
C620 C 0.30665 0.66132 0.70651 0.0
C621 C 0.30066 0.67792 0.73872 0.0
C622 C 0.28089 0.71574 0.74279 0.0
C623 C 0.26834 0.73688 0.71432 0.0
C624 C 0.27563 0.72197 0.68258 0.0
C625 C 0.261 0.75177 0.65612 0.0
C626 C 0.29708 0.7673 0.63488 0.0
C627 C 0.22749 0.73236 0.63421 0.0
C628 C 0.24372 0.78549 0.67793 0.0
C629 C 0.24754 0.77589 0.71141 0.0
C630 C 0.23177 0.80117 0.73631 0.0
C631 C 0.2123 0.83761 0.72676 0.0
C632 C 0.20972 0.8488 0.69272 0.0
C633 C 0.22561 0.82244 0.66802 0.0
H634 H 0.68111 0.2017 0.86214 0.0
H635 H 0.65382 0.19693 0.75633 0.0
H636 H 0.71913 0.23266 0.74405 0.0
H637 H 0.73056 0.29888 0.86441 0.0
H638 H 0.76988 0.28369 0.89349 0.0
H639 H 0.72069 0.25857 0.89411 0.0
H640 H 0.756 0.18818 0.88655 0.0
H641 H 0.80532 0.21305 0.88624 0.0
H642 H 0.79048 0.18052 0.85195 0.0
H643 H 0.78449 0.27428 0.74398 0.0
H644 H 0.85152 0.30747 0.75496 0.0
H645 H 0.8405 0.27737 0.85996 0.0
C646 C 0.68919 0.20798 0.83642 0.0
C647 C 0.66261 0.19689 0.81011 0.0
C648 C 0.67405 0.20512 0.77672 0.0
C649 C 0.71087 0.22561 0.76957 0.0
C650 C 0.73628 0.23667 0.79608 0.0
C651 C 0.72649 0.22717 0.82877 0.0
C652 C 0.76024 0.24048 0.85245 0.0
C653 C 0.74438 0.2723 0.8776 0.0
C654 C 0.77913 0.20334 0.87034 0.0
C655 C 0.79023 0.25949 0.82804 0.0
C656 C 0.77543 0.25774 0.79573 0.0
C657 C 0.79669 0.27526 0.76909 0.0
C658 C 0.8345 0.29426 0.77555 0.0
C659 C 0.851 0.29462 0.80819 0.0
C660 C 0.82854 0.27711 0.83473 0.0
H661 H 0.7628 0.35606 0.32147 0.0
H662 H 0.6336 0.33161 0.33798 0.0
H663 H 0.6486 0.25775 0.34332 0.0
H664 H 0.78059 0.26743 0.27036 0.0
H665 H 0.83152 0.25845 0.2862 0.0
H666 H 0.81103 0.30962 0.28551 0.0
H667 H 0.8247 0.31647 0.34898 0.0
H668 H 0.84513 0.26525 0.34988 0.0
H669 H 0.80352 0.27904 0.37723 0.0
H670 H 0.67769 0.18689 0.34792 0.0
H671 H 0.71761 0.12288 0.34598 0.0
H672 H 0.82749 0.19239 0.32267 0.0
C673 C 0.73774 0.33514 0.32641 0.0
C674 C 0.69705 0.34954 0.32955 0.0
C675 C 0.66497 0.32121 0.33546 0.0
C676 C 0.67322 0.27925 0.33868 0.0
C677 C 0.71363 0.26602 0.33546 0.0
C678 C 0.74532 0.29302 0.32902 0.0
C679 C 0.78567 0.27051 0.3249 0.0
C680 C 0.80322 0.27688 0.28965 0.0
C681 C 0.81657 0.2836 0.35186 0.0
C682 C 0.77171 0.22666 0.33007 0.0
C683 C 0.73014 0.22487 0.33659 0.0
C684 C 0.71021 0.18788 0.34268 0.0
C685 C 0.73323 0.15168 0.34164 0.0
C686 C 0.77565 0.15257 0.33406 0.0
C687 C 0.79508 0.19069 0.32838 0.0
H688 H 0.78287 0.55038 0.31908 0.0
H689 H 0.71486 0.49297 0.23843 0.0
H690 H 0.76775 0.5154 0.19842 0.0
H691 H 0.81766 0.63771 0.27381 0.0
H692 H 0.86762 0.63867 0.29302 0.0
H693 H 0.8245 0.61791 0.31545 0.0
H694 H 0.86368 0.54972 0.32396 0.0
H695 H 0.90697 0.57039 0.30165 0.0
H696 H 0.88384 0.52304 0.28817 0.0
H697 H 0.82635 0.5475 0.16652 0.0
H698 H 0.88911 0.58195 0.14606 0.0
H699 H 0.92074 0.61459 0.24788 0.0
C700 C 0.77914 0.54228 0.29306 0.0
C701 C 0.74453 0.5199 0.282 0.0
C702 C 0.74106 0.50994 0.24765 0.0
C703 C 0.77091 0.52266 0.22464 0.0
C704 C 0.80442 0.5449 0.23635 0.0
C705 C 0.80897 0.55418 0.26981 0.0
C706 C 0.84818 0.57795 0.27597 0.0
C707 C 0.83892 0.62059 0.29041 0.0
C708 C 0.8774 0.55382 0.29878 0.0
C709 C 0.86477 0.58087 0.24072 0.0
C710 C 0.83891 0.56196 0.21817 0.0
C711 C 0.84704 0.56207 0.18399 0.0
C712 C 0.88266 0.58183 0.17258 0.0
C713 C 0.91 0.60073 0.19534 0.0
C714 C 0.90077 0.60004 0.22985 0.0
H715 H 0.40675 0.43039 0.76888 0.0
H716 H 0.4478 0.41427 0.66674 0.0
H717 H 0.48382 0.35093 0.68296 0.0
H718 H 0.49795 0.38821 0.81067 0.0
H719 H 0.46859 0.36232 0.84244 0.0
H720 H 0.44931 0.40876 0.82388 0.0
H721 H 0.38231 0.3712 0.80754 0.0
H722 H 0.40139 0.32465 0.82594 0.0
H723 H 0.38508 0.32506 0.78295 0.0
H724 H 0.51301 0.2893 0.70884 0.0
H725 H 0.53101 0.22907 0.74198 0.0
H726 H 0.46833 0.28102 0.82794 0.0
C727 C 0.42399 0.4138 0.75019 0.0
C728 C 0.425 0.42726 0.71663 0.0
C729 C 0.44685 0.40438 0.69256 0.0
C730 C 0.4675 0.36853 0.70157 0.0
C731 C 0.46554 0.35569 0.73468 0.0
C732 C 0.44415 0.37728 0.75865 0.0
C733 C 0.44448 0.35466 0.79184 0.0
C734 C 0.4664 0.38 0.8188 0.0
C735 C 0.40071 0.34322 0.8027 0.0
C736 C 0.46912 0.31689 0.78258 0.0
C737 C 0.4813 0.31866 0.74957 0.0
C738 C 0.50377 0.28752 0.73474 0.0
C739 C 0.5138 0.25329 0.75395 0.0
C740 C 0.50108 0.24996 0.78776 0.0
C741 C 0.47864 0.28254 0.80228 0.0
H742 H 0.57452 0.89652 0.25479 0.0
H743 H 0.5955 0.9343 0.15242 0.0
H744 H 0.65887 0.97009 0.1698 0.0
H745 H 0.6148 0.9874 0.29607 0.0
H746 H 0.63911 0.95898 0.32916 0.0
H747 H 0.59375 0.93897 0.30929 0.0
H748 H 0.63247 0.87198 0.29528 0.0
H749 H 0.67797 0.89179 0.31502 0.0
H750 H 0.67993 0.87455 0.27231 0.0
H751 H 0.71894 1.00183 0.1979 0.0
H752 H 0.77612 0.02307 0.23375 0.0
H753 H 0.72033 0.96021 0.31791 0.0
C754 C 0.59223 0.91287 0.23621 0.0
C755 C 0.58 0.91328 0.20233 0.0
C756 C 0.60438 0.93392 0.17848 0.0
C757 C 0.64027 0.95436 0.18815 0.0
C758 C 0.6517 0.9532 0.22167 0.0
C759 C 0.62878 0.9326 0.24532 0.0
C760 C 0.6496 0.93384 0.27924 0.0
C761 C 0.62271 0.95613 0.30496 0.0
C762 C 0.66065 0.89046 0.29115 0.0
C763 C 0.68775 0.95849 0.27093 0.0
C764 C 0.68788 0.96973 0.23766 0.0
C765 C 0.71929 0.99308 0.22395 0.0
C766 C 0.75168 0.00507 0.24466 0.0
C767 C 0.75298 0.99325 0.27873 0.0
C768 C 0.72041 0.96959 0.29198 0.0
H769 H 0.03925 0.21192 0.81045 0.0
H770 H 0.99817 0.28583 0.72674 0.0
H771 H 0.0194 0.23147 0.68788 0.0
H772 H 0.12734 0.16951 0.77132 0.0
H773 H 0.12144 0.11951 0.78977 0.0
H774 H 0.10233 0.16402 0.8112 0.0
H775 H 0.03007 0.13109 0.81397 0.0
H776 H 0.04903 0.0865 0.7925 0.0
H777 H 0.0057 0.11411 0.77602 0.0
H778 H 0.04976 0.1713 0.65767 0.0
H779 H 0.08295 0.10724 0.63878 0.0
H780 H 0.09951 0.07047 0.74196 0.0
C781 C 0.0345 0.21661 0.78398 0.0
C782 C 0.01707 0.25328 0.77174 0.0
C783 C 0.01131 0.25804 0.73684 0.0
C784 C 0.02333 0.22733 0.71449 0.0
C785 C 0.04054 0.19169 0.72735 0.0
C786 C 0.0457 0.18594 0.76129 0.0
C787 C 0.06491 0.14467 0.76854 0.0
C788 C 0.10647 0.14975 0.78625 0.0
C789 C 0.03567 0.11749 0.78897 0.0
C790 C 0.07022 0.12844 0.73337 0.0
C791 C 0.05625 0.15615 0.70995 0.0
C792 C 0.06025 0.14905 0.67578 0.0
C793 C 0.07917 0.11269 0.66527 0.0
C794 C 0.09324 0.08367 0.68888 0.0
C795 C 0.08826 0.09163 0.72332 0.0
H796 H 0.08078 0.39945 0.75385 0.0
H797 H 0.1036 0.42662 0.8582 0.0
H798 H 0.16705 0.46333 0.84265 0.0
H799 H 0.18518 0.37804 0.73393 0.0
H800 H 0.18325 0.39968 0.69256 0.0
H801 H 0.1375 0.37882 0.71117 0.0
H802 H 0.10007 0.44778 0.70207 0.0
H803 H 0.14568 0.46886 0.68331 0.0
H804 H 0.12224 0.49424 0.71838 0.0
H805 H 0.22756 0.49566 0.81665 0.0
H806 H 0.28543 0.51834 0.78251 0.0
H807 H 0.2275 0.46682 0.69416 0.0
C808 C 0.09886 0.4138 0.77328 0.0
C809 C 0.08716 0.4108 0.80722 0.0
C810 C 0.11204 0.42883 0.8321 0.0
C811 C 0.14799 0.4498 0.82348 0.0
C812 C 0.15895 0.45188 0.7899 0.0
C813 C 0.13546 0.43411 0.76514 0.0
C814 C 0.15606 0.43844 0.73126 0.0
C815 C 0.16609 0.39623 0.71636 0.0
C816 C 0.12942 0.46385 0.70734 0.0
C817 C 0.19481 0.46139 0.74094 0.0
C818 C 0.19534 0.46916 0.77486 0.0
C819 C 0.22756 0.48977 0.79007 0.0
C820 C 0.2604 0.50257 0.77026 0.0
C821 C 0.26135 0.49441 0.73543 0.0
C822 C 0.22784 0.47358 0.72062 0.0
H823 H 0.59995 0.5787 0.2636 0.0
H824 H 0.57311 0.61011 0.36647 0.0
H825 H 0.53672 0.6723 0.34746 0.0
H826 H 0.62237 0.68054 0.23804 0.0
H827 H 0.60081 0.67504 0.19685 0.0
H828 H 0.62128 0.63103 0.21817 0.0
H829 H 0.55193 0.59328 0.21114 0.0
H830 H 0.53123 0.63717 0.18971 0.0
H831 H 0.50555 0.61703 0.22602 0.0
H832 H 0.50437 0.73124 0.3175 0.0
H833 H 0.48255 0.786 0.27924 0.0
H834 H 0.53458 0.71893 0.19575 0.0
C835 C 0.58577 0.59834 0.28203 0.0
C836 C 0.58877 0.58945 0.31648 0.0
C837 C 0.57091 0.61639 0.33997 0.0
C838 C 0.55012 0.65164 0.3294 0.0
C839 C 0.54801 0.65978 0.29529 0.0
C840 C 0.56568 0.63415 0.27194 0.0
C841 C 0.56165 0.65158 0.23699 0.0
C842 C 0.60405 0.66005 0.22162 0.0
C843 C 0.53606 0.62306 0.21465 0.0
C844 C 0.53901 0.69105 0.24436 0.0
C845 C 0.53098 0.69484 0.27809 0.0
C846 C 0.51047 0.72862 0.29104 0.0
C847 C 0.49814 0.75958 0.26901 0.0
C848 C 0.50682 0.75693 0.23438 0.0
C849 C 0.52743 0.72198 0.22202 0.0
H850 H 0.43537 0.09664 0.75078 0.0
H851 H 0.39843 0.08035 0.85403 0.0
H852 H 0.33342 0.04915 0.8353 0.0
H853 H 0.33609 0.12594 0.72114 0.0
H854 H 0.34105 0.10042 0.68146 0.0
H855 H 0.38603 0.11899 0.70273 0.0
H856 H 0.41781 0.04644 0.70069 0.0
H857 H 0.37296 0.0276 0.67934 0.0
H858 H 0.38959 0.00369 0.71757 0.0
H859 H 0.27295 0.01967 0.80583 0.0
H860 H 0.21825 0.99767 0.7676 0.0
H861 H 0.29163 0.03697 0.68291 0.0
C862 C 0.41377 0.0861 0.76941 0.0
C863 C 0.42207 0.09064 0.8039 0.0
C864 C 0.39271 0.07716 0.82751 0.0
C865 C 0.35577 0.0593 0.81712 0.0
C866 C 0.34837 0.05558 0.783 0.0
C867 C 0.37631 0.06889 0.75945 0.0
C868 C 0.35967 0.0632 0.72435 0.0
C869 C 0.35546 0.10461 0.70637 0.0
C870 C 0.38662 0.03345 0.70431 0.0
C871 C 0.31804 0.04461 0.73191 0.0
C872 C 0.31248 0.04009 0.7659 0.0
C873 C 0.27687 0.02316 0.77916 0.0
C874 C 0.24596 0.01068 0.75714 0.0
C875 C 0.25043 0.01562 0.72214 0.0
C876 C 0.28711 0.03289 0.70947 0.0
H877 H 0.9728 0.75076 0.24649 0.0
H878 H 0.98297 0.79557 0.14488 0.0
H879 H 0.96463 0.86513 0.16415 0.0
H880 H 0.8842 0.81029 0.26722 0.0
H881 H 0.89969 0.81869 0.30986 0.0
H882 H 0.91595 0.7732 0.28823 0.0
H883 H 0.9917 0.79101 0.30116 0.0
H884 H 0.97574 0.83675 0.32264 0.0
H885 H 0.01191 0.84012 0.28875 0.0
H886 H 0.94613 0.93007 0.19491 0.0
H887 H 0.9206 0.98345 0.23306 0.0
H888 H 0.91842 0.89499 0.31407 0.0
C889 C 0.97143 0.77527 0.22831 0.0
C890 C 0.97967 0.76786 0.19419 0.0
C891 C 0.97676 0.80055 0.1711 0.0
C892 C 0.96663 0.84019 0.18186 0.0
C893 C 0.95893 0.84649 0.21573 0.0
C894 C 0.96057 0.81477 0.23852 0.0
C895 C 0.94842 0.82904 0.27312 0.0
C896 C 0.90977 0.80647 0.28531 0.0
C897 C 0.98408 0.82393 0.29787 0.0
C898 C 0.93973 0.87381 0.26628 0.0
C899 C 0.94655 0.8834 0.23314 0.0
C900 C 0.94052 0.92286 0.22088 0.0
C901 C 0.92611 0.95305 0.24285 0.0
C902 C 0.91721 0.94355 0.27664 0.0
C903 C 0.92486 0.90342 0.28845 0.0
loop_
_geom_bond_atom_site_label_1
_geom_bond_atom_site_label_2
_geom_bond_distance
_geom_bond_site_symmetry_2
_ccdc_geom_bond_type
Co0 O2 2.143 . S
Co0 O8 2.074 1_455 S
Co0 O11 2.093 . S
Co0 O24 2.097 . S
Co0 N41 2.151 . S
Co0 N49 2.214 . S
Co1 O2 2.160 1_655 S
Co1 O7 2.058 . S
Co1 O17 2.057 . S
Co1 O32 2.037 . S
Co1 N36 2.145 . S
Co1 N57 2.257 . S
O2 Co0 2.143 . S
O2 Co1 2.160 1_455 S
C3 O4 1.278 . S
C3 O11 1.224 . S
O4 C3 1.278 . S
C5 O6 1.245 . S
C5 O17 1.232 1_455 S
O6 C5 1.245 . S
O7 Co1 2.058 . S
O7 C33 1.269 . S
O8 Co0 2.074 1_655 S
O8 C33 1.257 . S
H9 C34 0.930 . S
H10 C40 0.930 . S
O11 Co0 2.093 . S
O11 C3 1.224 . S
H12 C44 0.929 . S
H13 C46 0.930 . S
H14 C47 0.930 1_655 S
H15 C45 0.929 . S
H16 C48 0.928 . S
O17 Co1 2.057 . S
O17 C5 1.232 1_655 S
H18 C37 0.929 . S
H19 C38 0.929 . S
H20 C50 0.931 1_655 S
H21 C42 0.929 . S
H22 C51 0.930 . S
H23 C43 0.931 . S
O24 Co0 2.097 . S
O24 C52 1.214 1_455 S
H25 C53 0.929 . S
H26 C54 0.929 . S
H27 C55 0.930 . S
H28 C56 0.929 . S
H29 C58 0.930 . S
H30 C35 0.930 . S
H31 C39 0.930 . S
O32 Co1 2.037 . S
O32 C52 1.234 . S
C33 O7 1.269 . S
C33 O8 1.257 . S
C34 H9 0.930 . S
C34 C37 1.388 . S
C34 C39 1.418 . S
C35 H30 0.930 . S
C35 C38 1.404 . S
C35 C39 1.353 . S
N36 Co1 2.145 . S
N36 C37 1.397 . S
N36 C38 1.334 . S
C37 H18 0.929 . S
C37 C34 1.388 . S
C37 N36 1.397 . S
C38 H19 0.929 . S
C38 C35 1.404 . S
C38 N36 1.334 . S
C39 H31 0.930 . S
C39 C34 1.418 . S
C39 C35 1.353 . S
C40 H10 0.930 . S
C40 N41 1.330 . S
C40 C42 1.446 . S
N41 Co0 2.151 . S
N41 C40 1.330 . S
N41 C45 1.418 . S
C42 H21 0.929 . S
C42 C40 1.446 . S
C42 C43 1.332 . S
C43 H23 0.931 . S
C43 C42 1.332 . S
C43 C44 1.267 . S
C44 H12 0.929 . S
C44 C43 1.267 . S
C44 C45 1.251 . S
C45 H15 0.929 . S
C45 N41 1.418 . S
C45 C44 1.251 . S
C46 H13 0.930 . S
C46 C48 1.406 . S
C46 C51 1.261 . S
C47 H14 0.930 1_455 S
C47 N49 1.325 . S
C47 C50 1.357 . S
C48 H16 0.928 . S
C48 C46 1.406 . S
C48 N49 1.261 . S
N49 Co0 2.214 . S
N49 C47 1.325 . S
N49 C48 1.261 . S
C50 H20 0.931 1_455 S
C50 C47 1.357 . S
C50 C51 1.312 . S
C51 H22 0.930 . S
C51 C46 1.261 . S
C51 C50 1.312 . S
C52 O24 1.214 1_655 S
C52 O32 1.234 . S
C53 H25 0.929 . S
C53 C56 1.391 . S
C53 C58 1.391 . S
C54 H26 0.929 . S
C54 C55 1.390 . S
C54 N57 1.391 . S
C55 H27 0.930 . S
C55 C54 1.390 . S
C55 C56 1.392 1_655 S
C56 H28 0.929 . S
C56 C53 1.391 . S
C56 C55 1.392 1_455 S
N57 Co1 2.257 . S
N57 C54 1.391 . S
N57 C58 1.388 1_655 S
C58 H29 0.930 . S
C58 C53 1.391 . S
C58 N57 1.388 1_455 S
Co59 O61 2.143 . S
Co59 O67 2.074 . S
Co59 O70 2.093 . S
Co59 O83 2.097 . S
Co59 N100 2.151 . S
Co59 N108 2.214 . S
Co60 O61 2.160 . S
Co60 O66 2.058 . S
Co60 O76 2.057 . S
Co60 O91 2.037 . S
Co60 N95 2.145 . S
Co60 N116 2.257 . S
O61 Co59 2.143 . S
O61 Co60 2.160 . S
C62 O63 1.278 . S
C62 O70 1.224 . S
O63 C62 1.278 . S
C64 O65 1.245 . S
C64 O76 1.232 . S
O65 C64 1.245 . S
O66 Co60 2.058 . S
O66 C92 1.269 . S
O67 Co59 2.074 . S
O67 C92 1.257 . S
H68 C93 0.930 . S
H69 C99 0.930 . S
O70 Co59 2.093 . S
O70 C62 1.224 . S
H71 C103 0.929 . S
H72 C105 0.930 . S
H73 C106 0.930 . S
H74 C104 0.929 . S
H75 C107 0.928 . S
O76 Co60 2.057 . S
O76 C64 1.232 . S
H77 C96 0.929 . S
H78 C97 0.929 . S
H79 C109 0.931 . S
H80 C101 0.929 . S
H81 C110 0.930 . S
H82 C102 0.931 . S
O83 Co59 2.097 . S
O83 C111 1.214 . S
H84 C112 0.929 . S
H85 C113 0.929 . S
H86 C114 0.930 . S
H87 C115 0.929 . S
H88 C117 0.930 . S
H89 C94 0.930 . S
H90 C98 0.930 . S
O91 Co60 2.037 . S
O91 C111 1.234 . S
C92 O66 1.269 . S
C92 O67 1.257 . S
C93 H68 0.930 . S
C93 C96 1.388 . S
C93 C98 1.418 . S
C94 H89 0.930 . S
C94 C97 1.404 . S
C94 C98 1.353 . S
N95 Co60 2.145 . S
N95 C96 1.397 . S
N95 C97 1.334 . S
C96 H77 0.929 . S
C96 C93 1.388 . S
C96 N95 1.397 . S
C97 H78 0.929 . S
C97 C94 1.404 . S
C97 N95 1.334 . S
C98 H90 0.930 . S
C98 C93 1.418 . S
C98 C94 1.353 . S
C99 H69 0.930 . S
C99 N100 1.330 . S
C99 C101 1.446 . S
N100 Co59 2.151 . S
N100 C99 1.330 . S
N100 C104 1.418 . S
C101 H80 0.929 . S
C101 C99 1.446 . S
C101 C102 1.332 . S
C102 H82 0.931 . S
C102 C101 1.332 . S
C102 C103 1.267 . S
C103 H71 0.929 . S
C103 C102 1.267 . S
C103 C104 1.251 . S
C104 H74 0.929 . S
C104 N100 1.418 . S
C104 C103 1.251 . S
C105 H72 0.930 . S
C105 C107 1.406 . S
C105 C110 1.261 . S
C106 H73 0.930 . S
C106 N108 1.325 . S
C106 C109 1.357 . S
C107 H75 0.928 . S
C107 C105 1.406 . S
C107 N108 1.261 . S
N108 Co59 2.214 . S
N108 C106 1.325 . S
N108 C107 1.261 . S
C109 H79 0.931 . S
C109 C106 1.357 . S
C109 C110 1.312 . S
C110 H81 0.930 . S
C110 C105 1.261 . S
C110 C109 1.312 . S
C111 O83 1.214 . S
C111 O91 1.234 . S
C112 H84 0.929 . S
C112 C115 1.391 . S
C112 C117 1.391 . S
C113 H85 0.929 . S
C113 C114 1.390 . S
C113 N116 1.391 . S
C114 H86 0.930 . S
C114 C113 1.390 . S
C114 C115 1.392 . S
C115 H87 0.929 . S
C115 C112 1.391 . S
C115 C114 1.392 . S
N116 Co60 2.257 . S
N116 C113 1.391 . S
N116 C117 1.388 . S
C117 H88 0.930 . S
C117 C112 1.391 . S
C117 N116 1.388 . S
Co118 O120 2.143 . S
Co118 O126 2.074 . S
Co118 O129 2.093 . S
Co118 O142 2.097 . S
Co118 N159 2.151 . S
Co118 N167 2.214 . S
Co119 O120 2.160 . S
Co119 O125 2.058 . S
Co119 O135 2.057 . S
Co119 O150 2.037 . S
Co119 N154 2.145 . S
Co119 N175 2.257 . S
O120 Co118 2.143 . S
O120 Co119 2.160 . S
C121 O122 1.278 . S
C121 O129 1.224 . S
O122 C121 1.278 . S
C123 O124 1.245 . S
C123 O135 1.232 . S
O124 C123 1.245 . S
O125 Co119 2.058 . S
O125 C151 1.269 . S
O126 Co118 2.074 . S
O126 C151 1.257 . S
H127 C152 0.930 . S
H128 C158 0.930 . S
O129 Co118 2.093 . S
O129 C121 1.224 . S
H130 C162 0.929 . S
H131 C164 0.930 . S
H132 C165 0.930 . S
H133 C163 0.929 . S
H134 C166 0.928 . S
O135 Co119 2.057 . S
O135 C123 1.232 . S
H136 C155 0.929 . S
H137 C156 0.929 . S
H138 C168 0.931 . S
H139 C160 0.929 . S
H140 C169 0.930 . S
H141 C161 0.931 . S
O142 Co118 2.097 . S
O142 C170 1.214 . S
H143 C171 0.929 . S
H144 C172 0.929 . S
H145 C173 0.930 . S
H146 C174 0.929 . S
H147 C176 0.930 . S
H148 C153 0.930 . S
H149 C157 0.930 . S
O150 Co119 2.037 . S
O150 C170 1.234 . S
C151 O125 1.269 . S
C151 O126 1.257 . S
C152 H127 0.930 . S
C152 C155 1.388 . S
C152 C157 1.418 . S
C153 H148 0.930 . S
C153 C156 1.404 . S
C153 C157 1.353 . S
N154 Co119 2.145 . S
N154 C155 1.397 . S
N154 C156 1.334 . S
C155 H136 0.929 . S
C155 C152 1.388 . S
C155 N154 1.397 . S
C156 H137 0.929 . S
C156 C153 1.404 . S
C156 N154 1.334 . S
C157 H149 0.930 . S
C157 C152 1.418 . S
C157 C153 1.353 . S
C158 H128 0.930 . S
C158 N159 1.330 . S
C158 C160 1.446 . S
N159 Co118 2.151 . S
N159 C158 1.330 . S
N159 C163 1.418 . S
C160 H139 0.929 . S
C160 C158 1.446 . S
C160 C161 1.332 . S
C161 H141 0.931 . S
C161 C160 1.332 . S
C161 C162 1.267 . S
C162 H130 0.929 . S
C162 C161 1.267 . S
C162 C163 1.251 . S
C163 H133 0.929 . S
C163 N159 1.418 . S
C163 C162 1.251 . S
C164 H131 0.930 . S
C164 C166 1.406 . S
C164 C169 1.261 . S
C165 H132 0.930 . S
C165 N167 1.325 . S
C165 C168 1.357 . S
C166 H134 0.928 . S
C166 C164 1.406 . S
C166 N167 1.261 . S
N167 Co118 2.214 . S
N167 C165 1.325 . S
N167 C166 1.261 . S
C168 H138 0.931 . S
C168 C165 1.357 . S
C168 C169 1.312 . S
C169 H140 0.930 . S
C169 C164 1.261 . S
C169 C168 1.312 . S
C170 O142 1.214 . S
C170 O150 1.234 . S
C171 H143 0.929 . S
C171 C174 1.391 . S
C171 C176 1.391 . S
C172 H144 0.929 . S
C172 C173 1.390 . S
C172 N175 1.391 . S
C173 H145 0.930 . S
C173 C172 1.390 . S
C173 C174 1.392 . S
C174 H146 0.929 . S
C174 C171 1.391 . S
C174 C173 1.392 . S
N175 Co119 2.257 . S
N175 C172 1.391 . S
N175 C176 1.388 . S
C176 H147 0.930 . S
C176 C171 1.391 . S
C176 N175 1.388 . S
Co177 O179 2.143 . S
Co177 O185 2.074 1_565 S
Co177 O188 2.093 . S
Co177 O201 2.097 . S
Co177 N218 2.151 . S
Co177 N226 2.214 . S
Co178 O179 2.160 1_545 S
Co178 O184 2.058 . S
Co178 O194 2.057 . S
Co178 O209 2.037 . S
Co178 N213 2.145 . S
Co178 N234 2.257 . S
O179 Co177 2.143 . S
O179 Co178 2.160 1_565 S
C180 O181 1.278 . S
C180 O188 1.224 . S
O181 C180 1.278 . S
C182 O183 1.245 . S
C182 O194 1.232 1_565 S
O183 C182 1.245 . S
O184 Co178 2.058 . S
O184 C210 1.269 . S
O185 Co177 2.074 1_545 S
O185 C210 1.257 . S
H186 C211 0.930 . S
H187 C217 0.930 . S
O188 Co177 2.093 . S
O188 C180 1.224 . S
H189 C221 0.929 . S
H190 C223 0.930 . S
H191 C224 0.930 1_545 S
H192 C222 0.929 . S
H193 C225 0.928 . S
O194 Co178 2.057 . S
O194 C182 1.232 1_545 S
H195 C214 0.929 . S
H196 C215 0.929 . S
H197 C227 0.931 1_545 S
H198 C219 0.929 . S
H199 C228 0.930 . S
H200 C220 0.931 . S
O201 Co177 2.097 . S
O201 C229 1.214 1_565 S
H202 C230 0.929 . S
H203 C231 0.929 . S
H204 C232 0.930 . S
H205 C233 0.929 . S
H206 C235 0.930 . S
H207 C212 0.930 . S
H208 C216 0.930 . S
O209 Co178 2.037 . S
O209 C229 1.234 . S
C210 O184 1.269 . S
C210 O185 1.257 . S
C211 H186 0.930 . S
C211 C214 1.388 . S
C211 C216 1.418 . S
C212 H207 0.930 . S
C212 C215 1.404 . S
C212 C216 1.353 . S
N213 Co178 2.145 . S
N213 C214 1.397 . S
N213 C215 1.334 . S
C214 H195 0.929 . S
C214 C211 1.388 . S
C214 N213 1.397 . S
C215 H196 0.929 . S
C215 C212 1.404 . S
C215 N213 1.334 . S
C216 H208 0.930 . S
C216 C211 1.418 . S
C216 C212 1.353 . S
C217 H187 0.930 . S
C217 N218 1.330 . S
C217 C219 1.446 . S
N218 Co177 2.151 . S
N218 C217 1.330 . S
N218 C222 1.418 . S
C219 H198 0.929 . S
C219 C217 1.446 . S
C219 C220 1.332 . S
C220 H200 0.931 . S
C220 C219 1.332 . S
C220 C221 1.267 . S
C221 H189 0.929 . S
C221 C220 1.267 . S
C221 C222 1.251 . S
C222 H192 0.929 . S
C222 N218 1.418 . S
C222 C221 1.251 . S
C223 H190 0.930 . S
C223 C225 1.406 . S
C223 C228 1.261 . S
C224 H191 0.930 1_565 S
C224 N226 1.325 . S
C224 C227 1.357 . S
C225 H193 0.928 . S
C225 C223 1.406 . S
C225 N226 1.261 . S
N226 Co177 2.214 . S
N226 C224 1.325 . S
N226 C225 1.261 . S
C227 H197 0.931 1_565 S
C227 C224 1.357 . S
C227 C228 1.312 . S
C228 H199 0.930 . S
C228 C223 1.261 . S
C228 C227 1.312 . S
C229 O201 1.214 1_545 S
C229 O209 1.234 . S
C230 H202 0.929 . S
C230 C233 1.391 . S
C230 C235 1.391 . S
C231 H203 0.929 . S
C231 C232 1.390 . S
C231 N234 1.391 . S
C232 H204 0.930 . S
C232 C231 1.390 . S
C232 C233 1.392 1_545 S
C233 H205 0.929 . S
C233 C230 1.391 . S
C233 C232 1.392 1_565 S
N234 Co178 2.257 . S
N234 C231 1.391 . S
N234 C235 1.388 1_545 S
C235 H206 0.930 . S
C235 C230 1.391 . S
C235 N234 1.388 1_565 S
Co236 O238 2.143 . S
Co236 O244 2.074 1_655 S
Co236 O247 2.093 . S
Co236 O260 2.097 . S
Co236 N277 2.151 . S
Co236 N285 2.214 . S
Co237 O238 2.160 1_455 S
Co237 O243 2.058 . S
Co237 O253 2.057 . S
Co237 O268 2.037 . S
Co237 N272 2.145 . S
Co237 N293 2.257 . S
O238 Co236 2.143 . S
O238 Co237 2.160 1_655 S
C239 O240 1.278 . S
C239 O247 1.224 . S
O240 C239 1.278 . S
C241 O242 1.245 . S
C241 O253 1.232 1_655 S
O242 C241 1.245 . S
O243 Co237 2.058 . S
O243 C269 1.269 . S
O244 Co236 2.074 1_455 S
O244 C269 1.257 . S
H245 C270 0.930 . S
H246 C276 0.930 . S
O247 Co236 2.093 . S
O247 C239 1.224 . S
H248 C280 0.929 . S
H249 C282 0.930 . S
H250 C283 0.930 1_455 S
H251 C281 0.929 . S
H252 C284 0.928 . S
O253 Co237 2.057 . S
O253 C241 1.232 1_455 S
H254 C273 0.929 . S
H255 C274 0.929 . S
H256 C286 0.931 1_455 S
H257 C278 0.929 . S
H258 C287 0.930 . S
H259 C279 0.931 . S
O260 Co236 2.097 . S
O260 C288 1.214 1_655 S
H261 C289 0.929 . S
H262 C290 0.929 . S
H263 C291 0.930 . S
H264 C292 0.929 . S
H265 C294 0.930 . S
H266 C271 0.930 . S
H267 C275 0.930 . S
O268 Co237 2.037 . S
O268 C288 1.234 . S
C269 O243 1.269 . S
C269 O244 1.257 . S
C270 H245 0.930 . S
C270 C273 1.388 . S
C270 C275 1.418 . S
C271 H266 0.930 . S
C271 C274 1.404 . S
C271 C275 1.353 . S
N272 Co237 2.145 . S
N272 C273 1.397 . S
N272 C274 1.334 . S
C273 H254 0.929 . S
C273 C270 1.388 . S
C273 N272 1.397 . S
C274 H255 0.929 . S
C274 C271 1.404 . S
C274 N272 1.334 . S
C275 H267 0.930 . S
C275 C270 1.418 . S
C275 C271 1.353 . S
C276 H246 0.930 . S
C276 N277 1.330 . S
C276 C278 1.446 . S
N277 Co236 2.151 . S
N277 C276 1.330 . S
N277 C281 1.418 . S
C278 H257 0.929 . S
C278 C276 1.446 . S
C278 C279 1.332 . S
C279 H259 0.931 . S
C279 C278 1.332 . S
C279 C280 1.267 . S
C280 H248 0.929 . S
C280 C279 1.267 . S
C280 C281 1.251 . S
C281 H251 0.929 . S
C281 N277 1.418 . S
C281 C280 1.251 . S
C282 H249 0.930 . S
C282 C284 1.406 . S
C282 C287 1.261 . S
C283 H250 0.930 1_655 S
C283 N285 1.325 . S
C283 C286 1.357 . S
C284 H252 0.928 . S
C284 C282 1.406 . S
C284 N285 1.261 . S
N285 Co236 2.214 . S
N285 C283 1.325 . S
N285 C284 1.261 . S
C286 H256 0.931 1_655 S
C286 C283 1.357 . S
C286 C287 1.312 . S
C287 H258 0.930 . S
C287 C282 1.261 . S
C287 C286 1.312 . S
C288 O260 1.214 1_455 S
C288 O268 1.234 . S
C289 H261 0.929 . S
C289 C292 1.391 . S
C289 C294 1.391 . S
C290 H262 0.929 . S
C290 C291 1.390 . S
C290 N293 1.391 . S
C291 H263 0.930 . S
C291 C290 1.390 . S
C291 C292 1.392 1_455 S
C292 H264 0.929 . S
C292 C289 1.391 . S
C292 C291 1.392 1_655 S
N293 Co237 2.257 . S
N293 C290 1.391 . S
N293 C294 1.388 1_455 S
C294 H265 0.930 . S
C294 C289 1.391 . S
C294 N293 1.388 1_655 S
Co295 O297 2.143 . S
Co295 O303 2.074 . S
Co295 O306 2.093 . S
Co295 O319 2.097 . S
Co295 N336 2.151 . S
Co295 N344 2.214 . S
Co296 O297 2.160 . S
Co296 O302 2.058 . S
Co296 O312 2.057 . S
Co296 O327 2.037 . S
Co296 N331 2.145 . S
Co296 N352 2.257 . S
O297 Co295 2.143 . S
O297 Co296 2.160 . S
C298 O299 1.278 . S
C298 O306 1.224 . S
O299 C298 1.278 . S
C300 O301 1.245 . S
C300 O312 1.232 . S
O301 C300 1.245 . S
O302 Co296 2.058 . S
O302 C328 1.269 . S
O303 Co295 2.074 . S
O303 C328 1.257 . S
H304 C329 0.930 . S
H305 C335 0.930 . S
O306 Co295 2.093 . S
O306 C298 1.224 . S
H307 C339 0.929 . S
H308 C341 0.930 . S
H309 C342 0.930 . S
H310 C340 0.929 . S
H311 C343 0.928 . S
O312 Co296 2.057 . S
O312 C300 1.232 . S
H313 C332 0.929 . S
H314 C333 0.929 . S
H315 C345 0.931 . S
H316 C337 0.929 . S
H317 C346 0.930 . S
H318 C338 0.931 . S
O319 Co295 2.097 . S
O319 C347 1.214 . S
H320 C348 0.929 . S
H321 C349 0.929 . S
H322 C350 0.930 . S
H323 C351 0.929 . S
H324 C353 0.930 . S
H325 C330 0.930 . S
H326 C334 0.930 . S
O327 Co296 2.037 . S
O327 C347 1.234 . S
C328 O302 1.269 . S
C328 O303 1.257 . S
C329 H304 0.930 . S
C329 C332 1.388 . S
C329 C334 1.418 . S
C330 H325 0.930 . S
C330 C333 1.404 . S
C330 C334 1.353 . S
N331 Co296 2.145 . S
N331 C332 1.397 . S
N331 C333 1.334 . S
C332 H313 0.929 . S
C332 C329 1.388 . S
C332 N331 1.397 . S
C333 H314 0.929 . S
C333 C330 1.404 . S
C333 N331 1.334 . S
C334 H326 0.930 . S
C334 C329 1.418 . S
C334 C330 1.353 . S
C335 H305 0.930 . S
C335 N336 1.330 . S
C335 C337 1.446 . S
N336 Co295 2.151 . S
N336 C335 1.330 . S
N336 C340 1.418 . S
C337 H316 0.929 . S
C337 C335 1.446 . S
C337 C338 1.332 . S
C338 H318 0.931 . S
C338 C337 1.332 . S
C338 C339 1.267 . S
C339 H307 0.929 . S
C339 C338 1.267 . S
C339 C340 1.251 . S
C340 H310 0.929 . S
C340 N336 1.418 . S
C340 C339 1.251 . S
C341 H308 0.930 . S
C341 C343 1.406 . S
C341 C346 1.261 . S
C342 H309 0.930 . S
C342 N344 1.325 . S
C342 C345 1.357 . S
C343 H311 0.928 . S
C343 C341 1.406 . S
C343 N344 1.261 . S
N344 Co295 2.214 . S
N344 C342 1.325 . S
N344 C343 1.261 . S
C345 H315 0.931 . S
C345 C342 1.357 . S
C345 C346 1.312 . S
C346 H317 0.930 . S
C346 C341 1.261 . S
C346 C345 1.312 . S
C347 O319 1.214 . S
C347 O327 1.234 . S
C348 H320 0.929 . S
C348 C351 1.391 . S
C348 C353 1.391 . S
C349 H321 0.929 . S
C349 C350 1.390 . S
C349 N352 1.391 . S
C350 H322 0.930 . S
C350 C349 1.390 . S
C350 C351 1.392 . S
C351 H323 0.929 . S
C351 C348 1.391 . S
C351 C350 1.392 . S
N352 Co296 2.257 . S
N352 C349 1.391 . S
N352 C353 1.388 . S
C353 H324 0.930 . S
C353 C348 1.391 . S
C353 N352 1.388 . S
Co354 O356 2.143 . S
Co354 O362 2.074 . S
Co354 O365 2.093 . S
Co354 O378 2.097 . S
Co354 N395 2.151 . S
Co354 N403 2.214 . S
Co355 O356 2.160 . S
Co355 O361 2.058 . S
Co355 O371 2.057 . S
Co355 O386 2.037 . S
Co355 N390 2.145 . S
Co355 N411 2.257 . S
O356 Co354 2.143 . S
O356 Co355 2.160 . S
C357 O358 1.278 . S
C357 O365 1.224 . S
O358 C357 1.278 . S
C359 O360 1.245 . S
C359 O371 1.232 . S
O360 C359 1.245 . S
O361 Co355 2.058 . S
O361 C387 1.269 . S
O362 Co354 2.074 . S
O362 C387 1.257 . S
H363 C388 0.930 . S
H364 C394 0.930 . S
O365 Co354 2.093 . S
O365 C357 1.224 . S
H366 C398 0.929 . S
H367 C400 0.930 . S
H368 C401 0.930 . S
H369 C399 0.929 . S
H370 C402 0.928 . S
O371 Co355 2.057 . S
O371 C359 1.232 . S
H372 C391 0.929 . S
H373 C392 0.929 . S
H374 C404 0.931 . S
H375 C396 0.929 . S
H376 C405 0.930 . S
H377 C397 0.931 . S
O378 Co354 2.097 . S
O378 C406 1.214 . S
H379 C407 0.929 . S
H380 C408 0.929 . S
H381 C409 0.930 . S
H382 C410 0.929 . S
H383 C412 0.930 . S
H384 C389 0.930 . S
H385 C393 0.930 . S
O386 Co355 2.037 . S
O386 C406 1.234 . S
C387 O361 1.269 . S
C387 O362 1.257 . S
C388 H363 0.930 . S
C388 C391 1.388 . S
C388 C393 1.418 . S
C389 H384 0.930 . S
C389 C392 1.404 . S
C389 C393 1.353 . S
N390 Co355 2.145 . S
N390 C391 1.397 . S
N390 C392 1.334 . S
C391 H372 0.929 . S
C391 C388 1.388 . S
C391 N390 1.397 . S
C392 H373 0.929 . S
C392 C389 1.404 . S
C392 N390 1.334 . S
C393 H385 0.930 . S
C393 C388 1.418 . S
C393 C389 1.353 . S
C394 H364 0.930 . S
C394 N395 1.330 . S
C394 C396 1.446 . S
N395 Co354 2.151 . S
N395 C394 1.330 . S
N395 C399 1.418 . S
C396 H375 0.929 . S
C396 C394 1.446 . S
C396 C397 1.332 . S
C397 H377 0.931 . S
C397 C396 1.332 . S
C397 C398 1.267 . S
C398 H366 0.929 . S
C398 C397 1.267 . S
C398 C399 1.251 . S
C399 H369 0.929 . S
C399 N395 1.418 . S
C399 C398 1.251 . S
C400 H367 0.930 . S
C400 C402 1.406 . S
C400 C405 1.261 . S
C401 H368 0.930 . S
C401 N403 1.325 . S
C401 C404 1.357 . S
C402 H370 0.928 . S
C402 C400 1.406 . S
C402 N403 1.261 . S
N403 Co354 2.214 . S
N403 C401 1.325 . S
N403 C402 1.261 . S
C404 H374 0.931 . S
C404 C401 1.357 . S
C404 C405 1.312 . S
C405 H376 0.930 . S
C405 C400 1.261 . S
C405 C404 1.312 . S
C406 O378 1.214 . S
C406 O386 1.234 . S
C407 H379 0.929 . S
C407 C410 1.391 . S
C407 C412 1.391 . S
C408 H380 0.929 . S
C408 C409 1.390 . S
C408 N411 1.391 . S
C409 H381 0.930 . S
C409 C408 1.390 . S
C409 C410 1.392 . S
C410 H382 0.929 . S
C410 C407 1.391 . S
C410 C409 1.392 . S
N411 Co355 2.257 . S
N411 C408 1.391 . S
N411 C412 1.388 . S
C412 H383 0.930 . S
C412 C407 1.391 . S
C412 N411 1.388 . S
Co413 O415 2.143 . S
Co413 O421 2.074 1_545 S
Co413 O424 2.093 . S
Co413 O437 2.097 . S
Co413 N454 2.151 . S
Co413 N462 2.214 . S
Co414 O415 2.160 1_565 S
Co414 O420 2.058 . S
Co414 O430 2.057 . S
Co414 O445 2.037 . S
Co414 N449 2.145 . S
Co414 N470 2.257 . S
O415 Co413 2.143 . S
O415 Co414 2.160 1_545 S
C416 O417 1.278 . S
C416 O424 1.224 . S
O417 C416 1.278 . S
C418 O419 1.245 . S
C418 O430 1.232 1_545 S
O419 C418 1.245 . S
O420 Co414 2.058 . S
O420 C446 1.269 . S
O421 Co413 2.074 1_565 S
O421 C446 1.257 . S
H422 C447 0.930 . S
H423 C453 0.930 . S
O424 Co413 2.093 . S
O424 C416 1.224 . S
H425 C457 0.929 . S
H426 C459 0.930 . S
H427 C460 0.930 1_565 S
H428 C458 0.929 . S
H429 C461 0.928 . S
O430 Co414 2.057 . S
O430 C418 1.232 1_565 S
H431 C450 0.929 . S
H432 C451 0.929 . S
H433 C463 0.931 1_565 S
H434 C455 0.929 . S
H435 C464 0.930 . S
H436 C456 0.931 . S
O437 Co413 2.097 . S
O437 C465 1.214 1_545 S
H438 C466 0.929 . S
H439 C467 0.929 . S
H440 C468 0.930 . S
H441 C469 0.929 . S
H442 C471 0.930 . S
H443 C448 0.930 . S
H444 C452 0.930 . S
O445 Co414 2.037 . S
O445 C465 1.234 . S
C446 O420 1.269 . S
C446 O421 1.257 . S
C447 H422 0.930 . S
C447 C450 1.388 . S
C447 C452 1.418 . S
C448 H443 0.930 . S
C448 C451 1.404 . S
C448 C452 1.353 . S
N449 Co414 2.145 . S
N449 C450 1.397 . S
N449 C451 1.334 . S
C450 H431 0.929 . S
C450 C447 1.388 . S
C450 N449 1.397 . S
C451 H432 0.929 . S
C451 C448 1.404 . S
C451 N449 1.334 . S
C452 H444 0.930 . S
C452 C447 1.418 . S
C452 C448 1.353 . S
C453 H423 0.930 . S
C453 N454 1.330 . S
C453 C455 1.446 . S
N454 Co413 2.151 . S
N454 C453 1.330 . S
N454 C458 1.418 . S
C455 H434 0.929 . S
C455 C453 1.446 . S
C455 C456 1.332 . S
C456 H436 0.931 . S
C456 C455 1.332 . S
C456 C457 1.267 . S
C457 H425 0.929 . S
C457 C456 1.267 . S
C457 C458 1.251 . S
C458 H428 0.929 . S
C458 N454 1.418 . S
C458 C457 1.251 . S
C459 H426 0.930 . S
C459 C461 1.406 . S
C459 C464 1.261 . S
C460 H427 0.930 1_545 S
C460 N462 1.325 . S
C460 C463 1.357 . S
C461 H429 0.928 . S
C461 C459 1.406 . S
C461 N462 1.261 . S
N462 Co413 2.214 . S
N462 C460 1.325 . S
N462 C461 1.261 . S
C463 H433 0.931 1_545 S
C463 C460 1.357 . S
C463 C464 1.312 . S
C464 H435 0.930 . S
C464 C459 1.261 . S
C464 C463 1.312 . S
C465 O437 1.214 1_565 S
C465 O445 1.234 . S
C466 H438 0.929 . S
C466 C469 1.391 . S
C466 C471 1.391 . S
C467 H439 0.929 . S
C467 C468 1.390 . S
C467 N470 1.391 . S
C468 H440 0.930 . S
C468 C467 1.390 . S
C468 C469 1.392 1_565 S
C469 H441 0.929 . S
C469 C466 1.391 . S
C469 C468 1.392 1_545 S
N470 Co414 2.257 . S
N470 C467 1.391 . S
N470 C471 1.388 1_565 S
C471 H442 0.930 . S
C471 C466 1.391 . S
C471 N470 1.388 1_545 S
H472 C484 0.930 . S
H473 C486 0.930 . S
H474 C487 0.929 1_554 S
H475 C491 0.959 . S
H476 C491 0.959 . S
H477 C491 0.961 . S
H478 C492 0.960 . S
H479 C492 0.961 . S
H480 C492 0.959 . S
H481 C495 0.929 . S
H482 C496 0.931 . S
H483 C498 0.930 . S
C484 H472 0.930 . S
C484 C485 1.399 1_455 S
C484 C489 1.399 1_455 S
C485 C484 1.399 1_655 S
C485 C486 1.376 . S
C486 H473 0.930 . S
C486 C485 1.376 . S
C486 C487 1.389 . S
C487 H474 0.929 1_556 S
C487 C486 1.389 . S
C487 C488 1.390 . S
C488 C487 1.390 . S
C488 C489 1.394 . S
C488 C494 1.465 1_556 S
C489 C484 1.399 1_655 S
C489 C488 1.394 . S
C489 C490 1.516 1_655 S
C490 C489 1.516 1_455 S
C490 C491 1.502 . S
C490 C492 1.561 1_455 S
C490 C493 1.526 1_556 S
C491 H475 0.959 . S
C491 H476 0.959 . S
C491 H477 0.961 . S
C491 C490 1.502 . S
C492 H478 0.960 . S
C492 H479 0.961 . S
C492 H480 0.959 . S
C492 C490 1.561 1_655 S
C493 C490 1.526 1_554 S
C493 C494 1.396 1_455 S
C493 C498 1.390 . S
C494 C488 1.465 1_554 S
C494 C493 1.396 1_655 S
C494 C495 1.399 . S
C495 H481 0.929 . S
C495 C494 1.399 . S
C495 C496 1.385 . S
C496 H482 0.931 . S
C496 C495 1.385 . S
C496 C497 1.389 1_655 S
C497 C496 1.389 1_455 S
C497 C498 1.387 . S
C498 H483 0.930 . S
C498 C493 1.390 . S
C498 C497 1.387 . S
H499 C511 0.930 . S
H500 C513 0.930 . S
H501 C514 0.930 . S
H502 C518 0.959 . S
H503 C518 0.959 . S
H504 C518 0.961 . S
H505 C519 0.960 . S
H506 C519 0.961 . S
H507 C519 0.959 . S
H508 C522 0.929 . S
H509 C523 0.931 . S
H510 C525 0.930 . S
C511 H499 0.930 . S
C511 C512 1.399 . S
C511 C516 1.399 . S
C512 C511 1.399 . S
C512 C513 1.376 . S
C513 H500 0.930 . S
C513 C512 1.376 . S
C513 C514 1.388 . S
C514 H501 0.930 . S
C514 C513 1.388 . S
C514 C515 1.390 . S
C515 C514 1.390 . S
C515 C516 1.394 . S
C515 C521 1.465 . S
C516 C511 1.399 . S
C516 C515 1.394 . S
C516 C517 1.516 . S
C517 C516 1.516 . S
C517 C518 1.502 . S
C517 C519 1.561 . S
C517 C520 1.526 . S
C518 H502 0.959 . S
C518 H503 0.959 . S
C518 H504 0.961 . S
C518 C517 1.502 . S
C519 H505 0.960 . S
C519 H506 0.961 . S
C519 H507 0.959 . S
C519 C517 1.561 . S
C520 C517 1.526 . S
C520 C521 1.396 . S
C520 C525 1.390 . S
C521 C515 1.465 . S
C521 C520 1.396 . S
C521 C522 1.399 . S
C522 H508 0.929 . S
C522 C521 1.399 . S
C522 C523 1.385 . S
C523 H509 0.931 . S
C523 C522 1.385 . S
C523 C524 1.389 . S
C524 C523 1.389 . S
C524 C525 1.387 . S
C525 H510 0.930 . S
C525 C520 1.390 . S
C525 C524 1.387 . S
H526 C538 0.930 . S
H527 C540 0.930 . S
H528 C541 0.930 1_556 S
H529 C545 0.959 . S
H530 C545 0.959 . S
H531 C545 0.961 . S
H532 C546 0.960 . S
H533 C546 0.961 . S
H534 C546 0.959 . S
H535 C549 0.931 . S
H536 C550 0.931 . S
H537 C552 0.930 . S
C538 H526 0.930 . S
C538 C539 1.399 . S
C538 C543 1.399 . S
C539 C538 1.399 . S
C539 C540 1.376 . S
C540 H527 0.930 . S
C540 C539 1.376 . S
C540 C541 1.388 . S
C541 H528 0.930 1_554 S
C541 C540 1.388 . S
C541 C542 1.390 . S
C542 C541 1.390 . S
C542 C543 1.394 . S
C542 C548 1.465 1_564 S
C543 C538 1.399 . S
C543 C542 1.394 . S
C543 C544 1.516 1_565 S
C544 C543 1.516 1_545 S
C544 C545 1.502 . S
C544 C546 1.561 . S
C544 C547 1.526 1_554 S
C545 H529 0.959 . S
C545 H530 0.959 . S
C545 H531 0.961 . S
C545 C544 1.502 . S
C546 H532 0.960 . S
C546 H533 0.961 . S
C546 H534 0.959 . S
C546 C544 1.561 . S
C547 C544 1.526 1_556 S
C547 C548 1.396 . S
C547 C552 1.390 . S
C548 C542 1.465 1_546 S
C548 C547 1.396 . S
C548 C549 1.399 1_545 S
C549 H535 0.931 . S
C549 C548 1.399 1_565 S
C549 C550 1.384 1_565 S
C550 H536 0.931 . S
C550 C549 1.384 1_545 S
C550 C551 1.389 . S
C551 C550 1.389 . S
C551 C552 1.387 . S
C552 H537 0.930 . S
C552 C547 1.390 . S
C552 C551 1.387 . S
H553 C565 0.930 . S
H554 C567 0.930 . S
H555 C568 0.930 . S
H556 C572 0.959 . S
H557 C572 0.959 . S
H558 C572 0.961 . S
H559 C573 0.960 1_655 S
H560 C573 0.961 . S
H561 C573 0.959 . S
H562 C576 0.929 . S
H563 C577 0.931 . S
H564 C579 0.930 . S
C565 H553 0.930 . S
C565 C566 1.399 1_565 S
C565 C570 1.399 . S
C566 C565 1.399 1_545 S
C566 C567 1.376 . S
C567 H554 0.930 . S
C567 C566 1.376 . S
C567 C568 1.388 . S
C568 H555 0.930 . S
C568 C567 1.388 . S
C568 C569 1.390 . S
C569 C568 1.390 . S
C569 C570 1.394 1_545 S
C569 C575 1.465 1_655 S
C570 C565 1.399 . S
C570 C569 1.394 1_565 S
C570 C571 1.516 . S
C571 C570 1.516 . S
C571 C572 1.502 . S
C571 C573 1.561 1_655 S
C571 C574 1.526 1_655 S
C572 H556 0.959 . S
C572 H557 0.959 . S
C572 H558 0.961 . S
C572 C571 1.502 . S
C573 H559 0.960 1_455 S
C573 H560 0.961 . S
C573 H561 0.959 . S
C573 C571 1.561 1_455 S
C574 C571 1.526 1_455 S
C574 C575 1.396 1_565 S
C574 C579 1.390 . S
C575 C569 1.465 1_455 S
C575 C574 1.396 1_545 S
C575 C576 1.399 . S
C576 H562 0.929 . S
C576 C575 1.399 . S
C576 C577 1.385 . S
C577 H563 0.931 . S
C577 C576 1.385 . S
C577 C578 1.389 1_545 S
C578 C577 1.389 1_565 S
C578 C579 1.387 . S
C579 H564 0.930 . S
C579 C574 1.390 . S
C579 C578 1.387 . S
H580 C592 0.930 . S
H581 C594 0.930 . S
H582 C595 0.930 . S
H583 C599 0.959 . S
H584 C599 0.959 . S
H585 C599 0.961 . S
H586 C600 0.960 . S
H587 C600 0.961 . S
H588 C600 0.959 . S
H589 C603 0.929 . S
H590 C604 0.931 . S
H591 C606 0.930 . S
C592 H580 0.930 . S
C592 C593 1.399 . S
C592 C597 1.399 . S
C593 C592 1.399 . S
C593 C594 1.376 . S
C594 H581 0.930 . S
C594 C593 1.376 . S
C594 C595 1.388 . S
C595 H582 0.930 . S
C595 C594 1.388 . S
C595 C596 1.390 . S
C596 C595 1.390 . S
C596 C597 1.394 . S
C596 C602 1.465 . S
C597 C592 1.399 . S
C597 C596 1.394 . S
C597 C598 1.516 . S
C598 C597 1.516 . S
C598 C599 1.502 . S
C598 C600 1.561 . S
C598 C601 1.526 . S
C599 H583 0.959 . S
C599 H584 0.959 . S
C599 H585 0.961 . S
C599 C598 1.502 . S
C600 H586 0.960 . S
C600 H587 0.961 . S
C600 H588 0.959 . S
C600 C598 1.561 . S
C601 C598 1.526 . S
C601 C602 1.396 . S
C601 C606 1.390 . S
C602 C596 1.465 . S
C602 C601 1.396 . S
C602 C603 1.399 . S
C603 H589 0.929 . S
C603 C602 1.399 . S
C603 C604 1.385 . S
C604 H590 0.931 . S
C604 C603 1.385 . S
C604 C605 1.389 . S
C605 C604 1.389 . S
C605 C606 1.387 . S
C606 H591 0.930 . S
C606 C601 1.390 . S
C606 C605 1.387 . S
H607 C619 0.930 . S
H608 C621 0.930 . S
H609 C622 0.930 . S
H610 C626 0.959 . S
H611 C626 0.959 . S
H612 C626 0.961 . S
H613 C627 0.960 . S
H614 C627 0.961 . S
H615 C627 0.959 . S
H616 C630 0.929 . S
H617 C631 0.931 . S
H618 C633 0.930 . S
C619 H607 0.930 . S
C619 C620 1.399 . S
C619 C624 1.399 . S
C620 C619 1.399 . S
C620 C621 1.376 . S
C621 H608 0.930 . S
C621 C620 1.376 . S
C621 C622 1.388 . S
C622 H609 0.930 . S
C622 C621 1.388 . S
C622 C623 1.390 . S
C623 C622 1.390 . S
C623 C624 1.394 . S
C623 C629 1.465 . S
C624 C619 1.399 . S
C624 C623 1.394 . S
C624 C625 1.516 . S
C625 C624 1.516 . S
C625 C626 1.502 . S
C625 C627 1.561 . S
C625 C628 1.526 . S
C626 H610 0.959 . S
C626 H611 0.959 . S
C626 H612 0.961 . S
C626 C625 1.502 . S
C627 H613 0.960 . S
C627 H614 0.961 . S
C627 H615 0.959 . S
C627 C625 1.561 . S
C628 C625 1.526 . S
C628 C629 1.396 . S
C628 C633 1.390 . S
C629 C623 1.465 . S
C629 C628 1.396 . S
C629 C630 1.399 . S
C630 H616 0.929 . S
C630 C629 1.399 . S
C630 C631 1.385 . S
C631 H617 0.931 . S
C631 C630 1.385 . S
C631 C632 1.389 . S
C632 C631 1.389 . S
C632 C633 1.387 . S
C633 H618 0.930 . S
C633 C628 1.390 . S
C633 C632 1.387 . S
H634 C646 0.930 . S
H635 C648 0.930 . S
H636 C649 0.930 . S
H637 C653 0.959 . S
H638 C653 0.959 . S
H639 C653 0.961 . S
H640 C654 0.960 . S
H641 C654 0.961 . S
H642 C654 0.959 . S
H643 C657 0.929 . S
H644 C658 0.931 . S
H645 C660 0.930 . S
C646 H634 0.930 . S
C646 C647 1.399 . S
C646 C651 1.399 . S
C647 C646 1.399 . S
C647 C648 1.376 . S
C648 H635 0.930 . S
C648 C647 1.376 . S
C648 C649 1.388 . S
C649 H636 0.930 . S
C649 C648 1.388 . S
C649 C650 1.390 . S
C650 C649 1.390 . S
C650 C651 1.394 . S
C650 C656 1.465 . S
C651 C646 1.399 . S
C651 C650 1.394 . S
C651 C652 1.516 . S
C652 C651 1.516 . S
C652 C653 1.502 . S
C652 C654 1.561 . S
C652 C655 1.526 . S
C653 H637 0.959 . S
C653 H638 0.959 . S
C653 H639 0.961 . S
C653 C652 1.502 . S
C654 H640 0.960 . S
C654 H641 0.961 . S
C654 H642 0.959 . S
C654 C652 1.561 . S
C655 C652 1.526 . S
C655 C656 1.396 . S
C655 C660 1.390 . S
C656 C650 1.465 . S
C656 C655 1.396 . S
C656 C657 1.399 . S
C657 H643 0.929 . S
C657 C656 1.399 . S
C657 C658 1.385 . S
C658 H644 0.931 . S
C658 C657 1.385 . S
C658 C659 1.389 . S
C659 C658 1.389 . S
C659 C660 1.387 . S
C660 H645 0.930 . S
C660 C655 1.390 . S
C660 C659 1.387 . S
H661 C673 0.930 . S
H662 C675 0.930 . S
H663 C676 0.930 . S
H664 C680 0.959 . S
H665 C680 0.959 . S
H666 C680 0.961 . S
H667 C681 0.960 . S
H668 C681 0.961 . S
H669 C681 0.959 . S
H670 C684 0.929 . S
H671 C685 0.931 . S
H672 C687 0.930 . S
C673 H661 0.930 . S
C673 C674 1.399 . S
C673 C678 1.399 . S
C674 C673 1.399 . S
C674 C675 1.376 . S
C675 H662 0.930 . S
C675 C674 1.376 . S
C675 C676 1.388 . S
C676 H663 0.930 . S
C676 C675 1.388 . S
C676 C677 1.390 . S
C677 C676 1.390 . S
C677 C678 1.394 . S
C677 C683 1.465 . S
C678 C673 1.399 . S
C678 C677 1.394 . S
C678 C679 1.516 . S
C679 C678 1.516 . S
C679 C680 1.502 . S
C679 C681 1.561 . S
C679 C682 1.526 . S
C680 H664 0.959 . S
C680 H665 0.959 . S
C680 H666 0.961 . S
C680 C679 1.502 . S
C681 H667 0.960 . S
C681 H668 0.961 . S
C681 H669 0.959 . S
C681 C679 1.561 . S
C682 C679 1.526 . S
C682 C683 1.396 . S
C682 C687 1.390 . S
C683 C677 1.465 . S
C683 C682 1.396 . S
C683 C684 1.399 . S
C684 H670 0.929 . S
C684 C683 1.399 . S
C684 C685 1.385 . S
C685 H671 0.931 . S
C685 C684 1.385 . S
C685 C686 1.389 . S
C686 C685 1.389 . S
C686 C687 1.387 . S
C687 H672 0.930 . S
C687 C682 1.390 . S
C687 C686 1.387 . S
H688 C700 0.930 . S
H689 C702 0.930 . S
H690 C703 0.930 . S
H691 C707 0.959 . S
H692 C707 0.959 . S
H693 C707 0.961 . S
H694 C708 0.960 . S
H695 C708 0.961 . S
H696 C708 0.959 . S
H697 C711 0.929 . S
H698 C712 0.931 . S
H699 C714 0.930 . S
C700 H688 0.930 . S
C700 C701 1.399 . S
C700 C705 1.399 . S
C701 C700 1.399 . S
C701 C702 1.376 . S
C702 H689 0.930 . S
C702 C701 1.376 . S
C702 C703 1.388 . S
C703 H690 0.930 . S
C703 C702 1.388 . S
C703 C704 1.390 . S
C704 C703 1.390 . S
C704 C705 1.394 . S
C704 C710 1.465 . S
C705 C700 1.399 . S
C705 C704 1.394 . S
C705 C706 1.516 . S
C706 C705 1.516 . S
C706 C707 1.502 . S
C706 C708 1.561 . S
C706 C709 1.526 . S
C707 H691 0.959 . S
C707 H692 0.959 . S
C707 H693 0.961 . S
C707 C706 1.502 . S
C708 H694 0.960 . S
C708 H695 0.961 . S
C708 H696 0.959 . S
C708 C706 1.561 . S
C709 C706 1.526 . S
C709 C710 1.396 . S
C709 C714 1.390 . S
C710 C704 1.465 . S
C710 C709 1.396 . S
C710 C711 1.399 . S
C711 H697 0.929 . S
C711 C710 1.399 . S
C711 C712 1.385 . S
C712 H698 0.931 . S
C712 C711 1.385 . S
C712 C713 1.389 . S
C713 C712 1.389 . S
C713 C714 1.387 . S
C714 H699 0.930 . S
C714 C709 1.390 . S
C714 C713 1.387 . S
H715 C727 0.930 . S
H716 C729 0.930 . S
H717 C730 0.930 . S
H718 C734 0.959 . S
H719 C734 0.959 . S
H720 C734 0.961 . S
H721 C735 0.960 . S
H722 C735 0.961 . S
H723 C735 0.959 . S
H724 C738 0.929 . S
H725 C739 0.931 . S
H726 C741 0.930 . S
C727 H715 0.930 . S
C727 C728 1.399 . S
C727 C732 1.399 . S
C728 C727 1.399 . S
C728 C729 1.376 . S
C729 H716 0.930 . S
C729 C728 1.376 . S
C729 C730 1.388 . S
C730 H717 0.930 . S
C730 C729 1.388 . S
C730 C731 1.390 . S
C731 C730 1.390 . S
C731 C732 1.394 . S
C731 C737 1.465 . S
C732 C727 1.399 . S
C732 C731 1.394 . S
C732 C733 1.516 . S
C733 C732 1.516 . S
C733 C734 1.502 . S
C733 C735 1.561 . S
C733 C736 1.526 . S
C734 H718 0.959 . S
C734 H719 0.959 . S
C734 H720 0.961 . S
C734 C733 1.502 . S
C735 H721 0.960 . S
C735 H722 0.961 . S
C735 H723 0.959 . S
C735 C733 1.561 . S
C736 C733 1.526 . S
C736 C737 1.396 . S
C736 C741 1.390 . S
C737 C731 1.465 . S
C737 C736 1.396 . S
C737 C738 1.399 . S
C738 H724 0.929 . S
C738 C737 1.399 . S
C738 C739 1.385 . S
C739 H725 0.931 . S
C739 C738 1.385 . S
C739 C740 1.389 . S
C740 C739 1.389 . S
C740 C741 1.387 . S
C741 H726 0.930 . S
C741 C736 1.390 . S
C741 C740 1.387 . S
H742 C754 0.930 . S
H743 C756 0.930 . S
H744 C757 0.930 . S
H745 C761 0.959 . S
H746 C761 0.959 . S
H747 C761 0.961 . S
H748 C762 0.960 . S
H749 C762 0.961 . S
H750 C762 0.959 . S
H751 C765 0.929 1_545 S
H752 C766 0.931 1_545 S
H753 C768 0.930 . S
C754 H742 0.930 . S
C754 C755 1.399 . S
C754 C759 1.399 . S
C755 C754 1.399 . S
C755 C756 1.376 . S
C756 H743 0.930 . S
C756 C755 1.376 . S
C756 C757 1.388 . S
C757 H744 0.930 . S
C757 C756 1.388 . S
C757 C758 1.390 . S
C758 C757 1.390 . S
C758 C759 1.394 . S
C758 C764 1.465 . S
C759 C754 1.399 . S
C759 C758 1.394 . S
C759 C760 1.516 . S
C760 C759 1.516 . S
C760 C761 1.502 . S
C760 C762 1.561 . S
C760 C763 1.526 . S
C761 H745 0.959 . S
C761 H746 0.959 . S
C761 H747 0.961 . S
C761 C760 1.502 . S
C762 H748 0.960 . S
C762 H749 0.961 . S
C762 H750 0.959 . S
C762 C760 1.561 . S
C763 C760 1.526 . S
C763 C764 1.396 . S
C763 C768 1.390 . S
C764 C758 1.465 . S
C764 C763 1.396 . S
C764 C765 1.399 . S
C765 H751 0.929 1_565 S
C765 C764 1.399 . S
C765 C766 1.385 . S
C766 H752 0.931 1_565 S
C766 C765 1.385 . S
C766 C767 1.389 . S
C767 C766 1.389 . S
C767 C768 1.387 . S
C768 H753 0.930 . S
C768 C763 1.390 . S
C768 C767 1.387 . S
H769 C781 0.930 . S
H770 C783 0.930 1_655 S
H771 C784 0.930 . S
H772 C788 0.959 . S
H773 C788 0.959 . S
H774 C788 0.961 . S
H775 C789 0.960 . S
H776 C789 0.961 . S
H777 C789 0.959 . S
H778 C792 0.929 . S
H779 C793 0.931 . S
H780 C795 0.930 . S
C781 H769 0.930 . S
C781 C782 1.399 . S
C781 C786 1.399 . S
C782 C781 1.399 . S
C782 C783 1.376 . S
C783 H770 0.930 1_455 S
C783 C782 1.376 . S
C783 C784 1.388 . S
C784 H771 0.930 . S
C784 C783 1.388 . S
C784 C785 1.390 . S
C785 C784 1.390 . S
C785 C786 1.394 . S
C785 C791 1.465 . S
C786 C781 1.399 . S
C786 C785 1.394 . S
C786 C787 1.516 . S
C787 C786 1.516 . S
C787 C788 1.502 . S
C787 C789 1.561 . S
C787 C790 1.526 . S
C788 H772 0.959 . S
C788 H773 0.959 . S
C788 H774 0.961 . S
C788 C787 1.502 . S
C789 H775 0.960 . S
C789 H776 0.961 . S
C789 H777 0.959 . S
C789 C787 1.561 . S
C790 C787 1.526 . S
C790 C791 1.396 . S
C790 C795 1.390 . S
C791 C785 1.465 . S
C791 C790 1.396 . S
C791 C792 1.399 . S
C792 H778 0.929 . S
C792 C791 1.399 . S
C792 C793 1.385 . S
C793 H779 0.931 . S
C793 C792 1.385 . S
C793 C794 1.389 . S
C794 C793 1.389 . S
C794 C795 1.387 . S
C795 H780 0.930 . S
C795 C790 1.390 . S
C795 C794 1.387 . S
H796 C808 0.930 . S
H797 C810 0.930 . S
H798 C811 0.930 . S
H799 C815 0.959 . S
H800 C815 0.959 . S
H801 C815 0.961 . S
H802 C816 0.960 . S
H803 C816 0.961 . S
H804 C816 0.959 . S
H805 C819 0.929 . S
H806 C820 0.931 . S
H807 C822 0.930 . S
C808 H796 0.930 . S
C808 C809 1.399 . S
C808 C813 1.399 . S
C809 C808 1.399 . S
C809 C810 1.376 . S
C810 H797 0.930 . S
C810 C809 1.376 . S
C810 C811 1.388 . S
C811 H798 0.930 . S
C811 C810 1.388 . S
C811 C812 1.390 . S
C812 C811 1.390 . S
C812 C813 1.394 . S
C812 C818 1.465 . S
C813 C808 1.399 . S
C813 C812 1.394 . S
C813 C814 1.516 . S
C814 C813 1.516 . S
C814 C815 1.502 . S
C814 C816 1.561 . S
C814 C817 1.526 . S
C815 H799 0.959 . S
C815 H800 0.959 . S
C815 H801 0.961 . S
C815 C814 1.502 . S
C816 H802 0.960 . S
C816 H803 0.961 . S
C816 H804 0.959 . S
C816 C814 1.561 . S
C817 C814 1.526 . S
C817 C818 1.396 . S
C817 C822 1.390 . S
C818 C812 1.465 . S
C818 C817 1.396 . S
C818 C819 1.399 . S
C819 H805 0.929 . S
C819 C818 1.399 . S
C819 C820 1.385 . S
C820 H806 0.931 . S
C820 C819 1.385 . S
C820 C821 1.389 . S
C821 C820 1.389 . S
C821 C822 1.387 . S
C822 H807 0.930 . S
C822 C817 1.390 . S
C822 C821 1.387 . S
H823 C835 0.930 . S
H824 C837 0.930 . S
H825 C838 0.930 . S
H826 C842 0.959 . S
H827 C842 0.959 . S
H828 C842 0.961 . S
H829 C843 0.960 . S
H830 C843 0.961 . S
H831 C843 0.959 . S
H832 C846 0.929 . S
H833 C847 0.931 . S
H834 C849 0.930 . S
C835 H823 0.930 . S
C835 C836 1.399 . S
C835 C840 1.399 . S
C836 C835 1.399 . S
C836 C837 1.376 . S
C837 H824 0.930 . S
C837 C836 1.376 . S
C837 C838 1.388 . S
C838 H825 0.930 . S
C838 C837 1.388 . S
C838 C839 1.390 . S
C839 C838 1.390 . S
C839 C840 1.394 . S
C839 C845 1.465 . S
C840 C835 1.399 . S
C840 C839 1.394 . S
C840 C841 1.516 . S
C841 C840 1.516 . S
C841 C842 1.502 . S
C841 C843 1.561 . S
C841 C844 1.526 . S
C842 H826 0.959 . S
C842 H827 0.959 . S
C842 H828 0.961 . S
C842 C841 1.502 . S
C843 H829 0.960 . S
C843 H830 0.961 . S
C843 H831 0.959 . S
C843 C841 1.561 . S
C844 C841 1.526 . S
C844 C845 1.396 . S
C844 C849 1.390 . S
C845 C839 1.465 . S
C845 C844 1.396 . S
C845 C846 1.399 . S
C846 H832 0.929 . S
C846 C845 1.399 . S
C846 C847 1.385 . S
C847 H833 0.931 . S
C847 C846 1.385 . S
C847 C848 1.389 . S
C848 C847 1.389 . S
C848 C849 1.387 . S
C849 H834 0.930 . S
C849 C844 1.390 . S
C849 C848 1.387 . S
H850 C862 0.930 . S
H851 C864 0.930 . S
H852 C865 0.930 . S
H853 C869 0.952 1_545 S
H854 C869 0.959 . S
H855 C869 0.961 . S
H856 C870 0.960 . S
H857 C870 0.961 1_565 S
H858 C870 0.959 . S
H859 C873 0.929 . S
H860 C874 0.931 . S
H861 C876 0.930 1_565 S
C862 H850 0.930 . S
C862 C863 1.399 . S
C862 C867 1.399 . S
C863 C862 1.399 . S
C863 C864 1.376 . S
C864 H851 0.930 . S
C864 C863 1.376 . S
C864 C865 1.388 . S
C865 H852 0.930 . S
C865 C864 1.388 . S
C865 C866 1.390 . S
C866 C865 1.390 . S
C866 C867 1.394 . S
C866 C872 1.465 . S
C867 C862 1.399 . S
C867 C866 1.394 . S
C867 C868 1.516 . S
C868 C867 1.516 . S
C868 C869 1.502 1_545 S
C868 C870 1.561 . S
C868 C871 1.526 . S
C869 H853 0.952 1_565 S
C869 H854 0.959 . S
C869 H855 0.961 . S
C869 C868 1.502 1_565 S
C870 H856 0.960 . S
C870 H857 0.961 1_545 S
C870 H858 0.959 . S
C870 C868 1.561 . S
C871 C868 1.526 . S
C871 C872 1.396 . S
C871 C876 1.390 . S
C872 C866 1.465 . S
C872 C871 1.396 . S
C872 C873 1.399 . S
C873 H859 0.929 . S
C873 C872 1.399 . S
C873 C874 1.385 . S
C874 H860 0.931 . S
C874 C873 1.385 . S
C874 C875 1.389 . S
C875 C874 1.389 . S
C875 C876 1.387 . S
C876 H861 0.930 1_545 S
C876 C871 1.390 . S
C876 C875 1.387 . S
H877 C889 0.930 . S
H878 C891 0.930 1_455 S
H879 C892 0.930 . S
H880 C896 0.959 . S
H881 C896 0.959 . S
H882 C896 0.961 . S
H883 C897 0.960 . S
H884 C897 0.961 . S
H885 C897 0.959 . S
H886 C900 0.929 . S
H887 C901 0.931 . S
H888 C903 0.930 . S
C889 H877 0.930 . S
C889 C890 1.399 . S
C889 C894 1.399 . S
C890 C889 1.399 . S
C890 C891 1.376 . S
C891 H878 0.930 1_655 S
C891 C890 1.376 . S
C891 C892 1.388 . S
C892 H879 0.930 . S
C892 C891 1.388 . S
C892 C893 1.390 . S
C893 C892 1.390 . S
C893 C894 1.394 . S
C893 C899 1.465 . S
C894 C889 1.399 . S
C894 C893 1.394 . S
C894 C895 1.516 . S
C895 C894 1.516 . S
C895 C896 1.502 . S
C895 C897 1.561 . S
C895 C898 1.526 . S
C896 H880 0.959 . S
C896 H881 0.959 . S
C896 H882 0.961 . S
C896 C895 1.502 . S
C897 H883 0.960 . S
C897 H884 0.961 . S
C897 H885 0.959 . S
C897 C895 1.561 . S
C898 C895 1.526 . S
C898 C899 1.396 . S
C898 C903 1.390 . S
C899 C893 1.465 . S
C899 C898 1.396 . S
C899 C900 1.399 . S
C900 H886 0.929 . S
C900 C899 1.399 . S
C900 C901 1.385 . S
C901 H887 0.931 . S
C901 C900 1.385 . S
C901 C902 1.389 . S
C902 C901 1.389 . S
C902 C903 1.387 . S
C903 H888 0.930 . S
C903 C898 1.390 . S
C903 C902 1.387 . S
C485 C241 1.534 . S
C497 C5 1.500 . S
C512 C64 1.531 . S
C524 C300 1.510 . S
C539 C123 1.527 . S
C551 C359 1.504 . S
C566 C418 1.509 . S
C578 C182 1.521 . S
C593 C3 1.403 . S
C605 C121 1.434 . S
C620 C62 1.402 . S
C632 C180 1.436 . S
C647 C357 1.434 . S
C659 C239 1.417 . S
C674 C298 1.416 . S
C686 C416 1.443 . S
C701 C347 1.260 . S
C713 C33 1.276 . S
C728 C92 1.237 . S
C740 C406 1.256 . S
C755 C151 1.256 . S
C767 C465 1.249 . S
C782 C288 1.250 . S
C794 C210 1.264 . S
C809 C269 1.244 . S
C821 C111 1.256 . S
C836 C328 1.270 . S
C848 C170 1.249 . S
C863 C387 1.237 . S
C875 C229 1.270 . S
C890 C52 1.260 . S
C902 C446 1.276 . S
