# Generated by pormake.
# Topology upa, (4)-cn, num edge types: 1
# Building blocks:
#     Node 0, Type 0, BuildingBlock: GALJAG_clean_sbu_0, # of connection points: 4
#     Node 1, Type 0, BuildingBlock: GALJAG_clean_sbu_0, # of connection points: 4
#     Node 2, Type 0, BuildingBlock: GALJAG_clean_sbu_0, # of connection points: 4
#     Node 3, Type 0, BuildingBlock: GALJAG_clean_sbu_0, # of connection points: 4
#     Node 4, Type 0, BuildingBlock: GALJAG_clean_sbu_0, # of connection points: 4
#     Node 5, Type 0, BuildingBlock: GALJAG_clean_sbu_0, # of connection points: 4
#     Node 6, Type 0, BuildingBlock: GALJAG_clean_sbu_0, # of connection points: 4
#     Node 7, Type 0, BuildingBlock: GALJAG_clean_sbu_0, # of connection points: 4
#     Edge 8, Type (0, 0), BuildingBlock: EZIPEK_clean_linker_0, # of connection points: 2
#     Edge 9, Type (0, 0), BuildingBlock: EZIPEK_clean_linker_0, # of connection points: 2
#     Edge 10, Type (0, 0), BuildingBlock: EZIPEK_clean_linker_0, # of connection points: 2
#     Edge 11, Type (0, 0), BuildingBlock: EZIPEK_clean_linker_0, # of connection points: 2
#     Edge 12, Type (0, 0), BuildingBlock: EZIPEK_clean_linker_0, # of connection points: 2
#     Edge 13, Type (0, 0), BuildingBlock: EZIPEK_clean_linker_0, # of connection points: 2
#     Edge 14, Type (0, 0), BuildingBlock: EZIPEK_clean_linker_0, # of connection points: 2
#     Edge 15, Type (0, 0), BuildingBlock: EZIPEK_clean_linker_0, # of connection points: 2
#     Edge 16, Type (0, 0), BuildingBlock: EZIPEK_clean_linker_0, # of connection points: 2
#     Edge 17, Type (0, 0), BuildingBlock: EZIPEK_clean_linker_0, # of connection points: 2
#     Edge 18, Type (0, 0), BuildingBlock: EZIPEK_clean_linker_0, # of connection points: 2
#     Edge 19, Type (0, 0), BuildingBlock: EZIPEK_clean_linker_0, # of connection points: 2
#     Edge 20, Type (0, 0), BuildingBlock: EZIPEK_clean_linker_0, # of connection points: 2
#     Edge 21, Type (0, 0), BuildingBlock: EZIPEK_clean_linker_0, # of connection points: 2
#     Edge 22, Type (0, 0), BuildingBlock: EZIPEK_clean_linker_0, # of connection points: 2
#     Edge 23, Type (0, 0), BuildingBlock: EZIPEK_clean_linker_0, # of connection points: 2
# Relax obj value: 0.230
# Max RMSD: 0.125
# Mean RMSD: 0.125
data_MOF--net-upa--node1-GALJAG_clean_sbu_0--edge1-EZIPEK_clean_linker_0
_symmetry_space_group_name_H-M    P1
_symmetry_Int_Tables_number       1
_symmetry_cell_setting            triclinic
loop_
_symmetry_equiv_pos_as_xyz
'x, y, z'
_cell_length_a     19.402177
_cell_length_b     19.393484
_cell_length_c     31.236849
_cell_angle_alpha  90.031578
_cell_angle_beta   90.108845
_cell_angle_gamma 90.242476
loop_
_atom_site_label
_atom_site_type_symbol
_atom_site_fract_x
_atom_site_fract_y
_atom_site_fract_z
_atom_type_partial_charge
In0 In 0.20589 0.21049 0.33294 0.0
O1 O 0.2004 0.26642 0.39762 0.0
O2 O 0.26725 0.18067 0.39221 0.0
C3 C 0.10764 0.27856 0.28871 0.0
C4 C 0.32929 0.21826 0.29307 0.0
C5 C 0.12054 0.10125 0.33892 0.0
O6 O 0.13416 0.30333 0.3225 0.0
O7 O 0.13714 0.2254 0.27461 0.0
O8 O 0.17306 0.10039 0.31502 0.0
O9 O 0.115 0.15428 0.36181 0.0
C10 C 0.24146 0.22583 0.41626 0.0
O11 O 0.30101 0.16174 0.30279 0.0
O12 O 0.29449 0.27146 0.3019 0.0
In13 In 0.29 0.70754 0.82352 0.0
O14 O 0.35449 0.80049 0.80231 0.0
O15 O 0.24566 0.808 0.79586 0.0
C16 C 0.39152 0.61538 0.82968 0.0
C17 C 0.26444 0.73682 0.90628 0.0
C18 C 0.2181 0.61649 0.77382 0.0
O19 O 0.39621 0.66712 0.80515 0.0
O20 O 0.33778 0.61249 0.85218 0.0
O21 O 0.20177 0.6303 0.81201 0.0
O22 O 0.26673 0.65377 0.76011 0.0
C23 C 0.30365 0.83736 0.79204 0.0
O24 O 0.21616 0.72999 0.87925 0.0
O25 O 0.32431 0.73085 0.89117 0.0
In26 In 0.80864 0.79871 0.32772 0.0
O27 O 0.71021 0.85495 0.30708 0.0
O28 O 0.71978 0.74961 0.28937 0.0
C29 C 0.8934 0.90764 0.33358 0.0
C30 C 0.7767 0.77082 0.40993 0.0
C31 C 0.91211 0.73292 0.2866 0.0
O32 O 0.84489 0.90584 0.30645 0.0
O33 O 0.89539 0.85741 0.35904 0.0
O34 O 0.88932 0.71228 0.32228 0.0
O35 O 0.87679 0.77981 0.26943 0.0
C36 C 0.6832 0.80338 0.28896 0.0
O37 O 0.78431 0.72329 0.38257 0.0
O38 O 0.78191 0.83109 0.39518 0.0
In39 In 0.70134 0.31353 0.82947 0.0
O40 O 0.6554 0.21368 0.80277 0.0
O41 O 0.7632 0.22936 0.79536 0.0
C42 C 0.58815 0.39286 0.83455 0.0
C43 C 0.72163 0.2798 0.91274 0.0
C44 C 0.76829 0.41364 0.78598 0.0
O45 O 0.59072 0.34097 0.81012 0.0
O46 O 0.63993 0.40073 0.85839 0.0
O47 O 0.79436 0.38547 0.81876 0.0
O48 O 0.71367 0.38555 0.77252 0.0
C49 C 0.71199 0.1896 0.78992 0.0
O50 O 0.75852 0.3239 0.89368 0.0
O51 O 0.67759 0.2505 0.88923 0.0
In52 In 0.70828 0.30863 0.1785 0.0
O53 O 0.81032 0.36142 0.19663 0.0
O54 O 0.7955 0.25795 0.21712 0.0
C55 C 0.6258 0.41882 0.17149 0.0
C56 C 0.73546 0.2751 0.09673 0.0
C57 C 0.60329 0.24677 0.22089 0.0
O58 O 0.6743 0.41712 0.19861 0.0
O59 O 0.62356 0.36829 0.14626 0.0
O60 O 0.62605 0.22361 0.18585 0.0
O61 O 0.63928 0.29443 0.23709 0.0
C62 C 0.83503 0.30985 0.21571 0.0
O63 O 0.7217 0.22966 0.12452 0.0
O64 O 0.73858 0.33603 0.11065 0.0
In65 In 0.22464 0.20531 0.68357 0.0
O66 O 0.16112 0.29962 0.70335 0.0
O67 O 0.26976 0.30589 0.71132 0.0
C68 C 0.12493 0.10933 0.67752 0.0
C69 C 0.25138 0.23157 0.6007 0.0
C70 C 0.29846 0.11697 0.73331 0.0
O71 O 0.12159 0.15786 0.70453 0.0
O72 O 0.17581 0.11173 0.65265 0.0
O73 O 0.31472 0.13141 0.6952 0.0
O74 O 0.24875 0.15244 0.74699 0.0
C75 C 0.2123 0.33603 0.71429 0.0
O76 O 0.29918 0.22 0.62736 0.0
O77 O 0.19135 0.23197 0.61609 0.0
In78 In 0.30838 0.71336 0.17182 0.0
O79 O 0.20998 0.65707 0.19324 0.0
O80 O 0.22086 0.76252 0.21068 0.0
C81 C 0.39499 0.60629 0.16724 0.0
C82 C 0.27401 0.73985 0.08965 0.0
C83 C 0.41152 0.78079 0.21295 0.0
O84 O 0.34369 0.60568 0.19224 0.0
O85 O 0.39848 0.65769 0.14273 0.0
O86 O 0.3885 0.80105 0.17722 0.0
O87 O 0.37635 0.73362 0.2302 0.0
C88 C 0.18378 0.7088 0.21138 0.0
O89 O 0.28164 0.78764 0.11687 0.0
O90 O 0.28119 0.67981 0.10438 0.0
In91 In 0.81134 0.81111 0.67538 0.0
O92 O 0.86294 0.71661 0.70532 0.0
O93 O 0.7532 0.71941 0.70456 0.0
C94 C 0.92768 0.88708 0.67308 0.0
C95 C 0.78102 0.77902 0.59316 0.0
C96 C 0.74918 0.91385 0.71976 0.0
O97 O 0.92668 0.82755 0.6896 0.0
O98 O 0.87178 0.90546 0.65619 0.0
O99 O 0.74365 0.90716 0.67975 0.0
O100 O 0.77838 0.86374 0.73807 0.0
C101 C 0.80705 0.68613 0.714 0.0
O102 O 0.73465 0.78803 0.62091 0.0
O103 O 0.84168 0.78391 0.60727 0.0
C104 C 0.03741 0.02736 0.2968 0.0
C105 C 0.06446 0.04915 0.33696 0.0
C106 C 0.96936 0.98995 0.37327 0.0
C107 C 0.94847 0.96053 0.33378 0.0
N108 N 0.9746 0.93857 0.25918 0.0
N109 N 0.06338 0.03894 0.41406 0.0
C110 C 0.98573 0.97557 0.29582 0.0
C111 C 0.03244 0.02696 0.37544 0.0
N112 N 0.05769 0.0583 0.25956 0.0
N113 N 0.92799 0.98435 0.40849 0.0
H114 H 0.11105 0.06333 0.4169 0.0
H115 H 0.04548 0.01805 0.44271 0.0
H116 H 0.88007 0.95976 0.40774 0.0
H117 H 0.93777 0.01044 0.43705 0.0
H118 H 0.03363 0.04863 0.23028 0.0
H119 H 0.09275 0.09893 0.25821 0.0
H120 H 1.00618 0.94293 0.23234 0.0
H121 H 0.93882 0.89866 0.25681 0.0
C122 C 0.45911 0.52398 0.79191 0.0
C123 C 0.44234 0.55905 0.83031 0.0
C124 C 0.50816 0.47459 0.87134 0.0
C125 C 0.53321 0.44571 0.83261 0.0
N126 N 0.54363 0.45518 0.75536 0.0
N127 N 0.46085 0.57528 0.90608 0.0
C128 C 0.51165 0.47343 0.79261 0.0
C129 C 0.46964 0.53649 0.86995 0.0
N130 N 0.42327 0.53663 0.75504 0.0
N131 N 0.51906 0.44167 0.90937 0.0
H132 H 0.43456 0.62209 0.90614 0.0
H133 H 0.48559 0.5646 0.93494 0.0
H134 H 0.5442 0.39449 0.91135 0.0
H135 H 0.49651 0.45707 0.93805 0.0
H136 H 0.42874 0.50674 0.72751 0.0
H137 H 0.38308 0.57196 0.75312 0.0
H138 H 0.53418 0.47998 0.72635 0.0
H139 H 0.58456 0.42087 0.75376 0.0
C140 C 0.54521 0.49628 0.13186 0.0
C141 C 0.57013 0.47089 0.17154 0.0
C142 C 0.48278 0.53854 0.20905 0.0
C143 C 0.45187 0.55569 0.16921 0.0
N144 N 0.44622 0.53814 0.09273 0.0
N145 N 0.54969 0.45464 0.24753 0.0
C146 C 0.48096 0.53087 0.13055 0.0
C147 C 0.53551 0.48826 0.21012 0.0
N148 N 0.58381 0.48927 0.09557 0.0
N149 N 0.46485 0.57227 0.24578 0.0
H150 H 0.58581 0.41546 0.25024 0.0
H151 H 0.52002 0.46078 0.27505 0.0
H152 H 0.42864 0.6116 0.24689 0.0
H153 H 0.49168 0.5662 0.27449 0.0
H154 H 0.57072 0.51234 0.06657 0.0
H155 H 0.63268 0.46703 0.0956 0.0
H156 H 0.46233 0.51531 0.06427 0.0
H157 H 0.39747 0.56041 0.09073 0.0
C158 C 0.04097 0.03423 0.63834 0.0
C159 C 0.07657 0.05027 0.67672 0.0
C160 C 0.02231 0.95147 0.71254 0.0
C161 C 0.98786 0.93454 0.67365 0.0
N162 N 0.98146 0.94671 0.59697 0.0
N163 N 0.11606 0.01374 0.74646 0.0
C164 C 1.00261 0.97197 0.63572 0.0
C165 C 0.07168 1.00586 0.71273 0.0
N166 N 0.04159 0.0797 0.60489 0.0
N167 N 1.00614 0.91825 0.74979 0.0
H168 H 0.15304 0.05273 0.74795 0.0
H169 H 0.12062 0.97787 0.77111 0.0
H170 H 0.97259 0.87643 0.75158 0.0
H171 H 0.02264 0.93529 0.77975 0.0
H172 H 0.01067 0.07398 0.57781 0.0
H173 H 0.0682 0.12654 0.6058 0.0
H174 H 0.99598 0.96835 0.56781 0.0
H175 H 0.95585 0.89952 0.59382 0.0
C176 C 0.26283 0.29146 0.48477 0.0
C177 C 0.2537 0.22732 0.4634 0.0
C178 C 0.26489 0.16739 0.53234 0.0
C179 C 0.26214 0.23154 0.55385 0.0
N180 N 0.25237 0.35515 0.55128 0.0
N181 N 0.23368 0.10385 0.46891 0.0
C182 C 0.25949 0.29384 0.53028 0.0
C183 C 0.25237 0.16495 0.48759 0.0
N184 N 0.27727 0.34966 0.46177 0.0
N185 N 0.27816 0.10834 0.55475 0.0
H186 H 0.22054 0.09857 0.43684 0.0
H187 H 0.22387 0.05907 0.48631 0.0
H188 H 0.28568 0.10754 0.58781 0.0
H189 H 0.28827 0.06124 0.54003 0.0
H190 H 0.29038 0.39659 0.47589 0.0
H191 H 0.28357 0.34932 0.42862 0.0
H192 H 0.24213 0.40152 0.53574 0.0
H193 H 0.25226 0.35871 0.58458 0.0
C194 C 0.21225 0.70245 0.97723 0.0
C195 C 0.25371 0.74826 0.9528 0.0
C196 C 0.30349 0.79594 0.01877 0.0
C197 C 0.26061 0.75144 0.0433 0.0
N198 N 0.15972 0.67862 0.04589 0.0
N199 N 0.32199 0.85225 0.95051 0.0
C200 C 0.21013 0.71014 0.02245 0.0
C201 C 0.29363 0.79966 0.97374 0.0
N202 N 0.17874 0.64852 0.95802 0.0
N203 N 0.35697 0.83076 0.03756 0.0
H204 H 0.3147 0.85703 0.91754 0.0
H205 H 0.34619 0.89472 0.96452 0.0
H206 H 0.3682 0.82839 0.07011 0.0
H207 H 0.39429 0.8573 0.02009 0.0
H208 H 0.1548 0.60914 0.9752 0.0
H209 H 0.17964 0.63937 0.92519 0.0
H210 H 0.11781 0.65313 0.03211 0.0
H211 H 0.15588 0.68455 0.07896 0.0
C212 C 0.80537 0.71421 0.52572 0.0
C213 C 0.7671 0.76602 0.54704 0.0
C214 C 0.7169 0.79993 0.47823 0.0
C215 C 0.76624 0.75908 0.45652 0.0
N216 N 0.86387 0.68176 0.46066 0.0
N217 N 0.69094 0.86445 0.54228 0.0
C218 C 0.81159 0.71637 0.48041 0.0
C219 C 0.72305 0.80997 0.52313 0.0
N220 N 0.83537 0.66254 0.5488 0.0
N221 N 0.66391 0.82899 0.45587 0.0
H222 H 0.69525 0.87585 0.57473 0.0
H223 H 0.66488 0.90231 0.52509 0.0
H224 H 0.65714 0.821 0.42311 0.0
H225 H 0.62291 0.85421 0.47053 0.0
H226 H 0.85873 0.61997 0.53463 0.0
H227 H 0.82996 0.65843 0.58193 0.0
H228 H 0.90286 0.65674 0.47749 0.0
H229 H 0.87233 0.68274 0.42778 0.0
C230 C 0.79053 0.26048 0.98018 0.0
C231 C 0.7254 0.26807 0.95983 0.0
C232 C 0.66844 0.25752 0.02973 0.0
C233 C 0.73351 0.26149 0.05018 0.0
N234 N 0.857 0.2703 0.0459 0.0
N235 N 0.60196 0.28458 0.96679 0.0
C236 C 0.79482 0.26378 0.02568 0.0
C237 C 0.66406 0.26838 0.98489 0.0
N238 N 0.84784 0.24765 0.95613 0.0
N239 N 0.61035 0.24477 0.05323 0.0
H240 H 0.59518 0.29528 0.9345 0.0
H241 H 0.5577 0.29432 0.98458 0.0
H242 H 0.61069 0.23906 0.0864 0.0
H243 H 0.56269 0.23345 0.03944 0.0
H244 H 0.89563 0.23559 0.9693 0.0
H245 H 0.8461 0.24205 0.92293 0.0
H246 H 0.90292 0.28058 0.02987 0.0
H247 H 0.86193 0.26902 0.07917 0.0
C248 C 0.47365 0.24646 0.2123 0.0
C249 C 0.53295 0.23053 0.23748 0.0
C250 C 0.45824 0.20863 0.2996 0.0
C251 C 0.39925 0.22155 0.27385 0.0
N252 N 0.34933 0.23969 0.20422 0.0
N253 N 0.58113 0.18487 0.30249 0.0
C254 C 0.40659 0.23654 0.22976 0.0
C255 C 0.52497 0.20819 0.28043 0.0
N256 N 0.48094 0.27483 0.17251 0.0
N257 N 0.45066 0.19926 0.34272 0.0
H258 H 0.63035 0.18329 0.28911 0.0
H259 H 0.57824 0.16143 0.3324 0.0
H260 H 0.40273 0.19863 0.35779 0.0
H261 H 0.4918 0.19724 0.3641 0.0
H262 H 0.44036 0.29677 0.15551 0.0
H263 H 0.52808 0.28104 0.15727 0.0
H264 H 0.35146 0.24212 0.17095 0.0
H265 H 0.29932 0.23407 0.216 0.0
C266 C 0.28341 0.96347 0.80693 0.0
C267 C 0.31165 0.91143 0.78012 0.0
C268 C 0.35935 1.00132 0.733 0.0
C269 C 0.32094 0.05178 0.75544 0.0
N270 N 0.27748 0.08557 0.82416 0.0
N271 N 0.37507 0.88009 0.71669 0.0
C272 C 0.29196 0.03424 0.79564 0.0
C273 C 0.35031 0.9302 0.74327 0.0
N274 N 0.24748 0.94533 0.84285 0.0
N275 N 0.40776 0.02178 0.70394 0.0
H276 H 0.36905 0.82755 0.72279 0.0
H277 H 0.39656 0.89039 0.68684 0.0
H278 H 0.42112 0.07351 0.69987 0.0
H279 H 0.44123 0.98801 0.68864 0.0
H280 H 0.21796 0.97976 0.86053 0.0
H281 H 0.24414 0.89482 0.85406 0.0
H282 H 0.26092 0.07704 0.85538 0.0
H283 H 0.29085 0.13687 0.81826 0.0
C284 C 0.55405 0.81818 0.29339 0.0
C285 C 0.6139 0.80588 0.26839 0.0
C286 C 0.54142 0.7852 0.20513 0.0
C287 C 0.48128 0.79948 0.2298 0.0
N288 N 0.43156 0.84398 0.29456 0.0
N289 N 0.6657 0.79457 0.1988 0.0
C290 C 0.48814 0.82055 0.27309 0.0
C291 C 0.60785 0.79456 0.22375 0.0
N292 N 0.55974 0.82416 0.33685 0.0
N293 N 0.5357 0.75866 0.16472 0.0
H294 H 0.71522 0.8014 0.21123 0.0
H295 H 0.66425 0.79448 0.16546 0.0
H296 H 0.48926 0.75305 0.1485 0.0
H297 H 0.57711 0.73769 0.14808 0.0
H298 H 0.51759 0.82532 0.3574 0.0
H299 H 0.60688 0.82255 0.35284 0.0
H300 H 0.43385 0.86641 0.32482 0.0
H301 H 0.38298 0.84707 0.28029 0.0
C302 C 0.67144 0.09045 0.74292 0.0
C303 C 0.71867 0.11757 0.77356 0.0
C304 C 0.7865 0.0117 0.76854 0.0
C305 C 0.73567 0.98134 0.74137 0.0
N306 N 0.62164 0.98772 0.7108 0.0
N307 N 0.80811 0.0933 0.82537 0.0
C308 C 0.67554 0.0195 0.73107 0.0
C309 C 0.77217 0.07497 0.78941 0.0
N310 N 0.62484 0.13282 0.72346 0.0
N311 N 0.85056 0.98342 0.77241 0.0
H312 H 0.79693 0.13713 0.84337 0.0
H313 H 0.84331 0.0605 0.84016 0.0
H314 H 0.86632 0.94014 0.75556 0.0
H315 H 0.8909 0.0081 0.78844 0.0
H316 H 0.59385 0.11705 0.69797 0.0
H317 H 0.62201 0.18553 0.72968 0.0
H318 H 0.57407 0.01128 0.70609 0.0
H319 H 0.62205 0.93546 0.70287 0.0
C320 C 0.0315 0.31548 0.22777 0.0
C321 C 0.03875 0.29937 0.27184 0.0
C322 C 0.91254 0.30345 0.27999 0.0
C323 C 0.90524 0.31019 0.23508 0.0
N324 N 0.95717 0.3172 0.16513 0.0
N325 N 0.98479 0.26903 0.33922 0.0
C326 C 0.9646 0.31551 0.20865 0.0
C327 C 0.97897 0.29176 0.29795 0.0
N328 N 0.08877 0.3318 0.2044 0.0
N329 N 0.85598 0.30983 0.30574 0.0
H330 H 0.03163 0.26076 0.35455 0.0
H331 H 0.94275 0.25332 0.35752 0.0
H332 H 0.80649 0.31831 0.29376 0.0
H333 H 0.85895 0.31328 0.33897 0.0
H334 H 0.08691 0.35047 0.17318 0.0
H335 H 0.13815 0.33272 0.21771 0.0
H336 H 0.99821 0.3131 0.14388 0.0
H337 H 0.90925 0.31754 0.14997 0.0
C338 C 0.23647 0.46226 0.70088 0.0
C339 C 0.20541 0.41016 0.72659 0.0
C340 C 0.15692 0.50019 0.77323 0.0
C341 C 0.19681 0.5507 0.75152 0.0
N342 N 0.24321 0.58407 0.68336 0.0
N343 N 0.13835 0.37887 0.78863 0.0
C344 C 0.22758 0.53301 0.7119 0.0
C345 C 0.16521 0.42902 0.76275 0.0
N346 N 0.27554 0.44429 0.66629 0.0
N347 N 0.10773 0.5207 0.80166 0.0
H348 H 0.14388 0.32634 0.78245 0.0
H349 H 0.1156 0.389 0.81811 0.0
H350 H 0.09507 0.57247 0.80585 0.0
H351 H 0.07308 0.48706 0.81627 0.0
H352 H 0.30684 0.47893 0.6498 0.0
H353 H 0.28015 0.39375 0.65543 0.0
H354 H 0.26083 0.57507 0.65242 0.0
H355 H 0.22926 0.63528 0.68863 0.0
C356 C 0.10831 0.71909 0.27628 0.0
C357 C 0.11439 0.7069 0.23176 0.0
C358 C 0.98841 0.69316 0.22662 0.0
C359 C 0.98174 0.7148 0.26978 0.0
N360 N 0.03641 0.75749 0.33453 0.0
N361 N 0.06007 0.68887 0.16314 0.0
C362 C 0.04195 0.72947 0.29452 0.0
C363 C 0.0544 0.69495 0.20657 0.0
N364 N 0.16603 0.71912 0.30148 0.0
N365 N 0.93161 0.66978 0.20503 0.0
H366 H 0.10726 0.6903 0.14734 0.0
H367 H 0.01794 0.68801 0.14246 0.0
H368 H 0.88289 0.66718 0.21907 0.0
H369 H 0.93377 0.64693 0.17489 0.0
H370 H 0.16436 0.71993 0.33481 0.0
H371 H 0.21548 0.71159 0.28931 0.0
H372 H 0.07817 0.77815 0.35124 0.0
H373 H 0.98981 0.76513 0.35011 0.0
C374 C 0.8143 0.49021 0.72741 0.0
C375 C 0.78981 0.48283 0.76994 0.0
C376 C 0.77936 0.60906 0.77634 0.0
C377 C 0.80464 0.61644 0.734 0.0
N378 N 0.85573 0.56611 0.67103 0.0
N379 N 0.75872 0.5349 0.83753 0.0
C380 C 0.82549 0.55757 0.7102 0.0
C381 C 0.77572 0.54223 0.79527 0.0
N382 N 0.82504 0.43256 0.70313 0.0
N383 N 0.75729 0.66604 0.79816 0.0
H384 H 0.75225 0.4874 0.85248 0.0
H385 H 0.75566 0.57579 0.85899 0.0
H386 H 0.76355 0.7162 0.78673 0.0
H387 H 0.72951 0.66399 0.82659 0.0
H388 H 0.83466 0.4335 0.67039 0.0
H389 H 0.82129 0.38275 0.71557 0.0
H390 H 0.87889 0.52645 0.65393 0.0
H391 H 0.86155 0.61407 0.6564 0.0
loop_
_geom_bond_atom_site_label_1
_geom_bond_atom_site_label_2
_geom_bond_distance
_geom_bond_site_symmetry_2
_ccdc_geom_bond_type
In0 O1 2.294 . S
In0 O2 2.326 . S
In0 O6 2.266 . S
In0 O7 2.326 . S
In0 O8 2.266 . S
In0 O9 2.326 . S
In0 O11 2.294 . S
In0 O12 2.326 . S
O1 In0 2.294 . S
O1 C10 1.240 . S
O2 In0 2.326 . S
O2 C10 1.252 . S
C3 O6 1.252 . S
C3 O7 1.260 . S
C4 O11 1.240 . S
C4 O12 1.252 . S
C5 O8 1.252 . S
C5 O9 1.260 . S
O6 In0 2.266 . S
O6 C3 1.252 . S
O7 In0 2.326 . S
O7 C3 1.260 . S
O8 In0 2.266 . S
O8 C5 1.252 . S
O9 In0 2.326 . S
O9 C5 1.260 . S
C10 O1 1.240 . S
C10 O2 1.252 . S
O11 In0 2.294 . S
O11 C4 1.240 . S
O12 In0 2.326 . S
O12 C4 1.252 . S
In13 O14 2.294 . S
In13 O15 2.326 . S
In13 O19 2.266 . S
In13 O20 2.326 . S
In13 O21 2.266 . S
In13 O22 2.326 . S
In13 O24 2.294 . S
In13 O25 2.326 . S
O14 In13 2.294 . S
O14 C23 1.240 . S
O15 In13 2.326 . S
O15 C23 1.252 . S
C16 O19 1.252 . S
C16 O20 1.260 . S
C17 O24 1.240 . S
C17 O25 1.252 . S
C18 O21 1.252 . S
C18 O22 1.260 . S
O19 In13 2.266 . S
O19 C16 1.252 . S
O20 In13 2.326 . S
O20 C16 1.260 . S
O21 In13 2.266 . S
O21 C18 1.252 . S
O22 In13 2.326 . S
O22 C18 1.260 . S
C23 O14 1.240 . S
C23 O15 1.252 . S
O24 In13 2.294 . S
O24 C17 1.240 . S
O25 In13 2.326 . S
O25 C17 1.252 . S
In26 O27 2.294 . S
In26 O28 2.326 . S
In26 O32 2.266 . S
In26 O33 2.326 . S
In26 O34 2.266 . S
In26 O35 2.326 . S
In26 O37 2.294 . S
In26 O38 2.326 . S
O27 In26 2.294 . S
O27 C36 1.240 . S
O28 In26 2.326 . S
O28 C36 1.252 . S
C29 O32 1.252 . S
C29 O33 1.260 . S
C30 O37 1.240 . S
C30 O38 1.252 . S
C31 O34 1.252 . S
C31 O35 1.260 . S
O32 In26 2.266 . S
O32 C29 1.252 . S
O33 In26 2.326 . S
O33 C29 1.260 . S
O34 In26 2.266 . S
O34 C31 1.252 . S
O35 In26 2.326 . S
O35 C31 1.260 . S
C36 O27 1.240 . S
C36 O28 1.252 . S
O37 In26 2.294 . S
O37 C30 1.240 . S
O38 In26 2.326 . S
O38 C30 1.252 . S
In39 O40 2.294 . S
In39 O41 2.326 . S
In39 O45 2.266 . S
In39 O46 2.326 . S
In39 O47 2.266 . S
In39 O48 2.326 . S
In39 O50 2.294 . S
In39 O51 2.326 . S
O40 In39 2.294 . S
O40 C49 1.240 . S
O41 In39 2.326 . S
O41 C49 1.252 . S
C42 O45 1.252 . S
C42 O46 1.260 . S
C43 O50 1.240 . S
C43 O51 1.252 . S
C44 O47 1.252 . S
C44 O48 1.260 . S
O45 In39 2.266 . S
O45 C42 1.252 . S
O46 In39 2.326 . S
O46 C42 1.260 . S
O47 In39 2.266 . S
O47 C44 1.252 . S
O48 In39 2.326 . S
O48 C44 1.260 . S
C49 O40 1.240 . S
C49 O41 1.252 . S
O50 In39 2.294 . S
O50 C43 1.240 . S
O51 In39 2.326 . S
O51 C43 1.252 . S
In52 O53 2.294 . S
In52 O54 2.326 . S
In52 O58 2.266 . S
In52 O59 2.326 . S
In52 O60 2.266 . S
In52 O61 2.326 . S
In52 O63 2.294 . S
In52 O64 2.326 . S
O53 In52 2.294 . S
O53 C62 1.240 . S
O54 In52 2.326 . S
O54 C62 1.252 . S
C55 O58 1.252 . S
C55 O59 1.260 . S
C56 O63 1.240 . S
C56 O64 1.252 . S
C57 O60 1.252 . S
C57 O61 1.260 . S
O58 In52 2.266 . S
O58 C55 1.252 . S
O59 In52 2.326 . S
O59 C55 1.260 . S
O60 In52 2.266 . S
O60 C57 1.252 . S
O61 In52 2.326 . S
O61 C57 1.260 . S
C62 O53 1.240 . S
C62 O54 1.252 . S
O63 In52 2.294 . S
O63 C56 1.240 . S
O64 In52 2.326 . S
O64 C56 1.252 . S
In65 O66 2.294 . S
In65 O67 2.326 . S
In65 O71 2.266 . S
In65 O72 2.326 . S
In65 O73 2.266 . S
In65 O74 2.326 . S
In65 O76 2.294 . S
In65 O77 2.326 . S
O66 In65 2.294 . S
O66 C75 1.240 . S
O67 In65 2.326 . S
O67 C75 1.252 . S
C68 O71 1.252 . S
C68 O72 1.260 . S
C69 O76 1.240 . S
C69 O77 1.252 . S
C70 O73 1.252 . S
C70 O74 1.260 . S
O71 In65 2.266 . S
O71 C68 1.252 . S
O72 In65 2.326 . S
O72 C68 1.260 . S
O73 In65 2.266 . S
O73 C70 1.252 . S
O74 In65 2.326 . S
O74 C70 1.260 . S
C75 O66 1.240 . S
C75 O67 1.252 . S
O76 In65 2.294 . S
O76 C69 1.240 . S
O77 In65 2.326 . S
O77 C69 1.252 . S
In78 O79 2.294 . S
In78 O80 2.326 . S
In78 O84 2.266 . S
In78 O85 2.326 . S
In78 O86 2.266 . S
In78 O87 2.326 . S
In78 O89 2.294 . S
In78 O90 2.326 . S
O79 In78 2.294 . S
O79 C88 1.240 . S
O80 In78 2.326 . S
O80 C88 1.252 . S
C81 O84 1.252 . S
C81 O85 1.260 . S
C82 O89 1.240 . S
C82 O90 1.252 . S
C83 O86 1.252 . S
C83 O87 1.260 . S
O84 In78 2.266 . S
O84 C81 1.252 . S
O85 In78 2.326 . S
O85 C81 1.260 . S
O86 In78 2.266 . S
O86 C83 1.252 . S
O87 In78 2.326 . S
O87 C83 1.260 . S
C88 O79 1.240 . S
C88 O80 1.252 . S
O89 In78 2.294 . S
O89 C82 1.240 . S
O90 In78 2.326 . S
O90 C82 1.252 . S
In91 O92 2.294 . S
In91 O93 2.326 . S
In91 O97 2.266 . S
In91 O98 2.326 . S
In91 O99 2.266 . S
In91 O100 2.326 . S
In91 O102 2.294 . S
In91 O103 2.326 . S
O92 In91 2.294 . S
O92 C101 1.240 . S
O93 In91 2.326 . S
O93 C101 1.252 . S
C94 O97 1.252 . S
C94 O98 1.260 . S
C95 O102 1.240 . S
C95 O103 1.252 . S
C96 O99 1.252 . S
C96 O100 1.260 . S
O97 In91 2.266 . S
O97 C94 1.252 . S
O98 In91 2.326 . S
O98 C94 1.260 . S
O99 In91 2.266 . S
O99 C96 1.252 . S
O100 In91 2.326 . S
O100 C96 1.260 . S
C101 O92 1.240 . S
C101 O93 1.252 . S
O102 In91 2.294 . S
O102 C95 1.240 . S
O103 In91 2.326 . S
O103 C95 1.252 . S
C104 C105 1.363 1_655 S
C104 C110 1.379 1_545 S
C104 N112 1.356 . S
C105 C104 1.363 1_455 S
C105 C111 1.363 . S
C106 C107 1.363 1_455 S
C106 C111 1.379 1_565 S
C106 N113 1.356 . S
C107 C106 1.363 1_655 S
C107 C110 1.363 . S
N108 C110 1.356 . S
N108 H120 0.984 . S
N108 H121 0.985 . S
N109 C111 1.356 . S
N109 H114 0.984 . S
N109 H115 0.985 . S
C110 C104 1.379 1_565 S
C110 C107 1.363 . S
C110 N108 1.356 . S
C111 C105 1.363 . S
C111 C106 1.379 1_545 S
C111 N109 1.356 . S
N112 C104 1.356 . S
N112 H118 0.984 . S
N112 H119 0.984 1_655 S
N113 C106 1.356 . S
N113 H116 0.984 1_455 S
N113 H117 0.985 . S
H114 N109 0.984 . S
H115 N109 0.985 . S
H116 N113 0.984 1_655 S
H117 N113 0.985 . S
H118 N112 0.984 . S
H119 N112 0.984 1_455 S
H120 N108 0.984 . S
H121 N108 0.985 . S
C122 C123 1.363 . S
C122 C128 1.379 . S
C122 N130 1.356 . S
C123 C122 1.363 . S
C123 C129 1.363 . S
C124 C125 1.363 . S
C124 C129 1.379 . S
C124 N131 1.356 . S
C125 C124 1.363 . S
C125 C128 1.363 . S
N126 C128 1.356 . S
N126 H138 0.984 . S
N126 H139 0.985 . S
N127 C129 1.356 . S
N127 H132 0.984 . S
N127 H133 0.985 . S
C128 C122 1.379 . S
C128 C125 1.363 . S
C128 N126 1.356 . S
C129 C123 1.363 . S
C129 C124 1.379 . S
C129 N127 1.356 . S
N130 C122 1.356 . S
N130 H136 0.984 . S
N130 H137 0.984 . S
N131 C124 1.356 . S
N131 H134 0.984 . S
N131 H135 0.985 . S
H132 N127 0.984 . S
H133 N127 0.985 . S
H134 N131 0.984 . S
H135 N131 0.985 . S
H136 N130 0.984 . S
H137 N130 0.984 . S
H138 N126 0.984 . S
H139 N126 0.985 . S
C140 C141 1.363 . S
C140 C146 1.379 . S
C140 N148 1.356 . S
C141 C140 1.363 . S
C141 C147 1.363 . S
C142 C143 1.363 . S
C142 C147 1.379 . S
C142 N149 1.356 . S
C143 C142 1.363 . S
C143 C146 1.363 . S
N144 C146 1.356 . S
N144 H156 0.984 . S
N144 H157 0.985 . S
N145 C147 1.356 . S
N145 H150 0.984 . S
N145 H151 0.985 . S
C146 C140 1.379 . S
C146 C143 1.363 . S
C146 N144 1.356 . S
C147 C141 1.363 . S
C147 C142 1.379 . S
C147 N145 1.356 . S
N148 C140 1.356 . S
N148 H154 0.984 . S
N148 H155 0.984 . S
N149 C142 1.356 . S
N149 H152 0.984 . S
N149 H153 0.985 . S
H150 N145 0.984 . S
H151 N145 0.985 . S
H152 N149 0.984 . S
H153 N149 0.985 . S
H154 N148 0.984 . S
H155 N148 0.984 . S
H156 N144 0.984 . S
H157 N144 0.985 . S
C158 C159 1.363 . S
C158 C164 1.379 1_455 S
C158 N166 1.356 . S
C159 C158 1.363 . S
C159 C165 1.363 1_545 S
C160 C161 1.363 . S
C160 C165 1.379 1_655 S
C160 N167 1.356 . S
C161 C160 1.363 . S
C161 C164 1.363 1_565 S
N162 C164 1.356 . S
N162 H174 0.984 . S
N162 H175 0.985 1_545 S
N163 C165 1.356 . S
N163 H168 0.984 1_565 S
N163 H169 0.985 . S
C164 C158 1.379 1_655 S
C164 C161 1.363 1_545 S
C164 N162 1.356 . S
C165 C159 1.363 1_565 S
C165 C160 1.379 1_455 S
C165 N163 1.356 . S
N166 C158 1.356 . S
N166 H172 0.984 . S
N166 H173 0.984 . S
N167 C160 1.356 . S
N167 H170 0.984 . S
N167 H171 0.985 . S
H168 N163 0.984 1_545 S
H169 N163 0.985 . S
H170 N167 0.984 . S
H171 N167 0.985 . S
H172 N166 0.984 . S
H173 N166 0.984 . S
H174 N162 0.984 . S
H175 N162 0.985 1_565 S
C176 C177 1.363 . S
C176 C182 1.379 . S
C176 N184 1.356 . S
C177 C176 1.363 . S
C177 C183 1.363 . S
C178 C179 1.363 . S
C178 C183 1.379 . S
C178 N185 1.356 . S
C179 C178 1.363 . S
C179 C182 1.363 . S
N180 C182 1.356 . S
N180 H192 0.984 . S
N180 H193 0.985 . S
N181 C183 1.356 . S
N181 H186 0.984 . S
N181 H187 0.985 . S
C182 C176 1.379 . S
C182 C179 1.363 . S
C182 N180 1.356 . S
C183 C177 1.363 . S
C183 C178 1.379 . S
C183 N181 1.356 . S
N184 C176 1.356 . S
N184 H190 0.984 . S
N184 H191 0.984 . S
N185 C178 1.356 . S
N185 H188 0.984 . S
N185 H189 0.985 . S
H186 N181 0.984 . S
H187 N181 0.985 . S
H188 N185 0.984 . S
H189 N185 0.985 . S
H190 N184 0.984 . S
H191 N184 0.984 . S
H192 N180 0.984 . S
H193 N180 0.985 . S
C194 C195 1.363 . S
C194 C200 1.379 1_556 S
C194 N202 1.356 . S
C195 C194 1.363 . S
C195 C201 1.363 . S
C196 C197 1.363 . S
C196 C201 1.379 1_554 S
C196 N203 1.356 . S
C197 C196 1.363 . S
C197 C200 1.363 . S
N198 C200 1.356 . S
N198 H210 0.984 . S
N198 H211 0.985 . S
N199 C201 1.356 . S
N199 H204 0.984 . S
N199 H205 0.985 . S
C200 C194 1.379 1_554 S
C200 C197 1.363 . S
C200 N198 1.356 . S
C201 C195 1.363 . S
C201 C196 1.379 1_556 S
C201 N199 1.356 . S
N202 C194 1.356 . S
N202 H208 0.984 . S
N202 H209 0.984 . S
N203 C196 1.356 . S
N203 H206 0.984 . S
N203 H207 0.985 . S
H204 N199 0.984 . S
H205 N199 0.985 . S
H206 N203 0.984 . S
H207 N203 0.985 . S
H208 N202 0.984 . S
H209 N202 0.984 . S
H210 N198 0.984 . S
H211 N198 0.985 . S
C212 C213 1.363 . S
C212 C218 1.379 . S
C212 N220 1.356 . S
C213 C212 1.363 . S
C213 C219 1.363 . S
C214 C215 1.363 . S
C214 C219 1.379 . S
C214 N221 1.356 . S
C215 C214 1.363 . S
C215 C218 1.363 . S
N216 C218 1.356 . S
N216 H228 0.984 . S
N216 H229 0.985 . S
N217 C219 1.356 . S
N217 H222 0.984 . S
N217 H223 0.985 . S
C218 C212 1.379 . S
C218 C215 1.363 . S
C218 N216 1.356 . S
C219 C213 1.363 . S
C219 C214 1.379 . S
C219 N217 1.356 . S
N220 C212 1.356 . S
N220 H226 0.984 . S
N220 H227 0.984 . S
N221 C214 1.356 . S
N221 H224 0.984 . S
N221 H225 0.985 . S
H222 N217 0.984 . S
H223 N217 0.985 . S
H224 N221 0.984 . S
H225 N221 0.985 . S
H226 N220 0.984 . S
H227 N220 0.984 . S
H228 N216 0.984 . S
H229 N216 0.985 . S
C230 C231 1.363 . S
C230 C236 1.379 1_556 S
C230 N238 1.356 . S
C231 C230 1.363 . S
C231 C237 1.363 . S
C232 C233 1.363 . S
C232 C237 1.379 1_554 S
C232 N239 1.356 . S
C233 C232 1.363 . S
C233 C236 1.363 . S
N234 C236 1.356 . S
N234 H246 0.984 . S
N234 H247 0.985 . S
N235 C237 1.356 . S
N235 H240 0.984 . S
N235 H241 0.985 . S
C236 C230 1.379 1_554 S
C236 C233 1.363 . S
C236 N234 1.356 . S
C237 C231 1.363 . S
C237 C232 1.379 1_556 S
C237 N235 1.356 . S
N238 C230 1.356 . S
N238 H244 0.984 . S
N238 H245 0.984 . S
N239 C232 1.356 . S
N239 H242 0.984 . S
N239 H243 0.985 . S
H240 N235 0.984 . S
H241 N235 0.985 . S
H242 N239 0.984 . S
H243 N239 0.985 . S
H244 N238 0.984 . S
H245 N238 0.984 . S
H246 N234 0.984 . S
H247 N234 0.985 . S
C248 C249 1.363 . S
C248 C254 1.379 . S
C248 N256 1.356 . S
C249 C248 1.363 . S
C249 C255 1.363 . S
C250 C251 1.363 . S
C250 C255 1.379 . S
C250 N257 1.356 . S
C251 C250 1.363 . S
C251 C254 1.363 . S
N252 C254 1.356 . S
N252 H264 0.984 . S
N252 H265 0.985 . S
N253 C255 1.356 . S
N253 H258 0.984 . S
N253 H259 0.985 . S
C254 C248 1.379 . S
C254 C251 1.363 . S
C254 N252 1.356 . S
C255 C249 1.363 . S
C255 C250 1.379 . S
C255 N253 1.356 . S
N256 C248 1.356 . S
N256 H262 0.984 . S
N256 H263 0.984 . S
N257 C250 1.356 . S
N257 H260 0.984 . S
N257 H261 0.985 . S
H258 N253 0.984 . S
H259 N253 0.985 . S
H260 N257 0.984 . S
H261 N257 0.985 . S
H262 N256 0.984 . S
H263 N256 0.984 . S
H264 N252 0.984 . S
H265 N252 0.985 . S
C266 C267 1.363 . S
C266 C272 1.379 . S
C266 N274 1.356 . S
C267 C266 1.363 . S
C267 C273 1.363 . S
C268 C269 1.363 . S
C268 C273 1.379 . S
C268 N275 1.356 . S
C269 C268 1.363 . S
C269 C272 1.363 . S
N270 C272 1.356 1_545 S
N270 H282 0.984 . S
N270 H283 0.985 . S
N271 C273 1.356 . S
N271 H276 0.984 . S
N271 H277 0.985 . S
C272 C266 1.379 . S
C272 C269 1.363 . S
C272 N270 1.356 1_565 S
C273 C267 1.363 . S
C273 C268 1.379 . S
C273 N271 1.356 . S
N274 C266 1.356 . S
N274 H280 0.984 . S
N274 H281 0.984 . S
N275 C268 1.356 . S
N275 H278 0.984 . S
N275 H279 0.985 . S
H276 N271 0.984 . S
H277 N271 0.985 . S
H278 N275 0.984 . S
H279 N275 0.985 . S
H280 N274 0.984 . S
H281 N274 0.984 . S
H282 N270 0.984 . S
H283 N270 0.985 . S
C284 C285 1.363 . S
C284 C290 1.379 . S
C284 N292 1.356 . S
C285 C284 1.363 . S
C285 C291 1.363 . S
C286 C287 1.363 . S
C286 C291 1.379 . S
C286 N293 1.356 . S
C287 C286 1.363 . S
C287 C290 1.363 . S
N288 C290 1.356 . S
N288 H300 0.984 . S
N288 H301 0.985 . S
N289 C291 1.356 . S
N289 H294 0.984 . S
N289 H295 0.985 . S
C290 C284 1.379 . S
C290 C287 1.363 . S
C290 N288 1.356 . S
C291 C285 1.363 . S
C291 C286 1.379 . S
C291 N289 1.356 . S
N292 C284 1.356 . S
N292 H298 0.984 . S
N292 H299 0.984 . S
N293 C286 1.356 . S
N293 H296 0.984 . S
N293 H297 0.985 . S
H294 N289 0.984 . S
H295 N289 0.985 . S
H296 N293 0.984 . S
H297 N293 0.985 . S
H298 N292 0.984 . S
H299 N292 0.984 . S
H300 N288 0.984 . S
H301 N288 0.985 . S
C302 C303 1.363 . S
C302 C308 1.379 . S
C302 N310 1.356 . S
C303 C302 1.363 . S
C303 C309 1.363 . S
C304 C305 1.363 . S
C304 C309 1.379 . S
C304 N311 1.356 1_545 S
C305 C304 1.363 . S
C305 C308 1.363 . S
N306 C308 1.356 . S
N306 H318 0.984 . S
N306 H319 0.985 . S
N307 C309 1.356 . S
N307 H312 0.984 . S
N307 H313 0.985 . S
C308 C302 1.379 . S
C308 C305 1.363 . S
C308 N306 1.356 . S
C309 C303 1.363 . S
C309 C304 1.379 . S
C309 N307 1.356 . S
N310 C302 1.356 . S
N310 H316 0.984 . S
N310 H317 0.984 . S
N311 C304 1.356 1_565 S
N311 H314 0.984 . S
N311 H315 0.985 . S
H312 N307 0.984 . S
H313 N307 0.985 . S
H314 N311 0.984 . S
H315 N311 0.985 . S
H316 N310 0.984 . S
H317 N310 0.984 . S
H318 N306 0.984 . S
H319 N306 0.985 . S
C320 C321 1.363 . S
C320 C326 1.379 . S
C320 N328 1.356 1_655 S
C321 C320 1.363 . S
C321 C327 1.363 . S
C322 C323 1.363 . S
C322 C327 1.379 . S
C322 N329 1.356 . S
C323 C322 1.363 . S
C323 C326 1.363 . S
N324 C326 1.356 . S
N324 H336 0.984 . S
N324 H337 0.985 . S
N325 C327 1.356 . S
N325 H330 0.984 . S
N325 H331 0.985 . S
C326 C320 1.379 . S
C326 C323 1.363 . S
C326 N324 1.356 . S
C327 C321 1.363 . S
C327 C322 1.379 . S
C327 N325 1.356 . S
N328 C320 1.356 1_455 S
N328 H334 0.984 . S
N328 H335 0.984 . S
N329 C322 1.356 . S
N329 H332 0.984 . S
N329 H333 0.985 . S
H330 N325 0.984 . S
H331 N325 0.985 . S
H332 N329 0.984 . S
H333 N329 0.985 . S
H334 N328 0.984 . S
H335 N328 0.984 . S
H336 N324 0.984 . S
H337 N324 0.985 . S
C338 C339 1.363 . S
C338 C344 1.379 . S
C338 N346 1.356 . S
C339 C338 1.363 . S
C339 C345 1.363 . S
C340 C341 1.363 . S
C340 C345 1.379 . S
C340 N347 1.356 . S
C341 C340 1.363 . S
C341 C344 1.363 . S
N342 C344 1.356 . S
N342 H354 0.984 . S
N342 H355 0.985 . S
N343 C345 1.356 . S
N343 H348 0.984 . S
N343 H349 0.985 . S
C344 C338 1.379 . S
C344 C341 1.363 . S
C344 N342 1.356 . S
C345 C339 1.363 . S
C345 C340 1.379 . S
C345 N343 1.356 . S
N346 C338 1.356 . S
N346 H352 0.984 . S
N346 H353 0.984 . S
N347 C340 1.356 . S
N347 H350 0.984 . S
N347 H351 0.985 . S
H348 N343 0.984 . S
H349 N343 0.985 . S
H350 N347 0.984 . S
H351 N347 0.985 . S
H352 N346 0.984 . S
H353 N346 0.984 . S
H354 N342 0.984 . S
H355 N342 0.985 . S
C356 C357 1.363 . S
C356 C362 1.379 . S
C356 N364 1.356 . S
C357 C356 1.363 . S
C357 C363 1.363 . S
C358 C359 1.363 . S
C358 C363 1.379 . S
C358 N365 1.356 1_455 S
C359 C358 1.363 . S
C359 C362 1.363 . S
N360 C362 1.356 . S
N360 H372 0.984 . S
N360 H373 0.985 . S
N361 C363 1.356 . S
N361 H366 0.984 . S
N361 H367 0.985 . S
C362 C356 1.379 . S
C362 C359 1.363 . S
C362 N360 1.356 . S
C363 C357 1.363 . S
C363 C358 1.379 . S
C363 N361 1.356 . S
N364 C356 1.356 . S
N364 H370 0.984 . S
N364 H371 0.984 . S
N365 C358 1.356 1_655 S
N365 H368 0.984 . S
N365 H369 0.985 . S
H366 N361 0.984 . S
H367 N361 0.985 . S
H368 N365 0.984 . S
H369 N365 0.985 . S
H370 N364 0.984 . S
H371 N364 0.984 . S
H372 N360 0.984 . S
H373 N360 0.985 . S
C374 C375 1.363 . S
C374 C380 1.379 . S
C374 N382 1.356 . S
C375 C374 1.363 . S
C375 C381 1.363 . S
C376 C377 1.363 . S
C376 C381 1.379 . S
C376 N383 1.356 . S
C377 C376 1.363 . S
C377 C380 1.363 . S
N378 C380 1.356 . S
N378 H390 0.984 . S
N378 H391 0.985 . S
N379 C381 1.356 . S
N379 H384 0.984 . S
N379 H385 0.985 . S
C380 C374 1.379 . S
C380 C377 1.363 . S
C380 N378 1.356 . S
C381 C375 1.363 . S
C381 C376 1.379 . S
C381 N379 1.356 . S
N382 C374 1.356 . S
N382 H388 0.984 . S
N382 H389 0.984 . S
N383 C376 1.356 . S
N383 H386 0.984 . S
N383 H387 0.985 . S
H384 N379 0.984 . S
H385 N379 0.985 . S
H386 N383 0.984 . S
H387 N383 0.985 . S
H388 N382 0.984 . S
H389 N382 0.984 . S
H390 N378 0.984 . S
H391 N378 0.985 . S
C105 C5 1.012 . S
C107 C29 1.012 . S
C123 C16 1.012 . S
C125 C42 1.012 . S
C141 C55 1.012 . S
C143 C81 1.012 . S
C159 C68 1.012 . S
C161 C94 1.012 . S
C177 C10 1.552 . S
C179 C69 1.552 . S
C195 C17 1.552 . S
C197 C82 1.552 . S
C213 C95 1.552 . S
C215 C30 1.552 . S
C231 C43 1.552 . S
C233 C56 1.552 . S
C249 C57 1.729 . S
C251 C4 1.771 . S
C267 C23 1.771 . S
C269 C70 1.729 1_565 S
C285 C36 1.771 . S
C287 C83 1.729 . S
C303 C49 1.771 . S
C305 C96 1.729 1_545 S
C321 C3 1.729 1_655 S
C323 C62 1.771 . S
C339 C75 1.771 . S
C341 C18 1.729 . S
C357 C88 1.771 . S
C359 C31 1.729 1_455 S
C375 C44 1.729 . S
C377 C101 1.771 . S
