# Generated by pormake.
# Topology rkf, (6)-cn, num edge types: 1
# Building blocks:
#     Node 0, Type 0, BuildingBlock: PAMTUU_clean_sbu_0, # of connection points: 6
#     Node 1, Type 0, BuildingBlock: PAMTUU_clean_sbu_0, # of connection points: 6
#     Node 2, Type 0, BuildingBlock: PAMTUU_clean_sbu_0, # of connection points: 6
#     Node 3, Type 0, BuildingBlock: PAMTUU_clean_sbu_0, # of connection points: 6
#     Node 4, Type 0, BuildingBlock: PAMTUU_clean_sbu_0, # of connection points: 6
#     Node 5, Type 0, BuildingBlock: PAMTUU_clean_sbu_0, # of connection points: 6
#     Edge 6, Type (0, 0), BuildingBlock: XIVTED_clean_linker_0, # of connection points: 2
#     Edge 7, Type (0, 0), BuildingBlock: XIVTED_clean_linker_0, # of connection points: 2
#     Edge 8, Type (0, 0), BuildingBlock: XIVTED_clean_linker_0, # of connection points: 2
#     Edge 9, Type (0, 0), BuildingBlock: XIVTED_clean_linker_0, # of connection points: 2
#     Edge 10, Type (0, 0), BuildingBlock: XIVTED_clean_linker_0, # of connection points: 2
#     Edge 11, Type (0, 0), BuildingBlock: XIVTED_clean_linker_0, # of connection points: 2
#     Edge 12, Type (0, 0), BuildingBlock: XIVTED_clean_linker_0, # of connection points: 2
#     Edge 13, Type (0, 0), BuildingBlock: XIVTED_clean_linker_0, # of connection points: 2
#     Edge 14, Type (0, 0), BuildingBlock: XIVTED_clean_linker_0, # of connection points: 2
#     Edge 15, Type (0, 0), BuildingBlock: XIVTED_clean_linker_0, # of connection points: 2
#     Edge 16, Type (0, 0), BuildingBlock: XIVTED_clean_linker_0, # of connection points: 2
#     Edge 17, Type (0, 0), BuildingBlock: XIVTED_clean_linker_0, # of connection points: 2
#     Edge 18, Type (0, 0), BuildingBlock: XIVTED_clean_linker_0, # of connection points: 2
#     Edge 19, Type (0, 0), BuildingBlock: XIVTED_clean_linker_0, # of connection points: 2
#     Edge 20, Type (0, 0), BuildingBlock: XIVTED_clean_linker_0, # of connection points: 2
#     Edge 21, Type (0, 0), BuildingBlock: XIVTED_clean_linker_0, # of connection points: 2
#     Edge 22, Type (0, 0), BuildingBlock: XIVTED_clean_linker_0, # of connection points: 2
#     Edge 23, Type (0, 0), BuildingBlock: XIVTED_clean_linker_0, # of connection points: 2
# Relax obj value: 0.802
# Max RMSD: 0.265
# Mean RMSD: 0.265
data_MOF--net-rkf--node1-PAMTUU_clean_sbu_0--edge1-XIVTED_clean_linker_0
_symmetry_space_group_name_H-M    P1
_symmetry_Int_Tables_number       1
_symmetry_cell_setting            triclinic
loop_
_symmetry_equiv_pos_as_xyz
'x, y, z'
_cell_length_a     27.281745
_cell_length_b     25.766865
_cell_length_c     42.227798
_cell_angle_alpha  90.114364
_cell_angle_beta   89.806731
_cell_angle_gamma 118.26881
loop_
_atom_site_label
_atom_site_type_symbol
_atom_site_fract_x
_atom_site_fract_y
_atom_site_fract_z
_atom_type_partial_charge
Tb0 Tb 0.22519 0.97622 0.19119 0.0
Tb1 Tb 0.20602 0.08799 1.17171 0.0
C2 C 0.32221 0.09383 1.1654 0.0
C3 C 0.19553 0.82876 0.21888 0.0
C4 C 0.10821 0.73045 0.24878 0.0
C5 C 0.15524 0.76989 0.26609 0.0
C6 C 0.19852 0.8184 0.25125 0.0
C7 C 0.15108 0.7864 0.201 0.0
C8 C 0.10788 0.73773 0.21582 0.0
C9 C 0.2352 0.8862 0.2049 0.0
O10 O 0.2235 0.02117 0.23558 0.0
O11 O 0.25483 0.11352 0.21491 0.0
O12 O 0.13806 0.03295 0.20301 0.0
O13 O 0.13675 0.94335 0.19713 0.0
O14 O 0.1936 0.15977 0.18495 0.0
O15 O 0.19258 0.13565 1.13584 0.0
O16 O 0.1546 0.01474 1.14069 0.0
O17 O 0.21353 0.97562 1.13949 0.0
O18 O 0.30704 0.04978 0.18517 0.0
O19 O 0.2866 0.10735 1.15182 0.0
C20 C 0.24416 0.07867 0.23952 0.0
O21 O 0.22355 0.89739 0.17669 0.0
O22 O 0.25121 0.93194 0.22333 0.0
C23 C 0.11415 0.97549 0.2067 0.0
C24 C 0.22701 0.23727 1.1472 0.0
C25 C 0.27675 0.35532 1.12615 0.0
C26 C 0.28214 0.31191 1.10843 0.0
C27 C 0.25768 0.25366 1.11885 0.0
C28 C 0.22496 0.28111 1.16609 0.0
C29 C 0.24994 0.33966 1.15579 0.0
C30 C 0.19247 0.17457 1.15559 0.0
C31 C 0.17299 -0.01789 1.12645 0.0
H32 H 0.15688 0.76601 0.29155 0.0
H33 H 0.23266 0.84979 0.26554 0.0
H34 H 0.148 0.79234 0.17584 0.0
H35 H 0.07279 0.7075 0.20172 0.0
H36 H 0.3017 0.32169 1.08531 0.0
H37 H 0.26038 0.22104 1.10378 0.0
H38 H 0.20184 0.26966 0.18815 0.0
H39 H 0.24581 0.37204 1.17033 0.0
Tb40 Tb 0.24864 0.34007 0.50475 0.0
Tb41 Tb 0.23917 0.21581 0.53158 0.0
C42 C 0.34754 0.33032 0.53337 0.0
C43 C 0.21604 0.45871 0.48537 0.0
C44 C 0.12102 0.47118 0.47215 0.0
C45 C 0.16933 0.49984 0.45334 0.0
C46 C 0.21638 0.49358 0.45993 0.0
C47 C 0.17032 0.43515 0.50614 0.0
C48 C 0.12339 0.44187 0.49976 0.0
C49 C 0.25656 0.43639 0.48558 0.0
O50 O 0.2419 0.28849 0.46199 0.0
O51 O 0.2707 0.2256 0.48311 0.0
O52 O 0.16582 0.1945 0.503 0.0
O53 O 0.1613 0.28103 0.5084 0.0
O54 O 0.27813 0.16296 0.53081 0.0
O55 O 0.20043 0.13478 0.55587 0.0
O56 O 0.20426 0.24287 0.57087 0.0
O57 O 0.22265 0.33616 0.55458 0.0
O58 O 0.33035 0.34677 0.50843 0.0
O59 O 0.31259 0.28827 0.55162 0.0
C60 C 0.25838 0.24832 0.45849 0.0
O61 O 0.27491 0.43014 0.51307 0.0
O62 O 0.24235 0.3903 0.4677 0.0
C63 C 0.13925 0.22562 0.50043 0.0
C64 C 0.26594 0.10829 0.57666 0.0
C65 C 0.31905 0.07904 0.62519 0.0
C66 C 0.28661 0.03698 0.60233 0.0
C67 C 0.26042 0.05158 0.57826 0.0
C68 C 0.29834 0.15067 0.59922 0.0
C69 C 0.32466 0.13613 0.62336 0.0
C70 C 0.24171 0.12397 0.54983 0.0
C71 C 0.20386 0.2932 0.57574 0.0
H72 H 0.16923 0.52234 0.43174 0.0
H73 H 0.25109 0.51161 0.44349 0.0
H74 H 0.16909 0.40769 0.52585 0.0
H75 H 0.08745 0.42028 0.51513 0.0
H76 H 0.2803 -0.00776 0.60344 0.0
H77 H 0.23598 0.01859 0.5608 0.0
H78 H 0.30364 0.19504 0.59796 0.0
H79 H 0.34944 0.16955 0.64052 0.0
Tb80 Tb 0.02098 0.35425 0.85353 0.0
Tb81 Tb 0.9248 0.22814 0.82749 0.0
C82 C 0.90782 0.33678 0.83086 0.0
C83 C 0.13325 0.47665 0.89898 0.0
C84 C 0.20704 0.51695 0.95071 0.0
C85 C 0.17534 0.54495 0.94272 0.0
C86 C 0.13894 0.52511 0.9169 0.0
C87 C 0.16561 0.44933 0.90664 0.0
C88 C 0.20231 0.46949 0.93211 0.0
C89 C 0.09315 0.45451 0.8727 0.0
O90 O -0.02972 0.31081 0.89624 0.0
O91 O 0.9174 0.21553 0.8785 0.0
O92 O 0.00309 0.22508 0.82872 0.0
O93 O 0.04721 0.29142 0.86871 0.0
O94 O 0.88508 0.13546 0.828 0.0
O95 O 0.85939 0.18325 0.79574 0.0
O96 O -0.03123 0.27663 0.7848 0.0
O97 O 0.05172 0.34165 0.8074 0.0
O98 O -0.03885 0.36654 0.8252 0.0
O99 O 0.88637 0.2823 0.84062 0.0
C100 C 0.93494 0.2545 0.90155 0.0
O101 O 0.10229 0.42378 0.85121 0.0
O102 O 0.04058 0.43078 0.88031 0.0
C103 C 0.04229 0.24835 0.85028 0.0
C104 C 0.78995 0.09119 0.81419 0.0
C105 C 0.67436 0.01508 0.81632 0.0
C106 C 0.71156 -0.00606 0.80742 0.0
C107 C 0.76872 0.03171 0.80632 0.0
C108 C 0.75386 0.11153 0.82589 0.0
C109 C 0.69642 0.07369 0.82697 0.0
C110 C 0.84859 0.13179 0.80705 0.0
C111 C 0.02245 0.31311 0.78242 0.0
H112 H 0.178 0.58143 0.95675 0.0
H113 H 0.11444 0.54688 0.91129 0.0
H114 H 0.1618 0.41156 0.89338 0.0
H115 H 0.2251 0.44604 0.93811 0.0
H116 H 0.69655 0.94946 0.79868 0.0
H117 H 0.79605 0.0152 0.79747 0.0
H118 H 0.76971 0.1573 0.83257 0.0
H119 H 0.66913 0.0912 0.83442 0.0
Tb120 Tb 0.68979 0.00025 1.1666 0.0
Tb121 Tb 0.78283 0.12624 0.19747 0.0
C122 C 0.67012 0.10745 0.17559 0.0
C123 C 0.5754 0.89183 1.11565 0.0
C124 C 0.51614 0.8503 1.0586 0.0
C125 C 0.56532 0.90479 1.05967 0.0
C126 C 0.59457 0.92542 1.08796 0.0
C127 C 0.5247 0.83957 1.1153 0.0
C128 C 0.49512 0.81901 1.08703 0.0
C129 C 0.60957 0.90869 1.14439 0.0
O130 O 0.74718 0.04299 1.12676 0.0
O131 O 0.79317 0.13816 1.14594 0.0
O132 O 0.82459 0.07387 0.18855 0.0
O133 O 0.75046 0.97992 0.18695 0.0
O134 O 0.81083 0.21743 0.19935 0.0
O135 O 0.85465 0.17845 0.22384 0.0
O136 O 0.75049 0.07236 0.23994 0.0
O137 O 0.67864 -0.01209 0.21852 0.0
O138 O 0.67171 0.07093 1.15475 0.0
O139 O 0.70116 0.12036 0.20084 0.0
C140 C 0.78082 0.09994 1.12254 0.0
O141 O 0.66187 0.92236 1.14044 0.0
O142 O 0.60345 0.94525 1.16342 0.0
C143 C 0.80316 0.01635 0.19136 0.0
C144 C 0.85535 0.26155 0.2471 0.0
C145 C 0.87083 0.3254 0.30375 0.0
C146 C 0.91132 0.34686 0.27957 0.0
C147 C 0.90357 0.31519 0.25154 0.0
C148 C 0.81357 0.24096 0.27037 0.0
C149 C 0.82119 0.27274 0.29848 0.0
C150 C 0.85088 0.22634 0.21891 0.0
C151 C 0.70886 0.0186 0.24299 0.0
H152 H 0.58345 0.92985 1.03831 0.0
H153 H 0.63352 0.96617 1.08789 0.0
H154 H 0.50906 0.81346 1.13664 0.0
H155 H 0.45708 0.77741 1.0872 0.0
H156 H 0.9505 0.38651 0.28291 0.0
H157 H 0.9362 0.33158 0.23377 0.0
H158 H 0.77589 0.19956 0.26716 0.0
H159 H 0.78896 0.25522 0.31643 0.0
Tb160 Tb 0.67406 0.84357 0.53611 0.0
Tb161 Tb 0.76121 0.79915 0.50719 0.0
C162 C 0.6445 0.71265 0.52616 0.0
C163 C 0.56602 0.85316 0.58622 0.0
C164 C 0.50964 0.84154 0.64394 0.0
C165 C 0.5498 0.82201 0.64107 0.0
C166 C 0.57766 0.82772 0.61245 0.0
C167 C 0.52368 0.86918 0.58822 0.0
C168 C 0.49553 0.86326 0.61684 0.0
C169 C 0.60025 0.86679 0.55749 0.0
O170 O 0.72801 0.85082 0.57668 0.0
O171 O 0.76215 0.78969 0.55864 0.0
O172 O 0.80593 0.89021 0.52152 0.0
O173 O 0.73997 0.91969 0.51386 0.0
O174 O 0.78535 0.73314 0.50813 0.0
O175 O 0.83303 0.81382 0.48189 0.0
O176 O 0.73571 0.82666 0.46408 0.0
O177 O 0.66551 0.84426 0.48394 0.0
O178 O 0.64526 0.7513 0.5465 0.0
O179 O 0.67734 0.72978 0.50153 0.0
C180 C 0.75424 0.81951 0.58168 0.0
O181 O 0.65367 0.90054 0.56156 0.0
O182 O 0.58975 0.82236 0.53874 0.0
C183 C 0.79148 0.92973 0.51264 0.0
C184 C 0.83541 0.72839 0.46382 0.0
C185 C 0.85595 0.66823 0.4141 0.0
C186 C 0.89368 0.69213 0.43936 0.0
C187 C 0.8834 0.72182 0.46395 0.0
C188 C 0.79651 0.70323 0.43936 0.0
C189 C 0.80671 0.67326 0.41463 0.0
C190 C 0.82762 0.76226 0.48936 0.0
C191 C 0.69632 0.84199 0.4601 0.0
H192 H 0.56261 0.806 0.66143 0.0
H193 H 0.61015 0.81488 0.61122 0.0
H194 H 0.5139 0.88842 0.568 0.0
H195 H 0.46447 0.87809 0.61809 0.0
H196 H 0.93257 0.6904 0.43949 0.0
H197 H 0.91373 0.74095 0.48276 0.0
H198 H 0.75894 0.70764 0.43914 0.0
H199 H 0.77665 0.65507 0.39567 0.0
Tb200 Tb -0.01173 0.77228 0.84434 0.0
Tb201 Tb 0.89237 0.80095 0.87206 0.0
C202 C 0.87115 0.67405 0.8607 0.0
C203 C 0.12196 0.78238 0.81888 0.0
C204 C 0.23278 0.85163 0.79865 0.0
C205 C 0.20877 0.78969 0.79941 0.0
C206 C 0.15352 0.75532 0.80919 0.0
C207 C 0.14725 0.84385 0.82122 0.0
C208 C 0.202 0.87817 0.81111 0.0
C209 C 0.06175 0.7473 0.82367 0.0
O210 O 0.93126 0.76076 0.80428 0.0
O211 O 0.89558 0.82014 0.82181 0.0
O212 O -0.02957 0.88176 0.87686 0.0
O213 O 0.02333 0.86666 0.83901 0.0
O214 O 0.85521 0.85604 0.87453 0.0
O215 O 0.82336 0.7755 0.90196 0.0
O216 O 0.93363 0.78834 0.91362 0.0
O217 O 0.01801 0.80896 0.89178 0.0
O218 O 0.92395 0.69387 0.86631 0.0
O219 O 0.85171 0.71052 0.85431 0.0
C220 C 0.90511 0.79196 0.79871 0.0
O221 O 0.04463 0.73963 0.85289 0.0
O222 O 0.03143 0.76186 0.80578 0.0
C223 C 0.01476 0.90102 0.85863 0.0
C224 C 0.75873 0.80747 0.8857 0.0
C225 C 0.64659 0.78323 0.88459 0.0
C226 C 0.68979 0.84143 0.88805 0.0
C227 C 0.74519 0.85328 0.88868 0.0
C228 C 0.71646 0.75025 0.87897 0.0
C229 C 0.66077 0.73827 0.87832 0.0
C230 C 0.81586 0.81984 0.89327 0.0
C231 C -0.01297 0.80443 0.91675 0.0
H232 H 0.23147 0.76764 0.79071 0.0
H233 H 0.13469 0.70774 0.80771 0.0
H234 H 0.12355 0.86545 0.82897 0.0
H235 H 0.21819 0.92548 0.81072 0.0
H236 H 0.68097 0.87734 0.89324 0.0
H237 H 0.77726 0.89781 0.89364 0.0
H238 H 0.72606 0.71426 0.876 0.0
H239 H 0.62869 0.69318 0.87498 0.0
H240 H 0.79228 0.90744 0.17871 0.0
H241 H 0.08073 0.00457 0.26086 0.0
H242 H 0.8918 0.06799 0.23046 0.0
H243 H 0.02134 0.88509 0.18166 0.0
H244 H -0.01349 -0.01049 0.26985 0.0
H245 H 0.8539 0.86852 0.19697 0.0
C246 C 0.82689 0.93421 0.19407 0.0
C247 C 0.83858 -0.00828 0.20224 0.0
C248 C -0.00641 0.96481 0.25122 0.0
C249 C 0.90685 0.94685 0.22406 0.0
C250 C 0.04713 0.97321 0.24622 0.0
C251 C 0.05824 0.94739 0.21992 0.0
C252 C -0.04783 0.93234 0.22898 0.0
C253 C 0.01392 0.90653 0.20181 0.0
C254 C 0.86137 0.91175 0.20473 0.0
C255 C 0.88279 0.02427 0.22272 0.0
N256 N -0.0374 0.90172 0.20595 0.0
N257 N 0.91564 0.0015 0.23275 0.0
H258 H 0.86394 0.93171 0.46907 0.0
H259 H 0.10519 0.15634 0.44836 0.0
H260 H 0.80763 0.04277 0.51574 0.0
H261 H 0.05025 0.238 0.51923 0.0
H262 H 0.0095 0.09953 0.43011 0.0
H263 H 0.93987 0.01716 0.44582 0.0
C264 C 0.86784 0.97472 0.47422 0.0
C265 C 0.83208 -0.01878 0.49565 0.0
C266 C 0.01792 0.1292 0.44991 0.0
C267 C 0.919 0.08023 0.46907 0.0
C268 C 0.07249 0.1616 0.46019 0.0
C269 C 0.08414 0.19849 0.48649 0.0
C270 C -0.02494 0.13111 0.46766 0.0
C271 C 0.04183 0.20747 0.49979 0.0
C272 C 0.91077 0.02394 0.46038 0.0
C273 C 0.83633 0.03687 0.50027 0.0
N274 N -0.01151 0.17229 0.49091 0.0
N275 N 0.88048 0.08485 0.48786 0.0
H276 H 0.04242 0.96886 0.91148 0.0
H277 H 0.08894 0.21546 0.80304 0.0
H278 H 0.08443 0.97294 0.81269 0.0
H279 H 0.08349 0.22724 0.90466 0.0
H280 H 0.127 0.14754 0.80845 0.0
H281 H 0.09476 0.07587 0.91318 0.0
C282 C 0.06346 -0.00744 0.89022 0.0
C283 C 0.05682 0.9629 0.86145 0.0
C284 C 0.11917 0.16609 0.8297 0.0
C285 C 0.11544 0.08495 0.86294 0.0
C286 C 0.09716 0.20463 0.82654 0.0
C287 C 0.08081 0.2242 0.8535 0.0
C288 C 0.12183 0.14498 0.85995 0.0
C289 C 0.094 0.21115 0.88335 0.0
C290 C 0.09389 0.05364 0.89123 0.0
C291 C 0.08693 -0.0052 0.83501 0.0
N292 N 0.11202 0.17045 0.88587 0.0
N293 N 0.11356 0.05456 0.83608 0.0
H294 H 0.21962 0.41857 1.13136 0.0
H295 H 0.31167 0.52973 0.96004 0.0
H296 H 0.36371 0.42334 1.08584 0.0
H297 H 0.17544 0.53507 1.00934 0.0
H298 H 0.35023 0.52209 1.01088 0.0
H299 H 0.2235 0.49226 1.09446 0.0
C300 C 0.2533 0.43631 1.1143 0.0
C301 C 0.2901 0.41269 1.11102 0.0
C302 C 0.31272 0.52658 1.0107 0.0
C303 C 0.29317 0.49584 1.06761 0.0
C304 C 0.29067 0.53084 0.98166 0.0
C305 C 0.23939 0.53112 0.98049 0.0
C306 C 0.28264 0.52147 1.03864 0.0
C307 C 0.21464 0.53403 1.00913 0.0
C308 C 0.25515 0.47831 1.09291 0.0
C309 C 0.33284 0.43818 1.08837 0.0
N310 N 0.23571 0.5275 1.03702 0.0
N311 N 0.33219 0.47706 1.0669 0.0
H312 H 0.09706 0.54791 0.43798 0.0
H313 H 0.84583 0.27178 0.3619 0.0
H314 H 0.02026 0.37126 0.476 0.0
H315 H 0.92723 0.44386 0.31837 0.0
H316 H 0.88826 0.31612 0.41214 0.0
H317 H 0.01653 0.51918 0.40342 0.0
C318 C 0.06282 0.50355 0.43967 0.0
C319 C 0.06656 0.46152 0.45927 0.0
C320 C 0.89603 0.34449 0.39178 0.0
C321 C -0.0257 0.42845 0.41982 0.0
C322 C 0.87134 0.31917 0.36299 0.0
C323 C 0.88427 0.35383 0.33551 0.0
C324 C 0.93466 0.40474 0.39305 0.0
C325 C 0.91775 0.41507 0.33868 0.0
C326 C 0.01676 0.48723 0.41996 0.0
C327 C 0.01996 0.40529 0.46117 0.0
N328 N 0.94289 0.43841 0.36673 0.0
N329 N -0.02353 0.3901 0.44117 0.0
H330 H 0.60501 0.05468 0.79181 0.0
H331 H 0.48301 0.76749 0.6956 0.0
H332 H 0.60624 0.89483 0.82092 0.0
H333 H 0.49357 0.93268 0.6659 0.0
H334 H 0.48764 0.79838 0.75069 0.0
H335 H 0.52473 -0.00318 0.75885 0.0
C336 C 0.58731 0.00718 0.79234 0.0
C337 C 0.61443 0.97991 0.80797 0.0
C338 C 0.48715 0.8271 0.73214 0.0
C339 C 0.52366 0.91362 0.76896 0.0
C340 C 0.48479 0.80958 0.70063 0.0
C341 C 0.49081 0.84875 0.67599 0.0
C342 C 0.49631 0.88441 0.73893 0.0
C343 C 0.49039 0.9015 0.68396 0.0
C344 C 0.54143 0.97403 0.77314 0.0
C345 C 0.58843 0.91803 0.80796 0.0
N346 N 0.49493 0.91853 0.71471 0.0
N347 N 0.54571 0.88706 0.78776 0.0
H348 H 0.47325 0.73383 1.0419 0.0
H349 H 0.58957 0.84642 0.87464 0.0
H350 H 0.50661 0.90273 1.00365 0.0
H351 H 0.57232 0.68767 0.91878 0.0
H352 H 0.5189 0.84518 0.91068 0.0
H353 H 0.4664 0.69642 0.98843 0.0
C354 C 0.47733 0.76273 1.02235 0.0
C355 C 0.49312 0.82252 1.02741 0.0
C356 C 0.52922 0.80948 0.91173 0.0
C357 C 0.48744 0.78018 0.96591 0.0
C358 C 0.5697 0.8102 0.89115 0.0
C359 C 0.58928 0.76897 0.8948 0.0
C360 C 0.50861 0.7674 0.9361 0.0
C361 C 0.56012 0.7216 0.9156 0.0
C362 C 0.47376 0.74126 0.99164 0.0
C363 C 0.49712 0.85715 1.00089 0.0
N364 N 0.52252 0.72316 0.93616 0.0
N365 N 0.49615 0.83607 0.97125 0.0
H366 H 0.91 0.60103 0.4119 0.0
H367 H 0.00114 0.70532 0.23565 0.0
H368 H 0.83924 0.68338 0.35161 0.0
H369 H 0.0975 0.66237 0.30133 0.0
H370 H 0.92187 0.66037 0.27137 0.0
H371 H -0.04222 0.58811 0.36585 0.0
C372 C 0.9036 0.61537 0.38891 0.0
C373 C 0.87197 0.64513 0.38584 0.0
C374 C -0.04007 0.6595 0.27765 0.0
C375 C 0.92606 0.62996 0.33314 0.0
C376 C 0.00527 0.68476 0.25709 0.0
C377 C 0.0567 0.68904 0.26584 0.0
C378 C -0.03386 0.63893 0.30732 0.0
C379 C 0.05918 0.66169 0.29409 0.0
C380 C 0.93071 0.60772 0.36264 0.0
C381 C 0.86358 0.6608 0.3553 0.0
N382 N 0.0149 0.63893 0.31418 0.0
N383 N 0.8914 0.65411 0.33027 0.0
H384 H 0.2674 0.81967 0.74428 0.0
H385 H 0.36886 0.00779 0.62471 0.0
H386 H 0.31436 0.96698 0.80796 0.0
H387 H 0.32276 0.10983 0.6876 0.0
H388 H 0.38444 0.95998 0.67073 0.0
H389 H 0.32396 0.88648 0.70348 0.0
C390 C 0.29136 0.86584 0.75032 0.0
C391 C 0.28354 0.88777 0.77934 0.0
C392 C 0.37155 -0.00667 0.67443 0.0
C393 C 0.34797 0.96552 0.73184 0.0
C394 C 0.36265 0.02065 0.6482 0.0
C395 C 0.34226 0.06113 0.65227 0.0
C396 C 0.35907 0.00604 0.70484 0.0
C397 C 0.3374 0.07809 0.68322 0.0
C398 C 0.324 0.90448 0.72666 0.0
C399 C 0.31654 0.94829 0.78536 0.0
N400 N 0.34451 0.04949 0.7083 0.0
N401 N 0.34548 -0.01463 0.76139 0.0
H402 H 0.38181 0.11171 1.11081 0.0
H403 H 0.64095 0.17044 0.21706 0.0
H404 H 0.39721 0.15547 0.21004 0.0
H405 H 0.61429 0.10284 1.12148 0.0
H406 H 0.56745 0.19809 0.20943 0.0
H407 H 0.48194 0.14322 1.10879 0.0
C408 C 0.40689 0.13029 1.13179 0.0
C409 C 0.38193 0.13055 1.16069 0.0
C410 C 0.57843 0.17814 0.18995 0.0
C411 C 0.49492 0.16469 1.15899 0.0
C412 C 0.62021 0.1622 0.19436 0.0
C413 C 0.63234 0.13259 1.17025 0.0
C414 C 0.54866 0.16405 1.16131 0.0
C415 C 0.60505 0.12402 1.14107 0.0
C416 C 0.46378 0.14776 1.13078 0.0
C417 C 0.41547 0.15425 0.18741 0.0
N418 N 0.56382 0.13874 1.13759 0.0
N419 N 0.47022 0.16937 0.1861 0.0
H420 H 0.43694 0.35416 0.49701 0.0
H421 H 0.58146 0.66178 0.57874 0.0
H422 H 0.38854 0.38912 0.58846 0.0
H423 H 0.63674 0.61999 0.49095 0.0
H424 H 0.52595 0.55685 0.58953 0.0
H425 H 0.52707 0.44167 0.50248 0.0
C426 C 0.44644 0.37931 0.51882 0.0
C427 C 0.40567 0.36568 0.54212 0.0
C428 C 0.5508 0.57058 0.56811 0.0
C429 C 0.50668 0.46707 0.54785 0.0
C430 C 0.58202 0.63051 0.56174 0.0
C431 C 0.61238 0.64952 0.53342 0.0
C432 C 0.54945 0.52947 0.5458 0.0
C433 C 0.61278 0.60721 0.51269 0.0
C434 C 0.49762 0.4295 0.52188 0.0
C435 C 0.41928 0.39895 0.56996 0.0
N436 N 0.58105 0.5491 0.51909 0.0
N437 N 0.46831 0.44952 0.57168 0.0
H438 H 0.91263 0.41474 0.78641 0.0
H439 H 0.83985 0.58807 0.9048 0.0
H440 H 0.8298 0.33156 0.87335 0.0
H441 H 0.83475 0.6173 0.80482 0.0
H442 H 0.82254 0.48757 0.89374 0.0
H443 H 0.87386 0.48269 0.79069 0.0
C444 C 0.88509 0.41002 0.80601 0.0
C445 C 0.87463 0.36807 0.8297 0.0
C446 C 0.82284 0.51497 0.87424 0.0
C447 C 0.83151 0.44658 0.83532 0.0
C448 C 0.83229 0.57214 0.8806 0.0
C449 C 0.83825 0.61042 0.85566 0.0
C450 C 0.82171 0.49719 0.84267 0.0
C451 C 0.82972 0.58858 0.82465 0.0
C452 C 0.86276 0.44859 0.80841 0.0
C453 C 0.83874 0.36349 0.85463 0.0
N454 N 0.82354 0.53385 0.81891 0.0
N455 N 0.81965 0.4035 0.85731 0.0
H456 H 0.2666 0.19117 0.25515 0.0
H457 H 0.26902 0.15033 0.44322 0.0
H458 H 0.23565 0.02668 0.29823 0.0
H459 H 0.25088 0.29165 0.39977 0.0
H460 H 0.26757 0.10946 0.39065 0.0
H461 H 0.27187 0.23297 0.30774 0.0
C462 C 0.26135 0.16376 0.27563 0.0
C463 C 0.25074 0.105 0.27196 0.0
C464 C 0.26405 0.14948 0.39258 0.0
C465 C 0.25683 0.15338 0.33287 0.0
C466 C 0.26517 0.1732 0.42266 0.0
C467 C 0.26024 0.22492 0.42619 0.0
C468 C 0.25864 0.17779 0.36545 0.0
C469 C 0.25487 0.25187 0.39842 0.0
C470 C 0.26409 0.18779 0.30577 0.0
C471 C 0.24396 0.07207 0.2997 0.0
N472 N 0.25444 0.2282 0.36936 0.0
N473 N 0.24728 0.09669 0.32888 0.0
H474 H 0.14177 0.35052 0.58578 0.0
H475 H 0.12731 0.32604 0.77381 0.0
H476 H 0.2094 0.25264 0.63518 0.0
H477 H -0.01582 0.30539 0.7211 0.0
H478 H 0.17241 0.3229 0.72382 0.0
H479 H 0.09784 0.35771 0.63558 0.0
C480 C 0.14795 0.33113 0.60713 0.0
C481 C 0.17949 0.30094 0.60618 0.0
C482 C 0.13133 0.31956 0.7232 0.0
C483 C 0.13006 0.31008 0.66347 0.0
C484 C 0.10566 0.32181 0.75171 0.0
C485 C 0.05181 0.31626 0.75179 0.0
C486 C 0.10389 0.3135 0.69424 0.0
C487 C 0.02565 0.3099 0.72227 0.0
C488 C 0.12254 0.33494 0.63548 0.0
C489 C 0.18543 0.27618 0.63467 0.0
N490 N 0.05206 0.30931 0.69476 0.0
N491 N 0.16159 0.28186 0.6621 0.0
H492 H 0.86238 0.14133 0.92017 0.0
H493 H 0.85415 0.21417 1.10504 0.0
H494 H -0.04328 0.31625 0.95879 0.0
H495 H 0.76296 0.03971 1.06541 0.0
H496 H 0.89193 0.2522 1.05243 0.0
H497 H 0.82628 0.10443 0.97292 0.0
C498 C 0.87575 0.17233 0.93967 0.0
C499 C 0.91308 0.23249 0.9345 0.0
C500 C 0.86375 0.20559 1.05517 0.0
C501 C 0.87093 0.18945 0.99606 0.0
C502 C 0.84196 0.18357 1.08538 0.0
C503 C 0.80498 0.12319 1.09015 0.0
C504 C 0.84874 0.16734 1.02899 0.0
C505 C 0.79124 0.0864 1.0633 0.0
C506 C 0.85486 0.1509 0.97002 0.0
C507 C 0.92822 0.26969 0.96124 0.0
N508 N 0.81293 0.10896 1.03413 0.0
N509 N 0.90718 0.24767 0.99066 0.0
H510 H 0.67212 0.90149 0.25678 0.0
H511 H 0.66634 0.92722 0.44553 0.0
H512 H 0.7254 0.06926 0.30252 0.0
H513 H 0.71488 0.80792 0.40092 0.0
H514 H 0.66602 0.96914 0.39325 0.0
H515 H 0.6658 0.85625 0.30898 0.0
C516 C 0.6815 0.92872 0.27778 0.0
C517 C 0.69897 -0.01054 0.275 0.0
C518 C 0.67622 0.93341 0.39488 0.0
C519 C 0.69127 0.93735 0.33525 0.0
C520 C 0.67595 0.90899 0.42474 0.0
C521 C 0.69028 0.86343 0.42788 0.0
C522 C 0.68945 0.91132 0.36751 0.0
C523 C 0.70337 0.84272 0.39985 0.0
C524 C 0.67836 0.90285 0.3076 0.0
C525 C 0.71157 0.02236 0.30331 0.0
N526 N 0.70214 0.86631 0.371 0.0
N527 N 0.70701 -0.00406 0.33208 0.0
H528 H 0.74759 0.87163 0.6383 0.0
H529 H 0.91164 0.73927 0.74221 0.0
H530 H 0.81078 0.75976 0.5997 0.0
H531 H 0.84915 0.85202 0.78044 0.0
H532 H 0.87515 0.746 0.68999 0.0
H533 H 0.7842 0.86484 0.69041 0.0
C534 C 0.76907 0.84567 0.64063 0.0
C535 C 0.77583 0.81636 0.61415 0.0
C536 C 0.86945 0.7693 0.70983 0.0
C537 C 0.81826 0.80825 0.67431 0.0
C538 C 0.8904 0.76545 0.73977 0.0
C539 C 0.88379 0.79504 0.76616 0.0
C540 C 0.84145 0.803 0.70594 0.0
C541 C 0.85558 0.82826 0.76109 0.0
C542 C 0.79006 0.84176 0.67052 0.0
C543 C 0.80424 0.78331 0.61911 0.0
N544 N 0.83567 0.83125 0.73188 0.0
N545 N 0.82419 0.78023 0.6483 0.0
H546 H 0.94073 0.82193 0.97095 0.0
H547 H 0.21141 0.93102 1.08145 0.0
H548 H 0.09469 0.83479 0.93569 0.0
H549 H 0.07422 0.96534 1.10116 0.0
H550 H 0.16685 0.88489 1.03089 0.0
H551 H -0.01412 0.86235 1.02155 0.0
C552 C -0.01608 0.8326 0.97383 0.0
C553 C 0.01365 0.82458 0.94868 0.0
C554 C 0.14659 0.90252 1.04634 0.0
C555 C 0.0662 0.87159 1.00732 0.0
C556 C 0.17193 0.92874 1.07529 0.0
C557 C 0.14683 0.95251 1.09576 0.0
C558 C 0.09517 0.899 1.03792 0.0
C559 C 0.09558 0.94814 1.08628 0.0
C560 C 0.00987 0.85613 1.00285 0.0
C561 C 0.06985 0.83997 0.95423 0.0
N562 N 0.07158 0.9219 1.05834 0.0
N563 N 0.09418 0.86255 0.98285 0.0
loop_
_geom_bond_atom_site_label_1
_geom_bond_atom_site_label_2
_geom_bond_distance
_geom_bond_site_symmetry_2
_ccdc_geom_bond_type
Tb0 C9 2.764 . S
Tb0 O10 2.325 1_565 S
Tb0 O13 2.303 . S
Tb0 O17 2.322 1_554 S
Tb0 O18 2.349 . S
Tb0 O21 2.415 . S
Tb0 O22 2.399 . S
Tb1 O11 2.289 1_556 S
Tb1 O12 2.345 1_556 S
Tb1 O14 2.442 . S
Tb1 O15 2.428 . S
Tb1 O16 2.344 . S
Tb1 O19 2.292 1_556 S
Tb1 C30 2.795 . S
C2 O18 1.261 1_545 S
C2 O19 1.257 . S
C3 C6 1.358 . S
C3 C7 1.332 . S
C3 C9 1.504 . S
C4 C5 1.373 . S
C4 C8 1.308 . S
C5 C4 1.373 . S
C5 C6 1.429 . S
C5 H32 0.932 . S
C6 C3 1.358 . S
C6 C5 1.429 . S
C6 H33 0.930 . S
C7 C3 1.332 . S
C7 C8 1.394 . S
C7 H34 0.932 . S
C8 C4 1.308 . S
C8 C7 1.394 . S
C8 H35 0.929 . S
C9 Tb0 2.764 . S
C9 C3 1.504 . S
C9 O21 1.239 . S
C9 O22 1.263 . S
O10 Tb0 2.325 1_545 S
O10 C20 1.236 . S
O11 Tb1 2.289 1_554 S
O11 C20 1.257 . S
O12 Tb1 2.345 1_554 S
O12 C23 1.261 . S
O13 Tb0 2.303 . S
O13 C23 1.257 1_565 S
O14 Tb1 2.442 . S
O14 C30 1.239 . S
O15 Tb1 2.428 . S
O15 C30 1.263 . S
O16 Tb1 2.344 . S
O16 C31 1.236 1_545 S
O17 Tb0 2.322 1_556 S
O17 C31 1.257 . S
O18 Tb0 2.349 . S
O18 C2 1.261 1_565 S
O19 Tb1 2.292 1_554 S
O19 C2 1.257 . S
C20 O10 1.236 . S
C20 O11 1.257 . S
O21 Tb0 2.415 . S
O21 C9 1.239 . S
O22 Tb0 2.399 . S
O22 C9 1.263 . S
C23 O12 1.261 . S
C23 O13 1.257 1_545 S
C24 C27 1.358 . S
C24 C28 1.332 . S
C24 C30 1.504 . S
C25 C26 1.373 . S
C25 C29 1.308 . S
C26 C25 1.373 . S
C26 C27 1.429 . S
C26 H36 0.932 . S
C27 C24 1.358 . S
C27 C26 1.429 . S
C27 H37 0.930 . S
C28 C24 1.332 . S
C28 C29 1.394 . S
C28 H38 0.932 . S
C29 C25 1.308 . S
C29 C28 1.394 . S
C29 H39 0.929 . S
C30 Tb1 2.795 . S
C30 O14 1.239 . S
C30 O15 1.263 . S
C30 C24 1.504 . S
C31 O16 1.236 1_565 S
C31 O17 1.257 . S
H32 C5 0.932 . S
H33 C6 0.930 . S
H34 C7 0.932 . S
H35 C8 0.929 . S
H36 C26 0.932 . S
H37 C27 0.930 . S
H38 C28 0.932 . S
H39 C29 0.929 . S
Tb40 C49 2.764 . S
Tb40 O50 2.325 . S
Tb40 O53 2.303 . S
Tb40 O57 2.322 . S
Tb40 O58 2.349 . S
Tb40 O61 2.415 . S
Tb40 O62 2.399 . S
Tb41 O51 2.322 . S
Tb41 O52 2.349 . S
Tb41 O54 2.415 . S
Tb41 O55 2.399 . S
Tb41 O56 2.325 . S
Tb41 O59 2.303 . S
Tb41 C70 2.764 . S
C42 O58 1.261 . S
C42 O59 1.257 . S
C43 C46 1.358 . S
C43 C47 1.332 . S
C43 C49 1.504 . S
C44 C45 1.373 . S
C44 C48 1.308 . S
C45 C44 1.373 . S
C45 C46 1.429 . S
C45 H72 0.932 . S
C46 C43 1.358 . S
C46 C45 1.429 . S
C46 H73 0.930 . S
C47 C43 1.332 . S
C47 C48 1.394 . S
C47 H74 0.932 . S
C48 C44 1.308 . S
C48 C47 1.394 . S
C48 H75 0.929 . S
C49 Tb40 2.764 . S
C49 C43 1.504 . S
C49 O61 1.239 . S
C49 O62 1.263 . S
O50 Tb40 2.325 . S
O50 C60 1.236 . S
O51 Tb41 2.322 . S
O51 C60 1.257 . S
O52 Tb41 2.349 . S
O52 C63 1.261 . S
O53 Tb40 2.303 . S
O53 C63 1.257 . S
O54 Tb41 2.415 . S
O54 C70 1.239 . S
O55 Tb41 2.399 . S
O55 C70 1.263 . S
O56 Tb41 2.325 . S
O56 C71 1.236 . S
O57 Tb40 2.322 . S
O57 C71 1.257 . S
O58 Tb40 2.349 . S
O58 C42 1.261 . S
O59 Tb41 2.303 . S
O59 C42 1.257 . S
C60 O50 1.236 . S
C60 O51 1.257 . S
O61 Tb40 2.415 . S
O61 C49 1.239 . S
O62 Tb40 2.399 . S
O62 C49 1.263 . S
C63 O52 1.261 . S
C63 O53 1.257 . S
C64 C67 1.358 . S
C64 C68 1.332 . S
C64 C70 1.504 . S
C65 C66 1.373 . S
C65 C69 1.308 . S
C66 C65 1.373 . S
C66 C67 1.429 . S
C66 H76 0.932 . S
C67 C64 1.358 . S
C67 C66 1.429 . S
C67 H77 0.930 . S
C68 C64 1.332 . S
C68 C69 1.394 . S
C68 H78 0.932 . S
C69 C65 1.308 . S
C69 C68 1.394 . S
C69 H79 0.929 . S
C70 Tb41 2.764 . S
C70 O54 1.239 . S
C70 O55 1.263 . S
C70 C64 1.504 . S
C71 O56 1.236 . S
C71 O57 1.257 . S
H72 C45 0.932 . S
H73 C46 0.930 . S
H74 C47 0.932 . S
H75 C48 0.929 . S
H76 C66 0.932 . S
H77 C67 0.930 . S
H78 C68 0.932 . S
H79 C69 0.929 . S
Tb80 C89 2.764 . S
Tb80 O90 2.325 . S
Tb80 O93 2.303 . S
Tb80 O97 2.322 . S
Tb80 O98 2.349 . S
Tb80 O101 2.415 . S
Tb80 O102 2.399 . S
Tb81 O91 2.322 . S
Tb81 O92 2.349 1_655 S
Tb81 O94 2.415 . S
Tb81 O95 2.399 . S
Tb81 O96 2.325 1_655 S
Tb81 O99 2.303 1_655 S
Tb81 C110 2.764 . S
C82 O98 1.261 . S
C82 O99 1.257 . S
C83 C86 1.358 . S
C83 C87 1.332 . S
C83 C89 1.504 . S
C84 C85 1.373 . S
C84 C88 1.308 . S
C85 C84 1.373 . S
C85 C86 1.429 . S
C85 H112 0.932 . S
C86 C83 1.358 . S
C86 C85 1.429 . S
C86 H113 0.930 . S
C87 C83 1.332 . S
C87 C88 1.394 . S
C87 H114 0.932 . S
C88 C84 1.308 . S
C88 C87 1.394 . S
C88 H115 0.929 . S
C89 Tb80 2.764 . S
C89 C83 1.504 . S
C89 O101 1.239 . S
C89 O102 1.263 . S
O90 Tb80 2.325 . S
O90 C100 1.236 1_455 S
O91 Tb81 2.322 . S
O91 C100 1.257 . S
O92 Tb81 2.349 1_455 S
O92 C103 1.261 . S
O93 Tb80 2.303 . S
O93 C103 1.257 . S
O94 Tb81 2.415 . S
O94 C110 1.239 . S
O95 Tb81 2.399 . S
O95 C110 1.263 . S
O96 Tb81 2.325 1_455 S
O96 C111 1.236 . S
O97 Tb80 2.322 . S
O97 C111 1.257 . S
O98 Tb80 2.349 . S
O98 C82 1.261 . S
O99 Tb81 2.303 1_455 S
O99 C82 1.257 . S
C100 O90 1.236 1_655 S
C100 O91 1.257 . S
O101 Tb80 2.415 . S
O101 C89 1.239 . S
O102 Tb80 2.399 . S
O102 C89 1.263 . S
C103 O92 1.261 . S
C103 O93 1.257 . S
C104 C107 1.358 . S
C104 C108 1.332 . S
C104 C110 1.504 . S
C105 C106 1.373 . S
C105 C109 1.308 . S
C106 C105 1.373 . S
C106 C107 1.429 . S
C106 H116 0.932 . S
C107 C104 1.358 . S
C107 C106 1.429 . S
C107 H117 0.930 . S
C108 C104 1.332 . S
C108 C109 1.394 . S
C108 H118 0.932 . S
C109 C105 1.308 . S
C109 C108 1.394 . S
C109 H119 0.929 . S
C110 Tb81 2.764 . S
C110 O94 1.239 . S
C110 O95 1.263 . S
C110 C104 1.504 . S
C111 O96 1.236 . S
C111 O97 1.257 . S
H112 C85 0.932 . S
H113 C86 0.930 . S
H114 C87 0.932 . S
H115 C88 0.929 . S
H116 C106 0.932 . S
H117 C107 0.930 . S
H118 C108 0.932 . S
H119 C109 0.929 . S
Tb120 C129 2.764 . S
Tb120 O130 2.325 1_565 S
Tb120 O133 2.303 1_556 S
Tb120 O137 2.322 1_556 S
Tb120 O138 2.349 1_556 S
Tb120 O141 2.415 . S
Tb120 O142 2.399 . S
Tb121 O131 2.322 1_554 S
Tb121 O132 2.349 . S
Tb121 O134 2.415 . S
Tb121 O135 2.399 . S
Tb121 O136 2.325 . S
Tb121 O139 2.303 . S
Tb121 C150 2.764 . S
C122 O138 1.261 1_545 S
C122 O139 1.257 . S
C123 C126 1.358 . S
C123 C127 1.332 . S
C123 C129 1.504 . S
C124 C125 1.373 . S
C124 C128 1.308 . S
C125 C124 1.373 . S
C125 C126 1.429 . S
C125 H152 0.932 . S
C126 C123 1.358 . S
C126 C125 1.429 . S
C126 H153 0.930 . S
C127 C123 1.332 . S
C127 C128 1.394 . S
C127 H154 0.932 . S
C128 C124 1.308 . S
C128 C127 1.394 . S
C128 H155 0.929 . S
C129 Tb120 2.764 . S
C129 C123 1.504 . S
C129 O141 1.239 . S
C129 O142 1.263 . S
O130 Tb120 2.325 1_545 S
O130 C140 1.236 . S
O131 Tb121 2.322 1_556 S
O131 C140 1.257 . S
O132 Tb121 2.349 . S
O132 C143 1.261 . S
O133 Tb120 2.303 1_554 S
O133 C143 1.257 1_565 S
O134 Tb121 2.415 . S
O134 C150 1.239 . S
O135 Tb121 2.399 . S
O135 C150 1.263 . S
O136 Tb121 2.325 . S
O136 C151 1.236 1_545 S
O137 Tb120 2.322 1_554 S
O137 C151 1.257 . S
O138 Tb120 2.349 1_554 S
O138 C122 1.261 1_565 S
O139 Tb121 2.303 . S
O139 C122 1.257 . S
C140 O130 1.236 . S
C140 O131 1.257 . S
O141 Tb120 2.415 . S
O141 C129 1.239 . S
O142 Tb120 2.399 . S
O142 C129 1.263 . S
C143 O132 1.261 . S
C143 O133 1.257 1_545 S
C144 C147 1.358 . S
C144 C148 1.332 . S
C144 C150 1.504 . S
C145 C146 1.373 . S
C145 C149 1.308 . S
C146 C145 1.373 . S
C146 C147 1.429 . S
C146 H156 0.932 . S
C147 C144 1.358 . S
C147 C146 1.429 . S
C147 H157 0.930 . S
C148 C144 1.332 . S
C148 C149 1.394 . S
C148 H158 0.932 . S
C149 C145 1.308 . S
C149 C148 1.394 . S
C149 H159 0.929 . S
C150 Tb121 2.764 . S
C150 O134 1.239 . S
C150 O135 1.263 . S
C150 C144 1.504 . S
C151 O136 1.236 1_565 S
C151 O137 1.257 . S
H152 C125 0.932 . S
H153 C126 0.930 . S
H154 C127 0.932 . S
H155 C128 0.929 . S
H156 C146 0.932 . S
H157 C147 0.930 . S
H158 C148 0.932 . S
H159 C149 0.929 . S
Tb160 C169 2.764 . S
Tb160 O170 2.325 . S
Tb160 O173 2.303 . S
Tb160 O177 2.322 . S
Tb160 O178 2.349 . S
Tb160 O181 2.415 . S
Tb160 O182 2.399 . S
Tb161 O171 2.322 . S
Tb161 O172 2.349 . S
Tb161 O174 2.415 . S
Tb161 O175 2.399 . S
Tb161 O176 2.325 . S
Tb161 O179 2.303 . S
Tb161 C190 2.764 . S
C162 O178 1.261 . S
C162 O179 1.257 . S
C163 C166 1.358 . S
C163 C167 1.332 . S
C163 C169 1.504 . S
C164 C165 1.373 . S
C164 C168 1.308 . S
C165 C164 1.373 . S
C165 C166 1.429 . S
C165 H192 0.932 . S
C166 C163 1.358 . S
C166 C165 1.429 . S
C166 H193 0.930 . S
C167 C163 1.332 . S
C167 C168 1.394 . S
C167 H194 0.932 . S
C168 C164 1.308 . S
C168 C167 1.394 . S
C168 H195 0.929 1_565 S
C169 Tb160 2.764 . S
C169 C163 1.504 . S
C169 O181 1.239 . S
C169 O182 1.263 . S
O170 Tb160 2.325 . S
O170 C180 1.236 . S
O171 Tb161 2.322 . S
O171 C180 1.257 . S
O172 Tb161 2.349 . S
O172 C183 1.261 . S
O173 Tb160 2.303 . S
O173 C183 1.257 . S
O174 Tb161 2.415 . S
O174 C190 1.239 . S
O175 Tb161 2.399 . S
O175 C190 1.263 . S
O176 Tb161 2.325 . S
O176 C191 1.236 . S
O177 Tb160 2.322 . S
O177 C191 1.257 . S
O178 Tb160 2.349 . S
O178 C162 1.261 . S
O179 Tb161 2.303 . S
O179 C162 1.257 . S
C180 O170 1.236 . S
C180 O171 1.257 . S
O181 Tb160 2.415 . S
O181 C169 1.239 . S
O182 Tb160 2.399 . S
O182 C169 1.263 . S
C183 O172 1.261 . S
C183 O173 1.257 . S
C184 C187 1.358 . S
C184 C188 1.332 . S
C184 C190 1.504 . S
C185 C186 1.373 . S
C185 C189 1.308 . S
C186 C185 1.373 . S
C186 C187 1.429 . S
C186 H196 0.932 . S
C187 C184 1.358 . S
C187 C186 1.429 . S
C187 H197 0.930 . S
C188 C184 1.332 . S
C188 C189 1.394 . S
C188 H198 0.932 . S
C189 C185 1.308 . S
C189 C188 1.394 . S
C189 H199 0.929 . S
C190 Tb161 2.764 . S
C190 O174 1.239 . S
C190 O175 1.263 . S
C190 C184 1.504 . S
C191 O176 1.236 . S
C191 O177 1.257 . S
H192 C165 0.932 . S
H193 C166 0.930 . S
H194 C167 0.932 . S
H195 C168 0.929 1_545 S
H196 C186 0.932 . S
H197 C187 0.930 . S
H198 C188 0.932 . S
H199 C189 0.929 . S
Tb200 C209 2.764 . S
Tb200 O210 2.325 . S
Tb200 O213 2.303 . S
Tb200 O217 2.322 . S
Tb200 O218 2.349 . S
Tb200 O221 2.415 . S
Tb200 O222 2.399 . S
Tb201 O211 2.322 . S
Tb201 O212 2.349 1_655 S
Tb201 O214 2.415 . S
Tb201 O215 2.399 . S
Tb201 O216 2.325 1_655 S
Tb201 O219 2.303 1_655 S
Tb201 C230 2.764 . S
C202 O218 1.261 . S
C202 O219 1.257 . S
C203 C206 1.358 . S
C203 C207 1.332 . S
C203 C209 1.504 . S
C204 C205 1.373 . S
C204 C208 1.308 . S
C205 C204 1.373 . S
C205 C206 1.429 . S
C205 H232 0.932 . S
C206 C203 1.358 . S
C206 C205 1.429 . S
C206 H233 0.930 . S
C207 C203 1.332 . S
C207 C208 1.394 . S
C207 H234 0.932 . S
C208 C204 1.308 . S
C208 C207 1.394 . S
C208 H235 0.929 1_565 S
C209 Tb200 2.764 . S
C209 C203 1.504 . S
C209 O221 1.239 . S
C209 O222 1.263 . S
O210 Tb200 2.325 . S
O210 C220 1.236 1_455 S
O211 Tb201 2.322 . S
O211 C220 1.257 . S
O212 Tb201 2.349 1_455 S
O212 C223 1.261 . S
O213 Tb200 2.303 . S
O213 C223 1.257 . S
O214 Tb201 2.415 . S
O214 C230 1.239 . S
O215 Tb201 2.399 . S
O215 C230 1.263 . S
O216 Tb201 2.325 1_455 S
O216 C231 1.236 . S
O217 Tb200 2.322 . S
O217 C231 1.257 . S
O218 Tb200 2.349 . S
O218 C202 1.261 . S
O219 Tb201 2.303 1_455 S
O219 C202 1.257 . S
C220 O210 1.236 1_655 S
C220 O211 1.257 . S
O221 Tb200 2.415 . S
O221 C209 1.239 . S
O222 Tb200 2.399 . S
O222 C209 1.263 . S
C223 O212 1.261 . S
C223 O213 1.257 . S
C224 C227 1.358 . S
C224 C228 1.332 . S
C224 C230 1.504 . S
C225 C226 1.373 . S
C225 C229 1.308 . S
C226 C225 1.373 . S
C226 C227 1.429 . S
C226 H236 0.932 . S
C227 C224 1.358 . S
C227 C226 1.429 . S
C227 H237 0.930 . S
C228 C224 1.332 . S
C228 C229 1.394 . S
C228 H238 0.932 . S
C229 C225 1.308 . S
C229 C228 1.394 . S
C229 H239 0.929 . S
C230 Tb201 2.764 . S
C230 O214 1.239 . S
C230 O215 1.263 . S
C230 C224 1.504 . S
C231 O216 1.236 . S
C231 O217 1.257 . S
H232 C205 0.932 . S
H233 C206 0.930 . S
H234 C207 0.932 . S
H235 C208 0.929 1_545 S
H236 C226 0.932 . S
H237 C227 0.930 . S
H238 C228 0.932 . S
H239 C229 0.929 . S
H240 C246 0.930 . S
H241 C250 0.930 . S
H242 C255 0.929 1_556 S
H243 C253 0.929 . S
H244 C248 0.929 . S
H245 C254 0.929 . S
C246 H240 0.930 . S
C246 C247 1.367 1_565 S
C246 C254 1.378 . S
C247 C246 1.367 1_545 S
C247 C255 1.433 . S
C248 H244 0.929 . S
C248 C250 1.378 . S
C248 C252 1.350 . S
C249 C252 1.463 1_655 S
C249 C254 1.350 1_545 S
C249 N257 1.427 . S
C250 H241 0.930 . S
C250 C248 1.378 . S
C250 C251 1.367 . S
C251 C250 1.367 . S
C251 C253 1.433 1_545 S
C252 C248 1.350 . S
C252 C249 1.463 1_455 S
C252 N256 1.427 1_545 S
C253 H243 0.929 . S
C253 C251 1.433 1_565 S
C253 N256 1.384 . S
C254 H245 0.929 . S
C254 C246 1.378 . S
C254 C249 1.350 1_565 S
C255 H242 0.929 1_554 S
C255 C247 1.433 . S
C255 N257 1.384 . S
N256 C252 1.427 1_565 S
N256 C253 1.384 . S
N257 C249 1.427 . S
N257 C255 1.384 . S
H258 C264 0.930 . S
H259 C268 0.930 . S
H260 C273 0.929 . S
H261 C271 0.929 . S
H262 C266 0.929 . S
H263 C272 0.929 . S
C264 H258 0.930 . S
C264 C265 1.367 1_545 S
C264 C272 1.378 . S
C265 C264 1.367 1_565 S
C265 C273 1.433 . S
C266 H262 0.929 . S
C266 C268 1.378 . S
C266 C270 1.350 . S
C267 C270 1.463 1_655 S
C267 C272 1.350 . S
C267 N275 1.427 . S
C268 H259 0.930 . S
C268 C266 1.378 . S
C268 C269 1.367 . S
C269 C268 1.367 . S
C269 C271 1.433 . S
C270 C266 1.350 . S
C270 C267 1.463 1_455 S
C270 N274 1.427 . S
C271 H261 0.929 . S
C271 C269 1.433 . S
C271 N274 1.384 . S
C272 H263 0.929 . S
C272 C264 1.378 . S
C272 C267 1.350 . S
C273 H260 0.929 . S
C273 C265 1.433 . S
C273 N275 1.384 1_565 S
N274 C270 1.427 . S
N274 C271 1.384 . S
N275 C267 1.427 . S
N275 C273 1.384 1_545 S
H276 C282 0.930 . S
H277 C286 0.930 . S
H278 C291 0.927 1_655 S
H279 C289 0.929 . S
H280 C284 0.929 . S
H281 C290 0.929 . S
C282 H276 0.930 . S
C282 C283 1.367 . S
C282 C290 1.378 1_565 S
C283 C282 1.367 . S
C283 C291 1.433 . S
C284 H280 0.929 . S
C284 C286 1.378 . S
C284 C288 1.350 . S
C285 C288 1.463 . S
C285 C290 1.350 . S
C285 N293 1.427 . S
C286 H277 0.930 . S
C286 C284 1.378 . S
C286 C287 1.367 . S
C287 C286 1.367 . S
C287 C289 1.433 . S
C288 C284 1.350 . S
C288 C285 1.463 . S
C288 N292 1.427 . S
C289 H279 0.929 . S
C289 C287 1.433 . S
C289 N292 1.384 . S
C290 H281 0.929 . S
C290 C282 1.378 1_545 S
C290 C285 1.350 . S
C291 H278 0.927 1_455 S
C291 C283 1.433 . S
C291 N293 1.384 1_565 S
N292 C288 1.427 . S
N292 C289 1.384 . S
N293 C285 1.427 . S
N293 C291 1.384 1_545 S
H294 C300 0.930 . S
H295 C304 0.930 . S
H296 C309 0.929 . S
H297 C307 0.929 . S
H298 C302 0.929 . S
H299 C308 0.929 . S
C300 H294 0.930 . S
C300 C301 1.367 . S
C300 C308 1.378 . S
C301 C300 1.367 . S
C301 C309 1.433 . S
C302 H298 0.929 . S
C302 C304 1.378 . S
C302 C306 1.350 . S
C303 C306 1.463 . S
C303 C308 1.350 . S
C303 N311 1.427 . S
C304 H295 0.930 . S
C304 C302 1.378 . S
C304 C305 1.367 . S
C305 C304 1.367 . S
C305 C307 1.433 . S
C306 C302 1.350 . S
C306 C303 1.463 . S
C306 N310 1.427 . S
C307 H297 0.929 . S
C307 C305 1.433 . S
C307 N310 1.384 . S
C308 H299 0.929 . S
C308 C300 1.378 . S
C308 C303 1.350 . S
C309 H296 0.929 . S
C309 C301 1.433 . S
C309 N311 1.384 . S
N310 C306 1.427 . S
N310 C307 1.384 . S
N311 C303 1.427 . S
N311 C309 1.384 . S
H312 C318 0.930 . S
H313 C322 0.930 . S
H314 C327 0.929 . S
H315 C325 0.929 . S
H316 C320 0.929 . S
H317 C326 0.929 1_655 S
C318 H312 0.930 . S
C318 C319 1.367 . S
C318 C326 1.378 . S
C319 C318 1.367 . S
C319 C327 1.433 . S
C320 H316 0.929 . S
C320 C322 1.378 . S
C320 C324 1.350 . S
C321 C324 1.463 . S
C321 C326 1.350 1_655 S
C321 N329 1.427 1_655 S
C322 H313 0.930 . S
C322 C320 1.378 . S
C322 C323 1.367 . S
C323 C322 1.367 . S
C323 C325 1.433 . S
C324 C320 1.350 . S
C324 C321 1.463 . S
C324 N328 1.427 . S
C325 H315 0.929 . S
C325 C323 1.433 . S
C325 N328 1.384 . S
C326 H317 0.929 1_455 S
C326 C318 1.378 . S
C326 C321 1.350 1_455 S
C327 H314 0.929 . S
C327 C319 1.433 . S
C327 N329 1.384 . S
N328 C324 1.427 . S
N328 C325 1.384 . S
N329 C321 1.427 1_455 S
N329 C327 1.384 . S
H330 C336 0.930 . S
H331 C340 0.930 1_565 S
H332 C345 0.929 . S
H333 C343 0.929 1_565 S
H334 C338 0.929 . S
H335 C344 0.929 . S
C336 H330 0.930 . S
C336 C337 1.367 . S
C336 C344 1.378 . S
C337 C336 1.367 . S
C337 C345 1.433 . S
C338 H334 0.929 . S
C338 C340 1.378 . S
C338 C342 1.350 . S
C339 C342 1.463 . S
C339 C344 1.350 . S
C339 N347 1.427 . S
C340 H331 0.930 1_545 S
C340 C338 1.378 . S
C340 C341 1.367 1_545 S
C341 C340 1.367 1_565 S
C341 C343 1.433 1_565 S
C342 C338 1.350 . S
C342 C339 1.463 . S
C342 N346 1.427 . S
C343 H333 0.929 1_545 S
C343 C341 1.433 1_545 S
C343 N346 1.384 . S
C344 H335 0.929 . S
C344 C336 1.378 . S
C344 C339 1.350 . S
C345 H332 0.929 . S
C345 C337 1.433 . S
C345 N347 1.384 . S
N346 C342 1.427 . S
N346 C343 1.384 . S
N347 C339 1.427 . S
N347 C345 1.384 . S
H348 C354 0.930 . S
H349 C358 0.930 . S
H350 C363 0.929 . S
H351 C361 0.929 . S
H352 C356 0.929 . S
H353 C362 0.929 . S
C354 H348 0.930 . S
C354 C355 1.367 . S
C354 C362 1.378 . S
C355 C354 1.367 . S
C355 C363 1.433 . S
C356 H352 0.929 . S
C356 C358 1.378 . S
C356 C360 1.350 . S
C357 C360 1.463 . S
C357 C362 1.350 . S
C357 N365 1.427 . S
C358 H349 0.930 . S
C358 C356 1.378 . S
C358 C359 1.367 . S
C359 C358 1.367 . S
C359 C361 1.433 . S
C360 C356 1.350 . S
C360 C357 1.463 . S
C360 N364 1.427 . S
C361 H351 0.929 . S
C361 C359 1.433 . S
C361 N364 1.384 . S
C362 H353 0.929 . S
C362 C354 1.378 . S
C362 C357 1.350 . S
C363 H350 0.929 . S
C363 C355 1.433 . S
C363 N365 1.384 . S
N364 C360 1.427 . S
N364 C361 1.384 . S
N365 C357 1.427 . S
N365 C363 1.384 . S
H366 C372 0.930 . S
H367 C376 0.930 . S
H368 C381 0.929 . S
H369 C379 0.929 . S
H370 C374 0.929 . S
H371 C380 0.929 . S
C372 H366 0.930 . S
C372 C373 1.367 . S
C372 C380 1.378 . S
C373 C372 1.367 . S
C373 C381 1.433 . S
C374 H370 0.929 . S
C374 C376 1.378 . S
C374 C378 1.350 1_455 S
C375 C378 1.463 . S
C375 C380 1.350 . S
C375 N383 1.427 . S
C376 H367 0.930 . S
C376 C374 1.378 . S
C376 C377 1.367 . S
C377 C376 1.367 . S
C377 C379 1.433 . S
C378 C374 1.350 1_655 S
C378 C375 1.463 . S
C378 N382 1.427 . S
C379 H369 0.929 . S
C379 C377 1.433 . S
C379 N382 1.384 1_455 S
C380 H371 0.929 . S
C380 C372 1.378 . S
C380 C375 1.350 . S
C381 H368 0.929 . S
C381 C373 1.433 . S
C381 N383 1.384 . S
N382 C378 1.427 . S
N382 C379 1.384 1_655 S
N383 C375 1.427 . S
N383 C381 1.384 . S
H384 C390 0.930 . S
H385 C394 0.930 . S
H386 C399 0.929 . S
H387 C397 0.929 . S
H388 C392 0.929 . S
H389 C398 0.929 . S
C390 H384 0.930 . S
C390 C391 1.367 . S
C390 C398 1.378 1_565 S
C391 C390 1.367 . S
C391 C399 1.433 1_565 S
C392 H388 0.929 . S
C392 C394 1.378 . S
C392 C396 1.350 . S
C393 C396 1.463 . S
C393 C398 1.350 . S
C393 N401 1.427 . S
C394 H385 0.930 . S
C394 C392 1.378 . S
C394 C395 1.367 . S
C395 C394 1.367 . S
C395 C397 1.433 . S
C396 C392 1.350 . S
C396 C393 1.463 . S
C396 N400 1.427 . S
C397 H387 0.929 . S
C397 C395 1.433 . S
C397 N400 1.384 . S
C398 H389 0.929 . S
C398 C390 1.378 1_545 S
C398 C393 1.350 . S
C399 H386 0.929 . S
C399 C391 1.433 1_545 S
C399 N401 1.384 . S
N400 C396 1.427 . S
N400 C397 1.384 . S
N401 C393 1.427 . S
N401 C399 1.384 . S
H402 C408 0.930 . S
H403 C412 0.930 . S
H404 C417 0.929 . S
H405 C415 0.929 . S
H406 C410 0.929 . S
H407 C416 0.929 . S
C408 H402 0.930 . S
C408 C409 1.367 1_565 S
C408 C416 1.378 . S
C409 C408 1.367 1_545 S
C409 C417 1.433 . S
C410 H406 0.929 . S
C410 C412 1.378 . S
C410 C414 1.350 . S
C411 C414 1.463 . S
C411 C416 1.350 1_545 S
C411 N419 1.427 . S
C412 H403 0.930 . S
C412 C410 1.378 . S
C412 C413 1.367 . S
C413 C412 1.367 . S
C413 C415 1.433 1_545 S
C414 C410 1.350 . S
C414 C411 1.463 . S
C414 N418 1.427 1_545 S
C415 H405 0.929 . S
C415 C413 1.433 1_565 S
C415 N418 1.384 . S
C416 H407 0.929 . S
C416 C408 1.378 . S
C416 C411 1.350 1_565 S
C417 H404 0.929 . S
C417 C409 1.433 . S
C417 N419 1.384 . S
N418 C414 1.427 1_565 S
N418 C415 1.384 . S
N419 C411 1.427 . S
N419 C417 1.384 . S
H420 C426 0.930 . S
H421 C430 0.930 . S
H422 C435 0.929 . S
H423 C433 0.929 . S
H424 C428 0.929 . S
H425 C434 0.929 . S
C426 H420 0.930 . S
C426 C427 1.367 . S
C426 C434 1.378 . S
C427 C426 1.367 . S
C427 C435 1.433 . S
C428 H424 0.929 . S
C428 C430 1.378 . S
C428 C432 1.350 . S
C429 C432 1.463 . S
C429 C434 1.350 . S
C429 N437 1.427 . S
C430 H421 0.930 . S
C430 C428 1.378 . S
C430 C431 1.367 . S
C431 C430 1.367 . S
C431 C433 1.433 . S
C432 C428 1.350 . S
C432 C429 1.463 . S
C432 N436 1.427 . S
C433 H423 0.929 . S
C433 C431 1.433 . S
C433 N436 1.384 . S
C434 H425 0.929 . S
C434 C426 1.378 . S
C434 C429 1.350 . S
C435 H422 0.929 . S
C435 C427 1.433 . S
C435 N437 1.384 . S
N436 C432 1.427 . S
N436 C433 1.384 . S
N437 C429 1.427 . S
N437 C435 1.384 . S
H438 C444 0.930 . S
H439 C448 0.930 . S
H440 C453 0.929 . S
H441 C451 0.929 . S
H442 C446 0.929 . S
H443 C452 0.929 . S
C444 H438 0.930 . S
C444 C445 1.367 . S
C444 C452 1.378 . S
C445 C444 1.367 . S
C445 C453 1.433 . S
C446 H442 0.929 . S
C446 C448 1.378 . S
C446 C450 1.350 . S
C447 C450 1.463 . S
C447 C452 1.350 . S
C447 N455 1.427 . S
C448 H439 0.930 . S
C448 C446 1.378 . S
C448 C449 1.367 . S
C449 C448 1.367 . S
C449 C451 1.433 . S
C450 C446 1.350 . S
C450 C447 1.463 . S
C450 N454 1.427 . S
C451 H441 0.929 . S
C451 C449 1.433 . S
C451 N454 1.384 . S
C452 H443 0.929 . S
C452 C444 1.378 . S
C452 C447 1.350 . S
C453 H440 0.929 . S
C453 C445 1.433 . S
C453 N455 1.384 . S
N454 C450 1.427 . S
N454 C451 1.384 . S
N455 C447 1.427 . S
N455 C453 1.384 . S
H456 C462 0.930 . S
H457 C466 0.930 . S
H458 C471 0.929 . S
H459 C469 0.929 . S
H460 C464 0.929 . S
H461 C470 0.929 . S
C462 H456 0.930 . S
C462 C463 1.367 . S
C462 C470 1.378 . S
C463 C462 1.367 . S
C463 C471 1.433 . S
C464 H460 0.929 . S
C464 C466 1.378 . S
C464 C468 1.350 . S
C465 C468 1.463 . S
C465 C470 1.350 . S
C465 N473 1.427 . S
C466 H457 0.930 . S
C466 C464 1.378 . S
C466 C467 1.367 . S
C467 C466 1.367 . S
C467 C469 1.433 . S
C468 C464 1.350 . S
C468 C465 1.463 . S
C468 N472 1.427 . S
C469 H459 0.929 . S
C469 C467 1.433 . S
C469 N472 1.384 . S
C470 H461 0.929 . S
C470 C462 1.378 . S
C470 C465 1.350 . S
C471 H458 0.929 . S
C471 C463 1.433 . S
C471 N473 1.384 . S
N472 C468 1.427 . S
N472 C469 1.384 . S
N473 C465 1.427 . S
N473 C471 1.384 . S
H474 C480 0.930 . S
H475 C484 0.930 . S
H476 C489 0.929 . S
H477 C487 0.929 . S
H478 C482 0.929 . S
H479 C488 0.929 . S
C480 H474 0.930 . S
C480 C481 1.367 . S
C480 C488 1.378 . S
C481 C480 1.367 . S
C481 C489 1.433 . S
C482 H478 0.929 . S
C482 C484 1.378 . S
C482 C486 1.350 . S
C483 C486 1.463 . S
C483 C488 1.350 . S
C483 N491 1.427 . S
C484 H475 0.930 . S
C484 C482 1.378 . S
C484 C485 1.367 . S
C485 C484 1.367 . S
C485 C487 1.433 . S
C486 C482 1.350 . S
C486 C483 1.463 . S
C486 N490 1.427 . S
C487 H477 0.929 . S
C487 C485 1.433 . S
C487 N490 1.384 . S
C488 H479 0.929 . S
C488 C480 1.378 . S
C488 C483 1.350 . S
C489 H476 0.929 . S
C489 C481 1.433 . S
C489 N491 1.384 . S
N490 C486 1.427 . S
N490 C487 1.384 . S
N491 C483 1.427 . S
N491 C489 1.384 . S
H492 C498 0.930 . S
H493 C502 0.930 . S
H494 C507 0.929 . S
H495 C505 0.929 . S
H496 C500 0.929 . S
H497 C506 0.929 . S
C498 H492 0.930 . S
C498 C499 1.367 . S
C498 C506 1.378 . S
C499 C498 1.367 . S
C499 C507 1.433 . S
C500 H496 0.929 . S
C500 C502 1.378 . S
C500 C504 1.350 . S
C501 C504 1.463 . S
C501 C506 1.350 . S
C501 N509 1.427 . S
C502 H493 0.930 . S
C502 C500 1.378 . S
C502 C503 1.367 . S
C503 C502 1.367 . S
C503 C505 1.433 . S
C504 C500 1.350 . S
C504 C501 1.463 . S
C504 N508 1.427 . S
C505 H495 0.929 . S
C505 C503 1.433 . S
C505 N508 1.384 . S
C506 H497 0.929 . S
C506 C498 1.378 . S
C506 C501 1.350 . S
C507 H494 0.929 . S
C507 C499 1.433 . S
C507 N509 1.384 . S
N508 C504 1.427 . S
N508 C505 1.384 . S
N509 C501 1.427 . S
N509 C507 1.384 . S
H510 C516 0.930 . S
H511 C520 0.930 . S
H512 C525 0.929 1_545 S
H513 C523 0.929 . S
H514 C518 0.929 . S
H515 C524 0.929 . S
C516 H510 0.930 . S
C516 C517 1.367 . S
C516 C524 1.378 . S
C517 C516 1.367 . S
C517 C525 1.433 . S
C518 H514 0.929 . S
C518 C520 1.378 . S
C518 C522 1.350 . S
C519 C522 1.463 . S
C519 C524 1.350 . S
C519 N527 1.427 . S
C520 H511 0.930 . S
C520 C518 1.378 . S
C520 C521 1.367 . S
C521 C520 1.367 . S
C521 C523 1.433 . S
C522 C518 1.350 . S
C522 C519 1.463 . S
C522 N526 1.427 . S
C523 H513 0.929 . S
C523 C521 1.433 . S
C523 N526 1.384 . S
C524 H515 0.929 . S
C524 C516 1.378 . S
C524 C519 1.350 . S
C525 H512 0.929 1_565 S
C525 C517 1.433 . S
C525 N527 1.384 . S
N526 C522 1.427 . S
N526 C523 1.384 . S
N527 C519 1.427 . S
N527 C525 1.384 . S
H528 C534 0.930 . S
H529 C538 0.930 . S
H530 C543 0.929 . S
H531 C541 0.929 . S
H532 C536 0.929 . S
H533 C542 0.929 . S
C534 H528 0.930 . S
C534 C535 1.367 . S
C534 C542 1.378 . S
C535 C534 1.367 . S
C535 C543 1.433 . S
C536 H532 0.929 . S
C536 C538 1.378 . S
C536 C540 1.350 . S
C537 C540 1.463 . S
C537 C542 1.350 . S
C537 N545 1.427 . S
C538 H529 0.930 . S
C538 C536 1.378 . S
C538 C539 1.367 . S
C539 C538 1.367 . S
C539 C541 1.433 . S
C540 C536 1.350 . S
C540 C537 1.463 . S
C540 N544 1.427 . S
C541 H531 0.929 . S
C541 C539 1.433 . S
C541 N544 1.384 . S
C542 H533 0.929 . S
C542 C534 1.378 . S
C542 C537 1.350 . S
C543 H530 0.929 . S
C543 C535 1.433 . S
C543 N545 1.384 . S
N544 C540 1.427 . S
N544 C541 1.384 . S
N545 C537 1.427 . S
N545 C543 1.384 . S
H546 C552 0.930 . S
H547 C556 0.930 . S
H548 C561 0.929 . S
H549 C559 0.929 . S
H550 C554 0.929 . S
H551 C560 0.929 . S
C552 H546 0.930 . S
C552 C553 1.367 . S
C552 C560 1.378 . S
C553 C552 1.367 . S
C553 C561 1.433 . S
C554 H550 0.929 . S
C554 C556 1.378 . S
C554 C558 1.350 . S
C555 C558 1.463 . S
C555 C560 1.350 . S
C555 N563 1.427 . S
C556 H547 0.930 . S
C556 C554 1.378 . S
C556 C557 1.367 . S
C557 C556 1.367 . S
C557 C559 1.433 . S
C558 C554 1.350 . S
C558 C555 1.463 . S
C558 N562 1.427 . S
C559 H549 0.929 . S
C559 C557 1.433 . S
C559 N562 1.384 . S
C560 H551 0.929 . S
C560 C552 1.378 . S
C560 C555 1.350 . S
C561 H548 0.929 . S
C561 C553 1.433 . S
C561 N563 1.384 . S
N562 C558 1.427 . S
N562 C559 1.384 . S
N563 C555 1.427 . S
N563 C561 1.384 . S
C247 C143 0.469 . S
C251 C23 0.445 . S
C265 C183 0.478 . S
C269 C63 0.445 . S
C283 C223 0.458 . S
C287 C103 0.441 . S
C301 C25 0.691 . S
C305 C84 0.678 . S
C319 C44 0.716 . S
C323 C145 0.679 . S
C337 C105 0.691 . S
C341 C164 0.725 . S
C355 C124 0.704 . S
C359 C225 0.715 . S
C373 C185 0.715 . S
C377 C4 0.699 . S
C391 C204 0.703 . S
C395 C65 0.715 . S
C409 C2 0.466 . S
C413 C122 0.500 . S
C427 C42 0.506 . S
C431 C162 0.479 . S
C445 C82 0.501 . S
C449 C202 0.492 . S
C463 C20 4.158 . S
C467 C60 4.158 . S
C481 C71 3.896 . S
C485 C111 3.892 . S
C499 C100 4.157 . S
C503 C140 4.158 . S
C517 C151 3.895 . S
C521 C191 3.894 . S
C535 C180 4.157 . S
C539 C220 4.157 . S
C553 C231 3.892 . S
C557 C31 3.895 . S
