# Generated by pormake.
# Topology rac, (4)-cn, num edge types: 1
# Building blocks:
#     Node 0, Type 0, BuildingBlock: ICAMEG_clean_sbu_1, # of connection points: 4
#     Node 1, Type 0, BuildingBlock: ICAMEG_clean_sbu_1, # of connection points: 4
#     Node 2, Type 0, BuildingBlock: ICAMEG_clean_sbu_1, # of connection points: 4
#     Node 3, Type 0, BuildingBlock: ICAMEG_clean_sbu_1, # of connection points: 4
#     Node 4, Type 0, BuildingBlock: ICAMEG_clean_sbu_1, # of connection points: 4
#     Node 5, Type 0, BuildingBlock: ICAMEG_clean_sbu_1, # of connection points: 4
#     Node 6, Type 0, BuildingBlock: ICAMEG_clean_sbu_1, # of connection points: 4
#     Node 7, Type 0, BuildingBlock: ICAMEG_clean_sbu_1, # of connection points: 4
#     Edge 8, Type (0, 0), BuildingBlock: EYOCIG_clean_linker_4, # of connection points: 2
#     Edge 9, Type (0, 0), BuildingBlock: EYOCIG_clean_linker_4, # of connection points: 2
#     Edge 10, Type (0, 0), BuildingBlock: EYOCIG_clean_linker_4, # of connection points: 2
#     Edge 11, Type (0, 0), BuildingBlock: EYOCIG_clean_linker_4, # of connection points: 2
#     Edge 12, Type (0, 0), BuildingBlock: EYOCIG_clean_linker_4, # of connection points: 2
#     Edge 13, Type (0, 0), BuildingBlock: EYOCIG_clean_linker_4, # of connection points: 2
#     Edge 14, Type (0, 0), BuildingBlock: EYOCIG_clean_linker_4, # of connection points: 2
#     Edge 15, Type (0, 0), BuildingBlock: EYOCIG_clean_linker_4, # of connection points: 2
#     Edge 16, Type (0, 0), BuildingBlock: EYOCIG_clean_linker_4, # of connection points: 2
#     Edge 17, Type (0, 0), BuildingBlock: EYOCIG_clean_linker_4, # of connection points: 2
#     Edge 18, Type (0, 0), BuildingBlock: EYOCIG_clean_linker_4, # of connection points: 2
#     Edge 19, Type (0, 0), BuildingBlock: EYOCIG_clean_linker_4, # of connection points: 2
#     Edge 20, Type (0, 0), BuildingBlock: EYOCIG_clean_linker_4, # of connection points: 2
#     Edge 21, Type (0, 0), BuildingBlock: EYOCIG_clean_linker_4, # of connection points: 2
#     Edge 22, Type (0, 0), BuildingBlock: EYOCIG_clean_linker_4, # of connection points: 2
#     Edge 23, Type (0, 0), BuildingBlock: EYOCIG_clean_linker_4, # of connection points: 2
# Relax obj value: 0.285
# Max RMSD: 0.141
# Mean RMSD: 0.141
data_MOF--net-rac--node1-ICAMEG_clean_sbu_1--edge1-EYOCIG_clean_linker_4
_symmetry_space_group_name_H-M    P1
_symmetry_Int_Tables_number       1
_symmetry_cell_setting            triclinic
loop_
_symmetry_equiv_pos_as_xyz
'x, y, z'
_cell_length_a     36.841734
_cell_length_b     16.390034
_cell_length_c     33.506947
_cell_angle_alpha  90.002851
_cell_angle_beta   89.985503
_cell_angle_gamma 90.001122
loop_
_atom_site_label
_atom_site_type_symbol
_atom_site_fract_x
_atom_site_fract_y
_atom_site_fract_z
_atom_type_partial_charge
Co0 Co 0.33463 0.28082 0.09832 0.0
Co1 Co 0.3825 0.25506 0.01153 0.0
O2 O 0.38117 0.27847 0.06936 0.0
C3 C 0.39021 0.21768 0.15724 0.0
O4 O 0.41481 0.2065 0.12953 0.0
C5 C 0.43103 0.39898 0.0214 0.0
O6 O 0.4062 0.43201 0.04431 0.0
O7 O 0.34994 0.34914 1.00192 0.0
O8 O 0.30909 0.3268 0.05039 0.0
H9 H 0.32699 0.20825 0.87644 0.0
H10 H 0.39908 0.36967 0.1308 0.0
O11 O 0.35798 0.23881 0.14849 0.0
H12 H 0.2987 0.56819 0.13229 0.0
H13 H 0.25224 0.31141 0.21774 0.0
H14 H 0.25958 0.23597 0.07555 0.0
H15 H 0.29008 0.43207 0.10307 0.0
H16 H 0.31035 0.32086 0.18161 0.0
O17 O 0.42602 0.32898 0.0058 0.0
H18 H 0.32638 0.23833 0.94851 0.0
H19 H 0.4416 0.22986 0.95169 0.0
H20 H 0.20087 0.22736 0.11036 0.0
H21 H 0.40872 0.50476 0.161 0.0
H22 H 0.19697 0.26438 0.1821 0.0
H23 H 0.35818 0.60501 0.16241 0.0
O24 O 0.32489 0.16808 0.08033 0.0
H25 H 0.49367 0.1168 0.06614 0.0
H26 H 0.38341 0.08171 0.98461 0.0
H27 H 0.42557 0.96624 0.99278 0.0
H28 H 0.48138 0.98359 0.03345 0.0
H29 H 0.45054 0.23068 0.05743 0.0
H30 H 0.44346 0.20239 0.87938 0.0
H31 H 0.38584 0.19018 0.84136 0.0
O32 O 0.33901 0.1795 0.01551 0.0
C33 C 0.31953 0.36243 0.0186 0.0
C34 C 0.35228 0.21315 0.8927 0.0
C35 C 0.41764 0.20991 0.89435 0.0
N36 N 0.38389 0.23499 0.95444 0.0
C37 C 0.35211 0.22979 0.93358 0.0
C38 C 0.41642 0.22598 0.93527 0.0
C39 C 0.38531 0.20308 0.87304 0.0
C40 C 0.37688 0.41245 0.13145 0.0
N41 N 0.34376 0.39174 0.1162 0.0
C42 C 0.38257 0.48925 0.14838 0.0
C43 C 0.35424 0.54555 0.14906 0.0
C44 C 0.32091 0.52505 0.13218 0.0
C45 C 0.31623 0.44775 0.11551 0.0
C46 C 0.25362 0.29494 0.1865 0.0
C47 C 0.25811 0.25328 0.10662 0.0
C48 C 0.2865 0.29987 0.16588 0.0
N49 N 0.28846 0.2791 0.1264 0.0
C50 C 0.22477 0.24782 0.12624 0.0
C51 C 0.22262 0.26852 0.16649 0.0
C52 C 0.3224 0.14457 0.04431 0.0
C53 C 0.46942 0.10847 0.04838 0.0
C54 C 0.40726 0.0894 1.003 0.0
C55 C 0.43118 0.02389 0.00728 0.0
C56 C 0.46251 0.03372 0.03006 0.0
N57 N 0.41443 0.16283 0.02073 0.0
C58 C 0.4449 0.1727 0.04339 0.0
Co59 Co 0.18236 0.72201 0.09836 0.0
Co60 Co 0.13458 0.74784 0.01155 0.0
O61 O 0.13585 0.72438 0.06938 0.0
C62 C 0.12669 0.78482 0.15728 0.0
O63 O 0.10209 0.79584 0.12959 0.0
C64 C 0.0859 0.60414 0.02144 0.0
O65 O 0.11063 0.57109 0.04445 0.0
O66 O 0.16712 0.65368 1.00196 0.0
O67 O 0.20796 0.67612 0.05041 0.0
H68 H 0.19028 0.79463 0.87652 0.0
H69 H 0.1179 0.63294 0.13075 0.0
O70 O 0.15896 0.76393 0.14853 0.0
H71 H 0.21839 0.43467 0.13223 0.0
H72 H 0.26463 0.69133 0.21782 0.0
H73 H 0.25744 0.76692 0.07565 0.0
H74 H 0.22696 0.57085 0.10306 0.0
H75 H 0.20657 0.6819 0.18164 0.0
O76 O 0.09103 0.67404 0.00577 0.0
H77 H 0.19078 0.76445 0.94858 0.0
H78 H 0.07556 0.77323 0.95167 0.0
H79 H 0.31612 0.77551 0.11051 0.0
H80 H 0.10831 0.4978 0.16089 0.0
H81 H 0.31994 0.7384 0.18224 0.0
H82 H 0.15889 0.39767 0.16229 0.0
O83 O 0.1921 0.83479 0.0804 0.0
H84 H 0.02344 0.88635 0.06615 0.0
H85 H 0.13378 0.9212 0.98466 0.0
H86 H 0.09167 0.03677 0.99284 0.0
H87 H 0.03583 0.01954 0.0335 0.0
H88 H 0.06652 0.77236 0.05742 0.0
H89 H 0.07381 0.80081 0.87936 0.0
H90 H 0.13148 0.81291 0.8414 0.0
O91 O 0.1781 0.82329 0.01557 0.0
C92 C 0.19752 0.64043 0.01863 0.0
C93 C 0.16497 0.78977 0.89276 0.0
C94 C 0.09961 0.79319 0.89435 0.0
N95 N 0.13326 0.76794 0.95446 0.0
C96 C 0.16508 0.77308 0.93363 0.0
C97 C 0.10077 0.77706 0.93527 0.0
C98 C 0.13197 0.79996 0.87307 0.0
C99 C 0.14013 0.59023 0.1314 0.0
N100 N 0.17326 0.61104 0.11619 0.0
C101 C 0.13446 0.51339 0.1483 0.0
C102 C 0.16282 0.45716 0.14898 0.0
C103 C 0.19615 0.47776 0.13212 0.0
C104 C 0.2008 0.55509 0.11548 0.0
C105 C 0.26328 0.70783 0.18658 0.0
C106 C 0.25888 0.74958 0.10672 0.0
C107 C 0.23043 0.70292 0.16594 0.0
N108 N 0.22851 0.72374 0.12646 0.0
C109 C 0.2922 0.75502 0.12636 0.0
C110 C 0.29431 0.73427 0.16661 0.0
C111 C 0.19466 0.85825 0.04439 0.0
C112 C 0.04771 0.89462 0.04839 0.0
C113 C 0.10991 0.91355 1.00304 0.0
C114 C 0.08602 0.97913 0.00732 0.0
C115 C 0.05468 0.96937 0.03009 0.0
N116 N 0.10269 0.84013 0.02075 0.0
C117 C 0.07219 0.83033 0.04339 0.0
Co118 Co 0.33452 0.22203 0.40938 0.0
Co119 Co 0.38236 0.24765 0.49618 0.0
O120 O 0.38105 0.22434 0.43833 0.0
C121 C 0.39009 0.2855 0.35052 0.0
O122 O 0.41465 0.29679 0.37824 0.0
C123 C 0.43107 0.104 0.48612 0.0
O124 O 0.40638 0.07113 0.463 0.0
O125 O 0.34981 0.15349 0.50575 0.0
O126 O 0.30897 0.17592 0.4573 0.0
H127 H 0.32678 0.29438 0.63128 0.0
H128 H 0.39898 0.13338 0.37676 0.0
O129 O 0.35787 0.26418 0.35923 0.0
H130 H 0.29865 0.93469 0.37528 0.0
H131 H 0.25217 0.19152 0.28996 0.0
H132 H 0.25945 0.26674 0.43218 0.0
H133 H 0.29001 0.07073 0.4046 0.0
H134 H 0.31028 0.18216 0.32608 0.0
O135 O 0.42592 0.17379 0.5019 0.0
H136 H 0.32621 0.26419 0.55921 0.0
H137 H 0.44143 0.27291 0.55602 0.0
H138 H 0.20073 0.27525 0.39739 0.0
H139 H 0.40863 0.99839 0.34647 0.0
H140 H 0.19687 0.23831 0.32563 0.0
H141 H 0.35813 0.89805 0.34507 0.0
O142 O 0.32475 0.33472 0.42744 0.0
H143 H 0.49348 0.38616 0.44155 0.0
H144 H 0.38321 0.42098 0.52315 0.0
H145 H 0.42532 0.53654 0.51496 0.0
H146 H 0.48114 0.51933 0.47425 0.0
H147 H 0.4504 0.27219 0.45027 0.0
H148 H 0.44324 0.30049 0.62832 0.0
H149 H 0.38561 0.31264 0.66634 0.0
O150 O 0.33886 0.32314 0.49224 0.0
C151 C 0.31941 0.14025 0.48907 0.0
C152 C 0.35208 0.2895 0.61501 0.0
C153 C 0.41744 0.29288 0.61335 0.0
N154 N 0.38373 0.26765 0.55328 0.0
C155 C 0.35193 0.27279 0.57414 0.0
C156 C 0.41623 0.27675 0.57244 0.0
C157 C 0.38509 0.29968 0.63467 0.0
C158 C 0.37678 0.09056 0.37612 0.0
N159 N 0.34367 0.11117 0.39143 0.0
C160 C 0.38249 0.01381 0.35913 0.0
C161 C 0.35417 0.95747 0.35845 0.0
C162 C 0.32085 0.97787 0.37539 0.0
C163 C 0.31616 0.05511 0.39212 0.0
C164 C 0.25354 0.20794 0.32121 0.0
C165 C 0.25799 0.24948 0.4011 0.0
C166 C 0.28642 0.20306 0.34182 0.0
N167 N 0.28835 0.22377 0.38131 0.0
C168 C 0.22465 0.25487 0.38149 0.0
C169 C 0.22252 0.23423 0.34123 0.0
C170 C 0.32225 0.35813 0.46347 0.0
C171 C 0.46923 0.39443 0.45932 0.0
C172 C 0.40707 0.41334 0.50474 0.0
C173 C 0.43096 0.47891 0.50046 0.0
C174 C 0.46229 0.46916 0.47766 0.0
N175 N 0.41426 0.33994 0.487 0.0
C176 C 0.44474 0.33014 0.46433 0.0
Co177 Co 0.1823 0.78046 0.40935 0.0
Co178 Co 0.13439 0.75484 0.49613 0.0
O179 O 0.13576 0.77806 0.43828 0.0
C180 C 0.12681 0.71666 0.35051 0.0
O181 O 0.10228 0.70512 0.37825 0.0
C182 C 0.08582 0.89862 0.4861 0.0
O183 O 0.11067 0.93167 0.46323 0.0
O184 O 0.16691 0.84904 0.5057 0.0
O185 O 0.20779 0.82668 0.45727 0.0
H186 H 0.18977 0.70866 0.63133 0.0
H187 H 0.11783 0.86888 0.3767 0.0
O188 O 0.159 0.73822 0.35921 0.0
H189 H 0.21802 0.06792 0.37528 0.0
H190 H 0.26473 0.81105 0.28997 0.0
H191 H 0.25736 0.73589 0.43219 0.0
H192 H 0.22673 0.93189 0.40457 0.0
H193 H 0.2066 0.82035 0.32606 0.0
O194 O 0.09083 0.82866 0.50174 0.0
H195 H 0.19045 0.73847 0.55923 0.0
H196 H 0.07524 0.72971 0.5559 0.0
H197 H 0.31611 0.72744 0.39743 0.0
H198 H 0.1081 0.00386 0.34642 0.0
H199 H 0.32002 0.76433 0.32567 0.0
H200 H 0.15853 0.10438 0.34506 0.0
O201 O 0.1921 0.66781 0.42745 0.0
H202 H 0.02337 0.61601 0.44146 0.0
H203 H 0.13356 0.58159 0.52316 0.0
H204 H 0.09152 0.46591 0.51498 0.0
H205 H 0.03575 0.48292 0.4742 0.0
H206 H 0.06639 0.73011 0.45018 0.0
H207 H 0.07331 0.70249 0.62823 0.0
H208 H 0.13089 0.69058 0.66634 0.0
O209 O 0.17792 0.67939 0.49224 0.0
C210 C 0.19732 0.86234 0.48904 0.0
C211 C 0.1645 0.71344 0.61503 0.0
C212 C 0.09914 0.71003 0.61329 0.0
N213 N 0.13295 0.73497 0.55323 0.0
C214 C 0.16471 0.72993 0.57413 0.0
C215 C 0.10041 0.72595 0.57236 0.0
C216 C 0.13146 0.70336 0.63466 0.0
C217 C 0.13999 0.91178 0.37607 0.0
N218 N 0.17311 0.89128 0.39138 0.0
C219 C 0.13424 0.98852 0.35909 0.0
C220 C 0.16252 0.04496 0.35843 0.0
C221 C 0.19585 0.02467 0.37538 0.0
C222 C 0.20058 0.94743 0.39209 0.0
C223 C 0.26335 0.79465 0.32123 0.0
C224 C 0.25884 0.75314 0.40112 0.0
C225 C 0.23045 0.7995 0.34182 0.0
N226 N 0.22849 0.7788 0.38131 0.0
C227 C 0.2922 0.74777 0.38153 0.0
C228 C 0.29436 0.7684 0.34126 0.0
C229 C 0.19457 0.64442 0.46348 0.0
C230 C 0.0476 0.60783 0.45926 0.0
C231 C 0.10972 0.58914 0.50474 0.0
C232 C 0.08588 0.52351 0.50045 0.0
C233 C 0.05457 0.53314 0.47762 0.0
N234 N 0.10252 0.66249 0.48696 0.0
C235 C 0.07206 0.67219 0.46426 0.0
Co236 Co 0.68238 0.72229 0.90913 0.0
Co237 Co 0.63453 0.74791 0.99592 0.0
O238 O 0.63586 0.72463 0.93808 0.0
C239 C 0.62677 0.78559 0.85032 0.0
O240 O 0.60224 0.79693 0.87807 0.0
C241 C 0.586 0.60402 0.986 0.0
O242 O 0.6109 0.57091 0.9632 0.0
O243 O 0.66705 0.65372 0.00547 0.0
O244 O 0.70793 0.67622 0.95704 0.0
H245 H 0.68997 0.79421 0.13109 0.0
H246 H 0.61792 0.63349 0.87666 0.0
O247 O 0.65901 0.76438 0.85899 0.0
H248 H 0.71829 0.43492 0.87508 0.0
H249 H 0.76475 0.69182 0.78968 0.0
H250 H 0.75745 0.76704 0.93189 0.0
H251 H 0.72694 0.57105 0.90429 0.0
H252 H 0.70664 0.68244 0.82581 0.0
O253 O 0.59097 0.67407 1.00156 0.0
H254 H 0.69062 0.76435 0.05899 0.0
H255 H 0.57541 0.77302 0.05572 0.0
H256 H 0.81617 0.77557 0.89709 0.0
H257 H 0.60825 0.4984 0.84647 0.0
H258 H 0.82004 0.73863 0.82533 0.0
H259 H 0.65877 0.39813 0.84502 0.0
O260 O 0.69213 0.835 0.92718 0.0
H261 H 0.52346 0.88679 0.9414 0.0
H262 H 0.63375 0.92116 0.02295 0.0
H263 H 0.59171 0.03685 0.01484 0.0
H264 H 0.53588 0.01987 0.97415 0.0
H265 H 0.56648 0.77267 0.95005 0.0
H266 H 0.57351 0.80027 0.12805 0.0
H267 H 0.6311 0.81226 0.16613 0.0
O268 O 0.67806 0.82335 0.99199 0.0
C269 C 0.69746 0.64047 0.98879 0.0
C270 C 0.6647 0.7894 0.1148 0.0
C271 C 0.59934 0.79275 0.1131 0.0
N272 N 0.63312 0.7678 0.05302 0.0
C273 C 0.66489 0.77288 0.07391 0.0
C274 C 0.60059 0.77681 0.07217 0.0
C275 C 0.63166 0.79946 0.13444 0.0
C276 C 0.64012 0.5907 0.87599 0.0
N277 N 0.67325 0.6114 0.8912 0.0
C278 C 0.6344 0.5139 0.85907 0.0
C279 C 0.66273 0.45759 0.85836 0.0
C280 C 0.69608 0.47808 0.8752 0.0
C281 C 0.70077 0.55538 0.89187 0.0
C282 C 0.76337 0.70824 0.82093 0.0
C283 C 0.75891 0.74978 0.90082 0.0
C284 C 0.73049 0.70335 0.84155 0.0
N285 N 0.72855 0.72405 0.88104 0.0
C286 C 0.79225 0.75518 0.8812 0.0
C287 C 0.79439 0.73453 0.84094 0.0
C288 C 0.69467 0.85836 0.96321 0.0
C289 C 0.54772 0.89496 0.95917 0.0
C290 C 0.6099 0.91362 0.00455 0.0
C291 C 0.58605 0.97926 1.00031 0.0
C292 C 0.55471 0.96964 0.97752 0.0
N293 N 0.60266 0.84027 0.98678 0.0
C294 C 0.57217 0.83059 0.96413 0.0
Co295 Co 0.83468 0.2806 0.90904 0.0
Co296 Co 0.88248 0.25523 0.99586 0.0
O297 O 0.88118 0.27846 0.93802 0.0
C298 C 0.89036 0.21732 0.85027 0.0
O299 O 0.91486 0.20594 0.87805 0.0
C300 C 0.93088 0.39935 0.98595 0.0
O301 O 0.90605 0.43221 0.96301 0.0
O302 O 0.84985 0.34923 0.00539 0.0
O303 O 0.80904 0.32657 0.95693 0.0
H304 H 0.82691 0.20873 0.13098 0.0
H305 H 0.89909 0.36955 0.87654 0.0
O306 O 0.85812 0.2386 0.85891 0.0
H307 H 0.79864 0.56792 0.87509 0.0
H308 H 0.75241 0.31116 0.78956 0.0
H309 H 0.75962 0.23552 0.93172 0.0
H310 H 0.79004 0.43172 0.90424 0.0
H311 H 0.81049 0.32049 0.82573 0.0
O312 O 0.92594 0.32934 1.00156 0.0
H313 H 0.82633 0.2385 0.05887 0.0
H314 H 0.94155 0.23044 0.05572 0.0
H315 H 0.70092 0.22703 0.89689 0.0
H316 H 0.90871 0.50471 0.84641 0.0
H317 H 0.69709 0.26422 0.82516 0.0
H318 H 0.85814 0.60489 0.84503 0.0
O319 O 0.82498 0.16786 0.92708 0.0
H320 H 0.99375 0.11701 0.94139 0.0
H321 H 0.88344 0.08197 0.02289 0.0
H322 H 0.92563 0.96654 0.01479 0.0
H323 H 0.98147 0.98386 0.97412 0.0
H324 H 0.95059 0.23087 0.95003 0.0
H325 H 0.94338 0.20329 0.12806 0.0
H326 H 0.88576 0.19105 0.16608 0.0
O327 O 0.83903 0.17953 0.9919 0.0
C328 C 0.81944 0.36233 0.9887 0.0
C329 C 0.8522 0.21366 0.11471 0.0
C330 C 0.91757 0.21065 0.11308 0.0
N331 N 0.88384 0.23535 0.05296 0.0
C332 C 0.85205 0.23012 0.07382 0.0
C333 C 0.91636 0.22653 0.07214 0.0
C334 C 0.88523 0.2038 0.13439 0.0
C335 C 0.87687 0.4123 0.8759 0.0
N336 N 0.84375 0.39152 0.89113 0.0
C337 C 0.88256 0.48914 0.85901 0.0
C338 C 0.85421 0.5454 0.85834 0.0
C339 C 0.82086 0.52481 0.87519 0.0
C340 C 0.81621 0.44748 0.89183 0.0
C341 C 0.75376 0.29465 0.8208 0.0
C342 C 0.75817 0.25287 0.90066 0.0
C343 C 0.78662 0.2995 0.84144 0.0
N344 N 0.78854 0.2787 0.88091 0.0
C345 C 0.72485 0.24748 0.88103 0.0
C346 C 0.72273 0.26827 0.84078 0.0
C347 C 0.82246 0.14447 0.96312 0.0
C348 C 0.96949 0.1087 0.95914 0.0
C349 C 0.9073 0.08966 0.0045 0.0
C350 C 0.93123 0.02416 1.00027 0.0
C351 C 0.96258 0.03397 0.97749 0.0
N352 N 0.91446 0.16305 0.98674 0.0
C353 C 0.94496 0.17292 0.9641 0.0
Co354 Co 0.68245 0.78087 0.59846 0.0
Co355 Co 0.63458 0.7553 0.51168 0.0
O356 O 0.63592 0.77855 0.56952 0.0
C357 C 0.6269 0.71702 0.65722 0.0
O358 O 0.60245 0.70527 0.62943 0.0
C359 C 0.58614 0.89933 0.5217 0.0
O360 O 0.61103 0.93208 0.54462 0.0
O361 O 0.66716 0.84935 0.5021 0.0
O362 O 0.708 0.82698 0.55055 0.0
H363 H 0.69006 0.70861 0.37653 0.0
H364 H 0.618 0.86938 0.63112 0.0
O365 O 0.65908 0.73872 0.64859 0.0
H366 H 0.71823 0.06833 0.63246 0.0
H367 H 0.76477 0.81146 0.7179 0.0
H368 H 0.75753 0.73614 0.5757 0.0
H369 H 0.72693 0.93223 0.60323 0.0
H370 H 0.70667 0.82079 0.68176 0.0
O371 O 0.59106 0.82936 0.50603 0.0
H372 H 0.69069 0.73859 0.44861 0.0
H373 H 0.57547 0.73031 0.45189 0.0
H374 H 0.81624 0.72765 0.61051 0.0
H375 H 0.60828 0.00444 0.66133 0.0
H376 H 0.82008 0.76464 0.68226 0.0
H377 H 0.65873 0.10491 0.66265 0.0
O378 O 0.69223 0.66819 0.58039 0.0
H379 H 0.52338 0.61694 0.56624 0.0
H380 H 0.63369 0.58198 0.48471 0.0
H381 H 0.59154 0.46649 0.49285 0.0
H382 H 0.5357 0.48377 0.53353 0.0
H383 H 0.56652 0.73085 0.55757 0.0
H384 H 0.57359 0.70296 0.37956 0.0
H385 H 0.63119 0.69071 0.34149 0.0
O386 O 0.67806 0.67969 0.5156 0.0
C387 C 0.69757 0.86261 0.51877 0.0
C388 C 0.66478 0.71354 0.39281 0.0
C389 C 0.59941 0.71042 0.39452 0.0
N390 N 0.63318 0.73535 0.45458 0.0
C391 C 0.66496 0.73012 0.4337 0.0
C392 C 0.60065 0.72641 0.43544 0.0
C393 C 0.63174 0.70356 0.37317 0.0
C394 C 0.64017 0.91228 0.63172 0.0
N395 N 0.67329 0.89172 0.61641 0.0
C396 C 0.63442 0.98905 0.64866 0.0
C397 C 0.66271 0.04547 0.64931 0.0
C398 C 0.69605 0.0251 0.63238 0.0
C399 C 0.70077 0.94782 0.61569 0.0
C400 C 0.76341 0.79502 0.68666 0.0
C401 C 0.75898 0.75342 0.60677 0.0
C402 C 0.73054 0.79988 0.66603 0.0
N403 N 0.72861 0.77915 0.62655 0.0
C404 C 0.79231 0.74804 0.62639 0.0
C405 C 0.79444 0.76871 0.66665 0.0
C406 C 0.69471 0.64475 0.54437 0.0
C407 C 0.54764 0.60864 0.54848 0.0
C408 C 0.60983 0.58965 0.5031 0.0
C409 C 0.58591 0.52412 0.50736 0.0
C410 C 0.55457 0.53391 0.53014 0.0
N411 N 0.60264 0.66306 0.52085 0.0
C412 C 0.57216 0.67289 0.5435 0.0
Co413 Co 0.83472 0.22238 0.59842 0.0
Co414 Co 0.88254 0.24794 0.51158 0.0
O415 O 0.88122 0.22463 0.56941 0.0
C416 C 0.89037 0.28576 0.65716 0.0
O417 O 0.91487 0.29719 0.62937 0.0
C418 C 0.93086 0.10376 0.52147 0.0
O419 O 0.90591 0.07097 0.5443 0.0
O420 O 0.84992 0.15394 0.50202 0.0
O421 O 0.80912 0.17636 0.55053 0.0
H422 H 0.82701 0.29464 0.37649 0.0
H423 H 0.89917 0.13356 0.63088 0.0
O424 O 0.85814 0.26443 0.64853 0.0
H425 H 0.79877 0.93504 0.63244 0.0
H426 H 0.75245 0.19183 0.71794 0.0
H427 H 0.75965 0.26729 0.57575 0.0
H428 H 0.79014 0.07118 0.60324 0.0
H429 H 0.81052 0.18247 0.68174 0.0
O430 O 0.92602 0.17382 0.50588 0.0
H431 H 0.82641 0.2647 0.44858 0.0
H432 H 0.94162 0.27292 0.45173 0.0
H433 H 0.70096 0.27582 0.61062 0.0
H434 H 0.90882 0.99846 0.66106 0.0
H435 H 0.69713 0.23874 0.68236 0.0
H436 H 0.85828 0.89821 0.6625 0.0
O437 O 0.82498 0.33511 0.58039 0.0
H438 H 0.99376 0.38616 0.5661 0.0
H439 H 0.88346 0.42126 0.48465 0.0
H440 H 0.92561 0.53675 0.49282 0.0
H441 H 0.98144 0.51939 0.53347 0.0
H442 H 0.95063 0.27226 0.5574 0.0
H443 H 0.94348 0.30026 0.3794 0.0
H444 H 0.88586 0.3125 0.34139 0.0
O445 O 0.83908 0.32358 0.51557 0.0
C446 C 0.81953 0.14072 0.51873 0.0
C447 C 0.8523 0.28971 0.39275 0.0
C448 C 0.91766 0.29282 0.39439 0.0
N449 N 0.88392 0.26792 0.45449 0.0
C450 C 0.85213 0.27315 0.43364 0.0
C451 C 0.91644 0.27684 0.43531 0.0
C452 C 0.88533 0.29967 0.37307 0.0
C453 C 0.87696 0.09077 0.63154 0.0
N454 N 0.84383 0.11148 0.61632 0.0
C455 C 0.88267 0.01397 0.64846 0.0
C456 C 0.85433 0.95767 0.64917 0.0
C457 C 0.82098 0.97818 0.63232 0.0
C458 C 0.81631 0.05548 0.61565 0.0
C459 C 0.7538 0.2083 0.6867 0.0
C460 C 0.7582 0.24998 0.60682 0.0
C461 C 0.78666 0.20343 0.66604 0.0
N462 N 0.78857 0.22419 0.62656 0.0
C463 C 0.72488 0.25539 0.62647 0.0
C464 C 0.72276 0.23466 0.66673 0.0
C465 C 0.82247 0.35855 0.54436 0.0
C466 C 0.96951 0.39449 0.54836 0.0
C467 C 0.90732 0.41356 0.50303 0.0
C468 C 0.93123 0.47908 0.5073 0.0
C469 C 0.96257 0.46926 0.53007 0.0
N470 N 0.9145 0.34013 0.52074 0.0
C471 C 0.94499 0.33025 0.54336 0.0
C472 C 0.27266 0.03077 0.03226 0.0
C473 C 0.29577 0.08272 0.03556 0.0
C474 C 0.24443 0.97198 0.0323 0.0
C475 C 0.22132 0.92006 0.03565 0.0
C476 C 0.24429 0.53068 0.47565 0.0
C477 C 0.22118 0.5826 0.4723 0.0
C478 C 0.27251 0.47188 0.47564 0.0
C479 C 0.29562 0.41994 0.47228 0.0
C480 C 0.74447 0.97199 0.97531 0.0
C481 C 0.72133 0.92011 0.97199 0.0
C482 C 0.77272 0.03073 0.97528 0.0
C483 C 0.79583 0.08266 0.97191 0.0
C484 C 0.74447 0.53104 0.53223 0.0
C485 C 0.72135 0.58295 0.53556 0.0
C486 C 0.77272 0.47228 0.53225 0.0
C487 C 0.79583 0.42036 0.53559 0.0
C488 C 0.40475 0.24142 0.23336 0.0
C489 C 0.40106 0.22851 0.19811 0.0
C490 C 0.40473 0.26188 0.2744 0.0
C491 C 0.401 0.27476 0.30965 0.0
C492 C 0.11215 0.74025 0.27442 0.0
C493 C 0.11588 0.72735 0.30966 0.0
C494 C 0.11213 0.76079 0.23338 0.0
C495 C 0.11584 0.77381 0.19815 0.0
C496 C 0.61208 0.76151 0.77427 0.0
C497 C 0.61582 0.77461 0.80949 0.0
C498 C 0.61209 0.74082 0.73326 0.0
C499 C 0.61586 0.72779 0.69803 0.0
C500 C 0.90513 0.26187 0.73321 0.0
C501 C 0.90136 0.2749 0.69798 0.0
C502 C 0.90513 0.24124 0.77422 0.0
C503 C 0.90136 0.2282 0.80945 0.0
C504 C 0.49222 0.47956 0.00735 0.0
C505 C 0.46437 0.44248 0.01363 0.0
C506 C 0.5248 0.5234 0.99996 0.0
C507 C 0.55266 0.56051 0.99372 0.0
C508 C 0.02466 0.52379 0.00732 0.0
C509 C 0.05253 0.56079 0.01363 0.0
C510 C 0.99204 0.48009 0.99996 0.0
C511 C 0.9642 0.44297 0.99367 0.0
C512 C 0.52492 0.97986 0.50762 0.0
C513 C 0.55283 0.94305 0.51401 0.0
C514 C 0.49228 0.02346 0.50018 0.0
C515 C 0.46443 0.06055 0.4939 0.0
C516 C 0.99206 0.02315 0.5074 0.0
C517 C 0.96416 0.06 0.51378 0.0
C518 C 0.02466 0.97939 0.49998 0.0
C519 C 0.05248 0.94213 0.49381 0.0
C520 C 0.24448 0.53055 0.9948 0.0
C521 C 0.2211 0.57923 1.00265 0.0
C522 C 0.27259 0.47234 0.99478 0.0
C523 C 0.29597 0.42364 1.00262 0.0
C524 C 0.2724 0.03042 0.51288 0.0
C525 C 0.29581 0.07907 0.50505 0.0
C526 C 0.24426 0.97226 0.51287 0.0
C527 C 0.22088 0.92357 0.50503 0.0
C528 C 0.74435 0.5304 0.01253 0.0
C529 C 0.72099 0.57916 0.00472 0.0
C530 C 0.77244 0.47216 0.0125 0.0
C531 C 0.79583 0.4235 0.00464 0.0
C532 C 0.74449 0.97256 0.49493 0.0
C533 C 0.72112 0.92383 0.50279 0.0
C534 C 0.77258 0.03081 0.49493 0.0
C535 C 0.79595 0.07952 0.50277 0.0
loop_
_geom_bond_atom_site_label_1
_geom_bond_atom_site_label_2
_geom_bond_distance
_geom_bond_site_symmetry_2
_ccdc_geom_bond_type
Co0 O2 2.143 . S
Co0 O8 2.074 . S
Co0 O11 2.093 . S
Co0 O24 2.097 . S
Co0 N41 2.151 . S
Co0 N49 2.214 . S
Co1 O2 2.160 1_556 S
Co1 O7 2.058 . S
Co1 O17 2.057 . S
Co1 O32 2.037 1_556 S
Co1 N36 2.145 . S
Co1 N57 2.257 1_556 S
O2 Co0 2.143 . S
O2 Co1 2.160 1_554 S
C3 O4 1.278 . S
C3 O11 1.224 . S
O4 C3 1.278 . S
C5 O6 1.245 . S
C5 O17 1.232 1_554 S
O6 C5 1.245 . S
O7 Co1 2.058 . S
O7 C33 1.269 1_556 S
O8 Co0 2.074 . S
O8 C33 1.257 . S
H9 C34 0.930 . S
H10 C40 0.930 . S
O11 Co0 2.093 . S
O11 C3 1.224 . S
H12 C44 0.929 . S
H13 C46 0.930 . S
H14 C47 0.930 . S
H15 C45 0.929 . S
H16 C48 0.928 . S
O17 Co1 2.057 . S
O17 C5 1.232 1_556 S
H18 C37 0.929 . S
H19 C38 0.929 . S
H20 C50 0.931 . S
H21 C42 0.929 . S
H22 C51 0.930 . S
H23 C43 0.931 . S
O24 Co0 2.097 . S
O24 C52 1.214 . S
H25 C53 0.929 . S
H26 C54 0.929 . S
H27 C55 0.928 1_566 S
H28 C56 0.929 1_565 S
H29 C58 0.930 . S
H30 C35 0.930 . S
H31 C39 0.930 . S
O32 Co1 2.037 1_554 S
O32 C52 1.234 . S
C33 O7 1.269 1_554 S
C33 O8 1.257 . S
C34 H9 0.930 . S
C34 C37 1.388 . S
C34 C39 1.418 . S
C35 H30 0.930 . S
C35 C38 1.404 . S
C35 C39 1.353 . S
N36 Co1 2.145 . S
N36 C37 1.397 . S
N36 C38 1.334 . S
C37 H18 0.929 . S
C37 C34 1.388 . S
C37 N36 1.397 . S
C38 H19 0.929 . S
C38 C35 1.404 . S
C38 N36 1.334 . S
C39 H31 0.930 . S
C39 C34 1.418 . S
C39 C35 1.353 . S
C40 H10 0.930 . S
C40 N41 1.330 . S
C40 C42 1.446 . S
N41 Co0 2.151 . S
N41 C40 1.330 . S
N41 C45 1.418 . S
C42 H21 0.929 . S
C42 C40 1.446 . S
C42 C43 1.332 . S
C43 H23 0.931 . S
C43 C42 1.332 . S
C43 C44 1.267 . S
C44 H12 0.929 . S
C44 C43 1.267 . S
C44 C45 1.251 . S
C45 H15 0.929 . S
C45 N41 1.418 . S
C45 C44 1.251 . S
C46 H13 0.930 . S
C46 C48 1.406 . S
C46 C51 1.261 . S
C47 H14 0.930 . S
C47 N49 1.325 . S
C47 C50 1.357 . S
C48 H16 0.928 . S
C48 C46 1.406 . S
C48 N49 1.261 . S
N49 Co0 2.214 . S
N49 C47 1.325 . S
N49 C48 1.261 . S
C50 H20 0.931 . S
C50 C47 1.357 . S
C50 C51 1.312 . S
C51 H22 0.930 . S
C51 C46 1.261 . S
C51 C50 1.312 . S
C52 O24 1.214 . S
C52 O32 1.234 . S
C53 H25 0.929 . S
C53 C56 1.391 . S
C53 C58 1.391 . S
C54 H26 0.929 . S
C54 C55 1.389 1_556 S
C54 N57 1.391 1_556 S
C55 H27 0.928 1_544 S
C55 C54 1.389 1_554 S
C55 C56 1.394 . S
C56 H28 0.929 1_545 S
C56 C53 1.391 . S
C56 C55 1.394 . S
N57 Co1 2.257 1_554 S
N57 C54 1.391 1_554 S
N57 C58 1.388 . S
C58 H29 0.930 . S
C58 C53 1.391 . S
C58 N57 1.388 . S
Co59 O61 2.143 . S
Co59 O67 2.074 . S
Co59 O70 2.093 . S
Co59 O83 2.097 . S
Co59 N100 2.151 . S
Co59 N108 2.214 . S
Co60 O61 2.160 1_556 S
Co60 O66 2.058 . S
Co60 O76 2.057 . S
Co60 O91 2.037 1_556 S
Co60 N95 2.145 . S
Co60 N116 2.257 1_556 S
O61 Co59 2.143 . S
O61 Co60 2.160 1_554 S
C62 O63 1.278 . S
C62 O70 1.224 . S
O63 C62 1.278 . S
C64 O65 1.245 . S
C64 O76 1.232 1_554 S
O65 C64 1.245 . S
O66 Co60 2.058 . S
O66 C92 1.269 1_556 S
O67 Co59 2.074 . S
O67 C92 1.257 . S
H68 C93 0.930 . S
H69 C99 0.930 . S
O70 Co59 2.093 . S
O70 C62 1.224 . S
H71 C103 0.929 . S
H72 C105 0.930 . S
H73 C106 0.930 . S
H74 C104 0.929 . S
H75 C107 0.928 . S
O76 Co60 2.057 . S
O76 C64 1.232 1_556 S
H77 C96 0.929 . S
H78 C97 0.929 . S
H79 C109 0.931 . S
H80 C101 0.929 . S
H81 C110 0.930 . S
H82 C102 0.931 . S
O83 Co59 2.097 . S
O83 C111 1.214 . S
H84 C112 0.929 . S
H85 C113 0.929 . S
H86 C114 0.927 1_546 S
H87 C115 0.929 1_545 S
H88 C117 0.930 . S
H89 C94 0.930 . S
H90 C98 0.930 . S
O91 Co60 2.037 1_554 S
O91 C111 1.234 . S
C92 O66 1.269 1_554 S
C92 O67 1.257 . S
C93 H68 0.930 . S
C93 C96 1.388 . S
C93 C98 1.418 . S
C94 H89 0.930 . S
C94 C97 1.404 . S
C94 C98 1.353 . S
N95 Co60 2.145 . S
N95 C96 1.397 . S
N95 C97 1.334 . S
C96 H77 0.929 . S
C96 C93 1.388 . S
C96 N95 1.397 . S
C97 H78 0.929 . S
C97 C94 1.404 . S
C97 N95 1.334 . S
C98 H90 0.930 . S
C98 C93 1.418 . S
C98 C94 1.353 . S
C99 H69 0.930 . S
C99 N100 1.330 . S
C99 C101 1.446 . S
N100 Co59 2.151 . S
N100 C99 1.330 . S
N100 C104 1.418 . S
C101 H80 0.929 . S
C101 C99 1.446 . S
C101 C102 1.332 . S
C102 H82 0.931 . S
C102 C101 1.332 . S
C102 C103 1.267 . S
C103 H71 0.929 . S
C103 C102 1.267 . S
C103 C104 1.251 . S
C104 H74 0.929 . S
C104 N100 1.418 . S
C104 C103 1.251 . S
C105 H72 0.930 . S
C105 C107 1.406 . S
C105 C110 1.261 . S
C106 H73 0.930 . S
C106 N108 1.325 . S
C106 C109 1.357 . S
C107 H75 0.928 . S
C107 C105 1.406 . S
C107 N108 1.261 . S
N108 Co59 2.214 . S
N108 C106 1.325 . S
N108 C107 1.261 . S
C109 H79 0.931 . S
C109 C106 1.357 . S
C109 C110 1.312 . S
C110 H81 0.930 . S
C110 C105 1.261 . S
C110 C109 1.312 . S
C111 O83 1.214 . S
C111 O91 1.234 . S
C112 H84 0.929 . S
C112 C115 1.391 . S
C112 C117 1.391 . S
C113 H85 0.929 . S
C113 C114 1.389 1_556 S
C113 N116 1.391 1_556 S
C114 H86 0.927 1_564 S
C114 C113 1.389 1_554 S
C114 C115 1.396 . S
C115 H87 0.929 1_565 S
C115 C112 1.391 . S
C115 C114 1.396 . S
N116 Co60 2.257 1_554 S
N116 C113 1.391 1_554 S
N116 C117 1.388 . S
C117 H88 0.930 . S
C117 C112 1.391 . S
C117 N116 1.388 . S
Co118 O120 2.143 . S
Co118 O126 2.074 . S
Co118 O129 2.093 . S
Co118 O142 2.097 . S
Co118 N159 2.151 . S
Co118 N167 2.214 . S
Co119 O120 2.160 . S
Co119 O125 2.058 . S
Co119 O135 2.057 . S
Co119 O150 2.037 . S
Co119 N154 2.145 . S
Co119 N175 2.257 . S
O120 Co118 2.143 . S
O120 Co119 2.160 . S
C121 O122 1.278 . S
C121 O129 1.224 . S
O122 C121 1.278 . S
C123 O124 1.245 . S
C123 O135 1.232 . S
O124 C123 1.245 . S
O125 Co119 2.058 . S
O125 C151 1.269 . S
O126 Co118 2.074 . S
O126 C151 1.257 . S
H127 C152 0.930 . S
H128 C158 0.930 . S
O129 Co118 2.093 . S
O129 C121 1.224 . S
H130 C162 0.929 . S
H131 C164 0.930 . S
H132 C165 0.930 . S
H133 C163 0.929 . S
H134 C166 0.928 . S
O135 Co119 2.057 . S
O135 C123 1.232 . S
H136 C155 0.929 . S
H137 C156 0.929 . S
H138 C168 0.931 . S
H139 C160 0.929 . S
H140 C169 0.930 . S
H141 C161 0.931 . S
O142 Co118 2.097 . S
O142 C170 1.214 . S
H143 C171 0.929 . S
H144 C172 0.929 . S
H145 C173 0.930 . S
H146 C174 0.929 . S
H147 C176 0.930 . S
H148 C153 0.930 . S
H149 C157 0.930 . S
O150 Co119 2.037 . S
O150 C170 1.234 . S
C151 O125 1.269 . S
C151 O126 1.257 . S
C152 H127 0.930 . S
C152 C155 1.388 . S
C152 C157 1.418 . S
C153 H148 0.930 . S
C153 C156 1.404 . S
C153 C157 1.353 . S
N154 Co119 2.145 . S
N154 C155 1.397 . S
N154 C156 1.334 . S
C155 H136 0.929 . S
C155 C152 1.388 . S
C155 N154 1.397 . S
C156 H137 0.929 . S
C156 C153 1.404 . S
C156 N154 1.334 . S
C157 H149 0.930 . S
C157 C152 1.418 . S
C157 C153 1.353 . S
C158 H128 0.930 . S
C158 N159 1.330 . S
C158 C160 1.446 . S
N159 Co118 2.151 . S
N159 C158 1.330 . S
N159 C163 1.418 . S
C160 H139 0.929 . S
C160 C158 1.446 . S
C160 C161 1.332 1_545 S
C161 H141 0.931 . S
C161 C160 1.332 1_565 S
C161 C162 1.267 . S
C162 H130 0.929 . S
C162 C161 1.267 . S
C162 C163 1.251 1_565 S
C163 H133 0.929 . S
C163 N159 1.418 . S
C163 C162 1.251 1_545 S
C164 H131 0.930 . S
C164 C166 1.406 . S
C164 C169 1.261 . S
C165 H132 0.930 . S
C165 N167 1.325 . S
C165 C168 1.357 . S
C166 H134 0.928 . S
C166 C164 1.406 . S
C166 N167 1.261 . S
N167 Co118 2.214 . S
N167 C165 1.325 . S
N167 C166 1.261 . S
C168 H138 0.931 . S
C168 C165 1.357 . S
C168 C169 1.312 . S
C169 H140 0.930 . S
C169 C164 1.261 . S
C169 C168 1.312 . S
C170 O142 1.214 . S
C170 O150 1.234 . S
C171 H143 0.929 . S
C171 C174 1.391 . S
C171 C176 1.391 . S
C172 H144 0.929 . S
C172 C173 1.390 . S
C172 N175 1.391 . S
C173 H145 0.930 . S
C173 C172 1.390 . S
C173 C174 1.392 . S
C174 H146 0.929 . S
C174 C171 1.391 . S
C174 C173 1.392 . S
N175 Co119 2.257 . S
N175 C172 1.391 . S
N175 C176 1.388 . S
C176 H147 0.930 . S
C176 C171 1.391 . S
C176 N175 1.388 . S
Co177 O179 2.143 . S
Co177 O185 2.074 . S
Co177 O188 2.093 . S
Co177 O201 2.097 . S
Co177 N218 2.151 . S
Co177 N226 2.214 . S
Co178 O179 2.160 . S
Co178 O184 2.058 . S
Co178 O194 2.057 . S
Co178 O209 2.037 . S
Co178 N213 2.145 . S
Co178 N234 2.257 . S
O179 Co177 2.143 . S
O179 Co178 2.160 . S
C180 O181 1.278 . S
C180 O188 1.224 . S
O181 C180 1.278 . S
C182 O183 1.245 . S
C182 O194 1.232 . S
O183 C182 1.245 . S
O184 Co178 2.058 . S
O184 C210 1.269 . S
O185 Co177 2.074 . S
O185 C210 1.257 . S
H186 C211 0.930 . S
H187 C217 0.930 . S
O188 Co177 2.093 . S
O188 C180 1.224 . S
H189 C221 0.929 . S
H190 C223 0.930 . S
H191 C224 0.930 . S
H192 C222 0.929 . S
H193 C225 0.928 . S
O194 Co178 2.057 . S
O194 C182 1.232 . S
H195 C214 0.929 . S
H196 C215 0.929 . S
H197 C227 0.931 . S
H198 C219 0.929 . S
H199 C228 0.930 . S
H200 C220 0.931 . S
O201 Co177 2.097 . S
O201 C229 1.214 . S
H202 C230 0.929 . S
H203 C231 0.929 . S
H204 C232 0.930 . S
H205 C233 0.929 . S
H206 C235 0.930 . S
H207 C212 0.930 . S
H208 C216 0.930 . S
O209 Co178 2.037 . S
O209 C229 1.234 . S
C210 O184 1.269 . S
C210 O185 1.257 . S
C211 H186 0.930 . S
C211 C214 1.388 . S
C211 C216 1.418 . S
C212 H207 0.930 . S
C212 C215 1.404 . S
C212 C216 1.353 . S
N213 Co178 2.145 . S
N213 C214 1.397 . S
N213 C215 1.334 . S
C214 H195 0.929 . S
C214 C211 1.388 . S
C214 N213 1.397 . S
C215 H196 0.929 . S
C215 C212 1.404 . S
C215 N213 1.334 . S
C216 H208 0.930 . S
C216 C211 1.418 . S
C216 C212 1.353 . S
C217 H187 0.930 . S
C217 N218 1.330 . S
C217 C219 1.446 . S
N218 Co177 2.151 . S
N218 C217 1.330 . S
N218 C222 1.418 . S
C219 H198 0.929 . S
C219 C217 1.446 . S
C219 C220 1.332 1_565 S
C220 H200 0.931 . S
C220 C219 1.332 1_545 S
C220 C221 1.267 . S
C221 H189 0.929 . S
C221 C220 1.267 . S
C221 C222 1.251 1_545 S
C222 H192 0.929 . S
C222 N218 1.418 . S
C222 C221 1.251 1_565 S
C223 H190 0.930 . S
C223 C225 1.406 . S
C223 C228 1.261 . S
C224 H191 0.930 . S
C224 N226 1.325 . S
C224 C227 1.357 . S
C225 H193 0.928 . S
C225 C223 1.406 . S
C225 N226 1.261 . S
N226 Co177 2.214 . S
N226 C224 1.325 . S
N226 C225 1.261 . S
C227 H197 0.931 . S
C227 C224 1.357 . S
C227 C228 1.312 . S
C228 H199 0.930 . S
C228 C223 1.261 . S
C228 C227 1.312 . S
C229 O201 1.214 . S
C229 O209 1.234 . S
C230 H202 0.929 . S
C230 C233 1.391 . S
C230 C235 1.391 . S
C231 H203 0.929 . S
C231 C232 1.390 . S
C231 N234 1.391 . S
C232 H204 0.930 . S
C232 C231 1.390 . S
C232 C233 1.392 . S
C233 H205 0.929 . S
C233 C230 1.391 . S
C233 C232 1.392 . S
N234 Co178 2.257 . S
N234 C231 1.391 . S
N234 C235 1.388 . S
C235 H206 0.930 . S
C235 C230 1.391 . S
C235 N234 1.388 . S
Co236 O238 2.143 . S
Co236 O244 2.074 . S
Co236 O247 2.093 . S
Co236 O260 2.097 . S
Co236 N277 2.151 . S
Co236 N285 2.214 . S
Co237 O238 2.160 1_554 S
Co237 O243 2.058 . S
Co237 O253 2.057 . S
Co237 O268 2.037 1_554 S
Co237 N272 2.145 . S
Co237 N293 2.257 1_554 S
O238 Co236 2.143 . S
O238 Co237 2.160 1_556 S
C239 O240 1.278 . S
C239 O247 1.224 . S
O240 C239 1.278 . S
C241 O242 1.245 . S
C241 O253 1.232 1_556 S
O242 C241 1.245 . S
O243 Co237 2.058 . S
O243 C269 1.269 1_554 S
O244 Co236 2.074 . S
O244 C269 1.257 . S
H245 C270 0.930 . S
H246 C276 0.930 . S
O247 Co236 2.093 . S
O247 C239 1.224 . S
H248 C280 0.929 . S
H249 C282 0.930 . S
H250 C283 0.930 . S
H251 C281 0.929 . S
H252 C284 0.928 . S
O253 Co237 2.057 . S
O253 C241 1.232 1_554 S
H254 C273 0.929 . S
H255 C274 0.929 . S
H256 C286 0.931 . S
H257 C278 0.929 . S
H258 C287 0.930 . S
H259 C279 0.931 . S
O260 Co236 2.097 . S
O260 C288 1.214 . S
H261 C289 0.929 . S
H262 C290 0.929 . S
H263 C291 0.928 1_544 S
H264 C292 0.929 1_545 S
H265 C294 0.930 . S
H266 C271 0.930 . S
H267 C275 0.930 . S
O268 Co237 2.037 1_556 S
O268 C288 1.234 . S
C269 O243 1.269 1_556 S
C269 O244 1.257 . S
C270 H245 0.930 . S
C270 C273 1.388 . S
C270 C275 1.418 . S
C271 H266 0.930 . S
C271 C274 1.404 . S
C271 C275 1.353 . S
N272 Co237 2.145 . S
N272 C273 1.397 . S
N272 C274 1.334 . S
C273 H254 0.929 . S
C273 C270 1.388 . S
C273 N272 1.397 . S
C274 H255 0.929 . S
C274 C271 1.404 . S
C274 N272 1.334 . S
C275 H267 0.930 . S
C275 C270 1.418 . S
C275 C271 1.353 . S
C276 H246 0.930 . S
C276 N277 1.330 . S
C276 C278 1.446 . S
N277 Co236 2.151 . S
N277 C276 1.330 . S
N277 C281 1.418 . S
C278 H257 0.929 . S
C278 C276 1.446 . S
C278 C279 1.332 . S
C279 H259 0.931 . S
C279 C278 1.332 . S
C279 C280 1.267 . S
C280 H248 0.929 . S
C280 C279 1.267 . S
C280 C281 1.251 . S
C281 H251 0.929 . S
C281 N277 1.418 . S
C281 C280 1.251 . S
C282 H249 0.930 . S
C282 C284 1.406 . S
C282 C287 1.261 . S
C283 H250 0.930 . S
C283 N285 1.325 . S
C283 C286 1.357 . S
C284 H252 0.928 . S
C284 C282 1.406 . S
C284 N285 1.261 . S
N285 Co236 2.214 . S
N285 C283 1.325 . S
N285 C284 1.261 . S
C286 H256 0.931 . S
C286 C283 1.357 . S
C286 C287 1.312 . S
C287 H258 0.930 . S
C287 C282 1.261 . S
C287 C286 1.312 . S
C288 O260 1.214 . S
C288 O268 1.234 . S
C289 H261 0.929 . S
C289 C292 1.391 . S
C289 C294 1.391 . S
C290 H262 0.929 . S
C290 C291 1.389 1_554 S
C290 N293 1.391 1_554 S
C291 H263 0.928 1_566 S
C291 C290 1.389 1_556 S
C291 C292 1.394 . S
C292 H264 0.929 1_565 S
C292 C289 1.391 . S
C292 C291 1.394 . S
N293 Co237 2.257 1_556 S
N293 C290 1.391 1_556 S
N293 C294 1.388 . S
C294 H265 0.930 . S
C294 C289 1.391 . S
C294 N293 1.388 . S
Co295 O297 2.143 . S
Co295 O303 2.074 . S
Co295 O306 2.093 . S
Co295 O319 2.097 . S
Co295 N336 2.151 . S
Co295 N344 2.214 . S
Co296 O297 2.160 1_554 S
Co296 O302 2.058 . S
Co296 O312 2.057 . S
Co296 O327 2.037 1_554 S
Co296 N331 2.145 . S
Co296 N352 2.257 1_554 S
O297 Co295 2.143 . S
O297 Co296 2.160 1_556 S
C298 O299 1.278 . S
C298 O306 1.224 . S
O299 C298 1.278 . S
C300 O301 1.245 . S
C300 O312 1.232 1_556 S
O301 C300 1.245 . S
O302 Co296 2.058 . S
O302 C328 1.269 1_554 S
O303 Co295 2.074 . S
O303 C328 1.257 . S
H304 C329 0.930 . S
H305 C335 0.930 . S
O306 Co295 2.093 . S
O306 C298 1.224 . S
H307 C339 0.929 . S
H308 C341 0.930 . S
H309 C342 0.930 . S
H310 C340 0.929 . S
H311 C343 0.928 . S
O312 Co296 2.057 . S
O312 C300 1.232 1_554 S
H313 C332 0.929 . S
H314 C333 0.929 . S
H315 C345 0.931 . S
H316 C337 0.929 . S
H317 C346 0.930 . S
H318 C338 0.931 . S
O319 Co295 2.097 . S
O319 C347 1.214 . S
H320 C348 0.929 . S
H321 C349 0.929 . S
H322 C350 0.927 1_564 S
H323 C351 0.929 1_565 S
H324 C353 0.930 . S
H325 C330 0.930 . S
H326 C334 0.930 . S
O327 Co296 2.037 1_556 S
O327 C347 1.234 . S
C328 O302 1.269 1_556 S
C328 O303 1.257 . S
C329 H304 0.930 . S
C329 C332 1.388 . S
C329 C334 1.418 . S
C330 H325 0.930 . S
C330 C333 1.404 . S
C330 C334 1.353 . S
N331 Co296 2.145 . S
N331 C332 1.397 . S
N331 C333 1.334 . S
C332 H313 0.929 . S
C332 C329 1.388 . S
C332 N331 1.397 . S
C333 H314 0.929 . S
C333 C330 1.404 . S
C333 N331 1.334 . S
C334 H326 0.930 . S
C334 C329 1.418 . S
C334 C330 1.353 . S
C335 H305 0.930 . S
C335 N336 1.330 . S
C335 C337 1.446 . S
N336 Co295 2.151 . S
N336 C335 1.330 . S
N336 C340 1.418 . S
C337 H316 0.929 . S
C337 C335 1.446 . S
C337 C338 1.332 . S
C338 H318 0.931 . S
C338 C337 1.332 . S
C338 C339 1.267 . S
C339 H307 0.929 . S
C339 C338 1.267 . S
C339 C340 1.251 . S
C340 H310 0.929 . S
C340 N336 1.418 . S
C340 C339 1.251 . S
C341 H308 0.930 . S
C341 C343 1.406 . S
C341 C346 1.261 . S
C342 H309 0.930 . S
C342 N344 1.325 . S
C342 C345 1.357 . S
C343 H311 0.928 . S
C343 C341 1.406 . S
C343 N344 1.261 . S
N344 Co295 2.214 . S
N344 C342 1.325 . S
N344 C343 1.261 . S
C345 H315 0.931 . S
C345 C342 1.357 . S
C345 C346 1.312 . S
C346 H317 0.930 . S
C346 C341 1.261 . S
C346 C345 1.312 . S
C347 O319 1.214 . S
C347 O327 1.234 . S
C348 H320 0.929 . S
C348 C351 1.391 . S
C348 C353 1.391 . S
C349 H321 0.929 . S
C349 C350 1.389 1_554 S
C349 N352 1.391 1_554 S
C350 H322 0.927 1_546 S
C350 C349 1.389 1_556 S
C350 C351 1.396 . S
C351 H323 0.929 1_545 S
C351 C348 1.391 . S
C351 C350 1.396 . S
N352 Co296 2.257 1_556 S
N352 C349 1.391 1_556 S
N352 C353 1.388 . S
C353 H324 0.930 . S
C353 C348 1.391 . S
C353 N352 1.388 . S
Co354 O356 2.143 . S
Co354 O362 2.074 . S
Co354 O365 2.093 . S
Co354 O378 2.097 . S
Co354 N395 2.151 . S
Co354 N403 2.214 . S
Co355 O356 2.160 . S
Co355 O361 2.058 . S
Co355 O371 2.057 . S
Co355 O386 2.037 . S
Co355 N390 2.145 . S
Co355 N411 2.257 . S
O356 Co354 2.143 . S
O356 Co355 2.160 . S
C357 O358 1.278 . S
C357 O365 1.224 . S
O358 C357 1.278 . S
C359 O360 1.245 . S
C359 O371 1.232 . S
O360 C359 1.245 . S
O361 Co355 2.058 . S
O361 C387 1.269 . S
O362 Co354 2.074 . S
O362 C387 1.257 . S
H363 C388 0.930 . S
H364 C394 0.930 . S
O365 Co354 2.093 . S
O365 C357 1.224 . S
H366 C398 0.929 . S
H367 C400 0.930 . S
H368 C401 0.930 . S
H369 C399 0.929 . S
H370 C402 0.928 . S
O371 Co355 2.057 . S
O371 C359 1.232 . S
H372 C391 0.929 . S
H373 C392 0.929 . S
H374 C404 0.931 . S
H375 C396 0.929 . S
H376 C405 0.930 . S
H377 C397 0.931 . S
O378 Co354 2.097 . S
O378 C406 1.214 . S
H379 C407 0.929 . S
H380 C408 0.929 . S
H381 C409 0.930 . S
H382 C410 0.929 . S
H383 C412 0.930 . S
H384 C389 0.930 . S
H385 C393 0.930 . S
O386 Co355 2.037 . S
O386 C406 1.234 . S
C387 O361 1.269 . S
C387 O362 1.257 . S
C388 H363 0.930 . S
C388 C391 1.388 . S
C388 C393 1.418 . S
C389 H384 0.930 . S
C389 C392 1.404 . S
C389 C393 1.353 . S
N390 Co355 2.145 . S
N390 C391 1.397 . S
N390 C392 1.334 . S
C391 H372 0.929 . S
C391 C388 1.388 . S
C391 N390 1.397 . S
C392 H373 0.929 . S
C392 C389 1.404 . S
C392 N390 1.334 . S
C393 H385 0.930 . S
C393 C388 1.418 . S
C393 C389 1.353 . S
C394 H364 0.930 . S
C394 N395 1.330 . S
C394 C396 1.446 . S
N395 Co354 2.151 . S
N395 C394 1.330 . S
N395 C399 1.418 . S
C396 H375 0.929 . S
C396 C394 1.446 . S
C396 C397 1.332 1_565 S
C397 H377 0.931 . S
C397 C396 1.332 1_545 S
C397 C398 1.267 . S
C398 H366 0.929 . S
C398 C397 1.267 . S
C398 C399 1.251 1_545 S
C399 H369 0.929 . S
C399 N395 1.418 . S
C399 C398 1.251 1_565 S
C400 H367 0.930 . S
C400 C402 1.406 . S
C400 C405 1.261 . S
C401 H368 0.930 . S
C401 N403 1.325 . S
C401 C404 1.357 . S
C402 H370 0.928 . S
C402 C400 1.406 . S
C402 N403 1.261 . S
N403 Co354 2.214 . S
N403 C401 1.325 . S
N403 C402 1.261 . S
C404 H374 0.931 . S
C404 C401 1.357 . S
C404 C405 1.312 . S
C405 H376 0.930 . S
C405 C400 1.261 . S
C405 C404 1.312 . S
C406 O378 1.214 . S
C406 O386 1.234 . S
C407 H379 0.929 . S
C407 C410 1.391 . S
C407 C412 1.391 . S
C408 H380 0.929 . S
C408 C409 1.390 . S
C408 N411 1.391 . S
C409 H381 0.930 . S
C409 C408 1.390 . S
C409 C410 1.392 . S
C410 H382 0.929 . S
C410 C407 1.391 . S
C410 C409 1.392 . S
N411 Co355 2.257 . S
N411 C408 1.391 . S
N411 C412 1.388 . S
C412 H383 0.930 . S
C412 C407 1.391 . S
C412 N411 1.388 . S
Co413 O415 2.143 . S
Co413 O421 2.074 . S
Co413 O424 2.093 . S
Co413 O437 2.097 . S
Co413 N454 2.151 . S
Co413 N462 2.214 . S
Co414 O415 2.160 . S
Co414 O420 2.058 . S
Co414 O430 2.057 . S
Co414 O445 2.037 . S
Co414 N449 2.145 . S
Co414 N470 2.257 . S
O415 Co413 2.143 . S
O415 Co414 2.160 . S
C416 O417 1.278 . S
C416 O424 1.224 . S
O417 C416 1.278 . S
C418 O419 1.245 . S
C418 O430 1.232 . S
O419 C418 1.245 . S
O420 Co414 2.058 . S
O420 C446 1.269 . S
O421 Co413 2.074 . S
O421 C446 1.257 . S
H422 C447 0.930 . S
H423 C453 0.930 . S
O424 Co413 2.093 . S
O424 C416 1.224 . S
H425 C457 0.929 . S
H426 C459 0.930 . S
H427 C460 0.930 . S
H428 C458 0.929 . S
H429 C461 0.928 . S
O430 Co414 2.057 . S
O430 C418 1.232 . S
H431 C450 0.929 . S
H432 C451 0.929 . S
H433 C463 0.931 . S
H434 C455 0.929 . S
H435 C464 0.930 . S
H436 C456 0.931 . S
O437 Co413 2.097 . S
O437 C465 1.214 . S
H438 C466 0.929 . S
H439 C467 0.929 . S
H440 C468 0.930 . S
H441 C469 0.929 . S
H442 C471 0.930 . S
H443 C448 0.930 . S
H444 C452 0.930 . S
O445 Co414 2.037 . S
O445 C465 1.234 . S
C446 O420 1.269 . S
C446 O421 1.257 . S
C447 H422 0.930 . S
C447 C450 1.388 . S
C447 C452 1.418 . S
C448 H443 0.930 . S
C448 C451 1.404 . S
C448 C452 1.353 . S
N449 Co414 2.145 . S
N449 C450 1.397 . S
N449 C451 1.334 . S
C450 H431 0.929 . S
C450 C447 1.388 . S
C450 N449 1.397 . S
C451 H432 0.929 . S
C451 C448 1.404 . S
C451 N449 1.334 . S
C452 H444 0.930 . S
C452 C447 1.418 . S
C452 C448 1.353 . S
C453 H423 0.930 . S
C453 N454 1.330 . S
C453 C455 1.446 . S
N454 Co413 2.151 . S
N454 C453 1.330 . S
N454 C458 1.418 . S
C455 H434 0.929 . S
C455 C453 1.446 . S
C455 C456 1.332 1_545 S
C456 H436 0.931 . S
C456 C455 1.332 1_565 S
C456 C457 1.267 . S
C457 H425 0.929 . S
C457 C456 1.267 . S
C457 C458 1.251 1_565 S
C458 H428 0.929 . S
C458 N454 1.418 . S
C458 C457 1.251 1_545 S
C459 H426 0.930 . S
C459 C461 1.406 . S
C459 C464 1.261 . S
C460 H427 0.930 . S
C460 N462 1.325 . S
C460 C463 1.357 . S
C461 H429 0.928 . S
C461 C459 1.406 . S
C461 N462 1.261 . S
N462 Co413 2.214 . S
N462 C460 1.325 . S
N462 C461 1.261 . S
C463 H433 0.931 . S
C463 C460 1.357 . S
C463 C464 1.312 . S
C464 H435 0.930 . S
C464 C459 1.261 . S
C464 C463 1.312 . S
C465 O437 1.214 . S
C465 O445 1.234 . S
C466 H438 0.929 . S
C466 C469 1.391 . S
C466 C471 1.391 . S
C467 H439 0.929 . S
C467 C468 1.390 . S
C467 N470 1.391 . S
C468 H440 0.930 . S
C468 C467 1.390 . S
C468 C469 1.392 . S
C469 H441 0.929 . S
C469 C466 1.391 . S
C469 C468 1.392 . S
N470 Co414 2.257 . S
N470 C467 1.391 . S
N470 C471 1.388 . S
C471 H442 0.930 . S
C471 C466 1.391 . S
C471 N470 1.388 . S
C472 C473 1.170 . S
C472 C474 1.380 1_545 S
C473 C472 1.170 . S
C474 C472 1.380 1_565 S
C474 C475 1.170 . S
C475 C474 1.170 . S
C476 C477 1.170 . S
C476 C478 1.380 . S
C477 C476 1.170 . S
C478 C476 1.380 . S
C478 C479 1.170 . S
C479 C478 1.170 . S
C480 C481 1.170 . S
C480 C482 1.380 1_565 S
C481 C480 1.170 . S
C482 C480 1.380 1_545 S
C482 C483 1.170 . S
C483 C482 1.170 . S
C484 C485 1.170 . S
C484 C486 1.380 . S
C485 C484 1.170 . S
C486 C484 1.380 . S
C486 C487 1.170 . S
C487 C486 1.170 . S
C488 C489 1.170 . S
C488 C490 1.380 . S
C489 C488 1.170 . S
C490 C488 1.380 . S
C490 C491 1.170 . S
C491 C490 1.170 . S
C492 C493 1.170 . S
C492 C494 1.380 . S
C493 C492 1.170 . S
C494 C492 1.380 . S
C494 C495 1.170 . S
C495 C494 1.170 . S
C496 C497 1.170 . S
C496 C498 1.380 . S
C497 C496 1.170 . S
C498 C496 1.380 . S
C498 C499 1.170 . S
C499 C498 1.170 . S
C500 C501 1.170 . S
C500 C502 1.380 . S
C501 C500 1.170 . S
C502 C500 1.380 . S
C502 C503 1.170 . S
C503 C502 1.170 . S
C504 C505 1.170 1_556 S
C504 C506 1.380 . S
C505 C504 1.170 1_554 S
C506 C504 1.380 . S
C506 C507 1.170 . S
C507 C506 1.170 . S
C508 C509 1.169 1_556 S
C508 C510 1.380 1_455 S
C509 C508 1.169 1_554 S
C510 C508 1.380 1_655 S
C510 C511 1.170 . S
C511 C510 1.170 . S
C512 C513 1.170 . S
C512 C514 1.380 1_565 S
C513 C512 1.170 . S
C514 C512 1.380 1_545 S
C514 C515 1.170 . S
C515 C514 1.170 . S
C516 C517 1.170 . S
C516 C518 1.380 1_645 S
C517 C516 1.170 . S
C518 C516 1.380 1_465 S
C518 C519 1.170 . S
C519 C518 1.170 . S
C520 C521 1.170 . S
C520 C522 1.380 . S
C521 C520 1.170 . S
C522 C520 1.380 . S
C522 C523 1.170 . S
C523 C522 1.170 . S
C524 C525 1.170 . S
C524 C526 1.380 1_545 S
C525 C524 1.170 . S
C526 C524 1.380 1_565 S
C526 C527 1.170 . S
C527 C526 1.170 . S
C528 C529 1.170 . S
C528 C530 1.380 . S
C529 C528 1.170 . S
C530 C528 1.380 . S
C530 C531 1.170 . S
C531 C530 1.170 . S
C532 C533 1.170 . S
C532 C534 1.380 1_565 S
C533 C532 1.170 . S
C534 C532 1.380 1_545 S
C534 C535 1.170 . S
C535 C534 1.170 . S
C473 C52 1.643 . S
C475 C111 1.639 . S
C477 C229 1.658 . S
C479 C170 1.653 . S
C481 C288 1.639 . S
C483 C347 1.656 . S
C485 C406 1.638 . S
C487 C465 1.648 . S
C489 C3 1.868 . S
C491 C121 1.870 . S
C493 C180 1.888 . S
C495 C62 1.862 . S
C497 C239 1.862 . S
C499 C357 1.870 . S
C501 C416 1.895 . S
C503 C298 1.894 . S
C505 C5 1.372 . S
C507 C241 1.369 . S
C509 C64 1.396 . S
C511 C300 1.355 . S
C513 C359 1.356 . S
C515 C123 1.391 . S
C517 C418 1.363 . S
C519 C182 1.396 . S
C521 C92 1.495 . S
C523 C33 1.501 . S
C525 C151 1.502 . S
C527 C210 1.507 . S
C529 C269 1.485 . S
C531 C328 1.486 . S
C533 C387 1.507 . S
C535 C446 1.495 . S
