# Generated by pormake.
# Topology ske, (6)-cn, num edge types: 1
# Building blocks:
#     Node 0, Type 0, BuildingBlock: FUNLAD_clean_sbu_0, # of connection points: 6
#     Node 1, Type 0, BuildingBlock: FUNLAD_clean_sbu_0, # of connection points: 6
#     Node 2, Type 0, BuildingBlock: FUNLAD_clean_sbu_0, # of connection points: 6
#     Node 3, Type 0, BuildingBlock: FUNLAD_clean_sbu_0, # of connection points: 6
#     Node 4, Type 0, BuildingBlock: FUNLAD_clean_sbu_0, # of connection points: 6
#     Node 5, Type 0, BuildingBlock: FUNLAD_clean_sbu_0, # of connection points: 6
#     Node 6, Type 0, BuildingBlock: FUNLAD_clean_sbu_0, # of connection points: 6
#     Node 7, Type 0, BuildingBlock: FUNLAD_clean_sbu_0, # of connection points: 6
#     Edge 8, Type (0, 0), BuildingBlock: XIVTED_clean_linker_0, # of connection points: 2
#     Edge 9, Type (0, 0), BuildingBlock: XIVTED_clean_linker_0, # of connection points: 2
#     Edge 10, Type (0, 0), BuildingBlock: XIVTED_clean_linker_0, # of connection points: 2
#     Edge 11, Type (0, 0), BuildingBlock: XIVTED_clean_linker_0, # of connection points: 2
#     Edge 12, Type (0, 0), BuildingBlock: XIVTED_clean_linker_0, # of connection points: 2
#     Edge 13, Type (0, 0), BuildingBlock: XIVTED_clean_linker_0, # of connection points: 2
#     Edge 14, Type (0, 0), BuildingBlock: XIVTED_clean_linker_0, # of connection points: 2
#     Edge 15, Type (0, 0), BuildingBlock: XIVTED_clean_linker_0, # of connection points: 2
#     Edge 16, Type (0, 0), BuildingBlock: XIVTED_clean_linker_0, # of connection points: 2
#     Edge 17, Type (0, 0), BuildingBlock: XIVTED_clean_linker_0, # of connection points: 2
#     Edge 18, Type (0, 0), BuildingBlock: XIVTED_clean_linker_0, # of connection points: 2
#     Edge 19, Type (0, 0), BuildingBlock: XIVTED_clean_linker_0, # of connection points: 2
#     Edge 20, Type (0, 0), BuildingBlock: XIVTED_clean_linker_0, # of connection points: 2
#     Edge 21, Type (0, 0), BuildingBlock: XIVTED_clean_linker_0, # of connection points: 2
#     Edge 22, Type (0, 0), BuildingBlock: XIVTED_clean_linker_0, # of connection points: 2
#     Edge 23, Type (0, 0), BuildingBlock: XIVTED_clean_linker_0, # of connection points: 2
#     Edge 24, Type (0, 0), BuildingBlock: XIVTED_clean_linker_0, # of connection points: 2
#     Edge 25, Type (0, 0), BuildingBlock: XIVTED_clean_linker_0, # of connection points: 2
#     Edge 26, Type (0, 0), BuildingBlock: XIVTED_clean_linker_0, # of connection points: 2
#     Edge 27, Type (0, 0), BuildingBlock: XIVTED_clean_linker_0, # of connection points: 2
#     Edge 28, Type (0, 0), BuildingBlock: XIVTED_clean_linker_0, # of connection points: 2
#     Edge 29, Type (0, 0), BuildingBlock: XIVTED_clean_linker_0, # of connection points: 2
#     Edge 30, Type (0, 0), BuildingBlock: XIVTED_clean_linker_0, # of connection points: 2
#     Edge 31, Type (0, 0), BuildingBlock: XIVTED_clean_linker_0, # of connection points: 2
# Relax obj value: 0.052
# Max RMSD: 0.119
# Mean RMSD: 0.115
data_MOF--net-ske--node1-FUNLAD_clean_sbu_0--edge1-XIVTED_clean_linker_0
_symmetry_space_group_name_H-M    P1
_symmetry_Int_Tables_number       1
_symmetry_cell_setting            triclinic
loop_
_symmetry_equiv_pos_as_xyz
'x, y, z'
_cell_length_a     58.384669
_cell_length_b     43.797802
_cell_length_c     15.298656
_cell_angle_alpha  89.883706
_cell_angle_beta   90.139849
_cell_angle_gamma 91.509441
loop_
_atom_site_label
_atom_site_type_symbol
_atom_site_fract_x
_atom_site_fract_y
_atom_site_fract_z
_atom_type_partial_charge
C0 C 0.18144 0.26284 0.54895 0.0
N1 N 0.13494 0.18964 0.50656 0.0
C2 C 0.15319 0.17529 0.47173 0.0
C3 C 0.15346 0.14347 0.46819 0.0
C4 C 0.13455 0.12627 0.49899 0.0
C5 C 0.11589 0.14153 0.53426 0.0
C6 C 0.11654 0.17342 0.5383 0.0
Zn7 Zn 0.13515 0.23646 0.50715 0.0
C8 C 0.12729 0.26202 0.68236 0.0
N9 N 0.13623 0.33422 0.50435 0.0
C10 C 0.15444 0.34982 0.46891 0.0
C11 C 0.11787 0.34917 0.53608 0.0
C12 C 0.11712 0.38096 0.53097 0.0
C13 C 0.13566 0.39752 0.49466 0.0
C14 C 0.15461 0.38167 0.46427 0.0
Zn15 Zn 0.13601 0.28742 0.50594 0.0
O16 O 0.17048 0.23773 0.53741 0.0
C17 C 0.14391 0.26186 0.33067 0.0
O18 O 0.17132 0.28781 0.53653 0.0
H19 H 0.10365 0.33642 0.56469 0.0
H20 H 0.16751 0.18854 0.44574 0.0
H21 H 0.16876 0.33754 0.44322 0.0
O22 O 0.14187 0.23688 0.37254 0.0
O23 O 0.14279 0.28702 0.37136 0.0
H24 H 0.10226 0.18521 0.56619 0.0
O25 O 0.10061 0.28618 0.4776 0.0
O26 O 0.09969 0.2361 0.47926 0.0
O27 O 0.12921 0.28704 0.64047 0.0
O28 O 0.12847 0.23682 0.64173 0.0
C29 C 0.0894 0.26109 0.47011 0.0
H30 H 0.16806 0.13241 0.43983 0.0
H31 H 0.10108 0.12891 0.55907 0.0
H32 H 0.1023 0.39253 0.55568 0.0
H33 H 0.16915 0.39376 0.43534 0.0
C34 C 0.91876 0.25971 0.47037 0.0
N35 N 0.87361 0.33177 0.50271 0.0
C36 C 0.89196 0.34802 0.53458 0.0
C37 C 0.89265 0.37991 0.52966 0.0
C38 C 0.8741 0.39538 0.49298 0.0
C39 C 0.85521 0.37788 0.46222 0.0
C40 C 0.85545 0.34608 0.46682 0.0
Zn41 Zn 0.87315 0.28496 0.50521 0.0
C42 C 0.86427 0.25897 0.32987 0.0
N43 N 0.87142 0.18719 0.50648 0.0
C44 C 0.88965 0.17191 0.53824 0.0
C45 C 0.8531 0.1719 0.47086 0.0
C46 C 0.85273 0.14008 0.4655 0.0
C47 C 0.87161 0.12364 0.4953 0.0
C48 C 0.89021 0.14011 0.53257 0.0
Zn49 Zn 0.87201 0.234 0.50661 0.0
O50 O 0.90858 0.28484 0.4781 0.0
C51 C 0.88087 0.26 0.68187 0.0
O52 O 0.90743 0.23475 0.47891 0.0
H53 H 0.83881 0.18442 0.44552 0.0
H54 H 0.90624 0.33626 0.56301 0.0
H55 H 0.90404 0.18443 0.56658 0.0
O56 O 0.87983 0.28501 0.63993 0.0
O57 O 0.87881 0.23479 0.64122 0.0
H58 H 0.84107 0.33281 0.44126 0.0
O59 O 0.8367 0.23415 0.53655 0.0
O60 O 0.83783 0.28422 0.53465 0.0
O61 O 0.86521 0.234 0.37188 0.0
O62 O 0.86647 0.28413 0.37049 0.0
C63 C 0.82673 0.25929 0.54727 0.0
H64 H 0.90779 0.39215 0.55308 0.0
H65 H 0.84025 0.38852 0.43514 0.0
H66 H 0.83773 0.1286 0.43807 0.0
H67 H 0.90534 0.12875 0.55534 0.0
C68 C 0.09061 0.76149 0.46698 0.0
N69 N 0.13775 0.83438 0.43262 0.0
C70 C 0.11948 0.84969 0.40127 0.0
C71 C 0.11892 0.88149 0.40733 0.0
C72 C 0.13754 0.89791 0.44456 0.0
C73 C 0.15644 0.88144 0.47406 0.0
C74 C 0.15607 0.84962 0.46833 0.0
Zn75 Zn 0.13729 0.78757 0.4313 0.0
C76 C 0.14518 0.76201 0.60706 0.0
N77 N 0.13602 0.68978 0.4325 0.0
C78 C 0.11768 0.67329 0.40147 0.0
C79 C 0.15432 0.6757 0.46819 0.0
C80 C 0.15468 0.64393 0.47374 0.0
C81 C 0.13578 0.6262 0.44426 0.0
C82 C 0.11712 0.64141 0.40737 0.0
Zn83 Zn 0.13627 0.7366 0.43072 0.0
O84 O 0.10189 0.78652 0.45923 0.0
C85 C 0.1284 0.76215 0.25507 0.0
O86 O 0.10083 0.73643 0.45827 0.0
H87 H 0.16868 0.68913 0.4932 0.0
H88 H 0.10508 0.83721 0.37285 0.0
H89 H 0.10329 0.68487 0.37327 0.0
O90 O 0.13042 0.78718 0.29668 0.0
O91 O 0.1295 0.73694 0.29603 0.0
H92 H 0.17039 0.83708 0.49334 0.0
O93 O 0.17156 0.73766 0.40071 0.0
O94 O 0.17259 0.78773 0.40105 0.0
O95 O 0.14306 0.73704 0.56544 0.0
O96 O 0.14412 0.78717 0.56603 0.0
C97 C 0.1826 0.76269 0.38897 0.0
H98 H 0.10378 0.89287 0.38479 0.0
H99 H 0.17145 0.89288 0.50147 0.0
H100 H 0.16972 0.6335 0.50085 0.0
H101 H 0.10197 0.62898 0.38482 0.0
C102 C 0.91995 0.76016 0.46962 0.0
N103 N 0.87277 0.68737 0.43553 0.0
C104 C 0.89099 0.67223 0.40336 0.0
C105 C 0.89144 0.64039 0.40753 0.0
C106 C 0.87274 0.62402 0.44334 0.0
C107 C 0.85397 0.64007 0.4744 0.0
C108 C 0.85444 0.67194 0.47071 0.0
Zn109 Zn 0.87324 0.73417 0.43432 0.0
C110 C 0.8655 0.7597 0.60961 0.0
N111 N 0.87459 0.83194 0.43398 0.0
C112 C 0.89299 0.84813 0.40214 0.0
C113 C 0.85638 0.84632 0.46898 0.0
C114 C 0.85613 0.87815 0.47246 0.0
C115 C 0.87502 0.89531 0.44144 0.0
C116 C 0.89366 0.88002 0.40612 0.0
Zn117 Zn 0.87422 0.78513 0.43313 0.0
O118 O 0.90866 0.73513 0.46217 0.0
C119 C 0.88192 0.75959 0.25789 0.0
O120 O 0.90971 0.78521 0.46071 0.0
H121 H 0.84206 0.83311 0.4951 0.0
H122 H 0.9053 0.68485 0.37497 0.0
H123 H 0.90724 0.83632 0.37415 0.0
O124 O 0.87994 0.73458 0.29977 0.0
O125 O 0.88084 0.7848 0.29854 0.0
H126 H 0.84024 0.68436 0.49678 0.0
O127 O 0.83887 0.78414 0.40318 0.0
O128 O 0.83791 0.73406 0.40424 0.0
O129 O 0.86757 0.78468 0.56775 0.0
O130 O 0.86656 0.73454 0.56893 0.0
C131 C 0.82784 0.75907 0.39195 0.0
H132 H 0.90613 0.62867 0.38237 0.0
H133 H 0.83933 0.62812 0.503 0.0
H134 H 0.84155 0.88922 0.50088 0.0
H135 H 0.90847 0.89263 0.38118 0.0
C136 C 0.68215 0.76159 0.04833 0.0
N137 N 0.63623 0.68802 0.00354 0.0
C138 C 0.65458 0.67424 0.96781 0.0
C139 C 0.65517 0.64249 0.96228 0.0
C140 C 0.63643 0.62448 -0.00809 0.0
C141 C 0.6177 0.6394 0.02871 0.0
C142 C 0.61805 0.67126 0.03458 0.0
Zn143 Zn 0.63604 0.73481 0.00611 0.0
C144 C 0.62806 0.75944 0.18232 0.0
N145 N 0.63645 0.83257 0.00669 0.0
C146 C 0.65458 0.84827 -0.02876 0.0
C147 C 0.6181 0.84743 0.03861 0.0
C148 C 0.61726 0.87924 0.03355 0.0
C149 C 0.63568 0.89613 -0.00329 0.0
C150 C 0.65466 0.8801 0.96648 0.0
Zn151 Zn 0.63648 0.78577 0.00691 0.0
O152 O 0.67137 0.7364 0.03612 0.0
C153 C 0.64449 0.76114 0.8306 0.0
O154 O 0.67184 0.78647 0.037 0.0
H155 H 0.60387 0.83459 0.06678 0.0
H156 H 0.66882 0.6879 0.94286 0.0
H157 H 0.66897 0.83609 0.94576 0.0
O158 O 0.64268 0.73594 0.8715 0.0
O159 O 0.64317 0.78607 0.87227 0.0
H160 H 0.60361 0.6826 0.06289 0.0
O161 O 0.60103 0.78417 -0.02092 0.0
O162 O 0.60057 0.73409 -0.02148 0.0
O163 O 0.6298 0.78468 0.14144 0.0
O164 O 0.62939 0.73446 0.14069 0.0
C165 C 0.59004 0.75894 -0.02936 0.0
H166 H 0.67025 0.63227 0.93518 0.0
H167 H 0.60267 0.62676 0.05129 0.0
H168 H 0.60206 0.89028 0.05663 0.0
H169 H 0.66954 0.89191 0.93934 0.0
C170 C 0.41934 0.76013 0.96908 0.0
N171 N 0.37374 0.8319 -0.00088 0.0
C172 C 0.39206 0.84826 0.03076 0.0
C173 C 0.39264 0.88015 0.02584 0.0
C174 C 0.37399 0.8955 -0.0106 0.0
C175 C 0.35514 0.87789 0.9589 0.0
C176 C 0.35549 0.84609 0.9635 0.0
Zn177 Zn 0.37348 0.7851 0.00139 0.0
C178 C 0.36526 0.75926 0.82595 0.0
N179 N 0.37217 0.68743 0.00253 0.0
C180 C 0.38821 0.67211 0.04867 0.0
C181 C 0.35619 0.67222 0.95311 0.0
C182 C 0.35622 0.64043 0.94723 0.0
C183 C 0.37272 0.62406 -0.00667 0.0
C184 C 0.38871 0.64025 0.04535 0.0
Zn185 Zn 0.3726 0.73416 0.00281 0.0
O186 O 0.40892 0.78515 -0.02534 0.0
C187 C 0.38081 0.76023 0.17813 0.0
O188 O 0.4082 0.73504 -0.02138 0.0
H189 H 0.34352 0.6848 0.91731 0.0
H190 H 0.40641 0.83659 0.05899 0.0
H191 H 0.40084 0.68465 0.08716 0.0
O192 O 0.38009 0.78522 0.13598 0.0
O193 O 0.37857 0.73501 0.13773 0.0
H194 H 0.34113 0.83274 0.93811 0.0
O195 O 0.33711 0.73385 0.02933 0.0
O196 O 0.33816 0.78395 0.03052 0.0
O197 O 0.36666 0.73432 0.86772 0.0
O198 O 0.36687 0.78442 0.86679 0.0
C199 C 0.32706 0.75889 0.04121 0.0
H200 H 0.40775 0.89249 0.04906 0.0
H201 H 0.34011 0.88843 0.93202 0.0
H202 H 0.3434 0.62877 0.90728 0.0
H203 H 0.40182 0.62847 0.08136 0.0
C204 C 0.58948 0.25997 0.96768 0.0
N205 N 0.6368 0.33254 0.93343 0.0
C206 C 0.61853 0.34763 0.90101 0.0
C207 C 0.61792 0.37944 0.9057 0.0
C208 C 0.63651 0.39585 0.9423 0.0
C209 C 0.65538 0.37986 -0.02669 0.0
C210 C 0.65507 0.348 0.96907 0.0
Zn211 Zn 0.6363 0.28574 0.93258 0.0
C212 C 0.64394 0.26014 0.1084 0.0
N213 N 0.6346 0.18796 0.93336 0.0
C214 C 0.61622 0.17179 0.9012 0.0
C215 C 0.65284 0.17356 0.9686 0.0
C216 C 0.65316 0.14173 -0.02822 0.0
C217 C 0.63431 0.12457 0.94022 0.0
C218 C 0.61561 0.13988 0.90489 0.0
Zn219 Zn 0.63504 0.23478 0.93213 0.0
O220 O 0.6009 0.2849 0.96016 0.0
C221 C 0.62743 0.26038 0.75638 0.0
O222 O 0.59957 0.23482 0.95906 0.0
H223 H 0.66715 0.18675 -0.00501 0.0
H224 H 0.60426 0.335 0.87222 0.0
H225 H 0.60194 0.18362 0.87305 0.0
O226 O 0.62952 0.28539 0.79798 0.0
O227 O 0.62843 0.23517 0.79736 0.0
H228 H 0.66932 0.33561 -0.00471 0.0
O229 O 0.67037 0.23565 0.90292 0.0
O230 O 0.67162 0.28573 0.90276 0.0
O231 O 0.64168 0.23517 0.06685 0.0
O232 O 0.64305 0.28531 0.06733 0.0
C233 C 0.68153 0.26059 0.89122 0.0
H234 H 0.60316 0.39112 0.88052 0.0
H235 H 0.66995 0.39184 0.00249 0.0
H236 H 0.66778 0.13064 0.00023 0.0
H237 H 0.60083 0.12727 0.87956 0.0
C238 C 0.4188 0.26019 -0.03067 0.0
N239 N 0.37157 0.18747 0.93428 0.0
C240 C 0.38984 0.17255 0.90169 0.0
C241 C 0.3904 0.14071 0.90494 0.0
C242 C 0.37176 0.1241 0.94027 0.0
C243 C 0.3529 0.13992 -0.02841 0.0
C244 C 0.35327 0.1718 0.96882 0.0
Zn245 Zn 0.372 0.23426 0.93534 0.0
C246 C 0.36477 0.25862 0.11169 0.0
N247 N 0.37334 0.33192 0.93926 0.0
C248 C 0.38944 0.34843 0.8939 0.0
C249 C 0.35747 0.34591 -0.01087 0.0
C250 C 0.3576 0.37767 -0.00402 0.0
C251 C 0.37408 0.39529 0.95039 0.0
C252 C 0.39004 0.38033 0.89819 0.0
Zn253 Zn 0.37299 0.28519 0.93601 0.0
O254 O 0.40741 0.23519 0.96272 0.0
C255 C 0.38021 0.2606 0.75977 0.0
O256 O 0.40862 0.2853 0.96052 0.0
H257 H 0.34472 0.3324 0.02418 0.0
H258 H 0.40414 0.18535 0.87383 0.0
H259 H 0.40195 0.33685 0.85494 0.0
O260 O 0.37859 0.23541 0.80087 0.0
O261 O 0.37889 0.2856 0.80118 0.0
H262 H 0.33902 0.18404 -0.00473 0.0
O263 O 0.33747 0.28451 0.90906 0.0
O264 O 0.33668 0.23441 0.90586 0.0
O265 O 0.36711 0.28377 0.07098 0.0
O266 O 0.36541 0.23367 0.06983 0.0
C267 C 0.3265 0.25948 0.89609 0.0
H268 H 0.40515 0.12916 0.8796 0.0
H269 H 0.3383 0.12779 -0.00014 0.0
H270 H 0.34481 0.38835 0.03599 0.0
H271 H 0.40312 0.39311 0.86251 0.0
H272 H 0.20817 0.31223 0.59803 0.0
H273 H 0.29934 0.21033 0.84889 0.0
H274 H 0.20651 0.21358 0.59658 0.0
H275 H 0.30157 0.30898 0.84884 0.0
H276 H 0.26462 0.21115 0.75995 0.0
H277 H 0.24279 0.31157 0.68782 0.0
C278 C 0.21527 0.29043 0.61542 0.0
C279 C 0.20437 0.26291 0.5899 0.0
C280 C 0.27261 0.23263 0.7799 0.0
C281 C 0.24375 0.26201 0.69411 0.0
C282 C 0.29234 0.23218 0.83136 0.0
C283 C 0.30344 0.25963 0.85615 0.0
C284 C 0.26392 0.26072 0.75284 0.0
C285 C 0.2936 0.28724 0.83122 0.0
C286 C 0.23494 0.29007 0.66735 0.0
C287 C 0.21431 0.23536 0.61476 0.0
N288 N 0.27449 0.28708 0.78041 0.0
N289 N 0.23335 0.23562 0.66595 0.0
H290 H 0.70684 0.21088 0.85093 0.0
H291 H 0.80145 0.30905 0.58763 0.0
H292 H 0.70814 0.30941 0.83694 0.0
H293 H 0.80012 0.21052 0.60175 0.0
H294 H 0.76676 0.30958 0.67616 0.0
H295 H 0.74154 0.21038 0.7625 0.0
C296 C 0.71461 0.23245 0.83038 0.0
C297 C 0.70451 0.26024 0.85118 0.0
C298 C 0.77397 0.28783 0.65941 0.0
C299 C 0.74403 0.25978 0.74848 0.0
C300 C 0.79368 0.28749 0.60822 0.0
C301 C 0.80376 0.25968 0.58742 0.0
C302 C 0.76427 0.26019 0.69023 0.0
C303 C 0.79295 0.23248 0.61618 0.0
C304 C 0.73433 0.23213 0.77925 0.0
C305 C 0.71532 0.28745 0.82251 0.0
N306 N 0.77387 0.23344 0.66661 0.0
N307 N 0.73441 0.28652 0.77211 0.0
H308 H 0.30011 0.70963 0.08977 0.0
H309 H 0.20946 0.8119 0.3394 0.0
H310 H 0.30204 0.80828 0.08702 0.0
H311 H 0.20741 0.71325 0.34182 0.0
H312 H 0.2439 0.81102 0.24941 0.0
H313 H 0.26551 0.71048 0.17895 0.0
C314 C 0.29306 0.73147 0.10669 0.0
C315 C 0.30405 0.75893 0.0811 0.0
C316 C 0.236 0.78956 0.27012 0.0
C317 C 0.26471 0.76006 0.18467 0.0
C318 C 0.21644 0.79005 0.32218 0.0
C319 C 0.20548 0.7626 0.34802 0.0
C320 C 0.24465 0.76144 0.24355 0.0
C321 C 0.21527 0.73498 0.32338 0.0
C322 C 0.27341 0.73194 0.1583 0.0
C323 C 0.29418 0.78654 0.10533 0.0
N324 N 0.23421 0.73511 0.27205 0.0
N325 N 0.27516 0.78639 0.15627 0.0
H326 H 0.70875 0.81113 0.09725 0.0
H327 H 0.80086 0.70973 0.34471 0.0
H328 H 0.70758 0.71249 0.09444 0.0
H329 H 0.80279 0.80838 0.34429 0.0
H330 H 0.76601 0.71034 0.2564 0.0
H331 H 0.7436 0.81064 0.18568 0.0
C332 C 0.716 0.78937 0.11408 0.0
C333 C 0.70517 0.76181 0.08858 0.0
C334 C 0.77397 0.73186 0.2761 0.0
C335 C 0.74483 0.76109 0.19122 0.0
C336 C 0.79377 0.73153 0.32719 0.0
C337 C 0.80482 0.75905 0.35175 0.0
C338 C 0.76515 0.7599 0.24922 0.0
C339 C 0.79488 0.7866 0.32681 0.0
C340 C 0.73581 0.78911 0.16521 0.0
C341 C 0.71532 0.73431 0.11265 0.0
N342 N 0.77569 0.78632 0.27645 0.0
N343 N 0.73449 0.73465 0.1631 0.0
H344 H 0.15693 0.93379 0.57452 0.0
H345 H 0.10175 0.08901 0.42482 0.0
H346 H 0.11696 0.93999 0.33708 0.0
H347 H 0.16672 0.08725 0.55903 0.0
H348 H 0.10223 0.03312 0.41145 0.0
H349 H 0.1563 0.98921 0.58789 0.0
C350 C 0.14818 0.94662 0.52463 0.0
C351 C 0.13711 0.93183 0.45405 0.0
C352 C 0.11634 0.04503 0.44385 0.0
C353 C 0.1357 0.99545 0.47138 0.0
C354 C 0.11601 0.07677 0.45194 0.0
C355 C 0.13424 0.09258 0.49297 0.0
C356 C 0.13479 0.02905 0.47872 0.0
C357 C 0.15242 0.0758 0.52654 0.0
C358 C 0.14771 0.97831 0.53291 0.0
C359 C 0.12545 0.95003 0.3934 0.0
N360 N 0.15218 0.04487 0.51924 0.0
N361 N 0.12495 0.98083 0.40373 0.0
H362 H 0.8943 0.43778 0.60445 0.0
H363 H 0.8404 0.58309 0.38326 0.0
H364 H 0.85468 0.43121 0.36569 0.0
H365 H 0.9054 0.5887 0.51735 0.0
H366 H 0.84095 0.52717 0.39462 0.0
H367 H 0.89462 0.49335 0.59075 0.0
C368 C 0.88579 0.44781 0.54883 0.0
C369 C 0.87443 0.42941 0.48618 0.0
C370 C 0.8551 0.54069 0.42133 0.0
C371 C 0.8742 0.49322 0.47214 0.0
C372 C 0.85473 0.57247 0.41523 0.0
C373 C 0.87292 0.59033 0.44922 0.0
C374 C 0.87352 0.52681 0.46346 0.0
C375 C 0.89116 0.5756 0.48981 0.0
C376 C 0.8859 0.47959 0.54153 0.0
C377 C 0.86326 0.44415 0.41685 0.0
N378 N 0.89092 0.54463 0.49652 0.0
N379 N 0.86329 0.47513 0.41209 0.0
H380 H 0.90778 0.93268 0.51548 0.0
H381 H 0.85234 0.08769 0.36529 0.0
H382 H 0.84284 0.93421 0.38097 0.0
H383 H 0.89218 0.08165 0.6031 0.0
H384 H 0.85311 0.03228 0.35195 0.0
H385 H 0.90719 0.98858 0.52871 0.0
C386 C 0.89351 0.94488 0.48825 0.0
C387 C 0.87531 0.92901 0.4472 0.0
C388 C 0.86164 0.04321 0.407 0.0
C389 C 0.87464 0.99252 0.4613 0.0
C390 C 0.86109 0.07489 0.41527 0.0
C391 C 0.87209 0.08972 0.48594 0.0
C392 C 0.87365 0.02612 0.46864 0.0
C393 C 0.88374 0.07157 0.54671 0.0
C394 C 0.89311 0.97662 0.49627 0.0
C395 C 0.85711 0.94571 0.41348 0.0
N396 N 0.88432 0.04077 0.53638 0.0
N397 N 0.8573 0.97664 0.42072 0.0
H398 H 0.15534 0.59145 0.57356 0.0
H399 H 0.10252 0.43184 0.41994 0.0
H400 H 0.11538 0.58287 0.33609 0.0
H401 H 0.1676 0.43936 0.55298 0.0
H402 H 0.10221 0.48777 0.40715 0.0
H403 H 0.15555 0.53596 0.5848 0.0
C404 C 0.14676 0.57809 0.52321 0.0
C405 C 0.13551 0.59223 0.45312 0.0
C406 C 0.11654 0.47711 0.43905 0.0
C407 C 0.13507 0.52843 0.46801 0.0
C408 C 0.11666 0.44535 0.44677 0.0
C409 C 0.13513 0.43116 0.48748 0.0
C410 C 0.13476 0.49473 0.47404 0.0
C411 C 0.15313 0.44953 0.52073 0.0
C412 C 0.14679 0.54635 0.53026 0.0
C413 C 0.12404 0.5733 0.39196 0.0
N414 N 0.15243 0.48044 0.51392 0.0
N415 N 0.12403 0.5424 0.40106 0.0
H416 H 0.65616 0.58994 0.86315 0.0
H417 H 0.60347 0.43018 0.01647 0.0
H418 H 0.61644 0.58094 0.10046 0.0
H419 H 0.66853 0.43767 0.88439 0.0
H420 H 0.60326 0.48609 0.02919 0.0
H421 H 0.65653 0.53445 0.85218 0.0
C422 C 0.64767 0.57649 0.91351 0.0
C423 C 0.63639 0.59051 -0.0166 0.0
C424 C 0.61756 0.47543 -0.00248 0.0
C425 C 0.63614 0.52673 0.96883 0.0
C426 C 0.61763 0.44368 -0.01016 0.0
C427 C 0.63606 0.42949 0.94941 0.0
C428 C 0.63581 0.49304 0.96279 0.0
C429 C 0.65409 0.44785 0.91641 0.0
C430 C 0.64778 0.54475 0.90662 0.0
C431 C 0.62507 0.57147 0.04466 0.0
N432 N 0.65344 0.47876 0.92317 0.0
N433 N 0.62514 0.54059 0.03567 0.0
H434 H 0.39413 0.93803 0.10059 0.0
H435 H 0.3396 0.08297 0.87974 0.0
H436 H 0.35438 0.93117 0.86222 0.0
H437 H 0.4046 0.08899 0.01381 0.0
H438 H 0.34039 0.02705 0.89083 0.0
H439 H 0.39427 0.9936 0.08679 0.0
C440 C 0.38556 0.948 0.04503 0.0
C441 C 0.37421 0.92953 -0.01748 0.0
C442 C 0.35449 0.04066 0.91757 0.0
C443 C 0.37377 0.99332 0.96835 0.0
C444 C 0.35399 0.07244 0.91161 0.0
C445 C 0.3721 0.09041 0.9457 0.0
C446 C 0.37296 0.02689 0.95965 0.0
C447 C 0.39041 0.0758 -0.01382 0.0
C448 C 0.38556 0.97978 0.03766 0.0
C449 C 0.36294 0.94418 0.91327 0.0
N450 N 0.3903 0.04483 -0.00724 0.0
N451 N 0.36288 0.97515 0.90845 0.0
H452 H 0.37035 0.42966 0.09855 0.0
H453 H 0.36902 0.58931 0.84532 0.0
H454 H 0.379 0.43773 0.8194 0.0
H455 H 0.37804 0.58209 0.12451 0.0
H456 H 0.36985 0.53363 0.83447 0.0
H457 H 0.37042 0.48538 0.10943 0.0
C458 C 0.3722 0.44319 0.03951 0.0
C459 C 0.37462 0.42907 0.95789 0.0
C460 C 0.37171 0.54422 0.89808 0.0
C461 C 0.37473 0.49281 -0.03013 0.0
C462 C 0.37108 0.57597 0.90438 0.0
C463 C 0.3734 0.59032 -0.01401 0.0
C464 C 0.37444 0.52663 -0.02596 0.0
C465 C 0.37635 0.57196 0.06026 0.0
C466 C 0.37237 0.47497 0.04583 0.0
C467 C 0.37726 0.4477 0.88366 0.0
N468 N 0.37666 0.54105 0.05258 0.0
N469 N 0.37711 0.47861 0.89134 0.0
H470 H 0.66657 0.08627 0.87859 0.0
H471 H 0.61512 0.93724 0.10643 0.0
H472 H 0.60191 0.08659 0.01399 0.0
H473 H 0.65457 0.93306 0.86809 0.0
H474 H 0.61385 0.99263 0.0898 0.0
H475 H 0.6666 0.03038 0.89106 0.0
C476 C 0.6524 0.07449 0.9109 0.0
C477 C 0.63418 0.09086 0.94515 0.0
C478 C 0.62274 0.97944 0.04129 0.0
C479 C 0.63426 0.02735 0.96079 0.0
C480 C 0.6234 0.94774 0.0503 0.0
C481 C 0.63498 0.93009 -0.0114 0.0
C482 C 0.6341 0.99376 -0.02888 0.0
C483 C 0.64584 0.94547 0.91855 0.0
C484 C 0.65238 0.04271 0.9177 0.0
C485 C 0.61617 0.07465 -0.01376 0.0
N486 N 0.64527 0.97638 0.91211 0.0
N487 N 0.61675 0.04373 -0.00628 0.0
H488 H 0.14425 0.21223 0.22279 0.0
H489 H 0.1271 0.31166 0.79023 0.0
H490 H 0.14392 0.31086 0.21978 0.0
H491 H 0.12744 0.21303 0.79326 0.0
H492 H 0.13251 0.31178 0.94827 0.0
H493 H 0.13901 0.21212 0.06466 0.0
C494 C 0.14337 0.23388 0.18875 0.0
C495 C 0.1444 0.2616 0.23453 0.0
C496 C 0.13126 0.29011 0.91443 0.0
C497 C 0.13803 0.2616 0.05393 0.0
C498 C 0.12801 0.29001 0.82426 0.0
C499 C 0.12692 0.26229 0.77851 0.0
C500 C 0.13348 0.2623 0.95901 0.0
C501 C 0.12822 0.23494 0.82593 0.0
C502 C 0.14022 0.23379 0.09853 0.0
C503 C 0.14316 0.28895 0.1871 0.0
N504 N 0.13158 0.23565 0.91365 0.0
N505 N 0.13989 0.28825 0.09933 0.0
H506 H 0.86261 0.20936 0.22169 0.0
H507 H 0.88235 0.3096 0.79005 0.0
H508 H 0.86559 0.30803 0.21929 0.0
H509 H 0.87948 0.21093 0.79245 0.0
H510 H 0.87698 0.30946 0.94804 0.0
H511 H 0.86785 0.2095 0.06361 0.0
C512 C 0.86406 0.23107 0.18778 0.0
C513 C 0.86379 0.25873 0.23372 0.0
C514 C 0.87766 0.28784 0.91406 0.0
C515 C 0.87016 0.25903 0.05324 0.0
C516 C 0.8809 0.28789 0.82394 0.0
C517 C 0.88126 0.26023 0.77802 0.0
C518 C 0.87473 0.25992 0.95842 0.0
C519 C 0.87926 0.2328 0.82524 0.0
C520 C 0.86722 0.23112 0.09762 0.0
C521 C 0.86577 0.28616 0.18648 0.0
N522 N 0.87593 0.23335 0.9129 0.0
N523 N 0.86903 0.2856 0.09878 0.0
H524 H 0.12827 0.8118 0.14662 0.0
H525 H 0.14541 0.71237 0.7155 0.0
H526 H 0.12847 0.71316 0.14468 0.0
H527 H 0.14523 0.811 0.71744 0.0
H528 H 0.14011 0.71225 0.8735 0.0
H529 H 0.1337 0.81192 -0.01131 0.0
C530 C 0.12915 0.79015 0.11285 0.0
C531 C 0.12802 0.76242 0.1589 0.0
C532 C 0.14136 0.73392 0.83943 0.0
C533 C 0.13461 0.76244 -0.0215 0.0
C534 C 0.14456 0.73402 0.74929 0.0
C535 C 0.14564 0.76174 0.70322 0.0
C536 C 0.1392 0.76174 0.88369 0.0
C537 C 0.14443 0.78909 0.75034 0.0
C538 C 0.13242 0.79025 0.02275 0.0
C539 C 0.12929 0.73507 0.11179 0.0
N540 N 0.14111 0.78839 0.83804 0.0
N541 N 0.13267 0.73578 0.02413 0.0
H542 H 0.86519 0.80935 0.7174 0.0
H543 H 0.88206 0.70994 0.15012 0.0
H544 H 0.86543 0.71072 0.72052 0.0
H545 H 0.88185 0.80857 0.14697 0.0
H546 H 0.87671 0.70981 -0.00794 0.0
H547 H 0.87037 0.80947 0.87555 0.0
C548 C 0.86604 0.7877 0.75148 0.0
C549 C 0.86501 0.75997 0.70573 0.0
C550 C 0.87796 0.73148 0.02589 0.0
C551 C 0.8713 0.75999 0.88634 0.0
C552 C 0.88119 0.73159 0.11606 0.0
C553 C 0.88229 0.75932 0.16177 0.0
C554 C 0.87581 0.75929 -0.01874 0.0
C555 C 0.88104 0.78666 0.11433 0.0
C556 C 0.86916 0.7878 0.8417 0.0
C557 C 0.86619 0.73262 0.75319 0.0
N558 N 0.87772 0.78595 0.02659 0.0
N559 N 0.86943 0.73333 0.84097 0.0
H560 H 0.62738 0.70985 0.29115 0.0
H561 H 0.64532 0.81072 0.72177 0.0
H562 H 0.62863 0.80853 0.29222 0.0
H563 H 0.644 0.71204 0.72072 0.0
H564 H 0.64013 0.81038 0.56358 0.0
H565 H 0.63271 0.7102 0.44925 0.0
C566 C 0.62847 0.73159 0.32476 0.0
C567 C 0.62767 0.75922 0.27845 0.0
C568 C 0.64111 0.78881 0.59791 0.0
C569 C 0.63414 0.75976 0.45897 0.0
C570 C 0.64424 0.78898 0.68814 0.0
C571 C 0.64497 0.76136 0.73447 0.0
C572 C 0.63866 0.76082 0.55388 0.0
C573 C 0.64346 0.73388 0.6876 0.0
C574 C 0.63169 0.73177 0.41494 0.0
C575 C 0.62921 0.78669 0.32532 0.0
N576 N 0.64023 0.73431 0.59982 0.0
N577 N 0.63252 0.78627 0.41306 0.0
H578 H 0.36372 0.70968 0.71797 0.0
H579 H 0.38225 0.80991 0.28592 0.0
H580 H 0.36631 0.80837 0.71557 0.0
H581 H 0.37959 0.71123 0.28872 0.0
H582 H 0.37718 0.80982 0.44404 0.0
H583 H 0.36864 0.70984 0.55984 0.0
C584 C 0.36504 0.73139 0.68404 0.0
C585 C 0.36474 0.75906 0.72993 0.0
C586 C 0.37783 0.78819 0.41009 0.0
C587 C 0.37072 0.75939 0.54944 0.0
C588 C 0.38089 0.78822 0.31992 0.0
C589 C 0.38122 0.76053 0.27416 0.0
C590 C 0.37506 0.76028 0.45457 0.0
C591 C 0.37936 0.73311 0.32144 0.0
C592 C 0.36801 0.73146 0.59385 0.0
C593 C 0.36651 0.7865 0.68273 0.0
N594 N 0.37622 0.73369 0.40915 0.0
N595 N 0.36958 0.78597 0.59496 0.0
H596 H 0.64407 0.2105 0.21682 0.0
H597 H 0.62743 0.31004 0.64799 0.0
H598 H 0.64416 0.30915 0.21871 0.0
H599 H 0.62737 0.21139 0.64603 0.0
H600 H 0.6328 0.31014 0.49003 0.0
H601 H 0.63886 0.21042 0.37485 0.0
C602 C 0.64329 0.23216 0.25061 0.0
C603 C 0.64443 0.25988 0.20453 0.0
C604 C 0.63148 0.28847 0.52409 0.0
C605 C 0.6381 0.25992 0.38502 0.0
C606 C 0.62825 0.28838 0.6142 0.0
C607 C 0.62706 0.26066 0.66023 0.0
C608 C 0.63357 0.26064 0.47985 0.0
C609 C 0.62824 0.2333 0.61314 0.0
C610 C 0.64016 0.23209 0.34076 0.0
C611 C 0.64332 0.28724 0.25164 0.0
N612 N 0.63158 0.23399 0.52546 0.0
N613 N 0.64006 0.28656 0.33936 0.0
H614 H 0.3636 0.20904 0.22051 0.0
H615 H 0.38115 0.31009 0.65079 0.0
H616 H 0.36546 0.30774 0.22121 0.0
H617 H 0.37952 0.2114 0.65041 0.0
H618 H 0.37612 0.30965 0.4926 0.0
H619 H 0.36851 0.20941 0.37884 0.0
C620 C 0.36475 0.23079 0.25408 0.0
C621 C 0.36426 0.25841 0.20769 0.0
C622 C 0.37699 0.28809 0.52708 0.0
C623 C 0.37022 0.25898 0.3883 0.0
C624 C 0.38002 0.28833 0.6173 0.0
C625 C 0.38064 0.26073 0.66376 0.0
C626 C 0.37453 0.26007 0.48323 0.0
C627 C 0.37908 0.23321 0.61713 0.0
C628 C 0.36772 0.23098 0.34437 0.0
C629 C 0.36584 0.2859 0.25442 0.0
N630 N 0.37595 0.23359 0.52932 0.0
N631 N 0.3689 0.28549 0.34224 0.0
H632 H 0.06218 0.31043 0.44874 0.0
H633 H 0.94589 0.2101 0.45357 0.0
H634 H 0.05972 0.21182 0.45778 0.0
H635 H 0.94848 0.30875 0.45385 0.0
H636 H 0.98753 0.21021 0.44018 0.0
H637 H 0.02054 0.31012 0.43555 0.0
C638 C 0.0529 0.28869 0.44733 0.0
C639 C 0.06443 0.2611 0.45513 0.0
C640 C 0.97898 0.23183 0.4426 0.0
C641 C 0.01673 0.26062 0.44042 0.0
C642 C 0.9552 0.2318 0.4502 0.0
C643 C 0.94371 0.25947 0.45559 0.0
C644 C 0.99138 0.25973 0.44058 0.0
C645 C 0.95664 0.28687 0.45047 0.0
C646 C 0.02911 0.28854 0.43984 0.0
C647 C 0.05152 0.23364 0.45246 0.0
N648 N 0.97981 0.2863 0.44383 0.0
N649 N 0.02834 0.2341 0.44593 0.0
H650 H 0.94714 0.71069 0.48902 0.0
H651 H 0.06348 0.81097 0.48631 0.0
H652 H 0.94969 0.80932 0.48294 0.0
H653 H 0.0609 0.71234 0.48157 0.0
H654 H 0.02186 0.81078 0.5002 0.0
H655 H 0.98881 0.71089 0.50151 0.0
C656 C 0.95644 0.73241 0.49095 0.0
C657 C 0.94493 0.76004 0.48418 0.0
C658 C 0.0304 0.78917 0.49669 0.0
C659 C 0.99264 0.7604 0.4981 0.0
C660 C 0.05418 0.78925 0.4888 0.0
C661 C 0.06566 0.76162 0.48203 0.0
C662 C 0.01801 0.76127 0.4976 0.0
C663 C 0.05274 0.73419 0.48605 0.0
C664 C 0.98025 0.73249 0.49802 0.0
C665 C 0.95787 0.78748 0.48745 0.0
N666 N 0.02957 0.73472 0.493 0.0
N667 N 0.98106 0.78695 0.4936 0.0
H668 H 0.56094 0.70921 0.9547 0.0
H669 H 0.44852 0.80956 0.94894 0.0
H670 H 0.56219 0.80786 0.95374 0.0
H671 H 0.44713 0.71095 0.95821 0.0
H672 H 0.49017 0.80925 0.93654 0.0
H673 H 0.51924 0.70929 0.94177 0.0
C674 C 0.55246 0.73089 0.95113 0.0
C675 C 0.56504 0.75858 0.95603 0.0
C676 C 0.48075 0.78767 0.94075 0.0
C677 C 0.51735 0.75882 0.94159 0.0
C678 C 0.45696 0.78783 0.9478 0.0
C679 C 0.44434 0.76024 0.95533 0.0
C680 C 0.49203 0.75974 0.94147 0.0
C681 C 0.45618 0.73277 0.95308 0.0
C682 C 0.52866 0.73092 0.94382 0.0
C683 C 0.55317 0.78597 0.95074 0.0
N684 N 0.47938 0.73323 0.94691 0.0
N685 N 0.52997 0.78539 0.94436 0.0
H686 H 0.44576 0.21053 -0.01101 0.0
H687 H 0.5626 0.30973 -0.01386 0.0
H688 H 0.4488 0.30914 -0.01886 0.0
H689 H 0.55949 0.21111 -0.01795 0.0
H690 H 0.52097 0.30997 -0.00076 0.0
H691 H 0.48741 0.21038 0.00137 0.0
C692 C 0.45517 0.23218 -0.00955 0.0
C693 C 0.4438 0.2599 -0.01671 0.0
C694 C 0.5294 0.28827 -0.00397 0.0
C695 C 0.4915 0.25986 -0.00285 0.0
C696 C 0.55318 0.28811 -0.0114 0.0
C697 C 0.56452 0.26034 -0.01774 0.0
C698 C 0.51686 0.26048 -0.00306 0.0
C699 C 0.55144 0.23304 -0.01378 0.0
C700 C 0.47897 0.23206 -0.00252 0.0
C701 C 0.45687 0.28723 -0.01402 0.0
N702 N 0.52828 0.23381 -0.00725 0.0
N703 N 0.48005 0.28651 -0.00786 0.0
loop_
_geom_bond_atom_site_label_1
_geom_bond_atom_site_label_2
_geom_bond_distance
_geom_bond_site_symmetry_2
_ccdc_geom_bond_type
C0 O16 1.251 . S
C0 O18 1.254 . S
N1 C2 1.333 . S
N1 C6 1.307 . S
N1 Zn7 2.020 . S
C2 N1 1.333 . S
C2 C3 1.379 . S
C2 H20 0.952 . S
C3 C2 1.379 . S
C3 C4 1.390 . S
C3 H30 0.949 . S
C4 C3 1.390 . S
C4 C5 1.357 . S
C5 C4 1.357 . S
C5 C6 1.370 . S
C5 H31 0.950 . S
C6 N1 1.307 . S
C6 C5 1.370 . S
C6 H24 0.948 . S
Zn7 N1 2.020 . S
Zn7 O16 2.039 . S
Zn7 O22 2.034 . S
Zn7 O26 2.025 . S
Zn7 O28 2.024 . S
C8 O27 1.246 . S
C8 O28 1.249 . S
N9 C10 1.307 . S
N9 C11 1.333 . S
N9 Zn15 2.020 . S
C10 N9 1.307 . S
C10 C14 1.370 . S
C10 H21 0.948 . S
C11 N9 1.333 . S
C11 C12 1.379 . S
C11 H19 0.952 . S
C12 C11 1.379 . S
C12 C13 1.390 . S
C12 H32 0.949 . S
C13 C12 1.390 . S
C13 C14 1.357 . S
C14 C10 1.370 . S
C14 C13 1.357 . S
C14 H33 0.950 . S
Zn15 N9 2.020 . S
Zn15 O18 2.025 . S
Zn15 O23 2.024 . S
Zn15 O25 2.039 . S
Zn15 O27 2.034 . S
O16 C0 1.251 . S
O16 Zn7 2.039 . S
C17 O22 1.246 . S
C17 O23 1.249 . S
O18 C0 1.254 . S
O18 Zn15 2.025 . S
H19 C11 0.952 . S
H20 C2 0.952 . S
H21 C10 0.948 . S
O22 Zn7 2.034 . S
O22 C17 1.246 . S
O23 Zn15 2.024 . S
O23 C17 1.249 . S
H24 C6 0.948 . S
O25 Zn15 2.039 . S
O25 C29 1.251 . S
O26 Zn7 2.025 . S
O26 C29 1.254 . S
O27 C8 1.246 . S
O27 Zn15 2.034 . S
O28 Zn7 2.024 . S
O28 C8 1.249 . S
C29 O25 1.251 . S
C29 O26 1.254 . S
H30 C3 0.949 . S
H31 C5 0.950 . S
H32 C12 0.949 . S
H33 C14 0.950 . S
C34 O50 1.251 . S
C34 O52 1.254 . S
N35 C36 1.333 . S
N35 C40 1.307 . S
N35 Zn41 2.020 . S
C36 N35 1.333 . S
C36 C37 1.379 . S
C36 H54 0.952 . S
C37 C36 1.379 . S
C37 C38 1.390 . S
C37 H64 0.949 . S
C38 C37 1.390 . S
C38 C39 1.357 . S
C39 C38 1.357 . S
C39 C40 1.370 . S
C39 H65 0.950 . S
C40 N35 1.307 . S
C40 C39 1.370 . S
C40 H58 0.948 . S
Zn41 N35 2.020 . S
Zn41 O50 2.039 . S
Zn41 O56 2.034 . S
Zn41 O60 2.025 . S
Zn41 O62 2.024 . S
C42 O61 1.246 . S
C42 O62 1.249 . S
N43 C44 1.307 . S
N43 C45 1.333 . S
N43 Zn49 2.020 . S
C44 N43 1.307 . S
C44 C48 1.370 . S
C44 H55 0.948 . S
C45 N43 1.333 . S
C45 C46 1.379 . S
C45 H53 0.952 . S
C46 C45 1.379 . S
C46 C47 1.390 . S
C46 H66 0.949 . S
C47 C46 1.390 . S
C47 C48 1.357 . S
C48 C44 1.370 . S
C48 C47 1.357 . S
C48 H67 0.950 . S
Zn49 N43 2.020 . S
Zn49 O52 2.025 . S
Zn49 O57 2.024 . S
Zn49 O59 2.039 . S
Zn49 O61 2.034 . S
O50 C34 1.251 . S
O50 Zn41 2.039 . S
C51 O56 1.246 . S
C51 O57 1.249 . S
O52 C34 1.254 . S
O52 Zn49 2.025 . S
H53 C45 0.952 . S
H54 C36 0.952 . S
H55 C44 0.948 . S
O56 Zn41 2.034 . S
O56 C51 1.246 . S
O57 Zn49 2.024 . S
O57 C51 1.249 . S
H58 C40 0.948 . S
O59 Zn49 2.039 . S
O59 C63 1.251 . S
O60 Zn41 2.025 . S
O60 C63 1.254 . S
O61 C42 1.246 . S
O61 Zn49 2.034 . S
O62 Zn41 2.024 . S
O62 C42 1.249 . S
C63 O59 1.251 . S
C63 O60 1.254 . S
H64 C37 0.949 . S
H65 C39 0.950 . S
H66 C46 0.949 . S
H67 C48 0.950 . S
C68 O84 1.251 . S
C68 O86 1.254 . S
N69 C70 1.333 . S
N69 C74 1.307 . S
N69 Zn75 2.020 . S
C70 N69 1.333 . S
C70 C71 1.379 . S
C70 H88 0.952 . S
C71 C70 1.379 . S
C71 C72 1.390 . S
C71 H98 0.949 . S
C72 C71 1.390 . S
C72 C73 1.357 . S
C73 C72 1.357 . S
C73 C74 1.370 . S
C73 H99 0.950 . S
C74 N69 1.307 . S
C74 C73 1.370 . S
C74 H92 0.948 . S
Zn75 N69 2.020 . S
Zn75 O84 2.039 . S
Zn75 O90 2.034 . S
Zn75 O94 2.025 . S
Zn75 O96 2.024 . S
C76 O95 1.246 . S
C76 O96 1.249 . S
N77 C78 1.307 . S
N77 C79 1.333 . S
N77 Zn83 2.020 . S
C78 N77 1.307 . S
C78 C82 1.370 . S
C78 H89 0.948 . S
C79 N77 1.333 . S
C79 C80 1.379 . S
C79 H87 0.952 . S
C80 C79 1.379 . S
C80 C81 1.390 . S
C80 H100 0.949 . S
C81 C80 1.390 . S
C81 C82 1.357 . S
C82 C78 1.370 . S
C82 C81 1.357 . S
C82 H101 0.950 . S
Zn83 N77 2.020 . S
Zn83 O86 2.025 . S
Zn83 O91 2.024 . S
Zn83 O93 2.039 . S
Zn83 O95 2.034 . S
O84 C68 1.251 . S
O84 Zn75 2.039 . S
C85 O90 1.246 . S
C85 O91 1.249 . S
O86 C68 1.254 . S
O86 Zn83 2.025 . S
H87 C79 0.952 . S
H88 C70 0.952 . S
H89 C78 0.948 . S
O90 Zn75 2.034 . S
O90 C85 1.246 . S
O91 Zn83 2.024 . S
O91 C85 1.249 . S
H92 C74 0.948 . S
O93 Zn83 2.039 . S
O93 C97 1.251 . S
O94 Zn75 2.025 . S
O94 C97 1.254 . S
O95 C76 1.246 . S
O95 Zn83 2.034 . S
O96 Zn75 2.024 . S
O96 C76 1.249 . S
C97 O93 1.251 . S
C97 O94 1.254 . S
H98 C71 0.949 . S
H99 C73 0.950 . S
H100 C80 0.949 . S
H101 C82 0.950 . S
C102 O118 1.251 . S
C102 O120 1.254 . S
N103 C104 1.333 . S
N103 C108 1.307 . S
N103 Zn109 2.020 . S
C104 N103 1.333 . S
C104 C105 1.379 . S
C104 H122 0.952 . S
C105 C104 1.379 . S
C105 C106 1.390 . S
C105 H132 0.949 . S
C106 C105 1.390 . S
C106 C107 1.357 . S
C107 C106 1.357 . S
C107 C108 1.370 . S
C107 H133 0.950 . S
C108 N103 1.307 . S
C108 C107 1.370 . S
C108 H126 0.948 . S
Zn109 N103 2.020 . S
Zn109 O118 2.039 . S
Zn109 O124 2.034 . S
Zn109 O128 2.025 . S
Zn109 O130 2.024 . S
C110 O129 1.246 . S
C110 O130 1.249 . S
N111 C112 1.307 . S
N111 C113 1.333 . S
N111 Zn117 2.020 . S
C112 N111 1.307 . S
C112 C116 1.370 . S
C112 H123 0.948 . S
C113 N111 1.333 . S
C113 C114 1.379 . S
C113 H121 0.952 . S
C114 C113 1.379 . S
C114 C115 1.390 . S
C114 H134 0.949 . S
C115 C114 1.390 . S
C115 C116 1.357 . S
C116 C112 1.370 . S
C116 C115 1.357 . S
C116 H135 0.950 . S
Zn117 N111 2.020 . S
Zn117 O120 2.025 . S
Zn117 O125 2.024 . S
Zn117 O127 2.039 . S
Zn117 O129 2.034 . S
O118 C102 1.251 . S
O118 Zn109 2.039 . S
C119 O124 1.246 . S
C119 O125 1.249 . S
O120 C102 1.254 . S
O120 Zn117 2.025 . S
H121 C113 0.952 . S
H122 C104 0.952 . S
H123 C112 0.948 . S
O124 Zn109 2.034 . S
O124 C119 1.246 . S
O125 Zn117 2.024 . S
O125 C119 1.249 . S
H126 C108 0.948 . S
O127 Zn117 2.039 . S
O127 C131 1.251 . S
O128 Zn109 2.025 . S
O128 C131 1.254 . S
O129 C110 1.246 . S
O129 Zn117 2.034 . S
O130 Zn109 2.024 . S
O130 C110 1.249 . S
C131 O127 1.251 . S
C131 O128 1.254 . S
H132 C105 0.949 . S
H133 C107 0.950 . S
H134 C114 0.949 . S
H135 C116 0.950 . S
C136 O152 1.251 . S
C136 O154 1.254 . S
N137 C138 1.333 . S
N137 C142 1.307 . S
N137 Zn143 2.020 . S
C138 N137 1.333 . S
C138 C139 1.379 . S
C138 H156 0.952 . S
C139 C138 1.379 . S
C139 C140 1.390 . S
C139 H166 0.949 . S
C140 C139 1.390 . S
C140 C141 1.357 . S
C141 C140 1.357 . S
C141 C142 1.370 . S
C141 H167 0.950 . S
C142 N137 1.307 . S
C142 C141 1.370 . S
C142 H160 0.948 . S
Zn143 N137 2.020 . S
Zn143 O152 2.039 . S
Zn143 O158 2.034 1_554 S
Zn143 O162 2.025 . S
Zn143 O164 2.024 . S
C144 O163 1.246 . S
C144 O164 1.249 . S
N145 C146 1.307 . S
N145 C147 1.333 . S
N145 Zn151 2.020 . S
C146 N145 1.307 . S
C146 C150 1.370 . S
C146 H157 0.948 . S
C147 N145 1.333 . S
C147 C148 1.379 . S
C147 H155 0.952 . S
C148 C147 1.379 . S
C148 C149 1.390 . S
C148 H168 0.949 . S
C149 C148 1.390 . S
C149 C150 1.357 . S
C150 C146 1.370 . S
C150 C149 1.357 . S
C150 H169 0.950 . S
Zn151 N145 2.020 . S
Zn151 O154 2.025 . S
Zn151 O159 2.024 1_554 S
Zn151 O161 2.039 . S
Zn151 O163 2.034 . S
O152 C136 1.251 . S
O152 Zn143 2.039 . S
C153 O158 1.246 . S
C153 O159 1.249 . S
O154 C136 1.254 . S
O154 Zn151 2.025 . S
H155 C147 0.952 . S
H156 C138 0.952 . S
H157 C146 0.948 . S
O158 Zn143 2.034 1_556 S
O158 C153 1.246 . S
O159 Zn151 2.024 1_556 S
O159 C153 1.249 . S
H160 C142 0.948 . S
O161 Zn151 2.039 . S
O161 C165 1.251 . S
O162 Zn143 2.025 . S
O162 C165 1.254 . S
O163 C144 1.246 . S
O163 Zn151 2.034 . S
O164 Zn143 2.024 . S
O164 C144 1.249 . S
C165 O161 1.251 . S
C165 O162 1.254 . S
H166 C139 0.949 . S
H167 C141 0.950 . S
H168 C148 0.949 . S
H169 C150 0.950 . S
C170 O186 1.251 . S
C170 O188 1.254 . S
N171 C172 1.333 . S
N171 C176 1.307 . S
N171 Zn177 2.020 . S
C172 N171 1.333 . S
C172 C173 1.379 . S
C172 H190 0.952 . S
C173 C172 1.379 . S
C173 C174 1.390 . S
C173 H200 0.949 . S
C174 C173 1.390 . S
C174 C175 1.357 . S
C175 C174 1.357 . S
C175 C176 1.370 . S
C175 H201 0.950 . S
C176 N171 1.307 . S
C176 C175 1.370 . S
C176 H194 0.948 . S
Zn177 N171 2.020 . S
Zn177 O186 2.039 . S
Zn177 O192 2.034 . S
Zn177 O196 2.025 . S
Zn177 O198 2.024 1_554 S
C178 O197 1.246 . S
C178 O198 1.249 . S
N179 C180 1.307 . S
N179 C181 1.333 . S
N179 Zn185 2.020 . S
C180 N179 1.307 . S
C180 C184 1.370 . S
C180 H191 0.948 . S
C181 N179 1.333 . S
C181 C182 1.379 . S
C181 H189 0.952 . S
C182 C181 1.379 . S
C182 C183 1.390 . S
C182 H202 0.949 . S
C183 C182 1.390 . S
C183 C184 1.357 . S
C184 C180 1.370 . S
C184 C183 1.357 . S
C184 H203 0.950 . S
Zn185 N179 2.020 . S
Zn185 O188 2.025 . S
Zn185 O193 2.024 . S
Zn185 O195 2.039 . S
Zn185 O197 2.034 1_554 S
O186 C170 1.251 . S
O186 Zn177 2.039 . S
C187 O192 1.246 . S
C187 O193 1.249 . S
O188 C170 1.254 . S
O188 Zn185 2.025 . S
H189 C181 0.952 . S
H190 C172 0.952 . S
H191 C180 0.948 . S
O192 Zn177 2.034 . S
O192 C187 1.246 . S
O193 Zn185 2.024 . S
O193 C187 1.249 . S
H194 C176 0.948 . S
O195 Zn185 2.039 . S
O195 C199 1.251 . S
O196 Zn177 2.025 . S
O196 C199 1.254 . S
O197 C178 1.246 . S
O197 Zn185 2.034 1_556 S
O198 Zn177 2.024 1_556 S
O198 C178 1.249 . S
C199 O195 1.251 . S
C199 O196 1.254 . S
H200 C173 0.949 . S
H201 C175 0.950 . S
H202 C182 0.949 . S
H203 C184 0.950 . S
C204 O220 1.251 . S
C204 O222 1.254 . S
N205 C206 1.333 . S
N205 C210 1.307 . S
N205 Zn211 2.020 . S
C206 N205 1.333 . S
C206 C207 1.379 . S
C206 H224 0.952 . S
C207 C206 1.379 . S
C207 C208 1.390 . S
C207 H234 0.949 . S
C208 C207 1.390 . S
C208 C209 1.357 . S
C209 C208 1.357 . S
C209 C210 1.370 . S
C209 H235 0.950 . S
C210 N205 1.307 . S
C210 C209 1.370 . S
C210 H228 0.948 . S
Zn211 N205 2.020 . S
Zn211 O220 2.039 . S
Zn211 O226 2.034 . S
Zn211 O230 2.025 . S
Zn211 O232 2.024 1_556 S
C212 O231 1.246 . S
C212 O232 1.249 . S
N213 C214 1.307 . S
N213 C215 1.333 . S
N213 Zn219 2.020 . S
C214 N213 1.307 . S
C214 C218 1.370 . S
C214 H225 0.948 . S
C215 N213 1.333 . S
C215 C216 1.379 . S
C215 H223 0.952 . S
C216 C215 1.379 . S
C216 C217 1.390 . S
C216 H236 0.949 . S
C217 C216 1.390 . S
C217 C218 1.357 . S
C218 C214 1.370 . S
C218 C217 1.357 . S
C218 H237 0.950 . S
Zn219 N213 2.020 . S
Zn219 O222 2.025 . S
Zn219 O227 2.024 . S
Zn219 O229 2.039 . S
Zn219 O231 2.034 1_556 S
O220 C204 1.251 . S
O220 Zn211 2.039 . S
C221 O226 1.246 . S
C221 O227 1.249 . S
O222 C204 1.254 . S
O222 Zn219 2.025 . S
H223 C215 0.952 . S
H224 C206 0.952 . S
H225 C214 0.948 . S
O226 Zn211 2.034 . S
O226 C221 1.246 . S
O227 Zn219 2.024 . S
O227 C221 1.249 . S
H228 C210 0.948 . S
O229 Zn219 2.039 . S
O229 C233 1.251 . S
O230 Zn211 2.025 . S
O230 C233 1.254 . S
O231 C212 1.246 . S
O231 Zn219 2.034 1_554 S
O232 Zn211 2.024 1_554 S
O232 C212 1.249 . S
C233 O229 1.251 . S
C233 O230 1.254 . S
H234 C207 0.949 . S
H235 C209 0.950 . S
H236 C216 0.949 . S
H237 C218 0.950 . S
C238 O254 1.251 . S
C238 O256 1.254 . S
N239 C240 1.333 . S
N239 C244 1.307 . S
N239 Zn245 2.020 . S
C240 N239 1.333 . S
C240 C241 1.379 . S
C240 H258 0.952 . S
C241 C240 1.379 . S
C241 C242 1.390 . S
C241 H268 0.949 . S
C242 C241 1.390 . S
C242 C243 1.357 . S
C243 C242 1.357 . S
C243 C244 1.370 . S
C243 H269 0.950 . S
C244 N239 1.307 . S
C244 C243 1.370 . S
C244 H262 0.948 . S
Zn245 N239 2.020 . S
Zn245 O254 2.039 . S
Zn245 O260 2.034 . S
Zn245 O264 2.025 . S
Zn245 O266 2.024 1_556 S
C246 O265 1.246 . S
C246 O266 1.249 . S
N247 C248 1.307 . S
N247 C249 1.333 . S
N247 Zn253 2.020 . S
C248 N247 1.307 . S
C248 C252 1.370 . S
C248 H259 0.948 . S
C249 N247 1.333 . S
C249 C250 1.379 . S
C249 H257 0.952 . S
C250 C249 1.379 . S
C250 C251 1.390 . S
C250 H270 0.949 . S
C251 C250 1.390 . S
C251 C252 1.357 . S
C252 C248 1.370 . S
C252 C251 1.357 . S
C252 H271 0.950 . S
Zn253 N247 2.020 . S
Zn253 O256 2.025 . S
Zn253 O261 2.024 . S
Zn253 O263 2.039 . S
Zn253 O265 2.034 1_556 S
O254 C238 1.251 . S
O254 Zn245 2.039 . S
C255 O260 1.246 . S
C255 O261 1.249 . S
O256 C238 1.254 . S
O256 Zn253 2.025 . S
H257 C249 0.952 . S
H258 C240 0.952 . S
H259 C248 0.948 . S
O260 Zn245 2.034 . S
O260 C255 1.246 . S
O261 Zn253 2.024 . S
O261 C255 1.249 . S
H262 C244 0.948 . S
O263 Zn253 2.039 . S
O263 C267 1.251 . S
O264 Zn245 2.025 . S
O264 C267 1.254 . S
O265 C246 1.246 . S
O265 Zn253 2.034 1_554 S
O266 Zn245 2.024 1_554 S
O266 C246 1.249 . S
C267 O263 1.251 . S
C267 O264 1.254 . S
H268 C241 0.949 . S
H269 C243 0.950 . S
H270 C250 0.949 . S
H271 C252 0.950 . S
H272 C278 0.930 . S
H273 C282 0.930 . S
H274 C287 0.929 . S
H275 C285 0.929 . S
H276 C280 0.929 . S
H277 C286 0.929 . S
C278 H272 0.930 . S
C278 C279 1.367 . S
C278 C286 1.378 . S
C279 C278 1.367 . S
C279 C287 1.433 . S
C280 H276 0.929 . S
C280 C282 1.378 . S
C280 C284 1.350 . S
C281 C284 1.463 . S
C281 C286 1.350 . S
C281 N289 1.427 . S
C282 H273 0.930 . S
C282 C280 1.378 . S
C282 C283 1.367 . S
C283 C282 1.367 . S
C283 C285 1.433 . S
C284 C280 1.350 . S
C284 C281 1.463 . S
C284 N288 1.427 . S
C285 H275 0.929 . S
C285 C283 1.433 . S
C285 N288 1.384 . S
C286 H277 0.929 . S
C286 C278 1.378 . S
C286 C281 1.350 . S
C287 H274 0.929 . S
C287 C279 1.433 . S
C287 N289 1.384 . S
N288 C284 1.427 . S
N288 C285 1.384 . S
N289 C281 1.427 . S
N289 C287 1.384 . S
H290 C296 0.930 . S
H291 C300 0.930 . S
H292 C305 0.929 . S
H293 C303 0.929 . S
H294 C298 0.929 . S
H295 C304 0.929 . S
C296 H290 0.930 . S
C296 C297 1.367 . S
C296 C304 1.378 . S
C297 C296 1.367 . S
C297 C305 1.433 . S
C298 H294 0.929 . S
C298 C300 1.378 . S
C298 C302 1.350 . S
C299 C302 1.463 . S
C299 C304 1.350 . S
C299 N307 1.427 . S
C300 H291 0.930 . S
C300 C298 1.378 . S
C300 C301 1.367 . S
C301 C300 1.367 . S
C301 C303 1.433 . S
C302 C298 1.350 . S
C302 C299 1.463 . S
C302 N306 1.427 . S
C303 H293 0.929 . S
C303 C301 1.433 . S
C303 N306 1.384 . S
C304 H295 0.929 . S
C304 C296 1.378 . S
C304 C299 1.350 . S
C305 H292 0.929 . S
C305 C297 1.433 . S
C305 N307 1.384 . S
N306 C302 1.427 . S
N306 C303 1.384 . S
N307 C299 1.427 . S
N307 C305 1.384 . S
H308 C314 0.930 . S
H309 C318 0.930 . S
H310 C323 0.929 . S
H311 C321 0.929 . S
H312 C316 0.929 . S
H313 C322 0.929 . S
C314 H308 0.930 . S
C314 C315 1.367 . S
C314 C322 1.378 . S
C315 C314 1.367 . S
C315 C323 1.433 . S
C316 H312 0.929 . S
C316 C318 1.378 . S
C316 C320 1.350 . S
C317 C320 1.463 . S
C317 C322 1.350 . S
C317 N325 1.427 . S
C318 H309 0.930 . S
C318 C316 1.378 . S
C318 C319 1.367 . S
C319 C318 1.367 . S
C319 C321 1.433 . S
C320 C316 1.350 . S
C320 C317 1.463 . S
C320 N324 1.427 . S
C321 H311 0.929 . S
C321 C319 1.433 . S
C321 N324 1.384 . S
C322 H313 0.929 . S
C322 C314 1.378 . S
C322 C317 1.350 . S
C323 H310 0.929 . S
C323 C315 1.433 . S
C323 N325 1.384 . S
N324 C320 1.427 . S
N324 C321 1.384 . S
N325 C317 1.427 . S
N325 C323 1.384 . S
H326 C332 0.930 . S
H327 C336 0.930 . S
H328 C341 0.929 . S
H329 C339 0.929 . S
H330 C334 0.929 . S
H331 C340 0.929 . S
C332 H326 0.930 . S
C332 C333 1.367 . S
C332 C340 1.378 . S
C333 C332 1.367 . S
C333 C341 1.433 . S
C334 H330 0.929 . S
C334 C336 1.378 . S
C334 C338 1.350 . S
C335 C338 1.463 . S
C335 C340 1.350 . S
C335 N343 1.427 . S
C336 H327 0.930 . S
C336 C334 1.378 . S
C336 C337 1.367 . S
C337 C336 1.367 . S
C337 C339 1.433 . S
C338 C334 1.350 . S
C338 C335 1.463 . S
C338 N342 1.427 . S
C339 H329 0.929 . S
C339 C337 1.433 . S
C339 N342 1.384 . S
C340 H331 0.929 . S
C340 C332 1.378 . S
C340 C335 1.350 . S
C341 H328 0.929 . S
C341 C333 1.433 . S
C341 N343 1.384 . S
N342 C338 1.427 . S
N342 C339 1.384 . S
N343 C335 1.427 . S
N343 C341 1.384 . S
H344 C350 0.930 . S
H345 C354 0.930 . S
H346 C359 0.929 . S
H347 C357 0.929 . S
H348 C352 0.929 . S
H349 C358 0.929 . S
C350 H344 0.930 . S
C350 C351 1.367 . S
C350 C358 1.378 . S
C351 C350 1.367 . S
C351 C359 1.433 . S
C352 H348 0.929 . S
C352 C354 1.378 . S
C352 C356 1.350 . S
C353 C356 1.463 1_565 S
C353 C358 1.350 . S
C353 N361 1.427 . S
C354 H345 0.930 . S
C354 C352 1.378 . S
C354 C355 1.367 . S
C355 C354 1.367 . S
C355 C357 1.433 . S
C356 C352 1.350 . S
C356 C353 1.463 1_545 S
C356 N360 1.427 . S
C357 H347 0.929 . S
C357 C355 1.433 . S
C357 N360 1.384 . S
C358 H349 0.929 . S
C358 C350 1.378 . S
C358 C353 1.350 . S
C359 H346 0.929 . S
C359 C351 1.433 . S
C359 N361 1.384 . S
N360 C356 1.427 . S
N360 C357 1.384 . S
N361 C353 1.427 . S
N361 C359 1.384 . S
H362 C368 0.930 . S
H363 C372 0.930 . S
H364 C377 0.929 . S
H365 C375 0.929 . S
H366 C370 0.929 . S
H367 C376 0.929 . S
C368 H362 0.930 . S
C368 C369 1.367 . S
C368 C376 1.378 . S
C369 C368 1.367 . S
C369 C377 1.433 . S
C370 H366 0.929 . S
C370 C372 1.378 . S
C370 C374 1.350 . S
C371 C374 1.463 . S
C371 C376 1.350 . S
C371 N379 1.427 . S
C372 H363 0.930 . S
C372 C370 1.378 . S
C372 C373 1.367 . S
C373 C372 1.367 . S
C373 C375 1.433 . S
C374 C370 1.350 . S
C374 C371 1.463 . S
C374 N378 1.427 . S
C375 H365 0.929 . S
C375 C373 1.433 . S
C375 N378 1.384 . S
C376 H367 0.929 . S
C376 C368 1.378 . S
C376 C371 1.350 . S
C377 H364 0.929 . S
C377 C369 1.433 . S
C377 N379 1.384 . S
N378 C374 1.427 . S
N378 C375 1.384 . S
N379 C371 1.427 . S
N379 C377 1.384 . S
H380 C386 0.930 . S
H381 C390 0.930 . S
H382 C395 0.929 . S
H383 C393 0.929 . S
H384 C388 0.929 . S
H385 C394 0.929 . S
C386 H380 0.930 . S
C386 C387 1.367 . S
C386 C394 1.378 . S
C387 C386 1.367 . S
C387 C395 1.433 . S
C388 H384 0.929 . S
C388 C390 1.378 . S
C388 C392 1.350 . S
C389 C392 1.463 1_565 S
C389 C394 1.350 . S
C389 N397 1.427 . S
C390 H381 0.930 . S
C390 C388 1.378 . S
C390 C391 1.367 . S
C391 C390 1.367 . S
C391 C393 1.433 . S
C392 C388 1.350 . S
C392 C389 1.463 1_545 S
C392 N396 1.427 . S
C393 H383 0.929 . S
C393 C391 1.433 . S
C393 N396 1.384 . S
C394 H385 0.929 . S
C394 C386 1.378 . S
C394 C389 1.350 . S
C395 H382 0.929 . S
C395 C387 1.433 . S
C395 N397 1.384 . S
N396 C392 1.427 . S
N396 C393 1.384 . S
N397 C389 1.427 . S
N397 C395 1.384 . S
H398 C404 0.930 . S
H399 C408 0.930 . S
H400 C413 0.929 . S
H401 C411 0.929 . S
H402 C406 0.929 . S
H403 C412 0.929 . S
C404 H398 0.930 . S
C404 C405 1.367 . S
C404 C412 1.378 . S
C405 C404 1.367 . S
C405 C413 1.433 . S
C406 H402 0.929 . S
C406 C408 1.378 . S
C406 C410 1.350 . S
C407 C410 1.463 . S
C407 C412 1.350 . S
C407 N415 1.427 . S
C408 H399 0.930 . S
C408 C406 1.378 . S
C408 C409 1.367 . S
C409 C408 1.367 . S
C409 C411 1.433 . S
C410 C406 1.350 . S
C410 C407 1.463 . S
C410 N414 1.427 . S
C411 H401 0.929 . S
C411 C409 1.433 . S
C411 N414 1.384 . S
C412 H403 0.929 . S
C412 C404 1.378 . S
C412 C407 1.350 . S
C413 H400 0.929 . S
C413 C405 1.433 . S
C413 N415 1.384 . S
N414 C410 1.427 . S
N414 C411 1.384 . S
N415 C407 1.427 . S
N415 C413 1.384 . S
H416 C422 0.930 . S
H417 C426 0.930 . S
H418 C431 0.929 . S
H419 C429 0.929 . S
H420 C424 0.929 . S
H421 C430 0.929 . S
C422 H416 0.930 . S
C422 C423 1.367 1_556 S
C422 C430 1.378 . S
C423 C422 1.367 1_554 S
C423 C431 1.433 . S
C424 H420 0.929 . S
C424 C426 1.378 . S
C424 C428 1.350 1_554 S
C425 C428 1.463 1_554 S
C425 C430 1.350 1_554 S
C425 N433 1.427 . S
C426 H417 0.930 . S
C426 C424 1.378 . S
C426 C427 1.367 1_554 S
C427 C426 1.367 1_556 S
C427 C429 1.433 . S
C428 C424 1.350 1_556 S
C428 C425 1.463 1_556 S
C428 N432 1.427 . S
C429 H419 0.929 . S
C429 C427 1.433 . S
C429 N432 1.384 . S
C430 H421 0.929 . S
C430 C422 1.378 . S
C430 C425 1.350 1_556 S
C431 H418 0.929 . S
C431 C423 1.433 . S
C431 N433 1.384 . S
N432 C428 1.427 . S
N432 C429 1.384 . S
N433 C425 1.427 . S
N433 C431 1.384 . S
H434 C440 0.930 . S
H435 C444 0.930 . S
H436 C449 0.929 . S
H437 C447 0.929 . S
H438 C442 0.929 . S
H439 C448 0.929 . S
C440 H434 0.930 . S
C440 C441 1.367 . S
C440 C448 1.378 . S
C441 C440 1.367 . S
C441 C449 1.433 1_554 S
C442 H438 0.929 . S
C442 C444 1.378 . S
C442 C446 1.350 . S
C443 C446 1.463 1_564 S
C443 C448 1.350 . S
C443 N451 1.427 1_554 S
C444 H435 0.930 . S
C444 C442 1.378 . S
C444 C445 1.367 . S
C445 C444 1.367 . S
C445 C447 1.433 1_556 S
C446 C442 1.350 . S
C446 C443 1.463 1_546 S
C446 N450 1.427 1_556 S
C447 H437 0.929 . S
C447 C445 1.433 1_554 S
C447 N450 1.384 . S
C448 H439 0.929 . S
C448 C440 1.378 . S
C448 C443 1.350 . S
C449 H436 0.929 . S
C449 C441 1.433 1_556 S
C449 N451 1.384 . S
N450 C446 1.427 1_554 S
N450 C447 1.384 . S
N451 C443 1.427 1_556 S
N451 C449 1.384 . S
H452 C458 0.930 . S
H453 C462 0.930 . S
H454 C467 0.929 . S
H455 C465 0.929 . S
H456 C460 0.929 . S
H457 C466 0.929 . S
C458 H452 0.930 . S
C458 C459 1.367 1_554 S
C458 C466 1.378 . S
C459 C458 1.367 1_556 S
C459 C467 1.433 . S
C460 H456 0.929 . S
C460 C462 1.378 . S
C460 C464 1.350 1_556 S
C461 C464 1.463 1_556 S
C461 C466 1.350 1_556 S
C461 N469 1.427 . S
C462 H453 0.930 . S
C462 C460 1.378 . S
C462 C463 1.367 1_556 S
C463 C462 1.367 1_554 S
C463 C465 1.433 . S
C464 C460 1.350 1_554 S
C464 C461 1.463 1_554 S
C464 N468 1.427 . S
C465 H455 0.929 . S
C465 C463 1.433 . S
C465 N468 1.384 . S
C466 H457 0.929 . S
C466 C458 1.378 . S
C466 C461 1.350 1_554 S
C467 H454 0.929 . S
C467 C459 1.433 . S
C467 N469 1.384 . S
N468 C464 1.427 . S
N468 C465 1.384 . S
N469 C461 1.427 . S
N469 C467 1.384 . S
H470 C476 0.930 . S
H471 C480 0.930 . S
H472 C485 0.929 . S
H473 C483 0.929 1_556 S
H474 C478 0.929 . S
H475 C484 0.929 . S
C476 H470 0.930 . S
C476 C477 1.367 . S
C476 C484 1.378 . S
C477 C476 1.367 . S
C477 C485 1.433 1_556 S
C478 H474 0.929 . S
C478 C480 1.378 . S
C478 C482 1.350 . S
C479 C482 1.463 1_546 S
C479 C484 1.350 . S
C479 N487 1.427 1_556 S
C480 H471 0.930 . S
C480 C478 1.378 . S
C480 C481 1.367 . S
C481 C480 1.367 . S
C481 C483 1.433 . S
C482 C478 1.350 . S
C482 C479 1.463 1_564 S
C482 N486 1.427 1_554 S
C483 H473 0.929 1_554 S
C483 C481 1.433 . S
C483 N486 1.384 1_554 S
C484 H475 0.929 . S
C484 C476 1.378 . S
C484 C479 1.350 . S
C485 H472 0.929 . S
C485 C477 1.433 1_554 S
C485 N487 1.384 . S
N486 C482 1.427 1_556 S
N486 C483 1.384 1_556 S
N487 C479 1.427 1_554 S
N487 C485 1.384 . S
H488 C494 0.930 . S
H489 C498 0.930 . S
H490 C503 0.929 . S
H491 C501 0.929 . S
H492 C496 0.929 . S
H493 C502 0.929 . S
C494 H488 0.930 . S
C494 C495 1.367 . S
C494 C502 1.378 . S
C495 C494 1.367 . S
C495 C503 1.433 . S
C496 H492 0.929 . S
C496 C498 1.378 . S
C496 C500 1.350 1_556 S
C497 C500 1.463 . S
C497 C502 1.350 . S
C497 N505 1.427 . S
C498 H489 0.930 . S
C498 C496 1.378 . S
C498 C499 1.367 . S
C499 C498 1.367 . S
C499 C501 1.433 . S
C500 C496 1.350 1_554 S
C500 C497 1.463 . S
C500 N504 1.427 1_554 S
C501 H491 0.929 . S
C501 C499 1.433 . S
C501 N504 1.384 . S
C502 H493 0.929 . S
C502 C494 1.378 . S
C502 C497 1.350 . S
C503 H490 0.929 . S
C503 C495 1.433 . S
C503 N505 1.384 . S
N504 C500 1.427 1_556 S
N504 C501 1.384 . S
N505 C497 1.427 . S
N505 C503 1.384 . S
H506 C512 0.930 . S
H507 C516 0.930 . S
H508 C521 0.929 . S
H509 C519 0.929 . S
H510 C514 0.929 1_554 S
H511 C520 0.929 . S
C512 H506 0.930 . S
C512 C513 1.367 . S
C512 C520 1.378 . S
C513 C512 1.367 . S
C513 C521 1.433 . S
C514 H510 0.929 1_556 S
C514 C516 1.378 . S
C514 C518 1.350 1_556 S
C515 C518 1.463 . S
C515 C520 1.350 . S
C515 N523 1.427 . S
C516 H507 0.930 . S
C516 C514 1.378 . S
C516 C517 1.367 . S
C517 C516 1.367 . S
C517 C519 1.433 . S
C518 C514 1.350 1_554 S
C518 C515 1.463 . S
C518 N522 1.427 1_554 S
C519 H509 0.929 . S
C519 C517 1.433 . S
C519 N522 1.384 . S
C520 H511 0.929 . S
C520 C512 1.378 . S
C520 C515 1.350 . S
C521 H508 0.929 . S
C521 C513 1.433 . S
C521 N523 1.384 . S
N522 C518 1.427 1_556 S
N522 C519 1.384 . S
N523 C515 1.427 . S
N523 C521 1.384 . S
H524 C530 0.930 . S
H525 C534 0.930 . S
H526 C539 0.929 . S
H527 C537 0.929 . S
H528 C532 0.929 . S
H529 C538 0.934 . S
C530 H524 0.930 . S
C530 C531 1.367 . S
C530 C538 1.378 . S
C531 C530 1.367 . S
C531 C539 1.433 . S
C532 H528 0.929 . S
C532 C534 1.378 . S
C532 C536 1.350 . S
C533 C536 1.463 . S
C533 C538 1.350 1_556 S
C533 N541 1.427 1_556 S
C534 H525 0.930 . S
C534 C532 1.378 . S
C534 C535 1.367 . S
C535 C534 1.367 . S
C535 C537 1.433 . S
C536 C532 1.350 . S
C536 C533 1.463 . S
C536 N540 1.427 . S
C537 H527 0.929 . S
C537 C535 1.433 . S
C537 N540 1.384 . S
C538 H529 0.934 . S
C538 C530 1.378 . S
C538 C533 1.350 1_554 S
C539 H526 0.929 . S
C539 C531 1.433 . S
C539 N541 1.384 . S
N540 C536 1.427 . S
N540 C537 1.384 . S
N541 C533 1.427 1_554 S
N541 C539 1.384 . S
H542 C548 0.930 . S
H543 C552 0.930 . S
H544 C557 0.929 . S
H545 C555 0.929 . S
H546 C550 0.929 . S
H547 C556 0.929 . S
C548 H542 0.930 . S
C548 C549 1.367 . S
C548 C556 1.378 . S
C549 C548 1.367 . S
C549 C557 1.433 . S
C550 H546 0.929 . S
C550 C552 1.378 . S
C550 C554 1.350 1_554 S
C551 C554 1.463 . S
C551 C556 1.350 . S
C551 N559 1.427 . S
C552 H543 0.930 . S
C552 C550 1.378 . S
C552 C553 1.367 . S
C553 C552 1.367 . S
C553 C555 1.433 . S
C554 C550 1.350 1_556 S
C554 C551 1.463 . S
C554 N558 1.427 1_556 S
C555 H545 0.929 . S
C555 C553 1.433 . S
C555 N558 1.384 . S
C556 H547 0.929 . S
C556 C548 1.378 . S
C556 C551 1.350 . S
C557 H544 0.929 . S
C557 C549 1.433 . S
C557 N559 1.384 . S
N558 C554 1.427 1_554 S
N558 C555 1.384 . S
N559 C551 1.427 . S
N559 C557 1.384 . S
H560 C566 0.930 . S
H561 C570 0.930 . S
H562 C575 0.929 . S
H563 C573 0.929 . S
H564 C568 0.929 . S
H565 C574 0.929 . S
C566 H560 0.930 . S
C566 C567 1.367 . S
C566 C574 1.378 . S
C567 C566 1.367 . S
C567 C575 1.433 . S
C568 H564 0.929 . S
C568 C570 1.378 . S
C568 C572 1.350 . S
C569 C572 1.463 . S
C569 C574 1.350 . S
C569 N577 1.427 . S
C570 H561 0.930 . S
C570 C568 1.378 . S
C570 C571 1.367 . S
C571 C570 1.367 . S
C571 C573 1.433 . S
C572 C568 1.350 . S
C572 C569 1.463 . S
C572 N576 1.427 . S
C573 H563 0.929 . S
C573 C571 1.433 . S
C573 N576 1.384 . S
C574 H565 0.929 . S
C574 C566 1.378 . S
C574 C569 1.350 . S
C575 H562 0.929 . S
C575 C567 1.433 . S
C575 N577 1.384 . S
N576 C572 1.427 . S
N576 C573 1.384 . S
N577 C569 1.427 . S
N577 C575 1.384 . S
H578 C584 0.930 . S
H579 C588 0.930 . S
H580 C593 0.929 . S
H581 C591 0.929 . S
H582 C586 0.929 . S
H583 C592 0.929 . S
C584 H578 0.930 . S
C584 C585 1.367 . S
C584 C592 1.378 . S
C585 C584 1.367 . S
C585 C593 1.433 . S
C586 H582 0.929 . S
C586 C588 1.378 . S
C586 C590 1.350 . S
C587 C590 1.463 . S
C587 C592 1.350 . S
C587 N595 1.427 . S
C588 H579 0.930 . S
C588 C586 1.378 . S
C588 C589 1.367 . S
C589 C588 1.367 . S
C589 C591 1.433 . S
C590 C586 1.350 . S
C590 C587 1.463 . S
C590 N594 1.427 . S
C591 H581 0.929 . S
C591 C589 1.433 . S
C591 N594 1.384 . S
C592 H583 0.929 . S
C592 C584 1.378 . S
C592 C587 1.350 . S
C593 H580 0.929 . S
C593 C585 1.433 . S
C593 N595 1.384 . S
N594 C590 1.427 . S
N594 C591 1.384 . S
N595 C587 1.427 . S
N595 C593 1.384 . S
H596 C602 0.930 . S
H597 C606 0.930 . S
H598 C611 0.929 . S
H599 C609 0.929 . S
H600 C604 0.929 . S
H601 C610 0.929 . S
C602 H596 0.930 . S
C602 C603 1.367 . S
C602 C610 1.378 . S
C603 C602 1.367 . S
C603 C611 1.433 . S
C604 H600 0.929 . S
C604 C606 1.378 . S
C604 C608 1.350 . S
C605 C608 1.463 . S
C605 C610 1.350 . S
C605 N613 1.427 . S
C606 H597 0.930 . S
C606 C604 1.378 . S
C606 C607 1.367 . S
C607 C606 1.367 . S
C607 C609 1.433 . S
C608 C604 1.350 . S
C608 C605 1.463 . S
C608 N612 1.427 . S
C609 H599 0.929 . S
C609 C607 1.433 . S
C609 N612 1.384 . S
C610 H601 0.929 . S
C610 C602 1.378 . S
C610 C605 1.350 . S
C611 H598 0.929 . S
C611 C603 1.433 . S
C611 N613 1.384 . S
N612 C608 1.427 . S
N612 C609 1.384 . S
N613 C605 1.427 . S
N613 C611 1.384 . S
H614 C620 0.930 . S
H615 C624 0.930 . S
H616 C629 0.929 . S
H617 C627 0.929 . S
H618 C622 0.929 . S
H619 C628 0.929 . S
C620 H614 0.930 . S
C620 C621 1.367 . S
C620 C628 1.378 . S
C621 C620 1.367 . S
C621 C629 1.433 . S
C622 H618 0.929 . S
C622 C624 1.378 . S
C622 C626 1.350 . S
C623 C626 1.463 . S
C623 C628 1.350 . S
C623 N631 1.427 . S
C624 H615 0.930 . S
C624 C622 1.378 . S
C624 C625 1.367 . S
C625 C624 1.367 . S
C625 C627 1.433 . S
C626 C622 1.350 . S
C626 C623 1.463 . S
C626 N630 1.427 . S
C627 H617 0.929 . S
C627 C625 1.433 . S
C627 N630 1.384 . S
C628 H619 0.929 . S
C628 C620 1.378 . S
C628 C623 1.350 . S
C629 H616 0.929 . S
C629 C621 1.433 . S
C629 N631 1.384 . S
N630 C626 1.427 . S
N630 C627 1.384 . S
N631 C623 1.427 . S
N631 C629 1.384 . S
H632 C638 0.930 . S
H633 C642 0.930 . S
H634 C647 0.929 . S
H635 C645 0.929 . S
H636 C640 0.929 . S
H637 C646 0.929 . S
C638 H632 0.930 . S
C638 C639 1.367 . S
C638 C646 1.378 . S
C639 C638 1.367 . S
C639 C647 1.433 . S
C640 H636 0.929 . S
C640 C642 1.378 . S
C640 C644 1.350 . S
C641 C644 1.463 1_455 S
C641 C646 1.350 . S
C641 N649 1.427 . S
C642 H633 0.930 . S
C642 C640 1.378 . S
C642 C643 1.367 . S
C643 C642 1.367 . S
C643 C645 1.433 . S
C644 C640 1.350 . S
C644 C641 1.463 1_655 S
C644 N648 1.427 . S
C645 H635 0.929 . S
C645 C643 1.433 . S
C645 N648 1.384 . S
C646 H637 0.929 . S
C646 C638 1.378 . S
C646 C641 1.350 . S
C647 H634 0.929 . S
C647 C639 1.433 . S
C647 N649 1.384 . S
N648 C644 1.427 . S
N648 C645 1.384 . S
N649 C641 1.427 . S
N649 C647 1.384 . S
H650 C656 0.930 . S
H651 C660 0.930 . S
H652 C665 0.929 . S
H653 C663 0.929 . S
H654 C658 0.929 . S
H655 C664 0.929 . S
C656 H650 0.930 . S
C656 C657 1.367 . S
C656 C664 1.378 . S
C657 C656 1.367 . S
C657 C665 1.433 . S
C658 H654 0.929 . S
C658 C660 1.378 . S
C658 C662 1.350 . S
C659 C662 1.463 1_655 S
C659 C664 1.350 . S
C659 N667 1.427 . S
C660 H651 0.930 . S
C660 C658 1.378 . S
C660 C661 1.367 . S
C661 C660 1.367 . S
C661 C663 1.433 . S
C662 C658 1.350 . S
C662 C659 1.463 1_455 S
C662 N666 1.427 . S
C663 H653 0.929 . S
C663 C661 1.433 . S
C663 N666 1.384 . S
C664 H655 0.929 . S
C664 C656 1.378 . S
C664 C659 1.350 . S
C665 H652 0.929 . S
C665 C657 1.433 . S
C665 N667 1.384 . S
N666 C662 1.427 . S
N666 C663 1.384 . S
N667 C659 1.427 . S
N667 C665 1.384 . S
H668 C674 0.930 . S
H669 C678 0.930 . S
H670 C683 0.929 . S
H671 C681 0.929 . S
H672 C676 0.929 . S
H673 C682 0.929 . S
C674 H668 0.930 . S
C674 C675 1.367 . S
C674 C682 1.378 . S
C675 C674 1.367 . S
C675 C683 1.433 . S
C676 H672 0.929 . S
C676 C678 1.378 . S
C676 C680 1.350 . S
C677 C680 1.463 . S
C677 C682 1.350 . S
C677 N685 1.427 . S
C678 H669 0.930 . S
C678 C676 1.378 . S
C678 C679 1.367 . S
C679 C678 1.367 . S
C679 C681 1.433 . S
C680 C676 1.350 . S
C680 C677 1.463 . S
C680 N684 1.427 . S
C681 H671 0.929 . S
C681 C679 1.433 . S
C681 N684 1.384 . S
C682 H673 0.929 . S
C682 C674 1.378 . S
C682 C677 1.350 . S
C683 H670 0.929 . S
C683 C675 1.433 . S
C683 N685 1.384 . S
N684 C680 1.427 . S
N684 C681 1.384 . S
N685 C677 1.427 . S
N685 C683 1.384 . S
H686 C692 0.930 . S
H687 C696 0.930 . S
H688 C701 0.929 . S
H689 C699 0.929 . S
H690 C694 0.929 . S
H691 C700 0.929 . S
C692 H686 0.930 . S
C692 C693 1.367 1_554 S
C692 C700 1.378 . S
C693 C692 1.367 1_556 S
C693 C701 1.433 . S
C694 H690 0.929 . S
C694 C696 1.378 . S
C694 C698 1.350 . S
C695 C698 1.463 . S
C695 C700 1.350 1_556 S
C695 N703 1.427 . S
C696 H687 0.930 . S
C696 C694 1.378 . S
C696 C697 1.367 . S
C697 C696 1.367 . S
C697 C699 1.433 1_556 S
C698 C694 1.350 . S
C698 C695 1.463 . S
C698 N702 1.427 1_556 S
C699 H689 0.929 . S
C699 C697 1.433 1_554 S
C699 N702 1.384 . S
C700 H691 0.929 . S
C700 C692 1.378 . S
C700 C695 1.350 1_554 S
C701 H688 0.929 . S
C701 C693 1.433 . S
C701 N703 1.384 . S
N702 C698 1.427 1_554 S
N702 C699 1.384 . S
N703 C695 1.427 . S
N703 C701 1.384 . S
C279 C0 1.702 . S
C283 C267 1.702 . S
C297 C233 1.698 . S
C301 C63 1.696 . S
C315 C199 1.699 . S
C319 C97 1.699 . S
C333 C136 1.701 . S
C337 C131 1.701 . S
C351 C72 1.678 . S
C355 C4 1.676 . S
C369 C38 1.589 . S
C373 C106 1.591 . S
C387 C115 1.576 . S
C391 C47 1.574 . S
C405 C81 1.476 . S
C409 C13 1.478 . S
C423 C140 1.677 . S
C427 C208 1.679 . S
C441 C174 1.589 . S
C445 C242 1.592 . S
C459 C251 1.576 . S
C463 C183 1.572 . S
C477 C217 1.481 . S
C481 C149 1.482 . S
C495 C17 1.184 . S
C499 C8 1.184 . S
C513 C42 1.183 . S
C517 C51 1.183 . S
C531 C85 1.184 . S
C535 C76 1.184 . S
C549 C110 1.183 . S
C553 C119 1.183 . S
C567 C144 1.182 . S
C571 C153 1.182 . S
C585 C178 1.184 . S
C589 C187 1.184 . S
C603 C212 1.184 . S
C607 C221 1.184 . S
C621 C246 1.182 . S
C625 C255 1.182 . S
C639 C29 1.600 . S
C643 C34 1.603 . S
C657 C102 1.601 . S
C661 C68 1.600 . S
C675 C165 1.602 . S
C679 C170 1.602 . S
C693 C238 1.602 . S
C697 C204 1.599 . S
