# Generated by pormake.
# Topology kag, (6)-cn, num edge types: 1
# Building blocks:
#     Node 0, Type 0, BuildingBlock: KUMBUR_clean_sbu_0, # of connection points: 6
#     Node 1, Type 0, BuildingBlock: KUMBUR_clean_sbu_0, # of connection points: 6
#     Node 2, Type 0, BuildingBlock: KUMBUR_clean_sbu_0, # of connection points: 6
#     Edge 3, Type (0, 0), BuildingBlock: EZIPEK_clean_linker_0, # of connection points: 2
#     Edge 4, Type (0, 0), BuildingBlock: EZIPEK_clean_linker_0, # of connection points: 2
#     Edge 5, Type (0, 0), BuildingBlock: EZIPEK_clean_linker_0, # of connection points: 2
#     Edge 6, Type (0, 0), BuildingBlock: EZIPEK_clean_linker_0, # of connection points: 2
#     Edge 7, Type (0, 0), BuildingBlock: EZIPEK_clean_linker_0, # of connection points: 2
#     Edge 8, Type (0, 0), BuildingBlock: EZIPEK_clean_linker_0, # of connection points: 2
#     Edge 9, Type (0, 0), BuildingBlock: EZIPEK_clean_linker_0, # of connection points: 2
#     Edge 10, Type (0, 0), BuildingBlock: EZIPEK_clean_linker_0, # of connection points: 2
#     Edge 11, Type (0, 0), BuildingBlock: EZIPEK_clean_linker_0, # of connection points: 2
# Relax obj value: 0.105
# Max RMSD: 0.224
# Mean RMSD: 0.162
data_MOF--net-kag--node1-KUMBUR_clean_sbu_0--edge1-EZIPEK_clean_linker_0
_symmetry_space_group_name_H-M    P1
_symmetry_Int_Tables_number       1
_symmetry_cell_setting            triclinic
loop_
_symmetry_equiv_pos_as_xyz
'x, y, z'
_cell_length_a     31.835389
_cell_length_b     23.024127
_cell_length_c     11.160339
_cell_angle_alpha  95.262846
_cell_angle_beta   114.17092
_cell_angle_gamma 92.852462
loop_
_atom_site_label
_atom_site_type_symbol
_atom_site_fract_x
_atom_site_fract_y
_atom_site_fract_z
_atom_type_partial_charge
Tb0 Tb 0.99739 0.44555 0.96148 0.0
C1 C 0.98914 0.69595 0.15106 0.0
C2 C 0.91037 0.71363 0.01385 0.0
C3 C 0.94968 0.76519 0.23615 0.0
C4 C 0.9497 0.68324 0.03336 0.0
C5 C 0.98984 0.73809 0.25222 0.0
C6 C 0.91004 0.75302 0.11719 0.0
C7 C 0.07105 0.72758 0.37321 0.0
N8 N 0.02744 0.66872 0.16422 0.0
C9 C 0.06884 0.68628 0.27036 0.0
C10 C 0.03121 0.75282 0.36527 0.0
Tb11 Tb 0.01785 0.59813 -0.00636 0.0
N12 N 0.95109 0.64473 0.93492 0.0
C13 C 0.91622 0.64064 0.81028 0.0
C14 C 0.87336 0.70585 0.88907 0.0
C15 C 0.877 0.67076 0.78601 0.0
H16 H 0.10001 0.66727 0.27865 0.0
H17 H 0.84923 0.66621 0.68768 0.0
H18 H 0.87984 0.77591 0.10437 0.0
H19 H 0.10352 0.73993 0.45861 0.0
H20 H 0.91719 0.61386 0.72766 0.0
H21 H 0.17178 0.38627 0.21125 0.0
H22 H 0.84268 0.72859 0.86989 0.0
H23 H 0.9079 0.37558 0.70012 0.0
H24 H 0.10195 0.43364 0.19388 0.0
H25 H 0.89466 0.29488 0.5248 0.0
H26 H 0.94937 0.79702 0.31352 0.0
H27 H 0.16998 0.32001 0.02125 0.0
H28 H 0.12274 0.26473 0.79597 0.0
H29 H 0.03308 0.78486 0.44516 0.0
H30 H 0.04639 0.23769 0.61105 0.0
N31 N 0.0631 0.40077 0.99149 0.0
C32 C 0.10152 0.40693 0.10874 0.0
C33 C 0.13975 0.34217 0.01199 0.0
C34 C 0.09859 0.33093 0.89711 0.0
C35 C 0.14088 0.37941 0.11948 0.0
C36 C 0.06037 0.36123 0.89004 0.0
H37 H 0.96078 0.24689 0.51218 0.0
N38 N 0.98137 0.37469 0.78679 0.0
C39 C 0.92951 0.30937 0.59678 0.0
C40 C 0.01771 0.3466 0.78535 0.0
C41 C 0.9373 0.35542 0.69672 0.0
C42 C 0.96692 0.28241 0.58988 0.0
C43 C 0.01168 0.30046 0.68576 0.0
O44 O 0.9428 0.39008 0.9603 0.0
O45 O 0.96827 0.52731 0.98414 0.0
O46 O 0.01988 0.58125 0.18502 0.0
O47 O 0.02424 0.48077 0.17467 0.0
O48 O 0.92423 0.46237 0.85586 0.0
O49 O 0.01249 0.38734 0.10604 0.0
O50 O 0.03366 0.6848 0.96571 0.0
O51 O 0.04901 0.51705 0.97919 0.0
O52 O 0.99938 0.46647 0.77481 0.0
O53 O 0.97936 0.56031 0.78399 0.0
O54 O 0.0857 0.57809 0.13308 0.0
O55 O 0.06025 0.61354 0.89317 0.0
C56 C 0.92531 0.51452 0.90987 0.0
C57 C 0.96245 0.29852 0.02984 0.0
C58 C 0.91103 0.21042 -0.00497 0.0
C59 C 0.92321 0.27083 0.03533 0.0
C60 C 0.93817 0.17797 0.94647 0.0
C61 C 0.99099 0.2647 0.98981 0.0
C62 C 0.9785 0.2049 0.94655 0.0
C63 C 0.02273 0.53199 0.23826 0.0
C64 C 0.97007 0.36293 0.05545 0.0
C65 C 0.05017 0.27256 0.68788 0.0
C66 C 0.09366 0.28805 0.79304 0.0
C67 C 0.08972 0.53035 0.07076 0.0
C68 C 0.10843 0.7023 0.97378 0.0
C69 C 0.11762 0.75071 0.91748 0.0
C70 C 0.16178 0.78175 0.9745 0.0
C71 C 0.19653 0.76455 0.08753 0.0
C72 C 0.14381 0.68603 0.08746 0.0
C73 C 0.1874 0.71697 0.14398 0.0
C74 C 0.98969 0.51582 0.72035 0.0
C75 C 0.06198 0.66994 0.91451 0.0
H76 H 0.90158 0.29654 0.06899 0.0
H77 H 0.9288 0.13163 0.91223 0.0
H78 H 0.02254 0.2843 0.99059 0.0
H79 H 1.0001 0.17941 0.91275 0.0
H80 H 0.09071 0.76444 0.8307 0.0
H81 H 0.2306 0.78844 0.13268 0.0
H82 H 0.13847 0.64989 0.13448 0.0
H83 H 0.2141 0.70404 0.23206 0.0
Tb84 Tb 0.56558 0.06573 0.07003 0.0
C85 C 0.37314 0.06387 0.64126 0.0
C86 C 0.35187 0.16185 0.66678 0.0
C87 C 0.31586 0.10247 0.45245 0.0
C88 C 0.37973 0.11656 0.71827 0.0
C89 C 0.34088 0.05581 0.50762 0.0
C90 C 0.321 0.1553 0.53242 0.0
C91 C 0.35616 0.95434 0.49848 0.0
N92 N 0.39687 1.01942 0.7002 0.0
C93 C 0.38704 0.96429 0.63218 0.0
C94 C 0.33342 1.00049 0.43529 0.0
Tb95 Tb 0.44624 1.03971 0.92149 0.0
N96 N 0.40951 0.12084 0.84787 0.0
C97 C 0.40993 0.16735 0.93355 0.0
C98 C 0.35326 0.21019 0.75405 0.0
C99 C 0.38178 0.21229 0.88864 0.0
H100 H 0.40347 0.92774 0.67974 0.0
H101 H 0.3813 0.24778 0.95861 0.0
H102 H 0.29979 0.18997 0.4907 0.0
H103 H 0.34961 0.91089 0.44464 0.0
H104 H 0.42931 0.16753 0.03825 0.0
H105 H 0.6291 0.86856 0.93852 0.0
H106 H 0.33089 0.24468 0.7197 0.0
H107 H 0.60442 0.15351 0.35756 0.0
H108 H 0.57967 0.94978 0.89792 0.0
H109 H 0.6535 0.14845 0.59184 0.0
H110 H 0.29107 0.0973 0.34982 0.0
H111 H 0.68444 0.85833 0.16675 0.0
H112 H 0.71601 0.89273 0.40976 0.0
H113 H 0.30907 0.99248 0.33223 0.0
H114 H 0.72014 0.96667 0.58883 0.0
N115 N 0.6034 0.98261 0.10119 0.0
C116 C 0.60154 0.94391 -0.00168 0.0
C117 C 0.66121 0.89254 0.14971 0.0
C118 C 0.66244 0.9314 0.25501 0.0
C119 C 0.63023 0.89837 0.02085 0.0
C120 C 0.63323 0.97706 0.22695 0.0
H121 H 0.69636 0.06179 0.65821 0.0
N122 N 0.61174 0.06624 0.29246 0.0
C123 C 0.64856 0.11142 0.5187 0.0
C124 C 0.63702 1.01984 0.32652 0.0
C125 C 0.61933 0.11337 0.38571 0.0
C126 C 0.67281 0.06257 0.55566 0.0
C127 C 0.66839 1.01683 0.45852 0.0
O128 O 0.61106 0.14103 0.10668 0.0
O129 O 0.50277 0.11314 0.96776 0.0
O130 O 0.4645 0.04974 0.75588 0.0
O131 O 0.54342 1.04083 0.85521 0.0
O132 O 0.55276 0.15602 0.13112 0.0
O133 O 0.61694 0.06365 -0.00504 0.0
O134 O 0.3911 0.97893 0.89924 0.0
O135 O 0.5096 0.99243 -0.00246 0.0
O136 O 0.54383 1.03976 0.22058 0.0
O137 O 0.47243 0.07431 0.13275 0.0
O138 O 0.45087 0.94234 0.91447 0.0
O139 O 0.40636 0.05972 0.02869 0.0
C140 C 0.51403 0.1655 0.0386 0.0
C141 C 0.68626 0.12443 0.1275 0.0
C142 C 0.7631 0.14151 0.13131 0.0
C143 C 0.71527 0.12524 0.06045 0.0
C144 C 0.78192 0.15344 0.26992 0.0
C145 C 0.70609 0.13718 0.26613 0.0
C146 C 0.75357 0.15059 0.33679 0.0
C147 C 0.50458 0.04433 0.74985 0.0
C148 C 0.63547 0.11598 0.05157 0.0
C149 C 0.69576 0.96971 0.48821 0.0
C150 C 0.6933 0.92753 0.3863 0.0
C151 C 0.49417 0.936 0.97354 0.0
C152 C 0.32744 1.02001 0.9191 0.0
C153 C 0.29693 0.97346 0.91671 0.0
C154 C 0.24918 0.97857 0.86628 0.0
C155 C 0.23158 1.02972 0.81439 0.0
C156 C 0.30933 0.07176 0.87082 0.0
C157 C 0.26175 0.07627 0.81711 0.0
C158 C 0.50664 0.05609 0.23237 0.0
C159 C 0.37752 1.01308 0.97303 0.0
H160 H 0.70053 0.11617 0.95343 0.0
H161 H 0.81862 0.1659 0.3263 0.0
H162 H 0.68507 0.1388 0.32042 0.0
H163 H 0.76825 0.1605 0.4435 0.0
H164 H 0.31033 0.93365 0.95641 0.0
H165 H 0.19478 1.03403 0.77531 0.0
H166 H 0.33146 0.10904 0.87541 0.0
H167 H 0.24836 0.11633 0.77954 0.0
Tb168 Tb 0.44762 0.54544 0.91124 0.0
C169 C 0.62976 0.61071 0.36647 0.0
C170 C 0.64692 0.71386 0.36531 0.0
C171 C 0.67144 0.67308 0.57453 0.0
C172 C 0.62581 0.65824 0.29822 0.0
C173 C 0.65196 0.61725 0.50555 0.0
C174 C 0.66937 0.72128 0.50432 0.0
C175 C 0.63471 0.51305 0.49571 0.0
N176 N 0.60975 0.55803 0.295 0.0
C177 C 0.61357 0.50884 0.35746 0.0
C178 C 0.65334 0.56761 0.5702 0.0
Tb179 Tb 0.57048 0.55709 0.06927 0.0
N180 N 0.60245 0.64935 0.16469 0.0
C181 C 0.60309 0.69284 0.09076 0.0
C182 C 0.64528 0.75976 0.29002 0.0
C183 C 0.62393 0.74873 0.15185 0.0
H184 H 0.59927 0.46652 0.3015 0.0
H185 H 0.62239 0.78295 0.09109 0.0
H186 H 0.68536 0.76388 0.55817 0.0
H187 H 0.6363 0.47426 0.54477 0.0
H188 H 0.58681 0.68466 0.98438 0.0
H189 H 0.40626 0.31489 0.85016 0.0
H190 H 0.66082 0.80329 0.33737 0.0
H191 H 0.41907 0.64309 0.69187 0.0
H192 H 0.43149 0.41313 0.97274 0.0
H193 H 0.39043 0.64109 0.4503 0.0
H194 H 0.68858 0.67932 0.68163 0.0
H195 H 0.37189 0.30094 0.60383 0.0
H196 H 0.34704 0.34784 0.39186 0.0
H197 H 0.66864 0.57074 0.67709 0.0
H198 H 0.34359 0.43733 0.28337 0.0
N199 N 0.41744 0.45454 0.80073 0.0
C200 C 0.41759 0.40765 0.86602 0.0
C201 C 0.38318 0.34449 0.65776 0.0
C202 C 0.37894 0.39384 0.59096 0.0
C203 C 0.40204 0.35183 0.79605 0.0
C204 C 0.39558 0.44904 0.66671 0.0
H205 H 0.36332 0.54647 0.30543 0.0
N206 N 0.41049 0.55058 0.68582 0.0
C207 C 0.3909 0.60069 0.49317 0.0
C208 C 0.39165 0.49907 0.60625 0.0
C209 C 0.40771 0.60164 0.63067 0.0
C210 C 0.37511 0.5473 0.41151 0.0
C211 C 0.3739 0.49575 0.46752 0.0
O212 O 0.37959 0.57064 0.85207 0.0
O213 O 0.50999 0.61206 -0.00232 0.0
O214 O 0.54174 0.57465 0.21811 0.0
O215 O 0.4694 0.5244 0.11322 0.0
O216 O 0.44955 0.64429 0.92895 0.0
O217 O 0.4063 0.51956 0.01124 0.0
O218 O 0.63571 0.52284 0.11628 0.0
O219 O 0.50823 0.49035 0.98578 0.0
O220 O 0.477 0.52423 0.76788 0.0
O221 O 0.54714 0.5782 0.8656 0.0
O222 O 0.56932 0.45901 0.06112 0.0
O223 O 0.60963 0.57489 0.95921 0.0
C224 C 0.4928 0.66364 0.98251 0.0
C225 C 0.34164 0.57438 -9e-05 0.0
C226 C 0.27116 0.57892 0.04757 0.0
C227 C 0.30001 0.54666 -6e-05 0.0
C228 C 0.28501 0.63881 0.09225 0.0
C229 C 0.35409 0.63363 0.05095 0.0
C230 C 0.32603 0.66533 0.09596 0.0
C231 C 0.50437 0.54837 0.22179 0.0
C232 C 0.37011 0.54394 0.9373 0.0
C233 C 0.35747 0.44088 0.39037 0.0
C234 C 0.35965 0.38995 0.45209 0.0
C235 C 0.52632 0.43931 0.0061 0.0
C236 C 0.69265 0.57401 0.06043 0.0
C237 C 0.72345 0.54961 0.00844 0.0
C238 C 0.76855 0.57862 0.04154 0.0
C239 C 0.78125 0.6322 0.12387 0.0
C240 C 0.70837 0.62677 0.14535 0.0
C241 C 0.75171 0.65565 0.17545 0.0
C242 C 0.51292 0.55095 0.75909 0.0
C243 C 0.64418 0.54607 0.02534 0.0
H244 H 0.28979 0.50083 0.96138 0.0
H245 H 0.2642 0.66523 0.12711 0.0
H246 H 0.38521 0.65597 0.05312 0.0
H247 H 0.33596 0.71133 0.13304 0.0
H248 H 0.71266 0.50846 0.94409 0.0
H249 H 0.81489 0.65553 0.15083 0.0
H250 H 0.68721 0.64614 0.18924 0.0
H251 H 0.76268 0.69659 0.24055 0.0
C252 C 0.98889 0.57509 0.52828 0.0
C253 C 0.99531 0.52259 0.59169 0.0
C254 C 0.03251 0.48752 0.44682 0.0
C255 C 0.01713 0.53279 0.36661 0.0
N256 N 0.9616 0.60604 0.31202 0.0
N257 N 1.00123 0.41946 0.54304 0.0
C258 C 0.99013 0.57325 0.40171 0.0
C259 C 0.01163 0.47605 0.53344 0.0
N260 N 0.9814 0.6269 0.58278 0.0
N261 N 0.06534 0.45373 0.43824 0.0
H262 H 0.97361 0.40905 0.56591 0.0
H263 H 0.01148 0.38449 0.49827 0.0
H264 H 0.08402 0.46356 0.38353 0.0
H265 H 0.07747 0.42088 0.49905 0.0
H266 H 0.98043 0.66533 0.53916 0.0
H267 H 0.98128 0.63485 0.67517 0.0
H268 H 0.9392 0.63252 0.33306 0.0
H269 H 0.95423 0.5995 0.21196 0.0
C270 C 0.48081 1.00475 0.38399 0.0
C271 C 0.50372 0.05436 0.36236 0.0
C272 C 0.52912 0.09552 0.59536 0.0
C273 C 0.50629 0.046 0.61801 0.0
N274 N 0.46625 0.94947 0.53974 0.0
N275 N 0.53688 0.15406 0.43571 0.0
C276 C 0.48324 0.99979 0.51321 0.0
C277 C 0.52454 0.10156 0.46506 0.0
N278 N 0.45495 0.96363 0.27929 0.0
N279 N 0.55635 0.1364 0.69877 0.0
H280 H 0.53337 0.15965 0.34107 0.0
H281 H 0.54663 0.19268 0.50086 0.0
H282 H 0.55949 0.13548 0.79514 0.0
H283 H 0.57864 0.16906 0.69108 0.0
H284 H 0.43286 0.92977 0.28326 0.0
H285 H 0.45298 0.96559 0.18421 0.0
H286 H 0.45396 0.91105 0.47432 0.0
H287 H 0.46741 0.94514 0.63255 0.0
C288 C 0.4945 0.49771 0.53078 0.0
C289 C 0.51324 0.54961 0.6232 0.0
C290 C 0.51598 0.60102 0.44198 0.0
C291 C 0.50132 0.54864 0.35363 0.0
N292 N 0.45834 0.45294 0.30376 0.0
N293 N 0.55283 0.6478 0.66542 0.0
C294 C 0.48528 0.49854 0.3945 0.0
C295 C 0.52746 0.60026 0.57899 0.0
N296 N 0.48873 0.44572 0.57468 0.0
N297 N 0.51278 0.65305 0.39116 0.0
H298 H 0.56246 0.65188 0.76638 0.0
H299 H 0.5683 0.68176 0.63716 0.0
H300 H 0.49611 0.65438 0.2894 0.0
H301 H 0.51867 0.69368 0.44778 0.0
H302 H 0.48174 0.40517 0.51723 0.0
H303 H 0.49594 0.44191 0.67276 0.0
H304 H 0.44016 0.41992 0.32611 0.0
H305 H 0.44984 0.4499 0.20326 0.0
C306 C 0.14214 0.51874 0.93938 0.0
C307 C 0.13691 0.52632 0.0612 0.0
C308 C 0.22213 0.55436 0.17565 0.0
C309 C 0.22614 0.55326 0.05214 0.0
N310 N 0.18662 0.54238 0.81453 0.0
N311 N 0.17584 0.53469 0.29841 0.0
C312 C 0.18528 0.53692 0.93386 0.0
C313 C 0.17828 0.53916 0.17995 0.0
N314 N 0.10704 0.49025 0.82931 0.0
N315 N 0.2601 0.57338 0.29006 0.0
H316 H 0.14496 0.5236 0.30607 0.0
H317 H 0.20449 0.53633 0.38837 0.0
H318 H 0.29265 0.58262 0.29222 0.0
H319 H 0.25929 0.58384 0.38168 0.0
H320 H 0.10981 0.47808 0.74087 0.0
H321 H 0.07824 0.47007 0.83386 0.0
H322 H 0.15708 0.53948 0.72601 0.0
H323 H 0.21688 0.55488 0.80488 0.0
C324 C 0.83383 0.11597 0.10239 0.0
C325 C 0.79465 0.1483 0.06432 0.0
C326 C 0.82612 0.20455 0.93908 0.0
C327 C 0.86947 0.18229 0.00407 0.0
N328 N 0.91593 0.12043 0.16253 0.0
N329 N 0.75549 0.2287 0.95476 0.0
C330 C 0.87366 0.13812 0.08815 0.0
C331 C 0.79076 0.19345 0.98274 0.0
N332 N 0.83314 0.06472 0.15449 0.0
N333 N 0.81893 0.23655 0.83638 0.0
H334 H 0.72948 0.22385 0.98786 0.0
H335 H 0.75435 0.26615 0.90807 0.0
H336 H 0.84404 0.24441 0.8007 0.0
H337 H 0.78668 0.24964 0.77834 0.0
H338 H 0.85941 1.0369 0.17407 0.0
H339 H 0.80398 0.04728 0.16443 0.0
H340 H 0.92101 0.09286 0.2353 0.0
H341 H 0.94666 0.13746 0.16135 0.0
C342 C 0.50532 0.82804 0.88005 0.0
C343 C 0.51067 0.86937 -0.00759 0.0
C344 C 0.51943 0.77607 0.11091 0.0
C345 C 0.50826 0.73444 -0.00617 0.0
N346 N 0.48996 0.72813 0.76245 0.0
N347 N 0.52309 0.8761 0.21958 0.0
C348 C 0.50125 0.76331 0.87826 0.0
C349 C 0.51795 0.84083 0.10868 0.0
N350 N 0.50633 0.85125 0.77343 0.0
N351 N 0.53413 0.75362 0.2282 0.0
H352 H 0.5264 0.92165 0.22425 0.0
H353 H 0.52257 0.86074 0.30382 0.0
H354 H 0.53972 0.70958 0.23199 0.0
H355 H 0.54648 0.77868 0.32031 0.0
H356 H 0.50723 0.82695 0.69134 0.0
H357 H 0.51227 0.89619 0.77619 0.0
H358 H 0.47735 0.74284 0.6698 0.0
H359 H 0.49166 0.68302 0.7598 0.0
C360 C 0.88218 0.51625 0.06365 0.0
C361 C 0.88425 0.52933 0.94308 0.0
C362 C 0.80531 0.56271 0.87525 0.0
C363 C 0.80508 0.55423 -0.00017 0.0
N364 N 0.84618 0.52705 0.21816 0.0
N365 N 0.83727 0.53948 0.71465 0.0
C366 C 0.84429 0.53183 0.09485 0.0
C367 C 0.84258 0.54486 0.84311 0.0
N368 N 0.91407 0.48341 0.1435 0.0
N369 N 0.77131 0.59153 0.78993 0.0
H370 H 0.86299 0.52602 0.68617 0.0
H371 H 0.80603 0.54363 0.63535 0.0
H372 H 0.74446 0.60639 0.81126 0.0
H373 H 0.77211 0.60532 0.70447 0.0
H374 H 0.91174 0.46577 0.22343 0.0
H375 H 0.94059 0.46856 0.12195 0.0
H376 H 0.87632 0.52053 0.29883 0.0
H377 H 0.81815 0.53307 0.24213 0.0
C378 C 0.18612 0.82865 0.81622 0.0
C379 C 0.1724 0.83444 0.92225 0.0
C380 C 0.20368 0.93712 0.9808 0.0
C381 C 0.2181 0.93129 0.87603 0.0
N382 N 0.21377 0.87763 0.67497 0.0
N383 N 0.15586 0.89619 0.08036 0.0
C384 C 0.20608 0.87894 0.78699 0.0
C385 C 0.17695 0.88964 -0.00426 0.0
N386 N 0.18228 0.77466 0.74842 0.0
N387 N 0.21782 0.98657 0.07048 0.0
H388 H 0.13595 0.8618 0.09278 0.0
H389 H 0.15433 0.93654 0.1281 0.0
H390 H 0.23735 1.02265 0.06302 0.0
H391 H 0.21312 0.99033 0.15777 0.0
H392 H 0.19662 0.76626 0.68062 0.0
H393 H 0.16656 0.73724 0.76492 0.0
H394 H 0.20196 0.84255 0.59985 0.0
H395 H 0.22867 0.9139 0.65183 0.0
C396 C 0.51104 0.34243 0.10895 0.0
C397 C 0.51197 0.36854 -0.00295 0.0
C398 C 0.50583 0.25996 0.8974 0.0
C399 C 0.50583 0.23432 0.01058 0.0
N400 N 0.49572 0.25857 0.21033 0.0
N401 N 0.52726 0.34368 0.80568 0.0
C402 C 0.50521 0.27824 0.11184 0.0
C403 C 0.51349 0.32442 0.8968 0.0
N404 N 0.5198 0.37942 0.22075 0.0
N405 N 0.49719 0.22267 0.78632 0.0
H406 H 0.53855 0.38745 0.8115 0.0
H407 H 0.53361 0.31584 0.73725 0.0
H408 H 0.48994 0.17769 0.78236 0.0
H409 H 0.49179 0.23676 0.69552 0.0
H410 H 0.52729 0.36556 0.31293 0.0
H411 H 0.52359 0.42474 0.2235 0.0
H412 H 0.48896 0.28563 0.27906 0.0
H413 H 0.4883 0.21433 0.21189 0.0
loop_
_geom_bond_atom_site_label_1
_geom_bond_atom_site_label_2
_geom_bond_distance
_geom_bond_site_symmetry_2
_ccdc_geom_bond_type
Tb0 N31 2.660 1_656 S
Tb0 N38 2.600 . S
Tb0 O44 2.546 . S
Tb0 O45 2.610 . S
Tb0 O47 2.320 1_656 S
Tb0 O48 2.552 . S
Tb0 O49 2.413 1_556 S
Tb0 O51 2.362 1_656 S
Tb0 O52 2.421 . S
Tb0 C64 2.833 . S
C1 C4 1.432 1_554 S
C1 C5 1.414 . S
C1 N8 1.359 1_655 S
C2 C4 1.417 . S
C2 C6 1.432 1_556 S
C2 C14 1.410 . S
C3 C5 1.444 . S
C3 C6 1.317 . S
C3 H26 0.929 . S
C4 C1 1.432 1_556 S
C4 C2 1.417 . S
C4 N12 1.360 . S
C5 C1 1.414 . S
C5 C3 1.444 . S
C5 C10 1.385 . S
C6 C2 1.432 1_554 S
C6 C3 1.317 . S
C6 H18 0.930 1_554 S
C7 C9 1.392 . S
C7 C10 1.370 1_455 S
C7 H19 0.931 . S
N8 C1 1.359 1_455 S
N8 C9 1.327 . S
N8 Tb11 2.600 . S
C9 C7 1.392 . S
C9 N8 1.327 . S
C9 H16 0.930 . S
C10 C5 1.385 . S
C10 C7 1.370 1_655 S
C10 H29 0.930 . S
Tb11 N8 2.600 . S
Tb11 N12 2.660 1_454 S
Tb11 O45 2.362 1_454 S
Tb11 O46 2.421 . S
Tb11 O50 2.546 . S
Tb11 O51 2.610 . S
Tb11 O53 2.320 1_454 S
Tb11 O54 2.552 . S
Tb11 O55 2.413 1_554 S
Tb11 C75 2.833 . S
N12 C4 1.360 . S
N12 Tb11 2.660 1_656 S
N12 C13 1.305 . S
C13 N12 1.305 . S
C13 C15 1.407 . S
C13 H20 0.930 . S
C14 C2 1.410 . S
C14 C15 1.345 . S
C14 H22 0.930 . S
C15 C13 1.407 . S
C15 C14 1.345 . S
C15 H17 0.930 . S
H16 C9 0.930 . S
H17 C15 0.930 . S
H18 C6 0.930 1_556 S
H19 C7 0.931 . S
H20 C13 0.930 . S
H21 C35 0.930 . S
H22 C14 0.930 . S
H23 C41 0.930 . S
H24 C32 0.930 . S
H25 C39 0.931 . S
H26 C3 0.929 . S
H27 C33 0.930 . S
H28 C66 0.930 1_554 S
H29 C10 0.930 . S
H30 C65 0.929 . S
N31 Tb0 2.660 1_454 S
N31 C32 1.305 . S
N31 C36 1.360 . S
C32 H24 0.930 . S
C32 N31 1.305 . S
C32 C35 1.407 . S
C33 H27 0.930 . S
C33 C34 1.410 . S
C33 C35 1.345 . S
C34 C33 1.410 . S
C34 C36 1.417 . S
C34 C66 1.432 1_554 S
C35 H21 0.930 . S
C35 C32 1.407 . S
C35 C33 1.345 . S
C36 N31 1.360 . S
C36 C34 1.417 . S
C36 C40 1.432 1_554 S
H37 C42 0.930 . S
N38 Tb0 2.600 . S
N38 C40 1.359 1_655 S
N38 C41 1.327 . S
C39 H25 0.931 . S
C39 C41 1.392 . S
C39 C42 1.370 1_655 S
C40 C36 1.432 1_556 S
C40 N38 1.359 1_455 S
C40 C43 1.414 . S
C41 H23 0.930 . S
C41 N38 1.327 . S
C41 C39 1.392 . S
C42 H37 0.930 . S
C42 C39 1.370 1_455 S
C42 C43 1.385 . S
C43 C40 1.414 . S
C43 C42 1.385 . S
C43 C65 1.444 . S
O44 Tb0 2.546 . S
O44 C64 1.251 . S
O45 Tb0 2.610 . S
O45 Tb11 2.362 1_656 S
O45 C56 1.283 . S
O46 Tb11 2.421 . S
O46 C63 1.262 . S
O47 Tb0 2.320 1_454 S
O47 C63 1.260 . S
O48 Tb0 2.552 . S
O48 C56 1.243 . S
O49 Tb0 2.413 1_554 S
O49 C64 1.256 1_554 S
O50 Tb11 2.546 . S
O50 C75 1.251 . S
O51 Tb0 2.362 1_454 S
O51 Tb11 2.610 . S
O51 C67 1.283 . S
O52 Tb0 2.421 . S
O52 C74 1.262 . S
O53 Tb11 2.320 1_656 S
O53 C74 1.260 . S
O54 Tb11 2.552 . S
O54 C67 1.243 . S
O55 Tb11 2.413 1_556 S
O55 C75 1.256 1_556 S
C56 O45 1.283 . S
C56 O48 1.243 . S
C57 C59 1.382 1_556 S
C57 C61 1.393 . S
C57 C64 1.500 . S
C58 C59 1.400 1_556 S
C58 C60 1.384 . S
C59 C57 1.382 1_554 S
C59 C58 1.400 1_554 S
C59 H76 0.930 . S
C60 C58 1.384 . S
C60 C62 1.392 . S
C60 H77 0.931 . S
C61 C57 1.393 . S
C61 C62 1.401 . S
C61 H78 0.930 . S
C62 C60 1.392 . S
C62 C61 1.401 . S
C62 H79 0.930 . S
C63 O46 1.262 . S
C63 O47 1.260 . S
C64 Tb0 2.833 . S
C64 O44 1.251 . S
C64 O49 1.256 1_556 S
C64 C57 1.500 . S
C65 H30 0.929 . S
C65 C43 1.444 . S
C65 C66 1.317 . S
C66 H28 0.930 1_556 S
C66 C34 1.432 1_556 S
C66 C65 1.317 . S
C67 O51 1.283 . S
C67 O54 1.243 . S
C68 C69 1.382 1_554 S
C68 C72 1.393 . S
C68 C75 1.500 . S
C69 C68 1.382 1_556 S
C69 C70 1.400 1_556 S
C69 H80 0.930 . S
C70 C69 1.400 1_554 S
C70 C71 1.384 . S
C71 C70 1.384 . S
C71 C73 1.392 . S
C71 H81 0.931 . S
C72 C68 1.393 . S
C72 C73 1.401 . S
C72 H82 0.930 . S
C73 C71 1.392 . S
C73 C72 1.401 . S
C73 H83 0.930 . S
C74 O52 1.262 . S
C74 O53 1.260 . S
C75 Tb11 2.833 . S
C75 O50 1.251 . S
C75 O55 1.256 1_554 S
C75 C68 1.500 . S
H76 C59 0.930 . S
H77 C60 0.931 . S
H78 C61 0.930 . S
H79 C62 0.930 . S
H80 C69 0.930 . S
H81 C71 0.931 . S
H82 C72 0.930 . S
H83 C73 0.930 . S
Tb84 N115 2.660 1_545 S
Tb84 N122 2.600 1_545 S
Tb84 O128 2.546 . S
Tb84 O129 2.610 1_554 S
Tb84 O131 2.320 1_554 S
Tb84 O132 2.552 . S
Tb84 O133 2.413 . S
Tb84 O135 2.362 1_545 S
Tb84 O136 2.421 . S
Tb84 C148 2.833 . S
C85 C88 1.432 . S
C85 C89 1.414 . S
C85 N92 1.359 . S
C86 C88 1.417 . S
C86 C90 1.432 . S
C86 C98 1.410 1_556 S
C87 C89 1.444 . S
C87 C90 1.317 . S
C87 H110 0.929 . S
C88 C85 1.432 . S
C88 C86 1.417 . S
C88 N96 1.360 . S
C89 C85 1.414 . S
C89 C87 1.444 . S
C89 C94 1.385 . S
C90 C86 1.432 . S
C90 C87 1.317 . S
C90 H102 0.930 . S
C91 C93 1.392 . S
C91 C94 1.370 . S
C91 H103 0.931 . S
N92 C85 1.359 . S
N92 C93 1.327 . S
N92 Tb95 2.600 1_545 S
C93 C91 1.392 . S
C93 N92 1.327 . S
C93 H100 0.930 1_545 S
C94 C89 1.385 . S
C94 C91 1.370 . S
C94 H113 0.930 . S
Tb95 N92 2.600 1_565 S
Tb95 N96 2.660 1_565 S
Tb95 O129 2.362 1_565 S
Tb95 O130 2.421 . S
Tb95 O134 2.546 . S
Tb95 O135 2.610 1_556 S
Tb95 O137 2.320 1_556 S
Tb95 O138 2.552 . S
Tb95 O139 2.413 . S
Tb95 C159 2.833 . S
N96 C88 1.360 . S
N96 Tb95 2.660 1_545 S
N96 C97 1.305 1_556 S
C97 N96 1.305 1_554 S
C97 C99 1.407 . S
C97 H104 0.930 . S
C98 C86 1.410 1_554 S
C98 C99 1.345 . S
C98 H106 0.930 . S
C99 C97 1.407 . S
C99 C98 1.345 . S
C99 H101 0.930 . S
H100 C93 0.930 1_565 S
H101 C99 0.930 . S
H102 C90 0.930 . S
H103 C91 0.931 . S
H104 C97 0.930 . S
H105 C119 0.930 . S
H106 C98 0.930 . S
H107 C125 0.930 1_545 S
H108 C116 0.930 . S
H109 C123 0.931 . S
H110 C87 0.929 . S
H111 C117 0.930 . S
H112 C150 0.930 . S
H113 C94 0.930 . S
H114 C149 0.929 . S
N115 Tb84 2.660 1_565 S
N115 C116 1.305 1_554 S
N115 C120 1.360 . S
C116 H108 0.930 . S
C116 N115 1.305 1_556 S
C116 C119 1.407 . S
C117 H111 0.930 . S
C117 C118 1.410 1_556 S
C117 C119 1.345 . S
C118 C117 1.410 1_554 S
C118 C120 1.417 . S
C118 C150 1.432 . S
C119 H105 0.930 . S
C119 C116 1.407 . S
C119 C117 1.345 . S
C120 N115 1.360 . S
C120 C118 1.417 . S
C120 C124 1.432 . S
H121 C126 0.930 . S
N122 Tb84 2.600 1_565 S
N122 C124 1.359 . S
N122 C125 1.327 . S
C123 H109 0.931 . S
C123 C125 1.392 . S
C123 C126 1.370 . S
C124 C120 1.432 . S
C124 N122 1.359 . S
C124 C127 1.414 . S
C125 H107 0.930 1_565 S
C125 N122 1.327 . S
C125 C123 1.392 . S
C126 H121 0.930 . S
C126 C123 1.370 . S
C126 C127 1.385 . S
C127 C124 1.414 . S
C127 C126 1.385 . S
C127 C149 1.444 . S
O128 Tb84 2.546 . S
O128 C148 1.251 . S
O129 Tb84 2.610 1_556 S
O129 Tb95 2.362 1_545 S
O129 C140 1.283 . S
O130 Tb95 2.421 . S
O130 C147 1.255 1_565 S
O131 Tb84 2.320 1_556 S
O131 C147 1.258 . S
O132 Tb84 2.552 . S
O132 C140 1.243 1_554 S
O133 Tb84 2.413 . S
O133 C148 1.256 . S
O134 Tb95 2.546 . S
O134 C159 1.251 . S
O135 Tb84 2.362 1_565 S
O135 Tb95 2.610 1_554 S
O135 C151 1.283 . S
O136 Tb84 2.421 . S
O136 C158 1.266 . S
O137 Tb95 2.320 1_554 S
O137 C158 1.261 1_565 S
O138 Tb95 2.552 . S
O138 C151 1.243 1_556 S
O139 Tb95 2.413 . S
O139 C159 1.256 . S
C140 O129 1.283 . S
C140 O132 1.243 1_556 S
C141 C143 1.382 . S
C141 C145 1.393 . S
C141 C148 1.500 . S
C142 C143 1.400 . S
C142 C144 1.384 . S
C143 C141 1.382 . S
C143 C142 1.400 . S
C143 H160 0.930 1_554 S
C144 C142 1.384 . S
C144 C146 1.392 . S
C144 H161 0.931 . S
C145 C141 1.393 . S
C145 C146 1.401 . S
C145 H162 0.930 . S
C146 C144 1.392 . S
C146 C145 1.401 . S
C146 H163 0.930 . S
C147 O130 1.255 1_545 S
C147 O131 1.258 . S
C148 Tb84 2.833 . S
C148 O128 1.251 . S
C148 O133 1.256 . S
C148 C141 1.500 . S
C149 H114 0.929 . S
C149 C127 1.444 . S
C149 C150 1.317 . S
C150 H112 0.930 . S
C150 C118 1.432 . S
C150 C149 1.317 . S
C151 O135 1.283 . S
C151 O138 1.243 1_554 S
C152 C153 1.382 . S
C152 C156 1.393 . S
C152 C159 1.500 . S
C153 C152 1.382 . S
C153 C154 1.400 . S
C153 H164 0.930 1_556 S
C154 C153 1.400 . S
C154 C155 1.384 . S
C155 C154 1.384 . S
C155 C157 1.392 . S
C155 H165 0.931 . S
C156 C152 1.393 . S
C156 C157 1.401 . S
C156 H166 0.930 . S
C157 C155 1.392 . S
C157 C156 1.401 . S
C157 H167 0.930 . S
C158 O136 1.266 . S
C158 O137 1.261 1_545 S
C159 Tb95 2.833 . S
C159 O134 1.251 . S
C159 O139 1.256 . S
C159 C152 1.500 . S
H160 C143 0.930 1_556 S
H161 C144 0.931 . S
H162 C145 0.930 . S
H163 C146 0.930 . S
H164 C153 0.930 1_554 S
H165 C155 0.931 . S
H166 C156 0.930 . S
H167 C157 0.930 . S
Tb168 N199 2.660 . S
Tb168 N206 2.600 . S
Tb168 O212 2.546 . S
Tb168 O213 2.610 1_556 S
Tb168 O215 2.320 1_556 S
Tb168 O216 2.552 . S
Tb168 O217 2.413 . S
Tb168 O219 2.362 . S
Tb168 O220 2.421 . S
Tb168 C232 2.833 . S
C169 C172 1.432 . S
C169 C173 1.414 . S
C169 N176 1.359 . S
C170 C172 1.417 . S
C170 C174 1.432 . S
C170 C182 1.410 1_554 S
C171 C173 1.444 . S
C171 C174 1.317 . S
C171 H194 0.929 . S
C172 C169 1.432 . S
C172 C170 1.417 . S
C172 N180 1.360 . S
C173 C169 1.414 . S
C173 C171 1.444 . S
C173 C178 1.385 . S
C174 C170 1.432 . S
C174 C171 1.317 . S
C174 H186 0.930 . S
C175 C177 1.392 . S
C175 C178 1.370 . S
C175 H187 0.931 . S
N176 C169 1.359 . S
N176 C177 1.327 . S
N176 Tb179 2.600 . S
C177 C175 1.392 . S
C177 N176 1.327 . S
C177 H184 0.930 . S
C178 C173 1.385 . S
C178 C175 1.370 . S
C178 H197 0.930 . S
Tb179 N176 2.600 . S
Tb179 N180 2.660 . S
Tb179 O213 2.362 . S
Tb179 O214 2.421 . S
Tb179 O218 2.546 . S
Tb179 O219 2.610 1_554 S
Tb179 O221 2.320 1_554 S
Tb179 O222 2.552 . S
Tb179 O223 2.413 . S
Tb179 C243 2.833 . S
N180 C172 1.360 . S
N180 Tb179 2.660 . S
N180 C181 1.305 1_554 S
C181 N180 1.305 1_556 S
C181 C183 1.407 . S
C181 H188 0.930 . S
C182 C170 1.410 1_556 S
C182 C183 1.345 . S
C182 H190 0.930 . S
C183 C181 1.407 . S
C183 C182 1.345 . S
C183 H185 0.930 . S
H184 C177 0.930 . S
H185 C183 0.930 . S
H186 C174 0.930 . S
H187 C175 0.931 . S
H188 C181 0.930 . S
H189 C203 0.930 . S
H190 C182 0.930 . S
H191 C209 0.930 . S
H192 C200 0.930 . S
H193 C207 0.931 . S
H194 C171 0.929 . S
H195 C201 0.930 . S
H196 C234 0.930 . S
H197 C178 0.930 . S
H198 C233 0.929 . S
N199 Tb168 2.660 . S
N199 C200 1.305 1_556 S
N199 C204 1.360 . S
C200 H192 0.930 . S
C200 N199 1.305 1_554 S
C200 C203 1.407 . S
C201 H195 0.930 . S
C201 C202 1.410 1_554 S
C201 C203 1.345 . S
C202 C201 1.410 1_556 S
C202 C204 1.417 . S
C202 C234 1.432 . S
C203 H189 0.930 . S
C203 C200 1.407 . S
C203 C201 1.345 . S
C204 N199 1.360 . S
C204 C202 1.417 . S
C204 C208 1.432 . S
H205 C210 0.930 . S
N206 Tb168 2.600 . S
N206 C208 1.359 . S
N206 C209 1.327 . S
C207 H193 0.931 . S
C207 C209 1.392 . S
C207 C210 1.370 . S
C208 C204 1.432 . S
C208 N206 1.359 . S
C208 C211 1.414 . S
C209 H191 0.930 . S
C209 N206 1.327 . S
C209 C207 1.392 . S
C210 H205 0.930 . S
C210 C207 1.370 . S
C210 C211 1.385 . S
C211 C208 1.414 . S
C211 C210 1.385 . S
C211 C233 1.444 . S
O212 Tb168 2.546 . S
O212 C232 1.251 . S
O213 Tb168 2.610 1_554 S
O213 Tb179 2.362 . S
O213 C224 1.283 . S
O214 Tb179 2.421 . S
O214 C231 1.262 . S
O215 Tb168 2.320 1_554 S
O215 C231 1.260 . S
O216 Tb168 2.552 . S
O216 C224 1.243 1_556 S
O217 Tb168 2.413 . S
O217 C232 1.256 . S
O218 Tb179 2.546 . S
O218 C243 1.251 . S
O219 Tb168 2.362 . S
O219 Tb179 2.610 1_556 S
O219 C235 1.283 . S
O220 Tb168 2.421 . S
O220 C242 1.262 . S
O221 Tb179 2.320 1_556 S
O221 C242 1.260 . S
O222 Tb179 2.552 . S
O222 C235 1.243 1_554 S
O223 Tb179 2.413 . S
O223 C243 1.256 . S
C224 O213 1.283 . S
C224 O216 1.243 1_554 S
C225 C227 1.382 . S
C225 C229 1.393 . S
C225 C232 1.500 . S
C226 C227 1.400 . S
C226 C228 1.384 . S
C227 C225 1.382 . S
C227 C226 1.400 . S
C227 H244 0.930 1_556 S
C228 C226 1.384 . S
C228 C230 1.392 . S
C228 H245 0.931 . S
C229 C225 1.393 . S
C229 C230 1.401 . S
C229 H246 0.930 . S
C230 C228 1.392 . S
C230 C229 1.401 . S
C230 H247 0.930 . S
C231 O214 1.262 . S
C231 O215 1.260 . S
C232 Tb168 2.833 . S
C232 O212 1.251 . S
C232 O217 1.256 . S
C232 C225 1.500 . S
C233 H198 0.929 . S
C233 C211 1.444 . S
C233 C234 1.317 . S
C234 H196 0.930 . S
C234 C202 1.432 . S
C234 C233 1.317 . S
C235 O219 1.283 . S
C235 O222 1.243 1_556 S
C236 C237 1.382 . S
C236 C240 1.393 . S
C236 C243 1.500 . S
C237 C236 1.382 . S
C237 C238 1.400 . S
C237 H248 0.930 1_554 S
C238 C237 1.400 . S
C238 C239 1.384 . S
C239 C238 1.384 . S
C239 C241 1.392 . S
C239 H249 0.931 . S
C240 C236 1.393 . S
C240 C241 1.401 . S
C240 H250 0.930 . S
C241 C239 1.392 . S
C241 C240 1.401 . S
C241 H251 0.930 . S
C242 O220 1.262 . S
C242 O221 1.260 . S
C243 Tb179 2.833 . S
C243 O218 1.251 . S
C243 O223 1.256 . S
C243 C236 1.500 . S
H244 C227 0.930 1_554 S
H245 C228 0.931 . S
H246 C229 0.930 . S
H247 C230 0.930 . S
H248 C237 0.930 1_556 S
H249 C239 0.931 . S
H250 C240 0.930 . S
H251 C241 0.930 . S
C252 C253 1.363 . S
C252 C258 1.379 . S
C252 N260 1.356 . S
C253 C252 1.363 . S
C253 C259 1.363 1_655 S
C254 C255 1.363 . S
C254 C259 1.379 . S
C254 N261 1.356 . S
C255 C254 1.363 . S
C255 C258 1.363 1_455 S
N256 C258 1.356 . S
N256 H268 0.984 . S
N256 H269 0.985 . S
N257 C259 1.356 . S
N257 H262 0.984 . S
N257 H263 0.985 . S
C258 C252 1.379 . S
C258 C255 1.363 1_655 S
C258 N256 1.356 . S
C259 C253 1.363 1_455 S
C259 C254 1.379 . S
C259 N257 1.356 . S
N260 C252 1.356 . S
N260 H266 0.984 . S
N260 H267 0.984 . S
N261 C254 1.356 . S
N261 H264 0.984 . S
N261 H265 0.985 . S
H262 N257 0.984 . S
H263 N257 0.985 . S
H264 N261 0.984 . S
H265 N261 0.985 . S
H266 N260 0.984 . S
H267 N260 0.984 . S
H268 N256 0.984 . S
H269 N256 0.985 . S
C270 C271 1.363 . S
C270 C276 1.379 . S
C270 N278 1.356 . S
C271 C270 1.363 . S
C271 C277 1.363 1_565 S
C272 C273 1.363 . S
C272 C277 1.379 . S
C272 N279 1.356 . S
C273 C272 1.363 . S
C273 C276 1.363 1_545 S
N274 C276 1.356 . S
N274 H286 0.984 . S
N274 H287 0.985 . S
N275 C277 1.356 . S
N275 H280 0.984 . S
N275 H281 0.985 . S
C276 C270 1.379 . S
C276 C273 1.363 1_565 S
C276 N274 1.356 . S
C277 C271 1.363 1_545 S
C277 C272 1.379 . S
C277 N275 1.356 . S
N278 C270 1.356 . S
N278 H284 0.984 . S
N278 H285 0.984 . S
N279 C272 1.356 . S
N279 H282 0.984 . S
N279 H283 0.985 . S
H280 N275 0.984 . S
H281 N275 0.985 . S
H282 N279 0.984 . S
H283 N279 0.985 . S
H284 N278 0.984 . S
H285 N278 0.984 . S
H286 N274 0.984 . S
H287 N274 0.985 . S
C288 C289 1.363 . S
C288 C294 1.379 . S
C288 N296 1.356 . S
C289 C288 1.363 . S
C289 C295 1.363 . S
C290 C291 1.363 . S
C290 C295 1.379 . S
C290 N297 1.356 . S
C291 C290 1.363 . S
C291 C294 1.363 . S
N292 C294 1.356 . S
N292 H304 0.984 . S
N292 H305 0.985 . S
N293 C295 1.356 . S
N293 H298 0.984 . S
N293 H299 0.985 . S
C294 C288 1.379 . S
C294 C291 1.363 . S
C294 N292 1.356 . S
C295 C289 1.363 . S
C295 C290 1.379 . S
C295 N293 1.356 . S
N296 C288 1.356 . S
N296 H302 0.984 . S
N296 H303 0.984 . S
N297 C290 1.356 . S
N297 H300 0.984 . S
N297 H301 0.985 . S
H298 N293 0.984 . S
H299 N293 0.985 . S
H300 N297 0.984 . S
H301 N297 0.985 . S
H302 N296 0.984 . S
H303 N296 0.984 . S
H304 N292 0.984 . S
H305 N292 0.985 . S
C306 C307 1.363 1_556 S
C306 C312 1.379 . S
C306 N314 1.356 . S
C307 C306 1.363 1_554 S
C307 C313 1.363 . S
C308 C309 1.363 . S
C308 C313 1.379 . S
C308 N315 1.356 . S
C309 C308 1.363 . S
C309 C312 1.363 1_554 S
N310 C312 1.356 . S
N310 H322 0.984 . S
N310 H323 0.985 . S
N311 C313 1.356 . S
N311 H316 0.984 . S
N311 H317 0.985 . S
C312 C306 1.379 . S
C312 C309 1.363 1_556 S
C312 N310 1.356 . S
C313 C307 1.363 . S
C313 C308 1.379 . S
C313 N311 1.356 . S
N314 C306 1.356 . S
N314 H320 0.984 . S
N314 H321 0.984 . S
N315 C308 1.356 . S
N315 H318 0.984 . S
N315 H319 0.985 . S
H316 N311 0.984 . S
H317 N311 0.985 . S
H318 N315 0.984 . S
H319 N315 0.985 . S
H320 N314 0.984 . S
H321 N314 0.984 . S
H322 N310 0.984 . S
H323 N310 0.985 . S
C324 C325 1.363 1_556 S
C324 C330 1.379 . S
C324 N332 1.356 . S
C325 C324 1.363 1_554 S
C325 C331 1.363 . S
C326 C327 1.363 . S
C326 C331 1.379 . S
C326 N333 1.356 . S
C327 C326 1.363 . S
C327 C330 1.363 1_554 S
N328 C330 1.356 . S
N328 H340 0.984 . S
N328 H341 0.985 . S
N329 C331 1.356 . S
N329 H334 0.984 . S
N329 H335 0.985 . S
C330 C324 1.379 . S
C330 C327 1.363 1_556 S
C330 N328 1.356 . S
C331 C325 1.363 . S
C331 C326 1.379 . S
C331 N329 1.356 . S
N332 C324 1.356 . S
N332 H338 0.984 . S
N332 H339 0.984 . S
N333 C326 1.356 . S
N333 H336 0.984 . S
N333 H337 0.985 . S
H334 N329 0.984 . S
H335 N329 0.985 . S
H336 N333 0.984 . S
H337 N333 0.985 . S
H338 N332 0.984 . S
H339 N332 0.984 . S
H340 N328 0.984 . S
H341 N328 0.985 . S
C342 C343 1.363 1_556 S
C342 C348 1.379 . S
C342 N350 1.356 . S
C343 C342 1.363 1_554 S
C343 C349 1.363 . S
C344 C345 1.363 . S
C344 C349 1.379 . S
C344 N351 1.356 . S
C345 C344 1.363 . S
C345 C348 1.363 1_554 S
N346 C348 1.356 . S
N346 H358 0.984 . S
N346 H359 0.985 . S
N347 C349 1.356 . S
N347 H352 0.984 . S
N347 H353 0.985 . S
C348 C342 1.379 . S
C348 C345 1.363 1_556 S
C348 N346 1.356 . S
C349 C343 1.363 . S
C349 C344 1.379 . S
C349 N347 1.356 . S
N350 C342 1.356 . S
N350 H356 0.984 . S
N350 H357 0.984 . S
N351 C344 1.356 . S
N351 H354 0.984 . S
N351 H355 0.985 . S
H352 N347 0.984 . S
H353 N347 0.985 . S
H354 N351 0.984 . S
H355 N351 0.985 . S
H356 N350 0.984 . S
H357 N350 0.984 . S
H358 N346 0.984 . S
H359 N346 0.985 . S
C360 C361 1.363 1_554 S
C360 C366 1.379 . S
C360 N368 1.356 . S
C361 C360 1.363 1_556 S
C361 C367 1.363 . S
C362 C363 1.363 . S
C362 C367 1.379 . S
C362 N369 1.356 . S
C363 C362 1.363 . S
C363 C366 1.363 1_556 S
N364 C366 1.356 . S
N364 H376 0.984 . S
N364 H377 0.985 . S
N365 C367 1.356 . S
N365 H370 0.984 . S
N365 H371 0.985 . S
C366 C360 1.379 . S
C366 C363 1.363 1_554 S
C366 N364 1.356 . S
C367 C361 1.363 . S
C367 C362 1.379 . S
C367 N365 1.356 . S
N368 C360 1.356 . S
N368 H374 0.984 . S
N368 H375 0.984 . S
N369 C362 1.356 . S
N369 H372 0.984 . S
N369 H373 0.985 . S
H370 N365 0.984 . S
H371 N365 0.985 . S
H372 N369 0.984 . S
H373 N369 0.985 . S
H374 N368 0.984 . S
H375 N368 0.984 . S
H376 N364 0.984 . S
H377 N364 0.985 . S
C378 C379 1.363 . S
C378 C384 1.379 . S
C378 N386 1.356 . S
C379 C378 1.363 . S
C379 C385 1.363 1_556 S
C380 C381 1.363 1_554 S
C380 C385 1.379 . S
C380 N387 1.356 . S
C381 C380 1.363 1_556 S
C381 C384 1.363 . S
N382 C384 1.356 . S
N382 H394 0.984 . S
N382 H395 0.985 . S
N383 C385 1.356 . S
N383 H388 0.984 . S
N383 H389 0.985 . S
C384 C378 1.379 . S
C384 C381 1.363 . S
C384 N382 1.356 . S
C385 C379 1.363 1_554 S
C385 C380 1.379 . S
C385 N383 1.356 . S
N386 C378 1.356 . S
N386 H392 0.984 . S
N386 H393 0.984 . S
N387 C380 1.356 . S
N387 H390 0.984 . S
N387 H391 0.985 . S
H388 N383 0.984 . S
H389 N383 0.985 . S
H390 N387 0.984 . S
H391 N387 0.985 . S
H392 N386 0.984 . S
H393 N386 0.984 . S
H394 N382 0.984 . S
H395 N382 0.985 . S
C396 C397 1.363 1_554 S
C396 C402 1.379 . S
C396 N404 1.356 . S
C397 C396 1.363 1_556 S
C397 C403 1.363 . S
C398 C399 1.363 . S
C398 C403 1.379 . S
C398 N405 1.356 . S
C399 C398 1.363 . S
C399 C402 1.363 1_556 S
N400 C402 1.356 . S
N400 H412 0.984 . S
N400 H413 0.985 . S
N401 C403 1.356 . S
N401 H406 0.984 . S
N401 H407 0.985 . S
C402 C396 1.379 . S
C402 C399 1.363 1_554 S
C402 N400 1.356 . S
C403 C397 1.363 . S
C403 C398 1.379 . S
C403 N401 1.356 . S
N404 C396 1.356 . S
N404 H410 0.984 . S
N404 H411 0.984 . S
N405 C398 1.356 . S
N405 H408 0.984 . S
N405 H409 0.985 . S
H406 N401 0.984 . S
H407 N401 0.985 . S
H408 N405 0.984 . S
H409 N405 0.985 . S
H410 N404 0.984 . S
H411 N404 0.984 . S
H412 N400 0.984 . S
H413 N400 0.985 . S
C253 C74 1.493 . S
C255 C63 1.493 . S
C271 C158 1.467 1_565 S
C273 C147 1.474 . S
C289 C242 1.485 . S
C291 C231 1.485 . S
C307 C67 1.679 . S
C309 C226 1.632 1_554 S
C325 C142 0.828 . S
C327 C58 0.854 1_554 S
C343 C151 2.351 . S
C345 C224 2.449 . S
C361 C56 1.679 . S
C363 C238 1.632 1_556 S
C379 C70 0.854 1_556 S
C381 C154 0.828 . S
C397 C235 2.449 . S
C399 C140 2.351 . S
