# Generated by pormake.
# Topology ukw, (4)-cn, num edge types: 1
# Building blocks:
#     Node 0, Type 0, BuildingBlock: QUQFOY_clean_sbu_1, # of connection points: 4
#     Node 1, Type 0, BuildingBlock: QUQFOY_clean_sbu_1, # of connection points: 4
#     Node 2, Type 0, BuildingBlock: QUQFOY_clean_sbu_1, # of connection points: 4
#     Node 3, Type 0, BuildingBlock: QUQFOY_clean_sbu_1, # of connection points: 4
#     Node 4, Type 0, BuildingBlock: QUQFOY_clean_sbu_1, # of connection points: 4
#     Node 5, Type 0, BuildingBlock: QUQFOY_clean_sbu_1, # of connection points: 4
#     Node 6, Type 0, BuildingBlock: QUQFOY_clean_sbu_1, # of connection points: 4
#     Node 7, Type 0, BuildingBlock: QUQFOY_clean_sbu_1, # of connection points: 4
#     Node 8, Type 0, BuildingBlock: QUQFOY_clean_sbu_1, # of connection points: 4
#     Node 9, Type 0, BuildingBlock: QUQFOY_clean_sbu_1, # of connection points: 4
#     Node 10, Type 0, BuildingBlock: QUQFOY_clean_sbu_1, # of connection points: 4
#     Node 11, Type 0, BuildingBlock: QUQFOY_clean_sbu_1, # of connection points: 4
#     Node 12, Type 0, BuildingBlock: QUQFOY_clean_sbu_1, # of connection points: 4
#     Node 13, Type 0, BuildingBlock: QUQFOY_clean_sbu_1, # of connection points: 4
#     Node 14, Type 0, BuildingBlock: QUQFOY_clean_sbu_1, # of connection points: 4
#     Node 15, Type 0, BuildingBlock: QUQFOY_clean_sbu_1, # of connection points: 4
#     Node 16, Type 0, BuildingBlock: QUQFOY_clean_sbu_1, # of connection points: 4
#     Node 17, Type 0, BuildingBlock: QUQFOY_clean_sbu_1, # of connection points: 4
#     Node 18, Type 0, BuildingBlock: QUQFOY_clean_sbu_1, # of connection points: 4
#     Node 19, Type 0, BuildingBlock: QUQFOY_clean_sbu_1, # of connection points: 4
#     Node 20, Type 0, BuildingBlock: QUQFOY_clean_sbu_1, # of connection points: 4
#     Node 21, Type 0, BuildingBlock: QUQFOY_clean_sbu_1, # of connection points: 4
#     Node 22, Type 0, BuildingBlock: QUQFOY_clean_sbu_1, # of connection points: 4
#     Node 23, Type 0, BuildingBlock: QUQFOY_clean_sbu_1, # of connection points: 4
#     Node 24, Type 0, BuildingBlock: QUQFOY_clean_sbu_1, # of connection points: 4
#     Node 25, Type 0, BuildingBlock: QUQFOY_clean_sbu_1, # of connection points: 4
#     Node 26, Type 0, BuildingBlock: QUQFOY_clean_sbu_1, # of connection points: 4
#     Node 27, Type 0, BuildingBlock: QUQFOY_clean_sbu_1, # of connection points: 4
#     Node 28, Type 0, BuildingBlock: QUQFOY_clean_sbu_1, # of connection points: 4
#     Node 29, Type 0, BuildingBlock: QUQFOY_clean_sbu_1, # of connection points: 4
#     Node 30, Type 0, BuildingBlock: QUQFOY_clean_sbu_1, # of connection points: 4
#     Node 31, Type 0, BuildingBlock: QUQFOY_clean_sbu_1, # of connection points: 4
#     Node 32, Type 0, BuildingBlock: QUQFOY_clean_sbu_1, # of connection points: 4
#     Node 33, Type 0, BuildingBlock: QUQFOY_clean_sbu_1, # of connection points: 4
#     Node 34, Type 0, BuildingBlock: QUQFOY_clean_sbu_1, # of connection points: 4
#     Node 35, Type 0, BuildingBlock: QUQFOY_clean_sbu_1, # of connection points: 4
#     Node 36, Type 0, BuildingBlock: QUQFOY_clean_sbu_1, # of connection points: 4
#     Node 37, Type 0, BuildingBlock: QUQFOY_clean_sbu_1, # of connection points: 4
#     Node 38, Type 0, BuildingBlock: QUQFOY_clean_sbu_1, # of connection points: 4
#     Node 39, Type 0, BuildingBlock: QUQFOY_clean_sbu_1, # of connection points: 4
#     Node 40, Type 0, BuildingBlock: QUQFOY_clean_sbu_1, # of connection points: 4
#     Node 41, Type 0, BuildingBlock: QUQFOY_clean_sbu_1, # of connection points: 4
#     Node 42, Type 0, BuildingBlock: QUQFOY_clean_sbu_1, # of connection points: 4
#     Node 43, Type 0, BuildingBlock: QUQFOY_clean_sbu_1, # of connection points: 4
#     Node 44, Type 0, BuildingBlock: QUQFOY_clean_sbu_1, # of connection points: 4
#     Node 45, Type 0, BuildingBlock: QUQFOY_clean_sbu_1, # of connection points: 4
#     Node 46, Type 0, BuildingBlock: QUQFOY_clean_sbu_1, # of connection points: 4
#     Node 47, Type 0, BuildingBlock: QUQFOY_clean_sbu_1, # of connection points: 4
#     Node 48, Type 0, BuildingBlock: QUQFOY_clean_sbu_1, # of connection points: 4
#     Node 49, Type 0, BuildingBlock: QUQFOY_clean_sbu_1, # of connection points: 4
#     Node 50, Type 0, BuildingBlock: QUQFOY_clean_sbu_1, # of connection points: 4
#     Node 51, Type 0, BuildingBlock: QUQFOY_clean_sbu_1, # of connection points: 4
#     Node 52, Type 0, BuildingBlock: QUQFOY_clean_sbu_1, # of connection points: 4
#     Node 53, Type 0, BuildingBlock: QUQFOY_clean_sbu_1, # of connection points: 4
#     Node 54, Type 0, BuildingBlock: QUQFOY_clean_sbu_1, # of connection points: 4
#     Node 55, Type 0, BuildingBlock: QUQFOY_clean_sbu_1, # of connection points: 4
#     Node 56, Type 0, BuildingBlock: QUQFOY_clean_sbu_1, # of connection points: 4
#     Node 57, Type 0, BuildingBlock: QUQFOY_clean_sbu_1, # of connection points: 4
#     Node 58, Type 0, BuildingBlock: QUQFOY_clean_sbu_1, # of connection points: 4
#     Node 59, Type 0, BuildingBlock: QUQFOY_clean_sbu_1, # of connection points: 4
#     Node 60, Type 0, BuildingBlock: QUQFOY_clean_sbu_1, # of connection points: 4
#     Node 61, Type 0, BuildingBlock: QUQFOY_clean_sbu_1, # of connection points: 4
#     Node 62, Type 0, BuildingBlock: QUQFOY_clean_sbu_1, # of connection points: 4
#     Node 63, Type 0, BuildingBlock: QUQFOY_clean_sbu_1, # of connection points: 4
#     Node 64, Type 0, BuildingBlock: QUQFOY_clean_sbu_1, # of connection points: 4
#     Node 65, Type 0, BuildingBlock: QUQFOY_clean_sbu_1, # of connection points: 4
#     Node 66, Type 0, BuildingBlock: QUQFOY_clean_sbu_1, # of connection points: 4
#     Node 67, Type 0, BuildingBlock: QUQFOY_clean_sbu_1, # of connection points: 4
#     Node 68, Type 0, BuildingBlock: QUQFOY_clean_sbu_1, # of connection points: 4
#     Node 69, Type 0, BuildingBlock: QUQFOY_clean_sbu_1, # of connection points: 4
#     Node 70, Type 0, BuildingBlock: QUQFOY_clean_sbu_1, # of connection points: 4
#     Node 71, Type 0, BuildingBlock: QUQFOY_clean_sbu_1, # of connection points: 4
#     Node 72, Type 0, BuildingBlock: QUQFOY_clean_sbu_1, # of connection points: 4
#     Node 73, Type 0, BuildingBlock: QUQFOY_clean_sbu_1, # of connection points: 4
#     Node 74, Type 0, BuildingBlock: QUQFOY_clean_sbu_1, # of connection points: 4
#     Node 75, Type 0, BuildingBlock: QUQFOY_clean_sbu_1, # of connection points: 4
#     Node 76, Type 0, BuildingBlock: QUQFOY_clean_sbu_1, # of connection points: 4
#     Node 77, Type 0, BuildingBlock: QUQFOY_clean_sbu_1, # of connection points: 4
#     Node 78, Type 0, BuildingBlock: QUQFOY_clean_sbu_1, # of connection points: 4
#     Node 79, Type 0, BuildingBlock: QUQFOY_clean_sbu_1, # of connection points: 4
#     Node 80, Type 0, BuildingBlock: QUQFOY_clean_sbu_1, # of connection points: 4
#     Node 81, Type 0, BuildingBlock: QUQFOY_clean_sbu_1, # of connection points: 4
#     Node 82, Type 0, BuildingBlock: QUQFOY_clean_sbu_1, # of connection points: 4
#     Node 83, Type 0, BuildingBlock: QUQFOY_clean_sbu_1, # of connection points: 4
#     Node 84, Type 0, BuildingBlock: QUQFOY_clean_sbu_1, # of connection points: 4
#     Node 85, Type 0, BuildingBlock: QUQFOY_clean_sbu_1, # of connection points: 4
#     Node 86, Type 0, BuildingBlock: QUQFOY_clean_sbu_1, # of connection points: 4
#     Node 87, Type 0, BuildingBlock: QUQFOY_clean_sbu_1, # of connection points: 4
#     Node 88, Type 0, BuildingBlock: QUQFOY_clean_sbu_1, # of connection points: 4
#     Node 89, Type 0, BuildingBlock: QUQFOY_clean_sbu_1, # of connection points: 4
#     Node 90, Type 0, BuildingBlock: QUQFOY_clean_sbu_1, # of connection points: 4
#     Node 91, Type 0, BuildingBlock: QUQFOY_clean_sbu_1, # of connection points: 4
#     Node 92, Type 0, BuildingBlock: QUQFOY_clean_sbu_1, # of connection points: 4
#     Node 93, Type 0, BuildingBlock: QUQFOY_clean_sbu_1, # of connection points: 4
#     Node 94, Type 0, BuildingBlock: QUQFOY_clean_sbu_1, # of connection points: 4
#     Node 95, Type 0, BuildingBlock: QUQFOY_clean_sbu_1, # of connection points: 4
#     Edge 96, Type (0, 0), BuildingBlock: AJUNOK_clean_linker_0, # of connection points: 2
#     Edge 97, Type (0, 0), BuildingBlock: AJUNOK_clean_linker_0, # of connection points: 2
#     Edge 98, Type (0, 0), BuildingBlock: AJUNOK_clean_linker_0, # of connection points: 2
#     Edge 99, Type (0, 0), BuildingBlock: AJUNOK_clean_linker_0, # of connection points: 2
#     Edge 100, Type (0, 0), BuildingBlock: AJUNOK_clean_linker_0, # of connection points: 2
#     Edge 101, Type (0, 0), BuildingBlock: AJUNOK_clean_linker_0, # of connection points: 2
#     Edge 102, Type (0, 0), BuildingBlock: AJUNOK_clean_linker_0, # of connection points: 2
#     Edge 103, Type (0, 0), BuildingBlock: AJUNOK_clean_linker_0, # of connection points: 2
#     Edge 104, Type (0, 0), BuildingBlock: AJUNOK_clean_linker_0, # of connection points: 2
#     Edge 105, Type (0, 0), BuildingBlock: AJUNOK_clean_linker_0, # of connection points: 2
#     Edge 106, Type (0, 0), BuildingBlock: AJUNOK_clean_linker_0, # of connection points: 2
#     Edge 107, Type (0, 0), BuildingBlock: AJUNOK_clean_linker_0, # of connection points: 2
#     Edge 108, Type (0, 0), BuildingBlock: AJUNOK_clean_linker_0, # of connection points: 2
#     Edge 109, Type (0, 0), BuildingBlock: AJUNOK_clean_linker_0, # of connection points: 2
#     Edge 110, Type (0, 0), BuildingBlock: AJUNOK_clean_linker_0, # of connection points: 2
#     Edge 111, Type (0, 0), BuildingBlock: AJUNOK_clean_linker_0, # of connection points: 2
#     Edge 112, Type (0, 0), BuildingBlock: AJUNOK_clean_linker_0, # of connection points: 2
#     Edge 113, Type (0, 0), BuildingBlock: AJUNOK_clean_linker_0, # of connection points: 2
#     Edge 114, Type (0, 0), BuildingBlock: AJUNOK_clean_linker_0, # of connection points: 2
#     Edge 115, Type (0, 0), BuildingBlock: AJUNOK_clean_linker_0, # of connection points: 2
#     Edge 116, Type (0, 0), BuildingBlock: AJUNOK_clean_linker_0, # of connection points: 2
#     Edge 117, Type (0, 0), BuildingBlock: AJUNOK_clean_linker_0, # of connection points: 2
#     Edge 118, Type (0, 0), BuildingBlock: AJUNOK_clean_linker_0, # of connection points: 2
#     Edge 119, Type (0, 0), BuildingBlock: AJUNOK_clean_linker_0, # of connection points: 2
#     Edge 120, Type (0, 0), BuildingBlock: AJUNOK_clean_linker_0, # of connection points: 2
#     Edge 121, Type (0, 0), BuildingBlock: AJUNOK_clean_linker_0, # of connection points: 2
#     Edge 122, Type (0, 0), BuildingBlock: AJUNOK_clean_linker_0, # of connection points: 2
#     Edge 123, Type (0, 0), BuildingBlock: AJUNOK_clean_linker_0, # of connection points: 2
#     Edge 124, Type (0, 0), BuildingBlock: AJUNOK_clean_linker_0, # of connection points: 2
#     Edge 125, Type (0, 0), BuildingBlock: AJUNOK_clean_linker_0, # of connection points: 2
#     Edge 126, Type (0, 0), BuildingBlock: AJUNOK_clean_linker_0, # of connection points: 2
#     Edge 127, Type (0, 0), BuildingBlock: AJUNOK_clean_linker_0, # of connection points: 2
#     Edge 128, Type (0, 0), BuildingBlock: AJUNOK_clean_linker_0, # of connection points: 2
#     Edge 129, Type (0, 0), BuildingBlock: AJUNOK_clean_linker_0, # of connection points: 2
#     Edge 130, Type (0, 0), BuildingBlock: AJUNOK_clean_linker_0, # of connection points: 2
#     Edge 131, Type (0, 0), BuildingBlock: AJUNOK_clean_linker_0, # of connection points: 2
#     Edge 132, Type (0, 0), BuildingBlock: AJUNOK_clean_linker_0, # of connection points: 2
#     Edge 133, Type (0, 0), BuildingBlock: AJUNOK_clean_linker_0, # of connection points: 2
#     Edge 134, Type (0, 0), BuildingBlock: AJUNOK_clean_linker_0, # of connection points: 2
#     Edge 135, Type (0, 0), BuildingBlock: AJUNOK_clean_linker_0, # of connection points: 2
#     Edge 136, Type (0, 0), BuildingBlock: AJUNOK_clean_linker_0, # of connection points: 2
#     Edge 137, Type (0, 0), BuildingBlock: AJUNOK_clean_linker_0, # of connection points: 2
#     Edge 138, Type (0, 0), BuildingBlock: AJUNOK_clean_linker_0, # of connection points: 2
#     Edge 139, Type (0, 0), BuildingBlock: AJUNOK_clean_linker_0, # of connection points: 2
#     Edge 140, Type (0, 0), BuildingBlock: AJUNOK_clean_linker_0, # of connection points: 2
#     Edge 141, Type (0, 0), BuildingBlock: AJUNOK_clean_linker_0, # of connection points: 2
#     Edge 142, Type (0, 0), BuildingBlock: AJUNOK_clean_linker_0, # of connection points: 2
#     Edge 143, Type (0, 0), BuildingBlock: AJUNOK_clean_linker_0, # of connection points: 2
#     Edge 144, Type (0, 0), BuildingBlock: AJUNOK_clean_linker_0, # of connection points: 2
#     Edge 145, Type (0, 0), BuildingBlock: AJUNOK_clean_linker_0, # of connection points: 2
#     Edge 146, Type (0, 0), BuildingBlock: AJUNOK_clean_linker_0, # of connection points: 2
#     Edge 147, Type (0, 0), BuildingBlock: AJUNOK_clean_linker_0, # of connection points: 2
#     Edge 148, Type (0, 0), BuildingBlock: AJUNOK_clean_linker_0, # of connection points: 2
#     Edge 149, Type (0, 0), BuildingBlock: AJUNOK_clean_linker_0, # of connection points: 2
#     Edge 150, Type (0, 0), BuildingBlock: AJUNOK_clean_linker_0, # of connection points: 2
#     Edge 151, Type (0, 0), BuildingBlock: AJUNOK_clean_linker_0, # of connection points: 2
#     Edge 152, Type (0, 0), BuildingBlock: AJUNOK_clean_linker_0, # of connection points: 2
#     Edge 153, Type (0, 0), BuildingBlock: AJUNOK_clean_linker_0, # of connection points: 2
#     Edge 154, Type (0, 0), BuildingBlock: AJUNOK_clean_linker_0, # of connection points: 2
#     Edge 155, Type (0, 0), BuildingBlock: AJUNOK_clean_linker_0, # of connection points: 2
#     Edge 156, Type (0, 0), BuildingBlock: AJUNOK_clean_linker_0, # of connection points: 2
#     Edge 157, Type (0, 0), BuildingBlock: AJUNOK_clean_linker_0, # of connection points: 2
#     Edge 158, Type (0, 0), BuildingBlock: AJUNOK_clean_linker_0, # of connection points: 2
#     Edge 159, Type (0, 0), BuildingBlock: AJUNOK_clean_linker_0, # of connection points: 2
#     Edge 160, Type (0, 0), BuildingBlock: AJUNOK_clean_linker_0, # of connection points: 2
#     Edge 161, Type (0, 0), BuildingBlock: AJUNOK_clean_linker_0, # of connection points: 2
#     Edge 162, Type (0, 0), BuildingBlock: AJUNOK_clean_linker_0, # of connection points: 2
#     Edge 163, Type (0, 0), BuildingBlock: AJUNOK_clean_linker_0, # of connection points: 2
#     Edge 164, Type (0, 0), BuildingBlock: AJUNOK_clean_linker_0, # of connection points: 2
#     Edge 165, Type (0, 0), BuildingBlock: AJUNOK_clean_linker_0, # of connection points: 2
#     Edge 166, Type (0, 0), BuildingBlock: AJUNOK_clean_linker_0, # of connection points: 2
#     Edge 167, Type (0, 0), BuildingBlock: AJUNOK_clean_linker_0, # of connection points: 2
#     Edge 168, Type (0, 0), BuildingBlock: AJUNOK_clean_linker_0, # of connection points: 2
#     Edge 169, Type (0, 0), BuildingBlock: AJUNOK_clean_linker_0, # of connection points: 2
#     Edge 170, Type (0, 0), BuildingBlock: AJUNOK_clean_linker_0, # of connection points: 2
#     Edge 171, Type (0, 0), BuildingBlock: AJUNOK_clean_linker_0, # of connection points: 2
#     Edge 172, Type (0, 0), BuildingBlock: AJUNOK_clean_linker_0, # of connection points: 2
#     Edge 173, Type (0, 0), BuildingBlock: AJUNOK_clean_linker_0, # of connection points: 2
#     Edge 174, Type (0, 0), BuildingBlock: AJUNOK_clean_linker_0, # of connection points: 2
#     Edge 175, Type (0, 0), BuildingBlock: AJUNOK_clean_linker_0, # of connection points: 2
#     Edge 176, Type (0, 0), BuildingBlock: AJUNOK_clean_linker_0, # of connection points: 2
#     Edge 177, Type (0, 0), BuildingBlock: AJUNOK_clean_linker_0, # of connection points: 2
#     Edge 178, Type (0, 0), BuildingBlock: AJUNOK_clean_linker_0, # of connection points: 2
#     Edge 179, Type (0, 0), BuildingBlock: AJUNOK_clean_linker_0, # of connection points: 2
#     Edge 180, Type (0, 0), BuildingBlock: AJUNOK_clean_linker_0, # of connection points: 2
#     Edge 181, Type (0, 0), BuildingBlock: AJUNOK_clean_linker_0, # of connection points: 2
#     Edge 182, Type (0, 0), BuildingBlock: AJUNOK_clean_linker_0, # of connection points: 2
#     Edge 183, Type (0, 0), BuildingBlock: AJUNOK_clean_linker_0, # of connection points: 2
#     Edge 184, Type (0, 0), BuildingBlock: AJUNOK_clean_linker_0, # of connection points: 2
#     Edge 185, Type (0, 0), BuildingBlock: AJUNOK_clean_linker_0, # of connection points: 2
#     Edge 186, Type (0, 0), BuildingBlock: AJUNOK_clean_linker_0, # of connection points: 2
#     Edge 187, Type (0, 0), BuildingBlock: AJUNOK_clean_linker_0, # of connection points: 2
#     Edge 188, Type (0, 0), BuildingBlock: AJUNOK_clean_linker_0, # of connection points: 2
#     Edge 189, Type (0, 0), BuildingBlock: AJUNOK_clean_linker_0, # of connection points: 2
#     Edge 190, Type (0, 0), BuildingBlock: AJUNOK_clean_linker_0, # of connection points: 2
#     Edge 191, Type (0, 0), BuildingBlock: AJUNOK_clean_linker_0, # of connection points: 2
#     Edge 192, Type (0, 0), BuildingBlock: AJUNOK_clean_linker_0, # of connection points: 2
#     Edge 193, Type (0, 0), BuildingBlock: AJUNOK_clean_linker_0, # of connection points: 2
#     Edge 194, Type (0, 0), BuildingBlock: AJUNOK_clean_linker_0, # of connection points: 2
#     Edge 195, Type (0, 0), BuildingBlock: AJUNOK_clean_linker_0, # of connection points: 2
#     Edge 196, Type (0, 0), BuildingBlock: AJUNOK_clean_linker_0, # of connection points: 2
#     Edge 197, Type (0, 0), BuildingBlock: AJUNOK_clean_linker_0, # of connection points: 2
#     Edge 198, Type (0, 0), BuildingBlock: AJUNOK_clean_linker_0, # of connection points: 2
#     Edge 199, Type (0, 0), BuildingBlock: AJUNOK_clean_linker_0, # of connection points: 2
#     Edge 200, Type (0, 0), BuildingBlock: AJUNOK_clean_linker_0, # of connection points: 2
#     Edge 201, Type (0, 0), BuildingBlock: AJUNOK_clean_linker_0, # of connection points: 2
#     Edge 202, Type (0, 0), BuildingBlock: AJUNOK_clean_linker_0, # of connection points: 2
#     Edge 203, Type (0, 0), BuildingBlock: AJUNOK_clean_linker_0, # of connection points: 2
#     Edge 204, Type (0, 0), BuildingBlock: AJUNOK_clean_linker_0, # of connection points: 2
#     Edge 205, Type (0, 0), BuildingBlock: AJUNOK_clean_linker_0, # of connection points: 2
#     Edge 206, Type (0, 0), BuildingBlock: AJUNOK_clean_linker_0, # of connection points: 2
#     Edge 207, Type (0, 0), BuildingBlock: AJUNOK_clean_linker_0, # of connection points: 2
#     Edge 208, Type (0, 0), BuildingBlock: AJUNOK_clean_linker_0, # of connection points: 2
#     Edge 209, Type (0, 0), BuildingBlock: AJUNOK_clean_linker_0, # of connection points: 2
#     Edge 210, Type (0, 0), BuildingBlock: AJUNOK_clean_linker_0, # of connection points: 2
#     Edge 211, Type (0, 0), BuildingBlock: AJUNOK_clean_linker_0, # of connection points: 2
#     Edge 212, Type (0, 0), BuildingBlock: AJUNOK_clean_linker_0, # of connection points: 2
#     Edge 213, Type (0, 0), BuildingBlock: AJUNOK_clean_linker_0, # of connection points: 2
#     Edge 214, Type (0, 0), BuildingBlock: AJUNOK_clean_linker_0, # of connection points: 2
#     Edge 215, Type (0, 0), BuildingBlock: AJUNOK_clean_linker_0, # of connection points: 2
#     Edge 216, Type (0, 0), BuildingBlock: AJUNOK_clean_linker_0, # of connection points: 2
#     Edge 217, Type (0, 0), BuildingBlock: AJUNOK_clean_linker_0, # of connection points: 2
#     Edge 218, Type (0, 0), BuildingBlock: AJUNOK_clean_linker_0, # of connection points: 2
#     Edge 219, Type (0, 0), BuildingBlock: AJUNOK_clean_linker_0, # of connection points: 2
#     Edge 220, Type (0, 0), BuildingBlock: AJUNOK_clean_linker_0, # of connection points: 2
#     Edge 221, Type (0, 0), BuildingBlock: AJUNOK_clean_linker_0, # of connection points: 2
#     Edge 222, Type (0, 0), BuildingBlock: AJUNOK_clean_linker_0, # of connection points: 2
#     Edge 223, Type (0, 0), BuildingBlock: AJUNOK_clean_linker_0, # of connection points: 2
#     Edge 224, Type (0, 0), BuildingBlock: AJUNOK_clean_linker_0, # of connection points: 2
#     Edge 225, Type (0, 0), BuildingBlock: AJUNOK_clean_linker_0, # of connection points: 2
#     Edge 226, Type (0, 0), BuildingBlock: AJUNOK_clean_linker_0, # of connection points: 2
#     Edge 227, Type (0, 0), BuildingBlock: AJUNOK_clean_linker_0, # of connection points: 2
#     Edge 228, Type (0, 0), BuildingBlock: AJUNOK_clean_linker_0, # of connection points: 2
#     Edge 229, Type (0, 0), BuildingBlock: AJUNOK_clean_linker_0, # of connection points: 2
#     Edge 230, Type (0, 0), BuildingBlock: AJUNOK_clean_linker_0, # of connection points: 2
#     Edge 231, Type (0, 0), BuildingBlock: AJUNOK_clean_linker_0, # of connection points: 2
#     Edge 232, Type (0, 0), BuildingBlock: AJUNOK_clean_linker_0, # of connection points: 2
#     Edge 233, Type (0, 0), BuildingBlock: AJUNOK_clean_linker_0, # of connection points: 2
#     Edge 234, Type (0, 0), BuildingBlock: AJUNOK_clean_linker_0, # of connection points: 2
#     Edge 235, Type (0, 0), BuildingBlock: AJUNOK_clean_linker_0, # of connection points: 2
#     Edge 236, Type (0, 0), BuildingBlock: AJUNOK_clean_linker_0, # of connection points: 2
#     Edge 237, Type (0, 0), BuildingBlock: AJUNOK_clean_linker_0, # of connection points: 2
#     Edge 238, Type (0, 0), BuildingBlock: AJUNOK_clean_linker_0, # of connection points: 2
#     Edge 239, Type (0, 0), BuildingBlock: AJUNOK_clean_linker_0, # of connection points: 2
#     Edge 240, Type (0, 0), BuildingBlock: AJUNOK_clean_linker_0, # of connection points: 2
#     Edge 241, Type (0, 0), BuildingBlock: AJUNOK_clean_linker_0, # of connection points: 2
#     Edge 242, Type (0, 0), BuildingBlock: AJUNOK_clean_linker_0, # of connection points: 2
#     Edge 243, Type (0, 0), BuildingBlock: AJUNOK_clean_linker_0, # of connection points: 2
#     Edge 244, Type (0, 0), BuildingBlock: AJUNOK_clean_linker_0, # of connection points: 2
#     Edge 245, Type (0, 0), BuildingBlock: AJUNOK_clean_linker_0, # of connection points: 2
#     Edge 246, Type (0, 0), BuildingBlock: AJUNOK_clean_linker_0, # of connection points: 2
#     Edge 247, Type (0, 0), BuildingBlock: AJUNOK_clean_linker_0, # of connection points: 2
#     Edge 248, Type (0, 0), BuildingBlock: AJUNOK_clean_linker_0, # of connection points: 2
#     Edge 249, Type (0, 0), BuildingBlock: AJUNOK_clean_linker_0, # of connection points: 2
#     Edge 250, Type (0, 0), BuildingBlock: AJUNOK_clean_linker_0, # of connection points: 2
#     Edge 251, Type (0, 0), BuildingBlock: AJUNOK_clean_linker_0, # of connection points: 2
#     Edge 252, Type (0, 0), BuildingBlock: AJUNOK_clean_linker_0, # of connection points: 2
#     Edge 253, Type (0, 0), BuildingBlock: AJUNOK_clean_linker_0, # of connection points: 2
#     Edge 254, Type (0, 0), BuildingBlock: AJUNOK_clean_linker_0, # of connection points: 2
#     Edge 255, Type (0, 0), BuildingBlock: AJUNOK_clean_linker_0, # of connection points: 2
#     Edge 256, Type (0, 0), BuildingBlock: AJUNOK_clean_linker_0, # of connection points: 2
#     Edge 257, Type (0, 0), BuildingBlock: AJUNOK_clean_linker_0, # of connection points: 2
#     Edge 258, Type (0, 0), BuildingBlock: AJUNOK_clean_linker_0, # of connection points: 2
#     Edge 259, Type (0, 0), BuildingBlock: AJUNOK_clean_linker_0, # of connection points: 2
#     Edge 260, Type (0, 0), BuildingBlock: AJUNOK_clean_linker_0, # of connection points: 2
#     Edge 261, Type (0, 0), BuildingBlock: AJUNOK_clean_linker_0, # of connection points: 2
#     Edge 262, Type (0, 0), BuildingBlock: AJUNOK_clean_linker_0, # of connection points: 2
#     Edge 263, Type (0, 0), BuildingBlock: AJUNOK_clean_linker_0, # of connection points: 2
#     Edge 264, Type (0, 0), BuildingBlock: AJUNOK_clean_linker_0, # of connection points: 2
#     Edge 265, Type (0, 0), BuildingBlock: AJUNOK_clean_linker_0, # of connection points: 2
#     Edge 266, Type (0, 0), BuildingBlock: AJUNOK_clean_linker_0, # of connection points: 2
#     Edge 267, Type (0, 0), BuildingBlock: AJUNOK_clean_linker_0, # of connection points: 2
#     Edge 268, Type (0, 0), BuildingBlock: AJUNOK_clean_linker_0, # of connection points: 2
#     Edge 269, Type (0, 0), BuildingBlock: AJUNOK_clean_linker_0, # of connection points: 2
#     Edge 270, Type (0, 0), BuildingBlock: AJUNOK_clean_linker_0, # of connection points: 2
#     Edge 271, Type (0, 0), BuildingBlock: AJUNOK_clean_linker_0, # of connection points: 2
#     Edge 272, Type (0, 0), BuildingBlock: AJUNOK_clean_linker_0, # of connection points: 2
#     Edge 273, Type (0, 0), BuildingBlock: AJUNOK_clean_linker_0, # of connection points: 2
#     Edge 274, Type (0, 0), BuildingBlock: AJUNOK_clean_linker_0, # of connection points: 2
#     Edge 275, Type (0, 0), BuildingBlock: AJUNOK_clean_linker_0, # of connection points: 2
#     Edge 276, Type (0, 0), BuildingBlock: AJUNOK_clean_linker_0, # of connection points: 2
#     Edge 277, Type (0, 0), BuildingBlock: AJUNOK_clean_linker_0, # of connection points: 2
#     Edge 278, Type (0, 0), BuildingBlock: AJUNOK_clean_linker_0, # of connection points: 2
#     Edge 279, Type (0, 0), BuildingBlock: AJUNOK_clean_linker_0, # of connection points: 2
#     Edge 280, Type (0, 0), BuildingBlock: AJUNOK_clean_linker_0, # of connection points: 2
#     Edge 281, Type (0, 0), BuildingBlock: AJUNOK_clean_linker_0, # of connection points: 2
#     Edge 282, Type (0, 0), BuildingBlock: AJUNOK_clean_linker_0, # of connection points: 2
#     Edge 283, Type (0, 0), BuildingBlock: AJUNOK_clean_linker_0, # of connection points: 2
#     Edge 284, Type (0, 0), BuildingBlock: AJUNOK_clean_linker_0, # of connection points: 2
#     Edge 285, Type (0, 0), BuildingBlock: AJUNOK_clean_linker_0, # of connection points: 2
#     Edge 286, Type (0, 0), BuildingBlock: AJUNOK_clean_linker_0, # of connection points: 2
#     Edge 287, Type (0, 0), BuildingBlock: AJUNOK_clean_linker_0, # of connection points: 2
# Relax obj value: 0.100
# Max RMSD: 0.127
# Mean RMSD: 0.127
data_MOF--net-ukw--node1-QUQFOY_clean_sbu_1--edge1-AJUNOK_clean_linker_0
_symmetry_space_group_name_H-M    P1
_symmetry_Int_Tables_number       1
_symmetry_cell_setting            triclinic
loop_
_symmetry_equiv_pos_as_xyz
'x, y, z'
_cell_length_a     57.434145
_cell_length_b     57.519711
_cell_length_c     57.395223
_cell_angle_alpha  89.954102
_cell_angle_beta   89.961385
_cell_angle_gamma 90.05554
loop_
_atom_site_label
_atom_site_type_symbol
_atom_site_fract_x
_atom_site_fract_y
_atom_site_fract_z
_atom_type_partial_charge
O0 O 1.00084 0.09797 0.36428 0.0
Cd1 Cd 0.02676 0.12014 0.35442 0.0
Cd2 Cd 0.05119 0.08499 0.36666 0.0
O3 O 0.02118 0.06574 0.35997 0.0
O4 O 0.01013 0.14244 0.33378 0.0
O5 O 0.03411 0.11527 0.32061 0.0
C6 C 0.01838 0.13075 0.31643 0.0
C7 C 0.08824 0.08363 0.34931 0.0
C8 C 1.00168 0.07602 0.36248 0.0
C9 C 0.04837 0.1245 0.39973 0.0
O10 O 0.0499 0.10257 0.39778 0.0
O11 O 0.04345 0.13693 0.38201 0.0
O12 O 0.08196 0.06835 0.36464 0.0
O13 O 0.07279 0.09854 0.34265 0.0
O14 O 0.1612 0.7446 0.61447 0.0
Cd15 Cd 0.13954 0.77095 0.60483 0.0
Cd16 Cd 0.17555 0.79482 0.6168 0.0
O17 O 0.19395 0.76425 0.6102 0.0
O18 O 0.11691 0.75492 0.58399 0.0
O19 O 0.14463 0.7785 0.5711 0.0
C20 C 0.12885 0.76309 0.56673 0.0
C21 C 0.17775 0.83161 0.59897 0.0
C22 C 0.1832 0.74499 0.61265 0.0
C23 C 0.13599 0.79292 0.65019 0.0
O24 O 0.15796 0.79414 0.64797 0.0
O25 O 0.12331 0.7879 0.63266 0.0
O26 O 0.19291 0.82526 0.61438 0.0
O27 O 0.16245 0.8164 0.59261 0.0
O28 O 0.51767 0.92412 0.86374 0.0
Cd29 Cd 0.49449 0.89766 0.85935 0.0
Cd30 Cd 0.46689 0.93223 0.86865 0.0
O31 O 0.49439 0.9542 0.85935 0.0
O32 O 0.51666 0.87464 0.84673 0.0
O33 O 0.48948 0.89086 0.82505 0.0
C34 C 0.50847 0.87891 0.82629 0.0
C35 C 0.42951 0.92885 0.85209 0.0
C36 C 0.51485 0.94575 0.86082 0.0
C37 C 0.4765 0.89731 0.90659 0.0
O38 O 0.47076 0.91804 0.90148 0.0
O39 O 0.48298 0.88342 0.89057 0.0
O40 O 0.43459 0.94563 0.86621 0.0
O41 O 0.44619 0.91491 0.84622 0.0
O42 O 0.34563 0.26461 0.12556 0.0
Cd43 Cd 0.36856 0.23959 0.11478 0.0
Cd44 Cd 0.33332 0.21529 0.12742 0.0
O45 O 0.31304 0.24471 0.12225 0.0
O46 O 0.39135 0.26066 0.10001 0.0
O47 O 0.36916 0.23677 0.0796 0.0
C48 C 0.38293 0.25453 0.08014 0.0
C49 C 0.33219 0.17932 0.10844 0.0
C50 C 0.3236 0.26401 0.12469 0.0
C51 C 0.37405 0.21698 0.15937 0.0
O52 O 0.352 0.21568 0.15805 0.0
O53 O 0.38597 0.22247 0.14147 0.0
O54 O 0.31729 0.18449 0.12453 0.0
O55 O 0.34655 0.19543 0.10192 0.0
O56 O 0.99393 0.91169 0.14135 0.0
Cd57 Cd 0.02021 0.88994 0.15077 0.0
Cd58 Cd 0.04435 0.9255 0.13804 0.0
O59 O 0.01408 0.94415 0.14523 0.0
O60 O 1.00443 0.86808 0.17267 0.0
O61 O 0.02869 0.89582 0.18412 0.0
C62 C 0.01318 0.88037 0.18935 0.0
C63 C 0.08168 0.92884 0.15468 0.0
C64 C 0.99462 0.93365 0.14317 0.0
C65 C 0.04108 0.88563 0.105 0.0
O66 O 0.04292 0.90755 0.10706 0.0
O67 O 0.03628 0.87317 0.12276 0.0
O68 O 0.07453 0.94342 0.13908 0.0
O69 O 0.06698 0.9134 0.1619 0.0
O70 O 0.35047 0.75265 0.38436 0.0
Cd71 Cd 0.37288 0.77534 0.39986 0.0
Cd72 Cd 0.33812 0.79979 0.39395 0.0
O73 O 0.31963 0.76885 0.40001 0.0
O74 O 0.39339 0.75355 0.41684 0.0
O75 O 0.3685 0.77716 0.43457 0.0
C76 C 0.3823 0.75944 0.43552 0.0
C77 C 0.33647 0.8361 0.4126 0.0
C78 C 0.32926 0.75143 0.39026 0.0
C79 C 0.37652 0.8007 0.35868 0.0
O80 O 0.35459 0.80083 0.3618 0.0
O81 O 0.39 0.79544 0.37547 0.0
O82 O 0.32066 0.82978 0.39786 0.0
O83 O 0.35205 0.82087 0.41824 0.0
O84 O 0.52496 0.09225 0.64789 0.0
Cd85 Cd 0.4983 0.11441 0.65555 0.0
Cd86 Cd 0.47436 0.07885 0.64225 0.0
O87 O 0.50434 0.05997 0.65054 0.0
O88 O 0.51274 0.13679 0.67778 0.0
O89 O 0.48765 0.10942 0.68837 0.0
C90 C 0.50281 0.12497 0.69416 0.0
C91 C 0.43645 0.07744 0.65791 0.0
C92 C 0.52402 0.07025 0.64934 0.0
C93 C 0.47886 0.11818 0.60893 0.0
O94 O 0.47689 0.09628 0.61108 0.0
O95 O 0.48326 0.13069 0.62673 0.0
O96 O 0.44346 0.06201 0.64311 0.0
O97 O 0.45157 0.09248 0.66503 0.0
O98 O 0.17442 0.26812 0.88788 0.0
Cd99 Cd 0.14949 0.24454 0.89707 0.0
Cd100 Cd 0.18413 0.21788 0.89004 0.0
O101 O 0.20462 0.24688 0.898 0.0
O102 O 0.12695 0.26638 0.91094 0.0
O103 O 0.14746 0.24155 0.93207 0.0
C104 C 0.1347 0.26002 0.93104 0.0
C105 C 0.18262 0.18162 0.90883 0.0
C106 C 0.19582 0.26656 0.89293 0.0
C107 C 0.14755 0.22146 0.85286 0.0
O108 O 0.16907 0.21861 0.85729 0.0
O109 O 0.13384 0.2282 0.86893 0.0
O110 O 0.19914 0.18661 0.89433 0.0
O111 O 0.16793 0.19791 0.91385 0.0
O112 O 0.37403 0.99811 0.0937 0.0
Cd113 Cd 0.36315 0.02152 0.11818 0.0
Cd114 Cd 0.37468 0.04803 0.08404 0.0
O115 O 0.36946 0.01964 0.06231 0.0
O116 O 0.34868 0.99883 0.1396 0.0
O117 O 0.32799 0.02395 0.11906 0.0
C118 C 0.32874 1.00532 0.13162 0.0
C119 C 0.35511 0.08368 0.08458 0.0
C120 C 0.37245 0.99986 0.07177 0.0
C121 C 0.40739 0.04472 0.12428 0.0
O122 O 0.40559 0.04727 0.10235 0.0
O123 O 0.38986 0.03811 0.13619 0.0
O124 O 0.37124 0.07949 0.06941 0.0
O125 O 0.34902 0.06689 0.09833 0.0
O126 O 0.2735 0.11751 0.35129 0.0
Cd127 Cd 0.24619 0.10844 0.3722 0.0
Cd128 Cd 0.22364 0.1199 0.33552 0.0
O129 O 0.25469 0.11234 0.31821 0.0
O130 O 0.26088 0.0876 0.39572 0.0
O131 O 0.23834 0.07485 0.3671 0.0
C132 C 0.25294 0.0704 0.38362 0.0
C133 C 0.18653 0.10279 0.33248 0.0
C134 C 0.27373 0.11508 0.32932 0.0
C135 C 0.22416 0.15384 0.3743 0.0
O136 O 0.22396 0.15147 0.3523 0.0
O137 O 0.22846 0.13638 0.38731 0.0
O138 O 0.1939 0.11746 0.31704 0.0
O139 O 0.201 0.09657 0.34855 0.0
O140 O 0.14599 0.01663 0.59095 0.0
Cd141 Cd 0.15527 0.99193 0.61482 0.0
Cd142 Cd 0.14408 0.96684 0.57953 0.0
O143 O 0.15165 0.99597 0.55921 0.0
O144 O 0.16911 0.01326 0.63792 0.0
O145 O 0.19034 0.98907 0.6169 0.0
C146 C 0.18929 0.00706 0.63034 0.0
C147 C 0.16078 0.92956 0.57854 0.0
C148 C 0.14882 0.01557 0.5691 0.0
C149 C 0.11016 0.97004 0.61865 0.0
O150 O 0.11249 0.96839 0.59669 0.0
O151 O 0.12762 0.97526 0.63128 0.0
O152 O 0.14573 0.93609 0.56312 0.0
O153 O 0.16772 0.94497 0.59344 0.0
O154 O 0.24348 0.89345 0.84179 0.0
Cd155 Cd 0.26608 0.9001 0.86838 0.0
Cd156 Cd 0.29433 0.88868 0.8335 0.0
O157 O 0.26655 0.89583 0.81121 0.0
O158 O 0.24226 0.91118 0.89066 0.0
O159 O 0.26815 0.93472 0.87509 0.0
C160 C 0.24901 0.93211 0.88661 0.0
C161 C 0.33203 0.90507 0.83335 0.0
C162 C 0.24618 0.89471 0.81994 0.0
C163 C 0.28607 0.85374 0.87175 0.0
O164 O 0.29111 0.85711 0.85043 0.0
O165 O 0.27938 0.87061 0.88445 0.0
O166 O 0.32591 0.88952 0.81829 0.0
O167 O 0.31615 0.91242 0.84757 0.0
O168 O 0.36937 0.02179 0.42064 0.0
Cd169 Cd 0.36236 0.99648 0.39684 0.0
Cd170 Cd 0.37365 0.97066 0.43228 0.0
O171 O 0.36628 1.00008 0.45224 0.0
O172 O 0.34148 0.01269 0.37429 0.0
O173 O 0.32911 0.98627 0.39957 0.0
C174 C 0.32436 1.00248 0.38475 0.0
C175 C 0.35639 0.93349 0.43286 0.0
C176 C 0.36785 0.02002 0.44261 0.0
C177 C 0.40905 0.97696 0.39435 0.0
O178 O 0.40539 0.97289 0.41581 0.0
O179 O 0.3922 0.98285 0.38112 0.0
O180 O 0.37151 0.9395 0.44844 0.0
O181 O 0.35014 0.94911 0.41794 0.0
O182 O 0.25298 0.12233 0.66813 0.0
Cd183 Cd 0.27647 0.11235 0.64345 0.0
Cd184 Cd 0.30279 0.11797 0.67821 0.0
O185 O 0.27331 0.11015 0.69822 0.0
O186 O 0.25439 0.09856 0.62104 0.0
O187 O 0.27927 0.0774 0.64149 0.0
C188 C 0.26087 0.07845 0.62858 0.0
C189 C 0.33896 0.09887 0.67721 0.0
C190 C 0.25401 0.11657 0.68939 0.0
C191 C 0.30013 0.15588 0.64227 0.0
O192 O 0.30256 0.15103 0.66377 0.0
O193 O 0.29357 0.14015 0.62811 0.0
O194 O 0.3337 0.11309 0.69386 0.0
O195 O 0.32296 0.09431 0.66202 0.0
O196 O 0.13027 1.00098 0.91964 0.0
Cd197 Cd 0.14489 0.02238 0.89545 0.0
Cd198 Cd 0.14101 0.04869 0.9293 0.0
O199 O 0.14775 0.01842 0.94876 0.0
O200 O 0.16001 0.99912 0.87526 0.0
O201 O 0.17984 0.02354 0.89768 0.0
C202 C 0.17943 1.00501 0.88496 0.0
C203 C 0.1597 0.08502 0.93017 0.0
C204 C 0.13748 1.00061 0.94046 0.0
C205 C 0.10397 0.04792 0.89196 0.0
O206 O 0.10839 0.0496 0.91365 0.0
O207 O 0.1199 0.04122 0.87807 0.0
O208 O 0.14508 0.07898 0.94621 0.0
O209 O 0.16518 0.06954 0.91475 0.0
O210 O 0.26619 0.89253 0.17093 0.0
Cd211 Cd 0.24263 0.9002 0.14568 0.0
Cd212 Cd 0.21615 0.896 0.18063 0.0
O213 O 0.2453 0.90542 0.20036 0.0
O214 O 0.26437 0.91301 0.12235 0.0
O215 O 0.2393 0.93491 0.14168 0.0
C216 C 0.25773 0.93343 0.12883 0.0
C217 C 0.17941 0.91367 0.17811 0.0
C218 C 0.26484 0.89923 0.19187 0.0
C219 C 0.22048 0.85587 0.14727 0.0
O220 O 0.21713 0.86229 0.16821 0.0
O221 O 0.22699 0.87075 0.13215 0.0
O222 O 0.18493 0.90071 0.19569 0.0
O223 O 0.19548 0.91803 0.16291 0.0
O224 O 0.09071 0.36813 0.99902 0.0
Cd225 Cd 0.11613 0.36067 0.0226 0.0
Cd226 Cd 0.08065 0.36907 0.04936 0.0
O227 O 0.05983 0.36094 0.02057 0.0
O228 O 0.13961 0.35076 0.99956 0.0
O229 O 0.12234 0.32592 0.02312 0.0
C230 C 0.1346 0.32955 1.00459 0.0
C231 C 0.08223 0.35149 0.0864 0.0
C232 C 0.06907 0.36439 1.00067 0.0
C233 C 0.11703 0.40617 0.04379 0.0
O234 O 0.09564 0.40169 0.04739 0.0
O235 O 0.13083 0.38996 0.03769 0.0
O236 O 0.06577 0.36583 0.08095 0.0
O237 O 0.09681 0.34585 0.07016 0.0
O238 O 0.58796 0.14693 0.01933 0.0
Cd239 Cd 0.60996 0.15615 0.99299 0.0
Cd240 Cd 0.57273 0.14549 0.97072 0.0
O241 O 0.55479 0.15335 1.00133 0.0
O242 O 0.63541 0.16752 0.01301 0.0
O243 O 0.61377 0.19121 0.99207 0.0
C244 C 0.62854 0.18839 0.0088 0.0
C245 C 0.57152 0.16394 0.93428 0.0
C246 C 0.56619 0.15027 0.0201 0.0
C247 C 0.61135 0.11112 0.97075 0.0
O248 O 0.58936 0.11362 0.97085 0.0
O249 O 0.62447 0.12849 0.97489 0.0
O250 O 0.55568 0.14912 0.9404 0.0
O251 O 0.58701 0.16955 0.94966 0.0
O252 O 0.11667 0.34744 0.27284 0.0
Cd253 Cd 0.10788 0.36991 0.24681 0.0
Cd254 Cd 0.1197 0.33458 0.22211 0.0
O255 O 0.11225 0.3154 0.2522 0.0
O256 O 0.08732 0.3925 0.26318 0.0
O257 O 0.07416 0.36574 0.23872 0.0
C258 C 0.06994 0.38119 0.25451 0.0
C259 C 0.10327 0.33291 0.18446 0.0
C260 C 0.11448 0.32552 0.27186 0.0
C261 C 0.15363 0.37354 0.22563 0.0
O262 O 0.15117 0.35166 0.2238 0.0
O263 O 0.13617 0.38624 0.23071 0.0
O264 O 0.11824 0.3176 0.19138 0.0
O265 O 0.09634 0.34804 0.19961 0.0
O266 O 0.92753 0.86748 0.51541 0.0
Cd267 Cd 0.90324 0.85861 0.49107 0.0
Cd268 Cd 0.93856 0.86846 0.46553 0.0
O269 O 0.95885 0.86014 0.49459 0.0
O270 O 0.87991 0.84603 0.51299 0.0
O271 O 0.8999 0.82359 0.48904 0.0
C272 C 0.88673 0.8255 0.50721 0.0
C273 C 0.93763 0.85137 0.42835 0.0
C274 C 0.9492 0.86368 0.51426 0.0
C275 C 0.90077 0.90374 0.46935 0.0
O276 O 0.9226 0.90061 0.46747 0.0
O277 O 0.88756 0.88674 0.47469 0.0
O278 O 0.95385 0.86589 0.43413 0.0
O279 O 0.92301 0.8452 0.44439 0.0
O280 O 0.8998 0.16238 0.27162 0.0
Cd281 Cd 0.90656 0.13894 0.24591 0.0
Cd282 Cd 0.89718 0.17457 0.22018 0.0
O283 O 0.90554 0.19369 0.25007 0.0
O284 O 0.92858 0.1167 0.26088 0.0
O285 O 0.93918 0.14308 0.23468 0.0
C286 C 0.94497 0.12815 0.25048 0.0
C287 C 0.91265 0.17653 0.18207 0.0
C288 C 0.90291 0.18417 0.27001 0.0
C289 C 0.86043 0.13782 0.22547 0.0
O290 O 0.86487 0.15923 0.22217 0.0
O291 O 0.87673 0.12398 0.23141 0.0
O292 O 0.89851 0.19224 0.18976 0.0
O293 O 0.9193 0.16075 0.19663 0.0
O294 O 0.41795 0.64487 0.49653 0.0
Cd295 Cd 0.39444 0.65396 0.52152 0.0
Cd296 Cd 0.43076 0.64444 0.54589 0.0
O297 O 0.45021 0.65133 0.51617 0.0
O298 O 0.37052 0.66688 0.50045 0.0
O299 O 0.39159 0.68894 0.52374 0.0
C300 C 0.3778 0.68732 0.50602 0.0
C301 C 0.43202 0.66299 0.58218 0.0
C302 C 0.43978 0.6479 0.49693 0.0
C303 C 0.39263 0.60913 0.54403 0.0
O304 O 0.41446 0.61246 0.54557 0.0
O305 O 0.37922 0.62588 0.53852 0.0
O306 O 0.44758 0.64787 0.57627 0.0
O307 O 0.41671 0.66877 0.56668 0.0
O308 O 0.11789 0.65957 0.24436 0.0
Cd309 Cd 0.11069 0.6361 0.26988 0.0
Cd310 Cd 0.11777 0.67228 0.29585 0.0
O311 O 0.10978 0.69072 0.26535 0.0
O312 O 0.08915 0.6137 0.25442 0.0
O313 O 0.07783 0.6402 0.28013 0.0
C314 C 0.07249 0.62527 0.26421 0.0
C315 C 0.10068 0.67356 0.33323 0.0
C316 C 0.1136 0.68115 0.24564 0.0
C317 C 0.15581 0.63657 0.29214 0.0
O318 O 0.15043 0.65779 0.29518 0.0
O319 O 0.14031 0.62209 0.2856 0.0
O320 O 0.11466 0.68979 0.32627 0.0
O321 O 0.09524 0.65763 0.31837 0.0
O322 O 0.39562 0.35592 0.74907 0.0
Cd323 Cd 0.40571 0.37719 0.77566 0.0
Cd324 Cd 0.39265 0.3415 0.79949 0.0
O325 O 0.39894 0.32317 0.76885 0.0
O326 O 0.42871 0.39844 0.76057 0.0
O327 O 0.43855 0.36988 0.7846 0.0
C328 C 0.44467 0.38526 0.76936 0.0
C329 C 0.40964 0.33763 0.83656 0.0
C330 C 0.3967 0.33389 0.74952 0.0
C331 C 0.36043 0.38195 0.79759 0.0
O332 O 0.36205 0.35996 0.79881 0.0
O333 O 0.3783 0.39417 0.79258 0.0
O334 O 0.3939 0.3232 0.82946 0.0
O335 O 0.41679 0.35315 0.82191 0.0
O336 O 0.02265 0.91341 0.64491 0.0
Cd337 Cd 0.99711 0.89006 0.65294 0.0
Cd338 Cd 0.97137 0.92494 0.64147 0.0
O339 O 1.00098 0.94486 0.64863 0.0
O340 O 0.01298 0.86815 0.67465 0.0
O341 O 0.98697 0.89428 0.68602 0.0
C342 C 1.00297 0.87942 0.69134 0.0
C343 C 0.93364 0.92654 0.65782 0.0
C344 C 0.02094 0.93533 0.64657 0.0
C345 C 0.97666 0.88653 0.60684 0.0
O346 O 0.97346 0.90818 0.60986 0.0
O347 O 0.98243 0.87367 0.624 0.0
O348 O 0.94058 0.94182 0.6428 0.0
O349 O 0.94873 0.91138 0.66473 0.0
O350 O 0.84667 0.26366 0.39457 0.0
Cd351 Cd 0.87075 0.2395 0.40461 0.0
Cd352 Cd 0.83623 0.21373 0.39242 0.0
O353 O 0.81503 0.24241 0.39859 0.0
O354 O 0.89225 0.26117 0.42044 0.0
O355 O 0.87104 0.23534 0.43962 0.0
C356 C 0.88384 0.25383 0.43994 0.0
C357 C 0.83558 0.1768 0.40983 0.0
C358 C 0.82472 0.26216 0.39609 0.0
C359 C 0.87633 0.218 0.35954 0.0
O360 O 0.85443 0.21548 0.36148 0.0
O361 O 0.88847 0.22372 0.37721 0.0
O362 O 0.82061 0.18255 0.39403 0.0
O363 O 0.84976 0.19277 0.417 0.0
O364 O 0.496 0.09922 0.15198 0.0
Cd365 Cd 0.5222 0.12183 0.15998 0.0
Cd366 Cd 0.54667 0.08648 0.14621 0.0
O367 O 0.51684 0.06703 0.15364 0.0
O368 O 0.50676 0.14384 0.18192 0.0
O369 O 0.53236 0.11724 0.19302 0.0
C370 C 0.51665 0.13232 0.1985 0.0
C371 C 0.58399 0.0855 0.16319 0.0
C372 C 0.49712 0.07721 0.15284 0.0
C373 C 0.54168 0.12637 0.11343 0.0
O374 O 0.54416 0.10452 0.11539 0.0
O375 O 0.53682 0.13868 0.13125 0.0
O376 O 0.57795 0.07035 0.14766 0.0
O377 O 0.56836 0.10013 0.16995 0.0
O378 O 0.66921 0.7509 0.89353 0.0
Cd379 Cd 0.64377 0.77438 0.90118 0.0
Cd380 Cd 0.67892 0.80107 0.89235 0.0
O381 O 0.70008 0.77263 0.90017 0.0
O382 O 0.6207 0.75176 0.913 0.0
O383 O 0.63855 0.7767 0.93608 0.0
C384 C 0.6261 0.75812 0.93381 0.0
C385 C 0.67793 0.83839 0.90916 0.0
C386 C 0.69092 0.75274 0.89676 0.0
C387 C 0.64253 0.79493 0.85541 0.0
O388 O 0.6639 0.79868 0.85979 0.0
O389 O 0.62872 0.78901 0.87174 0.0
O390 O 0.69419 0.83241 0.89477 0.0
O391 O 0.66322 0.82248 0.91537 0.0
O392 O 0.01207 0.09802 0.87536 0.0
Cd393 Cd 0.99045 0.12255 0.86174 0.0
Cd394 Cd 0.96349 0.08842 0.86693 0.0
O395 O 0.9932 0.06876 0.85962 0.0
O396 O 0.01434 0.14398 0.84936 0.0
O397 O 0.99173 0.12269 0.82657 0.0
C398 C 0.01019 0.13533 0.82905 0.0
C399 C 0.92692 0.0874 0.84873 0.0
C400 C 0.0117 0.07714 0.86849 0.0
C401 C 0.96481 0.12561 0.9034 0.0
O402 O 0.96335 0.10387 0.89959 0.0
O403 O 0.97113 0.13926 0.8871 0.0
O404 O 0.93314 0.07151 0.8634 0.0
O405 O 0.94229 0.10288 0.84304 0.0
O406 O 0.66865 0.26192 0.62582 0.0
Cd407 Cd 0.6451 0.23771 0.6145 0.0
Cd408 Cd 0.67924 0.21167 0.62668 0.0
O409 O 0.70045 0.24077 0.62274 0.0
O410 O 0.62413 0.25871 0.59699 0.0
O411 O 0.64692 0.233 0.57966 0.0
C412 C 0.63363 0.25104 0.57814 0.0
C413 C 0.68078 0.1758 0.60726 0.0
C414 C 0.69065 0.26043 0.62542 0.0
C415 C 0.63824 0.21464 0.65874 0.0
O416 O 0.66014 0.21188 0.65712 0.0
O417 O 0.62657 0.22139 0.64111 0.0
O418 O 0.69515 0.18074 0.62388 0.0
O419 O 0.66662 0.19198 0.60063 0.0
O420 O 0.50108 0.93018 0.37009 0.0
Cd421 Cd 0.52578 0.90697 0.35923 0.0
Cd422 Cd 0.55071 0.94184 0.37174 0.0
O423 O 0.52139 0.96236 0.36571 0.0
O424 O 0.50433 0.88418 0.34508 0.0
O425 O 0.52756 0.90651 0.324 0.0
C426 C 0.50962 0.89299 0.32512 0.0
C427 C 0.58728 0.94191 0.35348 0.0
C428 C 0.5019 0.95213 0.36848 0.0
C429 C 0.54771 0.90143 0.40403 0.0
O430 O 0.54933 0.92342 0.40258 0.0
O431 O 0.54263 0.88951 0.38605 0.0
O432 O 0.58215 0.95703 0.36936 0.0
O433 O 0.57091 0.92797 0.34674 0.0
O434 O 0.85589 0.74522 0.11796 0.0
Cd435 Cd 0.87637 0.77222 0.10744 0.0
Cd436 Cd 0.83994 0.79502 0.11959 0.0
O437 O 0.82265 0.76375 0.11293 0.0
O438 O 0.89889 0.75679 0.08609 0.0
O439 O 0.8699 0.7791 0.07386 0.0
C440 C 0.88605 0.76419 0.06917 0.0
C441 C 0.8365 0.83159 0.10153 0.0
C442 C 0.83392 0.74485 0.11571 0.0
C443 C 0.88006 0.79532 0.15213 0.0
O444 O 0.858 0.79525 0.15052 0.0
O445 O 0.8925 0.79066 0.13433 0.0
O446 O 0.82163 0.82488 0.11709 0.0
O447 O 0.85223 0.81685 0.09517 0.0
O448 O 0.64174 0.02376 0.91465 0.0
Cd449 Cd 0.65077 0.99845 0.89142 0.0
Cd450 Cd 0.63736 0.97268 0.92616 0.0
O451 O 0.6427 1.00224 0.94651 0.0
O452 O 0.67184 0.01516 0.86937 0.0
O453 O 0.68438 0.98946 0.8952 0.0
C454 C 0.68903 1.00544 0.88008 0.0
C455 C 0.65513 0.93577 0.9275 0.0
C456 C 0.64145 0.02212 0.93669 0.0
C457 C 0.60472 0.97792 0.88601 0.0
O458 O 0.60676 0.97438 0.90776 0.0
O459 O 0.62241 0.98382 0.87392 0.0
O460 O 0.63901 0.94142 0.9422 0.0
O461 O 0.66213 0.95165 0.91316 0.0
O462 O 0.74746 0.89589 0.66412 0.0
Cd463 Cd 0.77386 0.90346 0.64155 0.0
Cd464 Cd 0.79803 0.89142 0.67744 0.0
O465 O 0.76794 0.89899 0.6965 0.0
O466 O 0.75848 0.924 0.61822 0.0
O467 O 0.78337 0.93688 0.64471 0.0
C468 C 0.76798 0.94131 0.62894 0.0
C469 C 0.83543 0.90837 0.67774 0.0
C470 C 0.74834 0.89732 0.68616 0.0
C471 C 0.79339 0.857 0.63903 0.0
O472 O 0.79582 0.85989 0.66083 0.0
O473 O 0.78873 0.87428 0.62591 0.0
O474 O 0.82921 0.89365 0.69365 0.0
O475 O 0.81984 0.91456 0.66276 0.0
O476 O 0.87807 0.99493 0.41807 0.0
Cd477 Cd 0.86768 0.01969 0.39476 0.0
Cd478 Cd 0.87821 0.04449 0.43033 0.0
O479 O 0.87225 0.01481 0.4503 0.0
O480 O 0.85413 0.99841 0.37146 0.0
O481 O 0.83258 0.02175 0.39314 0.0
C482 C 0.83389 1.00405 0.37935 0.0
C483 C 0.8586 0.08022 0.43054 0.0
C484 C 0.87568 0.99552 0.44 0.0
C485 C 0.91181 0.04331 0.3908 0.0
O486 O 0.90961 0.04459 0.4128 0.0
O487 O 0.8945 0.03743 0.37826 0.0
O488 O 0.87416 0.07537 0.4461 0.0
O489 O 0.85301 0.06399 0.41597 0.0
O490 O 0.76873 0.12429 0.17628 0.0
Cd491 Cd 0.74486 0.11567 0.15147 0.0
Cd492 Cd 0.71861 0.12214 0.18597 0.0
O493 O 0.74757 0.11282 0.20609 0.0
O494 O 0.76631 0.10235 0.12833 0.0
O495 O 0.7417 0.08082 0.14873 0.0
C496 C 0.76002 0.08212 0.13571 0.0
C497 C 0.68147 0.10485 0.18492 0.0
C498 C 0.76725 0.11832 0.19745 0.0
C499 C 0.72343 0.16026 0.15048 0.0
O500 O 0.7203 0.15534 0.17188 0.0
O501 O 0.72931 0.14428 0.13633 0.0
O502 O 0.68757 0.11856 0.20169 0.0
O503 O 0.69718 0.09963 0.16962 0.0
O504 O 0.65194 0.9906 0.59817 0.0
Cd505 Cd 0.66063 0.01713 0.62015 0.0
Cd506 Cd 0.64776 0.04094 0.58474 0.0
O507 O 0.65621 0.01104 0.56594 0.0
O508 O 0.68295 1.00232 0.64218 0.0
O509 O 0.69357 0.02674 0.61419 0.0
C510 C 0.69929 0.01151 0.6297 0.0
C511 C 0.66366 0.07864 0.58385 0.0
C512 C 0.65411 0.99145 0.57618 0.0
C513 C 0.6146 0.03746 0.62404 0.0
O514 O 0.61652 0.03858 0.60202 0.0
O515 O 0.63247 0.03333 0.63655 0.0
O516 O 0.64912 0.07183 0.56804 0.0
O517 O 0.67041 0.06342 0.59894 0.0
O518 O 0.76929 0.88519 0.3432 0.0
Cd519 Cd 0.74783 0.89713 0.36873 0.0
Cd520 Cd 0.71946 0.89761 0.3351 0.0
O521 O 0.75012 0.90368 0.31572 0.0
O522 O 0.77061 0.91154 0.38992 0.0
O523 O 0.74529 0.93198 0.36906 0.0
C524 C 0.76387 0.93137 0.38178 0.0
C525 C 0.68401 0.91815 0.33369 0.0
C526 C 0.76858 0.89365 0.32286 0.0
C527 C 0.71794 0.85805 0.37015 0.0
O528 O 0.7151 0.86452 0.34909 0.0
O529 O 0.72836 0.87142 0.38438 0.0
O530 O 0.68995 0.90391 0.31734 0.0
O531 O 0.69923 0.92231 0.34976 0.0
O532 O 0.8693 0.01556 0.095 0.0
Cd533 Cd 0.85952 0.98997 0.11781 0.0
Cd534 Cd 0.86868 0.96668 0.08128 0.0
O535 O 0.86055 0.99684 0.06278 0.0
O536 O 0.84821 0.01047 0.14283 0.0
O537 O 0.82447 0.9896 0.12091 0.0
C538 C 0.82747 1.00673 0.13516 0.0
C539 C 0.85152 0.92966 0.08041 0.0
C540 C 0.86498 0.0158 0.07335 0.0
C541 C 0.90376 0.96685 0.11902 0.0
O542 O 0.90095 0.96722 0.09706 0.0
O543 O 0.88664 0.97122 0.13241 0.0
O544 O 0.86567 0.93642 0.06423 0.0
O545 O 0.84552 0.94481 0.09598 0.0
O546 O 0.74417 0.12484 0.85801 0.0
Cd547 Cd 0.77123 0.11069 0.87598 0.0
Cd548 Cd 0.79128 0.12149 0.83876 0.0
O549 O 0.75851 0.11435 0.82409 0.0
O550 O 0.75654 0.0874 0.89727 0.0
O551 O 0.77636 0.07798 0.86545 0.0
C552 C 0.76246 0.07187 0.88208 0.0
C553 C 0.82824 0.10477 0.83339 0.0
C554 C 0.74125 0.12095 0.83644 0.0
C555 C 0.79551 0.15379 0.87864 0.0
O556 O 0.79259 0.15248 0.85673 0.0
O557 O 0.79256 0.13574 0.89124 0.0
O558 O 0.81996 0.11951 0.8185 0.0
O559 O 0.81463 0.09808 0.85003 0.0
O560 O 0.91443 0.64565 0.02393 0.0
Cd561 Cd 0.89188 0.6528 0.99758 0.0
Cd562 Cd 0.92801 0.64201 0.97303 0.0
O563 O 0.94627 0.65143 1.00316 0.0
O564 O 0.86969 0.67514 0.01222 0.0
O565 O 0.89704 0.68541 0.9869 0.0
C566 C 0.88189 0.69135 1.00243 0.0
C567 C 0.92922 0.65784 0.9351 0.0
C568 C 0.9362 0.64918 0.02288 0.0
C569 C 0.89045 0.60646 0.97762 0.0
O570 O 0.91219 0.60998 0.97542 0.0
O571 O 0.87688 0.62339 0.9823 0.0
O572 O 0.94528 0.64382 0.94232 0.0
O573 O 0.91352 0.66399 0.94996 0.0
O574 O 0.43131 0.87537 0.9975 0.0
Cd575 Cd 0.40602 0.86507 0.02031 0.0
Cd576 Cd 0.4398 0.87548 0.04743 0.0
O577 O 0.46202 0.86892 0.01949 0.0
O578 O 0.38465 0.85112 0.99726 0.0
O579 O 0.40398 0.83004 0.02305 0.0
C580 C 0.39175 0.83104 1.0042 0.0
C581 C 0.43783 0.85774 0.08416 0.0
C582 C 0.45309 0.87277 0.99957 0.0
C583 C 0.40102 0.90968 0.04203 0.0
O584 O 0.42276 0.907 0.04518 0.0
O585 O 0.38852 0.89247 0.03582 0.0
O586 O 0.45365 0.87306 0.07942 0.0
O587 O 0.4243 0.85122 0.06736 0.0
O588 O 0.89064 0.67078 0.75029 0.0
Cd589 Cd 0.90022 0.64547 0.77337 0.0
Cd590 Cd 0.89153 0.6795 0.8006 0.0
O591 O 0.8985 0.70115 0.77225 0.0
O592 O 0.91428 0.6237 0.7508 0.0
O593 O 0.93524 0.64351 0.77633 0.0
C594 C 0.93433 0.6312 0.75753 0.0
C595 C 0.90958 0.67835 0.83734 0.0
C596 C 0.89415 0.69242 0.75234 0.0
C597 C 0.85562 0.642 0.79554 0.0
O598 O 0.85932 0.66354 0.79888 0.0
O599 O 0.8722 0.62884 0.78903 0.0
O600 O 0.89454 0.69426 0.83216 0.0
O601 O 0.91557 0.66408 0.82098 0.0
O602 O 0.10195 0.14673 0.49071 0.0
Cd603 Cd 0.12387 0.15374 0.51782 0.0
Cd604 Cd 0.08719 0.14137 0.54097 0.0
O605 O 0.06919 0.15003 0.51052 0.0
O606 O 0.14779 0.17436 0.50328 0.0
O607 O 0.1207 0.18709 0.52758 0.0
C608 C 0.13693 0.19163 0.51268 0.0
C609 C 0.0865 0.15812 0.5784 0.0
C610 C 0.07994 0.14863 0.4911 0.0
C611 C 0.12561 0.10708 0.53786 0.0
O612 O 0.1037 0.10976 0.5391 0.0
O613 O 0.13873 0.12447 0.53349 0.0
O614 O 0.07048 0.14365 0.57195 0.0
O615 O 0.1018 0.16416 0.56303 0.0
O616 O 0.11617 0.84581 0.7414 0.0
Cd617 Cd 0.10907 0.86776 0.7683 0.0
Cd618 Cd 0.12091 0.83159 0.79173 0.0
O619 O 0.11165 0.81341 0.7615 0.0
O620 O 0.08851 0.89123 0.75333 0.0
O621 O 0.07565 0.86416 0.77769 0.0
C622 C 0.07121 0.88004 0.76238 0.0
C623 C 0.10559 0.82979 0.82987 0.0
C624 C 0.11331 0.82395 0.74199 0.0
C625 C 0.15571 0.86976 0.78752 0.0
O626 O 0.15275 0.84793 0.78921 0.0
O627 O 0.13834 0.88296 0.78348 0.0
O628 O 0.11989 0.81416 0.8223 0.0
O629 O 0.09867 0.84535 0.81516 0.0
O630 O 0.59634 0.36692 0.52519 0.0
Cd631 Cd 0.61992 0.36016 0.4994 0.0
Cd632 Cd 0.58403 0.37155 0.47514 0.0
O633 O 0.56423 0.36347 0.50454 0.0
O634 O 0.64403 0.34454 0.51842 0.0
O635 O 0.62221 0.32563 0.49309 0.0
C636 C 0.63657 0.32497 0.5104 0.0
C637 C 0.58497 0.35319 0.43861 0.0
C638 C 0.57439 0.36489 0.52423 0.0
C639 C 0.62215 0.40659 0.47916 0.0
O640 O 0.60036 0.4035 0.47677 0.0
O641 O 0.63521 0.38951 0.48454 0.0
O642 O 0.56882 0.368 0.44375 0.0
O643 O 0.59959 0.34773 0.45484 0.0
O644 O 0.89919 0.3481 0.77586 0.0
Cd645 Cd 0.90604 0.37088 0.74952 0.0
Cd646 Cd 0.89666 0.33472 0.72478 0.0
O647 O 0.90527 0.31636 0.75516 0.0
O648 O 0.92667 0.39435 0.76456 0.0
O649 O 0.93932 0.36768 0.73972 0.0
C650 C 0.9439 0.38342 0.7551 0.0
C651 C 0.91266 0.33313 0.68687 0.0
C652 C 0.90253 0.32632 0.77486 0.0
C653 C 0.85996 0.37137 0.72881 0.0
O654 O 0.86424 0.34983 0.72636 0.0
O655 O 0.87636 0.38531 0.73427 0.0
O656 O 0.89866 0.31714 0.69434 0.0
O657 O 0.91892 0.34894 0.70158 0.0
O658 O 0.62389 0.66775 0.26801 0.0
Cd659 Cd 0.61625 0.6425 0.24445 0.0
Cd660 Cd 0.61654 0.67758 0.21811 0.0
O661 O 0.60719 0.69593 0.24821 0.0
O662 O 0.60516 0.61827 0.26599 0.0
O663 O 0.58164 0.63753 0.2423 0.0
C664 C 0.5843 0.62445 0.26044 0.0
C665 C 0.59675 0.67545 0.1824 0.0
C666 C 0.61518 0.68792 0.2673 0.0
C667 C 0.65875 0.64631 0.21942 0.0
O668 O 0.65095 0.66685 0.21673 0.0
O669 O 0.64521 0.6305 0.22704 0.0
O670 O 0.60931 0.69335 0.1877 0.0
O671 O 0.59415 0.65955 0.19816 0.0
O672 O 0.4945 0.58685 0.86586 0.0
Cd673 Cd 0.51873 0.61241 0.86116 0.0
Cd674 Cd 0.54429 0.57675 0.87274 0.0
O675 O 0.51627 0.55545 0.86389 0.0
O676 O 0.49664 0.63643 0.85061 0.0
O677 O 0.52231 0.62079 0.8269 0.0
C678 C 0.50393 0.63339 0.82967 0.0
C679 C 0.58117 0.58015 0.85534 0.0
C680 C 0.49626 0.56498 0.86426 0.0
C681 C 0.53685 0.61351 0.90864 0.0
O682 O 0.5408 0.59207 0.90504 0.0
O683 O 0.5316 0.6268 0.89169 0.0
O684 O 0.57654 0.56349 0.86979 0.0
O685 O 0.56427 0.59388 0.84959 0.0
O686 O 0.67266 0.24818 0.12661 0.0
Cd687 Cd 0.64613 0.27028 0.11856 0.0
Cd688 Cd 0.67981 0.29881 0.12749 0.0
O689 O 0.70259 0.27146 0.12083 0.0
O690 O 0.62508 0.24721 0.10409 0.0
O691 O 0.64264 0.27484 0.08378 0.0
C692 C 0.63125 0.25547 0.08414 0.0
C693 C 0.67891 0.33589 0.11018 0.0
C694 C 0.69435 0.25117 0.12411 0.0
C695 C 0.64303 0.29029 0.16426 0.0
O696 O 0.66394 0.29602 0.15967 0.0
O697 O 0.62971 0.28309 0.14805 0.0
O698 O 0.69443 0.33048 0.12555 0.0
O699 O 0.66481 0.31963 0.10354 0.0
O700 O 0.02054 0.41149 0.37317 0.0
Cd701 Cd 0.99469 0.38884 0.36435 0.0
Cd702 Cd 0.96959 0.42426 0.37613 0.0
O703 O 0.99967 0.44345 0.36909 0.0
O704 O 0.01057 0.36708 0.34241 0.0
O705 O 0.98541 0.39407 0.33116 0.0
C706 C 1.00123 0.37905 0.32579 0.0
C707 C 0.93229 0.42629 0.35911 0.0
C708 C 0.01935 0.43344 0.37137 0.0
C709 C 0.97328 0.3852 0.41014 0.0
O710 O 0.97099 0.40702 0.40751 0.0
O711 O 0.97879 0.37247 0.3928 0.0
O712 O 0.93898 0.44144 0.37434 0.0
O713 O 0.94741 0.41106 0.35243 0.0
O714 O 0.84448 0.76649 0.62103 0.0
Cd715 Cd 0.86921 0.74197 0.61447 0.0
Cd716 Cd 0.83335 0.71644 0.62332 0.0
O717 O 0.81318 0.74534 0.61463 0.0
O718 O 0.89257 0.76329 0.601 0.0
O719 O 0.87351 0.73748 0.57975 0.0
C720 C 0.88624 0.756 0.58074 0.0
C721 C 0.83454 0.6798 0.60528 0.0
C722 C 0.8228 0.76512 0.61736 0.0
C723 C 0.86975 0.72172 0.66058 0.0
O724 O 0.84835 0.71826 0.65601 0.0
O725 O 0.88372 0.72761 0.64435 0.0
O726 O 0.81813 0.68514 0.61976 0.0
O727 O 0.84939 0.69589 0.59996 0.0
O728 O 0.49685 0.41648 0.65197 0.0
Cd729 Cd 0.52222 0.39346 0.6613 0.0
Cd730 Cd 0.54775 0.42829 0.64844 0.0
O731 O 0.51811 0.4484 0.6542 0.0
O732 O 0.50518 0.37126 0.68188 0.0
O733 O 0.53042 0.39722 0.69511 0.0
C734 C 0.51435 0.38207 0.69933 0.0
C735 C 0.58454 0.42859 0.66645 0.0
C736 C 0.49832 0.43848 0.6524 0.0
C737 C 0.54331 0.38862 0.61552 0.0
O738 O 0.54612 0.41042 0.61757 0.0
O739 O 0.5377 0.37635 0.63317 0.0
O740 O 0.57921 0.44381 0.65072 0.0
O741 O 0.56836 0.41437 0.67301 0.0
O742 O 0.85298 0.24369 0.90105 0.0
Cd743 Cd 0.87398 0.27061 0.91069 0.0
Cd744 Cd 0.83826 0.29395 0.8978 0.0
O745 O 0.82027 0.26324 0.90562 0.0
O746 O 0.89548 0.25593 0.9336 0.0
O747 O 0.86654 0.27947 0.94352 0.0
C748 C 0.88206 0.26438 0.94958 0.0
C749 C 0.83546 0.33158 0.91388 0.0
C750 C 0.83101 0.24395 0.90336 0.0
C751 C 0.87822 0.2919 0.86515 0.0
O752 O 0.85617 0.29254 0.86679 0.0
O753 O 0.89056 0.28772 0.88313 0.0
O754 O 0.82036 0.32418 0.89889 0.0
O755 O 0.85098 0.31695 0.92096 0.0
O756 O 0.01982 0.59931 0.14726 0.0
Cd757 Cd 0.9931 0.62011 0.15781 0.0
Cd758 Cd 0.96992 0.58424 0.14472 0.0
O759 O 1.0007 0.56623 0.15109 0.0
O760 O 0.00869 0.64218 0.17952 0.0
O761 O 0.98575 0.61344 0.19126 0.0
C762 C 1.0008 0.62937 0.19626 0.0
C763 C 0.93337 0.58142 0.16277 0.0
C764 C 0.01981 0.57731 0.14877 0.0
C765 C 0.9706 0.62482 0.11287 0.0
O766 O 0.97024 0.60278 0.11414 0.0
O767 O 0.97528 0.63689 0.1309 0.0
O768 O 0.93964 0.56662 0.14701 0.0
O769 O 0.94853 0.59669 0.16928 0.0
O770 O 0.65814 0.76609 0.39025 0.0
Cd771 Cd 0.63744 0.74049 0.40326 0.0
Cd772 Cd 0.67406 0.71751 0.39529 0.0
O773 O 0.69082 0.74949 0.40143 0.0
O774 O 0.61611 0.75635 0.42566 0.0
O775 O 0.64557 0.73381 0.4364 0.0
C776 C 0.62972 0.74874 0.44192 0.0
C777 C 0.678 0.68065 0.41295 0.0
C778 C 0.67983 0.76739 0.39419 0.0
C779 C 0.63552 0.71695 0.35997 0.0
O780 O 0.65739 0.7167 0.36349 0.0
O781 O 0.62175 0.72159 0.37676 0.0
O782 O 0.69324 0.68814 0.39811 0.0
O783 O 0.6617 0.69485 0.41903 0.0
O784 O 0.8732 0.49607 0.59531 0.0
Cd785 Cd 0.86234 0.51975 0.61951 0.0
Cd786 Cd 0.87197 0.54548 0.58432 0.0
O787 O 0.86484 0.51634 0.56389 0.0
O788 O 0.85103 0.49709 0.64271 0.0
O789 O 0.8272 0.51947 0.62253 0.0
C790 C 0.83023 0.50144 0.63561 0.0
C791 C 0.85494 0.58259 0.58385 0.0
C792 C 0.86957 0.497 0.57359 0.0
C793 C 0.90641 0.54245 0.62301 0.0
O794 O 0.90373 0.54397 0.60108 0.0
O795 O 0.88921 0.53719 0.63596 0.0
O796 O 0.86998 0.57642 0.56826 0.0
O797 O 0.84817 0.56691 0.59858 0.0
O798 O 0.76455 0.62459 0.84558 0.0
Cd799 Cd 0.74061 0.61593 0.8703 0.0
Cd800 Cd 0.71449 0.62423 0.83507 0.0
O801 O 0.7435 0.61591 0.81476 0.0
O802 O 0.76278 0.60382 0.89358 0.0
O803 O 0.73898 0.58092 0.87401 0.0
C804 C 0.75731 0.58317 0.88687 0.0
C805 C 0.67766 0.60625 0.83542 0.0
C806 C 0.76318 0.62014 0.82404 0.0
C807 C 0.71922 0.66098 0.87191 0.0
O808 O 0.71615 0.65682 0.85036 0.0
O809 O 0.72498 0.64457 0.88564 0.0
O810 O 0.68343 0.62089 0.8193 0.0
O811 O 0.69347 0.60068 0.85049 0.0
O812 O 0.64371 0.51888 0.09254 0.0
Cd813 Cd 0.65039 0.49541 0.1184 0.0
Cd814 Cd 0.63859 0.46866 0.0837 0.0
O815 O 0.6458 0.49641 0.06157 0.0
O816 O 0.66323 0.51775 0.14122 0.0
O817 O 0.68512 0.49158 0.12387 0.0
C818 C 0.68374 0.5102 0.13636 0.0
C819 C 0.65666 0.43215 0.08607 0.0
C820 C 0.6448 0.51658 0.07063 0.0
C821 C 0.60368 0.47577 0.12169 0.0
O822 O 0.60681 0.4715 0.10019 0.0
O823 O 0.62077 0.4819 0.13443 0.0
O824 O 0.64139 0.4366 0.07011 0.0
O825 O 0.66275 0.44903 0.09966 0.0
O826 O 0.74872 0.39042 0.34482 0.0
Cd827 Cd 0.77305 0.39876 0.36932 0.0
Cd828 Cd 0.7985 0.38952 0.33391 0.0
O829 O 0.76957 0.39706 0.31331 0.0
O830 O 0.75131 0.41162 0.39261 0.0
O831 O 0.776 0.43366 0.37293 0.0
C832 C 0.7577 0.43206 0.38595 0.0
C833 C 0.83504 0.40776 0.33577 0.0
C834 C 0.74992 0.3936 0.32302 0.0
C835 C 0.79428 0.35343 0.37108 0.0
O836 O 0.79687 0.35717 0.3494 0.0
O837 O 0.78879 0.37008 0.38463 0.0
O838 O 0.83004 0.3933 0.31925 0.0
O839 O 0.81858 0.41316 0.35019 0.0
O840 O 0.87118 0.51678 0.92452 0.0
Cd841 Cd 0.86116 0.49336 0.89967 0.0
Cd842 Cd 0.87087 0.46653 0.93419 0.0
O843 O 0.86371 0.49521 0.95532 0.0
O844 O 0.84825 0.51601 0.87728 0.0
O845 O 0.82601 0.49203 0.89763 0.0
C846 C 0.82789 0.51056 0.88502 0.0
C847 C 0.85308 0.42967 0.93373 0.0
C848 C 0.86767 0.51504 0.94624 0.0
C849 C 0.90549 0.47025 0.8956 0.0
O850 O 0.90274 0.46794 0.91746 0.0
O851 O 0.88842 0.47649 0.8829 0.0
O852 O 0.86818 0.43521 0.9495 0.0
O853 O 0.8468 0.44578 0.91929 0.0
O854 O 0.75284 0.62919 0.16804 0.0
Cd855 Cd 0.77508 0.61307 0.1455 0.0
Cd856 Cd 0.8001 0.61968 0.18005 0.0
O857 O 0.76957 0.61499 0.19935 0.0
O858 O 0.75273 0.59647 0.12516 0.0
O859 O 0.77622 0.57835 0.14988 0.0
C860 C 0.75849 0.57767 0.13603 0.0
C861 C 0.836 0.60054 0.18252 0.0
C862 C 0.75209 0.62446 0.18958 0.0
C863 C 0.80173 0.65362 0.14058 0.0
O864 O 0.80184 0.65121 0.16262 0.0
O865 O 0.79566 0.63666 0.12768 0.0
O866 O 0.82994 0.616 0.1977 0.0
O867 O 0.82069 0.59454 0.16712 0.0
O868 O 0.64387 0.49586 0.42725 0.0
Cd869 Cd 0.65262 0.51926 0.40203 0.0
Cd870 Cd 0.64426 0.54616 0.4366 0.0
O871 O 0.6514 0.51755 0.45792 0.0
O872 O 0.66561 0.49674 0.37963 0.0
O873 O 0.68762 0.52198 0.39855 0.0
C874 C 0.68605 0.50331 0.38614 0.0
C875 C 0.66207 0.58295 0.43544 0.0
C876 C 0.64741 0.4977 0.44893 0.0
C877 C 0.60775 0.54119 0.39944 0.0
O878 O 0.61194 0.54478 0.4209 0.0
O879 O 0.62405 0.5344 0.38603 0.0
O880 O 0.64734 0.57753 0.45162 0.0
O881 O 0.66804 0.56675 0.42099 0.0
O882 O 0.76792 0.38587 0.67915 0.0
Cd883 Cd 0.74399 0.3953 0.65464 0.0
Cd884 Cd 0.71798 0.3885 0.68961 0.0
O885 O 0.74734 0.39709 0.70943 0.0
O886 O 0.76583 0.4075 0.63112 0.0
O887 O 0.74233 0.43023 0.65142 0.0
C888 C 0.76042 0.42805 0.63819 0.0
C889 C 0.68133 0.40671 0.68869 0.0
C890 C 0.76681 0.39149 0.70043 0.0
C891 C 0.72101 0.35125 0.65344 0.0
O892 O 0.7188 0.3555 0.67508 0.0
O893 O 0.72687 0.36751 0.63957 0.0
O894 O 0.68705 0.39272 0.70538 0.0
O895 O 0.69719 0.41167 0.67342 0.0
O896 O 0.60005 0.86801 0.49282 0.0
Cd897 Cd 0.62155 0.85731 0.51909 0.0
Cd898 Cd 0.58622 0.87102 0.54324 0.0
O899 O 0.56719 0.86628 0.5127 0.0
O900 O 0.64374 0.83603 0.50298 0.0
O901 O 0.61587 0.82369 0.52667 0.0
C902 C 0.63173 0.819 0.51143 0.0
C903 C 0.58417 0.85253 0.57969 0.0
C904 C 0.57796 0.86821 0.49334 0.0
C905 C 0.62728 0.90222 0.54162 0.0
O906 O 0.60525 0.90117 0.54298 0.0
O907 O 0.63901 0.88416 0.53633 0.0
O908 O 0.56946 0.86862 0.57406 0.0
O909 O 0.59876 0.84587 0.56391 0.0
O910 O 0.10121 0.64304 0.52033 0.0
Cd911 Cd 0.1232 0.65206 0.49391 0.0
Cd912 Cd 0.08762 0.63972 0.46967 0.0
O913 O 0.06885 0.64681 0.49997 0.0
O914 O 0.14475 0.67486 0.5088 0.0
O915 O 0.11684 0.68477 0.48403 0.0
C916 C 0.13209 0.69089 0.49938 0.0
C917 C 0.08445 0.65569 0.43197 0.0
C918 C 0.0792 0.6446 0.51952 0.0
C919 C 0.12698 0.60629 0.47305 0.0
O920 O 0.10507 0.60859 0.47122 0.0
O921 O 0.13968 0.62385 0.47789 0.0
O922 O 0.06957 0.64058 0.43955 0.0
O923 O 0.10005 0.66292 0.44647 0.0
O924 O 0.62256 0.84291 0.76322 0.0
Cd925 Cd 0.61248 0.86637 0.73852 0.0
Cd926 Cd 0.62274 0.83147 0.71349 0.0
O927 O 0.61575 0.81124 0.74285 0.0
O928 O 0.59687 0.88851 0.7596 0.0
O929 O 0.57752 0.86648 0.7346 0.0
C930 C 0.57735 0.87978 0.75274 0.0
C931 C 0.60465 0.83103 0.67681 0.0
C932 C 0.61951 0.82113 0.76233 0.0
C933 C 0.65727 0.87025 0.71666 0.0
O934 O 0.65449 0.84841 0.71461 0.0
O935 O 0.64005 0.8831 0.7221 0.0
O936 O 0.61979 0.81544 0.68259 0.0
O937 O 0.59855 0.84587 0.69261 0.0
O938 O 0.41903 0.37038 0.02001 0.0
Cd939 Cd 0.39587 0.36072 0.99473 0.0
Cd940 Cd 0.4314 0.37229 0.97068 0.0
O941 O 0.4515 0.36597 1.00012 0.0
O942 O 0.37258 0.34622 0.01543 0.0
O943 O 0.39446 0.32572 0.99131 0.0
C944 C 0.38064 0.3263 0.00907 0.0
C945 C 0.43144 0.35403 0.93425 0.0
C946 C 0.441 0.36862 0.01947 0.0
C947 C 0.39207 0.40579 0.97307 0.0
O948 O 0.41403 0.4036 0.97163 0.0
O949 O 0.37944 0.38826 0.97804 0.0
O950 O 0.44709 0.3693 0.93964 0.0
O951 O 0.41693 0.34782 0.95037 0.0
O952 O 0.38838 0.67977 0.76479 0.0
Cd953 Cd 0.39906 0.65411 0.74276 0.0
Cd954 Cd 0.39295 0.68794 0.71472 0.0
O955 O 0.39822 0.70987 0.74317 0.0
O956 O 0.41334 0.63305 0.76588 0.0
O957 O 0.43402 0.65239 0.73963 0.0
C958 C 0.43333 0.6402 0.75854 0.0
C959 C 0.41212 0.68716 0.67871 0.0
C960 C 0.39222 0.70136 0.76275 0.0
C961 C 0.35596 0.65069 0.71841 0.0
O962 O 0.36078 0.67192 0.71442 0.0
O963 O 0.37155 0.63733 0.72672 0.0
O964 O 0.39685 0.70298 0.68343 0.0
O965 O 0.41782 0.67296 0.69524 0.0
O966 O 0.91128 0.1461 0.99546 0.0
Cd967 Cd 0.88981 0.15418 0.0226 0.0
Cd968 Cd 0.92632 0.14196 0.04575 0.0
O969 O 0.94418 0.14977 0.01496 0.0
O970 O 0.86671 0.1756 1.00803 0.0
O971 O 0.89456 0.18741 0.03196 0.0
C972 C 0.8785 0.19248 0.01707 0.0
C973 C 0.92846 0.15882 0.08312 0.0
C974 C 0.93329 0.14791 0.99567 0.0
C975 C 0.88737 0.10803 0.04323 0.0
O976 O 0.90931 0.11054 0.04444 0.0
O977 O 0.87438 0.12547 0.03884 0.0
O978 O 0.94394 0.14402 0.07618 0.0
O979 O 0.91284 0.16513 0.06823 0.0
O980 O 0.61407 0.1625 0.74886 0.0
Cd981 Cd 0.60572 0.14011 0.77495 0.0
Cd982 Cd 0.61012 0.17741 0.80027 0.0
O983 O 0.60504 0.19443 0.76826 0.0
O984 O 0.58654 0.11591 0.75938 0.0
O985 O 0.57196 0.14316 0.78255 0.0
C986 C 0.5686 0.12687 0.76742 0.0
C987 C 0.59081 0.18148 0.83624 0.0
C988 C 0.60985 0.18413 0.74914 0.0
C989 C 0.64816 0.14155 0.80247 0.0
O990 O 0.64243 0.16278 0.80461 0.0
O991 O 0.63401 0.1271 0.7934 0.0
O992 O 0.60528 0.19709 0.82892 0.0
O993 O 0.5856 0.16485 0.82204 0.0
O994 O 0.89802 0.85201 0.24146 0.0
Cd995 Cd 0.90595 0.87477 0.26731 0.0
Cd996 Cd 0.89894 0.83834 0.29277 0.0
O997 O 0.90725 0.82076 0.2618 0.0
O998 O 0.92736 0.89716 0.25159 0.0
O999 O 0.93909 0.86995 0.27641 0.0
C1000 C 0.94413 0.88504 0.26046 0.0
C1001 C 0.91606 0.83564 0.33011 0.0
C1002 C 0.90304 0.83056 0.24228 0.0
C1003 C 0.86117 0.87442 0.29056 0.0
O1004 O 0.86621 0.853 0.2928 0.0
O1005 O 0.87686 0.88878 0.28412 0.0
O1006 O 0.90202 0.81977 0.32255 0.0
O1007 O 0.92167 0.85205 0.31578 0.0
O1008 O 0.51398 0.42591 0.14835 0.0
Cd1009 Cd 0.49004 0.4009 0.15661 0.0
Cd1010 Cd 0.4639 0.43601 0.14477 0.0
O1011 O 0.49247 0.45747 0.15091 0.0
O1012 O 0.51268 0.37756 0.16766 0.0
O1013 O 0.48868 0.39532 0.19161 0.0
C1014 C 0.50688 0.38247 0.18872 0.0
C1015 C 0.42717 0.43544 0.16282 0.0
C1016 C 0.51236 0.44784 0.14926 0.0
C1017 C 0.46863 0.39708 0.1108 0.0
O1018 O 0.46563 0.41882 0.1133 0.0
O1019 O 0.4747 0.38465 0.12813 0.0
O1020 O 0.4324 0.45089 0.14728 0.0
O1021 O 0.44353 0.42142 0.16938 0.0
O1022 O 0.33673 0.76652 0.89735 0.0
Cd1023 Cd 0.36403 0.74432 0.90176 0.0
Cd1024 Cd 0.32949 0.71586 0.89209 0.0
O1025 O 0.30661 0.7429 0.89969 0.0
O1026 O 0.38666 0.76819 0.91161 0.0
O1027 O 0.37358 0.74156 0.93582 0.0
C1028 C 0.38482 0.76075 0.93264 0.0
C1029 C 0.33227 0.67899 0.90957 0.0
C1030 C 0.31497 0.76339 0.89886 0.0
C1031 C 0.36504 0.72547 0.85463 0.0
O1032 O 0.34441 0.71907 0.85955 0.0
O1033 O 0.37845 0.73284 0.87066 0.0
O1034 O 0.31598 0.68376 0.89477 0.0
O1035 O 0.34608 0.69574 0.91557 0.0
O1036 O 0.99843 0.59224 0.64494 0.0
Cd1037 Cd 0.02387 0.61507 0.65471 0.0
Cd1038 Cd 0.04719 0.57882 0.64411 0.0
O1039 O 0.01745 0.55974 0.65163 0.0
O1040 O 1.00306 0.63947 0.66688 0.0
O1041 O 0.02483 0.61784 0.68989 0.0
C1042 C 1.00754 0.632 0.68754 0.0
C1043 C 0.08362 0.57801 0.66217 0.0
C1044 C 0.99841 0.57047 0.64816 0.0
C1045 C 0.04609 0.61745 0.60979 0.0
O1046 O 0.04653 0.5955 0.61229 0.0
O1047 O 0.04166 0.63044 0.62719 0.0
O1048 O 0.07763 0.56226 0.64726 0.0
O1049 O 0.06805 0.59314 0.66817 0.0
O1050 O 0.1681 0.2439 0.39746 0.0
Cd1051 Cd 0.14666 0.27053 0.40714 0.0
Cd1052 Cd 0.18207 0.29442 0.39408 0.0
O1053 O 0.20068 0.26391 0.40107 0.0
O1054 O 0.12473 0.25527 0.42929 0.0
O1055 O 0.15303 0.2791 0.44032 0.0
C1056 C 0.13741 0.26385 0.44576 0.0
C1057 C 0.18457 0.33186 0.41063 0.0
C1058 C 0.19014 0.24447 0.39896 0.0
C1059 C 0.14183 0.29236 0.36179 0.0
O1060 O 0.16388 0.2933 0.36323 0.0
O1061 O 0.12973 0.2875 0.37978 0.0
O1062 O 0.19955 0.32489 0.39532 0.0
O1063 O 0.1694 0.31686 0.41782 0.0
O1064 O 0.51604 0.58937 0.37706 0.0
Cd1065 Cd 0.49275 0.61266 0.3637 0.0
Cd1066 Cd 0.46702 0.57854 0.37417 0.0
O1067 O 0.4962 0.55796 0.36798 0.0
O1068 O 0.51547 0.63447 0.35013 0.0
O1069 O 0.49276 0.61211 0.32851 0.0
C1070 C 0.51089 0.62533 0.33017 0.0
C1071 C 0.43019 0.57701 0.35673 0.0
C1072 C 0.51531 0.56766 0.37355 0.0
C1073 C 0.46933 0.61891 0.40665 0.0
O1074 O 0.46814 0.59689 0.40515 0.0
O1075 O 0.47464 0.63092 0.3888 0.0
O1076 O 0.43621 0.56225 0.37262 0.0
O1077 O 0.44588 0.59148 0.34946 0.0
O1078 O 0.17067 0.76377 0.12921 0.0
Cd1079 Cd 0.14721 0.74138 0.11461 0.0
Cd1080 Cd 0.18079 0.71481 0.1233 0.0
O1081 O 0.20148 0.74413 0.11792 0.0
O1082 O 0.12712 0.76414 0.09847 0.0
O1083 O 0.15036 0.7398 0.07963 0.0
C1084 C 0.13738 0.75815 0.07939 0.0
C1085 C 0.18256 0.67879 0.10431 0.0
C1086 C 0.1923 0.76296 0.125 0.0
C1087 C 0.14046 0.71592 0.15633 0.0
O1088 O 0.16249 0.71444 0.15447 0.0
O1089 O 0.12837 0.72254 0.13896 0.0
O1090 O 0.19734 0.68429 0.12038 0.0
O1091 O 0.16786 0.69457 0.09786 0.0
O1092 O 0.99467 0.41591 0.87104 0.0
Cd1093 Cd 0.0205 0.39313 0.86274 0.0
Cd1094 Cd 0.04564 0.42822 0.87516 0.0
O1095 O 0.01583 0.44781 0.86781 0.0
O1096 O 1.00449 0.37121 0.84113 0.0
O1097 O 0.03001 0.39771 0.82945 0.0
C1098 C 0.01404 0.38275 0.82432 0.0
C1099 C 0.08312 0.42937 0.85822 0.0
C1100 C 0.99602 0.43786 0.86946 0.0
C1101 C 0.04027 0.38913 0.90909 0.0
O1102 O 0.04332 0.41087 0.90647 0.0
O1103 O 0.0351 0.37648 0.8916 0.0
O1104 O 0.07677 0.44462 0.87351 0.0
O1105 O 0.06765 0.41448 0.85155 0.0
O1106 O 0.34702 0.25102 0.62644 0.0
Cd1107 Cd 0.36898 0.27677 0.6154 0.0
Cd1108 Cd 0.33251 0.29951 0.62381 0.0
O1109 O 0.3147 0.26879 0.61624 0.0
O1110 O 0.39387 0.257 0.60263 0.0
O1111 O 0.3704 0.27764 0.58023 0.0
C1112 C 0.38536 0.26099 0.58225 0.0
C1113 C 0.333 0.33522 0.6042 0.0
C1114 C 0.3255 0.25026 0.62174 0.0
C1115 C 0.37019 0.3005 0.65904 0.0
O1116 O 0.34825 0.29999 0.65616 0.0
O1117 O 0.38366 0.29616 0.64198 0.0
O1118 O 0.31639 0.33004 0.61856 0.0
O1119 O 0.34823 0.31929 0.59967 0.0
O1120 O 0.1444 0.51528 0.42052 0.0
Cd1121 Cd 0.15402 0.49093 0.39651 0.0
Cd1122 Cd 0.14663 0.46574 0.4324 0.0
O1123 O 0.15467 0.49553 0.45167 0.0
O1124 O 0.16482 0.51281 0.37236 0.0
O1125 O 0.189 0.49104 0.39283 0.0
C1126 C 0.18571 0.50883 0.37946 0.0
C1127 C 0.16541 0.42945 0.43134 0.0
C1128 C 0.14952 0.51478 0.44196 0.0
C1129 C 0.11013 0.46718 0.39563 0.0
O1130 O 0.11388 0.46605 0.41743 0.0
O1131 O 0.12662 0.47263 0.38182 0.0
O1132 O 0.15127 0.43481 0.44805 0.0
O1133 O 0.17023 0.44546 0.41623 0.0
O1134 O 0.24601 0.39323 0.17489 0.0
Cd1135 Cd 0.272 0.40085 0.15179 0.0
Cd1136 Cd 0.29549 0.39142 0.18854 0.0
O1137 O 0.26538 0.39932 0.20738 0.0
O1138 O 0.25203 0.41246 0.12644 0.0
O1139 O 0.27459 0.43565 0.14705 0.0
C1140 C 0.25742 0.43325 0.13272 0.0
C1141 C 0.33122 0.41123 0.18662 0.0
C1142 C 0.24614 0.39653 0.1967 0.0
C1143 C 0.29412 0.35553 0.15134 0.0
O1144 O 0.29523 0.35894 0.1732 0.0
O1145 O 0.28893 0.37227 0.13778 0.0
O1146 O 0.32668 0.397 0.2035 0.0
O1147 O 0.31474 0.41541 0.17184 0.0
O1148 O 0.3661 0.49309 0.9169 0.0
Cd1149 Cd 0.35801 0.51847 0.89353 0.0
Cd1150 Cd 0.3709 0.54404 0.92806 0.0
O1151 O 0.36314 0.51493 0.94836 0.0
O1152 O 0.33581 0.50248 0.87224 0.0
O1153 O 0.32514 0.52882 0.89836 0.0
C1154 C 0.31944 0.51262 0.88386 0.0
C1155 C 0.35498 0.5818 0.9291 0.0
C1156 C 0.36466 0.49493 0.93887 0.0
C1157 C 0.40447 0.53735 0.88883 0.0
O1158 O 0.40201 0.54084 0.91055 0.0
O1159 O 0.38686 0.53228 0.8763 0.0
O1160 O 0.37024 0.57519 0.94429 0.0
O1161 O 0.34774 0.56644 0.91437 0.0
O1162 O 0.2637 0.62808 0.66802 0.0
Cd1163 Cd 0.24075 0.61323 0.64529 0.0
Cd1164 Cd 0.21574 0.62084 0.68 0.0
O1165 O 0.2459 0.61541 0.69946 0.0
O1166 O 0.26296 0.59788 0.62403 0.0
O1167 O 0.23984 0.57831 0.64801 0.0
C1168 C 0.25769 0.5786 0.63429 0.0
C1169 C 0.18029 0.60091 0.68161 0.0
C1170 C 0.26407 0.62337 0.68957 0.0
C1171 C 0.21503 0.6546 0.64033 0.0
O1172 O 0.21455 0.65232 0.66238 0.0
O1173 O 0.22098 0.63748 0.62762 0.0
O1174 O 0.18546 0.61664 0.69686 0.0
O1175 O 0.19609 0.59537 0.66653 0.0
O1176 O 0.14206 0.4977 0.09161 0.0
Cd1177 Cd 0.1536 0.52202 0.11501 0.0
Cd1178 Cd 0.14251 0.54697 0.07995 0.0
O1179 O 0.14775 0.51772 0.0594 0.0
O1180 O 0.16749 0.50042 0.13782 0.0
O1181 O 0.18874 0.52372 0.11566 0.0
C1182 C 0.18753 0.50592 0.12935 0.0
C1183 C 0.16194 0.5827 0.08011 0.0
C1184 C 0.14395 0.49845 0.06963 0.0
C1185 C 0.10985 0.54567 0.12004 0.0
O1186 O 0.11148 0.54674 0.09799 0.0
O1187 O 0.12747 0.54002 0.13222 0.0
O1188 O 0.14618 0.5781 0.06467 0.0
O1189 O 0.16791 0.56618 0.09422 0.0
O1190 O 0.27054 0.39995 0.85161 0.0
Cd1191 Cd 0.24414 0.40583 0.87445 0.0
Cd1192 Cd 0.21968 0.39722 0.83818 0.0
O1193 O 0.24981 0.40752 0.82016 0.0
O1194 O 0.25898 0.42618 0.89821 0.0
O1195 O 0.23404 0.43894 0.87163 0.0
C1196 C 0.24952 0.44343 0.88732 0.0
C1197 C 0.18157 0.41273 0.83802 0.0
C1198 C 0.26952 0.40465 0.83005 0.0
C1199 C 0.22467 0.35946 0.87356 0.0
O1200 O 0.22218 0.36431 0.8521 0.0
O1201 O 0.22934 0.37559 0.88806 0.0
O1202 O 0.18895 0.39975 0.82117 0.0
O1203 O 0.19642 0.41824 0.85399 0.0
O1204 O 0.37291 0.51789 0.59617 0.0
Cd1205 Cd 0.36375 0.49303 0.61989 0.0
Cd1206 Cd 0.37402 0.46826 0.58398 0.0
O1207 O 0.36675 0.49773 0.56419 0.0
O1208 O 0.35118 0.51429 0.64377 0.0
O1209 O 0.32871 0.49108 0.62305 0.0
C1210 C 0.33063 0.50884 0.63669 0.0
C1211 C 0.35581 0.43174 0.58311 0.0
C1212 C 0.36989 0.51714 0.57434 0.0
C1213 C 0.40867 0.4707 0.6226 0.0
O1214 O 0.40588 0.46902 0.60069 0.0
O1215 O 0.39152 0.4761 0.63557 0.0
O1216 O 0.37097 0.43766 0.56752 0.0
O1217 O 0.34975 0.44734 0.59818 0.0
O1218 O 0.24843 0.62872 0.3422 0.0
Cd1219 Cd 0.27021 0.61764 0.36784 0.0
Cd1220 Cd 0.29779 0.61833 0.33424 0.0
O1221 O 0.26778 0.61001 0.31504 0.0
O1222 O 0.24759 0.60384 0.38961 0.0
O1223 O 0.27232 0.58276 0.36876 0.0
C1224 C 0.25372 0.58385 0.38141 0.0
C1225 C 0.33339 0.59841 0.33527 0.0
C1226 C 0.24913 0.61968 0.32212 0.0
C1227 C 0.29712 0.65859 0.36819 0.0
O1228 O 0.2998 0.65205 0.34714 0.0
O1229 O 0.2886 0.64443 0.38295 0.0
O1230 O 0.32814 0.61193 0.31805 0.0
O1231 O 0.31762 0.59489 0.35098 0.0
O1232 O 0.42553 0.14517 0.52049 0.0
Cd1233 Cd 0.40103 0.15453 0.4963 0.0
Cd1234 Cd 0.43579 0.14334 0.4704 0.0
O1235 O 0.45707 0.14931 0.49908 0.0
O1236 O 0.37824 0.16799 0.51818 0.0
O1237 O 0.39872 0.18954 0.4937 0.0
C1238 C 0.38576 0.1882 0.51205 0.0
C1239 C 0.43567 0.16193 0.43403 0.0
C1240 C 0.44748 0.14675 0.51892 0.0
C1241 C 0.39652 0.10957 0.47444 0.0
O1242 O 0.41834 0.112 0.47169 0.0
O1243 O 0.38408 0.12689 0.48037 0.0
O1244 O 0.45101 0.14626 0.43909 0.0
O1245 O 0.42145 0.16819 0.45036 0.0
O1246 O 0.9208 0.36678 0.50074 0.0
Cd1247 Cd 0.89652 0.35905 0.52549 0.0
Cd1248 Cd 0.93196 0.36865 0.55108 0.0
O1249 O 0.95209 0.36023 0.52184 0.0
O1250 O 0.87305 0.34526 0.50449 0.0
O1251 O 0.89346 0.32419 0.5293 0.0
C1252 C 0.88008 0.32507 0.51122 0.0
C1253 C 0.93152 0.35136 0.58831 0.0
C1254 C 0.94249 0.36313 0.50204 0.0
C1255 C 0.89454 0.40466 0.54647 0.0
O1256 O 0.9162 0.40093 0.54923 0.0
O1257 O 0.88113 0.38799 0.54069 0.0
O1258 O 0.94761 0.36594 0.58234 0.0
O1259 O 0.91665 0.34535 0.57247 0.0
O1260 O 0.40174 0.1645 0.24973 0.0
Cd1261 Cd 0.41079 0.1434 0.27684 0.0
Cd1262 Cd 0.39812 0.1797 0.29947 0.0
O1263 O 0.40538 0.19761 0.26875 0.0
O1264 O 0.43147 0.12015 0.26167 0.0
O1265 O 0.4444 0.1481 0.28489 0.0
C1266 C 0.44876 0.13189 0.26995 0.0
C1267 C 0.41517 0.18195 0.33658 0.0
C1268 C 0.4034 0.18649 0.24964 0.0
C1269 C 0.36507 0.14017 0.29795 0.0
O1270 O 0.36699 0.16216 0.29849 0.0
O1271 O 0.38284 0.12757 0.29385 0.0
O1272 O 0.40017 0.19727 0.32977 0.0
O1273 O 0.42174 0.16654 0.32158 0.0
O1274 O 0.58426 0.6426 0.99806 0.0
Cd1275 Cd 0.60951 0.65204 0.02121 0.0
Cd1276 Cd 0.57527 0.63823 0.04795 0.0
O1277 O 0.55288 0.64365 0.0201 0.0
O1278 O 0.6307 0.66572 0.99776 0.0
O1279 O 0.61243 0.68717 0.02386 0.0
C1280 C 0.62422 0.68596 1.00474 0.0
C1281 C 0.57447 0.6544 0.08547 0.0
C1282 C 0.56231 0.64245 1.00007 0.0
C1283 C 0.61582 0.60616 0.04084 0.0
O1284 O 0.59413 0.60795 0.04482 0.0
O1285 O 0.62766 0.624 0.03506 0.0
O1286 O 0.56022 0.63805 0.07947 0.0
O1287 O 0.58802 0.66276 0.06948 0.0
O1288 O 0.6212 0.33778 0.25378 0.0
Cd1289 Cd 0.61235 0.36386 0.27619 0.0
Cd1290 Cd 0.62274 0.33003 0.30412 0.0
O1291 O 0.61541 0.30757 0.27663 0.0
O1292 O 0.59903 0.38507 0.25259 0.0
O1293 O 0.57734 0.36722 0.27895 0.0
C1294 C 0.57871 0.37874 0.25967 0.0
C1295 C 0.60617 0.3307 0.3416 0.0
C1296 C 0.61853 0.31609 0.2564 0.0
C1297 C 0.65788 0.36807 0.2965 0.0
O1298 O 0.65452 0.34665 0.30087 0.0
O1299 O 0.64093 0.3809 0.29025 0.0
O1300 O 0.62153 0.31533 0.33582 0.0
O1301 O 0.59905 0.34473 0.32546 0.0
O1302 O 0.09541 0.86808 0.01651 0.0
Cd1303 Cd 0.12133 0.86224 0.99305 0.0
Cd1304 Cd 0.08597 0.86584 0.9654 0.0
O1305 O 0.06576 0.85737 0.99468 0.0
O1306 O 0.14517 0.85139 0.01525 0.0
O1307 O 0.12791 0.8278 0.99037 0.0
C1308 C 0.14035 0.83044 0.00895 0.0
C1309 C 0.08697 0.84786 0.92849 0.0
C1310 C 0.07424 0.86227 0.01462 0.0
C1311 C 0.11921 0.90657 0.96976 0.0
O1312 O 0.09864 0.89949 0.96551 0.0
O1313 O 0.13417 0.8924 0.97789 0.0
O1314 O 0.07003 0.86139 0.93448 0.0
O1315 O 0.10244 0.84314 0.94419 0.0
O1316 O 0.39502 0.85421 0.26677 0.0
Cd1317 Cd 0.403 0.87718 0.2408 0.0
Cd1318 Cd 0.39353 0.8406 0.21735 0.0
O1319 O 0.40144 0.82186 0.24737 0.0
O1320 O 0.41593 0.90194 0.26068 0.0
O1321 O 0.438 0.88038 0.23783 0.0
C1322 C 0.43637 0.89453 0.25523 0.0
C1323 C 0.41199 0.83953 0.18087 0.0
C1324 C 0.39831 0.83244 0.2666 0.0
C1325 C 0.35741 0.87801 0.21983 0.0
O1326 O 0.36118 0.85628 0.21815 0.0
O1327 O 0.37408 0.89174 0.2248 0.0
O1328 O 0.3972 0.82368 0.18699 0.0
O1329 O 0.41742 0.8551 0.19621 0.0
O1330 O 0.13018 0.16831 0.76375 0.0
Cd1331 Cd 0.11857 0.14257 0.74237 0.0
Cd1332 Cd 0.12427 0.17572 0.71355 0.0
O1333 O 0.1171 0.19709 0.74218 0.0
O1334 O 0.10493 0.12195 0.76632 0.0
O1335 O 0.08341 0.14161 0.74115 0.0
C1336 C 0.08479 0.12982 0.7603 0.0
C1337 C 0.10684 0.1765 0.67639 0.0
C1338 C 0.12435 0.18942 0.76168 0.0
C1339 C 0.16141 0.13889 0.71808 0.0
O1340 O 0.15689 0.16025 0.71442 0.0
O1341 O 0.1455 0.12544 0.72566 0.0
O1342 O 0.12177 0.19207 0.68273 0.0
O1343 O 0.10052 0.16138 0.69187 0.0
C1344 C 0.13069 0.07432 0.35443 0.0
C1345 C 0.11307 0.08574 0.34176 0.0
C1346 C 0.15439 0.07902 0.35044 0.0
C1347 C 0.16161 0.09523 0.33346 0.0
H1348 H 0.12618 0.06244 0.36838 0.0
H1349 H 0.16711 0.0705 0.36143 0.0
S1350 S 0.12253 0.12765 0.29339 0.0
N1351 N 0.10465 0.1124 0.30997 0.0
N1352 N 0.14904 0.12109 0.30234 0.0
C1353 C 0.14422 0.10564 0.31962 0.0
C1354 C 0.12004 0.10096 0.3238 0.0
C1355 C 0.18325 0.8977 0.59862 0.0
C1356 C 0.16789 0.90461 0.58076 0.0
C1357 C 0.18741 0.87407 0.60348 0.0
C1358 C 0.17627 0.85626 0.59083 0.0
H1359 H 0.19148 0.91061 0.60959 0.0
H1360 H 0.19861 0.8698 0.61804 0.0
S1361 S 0.13666 0.86479 0.54043 0.0
N1362 N 0.14322 0.89142 0.5489 0.0
N1363 N 0.15088 0.84725 0.55819 0.0
C1364 C 0.16191 0.86289 0.57208 0.0
C1365 C 0.15779 0.88695 0.56701 0.0
C1366 C 0.3864 0.9359 0.85624 0.0
C1367 C 0.40486 0.92453 0.84472 0.0
C1368 C 0.36299 0.93012 0.85185 0.0
C1369 C 0.35686 0.91283 0.83557 0.0
H1370 H 0.39003 0.94883 0.86946 0.0
H1371 H 0.3496 0.9389 0.8618 0.0
S1372 S 0.39845 0.87927 0.79905 0.0
N1373 N 0.41523 0.89614 0.81514 0.0
N1374 N 0.37145 0.88544 0.80672 0.0
C1375 C 0.37512 0.90208 0.82312 0.0
C1376 C 0.399 0.90786 0.82774 0.0
C1377 C 0.35187 0.14975 0.08296 0.0
C1378 C 0.33463 0.15501 0.09961 0.0
C1379 C 0.35736 0.12666 0.07717 0.0
C1380 C 0.34596 0.10775 0.08787 0.0
H1381 H 0.36196 0.16355 0.07497 0.0
H1382 H 0.37147 0.12368 0.06502 0.0
S1383 S 0.29733 0.11192 0.13033 0.0
N1384 N 0.30451 0.1392 0.12497 0.0
N1385 N 0.31494 0.09595 0.11422 0.0
C1386 C 0.32769 0.11274 0.10345 0.0
C1387 C 0.32199 0.13629 0.10927 0.0
C1388 C 0.11312 0.91351 0.181 0.0
C1389 C 0.1065 0.92827 0.16256 0.0
C1390 C 0.13665 0.91001 0.18676 0.0
C1391 C 0.15471 0.92089 0.17417 0.0
H1392 H 0.10005 0.90395 0.19068 0.0
H1393 H 0.14068 0.89779 0.20054 0.0
S1394 S 0.14688 0.963 0.12573 0.0
N1395 N 0.1201 0.95534 0.13289 0.0
N1396 N 0.16419 0.94853 0.14351 0.0
C1397 C 0.14834 0.93659 0.15643 0.0
C1398 C 0.12432 0.94034 0.15069 0.0
C1399 C 0.36112 0.89077 0.44108 0.0
C1400 C 0.34838 0.90886 0.43055 0.0
C1401 C 0.35634 0.86727 0.43616 0.0
C1402 C 0.33845 0.86078 0.42065 0.0
H1403 H 0.3757 0.89474 0.45237 0.0
H1404 H 0.3674 0.85415 0.44393 0.0
S1405 S 0.29789 0.90141 0.39085 0.0
N1406 N 0.31563 0.91855 0.40557 0.0
N1407 N 0.30648 0.87462 0.39652 0.0
C1408 C 0.3246 0.87869 0.41118 0.0
C1409 C 0.32961 0.90262 0.41606 0.0
C1410 C 0.405 0.09526 0.68257 0.0
C1411 C 0.41143 0.07956 0.66487 0.0
C1412 C 0.38153 0.10036 0.68727 0.0
C1413 C 0.36334 0.09018 0.67433 0.0
H1414 H 0.41824 0.10434 0.69246 0.0
H1415 H 0.37773 0.11321 0.70052 0.0
S1416 S 0.37051 0.04617 0.62754 0.0
N1417 N 0.3974 0.05245 0.63553 0.0
N1418 N 0.35342 0.06219 0.64418 0.0
C1419 C 0.36944 0.07357 0.65735 0.0
C1420 C 0.39339 0.06821 0.65269 0.0
C1421 C 0.18481 0.11541 0.91097 0.0
C1422 C 0.16797 0.1096 0.92787 0.0
C1423 C 0.19038 0.1387 0.90591 0.0
C1424 C 0.17918 0.15728 0.91732 0.0
H1425 H 0.19325 0.10188 0.90094 0.0
H1426 H 0.20282 0.1421 0.89213 0.0
S1427 S 0.13544 0.15168 0.96468 0.0
N1428 N 0.1415 0.12459 0.9574 0.0
N1429 N 0.15175 0.16817 0.94767 0.0
C1430 C 0.16316 0.15174 0.93507 0.0
C1431 C 0.15764 0.128 0.9404 0.0
C1432 C 0.07865 0.35074 0.15284 0.0
C1433 C 0.09592 0.33465 0.15946 0.0
C1434 C 0.07354 0.35512 0.12926 0.0
C1435 C 0.0856 0.34379 0.11112 0.0
H1436 H 0.06942 0.36064 0.16596 0.0
H1437 H 0.06064 0.36826 0.12528 0.0
S1438 S 0.13103 0.29852 0.11887 0.0
N1439 N 0.12395 0.30606 0.14571 0.0
N1440 N 0.11453 0.31447 0.10158 0.0
C1441 C 0.10218 0.32689 0.11748 0.0
C1442 C 0.10726 0.32228 0.14153 0.0
C1443 C 0.56173 0.15974 0.89182 0.0
C1444 C 0.57351 0.17192 0.90956 0.0
C1445 C 0.5664 0.16395 0.86813 0.0
C1446 C 0.58287 0.18071 0.86106 0.0
H1447 H 0.54966 0.14593 0.8962 0.0
H1448 H 0.55768 0.15324 0.85529 0.0
S1449 S 0.61619 0.21962 0.90055 0.0
N1450 N 0.60075 0.20308 0.9183 0.0
N1451 N 0.6093 0.21119 0.87394 0.0
C1452 C 0.59356 0.19416 0.87859 0.0
C1453 C 0.58896 0.18971 0.90276 0.0
C1454 C 0.94073 0.85281 0.36199 0.0
C1455 C 0.92377 0.83651 0.35501 0.0
C1456 C 0.94601 0.85649 0.38563 0.0
C1457 C 0.9344 0.84423 0.40348 0.0
H1458 H 0.94954 0.86342 0.34911 0.0
H1459 H 0.95859 0.86985 0.38992 0.0
S1460 S 0.89007 0.79801 0.39469 0.0
N1461 N 0.89666 0.80668 0.36805 0.0
N1462 N 0.90636 0.81378 0.41234 0.0
C1463 C 0.91821 0.82708 0.39675 0.0
C1464 C 0.91298 0.82317 0.37261 0.0
C1465 C 0.93496 0.15786 0.14925 0.0
C1466 C 0.91921 0.17505 0.15685 0.0
C1467 C 0.93887 0.15366 0.12541 0.0
C1468 C 0.92706 0.16632 0.10804 0.0
H1469 H 0.94379 0.14691 0.1618 0.0
H1470 H 0.95046 0.1396 0.12062 0.0
S1471 S 0.88591 0.21502 0.11841 0.0
N1472 N 0.89323 0.20622 0.14479 0.0
N1473 N 0.90041 0.1982 0.10019 0.0
C1474 C 0.9122 0.18439 0.11535 0.0
C1475 C 0.90834 0.18879 0.13965 0.0
C1476 C 0.40874 0.69449 0.63571 0.0
C1477 C 0.4205 0.68366 0.65433 0.0
C1478 C 0.41341 0.68855 0.61242 0.0
C1479 C 0.4302 0.67167 0.60665 0.0
H1480 H 0.39497 0.70688 0.6391 0.0
H1481 H 0.40311 0.69669 0.59888 0.0
S1482 S 0.46797 0.64025 0.64877 0.0
N1483 N 0.4512 0.65672 0.66526 0.0
N1484 N 0.46015 0.64573 0.62164 0.0
C1485 C 0.44315 0.66179 0.62505 0.0
C1486 C 0.43825 0.66772 0.6488 0.0
C1487 C 0.10175 0.67938 0.39936 0.0
C1488 C 0.08533 0.66275 0.40688 0.0
C1489 C 0.10558 0.68382 0.37554 0.0
C1490 C 0.09331 0.67167 0.35814 0.0
H1491 H 0.11243 0.68851 0.41193 0.0
H1492 H 0.11912 0.69606 0.37079 0.0
S1493 S 0.04641 0.62831 0.36835 0.0
N1494 N 0.05513 0.63563 0.39475 0.0
N1495 N 0.06246 0.64379 0.35019 0.0
C1496 C 0.07591 0.65595 0.3654 0.0
C1497 C 0.07188 0.65156 0.38966 0.0
C1498 C 0.43522 0.35388 0.86807 0.0
C1499 C 0.41762 0.3382 0.86133 0.0
C1500 C 0.44058 0.35775 0.89163 0.0
C1501 C 0.42845 0.34622 0.90961 0.0
H1502 H 0.44442 0.36403 0.85505 0.0
H1503 H 0.45356 0.37075 0.89573 0.0
S1504 S 0.38276 0.30121 0.90144 0.0
N1505 N 0.38961 0.30934 0.8747 0.0
N1506 N 0.39953 0.31671 0.91889 0.0
C1507 C 0.4118 0.32943 0.90312 0.0
C1508 C 0.40643 0.32537 0.87906 0.0
C1509 C 0.90177 0.90784 0.68157 0.0
C1510 C 0.90867 0.92485 0.66524 0.0
C1511 C 0.87813 0.90355 0.68648 0.0
C1512 C 0.86025 0.91593 0.67515 0.0
H1513 H 0.91471 0.89713 0.69011 0.0
H1514 H 0.87388 0.88965 0.6985 0.0
S1515 S 0.86877 0.96407 0.6328 0.0
N1516 N 0.89544 0.95554 0.63923 0.0
N1517 N 0.85123 0.94735 0.64828 0.0
C1518 C 0.86689 0.9338 0.65969 0.0
C1519 C 0.89099 0.9383 0.65481 0.0
C1520 C 0.85528 0.14628 0.43427 0.0
C1521 C 0.83821 0.15212 0.41765 0.0
C1522 C 0.86076 0.12299 0.43932 0.0
C1523 C 0.84954 0.10443 0.42786 0.0
H1524 H 0.8652 0.1598 0.44287 0.0
H1525 H 0.87471 0.11959 0.45154 0.0
S1526 S 0.80153 0.11006 0.38491 0.0
N1527 N 0.80854 0.13714 0.39134 0.0
N1528 N 0.81898 0.09355 0.40067 0.0
C1529 C 0.83151 0.10997 0.41219 0.0
C1530 C 0.82581 0.13372 0.40715 0.0
C1531 C 0.65038 0.08274 0.1632 0.0
C1532 C 0.6567 0.09724 0.18197 0.0
C1533 C 0.62689 0.07796 0.15804 0.0
C1534 C 0.60864 0.08764 0.17127 0.0
H1535 H 0.66364 0.07561 0.15186 0.0
H1536 H 0.62303 0.06744 0.14288 0.0
S1537 S 0.61561 0.12467 0.22379 0.0
N1538 N 0.64252 0.1196 0.21506 0.0
N1539 N 0.59862 0.11083 0.20521 0.0
C1540 C 0.61471 0.1012 0.19077 0.0
C1541 C 0.63862 0.10592 0.19616 0.0
C1542 C 0.65078 0.89293 0.93573 0.0
C1543 C 0.66355 0.91123 0.92548 0.0
C1544 C 0.65621 0.86948 0.93124 0.0
C1545 C 0.67479 0.86321 0.91645 0.0
H1546 H 0.63577 0.89669 0.94651 0.0
H1547 H 0.64519 0.85619 0.93883 0.0
S1548 S 0.71547 0.90445 0.88747 0.0
N1549 N 0.69691 0.92135 0.90142 0.0
N1550 N 0.70723 0.87754 0.89317 0.0
C1551 C 0.68853 0.88135 0.90718 0.0
C1552 C 0.68289 0.90523 0.91162 0.0
C1553 C 0.86101 0.08028 0.84871 0.0
C1554 C 0.85331 0.0978 0.83337 0.0
C1555 C 0.88483 0.07608 0.85237 0.0
C1556 C 0.90211 0.08935 0.84106 0.0
H1557 H 0.84854 0.07028 0.85874 0.0
H1558 H 0.88964 0.06306 0.86512 0.0
S1559 S 0.89139 0.1355 0.79706 0.0
N1560 N 0.86509 0.12707 0.80508 0.0
N1561 N 0.90974 0.11934 0.81214 0.0
C1562 C 0.8947 0.10597 0.8246 0.0
C1563 C 0.87038 0.11013 0.82071 0.0
C1564 C 0.69107 0.13339 0.60914 0.0
C1565 C 0.67893 0.15156 0.59803 0.0
C1566 C 0.68692 0.10998 0.60352 0.0
C1567 C 0.67053 0.10359 0.5864 0.0
H1568 H 0.70319 0.13715 0.6231 0.0
H1569 H 0.69605 0.09676 0.61335 0.0
S1570 S 0.6361 0.1445 0.55006 0.0
N1571 N 0.65128 0.16153 0.56753 0.0
N1572 N 0.64359 0.11764 0.55689 0.0
C1573 C 0.65934 0.12162 0.5741 0.0
C1574 C 0.66348 0.14552 0.57993 0.0
C1575 C 0.63032 0.94842 0.35839 0.0
C1576 C 0.61184 0.93884 0.34538 0.0
C1577 C 0.65366 0.94264 0.35369 0.0
C1578 C 0.65964 0.9272 0.3356 0.0
H1579 H 0.62674 0.95961 0.37313 0.0
H1580 H 0.66704 0.94968 0.36496 0.0
S1581 S 0.61803 0.89965 0.29438 0.0
N1582 N 0.60135 0.91477 0.31222 0.0
N1583 N 0.64502 0.90414 0.30319 0.0
C1584 C 0.64142 0.91869 0.32148 0.0
C1585 C 0.61762 0.92442 0.32642 0.0
C1586 C 0.82627 0.87387 0.10622 0.0
C1587 C 0.83723 0.85622 0.09322 0.0
C1588 C 0.82996 0.89755 0.10117 0.0
C1589 C 0.8446 0.90465 0.08276 0.0
H1590 H 0.81567 0.86946 0.12119 0.0
H1591 H 0.82197 0.91037 0.11244 0.0
S1592 S 0.87493 0.86522 0.0414 0.0
N1593 N 0.86157 0.84751 0.0597 0.0
N1594 N 0.8683 0.89176 0.05004 0.0
C1595 C 0.85442 0.88712 0.06866 0.0
C1596 C 0.85081 0.86302 0.07394 0.0
C1597 C 0.91106 0.68219 0.90362 0.0
C1598 C 0.92736 0.66509 0.91013 0.0
C1599 C 0.90641 0.6872 0.8801 0.0
C1600 C 0.91766 0.67517 0.86192 0.0
H1601 H 0.90121 0.69139 0.91681 0.0
H1602 H 0.89312 0.69996 0.87623 0.0
S1603 S 0.96341 0.63016 0.86937 0.0
N1604 N 0.95606 0.63726 0.89625 0.0
N1605 N 0.94718 0.64648 0.85217 0.0
C1606 C 0.93481 0.65878 0.86813 0.0
C1607 C 0.9397 0.65381 0.89215 0.0
C1608 C 0.44402 0.8623 0.12727 0.0
C1609 C 0.43366 0.85005 0.1087 0.0
C1610 C 0.43768 0.85805 0.15056 0.0
C1611 C 0.42085 0.84119 0.15641 0.0
H1612 H 0.45641 0.87608 0.1238 0.0
H1613 H 0.44554 0.86866 0.16401 0.0
S1614 S 0.39036 0.8024 0.11455 0.0
N1615 N 0.40704 0.81896 0.09798 0.0
N1616 N 0.39532 0.8108 0.1416 0.0
C1617 C 0.41134 0.82785 0.13811 0.0
C1618 C 0.41767 0.83232 0.11435 0.0
C1619 C 0.08345 0.15685 0.64481 0.0
C1620 C 0.09903 0.17457 0.65155 0.0
C1621 C 0.07842 0.15252 0.62119 0.0
C1622 C 0.08889 0.16559 0.60323 0.0
H1623 H 0.07568 0.14561 0.65782 0.0
H1624 H 0.06707 0.13807 0.61698 0.0
S1625 S 0.12885 0.21571 0.61137 0.0
N1626 N 0.12325 0.20667 0.6381 0.0
N1627 N 0.11399 0.19836 0.59397 0.0
C1628 C 0.10353 0.18413 0.60974 0.0
C1629 C 0.10852 0.18867 0.63378 0.0
C1630 C 0.08146 0.84696 0.86222 0.0
C1631 C 0.09895 0.83134 0.85508 0.0
C1632 C 0.07691 0.85118 0.88594 0.0
C1633 C 0.08982 0.84021 0.9037 0.0
H1634 H 0.07157 0.85657 0.84937 0.0
H1635 H 0.06377 0.86395 0.8903 0.0
S1636 S 0.13634 0.79633 0.8946 0.0
N1637 N 0.12822 0.80362 0.86798 0.0
N1638 N 0.11989 0.81178 0.91238 0.0
C1639 C 0.1067 0.8238 0.89686 0.0
C1640 C 0.11118 0.81931 0.87266 0.0
C1641 C 0.57687 0.35609 0.39561 0.0
C1642 C 0.58808 0.34465 0.4142 0.0
C1643 C 0.58206 0.35077 0.37225 0.0
C1644 C 0.59856 0.33362 0.36638 0.0
H1645 H 0.56467 0.37001 0.39906 0.0
H1646 H 0.57356 0.36077 0.3587 0.0
S1647 S 0.63092 0.29666 0.40852 0.0
N1648 N 0.61512 0.31401 0.42506 0.0
N1649 N 0.62471 0.30386 0.38138 0.0
C1650 C 0.60895 0.32114 0.38482 0.0
C1651 C 0.60377 0.32669 0.40862 0.0
C1652 C 0.93621 0.35139 0.65465 0.0
C1653 C 0.91958 0.33479 0.66174 0.0
C1654 C 0.94081 0.35569 0.63094 0.0
C1655 C 0.92882 0.34379 0.61315 0.0
H1656 H 0.94533 0.36173 0.66751 0.0
H1657 H 0.95321 0.36922 0.6266 0.0
S1658 S 0.885 0.29709 0.62214 0.0
N1659 N 0.89227 0.30514 0.64877 0.0
N1660 N 0.9007 0.31341 0.6044 0.0
C1661 C 0.91289 0.3264 0.61995 0.0
C1662 C 0.90836 0.32185 0.64414 0.0
C1663 C 0.59733 0.68519 0.13969 0.0
C1664 C 0.58785 0.67208 0.15818 0.0
C1665 C 0.59208 0.68005 0.11632 0.0
C1666 C 0.57692 0.66172 0.11035 0.0
H1667 H 0.60978 0.6989 0.14319 0.0
H1668 H 0.60063 0.69008 0.10281 0.0
S1669 S 0.54533 0.62379 0.1523 0.0
N1670 N 0.56106 0.64115 0.16893 0.0
N1671 N 0.55097 0.63166 0.12521 0.0
C1672 C 0.56625 0.64936 0.12874 0.0
C1673 C 0.57178 0.65447 0.15255 0.0
C1674 C 0.62441 0.57437 0.85943 0.0
C1675 C 0.60561 0.58475 0.84756 0.0
C1676 C 0.64762 0.58075 0.85477 0.0
C1677 C 0.65316 0.59764 0.83784 0.0
H1678 H 0.6212 0.56185 0.87317 0.0
H1679 H 0.66128 0.5728 0.86504 0.0
S1680 S 0.61053 0.62847 0.80015 0.0
N1681 N 0.59431 0.61166 0.81692 0.0
N1682 N 0.63772 0.62344 0.80797 0.0
C1683 C 0.63458 0.6073 0.82499 0.0
C1684 C 0.61092 0.60094 0.8299 0.0
C1685 C 0.65351 0.38901 0.07946 0.0
C1686 C 0.66506 0.40786 0.09007 0.0
C1687 C 0.65876 0.36585 0.08533 0.0
C1688 C 0.67596 0.36043 0.10197 0.0
H1689 H 0.63956 0.39211 0.06714 0.0
H1690 H 0.64871 0.35213 0.07723 0.0
S1691 S 0.71313 0.40329 0.13308 0.0
N1692 N 0.6958 0.41939 0.11679 0.0
N1693 N 0.70582 0.37606 0.12767 0.0
C1694 C 0.68852 0.37909 0.11181 0.0
C1695 C 0.68304 0.4027 0.10594 0.0
C1696 C 0.87796 0.40461 0.3277 0.0
C1697 C 0.85957 0.41571 0.33955 0.0
C1698 C 0.90136 0.40896 0.33341 0.0
C1699 C 0.90754 0.4248 0.35108 0.0
H1700 H 0.8743 0.39161 0.31456 0.0
H1701 H 0.9147 0.39921 0.32434 0.0
S1702 S 0.86617 0.4605 0.38567 0.0
N1703 N 0.8493 0.44472 0.36858 0.0
N1704 N 0.89315 0.45307 0.37913 0.0
C1705 C 0.88938 0.43706 0.36215 0.0
C1706 C 0.86548 0.43247 0.35645 0.0
C1707 C 0.82587 0.63701 0.60834 0.0
C1708 C 0.83757 0.65535 0.59696 0.0
C1709 C 0.83081 0.6136 0.60325 0.0
C1710 C 0.84751 0.60741 0.58636 0.0
H1711 H 0.81346 0.64068 0.62207 0.0
H1712 H 0.82195 0.60025 0.61321 0.0
S1713 S 0.88126 0.64881 0.5497 0.0
N1714 N 0.86537 0.66564 0.56671 0.0
N1715 N 0.87447 0.62186 0.55694 0.0
C1716 C 0.85841 0.6256 0.57393 0.0
C1717 C 0.85351 0.64946 0.57928 0.0
C1718 C 0.62763 0.43538 0.66197 0.0
C1719 C 0.60903 0.42579 0.67482 0.0
C1720 C 0.65095 0.42999 0.66723 0.0
C1721 C 0.65677 0.41494 0.68573 0.0
H1722 H 0.62417 0.44631 0.64699 0.0
H1723 H 0.66447 0.43709 0.65615 0.0
S1724 S 0.61467 0.3874 0.72657 0.0
N1725 N 0.59817 0.40203 0.70816 0.0
N1726 N 0.64177 0.39212 0.7182 0.0
C1727 C 0.63836 0.40633 0.69958 0.0
C1728 C 0.61461 0.41168 0.69409 0.0
C1729 C 0.85255 0.36353 0.93842 0.0
C1730 C 0.83665 0.35657 0.92107 0.0
C1731 C 0.85672 0.38714 0.94325 0.0
C1732 C 0.84535 0.40497 0.93082 0.0
H1733 H 0.8625 0.35065 0.9479 0.0
H1734 H 0.86977 0.39137 0.95619 0.0
S1735 S 0.80036 0.39628 0.88517 0.0
N1736 N 0.80809 0.36966 0.89266 0.0
N1737 N 0.81606 0.41388 0.90157 0.0
C1738 C 0.82853 0.39829 0.91424 0.0
C1739 C 0.82415 0.37419 0.90943 0.0
C1740 C 0.89081 0.57254 0.15785 0.0
C1741 C 0.90877 0.58279 0.17103 0.0
C1742 C 0.86725 0.57722 0.1626 0.0
C1743 C 0.8606 0.59222 0.18085 0.0
H1744 H 0.89494 0.56183 0.1429 0.0
H1745 H 0.85422 0.56985 0.15114 0.0
S1746 S 0.90083 0.62052 0.22289 0.0
N1747 N 0.91818 0.6065 0.20478 0.0
N1748 N 0.87409 0.61512 0.21385 0.0
C1749 C 0.87836 0.60116 0.19525 0.0
C1750 C 0.90236 0.59651 0.1903 0.0
C1751 C 0.65806 0.62559 0.44411 0.0
C1752 C 0.66959 0.60765 0.43202 0.0
C1753 C 0.66183 0.64912 0.43864 0.0
C1754 C 0.67748 0.65589 0.42098 0.0
H1755 H 0.64513 0.62147 0.45723 0.0
H1756 H 0.6517 0.66208 0.44784 0.0
S1757 S 0.71421 0.61592 0.38586 0.0
N1758 N 0.69887 0.59847 0.40282 0.0
N1759 N 0.70612 0.64259 0.39272 0.0
C1760 C 0.69023 0.63821 0.40973 0.0
C1761 C 0.68624 0.61417 0.41518 0.0
C1762 C 0.57625 0.8569 0.62259 0.0
C1763 C 0.58621 0.84405 0.60422 0.0
C1764 C 0.58132 0.85179 0.64602 0.0
C1765 C 0.59644 0.8335 0.65218 0.0
H1766 H 0.56537 0.87181 0.61887 0.0
H1767 H 0.57402 0.86294 0.65936 0.0
S1768 S 0.62447 0.79244 0.6108 0.0
N1769 N 0.61006 0.81069 0.59394 0.0
N1770 N 0.61941 0.80098 0.63778 0.0
C1771 C 0.60526 0.81953 0.63402 0.0
C1772 C 0.60021 0.82483 0.61014 0.0
C1773 C 0.39748 0.41558 0.18835 0.0
C1774 C 0.40264 0.43229 0.17113 0.0
C1775 C 0.37436 0.40986 0.19417 0.0
C1776 C 0.35531 0.4204 0.18287 0.0
H1777 H 0.4114 0.40622 0.19693 0.0
H1778 H 0.37147 0.39626 0.20692 0.0
S1779 S 0.35907 0.46696 0.13815 0.0
N1780 N 0.38647 0.46071 0.14417 0.0
N1781 N 0.34324 0.44976 0.1549 0.0
C1782 C 0.36018 0.43795 0.16644 0.0
C1783 C 0.38373 0.44394 0.16064 0.0
C1784 C 0.32426 0.63611 0.90659 0.0
C1785 C 0.33626 0.65451 0.91749 0.0
C1786 C 0.32976 0.61275 0.91122 0.0
C1787 C 0.34742 0.60662 0.92711 0.0
H1788 H 0.31103 0.6397 0.89363 0.0
H1789 H 0.3205 0.59939 0.90168 0.0
S1790 S 0.38263 0.64806 0.96212 0.0
N1791 N 0.36559 0.66486 0.94622 0.0
N1792 N 0.37579 0.62109 0.95504 0.0
C1793 C 0.35876 0.62481 0.93905 0.0
C1794 C 0.35324 0.64867 0.93421 0.0
C1795 C 0.13766 0.60341 0.6909 0.0
C1796 C 0.15607 0.59172 0.67968 0.0
C1797 C 0.11429 0.59796 0.68614 0.0
C1798 C 0.10826 0.58043 0.6701 0.0
H1799 H 0.14123 0.61776 0.70257 0.0
H1800 H 0.10086 0.60828 0.69441 0.0
S1801 S 0.14992 0.54232 0.63854 0.0
N1802 N 0.16665 0.56016 0.65361 0.0
N1803 N 0.12288 0.54973 0.64483 0.0
C1804 C 0.12652 0.56748 0.66002 0.0
C1805 C 0.15035 0.57318 0.66475 0.0
C1806 C 0.16291 0.38681 0.44085 0.0
C1807 C 0.1736 0.40494 0.42821 0.0
C1808 C 0.16744 0.36331 0.43581 0.0
C1809 C 0.18306 0.35678 0.41803 0.0
H1810 H 0.15008 0.39071 0.45412 0.0
H1811 H 0.15797 0.35016 0.44547 0.0
S1812 S 0.21768 0.39744 0.38143 0.0
N1813 N 0.202 0.41462 0.39828 0.0
N1814 N 0.21068 0.37062 0.38899 0.0
C1815 C 0.19492 0.37472 0.40616 0.0
C1816 C 0.19015 0.3987 0.41118 0.0
C1817 C 0.39947 0.59495 0.33119 0.0
C1818 C 0.40545 0.57907 0.3489 0.0
C1819 C 0.37611 0.59999 0.32594 0.0
C1820 C 0.35764 0.58957 0.33832 0.0
H1821 H 0.41295 0.60427 0.32182 0.0
H1822 H 0.37258 0.61307 0.31281 0.0
S1823 S 0.36361 0.54478 0.38453 0.0
N1824 N 0.39068 0.55132 0.37739 0.0
N1825 N 0.34695 0.56104 0.3677 0.0
C1826 C 0.3633 0.57272 0.35518 0.0
C1827 C 0.38712 0.5674 0.36039 0.0
C1828 C 0.15891 0.62562 0.07264 0.0
C1829 C 0.17062 0.60696 0.0834 0.0
C1830 C 0.16379 0.64882 0.07856 0.0
C1831 C 0.18072 0.65445 0.0954 0.0
H1832 H 0.14499 0.62233 0.06035 0.0
H1833 H 0.15349 0.66239 0.07053 0.0
S1834 S 0.21864 0.61218 0.12638 0.0
N1835 N 0.20158 0.59584 0.11003 0.0
N1836 N 0.2109 0.6393 0.12102 0.0
C1837 C 0.19368 0.63602 0.10512 0.0
C1838 C 0.18859 0.61235 0.09918 0.0
C1839 C 0.14939 0.43458 0.85826 0.0
C1840 C 0.15644 0.41932 0.84039 0.0
C1841 C 0.1257 0.43868 0.86306 0.0
C1842 C 0.10792 0.42752 0.85038 0.0
H1843 H 0.16227 0.44296 0.86919 0.0
H1844 H 0.12137 0.44995 0.87753 0.0
S1845 S 0.11679 0.38756 0.80033 0.0
N1846 N 0.14342 0.39433 0.80878 0.0
N1847 N 0.09911 0.40182 0.81793 0.0
C1848 C 0.11468 0.41304 0.83176 0.0
C1849 C 0.13883 0.40902 0.82673 0.0
C1850 C 0.33055 0.40135 0.60209 0.0
C1851 C 0.34744 0.40719 0.58525 0.0
C1852 C 0.32492 0.37806 0.60704 0.0
C1853 C 0.33611 0.35952 0.59555 0.0
H1854 H 0.32216 0.41485 0.61221 0.0
H1855 H 0.31253 0.37461 0.62085 0.0
S1856 S 0.37965 0.36521 0.54803 0.0
N1857 N 0.37373 0.39228 0.5555 0.0
N1858 N 0.36336 0.34869 0.56502 0.0
C1859 C 0.35207 0.3651 0.57776 0.0
C1860 C 0.35766 0.38884 0.57255 0.0
C1861 C 0.44482 0.15908 0.39132 0.0
C1862 C 0.43289 0.17037 0.40955 0.0
C1863 C 0.43984 0.16386 0.36784 0.0
C1864 C 0.42284 0.18029 0.36142 0.0
H1865 H 0.4574 0.14561 0.39514 0.0
H1866 H 0.44887 0.15389 0.3546 0.0
S1867 S 0.38858 0.21683 0.40234 0.0
N1868 N 0.4047 0.20031 0.41946 0.0
N1869 N 0.3955 0.20942 0.37543 0.0
C1870 C 0.41181 0.1928 0.37945 0.0
C1871 C 0.41678 0.1878 0.40342 0.0
C1872 C 0.99737 0.10932 0.28537 0.0
C1873 C 1.0055 0.13072 0.29415 0.0
C1874 C 0.97881 0.10841 0.26945 0.0
C1875 C 0.96841 0.12887 0.2611 0.0
H1876 H 1.00377 0.09312 0.29257 0.0
H1877 H 0.97161 0.09163 0.2648 0.0
S1878 S 0.98509 0.18923 0.27675 0.0
N1879 N 1.00286 0.17273 0.29218 0.0
N1880 N 0.96893 0.17117 0.26131 0.0
C1881 C 0.97786 0.15037 0.26812 0.0
C1882 C 0.99618 0.15126 0.28491 0.0
C1883 C 0.1502 0.74312 0.53486 0.0
C1884 C 0.12876 0.75047 0.54428 0.0
C1885 C 0.15127 0.7249 0.51859 0.0
C1886 C 0.1309 0.71405 0.51052 0.0
H1887 H 0.1664 0.74987 0.54178 0.0
H1888 H 0.16817 0.71832 0.51342 0.0
S1889 S 0.07037 0.72876 0.52771 0.0
N1890 N 0.08673 0.74669 0.54311 0.0
N1891 N 0.08856 0.71338 0.51164 0.0
C1892 C 0.10928 0.72275 0.51818 0.0
C1893 C 0.10825 0.74074 0.5353 0.0
C1894 C 0.56382 0.87057 0.79228 0.0
C1895 C 0.55816 0.87827 0.76978 0.0
C1896 C 0.54699 0.86874 0.80968 0.0
C1897 C 0.52371 0.87523 0.80565 0.0
H1898 H 0.58163 0.86606 0.7966 0.0
H1899 H 0.55274 0.86336 0.82683 0.0
S1900 S 0.49942 0.89431 0.74879 0.0
N1901 N 0.5274 0.89016 0.74341 0.0
N1902 N 0.49551 0.88803 0.77664 0.0
C1903 C 0.5175 0.88196 0.78281 0.0
C1904 C 0.53478 0.88318 0.76476 0.0
C1905 C 0.38005 0.31231 0.04965 0.0
C1906 C 0.37965 0.30674 0.02581 0.0
C1907 C 0.3822 0.29517 0.06665 0.0
C1908 C 0.38346 0.2715 0.06076 0.0
H1909 H 0.37944 0.33024 0.05537 0.0
H1910 H 0.38226 0.30062 0.08472 0.0
S1911 S 0.38268 0.24737 1.0009 0.0
N1912 N 0.38105 0.27582 0.997 0.0
N1913 N 0.38363 0.24313 0.0294 0.0
C1914 C 0.38264 0.26544 0.03703 0.0
C1915 C 0.38119 0.28316 0.01947 0.0
C1916 C 0.99418 0.90249 0.22134 0.0
C1917 C 1.00127 0.88087 0.21222 0.0
C1918 C 0.97682 0.9039 0.23856 0.0
C1919 C 0.96664 0.88373 0.24791 0.0
H1920 H 1.00045 0.9185 0.21359 0.0
H1921 H 0.97037 0.92087 0.24359 0.0
S1922 S 0.9809 0.82292 0.23163 0.0
N1923 N 0.99782 0.83894 0.21476 0.0
N1924 N 0.96627 0.84142 0.24803 0.0
C1925 C 0.97508 0.862 0.24036 0.0
C1926 C 0.99212 0.8606 0.22227 0.0
C1927 C 0.38319 0.72949 0.49487 0.0
C1928 C 0.37503 0.70698 0.48933 0.0
C1929 C 0.38513 0.74694 0.47767 0.0
C1930 C 0.37966 0.74212 0.45431 0.0
H1931 H 0.38882 0.73344 0.51243 0.0
H1932 H 0.39172 0.76392 0.48247 0.0
S1933 S 0.35594 0.68702 0.43068 0.0
N1934 N 0.35974 0.68185 0.45869 0.0
N1935 N 0.3643 0.71417 0.4267 0.0
C1936 C 0.37072 0.72013 0.44872 0.0
C1937 C 0.36814 0.70268 0.46613 0.0
C1938 C 0.52012 0.1459 0.72808 0.0
C1939 C 0.51324 0.12492 0.71766 0.0
C1940 C 0.53605 0.14607 0.74663 0.0
C1941 C 0.54631 0.12533 0.75471 0.0
H1942 H 0.51435 0.16232 0.72087 0.0
H1943 H 0.54211 0.16273 0.75302 0.0
S1944 S 0.53285 0.06576 0.73437 0.0
N1945 N 0.51624 0.08274 0.71818 0.0
N1946 N 0.54714 0.08327 0.75213 0.0
C1947 C 0.53845 0.10419 0.74544 0.0
C1948 C 0.52165 0.10395 0.72712 0.0
C1949 C 0.13194 0.27074 0.97373 0.0
C1950 C 0.13497 0.27716 0.95027 0.0
C1951 C 0.13289 0.28755 0.99162 0.0
C1952 C 0.13785 0.3111 0.98668 0.0
H1953 H 0.12822 0.25282 0.97818 0.0
H1954 H 0.12928 0.28215 0.00934 0.0
S1955 S 0.14986 0.33597 0.92798 0.0
N1956 N 0.14458 0.30821 0.92318 0.0
N1957 N 0.14746 0.3393 0.95639 0.0
C1958 C 0.14218 0.31727 0.96329 0.0
C1959 C 0.14045 0.30045 0.9452 0.0
C1960 C 0.31529 0.96479 0.12791 0.0
C1961 C 0.30944 0.98826 0.13126 0.0
C1962 C 0.29823 0.9477 0.12559 0.0
C1963 C 0.2744 0.95309 0.12704 0.0
H1964 H 0.33335 0.95948 0.12673 0.0
H1965 H 0.304 0.92989 0.12357 0.0
S1966 S 0.24966 0.01213 0.13507 0.0
N1967 N 0.27814 0.0164 0.13482 0.0
N1968 N 0.24571 0.98383 0.13177 0.0
C1969 C 0.26814 0.97656 0.13022 0.0
C1970 C 0.28573 0.99425 0.13193 0.0
C1971 C 0.29154 0.02166 0.36358 0.0
C1972 C 0.30119 0.01363 0.38457 0.0
C1973 C 0.27347 0.03812 0.36358 0.0
C1974 C 0.26513 0.04778 0.38455 0.0
H1975 H 0.299 0.01632 0.34709 0.0
H1976 H 0.26768 0.045 0.34698 0.0
S1977 S 0.28346 0.03132 0.44415 0.0
N1978 N 0.2996 0.01497 0.42689 0.0
N1979 N 0.26661 0.04682 0.42676 0.0
C1980 C 0.27361 0.03881 0.40562 0.0
C1981 C 0.29142 0.02149 0.40565 0.0
C1982 C 0.20334 0.04755 0.63377 0.0
C1983 C 0.20889 0.02381 0.63188 0.0
C1984 C 0.22034 0.06473 0.63176 0.0
C1985 C 0.24387 0.0591 0.62826 0.0
H1986 H 0.18547 0.05314 0.63604 0.0
H1987 H 0.21492 0.0827 0.63342 0.0
S1988 S 0.26813 0.99965 0.62322 0.0
N1989 N 0.23982 0.99546 0.62647 0.0
N1990 N 0.27224 0.0281 0.624 0.0
C1991 C 0.25 0.03548 0.62705 0.0
C1992 C 0.23241 0.01778 0.62844 0.0
C1993 C 0.23843 0.9746 0.88322 0.0
C1994 C 0.23261 0.95181 0.8904 0.0
C1995 C 0.22143 0.99224 0.88191 0.0
C1996 C 0.198 0.98741 0.88707 0.0
H1997 H 0.25603 0.97862 0.87775 0.0
H1998 H 0.22644 0.00941 0.87597 0.0
S1999 S 0.17386 0.93176 0.90914 0.0
N2000 N 0.20179 0.92649 0.90508 0.0
N2001 N 0.17014 0.95919 0.90166 0.0
C2002 C 0.19219 0.96517 0.89531 0.0
C2003 C 0.2094 0.94749 0.89725 0.0
C2004 C 0.62349 0.24577 0.04182 0.0
C2005 C 0.6319 0.23956 0.06395 0.0
C2006 C 0.62371 0.2296 0.02331 0.0
C2007 C 0.63304 0.20706 0.02622 0.0
H2008 H 0.61592 0.26279 0.03906 0.0
H2009 H 0.6158 0.23453 1.00691 0.0
S2010 S 0.66001 0.18388 0.0804 0.0
N2011 N 0.65142 0.21032 0.08733 0.0
N2012 N 0.65287 0.18054 0.05279 0.0
C2013 C 0.64294 0.20147 0.04799 0.0
C2014 C 0.64207 0.21756 0.06679 0.0
C2015 C 0.02097 0.35948 0.29223 0.0
C2016 C 0.01293 0.37996 0.30283 0.0
C2017 C 0.03756 0.36029 0.27422 0.0
C2018 C 0.04733 0.38156 0.26686 0.0
H2019 H 0.01548 0.3427 0.29884 0.0
H2020 H 0.0444 0.34401 0.26765 0.0
S2021 S 0.03123 0.44013 0.28818 0.0
N2022 N 0.01463 0.42221 0.30339 0.0
N2023 N 0.04669 0.42355 0.27051 0.0
C2024 C 0.03848 0.40218 0.27642 0.0
C2025 C 0.02104 0.40141 0.29417 0.0
C2026 C 0.88362 0.79607 0.56577 0.0
C2027 C 0.88722 0.77241 0.56089 0.0
C2028 C 0.88208 0.81257 0.54805 0.0
C2029 C 0.88461 0.80638 0.52448 0.0
H2030 H 0.8815 0.802 0.58357 0.0
H2031 H 0.8797 0.83055 0.55313 0.0
S2032 S 0.89371 0.74656 0.50213 0.0
N2033 N 0.89219 0.74325 0.53072 0.0
N2034 N 0.89065 0.7747 0.49708 0.0
C2035 C 0.88813 0.78273 0.51917 0.0
C2036 C 0.88903 0.76565 0.53742 0.0
C2037 C 0.0212 0.60726 0.22728 0.0
C2038 C 0.01336 0.62884 0.21871 0.0
C2039 C 0.03929 0.60598 0.2437 0.0
C2040 C 0.04947 0.62625 0.25276 0.0
H2041 H 0.01493 0.59121 0.21963 0.0
H2042 H 0.04628 0.58909 0.24826 0.0
S2043 S 0.03332 0.68696 0.23789 0.0
N2044 N 0.016 0.67081 0.22161 0.0
N2045 N 0.04901 0.66856 0.2534 0.0
C2046 C 0.04028 0.64791 0.24589 0.0
C2047 C 0.02246 0.64918 0.2286 0.0
C2048 C 0.47918 0.40367 0.75013 0.0
C2049 C 0.46742 0.38351 0.75742 0.0
C2050 C 0.49678 0.40257 0.73314 0.0
C2051 C 0.50252 0.38139 0.72222 0.0
H2052 H 0.47374 0.42053 0.75652 0.0
H2053 H 0.50425 0.41872 0.72692 0.0
S2054 S 0.47802 0.32348 0.7363 0.0
N2055 N 0.46424 0.34149 0.75395 0.0
N2056 N 0.49637 0.33968 0.72118 0.0
C2057 C 0.49194 0.36097 0.73041 0.0
C2058 C 0.4746 0.36198 0.74824 0.0
C2059 C 0.02202 0.85921 0.72483 0.0
C2060 C 0.01412 0.8799 0.71453 0.0
C2061 C 0.03853 0.85965 0.74288 0.0
C2062 C 0.04839 0.88076 0.75053 0.0
H2063 H 0.01656 0.84257 0.71789 0.0
H2064 H 0.04535 0.84324 0.74913 0.0
S2065 S 0.03246 0.93974 0.73022 0.0
N2066 N 0.01586 0.92215 0.7147 0.0
N2067 N 0.04784 0.92281 0.74763 0.0
C2068 C 0.03957 0.90157 0.74138 0.0
C2069 C 0.02219 0.90118 0.7236 0.0
C2070 C 0.87476 0.29304 0.45429 0.0
C2071 C 0.88226 0.27041 0.45951 0.0
C2072 C 0.87229 0.30983 0.47161 0.0
C2073 C 0.87784 0.30504 0.49501 0.0
H2074 H 0.87074 0.29791 0.43649 0.0
H2075 H 0.86706 0.32711 0.46621 0.0
S2076 S 0.8968 0.24778 0.51811 0.0
N2077 N 0.89351 0.24326 0.48985 0.0
N2078 N 0.89018 0.27538 0.52267 0.0
C2079 C 0.88475 0.28218 0.50068 0.0
C2080 C 0.88661 0.26474 0.48289 0.0
C2081 C 0.48151 0.1521 0.25028 0.0
C2082 C 0.47144 0.13104 0.25782 0.0
C2083 C 0.49798 0.15249 0.23218 0.0
C2084 C 0.50558 0.13179 0.22171 0.0
H2085 H 0.47494 0.16854 0.2567 0.0
H2086 H 0.50363 0.16912 0.22532 0.0
S2087 S 0.48667 0.07203 0.23715 0.0
N2088 N 0.47153 0.089 0.25472 0.0
N2089 N 0.50339 0.08956 0.22164 0.0
C2090 C 0.49731 0.11053 0.23068 0.0
C2091 C 0.47999 0.11019 0.24853 0.0
C2092 C 0.6217 0.70027 0.9643 0.0
C2093 C 0.6249 0.70556 0.98799 0.0
C2094 C 0.62058 0.71765 0.94743 0.0
C2095 C 0.62316 0.74128 0.95323 0.0
H2096 H 0.61968 0.68241 0.95864 0.0
H2097 H 0.61853 0.71226 0.92946 0.0
S2098 S 0.63103 0.76463 0.01298 0.0
N2099 N 0.62936 0.73617 0.01677 0.0
N2100 N 0.62854 0.76917 0.98464 0.0
C2101 C 0.6261 0.74699 0.97693 0.0
C2102 C 0.62659 0.72909 0.99439 0.0
C2103 C 0.04196 0.13119 0.77059 0.0
C2104 C 0.06546 0.12998 0.77752 0.0
C2105 C 0.02392 0.13329 0.78719 0.0
C2106 C 0.02889 0.13525 0.81114 0.0
H2107 H 0.03749 0.13035 0.75228 0.0
H2108 H 1.00603 0.13352 0.78124 0.0
S2109 S 0.08764 0.13351 0.83826 0.0
N2110 N 0.09258 0.13103 0.81008 0.0
N2111 N 0.05913 0.13552 0.84084 0.0
C2112 C 0.05237 0.13436 0.81815 0.0
C2113 C 0.07052 0.1316 0.80146 0.0
C2114 C 0.65024 0.30578 0.54662 0.0
C2115 C 0.63992 0.3035 0.52449 0.0
C2116 C 0.64824 0.2883 0.56335 0.0
C2117 C 0.6365 0.26745 0.55862 0.0
H2118 H 0.65869 0.32182 0.55176 0.0
H2119 H 0.65538 0.29143 0.58053 0.0
S2120 S 0.60952 0.25083 0.50254 0.0
N2121 N 0.61934 0.2775 0.49803 0.0
N2122 N 0.61661 0.2441 0.52964 0.0
C2123 C 0.62772 0.2639 0.53613 0.0
C2124 C 0.62926 0.28205 0.51901 0.0
C2125 C 0.49686 0.89158 0.28288 0.0
C2126 C 0.49157 0.89358 0.30673 0.0
C2127 C 0.4791 0.89276 0.2659 0.0
C2128 C 0.45574 0.89704 0.27223 0.0
H2129 H 0.51463 0.88851 0.2774 0.0
H2130 H 0.48362 0.89003 0.24779 0.0
S2131 S 0.43343 0.90537 0.33255 0.0
N2132 N 0.4616 0.90095 0.33573 0.0
N2133 N 0.42875 0.90415 0.30425 0.0
C2134 C 0.45061 0.90008 0.29605 0.0
C2135 C 0.46839 0.89811 0.31318 0.0
C2136 C 0.86419 0.7437 0.03795 0.0
C2137 C 0.88577 0.75122 0.04693 0.0
C2138 C 0.8629 0.72534 0.02187 0.0
C2139 C 0.88316 0.71451 0.01353 0.0
H2140 H 0.84809 0.75048 0.04505 0.0
H2141 H 0.84594 0.71867 0.017 0.0
S2142 S 0.94393 0.72941 0.02974 0.0
N2143 N 0.92778 0.74747 0.04518 0.0
N2144 N 0.92551 0.71388 0.01407 0.0
C2145 C 0.90488 0.72329 0.02082 0.0
C2146 C 0.90615 0.74143 0.03774 0.0
C2147 C 0.74145 0.03867 0.90097 0.0
C2148 C 0.74913 0.04986 0.88058 0.0
C2149 C 0.72364 0.02191 0.90022 0.0
C2150 C 0.71233 0.0164 0.87915 0.0
H2151 H 0.74825 0.04392 0.91777 0.0
H2152 H 0.71722 0.01491 0.91654 0.0
S2153 S 0.72729 0.03916 0.82065 0.0
N2154 N 0.74559 0.05245 0.8384 0.0
N2155 N 0.71139 0.02188 0.83727 0.0
C2156 C 0.72087 0.0263 0.8585 0.0
C2157 C 0.73948 0.04279 0.85915 0.0
C2158 C 0.75076 0.97563 0.64864 0.0
C2159 C 0.75687 0.96443 0.62767 0.0
C2160 C 0.73332 0.99273 0.64915 0.0
C2161 C 0.72216 0.99986 0.6286 0.0
H2162 H 0.75769 0.96947 0.66508 0.0
H2163 H 0.72746 0.99926 0.66585 0.0
S2164 S 0.73416 0.9782 0.56891 0.0
N2165 N 0.7519 0.96309 0.58574 0.0
N2166 N 0.72011 0.99611 0.58644 0.0
C2167 C 0.72986 0.99051 0.60728 0.0
C2168 C 0.74701 0.97256 0.60687 0.0
C2169 C 0.80396 0.94585 0.3772 0.0
C2170 C 0.78048 0.95098 0.38161 0.0
C2171 C 0.82057 0.9634 0.37501 0.0
C2172 C 0.81462 0.98697 0.37768 0.0
H2173 H 0.80961 0.928 0.37503 0.0
H2174 H 0.83846 0.95821 0.37208 0.0
S2175 S 0.75524 0.0098 0.38869 0.0
N2176 N 0.75166 0.9813 0.38741 0.0
N2177 N 0.78335 0.01461 0.38463 0.0
C2178 C 0.79111 0.99249 0.38191 0.0
C2179 C 0.77392 0.97444 0.38347 0.0
C2180 C 0.76945 0.03918 0.13493 0.0
C2181 C 0.77676 0.06256 0.13449 0.0
C2182 C 0.78579 0.02088 0.13567 0.0
C2183 C 0.80985 0.02546 0.13708 0.0
H2184 H 0.75106 0.03503 0.13446 0.0
H2185 H 0.77959 1.00309 0.13518 0.0
S2186 S 0.83787 0.08381 0.13721 0.0
N2187 N 0.80973 0.08917 0.13578 0.0
N2188 N 0.84003 0.05525 0.13793 0.0
C2189 C 0.81722 0.04882 0.13712 0.0
C2190 C 0.80079 0.06724 0.13564 0.0
C2191 C 0.38288 0.77206 0.9751 0.0
C2192 C 0.39106 0.77643 0.95228 0.0
C2193 C 0.38366 0.78942 0.99245 0.0
C2194 C 0.39211 0.81176 0.98726 0.0
H2195 H 0.3748 0.75556 0.97929 0.0
H2196 H 0.37668 0.7857 0.00959 0.0
S2197 S 0.41845 0.83124 0.93153 0.0
N2198 N 0.41061 0.80409 0.92671 0.0
N2199 N 0.41099 0.83663 0.95874 0.0
C2200 C 0.40152 0.81586 0.96505 0.0
C2201 C 0.40132 0.79821 0.94772 0.0
C2202 C 0.97682 0.6271 0.74644 0.0
C2203 C 0.9536 0.63196 0.74043 0.0
C2204 C 0.99467 0.62815 0.72954 0.0
C2205 C 0.98996 0.63499 0.70638 0.0
H2206 H 0.98107 0.62183 0.76405 0.0
H2207 H 0.01214 0.62313 0.73451 0.0
S2208 S 0.93201 0.65188 0.68282 0.0
N2209 N 0.92703 0.64515 0.71029 0.0
N2210 N 0.96021 0.6481 0.67906 0.0
C2211 C 0.96687 0.64109 0.7007 0.0
C2212 C 0.9488 0.63932 0.71758 0.0
C2213 C 0.11808 0.227 0.49652 0.0
C2214 C 0.13875 0.21498 0.50199 0.0
C2215 C 0.11788 0.24466 0.47959 0.0
C2216 C 0.13847 0.25151 0.46831 0.0
H2217 H 0.10156 0.22118 0.50355 0.0
H2218 H 0.10132 0.25188 0.47418 0.0
S2219 S 0.19756 0.22767 0.47871 0.0
N2220 N 0.18053 0.21255 0.4963 0.0
N2221 N 0.18041 0.24652 0.46544 0.0
C2222 C 0.15957 0.24126 0.47538 0.0
C2223 C 0.15965 0.22278 0.49202 0.0
C2224 C 0.97708 0.36312 0.77378 0.0
C2225 C 0.96697 0.38422 0.76649 0.0
C2226 C 0.99416 0.36266 0.79129 0.0
C2227 C 1.00235 0.38334 0.80139 0.0
H2228 H 0.97012 0.3467 0.76767 0.0
H2229 H 0.99985 0.34601 0.79802 0.0
S2230 S 0.98378 0.4432 0.78604 0.0
N2231 N 0.96771 0.42626 0.76926 0.0
N2232 N 1.00079 0.4256 0.80111 0.0
C2233 C 0.99405 0.40462 0.79254 0.0
C2234 C 0.97608 0.40502 0.77534 0.0
C2235 C 0.54167 0.62374 0.27119 0.0
C2236 C 0.56525 0.62193 0.27774 0.0
C2237 C 0.52384 0.62483 0.28808 0.0
C2238 C 0.52918 0.62512 0.312 0.0
H2239 H 0.53699 0.62456 0.25293 0.0
H2240 H 0.50589 0.62593 0.28241 0.0
S2241 S 0.58807 0.62057 0.33839 0.0
N2242 N 0.59271 0.62003 0.31005 0.0
N2243 N 0.5596 0.6226 0.34137 0.0
C2244 C 0.55264 0.62311 0.3187 0.0
C2245 C 0.57058 0.62139 0.3017 0.0
C2246 C 0.49228 0.63028 0.7874 0.0
C2247 C 0.48854 0.63972 0.80982 0.0
C2248 C 0.47477 0.63103 0.77018 0.0
C2249 C 0.45291 0.64076 0.77513 0.0
H2250 H 0.50832 0.62119 0.7835 0.0
H2251 H 0.47793 0.62301 0.75341 0.0
S2252 S 0.43524 0.67054 0.82961 0.0
N2253 N 0.46209 0.66174 0.83459 0.0
N2254 N 0.42921 0.66208 0.80283 0.0
C2255 C 0.4495 0.65144 0.79684 0.0
C2256 C 0.46732 0.65125 0.81401 0.0
C2257 C 0.89902 0.22695 1.00078 0.0
C2258 C 0.87781 0.21573 1.00601 0.0
C2259 C 0.90022 0.24448 0.98375 0.0
C2260 C 0.88011 0.25202 0.97209 0.0
H2261 H 0.91518 0.22059 0.00813 0.0
H2262 H 0.91714 0.25107 0.97861 0.0
S2263 S 0.81995 0.23042 0.98169 0.0
N2264 N 0.83607 0.21479 0.99962 0.0
N2265 N 0.83805 0.24854 0.96859 0.0
C2266 C 0.85851 0.24257 0.97887 0.0
C2267 C 0.85741 0.22421 0.99561 0.0
C2268 C 0.61018 0.76915 0.47505 0.0
C2269 C 0.63071 0.76106 0.46452 0.0
C2270 C 0.61093 0.78613 0.49261 0.0
C2271 C 0.63218 0.7962 0.49958 0.0
H2272 H 0.59339 0.76335 0.46871 0.0
H2273 H 0.5946 0.79297 0.49912 0.0
S2274 S 0.69094 0.77964 0.47887 0.0
N2275 N 0.67305 0.76276 0.46399 0.0
N2276 N 0.67425 0.7955 0.49608 0.0
C2277 C 0.65287 0.78718 0.49029 0.0
C2278 C 0.65218 0.76938 0.47298 0.0
C2279 C 0.77125 0.47064 0.63653 0.0
C2280 C 0.77778 0.44705 0.63618 0.0
C2281 C 0.78817 0.48844 0.63671 0.0
C2282 C 0.8121 0.48316 0.63757 0.0
H2283 H 0.75299 0.47535 0.63652 0.0
H2284 H 0.78252 0.5064 0.63633 0.0
S2285 S 0.83825 0.42401 0.63769 0.0
N2286 N 0.80992 0.41947 0.63697 0.0
N2287 N 0.84133 0.4525 0.63793 0.0
C2288 C 0.81873 0.45959 0.63757 0.0
C2289 C 0.80168 0.44165 0.63673 0.0
C2290 C 0.78568 0.52314 0.88319 0.0
C2291 C 0.80947 0.52858 0.88532 0.0
C2292 C 0.76855 0.54069 0.88452 0.0
C2293 C 0.77462 0.56404 0.88904 0.0
H2294 H 0.78034 0.50536 0.87999 0.0
H2295 H 0.75049 0.53599 0.88175 0.0
S2296 S 0.83466 0.58673 0.89801 0.0
N2297 N 0.83812 0.55871 0.89318 0.0
N2298 N 0.80635 0.59117 0.89665 0.0
C2299 C 0.79838 0.56934 0.89219 0.0
C2300 C 0.81568 0.55176 0.89009 0.0
C2301 C 0.72631 0.51985 0.13083 0.0
C2302 C 0.7044 0.52531 0.14064 0.0
C2303 C 0.74443 0.53644 0.12993 0.0
C2304 C 0.74096 0.55906 0.13844 0.0
H2305 H 0.72916 0.50306 0.1228 0.0
H2306 H 0.76076 0.53189 0.12168 0.0
S2307 S 0.68823 0.58163 0.16795 0.0
N2308 N 0.68158 0.55458 0.16116 0.0
N2309 N 0.7151 0.58558 0.15859 0.0
C2310 C 0.71974 0.56433 0.14931 0.0
C2311 C 0.70161 0.54749 0.15069 0.0
C2312 C 0.71698 0.44565 0.38717 0.0
C2313 C 0.74076 0.45141 0.38758 0.0
C2314 C 0.69983 0.46268 0.38555 0.0
C2315 C 0.70551 0.48645 0.38482 0.0
H2316 H 0.71138 0.42765 0.38743 0.0
H2317 H 0.68183 0.45702 0.38553 0.0
S2318 S 0.76518 0.51109 0.38583 0.0
N2319 N 0.76929 0.48265 0.38679 0.0
N2320 N 0.73668 0.51507 0.3851 0.0
C2321 C 0.7292 0.49269 0.3856 0.0
C2322 C 0.7469 0.47509 0.38657 0.0
C2323 C 0.53677 0.38581 0.24805 0.0
C2324 C 0.55941 0.37829 0.24264 0.0
C2325 C 0.51915 0.38587 0.2309 0.0
C2326 C 0.52349 0.37772 0.20808 0.0
H2327 H 0.53292 0.39248 0.26527 0.0
H2328 H 0.50231 0.39308 0.23533 0.0
S2329 S 0.57937 0.35303 0.18661 0.0
N2330 N 0.58474 0.36065 0.21376 0.0
N2331 N 0.55182 0.35968 0.18213 0.0
C2332 C 0.54575 0.36862 0.20321 0.0
C2333 C 0.56365 0.36921 0.22033 0.0
C2334 C 0.13552 0.77046 0.03708 0.0
C2335 C 0.1398 0.77559 0.06062 0.0
C2336 C 0.13716 0.78797 0.01989 0.0
C2337 C 0.14389 0.8109 0.02565 0.0
H2338 H 0.13 0.75316 0.03208 0.0
H2339 H 0.13234 0.78371 1.00216 0.0
S2340 S 0.16005 0.83187 0.0848 0.0
N2341 N 0.15283 0.80438 0.08862 0.0
N2342 N 0.157 0.83676 0.05666 0.0
C2343 C 0.14981 0.81554 0.04904 0.0
C2344 C 0.14745 0.79803 0.06643 0.0
C2345 C 0.38258 0.23067 0.5231 0.0
C2346 C 0.38549 0.20721 0.52939 0.0
C2347 C 0.38327 0.24839 0.5401 0.0
C2348 C 0.38796 0.24323 0.56367 0.0
H2349 H 0.37925 0.23527 0.5051 0.0
H2350 H 0.37995 0.26616 0.53481 0.0
S2351 S 0.39845 0.18442 0.58856 0.0
N2352 N 0.39402 0.17987 0.56057 0.0
N2353 N 0.3962 0.21277 0.59203 0.0
C2354 C 0.39176 0.21983 0.56983 0.0
C2355 C 0.39032 0.20194 0.55282 0.0
C2356 C 0.22743 0.52281 0.38033 0.0
C2357 C 0.2035 0.52751 0.37766 0.0
C2358 C 0.24388 0.541 0.38171 0.0
C2359 C 0.23676 0.56442 0.38153 0.0
H2360 H 0.23346 0.50501 0.38145 0.0
H2361 H 0.26217 0.53674 0.38331 0.0
S2362 S 0.17623 0.58611 0.37477 0.0
N2363 N 0.17376 0.55756 0.37447 0.0
N2364 N 0.2043 0.59127 0.37776 0.0
C2365 C 0.21292 0.56927 0.37883 0.0
C2366 C 0.19639 0.55094 0.37674 0.0
C2367 C 0.22951 0.49345 0.13399 0.0
C2368 C 0.20608 0.48817 0.12927 0.0
C2369 C 0.24657 0.4758 0.13397 0.0
C2370 C 0.24083 0.4526 0.12833 0.0
H2371 H 0.23449 0.51105 0.13845 0.0
H2372 H 0.26422 0.48025 0.13893 0.0
S2373 S 0.182 0.43078 0.11214 0.0
N2374 N 0.17823 0.45868 0.11742 0.0
N2375 N 0.20998 0.42601 0.11632 0.0
C2376 C 0.21757 0.44763 0.12226 0.0
C2377 C 0.20029 0.46529 0.12302 0.0
C2378 C 0.2851 0.49355 0.86524 0.0
C2379 C 0.29647 0.5012 0.88547 0.0
C2380 C 0.26737 0.47676 0.86644 0.0
C2381 C 0.26114 0.46637 0.88782 0.0
H2382 H 0.29099 0.49942 0.84829 0.0
H2383 H 0.26026 0.47018 0.85025 0.0
S2384 S 0.28468 0.48148 0.9459 0.0
N2385 N 0.29886 0.49866 0.92769 0.0
N2386 N 0.26651 0.46616 0.92972 0.0
C2387 C 0.27136 0.47493 0.90826 0.0
C2388 C 0.28881 0.49259 0.90714 0.0
C2389 C 0.28808 0.5196 0.63372 0.0
C2390 C 0.31119 0.5257 0.63948 0.0
C2391 C 0.27039 0.53656 0.63236 0.0
C2392 C 0.27553 0.5602 0.63582 0.0
H2393 H 0.28374 0.5017 0.62977 0.0
H2394 H 0.25285 0.53128 0.62786 0.0
S2395 S 0.33261 0.58541 0.65248 0.0
N2396 N 0.33756 0.55728 0.65 0.0
N2397 N 0.30473 0.58876 0.6466 0.0
C2398 C 0.29829 0.56641 0.64217 0.0
C2399 C 0.31602 0.54928 0.64421 0.0
C2400 C 0.06972 0.15164 0.42615 0.0
C2401 C 0.05231 0.13484 0.42293 0.0
C2402 C 0.0774 0.15741 0.44865 0.0
C2403 C 0.06751 0.14701 0.46861 0.0
H2404 H 0.07863 0.15904 0.41124 0.0
H2405 H 0.09202 0.16921 0.4504 0.0
S2406 S 0.01927 0.10426 0.4693 0.0
N2407 N 0.02395 0.1094 0.44136 0.0
N2408 N 0.03791 0.12082 0.48362 0.0
C2409 C 0.04876 0.13168 0.4656 0.0
C2410 C 0.04131 0.12541 0.44272 0.0
C2411 C 0.13163 0.79474 0.7159 0.0
C2412 C 0.1142 0.81139 0.71963 0.0
C2413 C 0.13759 0.78784 0.69322 0.0
C2414 C 0.12599 0.79696 0.67359 0.0
H2415 H 0.14197 0.78846 0.73037 0.0
H2416 H 0.15214 0.77607 0.69096 0.0
S2417 S 0.07705 0.83882 0.67449 0.0
N2418 N 0.08406 0.83537 0.70219 0.0
N2419 N 0.09477 0.82173 0.6596 0.0
C2420 C 0.10724 0.81211 0.67725 0.0
C2421 C 0.10149 0.81952 0.7003 0.0
C2422 C 0.46675 0.86025 0.96062 0.0
C2423 C 0.46715 0.87687 0.97858 0.0
C2424 C 0.47128 0.86658 0.93738 0.0
C2425 C 0.47576 0.88987 0.93136 0.0
H2426 H 0.46123 0.84262 0.96434 0.0
H2427 H 0.46965 0.85349 0.92392 0.0
S2428 S 0.48214 0.93916 0.9727 0.0
N2429 N 0.47501 0.91681 0.98933 0.0
N2430 N 0.48348 0.92894 0.94586 0.0
C2431 C 0.47807 0.90621 0.94953 0.0
C2432 C 0.47377 0.89964 0.97311 0.0
C2433 C 0.37483 0.22161 0.20244 0.0
C2434 C 0.38519 0.21259 0.18211 0.0
C2435 C 0.3825 0.2149 0.22465 0.0
C2436 C 0.40038 0.1985 0.22718 0.0
H2437 H 0.36009 0.23328 0.20116 0.0
H2438 H 0.3732 0.2212 0.23981 0.0
S2439 S 0.43443 0.17115 0.17962 0.0
N2440 N 0.41554 0.18802 0.16599 0.0
N2441 N 0.4294 0.17466 0.20774 0.0
C2442 C 0.41171 0.19032 0.20704 0.0
C2443 C 0.40426 0.19758 0.18446 0.0
C2444 C 0.06077 0.85723 0.0785 0.0
C2445 C 0.04473 0.87535 0.08167 0.0
C2446 C 0.0686 0.85132 0.05607 0.0
C2447 C 0.06014 0.86285 0.0361 0.0
H2448 H 0.06873 0.84894 0.09346 0.0
H2449 H 0.08254 0.83873 0.05444 0.0
S2450 S 0.01554 0.9092 0.03502 0.0
N2451 N 0.01892 0.90316 0.06296 0.0
N2452 N 0.03324 0.89152 0.02086 0.0
C2453 C 0.04258 0.87947 0.03895 0.0
C2454 C 0.03498 0.88586 0.06176 0.0
C2455 C 0.40255 0.82247 0.3314 0.0
C2456 C 0.38558 0.80531 0.33508 0.0
C2457 C 0.40789 0.83002 0.30875 0.0
C2458 C 0.39694 0.82016 0.28911 0.0
H2459 H 0.41055 0.83118 0.3461 0.0
H2460 H 0.41985 0.84446 0.30663 0.0
S2461 S 0.35337 0.77271 0.28957 0.0
N2462 N 0.35924 0.77733 0.31737 0.0
N2463 N 0.36988 0.79108 0.2748 0.0
C2464 C 0.38131 0.80177 0.29254 0.0
C2465 C 0.37545 0.79448 0.31557 0.0
C2466 C 0.45469 0.15587 0.56058 0.0
C2467 C 0.46104 0.14341 0.54044 0.0
C2468 C 0.46202 0.14873 0.58281 0.0
C2469 C 0.47545 0.12853 0.58557 0.0
H2470 H 0.44294 0.17051 0.55922 0.0
H2471 H 0.45576 0.15809 0.59794 0.0
S2472 S 0.49876 0.09135 0.53814 0.0
N2473 N 0.48333 0.11138 0.52448 0.0
N2474 N 0.49681 0.09757 0.56617 0.0
C2475 C 0.48318 0.11685 0.56542 0.0
C2476 C 0.47607 0.12442 0.54283 0.0
C2477 C 0.14925 0.21294 0.78741 0.0
C2478 C 0.12705 0.20418 0.78236 0.0
C2479 C 0.15525 0.21948 0.81013 0.0
C2480 C 0.13927 0.21745 0.82869 0.0
H2481 H 0.16261 0.21314 0.77406 0.0
H2482 H 0.17292 0.22527 0.81333 0.0
S2483 S 0.07822 0.19694 0.82395 0.0
N2484 N 0.0886 0.1948 0.79718 0.0
N2485 N 0.09962 0.2076 0.83995 0.0
C2486 C 0.11648 0.21012 0.82352 0.0
C2487 C 0.11046 0.20327 0.80034 0.0
C2488 C 0.47275 0.04866 0.13136 0.0
C2489 C 0.47517 0.06419 0.15004 0.0
C2490 C 0.45061 0.0415 0.12391 0.0
C2491 C 0.43024 0.04917 0.13524 0.0
H2492 H 0.48785 0.04351 0.12129 0.0
H2493 H 0.44936 0.03063 0.10855 0.0
S2494 S 0.42761 0.08776 0.1868 0.0
N2495 N 0.45567 0.08564 0.18084 0.0
N2496 N 0.4141 0.0714 0.16736 0.0
C2497 C 0.43258 0.06318 0.15509 0.0
C2498 C 0.45507 0.07091 0.16234 0.0
C2499 C 0.20217 0.17986 0.40143 0.0
C2500 C 0.21917 0.17708 0.38408 0.0
C2501 C 0.19391 0.20209 0.40733 0.0
C2502 C 0.20285 0.22226 0.39654 0.0
H2503 H 0.1941 0.16476 0.40934 0.0
H2504 H 0.17972 0.20346 0.4197 0.0
S2505 S 0.24964 0.2243 0.35218 0.0
N2506 N 0.24606 0.19631 0.3576 0.0
N2507 N 0.23103 0.23805 0.36926 0.0
C2508 C 0.22111 0.21976 0.38052 0.0
C2509 C 0.22912 0.19715 0.37412 0.0
C2510 C 0.0629 0.94197 0.65504 0.0
C2511 C 0.04243 0.94908 0.64355 0.0
C2512 C 0.08486 0.95025 0.64811 0.0
C2513 C 0.08705 0.96534 0.62899 0.0
H2514 H 0.06201 0.92897 0.6687 0.0
H2515 H 0.10025 0.94351 0.65666 0.0
S2516 S 0.03872 0.99082 0.59456 0.0
N2517 N 0.02562 0.9737 0.61363 0.0
N2518 N 0.06688 0.98872 0.60006 0.0
C2519 C 0.06663 0.97362 0.61828 0.0
C2520 C 0.04428 0.96564 0.62572 0.0
C2521 C 0.30484 0.80367 0.91023 0.0
C2522 C 0.30032 0.78419 0.89605 0.0
C2523 C 0.29851 0.82618 0.90316 0.0
C2524 C 0.28814 0.82994 0.88133 0.0
H2525 H 0.31489 0.80167 0.92608 0.0
H2526 H 0.30344 0.84081 0.91397 0.0
S2527 S 0.27027 0.78453 0.83904 0.0
N2528 N 0.28272 0.76991 0.86045 0.0
N2529 N 0.27128 0.81217 0.84678 0.0
C2530 C 0.28203 0.81045 0.86781 0.0
C2531 C 0.28798 0.78754 0.87529 0.0
C2532 C 0.46099 0.96014 0.35702 0.0
C2533 C 0.47992 0.96483 0.3719 0.0
C2534 C 0.43802 0.96555 0.36357 0.0
C2535 C 0.43327 0.97525 0.38552 0.0
H2536 H 0.46388 0.95101 0.34077 0.0
H2537 H 0.42387 0.96067 0.3521 0.0
S2538 S 0.47703 0.99308 0.4297 0.0
N2539 N 0.49263 0.9816 0.40845 0.0
N2540 N 0.44964 0.99156 0.42107 0.0
C2541 C 0.45224 0.98138 0.39986 0.0
C2542 C 0.47556 0.97624 0.39297 0.0
C2543 C 0.29782 0.19845 0.65011 0.0
C2544 C 0.30348 0.18028 0.63463 0.0
C2545 C 0.30283 0.2217 0.6447 0.0
C2546 C 0.31384 0.22759 0.62371 0.0
H2547 H 0.29006 0.19461 0.66689 0.0
H2548 H 0.29944 0.23496 0.65766 0.0
S2549 S 0.3315 0.18697 0.57683 0.0
N2550 N 0.31959 0.17004 0.59684 0.0
N2551 N 0.32973 0.21376 0.58705 0.0
C2552 C 0.31881 0.20979 0.60769 0.0
C2553 C 0.31337 0.18612 0.61301 0.0
C2554 C 0.06143 0.05018 0.90014 0.0
C2555 C 0.07978 0.05204 0.88389 0.0
C2556 C 0.03854 0.05591 0.89412 0.0
C2557 C 0.03305 0.06356 0.87161 0.0
H2558 H 0.06485 0.04499 0.91796 0.0
H2559 H 0.0253 0.05577 0.90759 0.0
S2560 S 0.074 0.07023 0.82216 0.0
N2561 N 0.09046 0.06082 0.84381 0.0
N2562 N 0.04728 0.07201 0.8327 0.0
C2563 C 0.05085 0.06445 0.85484 0.0
C2564 C 0.07426 0.0585 0.86091 0.0
C2565 C 0.214 0.82411 0.11776 0.0
C2566 C 0.21721 0.83098 0.1411 0.0
C2567 C 0.20824 0.80101 0.11214 0.0
C2568 C 0.20593 0.78403 0.12961 0.0
H2569 H 0.21469 0.83687 0.10388 0.0
H2570 H 0.20411 0.79675 0.09423 0.0
S2571 S 0.2158 0.79192 0.19278 0.0
N2572 N 0.22023 0.81795 0.18146 0.0
N2573 N 0.2092 0.77486 0.17063 0.0
C2574 C 0.21069 0.79022 0.15268 0.0
C2575 C 0.21642 0.81362 0.15849 0.0
C2576 C 0.14803 0.43515 0.05424 0.0
C2577 C 0.12535 0.43045 0.04632 0.0
C2578 C 0.15491 0.45796 0.0597 0.0
C2579 C 0.13957 0.47679 0.05681 0.0
H2580 H 0.16005 0.42103 0.05758 0.0
H2581 H 0.1719 0.46077 0.06738 0.0
S2582 S 0.07957 0.47423 0.03357 0.0
N2583 N 0.08842 0.44692 0.03359 0.0
N2584 N 0.10163 0.48964 0.04369 0.0
C2585 C 0.11756 0.47256 0.04727 0.0
C2586 C 0.11038 0.44939 0.04206 0.0
C2587 C 0.64878 0.06418 0.94356 0.0
C2588 C 0.63711 0.0436 0.95001 0.0
C2589 C 0.64124 0.08599 0.9515 0.0
C2590 C 0.62131 0.08797 0.96555 0.0
H2591 H 0.66323 0.06348 0.93143 0.0
H2592 H 0.6502 0.10143 0.94544 0.0
S2593 S 0.58576 0.03925 0.98881 0.0
N2594 N 0.60586 0.02645 0.97272 0.0
N2595 N 0.59118 0.06742 0.98716 0.0
C2596 C 0.61019 0.06744 0.97305 0.0
C2597 C 0.61824 0.04523 0.96542 0.0
C2598 C 0.19657 0.37178 0.2316 0.0
C2599 C 0.17716 0.38343 0.22211 0.0
C2600 C 0.21941 0.37785 0.22528 0.0
C2601 C 0.22353 0.39546 0.20887 0.0
H2602 H 0.19402 0.35714 0.24322 0.0
H2603 H 0.23373 0.36749 0.23183 0.0
S2604 S 0.17901 0.43247 0.18032 0.0
N2605 N 0.16376 0.41468 0.19705 0.0
N2606 N 0.20662 0.42556 0.18446 0.0
C2607 C 0.20439 0.40811 0.20028 0.0
C2608 C 0.18118 0.40226 0.20711 0.0
C2609 C 0.90455 0.94685 0.47254 0.0
C2610 C 0.89135 0.92738 0.46553 0.0
C2611 C 0.89795 0.96952 0.46636 0.0
C2612 C 0.87813 0.9734 0.45265 0.0
H2613 H 0.92061 0.94447 0.48214 0.0
H2614 H 0.90933 0.98386 0.47084 0.0
S2615 S 0.83684 0.92876 0.43108 0.0
N2616 N 0.85661 0.91377 0.44562 0.0
N2617 N 0.84467 0.95632 0.43327 0.0
C2618 C 0.86417 0.95426 0.44652 0.0
C2619 C 0.87062 0.93124 0.4532 0.0
C2620 C 0.81791 0.14624 0.22675 0.0
C2621 C 0.83591 0.13 0.22293 0.0
C2622 C 0.79474 0.14115 0.22109 0.0
C2623 C 0.78866 0.11964 0.21139 0.0
H2624 H 0.82188 0.1635 0.23317 0.0
H2625 H 0.78182 0.15479 0.22261 0.0
S2626 S 0.82841 0.0702 0.20011 0.0
N2627 N 0.84553 0.09066 0.21087 0.0
N2628 N 0.8019 0.08135 0.19965 0.0
C2629 C 0.8061 0.10269 0.20888 0.0
C2630 C 0.82975 0.10776 0.21488 0.0
C2631 C 0.39669 0.56615 0.54055 0.0
C2632 C 0.38354 0.58542 0.54811 0.0
C2633 C 0.39064 0.5434 0.547 0.0
C2634 C 0.37147 0.53924 0.56155 0.0
H2635 H 0.41233 0.56876 0.53031 0.0
H2636 H 0.40204 0.52922 0.54207 0.0
S2637 S 0.33041 0.58328 0.58467 0.0
N2638 N 0.34941 0.59855 0.56935 0.0
N2639 N 0.33853 0.55583 0.58223 0.0
C2640 C 0.35748 0.55817 0.56821 0.0
C2641 C 0.36335 0.58128 0.56125 0.0
C2642 C 0.22087 0.64306 0.3002 0.0
C2643 C 0.22789 0.62107 0.30794 0.0
C2644 C 0.19774 0.64734 0.29399 0.0
C2645 C 0.18057 0.62985 0.29552 0.0
H2646 H 0.23303 0.65748 0.30043 0.0
H2647 H 0.19312 0.66489 0.28892 0.0
S2648 S 0.19072 0.56863 0.31307 0.0
N2649 N 0.21654 0.58112 0.31552 0.0
N2650 N 0.17282 0.58904 0.30359 0.0
C2651 C 0.18771 0.6073 0.30178 0.0
C2652 C 0.21143 0.60297 0.30815 0.0
C2653 C 0.29493 0.38768 0.79947 0.0
C2654 C 0.29158 0.40439 0.81692 0.0
C2655 C 0.31746 0.38166 0.79218 0.0
C2656 C 0.33732 0.39249 0.80173 0.0
H2657 H 0.28028 0.37778 0.7929 0.0
H2658 H 0.31943 0.36753 0.77985 0.0
S2659 S 0.33744 0.43954 0.84571 0.0
N2660 N 0.30962 0.43317 0.84209 0.0
N2661 N 0.35194 0.42237 0.82776 0.0
C2662 C 0.33405 0.41066 0.81765 0.0
C2663 C 0.31114 0.41646 0.82543 0.0
C2664 C 0.97571 0.88482 0.5409 0.0
C2665 C 0.96234 0.86496 0.53623 0.0
C2666 C 0.98138 0.89089 0.56388 0.0
C2667 C 0.97415 0.87715 0.58294 0.0
H2668 H 0.9801 0.89675 0.52695 0.0
H2669 H 0.99056 0.90709 0.56684 0.0
S2670 S 0.94079 0.82214 0.57952 0.0
N2671 N 0.94333 0.83072 0.55215 0.0
N2672 N 0.95472 0.84172 0.59532 0.0
C2673 C 0.96239 0.85628 0.57831 0.0
C2674 C 0.95626 0.85032 0.55494 0.0
C2675 C 0.90547 0.19809 0.33409 0.0
C2676 C 0.88706 0.21393 0.33651 0.0
C2677 C 0.91204 0.18995 0.31196 0.0
C2678 C 0.90086 0.1979 0.2916 0.0
H2679 H 0.91358 0.1906 0.34939 0.0
H2680 H 0.92502 0.17633 0.31086 0.0
S2681 S 0.85385 0.24178 0.28863 0.0
N2682 N 0.85925 0.23893 0.31676 0.0
N2683 N 0.87215 0.22414 0.27521 0.0
C2684 C 0.88389 0.21525 0.29374 0.0
C2685 C 0.87681 0.22312 0.31623 0.0
C2686 C 0.53329 0.12546 0.07091 0.0
C2687 C 0.54394 0.1367 0.08997 0.0
C2688 C 0.53854 0.13175 0.04786 0.0
C2689 C 0.555 0.14915 0.04318 0.0
H2690 H 0.52164 0.11092 0.07386 0.0
H2691 H 0.53118 0.12165 0.03374 0.0
S2692 S 0.58632 0.18512 0.08673 0.0
N2693 N 0.5701 0.16736 0.10256 0.0
N2694 N 0.58065 0.17871 0.05925 0.0
C2695 C 0.56469 0.16146 0.06205 0.0
C2696 C 0.55897 0.15538 0.08548 0.0
C2697 C 0.61292 0.80766 0.82598 0.0
C2698 C 0.63437 0.79711 0.83105 0.0
C2699 C 0.607 0.81341 0.80294 0.0
C2700 C 0.622 0.80815 0.78425 0.0
H2701 H 0.60141 0.81296 0.83997 0.0
H2702 H 0.59123 0.82325 0.79984 0.0
S2703 S 0.67857 0.7777 0.78803 0.0
N2704 N 0.66955 0.77951 0.8153 0.0
N2705 N 0.65807 0.79002 0.77207 0.0
C2706 C 0.64253 0.79594 0.78892 0.0
C2707 C 0.64881 0.79049 0.81234 0.0
C2708 C 0.93685 0.15786 0.95359 0.0
C2709 C 0.94556 0.14588 0.97317 0.0
C2710 C 0.94435 0.15239 0.93095 0.0
C2711 C 0.96024 0.13426 0.92717 0.0
H2712 H 0.92338 0.17087 0.95574 0.0
H2713 H 0.93657 0.16136 0.91628 0.0
S2714 S 0.98943 0.09877 0.97255 0.0
N2715 N 0.97218 0.11637 0.98736 0.0
N2716 N 0.98572 0.10549 0.94481 0.0
C2717 C 0.96987 0.12292 0.94665 0.0
C2718 C 0.96269 0.12891 0.96969 0.0
C2719 C 0.63095 0.2124 0.72418 0.0
C2720 C 0.61237 0.19683 0.727 0.0
C2721 C 0.63838 0.21906 0.70186 0.0
C2722 C 0.62717 0.21075 0.68167 0.0
H2723 H 0.64096 0.21798 0.73917 0.0
H2724 H 0.65368 0.23001 0.70034 0.0
S2725 S 0.57607 0.17148 0.68002 0.0
N2726 N 0.58191 0.17445 0.70805 0.0
N2727 N 0.59534 0.18772 0.66608 0.0
C2728 C 0.60745 0.19661 0.68435 0.0
C2729 C 0.6002 0.18942 0.70707 0.0
C2730 C 0.56621 0.87072 0.42869 0.0
C2731 C 0.55168 0.89025 0.42686 0.0
C2732 C 0.57337 0.86254 0.4506 0.0
C2733 C 0.56566 0.87316 0.47134 0.0
H2734 H 0.57327 0.86269 0.41316 0.0
H2735 H 0.58588 0.84846 0.45132 0.0
S2736 S 0.52517 0.92302 0.4758 0.0
N2737 N 0.52829 0.91881 0.4475 0.0
N2738 N 0.54122 0.90291 0.48862 0.0
C2739 C 0.54974 0.89154 0.46971 0.0
C2740 C 0.54291 0.90025 0.44745 0.0
C2741 C 0.88648 0.79915 0.21755 0.0
C2742 C 0.90236 0.81748 0.22022 0.0
C2743 C 0.88043 0.79111 0.19528 0.0
C2744 C 0.89048 0.80074 0.17503 0.0
H2745 H 0.87729 0.7923 0.23256 0.0
H2746 H 0.86697 0.77798 0.19383 0.0
S2747 S 0.93513 0.8472 0.17308 0.0
N2748 N 0.9294 0.84385 0.2011 0.0
N2749 N 0.91868 0.82804 0.15929 0.0
C2750 C 0.9078 0.81773 0.17762 0.0
C2751 C 0.91356 0.8263 0.20025 0.0
C2752 C 0.57826 0.96082 0.85592 0.0
C2753 C 0.5814 0.97509 0.87548 0.0
C2754 C 0.55587 0.95332 0.84949 0.0
C2755 C 0.53595 0.96034 0.86203 0.0
H2756 H 0.59321 0.95384 0.84679 0.0
H2757 H 0.55428 0.94056 0.8357 0.0
S2758 S 0.53483 1.00052 0.91233 0.0
N2759 N 0.56272 0.99807 0.90571 0.0
N2760 N 0.52071 0.98434 0.89321 0.0
C2761 C 0.53875 0.97641 0.88013 0.0
C2762 C 0.56152 0.98366 0.88699 0.0
C2763 C 0.81791 0.80624 0.60531 0.0
C2764 C 0.80954 0.78701 0.61808 0.0
C2765 C 0.81102 0.82902 0.61077 0.0
C2766 C 0.79606 0.83326 0.62962 0.0
H2767 H 0.83107 0.80375 0.592 0.0
H2768 H 0.81889 0.8434 0.60144 0.0
S2769 S 0.76741 0.78884 0.66683 0.0
N2770 N 0.78378 0.77359 0.64877 0.0
N2771 N 0.77122 0.81637 0.65952 0.0
C2772 C 0.78634 0.81409 0.64144 0.0
C2773 C 0.79296 0.79093 0.63553 0.0
C2774 C 0.95509 0.04115 0.39225 0.0
C2775 C 0.93482 0.04826 0.38039 0.0
C2776 C 0.97726 0.04825 0.38483 0.0
C2777 C 0.97979 0.06309 0.36561 0.0
H2778 H 0.95375 0.03068 0.4079 0.0
H2779 H 0.99228 0.04354 0.39522 0.0
S2780 S 0.93262 0.0852 0.32753 0.0
N2781 N 0.91896 0.06936 0.34734 0.0
N2782 N 0.96061 0.08349 0.33392 0.0
C2783 C 0.95984 0.06935 0.3529 0.0
C2784 C 0.93732 0.0617 0.36013 0.0
C2785 C 0.70851 0.21228 0.11241 0.0
C2786 C 0.70917 0.23083 0.12833 0.0
C2787 C 0.71439 0.18958 0.11929 0.0
C2788 C 0.72055 0.18466 0.1425 0.0
H2789 H 0.70193 0.21509 0.09495 0.0
H2790 H 0.71266 0.17563 0.10673 0.0
S2791 S 0.72738 0.22793 0.19007 0.0
N2792 N 0.71846 0.24335 0.1675 0.0
N2793 N 0.72946 0.20087 0.1807 0.0
C2794 C 0.7228 0.20345 0.15812 0.0
C2795 C 0.71713 0.22651 0.15096 0.0
C2796 C 0.58857 0.05815 0.65211 0.0
C2797 C 0.59142 0.04156 0.63443 0.0
C2798 C 0.56627 0.06611 0.65822 0.0
C2799 C 0.54613 0.05731 0.64727 0.0
H2800 H 0.60365 0.06626 0.66001 0.0
H2801 H 0.56483 0.08015 0.67073 0.0
S2802 S 0.54432 0.01133 0.60219 0.0
N2803 N 0.57233 0.015 0.60761 0.0
N2804 N 0.53046 0.0295 0.61962 0.0
C2805 C 0.54871 0.0393 0.63104 0.0
C2806 C 0.57139 0.03158 0.62444 0.0
C2807 C 0.68353 0.80195 0.36883 0.0
C2808 C 0.69159 0.78953 0.38832 0.0
C2809 C 0.69219 0.82396 0.36335 0.0
C2810 C 0.70915 0.8348 0.37729 0.0
H2811 H 0.6702 0.79462 0.35766 0.0
H2812 H 0.68523 0.83265 0.34812 0.0
S2813 S 0.73613 0.8096 0.43041 0.0
N2814 N 0.71764 0.7894 0.4216 0.0
N2815 N 0.73395 0.8312 0.41152 0.0
C2816 C 0.71752 0.82256 0.39688 0.0
C2817 C 0.70882 0.79979 0.40229 0.0
C2818 C 0.96938 0.96222 0.12285 0.0
C2819 C 0.9725 0.9463 0.14109 0.0
C2820 C 0.94698 0.96951 0.11645 0.0
C2821 C 0.92708 0.96151 0.12841 0.0
H2822 H 0.98411 0.96774 0.11241 0.0
H2823 H 0.94516 0.9809 0.10151 0.0
S2824 S 0.92646 0.92145 0.17901 0.0
N2825 N 0.95427 0.92388 0.17202 0.0
N2826 N 0.91221 0.93827 0.16053 0.0
C2827 C 0.93017 0.94689 0.14775 0.0
C2828 C 0.95291 0.93908 0.15393 0.0
C2829 C 0.80058 0.21914 0.88501 0.0
C2830 C 0.8185 0.22162 0.9014 0.0
C2831 C 0.79254 0.19701 0.8786 0.0
C2832 C 0.80176 0.17665 0.88873 0.0
H2833 H 0.79389 0.23423 0.87591 0.0
H2834 H 0.77955 0.19579 0.86497 0.0
S2835 S 0.8469 0.1742 0.93475 0.0
N2836 N 0.84394 0.20221 0.92908 0.0
N2837 N 0.8282 0.16064 0.91759 0.0
C2838 C 0.8184 0.17904 0.90645 0.0
C2839 C 0.82696 0.20155 0.91261 0.0
C2840 C 0.86127 0.57831 0.96139 0.0
C2841 C 0.88158 0.58248 0.97435 0.0
C2842 C 0.85552 0.55569 0.95414 0.0
C2843 C 0.86952 0.53649 0.96013 0.0
H2844 H 0.85074 0.59273 0.95538 0.0
H2845 H 0.84075 0.55332 0.94265 0.0
S2846 S 0.92251 0.53776 0.99669 0.0
N2847 N 0.91431 0.56523 0.995 0.0
N2848 N 0.90312 0.5228 0.98161 0.0
C2849 C 0.88867 0.54018 0.97472 0.0
C2850 C 0.8948 0.56319 0.98176 0.0
C2851 C 0.40477 0.95284 0.04062 0.0
C2852 C 0.39095 0.93311 0.04536 0.0
C2853 C 0.39736 0.97523 0.04678 0.0
C2854 C 0.37601 0.97857 0.05812 0.0
H2855 H 0.42191 0.95087 0.03297 0.0
H2856 H 0.4092 0.98972 0.04434 0.0
S2857 S 0.33245 0.93322 0.07256 0.0
N2858 N 0.35398 0.91876 0.06014 0.0
N2859 N 0.34039 0.96083 0.07242 0.0
C2860 C 0.36142 0.95926 0.06168 0.0
C2861 C 0.36878 0.9365 0.05506 0.0
C2862 C 0.78976 0.64136 0.7976 0.0
C2863 C 0.78494 0.62128 0.8106 0.0
C2864 C 0.81274 0.64724 0.79177 0.0
C2865 C 0.83162 0.6331 0.79849 0.0
H2866 H 0.77595 0.65355 0.79361 0.0
H2867 H 0.81586 0.66355 0.78282 0.0
S2868 S 0.82775 0.57757 0.83097 0.0
N2869 N 0.8005 0.58654 0.8289 0.0
N2870 N 0.84368 0.59718 0.81718 0.0
C2871 C 0.82682 0.61208 0.80995 0.0
C2872 C 0.80345 0.60631 0.81625 0.0
C2873 C 0.12236 0.06399 0.53415 0.0
C2874 C 0.13517 0.08349 0.54178 0.0
C2875 C 0.12845 0.04135 0.54097 0.0
C2876 C 0.14732 0.03754 0.55597 0.0
H2877 H 0.10686 0.06633 0.52365 0.0
H2878 H 0.11725 0.02702 0.536 0.0
S2879 S 0.18765 0.08224 0.57921 0.0
N2880 N 0.1688 0.09717 0.56343 0.0
N2881 N 0.17979 0.05469 0.57692 0.0
C2882 C 0.16107 0.05668 0.56259 0.0
C2883 C 0.15515 0.07967 0.55528 0.0
C2884 C 0.20524 0.90577 0.8118 0.0
C2885 C 0.22499 0.89259 0.80561 0.0
C2886 C 0.18285 0.89942 0.80432 0.0
C2887 C 0.17943 0.87927 0.79096 0.0
H2888 H 0.20697 0.92023 0.82378 0.0
H2889 H 0.16804 0.90929 0.81052 0.0
S2890 S 0.22563 0.8404 0.76798 0.0
N2891 N 0.2399 0.85998 0.78344 0.0
N2892 N 0.19784 0.84761 0.76974 0.0
C2893 C 0.1992 0.86691 0.78332 0.0
C2894 C 0.22201 0.8737 0.79054 0.0
C2895 C 0.62472 0.47237 0.47546 0.0
C2896 C 0.64526 0.47631 0.46284 0.0
C2897 C 0.61799 0.44973 0.48167 0.0
C2898 C 0.63171 0.43029 0.47571 0.0
H2899 H 0.61284 0.48661 0.47886 0.0
H2900 H 0.60139 0.44733 0.49033 0.0
S2901 S 0.68815 0.43184 0.44443 0.0
N2902 N 0.67995 0.45933 0.44573 0.0
N2903 N 0.66773 0.41683 0.4581 0.0
C2904 C 0.65315 0.43424 0.46462 0.0
C2905 C 0.65978 0.45726 0.45796 0.0
C2906 C 0.79417 0.36878 0.72447 0.0
C2907 C 0.78846 0.39003 0.71399 0.0
C2908 C 0.81728 0.36352 0.73026 0.0
C2909 C 0.83555 0.37933 0.7258 0.0
H2910 H 0.78099 0.35546 0.72661 0.0
H2911 H 0.82097 0.34646 0.73737 0.0
S2912 S 0.82911 0.43828 0.70048 0.0
N2913 N 0.80239 0.42758 0.70059 0.0
N2914 N 0.84587 0.41798 0.71205 0.0
C2915 C 0.82978 0.40132 0.71682 0.0
C2916 C 0.80622 0.40655 0.71068 0.0
C2917 C 0.71627 0.61378 0.21193 0.0
C2918 C 0.73081 0.63089 0.20227 0.0
C2919 C 0.69305 0.61893 0.21789 0.0
C2920 C 0.68371 0.64136 0.2144 0.0
H2921 H 0.72236 0.59602 0.21344 0.0
H2922 H 0.68217 0.60502 0.22452 0.0
S2923 S 0.71632 0.69282 0.19234 0.0
N2924 N 0.73531 0.67134 0.19141 0.0
N2925 N 0.69213 0.68134 0.20279 0.0
C2926 C 0.6988 0.6589 0.20611 0.0
C2927 C 0.72223 0.65357 0.20001 0.0
C2928 C 0.54764 0.6451 0.93659 0.0
C2929 C 0.53866 0.62272 0.93265 0.0
C2930 C 0.55305 0.65255 0.95923 0.0
C2931 C 0.54894 0.63819 0.97868 0.0
H2932 H 0.55206 0.65627 0.92203 0.0
H2933 H 0.56193 0.66905 0.96141 0.0
S2934 S 0.52269 0.57943 0.97796 0.0
N2935 N 0.52372 0.58719 0.95026 0.0
N2936 N 0.53349 0.60156 0.99278 0.0
C2937 C 0.53816 0.61664 0.97514 0.0
C2938 C 0.53313 0.6088 0.9521 0.0
C2939 C 0.61205 0.29803 0.19422 0.0
C2940 C 0.635 0.29152 0.18878 0.0
C2941 C 0.6057 0.30331 0.21728 0.0
C2942 C 0.62188 0.30162 0.23561 0.0
H2943 H 0.59946 0.30071 0.18044 0.0
H2944 H 0.58853 0.31037 0.22057 0.0
S2945 S 0.68283 0.28137 0.23112 0.0
N2946 N 0.67302 0.28065 0.20409 0.0
N2947 N 0.66083 0.29047 0.24725 0.0
C2948 C 0.64411 0.29298 0.23069 0.0
C2949 C 0.65074 0.28796 0.20729 0.0
C2950 C 0.97815 0.38791 0.45319 0.0
C2951 C 0.96974 0.37546 0.43376 0.0
C2952 C 0.97144 0.38205 0.47599 0.0
C2953 C 0.95575 0.3638 0.48005 0.0
H2954 H 0.98911 0.40305 0.45066 0.0
H2955 H 0.97697 0.39308 0.49024 0.0
S2956 S 0.93027 0.32455 0.43557 0.0
N2957 N 0.9466 0.34276 0.42038 0.0
N2958 N 0.93331 0.33221 0.46314 0.0
C2959 C 0.94839 0.35031 0.46095 0.0
C2960 C 0.95559 0.35599 0.43779 0.0
C2961 C 0.90656 0.7039 0.71258 0.0
C2962 C 0.89099 0.70668 0.73132 0.0
C2963 C 0.90023 0.71021 0.68977 0.0
C2964 C 0.87787 0.71891 0.68495 0.0
H2965 H 0.92317 0.69546 0.71538 0.0
H2966 H 0.91231 0.70678 0.67569 0.0
S2967 S 0.83186 0.73194 0.72854 0.0
N2968 N 0.85332 0.7207 0.74401 0.0
N2969 N 0.84116 0.73242 0.70131 0.0
C2970 C 0.8628 0.72322 0.70387 0.0
C2971 C 0.86943 0.71713 0.72704 0.0
C2972 C 0.56302 0.36062 0.58879 0.0
C2973 C 0.54657 0.37828 0.59223 0.0
C2974 C 0.57055 0.35489 0.56623 0.0
C2975 C 0.56145 0.36623 0.54642 0.0
H2976 H 0.57144 0.35252 0.6036 0.0
H2977 H 0.58459 0.34246 0.56433 0.0
S2978 S 0.51563 0.41144 0.54625 0.0
N2979 N 0.51976 0.4055 0.57411 0.0
N2980 N 0.53346 0.3942 0.53172 0.0
C2981 C 0.54351 0.38241 0.5496 0.0
C2982 C 0.53621 0.3886 0.57255 0.0
C2983 C 0.91118 0.32268 0.81723 0.0
C2984 C 0.90115 0.31314 0.79693 0.0
C2985 C 0.90532 0.31431 0.83948 0.0
C2986 C 0.88878 0.29653 0.84213 0.0
H2987 H 0.92268 0.33757 0.81594 0.0
H2988 H 0.9124 0.32297 0.85466 0.0
S2989 S 0.85931 0.2642 0.79464 0.0
N2990 N 0.87567 0.2835 0.78095 0.0
N2991 N 0.86407 0.26822 0.82274 0.0
C2992 C 0.87978 0.28589 0.82197 0.0
C2993 C 0.88615 0.29405 0.79934 0.0
C2994 C 0.96724 0.63186 0.04753 0.0
C2995 C 0.94936 0.64823 0.04489 0.0
C2996 C 0.97507 0.62548 0.06978 0.0
C2997 C 0.96566 0.63565 0.09005 0.0
H2998 H 0.97382 0.62253 0.03251 0.0
H2999 H 0.98777 0.61164 0.07119 0.0
S3000 S 0.92074 0.68174 0.09208 0.0
N3001 N 0.92395 0.67607 0.06405 0.0
N3002 N 0.93929 0.6646 0.10585 0.0
C3003 C 0.94927 0.65351 0.0875 0.0
C3004 C 0.94093 0.65965 0.06488 0.0
C3005 C 0.63644 0.71355 0.29414 0.0
C3006 C 0.61589 0.70155 0.28889 0.0
C3007 C 0.64194 0.71939 0.31716 0.0
C3008 C 0.62708 0.71343 0.33582 0.0
H3009 H 0.6492 0.71688 0.28062 0.0
H3010 H 0.65851 0.72779 0.32044 0.0
S3011 S 0.56997 0.68386 0.33069 0.0
N3012 N 0.57983 0.68515 0.30366 0.0
N3013 N 0.58985 0.69668 0.34707 0.0
C3014 C 0.60563 0.70292 0.33056 0.0
C3015 C 0.60016 0.69675 0.30705 0.0
C3016 C 0.94938 0.53757 0.62051 0.0
C3017 C 0.9299 0.54605 0.63278 0.0
C3018 C 0.97211 0.54346 0.62722 0.0
C3019 C 0.97598 0.55837 0.64612 0.0
H3020 H 0.94701 0.52702 0.60506 0.0
H3021 H 0.98656 0.53781 0.61648 0.0
S3022 S 0.93116 0.58382 0.68498 0.0
N3023 N 0.91611 0.5685 0.66584 0.0
N3024 N 0.95884 0.58036 0.67792 0.0
C3025 C 0.95676 0.56595 0.65927 0.0
C3026 C 0.93367 0.55955 0.65276 0.0
C3027 C 0.69978 0.71228 0.90862 0.0
C3028 C 0.70472 0.73138 0.89406 0.0
C3029 C 0.70591 0.68953 0.90213 0.0
C3030 C 0.71643 0.68512 0.88047 0.0
H3031 H 0.68977 0.71479 0.92443 0.0
H3032 H 0.7009 0.67523 0.91337 0.0
S3033 S 0.73476 0.72942 0.83705 0.0
N3034 N 0.72238 0.74464 0.85807 0.0
N3035 N 0.73349 0.70198 0.84547 0.0
C3036 C 0.72265 0.70425 0.86641 0.0
C3037 C 0.71689 0.72739 0.8733 0.0
C3038 C 0.57625 0.46157 0.15249 0.0
C3039 C 0.57993 0.47339 0.1314 0.0
C3040 C 0.55367 0.45523 0.15948 0.0
C3041 C 0.53404 0.46117 0.14601 0.0
H3042 H 0.59094 0.45568 0.16274 0.0
H3043 H 0.55165 0.44435 0.17478 0.0
S3044 S 0.53426 0.4949 0.09107 0.0
N3045 N 0.56203 0.49277 0.09827 0.0
N3046 N 0.51963 0.48136 0.11185 0.0
C3047 C 0.53738 0.4747 0.12598 0.0
C3048 C 0.56035 0.48067 0.11855 0.0
C3049 C 0.81028 0.32574 0.40064 0.0
C3050 C 0.79774 0.32957 0.38001 0.0
C3051 C 0.81728 0.30322 0.40695 0.0
C3052 C 0.81136 0.28379 0.39324 0.0
H3053 H 0.81608 0.34031 0.41108 0.0
H3054 H 0.82849 0.3011 0.42198 0.0
S3055 S 0.77605 0.28431 0.33935 0.0
N3056 N 0.77778 0.31192 0.34707 0.0
N3057 N 0.79054 0.26961 0.35937 0.0
C3058 C 0.79725 0.28721 0.37365 0.0
C3059 C 0.79055 0.31013 0.36691 0.0
C3060 C 0.94877 0.47276 0.89805 0.0
C3061 C 0.9288 0.4658 0.88558 0.0
C3062 C 0.97114 0.46573 0.89116 0.0
C3063 C 0.9742 0.45108 0.87188 0.0
H3064 H 0.947 0.48298 0.9138 0.0
H3065 H 0.98586 0.47027 0.90205 0.0
S3066 S 0.92799 0.42941 0.83236 0.0
N3067 N 0.91384 0.44509 0.85189 0.0
N3068 N 0.95579 0.43102 0.83954 0.0
C3069 C 0.95456 0.44502 0.85856 0.0
C3070 C 0.93185 0.45263 0.86523 0.0
C3071 C 0.79791 0.69666 0.14171 0.0
C3072 C 0.8071 0.67674 0.13078 0.0
C3073 C 0.80507 0.71907 0.13523 0.0
C3074 C 0.82209 0.72222 0.11799 0.0
H3075 H 0.78562 0.69486 0.15594 0.0
H3076 H 0.79846 0.73386 0.14486 0.0
S3077 S 0.8503 0.67602 0.08286 0.0
N3078 N 0.83266 0.66177 0.10062 0.0
N3079 N 0.84686 0.70388 0.08899 0.0
C3080 C 0.8306 0.70255 0.10616 0.0
C3081 C 0.82289 0.67977 0.11239 0.0
C3082 C 0.54214 0.54809 0.4006 0.0
C3083 C 0.5368 0.55453 0.37768 0.0
C3084 C 0.56505 0.54296 0.40711 0.0
C3085 C 0.58352 0.54413 0.39094 0.0
H3086 H 0.52878 0.54855 0.41394 0.0
H3087 H 0.56839 0.53885 0.42522 0.0
S3088 S 0.57801 0.55842 0.32815 0.0
N3089 N 0.55122 0.56071 0.33842 0.0
N3090 N 0.5944 0.55053 0.35045 0.0
C3091 C 0.57811 0.54918 0.36757 0.0
C3092 C 0.55472 0.55461 0.36102 0.0
C3093 C 0.70039 0.30131 0.61557 0.0
C3094 C 0.70394 0.28183 0.62998 0.0
C3095 C 0.7071 0.32367 0.6227 0.0
C3096 C 0.71696 0.32733 0.64479 0.0
H3097 H 0.69142 0.29938 0.59912 0.0
H3098 H 0.7033 0.33829 0.61142 0.0
S3099 S 0.73193 0.28164 0.68801 0.0
N3100 N 0.71968 0.26727 0.66633 0.0
N3101 N 0.73199 0.30927 0.6801 0.0
C3102 C 0.72175 0.30777 0.65881 0.0
C3103 C 0.71532 0.285 0.6513 0.0
C3104 C 0.65513 0.92692 0.56407 0.0
C3105 C 0.63854 0.92479 0.54627 0.0
C3106 C 0.66152 0.94892 0.57253 0.0
C3107 C 0.65192 0.96944 0.56311 0.0
H3108 H 0.66184 0.91154 0.57265 0.0
H3109 H 0.67313 0.94986 0.58738 0.0
S3110 S 0.61014 0.973 0.51413 0.0
N3111 N 0.61427 0.94485 0.51803 0.0
N3112 N 0.62682 0.98616 0.53351 0.0
C3113 C 0.63688 0.96752 0.54398 0.0
C3114 C 0.63001 0.94515 0.5357 0.0
C3115 C 0.15426 0.57924 0.45263 0.0
C3116 C 0.13695 0.58289 0.4695 0.0
C3117 C 0.15973 0.55664 0.44516 0.0
C3118 C 0.14856 0.53699 0.45477 0.0
H3119 H 0.16228 0.59392 0.4439 0.0
H3120 H 0.17183 0.55457 0.4308 0.0
S3121 S 0.10403 0.53731 0.50137 0.0
N3122 N 0.11005 0.56506 0.49695 0.0
N3123 N 0.12093 0.52263 0.48331 0.0
C3124 C 0.13264 0.54036 0.47293 0.0
C3125 C 0.12668 0.56334 0.48018 0.0
C3126 C 0.68391 0.89964 0.69858 0.0
C3127 C 0.68076 0.88011 0.71292 0.0
C3128 C 0.70632 0.90641 0.69144 0.0
C3129 C 0.72628 0.89433 0.69901 0.0
H3130 H 0.66897 0.90873 0.69156 0.0
H3131 H 0.70799 0.92044 0.67893 0.0
S3132 S 0.72737 0.84385 0.73904 0.0
N3133 N 0.69943 0.84999 0.73604 0.0
N3134 N 0.7415 0.86323 0.72315 0.0
C3135 C 0.72342 0.87597 0.71481 0.0
C3136 C 0.70063 0.8687 0.72161 0.0
C3137 C 0.35571 0.45318 0.94559 0.0
C3138 C 0.36743 0.47352 0.95269 0.0
C3139 C 0.36255 0.4312 0.95371 0.0
C3140 C 0.38176 0.42887 0.96863 0.0
H3141 H 0.34199 0.4542 0.93267 0.0
H3142 H 0.35387 0.4159 0.94694 0.0
S3143 S 0.41666 0.47683 0.99414 0.0
N3144 N 0.39758 0.49007 0.97718 0.0
N3145 N 0.41094 0.44876 0.99198 0.0
C3146 C 0.39264 0.44917 0.97698 0.0
C3147 C 0.38531 0.47153 0.96915 0.0
C3148 C 0.31448 0.65926 0.70915 0.0
C3149 C 0.33175 0.64256 0.71414 0.0
C3150 C 0.29182 0.65274 0.7033 0.0
C3151 C 0.28529 0.6293 0.70246 0.0
H3152 H 0.31859 0.67765 0.70903 0.0
H3153 H 0.27956 0.66615 0.69824 0.0
S3154 S 0.32278 0.57863 0.71559 0.0
N3155 N 0.34006 0.60134 0.71923 0.0
N3156 N 0.29713 0.58921 0.70801 0.0
C3157 C 0.3018 0.61236 0.70848 0.0
C3158 C 0.3251 0.61896 0.71443 0.0
C3159 C 0.86086 0.08064 0.06427 0.0
C3160 C 0.87766 0.08453 0.04694 0.0
C3161 C 0.85547 0.05793 0.07152 0.0
C3162 C 0.86625 0.03842 0.06127 0.0
H3163 H 0.85312 0.09518 0.07341 0.0
H3164 H 0.84365 0.05563 0.08606 0.0
S3165 S 0.9093 0.03946 0.01329 0.0
N3166 N 0.90362 0.06715 0.0184 0.0
N3167 N 0.8929 0.0245 0.03162 0.0
C3168 C 0.88166 0.04208 0.0427 0.0
C3169 C 0.88754 0.06517 0.03567 0.0
C3170 C 0.70384 0.14232 0.8373 0.0
C3171 C 0.71787 0.12544 0.8265 0.0
C3172 C 0.68127 0.14685 0.82959 0.0
C3173 C 0.67146 0.13446 0.81092 0.0
H3174 H 0.71041 0.1524 0.85183 0.0
H3175 H 0.67139 0.16026 0.83841 0.0
S3176 S 0.70058 0.08801 0.77688 0.0
N3177 N 0.72032 0.09603 0.79622 0.0
N3178 N 0.6774 0.10432 0.78182 0.0
C3179 C 0.68508 0.11724 0.80006 0.0
C3180 C 0.70843 0.11285 0.80775 0.0
C3181 C 0.81893 0.86468 0.29359 0.0
C3182 C 0.83665 0.88164 0.29492 0.0
C3183 C 0.79603 0.86955 0.30039 0.0
C3184 C 0.78978 0.89162 0.30857 0.0
H3185 H 0.82293 0.84711 0.28811 0.0
H3186 H 0.78343 0.8555 0.30061 0.0
S3187 S 0.82879 0.94265 0.31425 0.0
N3188 N 0.84582 0.92195 0.30385 0.0
N3189 N 0.80262 0.93095 0.31687 0.0
C3190 C 0.80686 0.90915 0.30885 0.0
C3191 C 0.83031 0.90423 0.30188 0.0
C3192 C 0.47221 0.3997 0.06758 0.0
C3193 C 0.46542 0.38685 0.08739 0.0
C3194 C 0.46653 0.39223 0.04502 0.0
C3195 C 0.45351 0.37188 0.04158 0.0
H3196 H 0.48123 0.41613 0.06958 0.0
H3197 H 0.47075 0.40336 0.03037 0.0
S3198 S 0.43296 0.33117 0.08731 0.0
N3199 N 0.44663 0.35186 0.10188 0.0
N3200 N 0.43515 0.33827 0.05949 0.0
C3201 C 0.44768 0.35826 0.0611 0.0
C3202 C 0.45389 0.3656 0.08403 0.0
C3203 C 0.40355 0.71678 0.80139 0.0
C3204 C 0.38718 0.71576 0.78322 0.0
C3205 C 0.39657 0.72135 0.82444 0.0
C3206 C 0.37292 0.72454 0.83001 0.0
H3207 H 0.42155 0.71229 0.79804 0.0
H3208 H 0.40953 0.72078 0.83813 0.0
S3209 S 0.32398 0.72727 0.78779 0.0
N3210 N 0.34699 0.72107 0.7717 0.0
N3211 N 0.33368 0.72974 0.81475 0.0
C3212 C 0.35675 0.72554 0.81156 0.0
C3213 C 0.36394 0.72114 0.78821 0.0
C3214 C 0.07419 0.6528 0.56176 0.0
C3215 C 0.06627 0.64148 0.54149 0.0
C3216 C 0.06631 0.64607 0.58393 0.0
C3217 C 0.05083 0.62734 0.58651 0.0
H3218 H 0.08739 0.66622 0.56052 0.0
H3219 H 0.07355 0.65454 0.59915 0.0
S3220 S 0.02346 0.59342 0.53886 0.0
N3221 N 0.04066 0.61208 0.52531 0.0
N3222 N 0.02636 0.59889 0.56696 0.0
C3223 C 0.04187 0.61674 0.56632 0.0
C3224 C 0.04944 0.62398 0.54377 0.0
C3225 C 0.14203 0.28888 0.31852 0.0
C3226 C 0.13097 0.297 0.33888 0.0
C3227 C 0.13491 0.29627 0.29633 0.0
C3228 C 0.11682 0.31244 0.29383 0.0
H3229 H 0.15699 0.27749 0.3198 0.0
H3230 H 0.14482 0.29075 0.28124 0.0
S3231 S 0.08078 0.33733 0.34129 0.0
N3232 N 0.0996 0.32036 0.35489 0.0
N3233 N 0.08674 0.33494 0.31322 0.0
C3234 C 0.10471 0.3196 0.3139 0.0
C3235 C 0.11163 0.31168 0.33646 0.0
C3236 C 0.47422 0.61906 0.44971 0.0
C3237 C 0.4654 0.62989 0.42953 0.0
C3238 C 0.46796 0.62678 0.47202 0.0
C3239 C 0.45231 0.64526 0.47477 0.0
H3240 H 0.4853 0.60389 0.44823 0.0
H3241 H 0.47387 0.61705 0.48707 0.0
S3242 S 0.42577 0.6806 0.42771 0.0
N3243 N 0.44188 0.66126 0.41382 0.0
N3244 N 0.42936 0.67524 0.45577 0.0
C3245 C 0.44444 0.65707 0.4548 0.0
C3246 C 0.45121 0.64953 0.43212 0.0
C3247 C 0.14049 0.71889 0.19959 0.0
C3248 C 0.12967 0.71072 0.17913 0.0
C3249 C 0.13333 0.71122 0.22168 0.0
C3250 C 0.11547 0.69473 0.22396 0.0
H3251 H 0.15527 0.73056 0.19844 0.0
H3252 H 0.14308 0.71676 0.23685 0.0
S3253 S 0.08035 0.66931 0.17613 0.0
N3254 N 0.09889 0.68683 0.16276 0.0
N3255 N 0.08605 0.67163 0.20425 0.0
C3256 C 0.10365 0.68743 0.20378 0.0
C3257 C 0.11058 0.69565 0.18133 0.0
C3258 C 0.06297 0.35314 0.95941 0.0
C3259 C 0.05547 0.36598 0.97895 0.0
C3260 C 0.05639 0.35946 0.93669 0.0
C3261 C 0.04267 0.37927 0.93279 0.0
H3262 H 0.07532 0.33907 0.96161 0.0
H3263 H 0.06358 0.34994 0.92209 0.0
S3264 S 0.01667 0.41726 0.97812 0.0
N3265 N 0.03188 0.39794 0.993 0.0
N3266 N 0.01989 0.41028 0.95038 0.0
C3267 C 0.0338 0.39127 0.95227 0.0
C3268 C 0.0401 0.3845 0.97537 0.0
C3269 C 0.39797 0.32168 0.68495 0.0
C3270 C 0.37955 0.30583 0.68237 0.0
C3271 C 0.40452 0.32962 0.70712 0.0
C3272 C 0.39335 0.3214 0.72738 0.0
H3273 H 0.4064 0.32903 0.66974 0.0
H3274 H 0.41779 0.34297 0.70838 0.0
S3275 S 0.34612 0.27763 0.72998 0.0
N3276 N 0.35153 0.28076 0.70188 0.0
N3277 N 0.36442 0.29517 0.74355 0.0
C3278 C 0.37612 0.30429 0.72509 0.0
C3279 C 0.36904 0.29666 0.70254 0.0
C3280 C 0.08331 0.44761 0.36747 0.0
C3281 C 0.08649 0.4622 0.38681 0.0
C3282 C 0.061 0.43966 0.3614 0.0
C3283 C 0.04116 0.44666 0.37399 0.0
H3284 H 0.09823 0.44112 0.35793 0.0
H3285 H 0.05936 0.42709 0.34743 0.0
S3286 S 0.04001 0.487 0.42419 0.0
N3287 N 0.06786 0.48488 0.41731 0.0
N3288 N 0.02592 0.47047 0.40535 0.0
C3289 C 0.04396 0.46262 0.3922 0.0
C3290 C 0.06667 0.47024 0.39877 0.0
C3291 C 0.29278 0.31236 0.1559 0.0
C3292 C 0.29849 0.33188 0.14216 0.0
C3293 C 0.29885 0.28978 0.14893 0.0
C3294 C 0.31114 0.28606 0.12815 0.0
H3295 H 0.28415 0.31459 0.17254 0.0
H3296 H 0.29535 0.27539 0.16061 0.0
S3297 S 0.32894 0.33085 0.08522 0.0
N3298 N 0.31567 0.34567 0.10598 0.0
N3299 N 0.32781 0.3033 0.0933 0.0
C3300 C 0.31603 0.30523 0.11376 0.0
C3301 C 0.30947 0.32815 0.12062 0.0
C3302 C 0.43224 0.5528 0.85896 0.0
C3303 C 0.42813 0.53919 0.87884 0.0
C3304 C 0.45503 0.55914 0.8527 0.0
C3305 C 0.47442 0.55155 0.86573 0.0
H3306 H 0.41776 0.56015 0.84937 0.0
H3307 H 0.45741 0.57141 0.83856 0.0
S3308 S 0.47292 0.5126 0.91705 0.0
N3309 N 0.44528 0.51614 0.90994 0.0
N3310 N 0.48806 0.52767 0.89776 0.0
C3311 C 0.4706 0.53611 0.88422 0.0
C3312 C 0.44743 0.53006 0.89091 0.0
C3313 C 0.21761 0.69779 0.64192 0.0
C3314 C 0.20994 0.67767 0.63019 0.0
C3315 C 0.21077 0.72004 0.63464 0.0
C3316 C 0.19564 0.72284 0.61568 0.0
H3317 H 0.2284 0.69628 0.65733 0.0
H3318 H 0.21599 0.73496 0.6449 0.0
S3319 S 0.17204 0.67608 0.57802 0.0
N3320 N 0.18797 0.66218 0.59754 0.0
N3321 N 0.17433 0.704 0.58438 0.0
C3322 C 0.18877 0.703 0.60312 0.0
C3323 C 0.19616 0.68038 0.61021 0.0
C3324 C 0.06674 0.54176 0.12033 0.0
C3325 C 0.08708 0.5505 0.13088 0.0
C3326 C 0.04459 0.54879 0.12779 0.0
C3327 C 0.04216 0.56522 0.14566 0.0
H3328 H 0.06799 0.53003 0.10561 0.0
H3329 H 0.02942 0.54265 0.11841 0.0
S3330 S 0.08974 0.59197 0.18014 0.0
N3331 N 0.10328 0.5749 0.16136 0.0
N3332 N 0.06164 0.58884 0.17485 0.0
C3333 C 0.06228 0.57317 0.15715 0.0
C3334 C 0.08479 0.5656 0.14991 0.0
C3335 C 0.21127 0.32926 0.90225 0.0
C3336 C 0.22209 0.3349 0.88102 0.0
C3337 C 0.2049 0.30618 0.9073 0.0
C3338 C 0.2097 0.28801 0.8916 0.0
H3339 H 0.20621 0.34288 0.91424 0.0
H3340 H 0.19485 0.30272 0.92291 0.0
S3341 S 0.24085 0.2931 0.83541 0.0
N3342 N 0.2397 0.31999 0.84543 0.0
N3343 N 0.22785 0.27678 0.85522 0.0
C3344 C 0.22223 0.29314 0.87133 0.0
C3345 C 0.22841 0.31658 0.86597 0.0
C3346 C 0.43439 0.45312 0.65304 0.0
C3347 C 0.43198 0.46627 0.63256 0.0
C3348 C 0.45642 0.44562 0.66051 0.0
C3349 C 0.47676 0.4517 0.64821 0.0
H3350 H 0.4191 0.44732 0.66247 0.0
H3351 H 0.45746 0.43404 0.67538 0.0
S3352 S 0.47998 0.4882 0.59516 0.0
N3353 N 0.45188 0.48665 0.60116 0.0
N3354 N 0.49326 0.4731 0.61571 0.0
C3355 C 0.47471 0.46628 0.62875 0.0
C3356 C 0.45229 0.47342 0.62078 0.0
C3357 C 0.31322 0.69742 0.35744 0.0
C3358 C 0.30322 0.68295 0.37456 0.0
C3359 C 0.31998 0.72018 0.36248 0.0
C3360 C 0.3168 0.72972 0.38475 0.0
H3361 H 0.31647 0.69101 0.34 0.0
H3362 H 0.32854 0.73022 0.34896 0.0
S3363 S 0.29061 0.70006 0.43571 0.0
N3364 N 0.28969 0.68039 0.41475 0.0
N3365 N 0.30249 0.72352 0.42404 0.0
C3366 C 0.30604 0.71601 0.4019 0.0
C3367 C 0.29927 0.69254 0.39686 0.0
C3368 C 0.36607 0.08379 0.457 0.0
C3369 C 0.38613 0.08637 0.47073 0.0
C3370 C 0.35883 0.06168 0.44957 0.0
C3371 C 0.37098 0.04147 0.45625 0.0
H3372 H 0.35696 0.09898 0.45058 0.0
H3373 H 0.34443 0.06046 0.43743 0.0
S3374 S 0.42262 0.03885 0.49472 0.0
N3375 N 0.41669 0.06687 0.49255 0.0
N3376 N 0.4026 0.02534 0.4791 0.0
C3377 C 0.38981 0.04373 0.4716 0.0
C3378 C 0.39753 0.06622 0.47868 0.0
C3379 C 0.90066 0.44762 0.54497 0.0
C3380 C 0.88566 0.4287 0.54946 0.0
C3381 C 0.89414 0.4705 0.55031 0.0
C3382 C 0.87245 0.47527 0.56044 0.0
H3383 H 0.91797 0.44466 0.53809 0.0
H3384 H 0.90681 0.4843 0.5481 0.0
S3385 S 0.82614 0.43249 0.57418 0.0
N3386 N 0.8474 0.41665 0.56303 0.0
N3387 N 0.83549 0.45966 0.57375 0.0
C3388 C 0.85682 0.45677 0.56391 0.0
C3389 C 0.8633 0.43347 0.55817 0.0
C3390 C 0.33877 0.11324 0.31975 0.0
C3391 C 0.3419 0.12992 0.30218 0.0
C3392 C 0.31632 0.10726 0.3274 0.0
C3393 C 0.29634 0.11729 0.31728 0.0
H3394 H 0.35371 0.10604 0.32873 0.0
H3395 H 0.3146 0.09551 0.34207 0.0
S3396 S 0.2954 0.15968 0.26872 0.0
N3397 N 0.32335 0.15494 0.27355 0.0
N3398 N 0.28119 0.14308 0.28745 0.0
C3399 C 0.29927 0.13256 0.29847 0.0
C3400 C 0.32209 0.13907 0.29107 0.0
C3401 C 0.64714 0.58019 0.05618 0.0
C3402 C 0.62667 0.58301 0.04316 0.0
C3403 C 0.65448 0.55794 0.06307 0.0
C3404 C 0.64196 0.53786 0.05662 0.0
H3405 H 0.65643 0.59525 0.06266 0.0
H3406 H 0.66913 0.55654 0.0749 0.0
S3407 S 0.5893 0.53594 0.01954 0.0
N3408 N 0.59546 0.56391 0.02187 0.0
N3409 N 0.60967 0.52214 0.03441 0.0
C3410 C 0.62281 0.54038 0.04174 0.0
C3411 C 0.61503 0.563 0.03515 0.0
C3412 C 0.68604 0.39835 0.31027 0.0
C3413 C 0.68179 0.37742 0.29843 0.0
C3414 C 0.70885 0.40489 0.31621 0.0
C3415 C 0.72812 0.39114 0.3098 0.0
H3416 H 0.67163 0.40876 0.31652 0.0
H3417 H 0.71135 0.42 0.3272 0.0
S3418 S 0.72634 0.33648 0.27591 0.0
N3419 N 0.69875 0.34415 0.27856 0.0
N3420 N 0.74157 0.35689 0.28925 0.0
C3421 C 0.72419 0.37129 0.29626 0.0
C3422 C 0.701 0.36431 0.29069 0.0
C3423 C 0.11076 0.96988 0.95351 0.0
C3424 C 0.13335 0.97912 0.95381 0.0
C3425 C 0.10653 0.94671 0.95943 0.0
C3426 C 0.12477 0.93157 0.96568 0.0
H3427 H 0.09631 0.98037 0.94744 0.0
H3428 H 0.08875 0.94051 0.95827 0.0
S3429 S 0.18714 0.94797 0.97077 0.0
N3430 N 0.17416 0.97209 0.96207 0.0
N3431 N 0.16635 0.92825 0.97346 0.0
C3432 C 0.14741 0.94098 0.96732 0.0
C3433 C 0.15167 0.96482 0.96132 0.0
C3434 C 0.31453 0.87216 0.22339 0.0
C3435 C 0.33328 0.8866 0.21684 0.0
C3436 C 0.29148 0.878 0.21791 0.0
C3437 C 0.28639 0.89841 0.20557 0.0
H3438 H 0.31777 0.85567 0.23194 0.0
H3439 H 0.2778 0.86554 0.22164 0.0
S3440 S 0.32872 0.94295 0.18588 0.0
N3441 N 0.34491 0.92313 0.19899 0.0
N3442 N 0.30155 0.93372 0.18803 0.0
C3443 C 0.30475 0.91367 0.20015 0.0
C3444 C 0.32822 0.9079 0.20601 0.0
C3445 C 0.20413 0.14658 0.71809 0.0
C3446 C 0.18568 0.13074 0.71474 0.0
C3447 C 0.22712 0.14076 0.71239 0.0
C3448 C 0.23254 0.11889 0.70311 0.0
H3449 H 0.20066 0.16402 0.72433 0.0
H3450 H 0.24046 0.15404 0.71367 0.0
S3451 S 0.19119 0.07061 0.69225 0.0
N3452 N 0.17478 0.09162 0.70301 0.0
N3453 N 0.21805 0.08093 0.69168 0.0
C3454 C 0.21457 0.10245 0.70079 0.0
C3455 C 0.19112 0.10827 0.70685 0.0
loop_
_geom_bond_atom_site_label_1
_geom_bond_atom_site_label_2
_geom_bond_distance
_geom_bond_site_symmetry_2
_ccdc_geom_bond_type
O0 Cd1 2.198 1_655 S
O0 C8 1.315 . S
Cd1 O0 2.198 1_455 S
Cd1 O4 2.261 1_455 S
Cd1 O5 2.446 . S
Cd1 O11 2.285 . S
Cd2 O3 2.240 . S
Cd2 O10 2.223 . S
Cd2 O12 2.297 . S
Cd2 O13 2.439 . S
O3 Cd2 2.240 . S
O3 C8 1.279 1_455 S
O4 Cd1 2.261 1_655 S
O4 C6 1.247 . S
O5 Cd1 2.446 . S
O5 C6 1.208 1_455 S
C6 O4 1.247 . S
C6 O5 1.208 1_655 S
C7 O12 1.247 . S
C7 O13 1.208 . S
C8 O0 1.315 . S
C8 O3 1.279 1_655 S
C9 O10 1.315 . S
C9 O11 1.279 . S
O10 Cd2 2.223 . S
O10 C9 1.315 . S
O11 Cd1 2.285 . S
O11 C9 1.279 . S
O12 Cd2 2.297 . S
O12 C7 1.247 . S
O13 Cd2 2.439 . S
O13 C7 1.208 . S
O14 Cd15 2.223 . S
O14 C22 1.315 . S
Cd15 O14 2.223 . S
Cd15 O18 2.297 . S
Cd15 O19 2.439 . S
Cd15 O25 2.240 . S
Cd16 O17 2.240 . S
Cd16 O24 2.223 . S
Cd16 O26 2.297 . S
Cd16 O27 2.439 . S
O17 Cd16 2.240 . S
O17 C22 1.279 . S
O18 Cd15 2.297 . S
O18 C20 1.247 . S
O19 Cd15 2.439 . S
O19 C20 1.208 . S
C20 O18 1.247 . S
C20 O19 1.208 . S
C21 O26 1.247 . S
C21 O27 1.208 . S
C22 O14 1.315 . S
C22 O17 1.279 . S
C23 O24 1.315 . S
C23 O25 1.279 . S
O24 Cd16 2.223 . S
O24 C23 1.315 . S
O25 Cd15 2.240 . S
O25 C23 1.279 . S
O26 Cd16 2.297 . S
O26 C21 1.247 . S
O27 Cd16 2.439 . S
O27 C21 1.208 . S
O28 Cd29 2.223 . S
O28 C36 1.315 . S
Cd29 O28 2.223 . S
Cd29 O32 2.297 . S
Cd29 O33 2.439 . S
Cd29 O39 2.240 . S
Cd30 O31 2.240 . S
Cd30 O38 2.223 . S
Cd30 O40 2.297 . S
Cd30 O41 2.439 . S
O31 Cd30 2.240 . S
O31 C36 1.279 . S
O32 Cd29 2.297 . S
O32 C34 1.247 . S
O33 Cd29 2.439 . S
O33 C34 1.208 . S
C34 O32 1.247 . S
C34 O33 1.208 . S
C35 O40 1.247 . S
C35 O41 1.208 . S
C36 O28 1.315 . S
C36 O31 1.279 . S
C37 O38 1.315 . S
C37 O39 1.279 . S
O38 Cd30 2.223 . S
O38 C37 1.315 . S
O39 Cd29 2.240 . S
O39 C37 1.279 . S
O40 Cd30 2.297 . S
O40 C35 1.247 . S
O41 Cd30 2.439 . S
O41 C35 1.208 . S
O42 Cd43 2.223 . S
O42 C50 1.315 . S
Cd43 O42 2.223 . S
Cd43 O46 2.297 . S
Cd43 O47 2.439 . S
Cd43 O53 2.240 . S
Cd44 O45 2.240 . S
Cd44 O52 2.223 . S
Cd44 O54 2.297 . S
Cd44 O55 2.439 . S
O45 Cd44 2.240 . S
O45 C50 1.279 . S
O46 Cd43 2.297 . S
O46 C48 1.247 . S
O47 Cd43 2.439 . S
O47 C48 1.208 . S
C48 O46 1.247 . S
C48 O47 1.208 . S
C49 O54 1.247 . S
C49 O55 1.208 . S
C50 O42 1.315 . S
C50 O45 1.279 . S
C51 O52 1.315 . S
C51 O53 1.279 . S
O52 Cd44 2.223 . S
O52 C51 1.315 . S
O53 Cd43 2.240 . S
O53 C51 1.279 . S
O54 Cd44 2.297 . S
O54 C49 1.247 . S
O55 Cd44 2.439 . S
O55 C49 1.208 . S
O56 Cd57 2.198 1_655 S
O56 C64 1.315 . S
Cd57 O56 2.198 1_455 S
Cd57 O60 2.262 1_455 S
Cd57 O61 2.445 . S
Cd57 O67 2.284 . S
Cd58 O59 2.240 . S
Cd58 O66 2.223 . S
Cd58 O68 2.297 . S
Cd58 O69 2.439 . S
O59 Cd58 2.240 . S
O59 C64 1.279 1_455 S
O60 Cd57 2.262 1_655 S
O60 C62 1.247 . S
O61 Cd57 2.445 . S
O61 C62 1.208 1_455 S
C62 O60 1.247 . S
C62 O61 1.208 1_655 S
C63 O68 1.247 . S
C63 O69 1.208 . S
C64 O56 1.315 . S
C64 O59 1.279 1_655 S
C65 O66 1.315 . S
C65 O67 1.279 . S
O66 Cd58 2.223 . S
O66 C65 1.315 . S
O67 Cd57 2.284 . S
O67 C65 1.279 . S
O68 Cd58 2.297 . S
O68 C63 1.247 . S
O69 Cd58 2.439 . S
O69 C63 1.208 . S
O70 Cd71 2.223 . S
O70 C78 1.315 . S
Cd71 O70 2.223 . S
Cd71 O74 2.297 . S
Cd71 O75 2.439 . S
Cd71 O81 2.240 . S
Cd72 O73 2.240 . S
Cd72 O80 2.223 . S
Cd72 O82 2.297 . S
Cd72 O83 2.439 . S
O73 Cd72 2.240 . S
O73 C78 1.279 . S
O74 Cd71 2.297 . S
O74 C76 1.247 . S
O75 Cd71 2.439 . S
O75 C76 1.208 . S
C76 O74 1.247 . S
C76 O75 1.208 . S
C77 O82 1.247 . S
C77 O83 1.208 . S
C78 O70 1.315 . S
C78 O73 1.279 . S
C79 O80 1.315 . S
C79 O81 1.279 . S
O80 Cd72 2.223 . S
O80 C79 1.315 . S
O81 Cd71 2.240 . S
O81 C79 1.279 . S
O82 Cd72 2.297 . S
O82 C77 1.247 . S
O83 Cd72 2.439 . S
O83 C77 1.208 . S
O84 Cd85 2.223 . S
O84 C92 1.315 . S
Cd85 O84 2.223 . S
Cd85 O88 2.297 . S
Cd85 O89 2.439 . S
Cd85 O95 2.240 . S
Cd86 O87 2.240 . S
Cd86 O94 2.223 . S
Cd86 O96 2.297 . S
Cd86 O97 2.439 . S
O87 Cd86 2.240 . S
O87 C92 1.279 . S
O88 Cd85 2.297 . S
O88 C90 1.247 . S
O89 Cd85 2.439 . S
O89 C90 1.208 . S
C90 O88 1.247 . S
C90 O89 1.208 . S
C91 O96 1.247 . S
C91 O97 1.208 . S
C92 O84 1.315 . S
C92 O87 1.279 . S
C93 O94 1.315 . S
C93 O95 1.279 . S
O94 Cd86 2.223 . S
O94 C93 1.315 . S
O95 Cd85 2.240 . S
O95 C93 1.279 . S
O96 Cd86 2.297 . S
O96 C91 1.247 . S
O97 Cd86 2.439 . S
O97 C91 1.208 . S
O98 Cd99 2.223 . S
O98 C106 1.315 . S
Cd99 O98 2.223 . S
Cd99 O102 2.297 . S
Cd99 O103 2.439 . S
Cd99 O109 2.240 . S
Cd100 O101 2.240 . S
Cd100 O108 2.223 . S
Cd100 O110 2.297 . S
Cd100 O111 2.439 . S
O101 Cd100 2.240 . S
O101 C106 1.279 . S
O102 Cd99 2.297 . S
O102 C104 1.247 . S
O103 Cd99 2.439 . S
O103 C104 1.208 . S
C104 O102 1.247 . S
C104 O103 1.208 . S
C105 O110 1.247 . S
C105 O111 1.208 . S
C106 O98 1.315 . S
C106 O101 1.279 . S
C107 O108 1.315 . S
C107 O109 1.279 . S
O108 Cd100 2.223 . S
O108 C107 1.315 . S
O109 Cd99 2.240 . S
O109 C107 1.279 . S
O110 Cd100 2.297 . S
O110 C105 1.247 . S
O111 Cd100 2.439 . S
O111 C105 1.208 . S
O112 Cd113 2.198 1_565 S
O112 C120 1.315 . S
Cd113 O112 2.198 1_545 S
Cd113 O116 2.261 1_545 S
Cd113 O117 2.446 . S
Cd113 O123 2.285 . S
Cd114 O115 2.240 . S
Cd114 O122 2.223 . S
Cd114 O124 2.297 . S
Cd114 O125 2.439 . S
O115 Cd114 2.240 . S
O115 C120 1.279 1_545 S
O116 Cd113 2.261 1_565 S
O116 C118 1.247 . S
O117 Cd113 2.446 . S
O117 C118 1.208 1_545 S
C118 O116 1.247 . S
C118 O117 1.208 1_565 S
C119 O124 1.247 . S
C119 O125 1.208 . S
C120 O112 1.315 . S
C120 O115 1.279 1_565 S
C121 O122 1.315 . S
C121 O123 1.279 . S
O122 Cd114 2.223 . S
O122 C121 1.315 . S
O123 Cd113 2.285 . S
O123 C121 1.279 . S
O124 Cd114 2.297 . S
O124 C119 1.247 . S
O125 Cd114 2.439 . S
O125 C119 1.208 . S
O126 Cd127 2.223 . S
O126 C134 1.315 . S
Cd127 O126 2.223 . S
Cd127 O130 2.297 . S
Cd127 O131 2.439 . S
Cd127 O137 2.240 . S
Cd128 O129 2.240 . S
Cd128 O136 2.223 . S
Cd128 O138 2.297 . S
Cd128 O139 2.439 . S
O129 Cd128 2.240 . S
O129 C134 1.279 . S
O130 Cd127 2.297 . S
O130 C132 1.247 . S
O131 Cd127 2.439 . S
O131 C132 1.208 . S
C132 O130 1.247 . S
C132 O131 1.208 . S
C133 O138 1.247 . S
C133 O139 1.208 . S
C134 O126 1.315 . S
C134 O129 1.279 . S
C135 O136 1.315 . S
C135 O137 1.279 . S
O136 Cd128 2.223 . S
O136 C135 1.315 . S
O137 Cd127 2.240 . S
O137 C135 1.279 . S
O138 Cd128 2.297 . S
O138 C133 1.247 . S
O139 Cd128 2.439 . S
O139 C133 1.208 . S
O140 Cd141 2.198 1_545 S
O140 C148 1.315 . S
Cd141 O140 2.198 1_565 S
Cd141 O144 2.261 1_565 S
Cd141 O145 2.445 . S
Cd141 O151 2.284 . S
Cd142 O143 2.240 . S
Cd142 O150 2.223 . S
Cd142 O152 2.297 . S
Cd142 O153 2.439 . S
O143 Cd142 2.240 . S
O143 C148 1.279 1_565 S
O144 Cd141 2.261 1_545 S
O144 C146 1.247 . S
O145 Cd141 2.445 . S
O145 C146 1.208 1_565 S
C146 O144 1.247 . S
C146 O145 1.208 1_545 S
C147 O152 1.247 . S
C147 O153 1.208 . S
C148 O140 1.315 . S
C148 O143 1.279 1_545 S
C149 O150 1.315 . S
C149 O151 1.279 . S
O150 Cd142 2.223 . S
O150 C149 1.315 . S
O151 Cd141 2.284 . S
O151 C149 1.279 . S
O152 Cd142 2.297 . S
O152 C147 1.247 . S
O153 Cd142 2.439 . S
O153 C147 1.208 . S
O154 Cd155 2.223 . S
O154 C162 1.315 . S
Cd155 O154 2.223 . S
Cd155 O158 2.297 . S
Cd155 O159 2.439 . S
Cd155 O165 2.240 . S
Cd156 O157 2.240 . S
Cd156 O164 2.223 . S
Cd156 O166 2.297 . S
Cd156 O167 2.439 . S
O157 Cd156 2.240 . S
O157 C162 1.279 . S
O158 Cd155 2.297 . S
O158 C160 1.247 . S
O159 Cd155 2.439 . S
O159 C160 1.208 . S
C160 O158 1.247 . S
C160 O159 1.208 . S
C161 O166 1.247 . S
C161 O167 1.208 . S
C162 O154 1.315 . S
C162 O157 1.279 . S
C163 O164 1.315 . S
C163 O165 1.279 . S
O164 Cd156 2.223 . S
O164 C163 1.315 . S
O165 Cd155 2.240 . S
O165 C163 1.279 . S
O166 Cd156 2.297 . S
O166 C161 1.247 . S
O167 Cd156 2.439 . S
O167 C161 1.208 . S
O168 Cd169 2.198 1_545 S
O168 C176 1.315 . S
Cd169 O168 2.198 1_565 S
Cd169 O172 2.261 1_565 S
Cd169 O173 2.445 . S
Cd169 O179 2.284 . S
Cd170 O171 2.240 . S
Cd170 O178 2.223 . S
Cd170 O180 2.297 . S
Cd170 O181 2.439 . S
O171 Cd170 2.240 . S
O171 C176 1.279 1_565 S
O172 Cd169 2.261 1_545 S
O172 C174 1.247 . S
O173 Cd169 2.445 . S
O173 C174 1.208 1_565 S
C174 O172 1.247 . S
C174 O173 1.208 1_545 S
C175 O180 1.247 . S
C175 O181 1.208 . S
C176 O168 1.315 . S
C176 O171 1.279 1_545 S
C177 O178 1.315 . S
C177 O179 1.279 . S
O178 Cd170 2.223 . S
O178 C177 1.315 . S
O179 Cd169 2.284 . S
O179 C177 1.279 . S
O180 Cd170 2.297 . S
O180 C175 1.247 . S
O181 Cd170 2.439 . S
O181 C175 1.208 . S
O182 Cd183 2.223 . S
O182 C190 1.315 . S
Cd183 O182 2.223 . S
Cd183 O186 2.297 . S
Cd183 O187 2.439 . S
Cd183 O193 2.240 . S
Cd184 O185 2.240 . S
Cd184 O192 2.223 . S
Cd184 O194 2.297 . S
Cd184 O195 2.439 . S
O185 Cd184 2.240 . S
O185 C190 1.279 . S
O186 Cd183 2.297 . S
O186 C188 1.247 . S
O187 Cd183 2.439 . S
O187 C188 1.208 . S
C188 O186 1.247 . S
C188 O187 1.208 . S
C189 O194 1.247 . S
C189 O195 1.208 . S
C190 O182 1.315 . S
C190 O185 1.279 . S
C191 O192 1.315 . S
C191 O193 1.279 . S
O192 Cd184 2.223 . S
O192 C191 1.315 . S
O193 Cd183 2.240 . S
O193 C191 1.279 . S
O194 Cd184 2.297 . S
O194 C189 1.247 . S
O195 Cd184 2.439 . S
O195 C189 1.208 . S
O196 Cd197 2.198 1_565 S
O196 C204 1.315 . S
Cd197 O196 2.198 1_545 S
Cd197 O200 2.262 1_545 S
Cd197 O201 2.445 . S
Cd197 O207 2.284 . S
Cd198 O199 2.240 . S
Cd198 O206 2.223 . S
Cd198 O208 2.297 . S
Cd198 O209 2.439 . S
O199 Cd198 2.240 . S
O199 C204 1.279 1_545 S
O200 Cd197 2.262 1_565 S
O200 C202 1.247 . S
O201 Cd197 2.445 . S
O201 C202 1.208 1_545 S
C202 O200 1.247 . S
C202 O201 1.208 1_565 S
C203 O208 1.247 . S
C203 O209 1.208 . S
C204 O196 1.315 . S
C204 O199 1.279 1_565 S
C205 O206 1.315 . S
C205 O207 1.279 . S
O206 Cd198 2.223 . S
O206 C205 1.315 . S
O207 Cd197 2.284 . S
O207 C205 1.279 . S
O208 Cd198 2.297 . S
O208 C203 1.247 . S
O209 Cd198 2.439 . S
O209 C203 1.208 . S
O210 Cd211 2.223 . S
O210 C218 1.315 . S
Cd211 O210 2.223 . S
Cd211 O214 2.297 . S
Cd211 O215 2.439 . S
Cd211 O221 2.240 . S
Cd212 O213 2.240 . S
Cd212 O220 2.223 . S
Cd212 O222 2.297 . S
Cd212 O223 2.439 . S
O213 Cd212 2.240 . S
O213 C218 1.279 . S
O214 Cd211 2.297 . S
O214 C216 1.247 . S
O215 Cd211 2.439 . S
O215 C216 1.208 . S
C216 O214 1.247 . S
C216 O215 1.208 . S
C217 O222 1.247 . S
C217 O223 1.208 . S
C218 O210 1.315 . S
C218 O213 1.279 . S
C219 O220 1.315 . S
C219 O221 1.279 . S
O220 Cd212 2.223 . S
O220 C219 1.315 . S
O221 Cd211 2.240 . S
O221 C219 1.279 . S
O222 Cd212 2.297 . S
O222 C217 1.247 . S
O223 Cd212 2.439 . S
O223 C217 1.208 . S
O224 Cd225 2.198 1_556 S
O224 C232 1.315 . S
Cd225 O224 2.198 1_554 S
Cd225 O228 2.261 1_554 S
Cd225 O229 2.446 . S
Cd225 O235 2.285 . S
Cd226 O227 2.240 . S
Cd226 O234 2.223 . S
Cd226 O236 2.297 . S
Cd226 O237 2.439 . S
O227 Cd226 2.240 . S
O227 C232 1.279 1_554 S
O228 Cd225 2.261 1_556 S
O228 C230 1.247 . S
O229 Cd225 2.446 . S
O229 C230 1.208 1_554 S
C230 O228 1.247 . S
C230 O229 1.208 1_556 S
C231 O236 1.247 . S
C231 O237 1.208 . S
C232 O224 1.315 . S
C232 O227 1.279 1_556 S
C233 O234 1.315 . S
C233 O235 1.279 . S
O234 Cd226 2.223 . S
O234 C233 1.315 . S
O235 Cd225 2.285 . S
O235 C233 1.279 . S
O236 Cd226 2.297 . S
O236 C231 1.247 . S
O237 Cd226 2.439 . S
O237 C231 1.208 . S
O238 Cd239 2.198 1_554 S
O238 C246 1.315 . S
Cd239 O238 2.198 1_556 S
Cd239 O242 2.261 1_556 S
Cd239 O243 2.445 . S
Cd239 O249 2.284 . S
Cd240 O241 2.240 . S
Cd240 O248 2.223 . S
Cd240 O250 2.297 . S
Cd240 O251 2.439 . S
O241 Cd240 2.240 . S
O241 C246 1.279 1_556 S
O242 Cd239 2.261 1_554 S
O242 C244 1.247 . S
O243 Cd239 2.445 . S
O243 C244 1.208 1_556 S
C244 O242 1.247 . S
C244 O243 1.208 1_554 S
C245 O250 1.247 . S
C245 O251 1.208 . S
C246 O238 1.315 . S
C246 O241 1.279 1_554 S
C247 O248 1.315 . S
C247 O249 1.279 . S
O248 Cd240 2.223 . S
O248 C247 1.315 . S
O249 Cd239 2.284 . S
O249 C247 1.279 . S
O250 Cd240 2.297 . S
O250 C245 1.247 . S
O251 Cd240 2.439 . S
O251 C245 1.208 . S
O252 Cd253 2.223 . S
O252 C260 1.315 . S
Cd253 O252 2.223 . S
Cd253 O256 2.297 . S
Cd253 O257 2.439 . S
Cd253 O263 2.240 . S
Cd254 O255 2.240 . S
Cd254 O262 2.223 . S
Cd254 O264 2.297 . S
Cd254 O265 2.439 . S
O255 Cd254 2.240 . S
O255 C260 1.279 . S
O256 Cd253 2.297 . S
O256 C258 1.247 . S
O257 Cd253 2.439 . S
O257 C258 1.208 . S
C258 O256 1.247 . S
C258 O257 1.208 . S
C259 O264 1.247 . S
C259 O265 1.208 . S
C260 O252 1.315 . S
C260 O255 1.279 . S
C261 O262 1.315 . S
C261 O263 1.279 . S
O262 Cd254 2.223 . S
O262 C261 1.315 . S
O263 Cd253 2.240 . S
O263 C261 1.279 . S
O264 Cd254 2.297 . S
O264 C259 1.247 . S
O265 Cd254 2.439 . S
O265 C259 1.208 . S
O266 Cd267 2.223 . S
O266 C274 1.315 . S
Cd267 O266 2.223 . S
Cd267 O270 2.297 . S
Cd267 O271 2.439 . S
Cd267 O277 2.240 . S
Cd268 O269 2.240 . S
Cd268 O276 2.223 . S
Cd268 O278 2.297 . S
Cd268 O279 2.439 . S
O269 Cd268 2.240 . S
O269 C274 1.279 . S
O270 Cd267 2.297 . S
O270 C272 1.247 . S
O271 Cd267 2.439 . S
O271 C272 1.208 . S
C272 O270 1.247 . S
C272 O271 1.208 . S
C273 O278 1.247 . S
C273 O279 1.208 . S
C274 O266 1.315 . S
C274 O269 1.279 . S
C275 O276 1.315 . S
C275 O277 1.279 . S
O276 Cd268 2.223 . S
O276 C275 1.315 . S
O277 Cd267 2.240 . S
O277 C275 1.279 . S
O278 Cd268 2.297 . S
O278 C273 1.247 . S
O279 Cd268 2.439 . S
O279 C273 1.208 . S
O280 Cd281 2.223 . S
O280 C288 1.315 . S
Cd281 O280 2.223 . S
Cd281 O284 2.297 . S
Cd281 O285 2.439 . S
Cd281 O291 2.240 . S
Cd282 O283 2.240 . S
Cd282 O290 2.223 . S
Cd282 O292 2.297 . S
Cd282 O293 2.439 . S
O283 Cd282 2.240 . S
O283 C288 1.279 . S
O284 Cd281 2.297 . S
O284 C286 1.247 . S
O285 Cd281 2.439 . S
O285 C286 1.208 . S
C286 O284 1.247 . S
C286 O285 1.208 . S
C287 O292 1.247 . S
C287 O293 1.208 . S
C288 O280 1.315 . S
C288 O283 1.279 . S
C289 O290 1.315 . S
C289 O291 1.279 . S
O290 Cd282 2.223 . S
O290 C289 1.315 . S
O291 Cd281 2.240 . S
O291 C289 1.279 . S
O292 Cd282 2.297 . S
O292 C287 1.247 . S
O293 Cd282 2.439 . S
O293 C287 1.208 . S
O294 Cd295 2.223 . S
O294 C302 1.315 . S
Cd295 O294 2.223 . S
Cd295 O298 2.297 . S
Cd295 O299 2.439 . S
Cd295 O305 2.240 . S
Cd296 O297 2.240 . S
Cd296 O304 2.223 . S
Cd296 O306 2.297 . S
Cd296 O307 2.439 . S
O297 Cd296 2.240 . S
O297 C302 1.279 . S
O298 Cd295 2.297 . S
O298 C300 1.247 . S
O299 Cd295 2.439 . S
O299 C300 1.208 . S
C300 O298 1.247 . S
C300 O299 1.208 . S
C301 O306 1.247 . S
C301 O307 1.208 . S
C302 O294 1.315 . S
C302 O297 1.279 . S
C303 O304 1.315 . S
C303 O305 1.279 . S
O304 Cd296 2.223 . S
O304 C303 1.315 . S
O305 Cd295 2.240 . S
O305 C303 1.279 . S
O306 Cd296 2.297 . S
O306 C301 1.247 . S
O307 Cd296 2.439 . S
O307 C301 1.208 . S
O308 Cd309 2.223 . S
O308 C316 1.315 . S
Cd309 O308 2.223 . S
Cd309 O312 2.297 . S
Cd309 O313 2.439 . S
Cd309 O319 2.240 . S
Cd310 O311 2.240 . S
Cd310 O318 2.223 . S
Cd310 O320 2.297 . S
Cd310 O321 2.439 . S
O311 Cd310 2.240 . S
O311 C316 1.279 . S
O312 Cd309 2.297 . S
O312 C314 1.247 . S
O313 Cd309 2.439 . S
O313 C314 1.208 . S
C314 O312 1.247 . S
C314 O313 1.208 . S
C315 O320 1.247 . S
C315 O321 1.208 . S
C316 O308 1.315 . S
C316 O311 1.279 . S
C317 O318 1.315 . S
C317 O319 1.279 . S
O318 Cd310 2.223 . S
O318 C317 1.315 . S
O319 Cd309 2.240 . S
O319 C317 1.279 . S
O320 Cd310 2.297 . S
O320 C315 1.247 . S
O321 Cd310 2.439 . S
O321 C315 1.208 . S
O322 Cd323 2.223 . S
O322 C330 1.315 . S
Cd323 O322 2.223 . S
Cd323 O326 2.297 . S
Cd323 O327 2.439 . S
Cd323 O333 2.240 . S
Cd324 O325 2.240 . S
Cd324 O332 2.223 . S
Cd324 O334 2.297 . S
Cd324 O335 2.439 . S
O325 Cd324 2.240 . S
O325 C330 1.279 . S
O326 Cd323 2.297 . S
O326 C328 1.247 . S
O327 Cd323 2.439 . S
O327 C328 1.208 . S
C328 O326 1.247 . S
C328 O327 1.208 . S
C329 O334 1.247 . S
C329 O335 1.208 . S
C330 O322 1.315 . S
C330 O325 1.279 . S
C331 O332 1.315 . S
C331 O333 1.279 . S
O332 Cd324 2.223 . S
O332 C331 1.315 . S
O333 Cd323 2.240 . S
O333 C331 1.279 . S
O334 Cd324 2.297 . S
O334 C329 1.247 . S
O335 Cd324 2.439 . S
O335 C329 1.208 . S
O336 Cd337 2.198 1_455 S
O336 C344 1.315 . S
Cd337 O336 2.198 1_655 S
Cd337 O340 2.261 1_655 S
Cd337 O341 2.446 . S
Cd337 O347 2.285 . S
Cd338 O339 2.240 . S
Cd338 O346 2.223 . S
Cd338 O348 2.297 . S
Cd338 O349 2.439 . S
O339 Cd338 2.240 . S
O339 C344 1.279 1_655 S
O340 Cd337 2.261 1_455 S
O340 C342 1.247 . S
O341 Cd337 2.446 . S
O341 C342 1.208 1_655 S
C342 O340 1.247 . S
C342 O341 1.208 1_455 S
C343 O348 1.247 . S
C343 O349 1.208 . S
C344 O336 1.315 . S
C344 O339 1.279 1_455 S
C345 O346 1.315 . S
C345 O347 1.279 . S
O346 Cd338 2.223 . S
O346 C345 1.315 . S
O347 Cd337 2.285 . S
O347 C345 1.279 . S
O348 Cd338 2.297 . S
O348 C343 1.247 . S
O349 Cd338 2.439 . S
O349 C343 1.208 . S
O350 Cd351 2.223 . S
O350 C358 1.315 . S
Cd351 O350 2.223 . S
Cd351 O354 2.297 . S
Cd351 O355 2.439 . S
Cd351 O361 2.240 . S
Cd352 O353 2.240 . S
Cd352 O360 2.223 . S
Cd352 O362 2.297 . S
Cd352 O363 2.439 . S
O353 Cd352 2.240 . S
O353 C358 1.279 . S
O354 Cd351 2.297 . S
O354 C356 1.247 . S
O355 Cd351 2.439 . S
O355 C356 1.208 . S
C356 O354 1.247 . S
C356 O355 1.208 . S
C357 O362 1.247 . S
C357 O363 1.208 . S
C358 O350 1.315 . S
C358 O353 1.279 . S
C359 O360 1.315 . S
C359 O361 1.279 . S
O360 Cd352 2.223 . S
O360 C359 1.315 . S
O361 Cd351 2.240 . S
O361 C359 1.279 . S
O362 Cd352 2.297 . S
O362 C357 1.247 . S
O363 Cd352 2.439 . S
O363 C357 1.208 . S
O364 Cd365 2.223 . S
O364 C372 1.315 . S
Cd365 O364 2.223 . S
Cd365 O368 2.297 . S
Cd365 O369 2.439 . S
Cd365 O375 2.240 . S
Cd366 O367 2.240 . S
Cd366 O374 2.223 . S
Cd366 O376 2.297 . S
Cd366 O377 2.439 . S
O367 Cd366 2.240 . S
O367 C372 1.279 . S
O368 Cd365 2.297 . S
O368 C370 1.247 . S
O369 Cd365 2.439 . S
O369 C370 1.208 . S
C370 O368 1.247 . S
C370 O369 1.208 . S
C371 O376 1.247 . S
C371 O377 1.208 . S
C372 O364 1.315 . S
C372 O367 1.279 . S
C373 O374 1.315 . S
C373 O375 1.279 . S
O374 Cd366 2.223 . S
O374 C373 1.315 . S
O375 Cd365 2.240 . S
O375 C373 1.279 . S
O376 Cd366 2.297 . S
O376 C371 1.247 . S
O377 Cd366 2.439 . S
O377 C371 1.208 . S
O378 Cd379 2.223 . S
O378 C386 1.315 . S
Cd379 O378 2.223 . S
Cd379 O382 2.297 . S
Cd379 O383 2.439 . S
Cd379 O389 2.240 . S
Cd380 O381 2.240 . S
Cd380 O388 2.223 . S
Cd380 O390 2.297 . S
Cd380 O391 2.439 . S
O381 Cd380 2.240 . S
O381 C386 1.279 . S
O382 Cd379 2.297 . S
O382 C384 1.247 . S
O383 Cd379 2.439 . S
O383 C384 1.208 . S
C384 O382 1.247 . S
C384 O383 1.208 . S
C385 O390 1.247 . S
C385 O391 1.208 . S
C386 O378 1.315 . S
C386 O381 1.279 . S
C387 O388 1.315 . S
C387 O389 1.279 . S
O388 Cd380 2.223 . S
O388 C387 1.315 . S
O389 Cd379 2.240 . S
O389 C387 1.279 . S
O390 Cd380 2.297 . S
O390 C385 1.247 . S
O391 Cd380 2.439 . S
O391 C385 1.208 . S
O392 Cd393 2.198 1_455 S
O392 C400 1.315 . S
Cd393 O392 2.198 1_655 S
Cd393 O396 2.262 1_655 S
Cd393 O397 2.445 . S
Cd393 O403 2.284 . S
Cd394 O395 2.240 . S
Cd394 O402 2.223 . S
Cd394 O404 2.297 . S
Cd394 O405 2.439 . S
O395 Cd394 2.240 . S
O395 C400 1.279 1_655 S
O396 Cd393 2.262 1_455 S
O396 C398 1.247 . S
O397 Cd393 2.445 . S
O397 C398 1.208 1_655 S
C398 O396 1.247 . S
C398 O397 1.208 1_455 S
C399 O404 1.247 . S
C399 O405 1.208 . S
C400 O392 1.315 . S
C400 O395 1.279 1_455 S
C401 O402 1.315 . S
C401 O403 1.279 . S
O402 Cd394 2.223 . S
O402 C401 1.315 . S
O403 Cd393 2.284 . S
O403 C401 1.279 . S
O404 Cd394 2.297 . S
O404 C399 1.247 . S
O405 Cd394 2.439 . S
O405 C399 1.208 . S
O406 Cd407 2.223 . S
O406 C414 1.315 . S
Cd407 O406 2.223 . S
Cd407 O410 2.297 . S
Cd407 O411 2.439 . S
Cd407 O417 2.240 . S
Cd408 O409 2.240 . S
Cd408 O416 2.223 . S
Cd408 O418 2.297 . S
Cd408 O419 2.439 . S
O409 Cd408 2.240 . S
O409 C414 1.279 . S
O410 Cd407 2.297 . S
O410 C412 1.247 . S
O411 Cd407 2.439 . S
O411 C412 1.208 . S
C412 O410 1.247 . S
C412 O411 1.208 . S
C413 O418 1.247 . S
C413 O419 1.208 . S
C414 O406 1.315 . S
C414 O409 1.279 . S
C415 O416 1.315 . S
C415 O417 1.279 . S
O416 Cd408 2.223 . S
O416 C415 1.315 . S
O417 Cd407 2.240 . S
O417 C415 1.279 . S
O418 Cd408 2.297 . S
O418 C413 1.247 . S
O419 Cd408 2.439 . S
O419 C413 1.208 . S
O420 Cd421 2.223 . S
O420 C428 1.315 . S
Cd421 O420 2.223 . S
Cd421 O424 2.297 . S
Cd421 O425 2.439 . S
Cd421 O431 2.240 . S
Cd422 O423 2.240 . S
Cd422 O430 2.223 . S
Cd422 O432 2.297 . S
Cd422 O433 2.439 . S
O423 Cd422 2.240 . S
O423 C428 1.279 . S
O424 Cd421 2.297 . S
O424 C426 1.247 . S
O425 Cd421 2.439 . S
O425 C426 1.208 . S
C426 O424 1.247 . S
C426 O425 1.208 . S
C427 O432 1.247 . S
C427 O433 1.208 . S
C428 O420 1.315 . S
C428 O423 1.279 . S
C429 O430 1.315 . S
C429 O431 1.279 . S
O430 Cd422 2.223 . S
O430 C429 1.315 . S
O431 Cd421 2.240 . S
O431 C429 1.279 . S
O432 Cd422 2.297 . S
O432 C427 1.247 . S
O433 Cd422 2.439 . S
O433 C427 1.208 . S
O434 Cd435 2.223 . S
O434 C442 1.315 . S
Cd435 O434 2.223 . S
Cd435 O438 2.297 . S
Cd435 O439 2.439 . S
Cd435 O445 2.240 . S
Cd436 O437 2.240 . S
Cd436 O444 2.223 . S
Cd436 O446 2.297 . S
Cd436 O447 2.439 . S
O437 Cd436 2.240 . S
O437 C442 1.279 . S
O438 Cd435 2.297 . S
O438 C440 1.247 . S
O439 Cd435 2.439 . S
O439 C440 1.208 . S
C440 O438 1.247 . S
C440 O439 1.208 . S
C441 O446 1.247 . S
C441 O447 1.208 . S
C442 O434 1.315 . S
C442 O437 1.279 . S
C443 O444 1.315 . S
C443 O445 1.279 . S
O444 Cd436 2.223 . S
O444 C443 1.315 . S
O445 Cd435 2.240 . S
O445 C443 1.279 . S
O446 Cd436 2.297 . S
O446 C441 1.247 . S
O447 Cd436 2.439 . S
O447 C441 1.208 . S
O448 Cd449 2.198 1_545 S
O448 C456 1.315 . S
Cd449 O448 2.198 1_565 S
Cd449 O452 2.261 1_565 S
Cd449 O453 2.446 . S
Cd449 O459 2.285 . S
Cd450 O451 2.240 . S
Cd450 O458 2.223 . S
Cd450 O460 2.297 . S
Cd450 O461 2.439 . S
O451 Cd450 2.240 . S
O451 C456 1.279 1_565 S
O452 Cd449 2.261 1_545 S
O452 C454 1.247 . S
O453 Cd449 2.446 . S
O453 C454 1.208 1_565 S
C454 O452 1.247 . S
C454 O453 1.208 1_545 S
C455 O460 1.247 . S
C455 O461 1.208 . S
C456 O448 1.315 . S
C456 O451 1.279 1_545 S
C457 O458 1.315 . S
C457 O459 1.279 . S
O458 Cd450 2.223 . S
O458 C457 1.315 . S
O459 Cd449 2.285 . S
O459 C457 1.279 . S
O460 Cd450 2.297 . S
O460 C455 1.247 . S
O461 Cd450 2.439 . S
O461 C455 1.208 . S
O462 Cd463 2.223 . S
O462 C470 1.315 . S
Cd463 O462 2.223 . S
Cd463 O466 2.297 . S
Cd463 O467 2.439 . S
Cd463 O473 2.240 . S
Cd464 O465 2.240 . S
Cd464 O472 2.223 . S
Cd464 O474 2.297 . S
Cd464 O475 2.439 . S
O465 Cd464 2.240 . S
O465 C470 1.279 . S
O466 Cd463 2.297 . S
O466 C468 1.247 . S
O467 Cd463 2.439 . S
O467 C468 1.208 . S
C468 O466 1.247 . S
C468 O467 1.208 . S
C469 O474 1.247 . S
C469 O475 1.208 . S
C470 O462 1.315 . S
C470 O465 1.279 . S
C471 O472 1.315 . S
C471 O473 1.279 . S
O472 Cd464 2.223 . S
O472 C471 1.315 . S
O473 Cd463 2.240 . S
O473 C471 1.279 . S
O474 Cd464 2.297 . S
O474 C469 1.247 . S
O475 Cd464 2.439 . S
O475 C469 1.208 . S
O476 Cd477 2.198 1_565 S
O476 C484 1.315 . S
Cd477 O476 2.198 1_545 S
Cd477 O480 2.261 1_545 S
Cd477 O481 2.445 . S
Cd477 O487 2.284 . S
Cd478 O479 2.240 . S
Cd478 O486 2.223 . S
Cd478 O488 2.297 . S
Cd478 O489 2.439 . S
O479 Cd478 2.240 . S
O479 C484 1.279 1_545 S
O480 Cd477 2.261 1_565 S
O480 C482 1.247 . S
O481 Cd477 2.445 . S
O481 C482 1.208 1_545 S
C482 O480 1.247 . S
C482 O481 1.208 1_565 S
C483 O488 1.247 . S
C483 O489 1.208 . S
C484 O476 1.315 . S
C484 O479 1.279 1_565 S
C485 O486 1.315 . S
C485 O487 1.279 . S
O486 Cd478 2.223 . S
O486 C485 1.315 . S
O487 Cd477 2.284 . S
O487 C485 1.279 . S
O488 Cd478 2.297 . S
O488 C483 1.247 . S
O489 Cd478 2.439 . S
O489 C483 1.208 . S
O490 Cd491 2.223 . S
O490 C498 1.315 . S
Cd491 O490 2.223 . S
Cd491 O494 2.297 . S
Cd491 O495 2.439 . S
Cd491 O501 2.240 . S
Cd492 O493 2.240 . S
Cd492 O500 2.223 . S
Cd492 O502 2.297 . S
Cd492 O503 2.439 . S
O493 Cd492 2.240 . S
O493 C498 1.279 . S
O494 Cd491 2.297 . S
O494 C496 1.247 . S
O495 Cd491 2.439 . S
O495 C496 1.208 . S
C496 O494 1.247 . S
C496 O495 1.208 . S
C497 O502 1.247 . S
C497 O503 1.208 . S
C498 O490 1.315 . S
C498 O493 1.279 . S
C499 O500 1.315 . S
C499 O501 1.279 . S
O500 Cd492 2.223 . S
O500 C499 1.315 . S
O501 Cd491 2.240 . S
O501 C499 1.279 . S
O502 Cd492 2.297 . S
O502 C497 1.247 . S
O503 Cd492 2.439 . S
O503 C497 1.208 . S
O504 Cd505 2.198 1_565 S
O504 C512 1.315 . S
Cd505 O504 2.198 1_545 S
Cd505 O508 2.261 1_545 S
Cd505 O509 2.445 . S
Cd505 O515 2.284 . S
Cd506 O507 2.240 . S
Cd506 O514 2.223 . S
Cd506 O516 2.297 . S
Cd506 O517 2.439 . S
O507 Cd506 2.240 . S
O507 C512 1.279 1_545 S
O508 Cd505 2.261 1_565 S
O508 C510 1.247 . S
O509 Cd505 2.445 . S
O509 C510 1.208 1_545 S
C510 O508 1.247 . S
C510 O509 1.208 1_565 S
C511 O516 1.247 . S
C511 O517 1.208 . S
C512 O504 1.315 . S
C512 O507 1.279 1_565 S
C513 O514 1.315 . S
C513 O515 1.279 . S
O514 Cd506 2.223 . S
O514 C513 1.315 . S
O515 Cd505 2.284 . S
O515 C513 1.279 . S
O516 Cd506 2.297 . S
O516 C511 1.247 . S
O517 Cd506 2.439 . S
O517 C511 1.208 . S
O518 Cd519 2.223 . S
O518 C526 1.315 . S
Cd519 O518 2.223 . S
Cd519 O522 2.297 . S
Cd519 O523 2.439 . S
Cd519 O529 2.240 . S
Cd520 O521 2.240 . S
Cd520 O528 2.223 . S
Cd520 O530 2.297 . S
Cd520 O531 2.439 . S
O521 Cd520 2.240 . S
O521 C526 1.279 . S
O522 Cd519 2.297 . S
O522 C524 1.247 . S
O523 Cd519 2.439 . S
O523 C524 1.208 . S
C524 O522 1.247 . S
C524 O523 1.208 . S
C525 O530 1.247 . S
C525 O531 1.208 . S
C526 O518 1.315 . S
C526 O521 1.279 . S
C527 O528 1.315 . S
C527 O529 1.279 . S
O528 Cd520 2.223 . S
O528 C527 1.315 . S
O529 Cd519 2.240 . S
O529 C527 1.279 . S
O530 Cd520 2.297 . S
O530 C525 1.247 . S
O531 Cd520 2.439 . S
O531 C525 1.208 . S
O532 Cd533 2.198 1_545 S
O532 C540 1.315 . S
Cd533 O532 2.198 1_565 S
Cd533 O536 2.262 1_565 S
Cd533 O537 2.445 . S
Cd533 O543 2.284 . S
Cd534 O535 2.240 . S
Cd534 O542 2.223 . S
Cd534 O544 2.297 . S
Cd534 O545 2.439 . S
O535 Cd534 2.240 . S
O535 C540 1.279 1_565 S
O536 Cd533 2.262 1_545 S
O536 C538 1.247 . S
O537 Cd533 2.445 . S
O537 C538 1.208 1_565 S
C538 O536 1.247 . S
C538 O537 1.208 1_545 S
C539 O544 1.247 . S
C539 O545 1.208 . S
C540 O532 1.315 . S
C540 O535 1.279 1_545 S
C541 O542 1.315 . S
C541 O543 1.279 . S
O542 Cd534 2.223 . S
O542 C541 1.315 . S
O543 Cd533 2.284 . S
O543 C541 1.279 . S
O544 Cd534 2.297 . S
O544 C539 1.247 . S
O545 Cd534 2.439 . S
O545 C539 1.208 . S
O546 Cd547 2.223 . S
O546 C554 1.315 . S
Cd547 O546 2.223 . S
Cd547 O550 2.297 . S
Cd547 O551 2.439 . S
Cd547 O557 2.240 . S
Cd548 O549 2.240 . S
Cd548 O556 2.223 . S
Cd548 O558 2.297 . S
Cd548 O559 2.439 . S
O549 Cd548 2.240 . S
O549 C554 1.279 . S
O550 Cd547 2.297 . S
O550 C552 1.247 . S
O551 Cd547 2.439 . S
O551 C552 1.208 . S
C552 O550 1.247 . S
C552 O551 1.208 . S
C553 O558 1.247 . S
C553 O559 1.208 . S
C554 O546 1.315 . S
C554 O549 1.279 . S
C555 O556 1.315 . S
C555 O557 1.279 . S
O556 Cd548 2.223 . S
O556 C555 1.315 . S
O557 Cd547 2.240 . S
O557 C555 1.279 . S
O558 Cd548 2.297 . S
O558 C553 1.247 . S
O559 Cd548 2.439 . S
O559 C553 1.208 . S
O560 Cd561 2.198 1_554 S
O560 C568 1.315 . S
Cd561 O560 2.198 1_556 S
Cd561 O564 2.261 1_556 S
Cd561 O565 2.446 . S
Cd561 O571 2.285 . S
Cd562 O563 2.240 . S
Cd562 O570 2.223 . S
Cd562 O572 2.297 . S
Cd562 O573 2.439 . S
O563 Cd562 2.240 . S
O563 C568 1.279 1_556 S
O564 Cd561 2.261 1_554 S
O564 C566 1.247 . S
O565 Cd561 2.446 . S
O565 C566 1.208 1_556 S
C566 O564 1.247 . S
C566 O565 1.208 1_554 S
C567 O572 1.247 . S
C567 O573 1.208 . S
C568 O560 1.315 . S
C568 O563 1.279 1_554 S
C569 O570 1.315 . S
C569 O571 1.279 . S
O570 Cd562 2.223 . S
O570 C569 1.315 . S
O571 Cd561 2.285 . S
O571 C569 1.279 . S
O572 Cd562 2.297 . S
O572 C567 1.247 . S
O573 Cd562 2.439 . S
O573 C567 1.208 . S
O574 Cd575 2.198 1_556 S
O574 C582 1.315 . S
Cd575 O574 2.198 1_554 S
Cd575 O578 2.261 1_554 S
Cd575 O579 2.445 . S
Cd575 O585 2.284 . S
Cd576 O577 2.240 . S
Cd576 O584 2.223 . S
Cd576 O586 2.297 . S
Cd576 O587 2.439 . S
O577 Cd576 2.240 . S
O577 C582 1.279 1_554 S
O578 Cd575 2.261 1_556 S
O578 C580 1.247 . S
O579 Cd575 2.445 . S
O579 C580 1.208 1_554 S
C580 O578 1.247 . S
C580 O579 1.208 1_556 S
C581 O586 1.247 . S
C581 O587 1.208 . S
C582 O574 1.315 . S
C582 O577 1.279 1_556 S
C583 O584 1.315 . S
C583 O585 1.279 . S
O584 Cd576 2.223 . S
O584 C583 1.315 . S
O585 Cd575 2.284 . S
O585 C583 1.279 . S
O586 Cd576 2.297 . S
O586 C581 1.247 . S
O587 Cd576 2.439 . S
O587 C581 1.208 . S
O588 Cd589 2.223 . S
O588 C596 1.315 . S
Cd589 O588 2.223 . S
Cd589 O592 2.297 . S
Cd589 O593 2.439 . S
Cd589 O599 2.240 . S
Cd590 O591 2.240 . S
Cd590 O598 2.223 . S
Cd590 O600 2.297 . S
Cd590 O601 2.439 . S
O591 Cd590 2.240 . S
O591 C596 1.279 . S
O592 Cd589 2.297 . S
O592 C594 1.247 . S
O593 Cd589 2.439 . S
O593 C594 1.208 . S
C594 O592 1.247 . S
C594 O593 1.208 . S
C595 O600 1.247 . S
C595 O601 1.208 . S
C596 O588 1.315 . S
C596 O591 1.279 . S
C597 O598 1.315 . S
C597 O599 1.279 . S
O598 Cd590 2.223 . S
O598 C597 1.315 . S
O599 Cd589 2.240 . S
O599 C597 1.279 . S
O600 Cd590 2.297 . S
O600 C595 1.247 . S
O601 Cd590 2.439 . S
O601 C595 1.208 . S
O602 Cd603 2.223 . S
O602 C610 1.315 . S
Cd603 O602 2.223 . S
Cd603 O606 2.297 . S
Cd603 O607 2.439 . S
Cd603 O613 2.240 . S
Cd604 O605 2.240 . S
Cd604 O612 2.223 . S
Cd604 O614 2.297 . S
Cd604 O615 2.439 . S
O605 Cd604 2.240 . S
O605 C610 1.279 . S
O606 Cd603 2.297 . S
O606 C608 1.247 . S
O607 Cd603 2.439 . S
O607 C608 1.208 . S
C608 O606 1.247 . S
C608 O607 1.208 . S
C609 O614 1.247 . S
C609 O615 1.208 . S
C610 O602 1.315 . S
C610 O605 1.279 . S
C611 O612 1.315 . S
C611 O613 1.279 . S
O612 Cd604 2.223 . S
O612 C611 1.315 . S
O613 Cd603 2.240 . S
O613 C611 1.279 . S
O614 Cd604 2.297 . S
O614 C609 1.247 . S
O615 Cd604 2.439 . S
O615 C609 1.208 . S
O616 Cd617 2.223 . S
O616 C624 1.315 . S
Cd617 O616 2.223 . S
Cd617 O620 2.297 . S
Cd617 O621 2.439 . S
Cd617 O627 2.240 . S
Cd618 O619 2.240 . S
Cd618 O626 2.223 . S
Cd618 O628 2.297 . S
Cd618 O629 2.439 . S
O619 Cd618 2.240 . S
O619 C624 1.279 . S
O620 Cd617 2.297 . S
O620 C622 1.247 . S
O621 Cd617 2.439 . S
O621 C622 1.208 . S
C622 O620 1.247 . S
C622 O621 1.208 . S
C623 O628 1.247 . S
C623 O629 1.208 . S
C624 O616 1.315 . S
C624 O619 1.279 . S
C625 O626 1.315 . S
C625 O627 1.279 . S
O626 Cd618 2.223 . S
O626 C625 1.315 . S
O627 Cd617 2.240 . S
O627 C625 1.279 . S
O628 Cd618 2.297 . S
O628 C623 1.247 . S
O629 Cd618 2.439 . S
O629 C623 1.208 . S
O630 Cd631 2.223 . S
O630 C638 1.315 . S
Cd631 O630 2.223 . S
Cd631 O634 2.297 . S
Cd631 O635 2.439 . S
Cd631 O641 2.240 . S
Cd632 O633 2.240 . S
Cd632 O640 2.223 . S
Cd632 O642 2.297 . S
Cd632 O643 2.439 . S
O633 Cd632 2.240 . S
O633 C638 1.279 . S
O634 Cd631 2.297 . S
O634 C636 1.247 . S
O635 Cd631 2.439 . S
O635 C636 1.208 . S
C636 O634 1.247 . S
C636 O635 1.208 . S
C637 O642 1.247 . S
C637 O643 1.208 . S
C638 O630 1.315 . S
C638 O633 1.279 . S
C639 O640 1.315 . S
C639 O641 1.279 . S
O640 Cd632 2.223 . S
O640 C639 1.315 . S
O641 Cd631 2.240 . S
O641 C639 1.279 . S
O642 Cd632 2.297 . S
O642 C637 1.247 . S
O643 Cd632 2.439 . S
O643 C637 1.208 . S
O644 Cd645 2.223 . S
O644 C652 1.315 . S
Cd645 O644 2.223 . S
Cd645 O648 2.297 . S
Cd645 O649 2.439 . S
Cd645 O655 2.240 . S
Cd646 O647 2.240 . S
Cd646 O654 2.223 . S
Cd646 O656 2.297 . S
Cd646 O657 2.439 . S
O647 Cd646 2.240 . S
O647 C652 1.279 . S
O648 Cd645 2.297 . S
O648 C650 1.247 . S
O649 Cd645 2.439 . S
O649 C650 1.208 . S
C650 O648 1.247 . S
C650 O649 1.208 . S
C651 O656 1.247 . S
C651 O657 1.208 . S
C652 O644 1.315 . S
C652 O647 1.279 . S
C653 O654 1.315 . S
C653 O655 1.279 . S
O654 Cd646 2.223 . S
O654 C653 1.315 . S
O655 Cd645 2.240 . S
O655 C653 1.279 . S
O656 Cd646 2.297 . S
O656 C651 1.247 . S
O657 Cd646 2.439 . S
O657 C651 1.208 . S
O658 Cd659 2.223 . S
O658 C666 1.315 . S
Cd659 O658 2.223 . S
Cd659 O662 2.297 . S
Cd659 O663 2.439 . S
Cd659 O669 2.240 . S
Cd660 O661 2.240 . S
Cd660 O668 2.223 . S
Cd660 O670 2.297 . S
Cd660 O671 2.439 . S
O661 Cd660 2.240 . S
O661 C666 1.279 . S
O662 Cd659 2.297 . S
O662 C664 1.247 . S
O663 Cd659 2.439 . S
O663 C664 1.208 . S
C664 O662 1.247 . S
C664 O663 1.208 . S
C665 O670 1.247 . S
C665 O671 1.208 . S
C666 O658 1.315 . S
C666 O661 1.279 . S
C667 O668 1.315 . S
C667 O669 1.279 . S
O668 Cd660 2.223 . S
O668 C667 1.315 . S
O669 Cd659 2.240 . S
O669 C667 1.279 . S
O670 Cd660 2.297 . S
O670 C665 1.247 . S
O671 Cd660 2.439 . S
O671 C665 1.208 . S
O672 Cd673 2.223 . S
O672 C680 1.315 . S
Cd673 O672 2.223 . S
Cd673 O676 2.297 . S
Cd673 O677 2.439 . S
Cd673 O683 2.240 . S
Cd674 O675 2.240 . S
Cd674 O682 2.223 . S
Cd674 O684 2.297 . S
Cd674 O685 2.439 . S
O675 Cd674 2.240 . S
O675 C680 1.279 . S
O676 Cd673 2.297 . S
O676 C678 1.247 . S
O677 Cd673 2.439 . S
O677 C678 1.208 . S
C678 O676 1.247 . S
C678 O677 1.208 . S
C679 O684 1.247 . S
C679 O685 1.208 . S
C680 O672 1.315 . S
C680 O675 1.279 . S
C681 O682 1.315 . S
C681 O683 1.279 . S
O682 Cd674 2.223 . S
O682 C681 1.315 . S
O683 Cd673 2.240 . S
O683 C681 1.279 . S
O684 Cd674 2.297 . S
O684 C679 1.247 . S
O685 Cd674 2.439 . S
O685 C679 1.208 . S
O686 Cd687 2.223 . S
O686 C694 1.315 . S
Cd687 O686 2.223 . S
Cd687 O690 2.297 . S
Cd687 O691 2.439 . S
Cd687 O697 2.240 . S
Cd688 O689 2.240 . S
Cd688 O696 2.223 . S
Cd688 O698 2.297 . S
Cd688 O699 2.439 . S
O689 Cd688 2.240 . S
O689 C694 1.279 . S
O690 Cd687 2.297 . S
O690 C692 1.247 . S
O691 Cd687 2.439 . S
O691 C692 1.208 . S
C692 O690 1.247 . S
C692 O691 1.208 . S
C693 O698 1.247 . S
C693 O699 1.208 . S
C694 O686 1.315 . S
C694 O689 1.279 . S
C695 O696 1.315 . S
C695 O697 1.279 . S
O696 Cd688 2.223 . S
O696 C695 1.315 . S
O697 Cd687 2.240 . S
O697 C695 1.279 . S
O698 Cd688 2.297 . S
O698 C693 1.247 . S
O699 Cd688 2.439 . S
O699 C693 1.208 . S
O700 Cd701 2.198 1_455 S
O700 C708 1.315 . S
Cd701 O700 2.198 1_655 S
Cd701 O704 2.261 1_655 S
Cd701 O705 2.445 . S
Cd701 O711 2.284 . S
Cd702 O703 2.240 . S
Cd702 O710 2.223 . S
Cd702 O712 2.297 . S
Cd702 O713 2.439 . S
O703 Cd702 2.240 . S
O703 C708 1.279 1_655 S
O704 Cd701 2.261 1_455 S
O704 C706 1.247 . S
O705 Cd701 2.445 . S
O705 C706 1.208 1_655 S
C706 O704 1.247 . S
C706 O705 1.208 1_455 S
C707 O712 1.247 . S
C707 O713 1.208 . S
C708 O700 1.315 . S
C708 O703 1.279 1_455 S
C709 O710 1.315 . S
C709 O711 1.279 . S
O710 Cd702 2.223 . S
O710 C709 1.315 . S
O711 Cd701 2.284 . S
O711 C709 1.279 . S
O712 Cd702 2.297 . S
O712 C707 1.247 . S
O713 Cd702 2.439 . S
O713 C707 1.208 . S
O714 Cd715 2.223 . S
O714 C722 1.315 . S
Cd715 O714 2.223 . S
Cd715 O718 2.297 . S
Cd715 O719 2.439 . S
Cd715 O725 2.240 . S
Cd716 O717 2.240 . S
Cd716 O724 2.223 . S
Cd716 O726 2.297 . S
Cd716 O727 2.439 . S
O717 Cd716 2.240 . S
O717 C722 1.279 . S
O718 Cd715 2.297 . S
O718 C720 1.247 . S
O719 Cd715 2.439 . S
O719 C720 1.208 . S
C720 O718 1.247 . S
C720 O719 1.208 . S
C721 O726 1.247 . S
C721 O727 1.208 . S
C722 O714 1.315 . S
C722 O717 1.279 . S
C723 O724 1.315 . S
C723 O725 1.279 . S
O724 Cd716 2.223 . S
O724 C723 1.315 . S
O725 Cd715 2.240 . S
O725 C723 1.279 . S
O726 Cd716 2.297 . S
O726 C721 1.247 . S
O727 Cd716 2.439 . S
O727 C721 1.208 . S
O728 Cd729 2.223 . S
O728 C736 1.315 . S
Cd729 O728 2.223 . S
Cd729 O732 2.297 . S
Cd729 O733 2.439 . S
Cd729 O739 2.240 . S
Cd730 O731 2.240 . S
Cd730 O738 2.223 . S
Cd730 O740 2.297 . S
Cd730 O741 2.439 . S
O731 Cd730 2.240 . S
O731 C736 1.279 . S
O732 Cd729 2.297 . S
O732 C734 1.247 . S
O733 Cd729 2.439 . S
O733 C734 1.208 . S
C734 O732 1.247 . S
C734 O733 1.208 . S
C735 O740 1.247 . S
C735 O741 1.208 . S
C736 O728 1.315 . S
C736 O731 1.279 . S
C737 O738 1.315 . S
C737 O739 1.279 . S
O738 Cd730 2.223 . S
O738 C737 1.315 . S
O739 Cd729 2.240 . S
O739 C737 1.279 . S
O740 Cd730 2.297 . S
O740 C735 1.247 . S
O741 Cd730 2.439 . S
O741 C735 1.208 . S
O742 Cd743 2.223 . S
O742 C750 1.315 . S
Cd743 O742 2.223 . S
Cd743 O746 2.297 . S
Cd743 O747 2.439 . S
Cd743 O753 2.240 . S
Cd744 O745 2.240 . S
Cd744 O752 2.223 . S
Cd744 O754 2.297 . S
Cd744 O755 2.439 . S
O745 Cd744 2.240 . S
O745 C750 1.279 . S
O746 Cd743 2.297 . S
O746 C748 1.247 . S
O747 Cd743 2.439 . S
O747 C748 1.208 . S
C748 O746 1.247 . S
C748 O747 1.208 . S
C749 O754 1.247 . S
C749 O755 1.208 . S
C750 O742 1.315 . S
C750 O745 1.279 . S
C751 O752 1.315 . S
C751 O753 1.279 . S
O752 Cd744 2.223 . S
O752 C751 1.315 . S
O753 Cd743 2.240 . S
O753 C751 1.279 . S
O754 Cd744 2.297 . S
O754 C749 1.247 . S
O755 Cd744 2.439 . S
O755 C749 1.208 . S
O756 Cd757 2.198 1_455 S
O756 C764 1.315 . S
Cd757 O756 2.198 1_655 S
Cd757 O760 2.261 1_655 S
Cd757 O761 2.445 . S
Cd757 O767 2.284 . S
Cd758 O759 2.240 . S
Cd758 O766 2.223 . S
Cd758 O768 2.297 . S
Cd758 O769 2.439 . S
O759 Cd758 2.240 . S
O759 C764 1.279 1_655 S
O760 Cd757 2.261 1_455 S
O760 C762 1.247 . S
O761 Cd757 2.445 . S
O761 C762 1.208 1_655 S
C762 O760 1.247 . S
C762 O761 1.208 1_455 S
C763 O768 1.247 . S
C763 O769 1.208 . S
C764 O756 1.315 . S
C764 O759 1.279 1_455 S
C765 O766 1.315 . S
C765 O767 1.279 . S
O766 Cd758 2.223 . S
O766 C765 1.315 . S
O767 Cd757 2.284 . S
O767 C765 1.279 . S
O768 Cd758 2.297 . S
O768 C763 1.247 . S
O769 Cd758 2.439 . S
O769 C763 1.208 . S
O770 Cd771 2.223 . S
O770 C778 1.315 . S
Cd771 O770 2.223 . S
Cd771 O774 2.297 . S
Cd771 O775 2.439 . S
Cd771 O781 2.240 . S
Cd772 O773 2.240 . S
Cd772 O780 2.223 . S
Cd772 O782 2.297 . S
Cd772 O783 2.439 . S
O773 Cd772 2.240 . S
O773 C778 1.279 . S
O774 Cd771 2.297 . S
O774 C776 1.247 . S
O775 Cd771 2.439 . S
O775 C776 1.208 . S
C776 O774 1.247 . S
C776 O775 1.208 . S
C777 O782 1.247 . S
C777 O783 1.208 . S
C778 O770 1.315 . S
C778 O773 1.279 . S
C779 O780 1.315 . S
C779 O781 1.279 . S
O780 Cd772 2.223 . S
O780 C779 1.315 . S
O781 Cd771 2.240 . S
O781 C779 1.279 . S
O782 Cd772 2.297 . S
O782 C777 1.247 . S
O783 Cd772 2.439 . S
O783 C777 1.208 . S
O784 Cd785 2.223 . S
O784 C792 1.315 . S
Cd785 O784 2.223 . S
Cd785 O788 2.297 . S
Cd785 O789 2.439 . S
Cd785 O795 2.240 . S
Cd786 O787 2.240 . S
Cd786 O794 2.223 . S
Cd786 O796 2.297 . S
Cd786 O797 2.439 . S
O787 Cd786 2.240 . S
O787 C792 1.279 . S
O788 Cd785 2.297 . S
O788 C790 1.247 . S
O789 Cd785 2.439 . S
O789 C790 1.208 . S
C790 O788 1.247 . S
C790 O789 1.208 . S
C791 O796 1.247 . S
C791 O797 1.208 . S
C792 O784 1.315 . S
C792 O787 1.279 . S
C793 O794 1.315 . S
C793 O795 1.279 . S
O794 Cd786 2.223 . S
O794 C793 1.315 . S
O795 Cd785 2.240 . S
O795 C793 1.279 . S
O796 Cd786 2.297 . S
O796 C791 1.247 . S
O797 Cd786 2.439 . S
O797 C791 1.208 . S
O798 Cd799 2.223 . S
O798 C806 1.315 . S
Cd799 O798 2.223 . S
Cd799 O802 2.297 . S
Cd799 O803 2.439 . S
Cd799 O809 2.240 . S
Cd800 O801 2.240 . S
Cd800 O808 2.223 . S
Cd800 O810 2.297 . S
Cd800 O811 2.439 . S
O801 Cd800 2.240 . S
O801 C806 1.279 . S
O802 Cd799 2.297 . S
O802 C804 1.247 . S
O803 Cd799 2.439 . S
O803 C804 1.208 . S
C804 O802 1.247 . S
C804 O803 1.208 . S
C805 O810 1.247 . S
C805 O811 1.208 . S
C806 O798 1.315 . S
C806 O801 1.279 . S
C807 O808 1.315 . S
C807 O809 1.279 . S
O808 Cd800 2.223 . S
O808 C807 1.315 . S
O809 Cd799 2.240 . S
O809 C807 1.279 . S
O810 Cd800 2.297 . S
O810 C805 1.247 . S
O811 Cd800 2.439 . S
O811 C805 1.208 . S
O812 Cd813 2.223 . S
O812 C820 1.315 . S
Cd813 O812 2.223 . S
Cd813 O816 2.297 . S
Cd813 O817 2.439 . S
Cd813 O823 2.240 . S
Cd814 O815 2.240 . S
Cd814 O822 2.223 . S
Cd814 O824 2.297 . S
Cd814 O825 2.439 . S
O815 Cd814 2.240 . S
O815 C820 1.279 . S
O816 Cd813 2.297 . S
O816 C818 1.247 . S
O817 Cd813 2.439 . S
O817 C818 1.208 . S
C818 O816 1.247 . S
C818 O817 1.208 . S
C819 O824 1.247 . S
C819 O825 1.208 . S
C820 O812 1.315 . S
C820 O815 1.279 . S
C821 O822 1.315 . S
C821 O823 1.279 . S
O822 Cd814 2.223 . S
O822 C821 1.315 . S
O823 Cd813 2.240 . S
O823 C821 1.279 . S
O824 Cd814 2.297 . S
O824 C819 1.247 . S
O825 Cd814 2.439 . S
O825 C819 1.208 . S
O826 Cd827 2.223 . S
O826 C834 1.315 . S
Cd827 O826 2.223 . S
Cd827 O830 2.297 . S
Cd827 O831 2.439 . S
Cd827 O837 2.240 . S
Cd828 O829 2.240 . S
Cd828 O836 2.223 . S
Cd828 O838 2.297 . S
Cd828 O839 2.439 . S
O829 Cd828 2.240 . S
O829 C834 1.279 . S
O830 Cd827 2.297 . S
O830 C832 1.247 . S
O831 Cd827 2.439 . S
O831 C832 1.208 . S
C832 O830 1.247 . S
C832 O831 1.208 . S
C833 O838 1.247 . S
C833 O839 1.208 . S
C834 O826 1.315 . S
C834 O829 1.279 . S
C835 O836 1.315 . S
C835 O837 1.279 . S
O836 Cd828 2.223 . S
O836 C835 1.315 . S
O837 Cd827 2.240 . S
O837 C835 1.279 . S
O838 Cd828 2.297 . S
O838 C833 1.247 . S
O839 Cd828 2.439 . S
O839 C833 1.208 . S
O840 Cd841 2.223 . S
O840 C848 1.315 . S
Cd841 O840 2.223 . S
Cd841 O844 2.297 . S
Cd841 O845 2.439 . S
Cd841 O851 2.240 . S
Cd842 O843 2.240 . S
Cd842 O850 2.223 . S
Cd842 O852 2.297 . S
Cd842 O853 2.439 . S
O843 Cd842 2.240 . S
O843 C848 1.279 . S
O844 Cd841 2.297 . S
O844 C846 1.247 . S
O845 Cd841 2.439 . S
O845 C846 1.208 . S
C846 O844 1.247 . S
C846 O845 1.208 . S
C847 O852 1.247 . S
C847 O853 1.208 . S
C848 O840 1.315 . S
C848 O843 1.279 . S
C849 O850 1.315 . S
C849 O851 1.279 . S
O850 Cd842 2.223 . S
O850 C849 1.315 . S
O851 Cd841 2.240 . S
O851 C849 1.279 . S
O852 Cd842 2.297 . S
O852 C847 1.247 . S
O853 Cd842 2.439 . S
O853 C847 1.208 . S
O854 Cd855 2.223 . S
O854 C862 1.315 . S
Cd855 O854 2.223 . S
Cd855 O858 2.297 . S
Cd855 O859 2.439 . S
Cd855 O865 2.240 . S
Cd856 O857 2.240 . S
Cd856 O864 2.223 . S
Cd856 O866 2.297 . S
Cd856 O867 2.439 . S
O857 Cd856 2.240 . S
O857 C862 1.279 . S
O858 Cd855 2.297 . S
O858 C860 1.247 . S
O859 Cd855 2.439 . S
O859 C860 1.208 . S
C860 O858 1.247 . S
C860 O859 1.208 . S
C861 O866 1.247 . S
C861 O867 1.208 . S
C862 O854 1.315 . S
C862 O857 1.279 . S
C863 O864 1.315 . S
C863 O865 1.279 . S
O864 Cd856 2.223 . S
O864 C863 1.315 . S
O865 Cd855 2.240 . S
O865 C863 1.279 . S
O866 Cd856 2.297 . S
O866 C861 1.247 . S
O867 Cd856 2.439 . S
O867 C861 1.208 . S
O868 Cd869 2.223 . S
O868 C876 1.315 . S
Cd869 O868 2.223 . S
Cd869 O872 2.297 . S
Cd869 O873 2.439 . S
Cd869 O879 2.240 . S
Cd870 O871 2.240 . S
Cd870 O878 2.223 . S
Cd870 O880 2.297 . S
Cd870 O881 2.439 . S
O871 Cd870 2.240 . S
O871 C876 1.279 . S
O872 Cd869 2.297 . S
O872 C874 1.247 . S
O873 Cd869 2.439 . S
O873 C874 1.208 . S
C874 O872 1.247 . S
C874 O873 1.208 . S
C875 O880 1.247 . S
C875 O881 1.208 . S
C876 O868 1.315 . S
C876 O871 1.279 . S
C877 O878 1.315 . S
C877 O879 1.279 . S
O878 Cd870 2.223 . S
O878 C877 1.315 . S
O879 Cd869 2.240 . S
O879 C877 1.279 . S
O880 Cd870 2.297 . S
O880 C875 1.247 . S
O881 Cd870 2.439 . S
O881 C875 1.208 . S
O882 Cd883 2.223 . S
O882 C890 1.315 . S
Cd883 O882 2.223 . S
Cd883 O886 2.297 . S
Cd883 O887 2.439 . S
Cd883 O893 2.240 . S
Cd884 O885 2.240 . S
Cd884 O892 2.223 . S
Cd884 O894 2.297 . S
Cd884 O895 2.439 . S
O885 Cd884 2.240 . S
O885 C890 1.279 . S
O886 Cd883 2.297 . S
O886 C888 1.247 . S
O887 Cd883 2.439 . S
O887 C888 1.208 . S
C888 O886 1.247 . S
C888 O887 1.208 . S
C889 O894 1.247 . S
C889 O895 1.208 . S
C890 O882 1.315 . S
C890 O885 1.279 . S
C891 O892 1.315 . S
C891 O893 1.279 . S
O892 Cd884 2.223 . S
O892 C891 1.315 . S
O893 Cd883 2.240 . S
O893 C891 1.279 . S
O894 Cd884 2.297 . S
O894 C889 1.247 . S
O895 Cd884 2.439 . S
O895 C889 1.208 . S
O896 Cd897 2.223 . S
O896 C904 1.315 . S
Cd897 O896 2.223 . S
Cd897 O900 2.297 . S
Cd897 O901 2.439 . S
Cd897 O907 2.240 . S
Cd898 O899 2.240 . S
Cd898 O906 2.223 . S
Cd898 O908 2.297 . S
Cd898 O909 2.439 . S
O899 Cd898 2.240 . S
O899 C904 1.279 . S
O900 Cd897 2.297 . S
O900 C902 1.247 . S
O901 Cd897 2.439 . S
O901 C902 1.208 . S
C902 O900 1.247 . S
C902 O901 1.208 . S
C903 O908 1.247 . S
C903 O909 1.208 . S
C904 O896 1.315 . S
C904 O899 1.279 . S
C905 O906 1.315 . S
C905 O907 1.279 . S
O906 Cd898 2.223 . S
O906 C905 1.315 . S
O907 Cd897 2.240 . S
O907 C905 1.279 . S
O908 Cd898 2.297 . S
O908 C903 1.247 . S
O909 Cd898 2.439 . S
O909 C903 1.208 . S
O910 Cd911 2.223 . S
O910 C918 1.315 . S
Cd911 O910 2.223 . S
Cd911 O914 2.297 . S
Cd911 O915 2.439 . S
Cd911 O921 2.240 . S
Cd912 O913 2.240 . S
Cd912 O920 2.223 . S
Cd912 O922 2.297 . S
Cd912 O923 2.439 . S
O913 Cd912 2.240 . S
O913 C918 1.279 . S
O914 Cd911 2.297 . S
O914 C916 1.247 . S
O915 Cd911 2.439 . S
O915 C916 1.208 . S
C916 O914 1.247 . S
C916 O915 1.208 . S
C917 O922 1.247 . S
C917 O923 1.208 . S
C918 O910 1.315 . S
C918 O913 1.279 . S
C919 O920 1.315 . S
C919 O921 1.279 . S
O920 Cd912 2.223 . S
O920 C919 1.315 . S
O921 Cd911 2.240 . S
O921 C919 1.279 . S
O922 Cd912 2.297 . S
O922 C917 1.247 . S
O923 Cd912 2.439 . S
O923 C917 1.208 . S
O924 Cd925 2.223 . S
O924 C932 1.315 . S
Cd925 O924 2.223 . S
Cd925 O928 2.297 . S
Cd925 O929 2.439 . S
Cd925 O935 2.240 . S
Cd926 O927 2.240 . S
Cd926 O934 2.223 . S
Cd926 O936 2.297 . S
Cd926 O937 2.439 . S
O927 Cd926 2.240 . S
O927 C932 1.279 . S
O928 Cd925 2.297 . S
O928 C930 1.247 . S
O929 Cd925 2.439 . S
O929 C930 1.208 . S
C930 O928 1.247 . S
C930 O929 1.208 . S
C931 O936 1.247 . S
C931 O937 1.208 . S
C932 O924 1.315 . S
C932 O927 1.279 . S
C933 O934 1.315 . S
C933 O935 1.279 . S
O934 Cd926 2.223 . S
O934 C933 1.315 . S
O935 Cd925 2.240 . S
O935 C933 1.279 . S
O936 Cd926 2.297 . S
O936 C931 1.247 . S
O937 Cd926 2.439 . S
O937 C931 1.208 . S
O938 Cd939 2.198 1_554 S
O938 C946 1.315 . S
Cd939 O938 2.198 1_556 S
Cd939 O942 2.261 1_556 S
Cd939 O943 2.445 . S
Cd939 O949 2.284 . S
Cd940 O941 2.240 . S
Cd940 O948 2.223 . S
Cd940 O950 2.297 . S
Cd940 O951 2.439 . S
O941 Cd940 2.240 . S
O941 C946 1.279 1_556 S
O942 Cd939 2.261 1_554 S
O942 C944 1.247 . S
O943 Cd939 2.445 . S
O943 C944 1.208 1_556 S
C944 O942 1.247 . S
C944 O943 1.208 1_554 S
C945 O950 1.247 . S
C945 O951 1.208 . S
C946 O938 1.315 . S
C946 O941 1.279 1_554 S
C947 O948 1.315 . S
C947 O949 1.279 . S
O948 Cd940 2.223 . S
O948 C947 1.315 . S
O949 Cd939 2.284 . S
O949 C947 1.279 . S
O950 Cd940 2.297 . S
O950 C945 1.247 . S
O951 Cd940 2.439 . S
O951 C945 1.208 . S
O952 Cd953 2.223 . S
O952 C960 1.315 . S
Cd953 O952 2.223 . S
Cd953 O956 2.297 . S
Cd953 O957 2.439 . S
Cd953 O963 2.240 . S
Cd954 O955 2.240 . S
Cd954 O962 2.223 . S
Cd954 O964 2.297 . S
Cd954 O965 2.439 . S
O955 Cd954 2.240 . S
O955 C960 1.279 . S
O956 Cd953 2.297 . S
O956 C958 1.247 . S
O957 Cd953 2.439 . S
O957 C958 1.208 . S
C958 O956 1.247 . S
C958 O957 1.208 . S
C959 O964 1.247 . S
C959 O965 1.208 . S
C960 O952 1.315 . S
C960 O955 1.279 . S
C961 O962 1.315 . S
C961 O963 1.279 . S
O962 Cd954 2.223 . S
O962 C961 1.315 . S
O963 Cd953 2.240 . S
O963 C961 1.279 . S
O964 Cd954 2.297 . S
O964 C959 1.247 . S
O965 Cd954 2.439 . S
O965 C959 1.208 . S
O966 Cd967 2.198 1_556 S
O966 C974 1.315 . S
Cd967 O966 2.198 1_554 S
Cd967 O970 2.262 1_554 S
Cd967 O971 2.445 . S
Cd967 O977 2.284 . S
Cd968 O969 2.240 . S
Cd968 O976 2.223 . S
Cd968 O978 2.297 . S
Cd968 O979 2.439 . S
O969 Cd968 2.240 . S
O969 C974 1.279 1_554 S
O970 Cd967 2.262 1_556 S
O970 C972 1.247 . S
O971 Cd967 2.445 . S
O971 C972 1.208 1_554 S
C972 O970 1.247 . S
C972 O971 1.208 1_556 S
C973 O978 1.247 . S
C973 O979 1.208 . S
C974 O966 1.315 . S
C974 O969 1.279 1_556 S
C975 O976 1.315 . S
C975 O977 1.279 . S
O976 Cd968 2.223 . S
O976 C975 1.315 . S
O977 Cd967 2.284 . S
O977 C975 1.279 . S
O978 Cd968 2.297 . S
O978 C973 1.247 . S
O979 Cd968 2.439 . S
O979 C973 1.208 . S
O980 Cd981 2.223 . S
O980 C988 1.315 . S
Cd981 O980 2.223 . S
Cd981 O984 2.297 . S
Cd981 O985 2.439 . S
Cd981 O991 2.240 . S
Cd982 O983 2.240 . S
Cd982 O990 2.223 . S
Cd982 O992 2.297 . S
Cd982 O993 2.439 . S
O983 Cd982 2.240 . S
O983 C988 1.279 . S
O984 Cd981 2.297 . S
O984 C986 1.247 . S
O985 Cd981 2.439 . S
O985 C986 1.208 . S
C986 O984 1.247 . S
C986 O985 1.208 . S
C987 O992 1.247 . S
C987 O993 1.208 . S
C988 O980 1.315 . S
C988 O983 1.279 . S
C989 O990 1.315 . S
C989 O991 1.279 . S
O990 Cd982 2.223 . S
O990 C989 1.315 . S
O991 Cd981 2.240 . S
O991 C989 1.279 . S
O992 Cd982 2.297 . S
O992 C987 1.247 . S
O993 Cd982 2.439 . S
O993 C987 1.208 . S
O994 Cd995 2.223 . S
O994 C1002 1.315 . S
Cd995 O994 2.223 . S
Cd995 O998 2.297 . S
Cd995 O999 2.439 . S
Cd995 O1005 2.240 . S
Cd996 O997 2.240 . S
Cd996 O1004 2.223 . S
Cd996 O1006 2.297 . S
Cd996 O1007 2.439 . S
O997 Cd996 2.240 . S
O997 C1002 1.279 . S
O998 Cd995 2.297 . S
O998 C1000 1.247 . S
O999 Cd995 2.439 . S
O999 C1000 1.208 . S
C1000 O998 1.247 . S
C1000 O999 1.208 . S
C1001 O1006 1.247 . S
C1001 O1007 1.208 . S
C1002 O994 1.315 . S
C1002 O997 1.279 . S
C1003 O1004 1.315 . S
C1003 O1005 1.279 . S
O1004 Cd996 2.223 . S
O1004 C1003 1.315 . S
O1005 Cd995 2.240 . S
O1005 C1003 1.279 . S
O1006 Cd996 2.297 . S
O1006 C1001 1.247 . S
O1007 Cd996 2.439 . S
O1007 C1001 1.208 . S
O1008 Cd1009 2.223 . S
O1008 C1016 1.315 . S
Cd1009 O1008 2.223 . S
Cd1009 O1012 2.297 . S
Cd1009 O1013 2.439 . S
Cd1009 O1019 2.240 . S
Cd1010 O1011 2.240 . S
Cd1010 O1018 2.223 . S
Cd1010 O1020 2.297 . S
Cd1010 O1021 2.439 . S
O1011 Cd1010 2.240 . S
O1011 C1016 1.279 . S
O1012 Cd1009 2.297 . S
O1012 C1014 1.247 . S
O1013 Cd1009 2.439 . S
O1013 C1014 1.208 . S
C1014 O1012 1.247 . S
C1014 O1013 1.208 . S
C1015 O1020 1.247 . S
C1015 O1021 1.208 . S
C1016 O1008 1.315 . S
C1016 O1011 1.279 . S
C1017 O1018 1.315 . S
C1017 O1019 1.279 . S
O1018 Cd1010 2.223 . S
O1018 C1017 1.315 . S
O1019 Cd1009 2.240 . S
O1019 C1017 1.279 . S
O1020 Cd1010 2.297 . S
O1020 C1015 1.247 . S
O1021 Cd1010 2.439 . S
O1021 C1015 1.208 . S
O1022 Cd1023 2.223 . S
O1022 C1030 1.315 . S
Cd1023 O1022 2.223 . S
Cd1023 O1026 2.297 . S
Cd1023 O1027 2.439 . S
Cd1023 O1033 2.240 . S
Cd1024 O1025 2.240 . S
Cd1024 O1032 2.223 . S
Cd1024 O1034 2.297 . S
Cd1024 O1035 2.439 . S
O1025 Cd1024 2.240 . S
O1025 C1030 1.279 . S
O1026 Cd1023 2.297 . S
O1026 C1028 1.247 . S
O1027 Cd1023 2.439 . S
O1027 C1028 1.208 . S
C1028 O1026 1.247 . S
C1028 O1027 1.208 . S
C1029 O1034 1.247 . S
C1029 O1035 1.208 . S
C1030 O1022 1.315 . S
C1030 O1025 1.279 . S
C1031 O1032 1.315 . S
C1031 O1033 1.279 . S
O1032 Cd1024 2.223 . S
O1032 C1031 1.315 . S
O1033 Cd1023 2.240 . S
O1033 C1031 1.279 . S
O1034 Cd1024 2.297 . S
O1034 C1029 1.247 . S
O1035 Cd1024 2.439 . S
O1035 C1029 1.208 . S
O1036 Cd1037 2.198 1_655 S
O1036 C1044 1.315 . S
Cd1037 O1036 2.198 1_455 S
Cd1037 O1040 2.261 1_455 S
Cd1037 O1041 2.445 . S
Cd1037 O1047 2.284 . S
Cd1038 O1039 2.240 . S
Cd1038 O1046 2.223 . S
Cd1038 O1048 2.297 . S
Cd1038 O1049 2.439 . S
O1039 Cd1038 2.240 . S
O1039 C1044 1.279 1_455 S
O1040 Cd1037 2.261 1_655 S
O1040 C1042 1.247 . S
O1041 Cd1037 2.445 . S
O1041 C1042 1.208 1_455 S
C1042 O1040 1.247 . S
C1042 O1041 1.208 1_655 S
C1043 O1048 1.247 . S
C1043 O1049 1.208 . S
C1044 O1036 1.315 . S
C1044 O1039 1.279 1_655 S
C1045 O1046 1.315 . S
C1045 O1047 1.279 . S
O1046 Cd1038 2.223 . S
O1046 C1045 1.315 . S
O1047 Cd1037 2.284 . S
O1047 C1045 1.279 . S
O1048 Cd1038 2.297 . S
O1048 C1043 1.247 . S
O1049 Cd1038 2.439 . S
O1049 C1043 1.208 . S
O1050 Cd1051 2.223 . S
O1050 C1058 1.315 . S
Cd1051 O1050 2.223 . S
Cd1051 O1054 2.297 . S
Cd1051 O1055 2.439 . S
Cd1051 O1061 2.240 . S
Cd1052 O1053 2.240 . S
Cd1052 O1060 2.223 . S
Cd1052 O1062 2.297 . S
Cd1052 O1063 2.439 . S
O1053 Cd1052 2.240 . S
O1053 C1058 1.279 . S
O1054 Cd1051 2.297 . S
O1054 C1056 1.247 . S
O1055 Cd1051 2.439 . S
O1055 C1056 1.208 . S
C1056 O1054 1.247 . S
C1056 O1055 1.208 . S
C1057 O1062 1.247 . S
C1057 O1063 1.208 . S
C1058 O1050 1.315 . S
C1058 O1053 1.279 . S
C1059 O1060 1.315 . S
C1059 O1061 1.279 . S
O1060 Cd1052 2.223 . S
O1060 C1059 1.315 . S
O1061 Cd1051 2.240 . S
O1061 C1059 1.279 . S
O1062 Cd1052 2.297 . S
O1062 C1057 1.247 . S
O1063 Cd1052 2.439 . S
O1063 C1057 1.208 . S
O1064 Cd1065 2.223 . S
O1064 C1072 1.315 . S
Cd1065 O1064 2.223 . S
Cd1065 O1068 2.297 . S
Cd1065 O1069 2.439 . S
Cd1065 O1075 2.240 . S
Cd1066 O1067 2.240 . S
Cd1066 O1074 2.223 . S
Cd1066 O1076 2.297 . S
Cd1066 O1077 2.439 . S
O1067 Cd1066 2.240 . S
O1067 C1072 1.279 . S
O1068 Cd1065 2.297 . S
O1068 C1070 1.247 . S
O1069 Cd1065 2.439 . S
O1069 C1070 1.208 . S
C1070 O1068 1.247 . S
C1070 O1069 1.208 . S
C1071 O1076 1.247 . S
C1071 O1077 1.208 . S
C1072 O1064 1.315 . S
C1072 O1067 1.279 . S
C1073 O1074 1.315 . S
C1073 O1075 1.279 . S
O1074 Cd1066 2.223 . S
O1074 C1073 1.315 . S
O1075 Cd1065 2.240 . S
O1075 C1073 1.279 . S
O1076 Cd1066 2.297 . S
O1076 C1071 1.247 . S
O1077 Cd1066 2.439 . S
O1077 C1071 1.208 . S
O1078 Cd1079 2.223 . S
O1078 C1086 1.315 . S
Cd1079 O1078 2.223 . S
Cd1079 O1082 2.297 . S
Cd1079 O1083 2.439 . S
Cd1079 O1089 2.240 . S
Cd1080 O1081 2.240 . S
Cd1080 O1088 2.223 . S
Cd1080 O1090 2.297 . S
Cd1080 O1091 2.439 . S
O1081 Cd1080 2.240 . S
O1081 C1086 1.279 . S
O1082 Cd1079 2.297 . S
O1082 C1084 1.247 . S
O1083 Cd1079 2.439 . S
O1083 C1084 1.208 . S
C1084 O1082 1.247 . S
C1084 O1083 1.208 . S
C1085 O1090 1.247 . S
C1085 O1091 1.208 . S
C1086 O1078 1.315 . S
C1086 O1081 1.279 . S
C1087 O1088 1.315 . S
C1087 O1089 1.279 . S
O1088 Cd1080 2.223 . S
O1088 C1087 1.315 . S
O1089 Cd1079 2.240 . S
O1089 C1087 1.279 . S
O1090 Cd1080 2.297 . S
O1090 C1085 1.247 . S
O1091 Cd1080 2.439 . S
O1091 C1085 1.208 . S
O1092 Cd1093 2.198 1_655 S
O1092 C1100 1.315 . S
Cd1093 O1092 2.198 1_455 S
Cd1093 O1096 2.261 1_455 S
Cd1093 O1097 2.445 . S
Cd1093 O1103 2.284 . S
Cd1094 O1095 2.240 . S
Cd1094 O1102 2.223 . S
Cd1094 O1104 2.297 . S
Cd1094 O1105 2.439 . S
O1095 Cd1094 2.240 . S
O1095 C1100 1.279 1_455 S
O1096 Cd1093 2.261 1_655 S
O1096 C1098 1.247 . S
O1097 Cd1093 2.445 . S
O1097 C1098 1.208 1_455 S
C1098 O1096 1.247 . S
C1098 O1097 1.208 1_655 S
C1099 O1104 1.247 . S
C1099 O1105 1.208 . S
C1100 O1092 1.315 . S
C1100 O1095 1.279 1_655 S
C1101 O1102 1.315 . S
C1101 O1103 1.279 . S
O1102 Cd1094 2.223 . S
O1102 C1101 1.315 . S
O1103 Cd1093 2.284 . S
O1103 C1101 1.279 . S
O1104 Cd1094 2.297 . S
O1104 C1099 1.247 . S
O1105 Cd1094 2.439 . S
O1105 C1099 1.208 . S
O1106 Cd1107 2.223 . S
O1106 C1114 1.315 . S
Cd1107 O1106 2.223 . S
Cd1107 O1110 2.297 . S
Cd1107 O1111 2.439 . S
Cd1107 O1117 2.240 . S
Cd1108 O1109 2.240 . S
Cd1108 O1116 2.223 . S
Cd1108 O1118 2.297 . S
Cd1108 O1119 2.439 . S
O1109 Cd1108 2.240 . S
O1109 C1114 1.279 . S
O1110 Cd1107 2.297 . S
O1110 C1112 1.247 . S
O1111 Cd1107 2.439 . S
O1111 C1112 1.208 . S
C1112 O1110 1.247 . S
C1112 O1111 1.208 . S
C1113 O1118 1.247 . S
C1113 O1119 1.208 . S
C1114 O1106 1.315 . S
C1114 O1109 1.279 . S
C1115 O1116 1.315 . S
C1115 O1117 1.279 . S
O1116 Cd1108 2.223 . S
O1116 C1115 1.315 . S
O1117 Cd1107 2.240 . S
O1117 C1115 1.279 . S
O1118 Cd1108 2.297 . S
O1118 C1113 1.247 . S
O1119 Cd1108 2.439 . S
O1119 C1113 1.208 . S
O1120 Cd1121 2.223 . S
O1120 C1128 1.315 . S
Cd1121 O1120 2.223 . S
Cd1121 O1124 2.297 . S
Cd1121 O1125 2.439 . S
Cd1121 O1131 2.240 . S
Cd1122 O1123 2.240 . S
Cd1122 O1130 2.223 . S
Cd1122 O1132 2.297 . S
Cd1122 O1133 2.439 . S
O1123 Cd1122 2.240 . S
O1123 C1128 1.279 . S
O1124 Cd1121 2.297 . S
O1124 C1126 1.247 . S
O1125 Cd1121 2.439 . S
O1125 C1126 1.208 . S
C1126 O1124 1.247 . S
C1126 O1125 1.208 . S
C1127 O1132 1.247 . S
C1127 O1133 1.208 . S
C1128 O1120 1.315 . S
C1128 O1123 1.279 . S
C1129 O1130 1.315 . S
C1129 O1131 1.279 . S
O1130 Cd1122 2.223 . S
O1130 C1129 1.315 . S
O1131 Cd1121 2.240 . S
O1131 C1129 1.279 . S
O1132 Cd1122 2.297 . S
O1132 C1127 1.247 . S
O1133 Cd1122 2.439 . S
O1133 C1127 1.208 . S
O1134 Cd1135 2.223 . S
O1134 C1142 1.315 . S
Cd1135 O1134 2.223 . S
Cd1135 O1138 2.297 . S
Cd1135 O1139 2.439 . S
Cd1135 O1145 2.240 . S
Cd1136 O1137 2.240 . S
Cd1136 O1144 2.223 . S
Cd1136 O1146 2.297 . S
Cd1136 O1147 2.439 . S
O1137 Cd1136 2.240 . S
O1137 C1142 1.279 . S
O1138 Cd1135 2.297 . S
O1138 C1140 1.247 . S
O1139 Cd1135 2.439 . S
O1139 C1140 1.208 . S
C1140 O1138 1.247 . S
C1140 O1139 1.208 . S
C1141 O1146 1.247 . S
C1141 O1147 1.208 . S
C1142 O1134 1.315 . S
C1142 O1137 1.279 . S
C1143 O1144 1.315 . S
C1143 O1145 1.279 . S
O1144 Cd1136 2.223 . S
O1144 C1143 1.315 . S
O1145 Cd1135 2.240 . S
O1145 C1143 1.279 . S
O1146 Cd1136 2.297 . S
O1146 C1141 1.247 . S
O1147 Cd1136 2.439 . S
O1147 C1141 1.208 . S
O1148 Cd1149 2.223 . S
O1148 C1156 1.315 . S
Cd1149 O1148 2.223 . S
Cd1149 O1152 2.297 . S
Cd1149 O1153 2.439 . S
Cd1149 O1159 2.240 . S
Cd1150 O1151 2.240 . S
Cd1150 O1158 2.223 . S
Cd1150 O1160 2.297 . S
Cd1150 O1161 2.439 . S
O1151 Cd1150 2.240 . S
O1151 C1156 1.279 . S
O1152 Cd1149 2.297 . S
O1152 C1154 1.247 . S
O1153 Cd1149 2.439 . S
O1153 C1154 1.208 . S
C1154 O1152 1.247 . S
C1154 O1153 1.208 . S
C1155 O1160 1.247 . S
C1155 O1161 1.208 . S
C1156 O1148 1.315 . S
C1156 O1151 1.279 . S
C1157 O1158 1.315 . S
C1157 O1159 1.279 . S
O1158 Cd1150 2.223 . S
O1158 C1157 1.315 . S
O1159 Cd1149 2.240 . S
O1159 C1157 1.279 . S
O1160 Cd1150 2.297 . S
O1160 C1155 1.247 . S
O1161 Cd1150 2.439 . S
O1161 C1155 1.208 . S
O1162 Cd1163 2.223 . S
O1162 C1170 1.315 . S
Cd1163 O1162 2.223 . S
Cd1163 O1166 2.297 . S
Cd1163 O1167 2.439 . S
Cd1163 O1173 2.240 . S
Cd1164 O1165 2.240 . S
Cd1164 O1172 2.223 . S
Cd1164 O1174 2.297 . S
Cd1164 O1175 2.439 . S
O1165 Cd1164 2.240 . S
O1165 C1170 1.279 . S
O1166 Cd1163 2.297 . S
O1166 C1168 1.247 . S
O1167 Cd1163 2.439 . S
O1167 C1168 1.208 . S
C1168 O1166 1.247 . S
C1168 O1167 1.208 . S
C1169 O1174 1.247 . S
C1169 O1175 1.208 . S
C1170 O1162 1.315 . S
C1170 O1165 1.279 . S
C1171 O1172 1.315 . S
C1171 O1173 1.279 . S
O1172 Cd1164 2.223 . S
O1172 C1171 1.315 . S
O1173 Cd1163 2.240 . S
O1173 C1171 1.279 . S
O1174 Cd1164 2.297 . S
O1174 C1169 1.247 . S
O1175 Cd1164 2.439 . S
O1175 C1169 1.208 . S
O1176 Cd1177 2.223 . S
O1176 C1184 1.315 . S
Cd1177 O1176 2.223 . S
Cd1177 O1180 2.297 . S
Cd1177 O1181 2.439 . S
Cd1177 O1187 2.240 . S
Cd1178 O1179 2.240 . S
Cd1178 O1186 2.223 . S
Cd1178 O1188 2.297 . S
Cd1178 O1189 2.439 . S
O1179 Cd1178 2.240 . S
O1179 C1184 1.279 . S
O1180 Cd1177 2.297 . S
O1180 C1182 1.247 . S
O1181 Cd1177 2.439 . S
O1181 C1182 1.208 . S
C1182 O1180 1.247 . S
C1182 O1181 1.208 . S
C1183 O1188 1.247 . S
C1183 O1189 1.208 . S
C1184 O1176 1.315 . S
C1184 O1179 1.279 . S
C1185 O1186 1.315 . S
C1185 O1187 1.279 . S
O1186 Cd1178 2.223 . S
O1186 C1185 1.315 . S
O1187 Cd1177 2.240 . S
O1187 C1185 1.279 . S
O1188 Cd1178 2.297 . S
O1188 C1183 1.247 . S
O1189 Cd1178 2.439 . S
O1189 C1183 1.208 . S
O1190 Cd1191 2.223 . S
O1190 C1198 1.315 . S
Cd1191 O1190 2.223 . S
Cd1191 O1194 2.297 . S
Cd1191 O1195 2.439 . S
Cd1191 O1201 2.240 . S
Cd1192 O1193 2.240 . S
Cd1192 O1200 2.223 . S
Cd1192 O1202 2.297 . S
Cd1192 O1203 2.439 . S
O1193 Cd1192 2.240 . S
O1193 C1198 1.279 . S
O1194 Cd1191 2.297 . S
O1194 C1196 1.247 . S
O1195 Cd1191 2.439 . S
O1195 C1196 1.208 . S
C1196 O1194 1.247 . S
C1196 O1195 1.208 . S
C1197 O1202 1.247 . S
C1197 O1203 1.208 . S
C1198 O1190 1.315 . S
C1198 O1193 1.279 . S
C1199 O1200 1.315 . S
C1199 O1201 1.279 . S
O1200 Cd1192 2.223 . S
O1200 C1199 1.315 . S
O1201 Cd1191 2.240 . S
O1201 C1199 1.279 . S
O1202 Cd1192 2.297 . S
O1202 C1197 1.247 . S
O1203 Cd1192 2.439 . S
O1203 C1197 1.208 . S
O1204 Cd1205 2.223 . S
O1204 C1212 1.315 . S
Cd1205 O1204 2.223 . S
Cd1205 O1208 2.297 . S
Cd1205 O1209 2.439 . S
Cd1205 O1215 2.240 . S
Cd1206 O1207 2.240 . S
Cd1206 O1214 2.223 . S
Cd1206 O1216 2.297 . S
Cd1206 O1217 2.439 . S
O1207 Cd1206 2.240 . S
O1207 C1212 1.279 . S
O1208 Cd1205 2.297 . S
O1208 C1210 1.247 . S
O1209 Cd1205 2.439 . S
O1209 C1210 1.208 . S
C1210 O1208 1.247 . S
C1210 O1209 1.208 . S
C1211 O1216 1.247 . S
C1211 O1217 1.208 . S
C1212 O1204 1.315 . S
C1212 O1207 1.279 . S
C1213 O1214 1.315 . S
C1213 O1215 1.279 . S
O1214 Cd1206 2.223 . S
O1214 C1213 1.315 . S
O1215 Cd1205 2.240 . S
O1215 C1213 1.279 . S
O1216 Cd1206 2.297 . S
O1216 C1211 1.247 . S
O1217 Cd1206 2.439 . S
O1217 C1211 1.208 . S
O1218 Cd1219 2.223 . S
O1218 C1226 1.315 . S
Cd1219 O1218 2.223 . S
Cd1219 O1222 2.297 . S
Cd1219 O1223 2.439 . S
Cd1219 O1229 2.240 . S
Cd1220 O1221 2.240 . S
Cd1220 O1228 2.223 . S
Cd1220 O1230 2.297 . S
Cd1220 O1231 2.439 . S
O1221 Cd1220 2.240 . S
O1221 C1226 1.279 . S
O1222 Cd1219 2.297 . S
O1222 C1224 1.247 . S
O1223 Cd1219 2.439 . S
O1223 C1224 1.208 . S
C1224 O1222 1.247 . S
C1224 O1223 1.208 . S
C1225 O1230 1.247 . S
C1225 O1231 1.208 . S
C1226 O1218 1.315 . S
C1226 O1221 1.279 . S
C1227 O1228 1.315 . S
C1227 O1229 1.279 . S
O1228 Cd1220 2.223 . S
O1228 C1227 1.315 . S
O1229 Cd1219 2.240 . S
O1229 C1227 1.279 . S
O1230 Cd1220 2.297 . S
O1230 C1225 1.247 . S
O1231 Cd1220 2.439 . S
O1231 C1225 1.208 . S
O1232 Cd1233 2.223 . S
O1232 C1240 1.315 . S
Cd1233 O1232 2.223 . S
Cd1233 O1236 2.297 . S
Cd1233 O1237 2.439 . S
Cd1233 O1243 2.240 . S
Cd1234 O1235 2.240 . S
Cd1234 O1242 2.223 . S
Cd1234 O1244 2.297 . S
Cd1234 O1245 2.439 . S
O1235 Cd1234 2.240 . S
O1235 C1240 1.279 . S
O1236 Cd1233 2.297 . S
O1236 C1238 1.247 . S
O1237 Cd1233 2.439 . S
O1237 C1238 1.208 . S
C1238 O1236 1.247 . S
C1238 O1237 1.208 . S
C1239 O1244 1.247 . S
C1239 O1245 1.208 . S
C1240 O1232 1.315 . S
C1240 O1235 1.279 . S
C1241 O1242 1.315 . S
C1241 O1243 1.279 . S
O1242 Cd1234 2.223 . S
O1242 C1241 1.315 . S
O1243 Cd1233 2.240 . S
O1243 C1241 1.279 . S
O1244 Cd1234 2.297 . S
O1244 C1239 1.247 . S
O1245 Cd1234 2.439 . S
O1245 C1239 1.208 . S
O1246 Cd1247 2.223 . S
O1246 C1254 1.315 . S
Cd1247 O1246 2.223 . S
Cd1247 O1250 2.297 . S
Cd1247 O1251 2.439 . S
Cd1247 O1257 2.240 . S
Cd1248 O1249 2.240 . S
Cd1248 O1256 2.223 . S
Cd1248 O1258 2.297 . S
Cd1248 O1259 2.439 . S
O1249 Cd1248 2.240 . S
O1249 C1254 1.279 . S
O1250 Cd1247 2.297 . S
O1250 C1252 1.247 . S
O1251 Cd1247 2.439 . S
O1251 C1252 1.208 . S
C1252 O1250 1.247 . S
C1252 O1251 1.208 . S
C1253 O1258 1.247 . S
C1253 O1259 1.208 . S
C1254 O1246 1.315 . S
C1254 O1249 1.279 . S
C1255 O1256 1.315 . S
C1255 O1257 1.279 . S
O1256 Cd1248 2.223 . S
O1256 C1255 1.315 . S
O1257 Cd1247 2.240 . S
O1257 C1255 1.279 . S
O1258 Cd1248 2.297 . S
O1258 C1253 1.247 . S
O1259 Cd1248 2.439 . S
O1259 C1253 1.208 . S
O1260 Cd1261 2.223 . S
O1260 C1268 1.315 . S
Cd1261 O1260 2.223 . S
Cd1261 O1264 2.297 . S
Cd1261 O1265 2.439 . S
Cd1261 O1271 2.240 . S
Cd1262 O1263 2.240 . S
Cd1262 O1270 2.223 . S
Cd1262 O1272 2.297 . S
Cd1262 O1273 2.439 . S
O1263 Cd1262 2.240 . S
O1263 C1268 1.279 . S
O1264 Cd1261 2.297 . S
O1264 C1266 1.247 . S
O1265 Cd1261 2.439 . S
O1265 C1266 1.208 . S
C1266 O1264 1.247 . S
C1266 O1265 1.208 . S
C1267 O1272 1.247 . S
C1267 O1273 1.208 . S
C1268 O1260 1.315 . S
C1268 O1263 1.279 . S
C1269 O1270 1.315 . S
C1269 O1271 1.279 . S
O1270 Cd1262 2.223 . S
O1270 C1269 1.315 . S
O1271 Cd1261 2.240 . S
O1271 C1269 1.279 . S
O1272 Cd1262 2.297 . S
O1272 C1267 1.247 . S
O1273 Cd1262 2.439 . S
O1273 C1267 1.208 . S
O1274 Cd1275 2.198 1_556 S
O1274 C1282 1.315 . S
Cd1275 O1274 2.198 1_554 S
Cd1275 O1278 2.261 1_554 S
Cd1275 O1279 2.445 . S
Cd1275 O1285 2.284 . S
Cd1276 O1277 2.240 . S
Cd1276 O1284 2.223 . S
Cd1276 O1286 2.297 . S
Cd1276 O1287 2.439 . S
O1277 Cd1276 2.240 . S
O1277 C1282 1.279 1_554 S
O1278 Cd1275 2.261 1_556 S
O1278 C1280 1.247 . S
O1279 Cd1275 2.445 . S
O1279 C1280 1.208 1_554 S
C1280 O1278 1.247 . S
C1280 O1279 1.208 1_556 S
C1281 O1286 1.247 . S
C1281 O1287 1.208 . S
C1282 O1274 1.315 . S
C1282 O1277 1.279 1_556 S
C1283 O1284 1.315 . S
C1283 O1285 1.279 . S
O1284 Cd1276 2.223 . S
O1284 C1283 1.315 . S
O1285 Cd1275 2.284 . S
O1285 C1283 1.279 . S
O1286 Cd1276 2.297 . S
O1286 C1281 1.247 . S
O1287 Cd1276 2.439 . S
O1287 C1281 1.208 . S
O1288 Cd1289 2.223 . S
O1288 C1296 1.315 . S
Cd1289 O1288 2.223 . S
Cd1289 O1292 2.297 . S
Cd1289 O1293 2.439 . S
Cd1289 O1299 2.240 . S
Cd1290 O1291 2.240 . S
Cd1290 O1298 2.223 . S
Cd1290 O1300 2.297 . S
Cd1290 O1301 2.439 . S
O1291 Cd1290 2.240 . S
O1291 C1296 1.279 . S
O1292 Cd1289 2.297 . S
O1292 C1294 1.247 . S
O1293 Cd1289 2.439 . S
O1293 C1294 1.208 . S
C1294 O1292 1.247 . S
C1294 O1293 1.208 . S
C1295 O1300 1.247 . S
C1295 O1301 1.208 . S
C1296 O1288 1.315 . S
C1296 O1291 1.279 . S
C1297 O1298 1.315 . S
C1297 O1299 1.279 . S
O1298 Cd1290 2.223 . S
O1298 C1297 1.315 . S
O1299 Cd1289 2.240 . S
O1299 C1297 1.279 . S
O1300 Cd1290 2.297 . S
O1300 C1295 1.247 . S
O1301 Cd1290 2.439 . S
O1301 C1295 1.208 . S
O1302 Cd1303 2.198 1_554 S
O1302 C1310 1.315 . S
Cd1303 O1302 2.198 1_556 S
Cd1303 O1306 2.262 1_556 S
Cd1303 O1307 2.445 . S
Cd1303 O1313 2.284 . S
Cd1304 O1305 2.240 . S
Cd1304 O1312 2.223 . S
Cd1304 O1314 2.297 . S
Cd1304 O1315 2.439 . S
O1305 Cd1304 2.240 . S
O1305 C1310 1.279 1_556 S
O1306 Cd1303 2.262 1_554 S
O1306 C1308 1.247 . S
O1307 Cd1303 2.445 . S
O1307 C1308 1.208 1_556 S
C1308 O1306 1.247 . S
C1308 O1307 1.208 1_554 S
C1309 O1314 1.247 . S
C1309 O1315 1.208 . S
C1310 O1302 1.315 . S
C1310 O1305 1.279 1_554 S
C1311 O1312 1.315 . S
C1311 O1313 1.279 . S
O1312 Cd1304 2.223 . S
O1312 C1311 1.315 . S
O1313 Cd1303 2.284 . S
O1313 C1311 1.279 . S
O1314 Cd1304 2.297 . S
O1314 C1309 1.247 . S
O1315 Cd1304 2.439 . S
O1315 C1309 1.208 . S
O1316 Cd1317 2.223 . S
O1316 C1324 1.315 . S
Cd1317 O1316 2.223 . S
Cd1317 O1320 2.297 . S
Cd1317 O1321 2.439 . S
Cd1317 O1327 2.240 . S
Cd1318 O1319 2.240 . S
Cd1318 O1326 2.223 . S
Cd1318 O1328 2.297 . S
Cd1318 O1329 2.439 . S
O1319 Cd1318 2.240 . S
O1319 C1324 1.279 . S
O1320 Cd1317 2.297 . S
O1320 C1322 1.247 . S
O1321 Cd1317 2.439 . S
O1321 C1322 1.208 . S
C1322 O1320 1.247 . S
C1322 O1321 1.208 . S
C1323 O1328 1.247 . S
C1323 O1329 1.208 . S
C1324 O1316 1.315 . S
C1324 O1319 1.279 . S
C1325 O1326 1.315 . S
C1325 O1327 1.279 . S
O1326 Cd1318 2.223 . S
O1326 C1325 1.315 . S
O1327 Cd1317 2.240 . S
O1327 C1325 1.279 . S
O1328 Cd1318 2.297 . S
O1328 C1323 1.247 . S
O1329 Cd1318 2.439 . S
O1329 C1323 1.208 . S
O1330 Cd1331 2.223 . S
O1330 C1338 1.315 . S
Cd1331 O1330 2.223 . S
Cd1331 O1334 2.297 . S
Cd1331 O1335 2.439 . S
Cd1331 O1341 2.240 . S
Cd1332 O1333 2.240 . S
Cd1332 O1340 2.223 . S
Cd1332 O1342 2.297 . S
Cd1332 O1343 2.439 . S
O1333 Cd1332 2.240 . S
O1333 C1338 1.279 . S
O1334 Cd1331 2.297 . S
O1334 C1336 1.247 . S
O1335 Cd1331 2.439 . S
O1335 C1336 1.208 . S
C1336 O1334 1.247 . S
C1336 O1335 1.208 . S
C1337 O1342 1.247 . S
C1337 O1343 1.208 . S
C1338 O1330 1.315 . S
C1338 O1333 1.279 . S
C1339 O1340 1.315 . S
C1339 O1341 1.279 . S
O1340 Cd1332 2.223 . S
O1340 C1339 1.315 . S
O1341 Cd1331 2.240 . S
O1341 C1339 1.279 . S
O1342 Cd1332 2.297 . S
O1342 C1337 1.247 . S
O1343 Cd1332 2.439 . S
O1343 C1337 1.208 . S
C1344 C1345 1.369 . S
C1344 C1346 1.419 . S
C1344 H1348 0.930 . S
C1345 C1344 1.369 . S
C1345 C1354 1.429 . S
C1346 C1344 1.419 . S
C1346 C1347 1.363 . S
C1346 H1349 0.929 . S
C1347 C1346 1.363 . S
C1347 C1353 1.428 . S
H1348 C1344 0.930 . S
H1349 C1346 0.929 . S
S1350 N1351 1.613 . S
S1350 N1352 1.610 . S
N1351 S1350 1.613 . S
N1351 C1354 1.350 . S
N1352 S1350 1.610 . S
N1352 C1353 1.351 . S
C1353 C1347 1.428 . S
C1353 N1352 1.351 . S
C1353 C1354 1.434 . S
C1354 C1345 1.429 . S
C1354 N1351 1.350 . S
C1354 C1353 1.434 . S
C1355 C1356 1.369 . S
C1355 C1357 1.419 . S
C1355 H1359 0.930 . S
C1356 C1355 1.369 . S
C1356 C1365 1.429 . S
C1357 C1355 1.419 . S
C1357 C1358 1.363 . S
C1357 H1360 0.929 . S
C1358 C1357 1.363 . S
C1358 C1364 1.428 . S
H1359 C1355 0.930 . S
H1360 C1357 0.929 . S
S1361 N1362 1.613 . S
S1361 N1363 1.610 . S
N1362 S1361 1.613 . S
N1362 C1365 1.350 . S
N1363 S1361 1.610 . S
N1363 C1364 1.351 . S
C1364 C1358 1.428 . S
C1364 N1363 1.351 . S
C1364 C1365 1.434 . S
C1365 C1356 1.429 . S
C1365 N1362 1.350 . S
C1365 C1364 1.434 . S
C1366 C1367 1.369 . S
C1366 C1368 1.419 . S
C1366 H1370 0.930 . S
C1367 C1366 1.369 . S
C1367 C1376 1.429 . S
C1368 C1366 1.419 . S
C1368 C1369 1.363 . S
C1368 H1371 0.929 . S
C1369 C1368 1.363 . S
C1369 C1375 1.428 . S
H1370 C1366 0.930 . S
H1371 C1368 0.929 . S
S1372 N1373 1.613 . S
S1372 N1374 1.610 . S
N1373 S1372 1.613 . S
N1373 C1376 1.350 . S
N1374 S1372 1.610 . S
N1374 C1375 1.351 . S
C1375 C1369 1.428 . S
C1375 N1374 1.351 . S
C1375 C1376 1.434 . S
C1376 C1367 1.429 . S
C1376 N1373 1.350 . S
C1376 C1375 1.434 . S
C1377 C1378 1.369 . S
C1377 C1379 1.419 . S
C1377 H1381 0.930 . S
C1378 C1377 1.369 . S
C1378 C1387 1.429 . S
C1379 C1377 1.419 . S
C1379 C1380 1.363 . S
C1379 H1382 0.929 . S
C1380 C1379 1.363 . S
C1380 C1386 1.428 . S
H1381 C1377 0.930 . S
H1382 C1379 0.929 . S
S1383 N1384 1.613 . S
S1383 N1385 1.610 . S
N1384 S1383 1.613 . S
N1384 C1387 1.350 . S
N1385 S1383 1.610 . S
N1385 C1386 1.351 . S
C1386 C1380 1.428 . S
C1386 N1385 1.351 . S
C1386 C1387 1.434 . S
C1387 C1378 1.429 . S
C1387 N1384 1.350 . S
C1387 C1386 1.434 . S
C1388 C1389 1.369 . S
C1388 C1390 1.419 . S
C1388 H1392 0.930 . S
C1389 C1388 1.369 . S
C1389 C1398 1.429 . S
C1390 C1388 1.419 . S
C1390 C1391 1.363 . S
C1390 H1393 0.929 . S
C1391 C1390 1.363 . S
C1391 C1397 1.428 . S
H1392 C1388 0.930 . S
H1393 C1390 0.929 . S
S1394 N1395 1.613 . S
S1394 N1396 1.610 . S
N1395 S1394 1.613 . S
N1395 C1398 1.350 . S
N1396 S1394 1.610 . S
N1396 C1397 1.351 . S
C1397 C1391 1.428 . S
C1397 N1396 1.351 . S
C1397 C1398 1.434 . S
C1398 C1389 1.429 . S
C1398 N1395 1.350 . S
C1398 C1397 1.434 . S
C1399 C1400 1.369 . S
C1399 C1401 1.419 . S
C1399 H1403 0.930 . S
C1400 C1399 1.369 . S
C1400 C1409 1.429 . S
C1401 C1399 1.419 . S
C1401 C1402 1.363 . S
C1401 H1404 0.929 . S
C1402 C1401 1.363 . S
C1402 C1408 1.428 . S
H1403 C1399 0.930 . S
H1404 C1401 0.929 . S
S1405 N1406 1.613 . S
S1405 N1407 1.610 . S
N1406 S1405 1.613 . S
N1406 C1409 1.350 . S
N1407 S1405 1.610 . S
N1407 C1408 1.351 . S
C1408 C1402 1.428 . S
C1408 N1407 1.351 . S
C1408 C1409 1.434 . S
C1409 C1400 1.429 . S
C1409 N1406 1.350 . S
C1409 C1408 1.434 . S
C1410 C1411 1.369 . S
C1410 C1412 1.419 . S
C1410 H1414 0.930 . S
C1411 C1410 1.369 . S
C1411 C1420 1.429 . S
C1412 C1410 1.419 . S
C1412 C1413 1.363 . S
C1412 H1415 0.929 . S
C1413 C1412 1.363 . S
C1413 C1419 1.428 . S
H1414 C1410 0.930 . S
H1415 C1412 0.929 . S
S1416 N1417 1.613 . S
S1416 N1418 1.610 . S
N1417 S1416 1.613 . S
N1417 C1420 1.350 . S
N1418 S1416 1.610 . S
N1418 C1419 1.351 . S
C1419 C1413 1.428 . S
C1419 N1418 1.351 . S
C1419 C1420 1.434 . S
C1420 C1411 1.429 . S
C1420 N1417 1.350 . S
C1420 C1419 1.434 . S
C1421 C1422 1.369 . S
C1421 C1423 1.419 . S
C1421 H1425 0.930 . S
C1422 C1421 1.369 . S
C1422 C1431 1.429 . S
C1423 C1421 1.419 . S
C1423 C1424 1.363 . S
C1423 H1426 0.929 . S
C1424 C1423 1.363 . S
C1424 C1430 1.428 . S
H1425 C1421 0.930 . S
H1426 C1423 0.929 . S
S1427 N1428 1.613 . S
S1427 N1429 1.610 . S
N1428 S1427 1.613 . S
N1428 C1431 1.350 . S
N1429 S1427 1.610 . S
N1429 C1430 1.351 . S
C1430 C1424 1.428 . S
C1430 N1429 1.351 . S
C1430 C1431 1.434 . S
C1431 C1422 1.429 . S
C1431 N1428 1.350 . S
C1431 C1430 1.434 . S
C1432 C1433 1.369 . S
C1432 C1434 1.419 . S
C1432 H1436 0.930 . S
C1433 C1432 1.369 . S
C1433 C1442 1.429 . S
C1434 C1432 1.419 . S
C1434 C1435 1.363 . S
C1434 H1437 0.929 . S
C1435 C1434 1.363 . S
C1435 C1441 1.428 . S
H1436 C1432 0.930 . S
H1437 C1434 0.929 . S
S1438 N1439 1.613 . S
S1438 N1440 1.610 . S
N1439 S1438 1.613 . S
N1439 C1442 1.350 . S
N1440 S1438 1.610 . S
N1440 C1441 1.351 . S
C1441 C1435 1.428 . S
C1441 N1440 1.351 . S
C1441 C1442 1.434 . S
C1442 C1433 1.429 . S
C1442 N1439 1.350 . S
C1442 C1441 1.434 . S
C1443 C1444 1.369 . S
C1443 C1445 1.419 . S
C1443 H1447 0.930 . S
C1444 C1443 1.369 . S
C1444 C1453 1.429 . S
C1445 C1443 1.419 . S
C1445 C1446 1.363 . S
C1445 H1448 0.929 . S
C1446 C1445 1.363 . S
C1446 C1452 1.428 . S
H1447 C1443 0.930 . S
H1448 C1445 0.929 . S
S1449 N1450 1.613 . S
S1449 N1451 1.610 . S
N1450 S1449 1.613 . S
N1450 C1453 1.350 . S
N1451 S1449 1.610 . S
N1451 C1452 1.351 . S
C1452 C1446 1.428 . S
C1452 N1451 1.351 . S
C1452 C1453 1.434 . S
C1453 C1444 1.429 . S
C1453 N1450 1.350 . S
C1453 C1452 1.434 . S
C1454 C1455 1.369 . S
C1454 C1456 1.419 . S
C1454 H1458 0.930 . S
C1455 C1454 1.369 . S
C1455 C1464 1.429 . S
C1456 C1454 1.419 . S
C1456 C1457 1.363 . S
C1456 H1459 0.929 . S
C1457 C1456 1.363 . S
C1457 C1463 1.428 . S
H1458 C1454 0.930 . S
H1459 C1456 0.929 . S
S1460 N1461 1.613 . S
S1460 N1462 1.610 . S
N1461 S1460 1.613 . S
N1461 C1464 1.350 . S
N1462 S1460 1.610 . S
N1462 C1463 1.351 . S
C1463 C1457 1.428 . S
C1463 N1462 1.351 . S
C1463 C1464 1.434 . S
C1464 C1455 1.429 . S
C1464 N1461 1.350 . S
C1464 C1463 1.434 . S
C1465 C1466 1.369 . S
C1465 C1467 1.419 . S
C1465 H1469 0.930 . S
C1466 C1465 1.369 . S
C1466 C1475 1.429 . S
C1467 C1465 1.419 . S
C1467 C1468 1.363 . S
C1467 H1470 0.929 . S
C1468 C1467 1.363 . S
C1468 C1474 1.428 . S
H1469 C1465 0.930 . S
H1470 C1467 0.929 . S
S1471 N1472 1.613 . S
S1471 N1473 1.610 . S
N1472 S1471 1.613 . S
N1472 C1475 1.350 . S
N1473 S1471 1.610 . S
N1473 C1474 1.351 . S
C1474 C1468 1.428 . S
C1474 N1473 1.351 . S
C1474 C1475 1.434 . S
C1475 C1466 1.429 . S
C1475 N1472 1.350 . S
C1475 C1474 1.434 . S
C1476 C1477 1.369 . S
C1476 C1478 1.419 . S
C1476 H1480 0.930 . S
C1477 C1476 1.369 . S
C1477 C1486 1.429 . S
C1478 C1476 1.419 . S
C1478 C1479 1.363 . S
C1478 H1481 0.929 . S
C1479 C1478 1.363 . S
C1479 C1485 1.428 . S
H1480 C1476 0.930 . S
H1481 C1478 0.929 . S
S1482 N1483 1.613 . S
S1482 N1484 1.610 . S
N1483 S1482 1.613 . S
N1483 C1486 1.350 . S
N1484 S1482 1.610 . S
N1484 C1485 1.351 . S
C1485 C1479 1.428 . S
C1485 N1484 1.351 . S
C1485 C1486 1.434 . S
C1486 C1477 1.429 . S
C1486 N1483 1.350 . S
C1486 C1485 1.434 . S
C1487 C1488 1.369 . S
C1487 C1489 1.419 . S
C1487 H1491 0.930 . S
C1488 C1487 1.369 . S
C1488 C1497 1.429 . S
C1489 C1487 1.419 . S
C1489 C1490 1.363 . S
C1489 H1492 0.929 . S
C1490 C1489 1.363 . S
C1490 C1496 1.428 . S
H1491 C1487 0.930 . S
H1492 C1489 0.929 . S
S1493 N1494 1.613 . S
S1493 N1495 1.610 . S
N1494 S1493 1.613 . S
N1494 C1497 1.350 . S
N1495 S1493 1.610 . S
N1495 C1496 1.351 . S
C1496 C1490 1.428 . S
C1496 N1495 1.351 . S
C1496 C1497 1.434 . S
C1497 C1488 1.429 . S
C1497 N1494 1.350 . S
C1497 C1496 1.434 . S
C1498 C1499 1.369 . S
C1498 C1500 1.419 . S
C1498 H1502 0.930 . S
C1499 C1498 1.369 . S
C1499 C1508 1.429 . S
C1500 C1498 1.419 . S
C1500 C1501 1.363 . S
C1500 H1503 0.929 . S
C1501 C1500 1.363 . S
C1501 C1507 1.428 . S
H1502 C1498 0.930 . S
H1503 C1500 0.929 . S
S1504 N1505 1.613 . S
S1504 N1506 1.610 . S
N1505 S1504 1.613 . S
N1505 C1508 1.350 . S
N1506 S1504 1.610 . S
N1506 C1507 1.351 . S
C1507 C1501 1.428 . S
C1507 N1506 1.351 . S
C1507 C1508 1.434 . S
C1508 C1499 1.429 . S
C1508 N1505 1.350 . S
C1508 C1507 1.434 . S
C1509 C1510 1.369 . S
C1509 C1511 1.419 . S
C1509 H1513 0.930 . S
C1510 C1509 1.369 . S
C1510 C1519 1.429 . S
C1511 C1509 1.419 . S
C1511 C1512 1.363 . S
C1511 H1514 0.929 . S
C1512 C1511 1.363 . S
C1512 C1518 1.428 . S
H1513 C1509 0.930 . S
H1514 C1511 0.929 . S
S1515 N1516 1.613 . S
S1515 N1517 1.610 . S
N1516 S1515 1.613 . S
N1516 C1519 1.350 . S
N1517 S1515 1.610 . S
N1517 C1518 1.351 . S
C1518 C1512 1.428 . S
C1518 N1517 1.351 . S
C1518 C1519 1.434 . S
C1519 C1510 1.429 . S
C1519 N1516 1.350 . S
C1519 C1518 1.434 . S
C1520 C1521 1.369 . S
C1520 C1522 1.419 . S
C1520 H1524 0.930 . S
C1521 C1520 1.369 . S
C1521 C1530 1.429 . S
C1522 C1520 1.419 . S
C1522 C1523 1.363 . S
C1522 H1525 0.929 . S
C1523 C1522 1.363 . S
C1523 C1529 1.428 . S
H1524 C1520 0.930 . S
H1525 C1522 0.929 . S
S1526 N1527 1.613 . S
S1526 N1528 1.610 . S
N1527 S1526 1.613 . S
N1527 C1530 1.350 . S
N1528 S1526 1.610 . S
N1528 C1529 1.351 . S
C1529 C1523 1.428 . S
C1529 N1528 1.351 . S
C1529 C1530 1.434 . S
C1530 C1521 1.429 . S
C1530 N1527 1.350 . S
C1530 C1529 1.434 . S
C1531 C1532 1.369 . S
C1531 C1533 1.419 . S
C1531 H1535 0.930 . S
C1532 C1531 1.369 . S
C1532 C1541 1.429 . S
C1533 C1531 1.419 . S
C1533 C1534 1.363 . S
C1533 H1536 0.929 . S
C1534 C1533 1.363 . S
C1534 C1540 1.428 . S
H1535 C1531 0.930 . S
H1536 C1533 0.929 . S
S1537 N1538 1.613 . S
S1537 N1539 1.610 . S
N1538 S1537 1.613 . S
N1538 C1541 1.350 . S
N1539 S1537 1.610 . S
N1539 C1540 1.351 . S
C1540 C1534 1.428 . S
C1540 N1539 1.351 . S
C1540 C1541 1.434 . S
C1541 C1532 1.429 . S
C1541 N1538 1.350 . S
C1541 C1540 1.434 . S
C1542 C1543 1.369 . S
C1542 C1544 1.419 . S
C1542 H1546 0.930 . S
C1543 C1542 1.369 . S
C1543 C1552 1.429 . S
C1544 C1542 1.419 . S
C1544 C1545 1.363 . S
C1544 H1547 0.929 . S
C1545 C1544 1.363 . S
C1545 C1551 1.428 . S
H1546 C1542 0.930 . S
H1547 C1544 0.929 . S
S1548 N1549 1.613 . S
S1548 N1550 1.610 . S
N1549 S1548 1.613 . S
N1549 C1552 1.350 . S
N1550 S1548 1.610 . S
N1550 C1551 1.351 . S
C1551 C1545 1.428 . S
C1551 N1550 1.351 . S
C1551 C1552 1.434 . S
C1552 C1543 1.429 . S
C1552 N1549 1.350 . S
C1552 C1551 1.434 . S
C1553 C1554 1.369 . S
C1553 C1555 1.419 . S
C1553 H1557 0.930 . S
C1554 C1553 1.369 . S
C1554 C1563 1.429 . S
C1555 C1553 1.419 . S
C1555 C1556 1.363 . S
C1555 H1558 0.929 . S
C1556 C1555 1.363 . S
C1556 C1562 1.428 . S
H1557 C1553 0.930 . S
H1558 C1555 0.929 . S
S1559 N1560 1.613 . S
S1559 N1561 1.610 . S
N1560 S1559 1.613 . S
N1560 C1563 1.350 . S
N1561 S1559 1.610 . S
N1561 C1562 1.351 . S
C1562 C1556 1.428 . S
C1562 N1561 1.351 . S
C1562 C1563 1.434 . S
C1563 C1554 1.429 . S
C1563 N1560 1.350 . S
C1563 C1562 1.434 . S
C1564 C1565 1.369 . S
C1564 C1566 1.419 . S
C1564 H1568 0.930 . S
C1565 C1564 1.369 . S
C1565 C1574 1.429 . S
C1566 C1564 1.419 . S
C1566 C1567 1.363 . S
C1566 H1569 0.929 . S
C1567 C1566 1.363 . S
C1567 C1573 1.428 . S
H1568 C1564 0.930 . S
H1569 C1566 0.929 . S
S1570 N1571 1.613 . S
S1570 N1572 1.610 . S
N1571 S1570 1.613 . S
N1571 C1574 1.350 . S
N1572 S1570 1.610 . S
N1572 C1573 1.351 . S
C1573 C1567 1.428 . S
C1573 N1572 1.351 . S
C1573 C1574 1.434 . S
C1574 C1565 1.429 . S
C1574 N1571 1.350 . S
C1574 C1573 1.434 . S
C1575 C1576 1.369 . S
C1575 C1577 1.419 . S
C1575 H1579 0.930 . S
C1576 C1575 1.369 . S
C1576 C1585 1.429 . S
C1577 C1575 1.419 . S
C1577 C1578 1.363 . S
C1577 H1580 0.929 . S
C1578 C1577 1.363 . S
C1578 C1584 1.428 . S
H1579 C1575 0.930 . S
H1580 C1577 0.929 . S
S1581 N1582 1.613 . S
S1581 N1583 1.610 . S
N1582 S1581 1.613 . S
N1582 C1585 1.350 . S
N1583 S1581 1.610 . S
N1583 C1584 1.351 . S
C1584 C1578 1.428 . S
C1584 N1583 1.351 . S
C1584 C1585 1.434 . S
C1585 C1576 1.429 . S
C1585 N1582 1.350 . S
C1585 C1584 1.434 . S
C1586 C1587 1.369 . S
C1586 C1588 1.419 . S
C1586 H1590 0.930 . S
C1587 C1586 1.369 . S
C1587 C1596 1.429 . S
C1588 C1586 1.419 . S
C1588 C1589 1.363 . S
C1588 H1591 0.929 . S
C1589 C1588 1.363 . S
C1589 C1595 1.428 . S
H1590 C1586 0.930 . S
H1591 C1588 0.929 . S
S1592 N1593 1.613 . S
S1592 N1594 1.610 . S
N1593 S1592 1.613 . S
N1593 C1596 1.350 . S
N1594 S1592 1.610 . S
N1594 C1595 1.351 . S
C1595 C1589 1.428 . S
C1595 N1594 1.351 . S
C1595 C1596 1.434 . S
C1596 C1587 1.429 . S
C1596 N1593 1.350 . S
C1596 C1595 1.434 . S
C1597 C1598 1.369 . S
C1597 C1599 1.419 . S
C1597 H1601 0.930 . S
C1598 C1597 1.369 . S
C1598 C1607 1.429 . S
C1599 C1597 1.419 . S
C1599 C1600 1.363 . S
C1599 H1602 0.929 . S
C1600 C1599 1.363 . S
C1600 C1606 1.428 . S
H1601 C1597 0.930 . S
H1602 C1599 0.929 . S
S1603 N1604 1.613 . S
S1603 N1605 1.610 . S
N1604 S1603 1.613 . S
N1604 C1607 1.350 . S
N1605 S1603 1.610 . S
N1605 C1606 1.351 . S
C1606 C1600 1.428 . S
C1606 N1605 1.351 . S
C1606 C1607 1.434 . S
C1607 C1598 1.429 . S
C1607 N1604 1.350 . S
C1607 C1606 1.434 . S
C1608 C1609 1.369 . S
C1608 C1610 1.419 . S
C1608 H1612 0.930 . S
C1609 C1608 1.369 . S
C1609 C1618 1.429 . S
C1610 C1608 1.419 . S
C1610 C1611 1.363 . S
C1610 H1613 0.929 . S
C1611 C1610 1.363 . S
C1611 C1617 1.428 . S
H1612 C1608 0.930 . S
H1613 C1610 0.929 . S
S1614 N1615 1.613 . S
S1614 N1616 1.610 . S
N1615 S1614 1.613 . S
N1615 C1618 1.350 . S
N1616 S1614 1.610 . S
N1616 C1617 1.351 . S
C1617 C1611 1.428 . S
C1617 N1616 1.351 . S
C1617 C1618 1.434 . S
C1618 C1609 1.429 . S
C1618 N1615 1.350 . S
C1618 C1617 1.434 . S
C1619 C1620 1.369 . S
C1619 C1621 1.419 . S
C1619 H1623 0.930 . S
C1620 C1619 1.369 . S
C1620 C1629 1.429 . S
C1621 C1619 1.419 . S
C1621 C1622 1.363 . S
C1621 H1624 0.929 . S
C1622 C1621 1.363 . S
C1622 C1628 1.428 . S
H1623 C1619 0.930 . S
H1624 C1621 0.929 . S
S1625 N1626 1.613 . S
S1625 N1627 1.610 . S
N1626 S1625 1.613 . S
N1626 C1629 1.350 . S
N1627 S1625 1.610 . S
N1627 C1628 1.351 . S
C1628 C1622 1.428 . S
C1628 N1627 1.351 . S
C1628 C1629 1.434 . S
C1629 C1620 1.429 . S
C1629 N1626 1.350 . S
C1629 C1628 1.434 . S
C1630 C1631 1.369 . S
C1630 C1632 1.419 . S
C1630 H1634 0.930 . S
C1631 C1630 1.369 . S
C1631 C1640 1.429 . S
C1632 C1630 1.419 . S
C1632 C1633 1.363 . S
C1632 H1635 0.929 . S
C1633 C1632 1.363 . S
C1633 C1639 1.428 . S
H1634 C1630 0.930 . S
H1635 C1632 0.929 . S
S1636 N1637 1.613 . S
S1636 N1638 1.610 . S
N1637 S1636 1.613 . S
N1637 C1640 1.350 . S
N1638 S1636 1.610 . S
N1638 C1639 1.351 . S
C1639 C1633 1.428 . S
C1639 N1638 1.351 . S
C1639 C1640 1.434 . S
C1640 C1631 1.429 . S
C1640 N1637 1.350 . S
C1640 C1639 1.434 . S
C1641 C1642 1.369 . S
C1641 C1643 1.419 . S
C1641 H1645 0.930 . S
C1642 C1641 1.369 . S
C1642 C1651 1.429 . S
C1643 C1641 1.419 . S
C1643 C1644 1.363 . S
C1643 H1646 0.929 . S
C1644 C1643 1.363 . S
C1644 C1650 1.428 . S
H1645 C1641 0.930 . S
H1646 C1643 0.929 . S
S1647 N1648 1.613 . S
S1647 N1649 1.610 . S
N1648 S1647 1.613 . S
N1648 C1651 1.350 . S
N1649 S1647 1.610 . S
N1649 C1650 1.351 . S
C1650 C1644 1.428 . S
C1650 N1649 1.351 . S
C1650 C1651 1.434 . S
C1651 C1642 1.429 . S
C1651 N1648 1.350 . S
C1651 C1650 1.434 . S
C1652 C1653 1.369 . S
C1652 C1654 1.419 . S
C1652 H1656 0.930 . S
C1653 C1652 1.369 . S
C1653 C1662 1.429 . S
C1654 C1652 1.419 . S
C1654 C1655 1.363 . S
C1654 H1657 0.929 . S
C1655 C1654 1.363 . S
C1655 C1661 1.428 . S
H1656 C1652 0.930 . S
H1657 C1654 0.929 . S
S1658 N1659 1.613 . S
S1658 N1660 1.610 . S
N1659 S1658 1.613 . S
N1659 C1662 1.350 . S
N1660 S1658 1.610 . S
N1660 C1661 1.351 . S
C1661 C1655 1.428 . S
C1661 N1660 1.351 . S
C1661 C1662 1.434 . S
C1662 C1653 1.429 . S
C1662 N1659 1.350 . S
C1662 C1661 1.434 . S
C1663 C1664 1.369 . S
C1663 C1665 1.419 . S
C1663 H1667 0.930 . S
C1664 C1663 1.369 . S
C1664 C1673 1.429 . S
C1665 C1663 1.419 . S
C1665 C1666 1.363 . S
C1665 H1668 0.929 . S
C1666 C1665 1.363 . S
C1666 C1672 1.428 . S
H1667 C1663 0.930 . S
H1668 C1665 0.929 . S
S1669 N1670 1.613 . S
S1669 N1671 1.610 . S
N1670 S1669 1.613 . S
N1670 C1673 1.350 . S
N1671 S1669 1.610 . S
N1671 C1672 1.351 . S
C1672 C1666 1.428 . S
C1672 N1671 1.351 . S
C1672 C1673 1.434 . S
C1673 C1664 1.429 . S
C1673 N1670 1.350 . S
C1673 C1672 1.434 . S
C1674 C1675 1.369 . S
C1674 C1676 1.419 . S
C1674 H1678 0.930 . S
C1675 C1674 1.369 . S
C1675 C1684 1.429 . S
C1676 C1674 1.419 . S
C1676 C1677 1.363 . S
C1676 H1679 0.929 . S
C1677 C1676 1.363 . S
C1677 C1683 1.428 . S
H1678 C1674 0.930 . S
H1679 C1676 0.929 . S
S1680 N1681 1.613 . S
S1680 N1682 1.610 . S
N1681 S1680 1.613 . S
N1681 C1684 1.350 . S
N1682 S1680 1.610 . S
N1682 C1683 1.351 . S
C1683 C1677 1.428 . S
C1683 N1682 1.351 . S
C1683 C1684 1.434 . S
C1684 C1675 1.429 . S
C1684 N1681 1.350 . S
C1684 C1683 1.434 . S
C1685 C1686 1.369 . S
C1685 C1687 1.419 . S
C1685 H1689 0.930 . S
C1686 C1685 1.369 . S
C1686 C1695 1.429 . S
C1687 C1685 1.419 . S
C1687 C1688 1.363 . S
C1687 H1690 0.929 . S
C1688 C1687 1.363 . S
C1688 C1694 1.428 . S
H1689 C1685 0.930 . S
H1690 C1687 0.929 . S
S1691 N1692 1.613 . S
S1691 N1693 1.610 . S
N1692 S1691 1.613 . S
N1692 C1695 1.350 . S
N1693 S1691 1.610 . S
N1693 C1694 1.351 . S
C1694 C1688 1.428 . S
C1694 N1693 1.351 . S
C1694 C1695 1.434 . S
C1695 C1686 1.429 . S
C1695 N1692 1.350 . S
C1695 C1694 1.434 . S
C1696 C1697 1.369 . S
C1696 C1698 1.419 . S
C1696 H1700 0.930 . S
C1697 C1696 1.369 . S
C1697 C1706 1.429 . S
C1698 C1696 1.419 . S
C1698 C1699 1.363 . S
C1698 H1701 0.929 . S
C1699 C1698 1.363 . S
C1699 C1705 1.428 . S
H1700 C1696 0.930 . S
H1701 C1698 0.929 . S
S1702 N1703 1.613 . S
S1702 N1704 1.610 . S
N1703 S1702 1.613 . S
N1703 C1706 1.350 . S
N1704 S1702 1.610 . S
N1704 C1705 1.351 . S
C1705 C1699 1.428 . S
C1705 N1704 1.351 . S
C1705 C1706 1.434 . S
C1706 C1697 1.429 . S
C1706 N1703 1.350 . S
C1706 C1705 1.434 . S
C1707 C1708 1.369 . S
C1707 C1709 1.419 . S
C1707 H1711 0.930 . S
C1708 C1707 1.369 . S
C1708 C1717 1.429 . S
C1709 C1707 1.419 . S
C1709 C1710 1.363 . S
C1709 H1712 0.929 . S
C1710 C1709 1.363 . S
C1710 C1716 1.428 . S
H1711 C1707 0.930 . S
H1712 C1709 0.929 . S
S1713 N1714 1.613 . S
S1713 N1715 1.610 . S
N1714 S1713 1.613 . S
N1714 C1717 1.350 . S
N1715 S1713 1.610 . S
N1715 C1716 1.351 . S
C1716 C1710 1.428 . S
C1716 N1715 1.351 . S
C1716 C1717 1.434 . S
C1717 C1708 1.429 . S
C1717 N1714 1.350 . S
C1717 C1716 1.434 . S
C1718 C1719 1.369 . S
C1718 C1720 1.419 . S
C1718 H1722 0.930 . S
C1719 C1718 1.369 . S
C1719 C1728 1.429 . S
C1720 C1718 1.419 . S
C1720 C1721 1.363 . S
C1720 H1723 0.929 . S
C1721 C1720 1.363 . S
C1721 C1727 1.428 . S
H1722 C1718 0.930 . S
H1723 C1720 0.929 . S
S1724 N1725 1.613 . S
S1724 N1726 1.610 . S
N1725 S1724 1.613 . S
N1725 C1728 1.350 . S
N1726 S1724 1.610 . S
N1726 C1727 1.351 . S
C1727 C1721 1.428 . S
C1727 N1726 1.351 . S
C1727 C1728 1.434 . S
C1728 C1719 1.429 . S
C1728 N1725 1.350 . S
C1728 C1727 1.434 . S
C1729 C1730 1.369 . S
C1729 C1731 1.419 . S
C1729 H1733 0.930 . S
C1730 C1729 1.369 . S
C1730 C1739 1.429 . S
C1731 C1729 1.419 . S
C1731 C1732 1.363 . S
C1731 H1734 0.929 . S
C1732 C1731 1.363 . S
C1732 C1738 1.428 . S
H1733 C1729 0.930 . S
H1734 C1731 0.929 . S
S1735 N1736 1.613 . S
S1735 N1737 1.610 . S
N1736 S1735 1.613 . S
N1736 C1739 1.350 . S
N1737 S1735 1.610 . S
N1737 C1738 1.351 . S
C1738 C1732 1.428 . S
C1738 N1737 1.351 . S
C1738 C1739 1.434 . S
C1739 C1730 1.429 . S
C1739 N1736 1.350 . S
C1739 C1738 1.434 . S
C1740 C1741 1.369 . S
C1740 C1742 1.419 . S
C1740 H1744 0.930 . S
C1741 C1740 1.369 . S
C1741 C1750 1.429 . S
C1742 C1740 1.419 . S
C1742 C1743 1.363 . S
C1742 H1745 0.929 . S
C1743 C1742 1.363 . S
C1743 C1749 1.428 . S
H1744 C1740 0.930 . S
H1745 C1742 0.929 . S
S1746 N1747 1.613 . S
S1746 N1748 1.610 . S
N1747 S1746 1.613 . S
N1747 C1750 1.350 . S
N1748 S1746 1.610 . S
N1748 C1749 1.351 . S
C1749 C1743 1.428 . S
C1749 N1748 1.351 . S
C1749 C1750 1.434 . S
C1750 C1741 1.429 . S
C1750 N1747 1.350 . S
C1750 C1749 1.434 . S
C1751 C1752 1.369 . S
C1751 C1753 1.419 . S
C1751 H1755 0.930 . S
C1752 C1751 1.369 . S
C1752 C1761 1.429 . S
C1753 C1751 1.419 . S
C1753 C1754 1.363 . S
C1753 H1756 0.929 . S
C1754 C1753 1.363 . S
C1754 C1760 1.428 . S
H1755 C1751 0.930 . S
H1756 C1753 0.929 . S
S1757 N1758 1.613 . S
S1757 N1759 1.610 . S
N1758 S1757 1.613 . S
N1758 C1761 1.350 . S
N1759 S1757 1.610 . S
N1759 C1760 1.351 . S
C1760 C1754 1.428 . S
C1760 N1759 1.351 . S
C1760 C1761 1.434 . S
C1761 C1752 1.429 . S
C1761 N1758 1.350 . S
C1761 C1760 1.434 . S
C1762 C1763 1.369 . S
C1762 C1764 1.419 . S
C1762 H1766 0.930 . S
C1763 C1762 1.369 . S
C1763 C1772 1.429 . S
C1764 C1762 1.419 . S
C1764 C1765 1.363 . S
C1764 H1767 0.929 . S
C1765 C1764 1.363 . S
C1765 C1771 1.428 . S
H1766 C1762 0.930 . S
H1767 C1764 0.929 . S
S1768 N1769 1.613 . S
S1768 N1770 1.610 . S
N1769 S1768 1.613 . S
N1769 C1772 1.350 . S
N1770 S1768 1.610 . S
N1770 C1771 1.351 . S
C1771 C1765 1.428 . S
C1771 N1770 1.351 . S
C1771 C1772 1.434 . S
C1772 C1763 1.429 . S
C1772 N1769 1.350 . S
C1772 C1771 1.434 . S
C1773 C1774 1.369 . S
C1773 C1775 1.419 . S
C1773 H1777 0.930 . S
C1774 C1773 1.369 . S
C1774 C1783 1.429 . S
C1775 C1773 1.419 . S
C1775 C1776 1.363 . S
C1775 H1778 0.929 . S
C1776 C1775 1.363 . S
C1776 C1782 1.428 . S
H1777 C1773 0.930 . S
H1778 C1775 0.929 . S
S1779 N1780 1.613 . S
S1779 N1781 1.610 . S
N1780 S1779 1.613 . S
N1780 C1783 1.350 . S
N1781 S1779 1.610 . S
N1781 C1782 1.351 . S
C1782 C1776 1.428 . S
C1782 N1781 1.351 . S
C1782 C1783 1.434 . S
C1783 C1774 1.429 . S
C1783 N1780 1.350 . S
C1783 C1782 1.434 . S
C1784 C1785 1.369 . S
C1784 C1786 1.419 . S
C1784 H1788 0.930 . S
C1785 C1784 1.369 . S
C1785 C1794 1.429 . S
C1786 C1784 1.419 . S
C1786 C1787 1.363 . S
C1786 H1789 0.929 . S
C1787 C1786 1.363 . S
C1787 C1793 1.428 . S
H1788 C1784 0.930 . S
H1789 C1786 0.929 . S
S1790 N1791 1.613 . S
S1790 N1792 1.610 . S
N1791 S1790 1.613 . S
N1791 C1794 1.350 . S
N1792 S1790 1.610 . S
N1792 C1793 1.351 . S
C1793 C1787 1.428 . S
C1793 N1792 1.351 . S
C1793 C1794 1.434 . S
C1794 C1785 1.429 . S
C1794 N1791 1.350 . S
C1794 C1793 1.434 . S
C1795 C1796 1.369 . S
C1795 C1797 1.419 . S
C1795 H1799 0.930 . S
C1796 C1795 1.369 . S
C1796 C1805 1.429 . S
C1797 C1795 1.419 . S
C1797 C1798 1.363 . S
C1797 H1800 0.929 . S
C1798 C1797 1.363 . S
C1798 C1804 1.428 . S
H1799 C1795 0.930 . S
H1800 C1797 0.929 . S
S1801 N1802 1.613 . S
S1801 N1803 1.610 . S
N1802 S1801 1.613 . S
N1802 C1805 1.350 . S
N1803 S1801 1.610 . S
N1803 C1804 1.351 . S
C1804 C1798 1.428 . S
C1804 N1803 1.351 . S
C1804 C1805 1.434 . S
C1805 C1796 1.429 . S
C1805 N1802 1.350 . S
C1805 C1804 1.434 . S
C1806 C1807 1.369 . S
C1806 C1808 1.419 . S
C1806 H1810 0.930 . S
C1807 C1806 1.369 . S
C1807 C1816 1.429 . S
C1808 C1806 1.419 . S
C1808 C1809 1.363 . S
C1808 H1811 0.929 . S
C1809 C1808 1.363 . S
C1809 C1815 1.428 . S
H1810 C1806 0.930 . S
H1811 C1808 0.929 . S
S1812 N1813 1.613 . S
S1812 N1814 1.610 . S
N1813 S1812 1.613 . S
N1813 C1816 1.350 . S
N1814 S1812 1.610 . S
N1814 C1815 1.351 . S
C1815 C1809 1.428 . S
C1815 N1814 1.351 . S
C1815 C1816 1.434 . S
C1816 C1807 1.429 . S
C1816 N1813 1.350 . S
C1816 C1815 1.434 . S
C1817 C1818 1.369 . S
C1817 C1819 1.419 . S
C1817 H1821 0.930 . S
C1818 C1817 1.369 . S
C1818 C1827 1.429 . S
C1819 C1817 1.419 . S
C1819 C1820 1.363 . S
C1819 H1822 0.929 . S
C1820 C1819 1.363 . S
C1820 C1826 1.428 . S
H1821 C1817 0.930 . S
H1822 C1819 0.929 . S
S1823 N1824 1.613 . S
S1823 N1825 1.610 . S
N1824 S1823 1.613 . S
N1824 C1827 1.350 . S
N1825 S1823 1.610 . S
N1825 C1826 1.351 . S
C1826 C1820 1.428 . S
C1826 N1825 1.351 . S
C1826 C1827 1.434 . S
C1827 C1818 1.429 . S
C1827 N1824 1.350 . S
C1827 C1826 1.434 . S
C1828 C1829 1.369 . S
C1828 C1830 1.419 . S
C1828 H1832 0.930 . S
C1829 C1828 1.369 . S
C1829 C1838 1.429 . S
C1830 C1828 1.419 . S
C1830 C1831 1.363 . S
C1830 H1833 0.929 . S
C1831 C1830 1.363 . S
C1831 C1837 1.428 . S
H1832 C1828 0.930 . S
H1833 C1830 0.929 . S
S1834 N1835 1.613 . S
S1834 N1836 1.610 . S
N1835 S1834 1.613 . S
N1835 C1838 1.350 . S
N1836 S1834 1.610 . S
N1836 C1837 1.351 . S
C1837 C1831 1.428 . S
C1837 N1836 1.351 . S
C1837 C1838 1.434 . S
C1838 C1829 1.429 . S
C1838 N1835 1.350 . S
C1838 C1837 1.434 . S
C1839 C1840 1.369 . S
C1839 C1841 1.419 . S
C1839 H1843 0.930 . S
C1840 C1839 1.369 . S
C1840 C1849 1.429 . S
C1841 C1839 1.419 . S
C1841 C1842 1.363 . S
C1841 H1844 0.929 . S
C1842 C1841 1.363 . S
C1842 C1848 1.428 . S
H1843 C1839 0.930 . S
H1844 C1841 0.929 . S
S1845 N1846 1.613 . S
S1845 N1847 1.610 . S
N1846 S1845 1.613 . S
N1846 C1849 1.350 . S
N1847 S1845 1.610 . S
N1847 C1848 1.351 . S
C1848 C1842 1.428 . S
C1848 N1847 1.351 . S
C1848 C1849 1.434 . S
C1849 C1840 1.429 . S
C1849 N1846 1.350 . S
C1849 C1848 1.434 . S
C1850 C1851 1.369 . S
C1850 C1852 1.419 . S
C1850 H1854 0.930 . S
C1851 C1850 1.369 . S
C1851 C1860 1.429 . S
C1852 C1850 1.419 . S
C1852 C1853 1.363 . S
C1852 H1855 0.929 . S
C1853 C1852 1.363 . S
C1853 C1859 1.428 . S
H1854 C1850 0.930 . S
H1855 C1852 0.929 . S
S1856 N1857 1.613 . S
S1856 N1858 1.610 . S
N1857 S1856 1.613 . S
N1857 C1860 1.350 . S
N1858 S1856 1.610 . S
N1858 C1859 1.351 . S
C1859 C1853 1.428 . S
C1859 N1858 1.351 . S
C1859 C1860 1.434 . S
C1860 C1851 1.429 . S
C1860 N1857 1.350 . S
C1860 C1859 1.434 . S
C1861 C1862 1.369 . S
C1861 C1863 1.419 . S
C1861 H1865 0.930 . S
C1862 C1861 1.369 . S
C1862 C1871 1.429 . S
C1863 C1861 1.419 . S
C1863 C1864 1.363 . S
C1863 H1866 0.929 . S
C1864 C1863 1.363 . S
C1864 C1870 1.428 . S
H1865 C1861 0.930 . S
H1866 C1863 0.929 . S
S1867 N1868 1.613 . S
S1867 N1869 1.610 . S
N1868 S1867 1.613 . S
N1868 C1871 1.350 . S
N1869 S1867 1.610 . S
N1869 C1870 1.351 . S
C1870 C1864 1.428 . S
C1870 N1869 1.351 . S
C1870 C1871 1.434 . S
C1871 C1862 1.429 . S
C1871 N1868 1.350 . S
C1871 C1870 1.434 . S
C1872 C1873 1.369 . S
C1872 C1874 1.419 . S
C1872 H1876 0.930 . S
C1873 C1872 1.369 . S
C1873 C1882 1.429 . S
C1874 C1872 1.419 . S
C1874 C1875 1.363 . S
C1874 H1877 0.929 . S
C1875 C1874 1.363 . S
C1875 C1881 1.428 . S
H1876 C1872 0.930 . S
H1877 C1874 0.929 . S
S1878 N1879 1.613 . S
S1878 N1880 1.643 . S
N1879 S1878 1.613 . S
N1879 C1882 1.364 . S
N1880 S1878 1.643 . S
N1880 C1881 1.351 . S
C1881 C1875 1.428 . S
C1881 N1880 1.351 . S
C1881 C1882 1.434 . S
C1882 C1873 1.429 . S
C1882 N1879 1.364 . S
C1882 C1881 1.434 . S
C1883 C1884 1.369 . S
C1883 C1885 1.419 . S
C1883 H1887 0.930 . S
C1884 C1883 1.369 . S
C1884 C1893 1.429 . S
C1885 C1883 1.419 . S
C1885 C1886 1.363 . S
C1885 H1888 0.929 . S
C1886 C1885 1.363 . S
C1886 C1892 1.428 . S
H1887 C1883 0.930 . S
H1888 C1885 0.929 . S
S1889 N1890 1.613 . S
S1889 N1891 1.610 . S
N1890 S1889 1.613 . S
N1890 C1893 1.350 . S
N1891 S1889 1.610 . S
N1891 C1892 1.351 . S
C1892 C1886 1.428 . S
C1892 N1891 1.351 . S
C1892 C1893 1.434 . S
C1893 C1884 1.429 . S
C1893 N1890 1.350 . S
C1893 C1892 1.434 . S
C1894 C1895 1.369 . S
C1894 C1896 1.419 . S
C1894 H1898 0.930 . S
C1895 C1894 1.369 . S
C1895 C1904 1.429 . S
C1896 C1894 1.419 . S
C1896 C1897 1.363 . S
C1896 H1899 0.929 . S
C1897 C1896 1.363 . S
C1897 C1903 1.428 . S
H1898 C1894 0.930 . S
H1899 C1896 0.929 . S
S1900 N1901 1.613 . S
S1900 N1902 1.610 . S
N1901 S1900 1.613 . S
N1901 C1904 1.350 . S
N1902 S1900 1.610 . S
N1902 C1903 1.351 . S
C1903 C1897 1.428 . S
C1903 N1902 1.351 . S
C1903 C1904 1.434 . S
C1904 C1895 1.429 . S
C1904 N1901 1.350 . S
C1904 C1903 1.434 . S
C1905 C1906 1.369 . S
C1905 C1907 1.419 . S
C1905 H1909 0.930 . S
C1906 C1905 1.369 . S
C1906 C1915 1.429 . S
C1907 C1905 1.419 . S
C1907 C1908 1.363 . S
C1907 H1910 0.929 . S
C1908 C1907 1.363 . S
C1908 C1914 1.428 . S
H1909 C1905 0.930 . S
H1910 C1907 0.929 . S
S1911 N1912 1.613 . S
S1911 N1913 1.610 . S
N1912 S1911 1.613 . S
N1912 C1915 1.350 . S
N1913 S1911 1.610 . S
N1913 C1914 1.351 . S
C1914 C1908 1.428 . S
C1914 N1913 1.351 . S
C1914 C1915 1.434 . S
C1915 C1906 1.429 . S
C1915 N1912 1.350 . S
C1915 C1914 1.434 . S
C1916 C1917 1.369 . S
C1916 C1918 1.419 . S
C1916 H1920 0.930 . S
C1917 C1916 1.369 . S
C1917 C1926 1.429 . S
C1918 C1916 1.419 . S
C1918 C1919 1.363 . S
C1918 H1921 0.929 . S
C1919 C1918 1.363 . S
C1919 C1925 1.428 . S
H1920 C1916 0.930 . S
H1921 C1918 0.929 . S
S1922 N1923 1.613 . S
S1922 N1924 1.610 . S
N1923 S1922 1.613 . S
N1923 C1926 1.350 . S
N1924 S1922 1.610 . S
N1924 C1925 1.351 . S
C1925 C1919 1.428 . S
C1925 N1924 1.351 . S
C1925 C1926 1.434 . S
C1926 C1917 1.429 . S
C1926 N1923 1.350 . S
C1926 C1925 1.434 . S
C1927 C1928 1.369 . S
C1927 C1929 1.419 . S
C1927 H1931 0.930 . S
C1928 C1927 1.369 . S
C1928 C1937 1.429 . S
C1929 C1927 1.419 . S
C1929 C1930 1.363 . S
C1929 H1932 0.929 . S
C1930 C1929 1.363 . S
C1930 C1936 1.428 . S
H1931 C1927 0.930 . S
H1932 C1929 0.929 . S
S1933 N1934 1.613 . S
S1933 N1935 1.610 . S
N1934 S1933 1.613 . S
N1934 C1937 1.350 . S
N1935 S1933 1.610 . S
N1935 C1936 1.351 . S
C1936 C1930 1.428 . S
C1936 N1935 1.351 . S
C1936 C1937 1.434 . S
C1937 C1928 1.429 . S
C1937 N1934 1.350 . S
C1937 C1936 1.434 . S
C1938 C1939 1.369 . S
C1938 C1940 1.419 . S
C1938 H1942 0.930 . S
C1939 C1938 1.369 . S
C1939 C1948 1.429 . S
C1940 C1938 1.419 . S
C1940 C1941 1.363 . S
C1940 H1943 0.929 . S
C1941 C1940 1.363 . S
C1941 C1947 1.428 . S
H1942 C1938 0.930 . S
H1943 C1940 0.929 . S
S1944 N1945 1.613 . S
S1944 N1946 1.610 . S
N1945 S1944 1.613 . S
N1945 C1948 1.350 . S
N1946 S1944 1.610 . S
N1946 C1947 1.351 . S
C1947 C1941 1.428 . S
C1947 N1946 1.351 . S
C1947 C1948 1.434 . S
C1948 C1939 1.429 . S
C1948 N1945 1.350 . S
C1948 C1947 1.434 . S
C1949 C1950 1.369 . S
C1949 C1951 1.419 . S
C1949 H1953 0.930 . S
C1950 C1949 1.369 . S
C1950 C1959 1.429 . S
C1951 C1949 1.419 . S
C1951 C1952 1.363 . S
C1951 H1954 0.929 . S
C1952 C1951 1.363 . S
C1952 C1958 1.428 . S
H1953 C1949 0.930 . S
H1954 C1951 0.929 . S
S1955 N1956 1.613 . S
S1955 N1957 1.610 . S
N1956 S1955 1.613 . S
N1956 C1959 1.350 . S
N1957 S1955 1.610 . S
N1957 C1958 1.351 . S
C1958 C1952 1.428 . S
C1958 N1957 1.351 . S
C1958 C1959 1.434 . S
C1959 C1950 1.429 . S
C1959 N1956 1.350 . S
C1959 C1958 1.434 . S
C1960 C1961 1.369 . S
C1960 C1962 1.419 . S
C1960 H1964 0.930 . S
C1961 C1960 1.369 . S
C1961 C1970 1.429 . S
C1962 C1960 1.419 . S
C1962 C1963 1.363 . S
C1962 H1965 0.929 . S
C1963 C1962 1.363 . S
C1963 C1969 1.428 . S
H1964 C1960 0.930 . S
H1965 C1962 0.929 . S
S1966 N1967 1.613 . S
S1966 N1968 1.610 1_545 S
N1967 S1966 1.613 . S
N1967 C1970 1.350 1_545 S
N1968 S1966 1.610 1_565 S
N1968 C1969 1.351 . S
C1969 C1963 1.428 . S
C1969 N1968 1.351 . S
C1969 C1970 1.434 . S
C1970 C1961 1.429 . S
C1970 N1967 1.350 1_565 S
C1970 C1969 1.434 . S
C1971 C1972 1.369 . S
C1971 C1973 1.419 . S
C1971 H1975 0.930 . S
C1972 C1971 1.369 . S
C1972 C1981 1.429 . S
C1973 C1971 1.419 . S
C1973 C1974 1.363 . S
C1973 H1976 0.929 . S
C1974 C1973 1.363 . S
C1974 C1980 1.428 . S
H1975 C1971 0.930 . S
H1976 C1973 0.929 . S
S1977 N1978 1.613 . S
S1977 N1979 1.610 . S
N1978 S1977 1.613 . S
N1978 C1981 1.350 . S
N1979 S1977 1.610 . S
N1979 C1980 1.351 . S
C1980 C1974 1.428 . S
C1980 N1979 1.351 . S
C1980 C1981 1.434 . S
C1981 C1972 1.429 . S
C1981 N1978 1.350 . S
C1981 C1980 1.434 . S
C1982 C1983 1.369 . S
C1982 C1984 1.419 . S
C1982 H1986 0.930 . S
C1983 C1982 1.369 . S
C1983 C1992 1.429 . S
C1984 C1982 1.419 . S
C1984 C1985 1.363 . S
C1984 H1987 0.929 . S
C1985 C1984 1.363 . S
C1985 C1991 1.428 . S
H1986 C1982 0.930 . S
H1987 C1984 0.929 . S
S1988 N1989 1.613 . S
S1988 N1990 1.610 . S
N1989 S1988 1.613 . S
N1989 C1992 1.350 . S
N1990 S1988 1.610 . S
N1990 C1991 1.351 . S
C1991 C1985 1.428 . S
C1991 N1990 1.351 . S
C1991 C1992 1.434 . S
C1992 C1983 1.429 . S
C1992 N1989 1.350 . S
C1992 C1991 1.434 . S
C1993 C1994 1.369 . S
C1993 C1995 1.419 . S
C1993 H1997 0.930 . S
C1994 C1993 1.369 . S
C1994 C2003 1.429 . S
C1995 C1993 1.419 . S
C1995 C1996 1.363 . S
C1995 H1998 0.929 . S
C1996 C1995 1.363 . S
C1996 C2002 1.428 . S
H1997 C1993 0.930 . S
H1998 C1995 0.929 . S
S1999 N2000 1.613 . S
S1999 N2001 1.610 . S
N2000 S1999 1.613 . S
N2000 C2003 1.350 . S
N2001 S1999 1.610 . S
N2001 C2002 1.351 . S
C2002 C1996 1.428 . S
C2002 N2001 1.351 . S
C2002 C2003 1.434 . S
C2003 C1994 1.429 . S
C2003 N2000 1.350 . S
C2003 C2002 1.434 . S
C2004 C2005 1.369 . S
C2004 C2006 1.419 . S
C2004 H2008 0.930 . S
C2005 C2004 1.369 . S
C2005 C2014 1.429 . S
C2006 C2004 1.419 . S
C2006 C2007 1.363 . S
C2006 H2009 0.929 . S
C2007 C2006 1.363 . S
C2007 C2013 1.428 . S
H2008 C2004 0.930 . S
H2009 C2006 0.929 . S
S2010 N2011 1.613 . S
S2010 N2012 1.610 . S
N2011 S2010 1.613 . S
N2011 C2014 1.350 . S
N2012 S2010 1.610 . S
N2012 C2013 1.351 . S
C2013 C2007 1.428 . S
C2013 N2012 1.351 . S
C2013 C2014 1.434 . S
C2014 C2005 1.429 . S
C2014 N2011 1.350 . S
C2014 C2013 1.434 . S
C2015 C2016 1.369 . S
C2015 C2017 1.419 . S
C2015 H2019 0.930 . S
C2016 C2015 1.369 . S
C2016 C2025 1.429 . S
C2017 C2015 1.419 . S
C2017 C2018 1.363 . S
C2017 H2020 0.929 . S
C2018 C2017 1.363 . S
C2018 C2024 1.428 . S
H2019 C2015 0.930 . S
H2020 C2017 0.929 . S
S2021 N2022 1.613 . S
S2021 N2023 1.610 . S
N2022 S2021 1.613 . S
N2022 C2025 1.350 . S
N2023 S2021 1.610 . S
N2023 C2024 1.351 . S
C2024 C2018 1.428 . S
C2024 N2023 1.351 . S
C2024 C2025 1.434 . S
C2025 C2016 1.429 . S
C2025 N2022 1.350 . S
C2025 C2024 1.434 . S
C2026 C2027 1.369 . S
C2026 C2028 1.419 . S
C2026 H2030 0.930 . S
C2027 C2026 1.369 . S
C2027 C2036 1.429 . S
C2028 C2026 1.419 . S
C2028 C2029 1.363 . S
C2028 H2031 0.929 . S
C2029 C2028 1.363 . S
C2029 C2035 1.428 . S
H2030 C2026 0.930 . S
H2031 C2028 0.929 . S
S2032 N2033 1.613 . S
S2032 N2034 1.610 . S
N2033 S2032 1.613 . S
N2033 C2036 1.350 . S
N2034 S2032 1.610 . S
N2034 C2035 1.351 . S
C2035 C2029 1.428 . S
C2035 N2034 1.351 . S
C2035 C2036 1.434 . S
C2036 C2027 1.429 . S
C2036 N2033 1.350 . S
C2036 C2035 1.434 . S
C2037 C2038 1.369 . S
C2037 C2039 1.419 . S
C2037 H2041 0.930 . S
C2038 C2037 1.369 . S
C2038 C2047 1.429 . S
C2039 C2037 1.419 . S
C2039 C2040 1.363 . S
C2039 H2042 0.929 . S
C2040 C2039 1.363 . S
C2040 C2046 1.428 . S
H2041 C2037 0.930 . S
H2042 C2039 0.929 . S
S2043 N2044 1.613 . S
S2043 N2045 1.610 . S
N2044 S2043 1.613 . S
N2044 C2047 1.350 . S
N2045 S2043 1.610 . S
N2045 C2046 1.351 . S
C2046 C2040 1.428 . S
C2046 N2045 1.351 . S
C2046 C2047 1.434 . S
C2047 C2038 1.429 . S
C2047 N2044 1.350 . S
C2047 C2046 1.434 . S
C2048 C2049 1.369 . S
C2048 C2050 1.419 . S
C2048 H2052 0.930 . S
C2049 C2048 1.369 . S
C2049 C2058 1.429 . S
C2050 C2048 1.419 . S
C2050 C2051 1.363 . S
C2050 H2053 0.929 . S
C2051 C2050 1.363 . S
C2051 C2057 1.428 . S
H2052 C2048 0.930 . S
H2053 C2050 0.929 . S
S2054 N2055 1.613 . S
S2054 N2056 1.610 . S
N2055 S2054 1.613 . S
N2055 C2058 1.350 . S
N2056 S2054 1.610 . S
N2056 C2057 1.351 . S
C2057 C2051 1.428 . S
C2057 N2056 1.351 . S
C2057 C2058 1.434 . S
C2058 C2049 1.429 . S
C2058 N2055 1.350 . S
C2058 C2057 1.434 . S
C2059 C2060 1.369 . S
C2059 C2061 1.419 . S
C2059 H2063 0.930 . S
C2060 C2059 1.369 . S
C2060 C2069 1.429 . S
C2061 C2059 1.419 . S
C2061 C2062 1.363 . S
C2061 H2064 0.929 . S
C2062 C2061 1.363 . S
C2062 C2068 1.428 . S
H2063 C2059 0.930 . S
H2064 C2061 0.929 . S
S2065 N2066 1.613 . S
S2065 N2067 1.610 . S
N2066 S2065 1.613 . S
N2066 C2069 1.350 . S
N2067 S2065 1.610 . S
N2067 C2068 1.351 . S
C2068 C2062 1.428 . S
C2068 N2067 1.351 . S
C2068 C2069 1.434 . S
C2069 C2060 1.429 . S
C2069 N2066 1.350 . S
C2069 C2068 1.434 . S
C2070 C2071 1.369 . S
C2070 C2072 1.419 . S
C2070 H2074 0.930 . S
C2071 C2070 1.369 . S
C2071 C2080 1.429 . S
C2072 C2070 1.419 . S
C2072 C2073 1.363 . S
C2072 H2075 0.929 . S
C2073 C2072 1.363 . S
C2073 C2079 1.428 . S
H2074 C2070 0.930 . S
H2075 C2072 0.929 . S
S2076 N2077 1.613 . S
S2076 N2078 1.610 . S
N2077 S2076 1.613 . S
N2077 C2080 1.350 . S
N2078 S2076 1.610 . S
N2078 C2079 1.351 . S
C2079 C2073 1.428 . S
C2079 N2078 1.351 . S
C2079 C2080 1.434 . S
C2080 C2071 1.429 . S
C2080 N2077 1.350 . S
C2080 C2079 1.434 . S
C2081 C2082 1.369 . S
C2081 C2083 1.419 . S
C2081 H2085 0.930 . S
C2082 C2081 1.369 . S
C2082 C2091 1.429 . S
C2083 C2081 1.419 . S
C2083 C2084 1.363 . S
C2083 H2086 0.929 . S
C2084 C2083 1.363 . S
C2084 C2090 1.428 . S
H2085 C2081 0.930 . S
H2086 C2083 0.929 . S
S2087 N2088 1.613 . S
S2087 N2089 1.610 . S
N2088 S2087 1.613 . S
N2088 C2091 1.350 . S
N2089 S2087 1.610 . S
N2089 C2090 1.351 . S
C2090 C2084 1.428 . S
C2090 N2089 1.351 . S
C2090 C2091 1.434 . S
C2091 C2082 1.429 . S
C2091 N2088 1.350 . S
C2091 C2090 1.434 . S
C2092 C2093 1.369 . S
C2092 C2094 1.419 . S
C2092 H2096 0.930 . S
C2093 C2092 1.369 . S
C2093 C2102 1.429 . S
C2094 C2092 1.419 . S
C2094 C2095 1.363 . S
C2094 H2097 0.929 . S
C2095 C2094 1.363 . S
C2095 C2101 1.428 . S
H2096 C2092 0.930 . S
H2097 C2094 0.929 . S
S2098 N2099 1.613 . S
S2098 N2100 1.610 . S
N2099 S2098 1.613 . S
N2099 C2102 1.350 . S
N2100 S2098 1.610 . S
N2100 C2101 1.351 . S
C2101 C2095 1.428 . S
C2101 N2100 1.351 . S
C2101 C2102 1.434 . S
C2102 C2093 1.429 . S
C2102 N2099 1.350 . S
C2102 C2101 1.434 . S
C2103 C2104 1.369 . S
C2103 C2105 1.419 . S
C2103 H2107 0.930 . S
C2104 C2103 1.369 . S
C2104 C2113 1.429 . S
C2105 C2103 1.419 . S
C2105 C2106 1.363 . S
C2105 H2108 0.929 . S
C2106 C2105 1.363 . S
C2106 C2112 1.428 . S
H2107 C2103 0.930 . S
H2108 C2105 0.929 . S
S2109 N2110 1.613 . S
S2109 N2111 1.610 . S
N2110 S2109 1.613 . S
N2110 C2113 1.350 . S
N2111 S2109 1.610 . S
N2111 C2112 1.351 . S
C2112 C2106 1.428 . S
C2112 N2111 1.351 . S
C2112 C2113 1.434 . S
C2113 C2104 1.429 . S
C2113 N2110 1.350 . S
C2113 C2112 1.434 . S
C2114 C2115 1.369 . S
C2114 C2116 1.419 . S
C2114 H2118 0.930 . S
C2115 C2114 1.369 . S
C2115 C2124 1.429 . S
C2116 C2114 1.419 . S
C2116 C2117 1.363 . S
C2116 H2119 0.929 . S
C2117 C2116 1.363 . S
C2117 C2123 1.428 . S
H2118 C2114 0.930 . S
H2119 C2116 0.929 . S
S2120 N2121 1.613 . S
S2120 N2122 1.610 . S
N2121 S2120 1.613 . S
N2121 C2124 1.350 . S
N2122 S2120 1.610 . S
N2122 C2123 1.351 . S
C2123 C2117 1.428 . S
C2123 N2122 1.351 . S
C2123 C2124 1.434 . S
C2124 C2115 1.429 . S
C2124 N2121 1.350 . S
C2124 C2123 1.434 . S
C2125 C2126 1.369 . S
C2125 C2127 1.419 . S
C2125 H2129 0.930 . S
C2126 C2125 1.369 . S
C2126 C2135 1.429 . S
C2127 C2125 1.419 . S
C2127 C2128 1.363 . S
C2127 H2130 0.929 . S
C2128 C2127 1.363 . S
C2128 C2134 1.428 . S
H2129 C2125 0.930 . S
H2130 C2127 0.929 . S
S2131 N2132 1.613 . S
S2131 N2133 1.610 . S
N2132 S2131 1.613 . S
N2132 C2135 1.350 . S
N2133 S2131 1.610 . S
N2133 C2134 1.351 . S
C2134 C2128 1.428 . S
C2134 N2133 1.351 . S
C2134 C2135 1.434 . S
C2135 C2126 1.429 . S
C2135 N2132 1.350 . S
C2135 C2134 1.434 . S
C2136 C2137 1.369 . S
C2136 C2138 1.419 . S
C2136 H2140 0.930 . S
C2137 C2136 1.369 . S
C2137 C2146 1.429 . S
C2138 C2136 1.419 . S
C2138 C2139 1.363 . S
C2138 H2141 0.929 . S
C2139 C2138 1.363 . S
C2139 C2145 1.428 . S
H2140 C2136 0.930 . S
H2141 C2138 0.929 . S
S2142 N2143 1.613 . S
S2142 N2144 1.610 . S
N2143 S2142 1.613 . S
N2143 C2146 1.350 . S
N2144 S2142 1.610 . S
N2144 C2145 1.351 . S
C2145 C2139 1.428 . S
C2145 N2144 1.351 . S
C2145 C2146 1.434 . S
C2146 C2137 1.429 . S
C2146 N2143 1.350 . S
C2146 C2145 1.434 . S
C2147 C2148 1.369 . S
C2147 C2149 1.419 . S
C2147 H2151 0.930 . S
C2148 C2147 1.369 . S
C2148 C2157 1.429 . S
C2149 C2147 1.419 . S
C2149 C2150 1.363 . S
C2149 H2152 0.929 . S
C2150 C2149 1.363 . S
C2150 C2156 1.428 . S
H2151 C2147 0.930 . S
H2152 C2149 0.929 . S
S2153 N2154 1.613 . S
S2153 N2155 1.610 . S
N2154 S2153 1.613 . S
N2154 C2157 1.350 . S
N2155 S2153 1.610 . S
N2155 C2156 1.351 . S
C2156 C2150 1.428 . S
C2156 N2155 1.351 . S
C2156 C2157 1.434 . S
C2157 C2148 1.429 . S
C2157 N2154 1.350 . S
C2157 C2156 1.434 . S
C2158 C2159 1.369 . S
C2158 C2160 1.419 . S
C2158 H2162 0.930 . S
C2159 C2158 1.369 . S
C2159 C2168 1.429 . S
C2160 C2158 1.419 . S
C2160 C2161 1.363 . S
C2160 H2163 0.929 . S
C2161 C2160 1.363 . S
C2161 C2167 1.428 . S
H2162 C2158 0.930 . S
H2163 C2160 0.929 . S
S2164 N2165 1.613 . S
S2164 N2166 1.610 . S
N2165 S2164 1.613 . S
N2165 C2168 1.350 . S
N2166 S2164 1.610 . S
N2166 C2167 1.351 . S
C2167 C2161 1.428 . S
C2167 N2166 1.351 . S
C2167 C2168 1.434 . S
C2168 C2159 1.429 . S
C2168 N2165 1.350 . S
C2168 C2167 1.434 . S
C2169 C2170 1.369 . S
C2169 C2171 1.419 . S
C2169 H2173 0.930 . S
C2170 C2169 1.369 . S
C2170 C2179 1.429 . S
C2171 C2169 1.419 . S
C2171 C2172 1.363 . S
C2171 H2174 0.929 . S
C2172 C2171 1.363 . S
C2172 C2178 1.428 . S
H2173 C2169 0.930 . S
H2174 C2171 0.929 . S
S2175 N2176 1.613 . S
S2175 N2177 1.610 . S
N2176 S2175 1.613 . S
N2176 C2179 1.350 . S
N2177 S2175 1.610 . S
N2177 C2178 1.351 . S
C2178 C2172 1.428 . S
C2178 N2177 1.351 . S
C2178 C2179 1.434 . S
C2179 C2170 1.429 . S
C2179 N2176 1.350 . S
C2179 C2178 1.434 . S
C2180 C2181 1.369 . S
C2180 C2182 1.419 . S
C2180 H2184 0.930 . S
C2181 C2180 1.369 . S
C2181 C2190 1.429 . S
C2182 C2180 1.419 . S
C2182 C2183 1.363 . S
C2182 H2185 0.929 . S
C2183 C2182 1.363 . S
C2183 C2189 1.428 . S
H2184 C2180 0.930 . S
H2185 C2182 0.929 . S
S2186 N2187 1.613 . S
S2186 N2188 1.610 . S
N2187 S2186 1.613 . S
N2187 C2190 1.350 . S
N2188 S2186 1.610 . S
N2188 C2189 1.351 . S
C2189 C2183 1.428 . S
C2189 N2188 1.351 . S
C2189 C2190 1.434 . S
C2190 C2181 1.429 . S
C2190 N2187 1.350 . S
C2190 C2189 1.434 . S
C2191 C2192 1.369 . S
C2191 C2193 1.419 . S
C2191 H2195 0.930 . S
C2192 C2191 1.369 . S
C2192 C2201 1.429 . S
C2193 C2191 1.419 . S
C2193 C2194 1.363 . S
C2193 H2196 0.929 . S
C2194 C2193 1.363 . S
C2194 C2200 1.428 . S
H2195 C2191 0.930 . S
H2196 C2193 0.929 . S
S2197 N2198 1.613 . S
S2197 N2199 1.610 . S
N2198 S2197 1.613 . S
N2198 C2201 1.350 . S
N2199 S2197 1.610 . S
N2199 C2200 1.351 . S
C2200 C2194 1.428 . S
C2200 N2199 1.351 . S
C2200 C2201 1.434 . S
C2201 C2192 1.429 . S
C2201 N2198 1.350 . S
C2201 C2200 1.434 . S
C2202 C2203 1.369 . S
C2202 C2204 1.419 . S
C2202 H2206 0.930 . S
C2203 C2202 1.369 . S
C2203 C2212 1.429 . S
C2204 C2202 1.419 . S
C2204 C2205 1.363 . S
C2204 H2207 0.929 . S
C2205 C2204 1.363 . S
C2205 C2211 1.428 . S
H2206 C2202 0.930 . S
H2207 C2204 0.929 . S
S2208 N2209 1.613 . S
S2208 N2210 1.610 . S
N2209 S2208 1.613 . S
N2209 C2212 1.350 . S
N2210 S2208 1.610 . S
N2210 C2211 1.351 . S
C2211 C2205 1.428 . S
C2211 N2210 1.351 . S
C2211 C2212 1.434 . S
C2212 C2203 1.429 . S
C2212 N2209 1.350 . S
C2212 C2211 1.434 . S
C2213 C2214 1.369 . S
C2213 C2215 1.419 . S
C2213 H2217 0.930 . S
C2214 C2213 1.369 . S
C2214 C2223 1.429 . S
C2215 C2213 1.419 . S
C2215 C2216 1.363 . S
C2215 H2218 0.929 . S
C2216 C2215 1.363 . S
C2216 C2222 1.428 . S
H2217 C2213 0.930 . S
H2218 C2215 0.929 . S
S2219 N2220 1.613 . S
S2219 N2221 1.610 . S
N2220 S2219 1.613 . S
N2220 C2223 1.350 . S
N2221 S2219 1.610 . S
N2221 C2222 1.351 . S
C2222 C2216 1.428 . S
C2222 N2221 1.351 . S
C2222 C2223 1.434 . S
C2223 C2214 1.429 . S
C2223 N2220 1.350 . S
C2223 C2222 1.434 . S
C2224 C2225 1.369 . S
C2224 C2226 1.419 . S
C2224 H2228 0.930 . S
C2225 C2224 1.369 . S
C2225 C2234 1.429 . S
C2226 C2224 1.419 . S
C2226 C2227 1.363 . S
C2226 H2229 0.929 . S
C2227 C2226 1.363 . S
C2227 C2233 1.428 . S
H2228 C2224 0.930 . S
H2229 C2226 0.929 . S
S2230 N2231 1.613 . S
S2230 N2232 1.610 . S
N2231 S2230 1.613 . S
N2231 C2234 1.350 . S
N2232 S2230 1.610 . S
N2232 C2233 1.351 . S
C2233 C2227 1.428 . S
C2233 N2232 1.351 . S
C2233 C2234 1.434 . S
C2234 C2225 1.429 . S
C2234 N2231 1.350 . S
C2234 C2233 1.434 . S
C2235 C2236 1.369 . S
C2235 C2237 1.419 . S
C2235 H2239 0.930 . S
C2236 C2235 1.369 . S
C2236 C2245 1.429 . S
C2237 C2235 1.419 . S
C2237 C2238 1.363 . S
C2237 H2240 0.929 . S
C2238 C2237 1.363 . S
C2238 C2244 1.428 . S
H2239 C2235 0.930 . S
H2240 C2237 0.929 . S
S2241 N2242 1.613 . S
S2241 N2243 1.610 . S
N2242 S2241 1.613 . S
N2242 C2245 1.350 . S
N2243 S2241 1.610 . S
N2243 C2244 1.351 . S
C2244 C2238 1.428 . S
C2244 N2243 1.351 . S
C2244 C2245 1.434 . S
C2245 C2236 1.429 . S
C2245 N2242 1.350 . S
C2245 C2244 1.434 . S
C2246 C2247 1.369 . S
C2246 C2248 1.419 . S
C2246 H2250 0.930 . S
C2247 C2246 1.369 . S
C2247 C2256 1.429 . S
C2248 C2246 1.419 . S
C2248 C2249 1.363 . S
C2248 H2251 0.929 . S
C2249 C2248 1.363 . S
C2249 C2255 1.428 . S
H2250 C2246 0.930 . S
H2251 C2248 0.929 . S
S2252 N2253 1.613 . S
S2252 N2254 1.610 . S
N2253 S2252 1.613 . S
N2253 C2256 1.350 . S
N2254 S2252 1.610 . S
N2254 C2255 1.351 . S
C2255 C2249 1.428 . S
C2255 N2254 1.351 . S
C2255 C2256 1.434 . S
C2256 C2247 1.429 . S
C2256 N2253 1.350 . S
C2256 C2255 1.434 . S
C2257 C2258 1.369 . S
C2257 C2259 1.419 . S
C2257 H2261 0.930 . S
C2258 C2257 1.369 . S
C2258 C2267 1.429 . S
C2259 C2257 1.419 . S
C2259 C2260 1.363 . S
C2259 H2262 0.929 . S
C2260 C2259 1.363 . S
C2260 C2266 1.428 . S
H2261 C2257 0.930 . S
H2262 C2259 0.929 . S
S2263 N2264 1.613 . S
S2263 N2265 1.610 . S
N2264 S2263 1.613 . S
N2264 C2267 1.350 . S
N2265 S2263 1.610 . S
N2265 C2266 1.351 . S
C2266 C2260 1.428 . S
C2266 N2265 1.351 . S
C2266 C2267 1.434 . S
C2267 C2258 1.429 . S
C2267 N2264 1.350 . S
C2267 C2266 1.434 . S
C2268 C2269 1.369 . S
C2268 C2270 1.419 . S
C2268 H2272 0.930 . S
C2269 C2268 1.369 . S
C2269 C2278 1.429 . S
C2270 C2268 1.419 . S
C2270 C2271 1.363 . S
C2270 H2273 0.929 . S
C2271 C2270 1.363 . S
C2271 C2277 1.428 . S
H2272 C2268 0.930 . S
H2273 C2270 0.929 . S
S2274 N2275 1.613 . S
S2274 N2276 1.610 . S
N2275 S2274 1.613 . S
N2275 C2278 1.350 . S
N2276 S2274 1.610 . S
N2276 C2277 1.351 . S
C2277 C2271 1.428 . S
C2277 N2276 1.351 . S
C2277 C2278 1.434 . S
C2278 C2269 1.429 . S
C2278 N2275 1.350 . S
C2278 C2277 1.434 . S
C2279 C2280 1.369 . S
C2279 C2281 1.419 . S
C2279 H2283 0.930 . S
C2280 C2279 1.369 . S
C2280 C2289 1.429 . S
C2281 C2279 1.419 . S
C2281 C2282 1.363 . S
C2281 H2284 0.929 . S
C2282 C2281 1.363 . S
C2282 C2288 1.428 . S
H2283 C2279 0.930 . S
H2284 C2281 0.929 . S
S2285 N2286 1.613 . S
S2285 N2287 1.610 . S
N2286 S2285 1.613 . S
N2286 C2289 1.350 . S
N2287 S2285 1.610 . S
N2287 C2288 1.351 . S
C2288 C2282 1.428 . S
C2288 N2287 1.351 . S
C2288 C2289 1.434 . S
C2289 C2280 1.429 . S
C2289 N2286 1.350 . S
C2289 C2288 1.434 . S
C2290 C2291 1.369 . S
C2290 C2292 1.419 . S
C2290 H2294 0.930 . S
C2291 C2290 1.369 . S
C2291 C2300 1.429 . S
C2292 C2290 1.419 . S
C2292 C2293 1.363 . S
C2292 H2295 0.929 . S
C2293 C2292 1.363 . S
C2293 C2299 1.428 . S
H2294 C2290 0.930 . S
H2295 C2292 0.929 . S
S2296 N2297 1.613 . S
S2296 N2298 1.610 . S
N2297 S2296 1.613 . S
N2297 C2300 1.350 . S
N2298 S2296 1.610 . S
N2298 C2299 1.351 . S
C2299 C2293 1.428 . S
C2299 N2298 1.351 . S
C2299 C2300 1.434 . S
C2300 C2291 1.429 . S
C2300 N2297 1.350 . S
C2300 C2299 1.434 . S
C2301 C2302 1.369 . S
C2301 C2303 1.419 . S
C2301 H2305 0.930 . S
C2302 C2301 1.369 . S
C2302 C2311 1.429 . S
C2303 C2301 1.419 . S
C2303 C2304 1.363 . S
C2303 H2306 0.929 . S
C2304 C2303 1.363 . S
C2304 C2310 1.428 . S
H2305 C2301 0.930 . S
H2306 C2303 0.929 . S
S2307 N2308 1.613 . S
S2307 N2309 1.610 . S
N2308 S2307 1.613 . S
N2308 C2311 1.350 . S
N2309 S2307 1.610 . S
N2309 C2310 1.351 . S
C2310 C2304 1.428 . S
C2310 N2309 1.351 . S
C2310 C2311 1.434 . S
C2311 C2302 1.429 . S
C2311 N2308 1.350 . S
C2311 C2310 1.434 . S
C2312 C2313 1.369 . S
C2312 C2314 1.419 . S
C2312 H2316 0.930 . S
C2313 C2312 1.369 . S
C2313 C2322 1.429 . S
C2314 C2312 1.419 . S
C2314 C2315 1.363 . S
C2314 H2317 0.929 . S
C2315 C2314 1.363 . S
C2315 C2321 1.428 . S
H2316 C2312 0.930 . S
H2317 C2314 0.929 . S
S2318 N2319 1.613 . S
S2318 N2320 1.610 . S
N2319 S2318 1.613 . S
N2319 C2322 1.350 . S
N2320 S2318 1.610 . S
N2320 C2321 1.351 . S
C2321 C2315 1.428 . S
C2321 N2320 1.351 . S
C2321 C2322 1.434 . S
C2322 C2313 1.429 . S
C2322 N2319 1.350 . S
C2322 C2321 1.434 . S
C2323 C2324 1.369 . S
C2323 C2325 1.419 . S
C2323 H2327 0.930 . S
C2324 C2323 1.369 . S
C2324 C2333 1.429 . S
C2325 C2323 1.419 . S
C2325 C2326 1.363 . S
C2325 H2328 0.929 . S
C2326 C2325 1.363 . S
C2326 C2332 1.428 . S
H2327 C2323 0.930 . S
H2328 C2325 0.929 . S
S2329 N2330 1.613 . S
S2329 N2331 1.610 . S
N2330 S2329 1.613 . S
N2330 C2333 1.350 . S
N2331 S2329 1.610 . S
N2331 C2332 1.351 . S
C2332 C2326 1.428 . S
C2332 N2331 1.351 . S
C2332 C2333 1.434 . S
C2333 C2324 1.429 . S
C2333 N2330 1.350 . S
C2333 C2332 1.434 . S
C2334 C2335 1.369 . S
C2334 C2336 1.419 . S
C2334 H2338 0.930 . S
C2335 C2334 1.369 . S
C2335 C2344 1.429 . S
C2336 C2334 1.419 . S
C2336 C2337 1.363 . S
C2336 H2339 0.929 . S
C2337 C2336 1.363 . S
C2337 C2343 1.428 . S
H2338 C2334 0.930 . S
H2339 C2336 0.929 . S
S2340 N2341 1.613 . S
S2340 N2342 1.610 . S
N2341 S2340 1.613 . S
N2341 C2344 1.350 . S
N2342 S2340 1.610 . S
N2342 C2343 1.351 . S
C2343 C2337 1.428 . S
C2343 N2342 1.351 . S
C2343 C2344 1.434 . S
C2344 C2335 1.429 . S
C2344 N2341 1.350 . S
C2344 C2343 1.434 . S
C2345 C2346 1.369 . S
C2345 C2347 1.419 . S
C2345 H2349 0.930 . S
C2346 C2345 1.369 . S
C2346 C2355 1.429 . S
C2347 C2345 1.419 . S
C2347 C2348 1.363 . S
C2347 H2350 0.929 . S
C2348 C2347 1.363 . S
C2348 C2354 1.428 . S
H2349 C2345 0.930 . S
H2350 C2347 0.929 . S
S2351 N2352 1.613 . S
S2351 N2353 1.610 . S
N2352 S2351 1.613 . S
N2352 C2355 1.350 . S
N2353 S2351 1.610 . S
N2353 C2354 1.351 . S
C2354 C2348 1.428 . S
C2354 N2353 1.351 . S
C2354 C2355 1.434 . S
C2355 C2346 1.429 . S
C2355 N2352 1.350 . S
C2355 C2354 1.434 . S
C2356 C2357 1.369 . S
C2356 C2358 1.419 . S
C2356 H2360 0.930 . S
C2357 C2356 1.369 . S
C2357 C2366 1.429 . S
C2358 C2356 1.419 . S
C2358 C2359 1.363 . S
C2358 H2361 0.929 . S
C2359 C2358 1.363 . S
C2359 C2365 1.428 . S
H2360 C2356 0.930 . S
H2361 C2358 0.929 . S
S2362 N2363 1.613 . S
S2362 N2364 1.610 . S
N2363 S2362 1.613 . S
N2363 C2366 1.350 . S
N2364 S2362 1.610 . S
N2364 C2365 1.351 . S
C2365 C2359 1.428 . S
C2365 N2364 1.351 . S
C2365 C2366 1.434 . S
C2366 C2357 1.429 . S
C2366 N2363 1.350 . S
C2366 C2365 1.434 . S
C2367 C2368 1.369 . S
C2367 C2369 1.419 . S
C2367 H2371 0.930 . S
C2368 C2367 1.369 . S
C2368 C2377 1.429 . S
C2369 C2367 1.419 . S
C2369 C2370 1.363 . S
C2369 H2372 0.929 . S
C2370 C2369 1.363 . S
C2370 C2376 1.428 . S
H2371 C2367 0.930 . S
H2372 C2369 0.929 . S
S2373 N2374 1.613 . S
S2373 N2375 1.610 . S
N2374 S2373 1.613 . S
N2374 C2377 1.350 . S
N2375 S2373 1.610 . S
N2375 C2376 1.351 . S
C2376 C2370 1.428 . S
C2376 N2375 1.351 . S
C2376 C2377 1.434 . S
C2377 C2368 1.429 . S
C2377 N2374 1.350 . S
C2377 C2376 1.434 . S
C2378 C2379 1.369 . S
C2378 C2380 1.419 . S
C2378 H2382 0.930 . S
C2379 C2378 1.369 . S
C2379 C2388 1.429 . S
C2380 C2378 1.419 . S
C2380 C2381 1.363 . S
C2380 H2383 0.929 . S
C2381 C2380 1.363 . S
C2381 C2387 1.428 . S
H2382 C2378 0.930 . S
H2383 C2380 0.929 . S
S2384 N2385 1.613 . S
S2384 N2386 1.610 . S
N2385 S2384 1.613 . S
N2385 C2388 1.350 . S
N2386 S2384 1.610 . S
N2386 C2387 1.351 . S
C2387 C2381 1.428 . S
C2387 N2386 1.351 . S
C2387 C2388 1.434 . S
C2388 C2379 1.429 . S
C2388 N2385 1.350 . S
C2388 C2387 1.434 . S
C2389 C2390 1.369 . S
C2389 C2391 1.419 . S
C2389 H2393 0.930 . S
C2390 C2389 1.369 . S
C2390 C2399 1.429 . S
C2391 C2389 1.419 . S
C2391 C2392 1.363 . S
C2391 H2394 0.929 . S
C2392 C2391 1.363 . S
C2392 C2398 1.428 . S
H2393 C2389 0.930 . S
H2394 C2391 0.929 . S
S2395 N2396 1.613 . S
S2395 N2397 1.610 . S
N2396 S2395 1.613 . S
N2396 C2399 1.350 . S
N2397 S2395 1.610 . S
N2397 C2398 1.351 . S
C2398 C2392 1.428 . S
C2398 N2397 1.351 . S
C2398 C2399 1.434 . S
C2399 C2390 1.429 . S
C2399 N2396 1.350 . S
C2399 C2398 1.434 . S
C2400 C2401 1.369 . S
C2400 C2402 1.419 . S
C2400 H2404 0.930 . S
C2401 C2400 1.369 . S
C2401 C2410 1.429 . S
C2402 C2400 1.419 . S
C2402 C2403 1.363 . S
C2402 H2405 0.929 . S
C2403 C2402 1.363 . S
C2403 C2409 1.428 . S
H2404 C2400 0.930 . S
H2405 C2402 0.929 . S
S2406 N2407 1.613 . S
S2406 N2408 1.610 . S
N2407 S2406 1.613 . S
N2407 C2410 1.350 . S
N2408 S2406 1.610 . S
N2408 C2409 1.351 . S
C2409 C2403 1.428 . S
C2409 N2408 1.351 . S
C2409 C2410 1.434 . S
C2410 C2401 1.429 . S
C2410 N2407 1.350 . S
C2410 C2409 1.434 . S
C2411 C2412 1.369 . S
C2411 C2413 1.419 . S
C2411 H2415 0.930 . S
C2412 C2411 1.369 . S
C2412 C2421 1.429 . S
C2413 C2411 1.419 . S
C2413 C2414 1.363 . S
C2413 H2416 0.929 . S
C2414 C2413 1.363 . S
C2414 C2420 1.428 . S
H2415 C2411 0.930 . S
H2416 C2413 0.929 . S
S2417 N2418 1.613 . S
S2417 N2419 1.610 . S
N2418 S2417 1.613 . S
N2418 C2421 1.350 . S
N2419 S2417 1.610 . S
N2419 C2420 1.351 . S
C2420 C2414 1.428 . S
C2420 N2419 1.351 . S
C2420 C2421 1.434 . S
C2421 C2412 1.429 . S
C2421 N2418 1.350 . S
C2421 C2420 1.434 . S
C2422 C2423 1.369 . S
C2422 C2424 1.419 . S
C2422 H2426 0.930 . S
C2423 C2422 1.369 . S
C2423 C2432 1.429 . S
C2424 C2422 1.419 . S
C2424 C2425 1.363 . S
C2424 H2427 0.929 . S
C2425 C2424 1.363 . S
C2425 C2431 1.428 . S
H2426 C2422 0.930 . S
H2427 C2424 0.929 . S
S2428 N2429 1.613 . S
S2428 N2430 1.610 . S
N2429 S2428 1.613 . S
N2429 C2432 1.350 . S
N2430 S2428 1.610 . S
N2430 C2431 1.351 . S
C2431 C2425 1.428 . S
C2431 N2430 1.351 . S
C2431 C2432 1.434 . S
C2432 C2423 1.429 . S
C2432 N2429 1.350 . S
C2432 C2431 1.434 . S
C2433 C2434 1.369 . S
C2433 C2435 1.419 . S
C2433 H2437 0.930 . S
C2434 C2433 1.369 . S
C2434 C2443 1.429 . S
C2435 C2433 1.419 . S
C2435 C2436 1.363 . S
C2435 H2438 0.929 . S
C2436 C2435 1.363 . S
C2436 C2442 1.428 . S
H2437 C2433 0.930 . S
H2438 C2435 0.929 . S
S2439 N2440 1.613 . S
S2439 N2441 1.610 . S
N2440 S2439 1.613 . S
N2440 C2443 1.350 . S
N2441 S2439 1.610 . S
N2441 C2442 1.351 . S
C2442 C2436 1.428 . S
C2442 N2441 1.351 . S
C2442 C2443 1.434 . S
C2443 C2434 1.429 . S
C2443 N2440 1.350 . S
C2443 C2442 1.434 . S
C2444 C2445 1.369 . S
C2444 C2446 1.419 . S
C2444 H2448 0.930 . S
C2445 C2444 1.369 . S
C2445 C2454 1.429 . S
C2446 C2444 1.419 . S
C2446 C2447 1.363 . S
C2446 H2449 0.929 . S
C2447 C2446 1.363 . S
C2447 C2453 1.428 . S
H2448 C2444 0.930 . S
H2449 C2446 0.929 . S
S2450 N2451 1.613 1_655 S
S2450 N2452 1.610 1_655 S
N2451 S2450 1.613 1_455 S
N2451 C2454 1.350 . S
N2452 S2450 1.610 1_455 S
N2452 C2453 1.351 . S
C2453 C2447 1.428 . S
C2453 N2452 1.351 . S
C2453 C2454 1.434 . S
C2454 C2445 1.429 . S
C2454 N2451 1.350 . S
C2454 C2453 1.434 . S
C2455 C2456 1.369 . S
C2455 C2457 1.419 . S
C2455 H2459 0.930 . S
C2456 C2455 1.369 . S
C2456 C2465 1.429 . S
C2457 C2455 1.419 . S
C2457 C2458 1.363 . S
C2457 H2460 0.929 . S
C2458 C2457 1.363 . S
C2458 C2464 1.428 . S
H2459 C2455 0.930 . S
H2460 C2457 0.929 . S
S2461 N2462 1.613 . S
S2461 N2463 1.610 . S
N2462 S2461 1.613 . S
N2462 C2465 1.350 . S
N2463 S2461 1.610 . S
N2463 C2464 1.351 . S
C2464 C2458 1.428 . S
C2464 N2463 1.351 . S
C2464 C2465 1.434 . S
C2465 C2456 1.429 . S
C2465 N2462 1.350 . S
C2465 C2464 1.434 . S
C2466 C2467 1.369 . S
C2466 C2468 1.419 . S
C2466 H2470 0.930 . S
C2467 C2466 1.369 . S
C2467 C2476 1.429 . S
C2468 C2466 1.419 . S
C2468 C2469 1.363 . S
C2468 H2471 0.929 . S
C2469 C2468 1.363 . S
C2469 C2475 1.428 . S
H2470 C2466 0.930 . S
H2471 C2468 0.929 . S
S2472 N2473 1.613 . S
S2472 N2474 1.610 . S
N2473 S2472 1.613 . S
N2473 C2476 1.350 . S
N2474 S2472 1.610 . S
N2474 C2475 1.351 . S
C2475 C2469 1.428 . S
C2475 N2474 1.351 . S
C2475 C2476 1.434 . S
C2476 C2467 1.429 . S
C2476 N2473 1.350 . S
C2476 C2475 1.434 . S
C2477 C2478 1.369 . S
C2477 C2479 1.419 . S
C2477 H2481 0.930 . S
C2478 C2477 1.369 . S
C2478 C2487 1.429 . S
C2479 C2477 1.419 . S
C2479 C2480 1.363 . S
C2479 H2482 0.929 . S
C2480 C2479 1.363 . S
C2480 C2486 1.428 . S
H2481 C2477 0.930 . S
H2482 C2479 0.929 . S
S2483 N2484 1.613 . S
S2483 N2485 1.610 . S
N2484 S2483 1.613 . S
N2484 C2487 1.350 . S
N2485 S2483 1.610 . S
N2485 C2486 1.351 . S
C2486 C2480 1.428 . S
C2486 N2485 1.351 . S
C2486 C2487 1.434 . S
C2487 C2478 1.429 . S
C2487 N2484 1.350 . S
C2487 C2486 1.434 . S
C2488 C2489 1.369 . S
C2488 C2490 1.419 . S
C2488 H2492 0.930 . S
C2489 C2488 1.369 . S
C2489 C2498 1.429 . S
C2490 C2488 1.419 . S
C2490 C2491 1.363 . S
C2490 H2493 0.929 . S
C2491 C2490 1.363 . S
C2491 C2497 1.428 . S
H2492 C2488 0.930 . S
H2493 C2490 0.929 . S
S2494 N2495 1.613 . S
S2494 N2496 1.610 . S
N2495 S2494 1.613 . S
N2495 C2498 1.350 . S
N2496 S2494 1.610 . S
N2496 C2497 1.351 . S
C2497 C2491 1.428 . S
C2497 N2496 1.351 . S
C2497 C2498 1.434 . S
C2498 C2489 1.429 . S
C2498 N2495 1.350 . S
C2498 C2497 1.434 . S
C2499 C2500 1.369 . S
C2499 C2501 1.419 . S
C2499 H2503 0.930 . S
C2500 C2499 1.369 . S
C2500 C2509 1.429 . S
C2501 C2499 1.419 . S
C2501 C2502 1.363 . S
C2501 H2504 0.929 . S
C2502 C2501 1.363 . S
C2502 C2508 1.428 . S
H2503 C2499 0.930 . S
H2504 C2501 0.929 . S
S2505 N2506 1.613 . S
S2505 N2507 1.610 . S
N2506 S2505 1.613 . S
N2506 C2509 1.350 . S
N2507 S2505 1.610 . S
N2507 C2508 1.351 . S
C2508 C2502 1.428 . S
C2508 N2507 1.351 . S
C2508 C2509 1.434 . S
C2509 C2500 1.429 . S
C2509 N2506 1.350 . S
C2509 C2508 1.434 . S
C2510 C2511 1.369 . S
C2510 C2512 1.419 . S
C2510 H2514 0.930 . S
C2511 C2510 1.369 . S
C2511 C2520 1.429 . S
C2512 C2510 1.419 . S
C2512 C2513 1.363 . S
C2512 H2515 0.929 . S
C2513 C2512 1.363 . S
C2513 C2519 1.428 . S
H2514 C2510 0.930 . S
H2515 C2512 0.929 . S
S2516 N2517 1.613 . S
S2516 N2518 1.610 . S
N2517 S2516 1.613 . S
N2517 C2520 1.350 . S
N2518 S2516 1.610 . S
N2518 C2519 1.351 . S
C2519 C2513 1.428 . S
C2519 N2518 1.351 . S
C2519 C2520 1.434 . S
C2520 C2511 1.429 . S
C2520 N2517 1.350 . S
C2520 C2519 1.434 . S
C2521 C2522 1.369 . S
C2521 C2523 1.419 . S
C2521 H2525 0.930 . S
C2522 C2521 1.369 . S
C2522 C2531 1.429 . S
C2523 C2521 1.419 . S
C2523 C2524 1.363 . S
C2523 H2526 0.929 . S
C2524 C2523 1.363 . S
C2524 C2530 1.428 . S
H2525 C2521 0.930 . S
H2526 C2523 0.929 . S
S2527 N2528 1.613 . S
S2527 N2529 1.610 . S
N2528 S2527 1.613 . S
N2528 C2531 1.350 . S
N2529 S2527 1.610 . S
N2529 C2530 1.351 . S
C2530 C2524 1.428 . S
C2530 N2529 1.351 . S
C2530 C2531 1.434 . S
C2531 C2522 1.429 . S
C2531 N2528 1.350 . S
C2531 C2530 1.434 . S
C2532 C2533 1.369 . S
C2532 C2534 1.419 . S
C2532 H2536 0.930 . S
C2533 C2532 1.369 . S
C2533 C2542 1.429 . S
C2534 C2532 1.419 . S
C2534 C2535 1.363 . S
C2534 H2537 0.929 . S
C2535 C2534 1.363 . S
C2535 C2541 1.428 . S
H2536 C2532 0.930 . S
H2537 C2534 0.929 . S
S2538 N2539 1.613 . S
S2538 N2540 1.610 . S
N2539 S2538 1.613 . S
N2539 C2542 1.350 . S
N2540 S2538 1.610 . S
N2540 C2541 1.351 . S
C2541 C2535 1.428 . S
C2541 N2540 1.351 . S
C2541 C2542 1.434 . S
C2542 C2533 1.429 . S
C2542 N2539 1.350 . S
C2542 C2541 1.434 . S
C2543 C2544 1.369 . S
C2543 C2545 1.419 . S
C2543 H2547 0.930 . S
C2544 C2543 1.369 . S
C2544 C2553 1.429 . S
C2545 C2543 1.419 . S
C2545 C2546 1.363 . S
C2545 H2548 0.929 . S
C2546 C2545 1.363 . S
C2546 C2552 1.428 . S
H2547 C2543 0.930 . S
H2548 C2545 0.929 . S
S2549 N2550 1.613 . S
S2549 N2551 1.610 . S
N2550 S2549 1.613 . S
N2550 C2553 1.350 . S
N2551 S2549 1.610 . S
N2551 C2552 1.351 . S
C2552 C2546 1.428 . S
C2552 N2551 1.351 . S
C2552 C2553 1.434 . S
C2553 C2544 1.429 . S
C2553 N2550 1.350 . S
C2553 C2552 1.434 . S
C2554 C2555 1.369 . S
C2554 C2556 1.419 . S
C2554 H2558 0.930 . S
C2555 C2554 1.369 . S
C2555 C2564 1.429 . S
C2556 C2554 1.419 . S
C2556 C2557 1.363 . S
C2556 H2559 0.929 . S
C2557 C2556 1.363 . S
C2557 C2563 1.428 . S
H2558 C2554 0.930 . S
H2559 C2556 0.929 . S
S2560 N2561 1.613 . S
S2560 N2562 1.610 . S
N2561 S2560 1.613 . S
N2561 C2564 1.350 . S
N2562 S2560 1.610 . S
N2562 C2563 1.351 . S
C2563 C2557 1.428 . S
C2563 N2562 1.351 . S
C2563 C2564 1.434 . S
C2564 C2555 1.429 . S
C2564 N2561 1.350 . S
C2564 C2563 1.434 . S
C2565 C2566 1.369 . S
C2565 C2567 1.419 . S
C2565 H2569 0.930 . S
C2566 C2565 1.369 . S
C2566 C2575 1.429 . S
C2567 C2565 1.419 . S
C2567 C2568 1.363 . S
C2567 H2570 0.929 . S
C2568 C2567 1.363 . S
C2568 C2574 1.428 . S
H2569 C2565 0.930 . S
H2570 C2567 0.929 . S
S2571 N2572 1.613 . S
S2571 N2573 1.610 . S
N2572 S2571 1.613 . S
N2572 C2575 1.350 . S
N2573 S2571 1.610 . S
N2573 C2574 1.351 . S
C2574 C2568 1.428 . S
C2574 N2573 1.351 . S
C2574 C2575 1.434 . S
C2575 C2566 1.429 . S
C2575 N2572 1.350 . S
C2575 C2574 1.434 . S
C2576 C2577 1.369 . S
C2576 C2578 1.419 . S
C2576 H2580 0.930 . S
C2577 C2576 1.369 . S
C2577 C2586 1.429 . S
C2578 C2576 1.419 . S
C2578 C2579 1.363 . S
C2578 H2581 0.929 . S
C2579 C2578 1.363 . S
C2579 C2585 1.428 . S
H2580 C2576 0.930 . S
H2581 C2578 0.929 . S
S2582 N2583 1.627 . S
S2582 N2584 1.625 . S
N2583 S2582 1.627 . S
N2583 C2586 1.350 . S
N2584 S2582 1.625 . S
N2584 C2585 1.351 . S
C2585 C2579 1.428 . S
C2585 N2584 1.351 . S
C2585 C2586 1.434 . S
C2586 C2577 1.429 . S
C2586 N2583 1.350 . S
C2586 C2585 1.434 . S
C2587 C2588 1.369 . S
C2587 C2589 1.419 . S
C2587 H2591 0.930 . S
C2588 C2587 1.369 . S
C2588 C2597 1.429 . S
C2589 C2587 1.419 . S
C2589 C2590 1.363 . S
C2589 H2592 0.929 . S
C2590 C2589 1.363 . S
C2590 C2596 1.428 . S
H2591 C2587 0.930 . S
H2592 C2589 0.929 . S
S2593 N2594 1.613 . S
S2593 N2595 1.610 . S
N2594 S2593 1.613 . S
N2594 C2597 1.350 . S
N2595 S2593 1.610 . S
N2595 C2596 1.351 . S
C2596 C2590 1.428 . S
C2596 N2595 1.351 . S
C2596 C2597 1.434 . S
C2597 C2588 1.429 . S
C2597 N2594 1.350 . S
C2597 C2596 1.434 . S
C2598 C2599 1.369 . S
C2598 C2600 1.419 . S
C2598 H2602 0.930 . S
C2599 C2598 1.369 . S
C2599 C2608 1.429 . S
C2600 C2598 1.419 . S
C2600 C2601 1.363 . S
C2600 H2603 0.929 . S
C2601 C2600 1.363 . S
C2601 C2607 1.428 . S
H2602 C2598 0.930 . S
H2603 C2600 0.929 . S
S2604 N2605 1.613 . S
S2604 N2606 1.610 . S
N2605 S2604 1.613 . S
N2605 C2608 1.350 . S
N2606 S2604 1.610 . S
N2606 C2607 1.351 . S
C2607 C2601 1.428 . S
C2607 N2606 1.351 . S
C2607 C2608 1.434 . S
C2608 C2599 1.429 . S
C2608 N2605 1.350 . S
C2608 C2607 1.434 . S
C2609 C2610 1.369 . S
C2609 C2611 1.419 . S
C2609 H2613 0.930 . S
C2610 C2609 1.369 . S
C2610 C2619 1.429 . S
C2611 C2609 1.419 . S
C2611 C2612 1.363 . S
C2611 H2614 0.929 . S
C2612 C2611 1.363 . S
C2612 C2618 1.428 . S
H2613 C2609 0.930 . S
H2614 C2611 0.929 . S
S2615 N2616 1.613 . S
S2615 N2617 1.610 . S
N2616 S2615 1.613 . S
N2616 C2619 1.350 . S
N2617 S2615 1.610 . S
N2617 C2618 1.351 . S
C2618 C2612 1.428 . S
C2618 N2617 1.351 . S
C2618 C2619 1.434 . S
C2619 C2610 1.429 . S
C2619 N2616 1.350 . S
C2619 C2618 1.434 . S
C2620 C2621 1.369 . S
C2620 C2622 1.419 . S
C2620 H2624 0.930 . S
C2621 C2620 1.369 . S
C2621 C2630 1.429 . S
C2622 C2620 1.419 . S
C2622 C2623 1.363 . S
C2622 H2625 0.929 . S
C2623 C2622 1.363 . S
C2623 C2629 1.428 . S
H2624 C2620 0.930 . S
H2625 C2622 0.929 . S
S2626 N2627 1.613 . S
S2626 N2628 1.610 . S
N2627 S2626 1.613 . S
N2627 C2630 1.350 . S
N2628 S2626 1.610 . S
N2628 C2629 1.351 . S
C2629 C2623 1.428 . S
C2629 N2628 1.351 . S
C2629 C2630 1.434 . S
C2630 C2621 1.429 . S
C2630 N2627 1.350 . S
C2630 C2629 1.434 . S
C2631 C2632 1.369 . S
C2631 C2633 1.419 . S
C2631 H2635 0.930 . S
C2632 C2631 1.369 . S
C2632 C2641 1.429 . S
C2633 C2631 1.419 . S
C2633 C2634 1.363 . S
C2633 H2636 0.929 . S
C2634 C2633 1.363 . S
C2634 C2640 1.428 . S
H2635 C2631 0.930 . S
H2636 C2633 0.929 . S
S2637 N2638 1.613 . S
S2637 N2639 1.610 . S
N2638 S2637 1.613 . S
N2638 C2641 1.350 . S
N2639 S2637 1.610 . S
N2639 C2640 1.351 . S
C2640 C2634 1.428 . S
C2640 N2639 1.351 . S
C2640 C2641 1.434 . S
C2641 C2632 1.429 . S
C2641 N2638 1.350 . S
C2641 C2640 1.434 . S
C2642 C2643 1.369 . S
C2642 C2644 1.419 . S
C2642 H2646 0.930 . S
C2643 C2642 1.369 . S
C2643 C2652 1.429 . S
C2644 C2642 1.419 . S
C2644 C2645 1.363 . S
C2644 H2647 0.929 . S
C2645 C2644 1.363 . S
C2645 C2651 1.428 . S
H2646 C2642 0.930 . S
H2647 C2644 0.929 . S
S2648 N2649 1.613 . S
S2648 N2650 1.610 . S
N2649 S2648 1.613 . S
N2649 C2652 1.350 . S
N2650 S2648 1.610 . S
N2650 C2651 1.351 . S
C2651 C2645 1.428 . S
C2651 N2650 1.351 . S
C2651 C2652 1.434 . S
C2652 C2643 1.429 . S
C2652 N2649 1.350 . S
C2652 C2651 1.434 . S
C2653 C2654 1.369 . S
C2653 C2655 1.419 . S
C2653 H2657 0.930 . S
C2654 C2653 1.369 . S
C2654 C2663 1.429 . S
C2655 C2653 1.419 . S
C2655 C2656 1.363 . S
C2655 H2658 0.929 . S
C2656 C2655 1.363 . S
C2656 C2662 1.428 . S
H2657 C2653 0.930 . S
H2658 C2655 0.929 . S
S2659 N2660 1.613 . S
S2659 N2661 1.610 . S
N2660 S2659 1.613 . S
N2660 C2663 1.350 . S
N2661 S2659 1.610 . S
N2661 C2662 1.351 . S
C2662 C2656 1.428 . S
C2662 N2661 1.351 . S
C2662 C2663 1.434 . S
C2663 C2654 1.429 . S
C2663 N2660 1.350 . S
C2663 C2662 1.434 . S
C2664 C2665 1.369 . S
C2664 C2666 1.419 . S
C2664 H2668 0.930 . S
C2665 C2664 1.369 . S
C2665 C2674 1.429 . S
C2666 C2664 1.419 . S
C2666 C2667 1.363 . S
C2666 H2669 0.929 . S
C2667 C2666 1.363 . S
C2667 C2673 1.428 . S
H2668 C2664 0.930 . S
H2669 C2666 0.929 . S
S2670 N2671 1.613 . S
S2670 N2672 1.610 . S
N2671 S2670 1.613 . S
N2671 C2674 1.350 . S
N2672 S2670 1.610 . S
N2672 C2673 1.351 . S
C2673 C2667 1.428 . S
C2673 N2672 1.351 . S
C2673 C2674 1.434 . S
C2674 C2665 1.429 . S
C2674 N2671 1.350 . S
C2674 C2673 1.434 . S
C2675 C2676 1.369 . S
C2675 C2677 1.419 . S
C2675 H2679 0.930 . S
C2676 C2675 1.369 . S
C2676 C2685 1.429 . S
C2677 C2675 1.419 . S
C2677 C2678 1.363 . S
C2677 H2680 0.929 . S
C2678 C2677 1.363 . S
C2678 C2684 1.428 . S
H2679 C2675 0.930 . S
H2680 C2677 0.929 . S
S2681 N2682 1.613 . S
S2681 N2683 1.610 . S
N2682 S2681 1.613 . S
N2682 C2685 1.350 . S
N2683 S2681 1.610 . S
N2683 C2684 1.351 . S
C2684 C2678 1.428 . S
C2684 N2683 1.351 . S
C2684 C2685 1.434 . S
C2685 C2676 1.429 . S
C2685 N2682 1.350 . S
C2685 C2684 1.434 . S
C2686 C2687 1.369 . S
C2686 C2688 1.419 . S
C2686 H2690 0.930 . S
C2687 C2686 1.369 . S
C2687 C2696 1.429 . S
C2688 C2686 1.419 . S
C2688 C2689 1.363 . S
C2688 H2691 0.929 . S
C2689 C2688 1.363 . S
C2689 C2695 1.428 . S
H2690 C2686 0.930 . S
H2691 C2688 0.929 . S
S2692 N2693 1.613 . S
S2692 N2694 1.610 . S
N2693 S2692 1.613 . S
N2693 C2696 1.350 . S
N2694 S2692 1.610 . S
N2694 C2695 1.351 . S
C2695 C2689 1.428 . S
C2695 N2694 1.351 . S
C2695 C2696 1.434 . S
C2696 C2687 1.429 . S
C2696 N2693 1.350 . S
C2696 C2695 1.434 . S
C2697 C2698 1.369 . S
C2697 C2699 1.419 . S
C2697 H2701 0.930 . S
C2698 C2697 1.369 . S
C2698 C2707 1.429 . S
C2699 C2697 1.419 . S
C2699 C2700 1.363 . S
C2699 H2702 0.929 . S
C2700 C2699 1.363 . S
C2700 C2706 1.428 . S
H2701 C2697 0.930 . S
H2702 C2699 0.929 . S
S2703 N2704 1.613 . S
S2703 N2705 1.610 . S
N2704 S2703 1.613 . S
N2704 C2707 1.350 . S
N2705 S2703 1.610 . S
N2705 C2706 1.351 . S
C2706 C2700 1.428 . S
C2706 N2705 1.351 . S
C2706 C2707 1.434 . S
C2707 C2698 1.429 . S
C2707 N2704 1.350 . S
C2707 C2706 1.434 . S
C2708 C2709 1.369 . S
C2708 C2710 1.419 . S
C2708 H2712 0.930 . S
C2709 C2708 1.369 . S
C2709 C2718 1.429 . S
C2710 C2708 1.419 . S
C2710 C2711 1.363 . S
C2710 H2713 0.929 . S
C2711 C2710 1.363 . S
C2711 C2717 1.428 . S
H2712 C2708 0.930 . S
H2713 C2710 0.929 . S
S2714 N2715 1.613 . S
S2714 N2716 1.610 . S
N2715 S2714 1.613 . S
N2715 C2718 1.350 . S
N2716 S2714 1.610 . S
N2716 C2717 1.351 . S
C2717 C2711 1.428 . S
C2717 N2716 1.351 . S
C2717 C2718 1.434 . S
C2718 C2709 1.429 . S
C2718 N2715 1.350 . S
C2718 C2717 1.434 . S
C2719 C2720 1.369 . S
C2719 C2721 1.419 . S
C2719 H2723 0.930 . S
C2720 C2719 1.369 . S
C2720 C2729 1.429 . S
C2721 C2719 1.419 . S
C2721 C2722 1.363 . S
C2721 H2724 0.929 . S
C2722 C2721 1.363 . S
C2722 C2728 1.428 . S
H2723 C2719 0.930 . S
H2724 C2721 0.929 . S
S2725 N2726 1.613 . S
S2725 N2727 1.610 . S
N2726 S2725 1.613 . S
N2726 C2729 1.350 . S
N2727 S2725 1.610 . S
N2727 C2728 1.351 . S
C2728 C2722 1.428 . S
C2728 N2727 1.351 . S
C2728 C2729 1.434 . S
C2729 C2720 1.429 . S
C2729 N2726 1.350 . S
C2729 C2728 1.434 . S
C2730 C2731 1.369 . S
C2730 C2732 1.419 . S
C2730 H2734 0.930 . S
C2731 C2730 1.369 . S
C2731 C2740 1.429 . S
C2732 C2730 1.419 . S
C2732 C2733 1.363 . S
C2732 H2735 0.929 . S
C2733 C2732 1.363 . S
C2733 C2739 1.428 . S
H2734 C2730 0.930 . S
H2735 C2732 0.929 . S
S2736 N2737 1.613 . S
S2736 N2738 1.610 . S
N2737 S2736 1.613 . S
N2737 C2740 1.350 . S
N2738 S2736 1.610 . S
N2738 C2739 1.351 . S
C2739 C2733 1.428 . S
C2739 N2738 1.351 . S
C2739 C2740 1.434 . S
C2740 C2731 1.429 . S
C2740 N2737 1.350 . S
C2740 C2739 1.434 . S
C2741 C2742 1.369 . S
C2741 C2743 1.419 . S
C2741 H2745 0.930 . S
C2742 C2741 1.369 . S
C2742 C2751 1.429 . S
C2743 C2741 1.419 . S
C2743 C2744 1.363 . S
C2743 H2746 0.929 . S
C2744 C2743 1.363 . S
C2744 C2750 1.428 . S
H2745 C2741 0.930 . S
H2746 C2743 0.929 . S
S2747 N2748 1.613 . S
S2747 N2749 1.610 . S
N2748 S2747 1.613 . S
N2748 C2751 1.350 . S
N2749 S2747 1.610 . S
N2749 C2750 1.351 . S
C2750 C2744 1.428 . S
C2750 N2749 1.351 . S
C2750 C2751 1.434 . S
C2751 C2742 1.429 . S
C2751 N2748 1.350 . S
C2751 C2750 1.434 . S
C2752 C2753 1.369 . S
C2752 C2754 1.419 . S
C2752 H2756 0.930 . S
C2753 C2752 1.369 . S
C2753 C2762 1.429 . S
C2754 C2752 1.419 . S
C2754 C2755 1.363 . S
C2754 H2757 0.929 . S
C2755 C2754 1.363 . S
C2755 C2761 1.428 . S
H2756 C2752 0.930 . S
H2757 C2754 0.929 . S
S2758 N2759 1.613 . S
S2758 N2760 1.619 . S
N2759 S2758 1.613 . S
N2759 C2762 1.350 1_545 S
N2760 S2758 1.619 . S
N2760 C2761 1.339 1_545 S
C2761 C2755 1.428 . S
C2761 N2760 1.339 1_565 S
C2761 C2762 1.434 . S
C2762 C2753 1.429 . S
C2762 N2759 1.350 1_565 S
C2762 C2761 1.434 . S
C2763 C2764 1.369 . S
C2763 C2765 1.419 . S
C2763 H2767 0.930 . S
C2764 C2763 1.369 . S
C2764 C2773 1.429 . S
C2765 C2763 1.419 . S
C2765 C2766 1.363 . S
C2765 H2768 0.929 . S
C2766 C2765 1.363 . S
C2766 C2772 1.428 . S
H2767 C2763 0.930 . S
H2768 C2765 0.929 . S
S2769 N2770 1.613 . S
S2769 N2771 1.610 . S
N2770 S2769 1.613 . S
N2770 C2773 1.350 . S
N2771 S2769 1.610 . S
N2771 C2772 1.351 . S
C2772 C2766 1.428 . S
C2772 N2771 1.351 . S
C2772 C2773 1.434 . S
C2773 C2764 1.429 . S
C2773 N2770 1.350 . S
C2773 C2772 1.434 . S
C2774 C2775 1.369 . S
C2774 C2776 1.419 . S
C2774 H2778 0.930 . S
C2775 C2774 1.369 . S
C2775 C2784 1.429 . S
C2776 C2774 1.419 . S
C2776 C2777 1.363 . S
C2776 H2779 0.929 . S
C2777 C2776 1.363 . S
C2777 C2783 1.428 . S
H2778 C2774 0.930 . S
H2779 C2776 0.929 . S
S2780 N2781 1.613 . S
S2780 N2782 1.610 . S
N2781 S2780 1.613 . S
N2781 C2784 1.350 . S
N2782 S2780 1.610 . S
N2782 C2783 1.351 . S
C2783 C2777 1.428 . S
C2783 N2782 1.351 . S
C2783 C2784 1.434 . S
C2784 C2775 1.429 . S
C2784 N2781 1.350 . S
C2784 C2783 1.434 . S
C2785 C2786 1.369 . S
C2785 C2787 1.419 . S
C2785 H2789 0.930 . S
C2786 C2785 1.369 . S
C2786 C2795 1.429 . S
C2787 C2785 1.419 . S
C2787 C2788 1.363 . S
C2787 H2790 0.929 . S
C2788 C2787 1.363 . S
C2788 C2794 1.428 . S
H2789 C2785 0.930 . S
H2790 C2787 0.929 . S
S2791 N2792 1.613 . S
S2791 N2793 1.610 . S
N2792 S2791 1.613 . S
N2792 C2795 1.350 . S
N2793 S2791 1.610 . S
N2793 C2794 1.351 . S
C2794 C2788 1.428 . S
C2794 N2793 1.351 . S
C2794 C2795 1.434 . S
C2795 C2786 1.429 . S
C2795 N2792 1.350 . S
C2795 C2794 1.434 . S
C2796 C2797 1.369 . S
C2796 C2798 1.419 . S
C2796 H2800 0.930 . S
C2797 C2796 1.369 . S
C2797 C2806 1.429 . S
C2798 C2796 1.419 . S
C2798 C2799 1.363 . S
C2798 H2801 0.929 . S
C2799 C2798 1.363 . S
C2799 C2805 1.428 . S
H2800 C2796 0.930 . S
H2801 C2798 0.929 . S
S2802 N2803 1.613 . S
S2802 N2804 1.610 . S
N2803 S2802 1.613 . S
N2803 C2806 1.350 1_565 S
N2804 S2802 1.610 . S
N2804 C2805 1.351 1_565 S
C2805 C2799 1.428 . S
C2805 N2804 1.351 1_545 S
C2805 C2806 1.434 . S
C2806 C2797 1.429 . S
C2806 N2803 1.350 1_545 S
C2806 C2805 1.434 . S
C2807 C2808 1.369 . S
C2807 C2809 1.419 . S
C2807 H2811 0.930 . S
C2808 C2807 1.369 . S
C2808 C2817 1.429 . S
C2809 C2807 1.419 . S
C2809 C2810 1.363 . S
C2809 H2812 0.929 . S
C2810 C2809 1.363 . S
C2810 C2816 1.428 . S
H2811 C2807 0.930 . S
H2812 C2809 0.929 . S
S2813 N2814 1.613 . S
S2813 N2815 1.610 . S
N2814 S2813 1.613 . S
N2814 C2817 1.350 . S
N2815 S2813 1.610 . S
N2815 C2816 1.351 . S
C2816 C2810 1.428 . S
C2816 N2815 1.351 . S
C2816 C2817 1.434 . S
C2817 C2808 1.429 . S
C2817 N2814 1.350 . S
C2817 C2816 1.434 . S
C2818 C2819 1.369 . S
C2818 C2820 1.419 . S
C2818 H2822 0.930 . S
C2819 C2818 1.369 . S
C2819 C2828 1.429 . S
C2820 C2818 1.419 . S
C2820 C2821 1.363 . S
C2820 H2823 0.929 . S
C2821 C2820 1.363 . S
C2821 C2827 1.428 . S
H2822 C2818 0.930 . S
H2823 C2820 0.929 . S
S2824 N2825 1.613 . S
S2824 N2826 1.610 . S
N2825 S2824 1.613 . S
N2825 C2828 1.350 . S
N2826 S2824 1.610 . S
N2826 C2827 1.351 . S
C2827 C2821 1.428 . S
C2827 N2826 1.351 . S
C2827 C2828 1.434 . S
C2828 C2819 1.429 . S
C2828 N2825 1.350 . S
C2828 C2827 1.434 . S
C2829 C2830 1.369 . S
C2829 C2831 1.419 . S
C2829 H2833 0.930 . S
C2830 C2829 1.369 . S
C2830 C2839 1.429 . S
C2831 C2829 1.419 . S
C2831 C2832 1.363 . S
C2831 H2834 0.929 . S
C2832 C2831 1.363 . S
C2832 C2838 1.428 . S
H2833 C2829 0.930 . S
H2834 C2831 0.929 . S
S2835 N2836 1.613 . S
S2835 N2837 1.610 . S
N2836 S2835 1.613 . S
N2836 C2839 1.350 . S
N2837 S2835 1.610 . S
N2837 C2838 1.351 . S
C2838 C2832 1.428 . S
C2838 N2837 1.351 . S
C2838 C2839 1.434 . S
C2839 C2830 1.429 . S
C2839 N2836 1.350 . S
C2839 C2838 1.434 . S
C2840 C2841 1.369 . S
C2840 C2842 1.419 . S
C2840 H2844 0.930 . S
C2841 C2840 1.369 . S
C2841 C2850 1.429 . S
C2842 C2840 1.419 . S
C2842 C2843 1.363 . S
C2842 H2845 0.929 . S
C2843 C2842 1.363 . S
C2843 C2849 1.428 . S
H2844 C2840 0.930 . S
H2845 C2842 0.929 . S
S2846 N2847 1.613 . S
S2846 N2848 1.610 . S
N2847 S2846 1.613 . S
N2847 C2850 1.350 . S
N2848 S2846 1.610 . S
N2848 C2849 1.351 . S
C2849 C2843 1.428 . S
C2849 N2848 1.351 . S
C2849 C2850 1.434 . S
C2850 C2841 1.429 . S
C2850 N2847 1.350 . S
C2850 C2849 1.434 . S
C2851 C2852 1.369 . S
C2851 C2853 1.419 . S
C2851 H2855 0.930 . S
C2852 C2851 1.369 . S
C2852 C2861 1.429 . S
C2853 C2851 1.419 . S
C2853 C2854 1.363 . S
C2853 H2856 0.929 . S
C2854 C2853 1.363 . S
C2854 C2860 1.428 . S
H2855 C2851 0.930 . S
H2856 C2853 0.929 . S
S2857 N2858 1.613 . S
S2857 N2859 1.613 . S
N2858 S2857 1.613 . S
N2858 C2861 1.350 1_556 S
N2859 S2857 1.613 . S
N2859 C2860 1.347 1_556 S
C2860 C2854 1.428 . S
C2860 N2859 1.347 1_554 S
C2860 C2861 1.434 . S
C2861 C2852 1.429 . S
C2861 N2858 1.350 1_554 S
C2861 C2860 1.434 . S
C2862 C2863 1.369 . S
C2862 C2864 1.419 . S
C2862 H2866 0.930 . S
C2863 C2862 1.369 . S
C2863 C2872 1.429 . S
C2864 C2862 1.419 . S
C2864 C2865 1.363 . S
C2864 H2867 0.929 . S
C2865 C2864 1.363 . S
C2865 C2871 1.428 . S
H2866 C2862 0.930 . S
H2867 C2864 0.929 . S
S2868 N2869 1.613 . S
S2868 N2870 1.610 . S
N2869 S2868 1.613 . S
N2869 C2872 1.350 . S
N2870 S2868 1.610 . S
N2870 C2871 1.351 . S
C2871 C2865 1.428 . S
C2871 N2870 1.351 . S
C2871 C2872 1.434 . S
C2872 C2863 1.429 . S
C2872 N2869 1.350 . S
C2872 C2871 1.434 . S
C2873 C2874 1.369 . S
C2873 C2875 1.419 . S
C2873 H2877 0.930 . S
C2874 C2873 1.369 . S
C2874 C2883 1.429 . S
C2875 C2873 1.419 . S
C2875 C2876 1.363 . S
C2875 H2878 0.929 . S
C2876 C2875 1.363 . S
C2876 C2882 1.428 . S
H2877 C2873 0.930 . S
H2878 C2875 0.929 . S
S2879 N2880 1.613 . S
S2879 N2881 1.610 . S
N2880 S2879 1.613 . S
N2880 C2883 1.350 . S
N2881 S2879 1.610 . S
N2881 C2882 1.351 . S
C2882 C2876 1.428 . S
C2882 N2881 1.351 . S
C2882 C2883 1.434 . S
C2883 C2874 1.429 . S
C2883 N2880 1.350 . S
C2883 C2882 1.434 . S
C2884 C2885 1.369 . S
C2884 C2886 1.419 . S
C2884 H2888 0.930 . S
C2885 C2884 1.369 . S
C2885 C2894 1.429 . S
C2886 C2884 1.419 . S
C2886 C2887 1.363 . S
C2886 H2889 0.929 . S
C2887 C2886 1.363 . S
C2887 C2893 1.428 . S
H2888 C2884 0.930 . S
H2889 C2886 0.929 . S
S2890 N2891 1.613 . S
S2890 N2892 1.610 . S
N2891 S2890 1.613 . S
N2891 C2894 1.350 . S
N2892 S2890 1.610 . S
N2892 C2893 1.351 . S
C2893 C2887 1.428 . S
C2893 N2892 1.351 . S
C2893 C2894 1.434 . S
C2894 C2885 1.429 . S
C2894 N2891 1.350 . S
C2894 C2893 1.434 . S
C2895 C2896 1.369 . S
C2895 C2897 1.419 . S
C2895 H2899 0.930 . S
C2896 C2895 1.369 . S
C2896 C2905 1.429 . S
C2897 C2895 1.419 . S
C2897 C2898 1.363 . S
C2897 H2900 0.929 . S
C2898 C2897 1.363 . S
C2898 C2904 1.428 . S
H2899 C2895 0.930 . S
H2900 C2897 0.929 . S
S2901 N2902 1.613 . S
S2901 N2903 1.610 . S
N2902 S2901 1.613 . S
N2902 C2905 1.350 . S
N2903 S2901 1.610 . S
N2903 C2904 1.351 . S
C2904 C2898 1.428 . S
C2904 N2903 1.351 . S
C2904 C2905 1.434 . S
C2905 C2896 1.429 . S
C2905 N2902 1.350 . S
C2905 C2904 1.434 . S
C2906 C2907 1.369 . S
C2906 C2908 1.419 . S
C2906 H2910 0.930 . S
C2907 C2906 1.369 . S
C2907 C2916 1.429 . S
C2908 C2906 1.419 . S
C2908 C2909 1.363 . S
C2908 H2911 0.929 . S
C2909 C2908 1.363 . S
C2909 C2915 1.428 . S
H2910 C2906 0.930 . S
H2911 C2908 0.929 . S
S2912 N2913 1.613 . S
S2912 N2914 1.610 . S
N2913 S2912 1.613 . S
N2913 C2916 1.350 . S
N2914 S2912 1.610 . S
N2914 C2915 1.351 . S
C2915 C2909 1.428 . S
C2915 N2914 1.351 . S
C2915 C2916 1.434 . S
C2916 C2907 1.429 . S
C2916 N2913 1.350 . S
C2916 C2915 1.434 . S
C2917 C2918 1.369 . S
C2917 C2919 1.419 . S
C2917 H2921 0.930 . S
C2918 C2917 1.369 . S
C2918 C2927 1.429 . S
C2919 C2917 1.419 . S
C2919 C2920 1.363 . S
C2919 H2922 0.929 . S
C2920 C2919 1.363 . S
C2920 C2926 1.428 . S
H2921 C2917 0.930 . S
H2922 C2919 0.929 . S
S2923 N2924 1.613 . S
S2923 N2925 1.610 . S
N2924 S2923 1.613 . S
N2924 C2927 1.350 . S
N2925 S2923 1.610 . S
N2925 C2926 1.351 . S
C2926 C2920 1.428 . S
C2926 N2925 1.351 . S
C2926 C2927 1.434 . S
C2927 C2918 1.429 . S
C2927 N2924 1.350 . S
C2927 C2926 1.434 . S
C2928 C2929 1.369 . S
C2928 C2930 1.419 . S
C2928 H2932 0.930 . S
C2929 C2928 1.369 . S
C2929 C2938 1.429 . S
C2930 C2928 1.419 . S
C2930 C2931 1.363 . S
C2930 H2933 0.929 . S
C2931 C2930 1.363 . S
C2931 C2937 1.428 . S
H2932 C2928 0.930 . S
H2933 C2930 0.929 . S
S2934 N2935 1.613 . S
S2934 N2936 1.610 . S
N2935 S2934 1.613 . S
N2935 C2938 1.350 . S
N2936 S2934 1.610 . S
N2936 C2937 1.351 . S
C2937 C2931 1.428 . S
C2937 N2936 1.351 . S
C2937 C2938 1.434 . S
C2938 C2929 1.429 . S
C2938 N2935 1.350 . S
C2938 C2937 1.434 . S
C2939 C2940 1.369 . S
C2939 C2941 1.419 . S
C2939 H2943 0.930 . S
C2940 C2939 1.369 . S
C2940 C2949 1.429 . S
C2941 C2939 1.419 . S
C2941 C2942 1.363 . S
C2941 H2944 0.929 . S
C2942 C2941 1.363 . S
C2942 C2948 1.428 . S
H2943 C2939 0.930 . S
H2944 C2941 0.929 . S
S2945 N2946 1.613 . S
S2945 N2947 1.610 . S
N2946 S2945 1.613 . S
N2946 C2949 1.350 . S
N2947 S2945 1.610 . S
N2947 C2948 1.351 . S
C2948 C2942 1.428 . S
C2948 N2947 1.351 . S
C2948 C2949 1.434 . S
C2949 C2940 1.429 . S
C2949 N2946 1.350 . S
C2949 C2948 1.434 . S
C2950 C2951 1.369 . S
C2950 C2952 1.419 . S
C2950 H2954 0.930 . S
C2951 C2950 1.369 . S
C2951 C2960 1.429 . S
C2952 C2950 1.419 . S
C2952 C2953 1.363 . S
C2952 H2955 0.929 . S
C2953 C2952 1.363 . S
C2953 C2959 1.428 . S
H2954 C2950 0.930 . S
H2955 C2952 0.929 . S
S2956 N2957 1.613 . S
S2956 N2958 1.610 . S
N2957 S2956 1.613 . S
N2957 C2960 1.350 . S
N2958 S2956 1.610 . S
N2958 C2959 1.351 . S
C2959 C2953 1.428 . S
C2959 N2958 1.351 . S
C2959 C2960 1.434 . S
C2960 C2951 1.429 . S
C2960 N2957 1.350 . S
C2960 C2959 1.434 . S
C2961 C2962 1.369 . S
C2961 C2963 1.419 . S
C2961 H2965 0.930 . S
C2962 C2961 1.369 . S
C2962 C2971 1.429 . S
C2963 C2961 1.419 . S
C2963 C2964 1.363 . S
C2963 H2966 0.929 . S
C2964 C2963 1.363 . S
C2964 C2970 1.428 . S
H2965 C2961 0.930 . S
H2966 C2963 0.929 . S
S2967 N2968 1.613 . S
S2967 N2969 1.610 . S
N2968 S2967 1.613 . S
N2968 C2971 1.350 . S
N2969 S2967 1.610 . S
N2969 C2970 1.351 . S
C2970 C2964 1.428 . S
C2970 N2969 1.351 . S
C2970 C2971 1.434 . S
C2971 C2962 1.429 . S
C2971 N2968 1.350 . S
C2971 C2970 1.434 . S
C2972 C2973 1.369 . S
C2972 C2974 1.419 . S
C2972 H2976 0.930 . S
C2973 C2972 1.369 . S
C2973 C2982 1.429 . S
C2974 C2972 1.419 . S
C2974 C2975 1.363 . S
C2974 H2977 0.929 . S
C2975 C2974 1.363 . S
C2975 C2981 1.428 . S
H2976 C2972 0.930 . S
H2977 C2974 0.929 . S
S2978 N2979 1.613 . S
S2978 N2980 1.610 . S
N2979 S2978 1.613 . S
N2979 C2982 1.350 . S
N2980 S2978 1.610 . S
N2980 C2981 1.351 . S
C2981 C2975 1.428 . S
C2981 N2980 1.351 . S
C2981 C2982 1.434 . S
C2982 C2973 1.429 . S
C2982 N2979 1.350 . S
C2982 C2981 1.434 . S
C2983 C2984 1.369 . S
C2983 C2985 1.419 . S
C2983 H2987 0.930 . S
C2984 C2983 1.369 . S
C2984 C2993 1.429 . S
C2985 C2983 1.419 . S
C2985 C2986 1.363 . S
C2985 H2988 0.929 . S
C2986 C2985 1.363 . S
C2986 C2992 1.428 . S
H2987 C2983 0.930 . S
H2988 C2985 0.929 . S
S2989 N2990 1.613 . S
S2989 N2991 1.610 . S
N2990 S2989 1.613 . S
N2990 C2993 1.350 . S
N2991 S2989 1.610 . S
N2991 C2992 1.351 . S
C2992 C2986 1.428 . S
C2992 N2991 1.351 . S
C2992 C2993 1.434 . S
C2993 C2984 1.429 . S
C2993 N2990 1.350 . S
C2993 C2992 1.434 . S
C2994 C2995 1.369 . S
C2994 C2996 1.419 . S
C2994 H2998 0.930 . S
C2995 C2994 1.369 . S
C2995 C3004 1.429 . S
C2996 C2994 1.419 . S
C2996 C2997 1.363 . S
C2996 H2999 0.929 . S
C2997 C2996 1.363 . S
C2997 C3003 1.428 . S
H2998 C2994 0.930 . S
H2999 C2996 0.929 . S
S3000 N3001 1.613 . S
S3000 N3002 1.610 . S
N3001 S3000 1.613 . S
N3001 C3004 1.350 . S
N3002 S3000 1.610 . S
N3002 C3003 1.351 . S
C3003 C2997 1.428 . S
C3003 N3002 1.351 . S
C3003 C3004 1.434 . S
C3004 C2995 1.429 . S
C3004 N3001 1.350 . S
C3004 C3003 1.434 . S
C3005 C3006 1.369 . S
C3005 C3007 1.419 . S
C3005 H3009 0.930 . S
C3006 C3005 1.369 . S
C3006 C3015 1.429 . S
C3007 C3005 1.419 . S
C3007 C3008 1.363 . S
C3007 H3010 0.929 . S
C3008 C3007 1.363 . S
C3008 C3014 1.428 . S
H3009 C3005 0.930 . S
H3010 C3007 0.929 . S
S3011 N3012 1.613 . S
S3011 N3013 1.610 . S
N3012 S3011 1.613 . S
N3012 C3015 1.350 . S
N3013 S3011 1.610 . S
N3013 C3014 1.351 . S
C3014 C3008 1.428 . S
C3014 N3013 1.351 . S
C3014 C3015 1.434 . S
C3015 C3006 1.429 . S
C3015 N3012 1.350 . S
C3015 C3014 1.434 . S
C3016 C3017 1.369 . S
C3016 C3018 1.419 . S
C3016 H3020 0.930 . S
C3017 C3016 1.369 . S
C3017 C3026 1.429 . S
C3018 C3016 1.419 . S
C3018 C3019 1.363 . S
C3018 H3021 0.929 . S
C3019 C3018 1.363 . S
C3019 C3025 1.428 . S
H3020 C3016 0.930 . S
H3021 C3018 0.929 . S
S3022 N3023 1.613 . S
S3022 N3024 1.610 . S
N3023 S3022 1.613 . S
N3023 C3026 1.350 . S
N3024 S3022 1.610 . S
N3024 C3025 1.351 . S
C3025 C3019 1.428 . S
C3025 N3024 1.351 . S
C3025 C3026 1.434 . S
C3026 C3017 1.429 . S
C3026 N3023 1.350 . S
C3026 C3025 1.434 . S
C3027 C3028 1.369 . S
C3027 C3029 1.419 . S
C3027 H3031 0.930 . S
C3028 C3027 1.369 . S
C3028 C3037 1.429 . S
C3029 C3027 1.419 . S
C3029 C3030 1.363 . S
C3029 H3032 0.929 . S
C3030 C3029 1.363 . S
C3030 C3036 1.428 . S
H3031 C3027 0.930 . S
H3032 C3029 0.929 . S
S3033 N3034 1.613 . S
S3033 N3035 1.610 . S
N3034 S3033 1.613 . S
N3034 C3037 1.350 . S
N3035 S3033 1.610 . S
N3035 C3036 1.351 . S
C3036 C3030 1.428 . S
C3036 N3035 1.351 . S
C3036 C3037 1.434 . S
C3037 C3028 1.429 . S
C3037 N3034 1.350 . S
C3037 C3036 1.434 . S
C3038 C3039 1.369 . S
C3038 C3040 1.419 . S
C3038 H3042 0.930 . S
C3039 C3038 1.369 . S
C3039 C3048 1.429 . S
C3040 C3038 1.419 . S
C3040 C3041 1.363 . S
C3040 H3043 0.929 . S
C3041 C3040 1.363 . S
C3041 C3047 1.428 . S
H3042 C3038 0.930 . S
H3043 C3040 0.929 . S
S3044 N3045 1.613 . S
S3044 N3046 1.610 . S
N3045 S3044 1.613 . S
N3045 C3048 1.350 . S
N3046 S3044 1.610 . S
N3046 C3047 1.351 . S
C3047 C3041 1.428 . S
C3047 N3046 1.351 . S
C3047 C3048 1.434 . S
C3048 C3039 1.429 . S
C3048 N3045 1.350 . S
C3048 C3047 1.434 . S
C3049 C3050 1.369 . S
C3049 C3051 1.419 . S
C3049 H3053 0.930 . S
C3050 C3049 1.369 . S
C3050 C3059 1.429 . S
C3051 C3049 1.419 . S
C3051 C3052 1.363 . S
C3051 H3054 0.929 . S
C3052 C3051 1.363 . S
C3052 C3058 1.428 . S
H3053 C3049 0.930 . S
H3054 C3051 0.929 . S
S3055 N3056 1.613 . S
S3055 N3057 1.610 . S
N3056 S3055 1.613 . S
N3056 C3059 1.350 . S
N3057 S3055 1.610 . S
N3057 C3058 1.351 . S
C3058 C3052 1.428 . S
C3058 N3057 1.351 . S
C3058 C3059 1.434 . S
C3059 C3050 1.429 . S
C3059 N3056 1.350 . S
C3059 C3058 1.434 . S
C3060 C3061 1.369 . S
C3060 C3062 1.419 . S
C3060 H3064 0.930 . S
C3061 C3060 1.369 . S
C3061 C3070 1.429 . S
C3062 C3060 1.419 . S
C3062 C3063 1.363 . S
C3062 H3065 0.929 . S
C3063 C3062 1.363 . S
C3063 C3069 1.428 . S
H3064 C3060 0.930 . S
H3065 C3062 0.929 . S
S3066 N3067 1.613 . S
S3066 N3068 1.610 . S
N3067 S3066 1.613 . S
N3067 C3070 1.350 . S
N3068 S3066 1.610 . S
N3068 C3069 1.351 . S
C3069 C3063 1.428 . S
C3069 N3068 1.351 . S
C3069 C3070 1.434 . S
C3070 C3061 1.429 . S
C3070 N3067 1.350 . S
C3070 C3069 1.434 . S
C3071 C3072 1.369 . S
C3071 C3073 1.419 . S
C3071 H3075 0.930 . S
C3072 C3071 1.369 . S
C3072 C3081 1.429 . S
C3073 C3071 1.419 . S
C3073 C3074 1.363 . S
C3073 H3076 0.929 . S
C3074 C3073 1.363 . S
C3074 C3080 1.428 . S
H3075 C3071 0.930 . S
H3076 C3073 0.929 . S
S3077 N3078 1.613 . S
S3077 N3079 1.610 . S
N3078 S3077 1.613 . S
N3078 C3081 1.350 . S
N3079 S3077 1.610 . S
N3079 C3080 1.351 . S
C3080 C3074 1.428 . S
C3080 N3079 1.351 . S
C3080 C3081 1.434 . S
C3081 C3072 1.429 . S
C3081 N3078 1.350 . S
C3081 C3080 1.434 . S
C3082 C3083 1.369 . S
C3082 C3084 1.419 . S
C3082 H3086 0.930 . S
C3083 C3082 1.369 . S
C3083 C3092 1.429 . S
C3084 C3082 1.419 . S
C3084 C3085 1.363 . S
C3084 H3087 0.929 . S
C3085 C3084 1.363 . S
C3085 C3091 1.428 . S
H3086 C3082 0.930 . S
H3087 C3084 0.929 . S
S3088 N3089 1.613 . S
S3088 N3090 1.610 . S
N3089 S3088 1.613 . S
N3089 C3092 1.350 . S
N3090 S3088 1.610 . S
N3090 C3091 1.351 . S
C3091 C3085 1.428 . S
C3091 N3090 1.351 . S
C3091 C3092 1.434 . S
C3092 C3083 1.429 . S
C3092 N3089 1.350 . S
C3092 C3091 1.434 . S
C3093 C3094 1.369 . S
C3093 C3095 1.419 . S
C3093 H3097 0.930 . S
C3094 C3093 1.369 . S
C3094 C3103 1.429 . S
C3095 C3093 1.419 . S
C3095 C3096 1.363 . S
C3095 H3098 0.929 . S
C3096 C3095 1.363 . S
C3096 C3102 1.428 . S
H3097 C3093 0.930 . S
H3098 C3095 0.929 . S
S3099 N3100 1.613 . S
S3099 N3101 1.610 . S
N3100 S3099 1.613 . S
N3100 C3103 1.350 . S
N3101 S3099 1.610 . S
N3101 C3102 1.351 . S
C3102 C3096 1.428 . S
C3102 N3101 1.351 . S
C3102 C3103 1.434 . S
C3103 C3094 1.429 . S
C3103 N3100 1.350 . S
C3103 C3102 1.434 . S
C3104 C3105 1.369 . S
C3104 C3106 1.419 . S
C3104 H3108 0.930 . S
C3105 C3104 1.369 . S
C3105 C3114 1.429 . S
C3106 C3104 1.419 . S
C3106 C3107 1.363 . S
C3106 H3109 0.929 . S
C3107 C3106 1.363 . S
C3107 C3113 1.428 . S
H3108 C3104 0.930 . S
H3109 C3106 0.929 . S
S3110 N3111 1.613 . S
S3110 N3112 1.610 . S
N3111 S3110 1.613 . S
N3111 C3114 1.350 . S
N3112 S3110 1.610 . S
N3112 C3113 1.351 . S
C3113 C3107 1.428 . S
C3113 N3112 1.351 . S
C3113 C3114 1.434 . S
C3114 C3105 1.429 . S
C3114 N3111 1.350 . S
C3114 C3113 1.434 . S
C3115 C3116 1.369 . S
C3115 C3117 1.419 . S
C3115 H3119 0.930 . S
C3116 C3115 1.369 . S
C3116 C3125 1.429 . S
C3117 C3115 1.419 . S
C3117 C3118 1.363 . S
C3117 H3120 0.929 . S
C3118 C3117 1.363 . S
C3118 C3124 1.428 . S
H3119 C3115 0.930 . S
H3120 C3117 0.929 . S
S3121 N3122 1.613 . S
S3121 N3123 1.610 . S
N3122 S3121 1.613 . S
N3122 C3125 1.350 . S
N3123 S3121 1.610 . S
N3123 C3124 1.351 . S
C3124 C3118 1.428 . S
C3124 N3123 1.351 . S
C3124 C3125 1.434 . S
C3125 C3116 1.429 . S
C3125 N3122 1.350 . S
C3125 C3124 1.434 . S
C3126 C3127 1.369 . S
C3126 C3128 1.419 . S
C3126 H3130 0.930 . S
C3127 C3126 1.369 . S
C3127 C3136 1.429 . S
C3128 C3126 1.419 . S
C3128 C3129 1.363 . S
C3128 H3131 0.929 . S
C3129 C3128 1.363 . S
C3129 C3135 1.428 . S
H3130 C3126 0.930 . S
H3131 C3128 0.929 . S
S3132 N3133 1.613 . S
S3132 N3134 1.610 . S
N3133 S3132 1.613 . S
N3133 C3136 1.350 . S
N3134 S3132 1.610 . S
N3134 C3135 1.351 . S
C3135 C3129 1.428 . S
C3135 N3134 1.351 . S
C3135 C3136 1.434 . S
C3136 C3127 1.429 . S
C3136 N3133 1.350 . S
C3136 C3135 1.434 . S
C3137 C3138 1.369 . S
C3137 C3139 1.419 . S
C3137 H3141 0.930 . S
C3138 C3137 1.369 . S
C3138 C3147 1.429 . S
C3139 C3137 1.419 . S
C3139 C3140 1.363 . S
C3139 H3142 0.929 . S
C3140 C3139 1.363 . S
C3140 C3146 1.428 . S
H3141 C3137 0.930 . S
H3142 C3139 0.929 . S
S3143 N3144 1.642 . S
S3143 N3145 1.610 . S
N3144 S3143 1.642 . S
N3144 C3147 1.311 1_554 S
N3145 S3143 1.610 . S
N3145 C3146 1.351 1_554 S
C3146 C3140 1.428 . S
C3146 N3145 1.351 1_556 S
C3146 C3147 1.434 . S
C3147 C3138 1.429 . S
C3147 N3144 1.311 1_556 S
C3147 C3146 1.434 . S
C3148 C3149 1.369 . S
C3148 C3150 1.419 . S
C3148 H3152 0.930 . S
C3149 C3148 1.369 . S
C3149 C3158 1.429 . S
C3150 C3148 1.419 . S
C3150 C3151 1.363 . S
C3150 H3153 0.929 . S
C3151 C3150 1.363 . S
C3151 C3157 1.428 . S
H3152 C3148 0.930 . S
H3153 C3150 0.929 . S
S3154 N3155 1.613 . S
S3154 N3156 1.610 . S
N3155 S3154 1.613 . S
N3155 C3158 1.350 . S
N3156 S3154 1.610 . S
N3156 C3157 1.351 . S
C3157 C3151 1.428 . S
C3157 N3156 1.351 . S
C3157 C3158 1.434 . S
C3158 C3149 1.429 . S
C3158 N3155 1.350 . S
C3158 C3157 1.434 . S
C3159 C3160 1.369 . S
C3159 C3161 1.419 . S
C3159 H3163 0.930 . S
C3160 C3159 1.369 . S
C3160 C3169 1.429 . S
C3161 C3159 1.419 . S
C3161 C3162 1.363 . S
C3161 H3164 0.929 . S
C3162 C3161 1.363 . S
C3162 C3168 1.428 . S
H3163 C3159 0.930 . S
H3164 C3161 0.929 . S
S3165 N3166 1.613 . S
S3165 N3167 1.610 . S
N3166 S3165 1.613 . S
N3166 C3169 1.350 . S
N3167 S3165 1.610 . S
N3167 C3168 1.351 . S
C3168 C3162 1.428 . S
C3168 N3167 1.351 . S
C3168 C3169 1.434 . S
C3169 C3160 1.429 . S
C3169 N3166 1.350 . S
C3169 C3168 1.434 . S
C3170 C3171 1.369 . S
C3170 C3172 1.419 . S
C3170 H3174 0.930 . S
C3171 C3170 1.369 . S
C3171 C3180 1.429 . S
C3172 C3170 1.419 . S
C3172 C3173 1.363 . S
C3172 H3175 0.929 . S
C3173 C3172 1.363 . S
C3173 C3179 1.428 . S
H3174 C3170 0.930 . S
H3175 C3172 0.929 . S
S3176 N3177 1.613 . S
S3176 N3178 1.610 . S
N3177 S3176 1.613 . S
N3177 C3180 1.350 . S
N3178 S3176 1.610 . S
N3178 C3179 1.351 . S
C3179 C3173 1.428 . S
C3179 N3178 1.351 . S
C3179 C3180 1.434 . S
C3180 C3171 1.429 . S
C3180 N3177 1.350 . S
C3180 C3179 1.434 . S
C3181 C3182 1.369 . S
C3181 C3183 1.419 . S
C3181 H3185 0.930 . S
C3182 C3181 1.369 . S
C3182 C3191 1.429 . S
C3183 C3181 1.419 . S
C3183 C3184 1.363 . S
C3183 H3186 0.929 . S
C3184 C3183 1.363 . S
C3184 C3190 1.428 . S
H3185 C3181 0.930 . S
H3186 C3183 0.929 . S
S3187 N3188 1.613 . S
S3187 N3189 1.610 . S
N3188 S3187 1.613 . S
N3188 C3191 1.350 . S
N3189 S3187 1.610 . S
N3189 C3190 1.351 . S
C3190 C3184 1.428 . S
C3190 N3189 1.351 . S
C3190 C3191 1.434 . S
C3191 C3182 1.429 . S
C3191 N3188 1.350 . S
C3191 C3190 1.434 . S
C3192 C3193 1.369 . S
C3192 C3194 1.419 . S
C3192 H3196 0.930 . S
C3193 C3192 1.369 . S
C3193 C3202 1.429 . S
C3194 C3192 1.419 . S
C3194 C3195 1.363 . S
C3194 H3197 0.929 . S
C3195 C3194 1.363 . S
C3195 C3201 1.428 . S
H3196 C3192 0.930 . S
H3197 C3194 0.929 . S
S3198 N3199 1.613 . S
S3198 N3200 1.610 . S
N3199 S3198 1.613 . S
N3199 C3202 1.350 . S
N3200 S3198 1.610 . S
N3200 C3201 1.351 . S
C3201 C3195 1.428 . S
C3201 N3200 1.351 . S
C3201 C3202 1.434 . S
C3202 C3193 1.429 . S
C3202 N3199 1.350 . S
C3202 C3201 1.434 . S
C3203 C3204 1.369 . S
C3203 C3205 1.419 . S
C3203 H3207 0.930 . S
C3204 C3203 1.369 . S
C3204 C3213 1.429 . S
C3205 C3203 1.419 . S
C3205 C3206 1.363 . S
C3205 H3208 0.929 . S
C3206 C3205 1.363 . S
C3206 C3212 1.428 . S
H3207 C3203 0.930 . S
H3208 C3205 0.929 . S
S3209 N3210 1.613 . S
S3209 N3211 1.610 . S
N3210 S3209 1.613 . S
N3210 C3213 1.350 . S
N3211 S3209 1.610 . S
N3211 C3212 1.351 . S
C3212 C3206 1.428 . S
C3212 N3211 1.351 . S
C3212 C3213 1.434 . S
C3213 C3204 1.429 . S
C3213 N3210 1.350 . S
C3213 C3212 1.434 . S
C3214 C3215 1.369 . S
C3214 C3216 1.419 . S
C3214 H3218 0.930 . S
C3215 C3214 1.369 . S
C3215 C3224 1.429 . S
C3216 C3214 1.419 . S
C3216 C3217 1.363 . S
C3216 H3219 0.929 . S
C3217 C3216 1.363 . S
C3217 C3223 1.428 . S
H3218 C3214 0.930 . S
H3219 C3216 0.929 . S
S3220 N3221 1.613 . S
S3220 N3222 1.610 . S
N3221 S3220 1.613 . S
N3221 C3224 1.350 . S
N3222 S3220 1.610 . S
N3222 C3223 1.351 . S
C3223 C3217 1.428 . S
C3223 N3222 1.351 . S
C3223 C3224 1.434 . S
C3224 C3215 1.429 . S
C3224 N3221 1.350 . S
C3224 C3223 1.434 . S
C3225 C3226 1.369 . S
C3225 C3227 1.419 . S
C3225 H3229 0.930 . S
C3226 C3225 1.369 . S
C3226 C3235 1.429 . S
C3227 C3225 1.419 . S
C3227 C3228 1.363 . S
C3227 H3230 0.929 . S
C3228 C3227 1.363 . S
C3228 C3234 1.428 . S
H3229 C3225 0.930 . S
H3230 C3227 0.929 . S
S3231 N3232 1.613 . S
S3231 N3233 1.610 . S
N3232 S3231 1.613 . S
N3232 C3235 1.350 . S
N3233 S3231 1.610 . S
N3233 C3234 1.351 . S
C3234 C3228 1.428 . S
C3234 N3233 1.351 . S
C3234 C3235 1.434 . S
C3235 C3226 1.429 . S
C3235 N3232 1.350 . S
C3235 C3234 1.434 . S
C3236 C3237 1.369 . S
C3236 C3238 1.419 . S
C3236 H3240 0.930 . S
C3237 C3236 1.369 . S
C3237 C3246 1.429 . S
C3238 C3236 1.419 . S
C3238 C3239 1.363 . S
C3238 H3241 0.929 . S
C3239 C3238 1.363 . S
C3239 C3245 1.428 . S
H3240 C3236 0.930 . S
H3241 C3238 0.929 . S
S3242 N3243 1.613 . S
S3242 N3244 1.610 . S
N3243 S3242 1.613 . S
N3243 C3246 1.350 . S
N3244 S3242 1.610 . S
N3244 C3245 1.351 . S
C3245 C3239 1.428 . S
C3245 N3244 1.351 . S
C3245 C3246 1.434 . S
C3246 C3237 1.429 . S
C3246 N3243 1.350 . S
C3246 C3245 1.434 . S
C3247 C3248 1.369 . S
C3247 C3249 1.419 . S
C3247 H3251 0.930 . S
C3248 C3247 1.369 . S
C3248 C3257 1.429 . S
C3249 C3247 1.419 . S
C3249 C3250 1.363 . S
C3249 H3252 0.929 . S
C3250 C3249 1.363 . S
C3250 C3256 1.428 . S
H3251 C3247 0.930 . S
H3252 C3249 0.929 . S
S3253 N3254 1.613 . S
S3253 N3255 1.610 . S
N3254 S3253 1.613 . S
N3254 C3257 1.350 . S
N3255 S3253 1.610 . S
N3255 C3256 1.351 . S
C3256 C3250 1.428 . S
C3256 N3255 1.351 . S
C3256 C3257 1.434 . S
C3257 C3248 1.429 . S
C3257 N3254 1.350 . S
C3257 C3256 1.434 . S
C3258 C3259 1.369 . S
C3258 C3260 1.419 . S
C3258 H3262 0.930 . S
C3259 C3258 1.369 . S
C3259 C3268 1.429 . S
C3260 C3258 1.419 . S
C3260 C3261 1.363 . S
C3260 H3263 0.929 . S
C3261 C3260 1.363 . S
C3261 C3267 1.428 . S
H3262 C3258 0.930 . S
H3263 C3260 0.929 . S
S3264 N3265 1.613 . S
S3264 N3266 1.610 . S
N3265 S3264 1.613 . S
N3265 C3268 1.350 . S
N3266 S3264 1.610 . S
N3266 C3267 1.351 . S
C3267 C3261 1.428 . S
C3267 N3266 1.351 . S
C3267 C3268 1.434 . S
C3268 C3259 1.429 . S
C3268 N3265 1.350 . S
C3268 C3267 1.434 . S
C3269 C3270 1.369 . S
C3269 C3271 1.419 . S
C3269 H3273 0.930 . S
C3270 C3269 1.369 . S
C3270 C3279 1.429 . S
C3271 C3269 1.419 . S
C3271 C3272 1.363 . S
C3271 H3274 0.929 . S
C3272 C3271 1.363 . S
C3272 C3278 1.428 . S
H3273 C3269 0.930 . S
H3274 C3271 0.929 . S
S3275 N3276 1.613 . S
S3275 N3277 1.610 . S
N3276 S3275 1.613 . S
N3276 C3279 1.350 . S
N3277 S3275 1.610 . S
N3277 C3278 1.351 . S
C3278 C3272 1.428 . S
C3278 N3277 1.351 . S
C3278 C3279 1.434 . S
C3279 C3270 1.429 . S
C3279 N3276 1.350 . S
C3279 C3278 1.434 . S
C3280 C3281 1.369 . S
C3280 C3282 1.419 . S
C3280 H3284 0.930 . S
C3281 C3280 1.369 . S
C3281 C3290 1.429 . S
C3282 C3280 1.419 . S
C3282 C3283 1.363 . S
C3282 H3285 0.929 . S
C3283 C3282 1.363 . S
C3283 C3289 1.428 . S
H3284 C3280 0.930 . S
H3285 C3282 0.929 . S
S3286 N3287 1.613 . S
S3286 N3288 1.610 . S
N3287 S3286 1.613 . S
N3287 C3290 1.350 . S
N3288 S3286 1.610 . S
N3288 C3289 1.351 . S
C3289 C3283 1.428 . S
C3289 N3288 1.351 . S
C3289 C3290 1.434 . S
C3290 C3281 1.429 . S
C3290 N3287 1.350 . S
C3290 C3289 1.434 . S
C3291 C3292 1.369 . S
C3291 C3293 1.419 . S
C3291 H3295 0.930 . S
C3292 C3291 1.369 . S
C3292 C3301 1.429 . S
C3293 C3291 1.419 . S
C3293 C3294 1.363 . S
C3293 H3296 0.929 . S
C3294 C3293 1.363 . S
C3294 C3300 1.428 . S
H3295 C3291 0.930 . S
H3296 C3293 0.929 . S
S3297 N3298 1.613 . S
S3297 N3299 1.610 . S
N3298 S3297 1.613 . S
N3298 C3301 1.350 . S
N3299 S3297 1.610 . S
N3299 C3300 1.351 . S
C3300 C3294 1.428 . S
C3300 N3299 1.351 . S
C3300 C3301 1.434 . S
C3301 C3292 1.429 . S
C3301 N3298 1.350 . S
C3301 C3300 1.434 . S
C3302 C3303 1.369 . S
C3302 C3304 1.419 . S
C3302 H3306 0.930 . S
C3303 C3302 1.369 . S
C3303 C3312 1.429 . S
C3304 C3302 1.419 . S
C3304 C3305 1.363 . S
C3304 H3307 0.929 . S
C3305 C3304 1.363 . S
C3305 C3311 1.428 . S
H3306 C3302 0.930 . S
H3307 C3304 0.929 . S
S3308 N3309 1.613 . S
S3308 N3310 1.610 . S
N3309 S3308 1.613 . S
N3309 C3312 1.350 . S
N3310 S3308 1.610 . S
N3310 C3311 1.351 . S
C3311 C3305 1.428 . S
C3311 N3310 1.351 . S
C3311 C3312 1.434 . S
C3312 C3303 1.429 . S
C3312 N3309 1.350 . S
C3312 C3311 1.434 . S
C3313 C3314 1.369 . S
C3313 C3315 1.419 . S
C3313 H3317 0.930 . S
C3314 C3313 1.369 . S
C3314 C3323 1.429 . S
C3315 C3313 1.419 . S
C3315 C3316 1.363 . S
C3315 H3318 0.929 . S
C3316 C3315 1.363 . S
C3316 C3322 1.428 . S
H3317 C3313 0.930 . S
H3318 C3315 0.929 . S
S3319 N3320 1.613 . S
S3319 N3321 1.610 . S
N3320 S3319 1.613 . S
N3320 C3323 1.350 . S
N3321 S3319 1.610 . S
N3321 C3322 1.351 . S
C3322 C3316 1.428 . S
C3322 N3321 1.351 . S
C3322 C3323 1.434 . S
C3323 C3314 1.429 . S
C3323 N3320 1.350 . S
C3323 C3322 1.434 . S
C3324 C3325 1.369 . S
C3324 C3326 1.419 . S
C3324 H3328 0.930 . S
C3325 C3324 1.369 . S
C3325 C3334 1.429 . S
C3326 C3324 1.419 . S
C3326 C3327 1.363 . S
C3326 H3329 0.929 . S
C3327 C3326 1.363 . S
C3327 C3333 1.428 . S
H3328 C3324 0.930 . S
H3329 C3326 0.929 . S
S3330 N3331 1.613 . S
S3330 N3332 1.610 . S
N3331 S3330 1.613 . S
N3331 C3334 1.350 . S
N3332 S3330 1.610 . S
N3332 C3333 1.351 . S
C3333 C3327 1.428 . S
C3333 N3332 1.351 . S
C3333 C3334 1.434 . S
C3334 C3325 1.429 . S
C3334 N3331 1.350 . S
C3334 C3333 1.434 . S
C3335 C3336 1.369 . S
C3335 C3337 1.419 . S
C3335 H3339 0.930 . S
C3336 C3335 1.369 . S
C3336 C3345 1.429 . S
C3337 C3335 1.419 . S
C3337 C3338 1.363 . S
C3337 H3340 0.929 . S
C3338 C3337 1.363 . S
C3338 C3344 1.428 . S
H3339 C3335 0.930 . S
H3340 C3337 0.929 . S
S3341 N3342 1.613 . S
S3341 N3343 1.610 . S
N3342 S3341 1.613 . S
N3342 C3345 1.350 . S
N3343 S3341 1.610 . S
N3343 C3344 1.351 . S
C3344 C3338 1.428 . S
C3344 N3343 1.351 . S
C3344 C3345 1.434 . S
C3345 C3336 1.429 . S
C3345 N3342 1.350 . S
C3345 C3344 1.434 . S
C3346 C3347 1.369 . S
C3346 C3348 1.419 . S
C3346 H3350 0.930 . S
C3347 C3346 1.369 . S
C3347 C3356 1.429 . S
C3348 C3346 1.419 . S
C3348 C3349 1.363 . S
C3348 H3351 0.929 . S
C3349 C3348 1.363 . S
C3349 C3355 1.428 . S
H3350 C3346 0.930 . S
H3351 C3348 0.929 . S
S3352 N3353 1.613 . S
S3352 N3354 1.610 . S
N3353 S3352 1.613 . S
N3353 C3356 1.350 . S
N3354 S3352 1.610 . S
N3354 C3355 1.351 . S
C3355 C3349 1.428 . S
C3355 N3354 1.351 . S
C3355 C3356 1.434 . S
C3356 C3347 1.429 . S
C3356 N3353 1.350 . S
C3356 C3355 1.434 . S
C3357 C3358 1.369 . S
C3357 C3359 1.419 . S
C3357 H3361 0.930 . S
C3358 C3357 1.369 . S
C3358 C3367 1.429 . S
C3359 C3357 1.419 . S
C3359 C3360 1.363 . S
C3359 H3362 0.929 . S
C3360 C3359 1.363 . S
C3360 C3366 1.428 . S
H3361 C3357 0.930 . S
H3362 C3359 0.929 . S
S3363 N3364 1.613 . S
S3363 N3365 1.610 . S
N3364 S3363 1.613 . S
N3364 C3367 1.350 . S
N3365 S3363 1.610 . S
N3365 C3366 1.351 . S
C3366 C3360 1.428 . S
C3366 N3365 1.351 . S
C3366 C3367 1.434 . S
C3367 C3358 1.429 . S
C3367 N3364 1.350 . S
C3367 C3366 1.434 . S
C3368 C3369 1.369 . S
C3368 C3370 1.419 . S
C3368 H3372 0.930 . S
C3369 C3368 1.369 . S
C3369 C3378 1.429 . S
C3370 C3368 1.419 . S
C3370 C3371 1.363 . S
C3370 H3373 0.929 . S
C3371 C3370 1.363 . S
C3371 C3377 1.428 . S
H3372 C3368 0.930 . S
H3373 C3370 0.929 . S
S3374 N3375 1.613 . S
S3374 N3376 1.610 . S
N3375 S3374 1.613 . S
N3375 C3378 1.350 . S
N3376 S3374 1.610 . S
N3376 C3377 1.351 . S
C3377 C3371 1.428 . S
C3377 N3376 1.351 . S
C3377 C3378 1.434 . S
C3378 C3369 1.429 . S
C3378 N3375 1.350 . S
C3378 C3377 1.434 . S
C3379 C3380 1.369 . S
C3379 C3381 1.419 . S
C3379 H3383 0.930 . S
C3380 C3379 1.369 . S
C3380 C3389 1.429 . S
C3381 C3379 1.419 . S
C3381 C3382 1.363 . S
C3381 H3384 0.929 . S
C3382 C3381 1.363 . S
C3382 C3388 1.428 . S
H3383 C3379 0.930 . S
H3384 C3381 0.929 . S
S3385 N3386 1.613 . S
S3385 N3387 1.610 . S
N3386 S3385 1.613 . S
N3386 C3389 1.350 . S
N3387 S3385 1.610 . S
N3387 C3388 1.351 . S
C3388 C3382 1.428 . S
C3388 N3387 1.351 . S
C3388 C3389 1.434 . S
C3389 C3380 1.429 . S
C3389 N3386 1.350 . S
C3389 C3388 1.434 . S
C3390 C3391 1.369 . S
C3390 C3392 1.419 . S
C3390 H3394 0.930 . S
C3391 C3390 1.369 . S
C3391 C3400 1.429 . S
C3392 C3390 1.419 . S
C3392 C3393 1.363 . S
C3392 H3395 0.929 . S
C3393 C3392 1.363 . S
C3393 C3399 1.428 . S
H3394 C3390 0.930 . S
H3395 C3392 0.929 . S
S3396 N3397 1.613 . S
S3396 N3398 1.610 . S
N3397 S3396 1.613 . S
N3397 C3400 1.350 . S
N3398 S3396 1.610 . S
N3398 C3399 1.351 . S
C3399 C3393 1.428 . S
C3399 N3398 1.351 . S
C3399 C3400 1.434 . S
C3400 C3391 1.429 . S
C3400 N3397 1.350 . S
C3400 C3399 1.434 . S
C3401 C3402 1.369 . S
C3401 C3403 1.419 . S
C3401 H3405 0.930 . S
C3402 C3401 1.369 . S
C3402 C3411 1.429 . S
C3403 C3401 1.419 . S
C3403 C3404 1.363 . S
C3403 H3406 0.929 . S
C3404 C3403 1.363 . S
C3404 C3410 1.428 . S
H3405 C3401 0.930 . S
H3406 C3403 0.929 . S
S3407 N3408 1.613 . S
S3407 N3409 1.610 . S
N3408 S3407 1.613 . S
N3408 C3411 1.350 . S
N3409 S3407 1.610 . S
N3409 C3410 1.351 . S
C3410 C3404 1.428 . S
C3410 N3409 1.351 . S
C3410 C3411 1.434 . S
C3411 C3402 1.429 . S
C3411 N3408 1.350 . S
C3411 C3410 1.434 . S
C3412 C3413 1.369 . S
C3412 C3414 1.419 . S
C3412 H3416 0.930 . S
C3413 C3412 1.369 . S
C3413 C3422 1.429 . S
C3414 C3412 1.419 . S
C3414 C3415 1.363 . S
C3414 H3417 0.929 . S
C3415 C3414 1.363 . S
C3415 C3421 1.428 . S
H3416 C3412 0.930 . S
H3417 C3414 0.929 . S
S3418 N3419 1.613 . S
S3418 N3420 1.610 . S
N3419 S3418 1.613 . S
N3419 C3422 1.350 . S
N3420 S3418 1.610 . S
N3420 C3421 1.351 . S
C3421 C3415 1.428 . S
C3421 N3420 1.351 . S
C3421 C3422 1.434 . S
C3422 C3413 1.429 . S
C3422 N3419 1.350 . S
C3422 C3421 1.434 . S
C3423 C3424 1.369 . S
C3423 C3425 1.419 . S
C3423 H3427 0.930 . S
C3424 C3423 1.369 . S
C3424 C3433 1.429 . S
C3425 C3423 1.419 . S
C3425 C3426 1.363 . S
C3425 H3428 0.929 . S
C3426 C3425 1.363 . S
C3426 C3432 1.428 . S
H3427 C3423 0.930 . S
H3428 C3425 0.929 . S
S3429 N3430 1.613 . S
S3429 N3431 1.610 . S
N3430 S3429 1.613 . S
N3430 C3433 1.350 . S
N3431 S3429 1.610 . S
N3431 C3432 1.351 . S
C3432 C3426 1.428 . S
C3432 N3431 1.351 . S
C3432 C3433 1.434 . S
C3433 C3424 1.429 . S
C3433 N3430 1.350 . S
C3433 C3432 1.434 . S
C3434 C3435 1.369 . S
C3434 C3436 1.419 . S
C3434 H3438 0.930 . S
C3435 C3434 1.369 . S
C3435 C3444 1.429 . S
C3436 C3434 1.419 . S
C3436 C3437 1.363 . S
C3436 H3439 0.929 . S
C3437 C3436 1.363 . S
C3437 C3443 1.428 . S
H3438 C3434 0.930 . S
H3439 C3436 0.929 . S
S3440 N3441 1.613 . S
S3440 N3442 1.610 . S
N3441 S3440 1.613 . S
N3441 C3444 1.350 . S
N3442 S3440 1.610 . S
N3442 C3443 1.351 . S
C3443 C3437 1.428 . S
C3443 N3442 1.351 . S
C3443 C3444 1.434 . S
C3444 C3435 1.429 . S
C3444 N3441 1.350 . S
C3444 C3443 1.434 . S
C3445 C3446 1.369 . S
C3445 C3447 1.419 . S
C3445 H3449 0.930 . S
C3446 C3445 1.369 . S
C3446 C3455 1.429 . S
C3447 C3445 1.419 . S
C3447 C3448 1.363 . S
C3447 H3450 0.929 . S
C3448 C3447 1.363 . S
C3448 C3454 1.428 . S
H3449 C3445 0.930 . S
H3450 C3447 0.929 . S
S3451 N3452 1.613 . S
S3451 N3453 1.610 . S
N3452 S3451 1.613 . S
N3452 C3455 1.350 . S
N3453 S3451 1.610 . S
N3453 C3454 1.351 . S
C3454 C3448 1.428 . S
C3454 N3453 1.351 . S
C3454 C3455 1.434 . S
C3455 C3446 1.429 . S
C3455 N3452 1.350 . S
C3455 C3454 1.434 . S
C1345 C7 1.556 . S
C1347 C133 1.556 . S
C1356 C147 1.554 . S
C1358 C21 1.554 . S
C1367 C35 1.555 . S
C1369 C161 1.555 . S
C1378 C49 1.554 . S
C1380 C119 1.554 . S
C1389 C63 1.554 . S
C1391 C217 1.554 . S
C1400 C175 1.556 . S
C1402 C77 1.556 . S
C1411 C91 1.554 . S
C1413 C189 1.554 . S
C1422 C203 1.556 . S
C1424 C105 1.556 . S
C1433 C259 1.554 . S
C1435 C231 1.554 . S
C1444 C245 1.556 . S
C1446 C987 1.556 . S
C1455 C1001 1.556 . S
C1457 C273 1.556 . S
C1466 C287 1.554 . S
C1468 C973 1.554 . S
C1477 C959 1.554 . S
C1479 C301 1.555 . S
C1488 C917 1.555 . S
C1490 C315 1.554 . S
C1499 C329 1.556 . S
C1501 C945 1.556 . S
C1510 C343 1.556 . S
C1512 C469 1.556 . S
C1521 C357 1.556 . S
C1523 C483 1.555 . S
C1532 C497 1.556 . S
C1534 C371 1.555 . S
C1543 C455 1.554 . S
C1545 C385 1.554 . S
C1554 C553 1.556 . S
C1556 C399 1.555 . S
C1565 C413 1.554 . S
C1567 C511 1.555 . S
C1576 C427 1.554 . S
C1578 C525 1.555 . S
C1587 C441 1.554 . S
C1589 C539 1.554 . S
C1598 C567 1.555 . S
C1600 C595 1.555 . S
C1609 C581 1.554 . S
C1611 C1323 1.555 . S
C1620 C1337 1.557 . S
C1622 C609 1.556 . S
C1631 C623 1.556 . S
C1633 C1309 1.556 . S
C1642 C637 1.555 . S
C1644 C1295 1.556 . S
C1653 C651 1.557 . S
C1655 C1253 1.556 . S
C1664 C665 1.554 . S
C1666 C1281 1.555 . S
C1675 C679 1.556 . S
C1677 C805 1.556 . S
C1686 C819 1.556 . S
C1688 C693 1.556 . S
C1697 C833 1.555 . S
C1699 C707 1.555 . S
C1708 C721 1.556 . S
C1710 C791 1.556 . S
C1719 C735 1.556 . S
C1721 C889 1.556 . S
C1730 C749 1.556 . S
C1732 C847 1.555 . S
C1741 C763 1.557 . S
C1743 C861 1.556 . S
C1752 C875 1.556 . S
C1754 C777 1.556 . S
C1763 C903 1.555 . S
C1765 C931 1.555 . S
C1774 C1015 1.556 . S
C1776 C1141 1.555 . S
C1785 C1029 1.556 . S
C1787 C1155 1.556 . S
C1796 C1169 1.556 . S
C1798 C1043 1.556 . S
C1807 C1127 1.556 . S
C1809 C1057 1.556 . S
C1818 C1071 1.555 . S
C1820 C1225 1.555 . S
C1829 C1183 1.555 . S
C1831 C1085 1.556 . S
C1840 C1197 1.556 . S
C1842 C1099 1.555 . S
C1851 C1211 1.557 . S
C1853 C1113 1.556 . S
C1862 C1239 1.556 . S
C1864 C1267 1.556 . S
C1873 C6 1.570 . S
C1875 C286 1.576 . S
C1884 C20 1.570 . S
C1886 C916 1.576 . S
C1895 C930 1.575 . S
C1897 C34 1.577 . S
C1906 C944 1.578 . S
C1908 C48 1.574 . S
C1917 C62 1.569 . S
C1919 C1000 1.575 . S
C1928 C300 1.569 . S
C1930 C76 1.574 . S
C1939 C90 1.577 . S
C1941 C986 1.574 . S
C1950 C104 1.572 . S
C1952 C230 1.570 . S
C1961 C118 1.571 . S
C1963 C216 1.577 . S
C1972 C174 1.578 . S
C1974 C132 1.573 . S
C1983 C146 1.578 . S
C1985 C188 1.574 . S
C1994 C160 1.571 . S
C1996 C202 1.570 . S
C2005 C692 1.577 . S
C2007 C244 1.570 . S
C2016 C706 1.577 . S
C2018 C258 1.571 . S
C2027 C720 1.574 . S
C2029 C272 1.577 . S
C2038 C762 1.568 . S
C2040 C314 1.573 . S
C2049 C328 1.577 . S
C2051 C734 1.571 . S
C2060 C342 1.574 . S
C2062 C622 1.570 . S
C2071 C356 1.574 . S
C2073 C1252 1.577 . S
C2082 C1266 1.571 . S
C2084 C370 1.577 . S
C2093 C1280 1.578 . S
C2095 C384 1.573 . S
C2104 C1336 1.570 . S
C2106 C398 1.571 . S
C2115 C636 1.577 . S
C2117 C412 1.576 . S
C2126 C426 1.570 . S
C2128 C1322 1.570 . S
C2137 C440 1.573 . S
C2139 C566 1.577 . S
C2148 C552 1.574 . S
C2150 C454 1.570 . S
C2159 C468 1.574 . S
C2161 C510 1.577 . S
C2170 C524 1.575 . S
C2172 C482 1.577 . S
C2181 C496 1.571 . S
C2183 C538 1.570 . S
C2192 C1028 1.568 . S
C2194 C580 1.573 . S
C2203 C594 1.573 . S
C2205 C1042 1.570 . S
C2214 C608 1.570 . S
C2216 C1056 1.576 . S
C2225 C650 1.573 . S
C2227 C1098 1.577 . S
C2236 C664 1.570 . S
C2238 C1070 1.570 . S
C2247 C678 1.570 . S
C2249 C958 1.571 . S
C2258 C972 1.569 . S
C2260 C748 1.576 . S
C2269 C776 1.578 . S
C2271 C902 1.572 . S
C2280 C888 1.575 . S
C2282 C790 1.570 . S
C2291 C846 1.572 . S
C2293 C804 1.570 . S
C2302 C818 1.569 . S
C2304 C860 1.572 . S
C2313 C832 1.570 . S
C2315 C874 1.576 . S
C2324 C1294 1.572 . S
C2326 C1014 1.570 . S
C2335 C1084 1.570 . S
C2337 C1308 1.571 . S
C2346 C1238 1.572 . S
C2348 C1112 1.570 . S
C2357 C1126 1.569 . S
C2359 C1224 1.573 . S
C2368 C1182 1.569 . S
C2370 C1140 1.571 . S
C2379 C1154 1.576 . S
C2381 C1196 1.570 . S
C2390 C1210 1.569 . S
C2392 C1168 1.574 . S
C2401 C9 1.553 . S
C2403 C610 1.373 . S
C2412 C624 1.384 . S
C2414 C23 1.554 . S
C2423 C582 1.381 . S
C2425 C37 1.553 . S
C2434 C51 1.553 . S
C2436 C1268 1.374 . S
C2445 C65 1.554 . S
C2447 C1310 1.382 . S
C2456 C79 1.553 . S
C2458 C1324 1.373 . S
C2467 C1240 1.377 . S
C2469 C93 1.553 . S
C2478 C1338 1.381 . S
C2480 C107 1.553 . S
C2489 C372 1.372 . S
C2491 C121 1.553 . S
C2500 C135 1.553 . S
C2502 C1058 1.373 . S
C2511 C344 1.372 . S
C2513 C149 1.553 . S
C2522 C1030 1.380 . S
C2524 C163 1.553 . S
C2533 C428 1.369 . S
C2535 C177 1.553 . S
C2544 C191 1.553 . S
C2546 C1114 1.380 . S
C2555 C205 1.553 . S
C2557 C400 1.375 . S
C2566 C219 1.553 . S
C2568 C1086 1.372 . S
C2577 C233 1.553 . S
C2579 C1184 1.382 . S
C2588 C456 1.379 . S
C2590 C247 1.553 . S
C2599 C261 1.553 . S
C2601 C1142 1.377 . S
C2610 C275 1.553 . S
C2612 C484 1.374 . S
C2621 C289 1.553 . S
C2623 C498 1.381 . S
C2632 C303 1.553 . S
C2634 C1212 1.375 . S
C2643 C1226 1.382 . S
C2645 C317 1.553 . S
C2654 C1198 1.382 . S
C2656 C331 1.553 . S
C2665 C274 1.377 . S
C2667 C345 1.553 . S
C2676 C359 1.553 . S
C2678 C288 1.371 . S
C2687 C373 1.553 . S
C2689 C246 1.379 . S
C2698 C387 1.553 . S
C2700 C932 1.372 . S
C2709 C974 1.375 . S
C2711 C401 1.553 . S
C2720 C988 1.369 . S
C2722 C415 1.553 . S
C2731 C429 1.553 . S
C2733 C904 1.371 . S
C2742 C1002 1.370 . S
C2744 C443 1.553 . S
C2753 C457 1.553 . S
C2755 C36 1.381 . S
C2764 C722 1.371 . S
C2766 C471 1.553 . S
C2775 C485 1.553 . S
C2777 C8 1.371 . S
C2786 C694 1.383 . S
C2788 C499 1.553 . S
C2797 C513 1.553 . S
C2799 C92 1.382 . S
C2808 C778 1.383 . S
C2810 C527 1.553 . S
C2819 C64 1.369 . S
C2821 C541 1.553 . S
C2830 C750 1.375 . S
C2832 C555 1.553 . S
C2841 C569 1.553 . S
C2843 C848 1.372 . S
C2852 C583 1.553 . S
C2854 C120 1.382 . S
C2863 C806 1.380 . S
C2865 C597 1.553 . S
C2874 C611 1.553 . S
C2876 C148 1.375 . S
C2885 C162 1.384 . S
C2887 C625 1.553 . S
C2896 C876 1.382 . S
C2898 C639 1.553 . S
C2907 C890 1.372 . S
C2909 C653 1.553 . S
C2918 C862 1.380 . S
C2920 C667 1.553 . S
C2929 C681 1.553 . S
C2931 C1282 1.376 . S
C2940 C695 1.553 . S
C2942 C1296 1.375 . S
C2951 C709 1.553 . S
C2953 C1254 1.375 . S
C2962 C596 1.379 . S
C2964 C723 1.553 . S
C2973 C737 1.554 . S
C2975 C638 1.381 . S
C2984 C652 1.374 . S
C2986 C751 1.553 . S
C2995 C568 1.375 . S
C2997 C765 1.553 . S
C3006 C666 1.377 . S
C3008 C779 1.553 . S
C3017 C793 1.553 . S
C3019 C1044 1.371 . S
C3028 C386 1.372 . S
C3030 C807 1.553 . S
C3039 C821 1.554 . S
C3041 C1016 1.382 . S
C3050 C835 1.553 . S
C3052 C358 1.380 . S
C3061 C849 1.553 . S
C3063 C1100 1.373 . S
C3072 C863 1.553 . S
C3074 C442 1.375 . S
C3083 C1072 1.379 . S
C3085 C877 1.553 . S
C3094 C414 1.372 . S
C3096 C891 1.553 . S
C3105 C905 1.553 . S
C3107 C512 1.382 . S
C3116 C919 1.554 . S
C3118 C1128 1.383 . S
C3127 C933 1.554 . S
C3129 C470 1.383 . S
C3138 C1156 1.383 . S
C3140 C947 1.553 . S
C3149 C961 1.553 . S
C3151 C1170 1.376 . S
C3160 C975 1.553 . S
C3162 C540 1.373 . S
C3171 C554 1.380 . S
C3173 C989 1.553 . S
C3182 C1003 1.553 . S
C3184 C526 1.382 . S
C3193 C1017 1.553 . S
C3195 C946 1.372 . S
C3204 C960 1.382 . S
C3206 C1031 1.553 . S
C3215 C918 1.373 . S
C3217 C1045 1.553 . S
C3226 C1059 1.553 . S
C3228 C260 1.381 . S
C3237 C1073 1.553 . S
C3239 C302 1.380 . S
C3248 C1087 1.553 . S
C3250 C316 1.375 . S
C3259 C232 1.376 . S
C3261 C1101 1.553 . S
C3270 C1115 1.553 . S
C3272 C330 1.381 . S
C3281 C1129 1.553 . S
C3283 C708 1.378 . S
C3292 C1143 1.553 . S
C3294 C50 1.378 . S
C3303 C1157 1.553 . S
C3305 C680 1.377 . S
C3314 C1171 1.553 . S
C3316 C22 1.373 . S
C3325 C1185 1.553 . S
C3327 C764 1.381 . S
C3336 C1199 1.554 . S
C3338 C106 1.382 . S
C3347 C1213 1.553 . S
C3349 C736 1.371 . S
C3358 C1227 1.553 . S
C3360 C78 1.381 . S
C3369 C1241 1.553 . S
C3371 C176 1.375 . S
C3380 C1255 1.553 . S
C3382 C792 1.379 . S
C3391 C1269 1.553 . S
C3393 C134 1.371 . S
C3402 C1283 1.553 . S
C3404 C820 1.371 . S
C3413 C1297 1.553 . S
C3415 C834 1.375 . S
C3424 C204 1.373 . S
C3426 C1311 1.553 . S
C3435 C1325 1.553 . S
C3437 C218 1.372 . S
C3446 C1339 1.553 . S
C3448 C190 1.375 . S
