# Generated by pormake.
# Topology sod, (4)-cn, num edge types: 1
# Building blocks:
#     Node 0, Type 0, BuildingBlock: QUQFOY_clean_sbu_1, # of connection points: 4
#     Node 1, Type 0, BuildingBlock: QUQFOY_clean_sbu_1, # of connection points: 4
#     Node 2, Type 0, BuildingBlock: QUQFOY_clean_sbu_1, # of connection points: 4
#     Node 3, Type 0, BuildingBlock: QUQFOY_clean_sbu_1, # of connection points: 4
#     Node 4, Type 0, BuildingBlock: QUQFOY_clean_sbu_1, # of connection points: 4
#     Node 5, Type 0, BuildingBlock: QUQFOY_clean_sbu_1, # of connection points: 4
#     Node 6, Type 0, BuildingBlock: QUQFOY_clean_sbu_1, # of connection points: 4
#     Node 7, Type 0, BuildingBlock: QUQFOY_clean_sbu_1, # of connection points: 4
#     Node 8, Type 0, BuildingBlock: QUQFOY_clean_sbu_1, # of connection points: 4
#     Node 9, Type 0, BuildingBlock: QUQFOY_clean_sbu_1, # of connection points: 4
#     Node 10, Type 0, BuildingBlock: QUQFOY_clean_sbu_1, # of connection points: 4
#     Node 11, Type 0, BuildingBlock: QUQFOY_clean_sbu_1, # of connection points: 4
#     Edge 12, Type (0, 0), BuildingBlock: MIFKUJ_clean_linker_0, # of connection points: 2
#     Edge 13, Type (0, 0), BuildingBlock: MIFKUJ_clean_linker_0, # of connection points: 2
#     Edge 14, Type (0, 0), BuildingBlock: MIFKUJ_clean_linker_0, # of connection points: 2
#     Edge 15, Type (0, 0), BuildingBlock: MIFKUJ_clean_linker_0, # of connection points: 2
#     Edge 16, Type (0, 0), BuildingBlock: MIFKUJ_clean_linker_0, # of connection points: 2
#     Edge 17, Type (0, 0), BuildingBlock: MIFKUJ_clean_linker_0, # of connection points: 2
#     Edge 18, Type (0, 0), BuildingBlock: MIFKUJ_clean_linker_0, # of connection points: 2
#     Edge 19, Type (0, 0), BuildingBlock: MIFKUJ_clean_linker_0, # of connection points: 2
#     Edge 20, Type (0, 0), BuildingBlock: MIFKUJ_clean_linker_0, # of connection points: 2
#     Edge 21, Type (0, 0), BuildingBlock: MIFKUJ_clean_linker_0, # of connection points: 2
#     Edge 22, Type (0, 0), BuildingBlock: MIFKUJ_clean_linker_0, # of connection points: 2
#     Edge 23, Type (0, 0), BuildingBlock: MIFKUJ_clean_linker_0, # of connection points: 2
#     Edge 24, Type (0, 0), BuildingBlock: MIFKUJ_clean_linker_0, # of connection points: 2
#     Edge 25, Type (0, 0), BuildingBlock: MIFKUJ_clean_linker_0, # of connection points: 2
#     Edge 26, Type (0, 0), BuildingBlock: MIFKUJ_clean_linker_0, # of connection points: 2
#     Edge 27, Type (0, 0), BuildingBlock: MIFKUJ_clean_linker_0, # of connection points: 2
#     Edge 28, Type (0, 0), BuildingBlock: MIFKUJ_clean_linker_0, # of connection points: 2
#     Edge 29, Type (0, 0), BuildingBlock: MIFKUJ_clean_linker_0, # of connection points: 2
#     Edge 30, Type (0, 0), BuildingBlock: MIFKUJ_clean_linker_0, # of connection points: 2
#     Edge 31, Type (0, 0), BuildingBlock: MIFKUJ_clean_linker_0, # of connection points: 2
#     Edge 32, Type (0, 0), BuildingBlock: MIFKUJ_clean_linker_0, # of connection points: 2
#     Edge 33, Type (0, 0), BuildingBlock: MIFKUJ_clean_linker_0, # of connection points: 2
#     Edge 34, Type (0, 0), BuildingBlock: MIFKUJ_clean_linker_0, # of connection points: 2
#     Edge 35, Type (0, 0), BuildingBlock: MIFKUJ_clean_linker_0, # of connection points: 2
# Relax obj value: 0.195
# Max RMSD: 0.263
# Mean RMSD: 0.230
data_MOF--net-sod--node1-QUQFOY_clean_sbu_1--edge1-MIFKUJ_clean_linker_0
_symmetry_space_group_name_H-M    P1
_symmetry_Int_Tables_number       1
_symmetry_cell_setting            triclinic
loop_
_symmetry_equiv_pos_as_xyz
'x, y, z'
_cell_length_a     56.943699
_cell_length_b     56.876858
_cell_length_c     56.815046
_cell_angle_alpha  93.416231
_cell_angle_beta   89.490414
_cell_angle_gamma 96.773255
loop_
_atom_site_label
_atom_site_type_symbol
_atom_site_fract_x
_atom_site_fract_y
_atom_site_fract_z
_atom_type_partial_charge
O0 O 0.02405 0.24146 0.51897 0.0
Cd1 Cd 0.05369 0.26447 0.51191 0.0
Cd2 Cd 0.02624 0.29735 0.5359 0.0
O3 O 0.00248 0.26713 0.5367 0.0
O4 O 0.07694 0.24351 0.49939 0.0
O5 O 0.08225 0.26542 0.53284 0.0
C6 C 0.08985 0.25031 0.51759 0.0
C7 C 0.02765 0.32339 0.5694 0.0
C8 C 0.00502 0.24611 0.52911 0.0
C9 C 0.04317 0.30681 0.48626 0.0
O10 O 0.03229 0.31348 0.50461 0.0
O11 O 0.05267 0.28768 0.48554 0.0
O12 O 0.01021 0.32127 0.55487 0.0
O13 O 0.04446 0.31035 0.56512 0.0
O14 O 0.74448 0.03122 0.57378 0.0
Cd15 Cd 0.76358 0.03959 0.54385 0.0
Cd16 Cd 0.794 0.01028 0.56405 0.0
O17 O 0.76885 0.00969 0.59039 0.0
O18 O 0.7421 0.05664 0.52544 0.0
O19 O 0.75395 0.02248 0.51268 0.0
C20 C 0.74181 0.03977 0.50925 0.0
C21 C 0.80866 0.97468 0.55296 0.0
C22 C 0.7497 0.01912 0.59067 0.0
C23 C 0.81413 0.06007 0.55363 0.0
O24 O 0.81777 0.04017 0.56097 0.0
O25 O 0.79378 0.06342 0.54651 0.0
O26 O 0.81456 0.9863 0.57258 0.0
O27 O 0.79383 0.98307 0.53959 0.0
O28 O 0.03405 0.8197 0.51271 0.0
Cd29 Cd 0.00585 0.79421 0.50587 0.0
Cd30 Cd 0.03011 0.76947 0.53877 0.0
O31 O 0.05231 0.80084 0.53858 0.0
O32 O 0.98315 0.81074 0.48855 0.0
O33 O 0.97548 0.79677 0.52367 0.0
C34 C 0.96889 0.80794 0.50617 0.0
C35 C 0.0253 0.75223 0.57506 0.0
C36 C 0.05104 0.81899 0.52687 0.0
C37 C 0.02023 0.74669 0.48965 0.0
O38 O 0.02878 0.74545 0.51005 0.0
O39 O 0.01056 0.7647 0.48443 0.0
O40 O 0.04479 0.75256 0.56338 0.0
O41 O 0.0083 0.76204 0.56625 0.0
O42 O 0.242 0.02588 0.56337 0.0
Cd43 Cd 0.26769 0.05489 0.5661 0.0
Cd44 Cd 0.29163 0.02639 0.53645 0.0
O45 O 0.25963 0.00576 0.53544 0.0
O46 O 0.25139 0.08202 0.57851 0.0
O47 O 0.26681 0.07973 0.54261 0.0
C48 C 0.25529 0.0911 0.55838 0.0
C49 C 0.31332 0.02977 0.50159 0.0
C50 C 0.24191 0.00807 0.54872 0.0
C51 C 0.31231 0.04046 0.58441 0.0
O52 O 0.31224 0.02677 0.56594 0.0
O53 O 0.2967 0.05455 0.5875 0.0
O54 O 0.31075 0.01041 0.51246 0.0
O55 O 0.3028 0.04731 0.51016 0.0
O56 O 0.51478 0.02001 0.25069 0.0
Cd57 Cd 0.51131 0.0496 0.27275 0.0
Cd58 Cd 0.53657 0.02341 0.30327 0.0
O59 O 0.53754 0.00178 0.273 0.0
O60 O 0.49778 0.07087 0.25138 0.0
O61 O 0.53276 0.07987 0.26826 0.0
C62 C 0.51675 0.08545 0.25433 0.0
C63 C 0.57119 0.02966 0.32556 0.0
C64 C 0.52688 0.00303 0.25367 0.0
C65 C 0.48826 0.03565 0.31863 0.0
O66 O 0.50549 0.024 0.32222 0.0
O67 O 0.48779 0.04757 0.30047 0.0
O68 O 0.55801 0.00961 0.32466 0.0
O69 O 0.56478 0.04644 0.31361 0.0
O70 O 0.9965 0.52894 0.32524 0.0
Cd71 Cd 0.99035 0.49936 0.30261 0.0
Cd72 Cd 0.01765 0.52496 0.27267 0.0
O73 O 0.01759 0.5506 0.29991 0.0
O74 O 0.98179 0.47186 0.32201 0.0
O75 O 0.01465 0.47657 0.30068 0.0
C76 C 0.0014 0.46431 0.31522 0.0
C77 C 0.05369 0.52165 0.25371 0.0
C78 C 0.00811 0.54842 0.32012 0.0
C79 C 0.96794 0.50713 0.25729 0.0
O80 O 0.98803 0.51756 0.25187 0.0
O81 O 0.96454 0.49868 0.27737 0.0
O82 O 0.04173 0.53906 0.25056 0.0
O83 O 0.04522 0.50592 0.26797 0.0
O84 O 0.50027 0.02694 0.82399 0.0
Cd85 Cd 0.5024 0.00042 0.79791 0.0
Cd86 Cd 0.53615 0.0305 0.7819 0.0
O87 O 0.53454 0.04655 0.81515 0.0
O88 O 0.48751 0.97083 0.81126 0.0
O89 O 0.52546 0.97691 0.80163 0.0
C90 C 0.50809 0.96343 0.81036 0.0
C91 C 0.57255 0.02289 0.76651 0.0
C92 C 0.5168 0.04351 0.82876 0.0
C93 C 0.49221 0.02104 0.75324 0.0
O94 O 0.51052 0.0356 0.75779 0.0
O95 O 0.48676 0.00369 0.76608 0.0
O96 O 0.56689 0.04419 0.76892 0.0
O97 O 0.55759 0.00572 0.77322 0.0
O98 O 0.01129 0.51973 0.75441 0.0
Cd99 Cd 0.00868 0.55086 0.77447 0.0
Cd100 Cd 0.03387 0.52398 0.80753 0.0
O101 O 0.03286 0.50128 0.77786 0.0
O102 O 0.99205 0.56952 0.75277 0.0
O103 O 0.02841 0.5809 0.76538 0.0
C104 C 0.0106 0.58481 0.75288 0.0
C105 C 0.06856 0.52716 0.82981 0.0
C106 C 0.02235 0.50222 0.75838 0.0
C107 C 0.98695 0.54044 0.82239 0.0
O108 O 0.00334 0.5279 0.82652 0.0
O109 O 0.98682 0.55127 0.8035 0.0
O110 O 0.05338 0.50849 0.82954 0.0
O111 O 0.06412 0.54431 0.81725 0.0
O112 O 0.31636 0.53627 0.06705 0.0
Cd113 Cd 0.29165 0.50688 0.06986 0.0
Cd114 Cd 0.26324 0.53595 0.04588 0.0
O115 O 0.29426 0.5584 0.04818 0.0
O116 O 0.31027 0.48263 0.0817 0.0
O117 O 0.293 0.47877 0.04676 0.0
C118 C 0.30589 0.47038 0.06211 0.0
C119 C 0.24256 0.53467 0.01039 0.0
C120 C 0.31381 0.55543 0.05748 0.0
C121 C 0.24637 0.51913 0.09321 0.0
O122 O 0.24307 0.5314 0.07582 0.0
O123 O 0.26433 0.50789 0.09391 0.0
O124 O 0.24375 0.55286 0.02512 0.0
O125 O 0.2532 0.51688 0.01577 0.0
O126 O 0.53172 0.31287 0.01282 0.0
Cd127 Cd 0.50338 0.28672 0.01564 0.0
Cd128 Cd 0.53772 0.26684 0.04156 0.0
O129 O 0.55772 0.29788 0.03445 0.0
O130 O 0.47682 0.30061 0.00136 0.0
O131 O 0.47772 0.29304 0.03904 0.0
C132 C 0.46701 0.30117 0.02186 0.0
C133 C 0.53922 0.2532 0.07936 0.0
C134 C 0.55213 0.31419 0.02204 0.0
C135 C 0.51688 0.23854 -0.00098 0.0
O136 O 0.5326 0.24088 0.01494 0.0
O137 O 0.50297 0.25423 0.99708 0.0
O138 O 0.55673 0.25265 0.06491 0.0
O139 O 0.52077 0.26214 0.07252 0.0
O140 O 0.72794 0.52911 0.0507 0.0
Cd141 Cd 0.7531 0.55552 0.06375 0.0
Cd142 Cd 0.7824 0.53234 0.03281 0.0
O143 O 0.75135 0.51035 0.02696 0.0
O144 O 0.73457 0.57974 0.07875 0.0
O145 O 0.75833 0.58656 0.04822 0.0
C146 C 0.74336 0.59402 0.06331 0.0
C147 C 0.80744 0.53742 0.00022 0.0
C148 C 0.73106 0.51218 0.03585 0.0
C149 C 0.79468 0.53769 0.08496 0.0
O150 O 0.79999 0.53107 0.06406 0.0
O151 O 0.77614 0.54768 0.08908 0.0
O152 O 0.80425 0.51776 0.01051 0.0
O153 O 0.79599 0.5545 0.00825 0.0
O154 O 0.51942 0.74153 0.02276 0.0
Cd155 Cd 0.54765 0.76527 0.01287 0.0
Cd156 Cd 0.5182 0.79681 0.03247 0.0
O157 O 0.49596 0.7666 0.03815 0.0
O158 O 0.57099 0.74352 0.00263 0.0
O159 O 0.57751 0.77025 0.03241 0.0
C160 C 0.58467 0.75314 0.01933 0.0
C161 C 0.52437 0.82535 0.06361 0.0
C162 C 0.5001 0.74552 0.03272 0.0
C163 C 0.53216 0.80146 0.98166 0.0
O164 O 0.52009 0.8086 -0.00103 0.0
O165 O 0.54476 0.7847 0.98367 0.0
O166 O 0.50502 0.82249 0.05164 0.0
O167 O 0.54044 0.81176 0.05793 0.0
H168 H 0.02933 0.35083 0.48354 0.0
H169 H 0.0289 0.37395 0.44885 0.0
H170 H 0.05908 0.31916 0.40709 0.0
H171 H 0.05949 0.29567 0.44186 0.0
H172 H 0.06343 0.3924 0.41933 0.0
H173 H 0.03176 0.31694 0.35191 0.0
H174 H 0.0112 0.27616 0.35041 0.0
H175 H 0.97383 0.29244 0.41418 0.0
H176 H 0.99395 0.33336 0.41587 0.0
H177 H 0.04568 0.44994 0.31442 0.0
H178 H 0.05907 0.41843 0.3368 0.0
H179 H 0.98774 0.3998 0.36126 0.0
H180 H 0.9743 0.43102 0.33905 0.0
H181 H 0.01111 0.3604 0.35266 0.0
H182 H 0.02409 0.43905 0.39323 0.0
H183 H 0.04128 0.481 0.39682 0.0
H184 H 0.11114 0.45994 0.39029 0.0
H185 H 0.0943 0.41785 0.38636 0.0
C186 C 0.03602 0.34369 0.46705 0.0
C187 C 0.04428 0.32132 0.46543 0.0
C188 C 0.0359 0.35702 0.44726 0.0
C189 C 0.04388 0.34822 0.42542 0.0
C190 C 0.05273 0.32617 0.42379 0.0
C191 C 0.05296 0.31282 0.44367 0.0
C192 C 0.04154 0.36179 0.40432 0.0
C193 C 0.05234 0.38528 0.40454 0.0
C194 C 0.027 0.35251 0.38509 0.0
C195 C 0.01459 0.32807 0.38416 0.0
C196 C 0.01913 0.3118 0.36557 0.0
C197 C 0.00755 0.28867 0.36469 0.0
C198 C 0.9913 0.28168 0.38224 0.0
C199 C 0.9865 0.29784 0.40066 0.0
C200 C 0.99801 0.32099 0.4016 0.0
C201 C 0.0328 0.43875 0.32414 0.0
C202 C 0.009 0.44312 0.32527 0.0
C203 C 0.04047 0.42081 0.33691 0.0
C204 C 0.02441 0.40697 0.35083 0.0
C205 C 0.0004 0.41025 0.35059 0.0
C206 C 0.99278 0.42822 0.33802 0.0
C207 C 0.03264 0.39112 0.36792 0.0
C208 C 0.02292 0.36724 0.36699 0.0
C209 C 0.04785 0.40014 0.38673 0.0
C210 C 0.05795 0.42538 0.3892 0.0
C211 C 0.04311 0.44339 0.39239 0.0
C212 C 0.05278 0.46718 0.39451 0.0
C213 C 0.07728 0.47314 0.3937 0.0
C214 C 0.09217 0.45531 0.39085 0.0
C215 C 0.08257 0.43149 0.38867 0.0
H216 H 0.08474 0.49156 0.39535 0.0
H217 H 0.98237 0.26377 0.38154 0.0
H218 H 0.72212 0.07736 0.49382 0.0
H219 H 0.69675 0.07816 0.45961 0.0
H220 H 0.70328 0.00436 0.44199 0.0
H221 H 0.72941 0.00364 0.47595 0.0
H222 H 0.7043 0.02805 0.40305 0.0
H223 H 0.65431 0.0219 0.47125 0.0
H224 H 0.64025 0.03311 0.51107 0.0
H225 H 0.62739 0.10105 0.4882 0.0
H226 H 0.64169 0.09036 0.4483 0.0
H227 H 0.5959 0.9956 0.34106 0.0
H228 H 0.62896 0.00068 0.36873 0.0
H229 H 0.62734 0.07642 0.37227 0.0
H230 H 0.59437 0.0715 0.34411 0.0
H231 H 0.62513 0.05463 0.41686 0.0
H232 H 0.67222 0.05775 0.34674 0.0
H233 H 0.68478 0.04422 0.30708 0.0
H234 H 0.70117 0.97904 0.33383 0.0
H235 H 0.68837 0.99203 0.37361 0.0
C236 C 0.71828 0.0613 0.48261 0.0
C237 C 0.72756 0.04034 0.48771 0.0
C238 C 0.70371 0.06178 0.46308 0.0
C239 C 0.69771 0.0412 0.44849 0.0
C240 C 0.7076 0.02044 0.45306 0.0
C241 C 0.72246 0.02002 0.47249 0.0
C242 C 0.6805 0.04119 0.42901 0.0
C243 C 0.68691 0.03365 0.40611 0.0
C244 C 0.65795 0.04895 0.4329 0.0
C245 C 0.64932 0.05542 0.45687 0.0
C246 C 0.64866 0.0393 0.47476 0.0
C247 C 0.64062 0.04555 0.49734 0.0
C248 C 0.633 0.06781 0.50218 0.0
C249 C 0.63334 0.08384 0.48443 0.0
C250 C 0.6414 0.07769 0.46184 0.0
C251 C 0.60277 0.01338 0.34748 0.0
C252 C 0.59253 0.03317 0.34051 0.0
C253 C 0.62172 0.01624 0.36319 0.0
C254 C 0.63059 0.03891 0.37244 0.0
C255 C 0.62074 0.05879 0.36521 0.0
C256 C 0.602 0.05596 0.34911 0.0
C257 C 0.64892 0.04144 0.39101 0.0
C258 C 0.64264 0.04932 0.41378 0.0
C259 C 0.67139 0.03368 0.38704 0.0
C260 C 0.67913 0.02579 0.36313 0.0
C261 C 0.67829 0.04044 0.34413 0.0
C262 C 0.6855 0.03289 0.32163 0.0
C263 C 0.69372 0.01076 0.31792 0.0
C264 C 0.69478 0.99617 0.33672 0.0
C265 C 0.68758 0.00363 0.35926 0.0
H266 H 0.6993 0.00495 0.30049 0.0
H267 H 0.62677 0.07261 0.51966 0.0
H268 H 0.01827 0.59528 0.31199 0.0
H269 H 0.02164 0.62892 0.341 0.0
H270 H 0.00788 0.58098 0.39698 0.0
H271 H 0.00338 0.54734 0.36788 0.0
H272 H 0.98438 0.61598 0.40534 0.0
H273 H 0.06489 0.60998 0.38454 0.0
H274 H 0.09917 0.60722 0.35812 0.0
H275 H 0.09084 0.67532 0.33261 0.0
H276 H 0.0563 0.67835 0.35867 0.0
H277 H 0.0261 0.70095 0.49771 0.0
H278 H 0.02538 0.66731 0.46869 0.0
H279 H 0.01565 0.71336 0.41287 0.0
H280 H 0.01588 0.74711 0.44182 0.0
H281 H 0.05201 0.67958 0.40536 0.0
H282 H 0.96991 0.68341 0.42735 0.0
H283 H 0.9373 0.68512 0.45602 0.0
H284 H 0.9516 0.61897 0.48219 0.0
H285 H 0.98454 0.61705 0.45388 0.0
C286 C 0.01603 0.59192 0.3305 0.0
C287 C 0.01061 0.5687 0.3377 0.0
C288 C 0.01811 0.61116 0.34708 0.0
C289 C 0.01545 0.60749 0.37124 0.0
C290 C 0.01003 0.58427 0.37845 0.0
C291 C 0.00749 0.56506 0.36182 0.0
C292 C 0.01764 0.6279 0.38894 0.0
C293 C -0.00062 0.62965 0.4055 0.0
C294 C 0.03704 0.646 0.38904 0.0
C295 C 0.05786 0.64429 0.37341 0.0
C296 C 0.07026 0.6243 0.37318 0.0
C297 C 0.08975 0.62269 0.35829 0.0
C298 C 0.09714 0.64106 0.34366 0.0
C299 C 0.08508 0.66109 0.34394 0.0
C300 C 0.06556 0.66277 0.35878 0.0
C301 C 0.02396 0.70397 0.47925 0.0
C302 C 0.02096 0.72664 0.47203 0.0
C303 C 0.02352 0.68474 0.46274 0.0
C304 C 0.02041 0.68796 0.43875 0.0
C305 C 0.01809 0.71064 0.43136 0.0
C306 C 0.01811 0.72982 0.44791 0.0
C307 C 0.01881 0.66744 0.42147 0.0
C308 C 0.03714 0.66575 0.40508 0.0
C309 C -0.00025 0.64917 0.42179 0.0
C310 C 0.97984 0.65022 0.43868 0.0
C311 C 0.96624 0.66934 0.43937 0.0
C312 C 0.94767 0.67033 0.45552 0.0
C313 C 0.94242 0.6522 0.47097 0.0
C314 C 0.9557 0.63302 0.47024 0.0
C315 C 0.97431 0.63196 0.45413 0.0
H316 H 0.92804 0.653 0.48346 0.0
H317 H 0.11224 0.63978 0.33214 0.0
H318 H 0.34191 0.99781 0.48431 0.0
H319 H 0.37024 0.00207 0.45204 0.0
H320 H 0.34894 0.07046 0.43929 0.0
H321 H 0.32045 0.06649 0.47201 0.0
H322 H 0.35463 0.03836 0.39727 0.0
H323 H 0.39665 0.0727 0.46618 0.0
H324 H 0.41029 0.0741 0.50737 0.0
H325 H 0.44488 0.01181 0.4921 0.0
H326 H 0.43113 0.00982 0.45088 0.0
H327 H 0.45408 0.06568 0.32214 0.0
H328 H 0.42315 0.06717 0.35206 0.0
H329 H 0.44727 0.0075 0.38423 0.0
H330 H 0.47872 0.00641 0.35484 0.0
H331 H 0.4396 0.03976 0.41674 0.0
H332 H 0.39586 0.00296 0.34947 0.0
H333 H 0.38157 -0.0004 0.30842 0.0
H334 H 0.34962 0.064 0.32039 0.0
H335 H 0.36399 0.0679 0.36145 0.0
C336 C 0.34303 0.01372 0.47458 0.0
C337 C 0.329 0.03189 0.48078 0.0
C338 C 0.35929 0.01612 0.45618 0.0
C339 C 0.36177 0.03665 0.44351 0.0
C340 C 0.34725 0.05451 0.44898 0.0
C341 C 0.33106 0.05223 0.46765 0.0
C342 C 0.38019 0.03944 0.42508 0.0
C343 C 0.37327 0.03914 0.40145 0.0
C344 C 0.40438 0.03987 0.43068 0.0
C345 C 0.41271 0.04102 0.45547 0.0
C346 C 0.40699 0.05918 0.47165 0.0
C347 C 0.41477 0.0601 0.49499 0.0
C348 C 0.42842 0.04305 0.50234 0.0
C349 C 0.4343 0.02501 0.48637 0.0
C350 C 0.42654 0.02399 0.46301 0.0
C351 C 0.45272 0.05278 0.33551 0.0
C352 C 0.46885 0.0359 0.3361 0.0
C353 C 0.43496 0.05361 0.35256 0.0
C354 C 0.4327 0.03728 0.37026 0.0
C355 C 0.44868 0.02031 0.37077 0.0
C356 C 0.46663 0.01966 0.35392 0.0
C357 C 0.41411 0.03818 0.38868 0.0
C358 C 0.42101 0.03922 0.41241 0.0
C359 C 0.3899 0.03819 0.38311 0.0
C360 C 0.38123 0.03586 0.35845 0.0
C361 C 0.38595 0.01651 0.34329 0.0
C362 C 0.37781 0.01449 0.32004 0.0
C363 C 0.36476 0.03161 0.31179 0.0
C364 C 0.35977 0.05077 0.3268 0.0
C365 C 0.36789 0.05288 0.35006 0.0
H366 H 0.35846 0.03001 0.29378 0.0
H367 H 0.43453 0.04386 0.52038 0.0
H368 H 0.04925 0.61495 0.74033 0.0
H369 H 0.05005 0.64745 0.7138 0.0
H370 H 0.9741 0.63467 0.70718 0.0
H371 H 0.9733 0.60183 0.73296 0.0
H372 H 0.99256 0.63816 0.66584 0.0
H373 H 0.003 0.68466 0.73864 0.0
H374 H 0.02109 0.6981 0.77712 0.0
H375 H 0.08739 0.71842 0.74308 0.0
H376 H 0.06979 0.7048 0.70441 0.0
H377 H 0.9843 0.73822 0.59865 0.0
H378 H 0.97998 0.71383 0.63298 0.0
H379 H 0.05568 0.71408 0.63573 0.0
H380 H 0.06013 0.73828 0.60154 0.0
H381 H 0.03495 0.71898 0.6805 0.0
H382 H 0.02455 0.66892 0.60842 0.0
H383 H 0.00601 0.65581 0.57006 0.0
H384 H 0.93836 0.6427 0.60384 0.0
H385 H 0.95647 0.65606 0.64239 0.0
C386 C 0.03273 0.61927 0.7334 0.0
C387 C 0.01124 0.60577 0.73861 0.0
C388 C 0.03317 0.63792 0.71834 0.0
C389 C 0.01209 0.64366 0.7086 0.0
C390 C 0.99059 0.63057 0.71438 0.0
C391 C 0.99017 0.61179 0.72915 0.0
C392 C 0.01248 0.66218 0.69118 0.0
C393 C 0.00144 0.65596 0.66931 0.0
C394 C 0.02446 0.6853 0.69541 0.0
C395 C 0.03512 0.69351 0.71864 0.0
C396 C 0.02149 0.69182 0.73937 0.0
C397 C 0.03165 0.6995 0.76122 0.0
C398 C 0.05539 0.70905 0.76255 0.0
C399 C 0.06901 0.71099 0.74203 0.0
C400 C 0.05894 0.70332 0.72014 0.0
C401 C 2e-05 0.73338 0.60681 0.0
C402 C 0.02253 0.73996 0.59729 0.0
C403 C 0.99753 0.71943 0.62636 0.0
C404 C 0.01752 0.71202 0.63672 0.0
C405 C 0.04005 0.71963 0.62799 0.0
C406 C 0.04253 0.73334 0.60837 0.0
C407 C 0.01502 0.69484 0.65541 0.0
C408 C 0.02578 0.70125 0.67735 0.0
C409 C 0.00267 0.67191 0.65136 0.0
C410 C 0.99181 0.66375 0.62822 0.0
C411 C 0.00569 0.66343 0.60764 0.0
C412 C 0.99526 0.65592 0.58587 0.0
C413 C 0.97101 0.6485 0.5845 0.0
C414 C 0.95714 0.6485 0.60492 0.0
C415 C 0.96747 0.65603 0.62673 0.0
H416 H 0.96297 0.64269 0.56763 0.0
H417 H 0.06322 0.715 0.77948 0.0
H418 H 0.48596 0.06283 0.73431 0.0
H419 H 0.45725 0.0691 0.704 0.0
H420 H 0.43498 0.99389 0.6974 0.0
H421 H 0.46306 0.98752 0.72813 0.0
H422 H 0.44473 0.02214 0.65221 0.0
H423 H 0.40153 0.01809 0.72741 0.0
H424 H 0.39592 0.03122 0.76903 0.0
H425 H 0.39346 0.10256 0.74917 0.0
H426 H 0.39942 0.08988 0.70744 0.0
H427 H 0.33708 0.00384 0.59266 0.0
H428 H 0.36945 0.00361 0.62037 0.0
H429 H 0.36335 0.07657 0.64263 0.0
H430 H 0.32998 0.07644 0.61567 0.0
H431 H 0.37105 0.0544 0.67897 0.0
H432 H 0.40843 0.05975 0.60427 0.0
H433 H 0.41543 0.04942 0.56225 0.0
H434 H 0.4318 0.98066 0.57937 0.0
H435 H 0.4245 0.99042 0.62148 0.0
C436 C 0.47511 0.04763 0.7262 0.0
C437 C 0.4766 0.02471 0.73359 0.0
C438 C 0.45876 0.05125 0.70897 0.0
C439 C 0.44412 0.03193 0.69862 0.0
C440 C 0.44624 0.00895 0.70524 0.0
C441 C 0.46217 0.00538 0.72282 0.0
C442 C 0.42558 0.0357 0.6818 0.0
C443 C 0.42852 0.02906 0.65794 0.0
C444 C 0.40498 0.04556 0.68936 0.0
C445 C 0.40123 0.05311 0.71439 0.0
C446 C 0.40004 0.03662 0.73196 0.0
C447 C 0.39674 0.04396 0.75555 0.0
C448 C 0.39442 0.06773 0.76175 0.0
C449 C 0.39531 0.08418 0.74435 0.0
C450 C 0.39864 0.07692 0.72073 0.0
C451 C 0.34259 0.01981 0.60352 0.0
C452 C 0.33115 0.04021 0.60195 0.0
C453 C 0.36123 0.01973 0.61922 0.0
C454 C 0.36931 0.04028 0.63313 0.0
C455 C 0.35754 0.06055 0.63196 0.0
C456 C 0.33849 0.06047 0.61659 0.0
C457 C 0.38976 0.04033 0.64912 0.0
C458 C 0.38729 0.04775 0.67294 0.0
C459 C 0.41105 0.03166 0.64136 0.0
C460 C 0.41574 0.02577 0.61605 0.0
C461 C 0.41338 0.04237 0.59907 0.0
C462 C 0.41742 0.03662 0.57523 0.0
C463 C 0.42402 0.01438 0.56813 0.0
C464 C 0.42667 0.99788 0.58489 0.0
C465 C 0.42261 0.00352 0.60875 0.0
H466 H 0.42711 0.00993 0.54967 0.0
H467 H 0.39186 0.07338 0.78003 0.0
H468 H 0.05904 0.32953 0.60634 0.0
H469 H 0.0599 0.35912 0.63972 0.0
H470 H -0.00128 0.38594 0.61189 0.0
H471 H 0.99766 0.3566 0.57875 0.0
H472 H 0.03473 0.42138 0.62455 0.0
H473 H 0.99233 0.35202 0.65728 0.0
H474 H 0.98714 0.31043 0.66825 0.0
H475 H 0.04851 0.32399 0.71258 0.0
H476 H 0.05425 0.36562 0.7016 0.0
H477 H 0.99629 0.49401 0.71789 0.0
H478 H -0.0011 0.46277 0.68695 0.0
H479 H 0.05392 0.4359 0.72559 0.0
H480 H 0.0509 0.46668 0.757 0.0
H481 H 0.02465 0.40034 0.70783 0.0
H482 H 0.06652 0.46973 0.67719 0.0
H483 H 0.07267 0.51135 0.66636 0.0
H484 H 0.01445 0.49799 0.618 0.0
H485 H 0.00774 0.45634 0.62878 0.0
C486 C 0.04576 0.3417 0.6074 0.0
C487 C 0.02829 0.34072 0.58992 0.0
C488 C 0.04623 0.35853 0.62648 0.0
C489 C 0.02933 0.37465 0.62825 0.0
C490 C 0.01194 0.37368 0.61081 0.0
C491 C 0.01134 0.35682 0.59192 0.0
C492 C 0.02973 0.39287 0.64803 0.0
C493 C 0.03234 0.41681 0.64275 0.0
C494 C 0.02732 0.38685 0.67179 0.0
C495 C 0.02388 0.36185 0.67839 0.0
C496 C 0.00485 0.34608 0.66919 0.0
C497 C 0.00178 0.32251 0.67545 0.0
C498 C 0.01753 0.31455 0.69104 0.0
C499 C 0.03635 0.33017 0.70046 0.0
C500 C 0.03951 0.35375 0.69424 0.0
C501 C 0.00893 0.48144 0.71984 0.0
C502 C 0.02348 0.48293 0.73986 0.0
C503 C 0.01048 0.46364 0.70207 0.0
C504 C 0.02694 0.44724 0.70372 0.0
C505 C 0.04116 0.4484 0.72389 0.0
C506 C 0.03943 0.46604 0.74181 0.0
C507 C 0.02928 0.42895 0.68435 0.0
C508 C 0.02725 0.40499 0.68967 0.0
C509 C 0.03244 0.43495 0.66059 0.0
C510 C 0.03651 0.45996 0.65394 0.0
C511 C 0.05493 0.4757 0.66436 0.0
C512 C 0.05853 0.49929 0.65821 0.0
C513 C 0.04393 0.50732 0.64154 0.0
C514 C 0.02573 0.49175 0.63093 0.0
C515 C 0.02204 0.46814 0.63703 0.0
H516 H 0.04674 0.5256 0.63681 0.0
H517 H 0.01512 0.2963 0.69587 0.0
H518 H 0.5809 0.98487 0.73757 0.0
H519 H 0.61557 0.98149 0.71246 0.0
H520 H 0.64952 0.0473 0.74485 0.0
H521 H 0.61421 0.0514 0.76875 0.0
H522 H 0.65234 0.05056 0.70179 0.0
H523 H 0.66976 0.99011 0.75063 0.0
H524 H 0.66245 0.95379 0.77252 0.0
H525 H 0.64697 0.9123 0.70772 0.0
H526 H 0.65386 0.9484 0.68545 0.0
H527 H 0.75873 0.00369 0.63411 0.0
H528 H 0.73236 0.00192 0.66843 0.0
H529 H 0.67742 0.02569 0.62716 0.0
H530 H 0.70378 0.0282 0.59314 0.0
H531 H 0.69078 0.97869 0.67904 0.0
H532 H 0.648 0.06325 0.65865 0.0
H533 H 0.6591 0.10107 0.64001 0.0
H534 H 0.73226 0.09719 0.65505 0.0
H535 H 0.72158 0.05954 0.67407 0.0
C536 C 0.596 0.99831 0.73963 0.0
C537 C 0.59492 0.01848 0.75489 0.0
C538 C 0.6159 0.99632 0.72538 0.0
C539 C 0.63531 0.01411 0.72675 0.0
C540 C 0.63474 0.03344 0.74326 0.0
C541 C 0.61462 0.03576 0.75697 0.0
C542 C 0.6548 0.01413 0.70915 0.0
C543 C 0.66085 0.03484 0.69707 0.0
C544 C 0.6663 0.99382 0.70308 0.0
C545 C 0.66218 0.97202 0.71639 0.0
C546 C 0.66464 0.97327 0.74106 0.0
C547 C 0.66059 0.95271 0.75353 0.0
C548 C 0.65421 0.93076 0.74152 0.0
C549 C 0.65191 0.92932 0.717 0.0
C550 C 0.65592 0.94982 0.70444 0.0
C551 C 0.74099 0.00845 0.63235 0.0
C552 C 0.73344 0.01641 0.61101 0.0
C553 C 0.72594 0.00735 0.65194 0.0
C554 C 0.70309 0.01408 0.65046 0.0
C555 C 0.69518 0.02094 0.62886 0.0
C556 C 0.71026 0.02233 0.6094 0.0
C557 C 0.6877 0.01489 0.6716 0.0
C558 C 0.68241 0.9944 0.68416 0.0
C559 C 0.67743 0.03563 0.67874 0.0
C560 C 0.68398 0.05847 0.66762 0.0
C561 C 0.66644 0.07053 0.65809 0.0
C562 C 0.67266 0.09193 0.64743 0.0
C563 C 0.69637 0.10149 0.64629 0.0
C564 C 0.71391 0.08973 0.65587 0.0
C565 C 0.70778 0.06835 0.66657 0.0
H566 H 0.70116 0.11804 0.63801 0.0
H567 H 0.65108 0.91487 0.75121 0.0
H568 H 0.4475 0.31588 0.06362 0.0
H569 H 0.41397 0.33893 0.06882 0.0
H570 H 0.40297 0.33406 0.99353 0.0
H571 H 0.43683 0.31167 0.98821 0.0
H572 H 0.40454 0.37781 0.00916 0.0
H573 H 0.36294 0.3052 0.03248 0.0
H574 H 0.35583 0.26894 0.05447 0.0
H575 H 0.35609 0.31113 0.11972 0.0
H576 H 0.36352 0.34766 0.09816 0.0
H577 H 0.30625 0.44351 0.0204 0.0
H578 H 0.32747 0.40887 0.0119 0.0
H579 H 0.35056 0.41238 0.08425 0.0
H580 H 0.32937 0.44672 0.09291 0.0
H581 H 0.33894 0.36633 0.06691 0.0
H582 H 0.38584 0.43801 0.04347 0.0
H583 H 0.39332 0.47431 0.02156 0.0
H584 H 0.38294 0.43284 0.95602 0.0
H585 H 0.37509 0.39631 0.97759 0.0
C586 C 0.43766 0.31937 0.04823 0.0
C587 C 0.44489 0.31213 0.02551 0.0
C588 C 0.41842 0.33246 0.05122 0.0
C589 C 0.40584 0.33815 0.03156 0.0
C590 C 0.41243 0.32997 0.00895 0.0
C591 C 0.43179 0.31714 0.00595 0.0
C592 C 0.38736 0.3545 0.03432 0.0
C593 C 0.38989 0.37495 0.02141 0.0
C594 C 0.3685 0.35111 0.05064 0.0
C595 C 0.36397 0.32918 0.06369 0.0
C596 C 0.36166 0.30675 0.05153 0.0
C597 C 0.35754 0.28614 0.06392 0.0
C598 C 0.35556 0.28773 0.08848 0.0
C599 C 0.35764 0.30993 0.1007 0.0
C600 C 0.36177 0.33059 0.0884 0.0
C601 C 0.31556 0.43667 0.03455 0.0
C602 C 0.31636 0.448 0.05725 0.0
C603 C 0.32769 0.41692 0.02967 0.0
C604 C 0.34078 0.40823 0.04741 0.0
C605 C 0.34056 0.41878 0.07033 0.0
C606 C 0.32855 0.43852 0.07519 0.0
C607 C 0.35634 0.38951 0.04187 0.0
C608 C 0.35334 0.36878 0.05433 0.0
C609 C 0.37479 0.39256 0.0251 0.0
C610 C 0.3796 0.41449 0.01214 0.0
C611 C 0.38497 0.43667 0.02439 0.0
C612 C 0.38931 0.45727 0.01204 0.0
C613 C 0.38853 0.45589 0.98741 0.0
C614 C 0.38348 0.43389 0.97509 0.0
C615 C 0.37909 0.41323 0.98737 0.0
H616 H 0.39189 0.47187 0.97788 0.0
H617 H 0.35237 0.27175 0.09803 0.0
H618 H 0.36101 0.55184 0.06243 0.0
H619 H 0.39388 0.58338 0.05959 0.0
H620 H 0.34434 0.63375 0.04929 0.0
H621 H 0.31159 0.60217 0.05109 0.0
H622 H 0.37788 0.64044 0.01949 0.0
H623 H 0.37533 0.6307 0.10283 0.0
H624 H 0.37538 0.60891 0.13908 0.0
H625 H 0.44419 0.5892 0.12152 0.0
H626 H 0.44442 0.61062 0.085 0.0
H627 H 0.4534 0.74723 0.04301 0.0
H628 H 0.42307 0.71386 0.04868 0.0
H629 H 0.47543 0.6652 0.03902 0.0
H630 H 0.50594 0.69847 0.033 0.0
H631 H 0.44229 0.65692 0.07855 0.0
H632 H 0.44383 0.66845 0.99502 0.0
H633 H 0.44304 0.69219 0.96017 0.0
H634 H 0.37442 0.71069 0.98035 0.0
H635 H 0.37497 0.68734 0.01554 0.0
C636 C 0.35716 0.56968 0.05968 0.0
C637 C 0.33374 0.57454 0.05694 0.0
C638 C 0.37595 0.58772 0.05818 0.0
C639 C 0.37161 0.61105 0.05449 0.0
C640 C 0.34818 0.61591 0.05207 0.0
C641 C 0.32945 0.59784 0.05314 0.0
C642 C 0.39138 0.63031 0.0523 0.0
C643 C 0.39175 0.64417 0.03262 0.0
C644 C 0.40986 0.63493 0.0691 0.0
C645 C 0.40977 0.62205 0.09106 0.0
C646 C 0.39039 0.62156 0.10661 0.0
C647 C 0.39039 0.60931 0.12722 0.0
C648 C 0.40975 0.59762 0.13257 0.0
C649 C 0.42919 0.59822 0.11734 0.0
C650 C 0.42927 0.61044 0.09669 0.0
C651 C 0.45853 0.72946 0.04225 0.0
C652 C 0.48204 0.72547 0.03742 0.0
C653 C 0.44118 0.71044 0.04546 0.0
C654 C 0.44708 0.68715 0.04415 0.0
C655 C 0.47062 0.6831 0.04009 0.0
C656 C 0.48795 0.7021 0.03655 0.0
C657 C 0.42839 0.66701 0.04604 0.0
C658 C 0.42833 0.65302 0.06554 0.0
C659 C 0.40999 0.66245 0.02929 0.0
C660 C 0.40955 0.67634 0.00803 0.0
C661 C 0.42866 0.67775 0.99214 0.0
C662 C 0.42825 0.6911 0.9723 0.0
C663 C 0.40872 0.70299 0.96808 0.0
C664 C 0.38955 0.7015 0.98366 0.0
C665 C 0.38989 0.68819 0.00354 0.0
H666 H 0.40843 0.71332 0.95271 0.0
H667 H 0.40971 0.58815 0.14854 0.0
H668 H 0.54356 0.35948 0.01481 0.0
H669 H 0.57272 0.39465 0.01353 0.0
H670 H 0.62904 0.35079 0.01987 0.0
H671 H 0.59995 0.31595 0.02243 0.0
H672 H 0.63699 0.38609 0.04873 0.0
H673 H 0.61566 0.37793 0.96697 0.0
H674 H 0.58889 0.37407 0.93272 0.0
H675 H 0.56571 0.44155 0.95296 0.0
H676 H 0.59214 0.44568 0.98752 0.0
H677 H 0.73368 0.46759 0.01642 0.0
H678 H 0.70129 0.4356 0.01032 0.0
H679 H 0.65132 0.48277 0.03526 0.0
H680 H 0.68371 0.51489 0.04195 0.0
H681 H 0.63941 0.44792 0.99042 0.0
H682 H 0.66162 0.45374 0.07353 0.0
H683 H 0.69089 0.45672 0.10562 0.0
H684 H 0.71496 0.39134 0.07932 0.0
H685 H 0.68605 0.38819 0.04684 0.0
C686 C 0.56219 0.35739 0.01567 0.0
C687 C 0.56954 0.33507 0.01885 0.0
C688 C 0.57886 0.37746 0.01481 0.0
C689 C 0.60315 0.3754 0.01643 0.0
C690 C 0.61043 0.3529 0.01875 0.0
C691 C 0.5938 0.33299 0.02016 0.0
C692 C 0.621 0.39669 0.01732 0.0
C693 C 0.63758 0.39937 0.03573 0.0
C694 C 0.62161 0.41443 0.00072 0.0
C695 C 0.60569 0.41199 0.97997 0.0
C696 C 0.60471 0.39185 0.96423 0.0
C697 C 0.58963 0.38964 0.94474 0.0
C698 C 0.57556 0.40752 0.94071 0.0
C699 C 0.57659 0.4277 0.95613 0.0
C700 C 0.59164 0.42999 0.97566 0.0
C701 C 0.71578 0.4713 0.0203 0.0
C702 C 0.71124 0.49369 0.02985 0.0
C703 C 0.69734 0.45302 0.01677 0.0
C704 C 0.67405 0.45695 0.02236 0.0
C705 C 0.66924 0.47955 0.03077 0.0
C706 C 0.68774 0.49777 0.03471 0.0
C707 C 0.6552 0.4368 0.02152 0.0
C708 C 0.63855 0.43448 0.00327 0.0
C709 C 0.65468 0.41913 0.03797 0.0
C710 C 0.67187 0.42087 0.05763 0.0
C711 C 0.67331 0.44012 0.07447 0.0
C712 C 0.6898 0.44182 0.09275 0.0
C713 C 0.70483 0.42427 0.09447 0.0
C714 C 0.70334 0.40494 0.07795 0.0
C715 C 0.68689 0.40318 0.05961 0.0
H716 H 0.71758 0.42561 0.10864 0.0
H717 H 0.5639 0.40578 0.92561 0.0
H718 H 0.70475 0.60922 0.08484 0.0
H719 H 0.68748 0.64541 0.0789 0.0
H720 H 0.74615 0.66906 0.03409 0.0
H721 H 0.76299 0.63189 0.03901 0.0
H722 H 0.69588 0.68998 0.08612 0.0
H723 H 0.72661 0.70026 0.99095 0.0
H724 H 0.74145 0.67685 0.95717 0.0
H725 H 0.70274 0.61342 0.98149 0.0
H726 H 0.68753 0.63651 0.01524 0.0
H727 H 0.62235 0.77366 0.04638 0.0
H728 H 0.65891 0.75646 0.05425 0.0
H729 H 0.63342 0.69389 0.01084 0.0
H730 H 0.59788 0.7113 0.00212 0.0
H731 H 0.67726 0.70282 0.00311 0.0
H732 H 0.6285 0.69949 0.07446 0.0
H733 H 0.60779 0.71713 0.10825 0.0
H734 H 0.67291 0.75722 0.13161 0.0
H735 H 0.69393 0.73996 0.0978 0.0
C736 C 0.71417 0.6222 0.07391 0.0
C737 C 0.73504 0.61754 0.06208 0.0
C738 C 0.70433 0.64304 0.07065 0.0
C739 C 0.71528 0.6599 0.05575 0.0
C740 C 0.73708 0.6561 0.04526 0.0
C741 C 0.74672 0.6349 0.04811 0.0
C742 C 0.70234 0.67994 0.04966 0.0
C743 C 0.69208 0.69303 0.06794 0.0
C744 C 0.69733 0.68406 0.02598 0.0
C745 C 0.70625 0.67004 0.00573 0.0
C746 C 0.72129 0.68132 0.98904 0.0
C747 C 0.72974 0.66811 0.96991 0.0
C748 C 0.72313 0.64365 0.96724 0.0
C749 C 0.70793 0.63235 0.98363 0.0
C750 C 0.6994 0.64548 0.00275 0.0
C751 C 0.62477 0.75634 0.03838 0.0
C752 C 0.60724 0.74379 0.02371 0.0
C753 C 0.64561 0.74651 0.04292 0.0
C754 C 0.64889 0.72375 0.03332 0.0
C755 C 0.63151 0.71154 0.01832 0.0
C756 C 0.61105 0.72149 0.01344 0.0
C757 C 0.6695 0.71159 0.03957 0.0
C758 C 0.68156 0.70031 0.02129 0.0
C759 C 0.6753 0.70832 0.06324 0.0
C760 C 0.66269 0.71872 0.08348 0.0
C761 C 0.63834 0.71219 0.08673 0.0
C762 C 0.62656 0.7221 0.10589 0.0
C763 C 0.63901 0.73836 0.12202 0.0
C764 C 0.66328 0.74469 0.11906 0.0
C765 C 0.67513 0.73485 0.09992 0.0
H766 H 0.62986 0.746 0.13684 0.0
H767 H 0.72971 0.63345 0.95244 0.0
H768 H 0.49859 0.82757 0.96701 0.0
H769 H 0.49783 0.84771 0.93033 0.0
H770 H 0.56334 0.82187 0.9086 0.0
H771 H 0.5641 0.80122 0.9453 0.0
H772 H 0.56172 0.87246 0.9063 0.0
H773 H 0.51849 0.79901 0.87935 0.0
H774 H 0.48815 0.76451 0.88165 0.0
H775 H 0.43344 0.81046 0.88291 0.0
H776 H 0.46346 0.84528 0.88097 0.0
H777 H 0.54759 0.94008 0.80745 0.0
H778 H 0.55486 0.90531 0.82857 0.0
H779 H 0.48471 0.90225 0.85853 0.0
H780 H 0.47706 0.93613 0.83686 0.0
H781 H 0.49474 0.85944 0.84992 0.0
H782 H 0.53594 0.9317 0.88741 0.0
H783 H 0.56453 0.96791 0.88874 0.0
H784 H 0.62094 0.92606 0.87116 0.0
H785 H 0.5926 0.88963 0.86948 0.0
C786 C 0.51279 0.82602 0.95439 0.0
C787 C 0.53144 0.81287 0.95905 0.0
C788 C 0.51224 0.83741 0.9334 0.0
C789 C 0.53043 0.83606 0.91675 0.0
C790 C 0.54909 0.82294 0.92123 0.0
C791 C 0.54946 0.81117 0.94214 0.0
C792 C 0.53033 0.84969 0.89544 0.0
C793 C 0.54746 0.86929 0.89353 0.0
C794 C 0.51143 0.84571 0.87919 0.0
C795 C 0.49327 0.82479 0.88011 0.0
C796 C 0.5 0.80178 0.88027 0.0
C797 C 0.48285 0.78216 0.88149 0.0
C798 C 0.45889 0.78529 0.88245 0.0
C799 C 0.45202 0.80806 0.88215 0.0
C800 C 0.46909 0.82774 0.88095 0.0
C801 C 0.53362 0.93171 0.81825 0.0
C802 C 0.51185 0.94097 0.8207 0.0
C803 C 0.53782 0.91191 0.83037 0.0
C804 C 0.52049 0.90143 0.8455 0.0
C805 C 0.49836 0.90999 0.84698 0.0
C806 C 0.49404 0.92948 0.83463 0.0
C807 C 0.52563 0.88282 0.86129 0.0
C808 C 0.50943 0.86227 0.8622 0.0
C809 C 0.54513 0.88617 0.87696 0.0
C810 C 0.56215 0.90802 0.87801 0.0
C811 C 0.55443 0.93027 0.88367 0.0
C812 C 0.57058 0.95081 0.88451 0.0
C813 C 0.59452 0.9493 0.87995 0.0
C814 C 0.60238 0.92722 0.87462 0.0
C815 C 0.58629 0.90662 0.87373 0.0
H816 H 0.60701 0.96522 0.88061 0.0
H817 H 0.44564 0.77008 0.8834 0.0
H818 H 0.22317 0.49606 0.9831 0.0
H819 H 0.19729 0.49601 0.94891 0.0
H820 H 0.20601 0.57259 0.95347 0.0
H821 H 0.23086 0.57265 0.98822 0.0
H822 H 0.16246 0.55866 0.94846 0.0
H823 H 0.23137 0.53738 0.90789 0.0
H824 H 0.26497 0.51458 0.89914 0.0
H825 H 0.21696 0.45133 0.885 0.0
H826 H 0.18307 0.47368 0.89397 0.0
H827 H 0.09983 0.56649 0.84165 0.0
H828 H 0.13346 0.56911 0.86878 0.0
H829 H 0.11918 0.49414 0.87845 0.0
H830 H 0.08566 0.49137 0.85155 0.0
H831 H 0.16751 0.50949 0.87391 0.0
H832 H 0.09921 0.53162 0.91792 0.0
H833 H 0.06617 0.55536 0.92602 0.0
H834 H 0.11505 0.61893 0.93251 0.0
H835 H 0.14836 0.59557 0.92412 0.0
C836 C 0.21974 0.51285 0.9766 0.0
C837 C 0.22891 0.53434 0.98837 0.0
C838 C 0.20506 0.51283 0.95696 0.0
C839 C 0.19982 0.53433 0.94838 0.0
C840 C 0.20966 0.55578 0.95975 0.0
C841 C 0.22391 0.55579 0.9796 0.0
C842 C 0.18282 0.53456 0.92866 0.0
C843 C 0.16394 0.54825 0.932 0.0
C844 C 0.18434 0.52068 0.90725 0.0
C845 C 0.20468 0.50718 0.90181 0.0
C846 C 0.22798 0.51857 0.90309 0.0
C847 C 0.24708 0.50573 0.89805 0.0
C848 C 0.24311 0.48151 0.89157 0.0
C849 C 0.22002 0.47009 0.89005 0.0
C850 C 0.20085 0.48284 0.89508 0.0
C851 C 0.10402 0.55054 0.84938 0.0
C852 C 0.08999 0.52877 0.84463 0.0
C853 C 0.1232 0.55207 0.86487 0.0
C854 C 0.12868 0.53183 0.87572 0.0
C855 C 0.11527 0.50995 0.87025 0.0
C856 C 0.09603 0.50844 0.85497 0.0
C857 C 0.14741 0.53355 0.89389 0.0
C858 C 0.16643 0.52014 0.89029 0.0
C859 C 0.14622 0.54788 0.91496 0.0
C860 C 0.12622 0.56189 0.92013 0.0
C861 C 0.10288 0.55068 0.92088 0.0
C862 C 0.08412 0.56406 0.92556 0.0
C863 C 0.0885 0.58865 0.92971 0.0
C864 C 0.11167 0.59989 0.92925 0.0
C865 C 0.1305 0.58659 0.92455 0.0
H866 H 0.07395 0.59898 0.93333 0.0
H867 H 0.25792 0.47161 0.88768 0.0
H868 H 0.55262 0.07117 0.85194 0.0
H869 H 0.5492 0.10143 0.88385 0.0
H870 H 0.47336 0.08461 0.88334 0.0
H871 H 0.47663 0.05387 0.85171 0.0
H872 H 0.49297 0.13508 0.87887 0.0
H873 H 0.49706 0.06919 0.92749 0.0
H874 H 0.51422 0.03437 0.94063 0.0
H875 H 0.57934 0.07794 0.95765 0.0
H876 H 0.56269 0.11297 0.94427 0.0
H877 H 0.47792 0.21823 0.97445 0.0
H878 H 0.47473 0.18249 0.94794 0.0
H879 H 0.54851 0.17599 0.95938 0.0
H880 H 0.55138 0.21088 0.98679 0.0
H881 H 0.52595 0.13483 0.95937 0.0
H882 H 0.52624 0.19884 0.90786 0.0
H883 H 0.51279 0.23453 0.8923 0.0
H884 H 0.44432 0.19632 0.87792 0.0
H885 H 0.45729 0.16046 0.89367 0.0
C886 C 0.53524 0.07371 0.85882 0.0
C887 C 0.51488 0.06022 0.84935 0.0
C888 C 0.53333 0.09093 0.87705 0.0
C889 C 0.51104 0.09514 0.88585 0.0
C890 C 0.49069 0.0815 0.87672 0.0
C891 C 0.49261 0.06393 0.85878 0.0
C892 C 0.5091 0.11477 0.90365 0.0
C893 C 0.49972 0.13495 0.89666 0.0
C894 C 0.51868 0.11469 0.92647 0.0
C895 C 0.52868 0.09367 0.93469 0.0
C896 C 0.51511 0.07132 0.93385 0.0
C897 C 0.52473 0.05155 0.94138 0.0
C898 C 0.54788 0.05393 0.94992 0.0
C899 C 0.56142 0.07611 0.95101 0.0
C900 C 0.55189 0.09594 0.94349 0.0
C901 C 0.49343 0.20914 0.97125 0.0
C902 C 0.51491 0.21733 0.98259 0.0
C903 C 0.49163 0.18878 0.95604 0.0
C904 C 0.51148 0.1767 0.95135 0.0
C905 C 0.53292 0.18492 0.96274 0.0
C906 C 0.53457 0.20492 0.97834 0.0
C907 C 0.51009 0.15554 0.93458 0.0
C908 C 0.5189 0.13502 0.94172 0.0
C909 C 0.5005 0.15552 0.91165 0.0
C910 C 0.49265 0.17706 0.9022 0.0
C911 C 0.50826 0.1981 0.90155 0.0
C912 C 0.50073 0.21835 0.89267 0.0
C913 C 0.47769 0.21772 0.8842 0.0
C914 C 0.46214 0.1968 0.88453 0.0
C915 C 0.46958 0.17651 0.89342 0.0
H916 H 0.47189 0.23341 0.87732 0.0
H917 H 0.5553 0.03861 0.95574 0.0
H918 H 0.97415 0.51154 0.85822 0.0
H919 H 0.94146 0.5143 0.88611 0.0
H920 H 0.92368 0.57666 0.854 0.0
H921 H 0.95613 0.57388 0.82574 0.0
H922 H 0.92524 0.57948 0.90572 0.0
H923 H 0.88998 0.53093 0.84045 0.0
H924 H 0.88728 0.49788 0.81011 0.0
H925 H 0.88452 0.44784 0.86404 0.0
H926 H 0.88757 0.48063 0.89472 0.0
H927 H 0.81697 0.57536 0.97236 0.0
H928 H 0.84543 0.57906 0.93968 0.0
H929 H 0.86439 0.50935 0.95103 0.0
H930 H 0.83585 0.50533 0.98301 0.0
H931 H 0.85951 0.51393 0.90592 0.0
H932 H 0.89899 0.56113 0.97077 0.0
H933 H 0.90346 0.59332 0.00204 0.0
H934 H 0.89986 0.64486 0.95034 0.0
H935 H 0.89506 0.61292 0.91879 0.0
C936 C 0.96335 0.52589 0.85712 0.0
C937 C 0.96764 0.54242 0.83971 0.0
C938 C 0.94468 0.52741 0.87302 0.0
C939 C 0.93017 0.54562 0.87197 0.0
C940 C 0.93472 0.56249 0.85502 0.0
C941 C 0.95317 0.56078 0.83886 0.0
C942 C 0.90999 0.5466 0.88838 0.0
C943 C 0.91061 0.5654 0.90557 0.0
C944 C 0.89118 0.52804 0.88826 0.0
C945 C 0.88921 0.50825 0.86987 0.0
C946 C 0.889 0.51289 0.84584 0.0
C947 C 0.88737 0.4942 0.82858 0.0
C948 C 0.88578 0.47077 0.83514 0.0
C949 C 0.88577 0.46599 0.85898 0.0
C950 C 0.88742 0.48463 0.87631 0.0
C951 C 0.82718 0.56083 0.96778 0.0
C952 C 0.82417 0.54006 0.98026 0.0
C953 C 0.84348 0.563 0.9492 0.0
C954 C 0.85717 0.54453 0.94302 0.0
C955 C 0.85398 0.52378 0.95539 0.0
C956 C 0.83767 0.52155 0.97375 0.0
C957 C 0.87499 0.54649 0.92383 0.0
C958 C 0.87393 0.52822 0.90598 0.0
C959 C 0.8935 0.56543 0.92353 0.0
C960 C 0.89637 0.58463 0.94247 0.0
C961 C 0.89895 0.57931 0.9661 0.0
C962 C 0.90158 0.59751 0.98387 0.0
C963 C 0.90186 0.62111 0.97819 0.0
C964 C 0.89958 0.62657 0.95472 0.0
C965 C 0.89691 0.60843 0.93689 0.0
H966 H 0.90391 0.63518 0.99197 0.0
H967 H 0.88452 0.45633 0.82175 0.0
H968 H 0.48896 0.09747 0.21939 0.0
H969 H 0.49623 0.13121 0.19473 0.0
H970 H 0.55933 0.15661 0.23428 0.0
H971 H 0.55241 0.12245 0.25906 0.0
H972 H 0.52557 0.19294 0.22017 0.0
H973 H 0.57233 0.13184 0.18993 0.0
H974 H 0.5781 0.09061 0.17758 0.0
H975 H 0.52411 0.08892 0.12501 0.0
H976 H 0.51777 0.13005 0.13733 0.0
H977 H 0.57618 0.23444 0.0981 0.0
H978 H 0.57604 0.21171 0.13315 0.0
H979 H 0.50386 0.22406 0.14752 0.0
H980 H 0.50386 0.24704 0.11236 0.0
H981 H 0.54749 0.17099 0.13769 0.0
H982 H 0.49469 0.22114 0.20799 0.0
H983 H 0.48882 0.26231 0.22056 0.0
H984 H 0.55716 0.28711 0.19304 0.0
H985 H 0.56358 0.24608 0.18062 0.0
C986 C 0.50426 0.11033 0.22312 0.0
C987 C 0.52024 0.10719 0.24108 0.0
C988 C 0.50832 0.12963 0.20902 0.0
C989 C 0.52828 0.14628 0.21273 0.0
C990 C 0.54376 0.14391 0.23129 0.0
C991 C 0.53985 0.12436 0.2453 0.0
C992 C 0.53386 0.16475 0.19568 0.0
C993 C 0.53053 0.18831 0.20216 0.0
C994 C 0.54047 0.15856 0.17232 0.0
C995 C 0.54444 0.13393 0.16469 0.0
C996 C 0.56156 0.12261 0.17587 0.0
C997 C 0.56496 0.09927 0.16886 0.0
C998 C 0.55145 0.08713 0.15056 0.0
C999 C 0.53455 0.09833 0.1392 0.0
C1000 C 0.53106 0.12166 0.14617 0.0
C1001 C 0.56037 0.23269 0.10889 0.0
C1002 C 0.53994 0.24235 0.10232 0.0
C1003 C 0.56034 0.21968 0.12893 0.0
C1004 C 0.53996 0.21618 0.14291 0.0
C1005 C 0.51987 0.22676 0.13709 0.0
C1006 C 0.51986 0.2398 0.11695 0.0
C1007 C 0.539 0.19939 0.16195 0.0
C1008 C 0.54292 0.17592 0.15576 0.0
C1009 C 0.53307 0.2058 0.18553 0.0
C1010 C 0.52951 0.23053 0.19319 0.0
C1011 C 0.50851 0.23536 0.20472 0.0
C1012 C 0.50508 0.25868 0.2118 0.0
C1013 C 0.52258 0.27732 0.20754 0.0
C1014 C 0.54358 0.27267 0.19625 0.0
C1015 C 0.5471 0.24938 0.18915 0.0
H1016 H 0.51988 0.29536 0.21302 0.0
H1017 H 0.5541 0.06906 0.14515 0.0
H1018 H 0.92053 0.50218 0.26687 0.0
H1019 H 0.88841 0.50575 0.23946 0.0
H1020 H 0.93881 0.51302 0.18238 0.0
H1021 H 0.97096 0.51042 0.20981 0.0
H1022 H 0.91196 0.54621 0.1817 0.0
H1023 H 0.89812 0.46187 0.18897 0.0
H1024 H 0.89057 0.42499 0.20995 0.0
H1025 H 0.82613 0.44736 0.23836 0.0
H1026 H 0.83346 0.48453 0.21778 0.0
H1027 H 0.83965 0.52618 0.08143 0.0
H1028 H 0.86617 0.51995 0.11333 0.0
H1029 H 0.81226 0.53356 0.16445 0.0
H1030 H 0.78543 0.54012 0.13248 0.0
H1031 H 0.8377 0.4916 0.17101 0.0
H1032 H 0.85184 0.57547 0.16057 0.0
H1033 H 0.8599 0.6108 0.13734 0.0
H1034 H 0.92509 0.58709 0.1126 0.0
H1035 H 0.91724 0.55141 0.13542 0.0
C1036 C 0.92467 0.5042 0.24841 0.0
C1037 C 0.94823 0.50618 0.24047 0.0
C1038 C 0.9063 0.50616 0.23275 0.0
C1039 C 0.91118 0.5096 0.20883 0.0
C1040 C 0.93463 0.51056 0.20078 0.0
C1041 C 0.95299 0.50902 0.21645 0.0
C1042 C 0.89226 0.51381 0.19237 0.0
C1043 C 0.89586 0.53408 0.17924 0.0
C1044 C 0.87089 0.49842 0.18964 0.0
C1045 C 0.86648 0.4761 0.20205 0.0
C1046 C 0.88244 0.45902 0.19986 0.0
C1047 C 0.87818 0.43804 0.21164 0.0
C1048 C 0.85792 0.43387 0.22554 0.0
C1049 C 0.84184 0.45063 0.22763 0.0
C1050 C 0.84603 0.47165 0.21589 0.0
C1051 C 0.83333 0.52781 0.09943 0.0
C1052 C 0.81047 0.53375 0.10446 0.0
C1053 C 0.84853 0.52425 0.11761 0.0
C1054 C 0.84112 0.52639 0.14114 0.0
C1055 C 0.81819 0.53184 0.14632 0.0
C1056 C 0.803 0.5357 0.12809 0.0
C1057 C 0.85785 0.52356 0.16015 0.0
C1058 C 0.85378 0.5037 0.17374 0.0
C1059 C 0.87897 0.53912 0.16313 0.0
C1060 C 0.88385 0.56068 0.14956 0.0
C1061 C 0.8678 0.57769 0.15003 0.0
C1062 C 0.87235 0.5978 0.13697 0.0
C1063 C 0.89298 0.60117 0.12347 0.0
C1064 C 0.90912 0.58446 0.12305 0.0
C1065 C 0.90464 0.5643 0.13607 0.0
H1066 H 0.89647 0.61675 0.11336 0.0
H1067 H 0.85465 0.41761 0.23464 0.0
H1068 H 0.49674 0.86034 0.07443 0.0
H1069 H 0.50158 0.89062 0.10677 0.0
H1070 H 0.56415 0.86254 0.12959 0.0
H1071 H 0.55949 0.83199 0.09698 0.0
H1072 H 0.53185 0.8714 0.16633 0.0
H1073 H 0.57163 0.91228 0.10353 0.0
H1074 H 0.57631 0.92631 0.06334 0.0
H1075 H 0.51632 0.96494 0.07395 0.0
H1076 H 0.51105 0.95086 0.11411 0.0
H1077 H 0.55699 0.96885 0.25061 0.0
H1078 H 0.56032 0.93891 0.21849 0.0
H1079 H 0.50411 0.96537 0.18125 0.0
H1080 H 0.50115 0.9958 0.21295 0.0
H1081 H 0.53819 0.9571 0.15185 0.0
H1082 H 0.49553 0.91364 0.2122 0.0
H1083 H 0.48897 0.89903 0.25201 0.0
H1084 H 0.55222 0.86479 0.24575 0.0
H1085 H 0.55931 0.87947 0.20599 0.0
C1086 C 0.51159 0.86057 0.08626 0.0
C1087 C 0.52776 0.84378 0.08314 0.0
C1088 C 0.51437 0.87797 0.10468 0.0
C1089 C 0.53333 0.87893 0.12041 0.0
C1090 C 0.54945 0.8621 0.11754 0.0
C1091 C 0.5468 0.84474 0.09891 0.0
C1092 C 0.53579 0.89733 0.14006 0.0
C1093 C 0.53372 0.89017 0.16325 0.0
C1094 C 0.53766 0.92175 0.1359 0.0
C1095 C 0.54084 0.93036 0.11178 0.0
C1096 C 0.55932 0.92362 0.09724 0.0
C1097 C 0.5621 0.93161 0.07447 0.0
C1098 C 0.5466 0.94647 0.06608 0.0
C1099 C 0.52831 0.95342 0.08047 0.0
C1100 C 0.52544 0.94546 0.10325 0.0
C1101 C 0.5453 0.96828 0.2356 0.0
C1102 C 0.52873 0.98467 0.23438 0.0
C1103 C 0.54718 0.95109 0.21728 0.0
C1104 C 0.53226 0.94968 0.19757 0.0
C1105 C 0.51582 0.96611 0.19627 0.0
C1106 C 0.5141 0.98346 0.21445 0.0
C1107 C 0.53376 0.9312 0.17821 0.0
C1108 C 0.53659 0.93835 0.15502 0.0
C1109 C 0.53236 0.90676 0.18238 0.0
C1110 C 0.52809 0.89788 0.20624 0.0
C1111 C 0.50813 0.90315 0.21939 0.0
C1112 C 0.5043 0.89483 0.24193 0.0
C1113 C 0.5202 0.88105 0.25143 0.0
C1114 C 0.53994 0.8755 0.23838 0.0
C1115 C 0.54386 0.8838 0.21584 0.0
H1116 H 0.51721 0.87462 0.26889 0.0
H1117 H 0.54878 0.95263 0.04845 0.0
H1118 H 0.24365 0.49 0.13018 0.0
H1119 H 0.21459 0.48828 0.1623 0.0
H1120 H 0.18119 0.54402 0.13275 0.0
H1121 H 0.20998 0.54588 0.10069 0.0
H1122 H 0.18845 0.55093 0.18125 0.0
H1123 H 0.15757 0.48796 0.1239 0.0
H1124 H 0.15977 0.45101 0.09939 0.0
H1125 H 0.16966 0.41372 0.16141 0.0
H1126 H 0.16783 0.45056 0.18627 0.0
H1127 H 0.07286 0.55019 0.22018 0.0
H1128 H 0.10937 0.54745 0.19829 0.0
H1129 H 0.12241 0.48682 0.23628 0.0
H1130 H 0.08523 0.48913 0.25811 0.0
H1131 H 0.13081 0.47945 0.19022 0.0
H1132 H 0.15521 0.54052 0.24822 0.0
H1133 H 0.15302 0.57716 0.2732 0.0
H1134 H 0.15653 0.61777 0.21167 0.0
H1135 H 0.1584 0.58134 0.18628 0.0
C1136 C 0.23014 0.50192 0.13055 0.0
C1137 C 0.22909 0.51804 0.11283 0.0
C1138 C 0.21355 0.50087 0.14888 0.0
C1139 C 0.19575 0.51598 0.14981 0.0
C1140 C 0.19486 0.53226 0.13235 0.0
C1141 C 0.21127 0.53321 0.11397 0.0
C1142 C 0.1777 0.51485 0.16872 0.0
C1143 C 0.17578 0.53535 0.18322 0.0
C1144 C 0.16184 0.49418 0.17185 0.0
C1145 C 0.16286 0.47206 0.1569 0.0
C1146 C 0.16043 0.47193 0.13229 0.0
C1147 C 0.16156 0.451 0.11833 0.0
C1148 C 0.16494 0.43005 0.12883 0.0
C1149 C 0.1671 0.42997 0.1533 0.0
C1150 C 0.16601 0.45086 0.16733 0.0
C1151 C 0.08349 0.53631 0.22404 0.0
C1152 C 0.07621 0.51993 0.24097 0.0
C1153 C 0.10448 0.53486 0.21158 0.0
C1154 C 0.11888 0.51723 0.21598 0.0
C1155 C 0.11163 0.50068 0.23275 0.0
C1156 C 0.09044 0.50203 0.24521 0.0
C1157 C 0.14097 0.51588 0.20222 0.0
C1158 C 0.14374 0.49491 0.1887 0.0
C1159 C 0.15777 0.53608 0.20012 0.0
C1160 C 0.15684 0.55814 0.21533 0.0
C1161 C 0.15538 0.55724 0.24 0.0
C1162 C 0.15421 0.57798 0.25423 0.0
C1163 C 0.15461 0.59977 0.24403 0.0
C1164 C 0.15624 0.60088 0.21956 0.0
C1165 C 0.15739 0.58019 0.20523 0.0
H1166 H 0.1537 0.61581 0.25508 0.0
H1167 H 0.16581 0.41386 0.118 0.0
H1168 H 0.84505 0.95777 0.57451 0.0
H1169 H 0.86599 0.92444 0.56117 0.0
H1170 H 0.81856 0.90912 0.50209 0.0
H1171 H 0.7975 0.94297 0.51513 0.0
H1172 H 0.83305 0.86727 0.5312 0.0
H1173 H 0.86234 0.93304 0.48481 0.0
H1174 H 0.8767 0.97502 0.47947 0.0
H1175 H 0.93468 0.97088 0.52627 0.0
H1176 H 0.92042 0.92896 0.53218 0.0
H1177 H 0.94988 0.82993 0.47086 0.0
H1178 H 0.91597 0.85246 0.47324 0.0
H1179 H 0.90353 0.83346 0.54505 0.0
H1180 H 0.93739 0.8106 0.54274 0.0
H1181 H 0.91435 0.89064 0.50195 0.0
H1182 H 0.84503 0.83573 0.55876 0.0
H1183 H 0.83027 0.79381 0.56393 0.0
H1184 H 0.85167 0.77508 0.4933 0.0
H1185 H 0.86624 0.81691 0.48757 0.0
C1186 C 0.83881 0.94721 0.55882 0.0
C1187 C 0.8197 0.95311 0.54577 0.0
C1188 C 0.85079 0.92815 0.55127 0.0
C1189 C 0.84378 0.91444 0.5307 0.0
C1190 C 0.8241 0.91952 0.51809 0.0
C1191 C 0.81221 0.93889 0.52549 0.0
C1192 C 0.8585 0.89619 0.52167 0.0
C1193 C 0.85075 0.87221 0.52455 0.0
C1194 C 0.88141 0.90281 0.51279 0.0
C1195 C 0.8902 0.92793 0.50908 0.0
C1196 C 0.87804 0.94115 0.49412 0.0
C1197 C 0.88618 0.96492 0.49096 0.0
C1198 C 0.90657 0.97563 0.50256 0.0
C1199 C 0.91888 0.96256 0.5173 0.0
C1200 C 0.91079 0.93879 0.52054 0.0
C1201 C 0.9397 0.83017 0.48705 0.0
C1202 C 0.94646 0.81868 0.50671 0.0
C1203 C 0.9203 0.84305 0.48835 0.0
C1204 C 0.90721 0.84464 0.50929 0.0
C1205 C 0.91319 0.83223 0.5286 0.0
C1206 C 0.93262 0.81927 0.5273 0.0
C1207 C 0.88922 0.86147 0.51181 0.0
C1208 C 0.89649 0.88539 0.50802 0.0
C1209 C 0.86586 0.85466 0.51963 0.0
C1210 C 0.85689 0.82947 0.52282 0.0
C1211 C 0.84648 0.82269 0.54429 0.0
C1212 C 0.83817 0.79894 0.54733 0.0
C1213 C 0.84009 0.78179 0.52898 0.0
C1214 C 0.85027 0.78837 0.50753 0.0
C1215 C 0.85859 0.8121 0.50439 0.0
H1216 H 0.83365 0.7634 0.53137 0.0
H1217 H 0.91284 0.99403 0.5001 0.0
H1218 H 0.95847 0.25028 0.53808 0.0
H1219 H 0.92648 0.21846 0.54324 0.0
H1220 H 0.9759 0.16668 0.53342 0.0
H1221 H 0.0078 0.19841 0.52722 0.0
H1222 H 0.93805 0.15128 0.51069 0.0
H1223 H 0.95323 0.18366 0.58924 0.0
H1224 H 0.95894 0.21473 0.62152 0.0
H1225 H 0.8881 0.23127 0.61206 0.0
H1226 H 0.88207 0.2005 0.5795 0.0
H1227 H 0.86142 0.0565 0.55678 0.0
H1228 H 0.89416 0.08815 0.55372 0.0
H1229 H 0.84448 0.13875 0.54573 0.0
H1230 H 0.81158 0.10719 0.54851 0.0
H1231 H 0.8827 0.1538 0.5785 0.0
H1232 H 0.86925 0.12035 0.49869 0.0
H1233 H 0.86465 0.08752 0.4681 0.0
H1234 H 0.9345 0.07094 0.48272 0.0
H1235 H 0.93939 0.1035 0.51364 0.0
C1236 C 0.96253 0.23211 0.53705 0.0
C1237 C 0.98566 0.22685 0.53231 0.0
C1238 C 0.94424 0.21393 0.54015 0.0
C1239 C 0.94883 0.19016 0.53917 0.0
C1240 C 0.97192 0.18487 0.5343 0.0
C1241 C 0.99014 0.20303 0.53078 0.0
C1242 C 0.92946 0.17079 0.54272 0.0
C1243 C 0.92622 0.15172 0.52573 0.0
C1244 C 0.91373 0.17141 0.56218 0.0
C1245 C 0.91728 0.18992 0.58178 0.0
C1246 C 0.93893 0.19404 0.59392 0.0
C1247 C 0.94221 0.21158 0.61229 0.0
C1248 C 0.92391 0.22501 0.6188 0.0
C1249 C 0.90227 0.22088 0.60698 0.0
C1250 C 0.8989 0.20337 0.58858 0.0
C1251 C 0.85743 0.07438 0.5545 0.0
C1252 C 0.83391 0.07934 0.5528 0.0
C1253 C 0.87615 0.09239 0.5527 0.0
C1254 C 0.87166 0.11569 0.54938 0.0
C1255 C 0.84824 0.12084 0.54828 0.0
C1256 C 0.8295 0.10279 0.54978 0.0
C1257 C 0.89144 0.13459 0.54648 0.0
C1258 C 0.89469 0.15348 0.56357 0.0
C1259 C 0.90742 0.13361 0.52737 0.0
C1260 C 0.90458 0.1142 0.50863 0.0
C1261 C 0.88355 0.10958 0.49551 0.0
C1262 C 0.88091 0.09105 0.47809 0.0
C1263 C 0.89925 0.07711 0.47352 0.0
C1264 C 0.9203 0.08173 0.48631 0.0
C1265 C 0.92302 0.10023 0.50376 0.0
H1266 H 0.89716 0.06276 0.46003 0.0
H1267 H 0.92649 0.23857 0.63302 0.0
H1268 H 0.05115 0.863 0.50978 0.0
H1269 H 0.08199 0.89664 0.5145 0.0
H1270 H 0.12371 0.85491 0.55487 0.0
H1271 H 0.09276 0.82141 0.55077 0.0
H1272 H 0.12535 0.89807 0.57464 0.0
H1273 H 0.13546 0.86392 0.49622 0.0
H1274 H 0.12304 0.84964 0.45588 0.0
H1275 H 0.10653 0.91918 0.44178 0.0
H1276 H 0.11858 0.93381 0.48216 0.0
H1277 H 0.23799 0.9661 0.52248 0.0
H1278 H 0.20426 0.93551 0.51973 0.0
H1279 H 0.16492 0.97783 0.56769 0.0
H1280 H 0.19894 0.00849 0.57097 0.0
H1281 H 0.16111 0.93537 0.50398 0.0
H1282 H 0.12775 0.94038 0.60023 0.0
H1283 H 0.1433 0.9515 0.64027 0.0
H1284 H 0.21199 0.93475 0.61814 0.0
H1285 H 0.19677 0.92324 0.57808 0.0
C1286 C 0.06688 0.86098 0.51969 0.0
C1287 C 0.06956 0.83947 0.52979 0.0
C1288 C 0.0845 0.88022 0.52233 0.0
C1289 C 0.10526 0.8782 0.53482 0.0
C1290 C 0.10782 0.85687 0.5452 0.0
C1291 C 0.09013 0.83771 0.54275 0.0
C1292 C 0.12458 0.89808 0.53673 0.0
C1293 C 0.13311 0.9063 0.5592 0.0
C1294 C 0.13489 0.90863 0.51657 0.0
C1295 C 0.12768 0.89989 0.49228 0.0
C1296 C 0.12901 0.87612 0.48457 0.0
C1297 C 0.12207 0.86797 0.46169 0.0
C1298 C 0.11394 0.88348 0.4463 0.0
C1299 C 0.11279 0.90718 0.45373 0.0
C1300 C 0.11969 0.91541 0.4766 0.0
C1301 C 0.2222 0.96897 0.53249 0.0
C1302 C 0.2212 0.98972 0.54702 0.0
C1303 C 0.20289 0.95147 0.53081 0.0
C1304 C 0.18214 0.95431 0.54359 0.0
C1305 C 0.1809 0.97514 0.55791 0.0
C1306 C 0.20032 0.99265 0.55972 0.0
C1307 C 0.16197 0.93529 0.54189 0.0
C1308 C 0.15321 0.9273 0.51945 0.0
C1309 C 0.15187 0.92455 0.56203 0.0
C1310 C 0.16117 0.93123 0.5861 0.0
C1311 C 0.14615 0.93902 0.60394 0.0
C1312 C 0.15491 0.94539 0.62663 0.0
C1313 C 0.17864 0.94392 0.63172 0.0
C1314 C 0.19364 0.93598 0.61415 0.0
C1315 C 0.18497 0.92956 0.59144 0.0
H1316 H 0.18538 0.94887 0.64929 0.0
H1317 H 0.10857 0.87714 0.4286 0.0
H1318 H 0.11637 0.23018 0.48388 0.0
H1319 H 0.15044 0.20888 0.48953 0.0
H1320 H 0.1473 0.22519 0.56457 0.0
H1321 H 0.11356 0.2474 0.55886 0.0
H1322 H 0.19238 0.22556 0.55038 0.0
H1323 H 0.12095 0.17242 0.54016 0.0
H1324 H 0.08398 0.15492 0.52053 0.0
H1325 H 0.12327 0.13486 0.45919 0.0
H1326 H 0.16046 0.15255 0.47836 0.0
H1327 H 0.2376 0.12258 0.58979 0.0
H1328 H 0.21591 0.15557 0.58102 0.0
H1329 H 0.22811 0.14198 0.50669 0.0
H1330 H 0.25001 0.10893 0.51533 0.0
H1331 H 0.18076 0.14175 0.51883 0.0
H1332 H 0.25341 0.19203 0.53294 0.0
H1333 H 0.28929 0.20821 0.55515 0.0
H1334 H 0.24651 0.2318 0.61243 0.0
H1335 H 0.21035 0.21545 0.59071 0.0
C1336 C 0.12314 0.22952 0.50156 0.0
C1337 C 0.11214 0.24013 0.52099 0.0
C1338 C 0.14259 0.21731 0.50476 0.0
C1339 C 0.15104 0.21494 0.52752 0.0
C1340 C 0.14097 0.2267 0.54686 0.0
C1341 C 0.12169 0.23932 0.5436 0.0
C1342 C 0.16904 0.19868 0.53118 0.0
C1343 C 0.18979 0.20719 0.54365 0.0
C1344 C 0.16578 0.17476 0.52214 0.0
C1345 C 0.14345 0.16403 0.51059 0.0
C1346 C 0.12168 0.16443 0.52242 0.0
C1347 C 0.1007 0.15446 0.51139 0.0
C1348 C 0.10127 0.14385 0.4886 0.0
C1349 C 0.12285 0.14313 0.47682 0.0
C1350 C 0.14389 0.15311 0.48777 0.0
C1351 C 0.23607 0.12689 0.5716 0.0
C1352 C 0.24534 0.11306 0.55322 0.0
C1353 C 0.22379 0.14584 0.56664 0.0
C1354 C 0.22048 0.15123 0.54322 0.0
C1355 C 0.23057 0.13811 0.52488 0.0
C1356 C 0.24309 0.11928 0.52985 0.0
C1357 C 0.20418 0.16863 0.53789 0.0
C1358 C 0.18356 0.16022 0.52525 0.0
C1359 C 0.20744 0.19243 0.54716 0.0
C1360 C 0.22915 0.20233 0.56025 0.0
C1361 C 0.25164 0.20048 0.55035 0.0
C1362 C 0.27203 0.20973 0.56284 0.0
C1363 C 0.27018 0.22098 0.58521 0.0
C1364 C 0.24792 0.22306 0.59511 0.0
C1365 C 0.22747 0.21384 0.5827 0.0
H1366 H 0.28599 0.22812 0.59484 0.0
H1367 H 0.085 0.13613 0.48009 0.0
loop_
_geom_bond_atom_site_label_1
_geom_bond_atom_site_label_2
_geom_bond_distance
_geom_bond_site_symmetry_2
_ccdc_geom_bond_type
O0 Cd1 2.223 . S
O0 C8 1.315 1_455 S
Cd1 O0 2.223 . S
Cd1 O4 2.297 . S
Cd1 O5 2.439 . S
Cd1 O11 2.240 . S
Cd2 O3 2.241 . S
Cd2 O10 2.223 . S
Cd2 O12 2.297 1_655 S
Cd2 O13 2.439 1_655 S
O3 Cd2 2.241 . S
O3 C8 1.280 . S
O4 Cd1 2.297 . S
O4 C6 1.247 . S
O5 Cd1 2.439 . S
O5 C6 1.208 . S
C6 O4 1.247 . S
C6 O5 1.208 . S
C7 O12 1.247 . S
C7 O13 1.208 . S
C8 O0 1.315 1_655 S
C8 O3 1.280 . S
C9 O10 1.315 1_455 S
C9 O11 1.279 . S
O10 Cd2 2.223 . S
O10 C9 1.315 1_655 S
O11 Cd1 2.240 . S
O11 C9 1.279 . S
O12 Cd2 2.297 1_455 S
O12 C7 1.247 . S
O13 Cd2 2.439 1_455 S
O13 C7 1.208 . S
O14 Cd15 2.223 . S
O14 C22 1.315 . S
Cd15 O14 2.223 . S
Cd15 O18 2.297 . S
Cd15 O19 2.439 . S
Cd15 O25 2.240 . S
Cd16 O17 2.240 . S
Cd16 O24 2.223 . S
Cd16 O26 2.297 1_545 S
Cd16 O27 2.439 1_545 S
O17 Cd16 2.240 . S
O17 C22 1.279 . S
O18 Cd15 2.297 . S
O18 C20 1.247 . S
O19 Cd15 2.439 . S
O19 C20 1.208 . S
C20 O18 1.247 . S
C20 O19 1.208 . S
C21 O26 1.247 . S
C21 O27 1.208 . S
C22 O14 1.315 . S
C22 O17 1.279 . S
C23 O24 1.315 . S
C23 O25 1.279 . S
O24 Cd16 2.223 . S
O24 C23 1.315 . S
O25 Cd15 2.240 . S
O25 C23 1.279 . S
O26 Cd16 2.297 1_565 S
O26 C21 1.247 . S
O27 Cd16 2.439 1_565 S
O27 C21 1.208 . S
O28 Cd29 2.223 . S
O28 C36 1.315 . S
Cd29 O28 2.223 . S
Cd29 O32 2.297 1_455 S
Cd29 O33 2.439 1_455 S
Cd29 O39 2.240 . S
Cd30 O31 2.240 . S
Cd30 O38 2.223 . S
Cd30 O40 2.297 . S
Cd30 O41 2.439 . S
O31 Cd30 2.240 . S
O31 C36 1.279 . S
O32 Cd29 2.297 1_655 S
O32 C34 1.247 . S
O33 Cd29 2.439 1_655 S
O33 C34 1.208 . S
C34 O32 1.247 . S
C34 O33 1.208 . S
C35 O40 1.247 . S
C35 O41 1.208 . S
C36 O28 1.315 . S
C36 O31 1.279 . S
C37 O38 1.315 . S
C37 O39 1.279 . S
O38 Cd30 2.223 . S
O38 C37 1.315 . S
O39 Cd29 2.240 . S
O39 C37 1.279 . S
O40 Cd30 2.297 . S
O40 C35 1.247 . S
O41 Cd30 2.439 . S
O41 C35 1.208 . S
O42 Cd43 2.223 . S
O42 C50 1.315 1_545 S
Cd43 O42 2.223 . S
Cd43 O46 2.297 . S
Cd43 O47 2.439 . S
Cd43 O53 2.240 . S
Cd44 O45 2.240 . S
Cd44 O52 2.223 1_545 S
Cd44 O54 2.297 . S
Cd44 O55 2.439 . S
O45 Cd44 2.240 . S
O45 C50 1.279 1_545 S
O46 Cd43 2.297 . S
O46 C48 1.247 . S
O47 Cd43 2.439 . S
O47 C48 1.208 . S
C48 O46 1.247 . S
C48 O47 1.208 . S
C49 O54 1.247 . S
C49 O55 1.208 . S
C50 O42 1.315 1_565 S
C50 O45 1.279 1_565 S
C51 O52 1.315 1_545 S
C51 O53 1.279 . S
O52 Cd44 2.223 1_565 S
O52 C51 1.315 1_565 S
O53 Cd43 2.240 . S
O53 C51 1.279 . S
O54 Cd44 2.297 . S
O54 C49 1.247 . S
O55 Cd44 2.439 . S
O55 C49 1.208 . S
O56 Cd57 2.223 . S
O56 C64 1.315 . S
Cd57 O56 2.223 . S
Cd57 O60 2.297 . S
Cd57 O61 2.439 . S
Cd57 O67 2.240 . S
Cd58 O59 2.240 . S
Cd58 O66 2.223 . S
Cd58 O68 2.297 . S
Cd58 O69 2.439 . S
O59 Cd58 2.240 . S
O59 C64 1.279 . S
O60 Cd57 2.297 . S
O60 C62 1.247 . S
O61 Cd57 2.439 . S
O61 C62 1.208 . S
C62 O60 1.247 . S
C62 O61 1.208 . S
C63 O68 1.247 . S
C63 O69 1.208 . S
C64 O56 1.315 . S
C64 O59 1.279 . S
C65 O66 1.315 . S
C65 O67 1.279 . S
O66 Cd58 2.223 . S
O66 C65 1.315 . S
O67 Cd57 2.240 . S
O67 C65 1.279 . S
O68 Cd58 2.297 . S
O68 C63 1.247 . S
O69 Cd58 2.439 . S
O69 C63 1.208 . S
O70 Cd71 2.224 . S
O70 C78 1.315 1_655 S
Cd71 O70 2.224 . S
Cd71 O74 2.297 1_655 S
Cd71 O75 2.437 1_655 S
Cd71 O81 2.240 1_655 S
Cd72 O73 2.240 . S
Cd72 O80 2.223 . S
Cd72 O82 2.297 . S
Cd72 O83 2.439 . S
O73 Cd72 2.240 . S
O73 C78 1.279 . S
O74 Cd71 2.297 1_455 S
O74 C76 1.247 . S
O75 Cd71 2.437 1_455 S
O75 C76 1.208 . S
C76 O74 1.247 . S
C76 O75 1.208 . S
C77 O82 1.247 . S
C77 O83 1.208 . S
C78 O70 1.315 1_455 S
C78 O73 1.279 . S
C79 O80 1.315 1_655 S
C79 O81 1.279 1_655 S
O80 Cd72 2.223 . S
O80 C79 1.315 1_455 S
O81 Cd71 2.240 1_455 S
O81 C79 1.279 1_455 S
O82 Cd72 2.297 . S
O82 C77 1.247 . S
O83 Cd72 2.439 . S
O83 C77 1.208 . S
O84 Cd85 2.223 1_545 S
O84 C92 1.315 . S
Cd85 O84 2.223 1_565 S
Cd85 O88 2.297 . S
Cd85 O89 2.439 . S
Cd85 O95 2.240 1_565 S
Cd86 O87 2.240 . S
Cd86 O94 2.223 . S
Cd86 O96 2.297 . S
Cd86 O97 2.439 . S
O87 Cd86 2.240 . S
O87 C92 1.279 . S
O88 Cd85 2.297 . S
O88 C90 1.247 . S
O89 Cd85 2.439 . S
O89 C90 1.208 . S
C90 O88 1.247 . S
C90 O89 1.208 . S
C91 O96 1.247 . S
C91 O97 1.208 . S
C92 O84 1.315 . S
C92 O87 1.279 . S
C93 O94 1.315 . S
C93 O95 1.279 . S
O94 Cd86 2.223 . S
O94 C93 1.315 . S
O95 Cd85 2.240 1_545 S
O95 C93 1.279 . S
O96 Cd86 2.297 . S
O96 C91 1.247 . S
O97 Cd86 2.439 . S
O97 C91 1.208 . S
O98 Cd99 2.223 1_655 S
O98 C106 1.315 1_655 S
Cd99 O98 2.223 1_455 S
Cd99 O102 2.297 . S
Cd99 O103 2.439 . S
Cd99 O109 2.240 . S
Cd100 O101 2.240 . S
Cd100 O108 2.223 . S
Cd100 O110 2.297 . S
Cd100 O111 2.439 . S
O101 Cd100 2.240 . S
O101 C106 1.279 . S
O102 Cd99 2.297 . S
O102 C104 1.247 . S
O103 Cd99 2.439 . S
O103 C104 1.208 . S
C104 O102 1.247 . S
C104 O103 1.208 . S
C105 O110 1.247 . S
C105 O111 1.208 . S
C106 O98 1.315 1_455 S
C106 O101 1.279 . S
C107 O108 1.315 . S
C107 O109 1.279 . S
O108 Cd100 2.223 . S
O108 C107 1.315 . S
O109 Cd99 2.240 . S
O109 C107 1.279 . S
O110 Cd100 2.297 . S
O110 C105 1.247 . S
O111 Cd100 2.439 . S
O111 C105 1.208 . S
O112 Cd113 2.223 . S
O112 C120 1.315 . S
Cd113 O112 2.223 . S
Cd113 O116 2.297 . S
Cd113 O117 2.439 . S
Cd113 O123 2.240 . S
Cd114 O115 2.240 . S
Cd114 O122 2.223 . S
Cd114 O124 2.297 1_554 S
Cd114 O125 2.439 1_554 S
O115 Cd114 2.240 . S
O115 C120 1.279 . S
O116 Cd113 2.297 . S
O116 C118 1.247 . S
O117 Cd113 2.439 . S
O117 C118 1.208 . S
C118 O116 1.247 . S
C118 O117 1.208 . S
C119 O124 1.247 . S
C119 O125 1.208 . S
C120 O112 1.315 . S
C120 O115 1.279 . S
C121 O122 1.315 . S
C121 O123 1.279 . S
O122 Cd114 2.223 . S
O122 C121 1.315 . S
O123 Cd113 2.240 . S
O123 C121 1.279 . S
O124 Cd114 2.297 1_556 S
O124 C119 1.247 . S
O125 Cd114 2.439 1_556 S
O125 C119 1.208 . S
O126 Cd127 2.223 1_556 S
O126 C134 1.315 1_556 S
Cd127 O126 2.223 1_554 S
Cd127 O130 2.297 . S
Cd127 O131 2.439 . S
Cd127 O137 2.240 . S
Cd128 O129 2.240 . S
Cd128 O136 2.223 . S
Cd128 O138 2.297 . S
Cd128 O139 2.439 . S
O129 Cd128 2.240 . S
O129 C134 1.279 . S
O130 Cd127 2.297 . S
O130 C132 1.247 . S
O131 Cd127 2.439 . S
O131 C132 1.208 . S
C132 O130 1.247 . S
C132 O131 1.208 . S
C133 O138 1.247 . S
C133 O139 1.208 . S
C134 O126 1.315 1_554 S
C134 O129 1.279 . S
C135 O136 1.306 1_556 S
C135 O137 1.274 1_556 S
O136 Cd128 2.223 . S
O136 C135 1.306 1_554 S
O137 Cd127 2.240 . S
O137 C135 1.274 1_554 S
O138 Cd128 2.297 . S
O138 C133 1.247 . S
O139 Cd128 2.439 . S
O139 C133 1.208 . S
O140 Cd141 2.223 . S
O140 C148 1.315 . S
Cd141 O140 2.223 . S
Cd141 O144 2.297 . S
Cd141 O145 2.439 . S
Cd141 O151 2.240 . S
Cd142 O143 2.240 . S
Cd142 O150 2.223 . S
Cd142 O152 2.285 1_554 S
Cd142 O153 2.439 . S
O143 Cd142 2.240 . S
O143 C148 1.279 . S
O144 Cd141 2.297 . S
O144 C146 1.247 . S
O145 Cd141 2.439 . S
O145 C146 1.208 . S
C146 O144 1.247 . S
C146 O145 1.208 . S
C147 O152 1.255 . S
C147 O153 1.208 1_556 S
C148 O140 1.315 . S
C148 O143 1.279 . S
C149 O150 1.315 . S
C149 O151 1.279 . S
O150 Cd142 2.223 . S
O150 C149 1.315 . S
O151 Cd141 2.240 . S
O151 C149 1.279 . S
O152 Cd142 2.285 1_556 S
O152 C147 1.255 . S
O153 Cd142 2.439 . S
O153 C147 1.208 1_554 S
O154 Cd155 2.223 . S
O154 C162 1.315 . S
Cd155 O154 2.223 . S
Cd155 O158 2.297 . S
Cd155 O159 2.439 . S
Cd155 O165 2.240 . S
Cd156 O157 2.240 . S
Cd156 O164 2.223 . S
Cd156 O166 2.297 . S
Cd156 O167 2.439 . S
O157 Cd156 2.240 . S
O157 C162 1.279 . S
O158 Cd155 2.297 . S
O158 C160 1.247 . S
O159 Cd155 2.439 . S
O159 C160 1.208 . S
C160 O158 1.247 . S
C160 O159 1.208 . S
C161 O166 1.247 . S
C161 O167 1.208 . S
C162 O154 1.315 . S
C162 O157 1.279 . S
C163 O164 1.315 . S
C163 O165 1.279 . S
O164 Cd156 2.223 . S
O164 C163 1.315 . S
O165 Cd155 2.240 . S
O165 C163 1.279 . S
O166 Cd156 2.297 . S
O166 C161 1.247 . S
O167 Cd156 2.439 . S
O167 C161 1.208 . S
H168 C186 0.951 . S
H169 C188 0.951 . S
H170 C190 0.950 . S
H171 C191 0.950 . S
H172 C193 0.950 . S
H173 C196 0.950 . S
H174 C197 0.950 . S
H175 C199 0.950 . S
H176 C200 0.950 . S
H177 C201 0.951 . S
H178 C203 0.951 . S
H179 C205 0.950 1_655 S
H180 C206 0.950 1_655 S
H181 C208 0.950 . S
H182 C211 0.950 1_655 S
H183 C212 0.950 1_655 S
H184 C214 0.950 . S
H185 C215 0.950 . S
C186 H168 0.951 . S
C186 C187 1.366 1_655 S
C186 C188 1.388 . S
C187 C186 1.366 1_455 S
C187 C191 1.385 . S
C188 H169 0.951 . S
C188 C186 1.388 . S
C188 C189 1.366 1_655 S
C189 C188 1.366 1_455 S
C189 C190 1.414 . S
C189 C192 1.499 . S
C190 H170 0.950 . S
C190 C189 1.414 . S
C190 C191 1.374 . S
C191 H171 0.950 . S
C191 C187 1.385 . S
C191 C190 1.374 . S
C192 C189 1.499 . S
C192 C193 1.373 . S
C192 C194 1.389 . S
C193 H172 0.950 . S
C193 C192 1.373 . S
C193 C209 1.377 . S
C194 C192 1.389 . S
C194 C195 1.524 . S
C194 C208 1.377 . S
C195 C194 1.524 . S
C195 C196 1.397 . S
C195 C200 1.363 1_455 S
C196 H173 0.950 . S
C196 C195 1.397 . S
C196 C197 1.334 . S
C197 H174 0.950 . S
C197 C196 1.334 . S
C197 C198 1.287 . S
C198 C197 1.287 . S
C198 C199 1.524 1_455 S
C198 H217 0.913 . S
C199 H175 0.950 . S
C199 C198 1.524 1_655 S
C199 C200 1.415 . S
C200 H176 0.950 . S
C200 C195 1.363 1_655 S
C200 C199 1.415 . S
C201 H177 0.951 . S
C201 C202 1.366 . S
C201 C203 1.388 . S
C202 C201 1.366 . S
C202 C206 1.385 . S
C203 H178 0.951 . S
C203 C201 1.388 . S
C203 C204 1.366 . S
C204 C203 1.366 . S
C204 C205 1.414 . S
C204 C207 1.499 . S
C205 H179 0.950 1_455 S
C205 C204 1.414 . S
C205 C206 1.374 . S
C206 H180 0.950 1_455 S
C206 C202 1.385 . S
C206 C205 1.374 . S
C207 C204 1.499 . S
C207 C208 1.373 . S
C207 C209 1.389 . S
C208 H181 0.950 . S
C208 C194 1.377 . S
C208 C207 1.373 . S
C209 C193 1.377 . S
C209 C207 1.389 . S
C209 C210 1.524 . S
C210 C209 1.524 . S
C210 C211 1.397 . S
C210 C215 1.363 . S
C211 H182 0.950 1_455 S
C211 C210 1.397 . S
C211 C212 1.334 . S
C212 H183 0.950 1_455 S
C212 C211 1.334 . S
C212 C213 1.287 . S
C213 C212 1.287 . S
C213 C214 1.524 . S
C213 H216 0.999 . S
C214 H184 0.950 . S
C214 C213 1.524 . S
C214 C215 1.415 . S
C215 H185 0.950 . S
C215 C210 1.363 . S
C215 C214 1.415 . S
H216 C213 0.999 . S
H217 C198 0.913 . S
H218 C236 0.951 . S
H219 C238 0.951 . S
H220 C240 0.950 . S
H221 C241 0.950 . S
H222 C243 0.950 . S
H223 C246 0.950 . S
H224 C247 0.950 . S
H225 C249 0.950 . S
H226 C250 0.950 . S
H227 C251 0.951 . S
H228 C253 0.951 . S
H229 C255 0.950 . S
H230 C256 0.950 . S
H231 C258 0.950 . S
H232 C261 0.950 . S
H233 C262 0.950 . S
H234 C264 0.950 . S
H235 C265 0.950 . S
C236 H218 0.951 . S
C236 C237 1.366 . S
C236 C238 1.388 . S
C237 C236 1.366 . S
C237 C241 1.385 . S
C238 H219 0.951 . S
C238 C236 1.388 . S
C238 C239 1.366 . S
C239 C238 1.366 . S
C239 C240 1.414 . S
C239 C242 1.499 . S
C240 H220 0.950 . S
C240 C239 1.414 . S
C240 C241 1.374 . S
C241 H221 0.950 . S
C241 C237 1.385 . S
C241 C240 1.374 . S
C242 C239 1.499 . S
C242 C243 1.373 . S
C242 C244 1.389 . S
C243 H222 0.950 . S
C243 C242 1.373 . S
C243 C259 1.377 . S
C244 C242 1.389 . S
C244 C245 1.524 . S
C244 C258 1.377 . S
C245 C244 1.524 . S
C245 C246 1.397 1_545 S
C245 C250 1.363 . S
C246 H223 0.950 . S
C246 C245 1.397 1_565 S
C246 C247 1.334 . S
C247 H224 0.950 . S
C247 C246 1.334 . S
C247 C248 1.287 . S
C248 C247 1.287 . S
C248 C249 1.524 1_565 S
C248 H267 0.913 . S
C249 H225 0.950 . S
C249 C248 1.524 1_545 S
C249 C250 1.415 . S
C250 H226 0.950 . S
C250 C245 1.363 . S
C250 C249 1.415 . S
C251 H227 0.951 . S
C251 C252 1.366 . S
C251 C253 1.388 . S
C252 C251 1.366 . S
C252 C256 1.385 . S
C253 H228 0.951 . S
C253 C251 1.388 . S
C253 C254 1.366 . S
C254 C253 1.366 . S
C254 C255 1.414 . S
C254 C257 1.499 . S
C255 H229 0.950 . S
C255 C254 1.414 . S
C255 C256 1.374 . S
C256 H230 0.950 . S
C256 C252 1.385 . S
C256 C255 1.374 . S
C257 C254 1.499 . S
C257 C258 1.373 . S
C257 C259 1.389 . S
C258 H231 0.950 . S
C258 C244 1.377 . S
C258 C257 1.373 . S
C259 C243 1.377 . S
C259 C257 1.389 . S
C259 C260 1.524 . S
C260 C259 1.524 . S
C260 C261 1.397 . S
C260 C265 1.363 . S
C261 H232 0.950 . S
C261 C260 1.397 . S
C261 C262 1.334 . S
C262 H233 0.950 . S
C262 C261 1.334 . S
C262 C263 1.287 . S
C263 C262 1.287 . S
C263 C264 1.524 . S
C263 H266 0.999 . S
C264 H234 0.950 . S
C264 C263 1.524 . S
C264 C265 1.415 . S
C265 H235 0.950 . S
C265 C260 1.363 . S
C265 C264 1.415 . S
H266 C263 0.999 . S
H267 C248 0.913 . S
H268 C286 0.951 . S
H269 C288 0.951 . S
H270 C290 0.950 . S
H271 C291 0.950 . S
H272 C293 0.950 1_655 S
H273 C296 0.950 . S
H274 C297 0.950 . S
H275 C299 0.950 . S
H276 C300 0.950 . S
H277 C301 0.951 . S
H278 C303 0.951 . S
H279 C305 0.950 . S
H280 C306 0.950 . S
H281 C308 0.950 . S
H282 C311 0.950 . S
H283 C312 0.950 . S
H284 C314 0.950 . S
H285 C315 0.950 . S
C286 H268 0.951 . S
C286 C287 1.366 . S
C286 C288 1.388 . S
C287 C286 1.366 . S
C287 C291 1.385 . S
C288 H269 0.951 . S
C288 C286 1.388 . S
C288 C289 1.366 . S
C289 C288 1.366 . S
C289 C290 1.414 . S
C289 C292 1.499 . S
C290 H270 0.950 . S
C290 C289 1.414 . S
C290 C291 1.374 . S
C291 H271 0.950 . S
C291 C287 1.385 . S
C291 C290 1.374 . S
C292 C289 1.499 . S
C292 C293 1.373 . S
C292 C294 1.389 . S
C293 H272 0.950 1_455 S
C293 C292 1.373 . S
C293 C309 1.377 . S
C294 C292 1.389 . S
C294 C295 1.524 . S
C294 C308 1.377 . S
C295 C294 1.524 . S
C295 C296 1.397 . S
C295 C300 1.363 . S
C296 H273 0.950 . S
C296 C295 1.397 . S
C296 C297 1.334 . S
C297 H274 0.950 . S
C297 C296 1.334 . S
C297 C298 1.287 . S
C298 C297 1.287 . S
C298 C299 1.524 . S
C298 H317 0.913 . S
C299 H275 0.950 . S
C299 C298 1.524 . S
C299 C300 1.415 . S
C300 H276 0.950 . S
C300 C295 1.363 . S
C300 C299 1.415 . S
C301 H277 0.951 . S
C301 C302 1.366 . S
C301 C303 1.388 . S
C302 C301 1.366 . S
C302 C306 1.385 . S
C303 H278 0.951 . S
C303 C301 1.388 . S
C303 C304 1.366 . S
C304 C303 1.366 . S
C304 C305 1.414 . S
C304 C307 1.499 . S
C305 H279 0.950 . S
C305 C304 1.414 . S
C305 C306 1.374 . S
C306 H280 0.950 . S
C306 C302 1.385 . S
C306 C305 1.374 . S
C307 C304 1.499 . S
C307 C308 1.373 . S
C307 C309 1.389 . S
C308 H281 0.950 . S
C308 C294 1.377 . S
C308 C307 1.373 . S
C309 C293 1.377 . S
C309 C307 1.389 . S
C309 C310 1.524 1_455 S
C310 C309 1.524 1_655 S
C310 C311 1.397 . S
C310 C315 1.363 . S
C311 H282 0.950 . S
C311 C310 1.397 . S
C311 C312 1.334 . S
C312 H283 0.950 . S
C312 C311 1.334 . S
C312 C313 1.287 . S
C313 C312 1.287 . S
C313 C314 1.524 . S
C313 H316 0.999 . S
C314 H284 0.950 . S
C314 C313 1.524 . S
C314 C315 1.415 . S
C315 H285 0.950 . S
C315 C310 1.363 . S
C315 C314 1.415 . S
H316 C313 0.999 . S
H317 C298 0.913 . S
H318 C336 0.951 . S
H319 C338 0.951 . S
H320 C340 0.950 . S
H321 C341 0.950 . S
H322 C343 0.950 . S
H323 C346 0.950 . S
H324 C347 0.950 . S
H325 C349 0.950 . S
H326 C350 0.950 . S
H327 C351 0.951 . S
H328 C353 0.951 . S
H329 C355 0.950 . S
H330 C356 0.950 . S
H331 C358 0.950 . S
H332 C361 0.950 1_565 S
H333 C362 0.950 1_565 S
H334 C364 0.950 . S
H335 C365 0.950 . S
C336 H318 0.951 . S
C336 C337 1.366 . S
C336 C338 1.388 . S
C337 C336 1.366 . S
C337 C341 1.385 . S
C338 H319 0.951 . S
C338 C336 1.388 . S
C338 C339 1.366 . S
C339 C338 1.366 . S
C339 C340 1.414 . S
C339 C342 1.499 . S
C340 H320 0.950 . S
C340 C339 1.414 . S
C340 C341 1.374 . S
C341 H321 0.950 . S
C341 C337 1.385 . S
C341 C340 1.374 . S
C342 C339 1.499 . S
C342 C343 1.373 . S
C342 C344 1.389 . S
C343 H322 0.950 . S
C343 C342 1.373 . S
C343 C359 1.377 . S
C344 C342 1.389 . S
C344 C345 1.524 . S
C344 C358 1.377 . S
C345 C344 1.524 . S
C345 C346 1.397 . S
C345 C350 1.363 . S
C346 H323 0.950 . S
C346 C345 1.397 . S
C346 C347 1.334 . S
C347 H324 0.950 . S
C347 C346 1.334 . S
C347 C348 1.287 . S
C348 C347 1.287 . S
C348 C349 1.524 . S
C348 H367 0.913 . S
C349 H325 0.950 . S
C349 C348 1.524 . S
C349 C350 1.415 . S
C350 H326 0.950 . S
C350 C345 1.363 . S
C350 C349 1.415 . S
C351 H327 0.951 . S
C351 C352 1.366 . S
C351 C353 1.388 . S
C352 C351 1.366 . S
C352 C356 1.385 . S
C353 H328 0.951 . S
C353 C351 1.388 . S
C353 C354 1.366 . S
C354 C353 1.366 . S
C354 C355 1.414 . S
C354 C357 1.499 . S
C355 H329 0.950 . S
C355 C354 1.414 . S
C355 C356 1.374 . S
C356 H330 0.950 . S
C356 C352 1.385 . S
C356 C355 1.374 . S
C357 C354 1.499 . S
C357 C358 1.373 . S
C357 C359 1.389 . S
C358 H331 0.950 . S
C358 C344 1.377 . S
C358 C357 1.373 . S
C359 C343 1.377 . S
C359 C357 1.389 . S
C359 C360 1.524 . S
C360 C359 1.524 . S
C360 C361 1.397 . S
C360 C365 1.363 . S
C361 H332 0.950 1_545 S
C361 C360 1.397 . S
C361 C362 1.334 . S
C362 H333 0.950 1_545 S
C362 C361 1.334 . S
C362 C363 1.287 . S
C363 C362 1.287 . S
C363 C364 1.524 . S
C363 H366 0.999 . S
C364 H334 0.950 . S
C364 C363 1.524 . S
C364 C365 1.415 . S
C365 H335 0.950 . S
C365 C360 1.363 . S
C365 C364 1.415 . S
H366 C363 0.999 . S
H367 C348 0.913 . S
H368 C386 0.951 . S
H369 C388 0.951 . S
H370 C390 0.950 . S
H371 C391 0.950 . S
H372 C393 0.950 . S
H373 C396 0.950 . S
H374 C397 0.950 . S
H375 C399 0.950 . S
H376 C400 0.950 . S
H377 C401 0.952 1_655 S
H378 C403 0.951 1_655 S
H379 C405 0.950 . S
H380 C406 0.950 . S
H381 C408 0.950 . S
H382 C411 0.950 . S
H383 C412 0.950 . S
H384 C414 0.939 1_655 S
H385 C415 0.950 1_655 S
C386 H368 0.951 . S
C386 C387 1.366 . S
C386 C388 1.388 . S
C387 C386 1.366 . S
C387 C391 1.385 . S
C388 H369 0.951 . S
C388 C386 1.388 . S
C388 C389 1.366 . S
C389 C388 1.366 . S
C389 C390 1.414 . S
C389 C392 1.499 . S
C390 H370 0.950 . S
C390 C389 1.414 . S
C390 C391 1.374 . S
C391 H371 0.950 . S
C391 C387 1.385 . S
C391 C390 1.374 . S
C392 C389 1.499 . S
C392 C393 1.373 . S
C392 C394 1.389 . S
C393 H372 0.950 . S
C393 C392 1.373 . S
C393 C409 1.377 . S
C394 C392 1.389 . S
C394 C395 1.524 . S
C394 C408 1.377 . S
C395 C394 1.524 . S
C395 C396 1.397 . S
C395 C400 1.363 . S
C396 H373 0.950 . S
C396 C395 1.397 . S
C396 C397 1.334 . S
C397 H374 0.950 . S
C397 C396 1.334 . S
C397 C398 1.287 . S
C398 C397 1.287 . S
C398 C399 1.524 . S
C398 H417 0.913 . S
C399 H375 0.950 . S
C399 C398 1.524 . S
C399 C400 1.415 . S
C400 H376 0.950 . S
C400 C395 1.363 . S
C400 C399 1.415 . S
C401 H377 0.952 1_455 S
C401 C402 1.365 . S
C401 C403 1.387 . S
C402 C401 1.365 . S
C402 C406 1.385 . S
C403 H378 0.951 1_455 S
C403 C401 1.387 . S
C403 C404 1.366 . S
C404 C403 1.366 . S
C404 C405 1.414 . S
C404 C407 1.499 . S
C405 H379 0.950 . S
C405 C404 1.414 . S
C405 C406 1.374 . S
C406 H380 0.950 . S
C406 C402 1.385 . S
C406 C405 1.374 . S
C407 C404 1.499 . S
C407 C408 1.373 . S
C407 C409 1.389 . S
C408 H381 0.950 . S
C408 C394 1.377 . S
C408 C407 1.373 . S
C409 C393 1.377 . S
C409 C407 1.389 . S
C409 C410 1.524 . S
C410 C409 1.524 . S
C410 C411 1.397 . S
C410 C415 1.363 . S
C411 H382 0.950 . S
C411 C410 1.397 . S
C411 C412 1.334 . S
C412 H383 0.950 . S
C412 C411 1.334 . S
C412 C413 1.287 . S
C413 C412 1.287 . S
C413 C414 1.535 . S
C413 H416 0.999 . S
C414 H384 0.939 1_455 S
C414 C413 1.535 . S
C414 C415 1.416 . S
C415 H385 0.950 1_455 S
C415 C410 1.363 . S
C415 C414 1.416 . S
H416 C413 0.999 . S
H417 C398 0.913 . S
H418 C436 0.951 . S
H419 C438 0.951 . S
H420 C440 0.950 1_565 S
H421 C441 0.950 1_565 S
H422 C443 0.950 1_565 S
H423 C446 0.950 . S
H424 C447 0.950 . S
H425 C449 0.950 . S
H426 C450 0.950 . S
H427 C451 0.951 . S
H428 C453 0.951 . S
H429 C455 0.950 . S
H430 C456 0.950 . S
H431 C458 0.950 . S
H432 C461 0.950 . S
H433 C462 0.950 . S
H434 C464 0.950 . S
H435 C465 0.950 . S
C436 H418 0.951 . S
C436 C437 1.366 . S
C436 C438 1.388 . S
C437 C436 1.366 . S
C437 C441 1.385 . S
C438 H419 0.951 . S
C438 C436 1.388 . S
C438 C439 1.366 . S
C439 C438 1.366 . S
C439 C440 1.414 . S
C439 C442 1.499 . S
C440 H420 0.950 1_545 S
C440 C439 1.414 . S
C440 C441 1.374 . S
C441 H421 0.950 1_545 S
C441 C437 1.385 . S
C441 C440 1.374 . S
C442 C439 1.499 . S
C442 C443 1.373 . S
C442 C444 1.389 . S
C443 H422 0.950 1_545 S
C443 C442 1.373 . S
C443 C459 1.377 . S
C444 C442 1.389 . S
C444 C445 1.524 . S
C444 C458 1.377 . S
C445 C444 1.524 . S
C445 C446 1.397 . S
C445 C450 1.363 . S
C446 H423 0.950 . S
C446 C445 1.397 . S
C446 C447 1.334 . S
C447 H424 0.950 . S
C447 C446 1.334 . S
C447 C448 1.287 . S
C448 C447 1.287 . S
C448 C449 1.524 . S
C448 H467 0.913 . S
C449 H425 0.950 . S
C449 C448 1.524 . S
C449 C450 1.415 . S
C450 H426 0.950 . S
C450 C445 1.363 . S
C450 C449 1.415 . S
C451 H427 0.951 . S
C451 C452 1.366 1_565 S
C451 C453 1.388 . S
C452 C451 1.366 1_545 S
C452 C456 1.385 . S
C453 H428 0.951 . S
C453 C451 1.388 . S
C453 C454 1.366 1_565 S
C454 C453 1.366 1_545 S
C454 C455 1.414 . S
C454 C457 1.499 . S
C455 H429 0.950 . S
C455 C454 1.414 . S
C455 C456 1.374 . S
C456 H430 0.950 . S
C456 C452 1.385 . S
C456 C455 1.374 . S
C457 C454 1.499 . S
C457 C458 1.373 . S
C457 C459 1.389 . S
C458 H431 0.950 . S
C458 C444 1.377 . S
C458 C457 1.373 . S
C459 C443 1.377 . S
C459 C457 1.389 . S
C459 C460 1.524 1_545 S
C460 C459 1.524 1_565 S
C460 C461 1.397 . S
C460 C465 1.363 . S
C461 H432 0.950 . S
C461 C460 1.397 . S
C461 C462 1.334 . S
C462 H433 0.950 . S
C462 C461 1.334 . S
C462 C463 1.287 . S
C463 C462 1.287 . S
C463 C464 1.524 . S
C463 H466 0.999 . S
C464 H434 0.950 . S
C464 C463 1.524 . S
C464 C465 1.415 . S
C465 H435 0.950 . S
C465 C460 1.363 . S
C465 C464 1.415 . S
H466 C463 0.999 . S
H467 C448 0.913 . S
H468 C486 0.951 . S
H469 C488 0.951 . S
H470 C490 0.950 1_655 S
H471 C491 0.950 1_655 S
H472 C493 0.950 . S
H473 C496 0.950 . S
H474 C497 0.950 . S
H475 C499 0.950 . S
H476 C500 0.950 . S
H477 C501 0.951 . S
H478 C503 0.951 . S
H479 C505 0.950 . S
H480 C506 0.950 . S
H481 C508 0.950 . S
H482 C511 0.950 . S
H483 C512 0.950 . S
H484 C514 0.950 . S
H485 C515 0.950 . S
C486 H468 0.951 . S
C486 C487 1.366 . S
C486 C488 1.388 . S
C487 C486 1.366 . S
C487 C491 1.385 . S
C488 H469 0.951 . S
C488 C486 1.388 . S
C488 C489 1.366 . S
C489 C488 1.366 . S
C489 C490 1.414 . S
C489 C492 1.499 . S
C490 H470 0.950 1_455 S
C490 C489 1.414 . S
C490 C491 1.374 . S
C491 H471 0.950 1_455 S
C491 C487 1.385 . S
C491 C490 1.374 . S
C492 C489 1.499 . S
C492 C493 1.373 . S
C492 C494 1.389 . S
C493 H472 0.950 . S
C493 C492 1.373 . S
C493 C509 1.377 . S
C494 C492 1.389 . S
C494 C495 1.524 . S
C494 C508 1.377 . S
C495 C494 1.524 . S
C495 C496 1.397 . S
C495 C500 1.363 . S
C496 H473 0.950 . S
C496 C495 1.397 . S
C496 C497 1.334 . S
C497 H474 0.950 . S
C497 C496 1.334 . S
C497 C498 1.287 . S
C498 C497 1.287 . S
C498 C499 1.524 . S
C498 H517 0.913 . S
C499 H475 0.950 . S
C499 C498 1.524 . S
C499 C500 1.415 . S
C500 H476 0.950 . S
C500 C495 1.363 . S
C500 C499 1.415 . S
C501 H477 0.951 . S
C501 C502 1.366 1_655 S
C501 C503 1.388 . S
C502 C501 1.366 1_455 S
C502 C506 1.385 . S
C503 H478 0.951 . S
C503 C501 1.388 . S
C503 C504 1.366 1_655 S
C504 C503 1.366 1_455 S
C504 C505 1.414 . S
C504 C507 1.499 . S
C505 H479 0.950 . S
C505 C504 1.414 . S
C505 C506 1.374 . S
C506 H480 0.950 . S
C506 C502 1.385 . S
C506 C505 1.374 . S
C507 C504 1.499 . S
C507 C508 1.373 . S
C507 C509 1.389 . S
C508 H481 0.950 . S
C508 C494 1.377 . S
C508 C507 1.373 . S
C509 C493 1.377 . S
C509 C507 1.389 . S
C509 C510 1.524 1_455 S
C510 C509 1.524 1_655 S
C510 C511 1.397 1_655 S
C510 C515 1.363 . S
C511 H482 0.950 . S
C511 C510 1.397 1_455 S
C511 C512 1.334 . S
C512 H483 0.950 . S
C512 C511 1.334 . S
C512 C513 1.287 1_455 S
C513 C512 1.287 1_655 S
C513 C514 1.524 . S
C513 H516 0.999 . S
C514 H484 0.950 . S
C514 C513 1.524 . S
C514 C515 1.415 . S
C515 H485 0.950 . S
C515 C510 1.363 . S
C515 C514 1.415 . S
H516 C513 0.999 . S
H517 C498 0.913 . S
H518 C536 0.951 1_565 S
H519 C538 0.951 . S
H520 C540 0.950 . S
H521 C541 0.950 . S
H522 C543 0.950 . S
H523 C546 0.950 . S
H524 C547 0.950 . S
H525 C549 0.950 . S
H526 C550 0.950 . S
H527 C551 0.951 . S
H528 C553 0.951 . S
H529 C555 0.950 . S
H530 C556 0.950 . S
H531 C558 0.950 1_565 S
H532 C561 0.950 . S
H533 C562 0.950 . S
H534 C564 0.950 . S
H535 C565 0.950 . S
C536 H518 0.951 1_545 S
C536 C537 1.366 . S
C536 C538 1.388 . S
C537 C536 1.366 . S
C537 C541 1.385 . S
C538 H519 0.951 . S
C538 C536 1.388 . S
C538 C539 1.366 . S
C539 C538 1.366 . S
C539 C540 1.414 . S
C539 C542 1.499 . S
C540 H520 0.950 . S
C540 C539 1.414 . S
C540 C541 1.374 . S
C541 H521 0.950 . S
C541 C537 1.385 . S
C541 C540 1.374 . S
C542 C539 1.499 . S
C542 C543 1.373 . S
C542 C544 1.389 . S
C543 H522 0.950 . S
C543 C542 1.373 . S
C543 C559 1.377 . S
C544 C542 1.389 . S
C544 C545 1.524 1_545 S
C544 C558 1.377 . S
C545 C544 1.524 1_565 S
C545 C546 1.397 . S
C545 C550 1.363 . S
C546 H523 0.950 . S
C546 C545 1.397 . S
C546 C547 1.334 . S
C547 H524 0.950 . S
C547 C546 1.334 . S
C547 C548 1.287 . S
C548 C547 1.287 . S
C548 C549 1.524 . S
C548 H567 0.913 . S
C549 H525 0.950 . S
C549 C548 1.524 . S
C549 C550 1.415 . S
C550 H526 0.950 . S
C550 C545 1.363 . S
C550 C549 1.415 . S
C551 H527 0.951 . S
C551 C552 1.366 . S
C551 C553 1.388 . S
C552 C551 1.366 . S
C552 C556 1.385 . S
C553 H528 0.951 . S
C553 C551 1.388 . S
C553 C554 1.366 . S
C554 C553 1.366 . S
C554 C555 1.414 . S
C554 C557 1.499 . S
C555 H529 0.950 . S
C555 C554 1.414 . S
C555 C556 1.374 . S
C556 H530 0.950 . S
C556 C552 1.385 . S
C556 C555 1.374 . S
C557 C554 1.499 . S
C557 C558 1.373 . S
C557 C559 1.389 . S
C558 H531 0.950 1_545 S
C558 C544 1.377 . S
C558 C557 1.373 . S
C559 C543 1.377 . S
C559 C557 1.389 . S
C559 C560 1.524 . S
C560 C559 1.524 . S
C560 C561 1.397 . S
C560 C565 1.363 . S
C561 H532 0.950 . S
C561 C560 1.397 . S
C561 C562 1.334 . S
C562 H533 0.950 . S
C562 C561 1.334 . S
C562 C563 1.287 . S
C563 C562 1.287 . S
C563 C564 1.524 . S
C563 H566 0.999 . S
C564 H534 0.950 . S
C564 C563 1.524 . S
C564 C565 1.415 . S
C565 H535 0.950 . S
C565 C560 1.363 . S
C565 C564 1.415 . S
H566 C563 0.999 . S
H567 C548 0.913 . S
H568 C586 0.951 . S
H569 C588 0.951 . S
H570 C590 0.950 . S
H571 C591 0.950 . S
H572 C593 0.950 1_556 S
H573 C596 0.950 . S
H574 C597 0.950 . S
H575 C599 0.950 . S
H576 C600 0.950 . S
H577 C601 0.951 1_556 S
H578 C603 0.951 1_556 S
H579 C605 0.950 . S
H580 C606 0.950 . S
H581 C608 0.950 . S
H582 C611 0.963 . S
H583 C612 0.950 . S
H584 C614 0.950 . S
H585 C615 0.950 . S
C586 H568 0.951 . S
C586 C587 1.366 . S
C586 C588 1.388 . S
C587 C586 1.366 . S
C587 C591 1.385 . S
C588 H569 0.951 . S
C588 C586 1.388 . S
C588 C589 1.366 . S
C589 C588 1.366 . S
C589 C590 1.414 . S
C589 C592 1.499 . S
C590 H570 0.950 . S
C590 C589 1.414 . S
C590 C591 1.374 . S
C591 H571 0.950 . S
C591 C587 1.385 . S
C591 C590 1.374 . S
C592 C589 1.499 . S
C592 C593 1.373 . S
C592 C594 1.389 . S
C593 H572 0.950 1_554 S
C593 C592 1.373 . S
C593 C609 1.377 . S
C594 C592 1.389 . S
C594 C595 1.524 . S
C594 C608 1.377 . S
C595 C594 1.524 . S
C595 C596 1.397 . S
C595 C600 1.363 . S
C596 H573 0.950 . S
C596 C595 1.397 . S
C596 C597 1.334 . S
C597 H574 0.950 . S
C597 C596 1.334 . S
C597 C598 1.287 . S
C598 C597 1.287 . S
C598 C599 1.524 . S
C598 H617 0.913 . S
C599 H575 0.950 . S
C599 C598 1.524 . S
C599 C600 1.415 . S
C600 H576 0.950 . S
C600 C595 1.363 . S
C600 C599 1.415 . S
C601 H577 0.951 1_554 S
C601 C602 1.366 . S
C601 C603 1.388 . S
C602 C601 1.366 . S
C602 C606 1.385 . S
C603 H578 0.951 1_554 S
C603 C601 1.388 . S
C603 C604 1.366 . S
C604 C603 1.366 . S
C604 C605 1.414 . S
C604 C607 1.499 . S
C605 H579 0.950 . S
C605 C604 1.414 . S
C605 C606 1.374 . S
C606 H580 0.950 . S
C606 C602 1.385 . S
C606 C605 1.374 . S
C607 C604 1.499 . S
C607 C608 1.373 . S
C607 C609 1.389 . S
C608 H581 0.950 . S
C608 C594 1.377 . S
C608 C607 1.373 . S
C609 C593 1.377 . S
C609 C607 1.389 . S
C609 C610 1.524 1_554 S
C610 C609 1.524 1_556 S
C610 C611 1.397 . S
C610 C615 1.363 . S
C611 H582 0.963 . S
C611 C610 1.397 . S
C611 C612 1.334 . S
C612 H583 0.950 . S
C612 C611 1.334 . S
C612 C613 1.287 . S
C613 C612 1.287 . S
C613 C614 1.524 . S
C613 H616 0.999 . S
C614 H584 0.950 . S
C614 C613 1.524 . S
C614 C615 1.415 . S
C615 H585 0.950 . S
C615 C610 1.363 . S
C615 C614 1.415 . S
H616 C613 0.999 . S
H617 C598 0.913 . S
H618 C636 0.951 . S
H619 C638 0.951 . S
H620 C640 0.950 . S
H621 C641 0.950 . S
H622 C643 0.950 . S
H623 C646 0.950 . S
H624 C647 0.950 . S
H625 C649 0.950 . S
H626 C650 0.950 . S
H627 C651 0.951 . S
H628 C653 0.951 . S
H629 C655 0.950 . S
H630 C656 0.950 . S
H631 C658 0.950 . S
H632 C661 0.952 . S
H633 C662 0.950 . S
H634 C664 0.950 . S
H635 C665 0.950 . S
C636 H618 0.951 . S
C636 C637 1.366 . S
C636 C638 1.388 . S
C637 C636 1.366 . S
C637 C641 1.385 . S
C638 H619 0.951 . S
C638 C636 1.388 . S
C638 C639 1.366 . S
C639 C638 1.366 . S
C639 C640 1.414 . S
C639 C642 1.499 . S
C640 H620 0.950 . S
C640 C639 1.414 . S
C640 C641 1.374 . S
C641 H621 0.950 . S
C641 C637 1.385 . S
C641 C640 1.374 . S
C642 C639 1.499 . S
C642 C643 1.373 . S
C642 C644 1.389 . S
C643 H622 0.950 . S
C643 C642 1.373 . S
C643 C659 1.377 . S
C644 C642 1.389 . S
C644 C645 1.524 . S
C644 C658 1.377 . S
C645 C644 1.524 . S
C645 C646 1.397 . S
C645 C650 1.363 . S
C646 H623 0.950 . S
C646 C645 1.397 . S
C646 C647 1.334 . S
C647 H624 0.950 . S
C647 C646 1.334 . S
C647 C648 1.287 . S
C648 C647 1.287 . S
C648 C649 1.524 . S
C648 H667 0.913 . S
C649 H625 0.950 . S
C649 C648 1.524 . S
C649 C650 1.415 . S
C650 H626 0.950 . S
C650 C645 1.363 . S
C650 C649 1.415 . S
C651 H627 0.951 . S
C651 C652 1.366 . S
C651 C653 1.388 . S
C652 C651 1.366 . S
C652 C656 1.385 . S
C653 H628 0.951 . S
C653 C651 1.388 . S
C653 C654 1.366 . S
C654 C653 1.366 . S
C654 C655 1.414 . S
C654 C657 1.499 . S
C655 H629 0.950 . S
C655 C654 1.414 . S
C655 C656 1.374 . S
C656 H630 0.950 . S
C656 C652 1.385 . S
C656 C655 1.374 . S
C657 C654 1.499 . S
C657 C658 1.373 . S
C657 C659 1.389 . S
C658 H631 0.950 . S
C658 C644 1.377 . S
C658 C657 1.373 . S
C659 C643 1.377 . S
C659 C657 1.389 . S
C659 C660 1.524 . S
C660 C659 1.524 . S
C660 C661 1.370 1_554 S
C660 C665 1.363 . S
C661 H632 0.952 . S
C661 C660 1.370 1_556 S
C661 C662 1.359 . S
C662 H633 0.950 . S
C662 C661 1.359 . S
C662 C663 1.287 . S
C663 C662 1.287 . S
C663 C664 1.524 1_556 S
C663 H666 0.999 . S
C664 H634 0.950 . S
C664 C663 1.524 1_554 S
C664 C665 1.415 . S
C665 H635 0.950 . S
C665 C660 1.363 . S
C665 C664 1.415 . S
H666 C663 0.999 . S
H667 C648 0.913 . S
H668 C686 0.951 . S
H669 C688 0.951 . S
H670 C690 0.950 . S
H671 C691 0.950 . S
H672 C693 0.950 . S
H673 C696 0.950 . S
H674 C697 0.950 . S
H675 C699 0.950 . S
H676 C700 0.950 1_554 S
H677 C701 0.951 . S
H678 C703 0.951 . S
H679 C705 0.950 . S
H680 C706 0.950 . S
H681 C708 0.950 . S
H682 C711 0.950 . S
H683 C712 0.950 . S
H684 C714 0.950 . S
H685 C715 0.950 . S
C686 H668 0.951 . S
C686 C687 1.366 . S
C686 C688 1.388 . S
C687 C686 1.366 . S
C687 C691 1.385 . S
C688 H669 0.951 . S
C688 C686 1.388 . S
C688 C689 1.366 . S
C689 C688 1.366 . S
C689 C690 1.414 . S
C689 C692 1.499 . S
C690 H670 0.950 . S
C690 C689 1.414 . S
C690 C691 1.374 . S
C691 H671 0.950 . S
C691 C687 1.385 . S
C691 C690 1.374 . S
C692 C689 1.499 . S
C692 C693 1.373 . S
C692 C694 1.389 . S
C693 H672 0.950 . S
C693 C692 1.373 . S
C693 C709 1.377 . S
C694 C692 1.389 . S
C694 C695 1.524 1_554 S
C694 C708 1.377 . S
C695 C694 1.524 1_556 S
C695 C696 1.397 . S
C695 C700 1.363 . S
C696 H673 0.950 . S
C696 C695 1.397 . S
C696 C697 1.334 . S
C697 H674 0.950 . S
C697 C696 1.334 . S
C697 C698 1.287 . S
C698 C697 1.287 . S
C698 C699 1.524 . S
C698 H717 0.913 . S
C699 H675 0.950 . S
C699 C698 1.524 . S
C699 C700 1.415 . S
C700 H676 0.950 1_556 S
C700 C695 1.363 . S
C700 C699 1.415 . S
C701 H677 0.951 . S
C701 C702 1.366 . S
C701 C703 1.388 . S
C702 C701 1.366 . S
C702 C706 1.385 . S
C703 H678 0.951 . S
C703 C701 1.388 . S
C703 C704 1.366 . S
C704 C703 1.366 . S
C704 C705 1.414 . S
C704 C707 1.499 . S
C705 H679 0.950 . S
C705 C704 1.414 . S
C705 C706 1.374 . S
C706 H680 0.950 . S
C706 C702 1.385 . S
C706 C705 1.374 . S
C707 C704 1.499 . S
C707 C708 1.373 . S
C707 C709 1.389 . S
C708 H681 0.950 . S
C708 C694 1.377 . S
C708 C707 1.373 . S
C709 C693 1.377 . S
C709 C707 1.389 . S
C709 C710 1.524 . S
C710 C709 1.524 . S
C710 C711 1.397 . S
C710 C715 1.363 . S
C711 H682 0.950 . S
C711 C710 1.397 . S
C711 C712 1.334 . S
C712 H683 0.950 . S
C712 C711 1.334 . S
C712 C713 1.287 . S
C713 C712 1.287 . S
C713 C714 1.524 . S
C713 H716 0.999 . S
C714 H684 0.950 . S
C714 C713 1.524 . S
C714 C715 1.415 . S
C715 H685 0.950 . S
C715 C710 1.363 . S
C715 C714 1.415 . S
H716 C713 0.999 . S
H717 C698 0.913 . S
H718 C736 0.951 . S
H719 C738 0.951 . S
H720 C740 0.950 . S
H721 C741 0.950 . S
H722 C743 0.950 . S
H723 C746 0.950 . S
H724 C747 0.950 . S
H725 C749 0.950 . S
H726 C750 0.950 . S
H727 C751 0.951 . S
H728 C753 0.951 . S
H729 C755 0.950 . S
H730 C756 0.950 . S
H731 C758 0.950 . S
H732 C761 0.950 . S
H733 C762 0.950 . S
H734 C764 0.950 . S
H735 C765 0.950 . S
C736 H718 0.951 . S
C736 C737 1.366 . S
C736 C738 1.388 . S
C737 C736 1.366 . S
C737 C741 1.385 . S
C738 H719 0.951 . S
C738 C736 1.388 . S
C738 C739 1.366 . S
C739 C738 1.366 . S
C739 C740 1.414 . S
C739 C742 1.499 . S
C740 H720 0.950 . S
C740 C739 1.414 . S
C740 C741 1.374 . S
C741 H721 0.950 . S
C741 C737 1.385 . S
C741 C740 1.374 . S
C742 C739 1.499 . S
C742 C743 1.373 . S
C742 C744 1.389 . S
C743 H722 0.950 . S
C743 C742 1.373 . S
C743 C759 1.377 . S
C744 C742 1.389 . S
C744 C745 1.524 . S
C744 C758 1.377 . S
C745 C744 1.524 . S
C745 C746 1.397 1_554 S
C745 C750 1.363 . S
C746 H723 0.950 . S
C746 C745 1.397 1_556 S
C746 C747 1.334 . S
C747 H724 0.950 . S
C747 C746 1.334 . S
C747 C748 1.287 . S
C748 C747 1.287 . S
C748 C749 1.524 . S
C748 H767 0.913 . S
C749 H725 0.950 . S
C749 C748 1.524 . S
C749 C750 1.415 1_556 S
C750 H726 0.950 . S
C750 C745 1.363 . S
C750 C749 1.415 1_554 S
C751 H727 0.951 . S
C751 C752 1.366 . S
C751 C753 1.388 . S
C752 C751 1.366 . S
C752 C756 1.385 . S
C753 H728 0.951 . S
C753 C751 1.388 . S
C753 C754 1.366 . S
C754 C753 1.366 . S
C754 C755 1.414 . S
C754 C757 1.499 . S
C755 H729 0.950 . S
C755 C754 1.414 . S
C755 C756 1.374 . S
C756 H730 0.950 . S
C756 C752 1.385 . S
C756 C755 1.374 . S
C757 C754 1.499 . S
C757 C758 1.373 . S
C757 C759 1.389 . S
C758 H731 0.950 . S
C758 C744 1.377 . S
C758 C757 1.373 . S
C759 C743 1.377 . S
C759 C757 1.389 . S
C759 C760 1.524 . S
C760 C759 1.524 . S
C760 C761 1.397 . S
C760 C765 1.363 . S
C761 H732 0.950 . S
C761 C760 1.397 . S
C761 C762 1.334 . S
C762 H733 0.950 . S
C762 C761 1.334 . S
C762 C763 1.287 . S
C763 C762 1.287 . S
C763 C764 1.524 . S
C763 H766 0.999 . S
C764 H734 0.950 . S
C764 C763 1.524 . S
C764 C765 1.415 . S
C765 H735 0.950 . S
C765 C760 1.363 . S
C765 C764 1.415 . S
H766 C763 0.999 . S
H767 C748 0.913 . S
H768 C786 0.951 . S
H769 C788 0.951 . S
H770 C790 0.950 . S
H771 C791 0.950 . S
H772 C793 0.950 . S
H773 C796 0.950 . S
H774 C797 0.950 . S
H775 C799 0.950 . S
H776 C800 0.950 . S
H777 C801 0.951 . S
H778 C803 0.951 . S
H779 C805 0.950 . S
H780 C806 0.950 . S
H781 C808 0.950 . S
H782 C811 0.950 . S
H783 C812 0.950 . S
H784 C814 0.950 . S
H785 C815 0.950 . S
C786 H768 0.951 . S
C786 C787 1.366 . S
C786 C788 1.388 1_554 S
C787 C786 1.366 . S
C787 C791 1.385 1_554 S
C788 H769 0.951 . S
C788 C786 1.388 1_556 S
C788 C789 1.366 . S
C789 C788 1.366 . S
C789 C790 1.414 . S
C789 C792 1.499 . S
C790 H770 0.950 . S
C790 C789 1.414 . S
C790 C791 1.374 . S
C791 H771 0.950 . S
C791 C787 1.385 1_556 S
C791 C790 1.374 . S
C792 C789 1.499 . S
C792 C793 1.373 . S
C792 C794 1.389 . S
C793 H772 0.950 . S
C793 C792 1.373 . S
C793 C809 1.377 . S
C794 C792 1.389 . S
C794 C795 1.524 . S
C794 C808 1.377 . S
C795 C794 1.524 . S
C795 C796 1.397 . S
C795 C800 1.363 . S
C796 H773 0.950 . S
C796 C795 1.397 . S
C796 C797 1.334 . S
C797 H774 0.950 . S
C797 C796 1.334 . S
C797 C798 1.287 . S
C798 C797 1.287 . S
C798 C799 1.524 . S
C798 H817 0.913 . S
C799 H775 0.950 . S
C799 C798 1.524 . S
C799 C800 1.415 . S
C800 H776 0.950 . S
C800 C795 1.363 . S
C800 C799 1.415 . S
C801 H777 0.951 . S
C801 C802 1.366 . S
C801 C803 1.388 . S
C802 C801 1.366 . S
C802 C806 1.385 . S
C803 H778 0.951 . S
C803 C801 1.388 . S
C803 C804 1.366 . S
C804 C803 1.366 . S
C804 C805 1.414 . S
C804 C807 1.499 . S
C805 H779 0.950 . S
C805 C804 1.414 . S
C805 C806 1.374 . S
C806 H780 0.950 . S
C806 C802 1.385 . S
C806 C805 1.374 . S
C807 C804 1.499 . S
C807 C808 1.373 . S
C807 C809 1.389 . S
C808 H781 0.950 . S
C808 C794 1.377 . S
C808 C807 1.373 . S
C809 C793 1.377 . S
C809 C807 1.389 . S
C809 C810 1.524 . S
C810 C809 1.524 . S
C810 C811 1.397 . S
C810 C815 1.363 . S
C811 H782 0.950 . S
C811 C810 1.397 . S
C811 C812 1.334 . S
C812 H783 0.950 . S
C812 C811 1.334 . S
C812 C813 1.287 . S
C813 C812 1.287 . S
C813 C814 1.524 . S
C813 H816 0.999 . S
C814 H784 0.950 . S
C814 C813 1.524 . S
C814 C815 1.415 . S
C815 H785 0.950 . S
C815 C810 1.363 . S
C815 C814 1.415 . S
H816 C813 0.999 . S
H817 C798 0.913 . S
H818 C836 0.951 . S
H819 C838 0.951 . S
H820 C840 0.950 . S
H821 C841 0.950 . S
H822 C843 0.950 . S
H823 C846 0.950 . S
H824 C847 0.950 . S
H825 C849 0.950 . S
H826 C850 0.950 . S
H827 C851 0.951 . S
H828 C853 0.951 . S
H829 C855 0.950 . S
H830 C856 0.950 . S
H831 C858 0.950 . S
H832 C861 0.950 . S
H833 C862 0.950 . S
H834 C864 0.950 . S
H835 C865 0.950 . S
C836 H818 0.951 . S
C836 C837 1.366 . S
C836 C838 1.388 . S
C837 C836 1.366 . S
C837 C841 1.385 . S
C838 H819 0.951 . S
C838 C836 1.388 . S
C838 C839 1.366 . S
C839 C838 1.366 . S
C839 C840 1.414 . S
C839 C842 1.499 . S
C840 H820 0.950 . S
C840 C839 1.414 . S
C840 C841 1.374 . S
C841 H821 0.950 . S
C841 C837 1.385 . S
C841 C840 1.374 . S
C842 C839 1.499 . S
C842 C843 1.373 . S
C842 C844 1.389 . S
C843 H822 0.950 . S
C843 C842 1.373 . S
C843 C859 1.377 . S
C844 C842 1.389 . S
C844 C845 1.524 . S
C844 C858 1.377 . S
C845 C844 1.524 . S
C845 C846 1.397 . S
C845 C850 1.363 . S
C846 H823 0.950 . S
C846 C845 1.397 . S
C846 C847 1.334 . S
C847 H824 0.950 . S
C847 C846 1.334 . S
C847 C848 1.287 . S
C848 C847 1.287 . S
C848 C849 1.524 . S
C848 H867 0.913 . S
C849 H825 0.950 . S
C849 C848 1.524 . S
C849 C850 1.415 . S
C850 H826 0.950 . S
C850 C845 1.363 . S
C850 C849 1.415 . S
C851 H827 0.951 . S
C851 C852 1.366 . S
C851 C853 1.388 . S
C852 C851 1.366 . S
C852 C856 1.385 . S
C853 H828 0.951 . S
C853 C851 1.388 . S
C853 C854 1.366 . S
C854 C853 1.366 . S
C854 C855 1.414 . S
C854 C857 1.499 . S
C855 H829 0.950 . S
C855 C854 1.414 . S
C855 C856 1.374 . S
C856 H830 0.950 . S
C856 C852 1.385 . S
C856 C855 1.374 . S
C857 C854 1.499 . S
C857 C858 1.373 . S
C857 C859 1.389 . S
C858 H831 0.950 . S
C858 C844 1.377 . S
C858 C857 1.373 . S
C859 C843 1.377 . S
C859 C857 1.389 . S
C859 C860 1.524 . S
C860 C859 1.524 . S
C860 C861 1.397 . S
C860 C865 1.363 . S
C861 H832 0.950 . S
C861 C860 1.397 . S
C861 C862 1.334 . S
C862 H833 0.950 . S
C862 C861 1.334 . S
C862 C863 1.287 . S
C863 C862 1.287 . S
C863 C864 1.524 . S
C863 H866 0.999 . S
C864 H834 0.950 . S
C864 C863 1.524 . S
C864 C865 1.415 . S
C865 H835 0.950 . S
C865 C860 1.363 . S
C865 C864 1.415 . S
H866 C863 0.999 . S
H867 C848 0.913 . S
H868 C886 0.951 . S
H869 C888 0.951 . S
H870 C890 0.950 . S
H871 C891 0.950 . S
H872 C893 0.950 . S
H873 C896 0.950 . S
H874 C897 0.950 . S
H875 C899 0.950 . S
H876 C900 0.950 . S
H877 C901 0.951 . S
H878 C903 0.951 . S
H879 C905 0.950 . S
H880 C906 0.950 . S
H881 C908 0.950 . S
H882 C911 0.950 . S
H883 C912 0.950 . S
H884 C914 0.950 . S
H885 C915 0.950 . S
C886 H868 0.951 . S
C886 C887 1.366 . S
C886 C888 1.388 . S
C887 C886 1.366 . S
C887 C891 1.385 . S
C888 H869 0.951 . S
C888 C886 1.388 . S
C888 C889 1.366 . S
C889 C888 1.366 . S
C889 C890 1.414 . S
C889 C892 1.499 . S
C890 H870 0.950 . S
C890 C889 1.414 . S
C890 C891 1.374 . S
C891 H871 0.950 . S
C891 C887 1.385 . S
C891 C890 1.374 . S
C892 C889 1.499 . S
C892 C893 1.373 . S
C892 C894 1.389 . S
C893 H872 0.950 . S
C893 C892 1.373 . S
C893 C909 1.377 . S
C894 C892 1.389 . S
C894 C895 1.524 . S
C894 C908 1.377 . S
C895 C894 1.524 . S
C895 C896 1.397 . S
C895 C900 1.363 . S
C896 H873 0.950 . S
C896 C895 1.397 . S
C896 C897 1.334 . S
C897 H874 0.950 . S
C897 C896 1.334 . S
C897 C898 1.287 . S
C898 C897 1.287 . S
C898 C899 1.524 . S
C898 H917 0.913 . S
C899 H875 0.950 . S
C899 C898 1.524 . S
C899 C900 1.415 . S
C900 H876 0.950 . S
C900 C895 1.363 . S
C900 C899 1.415 . S
C901 H877 0.951 . S
C901 C902 1.366 . S
C901 C903 1.388 . S
C902 C901 1.366 . S
C902 C906 1.385 . S
C903 H878 0.951 . S
C903 C901 1.388 . S
C903 C904 1.366 . S
C904 C903 1.366 . S
C904 C905 1.414 . S
C904 C907 1.499 . S
C905 H879 0.950 . S
C905 C904 1.414 . S
C905 C906 1.374 . S
C906 H880 0.950 . S
C906 C902 1.385 . S
C906 C905 1.374 . S
C907 C904 1.499 . S
C907 C908 1.373 . S
C907 C909 1.389 . S
C908 H881 0.950 . S
C908 C894 1.377 . S
C908 C907 1.373 . S
C909 C893 1.377 . S
C909 C907 1.389 . S
C909 C910 1.524 . S
C910 C909 1.524 . S
C910 C911 1.397 . S
C910 C915 1.363 . S
C911 H882 0.950 . S
C911 C910 1.397 . S
C911 C912 1.334 . S
C912 H883 0.950 . S
C912 C911 1.334 . S
C912 C913 1.287 . S
C913 C912 1.287 . S
C913 C914 1.524 . S
C913 H916 0.999 . S
C914 H884 0.950 . S
C914 C913 1.524 . S
C914 C915 1.415 . S
C915 H885 0.950 . S
C915 C910 1.363 . S
C915 C914 1.415 . S
H916 C913 0.999 . S
H917 C898 0.913 . S
H918 C936 0.951 . S
H919 C938 0.951 . S
H920 C940 0.950 . S
H921 C941 0.950 . S
H922 C943 0.950 . S
H923 C946 0.950 . S
H924 C947 0.950 . S
H925 C949 0.950 . S
H926 C950 0.950 . S
H927 C951 0.951 . S
H928 C953 0.951 . S
H929 C955 0.950 . S
H930 C956 0.950 . S
H931 C958 0.950 . S
H932 C961 0.950 . S
H933 C962 0.950 1_554 S
H934 C964 0.950 . S
H935 C965 0.950 . S
C936 H918 0.951 . S
C936 C937 1.366 . S
C936 C938 1.388 . S
C937 C936 1.366 . S
C937 C941 1.385 . S
C938 H919 0.951 . S
C938 C936 1.388 . S
C938 C939 1.366 . S
C939 C938 1.366 . S
C939 C940 1.414 . S
C939 C942 1.499 . S
C940 H920 0.950 . S
C940 C939 1.414 . S
C940 C941 1.374 . S
C941 H921 0.950 . S
C941 C937 1.385 . S
C941 C940 1.374 . S
C942 C939 1.499 . S
C942 C943 1.373 . S
C942 C944 1.389 . S
C943 H922 0.950 . S
C943 C942 1.373 . S
C943 C959 1.377 . S
C944 C942 1.389 . S
C944 C945 1.524 . S
C944 C958 1.377 . S
C945 C944 1.524 . S
C945 C946 1.397 . S
C945 C950 1.363 . S
C946 H923 0.950 . S
C946 C945 1.397 . S
C946 C947 1.334 . S
C947 H924 0.950 . S
C947 C946 1.334 . S
C947 C948 1.287 . S
C948 C947 1.287 . S
C948 C949 1.524 . S
C948 H967 0.913 . S
C949 H925 0.950 . S
C949 C948 1.524 . S
C949 C950 1.415 . S
C950 H926 0.950 . S
C950 C945 1.363 . S
C950 C949 1.415 . S
C951 H927 0.951 . S
C951 C952 1.366 . S
C951 C953 1.388 . S
C952 C951 1.366 . S
C952 C956 1.385 . S
C953 H928 0.951 . S
C953 C951 1.388 . S
C953 C954 1.366 . S
C954 C953 1.366 . S
C954 C955 1.414 . S
C954 C957 1.499 . S
C955 H929 0.950 . S
C955 C954 1.414 . S
C955 C956 1.374 . S
C956 H930 0.950 . S
C956 C952 1.385 . S
C956 C955 1.374 . S
C957 C954 1.499 . S
C957 C958 1.373 . S
C957 C959 1.389 . S
C958 H931 0.950 . S
C958 C944 1.377 . S
C958 C957 1.373 . S
C959 C943 1.377 . S
C959 C957 1.389 . S
C959 C960 1.524 . S
C960 C959 1.524 . S
C960 C961 1.397 . S
C960 C965 1.363 . S
C961 H932 0.950 . S
C961 C960 1.397 . S
C961 C962 1.334 . S
C962 H933 0.950 1_556 S
C962 C961 1.334 . S
C962 C963 1.287 . S
C963 C962 1.287 . S
C963 C964 1.524 . S
C963 H966 0.999 1_556 S
C964 H934 0.950 . S
C964 C963 1.524 . S
C964 C965 1.415 . S
C965 H935 0.950 . S
C965 C960 1.363 . S
C965 C964 1.415 . S
H966 C963 0.999 1_554 S
H967 C948 0.913 . S
H968 C986 0.951 . S
H969 C988 0.951 . S
H970 C990 0.950 . S
H971 C991 0.950 . S
H972 C993 0.950 . S
H973 C996 0.950 . S
H974 C997 0.950 . S
H975 C999 0.950 . S
H976 C1000 0.950 . S
H977 C1001 0.951 . S
H978 C1003 0.951 . S
H979 C1005 0.950 . S
H980 C1006 0.950 . S
H981 C1008 0.950 . S
H982 C1011 0.950 . S
H983 C1012 0.950 . S
H984 C1014 0.950 . S
H985 C1015 0.950 . S
C986 H968 0.951 . S
C986 C987 1.366 . S
C986 C988 1.388 . S
C987 C986 1.366 . S
C987 C991 1.385 . S
C988 H969 0.951 . S
C988 C986 1.388 . S
C988 C989 1.366 . S
C989 C988 1.366 . S
C989 C990 1.414 . S
C989 C992 1.499 . S
C990 H970 0.950 . S
C990 C989 1.414 . S
C990 C991 1.374 . S
C991 H971 0.950 . S
C991 C987 1.385 . S
C991 C990 1.374 . S
C992 C989 1.499 . S
C992 C993 1.373 . S
C992 C994 1.389 . S
C993 H972 0.950 . S
C993 C992 1.373 . S
C993 C1009 1.377 . S
C994 C992 1.389 . S
C994 C995 1.524 . S
C994 C1008 1.377 . S
C995 C994 1.524 . S
C995 C996 1.397 . S
C995 C1000 1.363 . S
C996 H973 0.950 . S
C996 C995 1.397 . S
C996 C997 1.334 . S
C997 H974 0.950 . S
C997 C996 1.334 . S
C997 C998 1.287 . S
C998 C997 1.287 . S
C998 C999 1.524 . S
C998 H1017 0.913 . S
C999 H975 0.950 . S
C999 C998 1.524 . S
C999 C1000 1.415 . S
C1000 H976 0.950 . S
C1000 C995 1.363 . S
C1000 C999 1.415 . S
C1001 H977 0.951 . S
C1001 C1002 1.366 . S
C1001 C1003 1.388 . S
C1002 C1001 1.366 . S
C1002 C1006 1.385 . S
C1003 H978 0.951 . S
C1003 C1001 1.388 . S
C1003 C1004 1.366 . S
C1004 C1003 1.366 . S
C1004 C1005 1.414 . S
C1004 C1007 1.499 . S
C1005 H979 0.950 . S
C1005 C1004 1.414 . S
C1005 C1006 1.374 . S
C1006 H980 0.950 . S
C1006 C1002 1.385 . S
C1006 C1005 1.374 . S
C1007 C1004 1.499 . S
C1007 C1008 1.373 . S
C1007 C1009 1.389 . S
C1008 H981 0.950 . S
C1008 C994 1.377 . S
C1008 C1007 1.373 . S
C1009 C993 1.377 . S
C1009 C1007 1.389 . S
C1009 C1010 1.524 . S
C1010 C1009 1.524 . S
C1010 C1011 1.397 . S
C1010 C1015 1.363 . S
C1011 H982 0.950 . S
C1011 C1010 1.397 . S
C1011 C1012 1.334 . S
C1012 H983 0.950 . S
C1012 C1011 1.334 . S
C1012 C1013 1.287 . S
C1013 C1012 1.287 . S
C1013 C1014 1.524 . S
C1013 H1016 0.999 . S
C1014 H984 0.950 . S
C1014 C1013 1.524 . S
C1014 C1015 1.415 . S
C1015 H985 0.950 . S
C1015 C1010 1.363 . S
C1015 C1014 1.415 . S
H1016 C1013 0.999 . S
H1017 C998 0.913 . S
H1018 C1036 0.951 . S
H1019 C1038 0.951 . S
H1020 C1040 0.950 . S
H1021 C1041 0.950 . S
H1022 C1043 0.950 . S
H1023 C1046 0.950 . S
H1024 C1047 0.950 . S
H1025 C1049 0.950 . S
H1026 C1050 0.950 . S
H1027 C1051 0.951 . S
H1028 C1053 0.951 . S
H1029 C1055 0.950 . S
H1030 C1056 0.950 . S
H1031 C1058 0.950 . S
H1032 C1061 0.950 . S
H1033 C1062 0.950 . S
H1034 C1064 0.950 . S
H1035 C1065 0.950 . S
C1036 H1018 0.951 . S
C1036 C1037 1.366 . S
C1036 C1038 1.388 . S
C1037 C1036 1.366 . S
C1037 C1041 1.385 . S
C1038 H1019 0.951 . S
C1038 C1036 1.388 . S
C1038 C1039 1.366 . S
C1039 C1038 1.366 . S
C1039 C1040 1.414 . S
C1039 C1042 1.499 . S
C1040 H1020 0.950 . S
C1040 C1039 1.414 . S
C1040 C1041 1.374 . S
C1041 H1021 0.950 . S
C1041 C1037 1.385 . S
C1041 C1040 1.374 . S
C1042 C1039 1.499 . S
C1042 C1043 1.373 . S
C1042 C1044 1.389 . S
C1043 H1022 0.950 . S
C1043 C1042 1.373 . S
C1043 C1059 1.377 . S
C1044 C1042 1.389 . S
C1044 C1045 1.524 . S
C1044 C1058 1.377 . S
C1045 C1044 1.524 . S
C1045 C1046 1.397 . S
C1045 C1050 1.363 . S
C1046 H1023 0.950 . S
C1046 C1045 1.397 . S
C1046 C1047 1.334 . S
C1047 H1024 0.950 . S
C1047 C1046 1.334 . S
C1047 C1048 1.287 . S
C1048 C1047 1.287 . S
C1048 C1049 1.524 . S
C1048 H1067 0.913 . S
C1049 H1025 0.950 . S
C1049 C1048 1.524 . S
C1049 C1050 1.415 . S
C1050 H1026 0.950 . S
C1050 C1045 1.363 . S
C1050 C1049 1.415 . S
C1051 H1027 0.951 . S
C1051 C1052 1.366 . S
C1051 C1053 1.388 . S
C1052 C1051 1.366 . S
C1052 C1056 1.385 . S
C1053 H1028 0.951 . S
C1053 C1051 1.388 . S
C1053 C1054 1.366 . S
C1054 C1053 1.366 . S
C1054 C1055 1.414 . S
C1054 C1057 1.499 . S
C1055 H1029 0.950 . S
C1055 C1054 1.414 . S
C1055 C1056 1.374 . S
C1056 H1030 0.950 . S
C1056 C1052 1.385 . S
C1056 C1055 1.374 . S
C1057 C1054 1.499 . S
C1057 C1058 1.373 . S
C1057 C1059 1.389 . S
C1058 H1031 0.950 . S
C1058 C1044 1.377 . S
C1058 C1057 1.373 . S
C1059 C1043 1.377 . S
C1059 C1057 1.389 . S
C1059 C1060 1.524 . S
C1060 C1059 1.524 . S
C1060 C1061 1.397 . S
C1060 C1065 1.363 . S
C1061 H1032 0.950 . S
C1061 C1060 1.397 . S
C1061 C1062 1.334 . S
C1062 H1033 0.950 . S
C1062 C1061 1.334 . S
C1062 C1063 1.287 . S
C1063 C1062 1.287 . S
C1063 C1064 1.524 . S
C1063 H1066 0.999 . S
C1064 H1034 0.950 . S
C1064 C1063 1.524 . S
C1064 C1065 1.415 . S
C1065 H1035 0.950 . S
C1065 C1060 1.363 . S
C1065 C1064 1.415 . S
H1066 C1063 0.999 . S
H1067 C1048 0.913 . S
H1068 C1086 0.951 . S
H1069 C1088 0.951 . S
H1070 C1090 0.950 . S
H1071 C1091 0.950 . S
H1072 C1093 0.950 . S
H1073 C1096 0.950 . S
H1074 C1097 0.950 . S
H1075 C1099 0.950 . S
H1076 C1100 0.950 . S
H1077 C1101 0.951 . S
H1078 C1103 0.951 . S
H1079 C1105 0.950 . S
H1080 C1106 0.950 . S
H1081 C1108 0.950 . S
H1082 C1111 0.950 . S
H1083 C1112 0.950 . S
H1084 C1114 0.950 . S
H1085 C1115 0.950 . S
C1086 H1068 0.951 . S
C1086 C1087 1.366 . S
C1086 C1088 1.388 . S
C1087 C1086 1.366 . S
C1087 C1091 1.385 . S
C1088 H1069 0.951 . S
C1088 C1086 1.388 . S
C1088 C1089 1.366 . S
C1089 C1088 1.366 . S
C1089 C1090 1.414 . S
C1089 C1092 1.499 . S
C1090 H1070 0.950 . S
C1090 C1089 1.414 . S
C1090 C1091 1.374 . S
C1091 H1071 0.950 . S
C1091 C1087 1.385 . S
C1091 C1090 1.374 . S
C1092 C1089 1.499 . S
C1092 C1093 1.373 . S
C1092 C1094 1.389 . S
C1093 H1072 0.950 . S
C1093 C1092 1.373 . S
C1093 C1109 1.377 . S
C1094 C1092 1.389 . S
C1094 C1095 1.524 . S
C1094 C1108 1.377 . S
C1095 C1094 1.524 . S
C1095 C1096 1.397 . S
C1095 C1100 1.363 . S
C1096 H1073 0.950 . S
C1096 C1095 1.397 . S
C1096 C1097 1.334 . S
C1097 H1074 0.950 . S
C1097 C1096 1.334 . S
C1097 C1098 1.287 . S
C1098 C1097 1.287 . S
C1098 C1099 1.524 . S
C1098 H1117 0.913 . S
C1099 H1075 0.950 . S
C1099 C1098 1.524 . S
C1099 C1100 1.415 . S
C1100 H1076 0.950 . S
C1100 C1095 1.363 . S
C1100 C1099 1.415 . S
C1101 H1077 0.951 . S
C1101 C1102 1.366 . S
C1101 C1103 1.388 . S
C1102 C1101 1.366 . S
C1102 C1106 1.385 . S
C1103 H1078 0.951 . S
C1103 C1101 1.388 . S
C1103 C1104 1.366 . S
C1104 C1103 1.366 . S
C1104 C1105 1.414 . S
C1104 C1107 1.499 . S
C1105 H1079 0.950 . S
C1105 C1104 1.414 . S
C1105 C1106 1.374 . S
C1106 H1080 0.950 . S
C1106 C1102 1.385 . S
C1106 C1105 1.374 . S
C1107 C1104 1.499 . S
C1107 C1108 1.373 . S
C1107 C1109 1.389 . S
C1108 H1081 0.950 . S
C1108 C1094 1.377 . S
C1108 C1107 1.373 . S
C1109 C1093 1.377 . S
C1109 C1107 1.389 . S
C1109 C1110 1.524 . S
C1110 C1109 1.524 . S
C1110 C1111 1.397 . S
C1110 C1115 1.363 . S
C1111 H1082 0.950 . S
C1111 C1110 1.397 . S
C1111 C1112 1.334 . S
C1112 H1083 0.950 . S
C1112 C1111 1.334 . S
C1112 C1113 1.287 . S
C1113 C1112 1.287 . S
C1113 C1114 1.524 . S
C1113 H1116 0.999 . S
C1114 H1084 0.950 . S
C1114 C1113 1.524 . S
C1114 C1115 1.415 . S
C1115 H1085 0.950 . S
C1115 C1110 1.363 . S
C1115 C1114 1.415 . S
H1116 C1113 0.999 . S
H1117 C1098 0.913 . S
H1118 C1136 0.951 . S
H1119 C1138 0.951 . S
H1120 C1140 0.950 . S
H1121 C1141 0.950 . S
H1122 C1143 0.950 . S
H1123 C1146 0.950 . S
H1124 C1147 0.950 . S
H1125 C1149 0.950 . S
H1126 C1150 0.950 . S
H1127 C1151 0.951 . S
H1128 C1153 0.951 . S
H1129 C1155 0.950 . S
H1130 C1156 0.950 . S
H1131 C1158 0.950 . S
H1132 C1161 0.950 . S
H1133 C1162 0.950 . S
H1134 C1164 0.950 . S
H1135 C1165 0.950 . S
C1136 H1118 0.951 . S
C1136 C1137 1.366 . S
C1136 C1138 1.388 . S
C1137 C1136 1.366 . S
C1137 C1141 1.385 . S
C1138 H1119 0.951 . S
C1138 C1136 1.388 . S
C1138 C1139 1.366 . S
C1139 C1138 1.366 . S
C1139 C1140 1.414 . S
C1139 C1142 1.499 . S
C1140 H1120 0.950 . S
C1140 C1139 1.414 . S
C1140 C1141 1.374 . S
C1141 H1121 0.950 . S
C1141 C1137 1.385 . S
C1141 C1140 1.374 . S
C1142 C1139 1.499 . S
C1142 C1143 1.373 . S
C1142 C1144 1.389 . S
C1143 H1122 0.950 . S
C1143 C1142 1.373 . S
C1143 C1159 1.377 . S
C1144 C1142 1.389 . S
C1144 C1145 1.524 . S
C1144 C1158 1.377 . S
C1145 C1144 1.524 . S
C1145 C1146 1.397 . S
C1145 C1150 1.363 . S
C1146 H1123 0.950 . S
C1146 C1145 1.397 . S
C1146 C1147 1.334 . S
C1147 H1124 0.950 . S
C1147 C1146 1.334 . S
C1147 C1148 1.287 . S
C1148 C1147 1.287 . S
C1148 C1149 1.524 . S
C1148 H1167 0.913 . S
C1149 H1125 0.950 . S
C1149 C1148 1.524 . S
C1149 C1150 1.415 . S
C1150 H1126 0.950 . S
C1150 C1145 1.363 . S
C1150 C1149 1.415 . S
C1151 H1127 0.951 . S
C1151 C1152 1.366 . S
C1151 C1153 1.388 . S
C1152 C1151 1.366 . S
C1152 C1156 1.385 . S
C1153 H1128 0.951 . S
C1153 C1151 1.388 . S
C1153 C1154 1.366 . S
C1154 C1153 1.366 . S
C1154 C1155 1.414 . S
C1154 C1157 1.499 . S
C1155 H1129 0.950 . S
C1155 C1154 1.414 . S
C1155 C1156 1.374 . S
C1156 H1130 0.950 . S
C1156 C1152 1.385 . S
C1156 C1155 1.374 . S
C1157 C1154 1.499 . S
C1157 C1158 1.373 . S
C1157 C1159 1.389 . S
C1158 H1131 0.950 . S
C1158 C1144 1.377 . S
C1158 C1157 1.373 . S
C1159 C1143 1.377 . S
C1159 C1157 1.389 . S
C1159 C1160 1.524 . S
C1160 C1159 1.524 . S
C1160 C1161 1.397 . S
C1160 C1165 1.363 . S
C1161 H1132 0.950 . S
C1161 C1160 1.397 . S
C1161 C1162 1.334 . S
C1162 H1133 0.950 . S
C1162 C1161 1.334 . S
C1162 C1163 1.287 . S
C1163 C1162 1.287 . S
C1163 C1164 1.524 . S
C1163 H1166 0.999 . S
C1164 H1134 0.950 . S
C1164 C1163 1.524 . S
C1164 C1165 1.415 . S
C1165 H1135 0.950 . S
C1165 C1160 1.363 . S
C1165 C1164 1.415 . S
H1166 C1163 0.999 . S
H1167 C1148 0.913 . S
H1168 C1186 0.978 . S
H1169 C1188 0.951 . S
H1170 C1190 0.950 . S
H1171 C1191 0.950 . S
H1172 C1193 0.950 . S
H1173 C1196 0.950 . S
H1174 C1197 0.950 . S
H1175 C1199 0.950 . S
H1176 C1200 0.950 . S
H1177 C1201 0.951 . S
H1178 C1203 0.951 . S
H1179 C1205 0.950 . S
H1180 C1206 0.950 . S
H1181 C1208 0.950 . S
H1182 C1211 0.950 . S
H1183 C1212 0.950 . S
H1184 C1214 0.950 . S
H1185 C1215 0.950 . S
C1186 H1168 0.978 . S
C1186 C1187 1.366 . S
C1186 C1188 1.388 . S
C1187 C1186 1.366 . S
C1187 C1191 1.385 . S
C1188 H1169 0.951 . S
C1188 C1186 1.388 . S
C1188 C1189 1.366 . S
C1189 C1188 1.366 . S
C1189 C1190 1.414 . S
C1189 C1192 1.499 . S
C1190 H1170 0.950 . S
C1190 C1189 1.414 . S
C1190 C1191 1.374 . S
C1191 H1171 0.950 . S
C1191 C1187 1.385 . S
C1191 C1190 1.374 . S
C1192 C1189 1.499 . S
C1192 C1193 1.373 . S
C1192 C1194 1.389 . S
C1193 H1172 0.950 . S
C1193 C1192 1.373 . S
C1193 C1209 1.377 . S
C1194 C1192 1.389 . S
C1194 C1195 1.524 . S
C1194 C1208 1.377 . S
C1195 C1194 1.524 . S
C1195 C1196 1.397 . S
C1195 C1200 1.363 . S
C1196 H1173 0.950 . S
C1196 C1195 1.397 . S
C1196 C1197 1.334 . S
C1197 H1174 0.950 . S
C1197 C1196 1.334 . S
C1197 C1198 1.287 . S
C1198 C1197 1.287 . S
C1198 C1199 1.524 . S
C1198 H1217 0.913 . S
C1199 H1175 0.950 . S
C1199 C1198 1.524 . S
C1199 C1200 1.415 . S
C1200 H1176 0.950 . S
C1200 C1195 1.363 . S
C1200 C1199 1.415 . S
C1201 H1177 0.951 . S
C1201 C1202 1.366 . S
C1201 C1203 1.388 . S
C1202 C1201 1.366 . S
C1202 C1206 1.385 . S
C1203 H1178 0.951 . S
C1203 C1201 1.388 . S
C1203 C1204 1.366 . S
C1204 C1203 1.366 . S
C1204 C1205 1.414 . S
C1204 C1207 1.499 . S
C1205 H1179 0.950 . S
C1205 C1204 1.414 . S
C1205 C1206 1.374 . S
C1206 H1180 0.950 . S
C1206 C1202 1.385 . S
C1206 C1205 1.374 . S
C1207 C1204 1.499 . S
C1207 C1208 1.373 . S
C1207 C1209 1.389 . S
C1208 H1181 0.950 . S
C1208 C1194 1.377 . S
C1208 C1207 1.373 . S
C1209 C1193 1.377 . S
C1209 C1207 1.389 . S
C1209 C1210 1.524 . S
C1210 C1209 1.524 . S
C1210 C1211 1.397 . S
C1210 C1215 1.363 . S
C1211 H1182 0.950 . S
C1211 C1210 1.397 . S
C1211 C1212 1.334 . S
C1212 H1183 0.950 . S
C1212 C1211 1.334 . S
C1212 C1213 1.287 . S
C1213 C1212 1.287 . S
C1213 C1214 1.524 . S
C1213 H1216 0.999 . S
C1214 H1184 0.950 . S
C1214 C1213 1.524 . S
C1214 C1215 1.415 . S
C1215 H1185 0.950 . S
C1215 C1210 1.363 . S
C1215 C1214 1.415 . S
H1216 C1213 0.999 . S
H1217 C1198 0.913 . S
H1218 C1236 0.951 . S
H1219 C1238 0.951 . S
H1220 C1240 0.950 . S
H1221 C1241 0.950 . S
H1222 C1243 0.950 . S
H1223 C1246 0.950 . S
H1224 C1247 0.950 . S
H1225 C1249 0.950 . S
H1226 C1250 0.950 . S
H1227 C1251 0.951 . S
H1228 C1253 0.951 . S
H1229 C1255 0.950 . S
H1230 C1256 0.950 . S
H1231 C1258 0.950 . S
H1232 C1261 0.950 . S
H1233 C1262 0.950 . S
H1234 C1264 0.950 . S
H1235 C1265 0.950 . S
C1236 H1218 0.951 . S
C1236 C1237 1.366 . S
C1236 C1238 1.388 . S
C1237 C1236 1.366 . S
C1237 C1241 1.385 . S
C1238 H1219 0.951 . S
C1238 C1236 1.388 . S
C1238 C1239 1.366 . S
C1239 C1238 1.366 . S
C1239 C1240 1.414 . S
C1239 C1242 1.499 . S
C1240 H1220 0.950 . S
C1240 C1239 1.414 . S
C1240 C1241 1.374 . S
C1241 H1221 0.950 . S
C1241 C1237 1.385 . S
C1241 C1240 1.374 . S
C1242 C1239 1.499 . S
C1242 C1243 1.373 . S
C1242 C1244 1.389 . S
C1243 H1222 0.950 . S
C1243 C1242 1.373 . S
C1243 C1259 1.377 . S
C1244 C1242 1.389 . S
C1244 C1245 1.524 . S
C1244 C1258 1.377 . S
C1245 C1244 1.524 . S
C1245 C1246 1.397 . S
C1245 C1250 1.363 . S
C1246 H1223 0.950 . S
C1246 C1245 1.397 . S
C1246 C1247 1.334 . S
C1247 H1224 0.950 . S
C1247 C1246 1.334 . S
C1247 C1248 1.287 . S
C1248 C1247 1.287 . S
C1248 C1249 1.524 . S
C1248 H1267 0.913 . S
C1249 H1225 0.950 . S
C1249 C1248 1.524 . S
C1249 C1250 1.415 . S
C1250 H1226 0.950 . S
C1250 C1245 1.363 . S
C1250 C1249 1.415 . S
C1251 H1227 0.951 . S
C1251 C1252 1.366 . S
C1251 C1253 1.388 . S
C1252 C1251 1.366 . S
C1252 C1256 1.385 . S
C1253 H1228 0.951 . S
C1253 C1251 1.388 . S
C1253 C1254 1.366 . S
C1254 C1253 1.366 . S
C1254 C1255 1.414 . S
C1254 C1257 1.499 . S
C1255 H1229 0.950 . S
C1255 C1254 1.414 . S
C1255 C1256 1.374 . S
C1256 H1230 0.950 . S
C1256 C1252 1.385 . S
C1256 C1255 1.374 . S
C1257 C1254 1.499 . S
C1257 C1258 1.373 . S
C1257 C1259 1.389 . S
C1258 H1231 0.950 . S
C1258 C1244 1.377 . S
C1258 C1257 1.373 . S
C1259 C1243 1.377 . S
C1259 C1257 1.389 . S
C1259 C1260 1.524 . S
C1260 C1259 1.524 . S
C1260 C1261 1.397 . S
C1260 C1265 1.363 . S
C1261 H1232 0.950 . S
C1261 C1260 1.397 . S
C1261 C1262 1.334 . S
C1262 H1233 0.950 . S
C1262 C1261 1.334 . S
C1262 C1263 1.287 . S
C1263 C1262 1.287 . S
C1263 C1264 1.524 . S
C1263 H1266 0.999 . S
C1264 H1234 0.950 . S
C1264 C1263 1.524 . S
C1264 C1265 1.415 . S
C1265 H1235 0.950 . S
C1265 C1260 1.363 . S
C1265 C1264 1.415 . S
H1266 C1263 0.999 . S
H1267 C1248 0.913 . S
H1268 C1286 0.951 . S
H1269 C1288 0.951 . S
H1270 C1290 0.950 . S
H1271 C1291 0.950 . S
H1272 C1293 0.950 . S
H1273 C1296 0.950 . S
H1274 C1297 0.950 . S
H1275 C1299 0.950 . S
H1276 C1300 0.950 . S
H1277 C1301 0.951 . S
H1278 C1303 0.951 . S
H1279 C1305 0.950 . S
H1280 C1306 0.950 . S
H1281 C1308 0.950 . S
H1282 C1311 0.950 . S
H1283 C1312 0.950 . S
H1284 C1314 0.950 . S
H1285 C1315 0.950 . S
C1286 H1268 0.951 . S
C1286 C1287 1.366 . S
C1286 C1288 1.388 . S
C1287 C1286 1.366 . S
C1287 C1291 1.385 . S
C1288 H1269 0.951 . S
C1288 C1286 1.388 . S
C1288 C1289 1.366 . S
C1289 C1288 1.366 . S
C1289 C1290 1.414 . S
C1289 C1292 1.499 . S
C1290 H1270 0.950 . S
C1290 C1289 1.414 . S
C1290 C1291 1.374 . S
C1291 H1271 0.950 . S
C1291 C1287 1.385 . S
C1291 C1290 1.374 . S
C1292 C1289 1.499 . S
C1292 C1293 1.373 . S
C1292 C1294 1.389 . S
C1293 H1272 0.950 . S
C1293 C1292 1.373 . S
C1293 C1309 1.377 . S
C1294 C1292 1.389 . S
C1294 C1295 1.524 . S
C1294 C1308 1.377 . S
C1295 C1294 1.524 . S
C1295 C1296 1.397 . S
C1295 C1300 1.363 . S
C1296 H1273 0.950 . S
C1296 C1295 1.397 . S
C1296 C1297 1.334 . S
C1297 H1274 0.950 . S
C1297 C1296 1.334 . S
C1297 C1298 1.287 . S
C1298 C1297 1.287 . S
C1298 C1299 1.524 . S
C1298 H1317 0.913 . S
C1299 H1275 0.950 . S
C1299 C1298 1.524 . S
C1299 C1300 1.415 . S
C1300 H1276 0.950 . S
C1300 C1295 1.363 . S
C1300 C1299 1.415 . S
C1301 H1277 0.951 . S
C1301 C1302 1.366 . S
C1301 C1303 1.388 . S
C1302 C1301 1.366 . S
C1302 C1306 1.385 . S
C1303 H1278 0.951 . S
C1303 C1301 1.388 . S
C1303 C1304 1.366 . S
C1304 C1303 1.366 . S
C1304 C1305 1.414 . S
C1304 C1307 1.499 . S
C1305 H1279 0.950 . S
C1305 C1304 1.414 . S
C1305 C1306 1.374 . S
C1306 H1280 0.950 . S
C1306 C1302 1.385 . S
C1306 C1305 1.374 . S
C1307 C1304 1.499 . S
C1307 C1308 1.373 . S
C1307 C1309 1.389 . S
C1308 H1281 0.950 . S
C1308 C1294 1.377 . S
C1308 C1307 1.373 . S
C1309 C1293 1.377 . S
C1309 C1307 1.389 . S
C1309 C1310 1.524 . S
C1310 C1309 1.524 . S
C1310 C1311 1.397 . S
C1310 C1315 1.363 . S
C1311 H1282 0.950 . S
C1311 C1310 1.397 . S
C1311 C1312 1.334 . S
C1312 H1283 0.950 . S
C1312 C1311 1.334 . S
C1312 C1313 1.287 . S
C1313 C1312 1.287 . S
C1313 C1314 1.524 . S
C1313 H1316 0.999 . S
C1314 H1284 0.950 . S
C1314 C1313 1.524 . S
C1314 C1315 1.415 . S
C1315 H1285 0.950 . S
C1315 C1310 1.363 . S
C1315 C1314 1.415 . S
H1316 C1313 0.999 . S
H1317 C1298 0.913 . S
H1318 C1336 0.951 . S
H1319 C1338 0.951 . S
H1320 C1340 0.950 . S
H1321 C1341 0.950 . S
H1322 C1343 0.950 . S
H1323 C1346 0.950 . S
H1324 C1347 0.950 . S
H1325 C1349 0.950 . S
H1326 C1350 0.950 . S
H1327 C1351 0.951 . S
H1328 C1353 0.951 . S
H1329 C1355 0.950 . S
H1330 C1356 0.950 . S
H1331 C1358 0.950 . S
H1332 C1361 0.950 . S
H1333 C1362 0.950 . S
H1334 C1364 0.950 . S
H1335 C1365 0.950 . S
C1336 H1318 0.951 . S
C1336 C1337 1.366 . S
C1336 C1338 1.388 . S
C1337 C1336 1.366 . S
C1337 C1341 1.385 . S
C1338 H1319 0.951 . S
C1338 C1336 1.388 . S
C1338 C1339 1.366 . S
C1339 C1338 1.366 . S
C1339 C1340 1.414 . S
C1339 C1342 1.499 . S
C1340 H1320 0.950 . S
C1340 C1339 1.414 . S
C1340 C1341 1.374 . S
C1341 H1321 0.950 . S
C1341 C1337 1.385 . S
C1341 C1340 1.374 . S
C1342 C1339 1.499 . S
C1342 C1343 1.373 . S
C1342 C1344 1.389 . S
C1343 H1322 0.950 . S
C1343 C1342 1.373 . S
C1343 C1359 1.377 . S
C1344 C1342 1.389 . S
C1344 C1345 1.524 . S
C1344 C1358 1.377 . S
C1345 C1344 1.524 . S
C1345 C1346 1.397 . S
C1345 C1350 1.363 . S
C1346 H1323 0.950 . S
C1346 C1345 1.397 . S
C1346 C1347 1.334 . S
C1347 H1324 0.950 . S
C1347 C1346 1.334 . S
C1347 C1348 1.287 . S
C1348 C1347 1.287 . S
C1348 C1349 1.524 . S
C1348 H1367 0.913 . S
C1349 H1325 0.950 . S
C1349 C1348 1.524 . S
C1349 C1350 1.415 . S
C1350 H1326 0.950 . S
C1350 C1345 1.363 . S
C1350 C1349 1.415 . S
C1351 H1327 0.951 . S
C1351 C1352 1.366 . S
C1351 C1353 1.388 . S
C1352 C1351 1.366 . S
C1352 C1356 1.385 . S
C1353 H1328 0.951 . S
C1353 C1351 1.388 . S
C1353 C1354 1.366 . S
C1354 C1353 1.366 . S
C1354 C1355 1.414 . S
C1354 C1357 1.499 . S
C1355 H1329 0.950 . S
C1355 C1354 1.414 . S
C1355 C1356 1.374 . S
C1356 H1330 0.950 . S
C1356 C1352 1.385 . S
C1356 C1355 1.374 . S
C1357 C1354 1.499 . S
C1357 C1358 1.373 . S
C1357 C1359 1.389 . S
C1358 H1331 0.950 . S
C1358 C1344 1.377 . S
C1358 C1357 1.373 . S
C1359 C1343 1.377 . S
C1359 C1357 1.389 . S
C1359 C1360 1.524 . S
C1360 C1359 1.524 . S
C1360 C1361 1.397 . S
C1360 C1365 1.363 . S
C1361 H1332 0.950 . S
C1361 C1360 1.397 . S
C1361 C1362 1.334 . S
C1362 H1333 0.950 . S
C1362 C1361 1.334 . S
C1362 C1363 1.287 . S
C1363 C1362 1.287 . S
C1363 C1364 1.524 . S
C1363 H1366 0.999 . S
C1364 H1334 0.950 . S
C1364 C1363 1.524 . S
C1364 C1365 1.415 . S
C1365 H1335 0.950 . S
C1365 C1360 1.363 . S
C1365 C1364 1.415 . S
H1366 C1363 0.999 . S
H1367 C1348 0.913 . S
C187 C9 1.925 . S
C202 C76 1.886 . S
C237 C20 0.967 . S
C252 C63 0.959 . S
C287 C78 1.783 . S
C302 C37 1.771 . S
C337 C49 1.342 . S
C352 C65 1.379 . S
C387 C104 1.172 . S
C402 C35 1.171 . S
C437 C93 2.043 . S
C452 C51 2.046 . S
C487 C7 1.104 . S
C502 C106 1.138 . S
C537 C91 1.627 . S
C552 C22 1.678 . S
C587 C132 1.418 . S
C602 C118 1.405 . S
C637 C120 1.220 . S
C652 C162 1.218 . S
C687 C134 1.534 . S
C702 C148 1.532 . S
C737 C146 1.707 . S
C752 C160 1.693 . S
C787 C163 1.926 . S
C802 C90 1.885 . S
C837 C119 0.967 . S
C852 C105 0.959 . S
C887 C92 1.783 . S
C902 C135 1.784 . S
C937 C107 1.379 1_655 S
C952 C147 1.342 . S
C987 C62 1.171 . S
C1002 C133 1.170 . S
C1037 C79 2.043 . S
C1052 C149 2.046 . S
C1087 C161 1.104 . S
C1102 C64 1.137 1_565 S
C1137 C121 1.678 . S
C1152 C77 1.628 . S
C1187 C21 1.405 . S
C1202 C34 1.418 . S
C1237 C8 1.218 . S
C1252 C23 1.221 . S
C1287 C36 1.534 . S
C1302 C50 1.533 . S
C1337 C6 1.693 . S
C1352 C48 1.708 . S
