# Generated by pormake.
# Topology lcy-a, (4)-cn, num edge types: 1
# Building blocks:
#     Node 0, Type 0, BuildingBlock: QUQFOY_clean_sbu_1, # of connection points: 4
#     Node 1, Type 0, BuildingBlock: QUQFOY_clean_sbu_1, # of connection points: 4
#     Node 2, Type 0, BuildingBlock: QUQFOY_clean_sbu_1, # of connection points: 4
#     Node 3, Type 0, BuildingBlock: QUQFOY_clean_sbu_1, # of connection points: 4
#     Node 4, Type 0, BuildingBlock: QUQFOY_clean_sbu_1, # of connection points: 4
#     Node 5, Type 0, BuildingBlock: QUQFOY_clean_sbu_1, # of connection points: 4
#     Node 6, Type 0, BuildingBlock: QUQFOY_clean_sbu_1, # of connection points: 4
#     Node 7, Type 0, BuildingBlock: QUQFOY_clean_sbu_1, # of connection points: 4
#     Node 8, Type 0, BuildingBlock: QUQFOY_clean_sbu_1, # of connection points: 4
#     Node 9, Type 0, BuildingBlock: QUQFOY_clean_sbu_1, # of connection points: 4
#     Node 10, Type 0, BuildingBlock: QUQFOY_clean_sbu_1, # of connection points: 4
#     Node 11, Type 0, BuildingBlock: QUQFOY_clean_sbu_1, # of connection points: 4
#     Node 12, Type 0, BuildingBlock: QUQFOY_clean_sbu_1, # of connection points: 4
#     Node 13, Type 0, BuildingBlock: QUQFOY_clean_sbu_1, # of connection points: 4
#     Node 14, Type 0, BuildingBlock: QUQFOY_clean_sbu_1, # of connection points: 4
#     Node 15, Type 0, BuildingBlock: QUQFOY_clean_sbu_1, # of connection points: 4
#     Node 16, Type 0, BuildingBlock: QUQFOY_clean_sbu_1, # of connection points: 4
#     Node 17, Type 0, BuildingBlock: QUQFOY_clean_sbu_1, # of connection points: 4
#     Node 18, Type 0, BuildingBlock: QUQFOY_clean_sbu_1, # of connection points: 4
#     Node 19, Type 0, BuildingBlock: QUQFOY_clean_sbu_1, # of connection points: 4
#     Node 20, Type 0, BuildingBlock: QUQFOY_clean_sbu_1, # of connection points: 4
#     Node 21, Type 0, BuildingBlock: QUQFOY_clean_sbu_1, # of connection points: 4
#     Node 22, Type 0, BuildingBlock: QUQFOY_clean_sbu_1, # of connection points: 4
#     Node 23, Type 0, BuildingBlock: QUQFOY_clean_sbu_1, # of connection points: 4
#     Edge 24, Type (0, 0), None
#     Edge 25, Type (0, 0), None
#     Edge 26, Type (0, 0), None
#     Edge 27, Type (0, 0), None
#     Edge 28, Type (0, 0), None
#     Edge 29, Type (0, 0), None
#     Edge 30, Type (0, 0), None
#     Edge 31, Type (0, 0), None
#     Edge 32, Type (0, 0), None
#     Edge 33, Type (0, 0), None
#     Edge 34, Type (0, 0), None
#     Edge 35, Type (0, 0), None
#     Edge 36, Type (0, 0), None
#     Edge 37, Type (0, 0), None
#     Edge 38, Type (0, 0), None
#     Edge 39, Type (0, 0), None
#     Edge 40, Type (0, 0), None
#     Edge 41, Type (0, 0), None
#     Edge 42, Type (0, 0), None
#     Edge 43, Type (0, 0), None
#     Edge 44, Type (0, 0), None
#     Edge 45, Type (0, 0), None
#     Edge 46, Type (0, 0), None
#     Edge 47, Type (0, 0), None
#     Edge 48, Type (0, 0), None
#     Edge 49, Type (0, 0), None
#     Edge 50, Type (0, 0), None
#     Edge 51, Type (0, 0), None
#     Edge 52, Type (0, 0), None
#     Edge 53, Type (0, 0), None
#     Edge 54, Type (0, 0), None
#     Edge 55, Type (0, 0), None
#     Edge 56, Type (0, 0), None
#     Edge 57, Type (0, 0), None
#     Edge 58, Type (0, 0), None
#     Edge 59, Type (0, 0), None
#     Edge 60, Type (0, 0), None
#     Edge 61, Type (0, 0), None
#     Edge 62, Type (0, 0), None
#     Edge 63, Type (0, 0), None
#     Edge 64, Type (0, 0), None
#     Edge 65, Type (0, 0), None
#     Edge 66, Type (0, 0), None
#     Edge 67, Type (0, 0), None
#     Edge 68, Type (0, 0), None
#     Edge 69, Type (0, 0), None
#     Edge 70, Type (0, 0), None
#     Edge 71, Type (0, 0), None
# Relax obj value: 0.346
# Max RMSD: 0.192
# Mean RMSD: 0.192
data_MOF--net-lcy-a--node1-QUQFOY_clean_sbu_1--edge1-none
_symmetry_space_group_name_H-M    P1
_symmetry_Int_Tables_number       1
_symmetry_cell_setting            triclinic
loop_
_symmetry_equiv_pos_as_xyz
'x, y, z'
_cell_length_a     28.464944
_cell_length_b     28.465582
_cell_length_c     28.467521
_cell_angle_alpha  89.999873
_cell_angle_beta   89.999866
_cell_angle_gamma 89.999999
loop_
_atom_site_label
_atom_site_type_symbol
_atom_site_fract_x
_atom_site_fract_y
_atom_site_fract_z
_atom_type_partial_charge
O0 O 0.2337 0.19916 0.33273 0.0
Cd1 Cd 0.17577 0.23396 0.35581 0.0
Cd2 Cd 0.2392 0.28927 0.40349 0.0
O3 O 0.27858 0.2286 0.38844 0.0
O4 O 0.1276 0.18508 0.3646 0.0
O5 O 0.15824 0.22645 0.42368 0.0
C6 C 0.13204 0.19219 0.40925 0.0
C7 C 0.27361 0.34984 0.44797 0.0
C8 C 0.27292 0.20089 0.35347 0.0
C9 C 0.18939 0.3254 0.31448 0.0
O10 O 0.22019 0.32664 0.34623 0.0
O11 O 0.16068 0.29111 0.31267 0.0
O12 O 0.29357 0.3318 0.412 0.0
O13 O 0.2361 0.32981 0.46344 0.0
O14 O 0.04308 0.98367 0.58272 0.0
Cd15 Cd 0.00827 0.92574 0.6058 0.0
Cd16 Cd 0.95296 0.98917 0.65348 0.0
O17 O 0.01364 0.02854 0.63844 0.0
O18 O 0.05715 0.87757 0.6146 0.0
O19 O 0.01577 0.90821 0.67367 0.0
C20 C 0.05003 0.88201 0.65925 0.0
C21 C 0.8924 0.02359 0.69796 0.0
C22 C 0.04135 0.02289 0.60347 0.0
C23 C 0.91684 0.93936 0.56446 0.0
O24 O 0.9156 0.97017 0.59621 0.0
O25 O 0.95112 0.91066 0.56265 0.0
O26 O 0.91043 0.04354 0.66199 0.0
O27 O 0.91242 0.98607 0.71343 0.0
O28 O 0.25854 0.79305 0.83273 0.0
Cd29 Cd 0.31647 0.75825 0.85582 0.0
Cd30 Cd 0.25304 0.70294 0.9035 0.0
O31 O 0.21366 0.76361 0.88845 0.0
O32 O 0.36464 0.80713 0.8646 0.0
O33 O 0.334 0.76576 0.92369 0.0
C34 C 0.3602 0.80001 0.90925 0.0
C35 C 0.21862 0.64238 0.94798 0.0
C36 C 0.21932 0.79132 0.85348 0.0
C37 C 0.30285 0.66681 0.81449 0.0
O38 O 0.27204 0.66557 0.84623 0.0
O39 O 0.33155 0.70109 0.81267 0.0
O40 O 0.19867 0.66041 0.91201 0.0
O41 O 0.25614 0.6624 0.96345 0.0
O42 O 0.44916 0.00855 0.08271 0.0
Cd43 Cd 0.48397 0.06647 0.10579 0.0
Cd44 Cd 0.53928 0.00305 0.15348 0.0
O45 O 0.47861 0.96367 0.13843 0.0
O46 O 0.43509 0.11465 0.11459 0.0
O47 O 0.47647 0.084 0.17367 0.0
C48 C 0.44221 0.1102 0.15924 0.0
C49 C 0.59984 0.96864 0.19796 0.0
C50 C 0.45089 0.96933 0.10346 0.0
C51 C 0.5754 0.05285 0.06446 0.0
O52 O 0.57665 0.02205 0.09621 0.0
O53 O 0.54112 0.08156 0.06264 0.0
O54 O 0.58181 0.94868 0.16199 0.0
O55 O 0.57982 0.00615 0.21342 0.0
O56 O 0.73371 0.29305 0.65941 0.0
Cd57 Cd 0.67578 0.25825 0.63633 0.0
Cd58 Cd 0.7392 0.20294 0.58865 0.0
O59 O 0.77859 0.26361 0.6037 0.0
O60 O 0.62761 0.30714 0.62754 0.0
O61 O 0.65824 0.26576 0.56846 0.0
C62 C 0.63205 0.30002 0.58289 0.0
C63 C 0.77362 0.14237 0.54417 0.0
C64 C 0.77293 0.29132 0.63867 0.0
C65 C 0.68939 0.16682 0.67767 0.0
O66 O 0.7202 0.16557 0.64592 0.0
O67 O 0.66069 0.20111 0.67948 0.0
O68 O 0.79358 0.16041 0.58014 0.0
O69 O 0.7361 0.16239 0.52871 0.0
O70 O 0.94915 0.48368 0.90944 0.0
Cd71 Cd 0.98396 0.42575 0.88636 0.0
Cd72 Cd 0.03927 0.48917 0.83867 0.0
O73 O 0.9786 0.52855 0.85372 0.0
O74 O 0.93508 0.37758 0.87755 0.0
O75 O 0.97647 0.40822 0.81848 0.0
C76 C 0.94221 0.38202 0.83291 0.0
C77 C 0.09984 0.52359 0.79419 0.0
C78 C 0.95088 0.5229 0.88869 0.0
C79 C 0.0754 0.43937 0.92769 0.0
O80 O 0.07664 0.47018 0.89594 0.0
O81 O 0.04111 0.41067 0.9295 0.0
O82 O 0.0818 0.54355 0.83016 0.0
O83 O 0.07982 0.48607 0.77873 0.0
O84 O 0.75853 0.69917 0.15942 0.0
Cd85 Cd 0.81646 0.73397 0.13634 0.0
Cd86 Cd 0.75304 0.78928 0.08866 0.0
O87 O 0.71366 0.72861 0.10371 0.0
O88 O 0.86463 0.68509 0.12755 0.0
O89 O 0.83399 0.72646 0.06847 0.0
C90 C 0.86019 0.69221 0.0829 0.0
C91 C 0.71862 0.84984 0.04417 0.0
C92 C 0.71932 0.7009 0.13868 0.0
C93 C 0.80285 0.8254 0.17767 0.0
O94 O 0.77204 0.82665 0.14593 0.0
O95 O 0.83155 0.79112 0.17948 0.0
O96 O 0.69867 0.83181 0.08014 0.0
O97 O 0.75614 0.82982 0.02871 0.0
O98 O 0.54307 0.50854 0.40943 0.0
Cd99 Cd 0.50827 0.56647 0.38635 0.0
Cd100 Cd 0.45296 0.50304 0.33867 0.0
O101 O 0.51363 0.46367 0.35371 0.0
O102 O 0.55715 0.61464 0.37755 0.0
O103 O 0.51577 0.584 0.31848 0.0
C104 C 0.55002 0.6102 0.33291 0.0
C105 C 0.39239 0.46863 0.29419 0.0
C106 C 0.54134 0.46932 0.38868 0.0
C107 C 0.41683 0.55285 0.42769 0.0
O108 O 0.41559 0.52204 0.39594 0.0
O109 O 0.45112 0.58155 0.4295 0.0
O110 O 0.41043 0.44867 0.33016 0.0
O111 O 0.41241 0.50614 0.27872 0.0
O112 O 0.33278 0.23368 0.19912 0.0
Cd113 Cd 0.35584 0.17575 0.23391 0.0
Cd114 Cd 0.40356 0.23915 0.28927 0.0
O115 O 0.38847 0.27856 0.22864 0.0
O116 O 0.36464 0.12758 0.18502 0.0
O117 O 0.42372 0.1582 0.22642 0.0
C118 C 0.40929 0.13202 0.19216 0.0
C119 C 0.44804 0.27358 0.34983 0.0
C120 C 0.35351 0.27291 0.2009 0.0
C121 C 0.31454 0.18931 0.32536 0.0
O122 O 0.34631 0.22009 0.32665 0.0
O123 O 0.31267 0.16066 0.29104 0.0
O124 O 0.41204 0.29351 0.33182 0.0
O125 O 0.46353 0.23609 0.3298 0.0
O126 O 0.00857 0.08275 0.44912 0.0
Cd127 Cd 0.06651 0.10581 0.48391 0.0
Cd128 Cd 0.0031 0.15353 0.53927 0.0
O129 O 0.96369 0.13844 0.47863 0.0
O130 O 0.11467 0.11462 0.43503 0.0
O131 O 0.08404 0.17369 0.47643 0.0
C132 C 0.11023 0.15927 0.44216 0.0
C133 C 0.96867 0.19801 0.59983 0.0
C134 C 0.96934 0.10349 0.45089 0.0
C135 C 0.05293 0.06451 0.57536 0.0
O136 O 0.02215 0.09628 0.57665 0.0
O137 O 0.08158 0.06264 0.54104 0.0
O138 O 0.94873 0.16201 0.58181 0.0
O139 O 0.00617 0.21349 0.5798 0.0
O140 O 0.15946 0.75853 0.69913 0.0
Cd141 Cd 0.1364 0.81647 0.73392 0.0
Cd142 Cd 0.08868 0.75307 0.78928 0.0
O143 O 0.10377 0.71366 0.72864 0.0
O144 O 0.1276 0.86463 0.68503 0.0
O145 O 0.06852 0.83401 0.72643 0.0
C146 C 0.08295 0.8602 0.69217 0.0
C147 C 0.0442 0.71863 0.84984 0.0
C148 C 0.13873 0.71931 0.70091 0.0
C149 C 0.1777 0.8029 0.82537 0.0
O150 O 0.14593 0.77212 0.82666 0.0
O151 O 0.17957 0.83155 0.79105 0.0
O152 O 0.0802 0.6987 0.83183 0.0
O153 O 0.02871 0.75613 0.82981 0.0
O154 O 0.48368 0.90946 0.94911 0.0
Cd155 Cd 0.42574 0.8864 0.9839 0.0
Cd156 Cd 0.48914 0.83869 0.03926 0.0
O157 O 0.52855 0.85378 0.97862 0.0
O158 O 0.37757 0.87759 0.93502 0.0
O159 O 0.4082 0.81852 0.97643 0.0
C160 C 0.38201 0.83294 0.94216 0.0
C161 C 0.52358 0.79421 0.09982 0.0
C162 C 0.5229 0.88873 0.95088 0.0
C163 C 0.43931 0.92771 0.07535 0.0
O164 O 0.4701 0.89594 0.07664 0.0
O165 O 0.41066 0.92957 0.04103 0.0
O166 O 0.54351 0.8302 0.08181 0.0
O167 O 0.48608 0.77872 0.07979 0.0
O168 O 0.83279 0.25854 0.79302 0.0
Cd169 Cd 0.85585 0.31647 0.75823 0.0
Cd170 Cd 0.90357 0.25307 0.70287 0.0
O171 O 0.88848 0.21366 0.7635 0.0
O172 O 0.86464 0.36464 0.80711 0.0
O173 O 0.92372 0.33402 0.76572 0.0
C174 C 0.90929 0.36021 0.79998 0.0
C175 C 0.94805 0.21863 0.64231 0.0
C176 C 0.85352 0.21931 0.79124 0.0
C177 C 0.81455 0.3029 0.66678 0.0
O178 O 0.84632 0.27212 0.66549 0.0
O179 O 0.81268 0.33155 0.7011 0.0
O180 O 0.91205 0.1987 0.66032 0.0
O181 O 0.96354 0.25613 0.66234 0.0
O182 O 0.98367 0.58276 0.04304 0.0
Cd183 Cd 0.92573 0.60582 0.00824 0.0
Cd184 Cd 0.98914 0.65354 0.95288 0.0
O185 O 0.02855 0.63845 0.01352 0.0
O186 O 0.87757 0.61463 0.05713 0.0
O187 O 0.90819 0.6737 0.01572 0.0
C188 C 0.882 0.65928 0.04999 0.0
C189 C 0.02357 0.69801 0.89232 0.0
C190 C 0.02289 0.6035 0.04126 0.0
C191 C 0.9393 0.56451 0.91679 0.0
O192 O 0.97009 0.59629 0.9155 0.0
O193 O 0.91065 0.56265 0.95112 0.0
O194 O 0.04351 0.66201 0.91034 0.0
O195 O 0.98608 0.7135 0.91235 0.0
O196 O 0.65945 0.73369 0.29302 0.0
Cd197 Cd 0.63639 0.67575 0.25823 0.0
Cd198 Cd 0.58867 0.73915 0.20287 0.0
O199 O 0.60377 0.77857 0.2635 0.0
O200 O 0.6276 0.62759 0.30712 0.0
O201 O 0.56851 0.6582 0.26572 0.0
C202 C 0.58294 0.63202 0.29999 0.0
C203 C 0.5442 0.77359 0.1423 0.0
C204 C 0.63871 0.77292 0.29124 0.0
C205 C 0.6777 0.68932 0.16678 0.0
O206 O 0.64592 0.7201 0.16549 0.0
O207 O 0.67956 0.66067 0.20111 0.0
O208 O 0.5802 0.79352 0.16032 0.0
O209 O 0.52871 0.73609 0.16234 0.0
O210 O 0.50856 0.40945 0.54303 0.0
Cd211 Cd 0.5665 0.3864 0.50824 0.0
Cd212 Cd 0.5031 0.33868 0.45287 0.0
O213 O 0.46369 0.35377 0.51351 0.0
O214 O 0.61467 0.37759 0.55712 0.0
O215 O 0.58404 0.31852 0.51572 0.0
C216 C 0.61023 0.33294 0.54998 0.0
C217 C 0.46866 0.29421 0.39231 0.0
C218 C 0.46934 0.38872 0.54125 0.0
C219 C 0.55293 0.42771 0.41679 0.0
O220 O 0.52215 0.39593 0.4155 0.0
O221 O 0.58158 0.42957 0.45111 0.0
O222 O 0.44873 0.3302 0.41033 0.0
O223 O 0.50616 0.27872 0.41234 0.0
O224 O 0.19914 0.33278 0.23366 0.0
Cd225 Cd 0.23394 0.35583 0.17573 0.0
Cd226 Cd 0.28932 0.40356 0.23915 0.0
O227 O 0.22867 0.38847 0.27855 0.0
O228 O 0.18506 0.36462 0.12756 0.0
O229 O 0.22645 0.4237 0.15818 0.0
C230 C 0.19219 0.40927 0.13199 0.0
C231 C 0.3499 0.44802 0.27357 0.0
C232 C 0.20092 0.35354 0.27287 0.0
C233 C 0.3254 0.31453 0.18932 0.0
O234 O 0.32669 0.3463 0.2201 0.0
O235 O 0.29108 0.31266 0.16066 0.0
O236 O 0.33188 0.41202 0.29351 0.0
O237 O 0.32986 0.46351 0.23608 0.0
O238 O 0.69915 0.15944 0.75848 0.0
Cd239 Cd 0.73395 0.13639 0.81642 0.0
Cd240 Cd 0.78933 0.08866 0.753 0.0
O241 O 0.72868 0.10374 0.7136 0.0
O242 O 0.68507 0.1276 0.86459 0.0
O243 O 0.72646 0.06852 0.83397 0.0
C244 C 0.6922 0.08295 0.86016 0.0
C245 C 0.84991 0.0442 0.71857 0.0
C246 C 0.70093 0.13868 0.71928 0.0
C247 C 0.82541 0.17769 0.80282 0.0
O248 O 0.8267 0.14592 0.77205 0.0
O249 O 0.7911 0.17956 0.83148 0.0
O250 O 0.83188 0.08019 0.69864 0.0
O251 O 0.82987 0.02871 0.75607 0.0
O252 O 0.08278 0.44913 0.00851 0.0
Cd253 Cd 0.10582 0.48393 0.06644 0.0
Cd254 Cd 0.15355 0.53931 0.00302 0.0
O255 O 0.13847 0.47866 0.96362 0.0
O256 O 0.11462 0.43505 0.11461 0.0
O257 O 0.1737 0.47645 0.08399 0.0
C258 C 0.15927 0.44219 0.11018 0.0
C259 C 0.19801 0.59988 0.9686 0.0
C260 C 0.10354 0.4509 0.9693 0.0
C261 C 0.06451 0.57539 0.05284 0.0
O262 O 0.09629 0.57668 0.02207 0.0
O263 O 0.06265 0.54107 0.0815 0.0
O264 O 0.16202 0.58186 0.94866 0.0
O265 O 0.21351 0.57985 0.00609 0.0
O266 O 0.79309 0.83279 0.25849 0.0
Cd267 Cd 0.75828 0.85583 0.31642 0.0
Cd268 Cd 0.70291 0.90356 0.253 0.0
O269 O 0.76356 0.88848 0.2136 0.0
O270 O 0.80717 0.86462 0.36459 0.0
O271 O 0.76578 0.9237 0.33398 0.0
C272 C 0.80004 0.90927 0.36016 0.0
C273 C 0.64233 0.94803 0.21857 0.0
C274 C 0.79131 0.85355 0.21928 0.0
C275 C 0.66682 0.81453 0.30283 0.0
O276 O 0.66554 0.84631 0.27205 0.0
O277 O 0.70114 0.81267 0.33148 0.0
O278 O 0.66036 0.91203 0.19864 0.0
O279 O 0.66237 0.96352 0.25607 0.0
O280 O 0.40945 0.54308 0.5085 0.0
Cd281 Cd 0.38641 0.50828 0.56644 0.0
Cd282 Cd 0.33868 0.4529 0.50302 0.0
O283 O 0.35376 0.51355 0.46362 0.0
O284 O 0.37762 0.55716 0.61461 0.0
O285 O 0.31854 0.51576 0.58399 0.0
C286 C 0.33297 0.55002 0.61018 0.0
C287 C 0.29422 0.39233 0.46859 0.0
C288 C 0.38869 0.54131 0.46929 0.0
C289 C 0.42772 0.41682 0.55284 0.0
O290 O 0.39594 0.41554 0.52206 0.0
O291 O 0.42958 0.45114 0.5815 0.0
O292 O 0.33021 0.41035 0.44866 0.0
O293 O 0.27873 0.41236 0.50608 0.0
O294 O 0.29309 0.65943 0.73367 0.0
Cd295 Cd 0.25829 0.63638 0.67573 0.0
Cd296 Cd 0.20291 0.58866 0.73915 0.0
O297 O 0.26356 0.60374 0.77856 0.0
O298 O 0.30718 0.62759 0.62757 0.0
O299 O 0.26578 0.56851 0.65818 0.0
C300 C 0.30005 0.58294 0.632 0.0
C301 C 0.14233 0.5442 0.77358 0.0
C302 C 0.29132 0.63867 0.77288 0.0
C303 C 0.16683 0.67769 0.68932 0.0
O304 O 0.16554 0.64591 0.7201 0.0
O305 O 0.20115 0.67955 0.66067 0.0
O306 O 0.16035 0.58019 0.79351 0.0
O307 O 0.16237 0.5287 0.73609 0.0
O308 O 0.58279 0.04309 0.98364 0.0
Cd309 Cd 0.60583 0.00829 0.92571 0.0
Cd310 Cd 0.65356 0.95291 0.98913 0.0
O311 O 0.63848 0.01356 0.02853 0.0
O312 O 0.61463 0.05717 0.87754 0.0
O313 O 0.67371 0.01577 0.90816 0.0
C314 C 0.65928 0.05003 0.88197 0.0
C315 C 0.69802 0.89233 0.02356 0.0
C316 C 0.60354 0.04132 0.02285 0.0
C317 C 0.56452 0.91683 0.9393 0.0
O318 O 0.5963 0.91554 0.97008 0.0
O319 O 0.56266 0.95115 0.91064 0.0
O320 O 0.66202 0.91036 0.04349 0.0
O321 O 0.71351 0.91237 0.98607 0.0
O322 O 0.90946 0.94912 0.48365 0.0
Cd323 Cd 0.88642 0.98393 0.42572 0.0
Cd324 Cd 0.83869 0.0393 0.48913 0.0
O325 O 0.85376 0.97865 0.52853 0.0
O326 O 0.87762 0.93505 0.37755 0.0
O327 O 0.81854 0.97645 0.40817 0.0
C328 C 0.83296 0.94218 0.38198 0.0
C329 C 0.79423 0.09988 0.52356 0.0
C330 C 0.8887 0.9509 0.52286 0.0
C331 C 0.92772 0.07538 0.43931 0.0
O332 O 0.89595 0.07667 0.47009 0.0
O333 O 0.92959 0.04106 0.41065 0.0
O334 O 0.83022 0.08185 0.54349 0.0
O335 O 0.77873 0.07984 0.48607 0.0
loop_
_geom_bond_atom_site_label_1
_geom_bond_atom_site_label_2
_geom_bond_distance
_geom_bond_site_symmetry_2
_ccdc_geom_bond_type
O0 Cd1 2.223 . S
O0 C8 1.315 . S
Cd1 O0 2.223 . S
Cd1 O4 2.297 . S
Cd1 O5 2.439 . S
Cd1 O11 2.240 . S
Cd2 O3 2.240 . S
Cd2 O10 2.223 . S
Cd2 O12 2.297 . S
Cd2 O13 2.439 . S
O3 Cd2 2.240 . S
O3 C8 1.279 . S
O4 Cd1 2.297 . S
O4 C6 1.247 . S
O5 Cd1 2.439 . S
O5 C6 1.208 . S
C6 O4 1.247 . S
C6 O5 1.208 . S
C7 O12 1.247 . S
C7 O13 1.208 . S
C8 O0 1.315 . S
C8 O3 1.279 . S
C9 O10 1.315 . S
C9 O11 1.279 . S
O10 Cd2 2.223 . S
O10 C9 1.315 . S
O11 Cd1 2.240 . S
O11 C9 1.279 . S
O12 Cd2 2.297 . S
O12 C7 1.247 . S
O13 Cd2 2.439 . S
O13 C7 1.208 . S
O14 Cd15 2.223 1_455 S
O14 C22 1.315 . S
Cd15 O14 2.223 1_655 S
Cd15 O18 2.297 1_655 S
Cd15 O19 2.439 1_655 S
Cd15 O25 2.240 . S
Cd16 O17 2.240 1_645 S
Cd16 O24 2.223 . S
Cd16 O26 2.297 . S
Cd16 O27 2.439 1_545 S
O17 Cd16 2.240 1_465 S
O17 C22 1.279 . S
O18 Cd15 2.297 1_455 S
O18 C20 1.247 . S
O19 Cd15 2.439 1_455 S
O19 C20 1.208 . S
C20 O18 1.247 . S
C20 O19 1.208 . S
C21 O26 1.259 . S
C21 O27 1.198 1_545 S
C22 O14 1.315 . S
C22 O17 1.279 . S
C23 O24 1.315 1_565 S
C23 O25 1.279 . S
O24 Cd16 2.223 . S
O24 C23 1.315 1_545 S
O25 Cd15 2.240 . S
O25 C23 1.279 . S
O26 Cd16 2.297 . S
O26 C21 1.259 . S
O27 Cd16 2.439 1_565 S
O27 C21 1.198 1_565 S
O28 Cd29 2.223 . S
O28 C36 1.315 . S
Cd29 O28 2.223 . S
Cd29 O32 2.297 . S
Cd29 O33 2.439 . S
Cd29 O39 2.240 . S
Cd30 O31 2.240 . S
Cd30 O38 2.223 . S
Cd30 O40 2.297 . S
Cd30 O41 2.439 . S
O31 Cd30 2.240 . S
O31 C36 1.279 . S
O32 Cd29 2.297 . S
O32 C34 1.247 . S
O33 Cd29 2.439 . S
O33 C34 1.208 . S
C34 O32 1.247 . S
C34 O33 1.208 . S
C35 O40 1.247 . S
C35 O41 1.208 . S
C36 O28 1.315 . S
C36 O31 1.279 . S
C37 O38 1.315 . S
C37 O39 1.279 . S
O38 Cd30 2.223 . S
O38 C37 1.315 . S
O39 Cd29 2.240 . S
O39 C37 1.279 . S
O40 Cd30 2.297 . S
O40 C35 1.247 . S
O41 Cd30 2.439 . S
O41 C35 1.208 . S
O42 Cd43 2.223 . S
O42 C50 1.315 . S
Cd43 O42 2.223 . S
Cd43 O46 2.297 . S
Cd43 O47 2.439 . S
Cd43 O53 2.240 . S
Cd44 O45 2.240 1_565 S
Cd44 O52 2.223 . S
Cd44 O54 2.297 . S
Cd44 O55 2.439 1_565 S
O45 Cd44 2.240 1_545 S
O45 C50 1.279 . S
O46 Cd43 2.297 . S
O46 C48 1.247 . S
O47 Cd43 2.439 . S
O47 C48 1.208 . S
C48 O46 1.247 . S
C48 O47 1.208 . S
C49 O54 1.259 . S
C49 O55 1.198 1_565 S
C50 O42 1.315 . S
C50 O45 1.279 . S
C51 O52 1.315 1_545 S
C51 O53 1.279 . S
O52 Cd44 2.223 . S
O52 C51 1.315 1_565 S
O53 Cd43 2.240 . S
O53 C51 1.279 . S
O54 Cd44 2.297 . S
O54 C49 1.259 . S
O55 Cd44 2.439 1_545 S
O55 C49 1.198 1_545 S
O56 Cd57 2.223 . S
O56 C64 1.315 . S
Cd57 O56 2.223 . S
Cd57 O60 2.297 . S
Cd57 O61 2.439 . S
Cd57 O67 2.240 . S
Cd58 O59 2.240 . S
Cd58 O66 2.223 . S
Cd58 O68 2.297 . S
Cd58 O69 2.439 . S
O59 Cd58 2.240 . S
O59 C64 1.279 . S
O60 Cd57 2.297 . S
O60 C62 1.247 . S
O61 Cd57 2.439 . S
O61 C62 1.208 . S
C62 O60 1.247 . S
C62 O61 1.208 . S
C63 O68 1.247 . S
C63 O69 1.208 . S
C64 O56 1.315 . S
C64 O59 1.279 . S
C65 O66 1.315 . S
C65 O67 1.279 . S
O66 Cd58 2.223 . S
O66 C65 1.315 . S
O67 Cd57 2.240 . S
O67 C65 1.279 . S
O68 Cd58 2.297 . S
O68 C63 1.247 . S
O69 Cd58 2.439 . S
O69 C63 1.208 . S
O70 Cd71 2.223 1_655 S
O70 C78 1.315 . S
Cd71 O70 2.223 1_455 S
Cd71 O74 2.297 1_455 S
Cd71 O75 2.439 1_455 S
Cd71 O81 2.240 . S
Cd72 O73 2.240 1_455 S
Cd72 O80 2.223 . S
Cd72 O82 2.297 . S
Cd72 O83 2.439 . S
O73 Cd72 2.240 1_655 S
O73 C78 1.279 . S
O74 Cd71 2.297 1_655 S
O74 C76 1.247 . S
O75 Cd71 2.439 1_655 S
O75 C76 1.208 . S
C76 O74 1.247 . S
C76 O75 1.208 . S
C77 O82 1.247 . S
C77 O83 1.208 . S
C78 O70 1.315 . S
C78 O73 1.279 . S
C79 O80 1.315 . S
C79 O81 1.279 . S
O80 Cd72 2.223 . S
O80 C79 1.315 . S
O81 Cd71 2.240 . S
O81 C79 1.279 . S
O82 Cd72 2.297 . S
O82 C77 1.247 . S
O83 Cd72 2.439 . S
O83 C77 1.208 . S
O84 Cd85 2.223 . S
O84 C92 1.315 . S
Cd85 O84 2.223 . S
Cd85 O88 2.297 . S
Cd85 O89 2.439 . S
Cd85 O95 2.240 . S
Cd86 O87 2.240 . S
Cd86 O94 2.223 . S
Cd86 O96 2.297 . S
Cd86 O97 2.439 . S
O87 Cd86 2.240 . S
O87 C92 1.279 . S
O88 Cd85 2.297 . S
O88 C90 1.247 . S
O89 Cd85 2.439 . S
O89 C90 1.208 . S
C90 O88 1.247 . S
C90 O89 1.208 . S
C91 O96 1.247 . S
C91 O97 1.208 . S
C92 O84 1.315 . S
C92 O87 1.279 . S
C93 O94 1.315 . S
C93 O95 1.279 . S
O94 Cd86 2.223 . S
O94 C93 1.315 . S
O95 Cd85 2.240 . S
O95 C93 1.279 . S
O96 Cd86 2.297 . S
O96 C91 1.247 . S
O97 Cd86 2.439 . S
O97 C91 1.208 . S
O98 Cd99 2.223 . S
O98 C106 1.315 . S
Cd99 O98 2.223 . S
Cd99 O102 2.297 . S
Cd99 O103 2.439 . S
Cd99 O109 2.240 . S
Cd100 O101 2.240 . S
Cd100 O108 2.223 . S
Cd100 O110 2.297 . S
Cd100 O111 2.439 . S
O101 Cd100 2.240 . S
O101 C106 1.279 . S
O102 Cd99 2.297 . S
O102 C104 1.247 . S
O103 Cd99 2.439 . S
O103 C104 1.208 . S
C104 O102 1.247 . S
C104 O103 1.208 . S
C105 O110 1.247 . S
C105 O111 1.208 . S
C106 O98 1.315 . S
C106 O101 1.279 . S
C107 O108 1.315 . S
C107 O109 1.279 . S
O108 Cd100 2.223 . S
O108 C107 1.315 . S
O109 Cd99 2.240 . S
O109 C107 1.279 . S
O110 Cd100 2.297 . S
O110 C105 1.247 . S
O111 Cd100 2.439 . S
O111 C105 1.208 . S
O112 Cd113 2.223 . S
O112 C120 1.315 . S
Cd113 O112 2.223 . S
Cd113 O116 2.297 . S
Cd113 O117 2.439 . S
Cd113 O123 2.240 . S
Cd114 O115 2.240 . S
Cd114 O122 2.223 . S
Cd114 O124 2.297 . S
Cd114 O125 2.439 . S
O115 Cd114 2.240 . S
O115 C120 1.279 . S
O116 Cd113 2.297 . S
O116 C118 1.247 . S
O117 Cd113 2.439 . S
O117 C118 1.208 . S
C118 O116 1.247 . S
C118 O117 1.208 . S
C119 O124 1.247 . S
C119 O125 1.208 . S
C120 O112 1.315 . S
C120 O115 1.279 . S
C121 O122 1.315 . S
C121 O123 1.279 . S
O122 Cd114 2.223 . S
O122 C121 1.315 . S
O123 Cd113 2.240 . S
O123 C121 1.279 . S
O124 Cd114 2.297 . S
O124 C119 1.247 . S
O125 Cd114 2.439 . S
O125 C119 1.208 . S
O126 Cd127 2.223 . S
O126 C134 1.315 . S
Cd127 O126 2.223 . S
Cd127 O130 2.297 . S
Cd127 O131 2.439 . S
Cd127 O137 2.240 . S
Cd128 O129 2.240 1_655 S
Cd128 O136 2.223 . S
Cd128 O138 2.297 . S
Cd128 O139 2.439 1_655 S
O129 Cd128 2.240 1_455 S
O129 C134 1.279 . S
O130 Cd127 2.297 . S
O130 C132 1.247 . S
O131 Cd127 2.439 . S
O131 C132 1.208 . S
C132 O130 1.247 . S
C132 O131 1.208 . S
C133 O138 1.259 . S
C133 O139 1.198 1_655 S
C134 O126 1.315 . S
C134 O129 1.279 . S
C135 O136 1.315 1_455 S
C135 O137 1.279 . S
O136 Cd128 2.223 . S
O136 C135 1.315 1_655 S
O137 Cd127 2.240 . S
O137 C135 1.279 . S
O138 Cd128 2.297 . S
O138 C133 1.259 . S
O139 Cd128 2.439 1_455 S
O139 C133 1.198 1_455 S
O140 Cd141 2.223 . S
O140 C148 1.315 . S
Cd141 O140 2.223 . S
Cd141 O144 2.297 . S
Cd141 O145 2.439 . S
Cd141 O151 2.240 . S
Cd142 O143 2.240 . S
Cd142 O150 2.223 . S
Cd142 O152 2.297 . S
Cd142 O153 2.439 . S
O143 Cd142 2.240 . S
O143 C148 1.279 . S
O144 Cd141 2.297 . S
O144 C146 1.247 . S
O145 Cd141 2.439 . S
O145 C146 1.208 . S
C146 O144 1.247 . S
C146 O145 1.208 . S
C147 O152 1.247 . S
C147 O153 1.208 . S
C148 O140 1.315 . S
C148 O143 1.279 . S
C149 O150 1.315 . S
C149 O151 1.279 . S
O150 Cd142 2.223 . S
O150 C149 1.315 . S
O151 Cd141 2.240 . S
O151 C149 1.279 . S
O152 Cd142 2.297 . S
O152 C147 1.247 . S
O153 Cd142 2.439 . S
O153 C147 1.208 . S
O154 Cd155 2.223 1_556 S
O154 C162 1.315 . S
Cd155 O154 2.223 1_554 S
Cd155 O158 2.297 1_554 S
Cd155 O159 2.439 1_554 S
Cd155 O165 2.240 . S
Cd156 O157 2.240 1_554 S
Cd156 O164 2.223 . S
Cd156 O166 2.297 . S
Cd156 O167 2.439 . S
O157 Cd156 2.240 1_556 S
O157 C162 1.279 . S
O158 Cd155 2.297 1_556 S
O158 C160 1.247 . S
O159 Cd155 2.439 1_556 S
O159 C160 1.208 . S
C160 O158 1.247 . S
C160 O159 1.208 . S
C161 O166 1.247 . S
C161 O167 1.208 . S
C162 O154 1.315 . S
C162 O157 1.279 . S
C163 O164 1.315 . S
C163 O165 1.279 . S
O164 Cd156 2.223 . S
O164 C163 1.315 . S
O165 Cd155 2.240 . S
O165 C163 1.279 . S
O166 Cd156 2.297 . S
O166 C161 1.247 . S
O167 Cd156 2.439 . S
O167 C161 1.208 . S
O168 Cd169 2.223 . S
O168 C176 1.315 . S
Cd169 O168 2.223 . S
Cd169 O172 2.297 . S
Cd169 O173 2.439 . S
Cd169 O179 2.240 . S
Cd170 O171 2.240 . S
Cd170 O178 2.223 . S
Cd170 O180 2.297 . S
Cd170 O181 2.439 . S
O171 Cd170 2.240 . S
O171 C176 1.279 . S
O172 Cd169 2.297 . S
O172 C174 1.247 . S
O173 Cd169 2.439 . S
O173 C174 1.208 . S
C174 O172 1.247 . S
C174 O173 1.208 . S
C175 O180 1.247 . S
C175 O181 1.208 . S
C176 O168 1.315 . S
C176 O171 1.279 . S
C177 O178 1.315 . S
C177 O179 1.279 . S
O178 Cd170 2.223 . S
O178 C177 1.315 . S
O179 Cd169 2.240 . S
O179 C177 1.279 . S
O180 Cd170 2.297 . S
O180 C175 1.247 . S
O181 Cd170 2.439 . S
O181 C175 1.208 . S
O182 Cd183 2.223 1_554 S
O182 C190 1.315 . S
Cd183 O182 2.223 1_556 S
Cd183 O186 2.297 1_556 S
Cd183 O187 2.439 1_556 S
Cd183 O193 2.240 . S
Cd184 O185 2.240 1_456 S
Cd184 O192 2.223 . S
Cd184 O194 2.297 . S
Cd184 O195 2.439 1_455 S
O185 Cd184 2.240 1_654 S
O185 C190 1.279 . S
O186 Cd183 2.297 1_554 S
O186 C188 1.247 . S
O187 Cd183 2.439 1_554 S
O187 C188 1.208 . S
C188 O186 1.247 . S
C188 O187 1.208 . S
C189 O194 1.259 . S
C189 O195 1.198 1_455 S
C190 O182 1.315 . S
C190 O185 1.279 . S
C191 O192 1.315 1_655 S
C191 O193 1.279 . S
O192 Cd184 2.223 . S
O192 C191 1.315 1_455 S
O193 Cd183 2.240 . S
O193 C191 1.279 . S
O194 Cd184 2.297 . S
O194 C189 1.259 . S
O195 Cd184 2.439 1_655 S
O195 C189 1.198 1_655 S
O196 Cd197 2.223 . S
O196 C204 1.315 . S
Cd197 O196 2.223 . S
Cd197 O200 2.297 . S
Cd197 O201 2.439 . S
Cd197 O207 2.240 . S
Cd198 O199 2.240 . S
Cd198 O206 2.223 . S
Cd198 O208 2.297 . S
Cd198 O209 2.439 . S
O199 Cd198 2.240 . S
O199 C204 1.279 . S
O200 Cd197 2.297 . S
O200 C202 1.247 . S
O201 Cd197 2.439 . S
O201 C202 1.208 . S
C202 O200 1.247 . S
C202 O201 1.208 . S
C203 O208 1.247 . S
C203 O209 1.208 . S
C204 O196 1.315 . S
C204 O199 1.279 . S
C205 O206 1.315 . S
C205 O207 1.279 . S
O206 Cd198 2.223 . S
O206 C205 1.315 . S
O207 Cd197 2.240 . S
O207 C205 1.279 . S
O208 Cd198 2.297 . S
O208 C203 1.247 . S
O209 Cd198 2.439 . S
O209 C203 1.208 . S
O210 Cd211 2.223 . S
O210 C218 1.315 . S
Cd211 O210 2.223 . S
Cd211 O214 2.297 . S
Cd211 O215 2.439 . S
Cd211 O221 2.240 . S
Cd212 O213 2.240 . S
Cd212 O220 2.223 . S
Cd212 O222 2.297 . S
Cd212 O223 2.439 . S
O213 Cd212 2.240 . S
O213 C218 1.279 . S
O214 Cd211 2.297 . S
O214 C216 1.247 . S
O215 Cd211 2.439 . S
O215 C216 1.208 . S
C216 O214 1.247 . S
C216 O215 1.208 . S
C217 O222 1.247 . S
C217 O223 1.208 . S
C218 O210 1.315 . S
C218 O213 1.279 . S
C219 O220 1.315 . S
C219 O221 1.279 . S
O220 Cd212 2.223 . S
O220 C219 1.315 . S
O221 Cd211 2.240 . S
O221 C219 1.279 . S
O222 Cd212 2.297 . S
O222 C217 1.247 . S
O223 Cd212 2.439 . S
O223 C217 1.208 . S
O224 Cd225 2.223 . S
O224 C232 1.315 . S
Cd225 O224 2.223 . S
Cd225 O228 2.297 . S
Cd225 O229 2.439 . S
Cd225 O235 2.240 . S
Cd226 O227 2.240 . S
Cd226 O234 2.223 . S
Cd226 O236 2.297 . S
Cd226 O237 2.439 . S
O227 Cd226 2.240 . S
O227 C232 1.279 . S
O228 Cd225 2.297 . S
O228 C230 1.247 . S
O229 Cd225 2.439 . S
O229 C230 1.208 . S
C230 O228 1.247 . S
C230 O229 1.208 . S
C231 O236 1.247 . S
C231 O237 1.208 . S
C232 O224 1.315 . S
C232 O227 1.279 . S
C233 O234 1.315 . S
C233 O235 1.279 . S
O234 Cd226 2.223 . S
O234 C233 1.315 . S
O235 Cd225 2.240 . S
O235 C233 1.279 . S
O236 Cd226 2.297 . S
O236 C231 1.247 . S
O237 Cd226 2.439 . S
O237 C231 1.208 . S
O238 Cd239 2.223 . S
O238 C246 1.315 . S
Cd239 O238 2.223 . S
Cd239 O242 2.297 . S
Cd239 O243 2.439 . S
Cd239 O249 2.240 . S
Cd240 O241 2.240 . S
Cd240 O248 2.223 . S
Cd240 O250 2.297 . S
Cd240 O251 2.439 . S
O241 Cd240 2.240 . S
O241 C246 1.279 . S
O242 Cd239 2.297 . S
O242 C244 1.247 . S
O243 Cd239 2.439 . S
O243 C244 1.208 . S
C244 O242 1.247 . S
C244 O243 1.208 . S
C245 O250 1.247 . S
C245 O251 1.208 . S
C246 O238 1.315 . S
C246 O241 1.279 . S
C247 O248 1.315 . S
C247 O249 1.279 . S
O248 Cd240 2.223 . S
O248 C247 1.315 . S
O249 Cd239 2.240 . S
O249 C247 1.279 . S
O250 Cd240 2.297 . S
O250 C245 1.247 . S
O251 Cd240 2.439 . S
O251 C245 1.208 . S
O252 Cd253 2.223 . S
O252 C260 1.315 . S
Cd253 O252 2.223 . S
Cd253 O256 2.297 . S
Cd253 O257 2.439 . S
Cd253 O263 2.240 . S
Cd254 O255 2.240 1_556 S
Cd254 O262 2.223 . S
Cd254 O264 2.297 . S
Cd254 O265 2.439 1_556 S
O255 Cd254 2.240 1_554 S
O255 C260 1.279 . S
O256 Cd253 2.297 . S
O256 C258 1.247 . S
O257 Cd253 2.439 . S
O257 C258 1.208 . S
C258 O256 1.247 . S
C258 O257 1.208 . S
C259 O264 1.259 . S
C259 O265 1.198 1_556 S
C260 O252 1.315 . S
C260 O255 1.279 . S
C261 O262 1.315 1_554 S
C261 O263 1.279 . S
O262 Cd254 2.223 . S
O262 C261 1.315 1_556 S
O263 Cd253 2.240 . S
O263 C261 1.279 . S
O264 Cd254 2.297 . S
O264 C259 1.259 . S
O265 Cd254 2.439 1_554 S
O265 C259 1.198 1_554 S
O266 Cd267 2.223 . S
O266 C274 1.315 . S
Cd267 O266 2.223 . S
Cd267 O270 2.297 . S
Cd267 O271 2.439 . S
Cd267 O277 2.240 . S
Cd268 O269 2.240 . S
Cd268 O276 2.223 . S
Cd268 O278 2.297 . S
Cd268 O279 2.439 . S
O269 Cd268 2.240 . S
O269 C274 1.279 . S
O270 Cd267 2.297 . S
O270 C272 1.247 . S
O271 Cd267 2.439 . S
O271 C272 1.208 . S
C272 O270 1.247 . S
C272 O271 1.208 . S
C273 O278 1.247 . S
C273 O279 1.208 . S
C274 O266 1.315 . S
C274 O269 1.279 . S
C275 O276 1.315 . S
C275 O277 1.279 . S
O276 Cd268 2.223 . S
O276 C275 1.315 . S
O277 Cd267 2.240 . S
O277 C275 1.279 . S
O278 Cd268 2.297 . S
O278 C273 1.247 . S
O279 Cd268 2.439 . S
O279 C273 1.208 . S
O280 Cd281 2.223 . S
O280 C288 1.315 . S
Cd281 O280 2.223 . S
Cd281 O284 2.297 . S
Cd281 O285 2.439 . S
Cd281 O291 2.240 . S
Cd282 O283 2.240 . S
Cd282 O290 2.223 . S
Cd282 O292 2.297 . S
Cd282 O293 2.439 . S
O283 Cd282 2.240 . S
O283 C288 1.279 . S
O284 Cd281 2.297 . S
O284 C286 1.247 . S
O285 Cd281 2.439 . S
O285 C286 1.208 . S
C286 O284 1.247 . S
C286 O285 1.208 . S
C287 O292 1.247 . S
C287 O293 1.208 . S
C288 O280 1.315 . S
C288 O283 1.279 . S
C289 O290 1.315 . S
C289 O291 1.279 . S
O290 Cd282 2.223 . S
O290 C289 1.315 . S
O291 Cd281 2.240 . S
O291 C289 1.279 . S
O292 Cd282 2.297 . S
O292 C287 1.247 . S
O293 Cd282 2.439 . S
O293 C287 1.208 . S
O294 Cd295 2.223 . S
O294 C302 1.315 . S
Cd295 O294 2.223 . S
Cd295 O298 2.297 . S
Cd295 O299 2.439 . S
Cd295 O305 2.240 . S
Cd296 O297 2.240 . S
Cd296 O304 2.223 . S
Cd296 O306 2.297 . S
Cd296 O307 2.439 . S
O297 Cd296 2.240 . S
O297 C302 1.279 . S
O298 Cd295 2.297 . S
O298 C300 1.247 . S
O299 Cd295 2.439 . S
O299 C300 1.208 . S
C300 O298 1.247 . S
C300 O299 1.208 . S
C301 O306 1.247 . S
C301 O307 1.208 . S
C302 O294 1.315 . S
C302 O297 1.279 . S
C303 O304 1.315 . S
C303 O305 1.279 . S
O304 Cd296 2.223 . S
O304 C303 1.315 . S
O305 Cd295 2.240 . S
O305 C303 1.279 . S
O306 Cd296 2.297 . S
O306 C301 1.247 . S
O307 Cd296 2.439 . S
O307 C301 1.208 . S
O308 Cd309 2.223 1_545 S
O308 C316 1.315 . S
Cd309 O308 2.223 1_565 S
Cd309 O312 2.297 1_565 S
Cd309 O313 2.439 1_565 S
Cd309 O319 2.240 . S
Cd310 O311 2.240 1_564 S
Cd310 O318 2.223 . S
Cd310 O320 2.297 . S
Cd310 O321 2.439 1_554 S
O311 Cd310 2.240 1_546 S
O311 C316 1.279 . S
O312 Cd309 2.297 1_545 S
O312 C314 1.247 . S
O313 Cd309 2.439 1_545 S
O313 C314 1.208 . S
C314 O312 1.247 . S
C314 O313 1.208 . S
C315 O320 1.259 . S
C315 O321 1.198 1_554 S
C316 O308 1.315 . S
C316 O311 1.279 . S
C317 O318 1.315 1_556 S
C317 O319 1.279 . S
O318 Cd310 2.223 . S
O318 C317 1.315 1_554 S
O319 Cd309 2.240 . S
O319 C317 1.279 . S
O320 Cd310 2.297 . S
O320 C315 1.259 . S
O321 Cd310 2.439 1_556 S
O321 C315 1.198 1_556 S
O322 Cd323 2.223 1_565 S
O322 C330 1.315 . S
Cd323 O322 2.223 1_545 S
Cd323 O326 2.297 1_545 S
Cd323 O327 2.439 1_545 S
Cd323 O333 2.240 . S
Cd324 O325 2.240 1_545 S
Cd324 O332 2.223 . S
Cd324 O334 2.297 . S
Cd324 O335 2.439 . S
O325 Cd324 2.240 1_565 S
O325 C330 1.279 . S
O326 Cd323 2.297 1_565 S
O326 C328 1.247 . S
O327 Cd323 2.439 1_565 S
O327 C328 1.208 . S
C328 O326 1.247 . S
C328 O327 1.208 . S
C329 O334 1.247 . S
C329 O335 1.208 . S
C330 O322 1.315 . S
C330 O325 1.279 . S
C331 O332 1.315 . S
C331 O333 1.279 . S
O332 Cd324 2.223 . S
O332 C331 1.315 . S
O333 Cd323 2.240 . S
O333 C331 1.279 . S
O334 Cd324 2.297 . S
O334 C329 1.247 . S
O335 Cd324 2.439 . S
O335 C329 1.208 . S
C132 C6 2.012 . S
C20 C146 2.013 . S
C34 C160 2.013 . S
C48 C118 2.012 . S
C62 C216 2.013 . S
C174 C76 2.013 . S
C90 C188 2.013 . S
C202 C104 2.013 . S
C230 C258 2.012 . S
C314 C244 2.013 . S
C272 C328 2.013 . S
C300 C286 2.013 . S
C287 C7 2.336 . S
C21 C245 2.347 . S
C35 C259 2.347 . S
C49 C273 2.347 . S
C63 C329 2.336 . S
C301 C77 2.336 . S
C315 C91 2.347 . S
C231 C105 2.336 . S
C217 C119 2.336 . S
C133 C175 2.347 . S
C189 C147 2.347 . S
C203 C161 2.336 . S
C9 C232 1.966 . S
C330 C23 1.966 . S
C302 C37 1.966 . S
C51 C316 1.966 1_554 S
C65 C246 1.966 . S
C260 C79 1.966 1_554 S
C274 C93 1.966 . S
C288 C107 1.966 . S
C8 C121 1.966 . S
C22 C135 1.966 1_565 S
C36 C149 1.966 . S
C50 C163 1.966 1_545 S
C64 C177 1.966 . S
C78 C191 1.966 . S
C205 C92 1.966 . S
C106 C219 1.966 . S
C120 C233 1.966 . S
C247 C176 1.966 . S
C190 C261 1.966 1_655 S
C275 C204 1.966 . S
C289 C218 1.966 . S
C303 C148 1.966 . S
C162 C317 1.966 . S
C331 C134 1.966 1_655 S
