# Generated by pormake.
# Topology wna, (6)-cn, num edge types: 1
# Building blocks:
#     Node 0, Type 0, BuildingBlock: JUFBIX_clean_sbu_0, # of connection points: 6
#     Node 1, Type 0, BuildingBlock: JUFBIX_clean_sbu_0, # of connection points: 6
#     Node 2, Type 0, BuildingBlock: JUFBIX_clean_sbu_0, # of connection points: 6
#     Node 3, Type 0, BuildingBlock: JUFBIX_clean_sbu_0, # of connection points: 6
#     Node 4, Type 0, BuildingBlock: JUFBIX_clean_sbu_0, # of connection points: 6
#     Node 5, Type 0, BuildingBlock: JUFBIX_clean_sbu_0, # of connection points: 6
#     Node 6, Type 0, BuildingBlock: JUFBIX_clean_sbu_0, # of connection points: 6
#     Node 7, Type 0, BuildingBlock: JUFBIX_clean_sbu_0, # of connection points: 6
#     Node 8, Type 0, BuildingBlock: JUFBIX_clean_sbu_0, # of connection points: 6
#     Node 9, Type 0, BuildingBlock: JUFBIX_clean_sbu_0, # of connection points: 6
#     Node 10, Type 0, BuildingBlock: JUFBIX_clean_sbu_0, # of connection points: 6
#     Node 11, Type 0, BuildingBlock: JUFBIX_clean_sbu_0, # of connection points: 6
#     Node 12, Type 0, BuildingBlock: JUFBIX_clean_sbu_0, # of connection points: 6
#     Node 13, Type 0, BuildingBlock: JUFBIX_clean_sbu_0, # of connection points: 6
#     Node 14, Type 0, BuildingBlock: JUFBIX_clean_sbu_0, # of connection points: 6
#     Node 15, Type 0, BuildingBlock: JUFBIX_clean_sbu_0, # of connection points: 6
#     Node 16, Type 0, BuildingBlock: JUFBIX_clean_sbu_0, # of connection points: 6
#     Node 17, Type 0, BuildingBlock: JUFBIX_clean_sbu_0, # of connection points: 6
#     Node 18, Type 0, BuildingBlock: JUFBIX_clean_sbu_0, # of connection points: 6
#     Node 19, Type 0, BuildingBlock: JUFBIX_clean_sbu_0, # of connection points: 6
#     Node 20, Type 0, BuildingBlock: JUFBIX_clean_sbu_0, # of connection points: 6
#     Node 21, Type 0, BuildingBlock: JUFBIX_clean_sbu_0, # of connection points: 6
#     Node 22, Type 0, BuildingBlock: JUFBIX_clean_sbu_0, # of connection points: 6
#     Node 23, Type 0, BuildingBlock: JUFBIX_clean_sbu_0, # of connection points: 6
#     Node 24, Type 0, BuildingBlock: JUFBIX_clean_sbu_0, # of connection points: 6
#     Node 25, Type 0, BuildingBlock: JUFBIX_clean_sbu_0, # of connection points: 6
#     Node 26, Type 0, BuildingBlock: JUFBIX_clean_sbu_0, # of connection points: 6
#     Node 27, Type 0, BuildingBlock: JUFBIX_clean_sbu_0, # of connection points: 6
#     Node 28, Type 0, BuildingBlock: JUFBIX_clean_sbu_0, # of connection points: 6
#     Node 29, Type 0, BuildingBlock: JUFBIX_clean_sbu_0, # of connection points: 6
#     Node 30, Type 0, BuildingBlock: JUFBIX_clean_sbu_0, # of connection points: 6
#     Node 31, Type 0, BuildingBlock: JUFBIX_clean_sbu_0, # of connection points: 6
#     Node 32, Type 0, BuildingBlock: JUFBIX_clean_sbu_0, # of connection points: 6
#     Node 33, Type 0, BuildingBlock: JUFBIX_clean_sbu_0, # of connection points: 6
#     Node 34, Type 0, BuildingBlock: JUFBIX_clean_sbu_0, # of connection points: 6
#     Node 35, Type 0, BuildingBlock: JUFBIX_clean_sbu_0, # of connection points: 6
#     Edge 36, Type (0, 0), None
#     Edge 37, Type (0, 0), None
#     Edge 38, Type (0, 0), None
#     Edge 39, Type (0, 0), None
#     Edge 40, Type (0, 0), None
#     Edge 41, Type (0, 0), None
#     Edge 42, Type (0, 0), None
#     Edge 43, Type (0, 0), None
#     Edge 44, Type (0, 0), None
#     Edge 45, Type (0, 0), None
#     Edge 46, Type (0, 0), None
#     Edge 47, Type (0, 0), None
#     Edge 48, Type (0, 0), None
#     Edge 49, Type (0, 0), None
#     Edge 50, Type (0, 0), None
#     Edge 51, Type (0, 0), None
#     Edge 52, Type (0, 0), None
#     Edge 53, Type (0, 0), None
#     Edge 54, Type (0, 0), None
#     Edge 55, Type (0, 0), None
#     Edge 56, Type (0, 0), None
#     Edge 57, Type (0, 0), None
#     Edge 58, Type (0, 0), None
#     Edge 59, Type (0, 0), None
#     Edge 60, Type (0, 0), None
#     Edge 61, Type (0, 0), None
#     Edge 62, Type (0, 0), None
#     Edge 63, Type (0, 0), None
#     Edge 64, Type (0, 0), None
#     Edge 65, Type (0, 0), None
#     Edge 66, Type (0, 0), None
#     Edge 67, Type (0, 0), None
#     Edge 68, Type (0, 0), None
#     Edge 69, Type (0, 0), None
#     Edge 70, Type (0, 0), None
#     Edge 71, Type (0, 0), None
#     Edge 72, Type (0, 0), None
#     Edge 73, Type (0, 0), None
#     Edge 74, Type (0, 0), None
#     Edge 75, Type (0, 0), None
#     Edge 76, Type (0, 0), None
#     Edge 77, Type (0, 0), None
#     Edge 78, Type (0, 0), None
#     Edge 79, Type (0, 0), None
#     Edge 80, Type (0, 0), None
#     Edge 81, Type (0, 0), None
#     Edge 82, Type (0, 0), None
#     Edge 83, Type (0, 0), None
#     Edge 84, Type (0, 0), None
#     Edge 85, Type (0, 0), None
#     Edge 86, Type (0, 0), None
#     Edge 87, Type (0, 0), None
#     Edge 88, Type (0, 0), None
#     Edge 89, Type (0, 0), None
#     Edge 90, Type (0, 0), None
#     Edge 91, Type (0, 0), None
#     Edge 92, Type (0, 0), None
#     Edge 93, Type (0, 0), None
#     Edge 94, Type (0, 0), None
#     Edge 95, Type (0, 0), None
#     Edge 96, Type (0, 0), None
#     Edge 97, Type (0, 0), None
#     Edge 98, Type (0, 0), None
#     Edge 99, Type (0, 0), None
#     Edge 100, Type (0, 0), None
#     Edge 101, Type (0, 0), None
#     Edge 102, Type (0, 0), None
#     Edge 103, Type (0, 0), None
#     Edge 104, Type (0, 0), None
#     Edge 105, Type (0, 0), None
#     Edge 106, Type (0, 0), None
#     Edge 107, Type (0, 0), None
#     Edge 108, Type (0, 0), None
#     Edge 109, Type (0, 0), None
#     Edge 110, Type (0, 0), None
#     Edge 111, Type (0, 0), None
#     Edge 112, Type (0, 0), None
#     Edge 113, Type (0, 0), None
#     Edge 114, Type (0, 0), None
#     Edge 115, Type (0, 0), None
#     Edge 116, Type (0, 0), None
#     Edge 117, Type (0, 0), None
#     Edge 118, Type (0, 0), None
#     Edge 119, Type (0, 0), None
#     Edge 120, Type (0, 0), None
#     Edge 121, Type (0, 0), None
#     Edge 122, Type (0, 0), None
#     Edge 123, Type (0, 0), None
#     Edge 124, Type (0, 0), None
#     Edge 125, Type (0, 0), None
#     Edge 126, Type (0, 0), None
#     Edge 127, Type (0, 0), None
#     Edge 128, Type (0, 0), None
#     Edge 129, Type (0, 0), None
#     Edge 130, Type (0, 0), None
#     Edge 131, Type (0, 0), None
#     Edge 132, Type (0, 0), None
#     Edge 133, Type (0, 0), None
#     Edge 134, Type (0, 0), None
#     Edge 135, Type (0, 0), None
#     Edge 136, Type (0, 0), None
#     Edge 137, Type (0, 0), None
#     Edge 138, Type (0, 0), None
#     Edge 139, Type (0, 0), None
#     Edge 140, Type (0, 0), None
#     Edge 141, Type (0, 0), None
#     Edge 142, Type (0, 0), None
#     Edge 143, Type (0, 0), None
# Relax obj value: 0.531
# Max RMSD: 0.379
# Mean RMSD: 0.338
data_MOF--net-wna--node1-JUFBIX_clean_sbu_0--edge1-none
_symmetry_space_group_name_H-M    P1
_symmetry_Int_Tables_number       1
_symmetry_cell_setting            triclinic
loop_
_symmetry_equiv_pos_as_xyz
'x, y, z'
_cell_length_a     22.3632
_cell_length_b     22.3617
_cell_length_c     35.059982
_cell_angle_alpha  89.997775
_cell_angle_beta   90.004917
_cell_angle_gamma 119.99253
loop_
_atom_site_label
_atom_site_type_symbol
_atom_site_fract_x
_atom_site_fract_y
_atom_site_fract_z
_atom_type_partial_charge
Co0 Co 0.07964 0.24015 0.08726 0.0
C1 C 0.08275 0.36731 0.1054 0.0
Co2 Co 0.17199 0.32681 0.11409 0.0
C3 C 0.97629 0.1009 0.06884 0.0
C4 C 0.93348 0.16737 0.07183 0.0
N5 N 0.9943 0.16902 0.06742 0.0
N6 N 0.90897 0.05863 0.07699 0.0
C7 C 0.88148 0.10017 0.07788 0.0
H8 H 1.01256 0.08238 0.06897 0.0
H9 H 0.92809 0.21239 0.07557 0.0
C10 C 0.18096 0.20804 0.08652 0.0
N11 N 0.25975 0.38763 0.13452 0.0
C12 C 0.31553 0.41493 0.11047 0.0
C13 C 0.27565 0.35285 0.15999 0.0
N14 N 0.35543 0.386 0.11566 0.0
C15 C 0.3287 0.34595 0.14602 0.0
C16 C 0.07059 0.2283 0.1672 0.0
O17 O 0.11693 0.17974 0.08064 0.0
O18 O 0.21033 0.26754 0.10112 0.0
O19 O 0.13189 0.27995 0.16441 0.0
O20 O 1.03952 0.20059 0.13646 0.0
O21 O 0.13852 0.38678 0.1237 0.0
H22 H 0.24236 0.32078 0.18245 0.0
H23 H 0.3223 0.44895 0.08685 0.0
O24 O 1.04843 0.30503 0.09277 0.0
O25 O 0.11769 0.28408 0.03727 0.0
O26 O 0.20247 0.37194 0.06711 0.0
C27 C 0.17011 0.34579 0.0367 0.0
H28 H 0.8285 0.08398 0.08466 0.0
H29 H 0.34331 0.30949 0.15479 0.0
Co30 Co 0.84521 0.85657 0.08726 0.0
C31 C 0.71807 0.73255 0.1054 0.0
Co32 Co 0.75856 0.86228 0.11408 0.0
C33 C 0.98445 0.89247 0.06883 0.0
C34 C 0.91801 0.78319 0.07184 0.0
N35 N 0.91635 0.84237 0.06742 0.0
N36 N 1.02674 0.86742 0.077 0.0
C37 C 0.98521 0.7984 0.07789 0.0
H38 H 1.00297 0.94726 0.06896 0.0
H39 H 0.873 0.73279 0.07558 0.0
C40 C 0.87731 0.99001 0.0865 0.0
N41 N 0.69774 0.88922 0.13453 0.0
C42 C 0.67047 0.91773 0.11047 0.0
C43 C 0.73253 0.93988 0.16 0.0
N44 N 0.69942 0.98656 0.11565 0.0
C45 C 0.73947 0.99986 0.14602 0.0
C46 C 0.85709 0.8594 0.1672 0.0
O47 O 0.90561 0.95427 0.08063 0.0
O48 O 0.81781 0.95989 0.1011 0.0
O49 O 0.80544 0.86906 0.1644 0.0
O50 O 0.88479 0.85602 0.13646 0.0
O51 O 0.69861 0.76885 0.12371 0.0
H52 H 0.76455 0.93863 0.18247 0.0
H53 H 0.63643 0.89049 0.08685 0.0
O54 O 0.78034 0.76049 0.09277 0.0
O55 O 0.80127 0.85069 0.03726 0.0
O56 O 0.7134 0.84761 0.06711 0.0
C57 C 0.73955 0.84139 0.03669 0.0
H58 H 1.00141 0.76161 0.08467 0.0
H59 H 0.77594 0.05091 0.15479 0.0
Co60 Co 0.22879 1.0057 0.08726 0.0
C61 C 0.35282 1.00258 0.1054 0.0
Co62 Co 0.2231 0.91334 0.11408 0.0
C63 C 0.19288 0.10905 0.06884 0.0
C64 C 0.30215 0.15186 0.07184 0.0
N65 N 0.24298 0.09104 0.06742 0.0
N66 N 0.21792 0.17637 0.07704 0.0
C67 C 0.28694 0.20386 0.07791 0.0
H68 H 0.13809 0.07279 0.06895 0.0
H69 H 0.35255 0.15725 0.07557 0.0
C70 C 0.09535 0.90437 0.0865 0.0
N71 N 0.19617 0.82558 0.13452 0.0
C72 C 0.16764 0.7698 0.11046 0.0
C73 C 0.14552 0.8097 0.16 0.0
N74 N 0.09882 0.72994 0.11565 0.0
C75 C 0.08554 0.75668 0.14603 0.0
C76 C 0.22596 1.01475 0.1672 0.0
O77 O 0.13108 0.96841 0.08063 0.0
O78 O 0.12549 0.875 0.10111 0.0
O79 O 0.21633 0.95344 0.1644 0.0
O80 O 0.22932 0.04582 0.13646 0.0
O81 O 0.31654 0.94681 0.1237 0.0
H82 H 0.14679 0.84298 0.18248 0.0
H83 H 0.19487 0.763 0.08684 0.0
O84 O 0.32486 0.03691 0.09277 0.0
O85 O 0.23466 0.96765 0.03727 0.0
O86 O 0.23775 0.88285 0.06711 0.0
C87 C 0.24396 0.91523 0.03669 0.0
H88 H 0.32373 0.25685 0.08469 0.0
H89 H 1.0345 0.74212 0.1548 0.0
Co90 Co 0.2572 0.06253 0.28478 0.0
C91 C 0.38433 0.06563 0.26662 0.0
Co92 Co 0.34384 0.15488 0.25795 0.0
C93 C 0.11796 0.95921 0.30324 0.0
C94 C 0.1844 0.91637 0.30021 0.0
N95 N 0.18607 0.97721 0.30464 0.0
N96 N 0.07567 0.89189 0.29507 0.0
C97 C 0.1172 0.86439 0.29416 0.0
H98 H 0.09944 0.99549 0.30313 0.0
H99 H 0.22941 0.91098 0.29645 0.0
C100 C 0.22509 0.16388 0.28554 0.0
N101 N 0.40462 0.24262 0.23748 0.0
C102 C 0.43193 0.29843 0.26152 0.0
C103 C 0.36979 0.25848 0.21202 0.0
N104 N 0.40297 0.33831 0.25634 0.0
C105 C 0.36286 0.31152 0.226 0.0
C106 C 0.24531 0.05344 0.20485 0.0
O107 O 0.19679 0.09984 0.29141 0.0
O108 O 0.28458 0.19323 0.27093 0.0
O109 O 0.29694 0.11475 0.20764 0.0
O110 O 0.21759 1.02238 0.23559 0.0
O111 O 0.40379 0.12141 0.24833 0.0
H112 H 0.33773 0.2252 0.18956 0.0
H113 H 0.466 0.30525 0.28512 0.0
O114 O 0.32207 1.03132 0.27927 0.0
O115 O 0.30117 0.10063 0.33477 0.0
O116 O 0.38902 0.18541 0.30491 0.0
C117 C 0.36288 0.15305 0.33533 0.0
H118 H 0.101 0.81141 0.28737 0.0
H119 H 0.32636 0.32607 0.21725 0.0
Co120 Co 1.0228 0.21174 0.28479 0.0
C121 C 1.0197 0.33579 0.26663 0.0
Co122 Co 0.93045 0.20606 0.25795 0.0
C123 C 0.12613 0.17582 0.30323 0.0
C124 C 0.16895 0.2851 0.30021 0.0
N125 N 0.10812 0.22593 0.30465 0.0
N126 N 0.19343 0.20085 0.29502 0.0
C127 C 0.22093 0.26987 0.29414 0.0
H128 H 0.08986 0.12103 0.30314 0.0
H129 H 0.17434 0.3355 0.29646 0.0
C130 C 0.92147 0.0783 0.28553 0.0
N131 N 0.8427 0.17911 0.23748 0.0
C132 C 0.7869 0.15059 0.26153 0.0
C133 C 0.82685 0.12844 0.21202 0.0
N134 N 0.74704 0.08177 0.25634 0.0
C135 C 0.77383 0.06847 0.22599 0.0
C136 C 1.03189 0.20896 0.20486 0.0
O137 O 0.98551 0.11403 0.29142 0.0
O138 O 0.89212 0.10845 0.27092 0.0
O139 O 0.97058 0.19931 0.20764 0.0
O140 O 0.06295 0.21228 0.23559 0.0
O141 O 0.96392 0.2995 0.24834 0.0
H142 H 0.86014 0.12968 0.18956 0.0
H143 H 0.78009 0.17783 0.28514 0.0
O144 O 0.054 0.30782 0.27927 0.0
O145 O 0.98472 0.21761 0.33477 0.0
O146 O 0.89993 0.22069 0.30492 0.0
C147 C 0.93229 0.2269 0.33533 0.0
H148 H 0.27391 0.30665 0.28735 0.0
H149 H 0.75929 1.01743 0.21723 0.0
Co150 Co 0.87362 0.82815 0.28479 0.0
C151 C 0.74959 0.70101 0.26662 0.0
Co152 Co 0.87932 0.74149 0.25795 0.0
C153 C 0.90953 0.96739 0.30323 0.0
C154 C 0.80026 0.90096 0.3002 0.0
N155 N 0.85943 0.89929 0.30465 0.0
N156 N 0.8845 1.00968 0.29502 0.0
C157 C 0.81549 0.96817 0.29413 0.0
H158 H 0.96432 0.9859 0.30315 0.0
H159 H 0.74987 0.85596 0.29645 0.0
C160 C 1.00706 0.86024 0.28555 0.0
N161 N 0.90627 0.6807 0.23748 0.0
C162 C 0.93481 0.65343 0.26153 0.0
C163 C 0.95692 0.71552 0.21201 0.0
N164 N 1.00364 0.68242 0.25634 0.0
C165 C 1.01691 0.7225 0.22599 0.0
C166 C 0.87642 0.84005 0.20486 0.0
O167 O 0.97132 0.88855 0.29143 0.0
O168 O 0.97692 0.80075 0.27094 0.0
O169 O 0.88609 0.78839 0.20765 0.0
O170 O 0.87308 0.86777 0.2356 0.0
O171 O 0.78589 0.68154 0.24833 0.0
H172 H 0.95565 0.74752 0.18953 0.0
H173 H 0.90758 0.61936 0.28513 0.0
O174 O 0.77754 0.76328 0.27927 0.0
O175 O 0.86774 0.78418 0.33477 0.0
O176 O 0.86467 0.69631 0.30492 0.0
C177 C 0.85844 0.72246 0.33533 0.0
H178 H 0.77871 0.98438 0.28733 0.0
H179 H 0.06794 0.75902 0.21724 0.0
Co180 Co 0.93044 0.74151 0.7579 0.0
C181 C 0.92147 0.86028 0.78547 0.0
Co182 Co 1.0228 0.82817 0.78473 0.0
C183 C 0.7869 0.65339 0.76153 0.0
C184 C 0.82679 0.71547 0.712 0.0
N185 N 0.84269 0.68069 0.73747 0.0
N186 N 0.747 0.68231 0.75634 0.0
C187 C 0.77373 0.72237 0.72597 0.0
H188 H 0.78013 0.61937 0.78515 0.0
H189 H 0.86007 0.74754 0.68955 0.0
C190 C 1.01969 0.70102 0.7666 0.0
N191 N 0.10813 0.8993 0.80457 0.0
C192 C 0.12614 0.96741 0.80315 0.0
C193 C 0.16896 0.90094 0.80016 0.0
N194 N 0.19347 1.00969 0.795 0.0
C195 C 0.22095 0.96815 0.79411 0.0
C196 C 0.93232 0.72253 0.8353 0.0
O197 O 0.96392 0.68154 0.7483 0.0
O198 O 0.054 0.76329 0.77922 0.0
O199 O 0.98474 0.78424 0.83473 0.0
O200 O 0.89996 0.69638 0.80488 0.0
O201 O 0.9855 0.88858 0.79135 0.0
H202 H 0.17434 0.85593 0.79642 0.0
H203 H 0.08987 0.98594 0.80302 0.0
O204 O 0.8921 0.80078 0.77087 0.0
O205 O 0.97054 0.78837 0.70758 0.0
O206 O 0.06291 0.86773 0.73553 0.0
C207 C 1.03184 0.84002 0.70479 0.0
H208 H 0.75912 0.75882 0.7172 0.0
H209 H 0.27393 0.98434 0.78733 0.0
Co210 Co 0.34387 0.20603 0.75791 0.0
C211 C 0.22512 0.0783 0.78549 0.0
Co212 Co 0.25723 0.21175 0.78473 0.0
C213 C 0.43197 0.15059 0.76153 0.0
C214 C 0.36991 0.12843 0.712 0.0
N215 N 0.40469 0.1791 0.73747 0.0
N216 N 0.40302 0.08176 0.75634 0.0
C217 C 0.36297 0.06846 0.72598 0.0
H218 H 0.46601 0.17783 0.78514 0.0
H219 H 0.33788 0.12968 0.68952 0.0
C220 C 0.38436 0.33577 0.76659 0.0
N221 N 0.18609 0.22595 0.80457 0.0
C222 C 0.11798 0.17585 0.80316 0.0
C223 C 0.18443 0.28513 0.80016 0.0
N224 N 0.0757 0.2009 0.795 0.0
C225 C 0.11722 0.26992 0.7941 0.0
C226 C 0.36288 0.22692 0.8353 0.0
O227 O 0.40382 0.29947 0.74829 0.0
O228 O 0.32209 0.30783 0.77922 0.0
O229 O 0.30117 0.21762 0.83473 0.0
O230 O 0.38903 0.2207 0.80489 0.0
O231 O 0.19682 0.11405 0.79136 0.0
H232 H 0.22944 0.33552 0.79641 0.0
H233 H 0.09947 0.12106 0.80304 0.0
O234 O 0.28463 0.10843 0.77089 0.0
O235 O 0.297 0.19926 0.70759 0.0
O236 O 0.21764 0.21229 0.73553 0.0
C237 C 0.24534 0.20891 0.70479 0.0
H238 H 0.3265 1.01741 0.71721 0.0
H239 H 0.10102 0.30671 0.78732 0.0
Co240 Co 0.87934 0.15498 0.75791 0.0
C241 C 1.00708 0.16395 0.78549 0.0
Co242 Co 0.87365 0.06262 0.78473 0.0
C243 C 0.93479 0.29853 0.76153 0.0
C244 C 0.95691 0.25862 0.712 0.0
N245 N 0.90627 0.24274 0.73747 0.0
N246 N 1.00361 0.33839 0.75634 0.0
C247 C 1.0169 0.31164 0.72597 0.0
H248 H 0.90757 0.30532 0.78516 0.0
H249 H 0.95565 0.22534 0.68952 0.0
C250 C 0.74961 0.06573 0.76659 0.0
N251 N 0.85946 0.97728 0.80458 0.0
C252 C 0.90956 0.95927 0.80315 0.0
C253 C 0.80028 0.91646 0.80015 0.0
N254 N 0.88451 0.89195 0.79495 0.0
C255 C 0.8155 0.86446 0.79408 0.0
C256 C 0.85848 0.1531 0.8353 0.0
O257 O 0.7859 0.12151 0.7483 0.0
O258 O 0.77758 1.03142 0.77922 0.0
O259 O 0.86778 0.10067 0.83473 0.0
O260 O 0.86469 0.18547 0.80489 0.0
O261 O 0.97135 0.09991 0.79136 0.0
H262 H 0.74989 0.91108 0.79642 0.0
H263 H 0.96434 0.99553 0.80304 0.0
O264 O 0.97695 0.19332 0.77089 0.0
O265 O 0.88611 0.11488 0.70759 0.0
O266 O 0.87312 1.0225 0.73553 0.0
C267 C 0.87648 0.05358 0.7048 0.0
H268 H 0.06793 0.32621 0.71719 0.0
H269 H 0.77871 0.81148 0.7873 0.0
Co270 Co 0.7586 0.91344 0.61405 0.0
C271 C 0.87735 0.90445 0.58646 0.0
Co272 Co 0.84524 1.00579 0.58721 0.0
C273 C 0.67051 0.76989 0.61047 0.0
C274 C 0.73265 0.80984 0.65997 0.0
N275 N 0.69782 0.8257 0.63452 0.0
N276 N 0.69947 0.73001 0.61566 0.0
C277 C 0.73958 0.7568 0.646 0.0
H278 H 0.63644 0.76307 0.58687 0.0
H279 H 0.76471 0.84313 0.68243 0.0
C280 C 0.7181 1.00269 0.60537 0.0
N281 N 0.91637 0.09111 0.56735 0.0
C282 C 0.98448 0.10911 0.56875 0.0
C283 C 0.91803 0.15195 0.57178 0.0
N284 N 1.02677 0.17644 0.57693 0.0
C285 C 0.98524 0.20393 0.57783 0.0
C286 C 0.73956 0.91527 0.53666 0.0
O287 O 0.69865 0.94692 0.62367 0.0
O288 O 0.78036 0.037 0.59272 0.0
O289 O 0.80127 0.96769 0.53722 0.0
O290 O 0.71342 0.88291 0.56708 0.0
O291 O 0.90565 0.96848 0.58058 0.0
H292 H 0.87303 0.15735 0.57555 0.0
H293 H 1.00299 0.07283 0.56886 0.0
O294 O 0.81785 0.87509 0.60106 0.0
O295 O 0.8055 0.95357 0.66435 0.0
O296 O 0.88484 0.04594 0.6364 0.0
C297 C 0.85713 1.01488 0.66714 0.0
H298 H 0.77608 0.74226 0.65475 0.0
H299 H 1.00144 0.25692 0.58463 0.0
Co300 Co 0.17198 0.86226 0.61405 0.0
C301 C 0.18096 0.99001 0.58646 0.0
Co302 Co 0.07963 0.85658 0.58721 0.0
C303 C 0.31553 0.91773 0.61047 0.0
C304 C 0.27558 0.93987 0.65998 0.0
N305 N 0.25973 0.88921 0.63451 0.0
N306 N 0.35539 0.98655 0.61566 0.0
C307 C 0.3286 0.99985 0.64601 0.0
H308 H 0.32235 0.89049 0.58685 0.0
H309 H 0.24229 0.93863 0.68244 0.0
C310 C 0.08274 0.73252 0.60536 0.0
N311 N 0.99431 0.84239 0.56735 0.0
C312 C 0.97631 0.8925 0.56876 0.0
C313 C 0.93348 0.78322 0.57178 0.0
N314 N 0.909 0.86747 0.57697 0.0
C315 C 0.8815 0.79845 0.57786 0.0
C316 C 0.17014 0.84141 0.53666 0.0
O317 O 0.13852 0.76882 0.62366 0.0
O318 O 1.04843 0.76049 0.59272 0.0
O319 O 0.11772 0.85071 0.53722 0.0
O320 O 0.2025 0.84762 0.56708 0.0
O321 O 0.11693 0.95429 0.58058 0.0
H322 H 0.9281 0.73282 0.57554 0.0
H323 H 1.01258 0.94729 0.56886 0.0
O324 O 0.21032 0.95987 0.60107 0.0
O325 O 0.13185 0.86901 0.66436 0.0
O326 O 1.03949 0.85603 0.6364 0.0
C327 C 0.07054 0.85935 0.66714 0.0
H328 H 0.34314 0.05089 0.65476 0.0
H329 H 0.82853 0.76167 0.58465 0.0
Co330 Co 0.22312 0.32682 0.61404 0.0
C331 C 0.09538 0.20808 0.58644 0.0
Co332 Co 0.22882 0.24017 0.5872 0.0
C333 C 0.16763 0.41489 0.61047 0.0
C334 C 0.14552 0.3528 0.65998 0.0
N335 N 0.19617 0.38762 0.63451 0.0
N336 N 0.0988 0.38589 0.61565 0.0
C337 C 0.08552 0.34581 0.646 0.0
H338 H 0.19485 0.44895 0.58686 0.0
H339 H 0.14679 0.3208 0.68246 0.0
C340 C 0.35285 0.36731 0.60537 0.0
N341 N 0.24301 0.16903 0.56735 0.0
C342 C 0.19291 0.10093 0.56876 0.0
C343 C 0.30218 0.16736 0.57179 0.0
N344 N 0.21793 0.05864 0.57697 0.0
C345 C 0.28695 0.10015 0.57787 0.0
C346 C 0.244 0.34586 0.53666 0.0
O347 O 0.31655 0.38678 0.62367 0.0
O348 O 0.3249 0.30504 0.59273 0.0
O349 O 0.2347 0.28414 0.53722 0.0
O350 O 0.23778 0.37201 0.56707 0.0
O351 O 0.13112 0.17977 0.58056 0.0
H352 H 0.35257 0.21236 0.57554 0.0
H353 H 0.13812 0.08242 0.56885 0.0
O354 O 0.12552 0.26757 0.60105 0.0
O355 O 0.21635 0.27992 0.66435 0.0
O356 O 0.22936 0.20055 0.6364 0.0
C357 C 0.22601 0.22827 0.66713 0.0
H358 H 1.0345 0.30929 0.65476 0.0
H359 H 0.32373 0.08394 0.58466 0.0
Co360 Co 0.74631 0.57349 0.4206 0.0
C361 C 0.74942 0.70064 0.43873 0.0
Co362 Co 0.83866 0.66015 0.44742 0.0
C363 C 0.64296 0.43424 0.40217 0.0
C364 C 0.60015 0.50071 0.40516 0.0
N365 N 0.66098 0.50235 0.40076 0.0
N366 N 0.57564 0.39197 0.41032 0.0
C367 C 0.54815 0.43351 0.41121 0.0
H368 H 0.67923 0.41571 0.40231 0.0
H369 H 0.59477 0.54573 0.4089 0.0
C370 C 0.84763 0.54137 0.41985 0.0
N371 N 0.92642 0.72096 0.46786 0.0
C372 C 0.98221 0.74827 0.4438 0.0
C373 C 0.94232 0.68617 0.49332 0.0
N374 N 1.0221 0.71933 0.44898 0.0
C375 C 0.99537 0.67926 0.47934 0.0
C376 C 0.73727 0.56163 0.50054 0.0
O377 O 0.7836 0.51307 0.41398 0.0
O378 O 0.877 0.60088 0.43445 0.0
O379 O 0.79857 0.61329 0.49774 0.0
O380 O 0.7062 0.53392 0.4698 0.0
O381 O 0.8052 0.72012 0.45703 0.0
H382 H 0.90903 0.65409 0.51577 0.0
H383 H 0.98898 0.7823 0.42019 0.0
O384 O 0.7151 0.63836 0.42611 0.0
O385 O 0.78437 0.61742 0.3706 0.0
O386 O 0.86915 0.70528 0.40044 0.0
C387 C 0.83678 0.67913 0.37003 0.0
H388 H 0.49517 0.41732 0.41798 0.0
H389 H 1.00996 0.64278 0.4881 0.0
Co390 Co 0.51188 0.18991 0.4206 0.0
C391 C 0.38474 0.06589 0.43874 0.0
Co392 Co 0.42523 0.19562 0.44742 0.0
C393 C 0.65112 0.2258 0.40217 0.0
C394 C 0.58467 0.11652 0.40517 0.0
N395 N 0.58301 0.17571 0.40075 0.0
N396 N 0.6934 0.20075 0.41033 0.0
C397 C 0.65188 0.13173 0.41122 0.0
H398 H 0.66964 0.28059 0.40229 0.0
H399 H 0.53967 0.06613 0.40891 0.0
C400 C 0.54398 0.32335 0.41983 0.0
N401 N 0.36441 0.22256 0.46786 0.0
C402 C 0.33713 0.25107 0.44381 0.0
C403 C 0.39921 0.27324 0.49332 0.0
N404 N 0.36609 0.3199 0.44898 0.0
C405 C 0.40616 0.33321 0.47934 0.0
C406 C 0.52376 0.19275 0.50053 0.0
O407 O 0.57228 0.28761 0.41397 0.0
O408 O 0.48448 0.29323 0.43443 0.0
O409 O 0.47211 0.2024 0.49773 0.0
O410 O 0.55146 0.18936 0.4698 0.0
O411 O 0.36528 0.10219 0.45704 0.0
H412 H 0.43124 0.272 0.5158 0.0
H413 H 0.30308 0.22382 0.42019 0.0
O414 O 0.44701 0.09383 0.42611 0.0
O415 O 0.46793 0.18403 0.3706 0.0
O416 O 0.38006 0.18096 0.40044 0.0
C417 C 0.40621 0.17473 0.37003 0.0
H418 H 0.66808 0.09494 0.418 0.0
H419 H 0.44265 0.38426 0.4881 0.0
Co420 Co 0.89545 0.33903 0.42059 0.0
C421 C 1.01949 0.33591 0.43873 0.0
Co422 Co 0.88976 0.24667 0.44742 0.0
C423 C 0.85955 0.44238 0.40218 0.0
C424 C 0.96882 0.48519 0.40517 0.0
N425 N 0.90964 0.42437 0.40075 0.0
N426 N 0.88459 0.5097 0.41037 0.0
C427 C 0.95361 0.53719 0.41124 0.0
H428 H 0.80476 0.40612 0.40229 0.0
H429 H 1.01922 0.49057 0.4089 0.0
C430 C 0.76202 0.2377 0.41983 0.0
N431 N 0.86283 0.15891 0.46786 0.0
C432 C 0.83431 0.10312 0.4438 0.0
C433 C 0.81217 0.14303 0.49333 0.0
N434 N 0.76548 0.06327 0.44898 0.0
C435 C 0.75219 0.09002 0.47935 0.0
C436 C 0.89262 0.34807 0.50053 0.0
O437 O 0.79775 0.30174 0.41396 0.0
O438 O 0.79215 0.20833 0.43444 0.0
O439 O 0.88299 0.28677 0.49773 0.0
O440 O 0.89598 0.37915 0.46979 0.0
O441 O 0.9832 0.28013 0.45703 0.0
H442 H 0.81343 0.17631 0.5158 0.0
H443 H 0.86154 0.09632 0.42018 0.0
O444 O 0.99152 0.37023 0.42611 0.0
O445 O 0.90132 0.30097 0.3706 0.0
O446 O 0.90441 0.21617 0.40044 0.0
C447 C 0.91062 0.24855 0.37003 0.0
H448 H 0.9904 0.59018 0.41802 0.0
H449 H 0.70115 0.07547 0.48811 0.0
Co450 Co 0.92386 0.39585 0.61812 0.0
C451 C 1.05098 0.39893 0.59995 0.0
Co452 Co 1.0105 0.4882 0.59128 0.0
C453 C 0.78462 0.29253 0.63657 0.0
C454 C 0.85106 0.24968 0.63354 0.0
N455 N 0.85272 0.31052 0.63798 0.0
N456 N 0.74233 0.22521 0.6284 0.0
C457 C 0.78385 0.19771 0.62748 0.0
H458 H 0.76611 0.32881 0.63647 0.0
H459 H 0.89606 0.24429 0.62977 0.0
C460 C 0.89176 0.4972 0.61887 0.0
N461 N 0.07127 0.57594 0.57081 0.0
C462 C 0.09862 0.63176 0.59484 0.0
C463 C 1.03646 0.5918 0.54535 0.0
N464 N 0.06974 0.6717 0.58962 0.0
C465 C 1.02958 0.64488 0.5593 0.0
C466 C 0.91197 0.38676 0.53819 0.0
O467 O 0.86346 0.43316 0.62475 0.0
O468 O 0.95125 0.52655 0.60426 0.0
O469 O 0.96362 0.44806 0.54097 0.0
O470 O 0.88425 0.3557 0.56893 0.0
O471 O 0.07047 0.45473 0.58167 0.0
H472 H 1.00435 0.55849 0.52291 0.0
H473 H 0.13263 0.63854 0.61847 0.0
O474 O 0.98872 0.36462 0.6126 0.0
O475 O 0.96784 0.43394 0.6681 0.0
O476 O 0.05568 0.51873 0.63825 0.0
C477 C 1.02954 0.48637 0.66867 0.0
H478 H 0.76764 0.14473 0.62068 0.0
H479 H 0.99307 0.65943 0.55056 0.0
Co480 Co 0.68949 0.54509 0.61812 0.0
C481 C 0.6864 0.66914 0.59995 0.0
Co482 Co 0.59714 0.53941 0.59128 0.0
C483 C 0.79281 0.50916 0.63657 0.0
C484 C 0.83564 0.61844 0.63354 0.0
N485 N 0.77481 0.55927 0.63798 0.0
N486 N 0.86011 0.53418 0.62835 0.0
C487 C 0.88761 0.6032 0.62746 0.0
H488 H 0.75654 0.45437 0.63648 0.0
H489 H 0.84103 0.66884 0.62978 0.0
C490 C 0.58815 0.41165 0.61887 0.0
N491 N 0.50939 0.51245 0.57082 0.0
C492 C 0.45358 0.48395 0.59485 0.0
C493 C 0.49354 0.46179 0.54534 0.0
N494 N 0.41365 0.41514 0.58962 0.0
C495 C 0.44047 0.40183 0.5593 0.0
C496 C 0.69858 0.54231 0.53819 0.0
O497 O 0.65218 0.44737 0.62476 0.0
O498 O 0.5588 0.4418 0.60425 0.0
O499 O 0.63727 0.53267 0.54097 0.0
O500 O 0.72963 0.54562 0.56893 0.0
O501 O 0.6306 0.63285 0.58168 0.0
H502 H 0.52684 0.463 0.5229 0.0
H503 H 0.44679 0.51117 0.61848 0.0
O504 O 0.7207 0.64117 0.6126 0.0
O505 O 0.65141 0.55097 0.6681 0.0
O506 O 0.56661 0.55403 0.63825 0.0
C507 C 0.59898 0.56025 0.66867 0.0
H508 H 0.94059 0.63997 0.62066 0.0
H509 H 0.42594 0.35078 0.55055 0.0
Co510 Co 0.54027 0.16149 0.61812 0.0
C511 C 0.41624 0.03437 0.59995 0.0
Co512 Co 0.54597 0.07483 0.59129 0.0
C513 C 0.5762 0.30074 0.63657 0.0
C514 C 0.46693 0.23431 0.63353 0.0
N515 N 0.52609 0.23263 0.63798 0.0
N516 N 0.55118 0.34303 0.62835 0.0
C517 C 0.48216 0.30152 0.62745 0.0
H518 H 0.63098 0.31924 0.63649 0.0
H519 H 0.41653 0.18931 0.62977 0.0
C520 C 0.67371 0.19357 0.61889 0.0
N521 N 0.57293 1.01404 0.57081 0.0
C522 C 0.60145 0.98674 0.59485 0.0
C523 C 0.62358 0.04885 0.54534 0.0
N524 N 0.67026 1.01565 0.58962 0.0
C525 C 0.68356 0.05578 0.5593 0.0
C526 C 0.54308 0.17339 0.53819 0.0
O527 O 0.63798 0.22188 0.62477 0.0
O528 O 0.64358 0.13408 0.60427 0.0
O529 O 0.55273 0.12172 0.54098 0.0
O530 O 0.53975 0.20111 0.56893 0.0
O531 O 0.45254 1.01487 0.58167 0.0
H532 H 0.62233 0.0809 0.52288 0.0
H533 H 0.57425 0.95273 0.61848 0.0
O534 O 0.44419 0.09663 0.6126 0.0
O535 O 0.53438 0.11751 0.66811 0.0
O536 O 0.53133 1.02965 0.63825 0.0
C537 C 0.5251 0.05579 0.66867 0.0
H538 H 0.44539 0.31774 0.62065 0.0
H539 H 0.73459 0.09231 0.55055 0.0
Co540 Co 0.59713 0.07484 0.09124 0.0
C541 C 0.58815 0.19361 0.1188 0.0
Co542 Co 0.68948 0.1615 0.11807 0.0
C543 C 0.45357 0.9867 0.09485 0.0
C544 C 0.49347 0.0488 0.04533 0.0
N545 N 0.50937 1.01403 0.0708 0.0
N546 N 0.41361 1.01555 0.08962 0.0
C547 C 0.44037 0.05565 0.05928 0.0
H548 H 0.44684 0.95274 0.11849 0.0
H549 H 0.52677 0.08092 0.02289 0.0
C550 C 0.68639 0.03437 0.09992 0.0
N551 N 0.77481 0.23265 0.13791 0.0
C552 C 0.79282 0.30076 0.13649 0.0
C553 C 0.83564 0.23429 0.13349 0.0
N554 N 0.86014 0.34303 0.12833 0.0
C555 C 0.88763 0.3015 0.12743 0.0
C556 C 0.59901 0.05587 0.16863 0.0
O557 O 0.63059 1.01487 0.08164 0.0
O558 O 0.7207 0.09664 0.11256 0.0
O559 O 0.65143 0.11757 0.16806 0.0
O560 O 0.56664 1.02972 0.13822 0.0
O561 O 0.65218 0.22191 0.12469 0.0
H562 H 0.84103 0.18928 0.12974 0.0
H563 H 0.75655 0.31928 0.13637 0.0
O564 O 0.55878 0.13411 0.1042 0.0
O565 O 0.63723 0.1217 0.04092 0.0
O566 O 0.72959 0.20108 0.06886 0.0
C567 C 0.69852 0.17336 0.03813 0.0
H568 H 0.42577 0.09211 0.05052 0.0
H569 H 0.94061 0.31769 0.12065 0.0
Co570 Co 1.01054 0.53938 0.09124 0.0
C571 C 0.89179 0.41165 0.11882 0.0
Co572 Co 0.92389 0.5451 0.11807 0.0
C573 C 0.09866 0.48394 0.09485 0.0
C574 C 1.03658 0.46178 0.04532 0.0
N575 N 0.07135 0.51244 0.0708 0.0
N576 N 0.06979 0.41514 0.08962 0.0
C577 C 1.02969 0.40182 0.05928 0.0
H578 H 0.13264 0.51116 0.11849 0.0
H579 H 1.00451 0.46301 0.02287 0.0
C580 C 1.051 0.66911 0.09991 0.0
N581 N 0.85274 0.55929 0.13791 0.0
C582 C 0.78464 0.50919 0.1365 0.0
C583 C 0.85108 0.61847 0.13348 0.0
N584 N 0.74235 0.53423 0.12833 0.0
C585 C 0.78387 0.60325 0.12742 0.0
C586 C 1.02955 0.56027 0.16863 0.0
O587 O 0.0705 0.63282 0.08163 0.0
O588 O 0.98874 0.64117 0.11255 0.0
O589 O 0.96784 0.55098 0.16806 0.0
O590 O 0.05569 0.55404 0.13822 0.0
O591 O 0.86349 0.44739 0.1247 0.0
H592 H 0.89608 0.66886 0.12974 0.0
H593 H 0.76613 0.4544 0.13638 0.0
O594 O 0.95129 0.44178 0.10422 0.0
O595 O 0.96367 0.53262 0.04093 0.0
O596 O 0.8843 0.54563 0.06886 0.0
C597 C 0.912 0.54226 0.03813 0.0
H598 H 0.99321 0.35077 0.05052 0.0
H599 H 0.76767 0.64004 0.12063 0.0
Co600 Co 0.54599 0.4883 0.09125 0.0
C601 C 0.67374 0.49727 0.11882 0.0
Co602 Co 0.54031 0.39593 0.11807 0.0
C603 C 0.60143 0.63185 0.09485 0.0
C604 C 0.62356 0.59194 0.04532 0.0
N605 N 0.57293 0.57606 0.0708 0.0
N606 N 0.67023 0.67178 0.08962 0.0
C607 C 0.68354 0.645 0.05927 0.0
H608 H 0.57423 0.63861 0.1185 0.0
H609 H 0.62233 0.55864 0.02286 0.0
C610 C 0.41627 0.39903 0.09992 0.0
N611 N 0.52612 0.3106 0.13791 0.0
C612 C 0.57622 0.29259 0.13649 0.0
C613 C 0.46695 0.24977 0.13348 0.0
N614 N 0.55118 0.22528 0.12828 0.0
C615 C 0.48217 0.19778 0.1274 0.0
C616 C 0.52513 0.48641 0.16863 0.0
O617 O 0.45255 0.45483 0.08164 0.0
O618 O 0.44423 0.36472 0.11255 0.0
O619 O 0.53442 0.43399 0.16806 0.0
O620 O 0.53135 0.5188 0.13822 0.0
O621 O 0.63801 0.43324 0.1247 0.0
H622 H 0.41655 0.24438 0.12975 0.0
H623 H 0.63101 0.32886 0.13638 0.0
O624 O 0.6436 0.52664 0.10421 0.0
O625 O 0.55275 0.44819 0.04093 0.0
O626 O 0.53978 0.35582 0.06887 0.0
C627 C 0.54313 0.38689 0.03813 0.0
H628 H 0.73458 0.65956 0.05051 0.0
H629 H 0.44538 0.1448 0.12061 0.0
Co630 Co 0.42526 0.24676 -0.05262 0.0
C631 C 0.54401 0.23777 0.91979 0.0
Co632 Co 0.5119 0.33911 0.92054 0.0
C633 C 0.33717 0.10321 -0.05619 0.0
C634 C 0.39933 0.14317 -0.0067 0.0
N635 N 0.36449 0.15903 -0.03215 0.0
N636 N 0.36614 0.06334 -0.05102 0.0
C637 C 0.40627 0.09014 -0.02068 0.0
H638 H 0.30309 0.09639 0.92021 0.0
H639 H 0.4314 0.17645 0.01576 0.0
C640 C 0.38477 0.33601 -0.06129 0.0
N641 N 0.58303 0.42444 0.90069 0.0
C642 C 0.65114 0.44244 0.90209 0.0
C643 C 0.58469 0.48528 0.90511 0.0
N644 N 0.69343 0.50977 0.91026 0.0
C645 C 0.6519 0.53726 0.91116 0.0
C646 C 0.40622 0.2486 0.87 0.0
O647 O 0.36531 0.28024 -0.043 0.0
O648 O 0.44703 0.37033 0.92606 0.0
O649 O 0.46793 0.30102 0.87056 0.0
O650 O 0.38008 0.21624 0.90041 0.0
O651 O 0.57232 0.30181 0.91391 0.0
H652 H 0.53969 0.49067 0.90888 0.0
H653 H 0.66966 0.40616 0.9022 0.0
O654 O 0.48452 0.20842 0.93439 0.0
O655 O 0.47216 0.28689 -0.00231 0.0
O656 O 0.55151 0.37927 -0.03026 0.0
C657 C 0.52379 0.34821 0.00047 0.0
H658 H 0.44279 0.0756 -0.01194 0.0
H659 H 0.6681 0.59025 0.91795 0.0
Co660 Co 0.83866 0.1956 -0.05262 0.0
C661 C 0.84763 0.32335 0.91979 0.0
Co662 Co 0.74631 0.18992 0.92054 0.0
C663 C 0.98221 0.25106 -0.0562 0.0
C664 C 0.94225 0.27323 -0.0067 0.0
N665 N 0.9264 0.22255 -0.03215 0.0
N666 N 1.02206 0.3199 -0.05102 0.0
C667 C 0.99527 0.3332 -0.02068 0.0
H668 H 0.98903 0.22381 0.9202 0.0
H669 H 0.90896 0.272 0.01576 0.0
C670 C 0.74941 0.06587 -0.0613 0.0
N671 N 0.66098 0.17572 0.90068 0.0
C672 C 0.64297 0.22583 0.9021 0.0
C673 C 0.60015 0.11655 0.90512 0.0
N674 N 0.57567 0.2008 0.9103 0.0
C675 C 0.54817 0.13178 0.91118 0.0
C676 C 0.83681 0.17475 0.87 0.0
O677 O 0.80519 0.10216 -0.04301 0.0
O678 O 0.7151 0.09384 0.92606 0.0
O679 O 0.78439 0.18404 0.87056 0.0
O680 O 0.86918 0.18096 0.90041 0.0
O681 O 0.7836 0.28763 0.91391 0.0
H682 H 0.59477 0.06615 0.90887 0.0
H683 H 0.67924 0.28062 0.90219 0.0
O684 O 0.87699 0.2932 0.9344 0.0
O685 O 0.79852 0.20235 -0.00231 0.0
O686 O 0.70616 0.18938 -0.03027 0.0
C687 C 0.73722 0.1927 0.00047 0.0
H688 H 1.00979 0.38425 -0.01193 0.0
H689 H 0.49519 0.095 0.91797 0.0
Co690 Co 0.88978 0.66016 -0.05263 0.0
C691 C 0.76204 0.54141 0.91977 0.0
Co692 Co 0.89548 0.5735 0.92054 0.0
C693 C 0.83429 0.74822 -0.0562 0.0
C694 C 0.81216 0.68612 -0.00669 0.0
N695 N 0.86282 0.72095 -0.03215 0.0
N696 N 0.76546 0.71922 -0.05102 0.0
C697 C 0.75217 0.67913 -0.02068 0.0
H698 H 0.86152 0.7823 0.9202 0.0
H699 H 0.81342 0.65411 0.01579 0.0
C700 C 1.01951 0.70064 -0.06129 0.0
N701 N 0.90968 0.50237 0.90068 0.0
C702 C 0.85957 0.43426 0.90209 0.0
C703 C 0.96884 0.5007 0.90512 0.0
N704 N 0.8846 0.39198 0.9103 0.0
C705 C 0.95362 0.43348 0.91119 0.0
C706 C 0.91066 0.6792 0.86999 0.0
O707 O 0.98321 0.72012 -0.043 0.0
O708 O 0.99156 0.63837 0.92606 0.0
O709 O 0.90136 0.61748 0.87056 0.0
O710 O 0.90443 0.70535 0.90041 0.0
O711 O 0.79778 0.5131 0.9139 0.0
H712 H 1.01924 0.5457 0.90887 0.0
H713 H 0.80478 0.41575 0.90218 0.0
O714 O 0.79218 0.60091 0.93438 0.0
O715 O 0.88301 0.61326 -0.00232 0.0
O716 O 0.89602 0.53389 -0.03027 0.0
C717 C 0.89267 0.56161 0.00047 0.0
H718 H 0.70114 0.64259 -0.01193 0.0
H719 H 0.99039 0.41728 0.91798 0.0
Co720 Co 0.41296 0.90682 0.75393 0.0
C721 C 0.41605 1.03395 0.77208 0.0
Co722 Co 0.50532 0.99348 0.78075 0.0
C723 C 0.30962 0.76756 0.7355 0.0
C724 C 0.2668 0.83403 0.7385 0.0
N725 N 0.32763 0.83568 0.73409 0.0
N726 N 0.24229 0.72529 0.74366 0.0
C727 C 0.21481 0.76682 0.74456 0.0
H728 H 0.34589 0.74904 0.73563 0.0
H729 H 0.26141 0.87904 0.74225 0.0
C730 C 0.51429 0.87471 0.75319 0.0
N731 N 0.59307 0.05428 0.80119 0.0
C732 C 0.64887 0.08162 0.77715 0.0
C733 C 0.60897 1.0195 0.82666 0.0
N734 N 0.68883 0.05276 0.78237 0.0
C735 C 0.66206 1.01264 0.8127 0.0
C736 C 0.40392 0.89496 0.83387 0.0
O737 O 0.45026 0.84641 0.7473 0.0
O738 O 0.54366 0.93421 0.76779 0.0
O739 O 0.46521 0.94663 0.83107 0.0
O740 O 0.37285 0.86724 0.80313 0.0
O741 O 0.47185 0.05346 0.79036 0.0
H742 H 0.57566 0.98738 0.84909 0.0
H743 H 0.65561 0.1156 0.75351 0.0
O744 O 0.38174 0.97168 0.75944 0.0
O745 O 0.45101 0.95075 0.70393 0.0
O746 O 0.53581 0.03861 0.73378 0.0
C747 C 0.50343 1.01246 0.70336 0.0
H748 H 0.16182 0.75063 0.75134 0.0
H749 H 0.67665 0.97616 0.82145 0.0
Co750 Co 0.17855 0.52322 0.75393 0.0
C751 C 0.05143 0.39921 0.77208 0.0
Co752 Co 0.09189 0.52894 0.78075 0.0
C753 C 0.3178 0.55913 0.7355 0.0
C754 C 0.25135 0.44985 0.73851 0.0
N755 N 0.24969 0.50903 0.73409 0.0
N756 N 0.36008 0.53408 0.74366 0.0
C757 C 0.31856 0.46507 0.74456 0.0
H758 H 0.33631 0.61392 0.73562 0.0
H759 H 0.20635 0.39946 0.74226 0.0
C760 C 0.21064 0.65667 0.75317 0.0
N761 N 1.03109 0.55589 0.8012 0.0
C762 C 1.00378 0.58438 0.77715 0.0
C763 C 0.06588 0.60656 0.82667 0.0
N764 N 1.03266 0.65319 0.78237 0.0
C765 C 0.07278 0.66652 0.8127 0.0
C766 C 0.19043 0.52607 0.83386 0.0
O767 O 0.23894 0.62093 0.74729 0.0
O768 O 0.15114 0.62654 0.76777 0.0
O769 O 0.13877 0.53571 0.83106 0.0
O770 O 0.21814 0.5227 0.80313 0.0
O771 O 1.03194 0.43551 0.79037 0.0
H772 H 0.09796 0.60534 0.84912 0.0
H773 H 0.96978 0.55715 0.75351 0.0
O774 O 0.1137 0.42715 0.75944 0.0
O775 O 0.13459 0.51734 0.70393 0.0
O776 O 1.04674 0.51428 0.73377 0.0
C777 C 0.07288 0.50805 0.70336 0.0
H778 H 0.33477 0.42828 0.75135 0.0
H779 H 0.10927 0.71757 0.82145 0.0
Co780 Co 0.56213 0.67238 0.75392 0.0
C781 C 0.68616 0.66928 0.77208 0.0
Co782 Co 0.55644 0.58002 0.78075 0.0
C783 C 0.52622 0.77573 0.73551 0.0
C784 C 0.63549 0.81855 0.73851 0.0
N785 N 0.57632 0.75772 0.73408 0.0
N786 N 0.55125 0.84304 0.74371 0.0
C787 C 0.62027 0.87054 0.74459 0.0
H788 H 0.47143 0.73946 0.73561 0.0
H789 H 0.68589 0.82393 0.74224 0.0
C790 C 0.4287 0.57105 0.75317 0.0
N791 N 0.5295 0.49226 0.80119 0.0
C792 C 0.501 0.43646 0.77714 0.0
C793 C 0.47885 0.47639 0.82667 0.0
N794 N 0.43219 0.39655 0.78237 0.0
C795 C 0.41888 0.42333 0.81271 0.0
C796 C 0.5593 0.68142 0.83386 0.0
O797 O 0.46443 0.63508 0.74729 0.0
O798 O 0.45883 0.54168 0.76778 0.0
O799 O 0.54968 0.62012 0.83106 0.0
O800 O 0.56265 0.71249 0.80313 0.0
O801 O 0.64989 0.61348 0.79036 0.0
H802 H 0.48008 0.50968 0.84912 0.0
H803 H 0.52821 0.42969 0.7535 0.0
O804 O 0.6582 0.7036 0.75944 0.0
O805 O 0.56802 0.63433 0.70393 0.0
O806 O 0.57108 0.54952 0.73377 0.0
C807 C 0.5773 0.5819 0.70336 0.0
H808 H 0.65705 0.92352 0.75137 0.0
H809 H 0.36784 0.40878 0.82146 0.0
Co810 Co 0.59053 0.72919 -0.04855 0.0
C811 C 0.71764 0.73227 0.93328 0.0
Co812 Co 0.67717 0.82154 0.92462 0.0
C813 C 0.45129 0.62587 -0.03009 0.0
C814 C 0.51773 0.58302 -0.03313 0.0
N815 N 0.51939 0.64386 -0.02869 0.0
N816 N 0.409 0.55854 -0.03827 0.0
C817 C 0.45052 0.53104 -0.03918 0.0
H818 H 0.43278 0.66215 -0.0302 0.0
H819 H 0.56273 0.57763 -0.03689 0.0
C820 C 0.55843 0.83054 -0.0478 0.0
N821 N 0.73794 0.90928 0.90414 0.0
C822 C 0.76529 0.9651 0.92817 0.0
C823 C 0.7031 0.92513 0.87869 0.0
N824 N 0.7364 1.00504 0.92296 0.0
C825 C 0.69622 0.97821 0.89265 0.0
C826 C 0.57864 0.7201 0.87152 0.0
O827 O 0.53012 0.7665 -0.04191 0.0
O828 O 0.61792 0.85989 -0.06241 0.0
O829 O 0.63029 0.78141 0.87431 0.0
O830 O 0.55091 0.68904 0.90226 0.0
O831 O 0.73714 0.78807 0.915 0.0
H832 H 0.67099 0.89183 0.85625 0.0
H833 H 0.79932 0.97189 -0.04821 0.0
O834 O 0.65538 0.69796 -0.05407 0.0
O835 O 0.63451 0.76728 0.00144 0.0
O836 O 0.72235 0.85208 -0.02842 0.0
C837 C 0.69621 0.81971 0.002 0.0
H838 H 0.43432 0.47806 -0.04598 0.0
H839 H 0.6597 0.99274 0.88392 0.0
Co840 Co 0.35615 0.87841 -0.04855 0.0
C841 C 0.35306 1.00246 0.93328 0.0
Co842 Co 0.26379 0.87273 0.92462 0.0
C843 C 0.45947 0.84249 -0.0301 0.0
C844 C 0.5023 0.95177 -0.03313 0.0
N845 N 0.44147 0.8926 -0.02869 0.0
N846 N 0.52677 0.86752 -0.03831 0.0
C847 C 0.55428 0.93654 -0.0392 0.0
H848 H 0.4232 0.7877 -0.03019 0.0
H849 H 0.50769 1.00217 -0.03688 0.0
C850 C 0.25481 0.74498 -0.0478 0.0
N851 N 0.17605 0.84577 0.90415 0.0
C852 C 0.12023 0.81728 0.92818 0.0
C853 C 0.1602 0.7951 0.87868 0.0
N854 N 0.08032 0.74847 0.92296 0.0
C855 C 0.10714 0.73514 0.89264 0.0
C856 C 0.36523 0.87563 0.87152 0.0
O857 O 0.31884 0.7807 -0.04191 0.0
O858 O 0.22546 0.77513 -0.06241 0.0
O859 O 0.30393 0.866 0.87431 0.0
O860 O 0.39628 0.87894 0.90226 0.0
O861 O 0.29725 0.96618 0.91501 0.0
H862 H 0.19351 0.79631 0.85624 0.0
H863 H 0.11345 0.84451 -0.04819 0.0
O864 O 0.38736 0.97449 -0.05407 0.0
O865 O 0.31807 0.8843 0.00144 0.0
O866 O 0.23326 0.88736 -0.02842 0.0
C867 C 0.26564 0.89358 0.002 0.0
H868 H 0.60725 0.97331 -0.046 0.0
H869 H 0.09262 0.68409 0.8839 0.0
Co870 Co 0.20694 0.49482 -0.04854 0.0
C871 C 0.08292 0.3677 0.93328 0.0
Co872 Co 0.21265 0.40816 0.92462 0.0
C873 C 0.24286 0.63407 -0.0301 0.0
C874 C 0.13359 0.56764 -0.03313 0.0
N875 N 0.19275 0.56596 -0.02869 0.0
N876 N 0.21784 0.67635 -0.03831 0.0
C877 C 0.14882 0.63485 -0.03921 0.0
H878 H 0.29765 0.65257 -0.03018 0.0
H879 H 0.0832 0.52264 -0.03689 0.0
C880 C 0.34038 0.52691 -0.04778 0.0
N881 N 0.23961 0.34738 0.90414 0.0
C882 C 0.26812 0.32007 0.92818 0.0
C883 C 0.29026 0.3822 0.87868 0.0
N884 N 0.33693 0.34899 0.92296 0.0
C885 C 0.35024 0.38914 0.89264 0.0
C886 C 0.20976 0.50672 0.87153 0.0
O887 O 0.30465 0.55521 -0.0419 0.0
O888 O 0.31025 0.46741 -0.06239 0.0
O889 O 0.2194 0.45505 0.87432 0.0
O890 O 0.20642 0.53445 0.90226 0.0
O891 O 0.11921 0.34819 0.915 0.0
H892 H 0.28902 0.41426 0.85622 0.0
H893 H 0.24091 0.28605 -0.0482 0.0
O894 O 0.11087 0.42997 -0.05407 0.0
O895 O 0.20105 0.45083 0.00144 0.0
O896 O 0.198 0.36298 -0.02841 0.0
C897 C 0.19177 0.38912 0.002 0.0
H898 H 0.11205 0.65106 -0.04601 0.0
H899 H 0.40128 0.42568 0.88391 0.0
Co900 Co 0.26378 0.40817 0.42457 0.0
C901 C 0.25481 0.52695 0.45214 0.0
Co902 Co 0.35614 0.49484 0.4514 0.0
C903 C 0.12023 0.32003 0.42818 0.0
C904 C 0.16013 0.38215 0.37867 0.0
N905 N 0.17603 0.34737 0.40413 0.0
N906 N 0.08027 0.34889 0.42296 0.0
C907 C 0.10704 0.38901 0.39263 0.0
H908 H 0.11349 0.28605 0.45182 0.0
H909 H 0.19344 0.41427 0.35623 0.0
C910 C 0.35305 0.36771 0.43325 0.0
N911 N 0.44148 0.56598 0.47124 0.0
C912 C 0.45948 0.63409 0.46982 0.0
C913 C 0.5023 0.56762 0.46682 0.0
N914 N 0.52681 0.67636 0.46167 0.0
C915 C 0.5543 0.63483 0.46077 0.0
C916 C 0.26567 0.3892 0.50196 0.0
O917 O 0.29725 0.34819 0.41497 0.0
O918 O 0.38736 0.42998 0.44588 0.0
O919 O 0.31809 0.4509 0.50139 0.0
O920 O 0.23329 0.36304 0.47155 0.0
O921 O 0.31884 0.55525 0.45802 0.0
H922 H 0.50769 0.52261 0.46308 0.0
H923 H 0.42321 0.65261 0.4697 0.0
O924 O 0.22544 0.46744 0.43754 0.0
O925 O 0.30389 0.45502 0.37425 0.0
O926 O 0.39625 0.53441 0.4022 0.0
C927 C 0.36518 0.50669 0.37146 0.0
H928 H 0.09245 0.42549 0.38388 0.0
H929 H 0.60728 0.65102 0.45399 0.0
Co930 Co 0.67721 0.87271 0.42458 0.0
C931 C 0.55846 0.74498 0.45216 0.0
Co932 Co 0.59056 0.87842 0.4514 0.0
C933 C 0.76533 0.81727 0.42818 0.0
C934 C 0.70323 0.79509 0.37866 0.0
N935 N 0.73801 0.84576 0.40413 0.0
N936 N 0.73645 0.74846 0.42296 0.0
C937 C 0.69633 0.73513 0.39263 0.0
H938 H 0.79932 0.8445 0.45181 0.0
H939 H 0.67115 0.79631 0.35621 0.0
C940 C 0.71767 1.00244 0.43324 0.0
N941 N 0.51941 0.89262 0.47124 0.0
C942 C 0.45131 0.84252 0.46983 0.0
C943 C 0.51775 0.9518 0.46682 0.0
N944 N 0.40902 0.86757 0.46166 0.0
C945 C 0.45055 0.93659 0.46076 0.0
C946 C 0.69622 0.8936 0.50196 0.0
O947 O 0.73717 0.96614 0.41496 0.0
O948 O 0.6554 0.9745 0.44588 0.0
O949 O 0.63451 0.88431 0.50139 0.0
O950 O 0.72237 0.88736 0.47155 0.0
O951 O 0.53016 0.78072 0.45803 0.0
H952 H 0.56276 1.00219 0.46307 0.0
H953 H 0.4328 0.78773 0.46971 0.0
O954 O 0.61796 0.77511 0.43756 0.0
O955 O 0.63034 0.86594 0.37426 0.0
O956 O 0.55096 0.87895 0.4022 0.0
C957 C 0.57867 0.87558 0.37146 0.0
H958 H 0.65984 0.68408 0.38388 0.0
H959 H 0.43434 0.97337 0.45398 0.0
Co960 Co 0.21267 0.82164 0.42458 0.0
C961 C 0.34041 0.83061 0.45216 0.0
Co962 Co 0.20698 0.72927 0.4514 0.0
C963 C 0.26811 0.9652 0.42819 0.0
C964 C 0.29025 0.92527 0.37866 0.0
N965 N 0.2396 0.9094 0.40414 0.0
N966 N 0.33691 1.00511 0.42296 0.0
C967 C 0.35022 0.97833 0.39262 0.0
H968 H 0.2409 0.97196 0.45183 0.0
H969 H 0.28903 0.89197 0.35621 0.0
C970 C 0.08294 0.73237 0.43325 0.0
N971 N 0.19279 0.64394 0.47124 0.0
C972 C 0.24289 0.62593 0.46982 0.0
C973 C 0.13362 0.58311 0.46682 0.0
N974 N 0.21785 0.55861 0.46162 0.0
C975 C 0.14883 0.53112 0.46074 0.0
C976 C 0.19181 0.81976 0.50197 0.0
O977 O 0.11922 0.78818 0.41497 0.0
O978 O 0.11091 0.69806 0.44588 0.0
O979 O 0.20109 0.76733 0.50139 0.0
O980 O 0.19803 0.85214 0.47156 0.0
O981 O 0.30468 0.76657 0.45804 0.0
H982 H 0.08322 0.57773 0.46308 0.0
H983 H 0.29767 0.66219 0.46971 0.0
O984 O 0.31027 0.85998 0.43755 0.0
O985 O 0.21942 0.78153 0.37426 0.0
O986 O 0.20646 0.68916 0.4022 0.0
C987 C 0.20981 0.72024 0.37146 0.0
H988 H 0.40127 0.99288 0.38386 0.0
H989 H 0.11205 0.47813 0.45396 0.0
Co990 Co 0.09193 0.58011 0.28071 0.0
C991 C 0.21068 0.57112 0.25312 0.0
Co992 Co 0.17858 0.67247 0.25388 0.0
C993 C 1.00382 0.43655 0.27715 0.0
C994 C 0.066 0.47652 0.32664 0.0
N995 N 1.03117 0.49238 0.30119 0.0
N996 N 1.03271 0.39662 0.28237 0.0
C997 C 0.07288 0.42345 0.31268 0.0
H998 H 0.96979 0.42977 0.25353 0.0
H999 H 0.09811 0.50982 0.34908 0.0
C1000 C 0.05146 0.66938 0.27205 0.0
N1001 N 0.24971 0.75779 0.23402 0.0
C1002 C 0.31782 0.77579 0.23542 0.0
C1003 C 0.25138 0.81863 0.23846 0.0
N1004 N 0.36011 0.84311 0.24359 0.0
C1005 C 0.31859 0.87061 0.24451 0.0
C1006 C 0.07289 0.58195 0.20333 0.0
O1007 O 1.03197 0.61358 0.29033 0.0
O1008 O 0.11371 0.70369 0.2594 0.0
O1009 O 0.13459 0.63437 0.20389 0.0
O1010 O 1.04675 0.54958 0.23375 0.0
O1011 O 0.23898 0.63515 0.24724 0.0
H1012 H 0.20638 0.82403 0.24222 0.0
H1013 H 0.33633 0.7395 0.23552 0.0
O1014 O 0.15119 0.54176 0.26773 0.0
O1015 O 0.13882 0.62025 0.33102 0.0
O1016 O 0.21819 0.71261 0.30307 0.0
C1017 C 0.19046 0.68155 0.33381 0.0
H1018 H 0.10941 0.40892 0.32141 0.0
H1019 H 0.33479 0.92359 0.2513 0.0
Co1020 Co 0.50531 0.52892 0.28071 0.0
C1021 C 0.51429 0.65667 0.25312 0.0
Co1022 Co 0.41295 0.52324 0.25387 0.0
C1023 C 0.64887 0.58437 0.27715 0.0
C1024 C 0.6089 0.60655 0.32664 0.0
N1025 N 0.59305 0.55588 0.30118 0.0
N1026 N 0.68878 0.65318 0.28237 0.0
C1027 C 0.66195 0.66651 0.31269 0.0
H1028 H 0.65565 0.55715 0.25352 0.0
H1029 H 0.57559 0.60534 0.34909 0.0
C1030 C 0.41604 0.39919 0.27204 0.0
N1031 N 0.32763 0.50905 0.23401 0.0
C1032 C 0.30963 0.55916 0.23543 0.0
C1033 C 0.2668 0.44988 0.23846 0.0
N1034 N 0.24233 0.53414 0.24364 0.0
C1035 C 0.21482 0.46512 0.24453 0.0
C1036 C 0.50346 0.50807 0.20333 0.0
O1037 O 0.47185 0.43547 0.29032 0.0
O1038 O 0.38174 0.42715 0.2594 0.0
O1039 O 0.45103 0.51735 0.20389 0.0
O1040 O 0.53584 0.51429 0.23374 0.0
O1041 O 0.45026 0.62095 0.24723 0.0
H1042 H 0.26141 0.39948 0.24221 0.0
H1043 H 0.3459 0.61395 0.23552 0.0
O1044 O 0.54364 0.62652 0.26774 0.0
O1045 O 0.46517 0.53566 0.33102 0.0
O1046 O 0.37281 0.52271 0.30307 0.0
C1047 C 0.40387 0.52602 0.3338 0.0
H1048 H 0.67647 0.71756 0.32142 0.0
H1049 H 0.16185 0.42834 0.25132 0.0
Co1050 Co 0.55646 0.99349 0.28071 0.0
C1051 C 0.42872 0.87475 0.2531 0.0
Co1052 Co 0.56216 0.90683 0.25387 0.0
C1053 C 0.50098 0.08158 0.27715 0.0
C1054 C 0.47884 1.01945 0.32665 0.0
N1055 N 0.5295 0.05427 0.30118 0.0
N1056 N 0.43217 0.05266 0.28237 0.0
C1057 C 0.41886 1.01251 0.31269 0.0
H1058 H 0.52819 0.1156 0.25352 0.0
H1059 H 0.48008 0.98739 0.34911 0.0
C1060 C 0.68619 1.03395 0.27205 0.0
N1061 N 0.57635 0.83569 0.23401 0.0
C1062 C 0.52624 0.76759 0.23542 0.0
C1063 C 0.63551 0.83401 0.23846 0.0
N1064 N 0.55126 0.7253 0.24364 0.0
C1065 C 0.62028 0.7668 0.24454 0.0
C1066 C 0.57734 1.01253 0.20333 0.0
O1067 O 0.64989 0.05346 0.29033 0.0
O1068 O 0.65824 0.97169 0.2594 0.0
O1069 O 0.56805 0.95082 0.20389 0.0
O1070 O 0.5711 0.03868 0.23374 0.0
O1071 O 0.46445 0.84644 0.24722 0.0
H1072 H 0.68591 0.87901 0.24222 0.0
H1073 H 0.47146 0.74908 0.23551 0.0
O1074 O 0.45886 0.93424 0.26772 0.0
O1075 O 0.5497 0.9466 0.33101 0.0
O1076 O 0.56269 0.86721 0.30306 0.0
C1077 C 0.55935 0.89493 0.3338 0.0
H1078 H 0.36783 0.97597 0.32142 0.0
H1079 H 0.65705 0.75059 0.25134 0.0
loop_
_geom_bond_atom_site_label_1
_geom_bond_atom_site_label_2
_geom_bond_distance
_geom_bond_site_symmetry_2
_ccdc_geom_bond_type
Co0 N5 2.057 1_455 S
Co0 O17 2.021 . S
Co0 O20 2.062 . S
Co0 O24 2.117 . S
Co0 O25 2.020 . S
C1 O21 1.259 . S
C1 O24 1.258 . S
Co2 N11 2.057 . S
Co2 O18 2.117 . S
Co2 O19 2.020 . S
Co2 O21 2.021 . S
Co2 O26 2.062 . S
C3 N5 1.316 . S
C3 N6 1.347 . S
C3 H8 0.931 . S
C4 N5 1.375 . S
C4 C7 1.350 . S
C4 H9 0.930 . S
N5 Co0 2.057 1_655 S
N5 C3 1.316 . S
N5 C4 1.375 . S
N6 C3 1.347 . S
N6 C7 1.373 . S
C7 C4 1.350 . S
C7 N6 1.373 . S
C7 H28 0.931 . S
H8 C3 0.931 . S
H9 C4 0.930 . S
C10 O17 1.259 . S
C10 O18 1.258 . S
N11 Co2 2.057 . S
N11 C12 1.316 . S
N11 C13 1.375 . S
C12 N11 1.316 . S
C12 N14 1.347 . S
C12 H23 0.931 . S
C13 N11 1.375 . S
C13 C15 1.350 . S
C13 H22 0.930 . S
N14 C12 1.347 . S
N14 C15 1.373 . S
C15 C13 1.350 . S
C15 N14 1.373 . S
C15 H29 0.931 . S
C16 O19 1.256 . S
C16 O20 1.255 . S
O17 Co0 2.021 . S
O17 C10 1.259 . S
O18 Co2 2.117 . S
O18 C10 1.258 . S
O19 Co2 2.020 . S
O19 C16 1.256 . S
O20 Co0 2.062 . S
O20 C16 1.255 . S
O21 C1 1.259 . S
O21 Co2 2.021 . S
H22 C13 0.930 . S
H23 C12 0.931 . S
O24 Co0 2.117 . S
O24 C1 1.258 . S
O25 Co0 2.020 . S
O25 C27 1.256 . S
O26 Co2 2.062 . S
O26 C27 1.255 . S
C27 O25 1.256 . S
C27 O26 1.255 . S
H28 C7 0.931 . S
H29 C15 0.931 . S
Co30 N35 2.057 . S
Co30 O47 2.021 . S
Co30 O50 2.062 . S
Co30 O54 2.117 . S
Co30 O55 2.020 . S
C31 O51 1.259 . S
C31 O54 1.258 . S
Co32 N41 2.057 . S
Co32 O48 2.117 . S
Co32 O49 2.020 . S
Co32 O51 2.021 . S
Co32 O56 2.062 . S
C33 N35 1.316 . S
C33 N36 1.347 . S
C33 H38 0.931 . S
C34 N35 1.375 . S
C34 C37 1.350 . S
C34 H39 0.930 . S
N35 Co30 2.057 . S
N35 C33 1.316 . S
N35 C34 1.375 . S
N36 C33 1.347 . S
N36 C37 1.373 . S
C37 C34 1.350 . S
C37 N36 1.373 . S
C37 H58 0.931 . S
H38 C33 0.931 . S
H39 C34 0.930 . S
C40 O47 1.259 . S
C40 O48 1.258 . S
N41 Co32 2.057 . S
N41 C42 1.316 . S
N41 C43 1.375 . S
C42 N41 1.316 . S
C42 N44 1.347 . S
C42 H53 0.931 . S
C43 N41 1.375 . S
C43 C45 1.350 . S
C43 H52 0.930 . S
N44 C42 1.347 . S
N44 C45 1.373 . S
C45 C43 1.350 . S
C45 N44 1.373 . S
C45 H59 0.931 1_565 S
C46 O49 1.256 . S
C46 O50 1.255 . S
O47 Co30 2.021 . S
O47 C40 1.259 . S
O48 Co32 2.117 . S
O48 C40 1.258 . S
O49 Co32 2.020 . S
O49 C46 1.256 . S
O50 Co30 2.062 . S
O50 C46 1.255 . S
O51 C31 1.259 . S
O51 Co32 2.021 . S
H52 C43 0.930 . S
H53 C42 0.931 . S
O54 Co30 2.117 . S
O54 C31 1.258 . S
O55 Co30 2.020 . S
O55 C57 1.256 . S
O56 Co32 2.062 . S
O56 C57 1.255 . S
C57 O55 1.256 . S
C57 O56 1.255 . S
H58 C37 0.931 . S
H59 C45 0.931 1_545 S
Co60 N65 2.057 1_565 S
Co60 O77 2.021 . S
Co60 O80 2.062 . S
Co60 O84 2.117 . S
Co60 O85 2.020 . S
C61 O81 1.259 . S
C61 O84 1.258 . S
Co62 N71 2.057 . S
Co62 O78 2.117 . S
Co62 O79 2.020 . S
Co62 O81 2.021 . S
Co62 O86 2.062 . S
C63 N65 1.316 . S
C63 N66 1.347 . S
C63 H68 0.931 . S
C64 N65 1.375 . S
C64 C67 1.350 . S
C64 H69 0.930 . S
N65 Co60 2.057 1_545 S
N65 C63 1.316 . S
N65 C64 1.375 . S
N66 C63 1.347 . S
N66 C67 1.373 . S
C67 C64 1.350 . S
C67 N66 1.373 . S
C67 H88 0.931 . S
H68 C63 0.931 . S
H69 C64 0.930 . S
C70 O77 1.259 . S
C70 O78 1.258 . S
N71 Co62 2.057 . S
N71 C72 1.316 . S
N71 C73 1.375 . S
C72 N71 1.316 . S
C72 N74 1.347 . S
C72 H83 0.931 . S
C73 N71 1.375 . S
C73 C75 1.350 . S
C73 H82 0.930 . S
N74 C72 1.347 . S
N74 C75 1.373 . S
C75 C73 1.350 . S
C75 N74 1.373 . S
C75 H89 0.931 1_455 S
C76 O79 1.256 . S
C76 O80 1.255 . S
O77 Co60 2.021 . S
O77 C70 1.259 . S
O78 Co62 2.117 . S
O78 C70 1.258 . S
O79 Co62 2.020 . S
O79 C76 1.256 . S
O80 Co60 2.062 . S
O80 C76 1.255 . S
O81 C61 1.259 . S
O81 Co62 2.021 . S
H82 C73 0.930 . S
H83 C72 0.931 . S
O84 Co60 2.117 . S
O84 C61 1.258 . S
O85 Co60 2.020 . S
O85 C87 1.256 . S
O86 Co62 2.062 . S
O86 C87 1.255 . S
C87 O85 1.256 . S
C87 O86 1.255 . S
H88 C67 0.931 . S
H89 C75 0.931 1_655 S
Co90 N95 2.057 1_545 S
Co90 O107 2.021 . S
Co90 O110 2.062 . S
Co90 O114 2.117 . S
Co90 O115 2.020 . S
C91 O111 1.259 . S
C91 O114 1.258 . S
Co92 N101 2.057 . S
Co92 O108 2.117 . S
Co92 O109 2.020 . S
Co92 O111 2.021 . S
Co92 O116 2.062 . S
C93 N95 1.316 . S
C93 N96 1.347 . S
C93 H98 0.931 . S
C94 N95 1.375 . S
C94 C97 1.350 . S
C94 H99 0.930 . S
N95 Co90 2.057 1_565 S
N95 C93 1.316 . S
N95 C94 1.375 . S
N96 C93 1.347 . S
N96 C97 1.373 . S
C97 C94 1.350 . S
C97 N96 1.373 . S
C97 H118 0.931 . S
H98 C93 0.931 . S
H99 C94 0.930 . S
C100 O107 1.259 . S
C100 O108 1.258 . S
N101 Co92 2.057 . S
N101 C102 1.316 . S
N101 C103 1.375 . S
C102 N101 1.316 . S
C102 N104 1.347 . S
C102 H113 0.931 . S
C103 N101 1.375 . S
C103 C105 1.350 . S
C103 H112 0.930 . S
N104 C102 1.347 . S
N104 C105 1.373 . S
C105 C103 1.350 . S
C105 N104 1.373 . S
C105 H119 0.931 . S
C106 O109 1.256 . S
C106 O110 1.255 . S
O107 Co90 2.021 . S
O107 C100 1.259 . S
O108 Co92 2.117 . S
O108 C100 1.258 . S
O109 Co92 2.020 . S
O109 C106 1.256 . S
O110 Co90 2.062 . S
O110 C106 1.255 . S
O111 C91 1.259 . S
O111 Co92 2.021 . S
H112 C103 0.930 . S
H113 C102 0.931 . S
O114 Co90 2.117 . S
O114 C91 1.258 . S
O115 Co90 2.020 . S
O115 C117 1.256 . S
O116 Co92 2.062 . S
O116 C117 1.255 . S
C117 O115 1.256 . S
C117 O116 1.255 . S
H118 C97 0.931 . S
H119 C105 0.931 . S
Co120 N125 2.057 1_655 S
Co120 O137 2.021 . S
Co120 O140 2.062 . S
Co120 O144 2.117 . S
Co120 O145 2.020 . S
C121 O141 1.259 . S
C121 O144 1.258 . S
Co122 N131 2.057 . S
Co122 O138 2.117 . S
Co122 O139 2.020 . S
Co122 O141 2.021 . S
Co122 O146 2.062 . S
C123 N125 1.316 . S
C123 N126 1.347 . S
C123 H128 0.931 . S
C124 N125 1.375 . S
C124 C127 1.350 . S
C124 H129 0.930 . S
N125 Co120 2.057 1_455 S
N125 C123 1.316 . S
N125 C124 1.375 . S
N126 C123 1.347 . S
N126 C127 1.373 . S
C127 C124 1.350 . S
C127 N126 1.373 . S
C127 H148 0.931 . S
H128 C123 0.931 . S
H129 C124 0.930 . S
C130 O137 1.259 . S
C130 O138 1.258 . S
N131 Co122 2.057 . S
N131 C132 1.316 . S
N131 C133 1.375 . S
C132 N131 1.316 . S
C132 N134 1.347 . S
C132 H143 0.931 . S
C133 N131 1.375 . S
C133 C135 1.350 . S
C133 H142 0.936 . S
N134 C132 1.347 . S
N134 C135 1.373 . S
C135 C133 1.350 . S
C135 N134 1.373 . S
C135 H149 0.931 1_545 S
C136 O139 1.256 . S
C136 O140 1.255 . S
O137 Co120 2.021 . S
O137 C130 1.259 . S
O138 Co122 2.117 . S
O138 C130 1.258 . S
O139 Co122 2.020 . S
O139 C136 1.256 . S
O140 Co120 2.062 . S
O140 C136 1.255 . S
O141 C121 1.259 . S
O141 Co122 2.021 . S
H142 C133 0.936 . S
H143 C132 0.931 . S
O144 Co120 2.117 . S
O144 C121 1.258 . S
O145 Co120 2.020 . S
O145 C147 1.256 . S
O146 Co122 2.062 . S
O146 C147 1.255 . S
C147 O145 1.256 . S
C147 O146 1.255 . S
H148 C127 0.931 . S
H149 C135 0.931 1_565 S
Co150 N155 2.057 . S
Co150 O167 2.021 . S
Co150 O170 2.062 . S
Co150 O174 2.117 . S
Co150 O175 2.020 . S
C151 O171 1.259 . S
C151 O174 1.258 . S
Co152 N161 2.057 . S
Co152 O168 2.117 . S
Co152 O169 2.020 . S
Co152 O171 2.021 . S
Co152 O176 2.062 . S
C153 N155 1.316 . S
C153 N156 1.347 . S
C153 H158 0.931 . S
C154 N155 1.375 . S
C154 C157 1.350 . S
C154 H159 0.930 . S
N155 Co150 2.057 . S
N155 C153 1.316 . S
N155 C154 1.375 . S
N156 C153 1.347 . S
N156 C157 1.373 . S
C157 C154 1.350 . S
C157 N156 1.373 . S
C157 H178 0.931 . S
H158 C153 0.931 . S
H159 C154 0.930 . S
C160 O167 1.259 . S
C160 O168 1.258 . S
N161 Co152 2.057 . S
N161 C162 1.316 . S
N161 C163 1.375 . S
C162 N161 1.316 . S
C162 N164 1.347 . S
C162 H173 0.931 . S
C163 N161 1.375 . S
C163 C165 1.350 . S
C163 H172 0.931 . S
N164 C162 1.347 . S
N164 C165 1.373 . S
C165 C163 1.350 . S
C165 N164 1.373 . S
C165 H179 0.931 1_655 S
C166 O169 1.256 . S
C166 O170 1.255 . S
O167 Co150 2.021 . S
O167 C160 1.259 . S
O168 Co152 2.117 . S
O168 C160 1.258 . S
O169 Co152 2.020 . S
O169 C166 1.256 . S
O170 Co150 2.062 . S
O170 C166 1.255 . S
O171 C151 1.259 . S
O171 Co152 2.021 . S
H172 C163 0.931 . S
H173 C162 0.931 . S
O174 Co150 2.117 . S
O174 C151 1.258 . S
O175 Co150 2.020 . S
O175 C177 1.256 . S
O176 Co152 2.062 . S
O176 C177 1.255 . S
C177 O175 1.256 . S
C177 O176 1.255 . S
H178 C157 0.931 . S
H179 C165 0.931 1_455 S
Co180 N185 2.057 . S
Co180 O197 2.021 . S
Co180 O200 2.062 . S
Co180 O204 2.117 . S
Co180 O205 2.020 . S
C181 O201 1.259 . S
C181 O204 1.258 . S
Co182 N191 2.057 1_655 S
Co182 O198 2.117 . S
Co182 O199 2.020 . S
Co182 O201 2.021 . S
Co182 O206 2.062 . S
C183 N185 1.316 . S
C183 N186 1.347 . S
C183 H188 0.931 . S
C184 N185 1.375 . S
C184 C187 1.350 . S
C184 H189 0.930 . S
N185 Co180 2.057 . S
N185 C183 1.316 . S
N185 C184 1.375 . S
N186 C183 1.347 . S
N186 C187 1.373 . S
C187 C184 1.350 . S
C187 N186 1.373 . S
C187 H208 0.931 . S
H188 C183 0.931 . S
H189 C184 0.930 . S
C190 O197 1.259 . S
C190 O198 1.258 . S
N191 Co182 2.057 1_455 S
N191 C192 1.316 . S
N191 C193 1.375 . S
C192 N191 1.316 . S
C192 N194 1.347 . S
C192 H203 0.931 . S
C193 N191 1.375 . S
C193 C195 1.350 . S
C193 H202 0.930 . S
N194 C192 1.347 . S
N194 C195 1.373 . S
C195 C193 1.350 . S
C195 N194 1.373 . S
C195 H209 0.931 . S
C196 O199 1.256 . S
C196 O200 1.255 . S
O197 Co180 2.021 . S
O197 C190 1.259 . S
O198 Co182 2.117 . S
O198 C190 1.258 . S
O199 Co182 2.020 . S
O199 C196 1.256 . S
O200 Co180 2.062 . S
O200 C196 1.255 . S
O201 C181 1.259 . S
O201 Co182 2.021 . S
H202 C193 0.930 . S
H203 C192 0.931 . S
O204 Co180 2.117 . S
O204 C181 1.258 . S
O205 Co180 2.020 . S
O205 C207 1.256 . S
O206 Co182 2.062 . S
O206 C207 1.255 . S
C207 O205 1.256 . S
C207 O206 1.255 . S
H208 C187 0.931 . S
H209 C195 0.931 . S
Co210 N215 2.057 . S
Co210 O227 2.021 . S
Co210 O230 2.062 . S
Co210 O234 2.117 . S
Co210 O235 2.020 . S
C211 O231 1.259 . S
C211 O234 1.258 . S
Co212 N221 2.057 . S
Co212 O228 2.117 . S
Co212 O229 2.020 . S
Co212 O231 2.021 . S
Co212 O236 2.062 . S
C213 N215 1.316 . S
C213 N216 1.347 . S
C213 H218 0.931 . S
C214 N215 1.375 . S
C214 C217 1.350 . S
C214 H219 0.930 . S
N215 Co210 2.057 . S
N215 C213 1.316 . S
N215 C214 1.375 . S
N216 C213 1.347 . S
N216 C217 1.373 . S
C217 C214 1.350 . S
C217 N216 1.373 . S
C217 H238 0.931 1_545 S
H218 C213 0.931 . S
H219 C214 0.930 . S
C220 O227 1.259 . S
C220 O228 1.258 . S
N221 Co212 2.057 . S
N221 C222 1.316 . S
N221 C223 1.375 . S
C222 N221 1.316 . S
C222 N224 1.347 . S
C222 H233 0.931 . S
C223 N221 1.375 . S
C223 C225 1.350 . S
C223 H232 0.930 . S
N224 C222 1.347 . S
N224 C225 1.373 . S
C225 C223 1.350 . S
C225 N224 1.373 . S
C225 H239 0.931 . S
C226 O229 1.256 . S
C226 O230 1.255 . S
O227 Co210 2.021 . S
O227 C220 1.259 . S
O228 Co212 2.117 . S
O228 C220 1.258 . S
O229 Co212 2.020 . S
O229 C226 1.256 . S
O230 Co210 2.062 . S
O230 C226 1.255 . S
O231 C211 1.259 . S
O231 Co212 2.021 . S
H232 C223 0.930 . S
H233 C222 0.931 . S
O234 Co210 2.117 . S
O234 C211 1.258 . S
O235 Co210 2.020 . S
O235 C237 1.256 . S
O236 Co212 2.062 . S
O236 C237 1.255 . S
C237 O235 1.256 . S
C237 O236 1.255 . S
H238 C217 0.931 1_565 S
H239 C225 0.931 . S
Co240 N245 2.057 . S
Co240 O257 2.021 . S
Co240 O260 2.062 . S
Co240 O264 2.117 . S
Co240 O265 2.020 . S
C241 O261 1.259 . S
C241 O264 1.258 . S
Co242 N251 2.057 1_545 S
Co242 O258 2.117 . S
Co242 O259 2.020 . S
Co242 O261 2.021 . S
Co242 O266 2.062 . S
C243 N245 1.316 . S
C243 N246 1.347 . S
C243 H248 0.931 . S
C244 N245 1.375 . S
C244 C247 1.350 . S
C244 H249 0.930 . S
N245 Co240 2.057 . S
N245 C243 1.316 . S
N245 C244 1.375 . S
N246 C243 1.347 . S
N246 C247 1.373 . S
C247 C244 1.350 . S
C247 N246 1.373 . S
C247 H268 0.931 1_655 S
H248 C243 0.931 . S
H249 C244 0.930 . S
C250 O257 1.259 . S
C250 O258 1.258 . S
N251 Co242 2.057 1_565 S
N251 C252 1.316 . S
N251 C253 1.375 . S
C252 N251 1.316 . S
C252 N254 1.347 . S
C252 H263 0.931 . S
C253 N251 1.375 . S
C253 C255 1.350 . S
C253 H262 0.930 . S
N254 C252 1.347 . S
N254 C255 1.373 . S
C255 C253 1.350 . S
C255 N254 1.373 . S
C255 H269 0.931 . S
C256 O259 1.256 . S
C256 O260 1.255 . S
O257 Co240 2.021 . S
O257 C250 1.259 . S
O258 Co242 2.117 . S
O258 C250 1.258 . S
O259 Co242 2.020 . S
O259 C256 1.256 . S
O260 Co240 2.062 . S
O260 C256 1.255 . S
O261 C241 1.259 . S
O261 Co242 2.021 . S
H262 C253 0.930 . S
H263 C252 0.931 . S
O264 Co240 2.117 . S
O264 C241 1.258 . S
O265 Co240 2.020 . S
O265 C267 1.256 . S
O266 Co242 2.062 . S
O266 C267 1.255 . S
C267 O265 1.256 . S
C267 O266 1.255 . S
H268 C247 0.931 1_455 S
H269 C255 0.931 . S
Co270 N275 2.057 . S
Co270 O287 2.021 . S
Co270 O290 2.062 . S
Co270 O294 2.117 . S
Co270 O295 2.020 . S
C271 O291 1.259 . S
C271 O294 1.258 . S
Co272 N281 2.057 1_565 S
Co272 O288 2.117 . S
Co272 O289 2.020 . S
Co272 O291 2.021 . S
Co272 O296 2.062 . S
C273 N275 1.316 . S
C273 N276 1.347 . S
C273 H278 0.931 . S
C274 N275 1.375 . S
C274 C277 1.350 . S
C274 H279 0.930 . S
N275 Co270 2.057 . S
N275 C273 1.316 . S
N275 C274 1.375 . S
N276 C273 1.347 . S
N276 C277 1.373 . S
C277 C274 1.350 . S
C277 N276 1.373 . S
C277 H298 0.931 . S
H278 C273 0.931 . S
H279 C274 0.930 . S
C280 O287 1.259 . S
C280 O288 1.258 . S
N281 Co272 2.057 1_545 S
N281 C282 1.316 . S
N281 C283 1.375 . S
C282 N281 1.316 . S
C282 N284 1.347 . S
C282 H293 0.931 . S
C283 N281 1.375 . S
C283 C285 1.350 . S
C283 H292 0.930 . S
N284 C282 1.347 . S
N284 C285 1.373 . S
C285 C283 1.350 . S
C285 N284 1.373 . S
C285 H299 0.931 . S
C286 O289 1.256 . S
C286 O290 1.255 . S
O287 Co270 2.021 . S
O287 C280 1.259 . S
O288 Co272 2.117 . S
O288 C280 1.258 . S
O289 Co272 2.020 . S
O289 C286 1.256 . S
O290 Co270 2.062 . S
O290 C286 1.255 . S
O291 C271 1.259 . S
O291 Co272 2.021 . S
H292 C283 0.930 . S
H293 C282 0.931 . S
O294 Co270 2.117 . S
O294 C271 1.258 . S
O295 Co270 2.020 . S
O295 C297 1.256 . S
O296 Co272 2.062 . S
O296 C297 1.255 . S
C297 O295 1.256 . S
C297 O296 1.255 . S
H298 C277 0.931 . S
H299 C285 0.931 . S
Co300 N305 2.057 . S
Co300 O317 2.021 . S
Co300 O320 2.062 . S
Co300 O324 2.117 . S
Co300 O325 2.020 . S
C301 O321 1.259 . S
C301 O324 1.258 . S
Co302 N311 2.057 1_455 S
Co302 O318 2.117 . S
Co302 O319 2.020 . S
Co302 O321 2.021 . S
Co302 O326 2.062 . S
C303 N305 1.316 . S
C303 N306 1.347 . S
C303 H308 0.931 . S
C304 N305 1.375 . S
C304 C307 1.350 . S
C304 H309 0.936 . S
N305 Co300 2.057 . S
N305 C303 1.316 . S
N305 C304 1.375 . S
N306 C303 1.347 . S
N306 C307 1.373 . S
C307 C304 1.350 . S
C307 N306 1.373 . S
C307 H328 0.931 1_565 S
H308 C303 0.931 . S
H309 C304 0.936 . S
C310 O317 1.259 . S
C310 O318 1.258 . S
N311 Co302 2.057 1_655 S
N311 C312 1.316 . S
N311 C313 1.375 . S
C312 N311 1.316 . S
C312 N314 1.347 . S
C312 H323 0.931 . S
C313 N311 1.375 . S
C313 C315 1.350 . S
C313 H322 0.930 . S
N314 C312 1.347 . S
N314 C315 1.373 . S
C315 C313 1.350 . S
C315 N314 1.373 . S
C315 H329 0.931 . S
C316 O319 1.256 . S
C316 O320 1.255 . S
O317 Co300 2.021 . S
O317 C310 1.259 . S
O318 Co302 2.117 . S
O318 C310 1.258 . S
O319 Co302 2.020 . S
O319 C316 1.256 . S
O320 Co300 2.062 . S
O320 C316 1.255 . S
O321 C301 1.259 . S
O321 Co302 2.021 . S
H322 C313 0.930 . S
H323 C312 0.931 . S
O324 Co300 2.117 . S
O324 C301 1.258 . S
O325 Co300 2.020 . S
O325 C327 1.256 . S
O326 Co302 2.062 . S
O326 C327 1.255 . S
C327 O325 1.256 . S
C327 O326 1.255 . S
H328 C307 0.931 1_545 S
H329 C315 0.931 . S
Co330 N335 2.057 . S
Co330 O347 2.021 . S
Co330 O350 2.062 . S
Co330 O354 2.117 . S
Co330 O355 2.020 . S
C331 O351 1.259 . S
C331 O354 1.258 . S
Co332 N341 2.057 . S
Co332 O348 2.117 . S
Co332 O349 2.020 . S
Co332 O351 2.021 . S
Co332 O356 2.062 . S
C333 N335 1.316 . S
C333 N336 1.347 . S
C333 H338 0.931 . S
C334 N335 1.375 . S
C334 C337 1.350 . S
C334 H339 0.931 . S
N335 Co330 2.057 . S
N335 C333 1.316 . S
N335 C334 1.375 . S
N336 C333 1.347 . S
N336 C337 1.373 . S
C337 C334 1.350 . S
C337 N336 1.373 . S
C337 H358 0.931 1_455 S
H338 C333 0.931 . S
H339 C334 0.931 . S
C340 O347 1.259 . S
C340 O348 1.258 . S
N341 Co332 2.057 . S
N341 C342 1.316 . S
N341 C343 1.375 . S
C342 N341 1.316 . S
C342 N344 1.347 . S
C342 H353 0.931 . S
C343 N341 1.375 . S
C343 C345 1.350 . S
C343 H352 0.930 . S
N344 C342 1.347 . S
N344 C345 1.373 . S
C345 C343 1.350 . S
C345 N344 1.373 . S
C345 H359 0.931 . S
C346 O349 1.256 . S
C346 O350 1.255 . S
O347 Co330 2.021 . S
O347 C340 1.259 . S
O348 Co332 2.117 . S
O348 C340 1.258 . S
O349 Co332 2.020 . S
O349 C346 1.256 . S
O350 Co330 2.062 . S
O350 C346 1.255 . S
O351 C331 1.259 . S
O351 Co332 2.021 . S
H352 C343 0.930 . S
H353 C342 0.931 . S
O354 Co330 2.117 . S
O354 C331 1.258 . S
O355 Co330 2.020 . S
O355 C357 1.256 . S
O356 Co332 2.062 . S
O356 C357 1.255 . S
C357 O355 1.256 . S
C357 O356 1.255 . S
H358 C337 0.931 1_655 S
H359 C345 0.931 . S
Co360 N365 2.057 . S
Co360 O377 2.021 . S
Co360 O380 2.062 . S
Co360 O384 2.117 . S
Co360 O385 2.020 . S
C361 O381 1.259 . S
C361 O384 1.258 . S
Co362 N371 2.057 . S
Co362 O378 2.117 . S
Co362 O379 2.020 . S
Co362 O381 2.021 . S
Co362 O386 2.062 . S
C363 N365 1.316 . S
C363 N366 1.347 . S
C363 H368 0.931 . S
C364 N365 1.375 . S
C364 C367 1.350 . S
C364 H369 0.930 . S
N365 Co360 2.057 . S
N365 C363 1.316 . S
N365 C364 1.375 . S
N366 C363 1.347 . S
N366 C367 1.373 . S
C367 C364 1.350 . S
C367 N366 1.373 . S
C367 H388 0.931 . S
H368 C363 0.931 . S
H369 C364 0.930 . S
C370 O377 1.259 . S
C370 O378 1.258 . S
N371 Co362 2.057 . S
N371 C372 1.316 . S
N371 C373 1.375 . S
C372 N371 1.316 . S
C372 N374 1.347 1_655 S
C372 H383 0.931 . S
C373 N371 1.375 . S
C373 C375 1.350 1_655 S
C373 H382 0.930 . S
N374 C372 1.347 1_455 S
N374 C375 1.373 . S
C375 C373 1.350 1_455 S
C375 N374 1.373 . S
C375 H389 0.931 . S
C376 O379 1.256 . S
C376 O380 1.255 . S
O377 Co360 2.021 . S
O377 C370 1.259 . S
O378 Co362 2.117 . S
O378 C370 1.258 . S
O379 Co362 2.020 . S
O379 C376 1.256 . S
O380 Co360 2.062 . S
O380 C376 1.255 . S
O381 C361 1.259 . S
O381 Co362 2.021 . S
H382 C373 0.930 . S
H383 C372 0.931 . S
O384 Co360 2.117 . S
O384 C361 1.258 . S
O385 Co360 2.020 . S
O385 C387 1.256 . S
O386 Co362 2.062 . S
O386 C387 1.255 . S
C387 O385 1.256 . S
C387 O386 1.255 . S
H388 C367 0.931 . S
H389 C375 0.931 . S
Co390 N395 2.057 . S
Co390 O407 2.021 . S
Co390 O410 2.062 . S
Co390 O414 2.117 . S
Co390 O415 2.020 . S
C391 O411 1.259 . S
C391 O414 1.258 . S
Co392 N401 2.057 . S
Co392 O408 2.117 . S
Co392 O409 2.020 . S
Co392 O411 2.021 . S
Co392 O416 2.062 . S
C393 N395 1.316 . S
C393 N396 1.347 . S
C393 H398 0.931 . S
C394 N395 1.375 . S
C394 C397 1.350 . S
C394 H399 0.930 . S
N395 Co390 2.057 . S
N395 C393 1.316 . S
N395 C394 1.375 . S
N396 C393 1.347 . S
N396 C397 1.373 . S
C397 C394 1.350 . S
C397 N396 1.373 . S
C397 H418 0.931 . S
H398 C393 0.931 . S
H399 C394 0.930 . S
C400 O407 1.259 . S
C400 O408 1.258 . S
N401 Co392 2.057 . S
N401 C402 1.316 . S
N401 C403 1.375 . S
C402 N401 1.316 . S
C402 N404 1.347 . S
C402 H413 0.931 . S
C403 N401 1.375 . S
C403 C405 1.350 . S
C403 H412 0.930 . S
N404 C402 1.347 . S
N404 C405 1.373 . S
C405 C403 1.350 . S
C405 N404 1.373 . S
C405 H419 0.931 . S
C406 O409 1.256 . S
C406 O410 1.255 . S
O407 Co390 2.021 . S
O407 C400 1.259 . S
O408 Co392 2.117 . S
O408 C400 1.258 . S
O409 Co392 2.020 . S
O409 C406 1.256 . S
O410 Co390 2.062 . S
O410 C406 1.255 . S
O411 C391 1.259 . S
O411 Co392 2.021 . S
H412 C403 0.930 . S
H413 C402 0.931 . S
O414 Co390 2.117 . S
O414 C391 1.258 . S
O415 Co390 2.020 . S
O415 C417 1.256 . S
O416 Co392 2.062 . S
O416 C417 1.255 . S
C417 O415 1.256 . S
C417 O416 1.255 . S
H418 C397 0.931 . S
H419 C405 0.931 . S
Co420 N425 2.057 . S
Co420 O437 2.021 . S
Co420 O440 2.062 . S
Co420 O444 2.117 . S
Co420 O445 2.020 . S
C421 O441 1.259 . S
C421 O444 1.258 . S
Co422 N431 2.057 . S
Co422 O438 2.117 . S
Co422 O439 2.020 . S
Co422 O441 2.021 . S
Co422 O446 2.062 . S
C423 N425 1.316 . S
C423 N426 1.347 . S
C423 H428 0.931 . S
C424 N425 1.375 . S
C424 C427 1.350 . S
C424 H429 0.930 . S
N425 Co420 2.057 . S
N425 C423 1.316 . S
N425 C424 1.375 . S
N426 C423 1.347 . S
N426 C427 1.373 . S
C427 C424 1.350 . S
C427 N426 1.373 . S
C427 H448 0.931 . S
H428 C423 0.931 . S
H429 C424 0.930 . S
C430 O437 1.259 . S
C430 O438 1.258 . S
N431 Co422 2.057 . S
N431 C432 1.316 . S
N431 C433 1.375 . S
C432 N431 1.316 . S
C432 N434 1.347 1_545 S
C432 H443 0.931 . S
C433 N431 1.375 . S
C433 C435 1.350 1_545 S
C433 H442 0.930 . S
N434 C432 1.347 1_565 S
N434 C435 1.373 . S
C435 C433 1.350 1_565 S
C435 N434 1.373 . S
C435 H449 0.931 . S
C436 O439 1.256 . S
C436 O440 1.255 . S
O437 Co420 2.021 . S
O437 C430 1.259 . S
O438 Co422 2.117 . S
O438 C430 1.258 . S
O439 Co422 2.020 . S
O439 C436 1.256 . S
O440 Co420 2.062 . S
O440 C436 1.255 . S
O441 C421 1.259 . S
O441 Co422 2.021 . S
H442 C433 0.930 . S
H443 C432 0.931 . S
O444 Co420 2.117 . S
O444 C421 1.258 . S
O445 Co420 2.020 . S
O445 C447 1.256 . S
O446 Co422 2.062 . S
O446 C447 1.255 . S
C447 O445 1.256 . S
C447 O446 1.255 . S
H448 C427 0.931 . S
H449 C435 0.931 . S
Co450 N455 2.057 . S
Co450 O467 2.021 . S
Co450 O470 2.062 . S
Co450 O474 2.117 . S
Co450 O475 2.020 . S
C451 O471 1.259 . S
C451 O474 1.258 1_455 S
Co452 N461 2.057 1_655 S
Co452 O468 2.117 . S
Co452 O469 2.020 . S
Co452 O471 2.021 1_655 S
Co452 O476 2.062 . S
C453 N455 1.316 . S
C453 N456 1.347 . S
C453 H458 0.931 . S
C454 N455 1.375 . S
C454 C457 1.350 . S
C454 H459 0.930 . S
N455 Co450 2.057 . S
N455 C453 1.316 . S
N455 C454 1.375 . S
N456 C453 1.347 . S
N456 C457 1.373 . S
C457 C454 1.350 . S
C457 N456 1.373 . S
C457 H478 0.931 . S
H458 C453 0.931 . S
H459 C454 0.930 . S
C460 O467 1.259 . S
C460 O468 1.258 . S
N461 Co452 2.057 1_455 S
N461 C462 1.316 . S
N461 C463 1.375 1_455 S
C462 N461 1.316 . S
C462 N464 1.347 . S
C462 H473 0.931 . S
C463 N461 1.375 1_655 S
C463 C465 1.350 1_655 S
C463 H472 0.930 . S
N464 C462 1.347 . S
N464 C465 1.373 . S
C465 C463 1.350 1_455 S
C465 N464 1.373 . S
C465 H479 0.931 . S
C466 O469 1.256 . S
C466 O470 1.255 . S
O467 Co450 2.021 . S
O467 C460 1.259 . S
O468 Co452 2.117 . S
O468 C460 1.258 . S
O469 Co452 2.020 . S
O469 C466 1.256 . S
O470 Co450 2.062 . S
O470 C466 1.255 . S
O471 C451 1.259 . S
O471 Co452 2.021 1_455 S
H472 C463 0.930 . S
H473 C462 0.931 . S
O474 Co450 2.117 . S
O474 C451 1.258 1_655 S
O475 Co450 2.020 . S
O475 C477 1.256 . S
O476 Co452 2.062 . S
O476 C477 1.255 . S
C477 O475 1.256 . S
C477 O476 1.255 . S
H478 C457 0.931 . S
H479 C465 0.931 . S
Co480 N485 2.057 . S
Co480 O497 2.021 . S
Co480 O500 2.062 . S
Co480 O504 2.117 . S
Co480 O505 2.020 . S
C481 O501 1.259 . S
C481 O504 1.258 . S
Co482 N491 2.057 . S
Co482 O498 2.117 . S
Co482 O499 2.020 . S
Co482 O501 2.021 . S
Co482 O506 2.062 . S
C483 N485 1.316 . S
C483 N486 1.347 . S
C483 H488 0.931 . S
C484 N485 1.375 . S
C484 C487 1.350 . S
C484 H489 0.930 . S
N485 Co480 2.057 . S
N485 C483 1.316 . S
N485 C484 1.375 . S
N486 C483 1.347 . S
N486 C487 1.373 . S
C487 C484 1.350 . S
C487 N486 1.373 . S
C487 H508 0.931 . S
H488 C483 0.931 . S
H489 C484 0.930 . S
C490 O497 1.259 . S
C490 O498 1.258 . S
N491 Co482 2.057 . S
N491 C492 1.316 . S
N491 C493 1.375 . S
C492 N491 1.316 . S
C492 N494 1.347 . S
C492 H503 0.931 . S
C493 N491 1.375 . S
C493 C495 1.350 . S
C493 H502 0.930 . S
N494 C492 1.347 . S
N494 C495 1.373 . S
C495 C493 1.350 . S
C495 N494 1.373 . S
C495 H509 0.931 . S
C496 O499 1.256 . S
C496 O500 1.255 . S
O497 Co480 2.021 . S
O497 C490 1.259 . S
O498 Co482 2.117 . S
O498 C490 1.258 . S
O499 Co482 2.020 . S
O499 C496 1.256 . S
O500 Co480 2.062 . S
O500 C496 1.255 . S
O501 C481 1.259 . S
O501 Co482 2.021 . S
H502 C493 0.930 . S
H503 C492 0.931 . S
O504 Co480 2.117 . S
O504 C481 1.258 . S
O505 Co480 2.020 . S
O505 C507 1.256 . S
O506 Co482 2.062 . S
O506 C507 1.255 . S
C507 O505 1.256 . S
C507 O506 1.255 . S
H508 C487 0.931 . S
H509 C495 0.931 . S
Co510 N515 2.057 . S
Co510 O527 2.021 . S
Co510 O530 2.062 . S
Co510 O534 2.117 . S
Co510 O535 2.020 . S
C511 O531 1.259 . S
C511 O534 1.258 1_565 S
Co512 N521 2.057 1_545 S
Co512 O528 2.117 . S
Co512 O529 2.020 . S
Co512 O531 2.021 1_545 S
Co512 O536 2.062 . S
C513 N515 1.316 . S
C513 N516 1.347 . S
C513 H518 0.931 . S
C514 N515 1.375 . S
C514 C517 1.350 . S
C514 H519 0.930 . S
N515 Co510 2.057 . S
N515 C513 1.316 . S
N515 C514 1.375 . S
N516 C513 1.347 . S
N516 C517 1.373 . S
C517 C514 1.350 . S
C517 N516 1.373 . S
C517 H538 0.931 . S
H518 C513 0.931 . S
H519 C514 0.930 . S
C520 O527 1.259 . S
C520 O528 1.258 . S
N521 Co512 2.057 1_565 S
N521 C522 1.316 . S
N521 C523 1.375 1_565 S
C522 N521 1.316 . S
C522 N524 1.347 . S
C522 H533 0.931 . S
C523 N521 1.375 1_545 S
C523 C525 1.350 1_545 S
C523 H532 0.930 . S
N524 C522 1.347 . S
N524 C525 1.373 . S
C525 C523 1.350 1_565 S
C525 N524 1.373 . S
C525 H539 0.931 . S
C526 O529 1.256 . S
C526 O530 1.255 . S
O527 Co510 2.021 . S
O527 C520 1.259 . S
O528 Co512 2.117 . S
O528 C520 1.258 . S
O529 Co512 2.020 . S
O529 C526 1.256 . S
O530 Co510 2.062 . S
O530 C526 1.255 . S
O531 C511 1.259 . S
O531 Co512 2.021 1_565 S
H532 C523 0.930 . S
H533 C522 0.931 . S
O534 Co510 2.117 . S
O534 C511 1.258 1_545 S
O535 Co510 2.020 . S
O535 C537 1.256 . S
O536 Co512 2.062 . S
O536 C537 1.255 . S
C537 O535 1.256 . S
C537 O536 1.255 . S
H538 C517 0.931 . S
H539 C525 0.931 . S
Co540 N545 2.057 1_545 S
Co540 O557 2.021 1_545 S
Co540 O560 2.062 . S
Co540 O564 2.117 . S
Co540 O565 2.020 . S
C541 O561 1.259 . S
C541 O564 1.258 . S
Co542 N551 2.057 . S
Co542 O558 2.117 . S
Co542 O559 2.020 . S
Co542 O561 2.021 . S
Co542 O566 2.062 . S
C543 N545 1.316 . S
C543 N546 1.347 . S
C543 H548 0.931 . S
C544 N545 1.375 . S
C544 C547 1.350 . S
C544 H549 0.930 1_565 S
N545 Co540 2.057 1_565 S
N545 C543 1.316 . S
N545 C544 1.375 . S
N546 C543 1.347 . S
N546 C547 1.373 . S
C547 C544 1.350 . S
C547 N546 1.373 . S
C547 H568 0.931 . S
H548 C543 0.931 . S
H549 C544 0.930 1_545 S
C550 O557 1.259 . S
C550 O558 1.258 1_565 S
N551 Co542 2.057 . S
N551 C552 1.316 . S
N551 C553 1.375 . S
C552 N551 1.316 . S
C552 N554 1.347 . S
C552 H563 0.931 . S
C553 N551 1.375 . S
C553 C555 1.350 . S
C553 H562 0.930 . S
N554 C552 1.347 . S
N554 C555 1.373 . S
C555 C553 1.350 . S
C555 N554 1.373 . S
C555 H569 0.931 . S
C556 O559 1.256 . S
C556 O560 1.255 . S
O557 Co540 2.021 1_565 S
O557 C550 1.259 . S
O558 Co542 2.117 . S
O558 C550 1.258 1_545 S
O559 Co542 2.020 . S
O559 C556 1.256 . S
O560 Co540 2.062 . S
O560 C556 1.255 . S
O561 C541 1.259 . S
O561 Co542 2.021 . S
H562 C553 0.930 . S
H563 C552 0.931 . S
O564 Co540 2.117 . S
O564 C541 1.258 . S
O565 Co540 2.020 . S
O565 C567 1.256 . S
O566 Co542 2.062 . S
O566 C567 1.255 . S
C567 O565 1.256 . S
C567 O566 1.255 . S
H568 C547 0.931 . S
H569 C555 0.931 . S
Co570 N575 2.057 1_655 S
Co570 O587 2.021 1_655 S
Co570 O590 2.062 . S
Co570 O594 2.117 . S
Co570 O595 2.020 . S
C571 O591 1.259 . S
C571 O594 1.258 . S
Co572 N581 2.057 . S
Co572 O588 2.117 . S
Co572 O589 2.020 . S
Co572 O591 2.021 . S
Co572 O596 2.062 . S
C573 N575 1.316 . S
C573 N576 1.347 . S
C573 H578 0.931 . S
C574 N575 1.375 . S
C574 C577 1.350 . S
C574 H579 0.930 1_455 S
N575 Co570 2.057 1_455 S
N575 C573 1.316 . S
N575 C574 1.375 . S
N576 C573 1.347 . S
N576 C577 1.373 . S
C577 C574 1.350 . S
C577 N576 1.373 . S
C577 H598 0.931 . S
H578 C573 0.931 . S
H579 C574 0.930 1_655 S
C580 O587 1.259 . S
C580 O588 1.258 1_455 S
N581 Co572 2.057 . S
N581 C582 1.316 . S
N581 C583 1.375 . S
C582 N581 1.316 . S
C582 N584 1.347 . S
C582 H593 0.931 . S
C583 N581 1.375 . S
C583 C585 1.350 . S
C583 H592 0.930 . S
N584 C582 1.347 . S
N584 C585 1.373 . S
C585 C583 1.350 . S
C585 N584 1.373 . S
C585 H599 0.931 . S
C586 O589 1.256 . S
C586 O590 1.255 . S
O587 Co570 2.021 1_455 S
O587 C580 1.259 . S
O588 Co572 2.117 . S
O588 C580 1.258 1_655 S
O589 Co572 2.020 . S
O589 C586 1.256 . S
O590 Co570 2.062 . S
O590 C586 1.255 . S
O591 C571 1.259 . S
O591 Co572 2.021 . S
H592 C583 0.930 . S
H593 C582 0.931 . S
O594 Co570 2.117 . S
O594 C571 1.258 . S
O595 Co570 2.020 . S
O595 C597 1.256 . S
O596 Co572 2.062 . S
O596 C597 1.255 . S
C597 O595 1.256 . S
C597 O596 1.255 . S
H598 C577 0.931 . S
H599 C585 0.931 . S
Co600 N605 2.057 . S
Co600 O617 2.021 . S
Co600 O620 2.062 . S
Co600 O624 2.117 . S
Co600 O625 2.020 . S
C601 O621 1.259 . S
C601 O624 1.258 . S
Co602 N611 2.057 . S
Co602 O618 2.117 . S
Co602 O619 2.020 . S
Co602 O621 2.021 . S
Co602 O626 2.062 . S
C603 N605 1.316 . S
C603 N606 1.347 . S
C603 H608 0.931 . S
C604 N605 1.375 . S
C604 C607 1.350 . S
C604 H609 0.930 . S
N605 Co600 2.057 . S
N605 C603 1.316 . S
N605 C604 1.375 . S
N606 C603 1.347 . S
N606 C607 1.373 . S
C607 C604 1.350 . S
C607 N606 1.373 . S
C607 H628 0.931 . S
H608 C603 0.931 . S
H609 C604 0.930 . S
C610 O617 1.259 . S
C610 O618 1.258 . S
N611 Co602 2.057 . S
N611 C612 1.316 . S
N611 C613 1.375 . S
C612 N611 1.316 . S
C612 N614 1.347 . S
C612 H623 0.931 . S
C613 N611 1.375 . S
C613 C615 1.350 . S
C613 H622 0.930 . S
N614 C612 1.347 . S
N614 C615 1.373 . S
C615 C613 1.350 . S
C615 N614 1.373 . S
C615 H629 0.931 . S
C616 O619 1.256 . S
C616 O620 1.255 . S
O617 Co600 2.021 . S
O617 C610 1.259 . S
O618 Co602 2.117 . S
O618 C610 1.258 . S
O619 Co602 2.020 . S
O619 C616 1.256 . S
O620 Co600 2.062 . S
O620 C616 1.255 . S
O621 C601 1.259 . S
O621 Co602 2.021 . S
H622 C613 0.930 . S
H623 C612 0.931 . S
O624 Co600 2.117 . S
O624 C601 1.258 . S
O625 Co600 2.020 . S
O625 C627 1.256 . S
O626 Co602 2.062 . S
O626 C627 1.255 . S
C627 O625 1.256 . S
C627 O626 1.255 . S
H628 C607 0.931 . S
H629 C615 0.931 . S
Co630 N635 2.057 . S
Co630 O647 2.021 . S
Co630 O650 2.062 . S
Co630 O654 2.117 . S
Co630 O655 2.020 1_556 S
C631 O651 1.259 . S
C631 O654 1.258 . S
Co632 N641 2.057 . S
Co632 O648 2.117 . S
Co632 O649 2.020 . S
Co632 O651 2.021 . S
Co632 O656 2.062 . S
C633 N635 1.316 . S
C633 N636 1.347 1_546 S
C633 H638 0.931 . S
C634 N635 1.375 . S
C634 C637 1.350 1_546 S
C634 H639 0.930 . S
N635 Co630 2.057 . S
N635 C633 1.316 . S
N635 C634 1.375 . S
N636 C633 1.347 1_564 S
N636 C637 1.373 . S
C637 C634 1.350 1_564 S
C637 N636 1.373 . S
C637 H658 0.931 . S
H638 C633 0.931 . S
H639 C634 0.930 . S
C640 O647 1.259 . S
C640 O648 1.258 . S
N641 Co632 2.057 . S
N641 C642 1.316 . S
N641 C643 1.375 . S
C642 N641 1.316 . S
C642 N644 1.347 . S
C642 H653 0.931 . S
C643 N641 1.375 . S
C643 C645 1.350 . S
C643 H652 0.930 . S
N644 C642 1.347 . S
N644 C645 1.373 . S
C645 C643 1.350 . S
C645 N644 1.373 . S
C645 H659 0.931 . S
C646 O649 1.256 . S
C646 O650 1.255 . S
O647 Co630 2.021 . S
O647 C640 1.259 . S
O648 Co632 2.117 . S
O648 C640 1.258 . S
O649 Co632 2.020 . S
O649 C646 1.256 . S
O650 Co630 2.062 . S
O650 C646 1.255 . S
O651 C631 1.259 . S
O651 Co632 2.021 . S
H652 C643 0.930 . S
H653 C642 0.931 . S
O654 Co630 2.117 . S
O654 C631 1.258 . S
O655 Co630 2.020 1_554 S
O655 C657 1.256 . S
O656 Co632 2.062 . S
O656 C657 1.255 1_556 S
C657 O655 1.256 . S
C657 O656 1.255 1_554 S
H658 C637 0.931 . S
H659 C645 0.931 . S
Co660 N665 2.057 . S
Co660 O677 2.021 . S
Co660 O680 2.062 . S
Co660 O684 2.117 . S
Co660 O685 2.020 1_556 S
C661 O681 1.259 . S
C661 O684 1.258 . S
Co662 N671 2.057 . S
Co662 O678 2.117 . S
Co662 O679 2.020 . S
Co662 O681 2.021 . S
Co662 O686 2.062 . S
C663 N665 1.316 . S
C663 N666 1.347 1_656 S
C663 H668 0.931 . S
C664 N665 1.375 . S
C664 C667 1.350 1_656 S
C664 H669 0.930 . S
N665 Co660 2.057 . S
N665 C663 1.316 . S
N665 C664 1.375 . S
N666 C663 1.347 1_454 S
N666 C667 1.373 . S
C667 C664 1.350 1_454 S
C667 N666 1.373 . S
C667 H688 0.931 . S
H668 C663 0.931 . S
H669 C664 0.930 . S
C670 O677 1.259 . S
C670 O678 1.258 . S
N671 Co662 2.057 . S
N671 C672 1.316 . S
N671 C673 1.375 . S
C672 N671 1.316 . S
C672 N674 1.347 . S
C672 H683 0.931 . S
C673 N671 1.375 . S
C673 C675 1.350 . S
C673 H682 0.930 . S
N674 C672 1.347 . S
N674 C675 1.373 . S
C675 C673 1.350 . S
C675 N674 1.373 . S
C675 H689 0.931 . S
C676 O679 1.256 . S
C676 O680 1.255 . S
O677 Co660 2.021 . S
O677 C670 1.259 . S
O678 Co662 2.117 . S
O678 C670 1.258 . S
O679 Co662 2.020 . S
O679 C676 1.256 . S
O680 Co660 2.062 . S
O680 C676 1.255 . S
O681 C661 1.259 . S
O681 Co662 2.021 . S
H682 C673 0.930 . S
H683 C672 0.931 . S
O684 Co660 2.117 . S
O684 C661 1.258 . S
O685 Co660 2.020 1_554 S
O685 C687 1.256 . S
O686 Co662 2.062 . S
O686 C687 1.255 1_556 S
C687 O685 1.256 . S
C687 O686 1.255 1_554 S
H688 C667 0.931 . S
H689 C675 0.931 . S
Co690 N695 2.057 . S
Co690 O707 2.021 . S
Co690 O710 2.062 . S
Co690 O714 2.117 . S
Co690 O715 2.020 1_556 S
C691 O711 1.259 . S
C691 O714 1.258 . S
Co692 N701 2.057 . S
Co692 O708 2.117 . S
Co692 O709 2.020 . S
Co692 O711 2.021 . S
Co692 O716 2.062 . S
C693 N695 1.316 . S
C693 N696 1.347 1_556 S
C693 H698 0.931 . S
C694 N695 1.375 . S
C694 C697 1.350 1_556 S
C694 H699 0.930 . S
N695 Co690 2.057 . S
N695 C693 1.316 . S
N695 C694 1.375 . S
N696 C693 1.347 1_554 S
N696 C697 1.373 . S
C697 C694 1.350 1_554 S
C697 N696 1.373 . S
C697 H718 0.931 . S
H698 C693 0.931 . S
H699 C694 0.930 . S
C700 O707 1.259 . S
C700 O708 1.258 . S
N701 Co692 2.057 . S
N701 C702 1.316 . S
N701 C703 1.375 . S
C702 N701 1.316 . S
C702 N704 1.347 . S
C702 H713 0.931 . S
C703 N701 1.375 . S
C703 C705 1.350 . S
C703 H712 0.930 . S
N704 C702 1.347 . S
N704 C705 1.373 . S
C705 C703 1.350 . S
C705 N704 1.373 . S
C705 H719 0.931 . S
C706 O709 1.256 . S
C706 O710 1.255 . S
O707 Co690 2.021 . S
O707 C700 1.259 . S
O708 Co692 2.117 . S
O708 C700 1.258 . S
O709 Co692 2.020 . S
O709 C706 1.256 . S
O710 Co690 2.062 . S
O710 C706 1.255 . S
O711 C691 1.259 . S
O711 Co692 2.021 . S
H712 C703 0.930 . S
H713 C702 0.931 . S
O714 Co690 2.117 . S
O714 C691 1.258 . S
O715 Co690 2.020 1_554 S
O715 C717 1.256 . S
O716 Co692 2.062 . S
O716 C717 1.255 1_556 S
C717 O715 1.256 . S
C717 O716 1.255 1_554 S
H718 C697 0.931 . S
H719 C705 0.931 . S
Co720 N725 2.057 . S
Co720 O737 2.021 . S
Co720 O740 2.062 . S
Co720 O744 2.117 . S
Co720 O745 2.020 . S
C721 O741 1.259 . S
C721 O744 1.258 1_545 S
Co722 N731 2.057 1_565 S
Co722 O738 2.117 . S
Co722 O739 2.020 . S
Co722 O741 2.021 1_565 S
Co722 O746 2.062 . S
C723 N725 1.316 . S
C723 N726 1.347 . S
C723 H728 0.931 . S
C724 N725 1.375 . S
C724 C727 1.350 . S
C724 H729 0.930 . S
N725 Co720 2.057 . S
N725 C723 1.316 . S
N725 C724 1.375 . S
N726 C723 1.347 . S
N726 C727 1.373 . S
C727 C724 1.350 . S
C727 N726 1.373 . S
C727 H748 0.931 . S
H728 C723 0.931 . S
H729 C724 0.930 . S
C730 O737 1.259 . S
C730 O738 1.258 . S
N731 Co722 2.057 1_545 S
N731 C732 1.316 . S
N731 C733 1.375 . S
C732 N731 1.316 . S
C732 N734 1.347 . S
C732 H743 0.931 . S
C733 N731 1.375 . S
C733 C735 1.350 . S
C733 H742 0.930 1_545 S
N734 C732 1.347 . S
N734 C735 1.373 . S
C735 C733 1.350 . S
C735 N734 1.373 . S
C735 H749 0.931 . S
C736 O739 1.256 . S
C736 O740 1.255 . S
O737 Co720 2.021 . S
O737 C730 1.259 . S
O738 Co722 2.117 . S
O738 C730 1.258 . S
O739 Co722 2.020 . S
O739 C736 1.256 . S
O740 Co720 2.062 . S
O740 C736 1.255 . S
O741 C721 1.259 . S
O741 Co722 2.021 1_545 S
H742 C733 0.930 1_565 S
H743 C732 0.931 . S
O744 Co720 2.117 . S
O744 C721 1.258 1_565 S
O745 Co720 2.020 . S
O745 C747 1.256 . S
O746 Co722 2.062 . S
O746 C747 1.255 . S
C747 O745 1.256 . S
C747 O746 1.255 . S
H748 C727 0.931 . S
H749 C735 0.931 . S
Co750 N755 2.057 . S
Co750 O767 2.021 . S
Co750 O770 2.062 . S
Co750 O774 2.117 . S
Co750 O775 2.020 . S
C751 O771 1.259 . S
C751 O774 1.258 1_655 S
Co752 N761 2.057 1_455 S
Co752 O768 2.117 . S
Co752 O769 2.020 . S
Co752 O771 2.021 1_455 S
Co752 O776 2.062 . S
C753 N755 1.316 . S
C753 N756 1.347 . S
C753 H758 0.931 . S
C754 N755 1.375 . S
C754 C757 1.350 . S
C754 H759 0.930 . S
N755 Co750 2.057 . S
N755 C753 1.316 . S
N755 C754 1.375 . S
N756 C753 1.347 . S
N756 C757 1.373 . S
C757 C754 1.350 . S
C757 N756 1.373 . S
C757 H778 0.931 . S
H758 C753 0.931 . S
H759 C754 0.930 . S
C760 O767 1.259 . S
C760 O768 1.258 . S
N761 Co752 2.057 1_655 S
N761 C762 1.316 . S
N761 C763 1.375 . S
C762 N761 1.316 . S
C762 N764 1.347 . S
C762 H773 0.931 . S
C763 N761 1.375 . S
C763 C765 1.350 . S
C763 H772 0.930 1_655 S
N764 C762 1.347 . S
N764 C765 1.373 . S
C765 C763 1.350 . S
C765 N764 1.373 . S
C765 H779 0.931 . S
C766 O769 1.256 . S
C766 O770 1.255 . S
O767 Co750 2.021 . S
O767 C760 1.259 . S
O768 Co752 2.117 . S
O768 C760 1.258 . S
O769 Co752 2.020 . S
O769 C766 1.256 . S
O770 Co750 2.062 . S
O770 C766 1.255 . S
O771 C751 1.259 . S
O771 Co752 2.021 1_655 S
H772 C763 0.930 1_455 S
H773 C762 0.931 . S
O774 Co750 2.117 . S
O774 C751 1.258 1_455 S
O775 Co750 2.020 . S
O775 C777 1.256 . S
O776 Co752 2.062 . S
O776 C777 1.255 . S
C777 O775 1.256 . S
C777 O776 1.255 . S
H778 C757 0.931 . S
H779 C765 0.931 . S
Co780 N785 2.057 . S
Co780 O797 2.021 . S
Co780 O800 2.062 . S
Co780 O804 2.117 . S
Co780 O805 2.020 . S
C781 O801 1.259 . S
C781 O804 1.258 . S
Co782 N791 2.057 . S
Co782 O798 2.117 . S
Co782 O799 2.020 . S
Co782 O801 2.021 . S
Co782 O806 2.062 . S
C783 N785 1.316 . S
C783 N786 1.347 . S
C783 H788 0.931 . S
C784 N785 1.375 . S
C784 C787 1.350 . S
C784 H789 0.930 . S
N785 Co780 2.057 . S
N785 C783 1.316 . S
N785 C784 1.375 . S
N786 C783 1.347 . S
N786 C787 1.373 . S
C787 C784 1.350 . S
C787 N786 1.373 . S
C787 H808 0.931 . S
H788 C783 0.931 . S
H789 C784 0.930 . S
C790 O797 1.259 . S
C790 O798 1.258 . S
N791 Co782 2.057 . S
N791 C792 1.316 . S
N791 C793 1.375 . S
C792 N791 1.316 . S
C792 N794 1.347 . S
C792 H803 0.931 . S
C793 N791 1.375 . S
C793 C795 1.350 . S
C793 H802 0.930 . S
N794 C792 1.347 . S
N794 C795 1.373 . S
C795 C793 1.350 . S
C795 N794 1.373 . S
C795 H809 0.931 . S
C796 O799 1.256 . S
C796 O800 1.255 . S
O797 Co780 2.021 . S
O797 C790 1.259 . S
O798 Co782 2.117 . S
O798 C790 1.258 . S
O799 Co782 2.020 . S
O799 C796 1.256 . S
O800 Co780 2.062 . S
O800 C796 1.255 . S
O801 C781 1.259 . S
O801 Co782 2.021 . S
H802 C793 0.930 . S
H803 C792 0.931 . S
O804 Co780 2.117 . S
O804 C781 1.258 . S
O805 Co780 2.020 . S
O805 C807 1.256 . S
O806 Co782 2.062 . S
O806 C807 1.255 . S
C807 O805 1.256 . S
C807 O806 1.255 . S
H808 C787 0.931 . S
H809 C795 0.931 . S
Co810 N815 2.057 . S
Co810 O827 2.021 . S
Co810 O830 2.062 . S
Co810 O834 2.117 . S
Co810 O835 2.020 . S
C811 O831 1.259 . S
C811 O834 1.258 . S
Co812 N821 2.057 . S
Co812 O828 2.117 . S
Co812 O829 2.020 1_554 S
Co812 O831 2.021 . S
Co812 O836 2.062 . S
C813 N815 1.316 . S
C813 N816 1.347 . S
C813 H818 0.931 . S
C814 N815 1.375 . S
C814 C817 1.350 . S
C814 H819 0.930 . S
N815 Co810 2.057 . S
N815 C813 1.316 . S
N815 C814 1.375 . S
N816 C813 1.347 . S
N816 C817 1.373 . S
C817 C814 1.350 . S
C817 N816 1.373 . S
C817 H838 0.931 . S
H818 C813 0.931 . S
H819 C814 0.930 . S
C820 O827 1.259 . S
C820 O828 1.258 . S
N821 Co812 2.057 . S
N821 C822 1.316 . S
N821 C823 1.375 . S
C822 N821 1.316 . S
C822 N824 1.347 1_564 S
C822 H833 0.931 . S
C823 N821 1.375 . S
C823 C825 1.350 1_564 S
C823 H832 0.930 . S
N824 C822 1.347 1_546 S
N824 C825 1.373 . S
C825 C823 1.350 1_546 S
C825 N824 1.373 . S
C825 H839 0.931 . S
C826 O829 1.256 . S
C826 O830 1.255 1_556 S
O827 Co810 2.021 . S
O827 C820 1.259 . S
O828 Co812 2.117 . S
O828 C820 1.258 . S
O829 Co812 2.020 1_556 S
O829 C826 1.256 . S
O830 Co810 2.062 . S
O830 C826 1.255 1_554 S
O831 C811 1.259 . S
O831 Co812 2.021 . S
H832 C823 0.930 . S
H833 C822 0.931 . S
O834 Co810 2.117 . S
O834 C811 1.258 . S
O835 Co810 2.020 . S
O835 C837 1.256 . S
O836 Co812 2.062 . S
O836 C837 1.255 . S
C837 O835 1.256 . S
C837 O836 1.255 . S
H838 C817 0.931 . S
H839 C825 0.931 . S
Co840 N845 2.057 . S
Co840 O857 2.021 . S
Co840 O860 2.062 . S
Co840 O864 2.117 . S
Co840 O865 2.020 . S
C841 O861 1.259 . S
C841 O864 1.258 . S
Co842 N851 2.057 . S
Co842 O858 2.117 . S
Co842 O859 2.020 1_554 S
Co842 O861 2.021 . S
Co842 O866 2.062 . S
C843 N845 1.316 . S
C843 N846 1.347 . S
C843 H848 0.931 . S
C844 N845 1.375 . S
C844 C847 1.350 . S
C844 H849 0.930 . S
N845 Co840 2.057 . S
N845 C843 1.316 . S
N845 C844 1.375 . S
N846 C843 1.347 . S
N846 C847 1.373 . S
C847 C844 1.350 . S
C847 N846 1.373 . S
C847 H868 0.931 . S
H848 C843 0.931 . S
H849 C844 0.930 . S
C850 O857 1.259 . S
C850 O858 1.258 . S
N851 Co842 2.057 . S
N851 C852 1.316 . S
N851 C853 1.375 . S
C852 N851 1.316 . S
C852 N854 1.347 1_454 S
C852 H863 0.931 . S
C853 N851 1.375 . S
C853 C855 1.350 1_454 S
C853 H862 0.930 . S
N854 C852 1.347 1_656 S
N854 C855 1.373 . S
C855 C853 1.350 1_656 S
C855 N854 1.373 . S
C855 H869 0.931 . S
C856 O859 1.256 . S
C856 O860 1.255 1_556 S
O857 Co840 2.021 . S
O857 C850 1.259 . S
O858 Co842 2.117 . S
O858 C850 1.258 . S
O859 Co842 2.020 1_556 S
O859 C856 1.256 . S
O860 Co840 2.062 . S
O860 C856 1.255 1_554 S
O861 C841 1.259 . S
O861 Co842 2.021 . S
H862 C853 0.930 . S
H863 C852 0.931 . S
O864 Co840 2.117 . S
O864 C841 1.258 . S
O865 Co840 2.020 . S
O865 C867 1.256 . S
O866 Co842 2.062 . S
O866 C867 1.255 . S
C867 O865 1.256 . S
C867 O866 1.255 . S
H868 C847 0.931 . S
H869 C855 0.931 . S
Co870 N875 2.057 . S
Co870 O887 2.021 . S
Co870 O890 2.062 . S
Co870 O894 2.117 . S
Co870 O895 2.020 . S
C871 O891 1.259 . S
C871 O894 1.258 . S
Co872 N881 2.057 . S
Co872 O888 2.117 . S
Co872 O889 2.020 1_554 S
Co872 O891 2.021 . S
Co872 O896 2.062 . S
C873 N875 1.316 . S
C873 N876 1.347 . S
C873 H878 0.931 . S
C874 N875 1.375 . S
C874 C877 1.350 . S
C874 H879 0.930 . S
N875 Co870 2.057 . S
N875 C873 1.316 . S
N875 C874 1.375 . S
N876 C873 1.347 . S
N876 C877 1.373 . S
C877 C874 1.350 . S
C877 N876 1.373 . S
C877 H898 0.931 . S
H878 C873 0.931 . S
H879 C874 0.930 . S
C880 O887 1.259 . S
C880 O888 1.258 . S
N881 Co872 2.057 . S
N881 C882 1.316 . S
N881 C883 1.375 . S
C882 N881 1.316 . S
C882 N884 1.347 1_554 S
C882 H893 0.931 . S
C883 N881 1.375 . S
C883 C885 1.350 1_554 S
C883 H892 0.930 . S
N884 C882 1.347 1_556 S
N884 C885 1.373 . S
C885 C883 1.350 1_556 S
C885 N884 1.373 . S
C885 H899 0.931 . S
C886 O889 1.256 . S
C886 O890 1.255 1_556 S
O887 Co870 2.021 . S
O887 C880 1.259 . S
O888 Co872 2.117 . S
O888 C880 1.258 . S
O889 Co872 2.020 1_556 S
O889 C886 1.256 . S
O890 Co870 2.062 . S
O890 C886 1.255 1_554 S
O891 C871 1.259 . S
O891 Co872 2.021 . S
H892 C883 0.930 . S
H893 C882 0.931 . S
O894 Co870 2.117 . S
O894 C871 1.258 . S
O895 Co870 2.020 . S
O895 C897 1.256 . S
O896 Co872 2.062 . S
O896 C897 1.255 . S
C897 O895 1.256 . S
C897 O896 1.255 . S
H898 C877 0.931 . S
H899 C885 0.931 . S
Co900 N905 2.057 . S
Co900 O917 2.021 . S
Co900 O920 2.062 . S
Co900 O924 2.117 . S
Co900 O925 2.020 . S
C901 O921 1.259 . S
C901 O924 1.258 . S
Co902 N911 2.057 . S
Co902 O918 2.117 . S
Co902 O919 2.020 . S
Co902 O921 2.021 . S
Co902 O926 2.062 . S
C903 N905 1.316 . S
C903 N906 1.347 1_455 S
C903 H908 0.931 . S
C904 N905 1.375 . S
C904 C907 1.350 1_455 S
C904 H909 0.930 . S
N905 Co900 2.057 . S
N905 C903 1.316 . S
N905 C904 1.375 . S
N906 C903 1.347 1_655 S
N906 C907 1.373 . S
C907 C904 1.350 1_655 S
C907 N906 1.373 . S
C907 H928 0.931 . S
H908 C903 0.931 . S
H909 C904 0.930 . S
C910 O917 1.259 . S
C910 O918 1.258 . S
N911 Co902 2.057 . S
N911 C912 1.316 . S
N911 C913 1.375 . S
C912 N911 1.316 . S
C912 N914 1.347 . S
C912 H923 0.931 . S
C913 N911 1.375 . S
C913 C915 1.350 . S
C913 H922 0.930 . S
N914 C912 1.347 . S
N914 C915 1.373 . S
C915 C913 1.350 . S
C915 N914 1.373 . S
C915 H929 0.931 . S
C916 O919 1.256 . S
C916 O920 1.255 . S
O917 Co900 2.021 . S
O917 C910 1.259 . S
O918 Co902 2.117 . S
O918 C910 1.258 . S
O919 Co902 2.020 . S
O919 C916 1.256 . S
O920 Co900 2.062 . S
O920 C916 1.255 . S
O921 C901 1.259 . S
O921 Co902 2.021 . S
H922 C913 0.930 . S
H923 C912 0.931 . S
O924 Co900 2.117 . S
O924 C901 1.258 . S
O925 Co900 2.020 . S
O925 C927 1.256 . S
O926 Co902 2.062 . S
O926 C927 1.255 . S
C927 O925 1.256 . S
C927 O926 1.255 . S
H928 C907 0.931 . S
H929 C915 0.931 . S
Co930 N935 2.057 . S
Co930 O947 2.021 . S
Co930 O950 2.062 . S
Co930 O954 2.117 . S
Co930 O955 2.020 . S
C931 O951 1.259 . S
C931 O954 1.258 . S
Co932 N941 2.057 . S
Co932 O948 2.117 . S
Co932 O949 2.020 . S
Co932 O951 2.021 . S
Co932 O956 2.062 . S
C933 N935 1.316 . S
C933 N936 1.347 . S
C933 H938 0.931 . S
C934 N935 1.375 . S
C934 C937 1.350 . S
C934 H939 0.930 . S
N935 Co930 2.057 . S
N935 C933 1.316 . S
N935 C934 1.375 . S
N936 C933 1.347 . S
N936 C937 1.373 . S
C937 C934 1.350 . S
C937 N936 1.373 . S
C937 H958 0.931 . S
H938 C933 0.931 . S
H939 C934 0.930 . S
C940 O947 1.259 . S
C940 O948 1.258 . S
N941 Co932 2.057 . S
N941 C942 1.316 . S
N941 C943 1.375 . S
C942 N941 1.316 . S
C942 N944 1.347 . S
C942 H953 0.931 . S
C943 N941 1.375 . S
C943 C945 1.350 . S
C943 H952 0.930 . S
N944 C942 1.347 . S
N944 C945 1.373 . S
C945 C943 1.350 . S
C945 N944 1.373 . S
C945 H959 0.931 . S
C946 O949 1.256 . S
C946 O950 1.255 . S
O947 Co930 2.021 . S
O947 C940 1.259 . S
O948 Co932 2.117 . S
O948 C940 1.258 . S
O949 Co932 2.020 . S
O949 C946 1.256 . S
O950 Co930 2.062 . S
O950 C946 1.255 . S
O951 C931 1.259 . S
O951 Co932 2.021 . S
H952 C943 0.930 . S
H953 C942 0.931 . S
O954 Co930 2.117 . S
O954 C931 1.258 . S
O955 Co930 2.020 . S
O955 C957 1.256 . S
O956 Co932 2.062 . S
O956 C957 1.255 . S
C957 O955 1.256 . S
C957 O956 1.255 . S
H958 C937 0.931 . S
H959 C945 0.931 . S
Co960 N965 2.057 . S
Co960 O977 2.021 . S
Co960 O980 2.062 . S
Co960 O984 2.117 . S
Co960 O985 2.020 . S
C961 O981 1.259 . S
C961 O984 1.258 . S
Co962 N971 2.057 . S
Co962 O978 2.117 . S
Co962 O979 2.020 . S
Co962 O981 2.021 . S
Co962 O986 2.062 . S
C963 N965 1.316 . S
C963 N966 1.347 1_565 S
C963 H968 0.931 . S
C964 N965 1.375 . S
C964 C967 1.350 1_565 S
C964 H969 0.930 . S
N965 Co960 2.057 . S
N965 C963 1.316 . S
N965 C964 1.375 . S
N966 C963 1.347 1_545 S
N966 C967 1.373 . S
C967 C964 1.350 1_545 S
C967 N966 1.373 . S
C967 H988 0.931 . S
H968 C963 0.931 . S
H969 C964 0.930 . S
C970 O977 1.259 . S
C970 O978 1.258 . S
N971 Co962 2.057 . S
N971 C972 1.316 . S
N971 C973 1.375 . S
C972 N971 1.316 . S
C972 N974 1.347 . S
C972 H983 0.931 . S
C973 N971 1.375 . S
C973 C975 1.350 . S
C973 H982 0.930 . S
N974 C972 1.347 . S
N974 C975 1.373 . S
C975 C973 1.350 . S
C975 N974 1.373 . S
C975 H989 0.931 . S
C976 O979 1.256 . S
C976 O980 1.255 . S
O977 Co960 2.021 . S
O977 C970 1.259 . S
O978 Co962 2.117 . S
O978 C970 1.258 . S
O979 Co962 2.020 . S
O979 C976 1.256 . S
O980 Co960 2.062 . S
O980 C976 1.255 . S
O981 C961 1.259 . S
O981 Co962 2.021 . S
H982 C973 0.930 . S
H983 C972 0.931 . S
O984 Co960 2.117 . S
O984 C961 1.258 . S
O985 Co960 2.020 . S
O985 C987 1.256 . S
O986 Co962 2.062 . S
O986 C987 1.255 . S
C987 O985 1.256 . S
C987 O986 1.255 . S
H988 C967 0.931 . S
H989 C975 0.931 . S
Co990 N995 2.057 1_455 S
Co990 O1007 2.021 1_455 S
Co990 O1010 2.062 . S
Co990 O1014 2.117 . S
Co990 O1015 2.020 . S
C991 O1011 1.259 . S
C991 O1014 1.258 . S
Co992 N1001 2.057 . S
Co992 O1008 2.117 . S
Co992 O1009 2.020 . S
Co992 O1011 2.021 . S
Co992 O1016 2.062 . S
C993 N995 1.316 . S
C993 N996 1.347 . S
C993 H998 0.931 . S
C994 N995 1.375 1_455 S
C994 C997 1.350 1_455 S
C994 H999 0.930 . S
N995 Co990 2.057 1_655 S
N995 C993 1.316 . S
N995 C994 1.375 1_655 S
N996 C993 1.347 . S
N996 C997 1.373 . S
C997 C994 1.350 1_655 S
C997 N996 1.373 . S
C997 H1018 0.931 . S
H998 C993 0.931 . S
H999 C994 0.930 . S
C1000 O1007 1.259 . S
C1000 O1008 1.258 1_655 S
N1001 Co992 2.057 . S
N1001 C1002 1.316 . S
N1001 C1003 1.375 . S
C1002 N1001 1.316 . S
C1002 N1004 1.347 . S
C1002 H1013 0.931 . S
C1003 N1001 1.375 . S
C1003 C1005 1.350 . S
C1003 H1012 0.930 . S
N1004 C1002 1.347 . S
N1004 C1005 1.373 . S
C1005 C1003 1.350 . S
C1005 N1004 1.373 . S
C1005 H1019 0.931 . S
C1006 O1009 1.256 . S
C1006 O1010 1.255 . S
O1007 Co990 2.021 1_655 S
O1007 C1000 1.259 . S
O1008 Co992 2.117 . S
O1008 C1000 1.258 1_455 S
O1009 Co992 2.020 . S
O1009 C1006 1.256 . S
O1010 Co990 2.062 . S
O1010 C1006 1.255 . S
O1011 C991 1.259 . S
O1011 Co992 2.021 . S
H1012 C1003 0.930 . S
H1013 C1002 0.931 . S
O1014 Co990 2.117 . S
O1014 C991 1.258 . S
O1015 Co990 2.020 . S
O1015 C1017 1.256 . S
O1016 Co992 2.062 . S
O1016 C1017 1.255 . S
C1017 O1015 1.256 . S
C1017 O1016 1.255 . S
H1018 C997 0.931 . S
H1019 C1005 0.931 . S
Co1020 N1025 2.057 . S
Co1020 O1037 2.021 . S
Co1020 O1040 2.062 . S
Co1020 O1044 2.117 . S
Co1020 O1045 2.020 . S
C1021 O1041 1.259 . S
C1021 O1044 1.258 . S
Co1022 N1031 2.057 . S
Co1022 O1038 2.117 . S
Co1022 O1039 2.020 . S
Co1022 O1041 2.021 . S
Co1022 O1046 2.062 . S
C1023 N1025 1.316 . S
C1023 N1026 1.347 . S
C1023 H1028 0.931 . S
C1024 N1025 1.375 . S
C1024 C1027 1.350 . S
C1024 H1029 0.930 . S
N1025 Co1020 2.057 . S
N1025 C1023 1.316 . S
N1025 C1024 1.375 . S
N1026 C1023 1.347 . S
N1026 C1027 1.373 . S
C1027 C1024 1.350 . S
C1027 N1026 1.373 . S
C1027 H1048 0.931 . S
H1028 C1023 0.931 . S
H1029 C1024 0.930 . S
C1030 O1037 1.259 . S
C1030 O1038 1.258 . S
N1031 Co1022 2.057 . S
N1031 C1032 1.316 . S
N1031 C1033 1.375 . S
C1032 N1031 1.316 . S
C1032 N1034 1.347 . S
C1032 H1043 0.931 . S
C1033 N1031 1.375 . S
C1033 C1035 1.350 . S
C1033 H1042 0.930 . S
N1034 C1032 1.347 . S
N1034 C1035 1.373 . S
C1035 C1033 1.350 . S
C1035 N1034 1.373 . S
C1035 H1049 0.931 . S
C1036 O1039 1.256 . S
C1036 O1040 1.255 . S
O1037 Co1020 2.021 . S
O1037 C1030 1.259 . S
O1038 Co1022 2.117 . S
O1038 C1030 1.258 . S
O1039 Co1022 2.020 . S
O1039 C1036 1.256 . S
O1040 Co1020 2.062 . S
O1040 C1036 1.255 . S
O1041 C1021 1.259 . S
O1041 Co1022 2.021 . S
H1042 C1033 0.930 . S
H1043 C1032 0.931 . S
O1044 Co1020 2.117 . S
O1044 C1021 1.258 . S
O1045 Co1020 2.020 . S
O1045 C1047 1.256 . S
O1046 Co1022 2.062 . S
O1046 C1047 1.255 . S
C1047 O1045 1.256 . S
C1047 O1046 1.255 . S
H1048 C1027 0.931 . S
H1049 C1035 0.931 . S
Co1050 N1055 2.057 1_565 S
Co1050 O1067 2.021 1_565 S
Co1050 O1070 2.062 . S
Co1050 O1074 2.117 . S
Co1050 O1075 2.020 . S
C1051 O1071 1.259 . S
C1051 O1074 1.258 . S
Co1052 N1061 2.057 . S
Co1052 O1068 2.117 . S
Co1052 O1069 2.020 . S
Co1052 O1071 2.021 . S
Co1052 O1076 2.062 . S
C1053 N1055 1.316 . S
C1053 N1056 1.347 . S
C1053 H1058 0.931 . S
C1054 N1055 1.375 1_565 S
C1054 C1057 1.350 1_565 S
C1054 H1059 0.930 . S
N1055 Co1050 2.057 1_545 S
N1055 C1053 1.316 . S
N1055 C1054 1.375 1_545 S
N1056 C1053 1.347 . S
N1056 C1057 1.373 . S
C1057 C1054 1.350 1_545 S
C1057 N1056 1.373 . S
C1057 H1078 0.931 . S
H1058 C1053 0.931 . S
H1059 C1054 0.930 . S
C1060 O1067 1.259 . S
C1060 O1068 1.258 1_545 S
N1061 Co1052 2.057 . S
N1061 C1062 1.316 . S
N1061 C1063 1.375 . S
C1062 N1061 1.316 . S
C1062 N1064 1.347 . S
C1062 H1073 0.931 . S
C1063 N1061 1.375 . S
C1063 C1065 1.350 . S
C1063 H1072 0.930 . S
N1064 C1062 1.347 . S
N1064 C1065 1.373 . S
C1065 C1063 1.350 . S
C1065 N1064 1.373 . S
C1065 H1079 0.931 . S
C1066 O1069 1.256 . S
C1066 O1070 1.255 . S
O1067 Co1050 2.021 1_545 S
O1067 C1060 1.259 . S
O1068 Co1052 2.117 . S
O1068 C1060 1.258 1_565 S
O1069 Co1052 2.020 . S
O1069 C1066 1.256 . S
O1070 Co1050 2.062 . S
O1070 C1066 1.255 . S
O1071 C1051 1.259 . S
O1071 Co1052 2.021 . S
H1072 C1063 0.930 . S
H1073 C1062 0.931 . S
O1074 Co1050 2.117 . S
O1074 C1051 1.258 . S
O1075 Co1050 2.020 . S
O1075 C1077 1.256 . S
O1076 Co1052 2.062 . S
O1076 C1077 1.255 . S
C1077 O1075 1.256 . S
C1077 O1076 1.255 . S
H1078 C1057 0.931 . S
H1079 C1065 0.931 . S
C10 N66 2.087 . S
N6 C40 2.087 1_545 S
C70 N36 2.087 1_455 S
C100 N126 3.051 . S
N156 C130 3.051 1_565 S
C160 N96 3.051 1_655 S
C181 N254 2.087 . S
C211 N194 2.087 1_545 S
C241 N224 2.087 1_655 S
C271 N314 3.051 . S
N344 C301 3.051 1_545 S
N284 C331 3.051 1_655 S
N426 C370 2.087 . S
C400 N366 2.088 . S
N396 C430 2.087 . S
C460 N486 3.051 . S
N516 C490 3.051 . S
N456 C520 3.051 . S
C541 N614 2.087 . S
C571 N554 2.088 . S
N584 C601 2.088 . S
N674 C631 3.051 . S
C661 N704 3.051 . S
N644 C691 3.051 . S
C730 N786 2.087 . S
C760 N726 2.088 . S
C790 N756 2.088 . S
C820 N846 3.051 . S
C850 N876 3.051 . S
C880 N816 3.051 . S
C901 N974 2.087 . S
C931 N914 2.088 . S
N944 C961 2.087 . S
C991 N1034 3.051 . S
C1021 N1064 3.051 . S
N1004 C1051 3.051 . S
N14 C610 4.071 . S
C550 N44 4.071 . S
N74 C580 4.071 . S
N104 C1030 1.728 . S
C1060 N134 1.728 . S
N164 C1000 1.728 . S
C781 N186 4.071 . S
N216 C721 4.071 . S
N246 C751 4.071 . S
C481 N276 1.728 . S
C511 N306 1.728 . S
C451 N336 1.728 . S
N374 C970 4.071 . S
N404 C910 4.071 . S
C940 N434 4.070 . S
C310 N464 1.728 . S
C340 N494 1.728 . S
C280 N524 1.728 . S
C61 N546 4.071 . S
N576 C1 4.071 . S
N606 C31 4.071 . S
C841 N636 1.728 . S
C871 N666 1.728 . S
N696 C811 1.728 . S
C250 N734 4.071 . S
C190 N764 4.071 . S
C220 N794 4.071 . S
N824 C670 1.728 . S
C700 N854 1.728 . S
N884 C640 1.728 . S
N906 C421 4.071 . S
N936 C361 4.071 . S
N966 C391 4.070 . S
N996 C121 1.728 . S
C151 N1026 1.728 . S
C91 N1056 1.728 . S
C897 C27 1.691 . S
C837 C57 1.691 . S
C87 C867 1.691 . S
C417 C117 1.691 . S
C147 C447 1.691 . S
C177 C387 1.691 . S
C196 C706 1.691 . S
C226 C646 1.691 . S
C256 C676 1.691 . S
C946 C286 1.691 . S
C976 C316 1.691 . S
C916 C346 1.691 . S
C477 C777 1.691 1_655 S
C507 C807 1.691 . S
C537 C747 1.691 1_545 S
C556 C1066 1.691 1_545 S
C1006 C586 1.691 1_455 S
C616 C1036 1.691 . S
C136 C16 2.723 1_655 S
C166 C46 2.723 . S
C106 C76 2.722 1_545 S
C207 C327 2.723 1_655 S
C357 C237 2.723 . S
C267 C297 2.722 1_545 S
C496 C376 2.723 . S
C526 C406 2.723 . S
C466 C436 2.722 . S
C687 C567 2.723 . S
C597 C717 2.723 . S
C627 C657 2.723 . S
C736 C856 2.723 . S
C886 C766 2.723 . S
C796 C826 2.723 . S
C927 C1047 2.723 . S
C1077 C957 2.723 . S
C987 C1017 2.722 . S
