# Generated by pormake.
# Topology yfy, (5)-cn, num edge types: 1
# Building blocks:
#     Node 0, Type 0, BuildingBlock: BEQFEK_clean_sbu_0, # of connection points: 5
#     Node 1, Type 0, BuildingBlock: BEQFEK_clean_sbu_0, # of connection points: 5
#     Node 2, Type 0, BuildingBlock: BEQFEK_clean_sbu_0, # of connection points: 5
#     Node 3, Type 0, BuildingBlock: BEQFEK_clean_sbu_0, # of connection points: 5
#     Node 4, Type 0, BuildingBlock: BEQFEK_clean_sbu_0, # of connection points: 5
#     Node 5, Type 0, BuildingBlock: BEQFEK_clean_sbu_0, # of connection points: 5
#     Node 6, Type 0, BuildingBlock: BEQFEK_clean_sbu_0, # of connection points: 5
#     Node 7, Type 0, BuildingBlock: BEQFEK_clean_sbu_0, # of connection points: 5
#     Node 8, Type 0, BuildingBlock: BEQFEK_clean_sbu_0, # of connection points: 5
#     Node 9, Type 0, BuildingBlock: BEQFEK_clean_sbu_0, # of connection points: 5
#     Node 10, Type 0, BuildingBlock: BEQFEK_clean_sbu_0, # of connection points: 5
#     Node 11, Type 0, BuildingBlock: BEQFEK_clean_sbu_0, # of connection points: 5
#     Node 12, Type 0, BuildingBlock: BEQFEK_clean_sbu_0, # of connection points: 5
#     Node 13, Type 0, BuildingBlock: BEQFEK_clean_sbu_0, # of connection points: 5
#     Node 14, Type 0, BuildingBlock: BEQFEK_clean_sbu_0, # of connection points: 5
#     Node 15, Type 0, BuildingBlock: BEQFEK_clean_sbu_0, # of connection points: 5
#     Edge 16, Type (0, 0), BuildingBlock: TEMPAE_clean_linker_10, # of connection points: 2
#     Edge 17, Type (0, 0), BuildingBlock: TEMPAE_clean_linker_10, # of connection points: 2
#     Edge 18, Type (0, 0), BuildingBlock: TEMPAE_clean_linker_10, # of connection points: 2
#     Edge 19, Type (0, 0), BuildingBlock: TEMPAE_clean_linker_10, # of connection points: 2
#     Edge 20, Type (0, 0), BuildingBlock: TEMPAE_clean_linker_10, # of connection points: 2
#     Edge 21, Type (0, 0), BuildingBlock: TEMPAE_clean_linker_10, # of connection points: 2
#     Edge 22, Type (0, 0), BuildingBlock: TEMPAE_clean_linker_10, # of connection points: 2
#     Edge 23, Type (0, 0), BuildingBlock: TEMPAE_clean_linker_10, # of connection points: 2
#     Edge 24, Type (0, 0), BuildingBlock: TEMPAE_clean_linker_10, # of connection points: 2
#     Edge 25, Type (0, 0), BuildingBlock: TEMPAE_clean_linker_10, # of connection points: 2
#     Edge 26, Type (0, 0), BuildingBlock: TEMPAE_clean_linker_10, # of connection points: 2
#     Edge 27, Type (0, 0), BuildingBlock: TEMPAE_clean_linker_10, # of connection points: 2
#     Edge 28, Type (0, 0), BuildingBlock: TEMPAE_clean_linker_10, # of connection points: 2
#     Edge 29, Type (0, 0), BuildingBlock: TEMPAE_clean_linker_10, # of connection points: 2
#     Edge 30, Type (0, 0), BuildingBlock: TEMPAE_clean_linker_10, # of connection points: 2
#     Edge 31, Type (0, 0), BuildingBlock: TEMPAE_clean_linker_10, # of connection points: 2
#     Edge 32, Type (0, 0), BuildingBlock: TEMPAE_clean_linker_10, # of connection points: 2
#     Edge 33, Type (0, 0), BuildingBlock: TEMPAE_clean_linker_10, # of connection points: 2
#     Edge 34, Type (0, 0), BuildingBlock: TEMPAE_clean_linker_10, # of connection points: 2
#     Edge 35, Type (0, 0), BuildingBlock: TEMPAE_clean_linker_10, # of connection points: 2
#     Edge 36, Type (0, 0), BuildingBlock: TEMPAE_clean_linker_10, # of connection points: 2
#     Edge 37, Type (0, 0), BuildingBlock: TEMPAE_clean_linker_10, # of connection points: 2
#     Edge 38, Type (0, 0), BuildingBlock: TEMPAE_clean_linker_10, # of connection points: 2
#     Edge 39, Type (0, 0), BuildingBlock: TEMPAE_clean_linker_10, # of connection points: 2
#     Edge 40, Type (0, 0), BuildingBlock: TEMPAE_clean_linker_10, # of connection points: 2
#     Edge 41, Type (0, 0), BuildingBlock: TEMPAE_clean_linker_10, # of connection points: 2
#     Edge 42, Type (0, 0), BuildingBlock: TEMPAE_clean_linker_10, # of connection points: 2
#     Edge 43, Type (0, 0), BuildingBlock: TEMPAE_clean_linker_10, # of connection points: 2
#     Edge 44, Type (0, 0), BuildingBlock: TEMPAE_clean_linker_10, # of connection points: 2
#     Edge 45, Type (0, 0), BuildingBlock: TEMPAE_clean_linker_10, # of connection points: 2
#     Edge 46, Type (0, 0), BuildingBlock: TEMPAE_clean_linker_10, # of connection points: 2
#     Edge 47, Type (0, 0), BuildingBlock: TEMPAE_clean_linker_10, # of connection points: 2
#     Edge 48, Type (0, 0), BuildingBlock: TEMPAE_clean_linker_10, # of connection points: 2
#     Edge 49, Type (0, 0), BuildingBlock: TEMPAE_clean_linker_10, # of connection points: 2
#     Edge 50, Type (0, 0), BuildingBlock: TEMPAE_clean_linker_10, # of connection points: 2
#     Edge 51, Type (0, 0), BuildingBlock: TEMPAE_clean_linker_10, # of connection points: 2
#     Edge 52, Type (0, 0), BuildingBlock: TEMPAE_clean_linker_10, # of connection points: 2
#     Edge 53, Type (0, 0), BuildingBlock: TEMPAE_clean_linker_10, # of connection points: 2
#     Edge 54, Type (0, 0), BuildingBlock: TEMPAE_clean_linker_10, # of connection points: 2
#     Edge 55, Type (0, 0), BuildingBlock: TEMPAE_clean_linker_10, # of connection points: 2
# Relax obj value: 0.039
# Max RMSD: 0.074
# Mean RMSD: 0.074
data_MOF--net-yfy--node1-BEQFEK_clean_sbu_0--edge1-TEMPAE_clean_linker_10
_symmetry_space_group_name_H-M    P1
_symmetry_Int_Tables_number       1
_symmetry_cell_setting            triclinic
loop_
_symmetry_equiv_pos_as_xyz
'x, y, z'
_cell_length_a     48.490387
_cell_length_b     48.501444
_cell_length_c     44.352262
_cell_angle_alpha  90.000898
_cell_angle_beta   89.990085
_cell_angle_gamma 90.004482
loop_
_atom_site_label
_atom_site_type_symbol
_atom_site_fract_x
_atom_site_fract_y
_atom_site_fract_z
_atom_type_partial_charge
Co0 Co 0.12187 0.29077 0.33404 0.0
Co1 Co 0.08058 0.34045 0.32657 0.0
C2 C 0.0639 0.28347 0.30981 0.0
O3 O 0.08741 0.27406 0.31749 0.0
O4 O 0.05867 0.30912 0.31137 0.0
C5 C 0.15389 0.2487 0.30695 0.0
O6 O 0.13913 0.25609 0.28346 0.0
C7 C 0.04298 0.38248 0.30019 0.0
C8 C 0.04675 0.41574 0.33399 0.0
C9 C 0.034 0.40901 0.30703 0.0
N10 N 0.06054 0.37422 0.32193 0.0
N11 N 0.06256 0.3942 0.34207 0.0
C12 C 0.03439 0.36495 0.27402 0.0
H13 H 0.03602 0.34283 0.27956 0.0
H14 H 0.04824 0.36913 0.25464 0.0
H15 H 0.01286 0.3696 0.26726 0.0
C16 C 0.1585 0.33051 0.3016 0.0
N17 N 0.13361 0.32272 0.31232 0.0
N18 N 0.11598 0.34303 0.30837 0.0
C19 C 0.12896 0.36417 0.29463 0.0
C20 C 0.15642 0.3571 0.29007 0.0
C21 C 0.18435 0.31402 0.3054 0.0
H22 H 0.18404 0.30309 0.32735 0.0
H23 H 0.18553 0.29841 0.28716 0.0
H24 H 0.20295 0.3273 0.30419 0.0
O25 O 0.11419 0.30028 0.37696 0.0
O26 O 0.08449 0.33466 0.37052 0.0
H27 H 0.11125 0.40291 0.30699 0.0
H28 H 0.1283 0.40316 0.27073 0.0
C29 C 0.11533 0.39078 0.28627 0.0
H30 H 0.0954 0.38646 0.27505 0.0
H31 H 0.07482 0.39313 0.36136 0.0
O32 O 0.15038 0.26134 0.3318 0.0
C33 C 0.09789 0.31845 0.38772 0.0
Co34 Co 0.85906 0.12275 0.33486 0.0
Co35 Co 0.80947 0.08168 0.32791 0.0
C36 C 0.86565 0.06509 0.30917 0.0
O37 O 0.87513 0.08834 0.3176 0.0
O38 O 0.83998 0.05985 0.31068 0.0
C39 C 0.90162 0.15406 0.30754 0.0
O40 O 0.89432 0.13909 0.28418 0.0
C41 C 0.76777 0.04561 0.30068 0.0
C42 C 0.73818 0.04052 0.33818 0.0
C43 C 0.74365 0.03242 0.3089 0.0
N44 N 0.77628 0.06104 0.32405 0.0
N45 N 0.75845 0.05796 0.34638 0.0
C46 C 0.78338 0.04229 0.27183 0.0
H47 H 0.79859 0.0592 0.26904 0.0
H48 H 0.76897 0.04198 0.2524 0.0
H49 H 0.7945 0.02229 0.27225 0.0
C50 C 0.81901 0.15972 0.30345 0.0
N51 N 0.82676 0.13478 0.31399 0.0
N52 N 0.80622 0.11733 0.3105 0.0
C53 C 0.78487 0.13051 0.29739 0.0
C54 C 0.79216 0.1579 0.29258 0.0
C55 C 0.83597 0.18534 0.30663 0.0
H56 H 0.84719 0.18507 0.32841 0.0
H57 H 0.85137 0.18604 0.28815 0.0
H58 H 0.82298 0.20414 0.30542 0.0
O59 O 0.85042 0.1149 0.37796 0.0
O60 O 0.81639 0.08482 0.37164 0.0
H61 H 0.74732 0.11093 0.3109 0.0
H62 H 0.7444 0.13072 0.27639 0.0
C63 C 0.75798 0.11702 0.28979 0.0
H64 H 0.76195 0.09815 0.27647 0.0
H65 H 0.7604 0.06738 0.36743 0.0
O66 O 0.88869 0.15101 0.33228 0.0
C67 C 0.83265 0.0982 0.38878 0.0
Co68 Co 0.02818 0.86232 0.33561 0.0
Co69 Co 0.06826 0.81201 0.3281 0.0
C70 C 0.08636 0.86801 0.31064 0.0
O71 O 0.06314 0.87781 0.31883 0.0
O72 O 0.09115 0.84224 0.31192 0.0
C73 C 0.99703 0.90476 0.30801 0.0
O74 O 0.01162 0.89685 0.28458 0.0
C75 C 0.10579 0.77041 0.30288 0.0
C76 C 0.09811 0.73491 0.33301 0.0
C77 C 0.11321 0.7432 0.30809 0.0
N78 N 0.08717 0.77784 0.32379 0.0
N79 N 0.08285 0.75662 0.34188 0.0
C80 C 0.11428 0.78834 0.27704 0.0
H81 H 0.09735 0.80274 0.27107 0.0
H82 H 0.11983 0.77575 0.25705 0.0
H83 H 0.13252 0.80069 0.28381 0.0
C84 C 0.99056 0.8234 0.30333 0.0
N85 N 0.01558 0.83066 0.31411 0.0
N86 N 0.03285 0.81009 0.30992 0.0
C87 C 0.01954 0.78935 0.29585 0.0
C88 C 0.9922 0.79691 0.29146 0.0
C89 C 0.965 0.84032 0.30723 0.0
H90 H 0.96566 0.85144 0.32907 0.0
H91 H 0.9639 0.85578 0.28883 0.0
H92 H 0.9462 0.8273 0.30633 0.0
O93 O 0.03551 0.85294 0.37861 0.0
O94 O 0.06476 0.81823 0.37197 0.0
H95 H 0.03547 0.74956 0.307 0.0
H96 H 0.02002 0.75147 0.27002 0.0
C97 C 0.03275 0.76272 0.28677 0.0
H98 H 0.05327 0.76681 0.27678 0.0
H99 H 0.06911 0.75684 0.35999 0.0
O100 O 1.00041 0.89238 0.33304 0.0
C101 C 0.05165 0.83459 0.38927 0.0
Co102 Co 0.29051 0.02963 0.33529 0.0
Co103 Co 0.3405 0.07016 0.32779 0.0
C104 C 0.28449 0.08754 0.30963 0.0
O105 O 0.27483 0.06431 0.31797 0.0
O106 O 0.31021 0.09257 0.31105 0.0
C107 C 0.24822 0.99788 0.30799 0.0
O108 O 0.25598 0.01227 0.28436 0.0
C109 C 0.38196 0.10791 0.30262 0.0
C110 C 0.41748 0.10037 0.33275 0.0
C111 C 0.40915 0.11541 0.30782 0.0
N112 N 0.37457 0.08929 0.32355 0.0
N113 N 0.3958 0.08506 0.34164 0.0
C114 C 0.36402 0.11629 0.27674 0.0
H115 H 0.34979 0.09925 0.27068 0.0
H116 H 0.37662 0.12198 0.2568 0.0
H117 H 0.35149 0.1344 0.28351 0.0
C118 C 0.33003 0.99216 0.30352 0.0
N119 N 0.32249 0.01713 0.31422 0.0
N120 N 0.34287 0.03461 0.30998 0.0
C121 C 0.36374 0.02152 0.29588 0.0
C122 C 0.35651 0.99407 0.2916 0.0
C123 C 0.31331 0.96647 0.30738 0.0
H124 H 0.30193 0.96715 0.32906 0.0
H125 H 0.29807 0.96511 0.28878 0.0
H126 H 0.32653 0.94781 0.3068 0.0
O127 O 0.29941 0.03758 0.37828 0.0
O128 O 0.33381 0.0672 0.37167 0.0
H129 H 0.40347 0.03802 0.30633 0.0
H130 H 0.40122 0.0226 0.26935 0.0
C131 C 0.39004 0.03512 0.28634 0.0
H132 H 0.3855 0.05558 0.27645 0.0
H133 H 0.39564 0.07132 0.35975 0.0
O134 O 0.26066 1.00157 0.33293 0.0
C135 C 0.31738 0.05414 0.38894 0.0
Co136 Co 0.12196 0.85996 0.66513 0.0
Co137 Co 0.08039 0.81059 0.67277 0.0
C138 C 0.06426 0.8676 0.68991 0.0
O139 O 0.08777 0.87684 0.68201 0.0
O140 O 0.05881 0.842 0.68833 0.0
C141 C 0.15438 0.90165 0.69212 0.0
O142 O 0.1398 0.89416 0.71572 0.0
C143 C 0.04256 0.76875 0.69911 0.0
C144 C 0.04651 0.73531 0.66554 0.0
C145 C 0.03365 0.74218 0.69239 0.0
N146 N 0.06023 0.77691 0.67742 0.0
N147 N 0.06234 0.75684 0.6574 0.0
C148 C 0.03382 0.78642 0.72511 0.0
H149 H 0.04789 0.78275 0.74442 0.0
H150 H 0.01242 0.78146 0.73214 0.0
H151 H 0.03494 0.80848 0.71921 0.0
C152 C 0.15847 0.82005 0.6974 0.0
N153 N 0.13362 0.82794 0.68669 0.0
N154 N 0.11588 0.80773 0.69072 0.0
C155 C 0.12875 0.78656 0.70452 0.0
C156 C 0.15625 0.79351 0.70903 0.0
C157 C 0.18441 0.8364 0.69356 0.0
H158 H 0.18409 0.84742 0.67166 0.0
H159 H 0.18576 0.85191 0.71188 0.0
H160 H 0.20293 0.82299 0.69461 0.0
O161 O 0.11399 0.85065 0.62227 0.0
O162 O 0.08399 0.81654 0.62881 0.0
H163 H 0.11085 0.74783 0.69247 0.0
H164 H 0.12785 0.74775 0.72874 0.0
C165 C 0.11497 0.76009 0.71309 0.0
H166 H 0.09504 0.76459 0.72424 0.0
H167 H 0.07471 0.75781 0.63818 0.0
O168 O 0.15061 0.88919 0.66722 0.0
C169 C 0.09743 0.83269 0.61157 0.0
Co170 Co 0.29104 0.12127 0.66677 0.0
Co171 Co 0.34145 0.08057 0.67159 0.0
C172 C 0.28459 0.0631 0.68944 0.0
O173 O 0.27472 0.08665 0.68279 0.0
O174 O 0.31025 0.05819 0.68685 0.0
C175 C 0.24588 0.15069 0.69219 0.0
O176 O 0.25021 0.1332 0.71431 0.0
C177 C 0.38364 0.04515 0.70003 0.0
C178 C 0.414 0.04136 0.66312 0.0
C179 C 0.40882 0.03306 0.6925 0.0
N180 N 0.37474 0.05991 0.67625 0.0
N181 N 0.39299 0.05753 0.6543 0.0
C182 C 0.36753 0.0419 0.72861 0.0
H183 H 0.34569 0.04765 0.72528 0.0
H184 H 0.37616 0.05585 0.74604 0.0
H185 H 0.36882 0.02035 0.73692 0.0
C186 C 0.3301 0.15689 0.70157 0.0
N187 N 0.32305 0.13263 0.68878 0.0
N188 N 0.34426 0.11575 0.69022 0.0
C189 C 0.36564 0.12887 0.70335 0.0
C190 C 0.35741 0.1554 0.71124 0.0
C191 C 0.31082 0.18083 0.70463 0.0
H192 H 0.30411 0.18767 0.68191 0.0
H193 H 0.29227 0.17416 0.71724 0.0
H194 H 0.32027 0.19831 0.71695 0.0
O195 O 0.30036 0.11419 0.62336 0.0
O196 O 0.33543 0.08502 0.62805 0.0
H197 H 0.39957 0.10775 0.68281 0.0
H198 H 0.40987 0.13351 0.70958 0.0
C199 C 0.3943 0.11739 0.7047 0.0
H200 H 0.39528 0.10134 0.72246 0.0
H201 H 0.39101 0.06684 0.6332 0.0
O202 O 0.26151 0.14984 0.66914 0.0
C203 C 0.31861 0.09849 0.61167 0.0
Co204 Co 0.028 0.28999 0.66343 0.0
Co205 Co 0.06885 0.33967 0.67152 0.0
C206 C 0.08612 0.2833 0.6884 0.0
O207 O 0.06279 0.27396 0.67996 0.0
O208 O 0.09131 0.30901 0.68759 0.0
C209 C 0.99629 0.24782 0.69078 0.0
O210 O 0.01087 0.25556 0.71427 0.0
C211 C 0.10685 0.38081 0.69707 0.0
C212 C 0.09945 0.41652 0.66718 0.0
C213 C 0.11448 0.408 0.69205 0.0
N214 N 0.08817 0.37362 0.6761 0.0
N215 N 0.08403 0.39498 0.65816 0.0
C216 C 0.11518 0.36266 0.72278 0.0
H217 H 0.09815 0.34835 0.72864 0.0
H218 H 0.12082 0.3751 0.74286 0.0
H219 H 0.13334 0.35022 0.71592 0.0
C220 C 0.99091 0.32911 0.69609 0.0
N221 N 0.01584 0.32164 0.68522 0.0
N222 N 0.03337 0.34196 0.68961 0.0
C223 C 0.02031 0.36274 0.70388 0.0
C224 C 0.99288 0.35547 0.70824 0.0
C225 C 0.96515 0.31253 0.69205 0.0
H226 H 0.96569 0.30151 0.67015 0.0
H227 H 0.96381 0.297 0.71037 0.0
H228 H 0.94652 0.32578 0.693 0.0
O229 O 0.0355 0.29958 0.62055 0.0
O230 O 0.06544 0.33365 0.62753 0.0
H231 H 0.03673 0.40242 0.69313 0.0
H232 H 0.02122 0.40041 0.73007 0.0
C233 C 0.03383 0.38914 0.71322 0.0
H234 H 0.0543 0.38472 0.72318 0.0
H235 H 0.07029 0.39498 0.64005 0.0
O236 O 0.99988 0.2602 0.66578 0.0
C237 C 0.05206 0.31765 0.61007 0.0
Co238 Co 0.86002 0.02861 0.66469 0.0
Co239 Co 0.80958 0.06855 0.67212 0.0
C240 C 0.86552 0.08676 0.68971 0.0
O241 O 0.87533 0.06356 0.68153 0.0
O242 O 0.83974 0.09155 0.6884 0.0
C243 C 0.90302 0.99801 0.69196 0.0
O244 O 0.89535 0.01275 0.71537 0.0
C245 C 0.76791 0.10646 0.69667 0.0
C246 C 0.73194 0.0972 0.66776 0.0
C247 C 0.7405 0.11326 0.69181 0.0
N248 N 0.77525 0.08725 0.67637 0.0
N249 N 0.75374 0.082 0.65898 0.0
C250 C 0.78617 0.11619 0.72169 0.0
H251 H 0.80036 0.09943 0.7287 0.0
H252 H 0.77385 0.12312 0.74138 0.0
H253 H 0.79874 0.13378 0.7135 0.0
C254 C 0.82123 0.99084 0.69684 0.0
N255 N 0.82838 0.01589 0.68607 0.0
N256 N 0.80776 0.03309 0.69028 0.0
C257 C 0.78709 0.0197 0.7044 0.0
C258 C 0.79474 0.99238 0.70876 0.0
C259 C 0.83831 0.96539 0.69295 0.0
H260 H 0.84937 0.96608 0.67108 0.0
H261 H 0.85383 0.96443 0.71129 0.0
H262 H 0.82541 0.94651 0.69393 0.0
O263 O 0.85077 0.03602 0.62175 0.0
O264 O 0.816 0.06524 0.62822 0.0
H265 H 0.74693 0.03495 0.69371 0.0
H266 H 0.74966 0.0203 0.73098 0.0
C267 C 0.76048 0.03283 0.71371 0.0
H268 H 0.7645 0.0536 0.72311 0.0
H269 H 0.75381 0.06763 0.64147 0.0
O270 O 0.89022 1.00103 0.66714 0.0
C271 C 0.8325 0.0522 0.61101 0.0
Co272 Co 0.62227 0.78929 0.83472 0.0
Co273 Co 0.58231 0.8399 0.82798 0.0
C274 C 0.56396 0.78402 0.81009 0.0
O275 O 0.58721 0.77403 0.81792 0.0
O276 O 0.55928 0.80979 0.81173 0.0
C277 C 0.65356 0.74659 0.80724 0.0
O278 O 0.63903 0.7542 0.78367 0.0
C279 C 0.54432 0.8817 0.80377 0.0
C280 C 0.55326 0.91735 0.83326 0.0
C281 C 0.53733 0.90902 0.80901 0.0
N282 N 0.5635 0.87422 0.82405 0.0
N283 N 0.56856 0.89554 0.84178 0.0
C284 C 0.53478 0.86369 0.77845 0.0
H285 H 0.55152 0.84941 0.77158 0.0
H286 H 0.52822 0.87621 0.75877 0.0
H287 H 0.51697 0.85122 0.78624 0.0
C288 C 0.6599 0.82837 0.80267 0.0
N289 N 0.63489 0.82112 0.8135 0.0
N290 N 0.61768 0.84179 0.80963 0.0
C291 C 0.63101 0.86258 0.79568 0.0
C292 C 0.65831 0.85497 0.79108 0.0
C293 C 0.68539 0.8113 0.80625 0.0
H294 H 0.68485 0.80012 0.82806 0.0
H295 H 0.68625 0.79589 0.78779 0.0
H296 H 0.70426 0.82422 0.80522 0.0
O297 O 0.61497 0.79833 0.87778 0.0
O298 O 0.58592 0.8333 0.87179 0.0
H299 H 0.6157 0.90255 0.80709 0.0
H300 H 0.6304 0.90041 0.76978 0.0
C301 C 0.61787 0.88931 0.78685 0.0
H302 H 0.59711 0.88541 0.77735 0.0
H303 H 0.58285 0.89533 0.85937 0.0
O304 O 0.65006 0.7592 0.83211 0.0
C305 C 0.59898 0.81664 0.88878 0.0
Co306 Co 0.35967 0.6226 0.83555 0.0
Co307 Co 0.31057 0.58066 0.82737 0.0
C308 C 0.36794 0.56459 0.81175 0.0
O309 O 0.37689 0.58822 0.81961 0.0
O310 O 0.34233 0.55901 0.81271 0.0
C311 C 0.40156 0.65479 0.80853 0.0
O312 O 0.39416 0.63996 0.78509 0.0
C313 C 0.26917 0.5425 0.80061 0.0
C314 C 0.23556 0.54601 0.83405 0.0
C315 C 0.24269 0.53321 0.80723 0.0
N316 N 0.27703 0.56026 0.82235 0.0
N317 N 0.25684 0.56213 0.84226 0.0
C318 C 0.28705 0.53403 0.77468 0.0
H319 H 0.2827 0.54759 0.7551 0.0
H320 H 0.28285 0.51235 0.76813 0.0
H321 H 0.30909 0.53617 0.78035 0.0
C322 C 0.32004 0.65861 0.80233 0.0
N323 N 0.32794 0.63384 0.81322 0.0
N324 N 0.30787 0.61598 0.80897 0.0
C325 C 0.28679 0.6287 0.79485 0.0
C326 C 0.29364 0.65622 0.79034 0.0
C327 C 0.33615 0.68466 0.80645 0.0
H328 H 0.34692 0.68439 0.8285 0.0
H329 H 0.35188 0.68616 0.78835 0.0
H330 H 0.32262 0.70308 0.80525 0.0
O331 O 0.3496 0.61513 0.87832 0.0
O332 O 0.31577 0.58486 0.87141 0.0
H333 H 0.24806 0.61067 0.80672 0.0
H334 H 0.2481 0.6276 0.77039 0.0
C335 C 0.26041 0.6148 0.78616 0.0
H336 H 0.26505 0.59487 0.7751 0.0
H337 H 0.25759 0.57448 0.86151 0.0
O338 O 0.38896 0.65129 0.83342 0.0
C339 C 0.3315 0.5986 0.88884 0.0
Co340 Co 0.52962 0.35975 0.83523 0.0
Co341 Co 0.57048 0.30956 0.83011 0.0
C342 C 0.5875 0.36617 0.8114 0.0
O343 O 0.56406 0.37595 0.81862 0.0
O344 O 0.59255 0.34054 0.81389 0.0
C345 C 0.50043 0.40477 0.80961 0.0
O346 O 0.51785 0.4001 0.78749 0.0
C347 C 0.60545 0.26705 0.80172 0.0
C348 C 0.60997 0.23726 0.83908 0.0
C349 C 0.61771 0.24202 0.80943 0.0
N350 N 0.5911 0.27628 0.82565 0.0
N351 N 0.59391 0.25837 0.84787 0.0
C352 C 0.60818 0.28273 0.77279 0.0
H353 H 0.60251 0.30463 0.77587 0.0
H354 H 0.5939 0.27388 0.75582 0.0
H355 H 0.62957 0.2813 0.76403 0.0
C356 C 0.49368 0.32038 0.80126 0.0
N357 N 0.51806 0.32757 0.81369 0.0
N358 N 0.53499 0.3064 0.81222 0.0
C359 C 0.52178 0.2849 0.79944 0.0
C360 C 0.49515 0.29302 0.79179 0.0
C361 C 0.46971 0.33962 0.79827 0.0
H362 H 0.47632 0.35818 0.78564 0.0
H363 H 0.45221 0.33014 0.786 0.0
H364 H 0.4629 0.34632 0.82101 0.0
O365 O 0.53713 0.35085 0.87863 0.0
O366 O 0.56685 0.31628 0.87362 0.0
H367 H 0.51713 0.24063 0.79382 0.0
H368 H 0.549 0.25516 0.77997 0.0
C369 C 0.53332 0.25627 0.79813 0.0
H370 H 0.54342 0.25122 0.81982 0.0
H371 H 0.58498 0.26065 0.86913 0.0
O372 O 0.50114 0.3893 0.83279 0.0
C373 C 0.55341 0.33301 0.89012 0.0
Co374 Co 0.79083 0.52803 0.83604 0.0
Co375 Co 0.84084 0.56837 0.82839 0.0
C376 C 0.78477 0.5859 0.81046 0.0
O377 O 0.77514 0.56268 0.81885 0.0
O378 O 0.8105 0.59092 0.81178 0.0
C379 C 0.74863 0.49649 0.80868 0.0
O380 O 0.75654 0.51088 0.78511 0.0
C381 C 0.88222 0.60602 0.80297 0.0
C382 C 0.91778 0.59871 0.83312 0.0
C383 C 0.90938 0.61363 0.80813 0.0
N384 N 0.8749 0.58747 0.824 0.0
N385 N 0.89616 0.58337 0.8421 0.0
C386 C 0.86422 0.61426 0.77709 0.0
H387 H 0.85005 0.59715 0.77111 0.0
H388 H 0.87678 0.61994 0.75711 0.0
H389 H 0.85163 0.63234 0.78382 0.0
C390 C 0.83 0.49044 0.80405 0.0
N391 N 0.82263 0.51545 0.81478 0.0
N392 N 0.84312 0.5328 0.81058 0.0
C393 C 0.86395 0.51955 0.79658 0.0
C394 C 0.8565 0.49218 0.7922 0.0
C395 C 0.81313 0.46484 0.80787 0.0
H396 H 0.80194 0.46546 0.82966 0.0
H397 H 0.79774 0.46371 0.7894 0.0
H398 H 0.82621 0.44609 0.807 0.0
O399 O 0.79994 0.53581 0.87899 0.0
O400 O 0.8344 0.56534 0.87229 0.0
H401 H 0.90365 0.53576 0.80766 0.0
H402 H 0.90186 0.52012 0.77077 0.0
C403 C 0.89052 0.53286 0.78744 0.0
H404 H 0.88632 0.55331 0.77733 0.0
H405 H 0.89603 0.56971 0.86028 0.0
O406 O 0.76095 0.50012 0.83369 0.0
C407 C 0.81803 0.55225 0.88961 0.0
Co408 Co 0.62164 0.36261 0.16674 0.0
Co409 Co 0.58046 0.31276 0.17371 0.0
C410 C 0.56373 0.36961 0.19102 0.0
O411 O 0.58725 0.37916 0.18361 0.0
O412 O 0.55854 0.34398 0.18905 0.0
C413 C 0.65404 0.40439 0.19397 0.0
O414 O 0.63953 0.39686 0.2176 0.0
C415 C 0.54275 0.27064 0.1997 0.0
C416 C 0.54699 0.23731 0.16604 0.0
C417 C 0.53398 0.24405 0.19285 0.0
N418 N 0.56047 0.27893 0.17814 0.0
N419 N 0.56276 0.25893 0.15806 0.0
C420 C 0.53382 0.28818 0.22573 0.0
H421 H 0.53501 0.31027 0.21999 0.0
H422 H 0.54774 0.2844 0.24515 0.0
H423 H 0.51237 0.28318 0.23254 0.0
C424 C 0.6583 0.32267 0.1989 0.0
N425 N 0.63345 0.33049 0.18812 0.0
N426 N 0.6158 0.31017 0.19199 0.0
C427 C 0.6287 0.28904 0.20581 0.0
C428 C 0.65616 0.29608 0.21044 0.0
C429 C 0.68418 0.33915 0.19521 0.0
H430 H 0.68381 0.35036 0.17343 0.0
H431 H 0.68548 0.3545 0.2137 0.0
H432 H 0.70274 0.3258 0.19611 0.0
O433 O 0.61376 0.35352 0.12377 0.0
O434 O 0.58443 0.31875 0.12982 0.0
H435 H 0.61106 0.25018 0.19378 0.0
H436 H 0.62772 0.25034 0.23025 0.0
C437 C 0.61494 0.26255 0.21438 0.0
H438 H 0.59491 0.26702 0.2253 0.0
H439 H 0.5752 0.26001 0.1389 0.0
O440 O 0.6502 0.39198 0.16904 0.0
C441 C 0.59765 0.33528 0.11281 0.0
Co442 Co 0.79027 0.62339 0.16527 0.0
Co443 Co 0.84072 0.58344 0.17269 0.0
C444 C 0.78481 0.56541 0.19071 0.0
O445 O 0.77494 0.58857 0.18246 0.0
O446 O 0.81058 0.56062 0.18923 0.0
C447 C 0.74781 0.65453 0.19287 0.0
O448 O 0.75582 0.64006 0.21634 0.0
C449 C 0.88235 0.54589 0.19784 0.0
C450 C 0.91786 0.55355 0.16772 0.0
C451 C 0.90954 0.53841 0.19258 0.0
N452 N 0.87494 0.56457 0.17699 0.0
N453 N 0.89618 0.56889 0.15891 0.0
C454 C 0.86439 0.53736 0.22365 0.0
H455 H 0.85017 0.55436 0.22983 0.0
H456 H 0.87698 0.53153 0.24355 0.0
H457 H 0.85186 0.51929 0.21673 0.0
C458 C 0.82926 0.66125 0.19708 0.0
N459 N 0.82204 0.63617 0.18644 0.0
N460 N 0.84268 0.61898 0.19059 0.0
C461 C 0.86344 0.6324 0.2045 0.0
C462 C 0.8558 0.65972 0.20883 0.0
C463 C 0.81221 0.68672 0.19322 0.0
H464 H 0.80098 0.68596 0.17146 0.0
H465 H 0.79685 0.68781 0.21172 0.0
H466 H 0.82516 0.70557 0.19397 0.0
O467 O 0.79939 0.61573 0.12228 0.0
O468 O 0.83422 0.5866 0.12882 0.0
H469 H 0.90328 0.61661 0.19332 0.0
H470 H 0.90135 0.63206 0.23029 0.0
C471 C 0.89012 0.61929 0.21355 0.0
H472 H 0.88611 0.59875 0.22355 0.0
H473 H 0.89598 0.58266 0.14083 0.0
O474 O 0.76014 0.65111 0.16782 0.0
C475 C 0.81768 0.59954 0.11157 0.0
Co476 Co 0.52918 0.79137 0.16539 0.0
Co477 Co 0.57016 0.84107 0.17195 0.0
C478 C 0.58679 0.78502 0.19123 0.0
O479 O 0.56355 0.77541 0.18289 0.0
O480 O 0.59197 0.81068 0.18944 0.0
C481 C 0.49771 0.74878 0.19261 0.0
O482 O 0.51276 0.75582 0.21602 0.0
C483 C 0.6059 0.88313 0.19912 0.0
C484 C 0.61179 0.91199 0.16109 0.0
C485 C 0.61939 0.90705 0.19065 0.0
N486 N 0.59081 0.8743 0.17563 0.0
N487 N 0.59435 0.8917 0.153 0.0
C488 C 0.60894 0.86776 0.22817 0.0
H489 H 0.5927 0.85177 0.23034 0.0
H490 H 0.60779 0.88217 0.24754 0.0
H491 H 0.62949 0.8577 0.22872 0.0
C492 C 0.49215 0.83146 0.19667 0.0
N493 N 0.51707 0.82378 0.18601 0.0
N494 N 0.53445 0.84441 0.18925 0.0
C495 C 0.52122 0.86578 0.20227 0.0
C496 C 0.4939 0.85838 0.20734 0.0
C497 C 0.4666 0.81433 0.19391 0.0
H498 H 0.46665 0.80314 0.17211 0.0
H499 H 0.46628 0.7989 0.21237 0.0
H500 H 0.44772 0.82718 0.19547 0.0
O501 O 0.53716 0.79971 0.12224 0.0
O502 O 0.56719 0.83382 0.12827 0.0
H503 H 0.54107 0.9031 0.18846 0.0
H504 H 0.52078 0.90656 0.22257 0.0
C505 C 0.53463 0.89276 0.20964 0.0
H506 H 0.5533 0.88894 0.22336 0.0
H507 H 0.5853 0.8894 0.1318 0.0
O508 O 0.50084 0.76183 0.16796 0.0
C509 C 0.55388 0.81737 0.11128 0.0
Co510 Co 0.35911 0.53002 0.1648 0.0
Co511 Co 0.30956 0.57128 0.17282 0.0
C512 C 0.36662 0.58791 0.18915 0.0
O513 O 0.37588 0.56443 0.18123 0.0
O514 O 0.34096 0.59321 0.1879 0.0
C515 C 0.40131 0.49857 0.19189 0.0
O516 O 0.39364 0.51337 0.21525 0.0
C517 C 0.2677 0.6089 0.19949 0.0
C518 C 0.23417 0.60501 0.16602 0.0
C519 C 0.24112 0.61785 0.19285 0.0
N520 N 0.27579 0.59126 0.17775 0.0
N521 N 0.25565 0.58916 0.15781 0.0
C522 C 0.28543 0.6176 0.22545 0.0
H523 H 0.3075 0.61606 0.21969 0.0
H524 H 0.28146 0.60378 0.24491 0.0
H525 H 0.28076 0.63913 0.23222 0.0
C526 C 0.3197 0.49332 0.19752 0.0
N527 N 0.32737 0.51823 0.18679 0.0
N528 N 0.30709 0.53585 0.191 0.0
C529 C 0.28608 0.52283 0.20495 0.0
C530 C 0.29321 0.49536 0.20937 0.0
C531 C 0.33617 0.4675 0.19343 0.0
H532 H 0.34706 0.46798 0.17145 0.0
H533 H 0.35181 0.46617 0.21162 0.0
H534 H 0.32287 0.4489 0.19448 0.0
O535 O 0.34931 0.53762 0.12198 0.0
O536 O 0.31507 0.56743 0.12879 0.0
H537 H 0.24716 0.54045 0.19313 0.0
H538 H 0.2474 0.5235 0.22945 0.0
C539 C 0.25956 0.53644 0.21368 0.0
H540 H 0.26398 0.55641 0.22476 0.0
H541 H 0.25658 0.57683 0.13855 0.0
O542 O 0.38869 0.50173 0.16698 0.0
C543 C 0.3311 0.55398 0.11141 0.0
C544 C 0.07264 0.33792 0.4321 0.0
C545 C 0.09257 0.31966 0.42068 0.0
C546 C 0.0656 0.33802 0.46276 0.0
C547 C 0.07893 0.31956 0.48267 0.0
C548 C 0.09945 0.30144 0.47152 0.0
C549 C 0.10599 0.30165 0.44063 0.0
C550 C 0.04361 0.35766 0.47377 0.0
C551 C 0.11431 0.28165 0.49217 0.0
C552 C 0.07826 0.33674 0.56616 0.0
C553 C 0.05766 0.31902 0.57718 0.0
C554 C 0.0854 0.33706 0.53553 0.0
C555 C 0.07148 0.3194 0.51524 0.0
C556 C 0.05032 0.30181 0.526 0.0
C557 C 0.04371 0.30177 0.55687 0.0
C558 C 0.1081 0.35608 0.52494 0.0
C559 C 0.03482 0.2829 0.50494 0.0
H560 H 0.06207 0.35193 0.41696 0.0
H561 H 0.12138 0.28746 0.43209 0.0
H562 H 0.02633 0.34587 0.48392 0.0
H563 H 0.0521 0.37123 0.49163 0.0
H564 H 0.03528 0.3708 0.45539 0.0
H565 H 0.13008 0.26925 0.48008 0.0
H566 H 0.12457 0.29318 0.51063 0.0
H567 H 0.09926 0.2674 0.50276 0.0
H568 H 0.08926 0.35014 0.58159 0.0
H569 H 0.02779 0.28801 0.56511 0.0
H570 H 0.10011 0.37029 0.5074 0.0
H571 H 0.12494 0.34387 0.51451 0.0
H572 H 0.1169 0.36856 0.54361 0.0
H573 H 0.02492 0.29509 0.48676 0.0
H574 H 0.01867 0.27078 0.51678 0.0
H575 H 0.04939 0.26837 0.494 0.0
C576 C 0.8493 0.04417 0.55811 0.0
C577 C 0.83149 0.05778 0.57811 0.0
C578 C 0.84959 0.05079 0.52726 0.0
C579 C 0.83179 0.07163 0.51621 0.0
C580 C 0.81359 0.08523 0.5362 0.0
C581 C 0.81358 0.07808 0.56682 0.0
C582 C 0.86907 0.03563 0.50651 0.0
C583 C 0.79431 0.10757 0.52529 0.0
C584 C 0.84943 0.10633 0.4417 0.0
C585 C 0.83174 0.09259 0.42167 0.0
C586 C 0.84962 0.09979 0.47258 0.0
C587 C 0.83182 0.07894 0.48363 0.0
C588 C 0.81376 0.06521 0.46361 0.0
C589 C 0.81386 0.07225 0.43297 0.0
C590 C 0.86897 0.11507 0.49337 0.0
C591 C 0.79448 0.04285 0.47451 0.0
H592 H 0.86321 0.02849 0.56657 0.0
H593 H 0.79977 0.08883 0.58202 0.0
H594 H 0.85728 0.0254 0.48822 0.0
H595 H 0.88341 0.05045 0.49568 0.0
H596 H 0.8814 0.01978 0.51857 0.0
H597 H 0.78151 0.11624 0.54378 0.0
H598 H 0.80634 0.12456 0.5149 0.0
H599 H 0.78039 0.09927 0.50764 0.0
H600 H 0.86331 0.12204 0.43323 0.0
H601 H 0.80012 0.06143 0.41776 0.0
H602 H 0.88333 0.10031 0.50426 0.0
H603 H 0.85708 0.12527 0.5116 0.0
H604 H 0.88126 0.13095 0.48132 0.0
H605 H 0.80651 0.0259 0.48497 0.0
H606 H 0.78176 0.03411 0.456 0.0
H607 H 0.78049 0.05115 0.49209 0.0
C608 C 0.07111 0.81433 0.56739 0.0
C609 C 0.09187 0.83173 0.57866 0.0
C610 C 0.06397 0.81448 0.53676 0.0
C611 C 0.07804 0.83229 0.51674 0.0
C612 C 0.09935 0.84955 0.52777 0.0
C613 C 0.10596 0.84913 0.55862 0.0
C614 C 0.0411 0.7958 0.52589 0.0
C615 C 0.11502 0.86859 0.50699 0.0
C616 C 0.07684 0.81466 0.43341 0.0
C617 C 0.05706 0.83318 0.4222 0.0
C618 C 0.08385 0.8142 0.46406 0.0
C619 C 0.07064 0.83256 0.48418 0.0
C620 C 0.05029 0.85097 0.47322 0.0
C621 C 0.04379 0.85112 0.44233 0.0
C622 C 0.10567 0.79428 0.47486 0.0
C623 C 0.03557 0.87067 0.4941 0.0
H624 H 0.06 0.80083 0.58262 0.0
H625 H 0.122 0.86264 0.56706 0.0
H626 H 0.0244 0.80828 0.5156 0.0
H627 H 0.04899 0.78171 0.50817 0.0
H628 H 0.03216 0.78319 0.54438 0.0
H629 H 0.13125 0.88044 0.51901 0.0
H630 H 0.12486 0.85653 0.48865 0.0
H631 H 0.10058 0.88336 0.49624 0.0
H632 H 0.0873 0.8007 0.41812 0.0
H633 H 0.0285 0.86551 0.43394 0.0
H634 H 0.09703 0.78054 0.49248 0.0
H635 H 0.12301 0.8058 0.48524 0.0
H636 H 0.11396 0.7813 0.45631 0.0
H637 H 0.02515 0.85902 0.51238 0.0
H638 H 0.01996 0.88336 0.48214 0.0
H639 H 0.05072 0.88465 0.50494 0.0
C640 C 0.33771 0.07439 0.56641 0.0
C641 C 0.31927 0.0938 0.57857 0.0
C642 C 0.33741 0.0678 0.53565 0.0
C643 C 0.31838 0.08107 0.51635 0.0
C644 C 0.30008 0.1011 0.52824 0.0
C645 C 0.30067 0.10717 0.55925 0.0
C646 C 0.35724 0.04631 0.52389 0.0
C647 C 0.27972 0.1159 0.50823 0.0
C648 C 0.33532 0.08116 0.43281 0.0
C649 C 0.31818 0.06008 0.42178 0.0
C650 C 0.33531 0.0884 0.46342 0.0
C651 C 0.31793 0.07409 0.48368 0.0
C652 C 0.30078 0.0526 0.47285 0.0
C653 C 0.30103 0.04591 0.44201 0.0
C654 C 0.35385 0.11147 0.47405 0.0
C655 C 0.2822 0.03666 0.49388 0.0
H656 H 0.35218 0.06385 0.58104 0.0
H657 H 0.28634 0.12215 0.56838 0.0
H658 H 0.34561 0.02903 0.51355 0.0
H659 H 0.37047 0.05533 0.50602 0.0
H660 H 0.37074 0.03787 0.54189 0.0
H661 H 0.26724 0.13128 0.52083 0.0
H662 H 0.29078 0.12663 0.48973 0.0
H663 H 0.26555 0.10078 0.49764 0.0
H664 H 0.34859 0.09238 0.41744 0.0
H665 H 0.2877 0.02964 0.43374 0.0
H666 H 0.36862 0.10357 0.49109 0.0
H667 H 0.34138 0.12776 0.48511 0.0
H668 H 0.36574 0.12093 0.4553 0.0
H669 H 0.2947 0.02654 0.51168 0.0
H670 H 0.27005 0.02061 0.48192 0.0
H671 H 0.26771 0.05093 0.50534 0.0
C672 C 0.57405 0.83608 0.93336 0.0
C673 C 0.59365 0.81757 0.92174 0.0
C674 C 0.56712 0.8361 0.96405 0.0
C675 C 0.58022 0.8173 0.98376 0.0
C676 C 0.60034 0.79885 0.97237 0.0
C677 C 0.60677 0.79915 0.94147 0.0
C678 C 0.54556 0.85609 0.97532 0.0
C679 C 0.61494 0.7787 0.99282 0.0
C680 C 0.58058 0.83502 0.06706 0.0
C681 C 0.55959 0.81793 0.07839 0.0
C682 C 0.58759 0.83484 0.03641 0.0
C683 C 0.57314 0.81733 0.01641 0.0
C684 C 0.55169 0.80029 0.02751 0.0
C685 C 0.54522 0.80071 0.05841 0.0
C686 C 0.61064 0.85328 0.02546 0.0
C687 C 0.53564 0.78156 0.00675 0.0
H688 H 0.5637 0.85038 0.91839 0.0
H689 H 0.6219 0.78476 0.93275 0.0
H690 H 0.52825 0.84462 0.98582 0.0
H691 H 0.55451 0.86962 0.99295 0.0
H692 H 0.53718 0.86928 0.95701 0.0
H693 H 0.63024 0.76589 0.98051 0.0
H694 H 0.62573 0.78998 0.01111 0.0
H695 H 0.59968 0.76484 0.00367 0.0
H696 H 0.59193 0.84835 0.08224 0.0
H697 H 0.52901 0.78744 0.06691 0.0
H698 H 0.60275 0.86772 0.00809 0.0
H699 H 0.627 0.84067 0.01472 0.0
H700 H 0.62002 0.8655 0.044 0.0
H701 H 0.52565 0.79388 0.98872 0.0
H702 H 0.51947 0.7697 0.01887 0.0
H703 H 0.54983 0.76681 0.99558 0.0
C704 C 0.34739 0.60723 0.94197 0.0
C705 C 0.32986 0.59345 0.9218 0.0
C706 C 0.34726 0.60085 0.97288 0.0
C707 C 0.3293 0.58011 0.98386 0.0
C708 C 0.31128 0.56644 0.96374 0.0
C709 C 0.31171 0.57333 0.93303 0.0
C710 C 0.36659 0.61606 0.99376 0.0
C711 C 0.29183 0.54421 0.97455 0.0
C712 C 0.34715 0.54545 0.05832 0.0
C713 C 0.32963 0.55926 0.07847 0.0
C714 C 0.34713 0.55188 0.02742 0.0
C715 C 0.32927 0.57271 0.01643 0.0
C716 C 0.31127 0.58643 0.03654 0.0
C717 C 0.31159 0.57948 0.06723 0.0
C718 C 0.36641 0.5366 0.00655 0.0
C719 C 0.29195 0.60876 0.02572 0.0
H720 H 0.36148 0.62278 0.93357 0.0
H721 H 0.29807 0.56249 0.91772 0.0
H722 H 0.3547 0.62614 0.01208 0.0
H723 H 0.381 0.60128 0.00453 0.0
H724 H 0.37884 0.63203 0.98181 0.0
H725 H 0.27894 0.53573 0.95604 0.0
H726 H 0.30375 0.52708 0.9848 0.0
H727 H 0.278 0.55252 0.99229 0.0
H728 H 0.36115 0.52982 0.06672 0.0
H729 H 0.29796 0.59035 0.08253 0.0
H730 H 0.38087 0.55134 0.99577 0.0
H731 H 0.3545 0.52654 0.98825 0.0
H732 H 0.37862 0.5206 0.01852 0.0
H733 H 0.30396 0.62582 0.01547 0.0
H734 H 0.2791 0.61731 0.04423 0.0
H735 H 0.27809 0.60052 0.00798 0.0
C736 C 0.5426 0.34824 0.94309 0.0
C737 C 0.5588 0.33278 0.92307 0.0
C738 C 0.54872 0.3489 0.97409 0.0
C739 C 0.57176 0.33405 0.98519 0.0
C740 C 0.58812 0.31841 0.9651 0.0
C741 C 0.58135 0.31782 0.9344 0.0
C742 C 0.53058 0.36549 0.99497 0.0
C743 C 0.61298 0.30247 0.97598 0.0
C744 C 0.60343 0.35436 0.06048 0.0
C745 C 0.59235 0.33433 0.07985 0.0
C746 C 0.59678 0.35463 0.02964 0.0
C747 C 0.57863 0.33442 0.01789 0.0
C748 C 0.56765 0.31398 0.03722 0.0
C749 C 0.57466 0.31416 0.06789 0.0
C750 C 0.60906 0.37662 0.00963 0.0
C751 C 0.54834 0.29199 0.02554 0.0
H752 H 0.52517 0.35984 0.93456 0.0
H753 H 0.59418 0.30596 0.91916 0.0
H754 H 0.52188 0.35191 0.01272 0.0
H755 H 0.54301 0.38154 0.0065 0.0
H756 H 0.51331 0.37568 0.98286 0.0
H757 H 0.62375 0.29157 0.95736 0.0
H758 H 0.62781 0.31667 0.98701 0.0
H759 H 0.60662 0.28705 0.99309 0.0
H760 H 0.617 0.37009 0.06948 0.0
H761 H 0.56597 0.29855 0.08257 0.0
H762 H 0.59237 0.38884 0.99895 0.0
H763 H 0.6211 0.36691 0.9912 0.0
H764 H 0.62279 0.39088 0.02224 0.0
H765 H 0.53001 0.30172 0.01501 0.0
H766 H 0.54127 0.27781 0.04362 0.0
H767 H 0.55877 0.27966 0.00782 0.0
C768 C 0.80071 0.60707 0.05863 0.0
C769 C 0.81875 0.59385 0.07869 0.0
C770 C 0.80054 0.60032 0.0278 0.0
C771 C 0.81872 0.57977 0.01683 0.0
C772 C 0.83717 0.56659 0.03687 0.0
C773 C 0.83704 0.57384 0.06747 0.0
C774 C 0.78078 0.61503 0.00699 0.0
C775 C 0.85686 0.54456 0.02607 0.0
C776 C 0.80158 0.54421 0.94266 0.0
C777 C 0.81902 0.55807 0.92247 0.0
C778 C 0.80132 0.55099 0.97348 0.0
C779 C 0.81876 0.57223 0.9843 0.0
C780 C 0.83657 0.5861 0.96411 0.0
C781 C 0.83657 0.57878 0.93353 0.0
C782 C 0.78227 0.53554 0.99445 0.0
C783 C 0.85544 0.6089 0.97475 0.0
H784 H 0.7865 0.62252 0.06703 0.0
H785 H 0.85106 0.56342 0.0827 0.0
H786 H 0.79236 0.62532 0.98858 0.0
H787 H 0.76666 0.5999 0.99633 0.0
H788 H 0.76822 0.63075 0.01896 0.0
H789 H 0.86985 0.53624 0.04458 0.0
H790 H 0.84513 0.52728 0.01583 0.0
H791 H 0.87058 0.55302 0.00833 0.0
H792 H 0.78795 0.5282 0.93438 0.0
H793 H 0.8501 0.58973 0.91818 0.0
H794 H 0.76767 0.55012 0.00525 0.0
H795 H 0.79436 0.52568 0.01275 0.0
H796 H 0.77023 0.51935 0.98257 0.0
H797 H 0.84312 0.62569 0.98509 0.0
H798 H 0.86797 0.61773 0.95613 0.0
H799 H 0.86961 0.60099 0.99237 0.0
C800 C 0.1782 0.21237 0.27679 0.0
C801 C 0.17383 0.2256 0.30455 0.0
C802 C 0.19634 0.1899 0.27433 0.0
C803 C 0.21039 0.18034 0.30026 0.0
C804 C 0.20632 0.19379 0.32827 0.0
C805 C 0.18815 0.21628 0.33006 0.0
C806 C 0.20025 0.1762 0.24406 0.0
C807 C 0.2209 0.1842 0.35647 0.0
C808 C 0.23661 0.10671 0.3057 0.0
C809 C 0.26517 0.11034 0.30223 0.0
C810 C 0.21842 0.12918 0.30395 0.0
C811 C 0.22897 0.15593 0.29843 0.0
C812 C 0.25754 0.1595 0.29314 0.0
C813 C 0.27529 0.13669 0.29512 0.0
C814 C 0.18806 0.12448 0.3096 0.0
C815 C 0.26956 0.18763 0.28686 0.0
H816 H 0.1673 0.21946 0.25692 0.0
H817 H 0.18494 0.22636 0.35158 0.0
H818 H 0.22242 0.17615 0.23786 0.0
H819 H 0.1935 0.15437 0.24529 0.0
H820 H 0.18845 0.18664 0.22588 0.0
H821 H 0.21581 0.19712 0.37639 0.0
H822 H 0.21511 0.16254 0.36148 0.0
H823 H 0.24355 0.18466 0.35299 0.0
H824 H 0.22851 0.08648 0.31111 0.0
H825 H 0.29727 0.13975 0.29224 0.0
H826 H 0.1756 0.13384 0.2913 0.0
H827 H 0.18196 0.13466 0.33099 0.0
H828 H 0.18285 0.10222 0.31119 0.0
H829 H 0.25799 0.19797 0.26848 0.0
H830 H 0.29169 0.18657 0.28043 0.0
H831 H 0.26764 0.20073 0.30726 0.0
C832 C 0.93892 0.17718 0.27767 0.0
C833 C 0.92508 0.17359 0.3052 0.0
C834 C 0.96172 0.19493 0.27531 0.0
C835 C 0.97096 0.20939 0.30111 0.0
C836 C 0.95693 0.20605 0.32889 0.0
C837 C 0.93414 0.18825 0.33059 0.0
C838 C 0.97604 0.19806 0.24527 0.0
C839 C 0.96617 0.2211 0.35695 0.0
C840 C 0.04462 0.23554 0.30719 0.0
C841 C 0.04111 0.264 0.30285 0.0
C842 C 0.02211 0.21737 0.3056 0.0
C843 C 0.99547 0.22785 0.29931 0.0
C844 C 0.99205 0.25629 0.29322 0.0
C845 C 0.01487 0.27402 0.29511 0.0
C846 C 0.02663 0.18715 0.31216 0.0
C847 C 0.96403 0.26822 0.2861 0.0
H848 H 0.93205 0.16598 0.2579 0.0
H849 H 0.9236 0.18563 0.35195 0.0
H850 H 0.97626 0.22006 0.23843 0.0
H851 H 0.99784 0.19133 0.24722 0.0
H852 H 0.96594 0.18583 0.2272 0.0
H853 H 0.95292 0.21642 0.37674 0.0
H854 H 0.98773 0.21533 0.36247 0.0
H855 H 0.96584 0.24368 0.35298 0.0
H856 H 0.06476 0.22754 0.31316 0.0
H857 H 0.0119 0.29592 0.29155 0.0
H858 H 0.01754 0.1743 0.29403 0.0
H859 H 0.01608 0.18156 0.3335 0.0
H860 H 0.04885 0.18193 0.31434 0.0
H861 H 0.95401 0.25634 0.26775 0.0
H862 H 0.96523 0.29022 0.27925 0.0
H863 H 0.95056 0.26666 0.30626 0.0
C864 C 0.87527 0.01605 0.29458 0.0
C865 C 0.88516 0.04249 0.30167 0.0
C866 C 0.89323 0.99339 0.29269 0.0
C867 C 0.92175 0.99722 0.29806 0.0
C868 C 0.93207 0.02407 0.30349 0.0
C869 C 0.91368 0.04638 0.30513 0.0
C870 C 0.88146 0.96513 0.2865 0.0
C871 C 0.96236 0.02905 0.30922 0.0
C872 C 0.9627 0.93739 0.33058 0.0
C873 C 0.9772 0.92791 0.30526 0.0
C874 C 0.94445 0.95978 0.32844 0.0
C875 C 0.94049 0.97297 0.30026 0.0
C876 C 0.95477 0.96328 0.27454 0.0
C877 C 0.97299 0.9409 0.27735 0.0
C878 C 0.92963 0.96952 0.35643 0.0
C879 C 0.95099 0.97671 0.24411 0.0
H880 H 0.85331 0.01279 0.29169 0.0
H881 H 0.9216 0.06669 0.31051 0.0
H882 H 0.89326 0.95475 0.26833 0.0
H883 H 0.88329 0.95219 0.30703 0.0
H884 H 0.85939 0.96601 0.27984 0.0
H885 H 0.96741 0.05136 0.31055 0.0
H886 H 0.96843 0.01915 0.33077 0.0
H887 H 0.97499 0.01957 0.29112 0.0
H888 H 0.96579 0.92749 0.35223 0.0
H889 H 0.98403 0.93368 0.25763 0.0
H890 H 0.907 0.96883 0.35281 0.0
H891 H 0.93521 0.99127 0.36124 0.0
H892 H 0.93471 0.95683 0.37653 0.0
H893 H 0.92887 0.97651 0.2377 0.0
H894 H 0.96303 0.96624 0.22614 0.0
H895 H 0.95752 0.99861 0.2452 0.0
C896 C 0.21176 0.97371 0.27789 0.0
C897 C 0.225 0.97808 0.30563 0.0
C898 C 0.18921 0.95564 0.27547 0.0
C899 C 0.1796 0.94166 0.30143 0.0
C900 C 0.19307 0.94574 0.32943 0.0
C901 C 0.21562 0.96384 0.33118 0.0
C902 C 0.17548 0.95174 0.24522 0.0
C903 C 0.18343 0.93123 0.35766 0.0
C904 C 0.10584 0.91577 0.30691 0.0
C905 C 0.10933 0.8872 0.30344 0.0
C906 C 0.1284 0.93385 0.30517 0.0
C907 C 0.15511 0.92318 0.29966 0.0
C908 C 0.15855 0.89459 0.29442 0.0
C909 C 0.13565 0.87694 0.29641 0.0
C910 C 0.12384 0.96422 0.31078 0.0
C911 C 0.18664 0.88244 0.28815 0.0
H912 H 0.21889 0.98454 0.25799 0.0
H913 H 0.22571 0.96705 0.35269 0.0
H914 H 0.17534 0.92957 0.23906 0.0
H915 H 0.15367 0.95856 0.24645 0.0
H916 H 0.18597 0.96347 0.22701 0.0
H917 H 0.19639 0.9363 0.37756 0.0
H918 H 0.1618 0.93711 0.36268 0.0
H919 H 0.18381 0.90858 0.35422 0.0
H920 H 0.08564 0.92397 0.31227 0.0
H921 H 0.1386 0.85495 0.29354 0.0
H922 H 0.13322 0.97663 0.29244 0.0
H923 H 0.13409 0.97032 0.33213 0.0
H924 H 0.1016 0.96953 0.31242 0.0
H925 H 0.19701 0.89392 0.26973 0.0
H926 H 0.18548 0.86031 0.28181 0.0
H927 H 0.19977 0.88438 0.30853 0.0
C928 C 0.23689 0.04362 0.69372 0.0
C929 C 0.26551 0.04003 0.69651 0.0
C930 C 0.21881 0.02106 0.69545 0.0
C931 C 0.22955 0.99429 0.70031 0.0
C932 C 0.25823 0.99073 0.70487 0.0
C933 C 0.27587 0.01363 0.70286 0.0
C934 C 0.18835 0.02573 0.69055 0.0
C935 C 0.27044 0.96256 0.71046 0.0
C936 C 0.17925 0.93756 0.72229 0.0
C937 C 0.17439 0.92467 0.69444 0.0
C938 C 0.19744 0.96 0.72467 0.0
C939 C 0.21101 0.96986 0.69856 0.0
C940 C 0.20645 0.95674 0.67047 0.0
C941 C 0.18827 0.93427 0.66876 0.0
C942 C 0.2019 0.97335 0.75503 0.0
C943 C 0.2205 0.96669 0.64208 0.0
H944 H 0.22862 0.0639 0.68887 0.0
H945 H 0.29791 0.01062 0.70524 0.0
H946 H 0.18186 0.01573 0.66919 0.0
H947 H 0.17625 0.01617 0.70902 0.0
H948 H 0.18305 0.04799 0.68932 0.0
H949 H 0.29268 0.9636 0.71634 0.0
H950 H 0.25926 0.95199 0.72897 0.0
H951 H 0.26811 0.94968 0.68993 0.0
H952 H 0.1687 0.93024 0.74229 0.0
H953 H 0.18466 0.92445 0.64717 0.0
H954 H 0.19505 0.99516 0.75429 0.0
H955 H 0.22419 0.97341 0.7607 0.0
H956 H 0.1905 0.96263 0.77333 0.0
H957 H 0.21457 0.98839 0.6375 0.0
H958 H 0.21507 0.95399 0.6221 0.0
H959 H 0.24321 0.96624 0.64504 0.0
C960 C 0.13477 0.27326 0.70437 0.0
C961 C 0.10875 0.26363 0.69532 0.0
C962 C 0.15745 0.25532 0.70644 0.0
C963 C 0.1541 0.22711 0.69907 0.0
C964 C 0.12765 0.21703 0.69128 0.0
C965 C 0.10529 0.23535 0.68966 0.0
C966 C 0.18524 0.26679 0.71531 0.0
C967 C 0.1232 0.1871 0.68321 0.0
C968 C 0.2158 0.18711 0.66922 0.0
C969 C 0.22312 0.17105 0.69426 0.0
C970 C 0.19358 0.20565 0.67062 0.0
C971 C 0.17846 0.20841 0.69781 0.0
C972 C 0.18612 0.19269 0.72334 0.0
C973 C 0.20826 0.17411 0.72122 0.0
C974 C 0.18595 0.22193 0.64282 0.0
C975 C 0.17071 0.19525 0.7528 0.0
H976 H 0.13768 0.29502 0.70894 0.0
H977 H 0.08532 0.22763 0.68264 0.0
H978 H 0.19443 0.25423 0.73363 0.0
H979 H 0.19948 0.26576 0.69576 0.0
H980 H 0.18391 0.28856 0.72296 0.0
H981 H 0.10109 0.18219 0.67941 0.0
H982 H 0.13485 0.18209 0.66238 0.0
H983 H 0.13117 0.17355 0.70137 0.0
H984 H 0.22714 0.18487 0.6483 0.0
H985 H 0.21386 0.16191 0.74076 0.0
H986 H 0.1864 0.24433 0.64785 0.0
H987 H 0.1646 0.21673 0.63582 0.0
H988 H 0.20006 0.21778 0.62361 0.0
H989 H 0.1704 0.21708 0.76026 0.0
H990 H 0.18002 0.1825 0.77094 0.0
H991 H 0.14896 0.18874 0.74968 0.0
C992 C 0.91332 0.1061 0.69342 0.0
C993 C 0.88476 0.10971 0.69681 0.0
C994 C 0.93149 0.1286 0.69493 0.0
C995 C 0.92091 0.15537 0.70018 0.0
C996 C 0.89232 0.15895 0.70539 0.0
C997 C 0.87459 0.1361 0.70361 0.0
C998 C 0.96185 0.12388 0.68935 0.0
C999 C 0.88027 0.18712 0.71142 0.0
C1000 C 0.97186 0.21182 0.72129 0.0
C1001 C 0.9763 0.22479 0.6934 0.0
C1002 C 0.95359 0.18947 0.72398 0.0
C1003 C 0.93949 0.17976 0.69814 0.0
C1004 C 0.94363 0.19296 0.67 0.0
C1005 C 0.96193 0.21533 0.66799 0.0
C1006 C 0.94962 0.17603 0.75438 0.0
C1007 C 0.92901 0.1832 0.6419 0.0
H1008 H 0.92147 0.08583 0.68825 0.0
H1009 H 0.8526 0.13916 0.70642 0.0
H1010 H 0.96797 0.13395 0.6679 0.0
H1011 H 0.9743 0.13335 0.70759 0.0
H1012 H 0.96708 0.10162 0.6879 0.0
H1013 H 0.85815 0.18609 0.71784 0.0
H1014 H 0.89184 0.19761 0.7297 0.0
H1015 H 0.8822 0.20007 0.6909 0.0
H1016 H 0.9828 0.21902 0.74109 0.0
H1017 H 0.96518 0.22522 0.64636 0.0
H1018 H 0.95638 0.1542 0.75339 0.0
H1019 H 0.92744 0.17603 0.76053 0.0
H1020 H 0.96139 0.18664 0.77247 0.0
H1021 H 0.93476 0.1615 0.63706 0.0
H1022 H 0.9341 0.19598 0.62187 0.0
H1023 H 0.90636 0.18371 0.64539 0.0
C1024 C 0.04553 0.9157 0.69298 0.0
C1025 C 0.0417 0.88725 0.6971 0.0
C1026 C 0.02322 0.93409 0.69465 0.0
C1027 C 0.99646 0.92385 0.70079 0.0
C1028 C 0.99272 0.89542 0.70672 0.0
C1029 C 0.01536 0.87747 0.70477 0.0
C1030 C 0.02807 0.96429 0.68827 0.0
C1031 C 0.96456 0.88373 0.71367 0.0
C1032 C 0.94013 0.97487 0.72206 0.0
C1033 C 0.9265 0.97855 0.69442 0.0
C1034 C 0.96281 0.957 0.72457 0.0
C1035 C 0.97214 0.94251 0.69882 0.0
C1036 C 0.95834 0.94598 0.67092 0.0
C1037 C 0.93568 0.9639 0.66908 0.0
C1038 C 0.9769 0.95373 0.75472 0.0
C1039 C 0.96768 0.93091 0.64292 0.0
H1040 H 0.06576 0.92353 0.6871 0.0
H1041 H 0.01214 0.85557 0.70815 0.0
H1042 H 0.01777 0.97004 0.66683 0.0
H1043 H 0.01891 0.97717 0.70634 0.0
H1044 H 0.05035 0.96932 0.68636 0.0
H1045 H 0.96554 0.86173 0.72056 0.0
H1046 H 0.95453 0.89571 0.73194 0.0
H1047 H 0.95123 0.88539 0.69342 0.0
H1048 H 0.93317 0.98606 0.7418 0.0
H1049 H 0.92529 0.96659 0.64764 0.0
H1050 H 0.99878 0.96022 0.75294 0.0
H1051 H 0.97681 0.93173 0.76157 0.0
H1052 H 0.96681 0.96608 0.7727 0.0
H1053 H 0.98934 0.93648 0.63763 0.0
H1054 H 0.95465 0.93575 0.62301 0.0
H1055 H 0.9671 0.90832 0.64683 0.0
C1056 C 0.68788 0.71428 0.8304 0.0
C1057 C 0.67347 0.72345 0.80489 0.0
C1058 C 0.70617 0.69189 0.82866 0.0
C1059 C 0.71026 0.67836 0.8007 0.0
C1060 C 0.69608 0.68774 0.77477 0.0
C1061 C 0.67783 0.71014 0.77718 0.0
C1062 C 0.72087 0.68248 0.85687 0.0
C1063 C 0.7 0.67395 0.74455 0.0
C1064 C 0.77539 0.63499 0.79578 0.0
C1065 C 0.76538 0.60863 0.80302 0.0
C1066 C 0.75752 0.65771 0.79364 0.0
C1067 C 0.72896 0.65403 0.79895 0.0
C1068 C 0.71854 0.62727 0.80464 0.0
C1069 C 0.73683 0.6049 0.80651 0.0
C1070 C 0.7694 0.68586 0.78716 0.0
C1071 C 0.68821 0.62245 0.81035 0.0
H1072 H 0.68469 0.72443 0.8519 0.0
H1073 H 0.66685 0.71711 0.75731 0.0
H1074 H 0.71522 0.66081 0.86198 0.0
H1075 H 0.74351 0.68307 0.85333 0.0
H1076 H 0.71574 0.69544 0.87675 0.0
H1077 H 0.68809 0.68426 0.72637 0.0
H1078 H 0.72215 0.67401 0.73829 0.0
H1079 H 0.69339 0.65209 0.7459 0.0
H1080 H 0.79736 0.63813 0.79288 0.0
H1081 H 0.72881 0.58466 0.81203 0.0
H1082 H 0.76746 0.69905 0.80749 0.0
H1083 H 0.75775 0.69606 0.76876 0.0
H1084 H 0.79152 0.68486 0.78069 0.0
H1085 H 0.68208 0.63271 0.83169 0.0
H1086 H 0.6831 0.60018 0.81207 0.0
H1087 H 0.67568 0.63168 0.79202 0.0
C1088 C 0.51451 0.77545 0.79631 0.0
C1089 C 0.54081 0.765 0.80302 0.0
C1090 C 0.49146 0.75797 0.79454 0.0
C1091 C 0.49474 0.72935 0.79968 0.0
C1092 C 0.52142 0.71848 0.80488 0.0
C1093 C 0.54412 0.7364 0.80639 0.0
C1094 C 0.4634 0.77033 0.78859 0.0
C1095 C 0.52581 0.68807 0.81037 0.0
C1096 C 0.43423 0.68888 0.83155 0.0
C1097 C 0.42468 0.6747 0.80605 0.0
C1098 C 0.45682 0.70692 0.82968 0.0
C1099 C 0.47014 0.71102 0.80159 0.0
C1100 C 0.46032 0.69715 0.77566 0.0
C1101 C 0.43775 0.67912 0.77821 0.0
C1102 C 0.4667 0.72131 0.85788 0.0
C1103 C 0.47385 0.7011 0.74531 0.0
H1104 H 0.51168 0.79746 0.79352 0.0
H1105 H 0.56432 0.72804 0.81152 0.0
H1106 H 0.45281 0.75897 0.77023 0.0
H1107 H 0.45043 0.76842 0.80909 0.0
H1108 H 0.46466 0.79247 0.78231 0.0
H1109 H 0.54802 0.68261 0.81185 0.0
H1110 H 0.51563 0.68199 0.83177 0.0
H1111 H 0.51625 0.67577 0.79206 0.0
H1112 H 0.42427 0.68562 0.85314 0.0
H1113 H 0.43048 0.66834 0.75834 0.0
H1114 H 0.46647 0.74397 0.8545 0.0
H1115 H 0.48832 0.71527 0.86274 0.0
H1116 H 0.45381 0.71628 0.87785 0.0
H1117 H 0.47414 0.7233 0.73928 0.0
H1118 H 0.46314 0.68954 0.72713 0.0
H1119 H 0.49561 0.69408 0.7463 0.0
C1120 C 0.46424 0.43526 0.83235 0.0
C1121 C 0.48037 0.42776 0.80742 0.0
C1122 C 0.44593 0.45765 0.8308 0.0
C1123 C 0.44349 0.47276 0.80359 0.0
C1124 C 0.45934 0.465 0.77819 0.0
C1125 C 0.47768 0.44267 0.78044 0.0
C1126 C 0.42946 0.46538 0.85845 0.0
C1127 C 0.45712 0.48042 0.74872 0.0
C1128 C 0.37851 0.51602 0.79613 0.0
C1129 C 0.38788 0.54212 0.80522 0.0
C1130 C 0.3966 0.49347 0.79434 0.0
C1131 C 0.4247 0.49702 0.80204 0.0
C1132 C 0.43455 0.52355 0.80989 0.0
C1133 C 0.41607 0.54579 0.81124 0.0
C1134 C 0.38538 0.46559 0.78542 0.0
C1135 C 0.46438 0.52819 0.8183 0.0
H1136 H 0.46621 0.42389 0.85327 0.0
H1137 H 0.48996 0.43695 0.76101 0.0
H1138 H 0.43454 0.48678 0.86535 0.0
H1139 H 0.40709 0.46482 0.85326 0.0
H1140 H 0.43354 0.45139 0.87777 0.0
H1141 H 0.47019 0.47121 0.73078 0.0
H1142 H 0.43539 0.48057 0.74088 0.0
H1143 H 0.46342 0.5022 0.75197 0.0
H1144 H 0.35682 0.51295 0.79129 0.0
H1145 H 0.42357 0.56583 0.8183 0.0
H1146 H 0.38633 0.4514 0.80501 0.0
H1147 H 0.39816 0.45644 0.76724 0.0
H1148 H 0.36366 0.46675 0.77755 0.0
H1149 H 0.46922 0.51668 0.83927 0.0
H1150 H 0.46913 0.55033 0.82201 0.0
H1151 H 0.47816 0.52017 0.80036 0.0
C1152 C 0.71261 0.47203 0.77826 0.0
C1153 C 0.72545 0.47668 0.80616 0.0
C1154 C 0.69015 0.45388 0.77568 0.0
C1155 C 0.68025 0.44013 0.80165 0.0
C1156 C 0.6933 0.44452 0.82982 0.0
C1157 C 0.71577 0.46268 0.83172 0.0
C1158 C 0.67687 0.44961 0.74525 0.0
C1159 C 0.6833 0.43028 0.85807 0.0
C1160 C 0.60663 0.41395 0.80664 0.0
C1161 C 0.61036 0.38535 0.80388 0.0
C1162 C 0.62908 0.43214 0.80473 0.0
C1163 C 0.65588 0.42153 0.79972 0.0
C1164 C 0.65956 0.39289 0.79507 0.0
C1165 C 0.63677 0.37513 0.79725 0.0
C1166 C 0.62428 0.46257 0.80972 0.0
C1167 C 0.68777 0.38082 0.7893 0.0
H1168 H 0.71999 0.48269 0.75835 0.0
H1169 H 0.72556 0.46612 0.85336 0.0
H1170 H 0.67691 0.42738 0.73937 0.0
H1171 H 0.65501 0.45635 0.74603 0.0
H1172 H 0.68756 0.46121 0.72709 0.0
H1173 H 0.69591 0.43565 0.87814 0.0
H1174 H 0.66156 0.43609 0.86261 0.0
H1175 H 0.68385 0.4076 0.85495 0.0
H1176 H 0.58634 0.42211 0.81167 0.0
H1177 H 0.63988 0.3531 0.79487 0.0
H1178 H 0.63392 0.47477 0.79139 0.0
H1179 H 0.63412 0.46899 0.83119 0.0
H1180 H 0.60199 0.46778 0.81082 0.0
H1181 H 0.69832 0.39221 0.77092 0.0
H1182 H 0.68678 0.35864 0.78314 0.0
H1183 H 0.70064 0.38297 0.80985 0.0
C1184 C 0.6881 0.43689 0.17065 0.0
C1185 C 0.67413 0.42737 0.19631 0.0
C1186 C 0.70639 0.45929 0.17237 0.0
C1187 C 0.71096 0.47243 0.20047 0.0
C1188 C 0.69729 0.46263 0.22655 0.0
C1189 C 0.67901 0.44026 0.22415 0.0
C1190 C 0.72054 0.46914 0.14401 0.0
C1191 C 0.70174 0.47599 0.25691 0.0
C1192 C 0.77592 0.51608 0.20474 0.0
C1193 C 0.76566 0.54248 0.19816 0.0
C1194 C 0.75822 0.49323 0.20685 0.0
C1195 C 0.72956 0.49683 0.20221 0.0
C1196 C 0.7189 0.52361 0.19721 0.0
C1197 C 0.73704 0.54611 0.19533 0.0
C1198 C 0.77037 0.46505 0.21256 0.0
C1199 C 0.68845 0.52834 0.19227 0.0
H1200 H 0.6845 0.42707 0.14906 0.0
H1201 H 0.66839 0.433 0.24413 0.0
H1202 H 0.71467 0.49084 0.13935 0.0
H1203 H 0.74324 0.46866 0.14705 0.0
H1204 H 0.71513 0.45641 0.12405 0.0
H1205 H 0.69028 0.46532 0.2752 0.0
H1206 H 0.72402 0.47601 0.26262 0.0
H1207 H 0.69495 0.49782 0.25612 0.0
H1208 H 0.79796 0.51301 0.20711 0.0
H1209 H 0.72882 0.56638 0.19034 0.0
H1210 H 0.76813 0.45215 0.19204 0.0
H1211 H 0.75909 0.45451 0.23103 0.0
H1212 H 0.79259 0.46608 0.21857 0.0
H1213 H 0.68197 0.51833 0.17091 0.0
H1214 H 0.6832 0.55061 0.19101 0.0
H1215 H 0.67631 0.51881 0.21073 0.0
C1216 C 0.71157 0.67848 0.22352 0.0
C1217 C 0.72455 0.67424 0.19559 0.0
C1218 C 0.68908 0.69656 0.2263 0.0
C1219 C 0.67926 0.71068 0.20054 0.0
C1220 C 0.69243 0.7067 0.17235 0.0
C1221 C 0.71493 0.68858 0.17023 0.0
C1222 C 0.67567 0.70037 0.25675 0.0
C1223 C 0.68255 0.72135 0.14431 0.0
C1224 C 0.60569 0.73709 0.19563 0.0
C1225 C 0.60945 0.76564 0.19891 0.0
C1226 C 0.62809 0.71882 0.19737 0.0
C1227 C 0.6549 0.72929 0.20271 0.0
C1228 C 0.6586 0.75785 0.20794 0.0
C1229 C 0.63585 0.77569 0.20596 0.0
C1230 C 0.62326 0.68849 0.1918 0.0
C1231 C 0.68681 0.76978 0.21405 0.0
H1232 H 0.7189 0.66755 0.24327 0.0
H1233 H 0.72482 0.68547 0.14858 0.0
H1234 H 0.67575 0.7225 0.26306 0.0
H1235 H 0.6538 0.69371 0.25573 0.0
H1236 H 0.68624 0.68845 0.27474 0.0
H1237 H 0.69524 0.71627 0.12421 0.0
H1238 H 0.66082 0.71564 0.13959 0.0
H1239 H 0.68312 0.74399 0.14784 0.0
H1240 H 0.58542 0.72905 0.19028 0.0
H1241 H 0.63901 0.79767 0.20872 0.0
H1242 H 0.63285 0.67599 0.20992 0.0
H1243 H 0.63313 0.68238 0.17024 0.0
H1244 H 0.60097 0.68332 0.19057 0.0
H1245 H 0.69728 0.75809 0.23223 0.0
H1246 H 0.68582 0.79186 0.22064 0.0
H1247 H 0.69974 0.76797 0.1935 0.0
C1248 C 0.47423 0.71152 0.22221 0.0
C1249 C 0.4779 0.72555 0.1948 0.0
C1250 C 0.45618 0.68896 0.22441 0.0
C1251 C 0.44149 0.68014 0.19858 0.0
C1252 C 0.4449 0.69438 0.17093 0.0
C1253 C 0.46301 0.71693 0.1694 0.0
C1254 C 0.45299 0.67439 0.2543 0.0
C1255 C 0.42963 0.68559 0.14285 0.0
C1256 C 0.41468 0.60682 0.19171 0.0
C1257 C 0.38625 0.61052 0.19619 0.0
C1258 C 0.43305 0.62914 0.1935 0.0
C1259 C 0.42281 0.6558 0.20015 0.0
C1260 C 0.39441 0.65941 0.20637 0.0
C1261 C 0.37647 0.63676 0.20425 0.0
C1262 C 0.46321 0.62442 0.18677 0.0
C1263 C 0.38274 0.68744 0.21389 0.0
H1264 H 0.4856 0.71806 0.24199 0.0
H1265 H 0.46568 0.72763 0.14814 0.0
H1266 H 0.43099 0.67431 0.2612 0.0
H1267 H 0.45953 0.65257 0.25209 0.0
H1268 H 0.46535 0.68423 0.27244 0.0
H1269 H 0.43436 0.69899 0.1232 0.0
H1270 H 0.43516 0.66404 0.13702 0.0
H1271 H 0.40707 0.6861 0.14695 0.0
H1272 H 0.42251 0.58667 0.18551 0.0
H1273 H 0.35459 0.63988 0.20791 0.0
H1274 H 0.4762 0.63319 0.20499 0.0
H1275 H 0.46885 0.63518 0.16556 0.0
H1276 H 0.46823 0.60219 0.18427 0.0
H1277 H 0.39478 0.69716 0.23231 0.0
H1278 H 0.36075 0.68636 0.22082 0.0
H1279 H 0.38436 0.70111 0.1939 0.0
C1280 C 0.51448 0.37875 0.20497 0.0
C1281 C 0.54085 0.38893 0.19806 0.0
C1282 C 0.4916 0.39641 0.20667 0.0
C1283 C 0.49511 0.42495 0.20128 0.0
C1284 C 0.52187 0.43558 0.19592 0.0
C1285 C 0.54442 0.41747 0.19446 0.0
C1286 C 0.46345 0.3843 0.21277 0.0
C1287 C 0.52648 0.46592 0.19017 0.0
C1288 C 0.43446 0.46488 0.16907 0.0
C1289 C 0.42475 0.47908 0.19448 0.0
C1290 C 0.45726 0.44713 0.17105 0.0
C1291 C 0.47062 0.44337 0.19915 0.0
C1292 C 0.46071 0.45734 0.22498 0.0
C1293 C 0.43793 0.47507 0.22232 0.0
C1294 C 0.46723 0.4326 0.14296 0.0
C1295 C 0.4743 0.45372 0.25535 0.0
H1296 H 0.51145 0.35678 0.20794 0.0
H1297 H 0.56467 0.4256 0.18916 0.0
H1298 H 0.45294 0.39588 0.23102 0.0
H1299 H 0.45048 0.38612 0.19225 0.0
H1300 H 0.46455 0.3622 0.21927 0.0
H1301 H 0.54873 0.47123 0.18879 0.0
H1302 H 0.51647 0.47188 0.16864 0.0
H1303 H 0.51688 0.47843 0.20829 0.0
H1304 H 0.42443 0.46785 0.14747 0.0
H1305 H 0.43054 0.48589 0.24212 0.0
H1306 H 0.46687 0.40996 0.14646 0.0
H1307 H 0.4889 0.43852 0.13819 0.0
H1308 H 0.45446 0.43759 0.1229 0.0
H1309 H 0.4744 0.43161 0.26174 0.0
H1310 H 0.46372 0.46561 0.27337 0.0
H1311 H 0.49611 0.46053 0.25418 0.0
C1312 C 0.28416 0.45485 0.24312 0.0
C1313 C 0.27516 0.47279 0.22041 0.0
C1314 C 0.2666 0.43427 0.25464 0.0
C1315 C 0.23947 0.43162 0.24309 0.0
C1316 C 0.23065 0.44925 0.21953 0.0
C1317 C 0.24863 0.46954 0.20844 0.0
C1318 C 0.27681 0.41588 0.2797 0.0
C1319 C 0.20196 0.44711 0.20647 0.0
C1320 C 0.19666 0.36672 0.2561 0.0
C1321 C 0.17894 0.37531 0.2792 0.0
C1322 C 0.21702 0.38455 0.24459 0.0
C1323 C 0.21969 0.41151 0.2566 0.0
C1324 C 0.20233 0.41988 0.2806 0.0
C1325 C 0.18224 0.40165 0.29164 0.0
C1326 C 0.23513 0.37482 0.21905 0.0
C1327 C 0.2045 0.44836 0.29416 0.0
H1328 H 0.30472 0.45734 0.25233 0.0
H1329 H 0.24185 0.48307 0.19045 0.0
H1330 H 0.26461 0.41973 0.30045 0.0
H1331 H 0.27387 0.3939 0.27357 0.0
H1332 H 0.29896 0.41938 0.28486 0.0
H1333 H 0.19869 0.46161 0.18741 0.0
H1334 H 0.19808 0.42581 0.19842 0.0
H1335 H 0.18648 0.45163 0.22422 0.0
H1336 H 0.19412 0.34631 0.24652 0.0
H1337 H 0.16887 0.4081 0.30992 0.0
H1338 H 0.25718 0.37786 0.22484 0.0
H1339 H 0.23087 0.38726 0.19858 0.0
H1340 H 0.23172 0.35272 0.2136 0.0
H1341 H 0.22592 0.45228 0.30185 0.0
H1342 H 0.19031 0.45123 0.31357 0.0
H1343 H 0.19957 0.46408 0.2768 0.0
C1344 C 0.78317 0.1979 0.25816 0.0
C1345 C 0.77428 0.18056 0.28147 0.0
C1346 C 0.76576 0.21853 0.24652 0.0
C1347 C 0.73885 0.22179 0.25849 0.0
C1348 C 0.73015 0.20479 0.28266 0.0
C1349 C 0.74803 0.18451 0.29395 0.0
C1350 C 0.77589 0.23633 0.2209 0.0
C1351 C 0.70166 0.20753 0.2961 0.0
C1352 C 0.6965 0.28676 0.24437 0.0
C1353 C 0.67859 0.2779 0.22157 0.0
C1354 C 0.71679 0.269 0.25611 0.0
C1355 C 0.71912 0.24178 0.24474 0.0
C1356 C 0.70154 0.23309 0.22107 0.0
C1357 C 0.68161 0.2513 0.2097 0.0
C1358 C 0.73523 0.2791 0.28118 0.0
C1359 C 0.70331 0.2043 0.20825 0.0
H1360 H 0.80352 0.19489 0.24858 0.0
H1361 H 0.74137 0.17146 0.31242 0.0
H1362 H 0.7635 0.23212 0.20038 0.0
H1363 H 0.77313 0.25846 0.2265 0.0
H1364 H 0.79797 0.23258 0.21562 0.0
H1365 H 0.69847 0.19346 0.31556 0.0
H1366 H 0.69811 0.22903 0.30369 0.0
H1367 H 0.68591 0.20282 0.2787 0.0
H1368 H 0.69419 0.30736 0.25351 0.0
H1369 H 0.66812 0.24462 0.19163 0.0
H1370 H 0.7572 0.27569 0.27524 0.0
H1371 H 0.73103 0.26718 0.30203 0.0
H1372 H 0.73211 0.30135 0.28606 0.0
H1373 H 0.72457 0.20006 0.20028 0.0
H1374 H 0.68881 0.20109 0.18918 0.0
H1375 H 0.69853 0.189 0.22611 0.0
C1376 C 0.89999 0.68613 0.20801 0.0
C1377 C 0.87346 0.68256 0.2199 0.0
C1378 C 0.91777 0.70646 0.21933 0.0
C1379 C 0.90877 0.72376 0.2431 0.0
C1380 C 0.88161 0.72085 0.25452 0.0
C1381 C 0.86424 0.70026 0.24272 0.0
C1382 C 0.94649 0.70889 0.20641 0.0
C1383 C 0.87124 0.73889 0.27981 0.0
C1384 C 0.96597 0.75265 0.29233 0.0
C1385 C 0.96945 0.77916 0.28038 0.0
C1386 C 0.94576 0.73474 0.28097 0.0
C1387 C 0.92849 0.7436 0.25712 0.0
C1388 C 0.9313 0.77074 0.24565 0.0
C1389 C 0.95177 0.78825 0.25748 0.0
C1390 C 0.94343 0.70605 0.29396 0.0
C1391 C 0.91328 0.78097 0.22027 0.0
H1392 H 0.90694 0.67276 0.18995 0.0
H1393 H 0.8437 0.69749 0.25189 0.0
H1394 H 0.9504 0.73036 0.19891 0.0
H1395 H 0.96192 0.70399 0.22407 0.0
H1396 H 0.94981 0.6948 0.187 0.0
H1397 H 0.84902 0.73541 0.28462 0.0
H1398 H 0.8832 0.73462 0.30062 0.0
H1399 H 0.87436 0.76096 0.27416 0.0
H1400 H 0.97931 0.7458 0.31046 0.0
H1401 H 0.95447 0.80878 0.24828 0.0
H1402 H 0.94846 0.6906 0.27635 0.0
H1403 H 0.92196 0.70205 0.3014 0.0
H1404 H 0.95748 0.70284 0.31342 0.0
H1405 H 0.91768 0.76899 0.19951 0.0
H1406 H 0.91667 0.80319 0.21541 0.0
H1407 H 0.89121 0.77776 0.22584 0.0
C1408 C 0.40136 0.96876 0.29137 0.0
C1409 C 0.37447 0.97155 0.28024 0.0
C1410 C 0.41942 0.94885 0.27966 0.0
C1411 C 0.4103 0.93107 0.25639 0.0
C1412 C 0.3828 0.93316 0.24577 0.0
C1413 C 0.36518 0.95342 0.25784 0.0
C1414 C 0.44852 0.94735 0.2917 0.0
C1415 C 0.37224 0.91449 0.22112 0.0
C1416 C 0.46683 0.90222 0.20607 0.0
C1417 C 0.47124 0.87613 0.21871 0.0
C1418 C 0.44657 0.92 0.21762 0.0
C1419 C 0.4301 0.91136 0.24226 0.0
C1420 C 0.43381 0.88458 0.2544 0.0
C1421 C 0.45438 0.86726 0.24246 0.0
C1422 C 0.44332 0.94834 0.20398 0.0
C1423 C 0.41661 0.87452 0.28054 0.0
H1424 H 0.40839 0.98241 0.30913 0.0
H1425 H 0.34437 0.95558 0.24923 0.0
H1426 H 0.45307 0.92617 0.29972 0.0
H1427 H 0.46338 0.95209 0.27338 0.0
H1428 H 0.45208 0.962 0.31056 0.0
H1429 H 0.34985 0.91743 0.21686 0.0
H1430 H 0.38363 0.91865 0.19991 0.0
H1431 H 0.37594 0.8926 0.22712 0.0
H1432 H 0.4795 0.90885 0.18729 0.0
H1433 H 0.45776 0.84703 0.25217 0.0
H1434 H 0.44836 0.96427 0.22107 0.0
H1435 H 0.42162 0.9517 0.197 0.0
H1436 H 0.4569 0.95144 0.18408 0.0
H1437 H 0.4212 0.88705 0.30086 0.0
H1438 H 0.4206 0.8525 0.28588 0.0
H1439 H 0.39435 0.87712 0.27549 0.0
C1440 C 0.24888 0.68169 0.79125 0.0
C1441 C 0.27539 0.67856 0.77919 0.0
C1442 C 0.23074 0.7018 0.78012 0.0
C1443 C 0.23937 0.71935 0.75639 0.0
C1444 C 0.26648 0.71679 0.74472 0.0
C1445 C 0.28421 0.69642 0.75632 0.0
C1446 C 0.2021 0.70387 0.79332 0.0
C1447 C 0.27648 0.73509 0.71946 0.0
C1448 C 0.18191 0.74887 0.7079 0.0
C1449 C 0.17866 0.77532 0.7201 0.0
C1450 C 0.20203 0.73074 0.71902 0.0
C1451 C 0.21946 0.73929 0.74288 0.0
C1452 C 0.21679 0.76632 0.7547 0.0
C1453 C 0.19641 0.78406 0.7431 0.0
C1454 C 0.20421 0.70217 0.70567 0.0
C1455 C 0.23496 0.77624 0.7801 0.0
H1456 H 0.24225 0.66821 0.80935 0.0
H1457 H 0.30476 0.69401 0.74705 0.0
H1458 H 0.19814 0.7252 0.80125 0.0
H1459 H 0.18656 0.69917 0.77569 0.0
H1460 H 0.19898 0.68946 0.81249 0.0
H1461 H 0.2986 0.73163 0.71415 0.0
H1462 H 0.26415 0.73111 0.69885 0.0
H1463 H 0.27352 0.75709 0.72549 0.0
H1464 H 0.1685 0.7423 0.68971 0.0
H1465 H 0.1939 0.80454 0.7525 0.0
H1466 H 0.19943 0.68654 0.72318 0.0
H1467 H 0.22559 0.69828 0.69786 0.0
H1468 H 0.18991 0.69913 0.68639 0.0
H1469 H 0.23088 0.76384 0.80064 0.0
H1470 H 0.23145 0.79833 0.78549 0.0
H1471 H 0.257 0.77331 0.77419 0.0
C1472 C 0.39179 0.17193 0.7492 0.0
C1473 C 0.37493 0.17754 0.72429 0.0
C1474 C 0.4104 0.19171 0.7602 0.0
C1475 C 0.41163 0.21806 0.74649 0.0
C1476 C 0.39387 0.22419 0.72203 0.0
C1477 C 0.37605 0.2037 0.71092 0.0
C1478 C 0.42936 0.18408 0.78589 0.0
C1479 C 0.39408 0.25221 0.70722 0.0
C1480 C 0.44681 0.2744 0.79232 0.0
C1481 C 0.47298 0.27541 0.77892 0.0
C1482 C 0.42628 0.25657 0.78131 0.0
C1483 C 0.43236 0.2387 0.75694 0.0
C1484 C 0.45873 0.2398 0.74322 0.0
C1485 C 0.47855 0.25842 0.75411 0.0
C1486 C 0.39825 0.25651 0.79612 0.0
C1487 C 0.46631 0.22073 0.71761 0.0
H1488 H 0.39084 0.15175 0.75968 0.0
H1489 H 0.36342 0.20798 0.69131 0.0
H1490 H 0.45115 0.18581 0.77848 0.0
H1491 H 0.4265 0.19859 0.80497 0.0
H1492 H 0.42572 0.16276 0.79415 0.0
H1493 H 0.37731 0.25448 0.69033 0.0
H1494 H 0.39181 0.26862 0.72448 0.0
H1495 H 0.41412 0.25558 0.69575 0.0
H1496 H 0.44257 0.28712 0.81187 0.0
H1497 H 0.49872 0.2593 0.7436 0.0
H1498 H 0.39477 0.23649 0.80759 0.0
H1499 H 0.38186 0.25885 0.77885 0.0
H1500 H 0.39605 0.27329 0.81299 0.0
H1501 H 0.46439 0.19897 0.72507 0.0
H1502 H 0.48769 0.22419 0.70943 0.0
H1503 H 0.45189 0.22365 0.69847 0.0
C1504 C 0.967 0.39996 0.708 0.0
C1505 C 0.97032 0.37332 0.71964 0.0
C1506 C 0.94684 0.41785 0.71952 0.0
C1507 C 0.9295 0.40885 0.74327 0.0
C1508 C 0.93222 0.38161 0.75449 0.0
C1509 C 0.95261 0.36412 0.74246 0.0
C1510 C 0.94459 0.44663 0.70678 0.0
C1511 C 0.91416 0.37125 0.77978 0.0
C1512 C 0.9008 0.46597 0.79279 0.0
C1513 C 0.87426 0.46951 0.78093 0.0
C1514 C 0.91866 0.44577 0.7813 0.0
C1515 C 0.90974 0.4286 0.75738 0.0
C1516 C 0.88258 0.43151 0.74597 0.0
C1517 C 0.86511 0.45194 0.75795 0.0
C1518 C 0.94735 0.44331 0.79426 0.0
C1519 C 0.8723 0.41364 0.72049 0.0
H1520 H 0.98038 0.4069 0.68994 0.0
H1521 H 0.95519 0.34349 0.75143 0.0
H1522 H 0.92314 0.4507 0.69929 0.0
H1523 H 0.94956 0.46196 0.72454 0.0
H1524 H 0.95871 0.44998 0.68739 0.0
H1525 H 0.9176 0.34903 0.78457 0.0
H1526 H 0.91846 0.38318 0.8006 0.0
H1527 H 0.8921 0.37441 0.77414 0.0
H1528 H 0.90769 0.47924 0.81095 0.0
H1529 H 0.84456 0.45469 0.74881 0.0
H1530 H 0.96282 0.44836 0.77667 0.0
H1531 H 0.95129 0.4218 0.80159 0.0
H1532 H 0.95061 0.45727 0.8138 0.0
H1533 H 0.88435 0.41803 0.69978 0.0
H1534 H 0.85011 0.41717 0.71559 0.0
H1535 H 0.87537 0.39154 0.72599 0.0
C1536 C 0.68466 0.89916 0.79224 0.0
C1537 C 0.68109 0.87275 0.78007 0.0
C1538 C 0.70489 0.9171 0.78097 0.0
C1539 C 0.72207 0.90839 0.75697 0.0
C1540 C 0.71916 0.88133 0.74527 0.0
C1541 C 0.69868 0.86379 0.75703 0.0
C1542 C 0.70732 0.94569 0.79421 0.0
C1543 C 0.73708 0.87125 0.71973 0.0
C1544 C 0.75047 0.96611 0.70812 0.0
C1545 C 0.77707 0.96955 0.71986 0.0
C1546 C 0.73269 0.94577 0.71943 0.0
C1547 C 0.74176 0.9283 0.74302 0.0
C1548 C 0.76898 0.9311 0.75429 0.0
C1549 C 0.78635 0.95171 0.74252 0.0
C1550 C 0.70391 0.94347 0.70666 0.0
C1551 C 0.77944 0.91288 0.77939 0.0
H1552 H 0.67139 0.90591 0.81047 0.0
H1553 H 0.69591 0.84333 0.74765 0.0
H1554 H 0.72884 0.9496 0.80156 0.0
H1555 H 0.70224 0.96128 0.77677 0.0
H1556 H 0.69336 0.94878 0.81379 0.0
H1557 H 0.73364 0.84908 0.71471 0.0
H1558 H 0.73262 0.88338 0.69909 0.0
H1559 H 0.75917 0.8744 0.72523 0.0
H1560 H 0.74347 0.97957 0.69017 0.0
H1561 H 0.80695 0.95438 0.75158 0.0
H1562 H 0.68856 0.94825 0.72446 0.0
H1563 H 0.69994 0.92207 0.69897 0.0
H1564 H 0.70051 0.95772 0.6874 0.0
H1565 H 0.76756 0.91703 0.80029 0.0
H1566 H 0.80167 0.91631 0.78412 0.0
H1567 H 0.77628 0.89086 0.77358 0.0
C1568 C 0.01411 0.7242 0.74101 0.0
C1569 C 0.01459 0.72407 0.7094 0.0
C1570 C 0.99621 0.70687 0.75706 0.0
C1571 C 0.97903 0.68832 0.74114 0.0
C1572 C 0.97978 0.68768 0.70926 0.0
C1573 C 0.9975 0.70563 0.69377 0.0
C1574 C 0.99592 0.70821 0.79109 0.0
C1575 C 0.96208 0.66784 0.69153 0.0
C1576 C 0.95409 0.62534 0.78387 0.0
C1577 C 0.92682 0.63261 0.79048 0.0
C1578 C 0.97119 0.64312 0.76738 0.0
C1579 C 0.96087 0.66901 0.75792 0.0
C1580 C 0.93337 0.67656 0.76483 0.0
C1581 C 0.9166 0.65816 0.78094 0.0
C1582 C 1.00026 0.63417 0.76004 0.0
C1583 C 0.92185 0.70422 0.75561 0.0
H1584 H 0.02814 0.73735 0.75335 0.0
H1585 H 0.99798 0.70524 0.66934 0.0
H1586 H 0.97458 0.71165 0.79931 0.0
H1587 H 1.00305 0.68829 0.80058 0.0
H1588 H 0.00933 0.72491 0.79996 0.0
H1589 H 0.96506 0.67001 0.6668 0.0
H1590 H 0.96706 0.64633 0.69809 0.0
H1591 H 0.93999 0.67129 0.69682 0.0
H1592 H 0.96195 0.60553 0.79128 0.0
H1593 H 0.89567 0.66401 0.78667 0.0
H1594 H 0.01525 0.64865 0.77033 0.0
H1595 H 1.00358 0.63473 0.73529 0.0
H1596 H 0.00482 0.61303 0.7683 0.0
H1597 H 0.93429 0.72098 0.76586 0.0
H1598 H 0.9 0.70686 0.76259 0.0
H1599 H 0.92318 0.70668 0.73079 0.0
C1600 C 0.42794 0.01559 0.74185 0.0
C1601 C 0.42676 0.01427 0.71028 0.0
C1602 C 0.44504 0.99777 0.75835 0.0
C1603 C 0.46218 0.97888 0.74287 0.0
C1604 C 0.46156 0.97779 0.71101 0.0
C1605 C 0.44375 0.99535 0.69514 0.0
C1606 C 0.44497 0.99938 0.79236 0.0
C1607 C 0.47998 0.95832 0.69365 0.0
C1608 C 0.52598 0.95335 0.78377 0.0
C1609 C 0.51808 0.92662 0.79193 0.0
C1610 C 0.50808 0.97049 0.76748 0.0
C1611 C 0.4814 0.96083 0.75994 0.0
C1612 C 0.47316 0.93396 0.76861 0.0
C1613 C 0.49174 0.91705 0.78434 0.0
C1614 C 0.51781 0.9988 0.75811 0.0
C1615 C 0.44467 0.9232 0.76156 0.0
H1616 H 0.41612 0.03092 0.75386 0.0
H1617 H 0.44319 0.99427 0.67074 0.0
H1618 H 0.44119 0.97866 0.80214 0.0
H1619 H 0.46544 0.00637 0.8005 0.0
H1620 H 0.42903 0.0138 0.80103 0.0
H1621 H 0.47709 0.96011 0.66888 0.0
H1622 H 0.50191 0.96264 0.69903 0.0
H1623 H 0.47576 0.93673 0.70045 0.0
H1624 H 0.54641 0.96068 0.78968 0.0
H1625 H 0.48548 0.89654 0.79122 0.0
H1626 H 0.50427 0.01482 0.76806 0.0
H1627 H 0.5165 1.00092 0.73324 0.0
H1628 H 0.53939 1.00293 0.76521 0.0
H1629 H 0.42889 0.93702 0.77157 0.0
H1630 H 0.44137 0.90198 0.77029 0.0
H1631 H 0.44129 0.92309 0.73683 0.0
C1632 C 0.15904 0.41517 0.71931 0.0
C1633 C 0.13351 0.42541 0.70971 0.0
C1634 C 0.17751 0.43198 0.73531 0.0
C1635 C 0.17006 0.45953 0.74205 0.0
C1636 C 0.14417 0.46986 0.73254 0.0
C1637 C 0.12633 0.45273 0.71618 0.0
C1638 C 0.20515 0.42043 0.74459 0.0
C1639 C 0.13531 0.49899 0.73968 0.0
C1640 C 0.20648 0.49669 0.80599 0.0
C1641 C 0.22488 0.51377 0.79029 0.0
C1642 C 0.18868 0.47874 0.7906 0.0
C1643 C 0.18941 0.47774 0.75873 0.0
C1644 C 0.20798 0.49486 0.74273 0.0
C1645 C 0.22518 0.51297 0.75869 0.0
C1646 C 0.16884 0.46112 0.80843 0.0
C1647 C 0.20941 0.49433 0.70872 0.0
H1648 H 0.16485 0.39421 0.71369 0.0
H1649 H 0.10655 0.46062 0.70872 0.0
H1650 H 0.22194 0.43275 0.73423 0.0
H1651 H 0.20763 0.42192 0.7694 0.0
H1652 H 0.2077 0.39853 0.73778 0.0
H1653 H 0.11418 0.50357 0.73139 0.0
H1654 H 0.13587 0.50245 0.7644 0.0
H1655 H 0.14984 0.51388 0.72929 0.0
H1656 H 0.20596 0.49738 0.83042 0.0
H1657 H 0.2383 0.52696 0.74625 0.0
H1658 H 0.17222 0.43901 0.80319 0.0
H1659 H 0.14732 0.46613 0.80191 0.0
H1660 H 0.17105 0.46414 0.83314 0.0
H1661 H 0.21276 0.47293 0.70067 0.0
H1662 H 0.22621 0.5076 0.69979 0.0
H1663 H 0.18955 0.50151 0.69911 0.0
C1664 C 0.63415 0.22215 0.76005 0.0
C1665 C 0.63622 0.2239 0.79154 0.0
C1666 C 0.65176 0.20496 0.74341 0.0
C1667 C 0.6712 0.1883 0.75871 0.0
C1668 C 0.67301 0.18946 0.79051 0.0
C1669 C 0.65564 0.20736 0.8065 0.0
C1670 C 0.64938 0.20444 0.70946 0.0
C1671 C 0.69309 0.17156 0.80767 0.0
C1672 C 0.69662 0.12431 0.71813 0.0
C1673 C 0.72303 0.13246 0.70908 0.0
C1674 C 0.67965 0.14218 0.73466 0.0
C1675 C 0.68912 0.16908 0.74151 0.0
C1676 C 0.71567 0.17755 0.73195 0.0
C1677 C 0.73245 0.159 0.71603 0.0
C1678 C 0.6517 0.1322 0.74501 0.0
C1679 C 0.72621 0.20627 0.73824 0.0
H1680 H 0.61843 0.23362 0.74825 0.0
H1681 H 0.65727 0.20837 0.83085 0.0
H1682 H 0.66981 0.20837 0.69905 0.0
H1683 H 0.64252 0.18374 0.70191 0.0
H1684 H 0.63452 0.22001 0.70089 0.0
H1685 H 0.69179 0.17479 0.83243 0.0
H1686 H 0.68895 0.1495 0.80278 0.0
H1687 H 0.71448 0.17596 0.80025 0.0
H1688 H 0.68943 0.10372 0.71272 0.0
H1689 H 0.75273 0.16541 0.70849 0.0
H1690 H 0.63526 0.14534 0.73525 0.0
H1691 H 0.65013 0.13389 0.7699 0.0
H1692 H 0.64773 0.11046 0.73843 0.0
H1693 H 0.71196 0.22172 0.72835 0.0
H1694 H 0.74718 0.20972 0.72889 0.0
H1695 H 0.72682 0.21001 0.76291 0.0
C1696 C 0.01437 0.42718 0.25851 0.0
C1697 C 0.01491 0.42718 0.29012 0.0
C1698 C 0.99648 0.44461 0.24258 0.0
C1699 C 0.97934 0.46311 0.25863 0.0
C1700 C 0.98012 0.4636 0.29051 0.0
C1701 C 0.99785 0.44557 0.30587 0.0
C1702 C 0.99615 0.44344 0.20855 0.0
C1703 C 0.96247 0.48337 0.30838 0.0
C1704 C 0.95435 0.52643 0.21649 0.0
C1705 C 0.92703 0.51925 0.20995 0.0
C1706 C 0.97149 0.50849 0.23272 0.0
C1707 C 0.96117 0.48253 0.242 0.0
C1708 C 0.93365 0.47507 0.23512 0.0
C1709 C 0.91683 0.49362 0.21927 0.0
C1710 C 1.00059 0.51736 0.24001 0.0
C1711 C 0.92212 0.44735 0.24415 0.0
H1712 H 0.02836 0.41407 0.24607 0.0
H1713 H 0.99836 0.44586 0.3303 0.0
H1714 H 0.9748 0.44007 0.20034 0.0
H1715 H 1.00331 0.46339 0.19916 0.0
H1716 H 0.00953 0.42676 0.19956 0.0
H1717 H 0.96546 0.48108 0.33309 0.0
H1718 H 0.96746 0.50491 0.30195 0.0
H1719 H 0.94037 0.47997 0.3031 0.0
H1720 H 0.9622 0.54629 0.20924 0.0
H1721 H 0.89589 0.48782 0.21358 0.0
H1722 H 0.01554 0.50288 0.22962 0.0
H1723 H 1.00396 0.5167 0.26475 0.0
H1724 H 0.00518 0.53852 0.23184 0.0
H1725 H 0.93456 0.43065 0.23377 0.0
H1726 H 0.90027 0.44476 0.23716 0.0
H1727 H 0.92345 0.44474 0.26895 0.0
C1728 C 0.66555 0.92802 0.19855 0.0
C1729 C 0.63851 0.9239 0.20857 0.0
C1730 C 0.68383 0.94474 0.21489 0.0
C1731 C 0.67443 0.95824 0.24127 0.0
C1732 C 0.64699 0.95419 0.25132 0.0
C1733 C 0.6294 0.93678 0.23495 0.0
C1734 C 0.71311 0.94803 0.20389 0.0
C1735 C 0.63603 0.96873 0.27894 0.0
C1736 C 0.72521 0.98551 0.29919 0.0
C1737 C 0.727 0.01326 0.29089 0.0
C1738 C 0.7087 0.96714 0.28272 0.0
C1739 C 0.69308 0.9771 0.25803 0.0
C1740 C 0.69485 0.00526 0.24971 0.0
C1741 C 0.71212 0.02298 0.26609 0.0
C1742 C 0.70788 0.93714 0.29178 0.0
C1743 C 0.67806 0.01677 0.22396 0.0
H1744 H 0.67242 0.91795 0.17805 0.0
H1745 H 0.60826 0.93383 0.24226 0.0
H1746 H 0.71704 0.96987 0.19785 0.0
H1747 H 0.72778 0.94251 0.22213 0.0
H1748 H 0.71754 0.93497 0.18389 0.0
H1749 H 0.61417 0.96339 0.28366 0.0
H1750 H 0.64862 0.96328 0.29894 0.0
H1751 H 0.63761 0.99138 0.27585 0.0
H1752 H 0.73688 0.9782 0.31845 0.0
H1753 H 0.71348 0.0446 0.26003 0.0
H1754 H 0.71317 0.92393 0.27219 0.0
H1755 H 0.68673 0.93147 0.29902 0.0
H1756 H 0.72238 0.93247 0.31049 0.0
H1757 H 0.68313 0.00576 0.20275 0.0
H1758 H 0.6817 0.03917 0.22052 0.0
H1759 H 0.65577 0.01348 0.22838 0.0
C1760 C 0.12476 0.69833 0.2841 0.0
C1761 C 0.13214 0.72561 0.29055 0.0
C1762 C 0.14247 0.68109 0.26772 0.0
C1763 C 0.16842 0.69125 0.2582 0.0
C1764 C 0.17609 0.71874 0.26495 0.0
C1765 C 0.15775 0.73567 0.28097 0.0
C1766 C 0.1334 0.65202 0.26057 0.0
C1767 C 0.2038 0.7301 0.25565 0.0
C1768 C 0.22334 0.63769 0.24143 0.0
C1769 C 0.22312 0.63706 0.20983 0.0
C1770 C 0.20613 0.65574 0.25744 0.0
C1771 C 0.18763 0.67294 0.24147 0.0
C1772 C 0.18692 0.67205 0.2096 0.0
C1773 C 0.20473 0.65416 0.19416 0.0
C1774 C 0.20753 0.65617 0.29145 0.0
C1775 C 0.16713 0.68977 0.19182 0.0
H1776 H 0.10491 0.6906 0.29155 0.0
H1777 H 0.1637 0.75658 0.28658 0.0
H1778 H 0.13389 0.6486 0.23584 0.0
H1779 H 0.14785 0.63703 0.2709 0.0
H1780 H 0.11225 0.64757 0.26891 0.0
H1781 H 0.20654 0.75196 0.26252 0.0
H1782 H 0.22051 0.71763 0.26594 0.0
H1783 H 0.20624 0.72866 0.23083 0.0
H1784 H 0.23646 0.62366 0.25381 0.0
H1785 H 0.20429 0.65358 0.16973 0.0
H1786 H 0.1876 0.64917 0.30104 0.0
H1787 H 0.21109 0.67753 0.29956 0.0
H1788 H 0.2242 0.64273 0.30035 0.0
H1789 H 0.1456 0.68492 0.19844 0.0
H1790 H 0.16925 0.6867 0.16711 0.0
H1791 H 0.17069 0.71186 0.19701 0.0
C1792 C 0.41659 0.15994 0.28069 0.0
C1793 C 0.42669 0.13434 0.29022 0.0
C1794 C 0.43347 0.1783 0.26464 0.0
C1795 C 0.46095 0.17067 0.25779 0.0
C1796 C 0.47115 0.14471 0.26723 0.0
C1797 C 0.45395 0.12698 0.28365 0.0
C1798 C 0.42206 0.20602 0.25543 0.0
C1799 C 0.50021 0.13567 0.25997 0.0
C1800 C 0.49789 0.20742 0.19393 0.0
C1801 C 0.5149 0.22582 0.2097 0.0
C1802 C 0.4801 0.18943 0.20928 0.0
C1803 C 0.47924 0.18997 0.24116 0.0
C1804 C 0.49639 0.20844 0.25723 0.0
C1805 C 0.51434 0.22583 0.24131 0.0
C1806 C 0.46244 0.16967 0.1914 0.0
C1807 C 0.496 0.20965 0.29125 0.0
H1808 H 0.39568 0.16587 0.28638 0.0
H1809 H 0.46172 0.10714 0.29105 0.0
H1810 H 0.43452 0.22271 0.26579 0.0
H1811 H 0.4235 0.20853 0.23063 0.0
H1812 H 0.40019 0.2087 0.26232 0.0
H1813 H 0.50466 0.11449 0.26817 0.0
H1814 H 0.5036 0.13629 0.23524 0.0
H1815 H 0.51522 0.15007 0.27036 0.0
H1816 H 0.49844 0.20713 0.1695 0.0
H1817 H 0.52832 0.23895 0.25375 0.0
H1818 H 0.44033 0.17317 0.19657 0.0
H1819 H 0.46732 0.14813 0.19793 0.0
H1820 H 0.46553 0.17188 0.1667 0.0
H1821 H 0.47465 0.21317 0.29941 0.0
H1822 H 0.50947 0.22626 0.30025 0.0
H1823 H 0.503 0.18967 0.30069 0.0
loop_
_geom_bond_atom_site_label_1
_geom_bond_atom_site_label_2
_geom_bond_distance
_geom_bond_site_symmetry_2
_ccdc_geom_bond_type
Co0 O3 1.970 . S
Co0 N17 1.989 . S
Co0 O25 1.967 . S
Co0 O32 1.920 . S
Co1 O4 1.966 . S
Co1 N10 2.022 . S
Co1 N18 1.993 . S
Co1 O26 1.941 . S
C2 O3 1.258 . S
C2 O4 1.263 . S
O3 Co0 1.970 . S
O3 C2 1.258 . S
O4 Co1 1.966 . S
O4 C2 1.263 . S
C5 O6 1.235 . S
C5 O32 1.289 . S
O6 C5 1.235 . S
C7 C9 1.400 . S
C7 N10 1.351 . S
C7 C12 1.501 . S
C8 C9 1.387 . S
C8 N11 1.341 . S
C9 C7 1.400 . S
C9 C8 1.387 . S
N10 Co1 2.022 . S
N10 C7 1.351 . S
N10 N11 1.365 . S
N11 C8 1.341 . S
N11 N10 1.365 . S
N11 H31 0.862 . S
C12 C7 1.501 . S
C12 H13 0.961 . S
C12 H14 0.961 . S
C12 H15 0.960 1_455 S
H13 C12 0.961 . S
H14 C12 0.961 . S
H15 C12 0.960 1_655 S
C16 N17 1.342 . S
C16 C20 1.401 . S
C16 C21 1.499 . S
N17 Co0 1.989 . S
N17 C16 1.342 . S
N17 N18 1.388 . S
N18 Co1 1.993 . S
N18 N17 1.388 . S
N18 C19 1.346 . S
C19 N18 1.346 . S
C19 C20 1.396 . S
C19 C29 1.510 . S
C20 C16 1.401 . S
C20 C19 1.396 . S
C21 C16 1.499 . S
C21 H22 0.959 . S
C21 H23 0.960 . S
C21 H24 0.961 . S
H22 C21 0.959 . S
H23 C21 0.960 . S
H24 C21 0.961 . S
O25 Co0 1.967 . S
O25 C33 1.258 . S
O26 Co1 1.941 . S
O26 C33 1.266 . S
H27 C29 0.959 . S
H28 C29 0.961 . S
C29 C19 1.510 . S
C29 H27 0.959 . S
C29 H28 0.961 . S
C29 H30 0.960 . S
H30 C29 0.960 . S
H31 N11 0.862 . S
O32 Co0 1.920 . S
O32 C5 1.289 . S
C33 O25 1.258 . S
C33 O26 1.266 . S
Co34 O37 1.970 . S
Co34 N51 1.989 . S
Co34 O59 1.967 . S
Co34 O66 1.920 . S
Co35 O38 1.966 . S
Co35 N44 2.022 . S
Co35 N52 1.993 . S
Co35 O60 1.941 . S
C36 O37 1.258 . S
C36 O38 1.263 . S
O37 Co34 1.970 . S
O37 C36 1.258 . S
O38 Co35 1.966 . S
O38 C36 1.263 . S
C39 O40 1.235 . S
C39 O66 1.289 . S
O40 C39 1.235 . S
C41 C43 1.400 . S
C41 N44 1.351 . S
C41 C46 1.501 . S
C42 C43 1.387 . S
C42 N45 1.341 . S
C43 C41 1.400 . S
C43 C42 1.387 . S
N44 Co35 2.022 . S
N44 C41 1.351 . S
N44 N45 1.365 . S
N45 C42 1.341 . S
N45 N44 1.365 . S
N45 H65 0.862 . S
C46 C41 1.501 . S
C46 H47 0.961 . S
C46 H48 0.961 . S
C46 H49 0.960 1_545 S
H47 C46 0.961 . S
H48 C46 0.961 . S
H49 C46 0.960 1_565 S
C50 N51 1.342 . S
C50 C54 1.401 . S
C50 C55 1.499 . S
N51 Co34 1.989 . S
N51 C50 1.342 . S
N51 N52 1.388 . S
N52 Co35 1.993 . S
N52 N51 1.388 . S
N52 C53 1.346 . S
C53 N52 1.346 . S
C53 C54 1.396 . S
C53 C63 1.510 . S
C54 C50 1.401 . S
C54 C53 1.396 . S
C55 C50 1.499 . S
C55 H56 0.959 . S
C55 H57 0.960 . S
C55 H58 0.961 . S
H56 C55 0.959 . S
H57 C55 0.960 . S
H58 C55 0.961 . S
O59 Co34 1.967 . S
O59 C67 1.258 . S
O60 Co35 1.941 . S
O60 C67 1.266 . S
H61 C63 0.959 . S
H62 C63 0.961 . S
C63 C53 1.510 . S
C63 H61 0.959 . S
C63 H62 0.961 . S
C63 H64 0.960 . S
H64 C63 0.960 . S
H65 N45 0.862 . S
O66 Co34 1.920 . S
O66 C39 1.289 . S
C67 O59 1.258 . S
C67 O60 1.266 . S
Co68 O71 1.970 . S
Co68 N85 1.989 . S
Co68 O93 1.967 . S
Co68 O100 1.941 . S
Co69 O72 1.966 . S
Co69 N78 2.022 . S
Co69 N86 1.993 . S
Co69 O94 1.941 . S
C70 O71 1.258 . S
C70 O72 1.263 . S
O71 Co68 1.970 . S
O71 C70 1.258 . S
O72 Co69 1.966 . S
O72 C70 1.263 . S
C73 O74 1.239 . S
C73 O100 1.280 1_655 S
O74 C73 1.239 . S
C75 C77 1.400 . S
C75 N78 1.351 . S
C75 C80 1.501 . S
C76 C77 1.387 . S
C76 N79 1.341 . S
C77 C75 1.400 . S
C77 C76 1.387 . S
N78 Co69 2.022 . S
N78 C75 1.351 . S
N78 N79 1.365 . S
N79 C76 1.341 . S
N79 N78 1.365 . S
N79 H99 0.862 . S
C80 C75 1.501 . S
C80 H81 0.961 . S
C80 H82 0.961 . S
C80 H83 0.960 . S
H81 C80 0.961 . S
H82 C80 0.961 . S
H83 C80 0.960 . S
C84 N85 1.342 1_655 S
C84 C88 1.399 1_655 S
C84 C89 1.499 . S
N85 Co68 1.989 . S
N85 C84 1.342 1_455 S
N85 N86 1.388 . S
N86 Co69 1.993 . S
N86 N85 1.388 . S
N86 C87 1.346 . S
C87 N86 1.346 . S
C87 C88 1.413 . S
C87 C97 1.510 . S
C88 C84 1.399 1_455 S
C88 C87 1.413 . S
C89 C84 1.499 . S
C89 H90 0.959 . S
C89 H91 0.960 . S
C89 H92 0.961 . S
H90 C89 0.959 . S
H91 C89 0.960 . S
H92 C89 0.961 . S
O93 Co68 1.967 . S
O93 C101 1.258 . S
O94 Co69 1.941 . S
O94 C101 1.266 . S
H95 C97 0.959 . S
H96 C97 0.961 . S
C97 C87 1.510 . S
C97 H95 0.959 . S
C97 H96 0.961 . S
C97 H98 0.960 . S
H98 C97 0.960 . S
H99 N79 0.862 . S
O100 Co68 1.941 . S
O100 C73 1.280 1_455 S
C101 O93 1.258 . S
C101 O94 1.266 . S
Co102 O105 1.970 . S
Co102 N119 1.989 . S
Co102 O127 1.967 . S
Co102 O134 1.941 . S
Co103 O106 1.966 . S
Co103 N112 2.022 . S
Co103 N120 1.993 . S
Co103 O128 1.941 . S
C104 O105 1.258 . S
C104 O106 1.263 . S
O105 Co102 1.970 . S
O105 C104 1.258 . S
O106 Co103 1.966 . S
O106 C104 1.263 . S
C107 O108 1.239 . S
C107 O134 1.280 1_565 S
O108 C107 1.239 . S
C109 C111 1.400 . S
C109 N112 1.351 . S
C109 C114 1.501 . S
C110 C111 1.387 . S
C110 N113 1.341 . S
C111 C109 1.400 . S
C111 C110 1.387 . S
N112 Co103 2.022 . S
N112 C109 1.351 . S
N112 N113 1.365 . S
N113 C110 1.341 . S
N113 N112 1.365 . S
N113 H133 0.862 . S
C114 C109 1.501 . S
C114 H115 0.961 . S
C114 H116 0.961 . S
C114 H117 0.960 . S
H115 C114 0.961 . S
H116 C114 0.961 . S
H117 C114 0.960 . S
C118 N119 1.342 1_565 S
C118 C122 1.399 1_565 S
C118 C123 1.499 . S
N119 Co102 1.989 . S
N119 C118 1.342 1_545 S
N119 N120 1.388 . S
N120 Co103 1.993 . S
N120 N119 1.388 . S
N120 C121 1.346 . S
C121 N120 1.346 . S
C121 C122 1.413 . S
C121 C131 1.510 . S
C122 C118 1.399 1_545 S
C122 C121 1.413 . S
C123 C118 1.499 . S
C123 H124 0.959 . S
C123 H125 0.960 . S
C123 H126 0.961 . S
H124 C123 0.959 . S
H125 C123 0.960 . S
H126 C123 0.961 . S
O127 Co102 1.967 . S
O127 C135 1.258 . S
O128 Co103 1.941 . S
O128 C135 1.266 . S
H129 C131 0.959 . S
H130 C131 0.961 . S
C131 C121 1.510 . S
C131 H129 0.959 . S
C131 H130 0.961 . S
C131 H132 0.960 . S
H132 C131 0.960 . S
H133 N113 0.862 . S
O134 Co102 1.941 . S
O134 C107 1.280 1_545 S
C135 O127 1.258 . S
C135 O128 1.266 . S
Co136 O139 1.970 . S
Co136 N153 1.989 . S
Co136 O161 1.967 . S
Co136 O168 1.920 . S
Co137 O140 1.966 . S
Co137 N146 2.022 . S
Co137 N154 1.993 . S
Co137 O162 1.941 . S
C138 O139 1.258 . S
C138 O140 1.263 . S
O139 Co136 1.970 . S
O139 C138 1.258 . S
O140 Co137 1.966 . S
O140 C138 1.263 . S
C141 O142 1.235 . S
C141 O168 1.289 . S
O142 C141 1.235 . S
C143 C145 1.400 . S
C143 N146 1.351 . S
C143 C148 1.501 . S
C144 C145 1.387 . S
C144 N147 1.341 . S
C145 C143 1.400 . S
C145 C144 1.387 . S
N146 Co137 2.022 . S
N146 C143 1.351 . S
N146 N147 1.365 . S
N147 C144 1.341 . S
N147 N146 1.365 . S
N147 H167 0.862 . S
C148 C143 1.501 . S
C148 H149 0.961 . S
C148 H150 0.961 . S
C148 H151 0.960 1_455 S
H149 C148 0.961 . S
H150 C148 0.961 . S
H151 C148 0.960 1_655 S
C152 N153 1.342 . S
C152 C156 1.401 . S
C152 C157 1.499 . S
N153 Co136 1.989 . S
N153 C152 1.342 . S
N153 N154 1.388 . S
N154 Co137 1.993 . S
N154 N153 1.388 . S
N154 C155 1.346 . S
C155 N154 1.346 . S
C155 C156 1.396 . S
C155 C165 1.510 . S
C156 C152 1.401 . S
C156 C155 1.396 . S
C157 C152 1.499 . S
C157 H158 0.959 . S
C157 H159 0.960 . S
C157 H160 0.961 . S
H158 C157 0.959 . S
H159 C157 0.960 . S
H160 C157 0.961 . S
O161 Co136 1.967 . S
O161 C169 1.258 . S
O162 Co137 1.941 . S
O162 C169 1.266 . S
H163 C165 0.959 . S
H164 C165 0.961 . S
C165 C155 1.510 . S
C165 H163 0.959 . S
C165 H164 0.961 . S
C165 H166 0.960 . S
H166 C165 0.960 . S
H167 N147 0.862 . S
O168 Co136 1.920 . S
O168 C141 1.289 . S
C169 O161 1.258 . S
C169 O162 1.266 . S
Co170 O173 1.970 . S
Co170 N187 1.989 . S
Co170 O195 1.967 . S
Co170 O202 1.920 . S
Co171 O174 1.966 . S
Co171 N180 2.022 . S
Co171 N188 1.993 . S
Co171 O196 1.941 . S
C172 O173 1.258 . S
C172 O174 1.263 . S
O173 Co170 1.970 . S
O173 C172 1.258 . S
O174 Co171 1.966 . S
O174 C172 1.263 . S
C175 O176 1.235 . S
C175 O202 1.289 . S
O176 C175 1.235 . S
C177 C179 1.400 . S
C177 N180 1.351 . S
C177 C182 1.501 . S
C178 C179 1.387 . S
C178 N181 1.341 . S
C179 C177 1.400 . S
C179 C178 1.387 . S
N180 Co171 2.022 . S
N180 C177 1.351 . S
N180 N181 1.365 . S
N181 C178 1.341 . S
N181 N180 1.365 . S
N181 H201 0.862 . S
C182 C177 1.501 . S
C182 H183 0.961 . S
C182 H184 0.961 . S
C182 H185 0.960 1_545 S
H183 C182 0.961 . S
H184 C182 0.961 . S
H185 C182 0.960 1_565 S
C186 N187 1.342 . S
C186 C190 1.401 . S
C186 C191 1.499 . S
N187 Co170 1.989 . S
N187 C186 1.342 . S
N187 N188 1.388 . S
N188 Co171 1.993 . S
N188 N187 1.388 . S
N188 C189 1.346 . S
C189 N188 1.346 . S
C189 C190 1.396 . S
C189 C199 1.510 . S
C190 C186 1.401 . S
C190 C189 1.396 . S
C191 C186 1.499 . S
C191 H192 0.959 . S
C191 H193 0.960 . S
C191 H194 0.961 . S
H192 C191 0.959 . S
H193 C191 0.960 . S
H194 C191 0.961 . S
O195 Co170 1.967 . S
O195 C203 1.258 . S
O196 Co171 1.941 . S
O196 C203 1.266 . S
H197 C199 0.959 . S
H198 C199 0.961 . S
C199 C189 1.510 . S
C199 H197 0.959 . S
C199 H198 0.961 . S
C199 H200 0.960 . S
H200 C199 0.960 . S
H201 N181 0.862 . S
O202 Co170 1.920 . S
O202 C175 1.289 . S
C203 O195 1.258 . S
C203 O196 1.266 . S
Co204 O207 1.970 . S
Co204 N221 1.989 . S
Co204 O229 1.967 . S
Co204 O236 1.941 . S
Co205 O208 1.966 . S
Co205 N214 2.022 . S
Co205 N222 1.993 . S
Co205 O230 1.941 . S
C206 O207 1.258 . S
C206 O208 1.263 . S
O207 Co204 1.970 . S
O207 C206 1.258 . S
O208 Co205 1.966 . S
O208 C206 1.263 . S
C209 O210 1.239 . S
C209 O236 1.280 1_655 S
O210 C209 1.239 . S
C211 C213 1.400 . S
C211 N214 1.351 . S
C211 C216 1.501 . S
C212 C213 1.387 . S
C212 N215 1.341 . S
C213 C211 1.400 . S
C213 C212 1.387 . S
N214 Co205 2.022 . S
N214 C211 1.351 . S
N214 N215 1.365 . S
N215 C212 1.341 . S
N215 N214 1.365 . S
N215 H235 0.862 . S
C216 C211 1.501 . S
C216 H217 0.961 . S
C216 H218 0.961 . S
C216 H219 0.960 . S
H217 C216 0.961 . S
H218 C216 0.961 . S
H219 C216 0.960 . S
C220 N221 1.342 1_655 S
C220 C224 1.399 1_655 S
C220 C225 1.499 . S
N221 Co204 1.989 . S
N221 C220 1.342 1_455 S
N221 N222 1.388 . S
N222 Co205 1.993 . S
N222 N221 1.388 . S
N222 C223 1.346 . S
C223 N222 1.346 . S
C223 C224 1.413 . S
C223 C233 1.510 . S
C224 C220 1.399 1_455 S
C224 C223 1.413 . S
C225 C220 1.499 . S
C225 H226 0.959 . S
C225 H227 0.960 . S
C225 H228 0.961 . S
H226 C225 0.959 . S
H227 C225 0.960 . S
H228 C225 0.961 . S
O229 Co204 1.967 . S
O229 C237 1.258 . S
O230 Co205 1.941 . S
O230 C237 1.266 . S
H231 C233 0.959 . S
H232 C233 0.961 . S
C233 C223 1.510 . S
C233 H231 0.959 . S
C233 H232 0.961 . S
C233 H234 0.960 . S
H234 C233 0.960 . S
H235 N215 0.862 . S
O236 Co204 1.941 . S
O236 C209 1.280 1_455 S
C237 O229 1.258 . S
C237 O230 1.266 . S
Co238 O241 1.970 . S
Co238 N255 1.989 . S
Co238 O263 1.967 . S
Co238 O270 1.941 . S
Co239 O242 1.966 . S
Co239 N248 2.022 . S
Co239 N256 1.993 . S
Co239 O264 1.941 . S
C240 O241 1.258 . S
C240 O242 1.263 . S
O241 Co238 1.970 . S
O241 C240 1.258 . S
O242 Co239 1.966 . S
O242 C240 1.263 . S
C243 O244 1.239 . S
C243 O270 1.280 1_565 S
O244 C243 1.239 . S
C245 C247 1.400 . S
C245 N248 1.351 . S
C245 C250 1.501 . S
C246 C247 1.387 . S
C246 N249 1.341 . S
C247 C245 1.400 . S
C247 C246 1.387 . S
N248 Co239 2.022 . S
N248 C245 1.351 . S
N248 N249 1.365 . S
N249 C246 1.341 . S
N249 N248 1.365 . S
N249 H269 0.862 . S
C250 C245 1.501 . S
C250 H251 0.961 . S
C250 H252 0.961 . S
C250 H253 0.960 . S
H251 C250 0.961 . S
H252 C250 0.961 . S
H253 C250 0.960 . S
C254 N255 1.342 1_565 S
C254 C258 1.399 1_565 S
C254 C259 1.499 . S
N255 Co238 1.989 . S
N255 C254 1.342 1_545 S
N255 N256 1.388 . S
N256 Co239 1.993 . S
N256 N255 1.388 . S
N256 C257 1.346 . S
C257 N256 1.346 . S
C257 C258 1.413 . S
C257 C267 1.510 . S
C258 C254 1.399 1_545 S
C258 C257 1.413 . S
C259 C254 1.499 . S
C259 H260 0.959 . S
C259 H261 0.960 . S
C259 H262 0.961 . S
H260 C259 0.959 . S
H261 C259 0.960 . S
H262 C259 0.961 . S
O263 Co238 1.967 . S
O263 C271 1.258 . S
O264 Co239 1.941 . S
O264 C271 1.266 . S
H265 C267 0.959 . S
H266 C267 0.961 . S
C267 C257 1.510 . S
C267 H265 0.959 . S
C267 H266 0.961 . S
C267 H268 0.960 . S
H268 C267 0.960 . S
H269 N249 0.862 . S
O270 Co238 1.941 . S
O270 C243 1.280 1_545 S
C271 O263 1.258 . S
C271 O264 1.266 . S
Co272 O275 1.970 . S
Co272 N289 1.989 . S
Co272 O297 1.967 . S
Co272 O304 1.920 . S
Co273 O276 1.966 . S
Co273 N282 2.022 . S
Co273 N290 1.993 . S
Co273 O298 1.941 . S
C274 O275 1.258 . S
C274 O276 1.263 . S
O275 Co272 1.970 . S
O275 C274 1.258 . S
O276 Co273 1.966 . S
O276 C274 1.263 . S
C277 O278 1.235 . S
C277 O304 1.289 . S
O278 C277 1.235 . S
C279 C281 1.400 . S
C279 N282 1.351 . S
C279 C284 1.501 . S
C280 C281 1.387 . S
C280 N283 1.341 . S
C281 C279 1.400 . S
C281 C280 1.387 . S
N282 Co273 2.022 . S
N282 C279 1.351 . S
N282 N283 1.365 . S
N283 C280 1.341 . S
N283 N282 1.365 . S
N283 H303 0.862 . S
C284 C279 1.501 . S
C284 H285 0.961 . S
C284 H286 0.961 . S
C284 H287 0.960 . S
H285 C284 0.961 . S
H286 C284 0.961 . S
H287 C284 0.960 . S
C288 N289 1.342 . S
C288 C292 1.401 . S
C288 C293 1.499 . S
N289 Co272 1.989 . S
N289 C288 1.342 . S
N289 N290 1.388 . S
N290 Co273 1.993 . S
N290 N289 1.388 . S
N290 C291 1.346 . S
C291 N290 1.346 . S
C291 C292 1.396 . S
C291 C301 1.510 . S
C292 C288 1.401 . S
C292 C291 1.396 . S
C293 C288 1.499 . S
C293 H294 0.959 . S
C293 H295 0.960 . S
C293 H296 0.961 . S
H294 C293 0.959 . S
H295 C293 0.960 . S
H296 C293 0.961 . S
O297 Co272 1.967 . S
O297 C305 1.258 . S
O298 Co273 1.941 . S
O298 C305 1.266 . S
H299 C301 0.959 . S
H300 C301 0.961 . S
C301 C291 1.510 . S
C301 H299 0.959 . S
C301 H300 0.961 . S
C301 H302 0.960 . S
H302 C301 0.960 . S
H303 N283 0.862 . S
O304 Co272 1.920 . S
O304 C277 1.289 . S
C305 O297 1.258 . S
C305 O298 1.266 . S
Co306 O309 1.970 . S
Co306 N323 1.989 . S
Co306 O331 1.967 . S
Co306 O338 1.920 . S
Co307 O310 1.966 . S
Co307 N316 2.022 . S
Co307 N324 1.993 . S
Co307 O332 1.941 . S
C308 O309 1.258 . S
C308 O310 1.263 . S
O309 Co306 1.970 . S
O309 C308 1.258 . S
O310 Co307 1.966 . S
O310 C308 1.263 . S
C311 O312 1.235 . S
C311 O338 1.289 . S
O312 C311 1.235 . S
C313 C315 1.400 . S
C313 N316 1.351 . S
C313 C318 1.501 . S
C314 C315 1.387 . S
C314 N317 1.341 . S
C315 C313 1.400 . S
C315 C314 1.387 . S
N316 Co307 2.022 . S
N316 C313 1.351 . S
N316 N317 1.365 . S
N317 C314 1.341 . S
N317 N316 1.365 . S
N317 H337 0.862 . S
C318 C313 1.501 . S
C318 H319 0.961 . S
C318 H320 0.961 . S
C318 H321 0.960 . S
H319 C318 0.961 . S
H320 C318 0.961 . S
H321 C318 0.960 . S
C322 N323 1.342 . S
C322 C326 1.401 . S
C322 C327 1.499 . S
N323 Co306 1.989 . S
N323 C322 1.342 . S
N323 N324 1.388 . S
N324 Co307 1.993 . S
N324 N323 1.388 . S
N324 C325 1.346 . S
C325 N324 1.346 . S
C325 C326 1.396 . S
C325 C335 1.510 . S
C326 C322 1.401 . S
C326 C325 1.396 . S
C327 C322 1.499 . S
C327 H328 0.959 . S
C327 H329 0.960 . S
C327 H330 0.961 . S
H328 C327 0.959 . S
H329 C327 0.960 . S
H330 C327 0.961 . S
O331 Co306 1.967 . S
O331 C339 1.258 . S
O332 Co307 1.941 . S
O332 C339 1.266 . S
H333 C335 0.959 . S
H334 C335 0.961 . S
C335 C325 1.510 . S
C335 H333 0.959 . S
C335 H334 0.961 . S
C335 H336 0.960 . S
H336 C335 0.960 . S
H337 N317 0.862 . S
O338 Co306 1.920 . S
O338 C311 1.289 . S
C339 O331 1.258 . S
C339 O332 1.266 . S
Co340 O343 1.970 . S
Co340 N357 1.989 . S
Co340 O365 1.967 . S
Co340 O372 1.920 . S
Co341 O344 1.966 . S
Co341 N350 2.022 . S
Co341 N358 1.993 . S
Co341 O366 1.941 . S
C342 O343 1.258 . S
C342 O344 1.263 . S
O343 Co340 1.970 . S
O343 C342 1.258 . S
O344 Co341 1.966 . S
O344 C342 1.263 . S
C345 O346 1.235 . S
C345 O372 1.289 . S
O346 C345 1.235 . S
C347 C349 1.400 . S
C347 N350 1.351 . S
C347 C352 1.501 . S
C348 C349 1.387 . S
C348 N351 1.341 . S
C349 C347 1.400 . S
C349 C348 1.387 . S
N350 Co341 2.022 . S
N350 C347 1.351 . S
N350 N351 1.365 . S
N351 C348 1.341 . S
N351 N350 1.365 . S
N351 H371 0.862 . S
C352 C347 1.501 . S
C352 H353 0.961 . S
C352 H354 0.961 . S
C352 H355 0.960 . S
H353 C352 0.961 . S
H354 C352 0.961 . S
H355 C352 0.960 . S
C356 N357 1.342 . S
C356 C360 1.401 . S
C356 C361 1.499 . S
N357 Co340 1.989 . S
N357 C356 1.342 . S
N357 N358 1.388 . S
N358 Co341 1.993 . S
N358 N357 1.388 . S
N358 C359 1.346 . S
C359 N358 1.346 . S
C359 C360 1.396 . S
C359 C369 1.510 . S
C360 C356 1.401 . S
C360 C359 1.396 . S
C361 C356 1.499 . S
C361 H362 0.959 . S
C361 H363 0.960 . S
C361 H364 0.961 . S
H362 C361 0.959 . S
H363 C361 0.960 . S
H364 C361 0.961 . S
O365 Co340 1.967 . S
O365 C373 1.258 . S
O366 Co341 1.941 . S
O366 C373 1.266 . S
H367 C369 0.959 . S
H368 C369 0.961 . S
C369 C359 1.510 . S
C369 H367 0.959 . S
C369 H368 0.961 . S
C369 H370 0.960 . S
H370 C369 0.960 . S
H371 N351 0.862 . S
O372 Co340 1.920 . S
O372 C345 1.289 . S
C373 O365 1.258 . S
C373 O366 1.266 . S
Co374 O377 1.970 . S
Co374 N391 1.989 . S
Co374 O399 1.967 . S
Co374 O406 1.920 . S
Co375 O378 1.966 . S
Co375 N384 2.022 . S
Co375 N392 1.993 . S
Co375 O400 1.941 . S
C376 O377 1.258 . S
C376 O378 1.263 . S
O377 Co374 1.970 . S
O377 C376 1.258 . S
O378 Co375 1.966 . S
O378 C376 1.263 . S
C379 O380 1.235 . S
C379 O406 1.289 . S
O380 C379 1.235 . S
C381 C383 1.400 . S
C381 N384 1.351 . S
C381 C386 1.501 . S
C382 C383 1.387 . S
C382 N385 1.341 . S
C383 C381 1.400 . S
C383 C382 1.387 . S
N384 Co375 2.022 . S
N384 C381 1.351 . S
N384 N385 1.365 . S
N385 C382 1.341 . S
N385 N384 1.365 . S
N385 H405 0.862 . S
C386 C381 1.501 . S
C386 H387 0.961 . S
C386 H388 0.961 . S
C386 H389 0.960 . S
H387 C386 0.961 . S
H388 C386 0.961 . S
H389 C386 0.960 . S
C390 N391 1.342 . S
C390 C394 1.401 . S
C390 C395 1.499 . S
N391 Co374 1.989 . S
N391 C390 1.342 . S
N391 N392 1.388 . S
N392 Co375 1.993 . S
N392 N391 1.388 . S
N392 C393 1.346 . S
C393 N392 1.346 . S
C393 C394 1.396 . S
C393 C403 1.510 . S
C394 C390 1.401 . S
C394 C393 1.396 . S
C395 C390 1.499 . S
C395 H396 0.959 . S
C395 H397 0.960 . S
C395 H398 0.961 . S
H396 C395 0.959 . S
H397 C395 0.960 . S
H398 C395 0.961 . S
O399 Co374 1.967 . S
O399 C407 1.258 . S
O400 Co375 1.941 . S
O400 C407 1.266 . S
H401 C403 0.959 . S
H402 C403 0.961 . S
C403 C393 1.510 . S
C403 H401 0.959 . S
C403 H402 0.961 . S
C403 H404 0.960 . S
H404 C403 0.960 . S
H405 N385 0.862 . S
O406 Co374 1.920 . S
O406 C379 1.289 . S
C407 O399 1.258 . S
C407 O400 1.266 . S
Co408 O411 1.970 . S
Co408 N425 1.989 . S
Co408 O433 1.967 . S
Co408 O440 1.920 . S
Co409 O412 1.966 . S
Co409 N418 2.022 . S
Co409 N426 1.993 . S
Co409 O434 1.941 . S
C410 O411 1.258 . S
C410 O412 1.263 . S
O411 Co408 1.970 . S
O411 C410 1.258 . S
O412 Co409 1.966 . S
O412 C410 1.263 . S
C413 O414 1.235 . S
C413 O440 1.289 . S
O414 C413 1.235 . S
C415 C417 1.400 . S
C415 N418 1.351 . S
C415 C420 1.501 . S
C416 C417 1.387 . S
C416 N419 1.341 . S
C417 C415 1.400 . S
C417 C416 1.387 . S
N418 Co409 2.022 . S
N418 C415 1.351 . S
N418 N419 1.365 . S
N419 C416 1.341 . S
N419 N418 1.365 . S
N419 H439 0.862 . S
C420 C415 1.501 . S
C420 H421 0.961 . S
C420 H422 0.961 . S
C420 H423 0.960 . S
H421 C420 0.961 . S
H422 C420 0.961 . S
H423 C420 0.960 . S
C424 N425 1.342 . S
C424 C428 1.401 . S
C424 C429 1.499 . S
N425 Co408 1.989 . S
N425 C424 1.342 . S
N425 N426 1.388 . S
N426 Co409 1.993 . S
N426 N425 1.388 . S
N426 C427 1.346 . S
C427 N426 1.346 . S
C427 C428 1.396 . S
C427 C437 1.510 . S
C428 C424 1.401 . S
C428 C427 1.396 . S
C429 C424 1.499 . S
C429 H430 0.959 . S
C429 H431 0.960 . S
C429 H432 0.961 . S
H430 C429 0.959 . S
H431 C429 0.960 . S
H432 C429 0.961 . S
O433 Co408 1.967 . S
O433 C441 1.258 . S
O434 Co409 1.941 . S
O434 C441 1.266 . S
H435 C437 0.959 . S
H436 C437 0.961 . S
C437 C427 1.510 . S
C437 H435 0.959 . S
C437 H436 0.961 . S
C437 H438 0.960 . S
H438 C437 0.960 . S
H439 N419 0.862 . S
O440 Co408 1.920 . S
O440 C413 1.289 . S
C441 O433 1.258 . S
C441 O434 1.266 . S
Co442 O445 1.970 . S
Co442 N459 1.989 . S
Co442 O467 1.967 . S
Co442 O474 1.920 . S
Co443 O446 1.966 . S
Co443 N452 2.022 . S
Co443 N460 1.993 . S
Co443 O468 1.941 . S
C444 O445 1.258 . S
C444 O446 1.263 . S
O445 Co442 1.970 . S
O445 C444 1.258 . S
O446 Co443 1.966 . S
O446 C444 1.263 . S
C447 O448 1.235 . S
C447 O474 1.289 . S
O448 C447 1.235 . S
C449 C451 1.400 . S
C449 N452 1.351 . S
C449 C454 1.501 . S
C450 C451 1.387 . S
C450 N453 1.341 . S
C451 C449 1.400 . S
C451 C450 1.387 . S
N452 Co443 2.022 . S
N452 C449 1.351 . S
N452 N453 1.365 . S
N453 C450 1.341 . S
N453 N452 1.365 . S
N453 H473 0.862 . S
C454 C449 1.501 . S
C454 H455 0.961 . S
C454 H456 0.961 . S
C454 H457 0.960 . S
H455 C454 0.961 . S
H456 C454 0.961 . S
H457 C454 0.960 . S
C458 N459 1.342 . S
C458 C462 1.401 . S
C458 C463 1.499 . S
N459 Co442 1.989 . S
N459 C458 1.342 . S
N459 N460 1.388 . S
N460 Co443 1.993 . S
N460 N459 1.388 . S
N460 C461 1.346 . S
C461 N460 1.346 . S
C461 C462 1.396 . S
C461 C471 1.510 . S
C462 C458 1.401 . S
C462 C461 1.396 . S
C463 C458 1.499 . S
C463 H464 0.959 . S
C463 H465 0.960 . S
C463 H466 0.961 . S
H464 C463 0.959 . S
H465 C463 0.960 . S
H466 C463 0.961 . S
O467 Co442 1.967 . S
O467 C475 1.258 . S
O468 Co443 1.941 . S
O468 C475 1.266 . S
H469 C471 0.959 . S
H470 C471 0.961 . S
C471 C461 1.510 . S
C471 H469 0.959 . S
C471 H470 0.961 . S
C471 H472 0.960 . S
H472 C471 0.960 . S
H473 N453 0.862 . S
O474 Co442 1.920 . S
O474 C447 1.289 . S
C475 O467 1.258 . S
C475 O468 1.266 . S
Co476 O479 1.970 . S
Co476 N493 1.989 . S
Co476 O501 1.967 . S
Co476 O508 1.920 . S
Co477 O480 1.966 . S
Co477 N486 2.022 . S
Co477 N494 1.993 . S
Co477 O502 1.941 . S
C478 O479 1.258 . S
C478 O480 1.263 . S
O479 Co476 1.970 . S
O479 C478 1.258 . S
O480 Co477 1.966 . S
O480 C478 1.263 . S
C481 O482 1.235 . S
C481 O508 1.289 . S
O482 C481 1.235 . S
C483 C485 1.400 . S
C483 N486 1.351 . S
C483 C488 1.501 . S
C484 C485 1.387 . S
C484 N487 1.341 . S
C485 C483 1.400 . S
C485 C484 1.387 . S
N486 Co477 2.022 . S
N486 C483 1.351 . S
N486 N487 1.365 . S
N487 C484 1.341 . S
N487 N486 1.365 . S
N487 H507 0.862 . S
C488 C483 1.501 . S
C488 H489 0.961 . S
C488 H490 0.961 . S
C488 H491 0.960 . S
H489 C488 0.961 . S
H490 C488 0.961 . S
H491 C488 0.960 . S
C492 N493 1.342 . S
C492 C496 1.401 . S
C492 C497 1.499 . S
N493 Co476 1.989 . S
N493 C492 1.342 . S
N493 N494 1.388 . S
N494 Co477 1.993 . S
N494 N493 1.388 . S
N494 C495 1.346 . S
C495 N494 1.346 . S
C495 C496 1.396 . S
C495 C505 1.510 . S
C496 C492 1.401 . S
C496 C495 1.396 . S
C497 C492 1.499 . S
C497 H498 0.959 . S
C497 H499 0.960 . S
C497 H500 0.961 . S
H498 C497 0.959 . S
H499 C497 0.960 . S
H500 C497 0.961 . S
O501 Co476 1.967 . S
O501 C509 1.258 . S
O502 Co477 1.941 . S
O502 C509 1.266 . S
H503 C505 0.959 . S
H504 C505 0.961 . S
C505 C495 1.510 . S
C505 H503 0.959 . S
C505 H504 0.961 . S
C505 H506 0.960 . S
H506 C505 0.960 . S
H507 N487 0.862 . S
O508 Co476 1.920 . S
O508 C481 1.289 . S
C509 O501 1.258 . S
C509 O502 1.266 . S
Co510 O513 1.970 . S
Co510 N527 1.989 . S
Co510 O535 1.967 . S
Co510 O542 1.920 . S
Co511 O514 1.966 . S
Co511 N520 2.022 . S
Co511 N528 1.993 . S
Co511 O536 1.941 . S
C512 O513 1.258 . S
C512 O514 1.263 . S
O513 Co510 1.970 . S
O513 C512 1.258 . S
O514 Co511 1.966 . S
O514 C512 1.263 . S
C515 O516 1.235 . S
C515 O542 1.289 . S
O516 C515 1.235 . S
C517 C519 1.400 . S
C517 N520 1.351 . S
C517 C522 1.501 . S
C518 C519 1.387 . S
C518 N521 1.341 . S
C519 C517 1.400 . S
C519 C518 1.387 . S
N520 Co511 2.022 . S
N520 C517 1.351 . S
N520 N521 1.365 . S
N521 C518 1.341 . S
N521 N520 1.365 . S
N521 H541 0.862 . S
C522 C517 1.501 . S
C522 H523 0.961 . S
C522 H524 0.961 . S
C522 H525 0.960 . S
H523 C522 0.961 . S
H524 C522 0.961 . S
H525 C522 0.960 . S
C526 N527 1.342 . S
C526 C530 1.401 . S
C526 C531 1.499 . S
N527 Co510 1.989 . S
N527 C526 1.342 . S
N527 N528 1.388 . S
N528 Co511 1.993 . S
N528 N527 1.388 . S
N528 C529 1.346 . S
C529 N528 1.346 . S
C529 C530 1.396 . S
C529 C539 1.510 . S
C530 C526 1.401 . S
C530 C529 1.396 . S
C531 C526 1.499 . S
C531 H532 0.959 . S
C531 H533 0.960 . S
C531 H534 0.961 . S
H532 C531 0.959 . S
H533 C531 0.960 . S
H534 C531 0.961 . S
O535 Co510 1.967 . S
O535 C543 1.258 . S
O536 Co511 1.941 . S
O536 C543 1.266 . S
H537 C539 0.959 . S
H538 C539 0.961 . S
C539 C529 1.510 . S
C539 H537 0.959 . S
C539 H538 0.961 . S
C539 H540 0.960 . S
H540 C539 0.960 . S
H541 N521 0.862 . S
O542 Co510 1.920 . S
O542 C515 1.289 . S
C543 O535 1.258 . S
C543 O536 1.266 . S
C544 C545 1.391 . S
C544 C546 1.394 . S
C544 H560 0.931 . S
C545 C544 1.391 . S
C545 C549 1.376 . S
C546 C544 1.394 . S
C546 C547 1.369 . S
C546 C550 1.531 . S
C547 C546 1.369 . S
C547 C548 1.410 . S
C547 C555 1.503 . S
C548 C547 1.410 . S
C548 C549 1.392 . S
C548 C551 1.511 . S
C549 C545 1.376 . S
C549 C548 1.392 . S
C549 H561 0.929 . S
C550 C546 1.531 . S
C550 H562 0.960 . S
C550 H563 0.962 . S
C550 H564 0.960 . S
C551 C548 1.511 . S
C551 H565 0.961 . S
C551 H566 0.961 . S
C551 H567 0.961 . S
C552 C553 1.370 . S
C552 C554 1.363 . S
C552 H568 0.931 . S
C553 C552 1.370 . S
C553 C557 1.408 . S
C554 C552 1.363 . S
C554 C555 1.370 . S
C554 C558 1.524 . S
C555 C547 1.503 . S
C555 C554 1.370 . S
C555 C556 1.403 . S
C556 C555 1.403 . S
C556 C557 1.404 . S
C556 C559 1.539 . S
C557 C553 1.408 . S
C557 C556 1.404 . S
C557 H569 0.930 . S
C558 C554 1.524 . S
C558 H570 0.956 . S
C558 H571 0.961 . S
C558 H572 0.961 . S
C559 C556 1.539 . S
C559 H573 0.958 . S
C559 H574 0.961 1_455 S
C559 H575 0.960 . S
H560 C544 0.931 . S
H561 C549 0.929 . S
H562 C550 0.960 . S
H563 C550 0.962 . S
H564 C550 0.960 . S
H565 C551 0.961 . S
H566 C551 0.961 . S
H567 C551 0.961 . S
H568 C552 0.931 . S
H569 C557 0.930 . S
H570 C558 0.956 . S
H571 C558 0.961 . S
H572 C558 0.961 . S
H573 C559 0.958 . S
H574 C559 0.961 1_655 S
H575 C559 0.960 . S
C576 C577 1.391 . S
C576 C578 1.394 . S
C576 H592 0.931 . S
C577 C576 1.391 . S
C577 C581 1.376 . S
C578 C576 1.394 . S
C578 C579 1.369 . S
C578 C582 1.531 . S
C579 C578 1.369 . S
C579 C580 1.410 . S
C579 C587 1.503 . S
C580 C579 1.410 . S
C580 C581 1.392 . S
C580 C583 1.511 . S
C581 C577 1.376 . S
C581 C580 1.392 . S
C581 H593 0.929 . S
C582 C578 1.531 . S
C582 H594 0.960 . S
C582 H595 0.962 . S
C582 H596 0.960 . S
C583 C580 1.511 . S
C583 H597 0.961 . S
C583 H598 0.961 . S
C583 H599 0.961 . S
C584 C585 1.370 . S
C584 C586 1.363 . S
C584 H600 0.931 . S
C585 C584 1.370 . S
C585 C589 1.408 . S
C586 C584 1.363 . S
C586 C587 1.370 . S
C586 C590 1.524 . S
C587 C579 1.503 . S
C587 C586 1.370 . S
C587 C588 1.403 . S
C588 C587 1.403 . S
C588 C589 1.404 . S
C588 C591 1.539 . S
C589 C585 1.408 . S
C589 C588 1.404 . S
C589 H601 0.930 . S
C590 C586 1.524 . S
C590 H602 0.956 . S
C590 H603 0.961 . S
C590 H604 0.961 . S
C591 C588 1.539 . S
C591 H605 0.958 . S
C591 H606 0.961 . S
C591 H607 0.960 . S
H592 C576 0.931 . S
H593 C581 0.929 . S
H594 C582 0.960 . S
H595 C582 0.962 . S
H596 C582 0.960 . S
H597 C583 0.961 . S
H598 C583 0.961 . S
H599 C583 0.961 . S
H600 C584 0.931 . S
H601 C589 0.930 . S
H602 C590 0.956 . S
H603 C590 0.961 . S
H604 C590 0.961 . S
H605 C591 0.958 . S
H606 C591 0.961 . S
H607 C591 0.960 . S
C608 C609 1.391 . S
C608 C610 1.394 . S
C608 H624 0.931 . S
C609 C608 1.391 . S
C609 C613 1.376 . S
C610 C608 1.394 . S
C610 C611 1.369 . S
C610 C614 1.531 . S
C611 C610 1.369 . S
C611 C612 1.410 . S
C611 C619 1.503 . S
C612 C611 1.410 . S
C612 C613 1.392 . S
C612 C615 1.511 . S
C613 C609 1.376 . S
C613 C612 1.392 . S
C613 H625 0.929 . S
C614 C610 1.531 . S
C614 H626 0.960 . S
C614 H627 0.962 . S
C614 H628 0.960 . S
C615 C612 1.511 . S
C615 H629 0.961 . S
C615 H630 0.961 . S
C615 H631 0.961 . S
C616 C617 1.370 . S
C616 C618 1.363 . S
C616 H632 0.931 . S
C617 C616 1.370 . S
C617 C621 1.408 . S
C618 C616 1.363 . S
C618 C619 1.370 . S
C618 C622 1.524 . S
C619 C611 1.503 . S
C619 C618 1.370 . S
C619 C620 1.403 . S
C620 C619 1.403 . S
C620 C621 1.404 . S
C620 C623 1.539 . S
C621 C617 1.408 . S
C621 C620 1.404 . S
C621 H633 0.930 . S
C622 C618 1.524 . S
C622 H634 0.956 . S
C622 H635 0.961 . S
C622 H636 0.961 . S
C623 C620 1.539 . S
C623 H637 0.958 . S
C623 H638 0.961 . S
C623 H639 0.960 . S
H624 C608 0.931 . S
H625 C613 0.929 . S
H626 C614 0.960 . S
H627 C614 0.962 . S
H628 C614 0.960 . S
H629 C615 0.961 . S
H630 C615 0.961 . S
H631 C615 0.961 . S
H632 C616 0.931 . S
H633 C621 0.930 . S
H634 C622 0.956 . S
H635 C622 0.961 . S
H636 C622 0.961 . S
H637 C623 0.958 . S
H638 C623 0.961 . S
H639 C623 0.960 . S
C640 C641 1.391 . S
C640 C642 1.394 . S
C640 H656 0.931 . S
C641 C640 1.391 . S
C641 C645 1.376 . S
C642 C640 1.394 . S
C642 C643 1.369 . S
C642 C646 1.531 . S
C643 C642 1.369 . S
C643 C644 1.410 . S
C643 C651 1.503 . S
C644 C643 1.410 . S
C644 C645 1.392 . S
C644 C647 1.511 . S
C645 C641 1.376 . S
C645 C644 1.392 . S
C645 H657 0.929 . S
C646 C642 1.531 . S
C646 H658 0.960 . S
C646 H659 0.962 . S
C646 H660 0.960 . S
C647 C644 1.511 . S
C647 H661 0.961 . S
C647 H662 0.961 . S
C647 H663 0.961 . S
C648 C649 1.370 . S
C648 C650 1.363 . S
C648 H664 0.931 . S
C649 C648 1.370 . S
C649 C653 1.408 . S
C650 C648 1.363 . S
C650 C651 1.370 . S
C650 C654 1.524 . S
C651 C643 1.503 . S
C651 C650 1.370 . S
C651 C652 1.403 . S
C652 C651 1.403 . S
C652 C653 1.404 . S
C652 C655 1.539 . S
C653 C649 1.408 . S
C653 C652 1.404 . S
C653 H665 0.930 . S
C654 C650 1.524 . S
C654 H666 0.956 . S
C654 H667 0.961 . S
C654 H668 0.961 . S
C655 C652 1.539 . S
C655 H669 0.958 . S
C655 H670 0.961 . S
C655 H671 0.960 . S
H656 C640 0.931 . S
H657 C645 0.929 . S
H658 C646 0.960 . S
H659 C646 0.962 . S
H660 C646 0.960 . S
H661 C647 0.961 . S
H662 C647 0.961 . S
H663 C647 0.961 . S
H664 C648 0.931 . S
H665 C653 0.930 . S
H666 C654 0.956 . S
H667 C654 0.961 . S
H668 C654 0.961 . S
H669 C655 0.958 . S
H670 C655 0.961 . S
H671 C655 0.960 . S
C672 C673 1.391 . S
C672 C674 1.394 . S
C672 H688 0.931 . S
C673 C672 1.391 . S
C673 C677 1.376 . S
C674 C672 1.394 . S
C674 C675 1.369 . S
C674 C678 1.531 . S
C675 C674 1.369 . S
C675 C676 1.410 . S
C675 C683 1.503 1_556 S
C676 C675 1.410 . S
C676 C677 1.392 . S
C676 C679 1.511 . S
C677 C673 1.376 . S
C677 C676 1.392 . S
C677 H689 0.929 . S
C678 C674 1.531 . S
C678 H690 0.960 1_556 S
C678 H691 0.962 . S
C678 H692 0.960 . S
C679 C676 1.511 . S
C679 H693 0.961 . S
C679 H694 0.961 . S
C679 H695 0.961 . S
C680 C681 1.370 . S
C680 C682 1.363 . S
C680 H696 0.931 . S
C681 C680 1.370 . S
C681 C685 1.408 . S
C682 C680 1.363 . S
C682 C683 1.370 . S
C682 C686 1.524 . S
C683 C675 1.503 1_554 S
C683 C682 1.370 . S
C683 C684 1.403 . S
C684 C683 1.403 . S
C684 C685 1.404 . S
C684 C687 1.539 . S
C685 C681 1.408 . S
C685 C684 1.404 . S
C685 H697 0.930 . S
C686 C682 1.524 . S
C686 H698 0.956 . S
C686 H699 0.961 . S
C686 H700 0.961 . S
C687 C684 1.539 . S
C687 H701 0.958 . S
C687 H702 0.961 . S
C687 H703 0.960 1_554 S
H688 C672 0.931 . S
H689 C677 0.929 . S
H690 C678 0.960 1_554 S
H691 C678 0.962 . S
H692 C678 0.960 . S
H693 C679 0.961 . S
H694 C679 0.961 . S
H695 C679 0.961 . S
H696 C680 0.931 . S
H697 C685 0.930 . S
H698 C686 0.956 . S
H699 C686 0.961 . S
H700 C686 0.961 . S
H701 C687 0.958 . S
H702 C687 0.961 . S
H703 C687 0.960 1_556 S
C704 C705 1.391 . S
C704 C706 1.394 . S
C704 H720 0.931 . S
C705 C704 1.391 . S
C705 C709 1.376 . S
C706 C704 1.394 . S
C706 C707 1.369 . S
C706 C710 1.531 . S
C707 C706 1.369 . S
C707 C708 1.410 . S
C707 C715 1.503 1_556 S
C708 C707 1.410 . S
C708 C709 1.392 . S
C708 C711 1.511 . S
C709 C705 1.376 . S
C709 C708 1.392 . S
C709 H721 0.929 . S
C710 C706 1.531 . S
C710 H722 0.960 1_556 S
C710 H723 0.962 . S
C710 H724 0.960 . S
C711 C708 1.511 . S
C711 H725 0.961 . S
C711 H726 0.961 . S
C711 H727 0.961 . S
C712 C713 1.370 . S
C712 C714 1.363 . S
C712 H728 0.931 . S
C713 C712 1.370 . S
C713 C717 1.408 . S
C714 C712 1.363 . S
C714 C715 1.370 . S
C714 C718 1.524 . S
C715 C707 1.503 1_554 S
C715 C714 1.370 . S
C715 C716 1.403 . S
C716 C715 1.403 . S
C716 C717 1.404 . S
C716 C719 1.539 . S
C717 C713 1.408 . S
C717 C716 1.404 . S
C717 H729 0.930 . S
C718 C714 1.524 . S
C718 H730 0.956 1_554 S
C718 H731 0.961 1_554 S
C718 H732 0.961 . S
C719 C716 1.539 . S
C719 H733 0.958 . S
C719 H734 0.961 . S
C719 H735 0.960 . S
H720 C704 0.931 . S
H721 C709 0.929 . S
H722 C710 0.960 1_554 S
H723 C710 0.962 . S
H724 C710 0.960 . S
H725 C711 0.961 . S
H726 C711 0.961 . S
H727 C711 0.961 . S
H728 C712 0.931 . S
H729 C717 0.930 . S
H730 C718 0.956 1_556 S
H731 C718 0.961 1_556 S
H732 C718 0.961 . S
H733 C719 0.958 . S
H734 C719 0.961 . S
H735 C719 0.960 . S
C736 C737 1.391 . S
C736 C738 1.394 . S
C736 H752 0.931 . S
C737 C736 1.391 . S
C737 C741 1.376 . S
C738 C736 1.394 . S
C738 C739 1.369 . S
C738 C742 1.531 . S
C739 C738 1.369 . S
C739 C740 1.410 . S
C739 C747 1.503 1_556 S
C740 C739 1.410 . S
C740 C741 1.392 . S
C740 C743 1.511 . S
C741 C737 1.376 . S
C741 C740 1.392 . S
C741 H753 0.929 . S
C742 C738 1.531 . S
C742 H754 0.960 1_556 S
C742 H755 0.962 . S
C742 H756 0.960 . S
C743 C740 1.511 . S
C743 H757 0.961 . S
C743 H758 0.961 . S
C743 H759 0.961 . S
C744 C745 1.370 . S
C744 C746 1.363 . S
C744 H760 0.931 . S
C745 C744 1.370 . S
C745 C749 1.408 . S
C746 C744 1.363 . S
C746 C747 1.370 . S
C746 C750 1.524 . S
C747 C739 1.503 1_554 S
C747 C746 1.370 . S
C747 C748 1.403 . S
C748 C747 1.403 . S
C748 C749 1.404 . S
C748 C751 1.539 . S
C749 C745 1.408 . S
C749 C748 1.404 . S
C749 H761 0.930 . S
C750 C746 1.524 . S
C750 H762 0.956 . S
C750 H763 0.961 . S
C750 H764 0.961 . S
C751 C748 1.539 . S
C751 H765 0.958 . S
C751 H766 0.961 . S
C751 H767 0.960 1_554 S
H752 C736 0.931 . S
H753 C741 0.929 . S
H754 C742 0.960 1_554 S
H755 C742 0.962 . S
H756 C742 0.960 . S
H757 C743 0.961 . S
H758 C743 0.961 . S
H759 C743 0.961 . S
H760 C744 0.931 . S
H761 C749 0.930 . S
H762 C750 0.956 . S
H763 C750 0.961 . S
H764 C750 0.961 . S
H765 C751 0.958 . S
H766 C751 0.961 . S
H767 C751 0.960 1_556 S
C768 C769 1.391 . S
C768 C770 1.394 . S
C768 H784 0.931 . S
C769 C768 1.391 . S
C769 C773 1.376 . S
C770 C768 1.394 . S
C770 C771 1.369 . S
C770 C774 1.531 . S
C771 C770 1.369 . S
C771 C772 1.410 . S
C771 C779 1.503 1_554 S
C772 C771 1.410 . S
C772 C773 1.392 . S
C772 C775 1.511 . S
C773 C769 1.376 . S
C773 C772 1.392 . S
C773 H785 0.929 . S
C774 C770 1.531 . S
C774 H786 0.960 1_554 S
C774 H787 0.962 . S
C774 H788 0.960 . S
C775 C772 1.511 . S
C775 H789 0.961 . S
C775 H790 0.961 1_554 S
C775 H791 0.961 . S
C776 C777 1.370 . S
C776 C778 1.363 . S
C776 H792 0.931 . S
C777 C776 1.370 . S
C777 C781 1.408 . S
C778 C776 1.363 . S
C778 C779 1.370 . S
C778 C782 1.524 . S
C779 C771 1.503 1_556 S
C779 C778 1.370 . S
C779 C780 1.403 . S
C780 C779 1.403 . S
C780 C781 1.404 . S
C780 C783 1.539 . S
C781 C777 1.408 . S
C781 C780 1.404 . S
C781 H793 0.930 . S
C782 C778 1.524 . S
C782 H794 0.956 1_556 S
C782 H795 0.961 1_556 S
C782 H796 0.961 . S
C783 C780 1.539 . S
C783 H797 0.958 . S
C783 H798 0.961 . S
C783 H799 0.960 . S
H784 C768 0.931 . S
H785 C773 0.929 . S
H786 C774 0.960 1_556 S
H787 C774 0.962 . S
H788 C774 0.960 . S
H789 C775 0.961 . S
H790 C775 0.961 1_556 S
H791 C775 0.961 . S
H792 C776 0.931 . S
H793 C781 0.930 . S
H794 C782 0.956 1_554 S
H795 C782 0.961 1_554 S
H796 C782 0.961 . S
H797 C783 0.958 . S
H798 C783 0.961 . S
H799 C783 0.960 . S
C800 C801 1.391 . S
C800 C802 1.394 . S
C800 H816 0.931 . S
C801 C800 1.391 . S
C801 C805 1.376 . S
C802 C800 1.394 . S
C802 C803 1.369 . S
C802 C806 1.531 . S
C803 C802 1.369 . S
C803 C804 1.410 . S
C803 C811 1.503 . S
C804 C803 1.410 . S
C804 C805 1.392 . S
C804 C807 1.511 . S
C805 C801 1.376 . S
C805 C804 1.392 . S
C805 H817 0.929 . S
C806 C802 1.531 . S
C806 H818 0.960 . S
C806 H819 0.962 . S
C806 H820 0.960 . S
C807 C804 1.511 . S
C807 H821 0.961 . S
C807 H822 0.961 . S
C807 H823 0.961 . S
C808 C809 1.370 . S
C808 C810 1.363 . S
C808 H824 0.931 . S
C809 C808 1.370 . S
C809 C813 1.408 . S
C810 C808 1.363 . S
C810 C811 1.370 . S
C810 C814 1.524 . S
C811 C803 1.503 . S
C811 C810 1.370 . S
C811 C812 1.403 . S
C812 C811 1.403 . S
C812 C813 1.404 . S
C812 C815 1.539 . S
C813 C809 1.408 . S
C813 C812 1.404 . S
C813 H825 0.930 . S
C814 C810 1.524 . S
C814 H826 0.956 . S
C814 H827 0.961 . S
C814 H828 0.961 . S
C815 C812 1.539 . S
C815 H829 0.958 . S
C815 H830 0.961 . S
C815 H831 0.960 . S
H816 C800 0.931 . S
H817 C805 0.929 . S
H818 C806 0.960 . S
H819 C806 0.962 . S
H820 C806 0.960 . S
H821 C807 0.961 . S
H822 C807 0.961 . S
H823 C807 0.961 . S
H824 C808 0.931 . S
H825 C813 0.930 . S
H826 C814 0.956 . S
H827 C814 0.961 . S
H828 C814 0.961 . S
H829 C815 0.958 . S
H830 C815 0.961 . S
H831 C815 0.960 . S
C832 C833 1.391 . S
C832 C834 1.394 . S
C832 H848 0.931 . S
C833 C832 1.391 . S
C833 C837 1.376 . S
C834 C832 1.394 . S
C834 C835 1.369 . S
C834 C838 1.531 . S
C835 C834 1.369 . S
C835 C836 1.410 . S
C835 C843 1.503 . S
C836 C835 1.410 . S
C836 C837 1.392 . S
C836 C839 1.511 . S
C837 C833 1.376 . S
C837 C836 1.392 . S
C837 H849 0.929 . S
C838 C834 1.531 . S
C838 H850 0.960 . S
C838 H851 0.962 . S
C838 H852 0.960 . S
C839 C836 1.511 . S
C839 H853 0.961 . S
C839 H854 0.961 . S
C839 H855 0.961 . S
C840 C841 1.370 . S
C840 C842 1.363 . S
C840 H856 0.931 . S
C841 C840 1.370 . S
C841 C845 1.408 . S
C842 C840 1.363 . S
C842 C843 1.370 1_455 S
C842 C846 1.524 . S
C843 C835 1.503 . S
C843 C842 1.370 1_655 S
C843 C844 1.403 . S
C844 C843 1.403 . S
C844 C845 1.404 1_655 S
C844 C847 1.539 . S
C845 C841 1.408 . S
C845 C844 1.404 1_455 S
C845 H857 0.930 . S
C846 C842 1.524 . S
C846 H858 0.956 . S
C846 H859 0.961 1_455 S
C846 H860 0.961 . S
C847 C844 1.539 . S
C847 H861 0.958 . S
C847 H862 0.961 . S
C847 H863 0.960 . S
H848 C832 0.931 . S
H849 C837 0.929 . S
H850 C838 0.960 . S
H851 C838 0.962 . S
H852 C838 0.960 . S
H853 C839 0.961 . S
H854 C839 0.961 . S
H855 C839 0.961 . S
H856 C840 0.931 . S
H857 C845 0.930 . S
H858 C846 0.956 . S
H859 C846 0.961 1_655 S
H860 C846 0.961 . S
H861 C847 0.958 . S
H862 C847 0.961 . S
H863 C847 0.960 . S
C864 C865 1.391 . S
C864 C866 1.394 1_545 S
C864 H880 0.931 . S
C865 C864 1.391 . S
C865 C869 1.376 . S
C866 C864 1.394 1_565 S
C866 C867 1.369 . S
C866 C870 1.531 . S
C867 C866 1.369 . S
C867 C868 1.410 1_565 S
C867 C875 1.503 . S
C868 C867 1.410 1_545 S
C868 C869 1.392 . S
C868 C871 1.511 . S
C869 C865 1.376 . S
C869 C868 1.392 . S
C869 H881 0.929 . S
C870 C866 1.531 . S
C870 H882 0.960 . S
C870 H883 0.962 . S
C870 H884 0.960 . S
C871 C868 1.511 . S
C871 H885 0.961 . S
C871 H886 0.961 . S
C871 H887 0.961 . S
C872 C873 1.370 . S
C872 C874 1.363 . S
C872 H888 0.931 . S
C873 C872 1.370 . S
C873 C877 1.408 . S
C874 C872 1.363 . S
C874 C875 1.370 . S
C874 C878 1.524 . S
C875 C867 1.503 . S
C875 C874 1.370 . S
C875 C876 1.403 . S
C876 C875 1.403 . S
C876 C877 1.404 . S
C876 C879 1.539 . S
C877 C873 1.408 . S
C877 C876 1.404 . S
C877 H889 0.930 . S
C878 C874 1.524 . S
C878 H890 0.956 . S
C878 H891 0.961 . S
C878 H892 0.961 . S
C879 C876 1.539 . S
C879 H893 0.958 . S
C879 H894 0.961 . S
C879 H895 0.960 . S
H880 C864 0.931 . S
H881 C869 0.929 . S
H882 C870 0.960 . S
H883 C870 0.962 . S
H884 C870 0.960 . S
H885 C871 0.961 . S
H886 C871 0.961 . S
H887 C871 0.961 . S
H888 C872 0.931 . S
H889 C877 0.930 . S
H890 C878 0.956 . S
H891 C878 0.961 . S
H892 C878 0.961 . S
H893 C879 0.958 . S
H894 C879 0.961 . S
H895 C879 0.960 . S
C896 C897 1.391 . S
C896 C898 1.394 . S
C896 H912 0.931 . S
C897 C896 1.391 . S
C897 C901 1.376 . S
C898 C896 1.394 . S
C898 C899 1.369 . S
C898 C902 1.531 . S
C899 C898 1.369 . S
C899 C900 1.410 . S
C899 C907 1.503 . S
C900 C899 1.410 . S
C900 C901 1.392 . S
C900 C903 1.511 . S
C901 C897 1.376 . S
C901 C900 1.392 . S
C901 H913 0.929 . S
C902 C898 1.531 . S
C902 H914 0.960 . S
C902 H915 0.962 . S
C902 H916 0.960 . S
C903 C900 1.511 . S
C903 H917 0.961 . S
C903 H918 0.961 . S
C903 H919 0.961 . S
C904 C905 1.370 . S
C904 C906 1.363 . S
C904 H920 0.931 . S
C905 C904 1.370 . S
C905 C909 1.408 . S
C906 C904 1.363 . S
C906 C907 1.370 . S
C906 C910 1.524 . S
C907 C899 1.503 . S
C907 C906 1.370 . S
C907 C908 1.403 . S
C908 C907 1.403 . S
C908 C909 1.404 . S
C908 C911 1.539 . S
C909 C905 1.408 . S
C909 C908 1.404 . S
C909 H921 0.930 . S
C910 C906 1.524 . S
C910 H922 0.956 . S
C910 H923 0.961 . S
C910 H924 0.961 . S
C911 C908 1.539 . S
C911 H925 0.958 . S
C911 H926 0.961 . S
C911 H927 0.960 . S
H912 C896 0.931 . S
H913 C901 0.929 . S
H914 C902 0.960 . S
H915 C902 0.962 . S
H916 C902 0.960 . S
H917 C903 0.961 . S
H918 C903 0.961 . S
H919 C903 0.961 . S
H920 C904 0.931 . S
H921 C909 0.930 . S
H922 C910 0.956 . S
H923 C910 0.961 . S
H924 C910 0.961 . S
H925 C911 0.958 . S
H926 C911 0.961 . S
H927 C911 0.960 . S
C928 C929 1.391 . S
C928 C930 1.394 . S
C928 H944 0.931 . S
C929 C928 1.391 . S
C929 C933 1.376 . S
C930 C928 1.394 . S
C930 C931 1.369 1_545 S
C930 C934 1.531 . S
C931 C930 1.369 1_565 S
C931 C932 1.410 . S
C931 C939 1.503 . S
C932 C931 1.410 . S
C932 C933 1.392 1_565 S
C932 C935 1.511 . S
C933 C929 1.376 . S
C933 C932 1.392 1_545 S
C933 H945 0.929 . S
C934 C930 1.531 . S
C934 H946 0.960 . S
C934 H947 0.962 . S
C934 H948 0.960 . S
C935 C932 1.511 . S
C935 H949 0.961 . S
C935 H950 0.961 . S
C935 H951 0.961 . S
C936 C937 1.370 . S
C936 C938 1.363 . S
C936 H952 0.931 . S
C937 C936 1.370 . S
C937 C941 1.408 . S
C938 C936 1.363 . S
C938 C939 1.370 . S
C938 C942 1.524 . S
C939 C931 1.503 . S
C939 C938 1.370 . S
C939 C940 1.403 . S
C940 C939 1.403 . S
C940 C941 1.404 . S
C940 C943 1.539 . S
C941 C937 1.408 . S
C941 C940 1.404 . S
C941 H953 0.930 . S
C942 C938 1.524 . S
C942 H954 0.956 . S
C942 H955 0.961 . S
C942 H956 0.961 . S
C943 C940 1.539 . S
C943 H957 0.958 . S
C943 H958 0.961 . S
C943 H959 0.960 . S
H944 C928 0.931 . S
H945 C933 0.929 . S
H946 C934 0.960 . S
H947 C934 0.962 . S
H948 C934 0.960 . S
H949 C935 0.961 . S
H950 C935 0.961 . S
H951 C935 0.961 . S
H952 C936 0.931 . S
H953 C941 0.930 . S
H954 C942 0.956 . S
H955 C942 0.961 . S
H956 C942 0.961 . S
H957 C943 0.958 . S
H958 C943 0.961 . S
H959 C943 0.960 . S
C960 C961 1.391 . S
C960 C962 1.394 . S
C960 H976 0.931 . S
C961 C960 1.391 . S
C961 C965 1.376 . S
C962 C960 1.394 . S
C962 C963 1.369 . S
C962 C966 1.531 . S
C963 C962 1.369 . S
C963 C964 1.410 . S
C963 C971 1.503 . S
C964 C963 1.410 . S
C964 C965 1.392 . S
C964 C967 1.511 . S
C965 C961 1.376 . S
C965 C964 1.392 . S
C965 H977 0.929 . S
C966 C962 1.531 . S
C966 H978 0.960 . S
C966 H979 0.962 . S
C966 H980 0.960 . S
C967 C964 1.511 . S
C967 H981 0.961 . S
C967 H982 0.961 . S
C967 H983 0.961 . S
C968 C969 1.370 . S
C968 C970 1.363 . S
C968 H984 0.931 . S
C969 C968 1.370 . S
C969 C973 1.408 . S
C970 C968 1.363 . S
C970 C971 1.370 . S
C970 C974 1.524 . S
C971 C963 1.503 . S
C971 C970 1.370 . S
C971 C972 1.403 . S
C972 C971 1.403 . S
C972 C973 1.404 . S
C972 C975 1.539 . S
C973 C969 1.408 . S
C973 C972 1.404 . S
C973 H985 0.930 . S
C974 C970 1.524 . S
C974 H986 0.956 . S
C974 H987 0.961 . S
C974 H988 0.961 . S
C975 C972 1.539 . S
C975 H989 0.958 . S
C975 H990 0.961 . S
C975 H991 0.960 . S
H976 C960 0.931 . S
H977 C965 0.929 . S
H978 C966 0.960 . S
H979 C966 0.962 . S
H980 C966 0.960 . S
H981 C967 0.961 . S
H982 C967 0.961 . S
H983 C967 0.961 . S
H984 C968 0.931 . S
H985 C973 0.930 . S
H986 C974 0.956 . S
H987 C974 0.961 . S
H988 C974 0.961 . S
H989 C975 0.958 . S
H990 C975 0.961 . S
H991 C975 0.960 . S
C992 C993 1.391 . S
C992 C994 1.394 . S
C992 H1008 0.931 . S
C993 C992 1.391 . S
C993 C997 1.376 . S
C994 C992 1.394 . S
C994 C995 1.369 . S
C994 C998 1.531 . S
C995 C994 1.369 . S
C995 C996 1.410 . S
C995 C1003 1.503 . S
C996 C995 1.410 . S
C996 C997 1.392 . S
C996 C999 1.511 . S
C997 C993 1.376 . S
C997 C996 1.392 . S
C997 H1009 0.929 . S
C998 C994 1.531 . S
C998 H1010 0.960 . S
C998 H1011 0.962 . S
C998 H1012 0.960 . S
C999 C996 1.511 . S
C999 H1013 0.961 . S
C999 H1014 0.961 . S
C999 H1015 0.961 . S
C1000 C1001 1.370 . S
C1000 C1002 1.363 . S
C1000 H1016 0.931 . S
C1001 C1000 1.370 . S
C1001 C1005 1.408 . S
C1002 C1000 1.363 . S
C1002 C1003 1.370 . S
C1002 C1006 1.524 . S
C1003 C995 1.503 . S
C1003 C1002 1.370 . S
C1003 C1004 1.403 . S
C1004 C1003 1.403 . S
C1004 C1005 1.404 . S
C1004 C1007 1.539 . S
C1005 C1001 1.408 . S
C1005 C1004 1.404 . S
C1005 H1017 0.930 . S
C1006 C1002 1.524 . S
C1006 H1018 0.956 . S
C1006 H1019 0.961 . S
C1006 H1020 0.961 . S
C1007 C1004 1.539 . S
C1007 H1021 0.958 . S
C1007 H1022 0.961 . S
C1007 H1023 0.960 . S
H1008 C992 0.931 . S
H1009 C997 0.929 . S
H1010 C998 0.960 . S
H1011 C998 0.962 . S
H1012 C998 0.960 . S
H1013 C999 0.961 . S
H1014 C999 0.961 . S
H1015 C999 0.961 . S
H1016 C1000 0.931 . S
H1017 C1005 0.930 . S
H1018 C1006 0.956 . S
H1019 C1006 0.961 . S
H1020 C1006 0.961 . S
H1021 C1007 0.958 . S
H1022 C1007 0.961 . S
H1023 C1007 0.960 . S
C1024 C1025 1.391 . S
C1024 C1026 1.394 . S
C1024 H1040 0.931 . S
C1025 C1024 1.391 . S
C1025 C1029 1.376 . S
C1026 C1024 1.394 . S
C1026 C1027 1.369 1_455 S
C1026 C1030 1.531 . S
C1027 C1026 1.369 1_655 S
C1027 C1028 1.410 . S
C1027 C1035 1.503 . S
C1028 C1027 1.410 . S
C1028 C1029 1.392 1_655 S
C1028 C1031 1.511 . S
C1029 C1025 1.376 . S
C1029 C1028 1.392 1_455 S
C1029 H1041 0.929 . S
C1030 C1026 1.531 . S
C1030 H1042 0.960 1_455 S
C1030 H1043 0.962 . S
C1030 H1044 0.960 . S
C1031 C1028 1.511 . S
C1031 H1045 0.961 . S
C1031 H1046 0.961 . S
C1031 H1047 0.961 . S
C1032 C1033 1.370 . S
C1032 C1034 1.363 . S
C1032 H1048 0.931 . S
C1033 C1032 1.370 . S
C1033 C1037 1.408 . S
C1034 C1032 1.363 . S
C1034 C1035 1.370 . S
C1034 C1038 1.524 . S
C1035 C1027 1.503 . S
C1035 C1034 1.370 . S
C1035 C1036 1.403 . S
C1036 C1035 1.403 . S
C1036 C1037 1.404 . S
C1036 C1039 1.539 . S
C1037 C1033 1.408 . S
C1037 C1036 1.404 . S
C1037 H1049 0.930 . S
C1038 C1034 1.524 . S
C1038 H1050 0.956 . S
C1038 H1051 0.961 . S
C1038 H1052 0.961 . S
C1039 C1036 1.539 . S
C1039 H1053 0.958 . S
C1039 H1054 0.961 . S
C1039 H1055 0.960 . S
H1040 C1024 0.931 . S
H1041 C1029 0.929 . S
H1042 C1030 0.960 1_655 S
H1043 C1030 0.962 . S
H1044 C1030 0.960 . S
H1045 C1031 0.961 . S
H1046 C1031 0.961 . S
H1047 C1031 0.961 . S
H1048 C1032 0.931 . S
H1049 C1037 0.930 . S
H1050 C1038 0.956 . S
H1051 C1038 0.961 . S
H1052 C1038 0.961 . S
H1053 C1039 0.958 . S
H1054 C1039 0.961 . S
H1055 C1039 0.960 . S
C1056 C1057 1.391 . S
C1056 C1058 1.394 . S
C1056 H1072 0.931 . S
C1057 C1056 1.391 . S
C1057 C1061 1.376 . S
C1058 C1056 1.394 . S
C1058 C1059 1.369 . S
C1058 C1062 1.531 . S
C1059 C1058 1.369 . S
C1059 C1060 1.410 . S
C1059 C1067 1.503 . S
C1060 C1059 1.410 . S
C1060 C1061 1.392 . S
C1060 C1063 1.511 . S
C1061 C1057 1.376 . S
C1061 C1060 1.392 . S
C1061 H1073 0.929 . S
C1062 C1058 1.531 . S
C1062 H1074 0.960 . S
C1062 H1075 0.962 . S
C1062 H1076 0.960 . S
C1063 C1060 1.511 . S
C1063 H1077 0.961 . S
C1063 H1078 0.961 . S
C1063 H1079 0.961 . S
C1064 C1065 1.370 . S
C1064 C1066 1.363 . S
C1064 H1080 0.931 . S
C1065 C1064 1.370 . S
C1065 C1069 1.408 . S
C1066 C1064 1.363 . S
C1066 C1067 1.370 . S
C1066 C1070 1.524 . S
C1067 C1059 1.503 . S
C1067 C1066 1.370 . S
C1067 C1068 1.403 . S
C1068 C1067 1.403 . S
C1068 C1069 1.404 . S
C1068 C1071 1.539 . S
C1069 C1065 1.408 . S
C1069 C1068 1.404 . S
C1069 H1081 0.930 . S
C1070 C1066 1.524 . S
C1070 H1082 0.956 . S
C1070 H1083 0.961 . S
C1070 H1084 0.961 . S
C1071 C1068 1.539 . S
C1071 H1085 0.958 . S
C1071 H1086 0.961 . S
C1071 H1087 0.960 . S
H1072 C1056 0.931 . S
H1073 C1061 0.929 . S
H1074 C1062 0.960 . S
H1075 C1062 0.962 . S
H1076 C1062 0.960 . S
H1077 C1063 0.961 . S
H1078 C1063 0.961 . S
H1079 C1063 0.961 . S
H1080 C1064 0.931 . S
H1081 C1069 0.930 . S
H1082 C1070 0.956 . S
H1083 C1070 0.961 . S
H1084 C1070 0.961 . S
H1085 C1071 0.958 . S
H1086 C1071 0.961 . S
H1087 C1071 0.960 . S
C1088 C1089 1.391 . S
C1088 C1090 1.394 . S
C1088 H1104 0.931 . S
C1089 C1088 1.391 . S
C1089 C1093 1.376 . S
C1090 C1088 1.394 . S
C1090 C1091 1.369 . S
C1090 C1094 1.531 . S
C1091 C1090 1.369 . S
C1091 C1092 1.410 . S
C1091 C1099 1.503 . S
C1092 C1091 1.410 . S
C1092 C1093 1.392 . S
C1092 C1095 1.511 . S
C1093 C1089 1.376 . S
C1093 C1092 1.392 . S
C1093 H1105 0.929 . S
C1094 C1090 1.531 . S
C1094 H1106 0.960 . S
C1094 H1107 0.962 . S
C1094 H1108 0.960 . S
C1095 C1092 1.511 . S
C1095 H1109 0.961 . S
C1095 H1110 0.961 . S
C1095 H1111 0.961 . S
C1096 C1097 1.370 . S
C1096 C1098 1.363 . S
C1096 H1112 0.931 . S
C1097 C1096 1.370 . S
C1097 C1101 1.408 . S
C1098 C1096 1.363 . S
C1098 C1099 1.370 . S
C1098 C1102 1.524 . S
C1099 C1091 1.503 . S
C1099 C1098 1.370 . S
C1099 C1100 1.403 . S
C1100 C1099 1.403 . S
C1100 C1101 1.404 . S
C1100 C1103 1.539 . S
C1101 C1097 1.408 . S
C1101 C1100 1.404 . S
C1101 H1113 0.930 . S
C1102 C1098 1.524 . S
C1102 H1114 0.956 . S
C1102 H1115 0.961 . S
C1102 H1116 0.961 . S
C1103 C1100 1.539 . S
C1103 H1117 0.958 . S
C1103 H1118 0.961 . S
C1103 H1119 0.960 . S
H1104 C1088 0.931 . S
H1105 C1093 0.929 . S
H1106 C1094 0.960 . S
H1107 C1094 0.962 . S
H1108 C1094 0.960 . S
H1109 C1095 0.961 . S
H1110 C1095 0.961 . S
H1111 C1095 0.961 . S
H1112 C1096 0.931 . S
H1113 C1101 0.930 . S
H1114 C1102 0.956 . S
H1115 C1102 0.961 . S
H1116 C1102 0.961 . S
H1117 C1103 0.958 . S
H1118 C1103 0.961 . S
H1119 C1103 0.960 . S
C1120 C1121 1.391 . S
C1120 C1122 1.394 . S
C1120 H1136 0.931 . S
C1121 C1120 1.391 . S
C1121 C1125 1.376 . S
C1122 C1120 1.394 . S
C1122 C1123 1.369 . S
C1122 C1126 1.531 . S
C1123 C1122 1.369 . S
C1123 C1124 1.410 . S
C1123 C1131 1.503 . S
C1124 C1123 1.410 . S
C1124 C1125 1.392 . S
C1124 C1127 1.511 . S
C1125 C1121 1.376 . S
C1125 C1124 1.392 . S
C1125 H1137 0.929 . S
C1126 C1122 1.531 . S
C1126 H1138 0.960 . S
C1126 H1139 0.962 . S
C1126 H1140 0.960 . S
C1127 C1124 1.511 . S
C1127 H1141 0.961 . S
C1127 H1142 0.961 . S
C1127 H1143 0.961 . S
C1128 C1129 1.370 . S
C1128 C1130 1.363 . S
C1128 H1144 0.931 . S
C1129 C1128 1.370 . S
C1129 C1133 1.408 . S
C1130 C1128 1.363 . S
C1130 C1131 1.370 . S
C1130 C1134 1.524 . S
C1131 C1123 1.503 . S
C1131 C1130 1.370 . S
C1131 C1132 1.403 . S
C1132 C1131 1.403 . S
C1132 C1133 1.404 . S
C1132 C1135 1.539 . S
C1133 C1129 1.408 . S
C1133 C1132 1.404 . S
C1133 H1145 0.930 . S
C1134 C1130 1.524 . S
C1134 H1146 0.956 . S
C1134 H1147 0.961 . S
C1134 H1148 0.961 . S
C1135 C1132 1.539 . S
C1135 H1149 0.958 . S
C1135 H1150 0.961 . S
C1135 H1151 0.960 . S
H1136 C1120 0.931 . S
H1137 C1125 0.929 . S
H1138 C1126 0.960 . S
H1139 C1126 0.962 . S
H1140 C1126 0.960 . S
H1141 C1127 0.961 . S
H1142 C1127 0.961 . S
H1143 C1127 0.961 . S
H1144 C1128 0.931 . S
H1145 C1133 0.930 . S
H1146 C1134 0.956 . S
H1147 C1134 0.961 . S
H1148 C1134 0.961 . S
H1149 C1135 0.958 . S
H1150 C1135 0.961 . S
H1151 C1135 0.960 . S
C1152 C1153 1.391 . S
C1152 C1154 1.394 . S
C1152 H1168 0.931 . S
C1153 C1152 1.391 . S
C1153 C1157 1.376 . S
C1154 C1152 1.394 . S
C1154 C1155 1.369 . S
C1154 C1158 1.531 . S
C1155 C1154 1.369 . S
C1155 C1156 1.410 . S
C1155 C1163 1.503 . S
C1156 C1155 1.410 . S
C1156 C1157 1.392 . S
C1156 C1159 1.511 . S
C1157 C1153 1.376 . S
C1157 C1156 1.392 . S
C1157 H1169 0.929 . S
C1158 C1154 1.531 . S
C1158 H1170 0.960 . S
C1158 H1171 0.962 . S
C1158 H1172 0.960 . S
C1159 C1156 1.511 . S
C1159 H1173 0.961 . S
C1159 H1174 0.961 . S
C1159 H1175 0.961 . S
C1160 C1161 1.370 . S
C1160 C1162 1.363 . S
C1160 H1176 0.931 . S
C1161 C1160 1.370 . S
C1161 C1165 1.408 . S
C1162 C1160 1.363 . S
C1162 C1163 1.370 . S
C1162 C1166 1.524 . S
C1163 C1155 1.503 . S
C1163 C1162 1.370 . S
C1163 C1164 1.403 . S
C1164 C1163 1.403 . S
C1164 C1165 1.404 . S
C1164 C1167 1.539 . S
C1165 C1161 1.408 . S
C1165 C1164 1.404 . S
C1165 H1177 0.930 . S
C1166 C1162 1.524 . S
C1166 H1178 0.956 . S
C1166 H1179 0.961 . S
C1166 H1180 0.961 . S
C1167 C1164 1.539 . S
C1167 H1181 0.958 . S
C1167 H1182 0.961 . S
C1167 H1183 0.960 . S
H1168 C1152 0.931 . S
H1169 C1157 0.929 . S
H1170 C1158 0.960 . S
H1171 C1158 0.962 . S
H1172 C1158 0.960 . S
H1173 C1159 0.961 . S
H1174 C1159 0.961 . S
H1175 C1159 0.961 . S
H1176 C1160 0.931 . S
H1177 C1165 0.930 . S
H1178 C1166 0.956 . S
H1179 C1166 0.961 . S
H1180 C1166 0.961 . S
H1181 C1167 0.958 . S
H1182 C1167 0.961 . S
H1183 C1167 0.960 . S
C1184 C1185 1.391 . S
C1184 C1186 1.394 . S
C1184 H1200 0.931 . S
C1185 C1184 1.391 . S
C1185 C1189 1.376 . S
C1186 C1184 1.394 . S
C1186 C1187 1.369 . S
C1186 C1190 1.531 . S
C1187 C1186 1.369 . S
C1187 C1188 1.410 . S
C1187 C1195 1.503 . S
C1188 C1187 1.410 . S
C1188 C1189 1.392 . S
C1188 C1191 1.511 . S
C1189 C1185 1.376 . S
C1189 C1188 1.392 . S
C1189 H1201 0.929 . S
C1190 C1186 1.531 . S
C1190 H1202 0.960 . S
C1190 H1203 0.962 . S
C1190 H1204 0.960 . S
C1191 C1188 1.511 . S
C1191 H1205 0.961 . S
C1191 H1206 0.961 . S
C1191 H1207 0.961 . S
C1192 C1193 1.370 . S
C1192 C1194 1.363 . S
C1192 H1208 0.931 . S
C1193 C1192 1.370 . S
C1193 C1197 1.408 . S
C1194 C1192 1.363 . S
C1194 C1195 1.370 . S
C1194 C1198 1.524 . S
C1195 C1187 1.503 . S
C1195 C1194 1.370 . S
C1195 C1196 1.403 . S
C1196 C1195 1.403 . S
C1196 C1197 1.404 . S
C1196 C1199 1.539 . S
C1197 C1193 1.408 . S
C1197 C1196 1.404 . S
C1197 H1209 0.930 . S
C1198 C1194 1.524 . S
C1198 H1210 0.956 . S
C1198 H1211 0.961 . S
C1198 H1212 0.961 . S
C1199 C1196 1.539 . S
C1199 H1213 0.958 . S
C1199 H1214 0.961 . S
C1199 H1215 0.960 . S
H1200 C1184 0.931 . S
H1201 C1189 0.929 . S
H1202 C1190 0.960 . S
H1203 C1190 0.962 . S
H1204 C1190 0.960 . S
H1205 C1191 0.961 . S
H1206 C1191 0.961 . S
H1207 C1191 0.961 . S
H1208 C1192 0.931 . S
H1209 C1197 0.930 . S
H1210 C1198 0.956 . S
H1211 C1198 0.961 . S
H1212 C1198 0.961 . S
H1213 C1199 0.958 . S
H1214 C1199 0.961 . S
H1215 C1199 0.960 . S
C1216 C1217 1.391 . S
C1216 C1218 1.394 . S
C1216 H1232 0.931 . S
C1217 C1216 1.391 . S
C1217 C1221 1.376 . S
C1218 C1216 1.394 . S
C1218 C1219 1.369 . S
C1218 C1222 1.531 . S
C1219 C1218 1.369 . S
C1219 C1220 1.410 . S
C1219 C1227 1.503 . S
C1220 C1219 1.410 . S
C1220 C1221 1.392 . S
C1220 C1223 1.511 . S
C1221 C1217 1.376 . S
C1221 C1220 1.392 . S
C1221 H1233 0.929 . S
C1222 C1218 1.531 . S
C1222 H1234 0.960 . S
C1222 H1235 0.962 . S
C1222 H1236 0.960 . S
C1223 C1220 1.511 . S
C1223 H1237 0.961 . S
C1223 H1238 0.961 . S
C1223 H1239 0.961 . S
C1224 C1225 1.370 . S
C1224 C1226 1.363 . S
C1224 H1240 0.931 . S
C1225 C1224 1.370 . S
C1225 C1229 1.408 . S
C1226 C1224 1.363 . S
C1226 C1227 1.370 . S
C1226 C1230 1.524 . S
C1227 C1219 1.503 . S
C1227 C1226 1.370 . S
C1227 C1228 1.403 . S
C1228 C1227 1.403 . S
C1228 C1229 1.404 . S
C1228 C1231 1.539 . S
C1229 C1225 1.408 . S
C1229 C1228 1.404 . S
C1229 H1241 0.930 . S
C1230 C1226 1.524 . S
C1230 H1242 0.956 . S
C1230 H1243 0.961 . S
C1230 H1244 0.961 . S
C1231 C1228 1.539 . S
C1231 H1245 0.958 . S
C1231 H1246 0.961 . S
C1231 H1247 0.960 . S
H1232 C1216 0.931 . S
H1233 C1221 0.929 . S
H1234 C1222 0.960 . S
H1235 C1222 0.962 . S
H1236 C1222 0.960 . S
H1237 C1223 0.961 . S
H1238 C1223 0.961 . S
H1239 C1223 0.961 . S
H1240 C1224 0.931 . S
H1241 C1229 0.930 . S
H1242 C1230 0.956 . S
H1243 C1230 0.961 . S
H1244 C1230 0.961 . S
H1245 C1231 0.958 . S
H1246 C1231 0.961 . S
H1247 C1231 0.960 . S
C1248 C1249 1.391 . S
C1248 C1250 1.394 . S
C1248 H1264 0.931 . S
C1249 C1248 1.391 . S
C1249 C1253 1.376 . S
C1250 C1248 1.394 . S
C1250 C1251 1.369 . S
C1250 C1254 1.531 . S
C1251 C1250 1.369 . S
C1251 C1252 1.410 . S
C1251 C1259 1.503 . S
C1252 C1251 1.410 . S
C1252 C1253 1.392 . S
C1252 C1255 1.511 . S
C1253 C1249 1.376 . S
C1253 C1252 1.392 . S
C1253 H1265 0.929 . S
C1254 C1250 1.531 . S
C1254 H1266 0.960 . S
C1254 H1267 0.962 . S
C1254 H1268 0.960 . S
C1255 C1252 1.511 . S
C1255 H1269 0.961 . S
C1255 H1270 0.961 . S
C1255 H1271 0.961 . S
C1256 C1257 1.370 . S
C1256 C1258 1.363 . S
C1256 H1272 0.931 . S
C1257 C1256 1.370 . S
C1257 C1261 1.408 . S
C1258 C1256 1.363 . S
C1258 C1259 1.370 . S
C1258 C1262 1.524 . S
C1259 C1251 1.503 . S
C1259 C1258 1.370 . S
C1259 C1260 1.403 . S
C1260 C1259 1.403 . S
C1260 C1261 1.404 . S
C1260 C1263 1.539 . S
C1261 C1257 1.408 . S
C1261 C1260 1.404 . S
C1261 H1273 0.930 . S
C1262 C1258 1.524 . S
C1262 H1274 0.956 . S
C1262 H1275 0.961 . S
C1262 H1276 0.961 . S
C1263 C1260 1.539 . S
C1263 H1277 0.958 . S
C1263 H1278 0.961 . S
C1263 H1279 0.960 . S
H1264 C1248 0.931 . S
H1265 C1253 0.929 . S
H1266 C1254 0.960 . S
H1267 C1254 0.962 . S
H1268 C1254 0.960 . S
H1269 C1255 0.961 . S
H1270 C1255 0.961 . S
H1271 C1255 0.961 . S
H1272 C1256 0.931 . S
H1273 C1261 0.930 . S
H1274 C1262 0.956 . S
H1275 C1262 0.961 . S
H1276 C1262 0.961 . S
H1277 C1263 0.958 . S
H1278 C1263 0.961 . S
H1279 C1263 0.960 . S
C1280 C1281 1.391 . S
C1280 C1282 1.394 . S
C1280 H1296 0.931 . S
C1281 C1280 1.391 . S
C1281 C1285 1.376 . S
C1282 C1280 1.394 . S
C1282 C1283 1.369 . S
C1282 C1286 1.531 . S
C1283 C1282 1.369 . S
C1283 C1284 1.410 . S
C1283 C1291 1.503 . S
C1284 C1283 1.410 . S
C1284 C1285 1.392 . S
C1284 C1287 1.511 . S
C1285 C1281 1.376 . S
C1285 C1284 1.392 . S
C1285 H1297 0.929 . S
C1286 C1282 1.531 . S
C1286 H1298 0.960 . S
C1286 H1299 0.962 . S
C1286 H1300 0.960 . S
C1287 C1284 1.511 . S
C1287 H1301 0.961 . S
C1287 H1302 0.961 . S
C1287 H1303 0.961 . S
C1288 C1289 1.370 . S
C1288 C1290 1.363 . S
C1288 H1304 0.931 . S
C1289 C1288 1.370 . S
C1289 C1293 1.408 . S
C1290 C1288 1.363 . S
C1290 C1291 1.370 . S
C1290 C1294 1.524 . S
C1291 C1283 1.503 . S
C1291 C1290 1.370 . S
C1291 C1292 1.403 . S
C1292 C1291 1.403 . S
C1292 C1293 1.404 . S
C1292 C1295 1.539 . S
C1293 C1289 1.408 . S
C1293 C1292 1.404 . S
C1293 H1305 0.930 . S
C1294 C1290 1.524 . S
C1294 H1306 0.956 . S
C1294 H1307 0.961 . S
C1294 H1308 0.961 . S
C1295 C1292 1.539 . S
C1295 H1309 0.958 . S
C1295 H1310 0.961 . S
C1295 H1311 0.960 . S
H1296 C1280 0.931 . S
H1297 C1285 0.929 . S
H1298 C1286 0.960 . S
H1299 C1286 0.962 . S
H1300 C1286 0.960 . S
H1301 C1287 0.961 . S
H1302 C1287 0.961 . S
H1303 C1287 0.961 . S
H1304 C1288 0.931 . S
H1305 C1293 0.930 . S
H1306 C1294 0.956 . S
H1307 C1294 0.961 . S
H1308 C1294 0.961 . S
H1309 C1295 0.958 . S
H1310 C1295 0.961 . S
H1311 C1295 0.960 . S
C1312 C1313 1.391 . S
C1312 C1314 1.394 . S
C1312 H1328 0.931 . S
C1313 C1312 1.391 . S
C1313 C1317 1.376 . S
C1314 C1312 1.394 . S
C1314 C1315 1.369 . S
C1314 C1318 1.531 . S
C1315 C1314 1.369 . S
C1315 C1316 1.410 . S
C1315 C1323 1.503 . S
C1316 C1315 1.410 . S
C1316 C1317 1.392 . S
C1316 C1319 1.511 . S
C1317 C1313 1.376 . S
C1317 C1316 1.392 . S
C1317 H1329 0.929 . S
C1318 C1314 1.531 . S
C1318 H1330 0.960 . S
C1318 H1331 0.962 . S
C1318 H1332 0.960 . S
C1319 C1316 1.511 . S
C1319 H1333 0.961 . S
C1319 H1334 0.961 . S
C1319 H1335 0.961 . S
C1320 C1321 1.370 . S
C1320 C1322 1.363 . S
C1320 H1336 0.931 . S
C1321 C1320 1.370 . S
C1321 C1325 1.408 . S
C1322 C1320 1.363 . S
C1322 C1323 1.370 . S
C1322 C1326 1.524 . S
C1323 C1315 1.503 . S
C1323 C1322 1.370 . S
C1323 C1324 1.403 . S
C1324 C1323 1.403 . S
C1324 C1325 1.404 . S
C1324 C1327 1.539 . S
C1325 C1321 1.408 . S
C1325 C1324 1.404 . S
C1325 H1337 0.930 . S
C1326 C1322 1.524 . S
C1326 H1338 0.956 . S
C1326 H1339 0.961 . S
C1326 H1340 0.961 . S
C1327 C1324 1.539 . S
C1327 H1341 0.958 . S
C1327 H1342 0.961 . S
C1327 H1343 0.960 . S
H1328 C1312 0.931 . S
H1329 C1317 0.929 . S
H1330 C1318 0.960 . S
H1331 C1318 0.962 . S
H1332 C1318 0.960 . S
H1333 C1319 0.961 . S
H1334 C1319 0.961 . S
H1335 C1319 0.961 . S
H1336 C1320 0.931 . S
H1337 C1325 0.930 . S
H1338 C1326 0.956 . S
H1339 C1326 0.961 . S
H1340 C1326 0.961 . S
H1341 C1327 0.958 . S
H1342 C1327 0.961 . S
H1343 C1327 0.960 . S
C1344 C1345 1.391 . S
C1344 C1346 1.394 . S
C1344 H1360 0.931 . S
C1345 C1344 1.391 . S
C1345 C1349 1.376 . S
C1346 C1344 1.394 . S
C1346 C1347 1.369 . S
C1346 C1350 1.531 . S
C1347 C1346 1.369 . S
C1347 C1348 1.410 . S
C1347 C1355 1.503 . S
C1348 C1347 1.410 . S
C1348 C1349 1.392 . S
C1348 C1351 1.511 . S
C1349 C1345 1.376 . S
C1349 C1348 1.392 . S
C1349 H1361 0.929 . S
C1350 C1346 1.531 . S
C1350 H1362 0.960 . S
C1350 H1363 0.962 . S
C1350 H1364 0.960 . S
C1351 C1348 1.511 . S
C1351 H1365 0.961 . S
C1351 H1366 0.961 . S
C1351 H1367 0.961 . S
C1352 C1353 1.370 . S
C1352 C1354 1.363 . S
C1352 H1368 0.931 . S
C1353 C1352 1.370 . S
C1353 C1357 1.408 . S
C1354 C1352 1.363 . S
C1354 C1355 1.370 . S
C1354 C1358 1.524 . S
C1355 C1347 1.503 . S
C1355 C1354 1.370 . S
C1355 C1356 1.403 . S
C1356 C1355 1.403 . S
C1356 C1357 1.404 . S
C1356 C1359 1.539 . S
C1357 C1353 1.408 . S
C1357 C1356 1.404 . S
C1357 H1369 0.930 . S
C1358 C1354 1.524 . S
C1358 H1370 0.956 . S
C1358 H1371 0.961 . S
C1358 H1372 0.961 . S
C1359 C1356 1.539 . S
C1359 H1373 0.958 . S
C1359 H1374 0.961 . S
C1359 H1375 0.960 . S
H1360 C1344 0.931 . S
H1361 C1349 0.929 . S
H1362 C1350 0.960 . S
H1363 C1350 0.962 . S
H1364 C1350 0.960 . S
H1365 C1351 0.961 . S
H1366 C1351 0.961 . S
H1367 C1351 0.961 . S
H1368 C1352 0.931 . S
H1369 C1357 0.930 . S
H1370 C1358 0.956 . S
H1371 C1358 0.961 . S
H1372 C1358 0.961 . S
H1373 C1359 0.958 . S
H1374 C1359 0.961 . S
H1375 C1359 0.960 . S
C1376 C1377 1.391 . S
C1376 C1378 1.394 . S
C1376 H1392 0.931 . S
C1377 C1376 1.391 . S
C1377 C1381 1.376 . S
C1378 C1376 1.394 . S
C1378 C1379 1.369 . S
C1378 C1382 1.531 . S
C1379 C1378 1.369 . S
C1379 C1380 1.410 . S
C1379 C1387 1.503 . S
C1380 C1379 1.410 . S
C1380 C1381 1.392 . S
C1380 C1383 1.511 . S
C1381 C1377 1.376 . S
C1381 C1380 1.392 . S
C1381 H1393 0.929 . S
C1382 C1378 1.531 . S
C1382 H1394 0.960 . S
C1382 H1395 0.962 . S
C1382 H1396 0.960 . S
C1383 C1380 1.511 . S
C1383 H1397 0.961 . S
C1383 H1398 0.961 . S
C1383 H1399 0.961 . S
C1384 C1385 1.370 . S
C1384 C1386 1.363 . S
C1384 H1400 0.931 . S
C1385 C1384 1.370 . S
C1385 C1389 1.408 . S
C1386 C1384 1.363 . S
C1386 C1387 1.370 . S
C1386 C1390 1.524 . S
C1387 C1379 1.503 . S
C1387 C1386 1.370 . S
C1387 C1388 1.403 . S
C1388 C1387 1.403 . S
C1388 C1389 1.404 . S
C1388 C1391 1.539 . S
C1389 C1385 1.408 . S
C1389 C1388 1.404 . S
C1389 H1401 0.930 . S
C1390 C1386 1.524 . S
C1390 H1402 0.956 . S
C1390 H1403 0.961 . S
C1390 H1404 0.961 . S
C1391 C1388 1.539 . S
C1391 H1405 0.958 . S
C1391 H1406 0.961 . S
C1391 H1407 0.960 . S
H1392 C1376 0.931 . S
H1393 C1381 0.929 . S
H1394 C1382 0.960 . S
H1395 C1382 0.962 . S
H1396 C1382 0.960 . S
H1397 C1383 0.961 . S
H1398 C1383 0.961 . S
H1399 C1383 0.961 . S
H1400 C1384 0.931 . S
H1401 C1389 0.930 . S
H1402 C1390 0.956 . S
H1403 C1390 0.961 . S
H1404 C1390 0.961 . S
H1405 C1391 0.958 . S
H1406 C1391 0.961 . S
H1407 C1391 0.960 . S
C1408 C1409 1.391 . S
C1408 C1410 1.394 . S
C1408 H1424 0.931 . S
C1409 C1408 1.391 . S
C1409 C1413 1.376 . S
C1410 C1408 1.394 . S
C1410 C1411 1.369 . S
C1410 C1414 1.531 . S
C1411 C1410 1.369 . S
C1411 C1412 1.410 . S
C1411 C1419 1.503 . S
C1412 C1411 1.410 . S
C1412 C1413 1.392 . S
C1412 C1415 1.511 . S
C1413 C1409 1.376 . S
C1413 C1412 1.392 . S
C1413 H1425 0.929 . S
C1414 C1410 1.531 . S
C1414 H1426 0.960 . S
C1414 H1427 0.962 . S
C1414 H1428 0.960 . S
C1415 C1412 1.511 . S
C1415 H1429 0.961 . S
C1415 H1430 0.961 . S
C1415 H1431 0.961 . S
C1416 C1417 1.370 . S
C1416 C1418 1.363 . S
C1416 H1432 0.931 . S
C1417 C1416 1.370 . S
C1417 C1421 1.408 . S
C1418 C1416 1.363 . S
C1418 C1419 1.370 . S
C1418 C1422 1.524 . S
C1419 C1411 1.503 . S
C1419 C1418 1.370 . S
C1419 C1420 1.403 . S
C1420 C1419 1.403 . S
C1420 C1421 1.404 . S
C1420 C1423 1.539 . S
C1421 C1417 1.408 . S
C1421 C1420 1.404 . S
C1421 H1433 0.930 . S
C1422 C1418 1.524 . S
C1422 H1434 0.956 . S
C1422 H1435 0.961 . S
C1422 H1436 0.961 . S
C1423 C1420 1.539 . S
C1423 H1437 0.958 . S
C1423 H1438 0.961 . S
C1423 H1439 0.960 . S
H1424 C1408 0.931 . S
H1425 C1413 0.929 . S
H1426 C1414 0.960 . S
H1427 C1414 0.962 . S
H1428 C1414 0.960 . S
H1429 C1415 0.961 . S
H1430 C1415 0.961 . S
H1431 C1415 0.961 . S
H1432 C1416 0.931 . S
H1433 C1421 0.930 . S
H1434 C1422 0.956 . S
H1435 C1422 0.961 . S
H1436 C1422 0.961 . S
H1437 C1423 0.958 . S
H1438 C1423 0.961 . S
H1439 C1423 0.960 . S
C1440 C1441 1.391 . S
C1440 C1442 1.394 . S
C1440 H1456 0.931 . S
C1441 C1440 1.391 . S
C1441 C1445 1.376 . S
C1442 C1440 1.394 . S
C1442 C1443 1.369 . S
C1442 C1446 1.531 . S
C1443 C1442 1.369 . S
C1443 C1444 1.410 . S
C1443 C1451 1.503 . S
C1444 C1443 1.410 . S
C1444 C1445 1.392 . S
C1444 C1447 1.511 . S
C1445 C1441 1.376 . S
C1445 C1444 1.392 . S
C1445 H1457 0.929 . S
C1446 C1442 1.531 . S
C1446 H1458 0.960 . S
C1446 H1459 0.962 . S
C1446 H1460 0.960 . S
C1447 C1444 1.511 . S
C1447 H1461 0.961 . S
C1447 H1462 0.961 . S
C1447 H1463 0.961 . S
C1448 C1449 1.370 . S
C1448 C1450 1.363 . S
C1448 H1464 0.931 . S
C1449 C1448 1.370 . S
C1449 C1453 1.408 . S
C1450 C1448 1.363 . S
C1450 C1451 1.370 . S
C1450 C1454 1.524 . S
C1451 C1443 1.503 . S
C1451 C1450 1.370 . S
C1451 C1452 1.403 . S
C1452 C1451 1.403 . S
C1452 C1453 1.404 . S
C1452 C1455 1.539 . S
C1453 C1449 1.408 . S
C1453 C1452 1.404 . S
C1453 H1465 0.930 . S
C1454 C1450 1.524 . S
C1454 H1466 0.956 . S
C1454 H1467 0.961 . S
C1454 H1468 0.961 . S
C1455 C1452 1.539 . S
C1455 H1469 0.958 . S
C1455 H1470 0.961 . S
C1455 H1471 0.960 . S
H1456 C1440 0.931 . S
H1457 C1445 0.929 . S
H1458 C1446 0.960 . S
H1459 C1446 0.962 . S
H1460 C1446 0.960 . S
H1461 C1447 0.961 . S
H1462 C1447 0.961 . S
H1463 C1447 0.961 . S
H1464 C1448 0.931 . S
H1465 C1453 0.930 . S
H1466 C1454 0.956 . S
H1467 C1454 0.961 . S
H1468 C1454 0.961 . S
H1469 C1455 0.958 . S
H1470 C1455 0.961 . S
H1471 C1455 0.960 . S
C1472 C1473 1.391 . S
C1472 C1474 1.394 . S
C1472 H1488 0.931 . S
C1473 C1472 1.391 . S
C1473 C1477 1.376 . S
C1474 C1472 1.394 . S
C1474 C1475 1.369 . S
C1474 C1478 1.531 . S
C1475 C1474 1.369 . S
C1475 C1476 1.410 . S
C1475 C1483 1.503 . S
C1476 C1475 1.410 . S
C1476 C1477 1.392 . S
C1476 C1479 1.511 . S
C1477 C1473 1.376 . S
C1477 C1476 1.392 . S
C1477 H1489 0.929 . S
C1478 C1474 1.531 . S
C1478 H1490 0.960 . S
C1478 H1491 0.962 . S
C1478 H1492 0.960 . S
C1479 C1476 1.511 . S
C1479 H1493 0.961 . S
C1479 H1494 0.961 . S
C1479 H1495 0.961 . S
C1480 C1481 1.370 . S
C1480 C1482 1.363 . S
C1480 H1496 0.931 . S
C1481 C1480 1.370 . S
C1481 C1485 1.408 . S
C1482 C1480 1.363 . S
C1482 C1483 1.370 . S
C1482 C1486 1.524 . S
C1483 C1475 1.503 . S
C1483 C1482 1.370 . S
C1483 C1484 1.403 . S
C1484 C1483 1.403 . S
C1484 C1485 1.404 . S
C1484 C1487 1.539 . S
C1485 C1481 1.408 . S
C1485 C1484 1.404 . S
C1485 H1497 0.930 . S
C1486 C1482 1.524 . S
C1486 H1498 0.956 . S
C1486 H1499 0.961 . S
C1486 H1500 0.961 . S
C1487 C1484 1.539 . S
C1487 H1501 0.958 . S
C1487 H1502 0.961 . S
C1487 H1503 0.960 . S
H1488 C1472 0.931 . S
H1489 C1477 0.929 . S
H1490 C1478 0.960 . S
H1491 C1478 0.962 . S
H1492 C1478 0.960 . S
H1493 C1479 0.961 . S
H1494 C1479 0.961 . S
H1495 C1479 0.961 . S
H1496 C1480 0.931 . S
H1497 C1485 0.930 . S
H1498 C1486 0.956 . S
H1499 C1486 0.961 . S
H1500 C1486 0.961 . S
H1501 C1487 0.958 . S
H1502 C1487 0.961 . S
H1503 C1487 0.960 . S
C1504 C1505 1.391 . S
C1504 C1506 1.394 . S
C1504 H1520 0.931 . S
C1505 C1504 1.391 . S
C1505 C1509 1.376 . S
C1506 C1504 1.394 . S
C1506 C1507 1.369 . S
C1506 C1510 1.531 . S
C1507 C1506 1.369 . S
C1507 C1508 1.410 . S
C1507 C1515 1.503 . S
C1508 C1507 1.410 . S
C1508 C1509 1.392 . S
C1508 C1511 1.511 . S
C1509 C1505 1.376 . S
C1509 C1508 1.392 . S
C1509 H1521 0.929 . S
C1510 C1506 1.531 . S
C1510 H1522 0.960 . S
C1510 H1523 0.962 . S
C1510 H1524 0.960 . S
C1511 C1508 1.511 . S
C1511 H1525 0.961 . S
C1511 H1526 0.961 . S
C1511 H1527 0.961 . S
C1512 C1513 1.370 . S
C1512 C1514 1.363 . S
C1512 H1528 0.931 . S
C1513 C1512 1.370 . S
C1513 C1517 1.408 . S
C1514 C1512 1.363 . S
C1514 C1515 1.370 . S
C1514 C1518 1.524 . S
C1515 C1507 1.503 . S
C1515 C1514 1.370 . S
C1515 C1516 1.403 . S
C1516 C1515 1.403 . S
C1516 C1517 1.404 . S
C1516 C1519 1.539 . S
C1517 C1513 1.408 . S
C1517 C1516 1.404 . S
C1517 H1529 0.930 . S
C1518 C1514 1.524 . S
C1518 H1530 0.956 . S
C1518 H1531 0.961 . S
C1518 H1532 0.961 . S
C1519 C1516 1.539 . S
C1519 H1533 0.958 . S
C1519 H1534 0.961 . S
C1519 H1535 0.960 . S
H1520 C1504 0.931 . S
H1521 C1509 0.929 . S
H1522 C1510 0.960 . S
H1523 C1510 0.962 . S
H1524 C1510 0.960 . S
H1525 C1511 0.961 . S
H1526 C1511 0.961 . S
H1527 C1511 0.961 . S
H1528 C1512 0.931 . S
H1529 C1517 0.930 . S
H1530 C1518 0.956 . S
H1531 C1518 0.961 . S
H1532 C1518 0.961 . S
H1533 C1519 0.958 . S
H1534 C1519 0.961 . S
H1535 C1519 0.960 . S
C1536 C1537 1.391 . S
C1536 C1538 1.394 . S
C1536 H1552 0.931 . S
C1537 C1536 1.391 . S
C1537 C1541 1.376 . S
C1538 C1536 1.394 . S
C1538 C1539 1.369 . S
C1538 C1542 1.531 . S
C1539 C1538 1.369 . S
C1539 C1540 1.410 . S
C1539 C1547 1.503 . S
C1540 C1539 1.410 . S
C1540 C1541 1.392 . S
C1540 C1543 1.511 . S
C1541 C1537 1.376 . S
C1541 C1540 1.392 . S
C1541 H1553 0.929 . S
C1542 C1538 1.531 . S
C1542 H1554 0.960 . S
C1542 H1555 0.962 . S
C1542 H1556 0.960 . S
C1543 C1540 1.511 . S
C1543 H1557 0.961 . S
C1543 H1558 0.961 . S
C1543 H1559 0.961 . S
C1544 C1545 1.370 . S
C1544 C1546 1.363 . S
C1544 H1560 0.931 . S
C1545 C1544 1.370 . S
C1545 C1549 1.408 . S
C1546 C1544 1.363 . S
C1546 C1547 1.370 . S
C1546 C1550 1.524 . S
C1547 C1539 1.503 . S
C1547 C1546 1.370 . S
C1547 C1548 1.403 . S
C1548 C1547 1.403 . S
C1548 C1549 1.404 . S
C1548 C1551 1.539 . S
C1549 C1545 1.408 . S
C1549 C1548 1.404 . S
C1549 H1561 0.930 . S
C1550 C1546 1.524 . S
C1550 H1562 0.956 . S
C1550 H1563 0.961 . S
C1550 H1564 0.961 . S
C1551 C1548 1.539 . S
C1551 H1565 0.958 . S
C1551 H1566 0.961 . S
C1551 H1567 0.960 . S
H1552 C1536 0.931 . S
H1553 C1541 0.929 . S
H1554 C1542 0.960 . S
H1555 C1542 0.962 . S
H1556 C1542 0.960 . S
H1557 C1543 0.961 . S
H1558 C1543 0.961 . S
H1559 C1543 0.961 . S
H1560 C1544 0.931 . S
H1561 C1549 0.930 . S
H1562 C1550 0.956 . S
H1563 C1550 0.961 . S
H1564 C1550 0.961 . S
H1565 C1551 0.958 . S
H1566 C1551 0.961 . S
H1567 C1551 0.960 . S
C1568 C1569 1.393 . S
C1568 C1570 1.394 . S
C1568 H1584 0.931 1_655 S
C1569 C1568 1.393 . S
C1569 C1573 1.387 . S
C1570 C1568 1.394 . S
C1570 C1571 1.369 . S
C1570 C1574 1.531 . S
C1571 C1570 1.369 . S
C1571 C1572 1.410 . S
C1571 C1579 1.503 . S
C1572 C1571 1.410 . S
C1572 C1573 1.392 . S
C1572 C1575 1.511 . S
C1573 C1569 1.387 . S
C1573 C1572 1.392 . S
C1573 H1585 0.929 . S
C1574 C1570 1.531 . S
C1574 H1586 0.960 . S
C1574 H1587 0.962 . S
C1574 H1588 0.960 . S
C1575 C1572 1.511 . S
C1575 H1589 0.961 . S
C1575 H1590 0.961 . S
C1575 H1591 0.961 . S
C1576 C1577 1.370 . S
C1576 C1578 1.363 . S
C1576 H1592 0.931 . S
C1577 C1576 1.370 . S
C1577 C1581 1.408 . S
C1578 C1576 1.363 . S
C1578 C1579 1.370 . S
C1578 C1582 1.524 . S
C1579 C1571 1.503 . S
C1579 C1578 1.370 . S
C1579 C1580 1.403 . S
C1580 C1579 1.403 . S
C1580 C1581 1.404 . S
C1580 C1583 1.539 . S
C1581 C1577 1.408 . S
C1581 C1580 1.404 . S
C1581 H1593 0.930 . S
C1582 C1578 1.524 . S
C1582 H1594 0.956 . S
C1582 H1595 0.961 . S
C1582 H1596 0.961 . S
C1583 C1580 1.539 . S
C1583 H1597 0.958 . S
C1583 H1598 0.961 . S
C1583 H1599 0.960 . S
H1584 C1568 0.931 1_455 S
H1585 C1573 0.929 . S
H1586 C1574 0.960 . S
H1587 C1574 0.962 . S
H1588 C1574 0.960 . S
H1589 C1575 0.961 . S
H1590 C1575 0.961 . S
H1591 C1575 0.961 . S
H1592 C1576 0.931 . S
H1593 C1581 0.930 . S
H1594 C1582 0.956 . S
H1595 C1582 0.961 . S
H1596 C1582 0.961 . S
H1597 C1583 0.958 . S
H1598 C1583 0.961 . S
H1599 C1583 0.960 . S
C1600 C1601 1.400 . S
C1600 C1602 1.394 . S
C1600 H1616 0.931 . S
C1601 C1600 1.400 . S
C1601 C1605 1.385 . S
C1602 C1600 1.394 . S
C1602 C1603 1.369 . S
C1602 C1606 1.531 . S
C1603 C1602 1.369 . S
C1603 C1604 1.410 . S
C1603 C1611 1.503 . S
C1604 C1603 1.410 . S
C1604 C1605 1.392 . S
C1604 C1607 1.511 . S
C1605 C1601 1.385 . S
C1605 C1604 1.392 . S
C1605 H1617 0.929 . S
C1606 C1602 1.531 . S
C1606 H1618 0.960 . S
C1606 H1619 0.962 . S
C1606 H1620 0.960 . S
C1607 C1604 1.511 . S
C1607 H1621 0.961 . S
C1607 H1622 0.961 . S
C1607 H1623 0.961 . S
C1608 C1609 1.370 . S
C1608 C1610 1.363 . S
C1608 H1624 0.931 . S
C1609 C1608 1.370 . S
C1609 C1613 1.408 . S
C1610 C1608 1.363 . S
C1610 C1611 1.370 . S
C1610 C1614 1.524 . S
C1611 C1603 1.503 . S
C1611 C1610 1.370 . S
C1611 C1612 1.403 . S
C1612 C1611 1.403 . S
C1612 C1613 1.404 . S
C1612 C1615 1.539 . S
C1613 C1609 1.408 . S
C1613 C1612 1.404 . S
C1613 H1625 0.930 . S
C1614 C1610 1.524 . S
C1614 H1626 0.956 . S
C1614 H1627 0.961 . S
C1614 H1628 0.961 . S
C1615 C1612 1.539 . S
C1615 H1629 0.958 . S
C1615 H1630 0.961 . S
C1615 H1631 0.960 . S
H1616 C1600 0.931 . S
H1617 C1605 0.929 . S
H1618 C1606 0.960 . S
H1619 C1606 0.962 . S
H1620 C1606 0.960 . S
H1621 C1607 0.961 . S
H1622 C1607 0.961 . S
H1623 C1607 0.961 . S
H1624 C1608 0.931 . S
H1625 C1613 0.930 . S
H1626 C1614 0.956 . S
H1627 C1614 0.961 . S
H1628 C1614 0.961 . S
H1629 C1615 0.958 . S
H1630 C1615 0.961 . S
H1631 C1615 0.960 . S
C1632 C1633 1.391 . S
C1632 C1634 1.394 . S
C1632 H1648 0.931 . S
C1633 C1632 1.391 . S
C1633 C1637 1.376 . S
C1634 C1632 1.394 . S
C1634 C1635 1.369 . S
C1634 C1638 1.531 . S
C1635 C1634 1.369 . S
C1635 C1636 1.410 . S
C1635 C1643 1.503 . S
C1636 C1635 1.410 . S
C1636 C1637 1.392 . S
C1636 C1639 1.511 . S
C1637 C1633 1.376 . S
C1637 C1636 1.392 . S
C1637 H1649 0.929 . S
C1638 C1634 1.531 . S
C1638 H1650 0.960 . S
C1638 H1651 0.962 . S
C1638 H1652 0.960 . S
C1639 C1636 1.511 . S
C1639 H1653 0.961 . S
C1639 H1654 0.961 . S
C1639 H1655 0.961 . S
C1640 C1641 1.370 . S
C1640 C1642 1.363 . S
C1640 H1656 0.931 . S
C1641 C1640 1.370 . S
C1641 C1645 1.408 . S
C1642 C1640 1.363 . S
C1642 C1643 1.370 . S
C1642 C1646 1.524 . S
C1643 C1635 1.503 . S
C1643 C1642 1.370 . S
C1643 C1644 1.403 . S
C1644 C1643 1.403 . S
C1644 C1645 1.404 . S
C1644 C1647 1.539 . S
C1645 C1641 1.408 . S
C1645 C1644 1.404 . S
C1645 H1657 0.930 . S
C1646 C1642 1.524 . S
C1646 H1658 0.956 . S
C1646 H1659 0.961 . S
C1646 H1660 0.961 . S
C1647 C1644 1.539 . S
C1647 H1661 0.958 . S
C1647 H1662 0.961 . S
C1647 H1663 0.960 . S
H1648 C1632 0.931 . S
H1649 C1637 0.929 . S
H1650 C1638 0.960 . S
H1651 C1638 0.962 . S
H1652 C1638 0.960 . S
H1653 C1639 0.961 . S
H1654 C1639 0.961 . S
H1655 C1639 0.961 . S
H1656 C1640 0.931 . S
H1657 C1645 0.930 . S
H1658 C1646 0.956 . S
H1659 C1646 0.961 . S
H1660 C1646 0.961 . S
H1661 C1647 0.958 . S
H1662 C1647 0.961 . S
H1663 C1647 0.960 . S
C1664 C1665 1.391 . S
C1664 C1666 1.394 . S
C1664 H1680 0.931 . S
C1665 C1664 1.391 . S
C1665 C1669 1.376 . S
C1666 C1664 1.394 . S
C1666 C1667 1.369 . S
C1666 C1670 1.531 . S
C1667 C1666 1.369 . S
C1667 C1668 1.410 . S
C1667 C1675 1.503 . S
C1668 C1667 1.410 . S
C1668 C1669 1.392 . S
C1668 C1671 1.511 . S
C1669 C1665 1.376 . S
C1669 C1668 1.392 . S
C1669 H1681 0.929 . S
C1670 C1666 1.531 . S
C1670 H1682 0.960 . S
C1670 H1683 0.962 . S
C1670 H1684 0.960 . S
C1671 C1668 1.511 . S
C1671 H1685 0.961 . S
C1671 H1686 0.961 . S
C1671 H1687 0.961 . S
C1672 C1673 1.370 . S
C1672 C1674 1.363 . S
C1672 H1688 0.931 . S
C1673 C1672 1.370 . S
C1673 C1677 1.408 . S
C1674 C1672 1.363 . S
C1674 C1675 1.370 . S
C1674 C1678 1.524 . S
C1675 C1667 1.503 . S
C1675 C1674 1.370 . S
C1675 C1676 1.403 . S
C1676 C1675 1.403 . S
C1676 C1677 1.404 . S
C1676 C1679 1.539 . S
C1677 C1673 1.408 . S
C1677 C1676 1.404 . S
C1677 H1689 0.930 . S
C1678 C1674 1.524 . S
C1678 H1690 0.956 . S
C1678 H1691 0.961 . S
C1678 H1692 0.961 . S
C1679 C1676 1.539 . S
C1679 H1693 0.958 . S
C1679 H1694 0.961 . S
C1679 H1695 0.960 . S
H1680 C1664 0.931 . S
H1681 C1669 0.929 . S
H1682 C1670 0.960 . S
H1683 C1670 0.962 . S
H1684 C1670 0.960 . S
H1685 C1671 0.961 . S
H1686 C1671 0.961 . S
H1687 C1671 0.961 . S
H1688 C1672 0.931 . S
H1689 C1677 0.930 . S
H1690 C1678 0.956 . S
H1691 C1678 0.961 . S
H1692 C1678 0.961 . S
H1693 C1679 0.958 . S
H1694 C1679 0.961 . S
H1695 C1679 0.960 . S
C1696 C1697 1.391 1_455 S
C1696 C1698 1.383 1_455 S
C1696 H1712 0.942 . S
C1697 C1696 1.391 1_655 S
C1697 C1701 1.383 . S
C1698 C1696 1.383 1_655 S
C1698 C1699 1.369 . S
C1698 C1702 1.531 . S
C1699 C1698 1.369 . S
C1699 C1700 1.410 . S
C1699 C1707 1.503 . S
C1700 C1699 1.410 . S
C1700 C1701 1.392 . S
C1700 C1703 1.511 . S
C1701 C1697 1.383 . S
C1701 C1700 1.392 . S
C1701 H1713 0.929 . S
C1702 C1698 1.531 . S
C1702 H1714 0.960 . S
C1702 H1715 0.962 . S
C1702 H1716 0.960 . S
C1703 C1700 1.511 . S
C1703 H1717 0.961 . S
C1703 H1718 0.961 . S
C1703 H1719 0.961 . S
C1704 C1705 1.370 . S
C1704 C1706 1.363 . S
C1704 H1720 0.931 . S
C1705 C1704 1.370 . S
C1705 C1709 1.408 . S
C1706 C1704 1.363 . S
C1706 C1707 1.370 . S
C1706 C1710 1.524 . S
C1707 C1699 1.503 . S
C1707 C1706 1.370 . S
C1707 C1708 1.403 . S
C1708 C1707 1.403 . S
C1708 C1709 1.404 . S
C1708 C1711 1.539 . S
C1709 C1705 1.408 . S
C1709 C1708 1.404 . S
C1709 H1721 0.930 . S
C1710 C1706 1.524 . S
C1710 H1722 0.956 . S
C1710 H1723 0.961 . S
C1710 H1724 0.961 . S
C1711 C1708 1.539 . S
C1711 H1725 0.958 . S
C1711 H1726 0.961 . S
C1711 H1727 0.960 . S
H1712 C1696 0.942 . S
H1713 C1701 0.929 . S
H1714 C1702 0.960 . S
H1715 C1702 0.962 . S
H1716 C1702 0.960 . S
H1717 C1703 0.961 . S
H1718 C1703 0.961 . S
H1719 C1703 0.961 . S
H1720 C1704 0.931 . S
H1721 C1709 0.930 . S
H1722 C1710 0.956 . S
H1723 C1710 0.961 . S
H1724 C1710 0.961 . S
H1725 C1711 0.958 . S
H1726 C1711 0.961 . S
H1727 C1711 0.960 . S
C1728 C1729 1.391 . S
C1728 C1730 1.394 . S
C1728 H1744 0.931 . S
C1729 C1728 1.391 . S
C1729 C1733 1.376 . S
C1730 C1728 1.394 . S
C1730 C1731 1.369 . S
C1730 C1734 1.531 . S
C1731 C1730 1.369 . S
C1731 C1732 1.410 . S
C1731 C1739 1.503 . S
C1732 C1731 1.410 . S
C1732 C1733 1.392 . S
C1732 C1735 1.511 . S
C1733 C1729 1.376 . S
C1733 C1732 1.392 . S
C1733 H1745 0.929 . S
C1734 C1730 1.531 . S
C1734 H1746 0.960 . S
C1734 H1747 0.962 . S
C1734 H1748 0.960 . S
C1735 C1732 1.511 . S
C1735 H1749 0.961 . S
C1735 H1750 0.961 . S
C1735 H1751 0.961 . S
C1736 C1737 1.370 1_565 S
C1736 C1738 1.363 . S
C1736 H1752 0.931 . S
C1737 C1736 1.370 1_545 S
C1737 C1741 1.408 . S
C1738 C1736 1.363 . S
C1738 C1739 1.370 . S
C1738 C1742 1.524 . S
C1739 C1731 1.503 . S
C1739 C1738 1.370 . S
C1739 C1740 1.403 . S
C1740 C1739 1.403 . S
C1740 C1741 1.404 1_565 S
C1740 C1743 1.539 1_565 S
C1741 C1737 1.408 . S
C1741 C1740 1.404 1_545 S
C1741 H1753 0.930 . S
C1742 C1738 1.524 . S
C1742 H1754 0.956 . S
C1742 H1755 0.961 . S
C1742 H1756 0.961 . S
C1743 C1740 1.539 1_545 S
C1743 H1757 0.958 . S
C1743 H1758 0.961 . S
C1743 H1759 0.960 1_545 S
H1744 C1728 0.931 . S
H1745 C1733 0.929 . S
H1746 C1734 0.960 . S
H1747 C1734 0.962 . S
H1748 C1734 0.960 . S
H1749 C1735 0.961 . S
H1750 C1735 0.961 . S
H1751 C1735 0.961 . S
H1752 C1736 0.931 . S
H1753 C1741 0.930 . S
H1754 C1742 0.956 . S
H1755 C1742 0.961 . S
H1756 C1742 0.961 . S
H1757 C1743 0.958 . S
H1758 C1743 0.961 . S
H1759 C1743 0.960 1_565 S
C1760 C1761 1.391 . S
C1760 C1762 1.394 . S
C1760 H1776 0.931 . S
C1761 C1760 1.391 . S
C1761 C1765 1.376 . S
C1762 C1760 1.394 . S
C1762 C1763 1.369 . S
C1762 C1766 1.531 . S
C1763 C1762 1.369 . S
C1763 C1764 1.410 . S
C1763 C1771 1.503 . S
C1764 C1763 1.410 . S
C1764 C1765 1.392 . S
C1764 C1767 1.511 . S
C1765 C1761 1.376 . S
C1765 C1764 1.392 . S
C1765 H1777 0.929 . S
C1766 C1762 1.531 . S
C1766 H1778 0.960 . S
C1766 H1779 0.962 . S
C1766 H1780 0.960 . S
C1767 C1764 1.511 . S
C1767 H1781 0.961 . S
C1767 H1782 0.961 . S
C1767 H1783 0.961 . S
C1768 C1769 1.370 . S
C1768 C1770 1.363 . S
C1768 H1784 0.931 . S
C1769 C1768 1.370 . S
C1769 C1773 1.408 . S
C1770 C1768 1.363 . S
C1770 C1771 1.370 . S
C1770 C1774 1.524 . S
C1771 C1763 1.503 . S
C1771 C1770 1.370 . S
C1771 C1772 1.403 . S
C1772 C1771 1.403 . S
C1772 C1773 1.404 . S
C1772 C1775 1.539 . S
C1773 C1769 1.408 . S
C1773 C1772 1.404 . S
C1773 H1785 0.930 . S
C1774 C1770 1.524 . S
C1774 H1786 0.956 . S
C1774 H1787 0.961 . S
C1774 H1788 0.961 . S
C1775 C1772 1.539 . S
C1775 H1789 0.958 . S
C1775 H1790 0.961 . S
C1775 H1791 0.960 . S
H1776 C1760 0.931 . S
H1777 C1765 0.929 . S
H1778 C1766 0.960 . S
H1779 C1766 0.962 . S
H1780 C1766 0.960 . S
H1781 C1767 0.961 . S
H1782 C1767 0.961 . S
H1783 C1767 0.961 . S
H1784 C1768 0.931 . S
H1785 C1773 0.930 . S
H1786 C1774 0.956 . S
H1787 C1774 0.961 . S
H1788 C1774 0.961 . S
H1789 C1775 0.958 . S
H1790 C1775 0.961 . S
H1791 C1775 0.960 . S
C1792 C1793 1.391 . S
C1792 C1794 1.394 . S
C1792 H1808 0.931 . S
C1793 C1792 1.391 . S
C1793 C1797 1.376 . S
C1794 C1792 1.394 . S
C1794 C1795 1.369 . S
C1794 C1798 1.531 . S
C1795 C1794 1.369 . S
C1795 C1796 1.410 . S
C1795 C1803 1.503 . S
C1796 C1795 1.410 . S
C1796 C1797 1.392 . S
C1796 C1799 1.511 . S
C1797 C1793 1.376 . S
C1797 C1796 1.392 . S
C1797 H1809 0.929 . S
C1798 C1794 1.531 . S
C1798 H1810 0.960 . S
C1798 H1811 0.962 . S
C1798 H1812 0.960 . S
C1799 C1796 1.511 . S
C1799 H1813 0.961 . S
C1799 H1814 0.961 . S
C1799 H1815 0.961 . S
C1800 C1801 1.370 . S
C1800 C1802 1.363 . S
C1800 H1816 0.931 . S
C1801 C1800 1.370 . S
C1801 C1805 1.408 . S
C1802 C1800 1.363 . S
C1802 C1803 1.370 . S
C1802 C1806 1.524 . S
C1803 C1795 1.503 . S
C1803 C1802 1.370 . S
C1803 C1804 1.403 . S
C1804 C1803 1.403 . S
C1804 C1805 1.404 . S
C1804 C1807 1.539 . S
C1805 C1801 1.408 . S
C1805 C1804 1.404 . S
C1805 H1817 0.930 . S
C1806 C1802 1.524 . S
C1806 H1818 0.956 . S
C1806 H1819 0.961 . S
C1806 H1820 0.961 . S
C1807 C1804 1.539 . S
C1807 H1821 0.958 . S
C1807 H1822 0.961 . S
C1807 H1823 0.960 . S
H1808 C1792 0.931 . S
H1809 C1797 0.929 . S
H1810 C1798 0.960 . S
H1811 C1798 0.962 . S
H1812 C1798 0.960 . S
H1813 C1799 0.961 . S
H1814 C1799 0.961 . S
H1815 C1799 0.961 . S
H1816 C1800 0.931 . S
H1817 C1805 0.930 . S
H1818 C1806 0.956 . S
H1819 C1806 0.961 . S
H1820 C1806 0.961 . S
H1821 C1807 0.958 . S
H1822 C1807 0.961 . S
H1823 C1807 0.960 . S
C545 C33 1.557 . S
C553 C237 1.576 . S
C577 C271 1.576 . S
C585 C67 1.569 . S
C609 C169 1.571 . S
C617 C101 1.570 . S
C641 C203 1.558 . S
C649 C135 1.575 . S
C673 C305 1.559 . S
C681 C509 1.576 . S
C705 C339 1.574 . S
C713 C543 1.569 . S
C737 C373 1.560 . S
C745 C441 1.575 . S
C769 C475 1.578 . S
C777 C407 1.568 . S
C801 C5 1.472 . S
C809 C104 1.465 . S
C833 C39 1.443 . S
C841 C2 1.472 . S
C865 C36 1.479 . S
C873 C73 1.446 . S
C897 C107 1.449 . S
C905 C70 1.471 . S
C929 C172 1.455 . S
C937 C141 1.461 . S
C961 C206 1.480 . S
C969 C175 1.445 . S
C993 C240 1.454 . S
C1001 C209 1.462 . S
C1025 C138 1.453 . S
C1033 C243 1.463 . S
C1057 C277 1.449 . S
C1065 C376 1.471 . S
C1089 C274 1.481 . S
C1097 C311 1.444 . S
C1121 C345 1.440 . S
C1129 C308 1.473 . S
C1153 C379 1.457 . S
C1161 C342 1.469 . S
C1185 C413 1.427 . S
C1193 C444 1.476 . S
C1217 C447 1.470 . S
C1225 C478 1.466 . S
C1249 C481 1.434 . S
C1257 C512 1.474 . S
C1281 C410 1.481 . S
C1289 C515 1.445 . S
C1313 C530 1.810 . S
C1321 C20 1.806 . S
C1345 C54 1.810 . S
C1353 C428 1.806 . S
C1377 C462 1.799 . S
C1385 C88 1.799 1_655 S
C1409 C122 1.787 1_565 S
C1417 C496 1.811 . S
C1441 C326 1.799 . S
C1449 C156 1.811 . S
C1473 C190 1.801 . S
C1481 C360 1.809 . S
C1505 C224 1.788 1_655 S
C1513 C394 1.811 . S
C1537 C292 1.806 . S
C1545 C258 1.796 1_565 S
C1569 C145 1.192 1_655 S
C1577 C383 1.197 . S
C1601 C179 1.173 1_565 S
C1609 C281 1.201 . S
C1633 C213 1.152 . S
C1641 C315 1.195 . S
C1665 C349 1.218 . S
C1673 C247 1.188 . S
C1697 C9 1.203 1_655 S
C1705 C451 1.195 . S
C1729 C485 1.153 . S
C1737 C43 1.190 . S
C1761 C77 1.219 . S
C1769 C519 1.185 . S
C1793 C111 1.159 . S
C1801 C417 1.200 . S
