# Generated by pormake.
# Topology cha, (4)-cn, num edge types: 1
# Building blocks:
#     Node 0, Type 0, BuildingBlock: GALJAG_clean_sbu_0, # of connection points: 4
#     Node 1, Type 0, BuildingBlock: GALJAG_clean_sbu_0, # of connection points: 4
#     Node 2, Type 0, BuildingBlock: GALJAG_clean_sbu_0, # of connection points: 4
#     Node 3, Type 0, BuildingBlock: GALJAG_clean_sbu_0, # of connection points: 4
#     Node 4, Type 0, BuildingBlock: GALJAG_clean_sbu_0, # of connection points: 4
#     Node 5, Type 0, BuildingBlock: GALJAG_clean_sbu_0, # of connection points: 4
#     Node 6, Type 0, BuildingBlock: GALJAG_clean_sbu_0, # of connection points: 4
#     Node 7, Type 0, BuildingBlock: GALJAG_clean_sbu_0, # of connection points: 4
#     Node 8, Type 0, BuildingBlock: GALJAG_clean_sbu_0, # of connection points: 4
#     Node 9, Type 0, BuildingBlock: GALJAG_clean_sbu_0, # of connection points: 4
#     Node 10, Type 0, BuildingBlock: GALJAG_clean_sbu_0, # of connection points: 4
#     Node 11, Type 0, BuildingBlock: GALJAG_clean_sbu_0, # of connection points: 4
#     Node 12, Type 0, BuildingBlock: GALJAG_clean_sbu_0, # of connection points: 4
#     Node 13, Type 0, BuildingBlock: GALJAG_clean_sbu_0, # of connection points: 4
#     Node 14, Type 0, BuildingBlock: GALJAG_clean_sbu_0, # of connection points: 4
#     Node 15, Type 0, BuildingBlock: GALJAG_clean_sbu_0, # of connection points: 4
#     Node 16, Type 0, BuildingBlock: GALJAG_clean_sbu_0, # of connection points: 4
#     Node 17, Type 0, BuildingBlock: GALJAG_clean_sbu_0, # of connection points: 4
#     Node 18, Type 0, BuildingBlock: GALJAG_clean_sbu_0, # of connection points: 4
#     Node 19, Type 0, BuildingBlock: GALJAG_clean_sbu_0, # of connection points: 4
#     Node 20, Type 0, BuildingBlock: GALJAG_clean_sbu_0, # of connection points: 4
#     Node 21, Type 0, BuildingBlock: GALJAG_clean_sbu_0, # of connection points: 4
#     Node 22, Type 0, BuildingBlock: GALJAG_clean_sbu_0, # of connection points: 4
#     Node 23, Type 0, BuildingBlock: GALJAG_clean_sbu_0, # of connection points: 4
#     Node 24, Type 0, BuildingBlock: GALJAG_clean_sbu_0, # of connection points: 4
#     Node 25, Type 0, BuildingBlock: GALJAG_clean_sbu_0, # of connection points: 4
#     Node 26, Type 0, BuildingBlock: GALJAG_clean_sbu_0, # of connection points: 4
#     Node 27, Type 0, BuildingBlock: GALJAG_clean_sbu_0, # of connection points: 4
#     Node 28, Type 0, BuildingBlock: GALJAG_clean_sbu_0, # of connection points: 4
#     Node 29, Type 0, BuildingBlock: GALJAG_clean_sbu_0, # of connection points: 4
#     Node 30, Type 0, BuildingBlock: GALJAG_clean_sbu_0, # of connection points: 4
#     Node 31, Type 0, BuildingBlock: GALJAG_clean_sbu_0, # of connection points: 4
#     Node 32, Type 0, BuildingBlock: GALJAG_clean_sbu_0, # of connection points: 4
#     Node 33, Type 0, BuildingBlock: GALJAG_clean_sbu_0, # of connection points: 4
#     Node 34, Type 0, BuildingBlock: GALJAG_clean_sbu_0, # of connection points: 4
#     Node 35, Type 0, BuildingBlock: GALJAG_clean_sbu_0, # of connection points: 4
#     Edge 36, Type (0, 0), BuildingBlock: TEMPAE_clean_linker_10, # of connection points: 2
#     Edge 37, Type (0, 0), BuildingBlock: TEMPAE_clean_linker_10, # of connection points: 2
#     Edge 38, Type (0, 0), BuildingBlock: TEMPAE_clean_linker_10, # of connection points: 2
#     Edge 39, Type (0, 0), BuildingBlock: TEMPAE_clean_linker_10, # of connection points: 2
#     Edge 40, Type (0, 0), BuildingBlock: TEMPAE_clean_linker_10, # of connection points: 2
#     Edge 41, Type (0, 0), BuildingBlock: TEMPAE_clean_linker_10, # of connection points: 2
#     Edge 42, Type (0, 0), BuildingBlock: TEMPAE_clean_linker_10, # of connection points: 2
#     Edge 43, Type (0, 0), BuildingBlock: TEMPAE_clean_linker_10, # of connection points: 2
#     Edge 44, Type (0, 0), BuildingBlock: TEMPAE_clean_linker_10, # of connection points: 2
#     Edge 45, Type (0, 0), BuildingBlock: TEMPAE_clean_linker_10, # of connection points: 2
#     Edge 46, Type (0, 0), BuildingBlock: TEMPAE_clean_linker_10, # of connection points: 2
#     Edge 47, Type (0, 0), BuildingBlock: TEMPAE_clean_linker_10, # of connection points: 2
#     Edge 48, Type (0, 0), BuildingBlock: TEMPAE_clean_linker_10, # of connection points: 2
#     Edge 49, Type (0, 0), BuildingBlock: TEMPAE_clean_linker_10, # of connection points: 2
#     Edge 50, Type (0, 0), BuildingBlock: TEMPAE_clean_linker_10, # of connection points: 2
#     Edge 51, Type (0, 0), BuildingBlock: TEMPAE_clean_linker_10, # of connection points: 2
#     Edge 52, Type (0, 0), BuildingBlock: TEMPAE_clean_linker_10, # of connection points: 2
#     Edge 53, Type (0, 0), BuildingBlock: TEMPAE_clean_linker_10, # of connection points: 2
#     Edge 54, Type (0, 0), BuildingBlock: TEMPAE_clean_linker_10, # of connection points: 2
#     Edge 55, Type (0, 0), BuildingBlock: TEMPAE_clean_linker_10, # of connection points: 2
#     Edge 56, Type (0, 0), BuildingBlock: TEMPAE_clean_linker_10, # of connection points: 2
#     Edge 57, Type (0, 0), BuildingBlock: TEMPAE_clean_linker_10, # of connection points: 2
#     Edge 58, Type (0, 0), BuildingBlock: TEMPAE_clean_linker_10, # of connection points: 2
#     Edge 59, Type (0, 0), BuildingBlock: TEMPAE_clean_linker_10, # of connection points: 2
#     Edge 60, Type (0, 0), BuildingBlock: TEMPAE_clean_linker_10, # of connection points: 2
#     Edge 61, Type (0, 0), BuildingBlock: TEMPAE_clean_linker_10, # of connection points: 2
#     Edge 62, Type (0, 0), BuildingBlock: TEMPAE_clean_linker_10, # of connection points: 2
#     Edge 63, Type (0, 0), BuildingBlock: TEMPAE_clean_linker_10, # of connection points: 2
#     Edge 64, Type (0, 0), BuildingBlock: TEMPAE_clean_linker_10, # of connection points: 2
#     Edge 65, Type (0, 0), BuildingBlock: TEMPAE_clean_linker_10, # of connection points: 2
#     Edge 66, Type (0, 0), BuildingBlock: TEMPAE_clean_linker_10, # of connection points: 2
#     Edge 67, Type (0, 0), BuildingBlock: TEMPAE_clean_linker_10, # of connection points: 2
#     Edge 68, Type (0, 0), BuildingBlock: TEMPAE_clean_linker_10, # of connection points: 2
#     Edge 69, Type (0, 0), BuildingBlock: TEMPAE_clean_linker_10, # of connection points: 2
#     Edge 70, Type (0, 0), BuildingBlock: TEMPAE_clean_linker_10, # of connection points: 2
#     Edge 71, Type (0, 0), BuildingBlock: TEMPAE_clean_linker_10, # of connection points: 2
#     Edge 72, Type (0, 0), BuildingBlock: TEMPAE_clean_linker_10, # of connection points: 2
#     Edge 73, Type (0, 0), BuildingBlock: TEMPAE_clean_linker_10, # of connection points: 2
#     Edge 74, Type (0, 0), BuildingBlock: TEMPAE_clean_linker_10, # of connection points: 2
#     Edge 75, Type (0, 0), BuildingBlock: TEMPAE_clean_linker_10, # of connection points: 2
#     Edge 76, Type (0, 0), BuildingBlock: TEMPAE_clean_linker_10, # of connection points: 2
#     Edge 77, Type (0, 0), BuildingBlock: TEMPAE_clean_linker_10, # of connection points: 2
#     Edge 78, Type (0, 0), BuildingBlock: TEMPAE_clean_linker_10, # of connection points: 2
#     Edge 79, Type (0, 0), BuildingBlock: TEMPAE_clean_linker_10, # of connection points: 2
#     Edge 80, Type (0, 0), BuildingBlock: TEMPAE_clean_linker_10, # of connection points: 2
#     Edge 81, Type (0, 0), BuildingBlock: TEMPAE_clean_linker_10, # of connection points: 2
#     Edge 82, Type (0, 0), BuildingBlock: TEMPAE_clean_linker_10, # of connection points: 2
#     Edge 83, Type (0, 0), BuildingBlock: TEMPAE_clean_linker_10, # of connection points: 2
#     Edge 84, Type (0, 0), BuildingBlock: TEMPAE_clean_linker_10, # of connection points: 2
#     Edge 85, Type (0, 0), BuildingBlock: TEMPAE_clean_linker_10, # of connection points: 2
#     Edge 86, Type (0, 0), BuildingBlock: TEMPAE_clean_linker_10, # of connection points: 2
#     Edge 87, Type (0, 0), BuildingBlock: TEMPAE_clean_linker_10, # of connection points: 2
#     Edge 88, Type (0, 0), BuildingBlock: TEMPAE_clean_linker_10, # of connection points: 2
#     Edge 89, Type (0, 0), BuildingBlock: TEMPAE_clean_linker_10, # of connection points: 2
#     Edge 90, Type (0, 0), BuildingBlock: TEMPAE_clean_linker_10, # of connection points: 2
#     Edge 91, Type (0, 0), BuildingBlock: TEMPAE_clean_linker_10, # of connection points: 2
#     Edge 92, Type (0, 0), BuildingBlock: TEMPAE_clean_linker_10, # of connection points: 2
#     Edge 93, Type (0, 0), BuildingBlock: TEMPAE_clean_linker_10, # of connection points: 2
#     Edge 94, Type (0, 0), BuildingBlock: TEMPAE_clean_linker_10, # of connection points: 2
#     Edge 95, Type (0, 0), BuildingBlock: TEMPAE_clean_linker_10, # of connection points: 2
#     Edge 96, Type (0, 0), BuildingBlock: TEMPAE_clean_linker_10, # of connection points: 2
#     Edge 97, Type (0, 0), BuildingBlock: TEMPAE_clean_linker_10, # of connection points: 2
#     Edge 98, Type (0, 0), BuildingBlock: TEMPAE_clean_linker_10, # of connection points: 2
#     Edge 99, Type (0, 0), BuildingBlock: TEMPAE_clean_linker_10, # of connection points: 2
#     Edge 100, Type (0, 0), BuildingBlock: TEMPAE_clean_linker_10, # of connection points: 2
#     Edge 101, Type (0, 0), BuildingBlock: TEMPAE_clean_linker_10, # of connection points: 2
#     Edge 102, Type (0, 0), BuildingBlock: TEMPAE_clean_linker_10, # of connection points: 2
#     Edge 103, Type (0, 0), BuildingBlock: TEMPAE_clean_linker_10, # of connection points: 2
#     Edge 104, Type (0, 0), BuildingBlock: TEMPAE_clean_linker_10, # of connection points: 2
#     Edge 105, Type (0, 0), BuildingBlock: TEMPAE_clean_linker_10, # of connection points: 2
#     Edge 106, Type (0, 0), BuildingBlock: TEMPAE_clean_linker_10, # of connection points: 2
#     Edge 107, Type (0, 0), BuildingBlock: TEMPAE_clean_linker_10, # of connection points: 2
# Relax obj value: 0.076
# Max RMSD: 0.060
# Mean RMSD: 0.060
data_MOF--net-cha--node1-GALJAG_clean_sbu_0--edge1-TEMPAE_clean_linker_10
_symmetry_space_group_name_H-M    P1
_symmetry_Int_Tables_number       1
_symmetry_cell_setting            triclinic
loop_
_symmetry_equiv_pos_as_xyz
'x, y, z'
_cell_length_a     58.574578
_cell_length_b     58.591963
_cell_length_c     84.449835
_cell_angle_alpha  90.002523
_cell_angle_beta   89.987376
_cell_angle_gamma 120.00032
loop_
_atom_site_label
_atom_site_type_symbol
_atom_site_fract_x
_atom_site_fract_y
_atom_site_fract_z
_atom_type_partial_charge
In0 In 0.02748 0.29073 0.08346 0.0
O1 O 0.02461 0.31958 0.06605 0.0
O2 O 0.03292 0.29061 0.05706 0.0
C3 C 0.02031 0.31524 0.10864 0.0
C4 C 0.07339 0.29079 0.08617 0.0
C5 C 0.98606 0.24113 0.08285 0.0
O6 O 0.0016 0.29806 0.1005 0.0
O7 O 0.04286 0.32128 0.10357 0.0
O8 O 0.00401 0.24873 0.09315 0.0
O9 O 0.98915 0.25844 0.07287 0.0
C10 C 0.02921 0.30957 0.05404 0.0
O11 O 0.05196 0.27238 0.09157 0.0
O12 O 0.0717 0.30929 0.07971 0.0
In13 In 0.75953 0.75162 0.08798 0.0
O14 O 0.7486 0.7224 0.06741 0.0
O15 O 0.73137 0.74659 0.0678 0.0
C16 C 0.73863 0.72808 0.11585 0.0
C17 C 0.76465 0.79977 0.09091 0.0
C18 C 0.80707 0.75483 0.08674 0.0
O19 O 0.72575 0.72011 0.10305 0.0
O20 O 0.76155 0.74758 0.11441 0.0
O21 O 0.80284 0.77197 0.08056 0.0
O22 O 0.78737 0.73609 0.09343 0.0
C23 C 0.73441 0.7297 0.06034 0.0
O24 O 0.77977 0.79553 0.08233 0.0
O25 O 0.74709 0.7798 0.09807 0.0
In26 In 0.29479 0.03089 0.08726 0.0
O27 O 0.32819 0.0445 0.06883 0.0
O28 O 0.29148 0.01064 0.06372 0.0
C29 C 0.32172 0.03745 0.11447 0.0
C30 C 0.24937 0.9849 0.09054 0.0
C31 C 0.28857 0.07352 0.08478 0.0
O32 O 0.32477 0.02624 0.10254 0.0
O33 O 0.30548 0.04534 0.11252 0.0
O34 O 0.27127 0.05206 0.09078 0.0
O35 O 0.30881 0.07336 0.07986 0.0
C36 C 0.31443 0.0266 0.05901 0.0
O37 O 0.2514 0.00346 0.08193 0.0
O38 O 0.27026 0.9896 0.09762 0.0
In39 In 0.29419 0.03035 0.91347 0.0
O40 O 0.27479 0.05534 0.91545 0.0
O41 O 0.31564 0.0747 0.90938 0.0
C42 C 0.2476 0.98444 0.91317 0.0
C43 C 0.31434 0.03712 0.943 0.0
C44 C 0.31746 0.02762 0.88641 0.0
O45 O 0.2514 0.00438 0.90539 0.0
O46 O 0.26728 0.98755 0.92094 0.0
O47 O 0.32067 0.01886 0.8994 0.0
O48 O 0.30305 0.03785 0.88726 0.0
C49 C 0.29548 0.07669 0.91212 0.0
O50 O 0.32444 0.0314 0.93151 0.0
O51 O 0.29476 0.03946 0.93942 0.0
In52 In 0.02952 0.30479 0.91176 0.0
O53 O 0.04531 0.33655 0.93105 0.0
O54 O 0.00525 0.30658 0.93234 0.0
C55 C 0.03372 0.33632 0.88724 0.0
C56 C 0.98935 0.2548 0.90877 0.0
C57 C 0.07115 0.29678 0.91226 0.0
O58 O 0.05306 0.33519 0.89284 0.0
O59 O 0.01235 0.32259 0.89457 0.0
O60 O 0.05611 0.29111 0.90045 0.0
O61 O 0.06501 0.30616 0.92386 0.0
C62 C 0.02404 0.32654 0.93877 0.0
O63 O 0.00385 0.26283 0.92089 0.0
O64 O 0.99533 0.27189 0.89808 0.0
In65 In 0.77387 0.77312 0.915 0.0
O66 O 0.7432 0.74533 0.93304 0.0
O67 O 0.78098 0.77435 0.94142 0.0
C68 C 0.74756 0.75215 0.88759 0.0
C69 C 0.81847 0.77063 0.91197 0.0
C70 C 0.77411 0.81913 0.91729 0.0
O71 O 0.74267 0.73862 0.90007 0.0
O72 O 0.7654 0.77581 0.88906 0.0
O73 O 0.79365 0.81762 0.91237 0.0
O74 O 0.75432 0.79739 0.92111 0.0
C75 C 0.75832 0.75558 0.94479 0.0
O76 O 0.81798 0.79178 0.91056 0.0
O77 O 0.79639 0.75056 0.91476 0.0
In78 In 0.03259 0.76358 0.91449 0.0
O79 O 0.00737 0.78146 0.92186 0.0
O80 O 0.99226 0.75168 0.90416 0.0
C81 C 0.07687 0.81129 0.91428 0.0
C82 C 0.03132 0.73976 0.94236 0.0
C83 C 0.03461 0.7416 0.88687 0.0
O84 O 0.05493 0.80818 0.91877 0.0
O85 O 0.07639 0.79043 0.91003 0.0
O86 O 0.02969 0.72911 0.89982 0.0
O87 O 0.03814 0.76458 0.88803 0.0
C88 C 0.98869 0.76744 0.91253 0.0
O89 O 0.0524 0.75485 0.93516 0.0
O90 O 0.0108 0.73535 0.93502 0.0
In91 In 0.28486 0.28843 0.91185 0.0
O92 O 0.31376 0.3171 0.93043 0.0
O93 O 0.27815 0.2837 0.93821 0.0
C94 C 0.30684 0.31184 0.88406 0.0
C95 C 0.29033 0.24553 0.91032 0.0
C96 C 0.23906 0.28887 0.91149 0.0
O97 O 0.31632 0.32298 0.89719 0.0
O98 O 0.28685 0.2892 0.88514 0.0
O99 O 0.24003 0.26795 0.91305 0.0
O100 O 0.2612 0.30956 0.91011 0.0
C101 C 0.2994 0.30407 0.94201 0.0
O102 O 0.26976 0.2454 0.90576 0.0
O103 O 0.30823 0.26733 0.91561 0.0
In104 In 0.77405 0.03673 0.91351 0.0
O105 O 0.74085 0.02559 0.93184 0.0
O106 O 0.77999 0.05377 0.93819 0.0
C107 C 0.75082 0.03483 0.88563 0.0
C108 C 0.81988 0.0815 0.90854 0.0
C109 C 0.77345 0.99058 0.91672 0.0
O110 O 0.74374 0.04092 0.89835 0.0
O111 O 0.76947 0.03011 0.88711 0.0
O112 O 0.79254 0.01216 0.9214 0.0
O113 O 0.75479 0.99232 0.91058 0.0
C114 C 0.75628 0.04058 0.94242 0.0
O115 O 0.8182 0.05913 0.90853 0.0
O116 O 0.79839 0.08113 0.91082 0.0
In117 In 0.77182 0.02028 0.08747 0.0
O118 O 0.79009 0.99526 0.09407 0.0
O119 O 0.74989 0.9755 0.08687 0.0
C120 C 0.81772 0.06616 0.08535 0.0
C121 C 0.75404 0.01924 0.05784 0.0
C122 C 0.75012 0.02227 0.11523 0.0
O123 O 0.81633 0.04407 0.08385 0.0
O124 O 0.79594 0.06508 0.08778 0.0
O125 O 0.73673 0.01466 0.10262 0.0
O126 O 0.77399 0.02872 0.11368 0.0
C127 C 0.76942 0.97359 0.09136 0.0
O128 O 0.74664 0.02762 0.06943 0.0
O129 O 0.76989 0.01141 0.06135 0.0
In130 In 0.03135 0.76846 0.08951 0.0
O131 O 0.0309 0.74031 0.07039 0.0
O132 O 0.0357 0.77734 0.06331 0.0
C133 C 0.02662 0.74261 0.11695 0.0
C134 C 0.07874 0.81236 0.09283 0.0
C135 C 0.98442 0.76639 0.08785 0.0
O136 O 0.03129 0.73499 0.10397 0.0
O137 O 0.02456 0.76292 0.11593 0.0
O138 O 0.0054 0.78706 0.09167 0.0
O139 O 0.98708 0.74674 0.08489 0.0
C140 C 0.0338 0.75579 0.05912 0.0
O141 O 0.05728 0.81217 0.09468 0.0
O142 O 0.07637 0.79032 0.08937 0.0
In143 In 0.29217 0.29287 0.08553 0.0
O144 O 0.24758 0.27125 0.08152 0.0
O145 O 0.26598 0.31037 0.09052 0.0
C146 C 0.28456 0.24335 0.08667 0.0
C147 C 0.31665 0.31739 0.05819 0.0
C148 C 0.31713 0.31677 0.1126 0.0
O149 O 0.27526 0.25104 0.0758 0.0
O150 O 0.29718 0.26042 0.09714 0.0
O151 O 0.32968 0.31837 0.10007 0.0
O152 O 0.29242 0.30338 0.11135 0.0
C153 C 0.24491 0.29021 0.08628 0.0
O154 O 0.30108 0.32258 0.06551 0.0
O155 O 0.3211 0.30101 0.06514 0.0
In156 In 0.69434 0.62433 0.42509 0.0
O157 O 0.69191 0.65007 0.40532 0.0
O158 O 0.69984 0.61952 0.39908 0.0
C159 C 0.68894 0.64657 0.45183 0.0
C160 C 0.74154 0.62784 0.4295 0.0
C161 C 0.64827 0.57863 0.42383 0.0
O162 O 0.69704 0.65949 0.43909 0.0
O163 O 0.68375 0.62305 0.45089 0.0
O164 O 0.66973 0.57982 0.42749 0.0
O165 O 0.65004 0.60053 0.42068 0.0
C166 C 0.69632 0.63798 0.3944 0.0
O167 O 0.72 0.60694 0.43191 0.0
O168 O 0.73936 0.64719 0.42497 0.0
In169 In 0.43076 0.10416 0.41997 0.0
O170 O 0.4022 0.09404 0.3991 0.0
O171 O 0.42529 0.07566 0.39982 0.0
C172 C 0.40842 0.08314 0.44814 0.0
C173 C 0.43231 0.15084 0.41892 0.0
C174 C 0.47925 0.10964 0.42203 0.0
O175 O 0.39897 0.07108 0.43525 0.0
O176 O 0.42875 0.10549 0.44667 0.0
O177 O 0.47522 0.12668 0.41547 0.0
O178 O 0.45889 0.09003 0.42756 0.0
C179 C 0.40879 0.07915 0.39225 0.0
O180 O 0.45033 0.14757 0.41308 0.0
O181 O 0.41364 0.1306 0.42526 0.0
In182 In 0.95876 0.36014 0.41829 0.0
O183 O 0.9671 0.33911 0.39809 0.0
O184 O 0.98789 0.38072 0.39798 0.0
C185 C 0.98256 0.36258 0.44607 0.0
C186 C 0.91123 0.31575 0.42011 0.0
C187 C 0.95377 0.40357 0.41803 0.0
O188 O 0.99175 0.3602 0.43301 0.0
O189 O 0.96156 0.36348 0.44498 0.0
O190 O 0.93726 0.38231 0.41144 0.0
O191 O 0.97266 0.40286 0.42471 0.0
C192 C 0.98312 0.35988 0.39093 0.0
O193 O 0.91512 0.33539 0.41192 0.0
O194 O 0.93128 0.3185 0.42734 0.0
In195 In 0.95391 0.35424 0.24432 0.0
O196 O 0.9354 0.38016 0.24628 0.0
O197 O 0.97663 0.39884 0.24148 0.0
C198 C 0.90869 0.30745 0.24255 0.0
C199 C 0.97018 0.3572 0.27456 0.0
C200 C 0.97715 0.35318 0.21696 0.0
O201 O 0.91044 0.3286 0.23762 0.0
O202 O 0.92977 0.30987 0.24808 0.0
O203 O 0.98217 0.34573 0.2299 0.0
O204 O 0.96075 0.36105 0.21797 0.0
C205 C 0.95668 0.40137 0.24372 0.0
O206 O 0.98445 0.35807 0.26305 0.0
O207 O 0.94841 0.35495 0.27064 0.0
In208 In 0.68867 0.6175 0.25014 0.0
O209 O 0.66589 0.5727 0.25294 0.0
O210 O 0.64513 0.5915 0.24466 0.0
C211 C 0.73295 0.61407 0.25106 0.0
C212 C 0.68816 0.6416 0.27752 0.0
C213 C 0.68972 0.6393 0.22183 0.0
O214 O 0.71334 0.60015 0.25983 0.0
O215 O 0.73015 0.62955 0.24198 0.0
O216 O 0.68915 0.65011 0.23469 0.0
O217 O 0.68948 0.6178 0.22343 0.0
C218 C 0.64425 0.57021 0.24834 0.0
O219 O 0.70863 0.64952 0.26922 0.0
O220 O 0.66785 0.62266 0.27153 0.0
In221 In 0.44334 0.10386 0.24554 0.0
O222 O 0.4147 0.07608 0.26448 0.0
O223 O 0.44922 0.11101 0.27187 0.0
C224 C 0.41899 0.08169 0.21792 0.0
C225 C 0.48645 0.09863 0.24464 0.0
C226 C 0.44275 0.14952 0.24475 0.0
O227 O 0.40885 0.07167 0.23116 0.0
O228 O 0.4412 0.10229 0.21878 0.0
O229 O 0.46367 0.14851 0.2433 0.0
O230 O 0.4221 0.12747 0.24658 0.0
C231 C 0.42838 0.09038 0.27589 0.0
O232 O 0.48715 0.12003 0.24157 0.0
O233 O 0.46391 0.07968 0.24805 0.0
In234 In 0.69669 0.08419 0.24759 0.0
O235 O 0.67202 0.10255 0.25523 0.0
O236 O 0.65479 0.07019 0.23928 0.0
C237 C 0.74021 0.13239 0.24585 0.0
C238 C 0.69731 0.06086 0.27525 0.0
C239 C 0.69747 0.0621 0.21978 0.0
O240 O 0.71934 0.12854 0.25259 0.0
O241 O 0.73913 0.112 0.24013 0.0
O242 O 0.69757 0.05163 0.23288 0.0
O243 O 0.69668 0.08314 0.22091 0.0
C244 C 0.65216 0.08704 0.24711 0.0
O245 O 0.6765 0.05411 0.26754 0.0
O246 O 0.71792 0.07813 0.26851 0.0
In247 In 0.95138 0.61551 0.2466 0.0
O248 O 0.93613 0.57297 0.23906 0.0
O249 O 0.97514 0.59445 0.24817 0.0
C250 C 0.90439 0.61316 0.24944 0.0
C251 C 0.9671 0.62953 0.27676 0.0
C252 C 0.97276 0.64237 0.21945 0.0
O253 O 0.90643 0.59324 0.24617 0.0
O254 O 0.92604 0.63427 0.25125 0.0
O255 O 0.98589 0.64771 0.23212 0.0
O256 O 0.94928 0.62395 0.22064 0.0
C257 C 0.95697 0.57293 0.24275 0.0
O258 O 0.97636 0.64604 0.26554 0.0
O259 O 0.95033 0.6064 0.27263 0.0
In260 In 0.42277 0.35602 0.24693 0.0
O261 O 0.40106 0.36855 0.26455 0.0
O262 O 0.40352 0.33448 0.26973 0.0
C263 C 0.39367 0.35456 0.22172 0.0
C264 C 0.47078 0.40005 0.24722 0.0
C265 C 0.43368 0.31651 0.24479 0.0
O266 O 0.38632 0.33556 0.23123 0.0
O267 O 0.41505 0.37484 0.2254 0.0
O268 O 0.44143 0.33253 0.25621 0.0
O269 O 0.42086 0.32072 0.23433 0.0
C270 C 0.39614 0.35025 0.27424 0.0
O271 O 0.46428 0.38208 0.23706 0.0
O272 O 0.45307 0.39585 0.25717 0.0
In273 In 0.42655 0.36554 0.41795 0.0
O274 O 0.39294 0.35593 0.40015 0.0
O275 O 0.43222 0.38298 0.3934 0.0
C276 C 0.399 0.36205 0.44442 0.0
C277 C 0.43014 0.32147 0.41678 0.0
C278 C 0.47453 0.40879 0.42128 0.0
O279 O 0.40339 0.37877 0.43369 0.0
O280 O 0.4076 0.34664 0.44147 0.0
O281 O 0.47056 0.38942 0.41281 0.0
O282 O 0.45436 0.40623 0.4283 0.0
C283 C 0.40834 0.37053 0.38942 0.0
O284 O 0.44546 0.34125 0.425 0.0
O285 O 0.41296 0.32391 0.40913 0.0
In286 In 0.69153 0.09965 0.42002 0.0
O287 O 0.69188 0.06948 0.40259 0.0
O288 O 0.69328 0.10394 0.39344 0.0
C289 C 0.6845 0.0685 0.44552 0.0
C290 C 0.73786 0.14526 0.42194 0.0
C291 C 0.6497 0.10719 0.42007 0.0
O292 O 0.66588 0.06577 0.43681 0.0
O293 O 0.70694 0.08612 0.44097 0.0
O294 O 0.6695 0.12029 0.42886 0.0
O295 O 0.65118 0.09056 0.4113 0.0
C296 C 0.69292 0.08268 0.39048 0.0
O297 O 0.71662 0.14291 0.42722 0.0
O298 O 0.73573 0.12458 0.41592 0.0
In299 In 0.95505 0.62162 0.42186 0.0
O300 O 0.98708 0.64216 0.40278 0.0
O301 O 0.94919 0.63717 0.39852 0.0
C302 C 0.9837 0.64211 0.4485 0.0
C303 C 0.90979 0.62193 0.42658 0.0
C304 C 0.94978 0.57334 0.41846 0.0
O305 O 0.98571 0.65638 0.43677 0.0
O306 O 0.96782 0.6179 0.44656 0.0
O307 O 0.93368 0.57719 0.42631 0.0
O308 O 0.96833 0.59376 0.41223 0.0
C309 C 0.97206 0.64506 0.39328 0.0
O310 O 0.91101 0.60453 0.41839 0.0
O311 O 0.93141 0.63907 0.43255 0.0
In312 In 0.36159 0.9558 0.75368 0.0
O313 O 0.35896 0.98415 0.73574 0.0
O314 O 0.3673 0.9549 0.72734 0.0
C315 C 0.35535 0.98075 0.77904 0.0
C316 C 0.40756 0.95611 0.75664 0.0
C317 C 0.31948 0.90664 0.75294 0.0
O318 O 0.33634 0.96271 0.77154 0.0
O319 O 0.37762 0.98726 0.7733 0.0
O320 O 0.33872 0.91295 0.76214 0.0
O321 O 0.32165 0.92502 0.74415 0.0
C322 C 0.36368 0.9738 0.72396 0.0
O323 O 0.38606 0.93736 0.76175 0.0
O324 O 0.40582 0.97468 0.75031 0.0
In325 In 0.08823 0.42455 0.74928 0.0
O326 O 0.05843 0.41273 0.72903 0.0
O327 O 0.08376 0.39672 0.72903 0.0
C328 C 0.06138 0.40369 0.77656 0.0
C329 C 0.09575 0.47372 0.74694 0.0
C330 C 0.13603 0.42834 0.75041 0.0
O331 O 0.06032 0.38947 0.76505 0.0
O332 O 0.07517 0.42803 0.77406 0.0
O333 O 0.13005 0.44007 0.7401 0.0
O334 O 0.11799 0.41496 0.76025 0.0
C335 C 0.06609 0.39889 0.72187 0.0
O336 O 0.11273 0.46904 0.75294 0.0
O337 O 0.0752 0.45365 0.74198 0.0
In338 In 0.61676 0.69419 0.75941 0.0
O339 O 0.64571 0.69963 0.73941 0.0
O340 O 0.60491 0.68247 0.73394 0.0
C341 C 0.64406 0.69941 0.78629 0.0
C342 C 0.57421 0.64637 0.76385 0.0
C343 C 0.61619 0.73984 0.75686 0.0
O344 O 0.65065 0.69398 0.77318 0.0
O345 O 0.62408 0.70211 0.78565 0.0
O346 O 0.59603 0.71841 0.76069 0.0
O347 O 0.63654 0.7382 0.75431 0.0
C348 C 0.62787 0.68994 0.72895 0.0
O349 O 0.57371 0.66746 0.76595 0.0
O350 O 0.5963 0.64941 0.75976 0.0
In351 In 0.61655 0.70011 0.58112 0.0
O352 O 0.60216 0.72851 0.5748 0.0
O353 O 0.64172 0.74467 0.58296 0.0
C354 C 0.57011 0.65441 0.58187 0.0
C355 C 0.63047 0.70108 0.61161 0.0
C356 C 0.63928 0.69771 0.55383 0.0
O357 O 0.57149 0.67651 0.58045 0.0
O358 O 0.59209 0.65544 0.58295 0.0
O359 O 0.65049 0.70057 0.56707 0.0
O360 O 0.61705 0.69607 0.55455 0.0
C361 C 0.62371 0.74889 0.57823 0.0
O362 O 0.63976 0.69326 0.6007 0.0
O363 O 0.61448 0.7082 0.60704 0.0
In364 In 0.35886 0.96543 0.58039 0.0
O365 O 0.37493 0.99784 0.5994 0.0
O366 O 0.33654 0.9651 0.60249 0.0
C367 C 0.36724 0.99532 0.55421 0.0
C368 C 0.31474 0.91805 0.57756 0.0
C369 C 0.40041 0.95759 0.58235 0.0
O370 O 0.35157 0.9938 0.56497 0.0
O371 O 0.37873 0.98248 0.55696 0.0
O372 O 0.38219 0.94594 0.57235 0.0
O373 O 0.39734 0.97268 0.59167 0.0
C374 C 0.35485 0.98624 0.60817 0.0
O375 O 0.33331 0.92214 0.58681 0.0
O376 O 0.31851 0.93784 0.56957 0.0
In377 In 0.10583 0.43499 0.57669 0.0
O378 O 0.07605 0.40533 0.59455 0.0
O379 O 0.11239 0.43674 0.6031 0.0
C380 C 0.08049 0.41359 0.54922 0.0
C381 C 0.15209 0.43555 0.57463 0.0
C382 C 0.10218 0.47902 0.57727 0.0
O383 O 0.07461 0.40039 0.56191 0.0
O384 O 0.09893 0.43706 0.55053 0.0
O385 O 0.12134 0.47823 0.57104 0.0
O386 O 0.08474 0.45757 0.58322 0.0
C387 C 0.09053 0.41674 0.60639 0.0
O388 O 0.1506 0.45581 0.57769 0.0
O389 O 0.13018 0.41489 0.57248 0.0
In390 In 0.36499 0.42628 0.57994 0.0
O391 O 0.3387 0.43925 0.56744 0.0
O392 O 0.32769 0.42299 0.5905 0.0
C393 C 0.40413 0.47725 0.57975 0.0
C394 C 0.36698 0.40212 0.60681 0.0
C395 C 0.36574 0.39721 0.55523 0.0
O396 O 0.38927 0.46678 0.59153 0.0
O397 O 0.39899 0.46215 0.56802 0.0
O398 O 0.38568 0.41103 0.56373 0.0
O399 O 0.34509 0.39688 0.55975 0.0
C400 C 0.32232 0.43247 0.57863 0.0
O401 O 0.38711 0.42121 0.60069 0.0
O402 O 0.34617 0.39415 0.59882 0.0
In403 In 0.62126 0.96435 0.58201 0.0
O404 O 0.60446 0.92023 0.58386 0.0
O405 O 0.64575 0.94402 0.5798 0.0
C406 C 0.57388 0.96118 0.57937 0.0
C407 C 0.63731 0.98123 0.61199 0.0
C408 C 0.64243 0.98768 0.55408 0.0
O409 O 0.57652 0.94112 0.58002 0.0
O410 O 0.59519 0.98293 0.57972 0.0
O411 O 0.64657 0.0008 0.56672 0.0
O412 O 0.62789 0.96311 0.55565 0.0
C413 C 0.62625 0.92119 0.58179 0.0
O414 O 0.65266 0.99152 0.60034 0.0
O415 O 0.61453 0.96331 0.60833 0.0
In416 In 0.10171 0.69635 0.58045 0.0
O417 O 0.07293 0.69647 0.59912 0.0
O418 O 0.10712 0.69573 0.6068 0.0
C419 C 0.07839 0.69495 0.5527 0.0
C420 C 0.14556 0.74387 0.57781 0.0
C421 C 0.09986 0.64948 0.58033 0.0
O422 O 0.06768 0.69438 0.56584 0.0
O423 O 0.1006 0.69654 0.55377 0.0
O424 O 0.12069 0.67088 0.58323 0.0
O425 O 0.0799 0.65167 0.57746 0.0
C426 C 0.08645 0.69595 0.61066 0.0
O427 O 0.14502 0.72265 0.57437 0.0
O428 O 0.12391 0.74117 0.58256 0.0
In429 In 0.09854 0.69238 0.75352 0.0
O430 O 0.09112 0.71411 0.73345 0.0
O431 O 0.06755 0.67262 0.73396 0.0
C432 C 0.07775 0.69271 0.78197 0.0
C433 C 0.10168 0.64804 0.75228 0.0
C434 C 0.14691 0.73578 0.7542 0.0
O435 O 0.06561 0.6906 0.76919 0.0
O436 O 0.09989 0.69432 0.78028 0.0
O437 O 0.14306 0.7138 0.74927 0.0
O438 O 0.1264 0.73583 0.75871 0.0
C439 C 0.07356 0.69367 0.72672 0.0
O440 O 0.11567 0.66784 0.74369 0.0
O441 O 0.08624 0.65069 0.76152 0.0
In442 In 0.3558 0.43176 0.75212 0.0
O443 O 0.38288 0.47619 0.75037 0.0
O444 O 0.39859 0.45389 0.76062 0.0
C445 C 0.30964 0.4314 0.75113 0.0
C446 C 0.36022 0.41718 0.72239 0.0
C447 C 0.34883 0.40484 0.77926 0.0
O448 O 0.33067 0.45079 0.75622 0.0
O449 O 0.31186 0.4121 0.74652 0.0
O450 O 0.35876 0.40059 0.76708 0.0
O451 O 0.34242 0.42228 0.77757 0.0
C452 C 0.40247 0.47626 0.75658 0.0
O453 O 0.35564 0.40199 0.73408 0.0
O454 O 0.36276 0.43922 0.72587 0.0
In455 In 0.6293 0.96412 0.75489 0.0
O456 O 0.58529 0.9437 0.74916 0.0
O457 O 0.6014 0.97822 0.76328 0.0
C458 C 0.62462 0.91582 0.75473 0.0
C459 C 0.65412 0.98945 0.72785 0.0
C460 C 0.65371 0.9863 0.78235 0.0
O461 O 0.61109 0.92175 0.74581 0.0
O462 O 0.64046 0.93419 0.76364 0.0
O463 O 0.66326 0.99689 0.76911 0.0
O464 O 0.63211 0.9649 0.78159 0.0
C465 C 0.58125 0.9599 0.75671 0.0
O466 O 0.63816 0.99419 0.73511 0.0
O467 O 0.6586 0.97298 0.73467 0.0
C468 C 0.11909 0.30654 0.07662 0.0
C469 C 0.09831 0.29031 0.08677 0.0
C470 C 0.14263 0.30578 0.0766 0.0
C471 C 0.14562 0.28878 0.08724 0.0
C472 C 0.12481 0.27258 0.09766 0.0
C473 C 0.10123 0.27333 0.09718 0.0
C474 C 0.16421 0.32301 0.06511 0.0
C475 C 0.12753 0.25464 0.10939 0.0
C476 C 0.19793 0.27054 0.07788 0.0
C477 C 0.21921 0.28909 0.0869 0.0
C478 C 0.17374 0.27009 0.07793 0.0
C479 C 0.17071 0.28825 0.08751 0.0
C480 C 0.19197 0.30655 0.09697 0.0
C481 C 0.21608 0.30694 0.0964 0.0
C482 C 0.15166 0.25064 0.06746 0.0
C483 C 0.18932 0.32586 0.10757 0.0
H484 H 0.11678 0.31954 0.06847 0.0
H485 H 0.08519 0.26083 0.10507 0.0
H486 H 0.18226 0.33695 0.07169 0.0
H487 H 0.16935 0.31068 0.0576 0.0
H488 H 0.15843 0.33452 0.05729 0.0
H489 H 0.10966 0.24363 0.11686 0.0
H490 H 0.13125 0.24024 0.10304 0.0
H491 H 0.14471 0.26634 0.11723 0.0
H492 H 0.20038 0.25679 0.07048 0.0
H493 H 0.23249 0.32116 0.10349 0.0
H494 H 0.14627 0.26139 0.05879 0.0
H495 H 0.13386 0.23816 0.07468 0.0
H496 H 0.15709 0.23763 0.06088 0.0
H497 H 0.18566 0.33946 0.1003 0.0
H498 H 0.20724 0.33775 0.11486 0.0
H499 H 0.17217 0.31518 0.1156 0.0
C500 C 0.748 0.92563 0.0854 0.0
C501 C 0.76852 0.94807 0.09259 0.0
C502 C 0.74766 0.90155 0.08563 0.0
C503 C 0.76809 0.89983 0.09349 0.0
C504 C 0.7885 0.92227 0.10113 0.0
C505 C 0.78861 0.94625 0.10045 0.0
C506 C 0.72576 0.87811 0.07716 0.0
C507 C 0.81034 0.92102 0.10986 0.0
C508 C 0.75361 0.83101 0.1042 0.0
C509 C 0.76668 0.82581 0.09206 0.0
C510 C 0.75451 0.85535 0.10508 0.0
C511 C 0.76838 0.87465 0.09334 0.0
C512 C 0.78181 0.86957 0.08113 0.0
C513 C 0.781 0.84526 0.08073 0.0
C514 C 0.74037 0.86028 0.11844 0.0
C515 C 0.79645 0.88954 0.06827 0.0
H516 H 0.73251 0.92704 0.07924 0.0
H517 H 0.80444 0.96358 0.10608 0.0
H518 H 0.73419 0.87133 0.06772 0.0
H519 H 0.71518 0.86148 0.08554 0.0
H520 H 0.71128 0.88271 0.07169 0.0
H521 H 0.824 0.9399 0.11584 0.0
H522 H 0.80188 0.90512 0.11888 0.0
H523 H 0.82186 0.91616 0.10147 0.0
H524 H 0.74265 0.81602 0.11304 0.0
H525 H 0.79103 0.84121 0.07129 0.0
H526 H 0.72426 0.86296 0.1136 0.0
H527 H 0.75417 0.87871 0.12476 0.0
H528 H 0.73179 0.84382 0.12711 0.0
H529 H 0.78257 0.89371 0.06166 0.0
H530 H 0.80618 0.88266 0.05975 0.0
H531 H 0.81168 0.90839 0.07356 0.0
C532 C 0.12679 0.83842 0.08672 0.0
C533 C 0.10451 0.83675 0.09399 0.0
C534 C 0.15095 0.86217 0.08669 0.0
C535 C 0.1529 0.88452 0.09443 0.0
C536 C 0.13068 0.88261 0.10232 0.0
C537 C 0.10664 0.8588 0.10184 0.0
C538 C 0.17409 0.8636 0.07791 0.0
C539 C 0.13216 0.90586 0.11099 0.0
C540 C 0.22122 0.94155 0.10383 0.0
C541 C 0.22467 0.95938 0.09174 0.0
C542 C 0.19783 0.91714 0.10497 0.0
C543 C 0.17775 0.9103 0.09354 0.0
C544 C 0.18127 0.92818 0.08123 0.0
C545 C 0.20461 0.95262 0.08057 0.0
C546 C 0.19454 0.89877 0.11843 0.0
C547 C 0.16048 0.92141 0.06868 0.0
H548 H 0.12512 0.8214 0.08058 0.0
H549 H 0.08945 0.85746 0.10758 0.0
H550 H 0.17983 0.87791 0.06802 0.0
H551 H 0.19136 0.87078 0.08589 0.0
H552 H 0.16959 0.8442 0.07299 0.0
H553 H 0.11371 0.90052 0.11755 0.0
H554 H 0.14883 0.91404 0.11949 0.0
H555 H 0.13589 0.92171 0.10242 0.0
H556 H 0.2367 0.94679 0.11251 0.0
H557 H 0.20731 0.9663 0.07114 0.0
H558 H 0.19156 0.87982 0.11368 0.0
H559 H 0.17673 0.89427 0.12542 0.0
H560 H 0.21185 0.90724 0.12648 0.0
H561 H 0.15617 0.90289 0.0626 0.0
H562 H 0.1666 0.93722 0.05967 0.0
H563 H 0.14187 0.918 0.07423 0.0
C564 C 0.31487 0.123 0.90257 0.0
C565 C 0.296 0.10206 0.91167 0.0
C566 C 0.31504 0.14701 0.90178 0.0
C567 C 0.29635 0.15025 0.91067 0.0
C568 C 0.27761 0.12929 0.92014 0.0
C569 C 0.27744 0.10529 0.92034 0.0
C570 C 0.33487 0.16871 0.89126 0.0
C571 C 0.25779 0.13223 0.93009 0.0
C572 C 0.31023 0.21932 0.9202 0.0
C573 C 0.29291 0.22181 0.90986 0.0
C574 C 0.31172 0.19616 0.92053 0.0
C575 C 0.29604 0.17541 0.90994 0.0
C576 C 0.27918 0.17823 0.8991 0.0
C577 C 0.27754 0.20129 0.89935 0.0
C578 C 0.32943 0.19359 0.93251 0.0
C579 C 0.26265 0.15677 0.88738 0.0
H580 H 0.32914 0.1204 0.89579 0.0
H581 H 0.26298 0.08913 0.92749 0.0
H582 H 0.32446 0.17407 0.88232 0.0
H583 H 0.34733 0.18663 0.89837 0.0
H584 H 0.34788 0.16293 0.88499 0.0
H585 H 0.24538 0.11443 0.93735 0.0
H586 H 0.26813 0.14944 0.9381 0.0
H587 H 0.24471 0.13595 0.92235 0.0
H588 H 0.322 0.23516 0.92839 0.0
H589 H 0.2643 0.20333 0.89126 0.0
H590 H 0.3436 0.18919 0.92646 0.0
H591 H 0.31742 0.17687 0.9406 0.0
H592 H 0.34069 0.21174 0.93971 0.0
H593 H 0.27528 0.15123 0.88049 0.0
H594 H 0.25205 0.16285 0.87901 0.0
H595 H 0.24791 0.1389 0.89379 0.0
C596 C 0.95756 0.21154 0.92088 0.0
C597 C 0.96626 0.22804 0.90758 0.0
C598 C 0.93438 0.18694 0.92032 0.0
C599 C 0.91975 0.17859 0.90606 0.0
C600 C 0.92899 0.19474 0.89242 0.0
C601 C 0.95209 0.21939 0.89337 0.0
C602 C 0.92503 0.17034 0.93515 0.0
C603 C 0.91407 0.18633 0.87696 0.0
C604 C 0.86829 0.10599 0.90295 0.0
C605 C 0.84522 0.10633 0.90691 0.0
C606 C 0.89268 0.12946 0.90223 0.0
C607 C 0.89397 0.1537 0.90575 0.0
C608 C 0.87065 0.15416 0.90951 0.0
C609 C 0.84652 0.13046 0.90996 0.0
C610 C 0.91711 0.12829 0.89796 0.0
C611 C 0.87126 0.1796 0.91346 0.0
H612 H 0.96846 0.21818 0.93189 0.0
H613 H 0.95884 0.23205 0.88304 0.0
H614 H 0.9059 0.16812 0.93897 0.0
H615 H 0.92172 0.1503 0.93275 0.0
H616 H 0.93932 0.17912 0.94506 0.0
H617 H 0.92498 0.20018 0.86716 0.0
H618 H 0.91012 0.16636 0.87362 0.0
H619 H 0.89471 0.18523 0.87833 0.0
H620 H 0.86732 0.08735 0.90053 0.0
H621 H 0.82874 0.13081 0.91306 0.0
H622 H 0.93095 0.13509 0.90813 0.0
H623 H 0.92745 0.14173 0.8879 0.0
H624 H 0.91254 0.10808 0.89469 0.0
H625 H 0.88373 0.18871 0.92408 0.0
H626 H 0.85129 0.17661 0.91584 0.0
H627 H 0.8802 0.19382 0.90357 0.0
C628 C 0.86577 0.79079 0.90432 0.0
C629 C 0.84315 0.76973 0.91103 0.0
C630 C 0.88966 0.7907 0.90386 0.0
C631 C 0.89103 0.76928 0.91058 0.0
C632 C 0.86818 0.7479 0.9173 0.0
C633 C 0.84441 0.74826 0.9173 0.0
C634 C 0.91347 0.81359 0.8963 0.0
C635 C 0.86899 0.72491 0.9248 0.0
C636 C 0.94663 0.757 0.89913 0.0
C637 C 0.9642 0.76873 0.91177 0.0
C638 C 0.92292 0.75743 0.89844 0.0
C639 C 0.91647 0.76946 0.91085 0.0
C640 C 0.93419 0.78139 0.92363 0.0
C641 C 0.95799 0.78109 0.92386 0.0
C642 C 0.90474 0.74495 0.88448 0.0
C643 C 0.9278 0.79407 0.93718 0.0
H644 H 0.86478 0.80736 0.89938 0.0
H645 H 0.82697 0.73203 0.92257 0.0
H646 H 0.92919 0.82383 0.90528 0.0
H647 H 0.92155 0.80634 0.88694 0.0
H648 H 0.9088 0.82811 0.89097 0.0
H649 H 0.84947 0.70982 0.92948 0.0
H650 H 0.87567 0.71541 0.91601 0.0
H651 H 0.88343 0.73201 0.93467 0.0
H652 H 0.95146 0.74754 0.88972 0.0
H653 H 0.97149 0.79006 0.93369 0.0
H654 H 0.90067 0.75954 0.87869 0.0
H655 H 0.88558 0.72842 0.88857 0.0
H656 H 0.91313 0.73729 0.87552 0.0
H657 H 0.92472 0.81011 0.93268 0.0
H658 H 0.94366 0.80239 0.94625 0.0
H659 H 0.90917 0.77933 0.94296 0.0
C660 C 0.78928 0.64837 0.42294 0.0
C661 C 0.76714 0.62899 0.431 0.0
C662 C 0.81309 0.6481 0.42301 0.0
C663 C 0.81485 0.62831 0.43164 0.0
C664 C 0.79287 0.60944 0.4404 0.0
C665 C 0.76914 0.60981 0.43981 0.0
C666 C 0.83598 0.66828 0.41331 0.0
C667 C 0.7942 0.58841 0.45002 0.0
C668 C 0.86414 0.60851 0.418 0.0
C669 C 0.88527 0.62294 0.42832 0.0
C670 C 0.84115 0.61021 0.41893 0.0
C671 C 0.83909 0.62632 0.43068 0.0
C672 C 0.86018 0.64053 0.44135 0.0
C673 C 0.88318 0.63888 0.43994 0.0
C674 C 0.81923 0.59507 0.40717 0.0
C675 C 0.85844 0.65748 0.45423 0.0
H676 H 0.78769 0.66314 0.41606 0.0
H677 H 0.75206 0.59493 0.44615 0.0
H678 H 0.85385 0.67876 0.4208 0.0
H679 H 0.84058 0.65822 0.40374 0.0
H680 H 0.83179 0.68305 0.40785 0.0
H681 H 0.77619 0.57675 0.45728 0.0
H682 H 0.79662 0.57476 0.44201 0.0
H683 H 0.81157 0.59747 0.458 0.0
H684 H 0.86579 0.59631 0.40893 0.0
H685 H 0.8995 0.64998 0.44798 0.0
H686 H 0.81507 0.60888 0.40046 0.0
H687 H 0.80088 0.58113 0.4135 0.0
H688 H 0.82413 0.58376 0.39861 0.0
H689 H 0.856 0.67343 0.44889 0.0
H690 H 0.87622 0.66656 0.4619 0.0
H691 H 0.84086 0.6455 0.46173 0.0
C692 C 0.44813 0.29377 0.42714 0.0
C693 C 0.43174 0.29714 0.41645 0.0
C694 C 0.44909 0.27034 0.42739 0.0
C695 C 0.43351 0.24996 0.41658 0.0
C696 C 0.41736 0.25349 0.40553 0.0
C697 C 0.41655 0.27701 0.40566 0.0
C698 C 0.46635 0.26717 0.43945 0.0
C699 C 0.40069 0.23228 0.39371 0.0
C700 C 0.45148 0.19699 0.40899 0.0
C701 C 0.43287 0.17627 0.41836 0.0
C702 C 0.45186 0.2211 0.40822 0.0
C703 C 0.4334 0.22459 0.41719 0.0
C704 C 0.41473 0.20379 0.42677 0.0
C705 C 0.41459 0.17981 0.42717 0.0
C706 C 0.47187 0.24278 0.39775 0.0
C707 C 0.39492 0.20688 0.43663 0.0
H708 H 0.45987 0.30929 0.43552 0.0
H709 H 0.40396 0.27961 0.39733 0.0
H710 H 0.45401 0.25036 0.4474 0.0
H711 H 0.48041 0.26259 0.43341 0.0
H712 H 0.47771 0.28513 0.44678 0.0
H713 H 0.39015 0.23861 0.38544 0.0
H714 H 0.41321 0.22675 0.38669 0.0
H715 H 0.3859 0.21433 0.40004 0.0
H716 H 0.46558 0.19427 0.40213 0.0
H717 H 0.40024 0.16385 0.43447 0.0
H718 H 0.48448 0.26056 0.40494 0.0
H719 H 0.46165 0.24842 0.38885 0.0
H720 H 0.48473 0.23684 0.39144 0.0
H721 H 0.40531 0.22374 0.44489 0.0
H722 H 0.382 0.18892 0.44365 0.0
H723 H 0.38234 0.21128 0.42886 0.0
C724 C 0.88097 0.272 0.43229 0.0
C725 C 0.88538 0.29133 0.42101 0.0
C726 C 0.85669 0.24846 0.4331 0.0
C727 C 0.83651 0.24403 0.42221 0.0
C728 C 0.84081 0.26356 0.41085 0.0
C729 C 0.86516 0.28708 0.41046 0.0
C730 C 0.85272 0.22823 0.44551 0.0
C731 C 0.81987 0.25938 0.39891 0.0
C732 C 0.78471 0.17312 0.41357 0.0
C733 C 0.76315 0.17038 0.42233 0.0
C734 C 0.80867 0.19703 0.41339 0.0
C735 C 0.81121 0.21859 0.42236 0.0
C736 C 0.7896 0.21584 0.43139 0.0
C737 C 0.76572 0.19178 0.43117 0.0
C738 C 0.83118 0.19929 0.40348 0.0
C739 C 0.79171 0.2383 0.44126 0.0
H740 H 0.89652 0.27529 0.44053 0.0
H741 H 0.86853 0.30197 0.40169 0.0
H742 H 0.83498 0.22327 0.45271 0.0
H743 H 0.84928 0.2098 0.4397 0.0
H744 H 0.86994 0.23522 0.45355 0.0
H745 H 0.82618 0.27669 0.39102 0.0
H746 H 0.81503 0.2419 0.3915 0.0
H747 H 0.80152 0.25538 0.40509 0.0
H748 H 0.78276 0.15665 0.40665 0.0
H749 H 0.7491 0.1897 0.43799 0.0
H750 H 0.84851 0.20445 0.4111 0.0
H751 H 0.83724 0.21538 0.39468 0.0
H752 H 0.8259 0.18074 0.39707 0.0
H753 H 0.80812 0.24481 0.44987 0.0
H754 H 0.77327 0.23278 0.44787 0.0
H755 H 0.79632 0.25541 0.43356 0.0
C756 C 0.97741 0.4478 0.23427 0.0
C757 C 0.95804 0.42713 0.2433 0.0
C758 C 0.97838 0.47219 0.23342 0.0
C759 C 0.96004 0.47612 0.2422 0.0
C760 C 0.94078 0.45541 0.2516 0.0
C761 C 0.93976 0.43099 0.25184 0.0
C762 C 0.9987 0.49358 0.22293 0.0
C763 C 0.92135 0.45908 0.26148 0.0
C764 C 0.97622 0.54583 0.25199 0.0
C765 C 0.95923 0.54906 0.24176 0.0
C766 C 0.97689 0.52223 0.25217 0.0
C767 C 0.96075 0.50179 0.24152 0.0
C768 C 0.94437 0.50543 0.23071 0.0
C769 C 0.94349 0.52891 0.23114 0.0
C770 C 0.99409 0.51881 0.26415 0.0
C771 C 0.92744 0.48436 0.21889 0.0
H772 H 0.99142 0.44469 0.22758 0.0
H773 H 0.9249 0.41502 0.25891 0.0
H774 H 0.98875 0.4995 0.214 0.0
H775 H 0.01161 0.51131 0.23007 0.0
H776 H 0.01124 0.48719 0.21665 0.0
H777 H 0.90844 0.44139 0.2687 0.0
H778 H 0.93205 0.47618 0.26953 0.0
H779 H 0.90873 0.4634 0.25369 0.0
H780 H 0.98824 0.56137 0.2603 0.0
H781 H 0.93048 0.53152 0.22315 0.0
H782 H 0.00773 0.51368 0.2581 0.0
H783 H 0.9816 0.50227 0.27224 0.0
H784 H 0.00591 0.53685 0.27134 0.0
H785 H 0.93961 0.47813 0.21208 0.0
H786 H 0.91754 0.49115 0.21045 0.0
H787 H 0.9121 0.46673 0.2252 0.0
C788 C 0.59702 0.54278 0.24068 0.0
C789 C 0.61958 0.54455 0.24762 0.0
C790 C 0.57317 0.51879 0.24028 0.0
C791 C 0.57183 0.4961 0.24713 0.0
C792 C 0.59462 0.4977 0.25402 0.0
C793 C 0.61831 0.52193 0.25412 0.0
C794 C 0.54934 0.5178 0.23269 0.0
C795 C 0.59385 0.47394 0.26153 0.0
C796 C 0.50397 0.44217 0.25991 0.0
C797 C 0.49691 0.42419 0.24738 0.0
C798 C 0.52853 0.46542 0.26012 0.0
C799 C 0.54633 0.4709 0.24742 0.0
C800 C 0.5394 0.4527 0.2348 0.0
C801 C 0.51478 0.42948 0.23497 0.0
C802 C 0.53532 0.48428 0.27383 0.0
C803 C 0.5578 0.45799 0.22101 0.0
H804 H 0.59796 0.5602 0.23557 0.0
H805 H 0.63572 0.52325 0.25952 0.0
H806 H 0.54135 0.50251 0.2233 0.0
H807 H 0.53357 0.51223 0.24165 0.0
H808 H 0.55394 0.53698 0.22738 0.0
H809 H 0.61343 0.47834 0.26607 0.0
H810 H 0.57961 0.46678 0.27151 0.0
H811 H 0.58691 0.45765 0.25281 0.0
H812 H 0.49026 0.43809 0.26956 0.0
H813 H 0.50937 0.41562 0.22526 0.0
H814 H 0.53821 0.50343 0.26952 0.0
H815 H 0.55412 0.48815 0.27935 0.0
H816 H 0.51972 0.47661 0.28307 0.0
H817 H 0.56157 0.47626 0.21482 0.0
H818 H 0.54971 0.44154 0.21233 0.0
H819 H 0.57708 0.4612 0.22531 0.0
C820 C 0.51033 0.07499 0.25225 0.0
C821 C 0.51034 0.09623 0.24463 0.0
C822 C 0.53327 0.0731 0.25285 0.0
C823 C 0.55652 0.09266 0.24539 0.0
C824 C 0.55647 0.1139 0.23744 0.0
C825 C 0.53341 0.11556 0.23729 0.0
C826 C 0.53273 0.0504 0.26165 0.0
C827 C 0.58076 0.13486 0.22909 0.0
C828 C 0.62299 0.10271 0.25831 0.0
C829 C 0.62773 0.08844 0.24674 0.0
C830 C 0.59967 0.10393 0.25815 0.0
C831 C 0.58099 0.091 0.24594 0.0
C832 C 0.5858 0.07674 0.23417 0.0
C833 C 0.60903 0.07542 0.2348 0.0
C834 C 0.59499 0.11897 0.27105 0.0
C835 C 0.56654 0.06309 0.22082 0.0
H836 H 0.49253 0.06011 0.25801 0.0
H837 H 0.53341 0.13195 0.23132 0.0
H838 H 0.53794 0.03884 0.25353 0.0
H839 H 0.54766 0.05804 0.27125 0.0
H840 H 0.51311 0.03698 0.26694 0.0
H841 H 0.5772 0.14963 0.22305 0.0
H842 H 0.59702 0.14526 0.23773 0.0
H843 H 0.58753 0.12563 0.22017 0.0
H844 H 0.63737 0.11266 0.26761 0.0
H845 H 0.61274 0.06448 0.22579 0.0
H846 H 0.57615 0.10583 0.27721 0.0
H847 H 0.59321 0.13537 0.26581 0.0
H848 H 0.61113 0.12727 0.27994 0.0
H849 H 0.54709 0.04826 0.22566 0.0
H850 H 0.57337 0.05304 0.21251 0.0
H851 H 0.56355 0.07764 0.21407 0.0
C852 C 0.43517 0.9378 0.76692 0.0
C853 C 0.43272 0.95609 0.75745 0.0
C854 C 0.459 0.93754 0.76754 0.0
C855 C 0.48064 0.95573 0.75826 0.0
C856 C 0.47819 0.97416 0.74863 0.0
C857 C 0.45432 0.97425 0.74844 0.0
C858 C 0.46106 0.91788 0.77813 0.0
C859 C 0.50071 0.99362 0.7384 0.0
C860 C 0.55067 0.97337 0.76841 0.0
C861 C 0.55514 0.95789 0.75759 0.0
C862 C 0.5262 0.97225 0.7691 0.0
C863 C 0.50592 0.95556 0.75852 0.0
C864 C 0.51024 0.93965 0.74769 0.0
C865 C 0.53478 0.94086 0.74744 0.0
C866 C 0.52219 0.98923 0.78095 0.0
C867 C 0.4892 0.92189 0.73609 0.0
H868 H 0.41851 0.92379 0.77393 0.0
H869 H 0.45244 0.98833 0.74103 0.0
H870 H 0.46564 0.90484 0.77094 0.0
H871 H 0.47746 0.92836 0.78667 0.0
H872 H 0.44259 0.90545 0.78485 0.0
H873 H 0.49545 0.00641 0.73142 0.0
H874 H 0.51804 0.00636 0.74589 0.0
H875 H 0.50677 0.98295 0.73009 0.0
H876 H 0.56633 0.98642 0.77636 0.0
H877 H 0.53821 0.9289 0.73904 0.0
H878 H 0.50438 0.97693 0.78821 0.0
H879 H 0.5189 0.00394 0.77465 0.0
H880 H 0.53937 -0.00013 0.78899 0.0
H881 H 0.47086 0.90811 0.74249 0.0
H882 H 0.49542 0.9102 0.72876 0.0
H883 H 0.48435 0.9339 0.7281 0.0
C884 C 0.08069 0.50475 0.73835 0.0
C885 C 0.09895 0.50034 0.74652 0.0
C886 C 0.08239 0.52948 0.73869 0.0
C887 C 0.1027 0.55018 0.74756 0.0
C888 C 0.12155 0.54601 0.75555 0.0
C889 C 0.11952 0.52113 0.75487 0.0
C890 C 0.06209 0.53327 0.72988 0.0
C891 C 0.14336 0.56758 0.7652 0.0
C892 C 0.11747 0.62002 0.73945 0.0
C893 C 0.10279 0.62346 0.75136 0.0
C894 C 0.11784 0.59633 0.73813 0.0
C895 C 0.10338 0.57577 0.74908 0.0
C896 C 0.08891 0.57934 0.7613 0.0
C897 C 0.08871 0.60312 0.76225 0.0
C898 C 0.13333 0.59313 0.72488 0.0
C899 C 0.07341 0.55792 0.77328 0.0
H900 H 0.06483 0.48875 0.73181 0.0
H901 H 0.13365 0.51777 0.76123 0.0
H902 H 0.05021 0.53739 0.73842 0.0
H903 H 0.07196 0.55051 0.72185 0.0
H904 H 0.04854 0.51567 0.72278 0.0
H905 H 0.15715 0.56154 0.77008 0.0
H906 H 0.15472 0.58548 0.75785 0.0
H907 H 0.13475 0.57307 0.77519 0.0
H908 H 0.12835 0.6357 0.73099 0.0
H909 H 0.07742 0.60574 0.77152 0.0
H910 H 0.11982 0.57661 0.71707 0.0
H911 H 0.14781 0.58808 0.72978 0.0
H912 H 0.14404 0.61124 0.71758 0.0
H913 H 0.05781 0.54018 0.76718 0.0
H914 H 0.06398 0.56419 0.78238 0.0
H915 H 0.08652 0.55207 0.77931 0.0
C916 C 0.44604 0.50189 0.77003 0.0
C917 C 0.42801 0.50059 0.75866 0.0
C918 C 0.47034 0.5251 0.77214 0.0
C919 C 0.47692 0.54714 0.76233 0.0
C920 C 0.45885 0.54574 0.7507 0.0
C921 C 0.43444 0.52258 0.74916 0.0
C922 C 0.48884 0.52612 0.78492 0.0
C923 C 0.46541 0.56862 0.73976 0.0
C924 C 0.52851 0.61681 0.77362 0.0
C925 C 0.55027 0.62026 0.76481 0.0
C926 C 0.50484 0.5926 0.77355 0.0
C927 C 0.50275 0.57171 0.76407 0.0
C928 C 0.52489 0.57495 0.75542 0.0
C929 C 0.54854 0.59913 0.75607 0.0
C930 C 0.48186 0.58963 0.78326 0.0
C931 C 0.52324 0.55334 0.74489 0.0
H932 H 0.44096 0.48491 0.77745 0.0
H933 H 0.42055 0.52149 0.74029 0.0
H934 H 0.50772 0.52989 0.77959 0.0
H935 H 0.49349 0.54266 0.79315 0.0
H936 H 0.48042 0.50754 0.79185 0.0
H937 H 0.44949 0.56402 0.73104 0.0
H938 H 0.4688 0.58607 0.74674 0.0
H939 H 0.4839 0.57412 0.73322 0.0
H940 H 0.52993 0.63312 0.78046 0.0
H941 H 0.56533 0.60187 0.74916 0.0
H942 H 0.47364 0.57147 0.79055 0.0
H943 H 0.46593 0.58765 0.77528 0.0
H944 H 0.48752 0.60676 0.79121 0.0
H945 H 0.51606 0.53483 0.75171 0.0
H946 H 0.54256 0.5586 0.73949 0.0
H947 H 0.50883 0.54929 0.73524 0.0
C948 C 0.64476 0.79509 0.58797 0.0
C949 C 0.62707 0.77549 0.57765 0.0
C950 C 0.64646 0.81982 0.58858 0.0
C951 C 0.63065 0.82519 0.57829 0.0
C952 C 0.61365 0.80581 0.56734 0.0
C953 C 0.61174 0.78099 0.56734 0.0
C954 C 0.66426 0.83971 0.60071 0.0
C955 C 0.59703 0.81109 0.55588 0.0
C956 C 0.61035 0.87494 0.58994 0.0
C957 C 0.62841 0.89725 0.58145 0.0
C958 C 0.61144 0.85161 0.58938 0.0
C959 C 0.63051 0.85037 0.57968 0.0
C960 C 0.64884 0.87291 0.57108 0.0
C961 C 0.64783 0.89629 0.57227 0.0
C962 C 0.59203 0.82823 0.59908 0.0
C963 C 0.66898 0.87208 0.5603 0.0
H964 H 0.65647 0.79072 0.59602 0.0
H965 H 0.59821 0.76583 0.55928 0.0
H966 H 0.67788 0.85873 0.59491 0.0
H967 H 0.65219 0.84353 0.60928 0.0
H968 H 0.6761 0.83288 0.60736 0.0
H969 H 0.58687 0.79494 0.54713 0.0
H970 H 0.58191 0.81336 0.56248 0.0
H971 H 0.60947 0.82979 0.54941 0.0
H972 H 0.59546 0.87581 0.59712 0.0
H973 H 0.66166 0.91355 0.56561 0.0
H974 H 0.60268 0.82107 0.60661 0.0
H975 H 0.57887 0.81181 0.59113 0.0
H976 H 0.57966 0.83302 0.60682 0.0
H977 H 0.68137 0.86608 0.56704 0.0
H978 H 0.68203 0.89141 0.55459 0.0
H979 H 0.65878 0.8571 0.55091 0.0
C980 C 0.19183 0.77223 0.56854 0.0
C981 C 0.16984 0.76976 0.57667 0.0
C982 C 0.21537 0.79651 0.56779 0.0
C983 C 0.21701 0.81867 0.57558 0.0
C984 C 0.19476 0.81633 0.58367 0.0
C985 C 0.17133 0.79191 0.584 0.0
C986 C 0.23857 0.79835 0.55886 0.0
C987 C 0.1959 0.83947 0.59228 0.0
C988 C 0.28475 0.87303 0.58813 0.0
C989 C 0.2901 0.89241 0.5767 0.0
C990 C 0.26099 0.84895 0.5879 0.0
C991 C 0.24233 0.84403 0.57582 0.0
C992 C 0.24782 0.86337 0.56409 0.0
C993 C 0.2716 0.88746 0.56474 0.0
C994 C 0.2557 0.82891 0.60072 0.0
C995 C 0.22853 0.85864 0.55091 0.0
H996 H 0.19067 0.75516 0.56277 0.0
H997 H 0.15437 0.79001 0.59033 0.0
H998 H 0.24573 0.81441 0.54996 0.0
H999 H 0.25507 0.80328 0.56716 0.0
H1000 H 0.23359 0.77967 0.5527 0.0
H1001 H 0.17667 0.83453 0.59769 0.0
H1002 H 0.21098 0.8462 0.60178 0.0
H1003 H 0.20189 0.85624 0.58402 0.0
H1004 H 0.29896 0.87685 0.59744 0.0
H1005 H 0.27574 0.9024 0.55586 0.0
H1006 H 0.25242 0.81022 0.59536 0.0
H1007 H 0.23748 0.82441 0.60725 0.0
H1008 H 0.2722 0.83587 0.60932 0.0
H1009 H 0.22417 0.84055 0.54428 0.0
H1010 H 0.2361 0.8754 0.54246 0.0
H1011 H 0.20964 0.8554 0.55592 0.0
C1012 C 0.29149 0.44239 0.56366 0.0
C1013 C 0.29817 0.4344 0.57772 0.0
C1014 C 0.26797 0.44315 0.56249 0.0
C1015 C 0.25088 0.43588 0.57571 0.0
C1016 C 0.25773 0.42814 0.59 0.0
C1017 C 0.28127 0.42744 0.59081 0.0
C1018 C 0.26126 0.45143 0.54705 0.0
C1019 C 0.24008 0.4204 0.60439 0.0
C1020 C 0.20084 0.45881 0.57842 0.0
C1021 C 0.17747 0.43591 0.57418 0.0
C1022 C 0.22497 0.4592 0.57875 0.0
C1023 C 0.22572 0.43617 0.57464 0.0
C1024 C 0.20227 0.41314 0.57004 0.0
C1025 C 0.17837 0.41326 0.56992 0.0
C1026 C 0.24955 0.48407 0.5838 0.0
C1027 C 0.20236 0.38826 0.56549 0.0
H1028 H 0.30448 0.44773 0.5535 0.0
H1029 H 0.28637 0.42127 0.60171 0.0
H1030 H 0.24238 0.43519 0.54239 0.0
H1031 H 0.25849 0.46861 0.54901 0.0
H1032 H 0.27679 0.45675 0.53793 0.0
H1033 H 0.2485 0.41533 0.61468 0.0
H1034 H 0.23675 0.43678 0.60784 0.0
H1035 H 0.22054 0.40316 0.60157 0.0
H1036 H 0.20024 0.47637 0.58174 0.0
H1037 H 0.16035 0.39554 0.56659 0.0
H1038 H 0.26492 0.49035 0.5745 0.0
H1039 H 0.25766 0.48026 0.59471 0.0
H1040 H 0.24575 0.50054 0.58615 0.0
H1041 H 0.21672 0.39243 0.5558 0.0
H1042 H 0.18264 0.3724 0.56156 0.0
H1043 H 0.20869 0.38093 0.57574 0.0
C1044 C 0.03719 0.34441 0.13254 0.0
C1045 C 0.01596 0.32481 0.12392 0.0
C1046 C 0.03345 0.35156 0.14781 0.0
C1047 C 0.00796 0.33848 0.15466 0.0
C1048 C 0.98641 0.31903 0.14587 0.0
C1049 C 0.99064 0.31259 0.13057 0.0
C1050 C 0.05679 0.37275 0.1567 0.0
C1051 C 0.95895 0.30449 0.15277 0.0
C1052 C 0.99792 0.33438 0.19926 0.0
C1053 C 0.98828 0.35171 0.20155 0.0
C1054 C 0.00537 0.33056 0.18411 0.0
C1055 C 0.00357 0.3448 0.17105 0.0
C1056 C 0.99528 0.36344 0.17351 0.0
C1057 C 0.98747 0.36646 0.1887 0.0
C1058 C 0.01383 0.31029 0.18192 0.0
C1059 C 0.99358 0.37939 0.15999 0.0
H1060 H 0.05681 0.35388 0.12745 0.0
H1061 H 0.97418 0.29731 0.12402 0.0
H1062 H 0.05255 0.3883 0.16068 0.0
H1063 H 0.06049 0.36423 0.16747 0.0
H1064 H 0.075 0.38201 0.14939 0.0
H1065 H 0.94435 0.28987 0.14439 0.0
H1066 H 0.95895 0.29404 0.16373 0.0
H1067 H 0.95243 0.31866 0.15609 0.0
H1068 H 0.9985 0.32292 0.20918 0.0
H1069 H 0.98026 0.38009 0.19047 0.0
H1070 H 0.03282 0.31896 0.17544 0.0
H1071 H -0.00104 0.2937 0.17467 0.0
H1072 H 0.01605 0.30231 0.19339 0.0
H1073 H 0.01218 0.38865 0.15307 0.0
H1074 H 0.98966 0.39509 0.16417 0.0
H1075 H 0.97748 0.36624 0.15184 0.0
C1076 C 0.70165 0.69698 0.13356 0.0
C1077 C 0.72839 0.71548 0.13138 0.0
C1078 C 0.69228 0.68471 0.14833 0.0
C1079 C 0.71022 0.69076 0.16103 0.0
C1080 C 0.73715 0.70972 0.15891 0.0
C1081 C 0.74583 0.72197 0.14416 0.0
C1082 C 0.66335 0.66492 0.15026 0.0
C1083 C 0.75702 0.71643 0.17205 0.0
C1084 C 0.69026 0.67402 0.20417 0.0
C1085 C 0.69226 0.65133 0.20607 0.0
C1086 C 0.6946 0.68636 0.1893 0.0
C1087 C 0.70155 0.67596 0.1762 0.0
C1088 C 0.70276 0.65259 0.178 0.0
C1089 C 0.6979 0.64047 0.19287 0.0
C1090 C 0.69266 0.71099 0.18775 0.0
C1091 C 0.71051 0.64108 0.16442 0.0
H1092 H 0.68808 0.69209 0.12374 0.0
H1093 H 0.76655 0.73625 0.14254 0.0
H1094 H 0.66069 0.645 0.15217 0.0
H1095 H 0.65538 0.66977 0.16085 0.0
H1096 H 0.65164 0.66422 0.13974 0.0
H1097 H 0.77708 0.73224 0.16861 0.0
H1098 H 0.75082 0.7229 0.18275 0.0
H1099 H 0.75806 0.69864 0.17535 0.0
H1100 H 0.68571 0.68236 0.21432 0.0
H1101 H 0.69945 0.6229 0.19426 0.0
H1102 H 0.68049 0.70952 0.17731 0.0
H1103 H 0.7126 0.72823 0.18583 0.0
H1104 H 0.68399 0.7147 0.19846 0.0
H1105 H 0.69784 0.63807 0.15397 0.0
H1106 H 0.709 0.62195 0.16753 0.0
H1107 H 0.73115 0.65506 0.16086 0.0
C1108 C 0.33308 0.05613 0.14168 0.0
C1109 C 0.33574 0.04114 0.12964 0.0
C1110 C 0.34639 0.0604 0.15611 0.0
C1111 C 0.36263 0.04921 0.15866 0.0
C1112 C 0.36498 0.03357 0.14668 0.0
C1113 C 0.35158 0.02982 0.13225 0.0
C1114 C 0.34355 0.07742 0.16851 0.0
C1115 C 0.38193 0.02116 0.14905 0.0
C1116 C 0.4169 0.08586 0.1887 0.0
C1117 C 0.40551 0.07149 0.20259 0.0
C1118 C 0.40356 0.07819 0.1742 0.0
C1119 C 0.37828 0.0554 0.1735 0.0
C1120 C 0.36718 0.04007 0.18733 0.0
C1121 C 0.38088 0.0484 0.20177 0.0
C1122 C 0.416 0.09523 0.15978 0.0
C1123 C 0.3404 0.01547 0.18699 0.0
H1124 H 0.32082 0.0649 0.13975 0.0
H1125 H 0.35355 0.01807 0.12301 0.0
H1126 H 0.33656 0.06645 0.17982 0.0
H1127 H 0.36302 0.09511 0.17083 0.0
H1128 H 0.32954 0.08401 0.16485 0.0
H1129 H 0.38033 0.00817 0.13902 0.0
H1130 H 0.40287 0.03677 0.15032 0.0
H1131 H 0.37622 0.0094 0.16013 0.0
H1132 H 0.43597 0.10371 0.18924 0.0
H1133 H 0.37207 0.03715 0.21245 0.0
H1134 H 0.40411 0.10423 0.15601 0.0
H1135 H 0.41625 0.08311 0.14976 0.0
H1136 H 0.4365 0.11128 0.16205 0.0
H1137 H 0.32501 0.02087 0.18488 0.0
H1138 H 0.33583 0.00424 0.19826 0.0
H1139 H 0.33926 0.00244 0.17712 0.0
C1140 C 0.32748 0.03889 0.85787 0.0
C1141 C 0.32797 0.02468 0.87111 0.0
C1142 C 0.33443 0.03434 0.8428 0.0
C1143 C 0.34169 0.01481 0.84087 0.0
C1144 C 0.34327 0.00115 0.8543 0.0
C1145 C 0.33654 0.00639 0.86931 0.0
C1146 C 0.33288 0.04961 0.82883 0.0
C1147 C 0.35076 0.98007 0.8527 0.0
C1148 C 0.32676 0.9798 0.8012 0.0
C1149 C 0.35181 0.99118 0.79424 0.0
C1150 C 0.32326 0.98742 0.81633 0.0
C1151 C 0.34532 0.0071 0.82467 0.0
C1152 C 0.37058 0.01919 0.81753 0.0
C1153 C 0.37356 0.01098 0.80241 0.0
C1154 C 0.296 0.97398 0.82354 0.0
C1155 C 0.39448 0.04049 0.82597 0.0
H1156 H 0.32107 0.05323 0.85923 0.0
H1157 H 0.33689 0.99534 0.87951 0.0
H1158 H 0.35127 0.05793 0.82175 0.0
H1159 H 0.31641 0.03618 0.82098 0.0
H1160 H 0.32962 0.06595 0.83254 0.0
H1161 H 0.35308 0.97275 0.86438 0.0
H1162 H 0.33531 0.9632 0.84591 0.0
H1163 H 0.36947 0.98771 0.84601 0.0
H1164 H 0.3099 0.9644 0.79498 0.0
H1165 H 0.39298 0.0198 0.79709 0.0
H1166 H 0.29014 0.98879 0.82649 0.0
H1167 H 0.296 0.96408 0.83474 0.0
H1168 H 0.28092 0.95906 0.81549 0.0
H1169 H 0.39103 0.0568 0.82943 0.0
H1170 H 0.41253 0.04867 0.81854 0.0
H1171 H 0.39799 0.03247 0.83702 0.0
C1172 C 0.05143 0.41029 0.80432 0.0
C1173 C 0.05048 0.39316 0.79239 0.0
C1174 C 0.04554 0.40188 0.82009 0.0
C1175 C 0.03877 0.37577 0.82403 0.0
C1176 C 0.03611 0.35791 0.81188 0.0
C1177 C 0.04192 0.36682 0.79616 0.0
C1178 C 0.04825 0.42141 0.83265 0.0
C1179 C 0.02888 0.32989 0.81561 0.0
C1180 C 0.05945 0.36271 0.86396 0.0
C1181 C 0.03535 0.34956 0.87204 0.0
C1182 C 0.06086 0.37195 0.84848 0.0
C1183 C 0.0376 0.36805 0.84091 0.0
C1184 C 0.01341 0.35591 0.84927 0.0
C1185 C 0.01255 0.34673 0.86476 0.0
C1186 C 0.0871 0.38494 0.84002 0.0
C1187 C 0.98829 0.35169 0.84164 0.0
H1188 H 0.05783 0.43065 0.80143 0.0
H1189 H 0.04112 0.3535 0.78698 0.0
H1190 H 0.03109 0.41252 0.8408 0.0
H1191 H 0.06613 0.42697 0.83984 0.0
H1192 H 0.04997 0.43963 0.82746 0.0
H1193 H 0.02494 0.31779 0.80474 0.0
H1194 H 0.04527 0.32987 0.82219 0.0
H1195 H 0.01117 0.32042 0.82331 0.0
H1196 H 0.07714 0.36498 0.86953 0.0
H1197 H 0.99385 0.33653 0.87095 0.0
H1198 H 0.09178 0.40462 0.83554 0.0
H1199 H 0.0861 0.3729 0.82962 0.0
H1200 H 0.10348 0.38739 0.84779 0.0
H1201 H 0.9913 0.37033 0.83634 0.0
H1202 H 0.9717 0.34435 0.85021 0.0
H1203 H 0.98262 0.33713 0.8319 0.0
C1204 C 0.65023 0.71004 0.81504 0.0
C1205 C 0.65875 0.70327 0.80122 0.0
C1206 C 0.66456 0.71555 0.82917 0.0
C1207 C 0.68798 0.71416 0.82954 0.0
C1208 C 0.69621 0.70638 0.81578 0.0
C1209 C 0.6815 0.70109 0.80173 0.0
C1210 C 0.65515 0.72389 0.84354 0.0
C1211 C 0.72097 0.70449 0.81578 0.0
C1212 C 0.73807 0.75898 0.85982 0.0
C1213 C 0.7333 0.74171 0.87249 0.0
C1214 C 0.72401 0.75005 0.8456 0.0
C1215 C 0.70483 0.72308 0.84394 0.0
C1216 C 0.7005 0.70533 0.85651 0.0
C1217 C 0.71472 0.7149 0.8707 0.0
C1218 C 0.72905 0.76968 0.83257 0.0
C1219 C 0.68039 0.67641 0.85509 0.0
H1220 H 0.63257 0.71163 0.81476 0.0
H1221 H 0.68808 0.69573 0.7911 0.0
H1222 H 0.6535 0.7115 0.85388 0.0
H1223 H 0.66972 0.74459 0.84662 0.0
H1224 H 0.63572 0.72246 0.84156 0.0
H1225 H 0.72328 0.69574 0.80465 0.0
H1226 H 0.73842 0.72444 0.81721 0.0
H1227 H 0.72084 0.6924 0.82593 0.0
H1228 H 0.75245 0.77973 0.86111 0.0
H1229 H 0.7111 0.70145 0.88044 0.0
H1230 H 0.71103 0.771 0.83051 0.0
H1231 H 0.7337 0.76307 0.82133 0.0
H1232 H 0.74556 0.78969 0.83543 0.0
H1233 H 0.66032 0.67383 0.85437 0.0
H1234 H 0.68105 0.66484 0.86533 0.0
H1235 H 0.68369 0.6682 0.84405 0.0
C1236 C 0.03009 0.70445 0.86981 0.0
C1237 C 0.03719 0.73099 0.87152 0.0
C1238 C 0.03362 0.69488 0.85528 0.0
C1239 C 0.04491 0.71241 0.84233 0.0
C1240 C 0.05163 0.73908 0.84397 0.0
C1241 C 0.04751 0.74797 0.85849 0.0
C1242 C 0.02582 0.66621 0.85387 0.0
C1243 C 0.06407 0.75853 0.83054 0.0
C1244 C 0.08457 0.70159 0.8109 0.0
C1245 C 0.0679 0.69481 0.79771 0.0
C1246 C 0.07682 0.70622 0.82569 0.0
C1247 C 0.05161 0.70366 0.82739 0.0
C1248 C 0.03413 0.69548 0.81431 0.0
C1249 C 0.04257 0.69134 0.79955 0.0
C1250 C 0.09619 0.71524 0.83927 0.0
C1251 C 0.00694 0.69214 0.81575 0.0
H1252 H 0.02194 0.69123 0.87984 0.0
H1253 H 0.05306 0.76852 0.85973 0.0
H1254 H 0.01314 0.65731 0.84331 0.0
H1255 H 0.04369 0.66448 0.85221 0.0
H1256 H 0.01511 0.65468 0.86451 0.0
H1257 H 0.06736 0.77839 0.8336 0.0
H1258 H 0.08333 0.76041 0.82739 0.0
H1259 H 0.05139 0.75136 0.81986 0.0
H1260 H 0.10416 0.70423 0.80957 0.0
H1261 H 0.02955 0.6859 0.7894 0.0
H1262 H 0.08693 0.70289 0.84989 0.0
H1263 H 0.10207 0.73584 0.84245 0.0
H1264 H 0.11426 0.71443 0.83631 0.0
H1265 H 0.99673 0.68024 0.82637 0.0
H1266 H 0.99462 0.6825 0.80514 0.0
H1267 H 0.00858 0.71172 0.81725 0.0
C1268 C 0.32895 0.39266 0.80612 0.0
C1269 C 0.34502 0.39089 0.79445 0.0
C1270 C 0.32491 0.37978 0.82069 0.0
C1271 C 0.33756 0.36505 0.82379 0.0
C1272 C 0.35417 0.3635 0.81215 0.0
C1273 C 0.35753 0.37628 0.79752 0.0
C1274 C 0.30668 0.38156 0.83266 0.0
C1275 C 0.36824 0.34825 0.81514 0.0
C1276 C 0.33896 0.34992 0.86741 0.0
C1277 C 0.31686 0.32462 0.86853 0.0
C1278 C 0.34689 0.36288 0.85273 0.0
C1279 C 0.33216 0.35029 0.83894 0.0
C1280 C 0.31047 0.32434 0.83994 0.0
C1281 C 0.30319 0.31179 0.8547 0.0
C1282 C 0.37036 0.39041 0.85207 0.0
C1283 C 0.29407 0.31031 0.82557 0.0
H1284 H 0.31918 0.40389 0.80378 0.0
H1285 H 0.37013 0.37506 0.78856 0.0
H1286 H 0.28996 0.36157 0.83524 0.0
H1287 H 0.3173 0.38981 0.84395 0.0
H1288 H 0.29861 0.39409 0.82846 0.0
H1289 H 0.38149 0.35006 0.80521 0.0
H1290 H 0.38008 0.35536 0.82616 0.0
H1291 H 0.35364 0.32709 0.8169 0.0
H1292 H 0.34968 0.35984 0.87806 0.0
H1293 H 0.28613 0.29217 0.85546 0.0
H1294 H 0.36361 0.40465 0.84946 0.0
H1295 H 0.38389 0.39202 0.84239 0.0
H1296 H 0.3815 0.3962 0.86339 0.0
H1297 H 0.28374 0.32068 0.82132 0.0
H1298 H 0.27909 0.28949 0.82813 0.0
H1299 H 0.30686 0.31064 0.81578 0.0
C1300 C 0.71896 0.03994 0.86819 0.0
C1301 C 0.73765 0.03191 0.87023 0.0
C1302 C 0.70553 0.03574 0.85373 0.0
C1303 C 0.71064 0.02281 0.84121 0.0
C1304 C 0.72994 0.01525 0.84314 0.0
C1305 C 0.74333 0.02007 0.85757 0.0
C1306 C 0.68541 0.04448 0.85198 0.0
C1307 C 0.73571 0.00106 0.83018 0.0
C1308 C 0.65768 0.98167 0.81135 0.0
C1309 C 0.66718 0.99704 0.79761 0.0
C1310 C 0.67114 0.99033 0.82577 0.0
C1311 C 0.69451 0.01516 0.82652 0.0
C1312 C 0.70356 0.03133 0.81286 0.0
C1313 C 0.68989 0.02196 0.79849 0.0
C1314 C 0.66101 0.97232 0.83999 0.0
C1315 C 0.72817 0.05809 0.8133 0.0
H1316 H 0.71466 0.04926 0.87793 0.0
H1317 H 0.75776 0.01381 0.85908 0.0
H1318 H 0.68906 0.05608 0.84095 0.0
H1319 H 0.6654 0.02697 0.85104 0.0
H1320 H 0.68567 0.0566 0.86218 0.0
H1321 H 0.75206 0.99746 0.83335 0.0
H1322 H 0.71782 0.9818 0.82774 0.0
H1323 H 0.74099 0.01267 0.81906 0.0
H1324 H 0.64011 0.96239 0.81075 0.0
H1325 H 0.69717 0.03398 0.78792 0.0
H1326 H 0.65875 0.98283 0.85026 0.0
H1327 H 0.67548 0.96622 0.84341 0.0
H1328 H 0.64175 0.95432 0.83767 0.0
H1329 H 0.72747 0.0697 0.82349 0.0
H1330 H 0.73085 0.06943 0.80224 0.0
H1331 H 0.74567 0.05574 0.81496 0.0
C1332 C 0.71212 0.01331 0.13293 0.0
C1333 C 0.73933 0.02434 0.13062 0.0
C1334 C 0.70213 0.01599 0.14752 0.0
C1335 C 0.71984 0.03041 0.1599 0.0
C1336 C 0.74728 0.04121 0.15766 0.0
C1337 C 0.75665 0.03786 0.1431 0.0
C1338 C 0.67273 0.00388 0.1496 0.0
C1339 C 0.76688 0.05709 0.17046 0.0
C1340 C 0.70321 0.06682 0.19058 0.0
C1341 C 0.69997 0.05193 0.20426 0.0
C1342 C 0.70845 0.05931 0.1759 0.0
C1343 C 0.71019 0.03613 0.17482 0.0
C1344 C 0.70549 0.0202 0.18841 0.0
C1345 C 0.70061 0.0284 0.20304 0.0
C1346 C 0.71363 0.07703 0.16175 0.0
C1347 C 0.70677 0.99513 0.18763 0.0
H1348 H 0.69868 0.00267 0.12333 0.0
H1349 H 0.77771 0.04645 0.14137 0.0
H1350 H 0.6662 0.99179 0.16054 0.0
H1351 H 0.66768 0.01966 0.15094 0.0
H1352 H 0.66155 0.99129 0.13938 0.0
H1353 H 0.7875 0.06342 0.16699 0.0
H1354 H 0.76553 0.07492 0.17317 0.0
H1355 H 0.76223 0.04537 0.18152 0.0
H1356 H 0.70263 0.08499 0.19142 0.0
H1357 H 0.69792 0.01673 0.21357 0.0
H1358 H 0.70132 0.0655 0.15156 0.0
H1359 H 0.73456 0.08582 0.15809 0.0
H1360 H 0.70956 0.09326 0.16429 0.0
H1361 H 0.69514 0.9829 0.17743 0.0
H1362 H 0.69929 0.98328 0.19864 0.0
H1363 H 0.72749 3e-05 0.18581 0.0
C1364 C 0.015 0.73722 0.14557 0.0
C1365 C 0.02266 0.72858 0.13216 0.0
C1366 C 0.00931 0.72345 0.15992 0.0
C1367 C 0.01155 0.70056 0.16096 0.0
C1368 C 0.02026 0.69226 0.14765 0.0
C1369 C 0.02559 0.70632 0.13333 0.0
C1370 C -0.00017 0.73284 0.17377 0.0
C1371 C 0.02314 0.66809 0.14838 0.0
C1372 C 0.0101 0.67575 0.20281 0.0
C1373 C 0.98345 0.65651 0.20434 0.0
C1374 C 0.01989 0.6896 0.18851 0.0
C1375 C 0.0025 0.68422 0.17558 0.0
C1376 C 0.97571 0.66443 0.17701 0.0
C1377 C 0.96656 0.65077 0.19133 0.0
C1378 C 0.04863 0.7104 0.18736 0.0
C1379 C 0.95645 0.65825 0.16357 0.0
H1380 H 0.01275 0.75446 0.14477 0.0
H1381 H 0.03166 0.69967 0.12302 0.0
H1382 H 0.97919 0.71785 0.17668 0.0
H1383 H 0.01197 0.73532 0.18441 0.0
H1384 H 0.0006 0.75183 0.17129 0.0
H1385 H 0.03259 0.66576 0.13757 0.0
H1386 H 0.03505 0.66907 0.15885 0.0
H1387 H 0.00344 0.65026 0.14975 0.0
H1388 H 0.02326 0.68012 0.2128 0.0
H1389 H 0.94594 0.63587 0.19241 0.0
H1390 H 0.0505 0.73012 0.18609 0.0
H1391 H 0.05761 0.70706 0.17668 0.0
H1392 H 0.06 0.71064 0.19795 0.0
H1393 H 0.95456 0.67579 0.16094 0.0
H1394 H 0.93656 0.64144 0.16634 0.0
H1395 H 0.9638 0.65348 0.15267 0.0
C1396 C 0.31586 0.33219 0.13986 0.0
C1397 C 0.32991 0.32783 0.12795 0.0
C1398 C 0.32625 0.33964 0.15516 0.0
C1399 C 0.35099 0.34211 0.15871 0.0
C1400 C 0.36572 0.33871 0.14655 0.0
C1401 C 0.3551 0.33189 0.13122 0.0
C1402 C 0.31025 0.34376 0.16768 0.0
C1403 C 0.39201 0.34079 0.14992 0.0
C1404 C 0.38761 0.37407 0.19683 0.0
C1405 C 0.38043 0.35193 0.2064 0.0
C1406 C 0.37751 0.37131 0.18142 0.0
C1407 C 0.36032 0.34579 0.17538 0.0
C1408 C 0.35251 0.32345 0.18517 0.0
C1409 C 0.36244 0.32683 0.20061 0.0
C1410 C 0.38574 0.39561 0.17148 0.0
C1411 C 0.33443 0.29587 0.17912 0.0
H1412 H 0.29644 0.32927 0.13729 0.0
H1413 H 0.36592 0.3284 0.12203 0.0
H1414 H 0.30288 0.32749 0.17644 0.0
H1415 H 0.3227 0.36242 0.17418 0.0
H1416 H 0.29307 0.34433 0.16257 0.0
H1417 H 0.40173 0.3393 0.13899 0.0
H1418 H 0.40541 0.35976 0.15585 0.0
H1419 H 0.38916 0.32477 0.15812 0.0
H1420 H 0.4015 0.39352 0.20129 0.0
H1421 H 0.35698 0.30964 0.20792 0.0
H1422 H 0.36813 0.39545 0.16651 0.0
H1423 H 0.39785 0.39574 0.16134 0.0
H1424 H 0.39738 0.41406 0.17836 0.0
H1425 H 0.31555 0.29393 0.17502 0.0
H1426 H 0.33005 0.28062 0.18829 0.0
H1427 H 0.34362 0.29185 0.1688 0.0
C1428 C 0.67496 0.69672 0.5379 0.0
C1429 C 0.65034 0.69521 0.53862 0.0
C1430 C 0.68434 0.69224 0.52358 0.0
C1431 C 0.66857 0.68589 0.50977 0.0
C1432 C 0.64422 0.68545 0.51033 0.0
C1433 C 0.63547 0.69022 0.52472 0.0
C1434 C 0.71057 0.69319 0.52337 0.0
C1435 C 0.62668 0.67852 0.49593 0.0
C1436 C 0.69409 0.68437 0.46853 0.0
C1437 C 0.68504 0.65739 0.46674 0.0
C1438 C 0.68979 0.69424 0.48273 0.0
C1439 C 0.67579 0.6766 0.49524 0.0
C1440 C 0.66695 0.64941 0.49351 0.0
C1441 C 0.67183 0.64021 0.47935 0.0
C1442 C 0.69978 0.72339 0.48426 0.0
C1443 C 0.65162 0.62986 0.50645 0.0
H1444 H 0.68661 0.70078 0.54859 0.0
H1445 H 0.61648 0.68919 0.52516 0.0
H1446 H 0.70732 0.67297 0.5219 0.0
H1447 H 0.72262 0.70507 0.51319 0.0
H1448 H 0.72188 0.70166 0.53446 0.0
H1449 H 0.60942 0.68117 0.49801 0.0
H1450 H 0.63796 0.69086 0.48568 0.0
H1451 H 0.61936 0.65766 0.49263 0.0
H1452 H 0.70446 0.69773 0.45885 0.0
H1453 H 0.66476 0.61931 0.47804 0.0
H1454 H 0.71158 0.73114 0.49524 0.0
H1455 H 0.68287 0.72687 0.48519 0.0
H1456 H 0.7121 0.73471 0.47399 0.0
H1457 H 0.66303 0.6357 0.51766 0.0
H1458 H 0.64686 0.6095 0.50341 0.0
H1459 H 0.6329 0.62976 0.50869 0.0
C1460 C 0.37715 0.04563 0.46538 0.0
C1461 C 0.3979 0.07164 0.46388 0.0
C1462 C 0.36926 0.03377 0.48036 0.0
C1463 C 0.38252 0.0483 0.49408 0.0
C1464 C 0.40246 0.07502 0.49264 0.0
C1465 C 0.40989 0.08636 0.47757 0.0
C1466 C 0.3478 0.00527 0.48143 0.0
C1467 C 0.41711 0.09118 0.50696 0.0
C1468 C 0.35615 0.02137 0.53524 0.0
C1469 C 0.37125 0.00969 0.53916 0.0
C1470 C 0.35937 0.0339 0.52052 0.0
C1471 C 0.37813 0.03475 0.50959 0.0
C1472 C 0.39348 0.0231 0.51358 0.0
C1473 C 0.38984 0.01074 0.52828 0.0
C1474 C 0.34268 0.04613 0.51663 0.0
C1475 C 0.41383 0.02368 0.50232 0.0
H1476 H 0.36772 0.03423 0.45484 0.0
H1477 H 0.42581 0.10656 0.47649 0.0
H1478 H 0.35658 0.99299 0.48477 0.0
H1479 H 0.33336 0.00266 0.49076 0.0
H1480 H 0.33717 0.99782 0.47002 0.0
H1481 H 0.42986 0.11239 0.50404 0.0
H1482 H 0.40308 0.08928 0.51638 0.0
H1483 H 0.42973 0.08372 0.51185 0.0
H1484 H 0.34167 0.02048 0.54359 0.0
H1485 H 0.40158 0.00173 0.53123 0.0
H1486 H 0.33112 0.03709 0.50571 0.0
H1487 H 0.3555 0.06749 0.51425 0.0
H1488 H 0.32885 0.04364 0.52636 0.0
H1489 H 0.40433 0.01409 0.49097 0.0
H1490 H 0.42399 0.01352 0.50721 0.0
H1491 H 0.42887 0.04438 0.4996 0.0
C1492 C 0.01861 0.36352 0.46259 0.0
C1493 C 0.99581 0.36554 0.46146 0.0
C1494 C 0.0322 0.36828 0.47702 0.0
C1495 C 0.02291 0.37553 0.49052 0.0
C1496 C -0.00061 0.37669 0.48954 0.0
C1497 C 0.98607 0.37155 0.47505 0.0
C1498 C 0.05702 0.36652 0.47769 0.0
C1499 C 0.98895 0.38462 0.5036 0.0
C1500 C 0.04801 0.37631 0.5322 0.0
C1501 C 0.06659 0.40311 0.53404 0.0
C1502 C 0.03425 0.36675 0.51786 0.0
C1503 C 0.03898 0.3845 0.50524 0.0
C1504 C 0.05804 0.41148 0.50699 0.0
C1505 C 0.0717 0.42039 0.52132 0.0
C1506 C 0.0143 0.33779 0.51632 0.0
C1507 C 0.06345 0.43114 0.4939 0.0
H1508 H 0.0261 0.3587 0.45214 0.0
H1509 H 0.96841 0.37307 0.47426 0.0
H1510 H 0.07433 0.38651 0.47928 0.0
H1511 H 0.05643 0.35449 0.488 0.0
H1512 H 0.05996 0.35778 0.46674 0.0
H1513 H 0.9695 0.38286 0.50116 0.0
H1514 H 0.98697 0.37223 0.51401 0.0
H1515 H 0.0031 0.40537 0.50683 0.0
H1516 H 0.04412 0.36287 0.54198 0.0
H1517 H 0.08604 0.44114 0.52267 0.0
H1518 H 0.01825 0.32963 0.50548 0.0
H1519 H 0.99425 0.33511 0.51511 0.0
H1520 H 0.01448 0.32626 0.52671 0.0
H1521 H 0.06895 0.42481 0.48286 0.0
H1522 H 0.07952 0.45126 0.49699 0.0
H1523 H 0.04534 0.43206 0.49136 0.0
C1524 C 0.34484 0.37179 0.5305 0.0
C1525 C 0.36738 0.38582 0.53994 0.0
C1526 C 0.3468 0.36456 0.51492 0.0
C1527 C 0.37191 0.37177 0.50862 0.0
C1528 C 0.39456 0.38482 0.51836 0.0
C1529 C 0.39199 0.39156 0.53393 0.0
C1530 C 0.32217 0.35026 0.50499 0.0
C1531 C 0.42171 0.39286 0.51208 0.0
C1532 C 0.38204 0.34238 0.47106 0.0
C1533 C 0.38794 0.36254 0.46007 0.0
C1534 C 0.37537 0.34444 0.48676 0.0
C1535 C 0.37495 0.36734 0.49159 0.0
C1536 C 0.37962 0.38715 0.48033 0.0
C1537 C 0.38591 0.38443 0.46466 0.0
C1538 C 0.37006 0.32269 0.49833 0.0
C1539 C 0.37945 0.41193 0.48503 0.0
H1540 H 0.32575 0.36725 0.53511 0.0
H1541 H 0.40948 0.40242 0.54115 0.0
H1542 H 0.32248 0.36357 0.49554 0.0
H1543 H 0.32135 0.33295 0.49909 0.0
H1544 H 0.30397 0.34349 0.51213 0.0
H1545 H 0.43709 0.40161 0.52142 0.0
H1546 H 0.42201 0.37559 0.50695 0.0
H1547 H 0.42688 0.40754 0.50246 0.0
H1548 H 0.38345 0.32534 0.46754 0.0
H1549 H 0.39051 0.40008 0.45621 0.0
H1550 H 0.35183 0.31706 0.50518 0.0
H1551 H 0.38654 0.32977 0.50693 0.0
H1552 H 0.36799 0.30488 0.49232 0.0
H1553 H 0.36081 0.40691 0.49122 0.0
H1554 H 0.38168 0.42458 0.47467 0.0
H1555 H 0.39585 0.4235 0.4934 0.0
C1556 C 0.66061 0.02652 0.53588 0.0
C1557 C 0.65251 -7e-05 0.53845 0.0
C1558 C 0.66758 0.03753 0.52064 0.0
C1559 C 0.6669 0.02165 0.50778 0.0
C1560 C 0.65996 0.99512 0.5105 0.0
C1561 C 0.65259 0.9845 0.52577 0.0
C1562 C 0.67454 0.06581 0.51819 0.0
C1563 C 0.6595 0.9777 0.49718 0.0
C1564 C 0.65442 0.04007 0.46692 0.0
C1565 C 0.68001 0.05442 0.46075 0.0
C1566 C 0.64991 0.02911 0.48215 0.0
C1567 C 0.67149 0.0322 0.49135 0.0
C1568 C 0.69729 0.04582 0.48495 0.0
C1569 C 0.70128 0.05698 0.46975 0.0
C1570 C 0.62212 0.01492 0.48858 0.0
C1571 C 0.7207 0.04906 0.49428 0.0
H1572 H 0.66049 0.03846 0.54565 0.0
H1573 H 0.64654 0.96396 0.52776 0.0
H1574 H 0.69383 0.07696 0.51209 0.0
H1575 H 0.65956 0.06648 0.51047 0.0
H1576 H 0.67551 0.07589 0.52952 0.0
H1577 H 0.65622 0.95838 0.50152 0.0
H1578 H 0.64352 0.97406 0.48874 0.0
H1579 H 0.67835 0.98761 0.49051 0.0
H1580 H 0.63791 0.03815 0.46005 0.0
H1581 H 0.7211 0.06804 0.46502 0.0
H1582 H 0.62095 0.02511 0.49937 0.0
H1583 H 0.61654 0.99453 0.49206 0.0
H1584 H 0.60749 0.01398 0.47984 0.0
H1585 H 0.72348 0.0612 0.50496 0.0
H1586 H 0.73919 0.05865 0.48723 0.0
H1587 H 0.71717 0.02958 0.49841 0.0
C1588 C 0.99636 0.63497 0.47537 0.0
C1589 C 0.99802 0.65255 0.46356 0.0
C1590 C 0.0094 0.64412 0.48987 0.0
C1591 C 0.02435 0.67157 0.49271 0.0
C1592 C 0.02587 0.68948 0.48092 0.0
C1593 C 0.01276 0.67974 0.46642 0.0
C1594 C 0.00748 0.62435 0.50206 0.0
C1595 C 0.04149 0.71887 0.4836 0.0
C1596 C 0.04038 0.68936 0.53613 0.0
C1597 C 0.06549 0.69209 0.5372 0.0
C1598 C 0.0272 0.68408 0.52151 0.0
C1599 C 0.0394 0.68123 0.50775 0.0
C1600 C 0.06519 0.68506 0.50869 0.0
C1601 C 0.07795 0.69055 0.52338 0.0
C1602 C -0.00019 0.68041 0.52092 0.0
C1603 C 0.07882 0.682 0.49433 0.0
H1604 H 0.98497 0.61392 0.47325 0.0
H1605 H 0.01393 0.69339 0.45735 0.0
H1606 H 0.0274 0.62736 0.50457 0.0
H1607 H -0.0004 0.62729 0.51335 0.0
H1608 H 0.9946 0.60367 0.49812 0.0
H1609 H 0.03968 0.73011 0.47356 0.0
H1610 H 0.0347 0.72406 0.49458 0.0
H1611 H 0.06262 0.7252 0.48525 0.0
H1612 H 0.03073 0.69068 0.54677 0.0
H1613 H 0.09743 0.69275 0.5241 0.0
H1614 H 0.9853 0.6594 0.51856 0.0
H1615 H 0.99824 0.69214 0.5111 0.0
H1616 H 0.99436 0.68627 0.53218 0.0
H1617 H 0.06816 0.66116 0.49034 0.0
H1618 H 0.09963 0.68769 0.4968 0.0
H1619 H 0.07847 0.6942 0.4844 0.0
C1620 C 0.02291 0.33769 0.03392 0.0
C1621 C 0.02935 0.31822 0.03756 0.0
C1622 C 0.02174 0.34455 0.01807 0.0
C1623 C 0.02697 0.33148 0.00569 0.0
C1624 C 0.03408 0.31228 0.00939 0.0
C1625 C 0.03522 0.30597 0.02523 0.0
C1626 C 0.0143 0.36524 0.01457 0.0
C1627 C 0.03991 0.29785 0.9966 0.0
C1628 C -0.00031 0.31869 0.96423 0.0
C1629 C 0.02275 0.33374 0.95541 0.0
C1630 C 6e-05 0.31985 0.98083 0.0
C1631 C 0.02406 0.33655 0.98874 0.0
C1632 C 0.04659 0.35406 0.97983 0.0
C1633 C 0.04569 0.3524 0.96322 0.0
C1634 C 0.97551 0.301 0.98984 0.0
C1635 C 0.07241 0.37257 0.98779 0.0
H1636 H 0.0184 0.34724 0.04342 0.0
H1637 H 0.04035 0.291 0.02794 0.0
H1638 H 0.02819 0.37977 0.00589 0.0
H1639 H 0.99436 0.35579 0.00919 0.0
H1640 H 0.01414 0.37587 0.02543 0.0
H1641 H 0.04568 0.28387 0.00151 0.0
H1642 H 0.02225 0.28663 0.98902 0.0
H1643 H 0.0561 0.31215 0.98889 0.0
H1644 H 0.98178 0.30445 0.95826 0.0
H1645 H 0.06353 0.36434 0.95647 0.0
H1646 H 0.97263 0.31082 1.00025 0.0
H1647 H 0.97763 0.28432 0.99428 0.0
H1648 H 0.95762 0.29289 0.98227 0.0
H1649 H 0.06921 0.38164 0.99847 0.0
H1650 H 0.08607 0.38846 0.97965 0.0
H1651 H 0.08205 0.36132 0.99166 0.0
C1652 C 0.72537 0.72543 0.96491 0.0
C1653 C 0.75027 0.74695 0.96133 0.0
C1654 C 0.71775 0.71769 0.98071 0.0
C1655 C 0.7354 0.73196 0.99314 0.0
C1656 C 0.7606 0.75358 0.98953 0.0
C1657 C 0.76772 0.76073 0.9737 0.0
C1658 C 0.69083 0.69443 0.98411 0.0
C1659 C 0.78003 0.76944 0.00241 0.0
C1660 C 0.71698 0.73749 0.03523 0.0
C1661 C 0.72737 0.7239 0.04341 0.0
C1662 C 0.71717 0.7383 0.01862 0.0
C1663 C 0.72784 0.72504 0.01003 0.0
C1664 C 0.73562 0.70893 0.01821 0.0
C1665 C 0.73536 0.7086 0.03484 0.0
C1666 C 0.70852 0.75559 0.01039 0.0
C1667 C 0.74668 0.69409 0.0095 0.0
H1668 H 0.71183 0.71468 0.95537 0.0
H1669 H 0.78699 0.77738 0.97104 0.0
H1670 H 0.6927 0.67967 0.99136 0.0
H1671 H 0.67906 0.70094 0.9911 0.0
H1672 H 0.67985 0.68476 0.9731 0.0
H1673 H 0.79885 0.78562 0.99759 0.0
H1674 H 0.77133 0.77814 0.01037 0.0
H1675 H 0.7845 0.75642 0.00972 0.0
H1676 H 0.71056 0.74919 0.04178 0.0
H1677 H 0.7432 0.69785 0.04109 0.0
H1678 H 0.69673 0.74574 0.99969 0.0
H1679 H 0.72619 0.77409 0.0065 0.0
H1680 H 0.69669 0.76082 0.01831 0.0
H1681 H 0.735 0.68456 0.99869 0.0
H1682 H 0.74704 0.67878 0.01708 0.0
H1683 H 0.76717 0.70813 0.00571 0.0
C1684 C 0.33828 0.02834 0.96476 0.0
C1685 C 0.32301 0.03924 0.95964 0.0
C1686 C 0.3428 0.0269 0.98102 0.0
C1687 C 0.33175 0.03657 0.99228 0.0
C1688 C 0.31786 0.04916 0.98702 0.0
C1689 C 0.31367 0.05031 0.97081 0.0
C1690 C 0.35805 0.0137 0.98615 0.0
C1691 C 0.30588 0.05996 0.99856 0.0
C1692 C 0.30554 0.0061 0.03227 0.0
C1693 C 0.32264 0.02636 0.04246 0.0
C1694 C 0.30968 0.00812 0.01586 0.0
C1695 C 0.33155 0.03093 0.00949 0.0
C1696 C 0.35031 0.05023 0.01984 0.0
C1697 C 0.34557 0.04777 0.03625 0.0
C1698 C 0.28922 0.98698 0.0053 0.0
C1699 C 0.3742 0.07451 0.01354 0.0
H1700 H 0.34561 0.01983 0.95615 0.0
H1701 H 0.30216 0.0591 0.96689 0.0
H1702 H 0.37159 0.02463 0.99605 0.0
H1703 H 0.34411 0.99353 0.99045 0.0
H1704 H 0.36968 0.01213 0.97624 0.0
H1705 H 0.29741 0.07089 0.99252 0.0
H1706 H 0.28996 0.04352 0.00538 0.0
H1707 H 0.32093 0.0734 0.00715 0.0
H1708 H 0.28794 0.98932 0.03701 0.0
H1709 H 0.359 0.0634 0.04409 0.0
H1710 H 0.29878 0.98125 0.99601 0.0
H1711 H 0.27768 0.99474 0.99925 0.0
H1712 H 0.27533 0.96908 0.01207 0.0
H1713 H 0.38302 0.06951 0.00343 0.0
H1714 H 0.38945 0.08449 0.02284 0.0
H1715 H 0.36823 0.08862 0.00917 0.0
C1716 C 0.00732 0.72146 0.96779 0.0
C1717 C 0.03094 0.73248 0.95918 0.0
C1718 C 0.00745 0.72066 0.98441 0.0
C1719 C 0.03177 0.73099 0.99255 0.0
C1720 C 0.05535 0.73964 0.98384 0.0
C1721 C 0.05467 0.74037 0.96724 0.0
C1722 C 0.98183 0.71115 0.99321 0.0
C1723 C 0.08164 0.75043 0.99205 0.0
C1724 C 0.03696 0.76755 0.03059 0.0
C1725 C 0.03414 0.74926 0.04222 0.0
C1726 C 0.03641 0.7618 0.01446 0.0
C1727 C 0.03304 0.73711 0.00975 0.0
C1728 C 0.03055 0.71861 0.02141 0.0
C1729 C 0.03108 0.72489 0.03756 0.0
C1730 C 0.03914 0.78214 0.00244 0.0
C1731 C 0.02706 0.69216 0.01682 0.0
H1732 H 0.98888 0.71518 0.96164 0.0
H1733 H 0.07298 0.74869 0.96064 0.0
H1734 H 0.98043 0.69851 0.00337 0.0
H1735 H 0.98103 0.72837 0.99802 0.0
H1736 H 0.96445 0.69988 0.98541 0.0
H1737 H 0.09717 0.75182 0.98389 0.0
H1738 H 0.08788 0.77046 0.99663 0.0
H1739 H 0.08017 0.73794 0.0023 0.0
H1740 H 0.03935 0.78643 0.03409 0.0
H1741 H 0.0289 0.71068 0.0465 0.0
H1742 H 0.02134 0.77389 0.99481 0.0
H1743 H 0.0563 0.7874 0.99463 0.0
H1744 H 0.04179 0.80044 0.00807 0.0
H1745 H 0.00843 0.68073 0.01011 0.0
H1746 H 0.02655 0.68044 0.0273 0.0
H1747 H 0.04336 0.69485 0.00892 0.0
C1748 C 0.33683 0.31426 0.03284 0.0
C1749 C 0.32439 0.32536 0.04153 0.0
C1750 C 0.33792 0.31571 0.01624 0.0
C1751 C 0.32635 0.32863 0.00821 0.0
C1752 C 0.3164 0.34233 0.01702 0.0
C1753 C 0.31549 0.34049 0.03361 0.0
C1754 C 0.34892 0.30102 0.00733 0.0
C1755 C 0.30423 0.35666 0.00895 0.0
C1756 C 0.33055 0.33356 0.96311 0.0
C1757 C 0.30664 0.3113 0.9588 0.0
C1758 C 0.33734 0.33976 0.97917 0.0
C1759 C 0.31981 0.32325 0.99108 0.0
C1760 C 0.2956 0.3009 0.98672 0.0
C1761 C 0.28935 0.29526 0.97068 0.0
C1762 C 0.36325 0.36378 0.98341 0.0
C1763 C 0.27628 0.28271 0.999 0.0
H1764 H 0.34398 0.30274 0.0389 0.0
H1765 H 0.3061 0.34937 0.04027 0.0
H1766 H 0.33239 0.28227 0.00272 0.0
H1767 H 0.36082 0.31264 0.99704 0.0
H1768 H 0.36136 0.29625 0.01502 0.0
H1769 H 0.30221 0.37037 0.01715 0.0
H1770 H 0.31617 0.36797 0.99858 0.0
H1771 H 0.28432 0.34208 0.00456 0.0
H1772 H 0.34399 0.34602 0.95396 0.0
H1773 H 0.27082 0.27803 0.96745 0.0
H1774 H 0.37576 0.35776 0.99 0.0
H1775 H 0.35984 0.3769 0.99132 0.0
H1776 H 0.37423 0.37515 0.97278 0.0
H1777 H 0.28577 0.27425 0.0065 0.0
H1778 H 0.25827 0.26623 0.99361 0.0
H1779 H 0.27026 0.29391 0.00689 0.0
C1780 C 0.7668 0.05887 0.96967 0.0
C1781 C 0.74847 0.04035 0.95909 0.0
C1782 C 0.76267 0.05586 0.98605 0.0
C1783 C 0.73959 0.03379 0.992 0.0
C1784 C 0.7198 0.01648 0.98133 0.0
C1785 C 0.72451 0.01992 0.96493 0.0
C1786 C 0.78423 0.07494 0.99696 0.0
C1787 C 0.69467 0.99307 0.98721 0.0
C1788 C 0.7541 0.00826 0.02946 0.0
C1789 C 0.74646 0.01995 0.04123 0.0
C1790 C 0.75044 0.01135 0.01341 0.0
C1791 C 0.73878 0.02652 0.00895 0.0
C1792 C 0.72947 0.037 0.02078 0.0
C1793 C 0.7335 0.03364 0.03685 0.0
C1794 C 0.76058 -0.0003 0.00121 0.0
C1795 C 0.7166 0.05293 0.01649 0.0
H1796 H 0.7852 0.07493 0.9652 0.0
H1797 H 0.71017 0.00566 0.95678 0.0
H1798 H 0.77587 0.08121 0.00669 0.0
H1799 H 0.79425 0.06505 0.00242 0.0
H1800 H 0.79925 0.09277 0.9906 0.0
H1801 H 0.67924 0.98501 0.97788 0.0
H1802 H 0.69877 0.97728 0.99089 0.0
H1803 H 0.68692 0.99842 0.9977 0.0
H1804 H 0.76384 0.99737 0.03278 0.0
H1805 H 0.72743 0.0426 0.04592 0.0
H1806 H 0.77735 0.01579 0.99468 0.0
H1807 H 0.74497 0.98794 0.99243 0.0
H1808 H 0.76738 0.98685 0.00663 0.0
H1809 H 0.73191 0.07285 0.01254 0.0
H1810 H 0.70598 0.05522 0.02672 0.0
H1811 H 0.70253 0.04362 0.00656 0.0
C1812 C 0.66587 0.63747 0.30337 0.0
C1813 C 0.68877 0.65006 0.29411 0.0
C1814 C 0.6671 0.6401 0.31991 0.0
C1815 C 0.69183 0.65583 0.32733 0.0
C1816 C 0.71458 0.6707 0.31791 0.0
C1817 C 0.7128 0.66757 0.30137 0.0
C1818 C 0.64232 0.62397 0.32947 0.0
C1819 C 0.74124 0.68806 0.32533 0.0
C1820 C 0.69222 0.66426 0.37214 0.0
C1821 C 0.69649 0.64396 0.37735 0.0
C1822 C 0.69129 0.66896 0.35586 0.0
C1823 C 0.69452 0.65282 0.34463 0.0
C1824 C 0.6993 0.63264 0.34989 0.0
C1825 C 0.7003 0.62854 0.36614 0.0
C1826 C 0.68641 0.69079 0.35068 0.0
C1827 C 0.7028 0.6149 0.33834 0.0
H1828 H 0.64717 0.62408 0.29782 0.0
H1829 H 0.73056 0.67754 0.29427 0.0
H1830 H 0.64297 0.60709 0.33495 0.0
H1831 H 0.64084 0.63589 0.33919 0.0
H1832 H 0.6243 0.61612 0.32204 0.0
H1833 H 0.75571 0.70195 0.3166 0.0
H1834 H 0.73974 0.69951 0.33533 0.0
H1835 H 0.7489 0.67555 0.33012 0.0
H1836 H 0.68932 0.67628 0.38077 0.0
H1837 H 0.70367 0.61286 0.37007 0.0
H1838 H 0.66704 0.68227 0.34464 0.0
H1839 H 0.70163 0.70381 0.34202 0.0
H1840 H 0.68649 0.70293 0.36081 0.0
H1841 H 0.68472 0.60388 0.33107 0.0
H1842 H 0.70686 0.60047 0.34438 0.0
H1843 H 0.71932 0.62688 0.33013 0.0
C1844 C 0.41306 0.05752 0.36785 0.0
C1845 C 0.40211 0.07104 0.37552 0.0
C1846 C 0.41274 0.05564 0.35128 0.0
C1847 C 0.40126 0.06764 0.34221 0.0
C1848 C 0.38782 0.07892 0.34998 0.0
C1849 C 0.38838 0.08045 0.36657 0.0
C1850 C 0.42698 0.04313 0.34349 0.0
C1851 C 0.37514 0.09174 0.34078 0.0
C1852 C 0.43723 0.10141 0.30448 0.0
C1853 C 0.42094 0.08397 0.29273 0.0
C1854 C 0.43091 0.0962 0.32054 0.0
C1855 C 0.40767 0.07288 0.32507 0.0
C1856 C 0.39107 0.0551 0.31329 0.0
C1857 C 0.3979 0.06087 0.29721 0.0
C1858 C 0.4492 0.11576 0.33269 0.0
C1859 C 0.36619 0.03006 0.3177 0.0
H1860 H 0.42348 0.04996 0.37472 0.0
H1861 H 0.37967 0.09074 0.37244 0.0
H1862 H 0.41566 0.03092 0.33321 0.0
H1863 H 0.44634 0.05882 0.33901 0.0
H1864 H 0.43051 0.03062 0.35189 0.0
H1865 H 0.36162 0.09525 0.34828 0.0
H1866 H 0.39072 0.111 0.33611 0.0
H1867 H 0.36395 0.07942 0.3305 0.0
H1868 H 0.45505 0.11931 0.30112 0.0
H1869 H 0.38525 0.04732 0.28817 0.0
H1870 H 0.45655 0.10602 0.34084 0.0
H1871 H 0.43836 0.12305 0.33994 0.0
H1872 H 0.46643 0.13297 0.32718 0.0
H1873 H 0.37101 0.01777 0.32546 0.0
H1874 H 0.35542 0.01828 0.30714 0.0
H1875 H 0.35291 0.03482 0.32451 0.0
C1876 C 0.98189 0.33596 0.36617 0.0
C1877 C 0.99142 0.35982 0.37437 0.0
C1878 C 0.98375 0.33559 0.3496 0.0
C1879 C 0.99536 0.35965 0.3411 0.0
C1880 C 0.00751 0.38382 0.34948 0.0
C1881 C 0.0054 0.38361 0.36605 0.0
C1882 C 0.97082 0.30938 0.34116 0.0
C1883 C 0.02032 0.40993 0.34092 0.0
C1884 C 0.00093 0.35901 0.29604 0.0
C1885 C 0.97762 0.35839 0.29142 0.0
C1886 C 0.00723 0.35954 0.3122 0.0
C1887 C 0.98981 0.35947 0.32388 0.0
C1888 C 0.96641 0.35906 0.31918 0.0
C1889 C 0.96064 0.35851 0.30307 0.0
C1890 C 0.03233 0.35996 0.31679 0.0
C1891 C 0.94725 0.35906 0.3312 0.0
H1892 H 0.97131 0.31748 0.37255 0.0
H1893 H 0.01308 0.40215 0.37234 0.0
H1894 H 0.95154 0.30535 0.33633 0.0
H1895 H 0.98307 0.30964 0.33106 0.0
H1896 H 0.96732 0.29298 0.34925 0.0
H1897 H 0.03314 0.42651 0.34891 0.0
H1898 H 0.03226 0.40978 0.33077 0.0
H1899 H 0.00477 0.41357 0.33615 0.0
H1900 H 0.0141 0.35889 0.28707 0.0
H1901 H 0.94261 0.3581 0.29961 0.0
H1902 H 0.02757 0.34209 0.32378 0.0
H1903 H 0.04455 0.37724 0.32444 0.0
H1904 H 0.04416 0.36075 0.3063 0.0
H1905 H 0.93987 0.34149 0.33896 0.0
H1906 H 0.93005 0.35892 0.32555 0.0
H1907 H 0.95736 0.37675 0.33887 0.0
C1908 C 0.69448 0.05138 0.37066 0.0
C1909 C 0.69355 0.07435 0.37402 0.0
C1910 C 0.69523 0.0439 0.35489 0.0
C1911 C 0.69496 0.05977 0.34231 0.0
C1912 C 0.69392 0.0829 0.34572 0.0
C1913 C 0.69327 0.08987 0.36148 0.0
C1914 C 0.69641 0.01919 0.35168 0.0
C1915 C 0.69352 0.10041 0.33269 0.0
C1916 C 0.72061 0.06497 0.30074 0.0
C1917 C 0.69703 0.05369 0.29209 0.0
C1918 C 0.72033 0.06464 0.31736 0.0
C1919 C 0.69588 0.05281 0.32546 0.0
C1920 C 0.67213 0.03885 0.31676 0.0
C1921 C 0.673 0.03943 0.30014 0.0
C1922 C 0.74613 0.07944 0.32616 0.0
C1923 C 0.64564 0.02575 0.3249 0.0
H1924 H 0.69472 0.03933 0.38032 0.0
H1925 H 0.6925 0.10763 0.36398 0.0
H1926 H 0.67947 0.0055 0.34421 0.0
H1927 H 0.71461 0.02414 0.34499 0.0
H1928 H 0.69616 0.00883 0.36276 0.0
H1929 H 0.69249 0.11758 0.33738 0.0
H1930 H 0.71153 0.10785 0.32531 0.0
H1931 H 0.6763 0.08894 0.32484 0.0
H1932 H 0.73929 0.07578 0.29458 0.0
H1933 H 0.65469 0.03044 0.29352 0.0
H1934 H 0.74603 0.06855 0.33693 0.0
H1935 H 0.74905 0.09883 0.33001 0.0
H1936 H 0.76312 0.08294 0.31862 0.0
H1937 H 0.64597 0.01515 0.3357 0.0
H1938 H 0.6297 0.01163 0.31695 0.0
H1939 H 0.64084 0.04104 0.32861 0.0
C1940 C 0.00083 0.65342 0.36955 0.0
C1941 C 0.9788 0.6528 0.37652 0.0
C1942 C 0.00386 0.6546 0.353 0.0
C1943 C 0.98437 0.65512 0.34331 0.0
C1944 C 0.96349 0.65702 0.35041 0.0
C1945 C 0.96097 0.65584 0.36693 0.0
C1946 C 0.02663 0.65297 0.34589 0.0
C1947 C 0.94237 0.6578 0.34056 0.0
C1948 C 0.98953 0.66281 0.29845 0.0
C1949 C 0.97413 0.6365 0.29359 0.0
C1950 C 0.99413 0.66931 0.31463 0.0
C1951 C 0.98298 0.64899 0.32611 0.0
C1952 C 0.96835 0.62236 0.32119 0.0
C1953 C 0.96413 0.61648 0.30502 0.0
C1954 C 0.00999 0.69789 0.31943 0.0
C1955 C 0.95618 0.60003 0.33302 0.0
H1956 H 0.01476 0.65122 0.37691 0.0
H1957 H 0.94407 0.65569 0.37228 0.0
H1958 H 0.01953 0.63263 0.34156 0.0
H1959 H 0.03501 0.66646 0.33561 0.0
H1960 H 0.04253 0.65786 0.35469 0.0
H1961 H 0.92968 0.66292 0.34774 0.0
H1962 H 0.95129 0.6723 0.3308 0.0
H1963 H 0.92969 0.63817 0.33511 0.0
H1964 H 0.99738 0.67836 0.28964 0.0
H1965 H 0.95239 0.59608 0.30135 0.0
H1966 H 0.02477 0.70064 0.32856 0.0
H1967 H 0.99671 0.7042 0.32473 0.0
H1968 H 0.02032 0.71092 0.3092 0.0
H1969 H 0.97142 0.60124 0.34132 0.0
H1970 H 0.94662 0.58038 0.32722 0.0
H1971 H 0.94111 0.60161 0.34015 0.0
C1972 C 0.41958 0.38432 0.36138 0.0
C1973 C 0.40016 0.37049 0.37284 0.0
C1974 C 0.41356 0.38093 0.34522 0.0
C1975 C 0.38728 0.36368 0.34034 0.0
C1976 C 0.36713 0.35142 0.35187 0.0
C1977 C 0.37387 0.35471 0.36804 0.0
C1978 C 0.43577 0.39431 0.33338 0.0
C1979 C 0.33875 0.33365 0.34716 0.0
C1980 C 0.3817 0.36933 0.29603 0.0
C1981 C 0.38705 0.34984 0.29064 0.0
C1982 C 0.37888 0.37245 0.3123 0.0
C1983 C 0.38212 0.35609 0.32334 0.0
C1984 C 0.3852 0.33496 0.31783 0.0
C1985 C 0.38735 0.33195 0.30154 0.0
C1986 C 0.37451 0.39451 0.31769 0.0
C1987 C 0.38887 0.31708 0.32915 0.0
H1988 H 0.43993 0.39673 0.365 0.0
H1989 H 0.35872 0.34415 0.37686 0.0
H1990 H 0.43822 0.37922 0.32687 0.0
H1991 H 0.43111 0.40537 0.32454 0.0
H1992 H 0.45483 0.40818 0.33911 0.0
H1993 H 0.32507 0.33094 0.35702 0.0
H1994 H 0.33356 0.34169 0.33674 0.0
H1995 H 0.33572 0.31401 0.34384 0.0
H1996 H 0.38111 0.38303 0.28764 0.0
H1997 H 0.3912 0.31665 0.29745 0.0
H1998 H 0.39356 0.41153 0.32151 0.0
H1999 H 0.36087 0.38828 0.32795 0.0
H2000 H 0.36639 0.40122 0.30802 0.0
H2001 H 0.40814 0.32845 0.33525 0.0
H2002 H 0.38843 0.30009 0.32301 0.0
H2003 H 0.37331 0.30941 0.33836 0.0
C2004 C 0.35718 0.00103 0.7033 0.0
C2005 C 0.364 0.98198 0.70734 0.0
C2006 C 0.35587 0.00721 0.68732 0.0
C2007 C 0.36137 0.99389 0.67522 0.0
C2008 C 0.36904 0.97525 0.67933 0.0
C2009 C 0.37029 0.9696 0.69529 0.0
C2010 C 0.34787 0.02735 0.68338 0.0
C2011 C 0.37514 0.96057 0.66684 0.0
C2012 C 0.33215 0.97844 0.6342 0.0
C2013 C 0.35458 0.99364 0.6249 0.0
C2014 C 0.3334 0.98024 0.65077 0.0
C2015 C 0.35765 0.99773 0.65818 0.0
C2016 C 0.37955 0.01516 0.64879 0.0
C2017 C 0.37778 0.01287 0.63221 0.0
C2018 C 0.30949 0.96141 0.6603 0.0
C2019 C 0.40562 0.03443 0.65622 0.0
H2020 H 0.35237 0.0107 0.71258 0.0
H2021 H 0.37575 0.95498 0.69831 0.0
H2022 H 0.36145 0.04157 0.67447 0.0
H2023 H 0.32783 0.01732 0.67813 0.0
H2024 H 0.34768 0.0384 0.69403 0.0
H2025 H 0.38168 0.94738 0.67205 0.0
H2026 H 0.35735 0.94846 0.65953 0.0
H2027 H 0.39084 0.97472 0.65881 0.0
H2028 H 0.31405 0.96375 0.62861 0.0
H2029 H 0.39514 0.02484 0.62508 0.0
H2030 H 0.30658 0.97163 0.67048 0.0
H2031 H 0.31252 0.94549 0.66511 0.0
H2032 H 0.29127 0.95222 0.653 0.0
H2033 H 0.40267 0.04391 0.66679 0.0
H2034 H 0.41869 0.05 0.64773 0.0
H2035 H 0.41578 0.02373 0.66017 0.0
C2036 C 0.06974 0.37684 0.6975 0.0
C2037 C 0.05938 0.39092 0.70513 0.0
C2038 C 0.06989 0.37537 0.68091 0.0
C2039 C 0.05971 0.38857 0.67181 0.0
C2040 C 0.04673 0.40038 0.67951 0.0
C2041 C 0.04659 0.40129 0.69611 0.0
C2042 C 0.08339 0.36205 0.67319 0.0
C2043 C 0.03556 0.41463 0.67028 0.0
C2044 C 0.09884 0.42414 0.63529 0.0
C2045 C 0.08251 0.40845 0.62298 0.0
C2046 C 0.09158 0.41768 0.65115 0.0
C2047 C 0.06742 0.39474 0.65488 0.0
C2048 C 0.05097 0.37848 0.64252 0.0
C2049 C 0.05866 0.38562 0.62666 0.0
C2050 C 0.10971 0.4357 0.66394 0.0
C2051 C 0.02525 0.35375 0.64607 0.0
H2052 H 0.07938 0.3685 0.70442 0.0
H2053 H 0.03837 0.41205 0.70195 0.0
H2054 H 0.07246 0.35093 0.66251 0.0
H2055 H 0.10346 0.37723 0.66936 0.0
H2056 H 0.0853 0.34835 0.68145 0.0
H2057 H 0.02215 0.41855 0.67764 0.0
H2058 H 0.05197 0.4338 0.66608 0.0
H2059 H 0.02463 0.40314 0.65971 0.0
H2060 H 0.11728 0.44183 0.63255 0.0
H2061 H 0.04599 0.37341 0.61716 0.0
H2062 H 0.11581 0.42462 0.67187 0.0
H2063 H 0.09918 0.44322 0.67129 0.0
H2064 H 0.12773 0.45282 0.65901 0.0
H2065 H 0.02864 0.34085 0.65419 0.0
H2066 H 0.01544 0.34247 0.63518 0.0
H2067 H 0.01167 0.3589 0.65218 0.0
C2068 C 0.65801 0.70578 0.70543 0.0
C2069 C 0.63312 0.68886 0.71194 0.0
C2070 C 0.66176 0.70761 0.68892 0.0
C2071 C 0.64018 0.69192 0.67882 0.0
C2072 C 0.61556 0.67345 0.68546 0.0
C2073 C 0.61229 0.6723 0.70192 0.0
C2074 C 0.68828 0.72757 0.6823 0.0
C2075 C 0.59212 0.65605 0.67515 0.0
C2076 C 0.63148 0.7164 0.63914 0.0
C2077 C 0.63667 0.70112 0.62856 0.0
C2078 C 0.63422 0.71475 0.6555 0.0
C2079 C 0.64196 0.69706 0.66148 0.0
C2080 C 0.64846 0.68249 0.65083 0.0
C2081 C 0.64589 0.68482 0.63442 0.0
C2082 C 0.62746 0.73096 0.6664 0.0
C2083 C 0.65665 0.66335 0.65676 0.0
H2084 H 0.67415 0.7186 0.71316 0.0
H2085 H 0.5931 0.65895 0.70694 0.0
H2086 H 0.69413 0.71888 0.67253 0.0
H2087 H 0.68704 0.74443 0.6773 0.0
H2088 H 0.70391 0.73519 0.69151 0.0
H2089 H 0.57541 0.64066 0.68211 0.0
H2090 H 0.58527 0.66828 0.669 0.0
H2091 H 0.59772 0.64627 0.66593 0.0
H2092 H 0.62466 0.72927 0.63462 0.0
H2093 H 0.6499 0.67299 0.62625 0.0
H2094 H 0.64339 0.74153 0.67522 0.0
H2095 H 0.60916 0.71777 0.67303 0.0
H2096 H 0.62437 0.74565 0.65986 0.0
H2097 H 0.67179 0.67251 0.66617 0.0
H2098 H 0.66457 0.6564 0.6471 0.0
H2099 H 0.63934 0.64598 0.66205 0.0
C2100 C 0.36225 0.38695 0.70193 0.0
C2101 C 0.36175 0.40999 0.70578 0.0
C2102 C 0.36365 0.38049 0.68601 0.0
C2103 C 0.3642 0.39733 0.67378 0.0
C2104 C 0.36357 0.42051 0.67769 0.0
C2105 C 0.36252 0.42659 0.6936 0.0
C2106 C 0.36461 0.35581 0.68228 0.0
C2107 C 0.36387 0.43895 0.66506 0.0
C2108 C 0.39018 0.40478 0.63214 0.0
C2109 C 0.36668 0.39398 0.62344 0.0
C2110 C 0.38976 0.40338 0.64874 0.0
C2111 C 0.36525 0.39119 0.65678 0.0
C2112 C 0.34156 0.37779 0.64796 0.0
C2113 C 0.34258 0.37923 0.63136 0.0
C2114 C 0.4155 0.41739 0.65767 0.0
C2115 C 0.31499 0.36452 0.65601 0.0
H2116 H 0.36172 0.3741 0.71133 0.0
H2117 H 0.36203 0.44437 0.69647 0.0
H2118 H 0.3476 0.34253 0.67473 0.0
H2119 H 0.38275 0.36091 0.67547 0.0
H2120 H 0.36429 0.34495 0.69314 0.0
H2121 H 0.36285 0.45592 0.67011 0.0
H2122 H 0.38214 0.4467 0.6579 0.0
H2123 H 0.34693 0.42813 0.65691 0.0
H2124 H 0.4089 0.41593 0.62607 0.0
H2125 H 0.32432 0.37065 0.6247 0.0
H2126 H 0.41507 0.40588 0.6682 0.0
H2127 H 0.41873 0.43672 0.66189 0.0
H2128 H 0.43246 0.42097 0.65007 0.0
H2129 H 0.31504 0.35327 0.66655 0.0
H2130 H 0.29905 0.35096 0.64787 0.0
H2131 H 0.3104 0.37978 0.66011 0.0
C2132 C 0.65534 0.01509 0.7039 0.0
C2133 C 0.66255 0.99826 0.71138 0.0
C2134 C 0.65693 0.01812 0.68737 0.0
C2135 C 0.6656 0.00371 0.67816 0.0
C2136 C 0.67556 0.98898 0.68581 0.0
C2137 C 0.67403 0.98653 0.70236 0.0
C2138 C 0.64669 0.03453 0.67973 0.0
C2139 C 0.68502 0.97331 0.67648 0.0
C2140 C 0.6271 0.97313 0.64063 0.0
C2141 C 0.64502 0.98827 0.62875 0.0
C2142 C 0.63366 0.9782 0.65666 0.0
C2143 C 0.65876 0.9992 0.66103 0.0
C2144 C 0.67688 0.01497 0.64913 0.0
C2145 C 0.66985 0.00919 0.63306 0.0
C2146 C 0.61371 0.96072 0.66891 0.0
C2147 C 0.70367 0.03771 0.65338 0.0
H2148 H 0.64677 0.02451 0.71084 0.0
H2149 H 0.67989 0.97369 0.70808 0.0
H2150 H 0.65905 0.04562 0.66944 0.0
H2151 H 0.62638 0.02136 0.67532 0.0
H2152 H 0.64609 0.04868 0.68824 0.0
H2153 H 0.69651 0.96703 0.68396 0.0
H2154 H 0.66773 0.95539 0.67164 0.0
H2155 H 0.69741 0.98489 0.66633 0.0
H2156 H 0.60788 0.9569 0.63741 0.0
H2157 H 0.68375 0.02097 0.6239 0.0
H2158 H 0.60886 0.97273 0.6769 0.0
H2159 H 0.62211 0.95106 0.67631 0.0
H2160 H 0.59512 0.94514 0.66349 0.0
H2161 H 0.70161 0.05113 0.66178 0.0
H2162 H 0.71474 0.04918 0.6428 0.0
H2163 H 0.71544 0.03022 0.65943 0.0
C2164 C 0.07485 0.71802 0.70218 0.0
C2165 C 0.06495 0.69403 0.71029 0.0
C2166 C 0.07298 0.7186 0.68563 0.0
C2167 C 0.06101 0.69463 0.67705 0.0
C2168 C 0.04837 0.67038 0.68535 0.0
C2169 C 0.05048 0.67037 0.70191 0.0
C2170 C 0.08639 0.74491 0.67729 0.0
C2171 C 0.03516 0.64436 0.6767 0.0
C2172 C 0.05623 0.69571 0.63198 0.0
C2173 C 0.07923 0.6956 0.62749 0.0
C2174 C 0.04979 0.69534 0.6481 0.0
C2175 C 0.0668 0.69486 0.65987 0.0
C2176 C 0.08999 0.69473 0.65531 0.0
C2177 C 0.09587 0.6951 0.63923 0.0
C2178 C 0.02492 0.69549 0.65255 0.0
C2179 C 0.10874 0.69423 0.66743 0.0
H2180 H 0.08578 0.7364 0.70861 0.0
H2181 H 0.04252 0.65174 0.70813 0.0
H2182 H 0.10568 0.7487 0.67259 0.0
H2183 H 0.07445 0.74497 0.66712 0.0
H2184 H 0.08998 0.76129 0.68542 0.0
H2185 H 0.02195 0.62783 0.68462 0.0
H2186 H 0.02354 0.64493 0.6665 0.0
H2187 H 0.05047 0.64029 0.672 0.0
H2188 H 0.0433 0.69607 0.62293 0.0
H2189 H 0.11369 0.695 0.63587 0.0
H2190 H 0.02981 0.71291 0.66003 0.0
H2191 H 0.01194 0.67774 0.65966 0.0
H2192 H 0.01382 0.69592 0.642 0.0
H2193 H 0.11627 0.71175 0.67525 0.0
H2194 H 0.12587 0.69408 0.66188 0.0
H2195 H 0.09825 0.67649 0.67503 0.0
C2196 C 0.86592 0.09197 0.07941 0.0
C2197 C 0.84291 0.09132 0.08466 0.0
C2198 C 0.89 0.11578 0.07879 0.0
C2199 C 0.89106 0.13937 0.08376 0.0
C2200 C 0.86789 0.13877 0.08917 0.0
C2201 C 0.84404 0.11477 0.08944 0.0
C2202 C 0.91424 0.11574 0.07275 0.0
C2203 C 0.86831 0.16349 0.09472 0.0
C2204 C 0.95662 0.19798 0.09599 0.0
C2205 C 0.96269 0.21446 0.08276 0.0
C2206 C 0.9335 0.17327 0.0964 0.0
C2207 C 0.91633 0.16479 0.08318 0.0
C2208 C 0.92279 0.18106 0.06962 0.0
C2209 C 0.94582 0.2058 0.06962 0.0
C2210 C 0.92709 0.15657 0.11114 0.0
C2211 C 0.90515 0.17253 0.05521 0.0
H2212 H 0.86509 0.07387 0.07565 0.0
H2213 H 0.8263 0.11432 0.09359 0.0
H2214 H 0.92239 0.12905 0.06238 0.0
H2215 H 0.92973 0.12336 0.08202 0.0
H2216 H 0.91004 0.09574 0.06922 0.0
H2217 H 0.84868 0.15956 0.09889 0.0
H2218 H 0.88267 0.17265 0.10454 0.0
H2219 H 0.87485 0.17807 0.08495 0.0
H2220 H 0.9696 0.20467 0.10618 0.0
H2221 H 0.95054 0.21846 0.05934 0.0
H2222 H 0.92403 0.13681 0.10812 0.0
H2223 H 0.90843 0.15362 0.11639 0.0
H2224 H 0.94289 0.16566 0.12021 0.0
H2225 H 0.90146 0.153 0.05107 0.0
H2226 H 0.91378 0.18682 0.0453 0.0
H2227 H 0.88578 0.17038 0.05833 0.0
C2228 C 0.95489 0.78401 0.09507 0.0
C2229 C 0.95872 0.76523 0.08708 0.0
C2230 C 0.9303 0.78267 0.09485 0.0
C2231 C 0.90929 0.76244 0.08612 0.0
C2232 C 0.91326 0.74378 0.07773 0.0
C2233 C 0.93787 0.74522 0.07847 0.0
C2234 C 0.92666 0.80259 0.10421 0.0
C2235 C 0.89149 0.72228 0.06801 0.0
C2236 C 0.83903 0.74242 0.09737 0.0
C2237 C 0.83311 0.75668 0.08642 0.0
C2238 C 0.86385 0.74432 0.09749 0.0
C2239 C 0.88296 0.76037 0.08613 0.0
C2240 C 0.87693 0.77451 0.07488 0.0
C2241 C 0.85214 0.77274 0.07529 0.0
C2242 C 0.86974 0.72938 0.10987 0.0
C2243 C 0.89661 0.79136 0.06238 0.0
H2244 H 0.97097 0.79943 0.10179 0.0
H2245 H 0.94089 0.7308 0.07218 0.0
H2246 H 0.9203 0.81343 0.09627 0.0
H2247 H 0.91089 0.79231 0.11317 0.0
H2248 H 0.94499 0.81708 0.11038 0.0
H2249 H 0.89818 0.71016 0.06155 0.0
H2250 H 0.8748 0.70913 0.07582 0.0
H2251 H 0.88387 0.73101 0.0593 0.0
H2252 H 0.82437 0.73012 0.10606 0.0
H2253 H 0.84751 0.78365 0.06675 0.0
H2254 H 0.88722 0.74328 0.11692 0.0
H2255 H 0.87457 0.71532 0.10409 0.0
H2256 H 0.8529 0.71822 0.11807 0.0
H2257 H 0.91463 0.80729 0.06806 0.0
H2258 H 0.88856 0.80046 0.05421 0.0
H2259 H 0.90266 0.77928 0.05533 0.0
C2260 C 0.30586 0.12064 0.07744 0.0
C2261 C 0.28592 0.09732 0.08423 0.0
C2262 C 0.30434 0.14379 0.07757 0.0
C2263 C 0.28236 0.14361 0.0847 0.0
C2264 C 0.26192 0.11999 0.09132 0.0
C2265 C 0.26393 0.09709 0.09099 0.0
C2266 C 0.3265 0.16858 0.07035 0.0
C2267 C 0.2382 0.11904 0.09902 0.0
C2268 C 0.2932 0.2097 0.09907 0.0
C2269 C 0.28227 0.21704 0.08668 0.0
C2270 C 0.29283 0.18558 0.09873 0.0
C2271 C 0.28129 0.16841 0.08567 0.0
C2272 C 0.26967 0.17544 0.0733 0.0
C2273 C 0.27027 0.19969 0.07397 0.0
C2274 C 0.30533 0.17873 0.11218 0.0
C2275 C 0.25721 0.15766 0.05919 0.0
H2276 H 0.32288 0.12092 0.07218 0.0
H2277 H 0.24846 0.0791 0.09626 0.0
H2278 H 0.31861 0.17647 0.06125 0.0
H2279 H 0.33609 0.18394 0.0796 0.0
H2280 H 0.34172 0.16518 0.06476 0.0
H2281 H 0.22354 0.09889 0.10307 0.0
H2282 H 0.24455 0.13249 0.10938 0.0
H2283 H 0.22844 0.12598 0.0906 0.0
H2284 H 0.30246 0.22303 0.10894 0.0
H2285 H 0.2618 0.20528 0.06435 0.0
H2286 H 0.32228 0.17716 0.10769 0.0
H2287 H 0.29097 0.15929 0.11726 0.0
H2288 H 0.31242 0.19368 0.12179 0.0
H2289 H 0.27237 0.15541 0.05262 0.0
H2290 H 0.24796 0.16544 0.05093 0.0
H2291 H 0.24197 0.13773 0.06316 0.0
C2292 C 0.20276 0.95482 0.90202 0.0
C2293 C 0.2221 0.95957 0.91336 0.0
C2294 C 0.1786 0.93106 0.90197 0.0
C2295 C 0.17355 0.91187 0.91373 0.0
C2296 C 0.19287 0.91679 0.92537 0.0
C2297 C 0.21702 0.9405 0.92496 0.0
C2298 C 0.15865 0.92632 0.88921 0.0
C2299 C 0.18806 0.89696 0.93823 0.0
C2300 C 0.10265 0.85892 0.92178 0.0
C2301 C 0.10129 0.83719 0.91394 0.0
C2302 C 0.12606 0.88342 0.92181 0.0
C2303 C 0.14842 0.88626 0.91358 0.0
C2304 C 0.14696 0.86447 0.90542 0.0
C2305 C 0.12347 0.84014 0.90581 0.0
C2306 C 0.12702 0.90613 0.93083 0.0
C2307 C 0.17026 0.86683 0.89633 0.0
H2308 H 0.20668 0.96952 0.89301 0.0
H2309 H 0.23187 0.9442 0.93382 0.0
H2310 H 0.15454 0.90863 0.88222 0.0
H2311 H 0.13976 0.92235 0.89463 0.0
H2312 H 0.16551 0.94335 0.88102 0.0
H2313 H 0.20464 0.90429 0.9468 0.0
H2314 H 0.16975 0.89206 0.94479 0.0
H2315 H 0.18521 0.87842 0.93289 0.0
H2316 H 0.08554 0.85666 0.92812 0.0
H2317 H 0.12244 0.82342 0.89965 0.0
H2318 H 0.13242 0.92299 0.92274 0.0
H2319 H 0.14246 0.91296 0.94011 0.0
H2320 H 0.10788 0.90071 0.93654 0.0
H2321 H 0.17695 0.88285 0.88743 0.0
H2322 H 0.16557 0.84826 0.89014 0.0
H2323 H 0.18698 0.87211 0.90452 0.0
C2324 C 0.21382 0.31249 0.90805 0.0
C2325 C 0.21398 0.28916 0.91144 0.0
C2326 C 0.19019 0.31312 0.90806 0.0
C2327 C 0.16622 0.28991 0.91167 0.0
C2328 C 0.16626 0.26628 0.91509 0.0
C2329 C 0.19017 0.26617 0.91487 0.0
C2330 C 0.19089 0.33864 0.90423 0.0
C2331 C 0.14111 0.2412 0.9191 0.0
C2332 C 0.10984 0.29891 0.92608 0.0
C2333 C 0.09471 0.29374 0.91229 0.0
C2334 C 0.13292 0.29726 0.92612 0.0
C2335 C 0.14114 0.29048 0.91199 0.0
C2336 C 0.12574 0.28489 0.89808 0.0
C2337 C 0.10263 0.2865 0.89842 0.0
C2338 C 0.14872 0.30316 0.94121 0.0
C2339 C 0.13396 0.27772 0.88278 0.0
H2340 H 0.23218 0.33029 0.90534 0.0
H2341 H 0.19022 0.24809 0.91754 0.0
H2342 H 0.17788 0.33579 0.89398 0.0
H2343 H 0.18329 0.34482 0.91442 0.0
H2344 H 0.2111 0.35482 0.9014 0.0
H2345 H 0.14451 0.22448 0.92144 0.0
H2346 H 0.13187 0.24433 0.92973 0.0
H2347 H 0.1268 0.2357 0.90923 0.0
H2348 H 0.10374 0.30445 0.93685 0.0
H2349 H 0.09101 0.28253 0.88772 0.0
H2350 H 0.1686 0.32057 0.93945 0.0
H2351 H 0.1515 0.28631 0.94434 0.0
H2352 H 0.13911 0.30717 0.95133 0.0
H2353 H 0.15337 0.29418 0.87895 0.0
H2354 H 0.11947 0.27334 0.87312 0.0
H2355 H 0.1363 0.26024 0.88457 0.0
C2356 C 0.79237 0.8659 0.90909 0.0
C2357 C 0.77431 0.84437 0.91816 0.0
C2358 C 0.79231 0.8898 0.90932 0.0
C2359 C 0.77418 0.89239 0.91917 0.0
C2360 C 0.75632 0.87089 0.92866 0.0
C2361 C 0.75637 0.84697 0.92789 0.0
C2362 C 0.81125 0.91207 0.89875 0.0
C2363 C 0.7371 0.87312 0.93957 0.0
C2364 C 0.79008 0.96235 0.92826 0.0
C2365 C 0.77318 0.96532 0.91781 0.0
C2366 C 0.79012 0.93843 0.92916 0.0
C2367 C 0.77333 0.91732 0.91908 0.0
C2368 C 0.75624 0.92027 0.9085 0.0
C2369 C 0.75615 0.94415 0.90814 0.0
C2370 C 0.80819 0.93579 0.94083 0.0
C2371 C 0.73844 0.89842 0.89733 0.0
H2372 H 0.80618 0.86386 0.90149 0.0
H2373 H 0.74252 0.83038 0.935 0.0
H2374 H 0.80008 0.91744 0.89039 0.0
H2375 H 0.82392 0.9298 0.90596 0.0
H2376 H 0.82412 0.90686 0.89181 0.0
H2377 H 0.72559 0.85509 0.94684 0.0
H2378 H 0.74781 0.89023 0.94761 0.0
H2379 H 0.72314 0.87661 0.93255 0.0
H2380 H 0.80314 0.97866 0.93582 0.0
H2381 H 0.74316 0.94646 0.89998 0.0
H2382 H 0.82285 0.93256 0.93439 0.0
H2383 H 0.79668 0.91837 0.94853 0.0
H2384 H 0.81892 0.95352 0.94843 0.0
H2385 H 0.75047 0.89337 0.88948 0.0
H2386 H 0.72633 0.9039 0.88984 0.0
H2387 H 0.72504 0.88041 0.90412 0.0
C2388 C 0.5199 0.43802 0.41093 0.0
C2389 C 0.50045 0.43307 0.42224 0.0
C2390 C 0.54415 0.46163 0.41113 0.0
C2391 C 0.54919 0.48046 0.42312 0.0
C2392 C 0.52982 0.47529 0.43478 0.0
C2393 C 0.50553 0.45173 0.4341 0.0
C2394 C 0.56417 0.46664 0.39835 0.0
C2395 C 0.53471 0.4947 0.44791 0.0
C2396 C 0.62069 0.53127 0.43121 0.0
C2397 C 0.62299 0.55356 0.42356 0.0
C2398 C 0.59667 0.50741 0.43133 0.0
C2399 C 0.57464 0.50572 0.42333 0.0
C2400 C 0.57696 0.52811 0.41545 0.0
C2401 C 0.60108 0.55188 0.4158 0.0
C2402 C 0.59481 0.48407 0.44009 0.0
C2403 C 0.55402 0.52691 0.40655 0.0
H2404 H 0.51594 0.42368 0.40167 0.0
H2405 H 0.49053 0.44787 0.44289 0.0
H2406 H 0.5687 0.48475 0.39169 0.0
H2407 H 0.58286 0.46998 0.40373 0.0
H2408 H 0.55715 0.44999 0.38985 0.0
H2409 H 0.51801 0.48723 0.45641 0.0
H2410 H 0.55285 0.4991 0.45449 0.0
H2411 H 0.53791 0.51354 0.44285 0.0
H2412 H 0.63758 0.53258 0.43731 0.0
H2413 H 0.60287 0.56908 0.40982 0.0
H2414 H 0.58941 0.4675 0.43176 0.0
H2415 H 0.57904 0.47712 0.44917 0.0
H2416 H 0.61362 0.48883 0.44602 0.0
H2417 H 0.5471 0.51139 0.39731 0.0
H2418 H 0.55922 0.54595 0.40079 0.0
H2419 H 0.53728 0.52152 0.41475 0.0
C2420 C 0.60609 0.09694 0.40912 0.0
C2421 C 0.62618 0.1103 0.42027 0.0
C2422 C 0.58302 0.09856 0.40951 0.0
C2423 C 0.57988 0.11375 0.42142 0.0
C2424 C 0.60029 0.12768 0.43257 0.0
C2425 C 0.62329 0.12586 0.43182 0.0
C2426 C 0.56179 0.08358 0.39734 0.0
C2427 C 0.59755 0.14395 0.44549 0.0
C2428 C 0.52685 0.1319 0.41438 0.0
C2429 C 0.5055 0.11188 0.42269 0.0
C2430 C 0.55144 0.13317 0.41416 0.0
C2431 C 0.55471 0.11407 0.42254 0.0
C2432 C 0.53341 0.0943 0.43133 0.0
C2433 C 0.50903 0.09338 0.43125 0.0
C2434 C 0.57366 0.15445 0.40458 0.0
C2435 C 0.53618 0.07369 0.44051 0.0
H2436 H 0.60828 0.08498 0.40012 0.0
H2437 H 0.63878 0.1362 0.44048 0.0
H2438 H 0.54362 0.06839 0.4033 0.0
H2439 H 0.55674 0.09713 0.3911 0.0
H2440 H 0.56783 0.07369 0.38841 0.0
H2441 H 0.61567 0.15448 0.45281 0.0
H2442 H 0.59307 0.15865 0.44028 0.0
H2443 H 0.58082 0.13102 0.45334 0.0
H2444 H 0.5242 0.14624 0.40774 0.0
H2445 H 0.49261 0.07795 0.43776 0.0
H2446 H 0.57898 0.14537 0.39478 0.0
H2447 H 0.59145 0.16544 0.41207 0.0
H2448 H 0.56836 0.16865 0.39945 0.0
H2449 H 0.54006 0.06132 0.43223 0.0
H2450 H 0.51823 0.06063 0.4475 0.0
H2451 H 0.55323 0.08327 0.44871 0.0
C2452 C 0.93327 0.42931 0.40791 0.0
C2453 C 0.95147 0.42755 0.41788 0.0
C2454 C 0.93152 0.45235 0.40739 0.0
C2455 C 0.94812 0.47393 0.41723 0.0
C2456 C 0.96624 0.47206 0.42749 0.0
C2457 C 0.9678 0.44895 0.42761 0.0
C2458 C 0.91219 0.45375 0.39618 0.0
C2459 C 0.98407 0.49453 0.43829 0.0
C2460 C 0.96449 0.54356 0.40699 0.0
C2461 C 0.94791 0.5473 0.41733 0.0
C2462 C 0.96413 0.51945 0.40647 0.0
C2463 C 0.947 0.49872 0.41667 0.0
C2464 C 0.92981 0.5022 0.42688 0.0
C2465 C 0.93037 0.52643 0.42702 0.0
C2466 C 0.98253 0.51638 0.39528 0.0
C2467 C 0.91145 0.48063 0.43803 0.0
H2468 H 0.92066 0.41281 0.40034 0.0
H2469 H 0.98182 0.44762 0.43539 0.0
H2470 H 0.89842 0.45801 0.40285 0.0
H2471 H 0.92291 0.47013 0.38765 0.0
H2472 H 0.9005 0.43516 0.38943 0.0
H2473 H 0.99647 0.48961 0.44591 0.0
H2474 H 0.99722 0.5122 0.43115 0.0
H2475 H 0.97213 0.49988 0.44601 0.0
H2476 H 0.97799 0.5596 0.39941 0.0
H2477 H 0.91755 0.52927 0.43505 0.0
H2478 H 0.97133 0.49855 0.38784 0.0
H2479 H 0.99715 0.51368 0.40215 0.0
H2480 H 0.99332 0.53374 0.38739 0.0
H2481 H 0.89891 0.4622 0.43135 0.0
H2482 H 0.89848 0.48603 0.44469 0.0
H2483 H 0.92312 0.47636 0.44665 0.0
C2484 C 0.78401 0.16292 0.23391 0.0
C2485 C 0.76414 0.15858 0.24477 0.0
C2486 C 0.80715 0.1875 0.23289 0.0
C2487 C 0.81069 0.20806 0.24322 0.0
C2488 C 0.7906 0.20383 0.25415 0.0
C2489 C 0.76742 0.17917 0.25469 0.0
C2490 C 0.82791 0.1914 0.22088 0.0
C2491 C 0.79387 0.22514 0.26553 0.0
C2492 C 0.88118 0.26108 0.25178 0.0
C2493 C 0.88374 0.28201 0.24244 0.0
C2494 C 0.85739 0.23701 0.25227 0.0
C2495 C 0.83584 0.23365 0.24295 0.0
C2496 C 0.83842 0.25462 0.23334 0.0
C2497 C 0.8623 0.27868 0.23332 0.0
C2498 C 0.85528 0.21526 0.26286 0.0
C2499 C 0.81601 0.25159 0.22303 0.0
H2500 H 0.78143 0.14707 0.22613 0.0
H2501 H 0.7521 0.17583 0.26313 0.0
H2502 H 0.83278 0.20876 0.21333 0.0
H2503 H 0.84627 0.19542 0.22704 0.0
H2504 H 0.82147 0.17391 0.21314 0.0
H2505 H 0.77622 0.21884 0.27312 0.0
H2506 H 0.81118 0.23071 0.27327 0.0
H2507 H 0.79771 0.24307 0.25891 0.0
H2508 H 0.89766 0.26365 0.25894 0.0
H2509 H 0.86428 0.29483 0.22606 0.0
H2510 H 0.85083 0.19768 0.25566 0.0
H2511 H 0.83878 0.20925 0.27134 0.0
H2512 H 0.87367 0.22128 0.26965 0.0
H2513 H 0.81004 0.23486 0.21473 0.0
H2514 H 0.82135 0.26964 0.21604 0.0
H2515 H 0.7986 0.24696 0.23045 0.0
C2516 C 0.87707 0.63292 0.25761 0.0
C2517 C 0.87869 0.61201 0.25074 0.0
C2518 C 0.85292 0.63245 0.25852 0.0
C2519 C 0.82997 0.61076 0.25213 0.0
C2520 C 0.83146 0.58945 0.24533 0.0
C2521 C 0.85579 0.59023 0.24484 0.0
C2522 C 0.85204 0.65535 0.26608 0.0
C2523 C 0.8075 0.56619 0.23817 0.0
C2524 C 0.76272 0.60034 0.26389 0.0
C2525 C 0.75739 0.61259 0.25132 0.0
C2526 C 0.78634 0.59963 0.26436 0.0
C2527 C 0.80473 0.61103 0.25183 0.0
C2528 C 0.79918 0.62303 0.23899 0.0
C2529 C 0.77568 0.62387 0.23897 0.0
C2530 C 0.79179 0.58704 0.27835 0.0
C2531 C 0.81809 0.63505 0.22528 0.0
H2532 H 0.89472 0.6497 0.26229 0.0
H2533 H 0.857 0.57406 0.23948 0.0
H2534 H 0.84665 0.66563 0.25709 0.0
H2535 H 0.83668 0.64814 0.27543 0.0
H2536 H 0.87124 0.66984 0.27142 0.0
H2537 H 0.81179 0.55083 0.23379 0.0
H2538 H 0.7914 0.55715 0.24702 0.0
H2539 H 0.80014 0.57291 0.22812 0.0
H2540 H 0.74865 0.59172 0.27348 0.0
H2541 H 0.77154 0.63323 0.22918 0.0
H2542 H 0.8102 0.60173 0.28434 0.0
H2543 H 0.79485 0.57076 0.27429 0.0
H2544 H 0.77548 0.57907 0.28713 0.0
H2545 H 0.83721 0.65139 0.22958 0.0
H2546 H 0.81042 0.64285 0.21598 0.0
H2547 H 0.82203 0.62011 0.21986 0.0
C2548 C 0.43097 0.27791 0.23056 0.0
C2549 C 0.43774 0.29361 0.24419 0.0
C2550 C 0.43298 0.25505 0.2302 0.0
C2551 C 0.44167 0.2476 0.24386 0.0
C2552 C 0.44903 0.26368 0.25756 0.0
C2553 C 0.44712 0.2866 0.25752 0.0
C2554 C 0.42527 0.23857 0.21531 0.0
C2555 C 0.45818 0.25624 0.2724 0.0
C2556 C 0.41965 0.17512 0.2487 0.0
C2557 C 0.44249 0.17457 0.24444 0.0
C2558 C 0.41918 0.19881 0.24865 0.0
C2559 C 0.44203 0.22244 0.24404 0.0
C2560 C 0.4651 0.22197 0.23963 0.0
C2561 C 0.46511 0.19803 0.23997 0.0
C2562 C 0.39429 0.19859 0.25359 0.0
C2563 C 0.48972 0.24673 0.23448 0.0
H2564 H 0.4238 0.28334 0.22021 0.0
H2565 H 0.45229 0.29866 0.26811 0.0
H2566 H 0.44153 0.23529 0.21149 0.0
H2567 H 0.40785 0.21894 0.2177 0.0
H2568 H 0.4204 0.2479 0.20542 0.0
H2569 H 0.46406 0.27134 0.28185 0.0
H2570 H 0.44213 0.23719 0.27701 0.0
H2571 H 0.47518 0.25349 0.26969 0.0
H2572 H 0.40216 0.15703 0.25222 0.0
H2573 H 0.48278 0.19766 0.23663 0.0
H2574 H 0.38705 0.20581 0.24374 0.0
H2575 H 0.39847 0.21214 0.26375 0.0
H2576 H 0.37835 0.17861 0.25705 0.0
H2577 H 0.48529 0.25553 0.22413 0.0
H2578 H 0.50592 0.24296 0.23125 0.0
H2579 H 0.49669 0.26154 0.24414 0.0
C2580 C 0.29149 0.86183 0.76469 0.0
C2581 C 0.2957 0.8802 0.75278 0.0
C2582 C 0.26807 0.83735 0.76518 0.0
C2583 C 0.24863 0.83108 0.75338 0.0
C2584 C 0.25319 0.84927 0.74107 0.0
C2585 C 0.27661 0.87366 0.74097 0.0
C2586 C 0.2638 0.81852 0.77855 0.0
C2587 C 0.23305 0.84321 0.72819 0.0
C2588 C 0.1947 0.76008 0.74693 0.0
C2589 C 0.17322 0.75972 0.7545 0.0
C2590 C 0.21953 0.78308 0.74666 0.0
C2591 C 0.22294 0.8061 0.75428 0.0
C2592 C 0.20144 0.80563 0.76224 0.0
C2593 C 0.17679 0.78248 0.76218 0.0
C2594 C 0.24194 0.78293 0.73792 0.0
C2595 C 0.20435 0.82972 0.77063 0.0
H2596 H 0.3062 0.86685 0.77386 0.0
H2597 H 0.27986 0.88775 0.73169 0.0
H2598 H 0.24675 0.81554 0.78582 0.0
H2599 H 0.25901 0.79899 0.77376 0.0
H2600 H 0.28134 0.82581 0.78635 0.0
H2601 H 0.24028 0.85881 0.71897 0.0
H2602 H 0.22777 0.82417 0.72243 0.0
H2603 H 0.21474 0.84117 0.73342 0.0
H2604 H 0.19199 0.74251 0.74097 0.0
H2605 H 0.16027 0.78224 0.76812 0.0
H2606 H 0.2591 0.78929 0.74592 0.0
H2607 H 0.24844 0.7972 0.72797 0.0
H2608 H 0.23631 0.76316 0.73309 0.0
H2609 H 0.22069 0.83702 0.77934 0.0
H2610 H 0.18605 0.82571 0.77692 0.0
H2611 H 0.20944 0.84577 0.76194 0.0
C2612 C 0.2824 0.45195 0.7578 0.0
C2613 C 0.28433 0.43123 0.75087 0.0
C2614 C 0.25845 0.45194 0.75785 0.0
C2615 C 0.23597 0.43081 0.75068 0.0
C2616 C 0.23785 0.40992 0.74356 0.0
C2617 C 0.26201 0.41034 0.7438 0.0
C2618 C 0.25716 0.47446 0.76565 0.0
C2619 C 0.21433 0.38714 0.73571 0.0
C2620 C 0.16813 0.4177 0.76304 0.0
C2621 C 0.16181 0.42952 0.75066 0.0
C2622 C 0.19229 0.41812 0.76324 0.0
C2623 C 0.21044 0.43048 0.75071 0.0
C2624 C 0.20418 0.4425 0.7382 0.0
C2625 C 0.17995 0.44196 0.73836 0.0
C2626 C 0.19837 0.40527 0.77684 0.0
C2627 C 0.22298 0.45574 0.72459 0.0
H2628 H 0.2996 0.46812 0.76332 0.0
H2629 H 0.26344 0.39431 0.73839 0.0
H2630 H 0.25082 0.48433 0.75692 0.0
H2631 H 0.24227 0.46683 0.77528 0.0
H2632 H 0.27642 0.48938 0.77072 0.0
H2633 H 0.21917 0.37265 0.73052 0.0
H2634 H 0.19822 0.37683 0.74446 0.0
H2635 H 0.20669 0.39455 0.72618 0.0
H2636 H 0.15417 0.40809 0.77258 0.0
H2637 H 0.17511 0.45105 0.72874 0.0
H2638 H 0.21686 0.41989 0.78278 0.0
H2639 H 0.20152 0.38928 0.77233 0.0
H2640 H 0.1823 0.39682 0.78578 0.0
H2641 H 0.24208 0.47181 0.7291 0.0
H2642 H 0.21513 0.46415 0.71578 0.0
H2643 H 0.22701 0.44135 0.7185 0.0
C2644 C 0.59523 0.76725 0.76196 0.0
C2645 C 0.6162 0.765 0.75574 0.0
C2646 C 0.5956 0.79139 0.76158 0.0
C2647 C 0.61729 0.81364 0.75459 0.0
C2648 C 0.63821 0.81129 0.74795 0.0
C2649 C 0.63751 0.78703 0.74872 0.0
C2650 C 0.5731 0.79323 0.76896 0.0
C2651 C 0.6615 0.83448 0.7402 0.0
C2652 C 0.60923 0.87169 0.7424 0.0
C2653 C 0.62226 0.88952 0.75475 0.0
C2654 C 0.60746 0.84688 0.74217 0.0
C2655 C 0.6186 0.83965 0.75472 0.0
C2656 C 0.63141 0.85746 0.76734 0.0
C2657 C 0.63328 0.88227 0.76713 0.0
C2658 C 0.59402 0.82857 0.7284 0.0
C2659 C 0.64319 0.85032 0.78105 0.0
H2660 H 0.57875 0.75026 0.76744 0.0
H2661 H 0.65369 0.78532 0.74381 0.0
H2662 H 0.5806 0.80765 0.77884 0.0
H2663 H 0.56421 0.8005 0.76013 0.0
H2664 H 0.55744 0.77397 0.77361 0.0
H2665 H 0.67546 0.82902 0.73488 0.0
H2666 H 0.65461 0.84284 0.7308 0.0
H2667 H 0.67229 0.85025 0.74907 0.0
H2668 H 0.60079 0.87729 0.73278 0.0
H2669 H 0.64324 0.89596 0.77675 0.0
H2670 H 0.57739 0.80965 0.73271 0.0
H2671 H 0.60808 0.82399 0.72236 0.0
H2672 H 0.58633 0.83714 0.71959 0.0
H2673 H 0.6279 0.83184 0.7867 0.0
H2674 H 0.6517 0.86605 0.79019 0.0
H2675 H 0.65896 0.84667 0.77672 0.0
C2676 C 0.52105 0.62859 0.57889 0.0
C2677 C 0.54486 0.6292 0.58201 0.0
C2678 C 0.49708 0.60461 0.57854 0.0
C2679 C 0.49697 0.58077 0.58151 0.0
C2680 C 0.52092 0.58134 0.58489 0.0
C2681 C 0.54459 0.60554 0.58503 0.0
C2682 C 0.47194 0.60473 0.57481 0.0
C2683 C 0.5216 0.55635 0.58822 0.0
C2684 C 0.43401 0.51916 0.59402 0.0
C2685 C 0.42665 0.50451 0.57994 0.0
C2686 C 0.45654 0.54431 0.59462 0.0
C2687 C 0.47193 0.55508 0.5808 0.0
C2688 C 0.46411 0.5407 0.56644 0.0
C2689 C 0.44161 0.51553 0.5662 0.0
C2690 C 0.46434 0.559 0.61017 0.0
C2691 C 0.47989 0.5516 0.55142 0.0
H2692 H 0.52118 0.64683 0.57652 0.0
H2693 H 0.56293 0.60591 0.5875 0.0
H2694 H 0.46288 0.59312 0.56391 0.0
H2695 H 0.4575 0.59521 0.58455 0.0
H2696 H 0.47532 0.62499 0.57305 0.0
H2697 H 0.54176 0.56027 0.59106 0.0
H2698 H 0.5084 0.54565 0.5983 0.0
H2699 H 0.51422 0.54312 0.57777 0.0
H2700 H 0.42252 0.5107 0.60467 0.0
H2701 H 0.43594 0.50431 0.55527 0.0
H2702 H 0.46684 0.57894 0.60869 0.0
H2703 H 0.48359 0.56164 0.6141 0.0
H2704 H 0.44955 0.54849 0.61963 0.0
H2705 H 0.48266 0.5714 0.54885 0.0
H2706 H 0.47028 0.53864 0.54104 0.0
H2707 H 0.49977 0.55395 0.55294 0.0
C2708 C 0.43097 0.94577 0.5689 0.0
C2709 C 0.42446 0.95545 0.5823 0.0
C2710 C 0.45491 0.9458 0.56807 0.0
C2711 C 0.47245 0.95525 0.58109 0.0
C2712 C 0.46555 0.96422 0.59487 0.0
C2713 C 0.44172 0.96448 0.59524 0.0
C2714 C 0.46178 0.93649 0.55308 0.0
C2715 C 0.48351 0.97394 0.60912 0.0
C2716 C 0.52535 0.93606 0.58398 0.0
C2717 C 0.54782 0.95932 0.57911 0.0
C2718 C 0.50066 0.93445 0.58472 0.0
C2719 C 0.49836 0.95645 0.58015 0.0
C2720 C 0.5209 0.97978 0.57486 0.0
C2721 C 0.54546 0.98103 0.57457 0.0
C2722 C 0.47717 0.90943 0.59071 0.0
C2723 C 0.51911 0.00346 0.56957 0.0
H2724 H 0.41773 0.93895 0.55882 0.0
H2725 H 0.43667 0.97189 0.60564 0.0
H2726 H 0.47995 0.95289 0.54781 0.0
H2727 H 0.46592 0.92039 0.5558 0.0
H2728 H 0.44575 0.92927 0.54414 0.0
H2729 H 0.47453 0.97876 0.61923 0.0
H2730 H 0.48839 0.95878 0.613 0.0
H2731 H 0.50231 0.99184 0.60594 0.0
H2732 H 0.52719 0.9193 0.58761 0.0
H2733 H 0.56281 0.999 0.57075 0.0
H2734 H 0.46139 0.90133 0.58163 0.0
H2735 H 0.46896 0.91378 0.60139 0.0
H2736 H 0.48229 0.89409 0.59378 0.0
H2737 H 0.50418 0.99771 0.56004 0.0
H2738 H 0.53825 0.01964 0.56513 0.0
H2739 H 0.51257 0.01106 0.57959 0.0
C2740 C 0.11831 0.62104 0.58831 0.0
C2741 C 0.09899 0.62391 0.58026 0.0
C2742 C 0.11793 0.59692 0.58825 0.0
C2743 C 0.09814 0.57543 0.57958 0.0
C2744 C 0.07859 0.57826 0.57142 0.0
C2745 C 0.07906 0.60243 0.57202 0.0
C2746 C 0.13875 0.59447 0.59739 0.0
C2747 C 0.05754 0.55596 0.56177 0.0
C2748 C 0.1149 0.52351 0.56675 0.0
C2749 C 0.10048 0.50327 0.57763 0.0
C2750 C 0.11378 0.54685 0.56702 0.0
C2751 C 0.09842 0.55025 0.57871 0.0
C2752 C 0.08385 0.52987 0.58976 0.0
C2753 C 0.08479 0.50643 0.58895 0.0
C2754 C 0.12911 0.56791 0.55482 0.0
C2755 C 0.06773 0.53304 0.60262 0.0
H2756 H 0.13361 0.63761 0.59479 0.0
H2757 H 0.06419 0.6047 0.56573 0.0
H2758 H 0.1293 0.57761 0.60574 0.0
H2759 H 0.15104 0.59043 0.58914 0.0
H2760 H 0.15186 0.61259 0.60422 0.0
H2761 H 0.04371 0.56134 0.55618 0.0
H2762 H 0.06685 0.5502 0.55233 0.0
H2763 H 0.04606 0.53841 0.56937 0.0
H2764 H 0.12688 0.52098 0.55791 0.0
H2765 H 0.07376 0.49081 0.59743 0.0
H2766 H 0.14433 0.58608 0.56075 0.0
H2767 H 0.11575 0.57305 0.54842 0.0
H2768 H 0.139 0.56162 0.54604 0.0
H2769 H 0.08069 0.55023 0.61015 0.0
H2770 H 0.05752 0.51529 0.61027 0.0
H2771 H 0.05274 0.537 0.5973 0.0
loop_
_geom_bond_atom_site_label_1
_geom_bond_atom_site_label_2
_geom_bond_distance
_geom_bond_site_symmetry_2
_ccdc_geom_bond_type
In0 O1 2.294 . S
In0 O2 2.326 . S
In0 O6 2.266 . S
In0 O7 2.326 . S
In0 O8 2.266 1_455 S
In0 O9 2.326 1_455 S
In0 O11 2.294 . S
In0 O12 2.326 . S
O1 In0 2.294 . S
O1 C10 1.240 . S
O2 In0 2.326 . S
O2 C10 1.252 . S
C3 O6 1.252 . S
C3 O7 1.260 . S
C4 O11 1.240 . S
C4 O12 1.252 . S
C5 O8 1.252 . S
C5 O9 1.260 . S
O6 In0 2.266 . S
O6 C3 1.252 . S
O7 In0 2.326 . S
O7 C3 1.260 . S
O8 In0 2.266 1_655 S
O8 C5 1.252 . S
O9 In0 2.326 1_655 S
O9 C5 1.260 . S
C10 O1 1.240 . S
C10 O2 1.252 . S
O11 In0 2.294 . S
O11 C4 1.240 . S
O12 In0 2.326 . S
O12 C4 1.252 . S
In13 O14 2.294 . S
In13 O15 2.326 . S
In13 O19 2.266 . S
In13 O20 2.326 . S
In13 O21 2.266 . S
In13 O22 2.326 . S
In13 O24 2.294 . S
In13 O25 2.326 . S
O14 In13 2.294 . S
O14 C23 1.240 . S
O15 In13 2.326 . S
O15 C23 1.252 . S
C16 O19 1.252 . S
C16 O20 1.260 . S
C17 O24 1.240 . S
C17 O25 1.252 . S
C18 O21 1.252 . S
C18 O22 1.260 . S
O19 In13 2.266 . S
O19 C16 1.252 . S
O20 In13 2.326 . S
O20 C16 1.260 . S
O21 In13 2.266 . S
O21 C18 1.252 . S
O22 In13 2.326 . S
O22 C18 1.260 . S
C23 O14 1.240 . S
C23 O15 1.252 . S
O24 In13 2.294 . S
O24 C17 1.240 . S
O25 In13 2.326 . S
O25 C17 1.252 . S
In26 O27 2.294 . S
In26 O28 2.326 . S
In26 O32 2.266 . S
In26 O33 2.326 . S
In26 O34 2.266 . S
In26 O35 2.326 . S
In26 O37 2.294 . S
In26 O38 2.326 1_545 S
O27 In26 2.294 . S
O27 C36 1.240 . S
O28 In26 2.326 . S
O28 C36 1.252 . S
C29 O32 1.252 . S
C29 O33 1.260 . S
C30 O37 1.240 1_565 S
C30 O38 1.252 . S
C31 O34 1.252 . S
C31 O35 1.260 . S
O32 In26 2.266 . S
O32 C29 1.252 . S
O33 In26 2.326 . S
O33 C29 1.260 . S
O34 In26 2.266 . S
O34 C31 1.252 . S
O35 In26 2.326 . S
O35 C31 1.260 . S
C36 O27 1.240 . S
C36 O28 1.252 . S
O37 In26 2.294 . S
O37 C30 1.240 1_545 S
O38 In26 2.326 1_565 S
O38 C30 1.252 . S
In39 O40 2.294 . S
In39 O41 2.326 . S
In39 O45 2.266 1_545 S
In39 O46 2.326 1_545 S
In39 O47 2.266 . S
In39 O48 2.326 . S
In39 O50 2.294 . S
In39 O51 2.326 . S
O40 In39 2.294 . S
O40 C49 1.240 . S
O41 In39 2.326 . S
O41 C49 1.252 . S
C42 O45 1.252 . S
C42 O46 1.260 . S
C43 O50 1.240 . S
C43 O51 1.252 . S
C44 O47 1.252 . S
C44 O48 1.260 . S
O45 In39 2.266 1_565 S
O45 C42 1.252 . S
O46 In39 2.326 1_565 S
O46 C42 1.260 . S
O47 In39 2.266 . S
O47 C44 1.252 . S
O48 In39 2.326 . S
O48 C44 1.260 . S
C49 O40 1.240 . S
C49 O41 1.252 . S
O50 In39 2.294 . S
O50 C43 1.240 . S
O51 In39 2.326 . S
O51 C43 1.252 . S
In52 O53 2.294 . S
In52 O54 2.326 . S
In52 O58 2.266 . S
In52 O59 2.326 . S
In52 O60 2.266 . S
In52 O61 2.326 . S
In52 O63 2.294 . S
In52 O64 2.326 1_455 S
O53 In52 2.294 . S
O53 C62 1.240 . S
O54 In52 2.326 . S
O54 C62 1.252 . S
C55 O58 1.252 . S
C55 O59 1.260 . S
C56 O63 1.240 1_655 S
C56 O64 1.252 . S
C57 O60 1.252 . S
C57 O61 1.260 . S
O58 In52 2.266 . S
O58 C55 1.252 . S
O59 In52 2.326 . S
O59 C55 1.260 . S
O60 In52 2.266 . S
O60 C57 1.252 . S
O61 In52 2.326 . S
O61 C57 1.260 . S
C62 O53 1.240 . S
C62 O54 1.252 . S
O63 In52 2.294 . S
O63 C56 1.240 1_455 S
O64 In52 2.326 1_655 S
O64 C56 1.252 . S
In65 O66 2.294 . S
In65 O67 2.326 . S
In65 O71 2.266 . S
In65 O72 2.326 . S
In65 O73 2.266 . S
In65 O74 2.326 . S
In65 O76 2.294 . S
In65 O77 2.326 . S
O66 In65 2.294 . S
O66 C75 1.240 . S
O67 In65 2.326 . S
O67 C75 1.252 . S
C68 O71 1.252 . S
C68 O72 1.260 . S
C69 O76 1.240 . S
C69 O77 1.252 . S
C70 O73 1.252 . S
C70 O74 1.260 . S
O71 In65 2.266 . S
O71 C68 1.252 . S
O72 In65 2.326 . S
O72 C68 1.260 . S
O73 In65 2.266 . S
O73 C70 1.252 . S
O74 In65 2.326 . S
O74 C70 1.260 . S
C75 O66 1.240 . S
C75 O67 1.252 . S
O76 In65 2.294 . S
O76 C69 1.240 . S
O77 In65 2.326 . S
O77 C69 1.252 . S
In78 O79 2.294 . S
In78 O80 2.326 1_455 S
In78 O84 2.266 . S
In78 O85 2.326 . S
In78 O86 2.266 . S
In78 O87 2.326 . S
In78 O89 2.294 . S
In78 O90 2.326 . S
O79 In78 2.294 . S
O79 C88 1.240 1_455 S
O80 In78 2.326 1_655 S
O80 C88 1.252 . S
C81 O84 1.252 . S
C81 O85 1.260 . S
C82 O89 1.240 . S
C82 O90 1.252 . S
C83 O86 1.252 . S
C83 O87 1.260 . S
O84 In78 2.266 . S
O84 C81 1.252 . S
O85 In78 2.326 . S
O85 C81 1.260 . S
O86 In78 2.266 . S
O86 C83 1.252 . S
O87 In78 2.326 . S
O87 C83 1.260 . S
C88 O79 1.240 1_655 S
C88 O80 1.252 . S
O89 In78 2.294 . S
O89 C82 1.240 . S
O90 In78 2.326 . S
O90 C82 1.252 . S
In91 O92 2.294 . S
In91 O93 2.326 . S
In91 O97 2.266 . S
In91 O98 2.326 . S
In91 O99 2.266 . S
In91 O100 2.326 . S
In91 O102 2.294 . S
In91 O103 2.326 . S
O92 In91 2.294 . S
O92 C101 1.240 . S
O93 In91 2.326 . S
O93 C101 1.252 . S
C94 O97 1.252 . S
C94 O98 1.260 . S
C95 O102 1.240 . S
C95 O103 1.252 . S
C96 O99 1.252 . S
C96 O100 1.260 . S
O97 In91 2.266 . S
O97 C94 1.252 . S
O98 In91 2.326 . S
O98 C94 1.260 . S
O99 In91 2.266 . S
O99 C96 1.252 . S
O100 In91 2.326 . S
O100 C96 1.260 . S
C101 O92 1.240 . S
C101 O93 1.252 . S
O102 In91 2.294 . S
O102 C95 1.240 . S
O103 In91 2.326 . S
O103 C95 1.252 . S
In104 O105 2.294 . S
In104 O106 2.326 . S
In104 O110 2.266 . S
In104 O111 2.326 . S
In104 O112 2.266 1_545 S
In104 O113 2.326 1_545 S
In104 O115 2.294 . S
In104 O116 2.326 . S
O105 In104 2.294 . S
O105 C114 1.240 . S
O106 In104 2.326 . S
O106 C114 1.252 . S
C107 O110 1.252 . S
C107 O111 1.260 . S
C108 O115 1.240 . S
C108 O116 1.252 . S
C109 O112 1.252 . S
C109 O113 1.260 . S
O110 In104 2.266 . S
O110 C107 1.252 . S
O111 In104 2.326 . S
O111 C107 1.260 . S
O112 In104 2.266 1_565 S
O112 C109 1.252 . S
O113 In104 2.326 1_565 S
O113 C109 1.260 . S
C114 O105 1.240 . S
C114 O106 1.252 . S
O115 In104 2.294 . S
O115 C108 1.240 . S
O116 In104 2.326 . S
O116 C108 1.252 . S
In117 O118 2.294 . S
In117 O119 2.326 1_545 S
In117 O123 2.266 . S
In117 O124 2.326 . S
In117 O125 2.266 . S
In117 O126 2.326 . S
In117 O128 2.294 . S
In117 O129 2.326 . S
O118 In117 2.294 . S
O118 C127 1.240 1_545 S
O119 In117 2.326 1_565 S
O119 C127 1.252 . S
C120 O123 1.252 . S
C120 O124 1.260 . S
C121 O128 1.240 . S
C121 O129 1.252 . S
C122 O125 1.252 . S
C122 O126 1.260 . S
O123 In117 2.266 . S
O123 C120 1.252 . S
O124 In117 2.326 . S
O124 C120 1.260 . S
O125 In117 2.266 . S
O125 C122 1.252 . S
O126 In117 2.326 . S
O126 C122 1.260 . S
C127 O118 1.240 1_565 S
C127 O119 1.252 . S
O128 In117 2.294 . S
O128 C121 1.240 . S
O129 In117 2.326 . S
O129 C121 1.252 . S
In130 O131 2.294 . S
In130 O132 2.326 . S
In130 O136 2.266 . S
In130 O137 2.326 . S
In130 O138 2.266 1_455 S
In130 O139 2.326 1_455 S
In130 O141 2.294 . S
In130 O142 2.326 . S
O131 In130 2.294 . S
O131 C140 1.240 . S
O132 In130 2.326 . S
O132 C140 1.252 . S
C133 O136 1.252 . S
C133 O137 1.260 . S
C134 O141 1.240 . S
C134 O142 1.252 . S
C135 O138 1.252 . S
C135 O139 1.260 . S
O136 In130 2.266 . S
O136 C133 1.252 . S
O137 In130 2.326 . S
O137 C133 1.260 . S
O138 In130 2.266 1_655 S
O138 C135 1.252 . S
O139 In130 2.326 1_655 S
O139 C135 1.260 . S
C140 O131 1.240 . S
C140 O132 1.252 . S
O141 In130 2.294 . S
O141 C134 1.240 . S
O142 In130 2.326 . S
O142 C134 1.252 . S
In143 O144 2.294 . S
In143 O145 2.326 . S
In143 O149 2.266 . S
In143 O150 2.326 . S
In143 O151 2.266 . S
In143 O152 2.326 . S
In143 O154 2.294 . S
In143 O155 2.326 . S
O144 In143 2.294 . S
O144 C153 1.240 . S
O145 In143 2.326 . S
O145 C153 1.252 . S
C146 O149 1.252 . S
C146 O150 1.260 . S
C147 O154 1.240 . S
C147 O155 1.252 . S
C148 O151 1.252 . S
C148 O152 1.260 . S
O149 In143 2.266 . S
O149 C146 1.252 . S
O150 In143 2.326 . S
O150 C146 1.260 . S
O151 In143 2.266 . S
O151 C148 1.252 . S
O152 In143 2.326 . S
O152 C148 1.260 . S
C153 O144 1.240 . S
C153 O145 1.252 . S
O154 In143 2.294 . S
O154 C147 1.240 . S
O155 In143 2.326 . S
O155 C147 1.252 . S
In156 O157 2.294 . S
In156 O158 2.326 . S
In156 O162 2.266 . S
In156 O163 2.326 . S
In156 O164 2.266 . S
In156 O165 2.326 . S
In156 O167 2.294 . S
In156 O168 2.326 . S
O157 In156 2.294 . S
O157 C166 1.240 . S
O158 In156 2.326 . S
O158 C166 1.252 . S
C159 O162 1.252 . S
C159 O163 1.260 . S
C160 O167 1.240 . S
C160 O168 1.252 . S
C161 O164 1.252 . S
C161 O165 1.260 . S
O162 In156 2.266 . S
O162 C159 1.252 . S
O163 In156 2.326 . S
O163 C159 1.260 . S
O164 In156 2.266 . S
O164 C161 1.252 . S
O165 In156 2.326 . S
O165 C161 1.260 . S
C166 O157 1.240 . S
C166 O158 1.252 . S
O167 In156 2.294 . S
O167 C160 1.240 . S
O168 In156 2.326 . S
O168 C160 1.252 . S
In169 O170 2.294 . S
In169 O171 2.326 . S
In169 O175 2.266 . S
In169 O176 2.326 . S
In169 O177 2.266 . S
In169 O178 2.326 . S
In169 O180 2.294 . S
In169 O181 2.326 . S
O170 In169 2.294 . S
O170 C179 1.240 . S
O171 In169 2.326 . S
O171 C179 1.252 . S
C172 O175 1.252 . S
C172 O176 1.260 . S
C173 O180 1.240 . S
C173 O181 1.252 . S
C174 O177 1.252 . S
C174 O178 1.260 . S
O175 In169 2.266 . S
O175 C172 1.252 . S
O176 In169 2.326 . S
O176 C172 1.260 . S
O177 In169 2.266 . S
O177 C174 1.252 . S
O178 In169 2.326 . S
O178 C174 1.260 . S
C179 O170 1.240 . S
C179 O171 1.252 . S
O180 In169 2.294 . S
O180 C173 1.240 . S
O181 In169 2.326 . S
O181 C173 1.252 . S
In182 O183 2.294 . S
In182 O184 2.326 . S
In182 O188 2.266 1_655 S
In182 O189 2.326 . S
In182 O190 2.266 . S
In182 O191 2.326 . S
In182 O193 2.294 . S
In182 O194 2.326 . S
O183 In182 2.294 . S
O183 C192 1.240 . S
O184 In182 2.326 . S
O184 C192 1.252 . S
C185 O188 1.252 1_655 S
C185 O189 1.260 . S
C186 O193 1.240 . S
C186 O194 1.252 . S
C187 O190 1.252 . S
C187 O191 1.260 . S
O188 In182 2.266 1_455 S
O188 C185 1.252 1_455 S
O189 In182 2.326 . S
O189 C185 1.260 . S
O190 In182 2.266 . S
O190 C187 1.252 . S
O191 In182 2.326 . S
O191 C187 1.260 . S
C192 O183 1.240 . S
C192 O184 1.252 . S
O193 In182 2.294 . S
O193 C186 1.240 . S
O194 In182 2.326 . S
O194 C186 1.252 . S
In195 O196 2.294 . S
In195 O197 2.326 . S
In195 O201 2.266 . S
In195 O202 2.326 . S
In195 O203 2.266 . S
In195 O204 2.326 . S
In195 O206 2.294 . S
In195 O207 2.326 . S
O196 In195 2.294 . S
O196 C205 1.240 . S
O197 In195 2.326 . S
O197 C205 1.252 . S
C198 O201 1.252 . S
C198 O202 1.260 . S
C199 O206 1.240 . S
C199 O207 1.252 . S
C200 O203 1.252 . S
C200 O204 1.260 . S
O201 In195 2.266 . S
O201 C198 1.252 . S
O202 In195 2.326 . S
O202 C198 1.260 . S
O203 In195 2.266 . S
O203 C200 1.252 . S
O204 In195 2.326 . S
O204 C200 1.260 . S
C205 O196 1.240 . S
C205 O197 1.252 . S
O206 In195 2.294 . S
O206 C199 1.240 . S
O207 In195 2.326 . S
O207 C199 1.252 . S
In208 O209 2.294 . S
In208 O210 2.326 . S
In208 O214 2.266 . S
In208 O215 2.326 . S
In208 O216 2.266 . S
In208 O217 2.326 . S
In208 O219 2.294 . S
In208 O220 2.326 . S
O209 In208 2.294 . S
O209 C218 1.240 . S
O210 In208 2.326 . S
O210 C218 1.252 . S
C211 O214 1.252 . S
C211 O215 1.260 . S
C212 O219 1.240 . S
C212 O220 1.252 . S
C213 O216 1.252 . S
C213 O217 1.260 . S
O214 In208 2.266 . S
O214 C211 1.252 . S
O215 In208 2.326 . S
O215 C211 1.260 . S
O216 In208 2.266 . S
O216 C213 1.252 . S
O217 In208 2.326 . S
O217 C213 1.260 . S
C218 O209 1.240 . S
C218 O210 1.252 . S
O219 In208 2.294 . S
O219 C212 1.240 . S
O220 In208 2.326 . S
O220 C212 1.252 . S
In221 O222 2.294 . S
In221 O223 2.326 . S
In221 O227 2.266 . S
In221 O228 2.326 . S
In221 O229 2.266 . S
In221 O230 2.326 . S
In221 O232 2.294 . S
In221 O233 2.326 . S
O222 In221 2.294 . S
O222 C231 1.240 . S
O223 In221 2.326 . S
O223 C231 1.252 . S
C224 O227 1.252 . S
C224 O228 1.260 . S
C225 O232 1.240 . S
C225 O233 1.252 . S
C226 O229 1.252 . S
C226 O230 1.260 . S
O227 In221 2.266 . S
O227 C224 1.252 . S
O228 In221 2.326 . S
O228 C224 1.260 . S
O229 In221 2.266 . S
O229 C226 1.252 . S
O230 In221 2.326 . S
O230 C226 1.260 . S
C231 O222 1.240 . S
C231 O223 1.252 . S
O232 In221 2.294 . S
O232 C225 1.240 . S
O233 In221 2.326 . S
O233 C225 1.252 . S
In234 O235 2.294 . S
In234 O236 2.326 . S
In234 O240 2.266 . S
In234 O241 2.326 . S
In234 O242 2.266 . S
In234 O243 2.326 . S
In234 O245 2.294 . S
In234 O246 2.326 . S
O235 In234 2.294 . S
O235 C244 1.240 . S
O236 In234 2.326 . S
O236 C244 1.252 . S
C237 O240 1.252 . S
C237 O241 1.260 . S
C238 O245 1.240 . S
C238 O246 1.252 . S
C239 O242 1.252 . S
C239 O243 1.260 . S
O240 In234 2.266 . S
O240 C237 1.252 . S
O241 In234 2.326 . S
O241 C237 1.260 . S
O242 In234 2.266 . S
O242 C239 1.252 . S
O243 In234 2.326 . S
O243 C239 1.260 . S
C244 O235 1.240 . S
C244 O236 1.252 . S
O245 In234 2.294 . S
O245 C238 1.240 . S
O246 In234 2.326 . S
O246 C238 1.252 . S
In247 O248 2.294 . S
In247 O249 2.326 . S
In247 O253 2.266 . S
In247 O254 2.326 . S
In247 O255 2.266 . S
In247 O256 2.326 . S
In247 O258 2.294 . S
In247 O259 2.326 . S
O248 In247 2.294 . S
O248 C257 1.240 . S
O249 In247 2.326 . S
O249 C257 1.252 . S
C250 O253 1.252 . S
C250 O254 1.260 . S
C251 O258 1.240 . S
C251 O259 1.252 . S
C252 O255 1.252 . S
C252 O256 1.260 . S
O253 In247 2.266 . S
O253 C250 1.252 . S
O254 In247 2.326 . S
O254 C250 1.260 . S
O255 In247 2.266 . S
O255 C252 1.252 . S
O256 In247 2.326 . S
O256 C252 1.260 . S
C257 O248 1.240 . S
C257 O249 1.252 . S
O258 In247 2.294 . S
O258 C251 1.240 . S
O259 In247 2.326 . S
O259 C251 1.252 . S
In260 O261 2.294 . S
In260 O262 2.326 . S
In260 O266 2.266 . S
In260 O267 2.326 . S
In260 O268 2.266 . S
In260 O269 2.326 . S
In260 O271 2.294 . S
In260 O272 2.326 . S
O261 In260 2.294 . S
O261 C270 1.240 . S
O262 In260 2.326 . S
O262 C270 1.252 . S
C263 O266 1.252 . S
C263 O267 1.260 . S
C264 O271 1.240 . S
C264 O272 1.252 . S
C265 O268 1.252 . S
C265 O269 1.260 . S
O266 In260 2.266 . S
O266 C263 1.252 . S
O267 In260 2.326 . S
O267 C263 1.260 . S
O268 In260 2.266 . S
O268 C265 1.252 . S
O269 In260 2.326 . S
O269 C265 1.260 . S
C270 O261 1.240 . S
C270 O262 1.252 . S
O271 In260 2.294 . S
O271 C264 1.240 . S
O272 In260 2.326 . S
O272 C264 1.252 . S
In273 O274 2.294 . S
In273 O275 2.326 . S
In273 O279 2.266 . S
In273 O280 2.326 . S
In273 O281 2.266 . S
In273 O282 2.326 . S
In273 O284 2.294 . S
In273 O285 2.326 . S
O274 In273 2.294 . S
O274 C283 1.240 . S
O275 In273 2.326 . S
O275 C283 1.252 . S
C276 O279 1.252 . S
C276 O280 1.260 . S
C277 O284 1.240 . S
C277 O285 1.252 . S
C278 O281 1.252 . S
C278 O282 1.260 . S
O279 In273 2.266 . S
O279 C276 1.252 . S
O280 In273 2.326 . S
O280 C276 1.260 . S
O281 In273 2.266 . S
O281 C278 1.252 . S
O282 In273 2.326 . S
O282 C278 1.260 . S
C283 O274 1.240 . S
C283 O275 1.252 . S
O284 In273 2.294 . S
O284 C277 1.240 . S
O285 In273 2.326 . S
O285 C277 1.252 . S
In286 O287 2.294 . S
In286 O288 2.326 . S
In286 O292 2.266 . S
In286 O293 2.326 . S
In286 O294 2.266 . S
In286 O295 2.326 . S
In286 O297 2.294 . S
In286 O298 2.326 . S
O287 In286 2.294 . S
O287 C296 1.240 . S
O288 In286 2.326 . S
O288 C296 1.252 . S
C289 O292 1.252 . S
C289 O293 1.260 . S
C290 O297 1.240 . S
C290 O298 1.252 . S
C291 O294 1.252 . S
C291 O295 1.260 . S
O292 In286 2.266 . S
O292 C289 1.252 . S
O293 In286 2.326 . S
O293 C289 1.260 . S
O294 In286 2.266 . S
O294 C291 1.252 . S
O295 In286 2.326 . S
O295 C291 1.260 . S
C296 O287 1.240 . S
C296 O288 1.252 . S
O297 In286 2.294 . S
O297 C290 1.240 . S
O298 In286 2.326 . S
O298 C290 1.252 . S
In299 O300 2.294 . S
In299 O301 2.326 . S
In299 O305 2.266 1_655 S
In299 O306 2.326 . S
In299 O307 2.266 . S
In299 O308 2.326 . S
In299 O310 2.294 . S
In299 O311 2.326 . S
O300 In299 2.294 . S
O300 C309 1.240 . S
O301 In299 2.326 . S
O301 C309 1.252 . S
C302 O305 1.252 1_655 S
C302 O306 1.260 . S
C303 O310 1.240 . S
C303 O311 1.252 . S
C304 O307 1.252 . S
C304 O308 1.260 . S
O305 In299 2.266 1_455 S
O305 C302 1.252 1_455 S
O306 In299 2.326 . S
O306 C302 1.260 . S
O307 In299 2.266 . S
O307 C304 1.252 . S
O308 In299 2.326 . S
O308 C304 1.260 . S
C309 O300 1.240 . S
C309 O301 1.252 . S
O310 In299 2.294 . S
O310 C303 1.240 . S
O311 In299 2.326 . S
O311 C303 1.252 . S
In312 O313 2.294 . S
In312 O314 2.326 . S
In312 O318 2.266 . S
In312 O319 2.326 . S
In312 O320 2.266 . S
In312 O321 2.326 . S
In312 O323 2.294 . S
In312 O324 2.326 . S
O313 In312 2.294 . S
O313 C322 1.240 . S
O314 In312 2.326 . S
O314 C322 1.252 . S
C315 O318 1.252 . S
C315 O319 1.260 . S
C316 O323 1.240 . S
C316 O324 1.252 . S
C317 O320 1.252 . S
C317 O321 1.260 . S
O318 In312 2.266 . S
O318 C315 1.252 . S
O319 In312 2.326 . S
O319 C315 1.260 . S
O320 In312 2.266 . S
O320 C317 1.252 . S
O321 In312 2.326 . S
O321 C317 1.260 . S
C322 O313 1.240 . S
C322 O314 1.252 . S
O323 In312 2.294 . S
O323 C316 1.240 . S
O324 In312 2.326 . S
O324 C316 1.252 . S
In325 O326 2.294 . S
In325 O327 2.326 . S
In325 O331 2.266 . S
In325 O332 2.326 . S
In325 O333 2.266 . S
In325 O334 2.326 . S
In325 O336 2.294 . S
In325 O337 2.326 . S
O326 In325 2.294 . S
O326 C335 1.240 . S
O327 In325 2.326 . S
O327 C335 1.252 . S
C328 O331 1.252 . S
C328 O332 1.260 . S
C329 O336 1.240 . S
C329 O337 1.252 . S
C330 O333 1.252 . S
C330 O334 1.260 . S
O331 In325 2.266 . S
O331 C328 1.252 . S
O332 In325 2.326 . S
O332 C328 1.260 . S
O333 In325 2.266 . S
O333 C330 1.252 . S
O334 In325 2.326 . S
O334 C330 1.260 . S
C335 O326 1.240 . S
C335 O327 1.252 . S
O336 In325 2.294 . S
O336 C329 1.240 . S
O337 In325 2.326 . S
O337 C329 1.252 . S
In338 O339 2.294 . S
In338 O340 2.326 . S
In338 O344 2.266 . S
In338 O345 2.326 . S
In338 O346 2.266 . S
In338 O347 2.326 . S
In338 O349 2.294 . S
In338 O350 2.326 . S
O339 In338 2.294 . S
O339 C348 1.240 . S
O340 In338 2.326 . S
O340 C348 1.252 . S
C341 O344 1.252 . S
C341 O345 1.260 . S
C342 O349 1.240 . S
C342 O350 1.252 . S
C343 O346 1.252 . S
C343 O347 1.260 . S
O344 In338 2.266 . S
O344 C341 1.252 . S
O345 In338 2.326 . S
O345 C341 1.260 . S
O346 In338 2.266 . S
O346 C343 1.252 . S
O347 In338 2.326 . S
O347 C343 1.260 . S
C348 O339 1.240 . S
C348 O340 1.252 . S
O349 In338 2.294 . S
O349 C342 1.240 . S
O350 In338 2.326 . S
O350 C342 1.252 . S
In351 O352 2.294 . S
In351 O353 2.326 . S
In351 O357 2.266 . S
In351 O358 2.326 . S
In351 O359 2.266 . S
In351 O360 2.326 . S
In351 O362 2.294 . S
In351 O363 2.326 . S
O352 In351 2.294 . S
O352 C361 1.240 . S
O353 In351 2.326 . S
O353 C361 1.252 . S
C354 O357 1.252 . S
C354 O358 1.260 . S
C355 O362 1.240 . S
C355 O363 1.252 . S
C356 O359 1.252 . S
C356 O360 1.260 . S
O357 In351 2.266 . S
O357 C354 1.252 . S
O358 In351 2.326 . S
O358 C354 1.260 . S
O359 In351 2.266 . S
O359 C356 1.252 . S
O360 In351 2.326 . S
O360 C356 1.260 . S
C361 O352 1.240 . S
C361 O353 1.252 . S
O362 In351 2.294 . S
O362 C355 1.240 . S
O363 In351 2.326 . S
O363 C355 1.252 . S
In364 O365 2.294 . S
In364 O366 2.326 . S
In364 O370 2.266 1_565 S
In364 O371 2.326 . S
In364 O372 2.266 . S
In364 O373 2.326 . S
In364 O375 2.294 . S
In364 O376 2.326 . S
O365 In364 2.294 . S
O365 C374 1.240 . S
O366 In364 2.326 . S
O366 C374 1.252 . S
C367 O370 1.252 1_565 S
C367 O371 1.260 . S
C368 O375 1.240 . S
C368 O376 1.252 . S
C369 O372 1.252 . S
C369 O373 1.260 . S
O370 In364 2.266 1_545 S
O370 C367 1.252 1_545 S
O371 In364 2.326 . S
O371 C367 1.260 . S
O372 In364 2.266 . S
O372 C369 1.252 . S
O373 In364 2.326 . S
O373 C369 1.260 . S
C374 O365 1.240 . S
C374 O366 1.252 . S
O375 In364 2.294 . S
O375 C368 1.240 . S
O376 In364 2.326 . S
O376 C368 1.252 . S
In377 O378 2.294 . S
In377 O379 2.326 . S
In377 O383 2.266 . S
In377 O384 2.326 . S
In377 O385 2.266 . S
In377 O386 2.326 . S
In377 O388 2.294 . S
In377 O389 2.326 . S
O378 In377 2.294 . S
O378 C387 1.240 . S
O379 In377 2.326 . S
O379 C387 1.252 . S
C380 O383 1.252 . S
C380 O384 1.260 . S
C381 O388 1.240 . S
C381 O389 1.252 . S
C382 O385 1.252 . S
C382 O386 1.260 . S
O383 In377 2.266 . S
O383 C380 1.252 . S
O384 In377 2.326 . S
O384 C380 1.260 . S
O385 In377 2.266 . S
O385 C382 1.252 . S
O386 In377 2.326 . S
O386 C382 1.260 . S
C387 O378 1.240 . S
C387 O379 1.252 . S
O388 In377 2.294 . S
O388 C381 1.240 . S
O389 In377 2.326 . S
O389 C381 1.252 . S
In390 O391 2.294 . S
In390 O392 2.326 . S
In390 O396 2.266 . S
In390 O397 2.326 . S
In390 O398 2.266 . S
In390 O399 2.326 . S
In390 O401 2.294 . S
In390 O402 2.326 . S
O391 In390 2.294 . S
O391 C400 1.240 . S
O392 In390 2.326 . S
O392 C400 1.252 . S
C393 O396 1.252 . S
C393 O397 1.260 . S
C394 O401 1.240 . S
C394 O402 1.252 . S
C395 O398 1.252 . S
C395 O399 1.260 . S
O396 In390 2.266 . S
O396 C393 1.252 . S
O397 In390 2.326 . S
O397 C393 1.260 . S
O398 In390 2.266 . S
O398 C395 1.252 . S
O399 In390 2.326 . S
O399 C395 1.260 . S
C400 O391 1.240 . S
C400 O392 1.252 . S
O401 In390 2.294 . S
O401 C394 1.240 . S
O402 In390 2.326 . S
O402 C394 1.252 . S
In403 O404 2.294 . S
In403 O405 2.326 . S
In403 O409 2.266 . S
In403 O410 2.326 . S
In403 O411 2.266 1_565 S
In403 O412 2.326 . S
In403 O414 2.294 . S
In403 O415 2.326 . S
O404 In403 2.294 . S
O404 C413 1.240 . S
O405 In403 2.326 . S
O405 C413 1.252 . S
C406 O409 1.252 . S
C406 O410 1.260 . S
C407 O414 1.240 . S
C407 O415 1.252 . S
C408 O411 1.252 1_565 S
C408 O412 1.260 . S
O409 In403 2.266 . S
O409 C406 1.252 . S
O410 In403 2.326 . S
O410 C406 1.260 . S
O411 In403 2.266 1_545 S
O411 C408 1.252 1_545 S
O412 In403 2.326 . S
O412 C408 1.260 . S
C413 O404 1.240 . S
C413 O405 1.252 . S
O414 In403 2.294 . S
O414 C407 1.240 . S
O415 In403 2.326 . S
O415 C407 1.252 . S
In416 O417 2.294 . S
In416 O418 2.326 . S
In416 O422 2.266 . S
In416 O423 2.326 . S
In416 O424 2.266 . S
In416 O425 2.326 . S
In416 O427 2.294 . S
In416 O428 2.326 . S
O417 In416 2.294 . S
O417 C426 1.240 . S
O418 In416 2.326 . S
O418 C426 1.252 . S
C419 O422 1.252 . S
C419 O423 1.260 . S
C420 O427 1.240 . S
C420 O428 1.252 . S
C421 O424 1.252 . S
C421 O425 1.260 . S
O422 In416 2.266 . S
O422 C419 1.252 . S
O423 In416 2.326 . S
O423 C419 1.260 . S
O424 In416 2.266 . S
O424 C421 1.252 . S
O425 In416 2.326 . S
O425 C421 1.260 . S
C426 O417 1.240 . S
C426 O418 1.252 . S
O427 In416 2.294 . S
O427 C420 1.240 . S
O428 In416 2.326 . S
O428 C420 1.252 . S
In429 O430 2.294 . S
In429 O431 2.326 . S
In429 O435 2.266 . S
In429 O436 2.326 . S
In429 O437 2.266 . S
In429 O438 2.326 . S
In429 O440 2.294 . S
In429 O441 2.326 . S
O430 In429 2.294 . S
O430 C439 1.240 . S
O431 In429 2.326 . S
O431 C439 1.252 . S
C432 O435 1.252 . S
C432 O436 1.260 . S
C433 O440 1.240 . S
C433 O441 1.252 . S
C434 O437 1.252 . S
C434 O438 1.260 . S
O435 In429 2.266 . S
O435 C432 1.252 . S
O436 In429 2.326 . S
O436 C432 1.260 . S
O437 In429 2.266 . S
O437 C434 1.252 . S
O438 In429 2.326 . S
O438 C434 1.260 . S
C439 O430 1.240 . S
C439 O431 1.252 . S
O440 In429 2.294 . S
O440 C433 1.240 . S
O441 In429 2.326 . S
O441 C433 1.252 . S
In442 O443 2.294 . S
In442 O444 2.326 . S
In442 O448 2.266 . S
In442 O449 2.326 . S
In442 O450 2.266 . S
In442 O451 2.326 . S
In442 O453 2.294 . S
In442 O454 2.326 . S
O443 In442 2.294 . S
O443 C452 1.240 . S
O444 In442 2.326 . S
O444 C452 1.252 . S
C445 O448 1.252 . S
C445 O449 1.260 . S
C446 O453 1.240 . S
C446 O454 1.252 . S
C447 O450 1.252 . S
C447 O451 1.260 . S
O448 In442 2.266 . S
O448 C445 1.252 . S
O449 In442 2.326 . S
O449 C445 1.260 . S
O450 In442 2.266 . S
O450 C447 1.252 . S
O451 In442 2.326 . S
O451 C447 1.260 . S
C452 O443 1.240 . S
C452 O444 1.252 . S
O453 In442 2.294 . S
O453 C446 1.240 . S
O454 In442 2.326 . S
O454 C446 1.252 . S
In455 O456 2.294 . S
In455 O457 2.326 . S
In455 O461 2.266 . S
In455 O462 2.326 . S
In455 O463 2.266 . S
In455 O464 2.326 . S
In455 O466 2.294 . S
In455 O467 2.326 . S
O456 In455 2.294 . S
O456 C465 1.240 . S
O457 In455 2.326 . S
O457 C465 1.252 . S
C458 O461 1.252 . S
C458 O462 1.260 . S
C459 O466 1.240 . S
C459 O467 1.252 . S
C460 O463 1.252 . S
C460 O464 1.260 . S
O461 In455 2.266 . S
O461 C458 1.252 . S
O462 In455 2.326 . S
O462 C458 1.260 . S
O463 In455 2.266 . S
O463 C460 1.252 . S
O464 In455 2.326 . S
O464 C460 1.260 . S
C465 O456 1.240 . S
C465 O457 1.252 . S
O466 In455 2.294 . S
O466 C459 1.240 . S
O467 In455 2.326 . S
O467 C459 1.252 . S
C468 C469 1.391 . S
C468 C470 1.394 . S
C468 H484 0.931 . S
C469 C468 1.391 . S
C469 C473 1.376 . S
C470 C468 1.394 . S
C470 C471 1.369 . S
C470 C474 1.531 . S
C471 C470 1.369 . S
C471 C472 1.410 . S
C471 C479 1.503 . S
C472 C471 1.410 . S
C472 C473 1.392 . S
C472 C475 1.511 . S
C473 C469 1.376 . S
C473 C472 1.392 . S
C473 H485 0.929 . S
C474 C470 1.531 . S
C474 H486 0.960 . S
C474 H487 0.962 . S
C474 H488 0.960 . S
C475 C472 1.511 . S
C475 H489 0.961 . S
C475 H490 0.961 . S
C475 H491 0.961 . S
C476 C477 1.370 . S
C476 C478 1.363 . S
C476 H492 0.931 . S
C477 C476 1.370 . S
C477 C481 1.408 . S
C478 C476 1.363 . S
C478 C479 1.370 . S
C478 C482 1.524 . S
C479 C471 1.503 . S
C479 C478 1.370 . S
C479 C480 1.403 . S
C480 C479 1.403 . S
C480 C481 1.404 . S
C480 C483 1.539 . S
C481 C477 1.408 . S
C481 C480 1.404 . S
C481 H493 0.930 . S
C482 C478 1.524 . S
C482 H494 0.956 . S
C482 H495 0.961 . S
C482 H496 0.961 . S
C483 C480 1.539 . S
C483 H497 0.958 . S
C483 H498 0.961 . S
C483 H499 0.960 . S
H484 C468 0.931 . S
H485 C473 0.929 . S
H486 C474 0.960 . S
H487 C474 0.962 . S
H488 C474 0.960 . S
H489 C475 0.961 . S
H490 C475 0.961 . S
H491 C475 0.961 . S
H492 C476 0.931 . S
H493 C481 0.930 . S
H494 C482 0.956 . S
H495 C482 0.961 . S
H496 C482 0.961 . S
H497 C483 0.958 . S
H498 C483 0.961 . S
H499 C483 0.960 . S
C500 C501 1.391 . S
C500 C502 1.394 . S
C500 H516 0.931 . S
C501 C500 1.391 . S
C501 C505 1.376 . S
C502 C500 1.394 . S
C502 C503 1.369 . S
C502 C506 1.531 . S
C503 C502 1.369 . S
C503 C504 1.410 . S
C503 C511 1.503 . S
C504 C503 1.410 . S
C504 C505 1.392 . S
C504 C507 1.511 . S
C505 C501 1.376 . S
C505 C504 1.392 . S
C505 H517 0.929 . S
C506 C502 1.531 . S
C506 H518 0.960 . S
C506 H519 0.962 . S
C506 H520 0.960 . S
C507 C504 1.511 . S
C507 H521 0.961 . S
C507 H522 0.961 . S
C507 H523 0.961 . S
C508 C509 1.370 . S
C508 C510 1.363 . S
C508 H524 0.931 . S
C509 C508 1.370 . S
C509 C513 1.408 . S
C510 C508 1.363 . S
C510 C511 1.370 . S
C510 C514 1.524 . S
C511 C503 1.503 . S
C511 C510 1.370 . S
C511 C512 1.403 . S
C512 C511 1.403 . S
C512 C513 1.404 . S
C512 C515 1.539 . S
C513 C509 1.408 . S
C513 C512 1.404 . S
C513 H525 0.930 . S
C514 C510 1.524 . S
C514 H526 0.956 . S
C514 H527 0.961 . S
C514 H528 0.961 . S
C515 C512 1.539 . S
C515 H529 0.958 . S
C515 H530 0.961 . S
C515 H531 0.960 . S
H516 C500 0.931 . S
H517 C505 0.929 . S
H518 C506 0.960 . S
H519 C506 0.962 . S
H520 C506 0.960 . S
H521 C507 0.961 . S
H522 C507 0.961 . S
H523 C507 0.961 . S
H524 C508 0.931 . S
H525 C513 0.930 . S
H526 C514 0.956 . S
H527 C514 0.961 . S
H528 C514 0.961 . S
H529 C515 0.958 . S
H530 C515 0.961 . S
H531 C515 0.960 . S
C532 C533 1.391 . S
C532 C534 1.394 . S
C532 H548 0.931 . S
C533 C532 1.391 . S
C533 C537 1.376 . S
C534 C532 1.394 . S
C534 C535 1.369 . S
C534 C538 1.531 . S
C535 C534 1.369 . S
C535 C536 1.410 . S
C535 C543 1.503 . S
C536 C535 1.410 . S
C536 C537 1.392 . S
C536 C539 1.511 . S
C537 C533 1.376 . S
C537 C536 1.392 . S
C537 H549 0.929 . S
C538 C534 1.531 . S
C538 H550 0.960 . S
C538 H551 0.962 . S
C538 H552 0.960 . S
C539 C536 1.511 . S
C539 H553 0.961 . S
C539 H554 0.961 . S
C539 H555 0.961 . S
C540 C541 1.370 . S
C540 C542 1.363 . S
C540 H556 0.931 . S
C541 C540 1.370 . S
C541 C545 1.408 . S
C542 C540 1.363 . S
C542 C543 1.370 . S
C542 C546 1.524 . S
C543 C535 1.503 . S
C543 C542 1.370 . S
C543 C544 1.403 . S
C544 C543 1.403 . S
C544 C545 1.404 . S
C544 C547 1.539 . S
C545 C541 1.408 . S
C545 C544 1.404 . S
C545 H557 0.930 . S
C546 C542 1.524 . S
C546 H558 0.956 . S
C546 H559 0.961 . S
C546 H560 0.961 . S
C547 C544 1.539 . S
C547 H561 0.958 . S
C547 H562 0.961 . S
C547 H563 0.960 . S
H548 C532 0.931 . S
H549 C537 0.929 . S
H550 C538 0.960 . S
H551 C538 0.962 . S
H552 C538 0.960 . S
H553 C539 0.961 . S
H554 C539 0.961 . S
H555 C539 0.961 . S
H556 C540 0.931 . S
H557 C545 0.930 . S
H558 C546 0.956 . S
H559 C546 0.961 . S
H560 C546 0.961 . S
H561 C547 0.958 . S
H562 C547 0.961 . S
H563 C547 0.960 . S
C564 C565 1.391 . S
C564 C566 1.394 . S
C564 H580 0.931 . S
C565 C564 1.391 . S
C565 C569 1.376 . S
C566 C564 1.394 . S
C566 C567 1.369 . S
C566 C570 1.531 . S
C567 C566 1.369 . S
C567 C568 1.410 . S
C567 C575 1.503 . S
C568 C567 1.410 . S
C568 C569 1.392 . S
C568 C571 1.511 . S
C569 C565 1.376 . S
C569 C568 1.392 . S
C569 H581 0.929 . S
C570 C566 1.531 . S
C570 H582 0.960 . S
C570 H583 0.962 . S
C570 H584 0.960 . S
C571 C568 1.511 . S
C571 H585 0.961 . S
C571 H586 0.961 . S
C571 H587 0.961 . S
C572 C573 1.370 . S
C572 C574 1.363 . S
C572 H588 0.931 . S
C573 C572 1.370 . S
C573 C577 1.408 . S
C574 C572 1.363 . S
C574 C575 1.370 . S
C574 C578 1.524 . S
C575 C567 1.503 . S
C575 C574 1.370 . S
C575 C576 1.403 . S
C576 C575 1.403 . S
C576 C577 1.404 . S
C576 C579 1.539 . S
C577 C573 1.408 . S
C577 C576 1.404 . S
C577 H589 0.930 . S
C578 C574 1.524 . S
C578 H590 0.956 . S
C578 H591 0.961 . S
C578 H592 0.961 . S
C579 C576 1.539 . S
C579 H593 0.958 . S
C579 H594 0.961 . S
C579 H595 0.960 . S
H580 C564 0.931 . S
H581 C569 0.929 . S
H582 C570 0.960 . S
H583 C570 0.962 . S
H584 C570 0.960 . S
H585 C571 0.961 . S
H586 C571 0.961 . S
H587 C571 0.961 . S
H588 C572 0.931 . S
H589 C577 0.930 . S
H590 C578 0.956 . S
H591 C578 0.961 . S
H592 C578 0.961 . S
H593 C579 0.958 . S
H594 C579 0.961 . S
H595 C579 0.960 . S
C596 C597 1.391 . S
C596 C598 1.394 . S
C596 H612 0.931 . S
C597 C596 1.391 . S
C597 C601 1.376 . S
C598 C596 1.394 . S
C598 C599 1.369 . S
C598 C602 1.531 . S
C599 C598 1.369 . S
C599 C600 1.410 . S
C599 C607 1.503 . S
C600 C599 1.410 . S
C600 C601 1.392 . S
C600 C603 1.511 . S
C601 C597 1.376 . S
C601 C600 1.392 . S
C601 H613 0.929 . S
C602 C598 1.531 . S
C602 H614 0.960 . S
C602 H615 0.962 . S
C602 H616 0.960 . S
C603 C600 1.511 . S
C603 H617 0.961 . S
C603 H618 0.961 . S
C603 H619 0.961 . S
C604 C605 1.370 . S
C604 C606 1.363 . S
C604 H620 0.931 . S
C605 C604 1.370 . S
C605 C609 1.408 . S
C606 C604 1.363 . S
C606 C607 1.370 . S
C606 C610 1.524 . S
C607 C599 1.503 . S
C607 C606 1.370 . S
C607 C608 1.403 . S
C608 C607 1.403 . S
C608 C609 1.404 . S
C608 C611 1.539 . S
C609 C605 1.408 . S
C609 C608 1.404 . S
C609 H621 0.930 . S
C610 C606 1.524 . S
C610 H622 0.956 . S
C610 H623 0.961 . S
C610 H624 0.961 . S
C611 C608 1.539 . S
C611 H625 0.958 . S
C611 H626 0.961 . S
C611 H627 0.960 . S
H612 C596 0.931 . S
H613 C601 0.929 . S
H614 C602 0.960 . S
H615 C602 0.962 . S
H616 C602 0.960 . S
H617 C603 0.961 . S
H618 C603 0.961 . S
H619 C603 0.961 . S
H620 C604 0.931 . S
H621 C609 0.930 . S
H622 C610 0.956 . S
H623 C610 0.961 . S
H624 C610 0.961 . S
H625 C611 0.958 . S
H626 C611 0.961 . S
H627 C611 0.960 . S
C628 C629 1.391 . S
C628 C630 1.394 . S
C628 H644 0.931 . S
C629 C628 1.391 . S
C629 C633 1.376 . S
C630 C628 1.394 . S
C630 C631 1.369 . S
C630 C634 1.531 . S
C631 C630 1.369 . S
C631 C632 1.410 . S
C631 C639 1.503 . S
C632 C631 1.410 . S
C632 C633 1.392 . S
C632 C635 1.511 . S
C633 C629 1.376 . S
C633 C632 1.392 . S
C633 H645 0.929 . S
C634 C630 1.531 . S
C634 H646 0.960 . S
C634 H647 0.962 . S
C634 H648 0.960 . S
C635 C632 1.511 . S
C635 H649 0.961 . S
C635 H650 0.961 . S
C635 H651 0.961 . S
C636 C637 1.370 . S
C636 C638 1.363 . S
C636 H652 0.931 . S
C637 C636 1.370 . S
C637 C641 1.408 . S
C638 C636 1.363 . S
C638 C639 1.370 . S
C638 C642 1.524 . S
C639 C631 1.503 . S
C639 C638 1.370 . S
C639 C640 1.403 . S
C640 C639 1.403 . S
C640 C641 1.404 . S
C640 C643 1.539 . S
C641 C637 1.408 . S
C641 C640 1.404 . S
C641 H653 0.930 . S
C642 C638 1.524 . S
C642 H654 0.956 . S
C642 H655 0.961 . S
C642 H656 0.961 . S
C643 C640 1.539 . S
C643 H657 0.958 . S
C643 H658 0.961 . S
C643 H659 0.960 . S
H644 C628 0.931 . S
H645 C633 0.929 . S
H646 C634 0.960 . S
H647 C634 0.962 . S
H648 C634 0.960 . S
H649 C635 0.961 . S
H650 C635 0.961 . S
H651 C635 0.961 . S
H652 C636 0.931 . S
H653 C641 0.930 . S
H654 C642 0.956 . S
H655 C642 0.961 . S
H656 C642 0.961 . S
H657 C643 0.958 . S
H658 C643 0.961 . S
H659 C643 0.960 . S
C660 C661 1.391 . S
C660 C662 1.394 . S
C660 H676 0.931 . S
C661 C660 1.391 . S
C661 C665 1.376 . S
C662 C660 1.394 . S
C662 C663 1.369 . S
C662 C666 1.531 . S
C663 C662 1.369 . S
C663 C664 1.410 . S
C663 C671 1.503 . S
C664 C663 1.410 . S
C664 C665 1.392 . S
C664 C667 1.511 . S
C665 C661 1.376 . S
C665 C664 1.392 . S
C665 H677 0.929 . S
C666 C662 1.531 . S
C666 H678 0.960 . S
C666 H679 0.962 . S
C666 H680 0.960 . S
C667 C664 1.511 . S
C667 H681 0.961 . S
C667 H682 0.961 . S
C667 H683 0.961 . S
C668 C669 1.370 . S
C668 C670 1.363 . S
C668 H684 0.931 . S
C669 C668 1.370 . S
C669 C673 1.408 . S
C670 C668 1.363 . S
C670 C671 1.370 . S
C670 C674 1.524 . S
C671 C663 1.503 . S
C671 C670 1.370 . S
C671 C672 1.403 . S
C672 C671 1.403 . S
C672 C673 1.404 . S
C672 C675 1.539 . S
C673 C669 1.408 . S
C673 C672 1.404 . S
C673 H685 0.930 . S
C674 C670 1.524 . S
C674 H686 0.956 . S
C674 H687 0.961 . S
C674 H688 0.961 . S
C675 C672 1.539 . S
C675 H689 0.958 . S
C675 H690 0.961 . S
C675 H691 0.960 . S
H676 C660 0.931 . S
H677 C665 0.929 . S
H678 C666 0.960 . S
H679 C666 0.962 . S
H680 C666 0.960 . S
H681 C667 0.961 . S
H682 C667 0.961 . S
H683 C667 0.961 . S
H684 C668 0.931 . S
H685 C673 0.930 . S
H686 C674 0.956 . S
H687 C674 0.961 . S
H688 C674 0.961 . S
H689 C675 0.958 . S
H690 C675 0.961 . S
H691 C675 0.960 . S
C692 C693 1.391 . S
C692 C694 1.394 . S
C692 H708 0.931 . S
C693 C692 1.391 . S
C693 C697 1.376 . S
C694 C692 1.394 . S
C694 C695 1.369 . S
C694 C698 1.531 . S
C695 C694 1.369 . S
C695 C696 1.410 . S
C695 C703 1.503 . S
C696 C695 1.410 . S
C696 C697 1.392 . S
C696 C699 1.511 . S
C697 C693 1.376 . S
C697 C696 1.392 . S
C697 H709 0.929 . S
C698 C694 1.531 . S
C698 H710 0.960 . S
C698 H711 0.962 . S
C698 H712 0.960 . S
C699 C696 1.511 . S
C699 H713 0.961 . S
C699 H714 0.961 . S
C699 H715 0.961 . S
C700 C701 1.370 . S
C700 C702 1.363 . S
C700 H716 0.931 . S
C701 C700 1.370 . S
C701 C705 1.408 . S
C702 C700 1.363 . S
C702 C703 1.370 . S
C702 C706 1.524 . S
C703 C695 1.503 . S
C703 C702 1.370 . S
C703 C704 1.403 . S
C704 C703 1.403 . S
C704 C705 1.404 . S
C704 C707 1.539 . S
C705 C701 1.408 . S
C705 C704 1.404 . S
C705 H717 0.930 . S
C706 C702 1.524 . S
C706 H718 0.956 . S
C706 H719 0.961 . S
C706 H720 0.961 . S
C707 C704 1.539 . S
C707 H721 0.958 . S
C707 H722 0.961 . S
C707 H723 0.960 . S
H708 C692 0.931 . S
H709 C697 0.929 . S
H710 C698 0.960 . S
H711 C698 0.962 . S
H712 C698 0.960 . S
H713 C699 0.961 . S
H714 C699 0.961 . S
H715 C699 0.961 . S
H716 C700 0.931 . S
H717 C705 0.930 . S
H718 C706 0.956 . S
H719 C706 0.961 . S
H720 C706 0.961 . S
H721 C707 0.958 . S
H722 C707 0.961 . S
H723 C707 0.960 . S
C724 C725 1.391 . S
C724 C726 1.394 . S
C724 H740 0.931 . S
C725 C724 1.391 . S
C725 C729 1.376 . S
C726 C724 1.394 . S
C726 C727 1.369 . S
C726 C730 1.531 . S
C727 C726 1.369 . S
C727 C728 1.410 . S
C727 C735 1.503 . S
C728 C727 1.410 . S
C728 C729 1.392 . S
C728 C731 1.511 . S
C729 C725 1.376 . S
C729 C728 1.392 . S
C729 H741 0.929 . S
C730 C726 1.531 . S
C730 H742 0.960 . S
C730 H743 0.962 . S
C730 H744 0.960 . S
C731 C728 1.511 . S
C731 H745 0.961 . S
C731 H746 0.961 . S
C731 H747 0.961 . S
C732 C733 1.370 . S
C732 C734 1.363 . S
C732 H748 0.931 . S
C733 C732 1.370 . S
C733 C737 1.408 . S
C734 C732 1.363 . S
C734 C735 1.370 . S
C734 C738 1.524 . S
C735 C727 1.503 . S
C735 C734 1.370 . S
C735 C736 1.403 . S
C736 C735 1.403 . S
C736 C737 1.404 . S
C736 C739 1.539 . S
C737 C733 1.408 . S
C737 C736 1.404 . S
C737 H749 0.930 . S
C738 C734 1.524 . S
C738 H750 0.956 . S
C738 H751 0.961 . S
C738 H752 0.961 . S
C739 C736 1.539 . S
C739 H753 0.958 . S
C739 H754 0.961 . S
C739 H755 0.960 . S
H740 C724 0.931 . S
H741 C729 0.929 . S
H742 C730 0.960 . S
H743 C730 0.962 . S
H744 C730 0.960 . S
H745 C731 0.961 . S
H746 C731 0.961 . S
H747 C731 0.961 . S
H748 C732 0.931 . S
H749 C737 0.930 . S
H750 C738 0.956 . S
H751 C738 0.961 . S
H752 C738 0.961 . S
H753 C739 0.958 . S
H754 C739 0.961 . S
H755 C739 0.960 . S
C756 C757 1.391 . S
C756 C758 1.394 . S
C756 H772 0.931 1_655 S
C757 C756 1.391 . S
C757 C761 1.376 . S
C758 C756 1.394 . S
C758 C759 1.369 . S
C758 C762 1.531 1_655 S
C759 C758 1.369 . S
C759 C760 1.410 . S
C759 C767 1.503 . S
C760 C759 1.410 . S
C760 C761 1.392 . S
C760 C763 1.511 . S
C761 C757 1.376 . S
C761 C760 1.392 . S
C761 H773 0.929 . S
C762 C758 1.531 1_455 S
C762 H774 0.960 . S
C762 H775 0.962 . S
C762 H776 0.960 . S
C763 C760 1.511 . S
C763 H777 0.961 . S
C763 H778 0.961 . S
C763 H779 0.961 . S
C764 C765 1.370 . S
C764 C766 1.363 . S
C764 H780 0.931 . S
C765 C764 1.370 . S
C765 C769 1.408 . S
C766 C764 1.363 . S
C766 C767 1.370 . S
C766 C770 1.524 . S
C767 C759 1.503 . S
C767 C766 1.370 . S
C767 C768 1.403 . S
C768 C767 1.403 . S
C768 C769 1.404 . S
C768 C771 1.539 . S
C769 C765 1.408 . S
C769 C768 1.404 . S
C769 H781 0.930 . S
C770 C766 1.524 . S
C770 H782 0.956 . S
C770 H783 0.961 . S
C770 H784 0.961 . S
C771 C768 1.539 . S
C771 H785 0.958 . S
C771 H786 0.961 . S
C771 H787 0.960 . S
H772 C756 0.931 1_455 S
H773 C761 0.929 . S
H774 C762 0.960 . S
H775 C762 0.962 . S
H776 C762 0.960 . S
H777 C763 0.961 . S
H778 C763 0.961 . S
H779 C763 0.961 . S
H780 C764 0.931 . S
H781 C769 0.930 . S
H782 C770 0.956 . S
H783 C770 0.961 . S
H784 C770 0.961 . S
H785 C771 0.958 . S
H786 C771 0.961 . S
H787 C771 0.960 . S
C788 C789 1.391 . S
C788 C790 1.394 . S
C788 H804 0.931 . S
C789 C788 1.391 . S
C789 C793 1.376 . S
C790 C788 1.394 . S
C790 C791 1.369 . S
C790 C794 1.531 . S
C791 C790 1.369 . S
C791 C792 1.410 . S
C791 C799 1.503 . S
C792 C791 1.410 . S
C792 C793 1.392 . S
C792 C795 1.511 . S
C793 C789 1.376 . S
C793 C792 1.392 . S
C793 H805 0.929 . S
C794 C790 1.531 . S
C794 H806 0.960 . S
C794 H807 0.962 . S
C794 H808 0.960 . S
C795 C792 1.511 . S
C795 H809 0.961 . S
C795 H810 0.961 . S
C795 H811 0.961 . S
C796 C797 1.370 . S
C796 C798 1.363 . S
C796 H812 0.931 . S
C797 C796 1.370 . S
C797 C801 1.408 . S
C798 C796 1.363 . S
C798 C799 1.370 . S
C798 C802 1.524 . S
C799 C791 1.503 . S
C799 C798 1.370 . S
C799 C800 1.403 . S
C800 C799 1.403 . S
C800 C801 1.404 . S
C800 C803 1.539 . S
C801 C797 1.408 . S
C801 C800 1.404 . S
C801 H813 0.930 . S
C802 C798 1.524 . S
C802 H814 0.956 . S
C802 H815 0.961 . S
C802 H816 0.961 . S
C803 C800 1.539 . S
C803 H817 0.958 . S
C803 H818 0.961 . S
C803 H819 0.960 . S
H804 C788 0.931 . S
H805 C793 0.929 . S
H806 C794 0.960 . S
H807 C794 0.962 . S
H808 C794 0.960 . S
H809 C795 0.961 . S
H810 C795 0.961 . S
H811 C795 0.961 . S
H812 C796 0.931 . S
H813 C801 0.930 . S
H814 C802 0.956 . S
H815 C802 0.961 . S
H816 C802 0.961 . S
H817 C803 0.958 . S
H818 C803 0.961 . S
H819 C803 0.960 . S
C820 C821 1.391 . S
C820 C822 1.394 . S
C820 H836 0.931 . S
C821 C820 1.391 . S
C821 C825 1.376 . S
C822 C820 1.394 . S
C822 C823 1.369 . S
C822 C826 1.531 . S
C823 C822 1.369 . S
C823 C824 1.410 . S
C823 C831 1.503 . S
C824 C823 1.410 . S
C824 C825 1.392 . S
C824 C827 1.511 . S
C825 C821 1.376 . S
C825 C824 1.392 . S
C825 H837 0.929 . S
C826 C822 1.531 . S
C826 H838 0.960 . S
C826 H839 0.962 . S
C826 H840 0.960 . S
C827 C824 1.511 . S
C827 H841 0.961 . S
C827 H842 0.961 . S
C827 H843 0.961 . S
C828 C829 1.370 . S
C828 C830 1.363 . S
C828 H844 0.931 . S
C829 C828 1.370 . S
C829 C833 1.408 . S
C830 C828 1.363 . S
C830 C831 1.370 . S
C830 C834 1.524 . S
C831 C823 1.503 . S
C831 C830 1.370 . S
C831 C832 1.403 . S
C832 C831 1.403 . S
C832 C833 1.404 . S
C832 C835 1.539 . S
C833 C829 1.408 . S
C833 C832 1.404 . S
C833 H845 0.930 . S
C834 C830 1.524 . S
C834 H846 0.956 . S
C834 H847 0.961 . S
C834 H848 0.961 . S
C835 C832 1.539 . S
C835 H849 0.958 . S
C835 H850 0.961 . S
C835 H851 0.960 . S
H836 C820 0.931 . S
H837 C825 0.929 . S
H838 C826 0.960 . S
H839 C826 0.962 . S
H840 C826 0.960 . S
H841 C827 0.961 . S
H842 C827 0.961 . S
H843 C827 0.961 . S
H844 C828 0.931 . S
H845 C833 0.930 . S
H846 C834 0.956 . S
H847 C834 0.961 . S
H848 C834 0.961 . S
H849 C835 0.958 . S
H850 C835 0.961 . S
H851 C835 0.960 . S
C852 C853 1.391 . S
C852 C854 1.394 . S
C852 H868 0.931 . S
C853 C852 1.391 . S
C853 C857 1.376 . S
C854 C852 1.394 . S
C854 C855 1.369 . S
C854 C858 1.531 . S
C855 C854 1.369 . S
C855 C856 1.410 . S
C855 C863 1.503 . S
C856 C855 1.410 . S
C856 C857 1.392 . S
C856 C859 1.511 . S
C857 C853 1.376 . S
C857 C856 1.392 . S
C857 H869 0.929 . S
C858 C854 1.531 . S
C858 H870 0.960 . S
C858 H871 0.962 . S
C858 H872 0.960 . S
C859 C856 1.511 . S
C859 H873 0.961 . S
C859 H874 0.961 . S
C859 H875 0.961 . S
C860 C861 1.370 . S
C860 C862 1.363 . S
C860 H876 0.931 1_565 S
C861 C860 1.370 . S
C861 C865 1.408 . S
C862 C860 1.363 . S
C862 C863 1.370 . S
C862 C866 1.524 1_565 S
C863 C855 1.503 . S
C863 C862 1.370 . S
C863 C864 1.403 . S
C864 C863 1.403 . S
C864 C865 1.404 . S
C864 C867 1.539 . S
C865 C861 1.408 . S
C865 C864 1.404 . S
C865 H877 0.930 . S
C866 C862 1.524 1_545 S
C866 H878 0.956 . S
C866 H879 0.961 . S
C866 H880 0.961 . S
C867 C864 1.539 . S
C867 H881 0.958 . S
C867 H882 0.961 . S
C867 H883 0.960 . S
H868 C852 0.931 . S
H869 C857 0.929 . S
H870 C858 0.960 . S
H871 C858 0.962 . S
H872 C858 0.960 . S
H873 C859 0.961 . S
H874 C859 0.961 . S
H875 C859 0.961 . S
H876 C860 0.931 1_545 S
H877 C865 0.930 . S
H878 C866 0.956 . S
H879 C866 0.961 . S
H880 C866 0.961 . S
H881 C867 0.958 . S
H882 C867 0.961 . S
H883 C867 0.960 . S
C884 C885 1.391 . S
C884 C886 1.394 . S
C884 H900 0.931 . S
C885 C884 1.391 . S
C885 C889 1.376 . S
C886 C884 1.394 . S
C886 C887 1.369 . S
C886 C890 1.531 . S
C887 C886 1.369 . S
C887 C888 1.410 . S
C887 C895 1.503 . S
C888 C887 1.410 . S
C888 C889 1.392 . S
C888 C891 1.511 . S
C889 C885 1.376 . S
C889 C888 1.392 . S
C889 H901 0.929 . S
C890 C886 1.531 . S
C890 H902 0.960 . S
C890 H903 0.962 . S
C890 H904 0.960 . S
C891 C888 1.511 . S
C891 H905 0.961 . S
C891 H906 0.961 . S
C891 H907 0.961 . S
C892 C893 1.370 . S
C892 C894 1.363 . S
C892 H908 0.931 . S
C893 C892 1.370 . S
C893 C897 1.408 . S
C894 C892 1.363 . S
C894 C895 1.370 . S
C894 C898 1.524 . S
C895 C887 1.503 . S
C895 C894 1.370 . S
C895 C896 1.403 . S
C896 C895 1.403 . S
C896 C897 1.404 . S
C896 C899 1.539 . S
C897 C893 1.408 . S
C897 C896 1.404 . S
C897 H909 0.930 . S
C898 C894 1.524 . S
C898 H910 0.956 . S
C898 H911 0.961 . S
C898 H912 0.961 . S
C899 C896 1.539 . S
C899 H913 0.958 . S
C899 H914 0.961 . S
C899 H915 0.960 . S
H900 C884 0.931 . S
H901 C889 0.929 . S
H902 C890 0.960 . S
H903 C890 0.962 . S
H904 C890 0.960 . S
H905 C891 0.961 . S
H906 C891 0.961 . S
H907 C891 0.961 . S
H908 C892 0.931 . S
H909 C897 0.930 . S
H910 C898 0.956 . S
H911 C898 0.961 . S
H912 C898 0.961 . S
H913 C899 0.958 . S
H914 C899 0.961 . S
H915 C899 0.960 . S
C916 C917 1.391 . S
C916 C918 1.394 . S
C916 H932 0.931 . S
C917 C916 1.391 . S
C917 C921 1.376 . S
C918 C916 1.394 . S
C918 C919 1.369 . S
C918 C922 1.531 . S
C919 C918 1.369 . S
C919 C920 1.410 . S
C919 C927 1.503 . S
C920 C919 1.410 . S
C920 C921 1.392 . S
C920 C923 1.511 . S
C921 C917 1.376 . S
C921 C920 1.392 . S
C921 H933 0.929 . S
C922 C918 1.531 . S
C922 H934 0.960 . S
C922 H935 0.962 . S
C922 H936 0.960 . S
C923 C920 1.511 . S
C923 H937 0.961 . S
C923 H938 0.961 . S
C923 H939 0.961 . S
C924 C925 1.370 . S
C924 C926 1.363 . S
C924 H940 0.931 . S
C925 C924 1.370 . S
C925 C929 1.408 . S
C926 C924 1.363 . S
C926 C927 1.370 . S
C926 C930 1.524 . S
C927 C919 1.503 . S
C927 C926 1.370 . S
C927 C928 1.403 . S
C928 C927 1.403 . S
C928 C929 1.404 . S
C928 C931 1.539 . S
C929 C925 1.408 . S
C929 C928 1.404 . S
C929 H941 0.930 . S
C930 C926 1.524 . S
C930 H942 0.956 . S
C930 H943 0.961 . S
C930 H944 0.961 . S
C931 C928 1.539 . S
C931 H945 0.958 . S
C931 H946 0.961 . S
C931 H947 0.960 . S
H932 C916 0.931 . S
H933 C921 0.929 . S
H934 C922 0.960 . S
H935 C922 0.962 . S
H936 C922 0.960 . S
H937 C923 0.961 . S
H938 C923 0.961 . S
H939 C923 0.961 . S
H940 C924 0.931 . S
H941 C929 0.930 . S
H942 C930 0.956 . S
H943 C930 0.961 . S
H944 C930 0.961 . S
H945 C931 0.958 . S
H946 C931 0.961 . S
H947 C931 0.960 . S
C948 C949 1.391 . S
C948 C950 1.394 . S
C948 H964 0.931 . S
C949 C948 1.391 . S
C949 C953 1.376 . S
C950 C948 1.394 . S
C950 C951 1.369 . S
C950 C954 1.531 . S
C951 C950 1.369 . S
C951 C952 1.410 . S
C951 C959 1.503 . S
C952 C951 1.410 . S
C952 C953 1.392 . S
C952 C955 1.511 . S
C953 C949 1.376 . S
C953 C952 1.392 . S
C953 H965 0.929 . S
C954 C950 1.531 . S
C954 H966 0.960 . S
C954 H967 0.962 . S
C954 H968 0.960 . S
C955 C952 1.511 . S
C955 H969 0.961 . S
C955 H970 0.961 . S
C955 H971 0.961 . S
C956 C957 1.370 . S
C956 C958 1.363 . S
C956 H972 0.931 . S
C957 C956 1.370 . S
C957 C961 1.408 . S
C958 C956 1.363 . S
C958 C959 1.370 . S
C958 C962 1.524 . S
C959 C951 1.503 . S
C959 C958 1.370 . S
C959 C960 1.403 . S
C960 C959 1.403 . S
C960 C961 1.404 . S
C960 C963 1.539 . S
C961 C957 1.408 . S
C961 C960 1.404 . S
C961 H973 0.930 . S
C962 C958 1.524 . S
C962 H974 0.956 . S
C962 H975 0.961 . S
C962 H976 0.961 . S
C963 C960 1.539 . S
C963 H977 0.958 . S
C963 H978 0.961 . S
C963 H979 0.960 . S
H964 C948 0.931 . S
H965 C953 0.929 . S
H966 C954 0.960 . S
H967 C954 0.962 . S
H968 C954 0.960 . S
H969 C955 0.961 . S
H970 C955 0.961 . S
H971 C955 0.961 . S
H972 C956 0.931 . S
H973 C961 0.930 . S
H974 C962 0.956 . S
H975 C962 0.961 . S
H976 C962 0.961 . S
H977 C963 0.958 . S
H978 C963 0.961 . S
H979 C963 0.960 . S
C980 C981 1.391 . S
C980 C982 1.394 . S
C980 H996 0.931 . S
C981 C980 1.391 . S
C981 C985 1.376 . S
C982 C980 1.394 . S
C982 C983 1.369 . S
C982 C986 1.531 . S
C983 C982 1.369 . S
C983 C984 1.410 . S
C983 C991 1.503 . S
C984 C983 1.410 . S
C984 C985 1.392 . S
C984 C987 1.511 . S
C985 C981 1.376 . S
C985 C984 1.392 . S
C985 H997 0.929 . S
C986 C982 1.531 . S
C986 H998 0.960 . S
C986 H999 0.962 . S
C986 H1000 0.960 . S
C987 C984 1.511 . S
C987 H1001 0.961 . S
C987 H1002 0.961 . S
C987 H1003 0.961 . S
C988 C989 1.370 . S
C988 C990 1.363 . S
C988 H1004 0.931 . S
C989 C988 1.370 . S
C989 C993 1.408 . S
C990 C988 1.363 . S
C990 C991 1.370 . S
C990 C994 1.524 . S
C991 C983 1.503 . S
C991 C990 1.370 . S
C991 C992 1.403 . S
C992 C991 1.403 . S
C992 C993 1.404 . S
C992 C995 1.539 . S
C993 C989 1.408 . S
C993 C992 1.404 . S
C993 H1005 0.930 . S
C994 C990 1.524 . S
C994 H1006 0.956 . S
C994 H1007 0.961 . S
C994 H1008 0.961 . S
C995 C992 1.539 . S
C995 H1009 0.958 . S
C995 H1010 0.961 . S
C995 H1011 0.960 . S
H996 C980 0.931 . S
H997 C985 0.929 . S
H998 C986 0.960 . S
H999 C986 0.962 . S
H1000 C986 0.960 . S
H1001 C987 0.961 . S
H1002 C987 0.961 . S
H1003 C987 0.961 . S
H1004 C988 0.931 . S
H1005 C993 0.930 . S
H1006 C994 0.956 . S
H1007 C994 0.961 . S
H1008 C994 0.961 . S
H1009 C995 0.958 . S
H1010 C995 0.961 . S
H1011 C995 0.960 . S
C1012 C1013 1.391 . S
C1012 C1014 1.394 . S
C1012 H1028 0.931 . S
C1013 C1012 1.391 . S
C1013 C1017 1.376 . S
C1014 C1012 1.394 . S
C1014 C1015 1.369 . S
C1014 C1018 1.531 . S
C1015 C1014 1.369 . S
C1015 C1016 1.410 . S
C1015 C1023 1.503 . S
C1016 C1015 1.410 . S
C1016 C1017 1.392 . S
C1016 C1019 1.511 . S
C1017 C1013 1.376 . S
C1017 C1016 1.392 . S
C1017 H1029 0.929 . S
C1018 C1014 1.531 . S
C1018 H1030 0.960 . S
C1018 H1031 0.962 . S
C1018 H1032 0.960 . S
C1019 C1016 1.511 . S
C1019 H1033 0.961 . S
C1019 H1034 0.961 . S
C1019 H1035 0.961 . S
C1020 C1021 1.370 . S
C1020 C1022 1.363 . S
C1020 H1036 0.931 . S
C1021 C1020 1.370 . S
C1021 C1025 1.408 . S
C1022 C1020 1.363 . S
C1022 C1023 1.370 . S
C1022 C1026 1.524 . S
C1023 C1015 1.503 . S
C1023 C1022 1.370 . S
C1023 C1024 1.403 . S
C1024 C1023 1.403 . S
C1024 C1025 1.404 . S
C1024 C1027 1.539 . S
C1025 C1021 1.408 . S
C1025 C1024 1.404 . S
C1025 H1037 0.930 . S
C1026 C1022 1.524 . S
C1026 H1038 0.956 . S
C1026 H1039 0.961 . S
C1026 H1040 0.961 . S
C1027 C1024 1.539 . S
C1027 H1041 0.958 . S
C1027 H1042 0.961 . S
C1027 H1043 0.960 . S
H1028 C1012 0.931 . S
H1029 C1017 0.929 . S
H1030 C1018 0.960 . S
H1031 C1018 0.962 . S
H1032 C1018 0.960 . S
H1033 C1019 0.961 . S
H1034 C1019 0.961 . S
H1035 C1019 0.961 . S
H1036 C1020 0.931 . S
H1037 C1025 0.930 . S
H1038 C1026 0.956 . S
H1039 C1026 0.961 . S
H1040 C1026 0.961 . S
H1041 C1027 0.958 . S
H1042 C1027 0.961 . S
H1043 C1027 0.960 . S
C1044 C1045 1.391 . S
C1044 C1046 1.394 . S
C1044 H1060 0.931 . S
C1045 C1044 1.391 . S
C1045 C1049 1.376 1_455 S
C1046 C1044 1.394 . S
C1046 C1047 1.369 . S
C1046 C1050 1.531 . S
C1047 C1046 1.369 . S
C1047 C1048 1.410 1_455 S
C1047 C1055 1.503 1_455 S
C1048 C1047 1.410 1_655 S
C1048 C1049 1.392 . S
C1048 C1051 1.511 . S
C1049 C1045 1.376 1_655 S
C1049 C1048 1.392 . S
C1049 H1061 0.929 . S
C1050 C1046 1.531 . S
C1050 H1062 0.960 . S
C1050 H1063 0.962 . S
C1050 H1064 0.960 . S
C1051 C1048 1.511 . S
C1051 H1065 0.961 . S
C1051 H1066 0.961 . S
C1051 H1067 0.961 . S
C1052 C1053 1.370 . S
C1052 C1054 1.363 . S
C1052 H1068 0.931 . S
C1053 C1052 1.370 . S
C1053 C1057 1.408 . S
C1054 C1052 1.363 . S
C1054 C1055 1.370 . S
C1054 C1058 1.513 1_655 S
C1055 C1047 1.503 1_655 S
C1055 C1054 1.370 . S
C1055 C1056 1.403 . S
C1056 C1055 1.403 . S
C1056 C1057 1.404 . S
C1056 C1059 1.539 . S
C1057 C1053 1.408 . S
C1057 C1056 1.404 . S
C1057 H1069 0.930 . S
C1058 C1054 1.513 1_455 S
C1058 H1070 0.973 . S
C1058 H1071 0.952 1_455 S
C1058 H1072 0.964 1_455 S
C1059 C1056 1.539 . S
C1059 H1073 0.958 1_655 S
C1059 H1074 0.961 . S
C1059 H1075 0.960 . S
H1060 C1044 0.931 . S
H1061 C1049 0.929 . S
H1062 C1050 0.960 . S
H1063 C1050 0.962 . S
H1064 C1050 0.960 . S
H1065 C1051 0.961 . S
H1066 C1051 0.961 . S
H1067 C1051 0.961 . S
H1068 C1052 0.931 . S
H1069 C1057 0.930 . S
H1070 C1058 0.973 . S
H1071 C1058 0.952 1_655 S
H1072 C1058 0.964 1_655 S
H1073 C1059 0.958 1_455 S
H1074 C1059 0.961 . S
H1075 C1059 0.960 . S
C1076 C1077 1.391 . S
C1076 C1078 1.394 . S
C1076 H1092 0.931 . S
C1077 C1076 1.391 . S
C1077 C1081 1.376 . S
C1078 C1076 1.394 . S
C1078 C1079 1.369 . S
C1078 C1082 1.531 . S
C1079 C1078 1.369 . S
C1079 C1080 1.410 . S
C1079 C1087 1.503 . S
C1080 C1079 1.410 . S
C1080 C1081 1.392 . S
C1080 C1083 1.511 . S
C1081 C1077 1.376 . S
C1081 C1080 1.392 . S
C1081 H1093 0.929 . S
C1082 C1078 1.531 . S
C1082 H1094 0.960 . S
C1082 H1095 0.962 . S
C1082 H1096 0.960 . S
C1083 C1080 1.511 . S
C1083 H1097 0.961 . S
C1083 H1098 0.961 . S
C1083 H1099 0.961 . S
C1084 C1085 1.370 . S
C1084 C1086 1.363 . S
C1084 H1100 0.931 . S
C1085 C1084 1.370 . S
C1085 C1089 1.408 . S
C1086 C1084 1.363 . S
C1086 C1087 1.370 . S
C1086 C1090 1.524 . S
C1087 C1079 1.503 . S
C1087 C1086 1.370 . S
C1087 C1088 1.403 . S
C1088 C1087 1.403 . S
C1088 C1089 1.404 . S
C1088 C1091 1.539 . S
C1089 C1085 1.408 . S
C1089 C1088 1.404 . S
C1089 H1101 0.930 . S
C1090 C1086 1.524 . S
C1090 H1102 0.956 . S
C1090 H1103 0.961 . S
C1090 H1104 0.961 . S
C1091 C1088 1.539 . S
C1091 H1105 0.958 . S
C1091 H1106 0.961 . S
C1091 H1107 0.960 . S
H1092 C1076 0.931 . S
H1093 C1081 0.929 . S
H1094 C1082 0.960 . S
H1095 C1082 0.962 . S
H1096 C1082 0.960 . S
H1097 C1083 0.961 . S
H1098 C1083 0.961 . S
H1099 C1083 0.961 . S
H1100 C1084 0.931 . S
H1101 C1089 0.930 . S
H1102 C1090 0.956 . S
H1103 C1090 0.961 . S
H1104 C1090 0.961 . S
H1105 C1091 0.958 . S
H1106 C1091 0.961 . S
H1107 C1091 0.960 . S
C1108 C1109 1.391 . S
C1108 C1110 1.394 . S
C1108 H1124 0.931 . S
C1109 C1108 1.391 . S
C1109 C1113 1.376 . S
C1110 C1108 1.394 . S
C1110 C1111 1.369 . S
C1110 C1114 1.531 . S
C1111 C1110 1.369 . S
C1111 C1112 1.410 . S
C1111 C1119 1.503 . S
C1112 C1111 1.410 . S
C1112 C1113 1.392 . S
C1112 C1115 1.511 . S
C1113 C1109 1.376 . S
C1113 C1112 1.392 . S
C1113 H1125 0.929 . S
C1114 C1110 1.531 . S
C1114 H1126 0.960 . S
C1114 H1127 0.962 . S
C1114 H1128 0.960 . S
C1115 C1112 1.511 . S
C1115 H1129 0.961 . S
C1115 H1130 0.961 . S
C1115 H1131 0.961 . S
C1116 C1117 1.370 . S
C1116 C1118 1.363 . S
C1116 H1132 0.931 . S
C1117 C1116 1.370 . S
C1117 C1121 1.408 . S
C1118 C1116 1.363 . S
C1118 C1119 1.370 . S
C1118 C1122 1.524 . S
C1119 C1111 1.503 . S
C1119 C1118 1.370 . S
C1119 C1120 1.403 . S
C1120 C1119 1.403 . S
C1120 C1121 1.404 . S
C1120 C1123 1.539 . S
C1121 C1117 1.408 . S
C1121 C1120 1.404 . S
C1121 H1133 0.930 . S
C1122 C1118 1.524 . S
C1122 H1134 0.956 . S
C1122 H1135 0.961 . S
C1122 H1136 0.961 . S
C1123 C1120 1.539 . S
C1123 H1137 0.958 1_545 S
C1123 H1138 0.961 . S
C1123 H1139 0.960 . S
H1124 C1108 0.931 . S
H1125 C1113 0.929 . S
H1126 C1114 0.960 . S
H1127 C1114 0.962 . S
H1128 C1114 0.960 . S
H1129 C1115 0.961 . S
H1130 C1115 0.961 . S
H1131 C1115 0.961 . S
H1132 C1116 0.931 . S
H1133 C1121 0.930 . S
H1134 C1122 0.956 . S
H1135 C1122 0.961 . S
H1136 C1122 0.961 . S
H1137 C1123 0.958 1_565 S
H1138 C1123 0.961 . S
H1139 C1123 0.960 . S
C1140 C1141 1.391 . S
C1140 C1142 1.394 . S
C1140 H1156 0.931 . S
C1141 C1140 1.391 . S
C1141 C1145 1.376 1_545 S
C1142 C1140 1.394 . S
C1142 C1143 1.369 . S
C1142 C1146 1.531 . S
C1143 C1142 1.369 . S
C1143 C1144 1.410 1_545 S
C1143 C1151 1.499 1_545 S
C1144 C1143 1.410 1_565 S
C1144 C1145 1.392 . S
C1144 C1147 1.511 . S
C1145 C1141 1.376 1_565 S
C1145 C1144 1.392 . S
C1145 H1157 0.929 . S
C1146 C1142 1.531 . S
C1146 H1158 0.960 . S
C1146 H1159 0.962 . S
C1146 H1160 0.960 . S
C1147 C1144 1.511 . S
C1147 H1161 0.961 . S
C1147 H1162 0.961 . S
C1147 H1163 0.961 . S
C1148 C1149 1.370 . S
C1148 C1150 1.363 . S
C1148 H1164 0.931 . S
C1149 C1148 1.370 . S
C1149 C1153 1.408 1_565 S
C1150 C1148 1.363 . S
C1150 C1151 1.374 . S
C1150 C1154 1.524 . S
C1151 C1143 1.499 1_565 S
C1151 C1150 1.374 . S
C1151 C1152 1.404 1_565 S
C1152 C1151 1.404 1_545 S
C1152 C1153 1.404 . S
C1152 C1155 1.539 . S
C1153 C1149 1.408 1_545 S
C1153 C1152 1.404 . S
C1153 H1165 0.930 . S
C1154 C1150 1.524 . S
C1154 H1166 0.956 . S
C1154 H1167 0.961 . S
C1154 H1168 0.961 . S
C1155 C1152 1.539 . S
C1155 H1169 0.958 . S
C1155 H1170 0.961 . S
C1155 H1171 0.960 . S
H1156 C1140 0.931 . S
H1157 C1145 0.929 . S
H1158 C1146 0.960 . S
H1159 C1146 0.962 . S
H1160 C1146 0.960 . S
H1161 C1147 0.961 . S
H1162 C1147 0.961 . S
H1163 C1147 0.961 . S
H1164 C1148 0.931 . S
H1165 C1153 0.930 . S
H1166 C1154 0.956 . S
H1167 C1154 0.961 . S
H1168 C1154 0.961 . S
H1169 C1155 0.958 . S
H1170 C1155 0.961 . S
H1171 C1155 0.960 . S
C1172 C1173 1.391 . S
C1172 C1174 1.394 . S
C1172 H1188 0.931 . S
C1173 C1172 1.391 . S
C1173 C1177 1.376 . S
C1174 C1172 1.394 . S
C1174 C1175 1.369 . S
C1174 C1178 1.531 . S
C1175 C1174 1.369 . S
C1175 C1176 1.410 . S
C1175 C1183 1.503 . S
C1176 C1175 1.410 . S
C1176 C1177 1.392 . S
C1176 C1179 1.511 . S
C1177 C1173 1.376 . S
C1177 C1176 1.392 . S
C1177 H1189 0.929 . S
C1178 C1174 1.531 . S
C1178 H1190 0.960 . S
C1178 H1191 0.962 . S
C1178 H1192 0.960 . S
C1179 C1176 1.511 . S
C1179 H1193 0.961 . S
C1179 H1194 0.961 . S
C1179 H1195 0.961 . S
C1180 C1181 1.370 . S
C1180 C1182 1.363 . S
C1180 H1196 0.931 . S
C1181 C1180 1.370 . S
C1181 C1185 1.408 . S
C1182 C1180 1.363 . S
C1182 C1183 1.370 . S
C1182 C1186 1.524 . S
C1183 C1175 1.503 . S
C1183 C1182 1.370 . S
C1183 C1184 1.403 . S
C1184 C1183 1.403 . S
C1184 C1185 1.404 . S
C1184 C1187 1.539 . S
C1185 C1181 1.408 . S
C1185 C1184 1.404 . S
C1185 H1197 0.930 . S
C1186 C1182 1.524 . S
C1186 H1198 0.956 . S
C1186 H1199 0.961 . S
C1186 H1200 0.961 . S
C1187 C1184 1.539 . S
C1187 H1201 0.958 1_455 S
C1187 H1202 0.961 1_455 S
C1187 H1203 0.960 . S
H1188 C1172 0.931 . S
H1189 C1177 0.929 . S
H1190 C1178 0.960 . S
H1191 C1178 0.962 . S
H1192 C1178 0.960 . S
H1193 C1179 0.961 . S
H1194 C1179 0.961 . S
H1195 C1179 0.961 . S
H1196 C1180 0.931 . S
H1197 C1185 0.930 . S
H1198 C1186 0.956 . S
H1199 C1186 0.961 . S
H1200 C1186 0.961 . S
H1201 C1187 0.958 1_655 S
H1202 C1187 0.961 1_655 S
H1203 C1187 0.960 . S
C1204 C1205 1.391 . S
C1204 C1206 1.394 . S
C1204 H1220 0.931 . S
C1205 C1204 1.391 . S
C1205 C1209 1.376 . S
C1206 C1204 1.394 . S
C1206 C1207 1.369 . S
C1206 C1210 1.531 . S
C1207 C1206 1.369 . S
C1207 C1208 1.410 . S
C1207 C1215 1.503 . S
C1208 C1207 1.410 . S
C1208 C1209 1.392 . S
C1208 C1211 1.511 . S
C1209 C1205 1.376 . S
C1209 C1208 1.392 . S
C1209 H1221 0.929 . S
C1210 C1206 1.531 . S
C1210 H1222 0.960 . S
C1210 H1223 0.962 . S
C1210 H1224 0.960 . S
C1211 C1208 1.511 . S
C1211 H1225 0.961 . S
C1211 H1226 0.961 . S
C1211 H1227 0.961 . S
C1212 C1213 1.370 . S
C1212 C1214 1.363 . S
C1212 H1228 0.931 . S
C1213 C1212 1.370 . S
C1213 C1217 1.408 . S
C1214 C1212 1.363 . S
C1214 C1215 1.370 . S
C1214 C1218 1.524 . S
C1215 C1207 1.503 . S
C1215 C1214 1.370 . S
C1215 C1216 1.403 . S
C1216 C1215 1.403 . S
C1216 C1217 1.404 . S
C1216 C1219 1.539 . S
C1217 C1213 1.408 . S
C1217 C1216 1.404 . S
C1217 H1229 0.930 . S
C1218 C1214 1.524 . S
C1218 H1230 0.956 . S
C1218 H1231 0.961 . S
C1218 H1232 0.961 . S
C1219 C1216 1.539 . S
C1219 H1233 0.958 . S
C1219 H1234 0.961 . S
C1219 H1235 0.960 . S
H1220 C1204 0.931 . S
H1221 C1209 0.929 . S
H1222 C1210 0.960 . S
H1223 C1210 0.962 . S
H1224 C1210 0.960 . S
H1225 C1211 0.961 . S
H1226 C1211 0.961 . S
H1227 C1211 0.961 . S
H1228 C1212 0.931 . S
H1229 C1217 0.930 . S
H1230 C1218 0.956 . S
H1231 C1218 0.961 . S
H1232 C1218 0.961 . S
H1233 C1219 0.958 . S
H1234 C1219 0.961 . S
H1235 C1219 0.960 . S
C1236 C1237 1.391 . S
C1236 C1238 1.394 . S
C1236 H1252 0.931 . S
C1237 C1236 1.391 . S
C1237 C1241 1.376 . S
C1238 C1236 1.394 . S
C1238 C1239 1.369 . S
C1238 C1242 1.531 . S
C1239 C1238 1.369 . S
C1239 C1240 1.410 . S
C1239 C1247 1.503 . S
C1240 C1239 1.410 . S
C1240 C1241 1.392 . S
C1240 C1243 1.511 . S
C1241 C1237 1.376 . S
C1241 C1240 1.392 . S
C1241 H1253 0.929 . S
C1242 C1238 1.531 . S
C1242 H1254 0.960 . S
C1242 H1255 0.962 . S
C1242 H1256 0.960 1_455 S
C1243 C1240 1.511 . S
C1243 H1257 0.961 . S
C1243 H1258 0.961 . S
C1243 H1259 0.961 . S
C1244 C1245 1.370 . S
C1244 C1246 1.363 . S
C1244 H1260 0.931 . S
C1245 C1244 1.370 . S
C1245 C1249 1.408 . S
C1246 C1244 1.363 . S
C1246 C1247 1.370 . S
C1246 C1250 1.524 . S
C1247 C1239 1.503 . S
C1247 C1246 1.370 . S
C1247 C1248 1.403 . S
C1248 C1247 1.403 . S
C1248 C1249 1.404 . S
C1248 C1251 1.539 . S
C1249 C1245 1.408 . S
C1249 C1248 1.404 . S
C1249 H1261 0.930 . S
C1250 C1246 1.524 . S
C1250 H1262 0.956 . S
C1250 H1263 0.961 . S
C1250 H1264 0.961 . S
C1251 C1248 1.539 . S
C1251 H1265 0.958 . S
C1251 H1266 0.961 . S
C1251 H1267 0.960 . S
H1252 C1236 0.931 . S
H1253 C1241 0.929 . S
H1254 C1242 0.960 . S
H1255 C1242 0.962 . S
H1256 C1242 0.960 1_655 S
H1257 C1243 0.961 . S
H1258 C1243 0.961 . S
H1259 C1243 0.961 . S
H1260 C1244 0.931 . S
H1261 C1249 0.930 . S
H1262 C1250 0.956 . S
H1263 C1250 0.961 . S
H1264 C1250 0.961 . S
H1265 C1251 0.958 . S
H1266 C1251 0.961 . S
H1267 C1251 0.960 . S
C1268 C1269 1.391 . S
C1268 C1270 1.394 . S
C1268 H1284 0.931 . S
C1269 C1268 1.391 . S
C1269 C1273 1.376 . S
C1270 C1268 1.394 . S
C1270 C1271 1.369 . S
C1270 C1274 1.531 . S
C1271 C1270 1.369 . S
C1271 C1272 1.410 . S
C1271 C1279 1.503 . S
C1272 C1271 1.410 . S
C1272 C1273 1.392 . S
C1272 C1275 1.511 . S
C1273 C1269 1.376 . S
C1273 C1272 1.392 . S
C1273 H1285 0.929 . S
C1274 C1270 1.531 . S
C1274 H1286 0.960 . S
C1274 H1287 0.962 . S
C1274 H1288 0.960 . S
C1275 C1272 1.511 . S
C1275 H1289 0.961 . S
C1275 H1290 0.961 . S
C1275 H1291 0.961 . S
C1276 C1277 1.370 . S
C1276 C1278 1.363 . S
C1276 H1292 0.931 . S
C1277 C1276 1.370 . S
C1277 C1281 1.408 . S
C1278 C1276 1.363 . S
C1278 C1279 1.370 . S
C1278 C1282 1.524 . S
C1279 C1271 1.503 . S
C1279 C1278 1.370 . S
C1279 C1280 1.403 . S
C1280 C1279 1.403 . S
C1280 C1281 1.404 . S
C1280 C1283 1.539 . S
C1281 C1277 1.408 . S
C1281 C1280 1.404 . S
C1281 H1293 0.930 . S
C1282 C1278 1.524 . S
C1282 H1294 0.956 . S
C1282 H1295 0.961 . S
C1282 H1296 0.961 . S
C1283 C1280 1.539 . S
C1283 H1297 0.958 . S
C1283 H1298 0.961 . S
C1283 H1299 0.960 . S
H1284 C1268 0.931 . S
H1285 C1273 0.929 . S
H1286 C1274 0.960 . S
H1287 C1274 0.962 . S
H1288 C1274 0.960 . S
H1289 C1275 0.961 . S
H1290 C1275 0.961 . S
H1291 C1275 0.961 . S
H1292 C1276 0.931 . S
H1293 C1281 0.930 . S
H1294 C1282 0.956 . S
H1295 C1282 0.961 . S
H1296 C1282 0.961 . S
H1297 C1283 0.958 . S
H1298 C1283 0.961 . S
H1299 C1283 0.960 . S
C1300 C1301 1.391 . S
C1300 C1302 1.394 . S
C1300 H1316 0.931 . S
C1301 C1300 1.391 . S
C1301 C1305 1.376 1_545 S
C1302 C1300 1.394 . S
C1302 C1303 1.369 . S
C1302 C1306 1.531 . S
C1303 C1302 1.369 . S
C1303 C1304 1.410 1_545 S
C1303 C1311 1.504 . S
C1304 C1303 1.410 1_565 S
C1304 C1305 1.392 . S
C1304 C1307 1.511 . S
C1305 C1301 1.376 1_565 S
C1305 C1304 1.392 . S
C1305 H1317 0.929 . S
C1306 C1302 1.531 . S
C1306 H1318 0.960 . S
C1306 H1319 0.962 . S
C1306 H1320 0.960 . S
C1307 C1304 1.511 . S
C1307 H1321 0.961 . S
C1307 H1322 0.961 . S
C1307 H1323 0.961 . S
C1308 C1309 1.370 . S
C1308 C1310 1.363 . S
C1308 H1324 0.931 . S
C1309 C1308 1.370 . S
C1309 C1313 1.408 1_565 S
C1310 C1308 1.363 . S
C1310 C1311 1.368 1_565 S
C1310 C1314 1.524 . S
C1311 C1303 1.504 . S
C1311 C1310 1.368 1_545 S
C1311 C1312 1.405 . S
C1312 C1311 1.405 . S
C1312 C1313 1.404 . S
C1312 C1315 1.539 . S
C1313 C1309 1.408 1_545 S
C1313 C1312 1.404 . S
C1313 H1325 0.930 . S
C1314 C1310 1.524 . S
C1314 H1326 0.956 . S
C1314 H1327 0.961 . S
C1314 H1328 0.961 . S
C1315 C1312 1.539 . S
C1315 H1329 0.958 . S
C1315 H1330 0.961 . S
C1315 H1331 0.960 . S
H1316 C1300 0.931 . S
H1317 C1305 0.929 . S
H1318 C1306 0.960 . S
H1319 C1306 0.962 . S
H1320 C1306 0.960 . S
H1321 C1307 0.961 . S
H1322 C1307 0.961 . S
H1323 C1307 0.961 . S
H1324 C1308 0.931 . S
H1325 C1313 0.930 . S
H1326 C1314 0.956 . S
H1327 C1314 0.961 . S
H1328 C1314 0.961 . S
H1329 C1315 0.958 . S
H1330 C1315 0.961 . S
H1331 C1315 0.960 . S
C1332 C1333 1.391 . S
C1332 C1334 1.394 . S
C1332 H1348 0.931 . S
C1333 C1332 1.391 . S
C1333 C1337 1.376 . S
C1334 C1332 1.394 . S
C1334 C1335 1.369 . S
C1334 C1338 1.531 . S
C1335 C1334 1.369 . S
C1335 C1336 1.410 . S
C1335 C1343 1.503 . S
C1336 C1335 1.410 . S
C1336 C1337 1.392 . S
C1336 C1339 1.511 . S
C1337 C1333 1.376 . S
C1337 C1336 1.392 . S
C1337 H1349 0.929 . S
C1338 C1334 1.531 . S
C1338 H1350 0.960 . S
C1338 H1351 0.962 . S
C1338 H1352 0.960 1_545 S
C1339 C1336 1.511 . S
C1339 H1353 0.961 . S
C1339 H1354 0.961 . S
C1339 H1355 0.961 . S
C1340 C1341 1.370 . S
C1340 C1342 1.363 . S
C1340 H1356 0.931 . S
C1341 C1340 1.370 . S
C1341 C1345 1.408 . S
C1342 C1340 1.363 . S
C1342 C1343 1.370 . S
C1342 C1346 1.524 . S
C1343 C1335 1.503 . S
C1343 C1342 1.370 . S
C1343 C1344 1.403 . S
C1344 C1343 1.403 . S
C1344 C1345 1.404 . S
C1344 C1347 1.539 . S
C1345 C1341 1.408 . S
C1345 C1344 1.404 . S
C1345 H1357 0.930 . S
C1346 C1342 1.524 . S
C1346 H1358 0.956 . S
C1346 H1359 0.961 . S
C1346 H1360 0.961 . S
C1347 C1344 1.539 . S
C1347 H1361 0.958 . S
C1347 H1362 0.961 . S
C1347 H1363 0.960 . S
H1348 C1332 0.931 . S
H1349 C1337 0.929 . S
H1350 C1338 0.960 . S
H1351 C1338 0.962 . S
H1352 C1338 0.960 1_565 S
H1353 C1339 0.961 . S
H1354 C1339 0.961 . S
H1355 C1339 0.961 . S
H1356 C1340 0.931 . S
H1357 C1345 0.930 . S
H1358 C1346 0.956 . S
H1359 C1346 0.961 . S
H1360 C1346 0.961 . S
H1361 C1347 0.958 . S
H1362 C1347 0.961 . S
H1363 C1347 0.960 . S
C1364 C1365 1.391 . S
C1364 C1366 1.394 1_455 S
C1364 H1380 0.931 . S
C1365 C1364 1.391 . S
C1365 C1369 1.376 . S
C1366 C1364 1.394 1_655 S
C1366 C1367 1.369 . S
C1366 C1370 1.531 . S
C1367 C1366 1.369 . S
C1367 C1368 1.408 . S
C1367 C1375 1.503 . S
C1368 C1367 1.408 . S
C1368 C1369 1.393 1_655 S
C1368 C1371 1.513 . S
C1369 C1365 1.376 . S
C1369 C1368 1.393 1_455 S
C1369 H1381 0.929 . S
C1370 C1366 1.531 . S
C1370 H1382 0.960 . S
C1370 H1383 0.962 1_655 S
C1370 H1384 0.960 . S
C1371 C1368 1.513 . S
C1371 H1385 0.961 1_655 S
C1371 H1386 0.961 1_655 S
C1371 H1387 0.961 . S
C1372 C1373 1.370 1_455 S
C1372 C1374 1.363 . S
C1372 H1388 0.931 . S
C1373 C1372 1.370 1_655 S
C1373 C1377 1.408 . S
C1374 C1372 1.363 . S
C1374 C1375 1.370 1_455 S
C1374 C1378 1.524 . S
C1375 C1367 1.503 . S
C1375 C1374 1.370 1_655 S
C1375 C1376 1.403 . S
C1376 C1375 1.403 . S
C1376 C1377 1.404 . S
C1376 C1379 1.539 . S
C1377 C1373 1.408 . S
C1377 C1376 1.404 . S
C1377 H1389 0.930 . S
C1378 C1374 1.524 . S
C1378 H1390 0.956 . S
C1378 H1391 0.961 . S
C1378 H1392 0.961 . S
C1379 C1376 1.539 . S
C1379 H1393 0.958 . S
C1379 H1394 0.961 . S
C1379 H1395 0.960 . S
H1380 C1364 0.931 . S
H1381 C1369 0.929 . S
H1382 C1370 0.960 . S
H1383 C1370 0.962 1_455 S
H1384 C1370 0.960 . S
H1385 C1371 0.961 1_455 S
H1386 C1371 0.961 1_455 S
H1387 C1371 0.961 . S
H1388 C1372 0.931 . S
H1389 C1377 0.930 . S
H1390 C1378 0.956 . S
H1391 C1378 0.961 . S
H1392 C1378 0.961 . S
H1393 C1379 0.958 . S
H1394 C1379 0.961 . S
H1395 C1379 0.960 . S
C1396 C1397 1.391 . S
C1396 C1398 1.394 . S
C1396 H1412 0.931 . S
C1397 C1396 1.391 . S
C1397 C1401 1.376 . S
C1398 C1396 1.394 . S
C1398 C1399 1.369 . S
C1398 C1402 1.531 . S
C1399 C1398 1.369 . S
C1399 C1400 1.410 . S
C1399 C1407 1.503 . S
C1400 C1399 1.410 . S
C1400 C1401 1.392 . S
C1400 C1403 1.511 . S
C1401 C1397 1.376 . S
C1401 C1400 1.392 . S
C1401 H1413 0.929 . S
C1402 C1398 1.531 . S
C1402 H1414 0.960 . S
C1402 H1415 0.962 . S
C1402 H1416 0.960 . S
C1403 C1400 1.511 . S
C1403 H1417 0.961 . S
C1403 H1418 0.961 . S
C1403 H1419 0.961 . S
C1404 C1405 1.370 . S
C1404 C1406 1.363 . S
C1404 H1420 0.931 . S
C1405 C1404 1.370 . S
C1405 C1409 1.408 . S
C1406 C1404 1.363 . S
C1406 C1407 1.370 . S
C1406 C1410 1.524 . S
C1407 C1399 1.503 . S
C1407 C1406 1.370 . S
C1407 C1408 1.403 . S
C1408 C1407 1.403 . S
C1408 C1409 1.404 . S
C1408 C1411 1.539 . S
C1409 C1405 1.408 . S
C1409 C1408 1.404 . S
C1409 H1421 0.930 . S
C1410 C1406 1.524 . S
C1410 H1422 0.956 . S
C1410 H1423 0.961 . S
C1410 H1424 0.961 . S
C1411 C1408 1.539 . S
C1411 H1425 0.958 . S
C1411 H1426 0.961 . S
C1411 H1427 0.960 . S
H1412 C1396 0.931 . S
H1413 C1401 0.929 . S
H1414 C1402 0.960 . S
H1415 C1402 0.962 . S
H1416 C1402 0.960 . S
H1417 C1403 0.961 . S
H1418 C1403 0.961 . S
H1419 C1403 0.961 . S
H1420 C1404 0.931 . S
H1421 C1409 0.930 . S
H1422 C1410 0.956 . S
H1423 C1410 0.961 . S
H1424 C1410 0.961 . S
H1425 C1411 0.958 . S
H1426 C1411 0.961 . S
H1427 C1411 0.960 . S
C1428 C1429 1.391 . S
C1428 C1430 1.394 . S
C1428 H1444 0.931 . S
C1429 C1428 1.391 . S
C1429 C1433 1.376 . S
C1430 C1428 1.394 . S
C1430 C1431 1.369 . S
C1430 C1434 1.531 . S
C1431 C1430 1.369 . S
C1431 C1432 1.410 . S
C1431 C1439 1.503 . S
C1432 C1431 1.410 . S
C1432 C1433 1.392 . S
C1432 C1435 1.511 . S
C1433 C1429 1.376 . S
C1433 C1432 1.392 . S
C1433 H1445 0.929 . S
C1434 C1430 1.531 . S
C1434 H1446 0.960 . S
C1434 H1447 0.962 . S
C1434 H1448 0.960 . S
C1435 C1432 1.511 . S
C1435 H1449 0.961 . S
C1435 H1450 0.961 . S
C1435 H1451 0.961 . S
C1436 C1437 1.370 . S
C1436 C1438 1.363 . S
C1436 H1452 0.931 . S
C1437 C1436 1.370 . S
C1437 C1441 1.408 . S
C1438 C1436 1.363 . S
C1438 C1439 1.370 . S
C1438 C1442 1.524 . S
C1439 C1431 1.503 . S
C1439 C1438 1.370 . S
C1439 C1440 1.403 . S
C1440 C1439 1.403 . S
C1440 C1441 1.404 . S
C1440 C1443 1.539 . S
C1441 C1437 1.408 . S
C1441 C1440 1.404 . S
C1441 H1453 0.930 . S
C1442 C1438 1.524 . S
C1442 H1454 0.956 . S
C1442 H1455 0.961 . S
C1442 H1456 0.961 . S
C1443 C1440 1.539 . S
C1443 H1457 0.958 . S
C1443 H1458 0.961 . S
C1443 H1459 0.960 . S
H1444 C1428 0.931 . S
H1445 C1433 0.929 . S
H1446 C1434 0.960 . S
H1447 C1434 0.962 . S
H1448 C1434 0.960 . S
H1449 C1435 0.961 . S
H1450 C1435 0.961 . S
H1451 C1435 0.961 . S
H1452 C1436 0.931 . S
H1453 C1441 0.930 . S
H1454 C1442 0.956 . S
H1455 C1442 0.961 . S
H1456 C1442 0.961 . S
H1457 C1443 0.958 . S
H1458 C1443 0.961 . S
H1459 C1443 0.960 . S
C1460 C1461 1.391 . S
C1460 C1462 1.394 . S
C1460 H1476 0.931 . S
C1461 C1460 1.391 . S
C1461 C1465 1.376 . S
C1462 C1460 1.394 . S
C1462 C1463 1.369 . S
C1462 C1466 1.531 . S
C1463 C1462 1.369 . S
C1463 C1464 1.410 . S
C1463 C1471 1.503 . S
C1464 C1463 1.410 . S
C1464 C1465 1.392 . S
C1464 C1467 1.511 . S
C1465 C1461 1.376 . S
C1465 C1464 1.392 . S
C1465 H1477 0.929 . S
C1466 C1462 1.531 . S
C1466 H1478 0.960 . S
C1466 H1479 0.962 . S
C1466 H1480 0.960 . S
C1467 C1464 1.511 . S
C1467 H1481 0.961 . S
C1467 H1482 0.961 . S
C1467 H1483 0.961 . S
C1468 C1469 1.370 . S
C1468 C1470 1.363 . S
C1468 H1484 0.931 . S
C1469 C1468 1.370 . S
C1469 C1473 1.408 1_545 S
C1470 C1468 1.363 . S
C1470 C1471 1.370 . S
C1470 C1474 1.524 . S
C1471 C1463 1.503 . S
C1471 C1470 1.370 . S
C1471 C1472 1.403 1_545 S
C1472 C1471 1.403 1_565 S
C1472 C1473 1.404 . S
C1472 C1475 1.539 . S
C1473 C1469 1.408 1_565 S
C1473 C1472 1.404 . S
C1473 H1485 0.930 . S
C1474 C1470 1.524 . S
C1474 H1486 0.956 . S
C1474 H1487 0.961 . S
C1474 H1488 0.961 . S
C1475 C1472 1.539 . S
C1475 H1489 0.958 . S
C1475 H1490 0.961 . S
C1475 H1491 0.960 . S
H1476 C1460 0.931 . S
H1477 C1465 0.929 . S
H1478 C1466 0.960 . S
H1479 C1466 0.962 . S
H1480 C1466 0.960 . S
H1481 C1467 0.961 . S
H1482 C1467 0.961 . S
H1483 C1467 0.961 . S
H1484 C1468 0.931 . S
H1485 C1473 0.930 . S
H1486 C1474 0.956 . S
H1487 C1474 0.961 . S
H1488 C1474 0.961 . S
H1489 C1475 0.958 . S
H1490 C1475 0.961 . S
H1491 C1475 0.960 . S
C1492 C1493 1.391 . S
C1492 C1494 1.394 . S
C1492 H1508 0.931 . S
C1493 C1492 1.391 . S
C1493 C1497 1.376 . S
C1494 C1492 1.394 . S
C1494 C1495 1.369 . S
C1494 C1498 1.531 . S
C1495 C1494 1.369 . S
C1495 C1496 1.410 . S
C1495 C1503 1.503 . S
C1496 C1495 1.410 . S
C1496 C1497 1.392 . S
C1496 C1499 1.511 . S
C1497 C1493 1.376 . S
C1497 C1496 1.392 . S
C1497 H1509 0.929 1_455 S
C1498 C1494 1.531 . S
C1498 H1510 0.960 . S
C1498 H1511 0.962 . S
C1498 H1512 0.960 . S
C1499 C1496 1.511 . S
C1499 H1513 0.961 1_455 S
C1499 H1514 0.961 . S
C1499 H1515 0.961 . S
C1500 C1501 1.370 . S
C1500 C1502 1.363 . S
C1500 H1516 0.931 . S
C1501 C1500 1.370 . S
C1501 C1505 1.408 . S
C1502 C1500 1.363 . S
C1502 C1503 1.370 . S
C1502 C1506 1.524 1_455 S
C1503 C1495 1.503 . S
C1503 C1502 1.370 . S
C1503 C1504 1.403 . S
C1504 C1503 1.403 . S
C1504 C1505 1.404 . S
C1504 C1507 1.539 . S
C1505 C1501 1.408 . S
C1505 C1504 1.404 . S
C1505 H1517 0.930 . S
C1506 C1502 1.524 1_655 S
C1506 H1518 0.956 . S
C1506 H1519 0.961 . S
C1506 H1520 0.961 . S
C1507 C1504 1.539 . S
C1507 H1521 0.958 . S
C1507 H1522 0.961 . S
C1507 H1523 0.960 . S
H1508 C1492 0.931 . S
H1509 C1497 0.929 1_655 S
H1510 C1498 0.960 . S
H1511 C1498 0.962 . S
H1512 C1498 0.960 . S
H1513 C1499 0.961 1_655 S
H1514 C1499 0.961 . S
H1515 C1499 0.961 . S
H1516 C1500 0.931 . S
H1517 C1505 0.930 . S
H1518 C1506 0.956 . S
H1519 C1506 0.961 . S
H1520 C1506 0.961 . S
H1521 C1507 0.958 . S
H1522 C1507 0.961 . S
H1523 C1507 0.960 . S
C1524 C1525 1.391 . S
C1524 C1526 1.394 . S
C1524 H1540 0.931 . S
C1525 C1524 1.391 . S
C1525 C1529 1.376 . S
C1526 C1524 1.394 . S
C1526 C1527 1.369 . S
C1526 C1530 1.531 . S
C1527 C1526 1.369 . S
C1527 C1528 1.410 . S
C1527 C1535 1.503 . S
C1528 C1527 1.410 . S
C1528 C1529 1.392 . S
C1528 C1531 1.511 . S
C1529 C1525 1.376 . S
C1529 C1528 1.392 . S
C1529 H1541 0.929 . S
C1530 C1526 1.531 . S
C1530 H1542 0.960 . S
C1530 H1543 0.962 . S
C1530 H1544 0.960 . S
C1531 C1528 1.511 . S
C1531 H1545 0.961 . S
C1531 H1546 0.961 . S
C1531 H1547 0.961 . S
C1532 C1533 1.370 . S
C1532 C1534 1.363 . S
C1532 H1548 0.931 . S
C1533 C1532 1.370 . S
C1533 C1537 1.408 . S
C1534 C1532 1.363 . S
C1534 C1535 1.370 . S
C1534 C1538 1.524 . S
C1535 C1527 1.503 . S
C1535 C1534 1.370 . S
C1535 C1536 1.403 . S
C1536 C1535 1.403 . S
C1536 C1537 1.404 . S
C1536 C1539 1.539 . S
C1537 C1533 1.408 . S
C1537 C1536 1.404 . S
C1537 H1549 0.930 . S
C1538 C1534 1.524 . S
C1538 H1550 0.956 . S
C1538 H1551 0.961 . S
C1538 H1552 0.961 . S
C1539 C1536 1.539 . S
C1539 H1553 0.958 . S
C1539 H1554 0.961 . S
C1539 H1555 0.960 . S
H1540 C1524 0.931 . S
H1541 C1529 0.929 . S
H1542 C1530 0.960 . S
H1543 C1530 0.962 . S
H1544 C1530 0.960 . S
H1545 C1531 0.961 . S
H1546 C1531 0.961 . S
H1547 C1531 0.961 . S
H1548 C1532 0.931 . S
H1549 C1537 0.930 . S
H1550 C1538 0.956 . S
H1551 C1538 0.961 . S
H1552 C1538 0.961 . S
H1553 C1539 0.958 . S
H1554 C1539 0.961 . S
H1555 C1539 0.960 . S
C1556 C1557 1.391 . S
C1556 C1558 1.394 . S
C1556 H1572 0.931 . S
C1557 C1556 1.391 . S
C1557 C1561 1.376 . S
C1558 C1556 1.394 . S
C1558 C1559 1.369 . S
C1558 C1562 1.531 . S
C1559 C1558 1.369 . S
C1559 C1560 1.410 . S
C1559 C1567 1.503 . S
C1560 C1559 1.410 . S
C1560 C1561 1.392 . S
C1560 C1563 1.511 . S
C1561 C1557 1.376 . S
C1561 C1560 1.392 . S
C1561 H1573 0.929 1_545 S
C1562 C1558 1.531 . S
C1562 H1574 0.960 . S
C1562 H1575 0.962 . S
C1562 H1576 0.960 . S
C1563 C1560 1.511 . S
C1563 H1577 0.961 1_545 S
C1563 H1578 0.961 . S
C1563 H1579 0.961 . S
C1564 C1565 1.370 . S
C1564 C1566 1.363 . S
C1564 H1580 0.931 . S
C1565 C1564 1.370 . S
C1565 C1569 1.408 . S
C1566 C1564 1.363 . S
C1566 C1567 1.370 . S
C1566 C1570 1.524 1_545 S
C1567 C1559 1.503 . S
C1567 C1566 1.370 . S
C1567 C1568 1.403 . S
C1568 C1567 1.403 . S
C1568 C1569 1.404 . S
C1568 C1571 1.539 . S
C1569 C1565 1.408 . S
C1569 C1568 1.404 . S
C1569 H1581 0.930 . S
C1570 C1566 1.524 1_565 S
C1570 H1582 0.956 . S
C1570 H1583 0.961 . S
C1570 H1584 0.961 . S
C1571 C1568 1.539 . S
C1571 H1585 0.958 . S
C1571 H1586 0.961 . S
C1571 H1587 0.960 . S
H1572 C1556 0.931 . S
H1573 C1561 0.929 1_565 S
H1574 C1562 0.960 . S
H1575 C1562 0.962 . S
H1576 C1562 0.960 . S
H1577 C1563 0.961 1_565 S
H1578 C1563 0.961 . S
H1579 C1563 0.961 . S
H1580 C1564 0.931 . S
H1581 C1569 0.930 . S
H1582 C1570 0.956 . S
H1583 C1570 0.961 . S
H1584 C1570 0.961 . S
H1585 C1571 0.958 . S
H1586 C1571 0.961 . S
H1587 C1571 0.960 . S
C1588 C1589 1.391 1_655 S
C1588 C1590 1.394 . S
C1588 H1604 0.931 . S
C1589 C1588 1.391 1_455 S
C1589 C1593 1.376 . S
C1590 C1588 1.394 . S
C1590 C1591 1.369 1_655 S
C1590 C1594 1.531 . S
C1591 C1590 1.369 1_455 S
C1591 C1592 1.410 . S
C1591 C1599 1.503 . S
C1592 C1591 1.410 . S
C1592 C1593 1.392 . S
C1592 C1595 1.511 . S
C1593 C1589 1.376 . S
C1593 C1592 1.392 . S
C1593 H1605 0.929 . S
C1594 C1590 1.531 . S
C1594 H1606 0.960 . S
C1594 H1607 0.962 . S
C1594 H1608 0.960 . S
C1595 C1592 1.511 . S
C1595 H1609 0.961 . S
C1595 H1610 0.961 . S
C1595 H1611 0.961 . S
C1596 C1597 1.370 . S
C1596 C1598 1.363 . S
C1596 H1612 0.931 . S
C1597 C1596 1.370 . S
C1597 C1601 1.408 . S
C1598 C1596 1.363 . S
C1598 C1599 1.370 . S
C1598 C1602 1.524 . S
C1599 C1591 1.503 . S
C1599 C1598 1.370 . S
C1599 C1600 1.403 . S
C1600 C1599 1.403 . S
C1600 C1601 1.404 . S
C1600 C1603 1.539 . S
C1601 C1597 1.408 . S
C1601 C1600 1.404 . S
C1601 H1613 0.930 . S
C1602 C1598 1.524 . S
C1602 H1614 0.956 . S
C1602 H1615 0.961 . S
C1602 H1616 0.961 . S
C1603 C1600 1.539 . S
C1603 H1617 0.958 . S
C1603 H1618 0.961 . S
C1603 H1619 0.960 . S
H1604 C1588 0.931 . S
H1605 C1593 0.929 . S
H1606 C1594 0.960 . S
H1607 C1594 0.962 . S
H1608 C1594 0.960 . S
H1609 C1595 0.961 . S
H1610 C1595 0.961 . S
H1611 C1595 0.961 . S
H1612 C1596 0.931 . S
H1613 C1601 0.930 . S
H1614 C1602 0.956 . S
H1615 C1602 0.961 . S
H1616 C1602 0.961 . S
H1617 C1603 0.958 . S
H1618 C1603 0.961 . S
H1619 C1603 0.960 . S
C1620 C1621 1.391 . S
C1620 C1622 1.394 . S
C1620 H1636 0.931 . S
C1621 C1620 1.391 . S
C1621 C1625 1.376 . S
C1622 C1620 1.394 . S
C1622 C1623 1.369 . S
C1622 C1626 1.505 1_455 S
C1623 C1622 1.369 . S
C1623 C1624 1.410 . S
C1623 C1631 1.503 1_554 S
C1624 C1623 1.410 . S
C1624 C1625 1.392 . S
C1624 C1627 1.511 . S
C1625 C1621 1.376 . S
C1625 C1624 1.392 . S
C1625 H1637 0.929 . S
C1626 C1622 1.505 1_655 S
C1626 H1638 0.914 1_654 S
C1626 H1639 0.978 . S
C1626 H1640 0.976 . S
C1627 C1624 1.511 . S
C1627 H1641 0.961 . S
C1627 H1642 0.961 1_554 S
C1627 H1643 0.961 . S
C1628 C1629 1.370 . S
C1628 C1630 1.363 . S
C1628 H1644 0.931 1_455 S
C1629 C1628 1.370 . S
C1629 C1633 1.408 . S
C1630 C1628 1.363 . S
C1630 C1631 1.370 . S
C1630 C1634 1.524 1_455 S
C1631 C1623 1.503 1_556 S
C1631 C1630 1.370 . S
C1631 C1632 1.403 . S
C1632 C1631 1.403 . S
C1632 C1633 1.404 . S
C1632 C1635 1.539 . S
C1633 C1629 1.408 . S
C1633 C1632 1.404 . S
C1633 H1645 0.930 . S
C1634 C1630 1.524 1_655 S
C1634 H1646 0.925 1_556 S
C1634 H1647 0.961 1_656 S
C1634 H1648 0.961 . S
C1635 C1632 1.539 . S
C1635 H1649 0.958 . S
C1635 H1650 0.961 . S
C1635 H1651 0.960 . S
H1636 C1620 0.931 . S
H1637 C1625 0.929 . S
H1638 C1626 0.914 1_456 S
H1639 C1626 0.978 . S
H1640 C1626 0.976 . S
H1641 C1627 0.961 . S
H1642 C1627 0.961 1_556 S
H1643 C1627 0.961 . S
H1644 C1628 0.931 1_655 S
H1645 C1633 0.930 . S
H1646 C1634 0.925 1_554 S
H1647 C1634 0.961 1_454 S
H1648 C1634 0.961 . S
H1649 C1635 0.958 . S
H1650 C1635 0.961 . S
H1651 C1635 0.960 . S
C1652 C1653 1.391 . S
C1652 C1654 1.394 . S
C1652 H1668 0.931 . S
C1653 C1652 1.391 . S
C1653 C1657 1.376 . S
C1654 C1652 1.394 . S
C1654 C1655 1.369 . S
C1654 C1658 1.531 . S
C1655 C1654 1.369 . S
C1655 C1656 1.410 . S
C1655 C1663 1.503 1_556 S
C1656 C1655 1.410 . S
C1656 C1657 1.392 . S
C1656 C1659 1.511 . S
C1657 C1653 1.376 . S
C1657 C1656 1.392 . S
C1657 H1669 0.929 . S
C1658 C1654 1.531 . S
C1658 H1670 0.960 1_556 S
C1658 H1671 0.962 . S
C1658 H1672 0.960 . S
C1659 C1656 1.511 . S
C1659 H1673 0.961 . S
C1659 H1674 0.961 1_556 S
C1659 H1675 0.961 . S
C1660 C1661 1.370 . S
C1660 C1662 1.363 . S
C1660 H1676 0.931 . S
C1661 C1660 1.370 . S
C1661 C1665 1.408 . S
C1662 C1660 1.363 . S
C1662 C1663 1.370 . S
C1662 C1666 1.524 . S
C1663 C1655 1.503 1_554 S
C1663 C1662 1.370 . S
C1663 C1664 1.403 . S
C1664 C1663 1.403 . S
C1664 C1665 1.404 . S
C1664 C1667 1.539 . S
C1665 C1661 1.408 . S
C1665 C1664 1.404 . S
C1665 H1677 0.930 . S
C1666 C1662 1.524 . S
C1666 H1678 0.919 1_554 S
C1666 H1679 0.961 1_554 S
C1666 H1680 0.961 . S
C1667 C1664 1.539 . S
C1667 H1681 0.958 . S
C1667 H1682 0.961 . S
C1667 H1683 0.960 . S
H1668 C1652 0.931 . S
H1669 C1657 0.929 . S
H1670 C1658 0.960 1_554 S
H1671 C1658 0.962 . S
H1672 C1658 0.960 . S
H1673 C1659 0.961 . S
H1674 C1659 0.961 1_554 S
H1675 C1659 0.961 . S
H1676 C1660 0.931 . S
H1677 C1665 0.930 . S
H1678 C1666 0.919 1_556 S
H1679 C1666 0.961 1_556 S
H1680 C1666 0.961 . S
H1681 C1667 0.958 . S
H1682 C1667 0.961 . S
H1683 C1667 0.960 . S
C1684 C1685 1.391 . S
C1684 C1686 1.394 . S
C1684 H1700 0.931 1_545 S
C1685 C1684 1.391 . S
C1685 C1689 1.376 . S
C1686 C1684 1.394 . S
C1686 C1687 1.369 . S
C1686 C1690 1.531 1_545 S
C1687 C1686 1.369 . S
C1687 C1688 1.410 . S
C1687 C1695 1.503 1_556 S
C1688 C1687 1.410 . S
C1688 C1689 1.392 . S
C1688 C1691 1.511 . S
C1689 C1685 1.376 . S
C1689 C1688 1.392 . S
C1689 H1701 0.929 . S
C1690 C1686 1.531 1_565 S
C1690 H1702 0.956 1_556 S
C1690 H1703 0.962 . S
C1690 H1704 0.960 . S
C1691 C1688 1.511 . S
C1691 H1705 0.961 . S
C1691 H1706 0.961 1_556 S
C1691 H1707 0.961 . S
C1692 C1693 1.370 . S
C1692 C1694 1.363 . S
C1692 H1708 0.931 . S
C1693 C1692 1.370 . S
C1693 C1697 1.408 . S
C1694 C1692 1.363 . S
C1694 C1695 1.370 . S
C1694 C1698 1.524 . S
C1695 C1687 1.503 1_554 S
C1695 C1694 1.370 . S
C1695 C1696 1.403 . S
C1696 C1695 1.403 . S
C1696 C1697 1.404 . S
C1696 C1699 1.539 . S
C1697 C1693 1.408 . S
C1697 C1696 1.404 . S
C1697 H1709 0.930 . S
C1698 C1694 1.524 . S
C1698 H1710 0.939 1_544 S
C1698 H1711 0.961 1_554 S
C1698 H1712 0.961 . S
C1699 C1696 1.539 . S
C1699 H1713 0.958 . S
C1699 H1714 0.961 . S
C1699 H1715 0.960 . S
H1700 C1684 0.931 1_565 S
H1701 C1689 0.929 . S
H1702 C1690 0.956 1_554 S
H1703 C1690 0.962 . S
H1704 C1690 0.960 . S
H1705 C1691 0.961 . S
H1706 C1691 0.961 1_554 S
H1707 C1691 0.961 . S
H1708 C1692 0.931 . S
H1709 C1697 0.930 . S
H1710 C1698 0.939 1_566 S
H1711 C1698 0.961 1_556 S
H1712 C1698 0.961 . S
H1713 C1699 0.958 . S
H1714 C1699 0.961 . S
H1715 C1699 0.960 . S
C1716 C1717 1.391 . S
C1716 C1718 1.394 . S
C1716 H1732 0.931 . S
C1717 C1716 1.391 . S
C1717 C1721 1.376 . S
C1718 C1716 1.394 . S
C1718 C1719 1.369 . S
C1718 C1722 1.531 . S
C1719 C1718 1.369 . S
C1719 C1720 1.410 . S
C1719 C1727 1.503 1_556 S
C1720 C1719 1.410 . S
C1720 C1721 1.392 . S
C1720 C1723 1.511 . S
C1721 C1717 1.376 . S
C1721 C1720 1.392 . S
C1721 H1733 0.929 . S
C1722 C1718 1.531 . S
C1722 H1734 0.960 1_456 S
C1722 H1735 0.962 . S
C1722 H1736 0.960 1_455 S
C1723 C1720 1.511 . S
C1723 H1737 0.961 . S
C1723 H1738 0.897 1_556 S
C1723 H1739 0.961 . S
C1724 C1725 1.370 . S
C1724 C1726 1.363 . S
C1724 H1740 0.931 . S
C1725 C1724 1.370 . S
C1725 C1729 1.408 . S
C1726 C1724 1.363 . S
C1726 C1727 1.370 . S
C1726 C1730 1.524 . S
C1727 C1719 1.503 1_554 S
C1727 C1726 1.370 . S
C1727 C1728 1.403 . S
C1728 C1727 1.403 . S
C1728 C1729 1.404 . S
C1728 C1731 1.539 1_455 S
C1729 C1725 1.408 . S
C1729 C1728 1.404 . S
C1729 H1741 0.930 1_455 S
C1730 C1726 1.524 . S
C1730 H1742 0.938 1_554 S
C1730 H1743 0.961 1_554 S
C1730 H1744 0.961 . S
C1731 C1728 1.539 1_655 S
C1731 H1745 0.958 . S
C1731 H1746 0.961 . S
C1731 H1747 0.960 . S
H1732 C1716 0.931 . S
H1733 C1721 0.929 . S
H1734 C1722 0.960 1_654 S
H1735 C1722 0.962 . S
H1736 C1722 0.960 1_655 S
H1737 C1723 0.961 . S
H1738 C1723 0.897 1_554 S
H1739 C1723 0.961 . S
H1740 C1724 0.931 . S
H1741 C1729 0.930 1_655 S
H1742 C1730 0.938 1_556 S
H1743 C1730 0.961 1_556 S
H1744 C1730 0.961 . S
H1745 C1731 0.958 . S
H1746 C1731 0.961 . S
H1747 C1731 0.960 . S
C1748 C1749 1.391 . S
C1748 C1750 1.394 . S
C1748 H1764 0.931 . S
C1749 C1748 1.391 . S
C1749 C1753 1.376 . S
C1750 C1748 1.394 . S
C1750 C1751 1.369 . S
C1750 C1754 1.531 . S
C1751 C1750 1.369 . S
C1751 C1752 1.410 . S
C1751 C1759 1.503 1_554 S
C1752 C1751 1.410 . S
C1752 C1753 1.392 . S
C1752 C1755 1.511 . S
C1753 C1749 1.376 . S
C1753 C1752 1.392 . S
C1753 H1765 0.929 . S
C1754 C1750 1.531 . S
C1754 H1766 0.942 1_554 S
C1754 H1767 0.962 . S
C1754 H1768 0.960 . S
C1755 C1752 1.511 . S
C1755 H1769 0.961 . S
C1755 H1770 0.961 1_554 S
C1755 H1771 0.961 . S
C1756 C1757 1.370 . S
C1756 C1758 1.363 . S
C1756 H1772 0.931 . S
C1757 C1756 1.370 . S
C1757 C1761 1.408 . S
C1758 C1756 1.363 . S
C1758 C1759 1.370 . S
C1758 C1762 1.524 . S
C1759 C1751 1.503 1_556 S
C1759 C1758 1.370 . S
C1759 C1760 1.403 . S
C1760 C1759 1.403 . S
C1760 C1761 1.404 . S
C1760 C1763 1.539 . S
C1761 C1757 1.408 . S
C1761 C1760 1.404 . S
C1761 H1773 0.930 . S
C1762 C1758 1.524 . S
C1762 H1774 0.931 1_556 S
C1762 H1775 0.961 1_556 S
C1762 H1776 0.961 . S
C1763 C1760 1.539 . S
C1763 H1777 0.958 . S
C1763 H1778 0.961 . S
C1763 H1779 0.960 . S
H1764 C1748 0.931 . S
H1765 C1753 0.929 . S
H1766 C1754 0.942 1_556 S
H1767 C1754 0.962 . S
H1768 C1754 0.960 . S
H1769 C1755 0.961 . S
H1770 C1755 0.961 1_556 S
H1771 C1755 0.961 . S
H1772 C1756 0.931 . S
H1773 C1761 0.930 . S
H1774 C1762 0.931 1_554 S
H1775 C1762 0.961 1_554 S
H1776 C1762 0.961 . S
H1777 C1763 0.958 . S
H1778 C1763 0.961 . S
H1779 C1763 0.960 . S
C1780 C1781 1.391 . S
C1780 C1782 1.394 . S
C1780 H1796 0.931 . S
C1781 C1780 1.391 . S
C1781 C1785 1.376 . S
C1782 C1780 1.394 . S
C1782 C1783 1.369 . S
C1782 C1786 1.531 . S
C1783 C1782 1.369 . S
C1783 C1784 1.410 . S
C1783 C1791 1.503 1_556 S
C1784 C1783 1.410 . S
C1784 C1785 1.392 . S
C1784 C1787 1.511 . S
C1785 C1781 1.376 . S
C1785 C1784 1.392 . S
C1785 H1797 0.929 . S
C1786 C1782 1.531 . S
C1786 H1798 0.960 1_556 S
C1786 H1799 0.962 . S
C1786 H1800 0.960 . S
C1787 C1784 1.511 . S
C1787 H1801 0.961 . S
C1787 H1802 0.961 1_556 S
C1787 H1803 0.961 . S
C1788 C1789 1.370 . S
C1788 C1790 1.363 . S
C1788 H1804 0.931 1_545 S
C1789 C1788 1.370 . S
C1789 C1793 1.408 . S
C1790 C1788 1.363 . S
C1790 C1791 1.370 . S
C1790 C1794 1.524 1_545 S
C1791 C1783 1.503 1_554 S
C1791 C1790 1.370 . S
C1791 C1792 1.403 . S
C1792 C1791 1.403 . S
C1792 C1793 1.404 . S
C1792 C1795 1.539 . S
C1793 C1789 1.408 . S
C1793 C1792 1.404 . S
C1793 H1805 0.930 . S
C1794 C1790 1.524 1_565 S
C1794 H1806 0.929 1_554 S
C1794 H1807 0.961 1_554 S
C1794 H1808 0.961 . S
C1795 C1792 1.539 . S
C1795 H1809 0.958 . S
C1795 H1810 0.961 . S
C1795 H1811 0.960 . S
H1796 C1780 0.931 . S
H1797 C1785 0.929 . S
H1798 C1786 0.960 1_554 S
H1799 C1786 0.962 . S
H1800 C1786 0.960 . S
H1801 C1787 0.961 . S
H1802 C1787 0.961 1_554 S
H1803 C1787 0.961 . S
H1804 C1788 0.931 1_565 S
H1805 C1793 0.930 . S
H1806 C1794 0.929 1_556 S
H1807 C1794 0.961 1_556 S
H1808 C1794 0.961 . S
H1809 C1795 0.958 . S
H1810 C1795 0.961 . S
H1811 C1795 0.960 . S
C1812 C1813 1.391 . S
C1812 C1814 1.394 . S
C1812 H1828 0.931 . S
C1813 C1812 1.391 . S
C1813 C1817 1.376 . S
C1814 C1812 1.394 . S
C1814 C1815 1.369 . S
C1814 C1818 1.531 . S
C1815 C1814 1.369 . S
C1815 C1816 1.410 . S
C1815 C1823 1.503 . S
C1816 C1815 1.410 . S
C1816 C1817 1.392 . S
C1816 C1819 1.511 . S
C1817 C1813 1.376 . S
C1817 C1816 1.392 . S
C1817 H1829 0.929 . S
C1818 C1814 1.531 . S
C1818 H1830 0.960 . S
C1818 H1831 0.962 . S
C1818 H1832 0.960 . S
C1819 C1816 1.511 . S
C1819 H1833 0.961 . S
C1819 H1834 0.961 . S
C1819 H1835 0.961 . S
C1820 C1821 1.370 . S
C1820 C1822 1.363 . S
C1820 H1836 0.931 . S
C1821 C1820 1.370 . S
C1821 C1825 1.408 . S
C1822 C1820 1.363 . S
C1822 C1823 1.370 . S
C1822 C1826 1.524 . S
C1823 C1815 1.503 . S
C1823 C1822 1.370 . S
C1823 C1824 1.403 . S
C1824 C1823 1.403 . S
C1824 C1825 1.404 . S
C1824 C1827 1.539 . S
C1825 C1821 1.408 . S
C1825 C1824 1.404 . S
C1825 H1837 0.930 . S
C1826 C1822 1.524 . S
C1826 H1838 0.956 . S
C1826 H1839 0.961 . S
C1826 H1840 0.961 . S
C1827 C1824 1.539 . S
C1827 H1841 0.958 . S
C1827 H1842 0.961 . S
C1827 H1843 0.960 . S
H1828 C1812 0.931 . S
H1829 C1817 0.929 . S
H1830 C1818 0.960 . S
H1831 C1818 0.962 . S
H1832 C1818 0.960 . S
H1833 C1819 0.961 . S
H1834 C1819 0.961 . S
H1835 C1819 0.961 . S
H1836 C1820 0.931 . S
H1837 C1825 0.930 . S
H1838 C1826 0.956 . S
H1839 C1826 0.961 . S
H1840 C1826 0.961 . S
H1841 C1827 0.958 . S
H1842 C1827 0.961 . S
H1843 C1827 0.960 . S
C1844 C1845 1.391 . S
C1844 C1846 1.394 . S
C1844 H1860 0.931 . S
C1845 C1844 1.391 . S
C1845 C1849 1.376 . S
C1846 C1844 1.394 . S
C1846 C1847 1.369 . S
C1846 C1850 1.531 . S
C1847 C1846 1.369 . S
C1847 C1848 1.410 . S
C1847 C1855 1.503 . S
C1848 C1847 1.410 . S
C1848 C1849 1.392 . S
C1848 C1851 1.511 . S
C1849 C1845 1.376 . S
C1849 C1848 1.392 . S
C1849 H1861 0.929 . S
C1850 C1846 1.531 . S
C1850 H1862 0.960 . S
C1850 H1863 0.962 . S
C1850 H1864 0.960 . S
C1851 C1848 1.511 . S
C1851 H1865 0.961 . S
C1851 H1866 0.961 . S
C1851 H1867 0.961 . S
C1852 C1853 1.370 . S
C1852 C1854 1.363 . S
C1852 H1868 0.931 . S
C1853 C1852 1.370 . S
C1853 C1857 1.408 . S
C1854 C1852 1.363 . S
C1854 C1855 1.370 . S
C1854 C1858 1.524 . S
C1855 C1847 1.503 . S
C1855 C1854 1.370 . S
C1855 C1856 1.403 . S
C1856 C1855 1.403 . S
C1856 C1857 1.404 . S
C1856 C1859 1.539 . S
C1857 C1853 1.408 . S
C1857 C1856 1.404 . S
C1857 H1869 0.930 . S
C1858 C1854 1.524 . S
C1858 H1870 0.956 . S
C1858 H1871 0.961 . S
C1858 H1872 0.961 . S
C1859 C1856 1.539 . S
C1859 H1873 0.958 . S
C1859 H1874 0.961 . S
C1859 H1875 0.960 . S
H1860 C1844 0.931 . S
H1861 C1849 0.929 . S
H1862 C1850 0.960 . S
H1863 C1850 0.962 . S
H1864 C1850 0.960 . S
H1865 C1851 0.961 . S
H1866 C1851 0.961 . S
H1867 C1851 0.961 . S
H1868 C1852 0.931 . S
H1869 C1857 0.930 . S
H1870 C1858 0.956 . S
H1871 C1858 0.961 . S
H1872 C1858 0.961 . S
H1873 C1859 0.958 . S
H1874 C1859 0.961 . S
H1875 C1859 0.960 . S
C1876 C1877 1.391 . S
C1876 C1878 1.394 . S
C1876 H1892 0.931 . S
C1877 C1876 1.391 . S
C1877 C1881 1.376 . S
C1878 C1876 1.394 . S
C1878 C1879 1.369 . S
C1878 C1882 1.531 . S
C1879 C1878 1.369 . S
C1879 C1880 1.410 . S
C1879 C1887 1.503 . S
C1880 C1879 1.410 . S
C1880 C1881 1.392 . S
C1880 C1883 1.511 . S
C1881 C1877 1.376 . S
C1881 C1880 1.392 . S
C1881 H1893 0.929 . S
C1882 C1878 1.531 . S
C1882 H1894 0.960 . S
C1882 H1895 0.962 1_655 S
C1882 H1896 0.960 . S
C1883 C1880 1.511 . S
C1883 H1897 0.961 . S
C1883 H1898 0.961 . S
C1883 H1899 0.961 . S
C1884 C1885 1.370 . S
C1884 C1886 1.363 . S
C1884 H1900 0.931 1_655 S
C1885 C1884 1.370 . S
C1885 C1889 1.408 . S
C1886 C1884 1.363 . S
C1886 C1887 1.370 . S
C1886 C1890 1.524 1_655 S
C1887 C1879 1.503 . S
C1887 C1886 1.370 . S
C1887 C1888 1.403 . S
C1888 C1887 1.403 . S
C1888 C1889 1.404 . S
C1888 C1891 1.539 . S
C1889 C1885 1.408 . S
C1889 C1888 1.404 . S
C1889 H1901 0.930 . S
C1890 C1886 1.524 1_455 S
C1890 H1902 0.956 . S
C1890 H1903 0.961 . S
C1890 H1904 0.961 . S
C1891 C1888 1.539 . S
C1891 H1905 0.958 . S
C1891 H1906 0.961 . S
C1891 H1907 0.960 . S
H1892 C1876 0.931 . S
H1893 C1881 0.929 . S
H1894 C1882 0.960 . S
H1895 C1882 0.962 1_455 S
H1896 C1882 0.960 . S
H1897 C1883 0.961 . S
H1898 C1883 0.961 . S
H1899 C1883 0.961 . S
H1900 C1884 0.931 1_455 S
H1901 C1889 0.930 . S
H1902 C1890 0.956 . S
H1903 C1890 0.961 . S
H1904 C1890 0.961 . S
H1905 C1891 0.958 . S
H1906 C1891 0.961 . S
H1907 C1891 0.960 . S
C1908 C1909 1.391 . S
C1908 C1910 1.394 . S
C1908 H1924 0.931 . S
C1909 C1908 1.391 . S
C1909 C1913 1.376 . S
C1910 C1908 1.394 . S
C1910 C1911 1.369 . S
C1910 C1914 1.531 . S
C1911 C1910 1.369 . S
C1911 C1912 1.410 . S
C1911 C1919 1.503 . S
C1912 C1911 1.410 . S
C1912 C1913 1.392 . S
C1912 C1915 1.511 . S
C1913 C1909 1.376 . S
C1913 C1912 1.392 . S
C1913 H1925 0.929 . S
C1914 C1910 1.531 . S
C1914 H1926 0.960 . S
C1914 H1927 0.962 . S
C1914 H1928 0.960 . S
C1915 C1912 1.511 . S
C1915 H1929 0.961 . S
C1915 H1930 0.961 . S
C1915 H1931 0.961 . S
C1916 C1917 1.370 . S
C1916 C1918 1.363 . S
C1916 H1932 0.931 . S
C1917 C1916 1.370 . S
C1917 C1921 1.408 . S
C1918 C1916 1.363 . S
C1918 C1919 1.370 . S
C1918 C1922 1.524 . S
C1919 C1911 1.503 . S
C1919 C1918 1.370 . S
C1919 C1920 1.403 . S
C1920 C1919 1.403 . S
C1920 C1921 1.404 . S
C1920 C1923 1.539 . S
C1921 C1917 1.408 . S
C1921 C1920 1.404 . S
C1921 H1933 0.930 . S
C1922 C1918 1.524 . S
C1922 H1934 0.956 . S
C1922 H1935 0.961 . S
C1922 H1936 0.961 . S
C1923 C1920 1.539 . S
C1923 H1937 0.958 . S
C1923 H1938 0.961 . S
C1923 H1939 0.960 . S
H1924 C1908 0.931 . S
H1925 C1913 0.929 . S
H1926 C1914 0.960 . S
H1927 C1914 0.962 . S
H1928 C1914 0.960 . S
H1929 C1915 0.961 . S
H1930 C1915 0.961 . S
H1931 C1915 0.961 . S
H1932 C1916 0.931 . S
H1933 C1921 0.930 . S
H1934 C1922 0.956 . S
H1935 C1922 0.961 . S
H1936 C1922 0.961 . S
H1937 C1923 0.958 . S
H1938 C1923 0.961 . S
H1939 C1923 0.960 . S
C1940 C1941 1.391 . S
C1940 C1942 1.395 . S
C1940 H1956 0.931 1_655 S
C1941 C1940 1.391 . S
C1941 C1945 1.376 . S
C1942 C1940 1.395 . S
C1942 C1943 1.381 . S
C1942 C1946 1.517 1_655 S
C1943 C1942 1.381 . S
C1943 C1944 1.410 . S
C1943 C1951 1.503 . S
C1944 C1943 1.410 . S
C1944 C1945 1.392 . S
C1944 C1947 1.511 . S
C1945 C1941 1.376 . S
C1945 C1944 1.392 . S
C1945 H1957 0.929 . S
C1946 C1942 1.517 1_455 S
C1946 H1958 0.960 . S
C1946 H1959 0.962 . S
C1946 H1960 0.960 . S
C1947 C1944 1.511 . S
C1947 H1961 0.961 . S
C1947 H1962 0.961 . S
C1947 H1963 0.961 . S
C1948 C1949 1.370 . S
C1948 C1950 1.363 . S
C1948 H1964 0.931 . S
C1949 C1948 1.370 . S
C1949 C1953 1.408 . S
C1950 C1948 1.363 . S
C1950 C1951 1.370 . S
C1950 C1954 1.524 . S
C1951 C1943 1.503 . S
C1951 C1950 1.370 . S
C1951 C1952 1.403 . S
C1952 C1951 1.403 . S
C1952 C1953 1.404 . S
C1952 C1955 1.539 . S
C1953 C1949 1.408 . S
C1953 C1952 1.404 . S
C1953 H1965 0.930 . S
C1954 C1950 1.524 . S
C1954 H1966 0.956 . S
C1954 H1967 0.961 . S
C1954 H1968 0.961 . S
C1955 C1952 1.539 . S
C1955 H1969 0.958 1_655 S
C1955 H1970 0.961 . S
C1955 H1971 0.960 . S
H1956 C1940 0.931 1_455 S
H1957 C1945 0.929 . S
H1958 C1946 0.960 . S
H1959 C1946 0.962 . S
H1960 C1946 0.960 . S
H1961 C1947 0.961 . S
H1962 C1947 0.961 . S
H1963 C1947 0.961 . S
H1964 C1948 0.931 . S
H1965 C1953 0.930 . S
H1966 C1954 0.956 . S
H1967 C1954 0.961 . S
H1968 C1954 0.961 . S
H1969 C1955 0.958 1_455 S
H1970 C1955 0.961 . S
H1971 C1955 0.960 . S
C1972 C1973 1.391 . S
C1972 C1974 1.394 . S
C1972 H1988 0.931 . S
C1973 C1972 1.391 . S
C1973 C1977 1.376 . S
C1974 C1972 1.394 . S
C1974 C1975 1.369 . S
C1974 C1978 1.531 . S
C1975 C1974 1.369 . S
C1975 C1976 1.410 . S
C1975 C1983 1.503 . S
C1976 C1975 1.410 . S
C1976 C1977 1.392 . S
C1976 C1979 1.511 . S
C1977 C1973 1.376 . S
C1977 C1976 1.392 . S
C1977 H1989 0.929 . S
C1978 C1974 1.531 . S
C1978 H1990 0.960 . S
C1978 H1991 0.962 . S
C1978 H1992 0.960 . S
C1979 C1976 1.511 . S
C1979 H1993 0.961 . S
C1979 H1994 0.961 . S
C1979 H1995 0.961 . S
C1980 C1981 1.370 . S
C1980 C1982 1.363 . S
C1980 H1996 0.931 . S
C1981 C1980 1.370 . S
C1981 C1985 1.408 . S
C1982 C1980 1.363 . S
C1982 C1983 1.370 . S
C1982 C1986 1.524 . S
C1983 C1975 1.503 . S
C1983 C1982 1.370 . S
C1983 C1984 1.403 . S
C1984 C1983 1.403 . S
C1984 C1985 1.404 . S
C1984 C1987 1.539 . S
C1985 C1981 1.408 . S
C1985 C1984 1.404 . S
C1985 H1997 0.930 . S
C1986 C1982 1.524 . S
C1986 H1998 0.956 . S
C1986 H1999 0.961 . S
C1986 H2000 0.961 . S
C1987 C1984 1.539 . S
C1987 H2001 0.958 . S
C1987 H2002 0.961 . S
C1987 H2003 0.960 . S
H1988 C1972 0.931 . S
H1989 C1977 0.929 . S
H1990 C1978 0.960 . S
H1991 C1978 0.962 . S
H1992 C1978 0.960 . S
H1993 C1979 0.961 . S
H1994 C1979 0.961 . S
H1995 C1979 0.961 . S
H1996 C1980 0.931 . S
H1997 C1985 0.930 . S
H1998 C1986 0.956 . S
H1999 C1986 0.961 . S
H2000 C1986 0.961 . S
H2001 C1987 0.958 . S
H2002 C1987 0.961 . S
H2003 C1987 0.960 . S
C2004 C2005 1.391 . S
C2004 C2006 1.394 . S
C2004 H2020 0.931 . S
C2005 C2004 1.391 . S
C2005 C2009 1.376 . S
C2006 C2004 1.394 . S
C2006 C2007 1.369 . S
C2006 C2010 1.531 1_565 S
C2007 C2006 1.369 . S
C2007 C2008 1.410 . S
C2007 C2015 1.503 . S
C2008 C2007 1.410 . S
C2008 C2009 1.392 . S
C2008 C2011 1.511 . S
C2009 C2005 1.376 . S
C2009 C2008 1.392 . S
C2009 H2021 0.929 . S
C2010 C2006 1.531 1_545 S
C2010 H2022 0.960 . S
C2010 H2023 0.962 1_545 S
C2010 H2024 0.960 . S
C2011 C2008 1.511 . S
C2011 H2025 0.961 . S
C2011 H2026 0.961 . S
C2011 H2027 0.961 . S
C2012 C2013 1.370 . S
C2012 C2014 1.363 . S
C2012 H2028 0.931 . S
C2013 C2012 1.370 . S
C2013 C2017 1.408 . S
C2014 C2012 1.363 . S
C2014 C2015 1.370 . S
C2014 C2018 1.524 . S
C2015 C2007 1.503 . S
C2015 C2014 1.370 . S
C2015 C2016 1.385 1_565 S
C2016 C2015 1.385 1_545 S
C2016 C2017 1.403 1_545 S
C2016 C2019 1.557 . S
C2017 C2013 1.408 . S
C2017 C2016 1.403 1_565 S
C2017 H2029 0.930 1_565 S
C2018 C2014 1.524 . S
C2018 H2030 0.956 . S
C2018 H2031 0.961 . S
C2018 H2032 0.961 . S
C2019 C2016 1.557 . S
C2019 H2033 0.958 . S
C2019 H2034 0.961 . S
C2019 H2035 0.960 . S
H2020 C2004 0.931 . S
H2021 C2009 0.929 . S
H2022 C2010 0.960 . S
H2023 C2010 0.962 1_565 S
H2024 C2010 0.960 . S
H2025 C2011 0.961 . S
H2026 C2011 0.961 . S
H2027 C2011 0.961 . S
H2028 C2012 0.931 . S
H2029 C2017 0.930 1_545 S
H2030 C2018 0.956 . S
H2031 C2018 0.961 . S
H2032 C2018 0.961 . S
H2033 C2019 0.958 . S
H2034 C2019 0.961 . S
H2035 C2019 0.960 . S
C2036 C2037 1.391 . S
C2036 C2038 1.394 . S
C2036 H2052 0.931 . S
C2037 C2036 1.391 . S
C2037 C2041 1.376 . S
C2038 C2036 1.394 . S
C2038 C2039 1.369 . S
C2038 C2042 1.531 . S
C2039 C2038 1.369 . S
C2039 C2040 1.410 . S
C2039 C2047 1.503 . S
C2040 C2039 1.410 . S
C2040 C2041 1.392 . S
C2040 C2043 1.511 . S
C2041 C2037 1.376 . S
C2041 C2040 1.392 . S
C2041 H2053 0.929 . S
C2042 C2038 1.531 . S
C2042 H2054 0.960 . S
C2042 H2055 0.962 . S
C2042 H2056 0.960 . S
C2043 C2040 1.511 . S
C2043 H2057 0.961 . S
C2043 H2058 0.961 . S
C2043 H2059 0.961 . S
C2044 C2045 1.370 . S
C2044 C2046 1.363 . S
C2044 H2060 0.931 . S
C2045 C2044 1.370 . S
C2045 C2049 1.408 . S
C2046 C2044 1.363 . S
C2046 C2047 1.370 . S
C2046 C2050 1.524 . S
C2047 C2039 1.503 . S
C2047 C2046 1.370 . S
C2047 C2048 1.403 . S
C2048 C2047 1.403 . S
C2048 C2049 1.404 . S
C2048 C2051 1.539 . S
C2049 C2045 1.408 . S
C2049 C2048 1.404 . S
C2049 H2061 0.930 . S
C2050 C2046 1.524 . S
C2050 H2062 0.956 . S
C2050 H2063 0.961 . S
C2050 H2064 0.961 . S
C2051 C2048 1.539 . S
C2051 H2065 0.958 . S
C2051 H2066 0.961 . S
C2051 H2067 0.960 . S
H2052 C2036 0.931 . S
H2053 C2041 0.929 . S
H2054 C2042 0.960 . S
H2055 C2042 0.962 . S
H2056 C2042 0.960 . S
H2057 C2043 0.961 . S
H2058 C2043 0.961 . S
H2059 C2043 0.961 . S
H2060 C2044 0.931 . S
H2061 C2049 0.930 . S
H2062 C2050 0.956 . S
H2063 C2050 0.961 . S
H2064 C2050 0.961 . S
H2065 C2051 0.958 . S
H2066 C2051 0.961 . S
H2067 C2051 0.960 . S
C2068 C2069 1.391 . S
C2068 C2070 1.394 . S
C2068 H2084 0.931 . S
C2069 C2068 1.391 . S
C2069 C2073 1.376 . S
C2070 C2068 1.394 . S
C2070 C2071 1.369 . S
C2070 C2074 1.531 . S
C2071 C2070 1.369 . S
C2071 C2072 1.410 . S
C2071 C2079 1.503 . S
C2072 C2071 1.410 . S
C2072 C2073 1.392 . S
C2072 C2075 1.511 . S
C2073 C2069 1.376 . S
C2073 C2072 1.392 . S
C2073 H2085 0.929 . S
C2074 C2070 1.531 . S
C2074 H2086 0.960 . S
C2074 H2087 0.962 . S
C2074 H2088 0.960 . S
C2075 C2072 1.511 . S
C2075 H2089 0.961 . S
C2075 H2090 0.961 . S
C2075 H2091 0.961 . S
C2076 C2077 1.370 . S
C2076 C2078 1.363 . S
C2076 H2092 0.931 . S
C2077 C2076 1.370 . S
C2077 C2081 1.408 . S
C2078 C2076 1.363 . S
C2078 C2079 1.370 . S
C2078 C2082 1.524 . S
C2079 C2071 1.503 . S
C2079 C2078 1.370 . S
C2079 C2080 1.403 . S
C2080 C2079 1.403 . S
C2080 C2081 1.404 . S
C2080 C2083 1.539 . S
C2081 C2077 1.408 . S
C2081 C2080 1.404 . S
C2081 H2093 0.930 . S
C2082 C2078 1.524 . S
C2082 H2094 0.956 . S
C2082 H2095 0.961 . S
C2082 H2096 0.961 . S
C2083 C2080 1.539 . S
C2083 H2097 0.958 . S
C2083 H2098 0.961 . S
C2083 H2099 0.960 . S
H2084 C2068 0.931 . S
H2085 C2073 0.929 . S
H2086 C2074 0.960 . S
H2087 C2074 0.962 . S
H2088 C2074 0.960 . S
H2089 C2075 0.961 . S
H2090 C2075 0.961 . S
H2091 C2075 0.961 . S
H2092 C2076 0.931 . S
H2093 C2081 0.930 . S
H2094 C2082 0.956 . S
H2095 C2082 0.961 . S
H2096 C2082 0.961 . S
H2097 C2083 0.958 . S
H2098 C2083 0.961 . S
H2099 C2083 0.960 . S
C2100 C2101 1.391 . S
C2100 C2102 1.394 . S
C2100 H2116 0.931 . S
C2101 C2100 1.391 . S
C2101 C2105 1.376 . S
C2102 C2100 1.394 . S
C2102 C2103 1.369 . S
C2102 C2106 1.531 . S
C2103 C2102 1.369 . S
C2103 C2104 1.410 . S
C2103 C2111 1.503 . S
C2104 C2103 1.410 . S
C2104 C2105 1.392 . S
C2104 C2107 1.511 . S
C2105 C2101 1.376 . S
C2105 C2104 1.392 . S
C2105 H2117 0.929 . S
C2106 C2102 1.531 . S
C2106 H2118 0.960 . S
C2106 H2119 0.962 . S
C2106 H2120 0.960 . S
C2107 C2104 1.511 . S
C2107 H2121 0.961 . S
C2107 H2122 0.961 . S
C2107 H2123 0.961 . S
C2108 C2109 1.370 . S
C2108 C2110 1.363 . S
C2108 H2124 0.931 . S
C2109 C2108 1.370 . S
C2109 C2113 1.408 . S
C2110 C2108 1.363 . S
C2110 C2111 1.370 . S
C2110 C2114 1.524 . S
C2111 C2103 1.503 . S
C2111 C2110 1.370 . S
C2111 C2112 1.403 . S
C2112 C2111 1.403 . S
C2112 C2113 1.404 . S
C2112 C2115 1.539 . S
C2113 C2109 1.408 . S
C2113 C2112 1.404 . S
C2113 H2125 0.930 . S
C2114 C2110 1.524 . S
C2114 H2126 0.956 . S
C2114 H2127 0.961 . S
C2114 H2128 0.961 . S
C2115 C2112 1.539 . S
C2115 H2129 0.958 . S
C2115 H2130 0.961 . S
C2115 H2131 0.960 . S
H2116 C2100 0.931 . S
H2117 C2105 0.929 . S
H2118 C2106 0.960 . S
H2119 C2106 0.962 . S
H2120 C2106 0.960 . S
H2121 C2107 0.961 . S
H2122 C2107 0.961 . S
H2123 C2107 0.961 . S
H2124 C2108 0.931 . S
H2125 C2113 0.930 . S
H2126 C2114 0.956 . S
H2127 C2114 0.961 . S
H2128 C2114 0.961 . S
H2129 C2115 0.958 . S
H2130 C2115 0.961 . S
H2131 C2115 0.960 . S
C2132 C2133 1.391 . S
C2132 C2134 1.394 . S
C2132 H2148 0.931 . S
C2133 C2132 1.391 . S
C2133 C2137 1.376 . S
C2134 C2132 1.394 . S
C2134 C2135 1.369 . S
C2134 C2138 1.543 . S
C2135 C2134 1.369 . S
C2135 C2136 1.410 . S
C2135 C2143 1.503 . S
C2136 C2135 1.410 . S
C2136 C2137 1.392 . S
C2136 C2139 1.511 . S
C2137 C2133 1.376 . S
C2137 C2136 1.392 . S
C2137 H2149 0.929 . S
C2138 C2134 1.543 . S
C2138 H2150 0.957 1_565 S
C2138 H2151 0.969 . S
C2138 H2152 0.945 1_565 S
C2139 C2136 1.511 . S
C2139 H2153 0.961 . S
C2139 H2154 0.961 . S
C2139 H2155 0.961 . S
C2140 C2141 1.370 . S
C2140 C2142 1.363 . S
C2140 H2156 0.931 . S
C2141 C2140 1.370 . S
C2141 C2145 1.431 . S
C2142 C2140 1.363 . S
C2142 C2143 1.370 . S
C2142 C2146 1.524 . S
C2143 C2135 1.503 . S
C2143 C2142 1.370 . S
C2143 C2144 1.403 1_565 S
C2144 C2143 1.403 1_545 S
C2144 C2145 1.401 1_545 S
C2144 C2147 1.539 . S
C2145 C2141 1.431 . S
C2145 C2144 1.401 1_565 S
C2145 H2157 0.912 1_565 S
C2146 C2142 1.524 . S
C2146 H2158 0.956 . S
C2146 H2159 0.961 . S
C2146 H2160 0.961 . S
C2147 C2144 1.539 . S
C2147 H2161 0.958 . S
C2147 H2162 0.961 . S
C2147 H2163 0.960 . S
H2148 C2132 0.931 . S
H2149 C2137 0.929 . S
H2150 C2138 0.957 1_545 S
H2151 C2138 0.969 . S
H2152 C2138 0.945 1_545 S
H2153 C2139 0.961 . S
H2154 C2139 0.961 . S
H2155 C2139 0.961 . S
H2156 C2140 0.931 . S
H2157 C2145 0.912 1_545 S
H2158 C2146 0.956 . S
H2159 C2146 0.961 . S
H2160 C2146 0.961 . S
H2161 C2147 0.958 . S
H2162 C2147 0.961 . S
H2163 C2147 0.960 . S
C2164 C2165 1.391 . S
C2164 C2166 1.394 . S
C2164 H2180 0.931 . S
C2165 C2164 1.391 . S
C2165 C2169 1.376 . S
C2166 C2164 1.394 . S
C2166 C2167 1.369 . S
C2166 C2170 1.531 . S
C2167 C2166 1.369 . S
C2167 C2168 1.410 . S
C2167 C2175 1.503 . S
C2168 C2167 1.410 . S
C2168 C2169 1.392 . S
C2168 C2171 1.511 . S
C2169 C2165 1.376 . S
C2169 C2168 1.392 . S
C2169 H2181 0.929 . S
C2170 C2166 1.531 . S
C2170 H2182 0.960 . S
C2170 H2183 0.962 . S
C2170 H2184 0.960 . S
C2171 C2168 1.511 . S
C2171 H2185 0.961 . S
C2171 H2186 0.961 . S
C2171 H2187 0.961 . S
C2172 C2173 1.370 . S
C2172 C2174 1.363 . S
C2172 H2188 0.931 . S
C2173 C2172 1.370 . S
C2173 C2177 1.408 . S
C2174 C2172 1.363 . S
C2174 C2175 1.370 . S
C2174 C2178 1.524 . S
C2175 C2167 1.503 . S
C2175 C2174 1.370 . S
C2175 C2176 1.403 . S
C2176 C2175 1.403 . S
C2176 C2177 1.404 . S
C2176 C2179 1.539 . S
C2177 C2173 1.408 . S
C2177 C2176 1.404 . S
C2177 H2189 0.930 . S
C2178 C2174 1.524 . S
C2178 H2190 0.956 . S
C2178 H2191 0.961 . S
C2178 H2192 0.961 . S
C2179 C2176 1.539 . S
C2179 H2193 0.958 . S
C2179 H2194 0.961 . S
C2179 H2195 0.960 . S
H2180 C2164 0.931 . S
H2181 C2169 0.929 . S
H2182 C2170 0.960 . S
H2183 C2170 0.962 . S
H2184 C2170 0.960 . S
H2185 C2171 0.961 . S
H2186 C2171 0.961 . S
H2187 C2171 0.961 . S
H2188 C2172 0.931 . S
H2189 C2177 0.930 . S
H2190 C2178 0.956 . S
H2191 C2178 0.961 . S
H2192 C2178 0.961 . S
H2193 C2179 0.958 . S
H2194 C2179 0.961 . S
H2195 C2179 0.960 . S
C2196 C2197 1.391 . S
C2196 C2198 1.394 . S
C2196 H2212 0.931 . S
C2197 C2196 1.391 . S
C2197 C2201 1.376 . S
C2198 C2196 1.394 . S
C2198 C2199 1.369 . S
C2198 C2202 1.531 . S
C2199 C2198 1.369 . S
C2199 C2200 1.410 . S
C2199 C2207 1.503 . S
C2200 C2199 1.410 . S
C2200 C2201 1.392 . S
C2200 C2203 1.511 . S
C2201 C2197 1.376 . S
C2201 C2200 1.392 . S
C2201 H2213 0.929 . S
C2202 C2198 1.531 . S
C2202 H2214 0.960 . S
C2202 H2215 0.962 . S
C2202 H2216 0.960 . S
C2203 C2200 1.511 . S
C2203 H2217 0.961 . S
C2203 H2218 0.961 . S
C2203 H2219 0.961 . S
C2204 C2205 1.370 . S
C2204 C2206 1.363 . S
C2204 H2220 0.931 . S
C2205 C2204 1.370 . S
C2205 C2209 1.408 . S
C2206 C2204 1.363 . S
C2206 C2207 1.370 . S
C2206 C2210 1.524 . S
C2207 C2199 1.503 . S
C2207 C2206 1.370 . S
C2207 C2208 1.403 . S
C2208 C2207 1.403 . S
C2208 C2209 1.404 . S
C2208 C2211 1.539 . S
C2209 C2205 1.408 . S
C2209 C2208 1.404 . S
C2209 H2221 0.930 . S
C2210 C2206 1.524 . S
C2210 H2222 0.956 . S
C2210 H2223 0.961 . S
C2210 H2224 0.961 . S
C2211 C2208 1.539 . S
C2211 H2225 0.958 . S
C2211 H2226 0.961 . S
C2211 H2227 0.960 . S
H2212 C2196 0.931 . S
H2213 C2201 0.929 . S
H2214 C2202 0.960 . S
H2215 C2202 0.962 . S
H2216 C2202 0.960 . S
H2217 C2203 0.961 . S
H2218 C2203 0.961 . S
H2219 C2203 0.961 . S
H2220 C2204 0.931 . S
H2221 C2209 0.930 . S
H2222 C2210 0.956 . S
H2223 C2210 0.961 . S
H2224 C2210 0.961 . S
H2225 C2211 0.958 . S
H2226 C2211 0.961 . S
H2227 C2211 0.960 . S
C2228 C2229 1.391 . S
C2228 C2230 1.394 . S
C2228 H2244 0.931 . S
C2229 C2228 1.391 . S
C2229 C2233 1.376 . S
C2230 C2228 1.394 . S
C2230 C2231 1.369 . S
C2230 C2234 1.531 . S
C2231 C2230 1.369 . S
C2231 C2232 1.410 . S
C2231 C2239 1.503 . S
C2232 C2231 1.410 . S
C2232 C2233 1.392 . S
C2232 C2235 1.511 . S
C2233 C2229 1.376 . S
C2233 C2232 1.392 . S
C2233 H2245 0.929 . S
C2234 C2230 1.531 . S
C2234 H2246 0.960 . S
C2234 H2247 0.962 . S
C2234 H2248 0.960 . S
C2235 C2232 1.511 . S
C2235 H2249 0.961 . S
C2235 H2250 0.961 . S
C2235 H2251 0.961 . S
C2236 C2237 1.370 . S
C2236 C2238 1.363 . S
C2236 H2252 0.931 . S
C2237 C2236 1.370 . S
C2237 C2241 1.408 . S
C2238 C2236 1.363 . S
C2238 C2239 1.370 . S
C2238 C2242 1.524 . S
C2239 C2231 1.503 . S
C2239 C2238 1.370 . S
C2239 C2240 1.403 . S
C2240 C2239 1.403 . S
C2240 C2241 1.404 . S
C2240 C2243 1.539 . S
C2241 C2237 1.408 . S
C2241 C2240 1.404 . S
C2241 H2253 0.930 . S
C2242 C2238 1.524 . S
C2242 H2254 0.956 . S
C2242 H2255 0.961 . S
C2242 H2256 0.961 . S
C2243 C2240 1.539 . S
C2243 H2257 0.958 . S
C2243 H2258 0.961 . S
C2243 H2259 0.960 . S
H2244 C2228 0.931 . S
H2245 C2233 0.929 . S
H2246 C2234 0.960 . S
H2247 C2234 0.962 . S
H2248 C2234 0.960 . S
H2249 C2235 0.961 . S
H2250 C2235 0.961 . S
H2251 C2235 0.961 . S
H2252 C2236 0.931 . S
H2253 C2241 0.930 . S
H2254 C2242 0.956 . S
H2255 C2242 0.961 . S
H2256 C2242 0.961 . S
H2257 C2243 0.958 . S
H2258 C2243 0.961 . S
H2259 C2243 0.960 . S
C2260 C2261 1.391 . S
C2260 C2262 1.394 . S
C2260 H2276 0.931 . S
C2261 C2260 1.391 . S
C2261 C2265 1.376 . S
C2262 C2260 1.394 . S
C2262 C2263 1.369 . S
C2262 C2266 1.531 . S
C2263 C2262 1.369 . S
C2263 C2264 1.410 . S
C2263 C2271 1.503 . S
C2264 C2263 1.410 . S
C2264 C2265 1.392 . S
C2264 C2267 1.511 . S
C2265 C2261 1.376 . S
C2265 C2264 1.392 . S
C2265 H2277 0.929 . S
C2266 C2262 1.531 . S
C2266 H2278 0.960 . S
C2266 H2279 0.962 . S
C2266 H2280 0.960 . S
C2267 C2264 1.511 . S
C2267 H2281 0.961 . S
C2267 H2282 0.961 . S
C2267 H2283 0.961 . S
C2268 C2269 1.370 . S
C2268 C2270 1.363 . S
C2268 H2284 0.931 . S
C2269 C2268 1.370 . S
C2269 C2273 1.408 . S
C2270 C2268 1.363 . S
C2270 C2271 1.370 . S
C2270 C2274 1.524 . S
C2271 C2263 1.503 . S
C2271 C2270 1.370 . S
C2271 C2272 1.403 . S
C2272 C2271 1.403 . S
C2272 C2273 1.404 . S
C2272 C2275 1.539 . S
C2273 C2269 1.408 . S
C2273 C2272 1.404 . S
C2273 H2285 0.930 . S
C2274 C2270 1.524 . S
C2274 H2286 0.956 . S
C2274 H2287 0.961 . S
C2274 H2288 0.961 . S
C2275 C2272 1.539 . S
C2275 H2289 0.958 . S
C2275 H2290 0.961 . S
C2275 H2291 0.960 . S
H2276 C2260 0.931 . S
H2277 C2265 0.929 . S
H2278 C2266 0.960 . S
H2279 C2266 0.962 . S
H2280 C2266 0.960 . S
H2281 C2267 0.961 . S
H2282 C2267 0.961 . S
H2283 C2267 0.961 . S
H2284 C2268 0.931 . S
H2285 C2273 0.930 . S
H2286 C2274 0.956 . S
H2287 C2274 0.961 . S
H2288 C2274 0.961 . S
H2289 C2275 0.958 . S
H2290 C2275 0.961 . S
H2291 C2275 0.960 . S
C2292 C2293 1.391 . S
C2292 C2294 1.394 . S
C2292 H2308 0.931 . S
C2293 C2292 1.391 . S
C2293 C2297 1.376 . S
C2294 C2292 1.394 . S
C2294 C2295 1.369 . S
C2294 C2298 1.531 . S
C2295 C2294 1.369 . S
C2295 C2296 1.410 . S
C2295 C2303 1.503 . S
C2296 C2295 1.410 . S
C2296 C2297 1.392 . S
C2296 C2299 1.511 . S
C2297 C2293 1.376 . S
C2297 C2296 1.392 . S
C2297 H2309 0.929 . S
C2298 C2294 1.531 . S
C2298 H2310 0.960 . S
C2298 H2311 0.962 . S
C2298 H2312 0.960 . S
C2299 C2296 1.511 . S
C2299 H2313 0.961 . S
C2299 H2314 0.961 . S
C2299 H2315 0.961 . S
C2300 C2301 1.370 . S
C2300 C2302 1.363 . S
C2300 H2316 0.931 . S
C2301 C2300 1.370 . S
C2301 C2305 1.408 . S
C2302 C2300 1.363 . S
C2302 C2303 1.370 . S
C2302 C2306 1.524 . S
C2303 C2295 1.503 . S
C2303 C2302 1.370 . S
C2303 C2304 1.403 . S
C2304 C2303 1.403 . S
C2304 C2305 1.404 . S
C2304 C2307 1.539 . S
C2305 C2301 1.408 . S
C2305 C2304 1.404 . S
C2305 H2317 0.930 . S
C2306 C2302 1.524 . S
C2306 H2318 0.956 . S
C2306 H2319 0.961 . S
C2306 H2320 0.961 . S
C2307 C2304 1.539 . S
C2307 H2321 0.958 . S
C2307 H2322 0.961 . S
C2307 H2323 0.960 . S
H2308 C2292 0.931 . S
H2309 C2297 0.929 . S
H2310 C2298 0.960 . S
H2311 C2298 0.962 . S
H2312 C2298 0.960 . S
H2313 C2299 0.961 . S
H2314 C2299 0.961 . S
H2315 C2299 0.961 . S
H2316 C2300 0.931 . S
H2317 C2305 0.930 . S
H2318 C2306 0.956 . S
H2319 C2306 0.961 . S
H2320 C2306 0.961 . S
H2321 C2307 0.958 . S
H2322 C2307 0.961 . S
H2323 C2307 0.960 . S
C2324 C2325 1.391 . S
C2324 C2326 1.394 . S
C2324 H2340 0.931 . S
C2325 C2324 1.391 . S
C2325 C2329 1.376 . S
C2326 C2324 1.394 . S
C2326 C2327 1.369 . S
C2326 C2330 1.531 . S
C2327 C2326 1.369 . S
C2327 C2328 1.410 . S
C2327 C2335 1.503 . S
C2328 C2327 1.410 . S
C2328 C2329 1.392 . S
C2328 C2331 1.511 . S
C2329 C2325 1.376 . S
C2329 C2328 1.392 . S
C2329 H2341 0.929 . S
C2330 C2326 1.531 . S
C2330 H2342 0.960 . S
C2330 H2343 0.962 . S
C2330 H2344 0.960 . S
C2331 C2328 1.511 . S
C2331 H2345 0.961 . S
C2331 H2346 0.961 . S
C2331 H2347 0.961 . S
C2332 C2333 1.370 . S
C2332 C2334 1.363 . S
C2332 H2348 0.931 . S
C2333 C2332 1.370 . S
C2333 C2337 1.408 . S
C2334 C2332 1.363 . S
C2334 C2335 1.370 . S
C2334 C2338 1.524 . S
C2335 C2327 1.503 . S
C2335 C2334 1.370 . S
C2335 C2336 1.403 . S
C2336 C2335 1.403 . S
C2336 C2337 1.404 . S
C2336 C2339 1.539 . S
C2337 C2333 1.408 . S
C2337 C2336 1.404 . S
C2337 H2349 0.930 . S
C2338 C2334 1.524 . S
C2338 H2350 0.956 . S
C2338 H2351 0.961 . S
C2338 H2352 0.961 . S
C2339 C2336 1.539 . S
C2339 H2353 0.958 . S
C2339 H2354 0.961 . S
C2339 H2355 0.960 . S
H2340 C2324 0.931 . S
H2341 C2329 0.929 . S
H2342 C2330 0.960 . S
H2343 C2330 0.962 . S
H2344 C2330 0.960 . S
H2345 C2331 0.961 . S
H2346 C2331 0.961 . S
H2347 C2331 0.961 . S
H2348 C2332 0.931 . S
H2349 C2337 0.930 . S
H2350 C2338 0.956 . S
H2351 C2338 0.961 . S
H2352 C2338 0.961 . S
H2353 C2339 0.958 . S
H2354 C2339 0.961 . S
H2355 C2339 0.960 . S
C2356 C2357 1.391 . S
C2356 C2358 1.394 . S
C2356 H2372 0.931 . S
C2357 C2356 1.391 . S
C2357 C2361 1.376 . S
C2358 C2356 1.394 . S
C2358 C2359 1.369 . S
C2358 C2362 1.531 . S
C2359 C2358 1.369 . S
C2359 C2360 1.410 . S
C2359 C2367 1.503 . S
C2360 C2359 1.410 . S
C2360 C2361 1.392 . S
C2360 C2363 1.511 . S
C2361 C2357 1.376 . S
C2361 C2360 1.392 . S
C2361 H2373 0.929 . S
C2362 C2358 1.531 . S
C2362 H2374 0.960 . S
C2362 H2375 0.962 . S
C2362 H2376 0.960 . S
C2363 C2360 1.511 . S
C2363 H2377 0.961 . S
C2363 H2378 0.961 . S
C2363 H2379 0.961 . S
C2364 C2365 1.370 . S
C2364 C2366 1.363 . S
C2364 H2380 0.931 . S
C2365 C2364 1.370 . S
C2365 C2369 1.408 . S
C2366 C2364 1.363 . S
C2366 C2367 1.370 . S
C2366 C2370 1.524 . S
C2367 C2359 1.503 . S
C2367 C2366 1.370 . S
C2367 C2368 1.403 . S
C2368 C2367 1.403 . S
C2368 C2369 1.404 . S
C2368 C2371 1.539 . S
C2369 C2365 1.408 . S
C2369 C2368 1.404 . S
C2369 H2381 0.930 . S
C2370 C2366 1.524 . S
C2370 H2382 0.956 . S
C2370 H2383 0.961 . S
C2370 H2384 0.961 . S
C2371 C2368 1.539 . S
C2371 H2385 0.958 . S
C2371 H2386 0.961 . S
C2371 H2387 0.960 . S
H2372 C2356 0.931 . S
H2373 C2361 0.929 . S
H2374 C2362 0.960 . S
H2375 C2362 0.962 . S
H2376 C2362 0.960 . S
H2377 C2363 0.961 . S
H2378 C2363 0.961 . S
H2379 C2363 0.961 . S
H2380 C2364 0.931 . S
H2381 C2369 0.930 . S
H2382 C2370 0.956 . S
H2383 C2370 0.961 . S
H2384 C2370 0.961 . S
H2385 C2371 0.958 . S
H2386 C2371 0.961 . S
H2387 C2371 0.960 . S
C2388 C2389 1.391 . S
C2388 C2390 1.394 . S
C2388 H2404 0.931 . S
C2389 C2388 1.391 . S
C2389 C2393 1.376 . S
C2390 C2388 1.394 . S
C2390 C2391 1.369 . S
C2390 C2394 1.531 . S
C2391 C2390 1.369 . S
C2391 C2392 1.410 . S
C2391 C2399 1.503 . S
C2392 C2391 1.410 . S
C2392 C2393 1.392 . S
C2392 C2395 1.511 . S
C2393 C2389 1.376 . S
C2393 C2392 1.392 . S
C2393 H2405 0.929 . S
C2394 C2390 1.531 . S
C2394 H2406 0.960 . S
C2394 H2407 0.962 . S
C2394 H2408 0.960 . S
C2395 C2392 1.511 . S
C2395 H2409 0.961 . S
C2395 H2410 0.961 . S
C2395 H2411 0.961 . S
C2396 C2397 1.370 . S
C2396 C2398 1.363 . S
C2396 H2412 0.931 . S
C2397 C2396 1.370 . S
C2397 C2401 1.408 . S
C2398 C2396 1.363 . S
C2398 C2399 1.370 . S
C2398 C2402 1.524 . S
C2399 C2391 1.503 . S
C2399 C2398 1.370 . S
C2399 C2400 1.403 . S
C2400 C2399 1.403 . S
C2400 C2401 1.404 . S
C2400 C2403 1.539 . S
C2401 C2397 1.408 . S
C2401 C2400 1.404 . S
C2401 H2413 0.930 . S
C2402 C2398 1.524 . S
C2402 H2414 0.956 . S
C2402 H2415 0.961 . S
C2402 H2416 0.961 . S
C2403 C2400 1.539 . S
C2403 H2417 0.958 . S
C2403 H2418 0.961 . S
C2403 H2419 0.960 . S
H2404 C2388 0.931 . S
H2405 C2393 0.929 . S
H2406 C2394 0.960 . S
H2407 C2394 0.962 . S
H2408 C2394 0.960 . S
H2409 C2395 0.961 . S
H2410 C2395 0.961 . S
H2411 C2395 0.961 . S
H2412 C2396 0.931 . S
H2413 C2401 0.930 . S
H2414 C2402 0.956 . S
H2415 C2402 0.961 . S
H2416 C2402 0.961 . S
H2417 C2403 0.958 . S
H2418 C2403 0.961 . S
H2419 C2403 0.960 . S
C2420 C2421 1.391 . S
C2420 C2422 1.394 . S
C2420 H2436 0.931 . S
C2421 C2420 1.391 . S
C2421 C2425 1.376 . S
C2422 C2420 1.394 . S
C2422 C2423 1.369 . S
C2422 C2426 1.531 . S
C2423 C2422 1.369 . S
C2423 C2424 1.410 . S
C2423 C2431 1.503 . S
C2424 C2423 1.410 . S
C2424 C2425 1.392 . S
C2424 C2427 1.511 . S
C2425 C2421 1.376 . S
C2425 C2424 1.392 . S
C2425 H2437 0.929 . S
C2426 C2422 1.531 . S
C2426 H2438 0.960 . S
C2426 H2439 0.962 . S
C2426 H2440 0.960 . S
C2427 C2424 1.511 . S
C2427 H2441 0.961 . S
C2427 H2442 0.961 . S
C2427 H2443 0.961 . S
C2428 C2429 1.370 . S
C2428 C2430 1.363 . S
C2428 H2444 0.931 . S
C2429 C2428 1.370 . S
C2429 C2433 1.408 . S
C2430 C2428 1.363 . S
C2430 C2431 1.370 . S
C2430 C2434 1.524 . S
C2431 C2423 1.503 . S
C2431 C2430 1.370 . S
C2431 C2432 1.403 . S
C2432 C2431 1.403 . S
C2432 C2433 1.404 . S
C2432 C2435 1.539 . S
C2433 C2429 1.408 . S
C2433 C2432 1.404 . S
C2433 H2445 0.930 . S
C2434 C2430 1.524 . S
C2434 H2446 0.956 . S
C2434 H2447 0.961 . S
C2434 H2448 0.961 . S
C2435 C2432 1.539 . S
C2435 H2449 0.958 . S
C2435 H2450 0.961 . S
C2435 H2451 0.960 . S
H2436 C2420 0.931 . S
H2437 C2425 0.929 . S
H2438 C2426 0.960 . S
H2439 C2426 0.962 . S
H2440 C2426 0.960 . S
H2441 C2427 0.961 . S
H2442 C2427 0.961 . S
H2443 C2427 0.961 . S
H2444 C2428 0.931 . S
H2445 C2433 0.930 . S
H2446 C2434 0.956 . S
H2447 C2434 0.961 . S
H2448 C2434 0.961 . S
H2449 C2435 0.958 . S
H2450 C2435 0.961 . S
H2451 C2435 0.960 . S
C2452 C2453 1.391 . S
C2452 C2454 1.394 . S
C2452 H2468 0.931 . S
C2453 C2452 1.391 . S
C2453 C2457 1.376 . S
C2454 C2452 1.394 . S
C2454 C2455 1.369 . S
C2454 C2458 1.531 . S
C2455 C2454 1.369 . S
C2455 C2456 1.410 . S
C2455 C2463 1.503 . S
C2456 C2455 1.410 . S
C2456 C2457 1.392 . S
C2456 C2459 1.511 . S
C2457 C2453 1.376 . S
C2457 C2456 1.392 . S
C2457 H2469 0.929 . S
C2458 C2454 1.531 . S
C2458 H2470 0.960 . S
C2458 H2471 0.962 . S
C2458 H2472 0.960 . S
C2459 C2456 1.511 . S
C2459 H2473 0.961 . S
C2459 H2474 0.961 . S
C2459 H2475 0.961 . S
C2460 C2461 1.370 . S
C2460 C2462 1.363 . S
C2460 H2476 0.931 1_655 S
C2461 C2460 1.370 . S
C2461 C2465 1.408 . S
C2462 C2460 1.363 . S
C2462 C2463 1.370 . S
C2462 C2466 1.524 1_655 S
C2463 C2455 1.503 . S
C2463 C2462 1.370 . S
C2463 C2464 1.403 . S
C2464 C2463 1.403 . S
C2464 C2465 1.404 . S
C2464 C2467 1.539 . S
C2465 C2461 1.408 . S
C2465 C2464 1.404 . S
C2465 H2477 0.930 . S
C2466 C2462 1.524 1_455 S
C2466 H2478 0.956 . S
C2466 H2479 0.961 . S
C2466 H2480 0.961 . S
C2467 C2464 1.539 . S
C2467 H2481 0.958 . S
C2467 H2482 0.961 . S
C2467 H2483 0.960 . S
H2468 C2452 0.931 . S
H2469 C2457 0.929 . S
H2470 C2458 0.960 . S
H2471 C2458 0.962 . S
H2472 C2458 0.960 . S
H2473 C2459 0.961 . S
H2474 C2459 0.961 . S
H2475 C2459 0.961 . S
H2476 C2460 0.931 1_455 S
H2477 C2465 0.930 . S
H2478 C2466 0.956 . S
H2479 C2466 0.961 . S
H2480 C2466 0.961 . S
H2481 C2467 0.958 . S
H2482 C2467 0.961 . S
H2483 C2467 0.960 . S
C2484 C2485 1.391 . S
C2484 C2486 1.394 . S
C2484 H2500 0.931 . S
C2485 C2484 1.391 . S
C2485 C2489 1.376 . S
C2486 C2484 1.394 . S
C2486 C2487 1.369 . S
C2486 C2490 1.531 . S
C2487 C2486 1.369 . S
C2487 C2488 1.410 . S
C2487 C2495 1.503 . S
C2488 C2487 1.410 . S
C2488 C2489 1.392 . S
C2488 C2491 1.511 . S
C2489 C2485 1.376 . S
C2489 C2488 1.392 . S
C2489 H2501 0.929 . S
C2490 C2486 1.531 . S
C2490 H2502 0.960 . S
C2490 H2503 0.962 . S
C2490 H2504 0.960 . S
C2491 C2488 1.511 . S
C2491 H2505 0.961 . S
C2491 H2506 0.961 . S
C2491 H2507 0.961 . S
C2492 C2493 1.370 . S
C2492 C2494 1.363 . S
C2492 H2508 0.931 . S
C2493 C2492 1.370 . S
C2493 C2497 1.408 . S
C2494 C2492 1.363 . S
C2494 C2495 1.370 . S
C2494 C2498 1.524 . S
C2495 C2487 1.503 . S
C2495 C2494 1.370 . S
C2495 C2496 1.403 . S
C2496 C2495 1.403 . S
C2496 C2497 1.404 . S
C2496 C2499 1.539 . S
C2497 C2493 1.408 . S
C2497 C2496 1.404 . S
C2497 H2509 0.930 . S
C2498 C2494 1.524 . S
C2498 H2510 0.956 . S
C2498 H2511 0.961 . S
C2498 H2512 0.961 . S
C2499 C2496 1.539 . S
C2499 H2513 0.958 . S
C2499 H2514 0.961 . S
C2499 H2515 0.960 . S
H2500 C2484 0.931 . S
H2501 C2489 0.929 . S
H2502 C2490 0.960 . S
H2503 C2490 0.962 . S
H2504 C2490 0.960 . S
H2505 C2491 0.961 . S
H2506 C2491 0.961 . S
H2507 C2491 0.961 . S
H2508 C2492 0.931 . S
H2509 C2497 0.930 . S
H2510 C2498 0.956 . S
H2511 C2498 0.961 . S
H2512 C2498 0.961 . S
H2513 C2499 0.958 . S
H2514 C2499 0.961 . S
H2515 C2499 0.960 . S
C2516 C2517 1.391 . S
C2516 C2518 1.394 . S
C2516 H2532 0.931 . S
C2517 C2516 1.391 . S
C2517 C2521 1.376 . S
C2518 C2516 1.394 . S
C2518 C2519 1.369 . S
C2518 C2522 1.531 . S
C2519 C2518 1.369 . S
C2519 C2520 1.410 . S
C2519 C2527 1.503 . S
C2520 C2519 1.410 . S
C2520 C2521 1.392 . S
C2520 C2523 1.511 . S
C2521 C2517 1.376 . S
C2521 C2520 1.392 . S
C2521 H2533 0.929 . S
C2522 C2518 1.531 . S
C2522 H2534 0.960 . S
C2522 H2535 0.962 . S
C2522 H2536 0.960 . S
C2523 C2520 1.511 . S
C2523 H2537 0.961 . S
C2523 H2538 0.961 . S
C2523 H2539 0.961 . S
C2524 C2525 1.370 . S
C2524 C2526 1.363 . S
C2524 H2540 0.931 . S
C2525 C2524 1.370 . S
C2525 C2529 1.408 . S
C2526 C2524 1.363 . S
C2526 C2527 1.370 . S
C2526 C2530 1.524 . S
C2527 C2519 1.503 . S
C2527 C2526 1.370 . S
C2527 C2528 1.403 . S
C2528 C2527 1.403 . S
C2528 C2529 1.404 . S
C2528 C2531 1.539 . S
C2529 C2525 1.408 . S
C2529 C2528 1.404 . S
C2529 H2541 0.930 . S
C2530 C2526 1.524 . S
C2530 H2542 0.956 . S
C2530 H2543 0.961 . S
C2530 H2544 0.961 . S
C2531 C2528 1.539 . S
C2531 H2545 0.958 . S
C2531 H2546 0.961 . S
C2531 H2547 0.960 . S
H2532 C2516 0.931 . S
H2533 C2521 0.929 . S
H2534 C2522 0.960 . S
H2535 C2522 0.962 . S
H2536 C2522 0.960 . S
H2537 C2523 0.961 . S
H2538 C2523 0.961 . S
H2539 C2523 0.961 . S
H2540 C2524 0.931 . S
H2541 C2529 0.930 . S
H2542 C2530 0.956 . S
H2543 C2530 0.961 . S
H2544 C2530 0.961 . S
H2545 C2531 0.958 . S
H2546 C2531 0.961 . S
H2547 C2531 0.960 . S
C2548 C2549 1.391 . S
C2548 C2550 1.394 . S
C2548 H2564 0.931 . S
C2549 C2548 1.391 . S
C2549 C2553 1.376 . S
C2550 C2548 1.394 . S
C2550 C2551 1.369 . S
C2550 C2554 1.531 . S
C2551 C2550 1.369 . S
C2551 C2552 1.410 . S
C2551 C2559 1.503 . S
C2552 C2551 1.410 . S
C2552 C2553 1.392 . S
C2552 C2555 1.511 . S
C2553 C2549 1.376 . S
C2553 C2552 1.392 . S
C2553 H2565 0.929 . S
C2554 C2550 1.531 . S
C2554 H2566 0.960 . S
C2554 H2567 0.962 . S
C2554 H2568 0.960 . S
C2555 C2552 1.511 . S
C2555 H2569 0.961 . S
C2555 H2570 0.961 . S
C2555 H2571 0.961 . S
C2556 C2557 1.370 . S
C2556 C2558 1.363 . S
C2556 H2572 0.931 . S
C2557 C2556 1.370 . S
C2557 C2561 1.408 . S
C2558 C2556 1.363 . S
C2558 C2559 1.370 . S
C2558 C2562 1.524 . S
C2559 C2551 1.503 . S
C2559 C2558 1.370 . S
C2559 C2560 1.403 . S
C2560 C2559 1.403 . S
C2560 C2561 1.404 . S
C2560 C2563 1.539 . S
C2561 C2557 1.408 . S
C2561 C2560 1.404 . S
C2561 H2573 0.930 . S
C2562 C2558 1.524 . S
C2562 H2574 0.956 . S
C2562 H2575 0.961 . S
C2562 H2576 0.961 . S
C2563 C2560 1.539 . S
C2563 H2577 0.958 . S
C2563 H2578 0.961 . S
C2563 H2579 0.960 . S
H2564 C2548 0.931 . S
H2565 C2553 0.929 . S
H2566 C2554 0.960 . S
H2567 C2554 0.962 . S
H2568 C2554 0.960 . S
H2569 C2555 0.961 . S
H2570 C2555 0.961 . S
H2571 C2555 0.961 . S
H2572 C2556 0.931 . S
H2573 C2561 0.930 . S
H2574 C2562 0.956 . S
H2575 C2562 0.961 . S
H2576 C2562 0.961 . S
H2577 C2563 0.958 . S
H2578 C2563 0.961 . S
H2579 C2563 0.960 . S
C2580 C2581 1.391 . S
C2580 C2582 1.394 . S
C2580 H2596 0.931 . S
C2581 C2580 1.391 . S
C2581 C2585 1.376 . S
C2582 C2580 1.394 . S
C2582 C2583 1.369 . S
C2582 C2586 1.531 . S
C2583 C2582 1.369 . S
C2583 C2584 1.410 . S
C2583 C2591 1.503 . S
C2584 C2583 1.410 . S
C2584 C2585 1.392 . S
C2584 C2587 1.511 . S
C2585 C2581 1.376 . S
C2585 C2584 1.392 . S
C2585 H2597 0.929 . S
C2586 C2582 1.531 . S
C2586 H2598 0.960 . S
C2586 H2599 0.962 . S
C2586 H2600 0.960 . S
C2587 C2584 1.511 . S
C2587 H2601 0.961 . S
C2587 H2602 0.961 . S
C2587 H2603 0.961 . S
C2588 C2589 1.370 . S
C2588 C2590 1.363 . S
C2588 H2604 0.931 . S
C2589 C2588 1.370 . S
C2589 C2593 1.408 . S
C2590 C2588 1.363 . S
C2590 C2591 1.370 . S
C2590 C2594 1.524 . S
C2591 C2583 1.503 . S
C2591 C2590 1.370 . S
C2591 C2592 1.403 . S
C2592 C2591 1.403 . S
C2592 C2593 1.404 . S
C2592 C2595 1.539 . S
C2593 C2589 1.408 . S
C2593 C2592 1.404 . S
C2593 H2605 0.930 . S
C2594 C2590 1.524 . S
C2594 H2606 0.956 . S
C2594 H2607 0.961 . S
C2594 H2608 0.961 . S
C2595 C2592 1.539 . S
C2595 H2609 0.958 . S
C2595 H2610 0.961 . S
C2595 H2611 0.960 . S
H2596 C2580 0.931 . S
H2597 C2585 0.929 . S
H2598 C2586 0.960 . S
H2599 C2586 0.962 . S
H2600 C2586 0.960 . S
H2601 C2587 0.961 . S
H2602 C2587 0.961 . S
H2603 C2587 0.961 . S
H2604 C2588 0.931 . S
H2605 C2593 0.930 . S
H2606 C2594 0.956 . S
H2607 C2594 0.961 . S
H2608 C2594 0.961 . S
H2609 C2595 0.958 . S
H2610 C2595 0.961 . S
H2611 C2595 0.960 . S
C2612 C2613 1.391 . S
C2612 C2614 1.394 . S
C2612 H2628 0.931 . S
C2613 C2612 1.391 . S
C2613 C2617 1.376 . S
C2614 C2612 1.394 . S
C2614 C2615 1.369 . S
C2614 C2618 1.531 . S
C2615 C2614 1.369 . S
C2615 C2616 1.410 . S
C2615 C2623 1.503 . S
C2616 C2615 1.410 . S
C2616 C2617 1.392 . S
C2616 C2619 1.511 . S
C2617 C2613 1.376 . S
C2617 C2616 1.392 . S
C2617 H2629 0.929 . S
C2618 C2614 1.531 . S
C2618 H2630 0.960 . S
C2618 H2631 0.962 . S
C2618 H2632 0.960 . S
C2619 C2616 1.511 . S
C2619 H2633 0.961 . S
C2619 H2634 0.961 . S
C2619 H2635 0.961 . S
C2620 C2621 1.370 . S
C2620 C2622 1.363 . S
C2620 H2636 0.931 . S
C2621 C2620 1.370 . S
C2621 C2625 1.408 . S
C2622 C2620 1.363 . S
C2622 C2623 1.370 . S
C2622 C2626 1.524 . S
C2623 C2615 1.503 . S
C2623 C2622 1.370 . S
C2623 C2624 1.403 . S
C2624 C2623 1.403 . S
C2624 C2625 1.404 . S
C2624 C2627 1.539 . S
C2625 C2621 1.408 . S
C2625 C2624 1.404 . S
C2625 H2637 0.930 . S
C2626 C2622 1.524 . S
C2626 H2638 0.956 . S
C2626 H2639 0.961 . S
C2626 H2640 0.961 . S
C2627 C2624 1.539 . S
C2627 H2641 0.958 . S
C2627 H2642 0.961 . S
C2627 H2643 0.960 . S
H2628 C2612 0.931 . S
H2629 C2617 0.929 . S
H2630 C2618 0.960 . S
H2631 C2618 0.962 . S
H2632 C2618 0.960 . S
H2633 C2619 0.961 . S
H2634 C2619 0.961 . S
H2635 C2619 0.961 . S
H2636 C2620 0.931 . S
H2637 C2625 0.930 . S
H2638 C2626 0.956 . S
H2639 C2626 0.961 . S
H2640 C2626 0.961 . S
H2641 C2627 0.958 . S
H2642 C2627 0.961 . S
H2643 C2627 0.960 . S
C2644 C2645 1.391 . S
C2644 C2646 1.394 . S
C2644 H2660 0.931 . S
C2645 C2644 1.391 . S
C2645 C2649 1.376 . S
C2646 C2644 1.394 . S
C2646 C2647 1.369 . S
C2646 C2650 1.531 . S
C2647 C2646 1.369 . S
C2647 C2648 1.410 . S
C2647 C2655 1.503 . S
C2648 C2647 1.410 . S
C2648 C2649 1.392 . S
C2648 C2651 1.511 . S
C2649 C2645 1.376 . S
C2649 C2648 1.392 . S
C2649 H2661 0.929 . S
C2650 C2646 1.531 . S
C2650 H2662 0.960 . S
C2650 H2663 0.962 . S
C2650 H2664 0.960 . S
C2651 C2648 1.511 . S
C2651 H2665 0.961 . S
C2651 H2666 0.961 . S
C2651 H2667 0.961 . S
C2652 C2653 1.370 . S
C2652 C2654 1.363 . S
C2652 H2668 0.931 . S
C2653 C2652 1.370 . S
C2653 C2657 1.408 . S
C2654 C2652 1.363 . S
C2654 C2655 1.370 . S
C2654 C2658 1.524 . S
C2655 C2647 1.503 . S
C2655 C2654 1.370 . S
C2655 C2656 1.403 . S
C2656 C2655 1.403 . S
C2656 C2657 1.404 . S
C2656 C2659 1.539 . S
C2657 C2653 1.408 . S
C2657 C2656 1.404 . S
C2657 H2669 0.930 . S
C2658 C2654 1.524 . S
C2658 H2670 0.956 . S
C2658 H2671 0.961 . S
C2658 H2672 0.961 . S
C2659 C2656 1.539 . S
C2659 H2673 0.958 . S
C2659 H2674 0.961 . S
C2659 H2675 0.960 . S
H2660 C2644 0.931 . S
H2661 C2649 0.929 . S
H2662 C2650 0.960 . S
H2663 C2650 0.962 . S
H2664 C2650 0.960 . S
H2665 C2651 0.961 . S
H2666 C2651 0.961 . S
H2667 C2651 0.961 . S
H2668 C2652 0.931 . S
H2669 C2657 0.930 . S
H2670 C2658 0.956 . S
H2671 C2658 0.961 . S
H2672 C2658 0.961 . S
H2673 C2659 0.958 . S
H2674 C2659 0.961 . S
H2675 C2659 0.960 . S
C2676 C2677 1.391 . S
C2676 C2678 1.394 . S
C2676 H2692 0.931 . S
C2677 C2676 1.391 . S
C2677 C2681 1.376 . S
C2678 C2676 1.394 . S
C2678 C2679 1.369 . S
C2678 C2682 1.531 . S
C2679 C2678 1.369 . S
C2679 C2680 1.410 . S
C2679 C2687 1.503 . S
C2680 C2679 1.410 . S
C2680 C2681 1.392 . S
C2680 C2683 1.511 . S
C2681 C2677 1.376 . S
C2681 C2680 1.392 . S
C2681 H2693 0.929 . S
C2682 C2678 1.531 . S
C2682 H2694 0.960 . S
C2682 H2695 0.962 . S
C2682 H2696 0.960 . S
C2683 C2680 1.511 . S
C2683 H2697 0.961 . S
C2683 H2698 0.961 . S
C2683 H2699 0.961 . S
C2684 C2685 1.370 . S
C2684 C2686 1.363 . S
C2684 H2700 0.931 . S
C2685 C2684 1.370 . S
C2685 C2689 1.408 . S
C2686 C2684 1.363 . S
C2686 C2687 1.370 . S
C2686 C2690 1.524 . S
C2687 C2679 1.503 . S
C2687 C2686 1.370 . S
C2687 C2688 1.403 . S
C2688 C2687 1.403 . S
C2688 C2689 1.404 . S
C2688 C2691 1.539 . S
C2689 C2685 1.408 . S
C2689 C2688 1.404 . S
C2689 H2701 0.930 . S
C2690 C2686 1.524 . S
C2690 H2702 0.956 . S
C2690 H2703 0.961 . S
C2690 H2704 0.961 . S
C2691 C2688 1.539 . S
C2691 H2705 0.958 . S
C2691 H2706 0.961 . S
C2691 H2707 0.960 . S
H2692 C2676 0.931 . S
H2693 C2681 0.929 . S
H2694 C2682 0.960 . S
H2695 C2682 0.962 . S
H2696 C2682 0.960 . S
H2697 C2683 0.961 . S
H2698 C2683 0.961 . S
H2699 C2683 0.961 . S
H2700 C2684 0.931 . S
H2701 C2689 0.930 . S
H2702 C2690 0.956 . S
H2703 C2690 0.961 . S
H2704 C2690 0.961 . S
H2705 C2691 0.958 . S
H2706 C2691 0.961 . S
H2707 C2691 0.960 . S
C2708 C2709 1.391 . S
C2708 C2710 1.394 . S
C2708 H2724 0.931 . S
C2709 C2708 1.391 . S
C2709 C2713 1.376 . S
C2710 C2708 1.394 . S
C2710 C2711 1.369 . S
C2710 C2714 1.531 . S
C2711 C2710 1.369 . S
C2711 C2712 1.410 . S
C2711 C2719 1.503 . S
C2712 C2711 1.410 . S
C2712 C2713 1.392 . S
C2712 C2715 1.511 1_565 S
C2713 C2709 1.376 . S
C2713 C2712 1.392 . S
C2713 H2725 0.929 . S
C2714 C2710 1.531 . S
C2714 H2726 0.960 . S
C2714 H2727 0.962 . S
C2714 H2728 0.960 . S
C2715 C2712 1.511 1_545 S
C2715 H2729 0.961 . S
C2715 H2730 0.961 1_545 S
C2715 H2731 0.961 . S
C2716 C2717 1.370 . S
C2716 C2718 1.363 . S
C2716 H2732 0.931 . S
C2717 C2716 1.370 . S
C2717 C2721 1.408 . S
C2718 C2716 1.363 . S
C2718 C2719 1.370 . S
C2718 C2722 1.524 . S
C2719 C2711 1.503 . S
C2719 C2718 1.370 . S
C2719 C2720 1.403 . S
C2720 C2719 1.403 . S
C2720 C2721 1.404 . S
C2720 C2723 1.539 1_565 S
C2721 C2717 1.408 . S
C2721 C2720 1.404 . S
C2721 H2733 0.930 1_565 S
C2722 C2718 1.524 . S
C2722 H2734 0.956 . S
C2722 H2735 0.961 . S
C2722 H2736 0.961 . S
C2723 C2720 1.539 1_545 S
C2723 H2737 0.958 . S
C2723 H2738 0.961 . S
C2723 H2739 0.960 . S
H2724 C2708 0.931 . S
H2725 C2713 0.929 . S
H2726 C2714 0.960 . S
H2727 C2714 0.962 . S
H2728 C2714 0.960 . S
H2729 C2715 0.961 . S
H2730 C2715 0.961 1_565 S
H2731 C2715 0.961 . S
H2732 C2716 0.931 . S
H2733 C2721 0.930 1_545 S
H2734 C2722 0.956 . S
H2735 C2722 0.961 . S
H2736 C2722 0.961 . S
H2737 C2723 0.958 . S
H2738 C2723 0.961 . S
H2739 C2723 0.960 . S
C2740 C2741 1.391 . S
C2740 C2742 1.394 . S
C2740 H2756 0.931 . S
C2741 C2740 1.391 . S
C2741 C2745 1.376 . S
C2742 C2740 1.394 . S
C2742 C2743 1.369 . S
C2742 C2746 1.531 . S
C2743 C2742 1.369 . S
C2743 C2744 1.410 . S
C2743 C2751 1.503 . S
C2744 C2743 1.410 . S
C2744 C2745 1.392 . S
C2744 C2747 1.511 . S
C2745 C2741 1.376 . S
C2745 C2744 1.392 . S
C2745 H2757 0.929 . S
C2746 C2742 1.531 . S
C2746 H2758 0.960 . S
C2746 H2759 0.962 . S
C2746 H2760 0.960 . S
C2747 C2744 1.511 . S
C2747 H2761 0.961 . S
C2747 H2762 0.961 . S
C2747 H2763 0.961 . S
C2748 C2749 1.370 . S
C2748 C2750 1.363 . S
C2748 H2764 0.931 . S
C2749 C2748 1.370 . S
C2749 C2753 1.408 . S
C2750 C2748 1.363 . S
C2750 C2751 1.370 . S
C2750 C2754 1.524 . S
C2751 C2743 1.503 . S
C2751 C2750 1.370 . S
C2751 C2752 1.403 . S
C2752 C2751 1.403 . S
C2752 C2753 1.404 . S
C2752 C2755 1.539 . S
C2753 C2749 1.408 . S
C2753 C2752 1.404 . S
C2753 H2765 0.930 . S
C2754 C2750 1.524 . S
C2754 H2766 0.956 . S
C2754 H2767 0.961 . S
C2754 H2768 0.961 . S
C2755 C2752 1.539 . S
C2755 H2769 0.958 . S
C2755 H2770 0.961 . S
C2755 H2771 0.960 . S
H2756 C2740 0.931 . S
H2757 C2745 0.929 . S
H2758 C2746 0.960 . S
H2759 C2746 0.962 . S
H2760 C2746 0.960 . S
H2761 C2747 0.961 . S
H2762 C2747 0.961 . S
H2763 C2747 0.961 . S
H2764 C2748 0.931 . S
H2765 C2753 0.930 . S
H2766 C2754 0.956 . S
H2767 C2754 0.961 . S
H2768 C2754 0.961 . S
H2769 C2755 0.958 . S
H2770 C2755 0.961 . S
H2771 C2755 0.960 . S
C469 C4 1.909 . S
C477 C153 1.909 . S
C501 C127 1.895 . S
C509 C17 1.903 . S
C533 C134 1.893 . S
C541 C30 1.902 . S
C565 C49 1.898 . S
C573 C95 1.904 . S
C597 C56 1.908 . S
C605 C108 1.909 . S
C629 C69 1.893 . S
C637 C88 1.903 . S
C661 C160 1.909 . S
C669 C303 1.909 . S
C693 C277 1.906 . S
C701 C173 1.908 . S
C725 C186 1.896 . S
C733 C290 1.903 . S
C757 C205 1.903 . S
C765 C257 1.906 . S
C789 C218 1.899 . S
C797 C264 1.904 . S
C821 C225 1.907 . S
C829 C244 1.908 . S
C853 C316 1.893 . S
C861 C465 1.902 . S
C885 C329 1.907 . S
C893 C433 1.908 . S
C917 C452 1.906 . S
C925 C342 1.907 . S
C949 C361 1.908 . S
C957 C413 1.908 . S
C981 C420 1.909 . S
C989 C368 1.909 . S
C1013 C400 1.907 . S
C1021 C381 1.908 . S
C1045 C3 1.287 . S
C1053 C200 1.265 . S
C1077 C16 1.270 . S
C1085 C213 1.263 . S
C1109 C29 1.276 . S
C1117 C224 1.275 . S
C1141 C44 1.284 . S
C1149 C315 1.270 . S
C1173 C328 1.284 . S
C1181 C55 1.270 . S
C1205 C341 1.276 . S
C1213 C68 1.274 . S
C1237 C83 1.254 . S
C1245 C432 1.278 . S
C1269 C447 1.283 . S
C1277 C94 1.264 . S
C1301 C107 1.255 . S
C1309 C460 1.278 . S
C1333 C122 1.250 . S
C1341 C239 1.276 . S
C1365 C133 1.267 . S
C1373 C252 1.263 . S
C1397 C148 1.252 . S
C1405 C263 1.268 . S
C1429 C356 1.260 . S
C1437 C159 1.267 . S
C1461 C172 1.283 . S
C1469 C367 1.263 1_545 S
C1493 C185 1.277 1_455 S
C1501 C380 1.262 . S
C1525 C395 1.250 . S
C1533 C276 1.269 . S
C1557 C408 1.287 1_545 S
C1565 C289 1.268 . S
C1589 C302 1.260 1_455 S
C1597 C419 1.264 . S
C1621 C10 1.398 . S
C1629 C62 1.385 . S
C1653 C75 1.393 . S
C1661 C23 1.381 . S
C1685 C43 1.398 . S
C1693 C36 1.387 . S
C1717 C82 1.395 . S
C1725 C140 1.384 . S
C1749 C147 1.373 . S
C1757 C101 1.377 . S
C1781 C114 1.393 . S
C1789 C121 1.383 . S
C1813 C212 1.364 . S
C1821 C166 1.380 . S
C1845 C179 1.396 . S
C1853 C231 1.389 . S
C1877 C192 1.377 . S
C1885 C199 1.377 . S
C1909 C296 1.383 . S
C1917 C238 1.390 . S
C1941 C309 1.366 . S
C1949 C251 1.384 . S
C1973 C283 1.381 . S
C1981 C270 1.378 . S
C2005 C322 1.397 . S
C2013 C374 1.383 . S
C2037 C335 1.397 . S
C2045 C387 1.388 . S
C2069 C348 1.394 . S
C2077 C355 1.381 . S
C2101 C446 1.369 . S
C2109 C394 1.385 . S
C2133 C459 1.397 . S
C2141 C407 1.390 . S
C2165 C439 1.365 . S
C2173 C426 1.383 . S
C2197 C120 1.500 . S
C2205 C5 1.507 . S
C2229 C135 1.498 . S
C2237 C18 1.506 . S
C2261 C31 1.498 . S
C2269 C146 1.506 . S
C2293 C42 1.512 . S
C2301 C81 1.512 . S
C2325 C96 1.506 . S
C2333 C57 1.509 . S
C2357 C70 1.512 . S
C2365 C109 1.512 . S
C2389 C278 1.503 . S
C2397 C161 1.508 . S
C2421 C291 1.513 . S
C2429 C174 1.512 . S
C2453 C187 1.502 . S
C2461 C304 1.508 . S
C2485 C237 1.510 . S
C2493 C198 1.510 . S
C2517 C250 1.512 . S
C2525 C211 1.512 . S
C2549 C265 1.505 . S
C2557 C226 1.508 . S
C2581 C317 1.513 . S
C2589 C434 1.512 . S
C2613 C445 1.497 . S
C2621 C330 1.506 . S
C2645 C343 1.512 . S
C2653 C458 1.512 . S
C2677 C354 1.512 . S
C2685 C393 1.512 . S
C2709 C369 1.512 . S
C2717 C406 1.512 . S
C2741 C421 1.505 . S
C2749 C382 1.509 . S
