# Generated by pormake.
# Topology vby, (6)-cn, num edge types: 1
# Building blocks:
#     Node 0, Type 0, BuildingBlock: BETGAK_clean_sbu_0, # of connection points: 6
#     Node 1, Type 0, BuildingBlock: BETGAK_clean_sbu_0, # of connection points: 6
#     Node 2, Type 0, BuildingBlock: BETGAK_clean_sbu_0, # of connection points: 6
#     Node 3, Type 0, BuildingBlock: BETGAK_clean_sbu_0, # of connection points: 6
#     Node 4, Type 0, BuildingBlock: BETGAK_clean_sbu_0, # of connection points: 6
#     Node 5, Type 0, BuildingBlock: BETGAK_clean_sbu_0, # of connection points: 6
#     Node 6, Type 0, BuildingBlock: BETGAK_clean_sbu_0, # of connection points: 6
#     Node 7, Type 0, BuildingBlock: BETGAK_clean_sbu_0, # of connection points: 6
#     Edge 8, Type (0, 0), None
#     Edge 9, Type (0, 0), None
#     Edge 10, Type (0, 0), None
#     Edge 11, Type (0, 0), None
#     Edge 12, Type (0, 0), None
#     Edge 13, Type (0, 0), None
#     Edge 14, Type (0, 0), None
#     Edge 15, Type (0, 0), None
#     Edge 16, Type (0, 0), None
#     Edge 17, Type (0, 0), None
#     Edge 18, Type (0, 0), None
#     Edge 19, Type (0, 0), None
#     Edge 20, Type (0, 0), None
#     Edge 21, Type (0, 0), None
#     Edge 22, Type (0, 0), None
#     Edge 23, Type (0, 0), None
#     Edge 24, Type (0, 0), None
#     Edge 25, Type (0, 0), None
#     Edge 26, Type (0, 0), None
#     Edge 27, Type (0, 0), None
#     Edge 28, Type (0, 0), None
#     Edge 29, Type (0, 0), None
#     Edge 30, Type (0, 0), None
#     Edge 31, Type (0, 0), None
# Relax obj value: 0.184
# Max RMSD: 0.230
# Mean RMSD: 0.230
data_MOF--net-vby--node1-BETGAK_clean_sbu_0--edge1-none
_symmetry_space_group_name_H-M    P1
_symmetry_Int_Tables_number       1
_symmetry_cell_setting            triclinic
loop_
_symmetry_equiv_pos_as_xyz
'x, y, z'
_cell_length_a     6.8228311
_cell_length_b     66.204031
_cell_length_c     12.394531
_cell_angle_alpha  89.991586
_cell_angle_beta   88.404159
_cell_angle_gamma 89.999631
loop_
_atom_site_label
_atom_site_type_symbol
_atom_site_fract_x
_atom_site_fract_y
_atom_site_fract_z
_atom_type_partial_charge
La0 La 1.06113 0.47349 0.0426 0.0
La1 La 1.0558 0.42902 0.04989 0.0
C2 C 1.02672 0.51141 0.03192 0.0
C3 C 0.89697 0.52884 1.01406 0.0
C4 C 0.6957 0.52794 0.04037 0.0
C5 C 0.5845 0.5457 0.04823 0.0
C6 C 0.67225 0.56477 0.03068 0.0
C7 C 0.87275 0.56539 1.00014 0.0
C8 C 0.98293 0.54763 0.99125 0.0
C9 C 0.12112 0.45701 0.23615 0.0
C10 C 0.65281 0.45152 0.04154 0.0
C11 C 1.02282 0.39183 0.09156 0.0
C12 C 0.12439 0.37234 0.07178 0.0
C13 C 1.02032 0.35624 1.02692 0.0
C14 C 0.10764 0.33725 1.01365 0.0
C15 C 0.30128 0.33387 0.04553 0.0
C16 C 0.40605 0.35007 0.08967 0.0
C17 C 0.31881 0.36911 0.1025 0.0
C18 C 0.12269 0.44419 0.85189 0.0
C19 C 0.45928 0.45138 0.0389 0.0
O20 O 0.98407 0.50055 0.11738 0.0
O21 O 1.09067 0.50041 0.95004 0.0
O22 O 0.21653 0.47198 0.19434 0.0
O23 O 0.99747 0.4517 0.16844 0.0
O24 O 0.74909 0.46829 1.01782 0.0
O25 O 0.74291 0.4348 0.06891 0.0
O26 O 0.94343 0.40053 1.00845 0.0
O27 O 0.1069 0.40489 0.15508 0.0
O28 O 0.20262 0.4282 0.89132 0.0
O29 O 1.00437 0.45078 0.92347 0.0
O30 O 0.36428 0.43538 0.0768 0.0
O31 O 0.36697 0.46734 1.00156 0.0
H32 H 0.62626 0.51361 0.05945 0.0
H33 H 0.43058 0.54442 0.07022 0.0
H34 H 0.94779 0.57963 0.98737 0.0
H35 H 0.13828 0.54872 0.9719 0.0
H36 H 0.86981 0.35829 1.00345 0.0
H37 H 1.0217 0.32508 0.98063 0.0
H38 H 0.55606 0.34807 0.11395 0.0
H39 H 0.40314 0.38121 0.13739 0.0
La40 La 0.14275 0.71826 0.03812 0.0
La41 La 0.13565 0.67373 0.04581 0.0
C42 C 0.17257 0.75534 0.99251 0.0
C43 C 1.06869 0.77486 1.00968 0.0
C44 C 1.09764 0.78649 0.10294 0.0
C45 C 1.01051 0.80554 0.11472 0.0
C46 C 0.89288 0.81349 0.03342 0.0
C47 C 0.86375 0.80184 0.94032 0.0
C48 C 0.95121 0.78281 0.92843 0.0
C49 C 1.07622 0.7034 0.23661 0.0
C50 C 0.73865 0.69581 0.05051 0.0
C51 C 0.17814 0.63582 0.05528 0.0
C52 C 0.32487 0.61941 0.06286 0.0
C53 C 0.48648 0.61848 0.98995 0.0
C54 C 0.59943 0.60093 0.98044 0.0
C55 C 0.5565 0.58388 0.04487 0.0
C56 C 0.40062 0.58526 0.1218 0.0
C57 C 0.28526 0.60275 0.12992 0.0
C58 C 1.07813 0.69042 0.85236 0.0
C59 C 0.54528 0.6957 0.04702 0.0
O60 O 0.25372 0.74691 0.07601 0.0
O61 O 1.08927 0.74198 0.93036 0.0
O62 O 0.99846 0.7195 0.1971 0.0
O63 O 0.19271 0.6965 0.16484 0.0
O64 O 0.83387 0.71182 1.01281 0.0
O65 O 0.83048 0.67982 0.08788 0.0
O66 O 0.18889 0.64655 0.96705 0.0
O67 O 0.13174 0.64685 0.14029 0.0
O68 O 0.98025 0.67558 0.89397 0.0
O69 O 0.20219 0.69547 0.92041 0.0
O70 O 0.44883 0.67882 0.06772 0.0
O71 O 0.45589 0.71257 1.02147 0.0
H72 H 0.18924 0.78098 0.16659 0.0
H73 H 1.0345 0.81401 0.18796 0.0
H74 H 0.7766 0.80759 0.87536 0.0
H75 H 0.92904 0.77445 0.85463 0.0
H76 H 0.52044 0.63097 0.93614 0.0
H77 H 0.71559 0.60055 0.9192 0.0
H78 H 0.36519 0.57273 0.17496 0.0
H79 H 0.16035 0.60296 0.18587 0.0
La80 La 1.05683 0.71826 0.55029 0.0
La81 La 1.06393 0.67372 0.54271 0.0
C82 C 1.02693 0.75533 0.59589 0.0
C83 C 0.13079 0.77485 0.57876 0.0
C84 C 0.10197 0.78648 0.48549 0.0
C85 C 0.18908 0.80554 0.47374 0.0
C86 C 0.30656 0.81349 0.55509 0.0
C87 C 0.33556 0.80183 0.64822 0.0
C88 C 0.24812 0.7828 0.66007 0.0
C89 C 0.12306 0.70341 0.3519 0.0
C90 C 0.46091 0.6958 0.53797 0.0
C91 C 1.0214 0.63581 0.53325 0.0
C92 C 0.87466 0.6194 0.52568 0.0
C93 C 0.71307 0.61847 0.5986 0.0
C94 C 0.60009 0.60092 0.6081 0.0
C95 C 0.64297 0.58388 0.54365 0.0
C96 C 0.79885 0.58526 0.46671 0.0
C97 C 0.91423 0.60275 0.4586 0.0
C98 C 0.12111 0.69039 0.73606 0.0
C99 C 0.65428 0.6957 0.54145 0.0
O100 O 0.94588 0.74691 0.51236 0.0
O101 O 0.11017 0.74197 0.65807 0.0
O102 O 0.20115 0.71951 0.39129 0.0
O103 O 1.00671 0.69649 0.42365 0.0
O104 O 0.36568 0.71181 0.57565 0.0
O105 O 0.36908 0.67981 0.50062 0.0
O106 O 1.01069 0.64654 0.62148 0.0
O107 O 1.06779 0.64685 0.44823 0.0
O108 O 0.2193 0.67557 0.6946 0.0
O109 O 0.99719 0.69546 0.668 0.0
O110 O 0.75073 0.67881 0.52081 0.0
O111 O 0.74368 0.71257 0.56693 0.0
H112 H 1.01048 0.78098 0.42178 0.0
H113 H 0.16519 0.81401 0.40048 0.0
H114 H 0.4226 0.80759 0.71321 0.0
H115 H 0.27019 0.77444 0.73389 0.0
H116 H 0.67913 0.63096 0.65243 0.0
H117 H 0.48394 0.60054 0.66935 0.0
H118 H 0.83424 0.57273 0.41354 0.0
H119 H 1.03912 0.60297 0.40264 0.0
La120 La 0.13818 0.4735 0.54591 0.0
La121 La 0.14351 0.42902 0.53874 0.0
C122 C 0.17263 0.51141 0.55659 0.0
C123 C 0.3024 0.52884 0.57443 0.0
C124 C 0.50368 0.52794 0.54812 0.0
C125 C 0.61491 0.5457 0.54026 0.0
C126 C 0.52719 0.56477 0.55782 0.0
C127 C 0.32669 0.56539 0.58836 0.0
C128 C 0.21648 0.54764 0.59724 0.0
C129 C 1.07853 0.45704 0.35245 0.0
C130 C 0.54653 0.45153 0.54702 0.0
C131 C 0.17658 0.39183 0.49708 0.0
C132 C 1.075 0.37234 0.51682 0.0
C133 C 0.17908 0.35624 0.56165 0.0
C134 C 1.09175 0.33724 0.57489 0.0
C135 C 0.89812 0.33387 0.54301 0.0
C136 C 0.79334 0.35008 0.4989 0.0
C137 C 0.88058 0.36912 0.4861 0.0
C138 C 1.07692 0.44417 0.73663 0.0
C139 C 0.74006 0.45139 0.54965 0.0
O140 O 0.21522 0.50056 0.47111 0.0
O141 O 0.10872 0.50041 0.63847 0.0
O142 O 0.98281 0.472 0.39412 0.0
O143 O 0.20203 0.4517 0.42017 0.0
O144 O 0.45025 0.46829 0.57067 0.0
O145 O 0.45642 0.4348 0.51972 0.0
O146 O 0.25585 0.40053 0.58022 0.0
O147 O 1.09255 0.4049 0.43352 0.0
O148 O 0.99666 0.42819 0.69732 0.0
O149 O 0.1951 0.45079 0.66507 0.0
O150 O 0.83506 0.43538 0.51177 0.0
O151 O 0.83236 0.46734 0.58697 0.0
H152 H 0.57309 0.51361 0.52903 0.0
H153 H 0.76883 0.54442 0.51827 0.0
H154 H 0.25168 0.57964 0.60114 0.0
H155 H 1.06113 0.54872 0.6166 0.0
H156 H 0.32959 0.35829 0.58513 0.0
H157 H 0.17769 0.32507 0.60789 0.0
H158 H 0.64333 0.34808 0.47462 0.0
H159 H 0.79625 0.38122 0.45123 0.0
La160 La 0.56112 0.97349 0.0426 0.0
La161 La 0.55579 0.92902 0.04989 0.0
C162 C 0.5267 1.01141 0.03191 0.0
C163 C 0.39695 1.02884 1.01405 0.0
C164 C 0.19567 1.02794 0.04036 0.0
C165 C 1.08447 1.0457 0.04821 0.0
C166 C 0.17221 1.06477 0.03066 0.0
C167 C 0.37271 1.06539 1.00012 0.0
C168 C 0.4829 1.04763 0.99123 0.0
C169 C 0.62111 0.95701 0.23615 0.0
C170 C 0.1528 0.95152 0.04154 0.0
C171 C 0.52282 0.89183 0.09156 0.0
C172 C 0.6244 0.87234 0.07177 0.0
C173 C 0.52031 0.85624 1.02695 0.0
C174 C 0.60764 0.83724 1.01368 0.0
C175 C 0.80131 0.83387 0.04552 0.0
C176 C 0.9061 0.85008 0.08962 0.0
C177 C 0.81885 0.86912 0.10246 0.0
C178 C 0.62268 0.94419 0.85189 0.0
C179 C 0.95927 0.95138 0.0389 0.0
O180 O 0.48406 1.00055 0.11738 0.0
O181 O 0.59066 1.00041 0.95003 0.0
O182 O 0.71652 0.97198 0.19434 0.0
O183 O 0.49746 0.9517 0.16844 0.0
O184 O 0.24908 0.96829 1.01782 0.0
O185 O 0.2429 0.9348 0.06891 0.0
O186 O 0.44343 0.90053 1.00844 0.0
O187 O 0.6069 0.90489 0.15508 0.0
O188 O 0.70261 0.9282 0.89132 0.0
O189 O 0.50436 0.95078 0.92347 0.0
O190 O 0.86427 0.93538 0.0768 0.0
O191 O 0.86696 0.96734 1.00156 0.0
H192 H 0.12624 1.01361 0.05944 0.0
H193 H 0.93055 1.04442 0.07021 0.0
H194 H 0.44774 0.07963 0.98734 0.0
H195 H 0.63825 1.04872 0.97188 0.0
H196 H 0.36978 0.85829 1.0035 0.0
H197 H 0.52169 0.82508 0.9807 0.0
H198 H 1.05612 0.84808 0.11387 0.0
H199 H 0.90318 0.88121 0.13731 0.0
La200 La 0.6427 0.21826 0.03812 0.0
La201 La 0.63561 0.17373 0.0458 0.0
C202 C 0.67252 0.25534 0.99252 0.0
C203 C 0.56864 0.27486 1.00969 0.0
C204 C 0.59748 0.28648 0.10298 0.0
C205 C 0.51036 0.30554 0.11476 0.0
C206 C 0.39283 0.31349 0.03343 0.0
C207 C 0.36381 0.30184 0.94029 0.0
C208 C 0.45127 0.28282 0.9284 0.0
C209 C 0.57618 0.2034 0.23661 0.0
C210 C 0.2386 0.19581 0.05051 0.0
C211 C 0.67809 0.13582 0.05526 0.0
C212 C 0.82482 0.11941 0.06284 0.0
C213 C 0.98642 0.11848 0.98992 0.0
C214 C 1.09937 0.10092 0.98041 0.0
C215 C 1.05645 0.08388 0.04484 0.0
C216 C 0.90057 0.08526 0.12178 0.0
C217 C 0.78522 0.10275 0.1299 0.0
C218 C 0.57809 0.19042 0.85236 0.0
C219 C 1.04523 0.1957 0.04702 0.0
O220 O 0.75367 0.24691 0.07602 0.0
O221 O 0.58922 0.24198 0.93036 0.0
O222 O 0.49841 0.2195 0.1971 0.0
O223 O 0.69267 0.1965 0.16484 0.0
O224 O 0.33382 0.21182 1.01281 0.0
O225 O 0.33043 0.17982 0.08788 0.0
O226 O 0.68884 0.14655 0.96703 0.0
O227 O 0.6317 0.14685 0.14028 0.0
O228 O 0.48021 0.17558 0.89396 0.0
O229 O 0.70215 0.19547 0.92041 0.0
O230 O 0.94878 0.17882 0.06772 0.0
O231 O 0.95584 0.21257 1.02147 0.0
H232 H 0.68899 0.28097 0.16666 0.0
H233 H 0.53426 0.31399 0.18803 0.0
H234 H 0.27675 0.3076 0.87532 0.0
H235 H 0.42918 0.27446 0.85458 0.0
H236 H 1.02038 0.13097 0.93611 0.0
H237 H 0.21553 0.10055 0.91917 0.0
H238 H 0.86515 1.07273 0.17494 0.0
H239 H 0.66032 0.10296 0.18585 0.0
La240 La 0.5568 0.21826 0.55029 0.0
La241 La 0.5639 0.17372 0.54271 0.0
C242 C 0.5269 0.25533 0.59587 0.0
C243 C 0.63077 0.27485 0.57874 0.0
C244 C 0.60192 0.28649 0.48548 0.0
C245 C 0.68904 0.30554 0.47373 0.0
C246 C 0.80657 0.31349 0.55507 0.0
C247 C 0.8356 0.30183 0.64819 0.0
C248 C 0.74815 0.2828 0.66004 0.0
C249 C 0.62303 0.20341 0.3519 0.0
C250 C 0.96088 0.1958 0.53797 0.0
C251 C 0.52137 0.13581 0.53326 0.0
C252 C 0.37463 0.1194 0.52569 0.0
C253 C 0.21305 0.11847 0.59862 0.0
C254 C 0.10007 0.10092 0.60812 0.0
C255 C 0.14295 0.08388 0.54367 0.0
C256 C 0.29882 0.08526 0.46673 0.0
C257 C 0.41419 0.10275 0.45861 0.0
C258 C 0.62108 0.19039 0.73606 0.0
C259 C 0.15425 0.1957 0.54145 0.0
O260 O 0.44586 0.24691 0.51234 0.0
O261 O 0.61013 0.24197 0.65806 0.0
O262 O 0.70112 0.21951 0.39129 0.0
O263 O 0.50668 0.19649 0.42365 0.0
O264 O 0.86565 0.21181 0.57565 0.0
O265 O 0.86905 0.17981 0.50062 0.0
O266 O 0.51066 0.14654 0.62149 0.0
O267 O 0.56776 0.14685 0.44824 0.0
O268 O 0.71927 0.17557 0.6946 0.0
O269 O 0.49716 0.19546 0.668 0.0
O270 O 0.2507 0.17881 0.52081 0.0
O271 O 0.24365 0.21257 0.56693 0.0
H272 H 0.51041 0.28099 0.42178 0.0
H273 H 0.66513 0.31401 0.40048 0.0
H274 H 0.92266 0.30758 0.71317 0.0
H275 H 0.77025 0.27444 0.73385 0.0
H276 H 0.17912 0.13096 0.65245 0.0
H277 H 0.98393 0.10054 0.66937 0.0
H278 H 0.33421 1.07273 0.41356 0.0
H279 H 0.53908 0.10297 0.40265 0.0
La280 La 0.63817 0.9735 0.54591 0.0
La281 La 0.6435 0.92902 0.53874 0.0
C282 C 0.67261 1.01141 0.5566 0.0
C283 C 0.80238 1.02884 0.57444 0.0
C284 C 1.00366 1.02794 0.54813 0.0
C285 C 0.11489 1.0457 0.54028 0.0
C286 C 1.02717 1.06477 0.55784 0.0
C287 C 0.82667 1.06539 0.58839 0.0
C288 C 0.71646 1.04764 0.59726 0.0
C289 C 0.57852 0.95704 0.35245 0.0
C290 C 1.04651 0.95153 0.54701 0.0
C291 C 0.67657 0.89183 0.49708 0.0
C292 C 0.57499 0.87234 0.51683 0.0
C293 C 0.67907 0.85624 0.56168 0.0
C294 C 0.59174 0.83724 0.57492 0.0
C295 C 0.39811 0.83387 0.54303 0.0
C296 C 0.29334 0.85008 0.49891 0.0
C297 C 0.38057 0.86912 0.4861 0.0
C298 C 0.5769 0.94417 0.73663 0.0
C299 C 0.24004 0.95139 0.54965 0.0
O300 O 0.71521 1.00056 0.47112 0.0
O301 O 0.6087 1.00041 0.63848 0.0
O302 O 0.4828 0.972 0.39412 0.0
O303 O 0.70202 0.9517 0.42017 0.0
O304 O 0.95023 0.96829 0.57067 0.0
O305 O 0.9564 0.9348 0.51972 0.0
O306 O 0.75585 0.90053 0.58023 0.0
O307 O 0.59254 0.9049 0.43353 0.0
O308 O 0.49665 0.92819 0.69732 0.0
O309 O 0.69509 0.95079 0.66507 0.0
O310 O 0.33505 0.93538 0.51177 0.0
O311 O 0.33235 0.96734 0.58697 0.0
H312 H 1.07307 1.01361 0.52904 0.0
H313 H 0.26881 1.04442 0.51829 0.0
H314 H 0.75166 0.07963 0.60117 0.0
H315 H 0.56111 1.04872 0.61662 0.0
H316 H 0.82957 0.85829 0.58516 0.0
H317 H 0.67768 0.82507 0.60793 0.0
H318 H 0.14334 0.84808 0.47462 0.0
H319 H 0.29625 0.88122 0.45123 0.0
loop_
_geom_bond_atom_site_label_1
_geom_bond_atom_site_label_2
_geom_bond_distance
_geom_bond_site_symmetry_2
_ccdc_geom_bond_type
La0 C2 2.928 1_455 S
La0 O20 2.521 . S
La0 O21 2.628 1_454 S
La0 O22 2.554 . S
La0 O23 2.757 . S
La0 O24 2.470 1_455 S
La0 O29 2.482 1_554 S
La0 O31 2.503 . S
La1 C11 2.928 1_556 S
La1 O23 2.478 1_556 S
La1 O25 2.503 1_456 S
La1 O26 2.522 . S
La1 O27 2.625 1_556 S
La1 O28 2.558 . S
La1 O29 2.759 . S
La1 O30 2.471 . S
C2 La0 2.928 1_655 S
C2 C3 1.503 1_554 S
C2 O20 1.261 1_655 S
C2 O21 1.243 1_554 S
C3 C2 1.503 1_556 S
C3 C4 1.394 1_556 S
C3 C8 1.373 . S
C4 C3 1.394 1_554 S
C4 C5 1.380 . S
C4 H32 0.930 . S
C5 C4 1.380 . S
C5 C6 1.376 1_554 S
C5 H33 0.930 . S
C6 C5 1.376 1_556 S
C6 C7 1.370 . S
C7 C6 1.370 . S
C7 C8 1.396 . S
C7 H34 0.929 . S
C8 C3 1.373 . S
C8 C7 1.396 . S
C8 H35 0.929 . S
C9 O22 1.240 . S
C9 O23 1.289 . S
C10 O24 1.258 . S
C10 O25 1.256 . S
C11 La1 2.928 1_554 S
C11 C12 1.503 . S
C11 O26 1.261 1_554 S
C11 O27 1.243 . S
C12 C11 1.503 . S
C12 C13 1.394 1_554 S
C12 C17 1.373 . S
C13 C12 1.394 1_556 S
C13 C14 1.380 . S
C13 H36 0.930 . S
C14 C13 1.380 . S
C14 C15 1.376 1_556 S
C14 H37 0.930 . S
C15 C14 1.376 1_554 S
C15 C16 1.370 . S
C16 C15 1.370 . S
C16 C17 1.396 . S
C16 H38 0.929 . S
C17 C12 1.373 . S
C17 C16 1.396 . S
C17 H39 0.929 . S
C18 O28 1.240 . S
C18 O29 1.289 . S
C19 O30 1.258 . S
C19 O31 1.256 1_556 S
O20 La0 2.521 . S
O20 C2 1.261 1_455 S
O21 La0 2.628 1_656 S
O21 C2 1.243 1_556 S
O22 La0 2.554 . S
O22 C9 1.240 . S
O23 La0 2.757 . S
O23 La1 2.478 1_554 S
O23 C9 1.289 . S
O24 La0 2.470 1_655 S
O24 C10 1.258 . S
O25 La1 2.503 1_654 S
O25 C10 1.256 . S
O26 La1 2.522 . S
O26 C11 1.261 1_556 S
O27 La1 2.625 1_554 S
O27 C11 1.243 . S
O28 La1 2.558 . S
O28 C18 1.240 . S
O29 La0 2.482 1_556 S
O29 La1 2.759 . S
O29 C18 1.289 . S
O30 La1 2.471 . S
O30 C19 1.258 . S
O31 La0 2.503 . S
O31 C19 1.256 1_554 S
H32 C4 0.930 . S
H33 C5 0.930 . S
H34 C7 0.929 . S
H35 C8 0.929 . S
H36 C13 0.930 . S
H37 C14 0.930 . S
H38 C16 0.929 . S
H39 C17 0.929 . S
La40 C42 2.928 . S
La40 O60 2.521 . S
La40 O61 2.628 1_554 S
La40 O62 2.554 . S
La40 O63 2.757 . S
La40 O64 2.470 . S
La40 O69 2.482 1_554 S
La40 O71 2.503 1_655 S
La41 C51 2.928 1_655 S
La41 O63 2.482 . S
La41 O65 2.503 . S
La41 O66 2.521 1_554 S
La41 O67 2.628 1_655 S
La41 O68 2.554 1_554 S
La41 O69 2.757 1_554 S
La41 O70 2.470 1_654 S
C42 La40 2.928 . S
C42 C43 1.504 . S
C42 O60 1.261 . S
C42 O61 1.243 1_554 S
C43 C42 1.504 . S
C43 C44 1.401 . S
C43 C48 1.365 1_554 S
C44 C43 1.401 . S
C44 C45 1.380 . S
C44 H72 0.930 . S
C45 C44 1.380 . S
C45 C46 1.376 1_554 S
C45 H73 0.930 . S
C46 C45 1.376 1_556 S
C46 C47 1.370 . S
C47 C46 1.370 . S
C47 C48 1.396 . S
C47 H74 0.929 . S
C48 C43 1.365 1_556 S
C48 C47 1.396 . S
C48 H75 0.929 . S
C49 O62 1.240 . S
C49 O63 1.289 . S
C50 O64 1.258 . S
C50 O65 1.256 . S
C51 La41 2.928 1_455 S
C51 C52 1.503 . S
C51 O66 1.261 1_454 S
C51 O67 1.243 . S
C52 C51 1.503 . S
C52 C53 1.394 1_554 S
C52 C57 1.373 . S
C53 C52 1.394 1_556 S
C53 C54 1.380 . S
C53 H76 0.930 . S
C54 C53 1.380 . S
C54 C55 1.376 1_556 S
C54 H77 0.930 . S
C55 C54 1.376 1_554 S
C55 C56 1.370 . S
C56 C55 1.370 . S
C56 C57 1.396 . S
C56 H78 0.929 . S
C57 C52 1.373 . S
C57 C56 1.396 . S
C57 H79 0.929 . S
C58 O68 1.240 . S
C58 O69 1.289 . S
C59 O70 1.258 . S
C59 O71 1.256 1_556 S
O60 La40 2.521 . S
O60 C42 1.261 . S
O61 La40 2.628 1_556 S
O61 C42 1.243 1_556 S
O62 La40 2.554 . S
O62 C49 1.240 . S
O63 La40 2.757 . S
O63 La41 2.482 . S
O63 C49 1.289 . S
O64 La40 2.470 . S
O64 C50 1.258 . S
O65 La41 2.503 . S
O65 C50 1.256 . S
O66 La41 2.521 1_556 S
O66 C51 1.261 1_656 S
O67 La41 2.628 1_455 S
O67 C51 1.243 . S
O68 La41 2.554 1_556 S
O68 C58 1.240 . S
O69 La40 2.482 1_556 S
O69 La41 2.757 1_556 S
O69 C58 1.289 . S
O70 La41 2.470 1_456 S
O70 C59 1.258 . S
O71 La40 2.503 1_455 S
O71 C59 1.256 1_554 S
H72 C44 0.930 . S
H73 C45 0.930 . S
H74 C47 0.929 . S
H75 C48 0.929 . S
H76 C53 0.930 . S
H77 C54 0.930 . S
H78 C56 0.929 . S
H79 C57 0.929 . S
La80 C82 2.928 . S
La80 O100 2.521 . S
La80 O101 2.628 . S
La80 O102 2.554 . S
La80 O103 2.757 . S
La80 O104 2.470 . S
La80 O109 2.482 . S
La80 O111 2.503 1_455 S
La81 C91 2.928 1_455 S
La81 O103 2.482 . S
La81 O105 2.503 . S
La81 O106 2.521 . S
La81 O107 2.628 1_455 S
La81 O108 2.554 . S
La81 O109 2.757 . S
La81 O110 2.470 1_455 S
C82 La80 2.928 . S
C82 C83 1.503 . S
C82 O100 1.261 . S
C82 O101 1.243 . S
C83 C82 1.503 . S
C83 C84 1.394 . S
C83 C88 1.373 . S
C84 C83 1.394 . S
C84 C85 1.380 . S
C84 H112 0.930 . S
C85 C84 1.380 . S
C85 C86 1.376 . S
C85 H113 0.930 . S
C86 C85 1.376 . S
C86 C87 1.370 . S
C87 C86 1.370 . S
C87 C88 1.396 . S
C87 H114 0.929 . S
C88 C83 1.373 . S
C88 C87 1.396 . S
C88 H115 0.929 . S
C89 O102 1.240 . S
C89 O103 1.289 . S
C90 O104 1.258 . S
C90 O105 1.256 . S
C91 La81 2.928 1_655 S
C91 C92 1.503 . S
C91 O106 1.261 1_655 S
C91 O107 1.243 . S
C92 C91 1.503 . S
C92 C93 1.394 . S
C92 C97 1.373 . S
C93 C92 1.394 . S
C93 C94 1.380 . S
C93 H116 0.930 . S
C94 C93 1.380 . S
C94 C95 1.376 . S
C94 H117 0.930 . S
C95 C94 1.376 . S
C95 C96 1.370 . S
C96 C95 1.370 . S
C96 C97 1.396 . S
C96 H118 0.929 . S
C97 C92 1.373 . S
C97 C96 1.396 . S
C97 H119 0.929 . S
C98 O108 1.240 . S
C98 O109 1.289 . S
C99 O110 1.258 . S
C99 O111 1.256 . S
O100 La80 2.521 . S
O100 C82 1.261 . S
O101 La80 2.628 . S
O101 C82 1.243 . S
O102 La80 2.554 . S
O102 C89 1.240 . S
O103 La80 2.757 . S
O103 La81 2.482 . S
O103 C89 1.289 . S
O104 La80 2.470 . S
O104 C90 1.258 . S
O105 La81 2.503 . S
O105 C90 1.256 . S
O106 La81 2.521 . S
O106 C91 1.261 1_455 S
O107 La81 2.628 1_655 S
O107 C91 1.243 . S
O108 La81 2.554 . S
O108 C98 1.240 . S
O109 La80 2.482 . S
O109 La81 2.757 . S
O109 C98 1.289 . S
O110 La81 2.470 1_655 S
O110 C99 1.258 . S
O111 La80 2.503 1_655 S
O111 C99 1.256 . S
H112 C84 0.930 . S
H113 C85 0.930 . S
H114 C87 0.929 . S
H115 C88 0.929 . S
H116 C93 0.930 . S
H117 C94 0.930 . S
H118 C96 0.929 . S
H119 C97 0.929 . S
La120 C122 2.928 1_655 S
La120 O140 2.521 . S
La120 O141 2.628 1_655 S
La120 O142 2.554 . S
La120 O143 2.757 . S
La120 O144 2.470 1_655 S
La120 O149 2.482 . S
La120 O151 2.503 . S
La121 C131 2.928 . S
La121 O143 2.482 . S
La121 O145 2.503 1_655 S
La121 O146 2.521 . S
La121 O147 2.628 . S
La121 O148 2.554 . S
La121 O149 2.757 . S
La121 O150 2.470 . S
C122 La120 2.928 1_455 S
C122 C123 1.503 . S
C122 O140 1.261 1_455 S
C122 O141 1.243 . S
C123 C122 1.503 . S
C123 C124 1.394 . S
C123 C128 1.373 . S
C124 C123 1.394 . S
C124 C125 1.380 . S
C124 H152 0.930 . S
C125 C124 1.380 . S
C125 C126 1.376 . S
C125 H153 0.930 . S
C126 C125 1.376 . S
C126 C127 1.370 . S
C127 C126 1.370 . S
C127 C128 1.396 . S
C127 H154 0.929 . S
C128 C123 1.373 . S
C128 C127 1.396 . S
C128 H155 0.929 . S
C129 O142 1.240 . S
C129 O143 1.289 . S
C130 O144 1.258 . S
C130 O145 1.256 . S
C131 La121 2.928 . S
C131 C132 1.503 . S
C131 O146 1.261 . S
C131 O147 1.243 . S
C132 C131 1.503 . S
C132 C133 1.394 . S
C132 C137 1.373 . S
C133 C132 1.394 . S
C133 C134 1.380 . S
C133 H156 0.930 . S
C134 C133 1.380 . S
C134 C135 1.376 . S
C134 H157 0.930 . S
C135 C134 1.376 . S
C135 C136 1.370 . S
C136 C135 1.370 . S
C136 C137 1.396 . S
C136 H158 0.929 . S
C137 C132 1.373 . S
C137 C136 1.396 . S
C137 H159 0.929 . S
C138 O148 1.240 . S
C138 O149 1.289 . S
C139 O150 1.258 . S
C139 O151 1.256 . S
O140 La120 2.521 . S
O140 C122 1.261 1_655 S
O141 La120 2.628 1_455 S
O141 C122 1.243 . S
O142 La120 2.554 . S
O142 C129 1.240 . S
O143 La120 2.757 . S
O143 La121 2.482 . S
O143 C129 1.289 . S
O144 La120 2.470 1_455 S
O144 C130 1.258 . S
O145 La121 2.503 1_455 S
O145 C130 1.256 . S
O146 La121 2.521 . S
O146 C131 1.261 . S
O147 La121 2.628 . S
O147 C131 1.243 . S
O148 La121 2.554 . S
O148 C138 1.240 . S
O149 La120 2.482 . S
O149 La121 2.757 . S
O149 C138 1.289 . S
O150 La121 2.470 . S
O150 C139 1.258 . S
O151 La120 2.503 . S
O151 C139 1.256 . S
H152 C124 0.930 . S
H153 C125 0.930 . S
H154 C127 0.929 . S
H155 C128 0.929 . S
H156 C133 0.930 . S
H157 C134 0.930 . S
H158 C136 0.929 . S
H159 C137 0.929 . S
La160 C162 2.928 . S
La160 O180 2.521 . S
La160 O181 2.628 1_554 S
La160 O182 2.554 . S
La160 O183 2.757 . S
La160 O184 2.470 . S
La160 O189 2.482 1_554 S
La160 O191 2.503 . S
La161 C171 2.927 1_556 S
La161 O183 2.477 1_556 S
La161 O185 2.503 1_556 S
La161 O186 2.523 . S
La161 O187 2.624 1_556 S
La161 O188 2.561 . S
La161 O189 2.760 . S
La161 O190 2.471 . S
C162 La160 2.928 . S
C162 C163 1.503 1_554 S
C162 O180 1.261 . S
C162 O181 1.243 1_554 S
C163 C162 1.503 1_556 S
C163 C164 1.394 1_556 S
C163 C168 1.373 . S
C164 C163 1.394 1_554 S
C164 C165 1.380 . S
C164 H192 0.930 . S
C165 C164 1.380 . S
C165 C166 1.376 1_554 S
C165 H193 0.930 . S
C166 C165 1.376 1_556 S
C166 C167 1.370 . S
C167 C166 1.370 . S
C167 C168 1.396 . S
C167 H194 0.929 . S
C168 C163 1.373 . S
C168 C167 1.396 . S
C168 H195 0.929 . S
C169 O182 1.240 . S
C169 O183 1.289 . S
C170 O184 1.258 . S
C170 O185 1.256 . S
C171 La161 2.927 1_554 S
C171 C172 1.503 . S
C171 O186 1.261 1_554 S
C171 O187 1.243 . S
C172 C171 1.503 . S
C172 C173 1.394 1_554 S
C172 C177 1.373 . S
C173 C172 1.394 1_556 S
C173 C174 1.380 . S
C173 H196 0.930 . S
C174 C173 1.380 . S
C174 C175 1.376 1_556 S
C174 H197 0.930 . S
C175 C174 1.376 1_554 S
C175 C176 1.370 . S
C176 C175 1.370 . S
C176 C177 1.396 . S
C176 H198 0.929 . S
C177 C172 1.373 . S
C177 C176 1.396 . S
C177 H199 0.929 . S
C178 O188 1.240 . S
C178 O189 1.289 . S
C179 O190 1.258 . S
C179 O191 1.256 1_556 S
O180 La160 2.521 . S
O180 C162 1.261 . S
O181 La160 2.628 1_556 S
O181 C162 1.243 1_556 S
O182 La160 2.554 . S
O182 C169 1.240 . S
O183 La160 2.757 . S
O183 La161 2.477 1_554 S
O183 C169 1.289 . S
O184 La160 2.470 . S
O184 C170 1.258 . S
O185 La161 2.503 1_554 S
O185 C170 1.256 . S
O186 La161 2.523 . S
O186 C171 1.261 1_556 S
O187 La161 2.624 1_554 S
O187 C171 1.243 . S
O188 La161 2.561 . S
O188 C178 1.240 . S
O189 La160 2.482 1_556 S
O189 La161 2.760 . S
O189 C178 1.289 . S
O190 La161 2.471 . S
O190 C179 1.258 . S
O191 La160 2.503 . S
O191 C179 1.256 1_554 S
H192 C164 0.930 . S
H193 C165 0.930 . S
H194 C167 0.929 . S
H195 C168 0.929 . S
H196 C173 0.930 . S
H197 C174 0.930 . S
H198 C176 0.929 . S
H199 C177 0.929 . S
La200 C202 2.928 . S
La200 O220 2.521 . S
La200 O221 2.628 1_554 S
La200 O222 2.554 . S
La200 O223 2.757 . S
La200 O224 2.470 . S
La200 O229 2.482 1_554 S
La200 O231 2.503 . S
La201 C211 2.928 . S
La201 O223 2.482 . S
La201 O225 2.503 . S
La201 O226 2.521 1_554 S
La201 O227 2.628 . S
La201 O228 2.554 1_554 S
La201 O229 2.757 1_554 S
La201 O230 2.470 1_554 S
C202 La200 2.928 . S
C202 C203 1.503 . S
C202 O220 1.261 . S
C202 O221 1.243 1_554 S
C203 C202 1.503 . S
C203 C204 1.394 . S
C203 C208 1.373 1_554 S
C204 C203 1.394 . S
C204 C205 1.380 . S
C204 H232 0.930 . S
C205 C204 1.380 . S
C205 C206 1.376 1_554 S
C205 H233 0.930 . S
C206 C205 1.376 1_556 S
C206 C207 1.370 . S
C207 C206 1.370 . S
C207 C208 1.396 . S
C207 H234 0.929 . S
C208 C203 1.373 1_556 S
C208 C207 1.396 . S
C208 H235 0.929 . S
C209 O222 1.240 . S
C209 O223 1.289 . S
C210 O224 1.258 . S
C210 O225 1.256 . S
C211 La201 2.928 . S
C211 C212 1.503 . S
C211 O226 1.261 1_554 S
C211 O227 1.243 . S
C212 C211 1.503 . S
C212 C213 1.394 1_554 S
C212 C217 1.373 . S
C213 C212 1.394 1_556 S
C213 C214 1.380 . S
C213 H236 0.930 . S
C214 C213 1.380 . S
C214 C215 1.376 1_556 S
C214 H237 0.930 . S
C215 C214 1.376 1_554 S
C215 C216 1.370 . S
C216 C215 1.370 . S
C216 C217 1.396 . S
C216 H238 0.929 . S
C217 C212 1.373 . S
C217 C216 1.396 . S
C217 H239 0.929 . S
C218 O228 1.240 . S
C218 O229 1.289 . S
C219 O230 1.258 . S
C219 O231 1.256 1_556 S
O220 La200 2.521 . S
O220 C202 1.261 . S
O221 La200 2.628 1_556 S
O221 C202 1.243 1_556 S
O222 La200 2.554 . S
O222 C209 1.240 . S
O223 La200 2.757 . S
O223 La201 2.482 . S
O223 C209 1.289 . S
O224 La200 2.470 . S
O224 C210 1.258 . S
O225 La201 2.503 . S
O225 C210 1.256 . S
O226 La201 2.521 1_556 S
O226 C211 1.261 1_556 S
O227 La201 2.628 . S
O227 C211 1.243 . S
O228 La201 2.554 1_556 S
O228 C218 1.240 . S
O229 La200 2.482 1_556 S
O229 La201 2.757 1_556 S
O229 C218 1.289 . S
O230 La201 2.470 1_556 S
O230 C219 1.258 . S
O231 La200 2.503 . S
O231 C219 1.256 1_554 S
H232 C204 0.930 . S
H233 C205 0.930 . S
H234 C207 0.929 . S
H235 C208 0.929 . S
H236 C213 0.930 . S
H237 C214 0.930 . S
H238 C216 0.929 . S
H239 C217 0.929 . S
La240 C242 2.928 . S
La240 O260 2.521 . S
La240 O261 2.628 . S
La240 O262 2.554 . S
La240 O263 2.757 . S
La240 O264 2.470 . S
La240 O269 2.482 . S
La240 O271 2.503 . S
La241 C251 2.928 . S
La241 O263 2.482 . S
La241 O265 2.503 . S
La241 O266 2.521 . S
La241 O267 2.628 . S
La241 O268 2.554 . S
La241 O269 2.757 . S
La241 O270 2.470 . S
C242 La240 2.928 . S
C242 C243 1.503 . S
C242 O260 1.261 . S
C242 O261 1.243 . S
C243 C242 1.503 . S
C243 C244 1.394 . S
C243 C248 1.373 . S
C244 C243 1.394 . S
C244 C245 1.380 . S
C244 H272 0.930 . S
C245 C244 1.380 . S
C245 C246 1.376 . S
C245 H273 0.930 . S
C246 C245 1.376 . S
C246 C247 1.370 . S
C247 C246 1.370 . S
C247 C248 1.396 . S
C247 H274 0.929 . S
C248 C243 1.373 . S
C248 C247 1.396 . S
C248 H275 0.929 . S
C249 O262 1.240 . S
C249 O263 1.289 . S
C250 O264 1.258 . S
C250 O265 1.256 . S
C251 La241 2.928 . S
C251 C252 1.503 . S
C251 O266 1.261 . S
C251 O267 1.243 . S
C252 C251 1.503 . S
C252 C253 1.394 . S
C252 C257 1.373 . S
C253 C252 1.394 . S
C253 C254 1.380 . S
C253 H276 0.930 . S
C254 C253 1.380 . S
C254 C255 1.376 . S
C254 H277 0.930 . S
C255 C254 1.376 . S
C255 C256 1.370 . S
C256 C255 1.370 . S
C256 C257 1.396 . S
C256 H278 0.929 . S
C257 C252 1.373 . S
C257 C256 1.396 . S
C257 H279 0.929 . S
C258 O268 1.240 . S
C258 O269 1.289 . S
C259 O270 1.258 . S
C259 O271 1.256 . S
O260 La240 2.521 . S
O260 C242 1.261 . S
O261 La240 2.628 . S
O261 C242 1.243 . S
O262 La240 2.554 . S
O262 C249 1.240 . S
O263 La240 2.757 . S
O263 La241 2.482 . S
O263 C249 1.289 . S
O264 La240 2.470 . S
O264 C250 1.258 . S
O265 La241 2.503 . S
O265 C250 1.256 . S
O266 La241 2.521 . S
O266 C251 1.261 . S
O267 La241 2.628 . S
O267 C251 1.243 . S
O268 La241 2.554 . S
O268 C258 1.240 . S
O269 La240 2.482 . S
O269 La241 2.757 . S
O269 C258 1.289 . S
O270 La241 2.470 . S
O270 C259 1.258 . S
O271 La240 2.503 . S
O271 C259 1.256 . S
H272 C244 0.930 . S
H273 C245 0.930 . S
H274 C247 0.929 . S
H275 C248 0.929 . S
H276 C253 0.930 . S
H277 C254 0.930 . S
H278 C256 0.929 . S
H279 C257 0.929 . S
La280 C282 2.928 . S
La280 O300 2.521 . S
La280 O301 2.628 . S
La280 O302 2.554 . S
La280 O303 2.757 . S
La280 O304 2.470 . S
La280 O309 2.482 . S
La280 O311 2.503 . S
La281 C291 2.928 . S
La281 O303 2.482 . S
La281 O305 2.503 . S
La281 O306 2.521 . S
La281 O307 2.628 . S
La281 O308 2.554 . S
La281 O309 2.757 . S
La281 O310 2.470 . S
C282 La280 2.928 . S
C282 C283 1.503 . S
C282 O300 1.261 . S
C282 O301 1.243 . S
C283 C282 1.503 . S
C283 C284 1.394 . S
C283 C288 1.373 . S
C284 C283 1.394 . S
C284 C285 1.380 . S
C284 H312 0.930 . S
C285 C284 1.380 . S
C285 C286 1.376 . S
C285 H313 0.930 . S
C286 C285 1.376 . S
C286 C287 1.370 . S
C287 C286 1.370 . S
C287 C288 1.396 . S
C287 H314 0.929 . S
C288 C283 1.373 . S
C288 C287 1.396 . S
C288 H315 0.929 . S
C289 O302 1.240 . S
C289 O303 1.289 . S
C290 O304 1.258 . S
C290 O305 1.256 . S
C291 La281 2.928 . S
C291 C292 1.503 . S
C291 O306 1.261 . S
C291 O307 1.243 . S
C292 C291 1.503 . S
C292 C293 1.394 . S
C292 C297 1.373 . S
C293 C292 1.394 . S
C293 C294 1.380 . S
C293 H316 0.930 . S
C294 C293 1.380 . S
C294 C295 1.376 . S
C294 H317 0.930 . S
C295 C294 1.376 . S
C295 C296 1.370 . S
C296 C295 1.370 . S
C296 C297 1.396 . S
C296 H318 0.929 . S
C297 C292 1.373 . S
C297 C296 1.396 . S
C297 H319 0.929 . S
C298 O308 1.240 . S
C298 O309 1.289 . S
C299 O310 1.258 . S
C299 O311 1.256 . S
O300 La280 2.521 . S
O300 C282 1.261 . S
O301 La280 2.628 . S
O301 C282 1.243 . S
O302 La280 2.554 . S
O302 C289 1.240 . S
O303 La280 2.757 . S
O303 La281 2.482 . S
O303 C289 1.289 . S
O304 La280 2.470 . S
O304 C290 1.258 . S
O305 La281 2.503 . S
O305 C290 1.256 . S
O306 La281 2.521 . S
O306 C291 1.261 . S
O307 La281 2.628 . S
O307 C291 1.243 . S
O308 La281 2.554 . S
O308 C298 1.240 . S
O309 La280 2.482 . S
O309 La281 2.757 . S
O309 C298 1.289 . S
O310 La281 2.470 . S
O310 C299 1.258 . S
O311 La280 2.503 . S
O311 C299 1.256 . S
H312 C284 0.930 . S
H313 C285 0.930 . S
H314 C287 0.929 . S
H315 C288 0.929 . S
H316 C293 0.930 . S
H317 C294 0.930 . S
H318 C296 0.929 . S
H319 C297 0.929 . S
C19 C10 3.039 1_556 S
C59 C50 3.039 1_556 S
C99 C90 3.038 . S
C139 C130 3.038 . S
C179 C170 3.038 1_656 S
C210 C219 3.038 1_454 S
C259 C250 3.039 1_455 S
C290 C299 3.039 1_655 S
C55 C6 4.026 1_554 S
C126 C95 4.037 . S
C166 C215 4.036 1_466 S
C255 C286 4.026 1_445 S
C15 C206 3.964 1_554 S
C175 C46 3.960 1_554 S
C86 C295 3.965 . S
C135 C246 3.961 . S
C9 C129 1.596 1_455 S
C49 C89 1.610 1_655 S
C58 C98 1.597 1_655 S
C138 C18 1.610 1_655 S
C169 C289 1.595 . S
C209 C249 1.610 . S
C218 C258 1.597 . S
C298 C178 1.610 . S
