# Generated by pormake.
# Topology wkb, (5)-cn, num edge types: 1
# Building blocks:
#     Node 0, Type 0, BuildingBlock: BEQFEK_clean_sbu_0, # of connection points: 5
#     Node 1, Type 0, BuildingBlock: BEQFEK_clean_sbu_0, # of connection points: 5
#     Node 2, Type 0, BuildingBlock: BEQFEK_clean_sbu_0, # of connection points: 5
#     Node 3, Type 0, BuildingBlock: BEQFEK_clean_sbu_0, # of connection points: 5
#     Node 4, Type 0, BuildingBlock: BEQFEK_clean_sbu_0, # of connection points: 5
#     Node 5, Type 0, BuildingBlock: BEQFEK_clean_sbu_0, # of connection points: 5
#     Node 6, Type 0, BuildingBlock: BEQFEK_clean_sbu_0, # of connection points: 5
#     Node 7, Type 0, BuildingBlock: BEQFEK_clean_sbu_0, # of connection points: 5
#     Node 8, Type 0, BuildingBlock: BEQFEK_clean_sbu_0, # of connection points: 5
#     Node 9, Type 0, BuildingBlock: BEQFEK_clean_sbu_0, # of connection points: 5
#     Node 10, Type 0, BuildingBlock: BEQFEK_clean_sbu_0, # of connection points: 5
#     Node 11, Type 0, BuildingBlock: BEQFEK_clean_sbu_0, # of connection points: 5
#     Edge 12, Type (0, 0), BuildingBlock: UVAHIK_clean_linker_0, # of connection points: 2
#     Edge 13, Type (0, 0), BuildingBlock: UVAHIK_clean_linker_0, # of connection points: 2
#     Edge 14, Type (0, 0), BuildingBlock: UVAHIK_clean_linker_0, # of connection points: 2
#     Edge 15, Type (0, 0), BuildingBlock: UVAHIK_clean_linker_0, # of connection points: 2
#     Edge 16, Type (0, 0), BuildingBlock: UVAHIK_clean_linker_0, # of connection points: 2
#     Edge 17, Type (0, 0), BuildingBlock: UVAHIK_clean_linker_0, # of connection points: 2
#     Edge 18, Type (0, 0), BuildingBlock: UVAHIK_clean_linker_0, # of connection points: 2
#     Edge 19, Type (0, 0), BuildingBlock: UVAHIK_clean_linker_0, # of connection points: 2
#     Edge 20, Type (0, 0), BuildingBlock: UVAHIK_clean_linker_0, # of connection points: 2
#     Edge 21, Type (0, 0), BuildingBlock: UVAHIK_clean_linker_0, # of connection points: 2
#     Edge 22, Type (0, 0), BuildingBlock: UVAHIK_clean_linker_0, # of connection points: 2
#     Edge 23, Type (0, 0), BuildingBlock: UVAHIK_clean_linker_0, # of connection points: 2
#     Edge 24, Type (0, 0), BuildingBlock: UVAHIK_clean_linker_0, # of connection points: 2
#     Edge 25, Type (0, 0), BuildingBlock: UVAHIK_clean_linker_0, # of connection points: 2
#     Edge 26, Type (0, 0), BuildingBlock: UVAHIK_clean_linker_0, # of connection points: 2
#     Edge 27, Type (0, 0), BuildingBlock: UVAHIK_clean_linker_0, # of connection points: 2
#     Edge 28, Type (0, 0), BuildingBlock: UVAHIK_clean_linker_0, # of connection points: 2
#     Edge 29, Type (0, 0), BuildingBlock: UVAHIK_clean_linker_0, # of connection points: 2
#     Edge 30, Type (0, 0), BuildingBlock: UVAHIK_clean_linker_0, # of connection points: 2
#     Edge 31, Type (0, 0), BuildingBlock: UVAHIK_clean_linker_0, # of connection points: 2
#     Edge 32, Type (0, 0), BuildingBlock: UVAHIK_clean_linker_0, # of connection points: 2
#     Edge 33, Type (0, 0), BuildingBlock: UVAHIK_clean_linker_0, # of connection points: 2
#     Edge 34, Type (0, 0), BuildingBlock: UVAHIK_clean_linker_0, # of connection points: 2
#     Edge 35, Type (0, 0), BuildingBlock: UVAHIK_clean_linker_0, # of connection points: 2
#     Edge 36, Type (0, 0), BuildingBlock: UVAHIK_clean_linker_0, # of connection points: 2
#     Edge 37, Type (0, 0), BuildingBlock: UVAHIK_clean_linker_0, # of connection points: 2
#     Edge 38, Type (0, 0), BuildingBlock: UVAHIK_clean_linker_0, # of connection points: 2
#     Edge 39, Type (0, 0), BuildingBlock: UVAHIK_clean_linker_0, # of connection points: 2
#     Edge 40, Type (0, 0), BuildingBlock: UVAHIK_clean_linker_0, # of connection points: 2
#     Edge 41, Type (0, 0), BuildingBlock: UVAHIK_clean_linker_0, # of connection points: 2
# Relax obj value: 0.101
# Max RMSD: 0.135
# Mean RMSD: 0.135
data_MOF--net-wkb--node1-BEQFEK_clean_sbu_0--edge1-UVAHIK_clean_linker_0
_symmetry_space_group_name_H-M    P1
_symmetry_Int_Tables_number       1
_symmetry_cell_setting            triclinic
loop_
_symmetry_equiv_pos_as_xyz
'x, y, z'
_cell_length_a     56.874292
_cell_length_b     56.901908
_cell_length_c     50.790094
_cell_angle_alpha  90.015311
_cell_angle_beta   89.949179
_cell_angle_gamma 119.97803
loop_
_atom_site_label
_atom_site_type_symbol
_atom_site_fract_x
_atom_site_fract_y
_atom_site_fract_z
_atom_type_partial_charge
Co0 Co 0.03262 0.35157 0.02429 0.0
Co1 Co 0.05985 0.35838 0.07939 0.0
C2 C 0.00379 0.31251 0.06868 0.0
O3 O 0.00428 0.32078 0.04521 0.0
O4 O 0.02417 0.32486 0.084 0.0
C5 C 0.0044 0.3269 0.97521 0.0
O6 O 0.99027 0.30454 0.9889 0.0
C7 C 0.08638 0.34877 0.12491 0.0
C8 C 0.114 0.3911 0.13736 0.0
C9 C 0.10697 0.36449 0.14248 0.0
N10 N 0.08173 0.36548 0.10987 0.0
N11 N 0.09795 0.39068 0.11778 0.0
C12 C 0.07325 0.31882 0.12075 0.0
H13 H 0.0641 0.31324 0.10081 0.0
H14 H 0.08828 0.31198 0.12341 0.0
H15 H 0.05697 0.30832 0.13562 0.0
C16 C 0.08123 0.34874 0.00762 0.0
N17 N 0.06623 0.35205 0.02626 0.0
N18 N 0.07831 0.3558 0.04921 0.0
C19 C 0.10174 0.35557 0.04577 0.0
C20 C 0.1043 0.35091 0.01934 0.0
C21 C 0.07225 0.34118 0.97968 0.0
H22 H 0.05146 0.32336 0.97945 0.0
H23 H 0.08574 0.33594 0.96849 0.0
H24 H 0.07169 0.35829 0.96983 0.0
O25 O 0.03622 0.38637 0.037 0.0
O26 O 0.05388 0.38957 0.07659 0.0
H27 H 0.12434 0.37782 0.07966 0.0
H28 H 0.14206 0.36614 0.05889 0.0
C29 C 0.12193 0.36085 0.06711 0.0
H30 H 0.11454 0.34243 0.07946 0.0
H31 H 0.09888 0.40771 0.10901 0.0
O32 O 0.02211 0.34829 0.98675 0.0
C33 C 0.04472 0.39864 0.05889 0.0
Co34 Co 0.68203 0.02903 0.18771 0.0
Co35 Co 0.70367 0.0585 0.24174 0.0
C36 C 0.6925 1.00221 0.2346 0.0
O37 O 0.6844 1.00189 0.21108 0.0
O38 O 0.70128 0.02328 0.24903 0.0
C39 C 0.68829 0.00565 0.1401 0.0
O40 O 0.70704 0.00393 0.15368 0.0
C41 C 0.7373 0.0862 0.28881 0.0
C42 C 0.72734 0.1189 0.29342 0.0
C43 C 0.74346 0.10918 0.30352 0.0
N44 N 0.71867 0.08288 0.27062 0.0
N45 N 0.71253 0.10223 0.27383 0.0
C46 C 0.75066 0.0693 0.29023 0.0
H47 H 0.74853 0.05877 0.27124 0.0
H48 H 0.77247 0.08206 0.29528 0.0
H49 H 0.74069 0.05376 0.30585 0.0
C50 C 0.73254 0.07825 0.16896 0.0
N51 N 0.7151 0.06297 0.18812 0.0
N52 N 0.72463 0.07482 0.21097 0.0
C53 C 0.74868 0.09767 0.20713 0.0
C54 C 0.75447 0.10061 0.18038 0.0
C55 C 0.72775 0.07257 0.1401 0.0
H56 H 0.70586 0.06348 0.13556 0.0
H57 H 0.73462 0.05819 0.13425 0.0
H58 H 0.73934 0.09144 0.12841 0.0
O59 O 0.65124 0.03373 0.19897 0.0
O60 O 0.66643 0.05271 0.238 0.0
H61 H 0.7571 0.12595 0.2384 0.0
H62 H 0.78708 0.13044 0.22161 0.0
C63 C 0.76664 0.11526 0.22883 0.0
H64 H 0.76903 0.10243 0.24373 0.0
H65 H 0.69889 0.10461 0.26197 0.0
O66 O 0.67458 0.01491 0.15123 0.0
C67 C 0.64801 0.04329 0.22046 0.0
Co68 Co 0.6563 0.68328 0.35532 0.0
Co69 Co 0.64715 0.70173 0.4107 0.0
C70 C 0.6931 0.6911 0.40074 0.0
O71 O 0.68672 0.68547 0.37657 0.0
O72 O 0.67948 0.69756 0.41607 0.0
C73 C 0.68416 0.68621 0.30677 0.0
O74 O 0.70633 0.70092 0.32055 0.0
C75 C 0.65603 0.73502 0.45878 0.0
C76 C 0.61396 0.71574 0.47385 0.0
C77 C 0.64028 0.73583 0.4793 0.0
N78 N 0.6396 0.71528 0.44198 0.0
N79 N 0.61451 0.70398 0.45112 0.0
C80 C 0.68621 0.7515 0.456 0.0
H81 H 0.69358 0.74269 0.44085 0.0
H82 H 0.69206 0.77243 0.44994 0.0
H83 H 0.69607 0.75272 0.47521 0.0
C84 C 0.65852 0.73503 0.33986 0.0
N85 N 0.65539 0.71633 0.35799 0.0
N86 N 0.6514 0.72404 0.38121 0.0
C87 C 0.65147 0.74766 0.37852 0.0
C88 C 0.65617 0.75554 0.35228 0.0
C89 C 0.66583 0.73423 0.31168 0.0
H90 H 0.68578 0.73523 0.31092 0.0
H91 H 0.66743 0.75142 0.30005 0.0
H92 H 0.65047 0.71484 0.3026 0.0
O93 O 0.62123 0.65135 0.367 0.0
O94 O 0.61529 0.66552 0.40573 0.0
H95 H 0.64068 0.77691 0.39277 0.0
H96 H 0.66404 0.77228 0.41309 0.0
C97 C 0.64582 0.76177 0.40041 0.0
H98 H 0.62869 0.74674 0.41255 0.0
H99 H 0.59773 0.68801 0.44194 0.0
O100 O 0.66118 0.67663 0.31794 0.0
C101 C 0.60735 0.6475 0.3879 0.0
Co102 Co 0.97451 0.65185 0.5246 0.0
Co103 Co 0.94603 0.64763 0.57861 0.0
C104 C 1.00313 0.69061 0.57002 0.0
O105 O 1.00277 0.68194 0.54673 0.0
O106 O 0.98223 0.67939 0.58478 0.0
C107 C 0.99712 0.67793 0.47516 0.0
O108 O 0.99801 0.69909 0.48656 0.0
C109 C 0.92168 0.65843 0.62557 0.0
C110 C 0.88582 0.61774 0.63139 0.0
C111 C 0.89853 0.64406 0.64092 0.0
N112 N 0.92232 0.64131 0.60765 0.0
N113 N 0.90105 0.61699 0.61154 0.0
C114 C 0.94127 0.68831 0.62605 0.0
H115 H 0.95756 0.69256 0.64049 0.0
H116 H 0.95073 0.69545 0.60641 0.0
H117 H 0.93095 0.69963 0.63209 0.0
C118 C 0.9258 0.6536 0.5051 0.0
N119 N 0.94126 0.65232 0.52458 0.0
N120 N 0.93034 0.65237 0.5474 0.0
C121 C 0.90829 0.65493 0.54322 0.0
C122 C 0.90451 0.65559 0.51623 0.0
C123 C 0.92995 0.65065 0.47645 0.0
H124 H 0.93897 0.63747 0.47377 0.0
H125 H 0.94384 0.67093 0.46798 0.0
H126 H 0.91042 0.6417 0.4656 0.0
O127 O 0.96844 0.6166 0.53773 0.0
O128 O 0.94948 0.61448 0.57647 0.0
H129 H 0.879 0.63914 0.57428 0.0
H130 H 0.8803 0.66763 0.55718 0.0
C131 C 0.89259 0.65891 0.56471 0.0
H132 H 0.90679 0.67296 0.57965 0.0
H133 H 0.89647 0.60003 0.60003 0.0
O134 O 0.98837 0.65602 0.48811 0.0
C135 C 0.95837 0.60446 0.55938 0.0
Co136 Co 0.32332 0.97379 0.68754 0.0
Co137 Co 0.30446 0.94713 0.74328 0.0
C138 C 0.31434 0.003 0.73256 0.0
O139 O 0.32148 0.00236 0.70887 0.0
O140 O 0.30678 0.98276 0.74791 0.0
C141 C 0.3194 0.99791 0.63899 0.0
O142 O 0.30427 0.00478 0.65288 0.0
C143 C 0.27156 0.92264 0.79173 0.0
C144 C 0.29114 0.89996 0.80622 0.0
C145 C 0.27099 0.90603 0.81209 0.0
N146 N 0.2912 0.9261 0.77466 0.0
N147 N 0.3027 0.91241 0.78349 0.0
C148 C 0.25489 0.93619 0.7893 0.0
H149 H 0.25278 0.94376 0.80881 0.0
H150 H 0.26409 0.95312 0.77499 0.0
H151 H 0.23429 0.92129 0.78224 0.0
C152 C 0.27193 0.92377 0.67231 0.0
N153 N 0.2904 0.93975 0.69041 0.0
N154 N 0.28268 0.92834 0.71374 0.0
C155 C 0.25919 0.90463 0.71118 0.0
C156 C 0.25149 0.90099 0.68488 0.0
C157 C 0.27287 0.93134 0.64394 0.0
H158 H 0.29265 0.93602 0.63528 0.0
H159 H 0.27098 0.94976 0.64264 0.0
H160 H 0.25621 0.91518 0.63226 0.0
O161 O 0.35502 0.97045 0.69905 0.0
O162 O 0.34159 0.95322 0.73898 0.0
H163 H 0.25988 0.8832 0.7456 0.0
H164 H 0.22964 0.86495 0.72593 0.0
C165 C 0.24494 0.88529 0.73331 0.0
H166 H 0.2346 0.89337 0.74577 0.0
H167 H 0.31865 0.91172 0.77405 0.0
O168 O 0.32972 0.98518 0.65011 0.0
C169 C 0.35934 0.96215 0.72081 0.0
Co170 Co 0.35176 0.32188 0.85597 0.0
Co171 Co 0.35805 0.30036 0.91085 0.0
C172 C 0.31426 0.3138 0.90143 0.0
O173 O 0.32214 0.32111 0.87781 0.0
O174 O 0.32619 0.30504 0.91634 0.0
C175 C 0.32337 0.31659 0.80804 0.0
O176 O 0.30249 0.29853 0.82171 0.0
C177 C 0.34658 0.26529 0.95807 0.0
C178 C 0.38835 0.28011 0.97239 0.0
C179 C 0.3614 0.26189 0.97792 0.0
N180 N 0.36412 0.2846 0.94147 0.0
N181 N 0.38901 0.29326 0.95018 0.0
C182 C 0.31632 0.2516 0.95585 0.0
H183 H 0.31018 0.26138 0.94064 0.0
H184 H 0.30807 0.23007 0.95025 0.0
H185 H 0.3074 0.25202 0.97517 0.0
C186 C 0.34871 0.27018 0.83867 0.0
N187 N 0.3512 0.28807 0.85745 0.0
N188 N 0.35357 0.27889 0.88052 0.0
C189 C 0.35249 0.25484 0.87713 0.0
C190 C 0.3492 0.24847 0.85051 0.0
C191 C 0.34752 0.27434 0.80971 0.0
H192 H 0.36109 0.29595 0.80458 0.0
H193 H 0.3264 0.26837 0.8042 0.0
H194 H 0.3537 0.26173 0.79819 0.0
O195 O 0.38749 0.35186 0.86788 0.0
O196 O 0.39086 0.33675 0.90716 0.0
H197 H 0.37236 0.24956 0.91046 0.0
H198 H 0.35195 0.21876 0.89193 0.0
C199 C 0.35331 0.23778 0.89912 0.0
H200 H 0.33601 0.23244 0.91253 0.0
H201 H 0.4065 0.30839 0.94106 0.0
O202 O 0.34642 0.32955 0.81913 0.0
C203 C 0.40029 0.35492 0.88934 0.0
Co204 Co 0.6549 0.97461 0.8097 0.0
Co205 Co 0.64757 0.94475 0.75597 0.0
C206 C 0.69319 1.00075 0.76332 0.0
O207 O 0.68505 1.00125 0.78665 0.0
O208 O 0.68089 0.97969 0.74889 0.0
C209 C 0.68442 0.99828 0.85707 0.0
O210 O 0.70475 0.99978 0.84339 0.0
C211 C 0.65397 0.91685 0.70932 0.0
C212 C 0.61132 0.88433 0.70421 0.0
C213 C 0.63729 0.89399 0.69445 0.0
N214 N 0.63845 0.92022 0.72726 0.0
N215 N 0.61298 0.90096 0.72377 0.0
C216 C 0.68425 0.93364 0.70827 0.0
H217 H 0.69243 0.94365 0.7275 0.0
H218 H 0.69327 0.92092 0.70288 0.0
H219 H 0.69009 0.94959 0.69304 0.0
C220 C 0.65511 0.92515 0.82927 0.0
N221 N 0.6534 0.94039 0.80982 0.0
N222 N 0.65122 0.9283 0.78712 0.0
C223 C 0.65197 0.90527 0.7914 0.0
C224 C 0.65447 0.90254 0.81825 0.0
C225 C 0.656 0.93125 0.85804 0.0
H226 H 0.64331 0.94054 0.8623 0.0
H227 H 0.67727 0.94558 0.86383 0.0
H228 H 0.64858 0.91253 0.86999 0.0
O229 O 0.61995 0.97064 0.79756 0.0
O230 O 0.61653 0.9513 0.75878 0.0
H231 H 0.63217 0.87688 0.76023 0.0
H232 H 0.65694 0.87184 0.77772 0.0
C233 C 0.65226 0.88728 0.77005 0.0
H234 H 0.66781 0.89977 0.75523 0.0
H235 H 0.59681 0.89865 0.73539 0.0
O236 O 0.66139 0.98899 0.84609 0.0
C237 C 0.60753 0.96117 0.77589 0.0
Co238 Co 0.68207 0.65135 0.97515 0.0
Co239 Co 0.70444 0.64785 0.91984 0.0
C240 C 0.69076 0.69078 0.93087 0.0
O241 O 0.6831 0.68169 0.95414 0.0
O242 O 0.69997 0.67979 0.91525 0.0
C243 C 0.68896 0.67879 0.02369 0.0
O244 O 0.708 0.69912 0.01021 0.0
C245 C 0.73846 0.66069 0.87207 0.0
C246 C 0.72863 0.61954 0.85954 0.0
C247 C 0.74403 0.64671 0.85298 0.0
N248 N 0.72067 0.64251 0.88928 0.0
N249 N 0.71489 0.61799 0.88164 0.0
C250 C 0.74819 0.69045 0.87305 0.0
H251 H 0.74908 0.69714 0.89373 0.0
H252 H 0.76834 0.70247 0.86361 0.0
H253 H 0.73355 0.69437 0.86224 0.0
C254 C 0.73326 0.65307 0.99199 0.0
N255 N 0.71579 0.65183 0.97333 0.0
N256 N 0.72592 0.65199 0.95 0.0
C257 C 0.75062 0.65443 0.95302 0.0
C258 C 0.75611 0.65512 0.97979 0.0
C259 C 0.72732 0.65013 0.0209 0.0
H260 H 0.70526 0.63692 0.02439 0.0
H261 H 0.73402 0.67041 0.02953 0.0
H262 H 0.73837 0.64123 0.03099 0.0
O263 O 0.65228 0.61612 0.96243 0.0
O264 O 0.66795 0.61471 0.92278 0.0
H265 H 0.76154 0.63865 0.91992 0.0
H266 H 0.79033 0.66526 0.93731 0.0
C267 C 0.76929 0.65814 0.93062 0.0
H268 H 0.7698 0.67339 0.91678 0.0
H269 H 0.7015 0.60017 0.89153 0.0
O270 O 0.67456 0.65613 0.01226 0.0
C271 C 0.64958 0.60435 0.9404 0.0
Co272 Co 0.03096 0.68394 0.14145 0.0
Co273 Co 0.06032 0.70205 0.08669 0.0
C274 C 0.00414 0.69288 0.09457 0.0
O275 O 0.0039 0.68667 0.11875 0.0
O276 O 0.0247 0.6994 0.07986 0.0
C277 C 0.02366 0.66442 0.19447 0.0
O278 O 0.03599 0.65172 0.18557 0.0
C279 C 0.08835 0.73671 0.04067 0.0
C280 C 0.11555 0.7209 0.02994 0.0
C281 C 0.10907 0.74064 0.02357 0.0
N282 N 0.08314 0.71575 0.05659 0.0
N283 N 0.09915 0.70615 0.04975 0.0
C284 C 0.07552 0.75397 0.04356 0.0
H285 H 0.06626 0.75125 0.06338 0.0
H286 H 0.09075 0.77565 0.04026 0.0
H287 H 0.05933 0.7478 0.02854 0.0
C288 C 0.07932 0.73561 0.15767 0.0
N289 N 0.06486 0.71666 0.13937 0.0
N290 N 0.07774 0.72403 0.11669 0.0
C291 C 0.10124 0.74761 0.12006 0.0
C292 C 0.10293 0.75583 0.1461 0.0
C293 C 0.06946 0.73544 0.18506 0.0
H294 H 0.07145 0.7202 0.19699 0.0
H295 H 0.04773 0.72965 0.18453 0.0
H296 H 0.08108 0.75557 0.19463 0.0
O297 O 0.03416 0.65182 0.13049 0.0
O298 O 0.05415 0.66514 0.09158 0.0
H299 H 0.12464 0.74614 0.08764 0.0
H300 H 0.14232 0.77602 0.10776 0.0
C301 C 0.12234 0.76139 0.09915 0.0
H302 H 0.11594 0.77249 0.08571 0.0
H303 H 0.0996 0.69014 0.0593 0.0
O304 O 0.01852 0.67862 0.17868 0.0
C305 C 0.04373 0.64736 0.10961 0.0
Co306 Co 0.3521 0.03074 0.30788 0.0
Co307 Co 0.35843 0.05937 0.25353 0.0
C308 C 0.31367 0.00295 0.26224 0.0
O309 O 0.32193 0.00308 0.28563 0.0
O310 O 0.32568 0.02373 0.24742 0.0
C311 C 0.32353 0.00797 0.35585 0.0
O312 O 0.30307 0.00651 0.34247 0.0
C313 C 0.34866 0.08451 0.20684 0.0
C314 C 0.39046 0.11754 0.19873 0.0
C315 C 0.3638 0.10668 0.19054 0.0
N316 N 0.36569 0.08265 0.224 0.0
N317 N 0.39065 0.1022 0.21874 0.0
C318 C 0.31843 0.06707 0.20792 0.0
H319 H 0.31193 0.05026 0.19354 0.0
H320 H 0.31181 0.05818 0.22784 0.0
H321 H 0.30849 0.07898 0.20268 0.0
C322 C 0.35102 0.08005 0.32649 0.0
N323 N 0.35276 0.06456 0.3073 0.0
N324 N 0.35454 0.07613 0.28438 0.0
C325 C 0.35344 0.09904 0.28825 0.0
C326 C 0.35115 0.10224 0.31506 0.0
C327 C 0.35086 0.07475 0.35536 0.0
H328 H 0.36379 0.06572 0.35962 0.0
H329 H 0.32977 0.06047 0.36175 0.0
H330 H 0.35844 0.09377 0.36686 0.0
O331 O 0.38726 0.03545 0.29545 0.0
O332 O 0.3904 0.05424 0.25639 0.0
H333 H 0.37259 0.12646 0.2562 0.0
H334 H 0.34843 0.13227 0.27397 0.0
C335 C 0.35278 0.11651 0.26656 0.0
H336 H 0.33679 0.10369 0.25228 0.0
H337 H 0.40773 0.1056 0.22943 0.0
O338 O 0.34639 0.01703 0.34453 0.0
C339 C 0.39971 0.04495 0.27378 0.0
Co340 Co 0.32339 0.35054 0.47667 0.0
Co341 Co 0.30374 0.35834 0.42145 0.0
C342 C 0.31451 0.31266 0.43178 0.0
O343 O 0.32137 0.32008 0.45557 0.0
O344 O 0.30707 0.32556 0.41659 0.0
C345 C 0.32022 0.32278 0.52504 0.0
O346 O 0.30508 0.30081 0.51116 0.0
C347 C 0.2699 0.34825 0.37367 0.0
C348 C 0.28907 0.38985 0.35749 0.0
C349 C 0.26901 0.36337 0.35262 0.0
N350 N 0.28969 0.36517 0.39016 0.0
N351 N 0.3009 0.38998 0.38039 0.0
C352 C 0.25348 0.31816 0.37719 0.0
H353 H 0.26211 0.31125 0.39291 0.0
H354 H 0.23244 0.31241 0.38284 0.0
H355 H 0.25252 0.30779 0.35837 0.0
C356 C 0.27184 0.34872 0.49274 0.0
N357 N 0.2902 0.35138 0.47438 0.0
N358 N 0.28209 0.35492 0.4512 0.0
C359 C 0.25851 0.35491 0.4541 0.0
C360 C 0.2511 0.35081 0.48049 0.0
C361 C 0.27314 0.3421 0.52104 0.0
H362 H 0.27147 0.32188 0.52221 0.0
H363 H 0.25651 0.34141 0.53297 0.0
H364 H 0.29295 0.35731 0.52952 0.0
O365 O 0.35501 0.3854 0.46444 0.0
O366 O 0.34035 0.39011 0.42549 0.0
H367 H 0.22881 0.36506 0.43984 0.0
H368 H 0.23342 0.34144 0.41988 0.0
C369 C 0.24397 0.35993 0.43221 0.0
H370 H 0.25875 0.37685 0.4197 0.0
H371 H 0.31695 0.40701 0.38919 0.0
O372 O 0.33036 0.34585 0.51397 0.0
C373 C 0.35861 0.3986 0.44313 0.0
Co374 Co 0.97336 0.32101 0.64229 0.0
Co375 Co 0.94639 0.30125 0.58691 0.0
C376 C 1.00329 0.31371 0.59682 0.0
O377 O 1.00259 0.32063 0.6206 0.0
O378 O 0.98277 0.30539 0.58171 0.0
C379 C 0.99837 0.31936 0.69167 0.0
O380 O 0.00772 0.30582 0.67859 0.0
C381 C 0.92256 0.26866 0.53817 0.0
C382 C 0.89637 0.28513 0.52583 0.0
C383 C 0.90462 0.26689 0.51872 0.0
N384 N 0.92472 0.28715 0.55603 0.0
N385 N 0.90892 0.29678 0.5485 0.0
C386 C 0.93852 0.25427 0.5389 0.0
H387 H 0.94865 0.25647 0.51963 0.0
H388 H 0.95379 0.26227 0.55488 0.0
H389 H 0.92466 0.23231 0.54235 0.0
C390 C 0.925 0.2686 0.65799 0.0
N391 N 0.94023 0.28732 0.63976 0.0
N392 N 0.92879 0.279 0.61653 0.0
C393 C 0.90594 0.25474 0.61926 0.0
C394 C 0.90287 0.24729 0.64562 0.0
C395 C 0.93097 0.27147 0.68688 0.0
H396 H 0.93639 0.29216 0.69344 0.0
H397 H 0.94845 0.26841 0.69071 0.0
H398 H 0.91329 0.25644 0.69851 0.0
O399 O 0.96815 0.35155 0.63113 0.0
O400 O 0.95056 0.33771 0.59143 0.0
H401 H 0.88099 0.25034 0.58602 0.0
H402 H 0.87085 0.21894 0.6034 0.0
C403 C 0.88841 0.23836 0.59678 0.0
H404 H 0.90069 0.2338 0.58301 0.0
H405 H 0.90688 0.31155 0.55875 0.0
O406 O 0.98444 0.32782 0.67966 0.0
C407 C 0.95903 0.35537 0.60967 0.0
C408 C 0.22343 0.33667 0.33081 0.0
C409 C 0.25154 0.35458 0.32903 0.0
C410 C 0.20673 0.33226 0.30891 0.0
C411 C 0.20615 0.37001 0.25155 0.0
H412 H 0.14536 0.30256 0.22654 0.0
C413 C 0.15036 0.37066 0.1596 0.0
C414 C 0.12195 0.35635 0.16038 0.0
C415 C 0.16528 0.36603 0.1785 0.0
C416 C 0.16216 0.32154 0.23347 0.0
H417 H 0.28448 0.38047 0.30281 0.0
H418 H 0.25553 0.37261 0.26471 0.0
H419 H 0.17324 0.30191 0.26318 0.0
H420 H 0.08659 0.32509 0.18058 0.0
H421 H 0.11281 0.31748 0.21454 0.0
H422 H 0.19507 0.3899 0.22278 0.0
C423 C 0.24627 0.36229 0.28298 0.0
C424 C 0.17809 0.32115 0.25436 0.0
C425 C 0.26283 0.36675 0.30476 0.0
C426 C 0.10855 0.33628 0.17963 0.0
C427 C 0.12356 0.33193 0.19896 0.0
C428 C 0.19026 0.37043 0.23098 0.0
C429 C 0.21798 0.3458 0.28507 0.0
C430 C 0.20046 0.34541 0.2633 0.0
C431 C 0.15211 0.34743 0.19903 0.0
C432 C 0.16831 0.34623 0.22138 0.0
H433 H 0.2141 0.32746 0.3494 0.0
H434 H 0.18495 0.31961 0.31109 0.0
H435 H 0.22277 0.38911 0.25852 0.0
H436 H 0.1611 0.38595 0.14465 0.0
H437 H 0.18722 0.37771 0.17748 0.0
C438 C 0.76932 0.10921 0.34377 0.0
C439 C 0.76469 0.12333 0.32362 0.0
C440 C 0.7876 0.12348 0.36413 0.0
C441 C 0.81614 0.18942 0.39729 0.0
H442 H 0.86772 0.17196 0.42859 0.0
C443 C 0.89301 0.26132 0.47128 0.0
C444 C 0.89536 0.24987 0.49487 0.0
C445 C 0.88018 0.24497 0.44955 0.0
C446 C 0.85327 0.17691 0.42009 0.0
H447 H 0.77649 0.16318 0.30806 0.0
H448 H 0.80849 0.18792 0.34306 0.0
H449 H 0.83893 0.14442 0.39196 0.0
H450 H 0.88673 0.21243 0.51414 0.0
H451 H 0.86411 0.18363 0.47596 0.0
H452 H 0.83005 0.22162 0.42518 0.0
C453 C 0.79767 0.16595 0.34364 0.0
C454 C 0.83681 0.16116 0.39921 0.0
C455 C 0.77939 0.15178 0.32355 0.0
C456 C 0.88576 0.22186 0.49599 0.0
C457 C 0.87269 0.20536 0.47419 0.0
C458 C 0.83249 0.20505 0.41797 0.0
C459 C 0.80143 0.15202 0.36455 0.0
C460 C 0.81836 0.16756 0.38736 0.0
C461 C 0.86902 0.21671 0.45104 0.0
C462 C 0.85152 0.19928 0.42938 0.0
H463 H 0.75798 0.08727 0.34446 0.0
H464 H 0.79 0.11222 0.38007 0.0
H465 H 0.80159 0.19441 0.38912 0.0
H466 H 0.90038 0.28291 0.46991 0.0
H467 H 0.87817 0.25438 0.43181 0.0
C468 C 0.63541 0.74226 0.52683 0.0
C469 C 0.64828 0.75345 0.50278 0.0
C470 C 0.63909 0.75892 0.54834 0.0
C471 C 0.67949 0.82736 0.57674 0.0
H472 H 0.61045 0.80906 0.60873 0.0
C473 C 0.66322 0.89432 0.65411 0.0
C474 C 0.64455 0.88002 0.67428 0.0
C475 C 0.66725 0.88023 0.63357 0.0
C476 C 0.62996 0.81428 0.60029 0.0
H477 H 0.67574 0.79081 0.48252 0.0
H478 H 0.68221 0.82014 0.52036 0.0
H479 H 0.61167 0.78193 0.57253 0.0
H480 H 0.61674 0.84006 0.68975 0.0
H481 H 0.62411 0.81562 0.65449 0.0
H482 H 0.69765 0.85991 0.60482 0.0
C483 C 0.66962 0.79838 0.5226 0.0
C484 C 0.63066 0.79872 0.57951 0.0
C485 C 0.66601 0.78158 0.50098 0.0
C486 C 0.63097 0.85158 0.67425 0.0
C487 C 0.63514 0.83759 0.65399 0.0
C488 C 0.6788 0.84302 0.59776 0.0
C489 C 0.65545 0.78722 0.5462 0.0
C490 C 0.65541 0.80477 0.56776 0.0
C491 C 0.65268 0.85169 0.633 0.0
C492 C 0.65401 0.83631 0.60999 0.0
H493 H 0.62179 0.72061 0.52879 0.0
H494 H 0.62834 0.7497 0.56645 0.0
H495 H 0.69883 0.83251 0.56795 0.0
H496 H 0.67369 0.91627 0.65353 0.0
H497 H 0.68081 0.89163 0.61759 0.0
C498 C 0.8589 0.6435 0.66212 0.0
C499 C 0.88708 0.65407 0.66124 0.0
C500 C 0.84725 0.65125 0.68195 0.0
C501 C 0.85786 0.67426 0.74996 0.0
H502 H 0.79466 0.68145 0.73619 0.0
C503 C 0.79027 0.67636 0.83399 0.0
C504 C 0.76269 0.65731 0.83038 0.0
C505 C 0.80852 0.68345 0.81296 0.0
C506 C 0.81236 0.67963 0.74034 0.0
H507 H 0.92523 0.68094 0.68053 0.0
H508 H 0.90474 0.69461 0.7155 0.0
H509 H 0.82197 0.68069 0.69947 0.0
H510 H 0.73233 0.63097 0.8023 0.0
H511 H 0.76398 0.64344 0.76553 0.0
H512 H 0.84756 0.67207 0.7908 0.0
C513 C 0.89176 0.68047 0.70059 0.0
C514 C 0.82798 0.67918 0.71935 0.0
C515 C 0.9035 0.67285 0.68048 0.0
C516 C 0.75348 0.64597 0.8054 0.0
C517 C 0.77158 0.65325 0.78437 0.0
C518 C 0.84223 0.67476 0.771 0.0
C519 C 0.86346 0.6696 0.70158 0.0
C520 C 0.85029 0.67546 0.72387 0.0
C521 C 0.79938 0.67168 0.78801 0.0
C522 C 0.81876 0.67645 0.76632 0.0
H523 H 0.84576 0.62896 0.64753 0.0
H524 H 0.82536 0.64209 0.6824 0.0
H525 H 0.87481 0.67119 0.75408 0.0
H526 H 0.79793 0.68478 0.8533 0.0
H527 H 0.82983 0.69765 0.81634 0.0
C528 C 0.22551 0.88694 0.83444 0.0
C529 C 0.25346 0.89607 0.83568 0.0
C530 C 0.2087 0.87364 0.85604 0.0
C531 C 0.20621 0.83084 0.91023 0.0
H532 H 0.14914 0.84108 0.93999 0.0
C533 C 0.15255 0.77483 0.00347 0.0
C534 C 0.12422 0.76273 0.00453 0.0
C535 C 0.16731 0.79367 0.98396 0.0
C536 C 0.16484 0.83785 0.93168 0.0
H537 H 0.28598 0.89992 0.86081 0.0
H538 H 0.25681 0.87692 0.89833 0.0
H539 H 0.17688 0.87011 0.90352 0.0
H540 H 0.08901 0.76128 0.98656 0.0
H541 H 0.11489 0.79402 0.95172 0.0
H542 H 0.1942 0.79844 0.93756 0.0
C543 C 0.24778 0.8797 0.88068 0.0
C544 C 0.1807 0.85447 0.9109 0.0
C545 C 0.26447 0.89289 0.85923 0.0
C546 C 0.1109 0.77055 0.98626 0.0
C547 C 0.12571 0.78927 0.96637 0.0
C548 C 0.19036 0.81423 0.93069 0.0
C549 C 0.21963 0.86916 0.87903 0.0
C550 C 0.20184 0.85136 0.90033 0.0
C551 C 0.15404 0.80048 0.96464 0.0
C552 C 0.16981 0.81779 0.94203 0.0
H553 H 0.21632 0.88852 0.8164 0.0
H554 H 0.18702 0.86552 0.85421 0.0
H555 H 0.22187 0.82749 0.90199 0.0
H556 H 0.16333 0.76942 0.01758 0.0
H557 H 0.18916 0.80249 0.98368 0.0
C558 C 0.36452 0.25302 0.02531 0.0
C559 C 0.35174 0.24353 0.00089 0.0
C560 C 0.35766 0.23545 0.04671 0.0
C561 C 0.33278 0.16424 0.06158 0.0
H562 H 0.333 0.18808 0.13317 0.0
C563 C 0.33389 0.10307 0.15245 0.0
C564 C 0.35442 0.119 0.17055 0.0
C565 C 0.3267 0.11541 0.13262 0.0
C566 C 0.33277 0.18108 0.11328 0.0
H567 H 0.322 0.20806 0.97956 0.0
H568 H 0.30974 0.17726 0.01715 0.0
H569 H 0.33229 0.21527 0.09637 0.0
H570 H 0.38314 0.16014 0.18249 0.0
H571 H 0.3707 0.18159 0.1481 0.0
H572 H 0.33439 0.13061 0.07854 0.0
C573 C 0.32487 0.19843 0.01976 0.0
C574 C 0.33238 0.19664 0.09223 0.0
C575 C 0.33162 0.21614 0.99834 0.0
C576 C 0.36723 0.14736 0.1688 0.0
C577 C 0.3599 0.15965 0.14926 0.0
C578 C 0.33315 0.14864 0.08267 0.0
C579 C 0.33806 0.20786 0.04409 0.0
C580 C 0.33336 0.1889 0.06616 0.0
C581 C 0.33976 0.14386 0.13078 0.0
C582 C 0.33414 0.15743 0.10872 0.0
H583 H 0.38022 0.27402 0.02774 0.0
H584 H 0.36856 0.24328 0.06503 0.0
H585 H 0.33374 0.15783 0.04172 0.0
H586 H 0.32402 0.08115 0.15307 0.0
H587 H 0.31114 0.10276 0.11859 0.0
C588 C 0.04587 0.43302 0.09037 0.0
C589 C 0.04359 0.42363 0.06437 0.0
C590 C 0.04469 0.45645 0.09586 0.0
C591 C 0.02413 0.50357 0.06673 0.0
H592 H 0.06891 0.55121 0.12279 0.0
C593 C 0.0454 0.6131 0.0801 0.0
C594 C 0.04236 0.62093 0.10558 0.0
C595 C 0.0442 0.58831 0.07585 0.0
C596 C 0.05609 0.53793 0.10728 0.0
H597 H 0.03854 0.4317 0.02368 0.0
H598 H 0.03749 0.47319 0.03309 0.0
H599 H 0.07023 0.5099 0.11321 0.0
H600 H 0.03581 0.60884 0.14663 0.0
H601 H 0.03433 0.56551 0.13919 0.0
H602 H 0.01085 0.53234 0.06028 0.0
C603 C 0.03941 0.46202 0.0494 0.0
C604 C 0.05675 0.51418 0.10178 0.0
C605 C 0.0402 0.43831 0.04394 0.0
C606 C 0.03817 0.60336 0.12678 0.0
C607 C 0.03743 0.57866 0.12255 0.0
C608 C 0.02379 0.52751 0.07199 0.0
C609 C 0.0416 0.4714 0.07546 0.0
C610 C 0.04079 0.49667 0.0814 0.0
C611 C 0.04033 0.5709 0.09701 0.0
C612 C 0.0398 0.54494 0.09227 0.0
H613 H 0.04824 0.42205 0.10663 0.0
H614 H 0.04588 0.46261 0.11621 0.0
H615 H 0.01113 0.49039 0.05127 0.0
H616 H 0.04857 0.62609 0.0633 0.0
H617 H 0.04676 0.58293 0.05601 0.0
C618 C 0.43521 0.04807 0.24246 0.0
C619 C 0.42529 0.04491 0.26836 0.0
C620 C 0.45912 0.04768 0.23715 0.0
C621 C 0.52292 0.06077 0.26656 0.0
H622 H 0.52402 0.01422 0.21138 0.0
C623 C 0.61548 0.04669 0.25125 0.0
C624 C 0.62238 0.04334 0.22549 0.0
C625 C 0.59135 0.04671 0.25627 0.0
C626 C 0.52427 0.0277 0.22656 0.0
H627 H 0.43291 0.03918 0.30904 0.0
H628 H 0.47508 0.03907 0.29974 0.0
H629 H 0.48227 0.01494 0.22046 0.0
H630 H 0.60944 0.0377 0.18472 0.0
H631 H 0.56778 0.03873 0.19329 0.0
H632 H 0.56497 0.07425 0.27228 0.0
C633 C 0.46415 0.04166 0.28359 0.0
C634 C 0.50027 0.02796 0.23184 0.0
C635 C 0.43997 0.0416 0.28887 0.0
C636 C 0.60462 0.04014 0.20482 0.0
C637 C 0.58062 0.04057 0.20979 0.0
C638 C 0.54703 0.06084 0.26105 0.0
C639 C 0.47386 0.04456 0.25766 0.0
C640 C 0.49934 0.04439 0.25198 0.0
C641 C 0.57363 0.04382 0.23561 0.0
C642 C 0.54802 0.04417 0.24107 0.0
H643 H 0.42436 0.05059 0.22619 0.0
H644 H 0.46628 0.05016 0.21701 0.0
H645 H 0.52283 0.0739 0.28197 0.0
H646 H 0.62858 0.04895 0.26768 0.0
H647 H 0.58648 0.04865 0.27647 0.0
C648 C 0.56447 0.61914 0.41309 0.0
C649 C 0.5818 0.62151 0.39223 0.0
C650 C 0.54096 0.59454 0.41826 0.0
C651 C 0.49291 0.52806 0.38866 0.0
H652 H 0.47166 0.50831 0.4615 0.0
C653 C 0.387 0.44054 0.41662 0.0
C654 C 0.3846 0.42397 0.43817 0.0
C655 C 0.41158 0.46399 0.41113 0.0
C656 C 0.47741 0.51331 0.44105 0.0
H657 H 0.58778 0.59978 0.36026 0.0
H658 H 0.54685 0.55652 0.36957 0.0
H659 H 0.51378 0.54974 0.4514 0.0
H660 H 0.4063 0.41917 0.47091 0.0
H661 H 0.44944 0.45993 0.46105 0.0
H662 H 0.45689 0.49125 0.37833 0.0
C663 C 0.5513 0.5739 0.38172 0.0
C664 C 0.50142 0.53731 0.43523 0.0
C665 C 0.57482 0.59868 0.37641 0.0
C666 C 0.4074 0.43155 0.45424 0.0
C667 C 0.43212 0.45498 0.44862 0.0
C668 C 0.46897 0.50396 0.39449 0.0
C669 C 0.53419 0.57149 0.40286 0.0
C670 C 0.50932 0.54519 0.40896 0.0
C671 C 0.43454 0.47144 0.42691 0.0
C672 C 0.46073 0.49643 0.42076 0.0
H673 H 0.56903 0.63635 0.42556 0.0
H674 H 0.52798 0.59367 0.43429 0.0
H675 H 0.49822 0.53353 0.36821 0.0
H676 H 0.36982 0.43546 0.40391 0.0
H677 H 0.41246 0.47644 0.39461 0.0
C678 C 0.95384 0.56848 0.59088 0.0
C679 C 0.95745 0.57847 0.56501 0.0
C680 C 0.95393 0.54443 0.59631 0.0
C681 C 0.97474 0.49742 0.56721 0.0
H682 H 0.92863 0.44875 0.62206 0.0
C683 C 0.95543 0.38847 0.5799 0.0
C684 C 0.95859 0.38091 0.60544 0.0
C685 C 0.95546 0.41272 0.57561 0.0
C686 C 0.94175 0.46229 0.60683 0.0
H687 H 0.96321 0.5706 0.52442 0.0
H688 H 0.96233 0.52824 0.53366 0.0
H689 H 0.92762 0.49035 0.61291 0.0
H690 H 0.96382 0.39274 0.64657 0.0
H691 H 0.96333 0.43501 0.63904 0.0
H692 H 0.98817 0.4688 0.56068 0.0
C693 C 0.96034 0.53937 0.54997 0.0
C694 C 0.94128 0.48619 0.60161 0.0
C695 C 0.96065 0.56361 0.54462 0.0
C696 C 0.96143 0.39802 0.62666 0.0
C697 C 0.96102 0.42213 0.62239 0.0
C698 C 0.97489 0.47336 0.57218 0.0
C699 C 0.95725 0.52956 0.57593 0.0
C700 C 0.95775 0.50409 0.58168 0.0
C701 C 0.95824 0.42978 0.59679 0.0
C702 C 0.95839 0.45555 0.592 0.0
H703 H 0.9515 0.57953 0.60708 0.0
H704 H 0.95192 0.53782 0.61658 0.0
H705 H 0.98819 0.51091 0.55215 0.0
H706 H 0.95322 0.37579 0.5631 0.0
H707 H 0.95304 0.41803 0.55571 0.0
C708 C 0.39324 0.96109 0.75137 0.0
C709 C 0.38552 0.96313 0.72554 0.0
C710 C 0.41782 0.96196 0.75618 0.0
C711 C 0.46759 0.94777 0.72648 0.0
H712 H 0.51582 0.9949 0.78099 0.0
C713 C 0.57268 0.95847 0.74409 0.0
C714 C 0.5824 0.96193 0.77006 0.0
C715 C 0.54914 0.95937 0.7383 0.0
C716 C 0.50244 0.98129 0.76598 0.0
H717 H 0.39753 0.96752 0.68449 0.0
H718 H 0.44043 0.96847 0.69296 0.0
H719 H 0.47392 0.99508 0.77139 0.0
H720 H 0.57478 0.96871 0.81039 0.0
H721 H 0.53314 0.96929 0.8005 0.0
H722 H 0.49541 0.9332 0.72155 0.0
C723 C 0.42739 0.96638 0.70942 0.0
C724 C 0.47852 0.98156 0.76038 0.0
C725 C 0.40293 0.96595 0.7046 0.0
C726 C 0.56793 0.96616 0.79015 0.0
C727 C 0.54412 0.96666 0.78442 0.0
C728 C 0.49132 0.9472 0.73231 0.0
C729 C 0.43508 0.96449 0.73528 0.0
C730 C 0.46086 0.9648 0.74059 0.0
C731 C 0.53442 0.96334 0.75838 0.0
C732 C 0.5091 0.96396 0.75215 0.0
H733 H 0.38036 0.95896 0.76797 0.0
H734 H 0.42314 0.96021 0.77628 0.0
H735 H 0.45414 0.93438 0.71135 0.0
H736 H 0.58347 0.95542 0.72808 0.0
H737 H 0.54271 0.95729 0.71796 0.0
C738 C 0.4408 0.39771 0.87307 0.0
C739 C 0.42643 0.38018 0.89397 0.0
C740 C 0.46544 0.42155 0.87763 0.0
C741 C 0.52016 0.45549 0.92798 0.0
H742 H 0.53791 0.52001 0.88742 0.0
C743 C 0.60692 0.563 0.95551 0.0
C744 C 0.6245 0.57829 0.93494 0.0
C745 C 0.58321 0.53848 0.95025 0.0
C746 C 0.53328 0.50208 0.89876 0.0
H747 H 0.42654 0.37415 0.93614 0.0
H748 H 0.46879 0.41602 0.94423 0.0
H749 H 0.49556 0.47807 0.87882 0.0
H750 H 0.63084 0.57983 0.89268 0.0
H751 H 0.58916 0.53726 0.88353 0.0
H752 H 0.55762 0.47997 0.94843 0.0
C753 C 0.46159 0.41108 0.92415 0.0
C754 C 0.50907 0.47796 0.89377 0.0
C755 C 0.43719 0.38708 0.91954 0.0
C756 C 0.61778 0.56854 0.90899 0.0
C757 C 0.59386 0.54425 0.9037 0.0
C758 C 0.54417 0.47972 0.93321 0.0
C759 C 0.47613 0.42865 0.90327 0.0
C760 C 0.50214 0.45431 0.90831 0.0
C761 C 0.57637 0.52896 0.92428 0.0
C762 C 0.55096 0.50323 0.91864 0.0
H763 H 0.43317 0.39288 0.85311 0.0
H764 H 0.47622 0.43426 0.86096 0.0
H765 H 0.5159 0.43764 0.93923 0.0
H766 H 0.61153 0.56989 0.97571 0.0
H767 H 0.56997 0.52716 0.96645 0.0
C768 C 0.98833 0.334 0.73462 0.0
C769 C 1.00104 0.32205 0.72066 0.0
C770 C 0.98911 0.33501 0.76207 0.0
C771 C 0.99935 0.30215 0.82011 0.0
H772 H 0.00668 0.3654 0.85647 0.0
C773 C 0.98389 0.30301 0.93261 0.0
C774 C 1.00232 0.32667 0.94615 0.0
C775 C 0.98336 0.30254 0.90506 0.0
C776 C 0.0048 0.34764 0.84665 0.0
H777 H 0.02499 0.30225 0.72464 0.0
H778 H 0.02678 0.30446 0.77269 0.0
H779 H 0.00842 0.36522 0.80862 0.0
H780 H 0.03449 0.36848 0.94133 0.0
H781 H 0.03376 0.36752 0.89354 0.0
H782 H 0.99639 0.28486 0.85824 0.0
C783 C 0.01581 0.31264 0.76233 0.0
C784 C 0.00551 0.34743 0.81918 0.0
C785 C 0.01498 0.31156 0.7348 0.0
C786 C 0.0199 0.34993 0.93156 0.0
C787 C 0.01942 0.34944 0.9041 0.0
C788 C 0.9987 0.3024 0.84762 0.0
C789 C 1.0027 0.3242 0.77629 0.0
C790 C 1.00273 0.32466 0.80556 0.0
C791 C 1.00128 0.3257 0.89049 0.0
C792 C 1.00141 0.32515 0.86122 0.0
H793 H 0.97726 0.34214 0.72439 0.0
H794 H 0.97846 0.34371 0.77215 0.0
H795 H 0.99682 0.28417 0.81023 0.0
H796 H 0.97006 0.28476 0.94326 0.0
H797 H 0.96887 0.28404 0.89518 0.0
C798 C 0.70953 0.00527 0.89949 0.0
C799 C 0.68683 0.00267 0.88589 0.0
C800 C 0.71035 0.00625 0.927 0.0
C801 C 0.68038 0.01981 0.98529 0.0
H802 H 0.70093 0.97267 0.0213 0.0
C803 C 0.66552 1.00216 0.09698 0.0
C804 C 0.68641 1.00162 0.11123 0.0
C805 C 0.66536 1.00146 0.0695 0.0
C806 C 0.69545 0.9862 0.0116 0.0
H807 H 0.64765 1.00003 0.89045 0.0
H808 H 0.64925 1.00202 0.93841 0.0
H809 H 0.70244 0.97505 0.97333 0.0
H810 H 0.72317 0.99922 0.10779 0.0
H811 H 0.72315 0.99843 0.05983 0.0
H812 H 0.67366 0.03124 0.02343 0.0
C813 C 0.66638 0.00328 0.92781 0.0
C814 C 0.69633 0.98756 0.9841 0.0
C815 C 0.66544 1.00206 0.90033 0.0
C816 C 0.70668 0.99949 0.09741 0.0
C817 C 0.70663 0.99899 0.06988 0.0
C818 C 0.67968 0.0186 0.01277 0.0
C819 C 0.68863 0.00491 0.94145 0.0
C820 C 0.68868 0.00428 0.97066 0.0
C821 C 0.68621 1.00042 0.05557 0.0
C822 C 0.68704 1.00166 0.02628 0.0
H823 H 0.72632 0.00573 0.88897 0.0
H824 H 0.72791 0.00784 0.937 0.0
H825 H 0.67468 0.03313 0.97548 0.0
H826 H 0.64951 0.00364 0.10705 0.0
H827 H 0.64898 1.00197 0.05916 0.0
C828 C 0.70816 0.70241 0.06649 0.0
C829 C 0.68706 0.6809 0.05255 0.0
C830 C 0.70766 0.70308 0.09398 0.0
C831 C 0.67579 0.65793 0.15162 0.0
H832 H 0.70515 0.72599 0.18956 0.0
C833 C 0.66245 0.66526 0.26372 0.0
C834 C 0.68556 0.68387 0.27788 0.0
C835 C 0.66305 0.6644 0.23625 0.0
C836 C 0.69712 0.70686 0.17919 0.0
H837 H 0.64837 0.64375 0.05641 0.0
H838 H 0.64698 0.64537 0.10429 0.0
H839 H 0.7042 0.72607 0.14156 0.0
H840 H 0.72753 0.71592 0.27435 0.0
H841 H 0.72846 0.71455 0.22627 0.0
H842 H 0.66816 0.63877 0.18943 0.0
C843 C 0.66436 0.66134 0.0941 0.0
C844 C 0.6966 0.70688 0.15168 0.0
C845 C 0.66502 0.66052 0.06662 0.0
C846 C 0.70942 0.70129 0.26402 0.0
C847 C 0.70991 0.70066 0.23651 0.0
C848 C 0.67603 0.65792 0.17913 0.0
C849 C 0.68588 0.68239 0.10818 0.0
C850 C 0.68598 0.68241 0.13751 0.0
C851 C 0.68667 0.68234 0.22236 0.0
C852 C 0.68677 0.68238 0.19318 0.0
H853 H 0.72555 0.71831 0.05624 0.0
H854 H 0.72478 0.71941 0.1041 0.0
H855 H 0.66797 0.63875 0.14144 0.0
H856 H 0.64375 0.65158 0.27383 0.0
H857 H 0.64479 0.65019 0.22583 0.0
C858 C 0.00388 0.69882 0.43036 0.0
C859 C 1.00244 0.67817 0.44661 0.0
C860 C 0.00633 0.69761 0.40306 0.0
C861 C 0.99477 0.64841 0.34966 0.0
H862 H 0.03725 0.71335 0.30804 0.0
C863 C 0.02102 0.64641 0.23998 0.0
C864 C 0.01854 0.66456 0.22301 0.0
C865 C 0.01809 0.64774 0.26717 0.0
C866 C 0.0251 0.69508 0.31941 0.0
H867 H 1.00351 0.6406 0.4471 0.0
H868 H 0.00864 0.63892 0.39967 0.0
H869 H 0.03554 0.71693 0.35579 0.0
H870 H 0.01068 0.69812 0.22126 0.0
H871 H 0.00578 0.70055 0.26881 0.0
H872 H 0.98481 0.62657 0.31322 0.0
C873 C 0.00708 0.65567 0.40785 0.0
C874 C 0.02408 0.69711 0.34677 0.0
C875 C 0.00437 0.65674 0.43509 0.0
C876 C 0.01264 0.6838 0.23379 0.0
C877 C 0.01004 0.68534 0.26102 0.0
C878 C 0.99601 0.64637 0.32234 0.0
C879 C 0.00763 0.67584 0.39142 0.0
C880 C 0.00891 0.67379 0.36227 0.0
C881 C 0.01293 0.66745 0.27799 0.0
C882 C 0.01118 0.66968 0.30694 0.0
H883 H 1.00224 0.7155 0.43862 0.0
H884 H 0.00637 0.71335 0.39104 0.0
H885 H 0.98241 0.63007 0.36085 0.0
H886 H 0.02555 0.63135 0.23229 0.0
H887 H 0.02061 0.63381 0.27979 0.0
C888 C 0.30326 0.00707 0.59638 0.0
C889 C 0.32131 1.00136 0.61005 0.0
C890 C 0.30347 0.00786 0.56885 0.0
C891 C 0.34574 0.01697 0.5109 0.0
H892 H 0.27718 0.97556 0.47431 0.0
C893 C 0.3421 0.00235 0.39856 0.0
C894 C 0.32142 0.00362 0.38466 0.0
C895 C 0.3415 1.00096 0.42603 0.0
C896 C 0.29648 0.98753 0.48416 0.0
H897 H 0.35425 0.99281 0.60564 0.0
H898 H 0.35488 0.99466 0.55762 0.0
H899 H 0.2779 0.97713 0.52231 0.0
H900 H 0.28363 0.00395 0.38868 0.0
H901 H 0.28289 1.00221 0.43656 0.0
H902 H 0.36437 0.02792 0.47295 0.0
C903 C 0.34052 0.9984 0.56819 0.0
C904 C 0.29686 0.98838 0.51167 0.0
C905 C 0.34009 0.99727 0.59567 0.0
C906 C 0.29977 0.00278 0.39879 0.0
C907 C 0.29932 1.00169 0.4263 0.0
C908 C 0.34535 0.01638 0.4834 0.0
C909 C 0.32196 0.00332 0.5545 0.0
C910 C 0.32151 0.00304 0.52531 0.0
C911 C 0.32037 1.00113 0.44031 0.0
C912 C 0.32072 1.00155 0.46964 0.0
H913 H 0.28848 0.01022 0.60688 0.0
H914 H 0.28911 0.01195 0.55878 0.0
H915 H 0.365 0.02867 0.52092 0.0
H916 H 0.35899 0.00281 0.38821 0.0
H917 H 0.35775 0.99993 0.43608 0.0
C918 C 0.30373 0.29761 0.56764 0.0
C919 C 0.32207 0.32119 0.55395 0.0
C920 C 0.30374 0.29707 0.59516 0.0
C921 C 0.32666 0.34341 0.65289 0.0
H922 H 0.31012 0.27799 0.69122 0.0
C923 C 0.34226 0.34022 0.76515 0.0
C924 C 0.32123 0.31872 0.77924 0.0
C925 C 0.34146 0.34094 0.73768 0.0
C926 C 0.31452 0.29632 0.68074 0.0
H927 H 0.35553 0.36234 0.5583 0.0
H928 H 0.35626 0.36112 0.60618 0.0
H929 H 0.31185 0.27806 0.64324 0.0
H930 H 0.28264 0.28138 0.7756 0.0
H931 H 0.28143 0.28255 0.72754 0.0
H932 H 0.33 0.36177 0.69058 0.0
C933 C 0.34125 0.34328 0.59579 0.0
C934 C 0.31546 0.29638 0.65324 0.0
C935 C 0.34101 0.34392 0.5683 0.0
C936 C 0.2991 0.29827 0.76532 0.0
C937 C 0.29849 0.29881 0.73782 0.0
C938 C 0.32603 0.34342 0.68039 0.0
C939 C 0.32231 0.32002 0.60961 0.0
C940 C 0.32154 0.31993 0.63893 0.0
C941 C 0.3198 0.32 0.72374 0.0
C942 C 0.31991 0.31987 0.69457 0.0
H943 H 0.28872 0.27983 0.55715 0.0
H944 H 0.28862 0.27891 0.60507 0.0
H945 H 0.33082 0.36175 0.64259 0.0
H946 H 0.35959 0.35627 0.77532 0.0
H947 H 0.35823 0.35744 0.7273 0.0
C948 C 0.27983 0.30479 0.93667 0.0
C949 C 0.2913 0.31626 0.91213 0.0
C950 C 0.25889 0.30794 0.9473 0.0
C951 C 0.22985 0.35272 0.94546 0.0
H952 H 0.16724 0.292 0.97792 0.0
C953 C 0.13859 0.36134 0.98365 0.0
C954 C 0.12585 0.34732 0.00683 0.0
C955 C 0.15845 0.3574 0.97152 0.0
C956 C 0.18475 0.30928 0.96926 0.0
H957 H 0.28949 0.33982 0.87941 0.0
H958 H 0.25302 0.34544 0.89812 0.0
H959 H 0.20219 0.28509 0.95766 0.0
H960 H 0.12391 0.31843 0.03569 0.0
H961 H 0.15923 0.31222 0.01516 0.0
H962 H 0.21283 0.37709 0.9575 0.0
C963 C 0.26035 0.33409 0.90912 0.0
C964 C 0.20472 0.30526 0.95756 0.0
C965 C 0.28113 0.33072 0.89835 0.0
C966 C 0.13355 0.32959 0.01788 0.0
C967 C 0.15354 0.32579 0.0059 0.0
C968 C 0.21 0.35681 0.95736 0.0
C969 C 0.24908 0.32282 0.93376 0.0
C970 C 0.22752 0.32694 0.94558 0.0
C971 C 0.16616 0.33952 0.98245 0.0
C972 C 0.1872 0.33515 0.96949 0.0
H973 H 0.28713 0.29349 0.94782 0.0
H974 H 0.25078 0.29921 0.96642 0.0
H975 H 0.24738 0.3699 0.93669 0.0
H976 H 0.13315 0.37531 0.97488 0.0
H977 H 0.16745 0.3681 0.95335 0.0
C978 C 0.95494 0.27643 0.06332 0.0
C979 C 0.97859 0.28885 0.0788 0.0
C980 C 0.93072 0.25527 0.07351 0.0
C981 C 0.89636 0.22635 0.13681 0.0
H982 H 0.84714 0.16503 0.09377 0.0
C983 C 0.78826 0.14944 0.17196 0.0
C984 C 0.77913 0.12193 0.16715 0.0
C985 C 0.81223 0.16955 0.16037 0.0
C986 C 0.86074 0.18193 0.10611 0.0
H987 H 0.99545 0.28808 0.11692 0.0
H988 H 0.95334 0.251 0.13448 0.0
H989 H 0.89032 0.19973 0.07538 0.0
H990 H 0.78743 0.09371 0.14627 0.0
H991 H 0.82942 0.12877 0.12603 0.0
H992 H 0.8671 0.20833 0.1677 0.0
C993 C 0.95339 0.25797 0.11463 0.0
C994 C 0.88537 0.20197 0.09547 0.0
C995 C 0.9776 0.27914 0.10448 0.0
C996 C 0.794 0.11483 0.15011 0.0
C997 C 0.81799 0.13491 0.13851 0.0
C998 C 0.87176 0.20634 0.14743 0.0
C999 C 0.92957 0.246 0.09939 0.0
C1000 C 0.90349 0.22443 0.1107 0.0
C1001 C 0.82754 0.16253 0.1437 0.0
C1002 C 0.85362 0.18389 0.13222 0.0
H1003 H 0.95493 0.28339 0.04348 0.0
H1004 H 0.91271 0.2467 0.06131 0.0
H1005 H 0.90966 0.24354 0.149 0.0
H1006 H 0.77687 0.15538 0.18476 0.0
H1007 H 0.81871 0.19061 0.1644 0.0
C1008 C 0.64487 0.78001 0.318 0.0
C1009 C 0.65952 0.78087 0.34055 0.0
C1010 C 0.64877 0.80401 0.30645 0.0
C1011 C 0.67259 0.87584 0.32041 0.0
H1012 H 0.68242 0.8848 0.24479 0.0
C1013 C 0.7027 0.97799 0.27016 0.0
C1014 C 0.69058 0.97724 0.24582 0.0
C1015 C 0.69972 0.95422 0.2814 0.0
C1016 C 0.67936 0.88254 0.26589 0.0
H1017 H 0.68931 0.80728 0.36907 0.0
H1018 H 0.69584 0.84932 0.34919 0.0
H1019 H 0.67472 0.84278 0.26529 0.0
H1020 H 0.66598 0.95085 0.21413 0.0
H1021 H 0.66023 0.90938 0.23399 0.0
H1022 H 0.67667 0.91527 0.3211 0.0
C1023 C 0.68139 0.83011 0.34038 0.0
C1024 C 0.675 0.85845 0.27762 0.0
C1025 C 0.67767 0.80611 0.35175 0.0
C1026 C 0.67572 0.9522 0.23283 0.0
C1027 C 0.67253 0.9284 0.24419 0.0
C1028 C 0.6767 0.89983 0.30867 0.0
C1029 C 0.66715 0.82933 0.31747 0.0
C1030 C 0.6716 0.85485 0.30501 0.0
C1031 C 0.68433 0.92904 0.26873 0.0
C1032 C 0.68019 0.90354 0.28124 0.0
H1033 H 0.63038 0.76074 0.30931 0.0
H1034 H 0.63721 0.80276 0.28905 0.0
H1035 H 0.6697 0.87351 0.34154 0.0
H1036 H 0.71446 0.99696 0.28062 0.0
H1037 H 0.70956 0.95564 0.30005 0.0
C1038 C 0.71665 0.68336 0.43848 0.0
C1039 C 0.71604 0.68885 0.41158 0.0
C1040 C 0.7374 0.67963 0.44857 0.0
C1041 C 0.80691 0.69849 0.44294 0.0
H1042 H 0.78768 0.62792 0.47147 0.0
C1043 C 0.88932 0.67589 0.4809 0.0
C1044 C 0.88295 0.6583 0.50247 0.0
C1045 C 0.86914 0.67899 0.4684 0.0
C1046 C 0.79348 0.64792 0.46405 0.0
H1047 H 0.7371 0.69552 0.37431 0.0
H1048 H 0.77408 0.68998 0.39234 0.0
H1049 H 0.75244 0.6356 0.45325 0.0
H1050 H 0.8503 0.6296 0.52742 0.0
H1051 H 0.81548 0.6363 0.50702 0.0
H1052 H 0.8476 0.71152 0.45484 0.0
C1053 C 0.75814 0.68813 0.40536 0.0
C1054 C 0.77325 0.65217 0.45341 0.0
C1055 C 0.73701 0.69123 0.3951 0.0
C1056 C 0.85593 0.64367 0.51112 0.0
C1057 C 0.83584 0.6472 0.49904 0.0
C1058 C 0.8271 0.69448 0.45415 0.0
C1059 C 0.75826 0.68196 0.43209 0.0
C1060 C 0.77982 0.67746 0.4428 0.0
C1061 C 0.84211 0.66496 0.47749 0.0
C1062 C 0.82069 0.66912 0.46493 0.0
H1063 H 0.70071 0.68128 0.45164 0.0
H1064 H 0.73721 0.67495 0.46927 0.0
H1065 H 0.81233 0.71823 0.43499 0.0
H1066 H 0.91002 0.68762 0.4739 0.0
H1067 H 0.87483 0.69242 0.45158 0.0
C1068 C 0.20092 0.87216 0.68411 0.0
C1069 C 0.22622 0.87884 0.67328 0.0
C1070 C 0.17695 0.85173 0.67285 0.0
C1071 C 0.14887 0.81545 0.61069 0.0
H1072 H 0.09136 0.76217 0.65497 0.0
C1073 C 0.05348 0.72248 0.56761 0.0
C1074 C 0.0286 0.71349 0.58062 0.0
C1075 C 0.07767 0.74295 0.57855 0.0
C1076 C 0.10702 0.77711 0.6423 0.0
H1077 H 0.2465 0.869 0.6428 0.0
H1078 H 0.20454 0.83349 0.62274 0.0
H1079 H 0.13334 0.79699 0.67499 0.0
H1080 H 0.00958 0.71967 0.61495 0.0
H1081 H 0.05153 0.75575 0.63359 0.0
H1082 H 0.12246 0.79594 0.57802 0.0
C1083 C 0.20321 0.84423 0.63976 0.0
C1084 C 0.13113 0.79701 0.65381 0.0
C1085 C 0.22718 0.86451 0.6512 0.0
C1086 C 0.0284 0.72591 0.6045 0.0
C1087 C 0.05253 0.74651 0.6153 0.0
C1088 C 0.12465 0.79568 0.59918 0.0
C1089 C 0.17783 0.83768 0.65043 0.0
C1090 C 0.15232 0.81639 0.63814 0.0
C1091 C 0.07755 0.75508 0.60266 0.0
C1092 C 0.10338 0.77625 0.61484 0.0
H1093 H 0.19967 0.88306 0.70105 0.0
H1094 H 0.1577 0.8473 0.68137 0.0
H1095 H 0.16472 0.83034 0.59813 0.0
H1096 H 0.05439 0.71327 0.54925 0.0
H1097 H 0.09655 0.74876 0.56838 0.0
C1098 C 0.3648 0.21537 0.84037 0.0
C1099 C 0.3454 0.22354 0.83758 0.0
C1100 C 0.36108 0.1918 0.82796 0.0
C1101 C 0.30805 0.12685 0.80083 0.0
H1102 H 0.36797 0.1262 0.76498 0.0
C1103 C 0.30517 0.0282 0.76787 0.0
C1104 C 0.31592 0.02812 0.74294 0.0
C1105 C 0.30791 0.05215 0.77836 0.0
C1106 C 0.351 0.12612 0.77475 0.0
H1107 H 0.30712 0.21393 0.81964 0.0
H1108 H 0.30049 0.17264 0.79794 0.0
H1109 H 0.3748 0.16808 0.78533 0.0
H1110 H 0.33762 0.05316 0.70931 0.0
H1111 H 0.34246 0.09501 0.72775 0.0
H1112 H 0.28427 0.08489 0.7903 0.0
C1113 C 0.31847 0.18427 0.80984 0.0
C1114 C 0.35498 0.15002 0.78663 0.0
C1115 C 0.32231 0.20793 0.82208 0.0
C1116 C 0.3291 0.05249 0.72857 0.0
C1117 C 0.33204 0.07651 0.73918 0.0
C1118 C 0.30413 0.1029 0.78915 0.0
C1119 C 0.3378 0.17592 0.81265 0.0
C1120 C 0.33356 0.15063 0.79983 0.0
C1121 C 0.32163 0.07663 0.76426 0.0
C1122 C 0.32557 0.10226 0.77602 0.0
H1123 H 0.38288 0.2273 0.85205 0.0
H1124 H 0.37623 0.18579 0.83065 0.0
H1125 H 0.29121 0.12663 0.81103 0.0
H1126 H 0.29486 0.00981 0.77948 0.0
H1127 H 0.29986 0.05163 0.79782 0.0
C1128 C 0.67359 0.72357 0.93597 0.0
C1129 C 0.68824 0.71409 0.92141 0.0
C1130 C 0.67021 0.74472 0.92632 0.0
C1131 C 0.65171 0.7767 0.89198 0.0
H1132 H 0.71222 0.83988 0.85994 0.0
C1133 C 0.63882 0.8538 0.82811 0.0
C1134 C 0.65767 0.88137 0.83195 0.0
C1135 C 0.64235 0.83385 0.84053 0.0
C1136 C 0.69517 0.82246 0.869 0.0
H1137 H 0.71128 0.71988 0.88552 0.0
H1138 H 0.70548 0.75679 0.86886 0.0
H1139 H 0.71936 0.80465 0.87927 0.0
H1140 H 0.69475 0.90989 0.85184 0.0
H1141 H 0.70099 0.87504 0.87364 0.0
H1142 H 0.6275 0.79449 0.88158 0.0
C1143 C 0.69665 0.74789 0.88774 0.0
C1144 C 0.69921 0.80218 0.87985 0.0
C1145 C 0.69984 0.72661 0.89725 0.0
C1146 C 0.67992 0.88872 0.84865 0.0
C1147 C 0.68357 0.8688 0.86093 0.0
C1148 C 0.64762 0.79689 0.88091 0.0
C1149 C 0.68162 0.75704 0.90205 0.0
C1150 C 0.67751 0.77903 0.89137 0.0
C1151 C 0.66491 0.84113 0.8569 0.0
C1152 C 0.66929 0.81995 0.86923 0.0
H1153 H 0.66438 0.71439 0.95465 0.0
H1154 H 0.65874 0.75153 0.93791 0.0
H1155 H 0.63455 0.75899 0.90052 0.0
H1156 H 0.62142 0.84772 0.81542 0.0
H1157 H 0.62775 0.81271 0.83687 0.0
C1158 C 0.79294 0.67665 0.01358 0.0
C1159 C 0.78106 0.65847 0.99255 0.0
C1160 C 0.81671 0.68026 0.02537 0.0
C1161 C 0.86164 0.64965 0.02925 0.0
H1162 H 0.91326 0.7206 0.05692 0.0
C1163 C 0.97396 0.68563 0.05596 0.0
C1164 C 0.97944 0.69106 0.08296 0.0
C1165 C 0.94972 0.68195 0.04526 0.0
C1166 C 0.89892 0.7007 0.0493 0.0
H1167 H 0.78435 0.6293 0.96777 0.0
H1168 H 0.82676 0.63685 0.98694 0.0
H1169 H 0.87108 0.71339 0.03714 0.0
H1170 H 0.96427 0.69778 0.11973 0.0
H1171 H 0.92224 0.69236 0.10063 0.0
H1172 H 0.89049 0.63762 0.04042 0.0
C1173 C 0.81745 0.64785 0.99503 0.0
C1174 C 0.87461 0.69641 0.03816 0.0
C1175 C 0.79333 0.64381 0.98366 0.0
C1176 C 0.96055 0.69353 0.09888 0.0
C1177 C 0.9366 0.69051 0.08801 0.0
C1178 C 0.88624 0.65417 0.03983 0.0
C1179 C 0.82955 0.66617 0.01607 0.0
C1180 C 0.85552 0.67077 0.02803 0.0
C1181 C 0.93087 0.68431 0.06122 0.0
C1182 C 0.90498 0.67968 0.05 0.0
H1183 H 0.78405 0.6884 0.02075 0.0
H1184 H 0.8249 0.69409 0.04185 0.0
H1185 H 0.84737 0.62947 0.02228 0.0
H1186 H 0.98806 0.68345 0.04324 0.0
H1187 H 0.94565 0.67723 0.02451 0.0
C1188 C 0.13335 0.80626 0.14612 0.0
C1189 C 0.12436 0.7811 0.15842 0.0
C1190 C 0.15327 0.83017 0.1579 0.0
C1191 C 0.20769 0.85575 0.20833 0.0
H1192 H 0.2021 0.92083 0.20399 0.0
C1193 C 0.27927 0.95336 0.2659 0.0
C1194 C 0.29031 0.97782 0.25168 0.0
C1195 C 0.25827 0.92936 0.25524 0.0
C1196 C 0.20403 0.90287 0.20521 0.0
H1197 H 0.12916 0.76106 0.19249 0.0
H1198 H 0.16346 0.80285 0.21353 0.0
H1199 H 0.16709 0.87888 0.18398 0.0
H1200 H 0.28738 0.99626 0.21532 0.0
H1201 H 0.25073 0.9544 0.19684 0.0
H1202 H 0.24456 0.87977 0.22971 0.0
C1203 C 0.1555 0.80417 0.19458 0.0
C1204 C 0.18402 0.87882 0.19368 0.0
C1205 C 0.13567 0.78026 0.18269 0.0
C1206 C 0.27941 0.9778 0.22682 0.0
C1207 C 0.2583 0.95383 0.21625 0.0
C1208 C 0.22761 0.87975 0.21998 0.0
C1209 C 0.16455 0.82946 0.18234 0.0
C1210 C 0.18565 0.85497 0.19497 0.0
C1211 C 0.24768 0.92929 0.23022 0.0
C1212 C 0.22607 0.90361 0.21845 0.0
H1213 H 0.12477 0.80746 0.12747 0.0
H1214 H 0.15999 0.8492 0.14771 0.0
H1215 H 0.20986 0.83792 0.20936 0.0
H1216 H 0.28712 0.95262 0.28511 0.0
H1217 H 0.25028 0.91082 0.26661 0.0
C1218 C 0.30781 0.28018 0.39529 0.0
C1219 C 0.31635 0.28935 0.42113 0.0
C1220 C 0.31101 0.25931 0.38463 0.0
C1221 C 0.32313 0.20306 0.40241 0.0
H1222 H 0.34725 0.21053 0.32989 0.0
C1223 C 0.32621 0.11644 0.34577 0.0
C1224 C 0.34796 0.12358 0.32842 0.0
C1225 C 0.32259 0.1365 0.35782 0.0
C1226 C 0.34075 0.20823 0.35024 0.0
H1227 H 0.33446 0.28329 0.4562 0.0
H1228 H 0.34033 0.24711 0.43746 0.0
H1229 H 0.34026 0.24555 0.34961 0.0
H1230 H 0.38351 0.15703 0.31064 0.0
H1231 H 0.37743 0.19225 0.33182 0.0
H1232 H 0.32423 0.16601 0.40317 0.0
C1233 C 0.33088 0.25587 0.42554 0.0
C1234 C 0.33637 0.22814 0.36145 0.0
C1235 C 0.32762 0.27672 0.43625 0.0
C1236 C 0.36636 0.15109 0.32368 0.0
C1237 C 0.3628 0.17118 0.33575 0.0
C1238 C 0.32754 0.18314 0.39119 0.0
C1239 C 0.32289 0.24712 0.3995 0.0
C1240 C 0.32745 0.22579 0.38765 0.0
C1241 C 0.34074 0.16413 0.35282 0.0
C1242 C 0.33639 0.18547 0.36495 0.0
H1243 H 0.29886 0.28929 0.38313 0.0
H1244 H 0.30415 0.25273 0.36469 0.0
H1245 H 0.31605 0.20049 0.42257 0.0
H1246 H 0.31166 0.09531 0.34958 0.0
H1247 H 0.3052 0.13032 0.37058 0.0
C1248 C 0.02858 0.30436 0.56175 0.0
C1249 C 0.02872 0.31624 0.58607 0.0
C1250 C 0.05267 0.3078 0.55087 0.0
C1251 C 0.12447 0.32919 0.56713 0.0
H1252 H 0.13367 0.33804 0.49143 0.0
C1253 C 0.22701 0.36279 0.5147 0.0
C1254 C 0.2259 0.34762 0.49245 0.0
C1255 C 0.20312 0.35915 0.52635 0.0
C1256 C 0.13131 0.3354 0.51258 0.0
H1257 H 0.05436 0.34087 0.61814 0.0
H1258 H 0.09649 0.34746 0.59885 0.0
H1259 H 0.09184 0.33122 0.51159 0.0
H1260 H 0.19915 0.31714 0.46463 0.0
H1261 H 0.15733 0.31111 0.48464 0.0
H1262 H 0.16432 0.33395 0.56798 0.0
C1263 C 0.07768 0.335 0.5884 0.0
C1264 C 0.10727 0.33137 0.52417 0.0
C1265 C 0.0535 0.33133 0.59943 0.0
C1266 C 0.20052 0.32918 0.4817 0.0
C1267 C 0.17664 0.32575 0.49315 0.0
C1268 C 0.14864 0.3335 0.55553 0.0
C1269 C 0.07762 0.32346 0.56385 0.0
C1270 C 0.10343 0.32804 0.5516 0.0
C1271 C 0.17767 0.34055 0.51571 0.0
C1272 C 0.15225 0.33652 0.52812 0.0
H1273 H 0.00982 0.2924 0.55102 0.0
H1274 H 0.05168 0.29807 0.53225 0.0
H1275 H 0.12214 0.32631 0.58824 0.0
H1276 H 0.24638 0.37751 0.52304 0.0
H1277 H 0.20455 0.37111 0.5435 0.0
C1278 C 0.88915 0.20546 0.67214 0.0
C1279 C 0.88174 0.22178 0.65772 0.0
C1280 C 0.86928 0.18138 0.68375 0.0
C1281 C 0.79868 0.14714 0.70745 0.0
H1282 H 0.80394 0.08189 0.70261 0.0
C1283 C 0.72806 0.05023 0.76626 0.0
C1284 C 0.7166 0.02559 0.75231 0.0
C1285 C 0.74892 0.07404 0.75516 0.0
C1286 C 0.80215 0.09992 0.70405 0.0
H1287 H 0.84809 0.22619 0.64426 0.0
H1288 H 0.81316 0.18396 0.66449 0.0
H1289 H 0.83855 0.12372 0.68181 0.0
H1290 H 0.71869 0.00663 0.71596 0.0
H1291 H 0.75515 0.0482 0.69668 0.0
H1292 H 0.76216 0.12332 0.72946 0.0
C1293 C 0.8343 0.18976 0.66691 0.0
C1294 C 0.82208 0.12393 0.69234 0.0
C1295 C 0.85419 0.21377 0.65517 0.0
C1296 C 0.727 0.02524 0.72726 0.0
C1297 C 0.74799 0.04904 0.71624 0.0
C1298 C 0.77887 0.1232 0.71931 0.0
C1299 C 0.84163 0.17328 0.68131 0.0
C1300 C 0.82052 0.14779 0.69384 0.0
C1301 C 0.75896 0.07377 0.72993 0.0
C1302 C 0.78034 0.0993 0.7177 0.0
H1303 H 0.91033 0.21131 0.67433 0.0
H1304 H 0.87559 0.16928 0.69494 0.0
H1305 H 0.79704 0.16525 0.70916 0.0
H1306 H 0.72061 0.05127 0.78561 0.0
H1307 H 0.75721 0.09271 0.76635 0.0
loop_
_geom_bond_atom_site_label_1
_geom_bond_atom_site_label_2
_geom_bond_distance
_geom_bond_site_symmetry_2
_ccdc_geom_bond_type
Co0 O3 1.970 . S
Co0 N17 1.989 . S
Co0 O25 1.967 . S
Co0 O32 1.920 1_554 S
Co1 O4 1.966 . S
Co1 N10 2.022 . S
Co1 N18 1.993 . S
Co1 O26 1.941 . S
C2 O3 1.258 . S
C2 O4 1.263 . S
O3 Co0 1.970 . S
O3 C2 1.258 . S
O4 Co1 1.966 . S
O4 C2 1.263 . S
C5 O6 1.235 . S
C5 O32 1.289 . S
O6 C5 1.235 . S
C7 C9 1.400 . S
C7 N10 1.351 . S
C7 C12 1.501 . S
C8 C9 1.387 . S
C8 N11 1.341 . S
C9 C7 1.400 . S
C9 C8 1.387 . S
N10 Co1 2.022 . S
N10 C7 1.351 . S
N10 N11 1.365 . S
N11 C8 1.341 . S
N11 N10 1.365 . S
N11 H31 0.862 . S
C12 C7 1.501 . S
C12 H13 0.961 . S
C12 H14 0.961 . S
C12 H15 0.960 . S
H13 C12 0.961 . S
H14 C12 0.961 . S
H15 C12 0.960 . S
C16 N17 1.342 . S
C16 C20 1.401 . S
C16 C21 1.499 1_554 S
N17 Co0 1.989 . S
N17 C16 1.342 . S
N17 N18 1.388 . S
N18 Co1 1.993 . S
N18 N17 1.388 . S
N18 C19 1.346 . S
C19 N18 1.346 . S
C19 C20 1.396 . S
C19 C29 1.510 . S
C20 C16 1.401 . S
C20 C19 1.396 . S
C21 C16 1.499 1_556 S
C21 H22 0.959 . S
C21 H23 0.960 . S
C21 H24 0.961 . S
H22 C21 0.959 . S
H23 C21 0.960 . S
H24 C21 0.961 . S
O25 Co0 1.967 . S
O25 C33 1.258 . S
O26 Co1 1.941 . S
O26 C33 1.266 . S
H27 C29 0.959 . S
H28 C29 0.961 . S
C29 C19 1.510 . S
C29 H27 0.959 . S
C29 H28 0.961 . S
C29 H30 0.960 . S
H30 C29 0.960 . S
H31 N11 0.862 . S
O32 Co0 1.920 1_556 S
O32 C5 1.289 . S
C33 O25 1.258 . S
C33 O26 1.266 . S
Co34 O37 1.970 . S
Co34 N51 1.989 . S
Co34 O59 1.967 . S
Co34 O66 1.920 . S
Co35 O38 1.966 . S
Co35 N44 2.022 . S
Co35 N52 1.993 . S
Co35 O60 1.941 . S
C36 O37 1.258 . S
C36 O38 1.263 . S
O37 Co34 1.970 . S
O37 C36 1.258 . S
O38 Co35 1.966 . S
O38 C36 1.263 . S
C39 O40 1.235 . S
C39 O66 1.289 . S
O40 C39 1.235 . S
C41 C43 1.400 . S
C41 N44 1.351 . S
C41 C46 1.501 . S
C42 C43 1.387 . S
C42 N45 1.341 . S
C43 C41 1.400 . S
C43 C42 1.387 . S
N44 Co35 2.022 . S
N44 C41 1.351 . S
N44 N45 1.365 . S
N45 C42 1.341 . S
N45 N44 1.365 . S
N45 H65 0.862 . S
C46 C41 1.501 . S
C46 H47 0.961 . S
C46 H48 0.961 . S
C46 H49 0.960 . S
H47 C46 0.961 . S
H48 C46 0.961 . S
H49 C46 0.960 . S
C50 N51 1.342 . S
C50 C54 1.401 . S
C50 C55 1.499 . S
N51 Co34 1.989 . S
N51 C50 1.342 . S
N51 N52 1.388 . S
N52 Co35 1.993 . S
N52 N51 1.388 . S
N52 C53 1.346 . S
C53 N52 1.346 . S
C53 C54 1.396 . S
C53 C63 1.510 . S
C54 C50 1.401 . S
C54 C53 1.396 . S
C55 C50 1.499 . S
C55 H56 0.959 . S
C55 H57 0.960 . S
C55 H58 0.961 . S
H56 C55 0.959 . S
H57 C55 0.960 . S
H58 C55 0.961 . S
O59 Co34 1.967 . S
O59 C67 1.258 . S
O60 Co35 1.941 . S
O60 C67 1.266 . S
H61 C63 0.959 . S
H62 C63 0.961 . S
C63 C53 1.510 . S
C63 H61 0.959 . S
C63 H62 0.961 . S
C63 H64 0.960 . S
H64 C63 0.960 . S
H65 N45 0.862 . S
O66 Co34 1.920 . S
O66 C39 1.289 . S
C67 O59 1.258 . S
C67 O60 1.266 . S
Co68 O71 1.970 . S
Co68 N85 1.989 . S
Co68 O93 1.967 . S
Co68 O100 1.920 . S
Co69 O72 1.966 . S
Co69 N78 2.022 . S
Co69 N86 1.993 . S
Co69 O94 1.941 . S
C70 O71 1.258 . S
C70 O72 1.263 . S
O71 Co68 1.970 . S
O71 C70 1.258 . S
O72 Co69 1.966 . S
O72 C70 1.263 . S
C73 O74 1.235 . S
C73 O100 1.289 . S
O74 C73 1.235 . S
C75 C77 1.400 . S
C75 N78 1.351 . S
C75 C80 1.501 . S
C76 C77 1.387 . S
C76 N79 1.341 . S
C77 C75 1.400 . S
C77 C76 1.387 . S
N78 Co69 2.022 . S
N78 C75 1.351 . S
N78 N79 1.365 . S
N79 C76 1.341 . S
N79 N78 1.365 . S
N79 H99 0.862 . S
C80 C75 1.501 . S
C80 H81 0.961 . S
C80 H82 0.961 . S
C80 H83 0.960 . S
H81 C80 0.961 . S
H82 C80 0.961 . S
H83 C80 0.960 . S
C84 N85 1.342 . S
C84 C88 1.401 . S
C84 C89 1.499 . S
N85 Co68 1.989 . S
N85 C84 1.342 . S
N85 N86 1.388 . S
N86 Co69 1.993 . S
N86 N85 1.388 . S
N86 C87 1.346 . S
C87 N86 1.346 . S
C87 C88 1.396 . S
C87 C97 1.510 . S
C88 C84 1.401 . S
C88 C87 1.396 . S
C89 C84 1.499 . S
C89 H90 0.959 . S
C89 H91 0.960 . S
C89 H92 0.961 . S
H90 C89 0.959 . S
H91 C89 0.960 . S
H92 C89 0.961 . S
O93 Co68 1.967 . S
O93 C101 1.258 . S
O94 Co69 1.941 . S
O94 C101 1.266 . S
H95 C97 0.959 . S
H96 C97 0.961 . S
C97 C87 1.510 . S
C97 H95 0.959 . S
C97 H96 0.961 . S
C97 H98 0.960 . S
H98 C97 0.960 . S
H99 N79 0.862 . S
O100 Co68 1.920 . S
O100 C73 1.289 . S
C101 O93 1.258 . S
C101 O94 1.266 . S
Co102 O105 1.970 . S
Co102 N119 1.989 . S
Co102 O127 1.967 . S
Co102 O134 1.920 . S
Co103 O106 1.966 . S
Co103 N112 2.022 . S
Co103 N120 1.993 . S
Co103 O128 1.941 . S
C104 O105 1.258 . S
C104 O106 1.263 . S
O105 Co102 1.970 . S
O105 C104 1.258 . S
O106 Co103 1.966 . S
O106 C104 1.263 . S
C107 O108 1.235 . S
C107 O134 1.289 . S
O108 C107 1.235 . S
C109 C111 1.400 . S
C109 N112 1.351 . S
C109 C114 1.501 . S
C110 C111 1.387 . S
C110 N113 1.341 . S
C111 C109 1.400 . S
C111 C110 1.387 . S
N112 Co103 2.022 . S
N112 C109 1.351 . S
N112 N113 1.365 . S
N113 C110 1.341 . S
N113 N112 1.365 . S
N113 H133 0.862 . S
C114 C109 1.501 . S
C114 H115 0.961 . S
C114 H116 0.961 . S
C114 H117 0.960 . S
H115 C114 0.961 . S
H116 C114 0.961 . S
H117 C114 0.960 . S
C118 N119 1.342 . S
C118 C122 1.401 . S
C118 C123 1.499 . S
N119 Co102 1.989 . S
N119 C118 1.342 . S
N119 N120 1.388 . S
N120 Co103 1.993 . S
N120 N119 1.388 . S
N120 C121 1.346 . S
C121 N120 1.346 . S
C121 C122 1.396 . S
C121 C131 1.510 . S
C122 C118 1.401 . S
C122 C121 1.396 . S
C123 C118 1.499 . S
C123 H124 0.959 . S
C123 H125 0.960 . S
C123 H126 0.961 . S
H124 C123 0.959 . S
H125 C123 0.960 . S
H126 C123 0.961 . S
O127 Co102 1.967 . S
O127 C135 1.258 . S
O128 Co103 1.941 . S
O128 C135 1.266 . S
H129 C131 0.959 . S
H130 C131 0.961 . S
C131 C121 1.510 . S
C131 H129 0.959 . S
C131 H130 0.961 . S
C131 H132 0.960 . S
H132 C131 0.960 . S
H133 N113 0.862 . S
O134 Co102 1.920 . S
O134 C107 1.289 . S
C135 O127 1.258 . S
C135 O128 1.266 . S
Co136 O139 1.970 . S
Co136 N153 1.989 . S
Co136 O161 1.967 . S
Co136 O168 1.920 . S
Co137 O140 1.966 . S
Co137 N146 2.022 . S
Co137 N154 1.993 . S
Co137 O162 1.941 . S
C138 O139 1.258 . S
C138 O140 1.263 . S
O139 Co136 1.970 . S
O139 C138 1.258 . S
O140 Co137 1.966 . S
O140 C138 1.263 . S
C141 O142 1.235 . S
C141 O168 1.289 . S
O142 C141 1.235 . S
C143 C145 1.400 . S
C143 N146 1.351 . S
C143 C148 1.501 . S
C144 C145 1.387 . S
C144 N147 1.341 . S
C145 C143 1.400 . S
C145 C144 1.387 . S
N146 Co137 2.022 . S
N146 C143 1.351 . S
N146 N147 1.365 . S
N147 C144 1.341 . S
N147 N146 1.365 . S
N147 H167 0.862 . S
C148 C143 1.501 . S
C148 H149 0.961 . S
C148 H150 0.961 . S
C148 H151 0.960 . S
H149 C148 0.961 . S
H150 C148 0.961 . S
H151 C148 0.960 . S
C152 N153 1.342 . S
C152 C156 1.401 . S
C152 C157 1.499 . S
N153 Co136 1.989 . S
N153 C152 1.342 . S
N153 N154 1.388 . S
N154 Co137 1.993 . S
N154 N153 1.388 . S
N154 C155 1.346 . S
C155 N154 1.346 . S
C155 C156 1.396 . S
C155 C165 1.510 . S
C156 C152 1.401 . S
C156 C155 1.396 . S
C157 C152 1.499 . S
C157 H158 0.959 . S
C157 H159 0.960 . S
C157 H160 0.961 . S
H158 C157 0.959 . S
H159 C157 0.960 . S
H160 C157 0.961 . S
O161 Co136 1.967 . S
O161 C169 1.258 . S
O162 Co137 1.941 . S
O162 C169 1.266 . S
H163 C165 0.959 . S
H164 C165 0.961 . S
C165 C155 1.510 . S
C165 H163 0.959 . S
C165 H164 0.961 . S
C165 H166 0.960 . S
H166 C165 0.960 . S
H167 N147 0.862 . S
O168 Co136 1.920 . S
O168 C141 1.289 . S
C169 O161 1.258 . S
C169 O162 1.266 . S
Co170 O173 1.970 . S
Co170 N187 1.989 . S
Co170 O195 1.967 . S
Co170 O202 1.920 . S
Co171 O174 1.966 . S
Co171 N180 2.022 . S
Co171 N188 1.993 . S
Co171 O196 1.941 . S
C172 O173 1.258 . S
C172 O174 1.263 . S
O173 Co170 1.970 . S
O173 C172 1.258 . S
O174 Co171 1.966 . S
O174 C172 1.263 . S
C175 O176 1.235 . S
C175 O202 1.289 . S
O176 C175 1.235 . S
C177 C179 1.400 . S
C177 N180 1.351 . S
C177 C182 1.501 . S
C178 C179 1.387 . S
C178 N181 1.341 . S
C179 C177 1.400 . S
C179 C178 1.387 . S
N180 Co171 2.022 . S
N180 C177 1.351 . S
N180 N181 1.365 . S
N181 C178 1.341 . S
N181 N180 1.365 . S
N181 H201 0.862 . S
C182 C177 1.501 . S
C182 H183 0.961 . S
C182 H184 0.961 . S
C182 H185 0.960 . S
H183 C182 0.961 . S
H184 C182 0.961 . S
H185 C182 0.960 . S
C186 N187 1.342 . S
C186 C190 1.401 . S
C186 C191 1.499 . S
N187 Co170 1.989 . S
N187 C186 1.342 . S
N187 N188 1.388 . S
N188 Co171 1.993 . S
N188 N187 1.388 . S
N188 C189 1.346 . S
C189 N188 1.346 . S
C189 C190 1.396 . S
C189 C199 1.510 . S
C190 C186 1.401 . S
C190 C189 1.396 . S
C191 C186 1.499 . S
C191 H192 0.959 . S
C191 H193 0.960 . S
C191 H194 0.961 . S
H192 C191 0.959 . S
H193 C191 0.960 . S
H194 C191 0.961 . S
O195 Co170 1.967 . S
O195 C203 1.258 . S
O196 Co171 1.941 . S
O196 C203 1.266 . S
H197 C199 0.959 . S
H198 C199 0.961 . S
C199 C189 1.510 . S
C199 H197 0.959 . S
C199 H198 0.961 . S
C199 H200 0.960 . S
H200 C199 0.960 . S
H201 N181 0.862 . S
O202 Co170 1.920 . S
O202 C175 1.289 . S
C203 O195 1.258 . S
C203 O196 1.266 . S
Co204 O207 1.970 . S
Co204 N221 1.989 . S
Co204 O229 1.967 . S
Co204 O236 1.920 . S
Co205 O208 1.966 . S
Co205 N214 2.022 . S
Co205 N222 1.993 . S
Co205 O230 1.941 . S
C206 O207 1.258 . S
C206 O208 1.263 . S
O207 Co204 1.970 . S
O207 C206 1.258 . S
O208 Co205 1.966 . S
O208 C206 1.263 . S
C209 O210 1.235 . S
C209 O236 1.289 . S
O210 C209 1.235 . S
C211 C213 1.400 . S
C211 N214 1.351 . S
C211 C216 1.501 . S
C212 C213 1.387 . S
C212 N215 1.341 . S
C213 C211 1.400 . S
C213 C212 1.387 . S
N214 Co205 2.022 . S
N214 C211 1.351 . S
N214 N215 1.365 . S
N215 C212 1.341 . S
N215 N214 1.365 . S
N215 H235 0.862 . S
C216 C211 1.501 . S
C216 H217 0.961 . S
C216 H218 0.961 . S
C216 H219 0.960 . S
H217 C216 0.961 . S
H218 C216 0.961 . S
H219 C216 0.960 . S
C220 N221 1.342 . S
C220 C224 1.401 . S
C220 C225 1.499 . S
N221 Co204 1.989 . S
N221 C220 1.342 . S
N221 N222 1.388 . S
N222 Co205 1.993 . S
N222 N221 1.388 . S
N222 C223 1.346 . S
C223 N222 1.346 . S
C223 C224 1.396 . S
C223 C233 1.510 . S
C224 C220 1.401 . S
C224 C223 1.396 . S
C225 C220 1.499 . S
C225 H226 0.959 . S
C225 H227 0.960 . S
C225 H228 0.961 . S
H226 C225 0.959 . S
H227 C225 0.960 . S
H228 C225 0.961 . S
O229 Co204 1.967 . S
O229 C237 1.258 . S
O230 Co205 1.941 . S
O230 C237 1.266 . S
H231 C233 0.959 . S
H232 C233 0.961 . S
C233 C223 1.510 . S
C233 H231 0.959 . S
C233 H232 0.961 . S
C233 H234 0.960 . S
H234 C233 0.960 . S
H235 N215 0.862 . S
O236 Co204 1.920 . S
O236 C209 1.289 . S
C237 O229 1.258 . S
C237 O230 1.266 . S
Co238 O241 1.970 . S
Co238 N255 1.989 . S
Co238 O263 1.967 . S
Co238 O270 1.920 1_556 S
Co239 O242 1.966 . S
Co239 N248 2.022 . S
Co239 N256 1.993 . S
Co239 O264 1.941 . S
C240 O241 1.258 . S
C240 O242 1.263 . S
O241 Co238 1.970 . S
O241 C240 1.258 . S
O242 Co239 1.966 . S
O242 C240 1.263 . S
C243 O244 1.235 . S
C243 O270 1.289 . S
O244 C243 1.235 . S
C245 C247 1.400 . S
C245 N248 1.351 . S
C245 C250 1.501 . S
C246 C247 1.387 . S
C246 N249 1.341 . S
C247 C245 1.400 . S
C247 C246 1.387 . S
N248 Co239 2.022 . S
N248 C245 1.351 . S
N248 N249 1.365 . S
N249 C246 1.341 . S
N249 N248 1.365 . S
N249 H269 0.862 . S
C250 C245 1.501 . S
C250 H251 0.961 . S
C250 H252 0.961 . S
C250 H253 0.960 . S
H251 C250 0.961 . S
H252 C250 0.961 . S
H253 C250 0.960 . S
C254 N255 1.342 . S
C254 C258 1.401 . S
C254 C259 1.499 1_556 S
N255 Co238 1.989 . S
N255 C254 1.342 . S
N255 N256 1.388 . S
N256 Co239 1.993 . S
N256 N255 1.388 . S
N256 C257 1.346 . S
C257 N256 1.346 . S
C257 C258 1.396 . S
C257 C267 1.510 . S
C258 C254 1.401 . S
C258 C257 1.396 . S
C259 C254 1.499 1_554 S
C259 H260 0.959 . S
C259 H261 0.960 . S
C259 H262 0.961 . S
H260 C259 0.959 . S
H261 C259 0.960 . S
H262 C259 0.961 . S
O263 Co238 1.967 . S
O263 C271 1.258 . S
O264 Co239 1.941 . S
O264 C271 1.266 . S
H265 C267 0.959 . S
H266 C267 0.961 . S
C267 C257 1.510 . S
C267 H265 0.959 . S
C267 H266 0.961 . S
C267 H268 0.960 . S
H268 C267 0.960 . S
H269 N249 0.862 . S
O270 Co238 1.920 1_554 S
O270 C243 1.289 . S
C271 O263 1.258 . S
C271 O264 1.266 . S
Co272 O275 1.970 . S
Co272 N289 1.989 . S
Co272 O297 1.967 . S
Co272 O304 1.920 . S
Co273 O276 1.966 . S
Co273 N282 2.022 . S
Co273 N290 1.993 . S
Co273 O298 1.941 . S
C274 O275 1.258 . S
C274 O276 1.263 . S
O275 Co272 1.970 . S
O275 C274 1.258 . S
O276 Co273 1.966 . S
O276 C274 1.263 . S
C277 O278 1.235 . S
C277 O304 1.289 . S
O278 C277 1.235 . S
C279 C281 1.400 . S
C279 N282 1.351 . S
C279 C284 1.501 . S
C280 C281 1.387 . S
C280 N283 1.341 . S
C281 C279 1.400 . S
C281 C280 1.387 . S
N282 Co273 2.022 . S
N282 C279 1.351 . S
N282 N283 1.365 . S
N283 C280 1.341 . S
N283 N282 1.365 . S
N283 H303 0.862 . S
C284 C279 1.501 . S
C284 H285 0.961 . S
C284 H286 0.961 . S
C284 H287 0.960 . S
H285 C284 0.961 . S
H286 C284 0.961 . S
H287 C284 0.960 . S
C288 N289 1.342 . S
C288 C292 1.401 . S
C288 C293 1.499 . S
N289 Co272 1.989 . S
N289 C288 1.342 . S
N289 N290 1.388 . S
N290 Co273 1.993 . S
N290 N289 1.388 . S
N290 C291 1.346 . S
C291 N290 1.346 . S
C291 C292 1.396 . S
C291 C301 1.510 . S
C292 C288 1.401 . S
C292 C291 1.396 . S
C293 C288 1.499 . S
C293 H294 0.959 . S
C293 H295 0.960 . S
C293 H296 0.961 . S
H294 C293 0.959 . S
H295 C293 0.960 . S
H296 C293 0.961 . S
O297 Co272 1.967 . S
O297 C305 1.258 . S
O298 Co273 1.941 . S
O298 C305 1.266 . S
H299 C301 0.959 . S
H300 C301 0.961 . S
C301 C291 1.510 . S
C301 H299 0.959 . S
C301 H300 0.961 . S
C301 H302 0.960 . S
H302 C301 0.960 . S
H303 N283 0.862 . S
O304 Co272 1.920 . S
O304 C277 1.289 . S
C305 O297 1.258 . S
C305 O298 1.266 . S
Co306 O309 1.970 . S
Co306 N323 1.989 . S
Co306 O331 1.967 . S
Co306 O338 1.920 . S
Co307 O310 1.966 . S
Co307 N316 2.022 . S
Co307 N324 1.993 . S
Co307 O332 1.941 . S
C308 O309 1.258 . S
C308 O310 1.263 . S
O309 Co306 1.970 . S
O309 C308 1.258 . S
O310 Co307 1.966 . S
O310 C308 1.263 . S
C311 O312 1.235 . S
C311 O338 1.289 . S
O312 C311 1.235 . S
C313 C315 1.400 . S
C313 N316 1.351 . S
C313 C318 1.501 . S
C314 C315 1.387 . S
C314 N317 1.341 . S
C315 C313 1.400 . S
C315 C314 1.387 . S
N316 Co307 2.022 . S
N316 C313 1.351 . S
N316 N317 1.365 . S
N317 C314 1.341 . S
N317 N316 1.365 . S
N317 H337 0.862 . S
C318 C313 1.501 . S
C318 H319 0.961 . S
C318 H320 0.961 . S
C318 H321 0.960 . S
H319 C318 0.961 . S
H320 C318 0.961 . S
H321 C318 0.960 . S
C322 N323 1.342 . S
C322 C326 1.401 . S
C322 C327 1.499 . S
N323 Co306 1.989 . S
N323 C322 1.342 . S
N323 N324 1.388 . S
N324 Co307 1.993 . S
N324 N323 1.388 . S
N324 C325 1.346 . S
C325 N324 1.346 . S
C325 C326 1.396 . S
C325 C335 1.510 . S
C326 C322 1.401 . S
C326 C325 1.396 . S
C327 C322 1.499 . S
C327 H328 0.959 . S
C327 H329 0.960 . S
C327 H330 0.961 . S
H328 C327 0.959 . S
H329 C327 0.960 . S
H330 C327 0.961 . S
O331 Co306 1.967 . S
O331 C339 1.258 . S
O332 Co307 1.941 . S
O332 C339 1.266 . S
H333 C335 0.959 . S
H334 C335 0.961 . S
C335 C325 1.510 . S
C335 H333 0.959 . S
C335 H334 0.961 . S
C335 H336 0.960 . S
H336 C335 0.960 . S
H337 N317 0.862 . S
O338 Co306 1.920 . S
O338 C311 1.289 . S
C339 O331 1.258 . S
C339 O332 1.266 . S
Co340 O343 1.970 . S
Co340 N357 1.989 . S
Co340 O365 1.967 . S
Co340 O372 1.920 . S
Co341 O344 1.966 . S
Co341 N350 2.022 . S
Co341 N358 1.993 . S
Co341 O366 1.941 . S
C342 O343 1.258 . S
C342 O344 1.263 . S
O343 Co340 1.970 . S
O343 C342 1.258 . S
O344 Co341 1.966 . S
O344 C342 1.263 . S
C345 O346 1.235 . S
C345 O372 1.289 . S
O346 C345 1.235 . S
C347 C349 1.400 . S
C347 N350 1.351 . S
C347 C352 1.501 . S
C348 C349 1.387 . S
C348 N351 1.341 . S
C349 C347 1.400 . S
C349 C348 1.387 . S
N350 Co341 2.022 . S
N350 C347 1.351 . S
N350 N351 1.365 . S
N351 C348 1.341 . S
N351 N350 1.365 . S
N351 H371 0.862 . S
C352 C347 1.501 . S
C352 H353 0.961 . S
C352 H354 0.961 . S
C352 H355 0.960 . S
H353 C352 0.961 . S
H354 C352 0.961 . S
H355 C352 0.960 . S
C356 N357 1.342 . S
C356 C360 1.401 . S
C356 C361 1.499 . S
N357 Co340 1.989 . S
N357 C356 1.342 . S
N357 N358 1.388 . S
N358 Co341 1.993 . S
N358 N357 1.388 . S
N358 C359 1.346 . S
C359 N358 1.346 . S
C359 C360 1.396 . S
C359 C369 1.510 . S
C360 C356 1.401 . S
C360 C359 1.396 . S
C361 C356 1.499 . S
C361 H362 0.959 . S
C361 H363 0.960 . S
C361 H364 0.961 . S
H362 C361 0.959 . S
H363 C361 0.960 . S
H364 C361 0.961 . S
O365 Co340 1.967 . S
O365 C373 1.258 . S
O366 Co341 1.941 . S
O366 C373 1.266 . S
H367 C369 0.959 . S
H368 C369 0.961 . S
C369 C359 1.510 . S
C369 H367 0.959 . S
C369 H368 0.961 . S
C369 H370 0.960 . S
H370 C369 0.960 . S
H371 N351 0.862 . S
O372 Co340 1.920 . S
O372 C345 1.289 . S
C373 O365 1.258 . S
C373 O366 1.266 . S
Co374 O377 1.970 . S
Co374 N391 1.989 . S
Co374 O399 1.967 . S
Co374 O406 1.920 . S
Co375 O378 1.966 . S
Co375 N384 2.022 . S
Co375 N392 1.993 . S
Co375 O400 1.941 . S
C376 O377 1.258 . S
C376 O378 1.263 . S
O377 Co374 1.970 . S
O377 C376 1.258 . S
O378 Co375 1.966 . S
O378 C376 1.263 . S
C379 O380 1.235 . S
C379 O406 1.289 . S
O380 C379 1.235 . S
C381 C383 1.400 . S
C381 N384 1.351 . S
C381 C386 1.501 . S
C382 C383 1.387 . S
C382 N385 1.341 . S
C383 C381 1.400 . S
C383 C382 1.387 . S
N384 Co375 2.022 . S
N384 C381 1.351 . S
N384 N385 1.365 . S
N385 C382 1.341 . S
N385 N384 1.365 . S
N385 H405 0.862 . S
C386 C381 1.501 . S
C386 H387 0.961 . S
C386 H388 0.961 . S
C386 H389 0.960 . S
H387 C386 0.961 . S
H388 C386 0.961 . S
H389 C386 0.960 . S
C390 N391 1.342 . S
C390 C394 1.401 . S
C390 C395 1.499 . S
N391 Co374 1.989 . S
N391 C390 1.342 . S
N391 N392 1.388 . S
N392 Co375 1.993 . S
N392 N391 1.388 . S
N392 C393 1.346 . S
C393 N392 1.346 . S
C393 C394 1.396 . S
C393 C403 1.510 . S
C394 C390 1.401 . S
C394 C393 1.396 . S
C395 C390 1.499 . S
C395 H396 0.959 . S
C395 H397 0.960 . S
C395 H398 0.961 . S
H396 C395 0.959 . S
H397 C395 0.960 . S
H398 C395 0.961 . S
O399 Co374 1.967 . S
O399 C407 1.258 . S
O400 Co375 1.941 . S
O400 C407 1.266 . S
H401 C403 0.959 . S
H402 C403 0.961 . S
C403 C393 1.510 . S
C403 H401 0.959 . S
C403 H402 0.961 . S
C403 H404 0.960 . S
H404 C403 0.960 . S
H405 N385 0.862 . S
O406 Co374 1.920 . S
O406 C379 1.289 . S
C407 O399 1.258 . S
C407 O400 1.266 . S
C408 C409 1.349 . S
C408 C410 1.327 . S
C408 H433 0.950 . S
C409 C408 1.349 . S
C409 C425 1.349 . S
C410 C408 1.327 . S
C410 C429 1.429 . S
C410 H434 0.950 . S
C411 C428 1.574 . S
C411 C430 1.368 . S
C411 H435 0.949 . S
H412 C416 0.949 . S
C413 C414 1.349 . S
C413 C415 1.327 . S
C413 H436 0.950 . S
C414 C413 1.349 . S
C414 C426 1.349 . S
C415 C413 1.327 . S
C415 C431 1.429 . S
C415 H437 0.950 . S
C416 H412 0.949 . S
C416 C424 1.574 . S
C416 C432 1.368 . S
H417 C425 0.950 . S
H418 C423 0.950 . S
H419 C424 0.949 . S
H420 C426 0.950 . S
H421 C427 0.950 . S
H422 C428 0.949 . S
C423 H418 0.950 . S
C423 C425 1.327 . S
C423 C429 1.429 . S
C424 C416 1.574 . S
C424 H419 0.949 . S
C424 C430 1.368 . S
C425 C409 1.349 . S
C425 H417 0.950 . S
C425 C423 1.327 . S
C426 C414 1.349 . S
C426 H420 0.950 . S
C426 C427 1.327 . S
C427 H421 0.950 . S
C427 C426 1.327 . S
C427 C431 1.429 . S
C428 C411 1.574 . S
C428 H422 0.949 . S
C428 C432 1.368 . S
C429 C410 1.429 . S
C429 C423 1.429 . S
C429 C430 1.523 . S
C430 C411 1.368 . S
C430 C424 1.368 . S
C430 C429 1.523 . S
C431 C415 1.429 . S
C431 C427 1.429 . S
C431 C432 1.523 . S
C432 C416 1.368 . S
C432 C428 1.368 . S
C432 C431 1.523 . S
H433 C408 0.950 . S
H434 C410 0.950 . S
H435 C411 0.949 . S
H436 C413 0.950 . S
H437 C415 0.950 . S
C438 C439 1.349 . S
C438 C440 1.327 . S
C438 H463 0.950 . S
C439 C438 1.349 . S
C439 C455 1.349 . S
C440 C438 1.327 . S
C440 C459 1.429 . S
C440 H464 0.950 . S
C441 C458 1.574 . S
C441 C460 1.368 . S
C441 H465 0.949 . S
H442 C446 0.949 . S
C443 C444 1.349 . S
C443 C445 1.327 . S
C443 H466 0.950 . S
C444 C443 1.349 . S
C444 C456 1.349 . S
C445 C443 1.327 . S
C445 C461 1.429 . S
C445 H467 0.950 . S
C446 H442 0.949 . S
C446 C454 1.574 . S
C446 C462 1.368 . S
H447 C455 0.950 . S
H448 C453 0.950 . S
H449 C454 0.949 . S
H450 C456 0.950 . S
H451 C457 0.950 . S
H452 C458 0.949 . S
C453 H448 0.950 . S
C453 C455 1.327 . S
C453 C459 1.429 . S
C454 C446 1.574 . S
C454 H449 0.949 . S
C454 C460 1.368 . S
C455 C439 1.349 . S
C455 H447 0.950 . S
C455 C453 1.327 . S
C456 C444 1.349 . S
C456 H450 0.950 . S
C456 C457 1.327 . S
C457 H451 0.950 . S
C457 C456 1.327 . S
C457 C461 1.429 . S
C458 C441 1.574 . S
C458 H452 0.949 . S
C458 C462 1.368 . S
C459 C440 1.429 . S
C459 C453 1.429 . S
C459 C460 1.523 . S
C460 C441 1.368 . S
C460 C454 1.368 . S
C460 C459 1.523 . S
C461 C445 1.429 . S
C461 C457 1.429 . S
C461 C462 1.523 . S
C462 C446 1.368 . S
C462 C458 1.368 . S
C462 C461 1.523 . S
H463 C438 0.950 . S
H464 C440 0.950 . S
H465 C441 0.949 . S
H466 C443 0.950 . S
H467 C445 0.950 . S
C468 C469 1.349 . S
C468 C470 1.327 . S
C468 H493 0.950 . S
C469 C468 1.349 . S
C469 C485 1.349 . S
C470 C468 1.327 . S
C470 C489 1.429 . S
C470 H494 0.950 . S
C471 C488 1.574 . S
C471 C490 1.368 . S
C471 H495 0.949 . S
H472 C476 0.949 . S
C473 C474 1.349 . S
C473 C475 1.327 . S
C473 H496 0.950 . S
C474 C473 1.349 . S
C474 C486 1.349 . S
C475 C473 1.327 . S
C475 C491 1.429 . S
C475 H497 0.950 . S
C476 H472 0.949 . S
C476 C484 1.574 . S
C476 C492 1.368 . S
H477 C485 0.950 . S
H478 C483 0.950 . S
H479 C484 0.949 . S
H480 C486 0.950 . S
H481 C487 0.950 . S
H482 C488 0.949 . S
C483 H478 0.950 . S
C483 C485 1.327 . S
C483 C489 1.429 . S
C484 C476 1.574 . S
C484 H479 0.949 . S
C484 C490 1.368 . S
C485 C469 1.349 . S
C485 H477 0.950 . S
C485 C483 1.327 . S
C486 C474 1.349 . S
C486 H480 0.950 . S
C486 C487 1.327 . S
C487 H481 0.950 . S
C487 C486 1.327 . S
C487 C491 1.429 . S
C488 C471 1.574 . S
C488 H482 0.949 . S
C488 C492 1.368 . S
C489 C470 1.429 . S
C489 C483 1.429 . S
C489 C490 1.523 . S
C490 C471 1.368 . S
C490 C484 1.368 . S
C490 C489 1.523 . S
C491 C475 1.429 . S
C491 C487 1.429 . S
C491 C492 1.523 . S
C492 C476 1.368 . S
C492 C488 1.368 . S
C492 C491 1.523 . S
H493 C468 0.950 . S
H494 C470 0.950 . S
H495 C471 0.949 . S
H496 C473 0.950 . S
H497 C475 0.950 . S
C498 C499 1.349 . S
C498 C500 1.327 . S
C498 H523 0.950 . S
C499 C498 1.349 . S
C499 C515 1.349 . S
C500 C498 1.327 . S
C500 C519 1.429 . S
C500 H524 0.950 . S
C501 C518 1.574 . S
C501 C520 1.368 . S
C501 H525 0.949 . S
H502 C506 0.949 . S
C503 C504 1.349 . S
C503 C505 1.327 . S
C503 H526 0.950 . S
C504 C503 1.349 . S
C504 C516 1.349 . S
C505 C503 1.327 . S
C505 C521 1.429 . S
C505 H527 0.950 . S
C506 H502 0.949 . S
C506 C514 1.574 . S
C506 C522 1.368 . S
H507 C515 0.950 . S
H508 C513 0.950 . S
H509 C514 0.949 . S
H510 C516 0.950 . S
H511 C517 0.950 . S
H512 C518 0.949 . S
C513 H508 0.950 . S
C513 C515 1.327 . S
C513 C519 1.429 . S
C514 C506 1.574 . S
C514 H509 0.949 . S
C514 C520 1.368 . S
C515 C499 1.349 . S
C515 H507 0.950 . S
C515 C513 1.327 . S
C516 C504 1.349 . S
C516 H510 0.950 . S
C516 C517 1.327 . S
C517 H511 0.950 . S
C517 C516 1.327 . S
C517 C521 1.429 . S
C518 C501 1.574 . S
C518 H512 0.949 . S
C518 C522 1.368 . S
C519 C500 1.429 . S
C519 C513 1.429 . S
C519 C520 1.523 . S
C520 C501 1.368 . S
C520 C514 1.368 . S
C520 C519 1.523 . S
C521 C505 1.429 . S
C521 C517 1.429 . S
C521 C522 1.523 . S
C522 C506 1.368 . S
C522 C518 1.368 . S
C522 C521 1.523 . S
H523 C498 0.950 . S
H524 C500 0.950 . S
H525 C501 0.949 . S
H526 C503 0.950 . S
H527 C505 0.950 . S
C528 C529 1.349 . S
C528 C530 1.327 . S
C528 H553 0.950 . S
C529 C528 1.349 . S
C529 C545 1.349 . S
C530 C528 1.327 . S
C530 C549 1.429 . S
C530 H554 0.950 . S
C531 C548 1.574 . S
C531 C550 1.368 . S
C531 H555 0.949 . S
H532 C536 0.949 . S
C533 C534 1.349 . S
C533 C535 1.327 1_554 S
C533 H556 0.950 . S
C534 C533 1.349 . S
C534 C546 1.349 1_554 S
C535 C533 1.327 1_556 S
C535 C551 1.429 . S
C535 H557 0.950 . S
C536 H532 0.949 . S
C536 C544 1.574 . S
C536 C552 1.368 . S
H537 C545 0.950 . S
H538 C543 0.950 . S
H539 C544 0.949 . S
H540 C546 0.950 . S
H541 C547 0.950 . S
H542 C548 0.949 . S
C543 H538 0.950 . S
C543 C545 1.327 . S
C543 C549 1.429 . S
C544 C536 1.574 . S
C544 H539 0.949 . S
C544 C550 1.368 . S
C545 C529 1.349 . S
C545 H537 0.950 . S
C545 C543 1.327 . S
C546 C534 1.349 1_556 S
C546 H540 0.950 . S
C546 C547 1.327 . S
C547 H541 0.950 . S
C547 C546 1.327 . S
C547 C551 1.429 . S
C548 C531 1.574 . S
C548 H542 0.949 . S
C548 C552 1.368 . S
C549 C530 1.429 . S
C549 C543 1.429 . S
C549 C550 1.523 . S
C550 C531 1.368 . S
C550 C544 1.368 . S
C550 C549 1.523 . S
C551 C535 1.429 . S
C551 C547 1.429 . S
C551 C552 1.523 . S
C552 C536 1.368 . S
C552 C548 1.368 . S
C552 C551 1.523 . S
H553 C528 0.950 . S
H554 C530 0.950 . S
H555 C531 0.949 . S
H556 C533 0.950 . S
H557 C535 0.950 . S
C558 C559 1.349 1_554 S
C558 C560 1.327 . S
C558 H583 0.950 . S
C559 C558 1.349 1_556 S
C559 C575 1.349 . S
C560 C558 1.327 . S
C560 C579 1.429 . S
C560 H584 0.950 . S
C561 C578 1.574 . S
C561 C580 1.368 . S
C561 H585 0.949 . S
H562 C566 0.949 . S
C563 C564 1.349 . S
C563 C565 1.327 . S
C563 H586 0.950 . S
C564 C563 1.349 . S
C564 C576 1.349 . S
C565 C563 1.327 . S
C565 C581 1.429 . S
C565 H587 0.950 . S
C566 H562 0.949 . S
C566 C574 1.574 . S
C566 C582 1.368 . S
H567 C575 0.950 . S
H568 C573 0.950 . S
H569 C574 0.949 . S
H570 C576 0.950 . S
H571 C577 0.950 . S
H572 C578 0.949 . S
C573 H568 0.950 . S
C573 C575 1.327 1_554 S
C573 C579 1.429 . S
C574 C566 1.574 . S
C574 H569 0.949 . S
C574 C580 1.368 . S
C575 C559 1.349 . S
C575 H567 0.950 . S
C575 C573 1.327 1_556 S
C576 C564 1.349 . S
C576 H570 0.950 . S
C576 C577 1.327 . S
C577 H571 0.950 . S
C577 C576 1.327 . S
C577 C581 1.429 . S
C578 C561 1.574 . S
C578 H572 0.949 . S
C578 C582 1.368 . S
C579 C560 1.429 . S
C579 C573 1.429 . S
C579 C580 1.523 . S
C580 C561 1.368 . S
C580 C574 1.368 . S
C580 C579 1.523 . S
C581 C565 1.429 . S
C581 C577 1.429 . S
C581 C582 1.523 . S
C582 C566 1.368 . S
C582 C578 1.368 . S
C582 C581 1.523 . S
H583 C558 0.950 . S
H584 C560 0.950 . S
H585 C561 0.949 . S
H586 C563 0.950 . S
H587 C565 0.950 . S
C588 C589 1.349 . S
C588 C590 1.327 . S
C588 H613 0.950 . S
C589 C588 1.349 . S
C589 C605 1.349 . S
C590 C588 1.327 . S
C590 C609 1.429 . S
C590 H614 0.950 . S
C591 C608 1.574 . S
C591 C610 1.368 . S
C591 H615 0.949 . S
H592 C596 0.949 . S
C593 C594 1.349 . S
C593 C595 1.327 . S
C593 H616 0.950 . S
C594 C593 1.349 . S
C594 C606 1.349 . S
C595 C593 1.327 . S
C595 C611 1.429 . S
C595 H617 0.950 . S
C596 H592 0.949 . S
C596 C604 1.574 . S
C596 C612 1.368 . S
H597 C605 0.950 . S
H598 C603 0.950 . S
H599 C604 0.949 . S
H600 C606 0.950 . S
H601 C607 0.950 . S
H602 C608 0.949 . S
C603 H598 0.950 . S
C603 C605 1.327 . S
C603 C609 1.429 . S
C604 C596 1.574 . S
C604 H599 0.949 . S
C604 C610 1.368 . S
C605 C589 1.349 . S
C605 H597 0.950 . S
C605 C603 1.327 . S
C606 C594 1.349 . S
C606 H600 0.950 . S
C606 C607 1.327 . S
C607 H601 0.950 . S
C607 C606 1.327 . S
C607 C611 1.429 . S
C608 C591 1.574 . S
C608 H602 0.949 . S
C608 C612 1.368 . S
C609 C590 1.429 . S
C609 C603 1.429 . S
C609 C610 1.523 . S
C610 C591 1.368 . S
C610 C604 1.368 . S
C610 C609 1.523 . S
C611 C595 1.429 . S
C611 C607 1.429 . S
C611 C612 1.523 . S
C612 C596 1.368 . S
C612 C608 1.368 . S
C612 C611 1.523 . S
H613 C588 0.950 . S
H614 C590 0.950 . S
H615 C591 0.949 . S
H616 C593 0.950 . S
H617 C595 0.950 . S
C618 C619 1.349 . S
C618 C620 1.327 . S
C618 H643 0.950 . S
C619 C618 1.349 . S
C619 C635 1.349 . S
C620 C618 1.327 . S
C620 C639 1.429 . S
C620 H644 0.950 . S
C621 C638 1.574 . S
C621 C640 1.368 . S
C621 H645 0.949 . S
H622 C626 0.949 . S
C623 C624 1.349 . S
C623 C625 1.327 . S
C623 H646 0.950 . S
C624 C623 1.349 . S
C624 C636 1.349 . S
C625 C623 1.327 . S
C625 C641 1.429 . S
C625 H647 0.950 . S
C626 H622 0.949 . S
C626 C634 1.574 . S
C626 C642 1.368 . S
H627 C635 0.950 . S
H628 C633 0.950 . S
H629 C634 0.949 . S
H630 C636 0.950 . S
H631 C637 0.950 . S
H632 C638 0.949 . S
C633 H628 0.950 . S
C633 C635 1.327 . S
C633 C639 1.429 . S
C634 C626 1.574 . S
C634 H629 0.949 . S
C634 C640 1.368 . S
C635 C619 1.349 . S
C635 H627 0.950 . S
C635 C633 1.327 . S
C636 C624 1.349 . S
C636 H630 0.950 . S
C636 C637 1.327 . S
C637 H631 0.950 . S
C637 C636 1.327 . S
C637 C641 1.429 . S
C638 C621 1.574 . S
C638 H632 0.949 . S
C638 C642 1.368 . S
C639 C620 1.429 . S
C639 C633 1.429 . S
C639 C640 1.523 . S
C640 C621 1.368 . S
C640 C634 1.368 . S
C640 C639 1.523 . S
C641 C625 1.429 . S
C641 C637 1.429 . S
C641 C642 1.523 . S
C642 C626 1.368 . S
C642 C638 1.368 . S
C642 C641 1.523 . S
H643 C618 0.950 . S
H644 C620 0.950 . S
H645 C621 0.949 . S
H646 C623 0.950 . S
H647 C625 0.950 . S
C648 C649 1.349 . S
C648 C650 1.327 . S
C648 H673 0.950 . S
C649 C648 1.349 . S
C649 C665 1.349 . S
C650 C648 1.327 . S
C650 C669 1.429 . S
C650 H674 0.950 . S
C651 C668 1.574 . S
C651 C670 1.368 . S
C651 H675 0.949 . S
H652 C656 0.949 . S
C653 C654 1.349 . S
C653 C655 1.327 . S
C653 H676 0.950 . S
C654 C653 1.349 . S
C654 C666 1.349 . S
C655 C653 1.327 . S
C655 C671 1.429 . S
C655 H677 0.950 . S
C656 H652 0.949 . S
C656 C664 1.574 . S
C656 C672 1.368 . S
H657 C665 0.950 . S
H658 C663 0.950 . S
H659 C664 0.949 . S
H660 C666 0.950 . S
H661 C667 0.950 . S
H662 C668 0.949 . S
C663 H658 0.950 . S
C663 C665 1.327 . S
C663 C669 1.429 . S
C664 C656 1.574 . S
C664 H659 0.949 . S
C664 C670 1.368 . S
C665 C649 1.349 . S
C665 H657 0.950 . S
C665 C663 1.327 . S
C666 C654 1.349 . S
C666 H660 0.950 . S
C666 C667 1.327 . S
C667 H661 0.950 . S
C667 C666 1.327 . S
C667 C671 1.429 . S
C668 C651 1.574 . S
C668 H662 0.949 . S
C668 C672 1.368 . S
C669 C650 1.429 . S
C669 C663 1.429 . S
C669 C670 1.523 . S
C670 C651 1.368 . S
C670 C664 1.368 . S
C670 C669 1.523 . S
C671 C655 1.429 . S
C671 C667 1.429 . S
C671 C672 1.523 . S
C672 C656 1.368 . S
C672 C668 1.368 . S
C672 C671 1.523 . S
H673 C648 0.950 . S
H674 C650 0.950 . S
H675 C651 0.949 . S
H676 C653 0.950 . S
H677 C655 0.950 . S
C678 C679 1.349 . S
C678 C680 1.327 . S
C678 H703 0.950 . S
C679 C678 1.349 . S
C679 C695 1.349 . S
C680 C678 1.327 . S
C680 C699 1.429 . S
C680 H704 0.950 . S
C681 C698 1.574 . S
C681 C700 1.368 . S
C681 H705 0.949 . S
H682 C686 0.949 . S
C683 C684 1.349 . S
C683 C685 1.327 . S
C683 H706 0.950 . S
C684 C683 1.349 . S
C684 C696 1.349 . S
C685 C683 1.327 . S
C685 C701 1.429 . S
C685 H707 0.950 . S
C686 H682 0.949 . S
C686 C694 1.574 . S
C686 C702 1.368 . S
H687 C695 0.950 . S
H688 C693 0.950 . S
H689 C694 0.949 . S
H690 C696 0.950 . S
H691 C697 0.950 . S
H692 C698 0.949 . S
C693 H688 0.950 . S
C693 C695 1.327 . S
C693 C699 1.429 . S
C694 C686 1.574 . S
C694 H689 0.949 . S
C694 C700 1.368 . S
C695 C679 1.349 . S
C695 H687 0.950 . S
C695 C693 1.327 . S
C696 C684 1.349 . S
C696 H690 0.950 . S
C696 C697 1.327 . S
C697 H691 0.950 . S
C697 C696 1.327 . S
C697 C701 1.429 . S
C698 C681 1.574 . S
C698 H692 0.949 . S
C698 C702 1.368 . S
C699 C680 1.429 . S
C699 C693 1.429 . S
C699 C700 1.523 . S
C700 C681 1.368 . S
C700 C694 1.368 . S
C700 C699 1.523 . S
C701 C685 1.429 . S
C701 C697 1.429 . S
C701 C702 1.523 . S
C702 C686 1.368 . S
C702 C698 1.368 . S
C702 C701 1.523 . S
H703 C678 0.950 . S
H704 C680 0.950 . S
H705 C681 0.949 . S
H706 C683 0.950 . S
H707 C685 0.950 . S
C708 C709 1.349 . S
C708 C710 1.327 . S
C708 H733 0.950 . S
C709 C708 1.349 . S
C709 C725 1.349 . S
C710 C708 1.327 . S
C710 C729 1.429 . S
C710 H734 0.950 . S
C711 C728 1.574 . S
C711 C730 1.368 . S
C711 H735 0.949 . S
H712 C716 0.949 . S
C713 C714 1.349 . S
C713 C715 1.327 . S
C713 H736 0.950 . S
C714 C713 1.349 . S
C714 C726 1.349 . S
C715 C713 1.327 . S
C715 C731 1.429 . S
C715 H737 0.950 . S
C716 H712 0.949 . S
C716 C724 1.574 . S
C716 C732 1.368 . S
H717 C725 0.950 . S
H718 C723 0.950 . S
H719 C724 0.949 . S
H720 C726 0.950 . S
H721 C727 0.950 . S
H722 C728 0.949 . S
C723 H718 0.950 . S
C723 C725 1.327 . S
C723 C729 1.429 . S
C724 C716 1.574 . S
C724 H719 0.949 . S
C724 C730 1.368 . S
C725 C709 1.349 . S
C725 H717 0.950 . S
C725 C723 1.327 . S
C726 C714 1.349 . S
C726 H720 0.950 . S
C726 C727 1.327 . S
C727 H721 0.950 . S
C727 C726 1.327 . S
C727 C731 1.429 . S
C728 C711 1.574 . S
C728 H722 0.949 . S
C728 C732 1.368 . S
C729 C710 1.429 . S
C729 C723 1.429 . S
C729 C730 1.523 . S
C730 C711 1.368 . S
C730 C724 1.368 . S
C730 C729 1.523 . S
C731 C715 1.429 . S
C731 C727 1.429 . S
C731 C732 1.523 . S
C732 C716 1.368 . S
C732 C728 1.368 . S
C732 C731 1.523 . S
H733 C708 0.950 . S
H734 C710 0.950 . S
H735 C711 0.949 . S
H736 C713 0.950 . S
H737 C715 0.950 . S
C738 C739 1.349 . S
C738 C740 1.327 . S
C738 H763 0.950 . S
C739 C738 1.349 . S
C739 C755 1.349 . S
C740 C738 1.327 . S
C740 C759 1.429 . S
C740 H764 0.950 . S
C741 C758 1.574 . S
C741 C760 1.368 . S
C741 H765 0.949 . S
H742 C746 0.949 . S
C743 C744 1.349 . S
C743 C745 1.327 . S
C743 H766 0.950 . S
C744 C743 1.349 . S
C744 C756 1.349 . S
C745 C743 1.327 . S
C745 C761 1.429 . S
C745 H767 0.950 . S
C746 H742 0.949 . S
C746 C754 1.574 . S
C746 C762 1.368 . S
H747 C755 0.950 . S
H748 C753 0.950 . S
H749 C754 0.949 . S
H750 C756 0.950 . S
H751 C757 0.950 . S
H752 C758 0.949 . S
C753 H748 0.950 . S
C753 C755 1.327 . S
C753 C759 1.429 . S
C754 C746 1.574 . S
C754 H749 0.949 . S
C754 C760 1.368 . S
C755 C739 1.349 . S
C755 H747 0.950 . S
C755 C753 1.327 . S
C756 C744 1.349 . S
C756 H750 0.950 . S
C756 C757 1.327 . S
C757 H751 0.950 . S
C757 C756 1.327 . S
C757 C761 1.429 . S
C758 C741 1.574 . S
C758 H752 0.949 . S
C758 C762 1.368 . S
C759 C740 1.429 . S
C759 C753 1.429 . S
C759 C760 1.523 . S
C760 C741 1.368 . S
C760 C754 1.368 . S
C760 C759 1.523 . S
C761 C745 1.429 . S
C761 C757 1.429 . S
C761 C762 1.523 . S
C762 C746 1.368 . S
C762 C758 1.368 . S
C762 C761 1.523 . S
H763 C738 0.950 . S
H764 C740 0.950 . S
H765 C741 0.949 . S
H766 C743 0.950 . S
H767 C745 0.950 . S
C768 C769 1.349 . S
C768 C770 1.327 . S
C768 H793 0.950 . S
C769 C768 1.349 . S
C769 C785 1.349 . S
C770 C768 1.327 . S
C770 C789 1.429 . S
C770 H794 0.950 . S
C771 C788 1.574 1_655 S
C771 C790 1.368 . S
C771 H795 0.949 . S
H772 C776 0.949 . S
C773 C774 1.349 . S
C773 C775 1.327 . S
C773 H796 0.950 . S
C774 C773 1.349 . S
C774 C786 1.349 . S
C775 C773 1.327 . S
C775 C791 1.429 . S
C775 H797 0.950 . S
C776 H772 0.949 . S
C776 C784 1.574 1_455 S
C776 C792 1.368 . S
H777 C785 0.950 . S
H778 C783 0.950 . S
H779 C784 0.949 . S
H780 C786 0.950 . S
H781 C787 0.950 . S
H782 C788 0.949 . S
C783 H778 0.950 . S
C783 C785 1.327 . S
C783 C789 1.429 . S
C784 C776 1.574 1_655 S
C784 H779 0.949 . S
C784 C790 1.368 . S
C785 C769 1.349 . S
C785 H777 0.950 . S
C785 C783 1.327 . S
C786 C774 1.349 . S
C786 H780 0.950 . S
C786 C787 1.327 . S
C787 H781 0.950 . S
C787 C786 1.327 . S
C787 C791 1.429 . S
C788 C771 1.574 1_455 S
C788 H782 0.949 . S
C788 C792 1.368 . S
C789 C770 1.429 . S
C789 C783 1.429 . S
C789 C790 1.523 . S
C790 C771 1.368 . S
C790 C784 1.368 . S
C790 C789 1.523 . S
C791 C775 1.429 . S
C791 C787 1.429 . S
C791 C792 1.523 . S
C792 C776 1.368 . S
C792 C788 1.368 . S
C792 C791 1.523 . S
H793 C768 0.950 . S
H794 C770 0.950 . S
H795 C771 0.949 . S
H796 C773 0.950 . S
H797 C775 0.950 . S
C798 C799 1.349 . S
C798 C800 1.327 . S
C798 H823 0.950 . S
C799 C798 1.349 . S
C799 C815 1.349 . S
C800 C798 1.327 . S
C800 C819 1.429 . S
C800 H824 0.950 . S
C801 C818 1.574 1_556 S
C801 C820 1.368 1_545 S
C801 H825 0.949 . S
H802 C806 0.949 . S
C803 C804 1.349 . S
C803 C805 1.327 . S
C803 H826 0.950 . S
C804 C803 1.349 . S
C804 C816 1.349 . S
C805 C803 1.327 . S
C805 C821 1.429 . S
C805 H827 0.950 . S
C806 H802 0.949 . S
C806 C814 1.574 1_554 S
C806 C822 1.368 1_565 S
H807 C815 0.950 . S
H808 C813 0.950 1_545 S
H809 C814 0.949 . S
H810 C816 0.950 . S
H811 C817 0.950 1_565 S
H812 C818 0.949 . S
C813 H808 0.950 1_565 S
C813 C815 1.327 . S
C813 C819 1.429 . S
C814 C806 1.574 1_556 S
C814 H809 0.949 . S
C814 C820 1.368 . S
C815 C799 1.349 . S
C815 H807 0.950 . S
C815 C813 1.327 . S
C816 C804 1.349 . S
C816 H810 0.950 . S
C816 C817 1.327 . S
C817 H811 0.950 1_545 S
C817 C816 1.327 . S
C817 C821 1.429 . S
C818 C801 1.574 1_554 S
C818 H812 0.949 . S
C818 C822 1.368 . S
C819 C800 1.429 . S
C819 C813 1.429 . S
C819 C820 1.523 . S
C820 C801 1.368 1_565 S
C820 C814 1.368 . S
C820 C819 1.523 . S
C821 C805 1.429 . S
C821 C817 1.429 . S
C821 C822 1.523 . S
C822 C806 1.368 1_545 S
C822 C818 1.368 . S
C822 C821 1.523 . S
H823 C798 0.950 . S
H824 C800 0.950 . S
H825 C801 0.949 . S
H826 C803 0.950 . S
H827 C805 0.950 . S
C828 C829 1.349 . S
C828 C830 1.327 . S
C828 H853 0.950 . S
C829 C828 1.349 . S
C829 C845 1.349 . S
C830 C828 1.327 . S
C830 C849 1.429 . S
C830 H854 0.950 . S
C831 C848 1.574 . S
C831 C850 1.368 . S
C831 H855 0.949 . S
H832 C836 0.949 . S
C833 C834 1.349 . S
C833 C835 1.327 . S
C833 H856 0.950 . S
C834 C833 1.349 . S
C834 C846 1.349 . S
C835 C833 1.327 . S
C835 C851 1.429 . S
C835 H857 0.950 . S
C836 H832 0.949 . S
C836 C844 1.574 . S
C836 C852 1.368 . S
H837 C845 0.950 . S
H838 C843 0.950 . S
H839 C844 0.949 . S
H840 C846 0.950 . S
H841 C847 0.950 . S
H842 C848 0.949 . S
C843 H838 0.950 . S
C843 C845 1.327 . S
C843 C849 1.429 . S
C844 C836 1.574 . S
C844 H839 0.949 . S
C844 C850 1.368 . S
C845 C829 1.349 . S
C845 H837 0.950 . S
C845 C843 1.327 . S
C846 C834 1.349 . S
C846 H840 0.950 . S
C846 C847 1.327 . S
C847 H841 0.950 . S
C847 C846 1.327 . S
C847 C851 1.429 . S
C848 C831 1.574 . S
C848 H842 0.949 . S
C848 C852 1.368 . S
C849 C830 1.429 . S
C849 C843 1.429 . S
C849 C850 1.523 . S
C850 C831 1.368 . S
C850 C844 1.368 . S
C850 C849 1.523 . S
C851 C835 1.429 . S
C851 C847 1.429 . S
C851 C852 1.523 . S
C852 C836 1.368 . S
C852 C848 1.368 . S
C852 C851 1.523 . S
H853 C828 0.950 . S
H854 C830 0.950 . S
H855 C831 0.949 . S
H856 C833 0.950 . S
H857 C835 0.950 . S
C858 C859 1.349 . S
C858 C860 1.328 1_655 S
C858 H883 0.950 1_655 S
C859 C858 1.349 . S
C859 C875 1.349 . S
C860 C858 1.328 1_455 S
C860 C879 1.430 1_455 S
C860 H884 0.947 . S
C861 C878 1.574 . S
C861 C880 1.368 . S
C861 H885 0.949 . S
H862 C866 0.949 . S
C863 C864 1.349 . S
C863 C865 1.328 1_455 S
C863 H886 0.950 1_455 S
C864 C863 1.349 . S
C864 C876 1.349 . S
C865 C863 1.328 1_655 S
C865 C881 1.430 1_655 S
C865 H887 0.947 . S
C866 H862 0.949 . S
C866 C874 1.574 . S
C866 C882 1.368 . S
H867 C875 0.950 . S
H868 C873 0.950 . S
H869 C874 0.949 . S
H870 C876 0.950 . S
H871 C877 0.950 . S
H872 C878 0.949 . S
C873 H868 0.950 . S
C873 C875 1.327 . S
C873 C879 1.429 . S
C874 C866 1.574 . S
C874 H869 0.949 . S
C874 C880 1.368 1_455 S
C875 C859 1.349 . S
C875 H867 0.950 . S
C875 C873 1.327 . S
C876 C864 1.349 . S
C876 H870 0.950 . S
C876 C877 1.327 . S
C877 H871 0.950 . S
C877 C876 1.327 . S
C877 C881 1.429 . S
C878 C861 1.574 . S
C878 H872 0.949 . S
C878 C882 1.368 1_655 S
C879 C860 1.430 1_655 S
C879 C873 1.429 . S
C879 C880 1.523 . S
C880 C861 1.368 . S
C880 C874 1.368 1_655 S
C880 C879 1.523 . S
C881 C865 1.430 1_455 S
C881 C877 1.429 . S
C881 C882 1.523 . S
C882 C866 1.368 . S
C882 C878 1.368 1_455 S
C882 C881 1.523 . S
H883 C858 0.950 1_455 S
H884 C860 0.947 . S
H885 C861 0.949 . S
H886 C863 0.950 1_655 S
H887 C865 0.947 . S
C888 C889 1.349 . S
C888 C890 1.327 . S
C888 H913 0.950 . S
C889 C888 1.349 . S
C889 C905 1.349 . S
C890 C888 1.327 . S
C890 C909 1.429 . S
C890 H914 0.950 . S
C891 C908 1.574 . S
C891 C910 1.368 1_545 S
C891 H915 0.949 . S
H892 C896 0.949 . S
C893 C894 1.349 . S
C893 C895 1.327 . S
C893 H916 0.950 . S
C894 C893 1.349 . S
C894 C906 1.349 . S
C895 C893 1.327 . S
C895 C911 1.429 . S
C895 H917 0.950 . S
C896 H892 0.949 . S
C896 C904 1.574 . S
C896 C912 1.368 1_565 S
H897 C905 0.950 1_545 S
H898 C903 0.950 1_545 S
H899 C904 0.949 . S
H900 C906 0.950 1_565 S
H901 C907 0.950 1_565 S
H902 C908 0.949 . S
C903 H898 0.950 1_565 S
C903 C905 1.327 . S
C903 C909 1.429 . S
C904 C896 1.574 . S
C904 H899 0.949 . S
C904 C910 1.368 . S
C905 C889 1.349 . S
C905 H897 0.950 1_565 S
C905 C903 1.327 . S
C906 C894 1.349 . S
C906 H900 0.950 1_545 S
C906 C907 1.327 . S
C907 H901 0.950 1_545 S
C907 C906 1.327 . S
C907 C911 1.429 . S
C908 C891 1.574 . S
C908 H902 0.949 . S
C908 C912 1.368 . S
C909 C890 1.429 . S
C909 C903 1.429 . S
C909 C910 1.523 . S
C910 C891 1.368 1_565 S
C910 C904 1.368 . S
C910 C909 1.523 . S
C911 C895 1.429 . S
C911 C907 1.429 . S
C911 C912 1.523 . S
C912 C896 1.368 1_545 S
C912 C908 1.368 . S
C912 C911 1.523 . S
H913 C888 0.950 . S
H914 C890 0.950 . S
H915 C891 0.949 . S
H916 C893 0.950 . S
H917 C895 0.950 . S
C918 C919 1.349 . S
C918 C920 1.327 . S
C918 H943 0.950 . S
C919 C918 1.349 . S
C919 C935 1.349 . S
C920 C918 1.327 . S
C920 C939 1.429 . S
C920 H944 0.950 . S
C921 C938 1.574 . S
C921 C940 1.368 . S
C921 H945 0.949 . S
H922 C926 0.949 . S
C923 C924 1.349 . S
C923 C925 1.327 . S
C923 H946 0.950 . S
C924 C923 1.349 . S
C924 C936 1.349 . S
C925 C923 1.327 . S
C925 C941 1.429 . S
C925 H947 0.950 . S
C926 H922 0.949 . S
C926 C934 1.574 . S
C926 C942 1.368 . S
H927 C935 0.950 . S
H928 C933 0.950 . S
H929 C934 0.949 . S
H930 C936 0.950 . S
H931 C937 0.950 . S
H932 C938 0.949 . S
C933 H928 0.950 . S
C933 C935 1.327 . S
C933 C939 1.429 . S
C934 C926 1.574 . S
C934 H929 0.949 . S
C934 C940 1.368 . S
C935 C919 1.349 . S
C935 H927 0.950 . S
C935 C933 1.327 . S
C936 C924 1.349 . S
C936 H930 0.950 . S
C936 C937 1.327 . S
C937 H931 0.950 . S
C937 C936 1.327 . S
C937 C941 1.429 . S
C938 C921 1.574 . S
C938 H932 0.949 . S
C938 C942 1.368 . S
C939 C920 1.429 . S
C939 C933 1.429 . S
C939 C940 1.523 . S
C940 C921 1.368 . S
C940 C934 1.368 . S
C940 C939 1.523 . S
C941 C925 1.429 . S
C941 C937 1.429 . S
C941 C942 1.523 . S
C942 C926 1.368 . S
C942 C938 1.368 . S
C942 C941 1.523 . S
H943 C918 0.950 . S
H944 C920 0.950 . S
H945 C921 0.949 . S
H946 C923 0.950 . S
H947 C925 0.950 . S
C948 C949 1.349 . S
C948 C950 1.327 . S
C948 H973 0.950 . S
C949 C948 1.349 . S
C949 C965 1.349 . S
C950 C948 1.327 . S
C950 C969 1.429 . S
C950 H974 0.950 . S
C951 C968 1.574 . S
C951 C970 1.368 . S
C951 H975 0.949 . S
H952 C956 0.949 . S
C953 C954 1.354 . S
C953 C955 1.327 . S
C953 H976 0.950 . S
C954 C953 1.354 . S
C954 C966 1.346 1_556 S
C955 C953 1.327 . S
C955 C971 1.429 . S
C955 H977 0.950 . S
C956 H952 0.949 . S
C956 C964 1.574 . S
C956 C972 1.368 . S
H957 C965 0.950 . S
H958 C963 0.950 . S
H959 C964 0.949 . S
H960 C966 0.950 . S
H961 C967 0.936 1_554 S
H962 C968 0.949 . S
C963 H958 0.950 . S
C963 C965 1.327 . S
C963 C969 1.429 . S
C964 C956 1.574 . S
C964 H959 0.949 . S
C964 C970 1.368 . S
C965 C949 1.349 . S
C965 H957 0.950 . S
C965 C963 1.327 . S
C966 C954 1.346 1_554 S
C966 H960 0.950 . S
C966 C967 1.313 1_554 S
C967 H961 0.936 1_556 S
C967 C966 1.313 1_556 S
C967 C971 1.457 . S
C968 C951 1.574 . S
C968 H962 0.949 . S
C968 C972 1.368 . S
C969 C950 1.429 . S
C969 C963 1.429 . S
C969 C970 1.523 . S
C970 C951 1.368 . S
C970 C964 1.368 . S
C970 C969 1.523 . S
C971 C955 1.429 . S
C971 C967 1.457 . S
C971 C972 1.523 . S
C972 C956 1.368 . S
C972 C968 1.368 . S
C972 C971 1.523 . S
H973 C948 0.950 . S
H974 C950 0.950 . S
H975 C951 0.949 . S
H976 C953 0.950 . S
H977 C955 0.950 . S
C978 C979 1.346 1_655 S
C978 C980 1.327 . S
C978 H1003 0.950 . S
C979 C978 1.346 1_455 S
C979 C995 1.341 1_455 S
C980 C978 1.327 . S
C980 C999 1.429 . S
C980 H1004 0.950 . S
C981 C998 1.574 . S
C981 C1000 1.368 . S
C981 H1005 0.949 . S
H982 C986 0.949 . S
C983 C984 1.349 . S
C983 C985 1.327 . S
C983 H1006 0.950 . S
C984 C983 1.349 . S
C984 C996 1.349 . S
C985 C983 1.327 . S
C985 C1001 1.429 . S
C985 H1007 0.950 . S
C986 H982 0.949 . S
C986 C994 1.574 . S
C986 C1002 1.368 . S
H987 C995 0.950 1_455 S
H988 C993 0.950 . S
H989 C994 0.949 . S
H990 C996 0.950 . S
H991 C997 0.950 . S
H992 C998 0.949 . S
C993 H988 0.950 . S
C993 C995 1.327 . S
C993 C999 1.429 . S
C994 C986 1.574 . S
C994 H989 0.949 . S
C994 C1000 1.368 . S
C995 C979 1.341 1_655 S
C995 H987 0.950 1_655 S
C995 C993 1.327 . S
C996 C984 1.349 . S
C996 H990 0.950 . S
C996 C997 1.327 . S
C997 H991 0.950 . S
C997 C996 1.327 . S
C997 C1001 1.429 . S
C998 C981 1.574 . S
C998 H992 0.949 . S
C998 C1002 1.368 . S
C999 C980 1.429 . S
C999 C993 1.429 . S
C999 C1000 1.523 . S
C1000 C981 1.368 . S
C1000 C994 1.368 . S
C1000 C999 1.523 . S
C1001 C985 1.429 . S
C1001 C997 1.429 . S
C1001 C1002 1.523 . S
C1002 C986 1.368 . S
C1002 C998 1.368 . S
C1002 C1001 1.523 . S
H1003 C978 0.950 . S
H1004 C980 0.950 . S
H1005 C981 0.949 . S
H1006 C983 0.950 . S
H1007 C985 0.950 . S
C1008 C1009 1.349 . S
C1008 C1010 1.327 . S
C1008 H1033 0.950 . S
C1009 C1008 1.349 . S
C1009 C1025 1.349 . S
C1010 C1008 1.327 . S
C1010 C1029 1.429 . S
C1010 H1034 0.950 . S
C1011 C1028 1.574 . S
C1011 C1030 1.368 . S
C1011 H1035 0.949 . S
H1012 C1016 0.949 . S
C1013 C1014 1.346 1_565 S
C1013 C1015 1.327 . S
C1013 H1036 0.950 1_565 S
C1014 C1013 1.346 1_545 S
C1014 C1026 1.336 1_545 S
C1015 C1013 1.327 . S
C1015 C1031 1.429 . S
C1015 H1037 0.950 . S
C1016 H1012 0.949 . S
C1016 C1024 1.574 . S
C1016 C1032 1.368 . S
H1017 C1025 0.950 . S
H1018 C1023 0.950 . S
H1019 C1024 0.949 . S
H1020 C1026 0.950 . S
H1021 C1027 0.950 . S
H1022 C1028 0.949 . S
C1023 H1018 0.950 . S
C1023 C1025 1.327 . S
C1023 C1029 1.429 . S
C1024 C1016 1.574 . S
C1024 H1019 0.949 . S
C1024 C1030 1.368 . S
C1025 C1009 1.349 . S
C1025 H1017 0.950 . S
C1025 C1023 1.327 . S
C1026 C1014 1.336 1_565 S
C1026 H1020 0.950 . S
C1026 C1027 1.327 . S
C1027 H1021 0.950 . S
C1027 C1026 1.327 . S
C1027 C1031 1.429 . S
C1028 C1011 1.574 . S
C1028 H1022 0.949 . S
C1028 C1032 1.368 . S
C1029 C1010 1.429 . S
C1029 C1023 1.429 . S
C1029 C1030 1.523 . S
C1030 C1011 1.368 . S
C1030 C1024 1.368 . S
C1030 C1029 1.523 . S
C1031 C1015 1.429 . S
C1031 C1027 1.429 . S
C1031 C1032 1.523 . S
C1032 C1016 1.368 . S
C1032 C1028 1.368 . S
C1032 C1031 1.523 . S
H1033 C1008 0.950 . S
H1034 C1010 0.950 . S
H1035 C1011 0.949 . S
H1036 C1013 0.950 1_545 S
H1037 C1015 0.950 . S
C1038 C1039 1.349 . S
C1038 C1040 1.327 . S
C1038 H1063 0.950 . S
C1039 C1038 1.349 . S
C1039 C1055 1.349 . S
C1040 C1038 1.327 . S
C1040 C1059 1.429 . S
C1040 H1064 0.950 . S
C1041 C1058 1.574 . S
C1041 C1060 1.368 . S
C1041 H1065 0.949 . S
H1042 C1046 0.949 . S
C1043 C1044 1.349 . S
C1043 C1045 1.327 . S
C1043 H1066 0.950 . S
C1044 C1043 1.349 . S
C1044 C1056 1.349 . S
C1045 C1043 1.327 . S
C1045 C1061 1.429 . S
C1045 H1067 0.950 . S
C1046 H1042 0.949 . S
C1046 C1054 1.574 . S
C1046 C1062 1.368 . S
H1047 C1055 0.950 . S
H1048 C1053 0.950 . S
H1049 C1054 0.949 . S
H1050 C1056 0.950 . S
H1051 C1057 0.950 . S
H1052 C1058 0.949 . S
C1053 H1048 0.950 . S
C1053 C1055 1.327 . S
C1053 C1059 1.429 . S
C1054 C1046 1.574 . S
C1054 H1049 0.949 . S
C1054 C1060 1.368 . S
C1055 C1039 1.349 . S
C1055 H1047 0.950 . S
C1055 C1053 1.327 . S
C1056 C1044 1.349 . S
C1056 H1050 0.950 . S
C1056 C1057 1.327 . S
C1057 H1051 0.950 . S
C1057 C1056 1.327 . S
C1057 C1061 1.429 . S
C1058 C1041 1.574 . S
C1058 H1052 0.949 . S
C1058 C1062 1.368 . S
C1059 C1040 1.429 . S
C1059 C1053 1.429 . S
C1059 C1060 1.523 . S
C1060 C1041 1.368 . S
C1060 C1054 1.368 . S
C1060 C1059 1.523 . S
C1061 C1045 1.429 . S
C1061 C1057 1.429 . S
C1061 C1062 1.523 . S
C1062 C1046 1.368 . S
C1062 C1058 1.368 . S
C1062 C1061 1.523 . S
H1063 C1038 0.950 . S
H1064 C1040 0.950 . S
H1065 C1041 0.949 . S
H1066 C1043 0.950 . S
H1067 C1045 0.950 . S
C1068 C1069 1.349 . S
C1068 C1070 1.327 . S
C1068 H1093 0.950 . S
C1069 C1068 1.349 . S
C1069 C1085 1.349 . S
C1070 C1068 1.327 . S
C1070 C1089 1.429 . S
C1070 H1094 0.950 . S
C1071 C1088 1.574 . S
C1071 C1090 1.368 . S
C1071 H1095 0.949 . S
H1072 C1076 0.949 . S
C1073 C1074 1.334 1_455 S
C1073 C1075 1.327 . S
C1073 H1096 0.950 . S
C1074 C1073 1.334 1_655 S
C1074 C1086 1.361 1_655 S
C1075 C1073 1.327 . S
C1075 C1091 1.429 . S
C1075 H1097 0.950 . S
C1076 H1072 0.949 . S
C1076 C1084 1.574 . S
C1076 C1092 1.368 . S
H1077 C1085 0.950 . S
H1078 C1083 0.950 . S
H1079 C1084 0.949 . S
H1080 C1086 0.922 1_655 S
H1081 C1087 0.950 . S
H1082 C1088 0.949 . S
C1083 H1078 0.950 . S
C1083 C1085 1.327 . S
C1083 C1089 1.429 . S
C1084 C1076 1.574 . S
C1084 H1079 0.949 . S
C1084 C1090 1.368 . S
C1085 C1069 1.349 . S
C1085 H1077 0.950 . S
C1085 C1083 1.327 . S
C1086 C1074 1.361 1_455 S
C1086 H1080 0.922 1_455 S
C1086 C1087 1.348 . S
C1087 H1081 0.950 . S
C1087 C1086 1.348 . S
C1087 C1091 1.429 . S
C1088 C1071 1.574 . S
C1088 H1082 0.949 . S
C1088 C1092 1.368 . S
C1089 C1070 1.429 . S
C1089 C1083 1.429 . S
C1089 C1090 1.523 . S
C1090 C1071 1.368 . S
C1090 C1084 1.368 . S
C1090 C1089 1.523 . S
C1091 C1075 1.429 . S
C1091 C1087 1.429 . S
C1091 C1092 1.523 . S
C1092 C1076 1.368 . S
C1092 C1088 1.368 . S
C1092 C1091 1.523 . S
H1093 C1068 0.950 . S
H1094 C1070 0.950 . S
H1095 C1071 0.949 . S
H1096 C1073 0.950 . S
H1097 C1075 0.950 . S
C1098 C1099 1.349 . S
C1098 C1100 1.327 . S
C1098 H1123 0.950 . S
C1099 C1098 1.349 . S
C1099 C1115 1.349 . S
C1100 C1098 1.327 . S
C1100 C1119 1.429 . S
C1100 H1124 0.950 . S
C1101 C1118 1.574 . S
C1101 C1120 1.368 . S
C1101 H1125 0.949 . S
H1102 C1106 0.949 . S
C1103 C1104 1.333 1_545 S
C1103 C1105 1.356 . S
C1103 H1126 0.932 1_545 S
C1104 C1103 1.333 1_565 S
C1104 C1116 1.339 1_565 S
C1105 C1103 1.356 . S
C1105 C1121 1.429 . S
C1105 H1127 0.950 . S
C1106 H1102 0.949 . S
C1106 C1114 1.574 . S
C1106 C1122 1.368 . S
H1107 C1115 0.950 . S
H1108 C1113 0.950 . S
H1109 C1114 0.949 . S
H1110 C1116 0.950 . S
H1111 C1117 0.950 . S
H1112 C1118 0.949 . S
C1113 H1108 0.950 . S
C1113 C1115 1.327 . S
C1113 C1119 1.429 . S
C1114 C1106 1.574 . S
C1114 H1109 0.949 . S
C1114 C1120 1.368 . S
C1115 C1099 1.349 . S
C1115 H1107 0.950 . S
C1115 C1113 1.327 . S
C1116 C1104 1.339 1_545 S
C1116 H1110 0.950 . S
C1116 C1117 1.327 . S
C1117 H1111 0.950 . S
C1117 C1116 1.327 . S
C1117 C1121 1.429 . S
C1118 C1101 1.574 . S
C1118 H1112 0.949 . S
C1118 C1122 1.368 . S
C1119 C1100 1.429 . S
C1119 C1113 1.429 . S
C1119 C1120 1.523 . S
C1120 C1101 1.368 . S
C1120 C1114 1.368 . S
C1120 C1119 1.523 . S
C1121 C1105 1.429 . S
C1121 C1117 1.429 . S
C1121 C1122 1.523 . S
C1122 C1106 1.368 . S
C1122 C1118 1.368 . S
C1122 C1121 1.523 . S
H1123 C1098 0.950 . S
H1124 C1100 0.950 . S
H1125 C1101 0.949 . S
H1126 C1103 0.932 1_565 S
H1127 C1105 0.950 . S
C1128 C1129 1.349 . S
C1128 C1130 1.327 . S
C1128 H1153 0.950 . S
C1129 C1128 1.349 . S
C1129 C1145 1.349 . S
C1130 C1128 1.327 . S
C1130 C1149 1.429 . S
C1130 H1154 0.950 . S
C1131 C1148 1.574 . S
C1131 C1150 1.368 . S
C1131 H1155 0.949 . S
H1132 C1136 0.949 . S
C1133 C1134 1.349 . S
C1133 C1135 1.327 . S
C1133 H1156 0.950 . S
C1134 C1133 1.349 . S
C1134 C1146 1.349 . S
C1135 C1133 1.327 . S
C1135 C1151 1.429 . S
C1135 H1157 0.950 . S
C1136 H1132 0.949 . S
C1136 C1144 1.574 . S
C1136 C1152 1.368 . S
H1137 C1145 0.950 . S
H1138 C1143 0.950 . S
H1139 C1144 0.949 . S
H1140 C1146 0.950 . S
H1141 C1147 0.950 . S
H1142 C1148 0.949 . S
C1143 H1138 0.950 . S
C1143 C1145 1.327 . S
C1143 C1149 1.429 . S
C1144 C1136 1.574 . S
C1144 H1139 0.949 . S
C1144 C1150 1.368 . S
C1145 C1129 1.349 . S
C1145 H1137 0.950 . S
C1145 C1143 1.327 . S
C1146 C1134 1.349 . S
C1146 H1140 0.950 . S
C1146 C1147 1.327 . S
C1147 H1141 0.950 . S
C1147 C1146 1.327 . S
C1147 C1151 1.429 . S
C1148 C1131 1.574 . S
C1148 H1142 0.949 . S
C1148 C1152 1.368 . S
C1149 C1130 1.429 . S
C1149 C1143 1.429 . S
C1149 C1150 1.523 . S
C1150 C1131 1.368 . S
C1150 C1144 1.368 . S
C1150 C1149 1.523 . S
C1151 C1135 1.429 . S
C1151 C1147 1.429 . S
C1151 C1152 1.523 . S
C1152 C1136 1.368 . S
C1152 C1148 1.368 . S
C1152 C1151 1.523 . S
H1153 C1128 0.950 . S
H1154 C1130 0.950 . S
H1155 C1131 0.949 . S
H1156 C1133 0.950 . S
H1157 C1135 0.950 . S
C1158 C1159 1.354 . S
C1158 C1160 1.327 . S
C1158 H1183 0.950 . S
C1159 C1158 1.354 . S
C1159 C1175 1.347 1_554 S
C1160 C1158 1.327 . S
C1160 C1179 1.429 . S
C1160 H1184 0.950 . S
C1161 C1178 1.574 . S
C1161 C1180 1.368 . S
C1161 H1185 0.949 . S
H1162 C1166 0.949 . S
C1163 C1164 1.347 1_655 S
C1163 C1165 1.327 . S
C1163 H1186 0.950 . S
C1164 C1163 1.347 1_455 S
C1164 C1176 1.335 1_455 S
C1165 C1163 1.327 . S
C1165 C1181 1.429 . S
C1165 H1187 0.950 . S
C1166 H1162 0.949 . S
C1166 C1174 1.574 . S
C1166 C1182 1.368 . S
H1167 C1175 0.950 . S
H1168 C1173 0.950 1_556 S
H1169 C1174 0.949 . S
H1170 C1176 0.950 . S
H1171 C1177 0.950 . S
H1172 C1178 0.949 . S
C1173 H1168 0.950 1_554 S
C1173 C1175 1.327 1_554 S
C1173 C1179 1.429 . S
C1174 C1166 1.574 . S
C1174 H1169 0.949 . S
C1174 C1180 1.368 . S
C1175 C1159 1.347 1_556 S
C1175 H1167 0.950 . S
C1175 C1173 1.327 1_556 S
C1176 C1164 1.335 1_655 S
C1176 H1170 0.950 . S
C1176 C1177 1.327 . S
C1177 H1171 0.950 . S
C1177 C1176 1.327 . S
C1177 C1181 1.429 . S
C1178 C1161 1.574 . S
C1178 H1172 0.949 . S
C1178 C1182 1.368 . S
C1179 C1160 1.429 . S
C1179 C1173 1.429 . S
C1179 C1180 1.523 . S
C1180 C1161 1.368 . S
C1180 C1174 1.368 . S
C1180 C1179 1.523 . S
C1181 C1165 1.429 . S
C1181 C1177 1.429 . S
C1181 C1182 1.523 . S
C1182 C1166 1.368 . S
C1182 C1178 1.368 . S
C1182 C1181 1.523 . S
H1183 C1158 0.950 . S
H1184 C1160 0.950 . S
H1185 C1161 0.949 . S
H1186 C1163 0.950 . S
H1187 C1165 0.950 . S
C1188 C1189 1.349 . S
C1188 C1190 1.327 . S
C1188 H1213 0.950 . S
C1189 C1188 1.349 . S
C1189 C1205 1.349 . S
C1190 C1188 1.327 . S
C1190 C1209 1.429 . S
C1190 H1214 0.950 . S
C1191 C1208 1.574 . S
C1191 C1210 1.368 . S
C1191 H1215 0.949 . S
H1192 C1196 0.949 . S
C1193 C1194 1.332 1_565 S
C1193 C1195 1.327 . S
C1193 H1216 0.950 . S
C1194 C1193 1.332 1_545 S
C1194 C1206 1.355 1_545 S
C1195 C1193 1.327 . S
C1195 C1211 1.429 . S
C1195 H1217 0.950 . S
C1196 H1192 0.949 . S
C1196 C1204 1.574 . S
C1196 C1212 1.368 . S
H1197 C1205 0.950 . S
H1198 C1203 0.950 . S
H1199 C1204 0.949 . S
H1200 C1206 0.950 1_545 S
H1201 C1207 0.950 . S
H1202 C1208 0.949 . S
C1203 H1198 0.950 . S
C1203 C1205 1.327 . S
C1203 C1209 1.429 . S
C1204 C1196 1.574 . S
C1204 H1199 0.949 . S
C1204 C1210 1.368 . S
C1205 C1189 1.349 . S
C1205 H1197 0.950 . S
C1205 C1203 1.327 . S
C1206 C1194 1.355 1_565 S
C1206 H1200 0.950 1_565 S
C1206 C1207 1.327 . S
C1207 H1201 0.950 . S
C1207 C1206 1.327 . S
C1207 C1211 1.429 . S
C1208 C1191 1.574 . S
C1208 H1202 0.949 . S
C1208 C1212 1.368 . S
C1209 C1190 1.429 . S
C1209 C1203 1.429 . S
C1209 C1210 1.523 . S
C1210 C1191 1.368 . S
C1210 C1204 1.368 . S
C1210 C1209 1.523 . S
C1211 C1195 1.429 . S
C1211 C1207 1.429 . S
C1211 C1212 1.523 . S
C1212 C1196 1.368 . S
C1212 C1208 1.368 . S
C1212 C1211 1.523 . S
H1213 C1188 0.950 . S
H1214 C1190 0.950 . S
H1215 C1191 0.949 . S
H1216 C1193 0.950 . S
H1217 C1195 0.950 . S
C1218 C1219 1.349 . S
C1218 C1220 1.327 . S
C1218 H1243 0.950 . S
C1219 C1218 1.349 . S
C1219 C1235 1.349 . S
C1220 C1218 1.327 . S
C1220 C1239 1.429 . S
C1220 H1244 0.950 . S
C1221 C1238 1.574 . S
C1221 C1240 1.368 . S
C1221 H1245 0.949 . S
H1222 C1226 0.949 . S
C1223 C1224 1.349 . S
C1223 C1225 1.327 . S
C1223 H1246 0.950 . S
C1224 C1223 1.349 . S
C1224 C1236 1.349 . S
C1225 C1223 1.327 . S
C1225 C1241 1.429 . S
C1225 H1247 0.950 . S
C1226 H1222 0.949 . S
C1226 C1234 1.574 . S
C1226 C1242 1.368 . S
H1227 C1235 0.950 . S
H1228 C1233 0.950 . S
H1229 C1234 0.949 . S
H1230 C1236 0.950 . S
H1231 C1237 0.950 . S
H1232 C1238 0.949 . S
C1233 H1228 0.950 . S
C1233 C1235 1.327 . S
C1233 C1239 1.429 . S
C1234 C1226 1.574 . S
C1234 H1229 0.949 . S
C1234 C1240 1.368 . S
C1235 C1219 1.349 . S
C1235 H1227 0.950 . S
C1235 C1233 1.327 . S
C1236 C1224 1.349 . S
C1236 H1230 0.950 . S
C1236 C1237 1.327 . S
C1237 H1231 0.950 . S
C1237 C1236 1.327 . S
C1237 C1241 1.429 . S
C1238 C1221 1.574 . S
C1238 H1232 0.949 . S
C1238 C1242 1.368 . S
C1239 C1220 1.429 . S
C1239 C1233 1.429 . S
C1239 C1240 1.523 . S
C1240 C1221 1.368 . S
C1240 C1234 1.368 . S
C1240 C1239 1.523 . S
C1241 C1225 1.429 . S
C1241 C1237 1.429 . S
C1241 C1242 1.523 . S
C1242 C1226 1.368 . S
C1242 C1238 1.368 . S
C1242 C1241 1.523 . S
H1243 C1218 0.950 . S
H1244 C1220 0.950 . S
H1245 C1221 0.949 . S
H1246 C1223 0.950 . S
H1247 C1225 0.950 . S
C1248 C1249 1.346 1_455 S
C1248 C1250 1.327 . S
C1248 H1273 0.950 1_455 S
C1249 C1248 1.346 1_655 S
C1249 C1265 1.337 1_655 S
C1250 C1248 1.327 . S
C1250 C1269 1.429 . S
C1250 H1274 0.950 . S
C1251 C1268 1.574 . S
C1251 C1270 1.368 . S
C1251 H1275 0.949 . S
H1252 C1256 0.949 . S
C1253 C1254 1.349 . S
C1253 C1255 1.327 . S
C1253 H1276 0.950 . S
C1254 C1253 1.349 . S
C1254 C1266 1.349 . S
C1255 C1253 1.327 . S
C1255 C1271 1.429 . S
C1255 H1277 0.950 . S
C1256 H1252 0.949 . S
C1256 C1264 1.574 . S
C1256 C1272 1.368 . S
H1257 C1265 0.950 . S
H1258 C1263 0.950 . S
H1259 C1264 0.949 . S
H1260 C1266 0.950 . S
H1261 C1267 0.950 . S
H1262 C1268 0.949 . S
C1263 H1258 0.950 . S
C1263 C1265 1.327 . S
C1263 C1269 1.429 . S
C1264 C1256 1.574 . S
C1264 H1259 0.949 . S
C1264 C1270 1.368 . S
C1265 C1249 1.337 1_455 S
C1265 H1257 0.950 . S
C1265 C1263 1.327 . S
C1266 C1254 1.349 . S
C1266 H1260 0.950 . S
C1266 C1267 1.327 . S
C1267 H1261 0.950 . S
C1267 C1266 1.327 . S
C1267 C1271 1.429 . S
C1268 C1251 1.574 . S
C1268 H1262 0.949 . S
C1268 C1272 1.368 . S
C1269 C1250 1.429 . S
C1269 C1263 1.429 . S
C1269 C1270 1.523 . S
C1270 C1251 1.368 . S
C1270 C1264 1.368 . S
C1270 C1269 1.523 . S
C1271 C1255 1.429 . S
C1271 C1267 1.429 . S
C1271 C1272 1.523 . S
C1272 C1256 1.368 . S
C1272 C1268 1.368 . S
C1272 C1271 1.523 . S
H1273 C1248 0.950 1_655 S
H1274 C1250 0.950 . S
H1275 C1251 0.949 . S
H1276 C1253 0.950 . S
H1277 C1255 0.950 . S
C1278 C1279 1.349 . S
C1278 C1280 1.327 . S
C1278 H1303 0.950 . S
C1279 C1278 1.349 . S
C1279 C1295 1.349 . S
C1280 C1278 1.327 . S
C1280 C1299 1.429 . S
C1280 H1304 0.950 . S
C1281 C1298 1.574 . S
C1281 C1300 1.368 . S
C1281 H1305 0.949 . S
H1282 C1286 0.949 . S
C1283 C1284 1.333 1_545 S
C1283 C1285 1.327 . S
C1283 H1306 0.950 . S
C1284 C1283 1.333 1_565 S
C1284 C1296 1.363 1_565 S
C1285 C1283 1.327 . S
C1285 C1301 1.429 . S
C1285 H1307 0.950 . S
C1286 H1282 0.949 . S
C1286 C1294 1.574 . S
C1286 C1302 1.368 . S
H1287 C1295 0.950 . S
H1288 C1293 0.950 . S
H1289 C1294 0.949 . S
H1290 C1296 0.921 1_565 S
H1291 C1297 0.950 . S
H1292 C1298 0.949 . S
C1293 H1288 0.950 . S
C1293 C1295 1.327 . S
C1293 C1299 1.429 . S
C1294 C1286 1.574 . S
C1294 H1289 0.949 . S
C1294 C1300 1.368 . S
C1295 C1279 1.349 . S
C1295 H1287 0.950 . S
C1295 C1293 1.327 . S
C1296 C1284 1.363 1_545 S
C1296 H1290 0.921 1_545 S
C1296 C1297 1.347 . S
C1297 H1291 0.950 . S
C1297 C1296 1.347 . S
C1297 C1301 1.429 . S
C1298 C1281 1.574 . S
C1298 H1292 0.949 . S
C1298 C1302 1.368 . S
C1299 C1280 1.429 . S
C1299 C1293 1.429 . S
C1299 C1300 1.523 . S
C1300 C1281 1.368 . S
C1300 C1294 1.368 . S
C1300 C1299 1.523 . S
C1301 C1285 1.429 . S
C1301 C1297 1.429 . S
C1301 C1302 1.523 . S
C1302 C1286 1.368 . S
C1302 C1298 1.368 . S
C1302 C1301 1.523 . S
H1303 C1278 0.950 . S
H1304 C1280 0.950 . S
H1305 C1281 0.949 . S
H1306 C1283 0.950 . S
H1307 C1285 0.950 . S
C409 C349 0.864 . S
C414 C9 0.864 . S
C439 C43 0.864 . S
C444 C383 0.864 . S
C469 C77 0.864 . S
C474 C213 0.864 . S
C499 C111 0.864 . S
C504 C247 0.864 . S
C529 C145 0.864 . S
C534 C281 0.864 . S
C559 C179 0.864 . S
C564 C315 0.864 . S
C589 C33 1.232 . S
C594 C305 1.232 . S
C619 C339 1.232 . S
C624 C67 1.232 . S
C649 C101 1.232 . S
C654 C373 1.232 . S
C679 C135 1.232 . S
C684 C407 1.232 . S
C709 C169 1.232 . S
C714 C237 1.232 . S
C739 C203 1.232 . S
C744 C271 1.232 . S
C769 C379 1.611 . S
C774 C5 1.611 . S
C799 C209 1.611 . S
C804 C39 1.611 . S
C829 C243 1.611 . S
C834 C73 1.611 . S
C859 C107 1.611 . S
C864 C277 1.611 . S
C889 C141 1.611 . S
C894 C311 1.611 . S
C919 C345 1.611 . S
C924 C175 1.611 . S
C949 C172 2.054 . S
C954 C20 2.036 1_556 S
C979 C2 2.066 . S
C984 C54 2.039 . S
C1009 C88 2.039 . S
C1014 C36 2.069 . S
C1039 C70 2.054 . S
C1044 C122 2.039 . S
C1069 C156 2.039 . S
C1074 C104 2.066 . S
C1099 C190 2.039 . S
C1104 C138 2.069 . S
C1129 C240 2.054 . S
C1134 C224 2.039 . S
C1159 C258 2.036 1_554 S
C1164 C274 2.069 . S
C1189 C292 2.039 . S
C1194 C308 2.066 . S
C1219 C342 2.054 . S
C1224 C326 2.039 . S
C1249 C376 2.069 . S
C1254 C360 2.039 . S
C1279 C394 2.039 . S
C1284 C206 2.066 . S
