# Generated by pormake.
# Topology sod-g, (3)-cn, num edge types: 1
# Building blocks:
#     Node 0, Type 0, BuildingBlock: WUSLED_clean_sbu_0, # of connection points: 3
#     Node 1, Type 0, BuildingBlock: WUSLED_clean_sbu_0, # of connection points: 3
#     Node 2, Type 0, BuildingBlock: WUSLED_clean_sbu_0, # of connection points: 3
#     Node 3, Type 0, BuildingBlock: WUSLED_clean_sbu_0, # of connection points: 3
#     Node 4, Type 0, BuildingBlock: WUSLED_clean_sbu_0, # of connection points: 3
#     Node 5, Type 0, BuildingBlock: WUSLED_clean_sbu_0, # of connection points: 3
#     Node 6, Type 0, BuildingBlock: WUSLED_clean_sbu_0, # of connection points: 3
#     Node 7, Type 0, BuildingBlock: WUSLED_clean_sbu_0, # of connection points: 3
#     Node 8, Type 0, BuildingBlock: WUSLED_clean_sbu_0, # of connection points: 3
#     Node 9, Type 0, BuildingBlock: WUSLED_clean_sbu_0, # of connection points: 3
#     Node 10, Type 0, BuildingBlock: WUSLED_clean_sbu_0, # of connection points: 3
#     Node 11, Type 0, BuildingBlock: WUSLED_clean_sbu_0, # of connection points: 3
#     Node 12, Type 0, BuildingBlock: WUSLED_clean_sbu_0, # of connection points: 3
#     Node 13, Type 0, BuildingBlock: WUSLED_clean_sbu_0, # of connection points: 3
#     Node 14, Type 0, BuildingBlock: WUSLED_clean_sbu_0, # of connection points: 3
#     Node 15, Type 0, BuildingBlock: WUSLED_clean_sbu_0, # of connection points: 3
#     Node 16, Type 0, BuildingBlock: WUSLED_clean_sbu_0, # of connection points: 3
#     Node 17, Type 0, BuildingBlock: WUSLED_clean_sbu_0, # of connection points: 3
#     Node 18, Type 0, BuildingBlock: WUSLED_clean_sbu_0, # of connection points: 3
#     Node 19, Type 0, BuildingBlock: WUSLED_clean_sbu_0, # of connection points: 3
#     Node 20, Type 0, BuildingBlock: WUSLED_clean_sbu_0, # of connection points: 3
#     Node 21, Type 0, BuildingBlock: WUSLED_clean_sbu_0, # of connection points: 3
#     Node 22, Type 0, BuildingBlock: WUSLED_clean_sbu_0, # of connection points: 3
#     Node 23, Type 0, BuildingBlock: WUSLED_clean_sbu_0, # of connection points: 3
#     Node 24, Type 0, BuildingBlock: WUSLED_clean_sbu_0, # of connection points: 3
#     Node 25, Type 0, BuildingBlock: WUSLED_clean_sbu_0, # of connection points: 3
#     Node 26, Type 0, BuildingBlock: WUSLED_clean_sbu_0, # of connection points: 3
#     Node 27, Type 0, BuildingBlock: WUSLED_clean_sbu_0, # of connection points: 3
#     Node 28, Type 0, BuildingBlock: WUSLED_clean_sbu_0, # of connection points: 3
#     Node 29, Type 0, BuildingBlock: WUSLED_clean_sbu_0, # of connection points: 3
#     Node 30, Type 0, BuildingBlock: WUSLED_clean_sbu_0, # of connection points: 3
#     Node 31, Type 0, BuildingBlock: WUSLED_clean_sbu_0, # of connection points: 3
#     Node 32, Type 0, BuildingBlock: WUSLED_clean_sbu_0, # of connection points: 3
#     Node 33, Type 0, BuildingBlock: WUSLED_clean_sbu_0, # of connection points: 3
#     Node 34, Type 0, BuildingBlock: WUSLED_clean_sbu_0, # of connection points: 3
#     Node 35, Type 0, BuildingBlock: WUSLED_clean_sbu_0, # of connection points: 3
#     Node 36, Type 0, BuildingBlock: WUSLED_clean_sbu_0, # of connection points: 3
#     Node 37, Type 0, BuildingBlock: WUSLED_clean_sbu_0, # of connection points: 3
#     Node 38, Type 0, BuildingBlock: WUSLED_clean_sbu_0, # of connection points: 3
#     Node 39, Type 0, BuildingBlock: WUSLED_clean_sbu_0, # of connection points: 3
#     Node 40, Type 0, BuildingBlock: WUSLED_clean_sbu_0, # of connection points: 3
#     Node 41, Type 0, BuildingBlock: WUSLED_clean_sbu_0, # of connection points: 3
#     Node 42, Type 0, BuildingBlock: WUSLED_clean_sbu_0, # of connection points: 3
#     Node 43, Type 0, BuildingBlock: WUSLED_clean_sbu_0, # of connection points: 3
#     Node 44, Type 0, BuildingBlock: WUSLED_clean_sbu_0, # of connection points: 3
#     Node 45, Type 0, BuildingBlock: WUSLED_clean_sbu_0, # of connection points: 3
#     Node 46, Type 0, BuildingBlock: WUSLED_clean_sbu_0, # of connection points: 3
#     Node 47, Type 0, BuildingBlock: WUSLED_clean_sbu_0, # of connection points: 3
#     Edge 48, Type (0, 0), None
#     Edge 49, Type (0, 0), None
#     Edge 50, Type (0, 0), None
#     Edge 51, Type (0, 0), None
#     Edge 52, Type (0, 0), None
#     Edge 53, Type (0, 0), None
#     Edge 54, Type (0, 0), None
#     Edge 55, Type (0, 0), None
#     Edge 56, Type (0, 0), None
#     Edge 57, Type (0, 0), None
#     Edge 58, Type (0, 0), None
#     Edge 59, Type (0, 0), None
#     Edge 60, Type (0, 0), None
#     Edge 61, Type (0, 0), None
#     Edge 62, Type (0, 0), None
#     Edge 63, Type (0, 0), None
#     Edge 64, Type (0, 0), None
#     Edge 65, Type (0, 0), None
#     Edge 66, Type (0, 0), None
#     Edge 67, Type (0, 0), None
#     Edge 68, Type (0, 0), None
#     Edge 69, Type (0, 0), None
#     Edge 70, Type (0, 0), None
#     Edge 71, Type (0, 0), None
#     Edge 72, Type (0, 0), None
#     Edge 73, Type (0, 0), None
#     Edge 74, Type (0, 0), None
#     Edge 75, Type (0, 0), None
#     Edge 76, Type (0, 0), None
#     Edge 77, Type (0, 0), None
#     Edge 78, Type (0, 0), None
#     Edge 79, Type (0, 0), None
#     Edge 80, Type (0, 0), None
#     Edge 81, Type (0, 0), None
#     Edge 82, Type (0, 0), None
#     Edge 83, Type (0, 0), None
#     Edge 84, Type (0, 0), None
#     Edge 85, Type (0, 0), None
#     Edge 86, Type (0, 0), None
#     Edge 87, Type (0, 0), None
#     Edge 88, Type (0, 0), None
#     Edge 89, Type (0, 0), None
#     Edge 90, Type (0, 0), None
#     Edge 91, Type (0, 0), None
#     Edge 92, Type (0, 0), None
#     Edge 93, Type (0, 0), None
#     Edge 94, Type (0, 0), None
#     Edge 95, Type (0, 0), None
#     Edge 96, Type (0, 0), None
#     Edge 97, Type (0, 0), None
#     Edge 98, Type (0, 0), None
#     Edge 99, Type (0, 0), None
#     Edge 100, Type (0, 0), None
#     Edge 101, Type (0, 0), None
#     Edge 102, Type (0, 0), None
#     Edge 103, Type (0, 0), None
#     Edge 104, Type (0, 0), None
#     Edge 105, Type (0, 0), None
#     Edge 106, Type (0, 0), None
#     Edge 107, Type (0, 0), None
#     Edge 108, Type (0, 0), None
#     Edge 109, Type (0, 0), None
#     Edge 110, Type (0, 0), None
#     Edge 111, Type (0, 0), None
#     Edge 112, Type (0, 0), None
#     Edge 113, Type (0, 0), None
#     Edge 114, Type (0, 0), None
#     Edge 115, Type (0, 0), None
#     Edge 116, Type (0, 0), None
#     Edge 117, Type (0, 0), None
#     Edge 118, Type (0, 0), None
#     Edge 119, Type (0, 0), None
# Relax obj value: 0.188
# Max RMSD: 0.123
# Mean RMSD: 0.123
data_MOF--net-sod-g--node1-WUSLED_clean_sbu_0--edge1-none
_symmetry_space_group_name_H-M    P1
_symmetry_Int_Tables_number       1
_symmetry_cell_setting            triclinic
loop_
_symmetry_equiv_pos_as_xyz
'x, y, z'
_cell_length_a     91.995281
_cell_length_b     92.007334
_cell_length_c     91.994937
_cell_angle_alpha  90.034961
_cell_angle_beta   89.965724
_cell_angle_gamma 90.035546
loop_
_atom_site_label
_atom_site_type_symbol
_atom_site_fract_x
_atom_site_fract_y
_atom_site_fract_z
_atom_type_partial_charge
C0 C 0.08466 0.45543 0.22227 0.0
C1 C 0.07017 0.45839 0.22612 0.0
C2 C 0.07228 0.44287 0.24753 0.0
C3 C 0.06406 0.4522 0.23861 0.0
C4 C 0.08675 0.43981 0.24349 0.0
C5 C 0.09286 0.44604 0.23099 0.0
U6 U 0.07883 0.47693 0.18825 0.0
O7 O 0.09017 0.49567 0.1785 0.0
O8 O 0.08718 0.47548 0.1658 0.0
C9 C 0.09184 0.489 0.16596 0.0
C10 C 0.09117 0.46219 0.20922 0.0
C11 C 0.10391 0.49326 0.15633 0.0
C12 C 0.12949 0.49581 0.14986 0.0
C13 C 0.11867 0.49139 0.15979 0.0
C14 C 0.1108 0.50415 0.13333 0.0
C15 C 0.12564 0.50209 0.13641 0.0
C16 C 0.10014 0.49972 0.14311 0.0
C17 C 0.03763 0.48606 0.1838 0.0
C18 C 0.02468 0.50691 0.17423 0.0
C19 C 0.01134 0.48577 0.18258 0.0
C20 C 0.0244 0.47882 0.18573 0.0
C21 C 0.01129 0.50012 0.17733 0.0
C22 C 0.03779 0.49995 0.17753 0.0
C23 C 0.05058 0.47963 0.19049 0.0
O24 O 0.08743 0.45626 0.19676 0.0
O25 O 0.0907 0.47647 0.20898 0.0
O26 O 0.05984 0.48868 0.19653 0.0
O27 O 0.05677 0.46878 0.18359 0.0
H28 H 0.06359 0.46553 0.21947 0.0
H29 H 0.05283 0.45462 0.2412 0.0
H30 H 0.09346 0.4328 0.25013 0.0
H31 H 0.10403 0.4436 0.22819 0.0
H32 H 0.14081 0.49402 0.15256 0.0
H33 H 0.12179 0.48647 0.17001 0.0
H34 H 0.10737 0.50924 0.12329 0.0
H35 H 0.08882 0.50139 0.14031 0.0
H36 H 0.02502 0.51786 0.16995 0.0
H37 H 1.00132 0.48023 0.18532 0.0
H38 H 0.02411 0.4681 0.19061 0.0
H39 H 0.04794 0.5057 0.17589 0.0
C40 C 0.55332 0.08446 0.22249 0.0
C41 C 0.55038 0.06997 0.22633 0.0
C42 C 0.56589 0.07214 0.24774 0.0
C43 C 0.55658 0.06388 0.23882 0.0
C44 C 0.56893 0.08661 0.24371 0.0
C45 C 0.56269 0.09269 0.23121 0.0
U46 U 0.53182 0.07848 0.18851 0.0
O47 O 0.51298 0.08966 0.1788 0.0
O48 O 0.53315 0.0868 0.16606 0.0
C49 C 0.51961 0.09137 0.16625 0.0
C50 C 0.54654 0.09094 0.20945 0.0
C51 C 0.5153 0.10347 0.15669 0.0
C52 C 0.51311 0.12906 0.15017 0.0
C53 C 0.51753 0.11821 0.16004 0.0
C54 C 0.50405 0.11044 0.1339 0.0
C55 C 0.50646 0.12525 0.13687 0.0
C56 C 0.50848 0.09975 0.14363 0.0
C57 C 0.52278 0.03731 0.18406 0.0
C58 C 0.50191 0.02445 0.17436 0.0
C59 C 0.52297 0.01104 0.18275 0.0
C60 C 0.52996 0.02406 0.18597 0.0
C61 C 0.50864 0.01104 0.17744 0.0
C62 C 0.50892 0.03753 0.17772 0.0
C63 C 0.52923 0.05023 0.19078 0.0
O64 O 0.55247 0.08721 0.19698 0.0
O65 O 0.53225 0.09042 0.20922 0.0
O66 O 0.52019 0.05946 0.19687 0.0
O67 O 0.54005 0.05647 0.18386 0.0
H68 H 0.54325 0.06336 0.21967 0.0
H69 H 0.55417 0.05265 0.24141 0.0
H70 H 0.57593 0.09334 0.25036 0.0
H71 H 0.56511 0.10387 0.22842 0.0
H72 H 0.51517 0.14035 0.15277 0.0
H73 H 0.52274 0.12129 0.17014 0.0
H74 H 0.49869 0.10705 0.12398 0.0
H75 H 0.50654 0.08845 0.14091 0.0
H76 H 0.49098 0.02484 0.17003 0.0
H77 H 0.52845 1.00099 0.18547 0.0
H78 H 0.54066 0.02373 0.1909 0.0
H79 H 0.50322 0.0477 0.17609 0.0
C80 C 0.92407 0.55313 0.22235 0.0
C81 C 0.93856 0.55018 0.22618 0.0
C82 C 0.93642 0.56571 0.2476 0.0
C83 C 0.94466 0.55638 0.23867 0.0
C84 C 0.92196 0.56876 0.24357 0.0
C85 C 0.91586 0.56253 0.23107 0.0
U86 U 0.92996 0.53163 0.18834 0.0
O87 O 0.91871 0.51281 0.17863 0.0
O88 O 0.92159 0.53298 0.16591 0.0
C89 C 0.91699 0.51945 0.16609 0.0
C90 C 0.91757 0.54635 0.20932 0.0
C91 C 0.90486 0.51517 0.15656 0.0
C92 C 0.87925 0.5129 0.15013 0.0
C93 C 0.89013 0.51733 0.15998 0.0
C94 C 0.89781 0.50395 0.13375 0.0
C95 C 0.88301 0.5063 0.1368 0.0
C96 C 0.90854 0.50839 0.14345 0.0
C97 C 0.97116 0.52259 0.18387 0.0
C98 C 0.98411 0.50173 0.17427 0.0
C99 C 0.99745 0.52288 0.18261 0.0
C100 C 0.98439 0.52983 0.18578 0.0
C101 C 0.9975 0.50852 0.17735 0.0
C102 C 0.971 0.50869 0.17759 0.0
C103 C 0.95822 0.52902 0.19057 0.0
O104 O 0.92129 0.55228 0.19685 0.0
O105 O 0.91807 0.53207 0.20907 0.0
O106 O 0.94898 0.51998 0.19664 0.0
O107 O 0.952 0.53984 0.18366 0.0
H108 H 0.94515 0.54304 0.21952 0.0
H109 H 0.95589 0.55397 0.24126 0.0
H110 H 0.91524 0.57577 0.25023 0.0
H111 H 0.90469 0.56495 0.22829 0.0
H112 H 0.86796 0.51492 0.1528 0.0
H113 H 0.88708 0.5225 0.17011 0.0
H114 H 0.90118 0.49862 0.12381 0.0
H115 H 0.91983 0.5065 0.14068 0.0
H116 H 0.98376 0.49077 0.16998 0.0
H117 H 0.00747 0.52841 0.18533 0.0
H118 H 0.98469 0.54055 0.19067 0.0
H119 H 0.96085 0.50295 0.17596 0.0
C120 C 0.45543 0.92396 0.22238 0.0
C121 C 0.45839 0.93846 0.22621 0.0
C122 C 0.44286 0.93634 0.24763 0.0
C123 C 0.4522 0.94457 0.2387 0.0
C124 C 0.4398 0.92188 0.24361 0.0
C125 C 0.44603 0.91576 0.23111 0.0
U126 U 0.47693 0.92983 0.18838 0.0
O127 O 0.49575 0.91859 0.17868 0.0
O128 O 0.47559 0.92143 0.16594 0.0
C129 C 0.48912 0.91685 0.16614 0.0
C130 C 0.4622 0.91744 0.20935 0.0
C131 C 0.49342 0.90473 0.15659 0.0
C132 C 0.49571 0.87913 0.15015 0.0
C133 C 0.49126 0.89 0.16 0.0
C134 C 0.50466 0.8977 0.13379 0.0
C135 C 0.50232 0.8829 0.13682 0.0
C136 C 0.5002 0.90842 0.1435 0.0
C137 C 0.48601 0.971 0.18389 0.0
C138 C 0.50691 0.98389 0.1743 0.0
C139 C 0.48581 0.99728 0.18265 0.0
C140 C 0.47881 0.98424 0.18581 0.0
C141 C 0.50017 0.99729 0.1774 0.0
C142 C 0.49991 0.9708 0.1776 0.0
C143 C 0.47955 0.95808 0.1906 0.0
O144 O 0.45627 0.92115 0.19688 0.0
O145 O 0.47648 0.91795 0.20911 0.0
O146 O 0.48859 0.94886 0.19669 0.0
O147 O 0.46874 0.95184 0.18368 0.0
H148 H 0.46554 0.94504 0.21955 0.0
H149 H 0.45461 0.95581 0.24128 0.0
H150 H 0.43279 0.91517 0.25027 0.0
H151 H 0.4436 0.90458 0.22833 0.0
H152 H 0.49369 0.86784 0.1528 0.0
H153 H 0.48608 0.88694 0.17012 0.0
H154 H 0.51001 0.90108 0.12386 0.0
H155 H 0.5021 0.91972 0.14074 0.0
H156 H 0.51787 0.98352 0.17001 0.0
H157 H 0.48032 0.00731 0.18539 0.0
H158 H 0.46809 0.98456 0.1907 0.0
H159 H 0.50561 0.96064 0.17596 0.0
C160 C 0.08087 0.55674 0.78568 0.0
C161 C 0.06657 0.55313 0.78172 0.0
C162 C 0.06841 0.56861 0.76025 0.0
C163 C 0.0604 0.55901 0.76911 0.0
C164 C 0.08266 0.57229 0.76443 0.0
C165 C 0.08881 0.56641 0.77702 0.0
U166 U 0.07883 0.53474 0.82069 0.0
O167 O 0.09356 0.51742 0.82845 0.0
O168 O 0.09016 0.53745 0.8417 0.0
C169 C 0.09668 0.52481 0.84028 0.0
C170 C 0.08786 0.5502 0.7985 0.0
C171 C 0.10672 0.51921 0.85134 0.0
C172 C 0.13137 0.51418 0.85917 0.0
C173 C 0.12172 0.51983 0.84892 0.0
C174 C 0.1111 0.50719 0.87447 0.0
C175 C 0.12622 0.50757 0.87199 0.0
C176 C 0.10144 0.51302 0.86423 0.0
C177 C 0.03837 0.52243 0.82863 0.0
C178 C 0.02565 0.50056 0.83607 0.0
C179 C 0.0121 0.52246 0.83059 0.0
C180 C 0.02508 0.52979 0.82799 0.0
C181 C 0.01217 0.50758 0.83406 0.0
C182 C 0.03867 0.5079 0.83324 0.0
C183 C 0.0509 0.52942 0.82169 0.0
O184 O 0.08442 0.55597 0.81112 0.0
O185 O 0.08804 0.53593 0.79871 0.0
O186 O 0.06025 0.52102 0.8149 0.0
O187 O 0.0568 0.54074 0.82812 0.0
H188 H 0.06024 0.5457 0.78832 0.0
H189 H 0.04933 0.5561 0.76634 0.0
H190 H 0.08922 0.57948 0.75781 0.0
H191 H 0.09986 0.56927 0.77989 0.0
H192 H 0.14291 0.51504 0.85701 0.0
H193 H 0.12598 0.52469 0.83907 0.0
H194 H 0.10671 0.5021 0.88413 0.0
H195 H 0.08984 0.51246 0.86625 0.0
H196 H 0.02612 0.48919 0.83905 0.0
H197 H 1.00203 0.52824 0.82871 0.0
H198 H 0.02465 0.54098 0.82432 0.0
H199 H 0.04885 0.50201 0.83382 0.0
C200 C 0.45546 0.08454 0.7863 0.0
C201 C 0.45841 0.07005 0.78245 0.0
C202 C 0.44288 0.07217 0.76105 0.0
C203 C 0.45221 0.06394 0.76996 0.0
C204 C 0.43982 0.08663 0.76509 0.0
C205 C 0.44606 0.09274 0.77759 0.0
U206 U 0.47695 0.07868 0.8203 0.0
O207 O 0.49579 0.08993 0.82998 0.0
O208 O 0.4756 0.08711 0.84272 0.0
C209 C 0.48915 0.09168 0.84252 0.0
C210 C 0.46224 0.09105 0.79933 0.0
C211 C 0.49347 0.1038 0.85206 0.0
C212 C 0.49562 0.12939 0.85859 0.0
C213 C 0.49117 0.11852 0.84874 0.0
C214 C 0.50486 0.11083 0.87478 0.0
C215 C 0.50238 0.12562 0.87183 0.0
C216 C 0.5004 0.10012 0.86507 0.0
C217 C 0.48601 0.0375 0.82483 0.0
C218 C 0.50689 0.02461 0.83442 0.0
C219 C 0.48577 0.01122 0.8261 0.0
C220 C 0.47879 0.02426 0.82293 0.0
C221 C 0.50013 0.0112 0.83135 0.0
C222 C 0.49991 0.03769 0.8311 0.0
C223 C 0.47957 0.05042 0.81811 0.0
O224 O 0.45631 0.08734 0.8118 0.0
O225 O 0.47652 0.09054 0.79956 0.0
O226 O 0.4886 0.05965 0.81201 0.0
O227 O 0.46875 0.05666 0.82503 0.0
H228 H 0.46556 0.06347 0.78909 0.0
H229 H 0.45463 0.05271 0.76737 0.0
H230 H 0.43281 0.09334 0.75845 0.0
H231 H 0.44363 0.10391 0.78039 0.0
H232 H 0.49349 0.14067 0.85601 0.0
H233 H 0.48588 0.12158 0.83868 0.0
H234 H 0.51031 0.10746 0.88464 0.0
H235 H 0.5024 0.08882 0.86776 0.0
H236 H 0.51785 0.02498 0.8387 0.0
H237 H 0.48025 1.00118 0.82339 0.0
H238 H 0.46807 0.02394 0.81805 0.0
H239 H 0.50563 0.04786 0.83272 0.0
C240 C 0.92468 0.45584 0.78663 0.0
C241 C 0.93916 0.45869 0.78268 0.0
C242 C 0.93681 0.44305 0.76137 0.0
C243 C 0.94515 0.4524 0.77018 0.0
C244 C 0.92235 0.4401 0.76551 0.0
C245 C 0.91637 0.44643 0.77802 0.0
U246 U 0.9308 0.47706 0.82085 0.0
O247 O 0.91977 0.49598 0.83061 0.0
O248 O 0.92217 0.47567 0.84319 0.0
C249 C 0.91778 0.48928 0.84307 0.0
C250 C 0.91829 0.46268 0.79969 0.0
C251 C 0.90554 0.49362 0.85244 0.0
C252 C 0.87987 0.49559 0.85875 0.0
C253 C 0.89086 0.49117 0.84901 0.0
C254 C 0.89824 0.50508 0.87505 0.0
C255 C 0.88349 0.50245 0.872 0.0
C256 C 0.90907 0.50066 0.86544 0.0
C257 C 0.97211 0.48538 0.82573 0.0
C258 C 0.98495 0.50547 0.837 0.0
C259 C 0.99841 0.48531 0.82666 0.0
C260 C 0.98539 0.47851 0.82302 0.0
C261 C 0.9984 0.49912 0.83324 0.0
C262 C 0.97188 0.49868 0.83317 0.0
C263 C 0.95913 0.47923 0.81886 0.0
O264 O 0.92183 0.45661 0.81213 0.0
O265 O 0.91909 0.47695 0.80002 0.0
O266 O 0.9501 0.48849 0.81282 0.0
O267 O 0.95264 0.46847 0.82564 0.0
H268 H 0.94584 0.46583 0.78926 0.0
H269 H 0.95638 0.45474 0.7675 0.0
H270 H 0.91555 0.43308 0.75895 0.0
H271 H 0.9052 0.44407 0.7809 0.0
H272 H 0.86863 0.49335 0.85609 0.0
H273 H 0.88792 0.48578 0.83896 0.0
H274 H 0.90149 0.51061 0.88492 0.0
H275 H 0.92032 0.50276 0.86823 0.0
H276 H 0.98452 0.51597 0.8423 0.0
H277 H 0.00844 0.48013 0.82335 0.0
H278 H 0.98574 0.46825 0.81723 0.0
H279 H 0.96167 0.50412 0.83541 0.0
C280 C 0.55322 0.92404 0.78631 0.0
C281 C 0.55027 0.93853 0.78248 0.0
C282 C 0.5658 0.9364 0.76106 0.0
C283 C 0.55647 0.94463 0.76999 0.0
C284 C 0.56886 0.92194 0.76509 0.0
C285 C 0.56262 0.91584 0.77759 0.0
U286 U 0.53172 0.92994 0.82033 0.0
O287 O 0.5129 0.91869 0.83004 0.0
O288 O 0.53307 0.92156 0.84276 0.0
C289 C 0.51953 0.91696 0.84257 0.0
C290 C 0.54644 0.91754 0.79935 0.0
C291 C 0.51524 0.90483 0.85211 0.0
C292 C 0.51299 0.87923 0.85854 0.0
C293 C 0.51742 0.8901 0.8487 0.0
C294 C 0.50401 0.89779 0.87491 0.0
C295 C 0.50636 0.883 0.87187 0.0
C296 C 0.50845 0.90851 0.8652 0.0
C297 C 0.52268 0.97112 0.82481 0.0
C298 C 0.5018 0.98404 0.83444 0.0
C299 C 0.52291 0.99741 0.82606 0.0
C300 C 0.52989 0.98437 0.82288 0.0
C301 C 0.50856 0.99744 0.83134 0.0
C302 C 0.50879 0.97094 0.83112 0.0
C303 C 0.52911 0.95819 0.81811 0.0
O304 O 0.55237 0.92126 0.81181 0.0
O305 O 0.53216 0.91805 0.79959 0.0
O306 O 0.52007 0.94895 0.81203 0.0
O307 O 0.53993 0.95196 0.82502 0.0
H308 H 0.54312 0.94512 0.78914 0.0
H309 H 0.55405 0.95586 0.7674 0.0
H310 H 0.57587 0.91523 0.75844 0.0
H311 H 0.56505 0.90467 0.78038 0.0
H312 H 0.51502 0.86794 0.85589 0.0
H313 H 0.5226 0.88705 0.83858 0.0
H314 H 0.49866 0.90117 0.88484 0.0
H315 H 0.50655 0.91981 0.86797 0.0
H316 H 0.49085 0.98367 0.83875 0.0
H317 H 0.52842 0.00744 0.82331 0.0
H318 H 0.5406 0.98468 0.81797 0.0
H319 H 0.50307 0.96078 0.83277 0.0
C320 C 0.2224 0.08456 0.45545 0.0
C321 C 0.22623 0.07008 0.4584 0.0
C322 C 0.24765 0.0722 0.44288 0.0
C323 C 0.23872 0.06397 0.45221 0.0
C324 C 0.24363 0.08666 0.43982 0.0
C325 C 0.23113 0.09277 0.44606 0.0
U326 U 0.18839 0.07868 0.47695 0.0
O327 O 0.17867 0.08994 0.49577 0.0
O328 O 0.16595 0.08706 0.4756 0.0
C329 C 0.16614 0.09166 0.48914 0.0
C330 C 0.20937 0.09107 0.46223 0.0
C331 C 0.1566 0.10379 0.49343 0.0
C332 C 0.15016 0.12939 0.49571 0.0
C333 C 0.16001 0.11852 0.49127 0.0
C334 C 0.13379 0.11081 0.50465 0.0
C335 C 0.13682 0.12561 0.50231 0.0
C336 C 0.14349 0.1001 0.5002 0.0
C337 C 0.1839 0.0375 0.48602 0.0
C338 C 0.17429 0.02459 0.5069 0.0
C339 C 0.18263 0.01122 0.48577 0.0
C340 C 0.18581 0.02426 0.4788 0.0
C341 C 0.17737 0.01119 0.50013 0.0
C342 C 0.17761 0.03768 0.49991 0.0
C343 C 0.1906 0.05043 0.47957 0.0
O344 O 0.1969 0.08735 0.4563 0.0
O345 O 0.20912 0.09057 0.47651 0.0
O346 O 0.19669 0.05967 0.48861 0.0
O347 O 0.18369 0.05665 0.46876 0.0
H348 H 0.21956 0.06349 0.46555 0.0
H349 H 0.24129 0.05274 0.45462 0.0
H350 H 0.25028 0.09337 0.43281 0.0
H351 H 0.22834 0.10394 0.44363 0.0
H352 H 0.15282 0.14067 0.49369 0.0
H353 H 0.17014 0.12158 0.4861 0.0
H354 H 0.12384 0.10743 0.50998 0.0
H355 H 0.14073 0.0888 0.50209 0.0
H356 H 0.17 0.02495 0.51786 0.0
H357 H 0.18535 1.00119 0.48025 0.0
H358 H 0.1907 0.02395 0.46808 0.0
H359 H 0.17598 0.04784 0.50564 0.0
C360 C 0.92407 0.22233 0.45547 0.0
C361 C 0.93857 0.22618 0.45841 0.0
C362 C 0.93643 0.24758 0.44288 0.0
C363 C 0.94467 0.23867 0.4522 0.0
C364 C 0.92196 0.24354 0.43985 0.0
C365 C 0.91586 0.23104 0.44609 0.0
U366 U 0.92996 0.18833 0.47697 0.0
O367 O 0.91871 0.17863 0.49578 0.0
O368 O 0.92157 0.16589 0.4756 0.0
C369 C 0.91698 0.16608 0.48914 0.0
C370 C 0.91757 0.20929 0.46225 0.0
C371 C 0.90485 0.15654 0.49343 0.0
C372 C 0.87924 0.15012 0.49573 0.0
C373 C 0.89012 0.15996 0.49129 0.0
C374 C 0.89781 0.13374 0.50464 0.0
C375 C 0.88301 0.13679 0.50232 0.0
C376 C 0.90853 0.14344 0.50018 0.0
C377 C 0.97114 0.18384 0.48602 0.0
C378 C 0.98405 0.17423 0.50689 0.0
C379 C 0.99743 0.18257 0.48577 0.0
C380 C 0.98439 0.18575 0.4788 0.0
C381 C 0.99745 0.17731 0.50012 0.0
C382 C 0.97096 0.17755 0.49991 0.0
C383 C 0.95822 0.19055 0.47959 0.0
O384 O 0.92129 0.19682 0.45632 0.0
O385 O 0.91808 0.20906 0.47653 0.0
O386 O 0.94898 0.19664 0.48863 0.0
O387 O 0.95199 0.18364 0.46876 0.0
H388 H 0.94516 0.21953 0.46554 0.0
H389 H 0.9559 0.24126 0.45461 0.0
H390 H 0.91524 0.25018 0.43284 0.0
H391 H 0.90468 0.22824 0.44367 0.0
H392 H 0.86795 0.15278 0.49374 0.0
H393 H 0.88707 0.17009 0.48614 0.0
H394 H 0.90117 0.1238 0.50996 0.0
H395 H 0.91983 0.14067 0.50206 0.0
H396 H 0.98368 0.16994 0.51784 0.0
H397 H 0.00746 0.1853 0.48026 0.0
H398 H 0.9847 0.19065 0.46809 0.0
H399 H 0.96079 0.17592 0.50564 0.0
C400 C 0.78623 0.92409 0.45538 0.0
C401 C 0.78239 0.93858 0.45831 0.0
C402 C 0.76097 0.93641 0.44281 0.0
C403 C 0.76989 0.94467 0.45212 0.0
C404 C 0.765 0.92195 0.43977 0.0
C405 C 0.7775 0.91586 0.446 0.0
U406 U 0.8202 0.93007 0.47687 0.0
O407 O 0.82992 0.91888 0.4957 0.0
O408 O 0.84266 0.92176 0.47553 0.0
C409 C 0.84247 0.91718 0.48907 0.0
C410 C 0.79927 0.91761 0.46215 0.0
C411 C 0.85204 0.90508 0.49336 0.0
C412 C 0.85854 0.8795 0.49562 0.0
C413 C 0.84866 0.89034 0.4912 0.0
C414 C 0.87487 0.89812 0.50455 0.0
C415 C 0.87187 0.88331 0.5022 0.0
C416 C 0.86513 0.90881 0.50013 0.0
C417 C 0.82464 0.97123 0.48592 0.0
C418 C 0.83433 0.9841 0.5068 0.0
C419 C 0.82596 0.99751 0.48573 0.0
C420 C 0.82274 0.98448 0.47874 0.0
C421 C 0.83125 0.99751 0.50007 0.0
C422 C 0.83097 0.97103 0.4998 0.0
C423 C 0.81792 0.95832 0.47947 0.0
O424 O 0.81173 0.92135 0.45622 0.0
O425 O 0.7995 0.91812 0.47644 0.0
O426 O 0.81184 0.94908 0.48851 0.0
O427 O 0.82485 0.95209 0.46865 0.0
H428 H 0.78904 0.94519 0.46544 0.0
H429 H 0.76731 0.9559 0.45453 0.0
H430 H 0.75835 0.91522 0.43277 0.0
H431 H 0.78029 0.90469 0.44358 0.0
H432 H 0.85591 0.8682 0.4936 0.0
H433 H 0.83854 0.88725 0.48604 0.0
H434 H 0.88481 0.90152 0.50987 0.0
H435 H 0.86787 0.92011 0.50202 0.0
H436 H 0.83864 0.98372 0.51774 0.0
H437 H 0.82323 0.00755 0.48025 0.0
H438 H 0.81782 0.98481 0.46804 0.0
H439 H 0.8326 0.96085 0.50549 0.0
C440 C 0.08471 0.78625 0.4554 0.0
C441 C 0.07022 0.78239 0.45835 0.0
C442 C 0.07237 0.76102 0.44277 0.0
C443 C 0.06412 0.76991 0.45213 0.0
C444 C 0.08683 0.76507 0.43973 0.0
C445 C 0.09293 0.77756 0.44599 0.0
U446 U 0.07881 0.82024 0.47694 0.0
O447 O 0.09003 0.82992 0.49578 0.0
O448 O 0.08721 0.84267 0.47561 0.0
C449 C 0.09178 0.84247 0.48916 0.0
C450 C 0.09121 0.79928 0.4622 0.0
C451 C 0.1039 0.85201 0.49348 0.0
C452 C 0.12949 0.85855 0.49561 0.0
C453 C 0.11862 0.84869 0.49116 0.0
C454 C 0.11091 0.87473 0.50488 0.0
C455 C 0.12571 0.87179 0.50238 0.0
C456 C 0.1002 0.86502 0.50042 0.0
C457 C 0.03763 0.82474 0.48599 0.0
C458 C 0.02473 0.83434 0.50689 0.0
C459 C 0.01136 0.82608 0.48573 0.0
C460 C 0.0244 0.82288 0.47876 0.0
C461 C 0.01133 0.83131 0.5001 0.0
C462 C 0.03782 0.831 0.4999 0.0
C463 C 0.05055 0.81802 0.47954 0.0
O464 O 0.08751 0.81175 0.45628 0.0
O465 O 0.09068 0.79951 0.47648 0.0
O466 O 0.05977 0.81192 0.48857 0.0
O467 O 0.0568 0.82494 0.46873 0.0
H468 H 0.06362 0.78903 0.46551 0.0
H469 H 0.05289 0.76731 0.45454 0.0
H470 H 0.09356 0.75844 0.4327 0.0
H471 H 0.1041 0.78037 0.44356 0.0
H472 H 0.14077 0.85597 0.49348 0.0
H473 H 0.12169 0.83863 0.48586 0.0
H474 H 0.10753 0.8846 0.51034 0.0
H475 H 0.0889 0.86771 0.50242 0.0
H476 H 0.02509 0.8386 0.51786 0.0
H477 H 1.00132 0.8234 0.4802 0.0
H478 H 0.02409 0.81802 0.46803 0.0
H479 H 0.04798 0.83258 0.50564 0.0
C480 C 0.22233 0.92403 0.55324 0.0
C481 C 0.22618 0.93852 0.5503 0.0
C482 C 0.24759 0.93638 0.56581 0.0
C483 C 0.23868 0.94462 0.55649 0.0
C484 C 0.24355 0.92192 0.56885 0.0
C485 C 0.23105 0.91582 0.56262 0.0
U486 U 0.18834 0.92993 0.53174 0.0
O487 O 0.17862 0.91866 0.51294 0.0
O488 O 0.16589 0.92158 0.53311 0.0
C489 C 0.16607 0.91696 0.51958 0.0
C490 C 0.20929 0.91754 0.54647 0.0
C491 C 0.15653 0.90482 0.51533 0.0
C492 C 0.15024 0.8792 0.51283 0.0
C493 C 0.16007 0.89009 0.51727 0.0
C494 C 0.13363 0.89775 0.50434 0.0
C495 C 0.1368 0.88295 0.50645 0.0
C496 C 0.14332 0.90849 0.50879 0.0
C497 C 0.18389 0.97111 0.52266 0.0
C498 C 0.17427 0.98402 0.5018 0.0
C499 C 0.18264 0.99739 0.52291 0.0
C500 C 0.18582 0.98435 0.52988 0.0
C501 C 0.17737 0.99742 0.50856 0.0
C502 C 0.17759 0.97093 0.50877 0.0
C503 C 0.19059 0.95818 0.52909 0.0
O504 O 0.19682 0.92127 0.55239 0.0
O505 O 0.20906 0.91803 0.53218 0.0
O506 O 0.19666 0.94894 0.52005 0.0
O507 O 0.18368 0.95197 0.53993 0.0
H508 H 0.21953 0.94511 0.54316 0.0
H509 H 0.24127 0.95585 0.55409 0.0
H510 H 0.2502 0.9152 0.57585 0.0
H511 H 0.22825 0.90464 0.56504 0.0
H512 H 0.153 0.86791 0.51467 0.0
H513 H 0.17029 0.88705 0.52225 0.0
H514 H 0.12361 0.90111 0.49918 0.0
H515 H 0.14046 0.91978 0.50707 0.0
H516 H 0.16997 0.98365 0.49085 0.0
H517 H 0.18538 0.00743 0.52842 0.0
H518 H 0.19072 0.98466 0.54059 0.0
H519 H 0.17595 0.96076 0.50305 0.0
C520 C 0.08465 0.22225 0.55321 0.0
C521 C 0.07016 0.22608 0.55026 0.0
C522 C 0.07229 0.24751 0.56577 0.0
C523 C 0.06405 0.23858 0.55645 0.0
C524 C 0.08675 0.24349 0.56883 0.0
C525 C 0.09285 0.23099 0.5626 0.0
U526 U 0.07874 0.18826 0.5317 0.0
O527 O 0.08998 0.17854 0.51288 0.0
O528 O 0.08709 0.16582 0.53305 0.0
C529 C 0.0917 0.166 0.51952 0.0
C530 C 0.09115 0.20922 0.54643 0.0
C531 C 0.10383 0.15647 0.51524 0.0
C532 C 0.12945 0.15009 0.51292 0.0
C533 C 0.11856 0.15993 0.51736 0.0
C534 C 0.11089 0.13364 0.50408 0.0
C535 C 0.12569 0.13672 0.50637 0.0
C536 C 0.10016 0.14333 0.50852 0.0
C537 C 0.03754 0.18381 0.52266 0.0
C538 C 0.02462 0.17421 0.50178 0.0
C539 C 0.01126 0.18257 0.5229 0.0
C540 C 0.02431 0.18574 0.52988 0.0
C541 C 0.01122 0.17731 0.50855 0.0
C542 C 0.03772 0.17752 0.50876 0.0
C543 C 0.05048 0.1905 0.52909 0.0
O544 O 0.08742 0.19676 0.55236 0.0
O545 O 0.09065 0.20897 0.53215 0.0
O546 O 0.05973 0.19658 0.52005 0.0
O547 O 0.0567 0.18359 0.53991 0.0
H548 H 0.06357 0.21942 0.54312 0.0
H549 H 0.05283 0.24116 0.55404 0.0
H550 H 0.09347 0.25014 0.57583 0.0
H551 H 0.10403 0.2282 0.56503 0.0
H552 H 0.14073 0.15278 0.5149 0.0
H553 H 0.12161 0.17008 0.52248 0.0
H554 H 0.10753 0.12367 0.49879 0.0
H555 H 0.08886 0.14053 0.50667 0.0
H556 H 0.02498 0.16991 0.49082 0.0
H557 H 1.00123 0.18531 0.52842 0.0
H558 H 0.024 0.19064 0.54059 0.0
H559 H 0.04788 0.17587 0.50303 0.0
C560 C 0.78632 0.08462 0.55325 0.0
C561 C 0.78249 0.07012 0.5503 0.0
C562 C 0.76107 0.07224 0.56582 0.0
C563 C 0.77 0.064 0.55649 0.0
C564 C 0.76509 0.08671 0.56887 0.0
C565 C 0.77758 0.09282 0.56264 0.0
U566 U 0.82032 0.07873 0.53175 0.0
O567 O 0.83003 0.08997 0.51293 0.0
O568 O 0.84276 0.08711 0.5331 0.0
C569 C 0.84257 0.0917 0.51957 0.0
C570 C 0.79935 0.09113 0.54648 0.0
C571 C 0.85212 0.10383 0.51528 0.0
C572 C 0.85853 0.12943 0.51295 0.0
C573 C 0.84868 0.11856 0.5174 0.0
C574 C 0.87494 0.11086 0.5041 0.0
C575 C 0.87188 0.12566 0.50639 0.0
C576 C 0.86524 0.10014 0.50855 0.0
C577 C 0.82479 0.03756 0.52268 0.0
C578 C 0.8344 0.02466 0.50179 0.0
C579 C 0.82603 0.01128 0.52288 0.0
C580 C 0.82286 0.02432 0.52988 0.0
C581 C 0.83129 0.01126 0.50853 0.0
C582 C 0.83109 0.03775 0.50879 0.0
C583 C 0.81808 0.05048 0.52913 0.0
O584 O 0.81182 0.08742 0.55241 0.0
O585 O 0.7996 0.09062 0.5322 0.0
O586 O 0.812 0.05971 0.5201 0.0
O587 O 0.825 0.05672 0.53995 0.0
H588 H 0.78916 0.06353 0.54316 0.0
H589 H 0.76742 0.05277 0.55408 0.0
H590 H 0.75843 0.09343 0.57588 0.0
H591 H 0.78037 0.104 0.56507 0.0
H592 H 0.85585 0.14072 0.51493 0.0
H593 H 0.83853 0.12161 0.52253 0.0
H594 H 0.8849 0.10749 0.49879 0.0
H595 H 0.86802 0.08884 0.5067 0.0
H596 H 0.83869 0.02503 0.49083 0.0
H597 H 0.82328 1.00125 0.52838 0.0
H598 H 0.81796 0.024 0.5406 0.0
H599 H 0.83273 0.04792 0.50308 0.0
C600 C 0.92377 0.78695 0.55304 0.0
C601 C 0.93826 0.7831 0.55012 0.0
C602 C 0.93603 0.76166 0.56557 0.0
C603 C 0.94432 0.77059 0.55629 0.0
C604 C 0.92157 0.7657 0.56861 0.0
C605 C 0.91551 0.77822 0.56239 0.0
U606 U 0.92994 0.82081 0.53152 0.0
O607 O 0.91888 0.83055 0.51263 0.0
O608 O 0.92177 0.84332 0.53277 0.0
C609 C 0.9172 0.84312 0.51922 0.0
C610 C 0.91733 0.79999 0.54625 0.0
C611 C 0.90501 0.85259 0.51498 0.0
C612 C 0.87937 0.85888 0.51282 0.0
C613 C 0.89031 0.8491 0.51721 0.0
C614 C 0.89783 0.87535 0.5038 0.0
C615 C 0.88305 0.87223 0.5062 0.0
C616 C 0.90861 0.86571 0.5082 0.0
C617 C 0.97118 0.82493 0.52259 0.0
C618 C 0.98418 0.83453 0.50176 0.0
C619 C 0.99747 0.82602 0.52285 0.0
C620 C 0.9844 0.8229 0.5298 0.0
C621 C 0.99755 0.83134 0.50852 0.0
C622 C 0.97106 0.83127 0.50872 0.0
C623 C 0.95819 0.81833 0.52901 0.0
O624 O 0.92111 0.81245 0.55216 0.0
O625 O 0.91786 0.8002 0.53197 0.0
O626 O 0.94894 0.81229 0.51996 0.0
O627 O 0.95197 0.82534 0.53979 0.0
H628 H 0.94489 0.78976 0.54301 0.0
H629 H 0.95555 0.76799 0.5539 0.0
H630 H 0.91482 0.75904 0.57558 0.0
H631 H 0.90433 0.78102 0.5648 0.0
H632 H 0.8681 0.85617 0.51488 0.0
H633 H 0.88732 0.83896 0.52238 0.0
H634 H 0.90113 0.88531 0.49846 0.0
H635 H 0.91989 0.86853 0.50626 0.0
H636 H 0.98386 0.83887 0.49082 0.0
H637 H 0.00748 0.82321 0.52835 0.0
H638 H 0.98466 0.81797 0.5405 0.0
H639 H 0.96091 0.83299 0.50301 0.0
C640 C 0.45564 0.22163 0.08497 0.0
C641 C 0.45856 0.22547 0.07047 0.0
C642 C 0.44312 0.24692 0.07269 0.0
C643 C 0.45239 0.23798 0.06441 0.0
C644 C 0.44008 0.24288 0.08716 0.0
C645 C 0.44629 0.23036 0.09322 0.0
U646 U 0.47716 0.18776 0.0788 0.0
O647 O 0.49604 0.17802 0.08988 0.0
O648 O 0.47591 0.16525 0.08696 0.0
C649 C 0.48945 0.16544 0.09154 0.0
C650 C 0.46242 0.20858 0.09141 0.0
C651 C 0.49367 0.15597 0.10373 0.0
C652 C 0.4959 0.1497 0.12938 0.0
C653 C 0.49151 0.15949 0.11844 0.0
C654 C 0.5048 0.13318 0.11091 0.0
C655 C 0.50246 0.13632 0.12569 0.0
C656 C 0.5004 0.14282 0.10013 0.0
C657 C 0.48611 0.18365 0.03757 0.0
C658 C 0.50695 0.17407 0.02456 0.0
C659 C 0.48584 0.18254 0.01128 0.0
C660 C 0.47889 0.18566 0.02435 0.0
C661 C 0.50018 0.17724 0.01119 0.0
C662 C 0.49999 0.17733 0.03769 0.0
C663 C 0.47968 0.19025 0.05056 0.0
O664 O 0.45652 0.19612 0.08762 0.0
O665 O 0.47671 0.20838 0.09089 0.0
O666 O 0.48874 0.19628 0.05981 0.0
O667 O 0.4689 0.18325 0.05677 0.0
H668 H 0.46566 0.21881 0.06385 0.0
H669 H 0.45478 0.24057 0.05318 0.0
H670 H 0.43311 0.24954 0.0939 0.0
H671 H 0.44389 0.22756 0.1044 0.0
H672 H 0.49389 0.15244 0.14065 0.0
H673 H 0.48639 0.16965 0.12143 0.0
H674 H 0.51009 0.1232 0.1076 0.0
H675 H 0.50229 0.13998 0.08884 0.0
H676 H 0.51789 0.16976 0.02488 0.0
H677 H 0.48033 0.18533 1.00127 0.0
H678 H 0.46818 0.19057 0.02409 0.0
H679 H 0.50571 0.17562 0.04783 0.0
C680 C 0.45548 0.78633 0.92404 0.0
C681 C 0.45843 0.7825 0.93853 0.0
C682 C 0.44291 0.76108 0.9364 0.0
C683 C 0.45224 0.77001 0.94464 0.0
C684 C 0.43985 0.7651 0.92194 0.0
C685 C 0.44609 0.7776 0.91584 0.0
U686 U 0.47698 0.82033 0.92995 0.0
O687 O 0.4958 0.83005 0.9187 0.0
O688 O 0.47563 0.84277 0.9216 0.0
C689 C 0.48916 0.84259 0.91699 0.0
C690 C 0.46225 0.79937 0.91754 0.0
C691 C 0.49343 0.85213 0.90485 0.0
C692 C 0.49577 0.85851 0.87924 0.0
C693 C 0.49134 0.84867 0.89012 0.0
C694 C 0.50457 0.87497 0.89781 0.0
C695 C 0.5023 0.87188 0.883 0.0
C696 C 0.50013 0.86527 0.90853 0.0
C697 C 0.48604 0.82477 0.97114 0.0
C698 C 0.50692 0.83437 0.98407 0.0
C699 C 0.48579 0.82601 0.99743 0.0
C700 C 0.47882 0.82284 0.98438 0.0
C701 C 0.50014 0.83127 0.99747 0.0
C702 C 0.49994 0.83106 0.97097 0.0
C703 C 0.4796 0.81808 0.9582 0.0
O704 O 0.45633 0.81183 0.92127 0.0
O705 O 0.47654 0.79961 0.91803 0.0
O706 O 0.48864 0.81201 0.94895 0.0
O707 O 0.46878 0.825 0.95199 0.0
H708 H 0.46557 0.78916 0.94512 0.0
H709 H 0.45466 0.76743 0.95586 0.0
H710 H 0.43284 0.75845 0.91523 0.0
H711 H 0.44365 0.78039 0.90467 0.0
H712 H 0.49381 0.85581 0.86795 0.0
H713 H 0.48623 0.83851 0.88707 0.0
H714 H 0.50985 0.88494 0.90117 0.0
H715 H 0.50197 0.86808 0.91983 0.0
H716 H 0.51787 0.83866 0.98371 0.0
H717 H 0.48027 0.82327 0.00746 0.0
H718 H 0.4681 0.81795 0.98468 0.0
H719 H 0.50567 0.83271 0.96081 0.0
C720 C 0.22304 0.45187 0.92782 0.0
C721 C 0.22701 0.45549 0.94211 0.0
C722 C 0.24848 0.43999 0.94028 0.0
C723 C 0.23963 0.4496 0.94829 0.0
C724 C 0.24428 0.4363 0.92604 0.0
C725 C 0.2317 0.44219 0.91989 0.0
U726 U 0.18801 0.47385 0.92988 0.0
O727 O 0.18019 0.49116 0.91517 0.0
O728 O 0.16703 0.47108 0.91854 0.0
C729 C 0.16839 0.48373 0.91203 0.0
C730 C 0.21022 0.4584 0.92084 0.0
C731 C 0.15732 0.4893 0.902 0.0
C732 C 0.1493 0.49392 0.87733 0.0
C733 C 0.15953 0.48827 0.88699 0.0
C734 C 0.1344 0.50172 0.89761 0.0
C735 C 0.13668 0.50093 0.88247 0.0
C736 C 0.14463 0.4959 0.90729 0.0
C737 C 0.18005 0.48612 0.97034 0.0
C738 C 0.17261 0.50799 0.98306 0.0
C739 C 0.17811 0.48609 0.9966 0.0
C740 C 0.18071 0.47876 0.98362 0.0
C741 C 0.17463 0.50098 0.99654 0.0
C742 C 0.17544 0.50065 0.97003 0.0
C743 C 0.18701 0.47914 0.95781 0.0
O744 O 0.1976 0.45263 0.92428 0.0
O745 O 0.20999 0.47268 0.92066 0.0
O746 O 0.19379 0.48756 0.94846 0.0
O747 O 0.18059 0.46782 0.9519 0.0
H748 H 0.22042 0.46292 0.94844 0.0
H749 H 0.24239 0.45252 0.95935 0.0
H750 H 0.25089 0.4291 0.91948 0.0
H751 H 0.22882 0.43932 0.90884 0.0
H752 H 0.1513 0.49275 0.86579 0.0
H753 H 0.16922 0.4831 0.88273 0.0
H754 H 0.12491 0.50712 0.902 0.0
H755 H 0.14278 0.49678 0.91889 0.0
H756 H 0.16963 0.51936 0.98259 0.0
H757 H 0.17999 0.48032 0.00667 0.0
H758 H 0.18438 0.46757 0.98406 0.0
H759 H 0.17485 0.50654 0.95986 0.0
C760 C 0.5533 0.22226 0.92399 0.0
C761 C 0.55036 0.22612 0.93848 0.0
C762 C 0.56592 0.24751 0.93631 0.0
C763 C 0.55658 0.23861 0.94457 0.0
C764 C 0.56895 0.24346 0.92185 0.0
C765 C 0.56269 0.23097 0.91576 0.0
U766 U 0.53176 0.18829 0.92992 0.0
O767 O 0.51295 0.17856 0.91867 0.0
O768 O 0.53311 0.16583 0.92159 0.0
C769 C 0.51958 0.16602 0.91697 0.0
C770 C 0.54651 0.20923 0.9175 0.0
C771 C 0.51533 0.15647 0.90484 0.0
C772 C 0.51284 0.15017 0.87922 0.0
C773 C 0.51727 0.16001 0.89011 0.0
C774 C 0.50433 0.13356 0.89779 0.0
C775 C 0.50645 0.13673 0.88298 0.0
C776 C 0.50878 0.14326 0.90852 0.0
C777 C 0.52268 0.18385 0.9711 0.0
C778 C 0.5018 0.17423 0.98402 0.0
C779 C 0.52295 0.18253 0.99738 0.0
C780 C 0.52991 0.18573 0.98433 0.0
C781 C 0.50859 0.17728 0.99741 0.0
C782 C 0.50878 0.17757 0.97092 0.0
C783 C 0.52912 0.19056 0.95817 0.0
O784 O 0.55242 0.19676 0.92123 0.0
O785 O 0.53222 0.20899 0.91801 0.0
O786 O 0.52009 0.19662 0.94894 0.0
O787 O 0.53995 0.18365 0.95195 0.0
H788 H 0.54321 0.21948 0.94509 0.0
H789 H 0.55418 0.24121 0.9558 0.0
H790 H 0.57596 0.2501 0.91512 0.0
H791 H 0.56511 0.22816 0.90458 0.0
H792 H 0.51468 0.15292 0.86792 0.0
H793 H 0.52226 0.17022 0.88705 0.0
H794 H 0.49916 0.12354 0.90116 0.0
H795 H 0.50705 0.1404 0.91982 0.0
H796 H 0.49084 0.16995 0.98366 0.0
H797 H 0.52847 0.18523 0.00741 0.0
H798 H 0.54064 0.19061 0.98463 0.0
H799 H 0.50304 0.17596 0.96077 0.0
C800 C 0.78642 0.55314 0.92403 0.0
C801 C 0.78257 0.55018 0.93852 0.0
C802 C 0.76116 0.5657 0.93641 0.0
C803 C 0.77007 0.55637 0.94464 0.0
C804 C 0.7652 0.56876 0.92195 0.0
C805 C 0.7777 0.56253 0.91584 0.0
U806 U 0.82043 0.53164 0.92986 0.0
O807 O 0.83018 0.5129 0.91852 0.0
O808 O 0.84289 0.53308 0.92151 0.0
C809 C 0.84272 0.51957 0.91684 0.0
C810 C 0.79946 0.54638 0.91752 0.0
C811 C 0.85235 0.5153 0.90478 0.0
C812 C 0.85884 0.51278 0.8792 0.0
C813 C 0.84891 0.5172 0.89002 0.0
C814 C 0.87534 0.50438 0.89789 0.0
C815 C 0.87228 0.50646 0.88306 0.0
C816 C 0.86556 0.5088 0.90855 0.0
C817 C 0.82488 0.52251 0.97105 0.0
C818 C 0.83445 0.50166 0.98401 0.0
C819 C 0.82611 0.5228 0.99734 0.0
C820 C 0.82296 0.52975 0.98428 0.0
C821 C 0.83135 0.50845 0.9974 0.0
C822 C 0.83116 0.50862 0.9709 0.0
C823 C 0.8182 0.52894 0.95811 0.0
O824 O 0.81192 0.55231 0.92126 0.0
O825 O 0.7997 0.5321 0.91799 0.0
O826 O 0.81215 0.5199 0.94885 0.0
O827 O 0.82509 0.53979 0.95192 0.0
H828 H 0.78922 0.54304 0.9451 0.0
H829 H 0.76748 0.55395 0.95586 0.0
H830 H 0.75855 0.57577 0.91523 0.0
H831 H 0.78049 0.56497 0.90466 0.0
H832 H 0.85616 0.5146 0.86789 0.0
H833 H 0.8387 0.52214 0.88689 0.0
H834 H 0.88536 0.49926 0.90133 0.0
H835 H 0.86834 0.50711 0.91988 0.0
H836 H 0.83873 0.4907 0.98366 0.0
H837 H 0.82337 0.52833 0.00736 0.0
H838 H 0.81808 0.54047 0.98457 0.0
H839 H 0.83279 0.50287 0.96075 0.0
C840 C 0.55324 0.78625 0.08461 0.0
C841 C 0.55029 0.7824 0.07012 0.0
C842 C 0.56582 0.761 0.07226 0.0
C843 C 0.5565 0.7699 0.06402 0.0
C844 C 0.56886 0.76504 0.08672 0.0
C845 C 0.56262 0.77754 0.09282 0.0
U846 U 0.53174 0.82024 0.07873 0.0
O847 O 0.51293 0.82995 0.08999 0.0
O848 O 0.5331 0.84268 0.08711 0.0
C849 C 0.51957 0.84249 0.09171 0.0
C850 C 0.54646 0.79929 0.09111 0.0
C851 C 0.51529 0.85203 0.10384 0.0
C852 C 0.51293 0.85843 0.12945 0.0
C853 C 0.51737 0.84859 0.11857 0.0
C854 C 0.50414 0.87486 0.11089 0.0
C855 C 0.5064 0.87179 0.12569 0.0
C856 C 0.50859 0.86517 0.10016 0.0
C857 C 0.52267 0.82473 0.03755 0.0
C858 C 0.5018 0.83434 0.02464 0.0
C859 C 0.52292 0.826 0.01126 0.0
C860 C 0.52989 0.82282 0.0243 0.0
C861 C 0.50857 0.83126 0.01124 0.0
C862 C 0.50878 0.83102 0.03773 0.0
C863 C 0.52911 0.81802 0.05047 0.0
O864 O 0.55239 0.81175 0.08739 0.0
O865 O 0.53217 0.79952 0.09061 0.0
O866 O 0.52007 0.81194 0.05971 0.0
O867 O 0.53994 0.82493 0.0567 0.0
H868 H 0.54316 0.78904 0.06353 0.0
H869 H 0.55409 0.76731 0.05279 0.0
H870 H 0.57587 0.7584 0.09344 0.0
H871 H 0.56505 0.78034 0.104 0.0
H872 H 0.51488 0.85574 0.14074 0.0
H873 H 0.52248 0.83843 0.12162 0.0
H874 H 0.49885 0.88482 0.10752 0.0
H875 H 0.50676 0.86796 0.08886 0.0
H876 H 0.49085 0.83864 0.02501 0.0
H877 H 0.52844 0.82327 1.00123 0.0
H878 H 0.5406 0.81793 0.02399 0.0
H879 H 0.50305 0.83265 0.0479 0.0
C880 C 0.22207 0.55274 0.08401 0.0
C881 C 0.22602 0.54987 0.06953 0.0
C882 C 0.24733 0.56552 0.07188 0.0
C883 C 0.23853 0.55617 0.06354 0.0
C884 C 0.24318 0.56849 0.08633 0.0
C885 C 0.23068 0.56215 0.09232 0.0
U886 U 0.18786 0.53151 0.0779 0.0
O887 O 0.1781 0.51258 0.08893 0.0
O888 O 0.16552 0.53289 0.08653 0.0
C889 C 0.16564 0.51929 0.09092 0.0
C890 C 0.20901 0.54589 0.0904 0.0
C891 C 0.15627 0.51494 0.10316 0.0
C892 C 0.14993 0.513 0.12882 0.0
C893 C 0.15968 0.51742 0.11784 0.0
C894 C 0.13368 0.50345 0.11045 0.0
C895 C 0.1367 0.50611 0.1252 0.0
C896 C 0.14328 0.50787 0.09963 0.0
C897 C 0.18297 0.52318 0.03659 0.0
C898 C 0.17171 0.50309 0.02375 0.0
C899 C 0.18203 0.52324 0.01029 0.0
C900 C 0.18568 0.53005 0.0233 0.0
C901 C 0.17546 0.50943 0.01031 0.0
C902 C 0.17553 0.50987 0.03683 0.0
C903 C 0.18984 0.52934 0.04957 0.0
O904 O 0.19657 0.55196 0.08686 0.0
O905 O 0.20869 0.53162 0.08961 0.0
O906 O 0.19588 0.52008 0.0586 0.0
O907 O 0.18306 0.5401 0.05606 0.0
H908 H 0.21945 0.54273 0.06286 0.0
H909 H 0.24121 0.55383 0.05231 0.0
H910 H 0.24974 0.57551 0.09312 0.0
H911 H 0.22779 0.56452 0.10349 0.0
H912 H 0.15257 0.51526 0.14007 0.0
H913 H 0.16971 0.52283 0.12078 0.0
H914 H 0.12382 0.4979 0.1072 0.0
H915 H 0.14052 0.50575 0.08837 0.0
H916 H 0.1664 0.49259 0.02419 0.0
H917 H 0.18534 0.52842 1.00025 0.0
H918 H 0.19146 0.54031 0.02296 0.0
H919 H 0.17329 0.50444 0.04703 0.0
C920 C 0.78633 0.45542 0.08461 0.0
C921 C 0.7825 0.45837 0.07012 0.0
C922 C 0.76108 0.44284 0.07226 0.0
C923 C 0.77 0.45217 0.06402 0.0
C924 C 0.76511 0.43979 0.08672 0.0
C925 C 0.7776 0.44603 0.09282 0.0
U926 U 0.82034 0.47692 0.07871 0.0
O927 O 0.83006 0.49573 0.08997 0.0
O928 O 0.84278 0.47556 0.08707 0.0
C929 C 0.8426 0.4891 0.09169 0.0
C930 C 0.79937 0.4622 0.09111 0.0
C931 C 0.85213 0.49337 0.10382 0.0
C932 C 0.85852 0.49569 0.12943 0.0
C933 C 0.84868 0.49126 0.11855 0.0
C934 C 0.87497 0.50452 0.11087 0.0
C935 C 0.87189 0.50224 0.12567 0.0
C936 C 0.86527 0.50008 0.10014 0.0
C937 C 0.8248 0.48597 0.03752 0.0
C938 C 0.83441 0.50683 0.02457 0.0
C939 C 0.82607 0.48569 0.01123 0.0
C940 C 0.82289 0.47873 0.02429 0.0
C941 C 0.83133 0.50004 0.01118 0.0
C942 C 0.83109 0.49987 0.03768 0.0
C943 C 0.81811 0.47954 0.05046 0.0
O944 O 0.81183 0.45627 0.08739 0.0
O945 O 0.79961 0.47648 0.09062 0.0
O946 O 0.81203 0.48858 0.05971 0.0
O947 O 0.82501 0.46872 0.05668 0.0
H948 H 0.78916 0.46551 0.06353 0.0
H949 H 0.76742 0.45458 0.05279 0.0
H950 H 0.75845 0.43278 0.09344 0.0
H951 H 0.78039 0.4436 0.10399 0.0
H952 H 0.85583 0.49372 0.14072 0.0
H953 H 0.83852 0.48614 0.1216 0.0
H954 H 0.88494 0.50981 0.1075 0.0
H955 H 0.86807 0.50193 0.08884 0.0
H956 H 0.83871 0.51779 0.02492 0.0
H957 H 0.82334 0.48015 1.00121 0.0
H958 H 0.818 0.46801 0.02399 0.0
H959 H 0.83272 0.50561 0.04783 0.0
C960 C 0.58462 0.95543 0.72236 0.0
C961 C 0.57013 0.95837 0.72621 0.0
C962 C 0.57226 0.94285 0.74761 0.0
C963 C 0.56402 0.95217 0.7387 0.0
C964 C 0.58672 0.93981 0.74358 0.0
C965 C 0.59283 0.94605 0.73108 0.0
U966 U 0.57874 0.97691 0.68836 0.0
O967 O 0.59 0.99573 0.67866 0.0
O968 O 0.58712 0.97555 0.66592 0.0
C969 C 0.59172 0.98908 0.66611 0.0
C970 C 0.59113 0.9622 0.70933 0.0
C971 C 0.60385 0.99337 0.65657 0.0
C972 C 0.62946 0.9957 0.65016 0.0
C973 C 0.61858 0.99126 0.66001 0.0
C974 C 0.6109 0.00454 0.63375 0.0
C975 C 0.6257 1.00225 0.63681 0.0
C976 C 0.60017 1.00009 0.64345 0.0
C977 C 0.53756 0.98597 0.68387 0.0
C978 C 0.52465 0.00683 0.67427 0.0
C979 C 0.51127 0.98571 0.68261 0.0
C980 C 0.52431 0.97875 0.68578 0.0
C981 C 0.51124 1.00006 0.67735 0.0
C982 C 0.53774 0.99986 0.67759 0.0
C983 C 0.55048 0.97954 0.69058 0.0
O984 O 0.58741 0.95627 0.69686 0.0
O985 O 0.59062 0.97648 0.70909 0.0
O986 O 0.55972 0.98858 0.69667 0.0
O987 O 0.55671 0.96871 0.68367 0.0
H988 H 0.56354 0.9655 0.71956 0.0
H989 H 0.55279 0.95458 0.74129 0.0
H990 H 0.59344 0.93281 0.75022 0.0
H991 H 0.60401 0.94362 0.72829 0.0
H992 H 0.64075 0.99372 0.65284 0.0
H993 H 0.62163 0.98613 0.67015 0.0
H994 H 0.60753 0.00984 0.6238 0.0
H995 H 0.58887 1.00194 0.64067 0.0
H996 H 0.52501 0.01779 0.66998 0.0
H997 H 0.50124 0.98019 0.68533 0.0
H998 H 0.524 0.96803 0.69067 0.0
H999 H 0.5479 0.00559 0.67596 0.0
C1000 C 0.04999 0.58618 0.7208 0.0
C1001 C 0.04744 0.57164 0.72472 0.0
C1002 C 0.06204 0.57467 0.74662 0.0
C1003 C 0.05338 0.56595 0.73751 0.0
C1004 C 0.06467 0.58919 0.74253 0.0
C1005 C 0.0587 0.59488 0.72974 0.0
U1006 U 0.02971 0.57876 0.68653 0.0
O1007 O 0.01076 0.58903 0.67611 0.0
O1008 O 0.03129 0.58655 0.66392 0.0
C1009 C 0.01764 0.59079 0.66371 0.0
C1010 C 0.04347 0.59221 0.70746 0.0
C1011 C 0.01364 0.60317 0.65441 0.0
C1012 C 0.01176 0.62894 0.64857 0.0
C1013 C 0.01592 0.61779 0.65822 0.0
C1014 C 1.00289 0.61084 0.63162 0.0
C1015 C 0.00534 0.62553 0.63506 0.0
C1016 C 0.00704 0.59986 0.64113 0.0
C1017 C 0.02182 0.53734 0.68293 0.0
C1018 C 1.00137 0.52395 0.67306 0.0
C1019 C 0.0224 0.51105 0.6823 0.0
C1020 C 0.02913 0.52425 0.68536 0.0
C1021 C 0.00819 0.51072 0.67666 0.0
C1022 C 0.00811 0.53719 0.67624 0.0
C1023 C 0.02787 0.55052 0.6895 0.0
O1024 O 0.04986 0.58834 0.69526 0.0
O1025 O 0.02922 0.5913 0.70685 0.0
O1026 O 0.01849 0.55965 0.69521 0.0
O1027 O 0.03865 0.55687 0.68262 0.0
H1028 H 0.04082 0.56469 0.7179 0.0
H1029 H 0.05133 0.55466 0.74016 0.0
H1030 H 0.07118 0.59627 0.74933 0.0
H1031 H 0.06081 0.60611 0.72688 0.0
H1032 H 0.01384 0.64014 0.65152 0.0
H1033 H 0.02096 0.62056 0.66849 0.0
H1034 H 0.9977 0.60777 0.62151 0.0
H1035 H 0.00507 0.58865 0.63807 0.0
H1036 H 0.99053 0.52406 0.66848 0.0
H1037 H 0.02793 0.50115 0.68542 0.0
H1038 H 0.03971 0.5242 0.69056 0.0
H1039 H 1.00233 0.54724 0.67421 0.0
C1040 C 0.42406 0.05313 0.72235 0.0
C1041 C 0.43856 0.05018 0.72618 0.0
C1042 C 0.43642 0.06571 0.74761 0.0
C1043 C 0.44466 0.05638 0.73868 0.0
C1044 C 0.42196 0.06875 0.74359 0.0
C1045 C 0.41586 0.06251 0.73109 0.0
U1046 U 0.42995 0.03163 0.68834 0.0
O1047 O 0.4187 0.01282 0.67862 0.0
O1048 O 0.42158 0.03299 0.66591 0.0
C1049 C 0.41698 0.01946 0.66609 0.0
C1050 C 0.41756 0.04635 0.70932 0.0
C1051 C 0.40485 0.01518 0.65655 0.0
C1052 C 0.37924 0.01286 0.65015 0.0
C1053 C 0.39012 0.01729 0.66 0.0
C1054 C 0.3978 1.004 0.63372 0.0
C1055 C 0.383 0.0063 0.63679 0.0
C1056 C 0.40853 0.00845 0.64342 0.0
C1057 C 0.47115 0.02258 0.68386 0.0
C1058 C 0.48407 1.00171 0.67425 0.0
C1059 C 0.49743 0.02284 0.68261 0.0
C1060 C 0.48439 0.02981 0.68579 0.0
C1061 C 0.49747 0.00849 0.67735 0.0
C1062 C 0.47098 0.00869 0.67757 0.0
C1063 C 0.45821 0.02902 0.69056 0.0
O1064 O 0.42128 0.05228 0.69685 0.0
O1065 O 0.41806 0.03207 0.70907 0.0
O1066 O 0.44897 0.01997 0.69664 0.0
O1067 O 0.45199 0.03983 0.68366 0.0
H1068 H 0.44515 0.04305 0.71952 0.0
H1069 H 0.45589 0.05398 0.74125 0.0
H1070 H 0.41524 0.07575 0.75024 0.0
H1071 H 0.40468 0.06494 0.72831 0.0
H1072 H 0.36795 0.01484 0.65284 0.0
H1073 H 0.38706 0.02242 0.67015 0.0
H1074 H 0.40117 0.99871 0.62376 0.0
H1075 H 0.41983 0.00659 0.64063 0.0
H1076 H 0.48372 0.99076 0.66996 0.0
H1077 H 0.50746 0.02836 0.68535 0.0
H1078 H 0.48469 0.04052 0.69068 0.0
H1079 H 0.46081 1.00296 0.67593 0.0
C1080 C 0.95552 0.42388 0.72268 0.0
C1081 C 0.95855 0.43839 0.7264 0.0
C1082 C 0.94314 0.43648 0.74792 0.0
C1083 C 0.95245 0.44462 0.73888 0.0
C1084 C 0.94 0.422 0.74401 0.0
C1085 C 0.94614 0.41578 0.73152 0.0
U1086 U 0.97685 0.42948 0.68855 0.0
O1087 O 0.99563 0.41819 0.67883 0.0
O1088 O 0.9754 0.42095 0.66617 0.0
C1089 C 0.98895 0.41639 0.66633 0.0
C1090 C 0.96222 0.41725 0.70967 0.0
C1091 C 0.99329 0.40434 0.65673 0.0
C1092 C 0.99566 0.37878 0.65018 0.0
C1093 C 0.99118 0.38959 0.66007 0.0
C1094 C 0.00456 0.39745 0.6339 0.0
C1095 C 1.00226 0.38263 0.63687 0.0
C1096 C 1.00007 0.40811 0.64366 0.0
C1097 C 0.98592 0.47059 0.68369 0.0
C1098 C 0.00684 0.4835 0.67413 0.0
C1099 C 0.98547 0.49683 0.68187 0.0
C1100 C 0.97856 0.48379 0.68522 0.0
C1101 C 0.9999 0.49688 0.67682 0.0
C1102 C 0.99992 0.47041 0.67761 0.0
C1103 C 0.9795 0.45775 0.69056 0.0
O1104 O 0.95623 0.42087 0.69721 0.0
O1105 O 0.9765 0.41774 0.70935 0.0
O1106 O 0.98855 0.44856 0.69669 0.0
O1107 O 0.96863 0.45146 0.68377 0.0
H1108 H 0.96568 0.4449 0.71965 0.0
H1109 H 0.95492 0.45586 0.74137 0.0
H1110 H 0.933 0.41536 0.75075 0.0
H1111 H 0.94365 0.40459 0.72883 0.0
H1112 H 0.99368 0.36747 0.65278 0.0
H1113 H 0.98601 0.38647 0.67018 0.0
H1114 H 0.00989 0.40089 0.62399 0.0
H1115 H 1.00192 0.41943 0.64095 0.0
H1116 H 0.01787 0.48316 0.67002 0.0
H1117 H 0.97983 0.50687 0.6843 0.0
H1118 H 0.96777 0.4841 0.68995 0.0
H1119 H 0.00576 0.46028 0.67627 0.0
C1120 C 0.58468 0.05314 0.28645 0.0
C1121 C 0.57018 0.0502 0.28261 0.0
C1122 C 0.57234 0.06571 0.2612 0.0
C1123 C 0.56409 0.05639 0.27012 0.0
C1124 C 0.5868 0.06876 0.26523 0.0
C1125 C 0.59289 0.06253 0.27772 0.0
U1126 U 0.57873 0.03164 0.32042 0.0
O1127 O 0.58993 0.01281 0.33013 0.0
O1128 O 0.58705 0.03297 0.34288 0.0
C1129 C 0.59164 0.01943 0.34268 0.0
C1130 C 0.59117 0.04637 0.29948 0.0
C1131 C 0.60377 0.01515 0.35221 0.0
C1132 C 0.62939 0.01288 0.35862 0.0
C1133 C 0.6185 0.01731 0.34878 0.0
C1134 C 0.61082 1.00397 0.37502 0.0
C1135 C 0.62562 0.0063 0.37196 0.0
C1136 C 0.6001 0.0084 0.36532 0.0
C1137 C 0.53753 0.02261 0.32482 0.0
C1138 C 0.5246 1.00174 0.33444 0.0
C1139 C 0.51125 0.02284 0.32606 0.0
C1140 C 0.5243 0.02982 0.32289 0.0
C1141 C 0.51121 0.0085 0.33134 0.0
C1142 C 0.5377 0.00872 0.33112 0.0
C1143 C 0.55047 0.02904 0.31814 0.0
O1144 O 0.58744 0.05229 0.31195 0.0
O1145 O 0.59066 0.03208 0.29971 0.0
O1146 O 0.55971 0.02 0.31206 0.0
O1147 O 0.5567 0.03985 0.32508 0.0
H1148 H 0.56358 0.04306 0.28927 0.0
H1149 H 0.55286 0.05397 0.26754 0.0
H1150 H 0.59353 0.07576 0.25857 0.0
H1151 H 0.60407 0.06496 0.28051 0.0
H1152 H 0.64067 0.01489 0.35594 0.0
H1153 H 0.62156 0.02246 0.33865 0.0
H1154 H 0.60746 0.99865 0.38497 0.0
H1155 H 0.5888 0.00651 0.36811 0.0
H1156 H 0.52495 0.99079 0.33874 0.0
H1157 H 0.50122 0.02835 0.32332 0.0
H1158 H 0.524 0.04052 0.31799 0.0
H1159 H 0.54786 1.00301 0.33277 0.0
C1160 C 0.95545 0.58452 0.28631 0.0
C1161 C 0.95839 0.57003 0.28246 0.0
C1162 C 0.94287 0.57216 0.26105 0.0
C1163 C 0.95219 0.56393 0.26996 0.0
C1164 C 0.93983 0.58663 0.26509 0.0
C1165 C 0.94607 0.59273 0.27759 0.0
U1166 U 0.97694 0.57861 0.32029 0.0
O1167 O 0.99577 0.58985 0.32999 0.0
O1168 O 0.97559 0.58699 0.34274 0.0
C1169 C 0.98913 0.59158 0.34254 0.0
C1170 C 0.96223 0.59101 0.29934 0.0
C1171 C 0.99342 0.60372 0.35206 0.0
C1172 C 0.99574 0.62934 0.35843 0.0
C1173 C 0.99129 0.61844 0.34861 0.0
C1174 C 0.00462 0.61081 0.37485 0.0
C1175 C 1.00232 0.6256 0.37177 0.0
C1176 C 1.00016 0.60007 0.36518 0.0
C1177 C 0.986 0.53743 0.32477 0.0
C1178 C 0.00687 0.52454 0.3344 0.0
C1179 C 0.98576 0.51115 0.32604 0.0
C1180 C 0.97879 0.52419 0.32286 0.0
C1181 C 1.00011 0.51114 0.33131 0.0
C1182 C 0.99988 0.53763 0.33107 0.0
C1183 C 0.97956 0.55035 0.31806 0.0
O1184 O 0.9563 0.58729 0.31181 0.0
O1185 O 0.97651 0.5905 0.29958 0.0
O1186 O 0.9886 0.55959 0.31197 0.0
O1187 O 0.96873 0.55659 0.32498 0.0
H1188 H 0.96552 0.56344 0.2891 0.0
H1189 H 0.9546 0.5527 0.26737 0.0
H1190 H 0.93283 0.59335 0.25845 0.0
H1191 H 0.94364 0.6039 0.28039 0.0
H1192 H 0.99376 0.64062 0.35574 0.0
H1193 H 0.98615 0.62147 0.33847 0.0
H1194 H 0.00993 0.60746 0.3848 0.0
H1195 H 1.00202 0.58877 0.36797 0.0
H1196 H 0.01782 0.52492 0.3387 0.0
H1197 H 0.98025 0.50111 0.32331 0.0
H1198 H 0.96808 0.52387 0.31796 0.0
H1199 H 0.0056 0.5478 0.33271 0.0
C1200 C 0.42405 0.9554 0.28633 0.0
C1201 C 0.43855 0.95834 0.28248 0.0
C1202 C 0.43641 0.94281 0.26108 0.0
C1203 C 0.44465 0.95214 0.26999 0.0
C1204 C 0.42194 0.93976 0.2651 0.0
C1205 C 0.41584 0.946 0.2776 0.0
U1206 U 0.42994 0.9769 0.32032 0.0
O1207 O 0.41871 0.99571 0.33004 0.0
O1208 O 0.42157 0.97555 0.34277 0.0
C1209 C 0.41697 0.98908 0.34258 0.0
C1210 C 0.41754 0.96217 0.29936 0.0
C1211 C 0.40485 0.99336 0.35212 0.0
C1212 C 0.37924 0.99568 0.35853 0.0
C1213 C 0.39012 0.99124 0.34869 0.0
C1214 C 0.39781 0.00456 0.37494 0.0
C1215 C 0.38301 1.00225 0.37188 0.0
C1216 C 0.40853 1.0001 0.36524 0.0
C1217 C 0.47113 0.98595 0.3248 0.0
C1218 C 0.48404 0.00683 0.33442 0.0
C1219 C 0.49741 0.98571 0.32607 0.0
C1220 C 0.48436 0.97874 0.32289 0.0
C1221 C 0.49744 1.00007 0.33134 0.0
C1222 C 0.47095 0.99985 0.3311 0.0
C1223 C 0.4582 0.97951 0.31809 0.0
O1224 O 0.42126 0.95625 0.31182 0.0
O1225 O 0.41806 0.97645 0.2996 0.0
O1226 O 0.44897 0.98855 0.31201 0.0
O1227 O 0.45196 0.9687 0.325 0.0
H1228 H 0.44514 0.96549 0.28914 0.0
H1229 H 0.45589 0.95455 0.26741 0.0
H1230 H 0.41522 0.93275 0.25846 0.0
H1231 H 0.40466 0.94357 0.2804 0.0
H1232 H 0.36795 0.99369 0.35586 0.0
H1233 H 0.38706 0.9861 0.33854 0.0
H1234 H 0.40118 0.00987 0.38489 0.0
H1235 H 0.41983 1.00197 0.36802 0.0
H1236 H 0.48368 0.01779 0.33872 0.0
H1237 H 0.50744 0.9802 0.32334 0.0
H1238 H 0.48467 0.96802 0.31799 0.0
H1239 H 0.46079 0.00557 0.33273 0.0
C1240 C 0.05325 0.42404 0.28622 0.0
C1241 C 0.05029 0.43853 0.28239 0.0
C1242 C 0.06582 0.43641 0.26097 0.0
C1243 C 0.05648 0.44464 0.2699 0.0
C1244 C 0.06888 0.42195 0.265 0.0
C1245 C 0.06265 0.41585 0.27749 0.0
U1246 U 0.03175 0.42989 0.32026 0.0
O1247 O 0.01295 0.41861 0.32997 0.0
O1248 O 0.03313 0.42149 0.34268 0.0
C1249 C 0.01959 0.41688 0.3425 0.0
C1250 C 0.04647 0.41753 0.29926 0.0
C1251 C 0.0153 0.40476 0.35205 0.0
C1252 C 0.01296 0.37916 0.35846 0.0
C1253 C 0.0174 0.39003 0.34861 0.0
C1254 C 1.00413 0.39774 0.37489 0.0
C1255 C 0.00641 0.38293 0.37182 0.0
C1256 C 0.00859 0.40845 0.36518 0.0
C1257 C 0.02267 0.47107 0.32478 0.0
C1258 C 1.00179 0.48397 0.3344 0.0
C1259 C 0.02291 0.49735 0.32605 0.0
C1260 C 0.02989 0.48431 0.32287 0.0
C1261 C 0.00855 0.49737 0.33131 0.0
C1262 C 0.00878 0.47088 0.33108 0.0
C1263 C 0.02911 0.45814 0.31807 0.0
O1264 O 0.05241 0.42124 0.31173 0.0
O1265 O 0.03219 0.41802 0.29951 0.0
O1266 O 0.02008 0.4489 0.31198 0.0
O1267 O 0.03994 0.45192 0.32497 0.0
H1268 H 0.04314 0.44511 0.28905 0.0
H1269 H 0.05407 0.45586 0.26732 0.0
H1270 H 0.07589 0.41524 0.25834 0.0
H1271 H 0.06508 0.40467 0.28028 0.0
H1272 H 0.01493 0.36787 0.35578 0.0
H1273 H 0.02253 0.38696 0.33846 0.0
H1274 H 0.99884 0.40112 0.38485 0.0
H1275 H 0.00674 0.41976 0.36797 0.0
H1276 H 0.99083 0.4836 0.33869 0.0
H1277 H 0.02842 0.50738 0.32332 0.0
H1278 H 0.0406 0.48463 0.31798 0.0
H1279 H 1.00305 0.46072 0.33271 0.0
C1280 C 0.72246 0.58452 0.95545 0.0
C1281 C 0.7263 0.57004 0.95841 0.0
C1282 C 0.74771 0.57216 0.94287 0.0
C1283 C 0.73879 0.56393 0.95221 0.0
C1284 C 0.74369 0.58662 0.93982 0.0
C1285 C 0.73119 0.59272 0.94605 0.0
U1286 U 0.68843 0.57868 0.97695 0.0
O1287 O 0.67872 0.58995 0.99575 0.0
O1288 O 0.66601 0.58708 0.97557 0.0
C1289 C 0.66619 0.59168 0.98911 0.0
C1290 C 0.70943 0.59104 0.96223 0.0
C1291 C 0.65664 0.6038 0.9934 0.0
C1292 C 0.65022 0.62941 0.99572 0.0
C1293 C 0.66007 0.61854 0.99127 0.0
C1294 C 0.63382 0.61083 0.0046 0.0
C1295 C 0.63687 0.62563 1.0023 0.0
C1296 C 0.64353 0.60011 1.00015 0.0
C1297 C 0.6839 0.53749 0.98602 0.0
C1298 C 0.67429 0.52459 0.0069 0.0
C1299 C 0.68263 0.51121 0.98578 0.0
C1300 C 0.68581 0.52425 0.9788 0.0
C1301 C 0.67738 0.51119 1.00014 0.0
C1302 C 0.67761 0.53768 0.99991 0.0
C1303 C 0.69062 0.55042 0.97958 0.0
O1304 O 0.69696 0.58733 0.95629 0.0
O1305 O 0.70918 0.59054 0.97651 0.0
O1306 O 0.6967 0.55966 0.98862 0.0
O1307 O 0.68372 0.55665 0.96875 0.0
H1308 H 0.71964 0.56346 0.96556 0.0
H1309 H 0.74137 0.55271 0.95463 0.0
H1310 H 0.75034 0.59333 0.9328 0.0
H1311 H 0.7284 0.60389 0.94362 0.0
H1312 H 0.65289 0.64069 0.99373 0.0
H1313 H 0.6702 0.6216 0.98613 0.0
H1314 H 0.62387 0.60744 0.00992 0.0
H1315 H 0.64075 0.58881 1.00202 0.0
H1316 H 0.67 0.52496 0.01786 0.0
H1317 H 0.68536 0.50118 0.98026 0.0
H1318 H 0.69071 0.52394 0.96808 0.0
H1319 H 0.67598 0.54784 0.00564 0.0
C1320 C 0.42413 0.72237 0.95544 0.0
C1321 C 0.43862 0.72622 0.95837 0.0
C1322 C 0.43647 0.74762 0.94286 0.0
C1323 C 0.44472 0.73872 0.95217 0.0
C1324 C 0.422 0.74358 0.93982 0.0
C1325 C 0.41591 0.73108 0.94606 0.0
U1326 U 0.43005 0.68839 0.97694 0.0
O1327 O 0.41884 0.67869 0.99578 0.0
O1328 O 0.42168 0.66595 0.9756 0.0
C1329 C 0.4171 0.66615 0.98915 0.0
C1330 C 0.41764 0.70933 0.96223 0.0
C1331 C 0.40493 0.65665 0.99342 0.0
C1332 C 0.3793 0.65035 0.99575 0.0
C1333 C 0.39022 0.66014 0.9913 0.0
C1334 C 0.39779 0.63388 0.00462 0.0
C1335 C 0.38301 0.637 1.00233 0.0
C1336 C 0.40856 0.64353 1.00016 0.0
C1337 C 0.47123 0.68391 0.98597 0.0
C1338 C 0.48411 0.67426 0.00683 0.0
C1339 C 0.49752 0.68262 0.98574 0.0
C1340 C 0.48448 0.68582 0.97876 0.0
C1341 C 0.49752 0.67734 1.00008 0.0
C1342 C 0.47103 0.6776 0.99985 0.0
C1343 C 0.45832 0.69062 0.97953 0.0
O1344 O 0.42136 0.69687 0.95629 0.0
O1345 O 0.41816 0.7091 0.97651 0.0
O1346 O 0.44909 0.69672 0.98857 0.0
O1347 O 0.45208 0.68371 0.96871 0.0
H1348 H 0.44522 0.71958 0.9655 0.0
H1349 H 0.45595 0.74131 0.95457 0.0
H1350 H 0.41528 0.75022 0.93282 0.0
H1351 H 0.40473 0.72828 0.94365 0.0
H1352 H 0.36802 0.65307 0.99377 0.0
H1353 H 0.38721 0.67029 0.98617 0.0
H1354 H 0.40112 0.62392 0.00993 0.0
H1355 H 0.41985 0.6407 1.00202 0.0
H1356 H 0.48373 0.66995 0.01778 0.0
H1357 H 0.50756 0.68535 0.98024 0.0
H1358 H 0.48481 0.69073 0.96806 0.0
H1359 H 0.46086 0.67596 0.00557 0.0
C1360 C 0.28791 0.4224 0.9587 0.0
C1361 C 0.284 0.43694 0.96125 0.0
C1362 C 0.26209 0.43392 0.94666 0.0
C1363 C 0.27122 0.44264 0.95531 0.0
C1364 C 0.26617 0.41939 0.94403 0.0
C1365 C 0.27896 0.4137 0.95 0.0
U1366 U 0.32218 0.42981 0.97899 0.0
O1367 O 0.33259 0.41953 0.99794 0.0
O1368 O 0.34478 0.42202 0.97741 0.0
C1369 C 0.345 0.41777 0.99106 0.0
C1370 C 0.30125 0.41636 0.96523 0.0
C1371 C 0.35429 0.40539 0.99505 0.0
C1372 C 0.36011 0.37962 0.99697 0.0
C1373 C 0.35047 0.39077 0.9928 0.0
C1374 C 0.37708 0.39772 0.00579 0.0
C1375 C 0.37363 0.38303 1.00337 0.0
C1376 C 0.36758 0.40871 1.00163 0.0
C1377 C 0.32578 0.47122 0.98689 0.0
C1378 C 0.33564 0.48462 0.00734 0.0
C1379 C 0.32641 0.49752 0.98631 0.0
C1380 C 0.32335 0.48431 0.97957 0.0
C1381 C 0.33204 0.49785 1.00051 0.0
C1382 C 0.33246 0.47137 1.0006 0.0
C1383 C 0.3192 0.45805 0.98084 0.0
O1384 O 0.31345 0.42023 0.95884 0.0
O1385 O 0.30185 0.41726 0.97948 0.0
O1386 O 0.3135 0.44891 0.99022 0.0
O1387 O 0.32608 0.4517 0.97006 0.0
H1388 H 0.29083 0.44389 0.96786 0.0
H1389 H 0.26858 0.45394 0.95735 0.0
H1390 H 0.25936 0.41232 0.93754 0.0
H1391 H 0.28181 0.40247 0.94791 0.0
H1392 H 0.35715 0.36842 0.9949 0.0
H1393 H 0.34019 0.38801 0.98777 0.0
H1394 H 0.38721 0.40079 0.01096 0.0
H1395 H 0.37066 0.41992 1.00357 0.0
H1396 H 0.34021 0.48451 0.01818 0.0
H1397 H 0.3233 0.50741 0.98077 0.0
H1398 H 0.31816 0.48436 0.969 0.0
H1399 H 0.33449 0.46133 0.00639 0.0
C1400 C 0.58483 0.2862 0.95528 0.0
C1401 C 0.57034 0.28239 0.95826 0.0
C1402 C 0.57241 0.26095 0.94275 0.0
C1403 C 0.56419 0.2699 0.95208 0.0
C1404 C 0.58688 0.26495 0.93967 0.0
C1405 C 0.59301 0.27744 0.94589 0.0
U1406 U 0.57901 0.32018 0.97679 0.0
O1407 O 0.59025 0.32986 0.99562 0.0
O1408 O 0.58739 0.34262 0.97547 0.0
C1409 C 0.59197 0.34241 0.98901 0.0
C1410 C 0.59137 0.29922 0.96203 0.0
C1411 C 0.60406 0.35198 0.99333 0.0
C1412 C 0.62965 0.35848 0.99565 0.0
C1413 C 0.6188 0.34861 0.99118 0.0
C1414 C 0.61102 0.37478 0.0046 0.0
C1415 C 0.62583 0.37179 1.00228 0.0
C1416 C 0.60033 0.36506 1.00012 0.0
C1417 C 0.53788 0.32466 0.98597 0.0
C1418 C 0.52512 0.33419 0.00698 0.0
C1419 C 0.5116 0.32584 0.98596 0.0
C1420 C 0.52459 0.32272 0.97886 0.0
C1421 C 0.51168 0.33105 1.00033 0.0
C1422 C 0.53816 0.33094 0.99987 0.0
C1423 C 0.55076 0.31794 0.97945 0.0
O1424 O 0.58766 0.31169 0.95612 0.0
O1425 O 0.5909 0.29946 0.97632 0.0
O1426 O 0.56 0.31182 0.98844 0.0
O1427 O 0.55698 0.32489 0.96864 0.0
H1428 H 0.56377 0.28906 0.9654 0.0
H1429 H 0.55296 0.26734 0.95451 0.0
H1430 H 0.59358 0.25828 0.93266 0.0
H1431 H 0.6042 0.28021 0.94344 0.0
H1432 H 0.64094 0.35586 0.99365 0.0
H1433 H 0.62189 0.3385 0.986 0.0
H1434 H 0.60761 0.3847 0.00995 0.0
H1435 H 0.58902 0.36778 1.002 0.0
H1436 H 0.52556 0.33845 0.01795 0.0
H1437 H 0.50153 0.32307 0.98054 0.0
H1438 H 0.52421 0.31784 0.96814 0.0
H1439 H 0.54837 0.33259 0.00551 0.0
C1440 C 0.72237 0.42404 0.05323 0.0
C1441 C 0.72622 0.43852 0.05029 0.0
C1442 C 0.74763 0.43639 0.06581 0.0
C1443 C 0.73872 0.44463 0.05649 0.0
C1444 C 0.74359 0.42193 0.06885 0.0
C1445 C 0.73109 0.41583 0.06262 0.0
U1446 U 0.68839 0.42994 0.03174 0.0
O1447 O 0.67868 0.4187 0.01291 0.0
O1448 O 0.66594 0.42157 0.03309 0.0
C1449 C 0.66613 0.41698 0.01955 0.0
C1450 C 0.70934 0.41754 0.04645 0.0
C1451 C 0.65662 0.40483 0.01527 0.0
C1452 C 0.65028 0.37921 0.01291 0.0
C1453 C 0.6601 0.39011 0.01736 0.0
C1454 C 0.63381 0.39774 1.00411 0.0
C1455 C 0.63691 0.38294 0.00637 0.0
C1456 C 0.64348 0.40848 0.00857 0.0
C1457 C 0.68391 0.47112 0.02268 0.0
C1458 C 0.67429 0.48402 1.00182 0.0
C1459 C 0.68265 0.4974 0.02292 0.0
C1460 C 0.68583 0.48437 0.02989 0.0
C1461 C 0.67738 0.49742 0.00857 0.0
C1462 C 0.67761 0.47093 0.0088 0.0
C1463 C 0.69062 0.4582 0.02912 0.0
O1464 O 0.69687 0.42126 0.05238 0.0
O1465 O 0.7091 0.41805 0.03217 0.0
O1466 O 0.69671 0.44896 0.02008 0.0
O1467 O 0.6837 0.45197 0.03995 0.0
H1468 H 0.71957 0.44512 0.04316 0.0
H1469 H 0.74131 0.45586 0.05408 0.0
H1470 H 0.75023 0.41521 0.07586 0.0
H1471 H 0.72829 0.40465 0.06504 0.0
H1472 H 0.65299 0.36793 0.01486 0.0
H1473 H 0.67025 0.38708 0.02246 0.0
H1474 H 0.62384 0.40109 0.99883 0.0
H1475 H 0.64066 0.41978 0.00674 0.0
H1476 H 0.66999 0.48364 0.99087 0.0
H1477 H 0.68538 0.50744 0.02843 0.0
H1478 H 0.69073 0.48468 0.0406 0.0
H1479 H 0.67598 0.46076 1.00308 0.0
C1480 C 0.58465 0.7223 0.05323 0.0
C1481 C 0.57016 0.72613 0.05028 0.0
C1482 C 0.57228 0.74755 0.0658 0.0
C1483 C 0.56405 0.73862 0.05647 0.0
C1484 C 0.58674 0.74353 0.06886 0.0
C1485 C 0.59285 0.73103 0.06263 0.0
U1486 U 0.57879 0.68829 0.03173 0.0
O1487 O 0.59005 0.67858 0.01292 0.0
O1488 O 0.58716 0.66586 0.03309 0.0
C1489 C 0.59177 0.66604 0.01955 0.0
C1490 C 0.59116 0.70927 0.04646 0.0
C1491 C 0.6039 0.6565 0.01527 0.0
C1492 C 0.62951 0.6501 0.01294 0.0
C1493 C 0.61863 0.65994 0.01738 0.0
C1494 C 0.61094 0.63368 1.00409 0.0
C1495 C 0.62574 0.63675 0.00638 0.0
C1496 C 0.60022 0.64337 0.00854 0.0
C1497 C 0.5376 0.68381 0.02265 0.0
C1498 C 0.52469 0.67422 1.00176 0.0
C1499 C 0.51131 0.68257 0.02288 0.0
C1500 C 0.52436 0.68573 0.02987 0.0
C1501 C 0.51129 0.67732 0.00852 0.0
C1502 C 0.53778 0.67753 0.00875 0.0
C1503 C 0.55053 0.69051 0.0291 0.0
O1504 O 0.58744 0.6968 0.05239 0.0
O1505 O 0.59068 0.70902 0.03218 0.0
O1506 O 0.55978 0.69659 0.02006 0.0
O1507 O 0.55675 0.6836 0.03992 0.0
H1508 H 0.56358 0.71947 0.04313 0.0
H1509 H 0.55282 0.7412 0.05405 0.0
H1510 H 0.59345 0.75019 0.07587 0.0
H1511 H 0.60402 0.72825 0.06507 0.0
H1512 H 0.6408 0.65278 0.01492 0.0
H1513 H 0.62169 0.67009 0.02252 0.0
H1514 H 0.60757 0.62372 0.99879 0.0
H1515 H 0.58892 0.64058 0.00668 0.0
H1516 H 0.52505 0.66994 0.9908 0.0
H1517 H 0.50128 0.68531 0.0284 0.0
H1518 H 0.52405 0.69062 0.04059 0.0
H1519 H 0.54795 0.67589 1.00303 0.0
C1520 C 0.28601 0.5847 0.05316 0.0
C1521 C 0.2823 0.57018 0.05014 0.0
C1522 C 0.26078 0.5721 0.06554 0.0
C1523 C 0.26982 0.56396 0.05624 0.0
C1524 C 0.26468 0.58658 0.06868 0.0
C1525 C 0.27717 0.5928 0.06253 0.0
U1526 U 0.32015 0.57909 0.03183 0.0
O1527 O 0.32987 0.59038 0.01305 0.0
O1528 O 0.34253 0.58762 0.03329 0.0
C1529 C 0.34237 0.59218 0.01974 0.0
C1530 C 0.29903 0.59133 0.04647 0.0
C1531 C 0.35197 0.60423 0.0154 0.0
C1532 C 0.35851 0.6298 0.01302 0.0
C1533 C 0.34862 0.61898 0.0175 0.0
C1534 C 0.3748 0.61112 1.00415 0.0
C1535 C 0.37183 0.62594 0.00643 0.0
C1536 C 0.36505 0.60046 0.00864 0.0
C1537 C 0.32501 0.53798 0.02277 0.0
C1538 C 0.33458 0.52507 1.00187 0.0
C1539 C 0.32683 0.51174 0.02324 0.0
C1540 C 0.32347 0.52478 0.03014 0.0
C1541 C 0.33188 0.51169 0.00881 0.0
C1542 C 0.3311 0.53815 0.00878 0.0
C1543 C 0.31813 0.55083 0.02919 0.0
O1544 O 0.31149 0.58771 0.05245 0.0
O1545 O 0.29935 0.59084 0.03218 0.0
O1546 O 0.31201 0.56001 0.02014 0.0
O1547 O 0.32493 0.55711 0.04006 0.0
H1548 H 0.28905 0.56367 0.04302 0.0
H1549 H 0.26734 0.55272 0.05378 0.0
H1550 H 0.25794 0.59322 0.07567 0.0
H1551 H 0.27986 0.604 0.06502 0.0
H1552 H 0.3559 0.6411 0.01499 0.0
H1553 H 0.3385 0.6221 0.02266 0.0
H1554 H 0.38473 0.60769 0.99883 0.0
H1555 H 0.36777 0.58914 0.0068 0.0
H1556 H 0.33869 0.5254 0.99084 0.0
H1557 H 0.32439 0.50171 0.02888 0.0
H1558 H 0.31874 0.52447 0.04093 0.0
H1559 H 0.33244 0.54829 1.00294 0.0
C1560 C 0.42455 0.28572 0.05374 0.0
C1561 C 0.43904 0.28184 0.05084 0.0
C1562 C 0.43674 0.26041 0.06629 0.0
C1563 C 0.44506 0.26932 0.05702 0.0
C1564 C 0.42228 0.26448 0.0693 0.0
C1565 C 0.41626 0.27701 0.06308 0.0
U1566 U 0.43083 0.31961 0.03228 0.0
O1567 O 0.41982 0.3294 0.01339 0.0
O1568 O 0.42269 0.34212 0.03357 0.0
C1569 C 0.41819 0.34196 0.02001 0.0
C1570 C 0.41815 0.29879 0.04697 0.0
C1571 C 0.40616 0.35158 0.0157 0.0
C1572 C 0.38065 0.35851 0.014 0.0
C1573 C 0.39142 0.34851 0.01831 0.0
C1574 C 0.39933 0.37432 1.00429 0.0
C1575 C 0.38455 0.37165 0.00712 0.0
C1576 C 0.40995 0.36446 0.00859 0.0
C1577 C 0.47191 0.32397 0.02323 0.0
C1578 C 0.48453 0.33393 1.00234 0.0
C1579 C 0.49818 0.32544 0.0232 0.0
C1580 C 0.48523 0.32206 0.03028 0.0
C1581 C 0.49801 0.33087 0.00892 0.0
C1582 C 0.47154 0.33043 0.00942 0.0
C1583 C 0.45907 0.31717 0.02975 0.0
O1584 O 0.42196 0.31123 0.0529 0.0
O1585 O 0.4187 0.29901 0.03268 0.0
O1586 O 0.44982 0.31108 0.02073 0.0
O1587 O 0.45285 0.32411 0.04057 0.0
H1588 H 0.44569 0.28849 0.04375 0.0
H1589 H 0.45629 0.2667 0.05464 0.0
H1590 H 0.41551 0.25783 0.07627 0.0
H1591 H 0.40508 0.27983 0.06547 0.0
H1592 H 0.36936 0.35615 0.01637 0.0
H1593 H 0.38829 0.33855 0.02375 0.0
H1594 H 0.40277 0.38413 0.99875 0.0
H1595 H 0.42126 0.36696 0.00637 0.0
H1596 H 0.48402 0.33835 0.99144 0.0
H1597 H 0.50829 0.32272 0.02856 0.0
H1598 H 0.48569 0.31705 0.04093 0.0
H1599 H 0.4613 0.33207 1.00384 0.0
C1600 C 0.95497 0.72285 0.58415 0.0
C1601 C 0.95787 0.72673 0.56966 0.0
C1602 C 0.94243 0.74817 0.57195 0.0
C1603 C 0.95169 0.73925 0.56363 0.0
C1604 C 0.93942 0.74411 0.58641 0.0
C1605 C 0.94564 0.73158 0.59244 0.0
U1606 U 0.97642 0.68896 0.57788 0.0
O1607 O 0.99531 0.67917 0.58889 0.0
O1608 O 0.97512 0.66646 0.58601 0.0
C1609 C 0.98868 0.66661 0.59052 0.0
C1610 C 0.96174 0.70979 0.59055 0.0
C1611 C 0.99299 0.65699 0.60254 0.0
C1612 C 0.99472 0.65006 0.62805 0.0
C1613 C 0.99041 0.66007 0.61728 0.0
C1614 C 0.00438 0.63423 0.60935 0.0
C1615 C 1.00158 0.63691 0.62414 0.0
C1616 C 1.00008 0.6441 0.59874 0.0
C1617 C 0.98547 0.68459 0.5368 0.0
C1618 C 0.00636 0.67462 0.52418 0.0
C1619 C 0.98549 0.6831 0.51053 0.0
C1620 C 0.97842 0.68648 0.52348 0.0
C1621 C 0.99977 0.67767 0.51069 0.0
C1622 C 0.99928 0.67812 0.53717 0.0
C1623 C 0.97895 0.69139 0.54963 0.0
O1624 O 0.9558 0.69735 0.58674 0.0
O1625 O 0.97602 0.70956 0.59 0.0
O1626 O 0.98797 0.69748 0.55888 0.0
O1627 O 0.96813 0.68446 0.55585 0.0
H1628 H 0.96496 0.72007 0.56301 0.0
H1629 H 0.95407 0.74186 0.5524 0.0
H1630 H 0.93246 0.75076 0.59318 0.0
H1631 H 0.94325 0.72876 0.60362 0.0
H1632 H 0.99237 0.65243 0.63934 0.0
H1633 H 0.98499 0.67003 0.62042 0.0
H1634 H 0.0099 0.62442 0.60591 0.0
H1635 H 1.00228 0.64159 0.58743 0.0
H1636 H 0.01726 0.67021 0.52468 0.0
H1637 H 0.98012 0.68581 0.50042 0.0
H1638 H 0.96776 0.69149 0.52302 0.0
H1639 H 0.00486 0.6765 0.5474 0.0
C1640 C 0.95545 0.28627 0.42405 0.0
C1641 C 0.95841 0.28244 0.43853 0.0
C1642 C 0.94288 0.26102 0.43642 0.0
C1643 C 0.95222 0.26995 0.44465 0.0
C1644 C 0.93982 0.26505 0.42196 0.0
C1645 C 0.94605 0.27754 0.41585 0.0
U1646 U 0.97696 0.32028 0.42991 0.0
O1647 O 0.99578 0.32999 0.41864 0.0
O1648 O 0.97561 0.34271 0.42152 0.0
C1649 C 0.98914 0.34252 0.41691 0.0
C1650 C 0.96223 0.2993 0.41753 0.0
C1651 C 0.99343 0.35206 0.40479 0.0
C1652 C 0.99573 0.35847 0.37918 0.0
C1653 C 0.99129 0.34863 0.39006 0.0
C1654 C 0.00464 0.37487 0.39775 0.0
C1655 C 1.00233 0.37182 0.38295 0.0
C1656 C 1.00019 0.36517 0.40847 0.0
C1657 C 0.98604 0.32477 0.47109 0.0
C1658 C 0.00693 0.33435 0.484 0.0
C1659 C 0.98581 0.32601 0.49738 0.0
C1660 C 0.97882 0.32285 0.48434 0.0
C1661 C 1.00017 0.33126 0.49741 0.0
C1662 C 0.99994 0.33105 0.47091 0.0
C1663 C 0.97959 0.31807 0.45816 0.0
O1664 O 0.9563 0.31177 0.42125 0.0
O1665 O 0.97651 0.29955 0.41802 0.0
O1666 O 0.98862 0.31198 0.44891 0.0
O1667 O 0.96877 0.32498 0.45194 0.0
H1668 H 0.96556 0.2891 0.44512 0.0
H1669 H 0.95464 0.26737 0.45587 0.0
H1670 H 0.9328 0.25839 0.41525 0.0
H1671 H 0.94361 0.28033 0.40468 0.0
H1672 H 0.99373 0.3558 0.36789 0.0
H1673 H 0.98614 0.3385 0.387 0.0
H1674 H 0.00997 0.38482 0.40112 0.0
H1675 H 1.00207 0.36795 0.41977 0.0
H1676 H 0.01789 0.33864 0.48364 0.0
H1677 H 0.98029 0.32327 0.50741 0.0
H1678 H 0.9681 0.31796 0.48465 0.0
H1679 H 0.00566 0.33269 0.46074 0.0
C1680 C 0.72226 0.95541 0.42403 0.0
C1681 C 0.7261 0.95836 0.43852 0.0
C1682 C 0.74751 0.94285 0.43637 0.0
C1683 C 0.73859 0.95217 0.44462 0.0
C1684 C 0.74348 0.9398 0.4219 0.0
C1685 C 0.73099 0.94603 0.41581 0.0
U1686 U 0.68829 0.97692 0.42998 0.0
O1687 O 0.67858 0.99575 0.41878 0.0
O1688 O 0.66583 0.97559 0.42166 0.0
C1689 C 0.66603 0.98913 0.41707 0.0
C1690 C 0.70923 0.96219 0.41754 0.0
C1691 C 0.6565 0.99341 0.40494 0.0
C1692 C 0.65009 0.99568 0.37932 0.0
C1693 C 0.65993 0.99125 0.39021 0.0
C1694 C 0.63369 0.00459 0.39789 0.0
C1695 C 0.63675 1.00226 0.38309 0.0
C1696 C 0.64339 1.00016 0.40861 0.0
C1697 C 0.68389 0.98596 0.47118 0.0
C1698 C 0.67427 0.00682 0.4841 0.0
C1699 C 0.68265 0.98572 0.49746 0.0
C1700 C 0.68582 0.97875 0.48441 0.0
C1701 C 0.67737 1.00006 0.4975 0.0
C1702 C 0.67759 0.99984 0.471 0.0
C1703 C 0.69058 0.97952 0.45823 0.0
O1704 O 0.69676 0.95627 0.42127 0.0
O1705 O 0.709 0.97647 0.41805 0.0
O1706 O 0.69665 0.98856 0.44899 0.0
O1707 O 0.68364 0.96871 0.452 0.0
H1708 H 0.71945 0.9655 0.44512 0.0
H1709 H 0.74118 0.95458 0.45585 0.0
H1710 H 0.75013 0.93279 0.41518 0.0
H1711 H 0.7282 0.9436 0.40463 0.0
H1712 H 0.65277 0.99367 0.36804 0.0
H1713 H 0.67006 0.9861 0.38715 0.0
H1714 H 0.62374 0.00991 0.40125 0.0
H1715 H 0.6406 1.00205 0.41991 0.0
H1716 H 0.66996 0.01776 0.48375 0.0
H1717 H 0.68539 0.98022 0.50749 0.0
H1718 H 0.69073 0.96804 0.48471 0.0
H1719 H 0.67594 0.00555 0.46084 0.0
C1720 C 0.05339 0.72234 0.42385 0.0
C1721 C 0.05043 0.72614 0.43836 0.0
C1722 C 0.06593 0.74758 0.43628 0.0
C1723 C 0.05661 0.73863 0.4445 0.0
C1724 C 0.06899 0.74359 0.42181 0.0
C1725 C 0.06277 0.7311 0.41567 0.0
U1726 U 0.03188 0.68836 0.42969 0.0
O1727 O 0.01305 0.67867 0.41845 0.0
O1728 O 0.0332 0.66592 0.42132 0.0
C1729 C 0.01967 0.66612 0.41673 0.0
C1730 C 0.04664 0.70931 0.41732 0.0
C1731 C 0.01535 0.65655 0.40464 0.0
C1732 C 0.01299 0.65008 0.37905 0.0
C1733 C 0.01746 0.65995 0.3899 0.0
C1734 C 1.00412 0.63373 0.39767 0.0
C1735 C 0.00641 0.63675 0.38286 0.0
C1736 C 0.0086 0.64345 0.40837 0.0
C1737 C 0.02271 0.68389 0.47082 0.0
C1738 C 1.00171 0.67435 0.48359 0.0
C1739 C 0.02273 0.68272 0.4971 0.0
C1740 C 0.02982 0.68583 0.48411 0.0
C1741 C 0.00836 0.6775 0.49702 0.0
C1742 C 0.00881 0.6776 0.47054 0.0
C1743 C 0.02922 0.6906 0.45794 0.0
O1744 O 0.05255 0.69684 0.42103 0.0
O1745 O 0.03235 0.70907 0.41779 0.0
O1746 O 0.02023 0.69672 0.4487 0.0
O1747 O 0.04004 0.68366 0.45172 0.0
H1748 H 0.04329 0.71946 0.44493 0.0
H1749 H 0.05419 0.74118 0.45574 0.0
H1750 H 0.07599 0.75027 0.4151 0.0
H1751 H 0.06521 0.72834 0.40448 0.0
H1752 H 0.01497 0.65272 0.36775 0.0
H1753 H 0.02261 0.67007 0.38681 0.0
H1754 H 0.9988 0.62379 0.40108 0.0
H1755 H 0.00675 0.64071 0.41968 0.0
H1756 H 0.99074 0.67008 0.48315 0.0
H1757 H 0.02815 0.68549 0.50717 0.0
H1758 H 0.04054 0.69072 0.48448 0.0
H1759 H 1.00317 0.67594 0.46034 0.0
C1760 C 0.28635 0.05316 0.42407 0.0
C1761 C 0.2825 0.05022 0.43856 0.0
C1762 C 0.2611 0.06574 0.43642 0.0
C1763 C 0.27 0.05642 0.44466 0.0
C1764 C 0.26514 0.06879 0.42196 0.0
C1765 C 0.27763 0.06255 0.41586 0.0
U1766 U 0.32034 0.03166 0.42996 0.0
O1767 O 0.33004 0.01285 0.41871 0.0
O1768 O 0.34278 0.03302 0.42159 0.0
C1769 C 0.34259 0.01948 0.41699 0.0
C1770 C 0.29938 0.04638 0.41757 0.0
C1771 C 0.35213 0.0152 0.40486 0.0
C1772 C 0.35855 0.01289 0.37925 0.0
C1773 C 0.3487 0.01733 0.39013 0.0
C1774 C 0.37493 1.00401 0.39781 0.0
C1775 C 0.37188 0.00632 0.38301 0.0
C1776 C 0.36523 0.00846 0.40854 0.0
C1777 C 0.3248 0.0226 0.47115 0.0
C1778 C 0.33441 1.00173 0.48405 0.0
C1779 C 0.32606 0.02284 0.49743 0.0
C1780 C 0.32289 0.02981 0.48439 0.0
C1781 C 0.33132 0.0085 0.49746 0.0
C1782 C 0.33109 0.00871 0.47096 0.0
C1783 C 0.3181 0.02903 0.45822 0.0
O1784 O 0.31185 0.05231 0.42129 0.0
O1785 O 0.29961 0.0321 0.41807 0.0
O1786 O 0.31202 0.02 0.44898 0.0
O1787 O 0.32502 0.03986 0.45199 0.0
H1788 H 0.28914 0.04308 0.44515 0.0
H1789 H 0.26741 0.05401 0.45589 0.0
H1790 H 0.2585 0.07579 0.41524 0.0
H1791 H 0.28044 0.06497 0.40468 0.0
H1792 H 0.35588 0.01489 0.36796 0.0
H1793 H 0.33857 0.02247 0.38708 0.0
H1794 H 0.38488 0.99869 0.40118 0.0
H1795 H 0.36801 0.00659 0.41983 0.0
H1796 H 0.3387 0.99078 0.48369 0.0
H1797 H 0.32333 0.02836 0.50747 0.0
H1798 H 0.31799 0.04053 0.4847 0.0
H1799 H 0.33273 1.00299 0.4608 0.0
C1800 C 0.05326 0.28622 0.58456 0.0
C1801 C 0.05032 0.28236 0.57007 0.0
C1802 C 0.06584 0.26096 0.57222 0.0
C1803 C 0.05652 0.26987 0.56397 0.0
C1804 C 0.06888 0.26501 0.58668 0.0
C1805 C 0.06264 0.27751 0.59278 0.0
U1806 U 0.03176 0.32019 0.57864 0.0
O1807 O 0.01292 0.32989 0.58985 0.0
O1808 O 0.03309 0.34264 0.587 0.0
C1809 C 0.01955 0.34244 0.59159 0.0
C1810 C 0.04647 0.29925 0.59105 0.0
C1811 C 0.01527 0.35193 0.60376 0.0
C1812 C 0.01293 0.35822 0.62939 0.0
C1813 C 0.01738 0.34843 0.61847 0.0
C1814 C 1.00409 0.37471 0.6109 0.0
C1815 C 0.00637 0.37158 0.62569 0.0
C1816 C 0.00856 0.36507 0.60013 0.0
C1817 C 0.02272 0.32467 0.53746 0.0
C1818 C 1.00186 0.33432 0.52458 0.0
C1819 C 0.02295 0.32595 0.51117 0.0
C1820 C 0.02993 0.32276 0.52421 0.0
C1821 C 0.00861 0.33123 0.51117 0.0
C1822 C 0.00884 0.33098 0.53766 0.0
C1823 C 0.02916 0.31796 0.55038 0.0
O1824 O 0.0524 0.31172 0.58733 0.0
O1825 O 0.03219 0.29948 0.59054 0.0
O1826 O 0.02012 0.31186 0.55961 0.0
O1827 O 0.03998 0.32488 0.55661 0.0
H1828 H 0.04319 0.28901 0.56347 0.0
H1829 H 0.05412 0.26727 0.55274 0.0
H1830 H 0.07588 0.25837 0.59341 0.0
H1831 H 0.06506 0.28031 0.60396 0.0
H1832 H 0.01489 0.35549 0.64067 0.0
H1833 H 0.0225 0.33827 0.62148 0.0
H1834 H 0.99879 0.38468 0.60757 0.0
H1835 H 0.00671 0.3679 0.58884 0.0
H1836 H 0.99091 0.33863 0.52496 0.0
H1837 H 0.02845 0.32322 0.50113 0.0
H1838 H 0.04063 0.31785 0.52388 0.0
H1839 H 1.00313 0.33262 0.54783 0.0
C1840 C 0.72238 0.05319 0.58464 0.0
C1841 C 0.72622 0.05024 0.57015 0.0
C1842 C 0.74762 0.06578 0.57228 0.0
C1843 C 0.73871 0.05644 0.56404 0.0
C1844 C 0.74359 0.06883 0.58674 0.0
C1845 C 0.7311 0.06259 0.59285 0.0
U1846 U 0.68838 0.03168 0.57875 0.0
O1847 O 0.67867 0.01287 0.58999 0.0
O1848 O 0.66594 0.03303 0.58714 0.0
C1849 C 0.66613 0.0195 0.59173 0.0
C1850 C 0.70934 0.04642 0.59115 0.0
C1851 C 0.65659 0.01521 0.60385 0.0
C1852 C 0.65017 0.01292 0.62946 0.0
C1853 C 0.66001 0.01736 0.61858 0.0
C1854 C 0.63378 1.00399 0.61089 0.0
C1855 C 0.63683 0.00632 0.62569 0.0
C1856 C 0.64348 0.00845 0.60017 0.0
C1857 C 0.6839 0.02262 0.53757 0.0
C1858 C 0.67429 1.00174 0.52466 0.0
C1859 C 0.68263 0.02286 0.51129 0.0
C1860 C 0.68581 0.02984 0.52434 0.0
C1861 C 0.67737 0.0085 0.51126 0.0
C1862 C 0.67761 0.00873 0.53776 0.0
C1863 C 0.69061 0.02907 0.5505 0.0
O1864 O 0.69688 0.05234 0.58744 0.0
O1865 O 0.7091 0.03213 0.59064 0.0
O1866 O 0.69669 0.02003 0.55972 0.0
O1867 O 0.6837 0.03988 0.55674 0.0
H1868 H 0.71956 0.04309 0.56356 0.0
H1869 H 0.7413 0.05402 0.55281 0.0
H1870 H 0.75024 0.07585 0.59346 0.0
H1871 H 0.7283 0.06503 0.60402 0.0
H1872 H 0.65283 0.01492 0.64075 0.0
H1873 H 0.67015 0.02251 0.62164 0.0
H1874 H 0.62384 0.99867 0.60752 0.0
H1875 H 0.64071 0.00657 0.58887 0.0
H1876 H 0.66999 0.99078 0.52502 0.0
H1877 H 0.68536 0.02837 0.50126 0.0
H1878 H 0.69071 0.04055 0.52403 0.0
H1879 H 0.67598 1.00301 0.54792 0.0
C1880 C 0.2863 0.9554 0.58462 0.0
C1881 C 0.28247 0.95836 0.57013 0.0
C1882 C 0.26104 0.94283 0.57226 0.0
C1883 C 0.26997 0.95216 0.56403 0.0
C1884 C 0.26507 0.93977 0.58672 0.0
C1885 C 0.27757 0.94601 0.59282 0.0
U1886 U 0.32032 0.9769 0.57873 0.0
O1887 O 0.33003 0.99571 0.58999 0.0
O1888 O 0.34275 0.97553 0.5871 0.0
C1889 C 0.34257 0.98907 0.59171 0.0
C1890 C 0.29934 0.96217 0.59112 0.0
C1891 C 0.35211 0.99335 0.60384 0.0
C1892 C 0.35853 0.99564 0.62944 0.0
C1893 C 0.34868 0.99121 0.61857 0.0
C1894 C 0.37492 0.00456 0.61087 0.0
C1895 C 0.37187 1.00223 0.62567 0.0
C1896 C 0.36522 1.00011 0.60015 0.0
C1897 C 0.3248 0.98596 0.53754 0.0
C1898 C 0.33441 0.00683 0.52463 0.0
C1899 C 0.32605 0.98571 0.51126 0.0
C1900 C 0.32288 0.97874 0.5243 0.0
C1901 C 0.33132 1.00007 0.51123 0.0
C1902 C 0.33109 0.99985 0.53772 0.0
C1903 C 0.31809 0.97952 0.55048 0.0
O1904 O 0.3118 0.95625 0.5874 0.0
O1905 O 0.29959 0.97646 0.59063 0.0
O1906 O 0.31202 0.98856 0.55972 0.0
O1907 O 0.325 0.9687 0.5567 0.0
H1908 H 0.28912 0.9655 0.56354 0.0
H1909 H 0.26739 0.95458 0.5528 0.0
H1910 H 0.25842 0.93276 0.59344 0.0
H1911 H 0.28036 0.94357 0.60399 0.0
H1912 H 0.35586 0.99364 0.64073 0.0
H1913 H 0.33855 0.98605 0.62163 0.0
H1914 H 0.38487 0.00988 0.6075 0.0
H1915 H 0.368 1.00199 0.58885 0.0
H1916 H 0.3387 0.01779 0.52499 0.0
H1917 H 0.32332 0.9802 0.50123 0.0
H1918 H 0.31798 0.96802 0.52399 0.0
H1919 H 0.33273 0.00558 0.54789 0.0
loop_
_geom_bond_atom_site_label_1
_geom_bond_atom_site_label_2
_geom_bond_distance
_geom_bond_site_symmetry_2
_ccdc_geom_bond_type
C0 C1 1.264 . S
C0 C5 1.479 . S
C0 C10 1.465 . S
C1 C0 1.264 . S
C1 C3 1.339 . S
C1 H28 0.931 . S
C2 C3 1.395 . S
C2 C4 1.320 . S
C3 C1 1.339 . S
C3 C2 1.395 . S
C3 H29 0.929 . S
C4 C2 1.320 . S
C4 C5 1.405 . S
C4 H30 0.930 . S
C5 C0 1.479 . S
C5 C4 1.405 . S
C5 H31 0.931 . S
U6 O7 2.454 . S
U6 O8 2.458 . S
U6 C9 2.984 . S
U6 C10 2.847 . S
U6 C23 2.882 . S
U6 O24 2.441 . S
U6 O25 2.420 . S
U6 O26 2.455 . S
U6 O27 2.449 . S
O7 U6 2.454 . S
O7 C9 1.353 . S
O8 U6 2.458 . S
O8 C9 1.286 . S
C9 U6 2.984 . S
C9 O7 1.353 . S
C9 O8 1.286 . S
C9 C11 1.363 . S
C10 C0 1.465 . S
C10 U6 2.847 . S
C10 O24 1.249 . S
C10 O25 1.202 . S
C11 C9 1.363 . S
C11 C13 1.408 . S
C11 C16 1.342 . S
C12 C13 1.310 . S
C12 C15 1.461 . S
C12 H32 0.932 . S
C13 C11 1.408 . S
C13 C12 1.310 . S
C13 H33 0.930 . S
C14 C15 1.474 . S
C14 C16 1.285 . S
C14 H34 0.929 . S
C15 C12 1.461 . S
C15 C14 1.474 . S
C16 C11 1.342 . S
C16 C14 1.285 . S
C16 H35 0.930 . S
C17 C20 1.424 . S
C17 C22 1.245 . S
C17 C23 1.428 . S
C18 C21 1.223 1_455 S
C18 C22 1.477 . S
C18 H36 0.932 . S
C19 C20 1.384 . S
C19 C21 1.469 1_455 S
C19 H37 0.929 1_455 S
C20 C17 1.424 . S
C20 C19 1.384 . S
C20 H38 0.928 . S
C21 C18 1.223 1_655 S
C21 C19 1.469 1_655 S
C22 C17 1.245 . S
C22 C18 1.477 . S
C22 H39 0.932 . S
C23 U6 2.882 . S
C23 C17 1.428 . S
C23 O26 1.301 . S
C23 O27 1.282 . S
O24 U6 2.441 . S
O24 C10 1.249 . S
O25 U6 2.420 . S
O25 C10 1.202 . S
O26 U6 2.455 . S
O26 C23 1.301 . S
O27 U6 2.449 . S
O27 C23 1.282 . S
H28 C1 0.931 . S
H29 C3 0.929 . S
H30 C4 0.930 . S
H31 C5 0.931 . S
H32 C12 0.932 . S
H33 C13 0.930 . S
H34 C14 0.929 . S
H35 C16 0.930 . S
H36 C18 0.932 . S
H37 C19 0.929 1_655 S
H38 C20 0.928 . S
H39 C22 0.932 . S
C40 C41 1.264 . S
C40 C45 1.479 . S
C40 C50 1.465 . S
C41 C40 1.264 . S
C41 C43 1.339 . S
C41 H68 0.931 . S
C42 C43 1.395 . S
C42 C44 1.320 . S
C43 C41 1.339 . S
C43 C42 1.395 . S
C43 H69 0.929 . S
C44 C42 1.320 . S
C44 C45 1.405 . S
C44 H70 0.930 . S
C45 C40 1.479 . S
C45 C44 1.405 . S
C45 H71 0.931 . S
U46 O47 2.454 . S
U46 O48 2.458 . S
U46 C49 2.984 . S
U46 C50 2.847 . S
U46 C63 2.882 . S
U46 O64 2.441 . S
U46 O65 2.420 . S
U46 O66 2.455 . S
U46 O67 2.449 . S
O47 U46 2.454 . S
O47 C49 1.353 . S
O48 U46 2.458 . S
O48 C49 1.286 . S
C49 U46 2.984 . S
C49 O47 1.353 . S
C49 O48 1.286 . S
C49 C51 1.363 . S
C50 C40 1.465 . S
C50 U46 2.847 . S
C50 O64 1.249 . S
C50 O65 1.202 . S
C51 C49 1.363 . S
C51 C53 1.408 . S
C51 C56 1.342 . S
C52 C53 1.310 . S
C52 C55 1.461 . S
C52 H72 0.932 . S
C53 C51 1.408 . S
C53 C52 1.310 . S
C53 H73 0.930 . S
C54 C55 1.474 . S
C54 C56 1.285 . S
C54 H74 0.929 . S
C55 C52 1.461 . S
C55 C54 1.474 . S
C56 C51 1.342 . S
C56 C54 1.285 . S
C56 H75 0.930 . S
C57 C60 1.424 . S
C57 C62 1.245 . S
C57 C63 1.428 . S
C58 C61 1.223 1_545 S
C58 C62 1.477 . S
C58 H76 0.932 . S
C59 C60 1.384 . S
C59 C61 1.469 1_545 S
C59 H77 0.929 1_545 S
C60 C57 1.424 . S
C60 C59 1.384 . S
C60 H78 0.928 . S
C61 C58 1.223 1_565 S
C61 C59 1.469 1_565 S
C62 C57 1.245 . S
C62 C58 1.477 . S
C62 H79 0.932 . S
C63 U46 2.882 . S
C63 C57 1.428 . S
C63 O66 1.301 . S
C63 O67 1.282 . S
O64 U46 2.441 . S
O64 C50 1.249 . S
O65 U46 2.420 . S
O65 C50 1.202 . S
O66 U46 2.455 . S
O66 C63 1.301 . S
O67 U46 2.449 . S
O67 C63 1.282 . S
H68 C41 0.931 . S
H69 C43 0.929 . S
H70 C44 0.930 . S
H71 C45 0.931 . S
H72 C52 0.932 . S
H73 C53 0.930 . S
H74 C54 0.929 . S
H75 C56 0.930 . S
H76 C58 0.932 . S
H77 C59 0.929 1_565 S
H78 C60 0.928 . S
H79 C62 0.932 . S
C80 C81 1.264 . S
C80 C85 1.479 . S
C80 C90 1.465 . S
C81 C80 1.264 . S
C81 C83 1.339 . S
C81 H108 0.931 . S
C82 C83 1.395 . S
C82 C84 1.320 . S
C83 C81 1.339 . S
C83 C82 1.395 . S
C83 H109 0.929 . S
C84 C82 1.320 . S
C84 C85 1.405 . S
C84 H110 0.930 . S
C85 C80 1.479 . S
C85 C84 1.405 . S
C85 H111 0.931 . S
U86 O87 2.454 . S
U86 O88 2.458 . S
U86 C89 2.984 . S
U86 C90 2.847 . S
U86 C103 2.882 . S
U86 O104 2.441 . S
U86 O105 2.420 . S
U86 O106 2.455 . S
U86 O107 2.449 . S
O87 U86 2.454 . S
O87 C89 1.353 . S
O88 U86 2.458 . S
O88 C89 1.286 . S
C89 U86 2.984 . S
C89 O87 1.353 . S
C89 O88 1.286 . S
C89 C91 1.363 . S
C90 C80 1.465 . S
C90 U86 2.847 . S
C90 O104 1.249 . S
C90 O105 1.202 . S
C91 C89 1.363 . S
C91 C93 1.408 . S
C91 C96 1.342 . S
C92 C93 1.310 . S
C92 C95 1.461 . S
C92 H112 0.932 . S
C93 C91 1.408 . S
C93 C92 1.310 . S
C93 H113 0.930 . S
C94 C95 1.474 . S
C94 C96 1.285 . S
C94 H114 0.929 . S
C95 C92 1.461 . S
C95 C94 1.474 . S
C96 C91 1.342 . S
C96 C94 1.285 . S
C96 H115 0.930 . S
C97 C100 1.424 . S
C97 C102 1.245 . S
C97 C103 1.428 . S
C98 C101 1.223 1_655 S
C98 C102 1.477 . S
C98 H116 0.932 . S
C99 C100 1.384 . S
C99 C101 1.469 1_655 S
C99 H117 0.929 1_655 S
C100 C97 1.424 . S
C100 C99 1.384 . S
C100 H118 0.928 . S
C101 C98 1.223 1_455 S
C101 C99 1.469 1_455 S
C102 C97 1.245 . S
C102 C98 1.477 . S
C102 H119 0.932 . S
C103 U86 2.882 . S
C103 C97 1.428 . S
C103 O106 1.301 . S
C103 O107 1.282 . S
O104 U86 2.441 . S
O104 C90 1.249 . S
O105 U86 2.420 . S
O105 C90 1.202 . S
O106 U86 2.455 . S
O106 C103 1.301 . S
O107 U86 2.449 . S
O107 C103 1.282 . S
H108 C81 0.931 . S
H109 C83 0.929 . S
H110 C84 0.930 . S
H111 C85 0.931 . S
H112 C92 0.932 . S
H113 C93 0.930 . S
H114 C94 0.929 . S
H115 C96 0.930 . S
H116 C98 0.932 . S
H117 C99 0.929 1_455 S
H118 C100 0.928 . S
H119 C102 0.932 . S
C120 C121 1.264 . S
C120 C125 1.479 . S
C120 C130 1.465 . S
C121 C120 1.264 . S
C121 C123 1.339 . S
C121 H148 0.931 . S
C122 C123 1.395 . S
C122 C124 1.320 . S
C123 C121 1.339 . S
C123 C122 1.395 . S
C123 H149 0.929 . S
C124 C122 1.320 . S
C124 C125 1.405 . S
C124 H150 0.930 . S
C125 C120 1.479 . S
C125 C124 1.405 . S
C125 H151 0.931 . S
U126 O127 2.454 . S
U126 O128 2.458 . S
U126 C129 2.984 . S
U126 C130 2.847 . S
U126 C143 2.882 . S
U126 O144 2.441 . S
U126 O145 2.420 . S
U126 O146 2.455 . S
U126 O147 2.449 . S
O127 U126 2.454 . S
O127 C129 1.353 . S
O128 U126 2.458 . S
O128 C129 1.286 . S
C129 U126 2.984 . S
C129 O127 1.353 . S
C129 O128 1.286 . S
C129 C131 1.363 . S
C130 C120 1.465 . S
C130 U126 2.847 . S
C130 O144 1.249 . S
C130 O145 1.202 . S
C131 C129 1.363 . S
C131 C133 1.408 . S
C131 C136 1.342 . S
C132 C133 1.310 . S
C132 C135 1.461 . S
C132 H152 0.932 . S
C133 C131 1.408 . S
C133 C132 1.310 . S
C133 H153 0.930 . S
C134 C135 1.474 . S
C134 C136 1.285 . S
C134 H154 0.929 . S
C135 C132 1.461 . S
C135 C134 1.474 . S
C136 C131 1.342 . S
C136 C134 1.285 . S
C136 H155 0.930 . S
C137 C140 1.424 . S
C137 C142 1.245 . S
C137 C143 1.428 . S
C138 C141 1.223 1_565 S
C138 C142 1.477 . S
C138 H156 0.932 . S
C139 C140 1.384 . S
C139 C141 1.469 1_565 S
C139 H157 0.929 1_565 S
C140 C137 1.424 . S
C140 C139 1.384 . S
C140 H158 0.928 . S
C141 C138 1.223 1_545 S
C141 C139 1.469 1_545 S
C142 C137 1.245 . S
C142 C138 1.477 . S
C142 H159 0.932 . S
C143 U126 2.882 . S
C143 C137 1.428 . S
C143 O146 1.301 . S
C143 O147 1.282 . S
O144 U126 2.441 . S
O144 C130 1.249 . S
O145 U126 2.420 . S
O145 C130 1.202 . S
O146 U126 2.455 . S
O146 C143 1.301 . S
O147 U126 2.449 . S
O147 C143 1.282 . S
H148 C121 0.931 . S
H149 C123 0.929 . S
H150 C124 0.930 . S
H151 C125 0.931 . S
H152 C132 0.932 . S
H153 C133 0.930 . S
H154 C134 0.929 . S
H155 C136 0.930 . S
H156 C138 0.932 . S
H157 C139 0.929 1_545 S
H158 C140 0.928 . S
H159 C142 0.932 . S
C160 C161 1.264 . S
C160 C165 1.479 . S
C160 C170 1.465 . S
C161 C160 1.264 . S
C161 C163 1.339 . S
C161 H188 0.931 . S
C162 C163 1.395 . S
C162 C164 1.320 . S
C163 C161 1.339 . S
C163 C162 1.395 . S
C163 H189 0.929 . S
C164 C162 1.320 . S
C164 C165 1.405 . S
C164 H190 0.930 . S
C165 C160 1.479 . S
C165 C164 1.405 . S
C165 H191 0.931 . S
U166 O167 2.454 . S
U166 O168 2.458 . S
U166 C169 2.984 . S
U166 C170 2.847 . S
U166 C183 2.882 . S
U166 O184 2.441 . S
U166 O185 2.420 . S
U166 O186 2.455 . S
U166 O187 2.449 . S
O167 U166 2.454 . S
O167 C169 1.353 . S
O168 U166 2.458 . S
O168 C169 1.286 . S
C169 U166 2.984 . S
C169 O167 1.353 . S
C169 O168 1.286 . S
C169 C171 1.363 . S
C170 C160 1.465 . S
C170 U166 2.847 . S
C170 O184 1.249 . S
C170 O185 1.202 . S
C171 C169 1.363 . S
C171 C173 1.408 . S
C171 C176 1.342 . S
C172 C173 1.310 . S
C172 C175 1.461 . S
C172 H192 0.932 . S
C173 C171 1.408 . S
C173 C172 1.310 . S
C173 H193 0.930 . S
C174 C175 1.474 . S
C174 C176 1.285 . S
C174 H194 0.929 . S
C175 C172 1.461 . S
C175 C174 1.474 . S
C176 C171 1.342 . S
C176 C174 1.285 . S
C176 H195 0.930 . S
C177 C180 1.424 . S
C177 C182 1.245 . S
C177 C183 1.428 . S
C178 C181 1.223 1_455 S
C178 C182 1.477 . S
C178 H196 0.932 . S
C179 C180 1.384 . S
C179 C181 1.469 1_455 S
C179 H197 0.929 1_455 S
C180 C177 1.424 . S
C180 C179 1.384 . S
C180 H198 0.928 . S
C181 C178 1.223 1_655 S
C181 C179 1.469 1_655 S
C182 C177 1.245 . S
C182 C178 1.477 . S
C182 H199 0.932 . S
C183 U166 2.882 . S
C183 C177 1.428 . S
C183 O186 1.301 . S
C183 O187 1.282 . S
O184 U166 2.441 . S
O184 C170 1.249 . S
O185 U166 2.420 . S
O185 C170 1.202 . S
O186 U166 2.455 . S
O186 C183 1.301 . S
O187 U166 2.449 . S
O187 C183 1.282 . S
H188 C161 0.931 . S
H189 C163 0.929 . S
H190 C164 0.930 . S
H191 C165 0.931 . S
H192 C172 0.932 . S
H193 C173 0.930 . S
H194 C174 0.929 . S
H195 C176 0.930 . S
H196 C178 0.932 . S
H197 C179 0.929 1_655 S
H198 C180 0.928 . S
H199 C182 0.932 . S
C200 C201 1.264 . S
C200 C205 1.479 . S
C200 C210 1.465 . S
C201 C200 1.264 . S
C201 C203 1.339 . S
C201 H228 0.931 . S
C202 C203 1.395 . S
C202 C204 1.320 . S
C203 C201 1.339 . S
C203 C202 1.395 . S
C203 H229 0.929 . S
C204 C202 1.320 . S
C204 C205 1.405 . S
C204 H230 0.930 . S
C205 C200 1.479 . S
C205 C204 1.405 . S
C205 H231 0.931 . S
U206 O207 2.454 . S
U206 O208 2.458 . S
U206 C209 2.984 . S
U206 C210 2.847 . S
U206 C223 2.882 . S
U206 O224 2.441 . S
U206 O225 2.420 . S
U206 O226 2.455 . S
U206 O227 2.449 . S
O207 U206 2.454 . S
O207 C209 1.353 . S
O208 U206 2.458 . S
O208 C209 1.286 . S
C209 U206 2.984 . S
C209 O207 1.353 . S
C209 O208 1.286 . S
C209 C211 1.363 . S
C210 C200 1.465 . S
C210 U206 2.847 . S
C210 O224 1.249 . S
C210 O225 1.202 . S
C211 C209 1.363 . S
C211 C213 1.408 . S
C211 C216 1.342 . S
C212 C213 1.310 . S
C212 C215 1.461 . S
C212 H232 0.932 . S
C213 C211 1.408 . S
C213 C212 1.310 . S
C213 H233 0.930 . S
C214 C215 1.474 . S
C214 C216 1.285 . S
C214 H234 0.929 . S
C215 C212 1.461 . S
C215 C214 1.474 . S
C216 C211 1.342 . S
C216 C214 1.285 . S
C216 H235 0.930 . S
C217 C220 1.424 . S
C217 C222 1.245 . S
C217 C223 1.428 . S
C218 C221 1.223 1_545 S
C218 C222 1.477 . S
C218 H236 0.932 . S
C219 C220 1.384 . S
C219 C221 1.469 1_545 S
C219 H237 0.929 1_545 S
C220 C217 1.424 . S
C220 C219 1.384 . S
C220 H238 0.928 . S
C221 C218 1.223 1_565 S
C221 C219 1.469 1_565 S
C222 C217 1.245 . S
C222 C218 1.477 . S
C222 H239 0.932 . S
C223 U206 2.882 . S
C223 C217 1.428 . S
C223 O226 1.301 . S
C223 O227 1.282 . S
O224 U206 2.441 . S
O224 C210 1.249 . S
O225 U206 2.420 . S
O225 C210 1.202 . S
O226 U206 2.455 . S
O226 C223 1.301 . S
O227 U206 2.449 . S
O227 C223 1.282 . S
H228 C201 0.931 . S
H229 C203 0.929 . S
H230 C204 0.930 . S
H231 C205 0.931 . S
H232 C212 0.932 . S
H233 C213 0.930 . S
H234 C214 0.929 . S
H235 C216 0.930 . S
H236 C218 0.932 . S
H237 C219 0.929 1_565 S
H238 C220 0.928 . S
H239 C222 0.932 . S
C240 C241 1.264 . S
C240 C245 1.479 . S
C240 C250 1.465 . S
C241 C240 1.264 . S
C241 C243 1.339 . S
C241 H268 0.931 . S
C242 C243 1.395 . S
C242 C244 1.320 . S
C243 C241 1.339 . S
C243 C242 1.395 . S
C243 H269 0.929 . S
C244 C242 1.320 . S
C244 C245 1.405 . S
C244 H270 0.930 . S
C245 C240 1.479 . S
C245 C244 1.405 . S
C245 H271 0.931 . S
U246 O247 2.454 . S
U246 O248 2.458 . S
U246 C249 2.984 . S
U246 C250 2.847 . S
U246 C263 2.882 . S
U246 O264 2.441 . S
U246 O265 2.420 . S
U246 O266 2.455 . S
U246 O267 2.449 . S
O247 U246 2.454 . S
O247 C249 1.353 . S
O248 U246 2.458 . S
O248 C249 1.286 . S
C249 U246 2.984 . S
C249 O247 1.353 . S
C249 O248 1.286 . S
C249 C251 1.363 . S
C250 C240 1.465 . S
C250 U246 2.847 . S
C250 O264 1.249 . S
C250 O265 1.202 . S
C251 C249 1.363 . S
C251 C253 1.408 . S
C251 C256 1.342 . S
C252 C253 1.310 . S
C252 C255 1.461 . S
C252 H272 0.932 . S
C253 C251 1.408 . S
C253 C252 1.310 . S
C253 H273 0.930 . S
C254 C255 1.474 . S
C254 C256 1.285 . S
C254 H274 0.929 . S
C255 C252 1.461 . S
C255 C254 1.474 . S
C256 C251 1.342 . S
C256 C254 1.285 . S
C256 H275 0.930 . S
C257 C260 1.424 . S
C257 C262 1.245 . S
C257 C263 1.428 . S
C258 C261 1.223 1_655 S
C258 C262 1.477 . S
C258 H276 0.932 . S
C259 C260 1.384 . S
C259 C261 1.469 1_655 S
C259 H277 0.929 1_655 S
C260 C257 1.424 . S
C260 C259 1.384 . S
C260 H278 0.928 . S
C261 C258 1.223 1_455 S
C261 C259 1.469 1_455 S
C262 C257 1.245 . S
C262 C258 1.477 . S
C262 H279 0.932 . S
C263 U246 2.882 . S
C263 C257 1.428 . S
C263 O266 1.301 . S
C263 O267 1.282 . S
O264 U246 2.441 . S
O264 C250 1.249 . S
O265 U246 2.420 . S
O265 C250 1.202 . S
O266 U246 2.455 . S
O266 C263 1.301 . S
O267 U246 2.449 . S
O267 C263 1.282 . S
H268 C241 0.931 . S
H269 C243 0.929 . S
H270 C244 0.930 . S
H271 C245 0.931 . S
H272 C252 0.932 . S
H273 C253 0.930 . S
H274 C254 0.929 . S
H275 C256 0.930 . S
H276 C258 0.932 . S
H277 C259 0.929 1_455 S
H278 C260 0.928 . S
H279 C262 0.932 . S
C280 C281 1.264 . S
C280 C285 1.479 . S
C280 C290 1.465 . S
C281 C280 1.264 . S
C281 C283 1.339 . S
C281 H308 0.931 . S
C282 C283 1.395 . S
C282 C284 1.320 . S
C283 C281 1.339 . S
C283 C282 1.395 . S
C283 H309 0.929 . S
C284 C282 1.320 . S
C284 C285 1.405 . S
C284 H310 0.930 . S
C285 C280 1.479 . S
C285 C284 1.405 . S
C285 H311 0.931 . S
U286 O287 2.454 . S
U286 O288 2.458 . S
U286 C289 2.984 . S
U286 C290 2.847 . S
U286 C303 2.882 . S
U286 O304 2.441 . S
U286 O305 2.420 . S
U286 O306 2.455 . S
U286 O307 2.449 . S
O287 U286 2.454 . S
O287 C289 1.353 . S
O288 U286 2.458 . S
O288 C289 1.286 . S
C289 U286 2.984 . S
C289 O287 1.353 . S
C289 O288 1.286 . S
C289 C291 1.363 . S
C290 C280 1.465 . S
C290 U286 2.847 . S
C290 O304 1.249 . S
C290 O305 1.202 . S
C291 C289 1.363 . S
C291 C293 1.408 . S
C291 C296 1.342 . S
C292 C293 1.310 . S
C292 C295 1.461 . S
C292 H312 0.932 . S
C293 C291 1.408 . S
C293 C292 1.310 . S
C293 H313 0.930 . S
C294 C295 1.474 . S
C294 C296 1.285 . S
C294 H314 0.929 . S
C295 C292 1.461 . S
C295 C294 1.474 . S
C296 C291 1.342 . S
C296 C294 1.285 . S
C296 H315 0.930 . S
C297 C300 1.424 . S
C297 C302 1.245 . S
C297 C303 1.428 . S
C298 C301 1.223 1_565 S
C298 C302 1.477 . S
C298 H316 0.932 . S
C299 C300 1.384 . S
C299 C301 1.469 1_565 S
C299 H317 0.929 1_565 S
C300 C297 1.424 . S
C300 C299 1.384 . S
C300 H318 0.928 . S
C301 C298 1.223 1_545 S
C301 C299 1.469 1_545 S
C302 C297 1.245 . S
C302 C298 1.477 . S
C302 H319 0.932 . S
C303 U286 2.882 . S
C303 C297 1.428 . S
C303 O306 1.301 . S
C303 O307 1.282 . S
O304 U286 2.441 . S
O304 C290 1.249 . S
O305 U286 2.420 . S
O305 C290 1.202 . S
O306 U286 2.455 . S
O306 C303 1.301 . S
O307 U286 2.449 . S
O307 C303 1.282 . S
H308 C281 0.931 . S
H309 C283 0.929 . S
H310 C284 0.930 . S
H311 C285 0.931 . S
H312 C292 0.932 . S
H313 C293 0.930 . S
H314 C294 0.929 . S
H315 C296 0.930 . S
H316 C298 0.932 . S
H317 C299 0.929 1_545 S
H318 C300 0.928 . S
H319 C302 0.932 . S
C320 C321 1.264 . S
C320 C325 1.479 . S
C320 C330 1.465 . S
C321 C320 1.264 . S
C321 C323 1.339 . S
C321 H348 0.931 . S
C322 C323 1.395 . S
C322 C324 1.320 . S
C323 C321 1.339 . S
C323 C322 1.395 . S
C323 H349 0.929 . S
C324 C322 1.320 . S
C324 C325 1.405 . S
C324 H350 0.930 . S
C325 C320 1.479 . S
C325 C324 1.405 . S
C325 H351 0.931 . S
U326 O327 2.454 . S
U326 O328 2.458 . S
U326 C329 2.984 . S
U326 C330 2.847 . S
U326 C343 2.882 . S
U326 O344 2.441 . S
U326 O345 2.420 . S
U326 O346 2.455 . S
U326 O347 2.449 . S
O327 U326 2.454 . S
O327 C329 1.353 . S
O328 U326 2.458 . S
O328 C329 1.286 . S
C329 U326 2.984 . S
C329 O327 1.353 . S
C329 O328 1.286 . S
C329 C331 1.363 . S
C330 C320 1.465 . S
C330 U326 2.847 . S
C330 O344 1.249 . S
C330 O345 1.202 . S
C331 C329 1.363 . S
C331 C333 1.408 . S
C331 C336 1.342 . S
C332 C333 1.310 . S
C332 C335 1.461 . S
C332 H352 0.932 . S
C333 C331 1.408 . S
C333 C332 1.310 . S
C333 H353 0.930 . S
C334 C335 1.474 . S
C334 C336 1.285 . S
C334 H354 0.929 . S
C335 C332 1.461 . S
C335 C334 1.474 . S
C336 C331 1.342 . S
C336 C334 1.285 . S
C336 H355 0.930 . S
C337 C340 1.424 . S
C337 C342 1.245 . S
C337 C343 1.428 . S
C338 C341 1.223 1_545 S
C338 C342 1.477 . S
C338 H356 0.932 . S
C339 C340 1.384 . S
C339 C341 1.469 1_545 S
C339 H357 0.929 1_545 S
C340 C337 1.424 . S
C340 C339 1.384 . S
C340 H358 0.928 . S
C341 C338 1.223 1_565 S
C341 C339 1.469 1_565 S
C342 C337 1.245 . S
C342 C338 1.477 . S
C342 H359 0.932 . S
C343 U326 2.882 . S
C343 C337 1.428 . S
C343 O346 1.301 . S
C343 O347 1.282 . S
O344 U326 2.441 . S
O344 C330 1.249 . S
O345 U326 2.420 . S
O345 C330 1.202 . S
O346 U326 2.455 . S
O346 C343 1.301 . S
O347 U326 2.449 . S
O347 C343 1.282 . S
H348 C321 0.931 . S
H349 C323 0.929 . S
H350 C324 0.930 . S
H351 C325 0.931 . S
H352 C332 0.932 . S
H353 C333 0.930 . S
H354 C334 0.929 . S
H355 C336 0.930 . S
H356 C338 0.932 . S
H357 C339 0.929 1_565 S
H358 C340 0.928 . S
H359 C342 0.932 . S
C360 C361 1.264 . S
C360 C365 1.479 . S
C360 C370 1.465 . S
C361 C360 1.264 . S
C361 C363 1.339 . S
C361 H388 0.931 . S
C362 C363 1.395 . S
C362 C364 1.320 . S
C363 C361 1.339 . S
C363 C362 1.395 . S
C363 H389 0.929 . S
C364 C362 1.320 . S
C364 C365 1.405 . S
C364 H390 0.930 . S
C365 C360 1.479 . S
C365 C364 1.405 . S
C365 H391 0.931 . S
U366 O367 2.454 . S
U366 O368 2.458 . S
U366 C369 2.984 . S
U366 C370 2.847 . S
U366 C383 2.882 . S
U366 O384 2.441 . S
U366 O385 2.420 . S
U366 O386 2.455 . S
U366 O387 2.449 . S
O367 U366 2.454 . S
O367 C369 1.353 . S
O368 U366 2.458 . S
O368 C369 1.286 . S
C369 U366 2.984 . S
C369 O367 1.353 . S
C369 O368 1.286 . S
C369 C371 1.363 . S
C370 C360 1.465 . S
C370 U366 2.847 . S
C370 O384 1.249 . S
C370 O385 1.202 . S
C371 C369 1.363 . S
C371 C373 1.408 . S
C371 C376 1.342 . S
C372 C373 1.310 . S
C372 C375 1.461 . S
C372 H392 0.932 . S
C373 C371 1.408 . S
C373 C372 1.310 . S
C373 H393 0.930 . S
C374 C375 1.474 . S
C374 C376 1.285 . S
C374 H394 0.929 . S
C375 C372 1.461 . S
C375 C374 1.474 . S
C376 C371 1.342 . S
C376 C374 1.285 . S
C376 H395 0.930 . S
C377 C380 1.424 . S
C377 C382 1.245 . S
C377 C383 1.428 . S
C378 C381 1.223 1_655 S
C378 C382 1.477 . S
C378 H396 0.932 . S
C379 C380 1.384 . S
C379 C381 1.469 1_655 S
C379 H397 0.929 1_655 S
C380 C377 1.424 . S
C380 C379 1.384 . S
C380 H398 0.928 . S
C381 C378 1.223 1_455 S
C381 C379 1.469 1_455 S
C382 C377 1.245 . S
C382 C378 1.477 . S
C382 H399 0.932 . S
C383 U366 2.882 . S
C383 C377 1.428 . S
C383 O386 1.301 . S
C383 O387 1.282 . S
O384 U366 2.441 . S
O384 C370 1.249 . S
O385 U366 2.420 . S
O385 C370 1.202 . S
O386 U366 2.455 . S
O386 C383 1.301 . S
O387 U366 2.449 . S
O387 C383 1.282 . S
H388 C361 0.931 . S
H389 C363 0.929 . S
H390 C364 0.930 . S
H391 C365 0.931 . S
H392 C372 0.932 . S
H393 C373 0.930 . S
H394 C374 0.929 . S
H395 C376 0.930 . S
H396 C378 0.932 . S
H397 C379 0.929 1_455 S
H398 C380 0.928 . S
H399 C382 0.932 . S
C400 C401 1.264 . S
C400 C405 1.479 . S
C400 C410 1.465 . S
C401 C400 1.264 . S
C401 C403 1.339 . S
C401 H428 0.931 . S
C402 C403 1.395 . S
C402 C404 1.320 . S
C403 C401 1.339 . S
C403 C402 1.395 . S
C403 H429 0.929 . S
C404 C402 1.320 . S
C404 C405 1.405 . S
C404 H430 0.930 . S
C405 C400 1.479 . S
C405 C404 1.405 . S
C405 H431 0.931 . S
U406 O407 2.454 . S
U406 O408 2.458 . S
U406 C409 2.984 . S
U406 C410 2.847 . S
U406 C423 2.882 . S
U406 O424 2.441 . S
U406 O425 2.420 . S
U406 O426 2.455 . S
U406 O427 2.449 . S
O407 U406 2.454 . S
O407 C409 1.353 . S
O408 U406 2.458 . S
O408 C409 1.286 . S
C409 U406 2.984 . S
C409 O407 1.353 . S
C409 O408 1.286 . S
C409 C411 1.363 . S
C410 C400 1.465 . S
C410 U406 2.847 . S
C410 O424 1.249 . S
C410 O425 1.202 . S
C411 C409 1.363 . S
C411 C413 1.408 . S
C411 C416 1.342 . S
C412 C413 1.310 . S
C412 C415 1.461 . S
C412 H432 0.932 . S
C413 C411 1.408 . S
C413 C412 1.310 . S
C413 H433 0.930 . S
C414 C415 1.474 . S
C414 C416 1.285 . S
C414 H434 0.929 . S
C415 C412 1.461 . S
C415 C414 1.474 . S
C416 C411 1.342 . S
C416 C414 1.285 . S
C416 H435 0.930 . S
C417 C420 1.424 . S
C417 C422 1.245 . S
C417 C423 1.428 . S
C418 C421 1.223 1_565 S
C418 C422 1.477 . S
C418 H436 0.932 . S
C419 C420 1.384 . S
C419 C421 1.469 1_565 S
C419 H437 0.929 1_565 S
C420 C417 1.424 . S
C420 C419 1.384 . S
C420 H438 0.928 . S
C421 C418 1.223 1_545 S
C421 C419 1.469 1_545 S
C422 C417 1.245 . S
C422 C418 1.477 . S
C422 H439 0.932 . S
C423 U406 2.882 . S
C423 C417 1.428 . S
C423 O426 1.301 . S
C423 O427 1.282 . S
O424 U406 2.441 . S
O424 C410 1.249 . S
O425 U406 2.420 . S
O425 C410 1.202 . S
O426 U406 2.455 . S
O426 C423 1.301 . S
O427 U406 2.449 . S
O427 C423 1.282 . S
H428 C401 0.931 . S
H429 C403 0.929 . S
H430 C404 0.930 . S
H431 C405 0.931 . S
H432 C412 0.932 . S
H433 C413 0.930 . S
H434 C414 0.929 . S
H435 C416 0.930 . S
H436 C418 0.932 . S
H437 C419 0.929 1_545 S
H438 C420 0.928 . S
H439 C422 0.932 . S
C440 C441 1.264 . S
C440 C445 1.479 . S
C440 C450 1.465 . S
C441 C440 1.264 . S
C441 C443 1.339 . S
C441 H468 0.931 . S
C442 C443 1.395 . S
C442 C444 1.320 . S
C443 C441 1.339 . S
C443 C442 1.395 . S
C443 H469 0.929 . S
C444 C442 1.320 . S
C444 C445 1.405 . S
C444 H470 0.930 . S
C445 C440 1.479 . S
C445 C444 1.405 . S
C445 H471 0.931 . S
U446 O447 2.454 . S
U446 O448 2.458 . S
U446 C449 2.984 . S
U446 C450 2.847 . S
U446 C463 2.882 . S
U446 O464 2.441 . S
U446 O465 2.420 . S
U446 O466 2.455 . S
U446 O467 2.449 . S
O447 U446 2.454 . S
O447 C449 1.353 . S
O448 U446 2.458 . S
O448 C449 1.286 . S
C449 U446 2.984 . S
C449 O447 1.353 . S
C449 O448 1.286 . S
C449 C451 1.363 . S
C450 C440 1.465 . S
C450 U446 2.847 . S
C450 O464 1.249 . S
C450 O465 1.202 . S
C451 C449 1.363 . S
C451 C453 1.408 . S
C451 C456 1.342 . S
C452 C453 1.310 . S
C452 C455 1.461 . S
C452 H472 0.932 . S
C453 C451 1.408 . S
C453 C452 1.310 . S
C453 H473 0.930 . S
C454 C455 1.474 . S
C454 C456 1.285 . S
C454 H474 0.929 . S
C455 C452 1.461 . S
C455 C454 1.474 . S
C456 C451 1.342 . S
C456 C454 1.285 . S
C456 H475 0.930 . S
C457 C460 1.424 . S
C457 C462 1.245 . S
C457 C463 1.428 . S
C458 C461 1.223 1_455 S
C458 C462 1.477 . S
C458 H476 0.932 . S
C459 C460 1.384 . S
C459 C461 1.469 1_455 S
C459 H477 0.929 1_455 S
C460 C457 1.424 . S
C460 C459 1.384 . S
C460 H478 0.928 . S
C461 C458 1.223 1_655 S
C461 C459 1.469 1_655 S
C462 C457 1.245 . S
C462 C458 1.477 . S
C462 H479 0.932 . S
C463 U446 2.882 . S
C463 C457 1.428 . S
C463 O466 1.301 . S
C463 O467 1.282 . S
O464 U446 2.441 . S
O464 C450 1.249 . S
O465 U446 2.420 . S
O465 C450 1.202 . S
O466 U446 2.455 . S
O466 C463 1.301 . S
O467 U446 2.449 . S
O467 C463 1.282 . S
H468 C441 0.931 . S
H469 C443 0.929 . S
H470 C444 0.930 . S
H471 C445 0.931 . S
H472 C452 0.932 . S
H473 C453 0.930 . S
H474 C454 0.929 . S
H475 C456 0.930 . S
H476 C458 0.932 . S
H477 C459 0.929 1_655 S
H478 C460 0.928 . S
H479 C462 0.932 . S
C480 C481 1.264 . S
C480 C485 1.479 . S
C480 C490 1.465 . S
C481 C480 1.264 . S
C481 C483 1.339 . S
C481 H508 0.931 . S
C482 C483 1.395 . S
C482 C484 1.320 . S
C483 C481 1.339 . S
C483 C482 1.395 . S
C483 H509 0.929 . S
C484 C482 1.320 . S
C484 C485 1.405 . S
C484 H510 0.930 . S
C485 C480 1.479 . S
C485 C484 1.405 . S
C485 H511 0.931 . S
U486 O487 2.454 . S
U486 O488 2.458 . S
U486 C489 2.984 . S
U486 C490 2.847 . S
U486 C503 2.882 . S
U486 O504 2.441 . S
U486 O505 2.420 . S
U486 O506 2.455 . S
U486 O507 2.449 . S
O487 U486 2.454 . S
O487 C489 1.353 . S
O488 U486 2.458 . S
O488 C489 1.286 . S
C489 U486 2.984 . S
C489 O487 1.353 . S
C489 O488 1.286 . S
C489 C491 1.363 . S
C490 C480 1.465 . S
C490 U486 2.847 . S
C490 O504 1.249 . S
C490 O505 1.202 . S
C491 C489 1.363 . S
C491 C493 1.408 . S
C491 C496 1.342 . S
C492 C493 1.310 . S
C492 C495 1.461 . S
C492 H512 0.932 . S
C493 C491 1.408 . S
C493 C492 1.310 . S
C493 H513 0.930 . S
C494 C495 1.474 . S
C494 C496 1.285 . S
C494 H514 0.929 . S
C495 C492 1.461 . S
C495 C494 1.474 . S
C496 C491 1.342 . S
C496 C494 1.285 . S
C496 H515 0.930 . S
C497 C500 1.424 . S
C497 C502 1.245 . S
C497 C503 1.428 . S
C498 C501 1.223 1_565 S
C498 C502 1.477 . S
C498 H516 0.932 . S
C499 C500 1.384 . S
C499 C501 1.469 1_565 S
C499 H517 0.929 1_565 S
C500 C497 1.424 . S
C500 C499 1.384 . S
C500 H518 0.928 . S
C501 C498 1.223 1_545 S
C501 C499 1.469 1_545 S
C502 C497 1.245 . S
C502 C498 1.477 . S
C502 H519 0.932 . S
C503 U486 2.882 . S
C503 C497 1.428 . S
C503 O506 1.301 . S
C503 O507 1.282 . S
O504 U486 2.441 . S
O504 C490 1.249 . S
O505 U486 2.420 . S
O505 C490 1.202 . S
O506 U486 2.455 . S
O506 C503 1.301 . S
O507 U486 2.449 . S
O507 C503 1.282 . S
H508 C481 0.931 . S
H509 C483 0.929 . S
H510 C484 0.930 . S
H511 C485 0.931 . S
H512 C492 0.932 . S
H513 C493 0.930 . S
H514 C494 0.929 . S
H515 C496 0.930 . S
H516 C498 0.932 . S
H517 C499 0.929 1_545 S
H518 C500 0.928 . S
H519 C502 0.932 . S
C520 C521 1.264 . S
C520 C525 1.479 . S
C520 C530 1.465 . S
C521 C520 1.264 . S
C521 C523 1.339 . S
C521 H548 0.931 . S
C522 C523 1.395 . S
C522 C524 1.320 . S
C523 C521 1.339 . S
C523 C522 1.395 . S
C523 H549 0.929 . S
C524 C522 1.320 . S
C524 C525 1.405 . S
C524 H550 0.930 . S
C525 C520 1.479 . S
C525 C524 1.405 . S
C525 H551 0.931 . S
U526 O527 2.454 . S
U526 O528 2.458 . S
U526 C529 2.984 . S
U526 C530 2.847 . S
U526 C543 2.882 . S
U526 O544 2.441 . S
U526 O545 2.420 . S
U526 O546 2.455 . S
U526 O547 2.449 . S
O527 U526 2.454 . S
O527 C529 1.353 . S
O528 U526 2.458 . S
O528 C529 1.286 . S
C529 U526 2.984 . S
C529 O527 1.353 . S
C529 O528 1.286 . S
C529 C531 1.363 . S
C530 C520 1.465 . S
C530 U526 2.847 . S
C530 O544 1.249 . S
C530 O545 1.202 . S
C531 C529 1.363 . S
C531 C533 1.408 . S
C531 C536 1.342 . S
C532 C533 1.310 . S
C532 C535 1.461 . S
C532 H552 0.932 . S
C533 C531 1.408 . S
C533 C532 1.310 . S
C533 H553 0.930 . S
C534 C535 1.474 . S
C534 C536 1.285 . S
C534 H554 0.929 . S
C535 C532 1.461 . S
C535 C534 1.474 . S
C536 C531 1.342 . S
C536 C534 1.285 . S
C536 H555 0.930 . S
C537 C540 1.424 . S
C537 C542 1.245 . S
C537 C543 1.428 . S
C538 C541 1.223 1_455 S
C538 C542 1.477 . S
C538 H556 0.932 . S
C539 C540 1.384 . S
C539 C541 1.469 1_455 S
C539 H557 0.929 1_455 S
C540 C537 1.424 . S
C540 C539 1.384 . S
C540 H558 0.928 . S
C541 C538 1.223 1_655 S
C541 C539 1.469 1_655 S
C542 C537 1.245 . S
C542 C538 1.477 . S
C542 H559 0.932 . S
C543 U526 2.882 . S
C543 C537 1.428 . S
C543 O546 1.301 . S
C543 O547 1.282 . S
O544 U526 2.441 . S
O544 C530 1.249 . S
O545 U526 2.420 . S
O545 C530 1.202 . S
O546 U526 2.455 . S
O546 C543 1.301 . S
O547 U526 2.449 . S
O547 C543 1.282 . S
H548 C521 0.931 . S
H549 C523 0.929 . S
H550 C524 0.930 . S
H551 C525 0.931 . S
H552 C532 0.932 . S
H553 C533 0.930 . S
H554 C534 0.929 . S
H555 C536 0.930 . S
H556 C538 0.932 . S
H557 C539 0.929 1_655 S
H558 C540 0.928 . S
H559 C542 0.932 . S
C560 C561 1.264 . S
C560 C565 1.479 . S
C560 C570 1.465 . S
C561 C560 1.264 . S
C561 C563 1.339 . S
C561 H588 0.931 . S
C562 C563 1.395 . S
C562 C564 1.320 . S
C563 C561 1.339 . S
C563 C562 1.395 . S
C563 H589 0.929 . S
C564 C562 1.320 . S
C564 C565 1.405 . S
C564 H590 0.930 . S
C565 C560 1.479 . S
C565 C564 1.405 . S
C565 H591 0.931 . S
U566 O567 2.454 . S
U566 O568 2.458 . S
U566 C569 2.984 . S
U566 C570 2.847 . S
U566 C583 2.882 . S
U566 O584 2.441 . S
U566 O585 2.420 . S
U566 O586 2.455 . S
U566 O587 2.449 . S
O567 U566 2.454 . S
O567 C569 1.353 . S
O568 U566 2.458 . S
O568 C569 1.286 . S
C569 U566 2.984 . S
C569 O567 1.353 . S
C569 O568 1.286 . S
C569 C571 1.363 . S
C570 C560 1.465 . S
C570 U566 2.847 . S
C570 O584 1.249 . S
C570 O585 1.202 . S
C571 C569 1.363 . S
C571 C573 1.408 . S
C571 C576 1.342 . S
C572 C573 1.310 . S
C572 C575 1.461 . S
C572 H592 0.932 . S
C573 C571 1.408 . S
C573 C572 1.310 . S
C573 H593 0.930 . S
C574 C575 1.474 . S
C574 C576 1.285 . S
C574 H594 0.929 . S
C575 C572 1.461 . S
C575 C574 1.474 . S
C576 C571 1.342 . S
C576 C574 1.285 . S
C576 H595 0.930 . S
C577 C580 1.424 . S
C577 C582 1.245 . S
C577 C583 1.428 . S
C578 C581 1.223 1_545 S
C578 C582 1.477 . S
C578 H596 0.932 . S
C579 C580 1.384 . S
C579 C581 1.469 1_545 S
C579 H597 0.929 1_545 S
C580 C577 1.424 . S
C580 C579 1.384 . S
C580 H598 0.928 . S
C581 C578 1.223 1_565 S
C581 C579 1.469 1_565 S
C582 C577 1.245 . S
C582 C578 1.477 . S
C582 H599 0.932 . S
C583 U566 2.882 . S
C583 C577 1.428 . S
C583 O586 1.301 . S
C583 O587 1.282 . S
O584 U566 2.441 . S
O584 C570 1.249 . S
O585 U566 2.420 . S
O585 C570 1.202 . S
O586 U566 2.455 . S
O586 C583 1.301 . S
O587 U566 2.449 . S
O587 C583 1.282 . S
H588 C561 0.931 . S
H589 C563 0.929 . S
H590 C564 0.930 . S
H591 C565 0.931 . S
H592 C572 0.932 . S
H593 C573 0.930 . S
H594 C574 0.929 . S
H595 C576 0.930 . S
H596 C578 0.932 . S
H597 C579 0.929 1_565 S
H598 C580 0.928 . S
H599 C582 0.932 . S
C600 C601 1.264 . S
C600 C605 1.479 . S
C600 C610 1.465 . S
C601 C600 1.264 . S
C601 C603 1.339 . S
C601 H628 0.931 . S
C602 C603 1.395 . S
C602 C604 1.320 . S
C603 C601 1.339 . S
C603 C602 1.395 . S
C603 H629 0.929 . S
C604 C602 1.320 . S
C604 C605 1.405 . S
C604 H630 0.930 . S
C605 C600 1.479 . S
C605 C604 1.405 . S
C605 H631 0.931 . S
U606 O607 2.454 . S
U606 O608 2.458 . S
U606 C609 2.984 . S
U606 C610 2.847 . S
U606 C623 2.882 . S
U606 O624 2.441 . S
U606 O625 2.420 . S
U606 O626 2.455 . S
U606 O627 2.449 . S
O607 U606 2.454 . S
O607 C609 1.353 . S
O608 U606 2.458 . S
O608 C609 1.286 . S
C609 U606 2.984 . S
C609 O607 1.353 . S
C609 O608 1.286 . S
C609 C611 1.363 . S
C610 C600 1.465 . S
C610 U606 2.847 . S
C610 O624 1.249 . S
C610 O625 1.202 . S
C611 C609 1.363 . S
C611 C613 1.408 . S
C611 C616 1.342 . S
C612 C613 1.310 . S
C612 C615 1.461 . S
C612 H632 0.932 . S
C613 C611 1.408 . S
C613 C612 1.310 . S
C613 H633 0.930 . S
C614 C615 1.474 . S
C614 C616 1.285 . S
C614 H634 0.929 . S
C615 C612 1.461 . S
C615 C614 1.474 . S
C616 C611 1.342 . S
C616 C614 1.285 . S
C616 H635 0.930 . S
C617 C620 1.424 . S
C617 C622 1.245 . S
C617 C623 1.428 . S
C618 C621 1.223 1_655 S
C618 C622 1.477 . S
C618 H636 0.932 . S
C619 C620 1.384 . S
C619 C621 1.469 1_655 S
C619 H637 0.929 1_655 S
C620 C617 1.424 . S
C620 C619 1.384 . S
C620 H638 0.928 . S
C621 C618 1.223 1_455 S
C621 C619 1.469 1_455 S
C622 C617 1.245 . S
C622 C618 1.477 . S
C622 H639 0.932 . S
C623 U606 2.882 . S
C623 C617 1.428 . S
C623 O626 1.301 . S
C623 O627 1.282 . S
O624 U606 2.441 . S
O624 C610 1.249 . S
O625 U606 2.420 . S
O625 C610 1.202 . S
O626 U606 2.455 . S
O626 C623 1.301 . S
O627 U606 2.449 . S
O627 C623 1.282 . S
H628 C601 0.931 . S
H629 C603 0.929 . S
H630 C604 0.930 . S
H631 C605 0.931 . S
H632 C612 0.932 . S
H633 C613 0.930 . S
H634 C614 0.929 . S
H635 C616 0.930 . S
H636 C618 0.932 . S
H637 C619 0.929 1_455 S
H638 C620 0.928 . S
H639 C622 0.932 . S
C640 C641 1.264 . S
C640 C645 1.479 . S
C640 C650 1.465 . S
C641 C640 1.264 . S
C641 C643 1.339 . S
C641 H668 0.931 . S
C642 C643 1.395 . S
C642 C644 1.320 . S
C643 C641 1.339 . S
C643 C642 1.395 . S
C643 H669 0.929 . S
C644 C642 1.320 . S
C644 C645 1.405 . S
C644 H670 0.930 . S
C645 C640 1.479 . S
C645 C644 1.405 . S
C645 H671 0.931 . S
U646 O647 2.454 . S
U646 O648 2.458 . S
U646 C649 2.984 . S
U646 C650 2.847 . S
U646 C663 2.882 . S
U646 O664 2.441 . S
U646 O665 2.420 . S
U646 O666 2.455 . S
U646 O667 2.449 . S
O647 U646 2.454 . S
O647 C649 1.353 . S
O648 U646 2.458 . S
O648 C649 1.286 . S
C649 U646 2.984 . S
C649 O647 1.353 . S
C649 O648 1.286 . S
C649 C651 1.363 . S
C650 C640 1.465 . S
C650 U646 2.847 . S
C650 O664 1.249 . S
C650 O665 1.202 . S
C651 C649 1.363 . S
C651 C653 1.408 . S
C651 C656 1.342 . S
C652 C653 1.310 . S
C652 C655 1.461 . S
C652 H672 0.932 . S
C653 C651 1.408 . S
C653 C652 1.310 . S
C653 H673 0.930 . S
C654 C655 1.474 . S
C654 C656 1.285 . S
C654 H674 0.929 . S
C655 C652 1.461 . S
C655 C654 1.474 . S
C656 C651 1.342 . S
C656 C654 1.285 . S
C656 H675 0.930 . S
C657 C660 1.424 . S
C657 C662 1.245 . S
C657 C663 1.428 . S
C658 C661 1.223 1_554 S
C658 C662 1.477 . S
C658 H676 0.932 . S
C659 C660 1.384 . S
C659 C661 1.469 1_554 S
C659 H677 0.929 1_554 S
C660 C657 1.424 . S
C660 C659 1.384 . S
C660 H678 0.928 . S
C661 C658 1.223 1_556 S
C661 C659 1.469 1_556 S
C662 C657 1.245 . S
C662 C658 1.477 . S
C662 H679 0.932 . S
C663 U646 2.882 . S
C663 C657 1.428 . S
C663 O666 1.301 . S
C663 O667 1.282 . S
O664 U646 2.441 . S
O664 C650 1.249 . S
O665 U646 2.420 . S
O665 C650 1.202 . S
O666 U646 2.455 . S
O666 C663 1.301 . S
O667 U646 2.449 . S
O667 C663 1.282 . S
H668 C641 0.931 . S
H669 C643 0.929 . S
H670 C644 0.930 . S
H671 C645 0.931 . S
H672 C652 0.932 . S
H673 C653 0.930 . S
H674 C654 0.929 . S
H675 C656 0.930 . S
H676 C658 0.932 . S
H677 C659 0.929 1_556 S
H678 C660 0.928 . S
H679 C662 0.932 . S
C680 C681 1.264 . S
C680 C685 1.479 . S
C680 C690 1.465 . S
C681 C680 1.264 . S
C681 C683 1.339 . S
C681 H708 0.931 . S
C682 C683 1.395 . S
C682 C684 1.320 . S
C683 C681 1.339 . S
C683 C682 1.395 . S
C683 H709 0.929 . S
C684 C682 1.320 . S
C684 C685 1.405 . S
C684 H710 0.930 . S
C685 C680 1.479 . S
C685 C684 1.405 . S
C685 H711 0.931 . S
U686 O687 2.454 . S
U686 O688 2.458 . S
U686 C689 2.984 . S
U686 C690 2.847 . S
U686 C703 2.882 . S
U686 O704 2.441 . S
U686 O705 2.420 . S
U686 O706 2.455 . S
U686 O707 2.449 . S
O687 U686 2.454 . S
O687 C689 1.353 . S
O688 U686 2.458 . S
O688 C689 1.286 . S
C689 U686 2.984 . S
C689 O687 1.353 . S
C689 O688 1.286 . S
C689 C691 1.363 . S
C690 C680 1.465 . S
C690 U686 2.847 . S
C690 O704 1.249 . S
C690 O705 1.202 . S
C691 C689 1.363 . S
C691 C693 1.408 . S
C691 C696 1.342 . S
C692 C693 1.310 . S
C692 C695 1.461 . S
C692 H712 0.932 . S
C693 C691 1.408 . S
C693 C692 1.310 . S
C693 H713 0.930 . S
C694 C695 1.474 . S
C694 C696 1.285 . S
C694 H714 0.929 . S
C695 C692 1.461 . S
C695 C694 1.474 . S
C696 C691 1.342 . S
C696 C694 1.285 . S
C696 H715 0.930 . S
C697 C700 1.424 . S
C697 C702 1.245 . S
C697 C703 1.428 . S
C698 C701 1.223 1_556 S
C698 C702 1.477 . S
C698 H716 0.932 . S
C699 C700 1.384 . S
C699 C701 1.469 1_556 S
C699 H717 0.929 1_556 S
C700 C697 1.424 . S
C700 C699 1.384 . S
C700 H718 0.928 . S
C701 C698 1.223 1_554 S
C701 C699 1.469 1_554 S
C702 C697 1.245 . S
C702 C698 1.477 . S
C702 H719 0.932 . S
C703 U686 2.882 . S
C703 C697 1.428 . S
C703 O706 1.301 . S
C703 O707 1.282 . S
O704 U686 2.441 . S
O704 C690 1.249 . S
O705 U686 2.420 . S
O705 C690 1.202 . S
O706 U686 2.455 . S
O706 C703 1.301 . S
O707 U686 2.449 . S
O707 C703 1.282 . S
H708 C681 0.931 . S
H709 C683 0.929 . S
H710 C684 0.930 . S
H711 C685 0.931 . S
H712 C692 0.932 . S
H713 C693 0.930 . S
H714 C694 0.929 . S
H715 C696 0.930 . S
H716 C698 0.932 . S
H717 C699 0.929 1_554 S
H718 C700 0.928 . S
H719 C702 0.932 . S
C720 C721 1.264 . S
C720 C725 1.479 . S
C720 C730 1.465 . S
C721 C720 1.264 . S
C721 C723 1.339 . S
C721 H748 0.931 . S
C722 C723 1.395 . S
C722 C724 1.320 . S
C723 C721 1.339 . S
C723 C722 1.395 . S
C723 H749 0.929 . S
C724 C722 1.320 . S
C724 C725 1.405 . S
C724 H750 0.930 . S
C725 C720 1.479 . S
C725 C724 1.405 . S
C725 H751 0.931 . S
U726 O727 2.454 . S
U726 O728 2.458 . S
U726 C729 2.984 . S
U726 C730 2.847 . S
U726 C743 2.882 . S
U726 O744 2.441 . S
U726 O745 2.420 . S
U726 O746 2.455 . S
U726 O747 2.449 . S
O727 U726 2.454 . S
O727 C729 1.353 . S
O728 U726 2.458 . S
O728 C729 1.286 . S
C729 U726 2.984 . S
C729 O727 1.353 . S
C729 O728 1.286 . S
C729 C731 1.363 . S
C730 C720 1.465 . S
C730 U726 2.847 . S
C730 O744 1.249 . S
C730 O745 1.202 . S
C731 C729 1.363 . S
C731 C733 1.408 . S
C731 C736 1.342 . S
C732 C733 1.310 . S
C732 C735 1.461 . S
C732 H752 0.932 . S
C733 C731 1.408 . S
C733 C732 1.310 . S
C733 H753 0.930 . S
C734 C735 1.474 . S
C734 C736 1.285 . S
C734 H754 0.929 . S
C735 C732 1.461 . S
C735 C734 1.474 . S
C736 C731 1.342 . S
C736 C734 1.285 . S
C736 H755 0.930 . S
C737 C740 1.424 . S
C737 C742 1.245 . S
C737 C743 1.428 . S
C738 C741 1.223 1_556 S
C738 C742 1.477 . S
C738 H756 0.932 . S
C739 C740 1.384 . S
C739 C741 1.469 1_556 S
C739 H757 0.929 1_556 S
C740 C737 1.424 . S
C740 C739 1.384 . S
C740 H758 0.928 . S
C741 C738 1.223 1_554 S
C741 C739 1.469 1_554 S
C742 C737 1.245 . S
C742 C738 1.477 . S
C742 H759 0.932 . S
C743 U726 2.882 . S
C743 C737 1.428 . S
C743 O746 1.301 . S
C743 O747 1.282 . S
O744 U726 2.441 . S
O744 C730 1.249 . S
O745 U726 2.420 . S
O745 C730 1.202 . S
O746 U726 2.455 . S
O746 C743 1.301 . S
O747 U726 2.449 . S
O747 C743 1.282 . S
H748 C721 0.931 . S
H749 C723 0.929 . S
H750 C724 0.930 . S
H751 C725 0.931 . S
H752 C732 0.932 . S
H753 C733 0.930 . S
H754 C734 0.929 . S
H755 C736 0.930 . S
H756 C738 0.932 . S
H757 C739 0.929 1_554 S
H758 C740 0.928 . S
H759 C742 0.932 . S
C760 C761 1.264 . S
C760 C765 1.479 . S
C760 C770 1.465 . S
C761 C760 1.264 . S
C761 C763 1.339 . S
C761 H788 0.931 . S
C762 C763 1.395 . S
C762 C764 1.320 . S
C763 C761 1.339 . S
C763 C762 1.395 . S
C763 H789 0.929 . S
C764 C762 1.320 . S
C764 C765 1.405 . S
C764 H790 0.930 . S
C765 C760 1.479 . S
C765 C764 1.405 . S
C765 H791 0.931 . S
U766 O767 2.454 . S
U766 O768 2.458 . S
U766 C769 2.984 . S
U766 C770 2.847 . S
U766 C783 2.882 . S
U766 O784 2.441 . S
U766 O785 2.420 . S
U766 O786 2.455 . S
U766 O787 2.449 . S
O767 U766 2.454 . S
O767 C769 1.353 . S
O768 U766 2.458 . S
O768 C769 1.286 . S
C769 U766 2.984 . S
C769 O767 1.353 . S
C769 O768 1.286 . S
C769 C771 1.363 . S
C770 C760 1.465 . S
C770 U766 2.847 . S
C770 O784 1.249 . S
C770 O785 1.202 . S
C771 C769 1.363 . S
C771 C773 1.408 . S
C771 C776 1.342 . S
C772 C773 1.310 . S
C772 C775 1.461 . S
C772 H792 0.932 . S
C773 C771 1.408 . S
C773 C772 1.310 . S
C773 H793 0.930 . S
C774 C775 1.474 . S
C774 C776 1.285 . S
C774 H794 0.929 . S
C775 C772 1.461 . S
C775 C774 1.474 . S
C776 C771 1.342 . S
C776 C774 1.285 . S
C776 H795 0.930 . S
C777 C780 1.424 . S
C777 C782 1.245 . S
C777 C783 1.428 . S
C778 C781 1.223 1_556 S
C778 C782 1.477 . S
C778 H796 0.932 . S
C779 C780 1.384 . S
C779 C781 1.469 1_556 S
C779 H797 0.929 1_556 S
C780 C777 1.424 . S
C780 C779 1.384 . S
C780 H798 0.928 . S
C781 C778 1.223 1_554 S
C781 C779 1.469 1_554 S
C782 C777 1.245 . S
C782 C778 1.477 . S
C782 H799 0.932 . S
C783 U766 2.882 . S
C783 C777 1.428 . S
C783 O786 1.301 . S
C783 O787 1.282 . S
O784 U766 2.441 . S
O784 C770 1.249 . S
O785 U766 2.420 . S
O785 C770 1.202 . S
O786 U766 2.455 . S
O786 C783 1.301 . S
O787 U766 2.449 . S
O787 C783 1.282 . S
H788 C761 0.931 . S
H789 C763 0.929 . S
H790 C764 0.930 . S
H791 C765 0.931 . S
H792 C772 0.932 . S
H793 C773 0.930 . S
H794 C774 0.929 . S
H795 C776 0.930 . S
H796 C778 0.932 . S
H797 C779 0.929 1_554 S
H798 C780 0.928 . S
H799 C782 0.932 . S
C800 C801 1.264 . S
C800 C805 1.479 . S
C800 C810 1.465 . S
C801 C800 1.264 . S
C801 C803 1.339 . S
C801 H828 0.931 . S
C802 C803 1.395 . S
C802 C804 1.320 . S
C803 C801 1.339 . S
C803 C802 1.395 . S
C803 H829 0.929 . S
C804 C802 1.320 . S
C804 C805 1.405 . S
C804 H830 0.930 . S
C805 C800 1.479 . S
C805 C804 1.405 . S
C805 H831 0.931 . S
U806 O807 2.454 . S
U806 O808 2.458 . S
U806 C809 2.984 . S
U806 C810 2.847 . S
U806 C823 2.882 . S
U806 O824 2.441 . S
U806 O825 2.420 . S
U806 O826 2.455 . S
U806 O827 2.449 . S
O807 U806 2.454 . S
O807 C809 1.353 . S
O808 U806 2.458 . S
O808 C809 1.286 . S
C809 U806 2.984 . S
C809 O807 1.353 . S
C809 O808 1.286 . S
C809 C811 1.363 . S
C810 C800 1.465 . S
C810 U806 2.847 . S
C810 O824 1.249 . S
C810 O825 1.202 . S
C811 C809 1.363 . S
C811 C813 1.408 . S
C811 C816 1.342 . S
C812 C813 1.310 . S
C812 C815 1.461 . S
C812 H832 0.932 . S
C813 C811 1.408 . S
C813 C812 1.310 . S
C813 H833 0.930 . S
C814 C815 1.474 . S
C814 C816 1.285 . S
C814 H834 0.929 . S
C815 C812 1.461 . S
C815 C814 1.474 . S
C816 C811 1.342 . S
C816 C814 1.285 . S
C816 H835 0.930 . S
C817 C820 1.424 . S
C817 C822 1.245 . S
C817 C823 1.428 . S
C818 C821 1.223 1_556 S
C818 C822 1.477 . S
C818 H836 0.932 . S
C819 C820 1.384 . S
C819 C821 1.469 1_556 S
C819 H837 0.929 1_556 S
C820 C817 1.424 . S
C820 C819 1.384 . S
C820 H838 0.928 . S
C821 C818 1.223 1_554 S
C821 C819 1.469 1_554 S
C822 C817 1.245 . S
C822 C818 1.477 . S
C822 H839 0.932 . S
C823 U806 2.882 . S
C823 C817 1.428 . S
C823 O826 1.301 . S
C823 O827 1.282 . S
O824 U806 2.441 . S
O824 C810 1.249 . S
O825 U806 2.420 . S
O825 C810 1.202 . S
O826 U806 2.455 . S
O826 C823 1.301 . S
O827 U806 2.449 . S
O827 C823 1.282 . S
H828 C801 0.931 . S
H829 C803 0.929 . S
H830 C804 0.930 . S
H831 C805 0.931 . S
H832 C812 0.932 . S
H833 C813 0.930 . S
H834 C814 0.929 . S
H835 C816 0.930 . S
H836 C818 0.932 . S
H837 C819 0.929 1_554 S
H838 C820 0.928 . S
H839 C822 0.932 . S
C840 C841 1.264 . S
C840 C845 1.479 . S
C840 C850 1.465 . S
C841 C840 1.264 . S
C841 C843 1.339 . S
C841 H868 0.931 . S
C842 C843 1.395 . S
C842 C844 1.320 . S
C843 C841 1.339 . S
C843 C842 1.395 . S
C843 H869 0.929 . S
C844 C842 1.320 . S
C844 C845 1.405 . S
C844 H870 0.930 . S
C845 C840 1.479 . S
C845 C844 1.405 . S
C845 H871 0.931 . S
U846 O847 2.454 . S
U846 O848 2.458 . S
U846 C849 2.984 . S
U846 C850 2.847 . S
U846 C863 2.882 . S
U846 O864 2.441 . S
U846 O865 2.420 . S
U846 O866 2.455 . S
U846 O867 2.449 . S
O847 U846 2.454 . S
O847 C849 1.353 . S
O848 U846 2.458 . S
O848 C849 1.286 . S
C849 U846 2.984 . S
C849 O847 1.353 . S
C849 O848 1.286 . S
C849 C851 1.363 . S
C850 C840 1.465 . S
C850 U846 2.847 . S
C850 O864 1.249 . S
C850 O865 1.202 . S
C851 C849 1.363 . S
C851 C853 1.408 . S
C851 C856 1.342 . S
C852 C853 1.310 . S
C852 C855 1.461 . S
C852 H872 0.932 . S
C853 C851 1.408 . S
C853 C852 1.310 . S
C853 H873 0.930 . S
C854 C855 1.474 . S
C854 C856 1.285 . S
C854 H874 0.929 . S
C855 C852 1.461 . S
C855 C854 1.474 . S
C856 C851 1.342 . S
C856 C854 1.285 . S
C856 H875 0.930 . S
C857 C860 1.424 . S
C857 C862 1.245 . S
C857 C863 1.428 . S
C858 C861 1.223 1_554 S
C858 C862 1.477 . S
C858 H876 0.932 . S
C859 C860 1.384 . S
C859 C861 1.469 1_554 S
C859 H877 0.929 1_554 S
C860 C857 1.424 . S
C860 C859 1.384 . S
C860 H878 0.928 . S
C861 C858 1.223 1_556 S
C861 C859 1.469 1_556 S
C862 C857 1.245 . S
C862 C858 1.477 . S
C862 H879 0.932 . S
C863 U846 2.882 . S
C863 C857 1.428 . S
C863 O866 1.301 . S
C863 O867 1.282 . S
O864 U846 2.441 . S
O864 C850 1.249 . S
O865 U846 2.420 . S
O865 C850 1.202 . S
O866 U846 2.455 . S
O866 C863 1.301 . S
O867 U846 2.449 . S
O867 C863 1.282 . S
H868 C841 0.931 . S
H869 C843 0.929 . S
H870 C844 0.930 . S
H871 C845 0.931 . S
H872 C852 0.932 . S
H873 C853 0.930 . S
H874 C854 0.929 . S
H875 C856 0.930 . S
H876 C858 0.932 . S
H877 C859 0.929 1_556 S
H878 C860 0.928 . S
H879 C862 0.932 . S
C880 C881 1.264 . S
C880 C885 1.479 . S
C880 C890 1.465 . S
C881 C880 1.264 . S
C881 C883 1.339 . S
C881 H908 0.931 . S
C882 C883 1.395 . S
C882 C884 1.320 . S
C883 C881 1.339 . S
C883 C882 1.395 . S
C883 H909 0.929 . S
C884 C882 1.320 . S
C884 C885 1.405 . S
C884 H910 0.930 . S
C885 C880 1.479 . S
C885 C884 1.405 . S
C885 H911 0.931 . S
U886 O887 2.454 . S
U886 O888 2.458 . S
U886 C889 2.984 . S
U886 C890 2.847 . S
U886 C903 2.882 . S
U886 O904 2.441 . S
U886 O905 2.420 . S
U886 O906 2.455 . S
U886 O907 2.449 . S
O887 U886 2.454 . S
O887 C889 1.353 . S
O888 U886 2.458 . S
O888 C889 1.286 . S
C889 U886 2.984 . S
C889 O887 1.353 . S
C889 O888 1.286 . S
C889 C891 1.363 . S
C890 C880 1.465 . S
C890 U886 2.847 . S
C890 O904 1.249 . S
C890 O905 1.202 . S
C891 C889 1.363 . S
C891 C893 1.408 . S
C891 C896 1.342 . S
C892 C893 1.310 . S
C892 C895 1.461 . S
C892 H912 0.932 . S
C893 C891 1.408 . S
C893 C892 1.310 . S
C893 H913 0.930 . S
C894 C895 1.474 . S
C894 C896 1.285 . S
C894 H914 0.929 . S
C895 C892 1.461 . S
C895 C894 1.474 . S
C896 C891 1.342 . S
C896 C894 1.285 . S
C896 H915 0.930 . S
C897 C900 1.424 . S
C897 C902 1.245 . S
C897 C903 1.428 . S
C898 C901 1.223 1_554 S
C898 C902 1.477 . S
C898 H916 0.932 . S
C899 C900 1.384 . S
C899 C901 1.469 1_554 S
C899 H917 0.929 1_554 S
C900 C897 1.424 . S
C900 C899 1.384 . S
C900 H918 0.928 . S
C901 C898 1.223 1_556 S
C901 C899 1.469 1_556 S
C902 C897 1.245 . S
C902 C898 1.477 . S
C902 H919 0.932 . S
C903 U886 2.882 . S
C903 C897 1.428 . S
C903 O906 1.301 . S
C903 O907 1.282 . S
O904 U886 2.441 . S
O904 C890 1.249 . S
O905 U886 2.420 . S
O905 C890 1.202 . S
O906 U886 2.455 . S
O906 C903 1.301 . S
O907 U886 2.449 . S
O907 C903 1.282 . S
H908 C881 0.931 . S
H909 C883 0.929 . S
H910 C884 0.930 . S
H911 C885 0.931 . S
H912 C892 0.932 . S
H913 C893 0.930 . S
H914 C894 0.929 . S
H915 C896 0.930 . S
H916 C898 0.932 . S
H917 C899 0.929 1_556 S
H918 C900 0.928 . S
H919 C902 0.932 . S
C920 C921 1.264 . S
C920 C925 1.479 . S
C920 C930 1.465 . S
C921 C920 1.264 . S
C921 C923 1.339 . S
C921 H948 0.931 . S
C922 C923 1.395 . S
C922 C924 1.320 . S
C923 C921 1.339 . S
C923 C922 1.395 . S
C923 H949 0.929 . S
C924 C922 1.320 . S
C924 C925 1.405 . S
C924 H950 0.930 . S
C925 C920 1.479 . S
C925 C924 1.405 . S
C925 H951 0.931 . S
U926 O927 2.454 . S
U926 O928 2.458 . S
U926 C929 2.984 . S
U926 C930 2.847 . S
U926 C943 2.882 . S
U926 O944 2.441 . S
U926 O945 2.420 . S
U926 O946 2.455 . S
U926 O947 2.449 . S
O927 U926 2.454 . S
O927 C929 1.353 . S
O928 U926 2.458 . S
O928 C929 1.286 . S
C929 U926 2.984 . S
C929 O927 1.353 . S
C929 O928 1.286 . S
C929 C931 1.363 . S
C930 C920 1.465 . S
C930 U926 2.847 . S
C930 O944 1.249 . S
C930 O945 1.202 . S
C931 C929 1.363 . S
C931 C933 1.408 . S
C931 C936 1.342 . S
C932 C933 1.310 . S
C932 C935 1.461 . S
C932 H952 0.932 . S
C933 C931 1.408 . S
C933 C932 1.310 . S
C933 H953 0.930 . S
C934 C935 1.474 . S
C934 C936 1.285 . S
C934 H954 0.929 . S
C935 C932 1.461 . S
C935 C934 1.474 . S
C936 C931 1.342 . S
C936 C934 1.285 . S
C936 H955 0.930 . S
C937 C940 1.424 . S
C937 C942 1.245 . S
C937 C943 1.428 . S
C938 C941 1.223 1_554 S
C938 C942 1.477 . S
C938 H956 0.932 . S
C939 C940 1.384 . S
C939 C941 1.469 1_554 S
C939 H957 0.929 1_554 S
C940 C937 1.424 . S
C940 C939 1.384 . S
C940 H958 0.928 . S
C941 C938 1.223 1_556 S
C941 C939 1.469 1_556 S
C942 C937 1.245 . S
C942 C938 1.477 . S
C942 H959 0.932 . S
C943 U926 2.882 . S
C943 C937 1.428 . S
C943 O946 1.301 . S
C943 O947 1.282 . S
O944 U926 2.441 . S
O944 C930 1.249 . S
O945 U926 2.420 . S
O945 C930 1.202 . S
O946 U926 2.455 . S
O946 C943 1.301 . S
O947 U926 2.449 . S
O947 C943 1.282 . S
H948 C921 0.931 . S
H949 C923 0.929 . S
H950 C924 0.930 . S
H951 C925 0.931 . S
H952 C932 0.932 . S
H953 C933 0.930 . S
H954 C934 0.929 . S
H955 C936 0.930 . S
H956 C938 0.932 . S
H957 C939 0.929 1_556 S
H958 C940 0.928 . S
H959 C942 0.932 . S
C960 C961 1.264 . S
C960 C965 1.479 . S
C960 C970 1.465 . S
C961 C960 1.264 . S
C961 C963 1.339 . S
C961 H988 0.931 . S
C962 C963 1.395 . S
C962 C964 1.320 . S
C963 C961 1.339 . S
C963 C962 1.395 . S
C963 H989 0.929 . S
C964 C962 1.320 . S
C964 C965 1.405 . S
C964 H990 0.930 . S
C965 C960 1.479 . S
C965 C964 1.405 . S
C965 H991 0.931 . S
U966 O967 2.454 . S
U966 O968 2.458 . S
U966 C969 2.984 . S
U966 C970 2.847 . S
U966 C983 2.882 . S
U966 O984 2.441 . S
U966 O985 2.420 . S
U966 O986 2.455 . S
U966 O987 2.449 . S
O967 U966 2.454 . S
O967 C969 1.353 . S
O968 U966 2.458 . S
O968 C969 1.286 . S
C969 U966 2.984 . S
C969 O967 1.353 . S
C969 O968 1.286 . S
C969 C971 1.363 . S
C970 C960 1.465 . S
C970 U966 2.847 . S
C970 O984 1.249 . S
C970 O985 1.202 . S
C971 C969 1.363 . S
C971 C973 1.408 . S
C971 C976 1.342 . S
C972 C973 1.310 . S
C972 C975 1.461 . S
C972 H992 0.932 . S
C973 C971 1.408 . S
C973 C972 1.310 . S
C973 H993 0.930 . S
C974 C975 1.474 . S
C974 C976 1.285 . S
C974 H994 0.929 . S
C975 C972 1.461 . S
C975 C974 1.474 . S
C976 C971 1.342 . S
C976 C974 1.285 . S
C976 H995 0.930 . S
C977 C980 1.424 . S
C977 C982 1.245 . S
C977 C983 1.428 . S
C978 C981 1.260 . S
C978 C982 1.477 . S
C978 H996 0.932 . S
C979 C980 1.384 . S
C979 C981 1.479 . S
C979 H997 0.929 . S
C980 C977 1.424 . S
C980 C979 1.384 . S
C980 H998 0.928 . S
C981 C978 1.260 . S
C981 C979 1.479 . S
C982 C977 1.245 . S
C982 C978 1.477 . S
C982 H999 0.932 . S
C983 U966 2.882 . S
C983 C977 1.428 . S
C983 O986 1.301 . S
C983 O987 1.282 . S
O984 U966 2.441 . S
O984 C970 1.249 . S
O985 U966 2.420 . S
O985 C970 1.202 . S
O986 U966 2.455 . S
O986 C983 1.301 . S
O987 U966 2.449 . S
O987 C983 1.282 . S
H988 C961 0.931 . S
H989 C963 0.929 . S
H990 C964 0.930 . S
H991 C965 0.931 . S
H992 C972 0.932 . S
H993 C973 0.930 . S
H994 C974 0.929 . S
H995 C976 0.930 . S
H996 C978 0.932 . S
H997 C979 0.929 . S
H998 C980 0.928 . S
H999 C982 0.932 . S
C1000 C1001 1.264 . S
C1000 C1005 1.479 . S
C1000 C1010 1.465 . S
C1001 C1000 1.264 . S
C1001 C1003 1.339 . S
C1001 H1028 0.931 . S
C1002 C1003 1.395 . S
C1002 C1004 1.320 . S
C1003 C1001 1.339 . S
C1003 C1002 1.395 . S
C1003 H1029 0.929 . S
C1004 C1002 1.320 . S
C1004 C1005 1.405 . S
C1004 H1030 0.930 . S
C1005 C1000 1.479 . S
C1005 C1004 1.405 . S
C1005 H1031 0.931 . S
U1006 O1007 2.454 . S
U1006 O1008 2.458 . S
U1006 C1009 2.984 . S
U1006 C1010 2.847 . S
U1006 C1023 2.882 . S
U1006 O1024 2.441 . S
U1006 O1025 2.420 . S
U1006 O1026 2.455 . S
U1006 O1027 2.449 . S
O1007 U1006 2.454 . S
O1007 C1009 1.353 . S
O1008 U1006 2.458 . S
O1008 C1009 1.286 . S
C1009 U1006 2.984 . S
C1009 O1007 1.353 . S
C1009 O1008 1.286 . S
C1009 C1011 1.363 . S
C1010 C1000 1.465 . S
C1010 U1006 2.847 . S
C1010 O1024 1.249 . S
C1010 O1025 1.202 . S
C1011 C1009 1.363 . S
C1011 C1013 1.408 . S
C1011 C1016 1.342 . S
C1012 C1013 1.310 . S
C1012 C1015 1.461 . S
C1012 H1032 0.932 . S
C1013 C1011 1.408 . S
C1013 C1012 1.310 . S
C1013 H1033 0.930 . S
C1014 C1015 1.474 . S
C1014 C1016 1.285 . S
C1014 H1034 0.929 . S
C1015 C1012 1.461 . S
C1015 C1014 1.474 . S
C1016 C1011 1.342 . S
C1016 C1014 1.285 . S
C1016 H1035 0.930 . S
C1017 C1020 1.424 . S
C1017 C1022 1.245 . S
C1017 C1023 1.428 . S
C1018 C1021 1.260 . S
C1018 C1022 1.477 . S
C1018 H1036 0.932 . S
C1019 C1020 1.384 . S
C1019 C1021 1.479 . S
C1019 H1037 0.929 . S
C1020 C1017 1.424 . S
C1020 C1019 1.384 . S
C1020 H1038 0.928 . S
C1021 C1018 1.260 . S
C1021 C1019 1.479 . S
C1022 C1017 1.245 . S
C1022 C1018 1.477 . S
C1022 H1039 0.932 . S
C1023 U1006 2.882 . S
C1023 C1017 1.428 . S
C1023 O1026 1.301 . S
C1023 O1027 1.282 . S
O1024 U1006 2.441 . S
O1024 C1010 1.249 . S
O1025 U1006 2.420 . S
O1025 C1010 1.202 . S
O1026 U1006 2.455 . S
O1026 C1023 1.301 . S
O1027 U1006 2.449 . S
O1027 C1023 1.282 . S
H1028 C1001 0.931 . S
H1029 C1003 0.929 . S
H1030 C1004 0.930 . S
H1031 C1005 0.931 . S
H1032 C1012 0.932 . S
H1033 C1013 0.930 . S
H1034 C1014 0.929 . S
H1035 C1016 0.930 . S
H1036 C1018 0.932 . S
H1037 C1019 0.929 . S
H1038 C1020 0.928 . S
H1039 C1022 0.932 . S
C1040 C1041 1.264 . S
C1040 C1045 1.479 . S
C1040 C1050 1.465 . S
C1041 C1040 1.264 . S
C1041 C1043 1.339 . S
C1041 H1068 0.931 . S
C1042 C1043 1.395 . S
C1042 C1044 1.320 . S
C1043 C1041 1.339 . S
C1043 C1042 1.395 . S
C1043 H1069 0.929 . S
C1044 C1042 1.320 . S
C1044 C1045 1.405 . S
C1044 H1070 0.930 . S
C1045 C1040 1.479 . S
C1045 C1044 1.405 . S
C1045 H1071 0.931 . S
U1046 O1047 2.454 . S
U1046 O1048 2.458 . S
U1046 C1049 2.984 . S
U1046 C1050 2.847 . S
U1046 C1063 2.882 . S
U1046 O1064 2.441 . S
U1046 O1065 2.420 . S
U1046 O1066 2.455 . S
U1046 O1067 2.449 . S
O1047 U1046 2.454 . S
O1047 C1049 1.353 . S
O1048 U1046 2.458 . S
O1048 C1049 1.286 . S
C1049 U1046 2.984 . S
C1049 O1047 1.353 . S
C1049 O1048 1.286 . S
C1049 C1051 1.363 . S
C1050 C1040 1.465 . S
C1050 U1046 2.847 . S
C1050 O1064 1.249 . S
C1050 O1065 1.202 . S
C1051 C1049 1.363 . S
C1051 C1053 1.408 . S
C1051 C1056 1.342 . S
C1052 C1053 1.310 . S
C1052 C1055 1.461 . S
C1052 H1072 0.932 . S
C1053 C1051 1.408 . S
C1053 C1052 1.310 . S
C1053 H1073 0.930 . S
C1054 C1055 1.474 . S
C1054 C1056 1.285 . S
C1054 H1074 0.929 . S
C1055 C1052 1.461 . S
C1055 C1054 1.474 . S
C1056 C1051 1.342 . S
C1056 C1054 1.285 . S
C1056 H1075 0.930 . S
C1057 C1060 1.424 . S
C1057 C1062 1.245 . S
C1057 C1063 1.428 . S
C1058 C1061 1.260 . S
C1058 C1062 1.477 . S
C1058 H1076 0.932 . S
C1059 C1060 1.384 . S
C1059 C1061 1.479 . S
C1059 H1077 0.929 . S
C1060 C1057 1.424 . S
C1060 C1059 1.384 . S
C1060 H1078 0.928 . S
C1061 C1058 1.260 . S
C1061 C1059 1.479 . S
C1062 C1057 1.245 . S
C1062 C1058 1.477 . S
C1062 H1079 0.932 . S
C1063 U1046 2.882 . S
C1063 C1057 1.428 . S
C1063 O1066 1.301 . S
C1063 O1067 1.282 . S
O1064 U1046 2.441 . S
O1064 C1050 1.249 . S
O1065 U1046 2.420 . S
O1065 C1050 1.202 . S
O1066 U1046 2.455 . S
O1066 C1063 1.301 . S
O1067 U1046 2.449 . S
O1067 C1063 1.282 . S
H1068 C1041 0.931 . S
H1069 C1043 0.929 . S
H1070 C1044 0.930 . S
H1071 C1045 0.931 . S
H1072 C1052 0.932 . S
H1073 C1053 0.930 . S
H1074 C1054 0.929 . S
H1075 C1056 0.930 . S
H1076 C1058 0.932 . S
H1077 C1059 0.929 . S
H1078 C1060 0.928 . S
H1079 C1062 0.932 . S
C1080 C1081 1.264 . S
C1080 C1085 1.479 . S
C1080 C1090 1.465 . S
C1081 C1080 1.264 . S
C1081 C1083 1.339 . S
C1081 H1108 0.931 . S
C1082 C1083 1.395 . S
C1082 C1084 1.320 . S
C1083 C1081 1.339 . S
C1083 C1082 1.395 . S
C1083 H1109 0.929 . S
C1084 C1082 1.320 . S
C1084 C1085 1.405 . S
C1084 H1110 0.930 . S
C1085 C1080 1.479 . S
C1085 C1084 1.405 . S
C1085 H1111 0.931 . S
U1086 O1087 2.454 . S
U1086 O1088 2.458 . S
U1086 C1089 2.984 . S
U1086 C1090 2.847 . S
U1086 C1103 2.882 . S
U1086 O1104 2.441 . S
U1086 O1105 2.420 . S
U1086 O1106 2.455 . S
U1086 O1107 2.449 . S
O1087 U1086 2.454 . S
O1087 C1089 1.353 . S
O1088 U1086 2.458 . S
O1088 C1089 1.286 . S
C1089 U1086 2.984 . S
C1089 O1087 1.353 . S
C1089 O1088 1.286 . S
C1089 C1091 1.363 . S
C1090 C1080 1.465 . S
C1090 U1086 2.847 . S
C1090 O1104 1.249 . S
C1090 O1105 1.202 . S
C1091 C1089 1.363 . S
C1091 C1093 1.408 . S
C1091 C1096 1.342 . S
C1092 C1093 1.310 . S
C1092 C1095 1.461 . S
C1092 H1112 0.932 . S
C1093 C1091 1.408 . S
C1093 C1092 1.310 . S
C1093 H1113 0.930 . S
C1094 C1095 1.474 . S
C1094 C1096 1.285 . S
C1094 H1114 0.929 . S
C1095 C1092 1.461 . S
C1095 C1094 1.474 . S
C1096 C1091 1.342 . S
C1096 C1094 1.285 . S
C1096 H1115 0.930 . S
C1097 C1100 1.424 . S
C1097 C1102 1.245 . S
C1097 C1103 1.428 . S
C1098 C1101 1.260 . S
C1098 C1102 1.477 . S
C1098 H1116 0.932 . S
C1099 C1100 1.384 . S
C1099 C1101 1.479 . S
C1099 H1117 0.929 . S
C1100 C1097 1.424 . S
C1100 C1099 1.384 . S
C1100 H1118 0.928 . S
C1101 C1098 1.260 . S
C1101 C1099 1.479 . S
C1102 C1097 1.245 . S
C1102 C1098 1.477 . S
C1102 H1119 0.932 . S
C1103 U1086 2.882 . S
C1103 C1097 1.428 . S
C1103 O1106 1.301 . S
C1103 O1107 1.282 . S
O1104 U1086 2.441 . S
O1104 C1090 1.249 . S
O1105 U1086 2.420 . S
O1105 C1090 1.202 . S
O1106 U1086 2.455 . S
O1106 C1103 1.301 . S
O1107 U1086 2.449 . S
O1107 C1103 1.282 . S
H1108 C1081 0.931 . S
H1109 C1083 0.929 . S
H1110 C1084 0.930 . S
H1111 C1085 0.931 . S
H1112 C1092 0.932 . S
H1113 C1093 0.930 . S
H1114 C1094 0.929 . S
H1115 C1096 0.930 . S
H1116 C1098 0.932 . S
H1117 C1099 0.929 . S
H1118 C1100 0.928 . S
H1119 C1102 0.932 . S
C1120 C1121 1.264 . S
C1120 C1125 1.479 . S
C1120 C1130 1.465 . S
C1121 C1120 1.264 . S
C1121 C1123 1.339 . S
C1121 H1148 0.931 . S
C1122 C1123 1.395 . S
C1122 C1124 1.320 . S
C1123 C1121 1.339 . S
C1123 C1122 1.395 . S
C1123 H1149 0.929 . S
C1124 C1122 1.320 . S
C1124 C1125 1.405 . S
C1124 H1150 0.930 . S
C1125 C1120 1.479 . S
C1125 C1124 1.405 . S
C1125 H1151 0.931 . S
U1126 O1127 2.454 . S
U1126 O1128 2.458 . S
U1126 C1129 2.984 . S
U1126 C1130 2.847 . S
U1126 C1143 2.882 . S
U1126 O1144 2.441 . S
U1126 O1145 2.420 . S
U1126 O1146 2.455 . S
U1126 O1147 2.449 . S
O1127 U1126 2.454 . S
O1127 C1129 1.353 . S
O1128 U1126 2.458 . S
O1128 C1129 1.286 . S
C1129 U1126 2.984 . S
C1129 O1127 1.353 . S
C1129 O1128 1.286 . S
C1129 C1131 1.363 . S
C1130 C1120 1.465 . S
C1130 U1126 2.847 . S
C1130 O1144 1.249 . S
C1130 O1145 1.202 . S
C1131 C1129 1.363 . S
C1131 C1133 1.408 . S
C1131 C1136 1.342 . S
C1132 C1133 1.310 . S
C1132 C1135 1.461 . S
C1132 H1152 0.932 . S
C1133 C1131 1.408 . S
C1133 C1132 1.310 . S
C1133 H1153 0.930 . S
C1134 C1135 1.474 . S
C1134 C1136 1.285 . S
C1134 H1154 0.929 . S
C1135 C1132 1.461 . S
C1135 C1134 1.474 . S
C1136 C1131 1.342 . S
C1136 C1134 1.285 . S
C1136 H1155 0.930 . S
C1137 C1140 1.424 . S
C1137 C1142 1.245 . S
C1137 C1143 1.428 . S
C1138 C1141 1.260 . S
C1138 C1142 1.477 . S
C1138 H1156 0.932 . S
C1139 C1140 1.384 . S
C1139 C1141 1.479 . S
C1139 H1157 0.929 . S
C1140 C1137 1.424 . S
C1140 C1139 1.384 . S
C1140 H1158 0.928 . S
C1141 C1138 1.260 . S
C1141 C1139 1.479 . S
C1142 C1137 1.245 . S
C1142 C1138 1.477 . S
C1142 H1159 0.932 . S
C1143 U1126 2.882 . S
C1143 C1137 1.428 . S
C1143 O1146 1.301 . S
C1143 O1147 1.282 . S
O1144 U1126 2.441 . S
O1144 C1130 1.249 . S
O1145 U1126 2.420 . S
O1145 C1130 1.202 . S
O1146 U1126 2.455 . S
O1146 C1143 1.301 . S
O1147 U1126 2.449 . S
O1147 C1143 1.282 . S
H1148 C1121 0.931 . S
H1149 C1123 0.929 . S
H1150 C1124 0.930 . S
H1151 C1125 0.931 . S
H1152 C1132 0.932 . S
H1153 C1133 0.930 . S
H1154 C1134 0.929 . S
H1155 C1136 0.930 . S
H1156 C1138 0.932 . S
H1157 C1139 0.929 . S
H1158 C1140 0.928 . S
H1159 C1142 0.932 . S
C1160 C1161 1.264 . S
C1160 C1165 1.479 . S
C1160 C1170 1.465 . S
C1161 C1160 1.264 . S
C1161 C1163 1.339 . S
C1161 H1188 0.931 . S
C1162 C1163 1.395 . S
C1162 C1164 1.320 . S
C1163 C1161 1.339 . S
C1163 C1162 1.395 . S
C1163 H1189 0.929 . S
C1164 C1162 1.320 . S
C1164 C1165 1.405 . S
C1164 H1190 0.930 . S
C1165 C1160 1.479 . S
C1165 C1164 1.405 . S
C1165 H1191 0.931 . S
U1166 O1167 2.454 . S
U1166 O1168 2.458 . S
U1166 C1169 2.984 . S
U1166 C1170 2.847 . S
U1166 C1183 2.882 . S
U1166 O1184 2.441 . S
U1166 O1185 2.420 . S
U1166 O1186 2.455 . S
U1166 O1187 2.449 . S
O1167 U1166 2.454 . S
O1167 C1169 1.353 . S
O1168 U1166 2.458 . S
O1168 C1169 1.286 . S
C1169 U1166 2.984 . S
C1169 O1167 1.353 . S
C1169 O1168 1.286 . S
C1169 C1171 1.363 . S
C1170 C1160 1.465 . S
C1170 U1166 2.847 . S
C1170 O1184 1.249 . S
C1170 O1185 1.202 . S
C1171 C1169 1.363 . S
C1171 C1173 1.408 . S
C1171 C1176 1.342 . S
C1172 C1173 1.310 . S
C1172 C1175 1.461 . S
C1172 H1192 0.932 . S
C1173 C1171 1.408 . S
C1173 C1172 1.310 . S
C1173 H1193 0.930 . S
C1174 C1175 1.474 . S
C1174 C1176 1.285 . S
C1174 H1194 0.929 . S
C1175 C1172 1.461 . S
C1175 C1174 1.474 . S
C1176 C1171 1.342 . S
C1176 C1174 1.285 . S
C1176 H1195 0.930 . S
C1177 C1180 1.424 . S
C1177 C1182 1.245 . S
C1177 C1183 1.428 . S
C1178 C1181 1.260 . S
C1178 C1182 1.477 . S
C1178 H1196 0.932 . S
C1179 C1180 1.384 . S
C1179 C1181 1.479 . S
C1179 H1197 0.929 . S
C1180 C1177 1.424 . S
C1180 C1179 1.384 . S
C1180 H1198 0.928 . S
C1181 C1178 1.260 . S
C1181 C1179 1.479 . S
C1182 C1177 1.245 . S
C1182 C1178 1.477 . S
C1182 H1199 0.932 . S
C1183 U1166 2.882 . S
C1183 C1177 1.428 . S
C1183 O1186 1.301 . S
C1183 O1187 1.282 . S
O1184 U1166 2.441 . S
O1184 C1170 1.249 . S
O1185 U1166 2.420 . S
O1185 C1170 1.202 . S
O1186 U1166 2.455 . S
O1186 C1183 1.301 . S
O1187 U1166 2.449 . S
O1187 C1183 1.282 . S
H1188 C1161 0.931 . S
H1189 C1163 0.929 . S
H1190 C1164 0.930 . S
H1191 C1165 0.931 . S
H1192 C1172 0.932 . S
H1193 C1173 0.930 . S
H1194 C1174 0.929 . S
H1195 C1176 0.930 . S
H1196 C1178 0.932 . S
H1197 C1179 0.929 . S
H1198 C1180 0.928 . S
H1199 C1182 0.932 . S
C1200 C1201 1.264 . S
C1200 C1205 1.479 . S
C1200 C1210 1.465 . S
C1201 C1200 1.264 . S
C1201 C1203 1.339 . S
C1201 H1228 0.931 . S
C1202 C1203 1.395 . S
C1202 C1204 1.320 . S
C1203 C1201 1.339 . S
C1203 C1202 1.395 . S
C1203 H1229 0.929 . S
C1204 C1202 1.320 . S
C1204 C1205 1.405 . S
C1204 H1230 0.930 . S
C1205 C1200 1.479 . S
C1205 C1204 1.405 . S
C1205 H1231 0.931 . S
U1206 O1207 2.454 . S
U1206 O1208 2.458 . S
U1206 C1209 2.984 . S
U1206 C1210 2.847 . S
U1206 C1223 2.882 . S
U1206 O1224 2.441 . S
U1206 O1225 2.420 . S
U1206 O1226 2.455 . S
U1206 O1227 2.449 . S
O1207 U1206 2.454 . S
O1207 C1209 1.353 . S
O1208 U1206 2.458 . S
O1208 C1209 1.286 . S
C1209 U1206 2.984 . S
C1209 O1207 1.353 . S
C1209 O1208 1.286 . S
C1209 C1211 1.363 . S
C1210 C1200 1.465 . S
C1210 U1206 2.847 . S
C1210 O1224 1.249 . S
C1210 O1225 1.202 . S
C1211 C1209 1.363 . S
C1211 C1213 1.408 . S
C1211 C1216 1.342 . S
C1212 C1213 1.310 . S
C1212 C1215 1.461 . S
C1212 H1232 0.932 . S
C1213 C1211 1.408 . S
C1213 C1212 1.310 . S
C1213 H1233 0.930 . S
C1214 C1215 1.474 . S
C1214 C1216 1.285 . S
C1214 H1234 0.929 . S
C1215 C1212 1.461 . S
C1215 C1214 1.474 . S
C1216 C1211 1.342 . S
C1216 C1214 1.285 . S
C1216 H1235 0.930 . S
C1217 C1220 1.424 . S
C1217 C1222 1.245 . S
C1217 C1223 1.428 . S
C1218 C1221 1.260 . S
C1218 C1222 1.477 . S
C1218 H1236 0.932 . S
C1219 C1220 1.384 . S
C1219 C1221 1.479 . S
C1219 H1237 0.929 . S
C1220 C1217 1.424 . S
C1220 C1219 1.384 . S
C1220 H1238 0.928 . S
C1221 C1218 1.260 . S
C1221 C1219 1.479 . S
C1222 C1217 1.245 . S
C1222 C1218 1.477 . S
C1222 H1239 0.932 . S
C1223 U1206 2.882 . S
C1223 C1217 1.428 . S
C1223 O1226 1.301 . S
C1223 O1227 1.282 . S
O1224 U1206 2.441 . S
O1224 C1210 1.249 . S
O1225 U1206 2.420 . S
O1225 C1210 1.202 . S
O1226 U1206 2.455 . S
O1226 C1223 1.301 . S
O1227 U1206 2.449 . S
O1227 C1223 1.282 . S
H1228 C1201 0.931 . S
H1229 C1203 0.929 . S
H1230 C1204 0.930 . S
H1231 C1205 0.931 . S
H1232 C1212 0.932 . S
H1233 C1213 0.930 . S
H1234 C1214 0.929 . S
H1235 C1216 0.930 . S
H1236 C1218 0.932 . S
H1237 C1219 0.929 . S
H1238 C1220 0.928 . S
H1239 C1222 0.932 . S
C1240 C1241 1.264 . S
C1240 C1245 1.479 . S
C1240 C1250 1.465 . S
C1241 C1240 1.264 . S
C1241 C1243 1.339 . S
C1241 H1268 0.931 . S
C1242 C1243 1.395 . S
C1242 C1244 1.320 . S
C1243 C1241 1.339 . S
C1243 C1242 1.395 . S
C1243 H1269 0.929 . S
C1244 C1242 1.320 . S
C1244 C1245 1.405 . S
C1244 H1270 0.930 . S
C1245 C1240 1.479 . S
C1245 C1244 1.405 . S
C1245 H1271 0.931 . S
U1246 O1247 2.454 . S
U1246 O1248 2.458 . S
U1246 C1249 2.984 . S
U1246 C1250 2.847 . S
U1246 C1263 2.882 . S
U1246 O1264 2.441 . S
U1246 O1265 2.420 . S
U1246 O1266 2.455 . S
U1246 O1267 2.449 . S
O1247 U1246 2.454 . S
O1247 C1249 1.353 . S
O1248 U1246 2.458 . S
O1248 C1249 1.286 . S
C1249 U1246 2.984 . S
C1249 O1247 1.353 . S
C1249 O1248 1.286 . S
C1249 C1251 1.363 . S
C1250 C1240 1.465 . S
C1250 U1246 2.847 . S
C1250 O1264 1.249 . S
C1250 O1265 1.202 . S
C1251 C1249 1.363 . S
C1251 C1253 1.408 . S
C1251 C1256 1.342 . S
C1252 C1253 1.310 . S
C1252 C1255 1.461 . S
C1252 H1272 0.932 . S
C1253 C1251 1.408 . S
C1253 C1252 1.310 . S
C1253 H1273 0.930 . S
C1254 C1255 1.474 . S
C1254 C1256 1.285 . S
C1254 H1274 0.929 . S
C1255 C1252 1.461 . S
C1255 C1254 1.474 . S
C1256 C1251 1.342 . S
C1256 C1254 1.285 . S
C1256 H1275 0.930 . S
C1257 C1260 1.424 . S
C1257 C1262 1.245 . S
C1257 C1263 1.428 . S
C1258 C1261 1.260 . S
C1258 C1262 1.477 . S
C1258 H1276 0.932 . S
C1259 C1260 1.384 . S
C1259 C1261 1.479 . S
C1259 H1277 0.929 . S
C1260 C1257 1.424 . S
C1260 C1259 1.384 . S
C1260 H1278 0.928 . S
C1261 C1258 1.260 . S
C1261 C1259 1.479 . S
C1262 C1257 1.245 . S
C1262 C1258 1.477 . S
C1262 H1279 0.932 . S
C1263 U1246 2.882 . S
C1263 C1257 1.428 . S
C1263 O1266 1.301 . S
C1263 O1267 1.282 . S
O1264 U1246 2.441 . S
O1264 C1250 1.249 . S
O1265 U1246 2.420 . S
O1265 C1250 1.202 . S
O1266 U1246 2.455 . S
O1266 C1263 1.301 . S
O1267 U1246 2.449 . S
O1267 C1263 1.282 . S
H1268 C1241 0.931 . S
H1269 C1243 0.929 . S
H1270 C1244 0.930 . S
H1271 C1245 0.931 . S
H1272 C1252 0.932 . S
H1273 C1253 0.930 . S
H1274 C1254 0.929 . S
H1275 C1256 0.930 . S
H1276 C1258 0.932 . S
H1277 C1259 0.929 . S
H1278 C1260 0.928 . S
H1279 C1262 0.932 . S
C1280 C1281 1.264 . S
C1280 C1285 1.479 . S
C1280 C1290 1.465 . S
C1281 C1280 1.264 . S
C1281 C1283 1.339 . S
C1281 H1308 0.931 . S
C1282 C1283 1.395 . S
C1282 C1284 1.320 . S
C1283 C1281 1.339 . S
C1283 C1282 1.395 . S
C1283 H1309 0.929 . S
C1284 C1282 1.320 . S
C1284 C1285 1.405 . S
C1284 H1310 0.930 . S
C1285 C1280 1.479 . S
C1285 C1284 1.405 . S
C1285 H1311 0.931 . S
U1286 O1287 2.454 . S
U1286 O1288 2.458 . S
U1286 C1289 2.984 . S
U1286 C1290 2.847 . S
U1286 C1303 2.882 . S
U1286 O1304 2.441 . S
U1286 O1305 2.420 . S
U1286 O1306 2.455 . S
U1286 O1307 2.449 . S
O1287 U1286 2.454 . S
O1287 C1289 1.353 . S
O1288 U1286 2.458 . S
O1288 C1289 1.286 . S
C1289 U1286 2.984 . S
C1289 O1287 1.353 . S
C1289 O1288 1.286 . S
C1289 C1291 1.363 . S
C1290 C1280 1.465 . S
C1290 U1286 2.847 . S
C1290 O1304 1.249 . S
C1290 O1305 1.202 . S
C1291 C1289 1.363 . S
C1291 C1293 1.408 . S
C1291 C1296 1.342 . S
C1292 C1293 1.310 . S
C1292 C1295 1.461 . S
C1292 H1312 0.932 . S
C1293 C1291 1.408 . S
C1293 C1292 1.310 . S
C1293 H1313 0.930 . S
C1294 C1295 1.474 . S
C1294 C1296 1.285 . S
C1294 H1314 0.929 . S
C1295 C1292 1.461 . S
C1295 C1294 1.474 . S
C1296 C1291 1.342 . S
C1296 C1294 1.285 . S
C1296 H1315 0.930 . S
C1297 C1300 1.424 . S
C1297 C1302 1.245 . S
C1297 C1303 1.428 . S
C1298 C1301 1.260 . S
C1298 C1302 1.477 . S
C1298 H1316 0.932 . S
C1299 C1300 1.384 . S
C1299 C1301 1.479 . S
C1299 H1317 0.929 . S
C1300 C1297 1.424 . S
C1300 C1299 1.384 . S
C1300 H1318 0.928 . S
C1301 C1298 1.260 . S
C1301 C1299 1.479 . S
C1302 C1297 1.245 . S
C1302 C1298 1.477 . S
C1302 H1319 0.932 . S
C1303 U1286 2.882 . S
C1303 C1297 1.428 . S
C1303 O1306 1.301 . S
C1303 O1307 1.282 . S
O1304 U1286 2.441 . S
O1304 C1290 1.249 . S
O1305 U1286 2.420 . S
O1305 C1290 1.202 . S
O1306 U1286 2.455 . S
O1306 C1303 1.301 . S
O1307 U1286 2.449 . S
O1307 C1303 1.282 . S
H1308 C1281 0.931 . S
H1309 C1283 0.929 . S
H1310 C1284 0.930 . S
H1311 C1285 0.931 . S
H1312 C1292 0.932 . S
H1313 C1293 0.930 . S
H1314 C1294 0.929 . S
H1315 C1296 0.930 . S
H1316 C1298 0.932 . S
H1317 C1299 0.929 . S
H1318 C1300 0.928 . S
H1319 C1302 0.932 . S
C1320 C1321 1.264 . S
C1320 C1325 1.479 . S
C1320 C1330 1.465 . S
C1321 C1320 1.264 . S
C1321 C1323 1.339 . S
C1321 H1348 0.931 . S
C1322 C1323 1.395 . S
C1322 C1324 1.320 . S
C1323 C1321 1.339 . S
C1323 C1322 1.395 . S
C1323 H1349 0.929 . S
C1324 C1322 1.320 . S
C1324 C1325 1.405 . S
C1324 H1350 0.930 . S
C1325 C1320 1.479 . S
C1325 C1324 1.405 . S
C1325 H1351 0.931 . S
U1326 O1327 2.454 . S
U1326 O1328 2.458 . S
U1326 C1329 2.984 . S
U1326 C1330 2.847 . S
U1326 C1343 2.882 . S
U1326 O1344 2.441 . S
U1326 O1345 2.420 . S
U1326 O1346 2.455 . S
U1326 O1347 2.449 . S
O1327 U1326 2.454 . S
O1327 C1329 1.353 . S
O1328 U1326 2.458 . S
O1328 C1329 1.286 . S
C1329 U1326 2.984 . S
C1329 O1327 1.353 . S
C1329 O1328 1.286 . S
C1329 C1331 1.363 . S
C1330 C1320 1.465 . S
C1330 U1326 2.847 . S
C1330 O1344 1.249 . S
C1330 O1345 1.202 . S
C1331 C1329 1.363 . S
C1331 C1333 1.408 . S
C1331 C1336 1.342 . S
C1332 C1333 1.310 . S
C1332 C1335 1.461 . S
C1332 H1352 0.932 . S
C1333 C1331 1.408 . S
C1333 C1332 1.310 . S
C1333 H1353 0.930 . S
C1334 C1335 1.474 . S
C1334 C1336 1.285 . S
C1334 H1354 0.929 . S
C1335 C1332 1.461 . S
C1335 C1334 1.474 . S
C1336 C1331 1.342 . S
C1336 C1334 1.285 . S
C1336 H1355 0.930 . S
C1337 C1340 1.424 . S
C1337 C1342 1.245 . S
C1337 C1343 1.428 . S
C1338 C1341 1.260 . S
C1338 C1342 1.477 . S
C1338 H1356 0.932 . S
C1339 C1340 1.384 . S
C1339 C1341 1.479 . S
C1339 H1357 0.929 . S
C1340 C1337 1.424 . S
C1340 C1339 1.384 . S
C1340 H1358 0.928 . S
C1341 C1338 1.260 . S
C1341 C1339 1.479 . S
C1342 C1337 1.245 . S
C1342 C1338 1.477 . S
C1342 H1359 0.932 . S
C1343 U1326 2.882 . S
C1343 C1337 1.428 . S
C1343 O1346 1.301 . S
C1343 O1347 1.282 . S
O1344 U1326 2.441 . S
O1344 C1330 1.249 . S
O1345 U1326 2.420 . S
O1345 C1330 1.202 . S
O1346 U1326 2.455 . S
O1346 C1343 1.301 . S
O1347 U1326 2.449 . S
O1347 C1343 1.282 . S
H1348 C1321 0.931 . S
H1349 C1323 0.929 . S
H1350 C1324 0.930 . S
H1351 C1325 0.931 . S
H1352 C1332 0.932 . S
H1353 C1333 0.930 . S
H1354 C1334 0.929 . S
H1355 C1336 0.930 . S
H1356 C1338 0.932 . S
H1357 C1339 0.929 . S
H1358 C1340 0.928 . S
H1359 C1342 0.932 . S
C1360 C1361 1.264 . S
C1360 C1365 1.479 . S
C1360 C1370 1.465 . S
C1361 C1360 1.264 . S
C1361 C1363 1.339 . S
C1361 H1388 0.931 . S
C1362 C1363 1.395 . S
C1362 C1364 1.320 . S
C1363 C1361 1.339 . S
C1363 C1362 1.395 . S
C1363 H1389 0.929 . S
C1364 C1362 1.320 . S
C1364 C1365 1.405 . S
C1364 H1390 0.930 . S
C1365 C1360 1.479 . S
C1365 C1364 1.405 . S
C1365 H1391 0.931 . S
U1366 O1367 2.454 . S
U1366 O1368 2.458 . S
U1366 C1369 2.984 . S
U1366 C1370 2.847 . S
U1366 C1383 2.882 . S
U1366 O1384 2.441 . S
U1366 O1385 2.420 . S
U1366 O1386 2.455 . S
U1366 O1387 2.449 . S
O1367 U1366 2.454 . S
O1367 C1369 1.353 . S
O1368 U1366 2.458 . S
O1368 C1369 1.286 . S
C1369 U1366 2.984 . S
C1369 O1367 1.353 . S
C1369 O1368 1.286 . S
C1369 C1371 1.363 . S
C1370 C1360 1.465 . S
C1370 U1366 2.847 . S
C1370 O1384 1.249 . S
C1370 O1385 1.202 . S
C1371 C1369 1.363 . S
C1371 C1373 1.408 . S
C1371 C1376 1.342 . S
C1372 C1373 1.310 . S
C1372 C1375 1.461 . S
C1372 H1392 0.932 . S
C1373 C1371 1.408 . S
C1373 C1372 1.310 . S
C1373 H1393 0.930 . S
C1374 C1375 1.474 . S
C1374 C1376 1.285 . S
C1374 H1394 0.929 . S
C1375 C1372 1.461 . S
C1375 C1374 1.474 . S
C1376 C1371 1.342 . S
C1376 C1374 1.285 . S
C1376 H1395 0.930 . S
C1377 C1380 1.424 . S
C1377 C1382 1.245 . S
C1377 C1383 1.428 . S
C1378 C1381 1.260 . S
C1378 C1382 1.477 . S
C1378 H1396 0.932 . S
C1379 C1380 1.384 . S
C1379 C1381 1.479 . S
C1379 H1397 0.929 . S
C1380 C1377 1.424 . S
C1380 C1379 1.384 . S
C1380 H1398 0.928 . S
C1381 C1378 1.260 . S
C1381 C1379 1.479 . S
C1382 C1377 1.245 . S
C1382 C1378 1.477 . S
C1382 H1399 0.932 . S
C1383 U1366 2.882 . S
C1383 C1377 1.428 . S
C1383 O1386 1.301 . S
C1383 O1387 1.282 . S
O1384 U1366 2.441 . S
O1384 C1370 1.249 . S
O1385 U1366 2.420 . S
O1385 C1370 1.202 . S
O1386 U1366 2.455 . S
O1386 C1383 1.301 . S
O1387 U1366 2.449 . S
O1387 C1383 1.282 . S
H1388 C1361 0.931 . S
H1389 C1363 0.929 . S
H1390 C1364 0.930 . S
H1391 C1365 0.931 . S
H1392 C1372 0.932 . S
H1393 C1373 0.930 . S
H1394 C1374 0.929 . S
H1395 C1376 0.930 . S
H1396 C1378 0.932 . S
H1397 C1379 0.929 . S
H1398 C1380 0.928 . S
H1399 C1382 0.932 . S
C1400 C1401 1.264 . S
C1400 C1405 1.479 . S
C1400 C1410 1.465 . S
C1401 C1400 1.264 . S
C1401 C1403 1.339 . S
C1401 H1428 0.931 . S
C1402 C1403 1.395 . S
C1402 C1404 1.320 . S
C1403 C1401 1.339 . S
C1403 C1402 1.395 . S
C1403 H1429 0.929 . S
C1404 C1402 1.320 . S
C1404 C1405 1.405 . S
C1404 H1430 0.930 . S
C1405 C1400 1.479 . S
C1405 C1404 1.405 . S
C1405 H1431 0.931 . S
U1406 O1407 2.454 . S
U1406 O1408 2.458 . S
U1406 C1409 2.984 . S
U1406 C1410 2.847 . S
U1406 C1423 2.882 . S
U1406 O1424 2.441 . S
U1406 O1425 2.420 . S
U1406 O1426 2.455 . S
U1406 O1427 2.449 . S
O1407 U1406 2.454 . S
O1407 C1409 1.353 . S
O1408 U1406 2.458 . S
O1408 C1409 1.286 . S
C1409 U1406 2.984 . S
C1409 O1407 1.353 . S
C1409 O1408 1.286 . S
C1409 C1411 1.363 . S
C1410 C1400 1.465 . S
C1410 U1406 2.847 . S
C1410 O1424 1.249 . S
C1410 O1425 1.202 . S
C1411 C1409 1.363 . S
C1411 C1413 1.408 . S
C1411 C1416 1.342 . S
C1412 C1413 1.310 . S
C1412 C1415 1.461 . S
C1412 H1432 0.932 . S
C1413 C1411 1.408 . S
C1413 C1412 1.310 . S
C1413 H1433 0.930 . S
C1414 C1415 1.474 . S
C1414 C1416 1.285 . S
C1414 H1434 0.929 . S
C1415 C1412 1.461 . S
C1415 C1414 1.474 . S
C1416 C1411 1.342 . S
C1416 C1414 1.285 . S
C1416 H1435 0.930 . S
C1417 C1420 1.424 . S
C1417 C1422 1.245 . S
C1417 C1423 1.428 . S
C1418 C1421 1.260 . S
C1418 C1422 1.477 . S
C1418 H1436 0.932 . S
C1419 C1420 1.384 . S
C1419 C1421 1.479 . S
C1419 H1437 0.929 . S
C1420 C1417 1.424 . S
C1420 C1419 1.384 . S
C1420 H1438 0.928 . S
C1421 C1418 1.260 . S
C1421 C1419 1.479 . S
C1422 C1417 1.245 . S
C1422 C1418 1.477 . S
C1422 H1439 0.932 . S
C1423 U1406 2.882 . S
C1423 C1417 1.428 . S
C1423 O1426 1.301 . S
C1423 O1427 1.282 . S
O1424 U1406 2.441 . S
O1424 C1410 1.249 . S
O1425 U1406 2.420 . S
O1425 C1410 1.202 . S
O1426 U1406 2.455 . S
O1426 C1423 1.301 . S
O1427 U1406 2.449 . S
O1427 C1423 1.282 . S
H1428 C1401 0.931 . S
H1429 C1403 0.929 . S
H1430 C1404 0.930 . S
H1431 C1405 0.931 . S
H1432 C1412 0.932 . S
H1433 C1413 0.930 . S
H1434 C1414 0.929 . S
H1435 C1416 0.930 . S
H1436 C1418 0.932 . S
H1437 C1419 0.929 . S
H1438 C1420 0.928 . S
H1439 C1422 0.932 . S
C1440 C1441 1.264 . S
C1440 C1445 1.479 . S
C1440 C1450 1.465 . S
C1441 C1440 1.264 . S
C1441 C1443 1.339 . S
C1441 H1468 0.931 . S
C1442 C1443 1.395 . S
C1442 C1444 1.320 . S
C1443 C1441 1.339 . S
C1443 C1442 1.395 . S
C1443 H1469 0.929 . S
C1444 C1442 1.320 . S
C1444 C1445 1.405 . S
C1444 H1470 0.930 . S
C1445 C1440 1.479 . S
C1445 C1444 1.405 . S
C1445 H1471 0.931 . S
U1446 O1447 2.454 . S
U1446 O1448 2.458 . S
U1446 C1449 2.984 . S
U1446 C1450 2.847 . S
U1446 C1463 2.882 . S
U1446 O1464 2.441 . S
U1446 O1465 2.420 . S
U1446 O1466 2.455 . S
U1446 O1467 2.449 . S
O1447 U1446 2.454 . S
O1447 C1449 1.353 . S
O1448 U1446 2.458 . S
O1448 C1449 1.286 . S
C1449 U1446 2.984 . S
C1449 O1447 1.353 . S
C1449 O1448 1.286 . S
C1449 C1451 1.363 . S
C1450 C1440 1.465 . S
C1450 U1446 2.847 . S
C1450 O1464 1.249 . S
C1450 O1465 1.202 . S
C1451 C1449 1.363 . S
C1451 C1453 1.408 . S
C1451 C1456 1.342 . S
C1452 C1453 1.310 . S
C1452 C1455 1.461 . S
C1452 H1472 0.932 . S
C1453 C1451 1.408 . S
C1453 C1452 1.310 . S
C1453 H1473 0.930 . S
C1454 C1455 1.474 . S
C1454 C1456 1.285 . S
C1454 H1474 0.929 . S
C1455 C1452 1.461 . S
C1455 C1454 1.474 . S
C1456 C1451 1.342 . S
C1456 C1454 1.285 . S
C1456 H1475 0.930 . S
C1457 C1460 1.424 . S
C1457 C1462 1.245 . S
C1457 C1463 1.428 . S
C1458 C1461 1.260 . S
C1458 C1462 1.477 . S
C1458 H1476 0.932 . S
C1459 C1460 1.384 . S
C1459 C1461 1.479 . S
C1459 H1477 0.929 . S
C1460 C1457 1.424 . S
C1460 C1459 1.384 . S
C1460 H1478 0.928 . S
C1461 C1458 1.260 . S
C1461 C1459 1.479 . S
C1462 C1457 1.245 . S
C1462 C1458 1.477 . S
C1462 H1479 0.932 . S
C1463 U1446 2.882 . S
C1463 C1457 1.428 . S
C1463 O1466 1.301 . S
C1463 O1467 1.282 . S
O1464 U1446 2.441 . S
O1464 C1450 1.249 . S
O1465 U1446 2.420 . S
O1465 C1450 1.202 . S
O1466 U1446 2.455 . S
O1466 C1463 1.301 . S
O1467 U1446 2.449 . S
O1467 C1463 1.282 . S
H1468 C1441 0.931 . S
H1469 C1443 0.929 . S
H1470 C1444 0.930 . S
H1471 C1445 0.931 . S
H1472 C1452 0.932 . S
H1473 C1453 0.930 . S
H1474 C1454 0.929 . S
H1475 C1456 0.930 . S
H1476 C1458 0.932 . S
H1477 C1459 0.929 . S
H1478 C1460 0.928 . S
H1479 C1462 0.932 . S
C1480 C1481 1.264 . S
C1480 C1485 1.479 . S
C1480 C1490 1.465 . S
C1481 C1480 1.264 . S
C1481 C1483 1.339 . S
C1481 H1508 0.931 . S
C1482 C1483 1.395 . S
C1482 C1484 1.320 . S
C1483 C1481 1.339 . S
C1483 C1482 1.395 . S
C1483 H1509 0.929 . S
C1484 C1482 1.320 . S
C1484 C1485 1.405 . S
C1484 H1510 0.930 . S
C1485 C1480 1.479 . S
C1485 C1484 1.405 . S
C1485 H1511 0.931 . S
U1486 O1487 2.454 . S
U1486 O1488 2.458 . S
U1486 C1489 2.984 . S
U1486 C1490 2.847 . S
U1486 C1503 2.882 . S
U1486 O1504 2.441 . S
U1486 O1505 2.420 . S
U1486 O1506 2.455 . S
U1486 O1507 2.449 . S
O1487 U1486 2.454 . S
O1487 C1489 1.353 . S
O1488 U1486 2.458 . S
O1488 C1489 1.286 . S
C1489 U1486 2.984 . S
C1489 O1487 1.353 . S
C1489 O1488 1.286 . S
C1489 C1491 1.363 . S
C1490 C1480 1.465 . S
C1490 U1486 2.847 . S
C1490 O1504 1.249 . S
C1490 O1505 1.202 . S
C1491 C1489 1.363 . S
C1491 C1493 1.408 . S
C1491 C1496 1.342 . S
C1492 C1493 1.310 . S
C1492 C1495 1.461 . S
C1492 H1512 0.932 . S
C1493 C1491 1.408 . S
C1493 C1492 1.310 . S
C1493 H1513 0.930 . S
C1494 C1495 1.474 . S
C1494 C1496 1.285 . S
C1494 H1514 0.929 . S
C1495 C1492 1.461 . S
C1495 C1494 1.474 . S
C1496 C1491 1.342 . S
C1496 C1494 1.285 . S
C1496 H1515 0.930 . S
C1497 C1500 1.424 . S
C1497 C1502 1.245 . S
C1497 C1503 1.428 . S
C1498 C1501 1.260 . S
C1498 C1502 1.477 . S
C1498 H1516 0.932 . S
C1499 C1500 1.384 . S
C1499 C1501 1.479 . S
C1499 H1517 0.929 . S
C1500 C1497 1.424 . S
C1500 C1499 1.384 . S
C1500 H1518 0.928 . S
C1501 C1498 1.260 . S
C1501 C1499 1.479 . S
C1502 C1497 1.245 . S
C1502 C1498 1.477 . S
C1502 H1519 0.932 . S
C1503 U1486 2.882 . S
C1503 C1497 1.428 . S
C1503 O1506 1.301 . S
C1503 O1507 1.282 . S
O1504 U1486 2.441 . S
O1504 C1490 1.249 . S
O1505 U1486 2.420 . S
O1505 C1490 1.202 . S
O1506 U1486 2.455 . S
O1506 C1503 1.301 . S
O1507 U1486 2.449 . S
O1507 C1503 1.282 . S
H1508 C1481 0.931 . S
H1509 C1483 0.929 . S
H1510 C1484 0.930 . S
H1511 C1485 0.931 . S
H1512 C1492 0.932 . S
H1513 C1493 0.930 . S
H1514 C1494 0.929 . S
H1515 C1496 0.930 . S
H1516 C1498 0.932 . S
H1517 C1499 0.929 . S
H1518 C1500 0.928 . S
H1519 C1502 0.932 . S
C1520 C1521 1.264 . S
C1520 C1525 1.479 . S
C1520 C1530 1.465 . S
C1521 C1520 1.264 . S
C1521 C1523 1.339 . S
C1521 H1548 0.931 . S
C1522 C1523 1.395 . S
C1522 C1524 1.320 . S
C1523 C1521 1.339 . S
C1523 C1522 1.395 . S
C1523 H1549 0.929 . S
C1524 C1522 1.320 . S
C1524 C1525 1.405 . S
C1524 H1550 0.930 . S
C1525 C1520 1.479 . S
C1525 C1524 1.405 . S
C1525 H1551 0.931 . S
U1526 O1527 2.454 . S
U1526 O1528 2.458 . S
U1526 C1529 2.984 . S
U1526 C1530 2.847 . S
U1526 C1543 2.882 . S
U1526 O1544 2.441 . S
U1526 O1545 2.420 . S
U1526 O1546 2.455 . S
U1526 O1547 2.449 . S
O1527 U1526 2.454 . S
O1527 C1529 1.353 . S
O1528 U1526 2.458 . S
O1528 C1529 1.286 . S
C1529 U1526 2.984 . S
C1529 O1527 1.353 . S
C1529 O1528 1.286 . S
C1529 C1531 1.363 . S
C1530 C1520 1.465 . S
C1530 U1526 2.847 . S
C1530 O1544 1.249 . S
C1530 O1545 1.202 . S
C1531 C1529 1.363 . S
C1531 C1533 1.408 . S
C1531 C1536 1.342 . S
C1532 C1533 1.310 . S
C1532 C1535 1.461 . S
C1532 H1552 0.932 . S
C1533 C1531 1.408 . S
C1533 C1532 1.310 . S
C1533 H1553 0.930 . S
C1534 C1535 1.474 . S
C1534 C1536 1.285 . S
C1534 H1554 0.929 . S
C1535 C1532 1.461 . S
C1535 C1534 1.474 . S
C1536 C1531 1.342 . S
C1536 C1534 1.285 . S
C1536 H1555 0.930 . S
C1537 C1540 1.424 . S
C1537 C1542 1.245 . S
C1537 C1543 1.428 . S
C1538 C1541 1.260 . S
C1538 C1542 1.477 . S
C1538 H1556 0.932 . S
C1539 C1540 1.384 . S
C1539 C1541 1.479 . S
C1539 H1557 0.929 . S
C1540 C1537 1.424 . S
C1540 C1539 1.384 . S
C1540 H1558 0.928 . S
C1541 C1538 1.260 . S
C1541 C1539 1.479 . S
C1542 C1537 1.245 . S
C1542 C1538 1.477 . S
C1542 H1559 0.932 . S
C1543 U1526 2.882 . S
C1543 C1537 1.428 . S
C1543 O1546 1.301 . S
C1543 O1547 1.282 . S
O1544 U1526 2.441 . S
O1544 C1530 1.249 . S
O1545 U1526 2.420 . S
O1545 C1530 1.202 . S
O1546 U1526 2.455 . S
O1546 C1543 1.301 . S
O1547 U1526 2.449 . S
O1547 C1543 1.282 . S
H1548 C1521 0.931 . S
H1549 C1523 0.929 . S
H1550 C1524 0.930 . S
H1551 C1525 0.931 . S
H1552 C1532 0.932 . S
H1553 C1533 0.930 . S
H1554 C1534 0.929 . S
H1555 C1536 0.930 . S
H1556 C1538 0.932 . S
H1557 C1539 0.929 . S
H1558 C1540 0.928 . S
H1559 C1542 0.932 . S
C1560 C1561 1.264 . S
C1560 C1565 1.479 . S
C1560 C1570 1.465 . S
C1561 C1560 1.264 . S
C1561 C1563 1.339 . S
C1561 H1588 0.931 . S
C1562 C1563 1.395 . S
C1562 C1564 1.320 . S
C1563 C1561 1.339 . S
C1563 C1562 1.395 . S
C1563 H1589 0.929 . S
C1564 C1562 1.320 . S
C1564 C1565 1.405 . S
C1564 H1590 0.930 . S
C1565 C1560 1.479 . S
C1565 C1564 1.405 . S
C1565 H1591 0.931 . S
U1566 O1567 2.454 . S
U1566 O1568 2.458 . S
U1566 C1569 2.984 . S
U1566 C1570 2.847 . S
U1566 C1583 2.882 . S
U1566 O1584 2.441 . S
U1566 O1585 2.420 . S
U1566 O1586 2.455 . S
U1566 O1587 2.449 . S
O1567 U1566 2.454 . S
O1567 C1569 1.353 . S
O1568 U1566 2.458 . S
O1568 C1569 1.286 . S
C1569 U1566 2.984 . S
C1569 O1567 1.353 . S
C1569 O1568 1.286 . S
C1569 C1571 1.363 . S
C1570 C1560 1.465 . S
C1570 U1566 2.847 . S
C1570 O1584 1.249 . S
C1570 O1585 1.202 . S
C1571 C1569 1.363 . S
C1571 C1573 1.408 . S
C1571 C1576 1.342 . S
C1572 C1573 1.310 . S
C1572 C1575 1.461 . S
C1572 H1592 0.932 . S
C1573 C1571 1.408 . S
C1573 C1572 1.310 . S
C1573 H1593 0.930 . S
C1574 C1575 1.474 . S
C1574 C1576 1.285 . S
C1574 H1594 0.929 . S
C1575 C1572 1.461 . S
C1575 C1574 1.474 . S
C1576 C1571 1.342 . S
C1576 C1574 1.285 . S
C1576 H1595 0.930 . S
C1577 C1580 1.424 . S
C1577 C1582 1.245 . S
C1577 C1583 1.428 . S
C1578 C1581 1.260 . S
C1578 C1582 1.477 . S
C1578 H1596 0.932 . S
C1579 C1580 1.384 . S
C1579 C1581 1.479 . S
C1579 H1597 0.929 . S
C1580 C1577 1.424 . S
C1580 C1579 1.384 . S
C1580 H1598 0.928 . S
C1581 C1578 1.260 . S
C1581 C1579 1.479 . S
C1582 C1577 1.245 . S
C1582 C1578 1.477 . S
C1582 H1599 0.932 . S
C1583 U1566 2.882 . S
C1583 C1577 1.428 . S
C1583 O1586 1.301 . S
C1583 O1587 1.282 . S
O1584 U1566 2.441 . S
O1584 C1570 1.249 . S
O1585 U1566 2.420 . S
O1585 C1570 1.202 . S
O1586 U1566 2.455 . S
O1586 C1583 1.301 . S
O1587 U1566 2.449 . S
O1587 C1583 1.282 . S
H1588 C1561 0.931 . S
H1589 C1563 0.929 . S
H1590 C1564 0.930 . S
H1591 C1565 0.931 . S
H1592 C1572 0.932 . S
H1593 C1573 0.930 . S
H1594 C1574 0.929 . S
H1595 C1576 0.930 . S
H1596 C1578 0.932 . S
H1597 C1579 0.929 . S
H1598 C1580 0.928 . S
H1599 C1582 0.932 . S
C1600 C1601 1.264 . S
C1600 C1605 1.479 . S
C1600 C1610 1.465 . S
C1601 C1600 1.264 . S
C1601 C1603 1.339 . S
C1601 H1628 0.931 . S
C1602 C1603 1.395 . S
C1602 C1604 1.320 . S
C1603 C1601 1.339 . S
C1603 C1602 1.395 . S
C1603 H1629 0.929 . S
C1604 C1602 1.320 . S
C1604 C1605 1.405 . S
C1604 H1630 0.930 . S
C1605 C1600 1.479 . S
C1605 C1604 1.405 . S
C1605 H1631 0.931 . S
U1606 O1607 2.454 . S
U1606 O1608 2.458 . S
U1606 C1609 2.984 . S
U1606 C1610 2.847 . S
U1606 C1623 2.882 . S
U1606 O1624 2.441 . S
U1606 O1625 2.420 . S
U1606 O1626 2.455 . S
U1606 O1627 2.449 . S
O1607 U1606 2.454 . S
O1607 C1609 1.353 . S
O1608 U1606 2.458 . S
O1608 C1609 1.286 . S
C1609 U1606 2.984 . S
C1609 O1607 1.353 . S
C1609 O1608 1.286 . S
C1609 C1611 1.363 . S
C1610 C1600 1.465 . S
C1610 U1606 2.847 . S
C1610 O1624 1.249 . S
C1610 O1625 1.202 . S
C1611 C1609 1.363 . S
C1611 C1613 1.408 . S
C1611 C1616 1.342 . S
C1612 C1613 1.310 . S
C1612 C1615 1.461 . S
C1612 H1632 0.932 . S
C1613 C1611 1.408 . S
C1613 C1612 1.310 . S
C1613 H1633 0.930 . S
C1614 C1615 1.474 . S
C1614 C1616 1.285 . S
C1614 H1634 0.929 . S
C1615 C1612 1.461 . S
C1615 C1614 1.474 . S
C1616 C1611 1.342 . S
C1616 C1614 1.285 . S
C1616 H1635 0.930 . S
C1617 C1620 1.424 . S
C1617 C1622 1.245 . S
C1617 C1623 1.428 . S
C1618 C1621 1.260 . S
C1618 C1622 1.477 . S
C1618 H1636 0.932 . S
C1619 C1620 1.384 . S
C1619 C1621 1.479 . S
C1619 H1637 0.929 . S
C1620 C1617 1.424 . S
C1620 C1619 1.384 . S
C1620 H1638 0.928 . S
C1621 C1618 1.260 . S
C1621 C1619 1.479 . S
C1622 C1617 1.245 . S
C1622 C1618 1.477 . S
C1622 H1639 0.932 . S
C1623 U1606 2.882 . S
C1623 C1617 1.428 . S
C1623 O1626 1.301 . S
C1623 O1627 1.282 . S
O1624 U1606 2.441 . S
O1624 C1610 1.249 . S
O1625 U1606 2.420 . S
O1625 C1610 1.202 . S
O1626 U1606 2.455 . S
O1626 C1623 1.301 . S
O1627 U1606 2.449 . S
O1627 C1623 1.282 . S
H1628 C1601 0.931 . S
H1629 C1603 0.929 . S
H1630 C1604 0.930 . S
H1631 C1605 0.931 . S
H1632 C1612 0.932 . S
H1633 C1613 0.930 . S
H1634 C1614 0.929 . S
H1635 C1616 0.930 . S
H1636 C1618 0.932 . S
H1637 C1619 0.929 . S
H1638 C1620 0.928 . S
H1639 C1622 0.932 . S
C1640 C1641 1.264 . S
C1640 C1645 1.479 . S
C1640 C1650 1.465 . S
C1641 C1640 1.264 . S
C1641 C1643 1.339 . S
C1641 H1668 0.931 . S
C1642 C1643 1.395 . S
C1642 C1644 1.320 . S
C1643 C1641 1.339 . S
C1643 C1642 1.395 . S
C1643 H1669 0.929 . S
C1644 C1642 1.320 . S
C1644 C1645 1.405 . S
C1644 H1670 0.930 . S
C1645 C1640 1.479 . S
C1645 C1644 1.405 . S
C1645 H1671 0.931 . S
U1646 O1647 2.454 . S
U1646 O1648 2.458 . S
U1646 C1649 2.984 . S
U1646 C1650 2.847 . S
U1646 C1663 2.882 . S
U1646 O1664 2.441 . S
U1646 O1665 2.420 . S
U1646 O1666 2.455 . S
U1646 O1667 2.449 . S
O1647 U1646 2.454 . S
O1647 C1649 1.353 . S
O1648 U1646 2.458 . S
O1648 C1649 1.286 . S
C1649 U1646 2.984 . S
C1649 O1647 1.353 . S
C1649 O1648 1.286 . S
C1649 C1651 1.363 . S
C1650 C1640 1.465 . S
C1650 U1646 2.847 . S
C1650 O1664 1.249 . S
C1650 O1665 1.202 . S
C1651 C1649 1.363 . S
C1651 C1653 1.408 . S
C1651 C1656 1.342 . S
C1652 C1653 1.310 . S
C1652 C1655 1.461 . S
C1652 H1672 0.932 . S
C1653 C1651 1.408 . S
C1653 C1652 1.310 . S
C1653 H1673 0.930 . S
C1654 C1655 1.474 . S
C1654 C1656 1.285 . S
C1654 H1674 0.929 . S
C1655 C1652 1.461 . S
C1655 C1654 1.474 . S
C1656 C1651 1.342 . S
C1656 C1654 1.285 . S
C1656 H1675 0.930 . S
C1657 C1660 1.424 . S
C1657 C1662 1.245 . S
C1657 C1663 1.428 . S
C1658 C1661 1.260 . S
C1658 C1662 1.477 . S
C1658 H1676 0.932 . S
C1659 C1660 1.384 . S
C1659 C1661 1.479 . S
C1659 H1677 0.929 . S
C1660 C1657 1.424 . S
C1660 C1659 1.384 . S
C1660 H1678 0.928 . S
C1661 C1658 1.260 . S
C1661 C1659 1.479 . S
C1662 C1657 1.245 . S
C1662 C1658 1.477 . S
C1662 H1679 0.932 . S
C1663 U1646 2.882 . S
C1663 C1657 1.428 . S
C1663 O1666 1.301 . S
C1663 O1667 1.282 . S
O1664 U1646 2.441 . S
O1664 C1650 1.249 . S
O1665 U1646 2.420 . S
O1665 C1650 1.202 . S
O1666 U1646 2.455 . S
O1666 C1663 1.301 . S
O1667 U1646 2.449 . S
O1667 C1663 1.282 . S
H1668 C1641 0.931 . S
H1669 C1643 0.929 . S
H1670 C1644 0.930 . S
H1671 C1645 0.931 . S
H1672 C1652 0.932 . S
H1673 C1653 0.930 . S
H1674 C1654 0.929 . S
H1675 C1656 0.930 . S
H1676 C1658 0.932 . S
H1677 C1659 0.929 . S
H1678 C1660 0.928 . S
H1679 C1662 0.932 . S
C1680 C1681 1.264 . S
C1680 C1685 1.479 . S
C1680 C1690 1.465 . S
C1681 C1680 1.264 . S
C1681 C1683 1.339 . S
C1681 H1708 0.931 . S
C1682 C1683 1.395 . S
C1682 C1684 1.320 . S
C1683 C1681 1.339 . S
C1683 C1682 1.395 . S
C1683 H1709 0.929 . S
C1684 C1682 1.320 . S
C1684 C1685 1.405 . S
C1684 H1710 0.930 . S
C1685 C1680 1.479 . S
C1685 C1684 1.405 . S
C1685 H1711 0.931 . S
U1686 O1687 2.454 . S
U1686 O1688 2.458 . S
U1686 C1689 2.984 . S
U1686 C1690 2.847 . S
U1686 C1703 2.882 . S
U1686 O1704 2.441 . S
U1686 O1705 2.420 . S
U1686 O1706 2.455 . S
U1686 O1707 2.449 . S
O1687 U1686 2.454 . S
O1687 C1689 1.353 . S
O1688 U1686 2.458 . S
O1688 C1689 1.286 . S
C1689 U1686 2.984 . S
C1689 O1687 1.353 . S
C1689 O1688 1.286 . S
C1689 C1691 1.363 . S
C1690 C1680 1.465 . S
C1690 U1686 2.847 . S
C1690 O1704 1.249 . S
C1690 O1705 1.202 . S
C1691 C1689 1.363 . S
C1691 C1693 1.408 . S
C1691 C1696 1.342 . S
C1692 C1693 1.310 . S
C1692 C1695 1.461 . S
C1692 H1712 0.932 . S
C1693 C1691 1.408 . S
C1693 C1692 1.310 . S
C1693 H1713 0.930 . S
C1694 C1695 1.474 . S
C1694 C1696 1.285 . S
C1694 H1714 0.929 . S
C1695 C1692 1.461 . S
C1695 C1694 1.474 . S
C1696 C1691 1.342 . S
C1696 C1694 1.285 . S
C1696 H1715 0.930 . S
C1697 C1700 1.424 . S
C1697 C1702 1.245 . S
C1697 C1703 1.428 . S
C1698 C1701 1.260 . S
C1698 C1702 1.477 . S
C1698 H1716 0.932 . S
C1699 C1700 1.384 . S
C1699 C1701 1.479 . S
C1699 H1717 0.929 . S
C1700 C1697 1.424 . S
C1700 C1699 1.384 . S
C1700 H1718 0.928 . S
C1701 C1698 1.260 . S
C1701 C1699 1.479 . S
C1702 C1697 1.245 . S
C1702 C1698 1.477 . S
C1702 H1719 0.932 . S
C1703 U1686 2.882 . S
C1703 C1697 1.428 . S
C1703 O1706 1.301 . S
C1703 O1707 1.282 . S
O1704 U1686 2.441 . S
O1704 C1690 1.249 . S
O1705 U1686 2.420 . S
O1705 C1690 1.202 . S
O1706 U1686 2.455 . S
O1706 C1703 1.301 . S
O1707 U1686 2.449 . S
O1707 C1703 1.282 . S
H1708 C1681 0.931 . S
H1709 C1683 0.929 . S
H1710 C1684 0.930 . S
H1711 C1685 0.931 . S
H1712 C1692 0.932 . S
H1713 C1693 0.930 . S
H1714 C1694 0.929 . S
H1715 C1696 0.930 . S
H1716 C1698 0.932 . S
H1717 C1699 0.929 . S
H1718 C1700 0.928 . S
H1719 C1702 0.932 . S
C1720 C1721 1.264 . S
C1720 C1725 1.479 . S
C1720 C1730 1.465 . S
C1721 C1720 1.264 . S
C1721 C1723 1.339 . S
C1721 H1748 0.931 . S
C1722 C1723 1.395 . S
C1722 C1724 1.320 . S
C1723 C1721 1.339 . S
C1723 C1722 1.395 . S
C1723 H1749 0.929 . S
C1724 C1722 1.320 . S
C1724 C1725 1.405 . S
C1724 H1750 0.930 . S
C1725 C1720 1.479 . S
C1725 C1724 1.405 . S
C1725 H1751 0.931 . S
U1726 O1727 2.454 . S
U1726 O1728 2.458 . S
U1726 C1729 2.984 . S
U1726 C1730 2.847 . S
U1726 C1743 2.882 . S
U1726 O1744 2.441 . S
U1726 O1745 2.420 . S
U1726 O1746 2.455 . S
U1726 O1747 2.449 . S
O1727 U1726 2.454 . S
O1727 C1729 1.353 . S
O1728 U1726 2.458 . S
O1728 C1729 1.286 . S
C1729 U1726 2.984 . S
C1729 O1727 1.353 . S
C1729 O1728 1.286 . S
C1729 C1731 1.363 . S
C1730 C1720 1.465 . S
C1730 U1726 2.847 . S
C1730 O1744 1.249 . S
C1730 O1745 1.202 . S
C1731 C1729 1.363 . S
C1731 C1733 1.408 . S
C1731 C1736 1.342 . S
C1732 C1733 1.310 . S
C1732 C1735 1.461 . S
C1732 H1752 0.932 . S
C1733 C1731 1.408 . S
C1733 C1732 1.310 . S
C1733 H1753 0.930 . S
C1734 C1735 1.474 . S
C1734 C1736 1.285 . S
C1734 H1754 0.929 . S
C1735 C1732 1.461 . S
C1735 C1734 1.474 . S
C1736 C1731 1.342 . S
C1736 C1734 1.285 . S
C1736 H1755 0.930 . S
C1737 C1740 1.424 . S
C1737 C1742 1.245 . S
C1737 C1743 1.428 . S
C1738 C1741 1.260 . S
C1738 C1742 1.477 . S
C1738 H1756 0.932 . S
C1739 C1740 1.384 . S
C1739 C1741 1.479 . S
C1739 H1757 0.929 . S
C1740 C1737 1.424 . S
C1740 C1739 1.384 . S
C1740 H1758 0.928 . S
C1741 C1738 1.260 . S
C1741 C1739 1.479 . S
C1742 C1737 1.245 . S
C1742 C1738 1.477 . S
C1742 H1759 0.932 . S
C1743 U1726 2.882 . S
C1743 C1737 1.428 . S
C1743 O1746 1.301 . S
C1743 O1747 1.282 . S
O1744 U1726 2.441 . S
O1744 C1730 1.249 . S
O1745 U1726 2.420 . S
O1745 C1730 1.202 . S
O1746 U1726 2.455 . S
O1746 C1743 1.301 . S
O1747 U1726 2.449 . S
O1747 C1743 1.282 . S
H1748 C1721 0.931 . S
H1749 C1723 0.929 . S
H1750 C1724 0.930 . S
H1751 C1725 0.931 . S
H1752 C1732 0.932 . S
H1753 C1733 0.930 . S
H1754 C1734 0.929 . S
H1755 C1736 0.930 . S
H1756 C1738 0.932 . S
H1757 C1739 0.929 . S
H1758 C1740 0.928 . S
H1759 C1742 0.932 . S
C1760 C1761 1.264 . S
C1760 C1765 1.479 . S
C1760 C1770 1.465 . S
C1761 C1760 1.264 . S
C1761 C1763 1.339 . S
C1761 H1788 0.931 . S
C1762 C1763 1.395 . S
C1762 C1764 1.320 . S
C1763 C1761 1.339 . S
C1763 C1762 1.395 . S
C1763 H1789 0.929 . S
C1764 C1762 1.320 . S
C1764 C1765 1.405 . S
C1764 H1790 0.930 . S
C1765 C1760 1.479 . S
C1765 C1764 1.405 . S
C1765 H1791 0.931 . S
U1766 O1767 2.454 . S
U1766 O1768 2.458 . S
U1766 C1769 2.984 . S
U1766 C1770 2.847 . S
U1766 C1783 2.882 . S
U1766 O1784 2.441 . S
U1766 O1785 2.420 . S
U1766 O1786 2.455 . S
U1766 O1787 2.449 . S
O1767 U1766 2.454 . S
O1767 C1769 1.353 . S
O1768 U1766 2.458 . S
O1768 C1769 1.286 . S
C1769 U1766 2.984 . S
C1769 O1767 1.353 . S
C1769 O1768 1.286 . S
C1769 C1771 1.363 . S
C1770 C1760 1.465 . S
C1770 U1766 2.847 . S
C1770 O1784 1.249 . S
C1770 O1785 1.202 . S
C1771 C1769 1.363 . S
C1771 C1773 1.408 . S
C1771 C1776 1.342 . S
C1772 C1773 1.310 . S
C1772 C1775 1.461 . S
C1772 H1792 0.932 . S
C1773 C1771 1.408 . S
C1773 C1772 1.310 . S
C1773 H1793 0.930 . S
C1774 C1775 1.474 . S
C1774 C1776 1.285 . S
C1774 H1794 0.929 . S
C1775 C1772 1.461 . S
C1775 C1774 1.474 . S
C1776 C1771 1.342 . S
C1776 C1774 1.285 . S
C1776 H1795 0.930 . S
C1777 C1780 1.424 . S
C1777 C1782 1.245 . S
C1777 C1783 1.428 . S
C1778 C1781 1.260 . S
C1778 C1782 1.477 . S
C1778 H1796 0.932 . S
C1779 C1780 1.384 . S
C1779 C1781 1.479 . S
C1779 H1797 0.929 . S
C1780 C1777 1.424 . S
C1780 C1779 1.384 . S
C1780 H1798 0.928 . S
C1781 C1778 1.260 . S
C1781 C1779 1.479 . S
C1782 C1777 1.245 . S
C1782 C1778 1.477 . S
C1782 H1799 0.932 . S
C1783 U1766 2.882 . S
C1783 C1777 1.428 . S
C1783 O1786 1.301 . S
C1783 O1787 1.282 . S
O1784 U1766 2.441 . S
O1784 C1770 1.249 . S
O1785 U1766 2.420 . S
O1785 C1770 1.202 . S
O1786 U1766 2.455 . S
O1786 C1783 1.301 . S
O1787 U1766 2.449 . S
O1787 C1783 1.282 . S
H1788 C1761 0.931 . S
H1789 C1763 0.929 . S
H1790 C1764 0.930 . S
H1791 C1765 0.931 . S
H1792 C1772 0.932 . S
H1793 C1773 0.930 . S
H1794 C1774 0.929 . S
H1795 C1776 0.930 . S
H1796 C1778 0.932 . S
H1797 C1779 0.929 . S
H1798 C1780 0.928 . S
H1799 C1782 0.932 . S
C1800 C1801 1.264 . S
C1800 C1805 1.479 . S
C1800 C1810 1.465 . S
C1801 C1800 1.264 . S
C1801 C1803 1.339 . S
C1801 H1828 0.931 . S
C1802 C1803 1.395 . S
C1802 C1804 1.320 . S
C1803 C1801 1.339 . S
C1803 C1802 1.395 . S
C1803 H1829 0.929 . S
C1804 C1802 1.320 . S
C1804 C1805 1.405 . S
C1804 H1830 0.930 . S
C1805 C1800 1.479 . S
C1805 C1804 1.405 . S
C1805 H1831 0.931 . S
U1806 O1807 2.454 . S
U1806 O1808 2.458 . S
U1806 C1809 2.984 . S
U1806 C1810 2.847 . S
U1806 C1823 2.882 . S
U1806 O1824 2.441 . S
U1806 O1825 2.420 . S
U1806 O1826 2.455 . S
U1806 O1827 2.449 . S
O1807 U1806 2.454 . S
O1807 C1809 1.353 . S
O1808 U1806 2.458 . S
O1808 C1809 1.286 . S
C1809 U1806 2.984 . S
C1809 O1807 1.353 . S
C1809 O1808 1.286 . S
C1809 C1811 1.363 . S
C1810 C1800 1.465 . S
C1810 U1806 2.847 . S
C1810 O1824 1.249 . S
C1810 O1825 1.202 . S
C1811 C1809 1.363 . S
C1811 C1813 1.408 . S
C1811 C1816 1.342 . S
C1812 C1813 1.310 . S
C1812 C1815 1.461 . S
C1812 H1832 0.932 . S
C1813 C1811 1.408 . S
C1813 C1812 1.310 . S
C1813 H1833 0.930 . S
C1814 C1815 1.474 . S
C1814 C1816 1.285 . S
C1814 H1834 0.929 . S
C1815 C1812 1.461 . S
C1815 C1814 1.474 . S
C1816 C1811 1.342 . S
C1816 C1814 1.285 . S
C1816 H1835 0.930 . S
C1817 C1820 1.424 . S
C1817 C1822 1.245 . S
C1817 C1823 1.428 . S
C1818 C1821 1.260 . S
C1818 C1822 1.477 . S
C1818 H1836 0.932 . S
C1819 C1820 1.384 . S
C1819 C1821 1.479 . S
C1819 H1837 0.929 . S
C1820 C1817 1.424 . S
C1820 C1819 1.384 . S
C1820 H1838 0.928 . S
C1821 C1818 1.260 . S
C1821 C1819 1.479 . S
C1822 C1817 1.245 . S
C1822 C1818 1.477 . S
C1822 H1839 0.932 . S
C1823 U1806 2.882 . S
C1823 C1817 1.428 . S
C1823 O1826 1.301 . S
C1823 O1827 1.282 . S
O1824 U1806 2.441 . S
O1824 C1810 1.249 . S
O1825 U1806 2.420 . S
O1825 C1810 1.202 . S
O1826 U1806 2.455 . S
O1826 C1823 1.301 . S
O1827 U1806 2.449 . S
O1827 C1823 1.282 . S
H1828 C1801 0.931 . S
H1829 C1803 0.929 . S
H1830 C1804 0.930 . S
H1831 C1805 0.931 . S
H1832 C1812 0.932 . S
H1833 C1813 0.930 . S
H1834 C1814 0.929 . S
H1835 C1816 0.930 . S
H1836 C1818 0.932 . S
H1837 C1819 0.929 . S
H1838 C1820 0.928 . S
H1839 C1822 0.932 . S
C1840 C1841 1.264 . S
C1840 C1845 1.479 . S
C1840 C1850 1.465 . S
C1841 C1840 1.264 . S
C1841 C1843 1.339 . S
C1841 H1868 0.931 . S
C1842 C1843 1.395 . S
C1842 C1844 1.320 . S
C1843 C1841 1.339 . S
C1843 C1842 1.395 . S
C1843 H1869 0.929 . S
C1844 C1842 1.320 . S
C1844 C1845 1.405 . S
C1844 H1870 0.930 . S
C1845 C1840 1.479 . S
C1845 C1844 1.405 . S
C1845 H1871 0.931 . S
U1846 O1847 2.454 . S
U1846 O1848 2.458 . S
U1846 C1849 2.984 . S
U1846 C1850 2.847 . S
U1846 C1863 2.882 . S
U1846 O1864 2.441 . S
U1846 O1865 2.420 . S
U1846 O1866 2.455 . S
U1846 O1867 2.449 . S
O1847 U1846 2.454 . S
O1847 C1849 1.353 . S
O1848 U1846 2.458 . S
O1848 C1849 1.286 . S
C1849 U1846 2.984 . S
C1849 O1847 1.353 . S
C1849 O1848 1.286 . S
C1849 C1851 1.363 . S
C1850 C1840 1.465 . S
C1850 U1846 2.847 . S
C1850 O1864 1.249 . S
C1850 O1865 1.202 . S
C1851 C1849 1.363 . S
C1851 C1853 1.408 . S
C1851 C1856 1.342 . S
C1852 C1853 1.310 . S
C1852 C1855 1.461 . S
C1852 H1872 0.932 . S
C1853 C1851 1.408 . S
C1853 C1852 1.310 . S
C1853 H1873 0.930 . S
C1854 C1855 1.474 . S
C1854 C1856 1.285 . S
C1854 H1874 0.929 . S
C1855 C1852 1.461 . S
C1855 C1854 1.474 . S
C1856 C1851 1.342 . S
C1856 C1854 1.285 . S
C1856 H1875 0.930 . S
C1857 C1860 1.424 . S
C1857 C1862 1.245 . S
C1857 C1863 1.428 . S
C1858 C1861 1.260 . S
C1858 C1862 1.477 . S
C1858 H1876 0.932 . S
C1859 C1860 1.384 . S
C1859 C1861 1.479 . S
C1859 H1877 0.929 . S
C1860 C1857 1.424 . S
C1860 C1859 1.384 . S
C1860 H1878 0.928 . S
C1861 C1858 1.260 . S
C1861 C1859 1.479 . S
C1862 C1857 1.245 . S
C1862 C1858 1.477 . S
C1862 H1879 0.932 . S
C1863 U1846 2.882 . S
C1863 C1857 1.428 . S
C1863 O1866 1.301 . S
C1863 O1867 1.282 . S
O1864 U1846 2.441 . S
O1864 C1850 1.249 . S
O1865 U1846 2.420 . S
O1865 C1850 1.202 . S
O1866 U1846 2.455 . S
O1866 C1863 1.301 . S
O1867 U1846 2.449 . S
O1867 C1863 1.282 . S
H1868 C1841 0.931 . S
H1869 C1843 0.929 . S
H1870 C1844 0.930 . S
H1871 C1845 0.931 . S
H1872 C1852 0.932 . S
H1873 C1853 0.930 . S
H1874 C1854 0.929 . S
H1875 C1856 0.930 . S
H1876 C1858 0.932 . S
H1877 C1859 0.929 . S
H1878 C1860 0.928 . S
H1879 C1862 0.932 . S
C1880 C1881 1.264 . S
C1880 C1885 1.479 . S
C1880 C1890 1.465 . S
C1881 C1880 1.264 . S
C1881 C1883 1.339 . S
C1881 H1908 0.931 . S
C1882 C1883 1.395 . S
C1882 C1884 1.320 . S
C1883 C1881 1.339 . S
C1883 C1882 1.395 . S
C1883 H1909 0.929 . S
C1884 C1882 1.320 . S
C1884 C1885 1.405 . S
C1884 H1910 0.930 . S
C1885 C1880 1.479 . S
C1885 C1884 1.405 . S
C1885 H1911 0.931 . S
U1886 O1887 2.454 . S
U1886 O1888 2.458 . S
U1886 C1889 2.984 . S
U1886 C1890 2.847 . S
U1886 C1903 2.882 . S
U1886 O1904 2.441 . S
U1886 O1905 2.420 . S
U1886 O1906 2.455 . S
U1886 O1907 2.449 . S
O1887 U1886 2.454 . S
O1887 C1889 1.353 . S
O1888 U1886 2.458 . S
O1888 C1889 1.286 . S
C1889 U1886 2.984 . S
C1889 O1887 1.353 . S
C1889 O1888 1.286 . S
C1889 C1891 1.363 . S
C1890 C1880 1.465 . S
C1890 U1886 2.847 . S
C1890 O1904 1.249 . S
C1890 O1905 1.202 . S
C1891 C1889 1.363 . S
C1891 C1893 1.408 . S
C1891 C1896 1.342 . S
C1892 C1893 1.310 . S
C1892 C1895 1.461 . S
C1892 H1912 0.932 . S
C1893 C1891 1.408 . S
C1893 C1892 1.310 . S
C1893 H1913 0.930 . S
C1894 C1895 1.474 . S
C1894 C1896 1.285 . S
C1894 H1914 0.929 . S
C1895 C1892 1.461 . S
C1895 C1894 1.474 . S
C1896 C1891 1.342 . S
C1896 C1894 1.285 . S
C1896 H1915 0.930 . S
C1897 C1900 1.424 . S
C1897 C1902 1.245 . S
C1897 C1903 1.428 . S
C1898 C1901 1.260 . S
C1898 C1902 1.477 . S
C1898 H1916 0.932 . S
C1899 C1900 1.384 . S
C1899 C1901 1.479 . S
C1899 H1917 0.929 . S
C1900 C1897 1.424 . S
C1900 C1899 1.384 . S
C1900 H1918 0.928 . S
C1901 C1898 1.260 . S
C1901 C1899 1.479 . S
C1902 C1897 1.245 . S
C1902 C1898 1.477 . S
C1902 H1919 0.932 . S
C1903 U1886 2.882 . S
C1903 C1897 1.428 . S
C1903 O1906 1.301 . S
C1903 O1907 1.282 . S
O1904 U1886 2.441 . S
O1904 C1890 1.249 . S
O1905 U1886 2.420 . S
O1905 C1890 1.202 . S
O1906 U1886 2.455 . S
O1906 C1903 1.301 . S
O1907 U1886 2.449 . S
O1907 C1903 1.282 . S
H1908 C1881 0.931 . S
H1909 C1883 0.929 . S
H1910 C1884 0.930 . S
H1911 C1885 0.931 . S
H1912 C1892 0.932 . S
H1913 C1893 0.930 . S
H1914 C1894 0.929 . S
H1915 C1896 0.930 . S
H1916 C1898 0.932 . S
H1917 C1899 0.929 . S
H1918 C1900 0.928 . S
H1919 C1902 0.932 . S
C101 C21 3.150 1_455 S
C61 C141 3.150 1_565 S
C261 C181 3.150 1_455 S
C221 C301 3.150 1_565 S
C501 C341 3.150 1_545 S
C541 C381 3.150 1_655 S
C421 C581 3.150 1_545 S
C461 C621 3.150 1_655 S
C781 C661 3.150 1_554 S
C701 C861 3.150 1_554 S
C901 C741 3.150 1_556 S
C941 C821 3.150 1_556 S
C981 C1061 3.152 1_565 S
C1021 C1101 3.152 1_455 S
C1221 C1141 3.152 1_565 S
C1261 C1181 3.152 1_455 S
C1301 C1461 3.152 1_556 S
C1341 C1501 3.152 1_556 S
C1381 C1541 3.152 1_556 S
C1581 C1421 3.152 1_554 S
C1741 C1621 3.152 1_455 S
C1821 C1661 3.152 1_455 S
C1861 C1701 3.152 1_545 S
C1901 C1781 3.152 1_565 S
C2 C1242 2.422 . S
C1122 C42 2.422 . S
C82 C1162 2.422 . S
C122 C1202 2.422 . S
C1002 C162 2.422 . S
C1042 C202 2.422 . S
C242 C1082 2.422 . S
C282 C962 2.422 . S
C1762 C322 2.422 . S
C362 C1642 2.422 . S
C1682 C402 2.422 . S
C442 C1722 2.422 . S
C482 C1882 2.422 . S
C522 C1802 2.422 . S
C562 C1842 2.422 . S
C602 C1602 2.422 . S
C642 C1562 2.422 . S
C682 C1322 2.422 . S
C722 C1362 2.422 . S
C1402 C762 2.422 . S
C802 C1282 2.422 . S
C1482 C842 2.422 . S
C1522 C882 2.422 . S
C1442 C922 2.422 . S
C895 C15 5.619 . S
C655 C55 5.619 . S
C95 C935 5.619 . S
C135 C855 5.619 . S
C175 C735 5.619 . S
C775 C215 5.619 . S
C815 C255 5.619 . S
C295 C695 5.619 . S
C335 C535 5.619 . S
C375 C575 5.619 . S
C415 C615 5.619 . S
C495 C455 5.619 . S
C1855 C975 5.619 1_545 S
C1015 C1615 5.619 1_455 S
C1055 C1895 5.619 1_545 S
C1815 C1095 5.619 1_455 S
C1135 C1695 5.619 1_545 S
C1175 C1735 5.619 1_655 S
C1775 C1215 5.619 1_545 S
C1655 C1255 5.619 1_655 S
C1295 C1495 5.619 1_556 S
C1535 C1335 5.619 1_554 S
C1375 C1575 5.619 1_556 S
C1455 C1415 5.619 1_554 S
