# Generated by pormake.
# Topology umh, (4)-cn, num edge types: 1
# Building blocks:
#     Node 0, Type 0, BuildingBlock: MUDLON_clean_sbu_0, # of connection points: 4
#     Node 1, Type 0, BuildingBlock: MUDLON_clean_sbu_0, # of connection points: 4
#     Node 2, Type 0, BuildingBlock: MUDLON_clean_sbu_0, # of connection points: 4
#     Node 3, Type 0, BuildingBlock: MUDLON_clean_sbu_0, # of connection points: 4
#     Node 4, Type 0, BuildingBlock: MUDLON_clean_sbu_0, # of connection points: 4
#     Node 5, Type 0, BuildingBlock: MUDLON_clean_sbu_0, # of connection points: 4
#     Node 6, Type 0, BuildingBlock: MUDLON_clean_sbu_0, # of connection points: 4
#     Node 7, Type 0, BuildingBlock: MUDLON_clean_sbu_0, # of connection points: 4
#     Node 8, Type 0, BuildingBlock: MUDLON_clean_sbu_0, # of connection points: 4
#     Node 9, Type 0, BuildingBlock: MUDLON_clean_sbu_0, # of connection points: 4
#     Node 10, Type 0, BuildingBlock: MUDLON_clean_sbu_0, # of connection points: 4
#     Node 11, Type 0, BuildingBlock: MUDLON_clean_sbu_0, # of connection points: 4
#     Node 12, Type 0, BuildingBlock: MUDLON_clean_sbu_0, # of connection points: 4
#     Node 13, Type 0, BuildingBlock: MUDLON_clean_sbu_0, # of connection points: 4
#     Node 14, Type 0, BuildingBlock: MUDLON_clean_sbu_0, # of connection points: 4
#     Node 15, Type 0, BuildingBlock: MUDLON_clean_sbu_0, # of connection points: 4
#     Edge 16, Type (0, 0), BuildingBlock: XUDNAN_clean_linker_2, # of connection points: 2
#     Edge 17, Type (0, 0), BuildingBlock: XUDNAN_clean_linker_2, # of connection points: 2
#     Edge 18, Type (0, 0), BuildingBlock: XUDNAN_clean_linker_2, # of connection points: 2
#     Edge 19, Type (0, 0), BuildingBlock: XUDNAN_clean_linker_2, # of connection points: 2
#     Edge 20, Type (0, 0), BuildingBlock: XUDNAN_clean_linker_2, # of connection points: 2
#     Edge 21, Type (0, 0), BuildingBlock: XUDNAN_clean_linker_2, # of connection points: 2
#     Edge 22, Type (0, 0), BuildingBlock: XUDNAN_clean_linker_2, # of connection points: 2
#     Edge 23, Type (0, 0), BuildingBlock: XUDNAN_clean_linker_2, # of connection points: 2
#     Edge 24, Type (0, 0), BuildingBlock: XUDNAN_clean_linker_2, # of connection points: 2
#     Edge 25, Type (0, 0), BuildingBlock: XUDNAN_clean_linker_2, # of connection points: 2
#     Edge 26, Type (0, 0), BuildingBlock: XUDNAN_clean_linker_2, # of connection points: 2
#     Edge 27, Type (0, 0), BuildingBlock: XUDNAN_clean_linker_2, # of connection points: 2
#     Edge 28, Type (0, 0), BuildingBlock: XUDNAN_clean_linker_2, # of connection points: 2
#     Edge 29, Type (0, 0), BuildingBlock: XUDNAN_clean_linker_2, # of connection points: 2
#     Edge 30, Type (0, 0), BuildingBlock: XUDNAN_clean_linker_2, # of connection points: 2
#     Edge 31, Type (0, 0), BuildingBlock: XUDNAN_clean_linker_2, # of connection points: 2
#     Edge 32, Type (0, 0), BuildingBlock: XUDNAN_clean_linker_2, # of connection points: 2
#     Edge 33, Type (0, 0), BuildingBlock: XUDNAN_clean_linker_2, # of connection points: 2
#     Edge 34, Type (0, 0), BuildingBlock: XUDNAN_clean_linker_2, # of connection points: 2
#     Edge 35, Type (0, 0), BuildingBlock: XUDNAN_clean_linker_2, # of connection points: 2
#     Edge 36, Type (0, 0), BuildingBlock: XUDNAN_clean_linker_2, # of connection points: 2
#     Edge 37, Type (0, 0), BuildingBlock: XUDNAN_clean_linker_2, # of connection points: 2
#     Edge 38, Type (0, 0), BuildingBlock: XUDNAN_clean_linker_2, # of connection points: 2
#     Edge 39, Type (0, 0), BuildingBlock: XUDNAN_clean_linker_2, # of connection points: 2
#     Edge 40, Type (0, 0), BuildingBlock: XUDNAN_clean_linker_2, # of connection points: 2
#     Edge 41, Type (0, 0), BuildingBlock: XUDNAN_clean_linker_2, # of connection points: 2
#     Edge 42, Type (0, 0), BuildingBlock: XUDNAN_clean_linker_2, # of connection points: 2
#     Edge 43, Type (0, 0), BuildingBlock: XUDNAN_clean_linker_2, # of connection points: 2
#     Edge 44, Type (0, 0), BuildingBlock: XUDNAN_clean_linker_2, # of connection points: 2
#     Edge 45, Type (0, 0), BuildingBlock: XUDNAN_clean_linker_2, # of connection points: 2
#     Edge 46, Type (0, 0), BuildingBlock: XUDNAN_clean_linker_2, # of connection points: 2
#     Edge 47, Type (0, 0), BuildingBlock: XUDNAN_clean_linker_2, # of connection points: 2
# Relax obj value: 0.037
# Max RMSD: 0.081
# Mean RMSD: 0.081
data_MOF--net-umh--node1-MUDLON_clean_sbu_0--edge1-XUDNAN_clean_linker_2
_symmetry_space_group_name_H-M    P1
_symmetry_Int_Tables_number       1
_symmetry_cell_setting            triclinic
loop_
_symmetry_equiv_pos_as_xyz
'x, y, z'
_cell_length_a     42.481687
_cell_length_b     42.303503
_cell_length_c     54.789917
_cell_angle_alpha  90.114325
_cell_angle_beta   89.948099
_cell_angle_gamma 89.67875
loop_
_atom_site_label
_atom_site_type_symbol
_atom_site_fract_x
_atom_site_fract_y
_atom_site_fract_z
_atom_type_partial_charge
Mg0 Mg 0.34873 0.10669 0.17658 0.0
C1 C 0.37042 0.13268 0.12963 0.0
O2 O 0.38302 0.15088 0.1464 0.0
C3 C 0.31337 0.06935 0.21357 0.0
O4 O 0.34186 0.07009 0.22285 0.0
C5 C 0.41901 0.09487 0.19095 0.0
O6 O 0.42397 0.12457 0.18526 0.0
O7 O 0.39135 0.08371 0.18955 0.0
O8 O 0.35267 0.11022 0.1366 0.0
O9 O 0.33999 0.15459 0.18947 0.0
C10 C 0.32793 0.15984 0.21037 0.0
O11 O 0.32647 0.13666 0.2262 0.0
O12 O 0.30905 0.08059 0.19223 0.0
Mg13 Mg 0.40148 0.35617 0.67458 0.0
C14 C 0.37923 0.37854 0.62749 0.0
O15 O 0.36372 0.39436 0.64436 0.0
C16 C 0.44604 0.32723 0.7114 0.0
O17 O 0.45252 0.35726 0.71467 0.0
C18 C 0.43708 0.4159 0.67326 0.0
O19 O 0.44474 0.40182 0.65269 0.0
O20 O 0.41739 0.40246 0.6873 0.0
O21 O 0.3998 0.35842 0.63443 0.0
O22 O 0.35397 0.34217 0.68445 0.0
C23 C 0.34509 0.3193 0.67102 0.0
O24 O 0.36402 0.30925 0.65366 0.0
O25 O 0.42839 0.31942 0.6936 0.0
Mg26 Mg 0.14413 0.39192 0.1802 0.0
C27 C 0.1261 0.36714 0.13267 0.0
O28 O 0.11172 0.34968 0.14902 0.0
C29 C 0.16651 0.43539 0.21906 0.0
O30 O 0.13662 0.43185 0.22446 0.0
C31 C 0.09188 0.43456 0.17952 0.0
O32 O 0.11449 0.4469 0.16626 0.0
O33 O 0.09672 0.40768 0.1892 0.0
O34 O 0.14426 0.38895 0.14023 0.0
O35 O 0.15922 0.34626 0.19373 0.0
C36 C 0.18624 0.33923 0.18523 0.0
O37 O 0.19901 0.3583 0.16915 0.0
O38 O 0.17694 0.4232 0.19933 0.0
Mg39 Mg 0.09859 0.15088 0.67092 0.0
C40 C 0.10386 0.13841 0.61743 0.0
O41 O 0.11964 0.11467 0.62697 0.0
C42 C 0.08089 0.20749 0.70147 0.0
O43 O 0.10416 0.21902 0.6885 0.0
C44 C 0.06125 0.09433 0.68586 0.0
O45 O 0.04259 0.11746 0.69294 0.0
O46 O 0.08805 0.10114 0.67701 0.0
O47 O 0.09097 0.15848 0.63178 0.0
O48 O 0.14665 0.16471 0.67961 0.0
C49 C 0.16232 0.17993 0.66376 0.0
O50 O 0.15071 0.18322 0.64172 0.0
O51 O 0.07105 0.17983 0.6965 0.0
Mg52 Mg 0.33931 0.4003 0.39557 0.0
C53 C 0.35257 0.38872 0.44859 0.0
O54 O 0.37313 0.36983 0.438 0.0
C55 C 0.31634 0.43652 0.35221 0.0
O56 O 0.34469 0.42797 0.3451 0.0
C57 C 0.39402 0.44003 0.39845 0.0
O58 O 0.37274 0.45277 0.41291 0.0
O59 O 0.38712 0.41468 0.38721 0.0
O60 O 0.33405 0.40497 0.43519 0.0
O61 O 0.32625 0.35201 0.3865 0.0
C62 C 0.31441 0.34546 0.36578 0.0
O63 O 0.31484 0.3669 0.34852 0.0
O64 O 0.30771 0.43008 0.37391 0.0
Mg65 Mg 0.09186 0.35738 0.9006 0.0
C66 C 0.09722 0.36752 0.95394 0.0
O67 O 0.11436 0.39025 0.94458 0.0
C68 C 0.07846 0.33214 0.85209 0.0
O69 O 0.09888 0.35497 0.84878 0.0
C70 C 0.05306 0.41306 0.88425 0.0
O71 O 0.03589 0.38958 0.87608 0.0
O72 O 0.07931 0.4068 0.89437 0.0
O73 O 0.08287 0.34891 0.93942 0.0
O74 O 0.14117 0.34543 0.89443 0.0
C75 C 0.15324 0.32529 0.90894 0.0
O76 O 0.13662 0.31546 0.92762 0.0
O77 O 0.06849 0.32716 0.87369 0.0
Mg78 Mg 0.13872 0.10712 0.38974 0.0
C79 C 0.12345 0.1304 0.43787 0.0
O80 O 0.10732 0.14699 0.42188 0.0
C81 C 0.1584 0.07579 0.34495 0.0
O82 O 0.12961 0.08616 0.34117 0.0
C83 C 0.08452 0.06711 0.39594 0.0
O84 O 0.10605 0.05665 0.41117 0.0
O85 O 0.09097 0.091 0.38284 0.0
O86 O 0.14195 0.10891 0.42983 0.0
O87 O 0.15082 0.15432 0.3779 0.0
C88 C 0.17633 0.1632 0.38787 0.0
O89 O 0.18959 0.14463 0.40412 0.0
O90 O 0.17003 0.07893 0.36627 0.0
Mg91 Mg 0.40218 0.15708 0.89748 0.0
C92 C 0.39638 0.14303 0.95058 0.0
O93 O 0.37811 0.12177 0.94044 0.0
C94 C 0.41953 0.18551 0.85031 0.0
O95 O 0.39622 0.16635 0.84509 0.0
C96 C 0.43705 0.09999 0.87904 0.0
O97 O 0.45599 0.12271 0.87208 0.0
O98 O 0.41108 0.10739 0.8892 0.0
O99 O 0.41126 0.16206 0.93675 0.0
O100 O 0.35408 0.17306 0.89106 0.0
C101 C 0.34166 0.19124 0.90694 0.0
O102 O 0.35698 0.19702 0.92724 0.0
O103 O 0.4292 0.18672 0.87232 0.0
Mg104 Mg 0.64379 0.9049 0.89626 0.0
C105 C 0.65734 0.89839 0.95117 0.0
O106 O 0.67715 0.87653 0.94362 0.0
C107 C 0.67809 0.91257 0.85097 0.0
O108 O 0.65854 0.889 0.84761 0.0
C109 C 0.57287 0.91664 0.89483 0.0
O110 O 0.57333 0.89808 0.91403 0.0
O111 O 0.5983 0.92134 0.88318 0.0
O112 O 0.64314 0.91546 0.93548 0.0
O113 O 0.65211 0.85421 0.89293 0.0
C114 C 0.68089 0.84564 0.89211 0.0
O115 O 0.70279 0.86742 0.89307 0.0
O116 O 0.67807 0.92663 0.87158 0.0
Mg117 Mg 0.60952 0.64425 0.38766 0.0
C118 C 0.65754 0.66715 0.35151 0.0
O119 O 0.63196 0.6717 0.33852 0.0
C120 C 0.56491 0.59368 0.3938 0.0
O121 O 0.55837 0.61467 0.41081 0.0
C122 C 0.56179 0.67557 0.35485 0.0
O123 O 0.55526 0.64571 0.35078 0.0
O124 O 0.58115 0.68237 0.3718 0.0
O125 O 0.65547 0.65224 0.3716 0.0
O126 O 0.617 0.64389 0.42728 0.0
C127 C 0.63714 0.62312 0.43378 0.0
O128 O 0.65094 0.60615 0.41669 0.0
O129 O 0.58766 0.59918 0.37936 0.0
Mg130 Mg 0.83231 0.5907 0.90252 0.0
C131 C 0.83641 0.60341 0.95611 0.0
O132 O 0.84393 0.63089 0.9467 0.0
C133 C 0.80736 0.57122 0.85546 0.0
O134 O 0.82783 0.59365 0.85097 0.0
C135 C 0.90483 0.58613 0.90386 0.0
O136 O 0.90199 0.60244 0.92417 0.0
O137 O 0.8805 0.58083 0.89101 0.0
O138 O 0.82917 0.58086 0.9417 0.0
O139 O 0.81266 0.63785 0.89736 0.0
C140 C 0.78289 0.63697 0.90004 0.0
O141 O 0.76991 0.60981 0.90565 0.0
O142 O 0.80362 0.56248 0.87753 0.0
Mg143 Mg 0.88283 0.85035 0.39111 0.0
C144 C 0.83469 0.80665 0.37905 0.0
O145 O 0.85489 0.79222 0.39345 0.0
C146 C 0.921 0.90596 0.39842 0.0
O147 O 0.92977 0.88567 0.41527 0.0
C148 C 0.92531 0.82815 0.35191 0.0
O149 O 0.92129 0.85824 0.34686 0.0
O150 O 0.91468 0.81773 0.3721 0.0
O151 O 0.83914 0.83569 0.3742 0.0
O152 O 0.87576 0.84695 0.43085 0.0
C153 C 0.84846 0.85597 0.43768 0.0
O154 O 0.82806 0.86451 0.42089 0.0
O155 O 0.89883 0.8982 0.38408 0.0
Mg156 Mg 0.66137 0.58993 0.66538 0.0
C157 C 0.65143 0.59892 0.61256 0.0
O158 O 0.63147 0.61872 0.62285 0.0
C159 C 0.68287 0.54513 0.70661 0.0
O160 O 0.65424 0.53388 0.70457 0.0
C161 C 0.59721 0.57769 0.69194 0.0
O162 O 0.61048 0.58937 0.71162 0.0
O163 O 0.61246 0.57723 0.67195 0.0
O164 O 0.66851 0.5816 0.62629 0.0
O165 O 0.67482 0.63892 0.67101 0.0
C166 C 0.6999 0.64576 0.65946 0.0
O167 O 0.7126 0.62427 0.64513 0.0
O168 O 0.69233 0.56554 0.69125 0.0
Mg169 Mg 0.87625 0.64141 0.18266 0.0
C170 C 0.82281 0.66596 0.21441 0.0
O171 O 0.84526 0.66726 0.2308 0.0
C172 C 0.92436 0.59453 0.18502 0.0
O173 O 0.93525 0.61885 0.1728 0.0
C174 C 0.91393 0.67172 0.22183 0.0
O175 O 0.90829 0.64347 0.2307 0.0
O176 O 0.9051 0.67791 0.2001 0.0
O177 O 0.82839 0.65256 0.19403 0.0
O178 O 0.87453 0.6392 0.14261 0.0
C179 C 0.86187 0.61372 0.1351 0.0
O180 O 0.85222 0.59328 0.15147 0.0
O181 O 0.89645 0.59619 0.19333 0.0
Mg182 Mg 0.85249 0.89937 0.664 0.0
C183 C 0.82097 0.89549 0.61405 0.0
O184 O 0.79647 0.88909 0.62781 0.0
C185 C 0.818 0.91059 0.70886 0.0
O186 O 0.83866 0.88823 0.7136 0.0
C187 C 0.92366 0.91338 0.66371 0.0
O188 O 0.92462 0.89209 0.64622 0.0
O189 O 0.89766 0.91921 0.67434 0.0
O190 O 0.84681 0.90265 0.62432 0.0
O191 O 0.84467 0.85018 0.67361 0.0
C192 C 0.84075 0.8284 0.65793 0.0
O193 O 0.84805 0.83377 0.63502 0.0
O194 O 0.81763 0.92275 0.68758 0.0
Mg195 Mg 0.60028 0.86011 0.17918 0.0
C196 C 0.65143 0.8151 0.18278 0.0
O197 O 0.6302 0.80129 0.16904 0.0
C198 C 0.55835 0.91151 0.19431 0.0
O199 O 0.53974 0.88708 0.19146 0.0
C200 C 0.57896 0.82898 0.22306 0.0
O201 O 0.59963 0.85027 0.22984 0.0
O202 O 0.57168 0.82738 0.20052 0.0
O203 O 0.64671 0.84353 0.18951 0.0
O204 O 0.59593 0.86029 0.13925 0.0
C205 C 0.62081 0.86167 0.12626 0.0
O206 O 0.64835 0.86031 0.13709 0.0
O207 O 0.58777 0.90759 0.19108 0.0
H208 H 0.36504 0.10698 0.98437 0.0
H209 H 0.43018 0.18529 0.97815 0.0
H210 H 0.43056 0.19066 1.02311 0.0
H211 H 0.31953 0.13885 1.03375 0.0
H212 H 0.3138 0.10126 0.04849 0.0
H213 H 0.31917 0.10301 1.01591 0.0
H214 H 0.36607 0.06384 1.01902 0.0
H215 H 0.36079 0.06188 0.05161 0.0
H216 H 0.39844 0.0728 0.03909 0.0
H217 H 0.42307 0.18819 0.06852 0.0
H218 H 0.40929 0.17785 0.11133 0.0
H219 H 0.34878 0.10083 0.08852 0.0
C220 C 0.37955 0.12519 0.99241 0.0
C221 C 0.39767 0.14571 0.97764 0.0
C222 C 0.41618 0.16925 0.98901 0.0
C223 C 0.41651 0.17249 1.01454 0.0
C224 C 0.39821 0.15201 1.0285 0.0
C225 C 0.38013 0.12876 1.01786 0.0
C226 C 0.36237 0.11 0.03703 0.0
C227 C 0.3266 0.1135 1.03358 0.0
C228 C 0.37253 0.07506 0.03666 0.0
C229 C 0.37325 0.12638 0.06017 0.0
C230 C 0.3939 0.15055 0.05476 0.0
C231 C 0.40699 0.16929 0.07295 0.0
C232 C 0.39892 0.16318 0.09729 0.0
C233 C 0.3779 0.13847 0.10345 0.0
C234 C 0.36491 0.11985 0.08451 0.0
H235 H 0.3883 0.35583 0.48197 0.0
H236 H 0.31524 0.42768 0.47654 0.0
H237 H 0.31468 0.4327 0.52146 0.0
H238 H 0.35855 0.31826 0.53637 0.0
H239 H 0.39704 0.31054 0.54889 0.0
H240 H 0.39176 0.3125 0.51631 0.0
H241 H 0.43457 0.35572 0.51364 0.0
H242 H 0.43994 0.35395 0.54622 0.0
H243 H 0.43059 0.39109 0.53181 0.0
H244 H 0.32224 0.43034 0.56666 0.0
H245 H 0.33644 0.42045 0.60942 0.0
H246 H 0.40473 0.34968 0.58623 0.0
C247 C 0.37212 0.37261 0.49019 0.0
C248 C 0.35177 0.39139 0.47564 0.0
C249 C 0.331 0.41302 0.48722 0.0
C250 C 0.33055 0.41605 0.51274 0.0
C251 C 0.35096 0.39727 0.52648 0.0
C252 C 0.37132 0.37591 0.51567 0.0
C253 C 0.39078 0.35853 0.53471 0.0
C254 C 0.38412 0.32284 0.53403 0.0
C255 C 0.42606 0.36523 0.53139 0.0
C256 C 0.3782 0.37351 0.55798 0.0
C257 C 0.35528 0.39582 0.55271 0.0
C258 C 0.34012 0.41292 0.57099 0.0
C259 C 0.34844 0.40707 0.5953 0.0
C260 C 0.37175 0.38423 0.60133 0.0
C261 C 0.38686 0.36729 0.58229 0.0
H262 H 0.12712 0.40288 0.98892 0.0
H263 H 0.06716 0.32092 0.97981 0.0
H264 H 0.06883 0.31181 1.02436 0.0
H265 H 0.17645 0.37035 0.0357 0.0
H266 H 0.18004 0.40702 0.05225 0.0
H267 H 0.17376 0.4075 1.01974 0.0
H268 H 0.12438 0.44291 1.02563 0.0
H269 H 0.13059 0.4427 0.05814 0.0
H270 H 0.0934 0.4301 0.04577 0.0
H271 H 0.07755 0.31127 0.06969 0.0
H272 H 0.09118 0.31983 0.1128 0.0
H273 H 0.14578 0.40233 0.0928 0.0
C274 C 0.11419 0.38306 0.99625 0.0
C275 C 0.09693 0.36261 0.98079 0.0
C276 C 0.08045 0.33695 0.99122 0.0
C277 C 0.08133 0.33156 1.01651 0.0
C278 C 0.09878 0.35203 1.03115 0.0
C279 C 0.11482 0.37734 1.02143 0.0
C280 C 0.13186 0.39578 0.04118 0.0
C281 C 0.16765 0.39511 0.03696 0.0
C282 C 0.1193 0.42989 0.04277 0.0
C283 C 0.12289 0.37688 0.0636 0.0
C284 C 0.10384 0.35173 0.05733 0.0
C285 C 0.09241 0.3309 0.07479 0.0
C286 C 0.10035 0.33601 0.09929 0.0
C287 C 0.1196 0.36179 0.10631 0.0
C288 C 0.13115 0.38236 0.08809 0.0
H289 H 0.13192 0.10078 0.58257 0.0
H290 H 0.07421 0.18513 0.59121 0.0
H291 H 0.07406 0.1923 0.54645 0.0
H292 H 0.17969 0.12978 0.5332 0.0
H293 H 0.18168 0.09227 0.51759 0.0
H294 H 0.17717 0.09349 0.55028 0.0
H295 H 0.12689 0.0594 0.54702 0.0
H296 H 0.1313 0.05796 0.51434 0.0
H297 H 0.09508 0.07227 0.52761 0.0
H298 H 0.0801 0.1904 0.50109 0.0
H299 H 0.09083 0.17947 0.45783 0.0
H300 H 0.14512 0.0962 0.47793 0.0
C301 C 0.11915 0.12075 0.57509 0.0
C302 C 0.10299 0.14242 0.59049 0.0
C303 C 0.08669 0.16822 0.57987 0.0
C304 C 0.08653 0.1725 0.55445 0.0
C305 C 0.10282 0.15082 0.53987 0.0
C306 C 0.11879 0.12541 0.54976 0.0
C307 C 0.13438 0.10555 0.52994 0.0
C308 C 0.17036 0.10527 0.53294 0.0
C309 C 0.12111 0.0718 0.52972 0.0
C310 C 0.12456 0.12371 0.5073 0.0
C311 C 0.10642 0.14975 0.51356 0.0
C312 C 0.09428 0.17009 0.49599 0.0
C313 C 0.10055 0.1636 0.47139 0.0
C314 C 0.11886 0.13692 0.46434 0.0
C315 C 0.1312 0.11684 0.48267 0.0
H316 H 0.66661 0.85061 0.09206 0.0
H317 H 0.57196 0.88812 0.10046 0.0
H318 H 0.57191 0.90395 0.05697 0.0
H319 H 0.69578 0.90929 0.0515 0.0
H320 H 0.71847 0.88197 1.03322 0.0
H321 H 0.71106 0.87347 0.0649 0.0
H322 H 0.68647 0.81966 0.05309 0.0
H323 H 0.69422 0.82779 1.02141 0.0
H324 H 0.65481 0.81862 1.03122 0.0
H325 H 0.58366 0.91831 1.01287 0.0
H326 H 0.60309 0.92344 0.97053 0.0
H327 H 0.68898 0.87397 0.99061 0.0
C328 C 0.64577 0.86197 0.08472 0.0
C329 C 0.6193 0.86823 0.09968 0.0
C330 C 0.59243 0.88294 0.08933 0.0
C331 C 0.59229 0.89222 0.06469 0.0
C332 C 0.61904 0.88624 0.05057 0.0
C333 C 0.64505 0.87092 0.06011 0.0
C334 C 0.67043 0.86636 0.04093 0.0
C335 C 0.70072 0.88382 0.04807 0.0
C336 C 0.67684 0.83101 0.03639 0.0
C337 C 0.65475 0.8817 1.01909 0.0
C338 C 0.62529 0.8934 1.02508 0.0
C339 C 0.60661 0.90904 1.00797 0.0
C340 C 0.61797 0.91205 0.98398 0.0
C341 C 0.64758 0.89912 0.97721 0.0
C342 C 0.66626 0.8841 0.99517 0.0
H343 H 0.61714 0.63292 0.57916 0.0
H344 H 0.69203 0.56303 0.58468 0.0
H345 H 0.69693 0.56256 0.53968 0.0
H346 H 0.5809 0.60121 0.52519 0.0
H347 H 0.57131 0.63944 0.51266 0.0
H348 H 0.57385 0.63436 0.54523 0.0
H349 H 0.61489 0.67932 0.54759 0.0
H350 H 0.61256 0.68448 0.51501 0.0
H351 H 0.65007 0.67687 0.52924 0.0
H352 H 0.69361 0.56973 0.4942 0.0
H353 H 0.68195 0.58289 0.45142 0.0
H354 H 0.609 0.64837 0.47523 0.0
C355 C 0.6346 0.61745 0.57097 0.0
C356 C 0.65424 0.59796 0.58553 0.0
C357 C 0.67671 0.57812 0.57397 0.0
C358 C 0.67969 0.57774 0.54842 0.0
C359 C 0.66002 0.59734 0.53467 0.0
C360 C 0.63786 0.61678 0.54552 0.0
C361 C 0.61948 0.63541 0.52657 0.0
C362 C 0.5843 0.6271 0.52747 0.0
C363 C 0.62457 0.67114 0.5298 0.0
C364 C 0.63473 0.62339 0.50328 0.0
C365 C 0.65809 0.60149 0.50842 0.0
C366 C 0.67539 0.58684 0.48999 0.0
C367 C 0.66853 0.59453 0.46568 0.0
C368 C 0.64453 0.61672 0.45985 0.0
C369 C 0.62756 0.63144 0.47902 0.0
H370 H 0.85472 0.64643 0.99089 0.0
H371 H 0.82175 0.55008 0.98226 0.0
H372 H 0.82539 0.54248 1.0269 0.0
H373 H 0.9107 0.63037 0.03856 0.0
H374 H 0.90312 0.66682 0.05467 0.0
H375 H 0.89764 0.66489 1.0221 0.0
H376 H 0.84011 0.68445 1.02712 0.0
H377 H 0.84542 0.68654 0.05969 0.0
H378 H 0.81384 0.66339 0.0471 0.0
H379 H 0.83249 0.54536 0.07228 0.0
H380 H 0.84205 0.55817 0.11542 0.0
H381 H 0.8711 0.65279 0.09502 0.0
C382 C 0.84816 0.62372 0.99834 0.0
C383 C 0.83786 0.59882 0.98299 0.0
C384 C 0.82964 0.5695 0.99358 0.0
C385 C 0.83167 0.56496 1.01893 0.0
C386 C 0.84203 0.58995 1.03347 0.0
C387 C 0.85012 0.61876 1.02359 0.0
C388 C 0.86062 0.64172 0.04329 0.0
C389 C 0.89507 0.65152 0.03942 0.0
C390 C 0.83868 0.67074 0.04436 0.0
C391 C 0.8571 0.62133 0.06587 0.0
C392 C 0.84633 0.59156 0.05971 0.0
C393 C 0.84093 0.56857 0.0773 0.0
C394 C 0.84645 0.57616 0.10182 0.0
C395 C 0.85735 0.60654 0.10874 0.0
C396 C 0.8629 0.62934 0.09038 0.0
H397 H 0.88677 0.86363 0.47831 0.0
H398 H 0.78919 0.85514 0.45594 0.0
H399 H 0.77201 0.86441 0.49827 0.0
H400 H 0.87775 0.82617 0.53836 0.0
H401 H 0.90458 0.85284 0.55325 0.0
H402 H 0.90957 0.84361 0.52135 0.0
H403 H 0.90754 0.90332 0.51109 0.0
H404 H 0.90221 0.9127 0.54291 0.0
H405 H 0.87409 0.92662 0.52073 0.0
H406 H 0.7648 0.87597 0.54244 0.0
H407 H 0.76815 0.88801 0.58639 0.0
H408 H 0.87009 0.89083 0.581 0.0
C409 C 0.86186 0.86319 0.48246 0.0
C410 C 0.83932 0.85849 0.46378 0.0
C411 C 0.80689 0.85868 0.46988 0.0
C412 C 0.79686 0.86394 0.49391 0.0
C413 C 0.81949 0.86918 0.51178 0.0
C414 C 0.85132 0.86876 0.50648 0.0
C415 C 0.87051 0.87612 0.52918 0.0
C416 C 0.89186 0.84801 0.53593 0.0
C417 C 0.88972 0.9065 0.52576 0.0
C418 C 0.84446 0.88082 0.54791 0.0
C419 C 0.81525 0.87656 0.53741 0.0
C420 C 0.78755 0.87935 0.5509 0.0
C421 C 0.78969 0.88628 0.57588 0.0
C422 C 0.81932 0.89057 0.58721 0.0
C423 C 0.84705 0.88803 0.57288 0.0
H424 H 0.23916 0.31386 0.16494 0.0
H425 H 0.17475 0.30276 0.22581 0.0
H426 H 0.20767 0.25873 0.2415 0.0
H427 H 0.25295 0.23224 0.15486 0.0
H428 H 0.29371 0.23733 0.14667 0.0
H429 H 0.26591 0.2688 0.14142 0.0
H430 H 0.3008 0.30675 0.16679 0.0
H431 H 0.3285 0.27519 0.17241 0.0
H432 H 0.31117 0.29642 0.19767 0.0
H433 H 0.24753 0.21526 0.24991 0.0
H434 H 0.28699 0.1723 0.24792 0.0
H435 H 0.3244 0.21207 0.18098 0.0
C436 C 0.23197 0.30229 0.18164 0.0
C437 C 0.20446 0.31177 0.19422 0.0
C438 C 0.19571 0.29578 0.21585 0.0
C439 C 0.21439 0.27096 0.22499 0.0
C440 C 0.24162 0.26248 0.21222 0.0
C441 C 0.25015 0.27749 0.19087 0.0
C442 C 0.27943 0.26287 0.17977 0.0
C443 C 0.27257 0.24951 0.15418 0.0
C444 C 0.30658 0.28674 0.17913 0.0
C445 C 0.28582 0.23681 0.19797 0.0
C446 C 0.26411 0.23727 0.21679 0.0
C447 C 0.26471 0.21477 0.23532 0.0
C448 C 0.28736 0.19053 0.23408 0.0
C449 C 0.30883 0.18879 0.21427 0.0
C450 C 0.30848 0.21282 0.19643 0.0
H451 H 0.3113 0.28692 0.63754 0.0
H452 H 0.31259 0.31245 0.71421 0.0
H453 H 0.26665 0.27762 0.72145 0.0
H454 H 0.22625 0.28442 0.63149 0.0
H455 H 0.22769 0.25184 0.61027 0.0
H456 H 0.2598 0.27938 0.61166 0.0
H457 H 0.29853 0.23281 0.61917 0.0
H458 H 0.26647 0.20518 0.61826 0.0
H459 H 0.29193 0.20658 0.64453 0.0
H460 H 0.22226 0.23681 0.72015 0.0
H461 H 0.17949 0.19959 0.70967 0.0
H462 H 0.20755 0.20303 0.63358 0.0
C463 C 0.30174 0.28545 0.65584 0.0
C464 C 0.31542 0.30225 0.67535 0.0
C465 C 0.30219 0.29991 0.69899 0.0
C466 C 0.27633 0.28001 0.70327 0.0
C467 C 0.2639 0.26307 0.68364 0.0
C468 C 0.27589 0.26614 0.66031 0.0
C469 C 0.25825 0.24597 0.64216 0.0
C470 C 0.24203 0.26664 0.62276 0.0
C471 C 0.28011 0.22117 0.63035 0.0
C472 C 0.23455 0.23069 0.65889 0.0
C473 C 0.23825 0.24053 0.6828 0.0
C474 C 0.2191 0.22912 0.70146 0.0
C475 C 0.19507 0.20778 0.69538 0.0
C476 C 0.19029 0.19841 0.67082 0.0
C477 C 0.21063 0.20976 0.65251 0.0
H478 H 0.30636 0.29694 0.39829 0.0
H479 H 0.27707 0.33012 0.32683 0.0
H480 H 0.23814 0.28715 0.32452 0.0
H481 H 0.29746 0.21229 0.38525 0.0
H482 H 0.28348 0.20399 0.41563 0.0
H483 H 0.31041 0.23607 0.41063 0.0
H484 H 0.27101 0.27452 0.43157 0.0
H485 H 0.24372 0.24269 0.43623 0.0
H486 H 0.23138 0.27768 0.42005 0.0
H487 H 0.19902 0.24313 0.33172 0.0
H488 H 0.16726 0.19777 0.34596 0.0
H489 H 0.22318 0.19348 0.41213 0.0
C490 C 0.2922 0.29485 0.38194 0.0
C491 C 0.29479 0.31693 0.36277 0.0
C492 C 0.27565 0.31342 0.34175 0.0
C493 C 0.25332 0.28918 0.3403 0.0
C494 C 0.25064 0.26848 0.35991 0.0
C495 C 0.26994 0.27075 0.38014 0.0
C496 C 0.26204 0.24588 0.39892 0.0
C497 C 0.29001 0.22321 0.40282 0.0
C498 C 0.2514 0.26112 0.42312 0.0
C499 C 0.235 0.22955 0.38626 0.0
C500 C 0.22861 0.24295 0.36383 0.0
C501 C 0.20402 0.23224 0.34916 0.0
C502 C 0.18596 0.20667 0.35745 0.0
C503 C 0.19284 0.1921 0.38008 0.0
C504 C 0.21747 0.20401 0.39467 0.0
H505 H 0.30065 0.21641 0.9399 0.0
H506 H 0.31759 0.2072 0.86213 0.0
H507 H 0.27251 0.24306 0.85391 0.0
H508 H 0.2154 0.21699 0.93582 0.0
H509 H 0.21103 0.24474 0.96062 0.0
H510 H 0.24434 0.21825 0.95985 0.0
H511 H 0.28181 0.26627 0.96288 0.0
H512 H 0.24863 0.29294 0.96321 0.0
H513 H 0.27905 0.2974 0.94054 0.0
H514 H 0.22722 0.2829 0.8547 0.0
H515 H 0.18085 0.31665 0.86409 0.0
H516 H 0.19295 0.2971 0.9412 0.0
C517 C 0.29469 0.2217 0.92113 0.0
C518 C 0.31256 0.20914 0.90164 0.0
C519 C 0.30399 0.21643 0.87731 0.0
C520 C 0.27863 0.23697 0.87249 0.0
C521 C 0.26195 0.24959 0.89221 0.0
C522 C 0.26928 0.24168 0.91602 0.0
C523 C 0.24725 0.25758 0.93398 0.0
C524 C 0.22838 0.23292 0.94841 0.0
C525 C 0.26527 0.27987 0.95116 0.0
C526 C 0.22644 0.27589 0.91662 0.0
C527 C 0.23547 0.2714 0.89261 0.0
C528 C 0.21984 0.28641 0.87343 0.0
C529 C 0.19374 0.30573 0.87893 0.0
C530 C 0.18341 0.30941 0.90335 0.0
C531 C 0.20032 0.29465 0.92236 0.0
H532 H 0.74054 0.82086 0.89037 0.0
H533 H 0.64204 0.79402 0.8921 0.0
H534 H 0.65779 0.7377 0.8925 0.0
H535 H 0.76774 0.75625 0.85142 0.0
H536 H 0.80445 0.75181 0.86756 0.0
H537 H 0.78539 0.78992 0.86613 0.0
H538 H 0.7858 0.79331 0.91336 0.0
H539 H 0.80476 0.75521 0.91495 0.0
H540 H 0.76823 0.76203 0.93094 0.0
H541 H 0.6841 0.68483 0.8948 0.0
H542 H 0.71892 0.63845 0.89839 0.0
H543 H 0.80074 0.69941 0.89498 0.0
C544 C 0.72222 0.80318 0.89063 0.0
C545 C 0.69 0.81185 0.8912 0.0
C546 C 0.66683 0.78794 0.89161 0.0
C547 C 0.67556 0.75591 0.89183 0.0
C548 C 0.70752 0.74823 0.89151 0.0
C549 C 0.73051 0.77115 0.89082 0.0
C550 C 0.76321 0.75658 0.8913 0.0
C551 C 0.78126 0.76409 0.86769 0.0
C552 C 0.78157 0.76743 0.91399 0.0
C553 C 0.75504 0.72183 0.89276 0.0
C554 C 0.72277 0.71762 0.89275 0.0
C555 C 0.70938 0.68782 0.89467 0.0
C556 C 0.72944 0.66161 0.89678 0.0
C557 C 0.76261 0.66526 0.89696 0.0
C558 C 0.77552 0.69583 0.89473 0.0
H559 H 0.7141 0.66479 0.3753 0.0
H560 H 0.66456 0.71364 0.31719 0.0
H561 H 0.70683 0.75336 0.31549 0.0
H562 H 0.73685 0.72978 0.4069 0.0
H563 H 0.77522 0.71541 0.41567 0.0
H564 H 0.74412 0.68789 0.40957 0.0
H565 H 0.77852 0.65957 0.37699 0.0
H566 H 0.81009 0.68664 0.38337 0.0
H567 H 0.79575 0.68224 0.35261 0.0
H568 H 0.75031 0.79249 0.32506 0.0
H569 H 0.79422 0.82408 0.34202 0.0
H570 H 0.8151 0.74838 0.39293 0.0
C571 C 0.71261 0.68323 0.36165 0.0
C572 C 0.68594 0.68617 0.34647 0.0
C573 C 0.68478 0.71085 0.32901 0.0
C574 C 0.70867 0.7336 0.32794 0.0
C575 C 0.73386 0.73094 0.3441 0.0
C576 C 0.73631 0.70592 0.36023 0.0
C577 C 0.76451 0.70946 0.37679 0.0
C578 C 0.75456 0.71072 0.40382 0.0
C579 C 0.78865 0.6829 0.37215 0.0
C580 C 0.77676 0.74101 0.36821 0.0
C581 C 0.759 0.75304 0.34924 0.0
C582 C 0.76476 0.78299 0.33958 0.0
C583 C 0.78955 0.80086 0.34943 0.0
C584 C 0.80813 0.78864 0.36869 0.0
C585 C 0.80157 0.75829 0.37802 0.0
H586 H 0.82817 0.77647 0.62962 0.0
H587 H 0.80823 0.81829 0.70045 0.0
H588 H 0.7691 0.77669 0.70845 0.0
H589 H 0.75053 0.75586 0.61489 0.0
H590 H 0.76062 0.71888 0.60041 0.0
H591 H 0.78855 0.75072 0.60075 0.0
H592 H 0.83009 0.7144 0.62129 0.0
H593 H 0.80249 0.68225 0.62058 0.0
H594 H 0.82013 0.69399 0.64908 0.0
H595 H 0.72863 0.73281 0.70716 0.0
H596 H 0.69535 0.68606 0.69879 0.0
H597 H 0.74319 0.67266 0.62951 0.0
C598 C 0.81603 0.77657 0.64701 0.0
C599 C 0.82134 0.80065 0.66438 0.0
C600 C 0.80478 0.79998 0.68688 0.0
C601 C 0.78231 0.77655 0.69155 0.0
C602 C 0.77691 0.75377 0.67368 0.0
C603 C 0.79374 0.75325 0.65206 0.0
C604 C 0.78342 0.72631 0.63579 0.0
C605 C 0.76998 0.7387 0.61153 0.0
C606 C 0.81065 0.70285 0.63144 0.0
C607 C 0.75792 0.71197 0.65149 0.0
C608 C 0.75427 0.72824 0.6732 0.0
C609 C 0.73149 0.71971 0.69031 0.0
C610 C 0.71253 0.69333 0.68534 0.0
C611 C 0.71678 0.67574 0.66356 0.0
C612 C 0.73952 0.68554 0.64639 0.0
H613 H 0.77279 0.67143 0.18306 0.0
H614 H 0.81025 0.70842 0.25102 0.0
H615 H 0.76957 0.75024 0.25097 0.0
H616 H 0.75785 0.74329 0.15551 0.0
H617 H 0.72161 0.73189 0.14094 0.0
H618 H 0.75109 0.70248 0.14764 0.0
H619 H 0.71059 0.67011 0.17248 0.0
H620 H 0.68073 0.69908 0.1654 0.0
H621 H 0.68882 0.68906 0.19674 0.0
H622 H 0.72914 0.79218 0.24058 0.0
H623 H 0.68726 0.82657 0.22348 0.0
H624 H 0.67581 0.76113 0.1631 0.0
C625 C 0.77197 0.68779 0.19828 0.0
C626 C 0.79478 0.68663 0.217 0.0
C627 C 0.79298 0.70869 0.23649 0.0
C628 C 0.77003 0.73267 0.23658 0.0
C629 C 0.74883 0.73401 0.21723 0.0
C630 C 0.74915 0.71173 0.19873 0.0
C631 C 0.72452 0.71903 0.1796 0.0
C632 C 0.73969 0.7245 0.15445 0.0
C633 C 0.69969 0.69276 0.17851 0.0
C634 C 0.71084 0.74933 0.1899 0.0
C635 C 0.72518 0.75769 0.21157 0.0
C636 C 0.71742 0.78563 0.2238 0.0
C637 C 0.69387 0.80515 0.21385 0.0
C638 C 0.67832 0.79644 0.19203 0.0
C639 C 0.68714 0.76827 0.17992 0.0
H640 H 0.22324 0.07031 0.34102 0.0
H641 H 0.13656 0.05926 0.3001 0.0
H642 H 0.16705 0.0509 0.26242 0.0
H643 H 0.26277 0.11414 0.29758 0.0
H644 H 0.30099 0.09649 0.3023 0.0
H645 H 0.27276 0.09724 0.32677 0.0
H646 H 0.27721 0.03635 0.33095 0.0
H647 H 0.30565 0.03545 0.30651 0.0
H648 H 0.27066 0.01168 0.30459 0.0
H649 H 0.20629 0.05145 0.22816 0.0
H650 H 0.25197 0.05772 0.20052 0.0
H651 H 0.31336 0.06618 0.26342 0.0
C652 C 0.21075 0.06512 0.32428 0.0
C653 C 0.17747 0.06533 0.32361 0.0
C654 C 0.16202 0.05918 0.30116 0.0
C655 C 0.17914 0.05434 0.27959 0.0
C656 C 0.21184 0.05536 0.28065 0.0
C657 C 0.22756 0.06014 0.30246 0.0
C658 C 0.26277 0.06227 0.29823 0.0
C659 C 0.27555 0.09444 0.30672 0.0
C660 C 0.2801 0.0348 0.31082 0.0
C661 C 0.2642 0.05902 0.27065 0.0
C662 C 0.23458 0.05488 0.26085 0.0
C663 C 0.22971 0.05396 0.23565 0.0
C664 C 0.25576 0.05759 0.22006 0.0
C665 C 0.28631 0.06194 0.22973 0.0
C666 C 0.29045 0.06214 0.25539 0.0
H667 H 0.41709 0.27056 0.72077 0.0
H668 H 0.4893 0.33352 0.74799 0.0
H669 H 0.49409 0.3011 0.78526 0.0
H670 H 0.37834 0.26164 0.77557 0.0
H671 H 0.36828 0.22063 0.77147 0.0
H672 H 0.37407 0.24549 0.74528 0.0
H673 H 0.41649 0.20685 0.72862 0.0
H674 H 0.41059 0.1816 0.75467 0.0
H675 H 0.4494 0.19601 0.74766 0.0
H676 H 0.48633 0.26546 0.8219 0.0
H677 H 0.46762 0.22882 0.85393 0.0
H678 H 0.4002 0.18976 0.80278 0.0
C679 C 0.4347 0.27691 0.73416 0.0
C680 C 0.45308 0.30443 0.73129 0.0
C681 C 0.47515 0.31241 0.74966 0.0
C682 C 0.47802 0.29414 0.77094 0.0
C683 C 0.45871 0.26783 0.77362 0.0
C684 C 0.43768 0.25905 0.7556 0.0
C685 C 0.41773 0.23145 0.76381 0.0
C686 C 0.38254 0.24035 0.76405 0.0
C687 C 0.42394 0.20224 0.74773 0.0
C688 C 0.43022 0.2266 0.78945 0.0
C689 C 0.45406 0.24758 0.79474 0.0
C690 C 0.46798 0.24862 0.81781 0.0
C691 C 0.45716 0.22777 0.83593 0.0
C692 C 0.43254 0.20627 0.83093 0.0
C693 C 0.41926 0.20564 0.80723 0.0
H694 H 0.23022 0.42471 0.2242 0.0
H695 H 0.15056 0.47235 0.25788 0.0
H696 H 0.18271 0.48377 0.29421 0.0
H697 H 0.25531 0.38626 0.27554 0.0
H698 H 0.29695 0.38963 0.2699 0.0
H699 H 0.26981 0.39006 0.24475 0.0
H700 H 0.29195 0.44387 0.23038 0.0
H701 H 0.31946 0.44347 0.25542 0.0
H702 H 0.29318 0.47666 0.25142 0.0
H703 H 0.22003 0.48171 0.32951 0.0
H704 H 0.26147 0.46962 0.35991 0.0
H705 H 0.3177 0.42528 0.30315 0.0
C706 C 0.21995 0.43865 0.2388 0.0
C707 C 0.18793 0.44785 0.2381 0.0
C708 C 0.17507 0.46518 0.25794 0.0
C709 C 0.19317 0.47182 0.27869 0.0
C710 C 0.22425 0.46124 0.27931 0.0
C711 C 0.23775 0.44545 0.25974 0.0
C712 C 0.27069 0.43412 0.26597 0.0
C713 C 0.27332 0.39788 0.26392 0.0
C714 C 0.29527 0.45052 0.24984 0.0
C715 C 0.27312 0.44502 0.29229 0.0
C716 C 0.24615 0.46076 0.29962 0.0
C717 C 0.24162 0.47017 0.32383 0.0
C718 C 0.26519 0.46313 0.34099 0.0
C719 C 0.29301 0.44707 0.33383 0.0
C720 C 0.2971 0.43842 0.30906 0.0
H721 H 0.09947 0.26573 0.71742 0.0
H722 H 0.03971 0.18687 0.73694 0.0
H723 H 0.02868 0.21214 0.77688 0.0
H724 H 0.13498 0.27441 0.77391 0.0
H725 H 0.13692 0.31694 0.77293 0.0
H726 H 0.13679 0.29457 0.74499 0.0
H727 H 0.08815 0.32619 0.7299 0.0
H728 H 0.08825 0.34887 0.75778 0.0
H729 H 0.05327 0.32805 0.74863 0.0
H730 H 0.02888 0.24415 0.81677 0.0
H731 H 0.0393 0.28009 0.85165 0.0
H732 H 0.09871 0.33725 0.80501 0.0
C733 C 0.08347 0.25402 0.72981 0.0
C734 C 0.07035 0.22434 0.72392 0.0
C735 C 0.04986 0.20973 0.7409 0.0
C736 C 0.0435 0.2239 0.76368 0.0
C737 C 0.0576 0.2528 0.76915 0.0
C738 C 0.07691 0.26778 0.75252 0.0
C739 C 0.0908 0.29764 0.76315 0.0
C740 C 0.12701 0.29575 0.76378 0.0
C741 C 0.07943 0.32692 0.74902 0.0
C742 C 0.07695 0.29683 0.78859 0.0
C743 C 0.05766 0.27098 0.79177 0.0
C744 C 0.04363 0.26468 0.81432 0.0
C745 C 0.04969 0.2852 0.83405 0.0
C746 C 0.06971 0.31161 0.83112 0.0
C747 C 0.08308 0.31748 0.80793 0.0
H748 H 0.70815 0.87105 0.82155 0.0
H749 H 0.69804 0.97135 0.83575 0.0
H750 H 0.73109 0.98288 0.79931 0.0
H751 H 0.78971 0.87427 0.8027 0.0
H752 H 0.78495 0.8433 0.78039 0.0
H753 H 0.76058 0.84403 0.80728 0.0
H754 H 0.71082 0.84325 0.77991 0.0
H755 H 0.73505 0.84306 0.75294 0.0
H756 H 0.70556 0.87341 0.75705 0.0
H757 H 0.76293 0.98232 0.75869 0.0
H758 H 0.79669 0.96979 0.72271 0.0
H759 H 0.78772 0.86992 0.73833 0.0
C760 C 0.71304 0.89547 0.81707 0.0
C761 C 0.7005 0.92036 0.83127 0.0
C762 C 0.70765 0.95199 0.82509 0.0
C763 C 0.72615 0.95868 0.80435 0.0
C764 C 0.73766 0.93343 0.79037 0.0
C765 C 0.73185 0.90245 0.79691 0.0
C766 C 0.74768 0.87932 0.77974 0.0
C767 C 0.77219 0.85905 0.79334 0.0
C768 C 0.72332 0.85855 0.76664 0.0
C769 C 0.76317 0.90198 0.76224 0.0
C770 C 0.75686 0.93313 0.76828 0.0
C771 C 0.7682 0.958 0.75401 0.0
C772 C 0.78709 0.95073 0.73353 0.0
C773 C 0.79478 0.91895 0.72791 0.0
C774 C 0.78232 0.89446 0.74234 0.0
H775 H 0.58726 0.7345 0.34806 0.0
H776 H 0.51826 0.66975 0.31837 0.0
H777 H 0.51128 0.70458 0.28266 0.0
H778 H 0.55003 0.8089 0.32497 0.0
H779 H 0.5878 0.82624 0.31856 0.0
H780 H 0.58372 0.79864 0.34337 0.0
H781 H 0.62829 0.76413 0.32479 0.0
H782 H 0.63228 0.79133 0.29983 0.0
H783 H 0.62473 0.75018 0.29379 0.0
H784 H 0.51721 0.74294 0.24745 0.0
H785 H 0.5337 0.783 0.21711 0.0
H786 H 0.59823 0.82248 0.27027 0.0
C787 C 0.56986 0.72817 0.3345 0.0
C788 C 0.55311 0.69947 0.33617 0.0
C789 C 0.53122 0.6917 0.31761 0.0
C790 C 0.5271 0.71134 0.29721 0.0
C791 C 0.54489 0.73884 0.29565 0.0
C792 C 0.56555 0.74746 0.31398 0.0
C793 C 0.58367 0.77685 0.30708 0.0
C794 C 0.57582 0.80428 0.32453 0.0
C795 C 0.61934 0.7702 0.30632 0.0
C796 C 0.57064 0.78289 0.28178 0.0
C797 C 0.54815 0.7609 0.2755 0.0
C798 C 0.53439 0.76063 0.25235 0.0
C799 C 0.54395 0.7834 0.2352 0.0
C800 C 0.56705 0.80607 0.24131 0.0
C801 C 0.58018 0.80582 0.26504 0.0
H802 H 0.80944 0.58868 0.80756 0.0
H803 H 0.76088 0.52583 0.8573 0.0
H804 H 0.72676 0.50804 0.8233 0.0
H805 H 0.74274 0.61397 0.77563 0.0
H806 H 0.76219 0.61621 0.74644 0.0
H807 H 0.78445 0.62132 0.77405 0.0
H808 H 0.8222 0.57605 0.76088 0.0
H809 H 0.79997 0.57074 0.73319 0.0
H810 H 0.80634 0.53779 0.75343 0.0
H811 H 0.69537 0.50033 0.78406 0.0
H812 H 0.66874 0.50457 0.74411 0.0
H813 H 0.7384 0.57274 0.72062 0.0
C814 C 0.79197 0.5708 0.81134 0.0
C815 C 0.78797 0.55853 0.83515 0.0
C816 C 0.76452 0.53545 0.83922 0.0
C817 C 0.74508 0.52518 0.81999 0.0
C818 C 0.74949 0.53811 0.7968 0.0
C819 C 0.77244 0.56041 0.79247 0.0
C820 C 0.77129 0.57221 0.7664 0.0
C821 C 0.76477 0.60804 0.7656 0.0
C822 C 0.80176 0.56368 0.75267 0.0
C823 C 0.74365 0.55359 0.75674 0.0
C824 C 0.73153 0.53379 0.77443 0.0
C825 C 0.70491 0.51551 0.77004 0.0
C826 C 0.68995 0.51805 0.74723 0.0
C827 C 0.70151 0.53885 0.72908 0.0
C828 C 0.72914 0.55629 0.73388 0.0
H829 H 0.91553 0.76393 0.34832 0.0
H830 H 0.95542 0.8437 0.3097 0.0
H831 H 0.96175 0.8107 0.27287 0.0
H832 H 0.96448 0.70113 0.31774 0.0
H833 H 0.93194 0.67399 0.31706 0.0
H834 H 0.935 0.70251 0.34142 0.0
H835 H 0.87895 0.72316 0.33133 0.0
H836 H 0.87585 0.69502 0.30682 0.0
H837 H 0.87033 0.73655 0.30083 0.0
H838 H 0.95571 0.77178 0.23835 0.0
H839 H 0.942 0.72815 0.21007 0.0
H840 H 0.90819 0.6732 0.27138 0.0
C841 C 0.9267 0.77412 0.33242 0.0
C842 C 0.93518 0.80639 0.332 0.0
C843 C 0.94887 0.81902 0.31054 0.0
C844 C 0.95255 0.80045 0.28947 0.0
C845 C 0.94271 0.76912 0.29014 0.0
C846 C 0.93055 0.75586 0.31118 0.0
C847 C 0.91957 0.72236 0.30652 0.0
C848 C 0.93891 0.69859 0.32158 0.0
C849 C 0.88408 0.71911 0.31168 0.0
C850 C 0.92667 0.71921 0.27949 0.0
C851 C 0.94003 0.74641 0.27034 0.0
C852 C 0.94597 0.75005 0.24541 0.0
C853 C 0.93803 0.72525 0.22946 0.0
C854 C 0.92459 0.69709 0.23854 0.0
C855 C 0.91924 0.69407 0.26393 0.0
H856 H 0.4158 0.0319 0.20125 0.0
H857 H 0.48242 0.10835 0.1919 0.0
H858 H 0.52645 0.07017 0.19622 0.0
H859 H 0.4624 0.98471 0.24493 0.0
H860 H 0.4499 0.94802 0.23136 0.0
H861 H 0.42419 0.98204 0.23081 0.0
H862 H 0.42009 0.97748 0.18373 0.0
H863 H 0.44583 0.94362 0.1841 0.0
H864 H 0.45557 0.9774 0.16563 0.0
H865 H 0.56306 0.02212 0.19727 0.0
H866 H 0.58825 0.96924 0.19464 0.0
H867 H 0.49673 0.92548 0.20301 0.0
C868 C 0.43961 0.04086 0.20061 0.0
C869 C 0.44563 0.07318 0.19631 0.0
C870 C 0.47721 0.08372 0.19531 0.0
C871 C 0.50237 0.0622 0.19777 0.0
C872 C 0.49552 0.03032 0.20138 0.0
C873 C 0.46483 0.01981 0.20294 0.0
C874 C 0.4634 0.98421 0.2049 0.0
C875 C 0.44914 0.97417 0.22947 0.0
C876 C 0.44516 0.96985 0.18331 0.0
C877 C 0.49804 0.97614 0.20357 0.0
C878 C 0.51634 0.00296 0.20182 0.0
C879 C 0.54895 0.00101 0.19896 0.0
C880 C 0.56306 0.97089 0.19748 0.0
C881 C 0.54449 0.94322 0.19866 0.0
C882 C 0.51167 0.94611 0.20219 0.0
H883 H 0.56641 0.54736 0.65501 0.0
H884 H 0.5602 0.56768 0.73253 0.0
H885 H 0.51392 0.53262 0.73562 0.0
H886 H 0.48079 0.53989 0.6433 0.0
H887 H 0.48706 0.50797 0.62197 0.0
H888 H 0.51643 0.53823 0.62544 0.0
H889 H 0.55842 0.49525 0.63482 0.0
H890 H 0.52924 0.46495 0.63154 0.0
H891 H 0.55165 0.46779 0.65937 0.0
H892 H 0.47166 0.49025 0.73073 0.0
H893 H 0.43854 0.44486 0.71842 0.0
H894 H 0.47391 0.45272 0.6444 0.0
C895 C 0.55493 0.54514 0.67257 0.0
C896 C 0.56692 0.56044 0.69351 0.0
C897 C 0.55136 0.5564 0.71618 0.0
C898 C 0.52502 0.53652 0.7181 0.0
C899 C 0.51442 0.52104 0.69717 0.0
C900 C 0.52885 0.52538 0.67481 0.0
C901 C 0.51492 0.50414 0.65544 0.0
C902 C 0.49884 0.52373 0.63535 0.0
C903 C 0.54005 0.48171 0.64468 0.0
C904 C 0.49103 0.48637 0.6705 0.0
C905 C 0.49064 0.49666 0.69445 0.0
C906 C 0.47152 0.48234 0.71194 0.0
C907 C 0.45276 0.45659 0.7048 0.0
C908 C 0.45359 0.44525 0.68045 0.0
C909 C 0.4726 0.46085 0.66313 0.0
H910 H 0.08049 0.49502 0.16573 0.0
H911 H 0.03732 0.41589 0.20298 0.0
H912 H 0.98895 0.44816 0.20946 0.0
H913 H 0.04912 0.55573 0.20442 0.0
H914 H 0.04437 0.58334 0.17967 0.0
H915 H 0.07494 0.55374 0.17833 0.0
H916 H 0.05321 0.53387 0.13683 0.0
H917 H 0.02262 0.56342 0.13802 0.0
H918 H 0.01252 0.52232 0.1346 0.0
H919 H 0.9446 0.49051 0.21093 0.0
H920 H 0.90986 0.53773 0.20735 0.0
H921 H 0.9846 0.58725 0.16958 0.0
C922 C 0.06093 0.48427 0.17524 0.0
C923 C 0.06262 0.45289 0.18377 0.0
C924 C 0.03648 0.43994 0.19627 0.0
C925 C 0.00897 0.45809 0.20002 0.0
C926 C 0.0082 0.48909 0.19129 0.0
C927 C 0.03367 0.50195 0.17922 0.0
C928 C 0.02749 0.53562 0.17154 0.0
C929 C 0.05033 0.55845 0.18425 0.0
C930 C 0.02904 0.53898 0.14359 0.0
C931 C 0.99434 0.53984 0.18089 0.0
C932 C 0.98341 0.51294 0.1923 0.0
C933 C 0.95305 0.51168 0.20207 0.0
C934 C 0.9335 0.53857 0.19998 0.0
C935 C 0.9445 0.56618 0.18819 0.0
C936 C 0.97537 0.5666 0.17871 0.0
H937 H 0.92562 0.96697 0.6917 0.0
H938 H 0.98415 0.90596 0.64664 0.0
H939 H 0.02855 0.94298 0.65168 0.0
H940 H 0.95076 0.03729 0.66686 0.0
H941 H 0.94943 0.05957 0.69492 0.0
H942 H 0.92412 0.02606 0.69092 0.0
H943 H 0.9465 0.00082 0.73038 0.0
H944 H 0.9719 0.03438 0.73455 0.0
H945 H 0.98839 0.99506 0.73341 0.0
H946 H 0.06481 0.98963 0.65823 0.0
H947 H 0.08879 0.04216 0.66447 0.0
H948 H 0.00575 0.07256 0.70451 0.0
C949 C 0.94798 0.96091 0.68338 0.0
C950 C 0.95144 0.9334 0.66891 0.0
C951 C 0.98096 0.92678 0.65792 0.0
C952 C 0.00635 0.94764 0.66074 0.0
C953 C 0.00187 0.97496 0.67466 0.0
C954 C 0.9734 0.98153 0.68585 0.0
C955 C 0.97356 0.01376 0.6979 0.0
C956 C 0.94796 0.03543 0.68699 0.0
C957 C 0.96988 0.01081 0.72571 0.0
C958 C 0.00623 0.02479 0.69112 0.0
C959 C 0.02245 0.00192 0.67807 0.0
C960 C 0.05246 0.00753 0.6687 0.0
C961 C 0.06591 0.03745 0.67236 0.0
C962 C 0.0492 0.0615 0.68503 0.0
C963 C 0.01927 0.05467 0.6949 0.0
H964 H 0.51525 0.57766 0.42237 0.0
H965 H 0.5689 0.54591 0.35941 0.0
H966 H 0.53292 0.50025 0.35487 0.0
H967 H 0.49702 0.5002 0.44682 0.0
H968 H 0.45817 0.51233 0.45637 0.0
H969 H 0.48956 0.54074 0.45535 0.0
H970 H 0.45603 0.57647 0.42693 0.0
H971 H 0.42458 0.54821 0.42784 0.0
H972 H 0.44068 0.56033 0.39891 0.0
H973 H 0.48836 0.45922 0.35651 0.0
H974 H 0.43968 0.42832 0.36357 0.0
H975 H 0.4168 0.48884 0.42517 0.0
C976 C 0.51978 0.561 0.40773 0.0
C977 C 0.54493 0.56531 0.39127 0.0
C978 C 0.54979 0.54299 0.3723 0.0
C979 C 0.52951 0.517 0.36961 0.0
C980 C 0.50466 0.51372 0.3861 0.0
C981 C 0.49989 0.5352 0.4048 0.0
C982 C 0.47085 0.52762 0.4195 0.0
C983 C 0.47943 0.51975 0.44608 0.0
C984 C 0.44661 0.55476 0.4182 0.0
C985 C 0.45957 0.49872 0.40599 0.0
C986 C 0.47937 0.49073 0.38689 0.0
C987 C 0.47285 0.46521 0.37152 0.0
C988 C 0.44522 0.44777 0.37568 0.0
C989 C 0.42445 0.4562 0.39489 0.0
C990 C 0.43212 0.48176 0.41031 0.0
H991 H -0.00075 0.43409 0.86209 0.0
H992 H 0.07599 0.46515 0.90834 0.0
H993 H 0.04929 0.51671 0.91401 0.0
H994 H 0.98184 0.51287 0.83396 0.0
H995 H 0.94011 0.50538 0.83395 0.0
H996 H 0.9676 0.47304 0.83056 0.0
H997 H 0.94213 0.44486 0.86754 0.0
H998 H 0.91473 0.47705 0.87109 0.0
H999 H 0.9393 0.46537 0.89635 0.0
H1000 H 0.01023 0.56144 0.91974 0.0
H1001 H 0.96323 0.5958 0.9239 0.0
H1002 H 0.91303 0.53603 0.8728 0.0
C1003 C 0.01089 0.45201 0.8729 0.0
C1004 C 0.03977 0.44557 0.88473 0.0
C1005 C 0.054 0.46958 0.89894 0.0
C1006 C 0.03899 0.49897 0.90226 0.0
C1007 C 0.01001 0.50417 0.89095 0.0
C1008 C 0.99634 0.48146 0.87627 0.0
C1009 C 0.96398 0.49177 0.86775 0.0
C1010 C 0.96336 0.49602 0.8399 0.0
C1011 C 0.93856 0.46838 0.8762 0.0
C1012 C 0.96095 0.52323 0.88076 0.0
C1013 C 0.98785 0.5302 0.89385 0.0
C1014 C 0.98934 0.55658 0.90912 0.0
C1015 C 0.96249 0.57594 0.91141 0.0
C1016 C 0.93453 0.56885 0.89848 0.0
C1017 C 0.93421 0.54256 0.88252 0.0
H1018 H 0.9688 0.92718 0.42689 0.0
H1019 H 0.91391 0.95165 0.36284 0.0
H1020 H 0.94733 0.99887 0.3566 0.0
H1021 H 0.98368 0.00759 0.44823 0.0
H1022 H 0.02304 0.99773 0.45798 0.0
H1023 H 0.99277 0.96808 0.45841 0.0
H1024 H 0.02753 0.93157 0.43135 0.0
H1025 H 0.05781 0.96108 0.43077 0.0
H1026 H 0.04198 0.94608 0.40254 0.0
H1027 H 0.99024 0.04158 0.35608 0.0
H1028 H 0.03803 0.07446 0.36111 0.0
H1029 H 0.06344 0.02015 0.42531 0.0
C1030 C 0.96337 0.94265 0.41172 0.0
C1031 C 0.93867 0.93577 0.39539 0.0
C1032 C 0.93263 0.95657 0.37567 0.0
C1033 C 0.95148 0.98343 0.372 0.0
C1034 C 0.97609 0.98913 0.38829 0.0
C1035 C 0.98186 0.96928 0.40781 0.0
C1036 C 0.01069 0.97914 0.42193 0.0
C1037 C 0.00201 0.98871 0.44819 0.0
C1038 C 0.03598 0.95292 0.42161 0.0
C1039 C 0.02074 0.00738 0.40711 0.0
C1040 C 0.00047 0.01312 0.38788 0.0
C1041 C 0.00605 0.03742 0.37123 0.0
C1042 C 0.03321 0.05598 0.37422 0.0
C1043 C 0.05445 0.04987 0.39359 0.0
C1044 C 0.0477 0.02552 0.41032 0.0
H1045 H 0.56953 0.96919 0.86591 0.0
H1046 H 0.513 0.90956 0.91283 0.0
H1047 H 0.46848 0.94709 0.90888 0.0
H1048 H 0.54683 0.03925 0.89168 0.0
H1049 H 0.54667 0.06198 0.86389 0.0
H1050 H 0.57167 0.02776 0.86644 0.0
H1051 H 0.54632 0.00371 0.82766 0.0
H1052 H 0.52127 0.03806 0.82489 0.0
H1053 H 0.50419 0.99919 0.8262 0.0
H1054 H 0.43265 0.99452 0.90413 0.0
H1055 H 0.40959 0.04803 0.90012 0.0
H1056 H 0.49037 0.07693 0.85725 0.0
C1057 C 0.54747 0.96344 0.87472 0.0
C1058 C 0.54467 0.93624 0.88949 0.0
C1059 C 0.51564 0.93011 0.90126 0.0
C1060 C 0.49018 0.95126 0.89907 0.0
C1061 C 0.4941 0.97841 0.885 0.0
C1062 C 0.52202 0.98444 0.87293 0.0
C1063 C 0.52163 0.01688 0.86131 0.0
C1064 C 0.54826 0.03768 0.87145 0.0
C1065 C 0.52345 0.01429 0.83335 0.0
C1066 C 0.48962 0.02869 0.86948 0.0
C1067 C 0.47378 0.00597 0.8827 0.0
C1068 C 0.44464 0.0123 0.89347 0.0
C1069 C 0.43171 0.04279 0.8911 0.0
C1070 C 0.44812 0.0667 0.87833 0.0
C1071 C 0.47709 0.05915 0.86696 0.0
loop_
_geom_bond_atom_site_label_1
_geom_bond_atom_site_label_2
_geom_bond_distance
_geom_bond_site_symmetry_2
_ccdc_geom_bond_type
Mg0 O7 2.141 . S
Mg0 O8 2.048 . S
Mg0 O9 2.048 . S
Mg0 O12 2.141 . S
C1 O2 1.313 . S
C1 O8 1.195 . S
O2 C1 1.313 . S
C3 O4 1.245 . S
C3 O12 1.289 . S
O4 C3 1.245 . S
C5 O6 1.245 . S
C5 O7 1.289 . S
O6 C5 1.245 . S
O7 Mg0 2.141 . S
O7 C5 1.289 . S
O8 Mg0 2.048 . S
O8 C1 1.195 . S
O9 Mg0 2.048 . S
O9 C10 1.195 . S
C10 O9 1.195 . S
C10 O11 1.313 . S
O11 C10 1.313 . S
O12 Mg0 2.141 . S
O12 C3 1.289 . S
Mg13 O20 2.141 . S
Mg13 O21 2.048 . S
Mg13 O22 2.048 . S
Mg13 O25 2.141 . S
C14 O15 1.313 . S
C14 O21 1.195 . S
O15 C14 1.313 . S
C16 O17 1.245 . S
C16 O25 1.289 . S
O17 C16 1.245 . S
C18 O19 1.245 . S
C18 O20 1.289 . S
O19 C18 1.245 . S
O20 Mg13 2.141 . S
O20 C18 1.289 . S
O21 Mg13 2.048 . S
O21 C14 1.195 . S
O22 Mg13 2.048 . S
O22 C23 1.195 . S
C23 O22 1.195 . S
C23 O24 1.313 . S
O24 C23 1.313 . S
O25 Mg13 2.141 . S
O25 C16 1.289 . S
Mg26 O33 2.141 . S
Mg26 O34 2.048 . S
Mg26 O35 2.048 . S
Mg26 O38 2.141 . S
C27 O28 1.313 . S
C27 O34 1.195 . S
O28 C27 1.313 . S
C29 O30 1.245 . S
C29 O38 1.289 . S
O30 C29 1.245 . S
C31 O32 1.245 . S
C31 O33 1.289 . S
O32 C31 1.245 . S
O33 Mg26 2.141 . S
O33 C31 1.289 . S
O34 Mg26 2.048 . S
O34 C27 1.195 . S
O35 Mg26 2.048 . S
O35 C36 1.195 . S
C36 O35 1.195 . S
C36 O37 1.313 . S
O37 C36 1.313 . S
O38 Mg26 2.141 . S
O38 C29 1.289 . S
Mg39 O46 2.141 . S
Mg39 O47 2.048 . S
Mg39 O48 2.048 . S
Mg39 O51 2.141 . S
C40 O41 1.313 . S
C40 O47 1.195 . S
O41 C40 1.313 . S
C42 O43 1.245 . S
C42 O51 1.289 . S
O43 C42 1.245 . S
C44 O45 1.245 . S
C44 O46 1.289 . S
O45 C44 1.245 . S
O46 Mg39 2.141 . S
O46 C44 1.289 . S
O47 Mg39 2.048 . S
O47 C40 1.195 . S
O48 Mg39 2.048 . S
O48 C49 1.195 . S
C49 O48 1.195 . S
C49 O50 1.313 . S
O50 C49 1.313 . S
O51 Mg39 2.141 . S
O51 C42 1.289 . S
Mg52 O59 2.141 . S
Mg52 O60 2.048 . S
Mg52 O61 2.048 . S
Mg52 O64 2.141 . S
C53 O54 1.313 . S
C53 O60 1.195 . S
O54 C53 1.313 . S
C55 O56 1.245 . S
C55 O64 1.289 . S
O56 C55 1.245 . S
C57 O58 1.245 . S
C57 O59 1.289 . S
O58 C57 1.245 . S
O59 Mg52 2.141 . S
O59 C57 1.289 . S
O60 Mg52 2.048 . S
O60 C53 1.195 . S
O61 Mg52 2.048 . S
O61 C62 1.195 . S
C62 O61 1.195 . S
C62 O63 1.313 . S
O63 C62 1.313 . S
O64 Mg52 2.141 . S
O64 C55 1.289 . S
Mg65 O72 2.141 . S
Mg65 O73 2.048 . S
Mg65 O74 2.048 . S
Mg65 O77 2.141 . S
C66 O67 1.313 . S
C66 O73 1.195 . S
O67 C66 1.313 . S
C68 O69 1.245 . S
C68 O77 1.289 . S
O69 C68 1.245 . S
C70 O71 1.245 . S
C70 O72 1.289 . S
O71 C70 1.245 . S
O72 Mg65 2.141 . S
O72 C70 1.289 . S
O73 Mg65 2.048 . S
O73 C66 1.195 . S
O74 Mg65 2.048 . S
O74 C75 1.195 . S
C75 O74 1.195 . S
C75 O76 1.313 . S
O76 C75 1.313 . S
O77 Mg65 2.141 . S
O77 C68 1.289 . S
Mg78 O85 2.141 . S
Mg78 O86 2.048 . S
Mg78 O87 2.048 . S
Mg78 O90 2.141 . S
C79 O80 1.313 . S
C79 O86 1.195 . S
O80 C79 1.313 . S
C81 O82 1.245 . S
C81 O90 1.289 . S
O82 C81 1.245 . S
C83 O84 1.245 . S
C83 O85 1.289 . S
O84 C83 1.245 . S
O85 Mg78 2.141 . S
O85 C83 1.289 . S
O86 Mg78 2.048 . S
O86 C79 1.195 . S
O87 Mg78 2.048 . S
O87 C88 1.195 . S
C88 O87 1.195 . S
C88 O89 1.313 . S
O89 C88 1.313 . S
O90 Mg78 2.141 . S
O90 C81 1.289 . S
Mg91 O98 2.141 . S
Mg91 O99 2.048 . S
Mg91 O100 2.048 . S
Mg91 O103 2.141 . S
C92 O93 1.313 . S
C92 O99 1.195 . S
O93 C92 1.313 . S
C94 O95 1.245 . S
C94 O103 1.289 . S
O95 C94 1.245 . S
C96 O97 1.245 . S
C96 O98 1.289 . S
O97 C96 1.245 . S
O98 Mg91 2.141 . S
O98 C96 1.289 . S
O99 Mg91 2.048 . S
O99 C92 1.195 . S
O100 Mg91 2.048 . S
O100 C101 1.195 . S
C101 O100 1.195 . S
C101 O102 1.313 . S
O102 C101 1.313 . S
O103 Mg91 2.141 . S
O103 C94 1.289 . S
Mg104 O111 2.141 . S
Mg104 O112 2.048 . S
Mg104 O113 2.048 . S
Mg104 O116 2.141 . S
C105 O106 1.313 . S
C105 O112 1.195 . S
O106 C105 1.313 . S
C107 O108 1.245 . S
C107 O116 1.289 . S
O108 C107 1.245 . S
C109 O110 1.245 . S
C109 O111 1.289 . S
O110 C109 1.245 . S
O111 Mg104 2.141 . S
O111 C109 1.289 . S
O112 Mg104 2.048 . S
O112 C105 1.195 . S
O113 Mg104 2.048 . S
O113 C114 1.195 . S
C114 O113 1.195 . S
C114 O115 1.313 . S
O115 C114 1.313 . S
O116 Mg104 2.141 . S
O116 C107 1.289 . S
Mg117 O124 2.141 . S
Mg117 O125 2.048 . S
Mg117 O126 2.048 . S
Mg117 O129 2.141 . S
C118 O119 1.313 . S
C118 O125 1.195 . S
O119 C118 1.313 . S
C120 O121 1.245 . S
C120 O129 1.289 . S
O121 C120 1.245 . S
C122 O123 1.245 . S
C122 O124 1.289 . S
O123 C122 1.245 . S
O124 Mg117 2.141 . S
O124 C122 1.289 . S
O125 Mg117 2.048 . S
O125 C118 1.195 . S
O126 Mg117 2.048 . S
O126 C127 1.195 . S
C127 O126 1.195 . S
C127 O128 1.313 . S
O128 C127 1.313 . S
O129 Mg117 2.141 . S
O129 C120 1.289 . S
Mg130 O137 2.141 . S
Mg130 O138 2.048 . S
Mg130 O139 2.048 . S
Mg130 O142 2.141 . S
C131 O132 1.313 . S
C131 O138 1.195 . S
O132 C131 1.313 . S
C133 O134 1.245 . S
C133 O142 1.289 . S
O134 C133 1.245 . S
C135 O136 1.245 . S
C135 O137 1.289 . S
O136 C135 1.245 . S
O137 Mg130 2.141 . S
O137 C135 1.289 . S
O138 Mg130 2.048 . S
O138 C131 1.195 . S
O139 Mg130 2.048 . S
O139 C140 1.195 . S
C140 O139 1.195 . S
C140 O141 1.313 . S
O141 C140 1.313 . S
O142 Mg130 2.141 . S
O142 C133 1.289 . S
Mg143 O150 2.141 . S
Mg143 O151 2.048 . S
Mg143 O152 2.048 . S
Mg143 O155 2.141 . S
C144 O145 1.313 . S
C144 O151 1.195 . S
O145 C144 1.313 . S
C146 O147 1.245 . S
C146 O155 1.289 . S
O147 C146 1.245 . S
C148 O149 1.245 . S
C148 O150 1.289 . S
O149 C148 1.245 . S
O150 Mg143 2.141 . S
O150 C148 1.289 . S
O151 Mg143 2.048 . S
O151 C144 1.195 . S
O152 Mg143 2.048 . S
O152 C153 1.195 . S
C153 O152 1.195 . S
C153 O154 1.313 . S
O154 C153 1.313 . S
O155 Mg143 2.141 . S
O155 C146 1.289 . S
Mg156 O163 2.141 . S
Mg156 O164 2.048 . S
Mg156 O165 2.048 . S
Mg156 O168 2.141 . S
C157 O158 1.313 . S
C157 O164 1.195 . S
O158 C157 1.313 . S
C159 O160 1.245 . S
C159 O168 1.289 . S
O160 C159 1.245 . S
C161 O162 1.245 . S
C161 O163 1.289 . S
O162 C161 1.245 . S
O163 Mg156 2.141 . S
O163 C161 1.289 . S
O164 Mg156 2.048 . S
O164 C157 1.195 . S
O165 Mg156 2.048 . S
O165 C166 1.195 . S
C166 O165 1.195 . S
C166 O167 1.313 . S
O167 C166 1.313 . S
O168 Mg156 2.141 . S
O168 C159 1.289 . S
Mg169 O176 2.141 . S
Mg169 O177 2.048 . S
Mg169 O178 2.048 . S
Mg169 O181 2.141 . S
C170 O171 1.313 . S
C170 O177 1.195 . S
O171 C170 1.313 . S
C172 O173 1.245 . S
C172 O181 1.289 . S
O173 C172 1.245 . S
C174 O175 1.245 . S
C174 O176 1.289 . S
O175 C174 1.245 . S
O176 Mg169 2.141 . S
O176 C174 1.289 . S
O177 Mg169 2.048 . S
O177 C170 1.195 . S
O178 Mg169 2.048 . S
O178 C179 1.195 . S
C179 O178 1.195 . S
C179 O180 1.313 . S
O180 C179 1.313 . S
O181 Mg169 2.141 . S
O181 C172 1.289 . S
Mg182 O189 2.141 . S
Mg182 O190 2.048 . S
Mg182 O191 2.048 . S
Mg182 O194 2.141 . S
C183 O184 1.313 . S
C183 O190 1.195 . S
O184 C183 1.313 . S
C185 O186 1.245 . S
C185 O194 1.289 . S
O186 C185 1.245 . S
C187 O188 1.245 . S
C187 O189 1.289 . S
O188 C187 1.245 . S
O189 Mg182 2.141 . S
O189 C187 1.289 . S
O190 Mg182 2.048 . S
O190 C183 1.195 . S
O191 Mg182 2.048 . S
O191 C192 1.195 . S
C192 O191 1.195 . S
C192 O193 1.313 . S
O193 C192 1.313 . S
O194 Mg182 2.141 . S
O194 C185 1.289 . S
Mg195 O202 2.141 . S
Mg195 O203 2.048 . S
Mg195 O204 2.048 . S
Mg195 O207 2.141 . S
C196 O197 1.313 . S
C196 O203 1.195 . S
O197 C196 1.313 . S
C198 O199 1.245 . S
C198 O207 1.289 . S
O199 C198 1.245 . S
C200 O201 1.245 . S
C200 O202 1.289 . S
O201 C200 1.245 . S
O202 Mg195 2.141 . S
O202 C200 1.289 . S
O203 Mg195 2.048 . S
O203 C196 1.195 . S
O204 Mg195 2.048 . S
O204 C205 1.195 . S
C205 O204 1.195 . S
C205 O206 1.313 . S
O206 C205 1.313 . S
O207 Mg195 2.141 . S
O207 C198 1.289 . S
H208 C220 0.930 . S
H209 C222 0.930 . S
H210 C223 0.930 1_554 S
H211 C227 0.959 . S
H212 C227 0.959 . S
H213 C227 0.961 . S
H214 C228 0.960 . S
H215 C228 0.961 . S
H216 C228 0.959 . S
H217 C231 0.929 . S
H218 C232 0.931 . S
H219 C234 0.930 . S
C220 H208 0.930 . S
C220 C221 1.399 . S
C220 C225 1.399 . S
C221 C220 1.399 . S
C221 C222 1.376 . S
C222 H209 0.930 . S
C222 C221 1.376 . S
C222 C223 1.388 . S
C223 H210 0.930 1_556 S
C223 C222 1.388 . S
C223 C224 1.390 . S
C224 C223 1.390 . S
C224 C225 1.394 . S
C224 C230 1.465 1_556 S
C225 C220 1.399 . S
C225 C224 1.394 . S
C225 C226 1.516 . S
C226 C225 1.516 . S
C226 C227 1.502 . S
C226 C228 1.561 . S
C226 C229 1.526 1_556 S
C227 H211 0.959 . S
C227 H212 0.959 . S
C227 H213 0.961 . S
C227 C226 1.502 . S
C228 H214 0.960 . S
C228 H215 0.961 . S
C228 H216 0.959 . S
C228 C226 1.561 . S
C229 C226 1.526 1_554 S
C229 C230 1.396 . S
C229 C234 1.390 . S
C230 C224 1.465 1_554 S
C230 C229 1.396 . S
C230 C231 1.399 . S
C231 H217 0.929 . S
C231 C230 1.399 . S
C231 C232 1.385 . S
C232 H218 0.931 . S
C232 C231 1.385 . S
C232 C233 1.389 . S
C233 C232 1.389 . S
C233 C234 1.387 . S
C234 H219 0.930 . S
C234 C229 1.390 . S
C234 C233 1.387 . S
H235 C247 0.930 . S
H236 C249 0.930 . S
H237 C250 0.930 . S
H238 C254 0.959 . S
H239 C254 0.959 . S
H240 C254 0.961 . S
H241 C255 0.960 . S
H242 C255 0.961 . S
H243 C255 0.959 . S
H244 C258 0.929 . S
H245 C259 0.931 . S
H246 C261 0.930 . S
C247 H235 0.930 . S
C247 C248 1.399 . S
C247 C252 1.399 . S
C248 C247 1.399 . S
C248 C249 1.376 . S
C249 H236 0.930 . S
C249 C248 1.376 . S
C249 C250 1.388 . S
C250 H237 0.930 . S
C250 C249 1.388 . S
C250 C251 1.390 . S
C251 C250 1.390 . S
C251 C252 1.394 . S
C251 C257 1.465 . S
C252 C247 1.399 . S
C252 C251 1.394 . S
C252 C253 1.516 . S
C253 C252 1.516 . S
C253 C254 1.502 . S
C253 C255 1.561 . S
C253 C256 1.526 . S
C254 H238 0.959 . S
C254 H239 0.959 . S
C254 H240 0.961 . S
C254 C253 1.502 . S
C255 H241 0.960 . S
C255 H242 0.961 . S
C255 H243 0.959 . S
C255 C253 1.561 . S
C256 C253 1.526 . S
C256 C257 1.396 . S
C256 C261 1.390 . S
C257 C251 1.465 . S
C257 C256 1.396 . S
C257 C258 1.399 . S
C258 H244 0.929 . S
C258 C257 1.399 . S
C258 C259 1.385 . S
C259 H245 0.931 . S
C259 C258 1.385 . S
C259 C260 1.389 . S
C260 C259 1.389 . S
C260 C261 1.387 . S
C261 H246 0.930 . S
C261 C256 1.390 . S
C261 C260 1.387 . S
H262 C274 0.930 . S
H263 C276 0.930 . S
H264 C277 0.930 . S
H265 C281 0.959 . S
H266 C281 0.959 . S
H267 C281 0.961 . S
H268 C282 0.960 . S
H269 C282 0.961 . S
H270 C282 0.948 1_554 S
H271 C285 0.929 . S
H272 C286 0.931 . S
H273 C288 0.930 . S
C274 H262 0.930 . S
C274 C275 1.399 . S
C274 C279 1.399 . S
C275 C274 1.399 . S
C275 C276 1.376 . S
C276 H263 0.930 . S
C276 C275 1.376 . S
C276 C277 1.388 . S
C277 H264 0.930 . S
C277 C276 1.388 . S
C277 C278 1.390 . S
C278 C277 1.390 . S
C278 C279 1.394 . S
C278 C284 1.465 1_556 S
C279 C274 1.399 . S
C279 C278 1.394 . S
C279 C280 1.516 . S
C280 C279 1.516 . S
C280 C281 1.502 . S
C280 C282 1.561 . S
C280 C283 1.526 1_556 S
C281 H265 0.959 . S
C281 H266 0.959 . S
C281 H267 0.961 . S
C281 C280 1.502 . S
C282 H268 0.960 . S
C282 H269 0.961 . S
C282 H270 0.948 1_556 S
C282 C280 1.561 . S
C283 C280 1.526 1_554 S
C283 C284 1.396 . S
C283 C288 1.390 . S
C284 C278 1.465 1_554 S
C284 C283 1.396 . S
C284 C285 1.399 . S
C285 H271 0.929 . S
C285 C284 1.399 . S
C285 C286 1.385 . S
C286 H272 0.931 . S
C286 C285 1.385 . S
C286 C287 1.389 . S
C287 C286 1.389 . S
C287 C288 1.387 . S
C288 H273 0.930 . S
C288 C283 1.390 . S
C288 C287 1.387 . S
H289 C301 0.930 . S
H290 C303 0.930 . S
H291 C304 0.930 . S
H292 C308 0.959 . S
H293 C308 0.959 . S
H294 C308 0.961 . S
H295 C309 0.960 . S
H296 C309 0.961 . S
H297 C309 0.959 . S
H298 C312 0.929 . S
H299 C313 0.931 . S
H300 C315 0.930 . S
C301 H289 0.930 . S
C301 C302 1.399 . S
C301 C306 1.399 . S
C302 C301 1.399 . S
C302 C303 1.376 . S
C303 H290 0.930 . S
C303 C302 1.376 . S
C303 C304 1.388 . S
C304 H291 0.930 . S
C304 C303 1.388 . S
C304 C305 1.390 . S
C305 C304 1.390 . S
C305 C306 1.394 . S
C305 C311 1.465 . S
C306 C301 1.399 . S
C306 C305 1.394 . S
C306 C307 1.516 . S
C307 C306 1.516 . S
C307 C308 1.502 . S
C307 C309 1.561 . S
C307 C310 1.526 . S
C308 H292 0.959 . S
C308 H293 0.959 . S
C308 H294 0.961 . S
C308 C307 1.502 . S
C309 H295 0.960 . S
C309 H296 0.961 . S
C309 H297 0.959 . S
C309 C307 1.561 . S
C310 C307 1.526 . S
C310 C311 1.396 . S
C310 C315 1.390 . S
C311 C305 1.465 . S
C311 C310 1.396 . S
C311 C312 1.399 . S
C312 H298 0.929 . S
C312 C311 1.399 . S
C312 C313 1.385 . S
C313 H299 0.931 . S
C313 C312 1.385 . S
C313 C314 1.389 . S
C314 C313 1.389 . S
C314 C315 1.387 . S
C315 H300 0.930 . S
C315 C310 1.390 . S
C315 C314 1.387 . S
H316 C328 0.930 . S
H317 C330 0.930 . S
H318 C331 0.930 . S
H319 C335 0.959 . S
H320 C335 0.959 . S
H321 C335 0.961 . S
H322 C336 0.960 . S
H323 C336 0.961 1_556 S
H324 C336 0.959 1_556 S
H325 C339 0.929 . S
H326 C340 0.931 . S
H327 C342 0.930 . S
C328 H316 0.930 . S
C328 C329 1.399 . S
C328 C333 1.399 . S
C329 C328 1.399 . S
C329 C330 1.376 . S
C330 H317 0.930 . S
C330 C329 1.376 . S
C330 C331 1.388 . S
C331 H318 0.930 . S
C331 C330 1.388 . S
C331 C332 1.390 . S
C332 C331 1.390 . S
C332 C333 1.394 . S
C332 C338 1.465 1_554 S
C333 C328 1.399 . S
C333 C332 1.394 . S
C333 C334 1.516 . S
C334 C333 1.516 . S
C334 C335 1.502 . S
C334 C336 1.561 . S
C334 C337 1.526 1_554 S
C335 H319 0.959 . S
C335 H320 0.959 . S
C335 H321 0.961 . S
C335 C334 1.502 . S
C336 H322 0.960 . S
C336 H323 0.961 1_554 S
C336 H324 0.959 1_554 S
C336 C334 1.561 . S
C337 C334 1.526 1_556 S
C337 C338 1.396 . S
C337 C342 1.390 . S
C338 C332 1.465 1_556 S
C338 C337 1.396 . S
C338 C339 1.399 . S
C339 H325 0.929 . S
C339 C338 1.399 . S
C339 C340 1.385 . S
C340 H326 0.931 . S
C340 C339 1.385 . S
C340 C341 1.389 . S
C341 C340 1.389 . S
C341 C342 1.387 . S
C342 H327 0.930 . S
C342 C337 1.390 . S
C342 C341 1.387 . S
H343 C355 0.930 . S
H344 C357 0.930 . S
H345 C358 0.930 . S
H346 C362 0.959 . S
H347 C362 0.959 . S
H348 C362 0.961 . S
H349 C363 0.960 . S
H350 C363 0.961 . S
H351 C363 0.959 . S
H352 C366 0.929 . S
H353 C367 0.931 . S
H354 C369 0.930 . S
C355 H343 0.930 . S
C355 C356 1.399 . S
C355 C360 1.399 . S
C356 C355 1.399 . S
C356 C357 1.376 . S
C357 H344 0.930 . S
C357 C356 1.376 . S
C357 C358 1.388 . S
C358 H345 0.930 . S
C358 C357 1.388 . S
C358 C359 1.390 . S
C359 C358 1.390 . S
C359 C360 1.394 . S
C359 C365 1.465 . S
C360 C355 1.399 . S
C360 C359 1.394 . S
C360 C361 1.516 . S
C361 C360 1.516 . S
C361 C362 1.502 . S
C361 C363 1.561 . S
C361 C364 1.526 . S
C362 H346 0.959 . S
C362 H347 0.959 . S
C362 H348 0.961 . S
C362 C361 1.502 . S
C363 H349 0.960 . S
C363 H350 0.961 . S
C363 H351 0.959 . S
C363 C361 1.561 . S
C364 C361 1.526 . S
C364 C365 1.396 . S
C364 C369 1.390 . S
C365 C359 1.465 . S
C365 C364 1.396 . S
C365 C366 1.399 . S
C366 H352 0.929 . S
C366 C365 1.399 . S
C366 C367 1.385 . S
C367 H353 0.931 . S
C367 C366 1.385 . S
C367 C368 1.389 . S
C368 C367 1.389 . S
C368 C369 1.387 . S
C369 H354 0.930 . S
C369 C364 1.390 . S
C369 C368 1.387 . S
H370 C382 0.930 . S
H371 C384 0.930 . S
H372 C385 0.930 . S
H373 C389 0.959 . S
H374 C389 0.959 . S
H375 C389 0.961 . S
H376 C390 0.960 1_556 S
H377 C390 0.961 . S
H378 C390 0.959 . S
H379 C393 0.929 . S
H380 C394 0.931 . S
H381 C396 0.930 . S
C382 H370 0.930 . S
C382 C383 1.399 . S
C382 C387 1.399 . S
C383 C382 1.399 . S
C383 C384 1.376 . S
C384 H371 0.930 . S
C384 C383 1.376 . S
C384 C385 1.388 . S
C385 H372 0.930 . S
C385 C384 1.388 . S
C385 C386 1.390 . S
C386 C385 1.390 . S
C386 C387 1.394 . S
C386 C392 1.465 1_556 S
C387 C382 1.399 . S
C387 C386 1.394 . S
C387 C388 1.516 . S
C388 C387 1.516 . S
C388 C389 1.502 . S
C388 C390 1.561 1_556 S
C388 C391 1.526 1_556 S
C389 H373 0.959 . S
C389 H374 0.959 . S
C389 H375 0.961 . S
C389 C388 1.502 . S
C390 H376 0.960 1_554 S
C390 H377 0.961 . S
C390 H378 0.959 . S
C390 C388 1.561 1_554 S
C391 C388 1.526 1_554 S
C391 C392 1.396 . S
C391 C396 1.390 . S
C392 C386 1.465 1_554 S
C392 C391 1.396 . S
C392 C393 1.399 . S
C393 H379 0.929 . S
C393 C392 1.399 . S
C393 C394 1.385 . S
C394 H380 0.931 . S
C394 C393 1.385 . S
C394 C395 1.389 . S
C395 C394 1.389 . S
C395 C396 1.387 . S
C396 H381 0.930 . S
C396 C391 1.390 . S
C396 C395 1.387 . S
H397 C409 0.930 . S
H398 C411 0.930 . S
H399 C412 0.930 . S
H400 C416 0.959 . S
H401 C416 0.959 . S
H402 C416 0.961 . S
H403 C417 0.960 . S
H404 C417 0.961 . S
H405 C417 0.959 . S
H406 C420 0.929 . S
H407 C421 0.931 . S
H408 C423 0.930 . S
C409 H397 0.930 . S
C409 C410 1.399 . S
C409 C414 1.399 . S
C410 C409 1.399 . S
C410 C411 1.376 . S
C411 H398 0.930 . S
C411 C410 1.376 . S
C411 C412 1.388 . S
C412 H399 0.930 . S
C412 C411 1.388 . S
C412 C413 1.390 . S
C413 C412 1.390 . S
C413 C414 1.394 . S
C413 C419 1.465 . S
C414 C409 1.399 . S
C414 C413 1.394 . S
C414 C415 1.516 . S
C415 C414 1.516 . S
C415 C416 1.502 . S
C415 C417 1.561 . S
C415 C418 1.526 . S
C416 H400 0.959 . S
C416 H401 0.959 . S
C416 H402 0.961 . S
C416 C415 1.502 . S
C417 H403 0.960 . S
C417 H404 0.961 . S
C417 H405 0.959 . S
C417 C415 1.561 . S
C418 C415 1.526 . S
C418 C419 1.396 . S
C418 C423 1.390 . S
C419 C413 1.465 . S
C419 C418 1.396 . S
C419 C420 1.399 . S
C420 H406 0.929 . S
C420 C419 1.399 . S
C420 C421 1.385 . S
C421 H407 0.931 . S
C421 C420 1.385 . S
C421 C422 1.389 . S
C422 C421 1.389 . S
C422 C423 1.387 . S
C423 H408 0.930 . S
C423 C418 1.390 . S
C423 C422 1.387 . S
H424 C436 0.930 . S
H425 C438 0.930 . S
H426 C439 0.930 . S
H427 C443 0.959 . S
H428 C443 0.959 . S
H429 C443 0.961 . S
H430 C444 0.960 . S
H431 C444 0.961 . S
H432 C444 0.959 . S
H433 C447 0.929 . S
H434 C448 0.931 . S
H435 C450 0.930 . S
C436 H424 0.930 . S
C436 C437 1.399 . S
C436 C441 1.399 . S
C437 C436 1.399 . S
C437 C438 1.376 . S
C438 H425 0.930 . S
C438 C437 1.376 . S
C438 C439 1.388 . S
C439 H426 0.930 . S
C439 C438 1.388 . S
C439 C440 1.390 . S
C440 C439 1.390 . S
C440 C441 1.394 . S
C440 C446 1.465 . S
C441 C436 1.399 . S
C441 C440 1.394 . S
C441 C442 1.516 . S
C442 C441 1.516 . S
C442 C443 1.502 . S
C442 C444 1.561 . S
C442 C445 1.526 . S
C443 H427 0.959 . S
C443 H428 0.959 . S
C443 H429 0.961 . S
C443 C442 1.502 . S
C444 H430 0.960 . S
C444 H431 0.961 . S
C444 H432 0.959 . S
C444 C442 1.561 . S
C445 C442 1.526 . S
C445 C446 1.396 . S
C445 C450 1.390 . S
C446 C440 1.465 . S
C446 C445 1.396 . S
C446 C447 1.399 . S
C447 H433 0.929 . S
C447 C446 1.399 . S
C447 C448 1.385 . S
C448 H434 0.931 . S
C448 C447 1.385 . S
C448 C449 1.389 . S
C449 C448 1.389 . S
C449 C450 1.387 . S
C450 H435 0.930 . S
C450 C445 1.390 . S
C450 C449 1.387 . S
H451 C463 0.930 . S
H452 C465 0.930 . S
H453 C466 0.930 . S
H454 C470 0.959 . S
H455 C470 0.959 . S
H456 C470 0.961 . S
H457 C471 0.960 . S
H458 C471 0.961 . S
H459 C471 0.959 . S
H460 C474 0.929 . S
H461 C475 0.931 . S
H462 C477 0.930 . S
C463 H451 0.930 . S
C463 C464 1.399 . S
C463 C468 1.399 . S
C464 C463 1.399 . S
C464 C465 1.376 . S
C465 H452 0.930 . S
C465 C464 1.376 . S
C465 C466 1.388 . S
C466 H453 0.930 . S
C466 C465 1.388 . S
C466 C467 1.390 . S
C467 C466 1.390 . S
C467 C468 1.394 . S
C467 C473 1.465 . S
C468 C463 1.399 . S
C468 C467 1.394 . S
C468 C469 1.516 . S
C469 C468 1.516 . S
C469 C470 1.502 . S
C469 C471 1.561 . S
C469 C472 1.526 . S
C470 H454 0.959 . S
C470 H455 0.959 . S
C470 H456 0.961 . S
C470 C469 1.502 . S
C471 H457 0.960 . S
C471 H458 0.961 . S
C471 H459 0.959 . S
C471 C469 1.561 . S
C472 C469 1.526 . S
C472 C473 1.396 . S
C472 C477 1.390 . S
C473 C467 1.465 . S
C473 C472 1.396 . S
C473 C474 1.399 . S
C474 H460 0.929 . S
C474 C473 1.399 . S
C474 C475 1.385 . S
C475 H461 0.931 . S
C475 C474 1.385 . S
C475 C476 1.389 . S
C476 C475 1.389 . S
C476 C477 1.387 . S
C477 H462 0.930 . S
C477 C472 1.390 . S
C477 C476 1.387 . S
H478 C490 0.930 . S
H479 C492 0.930 . S
H480 C493 0.930 . S
H481 C497 0.959 . S
H482 C497 0.959 . S
H483 C497 0.961 . S
H484 C498 0.960 . S
H485 C498 0.961 . S
H486 C498 0.959 . S
H487 C501 0.929 . S
H488 C502 0.931 . S
H489 C504 0.930 . S
C490 H478 0.930 . S
C490 C491 1.399 . S
C490 C495 1.399 . S
C491 C490 1.399 . S
C491 C492 1.376 . S
C492 H479 0.930 . S
C492 C491 1.376 . S
C492 C493 1.388 . S
C493 H480 0.930 . S
C493 C492 1.388 . S
C493 C494 1.390 . S
C494 C493 1.390 . S
C494 C495 1.394 . S
C494 C500 1.465 . S
C495 C490 1.399 . S
C495 C494 1.394 . S
C495 C496 1.516 . S
C496 C495 1.516 . S
C496 C497 1.502 . S
C496 C498 1.561 . S
C496 C499 1.526 . S
C497 H481 0.959 . S
C497 H482 0.959 . S
C497 H483 0.961 . S
C497 C496 1.502 . S
C498 H484 0.960 . S
C498 H485 0.961 . S
C498 H486 0.959 . S
C498 C496 1.561 . S
C499 C496 1.526 . S
C499 C500 1.396 . S
C499 C504 1.390 . S
C500 C494 1.465 . S
C500 C499 1.396 . S
C500 C501 1.399 . S
C501 H487 0.929 . S
C501 C500 1.399 . S
C501 C502 1.385 . S
C502 H488 0.931 . S
C502 C501 1.385 . S
C502 C503 1.389 . S
C503 C502 1.389 . S
C503 C504 1.387 . S
C504 H489 0.930 . S
C504 C499 1.390 . S
C504 C503 1.387 . S
H505 C517 0.930 . S
H506 C519 0.930 . S
H507 C520 0.930 . S
H508 C524 0.959 . S
H509 C524 0.959 . S
H510 C524 0.961 . S
H511 C525 0.960 . S
H512 C525 0.961 . S
H513 C525 0.959 . S
H514 C528 0.929 . S
H515 C529 0.931 . S
H516 C531 0.930 . S
C517 H505 0.930 . S
C517 C518 1.399 . S
C517 C522 1.399 . S
C518 C517 1.399 . S
C518 C519 1.376 . S
C519 H506 0.930 . S
C519 C518 1.376 . S
C519 C520 1.388 . S
C520 H507 0.930 . S
C520 C519 1.388 . S
C520 C521 1.390 . S
C521 C520 1.390 . S
C521 C522 1.394 . S
C521 C527 1.465 . S
C522 C517 1.399 . S
C522 C521 1.394 . S
C522 C523 1.516 . S
C523 C522 1.516 . S
C523 C524 1.502 . S
C523 C525 1.561 . S
C523 C526 1.526 . S
C524 H508 0.959 . S
C524 H509 0.959 . S
C524 H510 0.961 . S
C524 C523 1.502 . S
C525 H511 0.960 . S
C525 H512 0.961 . S
C525 H513 0.959 . S
C525 C523 1.561 . S
C526 C523 1.526 . S
C526 C527 1.396 . S
C526 C531 1.390 . S
C527 C521 1.465 . S
C527 C526 1.396 . S
C527 C528 1.399 . S
C528 H514 0.929 . S
C528 C527 1.399 . S
C528 C529 1.385 . S
C529 H515 0.931 . S
C529 C528 1.385 . S
C529 C530 1.389 . S
C530 C529 1.389 . S
C530 C531 1.387 . S
C531 H516 0.930 . S
C531 C526 1.390 . S
C531 C530 1.387 . S
H532 C544 0.930 . S
H533 C546 0.930 . S
H534 C547 0.930 . S
H535 C551 0.959 . S
H536 C551 0.959 . S
H537 C551 0.961 . S
H538 C552 0.960 . S
H539 C552 0.961 . S
H540 C552 0.959 . S
H541 C555 0.929 . S
H542 C556 0.931 . S
H543 C558 0.930 . S
C544 H532 0.930 . S
C544 C545 1.399 . S
C544 C549 1.399 . S
C545 C544 1.399 . S
C545 C546 1.376 . S
C546 H533 0.930 . S
C546 C545 1.376 . S
C546 C547 1.388 . S
C547 H534 0.930 . S
C547 C546 1.388 . S
C547 C548 1.390 . S
C548 C547 1.390 . S
C548 C549 1.394 . S
C548 C554 1.465 . S
C549 C544 1.399 . S
C549 C548 1.394 . S
C549 C550 1.516 . S
C550 C549 1.516 . S
C550 C551 1.502 . S
C550 C552 1.561 . S
C550 C553 1.526 . S
C551 H535 0.959 . S
C551 H536 0.959 . S
C551 H537 0.961 . S
C551 C550 1.502 . S
C552 H538 0.960 . S
C552 H539 0.961 . S
C552 H540 0.959 . S
C552 C550 1.561 . S
C553 C550 1.526 . S
C553 C554 1.396 . S
C553 C558 1.390 . S
C554 C548 1.465 . S
C554 C553 1.396 . S
C554 C555 1.399 . S
C555 H541 0.929 . S
C555 C554 1.399 . S
C555 C556 1.385 . S
C556 H542 0.931 . S
C556 C555 1.385 . S
C556 C557 1.389 . S
C557 C556 1.389 . S
C557 C558 1.387 . S
C558 H543 0.930 . S
C558 C553 1.390 . S
C558 C557 1.387 . S
H559 C571 0.930 . S
H560 C573 0.930 . S
H561 C574 0.930 . S
H562 C578 0.959 . S
H563 C578 0.959 . S
H564 C578 0.961 . S
H565 C579 0.960 . S
H566 C579 0.961 . S
H567 C579 0.959 . S
H568 C582 0.929 . S
H569 C583 0.931 . S
H570 C585 0.930 . S
C571 H559 0.930 . S
C571 C572 1.399 . S
C571 C576 1.399 . S
C572 C571 1.399 . S
C572 C573 1.376 . S
C573 H560 0.930 . S
C573 C572 1.376 . S
C573 C574 1.388 . S
C574 H561 0.930 . S
C574 C573 1.388 . S
C574 C575 1.390 . S
C575 C574 1.390 . S
C575 C576 1.394 . S
C575 C581 1.465 . S
C576 C571 1.399 . S
C576 C575 1.394 . S
C576 C577 1.516 . S
C577 C576 1.516 . S
C577 C578 1.502 . S
C577 C579 1.561 . S
C577 C580 1.526 . S
C578 H562 0.959 . S
C578 H563 0.959 . S
C578 H564 0.961 . S
C578 C577 1.502 . S
C579 H565 0.960 . S
C579 H566 0.961 . S
C579 H567 0.959 . S
C579 C577 1.561 . S
C580 C577 1.526 . S
C580 C581 1.396 . S
C580 C585 1.390 . S
C581 C575 1.465 . S
C581 C580 1.396 . S
C581 C582 1.399 . S
C582 H568 0.929 . S
C582 C581 1.399 . S
C582 C583 1.385 . S
C583 H569 0.931 . S
C583 C582 1.385 . S
C583 C584 1.389 . S
C584 C583 1.389 . S
C584 C585 1.387 . S
C585 H570 0.930 . S
C585 C580 1.390 . S
C585 C584 1.387 . S
H586 C598 0.930 . S
H587 C600 0.930 . S
H588 C601 0.930 . S
H589 C605 0.959 . S
H590 C605 0.959 . S
H591 C605 0.961 . S
H592 C606 0.960 . S
H593 C606 0.961 . S
H594 C606 0.959 . S
H595 C609 0.929 . S
H596 C610 0.931 . S
H597 C612 0.930 . S
C598 H586 0.930 . S
C598 C599 1.399 . S
C598 C603 1.399 . S
C599 C598 1.399 . S
C599 C600 1.376 . S
C600 H587 0.930 . S
C600 C599 1.376 . S
C600 C601 1.388 . S
C601 H588 0.930 . S
C601 C600 1.388 . S
C601 C602 1.390 . S
C602 C601 1.390 . S
C602 C603 1.394 . S
C602 C608 1.465 . S
C603 C598 1.399 . S
C603 C602 1.394 . S
C603 C604 1.516 . S
C604 C603 1.516 . S
C604 C605 1.502 . S
C604 C606 1.561 . S
C604 C607 1.526 . S
C605 H589 0.959 . S
C605 H590 0.959 . S
C605 H591 0.961 . S
C605 C604 1.502 . S
C606 H592 0.960 . S
C606 H593 0.961 . S
C606 H594 0.959 . S
C606 C604 1.561 . S
C607 C604 1.526 . S
C607 C608 1.396 . S
C607 C612 1.390 . S
C608 C602 1.465 . S
C608 C607 1.396 . S
C608 C609 1.399 . S
C609 H595 0.929 . S
C609 C608 1.399 . S
C609 C610 1.385 . S
C610 H596 0.931 . S
C610 C609 1.385 . S
C610 C611 1.389 . S
C611 C610 1.389 . S
C611 C612 1.387 . S
C612 H597 0.930 . S
C612 C607 1.390 . S
C612 C611 1.387 . S
H613 C625 0.930 . S
H614 C627 0.930 . S
H615 C628 0.930 . S
H616 C632 0.959 . S
H617 C632 0.959 . S
H618 C632 0.961 . S
H619 C633 0.960 . S
H620 C633 0.961 . S
H621 C633 0.959 . S
H622 C636 0.929 . S
H623 C637 0.931 . S
H624 C639 0.930 . S
C625 H613 0.930 . S
C625 C626 1.399 . S
C625 C630 1.399 . S
C626 C625 1.399 . S
C626 C627 1.376 . S
C627 H614 0.930 . S
C627 C626 1.376 . S
C627 C628 1.388 . S
C628 H615 0.930 . S
C628 C627 1.388 . S
C628 C629 1.390 . S
C629 C628 1.390 . S
C629 C630 1.394 . S
C629 C635 1.465 . S
C630 C625 1.399 . S
C630 C629 1.394 . S
C630 C631 1.516 . S
C631 C630 1.516 . S
C631 C632 1.502 . S
C631 C633 1.561 . S
C631 C634 1.526 . S
C632 H616 0.959 . S
C632 H617 0.959 . S
C632 H618 0.961 . S
C632 C631 1.502 . S
C633 H619 0.960 . S
C633 H620 0.961 . S
C633 H621 0.959 . S
C633 C631 1.561 . S
C634 C631 1.526 . S
C634 C635 1.396 . S
C634 C639 1.390 . S
C635 C629 1.465 . S
C635 C634 1.396 . S
C635 C636 1.399 . S
C636 H622 0.929 . S
C636 C635 1.399 . S
C636 C637 1.385 . S
C637 H623 0.931 . S
C637 C636 1.385 . S
C637 C638 1.389 . S
C638 C637 1.389 . S
C638 C639 1.387 . S
C639 H624 0.930 . S
C639 C634 1.390 . S
C639 C638 1.387 . S
H640 C652 0.930 . S
H641 C654 0.930 . S
H642 C655 0.930 . S
H643 C659 0.959 . S
H644 C659 0.959 1_565 S
H645 C659 0.969 . S
H646 C660 0.960 1_565 S
H647 C660 0.961 1_565 S
H648 C660 0.959 . S
H649 C663 0.929 . S
H650 C664 0.931 . S
H651 C666 0.930 . S
C652 H640 0.930 . S
C652 C653 1.399 . S
C652 C657 1.399 . S
C653 C652 1.399 . S
C653 C654 1.376 . S
C654 H641 0.930 . S
C654 C653 1.376 . S
C654 C655 1.388 . S
C655 H642 0.930 . S
C655 C654 1.388 . S
C655 C656 1.390 . S
C656 C655 1.390 . S
C656 C657 1.394 . S
C656 C662 1.465 . S
C657 C652 1.399 . S
C657 C656 1.394 . S
C657 C658 1.516 . S
C658 C657 1.516 . S
C658 C659 1.502 . S
C658 C660 1.561 . S
C658 C661 1.526 . S
C659 H643 0.959 . S
C659 H644 0.959 1_545 S
C659 H645 0.969 . S
C659 C658 1.502 . S
C660 H646 0.960 1_545 S
C660 H647 0.961 1_545 S
C660 H648 0.959 . S
C660 C658 1.561 . S
C661 C658 1.526 . S
C661 C662 1.396 . S
C661 C666 1.390 . S
C662 C656 1.465 . S
C662 C661 1.396 . S
C662 C663 1.399 . S
C663 H649 0.929 . S
C663 C662 1.399 . S
C663 C664 1.385 . S
C664 H650 0.931 . S
C664 C663 1.385 . S
C664 C665 1.389 . S
C665 C664 1.389 . S
C665 C666 1.387 . S
C666 H651 0.930 . S
C666 C661 1.390 . S
C666 C665 1.387 . S
H667 C679 0.930 . S
H668 C681 0.930 . S
H669 C682 0.930 . S
H670 C686 0.959 . S
H671 C686 0.959 . S
H672 C686 0.961 . S
H673 C687 0.960 . S
H674 C687 0.961 . S
H675 C687 0.959 . S
H676 C690 0.929 . S
H677 C691 0.931 . S
H678 C693 0.930 . S
C679 H667 0.930 . S
C679 C680 1.399 . S
C679 C684 1.399 . S
C680 C679 1.399 . S
C680 C681 1.376 . S
C681 H668 0.930 . S
C681 C680 1.376 . S
C681 C682 1.388 . S
C682 H669 0.930 . S
C682 C681 1.388 . S
C682 C683 1.390 . S
C683 C682 1.390 . S
C683 C684 1.394 . S
C683 C689 1.465 . S
C684 C679 1.399 . S
C684 C683 1.394 . S
C684 C685 1.516 . S
C685 C684 1.516 . S
C685 C686 1.502 . S
C685 C687 1.561 . S
C685 C688 1.526 . S
C686 H670 0.959 . S
C686 H671 0.959 . S
C686 H672 0.961 . S
C686 C685 1.502 . S
C687 H673 0.960 . S
C687 H674 0.961 . S
C687 H675 0.959 . S
C687 C685 1.561 . S
C688 C685 1.526 . S
C688 C689 1.396 . S
C688 C693 1.390 . S
C689 C683 1.465 . S
C689 C688 1.396 . S
C689 C690 1.399 . S
C690 H676 0.929 . S
C690 C689 1.399 . S
C690 C691 1.385 . S
C691 H677 0.931 . S
C691 C690 1.385 . S
C691 C692 1.389 . S
C692 C691 1.389 . S
C692 C693 1.387 . S
C693 H678 0.930 . S
C693 C688 1.390 . S
C693 C692 1.387 . S
H694 C706 0.930 . S
H695 C708 0.930 . S
H696 C709 0.930 . S
H697 C713 0.959 . S
H698 C713 0.959 . S
H699 C713 0.961 . S
H700 C714 0.960 . S
H701 C714 0.961 . S
H702 C714 0.959 . S
H703 C717 0.929 . S
H704 C718 0.931 . S
H705 C720 0.930 . S
C706 H694 0.930 . S
C706 C707 1.399 . S
C706 C711 1.399 . S
C707 C706 1.399 . S
C707 C708 1.376 . S
C708 H695 0.930 . S
C708 C707 1.376 . S
C708 C709 1.388 . S
C709 H696 0.930 . S
C709 C708 1.388 . S
C709 C710 1.390 . S
C710 C709 1.390 . S
C710 C711 1.394 . S
C710 C716 1.465 . S
C711 C706 1.399 . S
C711 C710 1.394 . S
C711 C712 1.516 . S
C712 C711 1.516 . S
C712 C713 1.502 . S
C712 C714 1.561 . S
C712 C715 1.526 . S
C713 H697 0.959 . S
C713 H698 0.959 . S
C713 H699 0.961 . S
C713 C712 1.502 . S
C714 H700 0.960 . S
C714 H701 0.961 . S
C714 H702 0.959 . S
C714 C712 1.561 . S
C715 C712 1.526 . S
C715 C716 1.396 . S
C715 C720 1.390 . S
C716 C710 1.465 . S
C716 C715 1.396 . S
C716 C717 1.399 . S
C717 H703 0.929 . S
C717 C716 1.399 . S
C717 C718 1.385 . S
C718 H704 0.931 . S
C718 C717 1.385 . S
C718 C719 1.389 . S
C719 C718 1.389 . S
C719 C720 1.387 . S
C720 H705 0.930 . S
C720 C715 1.390 . S
C720 C719 1.387 . S
H721 C733 0.930 . S
H722 C735 0.930 . S
H723 C736 0.930 . S
H724 C740 0.959 . S
H725 C740 0.959 . S
H726 C740 0.961 . S
H727 C741 0.960 . S
H728 C741 0.961 . S
H729 C741 0.959 . S
H730 C744 0.929 . S
H731 C745 0.931 . S
H732 C747 0.930 . S
C733 H721 0.930 . S
C733 C734 1.399 . S
C733 C738 1.399 . S
C734 C733 1.399 . S
C734 C735 1.376 . S
C735 H722 0.930 . S
C735 C734 1.376 . S
C735 C736 1.388 . S
C736 H723 0.930 . S
C736 C735 1.388 . S
C736 C737 1.390 . S
C737 C736 1.390 . S
C737 C738 1.394 . S
C737 C743 1.465 . S
C738 C733 1.399 . S
C738 C737 1.394 . S
C738 C739 1.516 . S
C739 C738 1.516 . S
C739 C740 1.502 . S
C739 C741 1.561 . S
C739 C742 1.526 . S
C740 H724 0.959 . S
C740 H725 0.959 . S
C740 H726 0.961 . S
C740 C739 1.502 . S
C741 H727 0.960 . S
C741 H728 0.961 . S
C741 H729 0.959 . S
C741 C739 1.561 . S
C742 C739 1.526 . S
C742 C743 1.396 . S
C742 C747 1.390 . S
C743 C737 1.465 . S
C743 C742 1.396 . S
C743 C744 1.399 . S
C744 H730 0.929 . S
C744 C743 1.399 . S
C744 C745 1.385 . S
C745 H731 0.931 . S
C745 C744 1.385 . S
C745 C746 1.389 . S
C746 C745 1.389 . S
C746 C747 1.387 . S
C747 H732 0.930 . S
C747 C742 1.390 . S
C747 C746 1.387 . S
H748 C760 0.930 . S
H749 C762 0.930 . S
H750 C763 0.930 . S
H751 C767 0.959 . S
H752 C767 0.959 . S
H753 C767 0.961 . S
H754 C768 0.960 . S
H755 C768 0.961 . S
H756 C768 0.959 . S
H757 C771 0.929 . S
H758 C772 0.931 . S
H759 C774 0.930 . S
C760 H748 0.930 . S
C760 C761 1.399 . S
C760 C765 1.399 . S
C761 C760 1.399 . S
C761 C762 1.376 . S
C762 H749 0.930 . S
C762 C761 1.376 . S
C762 C763 1.388 . S
C763 H750 0.930 . S
C763 C762 1.388 . S
C763 C764 1.390 . S
C764 C763 1.390 . S
C764 C765 1.394 . S
C764 C770 1.465 . S
C765 C760 1.399 . S
C765 C764 1.394 . S
C765 C766 1.516 . S
C766 C765 1.516 . S
C766 C767 1.502 . S
C766 C768 1.561 . S
C766 C769 1.526 . S
C767 H751 0.959 . S
C767 H752 0.959 . S
C767 H753 0.961 . S
C767 C766 1.502 . S
C768 H754 0.960 . S
C768 H755 0.961 . S
C768 H756 0.959 . S
C768 C766 1.561 . S
C769 C766 1.526 . S
C769 C770 1.396 . S
C769 C774 1.390 . S
C770 C764 1.465 . S
C770 C769 1.396 . S
C770 C771 1.399 . S
C771 H757 0.929 . S
C771 C770 1.399 . S
C771 C772 1.385 . S
C772 H758 0.931 . S
C772 C771 1.385 . S
C772 C773 1.389 . S
C773 C772 1.389 . S
C773 C774 1.387 . S
C774 H759 0.930 . S
C774 C769 1.390 . S
C774 C773 1.387 . S
H775 C787 0.930 . S
H776 C789 0.930 . S
H777 C790 0.930 . S
H778 C794 0.959 . S
H779 C794 0.959 . S
H780 C794 0.961 . S
H781 C795 0.960 . S
H782 C795 0.961 . S
H783 C795 0.959 . S
H784 C798 0.929 . S
H785 C799 0.931 . S
H786 C801 0.930 . S
C787 H775 0.930 . S
C787 C788 1.399 . S
C787 C792 1.399 . S
C788 C787 1.399 . S
C788 C789 1.376 . S
C789 H776 0.930 . S
C789 C788 1.376 . S
C789 C790 1.388 . S
C790 H777 0.930 . S
C790 C789 1.388 . S
C790 C791 1.390 . S
C791 C790 1.390 . S
C791 C792 1.394 . S
C791 C797 1.465 . S
C792 C787 1.399 . S
C792 C791 1.394 . S
C792 C793 1.516 . S
C793 C792 1.516 . S
C793 C794 1.502 . S
C793 C795 1.561 . S
C793 C796 1.526 . S
C794 H778 0.959 . S
C794 H779 0.959 . S
C794 H780 0.961 . S
C794 C793 1.502 . S
C795 H781 0.960 . S
C795 H782 0.961 . S
C795 H783 0.959 . S
C795 C793 1.561 . S
C796 C793 1.526 . S
C796 C797 1.396 . S
C796 C801 1.390 . S
C797 C791 1.465 . S
C797 C796 1.396 . S
C797 C798 1.399 . S
C798 H784 0.929 . S
C798 C797 1.399 . S
C798 C799 1.385 . S
C799 H785 0.931 . S
C799 C798 1.385 . S
C799 C800 1.389 . S
C800 C799 1.389 . S
C800 C801 1.387 . S
C801 H786 0.930 . S
C801 C796 1.390 . S
C801 C800 1.387 . S
H802 C814 0.930 . S
H803 C816 0.930 . S
H804 C817 0.930 . S
H805 C821 0.959 . S
H806 C821 0.959 . S
H807 C821 0.961 . S
H808 C822 0.960 . S
H809 C822 0.961 . S
H810 C822 0.959 . S
H811 C825 0.929 . S
H812 C826 0.931 . S
H813 C828 0.930 . S
C814 H802 0.930 . S
C814 C815 1.399 . S
C814 C819 1.399 . S
C815 C814 1.399 . S
C815 C816 1.376 . S
C816 H803 0.930 . S
C816 C815 1.376 . S
C816 C817 1.388 . S
C817 H804 0.930 . S
C817 C816 1.388 . S
C817 C818 1.390 . S
C818 C817 1.390 . S
C818 C819 1.394 . S
C818 C824 1.465 . S
C819 C814 1.399 . S
C819 C818 1.394 . S
C819 C820 1.516 . S
C820 C819 1.516 . S
C820 C821 1.502 . S
C820 C822 1.561 . S
C820 C823 1.526 . S
C821 H805 0.959 . S
C821 H806 0.959 . S
C821 H807 0.961 . S
C821 C820 1.502 . S
C822 H808 0.960 . S
C822 H809 0.961 . S
C822 H810 0.959 . S
C822 C820 1.561 . S
C823 C820 1.526 . S
C823 C824 1.396 . S
C823 C828 1.390 . S
C824 C818 1.465 . S
C824 C823 1.396 . S
C824 C825 1.399 . S
C825 H811 0.929 . S
C825 C824 1.399 . S
C825 C826 1.385 . S
C826 H812 0.931 . S
C826 C825 1.385 . S
C826 C827 1.389 . S
C827 C826 1.389 . S
C827 C828 1.387 . S
C828 H813 0.930 . S
C828 C823 1.390 . S
C828 C827 1.387 . S
H829 C841 0.930 . S
H830 C843 0.930 . S
H831 C844 0.930 . S
H832 C848 0.959 . S
H833 C848 0.959 . S
H834 C848 0.961 . S
H835 C849 0.960 . S
H836 C849 0.961 . S
H837 C849 0.959 . S
H838 C852 0.929 . S
H839 C853 0.931 . S
H840 C855 0.930 . S
C841 H829 0.930 . S
C841 C842 1.399 . S
C841 C846 1.399 . S
C842 C841 1.399 . S
C842 C843 1.376 . S
C843 H830 0.930 . S
C843 C842 1.376 . S
C843 C844 1.388 . S
C844 H831 0.930 . S
C844 C843 1.388 . S
C844 C845 1.390 . S
C845 C844 1.390 . S
C845 C846 1.394 . S
C845 C851 1.465 . S
C846 C841 1.399 . S
C846 C845 1.394 . S
C846 C847 1.516 . S
C847 C846 1.516 . S
C847 C848 1.502 . S
C847 C849 1.561 . S
C847 C850 1.526 . S
C848 H832 0.959 . S
C848 H833 0.959 . S
C848 H834 0.961 . S
C848 C847 1.502 . S
C849 H835 0.960 . S
C849 H836 0.961 . S
C849 H837 0.959 . S
C849 C847 1.561 . S
C850 C847 1.526 . S
C850 C851 1.396 . S
C850 C855 1.390 . S
C851 C845 1.465 . S
C851 C850 1.396 . S
C851 C852 1.399 . S
C852 H838 0.929 . S
C852 C851 1.399 . S
C852 C853 1.385 . S
C853 H839 0.931 . S
C853 C852 1.385 . S
C853 C854 1.389 . S
C854 C853 1.389 . S
C854 C855 1.387 . S
C855 H840 0.930 . S
C855 C850 1.390 . S
C855 C854 1.387 . S
H856 C868 0.930 . S
H857 C870 0.930 1_545 S
H858 C871 0.930 . S
H859 C875 0.959 . S
H860 C875 0.959 . S
H861 C875 0.961 . S
H862 C876 0.960 . S
H863 C876 0.961 . S
H864 C876 0.959 . S
H865 C879 0.929 . S
H866 C880 0.931 . S
H867 C882 0.930 . S
C868 H856 0.930 . S
C868 C869 1.399 . S
C868 C873 1.399 . S
C869 C868 1.399 . S
C869 C870 1.376 . S
C870 H857 0.930 1_565 S
C870 C869 1.376 . S
C870 C871 1.388 . S
C871 H858 0.930 . S
C871 C870 1.388 . S
C871 C872 1.390 . S
C872 C871 1.390 . S
C872 C873 1.394 . S
C872 C878 1.465 . S
C873 C868 1.399 . S
C873 C872 1.394 . S
C873 C874 1.516 . S
C874 C873 1.516 . S
C874 C875 1.502 . S
C874 C876 1.561 . S
C874 C877 1.526 . S
C875 H859 0.959 . S
C875 H860 0.959 . S
C875 H861 0.961 . S
C875 C874 1.502 . S
C876 H862 0.960 . S
C876 H863 0.961 . S
C876 H864 0.959 . S
C876 C874 1.561 . S
C877 C874 1.526 . S
C877 C878 1.396 . S
C877 C882 1.390 . S
C878 C872 1.465 . S
C878 C877 1.396 . S
C878 C879 1.399 . S
C879 H865 0.929 . S
C879 C878 1.399 . S
C879 C880 1.385 . S
C880 H866 0.931 . S
C880 C879 1.385 . S
C880 C881 1.389 . S
C881 C880 1.389 . S
C881 C882 1.387 . S
C882 H867 0.930 . S
C882 C877 1.390 . S
C882 C881 1.387 . S
H883 C895 0.930 . S
H884 C897 0.930 . S
H885 C898 0.930 . S
H886 C902 0.959 . S
H887 C902 0.959 . S
H888 C902 0.961 . S
H889 C903 0.960 . S
H890 C903 0.961 . S
H891 C903 0.959 . S
H892 C906 0.929 . S
H893 C907 0.931 . S
H894 C909 0.930 . S
C895 H883 0.930 . S
C895 C896 1.399 . S
C895 C900 1.399 . S
C896 C895 1.399 . S
C896 C897 1.376 . S
C897 H884 0.930 . S
C897 C896 1.376 . S
C897 C898 1.388 . S
C898 H885 0.930 . S
C898 C897 1.388 . S
C898 C899 1.390 . S
C899 C898 1.390 . S
C899 C900 1.394 . S
C899 C905 1.465 . S
C900 C895 1.399 . S
C900 C899 1.394 . S
C900 C901 1.516 . S
C901 C900 1.516 . S
C901 C902 1.502 . S
C901 C903 1.561 . S
C901 C904 1.526 . S
C902 H886 0.959 . S
C902 H887 0.959 . S
C902 H888 0.961 . S
C902 C901 1.502 . S
C903 H889 0.960 . S
C903 H890 0.961 . S
C903 H891 0.959 . S
C903 C901 1.561 . S
C904 C901 1.526 . S
C904 C905 1.396 . S
C904 C909 1.390 . S
C905 C899 1.465 . S
C905 C904 1.396 . S
C905 C906 1.399 . S
C906 H892 0.929 . S
C906 C905 1.399 . S
C906 C907 1.385 . S
C907 H893 0.931 . S
C907 C906 1.385 . S
C907 C908 1.389 . S
C908 C907 1.389 . S
C908 C909 1.387 . S
C909 H894 0.930 . S
C909 C904 1.390 . S
C909 C908 1.387 . S
H910 C922 0.930 . S
H911 C924 0.930 . S
H912 C925 0.930 . S
H913 C929 0.959 . S
H914 C929 0.959 . S
H915 C929 0.961 . S
H916 C930 0.960 . S
H917 C930 0.961 . S
H918 C930 0.959 . S
H919 C933 0.929 . S
H920 C934 0.931 . S
H921 C936 0.930 . S
C922 H910 0.930 . S
C922 C923 1.399 . S
C922 C927 1.399 . S
C923 C922 1.399 . S
C923 C924 1.376 . S
C924 H911 0.930 . S
C924 C923 1.376 . S
C924 C925 1.388 . S
C925 H912 0.930 . S
C925 C924 1.388 . S
C925 C926 1.390 . S
C926 C925 1.390 . S
C926 C927 1.394 . S
C926 C932 1.465 . S
C927 C922 1.399 . S
C927 C926 1.394 . S
C927 C928 1.516 . S
C928 C927 1.516 . S
C928 C929 1.502 . S
C928 C930 1.561 . S
C928 C931 1.526 . S
C929 H913 0.959 . S
C929 H914 0.959 . S
C929 H915 0.961 . S
C929 C928 1.502 . S
C930 H916 0.960 . S
C930 H917 0.961 . S
C930 H918 0.959 . S
C930 C928 1.561 . S
C931 C928 1.526 . S
C931 C932 1.396 . S
C931 C936 1.390 . S
C932 C926 1.465 . S
C932 C931 1.396 . S
C932 C933 1.399 . S
C933 H919 0.929 . S
C933 C932 1.399 . S
C933 C934 1.385 . S
C934 H920 0.931 . S
C934 C933 1.385 . S
C934 C935 1.389 . S
C935 C934 1.389 . S
C935 C936 1.387 . S
C936 H921 0.930 . S
C936 C931 1.390 . S
C936 C935 1.387 . S
H937 C949 0.930 . S
H938 C951 0.930 . S
H939 C952 0.930 . S
H940 C956 0.959 . S
H941 C956 0.959 . S
H942 C956 0.961 . S
H943 C957 0.960 . S
H944 C957 0.961 . S
H945 C957 0.959 . S
H946 C960 0.929 . S
H947 C961 0.931 . S
H948 C963 0.930 . S
C949 H937 0.930 . S
C949 C950 1.399 . S
C949 C954 1.399 . S
C950 C949 1.399 . S
C950 C951 1.376 . S
C951 H938 0.930 . S
C951 C950 1.376 . S
C951 C952 1.388 . S
C952 H939 0.930 . S
C952 C951 1.388 . S
C952 C953 1.390 . S
C953 C952 1.390 . S
C953 C954 1.394 . S
C953 C959 1.465 . S
C954 C949 1.399 . S
C954 C953 1.394 . S
C954 C955 1.516 . S
C955 C954 1.516 . S
C955 C956 1.502 . S
C955 C957 1.561 . S
C955 C958 1.526 . S
C956 H940 0.959 . S
C956 H941 0.959 . S
C956 H942 0.961 . S
C956 C955 1.502 . S
C957 H943 0.960 . S
C957 H944 0.961 . S
C957 H945 0.959 . S
C957 C955 1.561 . S
C958 C955 1.526 . S
C958 C959 1.396 . S
C958 C963 1.390 . S
C959 C953 1.465 . S
C959 C958 1.396 . S
C959 C960 1.399 . S
C960 H946 0.929 . S
C960 C959 1.399 . S
C960 C961 1.385 . S
C961 H947 0.931 . S
C961 C960 1.385 . S
C961 C962 1.389 . S
C962 C961 1.389 . S
C962 C963 1.387 . S
C963 H948 0.930 . S
C963 C958 1.390 . S
C963 C962 1.387 . S
H964 C976 0.930 . S
H965 C978 0.930 . S
H966 C979 0.930 . S
H967 C983 0.959 . S
H968 C983 0.959 . S
H969 C983 0.961 . S
H970 C984 0.960 . S
H971 C984 0.961 . S
H972 C984 0.959 . S
H973 C987 0.929 . S
H974 C988 0.931 . S
H975 C990 0.930 . S
C976 H964 0.930 . S
C976 C977 1.399 . S
C976 C981 1.399 . S
C977 C976 1.399 . S
C977 C978 1.376 . S
C978 H965 0.930 . S
C978 C977 1.376 . S
C978 C979 1.388 . S
C979 H966 0.930 . S
C979 C978 1.388 . S
C979 C980 1.390 . S
C980 C979 1.390 . S
C980 C981 1.394 . S
C980 C986 1.465 . S
C981 C976 1.399 . S
C981 C980 1.394 . S
C981 C982 1.516 . S
C982 C981 1.516 . S
C982 C983 1.502 . S
C982 C984 1.561 . S
C982 C985 1.526 . S
C983 H967 0.959 . S
C983 H968 0.959 . S
C983 H969 0.961 . S
C983 C982 1.502 . S
C984 H970 0.960 . S
C984 H971 0.961 . S
C984 H972 0.959 . S
C984 C982 1.561 . S
C985 C982 1.526 . S
C985 C986 1.396 . S
C985 C990 1.390 . S
C986 C980 1.465 . S
C986 C985 1.396 . S
C986 C987 1.399 . S
C987 H973 0.929 . S
C987 C986 1.399 . S
C987 C988 1.385 . S
C988 H974 0.931 . S
C988 C987 1.385 . S
C988 C989 1.389 . S
C989 C988 1.389 . S
C989 C990 1.387 . S
C990 H975 0.930 . S
C990 C985 1.390 . S
C990 C989 1.387 . S
H991 C1003 0.930 . S
H992 C1005 0.930 . S
H993 C1006 0.930 . S
H994 C1010 0.959 . S
H995 C1010 0.959 . S
H996 C1010 0.961 . S
H997 C1011 0.960 . S
H998 C1011 0.961 . S
H999 C1011 0.959 . S
H1000 C1014 0.929 . S
H1001 C1015 0.931 . S
H1002 C1017 0.930 . S
C1003 H991 0.930 . S
C1003 C1004 1.399 . S
C1003 C1008 1.399 . S
C1004 C1003 1.399 . S
C1004 C1005 1.376 . S
C1005 H992 0.930 . S
C1005 C1004 1.376 . S
C1005 C1006 1.388 . S
C1006 H993 0.930 . S
C1006 C1005 1.388 . S
C1006 C1007 1.390 . S
C1007 C1006 1.390 . S
C1007 C1008 1.394 . S
C1007 C1013 1.465 . S
C1008 C1003 1.399 . S
C1008 C1007 1.394 . S
C1008 C1009 1.516 . S
C1009 C1008 1.516 . S
C1009 C1010 1.502 . S
C1009 C1011 1.561 . S
C1009 C1012 1.526 . S
C1010 H994 0.959 . S
C1010 H995 0.959 . S
C1010 H996 0.961 . S
C1010 C1009 1.502 . S
C1011 H997 0.960 . S
C1011 H998 0.961 . S
C1011 H999 0.959 . S
C1011 C1009 1.561 . S
C1012 C1009 1.526 . S
C1012 C1013 1.396 . S
C1012 C1017 1.390 . S
C1013 C1007 1.465 . S
C1013 C1012 1.396 . S
C1013 C1014 1.399 . S
C1014 H1000 0.929 . S
C1014 C1013 1.399 . S
C1014 C1015 1.385 . S
C1015 H1001 0.931 . S
C1015 C1014 1.385 . S
C1015 C1016 1.389 . S
C1016 C1015 1.389 . S
C1016 C1017 1.387 . S
C1017 H1002 0.930 . S
C1017 C1012 1.390 . S
C1017 C1016 1.387 . S
H1018 C1030 0.930 . S
H1019 C1032 0.930 . S
H1020 C1033 0.930 . S
H1021 C1037 0.959 . S
H1022 C1037 0.959 . S
H1023 C1037 0.961 . S
H1024 C1038 0.960 . S
H1025 C1038 0.961 . S
H1026 C1038 0.959 . S
H1027 C1041 0.929 . S
H1028 C1042 0.931 . S
H1029 C1044 0.930 . S
C1030 H1018 0.930 . S
C1030 C1031 1.399 . S
C1030 C1035 1.399 . S
C1031 C1030 1.399 . S
C1031 C1032 1.376 . S
C1032 H1019 0.930 . S
C1032 C1031 1.376 . S
C1032 C1033 1.388 . S
C1033 H1020 0.930 . S
C1033 C1032 1.388 . S
C1033 C1034 1.390 . S
C1034 C1033 1.390 . S
C1034 C1035 1.394 . S
C1034 C1040 1.465 . S
C1035 C1030 1.399 . S
C1035 C1034 1.394 . S
C1035 C1036 1.516 . S
C1036 C1035 1.516 . S
C1036 C1037 1.502 . S
C1036 C1038 1.561 . S
C1036 C1039 1.526 . S
C1037 H1021 0.959 . S
C1037 H1022 0.959 . S
C1037 H1023 0.961 . S
C1037 C1036 1.502 . S
C1038 H1024 0.960 . S
C1038 H1025 0.961 . S
C1038 H1026 0.959 . S
C1038 C1036 1.561 . S
C1039 C1036 1.526 . S
C1039 C1040 1.396 . S
C1039 C1044 1.390 . S
C1040 C1034 1.465 . S
C1040 C1039 1.396 . S
C1040 C1041 1.399 . S
C1041 H1027 0.929 . S
C1041 C1040 1.399 . S
C1041 C1042 1.385 . S
C1042 H1028 0.931 . S
C1042 C1041 1.385 . S
C1042 C1043 1.389 . S
C1043 C1042 1.389 . S
C1043 C1044 1.387 . S
C1044 H1029 0.930 . S
C1044 C1039 1.390 . S
C1044 C1043 1.387 . S
H1045 C1057 0.930 . S
H1046 C1059 0.930 . S
H1047 C1060 0.930 . S
H1048 C1064 0.959 . S
H1049 C1064 0.959 . S
H1050 C1064 0.961 . S
H1051 C1065 0.960 . S
H1052 C1065 0.961 . S
H1053 C1065 0.959 . S
H1054 C1068 0.929 . S
H1055 C1069 0.931 . S
H1056 C1071 0.930 . S
C1057 H1045 0.930 . S
C1057 C1058 1.399 . S
C1057 C1062 1.399 . S
C1058 C1057 1.399 . S
C1058 C1059 1.376 . S
C1059 H1046 0.930 . S
C1059 C1058 1.376 . S
C1059 C1060 1.388 . S
C1060 H1047 0.930 . S
C1060 C1059 1.388 . S
C1060 C1061 1.390 . S
C1061 C1060 1.390 . S
C1061 C1062 1.394 . S
C1061 C1067 1.465 . S
C1062 C1057 1.399 . S
C1062 C1061 1.394 . S
C1062 C1063 1.516 . S
C1063 C1062 1.516 . S
C1063 C1064 1.502 . S
C1063 C1065 1.561 . S
C1063 C1066 1.526 . S
C1064 H1048 0.959 . S
C1064 H1049 0.959 . S
C1064 H1050 0.961 . S
C1064 C1063 1.502 . S
C1065 H1051 0.960 . S
C1065 H1052 0.961 . S
C1065 H1053 0.959 . S
C1065 C1063 1.561 . S
C1066 C1063 1.526 . S
C1066 C1067 1.396 . S
C1066 C1071 1.390 . S
C1067 C1061 1.465 . S
C1067 C1066 1.396 . S
C1067 C1068 1.399 . S
C1068 H1054 0.929 . S
C1068 C1067 1.399 . S
C1068 C1069 1.385 . S
C1069 H1055 0.931 . S
C1069 C1068 1.385 . S
C1069 C1070 1.389 . S
C1070 C1069 1.389 . S
C1070 C1071 1.387 . S
C1071 H1056 0.930 . S
C1071 C1066 1.390 . S
C1071 C1070 1.387 . S
C221 C92 1.597 . S
C233 C1 1.546 . S
C248 C53 1.587 . S
C260 C14 1.564 . S
C275 C66 1.594 . S
C287 C27 1.546 . S
C302 C40 1.597 . S
C314 C79 1.548 . S
C329 C205 1.598 . S
C341 C105 1.600 . S
C356 C157 1.595 . S
C368 C127 1.551 . S
C383 C131 1.602 . S
C395 C179 1.563 . S
C410 C153 1.557 . S
C422 C183 1.599 . S
C437 C36 1.529 . S
C449 C10 1.487 . S
C464 C23 1.527 . S
C476 C49 1.489 . S
C491 C62 1.474 . S
C503 C88 1.537 . S
C518 C101 1.527 . S
C530 C75 1.489 . S
C545 C114 1.546 . S
C557 C140 1.571 . S
C572 C118 1.539 . S
C584 C144 1.476 . S
C599 C192 1.552 . S
C611 C166 1.567 . S
C626 C170 1.463 . S
C638 C196 1.537 . S
C653 C81 1.545 . S
C665 C3 1.559 . S
C680 C16 1.570 . S
C692 C94 1.588 . S
C707 C29 1.545 . S
C719 C55 1.561 . S
C734 C42 1.580 . S
C746 C68 1.588 . S
C761 C107 1.590 . S
C773 C185 1.572 . S
C788 C122 1.545 . S
C800 C200 1.576 . S
C815 C133 1.590 . S
C827 C159 1.572 . S
C842 C148 1.545 . S
C854 C174 1.572 . S
C869 C5 1.596 1_565 S
C881 C198 1.600 . S
C896 C161 1.665 . S
C908 C18 1.648 . S
C923 C31 1.647 . S
C935 C172 1.641 1_455 S
C950 C187 1.663 1_545 S
C962 C44 1.629 1_655 S
C977 C120 1.625 . S
C989 C57 1.616 . S
C1004 C70 1.643 1_655 S
C1016 C135 1.663 . S
C1031 C146 1.641 1_455 S
C1043 C83 1.633 1_565 S
C1058 C109 1.662 1_545 S
C1070 C96 1.642 . S
