# Generated by pormake.
# Topology why, (6)-cn, num edge types: 1
# Building blocks:
#     Node 0, Type 0, BuildingBlock: BETDIP_clean_sbu_0, # of connection points: 6
#     Node 1, Type 0, BuildingBlock: BETDIP_clean_sbu_0, # of connection points: 6
#     Node 2, Type 0, BuildingBlock: BETDIP_clean_sbu_0, # of connection points: 6
#     Node 3, Type 0, BuildingBlock: BETDIP_clean_sbu_0, # of connection points: 6
#     Node 4, Type 0, BuildingBlock: BETDIP_clean_sbu_0, # of connection points: 6
#     Node 5, Type 0, BuildingBlock: BETDIP_clean_sbu_0, # of connection points: 6
#     Node 6, Type 0, BuildingBlock: BETDIP_clean_sbu_0, # of connection points: 6
#     Node 7, Type 0, BuildingBlock: BETDIP_clean_sbu_0, # of connection points: 6
#     Node 8, Type 0, BuildingBlock: BETDIP_clean_sbu_0, # of connection points: 6
#     Node 9, Type 0, BuildingBlock: BETDIP_clean_sbu_0, # of connection points: 6
#     Node 10, Type 0, BuildingBlock: BETDIP_clean_sbu_0, # of connection points: 6
#     Node 11, Type 0, BuildingBlock: BETDIP_clean_sbu_0, # of connection points: 6
#     Node 12, Type 0, BuildingBlock: BETDIP_clean_sbu_0, # of connection points: 6
#     Node 13, Type 0, BuildingBlock: BETDIP_clean_sbu_0, # of connection points: 6
#     Node 14, Type 0, BuildingBlock: BETDIP_clean_sbu_0, # of connection points: 6
#     Node 15, Type 0, BuildingBlock: BETDIP_clean_sbu_0, # of connection points: 6
#     Edge 16, Type (0, 0), BuildingBlock: CIFDUS_clean_linker_0, # of connection points: 2
#     Edge 17, Type (0, 0), BuildingBlock: CIFDUS_clean_linker_0, # of connection points: 2
#     Edge 18, Type (0, 0), BuildingBlock: CIFDUS_clean_linker_0, # of connection points: 2
#     Edge 19, Type (0, 0), BuildingBlock: CIFDUS_clean_linker_0, # of connection points: 2
#     Edge 20, Type (0, 0), BuildingBlock: CIFDUS_clean_linker_0, # of connection points: 2
#     Edge 21, Type (0, 0), BuildingBlock: CIFDUS_clean_linker_0, # of connection points: 2
#     Edge 22, Type (0, 0), BuildingBlock: CIFDUS_clean_linker_0, # of connection points: 2
#     Edge 23, Type (0, 0), BuildingBlock: CIFDUS_clean_linker_0, # of connection points: 2
#     Edge 24, Type (0, 0), BuildingBlock: CIFDUS_clean_linker_0, # of connection points: 2
#     Edge 25, Type (0, 0), BuildingBlock: CIFDUS_clean_linker_0, # of connection points: 2
#     Edge 26, Type (0, 0), BuildingBlock: CIFDUS_clean_linker_0, # of connection points: 2
#     Edge 27, Type (0, 0), BuildingBlock: CIFDUS_clean_linker_0, # of connection points: 2
#     Edge 28, Type (0, 0), BuildingBlock: CIFDUS_clean_linker_0, # of connection points: 2
#     Edge 29, Type (0, 0), BuildingBlock: CIFDUS_clean_linker_0, # of connection points: 2
#     Edge 30, Type (0, 0), BuildingBlock: CIFDUS_clean_linker_0, # of connection points: 2
#     Edge 31, Type (0, 0), BuildingBlock: CIFDUS_clean_linker_0, # of connection points: 2
#     Edge 32, Type (0, 0), BuildingBlock: CIFDUS_clean_linker_0, # of connection points: 2
#     Edge 33, Type (0, 0), BuildingBlock: CIFDUS_clean_linker_0, # of connection points: 2
#     Edge 34, Type (0, 0), BuildingBlock: CIFDUS_clean_linker_0, # of connection points: 2
#     Edge 35, Type (0, 0), BuildingBlock: CIFDUS_clean_linker_0, # of connection points: 2
#     Edge 36, Type (0, 0), BuildingBlock: CIFDUS_clean_linker_0, # of connection points: 2
#     Edge 37, Type (0, 0), BuildingBlock: CIFDUS_clean_linker_0, # of connection points: 2
#     Edge 38, Type (0, 0), BuildingBlock: CIFDUS_clean_linker_0, # of connection points: 2
#     Edge 39, Type (0, 0), BuildingBlock: CIFDUS_clean_linker_0, # of connection points: 2
#     Edge 40, Type (0, 0), BuildingBlock: CIFDUS_clean_linker_0, # of connection points: 2
#     Edge 41, Type (0, 0), BuildingBlock: CIFDUS_clean_linker_0, # of connection points: 2
#     Edge 42, Type (0, 0), BuildingBlock: CIFDUS_clean_linker_0, # of connection points: 2
#     Edge 43, Type (0, 0), BuildingBlock: CIFDUS_clean_linker_0, # of connection points: 2
#     Edge 44, Type (0, 0), BuildingBlock: CIFDUS_clean_linker_0, # of connection points: 2
#     Edge 45, Type (0, 0), BuildingBlock: CIFDUS_clean_linker_0, # of connection points: 2
#     Edge 46, Type (0, 0), BuildingBlock: CIFDUS_clean_linker_0, # of connection points: 2
#     Edge 47, Type (0, 0), BuildingBlock: CIFDUS_clean_linker_0, # of connection points: 2
#     Edge 48, Type (0, 0), BuildingBlock: CIFDUS_clean_linker_0, # of connection points: 2
#     Edge 49, Type (0, 0), BuildingBlock: CIFDUS_clean_linker_0, # of connection points: 2
#     Edge 50, Type (0, 0), BuildingBlock: CIFDUS_clean_linker_0, # of connection points: 2
#     Edge 51, Type (0, 0), BuildingBlock: CIFDUS_clean_linker_0, # of connection points: 2
#     Edge 52, Type (0, 0), BuildingBlock: CIFDUS_clean_linker_0, # of connection points: 2
#     Edge 53, Type (0, 0), BuildingBlock: CIFDUS_clean_linker_0, # of connection points: 2
#     Edge 54, Type (0, 0), BuildingBlock: CIFDUS_clean_linker_0, # of connection points: 2
#     Edge 55, Type (0, 0), BuildingBlock: CIFDUS_clean_linker_0, # of connection points: 2
#     Edge 56, Type (0, 0), BuildingBlock: CIFDUS_clean_linker_0, # of connection points: 2
#     Edge 57, Type (0, 0), BuildingBlock: CIFDUS_clean_linker_0, # of connection points: 2
#     Edge 58, Type (0, 0), BuildingBlock: CIFDUS_clean_linker_0, # of connection points: 2
#     Edge 59, Type (0, 0), BuildingBlock: CIFDUS_clean_linker_0, # of connection points: 2
#     Edge 60, Type (0, 0), BuildingBlock: CIFDUS_clean_linker_0, # of connection points: 2
#     Edge 61, Type (0, 0), BuildingBlock: CIFDUS_clean_linker_0, # of connection points: 2
#     Edge 62, Type (0, 0), BuildingBlock: CIFDUS_clean_linker_0, # of connection points: 2
#     Edge 63, Type (0, 0), BuildingBlock: CIFDUS_clean_linker_0, # of connection points: 2
# Relax obj value: 0.490
# Max RMSD: 0.248
# Mean RMSD: 0.248
data_MOF--net-why--node1-BETDIP_clean_sbu_0--edge1-CIFDUS_clean_linker_0
_symmetry_space_group_name_H-M    P1
_symmetry_Int_Tables_number       1
_symmetry_cell_setting            triclinic
loop_
_symmetry_equiv_pos_as_xyz
'x, y, z'
_cell_length_a     41.812373
_cell_length_b     41.438318
_cell_length_c     35.300609
_cell_angle_alpha  89.899811
_cell_angle_beta   89.93265
_cell_angle_gamma 90.049903
loop_
_atom_site_label
_atom_site_type_symbol
_atom_site_fract_x
_atom_site_fract_y
_atom_site_fract_z
_atom_type_partial_charge
Tb0 Tb 0.51843 0.25525 0.06299 0.0
Tb1 Tb 0.48288 0.29357 0.10841 0.0
C2 C 0.55749 0.22718 0.02001 0.0
C3 C 0.57117 0.2342 0.98264 0.0
C4 C 0.55233 0.24734 0.95351 0.0
C5 C 0.56541 0.25241 0.91761 0.0
C6 C 0.59757 0.24478 0.91052 0.0
C7 C 0.6166 0.23262 0.94004 0.0
C8 C 0.60343 0.22726 0.97583 0.0
C9 C 0.50122 0.22197 0.12746 0.0
C10 C 0.55554 0.31654 0.10069 0.0
C11 C 0.45155 0.31162 0.16493 0.0
C12 C 0.46397 0.32779 0.19885 0.0
C13 C 0.45016 0.32188 0.23424 0.0
C14 C 0.46224 0.33712 0.26645 0.0
C15 C 0.48865 0.35828 0.26385 0.0
C16 C 0.50334 0.36283 0.22848 0.0
C17 C 0.49094 0.34796 0.19628 0.0
C18 C 0.49977 0.32662 0.04856 0.0
C19 C 0.44458 0.26166 0.03674 0.0
O20 O 0.52692 0.22096 0.0208 0.0
O21 O 0.56617 0.24635 0.04742 0.0
O22 O 0.51134 0.25117 0.12467 0.0
O23 O 0.49978 0.21197 0.09307 0.0
O24 O 0.55497 0.29545 0.07216 0.0
O25 O 0.53029 0.31609 0.12382 0.0
O26 O 0.45323 0.32823 0.13355 0.0
O27 O 0.46121 0.2819 0.16042 0.0
O28 O 0.492 0.29716 0.04896 0.0
O29 O 0.49591 0.33914 0.08194 0.0
O30 O 0.44151 0.27519 0.07113 0.0
O31 O 0.47445 0.25428 0.02631 0.0
H32 H 0.52741 0.2532 0.95827 0.0
H33 H 0.55038 0.26207 0.89534 0.0
H34 H 0.6414 0.22631 0.93512 0.0
H35 H 0.6183 0.21725 0.99805 0.0
H36 H 0.42962 0.30607 0.23684 0.0
H37 H 0.44974 0.33356 0.29301 0.0
H38 H 0.52369 0.37882 0.22542 0.0
H39 H 0.5021 0.3529 0.16925 0.0
Tb40 Tb 0.75692 0.77813 0.31035 0.0
Tb41 Tb 0.72345 0.74588 0.36047 0.0
C42 C 0.78249 0.81594 0.26319 0.0
C43 C 0.77425 0.82838 0.22541 0.0
C44 C 0.74421 0.84207 0.21755 0.0
C45 C 0.73723 0.85324 0.18106 0.0
C46 C 0.75995 0.85033 0.15189 0.0
C47 C 0.78969 0.83614 0.15976 0.0
C48 C 0.7968 0.82543 0.19623 0.0
C49 C 0.7951 0.76303 0.37193 0.0
C50 C 0.69877 0.81715 0.35131 0.0
C51 C 0.7126 0.70429 0.41031 0.0
C52 C 0.70095 0.67086 0.40557 0.0
C53 C 0.7217 0.64571 0.39466 0.0
C54 C 0.70971 0.61479 0.38726 0.0
C55 C 0.6768 0.60869 0.39018 0.0
C56 C 0.65625 0.63384 0.40128 0.0
C57 C 0.66818 0.66443 0.40905 0.0
C58 C 0.6854 0.75756 0.30314 0.0
C59 C 0.74948 0.70375 0.28746 0.0
O60 O 0.78817 0.78511 0.26466 0.0
O61 O 0.76535 0.82568 0.29191 0.0
O62 O 0.76653 0.77442 0.37248 0.0
O63 O 0.80081 0.75852 0.33655 0.0
O64 O 0.71683 0.81449 0.32028 0.0
O65 O 0.70237 0.7938 0.37704 0.0
O66 O 0.74127 0.71044 0.39736 0.0
O67 O 0.6923 0.72702 0.40145 0.0
O68 O 0.71477 0.75101 0.30091 0.0
O69 O 0.6757 0.75414 0.33776 0.0
O70 O 0.73697 0.70325 0.3224 0.0
O71 O 0.75708 0.73295 0.27439 0.0
H72 H 0.72621 0.84419 0.23949 0.0
H73 H 0.71411 0.86405 0.17556 0.0
H74 H 0.80776 0.83404 0.13788 0.0
H75 H 0.82002 0.81479 0.20168 0.0
H76 H 0.74715 0.64989 0.39165 0.0
H77 H 0.7261 0.59566 0.37953 0.0
H78 H 0.63088 0.62964 0.40525 0.0
H79 H 0.65161 0.68315 0.4176 0.0
Tb80 Tb 0.22904 1.02787 0.5607 0.0
Tb81 Tb 0.26616 0.98732 0.60023 0.0
C82 C 0.19893 1.06382 0.51544 0.0
C83 C 0.1812 1.05807 0.48036 0.0
C84 C 0.18639 1.02999 0.45907 0.0
C85 C 0.16784 1.02377 0.427 0.0
C86 C 0.14367 1.04543 0.41607 0.0
C87 C 0.13877 1.07361 0.43742 0.0
C88 C 0.15743 1.07987 0.46932 0.0
C89 C 0.23811 1.05253 0.63217 0.0
C90 C 0.19199 0.96463 0.5919 0.0
C91 C 0.2989 0.95981 0.64976 0.0
C92 C 0.33247 0.94962 0.64646 0.0
C93 C 0.34057 0.91758 0.65448 0.0
C94 C 0.37141 0.90642 0.64723 0.0
C95 C 0.39479 0.92713 0.63183 0.0
C96 C 0.38668 0.95924 0.62377 0.0
C97 C 0.35571 0.97036 0.6308 0.0
C98 C 0.26088 0.96603 0.53089 0.0
C99 C 0.3044 1.02305 0.53397 0.0
O100 O 0.22978 1.05928 0.51398 0.0
O101 O 0.18631 1.05095 0.54562 0.0
O102 O 0.259 1.03959 0.61034 0.0
O103 O 0.21151 1.0492 0.6144 0.0
O104 O 0.19341 0.98682 0.56439 0.0
O105 O 0.21766 0.96386 0.61467 0.0
O106 O 0.29351 0.99091 0.6499 0.0
O107 O 0.27926 0.94438 0.62758 0.0
O108 O 0.23871 0.97873 0.54987 0.0
O109 O 0.2863 0.96273 0.55144 0.0
O110 O 0.30782 1.00526 0.56518 0.0
O111 O 0.27497 1.03421 0.52685 0.0
H112 H 0.20446 1.01272 0.46755 0.0
H113 H 0.17196 1.00175 0.41124 0.0
H114 H 1.12058 1.0909 0.42935 0.0
H115 H 0.15304 1.10154 0.48565 0.0
H116 H 0.32292 0.90109 0.666 0.0
H117 H 0.37721 0.88175 0.65475 0.0
H118 H 0.40432 0.97573 0.61226 0.0
H119 H 0.34996 0.9951 0.62366 0.0
Tb120 Tb 0.98956 0.49511 0.80908 0.0
Tb121 Tb 1.02697 0.53165 0.854 0.0
C122 C 0.96121 0.45504 0.76744 0.0
C123 C 0.97162 0.43169 0.73883 0.0
C124 C 1.00072 0.43617 0.71966 0.0
C125 C 1.00842 0.417 0.68854 0.0
C126 C 0.98724 0.39285 0.67635 0.0
C127 C 0.95893 0.38724 0.69692 0.0
C128 C 0.95111 0.40668 0.72789 0.0
C129 C 0.95431 0.51786 0.86933 0.0
C130 C 1.05185 0.45805 0.84599 0.0
C131 C 1.04816 0.55586 0.9138 0.0
C132 C 1.0556 0.54185 0.95126 0.0
C133 C 1.03157 0.53498 0.97806 0.0
C134 C 1.0397 0.5233 0.01404 0.0
C135 C 1.07194 0.51827 0.02375 0.0
C136 C 1.09558 0.52339 0.99595 0.0
C137 C 1.08754 0.53521 0.96036 0.0
C138 C 1.05279 0.53004 0.78701 0.0
C139 C 0.99457 0.56906 0.78296 0.0
O140 O 0.96618 0.48517 0.75829 0.0
O141 O 0.96901 0.44898 0.80257 0.0
O142 O 0.98257 0.50576 0.86992 0.0
O143 O 0.94752 0.51946 0.83387 0.0
O144 O 1.02599 0.45602 0.82372 0.0
O145 O 1.05676 0.48644 0.86281 0.0
O146 O 1.06637 0.54608 0.88604 0.0
O147 O 1.01799 0.55753 0.90402 0.0
O148 O 1.03881 0.50665 0.80305 0.0
O149 O 1.05383 0.55505 0.80911 0.0
O150 O 1.00568 0.57284 0.81845 0.0
O151 O 0.98897 0.53887 0.77203 0.0
H152 H 1.01678 0.4554 0.72779 0.0
H153 H 1.03051 0.4216 0.67337 0.0
H154 H 0.9421 0.36892 0.68792 0.0
H155 H 0.92851 0.403 0.74233 0.0
H156 H 1.00663 0.53948 0.97172 0.0
H157 H 1.02096 0.51973 0.03485 0.0
H158 H 1.12075 0.52066 1.00244 0.0
H159 H 1.10657 0.54017 0.94031 0.0
Tb160 Tb 0.77115 0.98928 0.90602 0.0
Tb161 Tb 0.73363 1.0284 0.94858 0.0
C162 C 0.81564 0.97523 0.86156 0.0
C163 C 0.8485 0.96512 0.86972 0.0
C164 C 0.87196 0.96754 0.84168 0.0
C165 C 0.90256 0.95539 0.8483 0.0
C166 C 0.91018 0.94061 0.88318 0.0
C167 C 0.88717 0.94052 0.91222 0.0
C168 C 0.85651 0.95254 0.90547 0.0
C169 C 0.75306 0.95762 0.96668 0.0
C170 C 0.80661 1.02165 0.97989 0.0
C171 C 0.69112 1.05528 0.98816 0.0
C172 C 0.67132 1.04614 0.02122 0.0
C173 C 0.64433 1.02608 0.01739 0.0
C174 C 0.62572 1.01813 0.04902 0.0
C175 C 0.63385 1.02993 0.08502 0.0
C176 C 0.66076 1.05 0.08875 0.0
C177 C 0.67918 1.05813 0.05719 0.0
C178 C 0.75329 1.0608 0.88456 0.0
C179 C 0.69949 0.96575 0.9089 0.0
O180 O 0.80877 1.00489 0.87113 0.0
O181 O 0.79334 0.95481 0.87162 0.0
O182 O 0.75966 0.98718 0.96473 0.0
O183 O 0.76051 0.94373 0.93496 0.0
O184 O 0.8101 1.00495 0.94777 0.0
O185 O 0.77691 1.03215 0.98721 0.0
O186 O 0.72173 1.05833 0.99429 0.0
O187 O 0.68533 1.0406 0.9562 0.0
O188 O 0.74335 1.03148 0.88716 0.0
O189 O 0.75331 1.07131 0.91886 0.0
O190 O 0.69917 0.98656 0.93784 0.0
O191 O 0.72512 0.96687 0.88628 0.0
H192 H 0.86624 0.97754 0.81413 0.0
H193 H 0.91942 0.95544 0.82499 0.0
H194 H 0.8923 0.92946 0.93937 0.0
H195 H 0.8387 0.95077 0.92768 0.0
H196 H 0.63751 1.01655 0.99001 0.0
H197 H 0.60513 1.00255 0.04539 0.0
H198 H 0.66727 1.05992 0.11605 0.0
H199 H 0.69957 1.07396 0.06095 0.0
Tb200 Tb 0.53066 0.533 0.65133 0.0
Tb201 Tb 0.49199 0.50231 0.70236 0.0
C202 C 0.5406 0.56393 0.59147 0.0
C203 C 0.54133 0.55262 0.55216 0.0
C204 C 0.53811 0.57469 0.52249 0.0
C205 C 0.54285 0.56467 0.4852 0.0
C206 C 0.55124 0.53244 0.47714 0.0
C207 C 0.55156 0.50981 0.50677 0.0
C208 C 0.54645 0.51982 0.54405 0.0
C209 C 0.56458 0.5196 0.711 0.0
C210 C 0.50373 0.57778 0.72198 0.0
C211 C 0.4646 0.46544 0.74908 0.0
C212 C 0.47411 0.44585 0.78204 0.0
C213 C 0.49705 0.42114 0.77917 0.0
C214 C 0.50488 0.40249 0.81089 0.0
C215 C 0.49018 0.40849 0.84597 0.0
C216 C 0.46756 0.43344 0.84878 0.0
C217 C 0.45953 0.45182 0.8171 0.0
C218 C 0.45865 0.51741 0.63784 0.0
C219 C 0.55148 0.46061 0.66496 0.0
O220 O 0.5635 0.55304 0.61315 0.0
O221 O 0.51264 0.56253 0.60795 0.0
O222 O 0.5354 0.52749 0.71098 0.0
O223 O 0.57669 0.52301 0.67729 0.0
O224 O 0.51952 0.5766 0.68877 0.0
O225 O 0.49121 0.54993 0.73427 0.0
O226 O 0.4666 0.49663 0.75327 0.0
O227 O 0.47474 0.45617 0.71586 0.0
O228 O 0.48689 0.50542 0.6406 0.0
O229 O 0.44961 0.5221 0.6723 0.0
O230 O 0.53023 0.46365 0.69325 0.0
O231 O 0.55257 0.48453 0.63967 0.0
H232 H 0.53364 0.59996 0.52826 0.0
H233 H 0.54289 0.58287 0.46314 0.0
H234 H 0.55806 0.48493 0.5014 0.0
H235 H 0.54825 0.50228 0.56669 0.0
H236 H 0.50882 0.41607 0.75249 0.0
H237 H 0.5225 0.38349 0.80805 0.0
H238 H 0.45549 0.43826 0.87535 0.0
H239 H 0.4417 0.47063 0.81992 0.0
Tb240 Tb 0.98815 0.29785 0.40288 0.0
Tb241 Tb 1.02044 0.25724 0.44896 0.0
C242 C 0.94605 0.31459 0.35689 0.0
C243 C 0.91385 0.32602 0.36627 0.0
C244 C 0.88848 0.32069 0.34139 0.0
C245 C 0.85785 0.33147 0.3507 0.0
C246 C 0.8521 0.34761 0.38523 0.0
C247 C 0.87741 0.35142 0.4109 0.0
C248 C 0.90803 0.34079 0.40144 0.0
C249 C 1.00284 0.3286 0.46554 0.0
C250 C 0.94637 0.26627 0.47346 0.0
C251 C 1.05993 0.22866 0.4912 0.0
C252 C 1.07975 0.23718 0.52423 0.0
C253 C 1.07468 0.22081 0.55849 0.0
C254 C 1.09273 0.22844 0.59041 0.0
C255 C 1.11646 0.25242 0.58864 0.0
C256 C 1.12188 0.26862 0.55425 0.0
C257 C 1.10353 0.2612 0.52229 0.0
C258 C 1.00329 0.22556 0.38365 0.0
C259 C 1.05939 0.31859 0.411 0.0
O260 O 0.95145 0.2844 0.36559 0.0
O261 O 0.96944 0.33358 0.36722 0.0
O262 O 0.995 0.29947 0.46253 0.0
O263 O 0.99929 0.34277 0.43306 0.0
O264 O 0.94673 0.28355 0.44139 0.0
O265 O 0.97456 0.25386 0.48397 0.0
O266 O 1.02911 0.2285 0.49684 0.0
O267 O 1.06747 0.24168 0.4587 0.0
O268 O 1.01474 0.25423 0.38682 0.0
O269 O 1.00025 0.21537 0.41795 0.0
O270 O 1.05684 0.29836 0.44059 0.0
O271 O 1.03564 0.31774 0.38597 0.0
H272 H 0.89247 0.30887 0.31444 0.0
H273 H 0.83912 0.32876 0.32979 0.0
H274 H 0.87378 0.36369 0.43763 0.0
H275 H 0.92733 0.34463 0.42139 0.0
H276 H 1.05666 0.20208 0.56059 0.0
H277 H 1.0884 0.21524 0.61645 0.0
H278 H 0.13997 0.28727 0.55224 0.0
H279 H 1.10795 0.2743 0.49623 0.0
Tb280 Tb 0.22615 0.75079 0.15539 0.0
Tb281 Tb 0.26191 0.78609 0.1963 0.0
C282 C 0.21074 0.70532 0.11256 0.0
C283 C 0.19557 0.67479 0.12345 0.0
C284 C 0.1971 0.64808 0.09945 0.0
C285 C 0.18074 0.61981 0.10891 0.0
C286 C 0.16252 0.61795 0.14249 0.0
C287 C 0.16272 0.64415 0.16759 0.0
C288 C 0.17927 0.67232 0.15821 0.0
C289 C 0.19051 0.76688 0.2137 0.0
C290 C 0.25605 0.71448 0.22981 0.0
C291 C 0.29323 0.82859 0.23148 0.0
C292 C 0.29031 0.85055 0.26382 0.0
C293 C 0.31517 0.85101 0.29029 0.0
C294 C 0.3136 0.87116 0.32168 0.0
C295 C 0.28722 0.89168 0.32709 0.0
C296 C 0.26224 0.89131 0.30038 0.0
C297 C 0.26373 0.8708 0.26895 0.0
C298 C 0.29704 0.76453 0.13538 0.0
C299 C 0.20132 0.82223 0.15803 0.0
O300 O 0.23978 0.70936 0.12523 0.0
O301 O 0.19313 0.73096 0.11737 0.0
O302 O 0.22017 0.76125 0.21505 0.0
O303 O 0.17969 0.761 0.18014 0.0
O304 O 0.24062 0.71088 0.19704 0.0
O305 O 0.2653 0.74457 0.23742 0.0
O306 O 0.29383 0.79799 0.23975 0.0
O307 O 0.2761 0.83455 0.20141 0.0
O308 O 0.26881 0.77678 0.13482 0.0
O309 O 0.30327 0.7612 0.17078 0.0
O310 O 0.22101 0.82166 0.18764 0.0
O311 O 0.20373 0.79702 0.13479 0.0
H312 H 0.20993 0.64948 0.07281 0.0
H313 H 0.18057 0.60024 0.08861 0.0
H314 H 0.14883 0.6434 0.1935 0.0
H315 H 0.17834 0.6926 0.17749 0.0
H316 H 0.3358 0.83545 0.28685 0.0
H317 H 0.33287 0.87013 0.34211 0.0
H318 H 0.24168 0.90692 0.30366 0.0
H319 H 0.24419 0.87077 0.24883 0.0
Tb320 Tb 1.01348 0.75727 0.56091 0.0
Tb321 Tb 0.98053 0.79352 0.61235 0.0
C322 C 1.05159 0.732 0.51422 0.0
C323 C 1.06941 0.74192 0.48007 0.0
C324 C 1.09037 0.76849 0.4802 0.0
C325 C 1.10813 0.77617 0.44779 0.0
C326 C 1.10494 0.75766 0.41468 0.0
C327 C 1.08341 0.7316 0.41445 0.0
C328 C 1.06593 0.72376 0.44687 0.0
C329 C 0.99985 0.72203 0.62542 0.0
C330 C 1.05181 0.81702 0.60099 0.0
C331 C 0.94712 0.80108 0.67057 0.0
C332 C 0.95479 0.7989 0.71092 0.0
C333 C 0.98664 0.80047 0.7234 0.0
C334 C 0.99338 0.80287 0.76207 0.0
C335 C 0.96832 0.8036 0.78863 0.0
C336 C 0.93671 0.79875 0.77591 0.0
C337 C 0.93004 0.79656 0.73734 0.0
C338 C 0.99255 0.82944 0.55325 0.0
C339 C 0.93839 0.76525 0.54037 0.0
O340 O 1.02056 0.73074 0.51097 0.0
O341 O 1.06045 0.74448 0.54649 0.0
O342 O 1.01005 0.75112 0.62283 0.0
O343 O 0.99637 0.7129 0.59078 0.0
O344 O 1.049 0.79848 0.57017 0.0
O345 O 1.02869 0.81419 0.62693 0.0
O346 O 0.96058 0.82495 0.65222 0.0
O347 O 0.94866 0.77385 0.65204 0.0
O348 O 0.98619 0.79968 0.55292 0.0
O349 O 0.98816 0.84098 0.58707 0.0
O350 O 0.9382 0.77952 0.57455 0.0
O351 O 0.967 0.75563 0.52764 0.0
H352 H 1.09336 0.7831 0.50537 0.0
H353 H 1.12439 0.79652 0.44862 0.0
H354 H 1.08075 0.71668 0.38948 0.0
H355 H 1.04998 0.70314 0.44618 0.0
H356 H 1.00612 0.80154 0.70317 0.0
H357 H 1.01791 0.80643 0.77099 0.0
H358 H 0.91671 0.79962 0.7954 0.0
H359 H 0.90539 0.79483 0.7281 0.0
Tb360 Tb 0.2625 0.28096 0.81441 0.0
Tb361 Tb 0.22193 0.24722 0.85561 0.0
C362 C 0.29187 0.31997 0.77216 0.0
C363 C 0.284 0.3341 0.73505 0.0
C364 C 0.25586 0.35207 0.72959 0.0
C365 C 0.24813 0.36383 0.69369 0.0
C366 C 0.26814 0.35742 0.66265 0.0
C367 C 0.29607 0.33925 0.66804 0.0
C368 C 0.30403 0.32785 0.70401 0.0
C369 C 0.29283 0.26323 0.88026 0.0
C370 C 0.20056 0.31985 0.8497 0.0
C371 C 0.204 0.20402 0.90048 0.0
C372 C 0.18859 0.17263 0.89299 0.0
C373 C 0.20515 0.14699 0.87559 0.0
C374 C 0.18939 1.11797 0.86746 0.0
C375 C 0.1568 1.11442 0.87606 0.0
C376 C 0.14036 0.14027 0.89301 0.0
C377 C 0.15609 0.1689 0.90153 0.0
C378 C 0.19163 0.26478 0.7941 0.0
C379 C 0.25351 0.20743 0.78469 0.0
O380 O 0.29678 0.28897 0.77202 0.0
O381 O 0.27444 0.32887 0.80098 0.0
O382 O 0.26413 0.27398 0.8765 0.0
O383 O 0.30356 0.26089 0.84625 0.0
O384 O 0.22429 0.31943 0.82423 0.0
O385 O 0.19749 0.29359 0.87123 0.0
O386 O 0.23374 0.20734 0.88958 0.0
O387 O 0.18676 0.22933 0.89231 0.0
O388 O 0.22071 0.25678 0.79585 0.0
O389 O 0.17792 0.25939 0.82641 0.0
O390 O 0.23494 0.2059 0.81547 0.0
O391 O 0.26614 0.23641 0.77737 0.0
H392 H 0.2397 0.35692 0.75289 0.0
H393 H 0.22642 0.37775 0.69008 0.0
H394 H 0.31206 0.3344 0.64456 0.0
H395 H 0.32574 0.3139 0.70756 0.0
H396 H 0.23024 0.1492 0.86842 0.0
H397 H 0.20269 1.09822 0.85504 0.0
H398 H 1.11549 0.13794 0.90125 0.0
H399 H 0.14278 0.18818 0.91497 0.0
Tb400 Tb 0.73661 0.52515 0.05594 0.0
Tb401 Tb 0.76584 0.48692 0.10648 0.0
C402 C 0.70019 0.55435 0.01068 0.0
C403 C 0.68004 0.54585 0.97816 0.0
C404 C 0.65809 0.52014 0.97962 0.0
C405 C 0.63966 0.51255 0.94785 0.0
C406 C 0.64329 0.53027 0.91418 0.0
C407 C 0.66524 0.55593 0.91291 0.0
C408 C 0.68336 0.56369 0.94467 0.0
C409 C 0.75318 0.5606 0.11845 0.0
C410 C 0.69442 0.46525 0.09127 0.0
C411 C 0.79308 0.47016 0.1664 0.0
C412 C 0.77882 0.45642 0.20117 0.0
C413 C 0.76335 0.47612 0.22803 0.0
C414 C 0.74954 0.46255 0.26048 0.0
C415 C 0.75085 0.42908 0.26659 0.0
C416 C 0.76522 0.40943 0.23887 0.0
C417 C 0.77916 0.42294 0.20675 0.0
C418 C 0.75414 0.45315 0.04534 0.0
C419 C 0.81126 0.51654 0.03788 0.0
O420 O 0.73089 0.55121 1.00545 0.0
O421 O 0.69116 0.54388 0.04392 0.0
O422 O 0.74018 0.53241 0.1179 0.0
O423 O 0.75858 0.56721 0.0834 0.0
O424 O 0.69894 0.48569 0.06236 0.0
O425 O 0.71709 0.46532 0.11778 0.0
O426 O 0.7918 0.45193 0.13636 0.0
O427 O 0.78591 0.50013 0.15868 0.0
O428 O 0.76259 0.48226 0.04664 0.0
O429 O 0.75412 0.44095 0.07923 0.0
O430 O 0.81026 0.50285 0.07255 0.0
O431 O 0.78315 0.52574 0.02363 0.0
H432 H 0.65522 0.50587 1.00513 0.0
H433 H 0.62293 0.4926 0.94938 0.0
H434 H 0.66812 0.57024 0.88742 0.0
H435 H 0.70011 0.58362 0.94305 0.0
H436 H 0.76235 0.50206 0.22437 0.0
H437 H 0.739 0.47831 0.28152 0.0
H438 H 0.76762 0.38364 0.24305 0.0
H439 H 0.79075 0.40712 0.18656 0.0
Tb440 Tb 0.48682 0.99507 0.31292 0.0
Tb441 Tb 0.5286 1.02896 0.35199 0.0
C442 C 0.45337 0.95549 0.27578 0.0
C443 C 0.45666 0.93745 0.24039 0.0
C444 C 0.48386 0.94106 0.21746 0.0
C445 C 0.48538 0.92572 0.18225 0.0
C446 C 0.45965 0.90669 0.16953 0.0
C447 C 0.43291 0.9025 0.19324 0.0
C448 C 0.43144 0.9178 0.22837 0.0
C449 C 0.45656 1.01747 0.37722 0.0
C450 C 0.5501 0.95565 0.34418 0.0
C451 C 0.55866 1.06397 0.39719 0.0
C452 C 0.59365 1.0654 0.40141 0.0
C453 C 0.60746 1.06086 0.4371 0.0
C454 C 0.64066 1.06005 0.44094 0.0
C455 C 0.66067 1.06381 0.4091 0.0
C456 C 0.64681 1.06767 0.37324 0.0
C457 C 0.61361 1.0683 0.36938 0.0
C458 C 0.55743 1.00957 0.28945 0.0
C459 C 0.49477 1.06807 0.28321 0.0
O460 O 0.45158 0.9867 0.27201 0.0
O461 O 0.47238 0.94717 0.30338 0.0
O462 O 0.48489 1.00558 0.37441 0.0
O463 O 0.44636 1.01857 0.34294 0.0
O464 O 0.52505 0.95616 0.3206 0.0
O465 O 0.55484 0.98243 0.36412 0.0
O466 O 0.54729 1.07455 0.36512 0.0
O467 O 0.5454 1.03679 0.40739 0.0
O468 O 0.52866 1.01816 0.29217 0.0
O469 O 0.57148 1.01411 0.32156 0.0
O470 O 0.50845 1.07107 0.31727 0.0
O471 O 0.4866 1.03799 0.27366 0.0
H472 H 0.50351 0.95632 0.22642 0.0
H473 H 0.50617 0.92961 0.16448 0.0
H474 H 0.41295 0.88762 0.18445 0.0
H475 H 0.41031 0.91479 0.24584 0.0
H476 H 0.59255 1.05807 0.46203 0.0
H477 H 0.65066 1.05786 0.46912 0.0
H478 H 0.66165 1.07085 0.34834 0.0
H479 H 0.60364 1.07116 0.34127 0.0
Tb480 Tb 0.26797 0.49062 0.41263 0.0
Tb481 Tb 0.2338 0.53284 0.45188 0.0
C482 C 0.31214 0.4722 0.37037 0.0
C483 C 0.34468 0.46176 0.381 0.0
C484 C 0.36799 0.48407 0.39308 0.0
C485 C 0.39853 0.47359 0.4035 0.0
C486 C 0.40624 0.44064 0.40219 0.0
C487 C 0.38237 0.41835 0.39184 0.0
C488 C 0.35207 0.42881 0.38118 0.0
C489 C 0.25099 0.46242 0.47618 0.0
C490 C 0.30637 0.52511 0.48294 0.0
C491 C 0.19243 0.56574 0.48678 0.0
C492 C 0.17154 0.56168 0.51969 0.0
C493 C 0.17709 0.53708 0.54614 0.0
C494 C 0.15863 0.5352 0.57904 0.0
C495 C 0.13411 0.55775 0.58575 0.0
C496 C 1.12782 0.5815 0.55821 0.0
C497 C 0.14651 0.5835 0.52551 0.0
C498 C 0.25374 0.56169 0.38622 0.0
C499 C 0.19665 0.46852 0.41928 0.0
O500 O 0.3054 0.5027 0.37567 0.0
O501 O 0.28891 0.45324 0.38132 0.0
O502 O 0.25813 0.49174 0.47214 0.0
O503 O 0.25649 0.44711 0.44487 0.0
O504 O 0.30851 0.5065 0.45215 0.0
O505 O 0.27723 0.53714 0.49002 0.0
O506 O 0.22299 0.56671 0.49391 0.0
O507 O 0.186 0.54772 0.45755 0.0
O508 O 0.2421 0.53308 0.39024 0.0
O509 O 0.25652 0.57267 0.42007 0.0
O510 O 0.19794 0.49167 0.44569 0.0
O511 O 0.22167 0.46688 0.39594 0.0
H512 H 0.36292 0.50968 0.39385 0.0
H513 H 0.41653 0.4913 0.41092 0.0
H514 H 0.38765 0.39285 0.38942 0.0
H515 H 0.33456 0.41106 0.37234 0.0
H516 H 0.19618 0.51988 0.54178 0.0
H517 H 0.16436 0.51682 0.59978 0.0
H518 H 1.10873 0.59882 0.56214 0.0
H519 H 0.1418 0.60246 0.50509 0.0
Tb520 Tb 1.02801 1.03211 0.15524 0.0
Tb521 Tb 0.99043 0.99798 0.20201 0.0
C522 C 1.03707 1.06658 0.09798 0.0
C523 C 1.03475 1.0582 0.05778 0.0
C524 C 1.03028 1.08247 0.03083 0.0
C525 C 1.03107 1.07496 0.99235 0.0
C526 C 1.03661 1.04303 0.98027 0.0
C527 C 1.0385 1.01838 0.00751 0.0
C528 C 1.03736 1.02591 0.04605 0.0
C529 C 1.06191 1.0193 0.21533 0.0
C530 C 0.99776 1.07261 0.22741 0.0
C531 C 0.96312 0.95826 0.24552 0.0
C532 C 0.97151 0.94033 0.28018 0.0
C533 C 0.99907 0.92097 0.28238 0.0
C534 C 1.00615 0.9042 0.31576 0.0
C535 C 0.98603 0.90686 0.34753 0.0
C536 C 0.9587 0.92646 0.34527 0.0
C537 C 0.95146 0.94291 0.31187 0.0
C538 C 0.95745 1.01377 0.13725 0.0
C539 C 1.05246 0.96051 0.16643 0.0
O540 O 1.06024 1.05259 0.11663 0.0
O541 O 1.00999 1.06589 0.11646 0.0
O542 O 1.03222 1.02506 0.21492 0.0
O543 O 1.07413 1.0241 0.18192 0.0
O544 O 1.01432 1.07437 0.19476 0.0
O545 O 0.98702 1.04329 0.23679 0.0
O546 O 0.96102 0.98947 0.24918 0.0
O547 O 0.97759 0.95008 0.21418 0.0
O548 O 0.98614 1.00294 0.14022 0.0
O549 O 0.94782 1.01705 0.17166 0.0
O550 O 1.03146 0.96268 0.19487 0.0
O551 O 1.05177 0.98451 0.14113 0.0
H552 H 1.02765 1.10741 0.03948 0.0
H553 H 1.03005 1.09464 0.97215 0.0
H554 H 1.04288 0.99366 0.99902 0.0
H555 H 1.04001 1.00671 0.06667 0.0
H556 H 1.01511 0.91874 0.25841 0.0
H557 H 1.02745 0.88937 0.31687 0.0
H558 H 0.94254 0.92859 0.36916 0.0
H559 H 0.93009 0.95766 0.31076 0.0
Tb560 Tb 0.48489 0.79686 0.90185 0.0
Tb561 Tb 0.51829 0.75841 0.95105 0.0
C562 C 0.46388 0.81387 0.83844 0.0
C563 C 0.47639 0.81385 0.79956 0.0
C564 C 0.50656 0.82661 0.7903 0.0
C565 C 0.51594 0.82917 0.75233 0.0
C566 C 0.49519 0.8192 0.7232 0.0
C567 C 0.46656 0.80329 0.73324 0.0
C568 C 0.45726 0.80086 0.77096 0.0
C569 C 0.48651 0.82446 0.96802 0.0
C570 C 0.44149 0.76823 0.9685 0.0
C571 C 0.54413 0.72697 1.00391 0.0
C572 C 0.5617 0.73557 0.03846 0.0
C573 C 0.55985 0.71532 0.07018 0.0
C574 C 0.57731 0.72247 0.10281 0.0
C575 C 0.59707 0.74992 0.10411 0.0
C576 C 0.59841 0.77054 0.0725 0.0
C577 C 0.58071 0.76352 0.03999 0.0
C578 C 0.51037 0.7283 0.88157 0.0
C579 C 0.55902 0.81836 0.91599 0.0
O580 O 0.47654 0.83404 0.86262 0.0
O581 O 0.45921 0.7853 0.85297 0.0
O582 O 0.50897 0.80845 0.95324 0.0
O583 O 0.46312 0.82813 0.94405 0.0
O584 O 0.44106 0.78368 0.93524 0.0
O585 O 0.46958 0.75632 0.98023 0.0
O586 O 0.51384 0.73446 1.00339 0.0
O587 O 0.5583 0.73386 0.97195 0.0
O588 O 0.49037 0.74432 0.90138 0.0
O589 O 0.53627 0.73004 0.90123 0.0
O590 O 0.55537 0.79812 0.94531 0.0
O591 O 0.53498 0.81808 0.89082 0.0
H592 H 0.52222 0.83591 0.81213 0.0
H593 H 0.53829 0.84113 0.74565 0.0
H594 H 0.44964 0.79545 0.71197 0.0
H595 H 0.43421 0.79025 0.77766 0.0
H596 H 0.54523 0.69373 0.06952 0.0
H597 H 0.57606 0.70602 0.12665 0.0
H598 H 0.6132 0.79202 0.07293 0.0
H599 H 0.58222 0.77969 0.01591 0.0
Tb600 Tb 0.72784 0.24925 0.65731 0.0
Tb601 Tb 0.76519 0.28813 0.6973 0.0
C602 C 0.71292 0.22658 0.59434 0.0
C603 C 0.73011 0.20563 0.56739 0.0
C604 C 0.75412 0.21794 0.54327 0.0
C605 C 0.76814 0.19826 0.51572 0.0
C606 C 0.75848 0.16597 0.51193 0.0
C607 C 0.73603 0.15333 0.53786 0.0
C608 C 0.72193 0.17295 0.56504 0.0
C609 C 0.70029 0.25551 0.72225 0.0
C610 C 0.75869 0.21272 0.72601 0.0
C611 C 0.80024 0.31845 0.7434 0.0
C612 C 0.79536 0.33612 0.77875 0.0
C613 C 0.76443 0.34334 0.79159 0.0
C614 C 0.76013 0.36043 0.82526 0.0
C615 C 0.78677 0.37119 0.84584 0.0
C616 C 0.8177 0.36415 0.83272 0.0
C617 C 0.82195 0.34649 0.79948 0.0
C618 C 0.79472 0.27307 0.62991 0.0
C619 C 0.70147 0.32384 0.66426 0.0
O620 O 0.7245 0.25571 0.59876 0.0
O621 O 0.70418 0.2133 0.62646 0.0
O622 O 0.71606 0.27771 0.70594 0.0
O623 O 0.69554 0.23102 0.69992 0.0
O624 O 0.74604 0.20765 0.69193 0.0
O625 O 0.76667 0.24323 0.73433 0.0
O626 O 0.79533 0.28744 0.7449 0.0
O627 O 0.78735 0.33132 0.71344 0.0
O628 O 0.78009 0.25434 0.65307 0.0
O629 O 0.79035 0.30141 0.64372 0.0
O630 O 0.72743 0.3267 0.68619 0.0
O631 O 0.69686 0.29455 0.64913 0.0
H632 H 0.76128 0.24303 0.54467 0.0
H633 H 0.78523 0.20871 0.49613 0.0
H634 H 0.72729 1.12881 0.53541 0.0
H635 H 0.70363 0.16277 0.58326 0.0
H636 H 0.7437 0.33621 0.77528 0.0
H637 H 0.7361 0.36598 0.83471 0.0
H638 H 0.83854 0.37223 0.84828 0.0
H639 H 0.84597 0.34121 0.78975 0.0
H640 H 0.58984 0.35345 0.04504 0.0
H641 H 0.58217 0.34267 0.16599 0.0
H642 H 0.62291 0.3847 0.17473 0.0
H643 H 0.66231 0.42629 0.14855 0.0
H644 H 0.66518 0.44058 0.02765 0.0
H645 H 0.6263 0.39716 0.01921 0.0
C646 C 0.59711 0.35988 0.07349 0.0
C647 C 0.58237 0.34315 0.10478 0.0
C648 C 0.62039 0.38575 0.07861 0.0
C649 C 0.59248 0.35377 0.141 0.0
C650 C 0.61615 0.37833 0.1461 0.0
C651 C 0.6545 0.42024 0.1202 0.0
C652 C 0.66788 0.43809 0.08881 0.0
C653 C 0.63056 0.39484 0.11523 0.0
C654 C 0.65618 0.4286 0.05278 0.0
C655 C 0.63359 0.40315 0.04778 0.0
H656 H 0.65416 0.84339 0.29804 0.0
H657 H 0.68162 0.85296 0.41495 0.0
H658 H 0.64109 0.89522 0.42355 0.0
H659 H 0.59636 0.93123 0.39833 0.0
H660 H 0.56531 0.91682 0.28327 0.0
H661 H 0.60715 0.87631 0.27428 0.0
C662 C 0.65162 0.85469 0.32554 0.0
C663 C 0.67253 0.84429 0.35561 0.0
C664 C 0.62667 0.87884 0.33092 0.0
C665 C 0.66705 0.85966 0.39085 0.0
C666 C 0.64341 0.88424 0.39586 0.0
C667 C 0.59836 0.91923 0.37121 0.0
C668 C 0.57632 0.92823 0.34158 0.0
C669 C 0.62277 0.89434 0.36623 0.0
C670 C 0.58065 0.91127 0.30709 0.0
C671 C 0.60516 0.88775 0.30175 0.0
H672 H 0.16408 0.92135 0.64885 0.0
H673 H 0.15786 0.94447 0.52998 0.0
H674 H 1.118 0.90224 0.52135 0.0
H675 H 1.08282 0.85741 0.54626 0.0
H676 H 1.08355 0.83778 0.66598 0.0
H677 H 1.12578 0.87834 0.67475 0.0
C678 C 0.15419 0.91739 0.62091 0.0
C679 C 0.16555 0.93728 0.59006 0.0
C680 C 1.12939 0.89277 0.61594 0.0
C681 C 0.15088 0.93062 0.55466 0.0
C682 C 1.12757 0.90594 0.54952 0.0
C683 C 1.09219 0.86162 0.57442 0.0
C684 C 1.07927 0.84294 0.60527 0.0
C685 C 1.11636 0.88657 0.57974 0.0
C686 C 1.09224 0.85059 0.64127 0.0
C687 C 1.11682 0.87426 0.64639 0.0
H688 H 1.12066 0.45668 0.8496 0.0
H689 H 1.03989 0.3922 0.84746 0.0
H690 H 1.07613 0.34576 0.85073 0.0
H691 H 0.1319 0.32143 0.85329 0.0
H692 H 0.2127 0.38569 0.84761 0.0
H693 H 0.17647 0.43226 0.84835 0.0
C694 C 1.11067 0.43256 0.85017 0.0
C695 C 1.07635 0.42915 0.84899 0.0
C696 C 0.13235 0.40496 0.85063 0.0
C697 C 1.06537 0.39679 0.84871 0.0
C698 C 1.08648 0.36973 0.85056 0.0
C699 C 0.14189 0.34555 0.85262 0.0
C700 C 0.1762 0.3489 0.85134 0.0
C701 C 1.12022 0.37314 0.85151 0.0
C702 C 0.18722 0.3812 0.84919 0.0
C703 C 0.16611 0.40831 0.84953 0.0
H704 H 0.66298 0.93015 0.96336 0.0
H705 H 0.67476 0.93879 0.84267 0.0
H706 H 0.63368 0.89718 0.833 0.0
H707 H 0.59283 0.85638 0.85842 0.0
H708 H 0.58627 0.84451 0.97953 0.0
H709 H 0.62525 0.88758 0.9885 0.0
C710 C 0.65662 0.92329 0.93474 0.0
C711 C 0.67271 0.93921 0.90383 0.0
C712 C 0.63312 0.89775 0.92914 0.0
C713 C 0.66355 0.92819 0.8674 0.0
C714 C 0.63964 0.90391 0.86177 0.0
C715 C 0.59977 0.86296 0.88692 0.0
C716 C 0.58523 0.84589 0.91822 0.0
C717 C 0.62395 0.88814 0.89232 0.0
C718 C 0.59602 0.85595 0.95445 0.0
C719 C 0.61873 0.88117 0.95979 0.0
H720 H 0.61869 0.45815 0.6483 0.0
H721 H 0.54114 0.39591 0.68179 0.0
H722 H 0.57771 0.34962 0.68242 0.0
H723 H 0.63309 0.32498 0.6744 0.0
H724 H 0.71167 0.38854 0.64869 0.0
H725 H 0.67452 0.43419 0.64425 0.0
C726 C 0.60943 0.43448 0.65543 0.0
C727 C 0.57585 0.43155 0.66413 0.0
C728 C 0.63151 0.40726 0.65726 0.0
C729 C 0.56595 0.4 0.67437 0.0
C730 C 0.58727 0.37305 0.67481 0.0
C731 C 0.64234 0.34869 0.66747 0.0
C732 C 0.67626 0.35205 0.66112 0.0
C733 C 0.62032 0.37602 0.66635 0.0
C734 C 0.68647 0.384 0.65338 0.0
C735 C 0.66484 0.41059 0.65085 0.0
H736 H 1.08839 0.36034 0.46592 0.0
H737 H 1.09268 0.33829 0.34694 0.0
H738 H 0.13413 0.37963 0.33818 0.0
H739 H 0.17054 0.42396 0.36367 0.0
H740 H 0.16172 0.44933 0.48155 0.0
H741 H 1.12229 0.40645 0.49052 0.0
C742 C 1.09846 0.36414 0.43797 0.0
C743 C 1.08682 0.34454 0.4073 0.0
C744 C 1.12217 0.38958 0.4326 0.0
C745 C 1.1005 0.35175 0.37151 0.0
C746 C 1.12457 0.37589 0.36639 0.0
C747 C 0.16007 0.42043 0.39144 0.0
C748 C 0.17028 0.44124 0.42183 0.0
C749 C 0.13585 0.39533 0.39658 0.0
C750 C 0.15522 0.43497 0.45713 0.0
C751 C 0.13231 0.40986 0.46248 0.0
H752 H 0.16526 0.8576 0.2129 0.0
H753 H 0.17418 0.84738 0.09206 0.0
H754 H 0.13209 0.88798 0.08288 0.0
H755 H 1.0908 0.92789 0.10875 0.0
H756 H 1.07891 0.93314 0.22988 0.0
H757 H 1.12237 0.89457 0.23849 0.0
C758 C 0.15836 0.86421 0.18435 0.0
C759 C 0.17449 0.84872 0.15325 0.0
C760 C 0.13258 0.88743 0.17904 0.0
C761 C 0.16342 0.85815 0.11693 0.0
C762 C 0.13887 0.88177 0.11158 0.0
C763 C 1.09747 0.92073 0.13718 0.0
C764 C 1.08025 0.93468 0.16861 0.0
C765 C 1.1229 0.89687 0.14231 0.0
C766 C 1.09043 0.92372 0.20473 0.0
C767 C 1.11588 0.90128 0.20984 0.0
H768 H 0.35661 0.24384 0.88587 0.0
H769 H 0.28287 0.2855 0.95532 0.0
H770 H 0.32079 0.28868 0.00872 0.0
H771 H 0.377 0.28044 0.03697 0.0
H772 H 0.44878 0.23754 0.96492 0.0
H773 H 0.41051 0.23436 0.91348 0.0
C774 C 0.34842 0.2536 0.91263 0.0
C775 C 0.3159 0.26439 0.9153 0.0
C776 C 0.37073 0.25526 0.94385 0.0
C777 C 0.30702 0.2768 0.95117 0.0
C778 C 0.32912 0.27869 0.98216 0.0
C779 C 0.38444 0.27012 0.01022 0.0
C780 C 0.41708 0.25915 0.00639 0.0
C781 C 0.36139 0.26809 0.97918 0.0
C782 C 0.42479 0.24623 0.97036 0.0
C783 C 0.40253 0.24438 0.94019 0.0
H784 H 0.73345 0.56491 0.19872 0.0
H785 H 0.77579 0.62111 0.10858 0.0
H786 H 0.77869 0.66775 0.14957 0.0
H787 H 0.76932 0.69544 0.21121 0.0
H788 H 0.72817 0.64121 0.30325 0.0
H789 H 0.7251 0.59323 0.26268 0.0
C790 C 0.74339 0.58721 0.18781 0.0
C791 C 0.75417 0.58815 0.14905 0.0
C792 C 0.74539 0.61543 0.21255 0.0
C793 C 0.76695 0.61829 0.13724 0.0
C794 C 0.76875 0.64565 0.16108 0.0
C795 C 0.75979 0.67321 0.22285 0.0
C796 C 0.74917 0.67312 0.26141 0.0
C797 C 0.75805 0.64492 0.19886 0.0
C798 C 0.73684 0.64315 0.27442 0.0
C799 C 0.73497 0.61521 0.25079 0.0
H800 H 0.39322 1.03993 0.38256 0.0
H801 H 0.46464 0.99415 0.45191 0.0
H802 H 0.42626 0.99182 0.50491 0.0
H803 H 0.37055 1.00187 0.5329 0.0
H804 H 0.30078 1.04943 0.46238 0.0
H805 H 0.33934 1.05166 0.41058 0.0
C806 C 0.4008 1.0295 0.40924 0.0
C807 C 0.43291 1.01726 0.41195 0.0
C808 C 0.37819 1.02847 0.44042 0.0
C809 C 0.44093 1.004 0.44771 0.0
C810 C 0.41855 1.0026 0.47848 0.0
C811 C 0.36363 1.01314 0.50645 0.0
C812 C 0.33157 1.02581 0.50311 0.0
C813 C 0.38682 1.01468 0.47551 0.0
C814 C 0.32442 1.03971 0.46742 0.0
C815 C 0.34684 1.04091 0.43711 0.0
H816 H 0.98251 0.65663 0.62977 0.0
H817 H 1.01806 0.73243 0.70144 0.0
H818 H 1.01952 0.69453 0.75533 0.0
H819 H 1.01139 0.6378 0.78363 0.0
H820 H 0.97447 0.56387 0.70956 0.0
H821 H 0.9732 0.60201 0.65743 0.0
C822 C 0.99061 0.66524 0.6571 0.0
C823 C 1.00027 0.69835 0.66022 0.0
C824 C 0.99123 0.6429 0.68869 0.0
C825 C 1.01046 0.70777 0.69686 0.0
C826 C 1.0113 0.68569 0.72818 0.0
C827 C 1.00272 0.62986 0.7563 0.0
C828 C 0.9928 0.59665 0.75218 0.0
C829 C 1.0018 0.65286 0.72482 0.0
C830 C 0.98218 0.58832 0.71532 0.0
C831 C 0.98147 0.61051 0.68472 0.0
H832 H 0.87281 1.00065 0.98075 0.0
H833 H 0.80215 1.04587 0.05222 0.0
H834 H 0.84036 1.04727 0.10426 0.0
H835 H 0.89404 1.03539 0.13221 0.0
H836 H 0.9665 0.99214 0.06211 0.0
H837 H 0.9285 0.99057 0.00877 0.0
C838 C 0.86559 1.0111 0.00753 0.0
C839 C 0.83339 1.0233 0.01114 0.0
C840 C 0.88857 1.01216 0.0386 0.0
C841 C 0.82588 1.03636 0.0471 0.0
C842 C 0.84809 1.03713 0.07751 0.0
C843 C 0.9019 1.02561 0.10532 0.0
C844 C 0.93408 1.01373 0.10249 0.0
C845 C 0.87955 1.02506 0.07401 0.0
C846 C 0.94259 1.00148 0.06643 0.0
C847 C 0.92047 1.00056 0.03547 0.0
H848 H 0.54841 0.70236 0.82256 0.0
H849 H 0.45612 0.68934 0.87447 0.0
H850 H 0.44583 0.64295 0.83287 0.0
H851 H 0.46321 0.60372 0.78106 0.0
H852 H 0.55326 0.62134 0.7252 0.0
H853 H 0.56356 0.66666 0.76765 0.0
C854 C 0.52583 0.68966 0.82486 0.0
C855 C 0.50326 0.70035 0.85285 0.0
C856 C 0.51946 0.66292 0.79942 0.0
C857 C 0.47424 0.68273 0.85398 0.0
C858 C 0.46832 0.65569 0.82986 0.0
C859 C 0.48507 0.61747 0.77776 0.0
C860 C 0.50734 0.60788 0.7487 0.0
C861 C 0.49072 0.64515 0.80232 0.0
C862 C 0.53524 0.62717 0.74615 0.0
C863 C 0.54134 0.65349 0.77095 0.0
H864 H 0.82442 0.31229 0.57526 0.0
H865 H 0.82972 0.21572 0.6197 0.0
H866 H 0.87597 0.20471 0.57839 0.0
H867 H 0.91727 0.2228 0.52879 0.0
H868 H 0.90769 0.3186 0.48239 0.0
H869 H 0.8624 0.32889 0.52397 0.0
C870 C 0.8354 0.28862 0.57603 0.0
C871 C 0.82261 0.26508 0.60175 0.0
C872 C 0.86217 0.28211 0.55114 0.0
C873 C 0.83806 0.23468 0.60099 0.0
C874 C 0.865 0.22835 0.57706 0.0
C875 C 0.90536 0.24597 0.52751 0.0
C876 C 0.91708 0.26979 0.50108 0.0
C877 C 0.87773 0.25187 0.55188 0.0
C878 C 0.90009 0.29933 0.50106 0.0
C879 C 0.87379 0.30545 0.52543 0.0
H880 H 0.27482 0.62539 0.38034 0.0
H881 H 0.22992 0.55247 0.31192 0.0
H882 H 0.22655 0.59114 0.25884 0.0
H883 H 0.23557 0.64759 0.23074 0.0
H884 H 0.28159 0.7188 0.30116 0.0
H885 H 0.28499 0.67982 0.35267 0.0
C886 C 0.26434 0.61754 0.35385 0.0
C887 C 0.2527 0.58504 0.35131 0.0
C888 C 0.26254 0.6403 0.32287 0.0
C889 C 0.23932 0.57658 0.31586 0.0
C890 C 0.23731 0.5991 0.28511 0.0
C891 C 0.24659 0.65474 0.25719 0.0
C892 C 0.25842 0.68731 0.26072 0.0
C893 C 0.24874 0.63134 0.28798 0.0
C894 C 0.27226 0.6948 0.29621 0.0
C895 C 0.27422 0.67214 0.32627 0.0
H896 H 0.80018 0.78187 0.45245 0.0
H897 H 0.85519 0.74061 0.36112 0.0
H898 H 0.90173 0.73706 0.4018 0.0
H899 H 0.92964 0.74562 0.46366 0.0
H900 H 0.87642 0.78641 0.55634 0.0
H901 H 0.8287 0.78975 0.51614 0.0
C902 C 0.82219 0.77199 0.44119 0.0
C903 C 0.82278 0.76166 0.40221 0.0
C904 C 0.85035 0.76973 0.46569 0.0
C905 C 0.85262 0.74906 0.38997 0.0
C906 C 0.87991 0.74689 0.41365 0.0
C907 C 0.90768 0.75509 0.47555 0.0
C908 C 0.90787 0.76549 0.51428 0.0
C909 C 0.87948 0.75713 0.45167 0.0
C910 C 0.87822 0.77787 0.52745 0.0
C911 C 0.85039 0.7799 0.50402 0.0
H912 H 0.21838 0.1483 0.77709 0.0
H913 H 0.29428 0.20164 0.72308 0.0
H914 H 0.29869 0.15987 0.67437 0.0
H915 H 0.28009 1.10753 0.64375 0.0
H916 H 0.20198 1.05637 0.69611 0.0
H917 H 0.19992 1.09643 0.74681 0.0
C918 C 0.23618 0.15094 0.75496 0.0
C919 C 0.25615 0.17917 0.7552 0.0
C920 C 0.23839 1.12638 0.72569 0.0
C921 C 0.27846 0.18099 0.72497 0.0
C922 C 0.28104 0.15669 0.69655 0.0
C923 C 0.26296 1.10459 0.66653 0.0
C924 C 0.24166 1.07733 0.66543 0.0
C925 C 0.26113 1.12904 0.69614 0.0
C926 C 0.2192 1.07591 0.69546 0.0
C927 C 0.21783 1.09932 0.72485 0.0
H928 H 0.82057 0.53634 0.96187 0.0
H929 H 0.87331 0.49485 0.05449 0.0
H930 H 0.92118 0.49148 0.01414 0.0
H931 H 0.94967 0.49938 0.95011 0.0
H932 H 0.89474 0.54156 0.85923 0.0
H933 H 0.84835 0.54523 0.90021 0.0
C934 C 0.84247 0.52674 0.97376 0.0
C935 C 0.84216 0.51617 0.01245 0.0
C936 C 0.87061 0.52472 0.94985 0.0
C937 C 0.87168 0.50357 0.02563 0.0
C938 C 0.89954 0.50152 1.0021 0.0
C939 C 0.92773 0.50957 0.93906 0.0
C940 C 0.92705 0.52006 0.90008 0.0
C941 C 0.89966 0.51189 0.96375 0.0
C942 C 0.89733 0.53299 0.88807 0.0
C943 C 0.87014 0.53521 0.9119 0.0
H944 H 0.51273 0.13622 0.2844 0.0
H945 H 0.47396 1.06358 0.20992 0.0
H946 H 0.47267 1.10239 0.15829 0.0
H947 H 0.48268 0.15715 0.13138 0.0
H948 H 0.51998 0.23168 0.20365 0.0
H949 H 0.52138 0.19312 0.25695 0.0
C950 C 0.50371 1.1287 0.25705 0.0
C951 C 0.49326 1.0957 0.25257 0.0
C952 C 0.50276 0.15207 0.22601 0.0
C953 C 0.48206 1.08788 0.21583 0.0
C954 C 0.48135 1.11045 0.18559 0.0
C955 C 0.49112 0.16535 0.15873 0.0
C956 C 0.5013 0.1983 0.16222 0.0
C957 C 0.49166 0.14266 0.18993 0.0
C958 C 0.51192 0.2072 0.19884 0.0
C959 C 0.51274 0.18474 0.22978 0.0
H960 H 0.37171 0.50188 0.48369 0.0
H961 H 0.30358 0.55211 0.55396 0.0
H962 H 0.34246 0.55402 0.60527 0.0
H963 H 0.39603 0.5412 0.63289 0.0
H964 H 0.466 0.4929 0.56382 0.0
H965 H 0.42731 0.4908 0.51122 0.0
C966 C 0.36521 0.51352 0.51003 0.0
C967 C 0.33353 0.52699 0.51358 0.0
C968 C 0.38857 0.51487 0.54063 0.0
C969 C 0.32691 0.5416 0.54895 0.0
C970 C 0.34949 0.54266 0.57892 0.0
C971 C 0.40318 0.53019 0.60638 0.0
C972 C 0.43485 0.51706 0.60357 0.0
C973 C 0.38045 0.52934 0.5755 0.0
C974 C 0.44249 0.50323 0.56804 0.0
C975 C 0.41998 0.50202 0.53753 0.0
H976 H 0.98117 0.16202 0.37792 0.0
H977 H 1.02738 0.23431 0.30942 0.0
H978 H 1.03005 0.19584 0.25627 0.0
H979 H 1.01994 0.13959 0.22795 0.0
H980 H 0.97204 1.06941 0.29857 0.0
H981 H 0.96971 1.10808 0.35 0.0
C982 C 0.99181 0.16976 0.35141 0.0
C983 C 1.00406 0.20203 0.34892 0.0
C984 C 0.99309 0.14715 0.32027 0.0
C985 C 1.01756 0.21035 0.31339 0.0
C986 C 1.01915 0.18794 0.28255 0.0
C987 C 1.00872 1.1326 0.25438 0.0
C988 C 0.99606 1.1003 0.25783 0.0
C989 C 1.00708 0.15593 0.28532 0.0
C990 C 0.982 1.09315 0.29344 0.0
C991 C 0.98064 1.11564 0.32359 0.0
H992 H 0.30388 0.78732 0.05662 0.0
H993 H 0.3549 0.73642 0.1444 0.0
H994 H 0.40165 0.73242 0.10386 0.0
H995 H 0.43091 0.74362 0.04323 0.0
H996 H 0.38122 0.79392 0.95423 0.0
H997 H 0.33341 0.79745 0.99416 0.0
C998 C 0.32499 0.77509 0.06705 0.0
C999 C 0.3245 0.76222 0.10495 0.0
C1000 C 0.35321 0.77264 0.0427 0.0
C1001 C 0.35326 0.74683 0.11631 0.0
C1002 C 0.38064 0.74443 0.09274 0.0
C1003 C 0.40968 0.75518 0.03207 0.0
C1004 C 0.41088 0.76819 0.99444 0.0
C1005 C 0.38134 0.75728 0.05579 0.0
C1006 C 0.38219 0.78325 0.98222 0.0
C1007 C 0.3543 0.78541 1.00549 0.0
H1008 H 0.74248 0.14447 0.72618 0.0
H1009 H 0.7786 0.21904 0.7998 0.0
H1010 H 0.78011 0.18088 0.85229 0.0
H1011 H 0.77082 1.12609 0.88006 0.0
H1012 H 0.73596 1.05001 0.80825 0.0
H1013 H 0.73461 1.0879 0.75435 0.0
C1014 C 0.75098 0.15256 0.75352 0.0
C1015 C 0.76063 0.18585 0.75753 0.0
C1016 C 0.752 1.12964 0.78497 0.0
C1017 C 0.77115 0.19446 0.79429 0.0
C1018 C 0.77197 0.17227 0.82498 0.0
C1019 C 0.76296 1.1174 0.85267 0.0
C1020 C 0.75347 1.08419 0.8495 0.0
C1021 C 0.7624 0.13974 0.82107 0.0
C1022 C 0.74354 1.07469 0.81283 0.0
C1023 C 0.74272 1.09676 0.78154 0.0
H1024 H 0.65321 0.27338 0.88982 0.0
H1025 H 0.57167 0.22225 0.84522 0.0
H1026 H 0.5958 0.22227 0.78213 0.0
H1027 H 0.64161 0.2338 0.74069 0.0
H1028 H 0.72309 0.28482 0.78484 0.0
H1029 H 0.69757 0.28819 0.84722 0.0
C1030 C 0.64075 0.26244 0.86615 0.0
C1031 C 0.6109 0.24769 0.87197 0.0
C1032 C 0.65475 0.26254 0.83007 0.0
C1033 C 0.59463 0.23391 0.84119 0.0
C1034 C 0.60847 0.23374 0.80525 0.0
C1035 C 0.65352 0.24588 0.76399 0.0
C1036 C 0.68386 0.25949 0.75853 0.0
C1037 C 0.63872 0.24752 0.79953 0.0
C1038 C 0.69929 0.27509 0.78855 0.0
C1039 C 0.68487 0.27662 0.82417 0.0
H1040 H 0.7392 0.91035 0.13489 0.0
H1041 H 0.76793 0.82051 0.08382 0.0
H1042 H 0.76522 0.84512 0.02083 0.0
H1043 H 0.75971 0.89364 0.98108 0.0
H1044 H 0.73405 0.98418 0.03292 0.0
H1045 H 0.73005 0.95788 0.09475 0.0
C1046 C 0.74419 0.89605 0.10985 0.0
C1047 C 0.75383 0.86379 0.11379 0.0
C1048 C 0.74343 0.91059 0.07397 0.0
C1049 C 0.76068 0.84551 0.0813 0.0
C1050 C 0.75917 0.85956 0.04537 0.0
C1051 C 0.7529 0.90743 0.0059 0.0
C1052 C 0.74757 0.94075 1.00275 0.0
C1053 C 0.7514 0.89231 0.04146 0.0
C1054 C 0.73865 0.9585 0.03493 0.0
C1055 C 0.73635 0.9435 0.07022 0.0
H1056 H 1.04121 1.03121 0.28649 0.0
H1057 H 1.12554 1.00718 0.222 0.0
H1058 H 0.1583 1.01131 0.27924 0.0
H1059 H 0.16326 1.02523 0.3467 0.0
H1060 H 1.07892 1.05092 0.41037 0.0
H1061 H 1.0458 1.04302 0.35418 0.0
C1062 C 1.06672 1.02665 0.28505 0.0
C1063 C 1.0811 1.01921 0.25019 0.0
C1064 C 1.08538 1.02969 0.31778 0.0
C1065 C 1.11411 1.01325 0.2486 0.0
C1066 C 0.1328 1.01562 0.28125 0.0
C1067 C 0.13758 1.02866 0.34833 0.0
C1068 C 1.12355 1.03881 0.38249 0.0
C1069 C 1.11875 1.02435 0.31586 0.0
C1070 C 1.0903 1.04354 0.38419 0.0
C1071 C 1.07134 1.03889 0.35217 0.0
H1072 H 0.99591 0.30169 0.53453 0.0
H1073 H 1.01422 0.39251 0.47863 0.0
H1074 H 1.01351 0.4202 0.53997 0.0
H1075 H 1.00391 0.41878 0.60876 0.0
H1076 H 0.98321 0.32807 0.66374 0.0
H1077 H 0.98848 0.29992 0.60318 0.0
C1078 C 0.99989 0.32754 0.53577 0.0
C1079 C 1.00475 0.34521 0.50224 0.0
C1080 C 0.99884 0.34319 0.57083 0.0
C1081 C 1.01014 0.37857 0.50417 0.0
C1082 C 1.00973 0.39433 0.53916 0.0
C1083 C 1.0011 0.39277 0.60752 0.0
C1084 C 0.99324 0.37543 0.64054 0.0
C1085 C 1.00358 0.37693 0.57257 0.0
C1086 C 0.9891 0.34186 0.63857 0.0
C1087 C 0.99213 0.32581 0.60404 0.0
H1088 H 0.65474 1.01076 0.15399 0.0
H1089 H 0.56871 1.03182 0.09143 0.0
H1090 H 0.5367 1.0245 0.14894 0.0
H1091 H 0.53395 1.01674 0.21813 0.0
H1092 H 0.62049 0.99704 0.28047 0.0
H1093 H 0.65157 0.99911 0.22192 0.0
C1094 C 0.62896 1.01364 0.15298 0.0
C1095 C 0.61412 1.02217 0.11872 0.0
C1096 C 0.61087 1.00981 0.18611 0.0
C1097 C 0.58065 1.02517 0.11751 0.0
C1098 C 0.56239 1.02118 0.1504 0.0
C1099 C 0.55956 1.01258 0.21875 0.0
C1100 C 0.57507 1.00723 0.25348 0.0
C1101 C 0.57733 1.01417 0.18501 0.0
C1102 C 0.60816 1.00159 0.25402 0.0
C1103 C 0.62593 1.00279 0.2206 0.0
H1104 H 0.50292 0.42883 0.91717 0.0
H1105 H 0.49306 0.34274 0.8497 0.0
H1106 H 0.49789 0.30929 0.90662 0.0
H1107 H 0.49948 0.30504 0.97615 0.0
H1108 H 0.50873 0.39135 0.04342 0.0
H1109 H 0.50945 0.42431 0.98598 0.0
C1110 C 0.502 0.40273 0.91498 0.0
C1111 C 0.49724 0.38824 0.87949 0.0
C1112 C 0.50434 0.38378 0.94776 0.0
C1113 C 0.49676 0.35441 0.87678 0.0
C1114 C 0.49928 0.33531 0.9093 0.0
C1115 C 0.50199 0.33102 0.97812 0.0
C1116 C 0.50349 0.34588 0.01381 0.0
C1117 C 0.50225 0.3498 0.94502 0.0
C1118 C 0.50709 0.37949 0.01616 0.0
C1119 C 0.50751 0.39832 0.98338 0.0
H1120 H 0.21531 0.26579 0.72234 0.0
H1121 H 1.1275 0.2711 0.78642 0.0
H1122 H 1.09651 0.27038 0.72793 0.0
H1123 H 1.09416 0.26373 0.65915 0.0
H1124 H 0.18144 0.25795 0.5944 0.0
H1125 H 0.21294 0.26399 0.65246 0.0
C1126 C 0.1894 0.26704 0.72336 0.0
C1127 C 0.17361 0.26783 0.75851 0.0
C1128 C 0.1717 0.26647 0.68958 0.0
C1129 C 0.14012 0.26998 0.75963 0.0
C1130 C 1.12238 0.26958 0.72623 0.0
C1131 C 1.12009 0.26393 0.65781 0.0
C1132 C 0.13552 0.25993 0.6228 0.0
C1133 C 0.13789 0.26704 0.69117 0.0
C1134 C 0.16909 0.26096 0.62115 0.0
C1135 C 0.18707 0.26421 0.65431 0.0
H1136 H 0.30915 0.96214 0.48171 0.0
H1137 H 0.20764 0.94668 0.49206 0.0
H1138 H 0.20605 0.92441 0.42765 0.0
H1139 H 0.23508 0.90477 0.37125 0.0
H1140 H 0.33605 0.92506 0.36007 0.0
H1141 H 0.33625 0.95064 0.42207 0.0
C1142 C 0.28663 0.95423 0.46965 0.0
C1143 C 0.25866 0.95538 0.49144 0.0
C1144 C 0.2859 0.94229 0.4327 0.0
C1145 C 0.22949 0.94559 0.47563 0.0
C1146 C 0.22862 0.93291 0.43894 0.0
C1147 C 0.25696 0.91544 0.38193 0.0
C1148 C 0.2857 0.91216 0.36147 0.0
C1149 C 0.25687 0.93051 0.41752 0.0
C1150 C 0.31382 0.92626 0.37578 0.0
C1151 C 0.31397 0.94101 0.41116 0.0
H1152 H 1.08558 0.76114 0.34147 0.0
H1153 H 0.16921 0.76883 0.41229 0.0
H1154 H 0.20313 0.77424 0.35613 0.0
H1155 H 0.2093 0.77287 0.28679 0.0
H1156 H 1.12555 0.76509 0.21612 0.0
H1157 H 1.09136 0.76359 0.27229 0.0
C1158 C 1.11123 0.76413 0.34454 0.0
C1159 C 1.12493 0.76433 0.38087 0.0
C1160 C 0.13054 0.76697 0.31219 0.0
C1161 C 0.15811 0.76878 0.38458 0.0
C1162 C 0.17752 0.77164 0.3525 0.0
C1163 C 0.18354 0.77105 0.28377 0.0
C1164 C 0.16993 0.76863 0.24752 0.0
C1165 C 0.16405 0.77019 0.31617 0.0
C1166 C 0.13655 0.76667 0.24382 0.0
C1167 C 1.11701 0.7658 0.27589 0.0
H1168 H 0.25501 0.41951 0.64661 0.0
H1169 H 0.26589 0.32603 0.59488 0.0
H1170 H 0.2585 0.35 0.53198 0.0
H1171 H 0.25267 0.39828 0.49177 0.0
H1172 H 0.24609 0.49202 0.54414 0.0
H1173 H 0.24738 0.46727 0.60681 0.0
C1174 C 0.25523 0.40439 0.62154 0.0
C1175 C 0.26094 0.37119 0.62508 0.0
C1176 C 0.25177 0.41842 0.58569 0.0
C1177 C 0.2617 0.35175 0.59255 0.0
C1178 C 0.25746 0.36542 0.55672 0.0
C1179 C 0.2512 0.41316 0.51696 0.0
C1180 C 0.24915 0.44684 0.51351 0.0
C1181 C 0.25307 0.39883 0.55292 0.0
C1182 C 0.24738 0.46599 0.54621 0.0
C1183 C 0.24832 0.45189 0.58203 0.0
H1184 H 0.54288 0.51553 0.78297 0.0
H1185 H 0.62932 0.51695 0.71609 0.0
H1186 H 0.66156 0.51768 0.77375 0.0
H1187 H 0.66494 0.52234 0.84281 0.0
H1188 H 0.57876 0.52128 0.90999 0.0
H1189 H 0.54649 0.51536 0.85254 0.0
C1190 C 0.56878 0.5158 0.78114 0.0
C1191 C 0.58382 0.51684 0.74557 0.0
C1192 C 0.5871 0.51629 0.81434 0.0
C1193 C 0.61732 0.51657 0.7433 0.0
C1194 C 0.63573 0.51699 0.77619 0.0
C1195 C 0.63909 0.52063 0.84478 0.0
C1196 C 0.62411 0.52266 0.88029 0.0
C1197 C 0.62084 0.5176 0.81178 0.0
C1198 C 0.59071 0.51976 0.88281 0.0
C1199 C 0.5723 0.5166 0.85003 0.0
H1200 H 0.43837 0.85514 1.00348 0.0
H1201 H 0.53595 0.82412 0.01846 0.0
H1202 H 0.53643 0.84682 0.08245 0.0
H1203 H 0.50876 0.87557 0.13415 0.0
H1204 H 0.41101 0.90617 0.11841 0.0
H1205 H 0.41081 0.88329 0.05484 0.0
C1206 C 0.45979 0.85355 0.02071 0.0
C1207 C 0.48719 0.83839 0.00631 0.0
C1208 C 0.45977 0.86641 0.05738 0.0
C1209 C 0.51466 0.83598 0.02898 0.0
C1210 C 0.51491 0.8489 0.06553 0.0
C1211 C 0.48752 0.87738 0.11667 0.0
C1212 C 0.45992 0.89245 0.13102 0.0
C1213 C 0.48759 0.86424 0.08001 0.0
C1214 C 0.43242 0.89428 0.10824 0.0
C1215 C 0.43233 0.8814 0.0718 0.0
H1216 H 1.11289 0.50569 0.62606 0.0
H1217 H 1.11613 0.60988 0.6278 0.0
H1218 H 1.09005 0.61024 0.68948 0.0
H1219 H 1.06894 0.58114 0.74434 0.0
H1220 H 1.06774 0.47714 0.74477 0.0
H1221 H 1.09085 0.47642 0.68092 0.0
C1222 C 1.10806 0.52846 0.64002 0.0
C1223 C 1.11652 0.55769 0.62227 0.0
C1224 C 1.09369 0.52851 0.67594 0.0
C1225 C 1.10949 0.58702 0.64047 0.0
C1226 C 1.09486 0.58728 0.67595 0.0
C1227 C 1.07386 0.55834 0.73043 0.0
C1228 C 1.06672 0.52922 0.74888 0.0
C1229 C 1.08729 0.5582 0.69413 0.0
C1230 C 1.07279 0.49981 0.73067 0.0
C1231 C 1.08611 0.49942 0.69435 0.0
H1232 H 0.98531 0.92958 0.41949 0.0
H1233 H 1.00167 0.84322 0.35428 0.0
H1234 H 1.0072 0.81181 0.41266 0.0
H1235 H 1.00315 0.80832 0.48206 0.0
H1236 H 0.98704 0.89474 0.54726 0.0
H1237 H 0.98564 0.92683 0.48904 0.0
C1238 C 0.99019 0.9039 0.41815 0.0
C1239 C 0.99273 0.88862 0.38275 0.0
C1240 C 0.99314 0.88604 0.45174 0.0
C1241 C 0.99969 0.85549 0.38126 0.0
C1242 C 1.00265 0.83751 0.41458 0.0
C1243 C 0.99949 0.83421 0.48344 0.0
C1244 C 0.99464 0.84917 0.51866 0.0
C1245 C 0.99876 0.85243 0.44993 0.0
C1246 C 0.99052 0.88274 0.52033 0.0
C1247 C 0.98968 0.90105 0.4871 0.0
H1248 H 0.57885 0.74835 0.1779 0.0
H1249 H 0.66044 0.7653 0.10566 0.0
H1250 H 0.69487 0.77089 0.16122 0.0
H1251 H 0.70232 0.76723 0.23018 0.0
H1252 H 0.62062 0.75099 0.30248 0.0
H1253 H 0.58562 0.74878 0.24707 0.0
C1254 C 0.60417 0.75333 0.17441 0.0
C1255 C 0.61718 0.75612 0.13783 0.0
C1256 C 0.62378 0.75638 0.20642 0.0
C1257 C 0.64988 0.76317 0.13359 0.0
C1258 C 0.66959 0.76616 0.1653 0.0
C1259 C 0.67682 0.76331 0.23371 0.0
C1260 C 0.66403 0.75872 0.27012 0.0
C1261 C 0.65689 0.76223 0.2018 0.0
C1262 C 0.63096 0.75428 0.27459 0.0
C1263 C 0.61098 0.75298 0.24296 0.0
H1264 H 0.78372 0.46971 0.98059 0.0
H1265 H 0.72817 0.39378 0.03233 0.0
H1266 H 0.73207 0.36184 0.97393 0.0
H1267 H 0.75275 0.35538 0.90862 0.0
H1268 H 0.81137 0.43037 0.85977 0.0
H1269 H 0.80502 0.46305 0.91689 0.0
C1270 C 0.77235 0.44623 0.97907 0.0
C1271 C 0.75567 0.43397 0.01047 0.0
C1272 C 0.77543 0.42793 0.94607 0.0
C1273 C 0.74126 0.40346 0.00836 0.0
C1274 C 0.74347 0.38531 0.97506 0.0
C1275 C 0.76392 0.37896 0.91062 0.0
C1276 C 0.78243 0.39066 0.88032 0.0
C1277 C 0.76069 0.39725 0.94383 0.0
C1278 C 0.79717 0.42099 0.88302 0.0
C1279 C 0.79347 0.43964 0.91551 0.0
H1280 H 0.49067 0.34315 0.33921 0.0
H1281 H 0.50394 0.42247 0.26133 0.0
H1282 H 0.49108 0.46062 0.31086 0.0
H1283 H 0.45515 0.46811 0.36429 0.0
H1284 H 0.43316 0.38808 0.4378 0.0
H1285 H 0.47106 0.35418 0.40359 0.0
C1286 C 0.49183 0.36886 0.33354 0.0
C1287 C 0.49637 0.3798 0.29617 0.0
C1288 C 0.48198 0.39069 0.36149 0.0
C1289 C 0.4996 0.41315 0.28954 0.0
C1290 C 0.49187 0.43516 0.3179 0.0
C1291 C 0.46003 0.44383 0.37428 0.0
C1292 C 0.43997 0.42979 0.40167 0.0
C1293 C 0.47973 0.42388 0.35245 0.0
C1294 C 0.44747 0.39887 0.41551 0.0
C1295 C 0.46877 0.37932 0.39552 0.0
H1296 H 0.62425 0.58889 0.35174 0.0
H1297 H 0.6994 0.55444 0.42465 0.0
H1298 H 0.66407 0.51285 0.44969 0.0
H1299 H 0.60874 0.50427 0.46901 0.0
H1300 H 0.53213 0.54672 0.40449 0.0
H1301 H 0.57039 0.56593 0.35731 0.0
C1302 C 0.6332 0.57117 0.37176 0.0
C1303 C 0.66362 0.57562 0.3879 0.0
C1304 C 0.61187 0.54927 0.38843 0.0
C1305 C 0.67571 0.55201 0.41259 0.0
C1306 C 0.65529 0.52848 0.42736 0.0
C1307 C 0.6002 0.51607 0.44349 0.0
C1308 C 0.56801 0.52565 0.44106 0.0
C1309 C 0.6226 0.52941 0.41844 0.0
C1310 C 0.55706 0.54008 0.40745 0.0
C1311 C 0.57903 0.55146 0.38076 0.0
H1312 H 0.41722 0.87107 0.60191 0.0
H1313 H 0.44759 0.9582 0.65799 0.0
H1314 H 0.49549 0.93117 0.68068 0.0
H1315 H 0.51461 0.87958 0.70415 0.0
H1316 H 0.48096 0.7911 0.6541 0.0
H1317 H 0.4499 0.82174 0.60803 0.0
C1318 C 0.43509 0.88441 0.61774 0.0
C1319 C 0.42833 0.91599 0.62982 0.0
C1320 C 0.46174 0.86819 0.63243 0.0
C1321 C 0.45196 0.93359 0.64908 0.0
C1322 C 0.47928 0.91802 0.66239 0.0
C1323 C 0.50199 0.86682 0.68192 0.0
C1324 C 0.49773 0.83321 0.68449 0.0
C1325 C 0.48256 0.88464 0.65734 0.0
C1326 C 0.48298 0.81717 0.65403 0.0
C1327 C 0.4648 0.83471 0.62799 0.0
H1328 H 0.17113 0.55318 0.13393 0.0
H1329 H 1.0994 0.62481 0.15866 0.0
H1330 H 1.05797 0.58966 0.13382 0.0
H1331 H 1.04763 0.55044 0.08397 0.0
H1332 H 1.11992 0.48085 0.05424 0.0
H1333 H 0.15509 0.50229 0.10319 0.0
C1334 C 0.1462 0.56033 0.13549 0.0
C1335 C 0.13843 0.59198 0.14636 0.0
C1336 C 1.12265 0.54063 0.11929 0.0
C1337 C 1.10608 0.60078 0.14961 0.0
C1338 C 1.08233 0.58078 0.13494 0.0
C1339 C 1.07029 0.53864 0.08955 0.0
C1340 C 1.08218 0.51568 0.06389 0.0
C1341 C 1.09095 0.55225 0.11634 0.0
C1342 C 1.11097 0.49975 0.07259 0.0
C1343 C 0.13126 0.51225 0.10031 0.0
H1344 H 0.91303 0.88028 0.91268 0.0
H1345 H 0.97126 0.95248 0.85768 0.0
H1346 H 1.00556 0.91037 0.83172 0.0
H1347 H 1.00438 0.85559 0.80634 0.0
H1348 H 0.94239 0.78418 0.85662 0.0
H1349 H 0.92527 0.82312 0.90421 0.0
C1350 C 0.9342 0.88703 0.89674 0.0
C1351 C 0.93862 0.91929 0.88528 0.0
C1352 C 0.95272 0.86261 0.88032 0.0
C1353 C 0.96664 0.92761 0.86549 0.0
C1354 C 0.98615 0.9035 0.85045 0.0
C1355 C 0.98852 0.8479 0.82896 0.0
C1356 C 0.97319 0.81771 0.82677 0.0
C1357 C 0.97732 0.87103 0.85464 0.0
C1358 C 0.9535 0.80782 0.85694 0.0
C1359 C 0.94343 0.83022 0.8839 0.0
H1360 H 0.76898 0.45367 0.33401 0.0
H1361 H 0.72001 0.3724 0.28497 0.0
H1362 H 0.74193 0.33701 0.33367 0.0
H1363 H 0.79125 0.32762 0.36999 0.0
H1364 H 0.84501 0.40917 0.41122 0.0
H1365 H 0.80434 0.44576 0.38791 0.0
C1366 C 0.76152 0.42861 0.33524 0.0
C1367 C 0.74486 0.41506 0.3046 0.0
C1368 C 0.77613 0.40813 0.36161 0.0
C1369 C 0.73416 0.38296 0.30746 0.0
C1370 C 0.74707 0.36262 0.33504 0.0
C1371 C 0.79326 0.35333 0.37526 0.0
C1372 C 0.82188 0.3658 0.39016 0.0
C1373 C 0.77088 0.37446 0.35926 0.0
C1374 C 0.82367 0.3989 0.39872 0.0
C1375 C 0.80051 0.42001 0.38492 0.0
H1376 H 1.09833 1.1013 0.84667 0.0
H1377 H 0.17858 1.05665 0.90224 0.0
H1378 H 0.14325 1.017 0.93128 0.0
H1379 H 1.09049 1.01196 0.96019 0.0
H1380 H 1.01052 1.06373 0.9131 0.0
H1381 H 1.04396 1.08264 0.86087 0.0
C1382 C 1.10811 1.0818 0.86363 0.0
C1383 C 0.14055 1.08275 0.874 0.0
C1384 C 1.08728 1.06094 0.88284 0.0
C1385 C 0.15348 1.0569 0.89469 0.0
C1386 C 0.13314 1.03449 0.91183 0.0
C1387 C 1.07989 1.02583 0.93733 0.0
C1388 C 1.04863 1.03785 0.94129 0.0
C1389 C 1.09992 1.03866 0.90927 0.0
C1390 C 1.03491 1.0551 0.91111 0.0
C1391 C 1.05417 1.06624 0.88152 0.0
H1392 H 0.77275 1.10206 0.50469 0.0
H1393 H 0.75785 0.18847 0.43908 0.0
H1394 H 0.73295 0.15723 0.38911 0.0
H1395 H 0.69621 1.11208 0.37978 0.0
H1396 H 0.70245 1.02839 0.45205 0.0
H1397 H 0.74936 1.05113 0.48333 0.0
C1398 C 0.7654 1.11371 0.47855 0.0
C1399 C 0.76492 0.1476 0.4767 0.0
C1400 C 0.74795 1.09603 0.45184 0.0
C1401 C 0.75727 0.16246 0.44202 0.0
C1402 C 0.74236 0.14461 0.4136 0.0
C1403 C 0.70884 1.09806 0.401 0.0
C1404 C 0.69528 1.06932 0.41483 0.0
C1405 C 0.73436 1.11226 0.42046 0.0
C1406 C 0.71203 1.05112 0.44191 0.0
C1407 C 0.73876 1.0642 0.45988 0.0
loop_
_geom_bond_atom_site_label_1
_geom_bond_atom_site_label_2
_geom_bond_distance
_geom_bond_site_symmetry_2
_ccdc_geom_bond_type
Tb0 C2 2.809 . S
Tb0 O20 2.484 . S
Tb0 O21 2.440 . S
Tb0 O22 2.658 1_556 S
Tb0 O23 2.409 1_556 S
Tb0 O24 2.378 1_556 S
Tb0 O28 2.325 . S
Tb0 O31 2.341 . S
Tb1 C11 2.809 . S
Tb1 O22 2.325 . S
Tb1 O25 2.341 . S
Tb1 O26 2.484 . S
Tb1 O27 2.440 . S
Tb1 O28 2.658 1_554 S
Tb1 O29 2.409 . S
Tb1 O30 2.378 . S
C2 Tb0 2.809 . S
C2 C3 1.514 . S
C2 O20 1.248 . S
C2 O21 1.266 . S
C3 C2 1.514 . S
C3 C4 1.359 . S
C3 C8 1.348 . S
C4 C3 1.359 . S
C4 C5 1.380 . S
C4 H32 0.929 . S
C5 C4 1.380 . S
C5 C6 1.347 . S
C5 H33 0.931 . S
C6 C5 1.347 . S
C6 C7 1.369 . S
C7 C6 1.369 . S
C7 C8 1.408 . S
C7 H34 0.930 . S
C8 C3 1.348 . S
C8 C7 1.408 . S
C8 H35 0.930 . S
C9 O22 1.281 . S
C9 O23 1.254 . S
C10 O24 1.236 . S
C10 O25 1.266 . S
C11 Tb1 2.809 . S
C11 C12 1.514 . S
C11 O26 1.248 . S
C11 O27 1.266 . S
C12 C11 1.514 . S
C12 C13 1.359 . S
C12 C17 1.348 . S
C13 C12 1.359 . S
C13 C14 1.380 . S
C13 H36 0.929 . S
C14 C13 1.380 . S
C14 C15 1.347 . S
C14 H37 0.931 . S
C15 C14 1.347 . S
C15 C16 1.369 . S
C16 C15 1.369 . S
C16 C17 1.408 . S
C16 H38 0.930 . S
C17 C12 1.348 . S
C17 C16 1.408 . S
C17 H39 0.930 . S
C18 O28 1.281 . S
C18 O29 1.254 1_556 S
C19 O30 1.236 . S
C19 O31 1.266 1_554 S
O20 Tb0 2.484 . S
O20 C2 1.248 . S
O21 Tb0 2.440 . S
O21 C2 1.266 . S
O22 Tb0 2.658 1_554 S
O22 Tb1 2.325 . S
O22 C9 1.281 . S
O23 Tb0 2.409 1_554 S
O23 C9 1.254 . S
O24 Tb0 2.378 1_554 S
O24 C10 1.236 . S
O25 Tb1 2.341 . S
O25 C10 1.266 . S
O26 Tb1 2.484 . S
O26 C11 1.248 . S
O27 Tb1 2.440 . S
O27 C11 1.266 . S
O28 Tb0 2.325 . S
O28 Tb1 2.658 1_556 S
O28 C18 1.281 . S
O29 Tb1 2.409 . S
O29 C18 1.254 1_554 S
O30 Tb1 2.378 . S
O30 C19 1.236 . S
O31 Tb0 2.341 . S
O31 C19 1.266 1_556 S
H32 C4 0.929 . S
H33 C5 0.931 . S
H34 C7 0.930 . S
H35 C8 0.930 . S
H36 C13 0.929 . S
H37 C14 0.931 . S
H38 C16 0.930 . S
H39 C17 0.930 . S
Tb40 C42 2.809 . S
Tb40 O60 2.484 . S
Tb40 O61 2.440 . S
Tb40 O62 2.658 . S
Tb40 O63 2.409 . S
Tb40 O64 2.378 . S
Tb40 O68 2.325 . S
Tb40 O71 2.341 . S
Tb41 C51 2.809 . S
Tb41 O62 2.325 . S
Tb41 O65 2.341 . S
Tb41 O66 2.484 . S
Tb41 O67 2.440 . S
Tb41 O68 2.658 . S
Tb41 O69 2.409 . S
Tb41 O70 2.378 . S
C42 Tb40 2.809 . S
C42 C43 1.514 . S
C42 O60 1.248 . S
C42 O61 1.266 . S
C43 C42 1.514 . S
C43 C44 1.359 . S
C43 C48 1.348 . S
C44 C43 1.359 . S
C44 C45 1.380 . S
C44 H72 0.929 . S
C45 C44 1.380 . S
C45 C46 1.347 . S
C45 H73 0.931 . S
C46 C45 1.347 . S
C46 C47 1.369 . S
C47 C46 1.369 . S
C47 C48 1.408 . S
C47 H74 0.930 . S
C48 C43 1.348 . S
C48 C47 1.408 . S
C48 H75 0.930 . S
C49 O62 1.281 . S
C49 O63 1.254 . S
C50 O64 1.236 . S
C50 O65 1.266 . S
C51 Tb41 2.809 . S
C51 C52 1.514 . S
C51 O66 1.248 . S
C51 O67 1.266 . S
C52 C51 1.514 . S
C52 C53 1.359 . S
C52 C57 1.348 . S
C53 C52 1.359 . S
C53 C54 1.380 . S
C53 H76 0.929 . S
C54 C53 1.380 . S
C54 C55 1.347 . S
C54 H77 0.931 . S
C55 C54 1.347 . S
C55 C56 1.369 . S
C56 C55 1.369 . S
C56 C57 1.408 . S
C56 H78 0.930 . S
C57 C52 1.348 . S
C57 C56 1.408 . S
C57 H79 0.930 . S
C58 O68 1.281 . S
C58 O69 1.254 . S
C59 O70 1.236 . S
C59 O71 1.266 . S
O60 Tb40 2.484 . S
O60 C42 1.248 . S
O61 Tb40 2.440 . S
O61 C42 1.266 . S
O62 Tb40 2.658 . S
O62 Tb41 2.325 . S
O62 C49 1.281 . S
O63 Tb40 2.409 . S
O63 C49 1.254 . S
O64 Tb40 2.378 . S
O64 C50 1.236 . S
O65 Tb41 2.341 . S
O65 C50 1.266 . S
O66 Tb41 2.484 . S
O66 C51 1.248 . S
O67 Tb41 2.440 . S
O67 C51 1.266 . S
O68 Tb40 2.325 . S
O68 Tb41 2.658 . S
O68 C58 1.281 . S
O69 Tb41 2.409 . S
O69 C58 1.254 . S
O70 Tb41 2.378 . S
O70 C59 1.236 . S
O71 Tb40 2.341 . S
O71 C59 1.266 . S
H72 C44 0.929 . S
H73 C45 0.931 . S
H74 C47 0.930 . S
H75 C48 0.930 . S
H76 C53 0.929 . S
H77 C54 0.931 . S
H78 C56 0.930 . S
H79 C57 0.930 . S
Tb80 C82 2.809 . S
Tb80 O100 2.484 . S
Tb80 O101 2.440 . S
Tb80 O102 2.658 . S
Tb80 O103 2.409 . S
Tb80 O104 2.378 . S
Tb80 O108 2.325 . S
Tb80 O111 2.341 . S
Tb81 C91 2.809 . S
Tb81 O102 2.325 . S
Tb81 O105 2.341 . S
Tb81 O106 2.484 . S
Tb81 O107 2.440 . S
Tb81 O108 2.658 . S
Tb81 O109 2.409 . S
Tb81 O110 2.378 . S
C82 Tb80 2.809 . S
C82 C83 1.514 . S
C82 O100 1.248 . S
C82 O101 1.266 . S
C83 C82 1.514 . S
C83 C84 1.359 . S
C83 C88 1.348 . S
C84 C83 1.359 . S
C84 C85 1.380 . S
C84 H112 0.929 . S
C85 C84 1.380 . S
C85 C86 1.347 1_455 S
C85 H113 0.931 1_455 S
C86 C85 1.347 1_655 S
C86 C87 1.367 1_655 S
C87 C86 1.367 1_455 S
C87 C88 1.414 . S
C87 H114 0.928 1_455 S
C88 C83 1.348 . S
C88 C87 1.414 . S
C88 H115 0.930 . S
C89 O102 1.281 . S
C89 O103 1.254 . S
C90 O104 1.236 . S
C90 O105 1.266 . S
C91 Tb81 2.809 . S
C91 C92 1.514 . S
C91 O106 1.248 . S
C91 O107 1.266 . S
C92 C91 1.514 . S
C92 C93 1.359 . S
C92 C97 1.348 . S
C93 C92 1.359 . S
C93 C94 1.380 . S
C93 H116 0.929 . S
C94 C93 1.380 . S
C94 C95 1.347 . S
C94 H117 0.931 . S
C95 C94 1.347 . S
C95 C96 1.369 . S
C96 C95 1.369 . S
C96 C97 1.408 . S
C96 H118 0.930 . S
C97 C92 1.348 . S
C97 C96 1.408 . S
C97 H119 0.930 . S
C98 O108 1.281 . S
C98 O109 1.254 . S
C99 O110 1.236 . S
C99 O111 1.266 . S
O100 Tb80 2.484 . S
O100 C82 1.248 . S
O101 Tb80 2.440 . S
O101 C82 1.266 . S
O102 Tb80 2.658 . S
O102 Tb81 2.325 . S
O102 C89 1.281 . S
O103 Tb80 2.409 . S
O103 C89 1.254 . S
O104 Tb80 2.378 . S
O104 C90 1.236 . S
O105 Tb81 2.341 . S
O105 C90 1.266 . S
O106 Tb81 2.484 . S
O106 C91 1.248 . S
O107 Tb81 2.440 . S
O107 C91 1.266 . S
O108 Tb80 2.325 . S
O108 Tb81 2.658 . S
O108 C98 1.281 . S
O109 Tb81 2.409 . S
O109 C98 1.254 . S
O110 Tb81 2.378 . S
O110 C99 1.236 . S
O111 Tb80 2.341 . S
O111 C99 1.266 . S
H112 C84 0.929 . S
H113 C85 0.931 1_655 S
H114 C87 0.928 1_655 S
H115 C88 0.930 . S
H116 C93 0.929 . S
H117 C94 0.931 . S
H118 C96 0.930 . S
H119 C97 0.930 . S
Tb120 C122 2.809 . S
Tb120 O140 2.484 . S
Tb120 O141 2.440 . S
Tb120 O142 2.658 . S
Tb120 O143 2.409 . S
Tb120 O144 2.378 . S
Tb120 O148 2.325 . S
Tb120 O151 2.341 . S
Tb121 C131 2.809 . S
Tb121 O142 2.325 . S
Tb121 O145 2.341 . S
Tb121 O146 2.484 . S
Tb121 O147 2.440 . S
Tb121 O148 2.658 . S
Tb121 O149 2.409 . S
Tb121 O150 2.378 . S
C122 Tb120 2.809 . S
C122 C123 1.514 . S
C122 O140 1.248 . S
C122 O141 1.266 . S
C123 C122 1.514 . S
C123 C124 1.359 . S
C123 C128 1.348 . S
C124 C123 1.359 . S
C124 C125 1.380 . S
C124 H152 0.929 . S
C125 C124 1.380 . S
C125 C126 1.347 . S
C125 H153 0.931 . S
C126 C125 1.347 . S
C126 C127 1.369 . S
C127 C126 1.369 . S
C127 C128 1.408 . S
C127 H154 0.930 . S
C128 C123 1.348 . S
C128 C127 1.408 . S
C128 H155 0.930 . S
C129 O142 1.281 . S
C129 O143 1.254 . S
C130 O144 1.236 . S
C130 O145 1.266 . S
C131 Tb121 2.809 . S
C131 C132 1.514 . S
C131 O146 1.248 . S
C131 O147 1.266 . S
C132 C131 1.514 . S
C132 C133 1.359 . S
C132 C137 1.348 . S
C133 C132 1.359 . S
C133 C134 1.380 . S
C133 H156 0.929 . S
C134 C133 1.380 . S
C134 C135 1.347 . S
C134 H157 0.931 . S
C135 C134 1.347 . S
C135 C136 1.369 . S
C136 C135 1.369 . S
C136 C137 1.408 . S
C136 H158 0.930 . S
C137 C132 1.348 . S
C137 C136 1.408 . S
C137 H159 0.930 . S
C138 O148 1.281 . S
C138 O149 1.254 . S
C139 O150 1.236 . S
C139 O151 1.266 . S
O140 Tb120 2.484 . S
O140 C122 1.248 . S
O141 Tb120 2.440 . S
O141 C122 1.266 . S
O142 Tb120 2.658 . S
O142 Tb121 2.325 . S
O142 C129 1.281 . S
O143 Tb120 2.409 . S
O143 C129 1.254 . S
O144 Tb120 2.378 . S
O144 C130 1.236 . S
O145 Tb121 2.341 . S
O145 C130 1.266 . S
O146 Tb121 2.484 . S
O146 C131 1.248 . S
O147 Tb121 2.440 . S
O147 C131 1.266 . S
O148 Tb120 2.325 . S
O148 Tb121 2.658 . S
O148 C138 1.281 . S
O149 Tb121 2.409 . S
O149 C138 1.254 . S
O150 Tb121 2.378 . S
O150 C139 1.236 . S
O151 Tb120 2.341 . S
O151 C139 1.266 . S
H152 C124 0.929 . S
H153 C125 0.931 . S
H154 C127 0.930 . S
H155 C128 0.930 . S
H156 C133 0.929 . S
H157 C134 0.931 . S
H158 C136 0.930 . S
H159 C137 0.930 . S
Tb160 C162 2.809 . S
Tb160 O180 2.484 . S
Tb160 O181 2.440 . S
Tb160 O182 2.658 1_556 S
Tb160 O183 2.409 . S
Tb160 O184 2.378 . S
Tb160 O188 2.325 . S
Tb160 O191 2.341 . S
Tb161 C171 2.809 . S
Tb161 O182 2.325 . S
Tb161 O185 2.341 . S
Tb161 O186 2.484 . S
Tb161 O187 2.440 . S
Tb161 O188 2.658 1_554 S
Tb161 O189 2.409 1_554 S
Tb161 O190 2.378 1_554 S
C162 Tb160 2.809 . S
C162 C163 1.514 . S
C162 O180 1.248 . S
C162 O181 1.266 . S
C163 C162 1.514 . S
C163 C164 1.359 . S
C163 C168 1.348 . S
C164 C163 1.359 . S
C164 C165 1.380 . S
C164 H192 0.929 . S
C165 C164 1.380 . S
C165 C166 1.347 . S
C165 H193 0.931 . S
C166 C165 1.347 . S
C166 C167 1.369 . S
C167 C166 1.369 . S
C167 C168 1.408 . S
C167 H194 0.930 . S
C168 C163 1.348 . S
C168 C167 1.408 . S
C168 H195 0.930 . S
C169 O182 1.281 . S
C169 O183 1.254 1_554 S
C170 O184 1.236 . S
C170 O185 1.266 1_556 S
C171 Tb161 2.809 . S
C171 C172 1.514 . S
C171 O186 1.248 . S
C171 O187 1.266 . S
C172 C171 1.514 . S
C172 C173 1.359 . S
C172 C177 1.348 . S
C173 C172 1.359 . S
C173 C174 1.380 . S
C173 H196 0.929 . S
C174 C173 1.380 . S
C174 C175 1.347 . S
C174 H197 0.931 . S
C175 C174 1.347 . S
C175 C176 1.369 . S
C176 C175 1.369 . S
C176 C177 1.408 . S
C176 H198 0.930 . S
C177 C172 1.348 . S
C177 C176 1.408 . S
C177 H199 0.930 . S
C178 O188 1.281 . S
C178 O189 1.254 . S
C179 O190 1.236 . S
C179 O191 1.266 . S
O180 Tb160 2.484 . S
O180 C162 1.248 . S
O181 Tb160 2.440 . S
O181 C162 1.266 . S
O182 Tb160 2.658 1_554 S
O182 Tb161 2.325 . S
O182 C169 1.281 . S
O183 Tb160 2.409 . S
O183 C169 1.254 1_556 S
O184 Tb160 2.378 . S
O184 C170 1.236 . S
O185 Tb161 2.341 . S
O185 C170 1.266 1_554 S
O186 Tb161 2.484 . S
O186 C171 1.248 . S
O187 Tb161 2.440 . S
O187 C171 1.266 . S
O188 Tb160 2.325 . S
O188 Tb161 2.658 1_556 S
O188 C178 1.281 . S
O189 Tb161 2.409 1_556 S
O189 C178 1.254 . S
O190 Tb161 2.378 1_556 S
O190 C179 1.236 . S
O191 Tb160 2.341 . S
O191 C179 1.266 . S
H192 C164 0.929 . S
H193 C165 0.931 . S
H194 C167 0.930 . S
H195 C168 0.930 . S
H196 C173 0.929 . S
H197 C174 0.931 . S
H198 C176 0.930 . S
H199 C177 0.930 . S
Tb200 C202 2.809 . S
Tb200 O220 2.484 . S
Tb200 O221 2.440 . S
Tb200 O222 2.658 . S
Tb200 O223 2.409 . S
Tb200 O224 2.378 . S
Tb200 O228 2.325 . S
Tb200 O231 2.341 . S
Tb201 C211 2.809 . S
Tb201 O222 2.325 . S
Tb201 O225 2.341 . S
Tb201 O226 2.484 . S
Tb201 O227 2.440 . S
Tb201 O228 2.658 . S
Tb201 O229 2.409 . S
Tb201 O230 2.378 . S
C202 Tb200 2.809 . S
C202 C203 1.514 . S
C202 O220 1.248 . S
C202 O221 1.266 . S
C203 C202 1.514 . S
C203 C204 1.359 . S
C203 C208 1.348 . S
C204 C203 1.359 . S
C204 C205 1.380 . S
C204 H232 0.929 . S
C205 C204 1.380 . S
C205 C206 1.347 . S
C205 H233 0.931 . S
C206 C205 1.347 . S
C206 C207 1.369 . S
C207 C206 1.369 . S
C207 C208 1.408 . S
C207 H234 0.930 . S
C208 C203 1.348 . S
C208 C207 1.408 . S
C208 H235 0.930 . S
C209 O222 1.281 . S
C209 O223 1.254 . S
C210 O224 1.236 . S
C210 O225 1.266 . S
C211 Tb201 2.809 . S
C211 C212 1.514 . S
C211 O226 1.248 . S
C211 O227 1.266 . S
C212 C211 1.514 . S
C212 C213 1.359 . S
C212 C217 1.348 . S
C213 C212 1.359 . S
C213 C214 1.380 . S
C213 H236 0.929 . S
C214 C213 1.380 . S
C214 C215 1.347 . S
C214 H237 0.931 . S
C215 C214 1.347 . S
C215 C216 1.369 . S
C216 C215 1.369 . S
C216 C217 1.408 . S
C216 H238 0.930 . S
C217 C212 1.348 . S
C217 C216 1.408 . S
C217 H239 0.930 . S
C218 O228 1.281 . S
C218 O229 1.254 . S
C219 O230 1.236 . S
C219 O231 1.266 . S
O220 Tb200 2.484 . S
O220 C202 1.248 . S
O221 Tb200 2.440 . S
O221 C202 1.266 . S
O222 Tb200 2.658 . S
O222 Tb201 2.325 . S
O222 C209 1.281 . S
O223 Tb200 2.409 . S
O223 C209 1.254 . S
O224 Tb200 2.378 . S
O224 C210 1.236 . S
O225 Tb201 2.341 . S
O225 C210 1.266 . S
O226 Tb201 2.484 . S
O226 C211 1.248 . S
O227 Tb201 2.440 . S
O227 C211 1.266 . S
O228 Tb200 2.325 . S
O228 Tb201 2.658 . S
O228 C218 1.281 . S
O229 Tb201 2.409 . S
O229 C218 1.254 . S
O230 Tb201 2.378 . S
O230 C219 1.236 . S
O231 Tb200 2.341 . S
O231 C219 1.266 . S
H232 C204 0.929 . S
H233 C205 0.931 . S
H234 C207 0.930 . S
H235 C208 0.930 . S
H236 C213 0.929 . S
H237 C214 0.931 . S
H238 C216 0.930 . S
H239 C217 0.930 . S
Tb240 C242 2.809 . S
Tb240 O260 2.484 . S
Tb240 O261 2.440 . S
Tb240 O262 2.658 . S
Tb240 O263 2.409 . S
Tb240 O264 2.378 . S
Tb240 O268 2.325 . S
Tb240 O271 2.341 . S
Tb241 C251 2.809 . S
Tb241 O262 2.325 . S
Tb241 O265 2.341 . S
Tb241 O266 2.484 . S
Tb241 O267 2.440 . S
Tb241 O268 2.658 . S
Tb241 O269 2.409 . S
Tb241 O270 2.378 . S
C242 Tb240 2.809 . S
C242 C243 1.514 . S
C242 O260 1.248 . S
C242 O261 1.266 . S
C243 C242 1.514 . S
C243 C244 1.359 . S
C243 C248 1.348 . S
C244 C243 1.359 . S
C244 C245 1.380 . S
C244 H272 0.929 . S
C245 C244 1.380 . S
C245 C246 1.347 . S
C245 H273 0.931 . S
C246 C245 1.347 . S
C246 C247 1.369 . S
C247 C246 1.369 . S
C247 C248 1.408 . S
C247 H274 0.930 . S
C248 C243 1.348 . S
C248 C247 1.408 . S
C248 H275 0.930 . S
C249 O262 1.281 . S
C249 O263 1.254 . S
C250 O264 1.236 . S
C250 O265 1.266 . S
C251 Tb241 2.809 . S
C251 C252 1.514 . S
C251 O266 1.248 . S
C251 O267 1.266 . S
C252 C251 1.514 . S
C252 C253 1.359 . S
C252 C257 1.348 . S
C253 C252 1.359 . S
C253 C254 1.380 . S
C253 H276 0.929 . S
C254 C253 1.380 . S
C254 C255 1.347 1_655 S
C254 H277 0.931 1_655 S
C255 C254 1.347 1_455 S
C255 C256 1.367 1_455 S
C256 C255 1.367 1_655 S
C256 C257 1.414 . S
C256 H278 0.928 1_655 S
C257 C252 1.348 . S
C257 C256 1.414 . S
C257 H279 0.930 . S
C258 O268 1.281 . S
C258 O269 1.254 . S
C259 O270 1.236 . S
C259 O271 1.266 . S
O260 Tb240 2.484 . S
O260 C242 1.248 . S
O261 Tb240 2.440 . S
O261 C242 1.266 . S
O262 Tb240 2.658 . S
O262 Tb241 2.325 . S
O262 C249 1.281 . S
O263 Tb240 2.409 . S
O263 C249 1.254 . S
O264 Tb240 2.378 . S
O264 C250 1.236 . S
O265 Tb241 2.341 . S
O265 C250 1.266 . S
O266 Tb241 2.484 . S
O266 C251 1.248 . S
O267 Tb241 2.440 . S
O267 C251 1.266 . S
O268 Tb240 2.325 . S
O268 Tb241 2.658 . S
O268 C258 1.281 . S
O269 Tb241 2.409 . S
O269 C258 1.254 . S
O270 Tb241 2.378 . S
O270 C259 1.236 . S
O271 Tb240 2.341 . S
O271 C259 1.266 . S
H272 C244 0.929 . S
H273 C245 0.931 . S
H274 C247 0.930 . S
H275 C248 0.930 . S
H276 C253 0.929 . S
H277 C254 0.931 1_455 S
H278 C256 0.928 1_455 S
H279 C257 0.930 . S
Tb280 C282 2.809 . S
Tb280 O300 2.484 . S
Tb280 O301 2.440 . S
Tb280 O302 2.658 . S
Tb280 O303 2.409 . S
Tb280 O304 2.378 . S
Tb280 O308 2.325 . S
Tb280 O311 2.341 . S
Tb281 C291 2.809 . S
Tb281 O302 2.325 . S
Tb281 O305 2.341 . S
Tb281 O306 2.484 . S
Tb281 O307 2.440 . S
Tb281 O308 2.658 . S
Tb281 O309 2.409 . S
Tb281 O310 2.378 . S
C282 Tb280 2.809 . S
C282 C283 1.514 . S
C282 O300 1.248 . S
C282 O301 1.266 . S
C283 C282 1.514 . S
C283 C284 1.359 . S
C283 C288 1.348 . S
C284 C283 1.359 . S
C284 C285 1.380 . S
C284 H312 0.929 . S
C285 C284 1.380 . S
C285 C286 1.347 . S
C285 H313 0.931 . S
C286 C285 1.347 . S
C286 C287 1.369 . S
C287 C286 1.369 . S
C287 C288 1.408 . S
C287 H314 0.930 . S
C288 C283 1.348 . S
C288 C287 1.408 . S
C288 H315 0.930 . S
C289 O302 1.281 . S
C289 O303 1.254 . S
C290 O304 1.236 . S
C290 O305 1.266 . S
C291 Tb281 2.809 . S
C291 C292 1.514 . S
C291 O306 1.248 . S
C291 O307 1.266 . S
C292 C291 1.514 . S
C292 C293 1.359 . S
C292 C297 1.348 . S
C293 C292 1.359 . S
C293 C294 1.380 . S
C293 H316 0.929 . S
C294 C293 1.380 . S
C294 C295 1.347 . S
C294 H317 0.931 . S
C295 C294 1.347 . S
C295 C296 1.369 . S
C296 C295 1.369 . S
C296 C297 1.408 . S
C296 H318 0.930 . S
C297 C292 1.348 . S
C297 C296 1.408 . S
C297 H319 0.930 . S
C298 O308 1.281 . S
C298 O309 1.254 . S
C299 O310 1.236 . S
C299 O311 1.266 . S
O300 Tb280 2.484 . S
O300 C282 1.248 . S
O301 Tb280 2.440 . S
O301 C282 1.266 . S
O302 Tb280 2.658 . S
O302 Tb281 2.325 . S
O302 C289 1.281 . S
O303 Tb280 2.409 . S
O303 C289 1.254 . S
O304 Tb280 2.378 . S
O304 C290 1.236 . S
O305 Tb281 2.341 . S
O305 C290 1.266 . S
O306 Tb281 2.484 . S
O306 C291 1.248 . S
O307 Tb281 2.440 . S
O307 C291 1.266 . S
O308 Tb280 2.325 . S
O308 Tb281 2.658 . S
O308 C298 1.281 . S
O309 Tb281 2.409 . S
O309 C298 1.254 . S
O310 Tb281 2.378 . S
O310 C299 1.236 . S
O311 Tb280 2.341 . S
O311 C299 1.266 . S
H312 C284 0.929 . S
H313 C285 0.931 . S
H314 C287 0.930 . S
H315 C288 0.930 . S
H316 C293 0.929 . S
H317 C294 0.931 . S
H318 C296 0.930 . S
H319 C297 0.930 . S
Tb320 C322 2.809 . S
Tb320 O340 2.484 . S
Tb320 O341 2.440 . S
Tb320 O342 2.658 . S
Tb320 O343 2.409 . S
Tb320 O344 2.378 . S
Tb320 O348 2.325 . S
Tb320 O351 2.341 . S
Tb321 C331 2.809 . S
Tb321 O342 2.325 . S
Tb321 O345 2.341 . S
Tb321 O346 2.484 . S
Tb321 O347 2.440 . S
Tb321 O348 2.658 . S
Tb321 O349 2.409 . S
Tb321 O350 2.378 . S
C322 Tb320 2.809 . S
C322 C323 1.514 . S
C322 O340 1.248 . S
C322 O341 1.266 . S
C323 C322 1.514 . S
C323 C324 1.359 . S
C323 C328 1.348 . S
C324 C323 1.359 . S
C324 C325 1.380 . S
C324 H352 0.929 . S
C325 C324 1.380 . S
C325 C326 1.347 1_655 S
C325 H353 0.931 1_655 S
C326 C325 1.347 1_455 S
C326 C327 1.367 1_455 S
C327 C326 1.367 1_655 S
C327 C328 1.414 . S
C327 H354 0.928 1_655 S
C328 C323 1.348 . S
C328 C327 1.414 . S
C328 H355 0.930 . S
C329 O342 1.281 . S
C329 O343 1.254 . S
C330 O344 1.236 . S
C330 O345 1.266 . S
C331 Tb321 2.809 . S
C331 C332 1.514 . S
C331 O346 1.248 . S
C331 O347 1.266 . S
C332 C331 1.514 . S
C332 C333 1.359 . S
C332 C337 1.348 . S
C333 C332 1.359 . S
C333 C334 1.380 . S
C333 H356 0.929 . S
C334 C333 1.380 . S
C334 C335 1.347 . S
C334 H357 0.931 . S
C335 C334 1.347 . S
C335 C336 1.369 . S
C336 C335 1.369 . S
C336 C337 1.408 . S
C336 H358 0.930 . S
C337 C332 1.348 . S
C337 C336 1.408 . S
C337 H359 0.930 . S
C338 O348 1.281 . S
C338 O349 1.254 . S
C339 O350 1.236 . S
C339 O351 1.266 . S
O340 Tb320 2.484 . S
O340 C322 1.248 . S
O341 Tb320 2.440 . S
O341 C322 1.266 . S
O342 Tb320 2.658 . S
O342 Tb321 2.325 . S
O342 C329 1.281 . S
O343 Tb320 2.409 . S
O343 C329 1.254 . S
O344 Tb320 2.378 . S
O344 C330 1.236 . S
O345 Tb321 2.341 . S
O345 C330 1.266 . S
O346 Tb321 2.484 . S
O346 C331 1.248 . S
O347 Tb321 2.440 . S
O347 C331 1.266 . S
O348 Tb320 2.325 . S
O348 Tb321 2.658 . S
O348 C338 1.281 . S
O349 Tb321 2.409 . S
O349 C338 1.254 . S
O350 Tb321 2.378 . S
O350 C339 1.236 . S
O351 Tb320 2.341 . S
O351 C339 1.266 . S
H352 C324 0.929 . S
H353 C325 0.931 1_455 S
H354 C327 0.928 1_455 S
H355 C328 0.930 . S
H356 C333 0.929 . S
H357 C334 0.931 . S
H358 C336 0.930 . S
H359 C337 0.930 . S
Tb360 C362 2.809 . S
Tb360 O380 2.484 . S
Tb360 O381 2.440 . S
Tb360 O382 2.658 . S
Tb360 O383 2.409 . S
Tb360 O384 2.378 . S
Tb360 O388 2.325 . S
Tb360 O391 2.341 . S
Tb361 C371 2.809 . S
Tb361 O382 2.325 . S
Tb361 O385 2.341 . S
Tb361 O386 2.484 . S
Tb361 O387 2.440 . S
Tb361 O388 2.658 . S
Tb361 O389 2.409 . S
Tb361 O390 2.378 . S
C362 Tb360 2.809 . S
C362 C363 1.514 . S
C362 O380 1.248 . S
C362 O381 1.266 . S
C363 C362 1.514 . S
C363 C364 1.359 . S
C363 C368 1.348 . S
C364 C363 1.359 . S
C364 C365 1.380 . S
C364 H392 0.929 . S
C365 C364 1.380 . S
C365 C366 1.347 . S
C365 H393 0.931 . S
C366 C365 1.347 . S
C366 C367 1.369 . S
C367 C366 1.369 . S
C367 C368 1.408 . S
C367 H394 0.930 . S
C368 C363 1.348 . S
C368 C367 1.408 . S
C368 H395 0.930 . S
C369 O382 1.281 . S
C369 O383 1.254 . S
C370 O384 1.236 . S
C370 O385 1.266 . S
C371 Tb361 2.809 . S
C371 C372 1.514 . S
C371 O386 1.248 . S
C371 O387 1.266 . S
C372 C371 1.514 . S
C372 C373 1.359 . S
C372 C377 1.348 . S
C373 C372 1.359 . S
C373 C374 1.380 . S
C373 H396 0.929 . S
C374 C373 1.380 . S
C374 C375 1.347 . S
C374 H397 0.931 . S
C375 C374 1.347 . S
C375 C376 1.369 . S
C376 C375 1.369 . S
C376 C377 1.408 . S
C376 H398 0.930 . S
C377 C372 1.348 . S
C377 C376 1.408 . S
C377 H399 0.930 . S
C378 O388 1.281 . S
C378 O389 1.254 . S
C379 O390 1.236 . S
C379 O391 1.266 . S
O380 Tb360 2.484 . S
O380 C362 1.248 . S
O381 Tb360 2.440 . S
O381 C362 1.266 . S
O382 Tb360 2.658 . S
O382 Tb361 2.325 . S
O382 C369 1.281 . S
O383 Tb360 2.409 . S
O383 C369 1.254 . S
O384 Tb360 2.378 . S
O384 C370 1.236 . S
O385 Tb361 2.341 . S
O385 C370 1.266 . S
O386 Tb361 2.484 . S
O386 C371 1.248 . S
O387 Tb361 2.440 . S
O387 C371 1.266 . S
O388 Tb360 2.325 . S
O388 Tb361 2.658 . S
O388 C378 1.281 . S
O389 Tb361 2.409 . S
O389 C378 1.254 . S
O390 Tb361 2.378 . S
O390 C379 1.236 . S
O391 Tb360 2.341 . S
O391 C379 1.266 . S
H392 C364 0.929 . S
H393 C365 0.931 . S
H394 C367 0.930 . S
H395 C368 0.930 . S
H396 C373 0.929 . S
H397 C374 0.931 . S
H398 C376 0.930 . S
H399 C377 0.930 . S
Tb400 C402 2.809 . S
Tb400 O420 2.484 . S
Tb400 O421 2.440 . S
Tb400 O422 2.658 1_556 S
Tb400 O423 2.409 1_556 S
Tb400 O424 2.378 1_556 S
Tb400 O428 2.325 . S
Tb400 O431 2.341 . S
Tb401 C411 2.809 . S
Tb401 O422 2.325 . S
Tb401 O425 2.341 . S
Tb401 O426 2.484 . S
Tb401 O427 2.440 . S
Tb401 O428 2.658 1_554 S
Tb401 O429 2.409 . S
Tb401 O430 2.378 . S
C402 Tb400 2.809 . S
C402 C403 1.514 . S
C402 O420 1.248 . S
C402 O421 1.266 . S
C403 C402 1.514 . S
C403 C404 1.359 . S
C403 C408 1.348 . S
C404 C403 1.359 . S
C404 C405 1.380 . S
C404 H432 0.929 . S
C405 C404 1.380 . S
C405 C406 1.347 . S
C405 H433 0.931 . S
C406 C405 1.347 . S
C406 C407 1.369 . S
C407 C406 1.369 . S
C407 C408 1.408 . S
C407 H434 0.930 . S
C408 C403 1.348 . S
C408 C407 1.408 . S
C408 H435 0.930 . S
C409 O422 1.281 . S
C409 O423 1.254 . S
C410 O424 1.236 . S
C410 O425 1.266 . S
C411 Tb401 2.809 . S
C411 C412 1.514 . S
C411 O426 1.248 . S
C411 O427 1.266 . S
C412 C411 1.514 . S
C412 C413 1.359 . S
C412 C417 1.348 . S
C413 C412 1.359 . S
C413 C414 1.380 . S
C413 H436 0.929 . S
C414 C413 1.380 . S
C414 C415 1.347 . S
C414 H437 0.931 . S
C415 C414 1.347 . S
C415 C416 1.369 . S
C416 C415 1.369 . S
C416 C417 1.408 . S
C416 H438 0.930 . S
C417 C412 1.348 . S
C417 C416 1.408 . S
C417 H439 0.930 . S
C418 O428 1.281 . S
C418 O429 1.254 1_556 S
C419 O430 1.236 . S
C419 O431 1.266 1_554 S
O420 Tb400 2.484 . S
O420 C402 1.248 . S
O421 Tb400 2.440 . S
O421 C402 1.266 . S
O422 Tb400 2.658 1_554 S
O422 Tb401 2.325 . S
O422 C409 1.281 . S
O423 Tb400 2.409 1_554 S
O423 C409 1.254 . S
O424 Tb400 2.378 1_554 S
O424 C410 1.236 . S
O425 Tb401 2.341 . S
O425 C410 1.266 . S
O426 Tb401 2.484 . S
O426 C411 1.248 . S
O427 Tb401 2.440 . S
O427 C411 1.266 . S
O428 Tb400 2.325 . S
O428 Tb401 2.658 1_556 S
O428 C418 1.281 . S
O429 Tb401 2.409 . S
O429 C418 1.254 1_554 S
O430 Tb401 2.378 . S
O430 C419 1.236 . S
O431 Tb400 2.341 . S
O431 C419 1.266 1_556 S
H432 C404 0.929 . S
H433 C405 0.931 . S
H434 C407 0.930 . S
H435 C408 0.930 . S
H436 C413 0.929 . S
H437 C414 0.931 . S
H438 C416 0.930 . S
H439 C417 0.930 . S
Tb440 C442 2.809 . S
Tb440 O460 2.484 . S
Tb440 O461 2.440 . S
Tb440 O462 2.658 . S
Tb440 O463 2.409 . S
Tb440 O464 2.378 . S
Tb440 O468 2.325 . S
Tb440 O471 2.341 . S
Tb441 C451 2.809 . S
Tb441 O462 2.325 . S
Tb441 O465 2.341 . S
Tb441 O466 2.484 . S
Tb441 O467 2.440 . S
Tb441 O468 2.658 . S
Tb441 O469 2.409 . S
Tb441 O470 2.378 . S
C442 Tb440 2.809 . S
C442 C443 1.514 . S
C442 O460 1.248 . S
C442 O461 1.266 . S
C443 C442 1.514 . S
C443 C444 1.359 . S
C443 C448 1.348 . S
C444 C443 1.359 . S
C444 C445 1.380 . S
C444 H472 0.929 . S
C445 C444 1.380 . S
C445 C446 1.347 . S
C445 H473 0.931 . S
C446 C445 1.347 . S
C446 C447 1.369 . S
C447 C446 1.369 . S
C447 C448 1.408 . S
C447 H474 0.930 . S
C448 C443 1.348 . S
C448 C447 1.408 . S
C448 H475 0.930 . S
C449 O462 1.281 . S
C449 O463 1.254 . S
C450 O464 1.236 . S
C450 O465 1.266 . S
C451 Tb441 2.809 . S
C451 C452 1.514 . S
C451 O466 1.248 . S
C451 O467 1.266 . S
C452 C451 1.514 . S
C452 C453 1.359 . S
C452 C457 1.348 . S
C453 C452 1.359 . S
C453 C454 1.380 . S
C453 H476 0.929 . S
C454 C453 1.380 . S
C454 C455 1.347 . S
C454 H477 0.931 . S
C455 C454 1.347 . S
C455 C456 1.369 . S
C456 C455 1.369 . S
C456 C457 1.408 . S
C456 H478 0.930 . S
C457 C452 1.348 . S
C457 C456 1.408 . S
C457 H479 0.930 . S
C458 O468 1.281 . S
C458 O469 1.254 . S
C459 O470 1.236 . S
C459 O471 1.266 . S
O460 Tb440 2.484 . S
O460 C442 1.248 . S
O461 Tb440 2.440 . S
O461 C442 1.266 . S
O462 Tb440 2.658 . S
O462 Tb441 2.325 . S
O462 C449 1.281 . S
O463 Tb440 2.409 . S
O463 C449 1.254 . S
O464 Tb440 2.378 . S
O464 C450 1.236 . S
O465 Tb441 2.341 . S
O465 C450 1.266 . S
O466 Tb441 2.484 . S
O466 C451 1.248 . S
O467 Tb441 2.440 . S
O467 C451 1.266 . S
O468 Tb440 2.325 . S
O468 Tb441 2.658 . S
O468 C458 1.281 . S
O469 Tb441 2.409 . S
O469 C458 1.254 . S
O470 Tb441 2.378 . S
O470 C459 1.236 . S
O471 Tb440 2.341 . S
O471 C459 1.266 . S
H472 C444 0.929 . S
H473 C445 0.931 . S
H474 C447 0.930 . S
H475 C448 0.930 . S
H476 C453 0.929 . S
H477 C454 0.931 . S
H478 C456 0.930 . S
H479 C457 0.930 . S
Tb480 C482 2.809 . S
Tb480 O500 2.484 . S
Tb480 O501 2.440 . S
Tb480 O502 2.658 . S
Tb480 O503 2.409 . S
Tb480 O504 2.378 . S
Tb480 O508 2.325 . S
Tb480 O511 2.341 . S
Tb481 C491 2.809 . S
Tb481 O502 2.325 . S
Tb481 O505 2.341 . S
Tb481 O506 2.484 . S
Tb481 O507 2.440 . S
Tb481 O508 2.658 . S
Tb481 O509 2.409 . S
Tb481 O510 2.378 . S
C482 Tb480 2.809 . S
C482 C483 1.514 . S
C482 O500 1.248 . S
C482 O501 1.266 . S
C483 C482 1.514 . S
C483 C484 1.359 . S
C483 C488 1.348 . S
C484 C483 1.359 . S
C484 C485 1.380 . S
C484 H512 0.929 . S
C485 C484 1.380 . S
C485 C486 1.347 . S
C485 H513 0.931 . S
C486 C485 1.347 . S
C486 C487 1.369 . S
C487 C486 1.369 . S
C487 C488 1.408 . S
C487 H514 0.930 . S
C488 C483 1.348 . S
C488 C487 1.408 . S
C488 H515 0.930 . S
C489 O502 1.281 . S
C489 O503 1.254 . S
C490 O504 1.236 . S
C490 O505 1.266 . S
C491 Tb481 2.809 . S
C491 C492 1.514 . S
C491 O506 1.248 . S
C491 O507 1.266 . S
C492 C491 1.514 . S
C492 C493 1.359 . S
C492 C497 1.348 . S
C493 C492 1.359 . S
C493 C494 1.380 . S
C493 H516 0.929 . S
C494 C493 1.380 . S
C494 C495 1.347 1_455 S
C494 H517 0.931 1_455 S
C495 C494 1.347 1_655 S
C495 C496 1.367 1_655 S
C496 C495 1.367 1_455 S
C496 C497 1.414 . S
C496 H518 0.928 1_455 S
C497 C492 1.348 . S
C497 C496 1.414 . S
C497 H519 0.930 . S
C498 O508 1.281 . S
C498 O509 1.254 . S
C499 O510 1.236 . S
C499 O511 1.266 . S
O500 Tb480 2.484 . S
O500 C482 1.248 . S
O501 Tb480 2.440 . S
O501 C482 1.266 . S
O502 Tb480 2.658 . S
O502 Tb481 2.325 . S
O502 C489 1.281 . S
O503 Tb480 2.409 . S
O503 C489 1.254 . S
O504 Tb480 2.378 . S
O504 C490 1.236 . S
O505 Tb481 2.341 . S
O505 C490 1.266 . S
O506 Tb481 2.484 . S
O506 C491 1.248 . S
O507 Tb481 2.440 . S
O507 C491 1.266 . S
O508 Tb480 2.325 . S
O508 Tb481 2.658 . S
O508 C498 1.281 . S
O509 Tb481 2.409 . S
O509 C498 1.254 . S
O510 Tb481 2.378 . S
O510 C499 1.236 . S
O511 Tb480 2.341 . S
O511 C499 1.266 . S
H512 C484 0.929 . S
H513 C485 0.931 . S
H514 C487 0.930 . S
H515 C488 0.930 . S
H516 C493 0.929 . S
H517 C494 0.931 1_655 S
H518 C496 0.928 1_655 S
H519 C497 0.930 . S
Tb520 C522 2.809 . S
Tb520 O540 2.484 . S
Tb520 O541 2.440 . S
Tb520 O542 2.658 . S
Tb520 O543 2.409 . S
Tb520 O544 2.378 . S
Tb520 O548 2.325 . S
Tb520 O551 2.341 . S
Tb521 C531 2.809 . S
Tb521 O542 2.325 . S
Tb521 O545 2.341 . S
Tb521 O546 2.484 . S
Tb521 O547 2.440 . S
Tb521 O548 2.658 . S
Tb521 O549 2.409 . S
Tb521 O550 2.378 . S
C522 Tb520 2.809 . S
C522 C523 1.514 . S
C522 O540 1.248 . S
C522 O541 1.266 . S
C523 C522 1.514 . S
C523 C524 1.359 . S
C523 C528 1.348 . S
C524 C523 1.359 . S
C524 C525 1.380 . S
C524 H552 0.929 . S
C525 C524 1.380 . S
C525 C526 1.347 . S
C525 H553 0.931 . S
C526 C525 1.347 . S
C526 C527 1.369 . S
C527 C526 1.369 . S
C527 C528 1.408 . S
C527 H554 0.930 . S
C528 C523 1.348 . S
C528 C527 1.408 . S
C528 H555 0.930 . S
C529 O542 1.281 . S
C529 O543 1.254 . S
C530 O544 1.236 . S
C530 O545 1.266 . S
C531 Tb521 2.809 . S
C531 C532 1.514 . S
C531 O546 1.248 . S
C531 O547 1.266 . S
C532 C531 1.514 . S
C532 C533 1.359 . S
C532 C537 1.348 . S
C533 C532 1.359 . S
C533 C534 1.380 . S
C533 H556 0.929 . S
C534 C533 1.380 . S
C534 C535 1.347 . S
C534 H557 0.931 . S
C535 C534 1.347 . S
C535 C536 1.369 . S
C536 C535 1.369 . S
C536 C537 1.408 . S
C536 H558 0.930 . S
C537 C532 1.348 . S
C537 C536 1.408 . S
C537 H559 0.930 . S
C538 O548 1.281 . S
C538 O549 1.254 . S
C539 O550 1.236 . S
C539 O551 1.266 . S
O540 Tb520 2.484 . S
O540 C522 1.248 . S
O541 Tb520 2.440 . S
O541 C522 1.266 . S
O542 Tb520 2.658 . S
O542 Tb521 2.325 . S
O542 C529 1.281 . S
O543 Tb520 2.409 . S
O543 C529 1.254 . S
O544 Tb520 2.378 . S
O544 C530 1.236 . S
O545 Tb521 2.341 . S
O545 C530 1.266 . S
O546 Tb521 2.484 . S
O546 C531 1.248 . S
O547 Tb521 2.440 . S
O547 C531 1.266 . S
O548 Tb520 2.325 . S
O548 Tb521 2.658 . S
O548 C538 1.281 . S
O549 Tb521 2.409 . S
O549 C538 1.254 . S
O550 Tb521 2.378 . S
O550 C539 1.236 . S
O551 Tb520 2.341 . S
O551 C539 1.266 . S
H552 C524 0.929 . S
H553 C525 0.931 . S
H554 C527 0.930 . S
H555 C528 0.930 . S
H556 C533 0.929 . S
H557 C534 0.931 . S
H558 C536 0.930 . S
H559 C537 0.930 . S
Tb560 C562 2.809 . S
Tb560 O580 2.484 . S
Tb560 O581 2.440 . S
Tb560 O582 2.658 1_556 S
Tb560 O583 2.409 . S
Tb560 O584 2.378 . S
Tb560 O588 2.325 . S
Tb560 O591 2.341 . S
Tb561 C571 2.809 . S
Tb561 O582 2.325 . S
Tb561 O585 2.341 . S
Tb561 O586 2.484 . S
Tb561 O587 2.440 . S
Tb561 O588 2.658 1_554 S
Tb561 O589 2.409 1_554 S
Tb561 O590 2.378 1_554 S
C562 Tb560 2.809 . S
C562 C563 1.514 . S
C562 O580 1.248 . S
C562 O581 1.266 . S
C563 C562 1.514 . S
C563 C564 1.359 . S
C563 C568 1.348 . S
C564 C563 1.359 . S
C564 C565 1.380 . S
C564 H592 0.929 . S
C565 C564 1.380 . S
C565 C566 1.347 . S
C565 H593 0.931 . S
C566 C565 1.347 . S
C566 C567 1.369 . S
C567 C566 1.369 . S
C567 C568 1.408 . S
C567 H594 0.930 . S
C568 C563 1.348 . S
C568 C567 1.408 . S
C568 H595 0.930 . S
C569 O582 1.281 . S
C569 O583 1.254 1_554 S
C570 O584 1.236 . S
C570 O585 1.266 1_556 S
C571 Tb561 2.809 . S
C571 C572 1.514 . S
C571 O586 1.248 . S
C571 O587 1.266 . S
C572 C571 1.514 . S
C572 C573 1.359 . S
C572 C577 1.348 . S
C573 C572 1.359 . S
C573 C574 1.380 . S
C573 H596 0.929 . S
C574 C573 1.380 . S
C574 C575 1.347 . S
C574 H597 0.931 . S
C575 C574 1.347 . S
C575 C576 1.369 . S
C576 C575 1.369 . S
C576 C577 1.408 . S
C576 H598 0.930 . S
C577 C572 1.348 . S
C577 C576 1.408 . S
C577 H599 0.930 . S
C578 O588 1.281 . S
C578 O589 1.254 . S
C579 O590 1.236 . S
C579 O591 1.266 . S
O580 Tb560 2.484 . S
O580 C562 1.248 . S
O581 Tb560 2.440 . S
O581 C562 1.266 . S
O582 Tb560 2.658 1_554 S
O582 Tb561 2.325 . S
O582 C569 1.281 . S
O583 Tb560 2.409 . S
O583 C569 1.254 1_556 S
O584 Tb560 2.378 . S
O584 C570 1.236 . S
O585 Tb561 2.341 . S
O585 C570 1.266 1_554 S
O586 Tb561 2.484 . S
O586 C571 1.248 . S
O587 Tb561 2.440 . S
O587 C571 1.266 . S
O588 Tb560 2.325 . S
O588 Tb561 2.658 1_556 S
O588 C578 1.281 . S
O589 Tb561 2.409 1_556 S
O589 C578 1.254 . S
O590 Tb561 2.378 1_556 S
O590 C579 1.236 . S
O591 Tb560 2.341 . S
O591 C579 1.266 . S
H592 C564 0.929 . S
H593 C565 0.931 . S
H594 C567 0.930 . S
H595 C568 0.930 . S
H596 C573 0.929 . S
H597 C574 0.931 . S
H598 C576 0.930 . S
H599 C577 0.930 . S
Tb600 C602 2.809 . S
Tb600 O620 2.484 . S
Tb600 O621 2.440 . S
Tb600 O622 2.658 . S
Tb600 O623 2.409 . S
Tb600 O624 2.378 . S
Tb600 O628 2.325 . S
Tb600 O631 2.341 . S
Tb601 C611 2.809 . S
Tb601 O622 2.325 . S
Tb601 O625 2.341 . S
Tb601 O626 2.484 . S
Tb601 O627 2.440 . S
Tb601 O628 2.658 . S
Tb601 O629 2.409 . S
Tb601 O630 2.378 . S
C602 Tb600 2.809 . S
C602 C603 1.514 . S
C602 O620 1.248 . S
C602 O621 1.266 . S
C603 C602 1.514 . S
C603 C604 1.359 . S
C603 C608 1.348 . S
C604 C603 1.359 . S
C604 C605 1.380 . S
C604 H632 0.929 . S
C605 C604 1.380 . S
C605 C606 1.347 . S
C605 H633 0.931 . S
C606 C605 1.347 . S
C606 C607 1.369 . S
C607 C606 1.369 . S
C607 C608 1.408 . S
C607 H634 0.930 . S
C608 C603 1.348 . S
C608 C607 1.408 . S
C608 H635 0.930 . S
C609 O622 1.281 . S
C609 O623 1.254 . S
C610 O624 1.236 . S
C610 O625 1.266 . S
C611 Tb601 2.809 . S
C611 C612 1.514 . S
C611 O626 1.248 . S
C611 O627 1.266 . S
C612 C611 1.514 . S
C612 C613 1.359 . S
C612 C617 1.348 . S
C613 C612 1.359 . S
C613 C614 1.380 . S
C613 H636 0.929 . S
C614 C613 1.380 . S
C614 C615 1.347 . S
C614 H637 0.931 . S
C615 C614 1.347 . S
C615 C616 1.369 . S
C616 C615 1.369 . S
C616 C617 1.408 . S
C616 H638 0.930 . S
C617 C612 1.348 . S
C617 C616 1.408 . S
C617 H639 0.930 . S
C618 O628 1.281 . S
C618 O629 1.254 . S
C619 O630 1.236 . S
C619 O631 1.266 . S
O620 Tb600 2.484 . S
O620 C602 1.248 . S
O621 Tb600 2.440 . S
O621 C602 1.266 . S
O622 Tb600 2.658 . S
O622 Tb601 2.325 . S
O622 C609 1.281 . S
O623 Tb600 2.409 . S
O623 C609 1.254 . S
O624 Tb600 2.378 . S
O624 C610 1.236 . S
O625 Tb601 2.341 . S
O625 C610 1.266 . S
O626 Tb601 2.484 . S
O626 C611 1.248 . S
O627 Tb601 2.440 . S
O627 C611 1.266 . S
O628 Tb600 2.325 . S
O628 Tb601 2.658 . S
O628 C618 1.281 . S
O629 Tb601 2.409 . S
O629 C618 1.254 . S
O630 Tb601 2.378 . S
O630 C619 1.236 . S
O631 Tb600 2.341 . S
O631 C619 1.266 . S
H632 C604 0.929 . S
H633 C605 0.931 . S
H634 C607 0.930 . S
H635 C608 0.930 . S
H636 C613 0.929 . S
H637 C614 0.931 . S
H638 C616 0.930 . S
H639 C617 0.930 . S
H640 C646 0.930 . S
H641 C649 0.930 . S
H642 C650 0.930 . S
H643 C651 0.930 . S
H644 C654 0.930 . S
H645 C655 0.930 . S
C646 H640 0.930 . S
C646 C647 1.355 . S
C646 C648 1.415 . S
C647 C646 1.355 . S
C647 C649 1.419 . S
C648 C646 1.415 . S
C648 C653 1.425 . S
C648 C655 1.409 . S
C649 H641 0.930 . S
C649 C647 1.419 . S
C649 C650 1.362 . S
C650 H642 0.930 . S
C650 C649 1.362 . S
C650 C653 1.409 . S
C651 H643 0.930 . S
C651 C652 1.355 . S
C651 C653 1.415 . S
C652 C651 1.355 . S
C652 C654 1.419 . S
C653 C648 1.425 . S
C653 C650 1.409 . S
C653 C651 1.415 . S
C654 H644 0.930 . S
C654 C652 1.419 . S
C654 C655 1.362 . S
C655 H645 0.930 . S
C655 C648 1.409 . S
C655 C654 1.362 . S
H656 C662 0.930 . S
H657 C665 0.930 . S
H658 C666 0.930 . S
H659 C667 0.930 . S
H660 C670 0.930 . S
H661 C671 0.930 . S
C662 H656 0.930 . S
C662 C663 1.355 . S
C662 C664 1.415 . S
C663 C662 1.355 . S
C663 C665 1.419 . S
C664 C662 1.415 . S
C664 C669 1.425 . S
C664 C671 1.409 . S
C665 H657 0.930 . S
C665 C663 1.419 . S
C665 C666 1.362 . S
C666 H658 0.930 . S
C666 C665 1.362 . S
C666 C669 1.409 . S
C667 H659 0.930 . S
C667 C668 1.355 . S
C667 C669 1.415 . S
C668 C667 1.355 . S
C668 C670 1.419 . S
C669 C664 1.425 . S
C669 C666 1.409 . S
C669 C667 1.415 . S
C670 H660 0.930 . S
C670 C668 1.419 . S
C670 C671 1.362 . S
C671 H661 0.930 . S
C671 C664 1.409 . S
C671 C670 1.362 . S
H672 C678 0.930 . S
H673 C681 0.930 . S
H674 C682 0.930 . S
H675 C683 0.930 . S
H676 C686 0.930 . S
H677 C687 0.930 . S
C678 H672 0.930 . S
C678 C679 1.355 . S
C678 C680 1.415 . S
C679 C678 1.355 . S
C679 C681 1.419 . S
C680 C678 1.415 . S
C680 C685 1.425 1_455 S
C680 C687 1.409 . S
C681 H673 0.930 . S
C681 C679 1.419 . S
C681 C682 1.362 1_455 S
C682 H674 0.930 . S
C682 C681 1.362 1_655 S
C682 C685 1.409 . S
C683 H675 0.930 . S
C683 C684 1.355 . S
C683 C685 1.415 . S
C684 C683 1.355 . S
C684 C686 1.419 . S
C685 C680 1.425 1_655 S
C685 C682 1.409 . S
C685 C683 1.415 . S
C686 H676 0.930 . S
C686 C684 1.419 . S
C686 C687 1.362 1_655 S
C687 H677 0.930 . S
C687 C680 1.409 . S
C687 C686 1.362 1_455 S
H688 C694 0.930 . S
H689 C697 0.930 . S
H690 C698 0.930 . S
H691 C699 0.930 . S
H692 C702 0.930 . S
H693 C703 0.930 . S
C694 H688 0.930 . S
C694 C695 1.355 . S
C694 C696 1.415 1_655 S
C695 C694 1.355 . S
C695 C697 1.419 . S
C696 C694 1.415 1_455 S
C696 C701 1.425 1_455 S
C696 C703 1.409 . S
C697 H689 0.930 . S
C697 C695 1.419 . S
C697 C698 1.362 . S
C698 H690 0.930 . S
C698 C697 1.362 . S
C698 C701 1.409 . S
C699 H691 0.930 . S
C699 C700 1.355 . S
C699 C701 1.415 1_455 S
C700 C699 1.355 . S
C700 C702 1.419 . S
C701 C696 1.425 1_655 S
C701 C698 1.409 . S
C701 C699 1.415 1_655 S
C702 H692 0.930 . S
C702 C700 1.419 . S
C702 C703 1.362 . S
C703 H693 0.930 . S
C703 C696 1.409 . S
C703 C702 1.362 . S
H704 C710 0.930 . S
H705 C713 0.930 . S
H706 C714 0.930 . S
H707 C715 0.930 . S
H708 C718 0.930 . S
H709 C719 0.930 . S
C710 H704 0.930 . S
C710 C711 1.355 . S
C710 C712 1.415 . S
C711 C710 1.355 . S
C711 C713 1.419 . S
C712 C710 1.415 . S
C712 C717 1.425 . S
C712 C719 1.409 . S
C713 H705 0.930 . S
C713 C711 1.419 . S
C713 C714 1.362 . S
C714 H706 0.930 . S
C714 C713 1.362 . S
C714 C717 1.409 . S
C715 H707 0.930 . S
C715 C716 1.355 . S
C715 C717 1.415 . S
C716 C715 1.355 . S
C716 C718 1.419 . S
C717 C712 1.425 . S
C717 C714 1.409 . S
C717 C715 1.415 . S
C718 H708 0.930 . S
C718 C716 1.419 . S
C718 C719 1.362 . S
C719 H709 0.930 . S
C719 C712 1.409 . S
C719 C718 1.362 . S
H720 C726 0.930 . S
H721 C729 0.930 . S
H722 C730 0.930 . S
H723 C731 0.930 . S
H724 C734 0.930 . S
H725 C735 0.930 . S
C726 H720 0.930 . S
C726 C727 1.355 . S
C726 C728 1.415 . S
C727 C726 1.355 . S
C727 C729 1.419 . S
C728 C726 1.415 . S
C728 C733 1.425 . S
C728 C735 1.409 . S
C729 H721 0.930 . S
C729 C727 1.419 . S
C729 C730 1.362 . S
C730 H722 0.930 . S
C730 C729 1.362 . S
C730 C733 1.409 . S
C731 H723 0.930 . S
C731 C732 1.355 . S
C731 C733 1.415 . S
C732 C731 1.355 . S
C732 C734 1.419 . S
C733 C728 1.425 . S
C733 C730 1.409 . S
C733 C731 1.415 . S
C734 H724 0.930 . S
C734 C732 1.419 . S
C734 C735 1.362 . S
C735 H725 0.930 . S
C735 C728 1.409 . S
C735 C734 1.362 . S
H736 C742 0.930 . S
H737 C745 0.930 . S
H738 C746 0.930 . S
H739 C747 0.930 . S
H740 C750 0.930 . S
H741 C751 0.930 . S
C742 H736 0.930 . S
C742 C743 1.355 . S
C742 C744 1.415 . S
C743 C742 1.355 . S
C743 C745 1.419 . S
C744 C742 1.415 . S
C744 C749 1.425 1_655 S
C744 C751 1.409 . S
C745 H737 0.930 . S
C745 C743 1.419 . S
C745 C746 1.362 1_655 S
C746 H738 0.930 . S
C746 C745 1.362 1_455 S
C746 C749 1.409 . S
C747 H739 0.930 . S
C747 C748 1.355 . S
C747 C749 1.415 . S
C748 C747 1.355 . S
C748 C750 1.419 . S
C749 C744 1.425 1_455 S
C749 C746 1.409 . S
C749 C747 1.415 . S
C750 H740 0.930 . S
C750 C748 1.419 . S
C750 C751 1.362 1_455 S
C751 H741 0.930 . S
C751 C744 1.409 . S
C751 C750 1.362 1_655 S
H752 C758 0.930 . S
H753 C761 0.930 . S
H754 C762 0.930 . S
H755 C763 0.930 . S
H756 C766 0.930 . S
H757 C767 0.930 . S
C758 H752 0.930 . S
C758 C759 1.355 . S
C758 C760 1.415 1_455 S
C759 C758 1.355 . S
C759 C761 1.419 . S
C760 C758 1.415 1_655 S
C760 C765 1.425 1_655 S
C760 C767 1.409 . S
C761 H753 0.930 . S
C761 C759 1.419 . S
C761 C762 1.362 . S
C762 H754 0.930 . S
C762 C761 1.362 . S
C762 C765 1.409 . S
C763 H755 0.930 . S
C763 C764 1.355 . S
C763 C765 1.415 1_655 S
C764 C763 1.355 . S
C764 C766 1.419 . S
C765 C760 1.425 1_455 S
C765 C762 1.409 . S
C765 C763 1.415 1_455 S
C766 H756 0.930 . S
C766 C764 1.419 . S
C766 C767 1.362 . S
C767 H757 0.930 . S
C767 C760 1.409 . S
C767 C766 1.362 . S
H768 C774 0.930 . S
H769 C777 0.930 . S
H770 C778 0.930 . S
H771 C779 0.930 . S
H772 C782 0.930 . S
H773 C783 0.930 . S
C774 H768 0.930 . S
C774 C775 1.355 . S
C774 C776 1.415 . S
C775 C774 1.355 . S
C775 C777 1.419 . S
C776 C774 1.415 . S
C776 C781 1.425 . S
C776 C783 1.409 . S
C777 H769 0.930 . S
C777 C775 1.419 . S
C777 C778 1.362 . S
C778 H770 0.930 . S
C778 C777 1.362 . S
C778 C781 1.409 . S
C779 H771 0.930 . S
C779 C780 1.355 . S
C779 C781 1.415 . S
C780 C779 1.355 . S
C780 C782 1.419 . S
C781 C776 1.425 . S
C781 C778 1.409 . S
C781 C779 1.415 . S
C782 H772 0.930 . S
C782 C780 1.419 . S
C782 C783 1.362 . S
C783 H773 0.930 . S
C783 C776 1.409 . S
C783 C782 1.362 . S
H784 C790 0.930 . S
H785 C793 0.930 . S
H786 C794 0.930 . S
H787 C795 0.930 . S
H788 C798 0.930 . S
H789 C799 0.930 . S
C790 H784 0.930 . S
C790 C791 1.355 . S
C790 C792 1.415 . S
C791 C790 1.355 . S
C791 C793 1.419 . S
C792 C790 1.415 . S
C792 C797 1.425 . S
C792 C799 1.409 . S
C793 H785 0.930 . S
C793 C791 1.419 . S
C793 C794 1.362 . S
C794 H786 0.930 . S
C794 C793 1.362 . S
C794 C797 1.409 . S
C795 H787 0.930 . S
C795 C796 1.355 . S
C795 C797 1.415 . S
C796 C795 1.355 . S
C796 C798 1.419 . S
C797 C792 1.425 . S
C797 C794 1.409 . S
C797 C795 1.415 . S
C798 H788 0.930 . S
C798 C796 1.419 . S
C798 C799 1.362 . S
C799 H789 0.930 . S
C799 C792 1.409 . S
C799 C798 1.362 . S
H800 C806 0.930 . S
H801 C809 0.930 . S
H802 C810 0.930 . S
H803 C811 0.930 . S
H804 C814 0.930 . S
H805 C815 0.930 . S
C806 H800 0.930 . S
C806 C807 1.355 . S
C806 C808 1.415 . S
C807 C806 1.355 . S
C807 C809 1.419 . S
C808 C806 1.415 . S
C808 C813 1.425 . S
C808 C815 1.409 . S
C809 H801 0.930 . S
C809 C807 1.419 . S
C809 C810 1.362 . S
C810 H802 0.930 . S
C810 C809 1.362 . S
C810 C813 1.409 . S
C811 H803 0.930 . S
C811 C812 1.355 . S
C811 C813 1.415 . S
C812 C811 1.355 . S
C812 C814 1.419 . S
C813 C808 1.425 . S
C813 C810 1.409 . S
C813 C811 1.415 . S
C814 H804 0.930 . S
C814 C812 1.419 . S
C814 C815 1.362 . S
C815 H805 0.930 . S
C815 C808 1.409 . S
C815 C814 1.362 . S
H816 C822 0.930 . S
H817 C825 0.930 . S
H818 C826 0.930 . S
H819 C827 0.930 . S
H820 C830 0.930 . S
H821 C831 0.930 . S
C822 H816 0.930 . S
C822 C823 1.355 . S
C822 C824 1.415 . S
C823 C822 1.355 . S
C823 C825 1.419 . S
C824 C822 1.415 . S
C824 C829 1.425 . S
C824 C831 1.409 . S
C825 H817 0.930 . S
C825 C823 1.419 . S
C825 C826 1.362 . S
C826 H818 0.930 . S
C826 C825 1.362 . S
C826 C829 1.409 . S
C827 H819 0.930 . S
C827 C828 1.355 . S
C827 C829 1.415 . S
C828 C827 1.355 . S
C828 C830 1.419 . S
C829 C824 1.425 . S
C829 C826 1.409 . S
C829 C827 1.415 . S
C830 H820 0.930 . S
C830 C828 1.419 . S
C830 C831 1.362 . S
C831 H821 0.930 . S
C831 C824 1.409 . S
C831 C830 1.362 . S
H832 C838 0.930 . S
H833 C841 0.930 . S
H834 C842 0.930 . S
H835 C843 0.930 . S
H836 C846 0.930 . S
H837 C847 0.930 . S
C838 H832 0.930 . S
C838 C839 1.355 . S
C838 C840 1.415 . S
C839 C838 1.355 . S
C839 C841 1.419 . S
C840 C838 1.415 . S
C840 C845 1.425 . S
C840 C847 1.409 . S
C841 H833 0.930 . S
C841 C839 1.419 . S
C841 C842 1.362 . S
C842 H834 0.930 . S
C842 C841 1.362 . S
C842 C845 1.409 . S
C843 H835 0.930 . S
C843 C844 1.355 . S
C843 C845 1.415 . S
C844 C843 1.355 . S
C844 C846 1.419 . S
C845 C840 1.425 . S
C845 C842 1.409 . S
C845 C843 1.415 . S
C846 H836 0.930 . S
C846 C844 1.419 . S
C846 C847 1.362 . S
C847 H837 0.930 . S
C847 C840 1.409 . S
C847 C846 1.362 . S
H848 C854 0.930 . S
H849 C857 0.930 . S
H850 C858 0.930 . S
H851 C859 0.930 . S
H852 C862 0.930 . S
H853 C863 0.930 . S
C854 H848 0.930 . S
C854 C855 1.355 . S
C854 C856 1.415 . S
C855 C854 1.355 . S
C855 C857 1.419 . S
C856 C854 1.415 . S
C856 C861 1.425 . S
C856 C863 1.409 . S
C857 H849 0.930 . S
C857 C855 1.419 . S
C857 C858 1.362 . S
C858 H850 0.930 . S
C858 C857 1.362 . S
C858 C861 1.409 . S
C859 H851 0.930 . S
C859 C860 1.355 . S
C859 C861 1.415 . S
C860 C859 1.355 . S
C860 C862 1.419 . S
C861 C856 1.425 . S
C861 C858 1.409 . S
C861 C859 1.415 . S
C862 H852 0.930 . S
C862 C860 1.419 . S
C862 C863 1.362 . S
C863 H853 0.930 . S
C863 C856 1.409 . S
C863 C862 1.362 . S
H864 C870 0.930 . S
H865 C873 0.930 . S
H866 C874 0.930 . S
H867 C875 0.930 . S
H868 C878 0.930 . S
H869 C879 0.930 . S
C870 H864 0.930 . S
C870 C871 1.355 . S
C870 C872 1.415 . S
C871 C870 1.355 . S
C871 C873 1.419 . S
C872 C870 1.415 . S
C872 C877 1.425 . S
C872 C879 1.409 . S
C873 H865 0.930 . S
C873 C871 1.419 . S
C873 C874 1.362 . S
C874 H866 0.930 . S
C874 C873 1.362 . S
C874 C877 1.409 . S
C875 H867 0.930 . S
C875 C876 1.355 . S
C875 C877 1.415 . S
C876 C875 1.355 . S
C876 C878 1.419 . S
C877 C872 1.425 . S
C877 C874 1.409 . S
C877 C875 1.415 . S
C878 H868 0.930 . S
C878 C876 1.419 . S
C878 C879 1.362 . S
C879 H869 0.930 . S
C879 C872 1.409 . S
C879 C878 1.362 . S
H880 C886 0.930 . S
H881 C889 0.930 . S
H882 C890 0.930 . S
H883 C891 0.930 . S
H884 C894 0.930 . S
H885 C895 0.930 . S
C886 H880 0.930 . S
C886 C887 1.355 . S
C886 C888 1.415 . S
C887 C886 1.355 . S
C887 C889 1.419 . S
C888 C886 1.415 . S
C888 C893 1.425 . S
C888 C895 1.409 . S
C889 H881 0.930 . S
C889 C887 1.419 . S
C889 C890 1.362 . S
C890 H882 0.930 . S
C890 C889 1.362 . S
C890 C893 1.409 . S
C891 H883 0.930 . S
C891 C892 1.355 . S
C891 C893 1.415 . S
C892 C891 1.355 . S
C892 C894 1.419 . S
C893 C888 1.425 . S
C893 C890 1.409 . S
C893 C891 1.415 . S
C894 H884 0.930 . S
C894 C892 1.419 . S
C894 C895 1.362 . S
C895 H885 0.930 . S
C895 C888 1.409 . S
C895 C894 1.362 . S
H896 C902 0.930 . S
H897 C905 0.930 . S
H898 C906 0.930 . S
H899 C907 0.930 . S
H900 C910 0.930 . S
H901 C911 0.930 . S
C902 H896 0.930 . S
C902 C903 1.355 . S
C902 C904 1.415 . S
C903 C902 1.355 . S
C903 C905 1.419 . S
C904 C902 1.415 . S
C904 C909 1.425 . S
C904 C911 1.409 . S
C905 H897 0.930 . S
C905 C903 1.419 . S
C905 C906 1.362 . S
C906 H898 0.930 . S
C906 C905 1.362 . S
C906 C909 1.409 . S
C907 H899 0.930 . S
C907 C908 1.355 . S
C907 C909 1.415 . S
C908 C907 1.355 . S
C908 C910 1.419 . S
C909 C904 1.425 . S
C909 C906 1.409 . S
C909 C907 1.415 . S
C910 H900 0.930 . S
C910 C908 1.419 . S
C910 C911 1.362 . S
C911 H901 0.930 . S
C911 C904 1.409 . S
C911 C910 1.362 . S
H912 C918 0.930 . S
H913 C921 0.930 . S
H914 C922 0.930 . S
H915 C923 0.930 . S
H916 C926 0.930 . S
H917 C927 0.930 . S
C918 H912 0.930 . S
C918 C919 1.355 . S
C918 C920 1.415 1_545 S
C919 C918 1.355 . S
C919 C921 1.419 . S
C920 C918 1.415 1_565 S
C920 C925 1.425 . S
C920 C927 1.409 . S
C921 H913 0.930 . S
C921 C919 1.419 . S
C921 C922 1.362 1_545 S
C922 H914 0.930 . S
C922 C921 1.362 1_565 S
C922 C925 1.409 . S
C923 H915 0.930 . S
C923 C924 1.355 . S
C923 C925 1.415 . S
C924 C923 1.355 . S
C924 C926 1.419 . S
C925 C920 1.425 . S
C925 C922 1.409 . S
C925 C923 1.415 . S
C926 H916 0.930 . S
C926 C924 1.419 . S
C926 C927 1.362 . S
C927 H917 0.930 . S
C927 C920 1.409 . S
C927 C926 1.362 . S
H928 C934 0.930 . S
H929 C937 0.930 1_554 S
H930 C938 0.930 . S
H931 C939 0.930 . S
H932 C942 0.930 . S
H933 C943 0.930 . S
C934 H928 0.930 . S
C934 C935 1.355 . S
C934 C936 1.415 . S
C935 C934 1.355 . S
C935 C937 1.419 . S
C936 C934 1.415 . S
C936 C941 1.425 . S
C936 C943 1.409 . S
C937 H929 0.930 1_556 S
C937 C935 1.419 . S
C937 C938 1.362 . S
C938 H930 0.930 . S
C938 C937 1.362 . S
C938 C941 1.409 . S
C939 H931 0.930 . S
C939 C940 1.355 . S
C939 C941 1.415 . S
C940 C939 1.355 . S
C940 C942 1.419 . S
C941 C936 1.425 . S
C941 C938 1.409 . S
C941 C939 1.415 . S
C942 H932 0.930 . S
C942 C940 1.419 . S
C942 C943 1.362 . S
C943 H933 0.930 . S
C943 C936 1.409 . S
C943 C942 1.362 . S
H944 C950 0.931 . S
H945 C953 0.930 . S
H946 C954 0.930 . S
H947 C955 0.930 . S
H948 C958 0.930 . S
H949 C959 0.930 . S
C950 H944 0.931 . S
C950 C951 1.355 . S
C950 C952 1.415 1_565 S
C951 C950 1.355 . S
C951 C953 1.419 . S
C952 C950 1.415 1_545 S
C952 C957 1.425 . S
C952 C959 1.409 . S
C953 H945 0.930 . S
C953 C951 1.419 . S
C953 C954 1.362 . S
C954 H946 0.930 . S
C954 C953 1.362 . S
C954 C957 1.409 1_565 S
C955 H947 0.930 . S
C955 C956 1.355 . S
C955 C957 1.415 . S
C956 C955 1.355 . S
C956 C958 1.419 . S
C957 C952 1.425 . S
C957 C954 1.409 1_545 S
C957 C955 1.415 . S
C958 H948 0.930 . S
C958 C956 1.419 . S
C958 C959 1.362 . S
C959 H949 0.930 . S
C959 C952 1.409 . S
C959 C958 1.362 . S
H960 C966 0.930 . S
H961 C969 0.930 . S
H962 C970 0.930 . S
H963 C971 0.930 . S
H964 C974 0.930 . S
H965 C975 0.930 . S
C966 H960 0.930 . S
C966 C967 1.355 . S
C966 C968 1.415 . S
C967 C966 1.355 . S
C967 C969 1.419 . S
C968 C966 1.415 . S
C968 C973 1.425 . S
C968 C975 1.409 . S
C969 H961 0.930 . S
C969 C967 1.419 . S
C969 C970 1.362 . S
C970 H962 0.930 . S
C970 C969 1.362 . S
C970 C973 1.409 . S
C971 H963 0.930 . S
C971 C972 1.355 . S
C971 C973 1.415 . S
C972 C971 1.355 . S
C972 C974 1.419 . S
C973 C968 1.425 . S
C973 C970 1.409 . S
C973 C971 1.415 . S
C974 H964 0.930 . S
C974 C972 1.419 . S
C974 C975 1.362 . S
C975 H965 0.930 . S
C975 C968 1.409 . S
C975 C974 1.362 . S
H976 C982 0.930 . S
H977 C985 0.930 . S
H978 C986 0.930 . S
H979 C987 0.930 . S
H980 C990 0.930 . S
H981 C991 0.930 . S
C982 H976 0.930 . S
C982 C983 1.355 . S
C982 C984 1.415 . S
C983 C982 1.355 . S
C983 C985 1.419 . S
C984 C982 1.415 . S
C984 C989 1.425 . S
C984 C991 1.409 1_545 S
C985 H977 0.930 . S
C985 C983 1.419 . S
C985 C986 1.362 . S
C986 H978 0.930 . S
C986 C985 1.362 . S
C986 C989 1.409 . S
C987 H979 0.930 . S
C987 C988 1.355 1_545 S
C987 C989 1.415 . S
C988 C987 1.355 1_565 S
C988 C990 1.419 . S
C989 C984 1.425 . S
C989 C986 1.409 . S
C989 C987 1.415 . S
C990 H980 0.930 . S
C990 C988 1.419 . S
C990 C991 1.362 . S
C991 H981 0.930 . S
C991 C984 1.409 1_565 S
C991 C990 1.362 . S
H992 C998 0.930 . S
H993 C1001 0.930 . S
H994 C1002 0.930 . S
H995 C1003 0.930 . S
H996 C1006 0.930 1_556 S
H997 C1007 0.930 . S
C998 H992 0.930 . S
C998 C999 1.355 . S
C998 C1000 1.415 . S
C999 C998 1.355 . S
C999 C1001 1.419 . S
C1000 C998 1.415 . S
C1000 C1005 1.425 . S
C1000 C1007 1.409 . S
C1001 H993 0.930 . S
C1001 C999 1.419 . S
C1001 C1002 1.362 . S
C1002 H994 0.930 . S
C1002 C1001 1.362 . S
C1002 C1005 1.409 . S
C1003 H995 0.930 . S
C1003 C1004 1.355 . S
C1003 C1005 1.415 . S
C1004 C1003 1.355 . S
C1004 C1006 1.419 . S
C1005 C1000 1.425 . S
C1005 C1002 1.409 . S
C1005 C1003 1.415 . S
C1006 H996 0.930 1_554 S
C1006 C1004 1.419 . S
C1006 C1007 1.362 . S
C1007 H997 0.930 . S
C1007 C1000 1.409 . S
C1007 C1006 1.362 . S
H1008 C1014 0.930 . S
H1009 C1017 0.930 . S
H1010 C1018 0.930 . S
H1011 C1019 0.930 . S
H1012 C1022 0.930 . S
H1013 C1023 0.930 . S
C1014 H1008 0.930 . S
C1014 C1015 1.355 1_565 S
C1014 C1016 1.415 . S
C1015 C1014 1.355 1_545 S
C1015 C1017 1.419 . S
C1016 C1014 1.415 . S
C1016 C1021 1.425 . S
C1016 C1023 1.409 . S
C1017 H1009 0.930 . S
C1017 C1015 1.419 . S
C1017 C1018 1.362 . S
C1018 H1010 0.930 . S
C1018 C1017 1.362 . S
C1018 C1021 1.409 1_545 S
C1019 H1011 0.930 . S
C1019 C1020 1.355 . S
C1019 C1021 1.415 . S
C1020 C1019 1.355 . S
C1020 C1022 1.419 . S
C1021 C1016 1.425 . S
C1021 C1018 1.409 1_565 S
C1021 C1019 1.415 . S
C1022 H1012 0.930 . S
C1022 C1020 1.419 . S
C1022 C1023 1.362 . S
C1023 H1013 0.930 . S
C1023 C1016 1.409 . S
C1023 C1022 1.362 . S
H1024 C1030 0.930 . S
H1025 C1033 0.930 . S
H1026 C1034 0.930 . S
H1027 C1035 0.930 . S
H1028 C1038 0.930 . S
H1029 C1039 0.930 . S
C1030 H1024 0.930 . S
C1030 C1031 1.355 . S
C1030 C1032 1.415 . S
C1031 C1030 1.355 . S
C1031 C1033 1.419 . S
C1032 C1030 1.415 . S
C1032 C1037 1.425 . S
C1032 C1039 1.409 . S
C1033 H1025 0.930 . S
C1033 C1031 1.419 . S
C1033 C1034 1.362 . S
C1034 H1026 0.930 . S
C1034 C1033 1.362 . S
C1034 C1037 1.409 . S
C1035 H1027 0.930 . S
C1035 C1036 1.355 . S
C1035 C1037 1.415 . S
C1036 C1035 1.355 . S
C1036 C1038 1.419 . S
C1037 C1032 1.425 . S
C1037 C1034 1.409 . S
C1037 C1035 1.415 . S
C1038 H1028 0.930 . S
C1038 C1036 1.419 . S
C1038 C1039 1.362 . S
C1039 H1029 0.930 . S
C1039 C1032 1.409 . S
C1039 C1038 1.362 . S
H1040 C1046 0.930 . S
H1041 C1049 0.930 . S
H1042 C1050 0.930 . S
H1043 C1051 0.930 . S
H1044 C1054 0.930 . S
H1045 C1055 0.930 . S
C1046 H1040 0.930 . S
C1046 C1047 1.355 . S
C1046 C1048 1.415 . S
C1047 C1046 1.355 . S
C1047 C1049 1.419 . S
C1048 C1046 1.415 . S
C1048 C1053 1.425 . S
C1048 C1055 1.409 . S
C1049 H1041 0.930 . S
C1049 C1047 1.419 . S
C1049 C1050 1.362 . S
C1050 H1042 0.930 . S
C1050 C1049 1.362 . S
C1050 C1053 1.409 . S
C1051 H1043 0.930 . S
C1051 C1052 1.355 . S
C1051 C1053 1.415 . S
C1052 C1051 1.355 . S
C1052 C1054 1.419 . S
C1053 C1048 1.425 . S
C1053 C1050 1.409 . S
C1053 C1051 1.415 . S
C1054 H1044 0.930 . S
C1054 C1052 1.419 . S
C1054 C1055 1.362 . S
C1055 H1045 0.930 . S
C1055 C1048 1.409 . S
C1055 C1054 1.362 . S
H1056 C1062 0.930 . S
H1057 C1065 0.930 . S
H1058 C1066 0.930 . S
H1059 C1067 0.930 . S
H1060 C1070 0.930 . S
H1061 C1071 0.930 . S
C1062 H1056 0.930 . S
C1062 C1063 1.355 . S
C1062 C1064 1.415 . S
C1063 C1062 1.355 . S
C1063 C1065 1.419 . S
C1064 C1062 1.415 . S
C1064 C1069 1.425 . S
C1064 C1071 1.409 . S
C1065 H1057 0.930 . S
C1065 C1063 1.419 . S
C1065 C1066 1.362 . S
C1066 H1058 0.930 . S
C1066 C1065 1.362 . S
C1066 C1069 1.409 . S
C1067 H1059 0.930 . S
C1067 C1068 1.355 . S
C1067 C1069 1.415 . S
C1068 C1067 1.355 . S
C1068 C1070 1.419 . S
C1069 C1064 1.425 . S
C1069 C1066 1.409 . S
C1069 C1067 1.415 . S
C1070 H1060 0.930 . S
C1070 C1068 1.419 . S
C1070 C1071 1.362 . S
C1071 H1061 0.930 . S
C1071 C1064 1.409 . S
C1071 C1070 1.362 . S
H1072 C1078 0.930 . S
H1073 C1081 0.930 . S
H1074 C1082 0.930 . S
H1075 C1083 0.930 . S
H1076 C1086 0.930 . S
H1077 C1087 0.930 . S
C1078 H1072 0.930 . S
C1078 C1079 1.355 . S
C1078 C1080 1.415 . S
C1079 C1078 1.355 . S
C1079 C1081 1.419 . S
C1080 C1078 1.415 . S
C1080 C1085 1.425 . S
C1080 C1087 1.409 . S
C1081 H1073 0.930 . S
C1081 C1079 1.419 . S
C1081 C1082 1.362 . S
C1082 H1074 0.930 . S
C1082 C1081 1.362 . S
C1082 C1085 1.409 . S
C1083 H1075 0.930 . S
C1083 C1084 1.355 . S
C1083 C1085 1.415 . S
C1084 C1083 1.355 . S
C1084 C1086 1.419 . S
C1085 C1080 1.425 . S
C1085 C1082 1.409 . S
C1085 C1083 1.415 . S
C1086 H1076 0.930 . S
C1086 C1084 1.419 . S
C1086 C1087 1.362 . S
C1087 H1077 0.930 . S
C1087 C1080 1.409 . S
C1087 C1086 1.362 . S
H1088 C1094 0.930 . S
H1089 C1097 0.930 . S
H1090 C1098 0.930 . S
H1091 C1099 0.930 . S
H1092 C1102 0.930 . S
H1093 C1103 0.930 . S
C1094 H1088 0.930 . S
C1094 C1095 1.355 . S
C1094 C1096 1.415 . S
C1095 C1094 1.355 . S
C1095 C1097 1.419 . S
C1096 C1094 1.415 . S
C1096 C1101 1.425 . S
C1096 C1103 1.409 . S
C1097 H1089 0.930 . S
C1097 C1095 1.419 . S
C1097 C1098 1.362 . S
C1098 H1090 0.930 . S
C1098 C1097 1.362 . S
C1098 C1101 1.409 . S
C1099 H1091 0.930 . S
C1099 C1100 1.355 . S
C1099 C1101 1.415 . S
C1100 C1099 1.355 . S
C1100 C1102 1.419 . S
C1101 C1096 1.425 . S
C1101 C1098 1.409 . S
C1101 C1099 1.415 . S
C1102 H1092 0.930 . S
C1102 C1100 1.419 . S
C1102 C1103 1.362 . S
C1103 H1093 0.930 . S
C1103 C1096 1.409 . S
C1103 C1102 1.362 . S
H1104 C1110 0.930 . S
H1105 C1113 0.930 . S
H1106 C1114 0.930 . S
H1107 C1115 0.930 . S
H1108 C1118 0.911 1_554 S
H1109 C1119 0.930 . S
C1110 H1104 0.930 . S
C1110 C1111 1.355 . S
C1110 C1112 1.415 . S
C1111 C1110 1.355 . S
C1111 C1113 1.419 . S
C1112 C1110 1.415 . S
C1112 C1117 1.425 . S
C1112 C1119 1.409 . S
C1113 H1105 0.930 . S
C1113 C1111 1.419 . S
C1113 C1114 1.362 . S
C1114 H1106 0.930 . S
C1114 C1113 1.362 . S
C1114 C1117 1.409 . S
C1115 H1107 0.930 . S
C1115 C1116 1.355 . S
C1115 C1117 1.415 . S
C1116 C1115 1.355 . S
C1116 C1118 1.419 . S
C1117 C1112 1.425 . S
C1117 C1114 1.409 . S
C1117 C1115 1.415 . S
C1118 H1108 0.911 1_556 S
C1118 C1116 1.419 . S
C1118 C1119 1.362 . S
C1119 H1109 0.930 . S
C1119 C1112 1.409 . S
C1119 C1118 1.362 . S
H1120 C1126 0.930 . S
H1121 C1129 0.930 . S
H1122 C1130 0.930 . S
H1123 C1131 0.930 . S
H1124 C1134 0.919 1_655 S
H1125 C1135 0.930 . S
C1126 H1120 0.930 . S
C1126 C1127 1.355 . S
C1126 C1128 1.415 . S
C1127 C1126 1.355 . S
C1127 C1129 1.419 . S
C1128 C1126 1.415 . S
C1128 C1133 1.425 . S
C1128 C1135 1.409 . S
C1129 H1121 0.930 . S
C1129 C1127 1.419 . S
C1129 C1130 1.362 . S
C1130 H1122 0.930 . S
C1130 C1129 1.362 . S
C1130 C1133 1.409 . S
C1131 H1123 0.930 . S
C1131 C1132 1.355 . S
C1131 C1133 1.415 . S
C1132 C1131 1.355 . S
C1132 C1134 1.419 . S
C1133 C1128 1.425 . S
C1133 C1130 1.409 . S
C1133 C1131 1.415 . S
C1134 H1124 0.919 1_455 S
C1134 C1132 1.419 . S
C1134 C1135 1.362 . S
C1135 H1125 0.930 . S
C1135 C1128 1.409 . S
C1135 C1134 1.362 . S
H1136 C1142 0.930 . S
H1137 C1145 0.930 . S
H1138 C1146 0.930 . S
H1139 C1147 0.930 . S
H1140 C1150 0.930 . S
H1141 C1151 0.930 . S
C1142 H1136 0.930 . S
C1142 C1143 1.355 . S
C1142 C1144 1.415 . S
C1143 C1142 1.355 . S
C1143 C1145 1.419 . S
C1144 C1142 1.415 . S
C1144 C1149 1.425 . S
C1144 C1151 1.409 . S
C1145 H1137 0.930 . S
C1145 C1143 1.419 . S
C1145 C1146 1.362 . S
C1146 H1138 0.930 . S
C1146 C1145 1.362 . S
C1146 C1149 1.409 . S
C1147 H1139 0.930 . S
C1147 C1148 1.355 . S
C1147 C1149 1.415 . S
C1148 C1147 1.355 . S
C1148 C1150 1.419 . S
C1149 C1144 1.425 . S
C1149 C1146 1.409 . S
C1149 C1147 1.415 . S
C1150 H1140 0.930 . S
C1150 C1148 1.419 . S
C1150 C1151 1.362 . S
C1151 H1141 0.930 . S
C1151 C1144 1.409 . S
C1151 C1150 1.362 . S
H1152 C1158 0.930 . S
H1153 C1161 0.930 . S
H1154 C1162 0.930 . S
H1155 C1163 0.930 . S
H1156 C1166 0.930 . S
H1157 C1167 0.930 . S
C1158 H1152 0.930 . S
C1158 C1159 1.355 . S
C1158 C1160 1.415 . S
C1159 C1158 1.355 . S
C1159 C1161 1.419 . S
C1160 C1158 1.415 . S
C1160 C1165 1.425 . S
C1160 C1167 1.409 . S
C1161 H1153 0.930 . S
C1161 C1159 1.419 . S
C1161 C1162 1.362 . S
C1162 H1154 0.930 . S
C1162 C1161 1.362 . S
C1162 C1165 1.409 . S
C1163 H1155 0.930 . S
C1163 C1164 1.355 . S
C1163 C1165 1.415 . S
C1164 C1163 1.355 . S
C1164 C1166 1.419 . S
C1165 C1160 1.425 . S
C1165 C1162 1.409 . S
C1165 C1163 1.415 . S
C1166 H1156 0.930 . S
C1166 C1164 1.419 . S
C1166 C1167 1.362 . S
C1167 H1157 0.930 . S
C1167 C1160 1.409 . S
C1167 C1166 1.362 . S
H1168 C1174 0.930 . S
H1169 C1177 0.930 . S
H1170 C1178 0.930 . S
H1171 C1179 0.930 . S
H1172 C1182 0.930 . S
H1173 C1183 0.930 . S
C1174 H1168 0.930 . S
C1174 C1175 1.355 . S
C1174 C1176 1.415 . S
C1175 C1174 1.355 . S
C1175 C1177 1.419 . S
C1176 C1174 1.415 . S
C1176 C1181 1.425 . S
C1176 C1183 1.409 . S
C1177 H1169 0.930 . S
C1177 C1175 1.419 . S
C1177 C1178 1.362 . S
C1178 H1170 0.930 . S
C1178 C1177 1.362 . S
C1178 C1181 1.409 . S
C1179 H1171 0.930 . S
C1179 C1180 1.355 . S
C1179 C1181 1.415 . S
C1180 C1179 1.355 . S
C1180 C1182 1.419 . S
C1181 C1176 1.425 . S
C1181 C1178 1.409 . S
C1181 C1179 1.415 . S
C1182 H1172 0.930 . S
C1182 C1180 1.419 . S
C1182 C1183 1.362 . S
C1183 H1173 0.930 . S
C1183 C1176 1.409 . S
C1183 C1182 1.362 . S
H1184 C1190 0.930 . S
H1185 C1193 0.930 . S
H1186 C1194 0.930 . S
H1187 C1195 0.930 . S
H1188 C1198 0.930 . S
H1189 C1199 0.930 . S
C1190 H1184 0.930 . S
C1190 C1191 1.355 . S
C1190 C1192 1.415 . S
C1191 C1190 1.355 . S
C1191 C1193 1.419 . S
C1192 C1190 1.415 . S
C1192 C1197 1.425 . S
C1192 C1199 1.409 . S
C1193 H1185 0.930 . S
C1193 C1191 1.419 . S
C1193 C1194 1.362 . S
C1194 H1186 0.930 . S
C1194 C1193 1.362 . S
C1194 C1197 1.409 . S
C1195 H1187 0.930 . S
C1195 C1196 1.355 . S
C1195 C1197 1.415 . S
C1196 C1195 1.355 . S
C1196 C1198 1.419 . S
C1197 C1192 1.425 . S
C1197 C1194 1.409 . S
C1197 C1195 1.415 . S
C1198 H1188 0.930 . S
C1198 C1196 1.419 . S
C1198 C1199 1.362 . S
C1199 H1189 0.930 . S
C1199 C1192 1.409 . S
C1199 C1198 1.362 . S
H1200 C1206 0.930 . S
H1201 C1209 0.930 . S
H1202 C1210 0.930 . S
H1203 C1211 0.930 . S
H1204 C1214 0.930 . S
H1205 C1215 0.930 . S
C1206 H1200 0.930 . S
C1206 C1207 1.355 . S
C1206 C1208 1.415 . S
C1207 C1206 1.355 . S
C1207 C1209 1.419 . S
C1208 C1206 1.415 . S
C1208 C1213 1.425 . S
C1208 C1215 1.409 . S
C1209 H1201 0.930 . S
C1209 C1207 1.419 . S
C1209 C1210 1.362 . S
C1210 H1202 0.930 . S
C1210 C1209 1.362 . S
C1210 C1213 1.409 . S
C1211 H1203 0.930 . S
C1211 C1212 1.355 . S
C1211 C1213 1.415 . S
C1212 C1211 1.355 . S
C1212 C1214 1.419 . S
C1213 C1208 1.425 . S
C1213 C1210 1.409 . S
C1213 C1211 1.415 . S
C1214 H1204 0.930 . S
C1214 C1212 1.419 . S
C1214 C1215 1.362 . S
C1215 H1205 0.930 . S
C1215 C1208 1.409 . S
C1215 C1214 1.362 . S
H1216 C1222 0.930 . S
H1217 C1225 0.942 . S
H1218 C1226 0.930 1_455 S
H1219 C1227 0.930 . S
H1220 C1230 0.930 . S
H1221 C1231 0.930 . S
C1222 H1216 0.930 . S
C1222 C1223 1.355 . S
C1222 C1224 1.415 . S
C1223 C1222 1.355 . S
C1223 C1225 1.411 1_655 S
C1224 C1222 1.415 . S
C1224 C1229 1.425 . S
C1224 C1231 1.409 . S
C1225 H1217 0.942 . S
C1225 C1223 1.411 1_455 S
C1225 C1226 1.359 1_455 S
C1226 H1218 0.930 1_655 S
C1226 C1225 1.359 1_655 S
C1226 C1229 1.409 . S
C1227 H1219 0.930 . S
C1227 C1228 1.355 . S
C1227 C1229 1.415 . S
C1228 C1227 1.355 . S
C1228 C1230 1.419 . S
C1229 C1224 1.425 . S
C1229 C1226 1.409 . S
C1229 C1227 1.415 . S
C1230 H1220 0.930 . S
C1230 C1228 1.419 . S
C1230 C1231 1.362 . S
C1231 H1221 0.930 . S
C1231 C1224 1.409 . S
C1231 C1230 1.362 . S
H1232 C1238 0.930 . S
H1233 C1241 0.930 . S
H1234 C1242 0.930 . S
H1235 C1243 0.930 . S
H1236 C1246 0.930 . S
H1237 C1247 0.930 . S
C1238 H1232 0.930 . S
C1238 C1239 1.355 . S
C1238 C1240 1.415 . S
C1239 C1238 1.355 . S
C1239 C1241 1.419 . S
C1240 C1238 1.415 . S
C1240 C1245 1.425 . S
C1240 C1247 1.409 . S
C1241 H1233 0.930 . S
C1241 C1239 1.419 . S
C1241 C1242 1.362 . S
C1242 H1234 0.930 . S
C1242 C1241 1.362 . S
C1242 C1245 1.409 . S
C1243 H1235 0.930 . S
C1243 C1244 1.355 . S
C1243 C1245 1.415 . S
C1244 C1243 1.355 . S
C1244 C1246 1.419 . S
C1245 C1240 1.425 . S
C1245 C1242 1.409 . S
C1245 C1243 1.415 . S
C1246 H1236 0.930 . S
C1246 C1244 1.419 . S
C1246 C1247 1.362 . S
C1247 H1237 0.930 . S
C1247 C1240 1.409 . S
C1247 C1246 1.362 . S
H1248 C1254 0.930 . S
H1249 C1257 0.930 . S
H1250 C1258 0.930 . S
H1251 C1259 0.930 . S
H1252 C1262 0.930 . S
H1253 C1263 0.930 . S
C1254 H1248 0.930 . S
C1254 C1255 1.355 . S
C1254 C1256 1.415 . S
C1255 C1254 1.355 . S
C1255 C1257 1.419 . S
C1256 C1254 1.415 . S
C1256 C1261 1.425 . S
C1256 C1263 1.409 . S
C1257 H1249 0.930 . S
C1257 C1255 1.419 . S
C1257 C1258 1.362 . S
C1258 H1250 0.930 . S
C1258 C1257 1.362 . S
C1258 C1261 1.409 . S
C1259 H1251 0.930 . S
C1259 C1260 1.355 . S
C1259 C1261 1.415 . S
C1260 C1259 1.355 . S
C1260 C1262 1.419 . S
C1261 C1256 1.425 . S
C1261 C1258 1.409 . S
C1261 C1259 1.415 . S
C1262 H1252 0.930 . S
C1262 C1260 1.419 . S
C1262 C1263 1.362 . S
C1263 H1253 0.930 . S
C1263 C1256 1.409 . S
C1263 C1262 1.362 . S
H1264 C1270 0.930 . S
H1265 C1273 0.930 . S
H1266 C1274 0.930 . S
H1267 C1275 0.930 . S
H1268 C1278 0.930 . S
H1269 C1279 0.930 . S
C1270 H1264 0.930 . S
C1270 C1271 1.355 . S
C1270 C1272 1.415 . S
C1271 C1270 1.355 . S
C1271 C1273 1.419 . S
C1272 C1270 1.415 . S
C1272 C1277 1.425 . S
C1272 C1279 1.409 . S
C1273 H1265 0.930 . S
C1273 C1271 1.419 . S
C1273 C1274 1.362 . S
C1274 H1266 0.930 . S
C1274 C1273 1.362 . S
C1274 C1277 1.409 . S
C1275 H1267 0.930 . S
C1275 C1276 1.355 . S
C1275 C1277 1.415 . S
C1276 C1275 1.355 . S
C1276 C1278 1.419 . S
C1277 C1272 1.425 . S
C1277 C1274 1.409 . S
C1277 C1275 1.415 . S
C1278 H1268 0.930 . S
C1278 C1276 1.419 . S
C1278 C1279 1.362 . S
C1279 H1269 0.930 . S
C1279 C1272 1.409 . S
C1279 C1278 1.362 . S
H1280 C1286 0.930 . S
H1281 C1289 0.930 . S
H1282 C1290 0.930 . S
H1283 C1291 0.930 . S
H1284 C1294 0.930 . S
H1285 C1295 0.930 . S
C1286 H1280 0.930 . S
C1286 C1287 1.355 . S
C1286 C1288 1.415 . S
C1287 C1286 1.355 . S
C1287 C1289 1.419 . S
C1288 C1286 1.415 . S
C1288 C1293 1.425 . S
C1288 C1295 1.409 . S
C1289 H1281 0.930 . S
C1289 C1287 1.419 . S
C1289 C1290 1.362 . S
C1290 H1282 0.930 . S
C1290 C1289 1.362 . S
C1290 C1293 1.409 . S
C1291 H1283 0.930 . S
C1291 C1292 1.355 . S
C1291 C1293 1.415 . S
C1292 C1291 1.355 . S
C1292 C1294 1.419 . S
C1293 C1288 1.425 . S
C1293 C1290 1.409 . S
C1293 C1291 1.415 . S
C1294 H1284 0.930 . S
C1294 C1292 1.419 . S
C1294 C1295 1.362 . S
C1295 H1285 0.930 . S
C1295 C1288 1.409 . S
C1295 C1294 1.362 . S
H1296 C1302 0.930 . S
H1297 C1305 0.930 . S
H1298 C1306 0.930 . S
H1299 C1307 0.930 . S
H1300 C1310 0.930 . S
H1301 C1311 0.930 . S
C1302 H1296 0.930 . S
C1302 C1303 1.355 . S
C1302 C1304 1.415 . S
C1303 C1302 1.355 . S
C1303 C1305 1.419 . S
C1304 C1302 1.415 . S
C1304 C1309 1.425 . S
C1304 C1311 1.409 . S
C1305 H1297 0.930 . S
C1305 C1303 1.419 . S
C1305 C1306 1.362 . S
C1306 H1298 0.930 . S
C1306 C1305 1.362 . S
C1306 C1309 1.409 . S
C1307 H1299 0.930 . S
C1307 C1308 1.355 . S
C1307 C1309 1.415 . S
C1308 C1307 1.355 . S
C1308 C1310 1.419 . S
C1309 C1304 1.425 . S
C1309 C1306 1.409 . S
C1309 C1307 1.415 . S
C1310 H1300 0.930 . S
C1310 C1308 1.419 . S
C1310 C1311 1.362 . S
C1311 H1301 0.930 . S
C1311 C1304 1.409 . S
C1311 C1310 1.362 . S
H1312 C1318 0.930 . S
H1313 C1321 0.930 . S
H1314 C1322 0.930 . S
H1315 C1323 0.930 . S
H1316 C1326 0.930 . S
H1317 C1327 0.930 . S
C1318 H1312 0.930 . S
C1318 C1319 1.355 . S
C1318 C1320 1.415 . S
C1319 C1318 1.355 . S
C1319 C1321 1.419 . S
C1320 C1318 1.415 . S
C1320 C1325 1.425 . S
C1320 C1327 1.409 . S
C1321 H1313 0.930 . S
C1321 C1319 1.419 . S
C1321 C1322 1.362 . S
C1322 H1314 0.930 . S
C1322 C1321 1.362 . S
C1322 C1325 1.409 . S
C1323 H1315 0.930 . S
C1323 C1324 1.355 . S
C1323 C1325 1.415 . S
C1324 C1323 1.355 . S
C1324 C1326 1.419 . S
C1325 C1320 1.425 . S
C1325 C1322 1.409 . S
C1325 C1323 1.415 . S
C1326 H1316 0.930 . S
C1326 C1324 1.419 . S
C1326 C1327 1.362 . S
C1327 H1317 0.930 . S
C1327 C1320 1.409 . S
C1327 C1326 1.362 . S
H1328 C1334 0.930 . S
H1329 C1337 0.930 . S
H1330 C1338 0.930 . S
H1331 C1339 0.930 . S
H1332 C1342 0.930 . S
H1333 C1343 0.930 . S
C1334 H1328 0.930 . S
C1334 C1335 1.355 . S
C1334 C1336 1.415 . S
C1335 C1334 1.355 . S
C1335 C1337 1.419 . S
C1336 C1334 1.415 . S
C1336 C1341 1.425 1_454 S
C1336 C1343 1.409 1_454 S
C1337 H1329 0.930 . S
C1337 C1335 1.419 . S
C1337 C1338 1.362 . S
C1338 H1330 0.930 . S
C1338 C1337 1.362 . S
C1338 C1341 1.409 1_454 S
C1339 H1331 0.930 . S
C1339 C1340 1.355 . S
C1339 C1341 1.415 . S
C1340 C1339 1.355 . S
C1340 C1342 1.419 . S
C1341 C1336 1.425 1_656 S
C1341 C1338 1.409 1_656 S
C1341 C1339 1.415 . S
C1342 H1332 0.930 . S
C1342 C1340 1.419 . S
C1342 C1343 1.362 . S
C1343 H1333 0.930 . S
C1343 C1336 1.409 1_656 S
C1343 C1342 1.362 . S
H1344 C1350 0.930 . S
H1345 C1353 0.930 . S
H1346 C1354 0.930 . S
H1347 C1355 0.930 . S
H1348 C1358 0.930 . S
H1349 C1359 0.930 . S
C1350 H1344 0.930 . S
C1350 C1351 1.355 . S
C1350 C1352 1.415 . S
C1351 C1350 1.355 . S
C1351 C1353 1.419 . S
C1352 C1350 1.415 . S
C1352 C1357 1.425 . S
C1352 C1359 1.409 . S
C1353 H1345 0.930 . S
C1353 C1351 1.419 . S
C1353 C1354 1.362 . S
C1354 H1346 0.930 . S
C1354 C1353 1.362 . S
C1354 C1357 1.409 . S
C1355 H1347 0.930 . S
C1355 C1356 1.355 . S
C1355 C1357 1.415 . S
C1356 C1355 1.355 . S
C1356 C1358 1.419 . S
C1357 C1352 1.425 . S
C1357 C1354 1.409 . S
C1357 C1355 1.415 . S
C1358 H1348 0.930 . S
C1358 C1356 1.419 . S
C1358 C1359 1.362 . S
C1359 H1349 0.930 . S
C1359 C1352 1.409 . S
C1359 C1358 1.362 . S
H1360 C1366 0.930 . S
H1361 C1369 0.930 . S
H1362 C1370 0.930 . S
H1363 C1371 0.930 . S
H1364 C1374 0.930 . S
H1365 C1375 0.930 . S
C1366 H1360 0.930 . S
C1366 C1367 1.355 . S
C1366 C1368 1.415 . S
C1367 C1366 1.355 . S
C1367 C1369 1.419 . S
C1368 C1366 1.415 . S
C1368 C1373 1.425 . S
C1368 C1375 1.409 . S
C1369 H1361 0.930 . S
C1369 C1367 1.419 . S
C1369 C1370 1.362 . S
C1370 H1362 0.930 . S
C1370 C1369 1.362 . S
C1370 C1373 1.409 . S
C1371 H1363 0.930 . S
C1371 C1372 1.355 . S
C1371 C1373 1.415 . S
C1372 C1371 1.355 . S
C1372 C1374 1.419 . S
C1373 C1368 1.425 . S
C1373 C1370 1.409 . S
C1373 C1371 1.415 . S
C1374 H1364 0.930 . S
C1374 C1372 1.419 . S
C1374 C1375 1.362 . S
C1375 H1365 0.930 . S
C1375 C1368 1.409 . S
C1375 C1374 1.362 . S
H1376 C1382 0.930 . S
H1377 C1385 0.930 . S
H1378 C1386 0.930 . S
H1379 C1387 0.930 . S
H1380 C1390 0.930 . S
H1381 C1391 0.930 . S
C1382 H1376 0.930 . S
C1382 C1383 1.355 . S
C1382 C1384 1.415 1_455 S
C1383 C1382 1.355 . S
C1383 C1385 1.419 1_565 S
C1384 C1382 1.415 1_655 S
C1384 C1389 1.425 1_666 S
C1384 C1391 1.409 . S
C1385 H1377 0.930 . S
C1385 C1383 1.419 1_545 S
C1385 C1386 1.362 1_556 S
C1386 H1378 0.930 . S
C1386 C1385 1.362 1_554 S
C1386 C1389 1.409 . S
C1387 H1379 0.930 . S
C1387 C1388 1.355 . S
C1387 C1389 1.415 1_655 S
C1388 C1387 1.355 . S
C1388 C1390 1.419 1_545 S
C1389 C1384 1.425 1_444 S
C1389 C1386 1.409 . S
C1389 C1387 1.415 1_455 S
C1390 H1380 0.930 . S
C1390 C1388 1.419 1_565 S
C1390 C1391 1.362 1_554 S
C1391 H1381 0.930 . S
C1391 C1384 1.409 . S
C1391 C1390 1.362 1_556 S
H1392 C1398 0.930 . S
H1393 C1401 0.930 . S
H1394 C1402 0.930 . S
H1395 C1403 0.930 . S
H1396 C1406 0.930 . S
H1397 C1407 0.930 . S
C1398 H1392 0.930 . S
C1398 C1399 1.355 . S
C1398 C1400 1.415 . S
C1399 C1398 1.355 . S
C1399 C1401 1.419 1_565 S
C1400 C1398 1.415 . S
C1400 C1405 1.425 1_565 S
C1400 C1407 1.409 . S
C1401 H1393 0.930 . S
C1401 C1399 1.419 1_545 S
C1401 C1402 1.362 . S
C1402 H1394 0.930 . S
C1402 C1401 1.362 . S
C1402 C1405 1.409 . S
C1403 H1395 0.930 . S
C1403 C1404 1.355 . S
C1403 C1405 1.415 . S
C1404 C1403 1.355 . S
C1404 C1406 1.419 1_545 S
C1405 C1400 1.425 1_545 S
C1405 C1402 1.409 . S
C1405 C1403 1.415 . S
C1406 H1396 0.930 . S
C1406 C1404 1.419 1_565 S
C1406 C1407 1.362 . S
C1407 H1397 0.930 . S
C1407 C1400 1.409 . S
C1407 C1406 1.362 . S
C647 C10 3.358 . S
C652 C410 3.358 . S
C663 C50 3.333 . S
C668 C450 3.333 . S
C679 C90 3.349 . S
C684 C330 3.349 . S
C695 C130 3.353 . S
C700 C370 3.353 . S
C711 C179 3.327 . S
C716 C579 3.327 . S
C727 C219 3.337 . S
C732 C619 3.337 . S
C743 C259 3.347 . S
C748 C499 3.348 . S
C759 C299 3.358 . S
C764 C539 3.358 . S
C775 C369 3.744 . S
C780 C19 3.678 1_556 S
C791 C409 3.727 . S
C796 C59 3.710 . S
C807 C449 3.753 . S
C812 C99 3.678 . S
C823 C329 3.741 . S
C828 C139 3.680 . S
C839 C170 3.677 1_554 S
C844 C538 3.753 . S
C855 C578 3.724 . S
C860 C210 3.707 . S
C871 C618 3.726 . S
C876 C250 3.700 . S
C887 C498 3.732 . S
C892 C290 3.707 . S
C903 C49 3.724 . S
C908 C339 3.708 . S
C919 C379 3.709 . S
C924 C89 3.728 . S
C935 C419 3.699 1_556 S
C940 C129 3.726 . S
C951 C459 3.674 . S
C956 C9 3.752 . S
C967 C490 3.690 . S
C972 C218 3.747 . S
C983 C258 3.752 . S
C988 C530 3.682 . S
C999 C298 3.726 . S
C1004 C570 3.700 1_554 S
C1015 C610 3.677 . S
C1020 C178 3.753 . S
C1031 C6 0.376 . S
C1036 C609 0.238 . S
C1047 C46 0.441 . S
C1052 C169 0.339 . S
C1063 C529 0.347 . S
C1068 C86 0.630 . S
C1079 C249 0.267 . S
C1084 C126 0.570 . S
C1095 C175 0.473 . S
C1100 C458 0.224 . S
C1111 C215 0.407 . S
C1116 C18 0.224 . S
C1127 C378 0.353 . S
C1132 C255 0.473 . S
C1143 C98 0.263 . S
C1148 C295 0.361 . S
C1159 C326 0.492 . S
C1164 C289 0.229 . S
C1175 C366 0.414 . S
C1180 C489 0.325 . S
C1191 C209 0.227 . S
C1196 C406 0.484 . S
C1207 C569 0.325 . S
C1212 C446 0.413 . S
C1223 C495 0.364 . S
C1228 C138 0.279 . S
C1239 C535 0.436 . S
C1244 C338 0.221 . S
C1255 C575 0.609 . S
C1260 C58 0.370 . S
C1271 C418 0.374 . S
C1276 C615 0.594 . S
C1287 C15 1.887 . S
C1292 C486 1.887 . S
C1303 C55 1.880 . S
C1308 C206 1.880 . S
C1319 C95 1.894 . S
C1324 C566 1.894 . S
C1335 C286 1.841 . S
C1340 C135 1.841 . S
C1351 C166 1.930 . S
C1356 C335 1.930 . S
C1367 C415 1.834 . S
C1372 C246 1.834 . S
C1383 C375 1.842 1_565 S
C1388 C526 1.842 1_545 S
C1399 C606 1.898 1_565 S
C1404 C455 1.898 1_545 S
