# Generated by pormake.
# Topology pcb, (4)-cn, num edge types: 1
# Building blocks:
#     Node 0, Type 0, BuildingBlock: QUQFOY_clean_sbu_1, # of connection points: 4
#     Node 1, Type 0, BuildingBlock: QUQFOY_clean_sbu_1, # of connection points: 4
#     Node 2, Type 0, BuildingBlock: QUQFOY_clean_sbu_1, # of connection points: 4
#     Node 3, Type 0, BuildingBlock: QUQFOY_clean_sbu_1, # of connection points: 4
#     Node 4, Type 0, BuildingBlock: QUQFOY_clean_sbu_1, # of connection points: 4
#     Node 5, Type 0, BuildingBlock: QUQFOY_clean_sbu_1, # of connection points: 4
#     Node 6, Type 0, BuildingBlock: QUQFOY_clean_sbu_1, # of connection points: 4
#     Node 7, Type 0, BuildingBlock: QUQFOY_clean_sbu_1, # of connection points: 4
#     Node 8, Type 0, BuildingBlock: QUQFOY_clean_sbu_1, # of connection points: 4
#     Node 9, Type 0, BuildingBlock: QUQFOY_clean_sbu_1, # of connection points: 4
#     Node 10, Type 0, BuildingBlock: QUQFOY_clean_sbu_1, # of connection points: 4
#     Node 11, Type 0, BuildingBlock: QUQFOY_clean_sbu_1, # of connection points: 4
#     Node 12, Type 0, BuildingBlock: QUQFOY_clean_sbu_1, # of connection points: 4
#     Node 13, Type 0, BuildingBlock: QUQFOY_clean_sbu_1, # of connection points: 4
#     Node 14, Type 0, BuildingBlock: QUQFOY_clean_sbu_1, # of connection points: 4
#     Node 15, Type 0, BuildingBlock: QUQFOY_clean_sbu_1, # of connection points: 4
#     Edge 16, Type (0, 0), BuildingBlock: OJICUG_clean_linker_0, # of connection points: 2
#     Edge 17, Type (0, 0), BuildingBlock: OJICUG_clean_linker_0, # of connection points: 2
#     Edge 18, Type (0, 0), BuildingBlock: OJICUG_clean_linker_0, # of connection points: 2
#     Edge 19, Type (0, 0), BuildingBlock: OJICUG_clean_linker_0, # of connection points: 2
#     Edge 20, Type (0, 0), BuildingBlock: OJICUG_clean_linker_0, # of connection points: 2
#     Edge 21, Type (0, 0), BuildingBlock: OJICUG_clean_linker_0, # of connection points: 2
#     Edge 22, Type (0, 0), BuildingBlock: OJICUG_clean_linker_0, # of connection points: 2
#     Edge 23, Type (0, 0), BuildingBlock: OJICUG_clean_linker_0, # of connection points: 2
#     Edge 24, Type (0, 0), BuildingBlock: OJICUG_clean_linker_0, # of connection points: 2
#     Edge 25, Type (0, 0), BuildingBlock: OJICUG_clean_linker_0, # of connection points: 2
#     Edge 26, Type (0, 0), BuildingBlock: OJICUG_clean_linker_0, # of connection points: 2
#     Edge 27, Type (0, 0), BuildingBlock: OJICUG_clean_linker_0, # of connection points: 2
#     Edge 28, Type (0, 0), BuildingBlock: OJICUG_clean_linker_0, # of connection points: 2
#     Edge 29, Type (0, 0), BuildingBlock: OJICUG_clean_linker_0, # of connection points: 2
#     Edge 30, Type (0, 0), BuildingBlock: OJICUG_clean_linker_0, # of connection points: 2
#     Edge 31, Type (0, 0), BuildingBlock: OJICUG_clean_linker_0, # of connection points: 2
#     Edge 32, Type (0, 0), BuildingBlock: OJICUG_clean_linker_0, # of connection points: 2
#     Edge 33, Type (0, 0), BuildingBlock: OJICUG_clean_linker_0, # of connection points: 2
#     Edge 34, Type (0, 0), BuildingBlock: OJICUG_clean_linker_0, # of connection points: 2
#     Edge 35, Type (0, 0), BuildingBlock: OJICUG_clean_linker_0, # of connection points: 2
#     Edge 36, Type (0, 0), BuildingBlock: OJICUG_clean_linker_0, # of connection points: 2
#     Edge 37, Type (0, 0), BuildingBlock: OJICUG_clean_linker_0, # of connection points: 2
#     Edge 38, Type (0, 0), BuildingBlock: OJICUG_clean_linker_0, # of connection points: 2
#     Edge 39, Type (0, 0), BuildingBlock: OJICUG_clean_linker_0, # of connection points: 2
#     Edge 40, Type (0, 0), BuildingBlock: OJICUG_clean_linker_0, # of connection points: 2
#     Edge 41, Type (0, 0), BuildingBlock: OJICUG_clean_linker_0, # of connection points: 2
#     Edge 42, Type (0, 0), BuildingBlock: OJICUG_clean_linker_0, # of connection points: 2
#     Edge 43, Type (0, 0), BuildingBlock: OJICUG_clean_linker_0, # of connection points: 2
#     Edge 44, Type (0, 0), BuildingBlock: OJICUG_clean_linker_0, # of connection points: 2
#     Edge 45, Type (0, 0), BuildingBlock: OJICUG_clean_linker_0, # of connection points: 2
#     Edge 46, Type (0, 0), BuildingBlock: OJICUG_clean_linker_0, # of connection points: 2
#     Edge 47, Type (0, 0), BuildingBlock: OJICUG_clean_linker_0, # of connection points: 2
# Relax obj value: 0.295
# Max RMSD: 0.249
# Mean RMSD: 0.191
data_MOF--net-pcb--node1-QUQFOY_clean_sbu_1--edge1-OJICUG_clean_linker_0
_symmetry_space_group_name_H-M    P1
_symmetry_Int_Tables_number       1
_symmetry_cell_setting            triclinic
loop_
_symmetry_equiv_pos_as_xyz
'x, y, z'
_cell_length_a     34.104575
_cell_length_b     36.851118
_cell_length_c     37.032912
_cell_angle_alpha  92.667024
_cell_angle_beta   93.028124
_cell_angle_gamma 94.780125
loop_
_atom_site_label
_atom_site_type_symbol
_atom_site_fract_x
_atom_site_fract_y
_atom_site_fract_z
_atom_type_partial_charge
O0 O 0.07447 0.14481 0.16987 0.0
Cd1 Cd 0.1319 0.13766 0.18319 0.0
Cd2 Cd 0.13113 0.11066 0.1098 0.0
O3 O 0.07187 0.11537 0.11653 0.0
O4 O 0.14058 0.16077 0.23215 0.0
O5 O 0.17321 0.1798 0.18537 0.0
C6 C 0.16756 0.1824 0.21959 0.0
C7 C 0.14558 0.11911 0.04976 0.0
C8 C 0.05503 0.13196 0.14138 0.0
C9 C 0.16414 0.06621 0.16931 0.0
O10 O 0.16235 0.07295 0.13597 0.0
O11 O 0.14933 0.08679 0.1923 0.0
O12 O 0.1277 0.08936 0.05948 0.0
O13 O 0.15688 0.14409 0.07461 0.0
O14 O 0.79632 0.0957 0.17149 0.0
Cd15 Cd 0.81298 0.14945 0.1638 0.0
Cd16 Cd 0.80641 0.12231 0.09427 0.0
O17 O 0.77606 0.07826 0.11557 0.0
O18 O 0.80995 0.16945 0.21397 0.0
O19 O 0.7743 0.18783 0.16776 0.0
C20 C 0.78315 0.18916 0.20215 0.0
C21 C 0.78798 0.14206 0.03732 0.0
C22 C 0.78027 0.07141 0.14879 0.0
C23 C 0.8875 0.1441 0.12855 0.0
O24 O 0.86678 0.12531 0.10372 0.0
O25 O 0.87106 0.16045 0.1538 0.0
O26 O 0.79962 0.11013 0.04133 0.0
O27 O 0.78485 0.16274 0.06594 0.0
O28 O 0.89431 0.86085 0.21881 0.0
Cd29 Cd 0.83541 0.8671 0.22052 0.0
Cd30 Cd 0.83092 0.85667 0.14438 0.0
O31 O 0.88941 0.85083 0.15955 0.0
O32 O 0.81323 0.84599 0.26372 0.0
O33 O 0.79901 0.82292 0.20747 0.0
C34 C 0.79428 0.82146 0.24182 0.0
C35 C 0.81741 0.83835 0.08359 0.0
C36 C 0.90994 0.85331 0.18935 0.0
C37 C 0.80088 0.92496 0.18199 0.0
O38 O 0.80328 0.90354 0.15454 0.0
O39 O 0.8149 0.91709 0.21277 0.0
O40 O 0.83875 0.86773 0.09362 0.0
O41 O 0.80375 0.81803 0.10825 0.0
O42 O 0.18367 0.90363 0.22271 0.0
Cd43 Cd 0.15917 0.85061 0.21887 0.0
Cd44 Cd 0.15176 0.85458 0.14497 0.0
O45 O 0.17743 0.90466 0.16333 0.0
O46 O 0.18281 0.81748 0.25299 0.0
O47 O 0.18631 0.81223 0.19319 0.0
C48 C 0.19409 0.80004 0.22475 0.0
C49 C 0.16894 0.84495 0.085 0.0
C50 C 0.18772 0.92051 0.19387 0.0
C51 C 0.07754 0.84144 0.18653 0.0
O52 O 0.09322 0.8425 0.15608 0.0
O53 O 0.09887 0.8446 0.21587 0.0
O54 O 0.14538 0.8687 0.09413 0.0
O55 O 0.1812 0.82424 0.10955 0.0
O56 O 0.18996 0.808 0.91669 0.0
Cd57 Cd 0.17451 0.80034 0.86244 0.0
Cd58 Cd 0.17143 0.87231 0.86336 0.0
O59 O 0.19159 0.86784 0.91651 0.0
O60 O 0.1974 0.75592 0.84485 0.0
O61 O 0.21199 0.81069 0.82377 0.0
C62 C 0.21661 0.77619 0.82308 0.0
C63 C 0.1892 0.92614 0.83477 0.0
C64 C 0.19507 0.83895 0.93351 0.0
C65 C 0.09562 0.82334 0.84716 0.0
O66 O 0.11283 0.85525 0.85194 0.0
O67 O 0.11523 0.79567 0.84926 0.0
O68 O 0.16863 0.9259 0.86281 0.0
O69 O 0.20152 0.89584 0.82315 0.0
O70 O 0.0861 0.18959 0.8179 0.0
Cd71 Cd 0.14448 0.18915 0.83446 0.0
Cd72 Cd 0.13002 0.11714 0.81896 0.0
O73 O 0.08166 0.13481 0.79085 0.0
O74 O 0.16834 0.23961 0.83239 0.0
O75 O 0.18525 0.19335 0.79764 0.0
C76 C 0.18959 0.22767 0.80737 0.0
C77 C 0.15734 0.06429 0.79861 0.0
C78 C 0.0668 0.16469 0.79785 0.0
C79 C 0.14581 0.14384 0.89725 0.0
O80 O 0.13051 0.11876 0.87489 0.0
O81 O 0.1574 0.17473 0.88619 0.0
O82 O 0.12147 0.06374 0.80772 0.0
O83 O 0.17755 0.09549 0.79857 0.0
O84 O 0.87918 0.13295 0.76211 0.0
Cd85 Cd 0.82008 0.11841 0.76589 0.0
Cd86 Cd 0.83651 0.13678 0.83644 0.0
O87 O 0.88468 0.1639 0.81478 0.0
O88 O 0.78698 0.13831 0.72672 0.0
O89 O 0.7893 0.15782 0.78453 0.0
C90 C 0.7764 0.16088 0.75147 0.0
C91 C 0.8142 0.15886 0.89142 0.0
C92 C 0.89927 0.15447 0.7852 0.0
C93 C 0.81828 0.05642 0.81073 0.0
O94 O 0.83338 0.08056 0.83423 0.0
O95 O 0.80585 0.06564 0.77981 0.0
O96 O 0.84898 0.14829 0.88914 0.0
O97 O 0.79216 0.15883 0.86204 0.0
O98 O 0.90892 0.78022 0.85798 0.0
Cd99 Cd 0.85048 0.77494 0.867 0.0
Cd100 Cd 0.85215 0.85012 0.86337 0.0
O101 O 0.90913 0.8395 0.85206 0.0
O102 O 0.8265 0.72784 0.84651 0.0
O103 O 0.81268 0.78141 0.82564 0.0
C104 C 0.80705 0.7462 0.82388 0.0
C105 C 0.83633 0.9077 0.84546 0.0
C106 C 0.92695 0.81052 0.85161 0.0
C107 C 0.82588 0.8119 0.93182 0.0
O108 O 0.83069 0.84006 0.91348 0.0
O109 O 0.83349 0.78111 0.91871 0.0
O110 O 0.86106 0.90368 0.87199 0.0
O111 O 0.82046 0.87867 0.82785 0.0
O112 O 0.59884 0.64279 0.67525 0.0
Cd113 Cd 0.65526 0.62901 0.68205 0.0
Cd114 Cd 0.64315 0.60811 0.60264 0.0
O115 O 0.59014 0.62635 0.61714 0.0
O116 O 0.66964 0.64489 0.73274 0.0
O117 O 0.69974 0.66842 0.68646 0.0
C118 C 0.6967 0.667 0.72099 0.0
C119 C 0.64926 0.61181 0.5403 0.0
C120 C 0.57743 0.63963 0.6461 0.0
C121 C 0.67335 0.55431 0.65643 0.0
O122 O 0.66704 0.56345 0.62411 0.0
O123 O 0.66744 0.57565 0.68302 0.0
O124 O 0.62628 0.58694 0.55339 0.0
O125 O 0.66998 0.63449 0.5628 0.0
O126 O 0.32055 0.61002 0.68531 0.0
Cd127 Cd 0.33963 0.66408 0.68329 0.0
Cd128 Cd 0.33371 0.64175 0.6053 0.0
O129 O 0.30677 0.59612 0.62715 0.0
O130 O 0.33462 0.68098 0.7342 0.0
O131 O 0.30253 0.7036 0.6881 0.0
C132 C 0.30971 0.70273 0.72262 0.0
C133 C 0.32459 0.64264 0.54167 0.0
C134 C 0.30737 0.58724 0.65994 0.0
C135 C 0.41397 0.66621 0.64647 0.0
O136 O 0.39291 0.65354 0.61873 0.0
O137 O 0.39828 0.67457 0.67566 0.0
O138 O 0.34238 0.61804 0.55756 0.0
O139 O 0.30966 0.6667 0.56191 0.0
O140 O 0.3976 0.36001 0.71246 0.0
Cd141 Cd 0.34054 0.37187 0.71727 0.0
Cd142 Cd 0.33353 0.36541 0.63958 0.0
O143 O 0.38976 0.35111 0.65313 0.0
O144 O 0.32031 0.35313 0.76233 0.0
O145 O 0.29929 0.33066 0.70722 0.0
C146 C 0.2976 0.32986 0.742 0.0
C147 C 0.31729 0.35246 0.57804 0.0
C148 C 0.41099 0.35084 0.68235 0.0
C149 C 0.31375 0.43555 0.68208 0.0
O150 O 0.31387 0.41541 0.65336 0.0
O151 O 0.32569 0.42428 0.71222 0.0
O152 O 0.3429 0.37842 0.5895 0.0
O153 O 0.30076 0.3325 0.6016 0.0
O154 O 0.68341 0.38731 0.70243 0.0
Cd155 Cd 0.65786 0.33475 0.70232 0.0
Cd156 Cd 0.6468 0.33493 0.62882 0.0
O157 O 0.67247 0.38611 0.64333 0.0
O158 O 0.68046 0.30627 0.74113 0.0
O159 O 0.68459 0.29278 0.68238 0.0
C160 C 0.69185 0.28503 0.71567 0.0
C161 C 0.66179 0.32177 0.56884 0.0
C162 C 0.68495 0.40312 0.67277 0.0
C163 C 0.57477 0.32562 0.67319 0.0
O164 O 0.58878 0.32434 0.642 0.0
O165 O 0.59761 0.33009 0.70154 0.0
O166 O 0.63864 0.34609 0.57731 0.0
O167 O 0.67486 0.30237 0.59417 0.0
O168 O 0.66657 0.28744 0.39859 0.0
Cd169 Cd 0.64954 0.28515 0.34447 0.0
Cd170 Cd 0.65697 0.357 0.35049 0.0
O171 O 0.6806 0.34688 0.40122 0.0
O172 O 0.66733 0.24011 0.32246 0.0
O173 O 0.68779 0.29576 0.30654 0.0
C174 C 0.68887 0.2608 0.30276 0.0
C175 C 0.6804 0.4098 0.32296 0.0
C176 C 0.679 0.31665 0.41654 0.0
C177 C 0.57516 0.31841 0.33489 0.0
O178 O 0.59649 0.34793 0.34277 0.0
O179 O 0.59071 0.28835 0.33236 0.0
O180 O 0.6637 0.41112 0.35321 0.0
O181 O 0.68565 0.37823 0.30844 0.0
O182 O 0.58196 0.67348 0.30498 0.0
Cd183 Cd 0.64029 0.67197 0.32159 0.0
Cd184 Cd 0.62261 0.60007 0.30877 0.0
O185 O 0.57491 0.61781 0.27993 0.0
O186 O 0.66286 0.72308 0.32209 0.0
O187 O 0.68217 0.67915 0.28593 0.0
C188 C 0.68542 0.71299 0.29737 0.0
C189 C 0.65139 0.54826 0.28831 0.0
C190 C 0.56151 0.64856 0.28585 0.0
C191 C 0.6402 0.62791 0.38589 0.0
O192 O 0.62281 0.60272 0.3648 0.0
O193 O 0.65335 0.65761 0.37329 0.0
O194 O 0.61543 0.54672 0.29735 0.0
O195 O 0.6709 0.57984 0.28868 0.0
O196 O 0.37278 0.63018 0.2439 0.0
Cd197 Cd 0.31283 0.62078 0.24551 0.0
Cd198 Cd 0.32832 0.63135 0.32238 0.0
O199 O 0.38026 0.6515 0.30088 0.0
O200 O 0.28281 0.64962 0.21121 0.0
O201 O 0.28686 0.66001 0.27096 0.0
C202 C 0.27444 0.66908 0.23932 0.0
C203 C 0.32798 0.64203 0.38564 0.0
C204 C 0.39428 0.64563 0.27018 0.0
C205 C 0.29289 0.55666 0.2841 0.0
O206 O 0.30591 0.57802 0.31076 0.0
O207 O 0.29154 0.56792 0.25225 0.0
O208 O 0.35179 0.62163 0.37066 0.0
O209 O 0.30467 0.6584 0.36458 0.0
O210 O 0.38637 0.29332 0.34528 0.0
Cd211 Cd 0.32848 0.29212 0.35694 0.0
Cd212 Cd 0.33559 0.36373 0.35298 0.0
O213 O 0.39233 0.35298 0.34115 0.0
O214 O 0.30029 0.24586 0.33876 0.0
O215 O 0.28893 0.29975 0.31722 0.0
C216 C 0.2808 0.26483 0.31676 0.0
C217 C 0.31075 0.41375 0.32599 0.0
C218 C 0.40721 0.32245 0.33965 0.0
C219 C 0.31304 0.33122 0.42409 0.0
O220 O 0.31943 0.35911 0.40567 0.0
O221 O 0.31541 0.29966 0.40979 0.0
O222 O 0.3377 0.41747 0.35179 0.0
O223 O 0.29805 0.38121 0.31414 0.0
C224 C 0.24376 0.25705 0.25658 0.0
C225 C 0.2495 0.24657 0.29229 0.0
H226 H 0.21324 0.24419 0.20475 0.0
C227 C 0.2263 0.21694 0.3044 0.0
H228 H 0.26155 0.27991 0.24684 0.0
C229 C 0.19829 0.19737 0.28094 0.0
C230 C 0.19373 0.20648 0.24467 0.0
H231 H 0.23014 0.20864 0.33197 0.0
H232 H 0.18138 0.17409 0.29092 0.0
C233 C 0.21634 0.23669 0.23264 0.0
C234 C 0.72012 0.25852 0.24312 0.0
C235 C 0.71469 0.24445 0.27729 0.0
H236 H 0.74567 0.25131 0.19169 0.0
C237 C 0.73316 0.21346 0.28688 0.0
H238 H 0.70595 0.2824 0.23524 0.0
C239 C 0.75653 0.19652 0.26269 0.0
C240 C 0.76095 0.20961 0.22801 0.0
H241 H 0.72951 0.20228 0.31317 0.0
H242 H 0.77012 0.17239 0.27078 0.0
C243 C 0.74263 0.24077 0.21831 0.0
C244 C 0.75519 0.76068 0.2352 0.0
C245 C 0.76723 0.79299 0.25592 0.0
H246 H 0.72012 0.70939 0.23246 0.0
C247 C 0.75286 0.79828 0.2904 0.0
H248 H 0.766 0.75593 0.20855 0.0
C249 C 0.72634 0.77211 0.30371 0.0
C250 C 0.71422 0.73982 0.2831 0.0
H251 H 0.76156 0.82296 0.30692 0.0
H252 H 0.71544 0.77716 0.33027 0.0
C253 C 0.72915 0.73406 0.24888 0.0
C254 C 0.24315 0.72224 0.26632 0.0
C255 C 0.25269 0.70186 0.23546 0.0
H256 H 0.2173 0.76925 0.28714 0.0
C257 C 0.24271 0.71398 0.20103 0.0
H258 H 0.25051 0.71368 0.29325 0.0
C259 C 0.22389 0.74601 0.19753 0.0
C260 C 0.21454 0.76648 0.22841 0.0
H261 H 0.24979 0.69896 0.17673 0.0
H262 H 0.21665 0.75468 0.17062 0.0
C263 C 0.22421 0.75417 0.26282 0.0
C264 C 0.28436 0.71141 0.78369 0.0
C265 C 0.28818 0.72374 0.74863 0.0
H266 H 0.25825 0.71826 0.83448 0.0
C267 C 0.26993 0.75488 0.73869 0.0
H268 H 0.29797 0.68739 0.79207 0.0
C269 C 0.2478 0.77311 0.76345 0.0
C270 C 0.24283 0.75974 0.79797 0.0
H271 H 0.27254 0.76493 0.71183 0.0
H272 H 0.23346 0.79678 0.75519 0.0
C273 C 0.26152 0.72896 0.80794 0.0
C274 C 0.23008 0.24542 0.75557 0.0
C275 C 0.21795 0.25301 0.79057 0.0
H276 H 0.26446 0.2644 0.71226 0.0
C277 C 0.23238 0.28574 0.8094 0.0
H278 H 0.21918 0.2204 0.74046 0.0
C279 C 0.25859 0.31045 0.79362 0.0
C280 C 0.27023 0.30327 0.75841 0.0
H281 H 0.22358 0.29219 0.83648 0.0
H282 H 0.26928 0.33546 0.80884 0.0
C283 C 0.25571 0.27061 0.73941 0.0
C284 C 0.74092 0.2149 0.76958 0.0
C285 C 0.75236 0.19105 0.74213 0.0
H286 H 0.71301 0.26322 0.78276 0.0
C287 C 0.74288 0.19782 0.7058 0.0
H288 H 0.74781 0.21049 0.79785 0.0
C289 C 0.72309 0.22829 0.69711 0.0
C290 C 0.71231 0.25249 0.7246 0.0
H291 H 0.75143 0.18002 0.68402 0.0
H292 H 0.71653 0.23302 0.66887 0.0
C293 C 0.72108 0.24524 0.76092 0.0
C294 C 0.77012 0.74121 0.76351 0.0
C295 C 0.77837 0.72698 0.79734 0.0
H296 H 0.73795 0.73265 0.71195 0.0
C297 C 0.75936 0.69355 0.80583 0.0
H298 H 0.78465 0.76698 0.75647 0.0
C299 C 0.73234 0.67457 0.781 0.0
C300 C 0.72454 0.68826 0.74689 0.0
H301 H 0.76513 0.68216 0.83185 0.0
H302 H 0.71809 0.64877 0.78831 0.0
C303 C 0.74369 0.72163 0.73813 0.0
C304 C 0.13747 0.10247 0.94829 0.0
C305 C 0.14906 0.13712 0.9363 0.0
H306 H 0.12786 0.06958 -0.00659 0.0
C307 C 0.16263 0.16529 0.96202 0.0
H308 H 0.12723 0.08006 0.92923 0.0
C309 C 0.16309 0.15922 -0.00094 0.0
C310 C 0.15 0.12489 0.01095 0.0
H311 H 0.172 0.19226 0.95363 0.0
H312 H 0.17252 0.18167 0.01832 0.0
C313 C 0.13794 0.09643 0.98516 0.0
C314 C 0.82157 0.18578 0.95442 0.0
C315 C 0.79878 0.16442 0.92738 0.0
H316 H 0.83418 0.19659 0.01142 0.0
C317 C 0.76672 0.14123 0.93713 0.0
H318 H 0.84681 0.20338 0.94747 0.0
C319 C 0.7604 0.13637 0.97368 0.0
C320 C 0.78508 0.15575 0.00077 0.0
H321 H 0.74928 0.12396 0.91672 0.0
H322 H 0.73821 0.11554 0.98078 0.0
C323 C 0.81428 0.18195 0.99092 0.0
C324 C 0.80913 0.85118 0.98419 0.0
C325 C 0.81532 0.81631 0.96985 0.0
H326 H 0.80461 0.88513 0.03179 0.0
C327 C 0.81545 0.78712 -0.00691 0.0
H328 H 0.80822 0.87419 0.96707 0.0
C329 C 0.81275 0.79345 0.03045 0.0
C330 C 0.8103 0.82904 0.04476 0.0
H331 H 0.81984 0.75986 0.98276 0.0
H332 H 0.81546 0.77116 0.04823 0.0
C333 C 0.80696 0.8575 0.02127 0.0
C334 C 0.19093 0.81065 0.03042 0.0
C335 C 0.18219 0.84342 0.04777 0.0
H336 H 0.20225 0.7834 0.98007 0.0
C337 C 0.18406 0.87541 0.02856 0.0
H338 H 0.19002 0.7857 0.04483 0.0
C339 C 0.19191 0.8744 0.99204 0.0
C340 C 0.19728 0.84116 0.97362 0.0
H341 H 0.17825 0.90123 0.04155 0.0
H342 H 0.19127 0.89938 0.97781 0.0
C343 C 0.19809 0.80945 -0.00655 0.0
C344 C 0.98983 0.12102 0.10657 0.0
C345 C 0.01249 0.13665 0.13701 0.0
H346 H 0.93258 0.11145 0.07977 0.0
C347 C -0.00589 0.15688 0.16337 0.0
H348 H 0.00315 0.10551 0.08563 0.0
C349 C 0.95373 0.1605 0.15988 0.0
C350 C 0.93082 0.14388 0.13003 0.0
H351 H 0.01079 0.16957 0.187 0.0
H352 H 0.94036 0.17557 0.18111 0.0
C353 C 0.94939 0.12456 0.10313 0.0
C354 C 0.79155 -0.01102 0.20364 0.0
C355 C 0.78593 0.96096 0.17641 0.0
H356 H 0.79313 0.04625 0.21642 0.0
C357 C 0.77033 0.96891 0.142 0.0
H358 H 0.80301 0.98369 0.23054 0.0
C359 C 0.76464 0.00476 0.13384 0.0
C360 C 0.77445 0.03337 0.15994 0.0
H361 H 0.76489 0.94779 0.12055 0.0
H362 H 0.75538 0.01024 0.10634 0.0
C363 C 0.7858 0.02488 0.19549 0.0
C364 C 0.97606 0.84953 0.22155 0.0
C365 C 0.9524 0.84765 0.18917 0.0
H366 H 0.03409 0.84848 0.24622 0.0
C367 C 0.96984 0.8408 0.15623 0.0
H368 H 0.96351 0.85448 0.24741 0.0
C369 C 0.01022 0.83727 0.15553 0.0
C370 C 0.03415 0.84041 0.18776 0.0
H371 H 0.95247 0.83888 0.13076 0.0
H372 H 0.02279 0.833 0.12957 0.0
C373 C 0.0165 0.84588 0.22086 0.0
C374 C 0.17208 0.01809 0.21425 0.0
C375 C 0.18051 0.03238 0.18066 0.0
H376 H 0.16903 0.97055 0.24556 0.0
C377 C 0.2012 0.01203 0.15625 0.0
H378 H 0.15671 0.0334 0.23388 0.0
C379 C 0.20883 0.97642 0.16325 0.0
C380 C 0.19561 0.96042 0.19461 0.0
H381 H 0.20906 0.02265 0.13056 0.0
H382 H 0.22163 0.96025 0.14245 0.0
C383 C 0.17961 0.98223 0.2212 0.0
C384 C -0.01 0.84658 0.84044 0.0
C385 C 0.96955 0.81273 0.84571 0.0
H386 H 0.04584 0.87637 0.83627 0.0
C387 C -0.00938 0.78159 0.84743 0.0
H388 H 0.97464 0.87107 0.83862 0.0
C389 C 0.0316 0.78462 0.84595 0.0
C390 C 0.0522 0.81887 0.84283 0.0
H391 H 0.97566 0.75505 0.85118 0.0
H392 H 0.04719 0.76039 0.84882 0.0
C393 C 0.03088 0.84962 0.83905 0.0
C394 C 0.16259 0.96385 0.78792 0.0
C395 C 0.19249 0.95931 0.81437 0.0
H396 H 0.12797 0.00188 0.76158 0.0
C397 C 0.21679 -0.01017 0.82843 0.0
H398 H 0.143 0.94068 0.77735 0.0
C399 C 0.20886 0.02486 0.81864 0.0
C400 C 0.1757 0.02961 0.79575 0.0
H401 H 0.23941 0.9869 0.8495 0.0
H402 H 0.2256 0.0482 0.83246 0.0
C403 C 0.15396 -0.00117 0.77894 0.0
C404 C 0.00397 0.19359 0.80622 0.0
C405 C 0.0248 0.16799 0.78751 0.0
H406 H 0.94747 0.20948 0.82 0.0
C407 C 0.00391 0.14235 0.76283 0.0
H408 H 0.01918 0.21387 0.82527 0.0
C409 C 0.96276 0.14023 0.75941 0.0
C410 C 0.94181 0.16332 0.78107 0.0
H411 H 0.01917 0.12251 0.74773 0.0
H412 H 0.94741 0.11861 0.74196 0.0
C413 C 0.96283 0.19107 0.80325 0.0
C414 C 0.81206 0.95267 0.8019 0.0
C415 C 0.82713 0.94477 0.83645 0.0
H416 H 0.79744 -0.00539 0.76627 0.0
C417 C 0.83568 0.9733 0.86281 0.0
H418 H 0.80512 0.93109 0.78112 0.0
C419 C 0.83102 0.00914 0.85458 0.0
C420 C 0.81801 0.01761 0.81959 0.0
H421 H 0.84674 0.96806 0.88988 0.0
H422 H 0.83879 0.03033 0.87561 0.0
C423 C 0.80768 -0.01105 0.79345 0.0
C424 C 0.62682 0.59169 0.44004 0.0
C425 C 0.64455 0.62296 0.42526 0.0
H426 H 0.61465 0.56362 0.48789 0.0
C427 C 0.66589 0.64973 0.44856 0.0
H428 H 0.61033 0.57048 0.42288 0.0
C429 C 0.6686 0.64568 0.48594 0.0
C430 C 0.64983 0.6149 0.50072 0.0
H431 H 0.68013 0.67406 0.43799 0.0
H432 H 0.68454 0.66706 0.50328 0.0
C433 C 0.62934 0.58776 0.47735 0.0
C434 C 0.30175 0.6672 0.48202 0.0
C435 C 0.32408 0.64357 0.50173 0.0
H436 H 0.28514 0.68534 0.42933 0.0
C437 C 0.34771 0.62055 0.48295 0.0
H438 H 0.28339 0.68535 0.49582 0.0
C439 C 0.34915 0.62093 0.44559 0.0
C440 C 0.32671 0.64408 0.42558 0.0
H441 H 0.36557 0.60217 0.49714 0.0
H442 H 0.36775 0.60255 0.43239 0.0
C443 C 0.30285 0.66728 0.44408 0.0
C444 C 0.30098 0.30602 0.48488 0.0
C445 C 0.30688 0.33614 0.46313 0.0
H446 H 0.29893 0.28761 0.53906 0.0
C447 C 0.31064 0.37144 0.4796 0.0
H448 H 0.29769 0.27848 0.47292 0.0
C449 C 0.31174 0.37647 0.51707 0.0
C450 C 0.30847 0.3464 0.5389 0.0
H451 H 0.3148 0.39528 0.46371 0.0
H452 H 0.31668 0.40397 0.52907 0.0
C453 C 0.3015 0.31116 0.52264 0.0
C454 C 0.68815 0.35011 0.47675 0.0
C455 C 0.68431 0.3167 0.4565 0.0
H456 H 0.68351 0.37749 0.52826 0.0
C457 C 0.67896 0.28412 0.47487 0.0
H458 H 0.69256 0.37572 0.46369 0.0
C459 C 0.67434 0.28523 0.51233 0.0
C460 C 0.67437 0.31891 0.53154 0.0
H461 H 0.67603 0.2579 0.46006 0.0
H462 H 0.66806 0.26002 0.52567 0.0
C463 C 0.68275 0.35118 0.51375 0.0
C464 C 0.51359 0.64919 0.61324 0.0
C465 C 0.53686 0.6509 0.64581 0.0
H466 H 0.45674 0.65365 0.5878 0.0
C467 C 0.52056 0.66239 0.67807 0.0
H468 H 0.5254 0.64103 0.58781 0.0
C469 C 0.48105 0.66983 0.67805 0.0
C470 C 0.45718 0.66588 0.64578 0.0
H471 H 0.53788 0.6644 0.70357 0.0
H472 H 0.46881 0.67691 0.70359 0.0
C473 C 0.47422 0.65665 0.61322 0.0
C474 C 0.3093 0.53653 0.70263 0.0
C475 C 0.29939 0.54843 0.66799 0.0
H476 H 0.32157 0.49128 0.73444 0.0
C477 C 0.28788 0.52227 0.63982 0.0
H478 H 0.31802 0.55595 0.72505 0.0
C479 C 0.28993 0.48526 0.64525 0.0
C480 C 0.30357 0.47358 0.67895 0.0
H481 H 0.27964 0.53042 0.61293 0.0
H482 H 0.28292 0.46599 0.62237 0.0
C483 C 0.31143 0.49942 0.70805 0.0
C484 C 0.51637 0.33435 0.71002 0.0
C485 C 0.53179 0.32673 0.67624 0.0
H486 H 0.4662 0.34811 0.73851 0.0
C487 C 0.50634 0.32429 0.64499 0.0
H488 H 0.53515 0.33641 0.73466 0.0
C489 C 0.46688 0.33112 0.64719 0.0
C490 C 0.45194 0.3406 0.68072 0.0
H491 H 0.51717 0.31836 0.61855 0.0
H492 H 0.4484 0.32996 0.62239 0.0
C493 C 0.47686 0.34126 0.71222 0.0
C494 C 0.68263 0.50293 0.6974 0.0
C495 C 0.68514 0.51738 0.66298 0.0
H496 H 0.68149 0.45484 0.72789 0.0
C497 C 0.696 0.49512 0.63405 0.0
H498 H 0.67485 0.51958 0.72038 0.0
C499 C 0.70036 0.45833 0.63852 0.0
C500 C 0.69366 0.44295 0.67192 0.0
H501 H 0.69909 0.50559 0.6074 0.0
H502 H 0.70616 0.44136 0.61503 0.0
C503 C 0.68684 0.46592 0.70184 0.0
C504 C 0.4742 0.35358 0.33291 0.0
C505 C 0.44962 0.32115 0.33389 0.0
H506 H 0.53313 0.37813 0.33224 0.0
C507 C 0.46641 0.28759 0.33176 0.0
H508 H 0.4622 0.37989 0.3343 0.0
C509 C 0.50716 0.28657 0.33044 0.0
C510 C 0.53189 0.31909 0.33142 0.0
H511 H 0.44824 0.26208 0.33219 0.0
H512 H 0.51933 0.26033 0.33003 0.0
C513 C 0.5149 0.35257 0.33178 0.0
C514 C 0.70856 0.47372 0.32042 0.0
C515 C 0.68609 0.44343 0.3035 0.0
H516 H 0.71637 0.53199 0.32681 0.0
C517 C 0.65938 0.44856 0.27444 0.0
H518 H 0.72877 0.4703 0.34334 0.0
C519 C 0.65124 0.48381 0.26586 0.0
C520 C 0.67074 0.51418 0.28544 0.0
H521 H 0.64119 0.42556 0.26155 0.0
H522 H 0.62706 0.48725 0.24649 0.0
C523 C 0.70147 0.50897 0.31091 0.0
C524 C 0.49999 0.67946 0.29408 0.0
C525 C 0.5199 0.65325 0.27527 0.0
H526 H 0.44416 0.69753 0.30715 0.0
C527 C 0.49838 0.62857 0.25004 0.0
H528 H 0.51572 0.69893 0.31364 0.0
C529 C 0.45735 0.62829 0.24582 0.0
C530 C 0.43722 0.65218 0.26732 0.0
H531 H 0.51297 0.60824 0.23496 0.0
H532 H 0.44127 0.60754 0.22783 0.0
C533 C 0.45899 0.67865 0.29044 0.0
C534 C 0.2842 0.47296 0.33724 0.0
C535 C 0.29478 0.44647 0.31211 0.0
H536 H 0.27337 0.52851 0.34744 0.0
C537 C 0.29648 0.45454 0.27551 0.0
H538 H 0.28247 0.46714 0.36557 0.0
C539 C 0.29177 0.49013 0.26501 0.0
C540 C 0.28517 0.51763 0.29111 0.0
H541 H 0.30481 0.43437 0.25578 0.0
H542 H 0.29674 0.49676 0.23734 0.0
C543 C 0.27902 0.50807 0.3268 0.0
loop_
_geom_bond_atom_site_label_1
_geom_bond_atom_site_label_2
_geom_bond_distance
_geom_bond_site_symmetry_2
_ccdc_geom_bond_type
O0 Cd1 2.223 . S
O0 C8 1.315 . S
Cd1 O0 2.223 . S
Cd1 O4 2.297 . S
Cd1 O5 2.439 . S
Cd1 O11 2.240 . S
Cd2 O3 2.240 . S
Cd2 O10 2.223 . S
Cd2 O12 2.297 . S
Cd2 O13 2.439 . S
O3 Cd2 2.240 . S
O3 C8 1.279 . S
O4 Cd1 2.297 . S
O4 C6 1.247 . S
O5 Cd1 2.439 . S
O5 C6 1.208 . S
C6 O4 1.247 . S
C6 O5 1.208 . S
C7 O12 1.247 . S
C7 O13 1.208 . S
C8 O0 1.315 . S
C8 O3 1.279 . S
C9 O10 1.315 . S
C9 O11 1.279 . S
O10 Cd2 2.223 . S
O10 C9 1.315 . S
O11 Cd1 2.240 . S
O11 C9 1.279 . S
O12 Cd2 2.297 . S
O12 C7 1.247 . S
O13 Cd2 2.439 . S
O13 C7 1.208 . S
O14 Cd15 2.223 . S
O14 C22 1.315 . S
Cd15 O14 2.223 . S
Cd15 O18 2.297 . S
Cd15 O19 2.439 . S
Cd15 O25 2.240 . S
Cd16 O17 2.240 . S
Cd16 O24 2.223 . S
Cd16 O26 2.297 . S
Cd16 O27 2.439 . S
O17 Cd16 2.240 . S
O17 C22 1.279 . S
O18 Cd15 2.297 . S
O18 C20 1.247 . S
O19 Cd15 2.439 . S
O19 C20 1.208 . S
C20 O18 1.247 . S
C20 O19 1.208 . S
C21 O26 1.247 . S
C21 O27 1.208 . S
C22 O14 1.315 . S
C22 O17 1.279 . S
C23 O24 1.315 . S
C23 O25 1.279 . S
O24 Cd16 2.223 . S
O24 C23 1.315 . S
O25 Cd15 2.240 . S
O25 C23 1.279 . S
O26 Cd16 2.297 . S
O26 C21 1.247 . S
O27 Cd16 2.439 . S
O27 C21 1.208 . S
O28 Cd29 2.223 . S
O28 C36 1.315 . S
Cd29 O28 2.223 . S
Cd29 O32 2.297 . S
Cd29 O33 2.439 . S
Cd29 O39 2.240 . S
Cd30 O31 2.240 . S
Cd30 O38 2.223 . S
Cd30 O40 2.297 . S
Cd30 O41 2.439 . S
O31 Cd30 2.240 . S
O31 C36 1.279 . S
O32 Cd29 2.297 . S
O32 C34 1.247 . S
O33 Cd29 2.439 . S
O33 C34 1.208 . S
C34 O32 1.247 . S
C34 O33 1.208 . S
C35 O40 1.247 . S
C35 O41 1.208 . S
C36 O28 1.315 . S
C36 O31 1.279 . S
C37 O38 1.315 . S
C37 O39 1.279 . S
O38 Cd30 2.223 . S
O38 C37 1.315 . S
O39 Cd29 2.240 . S
O39 C37 1.279 . S
O40 Cd30 2.297 . S
O40 C35 1.247 . S
O41 Cd30 2.439 . S
O41 C35 1.208 . S
O42 Cd43 2.223 . S
O42 C50 1.315 . S
Cd43 O42 2.223 . S
Cd43 O46 2.297 . S
Cd43 O47 2.439 . S
Cd43 O53 2.240 . S
Cd44 O45 2.240 . S
Cd44 O52 2.223 . S
Cd44 O54 2.297 . S
Cd44 O55 2.439 . S
O45 Cd44 2.240 . S
O45 C50 1.279 . S
O46 Cd43 2.297 . S
O46 C48 1.247 . S
O47 Cd43 2.439 . S
O47 C48 1.208 . S
C48 O46 1.247 . S
C48 O47 1.208 . S
C49 O54 1.247 . S
C49 O55 1.208 . S
C50 O42 1.315 . S
C50 O45 1.279 . S
C51 O52 1.315 . S
C51 O53 1.279 . S
O52 Cd44 2.223 . S
O52 C51 1.315 . S
O53 Cd43 2.240 . S
O53 C51 1.279 . S
O54 Cd44 2.297 . S
O54 C49 1.247 . S
O55 Cd44 2.439 . S
O55 C49 1.208 . S
O56 Cd57 2.223 . S
O56 C64 1.315 . S
Cd57 O56 2.223 . S
Cd57 O60 2.297 . S
Cd57 O61 2.439 . S
Cd57 O67 2.240 . S
Cd58 O59 2.240 . S
Cd58 O66 2.223 . S
Cd58 O68 2.297 . S
Cd58 O69 2.439 . S
O59 Cd58 2.240 . S
O59 C64 1.279 . S
O60 Cd57 2.297 . S
O60 C62 1.247 . S
O61 Cd57 2.439 . S
O61 C62 1.208 . S
C62 O60 1.247 . S
C62 O61 1.208 . S
C63 O68 1.247 . S
C63 O69 1.208 . S
C64 O56 1.315 . S
C64 O59 1.279 . S
C65 O66 1.315 . S
C65 O67 1.279 . S
O66 Cd58 2.223 . S
O66 C65 1.315 . S
O67 Cd57 2.240 . S
O67 C65 1.279 . S
O68 Cd58 2.297 . S
O68 C63 1.247 . S
O69 Cd58 2.439 . S
O69 C63 1.208 . S
O70 Cd71 2.223 . S
O70 C78 1.315 . S
Cd71 O70 2.223 . S
Cd71 O74 2.297 . S
Cd71 O75 2.439 . S
Cd71 O81 2.240 . S
Cd72 O73 2.240 . S
Cd72 O80 2.223 . S
Cd72 O82 2.297 . S
Cd72 O83 2.439 . S
O73 Cd72 2.240 . S
O73 C78 1.279 . S
O74 Cd71 2.297 . S
O74 C76 1.247 . S
O75 Cd71 2.439 . S
O75 C76 1.208 . S
C76 O74 1.247 . S
C76 O75 1.208 . S
C77 O82 1.247 . S
C77 O83 1.208 . S
C78 O70 1.315 . S
C78 O73 1.279 . S
C79 O80 1.315 . S
C79 O81 1.279 . S
O80 Cd72 2.223 . S
O80 C79 1.315 . S
O81 Cd71 2.240 . S
O81 C79 1.279 . S
O82 Cd72 2.297 . S
O82 C77 1.247 . S
O83 Cd72 2.439 . S
O83 C77 1.208 . S
O84 Cd85 2.223 . S
O84 C92 1.315 . S
Cd85 O84 2.223 . S
Cd85 O88 2.297 . S
Cd85 O89 2.439 . S
Cd85 O95 2.240 . S
Cd86 O87 2.240 . S
Cd86 O94 2.223 . S
Cd86 O96 2.297 . S
Cd86 O97 2.439 . S
O87 Cd86 2.240 . S
O87 C92 1.279 . S
O88 Cd85 2.297 . S
O88 C90 1.247 . S
O89 Cd85 2.439 . S
O89 C90 1.208 . S
C90 O88 1.247 . S
C90 O89 1.208 . S
C91 O96 1.247 . S
C91 O97 1.208 . S
C92 O84 1.315 . S
C92 O87 1.279 . S
C93 O94 1.315 . S
C93 O95 1.279 . S
O94 Cd86 2.223 . S
O94 C93 1.315 . S
O95 Cd85 2.240 . S
O95 C93 1.279 . S
O96 Cd86 2.297 . S
O96 C91 1.247 . S
O97 Cd86 2.439 . S
O97 C91 1.208 . S
O98 Cd99 2.223 . S
O98 C106 1.315 . S
Cd99 O98 2.223 . S
Cd99 O102 2.297 . S
Cd99 O103 2.439 . S
Cd99 O109 2.240 . S
Cd100 O101 2.240 . S
Cd100 O108 2.223 . S
Cd100 O110 2.297 . S
Cd100 O111 2.439 . S
O101 Cd100 2.240 . S
O101 C106 1.279 . S
O102 Cd99 2.297 . S
O102 C104 1.247 . S
O103 Cd99 2.439 . S
O103 C104 1.208 . S
C104 O102 1.247 . S
C104 O103 1.208 . S
C105 O110 1.247 . S
C105 O111 1.208 . S
C106 O98 1.315 . S
C106 O101 1.279 . S
C107 O108 1.315 . S
C107 O109 1.279 . S
O108 Cd100 2.223 . S
O108 C107 1.315 . S
O109 Cd99 2.240 . S
O109 C107 1.279 . S
O110 Cd100 2.297 . S
O110 C105 1.247 . S
O111 Cd100 2.439 . S
O111 C105 1.208 . S
O112 Cd113 2.223 . S
O112 C120 1.315 . S
Cd113 O112 2.223 . S
Cd113 O116 2.297 . S
Cd113 O117 2.439 . S
Cd113 O123 2.240 . S
Cd114 O115 2.240 . S
Cd114 O122 2.223 . S
Cd114 O124 2.297 . S
Cd114 O125 2.439 . S
O115 Cd114 2.240 . S
O115 C120 1.279 . S
O116 Cd113 2.297 . S
O116 C118 1.247 . S
O117 Cd113 2.439 . S
O117 C118 1.208 . S
C118 O116 1.247 . S
C118 O117 1.208 . S
C119 O124 1.247 . S
C119 O125 1.208 . S
C120 O112 1.315 . S
C120 O115 1.279 . S
C121 O122 1.315 . S
C121 O123 1.279 . S
O122 Cd114 2.223 . S
O122 C121 1.315 . S
O123 Cd113 2.240 . S
O123 C121 1.279 . S
O124 Cd114 2.297 . S
O124 C119 1.247 . S
O125 Cd114 2.439 . S
O125 C119 1.208 . S
O126 Cd127 2.223 . S
O126 C134 1.315 . S
Cd127 O126 2.223 . S
Cd127 O130 2.297 . S
Cd127 O131 2.439 . S
Cd127 O137 2.240 . S
Cd128 O129 2.240 . S
Cd128 O136 2.223 . S
Cd128 O138 2.297 . S
Cd128 O139 2.439 . S
O129 Cd128 2.240 . S
O129 C134 1.279 . S
O130 Cd127 2.297 . S
O130 C132 1.247 . S
O131 Cd127 2.439 . S
O131 C132 1.208 . S
C132 O130 1.247 . S
C132 O131 1.208 . S
C133 O138 1.247 . S
C133 O139 1.208 . S
C134 O126 1.315 . S
C134 O129 1.279 . S
C135 O136 1.315 . S
C135 O137 1.279 . S
O136 Cd128 2.223 . S
O136 C135 1.315 . S
O137 Cd127 2.240 . S
O137 C135 1.279 . S
O138 Cd128 2.297 . S
O138 C133 1.247 . S
O139 Cd128 2.439 . S
O139 C133 1.208 . S
O140 Cd141 2.223 . S
O140 C148 1.315 . S
Cd141 O140 2.223 . S
Cd141 O144 2.297 . S
Cd141 O145 2.439 . S
Cd141 O151 2.240 . S
Cd142 O143 2.240 . S
Cd142 O150 2.223 . S
Cd142 O152 2.297 . S
Cd142 O153 2.439 . S
O143 Cd142 2.240 . S
O143 C148 1.279 . S
O144 Cd141 2.297 . S
O144 C146 1.247 . S
O145 Cd141 2.439 . S
O145 C146 1.208 . S
C146 O144 1.247 . S
C146 O145 1.208 . S
C147 O152 1.247 . S
C147 O153 1.208 . S
C148 O140 1.315 . S
C148 O143 1.279 . S
C149 O150 1.315 . S
C149 O151 1.279 . S
O150 Cd142 2.223 . S
O150 C149 1.315 . S
O151 Cd141 2.240 . S
O151 C149 1.279 . S
O152 Cd142 2.297 . S
O152 C147 1.247 . S
O153 Cd142 2.439 . S
O153 C147 1.208 . S
O154 Cd155 2.223 . S
O154 C162 1.315 . S
Cd155 O154 2.223 . S
Cd155 O158 2.297 . S
Cd155 O159 2.439 . S
Cd155 O165 2.240 . S
Cd156 O157 2.240 . S
Cd156 O164 2.223 . S
Cd156 O166 2.297 . S
Cd156 O167 2.439 . S
O157 Cd156 2.240 . S
O157 C162 1.279 . S
O158 Cd155 2.297 . S
O158 C160 1.247 . S
O159 Cd155 2.439 . S
O159 C160 1.208 . S
C160 O158 1.247 . S
C160 O159 1.208 . S
C161 O166 1.247 . S
C161 O167 1.208 . S
C162 O154 1.315 . S
C162 O157 1.279 . S
C163 O164 1.315 . S
C163 O165 1.279 . S
O164 Cd156 2.223 . S
O164 C163 1.315 . S
O165 Cd155 2.240 . S
O165 C163 1.279 . S
O166 Cd156 2.297 . S
O166 C161 1.247 . S
O167 Cd156 2.439 . S
O167 C161 1.208 . S
O168 Cd169 2.223 . S
O168 C176 1.315 . S
Cd169 O168 2.223 . S
Cd169 O172 2.297 . S
Cd169 O173 2.439 . S
Cd169 O179 2.240 . S
Cd170 O171 2.240 . S
Cd170 O178 2.223 . S
Cd170 O180 2.297 . S
Cd170 O181 2.439 . S
O171 Cd170 2.240 . S
O171 C176 1.279 . S
O172 Cd169 2.297 . S
O172 C174 1.247 . S
O173 Cd169 2.439 . S
O173 C174 1.208 . S
C174 O172 1.247 . S
C174 O173 1.208 . S
C175 O180 1.247 . S
C175 O181 1.208 . S
C176 O168 1.315 . S
C176 O171 1.279 . S
C177 O178 1.315 . S
C177 O179 1.279 . S
O178 Cd170 2.223 . S
O178 C177 1.315 . S
O179 Cd169 2.240 . S
O179 C177 1.279 . S
O180 Cd170 2.297 . S
O180 C175 1.247 . S
O181 Cd170 2.439 . S
O181 C175 1.208 . S
O182 Cd183 2.223 . S
O182 C190 1.315 . S
Cd183 O182 2.223 . S
Cd183 O186 2.297 . S
Cd183 O187 2.439 . S
Cd183 O193 2.240 . S
Cd184 O185 2.240 . S
Cd184 O192 2.223 . S
Cd184 O194 2.297 . S
Cd184 O195 2.439 . S
O185 Cd184 2.240 . S
O185 C190 1.279 . S
O186 Cd183 2.297 . S
O186 C188 1.247 . S
O187 Cd183 2.439 . S
O187 C188 1.208 . S
C188 O186 1.247 . S
C188 O187 1.208 . S
C189 O194 1.247 . S
C189 O195 1.208 . S
C190 O182 1.315 . S
C190 O185 1.279 . S
C191 O192 1.315 . S
C191 O193 1.279 . S
O192 Cd184 2.223 . S
O192 C191 1.315 . S
O193 Cd183 2.240 . S
O193 C191 1.279 . S
O194 Cd184 2.297 . S
O194 C189 1.247 . S
O195 Cd184 2.439 . S
O195 C189 1.208 . S
O196 Cd197 2.223 . S
O196 C204 1.315 . S
Cd197 O196 2.223 . S
Cd197 O200 2.297 . S
Cd197 O201 2.439 . S
Cd197 O207 2.240 . S
Cd198 O199 2.240 . S
Cd198 O206 2.223 . S
Cd198 O208 2.297 . S
Cd198 O209 2.439 . S
O199 Cd198 2.240 . S
O199 C204 1.279 . S
O200 Cd197 2.297 . S
O200 C202 1.247 . S
O201 Cd197 2.439 . S
O201 C202 1.208 . S
C202 O200 1.247 . S
C202 O201 1.208 . S
C203 O208 1.247 . S
C203 O209 1.208 . S
C204 O196 1.315 . S
C204 O199 1.279 . S
C205 O206 1.315 . S
C205 O207 1.279 . S
O206 Cd198 2.223 . S
O206 C205 1.315 . S
O207 Cd197 2.240 . S
O207 C205 1.279 . S
O208 Cd198 2.297 . S
O208 C203 1.247 . S
O209 Cd198 2.439 . S
O209 C203 1.208 . S
O210 Cd211 2.223 . S
O210 C218 1.315 . S
Cd211 O210 2.223 . S
Cd211 O214 2.297 . S
Cd211 O215 2.439 . S
Cd211 O221 2.240 . S
Cd212 O213 2.240 . S
Cd212 O220 2.223 . S
Cd212 O222 2.297 . S
Cd212 O223 2.439 . S
O213 Cd212 2.240 . S
O213 C218 1.279 . S
O214 Cd211 2.297 . S
O214 C216 1.247 . S
O215 Cd211 2.439 . S
O215 C216 1.208 . S
C216 O214 1.247 . S
C216 O215 1.208 . S
C217 O222 1.247 . S
C217 O223 1.208 . S
C218 O210 1.315 . S
C218 O213 1.279 . S
C219 O220 1.315 . S
C219 O221 1.279 . S
O220 Cd212 2.223 . S
O220 C219 1.315 . S
O221 Cd211 2.240 . S
O221 C219 1.279 . S
O222 Cd212 2.297 . S
O222 C217 1.247 . S
O223 Cd212 2.439 . S
O223 C217 1.208 . S
C224 C225 1.387 . S
C224 H228 0.950 . S
C224 C233 1.390 . S
C225 C224 1.387 . S
C225 C227 1.387 . S
H226 C233 0.950 . S
C227 C225 1.387 . S
C227 C229 1.390 . S
C227 H231 0.950 . S
H228 C224 0.950 . S
C229 C227 1.390 . S
C229 C230 1.387 . S
C229 H232 0.950 . S
C230 C229 1.387 . S
C230 C233 1.387 . S
H231 C227 0.950 . S
H232 C229 0.950 . S
C233 C224 1.390 . S
C233 H226 0.950 . S
C233 C230 1.387 . S
C234 C235 1.387 . S
C234 H238 0.950 . S
C234 C243 1.390 . S
C235 C234 1.387 . S
C235 C237 1.387 . S
H236 C243 0.950 . S
C237 C235 1.387 . S
C237 C239 1.390 . S
C237 H241 0.950 . S
H238 C234 0.950 . S
C239 C237 1.390 . S
C239 C240 1.387 . S
C239 H242 0.950 . S
C240 C239 1.387 . S
C240 C243 1.387 . S
H241 C237 0.950 . S
H242 C239 0.950 . S
C243 C234 1.390 . S
C243 H236 0.950 . S
C243 C240 1.387 . S
C244 C245 1.387 . S
C244 H248 0.950 . S
C244 C253 1.390 . S
C245 C244 1.387 . S
C245 C247 1.387 . S
H246 C253 0.950 . S
C247 C245 1.387 . S
C247 C249 1.390 . S
C247 H251 0.950 . S
H248 C244 0.950 . S
C249 C247 1.390 . S
C249 C250 1.387 . S
C249 H252 0.950 . S
C250 C249 1.387 . S
C250 C253 1.387 . S
H251 C247 0.950 . S
H252 C249 0.950 . S
C253 C244 1.390 . S
C253 H246 0.950 . S
C253 C250 1.387 . S
C254 C255 1.387 . S
C254 H258 0.950 . S
C254 C263 1.390 . S
C255 C254 1.387 . S
C255 C257 1.387 . S
H256 C263 0.950 . S
C257 C255 1.387 . S
C257 C259 1.390 . S
C257 H261 0.950 . S
H258 C254 0.950 . S
C259 C257 1.390 . S
C259 C260 1.387 . S
C259 H262 0.950 . S
C260 C259 1.387 . S
C260 C263 1.387 . S
H261 C257 0.950 . S
H262 C259 0.950 . S
C263 C254 1.390 . S
C263 H256 0.950 . S
C263 C260 1.387 . S
C264 C265 1.387 . S
C264 H268 0.950 . S
C264 C273 1.390 . S
C265 C264 1.387 . S
C265 C267 1.387 . S
H266 C273 0.950 . S
C267 C265 1.387 . S
C267 C269 1.390 . S
C267 H271 0.950 . S
H268 C264 0.950 . S
C269 C267 1.390 . S
C269 C270 1.387 . S
C269 H272 0.950 . S
C270 C269 1.387 . S
C270 C273 1.387 . S
H271 C267 0.950 . S
H272 C269 0.950 . S
C273 C264 1.390 . S
C273 H266 0.950 . S
C273 C270 1.387 . S
C274 C275 1.387 . S
C274 H278 0.950 . S
C274 C283 1.390 . S
C275 C274 1.387 . S
C275 C277 1.387 . S
H276 C283 0.950 . S
C277 C275 1.387 . S
C277 C279 1.390 . S
C277 H281 0.950 . S
H278 C274 0.950 . S
C279 C277 1.390 . S
C279 C280 1.387 . S
C279 H282 0.950 . S
C280 C279 1.387 . S
C280 C283 1.387 . S
H281 C277 0.950 . S
H282 C279 0.950 . S
C283 C274 1.390 . S
C283 H276 0.950 . S
C283 C280 1.387 . S
C284 C285 1.387 . S
C284 H288 0.950 . S
C284 C293 1.390 . S
C285 C284 1.387 . S
C285 C287 1.387 . S
H286 C293 0.950 . S
C287 C285 1.387 . S
C287 C289 1.390 . S
C287 H291 0.950 . S
H288 C284 0.950 . S
C289 C287 1.390 . S
C289 C290 1.387 . S
C289 H292 0.950 . S
C290 C289 1.387 . S
C290 C293 1.387 . S
H291 C287 0.950 . S
H292 C289 0.950 . S
C293 C284 1.390 . S
C293 H286 0.950 . S
C293 C290 1.387 . S
C294 C295 1.387 . S
C294 H298 0.950 . S
C294 C303 1.390 . S
C295 C294 1.387 . S
C295 C297 1.387 . S
H296 C303 0.950 . S
C297 C295 1.387 . S
C297 C299 1.390 . S
C297 H301 0.950 . S
H298 C294 0.950 . S
C299 C297 1.390 . S
C299 C300 1.387 . S
C299 H302 0.950 . S
C300 C299 1.387 . S
C300 C303 1.387 . S
H301 C297 0.950 . S
H302 C299 0.950 . S
C303 C294 1.390 . S
C303 H296 0.950 . S
C303 C300 1.387 . S
C304 C305 1.387 . S
C304 H308 0.950 . S
C304 C313 1.390 . S
C305 C304 1.387 . S
C305 C307 1.387 . S
H306 C313 0.950 . S
C307 C305 1.387 . S
C307 C309 1.390 . S
C307 H311 0.950 . S
H308 C304 0.950 . S
C309 C307 1.390 . S
C309 C310 1.387 . S
C309 H312 0.950 . S
C310 C309 1.387 . S
C310 C313 1.387 . S
H311 C307 0.950 . S
H312 C309 0.950 . S
C313 C304 1.390 . S
C313 H306 0.950 . S
C313 C310 1.387 . S
C314 C315 1.387 1_554 S
C314 H318 0.950 . S
C314 C323 1.390 . S
C315 C314 1.387 1_556 S
C315 C317 1.387 1_556 S
H316 C323 0.950 . S
C317 C315 1.387 1_554 S
C317 C319 1.390 . S
C317 H321 0.950 1_554 S
H318 C314 0.950 . S
C319 C317 1.390 . S
C319 C320 1.387 . S
C319 H322 0.950 . S
C320 C319 1.387 . S
C320 C323 1.387 . S
H321 C317 0.950 1_556 S
H322 C319 0.950 . S
C323 C314 1.390 . S
C323 H316 0.950 . S
C323 C320 1.387 . S
C324 C325 1.387 . S
C324 H328 0.950 . S
C324 C333 1.390 1_556 S
C325 C324 1.387 . S
C325 C327 1.387 . S
H326 C333 0.950 . S
C327 C325 1.387 . S
C327 C329 1.390 1_556 S
C327 H331 0.950 . S
H328 C324 0.950 . S
C329 C327 1.390 1_554 S
C329 C330 1.387 . S
C329 H332 0.950 . S
C330 C329 1.387 . S
C330 C333 1.387 . S
H331 C327 0.950 . S
H332 C329 0.950 . S
C333 C324 1.390 1_554 S
C333 H326 0.950 . S
C333 C330 1.387 . S
C334 C335 1.387 . S
C334 H338 0.950 . S
C334 C343 1.390 1_554 S
C335 C334 1.387 . S
C335 C337 1.387 . S
H336 C343 0.950 . S
C337 C335 1.387 . S
C337 C339 1.390 1_554 S
C337 H341 0.950 . S
H338 C334 0.950 . S
C339 C337 1.390 1_556 S
C339 C340 1.387 . S
C339 H342 0.950 . S
C340 C339 1.387 . S
C340 C343 1.387 . S
H341 C337 0.950 . S
H342 C339 0.950 . S
C343 C334 1.390 1_556 S
C343 H336 0.950 . S
C343 C340 1.387 . S
C344 C345 1.387 . S
C344 H348 0.950 . S
C344 C353 1.390 . S
C345 C344 1.387 . S
C345 C347 1.387 . S
H346 C353 0.950 1_655 S
C347 C345 1.387 . S
C347 C349 1.390 . S
C347 H351 0.950 . S
H348 C344 0.950 . S
C349 C347 1.390 . S
C349 C350 1.387 1_455 S
C349 H352 0.950 . S
C350 C349 1.387 1_655 S
C350 C353 1.387 1_655 S
H351 C347 0.950 . S
H352 C349 0.950 . S
C353 C344 1.390 . S
C353 H346 0.950 1_455 S
C353 C350 1.387 1_455 S
C354 C355 1.387 1_545 S
C354 H358 0.950 1_545 S
C354 C363 1.390 . S
C355 C354 1.387 1_565 S
C355 C357 1.374 1_565 S
H356 C363 0.950 . S
C357 C355 1.374 1_545 S
C357 C359 1.415 . S
C357 H361 0.938 1_545 S
H358 C354 0.950 1_565 S
C359 C357 1.415 . S
C359 C360 1.387 . S
C359 H362 0.950 . S
C360 C359 1.387 . S
C360 C363 1.387 . S
H361 C357 0.938 1_565 S
H362 C359 0.950 . S
C363 C354 1.390 . S
C363 H356 0.950 . S
C363 C360 1.387 . S
C364 C365 1.387 . S
C364 H368 0.950 . S
C364 C373 1.390 1_655 S
C365 C364 1.387 . S
C365 C367 1.387 . S
H366 C373 0.950 . S
C367 C365 1.387 . S
C367 C369 1.390 . S
C367 H371 0.950 . S
H368 C364 0.950 . S
C369 C367 1.390 . S
C369 C370 1.387 1_655 S
C369 H372 0.950 . S
C370 C369 1.387 1_455 S
C370 C373 1.387 . S
H371 C367 0.950 . S
H372 C369 0.950 . S
C373 C364 1.390 1_455 S
C373 H366 0.950 . S
C373 C370 1.387 . S
C374 C375 1.387 . S
C374 H378 0.950 . S
C374 C383 1.390 1_545 S
C375 C374 1.387 . S
C375 C377 1.387 1_545 S
H376 C383 0.950 . S
C377 C375 1.387 1_565 S
C377 C379 1.390 . S
C377 H381 0.950 . S
H378 C374 0.950 . S
C379 C377 1.390 . S
C379 C380 1.387 . S
C379 H382 0.950 . S
C380 C379 1.387 . S
C380 C383 1.387 . S
H381 C377 0.950 . S
H382 C379 0.950 . S
C383 C374 1.390 1_565 S
C383 H376 0.950 . S
C383 C380 1.387 . S
C384 C385 1.387 . S
C384 H388 0.950 . S
C384 C393 1.390 . S
C385 C384 1.387 . S
C385 C387 1.387 . S
H386 C393 0.950 . S
C387 C385 1.387 . S
C387 C389 1.390 . S
C387 H391 0.950 . S
H388 C384 0.950 . S
C389 C387 1.390 . S
C389 C390 1.387 . S
C389 H392 0.950 . S
C390 C389 1.387 . S
C390 C393 1.387 . S
H391 C387 0.950 . S
H392 C389 0.950 . S
C393 C384 1.390 . S
C393 H386 0.950 . S
C393 C390 1.387 . S
C394 C395 1.387 . S
C394 H398 0.950 . S
C394 C403 1.390 . S
C395 C394 1.387 . S
C395 C397 1.387 . S
H396 C403 0.950 . S
C397 C395 1.387 . S
C397 C399 1.390 . S
C397 H401 0.950 . S
H398 C394 0.950 . S
C399 C397 1.390 . S
C399 C400 1.387 . S
C399 H402 0.950 . S
C400 C399 1.387 . S
C400 C403 1.387 . S
H401 C397 0.950 . S
H402 C399 0.950 . S
C403 C394 1.390 . S
C403 H396 0.950 . S
C403 C400 1.387 . S
C404 C405 1.387 . S
C404 H408 0.950 . S
C404 C413 1.390 1_455 S
C405 C404 1.387 . S
C405 C407 1.387 . S
H406 C413 0.950 . S
C407 C405 1.387 . S
C407 C409 1.390 1_455 S
C407 H411 0.950 . S
H408 C404 0.950 . S
C409 C407 1.390 1_655 S
C409 C410 1.387 . S
C409 H412 0.950 . S
C410 C409 1.387 . S
C410 C413 1.387 . S
H411 C407 0.950 . S
H412 C409 0.950 . S
C413 C404 1.390 1_655 S
C413 H406 0.950 . S
C413 C410 1.387 . S
C414 C415 1.387 . S
C414 H418 0.950 . S
C414 C423 1.390 . S
C415 C414 1.387 . S
C415 C417 1.387 . S
H416 C423 0.950 . S
C417 C415 1.387 . S
C417 C419 1.390 . S
C417 H421 0.950 . S
H418 C414 0.950 . S
C419 C417 1.390 . S
C419 C420 1.387 . S
C419 H422 0.950 . S
C420 C419 1.387 . S
C420 C423 1.387 . S
H421 C417 0.950 . S
H422 C419 0.950 . S
C423 C414 1.390 . S
C423 H416 0.950 . S
C423 C420 1.387 . S
C424 C425 1.387 . S
C424 H428 0.950 . S
C424 C433 1.390 . S
C425 C424 1.387 . S
C425 C427 1.387 . S
H426 C433 0.950 . S
C427 C425 1.387 . S
C427 C429 1.390 . S
C427 H431 0.950 . S
H428 C424 0.950 . S
C429 C427 1.390 . S
C429 C430 1.387 . S
C429 H432 0.950 . S
C430 C429 1.387 . S
C430 C433 1.387 . S
H431 C427 0.950 . S
H432 C429 0.950 . S
C433 C424 1.390 . S
C433 H426 0.950 . S
C433 C430 1.387 . S
C434 C435 1.387 . S
C434 H438 0.950 . S
C434 C443 1.390 . S
C435 C434 1.387 . S
C435 C437 1.387 . S
H436 C443 0.950 . S
C437 C435 1.387 . S
C437 C439 1.390 . S
C437 H441 0.950 . S
H438 C434 0.950 . S
C439 C437 1.390 . S
C439 C440 1.387 . S
C439 H442 0.950 . S
C440 C439 1.387 . S
C440 C443 1.387 . S
H441 C437 0.950 . S
H442 C439 0.950 . S
C443 C434 1.390 . S
C443 H436 0.950 . S
C443 C440 1.387 . S
C444 C445 1.387 . S
C444 H448 0.950 . S
C444 C453 1.390 . S
C445 C444 1.387 . S
C445 C447 1.387 . S
H446 C453 0.950 . S
C447 C445 1.387 . S
C447 C449 1.390 . S
C447 H451 0.950 . S
H448 C444 0.950 . S
C449 C447 1.390 . S
C449 C450 1.387 . S
C449 H452 0.950 . S
C450 C449 1.387 . S
C450 C453 1.387 . S
H451 C447 0.950 . S
H452 C449 0.950 . S
C453 C444 1.390 . S
C453 H446 0.950 . S
C453 C450 1.387 . S
C454 C455 1.387 . S
C454 H458 0.950 . S
C454 C463 1.390 . S
C455 C454 1.387 . S
C455 C457 1.387 . S
H456 C463 0.950 . S
C457 C455 1.387 . S
C457 C459 1.390 . S
C457 H461 0.950 . S
H458 C454 0.950 . S
C459 C457 1.390 . S
C459 C460 1.387 . S
C459 H462 0.950 . S
C460 C459 1.387 . S
C460 C463 1.387 . S
H461 C457 0.950 . S
H462 C459 0.950 . S
C463 C454 1.390 . S
C463 H456 0.950 . S
C463 C460 1.387 . S
C464 C465 1.387 . S
C464 H468 0.950 . S
C464 C473 1.390 . S
C465 C464 1.387 . S
C465 C467 1.387 . S
H466 C473 0.950 . S
C467 C465 1.387 . S
C467 C469 1.390 . S
C467 H471 0.950 . S
H468 C464 0.950 . S
C469 C467 1.390 . S
C469 C470 1.387 . S
C469 H472 0.950 . S
C470 C469 1.387 . S
C470 C473 1.387 . S
H471 C467 0.950 . S
H472 C469 0.950 . S
C473 C464 1.390 . S
C473 H466 0.950 . S
C473 C470 1.387 . S
C474 C475 1.387 . S
C474 H478 0.950 . S
C474 C483 1.390 . S
C475 C474 1.387 . S
C475 C477 1.387 . S
H476 C483 0.950 . S
C477 C475 1.387 . S
C477 C479 1.390 . S
C477 H481 0.950 . S
H478 C474 0.950 . S
C479 C477 1.390 . S
C479 C480 1.387 . S
C479 H482 0.950 . S
C480 C479 1.387 . S
C480 C483 1.387 . S
H481 C477 0.950 . S
H482 C479 0.950 . S
C483 C474 1.390 . S
C483 H476 0.950 . S
C483 C480 1.387 . S
C484 C485 1.387 . S
C484 H488 0.950 . S
C484 C493 1.390 . S
C485 C484 1.387 . S
C485 C487 1.387 . S
H486 C493 0.950 . S
C487 C485 1.387 . S
C487 C489 1.390 . S
C487 H491 0.950 . S
H488 C484 0.950 . S
C489 C487 1.390 . S
C489 C490 1.387 . S
C489 H492 0.950 . S
C490 C489 1.387 . S
C490 C493 1.387 . S
H491 C487 0.950 . S
H492 C489 0.950 . S
C493 C484 1.390 . S
C493 H486 0.950 . S
C493 C490 1.387 . S
C494 C495 1.387 . S
C494 H498 0.950 . S
C494 C503 1.390 . S
C495 C494 1.387 . S
C495 C497 1.387 . S
H496 C503 0.950 . S
C497 C495 1.387 . S
C497 C499 1.390 . S
C497 H501 0.950 . S
H498 C494 0.950 . S
C499 C497 1.390 . S
C499 C500 1.387 . S
C499 H502 0.950 . S
C500 C499 1.387 . S
C500 C503 1.387 . S
H501 C497 0.950 . S
H502 C499 0.950 . S
C503 C494 1.390 . S
C503 H496 0.950 . S
C503 C500 1.387 . S
C504 C505 1.387 . S
C504 H508 0.950 . S
C504 C513 1.390 . S
C505 C504 1.387 . S
C505 C507 1.387 . S
H506 C513 0.950 . S
C507 C505 1.387 . S
C507 C509 1.390 . S
C507 H511 0.950 . S
H508 C504 0.950 . S
C509 C507 1.390 . S
C509 C510 1.387 . S
C509 H512 0.950 . S
C510 C509 1.387 . S
C510 C513 1.387 . S
H511 C507 0.950 . S
H512 C509 0.950 . S
C513 C504 1.390 . S
C513 H506 0.950 . S
C513 C510 1.387 . S
C514 C515 1.387 . S
C514 H518 0.950 . S
C514 C523 1.390 . S
C515 C514 1.387 . S
C515 C517 1.387 . S
H516 C523 0.950 . S
C517 C515 1.387 . S
C517 C519 1.390 . S
C517 H521 0.950 . S
H518 C514 0.950 . S
C519 C517 1.390 . S
C519 C520 1.387 . S
C519 H522 0.950 . S
C520 C519 1.387 . S
C520 C523 1.387 . S
H521 C517 0.950 . S
H522 C519 0.950 . S
C523 C514 1.390 . S
C523 H516 0.950 . S
C523 C520 1.387 . S
C524 C525 1.387 . S
C524 H528 0.950 . S
C524 C533 1.390 . S
C525 C524 1.387 . S
C525 C527 1.387 . S
H526 C533 0.950 . S
C527 C525 1.387 . S
C527 C529 1.390 . S
C527 H531 0.950 . S
H528 C524 0.950 . S
C529 C527 1.390 . S
C529 C530 1.387 . S
C529 H532 0.950 . S
C530 C529 1.387 . S
C530 C533 1.387 . S
H531 C527 0.950 . S
H532 C529 0.950 . S
C533 C524 1.390 . S
C533 H526 0.950 . S
C533 C530 1.387 . S
C534 C535 1.387 . S
C534 H538 0.950 . S
C534 C543 1.390 . S
C535 C534 1.387 . S
C535 C537 1.387 . S
H536 C543 0.950 . S
C537 C535 1.387 . S
C537 C539 1.390 . S
C537 H541 0.950 . S
H538 C534 0.950 . S
C539 C537 1.390 . S
C539 C540 1.387 . S
C539 H542 0.950 . S
C540 C539 1.387 . S
C540 C543 1.387 . S
H541 C537 0.950 . S
H542 C539 0.950 . S
C543 C534 1.390 . S
C543 H536 0.950 . S
C543 C540 1.387 . S
C225 C216 1.235 . S
C230 C6 1.286 . S
C235 C174 1.372 . S
C240 C20 1.365 . S
C245 C34 1.419 . S
C250 C188 1.262 . S
C255 C202 1.374 . S
C260 C48 1.522 . S
C265 C132 1.366 . S
C270 C62 1.372 . S
C275 C76 1.261 . S
C280 C146 1.419 . S
C285 C90 1.374 . S
C290 C160 1.522 . S
C295 C104 1.234 . S
C300 C118 1.286 . S
C305 C79 2.001 . S
C310 C7 1.812 1_556 S
C315 C91 1.379 . S
C320 C21 1.441 . S
C325 C107 1.593 . S
C330 C35 1.371 . S
C335 C49 1.540 . S
C340 C64 1.687 . S
C345 C8 1.387 . S
C350 C23 1.332 . S
C355 C37 1.532 . S
C360 C22 1.524 . S
C365 C36 1.561 . S
C370 C51 1.598 . S
C375 C9 1.816 . S
C380 C50 1.787 . S
C385 C106 1.582 . S
C390 C65 1.469 1_655 S
C395 C63 1.402 . S
C400 C77 1.303 1_565 S
C405 C78 1.602 . S
C410 C92 1.580 . S
C415 C105 1.591 1_545 S
C420 C93 1.806 . S
C425 C191 2.001 . S
C430 C119 1.812 . S
C435 C133 1.441 . S
C440 C203 1.379 . S
C445 C219 1.592 . S
C450 C147 1.365 . S
C455 C176 1.687 . S
C460 C161 1.538 . S
C465 C120 1.388 . S
C470 C135 1.332 . S
C475 C134 1.524 . S
C480 C149 1.532 . S
C485 C163 1.598 . S
C490 C148 1.564 . S
C495 C121 1.816 . S
C500 C162 1.787 . S
C505 C218 1.582 . S
C510 C177 1.469 . S
C515 C175 1.400 . S
C520 C189 1.308 . S
C525 C190 1.602 . S
C530 C204 1.580 . S
C535 C217 1.596 . S
C540 C205 1.807 . S
