# Generated by pormake.
# Topology ukj, (4)-cn, num edge types: 1
# Building blocks:
#     Node 0, Type 0, BuildingBlock: QUQFOY_clean_sbu_1, # of connection points: 4
#     Node 1, Type 0, BuildingBlock: QUQFOY_clean_sbu_1, # of connection points: 4
#     Node 2, Type 0, BuildingBlock: QUQFOY_clean_sbu_1, # of connection points: 4
#     Node 3, Type 0, BuildingBlock: QUQFOY_clean_sbu_1, # of connection points: 4
#     Node 4, Type 0, BuildingBlock: QUQFOY_clean_sbu_1, # of connection points: 4
#     Node 5, Type 0, BuildingBlock: QUQFOY_clean_sbu_1, # of connection points: 4
#     Node 6, Type 0, BuildingBlock: QUQFOY_clean_sbu_1, # of connection points: 4
#     Node 7, Type 0, BuildingBlock: QUQFOY_clean_sbu_1, # of connection points: 4
#     Node 8, Type 0, BuildingBlock: QUQFOY_clean_sbu_1, # of connection points: 4
#     Node 9, Type 0, BuildingBlock: QUQFOY_clean_sbu_1, # of connection points: 4
#     Node 10, Type 0, BuildingBlock: QUQFOY_clean_sbu_1, # of connection points: 4
#     Node 11, Type 0, BuildingBlock: QUQFOY_clean_sbu_1, # of connection points: 4
#     Node 12, Type 0, BuildingBlock: QUQFOY_clean_sbu_1, # of connection points: 4
#     Node 13, Type 0, BuildingBlock: QUQFOY_clean_sbu_1, # of connection points: 4
#     Node 14, Type 0, BuildingBlock: QUQFOY_clean_sbu_1, # of connection points: 4
#     Node 15, Type 0, BuildingBlock: QUQFOY_clean_sbu_1, # of connection points: 4
#     Node 16, Type 0, BuildingBlock: QUQFOY_clean_sbu_1, # of connection points: 4
#     Node 17, Type 0, BuildingBlock: QUQFOY_clean_sbu_1, # of connection points: 4
#     Node 18, Type 0, BuildingBlock: QUQFOY_clean_sbu_1, # of connection points: 4
#     Node 19, Type 0, BuildingBlock: QUQFOY_clean_sbu_1, # of connection points: 4
#     Node 20, Type 0, BuildingBlock: QUQFOY_clean_sbu_1, # of connection points: 4
#     Node 21, Type 0, BuildingBlock: QUQFOY_clean_sbu_1, # of connection points: 4
#     Node 22, Type 0, BuildingBlock: QUQFOY_clean_sbu_1, # of connection points: 4
#     Node 23, Type 0, BuildingBlock: QUQFOY_clean_sbu_1, # of connection points: 4
#     Node 24, Type 0, BuildingBlock: QUQFOY_clean_sbu_1, # of connection points: 4
#     Node 25, Type 0, BuildingBlock: QUQFOY_clean_sbu_1, # of connection points: 4
#     Node 26, Type 0, BuildingBlock: QUQFOY_clean_sbu_1, # of connection points: 4
#     Node 27, Type 0, BuildingBlock: QUQFOY_clean_sbu_1, # of connection points: 4
#     Node 28, Type 0, BuildingBlock: QUQFOY_clean_sbu_1, # of connection points: 4
#     Node 29, Type 0, BuildingBlock: QUQFOY_clean_sbu_1, # of connection points: 4
#     Node 30, Type 0, BuildingBlock: QUQFOY_clean_sbu_1, # of connection points: 4
#     Node 31, Type 0, BuildingBlock: QUQFOY_clean_sbu_1, # of connection points: 4
#     Edge 32, Type (0, 0), BuildingBlock: ZUJKAS_clean_linker_0, # of connection points: 2
#     Edge 33, Type (0, 0), BuildingBlock: ZUJKAS_clean_linker_0, # of connection points: 2
#     Edge 34, Type (0, 0), BuildingBlock: ZUJKAS_clean_linker_0, # of connection points: 2
#     Edge 35, Type (0, 0), BuildingBlock: ZUJKAS_clean_linker_0, # of connection points: 2
#     Edge 36, Type (0, 0), BuildingBlock: ZUJKAS_clean_linker_0, # of connection points: 2
#     Edge 37, Type (0, 0), BuildingBlock: ZUJKAS_clean_linker_0, # of connection points: 2
#     Edge 38, Type (0, 0), BuildingBlock: ZUJKAS_clean_linker_0, # of connection points: 2
#     Edge 39, Type (0, 0), BuildingBlock: ZUJKAS_clean_linker_0, # of connection points: 2
#     Edge 40, Type (0, 0), BuildingBlock: ZUJKAS_clean_linker_0, # of connection points: 2
#     Edge 41, Type (0, 0), BuildingBlock: ZUJKAS_clean_linker_0, # of connection points: 2
#     Edge 42, Type (0, 0), BuildingBlock: ZUJKAS_clean_linker_0, # of connection points: 2
#     Edge 43, Type (0, 0), BuildingBlock: ZUJKAS_clean_linker_0, # of connection points: 2
#     Edge 44, Type (0, 0), BuildingBlock: ZUJKAS_clean_linker_0, # of connection points: 2
#     Edge 45, Type (0, 0), BuildingBlock: ZUJKAS_clean_linker_0, # of connection points: 2
#     Edge 46, Type (0, 0), BuildingBlock: ZUJKAS_clean_linker_0, # of connection points: 2
#     Edge 47, Type (0, 0), BuildingBlock: ZUJKAS_clean_linker_0, # of connection points: 2
#     Edge 48, Type (0, 0), BuildingBlock: ZUJKAS_clean_linker_0, # of connection points: 2
#     Edge 49, Type (0, 0), BuildingBlock: ZUJKAS_clean_linker_0, # of connection points: 2
#     Edge 50, Type (0, 0), BuildingBlock: ZUJKAS_clean_linker_0, # of connection points: 2
#     Edge 51, Type (0, 0), BuildingBlock: ZUJKAS_clean_linker_0, # of connection points: 2
#     Edge 52, Type (0, 0), BuildingBlock: ZUJKAS_clean_linker_0, # of connection points: 2
#     Edge 53, Type (0, 0), BuildingBlock: ZUJKAS_clean_linker_0, # of connection points: 2
#     Edge 54, Type (0, 0), BuildingBlock: ZUJKAS_clean_linker_0, # of connection points: 2
#     Edge 55, Type (0, 0), BuildingBlock: ZUJKAS_clean_linker_0, # of connection points: 2
#     Edge 56, Type (0, 0), BuildingBlock: ZUJKAS_clean_linker_0, # of connection points: 2
#     Edge 57, Type (0, 0), BuildingBlock: ZUJKAS_clean_linker_0, # of connection points: 2
#     Edge 58, Type (0, 0), BuildingBlock: ZUJKAS_clean_linker_0, # of connection points: 2
#     Edge 59, Type (0, 0), BuildingBlock: ZUJKAS_clean_linker_0, # of connection points: 2
#     Edge 60, Type (0, 0), BuildingBlock: ZUJKAS_clean_linker_0, # of connection points: 2
#     Edge 61, Type (0, 0), BuildingBlock: ZUJKAS_clean_linker_0, # of connection points: 2
#     Edge 62, Type (0, 0), BuildingBlock: ZUJKAS_clean_linker_0, # of connection points: 2
#     Edge 63, Type (0, 0), BuildingBlock: ZUJKAS_clean_linker_0, # of connection points: 2
#     Edge 64, Type (0, 0), BuildingBlock: ZUJKAS_clean_linker_0, # of connection points: 2
#     Edge 65, Type (0, 0), BuildingBlock: ZUJKAS_clean_linker_0, # of connection points: 2
#     Edge 66, Type (0, 0), BuildingBlock: ZUJKAS_clean_linker_0, # of connection points: 2
#     Edge 67, Type (0, 0), BuildingBlock: ZUJKAS_clean_linker_0, # of connection points: 2
#     Edge 68, Type (0, 0), BuildingBlock: ZUJKAS_clean_linker_0, # of connection points: 2
#     Edge 69, Type (0, 0), BuildingBlock: ZUJKAS_clean_linker_0, # of connection points: 2
#     Edge 70, Type (0, 0), BuildingBlock: ZUJKAS_clean_linker_0, # of connection points: 2
#     Edge 71, Type (0, 0), BuildingBlock: ZUJKAS_clean_linker_0, # of connection points: 2
#     Edge 72, Type (0, 0), BuildingBlock: ZUJKAS_clean_linker_0, # of connection points: 2
#     Edge 73, Type (0, 0), BuildingBlock: ZUJKAS_clean_linker_0, # of connection points: 2
#     Edge 74, Type (0, 0), BuildingBlock: ZUJKAS_clean_linker_0, # of connection points: 2
#     Edge 75, Type (0, 0), BuildingBlock: ZUJKAS_clean_linker_0, # of connection points: 2
#     Edge 76, Type (0, 0), BuildingBlock: ZUJKAS_clean_linker_0, # of connection points: 2
#     Edge 77, Type (0, 0), BuildingBlock: ZUJKAS_clean_linker_0, # of connection points: 2
#     Edge 78, Type (0, 0), BuildingBlock: ZUJKAS_clean_linker_0, # of connection points: 2
#     Edge 79, Type (0, 0), BuildingBlock: ZUJKAS_clean_linker_0, # of connection points: 2
#     Edge 80, Type (0, 0), BuildingBlock: ZUJKAS_clean_linker_0, # of connection points: 2
#     Edge 81, Type (0, 0), BuildingBlock: ZUJKAS_clean_linker_0, # of connection points: 2
#     Edge 82, Type (0, 0), BuildingBlock: ZUJKAS_clean_linker_0, # of connection points: 2
#     Edge 83, Type (0, 0), BuildingBlock: ZUJKAS_clean_linker_0, # of connection points: 2
#     Edge 84, Type (0, 0), BuildingBlock: ZUJKAS_clean_linker_0, # of connection points: 2
#     Edge 85, Type (0, 0), BuildingBlock: ZUJKAS_clean_linker_0, # of connection points: 2
#     Edge 86, Type (0, 0), BuildingBlock: ZUJKAS_clean_linker_0, # of connection points: 2
#     Edge 87, Type (0, 0), BuildingBlock: ZUJKAS_clean_linker_0, # of connection points: 2
#     Edge 88, Type (0, 0), BuildingBlock: ZUJKAS_clean_linker_0, # of connection points: 2
#     Edge 89, Type (0, 0), BuildingBlock: ZUJKAS_clean_linker_0, # of connection points: 2
#     Edge 90, Type (0, 0), BuildingBlock: ZUJKAS_clean_linker_0, # of connection points: 2
#     Edge 91, Type (0, 0), BuildingBlock: ZUJKAS_clean_linker_0, # of connection points: 2
#     Edge 92, Type (0, 0), BuildingBlock: ZUJKAS_clean_linker_0, # of connection points: 2
#     Edge 93, Type (0, 0), BuildingBlock: ZUJKAS_clean_linker_0, # of connection points: 2
#     Edge 94, Type (0, 0), BuildingBlock: ZUJKAS_clean_linker_0, # of connection points: 2
#     Edge 95, Type (0, 0), BuildingBlock: ZUJKAS_clean_linker_0, # of connection points: 2
# Relax obj value: 0.040
# Max RMSD: 0.113
# Mean RMSD: 0.111
data_MOF--net-ukj--node1-QUQFOY_clean_sbu_1--edge1-ZUJKAS_clean_linker_0
_symmetry_space_group_name_H-M    P1
_symmetry_Int_Tables_number       1
_symmetry_cell_setting            triclinic
loop_
_symmetry_equiv_pos_as_xyz
'x, y, z'
_cell_length_a     33.955599
_cell_length_b     108.63421
_cell_length_c     73.962383
_cell_angle_alpha  89.99846
_cell_angle_beta   90.007957
_cell_angle_gamma 90.014795
loop_
_atom_site_label
_atom_site_type_symbol
_atom_site_fract_x
_atom_site_fract_y
_atom_site_fract_z
_atom_type_partial_charge
O0 O 0.11861 0.33908 0.2335 0.0
Cd1 Cd 0.1286 0.33337 0.25967 0.0
Cd2 Cd 0.09738 0.35581 0.26565 0.0
O3 O 0.08153 0.35543 0.23846 0.0
O4 O 0.13519 0.3151 0.2573 0.0
O5 O 0.08482 0.32363 0.27144 0.0
C6 C 0.10172 0.31381 0.26534 0.0
C7 C 0.05897 0.36088 0.29084 0.0
C8 C 0.09747 0.34785 0.22754 0.0
C9 C 0.18351 0.35243 0.27365 0.0
O10 O 0.15546 0.35979 0.27019 0.0
O11 O 0.17834 0.34084 0.27221 0.0
O12 O 0.06861 0.36907 0.27898 0.0
O13 O 0.06782 0.34953 0.28742 0.0
O14 O 0.12414 0.92293 0.23766 0.0
Cd15 Cd 0.1151 0.92861 0.26388 0.0
Cd16 Cd 0.14636 0.9061 0.26956 0.0
O17 O 0.16044 0.90634 0.2421 0.0
O18 O 0.10926 0.94691 0.26164 0.0
O19 O 0.15935 0.93813 0.27566 0.0
C20 C 0.14281 0.94804 0.26965 0.0
C21 C 0.18614 0.9012 0.2944 0.0
C22 C 0.14437 0.91405 0.2314 0.0
C23 C 0.06028 0.90969 0.27817 0.0
O24 O 0.08843 0.90233 0.27488 0.0
O25 O 0.0652 0.92126 0.27637 0.0
O26 O 0.17543 0.89289 0.28292 0.0
O27 O 0.17757 0.91253 0.29073 0.0
O28 O 0.12141 0.92235 0.03336 0.0
Cd29 Cd 0.13055 0.92801 1.0071 0.0
Cd30 Cd 0.09806 0.90574 1.0015 0.0
O31 O 0.0826 0.90635 0.02876 0.0
O32 O 0.13775 0.94627 0.00934 0.0
O33 O 0.0868 0.93786 0.99547 0.0
C34 C 0.10418 0.94765 1.00142 0.0
C35 C 0.05922 0.90054 0.97647 0.0
C36 C 0.09972 0.91378 0.03955 0.0
C37 C 0.18422 0.90871 0.99307 0.0
O38 O 0.15594 0.9015 0.99684 0.0
O39 O 0.17958 0.92033 0.9943 0.0
O40 O 0.06876 0.89243 0.98846 0.0
O41 O 0.06836 0.91189 0.97967 0.0
O42 O 0.12755 0.33754 0.03026 0.0
Cd43 Cd 0.1181 0.3315 1.00424 0.0
Cd44 Cd 0.14783 0.35433 0.99783 0.0
O45 O 0.162 0.35445 0.02525 0.0
O46 O 0.11226 0.31324 1.00719 0.0
O47 O 0.16209 0.32174 0.99262 0.0
C48 C 0.14561 0.31195 0.99906 0.0
C49 C 0.1873 0.35999 0.97322 0.0
C50 C 0.14702 0.34669 0.0362 0.0
C51 C 0.06197 0.34996 0.98947 0.0
O52 O 0.08961 0.35757 0.99242 0.0
O53 O 0.06768 0.33846 0.99169 0.0
O54 O 0.17545 0.36801 0.98489 0.0
O55 O 0.17998 0.34852 0.97653 0.0
O56 O 0.87447 0.67284 0.78183 0.0
Cd57 Cd 0.86655 0.67829 0.75529 0.0
Cd58 Cd 0.89724 0.65596 0.75094 0.0
O59 O 0.91425 0.65702 0.77783 0.0
O60 O 0.85996 0.69658 0.7572 0.0
O61 O 0.91125 0.6879 0.74401 0.0
C62 C 0.89402 0.69779 0.74967 0.0
C63 C 0.93478 0.65059 0.7256 0.0
C64 C 0.89656 0.66448 0.78835 0.0
C65 C 0.81159 0.65912 0.74267 0.0
O66 O 0.83883 0.65188 0.74765 0.0
O67 O 0.81774 0.67069 0.74203 0.0
O68 O 0.9256 0.64255 0.73775 0.0
O69 O 0.92569 0.66196 0.7287 0.0
O70 O 0.87212 0.0885 0.78157 0.0
Cd71 Cd 0.88134 0.08257 0.75546 0.0
Cd72 Cd 0.85101 0.1054 0.74941 0.0
O73 O 0.83694 0.10529 0.77688 0.0
O74 O 0.88741 0.06429 0.75814 0.0
O75 O 0.83736 0.07282 0.74377 0.0
C76 C 0.85404 0.063 0.75001 0.0
C77 C 0.81214 0.11137 0.7247 0.0
C78 C 0.85244 0.09754 0.7877 0.0
C79 C 0.93699 0.10123 0.74095 0.0
O80 O 0.9092 0.10874 0.74414 0.0
O81 O 0.93155 0.08969 0.7429 0.0
O82 O 0.82372 0.11924 0.73664 0.0
O83 O 0.81917 0.09986 0.72782 0.0
O84 O 0.88189 0.08942 0.98509 0.0
Cd85 Cd 0.87192 0.08332 0.01108 0.0
Cd86 Cd 0.90174 0.10613 0.01762 0.0
O87 O 0.91688 0.1062 0.99029 0.0
O88 O 0.86565 0.06507 1.00807 0.0
O89 O 0.9155 0.07342 0.0228 0.0
C90 C 0.8988 0.06367 0.01632 0.0
C91 C 0.94007 0.11141 0.04281 0.0
C92 C 0.90182 0.0985 0.97925 0.0
C93 C 0.81577 0.10186 0.02562 0.0
O94 O 0.8434 0.10945 0.02254 0.0
O95 O 0.82156 0.09034 0.02364 0.0
O96 O 0.92904 0.11961 0.03122 0.0
O97 O 0.93275 0.1 0.03907 0.0
O98 O 0.87062 0.67217 0.98662 0.0
Cd99 Cd 0.88028 0.67766 0.0129 0.0
Cd100 Cd 0.84892 0.65516 0.01823 0.0
O101 O 0.8339 0.65565 0.99093 0.0
O102 O 0.88675 0.69595 0.01072 0.0
O103 O 0.8364 0.68732 0.02474 0.0
C104 C 0.85321 0.69718 0.01871 0.0
C105 C 0.80973 0.65043 0.04329 0.0
C106 C 0.84989 0.66342 0.9803 0.0
C107 C 0.935 0.65851 0.02671 0.0
O108 O 0.90688 0.6512 0.02313 0.0
O109 O 0.93001 0.67011 0.02534 0.0
O110 O 0.81976 0.64207 0.03176 0.0
O111 O 0.81862 0.66173 0.03955 0.0
O112 O 0.12152 0.83842 0.73668 0.0
Cd113 Cd 0.13153 0.8323 0.76264 0.0
Cd114 Cd 0.10018 0.85481 0.76936 0.0
O115 O 0.08523 0.85489 0.74201 0.0
O116 O 0.13773 0.81406 0.75968 0.0
O117 O 0.0878 0.82246 0.77429 0.0
C118 C 0.10442 0.8127 0.76783 0.0
C119 C 0.06103 0.85989 0.79435 0.0
C120 C 0.10094 0.84737 0.73091 0.0
C121 C 0.18657 0.85104 0.77734 0.0
O122 O 0.1583 0.85844 0.77447 0.0
O123 O 0.18168 0.8395 0.77515 0.0
O124 O 0.07203 0.86815 0.78285 0.0
O125 O 0.06896 0.84852 0.79064 0.0
O126 O 0.13074 0.4214 0.73353 0.0
Cd127 Cd 0.12101 0.42743 0.75959 0.0
Cd128 Cd 0.15192 0.4049 0.76603 0.0
O129 O 0.16704 0.40491 0.73874 0.0
O130 O 0.11446 0.44568 0.75686 0.0
O131 O 0.16469 0.43728 0.77126 0.0
C132 C 0.14776 0.44705 0.76501 0.0
C133 C 0.19107 0.40016 0.79112 0.0
C134 C 0.15132 0.41246 0.72769 0.0
C135 C 0.06601 0.40865 0.77441 0.0
O136 O 0.09387 0.40118 0.77114 0.0
O137 O 0.0713 0.42019 0.77242 0.0
O138 O 0.18062 0.39178 0.77971 0.0
O139 O 0.1826 0.41147 0.78726 0.0
O140 O 0.12606 0.42283 0.53025 0.0
Cd141 Cd 0.13502 0.42923 0.5044 0.0
Cd142 Cd 0.10662 0.40614 0.49737 0.0
O143 O 0.09394 0.40551 0.52498 0.0
O144 O 0.14012 0.44746 0.50782 0.0
O145 O 0.09064 0.43895 0.49302 0.0
C146 C 0.10679 0.44873 0.49967 0.0
C147 C 0.06602 0.40076 0.47302 0.0
C148 C 0.10798 0.41337 0.53605 0.0
C149 C 0.19186 0.41139 0.48844 0.0
O150 O 0.16471 0.40353 0.49092 0.0
O151 O 0.18577 0.42276 0.49166 0.0
O152 O 0.07933 0.39255 0.48406 0.0
O153 O 0.07252 0.41219 0.4769 0.0
O154 O 0.12783 0.83855 0.53301 0.0
Cd155 Cd 0.11964 0.83282 0.50672 0.0
Cd156 Cd 0.15035 0.85543 0.50135 0.0
O157 O 0.16457 0.85506 0.52876 0.0
O158 O 0.11297 0.81456 0.50912 0.0
O159 O 0.16391 0.82305 0.49538 0.0
C160 C 0.1467 0.81324 0.50135 0.0
C161 C 0.18958 0.86084 0.47656 0.0
C162 C 0.14812 0.84738 0.53939 0.0
C163 C 0.06477 0.85169 0.49232 0.0
O164 O 0.09234 0.85915 0.49616 0.0
O165 O 0.0703 0.84012 0.49371 0.0
O166 O 0.17899 0.86891 0.48841 0.0
O167 O 0.18132 0.84943 0.47982 0.0
O168 O 0.86327 0.17456 0.2789 0.0
Cd169 Cd 0.8606 0.17993 0.25227 0.0
Cd170 Cd 0.89441 0.15818 0.24898 0.0
O171 O 0.9074 0.15978 0.27654 0.0
O172 O 0.85475 0.19828 0.25339 0.0
O173 O 0.90759 0.18911 0.24233 0.0
C174 C 0.89002 0.19918 0.24702 0.0
C175 C 0.93498 0.15295 0.22458 0.0
C176 C 0.88583 0.16671 0.28632 0.0
C177 C 0.80957 0.16047 0.23788 0.0
O178 O 0.83702 0.15351 0.2435 0.0
O179 O 0.81427 0.17211 0.23785 0.0
O180 O 0.92572 0.14495 0.23678 0.0
O181 O 0.92473 0.16426 0.22733 0.0
O182 O 0.86771 0.58897 0.28313 0.0
Cd183 Cd 0.87757 0.58311 0.25701 0.0
Cd184 Cd 0.84642 0.60558 0.25092 0.0
O185 O 0.83068 0.60531 0.27812 0.0
O186 O 0.88436 0.56487 0.25969 0.0
O187 O 0.83412 0.57321 0.24523 0.0
C188 C 0.8511 0.56346 0.25152 0.0
C189 C 0.8078 0.61092 0.22588 0.0
C190 C 0.84673 0.59777 0.28908 0.0
C191 C 0.93271 0.60204 0.24303 0.0
O192 O 0.90463 0.60942 0.24636 0.0
O193 O 0.92747 0.59046 0.24451 0.0
O194 O 0.81822 0.61902 0.23771 0.0
O195 O 0.81608 0.59952 0.22922 0.0
O196 O 0.87437 0.58836 0.4868 0.0
Cd197 Cd 0.86601 0.58251 0.513 0.0
Cd198 Cd 0.89724 0.60501 0.51868 0.0
O199 O 0.91094 0.6049 0.49121 0.0
O200 O 0.85995 0.56424 0.5105 0.0
O201 O 0.9105 0.57287 0.52438 0.0
C202 C 0.89369 0.56302 0.51831 0.0
C203 C 0.93692 0.61006 0.54344 0.0
C204 C 0.89455 0.59725 0.48052 0.0
C205 C 0.8115 0.60129 0.52778 0.0
O206 O 0.8394 0.60869 0.52423 0.0
O207 O 0.81651 0.58973 0.52596 0.0
O208 O 0.92588 0.61833 0.53196 0.0
O209 O 0.92891 0.59869 0.53975 0.0
O210 O 0.8866 0.17438 0.48848 0.0
Cd211 Cd 0.89034 0.17968 0.51511 0.0
Cd212 Cd 0.85455 0.15822 0.51857 0.0
O213 O 0.84132 0.15995 0.49104 0.0
O214 O 0.89638 0.19805 0.51425 0.0
O215 O 0.8436 0.18883 0.52529 0.0
C216 C 0.86115 0.19892 0.52069 0.0
C217 C 0.81398 0.15361 0.54324 0.0
C218 C 0.86319 0.16673 0.48116 0.0
C219 C 0.93982 0.15979 0.52938 0.0
O220 O 0.91154 0.15309 0.52392 0.0
O221 O 0.93637 0.17147 0.52932 0.0
O222 O 0.82228 0.14539 0.53121 0.0
O223 O 0.82515 0.1648 0.54013 0.0
O224 O 0.63213 0.33579 0.739 0.0
Cd225 Cd 0.63871 0.33035 0.76545 0.0
Cd226 Cd 0.60462 0.35224 0.77002 0.0
O227 O 0.59028 0.35111 0.74258 0.0
O228 O 0.64516 0.31203 0.76386 0.0
O229 O 0.59347 0.32088 0.77649 0.0
C230 C 0.61079 0.31093 0.77113 0.0
C231 C 0.56461 0.35702 0.79483 0.0
C232 C 0.60967 0.34394 0.73223 0.0
C233 C 0.69064 0.34986 0.77951 0.0
O234 O 0.66217 0.35684 0.77514 0.0
O235 O 0.68669 0.3382 0.77871 0.0
O236 O 0.57387 0.36527 0.78299 0.0
O237 O 0.57468 0.34576 0.79152 0.0
O238 O 0.62887 0.92237 0.7342 0.0
Cd239 Cd 0.61952 0.92799 0.76047 0.0
Cd240 Cd 0.65059 0.90544 0.76594 0.0
O241 O 0.66567 0.90589 0.73867 0.0
O242 O 0.61283 0.94627 0.75822 0.0
O243 O 0.66331 0.93774 0.77227 0.0
C244 C 0.64628 0.94757 0.76626 0.0
C245 C 0.68949 0.90003 0.79084 0.0
C246 C 0.64952 0.91357 0.72796 0.0
C247 C 0.56453 0.90891 0.77426 0.0
O248 O 0.5925 0.90156 0.77063 0.0
O249 O 0.5698 0.92051 0.77304 0.0
O250 O 0.6791 0.89197 0.77893 0.0
O251 O 0.68108 0.91143 0.78763 0.0
O252 O 0.62127 0.92203 0.53081 0.0
Cd253 Cd 0.63227 0.92799 0.50486 0.0
Cd254 Cd 0.60054 0.90555 0.49813 0.0
O255 O 0.58542 0.90546 0.52543 0.0
O256 O 0.63905 0.94621 0.50773 0.0
O257 O 0.58924 0.93792 0.49286 0.0
C258 C 0.60603 0.94764 0.49936 0.0
C259 C 0.56122 0.90084 0.47306 0.0
C260 C 0.60067 0.91307 0.53653 0.0
C261 C 0.68704 0.90909 0.49032 0.0
O262 O 0.65853 0.90175 0.49304 0.0
O263 O 0.68245 0.92063 0.49261 0.0
O264 O 0.57188 0.89244 0.4844 0.0
O265 O 0.56963 0.91214 0.47698 0.0
O266 O 0.61279 0.33767 0.53117 0.0
Cd267 Cd 0.61146 0.33134 0.50501 0.0
Cd268 Cd 0.64584 0.35298 0.50026 0.0
O269 O 0.65763 0.35221 0.52804 0.0
O270 O 0.60728 0.31298 0.50709 0.0
O271 O 0.65955 0.32237 0.49582 0.0
C272 C 0.64275 0.31226 0.50089 0.0
C273 C 0.68737 0.35841 0.47627 0.0
C274 C 0.63529 0.34573 0.53813 0.0
C275 C 0.561 0.35015 0.48877 0.0
O276 O 0.58857 0.35729 0.49378 0.0
O277 O 0.56524 0.33852 0.48992 0.0
O278 O 0.67648 0.36641 0.48817 0.0
O279 O 0.67825 0.34701 0.47916 0.0
O280 O 0.37369 0.67322 0.28235 0.0
Cd281 Cd 0.36502 0.67889 0.25607 0.0
Cd282 Cd 0.39656 0.65635 0.25055 0.0
O283 O 0.41048 0.65673 0.278 0.0
O284 O 0.35886 0.69718 0.25825 0.0
O285 O 0.4093 0.68848 0.2444 0.0
C286 C 0.39248 0.69837 0.25031 0.0
C287 C 0.43612 0.65066 0.22598 0.0
C288 C 0.39407 0.6644 0.28867 0.0
C289 C 0.31058 0.6599 0.24169 0.0
O290 O 0.33866 0.65256 0.24523 0.0
O291 O 0.31546 0.67148 0.24334 0.0
O292 O 0.42516 0.64272 0.23794 0.0
O293 O 0.42801 0.66212 0.229 0.0
O294 O 0.37305 0.08817 0.28427 0.0
Cd295 Cd 0.38205 0.08224 0.25813 0.0
Cd296 Cd 0.35014 0.10468 0.25183 0.0
O297 O 0.33633 0.1046 0.27929 0.0
O298 O 0.38775 0.06396 0.26057 0.0
O299 O 0.33754 0.07271 0.24659 0.0
C300 C 0.35409 0.06282 0.25265 0.0
C301 C 0.30994 0.11014 0.22739 0.0
C302 C 0.35247 0.09706 0.29023 0.0
C303 C 0.43601 0.10104 0.24278 0.0
O304 O 0.4079 0.10841 0.24608 0.0
O305 O 0.43141 0.0895 0.24507 0.0
O306 O 0.32138 0.11821 0.23908 0.0
O307 O 0.31799 0.09872 0.23063 0.0
O308 O 0.37894 0.08813 0.48797 0.0
Cd309 Cd 0.36975 0.08207 0.51402 0.0
Cd310 Cd 0.39915 0.1049 0.52033 0.0
O311 O 0.41319 0.10509 0.4929 0.0
O312 O 0.36385 0.06382 0.51104 0.0
O313 O 0.41385 0.0723 0.52551 0.0
C314 C 0.39727 0.06252 0.5191 0.0
C315 C 0.43891 0.10987 0.54513 0.0
C316 C 0.39828 0.09729 0.48198 0.0
C317 C 0.31364 0.10044 0.5291 0.0
O318 O 0.34101 0.10812 0.52595 0.0
O319 O 0.31956 0.08895 0.52684 0.0
O320 O 0.42729 0.1182 0.53389 0.0
O321 O 0.43123 0.09851 0.54123 0.0
O322 O 0.3685 0.67195 0.48637 0.0
Cd323 Cd 0.37841 0.67775 0.51251 0.0
Cd324 Cd 0.34745 0.65528 0.51842 0.0
O325 O 0.3313 0.65562 0.49125 0.0
O326 O 0.38549 0.69599 0.50989 0.0
O327 O 0.33504 0.68769 0.52426 0.0
C328 C 0.3522 0.69743 0.51801 0.0
C329 C 0.30958 0.6505 0.54391 0.0
C330 C 0.34739 0.66319 0.48035 0.0
C331 C 0.4336 0.65877 0.5263 0.0
O332 O 0.40565 0.65139 0.52276 0.0
O333 O 0.42822 0.67036 0.52504 0.0
O334 O 0.31908 0.64216 0.53226 0.0
O335 O 0.31817 0.66181 0.54008 0.0
O336 O 0.61705 0.83933 0.23353 0.0
Cd337 Cd 0.62683 0.83356 0.25971 0.0
Cd338 Cd 0.59613 0.85618 0.2657 0.0
O339 O 0.58108 0.85593 0.23841 0.0
O340 O 0.63302 0.81528 0.25729 0.0
O341 O 0.58299 0.82389 0.27157 0.0
C342 C 0.59968 0.81404 0.26544 0.0
C343 C 0.55702 0.86156 0.29054 0.0
C344 C 0.5966 0.84824 0.22753 0.0
C345 C 0.68209 0.85242 0.27406 0.0
O346 O 0.65423 0.85988 0.2707 0.0
O347 O 0.67672 0.84087 0.27233 0.0
O348 O 0.56783 0.86965 0.27876 0.0
O349 O 0.56513 0.85015 0.28721 0.0
O350 O 0.63069 0.4216 0.23629 0.0
Cd351 Cd 0.61893 0.42788 0.26202 0.0
Cd352 Cd 0.64921 0.4051 0.26942 0.0
O353 O 0.6647 0.40473 0.24214 0.0
O354 O 0.61247 0.44607 0.25858 0.0
O355 O 0.66154 0.43797 0.27413 0.0
C356 C 0.64507 0.44762 0.26724 0.0
C357 C 0.68752 0.3998 0.29462 0.0
C358 C 0.65053 0.4124 0.23083 0.0
C359 C 0.5626 0.40937 0.27655 0.0
O360 O 0.5908 0.40185 0.27429 0.0
O361 O 0.56788 0.42085 0.27395 0.0
O362 O 0.67601 0.39159 0.28315 0.0
O363 O 0.6806 0.41121 0.29079 0.0
O364 O 0.62157 0.42102 0.03323 0.0
Cd365 Cd 0.63058 0.42676 1.007 0.0
Cd366 Cd 0.59898 0.40422 1.00131 0.0
O367 O 0.58468 0.40456 0.02873 0.0
O368 O 0.63682 0.44505 0.00932 0.0
O369 O 0.58639 0.43641 0.99537 0.0
C370 C 0.60321 0.44627 1.00138 0.0
C371 C 0.55994 0.39861 0.97651 0.0
C372 C 0.60101 0.4122 0.03946 0.0
C373 C 0.68501 0.40774 0.99262 0.0
O374 O 0.65691 0.40042 0.99616 0.0
O375 O 0.68016 0.41933 0.99426 0.0
O376 O 0.57055 0.39063 0.98849 0.0
O377 O 0.568 0.41006 0.97966 0.0
O378 O 0.62616 0.83775 0.03039 0.0
Cd379 Cd 0.61601 0.83159 1.00448 0.0
Cd380 Cd 0.64674 0.85425 0.99774 0.0
O381 O 0.66111 0.85453 0.02514 0.0
O382 O 0.6101 0.81335 1.00759 0.0
O383 O 0.6597 0.82178 0.99276 0.0
C384 C 0.64331 0.81201 0.99935 0.0
C385 C 0.68609 0.85942 0.97286 0.0
C386 C 0.64599 0.84686 0.0362 0.0
C387 C 0.56045 0.85016 0.98968 0.0
O388 O 0.58861 0.85763 0.99238 0.0
O389 O 0.56551 0.83865 0.9921 0.0
O390 O 0.67446 0.86767 0.98424 0.0
O391 O 0.6787 0.84802 0.97666 0.0
O392 O 0.38025 0.17134 0.78425 0.0
Cd393 Cd 0.37154 0.17697 0.75794 0.0
Cd394 Cd 0.40219 0.15446 0.75259 0.0
O395 O 0.41717 0.15489 0.77988 0.0
O396 O 0.36538 0.19527 0.76012 0.0
O397 O 0.41594 0.18656 0.74637 0.0
C398 C 0.39911 0.19645 0.75228 0.0
C399 C 0.44108 0.14928 0.72761 0.0
C400 C 0.40085 0.16256 0.79055 0.0
C401 C 0.31638 0.158 0.74404 0.0
O402 O 0.34411 0.1506 0.74784 0.0
O403 O 0.32193 0.16958 0.74517 0.0
O404 O 0.431 0.14112 0.73944 0.0
O405 O 0.43239 0.16064 0.73096 0.0
O406 O 0.37278 0.58752 0.7824 0.0
Cd407 Cd 0.38033 0.58244 0.75565 0.0
Cd408 Cd 0.35088 0.60494 0.75224 0.0
O409 O 0.33361 0.60356 0.77906 0.0
O410 O 0.38706 0.56412 0.75707 0.0
O411 O 0.33562 0.57291 0.74417 0.0
C412 C 0.35301 0.56298 0.74953 0.0
C413 C 0.31416 0.61036 0.72667 0.0
C414 C 0.35112 0.59586 0.78927 0.0
C415 C 0.43605 0.60161 0.74379 0.0
O416 O 0.40946 0.60889 0.74935 0.0
O417 O 0.42912 0.59011 0.74246 0.0
O418 O 0.3228 0.61837 0.73895 0.0
O419 O 0.32325 0.59898 0.72978 0.0
O420 O 0.37776 0.58656 0.98697 0.0
Cd421 Cd 0.36647 0.58075 0.01297 0.0
Cd422 Cd 0.39815 0.6033 0.01951 0.0
O423 O 0.41369 0.60314 0.99224 0.0
O424 O 0.35996 0.56249 0.01034 0.0
O425 O 0.40955 0.57093 0.02515 0.0
C426 C 0.39296 0.56114 0.01875 0.0
C427 C 0.43687 0.60847 0.04461 0.0
C428 C 0.39852 0.59548 0.98119 0.0
C429 C 0.31148 0.59978 0.02706 0.0
O430 O 0.34004 0.60709 0.02428 0.0
O431 O 0.31609 0.58821 0.02499 0.0
O432 O 0.42636 0.61667 0.03293 0.0
O433 O 0.42871 0.5971 0.04104 0.0
O434 O 0.37055 0.17151 0.98741 0.0
Cd435 Cd 0.38175 0.17754 0.0133 0.0
Cd436 Cd 0.35029 0.15506 0.02018 0.0
O437 O 0.33491 0.15491 0.99292 0.0
O438 O 0.3883 0.19577 0.01033 0.0
O439 O 0.33873 0.18746 0.02533 0.0
C440 C 0.35534 0.19719 0.01874 0.0
C441 C 0.31131 0.15018 0.04529 0.0
C442 C 0.35 0.16251 0.98176 0.0
C443 C 0.43689 0.1587 0.02773 0.0
O444 O 0.40839 0.15134 0.02511 0.0
O445 O 0.43217 0.17024 0.02545 0.0
O446 O 0.32209 0.14184 0.03389 0.0
O447 O 0.3194 0.16152 0.04143 0.0
H448 H 0.08479 0.36921 0.20839 0.0
H449 H 0.09029 0.37196 0.17543 0.0
H450 H 0.11019 0.33302 0.1691 0.0
H451 H 0.10525 0.33022 0.20177 0.0
H452 H 0.16302 0.3631 0.15397 0.0
H453 H 0.02046 0.34316 0.13168 0.0
H454 H 0.02765 0.34963 0.15396 0.0
H455 H 0.04628 0.33457 0.14878 0.0
C456 C 0.08955 0.36122 0.19991 0.0
C457 C 0.09454 0.34949 0.20767 0.0
C458 C 0.09296 0.36282 0.18113 0.0
C459 C 0.10059 0.35268 0.16987 0.0
C460 C 0.10408 0.34094 0.17755 0.0
H461 H 0.14024 0.32927 0.06231 0.0
H462 H 0.13103 0.33239 0.09466 0.0
C463 C 0.10124 0.33937 0.19623 0.0
C464 C 0.10701 0.35422 0.15015 0.0
H465 H 0.07032 0.3452 0.10932 0.0
C466 C 0.14253 0.3594 0.14411 0.0
C467 C 0.08029 0.34932 0.13742 0.0
C468 C 0.04134 0.34393 0.1432 0.0
C469 C 0.153 0.3592 0.12569 0.0
C470 C 0.12685 0.35387 0.11299 0.0
C471 C 0.09053 0.34921 0.11903 0.0
C472 C 0.13728 0.35219 0.09358 0.0
C473 C 0.19278 0.36409 0.12012 0.0
C474 C 0.14509 0.36227 0.08218 0.0
C475 C 0.15098 0.36048 0.06356 0.0
C476 C 0.1485 0.3486 0.05605 0.0
C477 C 0.1422 0.33854 0.06764 0.0
C478 C 0.13677 0.34031 0.08616 0.0
H479 H 0.2127 0.36534 0.13189 0.0
H480 H 0.20713 0.35781 0.11028 0.0
H481 H 0.18895 0.37318 0.1135 0.0
H482 H 0.14501 0.37155 0.08751 0.0
H483 H 0.15527 0.36843 0.05495 0.0
H484 H 0.11925 0.93052 0.0654 0.0
H485 H 0.12447 0.9273 0.09795 0.0
H486 H 0.08199 0.89017 0.09177 0.0
H487 H 0.07656 0.89328 0.05887 0.0
H488 H 0.05174 0.91304 0.12332 0.0
H489 H 0.20531 0.89521 0.11897 0.0
H490 H 0.18917 0.90684 0.10318 0.0
H491 H 0.16881 0.89165 0.10196 0.0
C492 C 0.11057 0.92168 0.07089 0.0
C493 C 0.09758 0.91213 0.05947 0.0
C494 C 0.11366 0.91987 0.08952 0.0
C495 C 0.10399 0.90848 0.09719 0.0
C496 C 0.08971 0.89902 0.08603 0.0
H497 H 0.1581 0.89281 0.21196 0.0
H498 H 0.148 0.88983 0.17929 0.0
C499 C 0.08642 0.90084 0.06728 0.0
C500 C 0.10994 0.90663 0.11685 0.0
H501 H 0.1817 0.90053 0.148 0.0
C502 C 0.07988 0.91011 0.12876 0.0
C503 C 0.14663 0.90275 0.12385 0.0
C504 C 0.17952 0.89884 0.11142 0.0
C505 C 0.08606 0.91024 0.14755 0.0
C506 C 0.12362 0.9071 0.15455 0.0
C507 C 0.15306 0.90303 0.14264 0.0
C508 C 0.13341 0.90889 0.17398 0.0
C509 C 0.05241 0.91394 0.15971 0.0
C510 C 0.13042 0.92065 0.18166 0.0
C511 C 0.13611 0.92236 0.20017 0.0
C512 C 0.14546 0.91237 0.21148 0.0
C513 C 0.15102 0.9007 0.20362 0.0
C514 C 0.14503 0.89897 0.18498 0.0
H515 H 0.02348 0.91225 0.15314 0.0
H516 H 0.05332 0.90885 0.17272 0.0
H517 H 0.05453 0.92393 0.16266 0.0
H518 H 0.12268 0.92851 0.17336 0.0
H519 H 0.13207 0.9315 0.20572 0.0
H520 H 0.87938 0.68174 0.8138 0.0
H521 H 0.87377 0.67889 0.84645 0.0
H522 H 0.91032 0.6411 0.84094 0.0
H523 H 0.91646 0.64388 0.80802 0.0
H524 H 0.8281 0.64998 0.86197 0.0
H525 H 0.97231 0.66924 0.88393 0.0
H526 H 0.94691 0.67674 0.86558 0.0
H527 H 0.96606 0.66152 0.86246 0.0
C528 C 0.88675 0.67285 0.8195 0.0
C529 C 0.89839 0.66303 0.80828 0.0
C530 C 0.88344 0.67124 0.83816 0.0
C531 C 0.89142 0.65979 0.84604 0.0
C532 C 0.904 0.65001 0.83505 0.0
H533 H 0.83868 0.64226 0.96046 0.0
H534 H 0.84758 0.63985 0.92768 0.0
C535 C 0.90775 0.65165 0.81629 0.0
C536 C 0.88523 0.65814 0.86572 0.0
H537 H 0.92439 0.66598 0.90658 0.0
C538 C 0.8493 0.65328 0.87181 0.0
C539 C 0.91286 0.66255 0.87839 0.0
C540 C 0.95188 0.66777 0.8724 0.0
C541 C 0.83957 0.65321 0.89032 0.0
C542 C 0.86685 0.65795 0.90302 0.0
C543 C 0.90339 0.66238 0.89687 0.0
C544 C 0.85744 0.65924 0.9226 0.0
C545 C 0.79947 0.64864 0.896 0.0
C546 C 0.85966 0.67091 0.93066 0.0
C547 C 0.85501 0.67228 0.94929 0.0
C548 C 0.84782 0.662 0.96038 0.0
C549 C 0.8437 0.65037 0.95225 0.0
C550 C 0.8488 0.64898 0.93351 0.0
H551 H 0.7789 0.64796 0.88436 0.0
H552 H 0.80247 0.63934 0.90204 0.0
H553 H 0.78633 0.65482 0.90633 0.0
H554 H 0.86605 0.67898 0.92255 0.0
H555 H 0.85823 0.68138 0.95511 0.0
H556 H 0.9139 0.12008 0.96043 0.0
H557 H 0.90761 0.12313 0.92754 0.0
H558 H 0.88785 0.08423 0.92052 0.0
H559 H 0.89368 0.08112 0.9531 0.0
H560 H 0.94693 0.0981 0.89522 0.0
H561 H 0.79481 0.11712 0.90025 0.0
H562 H 0.83278 0.12251 0.91538 0.0
H563 H 0.81445 0.10713 0.91757 0.0
C564 C 0.90891 0.11216 0.95182 0.0
C565 C 0.9042 0.10036 0.95938 0.0
C566 C 0.90502 0.11393 0.93308 0.0
C567 C 0.89684 0.10391 0.92167 0.0
C568 C 0.89394 0.09209 0.92911 0.0
H569 H 0.86249 0.08014 0.81366 0.0
H570 H 0.87256 0.08327 0.84595 0.0
C571 C 0.89735 0.09034 0.94775 0.0
C572 C 0.89017 0.10556 0.90198 0.0
H573 H 0.81843 0.11245 0.87114 0.0
C574 C 0.91909 0.10142 0.88992 0.0
C575 C 0.85389 0.10994 0.89513 0.0
C576 C 0.82196 0.11443 0.90765 0.0
C577 C 0.91228 0.10118 0.87119 0.0
C578 C 0.87507 0.10485 0.86436 0.0
C579 C 0.84678 0.10955 0.87637 0.0
C580 C 0.8644 0.10301 0.84502 0.0
C581 C 0.94496 0.09687 0.8589 0.0
C582 C 0.85388 0.11297 0.83386 0.0
C583 C 0.84743 0.11116 0.81527 0.0
C584 C 0.85147 0.09937 0.8076 0.0
C585 C 0.85962 0.08936 0.81907 0.0
C586 C 0.86571 0.09115 0.83754 0.0
H587 H 0.97432 0.09825 0.86523 0.0
H588 H 0.94137 0.08688 0.85626 0.0
H589 H 0.94435 0.10181 0.84576 0.0
H590 H 0.85221 0.12218 0.83939 0.0
H591 H 0.84131 0.11907 0.8068 0.0
H592 H 0.11241 0.8303 0.70458 0.0
H593 H 0.11797 0.83368 0.67207 0.0
H594 H 0.09128 0.87213 0.67945 0.0
H595 H 0.08534 0.86882 0.7123 0.0
H596 H 0.05352 0.8489 0.64705 0.0
H597 H 0.20869 0.86534 0.6521 0.0
H598 H 0.18959 0.85448 0.66839 0.0
H599 H 0.172 0.87002 0.6684 0.0
C600 C 0.10718 0.83947 0.69934 0.0
C601 C 0.09849 0.8493 0.71107 0.0
C602 C 0.11044 0.84137 0.68074 0.0
C603 C 0.10542 0.85316 0.67342 0.0
C604 C 0.0954 0.86297 0.68491 0.0
H605 H 0.16288 0.86853 0.55888 0.0
H606 H 0.15238 0.87159 0.5915 0.0
C607 C 0.09176 0.86104 0.70362 0.0
C608 C 0.11191 0.85501 0.6538 0.0
H609 H 0.1846 0.86076 0.62295 0.0
C610 C 0.08192 0.85169 0.64174 0.0
C611 C 0.14895 0.85871 0.64696 0.0
C612 C 0.18188 0.86237 0.65953 0.0
C613 C 0.08844 0.85156 0.62299 0.0
C614 C 0.1263 0.8545 0.61615 0.0
C615 C 0.15572 0.85842 0.62819 0.0
C616 C 0.13636 0.85264 0.59676 0.0
C617 C 0.05478 0.84808 0.61068 0.0
C618 C 0.13269 0.84089 0.58908 0.0
C619 C 0.13859 0.83914 0.57059 0.0
C620 C 0.14885 0.84907 0.55931 0.0
C621 C 0.15508 0.8607 0.56719 0.0
C622 C 0.14887 0.86247 0.5858 0.0
H623 H 0.02585 0.84998 0.61712 0.0
H624 H 0.05631 0.85316 0.59766 0.0
H625 H 0.05623 0.83807 0.60775 0.0
H626 H 0.12425 0.83309 0.59734 0.0
H627 H 0.13402 0.83002 0.56503 0.0
H628 H 0.11475 0.43062 0.56242 0.0
H629 H 0.12425 0.42731 0.5947 0.0
H630 H 0.10999 0.38821 0.58721 0.0
H631 H 0.09975 0.39148 0.5546 0.0
H632 H 0.07327 0.39737 0.61892 0.0
H633 H 0.22754 0.41345 0.61441 0.0
H634 H 0.19354 0.42442 0.60521 0.0
H635 H 0.1988 0.40957 0.59467 0.0
C636 C 0.11314 0.42131 0.56761 0.0
C637 C 0.1069 0.4113 0.55588 0.0
C638 C 0.11888 0.41943 0.58608 0.0
C639 C 0.11906 0.40749 0.5933 0.0
C640 C 0.11048 0.3975 0.58187 0.0
H641 H 0.16774 0.39112 0.709 0.0
H642 H 0.16288 0.38791 0.6761 0.0
C643 C 0.10441 0.39938 0.56328 0.0
C644 C 0.12924 0.40565 0.61268 0.0
H645 H 0.1989 0.41321 0.64417 0.0
C646 C 0.10104 0.40058 0.62441 0.0
C647 C 0.16569 0.40973 0.61984 0.0
C648 C 0.19829 0.41448 0.60784 0.0
C649 C 0.10739 0.40026 0.64322 0.0
C650 C 0.14278 0.40508 0.6504 0.0
C651 C 0.17173 0.40956 0.63862 0.0
C652 C 0.14828 0.40686 0.67012 0.0
C653 C 0.07552 0.39537 0.65546 0.0
C654 C 0.14264 0.4186 0.6775 0.0
C655 C 0.14524 0.42044 0.69614 0.0
C656 C 0.15396 0.4106 0.70784 0.0
C657 C 0.16123 0.3989 0.70034 0.0
C658 C 0.1582 0.39704 0.6816 0.0
H659 H 0.04933 0.39214 0.6478 0.0
H660 H 0.08722 0.38758 0.66356 0.0
H661 H 0.06618 0.40266 0.66507 0.0
H662 H 0.13517 0.4263 0.66884 0.0
H663 H 0.1396 0.42958 0.70142 0.0
H664 H 0.93707 0.15437 0.30919 0.0
H665 H 0.93291 0.15291 0.34233 0.0
H666 H 0.82574 0.17422 0.34148 0.0
H667 H 0.83039 0.17607 0.30888 0.0
H668 H 0.873 0.18283 0.36609 0.0
H669 H 0.86377 0.13219 0.37452 0.0
H670 H 0.90679 0.13718 0.36247 0.0
H671 H 0.85881 0.13959 0.35279 0.0
C672 C 0.91264 0.15871 0.31611 0.0
C673 C 0.88428 0.16541 0.30634 0.0
C674 C 0.91005 0.15777 0.33505 0.0
C675 C 0.87867 0.16332 0.34447 0.0
C676 C 0.85025 0.16986 0.33462 0.0
H677 H 0.81152 0.15419 0.45874 0.0
H678 H 0.81398 0.15294 0.42549 0.0
C679 C 0.85307 0.17093 0.31589 0.0
C680 C 0.87594 0.16305 0.3646 0.0
H681 H 0.87078 0.14405 0.40144 0.0
C682 C 0.87239 0.17432 0.37376 0.0
C683 C 0.87446 0.15197 0.37469 0.0
C684 C 0.87576 0.13953 0.36563 0.0
C685 C 0.86773 0.17486 0.39259 0.0
C686 C 0.86791 0.16382 0.40277 0.0
C687 C 0.87091 0.15251 0.39366 0.0
C688 C 0.86672 0.164 0.4229 0.0
C689 C 0.86196 0.18729 0.40134 0.0
C690 C 0.89586 0.17039 0.43248 0.0
C691 C 0.89422 0.17126 0.45127 0.0
C692 C 0.86374 0.16556 0.46111 0.0
C693 C 0.83517 0.15877 0.45158 0.0
C694 C 0.83665 0.15801 0.43261 0.0
H695 H 0.84996 0.19411 0.39159 0.0
H696 H 0.84168 0.18671 0.41308 0.0
H697 H 0.89082 0.19079 0.40615 0.0
H698 H 0.91994 0.1748 0.42539 0.0
H699 H 0.91721 0.17638 0.45809 0.0
H700 H 0.82898 0.61893 0.30797 0.0
H701 H 0.83481 0.62212 0.34084 0.0
H702 H 0.86578 0.58395 0.34774 0.0
H703 H 0.86032 0.58068 0.31519 0.0
H704 H 0.79958 0.59857 0.37298 0.0
H705 H 0.95344 0.61617 0.36795 0.0
H706 H 0.91637 0.62054 0.35165 0.0
H707 H 0.93529 0.60516 0.35166 0.0
C708 C 0.83634 0.61118 0.31654 0.0
C709 C 0.84429 0.59956 0.30895 0.0
C710 C 0.8399 0.61304 0.33527 0.0
C711 C 0.85108 0.60328 0.34662 0.0
C712 C 0.85735 0.5916 0.33916 0.0
H713 H 0.88167 0.57991 0.45474 0.0
H714 H 0.87162 0.58306 0.42246 0.0
C715 C 0.85414 0.58976 0.32055 0.0
C716 C 0.85751 0.60511 0.36625 0.0
H717 H 0.92991 0.61124 0.39708 0.0
C718 C 0.8278 0.60154 0.37829 0.0
C719 C 0.8943 0.60903 0.37308 0.0
C720 C 0.9269 0.61298 0.36052 0.0
C721 C 0.83441 0.60138 0.39704 0.0
C722 C 0.87209 0.60455 0.40387 0.0
C723 C 0.90118 0.60872 0.39184 0.0
C724 C 0.88238 0.60268 0.42323 0.0
C725 C 0.80105 0.59763 0.40935 0.0
C726 C 0.89426 0.61254 0.43427 0.0
C727 C 0.90066 0.61073 0.45285 0.0
C728 C 0.89522 0.59903 0.46062 0.0
C729 C 0.88562 0.58908 0.44926 0.0
C730 C 0.87955 0.59088 0.43079 0.0
H731 H 0.77197 0.59936 0.40295 0.0
H732 H 0.8032 0.58763 0.41218 0.0
H733 H 0.8023 0.60267 0.42241 0.0
H734 H 0.89712 0.62171 0.42865 0.0
H735 H 0.90793 0.61858 0.46124 0.0
H736 H 0.57083 0.34253 0.55894 0.0
H737 H 0.56457 0.34469 0.59151 0.0
H738 H 0.68672 0.3554 0.59505 0.0
H739 H 0.69263 0.35378 0.56195 0.0
H740 H 0.59885 0.33156 0.61576 0.0
H741 H 0.63874 0.38025 0.62847 0.0
H742 H 0.62919 0.37441 0.60604 0.0
H743 H 0.67631 0.37193 0.61658 0.0
C744 C 0.59637 0.34548 0.56659 0.0
C745 C 0.63235 0.3479 0.55788 0.0
C746 C 0.59269 0.34673 0.58526 0.0
C747 C 0.62503 0.35027 0.59586 0.0
C748 C 0.66102 0.35292 0.5872 0.0
H749 H 0.64939 0.33013 0.70757 0.0
H750 H 0.6514 0.33244 0.67496 0.0
C751 C 0.66452 0.3519 0.5683 0.0
C752 C 0.62118 0.35014 0.61597 0.0
H753 H 0.6339 0.3672 0.65443 0.0
C754 C 0.60629 0.33942 0.62414 0.0
C755 C 0.63029 0.36041 0.62701 0.0
C756 C 0.64414 0.37245 0.61908 0.0
C757 C 0.60077 0.33861 0.64289 0.0
C758 C 0.61163 0.34865 0.65401 0.0
C759 C 0.62581 0.35948 0.64591 0.0
C760 C 0.61054 0.34769 0.67408 0.0
C761 C 0.58293 0.327 0.65058 0.0
C762 C 0.58758 0.35573 0.68463 0.0
C763 C 0.5865 0.35449 0.70355 0.0
C764 C 0.60854 0.34522 0.7122 0.0
C765 C 0.63166 0.33731 0.70148 0.0
C766 C 0.63282 0.33858 0.68274 0.0
H767 H 0.56494 0.32207 0.64033 0.0
H768 H 0.60688 0.32072 0.65493 0.0
H769 H 0.56404 0.32903 0.66247 0.0
H770 H 0.57028 0.36288 0.67822 0.0
H771 H 0.56868 0.36081 0.71137 0.0
H772 H 0.66219 0.89226 0.70867 0.0
H773 H 0.65239 0.88927 0.67606 0.0
H774 H 0.62966 0.92811 0.66983 0.0
H775 H 0.63842 0.93108 0.70224 0.0
H776 H 0.57203 0.91419 0.65478 0.0
H777 H 0.71858 0.89744 0.63192 0.0
H778 H 0.69662 0.88888 0.65009 0.0
H779 H 0.71127 0.90458 0.6537 0.0
C780 C 0.65603 0.90019 0.70025 0.0
C781 C 0.65102 0.9119 0.70805 0.0
C782 C 0.65042 0.89848 0.6816 0.0
C783 C 0.64033 0.90847 0.67044 0.0
C784 C 0.63719 0.92024 0.67815 0.0
H785 H 0.60527 0.93063 0.56254 0.0
H786 H 0.61041 0.92769 0.59518 0.0
C787 C 0.64237 0.92193 0.6967 0.0
C788 C 0.63033 0.90678 0.65098 0.0
H789 H 0.6685 0.89874 0.60985 0.0
C790 C 0.59308 0.91071 0.645 0.0
C791 C 0.65762 0.90216 0.6382 0.0
C792 C 0.69839 0.8981 0.6437 0.0
C793 C 0.58292 0.91054 0.6266 0.0
C794 C 0.61065 0.90634 0.6138 0.0
C795 C 0.64724 0.90189 0.61977 0.0
C796 C 0.60395 0.9079 0.59411 0.0
C797 C 0.54293 0.91515 0.62088 0.0
C798 C 0.59792 0.89774 0.5827 0.0
C799 C 0.59435 0.89941 0.56394 0.0
C800 C 0.59759 0.91125 0.55635 0.0
C801 C 0.60262 0.92139 0.56795 0.0
C802 C 0.60559 0.91974 0.58661 0.0
H803 H 0.52199 0.91551 0.63241 0.0
H804 H 0.54595 0.92458 0.61527 0.0
H805 H 0.53038 0.90918 0.61013 0.0
H806 H 0.59668 0.88853 0.58827 0.0
H807 H 0.59094 0.89142 0.55533 0.0
H808 H 0.40829 0.64316 0.30803 0.0
H809 H 0.39774 0.64005 0.34063 0.0
H810 H 0.37087 0.67861 0.34672 0.0
H811 H 0.38063 0.68174 0.31441 0.0
H812 H 0.43019 0.65052 0.37208 0.0
H813 H 0.27202 0.66213 0.3665 0.0
H814 H 0.30226 0.65896 0.34698 0.0
H815 H 0.30295 0.67396 0.35732 0.0
C816 C 0.40076 0.651 0.31639 0.0
C817 C 0.39487 0.66267 0.30858 0.0
C818 C 0.39452 0.6492 0.33499 0.0
C819 C 0.38232 0.65903 0.34601 0.0
C820 C 0.37902 0.67081 0.3384 0.0
H821 H 0.36035 0.68048 0.45446 0.0
H822 H 0.3657 0.67744 0.42186 0.0
C823 C 0.38494 0.6726 0.31992 0.0
C824 C 0.37223 0.65713 0.3654 0.0
H825 H 0.29981 0.66285 0.39643 0.0
C826 C 0.40146 0.65297 0.37736 0.0
C827 C 0.33454 0.66022 0.37231 0.0
C828 C 0.30102 0.66394 0.36008 0.0
C829 C 0.3947 0.65256 0.39613 0.0
C830 C 0.35787 0.65639 0.40305 0.0
C831 C 0.32806 0.65996 0.39106 0.0
C832 C 0.35148 0.65807 0.42271 0.0
C833 C 0.42743 0.64861 0.40862 0.0
C834 C 0.34059 0.64821 0.43394 0.0
C835 C 0.33709 0.64993 0.4527 0.0
C836 C 0.34482 0.66152 0.46045 0.0
C837 C 0.35436 0.67142 0.44898 0.0
C838 C 0.3575 0.66972 0.43033 0.0
H839 H 0.45403 0.64555 0.40112 0.0
H840 H 0.43565 0.65639 0.4176 0.0
H841 H 0.41711 0.64096 0.41737 0.0
H842 H 0.3357 0.63915 0.42824 0.0
H843 H 0.32999 0.64211 0.46117 0.0
H844 H 0.39215 0.07972 0.45607 0.0
H845 H 0.38389 0.08262 0.42362 0.0
H846 H 0.39719 0.12184 0.4303 0.0
H847 H 0.40654 0.11894 0.46298 0.0
H848 H 0.3237 0.09518 0.40828 0.0
H849 H 0.46644 0.11548 0.38653 0.0
H850 H 0.46022 0.10812 0.40822 0.0
H851 H 0.44181 0.12342 0.40459 0.0
C852 C 0.39414 0.08896 0.45062 0.0
C853 C 0.40001 0.09911 0.46211 0.0
C854 C 0.38925 0.09061 0.43205 0.0
C855 C 0.38989 0.10244 0.42445 0.0
C856 C 0.3972 0.1126 0.43577 0.0
H857 H 0.33879 0.11849 0.30913 0.0
H858 H 0.34408 0.12148 0.34206 0.0
C859 C 0.40255 0.11093 0.45445 0.0
C860 C 0.38015 0.10397 0.40493 0.0
H861 H 0.41761 0.11299 0.36409 0.0
C862 C 0.34417 0.09917 0.39867 0.0
C863 C 0.40665 0.10927 0.39236 0.0
C864 C 0.44609 0.11429 0.39816 0.0
C865 C 0.33463 0.09913 0.3802 0.0
C866 C 0.36169 0.104 0.36761 0.0
C867 C 0.39687 0.10931 0.37384 0.0
C868 C 0.35596 0.10233 0.34787 0.0
C869 C 0.29607 0.09358 0.37419 0.0
C870 C 0.36047 0.09058 0.34034 0.0
C871 C 0.35773 0.08886 0.32168 0.0
C872 C 0.35012 0.09886 0.31009 0.0
C873 C 0.34429 0.11059 0.31771 0.0
C874 C 0.34758 0.11233 0.33647 0.0
H875 H 0.27489 0.09271 0.38557 0.0
H876 H 0.28247 0.09924 0.36334 0.0
H877 H 0.30156 0.08425 0.36861 0.0
H878 H 0.36712 0.08275 0.34889 0.0
H879 H 0.36237 0.07971 0.31628 0.0
H880 H 0.58484 0.86966 0.20839 0.0
H881 H 0.59054 0.87242 0.17544 0.0
H882 H 0.60929 0.83343 0.16907 0.0
H883 H 0.60412 0.83061 0.20172 0.0
H884 H 0.66278 0.86348 0.15391 0.0
H885 H 0.51991 0.84373 0.13171 0.0
H886 H 0.52732 0.85014 0.15401 0.0
H887 H 0.54566 0.83506 0.14872 0.0
C888 C 0.58941 0.86166 0.19991 0.0
C889 C 0.59398 0.84992 0.20766 0.0
C890 C 0.59294 0.86327 0.18113 0.0
C891 C 0.60028 0.85312 0.16985 0.0
C892 C 0.6034 0.84136 0.17752 0.0
H893 H 0.63958 0.82952 0.06242 0.0
H894 H 0.63061 0.83273 0.09477 0.0
C895 C 0.60044 0.83978 0.1962 0.0
C896 C 0.60668 0.85464 0.15013 0.0
H897 H 0.56981 0.84564 0.10932 0.0
C898 C 0.64224 0.85979 0.14407 0.0
C899 C 0.57987 0.84978 0.13741 0.0
C900 C 0.54085 0.84444 0.1432 0.0
C901 C 0.65266 0.85958 0.12563 0.0
C902 C 0.62644 0.85426 0.11296 0.0
C903 C 0.59008 0.84964 0.11902 0.0
C904 C 0.63684 0.85254 0.09356 0.0
C905 C 0.69245 0.86443 0.12003 0.0
C906 C 0.64458 0.86258 0.08208 0.0
C907 C 0.65033 0.86073 0.06346 0.0
C908 C 0.64778 0.84884 0.05603 0.0
C909 C 0.6416 0.83881 0.0677 0.0
C910 C 0.6363 0.84063 0.08621 0.0
H911 H 0.71238 0.86572 0.1318 0.0
H912 H 0.70679 0.8581 0.11026 0.0
H913 H 0.68865 0.87349 0.11333 0.0
H914 H 0.64454 0.87187 0.08736 0.0
H915 H 0.65454 0.86866 0.05479 0.0
H916 H 0.58868 0.39085 0.05877 0.0
H917 H 0.59873 0.38787 0.09138 0.0
H918 H 0.62128 0.42671 0.09757 0.0
H919 H 0.61222 0.42968 0.06518 0.0
H920 H 0.6792 0.41276 0.11253 0.0
H921 H 0.53275 0.39607 0.13566 0.0
H922 H 0.55461 0.38754 0.11743 0.0
H923 H 0.53986 0.40324 0.11389 0.0
C924 C 0.59486 0.39878 0.06718 0.0
C925 C 0.59972 0.4105 0.05937 0.0
C926 C 0.60062 0.39707 0.08583 0.0
C927 C 0.61074 0.40707 0.09698 0.0
C928 C 0.61374 0.41884 0.08927 0.0
H929 H 0.64842 0.42978 0.20448 0.0
H930 H 0.64326 0.42662 0.17189 0.0
C931 C 0.60839 0.42053 0.07072 0.0
C932 C 0.62087 0.4054 0.11644 0.0
H933 H 0.58283 0.39755 0.15768 0.0
C934 C 0.65817 0.40933 0.12235 0.0
C935 C 0.59363 0.40083 0.12929 0.0
C936 C 0.55284 0.39676 0.12385 0.0
C937 C 0.66842 0.40923 0.14074 0.0
C938 C 0.6407 0.40512 0.15363 0.0
C939 C 0.60408 0.40065 0.14772 0.0
C940 C 0.64748 0.40679 0.17331 0.0
C941 C 0.70854 0.41381 0.14636 0.0
C942 C 0.65219 0.39666 0.18494 0.0
C943 C 0.65575 0.39846 0.20368 0.0
C944 C 0.6538 0.41039 0.21105 0.0
C945 C 0.65009 0.42047 0.19925 0.0
C946 C 0.64712 0.41869 0.18061 0.0
H947 H 0.72956 0.41386 0.13485 0.0
H948 H 0.70584 0.42337 0.15151 0.0
H949 H 0.72081 0.40803 0.15739 0.0
H950 H 0.6524 0.38739 0.17955 0.0
H951 H 0.65811 0.3905 0.21244 0.0
H952 H 0.38973 0.18009 0.8162 0.0
H953 H 0.38051 0.17715 0.84859 0.0
H954 H 0.40277 0.13829 0.84248 0.0
H955 H 0.41303 0.14124 0.80989 0.0
H956 H 0.32241 0.16328 0.86345 0.0
H957 H 0.46846 0.14643 0.88683 0.0
H958 H 0.46158 0.15357 0.86503 0.0
H959 H 0.44668 0.13789 0.86859 0.0
C960 C 0.39349 0.17094 0.82177 0.0
C961 C 0.40213 0.1609 0.81045 0.0
C962 C 0.38804 0.16927 0.84031 0.0
C963 C 0.39091 0.15751 0.84804 0.0
C964 C 0.401 0.14749 0.83691 0.0
H965 H 0.34066 0.14078 0.96314 0.0
H966 H 0.34659 0.13777 0.93024 0.0
C967 C 0.40688 0.14918 0.81828 0.0
C968 C 0.3806 0.15584 0.86746 0.0
H969 H 0.41813 0.14786 0.90874 0.0
C970 C 0.3433 0.15981 0.8733 0.0
C971 C 0.40767 0.15122 0.88034 0.0
C972 C 0.44847 0.14711 0.87498 0.0
C973 C 0.33288 0.15969 0.89167 0.0
C974 C 0.36041 0.15551 0.90458 0.0
C975 C 0.39703 0.15101 0.89875 0.0
C976 C 0.35348 0.15714 0.92423 0.0
C977 C 0.29283 0.16434 0.89724 0.0
C978 C 0.35484 0.169 0.93164 0.0
C979 C 0.35176 0.17073 0.95028 0.0
C980 C 0.3469 0.16062 0.96196 0.0
C981 C 0.34392 0.14875 0.95447 0.0
C982 C 0.34761 0.14701 0.93573 0.0
H983 H 0.27202 0.16462 0.88566 0.0
H984 H 0.28017 0.15845 0.90806 0.0
H985 H 0.2958 0.17381 0.9027 0.0
H986 H 0.35956 0.17693 0.92301 0.0
H987 H 0.35422 0.17998 0.95562 0.0
H988 H 0.36668 0.5781 0.81416 0.0
H989 H 0.37508 0.58055 0.84669 0.0
H990 H 0.34452 0.61897 0.84225 0.0
H991 H 0.33494 0.61647 0.80956 0.0
H992 H 0.42907 0.59485 0.86287 0.0
H993 H 0.27973 0.60895 0.88558 0.0
H994 H 0.28874 0.60258 0.86343 0.0
H995 H 0.30051 0.6184 0.8681 0.0
C996 C 0.36096 0.58703 0.82012 0.0
C997 C 0.35005 0.59709 0.80925 0.0
C998 C 0.36595 0.58843 0.83875 0.0
C999 C 0.36039 0.59993 0.84701 0.0
C1000 C 0.34831 0.60994 0.8363 0.0
H1001 H 0.40848 0.61702 0.96216 0.0
H1002 H 0.40285 0.61974 0.92918 0.0
C1003 C 0.34285 0.60851 0.81759 0.0
C1004 C 0.36971 0.60141 0.86659 0.0
H1005 H 0.32985 0.60855 0.90775 0.0
C1006 C 0.40737 0.59792 0.87264 0.0
C1007 C 0.34156 0.60549 0.87939 0.0
C1008 C 0.30026 0.60898 0.87388 0.0
C1009 C 0.41722 0.59806 0.89108 0.0
C1010 C 0.38879 0.60181 0.90385 0.0
C1011 C 0.35166 0.60576 0.89785 0.0
C1012 C 0.39557 0.60034 0.92355 0.0
C1013 C 0.45767 0.59392 0.8969 0.0
C1014 C 0.39394 0.58854 0.93117 0.0
C1015 C 0.39684 0.58698 0.94986 0.0
C1016 C 0.4018 0.59718 0.96135 0.0
C1017 C 0.4051 0.60898 0.95364 0.0
C1018 C 0.40161 0.61055 0.93485 0.0
H1019 H 0.47858 0.59354 0.88536 0.0
H1020 H 0.46966 0.60021 0.90739 0.0
H1021 H 0.45557 0.58459 0.90293 0.0
H1022 H 0.38919 0.58055 0.92268 0.0
H1023 H 0.39417 0.57777 0.95537 0.0
H1024 H 0.96619 0.20406 0.23671 0.0
H1025 H 0.00231 0.22348 0.24007 0.0
H1026 H 0.89745 0.24097 0.26049 0.0
H1027 H 0.86125 0.22164 0.25733 0.0
H1028 H 0.9888 0.24733 0.22576 0.0
H1029 H 0.97861 0.2473 0.30066 0.0
H1030 H 0.96788 0.23385 0.28719 0.0
H1031 H 0.93213 0.24597 0.28924 0.0
C1032 C 0.95067 0.21207 0.24174 0.0
C1033 C 0.91082 0.21124 0.24683 0.0
C1034 C 0.97142 0.22316 0.2437 0.0
C1035 C 0.95284 0.23363 0.2509 0.0
C1036 C 0.91267 0.23296 0.25529 0.0
H1037 H 0.02693 0.30839 0.27704 0.0
H1038 H 0.99155 0.28884 0.2738 0.0
C1039 C 0.89191 0.2219 0.25332 0.0
C1040 C 0.97549 0.24519 0.25402 0.0
H1041 H 0.00488 0.26527 0.28703 0.0
C1042 C 0.99249 0.25123 0.23916 0.0
C1043 C 0.98025 0.25029 0.27152 0.0
C1044 C 0.96409 0.24399 0.28811 0.0
C1045 C 0.01338 0.26233 0.24126 0.0
C1046 C 0.0182 0.26743 0.25877 0.0
C1047 C 0.00122 0.26138 0.27362 0.0
C1048 C 0.04061 0.27905 0.26188 0.0
C1049 C 0.02919 0.26867 0.22462 0.0
C1050 C 0.0804 0.27997 0.25689 0.0
C1051 C 0.10069 0.29113 0.25874 0.0
C1052 C 0.08177 0.30161 0.26578 0.0
C1053 C 0.04245 0.30051 0.27158 0.0
C1054 C 0.02212 0.28934 0.26968 0.0
H1055 H 0.01407 0.26547 0.21215 0.0
H1056 H 0.02583 0.27881 0.22565 0.0
H1057 H 0.061 0.26655 0.2232 0.0
H1058 H 0.09566 0.2721 0.25129 0.0
H1059 H 0.13099 0.2916 0.25421 0.0
H1060 H 0.11545 0.97025 0.25757 0.0
H1061 H 0.15188 0.98957 0.2548 0.0
H1062 H 0.25291 0.97274 0.27998 0.0
H1063 H 0.2168 0.95328 0.28259 0.0
H1064 H 0.1879 1.00484 0.28001 0.0
H1065 H 0.29832 0.98561 0.23242 0.0
H1066 H 0.25337 0.97762 0.23807 0.0
H1067 H 0.29437 0.97745 0.25345 0.0
C1068 C 0.1453 0.97066 0.2627 0.0
C1069 C 0.16324 0.96016 0.27022 0.0
C1070 C 0.16613 0.98173 0.26107 0.0
C1071 C 0.20545 0.98256 0.26682 0.0
C1072 C 0.22292 0.97225 0.27505 0.0
H1073 H 0.38149 0.04063 0.26482 0.0
H1074 H 0.34508 0.02131 0.26769 0.0
C1075 C 0.20208 0.96116 0.2767 0.0
C1076 C 0.22812 0.99415 0.26392 0.0
H1077 H 0.30904 0.00602 0.24256 0.0
C1078 C 0.21432 1.00511 0.27178 0.0
C1079 C 0.26258 0.99452 0.25313 0.0
C1080 C 0.27794 0.98321 0.24363 0.0
C1081 C 0.23437 0.01634 0.26944 0.0
C1082 C 0.26882 0.01671 0.25864 0.0
C1083 C 0.28263 0.00575 0.25079 0.0
C1084 C 0.29145 0.0283 0.25572 0.0
C1085 C 0.21902 0.02765 0.27895 0.0
C1086 C 0.27393 0.0386 0.24747 0.0
C1087 C 0.29475 0.04969 0.24577 0.0
C1088 C 0.33363 0.0507 0.2522 0.0
C1089 C 0.35161 0.04021 0.25974 0.0
C1090 C 0.33079 0.02914 0.26143 0.0
H1091 H 0.19869 0.02524 0.29017 0.0
H1092 H 0.24358 0.03325 0.28448 0.0
H1093 H 0.20253 0.03341 0.26913 0.0
H1094 H 0.24391 0.03811 0.24257 0.0
H1095 H 0.28 0.05756 0.23986 0.0
H1096 H 0.1335 0.96967 0.01331 0.0
H1097 H 0.09899 0.98934 0.01574 0.0
H1098 H 0.99598 0.9732 0.99127 0.0
H1099 H 0.0305 0.95346 0.98861 0.0
H1100 H 0.01336 0.99693 0.97822 0.0
H1101 H 0.0131 0.99622 0.05324 0.0
H1102 H 0.06105 0.99468 0.04327 0.0
H1103 H 0.02485 0.98282 0.03987 0.0
C1104 C 0.10363 0.9703 1.00827 0.0
C1105 C 0.08475 0.95993 1.00083 0.0
C1106 C 0.0838 0.98156 0.00982 0.0
C1107 C 0.04455 0.9827 1.00409 0.0
C1108 C 0.02614 0.97252 0.99595 0.0
H1109 H 0.87021 0.04169 1.00392 0.0
H1110 H 0.90509 0.02209 1.0014 0.0
C1111 C 0.04597 0.96124 0.99438 0.0
C1112 C 0.02265 0.99446 1.00676 0.0
H1113 H 0.99059 0.01455 0.03923 0.0
C1114 C 0.00822 1.00075 0.99156 0.0
C1115 C 0.01598 0.99948 0.02418 0.0
C1116 C 0.02921 0.99292 0.0411 0.0
C1117 C 0.98802 0.01201 0.99326 0.0
C1118 C 0.98128 0.01702 0.01068 0.0
C1119 C 0.99575 0.01073 0.02588 0.0
C1120 C 0.95918 0.02875 0.01337 0.0
C1121 C 0.97488 0.01858 0.97633 0.0
C1122 C 0.97725 0.03891 0.02173 0.0
C1123 C 0.95717 0.05014 0.02337 0.0
C1124 C 0.91852 0.05143 0.01676 0.0
C1125 C 0.89999 0.04108 1.00909 0.0
C1126 C 0.92004 0.02987 1.00747 0.0
H1127 H 0.99131 0.01535 0.96423 0.0
H1128 H 0.94314 0.01673 0.97402 0.0
H1129 H 0.97893 0.02868 0.97762 0.0
H1130 H 0.00731 0.03824 0.02654 0.0
H1131 H 0.97237 0.05791 0.02934 0.0
H1132 H 0.38339 0.2191 1.00585 0.0
H1133 H 0.34807 0.23861 1.00304 0.0
H1134 H 0.24655 0.22245 0.02877 0.0
H1135 H 0.28191 0.20291 0.03186 0.0
H1136 H 0.2798 0.2426 0.98385 0.0
H1137 H 0.25721 0.25485 0.0559 0.0
H1138 H 0.2919 0.24322 0.04883 0.0
H1139 H 0.24022 0.23971 0.0501 0.0
C1140 C 0.35379 0.21974 0.01122 0.0
C1141 C 0.33559 0.20942 0.01916 0.0
C1142 C 0.33355 0.23091 0.00952 0.0
C1143 C 0.29471 0.23207 0.0158 0.0
C1144 C 0.27673 0.22188 0.02412 0.0
H1145 H 0.11803 0.28996 0.0119 0.0
H1146 H 0.15384 0.27055 0.01483 0.0
C1147 C 0.29699 0.21068 0.02584 0.0
C1148 C 0.27244 0.24373 0.01272 0.0
H1149 H 0.22233 0.26675 0.03424 0.0
C1150 C 0.26742 0.24792 0.99488 0.0
C1151 C 0.25614 0.25066 0.02708 0.0
C1152 C 0.26188 0.24697 0.04657 0.0
C1153 C 0.24603 0.2587 0.991 0.0
C1154 C 0.22969 0.26563 1.00537 0.0
C1155 C 0.23474 0.26144 0.02321 0.0
C1156 C 0.20723 0.27724 1.00227 0.0
C1157 C 0.24032 0.26241 0.97152 0.0
C1158 C 0.22509 0.28749 0.99403 0.0
C1159 C 0.20455 0.29863 0.99224 0.0
C1160 C 0.1658 0.29978 0.99877 0.0
C1161 C 0.14775 0.28942 1.00664 0.0
C1162 C 0.16826 0.2783 1.00841 0.0
H1163 H 0.24529 0.25456 0.96217 0.0
H1164 H 0.2102 0.26607 0.96924 0.0
H1165 H 0.26176 0.26975 0.96805 0.0
H1166 H 0.25535 0.28699 0.98947 0.0
H1167 H 0.21952 0.30644 0.98628 0.0
H1168 H 0.96864 0.70322 0.73768 0.0
H1169 H 0.00418 0.72275 0.7409 0.0
H1170 H 0.90087 0.7394 0.76429 0.0
H1171 H 0.8653 0.71995 0.76129 0.0
H1172 H 0.98876 0.7467 0.72789 0.0
H1173 H 0.98533 0.74549 0.80289 0.0
H1174 H 0.97358 0.73224 0.78919 0.0
H1175 H 0.93783 0.74425 0.79237 0.0
C1176 C 0.95332 0.71107 0.74332 0.0
C1177 C 0.91413 0.70996 0.74932 0.0
C1178 C 0.97374 0.72223 0.74521 0.0
C1179 C 0.95551 0.73248 0.75322 0.0
C1180 C 0.91589 0.73155 0.75847 0.0
H1181 H 0.03031 0.80711 0.78031 0.0
H1182 H 0.99473 0.78759 0.77698 0.0
C1183 C 0.89546 0.72042 0.75659 0.0
C1184 C 0.97798 0.74409 0.75629 0.0
H1185 H 0.00966 0.76377 0.78938 0.0
C1186 C 0.99349 0.7504 0.74134 0.0
C1187 C 0.98412 0.74895 0.77385 0.0
C1188 C 0.96968 0.74235 0.79053 0.0
C1189 C 0.01425 0.76154 0.74342 0.0
C1190 C 0.02045 0.76639 0.76098 0.0
C1191 C 0.00493 0.76007 0.77594 0.0
C1192 C 0.04297 0.778 0.76407 0.0
C1193 C 0.0285 0.76816 0.72672 0.0
C1194 C 0.08239 0.779 0.75852 0.0
C1195 C 0.1028 0.79013 0.76043 0.0
C1196 C 0.08437 0.80051 0.76807 0.0
C1197 C 0.04544 0.79932 0.77438 0.0
C1198 C 0.02501 0.78817 0.77243 0.0
H1199 H 0.01246 0.7651 0.71442 0.0
H1200 H 0.02495 0.77827 0.72813 0.0
H1201 H 0.06024 0.76616 0.72469 0.0
H1202 H 0.09726 0.77121 0.75245 0.0
H1203 H 0.13278 0.79067 0.7555 0.0
H1204 H 0.72013 0.95318 0.77904 0.0
H1205 H 0.7549 0.9729 0.77674 0.0
H1206 H 0.65265 0.98921 0.75185 0.0
H1207 H 0.61761 0.96965 0.75431 0.0
H1208 H 0.77261 0.98553 0.74522 0.0
H1209 H 0.68066 0.01476 0.78984 0.0
H1210 H 0.67779 0.99817 0.79005 0.0
H1211 H 0.65303 0.00684 0.77273 0.0
C1212 C 0.70477 0.96102 0.77339 0.0
C1213 C 0.66595 0.95981 0.76695 0.0
C1214 C 0.72477 0.97229 0.772 0.0
C1215 C 0.70633 0.98261 0.76429 0.0
C1216 C 0.66732 0.98148 0.75819 0.0
H1217 H 0.78012 0.05746 0.73725 0.0
H1218 H 0.74511 0.03777 0.73962 0.0
C1219 C 0.64733 0.97024 0.75956 0.0
C1220 C 0.7285 0.99434 0.76164 0.0
H1221 H 0.72715 0.02514 0.77122 0.0
C1222 C 0.7628 0.99418 0.75101 0.0
C1223 C 0.71562 0.00566 0.76907 0.0
C1224 C 0.67997 0.0064 0.7812 0.0
C1225 C 0.78414 1.00501 0.74738 0.0
C1226 C 0.77126 0.01633 0.75481 0.0
C1227 C 0.73695 0.01649 0.76543 0.0
C1228 C 0.7935 0.02804 0.75219 0.0
C1229 C 0.81979 1.00427 0.73525 0.0
C1230 C 0.83247 0.02915 0.75834 0.0
C1231 C 0.85259 0.04036 0.75694 0.0
C1232 C 0.83415 0.05079 0.74944 0.0
C1233 C 0.79535 0.04961 0.74297 0.0
C1234 C 0.77521 0.03837 0.7444 0.0
H1235 H 0.81911 0.99591 0.72661 0.0
H1236 H 0.82196 0.0125 0.7264 0.0
H1237 H 0.84673 1.00384 0.74372 0.0
H1238 H 0.84703 0.02142 0.76473 0.0
H1239 H 0.88229 0.04094 0.76221 0.0
H1240 H 0.6159 0.79006 0.0124 0.0
H1241 H 0.65207 0.77073 0.01569 0.0
H1242 H 0.75278 0.78698 0.98942 0.0
H1243 H 0.71693 0.80644 0.98627 0.0
H1244 H 0.68727 0.755 0.99079 0.0
H1245 H 0.79902 0.77477 0.03726 0.0
H1246 H 0.75406 0.78274 0.03156 0.0
H1247 H 0.79469 0.78263 0.01599 0.0
C1248 C 0.64562 0.78951 1.00715 0.0
C1249 C 0.66355 0.79986 0.99915 0.0
C1250 C 0.6663 0.77844 1.00908 0.0
C1251 C 0.70546 0.77745 1.00317 0.0
C1252 C 0.72291 0.78759 0.99448 0.0
H1253 H 0.88083 0.71926 1.00621 0.0
H1254 H 0.84462 0.73858 1.00308 0.0
C1255 C 0.70222 0.79869 0.99252 0.0
C1256 C 0.72799 0.76587 1.00635 0.0
H1257 H 0.80918 0.7542 0.02775 0.0
C1258 C 0.71385 0.75482 0.99891 0.0
C1259 C 0.76267 0.7656 0.01701 0.0
C1260 C 0.77841 0.77704 0.02607 0.0
C1261 C 0.73379 0.7436 1.00151 0.0
C1262 C 0.76846 0.74333 0.01217 0.0
C1263 C 0.78259 0.75438 0.01962 0.0
C1264 C 0.79105 0.73175 0.01533 0.0
C1265 C 0.71808 0.73218 0.99241 0.0
C1266 C 0.77354 0.72155 0.02383 0.0
C1267 C 0.79425 0.71045 0.02567 0.0
C1268 C 0.83303 0.70934 0.01914 0.0
C1269 C 0.85104 0.71975 0.01139 0.0
C1270 C 0.83032 0.73083 0.00955 0.0
H1271 H 0.69762 0.73446 0.98117 0.0
H1272 H 0.74245 0.72646 0.98697 0.0
H1273 H 0.70162 0.72659 1.00244 0.0
H1274 H 0.74361 0.72211 0.0288 0.0
H1275 H 0.77948 0.70264 0.03175 0.0
H1276 H 0.38202 0.54072 0.76057 0.0
H1277 H 0.34696 0.52112 0.76271 0.0
H1278 H 0.24345 0.53795 0.73974 0.0
H1279 H 0.27848 0.55761 0.73737 0.0
H1280 H 0.27938 0.5166 0.78274 0.0
H1281 H 0.25319 0.50633 0.71024 0.0
H1282 H 0.28845 0.5177 0.71764 0.0
H1283 H 0.23679 0.5213 0.71724 0.0
C1284 C 0.352 0.54023 0.75567 0.0
C1285 C 0.33316 0.55076 0.74871 0.0
C1286 C 0.33192 0.52901 0.75698 0.0
C1287 C 0.29262 0.528 0.75127 0.0
C1288 C 0.27396 0.53842 0.74395 0.0
H1289 H 0.11872 0.46911 0.75312 0.0
H1290 H 0.15332 0.48879 0.75093 0.0
C1291 C 0.29404 0.54967 0.74263 0.0
C1292 C 0.2707 0.51623 0.75391 0.0
H1293 H 0.22039 0.49362 0.73153 0.0
C1294 C 0.26663 0.51155 0.77153 0.0
C1295 C 0.25391 0.50964 0.73931 0.0
C1296 C 0.25852 0.51391 0.72002 0.0
C1297 C 0.24577 0.50059 0.77497 0.0
C1298 C 0.22906 0.49398 0.76037 0.0
C1299 C 0.2331 0.49868 0.74275 0.0
C1300 C 0.20735 0.48217 0.76299 0.0
C1301 C 0.24102 0.49637 0.79428 0.0
C1302 C 0.22598 0.47186 0.77067 0.0
C1303 C 0.20613 0.46057 0.77205 0.0
C1304 C 0.16731 0.45931 0.76563 0.0
C1305 C 0.14852 0.46972 0.75827 0.0
C1306 C 0.16834 0.48099 0.75693 0.0
H1307 H 0.24567 0.50404 0.804 0.0
H1308 H 0.21129 0.49241 0.79659 0.0
H1309 H 0.2632 0.48915 0.79723 0.0
H1310 H 0.2563 0.47243 0.77512 0.0
H1311 H 0.22166 0.45273 0.77762 0.0
H1312 H 0.96797 0.55761 0.53075 0.0
H1313 H 0.00387 0.53815 0.52747 0.0
H1314 H 0.90156 0.52154 0.50307 0.0
H1315 H 0.86565 0.54092 0.50612 0.0
H1316 H 0.98833 0.5141 0.53998 0.0
H1317 H 0.98733 0.51586 0.46499 0.0
H1318 H 0.97495 0.529 0.47881 0.0
H1319 H 0.93946 0.51696 0.47518 0.0
C1320 C 0.95295 0.54978 0.52486 0.0
C1321 C 0.91396 0.55088 0.5186 0.0
C1322 C 0.97357 0.53867 0.52295 0.0
C1323 C 0.95573 0.52845 0.51465 0.0
C1324 C 0.91628 0.52936 0.50912 0.0
H1325 H 0.03264 0.45413 0.48705 0.0
H1326 H 0.99643 0.47353 0.49049 0.0
C1327 C 0.89567 0.54045 0.51103 0.0
C1328 C 0.97844 0.5169 0.51155 0.0
H1329 H 0.01142 0.49752 0.47837 0.0
C1330 C 0.99353 0.5105 0.52651 0.0
C1331 C 0.98519 0.51218 0.49396 0.0
C1332 C 0.97123 0.51889 0.47728 0.0
C1333 C 0.01451 0.49942 0.5244 0.0
C1334 C 0.02132 0.49471 0.50681 0.0
C1335 C 0.0062 0.50111 0.49184 0.0
C1336 C 0.04417 0.48319 0.50369 0.0
C1337 C 0.02838 0.4927 0.54109 0.0
C1338 C 0.0835 0.48227 0.50939 0.0
C1339 C 0.10427 0.47122 0.50742 0.0
C1340 C 0.08628 0.46084 0.49957 0.0
C1341 C 0.04742 0.46193 0.49315 0.0
C1342 C 0.02663 0.47301 0.49515 0.0
H1343 H 0.01198 0.49566 0.55334 0.0
H1344 H 0.02497 0.4826 0.5395 0.0
H1345 H 0.06005 0.49472 0.54332 0.0
H1346 H 0.09803 0.49007 0.51561 0.0
H1347 H 0.13419 0.47075 0.51245 0.0
H1348 H 0.27845 0.70328 0.53066 0.0
H1349 H 0.24386 0.72299 0.52767 0.0
H1350 H 0.34706 0.73904 0.50325 0.0
H1351 H 0.38162 0.7194 0.50598 0.0
H1352 H 0.26049 0.74673 0.5404 0.0
H1353 H 0.26199 0.74567 0.4654 0.0
H1354 H 0.27378 0.73237 0.47897 0.0
H1355 H 0.3098 0.74428 0.47556 0.0
C1356 C 0.29394 0.71103 0.52483 0.0
C1357 C 0.33277 0.70971 0.51846 0.0
C1358 C 0.27407 0.7223 0.52308 0.0
C1359 C 0.29252 0.73243 0.51484 0.0
C1360 C 0.33184 0.73128 0.50923 0.0
H1361 H 0.22089 0.80757 0.48903 0.0
H1362 H 0.25581 0.78791 0.49208 0.0
C1363 C 0.3517 0.72004 0.51095 0.0
C1364 C 0.27058 0.74416 0.51193 0.0
H1365 H 0.23924 0.76409 0.47911 0.0
C1366 C 0.25568 0.75049 0.527 0.0
C1367 C 0.26431 0.7491 0.49443 0.0
C1368 C 0.27796 0.74246 0.47763 0.0
C1369 C 0.23541 0.76172 0.52508 0.0
C1370 C 0.22915 0.76665 0.50757 0.0
C1371 C 0.24406 0.76032 0.49251 0.0
C1372 C 0.20709 0.77835 0.50467 0.0
C1373 C 0.22166 0.76834 0.54186 0.0
C1374 C 0.16765 0.77942 0.51014 0.0
C1375 C 0.1476 0.79062 0.50837 0.0
C1376 C 0.16645 0.80101 0.50098 0.0
C1377 C 0.20544 0.79977 0.49478 0.0
C1378 C 0.2255 0.78854 0.49656 0.0
H1379 H 0.23753 0.76511 0.55412 0.0
H1380 H 0.2259 0.77844 0.54055 0.0
H1381 H 0.1898 0.76654 0.54388 0.0
H1382 H 0.15248 0.77162 0.51603 0.0
H1383 H 0.11756 0.7912 0.51322 0.0
H1384 H 0.77784 0.5576 0.23824 0.0
H1385 H 0.74297 0.53792 0.24107 0.0
H1386 H 0.84484 0.52193 0.2667 0.0
H1387 H 0.8797 0.54153 0.2641 0.0
H1388 H 0.76078 0.514 0.22869 0.0
H1389 H 0.75725 0.5156 0.30366 0.0
H1390 H 0.76959 0.52884 0.29005 0.0
H1391 H 0.80562 0.51703 0.29409 0.0
C1392 C 0.79299 0.54986 0.24431 0.0
C1393 C 0.83153 0.5512 0.25103 0.0
C1394 C 0.77296 0.53862 0.24596 0.0
C1395 C 0.79094 0.52851 0.25447 0.0
C1396 C 0.82998 0.52967 0.26048 0.0
H1397 H 0.71788 0.45361 0.2809 0.0
H1398 H 0.75273 0.47329 0.27799 0.0
C1399 C 0.85001 0.54088 0.25884 0.0
C1400 C 0.76881 0.5168 0.25724 0.0
H1401 H 0.7353 0.4971 0.28991 0.0
C1402 C 0.75504 0.51033 0.24207 0.0
C1403 C 0.76136 0.51199 0.27472 0.0
C1404 C 0.77388 0.51876 0.29159 0.0
C1405 C 0.73476 0.4991 0.24387 0.0
C1406 C 0.72726 0.49429 0.26136 0.0
C1407 C 0.74104 0.50076 0.27653 0.0
C1408 C 0.70513 0.48258 0.26414 0.0
C1409 C 0.72238 0.49232 0.22699 0.0
C1410 C 0.66627 0.48136 0.2579 0.0
C1411 C 0.64627 0.47014 0.25957 0.0
C1412 C 0.66456 0.45989 0.26765 0.0
C1413 C 0.70288 0.4613 0.27462 0.0
C1414 C 0.7229 0.47254 0.27291 0.0
H1415 H 0.73931 0.49542 0.21497 0.0
H1416 H 0.72641 0.48224 0.22858 0.0
H1417 H 0.69073 0.49412 0.22436 0.0
H1418 H 0.65152 0.48905 0.2515 0.0
H1419 H 0.61674 0.46943 0.25413 0.0
H1420 H 0.61526 0.28967 0.51136 0.0
H1421 H 0.65261 0.27058 0.51491 0.0
H1422 H 0.75702 0.28873 0.49519 0.0
H1423 H 0.71971 0.30787 0.49139 0.0
H1424 H 0.74675 0.2651 0.48087 0.0
H1425 H 0.73165 0.26432 0.55554 0.0
H1426 H 0.68562 0.26522 0.54366 0.0
H1427 H 0.7201 0.27775 0.54218 0.0
C1428 C 0.6461 0.2896 0.50761 0.0
C1429 C 0.66448 0.30036 0.50115 0.0
C1430 C 0.66752 0.27868 0.50981 0.0
C1431 C 0.70788 0.27827 0.50572 0.0
C1432 C 0.726 0.28884 0.4986 0.0
H1433 H 0.89001 0.22152 0.51102 0.0
H1434 H 0.8536 0.24083 0.50796 0.0
C1435 C 0.70457 0.29978 0.49639 0.0
C1436 C 0.73116 0.26683 0.50894 0.0
H1437 H 0.75953 0.24657 0.54191 0.0
C1438 C 0.74972 0.26109 0.49423 0.0
C1439 C 0.73505 0.26156 0.52639 0.0
C1440 C 0.71738 0.26757 0.54289 0.0
C1441 C 0.77128 0.25011 0.49639 0.0
C1442 C 0.77511 0.24484 0.51383 0.0
C1443 C 0.75661 0.25059 0.52855 0.0
C1444 C 0.79798 0.23331 0.517 0.0
C1445 C 0.78893 0.2441 0.47988 0.0
C1446 C 0.77939 0.22276 0.52393 0.0
C1447 C 0.80026 0.2117 0.52586 0.0
C1448 C 0.84028 0.21097 0.52101 0.0
C1449 C 0.85921 0.22171 0.51483 0.0
C1450 C 0.83833 0.23275 0.51291 0.0
H1451 H 0.77492 0.24743 0.46722 0.0
H1452 H 0.82078 0.24634 0.47921 0.0
H1453 H 0.78585 0.23393 0.48053 0.0
H1454 H 0.74836 0.22298 0.52733 0.0
H1455 H 0.78471 0.20362 0.53065 0.0
H1456 H 0.37072 0.21867 0.7638 0.0
H1457 H 0.40654 0.23807 0.76669 0.0
H1458 H 0.50942 0.22127 0.74309 0.0
H1459 H 0.47384 0.20171 0.74034 0.0
H1460 H 0.52553 0.2338 0.77506 0.0
H1461 H 0.43847 0.26345 0.72896 0.0
H1462 H 0.40927 0.25562 0.7456 0.0
H1463 H 0.43494 0.24687 0.72866 0.0
C1464 C 0.40076 0.21912 0.75892 0.0
C1465 C 0.41931 0.20861 0.75176 0.0
C1466 C 0.4212 0.23027 0.76053 0.0
C1467 C 0.4606 0.2312 0.75494 0.0
C1468 C 0.47899 0.2208 0.74744 0.0
H1469 H 0.63936 0.28866 0.75991 0.0
H1470 H 0.6035 0.26928 0.75694 0.0
C1471 C 0.45853 0.20963 0.74579 0.0
C1472 C 0.4832 0.24281 0.75791 0.0
H1473 H 0.48423 0.27359 0.74821 0.0
C1474 C 0.51665 0.24249 0.76909 0.0
C1475 C 0.47149 0.25418 0.75024 0.0
C1476 C 0.4368 0.25508 0.73756 0.0
C1477 C 0.53826 0.25321 0.77305 0.0
C1478 C 0.52658 0.26458 0.76536 0.0
C1479 C 0.49312 0.26491 0.75418 0.0
C1480 C 0.54916 0.2762 0.76834 0.0
C1481 C 0.57286 0.25231 0.78578 0.0
C1482 C 0.53063 0.28664 0.77565 0.0
C1483 C 0.5511 0.29781 0.77733 0.0
C1484 C 0.5905 0.29879 0.77159 0.0
C1485 C 0.60919 0.28824 0.76463 0.0
C1486 C 0.58872 0.2771 0.76296 0.0
H1487 H 0.57097 0.24398 0.79446 0.0
H1488 H 0.60042 0.25167 0.77778 0.0
H1489 H 0.57483 0.26056 0.7946 0.0
H1490 H 0.50009 0.2862 0.77984 0.0
H1491 H 0.53568 0.30575 0.78263 0.0
H1492 H 0.3695 0.04055 0.50629 0.0
H1493 H 0.4052 0.02112 0.50332 0.0
H1494 H 0.50694 0.03752 0.52856 0.0
H1495 H 0.47123 0.05698 0.53178 0.0
H1496 H 0.47362 0.01731 0.48385 0.0
H1497 H 0.49672 1.00509 0.55591 0.0
H1498 H 0.46164 0.01661 0.54885 0.0
H1499 H 0.51323 0.02027 0.55001 0.0
C1500 C 0.39925 0.03999 0.51151 0.0
C1501 C 0.41741 0.05035 0.51936 0.0
C1502 C 0.4197 0.02887 0.50972 0.0
C1503 C 0.45869 0.02779 0.51583 0.0
C1504 C 0.47666 0.03803 0.52403 0.0
H1505 H 0.63439 0.96955 0.51212 0.0
H1506 H 0.59926 0.98909 0.51491 0.0
C1507 C 0.4562 0.04918 0.52584 0.0
C1508 C 0.48106 0.01617 0.51271 0.0
H1509 H 0.53105 0.99311 0.53421 0.0
C1510 C 0.48603 0.01198 0.49487 0.0
C1511 C 0.49738 0.00923 0.52707 0.0
C1512 C 0.49175 0.01294 0.54655 0.0
C1513 C 0.50734 1.00119 0.49098 0.0
C1514 C 0.52362 0.99424 0.50534 0.0
C1515 C 0.51868 0.99843 0.52318 0.0
C1516 C 0.54577 0.98258 0.50224 0.0
C1517 C 0.51299 0.99749 0.47149 0.0
C1518 C 0.52764 0.97239 0.49398 0.0
C1519 C 0.54779 0.96117 0.49226 0.0
C1520 C 0.58641 0.95989 0.49891 0.0
C1521 C 0.60477 0.9702 0.50678 0.0
C1522 C 0.58464 0.98139 0.50847 0.0
H1523 H 0.50831 0.00537 0.46216 0.0
H1524 H 0.54299 0.99373 0.46922 0.0
H1525 H 0.49129 0.99023 0.46798 0.0
H1526 H 0.49744 0.97298 0.48936 0.0
H1527 H 0.53259 0.95341 0.48629 0.0
H1528 H 0.62763 0.79192 0.2533 0.0
H1529 H 0.59195 0.77244 0.2508 0.0
H1530 H 0.49074 0.78894 0.2763 0.0
H1531 H 0.5261 0.80855 0.27865 0.0
H1532 H 0.55717 0.75712 0.27632 0.0
H1533 H 0.44487 0.77565 0.22905 0.0
H1534 H 0.48958 0.78386 0.23442 0.0
H1535 H 0.44893 0.78393 0.24998 0.0
C1536 C 0.59789 0.7914 0.25855 0.0
C1537 C 0.57969 0.80185 0.26609 0.0
C1538 C 0.5775 0.78024 0.25707 0.0
C1539 C 0.53835 0.77927 0.263 0.0
C1540 C 0.52061 0.78953 0.27124 0.0
H1541 H 0.36455 0.72054 0.26229 0.0
H1542 H 0.40033 0.73999 0.26481 0.0
C1543 C 0.54101 0.80071 0.27273 0.0
C1544 C 0.51613 0.76756 0.26032 0.0
H1545 H 0.43526 0.75525 0.23945 0.0
C1546 C 0.53058 0.7567 0.26822 0.0
C1547 C 0.48146 0.76699 0.24969 0.0
C1548 C 0.46539 0.77819 0.24015 0.0
C1549 C 0.51096 0.74538 0.26609 0.0
C1550 C 0.47629 0.74481 0.25546 0.0
C1551 C 0.46184 0.75567 0.24756 0.0
C1552 C 0.45405 0.7331 0.25278 0.0
C1553 C 0.52702 0.73418 0.27565 0.0
C1554 C 0.47181 0.72281 0.24463 0.0
C1555 C 0.45135 0.71164 0.24314 0.0
C1556 C 0.41258 0.71054 0.24967 0.0
C1557 C 0.39435 0.72102 0.25712 0.0
C1558 C 0.41481 0.73217 0.25861 0.0
H1559 H 0.54745 0.73673 0.28678 0.0
H1560 H 0.50282 0.7285 0.28135 0.0
H1561 H 0.54359 0.72845 0.26584 0.0
H1562 H 0.50174 0.72338 0.23964 0.0
H1563 H 0.46629 0.70378 0.23729 0.0
H1564 H 0.52917 0.45171 0.98867 0.0
H1565 H 0.49378 0.4713 0.9912 0.0
H1566 H 0.59551 0.4878 0.0163 0.0
H1567 H 0.63117 0.46838 0.0136 0.0
H1568 H 0.47545 0.48372 0.02273 0.0
H1569 H 0.56696 0.51348 0.97869 0.0
H1570 H 0.57042 0.49691 0.97831 0.0
H1571 H 0.59474 0.50559 0.99576 0.0
C1572 C 0.54429 0.45957 0.99441 0.0
C1573 C 0.58315 0.45845 1.00083 0.0
C1574 C 0.52393 0.47076 0.99594 0.0
C1575 C 0.54204 0.48111 1.00378 0.0
C1576 C 0.58108 0.48007 0.00986 0.0
H1577 H 0.46652 0.55555 0.03187 0.0
H1578 H 0.50175 0.53592 0.02934 0.0
C1579 C 0.60143 0.4689 1.00835 0.0
C1580 C 0.51952 0.49275 1.00655 0.0
H1581 H 0.52021 0.52363 0.99746 0.0
C1582 C 0.4851 0.49243 0.01709 0.0
C1583 C 0.53217 0.50416 0.99931 0.0
C1584 C 0.56788 0.50508 0.98725 0.0
C1585 C 0.46347 0.50318 0.02086 0.0
C1586 C 0.47615 0.51459 0.01364 0.0
C1587 C 0.51056 0.51491 1.00309 0.0
C1588 C 0.45367 0.52623 0.01643 0.0
C1589 C 0.42769 0.50226 0.03287 0.0
C1590 C 0.41479 0.52734 0.01017 0.0
C1591 C 0.39454 0.53852 0.01166 0.0
C1592 C 0.41278 0.54892 0.01936 0.0
C1593 C 0.45145 0.54773 0.02599 0.0
C1594 C 0.47172 0.53652 0.02446 0.0
H1595 H 0.42838 0.49381 0.04134 0.0
H1596 H 0.4253 0.5104 0.0419 0.0
H1597 H 0.40085 0.50187 0.02433 0.0
H1598 H 0.40042 0.51964 1.00361 0.0
H1599 H 0.36495 0.53911 1.00627 0.0
H1600 H 0.0442 0.41561 0.44472 0.0
H1601 H 0.02891 0.40923 0.41375 0.0
H1602 H 0.03664 0.37115 0.42981 0.0
H1603 H 0.05132 0.37744 0.46076 0.0
H1604 H 0.08035 0.39621 0.39301 0.0
H1605 H 0.9402 0.37035 0.39754 0.0
H1606 H 0.95707 0.38045 0.41532 0.0
H1607 H 0.97655 0.36511 0.41338 0.0
C1608 C 0.04151 0.40588 0.4418 0.0
C1609 C 0.04903 0.39705 0.45528 0.0
C1610 C 0.03291 0.40224 0.42404 0.0
C1611 C 0.03129 0.38969 0.4194 0.0
C1612 C 0.03687 0.38087 0.43304 0.0
H1613 H 0.05008 0.34673 0.32133 0.0
H1614 H 0.03859 0.35405 0.35222 0.0
C1615 C 0.04547 0.3845 0.45078 0.0
C1616 C 0.02854 0.38586 0.40006 0.0
H1617 H 0.97822 0.36735 0.37055 0.0
C1618 C 0.05765 0.39005 0.38806 0.0
C1619 C -0.00079 0.37769 0.39359 0.0
C1620 C 0.96626 0.37322 0.40559 0.0
C1621 C 0.05898 0.38605 0.37 0.0
C1622 C 0.02987 0.37781 0.36354 0.0
C1623 C 0.00046 0.37369 0.37546 0.0
C1624 C 0.03061 0.37311 0.3446 0.0
C1625 C 0.09251 0.39036 0.35817 0.0
C1626 C 0.0281 0.38127 0.32992 0.0
C1627 C 0.03475 0.37713 0.31226 0.0
C1628 C 0.04369 0.36469 0.30885 0.0
C1629 C 0.04325 0.35637 0.32343 0.0
C1630 C 0.03677 0.36054 0.34114 0.0
H1631 H 0.11725 0.39417 0.36625 0.0
H1632 H 0.10392 0.3827 0.34971 0.0
H1633 H 0.08179 0.39773 0.34902 0.0
H1634 H 0.02252 0.39097 0.3322 0.0
H1635 H 0.03458 0.38379 0.30136 0.0
H1636 H 0.20393 0.91615 0.32318 0.0
H1637 H 0.21834 0.90979 0.35424 0.0
H1638 H 0.2172 0.87175 0.33764 0.0
H1639 H 0.20346 0.87802 0.30658 0.0
H1640 H 0.16806 0.89602 0.3743 0.0
H1641 H 0.31173 0.87206 0.37098 0.0
H1642 H 0.29432 0.88198 0.35309 0.0
H1643 H 0.2769 0.86637 0.35474 0.0
C1644 C 0.20787 0.90645 0.32602 0.0
C1645 C 0.20251 0.89761 0.31233 0.0
C1646 C 0.21597 0.90282 0.34383 0.0
C1647 C 0.21919 0.89028 0.34835 0.0
C1648 C 0.21572 0.88148 0.33452 0.0
H1649 H 0.20109 0.84684 0.4461 0.0
H1650 H 0.21296 0.85432 0.41532 0.0
C1651 C 0.20765 0.8851 0.31672 0.0
C1652 C 0.22149 0.88637 0.36767 0.0
H1653 H 0.27288 0.86843 0.39755 0.0
C1654 C 0.19132 0.89013 0.37943 0.0
C1655 C 0.25158 0.87857 0.37437 0.0
C1656 C 0.28568 0.8746 0.36268 0.0
C1657 C 0.18973 0.88606 0.39745 0.0
C1658 C 0.2196 0.87818 0.40413 0.0
C1659 C 0.25004 0.87449 0.39246 0.0
C1660 C 0.21868 0.87344 0.42305 0.0
C1661 C 0.15519 0.8899 0.409 0.0
C1662 C 0.21979 0.8816 0.43777 0.0
C1663 C 0.21296 0.87736 0.45537 0.0
C1664 C 0.20517 0.86483 0.45868 0.0
C1665 C 0.20699 0.85654 0.44408 0.0
C1666 C 0.21369 0.86081 0.42643 0.0
H1667 H 0.13036 0.89345 0.40073 0.0
H1668 H 0.14436 0.88207 0.41728 0.0
H1669 H 0.16461 0.89735 0.41832 0.0
H1670 H 0.2244 0.89135 0.43555 0.0
H1671 H 0.21202 0.88401 0.46628 0.0
H1672 H 0.0427 0.84505 0.82319 0.0
H1673 H 0.02866 0.8515 0.85424 0.0
H1674 H 0.03166 0.88952 0.83755 0.0
H1675 H 0.04498 0.88315 0.80651 0.0
H1676 H 0.0794 0.86501 0.87434 0.0
H1677 H 0.93718 0.88977 0.8708 0.0
H1678 H 0.95414 0.87976 0.85292 0.0
H1679 H 0.97236 0.89528 0.85461 0.0
C1680 C 0.03925 0.85477 0.82601 0.0
C1681 C 0.04499 0.86357 0.81229 0.0
C1682 C 0.03137 0.85846 0.84382 0.0
C1683 C 0.02875 0.87101 0.8483 0.0
C1684 C 0.03265 0.87978 0.83446 0.0
H1685 H 0.04923 0.91453 0.94588 0.0
H1686 H 0.03719 0.90705 0.9151 0.0
C1687 C 0.04049 0.87611 0.81666 0.0
C1688 C 0.02659 0.87496 0.86762 0.0
H1689 H 0.97622 0.89327 0.89736 0.0
C1690 C 0.05649 0.87104 0.87941 0.0
C1691 C 0.99696 0.88295 0.87426 0.0
C1692 C 0.96313 0.8871 0.86253 0.0
C1693 C 0.05826 0.87514 0.89742 0.0
C1694 C 0.02887 0.88322 0.90404 0.0
C1695 C 0.99869 0.88706 0.89232 0.0
C1696 C 0.03001 0.888 0.92293 0.0
C1697 C 0.09248 0.87111 0.90904 0.0
C1698 C 0.02818 0.87988 0.93768 0.0
C1699 C 0.03509 0.88412 0.95528 0.0
C1700 C 0.04371 0.8966 0.95855 0.0
C1701 C 0.04268 0.90486 0.94389 0.0
C1702 C 0.03588 0.9006 0.92625 0.0
H1703 H 0.11709 0.86736 0.90081 0.0
H1704 H 0.10381 0.87889 0.91727 0.0
H1705 H 0.08252 0.86376 0.91841 0.0
H1706 H 0.0229 0.87016 0.93551 0.0
H1707 H 0.03541 0.8775 0.96623 0.0
H1708 H 0.20706 0.41524 0.81997 0.0
H1709 H 0.22033 0.40898 0.85119 0.0
H1710 H 0.22176 0.37092 0.83469 0.0
H1711 H 0.2091 0.37709 0.80349 0.0
H1712 H 0.1693 0.39489 0.87061 0.0
H1713 H 0.31464 0.37182 0.86913 0.0
H1714 H 0.29777 0.38169 0.85108 0.0
H1715 H 0.28114 0.36599 0.85243 0.0
C1716 C 0.21134 0.40556 0.82288 0.0
C1717 C 0.20696 0.39668 0.80917 0.0
C1718 C 0.21879 0.40199 0.84077 0.0
C1719 C 0.22236 0.38948 0.84535 0.0
C1720 C 0.21997 0.38064 0.83152 0.0
H1721 H 0.2013 0.34601 0.94296 0.0
H1722 H 0.21444 0.35352 0.91229 0.0
C1723 C 0.21251 0.3842 0.81364 0.0
C1724 C 0.22377 0.3856 0.86469 0.0
H1725 H 0.27451 0.36801 0.89523 0.0
C1726 C 0.19263 0.38916 0.87604 0.0
C1727 C 0.25395 0.37799 0.87178 0.0
C1728 C 0.28896 0.37424 0.86052 0.0
C1729 C 0.19021 0.38508 0.89404 0.0
C1730 C 0.2202 0.3774 0.90111 0.0
C1731 C 0.25158 0.37391 0.88984 0.0
C1732 C 0.21847 0.37268 0.92002 0.0
C1733 C 0.15472 0.38869 0.90513 0.0
C1734 C 0.21819 0.38088 0.9347 0.0
C1735 C 0.21062 0.37662 0.95223 0.0
C1736 C 0.20348 0.36405 0.9555 0.0
C1737 C 0.20667 0.35575 0.94096 0.0
C1738 C 0.2141 0.36003 0.92339 0.0
H1739 H 0.13015 0.39206 0.89653 0.0
H1740 H 0.14394 0.3808 0.91329 0.0
H1741 H 0.16303 0.39621 0.91455 0.0
H1742 H 0.22229 0.39065 0.9325 0.0
H1743 H 0.20864 0.38328 0.9631 0.0
H1744 H 0.95553 0.62733 0.71512 0.0
H1745 H 0.96932 0.62011 0.68448 0.0
H1746 H 0.96106 0.65734 0.66465 0.0
H1747 H 0.94765 0.66467 0.69533 0.0
H1748 H 0.91624 0.6226 0.65675 0.0
H1749 H 0.05751 0.64457 0.63755 0.0
H1750 H 0.04126 0.6434 0.66075 0.0
H1751 H 0.02153 0.65515 0.64621 0.0
C1752 C 0.95762 0.63405 0.70434 0.0
C1753 C 0.95042 0.6466 0.70773 0.0
C1754 C 0.96543 0.62989 0.68679 0.0
C1755 C 0.9665 0.63817 0.67221 0.0
C1756 C 0.96116 0.65078 0.67567 0.0
H1757 H 0.95006 0.63337 0.55615 0.0
H1758 H 0.96196 0.63953 0.58745 0.0
C1759 C 0.95335 0.65496 0.69326 0.0
C1760 C 0.96873 0.63345 0.6533 0.0
H1761 H 0.0198 0.6357 0.61356 0.0
C1762 C 0.93919 0.62534 0.64738 0.0
C1763 C 0.99845 0.63711 0.641 0.0
C1764 C 0.03171 0.64545 0.6467 0.0
C1765 C 0.93784 0.62108 0.62945 0.0
C1766 C 0.96743 0.62478 0.61708 0.0
C1767 C 0.99726 0.6328 0.62303 0.0
C1768 C 0.96636 0.62094 0.59772 0.0
C1769 C 0.90371 0.61306 0.62374 0.0
C1770 C 0.96672 0.60843 0.59285 0.0
C1771 C 0.95975 0.60485 0.57491 0.0
C1772 C 0.95264 0.61373 0.56144 0.0
C1773 C 0.95529 0.62627 0.56614 0.0
C1774 C 0.96208 0.62982 0.58408 0.0
H1775 H 0.87887 0.61355 0.63349 0.0
H1776 H 0.89268 0.61576 0.61018 0.0
H1777 H 0.91362 0.60334 0.62305 0.0
H1778 H 0.9709 0.6014 0.60305 0.0
H1779 H 0.95812 0.59513 0.57179 0.0
H1780 H 0.79821 0.09768 0.69412 0.0
H1781 H 0.78645 0.10546 0.66348 0.0
H1782 H 0.78042 0.1425 0.68416 0.0
H1783 H 0.79261 0.13485 0.71474 0.0
H1784 H 0.72748 0.12055 0.64632 0.0
H1785 H 0.87368 0.14347 0.64862 0.0
H1786 H 0.85872 0.13215 0.66509 0.0
H1787 H 0.84082 0.14768 0.66661 0.0
C1788 C 0.79352 0.10745 0.69223 0.0
C1789 C 0.79676 0.11564 0.70692 0.0
C1790 C 0.78688 0.1119 0.67466 0.0
C1791 C 0.78341 0.1246 0.67144 0.0
C1792 C 0.78381 0.13269 0.68625 0.0
H1793 H 0.7997 0.1683 0.57269 0.0
H1794 H 0.78596 0.16163 0.60366 0.0
C1795 C 0.79054 0.12827 0.70377 0.0
C1796 C 0.78245 0.12946 0.65258 0.0
H1797 H 0.83518 0.14686 0.62263 0.0
C1798 C 0.75097 0.12632 0.64113 0.0
C1799 C 0.81315 0.13697 0.64576 0.0
C1800 C 0.84872 0.1402 0.65706 0.0
C1801 C 0.74917 0.13062 0.62315 0.0
C1802 C 0.78004 0.13807 0.61632 0.0
C1803 C 0.81132 0.14125 0.62784 0.0
C1804 C 0.78184 0.14226 0.5971 0.0
C1805 C 0.71395 0.12729 0.61174 0.0
C1806 C 0.78318 0.13366 0.58292 0.0
C1807 C 0.79084 0.13746 0.56516 0.0
C1808 C 0.7977 0.14995 0.56115 0.0
C1809 C 0.79441 0.15862 0.57522 0.0
C1810 C 0.78671 0.15481 0.59298 0.0
H1811 H 0.688 0.12498 0.62024 0.0
H1812 H 0.70586 0.13492 0.60247 0.0
H1813 H 0.72114 0.11907 0.60345 0.0
H1814 H 0.78038 0.12391 0.58571 0.0
H1815 H 0.79344 0.13051 0.55473 0.0
H1816 H 0.9459 0.16671 0.19384 0.0
H1817 H 0.95907 0.15903 0.16329 0.0
H1818 H 0.97317 0.12232 0.18437 0.0
H1819 H 0.95954 0.12986 0.21489 0.0
H1820 H 0.0207 0.14531 0.14618 0.0
H1821 H 0.88044 0.11902 0.14899 0.0
H1822 H 0.89289 0.13067 0.1654 0.0
H1823 H 0.91458 0.11561 0.16684 0.0
C1824 C 0.95265 0.15705 0.19206 0.0
C1825 C 0.95125 0.14889 0.20685 0.0
C1826 C 0.96009 0.15266 0.17454 0.0
C1827 C 0.96623 0.14005 0.17145 0.0
C1828 C 0.96769 0.13204 0.18635 0.0
H1829 H 0.95774 0.09669 0.07188 0.0
H1830 H 0.97051 0.10326 0.103 0.0
C1831 C 0.96015 0.1364 0.20384 0.0
C1832 C 0.96812 0.13515 0.15262 0.0
H1833 H 0.91891 0.11669 0.12276 0.0
C1834 C 0.99853 0.13902 0.14106 0.0
C1835 C 0.93914 0.12696 0.1459 0.0
C1836 C 0.90469 0.12288 0.15733 0.0
C1837 C 0.00089 0.13485 0.12304 0.0
C1838 C 0.97164 0.12676 0.11627 0.0
C1839 C 0.94153 0.1228 0.12793 0.0
C1840 C 0.97012 0.12275 0.09696 0.0
C1841 C 0.03496 0.13903 0.11149 0.0
C1842 C 0.96646 0.13148 0.08304 0.0
C1843 C 0.95935 0.12774 0.0652 0.0
C1844 C 0.95536 0.11518 0.06086 0.0
C1845 C 0.96083 0.10643 0.07467 0.0
C1846 C 0.96798 0.11018 0.09252 0.0
H1847 H 0.06061 0.14179 0.1199 0.0
H1848 H 0.04438 0.13169 0.10199 0.0
H1849 H 0.02578 0.14717 0.10346 0.0
H1850 H 0.9671 0.14122 0.08608 0.0
H1851 H 0.95503 0.13475 0.05498 0.0
H1852 H 0.78969 0.66559 0.07155 0.0
H1853 H 0.77621 0.65951 0.10283 0.0
H1854 H 0.7825 0.62127 0.08751 0.0
H1855 H 0.79511 0.62725 0.05619 0.0
H1856 H 0.72455 0.62563 0.11344 0.0
H1857 H 0.86692 0.64676 0.13361 0.0
H1858 H 0.83315 0.65721 0.12298 0.0
H1859 H 0.85323 0.64457 0.11027 0.0
C1860 C 0.78736 0.65589 0.07474 0.0
C1861 C 0.7939 0.64692 0.06134 0.0
C1862 C 0.77997 0.65242 0.09268 0.0
C1863 C 0.77935 0.63992 0.09764 0.0
C1864 C 0.78313 0.63097 0.08407 0.0
H1865 H 0.79361 0.59667 0.1959 0.0
H1866 H 0.78079 0.60385 0.16509 0.0
C1867 C 0.79033 0.63442 0.06612 0.0
C1868 C 0.77771 0.63616 0.11703 0.0
H1869 H 0.82842 0.63817 0.15685 0.0
C1870 C 0.74716 0.62841 0.12296 0.0
C1871 C 0.8074 0.63969 0.12945 0.0
C1872 C 0.84225 0.64742 0.12378 0.0
C1873 C 0.74534 0.62421 0.14098 0.0
C1874 C 0.77513 0.62771 0.15334 0.0
C1875 C 0.80541 0.63555 0.14743 0.0
C1876 C 0.77664 0.62311 0.17233 0.0
C1877 C 0.71133 0.61616 0.14667 0.0
C1878 C 0.77813 0.63149 0.18678 0.0
C1879 C 0.78559 0.62741 0.20441 0.0
C1880 C 0.79201 0.61484 0.20801 0.0
C1881 C 0.78851 0.60639 0.19367 0.0
C1882 C 0.78105 0.61049 0.17601 0.0
H1883 H 0.6858 0.61717 0.13739 0.0
H1884 H 0.72079 0.60639 0.14639 0.0
H1885 H 0.70167 0.61839 0.16063 0.0
H1886 H 0.77494 0.64127 0.18431 0.0
H1887 H 0.78813 0.63419 0.21508 0.0
H1888 H 0.53844 0.37533 0.96642 0.0
H1889 H 0.52653 0.36779 0.93576 0.0
H1890 H 0.5366 0.40477 0.91516 0.0
H1891 H 0.54807 0.41244 0.94589 0.0
H1892 H 0.47696 0.39019 0.89755 0.0
H1893 H 0.62103 0.36606 0.90096 0.0
H1894 H 0.58709 0.36212 0.91866 0.0
H1895 H 0.60645 0.3775 0.91733 0.0
C1896 C 0.5373 0.38192 0.95545 0.0
C1897 C 0.54459 0.39449 0.95865 0.0
C1898 C 0.53073 0.37757 0.93788 0.0
C1899 C 0.53157 0.38567 0.92309 0.0
C1900 C 0.53607 0.39833 0.92635 0.0
H1901 H 0.54562 0.38019 0.80653 0.0
H1902 H 0.53194 0.38668 0.83749 0.0
C1903 C 0.54254 0.40271 0.94396 0.0
C1904 C 0.5309 0.38083 0.90422 0.0
H1905 H 0.58338 0.3631 0.8746 0.0
C1906 C 0.50015 0.38425 0.89253 0.0
C1907 C 0.56123 0.37309 0.89762 0.0
C1908 C 0.59604 0.36954 0.9092 0.0
C1909 C 0.49873 0.38002 0.87451 0.0
C1910 C 0.52927 0.37235 0.86789 0.0
C1911 C 0.55979 0.36888 0.87966 0.0
C1912 C 0.5316 0.36826 0.84864 0.0
C1913 C 0.46426 0.38367 0.86282 0.0
C1914 C 0.53575 0.35571 0.84439 0.0
C1915 C 0.54384 0.35195 0.82664 0.0
C1916 C 0.54824 0.36068 0.81272 0.0
C1917 C 0.54217 0.37319 0.81684 0.0
C1918 C 0.53413 0.37694 0.8346 0.0
H1919 H 0.43812 0.38609 0.87112 0.0
H1920 H 0.47239 0.39189 0.85474 0.0
H1921 H 0.45603 0.37615 0.85337 0.0
H1922 H 0.53409 0.34883 0.85497 0.0
H1923 H 0.5485 0.34225 0.82401 0.0
H1924 H 0.69901 0.88273 0.96015 0.0
H1925 H 0.71204 0.88889 0.92895 0.0
H1926 H 0.72201 0.85077 0.91347 0.0
H1927 H 0.70815 0.84449 0.94464 0.0
H1928 H 0.77135 0.88503 0.9034 0.0
H1929 H 0.63123 0.86293 0.88213 0.0
H1930 H 0.64395 0.86517 0.90557 0.0
H1931 H 0.66548 0.85273 0.89295 0.0
C1932 C 0.70468 0.87563 0.95021 0.0
C1933 C 0.70207 0.8631 0.95491 0.0
C1934 C 0.71212 0.87919 0.93233 0.0
C1935 C 0.71709 0.87031 0.91874 0.0
C1936 C 0.71735 0.8578 0.92362 0.0
H1937 H 0.71009 0.87675 0.8013 0.0
H1938 H 0.72321 0.86949 0.83198 0.0
C1939 C 0.70975 0.85422 0.94151 0.0
C1940 C 0.71906 0.87415 0.89939 0.0
H1941 H 0.66958 0.872 0.85926 0.0
C1942 C 0.7492 0.88214 0.89372 0.0
C1943 C 0.69 0.87046 0.88675 0.0
C1944 C 0.65561 0.86245 0.89213 0.0
C1945 C 0.75123 0.88644 0.87576 0.0
C1946 C 0.722 0.88281 0.86318 0.0
C1947 C 0.69215 0.87473 0.86883 0.0
C1948 C 0.72057 0.88755 0.84425 0.0
C1949 C 0.78484 0.89474 0.87036 0.0
C1950 C 0.71568 0.90018 0.84077 0.0
C1951 C 0.7083 0.90438 0.82315 0.0
C1952 C 0.70532 0.89603 0.80867 0.0
C1953 C 0.71222 0.88346 0.81208 0.0
C1954 C 0.71963 0.87928 0.82966 0.0
H1955 H 0.81029 0.89377 0.8797 0.0
H1956 H 0.79483 0.89273 0.85637 0.0
H1957 H 0.77483 0.90446 0.87087 0.0
H1958 H 0.71548 0.90674 0.8518 0.0
H1959 H 0.7028 0.9141 0.82107 0.0
H1960 H 0.54669 0.8777 0.46001 0.0
H1961 H 0.53345 0.87184 0.4287 0.0
H1962 H 0.52641 0.91012 0.41374 0.0
H1963 H 0.5405 0.91609 0.44501 0.0
H1964 H 0.47473 0.87627 0.4031 0.0
H1965 H 0.61657 0.89754 0.38243 0.0
H1966 H 0.60345 0.89525 0.40581 0.0
H1967 H 0.58294 0.90791 0.39331 0.0
C1968 C 0.54163 0.8849 0.45016 0.0
C1969 C 0.54513 0.89739 0.45504 0.0
C1970 C 0.53406 0.88152 0.43222 0.0
C1971 C 0.52986 0.89052 0.41875 0.0
C1972 C 0.53047 0.903 0.4238 0.0
H1973 H 0.53729 0.88485 0.30126 0.0
H1974 H 0.52419 0.89196 0.33202 0.0
C1975 C 0.53821 0.9064 0.44175 0.0
C1976 C 0.5278 0.88682 0.39934 0.0
H1977 H 0.57776 0.88891 0.35934 0.0
C1978 C 0.49715 0.87908 0.3935 0.0
C1979 C 0.55722 0.89039 0.38681 0.0
C1980 C 0.59212 0.89813 0.39238 0.0
C1981 C 0.495 0.8749 0.37548 0.0
C1982 C 0.52457 0.87843 0.36301 0.0
C1983 C 0.55492 0.88627 0.36884 0.0
C1984 C 0.52586 0.87381 0.34403 0.0
C1985 C 0.4609 0.86686 0.36989 0.0
C1986 C 0.53017 0.86118 0.34038 0.0
C1987 C 0.53755 0.85706 0.32272 0.0
C1988 C 0.5411 0.8655 0.30837 0.0
C1989 C 0.53472 0.87807 0.31194 0.0
C1990 C 0.52732 0.88217 0.32956 0.0
H1991 H 0.43547 0.8679 0.37922 0.0
H1992 H 0.4511 0.86906 0.35594 0.0
H1993 H 0.47031 0.85708 0.37022 0.0
H1994 H 0.52993 0.85455 0.35131 0.0
H1995 H 0.54262 0.84734 0.32051 0.0
H1996 H 0.70179 0.34449 0.44599 0.0
H1997 H 0.71515 0.35203 0.41543 0.0
H1998 H 0.72256 0.38916 0.43574 0.0
H1999 H 0.70875 0.38172 0.46627 0.0
H2000 H 0.66945 0.38686 0.40828 0.0
H2001 H 0.81014 0.36511 0.3879 0.0
H2002 H 0.77454 0.35437 0.39645 0.0
H2003 H 0.79439 0.36599 0.41119 0.0
C2004 C 0.70741 0.35422 0.44407 0.0
C2005 C 0.70409 0.36249 0.45864 0.0
C2006 C 0.71517 0.35853 0.42654 0.0
C2007 C 0.72012 0.37118 0.42322 0.0
C2008 C 0.71894 0.37936 0.43792 0.0
H2009 H 0.70901 0.41462 0.32307 0.0
H2010 H 0.7223 0.40825 0.35426 0.0
C2011 C 0.71115 0.37507 0.45542 0.0
C2012 C 0.72179 0.37602 0.40435 0.0
H2013 H 0.77134 0.37392 0.36417 0.0
C2014 C 0.69206 0.38416 0.39872 0.0
C2015 C 0.75105 0.37242 0.39178 0.0
C2016 C 0.78457 0.36408 0.39714 0.0
C2017 C 0.69005 0.38849 0.38083 0.0
C2018 C 0.71913 0.38482 0.36819 0.0
C2019 C 0.74917 0.37679 0.37385 0.0
C2020 C 0.7173 0.38873 0.34886 0.0
C2021 C 0.65577 0.39655 0.37547 0.0
C2022 C 0.71244 0.37989 0.33519 0.0
C2023 C 0.70531 0.3835 0.3173 0.0
C2024 C 0.70294 0.39605 0.31266 0.0
C2025 C 0.71044 0.40488 0.32615 0.0
C2026 C 0.71772 0.40125 0.34404 0.0
H2027 H 0.63133 0.39606 0.38543 0.0
H2028 H 0.66576 0.40627 0.37473 0.0
H2029 H 0.64416 0.39389 0.36199 0.0
H2030 H 0.71225 0.37017 0.33851 0.0
H2031 H 0.69977 0.37643 0.30729 0.0
H2032 H 0.44831 0.66436 0.19527 0.0
H2033 H 0.46072 0.65657 0.1647 0.0
H2034 H 0.47139 0.61973 0.18576 0.0
H2035 H 0.45849 0.62738 0.21627 0.0
H2036 H 0.52089 0.64226 0.14751 0.0
H2037 H 0.37814 0.61734 0.15053 0.0
H2038 H 0.39186 0.62887 0.16691 0.0
H2039 H 0.41195 0.61359 0.16837 0.0
C2040 C 0.45416 0.65464 0.19347 0.0
C2041 C 0.45198 0.64649 0.20824 0.0
C2042 C 0.46116 0.65019 0.17595 0.0
C2043 C 0.46609 0.63752 0.17285 0.0
C2044 C 0.46683 0.62951 0.18774 0.0
H2045 H 0.45368 0.5938 0.07383 0.0
H2046 H 0.46719 0.60047 0.10485 0.0
C2047 C 0.45969 0.63392 0.20523 0.0
C2048 C 0.4674 0.6326 0.15404 0.0
H2049 H 0.41645 0.61447 0.12436 0.0
C2050 C 0.49814 0.63616 0.14244 0.0
C2051 C 0.43764 0.62466 0.14739 0.0
C2052 C 0.40281 0.62095 0.15886 0.0
C2053 C 0.50008 0.63189 0.12446 0.0
C2054 C 0.4701 0.62403 0.11778 0.0
C2055 C 0.43963 0.6204 0.12947 0.0
C2056 C 0.46824 0.61992 0.09853 0.0
C2057 C 0.53447 0.63573 0.11285 0.0
C2058 C 0.46516 0.62858 0.08451 0.0
C2059 C 0.45761 0.62479 0.06673 0.0
C2060 C 0.45261 0.61223 0.06258 0.0
C2061 C 0.45754 0.60353 0.07649 0.0
C2062 C 0.46512 0.60734 0.09427 0.0
H2063 H 0.56033 0.63835 0.12122 0.0
H2064 H 0.5433 0.62824 0.10347 0.0
H2065 H 0.52593 0.64387 0.10468 0.0
H2066 H 0.46658 0.63834 0.08742 0.0
H2067 H 0.45374 0.63176 0.05642 0.0
H2068 H 0.28971 0.13345 0.21697 0.0
H2069 H 0.27603 0.14068 0.18633 0.0
H2070 H 0.28168 0.10336 0.16669 0.0
H2071 H 0.29492 0.09602 0.19738 0.0
H2072 H 0.32913 0.13783 0.15887 0.0
H2073 H 0.18693 0.11671 0.13909 0.0
H2074 H 0.20285 0.11775 0.16235 0.0
H2075 H 0.22202 0.10589 0.14786 0.0
C2076 C 0.28698 0.12672 0.20625 0.0
C2077 C 0.2935 0.11414 0.20968 0.0
C2078 C 0.27925 0.13089 0.18869 0.0
C2079 C 0.27761 0.12259 0.17415 0.0
C2080 C 0.28204 0.10995 0.17768 0.0
H2081 H 0.29726 0.12698 0.05818 0.0
H2082 H 0.2844 0.12097 0.08946 0.0
C2083 C 0.28973 0.10576 0.19527 0.0
C2084 C 0.27606 0.12728 0.15521 0.0
H2085 H 0.22586 0.12522 0.11521 0.0
C2086 C 0.30623 0.1352 0.1494 0.0
C2087 C 0.24642 0.12377 0.14277 0.0
C2088 C 0.2125 0.11565 0.14834 0.0
C2089 C 0.30829 0.1394 0.13146 0.0
C2090 C 0.27879 0.13584 0.11895 0.0
C2091 C 0.24833 0.12802 0.12478 0.0
C2092 C 0.28062 0.13962 0.09958 0.0
C2093 C 0.34302 0.14721 0.12589 0.0
C2094 C 0.28099 0.15211 0.09462 0.0
C2095 C 0.28851 0.1556 0.07669 0.0
C2096 C 0.29545 0.14664 0.06332 0.0
C2097 C 0.29218 0.13414 0.0681 0.0
C2098 C 0.28483 0.13067 0.08603 0.0
H2099 H 0.36756 0.14662 0.1358 0.0
H2100 H 0.35427 0.1444 0.11242 0.0
H2101 H 0.33368 0.15698 0.12506 0.0
H2102 H 0.27691 0.15919 0.10476 0.0
H2103 H 0.29062 0.16531 0.0735 0.0
H2104 H 0.45179 0.16343 0.69725 0.0
H2105 H 0.46402 0.15612 0.66641 0.0
H2106 H 0.47728 0.11907 0.68637 0.0
H2107 H 0.46453 0.12625 0.71715 0.0
H2108 H 0.52462 0.1424 0.64857 0.0
H2109 H 0.38347 0.1166 0.65151 0.0
H2110 H 0.39685 0.12797 0.66817 0.0
H2111 H 0.41792 0.11281 0.66906 0.0
C2112 C 0.45815 0.15376 0.69515 0.0
C2113 C 0.45674 0.14541 0.70969 0.0
C2114 C 0.46507 0.14959 0.67748 0.0
C2115 C 0.47068 0.137 0.67401 0.0
C2116 C 0.47218 0.12879 0.68866 0.0
H2117 H 0.45796 0.0948 0.5736 0.0
H2118 H 0.47232 0.10101 0.60474 0.0
C2119 C 0.46513 0.13293 0.70629 0.0
C2120 C 0.47187 0.13234 0.65506 0.0
H2121 H 0.42125 0.11438 0.62505 0.0
C2122 C 0.50211 0.13625 0.64342 0.0
C2123 C 0.44242 0.12433 0.6483 0.0
C2124 C 0.4081 0.12024 0.65982 0.0
C2125 C 0.50384 0.13227 0.62529 0.0
C2126 C 0.47415 0.12435 0.61852 0.0
C2127 C 0.44421 0.12036 0.63023 0.0
C2128 C 0.47196 0.12056 0.59914 0.0
C2129 C 0.53768 0.13649 0.61364 0.0
C2130 C 0.46784 0.12945 0.58547 0.0
C2131 C 0.45979 0.12591 0.56763 0.0
C2132 C 0.45532 0.11341 0.56306 0.0
C2133 C 0.46137 0.1045 0.57659 0.0
C2134 C 0.46944 0.10805 0.59444 0.0
H2135 H 0.56362 0.13912 0.62194 0.0
H2136 H 0.54669 0.12921 0.60394 0.0
H2137 H 0.52845 0.14471 0.6058 0.0
H2138 H 0.46878 0.13916 0.58874 0.0
H2139 H 0.45507 0.13304 0.55762 0.0
H2140 H 0.30335 0.59639 0.69611 0.0
H2141 H 0.29092 0.60384 0.66536 0.0
H2142 H 0.27946 0.64087 0.68558 0.0
H2143 H 0.29228 0.63356 0.71629 0.0
H2144 H 0.22953 0.61791 0.64824 0.0
H2145 H 0.37206 0.64303 0.64976 0.0
H2146 H 0.3591 0.6316 0.66643 0.0
H2147 H 0.33871 0.64684 0.66776 0.0
C2148 C 0.29743 0.60609 0.69409 0.0
C2149 C 0.2992 0.61438 0.70869 0.0
C2150 C 0.29038 0.61034 0.67647 0.0
C2151 C 0.28508 0.62296 0.67309 0.0
C2152 C 0.28426 0.63113 0.68779 0.0
H2153 H 0.2942 0.66552 0.57291 0.0
H2154 H 0.28193 0.65922 0.60419 0.0
C2155 C 0.29136 0.62691 0.70538 0.0
C2156 C 0.28317 0.62766 0.65417 0.0
H2157 H 0.33303 0.64547 0.62371 0.0
C2158 C 0.25208 0.62396 0.64287 0.0
C2159 C 0.31264 0.63555 0.64713 0.0
C2160 C 0.34773 0.63943 0.6583 0.0
C2161 C 0.2495 0.62802 0.62481 0.0
C2162 C 0.27922 0.63581 0.61773 0.0
C2163 C 0.31006 0.63959 0.62912 0.0
C2164 C 0.2804 0.6397 0.59837 0.0
C2165 C 0.21471 0.62405 0.61355 0.0
C2166 C 0.28278 0.63088 0.58453 0.0
C2167 C 0.28959 0.63446 0.5666 0.0
C2168 C 0.29456 0.64696 0.5621 0.0
C2169 C 0.29035 0.65582 0.57584 0.0
C2170 C 0.28349 0.65223 0.59378 0.0
H2171 H 0.18911 0.62157 0.62217 0.0
H2172 H 0.20559 0.63141 0.60402 0.0
H2173 H 0.22291 0.61579 0.60558 0.0
H2174 H 0.28139 0.62115 0.58769 0.0
H2175 H 0.29293 0.62737 0.55643 0.0
H2176 H 0.25445 0.34042 0.27803 0.0
H2177 H 0.31931 0.34986 0.28298 0.0
H2178 H 0.26553 0.3858 0.28401 0.0
H2179 H 0.20115 0.37655 0.27954 0.0
H2180 H 0.35558 0.36604 0.26036 0.0
H2181 H 0.33708 0.38805 0.3273 0.0
H2182 H 0.3034 0.37654 0.31888 0.0
H2183 H 0.29887 0.39233 0.31179 0.0
C2184 C 0.25641 0.3503 0.27967 0.0
C2185 C 0.22254 0.3577 0.27837 0.0
C2186 C 0.29347 0.35569 0.28246 0.0
C2187 C 0.29724 0.36854 0.28415 0.0
C2188 C 0.26336 0.37587 0.28323 0.0
H2189 H 0.4903 0.42092 0.27503 0.0
H2190 H 0.42527 0.41117 0.27826 0.0
C2191 C 0.22649 0.37053 0.28049 0.0
C2192 C 0.33665 0.37444 0.28526 0.0
H2193 H 0.39124 0.39527 0.30929 0.0
C2194 C 0.36352 0.37231 0.27118 0.0
C2195 C 0.34692 0.38272 0.29931 0.0
C2196 C 0.32018 0.38496 0.31526 0.0
C2197 C 0.39991 0.37842 0.27055 0.0
C2198 C 0.40986 0.38682 0.28442 0.0
C2199 C 0.38328 0.3889 0.29859 0.0
C2200 C 0.44851 0.39314 0.28458 0.0
C2201 C 0.42726 0.37603 0.25485 0.0
C2202 C 0.4828 0.38631 0.28768 0.0
C2203 C 0.5197 0.39181 0.28589 0.0
C2204 C 0.52317 0.40429 0.28097 0.0
C2205 C 0.48866 0.4113 0.27882 0.0
C2206 C 0.45154 0.40575 0.28063 0.0
H2207 H 0.41219 0.37118 0.24358 0.0
H2208 H 0.4397 0.3848 0.24967 0.0
H2209 H 0.45215 0.3702 0.25948 0.0
H2210 H 0.48102 0.3766 0.29096 0.0
H2211 H 0.54559 0.38614 0.28785 0.0
H2212 H 0.75297 0.84029 0.27785 0.0
H2213 H 0.8179 0.84958 0.28316 0.0
H2214 H 0.76429 0.88551 0.28598 0.0
H2215 H 0.69984 0.87639 0.28112 0.0
H2216 H 0.85387 0.86629 0.26116 0.0
H2217 H 0.83642 0.88676 0.32921 0.0
H2218 H 0.80265 0.87542 0.32034 0.0
H2219 H 0.79794 0.89136 0.31403 0.0
C2220 C 0.75498 0.85013 0.27996 0.0
C2221 C 0.72114 0.85757 0.27904 0.0
C2222 C 0.79208 0.85544 0.28295 0.0
C2223 C 0.79592 0.86824 0.28525 0.0
C2224 C 0.76207 0.8756 0.28472 0.0
H2225 H 0.98771 0.9211 0.27832 0.0
H2226 H 0.92309 0.9111 0.28152 0.0
C2227 C 0.72516 0.87034 0.28176 0.0
C2228 C 0.83536 0.87411 0.28653 0.0
H2229 H 0.89025 0.8944 0.31137 0.0
C2230 C 0.86199 0.87231 0.27226 0.0
C2231 C 0.84584 0.88206 0.30094 0.0
C2232 C 0.81934 0.88392 0.31708 0.0
C2233 C 0.89832 0.87846 0.27178 0.0
C2234 C 0.9085 0.88654 0.28603 0.0
C2235 C 0.88216 0.88828 0.3004 0.0
C2236 C 0.94702 0.89294 0.28631 0.0
C2237 C 0.92532 0.87647 0.25583 0.0
C2238 C 0.98162 0.8861 0.28858 0.0
C2239 C 0.0183 0.89175 0.2868 0.0
C2240 C 0.02124 0.90438 0.28272 0.0
C2241 C 0.98648 0.91137 0.28145 0.0
C2242 C 0.94959 0.90567 0.28324 0.0
H2243 H 0.90993 0.87196 0.24435 0.0
H2244 H 0.93777 0.88536 0.25111 0.0
H2245 H 0.9502 0.87049 0.26 0.0
H2246 H 0.98022 0.8763 0.29119 0.0
H2247 H 0.04441 0.88609 0.28808 0.0
H2248 H 0.25564 0.92037 0.98823 0.0
H2249 H 0.31992 0.91061 0.9831 0.0
H2250 H 0.2644 0.87491 0.9827 0.0
H2251 H 0.20057 0.88448 0.98737 0.0
H2252 H 0.35587 0.89435 1.00575 0.0
H2253 H 0.33492 0.87214 0.9391 0.0
H2254 H 0.30201 0.88386 0.94755 0.0
H2255 H 0.29683 0.86812 0.95483 0.0
C2256 C 0.25708 0.91047 0.9867 0.0
C2257 C 0.22289 0.90324 0.98823 0.0
C2258 C 0.29382 0.9049 0.9838 0.0
C2259 C 0.29693 0.89203 0.98223 0.0
C2260 C 0.26273 0.88486 0.98339 0.0
H2261 H 0.48774 0.83885 0.99114 0.0
H2262 H 0.4231 0.84884 0.98786 0.0
C2263 C 0.22618 0.89038 0.98624 0.0
C2264 C 0.33604 0.88594 0.98101 0.0
H2265 H 0.38916 0.86478 0.95693 0.0
C2266 C 0.3633 0.88801 0.99495 0.0
C2267 C 0.34563 0.87756 0.96699 0.0
C2268 C 0.31844 0.87537 0.95118 0.0
C2269 C 0.39941 0.88174 0.99548 0.0
C2270 C 0.40871 0.87325 0.98163 0.0
C2271 C 0.38172 0.87122 0.9676 0.0
C2272 C 0.44706 0.86676 0.98138 0.0
C2273 C 0.42718 0.88407 0.01105 0.0
C2274 C 0.48163 0.87344 0.97818 0.0
C2275 C 0.5183 0.8678 0.98 0.0
C2276 C 0.52127 0.85533 0.98505 0.0
C2277 C 0.48648 0.84845 0.98724 0.0
C2278 C 0.44958 0.85415 0.98541 0.0
H2279 H 0.41252 0.889 0.02237 0.0
H2280 H 0.43938 0.87527 0.01624 0.0
H2281 H 0.45218 0.8898 1.00629 0.0
H2282 H 0.48025 0.88314 0.97483 0.0
H2283 H 0.54443 0.87336 0.978 0.0
H2284 H 0.99033 0.33804 0.98988 0.0
H2285 H 0.92506 0.3474 0.98588 0.0
H2286 H 0.97956 0.3825 0.97512 0.0
H2287 H 0.04432 0.37328 0.97873 0.0
H2288 H 0.89595 0.36598 1.00715 0.0
H2289 H 0.89707 0.38122 0.93572 0.0
H2290 H 0.93196 0.37019 0.9445 0.0
H2291 H 0.93946 0.38642 0.94802 0.0
C2292 C 0.98837 0.34768 0.98623 0.0
C2293 C 0.02257 0.3549 0.98468 0.0
C2294 C 0.95108 0.35302 0.98402 0.0
C2295 C 0.94741 0.36563 0.98 0.0
C2296 C 0.98156 0.37272 0.97782 0.0
H2297 H 0.75749 0.41921 0.99072 0.0
H2298 H 0.82186 0.40922 0.98632 0.0
C2299 C 0.01866 0.36742 0.98006 0.0
C2300 C 0.90821 0.37171 0.97985 0.0
H2301 H 0.84802 0.39036 0.95483 0.0
C2302 C 0.88532 0.37119 0.99563 0.0
C2303 C 0.89447 0.3786 0.96486 0.0
C2304 C 0.91685 0.37906 0.94726 0.0
C2305 C 0.84951 0.37757 0.99697 0.0
C2306 C 0.83612 0.3846 0.98211 0.0
C2307 C 0.8587 0.38507 0.96626 0.0
C2308 C 0.79762 0.39097 0.98269 0.0
C2309 C 0.8263 0.3769 0.01434 0.0
C2310 C 0.76296 0.38405 0.9816 0.0
C2311 C 0.72645 0.38968 0.98406 0.0
C2312 C 0.72376 0.40238 0.9877 0.0
C2313 C 0.75853 0.40943 0.98794 0.0
C2314 C 0.79526 0.40374 0.98545 0.0
H2315 H 0.8435 0.37265 0.02548 0.0
H2316 H 0.81683 0.38625 0.01858 0.0
H2317 H 0.79938 0.37131 0.01211 0.0
H2318 H 0.76423 0.3742 0.97936 0.0
H2319 H 0.70034 0.38395 0.98359 0.0
H2320 H 0.78004 0.63878 0.75776 0.0
H2321 H 0.71654 0.62936 0.7518 0.0
H2322 H 0.69099 0.65749 0.71229 0.0
H2323 H 0.75443 0.66746 0.7191 0.0
H2324 H 0.62869 0.65344 0.73034 0.0
H2325 H 0.68382 0.60762 0.71219 0.0
H2326 H 0.7026 0.61133 0.73412 0.0
H2327 H 0.71654 0.62057 0.71484 0.0
C2328 C 0.76105 0.64295 0.74771 0.0
C2329 C 0.77239 0.65379 0.73875 0.0
C2330 C 0.72483 0.63745 0.74414 0.0
C2331 C 0.69941 0.64238 0.73105 0.0
C2332 C 0.71031 0.65337 0.72225 0.0
H2333 H 0.48789 0.59565 0.71648 0.0
H2334 H 0.55058 0.60605 0.70952 0.0
C2335 C 0.74645 0.65909 0.72616 0.0
C2336 C 0.66059 0.63638 0.72768 0.0
H2337 H 0.61719 0.60806 0.72496 0.0
C2338 C 0.62627 0.64354 0.72877 0.0
C2339 C 0.65693 0.62351 0.72493 0.0
C2340 C 0.69205 0.61538 0.72122 0.0
C2341 C 0.58875 0.6381 0.72867 0.0
C2342 C 0.58541 0.62508 0.72838 0.0
C2343 C 0.61952 0.618 0.72576 0.0
C2344 C 0.54746 0.61867 0.73219 0.0
C2345 C 0.55319 0.64643 0.72899 0.0
C2346 C 0.52546 0.62198 0.7475 0.0
C2347 C 0.4896 0.61628 0.75119 0.0
C2348 C 0.47544 0.60679 0.74006 0.0
C2349 C 0.49823 0.60295 0.72525 0.0
C2350 C 0.5339 0.60892 0.72126 0.0
H2351 H 0.55932 0.65517 0.72172 0.0
H2352 H 0.5271 0.64199 0.7227 0.0
H2353 H 0.54608 0.64884 0.74319 0.0
H2354 H 0.53599 0.629 0.75669 0.0
H2355 H 0.47294 0.61926 0.76289 0.0
H2356 H 0.95364 0.12469 0.73065 0.0
H2357 H 0.01808 0.13419 0.72704 0.0
H2358 H 0.07403 0.09926 0.73721 0.0
H2359 H 0.00913 0.08954 0.74086 0.0
H2360 H 0.07433 0.13427 0.75552 0.0
H2361 H 0.13382 0.11344 0.69254 0.0
H2362 H 0.08186 0.11349 0.69784 0.0
H2363 H 0.11426 0.10287 0.70897 0.0
C2364 C 0.97954 0.11893 0.73187 0.0
C2365 C 0.97618 0.10634 0.73618 0.0
C2366 C 0.01639 0.12441 0.72977 0.0
C2367 C 0.05081 0.11745 0.73181 0.0
C2368 C 0.04776 0.10476 0.73535 0.0
H2369 H 0.29717 0.13378 0.74041 0.0
H2370 H 0.2323 0.12479 0.73616 0.0
C2371 C 0.01069 0.09923 0.73746 0.0
C2372 C 0.08952 0.12378 0.73185 0.0
H2373 H 0.17737 0.12591 0.70964 0.0
C2374 C 0.09682 0.13251 0.74543 0.0
C2375 C 0.11871 0.12143 0.7187 0.0
C2376 C 0.11187 0.11237 0.70357 0.0
C2377 C 0.13295 0.13875 0.74651 0.0
C2378 C 0.16226 0.13644 0.73333 0.0
C2379 C 0.15478 0.12776 0.71964 0.0
C2380 C 0.20187 0.14223 0.73435 0.0
C2381 C 0.13986 0.14741 0.76216 0.0
C2382 C 0.20667 0.15509 0.73426 0.0
C2383 C 0.24401 0.16034 0.73687 0.0
C2384 C 0.27718 0.15279 0.73943 0.0
C2385 C 0.27234 0.13992 0.73862 0.0
C2386 C 0.23518 0.13472 0.73613 0.0
H2387 H 0.11845 0.14587 0.77329 0.0
H2388 H 0.17009 0.14633 0.76765 0.0
H2389 H 0.1364 0.15704 0.75743 0.0
H2390 H 0.18147 0.16108 0.73249 0.0
H2391 H 0.24671 0.17027 0.73728 0.0
H2392 H 0.50952 0.17012 0.02779 0.0
H2393 H 0.57415 0.16015 0.03125 0.0
H2394 H 0.51703 0.12534 0.04088 0.0
H2395 H 0.45285 0.13508 0.03757 0.0
H2396 H 0.60499 0.14286 0.06211 0.0
H2397 H 0.58982 0.12169 0.99391 0.0
H2398 H 0.56264 0.13525 1.00053 0.0
H2399 H 0.54827 0.12042 1.0089 0.0
C2400 C 0.51075 0.16039 0.03095 0.0
C2401 C 0.47598 0.15339 0.0322 0.0
C2402 C 0.54764 0.15471 0.0329 0.0
C2403 C 0.5502 0.14199 0.03609 0.0
C2404 C 0.51562 0.13514 0.03824 0.0
H2405 H 0.74483 0.08957 0.02789 0.0
H2406 H 0.67951 0.0987 0.03279 0.0
C2407 C 0.47894 0.14076 0.03633 0.0
C2408 C 0.58873 0.13562 0.0361 0.0
H2409 H 0.64509 0.11592 0.01114 0.0
C2410 C 0.61392 0.13699 0.05098 0.0
C2411 C 0.5999 0.12785 0.02165 0.0
C2412 C 0.57398 0.12622 1.00524 0.0
C2413 C 0.65012 0.13073 0.05181 0.0
C2414 C 0.66169 0.12312 0.03717 0.0
C2415 C 0.63616 0.12167 0.0224 0.0
C2416 C 0.70122 0.11729 0.03623 0.0
C2417 C 0.67533 0.13218 0.06847 0.0
C2418 C 0.73505 0.12468 0.03663 0.0
C2419 C 0.77216 0.11951 0.03391 0.0
C2420 C 0.77644 0.10682 0.0305 0.0
C2421 C 0.74262 0.09935 0.03055 0.0
C2422 C 0.70529 0.10456 0.0333 0.0
H2423 H 0.6573 0.1347 0.08045 0.0
H2424 H 0.69176 0.1236 0.07154 0.0
H2425 H 0.69694 0.13969 0.0662 0.0
H2426 H 0.73269 0.13455 0.0384 0.0
H2427 H 0.79748 0.12558 0.03396 0.0
H2428 H 0.23852 0.58854 0.02703 0.0
H2429 H 0.17415 0.59866 0.03061 0.0
H2430 H 0.23222 0.63329 0.04049 0.0
H2431 H 0.29611 0.6234 0.03703 0.0
H2432 H 0.14293 0.61524 0.06113 0.0
H2433 H 0.16004 0.63812 0.99429 0.0
H2434 H 0.18773 0.62458 1.00054 0.0
H2435 H 0.20114 0.63934 0.00953 0.0
C2436 C 0.23755 0.59826 0.03025 0.0
C2437 C 0.2725 0.60517 0.03153 0.0
C2438 C 0.2008 0.60403 0.03227 0.0
C2439 C 0.19856 0.61675 0.03554 0.0
C2440 C 0.23335 0.6235 0.03773 0.0
H2441 H 0.00666 0.67028 0.03006 0.0
H2442 H 0.07133 0.66061 0.03452 0.0
C2443 C 0.26987 0.61779 0.03574 0.0
C2444 C 0.16016 0.62322 0.03573 0.0
H2445 H 0.10514 0.6439 0.01184 0.0
C2446 C 0.13451 0.62148 0.05036 0.0
C2447 C 0.14958 0.63146 0.02174 0.0
C2448 C 0.17584 0.63347 1.00554 0.0
C2449 C 0.09852 0.62785 0.05143 0.0
C2450 C 0.08764 0.63597 0.03728 0.0
C2451 C 0.11356 0.63776 0.02273 0.0
C2452 C 0.04846 0.64205 0.03658 0.0
C2453 C 0.07285 0.62597 0.06784 0.0
C2454 C 0.01418 0.63487 0.03636 0.0
C2455 C 0.97741 0.64035 0.03389 0.0
C2456 C 0.97396 0.65315 0.03137 0.0
C2457 C 0.00823 0.66041 0.03204 0.0
C2458 C 0.04519 0.65489 0.03454 0.0
H2459 H 0.09045 0.62296 0.07971 0.0
H2460 H 0.05678 0.63453 0.07145 0.0
H2461 H 0.05091 0.61866 0.06492 0.0
H2462 H 0.01591 0.62494 0.03745 0.0
H2463 H 0.95174 0.63443 0.03344 0.0
H2464 H 0.54587 0.88466 0.77793 0.0
H2465 H 0.4812 0.87551 0.78207 0.0
H2466 H 0.42939 0.91167 0.78547 0.0
H2467 H 0.49445 0.92102 0.78077 0.0
H2468 H 0.42619 0.87651 0.80847 0.0
H2469 H 0.36686 0.89623 0.74473 0.0
H2470 H 0.41847 0.89686 0.75041 0.0
H2471 H 0.3844 0.90748 0.76058 0.0
C2472 C 0.52087 0.89074 0.77963 0.0
C2473 C 0.52539 0.90362 0.77878 0.0
C2474 C 0.48382 0.88545 0.78206 0.0
C2475 C 0.4503 0.89287 0.78374 0.0
C2476 C 0.45476 0.90575 0.78377 0.0
H2477 H 0.20254 0.87458 0.78755 0.0
H2478 H 0.26669 0.8843 0.79105 0.0
C2479 C 0.49199 0.91109 0.78122 0.0
C2480 C 0.41083 0.88698 0.78475 0.0
H2481 H 0.32301 0.88454 0.76251 0.0
C2482 C 0.40357 0.87829 0.79845 0.0
C2483 C 0.38148 0.8892 0.77155 0.0
C2484 C 0.38818 0.89786 0.75588 0.0
C2485 C 0.36769 0.87185 0.79938 0.0
C2486 C 0.33846 0.87411 0.7862 0.0
C2487 C 0.34554 0.88285 0.77261 0.0
C2488 C 0.29994 0.86766 0.78624 0.0
C2489 C 0.36109 0.86278 0.81451 0.0
C2490 C 0.29729 0.85497 0.7827 0.0
C2491 C 0.26039 0.84931 0.78064 0.0
C2492 C 0.22565 0.8563 0.78198 0.0
C2493 C 0.22862 0.8689 0.78628 0.0
C2494 C 0.26531 0.87451 0.78831 0.0
H2495 H 0.383 0.86391 0.82555 0.0
H2496 H 0.33105 0.86384 0.82024 0.0
H2497 H 0.36371 0.85329 0.80913 0.0
H2498 H 0.32374 0.84954 0.78081 0.0
H2499 H 0.25915 0.83962 0.77726 0.0
H2500 H 0.70418 0.37393 0.78756 0.0
H2501 H 0.76747 0.38429 0.79075 0.0
H2502 H 0.82756 0.34958 0.78483 0.0
H2503 H 0.76389 0.33901 0.78163 0.0
H2504 H 0.85835 0.36703 0.8131 0.0
H2505 H 0.83951 0.38795 0.745 0.0
H2506 H 0.79893 0.38989 0.76034 0.0
H2507 H 0.8114 0.37477 0.75239 0.0
C2508 C 0.73076 0.36842 0.78713 0.0
C2509 C 0.72896 0.35564 0.78411 0.0
C2510 C 0.76692 0.37439 0.78893 0.0
C2511 C 0.80212 0.36773 0.7877 0.0
C2512 C 0.80061 0.35488 0.78572 0.0
H2513 H 0.04858 0.3848 0.7824 0.0
H2514 H 0.98423 0.37569 0.78761 0.0
C2515 C 0.76425 0.34886 0.78393 0.0
C2516 C 0.84026 0.37436 0.78739 0.0
H2517 H 0.89472 0.3943 0.76191 0.0
C2518 C 0.86641 0.37298 0.80192 0.0
C2519 C 0.85045 0.3822 0.77285 0.0
C2520 C 0.82383 0.38377 0.75667 0.0
C2521 C 0.90254 0.37931 0.80234 0.0
C2522 C 0.91303 0.38701 0.78764 0.0
C2523 C 0.88658 0.38848 0.77322 0.0
C2524 C 0.9524 0.39291 0.78621 0.0
C2525 C 0.92887 0.37781 0.81862 0.0
C2526 C 0.95608 0.40567 0.78343 0.0
C2527 C 0.99312 0.41096 0.78024 0.0
C2528 C 0.02704 0.40355 0.7796 0.0
C2529 C 0.02318 0.39082 0.78281 0.0
C2530 C 0.98634 0.38557 0.78598 0.0
H2531 H 0.9117 0.37516 0.8308 0.0
H2532 H 0.95049 0.37037 0.81593 0.0
H2533 H 0.94531 0.38641 0.82158 0.0
H2534 H 0.93019 0.41149 0.7834 0.0
H2535 H 0.99501 0.42077 0.77776 0.0
H2536 H 0.26399 0.42198 0.49484 0.0
H2537 H 0.32881 0.41237 0.49043 0.0
H2538 H 0.27322 0.38079 0.46605 0.0
H2539 H 0.2087 0.39022 0.47048 0.0
H2540 H 0.34601 0.3882 0.5065 0.0
H2541 H 0.36852 0.38898 0.43208 0.0
H2542 H 0.33597 0.39957 0.44357 0.0
H2543 H 0.32073 0.38398 0.43959 0.0
C2544 C 0.26571 0.41314 0.48813 0.0
C2545 C 0.23127 0.40684 0.48306 0.0
C2546 C 0.30269 0.40764 0.48569 0.0
C2547 C 0.30575 0.3959 0.47782 0.0
C2548 C 0.27155 0.3899 0.47194 0.0
H2549 H 0.4871 0.33988 0.48989 0.0
H2550 H 0.42411 0.35066 0.48569 0.0
C2551 C 0.23469 0.3953 0.47457 0.0
C2552 C 0.34393 0.3893 0.47746 0.0
H2553 H 0.41189 0.37632 0.4492 0.0
C2554 C 0.36056 0.38566 0.49399 0.0
C2555 C 0.36265 0.38596 0.4611 0.0
C2556 C 0.34633 0.38989 0.44304 0.0
C2557 C 0.39516 0.37861 0.49458 0.0
C2558 C 0.4135 0.37509 0.47823 0.0
C2559 C 0.39734 0.3789 0.46169 0.0
C2560 C 0.45079 0.36803 0.47829 0.0
C2561 C 0.41215 0.37503 0.51268 0.0
C2562 C 0.48635 0.37415 0.47496 0.0
C2563 C 0.52217 0.36807 0.47746 0.0
C2564 C 0.52309 0.35571 0.48316 0.0
C2565 C 0.48733 0.34937 0.48541 0.0
C2566 C 0.4514 0.35552 0.4831 0.0
H2567 H 0.39708 0.37974 0.52408 0.0
H2568 H 0.40908 0.36494 0.51458 0.0
H2569 H 0.44404 0.37727 0.51319 0.0
H2570 H 0.48644 0.38379 0.47123 0.0
H2571 H 0.54922 0.3732 0.47551 0.0
H2572 H 0.994 0.83953 0.4883 0.0
H2573 H 0.92901 0.84884 0.48323 0.0
H2574 H 0.98255 0.8848 0.48077 0.0
H2575 H 0.04705 0.87567 0.48538 0.0
H2576 H 0.89359 0.86534 0.50569 0.0
H2577 H 0.90937 0.88639 0.43795 0.0
H2578 H 0.94337 0.87499 0.44643 0.0
H2579 H 0.94824 0.89088 0.45298 0.0
C2580 C 0.99197 0.84939 0.4863 0.0
C2581 C 0.02578 0.85684 0.48728 0.0
C2582 C 0.95483 0.8547 0.48344 0.0
C2583 C 0.95095 0.86751 0.48135 0.0
C2584 C 0.98479 0.87489 0.48188 0.0
H2585 H 0.75982 0.92039 0.49046 0.0
H2586 H 0.82427 0.91036 0.48683 0.0
C2587 C 0.02173 0.86962 0.4847 0.0
C2588 C 0.91148 0.87338 0.48038 0.0
H2589 H 0.85611 0.89394 0.45626 0.0
C2590 C 0.88522 0.87146 0.49475 0.0
C2591 C 0.90068 0.88147 0.46618 0.0
C2592 C 0.92676 0.88347 0.44993 0.0
C2593 C 0.84895 0.87763 0.49556 0.0
C2594 C 0.83849 0.88585 0.48154 0.0
C2595 C 0.86444 0.88771 0.46705 0.0
C2596 C 0.80004 0.89228 0.48162 0.0
C2597 C 0.82235 0.8755 0.51161 0.0
C2598 C 0.76534 0.88551 0.47928 0.0
C2599 C 0.72875 0.89117 0.48131 0.0
C2600 C 0.72602 0.90376 0.48571 0.0
C2601 C 0.76089 0.9107 0.4871 0.0
C2602 C 0.79768 0.90498 0.48505 0.0
H2603 H 0.83793 0.87083 0.52289 0.0
H2604 H 0.81022 0.88436 0.51662 0.0
H2605 H 0.79722 0.86962 0.50743 0.0
H2606 H 0.76658 0.87574 0.47641 0.0
H2607 H 0.70256 0.88555 0.47994 0.0
H2608 H 0.50898 0.08987 0.24231 0.0
H2609 H 0.57293 0.09994 0.23716 0.0
H2610 H 0.5137 0.13417 0.2259 0.0
H2611 H 0.45022 0.12433 0.231 0.0
H2612 H 0.60341 0.11525 0.20593 0.0
H2613 H 0.58697 0.14082 0.27063 0.0
H2614 H 0.55858 0.12721 0.26546 0.0
H2615 H 0.54578 0.14172 0.25542 0.0
C2616 C 0.5096 0.09948 0.23845 0.0
C2617 C 0.47451 0.10632 0.23731 0.0
C2618 C 0.5461 0.10522 0.23553 0.0
C2619 C 0.54793 0.11784 0.23144 0.0
C2620 C 0.51291 0.12447 0.22931 0.0
H2621 H 0.73826 0.17184 0.23192 0.0
H2622 H 0.67415 0.16181 0.22761 0.0
C2623 C 0.47663 0.1188 0.23224 0.0
C2624 C 0.5862 0.12436 0.23051 0.0
H2625 H 0.64112 0.14613 0.25227 0.0
C2626 C 0.6118 0.12198 0.21605 0.0
C2627 C 0.59681 0.1332 0.24368 0.0
C2628 C 0.57082 0.13587 0.25977 0.0
C2629 C 0.64773 0.12833 0.21433 0.0
C2630 C 0.65853 0.13709 0.22762 0.0
C2631 C 0.63269 0.1395 0.242 0.0
C2632 C 0.69756 0.14327 0.2277 0.0
C2633 C 0.67349 0.12571 0.19817 0.0
C2634 C 0.73198 0.13621 0.22897 0.0
C2635 C 0.76846 0.14189 0.23139 0.0
C2636 C 0.77139 0.15479 0.23278 0.0
C2637 C 0.73706 0.16191 0.23084 0.0
C2638 C 0.70042 0.15618 0.22843 0.0
H2639 H 0.65604 0.12203 0.18667 0.0
H2640 H 0.68921 0.13413 0.19363 0.0
H2641 H 0.69575 0.11868 0.20189 0.0
H2642 H 0.73051 0.12625 0.22887 0.0
H2643 H 0.79425 0.13611 0.23281 0.0
H2644 H 0.00315 0.58988 0.23774 0.0
H2645 H 0.06834 0.5992 0.23336 0.0
H2646 H 0.01605 0.63536 0.23449 0.0
H2647 H 0.95124 0.62623 0.23834 0.0
H2648 H 0.07286 0.63378 0.20877 0.0
H2649 H 0.12789 0.61563 0.27432 0.0
H2650 H 0.11135 0.604 0.25882 0.0
H2651 H 0.07668 0.61486 0.26795 0.0
C2652 C 0.00552 0.5998 0.23685 0.0
C2653 C 0.97195 0.60729 0.2386 0.0
C2654 C 0.04282 0.60513 0.23448 0.0
C2655 C 0.04717 0.618 0.23399 0.0
C2656 C 0.0135 0.62542 0.23493 0.0
H2657 H 0.23814 0.67136 0.2403 0.0
H2658 H 0.17369 0.6614 0.23644 0.0
C2659 C 0.97638 0.62015 0.2372 0.0
C2660 C 0.08663 0.6239 0.23324 0.0
H2661 H 0.17291 0.6269 0.25656 0.0
C2662 C 0.0948 0.63225 0.2192 0.0
C2663 C 0.11507 0.62202 0.24696 0.0
C2664 C 0.10731 0.61374 0.26297 0.0
C2665 C 0.13075 0.63866 0.21843 0.0
C2666 C 0.15908 0.63673 0.23212 0.0
C2667 C 0.15108 0.62833 0.24607 0.0
C2668 C 0.19763 0.64315 0.23226 0.0
C2669 C 0.1384 0.64735 0.20292 0.0
C2670 C 0.23231 0.63623 0.23099 0.0
C2671 C 0.2689 0.64186 0.2332 0.0
C2672 C 0.27174 0.65455 0.23688 0.0
C2673 C 0.237 0.66159 0.23742 0.0
C2674 C 0.20018 0.65592 0.23518 0.0
H2675 H 0.11716 0.64597 0.19167 0.0
H2676 H 0.13558 0.65697 0.20777 0.0
H2677 H 0.16877 0.64612 0.19765 0.0
H2678 H 0.23099 0.62638 0.22875 0.0
H2679 H 0.29499 0.63614 0.23256 0.0
H2680 H 0.79597 0.62489 0.53775 0.0
H2681 H 0.73195 0.63459 0.54174 0.0
H2682 H 0.67463 0.59971 0.5328 0.0
H2683 H 0.73909 0.5898 0.52876 0.0
H2684 H 0.67459 0.63449 0.5137 0.0
H2685 H 0.61709 0.61453 0.57767 0.0
H2686 H 0.66883 0.61441 0.57195 0.0
H2687 H 0.63578 0.60372 0.56136 0.0
C2688 C 0.76986 0.61918 0.53688 0.0
C2689 C 0.77268 0.60655 0.53279 0.0
C2690 C 0.73326 0.62478 0.5392 0.0
C2691 C 0.69859 0.61788 0.53761 0.0
C2692 C 0.70113 0.60516 0.53431 0.0
H2693 H 0.45248 0.63456 0.5303 0.0
H2694 H 0.51731 0.62551 0.53436 0.0
C2695 C 0.73795 0.59952 0.53197 0.0
C2696 C 0.66007 0.62431 0.53775 0.0
H2697 H 0.57313 0.62687 0.5606 0.0
C2698 C 0.65245 0.6329 0.52401 0.0
C2699 C 0.63135 0.62217 0.55119 0.0
C2700 C 0.63858 0.61328 0.56649 0.0
C2701 C 0.61644 0.6392 0.52306 0.0
C2702 C 0.58758 0.63709 0.53652 0.0
C2703 C 0.59538 0.62856 0.55038 0.0
C2704 C 0.54806 0.64292 0.53564 0.0
C2705 C 0.60911 0.64769 0.50725 0.0
C2706 C 0.54348 0.6558 0.53549 0.0
C2707 C 0.50618 0.66107 0.53299 0.0
C2708 C 0.47282 0.65355 0.53077 0.0
C2709 C 0.47746 0.64068 0.53181 0.0
C2710 C 0.51459 0.63545 0.53421 0.0
H2711 H 0.63013 0.646 0.49601 0.0
H2712 H 0.57868 0.64658 0.502 0.0
H2713 H 0.61281 0.65737 0.51173 0.0
H2714 H 0.56884 0.66175 0.53699 0.0
H2715 H 0.50363 0.671 0.53239 0.0
H2716 H 0.01296 0.17028 0.53453 0.0
H2717 H 0.07578 0.15938 0.53871 0.0
H2718 H 0.01416 0.1247 0.53966 0.0
H2719 H 0.95173 0.13537 0.5355 0.0
H2720 H 0.10162 0.14059 0.56641 0.0
H2721 H 0.09304 0.12278 0.49599 0.0
H2722 H 0.06433 0.13576 0.50366 0.0
H2723 H 0.05006 0.1204 0.50975 0.0
C2724 C 0.01276 0.16035 0.53593 0.0
C2725 C 0.97736 0.1537 0.53445 0.0
C2726 C 0.04864 0.15415 0.53829 0.0
C2727 C 0.04955 0.14123 0.53919 0.0
C2728 C 0.01411 0.13465 0.53872 0.0
H2729 H 0.24252 0.08822 0.53 0.0
H2730 H 0.17718 0.0973 0.535 0.0
C2731 C 0.97843 0.1408 0.53636 0.0
C2732 C 0.08749 0.13449 0.53951 0.0
H2733 H 0.14535 0.11554 0.51401 0.0
C2734 C 0.11129 0.13512 0.55498 0.0
C2735 C 0.09975 0.12727 0.52461 0.0
C2736 C 0.07571 0.12654 0.50748 0.0
C2737 C 0.14711 0.12865 0.55596 0.0
C2738 C 0.15971 0.12159 0.54093 0.0
C2739 C 0.13556 0.12087 0.52557 0.0
C2740 C 0.19913 0.11568 0.54018 0.0
C2741 C 0.17088 0.12933 0.57317 0.0
C2742 C 0.23309 0.12295 0.54158 0.0
C2743 C 0.27022 0.11781 0.53876 0.0
C2744 C 0.27435 0.10527 0.5343 0.0
C2745 C 0.2404 0.09788 0.53348 0.0
C2746 C 0.20307 0.10306 0.53629 0.0
H2747 H 0.15193 0.1315 0.58499 0.0
H2748 H 0.18658 0.12055 0.57582 0.0
H2749 H 0.19307 0.13678 0.57191 0.0
H2750 H 0.23085 0.13274 0.54414 0.0
H2751 H 0.29568 0.1238 0.53953 0.0
loop_
_geom_bond_atom_site_label_1
_geom_bond_atom_site_label_2
_geom_bond_distance
_geom_bond_site_symmetry_2
_ccdc_geom_bond_type
O0 Cd1 2.223 . S
O0 C8 1.315 . S
Cd1 O0 2.223 . S
Cd1 O4 2.297 . S
Cd1 O5 2.439 . S
Cd1 O11 2.240 . S
Cd2 O3 2.240 . S
Cd2 O10 2.223 . S
Cd2 O12 2.297 . S
Cd2 O13 2.439 . S
O3 Cd2 2.240 . S
O3 C8 1.279 . S
O4 Cd1 2.297 . S
O4 C6 1.247 . S
O5 Cd1 2.439 . S
O5 C6 1.208 . S
C6 O4 1.247 . S
C6 O5 1.208 . S
C7 O12 1.247 . S
C7 O13 1.208 . S
C8 O0 1.315 . S
C8 O3 1.279 . S
C9 O10 1.315 . S
C9 O11 1.279 . S
O10 Cd2 2.223 . S
O10 C9 1.315 . S
O11 Cd1 2.240 . S
O11 C9 1.279 . S
O12 Cd2 2.297 . S
O12 C7 1.247 . S
O13 Cd2 2.439 . S
O13 C7 1.208 . S
O14 Cd15 2.223 . S
O14 C22 1.315 . S
Cd15 O14 2.223 . S
Cd15 O18 2.297 . S
Cd15 O19 2.439 . S
Cd15 O25 2.240 . S
Cd16 O17 2.240 . S
Cd16 O24 2.223 . S
Cd16 O26 2.297 . S
Cd16 O27 2.439 . S
O17 Cd16 2.240 . S
O17 C22 1.279 . S
O18 Cd15 2.297 . S
O18 C20 1.247 . S
O19 Cd15 2.439 . S
O19 C20 1.208 . S
C20 O18 1.247 . S
C20 O19 1.208 . S
C21 O26 1.247 . S
C21 O27 1.208 . S
C22 O14 1.315 . S
C22 O17 1.279 . S
C23 O24 1.315 . S
C23 O25 1.279 . S
O24 Cd16 2.223 . S
O24 C23 1.315 . S
O25 Cd15 2.240 . S
O25 C23 1.279 . S
O26 Cd16 2.297 . S
O26 C21 1.247 . S
O27 Cd16 2.439 . S
O27 C21 1.208 . S
O28 Cd29 2.223 . S
O28 C36 1.315 . S
Cd29 O28 2.223 . S
Cd29 O32 2.297 . S
Cd29 O33 2.439 1_554 S
Cd29 O39 2.240 1_554 S
Cd30 O31 2.240 1_556 S
Cd30 O38 2.223 1_556 S
Cd30 O40 2.297 . S
Cd30 O41 2.439 . S
O31 Cd30 2.240 1_554 S
O31 C36 1.279 . S
O32 Cd29 2.297 . S
O32 C34 1.247 . S
O33 Cd29 2.439 1_556 S
O33 C34 1.208 1_556 S
C34 O32 1.247 . S
C34 O33 1.208 1_554 S
C35 O40 1.247 . S
C35 O41 1.208 . S
C36 O28 1.315 . S
C36 O31 1.279 . S
C37 O38 1.315 . S
C37 O39 1.279 1_554 S
O38 Cd30 2.223 1_554 S
O38 C37 1.315 . S
O39 Cd29 2.240 1_556 S
O39 C37 1.279 1_556 S
O40 Cd30 2.297 . S
O40 C35 1.247 . S
O41 Cd30 2.439 . S
O41 C35 1.208 . S
O42 Cd43 2.223 . S
O42 C50 1.315 . S
Cd43 O42 2.223 . S
Cd43 O46 2.297 . S
Cd43 O47 2.439 1_554 S
Cd43 O53 2.240 1_554 S
Cd44 O45 2.240 1_556 S
Cd44 O52 2.223 1_556 S
Cd44 O54 2.297 . S
Cd44 O55 2.439 . S
O45 Cd44 2.240 1_554 S
O45 C50 1.279 . S
O46 Cd43 2.297 . S
O46 C48 1.247 . S
O47 Cd43 2.439 1_556 S
O47 C48 1.208 1_556 S
C48 O46 1.247 . S
C48 O47 1.208 1_554 S
C49 O54 1.247 . S
C49 O55 1.208 . S
C50 O42 1.315 . S
C50 O45 1.279 . S
C51 O52 1.315 . S
C51 O53 1.279 1_554 S
O52 Cd44 2.223 1_554 S
O52 C51 1.315 . S
O53 Cd43 2.240 1_556 S
O53 C51 1.279 1_556 S
O54 Cd44 2.297 . S
O54 C49 1.247 . S
O55 Cd44 2.439 . S
O55 C49 1.208 . S
O56 Cd57 2.223 . S
O56 C64 1.315 . S
Cd57 O56 2.223 . S
Cd57 O60 2.297 . S
Cd57 O61 2.439 . S
Cd57 O67 2.240 . S
Cd58 O59 2.240 . S
Cd58 O66 2.223 . S
Cd58 O68 2.297 . S
Cd58 O69 2.439 . S
O59 Cd58 2.240 . S
O59 C64 1.279 . S
O60 Cd57 2.297 . S
O60 C62 1.247 . S
O61 Cd57 2.439 . S
O61 C62 1.208 . S
C62 O60 1.247 . S
C62 O61 1.208 . S
C63 O68 1.247 . S
C63 O69 1.208 . S
C64 O56 1.315 . S
C64 O59 1.279 . S
C65 O66 1.315 . S
C65 O67 1.279 . S
O66 Cd58 2.223 . S
O66 C65 1.315 . S
O67 Cd57 2.240 . S
O67 C65 1.279 . S
O68 Cd58 2.297 . S
O68 C63 1.247 . S
O69 Cd58 2.439 . S
O69 C63 1.208 . S
O70 Cd71 2.223 . S
O70 C78 1.315 . S
Cd71 O70 2.223 . S
Cd71 O74 2.297 . S
Cd71 O75 2.439 . S
Cd71 O81 2.240 . S
Cd72 O73 2.240 . S
Cd72 O80 2.223 . S
Cd72 O82 2.297 . S
Cd72 O83 2.439 . S
O73 Cd72 2.240 . S
O73 C78 1.279 . S
O74 Cd71 2.297 . S
O74 C76 1.247 . S
O75 Cd71 2.439 . S
O75 C76 1.208 . S
C76 O74 1.247 . S
C76 O75 1.208 . S
C77 O82 1.247 . S
C77 O83 1.208 . S
C78 O70 1.315 . S
C78 O73 1.279 . S
C79 O80 1.315 . S
C79 O81 1.279 . S
O80 Cd72 2.223 . S
O80 C79 1.315 . S
O81 Cd71 2.240 . S
O81 C79 1.279 . S
O82 Cd72 2.297 . S
O82 C77 1.247 . S
O83 Cd72 2.439 . S
O83 C77 1.208 . S
O84 Cd85 2.223 . S
O84 C92 1.315 . S
Cd85 O84 2.223 . S
Cd85 O88 2.297 . S
Cd85 O89 2.439 1_556 S
Cd85 O95 2.240 1_556 S
Cd86 O87 2.240 1_554 S
Cd86 O94 2.223 1_554 S
Cd86 O96 2.297 . S
Cd86 O97 2.439 . S
O87 Cd86 2.240 1_556 S
O87 C92 1.279 . S
O88 Cd85 2.297 . S
O88 C90 1.247 . S
O89 Cd85 2.439 1_554 S
O89 C90 1.208 1_554 S
C90 O88 1.247 . S
C90 O89 1.208 1_556 S
C91 O96 1.247 . S
C91 O97 1.208 . S
C92 O84 1.315 . S
C92 O87 1.279 . S
C93 O94 1.315 . S
C93 O95 1.279 1_556 S
O94 Cd86 2.223 1_556 S
O94 C93 1.315 . S
O95 Cd85 2.240 1_554 S
O95 C93 1.279 1_554 S
O96 Cd86 2.297 . S
O96 C91 1.247 . S
O97 Cd86 2.439 . S
O97 C91 1.208 . S
O98 Cd99 2.223 . S
O98 C106 1.315 . S
Cd99 O98 2.223 . S
Cd99 O102 2.297 . S
Cd99 O103 2.439 1_556 S
Cd99 O109 2.240 1_556 S
Cd100 O101 2.240 1_554 S
Cd100 O108 2.223 1_554 S
Cd100 O110 2.297 . S
Cd100 O111 2.439 . S
O101 Cd100 2.240 1_556 S
O101 C106 1.279 . S
O102 Cd99 2.297 . S
O102 C104 1.247 . S
O103 Cd99 2.439 1_554 S
O103 C104 1.208 1_554 S
C104 O102 1.247 . S
C104 O103 1.208 1_556 S
C105 O110 1.247 . S
C105 O111 1.208 . S
C106 O98 1.315 . S
C106 O101 1.279 . S
C107 O108 1.315 . S
C107 O109 1.279 1_556 S
O108 Cd100 2.223 1_556 S
O108 C107 1.315 . S
O109 Cd99 2.240 1_554 S
O109 C107 1.279 1_554 S
O110 Cd100 2.297 . S
O110 C105 1.247 . S
O111 Cd100 2.439 . S
O111 C105 1.208 . S
O112 Cd113 2.223 . S
O112 C120 1.315 . S
Cd113 O112 2.223 . S
Cd113 O116 2.297 . S
Cd113 O117 2.439 . S
Cd113 O123 2.240 . S
Cd114 O115 2.240 . S
Cd114 O122 2.223 . S
Cd114 O124 2.297 . S
Cd114 O125 2.439 . S
O115 Cd114 2.240 . S
O115 C120 1.279 . S
O116 Cd113 2.297 . S
O116 C118 1.247 . S
O117 Cd113 2.439 . S
O117 C118 1.208 . S
C118 O116 1.247 . S
C118 O117 1.208 . S
C119 O124 1.247 . S
C119 O125 1.208 . S
C120 O112 1.315 . S
C120 O115 1.279 . S
C121 O122 1.315 . S
C121 O123 1.279 . S
O122 Cd114 2.223 . S
O122 C121 1.315 . S
O123 Cd113 2.240 . S
O123 C121 1.279 . S
O124 Cd114 2.297 . S
O124 C119 1.247 . S
O125 Cd114 2.439 . S
O125 C119 1.208 . S
O126 Cd127 2.223 . S
O126 C134 1.315 . S
Cd127 O126 2.223 . S
Cd127 O130 2.297 . S
Cd127 O131 2.439 . S
Cd127 O137 2.240 . S
Cd128 O129 2.240 . S
Cd128 O136 2.223 . S
Cd128 O138 2.297 . S
Cd128 O139 2.439 . S
O129 Cd128 2.240 . S
O129 C134 1.279 . S
O130 Cd127 2.297 . S
O130 C132 1.247 . S
O131 Cd127 2.439 . S
O131 C132 1.208 . S
C132 O130 1.247 . S
C132 O131 1.208 . S
C133 O138 1.247 . S
C133 O139 1.208 . S
C134 O126 1.315 . S
C134 O129 1.279 . S
C135 O136 1.315 . S
C135 O137 1.279 . S
O136 Cd128 2.223 . S
O136 C135 1.315 . S
O137 Cd127 2.240 . S
O137 C135 1.279 . S
O138 Cd128 2.297 . S
O138 C133 1.247 . S
O139 Cd128 2.439 . S
O139 C133 1.208 . S
O140 Cd141 2.223 . S
O140 C148 1.315 . S
Cd141 O140 2.223 . S
Cd141 O144 2.297 . S
Cd141 O145 2.439 . S
Cd141 O151 2.240 . S
Cd142 O143 2.240 . S
Cd142 O150 2.223 . S
Cd142 O152 2.297 . S
Cd142 O153 2.439 . S
O143 Cd142 2.240 . S
O143 C148 1.279 . S
O144 Cd141 2.297 . S
O144 C146 1.247 . S
O145 Cd141 2.439 . S
O145 C146 1.208 . S
C146 O144 1.247 . S
C146 O145 1.208 . S
C147 O152 1.247 . S
C147 O153 1.208 . S
C148 O140 1.315 . S
C148 O143 1.279 . S
C149 O150 1.315 . S
C149 O151 1.279 . S
O150 Cd142 2.223 . S
O150 C149 1.315 . S
O151 Cd141 2.240 . S
O151 C149 1.279 . S
O152 Cd142 2.297 . S
O152 C147 1.247 . S
O153 Cd142 2.439 . S
O153 C147 1.208 . S
O154 Cd155 2.223 . S
O154 C162 1.315 . S
Cd155 O154 2.223 . S
Cd155 O158 2.297 . S
Cd155 O159 2.439 . S
Cd155 O165 2.240 . S
Cd156 O157 2.240 . S
Cd156 O164 2.223 . S
Cd156 O166 2.297 . S
Cd156 O167 2.439 . S
O157 Cd156 2.240 . S
O157 C162 1.279 . S
O158 Cd155 2.297 . S
O158 C160 1.247 . S
O159 Cd155 2.439 . S
O159 C160 1.208 . S
C160 O158 1.247 . S
C160 O159 1.208 . S
C161 O166 1.247 . S
C161 O167 1.208 . S
C162 O154 1.315 . S
C162 O157 1.279 . S
C163 O164 1.315 . S
C163 O165 1.279 . S
O164 Cd156 2.223 . S
O164 C163 1.315 . S
O165 Cd155 2.240 . S
O165 C163 1.279 . S
O166 Cd156 2.297 . S
O166 C161 1.247 . S
O167 Cd156 2.439 . S
O167 C161 1.208 . S
O168 Cd169 2.223 . S
O168 C176 1.315 . S
Cd169 O168 2.223 . S
Cd169 O172 2.297 . S
Cd169 O173 2.439 . S
Cd169 O179 2.240 . S
Cd170 O171 2.240 . S
Cd170 O178 2.223 . S
Cd170 O180 2.297 . S
Cd170 O181 2.439 . S
O171 Cd170 2.240 . S
O171 C176 1.279 . S
O172 Cd169 2.297 . S
O172 C174 1.247 . S
O173 Cd169 2.439 . S
O173 C174 1.208 . S
C174 O172 1.247 . S
C174 O173 1.208 . S
C175 O180 1.247 . S
C175 O181 1.208 . S
C176 O168 1.315 . S
C176 O171 1.279 . S
C177 O178 1.315 . S
C177 O179 1.279 . S
O178 Cd170 2.223 . S
O178 C177 1.315 . S
O179 Cd169 2.240 . S
O179 C177 1.279 . S
O180 Cd170 2.297 . S
O180 C175 1.247 . S
O181 Cd170 2.439 . S
O181 C175 1.208 . S
O182 Cd183 2.223 . S
O182 C190 1.315 . S
Cd183 O182 2.223 . S
Cd183 O186 2.297 . S
Cd183 O187 2.439 . S
Cd183 O193 2.240 . S
Cd184 O185 2.240 . S
Cd184 O192 2.223 . S
Cd184 O194 2.297 . S
Cd184 O195 2.439 . S
O185 Cd184 2.240 . S
O185 C190 1.279 . S
O186 Cd183 2.297 . S
O186 C188 1.247 . S
O187 Cd183 2.439 . S
O187 C188 1.208 . S
C188 O186 1.247 . S
C188 O187 1.208 . S
C189 O194 1.247 . S
C189 O195 1.208 . S
C190 O182 1.315 . S
C190 O185 1.279 . S
C191 O192 1.315 . S
C191 O193 1.279 . S
O192 Cd184 2.223 . S
O192 C191 1.315 . S
O193 Cd183 2.240 . S
O193 C191 1.279 . S
O194 Cd184 2.297 . S
O194 C189 1.247 . S
O195 Cd184 2.439 . S
O195 C189 1.208 . S
O196 Cd197 2.223 . S
O196 C204 1.315 . S
Cd197 O196 2.223 . S
Cd197 O200 2.297 . S
Cd197 O201 2.439 . S
Cd197 O207 2.240 . S
Cd198 O199 2.240 . S
Cd198 O206 2.223 . S
Cd198 O208 2.297 . S
Cd198 O209 2.439 . S
O199 Cd198 2.240 . S
O199 C204 1.279 . S
O200 Cd197 2.297 . S
O200 C202 1.247 . S
O201 Cd197 2.439 . S
O201 C202 1.208 . S
C202 O200 1.247 . S
C202 O201 1.208 . S
C203 O208 1.247 . S
C203 O209 1.208 . S
C204 O196 1.315 . S
C204 O199 1.279 . S
C205 O206 1.315 . S
C205 O207 1.279 . S
O206 Cd198 2.223 . S
O206 C205 1.315 . S
O207 Cd197 2.240 . S
O207 C205 1.279 . S
O208 Cd198 2.297 . S
O208 C203 1.247 . S
O209 Cd198 2.439 . S
O209 C203 1.208 . S
O210 Cd211 2.223 . S
O210 C218 1.315 . S
Cd211 O210 2.223 . S
Cd211 O214 2.297 . S
Cd211 O215 2.439 . S
Cd211 O221 2.240 . S
Cd212 O213 2.240 . S
Cd212 O220 2.223 . S
Cd212 O222 2.297 . S
Cd212 O223 2.439 . S
O213 Cd212 2.240 . S
O213 C218 1.279 . S
O214 Cd211 2.297 . S
O214 C216 1.247 . S
O215 Cd211 2.439 . S
O215 C216 1.208 . S
C216 O214 1.247 . S
C216 O215 1.208 . S
C217 O222 1.247 . S
C217 O223 1.208 . S
C218 O210 1.315 . S
C218 O213 1.279 . S
C219 O220 1.315 . S
C219 O221 1.279 . S
O220 Cd212 2.223 . S
O220 C219 1.315 . S
O221 Cd211 2.240 . S
O221 C219 1.279 . S
O222 Cd212 2.297 . S
O222 C217 1.247 . S
O223 Cd212 2.439 . S
O223 C217 1.208 . S
O224 Cd225 2.223 . S
O224 C232 1.315 . S
Cd225 O224 2.223 . S
Cd225 O228 2.297 . S
Cd225 O229 2.439 . S
Cd225 O235 2.240 . S
Cd226 O227 2.240 . S
Cd226 O234 2.223 . S
Cd226 O236 2.297 . S
Cd226 O237 2.439 . S
O227 Cd226 2.240 . S
O227 C232 1.279 . S
O228 Cd225 2.297 . S
O228 C230 1.247 . S
O229 Cd225 2.439 . S
O229 C230 1.208 . S
C230 O228 1.247 . S
C230 O229 1.208 . S
C231 O236 1.247 . S
C231 O237 1.208 . S
C232 O224 1.315 . S
C232 O227 1.279 . S
C233 O234 1.315 . S
C233 O235 1.279 . S
O234 Cd226 2.223 . S
O234 C233 1.315 . S
O235 Cd225 2.240 . S
O235 C233 1.279 . S
O236 Cd226 2.297 . S
O236 C231 1.247 . S
O237 Cd226 2.439 . S
O237 C231 1.208 . S
O238 Cd239 2.223 . S
O238 C246 1.315 . S
Cd239 O238 2.223 . S
Cd239 O242 2.297 . S
Cd239 O243 2.439 . S
Cd239 O249 2.240 . S
Cd240 O241 2.240 . S
Cd240 O248 2.223 . S
Cd240 O250 2.297 . S
Cd240 O251 2.439 . S
O241 Cd240 2.240 . S
O241 C246 1.279 . S
O242 Cd239 2.297 . S
O242 C244 1.247 . S
O243 Cd239 2.439 . S
O243 C244 1.208 . S
C244 O242 1.247 . S
C244 O243 1.208 . S
C245 O250 1.247 . S
C245 O251 1.208 . S
C246 O238 1.315 . S
C246 O241 1.279 . S
C247 O248 1.315 . S
C247 O249 1.279 . S
O248 Cd240 2.223 . S
O248 C247 1.315 . S
O249 Cd239 2.240 . S
O249 C247 1.279 . S
O250 Cd240 2.297 . S
O250 C245 1.247 . S
O251 Cd240 2.439 . S
O251 C245 1.208 . S
O252 Cd253 2.223 . S
O252 C260 1.315 . S
Cd253 O252 2.223 . S
Cd253 O256 2.297 . S
Cd253 O257 2.439 . S
Cd253 O263 2.240 . S
Cd254 O255 2.240 . S
Cd254 O262 2.223 . S
Cd254 O264 2.297 . S
Cd254 O265 2.439 . S
O255 Cd254 2.240 . S
O255 C260 1.279 . S
O256 Cd253 2.297 . S
O256 C258 1.247 . S
O257 Cd253 2.439 . S
O257 C258 1.208 . S
C258 O256 1.247 . S
C258 O257 1.208 . S
C259 O264 1.247 . S
C259 O265 1.208 . S
C260 O252 1.315 . S
C260 O255 1.279 . S
C261 O262 1.315 . S
C261 O263 1.279 . S
O262 Cd254 2.223 . S
O262 C261 1.315 . S
O263 Cd253 2.240 . S
O263 C261 1.279 . S
O264 Cd254 2.297 . S
O264 C259 1.247 . S
O265 Cd254 2.439 . S
O265 C259 1.208 . S
O266 Cd267 2.223 . S
O266 C274 1.315 . S
Cd267 O266 2.223 . S
Cd267 O270 2.297 . S
Cd267 O271 2.439 . S
Cd267 O277 2.240 . S
Cd268 O269 2.240 . S
Cd268 O276 2.223 . S
Cd268 O278 2.297 . S
Cd268 O279 2.439 . S
O269 Cd268 2.240 . S
O269 C274 1.279 . S
O270 Cd267 2.297 . S
O270 C272 1.247 . S
O271 Cd267 2.439 . S
O271 C272 1.208 . S
C272 O270 1.247 . S
C272 O271 1.208 . S
C273 O278 1.247 . S
C273 O279 1.208 . S
C274 O266 1.315 . S
C274 O269 1.279 . S
C275 O276 1.315 . S
C275 O277 1.279 . S
O276 Cd268 2.223 . S
O276 C275 1.315 . S
O277 Cd267 2.240 . S
O277 C275 1.279 . S
O278 Cd268 2.297 . S
O278 C273 1.247 . S
O279 Cd268 2.439 . S
O279 C273 1.208 . S
O280 Cd281 2.223 . S
O280 C288 1.315 . S
Cd281 O280 2.223 . S
Cd281 O284 2.297 . S
Cd281 O285 2.439 . S
Cd281 O291 2.240 . S
Cd282 O283 2.240 . S
Cd282 O290 2.223 . S
Cd282 O292 2.297 . S
Cd282 O293 2.439 . S
O283 Cd282 2.240 . S
O283 C288 1.279 . S
O284 Cd281 2.297 . S
O284 C286 1.247 . S
O285 Cd281 2.439 . S
O285 C286 1.208 . S
C286 O284 1.247 . S
C286 O285 1.208 . S
C287 O292 1.247 . S
C287 O293 1.208 . S
C288 O280 1.315 . S
C288 O283 1.279 . S
C289 O290 1.315 . S
C289 O291 1.279 . S
O290 Cd282 2.223 . S
O290 C289 1.315 . S
O291 Cd281 2.240 . S
O291 C289 1.279 . S
O292 Cd282 2.297 . S
O292 C287 1.247 . S
O293 Cd282 2.439 . S
O293 C287 1.208 . S
O294 Cd295 2.223 . S
O294 C302 1.315 . S
Cd295 O294 2.223 . S
Cd295 O298 2.297 . S
Cd295 O299 2.439 . S
Cd295 O305 2.240 . S
Cd296 O297 2.240 . S
Cd296 O304 2.223 . S
Cd296 O306 2.297 . S
Cd296 O307 2.439 . S
O297 Cd296 2.240 . S
O297 C302 1.279 . S
O298 Cd295 2.297 . S
O298 C300 1.247 . S
O299 Cd295 2.439 . S
O299 C300 1.208 . S
C300 O298 1.247 . S
C300 O299 1.208 . S
C301 O306 1.247 . S
C301 O307 1.208 . S
C302 O294 1.315 . S
C302 O297 1.279 . S
C303 O304 1.315 . S
C303 O305 1.279 . S
O304 Cd296 2.223 . S
O304 C303 1.315 . S
O305 Cd295 2.240 . S
O305 C303 1.279 . S
O306 Cd296 2.297 . S
O306 C301 1.247 . S
O307 Cd296 2.439 . S
O307 C301 1.208 . S
O308 Cd309 2.223 . S
O308 C316 1.315 . S
Cd309 O308 2.223 . S
Cd309 O312 2.297 . S
Cd309 O313 2.439 . S
Cd309 O319 2.240 . S
Cd310 O311 2.240 . S
Cd310 O318 2.223 . S
Cd310 O320 2.297 . S
Cd310 O321 2.439 . S
O311 Cd310 2.240 . S
O311 C316 1.279 . S
O312 Cd309 2.297 . S
O312 C314 1.247 . S
O313 Cd309 2.439 . S
O313 C314 1.208 . S
C314 O312 1.247 . S
C314 O313 1.208 . S
C315 O320 1.247 . S
C315 O321 1.208 . S
C316 O308 1.315 . S
C316 O311 1.279 . S
C317 O318 1.315 . S
C317 O319 1.279 . S
O318 Cd310 2.223 . S
O318 C317 1.315 . S
O319 Cd309 2.240 . S
O319 C317 1.279 . S
O320 Cd310 2.297 . S
O320 C315 1.247 . S
O321 Cd310 2.439 . S
O321 C315 1.208 . S
O322 Cd323 2.223 . S
O322 C330 1.315 . S
Cd323 O322 2.223 . S
Cd323 O326 2.297 . S
Cd323 O327 2.439 . S
Cd323 O333 2.240 . S
Cd324 O325 2.240 . S
Cd324 O332 2.223 . S
Cd324 O334 2.297 . S
Cd324 O335 2.439 . S
O325 Cd324 2.240 . S
O325 C330 1.279 . S
O326 Cd323 2.297 . S
O326 C328 1.247 . S
O327 Cd323 2.439 . S
O327 C328 1.208 . S
C328 O326 1.247 . S
C328 O327 1.208 . S
C329 O334 1.247 . S
C329 O335 1.208 . S
C330 O322 1.315 . S
C330 O325 1.279 . S
C331 O332 1.315 . S
C331 O333 1.279 . S
O332 Cd324 2.223 . S
O332 C331 1.315 . S
O333 Cd323 2.240 . S
O333 C331 1.279 . S
O334 Cd324 2.297 . S
O334 C329 1.247 . S
O335 Cd324 2.439 . S
O335 C329 1.208 . S
O336 Cd337 2.223 . S
O336 C344 1.315 . S
Cd337 O336 2.223 . S
Cd337 O340 2.297 . S
Cd337 O341 2.439 . S
Cd337 O347 2.240 . S
Cd338 O339 2.240 . S
Cd338 O346 2.223 . S
Cd338 O348 2.297 . S
Cd338 O349 2.439 . S
O339 Cd338 2.240 . S
O339 C344 1.279 . S
O340 Cd337 2.297 . S
O340 C342 1.247 . S
O341 Cd337 2.439 . S
O341 C342 1.208 . S
C342 O340 1.247 . S
C342 O341 1.208 . S
C343 O348 1.247 . S
C343 O349 1.208 . S
C344 O336 1.315 . S
C344 O339 1.279 . S
C345 O346 1.315 . S
C345 O347 1.279 . S
O346 Cd338 2.223 . S
O346 C345 1.315 . S
O347 Cd337 2.240 . S
O347 C345 1.279 . S
O348 Cd338 2.297 . S
O348 C343 1.247 . S
O349 Cd338 2.439 . S
O349 C343 1.208 . S
O350 Cd351 2.223 . S
O350 C358 1.315 . S
Cd351 O350 2.223 . S
Cd351 O354 2.297 . S
Cd351 O355 2.439 . S
Cd351 O361 2.240 . S
Cd352 O353 2.240 . S
Cd352 O360 2.223 . S
Cd352 O362 2.297 . S
Cd352 O363 2.439 . S
O353 Cd352 2.240 . S
O353 C358 1.279 . S
O354 Cd351 2.297 . S
O354 C356 1.247 . S
O355 Cd351 2.439 . S
O355 C356 1.208 . S
C356 O354 1.247 . S
C356 O355 1.208 . S
C357 O362 1.247 . S
C357 O363 1.208 . S
C358 O350 1.315 . S
C358 O353 1.279 . S
C359 O360 1.315 . S
C359 O361 1.279 . S
O360 Cd352 2.223 . S
O360 C359 1.315 . S
O361 Cd351 2.240 . S
O361 C359 1.279 . S
O362 Cd352 2.297 . S
O362 C357 1.247 . S
O363 Cd352 2.439 . S
O363 C357 1.208 . S
O364 Cd365 2.223 . S
O364 C372 1.315 . S
Cd365 O364 2.223 . S
Cd365 O368 2.297 . S
Cd365 O369 2.439 1_554 S
Cd365 O375 2.240 1_554 S
Cd366 O367 2.240 1_556 S
Cd366 O374 2.223 1_556 S
Cd366 O376 2.297 . S
Cd366 O377 2.439 . S
O367 Cd366 2.240 1_554 S
O367 C372 1.279 . S
O368 Cd365 2.297 . S
O368 C370 1.247 . S
O369 Cd365 2.439 1_556 S
O369 C370 1.208 1_556 S
C370 O368 1.247 . S
C370 O369 1.208 1_554 S
C371 O376 1.247 . S
C371 O377 1.208 . S
C372 O364 1.315 . S
C372 O367 1.279 . S
C373 O374 1.315 . S
C373 O375 1.279 1_554 S
O374 Cd366 2.223 1_554 S
O374 C373 1.315 . S
O375 Cd365 2.240 1_556 S
O375 C373 1.279 1_556 S
O376 Cd366 2.297 . S
O376 C371 1.247 . S
O377 Cd366 2.439 . S
O377 C371 1.208 . S
O378 Cd379 2.223 . S
O378 C386 1.315 . S
Cd379 O378 2.223 . S
Cd379 O382 2.297 . S
Cd379 O383 2.439 1_554 S
Cd379 O389 2.240 1_554 S
Cd380 O381 2.240 1_556 S
Cd380 O388 2.223 1_556 S
Cd380 O390 2.297 . S
Cd380 O391 2.439 . S
O381 Cd380 2.240 1_554 S
O381 C386 1.279 . S
O382 Cd379 2.297 . S
O382 C384 1.247 . S
O383 Cd379 2.439 1_556 S
O383 C384 1.208 1_556 S
C384 O382 1.247 . S
C384 O383 1.208 1_554 S
C385 O390 1.247 . S
C385 O391 1.208 . S
C386 O378 1.315 . S
C386 O381 1.279 . S
C387 O388 1.315 . S
C387 O389 1.279 1_554 S
O388 Cd380 2.223 1_554 S
O388 C387 1.315 . S
O389 Cd379 2.240 1_556 S
O389 C387 1.279 1_556 S
O390 Cd380 2.297 . S
O390 C385 1.247 . S
O391 Cd380 2.439 . S
O391 C385 1.208 . S
O392 Cd393 2.223 . S
O392 C400 1.315 . S
Cd393 O392 2.223 . S
Cd393 O396 2.297 . S
Cd393 O397 2.439 . S
Cd393 O403 2.240 . S
Cd394 O395 2.240 . S
Cd394 O402 2.223 . S
Cd394 O404 2.297 . S
Cd394 O405 2.439 . S
O395 Cd394 2.240 . S
O395 C400 1.279 . S
O396 Cd393 2.297 . S
O396 C398 1.247 . S
O397 Cd393 2.439 . S
O397 C398 1.208 . S
C398 O396 1.247 . S
C398 O397 1.208 . S
C399 O404 1.247 . S
C399 O405 1.208 . S
C400 O392 1.315 . S
C400 O395 1.279 . S
C401 O402 1.315 . S
C401 O403 1.279 . S
O402 Cd394 2.223 . S
O402 C401 1.315 . S
O403 Cd393 2.240 . S
O403 C401 1.279 . S
O404 Cd394 2.297 . S
O404 C399 1.247 . S
O405 Cd394 2.439 . S
O405 C399 1.208 . S
O406 Cd407 2.223 . S
O406 C414 1.315 . S
Cd407 O406 2.223 . S
Cd407 O410 2.297 . S
Cd407 O411 2.439 . S
Cd407 O417 2.240 . S
Cd408 O409 2.240 . S
Cd408 O416 2.223 . S
Cd408 O418 2.297 . S
Cd408 O419 2.439 . S
O409 Cd408 2.240 . S
O409 C414 1.279 . S
O410 Cd407 2.297 . S
O410 C412 1.247 . S
O411 Cd407 2.439 . S
O411 C412 1.208 . S
C412 O410 1.247 . S
C412 O411 1.208 . S
C413 O418 1.247 . S
C413 O419 1.208 . S
C414 O406 1.315 . S
C414 O409 1.279 . S
C415 O416 1.315 . S
C415 O417 1.279 . S
O416 Cd408 2.223 . S
O416 C415 1.315 . S
O417 Cd407 2.240 . S
O417 C415 1.279 . S
O418 Cd408 2.297 . S
O418 C413 1.247 . S
O419 Cd408 2.439 . S
O419 C413 1.208 . S
O420 Cd421 2.223 . S
O420 C428 1.315 . S
Cd421 O420 2.223 . S
Cd421 O424 2.297 . S
Cd421 O425 2.439 1_556 S
Cd421 O431 2.240 1_556 S
Cd422 O423 2.240 1_554 S
Cd422 O430 2.223 1_554 S
Cd422 O432 2.297 . S
Cd422 O433 2.439 . S
O423 Cd422 2.240 1_556 S
O423 C428 1.279 . S
O424 Cd421 2.297 . S
O424 C426 1.247 . S
O425 Cd421 2.439 1_554 S
O425 C426 1.208 1_554 S
C426 O424 1.247 . S
C426 O425 1.208 1_556 S
C427 O432 1.247 . S
C427 O433 1.208 . S
C428 O420 1.315 . S
C428 O423 1.279 . S
C429 O430 1.315 . S
C429 O431 1.279 1_556 S
O430 Cd422 2.223 1_556 S
O430 C429 1.315 . S
O431 Cd421 2.240 1_554 S
O431 C429 1.279 1_554 S
O432 Cd422 2.297 . S
O432 C427 1.247 . S
O433 Cd422 2.439 . S
O433 C427 1.208 . S
O434 Cd435 2.223 . S
O434 C442 1.315 . S
Cd435 O434 2.223 . S
Cd435 O438 2.297 . S
Cd435 O439 2.439 1_556 S
Cd435 O445 2.240 1_556 S
Cd436 O437 2.240 1_554 S
Cd436 O444 2.223 1_554 S
Cd436 O446 2.297 . S
Cd436 O447 2.439 . S
O437 Cd436 2.240 1_556 S
O437 C442 1.279 . S
O438 Cd435 2.297 . S
O438 C440 1.247 . S
O439 Cd435 2.439 1_554 S
O439 C440 1.208 1_554 S
C440 O438 1.247 . S
C440 O439 1.208 1_556 S
C441 O446 1.247 . S
C441 O447 1.208 . S
C442 O434 1.315 . S
C442 O437 1.279 . S
C443 O444 1.315 . S
C443 O445 1.279 1_556 S
O444 Cd436 2.223 1_556 S
O444 C443 1.315 . S
O445 Cd435 2.240 1_554 S
O445 C443 1.279 1_554 S
O446 Cd436 2.297 . S
O446 C441 1.247 . S
O447 Cd436 2.439 . S
O447 C441 1.208 . S
H448 C456 0.929 . S
H449 C458 0.930 . S
H450 C460 0.930 . S
H451 C463 0.929 . S
H452 C466 0.930 . S
H453 C468 0.960 . S
H454 C468 0.960 . S
H455 C468 0.960 . S
C456 H448 0.929 . S
C456 C457 1.377 . S
C456 C458 1.384 . S
C457 C456 1.377 . S
C457 C463 1.390 . S
C458 H449 0.930 . S
C458 C456 1.384 . S
C458 C459 1.372 . S
C459 C458 1.372 . S
C459 C460 1.400 . S
C459 C464 1.490 . S
C460 H450 0.930 . S
C460 C459 1.400 . S
C460 C463 1.386 . S
H461 C477 0.930 . S
H462 C478 0.931 . S
C463 H451 0.929 . S
C463 C457 1.390 . S
C463 C460 1.386 . S
C464 C459 1.490 . S
C464 C466 1.395 . S
C464 C467 1.403 . S
H465 C471 0.930 . S
C466 H452 0.930 . S
C466 C464 1.395 . S
C466 C469 1.403 . S
C467 C464 1.403 . S
C467 C468 1.524 . S
C467 C471 1.400 . S
C468 H453 0.960 . S
C468 H454 0.960 . S
C468 H455 0.960 . S
C468 C467 1.524 . S
C469 C466 1.403 . S
C469 C470 1.392 . S
C469 C473 1.495 . S
C470 C469 1.392 . S
C470 C471 1.385 . S
C470 C472 1.478 . S
C471 H465 0.930 . S
C471 C467 1.400 . S
C471 C470 1.385 . S
C472 C470 1.478 . S
C472 C474 1.381 . S
C472 C478 1.383 . S
C473 C469 1.495 . S
C473 H479 0.959 . S
C473 H480 0.961 . S
C473 H481 0.960 . S
C474 C472 1.381 . S
C474 C475 1.394 . S
C474 H482 0.930 . S
C475 C474 1.394 . S
C475 C476 1.383 . S
C475 H483 0.929 . S
C476 C475 1.383 . S
C476 C477 1.377 . S
C477 H461 0.930 . S
C477 C476 1.377 . S
C477 C478 1.379 . S
C478 H462 0.931 . S
C478 C472 1.383 . S
C478 C477 1.379 . S
H479 C473 0.959 . S
H480 C473 0.961 . S
H481 C473 0.960 . S
H482 C474 0.930 . S
H483 C475 0.929 . S
H484 C492 0.929 . S
H485 C494 0.930 . S
H486 C496 0.930 . S
H487 C499 0.929 . S
H488 C502 0.930 . S
H489 C504 0.960 . S
H490 C504 0.960 . S
H491 C504 0.960 . S
C492 H484 0.929 . S
C492 C493 1.377 . S
C492 C494 1.384 . S
C493 C492 1.377 . S
C493 C499 1.390 . S
C494 H485 0.930 . S
C494 C492 1.384 . S
C494 C495 1.372 . S
C495 C494 1.372 . S
C495 C496 1.400 . S
C495 C500 1.490 . S
C496 H486 0.930 . S
C496 C495 1.400 . S
C496 C499 1.386 . S
H497 C513 0.930 . S
H498 C514 0.931 . S
C499 H487 0.929 . S
C499 C493 1.390 . S
C499 C496 1.386 . S
C500 C495 1.490 . S
C500 C502 1.395 . S
C500 C503 1.403 . S
H501 C507 0.930 . S
C502 H488 0.930 . S
C502 C500 1.395 . S
C502 C505 1.403 . S
C503 C500 1.403 . S
C503 C504 1.524 . S
C503 C507 1.400 . S
C504 H489 0.960 . S
C504 H490 0.960 . S
C504 H491 0.960 . S
C504 C503 1.524 . S
C505 C502 1.403 . S
C505 C506 1.392 . S
C505 C509 1.495 . S
C506 C505 1.392 . S
C506 C507 1.385 . S
C506 C508 1.478 . S
C507 H501 0.930 . S
C507 C503 1.400 . S
C507 C506 1.385 . S
C508 C506 1.478 . S
C508 C510 1.381 . S
C508 C514 1.383 . S
C509 C505 1.495 . S
C509 H515 0.959 . S
C509 H516 0.961 . S
C509 H517 0.960 . S
C510 C508 1.381 . S
C510 C511 1.394 . S
C510 H518 0.930 . S
C511 C510 1.394 . S
C511 C512 1.383 . S
C511 H519 0.929 . S
C512 C511 1.383 . S
C512 C513 1.377 . S
C513 H497 0.930 . S
C513 C512 1.377 . S
C513 C514 1.379 . S
C514 H498 0.931 . S
C514 C508 1.383 . S
C514 C513 1.379 . S
H515 C509 0.959 . S
H516 C509 0.961 . S
H517 C509 0.960 . S
H518 C510 0.930 . S
H519 C511 0.929 . S
H520 C528 0.929 . S
H521 C530 0.930 . S
H522 C532 0.930 . S
H523 C535 0.929 . S
H524 C538 0.930 . S
H525 C540 0.960 . S
H526 C540 0.960 . S
H527 C540 0.960 . S
C528 H520 0.929 . S
C528 C529 1.377 . S
C528 C530 1.384 . S
C529 C528 1.377 . S
C529 C535 1.390 . S
C530 H521 0.930 . S
C530 C528 1.384 . S
C530 C531 1.372 . S
C531 C530 1.372 . S
C531 C532 1.400 . S
C531 C536 1.490 . S
C532 H522 0.930 . S
C532 C531 1.400 . S
C532 C535 1.386 . S
H533 C549 0.930 . S
H534 C550 0.931 . S
C535 H523 0.929 . S
C535 C529 1.390 . S
C535 C532 1.386 . S
C536 C531 1.490 . S
C536 C538 1.395 . S
C536 C539 1.403 . S
H537 C543 0.930 . S
C538 H524 0.930 . S
C538 C536 1.395 . S
C538 C541 1.403 . S
C539 C536 1.403 . S
C539 C540 1.524 . S
C539 C543 1.400 . S
C540 H525 0.960 . S
C540 H526 0.960 . S
C540 H527 0.960 . S
C540 C539 1.524 . S
C541 C538 1.403 . S
C541 C542 1.392 . S
C541 C545 1.495 . S
C542 C541 1.392 . S
C542 C543 1.385 . S
C542 C544 1.478 . S
C543 H537 0.930 . S
C543 C539 1.400 . S
C543 C542 1.385 . S
C544 C542 1.478 . S
C544 C546 1.381 . S
C544 C550 1.383 . S
C545 C541 1.495 . S
C545 H551 0.959 . S
C545 H552 0.961 . S
C545 H553 0.960 . S
C546 C544 1.381 . S
C546 C547 1.394 . S
C546 H554 0.930 . S
C547 C546 1.394 . S
C547 C548 1.383 . S
C547 H555 0.929 . S
C548 C547 1.383 . S
C548 C549 1.377 . S
C549 H533 0.930 . S
C549 C548 1.377 . S
C549 C550 1.379 . S
C550 H534 0.931 . S
C550 C544 1.383 . S
C550 C549 1.379 . S
H551 C545 0.959 . S
H552 C545 0.961 . S
H553 C545 0.960 . S
H554 C546 0.930 . S
H555 C547 0.929 . S
H556 C564 0.929 . S
H557 C566 0.930 . S
H558 C568 0.930 . S
H559 C571 0.929 . S
H560 C574 0.930 . S
H561 C576 0.960 . S
H562 C576 0.960 . S
H563 C576 0.960 . S
C564 H556 0.929 . S
C564 C565 1.377 . S
C564 C566 1.384 . S
C565 C564 1.377 . S
C565 C571 1.390 . S
C566 H557 0.930 . S
C566 C564 1.384 . S
C566 C567 1.372 . S
C567 C566 1.372 . S
C567 C568 1.400 . S
C567 C572 1.490 . S
C568 H558 0.930 . S
C568 C567 1.400 . S
C568 C571 1.386 . S
H569 C585 0.930 . S
H570 C586 0.931 . S
C571 H559 0.929 . S
C571 C565 1.390 . S
C571 C568 1.386 . S
C572 C567 1.490 . S
C572 C574 1.395 . S
C572 C575 1.403 . S
H573 C579 0.930 . S
C574 H560 0.930 . S
C574 C572 1.395 . S
C574 C577 1.403 . S
C575 C572 1.403 . S
C575 C576 1.524 . S
C575 C579 1.400 . S
C576 H561 0.960 . S
C576 H562 0.960 . S
C576 H563 0.960 . S
C576 C575 1.524 . S
C577 C574 1.403 . S
C577 C578 1.392 . S
C577 C581 1.495 . S
C578 C577 1.392 . S
C578 C579 1.385 . S
C578 C580 1.478 . S
C579 H573 0.930 . S
C579 C575 1.400 . S
C579 C578 1.385 . S
C580 C578 1.478 . S
C580 C582 1.381 . S
C580 C586 1.383 . S
C581 C577 1.495 . S
C581 H587 0.959 . S
C581 H588 0.961 . S
C581 H589 0.960 . S
C582 C580 1.381 . S
C582 C583 1.394 . S
C582 H590 0.930 . S
C583 C582 1.394 . S
C583 C584 1.383 . S
C583 H591 0.929 . S
C584 C583 1.383 . S
C584 C585 1.377 . S
C585 H569 0.930 . S
C585 C584 1.377 . S
C585 C586 1.379 . S
C586 H570 0.931 . S
C586 C580 1.383 . S
C586 C585 1.379 . S
H587 C581 0.959 . S
H588 C581 0.961 . S
H589 C581 0.960 . S
H590 C582 0.930 . S
H591 C583 0.929 . S
H592 C600 0.929 . S
H593 C602 0.930 . S
H594 C604 0.930 . S
H595 C607 0.929 . S
H596 C610 0.930 . S
H597 C612 0.960 . S
H598 C612 0.960 . S
H599 C612 0.960 . S
C600 H592 0.929 . S
C600 C601 1.377 . S
C600 C602 1.384 . S
C601 C600 1.377 . S
C601 C607 1.390 . S
C602 H593 0.930 . S
C602 C600 1.384 . S
C602 C603 1.372 . S
C603 C602 1.372 . S
C603 C604 1.400 . S
C603 C608 1.490 . S
C604 H594 0.930 . S
C604 C603 1.400 . S
C604 C607 1.386 . S
H605 C621 0.930 . S
H606 C622 0.931 . S
C607 H595 0.929 . S
C607 C601 1.390 . S
C607 C604 1.386 . S
C608 C603 1.490 . S
C608 C610 1.395 . S
C608 C611 1.403 . S
H609 C615 0.930 . S
C610 H596 0.930 . S
C610 C608 1.395 . S
C610 C613 1.403 . S
C611 C608 1.403 . S
C611 C612 1.524 . S
C611 C615 1.400 . S
C612 H597 0.960 . S
C612 H598 0.960 . S
C612 H599 0.960 . S
C612 C611 1.524 . S
C613 C610 1.403 . S
C613 C614 1.392 . S
C613 C617 1.495 . S
C614 C613 1.392 . S
C614 C615 1.385 . S
C614 C616 1.478 . S
C615 H609 0.930 . S
C615 C611 1.400 . S
C615 C614 1.385 . S
C616 C614 1.478 . S
C616 C618 1.381 . S
C616 C622 1.383 . S
C617 C613 1.495 . S
C617 H623 0.959 . S
C617 H624 0.961 . S
C617 H625 0.960 . S
C618 C616 1.381 . S
C618 C619 1.394 . S
C618 H626 0.930 . S
C619 C618 1.394 . S
C619 C620 1.383 . S
C619 H627 0.929 . S
C620 C619 1.383 . S
C620 C621 1.377 . S
C621 H605 0.930 . S
C621 C620 1.377 . S
C621 C622 1.379 . S
C622 H606 0.931 . S
C622 C616 1.383 . S
C622 C621 1.379 . S
H623 C617 0.959 . S
H624 C617 0.961 . S
H625 C617 0.960 . S
H626 C618 0.930 . S
H627 C619 0.929 . S
H628 C636 0.929 . S
H629 C638 0.930 . S
H630 C640 0.930 . S
H631 C643 0.929 . S
H632 C646 0.930 . S
H633 C648 0.960 . S
H634 C648 0.960 . S
H635 C648 0.960 . S
C636 H628 0.929 . S
C636 C637 1.377 . S
C636 C638 1.384 . S
C637 C636 1.377 . S
C637 C643 1.390 . S
C638 H629 0.930 . S
C638 C636 1.384 . S
C638 C639 1.372 . S
C639 C638 1.372 . S
C639 C640 1.400 . S
C639 C644 1.490 . S
C640 H630 0.930 . S
C640 C639 1.400 . S
C640 C643 1.386 . S
H641 C657 0.930 . S
H642 C658 0.931 . S
C643 H631 0.929 . S
C643 C637 1.390 . S
C643 C640 1.386 . S
C644 C639 1.490 . S
C644 C646 1.395 . S
C644 C647 1.403 . S
H645 C651 0.930 . S
C646 H632 0.930 . S
C646 C644 1.395 . S
C646 C649 1.403 . S
C647 C644 1.403 . S
C647 C648 1.524 . S
C647 C651 1.400 . S
C648 H633 0.960 . S
C648 H634 0.960 . S
C648 H635 0.960 . S
C648 C647 1.524 . S
C649 C646 1.403 . S
C649 C650 1.392 . S
C649 C653 1.495 . S
C650 C649 1.392 . S
C650 C651 1.385 . S
C650 C652 1.478 . S
C651 H645 0.930 . S
C651 C647 1.400 . S
C651 C650 1.385 . S
C652 C650 1.478 . S
C652 C654 1.381 . S
C652 C658 1.383 . S
C653 C649 1.495 . S
C653 H659 0.959 . S
C653 H660 0.961 . S
C653 H661 0.960 . S
C654 C652 1.381 . S
C654 C655 1.394 . S
C654 H662 0.930 . S
C655 C654 1.394 . S
C655 C656 1.383 . S
C655 H663 0.929 . S
C656 C655 1.383 . S
C656 C657 1.377 . S
C657 H641 0.930 . S
C657 C656 1.377 . S
C657 C658 1.379 . S
C658 H642 0.931 . S
C658 C652 1.383 . S
C658 C657 1.379 . S
H659 C653 0.959 . S
H660 C653 0.961 . S
H661 C653 0.960 . S
H662 C654 0.930 . S
H663 C655 0.929 . S
H664 C672 0.929 . S
H665 C674 0.930 . S
H666 C676 0.930 . S
H667 C679 0.929 . S
H668 C682 0.930 . S
H669 C684 0.960 . S
H670 C684 0.960 . S
H671 C684 0.960 . S
C672 H664 0.929 . S
C672 C673 1.377 . S
C672 C674 1.384 . S
C673 C672 1.377 . S
C673 C679 1.390 . S
C674 H665 0.930 . S
C674 C672 1.384 . S
C674 C675 1.372 . S
C675 C674 1.372 . S
C675 C676 1.400 . S
C675 C680 1.490 . S
C676 H666 0.930 . S
C676 C675 1.400 . S
C676 C679 1.386 . S
H677 C693 0.930 . S
H678 C694 0.931 . S
C679 H667 0.929 . S
C679 C673 1.390 . S
C679 C676 1.386 . S
C680 C675 1.490 . S
C680 C682 1.395 . S
C680 C683 1.403 . S
H681 C687 0.930 . S
C682 H668 0.930 . S
C682 C680 1.395 . S
C682 C685 1.403 . S
C683 C680 1.403 . S
C683 C684 1.524 . S
C683 C687 1.400 . S
C684 H669 0.960 . S
C684 H670 0.960 . S
C684 H671 0.960 . S
C684 C683 1.524 . S
C685 C682 1.403 . S
C685 C686 1.392 . S
C685 C689 1.495 . S
C686 C685 1.392 . S
C686 C687 1.385 . S
C686 C688 1.478 . S
C687 H681 0.930 . S
C687 C683 1.400 . S
C687 C686 1.385 . S
C688 C686 1.478 . S
C688 C690 1.381 . S
C688 C694 1.383 . S
C689 C685 1.495 . S
C689 H695 0.959 . S
C689 H696 0.961 . S
C689 H697 0.960 . S
C690 C688 1.381 . S
C690 C691 1.394 . S
C690 H698 0.930 . S
C691 C690 1.394 . S
C691 C692 1.383 . S
C691 H699 0.929 . S
C692 C691 1.383 . S
C692 C693 1.377 . S
C693 H677 0.930 . S
C693 C692 1.377 . S
C693 C694 1.379 . S
C694 H678 0.931 . S
C694 C688 1.383 . S
C694 C693 1.379 . S
H695 C689 0.959 . S
H696 C689 0.961 . S
H697 C689 0.960 . S
H698 C690 0.930 . S
H699 C691 0.929 . S
H700 C708 0.929 . S
H701 C710 0.930 . S
H702 C712 0.930 . S
H703 C715 0.929 . S
H704 C718 0.930 . S
H705 C720 0.960 . S
H706 C720 0.960 . S
H707 C720 0.960 . S
C708 H700 0.929 . S
C708 C709 1.377 . S
C708 C710 1.384 . S
C709 C708 1.377 . S
C709 C715 1.390 . S
C710 H701 0.930 . S
C710 C708 1.384 . S
C710 C711 1.372 . S
C711 C710 1.372 . S
C711 C712 1.400 . S
C711 C716 1.490 . S
C712 H702 0.930 . S
C712 C711 1.400 . S
C712 C715 1.386 . S
H713 C729 0.930 . S
H714 C730 0.931 . S
C715 H703 0.929 . S
C715 C709 1.390 . S
C715 C712 1.386 . S
C716 C711 1.490 . S
C716 C718 1.395 . S
C716 C719 1.403 . S
H717 C723 0.930 . S
C718 H704 0.930 . S
C718 C716 1.395 . S
C718 C721 1.403 . S
C719 C716 1.403 . S
C719 C720 1.524 . S
C719 C723 1.400 . S
C720 H705 0.960 . S
C720 H706 0.960 . S
C720 H707 0.960 . S
C720 C719 1.524 . S
C721 C718 1.403 . S
C721 C722 1.392 . S
C721 C725 1.495 . S
C722 C721 1.392 . S
C722 C723 1.385 . S
C722 C724 1.478 . S
C723 H717 0.930 . S
C723 C719 1.400 . S
C723 C722 1.385 . S
C724 C722 1.478 . S
C724 C726 1.381 . S
C724 C730 1.383 . S
C725 C721 1.495 . S
C725 H731 0.959 . S
C725 H732 0.961 . S
C725 H733 0.960 . S
C726 C724 1.381 . S
C726 C727 1.394 . S
C726 H734 0.930 . S
C727 C726 1.394 . S
C727 C728 1.383 . S
C727 H735 0.929 . S
C728 C727 1.383 . S
C728 C729 1.377 . S
C729 H713 0.930 . S
C729 C728 1.377 . S
C729 C730 1.379 . S
C730 H714 0.931 . S
C730 C724 1.383 . S
C730 C729 1.379 . S
H731 C725 0.959 . S
H732 C725 0.961 . S
H733 C725 0.960 . S
H734 C726 0.930 . S
H735 C727 0.929 . S
H736 C744 0.929 . S
H737 C746 0.930 . S
H738 C748 0.930 . S
H739 C751 0.929 . S
H740 C754 0.930 . S
H741 C756 0.960 . S
H742 C756 0.960 . S
H743 C756 0.960 . S
C744 H736 0.929 . S
C744 C745 1.377 . S
C744 C746 1.384 . S
C745 C744 1.377 . S
C745 C751 1.390 . S
C746 H737 0.930 . S
C746 C744 1.384 . S
C746 C747 1.372 . S
C747 C746 1.372 . S
C747 C748 1.400 . S
C747 C752 1.490 . S
C748 H738 0.930 . S
C748 C747 1.400 . S
C748 C751 1.386 . S
H749 C765 0.930 . S
H750 C766 0.931 . S
C751 H739 0.929 . S
C751 C745 1.390 . S
C751 C748 1.386 . S
C752 C747 1.490 . S
C752 C754 1.395 . S
C752 C755 1.403 . S
H753 C759 0.930 . S
C754 H740 0.930 . S
C754 C752 1.395 . S
C754 C757 1.403 . S
C755 C752 1.403 . S
C755 C756 1.524 . S
C755 C759 1.400 . S
C756 H741 0.960 . S
C756 H742 0.960 . S
C756 H743 0.960 . S
C756 C755 1.524 . S
C757 C754 1.403 . S
C757 C758 1.392 . S
C757 C761 1.495 . S
C758 C757 1.392 . S
C758 C759 1.385 . S
C758 C760 1.478 . S
C759 H753 0.930 . S
C759 C755 1.400 . S
C759 C758 1.385 . S
C760 C758 1.478 . S
C760 C762 1.381 . S
C760 C766 1.383 . S
C761 C757 1.495 . S
C761 H767 0.959 . S
C761 H768 0.961 . S
C761 H769 0.960 . S
C762 C760 1.381 . S
C762 C763 1.394 . S
C762 H770 0.930 . S
C763 C762 1.394 . S
C763 C764 1.383 . S
C763 H771 0.929 . S
C764 C763 1.383 . S
C764 C765 1.377 . S
C765 H749 0.930 . S
C765 C764 1.377 . S
C765 C766 1.379 . S
C766 H750 0.931 . S
C766 C760 1.383 . S
C766 C765 1.379 . S
H767 C761 0.959 . S
H768 C761 0.961 . S
H769 C761 0.960 . S
H770 C762 0.930 . S
H771 C763 0.929 . S
H772 C780 0.929 . S
H773 C782 0.930 . S
H774 C784 0.930 . S
H775 C787 0.929 . S
H776 C790 0.930 . S
H777 C792 0.960 . S
H778 C792 0.960 . S
H779 C792 0.960 . S
C780 H772 0.929 . S
C780 C781 1.377 . S
C780 C782 1.384 . S
C781 C780 1.377 . S
C781 C787 1.390 . S
C782 H773 0.930 . S
C782 C780 1.384 . S
C782 C783 1.372 . S
C783 C782 1.372 . S
C783 C784 1.400 . S
C783 C788 1.490 . S
C784 H774 0.930 . S
C784 C783 1.400 . S
C784 C787 1.386 . S
H785 C801 0.930 . S
H786 C802 0.931 . S
C787 H775 0.929 . S
C787 C781 1.390 . S
C787 C784 1.386 . S
C788 C783 1.490 . S
C788 C790 1.395 . S
C788 C791 1.403 . S
H789 C795 0.930 . S
C790 H776 0.930 . S
C790 C788 1.395 . S
C790 C793 1.403 . S
C791 C788 1.403 . S
C791 C792 1.524 . S
C791 C795 1.400 . S
C792 H777 0.960 . S
C792 H778 0.960 . S
C792 H779 0.960 . S
C792 C791 1.524 . S
C793 C790 1.403 . S
C793 C794 1.392 . S
C793 C797 1.495 . S
C794 C793 1.392 . S
C794 C795 1.385 . S
C794 C796 1.478 . S
C795 H789 0.930 . S
C795 C791 1.400 . S
C795 C794 1.385 . S
C796 C794 1.478 . S
C796 C798 1.381 . S
C796 C802 1.383 . S
C797 C793 1.495 . S
C797 H803 0.959 . S
C797 H804 0.961 . S
C797 H805 0.960 . S
C798 C796 1.381 . S
C798 C799 1.394 . S
C798 H806 0.930 . S
C799 C798 1.394 . S
C799 C800 1.383 . S
C799 H807 0.929 . S
C800 C799 1.383 . S
C800 C801 1.377 . S
C801 H785 0.930 . S
C801 C800 1.377 . S
C801 C802 1.379 . S
C802 H786 0.931 . S
C802 C796 1.383 . S
C802 C801 1.379 . S
H803 C797 0.959 . S
H804 C797 0.961 . S
H805 C797 0.960 . S
H806 C798 0.930 . S
H807 C799 0.929 . S
H808 C816 0.929 . S
H809 C818 0.930 . S
H810 C820 0.930 . S
H811 C823 0.929 . S
H812 C826 0.930 . S
H813 C828 0.960 . S
H814 C828 0.960 . S
H815 C828 0.960 . S
C816 H808 0.929 . S
C816 C817 1.377 . S
C816 C818 1.384 . S
C817 C816 1.377 . S
C817 C823 1.390 . S
C818 H809 0.930 . S
C818 C816 1.384 . S
C818 C819 1.372 . S
C819 C818 1.372 . S
C819 C820 1.400 . S
C819 C824 1.490 . S
C820 H810 0.930 . S
C820 C819 1.400 . S
C820 C823 1.386 . S
H821 C837 0.930 . S
H822 C838 0.931 . S
C823 H811 0.929 . S
C823 C817 1.390 . S
C823 C820 1.386 . S
C824 C819 1.490 . S
C824 C826 1.395 . S
C824 C827 1.403 . S
H825 C831 0.930 . S
C826 H812 0.930 . S
C826 C824 1.395 . S
C826 C829 1.403 . S
C827 C824 1.403 . S
C827 C828 1.524 . S
C827 C831 1.400 . S
C828 H813 0.960 . S
C828 H814 0.960 . S
C828 H815 0.960 . S
C828 C827 1.524 . S
C829 C826 1.403 . S
C829 C830 1.392 . S
C829 C833 1.495 . S
C830 C829 1.392 . S
C830 C831 1.385 . S
C830 C832 1.478 . S
C831 H825 0.930 . S
C831 C827 1.400 . S
C831 C830 1.385 . S
C832 C830 1.478 . S
C832 C834 1.381 . S
C832 C838 1.383 . S
C833 C829 1.495 . S
C833 H839 0.959 . S
C833 H840 0.961 . S
C833 H841 0.960 . S
C834 C832 1.381 . S
C834 C835 1.394 . S
C834 H842 0.930 . S
C835 C834 1.394 . S
C835 C836 1.383 . S
C835 H843 0.929 . S
C836 C835 1.383 . S
C836 C837 1.377 . S
C837 H821 0.930 . S
C837 C836 1.377 . S
C837 C838 1.379 . S
C838 H822 0.931 . S
C838 C832 1.383 . S
C838 C837 1.379 . S
H839 C833 0.959 . S
H840 C833 0.961 . S
H841 C833 0.960 . S
H842 C834 0.930 . S
H843 C835 0.929 . S
H844 C852 0.929 . S
H845 C854 0.930 . S
H846 C856 0.930 . S
H847 C859 0.929 . S
H848 C862 0.930 . S
H849 C864 0.960 . S
H850 C864 0.960 . S
H851 C864 0.960 . S
C852 H844 0.929 . S
C852 C853 1.377 . S
C852 C854 1.384 . S
C853 C852 1.377 . S
C853 C859 1.390 . S
C854 H845 0.930 . S
C854 C852 1.384 . S
C854 C855 1.372 . S
C855 C854 1.372 . S
C855 C856 1.400 . S
C855 C860 1.490 . S
C856 H846 0.930 . S
C856 C855 1.400 . S
C856 C859 1.386 . S
H857 C873 0.930 . S
H858 C874 0.931 . S
C859 H847 0.929 . S
C859 C853 1.390 . S
C859 C856 1.386 . S
C860 C855 1.490 . S
C860 C862 1.395 . S
C860 C863 1.403 . S
H861 C867 0.930 . S
C862 H848 0.930 . S
C862 C860 1.395 . S
C862 C865 1.403 . S
C863 C860 1.403 . S
C863 C864 1.524 . S
C863 C867 1.400 . S
C864 H849 0.960 . S
C864 H850 0.960 . S
C864 H851 0.960 . S
C864 C863 1.524 . S
C865 C862 1.403 . S
C865 C866 1.392 . S
C865 C869 1.495 . S
C866 C865 1.392 . S
C866 C867 1.385 . S
C866 C868 1.478 . S
C867 H861 0.930 . S
C867 C863 1.400 . S
C867 C866 1.385 . S
C868 C866 1.478 . S
C868 C870 1.381 . S
C868 C874 1.383 . S
C869 C865 1.495 . S
C869 H875 0.959 . S
C869 H876 0.961 . S
C869 H877 0.960 . S
C870 C868 1.381 . S
C870 C871 1.394 . S
C870 H878 0.930 . S
C871 C870 1.394 . S
C871 C872 1.383 . S
C871 H879 0.929 . S
C872 C871 1.383 . S
C872 C873 1.377 . S
C873 H857 0.930 . S
C873 C872 1.377 . S
C873 C874 1.379 . S
C874 H858 0.931 . S
C874 C868 1.383 . S
C874 C873 1.379 . S
H875 C869 0.959 . S
H876 C869 0.961 . S
H877 C869 0.960 . S
H878 C870 0.930 . S
H879 C871 0.929 . S
H880 C888 0.929 . S
H881 C890 0.930 . S
H882 C892 0.930 . S
H883 C895 0.929 . S
H884 C898 0.930 . S
H885 C900 0.960 . S
H886 C900 0.960 . S
H887 C900 0.960 . S
C888 H880 0.929 . S
C888 C889 1.377 . S
C888 C890 1.384 . S
C889 C888 1.377 . S
C889 C895 1.390 . S
C890 H881 0.930 . S
C890 C888 1.384 . S
C890 C891 1.372 . S
C891 C890 1.372 . S
C891 C892 1.400 . S
C891 C896 1.490 . S
C892 H882 0.930 . S
C892 C891 1.400 . S
C892 C895 1.386 . S
H893 C909 0.930 . S
H894 C910 0.931 . S
C895 H883 0.929 . S
C895 C889 1.390 . S
C895 C892 1.386 . S
C896 C891 1.490 . S
C896 C898 1.395 . S
C896 C899 1.403 . S
H897 C903 0.930 . S
C898 H884 0.930 . S
C898 C896 1.395 . S
C898 C901 1.403 . S
C899 C896 1.403 . S
C899 C900 1.524 . S
C899 C903 1.400 . S
C900 H885 0.960 . S
C900 H886 0.960 . S
C900 H887 0.960 . S
C900 C899 1.524 . S
C901 C898 1.403 . S
C901 C902 1.392 . S
C901 C905 1.495 . S
C902 C901 1.392 . S
C902 C903 1.385 . S
C902 C904 1.478 . S
C903 H897 0.930 . S
C903 C899 1.400 . S
C903 C902 1.385 . S
C904 C902 1.478 . S
C904 C906 1.381 . S
C904 C910 1.383 . S
C905 C901 1.495 . S
C905 H911 0.959 . S
C905 H912 0.961 . S
C905 H913 0.960 . S
C906 C904 1.381 . S
C906 C907 1.394 . S
C906 H914 0.930 . S
C907 C906 1.394 . S
C907 C908 1.383 . S
C907 H915 0.929 . S
C908 C907 1.383 . S
C908 C909 1.377 . S
C909 H893 0.930 . S
C909 C908 1.377 . S
C909 C910 1.379 . S
C910 H894 0.931 . S
C910 C904 1.383 . S
C910 C909 1.379 . S
H911 C905 0.959 . S
H912 C905 0.961 . S
H913 C905 0.960 . S
H914 C906 0.930 . S
H915 C907 0.929 . S
H916 C924 0.929 . S
H917 C926 0.930 . S
H918 C928 0.930 . S
H919 C931 0.929 . S
H920 C934 0.930 . S
H921 C936 0.960 . S
H922 C936 0.960 . S
H923 C936 0.960 . S
C924 H916 0.929 . S
C924 C925 1.377 . S
C924 C926 1.384 . S
C925 C924 1.377 . S
C925 C931 1.390 . S
C926 H917 0.930 . S
C926 C924 1.384 . S
C926 C927 1.372 . S
C927 C926 1.372 . S
C927 C928 1.400 . S
C927 C932 1.490 . S
C928 H918 0.930 . S
C928 C927 1.400 . S
C928 C931 1.386 . S
H929 C945 0.930 . S
H930 C946 0.931 . S
C931 H919 0.929 . S
C931 C925 1.390 . S
C931 C928 1.386 . S
C932 C927 1.490 . S
C932 C934 1.395 . S
C932 C935 1.403 . S
H933 C939 0.930 . S
C934 H920 0.930 . S
C934 C932 1.395 . S
C934 C937 1.403 . S
C935 C932 1.403 . S
C935 C936 1.524 . S
C935 C939 1.400 . S
C936 H921 0.960 . S
C936 H922 0.960 . S
C936 H923 0.960 . S
C936 C935 1.524 . S
C937 C934 1.403 . S
C937 C938 1.392 . S
C937 C941 1.495 . S
C938 C937 1.392 . S
C938 C939 1.385 . S
C938 C940 1.478 . S
C939 H933 0.930 . S
C939 C935 1.400 . S
C939 C938 1.385 . S
C940 C938 1.478 . S
C940 C942 1.381 . S
C940 C946 1.383 . S
C941 C937 1.495 . S
C941 H947 0.959 . S
C941 H948 0.961 . S
C941 H949 0.960 . S
C942 C940 1.381 . S
C942 C943 1.394 . S
C942 H950 0.930 . S
C943 C942 1.394 . S
C943 C944 1.383 . S
C943 H951 0.929 . S
C944 C943 1.383 . S
C944 C945 1.377 . S
C945 H929 0.930 . S
C945 C944 1.377 . S
C945 C946 1.379 . S
C946 H930 0.931 . S
C946 C940 1.383 . S
C946 C945 1.379 . S
H947 C941 0.959 . S
H948 C941 0.961 . S
H949 C941 0.960 . S
H950 C942 0.930 . S
H951 C943 0.929 . S
H952 C960 0.929 . S
H953 C962 0.930 . S
H954 C964 0.930 . S
H955 C967 0.929 . S
H956 C970 0.930 . S
H957 C972 0.960 . S
H958 C972 0.960 . S
H959 C972 0.960 . S
C960 H952 0.929 . S
C960 C961 1.377 . S
C960 C962 1.384 . S
C961 C960 1.377 . S
C961 C967 1.390 . S
C962 H953 0.930 . S
C962 C960 1.384 . S
C962 C963 1.372 . S
C963 C962 1.372 . S
C963 C964 1.400 . S
C963 C968 1.490 . S
C964 H954 0.930 . S
C964 C963 1.400 . S
C964 C967 1.386 . S
H965 C981 0.930 . S
H966 C982 0.931 . S
C967 H955 0.929 . S
C967 C961 1.390 . S
C967 C964 1.386 . S
C968 C963 1.490 . S
C968 C970 1.395 . S
C968 C971 1.403 . S
H969 C975 0.930 . S
C970 H956 0.930 . S
C970 C968 1.395 . S
C970 C973 1.403 . S
C971 C968 1.403 . S
C971 C972 1.524 . S
C971 C975 1.400 . S
C972 H957 0.960 . S
C972 H958 0.960 . S
C972 H959 0.960 . S
C972 C971 1.524 . S
C973 C970 1.403 . S
C973 C974 1.392 . S
C973 C977 1.495 . S
C974 C973 1.392 . S
C974 C975 1.385 . S
C974 C976 1.478 . S
C975 H969 0.930 . S
C975 C971 1.400 . S
C975 C974 1.385 . S
C976 C974 1.478 . S
C976 C978 1.381 . S
C976 C982 1.383 . S
C977 C973 1.495 . S
C977 H983 0.959 . S
C977 H984 0.961 . S
C977 H985 0.960 . S
C978 C976 1.381 . S
C978 C979 1.394 . S
C978 H986 0.930 . S
C979 C978 1.394 . S
C979 C980 1.383 . S
C979 H987 0.929 . S
C980 C979 1.383 . S
C980 C981 1.377 . S
C981 H965 0.930 . S
C981 C980 1.377 . S
C981 C982 1.379 . S
C982 H966 0.931 . S
C982 C976 1.383 . S
C982 C981 1.379 . S
H983 C977 0.959 . S
H984 C977 0.961 . S
H985 C977 0.960 . S
H986 C978 0.930 . S
H987 C979 0.929 . S
H988 C996 0.929 . S
H989 C998 0.930 . S
H990 C1000 0.930 . S
H991 C1003 0.929 . S
H992 C1006 0.930 . S
H993 C1008 0.960 . S
H994 C1008 0.960 . S
H995 C1008 0.960 . S
C996 H988 0.929 . S
C996 C997 1.377 . S
C996 C998 1.384 . S
C997 C996 1.377 . S
C997 C1003 1.390 . S
C998 H989 0.930 . S
C998 C996 1.384 . S
C998 C999 1.372 . S
C999 C998 1.372 . S
C999 C1000 1.400 . S
C999 C1004 1.490 . S
C1000 H990 0.930 . S
C1000 C999 1.400 . S
C1000 C1003 1.386 . S
H1001 C1017 0.930 . S
H1002 C1018 0.931 . S
C1003 H991 0.929 . S
C1003 C997 1.390 . S
C1003 C1000 1.386 . S
C1004 C999 1.490 . S
C1004 C1006 1.395 . S
C1004 C1007 1.403 . S
H1005 C1011 0.930 . S
C1006 H992 0.930 . S
C1006 C1004 1.395 . S
C1006 C1009 1.403 . S
C1007 C1004 1.403 . S
C1007 C1008 1.524 . S
C1007 C1011 1.400 . S
C1008 H993 0.960 . S
C1008 H994 0.960 . S
C1008 H995 0.960 . S
C1008 C1007 1.524 . S
C1009 C1006 1.403 . S
C1009 C1010 1.392 . S
C1009 C1013 1.495 . S
C1010 C1009 1.392 . S
C1010 C1011 1.385 . S
C1010 C1012 1.478 . S
C1011 H1005 0.930 . S
C1011 C1007 1.400 . S
C1011 C1010 1.385 . S
C1012 C1010 1.478 . S
C1012 C1014 1.381 . S
C1012 C1018 1.383 . S
C1013 C1009 1.495 . S
C1013 H1019 0.959 . S
C1013 H1020 0.961 . S
C1013 H1021 0.960 . S
C1014 C1012 1.381 . S
C1014 C1015 1.394 . S
C1014 H1022 0.930 . S
C1015 C1014 1.394 . S
C1015 C1016 1.383 . S
C1015 H1023 0.929 . S
C1016 C1015 1.383 . S
C1016 C1017 1.377 . S
C1017 H1001 0.930 . S
C1017 C1016 1.377 . S
C1017 C1018 1.379 . S
C1018 H1002 0.931 . S
C1018 C1012 1.383 . S
C1018 C1017 1.379 . S
H1019 C1013 0.959 . S
H1020 C1013 0.961 . S
H1021 C1013 0.960 . S
H1022 C1014 0.930 . S
H1023 C1015 0.929 . S
H1024 C1032 0.929 . S
H1025 C1034 0.930 1_455 S
H1026 C1036 0.930 . S
H1027 C1039 0.929 . S
H1028 C1042 0.930 . S
H1029 C1044 0.960 . S
H1030 C1044 0.960 . S
H1031 C1044 0.960 . S
C1032 H1024 0.929 . S
C1032 C1033 1.377 . S
C1032 C1034 1.384 . S
C1033 C1032 1.377 . S
C1033 C1039 1.390 . S
C1034 H1025 0.930 1_655 S
C1034 C1032 1.384 . S
C1034 C1035 1.372 . S
C1035 C1034 1.372 . S
C1035 C1036 1.400 . S
C1035 C1040 1.490 . S
C1036 H1026 0.930 . S
C1036 C1035 1.400 . S
C1036 C1039 1.386 . S
H1037 C1053 0.930 . S
H1038 C1054 0.931 1_655 S
C1039 H1027 0.929 . S
C1039 C1033 1.390 . S
C1039 C1036 1.386 . S
C1040 C1035 1.490 . S
C1040 C1042 1.395 1_655 S
C1040 C1043 1.403 . S
H1041 C1047 0.930 . S
C1042 H1028 0.930 . S
C1042 C1040 1.395 1_455 S
C1042 C1045 1.403 . S
C1043 C1040 1.403 . S
C1043 C1044 1.524 . S
C1043 C1047 1.400 . S
C1044 H1029 0.960 . S
C1044 H1030 0.960 . S
C1044 H1031 0.960 . S
C1044 C1043 1.524 . S
C1045 C1042 1.403 . S
C1045 C1046 1.392 . S
C1045 C1049 1.495 . S
C1046 C1045 1.392 . S
C1046 C1047 1.385 1_455 S
C1046 C1048 1.478 . S
C1047 H1041 0.930 . S
C1047 C1043 1.400 . S
C1047 C1046 1.385 1_655 S
C1048 C1046 1.478 . S
C1048 C1050 1.381 . S
C1048 C1054 1.383 . S
C1049 C1045 1.495 . S
C1049 H1055 0.959 . S
C1049 H1056 0.961 . S
C1049 H1057 0.960 . S
C1050 C1048 1.381 . S
C1050 C1051 1.394 . S
C1050 H1058 0.930 . S
C1051 C1050 1.394 . S
C1051 C1052 1.383 . S
C1051 H1059 0.929 . S
C1052 C1051 1.383 . S
C1052 C1053 1.377 . S
C1053 H1037 0.930 . S
C1053 C1052 1.377 . S
C1053 C1054 1.379 . S
C1054 H1038 0.931 1_455 S
C1054 C1048 1.383 . S
C1054 C1053 1.379 . S
H1055 C1049 0.959 . S
H1056 C1049 0.961 . S
H1057 C1049 0.960 . S
H1058 C1050 0.930 . S
H1059 C1051 0.929 . S
H1060 C1068 0.929 . S
H1061 C1070 0.930 . S
H1062 C1072 0.930 . S
H1063 C1075 0.929 . S
H1064 C1078 0.930 . S
H1065 C1080 0.960 . S
H1066 C1080 0.960 . S
H1067 C1080 0.960 . S
C1068 H1060 0.929 . S
C1068 C1069 1.377 . S
C1068 C1070 1.384 . S
C1069 C1068 1.377 . S
C1069 C1075 1.390 . S
C1070 H1061 0.930 . S
C1070 C1068 1.384 . S
C1070 C1071 1.372 . S
C1071 C1070 1.372 . S
C1071 C1072 1.400 . S
C1071 C1076 1.490 . S
C1072 H1062 0.930 . S
C1072 C1071 1.400 . S
C1072 C1075 1.386 . S
H1073 C1089 0.930 . S
H1074 C1090 0.931 . S
C1075 H1063 0.929 . S
C1075 C1069 1.390 . S
C1075 C1072 1.386 . S
C1076 C1071 1.490 . S
C1076 C1078 1.395 . S
C1076 C1079 1.403 . S
H1077 C1083 0.930 . S
C1078 H1064 0.930 . S
C1078 C1076 1.395 . S
C1078 C1081 1.403 1_565 S
C1079 C1076 1.403 . S
C1079 C1080 1.524 . S
C1079 C1083 1.400 1_565 S
C1080 H1065 0.960 . S
C1080 H1066 0.960 . S
C1080 H1067 0.960 . S
C1080 C1079 1.524 . S
C1081 C1078 1.403 1_545 S
C1081 C1082 1.392 . S
C1081 C1085 1.495 . S
C1082 C1081 1.392 . S
C1082 C1083 1.385 . S
C1082 C1084 1.478 . S
C1083 H1077 0.930 . S
C1083 C1079 1.400 1_545 S
C1083 C1082 1.385 . S
C1084 C1082 1.478 . S
C1084 C1086 1.381 . S
C1084 C1090 1.383 . S
C1085 C1081 1.495 . S
C1085 H1091 0.959 . S
C1085 H1092 0.961 . S
C1085 H1093 0.960 . S
C1086 C1084 1.381 . S
C1086 C1087 1.394 . S
C1086 H1094 0.930 . S
C1087 C1086 1.394 . S
C1087 C1088 1.383 . S
C1087 H1095 0.929 . S
C1088 C1087 1.383 . S
C1088 C1089 1.377 . S
C1089 H1073 0.930 . S
C1089 C1088 1.377 . S
C1089 C1090 1.379 . S
C1090 H1074 0.931 . S
C1090 C1084 1.383 . S
C1090 C1089 1.379 . S
H1091 C1085 0.959 . S
H1092 C1085 0.961 . S
H1093 C1085 0.960 . S
H1094 C1086 0.930 . S
H1095 C1087 0.929 . S
H1096 C1104 0.929 . S
H1097 C1106 0.930 . S
H1098 C1108 0.930 1_655 S
H1099 C1111 0.929 . S
H1100 C1114 0.930 . S
H1101 C1116 0.966 . S
H1102 C1116 0.960 . S
H1103 C1116 0.960 . S
C1104 H1096 0.929 . S
C1104 C1105 1.377 1_556 S
C1104 C1106 1.384 . S
C1105 C1104 1.377 1_554 S
C1105 C1111 1.390 . S
C1106 H1097 0.930 . S
C1106 C1104 1.384 . S
C1106 C1107 1.373 1_556 S
C1107 C1106 1.373 1_554 S
C1107 C1108 1.398 . S
C1107 C1112 1.488 1_554 S
C1108 H1098 0.930 1_455 S
C1108 C1107 1.398 . S
C1108 C1111 1.386 . S
H1109 C1125 0.930 . S
H1110 C1126 0.931 . S
C1111 H1099 0.929 . S
C1111 C1105 1.390 . S
C1111 C1108 1.386 . S
C1112 C1107 1.488 1_556 S
C1112 C1114 1.449 1_455 S
C1112 C1115 1.354 1_556 S
H1113 C1119 0.930 . S
C1114 H1100 0.930 . S
C1114 C1112 1.449 1_655 S
C1114 C1117 1.403 1_565 S
C1115 C1112 1.354 1_554 S
C1115 C1116 1.524 . S
C1115 C1119 1.400 1_565 S
C1116 H1101 0.966 . S
C1116 H1102 0.960 . S
C1116 H1103 0.960 . S
C1116 C1115 1.524 . S
C1117 C1114 1.403 1_545 S
C1117 C1118 1.392 . S
C1117 C1121 1.495 . S
C1118 C1117 1.392 . S
C1118 C1119 1.385 1_656 S
C1118 C1120 1.478 . S
C1119 H1113 0.930 . S
C1119 C1115 1.400 1_545 S
C1119 C1118 1.385 1_454 S
C1120 C1118 1.478 . S
C1120 C1122 1.381 . S
C1120 C1126 1.383 1_556 S
C1121 C1117 1.495 . S
C1121 H1127 1.019 . S
C1121 H1128 0.961 . S
C1121 H1129 0.960 . S
C1122 C1120 1.381 . S
C1122 C1123 1.394 . S
C1122 H1130 0.930 1_655 S
C1123 C1122 1.394 . S
C1123 C1124 1.383 . S
C1123 H1131 0.929 . S
C1124 C1123 1.383 . S
C1124 C1125 1.377 1_556 S
C1125 H1109 0.930 . S
C1125 C1124 1.377 1_554 S
C1125 C1126 1.379 . S
C1126 H1110 0.931 . S
C1126 C1120 1.383 1_554 S
C1126 C1125 1.379 . S
H1127 C1121 1.019 . S
H1128 C1121 0.961 . S
H1129 C1121 0.960 . S
H1130 C1122 0.930 1_455 S
H1131 C1123 0.929 . S
H1132 C1140 0.929 . S
H1133 C1142 0.930 . S
H1134 C1144 0.930 . S
H1135 C1147 0.929 . S
H1136 C1150 0.930 . S
H1137 C1152 0.960 . S
H1138 C1152 0.960 . S
H1139 C1152 0.960 . S
C1140 H1132 0.929 . S
C1140 C1141 1.377 1_554 S
C1140 C1142 1.384 . S
C1141 C1140 1.377 1_556 S
C1141 C1147 1.390 . S
C1142 H1133 0.930 . S
C1142 C1140 1.384 . S
C1142 C1143 1.372 . S
C1143 C1142 1.372 . S
C1143 C1144 1.400 1_554 S
C1143 C1148 1.490 . S
C1144 H1134 0.930 . S
C1144 C1143 1.400 1_556 S
C1144 C1147 1.386 . S
H1145 C1161 0.930 . S
H1146 C1162 0.931 . S
C1147 H1135 0.929 . S
C1147 C1141 1.390 . S
C1147 C1144 1.386 . S
C1148 C1143 1.490 . S
C1148 C1150 1.390 1_554 S
C1148 C1151 1.407 . S
H1149 C1155 0.930 . S
C1150 H1136 0.930 . S
C1150 C1148 1.390 1_556 S
C1150 C1153 1.403 . S
C1151 C1148 1.407 . S
C1151 C1152 1.524 . S
C1151 C1155 1.400 . S
C1152 H1137 0.960 . S
C1152 H1138 0.960 . S
C1152 H1139 0.960 . S
C1152 C1151 1.524 . S
C1153 C1150 1.403 . S
C1153 C1154 1.393 1_556 S
C1153 C1157 1.495 . S
C1154 C1153 1.393 1_554 S
C1154 C1155 1.384 . S
C1154 C1156 1.478 1_554 S
C1155 H1149 0.930 . S
C1155 C1151 1.400 . S
C1155 C1154 1.384 . S
C1156 C1154 1.478 1_556 S
C1156 C1158 1.385 1_556 S
C1156 C1162 1.379 . S
C1157 C1153 1.495 . S
C1157 H1163 0.959 . S
C1157 H1164 0.961 . S
C1157 H1165 0.945 1_556 S
C1158 C1156 1.385 1_554 S
C1158 C1159 1.394 . S
C1158 H1166 0.930 . S
C1159 C1158 1.394 . S
C1159 C1160 1.383 . S
C1159 H1167 0.929 . S
C1160 C1159 1.383 . S
C1160 C1161 1.377 1_554 S
C1161 H1145 0.930 . S
C1161 C1160 1.377 1_556 S
C1161 C1162 1.379 . S
C1162 H1146 0.931 . S
C1162 C1156 1.379 . S
C1162 C1161 1.379 . S
H1163 C1157 0.959 . S
H1164 C1157 0.961 . S
H1165 C1157 0.945 1_554 S
H1166 C1158 0.930 . S
H1167 C1159 0.929 . S
H1168 C1176 0.924 1_455 S
H1169 C1178 0.930 1_455 S
H1170 C1180 0.930 . S
H1171 C1183 0.929 . S
H1172 C1186 0.930 . S
H1173 C1188 0.960 . S
H1174 C1188 0.960 . S
H1175 C1188 0.960 . S
C1176 H1168 0.924 1_655 S
C1176 C1177 1.377 . S
C1176 C1178 1.384 . S
C1177 C1176 1.377 . S
C1177 C1183 1.390 . S
C1178 H1169 0.930 1_655 S
C1178 C1176 1.384 . S
C1178 C1179 1.372 . S
C1179 C1178 1.372 . S
C1179 C1180 1.400 . S
C1179 C1184 1.490 . S
C1180 H1170 0.930 . S
C1180 C1179 1.400 . S
C1180 C1183 1.386 . S
H1181 C1197 0.930 . S
H1182 C1198 0.931 1_655 S
C1183 H1171 0.929 . S
C1183 C1177 1.390 . S
C1183 C1180 1.386 . S
C1184 C1179 1.490 . S
C1184 C1186 1.395 1_655 S
C1184 C1187 1.403 . S
H1185 C1191 0.930 . S
C1186 H1172 0.930 . S
C1186 C1184 1.395 1_455 S
C1186 C1189 1.403 . S
C1187 C1184 1.403 . S
C1187 C1188 1.524 . S
C1187 C1191 1.400 . S
C1188 H1173 0.960 . S
C1188 H1174 0.960 . S
C1188 H1175 0.960 . S
C1188 C1187 1.524 . S
C1189 C1186 1.403 . S
C1189 C1190 1.392 . S
C1189 C1193 1.495 . S
C1190 C1189 1.392 . S
C1190 C1191 1.385 1_455 S
C1190 C1192 1.478 . S
C1191 H1185 0.930 . S
C1191 C1187 1.400 . S
C1191 C1190 1.385 1_655 S
C1192 C1190 1.478 . S
C1192 C1194 1.381 . S
C1192 C1198 1.383 . S
C1193 C1189 1.495 . S
C1193 H1199 0.959 . S
C1193 H1200 0.961 . S
C1193 H1201 0.960 . S
C1194 C1192 1.381 . S
C1194 C1195 1.394 . S
C1194 H1202 0.930 . S
C1195 C1194 1.394 . S
C1195 C1196 1.383 . S
C1195 H1203 0.929 . S
C1196 C1195 1.383 . S
C1196 C1197 1.377 . S
C1197 H1181 0.930 . S
C1197 C1196 1.377 . S
C1197 C1198 1.379 . S
C1198 H1182 0.931 1_455 S
C1198 C1192 1.383 . S
C1198 C1197 1.379 . S
H1199 C1193 0.959 . S
H1200 C1193 0.961 . S
H1201 C1193 0.960 . S
H1202 C1194 0.930 . S
H1203 C1195 0.929 . S
H1204 C1212 0.929 . S
H1205 C1214 0.930 . S
H1206 C1216 0.930 . S
H1207 C1219 0.929 . S
H1208 C1222 0.930 . S
H1209 C1224 0.960 1_545 S
H1210 C1224 0.960 . S
H1211 C1224 0.960 . S
C1212 H1204 0.929 . S
C1212 C1213 1.377 . S
C1212 C1214 1.384 . S
C1213 C1212 1.377 . S
C1213 C1219 1.390 . S
C1214 H1205 0.930 . S
C1214 C1212 1.384 . S
C1214 C1215 1.372 . S
C1215 C1214 1.372 . S
C1215 C1216 1.400 . S
C1215 C1220 1.490 . S
C1216 H1206 0.930 . S
C1216 C1215 1.400 . S
C1216 C1219 1.386 . S
H1217 C1233 0.930 . S
H1218 C1234 0.931 . S
C1219 H1207 0.929 . S
C1219 C1213 1.390 . S
C1219 C1216 1.386 . S
C1220 C1215 1.490 . S
C1220 C1222 1.395 . S
C1220 C1223 1.403 . S
H1221 C1227 0.930 . S
C1222 H1208 0.930 . S
C1222 C1220 1.395 . S
C1222 C1225 1.403 1_565 S
C1223 C1220 1.403 . S
C1223 C1224 1.524 . S
C1223 C1227 1.400 1_565 S
C1224 H1209 0.960 1_565 S
C1224 H1210 0.960 . S
C1224 H1211 0.960 . S
C1224 C1223 1.524 . S
C1225 C1222 1.403 1_545 S
C1225 C1226 1.392 . S
C1225 C1229 1.495 . S
C1226 C1225 1.392 . S
C1226 C1227 1.385 . S
C1226 C1228 1.478 . S
C1227 H1221 0.930 . S
C1227 C1223 1.400 1_545 S
C1227 C1226 1.385 . S
C1228 C1226 1.478 . S
C1228 C1230 1.381 . S
C1228 C1234 1.383 . S
C1229 C1225 1.495 . S
C1229 H1235 0.959 1_545 S
C1229 H1236 0.961 . S
C1229 H1237 0.960 . S
C1230 C1228 1.381 . S
C1230 C1231 1.394 . S
C1230 H1238 0.930 . S
C1231 C1230 1.394 . S
C1231 C1232 1.383 . S
C1231 H1239 0.929 . S
C1232 C1231 1.383 . S
C1232 C1233 1.377 . S
C1233 H1217 0.930 . S
C1233 C1232 1.377 . S
C1233 C1234 1.379 . S
C1234 H1218 0.931 . S
C1234 C1228 1.383 . S
C1234 C1233 1.379 . S
H1235 C1229 0.959 1_565 S
H1236 C1229 0.961 . S
H1237 C1229 0.960 . S
H1238 C1230 0.930 . S
H1239 C1231 0.929 . S
H1240 C1248 0.929 . S
H1241 C1250 0.930 . S
H1242 C1252 0.930 . S
H1243 C1255 0.929 . S
H1244 C1258 0.930 . S
H1245 C1260 0.960 . S
H1246 C1260 0.960 . S
H1247 C1260 0.960 . S
C1248 H1240 0.929 . S
C1248 C1249 1.377 . S
C1248 C1250 1.384 . S
C1249 C1248 1.377 . S
C1249 C1255 1.390 1_554 S
C1250 H1241 0.930 . S
C1250 C1248 1.384 . S
C1250 C1251 1.372 . S
C1251 C1250 1.372 . S
C1251 C1252 1.400 1_554 S
C1251 C1256 1.492 . S
C1252 H1242 0.930 . S
C1252 C1251 1.400 1_556 S
C1252 C1255 1.386 . S
H1253 C1269 0.930 . S
H1254 C1270 0.931 . S
C1255 H1243 0.929 . S
C1255 C1249 1.390 1_556 S
C1255 C1252 1.386 . S
C1256 C1251 1.492 . S
C1256 C1258 1.379 1_554 S
C1256 C1259 1.417 . S
H1257 C1263 0.930 . S
C1258 H1244 0.930 . S
C1258 C1256 1.379 1_556 S
C1258 C1261 1.403 . S
C1259 C1256 1.417 . S
C1259 C1260 1.524 . S
C1259 C1263 1.400 . S
C1260 H1245 0.960 . S
C1260 H1246 0.960 . S
C1260 H1247 0.960 . S
C1260 C1259 1.524 . S
C1261 C1258 1.403 . S
C1261 C1262 1.392 . S
C1261 C1265 1.495 . S
C1262 C1261 1.392 . S
C1262 C1263 1.385 1_556 S
C1262 C1264 1.478 . S
C1263 H1257 0.930 . S
C1263 C1259 1.400 . S
C1263 C1262 1.385 1_554 S
C1264 C1262 1.478 . S
C1264 C1266 1.381 1_556 S
C1264 C1270 1.383 . S
C1265 C1261 1.495 . S
C1265 H1271 0.959 . S
C1265 H1272 0.961 . S
C1265 H1273 0.960 . S
C1266 C1264 1.381 1_554 S
C1266 C1267 1.394 . S
C1266 H1274 0.930 . S
C1267 C1266 1.394 . S
C1267 C1268 1.383 1_554 S
C1267 H1275 0.929 . S
C1268 C1267 1.383 1_556 S
C1268 C1269 1.377 . S
C1269 H1253 0.930 . S
C1269 C1268 1.377 . S
C1269 C1270 1.379 . S
C1270 H1254 0.931 . S
C1270 C1264 1.383 . S
C1270 C1269 1.379 . S
H1271 C1265 0.959 . S
H1272 C1265 0.961 . S
H1273 C1265 0.960 . S
H1274 C1266 0.930 . S
H1275 C1267 0.929 . S
H1276 C1284 0.929 . S
H1277 C1286 0.930 . S
H1278 C1288 0.930 . S
H1279 C1291 0.929 . S
H1280 C1294 0.930 . S
H1281 C1296 0.960 . S
H1282 C1296 0.960 . S
H1283 C1296 0.960 . S
C1284 H1276 0.929 . S
C1284 C1285 1.377 . S
C1284 C1286 1.384 . S
C1285 C1284 1.377 . S
C1285 C1291 1.390 . S
C1286 H1277 0.930 . S
C1286 C1284 1.384 . S
C1286 C1287 1.372 . S
C1287 C1286 1.372 . S
C1287 C1288 1.400 . S
C1287 C1292 1.490 . S
C1288 H1278 0.930 . S
C1288 C1287 1.400 . S
C1288 C1291 1.386 . S
H1289 C1305 0.930 . S
H1290 C1306 0.931 . S
C1291 H1279 0.929 . S
C1291 C1285 1.390 . S
C1291 C1288 1.386 . S
C1292 C1287 1.490 . S
C1292 C1294 1.395 . S
C1292 C1295 1.403 . S
H1293 C1299 0.930 . S
C1294 H1280 0.930 . S
C1294 C1292 1.395 . S
C1294 C1297 1.403 . S
C1295 C1292 1.403 . S
C1295 C1296 1.524 . S
C1295 C1299 1.400 . S
C1296 H1281 0.960 . S
C1296 H1282 0.960 . S
C1296 H1283 0.960 . S
C1296 C1295 1.524 . S
C1297 C1294 1.403 . S
C1297 C1298 1.392 . S
C1297 C1301 1.495 . S
C1298 C1297 1.392 . S
C1298 C1299 1.385 . S
C1298 C1300 1.478 . S
C1299 H1293 0.930 . S
C1299 C1295 1.400 . S
C1299 C1298 1.385 . S
C1300 C1298 1.478 . S
C1300 C1302 1.381 . S
C1300 C1306 1.383 . S
C1301 C1297 1.495 . S
C1301 H1307 0.959 . S
C1301 H1308 0.961 . S
C1301 H1309 0.960 . S
C1302 C1300 1.381 . S
C1302 C1303 1.394 . S
C1302 H1310 0.930 . S
C1303 C1302 1.394 . S
C1303 C1304 1.383 . S
C1303 H1311 0.929 . S
C1304 C1303 1.383 . S
C1304 C1305 1.377 . S
C1305 H1289 0.930 . S
C1305 C1304 1.377 . S
C1305 C1306 1.379 . S
C1306 H1290 0.931 . S
C1306 C1300 1.383 . S
C1306 C1305 1.379 . S
H1307 C1301 0.959 . S
H1308 C1301 0.961 . S
H1309 C1301 0.960 . S
H1310 C1302 0.930 . S
H1311 C1303 0.929 . S
H1312 C1320 0.929 . S
H1313 C1322 0.930 1_455 S
H1314 C1324 0.930 . S
H1315 C1327 0.929 . S
H1316 C1330 0.930 . S
H1317 C1332 0.960 . S
H1318 C1332 0.960 . S
H1319 C1332 0.960 . S
C1320 H1312 0.929 . S
C1320 C1321 1.377 . S
C1320 C1322 1.384 . S
C1321 C1320 1.377 . S
C1321 C1327 1.390 . S
C1322 H1313 0.930 1_655 S
C1322 C1320 1.384 . S
C1322 C1323 1.372 . S
C1323 C1322 1.372 . S
C1323 C1324 1.400 . S
C1323 C1328 1.490 . S
C1324 H1314 0.930 . S
C1324 C1323 1.400 . S
C1324 C1327 1.386 . S
H1325 C1341 0.930 . S
H1326 C1342 0.931 1_655 S
C1327 H1315 0.929 . S
C1327 C1321 1.390 . S
C1327 C1324 1.386 . S
C1328 C1323 1.490 . S
C1328 C1330 1.395 1_655 S
C1328 C1331 1.403 . S
H1329 C1335 0.930 . S
C1330 H1316 0.930 . S
C1330 C1328 1.395 1_455 S
C1330 C1333 1.403 . S
C1331 C1328 1.403 . S
C1331 C1332 1.524 . S
C1331 C1335 1.400 . S
C1332 H1317 0.960 . S
C1332 H1318 0.960 . S
C1332 H1319 0.960 . S
C1332 C1331 1.524 . S
C1333 C1330 1.403 . S
C1333 C1334 1.392 . S
C1333 C1337 1.495 . S
C1334 C1333 1.392 . S
C1334 C1335 1.385 1_455 S
C1334 C1336 1.478 . S
C1335 H1329 0.930 . S
C1335 C1331 1.400 . S
C1335 C1334 1.385 1_655 S
C1336 C1334 1.478 . S
C1336 C1338 1.381 . S
C1336 C1342 1.383 . S
C1337 C1333 1.495 . S
C1337 H1343 0.959 . S
C1337 H1344 0.961 . S
C1337 H1345 0.960 . S
C1338 C1336 1.381 . S
C1338 C1339 1.394 . S
C1338 H1346 0.930 . S
C1339 C1338 1.394 . S
C1339 C1340 1.383 . S
C1339 H1347 0.929 . S
C1340 C1339 1.383 . S
C1340 C1341 1.377 . S
C1341 H1325 0.930 . S
C1341 C1340 1.377 . S
C1341 C1342 1.379 . S
C1342 H1326 0.931 1_455 S
C1342 C1336 1.383 . S
C1342 C1341 1.379 . S
H1343 C1337 0.959 . S
H1344 C1337 0.961 . S
H1345 C1337 0.960 . S
H1346 C1338 0.930 . S
H1347 C1339 0.929 . S
H1348 C1356 0.929 . S
H1349 C1358 0.930 . S
H1350 C1360 0.930 . S
H1351 C1363 0.929 . S
H1352 C1366 0.930 . S
H1353 C1368 0.960 . S
H1354 C1368 0.960 . S
H1355 C1368 0.960 . S
C1356 H1348 0.929 . S
C1356 C1357 1.377 . S
C1356 C1358 1.384 . S
C1357 C1356 1.377 . S
C1357 C1363 1.390 . S
C1358 H1349 0.930 . S
C1358 C1356 1.384 . S
C1358 C1359 1.372 . S
C1359 C1358 1.372 . S
C1359 C1360 1.400 . S
C1359 C1364 1.490 . S
C1360 H1350 0.930 . S
C1360 C1359 1.400 . S
C1360 C1363 1.386 . S
H1361 C1377 0.930 . S
H1362 C1378 0.931 . S
C1363 H1351 0.929 . S
C1363 C1357 1.390 . S
C1363 C1360 1.386 . S
C1364 C1359 1.490 . S
C1364 C1366 1.395 . S
C1364 C1367 1.403 . S
H1365 C1371 0.930 . S
C1366 H1352 0.930 . S
C1366 C1364 1.395 . S
C1366 C1369 1.403 . S
C1367 C1364 1.403 . S
C1367 C1368 1.524 . S
C1367 C1371 1.400 . S
C1368 H1353 0.960 . S
C1368 H1354 0.960 . S
C1368 H1355 0.960 . S
C1368 C1367 1.524 . S
C1369 C1366 1.403 . S
C1369 C1370 1.392 . S
C1369 C1373 1.495 . S
C1370 C1369 1.392 . S
C1370 C1371 1.385 . S
C1370 C1372 1.478 . S
C1371 H1365 0.930 . S
C1371 C1367 1.400 . S
C1371 C1370 1.385 . S
C1372 C1370 1.478 . S
C1372 C1374 1.381 . S
C1372 C1378 1.383 . S
C1373 C1369 1.495 . S
C1373 H1379 0.959 . S
C1373 H1380 0.961 . S
C1373 H1381 0.960 . S
C1374 C1372 1.381 . S
C1374 C1375 1.394 . S
C1374 H1382 0.930 . S
C1375 C1374 1.394 . S
C1375 C1376 1.383 . S
C1375 H1383 0.929 . S
C1376 C1375 1.383 . S
C1376 C1377 1.377 . S
C1377 H1361 0.930 . S
C1377 C1376 1.377 . S
C1377 C1378 1.379 . S
C1378 H1362 0.931 . S
C1378 C1372 1.383 . S
C1378 C1377 1.379 . S
H1379 C1373 0.959 . S
H1380 C1373 0.961 . S
H1381 C1373 0.960 . S
H1382 C1374 0.930 . S
H1383 C1375 0.929 . S
H1384 C1392 0.929 . S
H1385 C1394 0.930 . S
H1386 C1396 0.930 . S
H1387 C1399 0.929 . S
H1388 C1402 0.930 . S
H1389 C1404 0.960 . S
H1390 C1404 0.960 . S
H1391 C1404 0.960 . S
C1392 H1384 0.929 . S
C1392 C1393 1.377 . S
C1392 C1394 1.384 . S
C1393 C1392 1.377 . S
C1393 C1399 1.390 . S
C1394 H1385 0.930 . S
C1394 C1392 1.384 . S
C1394 C1395 1.372 . S
C1395 C1394 1.372 . S
C1395 C1396 1.400 . S
C1395 C1400 1.490 . S
C1396 H1386 0.930 . S
C1396 C1395 1.400 . S
C1396 C1399 1.386 . S
H1397 C1413 0.930 . S
H1398 C1414 0.931 . S
C1399 H1387 0.929 . S
C1399 C1393 1.390 . S
C1399 C1396 1.386 . S
C1400 C1395 1.490 . S
C1400 C1402 1.395 . S
C1400 C1403 1.403 . S
H1401 C1407 0.930 . S
C1402 H1388 0.930 . S
C1402 C1400 1.395 . S
C1402 C1405 1.403 . S
C1403 C1400 1.403 . S
C1403 C1404 1.524 . S
C1403 C1407 1.400 . S
C1404 H1389 0.960 . S
C1404 H1390 0.960 . S
C1404 H1391 0.960 . S
C1404 C1403 1.524 . S
C1405 C1402 1.403 . S
C1405 C1406 1.392 . S
C1405 C1409 1.495 . S
C1406 C1405 1.392 . S
C1406 C1407 1.385 . S
C1406 C1408 1.478 . S
C1407 H1401 0.930 . S
C1407 C1403 1.400 . S
C1407 C1406 1.385 . S
C1408 C1406 1.478 . S
C1408 C1410 1.381 . S
C1408 C1414 1.383 . S
C1409 C1405 1.495 . S
C1409 H1415 0.959 . S
C1409 H1416 0.961 . S
C1409 H1417 0.960 . S
C1410 C1408 1.381 . S
C1410 C1411 1.394 . S
C1410 H1418 0.930 . S
C1411 C1410 1.394 . S
C1411 C1412 1.383 . S
C1411 H1419 0.929 . S
C1412 C1411 1.383 . S
C1412 C1413 1.377 . S
C1413 H1397 0.930 . S
C1413 C1412 1.377 . S
C1413 C1414 1.379 . S
C1414 H1398 0.931 . S
C1414 C1408 1.383 . S
C1414 C1413 1.379 . S
H1415 C1409 0.959 . S
H1416 C1409 0.961 . S
H1417 C1409 0.960 . S
H1418 C1410 0.930 . S
H1419 C1411 0.929 . S
H1420 C1428 0.929 . S
H1421 C1430 0.930 . S
H1422 C1432 0.930 . S
H1423 C1435 0.929 . S
H1424 C1438 0.930 . S
H1425 C1440 0.960 . S
H1426 C1440 0.960 . S
H1427 C1440 0.960 . S
C1428 H1420 0.929 . S
C1428 C1429 1.377 . S
C1428 C1430 1.384 . S
C1429 C1428 1.377 . S
C1429 C1435 1.390 . S
C1430 H1421 0.930 . S
C1430 C1428 1.384 . S
C1430 C1431 1.372 . S
C1431 C1430 1.372 . S
C1431 C1432 1.400 . S
C1431 C1436 1.490 . S
C1432 H1422 0.930 . S
C1432 C1431 1.400 . S
C1432 C1435 1.386 . S
H1433 C1449 0.930 . S
H1434 C1450 0.931 . S
C1435 H1423 0.929 . S
C1435 C1429 1.390 . S
C1435 C1432 1.386 . S
C1436 C1431 1.490 . S
C1436 C1438 1.395 . S
C1436 C1439 1.403 . S
H1437 C1443 0.930 . S
C1438 H1424 0.930 . S
C1438 C1436 1.395 . S
C1438 C1441 1.403 . S
C1439 C1436 1.403 . S
C1439 C1440 1.524 . S
C1439 C1443 1.400 . S
C1440 H1425 0.960 . S
C1440 H1426 0.960 . S
C1440 H1427 0.960 . S
C1440 C1439 1.524 . S
C1441 C1438 1.403 . S
C1441 C1442 1.392 . S
C1441 C1445 1.495 . S
C1442 C1441 1.392 . S
C1442 C1443 1.385 . S
C1442 C1444 1.478 . S
C1443 H1437 0.930 . S
C1443 C1439 1.400 . S
C1443 C1442 1.385 . S
C1444 C1442 1.478 . S
C1444 C1446 1.381 . S
C1444 C1450 1.383 . S
C1445 C1441 1.495 . S
C1445 H1451 0.959 . S
C1445 H1452 0.961 . S
C1445 H1453 0.960 . S
C1446 C1444 1.381 . S
C1446 C1447 1.394 . S
C1446 H1454 0.930 . S
C1447 C1446 1.394 . S
C1447 C1448 1.383 . S
C1447 H1455 0.929 . S
C1448 C1447 1.383 . S
C1448 C1449 1.377 . S
C1449 H1433 0.930 . S
C1449 C1448 1.377 . S
C1449 C1450 1.379 . S
C1450 H1434 0.931 . S
C1450 C1444 1.383 . S
C1450 C1449 1.379 . S
H1451 C1445 0.959 . S
H1452 C1445 0.961 . S
H1453 C1445 0.960 . S
H1454 C1446 0.930 . S
H1455 C1447 0.929 . S
H1456 C1464 0.929 . S
H1457 C1466 0.930 . S
H1458 C1468 0.930 . S
H1459 C1471 0.929 . S
H1460 C1474 0.930 . S
H1461 C1476 0.960 . S
H1462 C1476 0.960 . S
H1463 C1476 0.960 . S
C1464 H1456 0.929 . S
C1464 C1465 1.377 . S
C1464 C1466 1.384 . S
C1465 C1464 1.377 . S
C1465 C1471 1.390 . S
C1466 H1457 0.930 . S
C1466 C1464 1.384 . S
C1466 C1467 1.372 . S
C1467 C1466 1.372 . S
C1467 C1468 1.400 . S
C1467 C1472 1.490 . S
C1468 H1458 0.930 . S
C1468 C1467 1.400 . S
C1468 C1471 1.386 . S
H1469 C1485 0.930 . S
H1470 C1486 0.931 . S
C1471 H1459 0.929 . S
C1471 C1465 1.390 . S
C1471 C1468 1.386 . S
C1472 C1467 1.490 . S
C1472 C1474 1.395 . S
C1472 C1475 1.403 . S
H1473 C1479 0.930 . S
C1474 H1460 0.930 . S
C1474 C1472 1.395 . S
C1474 C1477 1.403 . S
C1475 C1472 1.403 . S
C1475 C1476 1.524 . S
C1475 C1479 1.400 . S
C1476 H1461 0.960 . S
C1476 H1462 0.960 . S
C1476 H1463 0.960 . S
C1476 C1475 1.524 . S
C1477 C1474 1.403 . S
C1477 C1478 1.392 . S
C1477 C1481 1.495 . S
C1478 C1477 1.392 . S
C1478 C1479 1.385 . S
C1478 C1480 1.478 . S
C1479 H1473 0.930 . S
C1479 C1475 1.400 . S
C1479 C1478 1.385 . S
C1480 C1478 1.478 . S
C1480 C1482 1.381 . S
C1480 C1486 1.383 . S
C1481 C1477 1.495 . S
C1481 H1487 0.959 . S
C1481 H1488 0.961 . S
C1481 H1489 0.960 . S
C1482 C1480 1.381 . S
C1482 C1483 1.394 . S
C1482 H1490 0.930 . S
C1483 C1482 1.394 . S
C1483 C1484 1.383 . S
C1483 H1491 0.929 . S
C1484 C1483 1.383 . S
C1484 C1485 1.377 . S
C1485 H1469 0.930 . S
C1485 C1484 1.377 . S
C1485 C1486 1.379 . S
C1486 H1470 0.931 . S
C1486 C1480 1.383 . S
C1486 C1485 1.379 . S
H1487 C1481 0.959 . S
H1488 C1481 0.961 . S
H1489 C1481 0.960 . S
H1490 C1482 0.930 . S
H1491 C1483 0.929 . S
H1492 C1500 0.929 . S
H1493 C1502 0.930 . S
H1494 C1504 0.930 . S
H1495 C1507 0.929 . S
H1496 C1510 0.930 . S
H1497 C1512 0.960 . S
H1498 C1512 0.960 . S
H1499 C1512 0.960 . S
C1500 H1492 0.929 . S
C1500 C1501 1.377 . S
C1500 C1502 1.384 . S
C1501 C1500 1.377 . S
C1501 C1507 1.390 . S
C1502 H1493 0.930 . S
C1502 C1500 1.384 . S
C1502 C1503 1.372 . S
C1503 C1502 1.372 . S
C1503 C1504 1.400 . S
C1503 C1508 1.490 . S
C1504 H1494 0.930 . S
C1504 C1503 1.400 . S
C1504 C1507 1.386 . S
H1505 C1521 0.930 . S
H1506 C1522 0.931 . S
C1507 H1495 0.929 . S
C1507 C1501 1.390 . S
C1507 C1504 1.386 . S
C1508 C1503 1.490 . S
C1508 C1510 1.395 . S
C1508 C1511 1.403 . S
H1509 C1515 0.930 . S
C1510 H1496 0.930 . S
C1510 C1508 1.395 . S
C1510 C1513 1.403 1_545 S
C1511 C1508 1.403 . S
C1511 C1512 1.524 . S
C1511 C1515 1.400 1_545 S
C1512 H1497 0.960 . S
C1512 H1498 0.960 . S
C1512 H1499 0.960 . S
C1512 C1511 1.524 . S
C1513 C1510 1.403 1_565 S
C1513 C1514 1.392 . S
C1513 C1517 1.495 . S
C1514 C1513 1.392 . S
C1514 C1515 1.385 . S
C1514 C1516 1.478 . S
C1515 H1509 0.930 . S
C1515 C1511 1.400 1_565 S
C1515 C1514 1.385 . S
C1516 C1514 1.478 . S
C1516 C1518 1.381 . S
C1516 C1522 1.383 . S
C1517 C1513 1.495 . S
C1517 H1523 0.959 . S
C1517 H1524 0.961 . S
C1517 H1525 0.960 . S
C1518 C1516 1.381 . S
C1518 C1519 1.394 . S
C1518 H1526 0.930 . S
C1519 C1518 1.394 . S
C1519 C1520 1.383 . S
C1519 H1527 0.929 . S
C1520 C1519 1.383 . S
C1520 C1521 1.377 . S
C1521 H1505 0.930 . S
C1521 C1520 1.377 . S
C1521 C1522 1.379 . S
C1522 H1506 0.931 . S
C1522 C1516 1.383 . S
C1522 C1521 1.379 . S
H1523 C1517 0.959 . S
H1524 C1517 0.961 . S
H1525 C1517 0.960 . S
H1526 C1518 0.930 . S
H1527 C1519 0.929 . S
H1528 C1536 0.929 . S
H1529 C1538 0.930 . S
H1530 C1540 0.930 . S
H1531 C1543 0.929 . S
H1532 C1546 0.930 . S
H1533 C1548 0.960 . S
H1534 C1548 0.960 . S
H1535 C1548 0.960 . S
C1536 H1528 0.929 . S
C1536 C1537 1.377 . S
C1536 C1538 1.384 . S
C1537 C1536 1.377 . S
C1537 C1543 1.390 . S
C1538 H1529 0.930 . S
C1538 C1536 1.384 . S
C1538 C1539 1.372 . S
C1539 C1538 1.372 . S
C1539 C1540 1.400 . S
C1539 C1544 1.490 . S
C1540 H1530 0.930 . S
C1540 C1539 1.400 . S
C1540 C1543 1.386 . S
H1541 C1557 0.930 . S
H1542 C1558 0.931 . S
C1543 H1531 0.929 . S
C1543 C1537 1.390 . S
C1543 C1540 1.386 . S
C1544 C1539 1.490 . S
C1544 C1546 1.395 . S
C1544 C1547 1.403 . S
H1545 C1551 0.930 . S
C1546 H1532 0.930 . S
C1546 C1544 1.395 . S
C1546 C1549 1.403 . S
C1547 C1544 1.403 . S
C1547 C1548 1.524 . S
C1547 C1551 1.400 . S
C1548 H1533 0.960 . S
C1548 H1534 0.960 . S
C1548 H1535 0.960 . S
C1548 C1547 1.524 . S
C1549 C1546 1.403 . S
C1549 C1550 1.392 . S
C1549 C1553 1.495 . S
C1550 C1549 1.392 . S
C1550 C1551 1.385 . S
C1550 C1552 1.478 . S
C1551 H1545 0.930 . S
C1551 C1547 1.400 . S
C1551 C1550 1.385 . S
C1552 C1550 1.478 . S
C1552 C1554 1.381 . S
C1552 C1558 1.383 . S
C1553 C1549 1.495 . S
C1553 H1559 0.959 . S
C1553 H1560 0.961 . S
C1553 H1561 0.960 . S
C1554 C1552 1.381 . S
C1554 C1555 1.394 . S
C1554 H1562 0.930 . S
C1555 C1554 1.394 . S
C1555 C1556 1.383 . S
C1555 H1563 0.929 . S
C1556 C1555 1.383 . S
C1556 C1557 1.377 . S
C1557 H1541 0.930 . S
C1557 C1556 1.377 . S
C1557 C1558 1.379 . S
C1558 H1542 0.931 . S
C1558 C1552 1.383 . S
C1558 C1557 1.379 . S
H1559 C1553 0.959 . S
H1560 C1553 0.961 . S
H1561 C1553 0.960 . S
H1562 C1554 0.930 . S
H1563 C1555 0.929 . S
H1564 C1572 0.929 . S
H1565 C1574 0.930 . S
H1566 C1576 0.930 . S
H1567 C1579 0.929 . S
H1568 C1582 0.932 . S
H1569 C1584 0.960 . S
H1570 C1584 0.960 . S
H1571 C1584 0.960 1_554 S
C1572 H1564 0.929 . S
C1572 C1573 1.377 1_556 S
C1572 C1574 1.384 . S
C1573 C1572 1.377 1_554 S
C1573 C1579 1.390 . S
C1574 H1565 0.930 . S
C1574 C1572 1.384 . S
C1574 C1575 1.377 . S
C1575 C1574 1.377 . S
C1575 C1576 1.394 1_556 S
C1575 C1580 1.490 . S
C1576 H1566 0.930 . S
C1576 C1575 1.394 1_554 S
C1576 C1579 1.386 . S
H1577 C1593 0.930 . S
H1578 C1594 0.931 . S
C1579 H1567 0.929 . S
C1579 C1573 1.390 . S
C1579 C1576 1.386 . S
C1580 C1575 1.490 . S
C1580 C1582 1.392 1_556 S
C1580 C1583 1.406 . S
H1581 C1587 0.930 . S
C1582 H1568 0.932 . S
C1582 C1580 1.392 1_554 S
C1582 C1585 1.403 . S
C1583 C1580 1.406 . S
C1583 C1584 1.524 . S
C1583 C1587 1.400 . S
C1584 H1569 0.960 . S
C1584 H1570 0.960 . S
C1584 H1571 0.960 1_556 S
C1584 C1583 1.524 . S
C1585 C1582 1.403 . S
C1585 C1586 1.389 1_554 S
C1585 C1589 1.498 . S
C1586 C1585 1.389 1_556 S
C1586 C1587 1.389 . S
C1586 C1588 1.478 . S
C1587 H1581 0.930 . S
C1587 C1583 1.400 . S
C1587 C1586 1.389 . S
C1588 C1586 1.478 . S
C1588 C1590 1.415 . S
C1588 C1594 1.350 1_556 S
C1589 C1585 1.498 . S
C1589 H1595 0.959 . S
C1589 H1596 0.961 . S
C1589 H1597 0.960 1_554 S
C1590 C1588 1.415 . S
C1590 C1591 1.394 . S
C1590 H1598 0.930 . S
C1591 C1590 1.394 . S
C1591 C1592 1.383 . S
C1591 H1599 0.929 . S
C1592 C1591 1.383 . S
C1592 C1593 1.377 1_556 S
C1593 H1577 0.930 . S
C1593 C1592 1.377 1_554 S
C1593 C1594 1.379 . S
C1594 H1578 0.931 . S
C1594 C1588 1.350 1_554 S
C1594 C1593 1.379 . S
H1595 C1589 0.959 . S
H1596 C1589 0.961 . S
H1597 C1589 0.960 1_556 S
H1598 C1590 0.930 . S
H1599 C1591 0.929 . S
H1600 C1608 0.929 . S
H1601 C1610 0.930 . S
H1602 C1612 0.930 . S
H1603 C1615 0.929 . S
H1604 C1618 0.930 . S
H1605 C1620 0.960 1_655 S
H1606 C1620 0.960 . S
H1607 C1620 0.960 . S
C1608 H1600 0.929 . S
C1608 C1609 1.377 . S
C1608 C1610 1.384 . S
C1609 C1608 1.377 . S
C1609 C1615 1.390 . S
C1610 H1601 0.930 . S
C1610 C1608 1.384 . S
C1610 C1611 1.372 . S
C1611 C1610 1.372 . S
C1611 C1612 1.400 . S
C1611 C1616 1.490 . S
C1612 H1602 0.930 . S
C1612 C1611 1.400 . S
C1612 C1615 1.386 . S
H1613 C1629 0.930 . S
H1614 C1630 0.931 . S
C1615 H1603 0.929 . S
C1615 C1609 1.390 . S
C1615 C1612 1.386 . S
C1616 C1611 1.490 . S
C1616 C1618 1.395 . S
C1616 C1619 1.403 . S
H1617 C1623 0.930 . S
C1618 H1604 0.930 . S
C1618 C1616 1.395 . S
C1618 C1621 1.403 . S
C1619 C1616 1.403 . S
C1619 C1620 1.524 . S
C1619 C1623 1.400 . S
C1620 H1605 0.960 1_455 S
C1620 H1606 0.960 . S
C1620 H1607 0.960 . S
C1620 C1619 1.524 . S
C1621 C1618 1.403 . S
C1621 C1622 1.392 . S
C1621 C1625 1.495 . S
C1622 C1621 1.392 . S
C1622 C1623 1.385 . S
C1622 C1624 1.478 . S
C1623 H1617 0.930 . S
C1623 C1619 1.400 . S
C1623 C1622 1.385 . S
C1624 C1622 1.478 . S
C1624 C1626 1.381 . S
C1624 C1630 1.383 . S
C1625 C1621 1.495 . S
C1625 H1631 0.959 . S
C1625 H1632 0.961 . S
C1625 H1633 0.960 . S
C1626 C1624 1.381 . S
C1626 C1627 1.394 . S
C1626 H1634 0.930 . S
C1627 C1626 1.394 . S
C1627 C1628 1.383 . S
C1627 H1635 0.929 . S
C1628 C1627 1.383 . S
C1628 C1629 1.377 . S
C1629 H1613 0.930 . S
C1629 C1628 1.377 . S
C1629 C1630 1.379 . S
C1630 H1614 0.931 . S
C1630 C1624 1.383 . S
C1630 C1629 1.379 . S
H1631 C1625 0.959 . S
H1632 C1625 0.961 . S
H1633 C1625 0.960 . S
H1634 C1626 0.930 . S
H1635 C1627 0.929 . S
H1636 C1644 0.929 . S
H1637 C1646 0.930 . S
H1638 C1648 0.930 . S
H1639 C1651 0.929 . S
H1640 C1654 0.930 . S
H1641 C1656 0.960 . S
H1642 C1656 0.960 . S
H1643 C1656 0.960 . S
C1644 H1636 0.929 . S
C1644 C1645 1.377 . S
C1644 C1646 1.384 . S
C1645 C1644 1.377 . S
C1645 C1651 1.390 . S
C1646 H1637 0.930 . S
C1646 C1644 1.384 . S
C1646 C1647 1.372 . S
C1647 C1646 1.372 . S
C1647 C1648 1.400 . S
C1647 C1652 1.490 . S
C1648 H1638 0.930 . S
C1648 C1647 1.400 . S
C1648 C1651 1.386 . S
H1649 C1665 0.930 . S
H1650 C1666 0.931 . S
C1651 H1639 0.929 . S
C1651 C1645 1.390 . S
C1651 C1648 1.386 . S
C1652 C1647 1.490 . S
C1652 C1654 1.395 . S
C1652 C1655 1.403 . S
H1653 C1659 0.930 . S
C1654 H1640 0.930 . S
C1654 C1652 1.395 . S
C1654 C1657 1.403 . S
C1655 C1652 1.403 . S
C1655 C1656 1.524 . S
C1655 C1659 1.400 . S
C1656 H1641 0.960 . S
C1656 H1642 0.960 . S
C1656 H1643 0.960 . S
C1656 C1655 1.524 . S
C1657 C1654 1.403 . S
C1657 C1658 1.392 . S
C1657 C1661 1.495 . S
C1658 C1657 1.392 . S
C1658 C1659 1.385 . S
C1658 C1660 1.478 . S
C1659 H1653 0.930 . S
C1659 C1655 1.400 . S
C1659 C1658 1.385 . S
C1660 C1658 1.478 . S
C1660 C1662 1.381 . S
C1660 C1666 1.383 . S
C1661 C1657 1.495 . S
C1661 H1667 0.959 . S
C1661 H1668 0.961 . S
C1661 H1669 0.960 . S
C1662 C1660 1.381 . S
C1662 C1663 1.394 . S
C1662 H1670 0.930 . S
C1663 C1662 1.394 . S
C1663 C1664 1.383 . S
C1663 H1671 0.929 . S
C1664 C1663 1.383 . S
C1664 C1665 1.377 . S
C1665 H1649 0.930 . S
C1665 C1664 1.377 . S
C1665 C1666 1.379 . S
C1666 H1650 0.931 . S
C1666 C1660 1.383 . S
C1666 C1665 1.379 . S
H1667 C1661 0.959 . S
H1668 C1661 0.961 . S
H1669 C1661 0.960 . S
H1670 C1662 0.930 . S
H1671 C1663 0.929 . S
H1672 C1680 0.929 . S
H1673 C1682 0.930 . S
H1674 C1684 0.930 . S
H1675 C1687 0.929 . S
H1676 C1690 0.930 . S
H1677 C1692 0.960 . S
H1678 C1692 0.960 . S
H1679 C1692 0.960 . S
C1680 H1672 0.929 . S
C1680 C1681 1.377 . S
C1680 C1682 1.384 . S
C1681 C1680 1.377 . S
C1681 C1687 1.390 . S
C1682 H1673 0.930 . S
C1682 C1680 1.384 . S
C1682 C1683 1.372 . S
C1683 C1682 1.372 . S
C1683 C1684 1.400 . S
C1683 C1688 1.490 . S
C1684 H1674 0.930 . S
C1684 C1683 1.400 . S
C1684 C1687 1.386 . S
H1685 C1701 0.930 . S
H1686 C1702 0.931 . S
C1687 H1675 0.929 . S
C1687 C1681 1.390 . S
C1687 C1684 1.386 . S
C1688 C1683 1.490 . S
C1688 C1690 1.395 . S
C1688 C1691 1.403 . S
H1689 C1695 0.930 . S
C1690 H1676 0.930 . S
C1690 C1688 1.395 . S
C1690 C1693 1.403 . S
C1691 C1688 1.403 . S
C1691 C1692 1.524 . S
C1691 C1695 1.400 . S
C1692 H1677 0.960 . S
C1692 H1678 0.960 . S
C1692 H1679 0.960 . S
C1692 C1691 1.524 . S
C1693 C1690 1.403 . S
C1693 C1694 1.392 . S
C1693 C1697 1.495 . S
C1694 C1693 1.392 . S
C1694 C1695 1.385 . S
C1694 C1696 1.478 . S
C1695 H1689 0.930 . S
C1695 C1691 1.400 . S
C1695 C1694 1.385 . S
C1696 C1694 1.478 . S
C1696 C1698 1.381 . S
C1696 C1702 1.383 . S
C1697 C1693 1.495 . S
C1697 H1703 0.959 . S
C1697 H1704 0.961 . S
C1697 H1705 0.960 . S
C1698 C1696 1.381 . S
C1698 C1699 1.394 . S
C1698 H1706 0.930 . S
C1699 C1698 1.394 . S
C1699 C1700 1.383 . S
C1699 H1707 0.929 . S
C1700 C1699 1.383 . S
C1700 C1701 1.377 . S
C1701 H1685 0.930 . S
C1701 C1700 1.377 . S
C1701 C1702 1.379 . S
C1702 H1686 0.931 . S
C1702 C1696 1.383 . S
C1702 C1701 1.379 . S
H1703 C1697 0.959 . S
H1704 C1697 0.961 . S
H1705 C1697 0.960 . S
H1706 C1698 0.930 . S
H1707 C1699 0.929 . S
H1708 C1716 0.929 . S
H1709 C1718 0.930 . S
H1710 C1720 0.930 . S
H1711 C1723 0.929 . S
H1712 C1726 0.930 . S
H1713 C1728 0.960 . S
H1714 C1728 0.960 . S
H1715 C1728 0.960 . S
C1716 H1708 0.929 . S
C1716 C1717 1.377 . S
C1716 C1718 1.384 . S
C1717 C1716 1.377 . S
C1717 C1723 1.390 . S
C1718 H1709 0.930 . S
C1718 C1716 1.384 . S
C1718 C1719 1.372 . S
C1719 C1718 1.372 . S
C1719 C1720 1.400 . S
C1719 C1724 1.490 . S
C1720 H1710 0.930 . S
C1720 C1719 1.400 . S
C1720 C1723 1.386 . S
H1721 C1737 0.930 . S
H1722 C1738 0.931 . S
C1723 H1711 0.929 . S
C1723 C1717 1.390 . S
C1723 C1720 1.386 . S
C1724 C1719 1.490 . S
C1724 C1726 1.395 . S
C1724 C1727 1.403 . S
H1725 C1731 0.930 . S
C1726 H1712 0.930 . S
C1726 C1724 1.395 . S
C1726 C1729 1.403 . S
C1727 C1724 1.403 . S
C1727 C1728 1.524 . S
C1727 C1731 1.400 . S
C1728 H1713 0.960 . S
C1728 H1714 0.960 . S
C1728 H1715 0.960 . S
C1728 C1727 1.524 . S
C1729 C1726 1.403 . S
C1729 C1730 1.392 . S
C1729 C1733 1.495 . S
C1730 C1729 1.392 . S
C1730 C1731 1.385 . S
C1730 C1732 1.478 . S
C1731 H1725 0.930 . S
C1731 C1727 1.400 . S
C1731 C1730 1.385 . S
C1732 C1730 1.478 . S
C1732 C1734 1.381 . S
C1732 C1738 1.383 . S
C1733 C1729 1.495 . S
C1733 H1739 0.959 . S
C1733 H1740 0.961 . S
C1733 H1741 0.960 . S
C1734 C1732 1.381 . S
C1734 C1735 1.394 . S
C1734 H1742 0.930 . S
C1735 C1734 1.394 . S
C1735 C1736 1.383 . S
C1735 H1743 0.929 . S
C1736 C1735 1.383 . S
C1736 C1737 1.377 . S
C1737 H1721 0.930 . S
C1737 C1736 1.377 . S
C1737 C1738 1.379 . S
C1738 H1722 0.931 . S
C1738 C1732 1.383 . S
C1738 C1737 1.379 . S
H1739 C1733 0.959 . S
H1740 C1733 0.961 . S
H1741 C1733 0.960 . S
H1742 C1734 0.930 . S
H1743 C1735 0.929 . S
H1744 C1752 0.929 . S
H1745 C1754 0.930 . S
H1746 C1756 0.930 . S
H1747 C1759 0.929 . S
H1748 C1762 0.930 . S
H1749 C1764 0.960 . S
H1750 C1764 0.960 . S
H1751 C1764 0.960 . S
C1752 H1744 0.929 . S
C1752 C1753 1.377 . S
C1752 C1754 1.384 . S
C1753 C1752 1.377 . S
C1753 C1759 1.390 . S
C1754 H1745 0.930 . S
C1754 C1752 1.384 . S
C1754 C1755 1.372 . S
C1755 C1754 1.372 . S
C1755 C1756 1.400 . S
C1755 C1760 1.490 . S
C1756 H1746 0.930 . S
C1756 C1755 1.400 . S
C1756 C1759 1.386 . S
H1757 C1773 0.930 . S
H1758 C1774 0.931 . S
C1759 H1747 0.929 . S
C1759 C1753 1.390 . S
C1759 C1756 1.386 . S
C1760 C1755 1.490 . S
C1760 C1762 1.395 . S
C1760 C1763 1.403 . S
H1761 C1767 0.930 . S
C1762 H1748 0.930 . S
C1762 C1760 1.395 . S
C1762 C1765 1.403 . S
C1763 C1760 1.403 . S
C1763 C1764 1.524 . S
C1763 C1767 1.400 . S
C1764 H1749 0.960 . S
C1764 H1750 0.960 . S
C1764 H1751 0.960 . S
C1764 C1763 1.524 . S
C1765 C1762 1.403 . S
C1765 C1766 1.392 . S
C1765 C1769 1.495 . S
C1766 C1765 1.392 . S
C1766 C1767 1.385 . S
C1766 C1768 1.478 . S
C1767 H1761 0.930 . S
C1767 C1763 1.400 . S
C1767 C1766 1.385 . S
C1768 C1766 1.478 . S
C1768 C1770 1.381 . S
C1768 C1774 1.383 . S
C1769 C1765 1.495 . S
C1769 H1775 0.959 . S
C1769 H1776 0.961 . S
C1769 H1777 0.960 . S
C1770 C1768 1.381 . S
C1770 C1771 1.394 . S
C1770 H1778 0.930 . S
C1771 C1770 1.394 . S
C1771 C1772 1.383 . S
C1771 H1779 0.929 . S
C1772 C1771 1.383 . S
C1772 C1773 1.377 . S
C1773 H1757 0.930 . S
C1773 C1772 1.377 . S
C1773 C1774 1.379 . S
C1774 H1758 0.931 . S
C1774 C1768 1.383 . S
C1774 C1773 1.379 . S
H1775 C1769 0.959 . S
H1776 C1769 0.961 . S
H1777 C1769 0.960 . S
H1778 C1770 0.930 . S
H1779 C1771 0.929 . S
H1780 C1788 0.929 . S
H1781 C1790 0.930 . S
H1782 C1792 0.930 . S
H1783 C1795 0.929 . S
H1784 C1798 0.930 . S
H1785 C1800 0.960 . S
H1786 C1800 0.960 . S
H1787 C1800 0.960 . S
C1788 H1780 0.929 . S
C1788 C1789 1.377 . S
C1788 C1790 1.384 . S
C1789 C1788 1.377 . S
C1789 C1795 1.390 . S
C1790 H1781 0.930 . S
C1790 C1788 1.384 . S
C1790 C1791 1.372 . S
C1791 C1790 1.372 . S
C1791 C1792 1.400 . S
C1791 C1796 1.490 . S
C1792 H1782 0.930 . S
C1792 C1791 1.400 . S
C1792 C1795 1.386 . S
H1793 C1809 0.930 . S
H1794 C1810 0.931 . S
C1795 H1783 0.929 . S
C1795 C1789 1.390 . S
C1795 C1792 1.386 . S
C1796 C1791 1.490 . S
C1796 C1798 1.395 . S
C1796 C1799 1.403 . S
H1797 C1803 0.930 . S
C1798 H1784 0.930 . S
C1798 C1796 1.395 . S
C1798 C1801 1.403 . S
C1799 C1796 1.403 . S
C1799 C1800 1.524 . S
C1799 C1803 1.400 . S
C1800 H1785 0.960 . S
C1800 H1786 0.960 . S
C1800 H1787 0.960 . S
C1800 C1799 1.524 . S
C1801 C1798 1.403 . S
C1801 C1802 1.392 . S
C1801 C1805 1.495 . S
C1802 C1801 1.392 . S
C1802 C1803 1.385 . S
C1802 C1804 1.478 . S
C1803 H1797 0.930 . S
C1803 C1799 1.400 . S
C1803 C1802 1.385 . S
C1804 C1802 1.478 . S
C1804 C1806 1.381 . S
C1804 C1810 1.383 . S
C1805 C1801 1.495 . S
C1805 H1811 0.959 . S
C1805 H1812 0.961 . S
C1805 H1813 0.960 . S
C1806 C1804 1.381 . S
C1806 C1807 1.394 . S
C1806 H1814 0.930 . S
C1807 C1806 1.394 . S
C1807 C1808 1.383 . S
C1807 H1815 0.929 . S
C1808 C1807 1.383 . S
C1808 C1809 1.377 . S
C1809 H1793 0.930 . S
C1809 C1808 1.377 . S
C1809 C1810 1.379 . S
C1810 H1794 0.931 . S
C1810 C1804 1.383 . S
C1810 C1809 1.379 . S
H1811 C1805 0.959 . S
H1812 C1805 0.961 . S
H1813 C1805 0.960 . S
H1814 C1806 0.930 . S
H1815 C1807 0.929 . S
H1816 C1824 0.929 . S
H1817 C1826 0.930 . S
H1818 C1828 0.930 . S
H1819 C1831 0.929 . S
H1820 C1834 0.930 . S
H1821 C1836 0.960 . S
H1822 C1836 0.960 . S
H1823 C1836 0.960 . S
C1824 H1816 0.929 . S
C1824 C1825 1.377 . S
C1824 C1826 1.384 . S
C1825 C1824 1.377 . S
C1825 C1831 1.390 . S
C1826 H1817 0.930 . S
C1826 C1824 1.384 . S
C1826 C1827 1.372 . S
C1827 C1826 1.372 . S
C1827 C1828 1.400 . S
C1827 C1832 1.490 . S
C1828 H1818 0.930 . S
C1828 C1827 1.400 . S
C1828 C1831 1.386 . S
H1829 C1845 0.930 . S
H1830 C1846 0.931 . S
C1831 H1819 0.929 . S
C1831 C1825 1.390 . S
C1831 C1828 1.386 . S
C1832 C1827 1.490 . S
C1832 C1834 1.395 . S
C1832 C1835 1.403 . S
H1833 C1839 0.930 . S
C1834 H1820 0.930 . S
C1834 C1832 1.395 . S
C1834 C1837 1.403 . S
C1835 C1832 1.403 . S
C1835 C1836 1.524 . S
C1835 C1839 1.400 . S
C1836 H1821 0.960 . S
C1836 H1822 0.960 . S
C1836 H1823 0.960 . S
C1836 C1835 1.524 . S
C1837 C1834 1.403 . S
C1837 C1838 1.392 . S
C1837 C1841 1.495 . S
C1838 C1837 1.392 . S
C1838 C1839 1.385 . S
C1838 C1840 1.478 . S
C1839 H1833 0.930 . S
C1839 C1835 1.400 . S
C1839 C1838 1.385 . S
C1840 C1838 1.478 . S
C1840 C1842 1.381 . S
C1840 C1846 1.383 . S
C1841 C1837 1.495 . S
C1841 H1847 0.959 . S
C1841 H1848 0.961 . S
C1841 H1849 0.960 . S
C1842 C1840 1.381 . S
C1842 C1843 1.394 . S
C1842 H1850 0.930 . S
C1843 C1842 1.394 . S
C1843 C1844 1.383 . S
C1843 H1851 0.929 . S
C1844 C1843 1.383 . S
C1844 C1845 1.377 . S
C1845 H1829 0.930 . S
C1845 C1844 1.377 . S
C1845 C1846 1.379 . S
C1846 H1830 0.931 . S
C1846 C1840 1.383 . S
C1846 C1845 1.379 . S
H1847 C1841 0.959 . S
H1848 C1841 0.961 . S
H1849 C1841 0.960 . S
H1850 C1842 0.930 . S
H1851 C1843 0.929 . S
H1852 C1860 0.929 . S
H1853 C1862 0.930 . S
H1854 C1864 0.930 . S
H1855 C1867 0.929 . S
H1856 C1870 0.930 . S
H1857 C1872 0.960 . S
H1858 C1872 0.960 . S
H1859 C1872 0.960 . S
C1860 H1852 0.929 . S
C1860 C1861 1.377 . S
C1860 C1862 1.384 . S
C1861 C1860 1.377 . S
C1861 C1867 1.390 . S
C1862 H1853 0.930 . S
C1862 C1860 1.384 . S
C1862 C1863 1.372 . S
C1863 C1862 1.372 . S
C1863 C1864 1.400 . S
C1863 C1868 1.490 . S
C1864 H1854 0.930 . S
C1864 C1863 1.400 . S
C1864 C1867 1.386 . S
H1865 C1881 0.930 . S
H1866 C1882 0.931 . S
C1867 H1855 0.929 . S
C1867 C1861 1.390 . S
C1867 C1864 1.386 . S
C1868 C1863 1.490 . S
C1868 C1870 1.395 . S
C1868 C1871 1.403 . S
H1869 C1875 0.930 . S
C1870 H1856 0.930 . S
C1870 C1868 1.395 . S
C1870 C1873 1.403 . S
C1871 C1868 1.403 . S
C1871 C1872 1.524 . S
C1871 C1875 1.400 . S
C1872 H1857 0.960 . S
C1872 H1858 0.960 . S
C1872 H1859 0.960 . S
C1872 C1871 1.524 . S
C1873 C1870 1.403 . S
C1873 C1874 1.392 . S
C1873 C1877 1.495 . S
C1874 C1873 1.392 . S
C1874 C1875 1.385 . S
C1874 C1876 1.478 . S
C1875 H1869 0.930 . S
C1875 C1871 1.400 . S
C1875 C1874 1.385 . S
C1876 C1874 1.478 . S
C1876 C1878 1.381 . S
C1876 C1882 1.383 . S
C1877 C1873 1.495 . S
C1877 H1883 0.959 . S
C1877 H1884 0.961 . S
C1877 H1885 0.960 . S
C1878 C1876 1.381 . S
C1878 C1879 1.394 . S
C1878 H1886 0.930 . S
C1879 C1878 1.394 . S
C1879 C1880 1.383 . S
C1879 H1887 0.929 . S
C1880 C1879 1.383 . S
C1880 C1881 1.377 . S
C1881 H1865 0.930 . S
C1881 C1880 1.377 . S
C1881 C1882 1.379 . S
C1882 H1866 0.931 . S
C1882 C1876 1.383 . S
C1882 C1881 1.379 . S
H1883 C1877 0.959 . S
H1884 C1877 0.961 . S
H1885 C1877 0.960 . S
H1886 C1878 0.930 . S
H1887 C1879 0.929 . S
H1888 C1896 0.929 . S
H1889 C1898 0.930 . S
H1890 C1900 0.930 . S
H1891 C1903 0.929 . S
H1892 C1906 0.930 . S
H1893 C1908 0.960 . S
H1894 C1908 0.960 . S
H1895 C1908 0.960 . S
C1896 H1888 0.929 . S
C1896 C1897 1.377 . S
C1896 C1898 1.384 . S
C1897 C1896 1.377 . S
C1897 C1903 1.390 . S
C1898 H1889 0.930 . S
C1898 C1896 1.384 . S
C1898 C1899 1.372 . S
C1899 C1898 1.372 . S
C1899 C1900 1.400 . S
C1899 C1904 1.490 . S
C1900 H1890 0.930 . S
C1900 C1899 1.400 . S
C1900 C1903 1.386 . S
H1901 C1917 0.930 . S
H1902 C1918 0.931 . S
C1903 H1891 0.929 . S
C1903 C1897 1.390 . S
C1903 C1900 1.386 . S
C1904 C1899 1.490 . S
C1904 C1906 1.395 . S
C1904 C1907 1.403 . S
H1905 C1911 0.930 . S
C1906 H1892 0.930 . S
C1906 C1904 1.395 . S
C1906 C1909 1.403 . S
C1907 C1904 1.403 . S
C1907 C1908 1.524 . S
C1907 C1911 1.400 . S
C1908 H1893 0.960 . S
C1908 H1894 0.960 . S
C1908 H1895 0.960 . S
C1908 C1907 1.524 . S
C1909 C1906 1.403 . S
C1909 C1910 1.392 . S
C1909 C1913 1.495 . S
C1910 C1909 1.392 . S
C1910 C1911 1.385 . S
C1910 C1912 1.478 . S
C1911 H1905 0.930 . S
C1911 C1907 1.400 . S
C1911 C1910 1.385 . S
C1912 C1910 1.478 . S
C1912 C1914 1.381 . S
C1912 C1918 1.383 . S
C1913 C1909 1.495 . S
C1913 H1919 0.959 . S
C1913 H1920 0.961 . S
C1913 H1921 0.960 . S
C1914 C1912 1.381 . S
C1914 C1915 1.394 . S
C1914 H1922 0.930 . S
C1915 C1914 1.394 . S
C1915 C1916 1.383 . S
C1915 H1923 0.929 . S
C1916 C1915 1.383 . S
C1916 C1917 1.377 . S
C1917 H1901 0.930 . S
C1917 C1916 1.377 . S
C1917 C1918 1.379 . S
C1918 H1902 0.931 . S
C1918 C1912 1.383 . S
C1918 C1917 1.379 . S
H1919 C1913 0.959 . S
H1920 C1913 0.961 . S
H1921 C1913 0.960 . S
H1922 C1914 0.930 . S
H1923 C1915 0.929 . S
H1924 C1932 0.929 . S
H1925 C1934 0.930 . S
H1926 C1936 0.930 . S
H1927 C1939 0.929 . S
H1928 C1942 0.930 . S
H1929 C1944 0.960 . S
H1930 C1944 0.960 . S
H1931 C1944 0.960 . S
C1932 H1924 0.929 . S
C1932 C1933 1.377 . S
C1932 C1934 1.384 . S
C1933 C1932 1.377 . S
C1933 C1939 1.390 . S
C1934 H1925 0.930 . S
C1934 C1932 1.384 . S
C1934 C1935 1.372 . S
C1935 C1934 1.372 . S
C1935 C1936 1.400 . S
C1935 C1940 1.490 . S
C1936 H1926 0.930 . S
C1936 C1935 1.400 . S
C1936 C1939 1.386 . S
H1937 C1953 0.930 . S
H1938 C1954 0.931 . S
C1939 H1927 0.929 . S
C1939 C1933 1.390 . S
C1939 C1936 1.386 . S
C1940 C1935 1.490 . S
C1940 C1942 1.395 . S
C1940 C1943 1.403 . S
H1941 C1947 0.930 . S
C1942 H1928 0.930 . S
C1942 C1940 1.395 . S
C1942 C1945 1.403 . S
C1943 C1940 1.403 . S
C1943 C1944 1.524 . S
C1943 C1947 1.400 . S
C1944 H1929 0.960 . S
C1944 H1930 0.960 . S
C1944 H1931 0.960 . S
C1944 C1943 1.524 . S
C1945 C1942 1.403 . S
C1945 C1946 1.392 . S
C1945 C1949 1.495 . S
C1946 C1945 1.392 . S
C1946 C1947 1.385 . S
C1946 C1948 1.478 . S
C1947 H1941 0.930 . S
C1947 C1943 1.400 . S
C1947 C1946 1.385 . S
C1948 C1946 1.478 . S
C1948 C1950 1.381 . S
C1948 C1954 1.383 . S
C1949 C1945 1.495 . S
C1949 H1955 0.959 . S
C1949 H1956 0.961 . S
C1949 H1957 0.960 . S
C1950 C1948 1.381 . S
C1950 C1951 1.394 . S
C1950 H1958 0.930 . S
C1951 C1950 1.394 . S
C1951 C1952 1.383 . S
C1951 H1959 0.929 . S
C1952 C1951 1.383 . S
C1952 C1953 1.377 . S
C1953 H1937 0.930 . S
C1953 C1952 1.377 . S
C1953 C1954 1.379 . S
C1954 H1938 0.931 . S
C1954 C1948 1.383 . S
C1954 C1953 1.379 . S
H1955 C1949 0.959 . S
H1956 C1949 0.961 . S
H1957 C1949 0.960 . S
H1958 C1950 0.930 . S
H1959 C1951 0.929 . S
H1960 C1968 0.929 . S
H1961 C1970 0.930 . S
H1962 C1972 0.930 . S
H1963 C1975 0.929 . S
H1964 C1978 0.930 . S
H1965 C1980 0.960 . S
H1966 C1980 0.960 . S
H1967 C1980 0.960 . S
C1968 H1960 0.929 . S
C1968 C1969 1.377 . S
C1968 C1970 1.384 . S
C1969 C1968 1.377 . S
C1969 C1975 1.390 . S
C1970 H1961 0.930 . S
C1970 C1968 1.384 . S
C1970 C1971 1.372 . S
C1971 C1970 1.372 . S
C1971 C1972 1.400 . S
C1971 C1976 1.490 . S
C1972 H1962 0.930 . S
C1972 C1971 1.400 . S
C1972 C1975 1.386 . S
H1973 C1989 0.930 . S
H1974 C1990 0.931 . S
C1975 H1963 0.929 . S
C1975 C1969 1.390 . S
C1975 C1972 1.386 . S
C1976 C1971 1.490 . S
C1976 C1978 1.395 . S
C1976 C1979 1.403 . S
H1977 C1983 0.930 . S
C1978 H1964 0.930 . S
C1978 C1976 1.395 . S
C1978 C1981 1.403 . S
C1979 C1976 1.403 . S
C1979 C1980 1.524 . S
C1979 C1983 1.400 . S
C1980 H1965 0.960 . S
C1980 H1966 0.960 . S
C1980 H1967 0.960 . S
C1980 C1979 1.524 . S
C1981 C1978 1.403 . S
C1981 C1982 1.392 . S
C1981 C1985 1.495 . S
C1982 C1981 1.392 . S
C1982 C1983 1.385 . S
C1982 C1984 1.478 . S
C1983 H1977 0.930 . S
C1983 C1979 1.400 . S
C1983 C1982 1.385 . S
C1984 C1982 1.478 . S
C1984 C1986 1.381 . S
C1984 C1990 1.383 . S
C1985 C1981 1.495 . S
C1985 H1991 0.959 . S
C1985 H1992 0.961 . S
C1985 H1993 0.960 . S
C1986 C1984 1.381 . S
C1986 C1987 1.394 . S
C1986 H1994 0.930 . S
C1987 C1986 1.394 . S
C1987 C1988 1.383 . S
C1987 H1995 0.929 . S
C1988 C1987 1.383 . S
C1988 C1989 1.377 . S
C1989 H1973 0.930 . S
C1989 C1988 1.377 . S
C1989 C1990 1.379 . S
C1990 H1974 0.931 . S
C1990 C1984 1.383 . S
C1990 C1989 1.379 . S
H1991 C1985 0.959 . S
H1992 C1985 0.961 . S
H1993 C1985 0.960 . S
H1994 C1986 0.930 . S
H1995 C1987 0.929 . S
H1996 C2004 0.929 . S
H1997 C2006 0.930 . S
H1998 C2008 0.930 . S
H1999 C2011 0.929 . S
H2000 C2014 0.930 . S
H2001 C2016 0.960 . S
H2002 C2016 0.960 . S
H2003 C2016 0.960 . S
C2004 H1996 0.929 . S
C2004 C2005 1.377 . S
C2004 C2006 1.384 . S
C2005 C2004 1.377 . S
C2005 C2011 1.390 . S
C2006 H1997 0.930 . S
C2006 C2004 1.384 . S
C2006 C2007 1.372 . S
C2007 C2006 1.372 . S
C2007 C2008 1.400 . S
C2007 C2012 1.490 . S
C2008 H1998 0.930 . S
C2008 C2007 1.400 . S
C2008 C2011 1.386 . S
H2009 C2025 0.930 . S
H2010 C2026 0.931 . S
C2011 H1999 0.929 . S
C2011 C2005 1.390 . S
C2011 C2008 1.386 . S
C2012 C2007 1.490 . S
C2012 C2014 1.395 . S
C2012 C2015 1.403 . S
H2013 C2019 0.930 . S
C2014 H2000 0.930 . S
C2014 C2012 1.395 . S
C2014 C2017 1.403 . S
C2015 C2012 1.403 . S
C2015 C2016 1.524 . S
C2015 C2019 1.400 . S
C2016 H2001 0.960 . S
C2016 H2002 0.960 . S
C2016 H2003 0.960 . S
C2016 C2015 1.524 . S
C2017 C2014 1.403 . S
C2017 C2018 1.392 . S
C2017 C2021 1.495 . S
C2018 C2017 1.392 . S
C2018 C2019 1.385 . S
C2018 C2020 1.478 . S
C2019 H2013 0.930 . S
C2019 C2015 1.400 . S
C2019 C2018 1.385 . S
C2020 C2018 1.478 . S
C2020 C2022 1.381 . S
C2020 C2026 1.383 . S
C2021 C2017 1.495 . S
C2021 H2027 0.959 . S
C2021 H2028 0.961 . S
C2021 H2029 0.960 . S
C2022 C2020 1.381 . S
C2022 C2023 1.394 . S
C2022 H2030 0.930 . S
C2023 C2022 1.394 . S
C2023 C2024 1.383 . S
C2023 H2031 0.929 . S
C2024 C2023 1.383 . S
C2024 C2025 1.377 . S
C2025 H2009 0.930 . S
C2025 C2024 1.377 . S
C2025 C2026 1.379 . S
C2026 H2010 0.931 . S
C2026 C2020 1.383 . S
C2026 C2025 1.379 . S
H2027 C2021 0.959 . S
H2028 C2021 0.961 . S
H2029 C2021 0.960 . S
H2030 C2022 0.930 . S
H2031 C2023 0.929 . S
H2032 C2040 0.929 . S
H2033 C2042 0.930 . S
H2034 C2044 0.930 . S
H2035 C2047 0.929 . S
H2036 C2050 0.930 . S
H2037 C2052 0.960 . S
H2038 C2052 0.960 . S
H2039 C2052 0.960 . S
C2040 H2032 0.929 . S
C2040 C2041 1.377 . S
C2040 C2042 1.384 . S
C2041 C2040 1.377 . S
C2041 C2047 1.390 . S
C2042 H2033 0.930 . S
C2042 C2040 1.384 . S
C2042 C2043 1.372 . S
C2043 C2042 1.372 . S
C2043 C2044 1.400 . S
C2043 C2048 1.490 . S
C2044 H2034 0.930 . S
C2044 C2043 1.400 . S
C2044 C2047 1.386 . S
H2045 C2061 0.930 . S
H2046 C2062 0.931 . S
C2047 H2035 0.929 . S
C2047 C2041 1.390 . S
C2047 C2044 1.386 . S
C2048 C2043 1.490 . S
C2048 C2050 1.395 . S
C2048 C2051 1.403 . S
H2049 C2055 0.930 . S
C2050 H2036 0.930 . S
C2050 C2048 1.395 . S
C2050 C2053 1.403 . S
C2051 C2048 1.403 . S
C2051 C2052 1.524 . S
C2051 C2055 1.400 . S
C2052 H2037 0.960 . S
C2052 H2038 0.960 . S
C2052 H2039 0.960 . S
C2052 C2051 1.524 . S
C2053 C2050 1.403 . S
C2053 C2054 1.392 . S
C2053 C2057 1.495 . S
C2054 C2053 1.392 . S
C2054 C2055 1.385 . S
C2054 C2056 1.478 . S
C2055 H2049 0.930 . S
C2055 C2051 1.400 . S
C2055 C2054 1.385 . S
C2056 C2054 1.478 . S
C2056 C2058 1.381 . S
C2056 C2062 1.383 . S
C2057 C2053 1.495 . S
C2057 H2063 0.959 . S
C2057 H2064 0.961 . S
C2057 H2065 0.960 . S
C2058 C2056 1.381 . S
C2058 C2059 1.394 . S
C2058 H2066 0.930 . S
C2059 C2058 1.394 . S
C2059 C2060 1.383 . S
C2059 H2067 0.929 . S
C2060 C2059 1.383 . S
C2060 C2061 1.377 . S
C2061 H2045 0.930 . S
C2061 C2060 1.377 . S
C2061 C2062 1.379 . S
C2062 H2046 0.931 . S
C2062 C2056 1.383 . S
C2062 C2061 1.379 . S
H2063 C2057 0.959 . S
H2064 C2057 0.961 . S
H2065 C2057 0.960 . S
H2066 C2058 0.930 . S
H2067 C2059 0.929 . S
H2068 C2076 0.929 . S
H2069 C2078 0.930 . S
H2070 C2080 0.930 . S
H2071 C2083 0.929 . S
H2072 C2086 0.930 . S
H2073 C2088 0.960 . S
H2074 C2088 0.960 . S
H2075 C2088 0.960 . S
C2076 H2068 0.929 . S
C2076 C2077 1.377 . S
C2076 C2078 1.384 . S
C2077 C2076 1.377 . S
C2077 C2083 1.390 . S
C2078 H2069 0.930 . S
C2078 C2076 1.384 . S
C2078 C2079 1.372 . S
C2079 C2078 1.372 . S
C2079 C2080 1.400 . S
C2079 C2084 1.490 . S
C2080 H2070 0.930 . S
C2080 C2079 1.400 . S
C2080 C2083 1.386 . S
H2081 C2097 0.930 . S
H2082 C2098 0.931 . S
C2083 H2071 0.929 . S
C2083 C2077 1.390 . S
C2083 C2080 1.386 . S
C2084 C2079 1.490 . S
C2084 C2086 1.395 . S
C2084 C2087 1.403 . S
H2085 C2091 0.930 . S
C2086 H2072 0.930 . S
C2086 C2084 1.395 . S
C2086 C2089 1.403 . S
C2087 C2084 1.403 . S
C2087 C2088 1.524 . S
C2087 C2091 1.400 . S
C2088 H2073 0.960 . S
C2088 H2074 0.960 . S
C2088 H2075 0.960 . S
C2088 C2087 1.524 . S
C2089 C2086 1.403 . S
C2089 C2090 1.392 . S
C2089 C2093 1.495 . S
C2090 C2089 1.392 . S
C2090 C2091 1.385 . S
C2090 C2092 1.478 . S
C2091 H2085 0.930 . S
C2091 C2087 1.400 . S
C2091 C2090 1.385 . S
C2092 C2090 1.478 . S
C2092 C2094 1.381 . S
C2092 C2098 1.383 . S
C2093 C2089 1.495 . S
C2093 H2099 0.959 . S
C2093 H2100 0.961 . S
C2093 H2101 0.960 . S
C2094 C2092 1.381 . S
C2094 C2095 1.394 . S
C2094 H2102 0.930 . S
C2095 C2094 1.394 . S
C2095 C2096 1.383 . S
C2095 H2103 0.929 . S
C2096 C2095 1.383 . S
C2096 C2097 1.377 . S
C2097 H2081 0.930 . S
C2097 C2096 1.377 . S
C2097 C2098 1.379 . S
C2098 H2082 0.931 . S
C2098 C2092 1.383 . S
C2098 C2097 1.379 . S
H2099 C2093 0.959 . S
H2100 C2093 0.961 . S
H2101 C2093 0.960 . S
H2102 C2094 0.930 . S
H2103 C2095 0.929 . S
H2104 C2112 0.929 . S
H2105 C2114 0.930 . S
H2106 C2116 0.930 . S
H2107 C2119 0.929 . S
H2108 C2122 0.930 . S
H2109 C2124 0.960 . S
H2110 C2124 0.960 . S
H2111 C2124 0.960 . S
C2112 H2104 0.929 . S
C2112 C2113 1.377 . S
C2112 C2114 1.384 . S
C2113 C2112 1.377 . S
C2113 C2119 1.390 . S
C2114 H2105 0.930 . S
C2114 C2112 1.384 . S
C2114 C2115 1.372 . S
C2115 C2114 1.372 . S
C2115 C2116 1.400 . S
C2115 C2120 1.490 . S
C2116 H2106 0.930 . S
C2116 C2115 1.400 . S
C2116 C2119 1.386 . S
H2117 C2133 0.930 . S
H2118 C2134 0.931 . S
C2119 H2107 0.929 . S
C2119 C2113 1.390 . S
C2119 C2116 1.386 . S
C2120 C2115 1.490 . S
C2120 C2122 1.395 . S
C2120 C2123 1.403 . S
H2121 C2127 0.930 . S
C2122 H2108 0.930 . S
C2122 C2120 1.395 . S
C2122 C2125 1.403 . S
C2123 C2120 1.403 . S
C2123 C2124 1.524 . S
C2123 C2127 1.400 . S
C2124 H2109 0.960 . S
C2124 H2110 0.960 . S
C2124 H2111 0.960 . S
C2124 C2123 1.524 . S
C2125 C2122 1.403 . S
C2125 C2126 1.392 . S
C2125 C2129 1.495 . S
C2126 C2125 1.392 . S
C2126 C2127 1.385 . S
C2126 C2128 1.478 . S
C2127 H2121 0.930 . S
C2127 C2123 1.400 . S
C2127 C2126 1.385 . S
C2128 C2126 1.478 . S
C2128 C2130 1.381 . S
C2128 C2134 1.383 . S
C2129 C2125 1.495 . S
C2129 H2135 0.959 . S
C2129 H2136 0.961 . S
C2129 H2137 0.960 . S
C2130 C2128 1.381 . S
C2130 C2131 1.394 . S
C2130 H2138 0.930 . S
C2131 C2130 1.394 . S
C2131 C2132 1.383 . S
C2131 H2139 0.929 . S
C2132 C2131 1.383 . S
C2132 C2133 1.377 . S
C2133 H2117 0.930 . S
C2133 C2132 1.377 . S
C2133 C2134 1.379 . S
C2134 H2118 0.931 . S
C2134 C2128 1.383 . S
C2134 C2133 1.379 . S
H2135 C2129 0.959 . S
H2136 C2129 0.961 . S
H2137 C2129 0.960 . S
H2138 C2130 0.930 . S
H2139 C2131 0.929 . S
H2140 C2148 0.929 . S
H2141 C2150 0.930 . S
H2142 C2152 0.930 . S
H2143 C2155 0.929 . S
H2144 C2158 0.930 . S
H2145 C2160 0.960 . S
H2146 C2160 0.960 . S
H2147 C2160 0.960 . S
C2148 H2140 0.929 . S
C2148 C2149 1.377 . S
C2148 C2150 1.384 . S
C2149 C2148 1.377 . S
C2149 C2155 1.390 . S
C2150 H2141 0.930 . S
C2150 C2148 1.384 . S
C2150 C2151 1.372 . S
C2151 C2150 1.372 . S
C2151 C2152 1.400 . S
C2151 C2156 1.490 . S
C2152 H2142 0.930 . S
C2152 C2151 1.400 . S
C2152 C2155 1.386 . S
H2153 C2169 0.930 . S
H2154 C2170 0.931 . S
C2155 H2143 0.929 . S
C2155 C2149 1.390 . S
C2155 C2152 1.386 . S
C2156 C2151 1.490 . S
C2156 C2158 1.395 . S
C2156 C2159 1.403 . S
H2157 C2163 0.930 . S
C2158 H2144 0.930 . S
C2158 C2156 1.395 . S
C2158 C2161 1.403 . S
C2159 C2156 1.403 . S
C2159 C2160 1.524 . S
C2159 C2163 1.400 . S
C2160 H2145 0.960 . S
C2160 H2146 0.960 . S
C2160 H2147 0.960 . S
C2160 C2159 1.524 . S
C2161 C2158 1.403 . S
C2161 C2162 1.392 . S
C2161 C2165 1.495 . S
C2162 C2161 1.392 . S
C2162 C2163 1.385 . S
C2162 C2164 1.478 . S
C2163 H2157 0.930 . S
C2163 C2159 1.400 . S
C2163 C2162 1.385 . S
C2164 C2162 1.478 . S
C2164 C2166 1.381 . S
C2164 C2170 1.383 . S
C2165 C2161 1.495 . S
C2165 H2171 0.959 . S
C2165 H2172 0.961 . S
C2165 H2173 0.960 . S
C2166 C2164 1.381 . S
C2166 C2167 1.394 . S
C2166 H2174 0.930 . S
C2167 C2166 1.394 . S
C2167 C2168 1.383 . S
C2167 H2175 0.929 . S
C2168 C2167 1.383 . S
C2168 C2169 1.377 . S
C2169 H2153 0.930 . S
C2169 C2168 1.377 . S
C2169 C2170 1.379 . S
C2170 H2154 0.931 . S
C2170 C2164 1.383 . S
C2170 C2169 1.379 . S
H2171 C2165 0.959 . S
H2172 C2165 0.961 . S
H2173 C2165 0.960 . S
H2174 C2166 0.930 . S
H2175 C2167 0.929 . S
H2176 C2184 0.929 . S
H2177 C2186 0.930 . S
H2178 C2188 0.930 . S
H2179 C2191 0.929 . S
H2180 C2194 0.930 . S
H2181 C2196 0.960 . S
H2182 C2196 0.960 . S
H2183 C2196 0.960 . S
C2184 H2176 0.929 . S
C2184 C2185 1.377 . S
C2184 C2186 1.384 . S
C2185 C2184 1.377 . S
C2185 C2191 1.390 . S
C2186 H2177 0.930 . S
C2186 C2184 1.384 . S
C2186 C2187 1.372 . S
C2187 C2186 1.372 . S
C2187 C2188 1.400 . S
C2187 C2192 1.490 . S
C2188 H2178 0.930 . S
C2188 C2187 1.400 . S
C2188 C2191 1.386 . S
H2189 C2205 0.930 . S
H2190 C2206 0.931 . S
C2191 H2179 0.929 . S
C2191 C2185 1.390 . S
C2191 C2188 1.386 . S
C2192 C2187 1.490 . S
C2192 C2194 1.395 . S
C2192 C2195 1.403 . S
H2193 C2199 0.930 . S
C2194 H2180 0.930 . S
C2194 C2192 1.395 . S
C2194 C2197 1.403 . S
C2195 C2192 1.403 . S
C2195 C2196 1.524 . S
C2195 C2199 1.400 . S
C2196 H2181 0.960 . S
C2196 H2182 0.960 . S
C2196 H2183 0.960 . S
C2196 C2195 1.524 . S
C2197 C2194 1.403 . S
C2197 C2198 1.392 . S
C2197 C2201 1.495 . S
C2198 C2197 1.392 . S
C2198 C2199 1.385 . S
C2198 C2200 1.478 . S
C2199 H2193 0.930 . S
C2199 C2195 1.400 . S
C2199 C2198 1.385 . S
C2200 C2198 1.478 . S
C2200 C2202 1.381 . S
C2200 C2206 1.383 . S
C2201 C2197 1.495 . S
C2201 H2207 0.959 . S
C2201 H2208 0.961 . S
C2201 H2209 0.960 . S
C2202 C2200 1.381 . S
C2202 C2203 1.394 . S
C2202 H2210 0.930 . S
C2203 C2202 1.394 . S
C2203 C2204 1.383 . S
C2203 H2211 0.929 . S
C2204 C2203 1.383 . S
C2204 C2205 1.377 . S
C2205 H2189 0.930 . S
C2205 C2204 1.377 . S
C2205 C2206 1.379 . S
C2206 H2190 0.931 . S
C2206 C2200 1.383 . S
C2206 C2205 1.379 . S
H2207 C2201 0.959 . S
H2208 C2201 0.961 . S
H2209 C2201 0.960 . S
H2210 C2202 0.930 . S
H2211 C2203 0.929 . S
H2212 C2220 0.929 . S
H2213 C2222 0.930 . S
H2214 C2224 0.930 . S
H2215 C2227 0.929 . S
H2216 C2230 0.930 . S
H2217 C2232 0.960 . S
H2218 C2232 0.960 . S
H2219 C2232 0.960 . S
C2220 H2212 0.929 . S
C2220 C2221 1.377 . S
C2220 C2222 1.384 . S
C2221 C2220 1.377 . S
C2221 C2227 1.390 . S
C2222 H2213 0.930 . S
C2222 C2220 1.384 . S
C2222 C2223 1.372 . S
C2223 C2222 1.372 . S
C2223 C2224 1.400 . S
C2223 C2228 1.490 . S
C2224 H2214 0.930 . S
C2224 C2223 1.400 . S
C2224 C2227 1.386 . S
H2225 C2241 0.930 . S
H2226 C2242 0.931 . S
C2227 H2215 0.929 . S
C2227 C2221 1.390 . S
C2227 C2224 1.386 . S
C2228 C2223 1.490 . S
C2228 C2230 1.395 . S
C2228 C2231 1.403 . S
H2229 C2235 0.930 . S
C2230 H2216 0.930 . S
C2230 C2228 1.395 . S
C2230 C2233 1.403 . S
C2231 C2228 1.403 . S
C2231 C2232 1.524 . S
C2231 C2235 1.400 . S
C2232 H2217 0.960 . S
C2232 H2218 0.960 . S
C2232 H2219 0.960 . S
C2232 C2231 1.524 . S
C2233 C2230 1.403 . S
C2233 C2234 1.392 . S
C2233 C2237 1.495 . S
C2234 C2233 1.392 . S
C2234 C2235 1.385 . S
C2234 C2236 1.478 . S
C2235 H2229 0.930 . S
C2235 C2231 1.400 . S
C2235 C2234 1.385 . S
C2236 C2234 1.478 . S
C2236 C2238 1.381 . S
C2236 C2242 1.383 . S
C2237 C2233 1.495 . S
C2237 H2243 0.959 . S
C2237 H2244 0.961 . S
C2237 H2245 0.960 . S
C2238 C2236 1.381 . S
C2238 C2239 1.394 1_655 S
C2238 H2246 0.930 . S
C2239 C2238 1.394 1_455 S
C2239 C2240 1.383 . S
C2239 H2247 0.929 . S
C2240 C2239 1.383 . S
C2240 C2241 1.377 . S
C2241 H2225 0.930 . S
C2241 C2240 1.377 . S
C2241 C2242 1.379 1_455 S
C2242 H2226 0.931 . S
C2242 C2236 1.383 . S
C2242 C2241 1.379 1_655 S
H2243 C2237 0.959 . S
H2244 C2237 0.961 . S
H2245 C2237 0.960 . S
H2246 C2238 0.930 . S
H2247 C2239 0.929 . S
H2248 C2256 0.929 . S
H2249 C2258 0.930 . S
H2250 C2260 0.930 . S
H2251 C2263 0.929 . S
H2252 C2266 0.930 . S
H2253 C2268 0.960 . S
H2254 C2268 0.960 . S
H2255 C2268 0.960 . S
C2256 H2248 0.929 . S
C2256 C2257 1.377 1_556 S
C2256 C2258 1.384 . S
C2257 C2256 1.377 1_554 S
C2257 C2263 1.390 . S
C2258 H2249 0.930 . S
C2258 C2256 1.384 . S
C2258 C2259 1.372 1_556 S
C2259 C2258 1.372 1_554 S
C2259 C2260 1.400 . S
C2259 C2264 1.490 . S
C2260 H2250 0.930 . S
C2260 C2259 1.400 . S
C2260 C2263 1.386 . S
H2261 C2277 0.930 . S
H2262 C2278 0.931 . S
C2263 H2251 0.929 . S
C2263 C2257 1.390 . S
C2263 C2260 1.386 . S
C2264 C2259 1.490 . S
C2264 C2266 1.395 1_554 S
C2264 C2267 1.403 . S
H2265 C2271 0.930 . S
C2266 H2252 0.930 . S
C2266 C2264 1.395 1_556 S
C2266 C2269 1.403 . S
C2267 C2264 1.403 . S
C2267 C2268 1.524 . S
C2267 C2271 1.400 . S
C2268 H2253 0.960 . S
C2268 H2254 0.960 . S
C2268 H2255 0.960 . S
C2268 C2267 1.524 . S
C2269 C2266 1.403 . S
C2269 C2270 1.392 1_556 S
C2269 C2273 1.495 . S
C2270 C2269 1.392 1_554 S
C2270 C2271 1.385 . S
C2270 C2272 1.478 . S
C2271 H2265 0.930 . S
C2271 C2267 1.400 . S
C2271 C2270 1.385 . S
C2272 C2270 1.478 . S
C2272 C2274 1.381 1_554 S
C2272 C2278 1.383 . S
C2273 C2269 1.495 . S
C2273 H2279 0.959 . S
C2273 H2280 0.961 . S
C2273 H2281 0.960 . S
C2274 C2272 1.381 1_556 S
C2274 C2275 1.394 . S
C2274 H2282 0.930 . S
C2275 C2274 1.394 . S
C2275 C2276 1.383 1_556 S
C2275 H2283 0.929 . S
C2276 C2275 1.383 1_554 S
C2276 C2277 1.377 . S
C2277 H2261 0.930 . S
C2277 C2276 1.377 . S
C2277 C2278 1.379 . S
C2278 H2262 0.931 . S
C2278 C2272 1.383 . S
C2278 C2277 1.379 . S
H2279 C2273 0.959 . S
H2280 C2273 0.961 . S
H2281 C2273 0.960 . S
H2282 C2274 0.930 . S
H2283 C2275 0.929 . S
H2284 C2292 0.934 . S
H2285 C2294 0.930 . S
H2286 C2296 0.930 . S
H2287 C2299 0.929 . S
H2288 C2302 0.930 . S
H2289 C2304 0.960 . S
H2290 C2304 0.960 . S
H2291 C2304 0.960 . S
C2292 H2284 0.934 . S
C2292 C2293 1.392 . S
C2292 C2294 1.365 1_455 S
C2293 C2292 1.392 . S
C2293 C2299 1.390 1_554 S
C2294 H2285 0.930 . S
C2294 C2292 1.365 1_655 S
C2294 C2295 1.372 . S
C2295 C2294 1.372 . S
C2295 C2296 1.400 1_554 S
C2295 C2300 1.490 . S
C2296 H2286 0.930 . S
C2296 C2295 1.400 1_556 S
C2296 C2299 1.386 1_655 S
H2297 C2313 0.930 . S
H2298 C2314 0.931 . S
C2299 H2287 0.929 . S
C2299 C2293 1.390 1_556 S
C2299 C2296 1.386 1_455 S
C2300 C2295 1.490 . S
C2300 C2302 1.395 . S
C2300 C2303 1.403 1_554 S
H2301 C2307 0.930 . S
C2302 H2288 0.930 . S
C2302 C2300 1.395 . S
C2302 C2305 1.403 . S
C2303 C2300 1.403 1_556 S
C2303 C2304 1.524 . S
C2303 C2307 1.400 . S
C2304 H2289 0.960 . S
C2304 H2290 0.960 . S
C2304 H2291 0.960 . S
C2304 C2303 1.524 . S
C2305 C2302 1.403 . S
C2305 C2306 1.392 . S
C2305 C2309 1.495 . S
C2306 C2305 1.392 . S
C2306 C2307 1.385 1_554 S
C2306 C2308 1.478 . S
C2307 H2301 0.930 . S
C2307 C2303 1.400 . S
C2307 C2306 1.385 1_556 S
C2308 C2306 1.478 . S
C2308 C2310 1.381 . S
C2308 C2314 1.383 1_554 S
C2309 C2305 1.495 . S
C2309 H2315 0.959 . S
C2309 H2316 0.961 . S
C2309 H2317 0.960 . S
C2310 C2308 1.381 . S
C2310 C2311 1.394 . S
C2310 H2318 0.930 . S
C2311 C2310 1.394 . S
C2311 C2312 1.383 . S
C2311 H2319 0.929 . S
C2312 C2311 1.383 . S
C2312 C2313 1.377 1_554 S
C2313 H2297 0.930 . S
C2313 C2312 1.377 1_556 S
C2313 C2314 1.379 . S
C2314 H2298 0.931 . S
C2314 C2308 1.383 1_556 S
C2314 C2313 1.379 . S
H2315 C2309 0.959 . S
H2316 C2309 0.961 . S
H2317 C2309 0.960 . S
H2318 C2310 0.930 . S
H2319 C2311 0.929 . S
H2320 C2328 0.929 . S
H2321 C2330 0.930 . S
H2322 C2332 0.930 . S
H2323 C2335 0.929 . S
H2324 C2338 0.930 . S
H2325 C2340 0.960 . S
H2326 C2340 0.960 . S
H2327 C2340 0.960 . S
C2328 H2320 0.929 . S
C2328 C2329 1.377 . S
C2328 C2330 1.384 . S
C2329 C2328 1.377 . S
C2329 C2335 1.390 . S
C2330 H2321 0.930 . S
C2330 C2328 1.384 . S
C2330 C2331 1.372 . S
C2331 C2330 1.372 . S
C2331 C2332 1.400 . S
C2331 C2336 1.490 . S
C2332 H2322 0.930 . S
C2332 C2331 1.400 . S
C2332 C2335 1.386 . S
H2333 C2349 0.930 . S
H2334 C2350 0.931 . S
C2335 H2323 0.929 . S
C2335 C2329 1.390 . S
C2335 C2332 1.386 . S
C2336 C2331 1.490 . S
C2336 C2338 1.395 . S
C2336 C2339 1.403 . S
H2337 C2343 0.930 . S
C2338 H2324 0.930 . S
C2338 C2336 1.395 . S
C2338 C2341 1.403 . S
C2339 C2336 1.403 . S
C2339 C2340 1.524 . S
C2339 C2343 1.400 . S
C2340 H2325 0.960 . S
C2340 H2326 0.960 . S
C2340 H2327 0.960 . S
C2340 C2339 1.524 . S
C2341 C2338 1.403 . S
C2341 C2342 1.392 . S
C2341 C2345 1.495 . S
C2342 C2341 1.392 . S
C2342 C2343 1.385 . S
C2342 C2344 1.478 . S
C2343 H2337 0.930 . S
C2343 C2339 1.400 . S
C2343 C2342 1.385 . S
C2344 C2342 1.478 . S
C2344 C2346 1.381 . S
C2344 C2350 1.383 . S
C2345 C2341 1.495 . S
C2345 H2351 0.959 . S
C2345 H2352 0.961 . S
C2345 H2353 0.960 . S
C2346 C2344 1.381 . S
C2346 C2347 1.394 . S
C2346 H2354 0.930 . S
C2347 C2346 1.394 . S
C2347 C2348 1.383 . S
C2347 H2355 0.929 . S
C2348 C2347 1.383 . S
C2348 C2349 1.377 . S
C2349 H2333 0.930 . S
C2349 C2348 1.377 . S
C2349 C2350 1.379 . S
C2350 H2334 0.931 . S
C2350 C2344 1.383 . S
C2350 C2349 1.379 . S
H2351 C2345 0.959 . S
H2352 C2345 0.961 . S
H2353 C2345 0.960 . S
H2354 C2346 0.930 . S
H2355 C2347 0.929 . S
H2356 C2364 0.929 . S
H2357 C2366 0.930 . S
H2358 C2368 0.930 . S
H2359 C2371 0.929 . S
H2360 C2374 0.930 . S
H2361 C2376 0.960 . S
H2362 C2376 0.960 . S
H2363 C2376 0.960 . S
C2364 H2356 0.929 . S
C2364 C2365 1.377 . S
C2364 C2366 1.384 1_655 S
C2365 C2364 1.377 . S
C2365 C2371 1.390 . S
C2366 H2357 0.930 . S
C2366 C2364 1.384 1_455 S
C2366 C2367 1.372 . S
C2367 C2366 1.372 . S
C2367 C2368 1.400 . S
C2367 C2372 1.490 . S
C2368 H2358 0.930 . S
C2368 C2367 1.400 . S
C2368 C2371 1.386 1_455 S
H2369 C2385 0.930 . S
H2370 C2386 0.931 . S
C2371 H2359 0.929 . S
C2371 C2365 1.390 . S
C2371 C2368 1.386 1_655 S
C2372 C2367 1.490 . S
C2372 C2374 1.395 . S
C2372 C2375 1.403 . S
H2373 C2379 0.930 . S
C2374 H2360 0.930 . S
C2374 C2372 1.395 . S
C2374 C2377 1.403 . S
C2375 C2372 1.403 . S
C2375 C2376 1.524 . S
C2375 C2379 1.400 . S
C2376 H2361 0.960 . S
C2376 H2362 0.960 . S
C2376 H2363 0.960 . S
C2376 C2375 1.524 . S
C2377 C2374 1.403 . S
C2377 C2378 1.392 . S
C2377 C2381 1.495 . S
C2378 C2377 1.392 . S
C2378 C2379 1.385 . S
C2378 C2380 1.478 . S
C2379 H2373 0.930 . S
C2379 C2375 1.400 . S
C2379 C2378 1.385 . S
C2380 C2378 1.478 . S
C2380 C2382 1.381 . S
C2380 C2386 1.383 . S
C2381 C2377 1.495 . S
C2381 H2387 0.959 . S
C2381 H2388 0.961 . S
C2381 H2389 0.960 . S
C2382 C2380 1.381 . S
C2382 C2383 1.394 . S
C2382 H2390 0.930 . S
C2383 C2382 1.394 . S
C2383 C2384 1.383 . S
C2383 H2391 0.929 . S
C2384 C2383 1.383 . S
C2384 C2385 1.377 . S
C2385 H2369 0.930 . S
C2385 C2384 1.377 . S
C2385 C2386 1.379 . S
C2386 H2370 0.931 . S
C2386 C2380 1.383 . S
C2386 C2385 1.379 . S
H2387 C2381 0.959 . S
H2388 C2381 0.961 . S
H2389 C2381 0.960 . S
H2390 C2382 0.930 . S
H2391 C2383 0.929 . S
H2392 C2400 0.929 . S
H2393 C2402 0.930 . S
H2394 C2404 0.930 . S
H2395 C2407 0.929 . S
H2396 C2410 0.930 . S
H2397 C2412 0.960 . S
H2398 C2412 0.960 . S
H2399 C2412 0.960 . S
C2400 H2392 0.929 . S
C2400 C2401 1.377 . S
C2400 C2402 1.384 . S
C2401 C2400 1.377 . S
C2401 C2407 1.390 1_556 S
C2402 H2393 0.930 . S
C2402 C2400 1.384 . S
C2402 C2403 1.372 . S
C2403 C2402 1.372 . S
C2403 C2404 1.400 1_556 S
C2403 C2408 1.490 . S
C2404 H2394 0.930 . S
C2404 C2403 1.400 1_554 S
C2404 C2407 1.386 . S
H2405 C2421 0.930 . S
H2406 C2422 0.931 . S
C2407 H2395 0.929 . S
C2407 C2401 1.390 1_554 S
C2407 C2404 1.386 . S
C2408 C2403 1.490 . S
C2408 C2410 1.395 1_556 S
C2408 C2411 1.403 . S
H2409 C2415 0.930 . S
C2410 H2396 0.930 . S
C2410 C2408 1.395 1_554 S
C2410 C2413 1.403 . S
C2411 C2408 1.403 . S
C2411 C2412 1.524 . S
C2411 C2415 1.400 . S
C2412 H2397 0.960 . S
C2412 H2398 0.960 . S
C2412 H2399 0.960 . S
C2412 C2411 1.524 . S
C2413 C2410 1.403 . S
C2413 C2414 1.392 1_554 S
C2413 C2417 1.495 . S
C2414 C2413 1.392 1_556 S
C2414 C2415 1.385 . S
C2414 C2416 1.478 . S
C2415 H2409 0.930 . S
C2415 C2411 1.400 . S
C2415 C2414 1.385 . S
C2416 C2414 1.478 . S
C2416 C2418 1.381 . S
C2416 C2422 1.383 1_556 S
C2417 C2413 1.495 . S
C2417 H2423 0.959 . S
C2417 H2424 0.961 . S
C2417 H2425 0.994 . S
C2418 C2416 1.381 . S
C2418 C2419 1.394 . S
C2418 H2426 0.930 . S
C2419 C2418 1.394 . S
C2419 C2420 1.383 . S
C2419 H2427 0.929 . S
C2420 C2419 1.383 . S
C2420 C2421 1.377 1_556 S
C2421 H2405 0.930 . S
C2421 C2420 1.377 1_554 S
C2421 C2422 1.379 . S
C2422 H2406 0.931 . S
C2422 C2416 1.383 1_554 S
C2422 C2421 1.379 . S
H2423 C2417 0.959 . S
H2424 C2417 0.961 . S
H2425 C2417 0.994 . S
H2426 C2418 0.930 . S
H2427 C2419 0.929 . S
H2428 C2436 0.929 . S
H2429 C2438 0.930 . S
H2430 C2440 0.930 . S
H2431 C2443 0.929 . S
H2432 C2446 0.930 . S
H2433 C2448 0.960 . S
H2434 C2448 0.960 . S
H2435 C2448 0.960 1_554 S
C2436 H2428 0.929 . S
C2436 C2437 1.377 . S
C2436 C2438 1.384 . S
C2437 C2436 1.377 . S
C2437 C2443 1.390 1_556 S
C2438 H2429 0.930 . S
C2438 C2436 1.384 . S
C2438 C2439 1.372 . S
C2439 C2438 1.372 . S
C2439 C2440 1.400 1_556 S
C2439 C2444 1.490 . S
C2440 H2430 0.930 . S
C2440 C2439 1.400 1_554 S
C2440 C2443 1.386 . S
H2441 C2457 0.930 . S
H2442 C2458 0.931 . S
C2443 H2431 0.929 . S
C2443 C2437 1.390 1_554 S
C2443 C2440 1.386 . S
C2444 C2439 1.490 . S
C2444 C2446 1.395 . S
C2444 C2447 1.403 . S
H2445 C2451 0.930 . S
C2446 H2432 0.930 . S
C2446 C2444 1.395 . S
C2446 C2449 1.403 . S
C2447 C2444 1.403 . S
C2447 C2448 1.524 . S
C2447 C2451 1.400 . S
C2448 H2433 0.960 . S
C2448 H2434 0.960 . S
C2448 H2435 0.960 1_556 S
C2448 C2447 1.524 . S
C2449 C2446 1.403 . S
C2449 C2450 1.392 . S
C2449 C2453 1.495 . S
C2450 C2449 1.392 . S
C2450 C2451 1.385 . S
C2450 C2452 1.478 . S
C2451 H2445 0.930 . S
C2451 C2447 1.400 . S
C2451 C2450 1.385 . S
C2452 C2450 1.478 . S
C2452 C2454 1.381 . S
C2452 C2458 1.383 1_556 S
C2453 C2449 1.495 . S
C2453 H2459 0.959 . S
C2453 H2460 0.961 1_556 S
C2453 H2461 0.960 . S
C2454 C2452 1.381 . S
C2454 C2455 1.394 1_455 S
C2454 H2462 0.930 . S
C2455 C2454 1.394 1_655 S
C2455 C2456 1.383 . S
C2455 H2463 0.929 . S
C2456 C2455 1.383 . S
C2456 C2457 1.377 1_556 S
C2457 H2441 0.930 . S
C2457 C2456 1.377 1_554 S
C2457 C2458 1.379 1_655 S
C2458 H2442 0.931 . S
C2458 C2452 1.383 1_554 S
C2458 C2457 1.379 1_455 S
H2459 C2453 0.959 . S
H2460 C2453 0.961 1_554 S
H2461 C2453 0.960 . S
H2462 C2454 0.930 . S
H2463 C2455 0.929 . S
H2464 C2472 0.929 . S
H2465 C2474 0.930 . S
H2466 C2476 0.930 . S
H2467 C2479 0.929 . S
H2468 C2482 0.930 . S
H2469 C2484 0.960 . S
H2470 C2484 0.960 . S
H2471 C2484 0.960 . S
C2472 H2464 0.929 . S
C2472 C2473 1.377 . S
C2472 C2474 1.384 . S
C2473 C2472 1.377 . S
C2473 C2479 1.390 . S
C2474 H2465 0.930 . S
C2474 C2472 1.384 . S
C2474 C2475 1.372 . S
C2475 C2474 1.372 . S
C2475 C2476 1.400 . S
C2475 C2480 1.490 . S
C2476 H2466 0.930 . S
C2476 C2475 1.400 . S
C2476 C2479 1.386 . S
H2477 C2493 0.930 . S
H2478 C2494 0.931 . S
C2479 H2467 0.929 . S
C2479 C2473 1.390 . S
C2479 C2476 1.386 . S
C2480 C2475 1.490 . S
C2480 C2482 1.395 . S
C2480 C2483 1.403 . S
H2481 C2487 0.930 . S
C2482 H2468 0.930 . S
C2482 C2480 1.395 . S
C2482 C2485 1.403 . S
C2483 C2480 1.403 . S
C2483 C2484 1.524 . S
C2483 C2487 1.400 . S
C2484 H2469 0.960 . S
C2484 H2470 0.960 . S
C2484 H2471 0.960 . S
C2484 C2483 1.524 . S
C2485 C2482 1.403 . S
C2485 C2486 1.392 . S
C2485 C2489 1.495 . S
C2486 C2485 1.392 . S
C2486 C2487 1.385 . S
C2486 C2488 1.478 . S
C2487 H2481 0.930 . S
C2487 C2483 1.400 . S
C2487 C2486 1.385 . S
C2488 C2486 1.478 . S
C2488 C2490 1.381 . S
C2488 C2494 1.383 . S
C2489 C2485 1.495 . S
C2489 H2495 0.959 . S
C2489 H2496 0.961 . S
C2489 H2497 0.960 . S
C2490 C2488 1.381 . S
C2490 C2491 1.394 . S
C2490 H2498 0.930 . S
C2491 C2490 1.394 . S
C2491 C2492 1.383 . S
C2491 H2499 0.929 . S
C2492 C2491 1.383 . S
C2492 C2493 1.377 . S
C2493 H2477 0.930 . S
C2493 C2492 1.377 . S
C2493 C2494 1.379 . S
C2494 H2478 0.931 . S
C2494 C2488 1.383 . S
C2494 C2493 1.379 . S
H2495 C2489 0.959 . S
H2496 C2489 0.961 . S
H2497 C2489 0.960 . S
H2498 C2490 0.930 . S
H2499 C2491 0.929 . S
H2500 C2508 0.929 . S
H2501 C2510 0.930 . S
H2502 C2512 0.930 . S
H2503 C2515 0.929 . S
H2504 C2518 0.930 . S
H2505 C2520 0.960 . S
H2506 C2520 0.960 . S
H2507 C2520 0.960 . S
C2508 H2500 0.929 . S
C2508 C2509 1.377 . S
C2508 C2510 1.384 . S
C2509 C2508 1.377 . S
C2509 C2515 1.390 . S
C2510 H2501 0.930 . S
C2510 C2508 1.384 . S
C2510 C2511 1.372 . S
C2511 C2510 1.372 . S
C2511 C2512 1.400 . S
C2511 C2516 1.490 . S
C2512 H2502 0.930 . S
C2512 C2511 1.400 . S
C2512 C2515 1.386 . S
H2513 C2529 0.930 . S
H2514 C2530 0.931 . S
C2515 H2503 0.929 . S
C2515 C2509 1.390 . S
C2515 C2512 1.386 . S
C2516 C2511 1.490 . S
C2516 C2518 1.395 . S
C2516 C2519 1.403 . S
H2517 C2523 0.930 . S
C2518 H2504 0.930 . S
C2518 C2516 1.395 . S
C2518 C2521 1.403 . S
C2519 C2516 1.403 . S
C2519 C2520 1.524 . S
C2519 C2523 1.400 . S
C2520 H2505 0.960 . S
C2520 H2506 0.960 . S
C2520 H2507 0.960 . S
C2520 C2519 1.524 . S
C2521 C2518 1.403 . S
C2521 C2522 1.392 . S
C2521 C2525 1.495 . S
C2522 C2521 1.392 . S
C2522 C2523 1.385 . S
C2522 C2524 1.478 . S
C2523 H2517 0.930 . S
C2523 C2519 1.400 . S
C2523 C2522 1.385 . S
C2524 C2522 1.478 . S
C2524 C2526 1.381 . S
C2524 C2530 1.383 . S
C2525 C2521 1.495 . S
C2525 H2531 0.959 . S
C2525 H2532 0.961 . S
C2525 H2533 0.960 . S
C2526 C2524 1.381 . S
C2526 C2527 1.394 1_655 S
C2526 H2534 0.930 . S
C2527 C2526 1.394 1_455 S
C2527 C2528 1.383 . S
C2527 H2535 0.929 . S
C2528 C2527 1.383 . S
C2528 C2529 1.377 . S
C2529 H2513 0.930 . S
C2529 C2528 1.377 . S
C2529 C2530 1.379 1_455 S
C2530 H2514 0.931 . S
C2530 C2524 1.383 . S
C2530 C2529 1.379 1_655 S
H2531 C2525 0.959 . S
H2532 C2525 0.961 . S
H2533 C2525 0.960 . S
H2534 C2526 0.930 . S
H2535 C2527 0.929 . S
H2536 C2544 0.929 . S
H2537 C2546 0.930 . S
H2538 C2548 0.930 . S
H2539 C2551 0.929 . S
H2540 C2554 0.930 . S
H2541 C2556 0.960 . S
H2542 C2556 0.960 . S
H2543 C2556 0.960 . S
C2544 H2536 0.929 . S
C2544 C2545 1.377 . S
C2544 C2546 1.384 . S
C2545 C2544 1.377 . S
C2545 C2551 1.390 . S
C2546 H2537 0.930 . S
C2546 C2544 1.384 . S
C2546 C2547 1.372 . S
C2547 C2546 1.372 . S
C2547 C2548 1.400 . S
C2547 C2552 1.490 . S
C2548 H2538 0.930 . S
C2548 C2547 1.400 . S
C2548 C2551 1.386 . S
H2549 C2565 0.930 . S
H2550 C2566 0.931 . S
C2551 H2539 0.929 . S
C2551 C2545 1.390 . S
C2551 C2548 1.386 . S
C2552 C2547 1.490 . S
C2552 C2554 1.395 . S
C2552 C2555 1.403 . S
H2553 C2559 0.930 . S
C2554 H2540 0.930 . S
C2554 C2552 1.395 . S
C2554 C2557 1.403 . S
C2555 C2552 1.403 . S
C2555 C2556 1.524 . S
C2555 C2559 1.400 . S
C2556 H2541 0.960 . S
C2556 H2542 0.960 . S
C2556 H2543 0.960 . S
C2556 C2555 1.524 . S
C2557 C2554 1.403 . S
C2557 C2558 1.392 . S
C2557 C2561 1.495 . S
C2558 C2557 1.392 . S
C2558 C2559 1.385 . S
C2558 C2560 1.478 . S
C2559 H2553 0.930 . S
C2559 C2555 1.400 . S
C2559 C2558 1.385 . S
C2560 C2558 1.478 . S
C2560 C2562 1.381 . S
C2560 C2566 1.383 . S
C2561 C2557 1.495 . S
C2561 H2567 0.959 . S
C2561 H2568 0.961 . S
C2561 H2569 0.960 . S
C2562 C2560 1.381 . S
C2562 C2563 1.394 . S
C2562 H2570 0.930 . S
C2563 C2562 1.394 . S
C2563 C2564 1.383 . S
C2563 H2571 0.929 . S
C2564 C2563 1.383 . S
C2564 C2565 1.377 . S
C2565 H2549 0.930 . S
C2565 C2564 1.377 . S
C2565 C2566 1.379 . S
C2566 H2550 0.931 . S
C2566 C2560 1.383 . S
C2566 C2565 1.379 . S
H2567 C2561 0.959 . S
H2568 C2561 0.961 . S
H2569 C2561 0.960 . S
H2570 C2562 0.930 . S
H2571 C2563 0.929 . S
H2572 C2580 0.929 . S
H2573 C2582 0.930 . S
H2574 C2584 0.930 . S
H2575 C2587 0.929 . S
H2576 C2590 0.930 . S
H2577 C2592 0.960 . S
H2578 C2592 0.960 . S
H2579 C2592 0.960 . S
C2580 H2572 0.929 . S
C2580 C2581 1.377 . S
C2580 C2582 1.384 1_455 S
C2581 C2580 1.377 . S
C2581 C2587 1.390 . S
C2582 H2573 0.930 . S
C2582 C2580 1.384 1_655 S
C2582 C2583 1.372 . S
C2583 C2582 1.372 . S
C2583 C2584 1.400 . S
C2583 C2588 1.490 . S
C2584 H2574 0.930 . S
C2584 C2583 1.400 . S
C2584 C2587 1.386 1_655 S
H2585 C2601 0.930 . S
H2586 C2602 0.931 . S
C2587 H2575 0.929 . S
C2587 C2581 1.390 . S
C2587 C2584 1.386 1_455 S
C2588 C2583 1.490 . S
C2588 C2590 1.395 . S
C2588 C2591 1.403 . S
H2589 C2595 0.930 . S
C2590 H2576 0.930 . S
C2590 C2588 1.395 . S
C2590 C2593 1.403 . S
C2591 C2588 1.403 . S
C2591 C2592 1.524 . S
C2591 C2595 1.400 . S
C2592 H2577 0.960 . S
C2592 H2578 0.960 . S
C2592 H2579 0.960 . S
C2592 C2591 1.524 . S
C2593 C2590 1.403 . S
C2593 C2594 1.392 . S
C2593 C2597 1.495 . S
C2594 C2593 1.392 . S
C2594 C2595 1.385 . S
C2594 C2596 1.478 . S
C2595 H2589 0.930 . S
C2595 C2591 1.400 . S
C2595 C2594 1.385 . S
C2596 C2594 1.478 . S
C2596 C2598 1.381 . S
C2596 C2602 1.383 . S
C2597 C2593 1.495 . S
C2597 H2603 0.959 . S
C2597 H2604 0.961 . S
C2597 H2605 0.960 . S
C2598 C2596 1.381 . S
C2598 C2599 1.394 . S
C2598 H2606 0.930 . S
C2599 C2598 1.394 . S
C2599 C2600 1.383 . S
C2599 H2607 0.929 . S
C2600 C2599 1.383 . S
C2600 C2601 1.377 . S
C2601 H2585 0.930 . S
C2601 C2600 1.377 . S
C2601 C2602 1.379 . S
C2602 H2586 0.931 . S
C2602 C2596 1.383 . S
C2602 C2601 1.379 . S
H2603 C2597 0.959 . S
H2604 C2597 0.961 . S
H2605 C2597 0.960 . S
H2606 C2598 0.930 . S
H2607 C2599 0.929 . S
H2608 C2616 0.929 . S
H2609 C2618 0.930 . S
H2610 C2620 0.930 . S
H2611 C2623 0.929 . S
H2612 C2626 0.930 . S
H2613 C2628 0.960 . S
H2614 C2628 0.960 . S
H2615 C2628 0.960 . S
C2616 H2608 0.929 . S
C2616 C2617 1.377 . S
C2616 C2618 1.384 . S
C2617 C2616 1.377 . S
C2617 C2623 1.390 . S
C2618 H2609 0.930 . S
C2618 C2616 1.384 . S
C2618 C2619 1.372 . S
C2619 C2618 1.372 . S
C2619 C2620 1.400 . S
C2619 C2624 1.490 . S
C2620 H2610 0.930 . S
C2620 C2619 1.400 . S
C2620 C2623 1.386 . S
H2621 C2637 0.930 . S
H2622 C2638 0.931 . S
C2623 H2611 0.929 . S
C2623 C2617 1.390 . S
C2623 C2620 1.386 . S
C2624 C2619 1.490 . S
C2624 C2626 1.395 . S
C2624 C2627 1.403 . S
H2625 C2631 0.930 . S
C2626 H2612 0.930 . S
C2626 C2624 1.395 . S
C2626 C2629 1.403 . S
C2627 C2624 1.403 . S
C2627 C2628 1.524 . S
C2627 C2631 1.400 . S
C2628 H2613 0.960 . S
C2628 H2614 0.960 . S
C2628 H2615 0.960 . S
C2628 C2627 1.524 . S
C2629 C2626 1.403 . S
C2629 C2630 1.392 . S
C2629 C2633 1.495 . S
C2630 C2629 1.392 . S
C2630 C2631 1.385 . S
C2630 C2632 1.478 . S
C2631 H2625 0.930 . S
C2631 C2627 1.400 . S
C2631 C2630 1.385 . S
C2632 C2630 1.478 . S
C2632 C2634 1.381 . S
C2632 C2638 1.383 . S
C2633 C2629 1.495 . S
C2633 H2639 0.959 . S
C2633 H2640 0.961 . S
C2633 H2641 0.960 . S
C2634 C2632 1.381 . S
C2634 C2635 1.394 . S
C2634 H2642 0.930 . S
C2635 C2634 1.394 . S
C2635 C2636 1.383 . S
C2635 H2643 0.929 . S
C2636 C2635 1.383 . S
C2636 C2637 1.377 . S
C2637 H2621 0.930 . S
C2637 C2636 1.377 . S
C2637 C2638 1.379 . S
C2638 H2622 0.931 . S
C2638 C2632 1.383 . S
C2638 C2637 1.379 . S
H2639 C2633 0.959 . S
H2640 C2633 0.961 . S
H2641 C2633 0.960 . S
H2642 C2634 0.930 . S
H2643 C2635 0.929 . S
H2644 C2652 0.929 . S
H2645 C2654 0.930 . S
H2646 C2656 0.930 . S
H2647 C2659 0.929 . S
H2648 C2662 0.930 . S
H2649 C2664 0.960 . S
H2650 C2664 0.960 . S
H2651 C2664 0.960 . S
C2652 H2644 0.929 . S
C2652 C2653 1.377 . S
C2652 C2654 1.384 1_655 S
C2653 C2652 1.377 . S
C2653 C2659 1.390 . S
C2654 H2645 0.930 . S
C2654 C2652 1.384 1_455 S
C2654 C2655 1.372 . S
C2655 C2654 1.372 . S
C2655 C2656 1.400 . S
C2655 C2660 1.490 . S
C2656 H2646 0.930 . S
C2656 C2655 1.400 . S
C2656 C2659 1.386 1_455 S
H2657 C2673 0.930 . S
H2658 C2674 0.931 . S
C2659 H2647 0.929 . S
C2659 C2653 1.390 . S
C2659 C2656 1.386 1_655 S
C2660 C2655 1.490 . S
C2660 C2662 1.395 . S
C2660 C2663 1.403 . S
H2661 C2667 0.930 . S
C2662 H2648 0.930 . S
C2662 C2660 1.395 . S
C2662 C2665 1.403 . S
C2663 C2660 1.403 . S
C2663 C2664 1.524 . S
C2663 C2667 1.400 . S
C2664 H2649 0.960 . S
C2664 H2650 0.960 . S
C2664 H2651 0.960 . S
C2664 C2663 1.524 . S
C2665 C2662 1.403 . S
C2665 C2666 1.392 . S
C2665 C2669 1.495 . S
C2666 C2665 1.392 . S
C2666 C2667 1.385 . S
C2666 C2668 1.478 . S
C2667 H2661 0.930 . S
C2667 C2663 1.400 . S
C2667 C2666 1.385 . S
C2668 C2666 1.478 . S
C2668 C2670 1.381 . S
C2668 C2674 1.383 . S
C2669 C2665 1.495 . S
C2669 H2675 0.959 . S
C2669 H2676 0.961 . S
C2669 H2677 0.960 . S
C2670 C2668 1.381 . S
C2670 C2671 1.394 . S
C2670 H2678 0.930 . S
C2671 C2670 1.394 . S
C2671 C2672 1.383 . S
C2671 H2679 0.929 . S
C2672 C2671 1.383 . S
C2672 C2673 1.377 . S
C2673 H2657 0.930 . S
C2673 C2672 1.377 . S
C2673 C2674 1.379 . S
C2674 H2658 0.931 . S
C2674 C2668 1.383 . S
C2674 C2673 1.379 . S
H2675 C2669 0.959 . S
H2676 C2669 0.961 . S
H2677 C2669 0.960 . S
H2678 C2670 0.930 . S
H2679 C2671 0.929 . S
H2680 C2688 0.929 . S
H2681 C2690 0.930 . S
H2682 C2692 0.930 . S
H2683 C2695 0.929 . S
H2684 C2698 0.930 . S
H2685 C2700 0.960 . S
H2686 C2700 0.960 . S
H2687 C2700 0.960 . S
C2688 H2680 0.929 . S
C2688 C2689 1.377 . S
C2688 C2690 1.384 . S
C2689 C2688 1.377 . S
C2689 C2695 1.390 . S
C2690 H2681 0.930 . S
C2690 C2688 1.384 . S
C2690 C2691 1.372 . S
C2691 C2690 1.372 . S
C2691 C2692 1.400 . S
C2691 C2696 1.490 . S
C2692 H2682 0.930 . S
C2692 C2691 1.400 . S
C2692 C2695 1.386 . S
H2693 C2709 0.930 . S
H2694 C2710 0.931 . S
C2695 H2683 0.929 . S
C2695 C2689 1.390 . S
C2695 C2692 1.386 . S
C2696 C2691 1.490 . S
C2696 C2698 1.395 . S
C2696 C2699 1.403 . S
H2697 C2703 0.930 . S
C2698 H2684 0.930 . S
C2698 C2696 1.395 . S
C2698 C2701 1.403 . S
C2699 C2696 1.403 . S
C2699 C2700 1.524 . S
C2699 C2703 1.400 . S
C2700 H2685 0.960 . S
C2700 H2686 0.960 . S
C2700 H2687 0.960 . S
C2700 C2699 1.524 . S
C2701 C2698 1.403 . S
C2701 C2702 1.392 . S
C2701 C2705 1.495 . S
C2702 C2701 1.392 . S
C2702 C2703 1.385 . S
C2702 C2704 1.478 . S
C2703 H2697 0.930 . S
C2703 C2699 1.400 . S
C2703 C2702 1.385 . S
C2704 C2702 1.478 . S
C2704 C2706 1.381 . S
C2704 C2710 1.383 . S
C2705 C2701 1.495 . S
C2705 H2711 0.959 . S
C2705 H2712 0.961 . S
C2705 H2713 0.960 . S
C2706 C2704 1.381 . S
C2706 C2707 1.394 . S
C2706 H2714 0.930 . S
C2707 C2706 1.394 . S
C2707 C2708 1.383 . S
C2707 H2715 0.929 . S
C2708 C2707 1.383 . S
C2708 C2709 1.377 . S
C2709 H2693 0.930 . S
C2709 C2708 1.377 . S
C2709 C2710 1.379 . S
C2710 H2694 0.931 . S
C2710 C2704 1.383 . S
C2710 C2709 1.379 . S
H2711 C2705 0.959 . S
H2712 C2705 0.961 . S
H2713 C2705 0.960 . S
H2714 C2706 0.930 . S
H2715 C2707 0.929 . S
H2716 C2724 0.932 . S
H2717 C2726 0.930 . S
H2718 C2728 0.930 . S
H2719 C2731 0.929 . S
H2720 C2734 0.930 . S
H2721 C2736 0.960 . S
H2722 C2736 0.960 . S
H2723 C2736 0.960 . S
C2724 H2716 0.932 . S
C2724 C2725 1.386 . S
C2724 C2726 1.373 1_655 S
C2725 C2724 1.386 . S
C2725 C2731 1.390 . S
C2726 H2717 0.930 . S
C2726 C2724 1.373 1_455 S
C2726 C2727 1.372 . S
C2727 C2726 1.372 . S
C2727 C2728 1.400 . S
C2727 C2732 1.490 . S
C2728 H2718 0.930 . S
C2728 C2727 1.400 . S
C2728 C2731 1.386 1_455 S
H2729 C2745 0.930 . S
H2730 C2746 0.931 . S
C2731 H2719 0.929 . S
C2731 C2725 1.390 . S
C2731 C2728 1.386 1_655 S
C2732 C2727 1.490 . S
C2732 C2734 1.395 . S
C2732 C2735 1.403 . S
H2733 C2739 0.930 . S
C2734 H2720 0.930 . S
C2734 C2732 1.395 . S
C2734 C2737 1.403 . S
C2735 C2732 1.403 . S
C2735 C2736 1.524 . S
C2735 C2739 1.400 . S
C2736 H2721 0.960 . S
C2736 H2722 0.960 . S
C2736 H2723 0.960 . S
C2736 C2735 1.524 . S
C2737 C2734 1.403 . S
C2737 C2738 1.392 . S
C2737 C2741 1.495 . S
C2738 C2737 1.392 . S
C2738 C2739 1.385 . S
C2738 C2740 1.478 . S
C2739 H2733 0.930 . S
C2739 C2735 1.400 . S
C2739 C2738 1.385 . S
C2740 C2738 1.478 . S
C2740 C2742 1.381 . S
C2740 C2746 1.383 . S
C2741 C2737 1.495 . S
C2741 H2747 0.959 . S
C2741 H2748 0.961 . S
C2741 H2749 0.960 . S
C2742 C2740 1.381 . S
C2742 C2743 1.394 . S
C2742 H2750 0.930 . S
C2743 C2742 1.394 . S
C2743 C2744 1.383 . S
C2743 H2751 0.929 . S
C2744 C2743 1.383 . S
C2744 C2745 1.377 . S
C2745 H2729 0.930 . S
C2745 C2744 1.377 . S
C2745 C2746 1.379 . S
C2746 H2730 0.931 . S
C2746 C2740 1.383 . S
C2746 C2745 1.379 . S
H2747 C2741 0.959 . S
H2748 C2741 0.961 . S
H2749 C2741 0.960 . S
H2750 C2742 0.930 . S
H2751 C2743 0.929 . S
C457 C8 1.247 . S
C476 C50 1.278 . S
C493 C36 1.233 . S
C512 C22 1.212 . S
C529 C64 1.233 . S
C548 C106 1.279 . S
C565 C92 1.246 . S
C584 C78 1.214 . S
C601 C120 1.201 . S
C620 C162 1.170 . S
C637 C148 1.196 . S
C656 C134 1.202 . S
C673 C176 1.210 . S
C692 C218 1.163 . S
C709 C190 1.210 . S
C728 C204 1.162 . S
C745 C274 1.205 . S
C764 C232 1.187 . S
C781 C246 1.206 . S
C800 C260 1.188 . S
C817 C288 1.199 . S
C836 C330 1.208 . S
C853 C316 1.209 . S
C872 C302 1.165 . S
C889 C344 1.242 . S
C908 C386 1.278 . S
C925 C372 1.248 . S
C944 C358 1.262 . S
C961 C400 1.240 . S
C980 C442 1.251 . S
C997 C414 1.234 . S
C1016 C428 1.276 . S
C1033 C174 1.592 . S
C1052 C6 1.570 . S
C1069 C20 1.590 . S
C1088 C300 1.592 . S
C1105 C34 1.547 . S
C1124 C90 1.533 . S
C1141 C440 1.553 . S
C1160 C48 1.567 . S
C1177 C62 1.593 . S
C1196 C118 1.571 . S
C1213 C244 1.590 . S
C1232 C76 1.570 . S
C1249 C384 1.549 . S
C1268 C104 1.559 . S
C1285 C412 1.591 . S
C1304 C132 1.602 . S
C1321 C202 1.561 . S
C1340 C146 1.539 . S
C1357 C328 1.566 . S
C1376 C160 1.567 . S
C1393 C188 1.597 . S
C1412 C356 1.592 . S
C1429 C272 1.557 . S
C1448 C216 1.548 . S
C1465 C398 1.591 . S
C1484 C230 1.569 . S
C1501 C314 1.559 . S
C1520 C258 1.565 . S
C1537 C342 1.595 . S
C1556 C286 1.610 . S
C1573 C370 1.551 . S
C1592 C426 1.528 . S
C1609 C147 1.304 . S
C1628 C7 1.288 . S
C1645 C21 1.304 . S
C1664 C161 1.291 . S
C1681 C119 1.264 . S
C1700 C35 1.247 . S
C1717 C133 1.266 . S
C1736 C49 1.243 . S
C1753 C63 1.304 . S
C1772 C203 1.308 . S
C1789 C77 1.303 . S
C1808 C217 1.310 . S
C1825 C175 1.261 . S
C1844 C91 1.246 . S
C1861 C105 1.266 . S
C1880 C189 1.266 . S
C1897 C371 1.263 . S
C1916 C231 1.250 . S
C1933 C385 1.263 . S
C1952 C245 1.261 . S
C1969 C259 1.299 . S
C1988 C343 1.311 . S
C2005 C273 1.302 . S
C2024 C357 1.300 . S
C2041 C287 1.261 . S
C2060 C427 1.245 . S
C2077 C301 1.262 . S
C2096 C441 1.241 . S
C2113 C399 1.300 . S
C2132 C315 1.299 . S
C2149 C413 1.299 . S
C2168 C329 1.291 . S
C2185 C9 1.575 . S
C2204 C359 1.559 . S
C2221 C345 1.576 . S
C2240 C23 1.560 . S
C2257 C37 1.556 . S
C2276 C387 1.539 . S
C2293 C51 1.562 . S
C2312 C373 1.568 . S
C2329 C65 1.578 . S
C2348 C415 1.565 . S
C2365 C79 1.579 . S
C2384 C401 1.590 . S
C2401 C443 1.561 . S
C2420 C93 1.539 . S
C2437 C429 1.560 . S
C2456 C107 1.540 . S
C2473 C247 1.581 . S
C2492 C121 1.587 . S
C2509 C233 1.575 . S
C2528 C135 1.559 . S
C2545 C149 1.567 . S
C2564 C275 1.577 . S
C2581 C163 1.561 . S
C2600 C261 1.545 . S
C2617 C303 1.581 . S
C2636 C177 1.559 . S
C2653 C191 1.580 . S
C2672 C289 1.586 . S
C2689 C205 1.563 . S
C2708 C331 1.577 . S
C2725 C219 1.567 . S
C2744 C317 1.555 . S
