# Generated by pormake.
# Topology uos, (4)-cn, num edge types: 1
# Building blocks:
#     Node 0, Type 0, BuildingBlock: GALJAG_clean_sbu_0, # of connection points: 4
#     Node 1, Type 0, BuildingBlock: GALJAG_clean_sbu_0, # of connection points: 4
#     Node 2, Type 0, BuildingBlock: GALJAG_clean_sbu_0, # of connection points: 4
#     Node 3, Type 0, BuildingBlock: GALJAG_clean_sbu_0, # of connection points: 4
#     Node 4, Type 0, BuildingBlock: GALJAG_clean_sbu_0, # of connection points: 4
#     Node 5, Type 0, BuildingBlock: GALJAG_clean_sbu_0, # of connection points: 4
#     Node 6, Type 0, BuildingBlock: GALJAG_clean_sbu_0, # of connection points: 4
#     Node 7, Type 0, BuildingBlock: GALJAG_clean_sbu_0, # of connection points: 4
#     Node 8, Type 0, BuildingBlock: GALJAG_clean_sbu_0, # of connection points: 4
#     Node 9, Type 0, BuildingBlock: GALJAG_clean_sbu_0, # of connection points: 4
#     Node 10, Type 0, BuildingBlock: GALJAG_clean_sbu_0, # of connection points: 4
#     Node 11, Type 0, BuildingBlock: GALJAG_clean_sbu_0, # of connection points: 4
#     Node 12, Type 0, BuildingBlock: GALJAG_clean_sbu_0, # of connection points: 4
#     Node 13, Type 0, BuildingBlock: GALJAG_clean_sbu_0, # of connection points: 4
#     Node 14, Type 0, BuildingBlock: GALJAG_clean_sbu_0, # of connection points: 4
#     Node 15, Type 0, BuildingBlock: GALJAG_clean_sbu_0, # of connection points: 4
#     Node 16, Type 0, BuildingBlock: GALJAG_clean_sbu_0, # of connection points: 4
#     Node 17, Type 0, BuildingBlock: GALJAG_clean_sbu_0, # of connection points: 4
#     Node 18, Type 0, BuildingBlock: GALJAG_clean_sbu_0, # of connection points: 4
#     Node 19, Type 0, BuildingBlock: GALJAG_clean_sbu_0, # of connection points: 4
#     Node 20, Type 0, BuildingBlock: GALJAG_clean_sbu_0, # of connection points: 4
#     Node 21, Type 0, BuildingBlock: GALJAG_clean_sbu_0, # of connection points: 4
#     Node 22, Type 0, BuildingBlock: GALJAG_clean_sbu_0, # of connection points: 4
#     Node 23, Type 0, BuildingBlock: GALJAG_clean_sbu_0, # of connection points: 4
#     Node 24, Type 0, BuildingBlock: GALJAG_clean_sbu_0, # of connection points: 4
#     Node 25, Type 0, BuildingBlock: GALJAG_clean_sbu_0, # of connection points: 4
#     Node 26, Type 0, BuildingBlock: GALJAG_clean_sbu_0, # of connection points: 4
#     Node 27, Type 0, BuildingBlock: GALJAG_clean_sbu_0, # of connection points: 4
#     Node 28, Type 0, BuildingBlock: GALJAG_clean_sbu_0, # of connection points: 4
#     Node 29, Type 0, BuildingBlock: GALJAG_clean_sbu_0, # of connection points: 4
#     Node 30, Type 0, BuildingBlock: GALJAG_clean_sbu_0, # of connection points: 4
#     Node 31, Type 0, BuildingBlock: GALJAG_clean_sbu_0, # of connection points: 4
#     Edge 32, Type (0, 0), BuildingBlock: TEMPAE_clean_linker_10, # of connection points: 2
#     Edge 33, Type (0, 0), BuildingBlock: TEMPAE_clean_linker_10, # of connection points: 2
#     Edge 34, Type (0, 0), BuildingBlock: TEMPAE_clean_linker_10, # of connection points: 2
#     Edge 35, Type (0, 0), BuildingBlock: TEMPAE_clean_linker_10, # of connection points: 2
#     Edge 36, Type (0, 0), BuildingBlock: TEMPAE_clean_linker_10, # of connection points: 2
#     Edge 37, Type (0, 0), BuildingBlock: TEMPAE_clean_linker_10, # of connection points: 2
#     Edge 38, Type (0, 0), BuildingBlock: TEMPAE_clean_linker_10, # of connection points: 2
#     Edge 39, Type (0, 0), BuildingBlock: TEMPAE_clean_linker_10, # of connection points: 2
#     Edge 40, Type (0, 0), BuildingBlock: TEMPAE_clean_linker_10, # of connection points: 2
#     Edge 41, Type (0, 0), BuildingBlock: TEMPAE_clean_linker_10, # of connection points: 2
#     Edge 42, Type (0, 0), BuildingBlock: TEMPAE_clean_linker_10, # of connection points: 2
#     Edge 43, Type (0, 0), BuildingBlock: TEMPAE_clean_linker_10, # of connection points: 2
#     Edge 44, Type (0, 0), BuildingBlock: TEMPAE_clean_linker_10, # of connection points: 2
#     Edge 45, Type (0, 0), BuildingBlock: TEMPAE_clean_linker_10, # of connection points: 2
#     Edge 46, Type (0, 0), BuildingBlock: TEMPAE_clean_linker_10, # of connection points: 2
#     Edge 47, Type (0, 0), BuildingBlock: TEMPAE_clean_linker_10, # of connection points: 2
#     Edge 48, Type (0, 0), BuildingBlock: TEMPAE_clean_linker_10, # of connection points: 2
#     Edge 49, Type (0, 0), BuildingBlock: TEMPAE_clean_linker_10, # of connection points: 2
#     Edge 50, Type (0, 0), BuildingBlock: TEMPAE_clean_linker_10, # of connection points: 2
#     Edge 51, Type (0, 0), BuildingBlock: TEMPAE_clean_linker_10, # of connection points: 2
#     Edge 52, Type (0, 0), BuildingBlock: TEMPAE_clean_linker_10, # of connection points: 2
#     Edge 53, Type (0, 0), BuildingBlock: TEMPAE_clean_linker_10, # of connection points: 2
#     Edge 54, Type (0, 0), BuildingBlock: TEMPAE_clean_linker_10, # of connection points: 2
#     Edge 55, Type (0, 0), BuildingBlock: TEMPAE_clean_linker_10, # of connection points: 2
#     Edge 56, Type (0, 0), BuildingBlock: TEMPAE_clean_linker_10, # of connection points: 2
#     Edge 57, Type (0, 0), BuildingBlock: TEMPAE_clean_linker_10, # of connection points: 2
#     Edge 58, Type (0, 0), BuildingBlock: TEMPAE_clean_linker_10, # of connection points: 2
#     Edge 59, Type (0, 0), BuildingBlock: TEMPAE_clean_linker_10, # of connection points: 2
#     Edge 60, Type (0, 0), BuildingBlock: TEMPAE_clean_linker_10, # of connection points: 2
#     Edge 61, Type (0, 0), BuildingBlock: TEMPAE_clean_linker_10, # of connection points: 2
#     Edge 62, Type (0, 0), BuildingBlock: TEMPAE_clean_linker_10, # of connection points: 2
#     Edge 63, Type (0, 0), BuildingBlock: TEMPAE_clean_linker_10, # of connection points: 2
#     Edge 64, Type (0, 0), BuildingBlock: TEMPAE_clean_linker_10, # of connection points: 2
#     Edge 65, Type (0, 0), BuildingBlock: TEMPAE_clean_linker_10, # of connection points: 2
#     Edge 66, Type (0, 0), BuildingBlock: TEMPAE_clean_linker_10, # of connection points: 2
#     Edge 67, Type (0, 0), BuildingBlock: TEMPAE_clean_linker_10, # of connection points: 2
#     Edge 68, Type (0, 0), BuildingBlock: TEMPAE_clean_linker_10, # of connection points: 2
#     Edge 69, Type (0, 0), BuildingBlock: TEMPAE_clean_linker_10, # of connection points: 2
#     Edge 70, Type (0, 0), BuildingBlock: TEMPAE_clean_linker_10, # of connection points: 2
#     Edge 71, Type (0, 0), BuildingBlock: TEMPAE_clean_linker_10, # of connection points: 2
#     Edge 72, Type (0, 0), BuildingBlock: TEMPAE_clean_linker_10, # of connection points: 2
#     Edge 73, Type (0, 0), BuildingBlock: TEMPAE_clean_linker_10, # of connection points: 2
#     Edge 74, Type (0, 0), BuildingBlock: TEMPAE_clean_linker_10, # of connection points: 2
#     Edge 75, Type (0, 0), BuildingBlock: TEMPAE_clean_linker_10, # of connection points: 2
#     Edge 76, Type (0, 0), BuildingBlock: TEMPAE_clean_linker_10, # of connection points: 2
#     Edge 77, Type (0, 0), BuildingBlock: TEMPAE_clean_linker_10, # of connection points: 2
#     Edge 78, Type (0, 0), BuildingBlock: TEMPAE_clean_linker_10, # of connection points: 2
#     Edge 79, Type (0, 0), BuildingBlock: TEMPAE_clean_linker_10, # of connection points: 2
#     Edge 80, Type (0, 0), BuildingBlock: TEMPAE_clean_linker_10, # of connection points: 2
#     Edge 81, Type (0, 0), BuildingBlock: TEMPAE_clean_linker_10, # of connection points: 2
#     Edge 82, Type (0, 0), BuildingBlock: TEMPAE_clean_linker_10, # of connection points: 2
#     Edge 83, Type (0, 0), BuildingBlock: TEMPAE_clean_linker_10, # of connection points: 2
#     Edge 84, Type (0, 0), BuildingBlock: TEMPAE_clean_linker_10, # of connection points: 2
#     Edge 85, Type (0, 0), BuildingBlock: TEMPAE_clean_linker_10, # of connection points: 2
#     Edge 86, Type (0, 0), BuildingBlock: TEMPAE_clean_linker_10, # of connection points: 2
#     Edge 87, Type (0, 0), BuildingBlock: TEMPAE_clean_linker_10, # of connection points: 2
#     Edge 88, Type (0, 0), BuildingBlock: TEMPAE_clean_linker_10, # of connection points: 2
#     Edge 89, Type (0, 0), BuildingBlock: TEMPAE_clean_linker_10, # of connection points: 2
#     Edge 90, Type (0, 0), BuildingBlock: TEMPAE_clean_linker_10, # of connection points: 2
#     Edge 91, Type (0, 0), BuildingBlock: TEMPAE_clean_linker_10, # of connection points: 2
#     Edge 92, Type (0, 0), BuildingBlock: TEMPAE_clean_linker_10, # of connection points: 2
#     Edge 93, Type (0, 0), BuildingBlock: TEMPAE_clean_linker_10, # of connection points: 2
#     Edge 94, Type (0, 0), BuildingBlock: TEMPAE_clean_linker_10, # of connection points: 2
#     Edge 95, Type (0, 0), BuildingBlock: TEMPAE_clean_linker_10, # of connection points: 2
# Relax obj value: 0.041
# Max RMSD: 0.074
# Mean RMSD: 0.074
data_MOF--net-uos--node1-GALJAG_clean_sbu_0--edge1-TEMPAE_clean_linker_10
_symmetry_space_group_name_H-M    P1
_symmetry_Int_Tables_number       1
_symmetry_cell_setting            triclinic
loop_
_symmetry_equiv_pos_as_xyz
'x, y, z'
_cell_length_a     91.190747
_cell_length_b     91.202012
_cell_length_c     21.116357
_cell_angle_alpha  90.005709
_cell_angle_beta   90.002018
_cell_angle_gamma 89.975889
loop_
_atom_site_label
_atom_site_type_symbol
_atom_site_fract_x
_atom_site_fract_y
_atom_site_fract_z
_atom_type_partial_charge
In0 In 0.17489 0.16474 0.11422 0.0
O1 O 0.17407 0.15157 0.02116 0.0
O2 O 0.15436 0.16094 0.05652 0.0
C3 C 0.20376 0.15935 0.13628 0.0
C4 C 0.15946 0.15105 0.20485 0.0
C5 C 0.17206 0.19424 0.1125 0.0
O6 O 0.19951 0.16769 0.09236 0.0
O7 O 0.19355 0.15341 0.16683 0.0
O8 O 0.17302 0.18698 0.16322 0.0
O9 O 0.17247 0.18662 0.06266 0.0
C10 C 0.16035 0.15304 0.01496 0.0
O11 O 0.16169 0.16474 0.20632 0.0
O12 O 0.16523 0.14444 0.15871 0.0
In13 In 0.08529 0.91928 0.39062 0.0
O14 O 0.10776 0.91732 0.34326 0.0
O15 O 0.08925 0.91041 0.29052 0.0
C16 C 0.08721 0.94725 0.43187 0.0
C17 C 0.09476 0.90089 0.48215 0.0
C18 C 0.05627 0.91713 0.36625 0.0
O19 O 0.09382 0.94287 0.38276 0.0
O20 O 0.07969 0.93757 0.45948 0.0
O21 O 0.06295 0.90837 0.40236 0.0
O22 O 0.06429 0.92678 0.34102 0.0
C23 C 0.10301 0.91164 0.29288 0.0
O24 O 0.08868 0.89636 0.43222 0.0
O25 O 0.09579 0.91463 0.48626 0.0
In26 In 0.32948 0.83336 0.62442 0.0
O27 O 0.32899 0.84737 0.53366 0.0
O28 O 0.3493 0.83836 0.5641 0.0
C29 C 0.30196 0.83595 0.67011 0.0
C30 C 0.34355 0.84851 0.71494 0.0
C31 C 0.33167 0.80444 0.59845 0.0
O32 O 0.30553 0.84088 0.61625 0.0
O33 O 0.31222 0.82979 0.70007 0.0
O34 O 0.34084 0.81116 0.63247 0.0
O35 O 0.3215 0.81233 0.57653 0.0
C36 C 0.34269 0.84647 0.52514 0.0
O37 O 0.34354 0.83465 0.71374 0.0
O38 O 0.33613 0.85456 0.67185 0.0
In39 In 0.41455 0.08056 0.87531 0.0
O40 O 0.39267 0.08228 0.8228 0.0
O41 O 0.41126 0.09231 0.78067 0.0
C42 C 0.41289 0.05226 0.91365 0.0
C43 C 0.40417 0.09971 0.96166 0.0
C44 C 0.44382 0.08202 0.85776 0.0
O45 O 0.40902 0.05615 0.8587 0.0
O46 O 0.41742 0.06254 0.94817 0.0
O47 O 0.43764 0.08555 0.90896 0.0
O48 O 0.43521 0.07795 0.81428 0.0
C49 C 0.39764 0.08996 0.778 0.0
O50 O 0.41439 0.103 0.92395 0.0
O51 O 0.39939 0.08682 0.956 0.0
In52 In 0.17133 0.8351 0.89026 0.0
O53 O 0.14854 0.83742 0.84596 0.0
O54 O 0.1669 0.84434 0.79202 0.0
C55 C 0.16859 0.80645 0.92074 0.0
C56 C 0.16391 0.8537 0.98538 0.0
C57 C 0.19913 0.8367 0.84662 0.0
O58 O 0.15878 0.81345 0.8914 0.0
O59 O 0.17963 0.81398 0.93612 0.0
O60 O 0.19482 0.84419 0.89349 0.0
O61 O 0.18948 0.8285 0.82264 0.0
C62 C 0.15316 0.84303 0.79519 0.0
O63 O 0.16495 0.84004 0.9932 0.0
O64 O 0.16736 0.85802 0.93074 0.0
In65 In 0.41618 0.9208 0.12362 0.0
O66 O 0.41563 0.90697 0.0335 0.0
O67 O 0.3955 0.91537 0.06951 0.0
C68 C 0.44472 0.91817 0.15542 0.0
C69 C 0.40227 0.90691 0.21908 0.0
C70 C 0.41429 0.94857 0.08031 0.0
O71 O 0.43841 0.90948 0.11773 0.0
O72 O 0.43658 0.92807 0.17803 0.0
O73 O 0.40744 0.94436 0.12916 0.0
O74 O 0.42205 0.93883 0.05426 0.0
C75 C 0.40185 0.9077 0.02807 0.0
O76 O 0.4024 0.92076 0.21524 0.0
O77 O 0.40968 0.90043 0.17725 0.0
In78 In 0.33212 0.16795 0.37006 0.0
O79 O 0.33293 0.1458 0.42095 0.0
O80 O 0.34135 0.16423 0.46987 0.0
C81 C 0.30492 0.16172 0.32571 0.0
C82 C 0.35207 0.16135 0.28057 0.0
C83 C 0.33331 0.19744 0.38663 0.0
O84 O 0.30704 0.16818 0.37775 0.0
O85 O 0.31648 0.15798 0.2973 0.0
O86 O 0.34326 0.19034 0.35889 0.0
O87 O 0.32295 0.18967 0.40728 0.0
C88 C 0.33927 0.15056 0.46983 0.0
O89 O 0.33985 0.16713 0.26754 0.0
O90 O 0.35438 0.15937 0.33888 0.0
In91 In 0.08453 0.0809 0.61367 0.0
O92 O 0.09814 0.08141 0.70511 0.0
O93 O 0.09053 0.10161 0.66677 0.0
C94 C 0.08683 0.05235 0.58021 0.0
C95 C 0.09958 0.09482 0.52233 0.0
C96 C 0.05531 0.08321 0.63222 0.0
O97 O 0.09178 0.05707 0.63229 0.0
O98 O 0.08091 0.06198 0.546 0.0
O99 O 0.06144 0.08589 0.58004 0.0
O100 O 0.06396 0.07964 0.67629 0.0
C101 C 0.09803 0.09526 0.70881 0.0
O102 O 0.08623 0.09746 0.53346 0.0
O103 O 0.1052 0.0849 0.55622 0.0
In104 In 0.83301 0.83355 0.86253 0.0
O105 O 0.83305 0.84753 0.95287 0.0
O106 O 0.85335 0.83901 0.91911 0.0
C107 C 0.80484 0.83638 0.82404 0.0
C108 C 0.84798 0.84873 0.77493 0.0
C109 C 0.83494 0.8043 0.88151 0.0
O110 O 0.80893 0.84035 0.87863 0.0
O111 O 0.81488 0.83111 0.79004 0.0
O112 O 0.83763 0.81032 0.82912 0.0
O113 O 0.83148 0.81304 0.9254 0.0
C114 C 0.84685 0.84697 0.95916 0.0
O115 O 0.85005 0.83519 0.78396 0.0
O116 O 0.83812 0.85443 0.80884 0.0
In117 In 0.91575 0.08031 0.63346 0.0
O118 O 0.91441 0.09473 0.54555 0.0
O119 O 0.89464 0.08981 0.59519 0.0
C120 C 0.94511 0.08188 0.64886 0.0
C121 C 0.90391 0.09232 0.73868 0.0
C122 C 0.9116 0.05333 0.58354 0.0
O123 O 0.93787 0.09155 0.61979 0.0
O124 O 0.93756 0.07144 0.67053 0.0
O125 O 0.9119 0.05545 0.64276 0.0
O126 O 0.91327 0.06471 0.55054 0.0
C127 C 0.90067 0.09643 0.54964 0.0
O128 O 0.90057 0.07952 0.72064 0.0
O129 O 0.91374 0.09842 0.70609 0.0
In130 In 0.67022 0.16634 0.37693 0.0
O131 O 0.67036 0.1521 0.46715 0.0
O132 O 0.65002 0.16028 0.43283 0.0
C133 C 0.69766 0.164 0.33043 0.0
C134 C 0.65644 0.15212 0.28309 0.0
C135 C 0.66842 0.19507 0.40696 0.0
O136 O 0.69408 0.15845 0.38315 0.0
O137 O 0.68746 0.17065 0.30213 0.0
O138 O 0.65939 0.18882 0.37066 0.0
O139 O 0.6782 0.18677 0.42942 0.0
C140 C 0.65655 0.15238 0.47282 0.0
O141 O 0.65589 0.16592 0.28849 0.0
O142 O 0.66425 0.14568 0.32385 0.0
In143 In 0.58376 0.92107 0.13513 0.0
O144 O 0.59615 0.92001 0.22972 0.0
O145 O 0.58964 0.90002 0.18588 0.0
C146 C 0.58523 0.94967 0.10143 0.0
C147 C 0.59963 0.90845 0.04278 0.0
C148 C 0.55468 0.91788 0.15391 0.0
O149 O 0.59191 0.94482 0.14956 0.0
O150 O 0.57793 0.94019 0.07179 0.0
O151 O 0.56098 0.91457 0.10273 0.0
O152 O 0.5631 0.92252 0.19698 0.0
C153 C 0.59634 0.90612 0.23104 0.0
O154 O 0.58608 0.9061 0.04943 0.0
O155 O 0.60508 0.91738 0.08187 0.0
In156 In 0.83009 0.16839 0.13436 0.0
O157 O 0.84563 0.16755 0.2185 0.0
O158 O 0.83289 0.14857 0.19821 0.0
C159 C 0.83371 0.19726 0.11013 0.0
C160 C 0.84493 0.15369 0.04383 0.0
C161 C 0.80135 0.16665 0.16552 0.0
O162 O 0.83622 0.19152 0.16328 0.0
O163 O 0.82966 0.18836 0.06775 0.0
O164 O 0.80672 0.15925 0.12054 0.0
O165 O 0.81037 0.17488 0.19318 0.0
C166 C 0.8425 0.15448 0.23277 0.0
O167 O 0.83125 0.15589 0.03979 0.0
O168 O 0.85099 0.15948 0.09127 0.0
In169 In 0.58283 0.07968 0.87753 0.0
O170 O 0.59707 0.07896 0.78741 0.0
O171 O 0.58778 0.09929 0.81599 0.0
C172 C 0.58557 0.05252 0.92677 0.0
C173 C 0.59762 0.09426 0.9675 0.0
C174 C 0.55395 0.08146 0.85008 0.0
O175 O 0.5906 0.05577 0.87267 0.0
O176 O 0.5792 0.06291 0.95504 0.0
O177 O 0.56049 0.09081 0.88379 0.0
O178 O 0.56201 0.07129 0.82916 0.0
C179 C 0.59605 0.09262 0.77787 0.0
O180 O 0.58377 0.09421 0.96546 0.0
O181 O 0.60385 0.08668 0.92538 0.0
In182 In 0.67154 0.83455 0.63727 0.0
O183 O 0.65687 0.83655 0.72414 0.0
O184 O 0.66741 0.85582 0.69011 0.0
C185 C 0.66881 0.80548 0.61684 0.0
C186 C 0.65637 0.84693 0.54151 0.0
C187 C 0.70011 0.83642 0.67084 0.0
O188 O 0.66493 0.81162 0.66767 0.0
O189 O 0.67377 0.81407 0.57506 0.0
O190 O 0.6951 0.8432 0.6233 0.0
O191 O 0.69081 0.82882 0.70012 0.0
C192 C 0.65882 0.85019 0.73008 0.0
O193 O 0.67025 0.84698 0.54286 0.0
O194 O 0.65038 0.84011 0.58658 0.0
In195 In 0.91649 0.92409 0.36369 0.0
O196 O 0.91725 0.9111 0.45654 0.0
O197 O 0.89653 0.91524 0.4137 0.0
C198 C 0.94588 0.92085 0.36071 0.0
C199 C 0.90453 0.90943 0.26524 0.0
C200 C 0.91149 0.9531 0.38394 0.0
O201 O 0.93886 0.92288 0.41152 0.0
O202 O 0.93807 0.92033 0.31138 0.0
O203 O 0.92164 0.94855 0.34852 0.0
O204 O 0.90348 0.94314 0.40608 0.0
C205 C 0.90351 0.90931 0.45837 0.0
O206 O 0.90403 0.92328 0.26854 0.0
O207 O 0.91164 0.90337 0.30912 0.0
In208 In 0.67376 0.66594 0.60992 0.0
O209 O 0.67468 0.65002 0.52529 0.0
O210 O 0.65581 0.66337 0.53652 0.0
C211 C 0.70124 0.66109 0.65333 0.0
C212 C 0.65743 0.65237 0.69798 0.0
C213 C 0.67187 0.69536 0.59491 0.0
O214 O 0.69849 0.66262 0.59502 0.0
O215 O 0.69019 0.66189 0.68901 0.0
O216 O 0.66185 0.68785 0.62009 0.0
O217 O 0.68283 0.68806 0.57673 0.0
C218 C 0.66196 0.65322 0.50607 0.0
O219 O 0.6603 0.66591 0.70104 0.0
O220 O 0.66315 0.64573 0.65174 0.0
In221 In 0.58688 0.41951 0.88183 0.0
O222 O 0.58935 0.39604 0.91829 0.0
O223 O 0.59052 0.41342 0.98497 0.0
C224 C 0.55749 0.41692 0.86859 0.0
C225 C 0.6058 0.41154 0.78885 0.0
C226 C 0.59275 0.44811 0.90588 0.0
O227 O 0.5635 0.4221 0.91745 0.0
O228 O 0.56633 0.41281 0.82614 0.0
O229 O 0.58328 0.44413 0.86591 0.0
O230 O 0.59974 0.43773 0.93097 0.0
C231 C 0.59132 0.39981 0.97514 0.0
O232 O 0.59286 0.41567 0.77729 0.0
O233 O 0.60929 0.41208 0.8465 0.0
In234 In 0.83058 0.33568 0.1228 0.0
O235 O 0.85342 0.33824 0.16628 0.0
O236 O 0.8351 0.34493 0.22099 0.0
C237 C 0.83332 0.30706 0.09187 0.0
C238 C 0.838 0.35408 0.02703 0.0
C239 C 0.80275 0.33716 0.16645 0.0
O240 O 0.84289 0.31388 0.12339 0.0
O241 O 0.82251 0.31474 0.07473 0.0
O242 O 0.80715 0.34497 0.12074 0.0
O243 O 0.81232 0.3287 0.18931 0.0
C244 C 0.84884 0.3438 0.21725 0.0
O245 O 0.83424 0.35854 0.08109 0.0
O246 O 0.83726 0.34037 0.02011 0.0
In247 In 0.9153 0.58033 0.38747 0.0
O248 O 0.89259 0.58319 0.34352 0.0
O249 O 0.91087 0.5889 0.28694 0.0
C250 C 0.91382 0.55234 0.4286 0.0
C251 C 0.90612 0.59848 0.48033 0.0
C252 C 0.94427 0.5824 0.36196 0.0
O253 O 0.90764 0.55649 0.37808 0.0
O254 O 0.92064 0.56228 0.45787 0.0
O255 O 0.93756 0.5916 0.39589 0.0
O256 O 0.9363 0.57237 0.33937 0.0
C257 C 0.8971 0.58838 0.29185 0.0
O258 O 0.91365 0.60293 0.43406 0.0
O259 O 0.90358 0.5849 0.48038 0.0
In260 In 0.67093 0.33427 0.37342 0.0
O261 O 0.64861 0.33447 0.32382 0.0
O262 O 0.66468 0.34976 0.2936 0.0
C263 C 0.6703 0.30501 0.39286 0.0
C264 C 0.66143 0.35084 0.47154 0.0
C265 C 0.69909 0.33643 0.33403 0.0
O266 O 0.6673 0.31087 0.34038 0.0
O267 O 0.67353 0.31392 0.43648 0.0
O268 O 0.69531 0.33972 0.38987 0.0
O269 O 0.68874 0.33217 0.29908 0.0
C270 C 0.65187 0.34485 0.28698 0.0
O271 O 0.67132 0.35513 0.43405 0.0
O272 O 0.65682 0.33803 0.46098 0.0
In273 In 0.91699 0.4196 0.62294 0.0
O274 O 0.89446 0.41737 0.66922 0.0
O275 O 0.91292 0.41094 0.72339 0.0
C276 C 0.91504 0.44769 0.58339 0.0
C277 C 0.90748 0.40149 0.53045 0.0
C278 C 0.94609 0.41722 0.64563 0.0
O279 O 0.90894 0.44329 0.63369 0.0
O280 O 0.92203 0.43794 0.55361 0.0
O281 O 0.93911 0.40812 0.61226 0.0
O282 O 0.93833 0.42729 0.6692 0.0
C283 C 0.89914 0.41192 0.72016 0.0
O284 O 0.91358 0.39682 0.5801 0.0
O285 O 0.90646 0.41525 0.52705 0.0
In286 In 0.83038 0.66501 0.88599 0.0
O287 O 0.85306 0.65832 0.85162 0.0
O288 O 0.8366 0.66186 0.7821 0.0
C289 C 0.83334 0.69419 0.90352 0.0
C290 C 0.837 0.64792 0.98758 0.0
C291 C 0.80238 0.66114 0.84559 0.0
O292 O 0.84173 0.68694 0.8677 0.0
O293 O 0.82362 0.68671 0.9312 0.0
O294 O 0.80636 0.67193 0.8786 0.0
O295 O 0.81241 0.65198 0.8344 0.0
C296 C 0.84965 0.6581 0.79377 0.0
O297 O 0.83037 0.64313 0.93959 0.0
O298 O 0.83952 0.66149 0.98601 0.0
In299 In 0.58685 0.57924 0.10983 0.0
O300 O 0.58603 0.5957 0.02818 0.0
O301 O 0.60665 0.58645 0.0543 0.0
C302 C 0.55738 0.58123 0.12373 0.0
C303 C 0.60146 0.59286 0.20392 0.0
C304 C 0.59206 0.55088 0.07894 0.0
O305 O 0.56349 0.57949 0.0707 0.0
O306 O 0.56612 0.58208 0.16984 0.0
O307 O 0.58778 0.55452 0.13363 0.0
O308 O 0.59383 0.56142 0.04144 0.0
C309 C 0.59973 0.59517 0.01879 0.0
O310 O 0.60129 0.57902 0.19948 0.0
O311 O 0.59371 0.59948 0.16366 0.0
In312 In 0.3263 0.33742 0.37868 0.0
O313 O 0.32741 0.35082 0.47122 0.0
O314 O 0.34709 0.34193 0.4334 0.0
C315 C 0.29738 0.34268 0.35788 0.0
C316 C 0.34143 0.35076 0.2862 0.0
C317 C 0.32897 0.30792 0.38237 0.0
O318 O 0.30177 0.33472 0.4029 0.0
O319 O 0.30749 0.34828 0.32551 0.0
O320 O 0.32727 0.31493 0.33134 0.0
O321 O 0.32936 0.31579 0.43149 0.0
C322 C 0.34121 0.34976 0.47547 0.0
O323 O 0.34018 0.33696 0.28851 0.0
O324 O 0.33477 0.35764 0.32935 0.0
In325 In 0.41819 0.57915 0.12713 0.0
O326 O 0.4054 0.57955 0.22129 0.0
O327 O 0.41227 0.59977 0.18107 0.0
C328 C 0.41665 0.55094 0.08862 0.0
C329 C 0.40243 0.59116 0.03299 0.0
C330 C 0.44718 0.58255 0.14872 0.0
O331 O 0.41049 0.55528 0.13896 0.0
O332 O 0.42347 0.56076 0.05874 0.0
O333 O 0.44009 0.59049 0.11057 0.0
O334 O 0.43956 0.57313 0.17762 0.0
C335 C 0.40531 0.59341 0.22465 0.0
O336 O 0.41624 0.5921 0.03521 0.0
O337 O 0.39669 0.5839 0.07736 0.0
In338 In 0.16929 0.66782 0.86895 0.0
O339 O 0.16879 0.65467 0.96195 0.0
O340 O 0.14855 0.66038 0.91824 0.0
C341 C 0.19758 0.66551 0.83086 0.0
C342 C 0.15542 0.65393 0.77418 0.0
C343 C 0.16677 0.69671 0.89511 0.0
O344 O 0.19279 0.65865 0.87857 0.0
O345 O 0.18822 0.67348 0.80381 0.0
O346 O 0.16323 0.69115 0.84268 0.0
O347 O 0.17134 0.68764 0.93574 0.0
C348 C 0.15494 0.65369 0.96262 0.0
O349 O 0.1532 0.66729 0.78657 0.0
O350 O 0.16486 0.64772 0.80868 0.0
In351 In 0.08592 0.42011 0.62014 0.0
O352 O 0.1082 0.41854 0.67073 0.0
O353 O 0.08975 0.40946 0.71691 0.0
C354 C 0.09069 0.4488 0.59288 0.0
C355 C 0.09226 0.40033 0.52884 0.0
C356 C 0.05644 0.41866 0.63069 0.0
O357 O 0.08082 0.44468 0.6307 0.0
O358 O 0.09857 0.43858 0.57174 0.0
O359 O 0.06296 0.41834 0.57794 0.0
O360 O 0.06479 0.4197 0.67817 0.0
C361 C 0.10339 0.41155 0.71781 0.0
O362 O 0.0884 0.39653 0.58377 0.0
O363 O 0.09246 0.41397 0.51981 0.0
In364 In 0.32985 0.66519 0.62967 0.0
O365 O 0.33072 0.65178 0.53754 0.0
O366 O 0.35069 0.6599 0.57624 0.0
C367 C 0.30155 0.66329 0.66757 0.0
C368 C 0.3434 0.64944 0.7197 0.0
C369 C 0.33238 0.69435 0.61019 0.0
O370 O 0.30572 0.65824 0.61475 0.0
O371 O 0.31155 0.66915 0.69987 0.0
O372 O 0.33606 0.68816 0.66113 0.0
O373 O 0.32766 0.68579 0.56781 0.0
C374 C 0.34458 0.65233 0.53378 0.0
O375 O 0.34552 0.66304 0.71297 0.0
O376 O 0.33424 0.64389 0.68187 0.0
In377 In 0.08429 0.57862 0.3709 0.0
O378 O 0.09879 0.57875 0.28159 0.0
O379 O 0.0878 0.59839 0.30805 0.0
C380 C 0.08982 0.55051 0.4061 0.0
C381 C 0.09807 0.59564 0.45562 0.0
C382 C 0.0547 0.58012 0.3631 0.0
O383 O 0.08514 0.55365 0.35144 0.0
O384 O 0.09196 0.56142 0.44119 0.0
O385 O 0.06153 0.58071 0.41495 0.0
O386 O 0.06277 0.57881 0.31495 0.0
C387 C 0.09667 0.59224 0.27073 0.0
O388 O 0.08424 0.5946 0.45412 0.0
O389 O 0.10478 0.58795 0.41527 0.0
In390 In 0.16848 0.33433 0.12965 0.0
O391 O 0.14528 0.33983 0.16215 0.0
O392 O 0.16178 0.33722 0.23253 0.0
C393 C 0.16779 0.30475 0.1147 0.0
C394 C 0.1614 0.35213 0.03085 0.0
C395 C 0.19575 0.34042 0.1732 0.0
O396 O 0.1575 0.31182 0.14019 0.0
O397 O 0.17828 0.31258 0.09574 0.0
O398 O 0.19353 0.33406 0.12099 0.0
O399 O 0.18425 0.34414 0.20217 0.0
C400 C 0.14857 0.34025 0.22022 0.0
O401 O 0.16682 0.35683 0.08177 0.0
O402 O 0.16015 0.33838 0.0285 0.0
In403 In 0.41843 0.41928 0.87954 0.0
O404 O 0.41665 0.40481 0.9672 0.0
O405 O 0.39707 0.41401 0.92929 0.0
C406 C 0.44732 0.41584 0.8554 0.0
C407 C 0.40494 0.40607 0.78109 0.0
C408 C 0.41679 0.44715 0.92261 0.0
O409 O 0.44049 0.40825 0.89561 0.0
O410 O 0.43951 0.42506 0.82611 0.0
O411 O 0.41122 0.44332 0.87031 0.0
O412 O 0.42316 0.43699 0.95228 0.0
C413 C 0.40286 0.40586 0.97057 0.0
O414 O 0.40484 0.41985 0.78774 0.0
O415 O 0.41245 0.39928 0.82167 0.0
C416 C 0.28841 0.15154 0.24198 0.0
C417 C 0.29018 0.15973 0.29769 0.0
C418 C 0.27466 0.15042 0.21234 0.0
C419 C 0.26245 0.15783 0.23864 0.0
C420 C 0.26415 0.16596 0.29536 0.0
C421 C 0.27798 0.16674 0.32439 0.0
C422 C 0.27324 0.14148 0.15248 0.0
C423 C 0.25142 0.17408 0.32472 0.0
C424 C 0.22978 0.16805 0.13569 0.0
C425 C 0.21928 0.15784 0.15566 0.0
C426 C 0.24403 0.16794 0.16108 0.0
C427 C 0.24788 0.15724 0.2068 0.0
C428 C 0.23752 0.14646 0.2247 0.0
C429 C 0.22331 0.14696 0.19926 0.0
C430 C 0.25473 0.17969 0.14114 0.0
C431 C 0.24126 0.13472 0.27247 0.0
H432 H 0.29781 0.14609 0.22116 0.0
H433 H 0.27931 0.17315 0.36724 0.0
H434 H 0.26457 0.13305 0.15832 0.0
H435 H 0.26986 0.14867 0.11267 0.0
H436 H 0.28366 0.13593 0.13947 0.0
H437 H 0.25455 0.17987 0.36901 0.0
H438 H 0.24705 0.18226 0.29066 0.0
H439 H 0.2424 0.16633 0.33563 0.0
H440 H 0.22668 0.17653 0.10228 0.0
H441 H 0.21523 0.139 0.21468 0.0
H442 H 0.26515 0.17465 0.12483 0.0
H443 H 0.25739 0.18676 0.18234 0.0
H444 H 0.25032 0.18671 0.1026 0.0
H445 H 0.25155 0.12906 0.25877 0.0
H446 H 0.23241 0.12643 0.27718 0.0
H447 H 0.24314 0.13981 0.3195 0.0
C448 C 0.09835 0.97235 0.43071 0.0
C449 C 0.08805 0.96249 0.45548 0.0
C450 C 0.09907 0.98688 0.45275 0.0
C451 C 0.08912 0.99168 0.49994 0.0
C452 C 0.07878 0.98171 0.52538 0.0
C453 C 0.07844 0.96723 0.50314 0.0
C454 C 0.11035 0.99714 0.42498 0.0
C455 C 0.06784 0.98645 0.57503 0.0
C456 C 0.09634 0.0267 0.59314 0.0
C457 C 0.08768 0.03683 0.56015 0.0
C458 C 0.09715 0.01198 0.57349 0.0
C459 C 0.08893 0.00731 0.52022 0.0
C460 C 0.08014 0.01752 0.48694 0.0
C461 C 0.0797 0.03216 0.50706 0.0
C462 C 0.10676 0.00143 0.60969 0.0
C463 C 0.07105 0.01295 0.43047 0.0
H464 H 0.10586 0.96871 0.39414 0.0
H465 H 0.07045 0.95965 0.52241 0.0
H466 H 0.10478 0.00619 0.39939 0.0
H467 H 0.11696 0.00218 0.46336 0.0
H468 H 0.11787 0.99148 0.39155 0.0
H469 H 0.0608 0.97725 0.59127 0.0
H470 H 0.07362 0.99111 0.61662 0.0
H471 H 0.06069 0.99521 0.5556 0.0
H472 H 0.10257 0.03029 0.63403 0.0
H473 H 0.07294 0.03994 0.48146 0.0
H474 H 0.11478 0.99623 0.57717 0.0
H475 H 0.09996 0.99251 0.6301 0.0
H476 H 0.11284 0.00689 0.6487 0.0
H477 H 0.07822 0.00823 0.39326 0.0
H478 H 0.06483 0.02226 0.40973 0.0
H479 H 0.06316 0.0043 0.44463 0.0
C480 C 0.22408 0.8482 0.84129 0.0
C481 C 0.21423 0.83738 0.82107 0.0
C482 C 0.23838 0.84889 0.81651 0.0
C483 C 0.24295 0.8384 0.77111 0.0
C484 C 0.23302 0.82746 0.7506 0.0
C485 C 0.21877 0.82714 0.77554 0.0
C486 C 0.24862 0.8608 0.83906 0.0
C487 C 0.2375 0.81595 0.70291 0.0
C488 C 0.27607 0.84518 0.6653 0.0
C489 C 0.28695 0.83706 0.69639 0.0
C490 C 0.26176 0.84603 0.6899 0.0
C491 C 0.25826 0.83846 0.7465 0.0
C492 C 0.26926 0.83036 0.77831 0.0
C493 C 0.28347 0.82981 0.75304 0.0
C494 C 0.25035 0.85488 0.65495 0.0
C495 C 0.26595 0.82201 0.8384 0.0
H496 H 0.22059 0.85618 0.87622 0.0
H497 H 0.21121 0.81872 0.75979 0.0
H498 H 0.25827 0.85583 0.86282 0.0
H499 H 0.25278 0.86717 0.79805 0.0
H500 H 0.24322 0.86846 0.87268 0.0
H501 H 0.22841 0.8083 0.69136 0.0
H502 H 0.24125 0.82127 0.65852 0.0
H503 H 0.24686 0.80949 0.72165 0.0
H504 H 0.27872 0.85085 0.62167 0.0
H505 H 0.29184 0.82351 0.77733 0.0
H506 H 0.2453 0.86304 0.68729 0.0
H507 H 0.24144 0.84756 0.63821 0.0
H508 H 0.255 0.86074 0.61345 0.0
H509 H 0.2614 0.82952 0.87474 0.0
H510 H 0.27583 0.81655 0.85823 0.0
H511 H 0.25751 0.81353 0.82888 0.0
C512 C 0.41966 0.03319 0.99289 0.0
C513 C 0.41241 0.03693 0.93656 0.0
C514 C 0.41954 0.01877 0.01586 0.0
C515 C 0.41178 0.00782 0.98223 0.0
C516 C 0.40428 0.01155 0.92567 0.0
C517 C 0.40478 0.02606 0.90317 0.0
C518 C 0.42789 0.01523 0.07573 0.0
C519 C 0.39575 1.0002 0.88897 0.0
C520 C 0.42356 0.96838 0.00948 0.0
C521 C 0.41339 0.96366 0.05494 0.0
C522 C 0.42305 0.98267 0.98495 0.0
C523 C 0.41195 0.99241 0.00558 0.0
C524 C 0.40148 0.98763 0.05066 0.0
C525 C 0.40241 0.97333 0.07526 0.0
C526 C 0.43458 0.98742 0.93788 0.0
C527 C 0.38938 0.99764 0.0732 0.0
H528 H 0.42563 0.04154 0.0188 0.0
H529 H 0.39911 0.02892 0.85978 0.0
H530 H 0.42035 0.01057 0.11171 0.0
H531 H 0.43636 0.00681 0.06572 0.0
H532 H 0.43335 0.02502 0.09629 0.0
H533 H 0.39006 0.00497 0.84725 0.0
H534 H 0.40324 0.99142 0.87236 0.0
H535 H 0.38747 0.99497 0.92015 0.0
H536 H 0.4321 0.96096 0.99371 0.0
H537 H 0.39447 0.96968 0.11005 0.0
H538 H 0.44094 0.99674 0.95751 0.0
H539 H 0.4293 0.99131 0.89363 0.0
H540 H 0.44232 0.97843 0.92587 0.0
H541 H 0.39415 0.00721 0.09824 0.0
H542 H 0.38165 0.99201 0.10574 0.0
H543 H 0.38313 0.00194 0.0321 0.0
C544 C 0.78557 0.83064 0.74421 0.0
C545 C 0.78956 0.83753 0.80106 0.0
C546 C 0.77111 0.83117 0.72176 0.0
C547 C 0.76038 0.83895 0.75658 0.0
C548 C 0.76439 0.84622 0.81333 0.0
C549 C 0.77894 0.84533 0.8352 0.0
C550 C 0.76726 0.82308 0.6616 0.0
C551 C 0.75327 0.85476 0.85135 0.0
C552 C 0.72495 0.84827 0.66982 0.0
C553 C 0.71556 0.83723 0.69184 0.0
C554 C 0.7395 0.8492 0.69155 0.0
C555 C 0.74481 0.83869 0.73536 0.0
C556 C 0.73537 0.82748 0.75733 0.0
C557 C 0.72085 0.82697 0.7357 0.0
C558 C 0.74921 0.86142 0.6677 0.0
C559 C 0.74065 0.81589 0.80309 0.0
H560 H 0.79373 0.82457 0.7176 0.0
H561 H 0.78199 0.85074 0.87896 0.0
H562 H 0.7591 0.81439 0.67209 0.0
H563 H 0.76215 0.83069 0.62705 0.0
H564 H 0.77698 0.81791 0.63912 0.0
H565 H 0.75833 0.86058 0.89206 0.0
H566 H 0.74769 0.86292 0.82069 0.0
H567 H 0.74472 0.84723 0.86968 0.0
H568 H 0.72086 0.85629 0.63626 0.0
H569 H 0.71364 0.81837 0.75274 0.0
H570 H 0.75869 0.85676 0.64164 0.0
H571 H 0.75367 0.86774 0.70825 0.0
H572 H 0.74326 0.86906 0.63576 0.0
H573 H 0.74995 0.80975 0.78197 0.0
H574 H 0.73189 0.80795 0.81579 0.0
H575 H 0.74473 0.82111 0.84714 0.0
C576 C 0.89748 0.97334 0.43583 0.0
C577 C 0.91022 0.96851 0.40504 0.0
C578 C 0.89677 0.98735 0.46325 0.0
C579 C 0.90921 0.99662 0.46102 0.0
C580 C 0.92199 0.99192 0.42867 0.0
C581 C 0.92228 0.97797 0.40048 0.0
C582 C 0.88282 0.9921 0.49591 0.0
C583 C 0.93554 0.0014 0.4259 0.0
C584 C 0.90574 0.03757 0.49051 0.0
C585 C 0.91002 0.03871 0.55413 0.0
C586 C 0.90503 0.0239 0.46013 0.0
C587 C 0.90901 0.01109 0.49378 0.0
C588 C 0.91317 0.01216 0.55832 0.0
C589 C 0.91347 0.02596 0.58797 0.0
C590 C 0.9002 0.0232 0.39178 0.0
C591 C 0.91771 0.99877 0.59553 0.0
H592 H 0.88813 0.96605 0.4394 0.0
H593 H 0.93221 0.97422 0.37727 0.0
H594 H 0.88487 0.99348 0.54734 0.0
H595 H 0.87916 0.00287 0.47727 0.0
H596 H 0.87381 0.98404 0.48957 0.0
H597 H 0.94449 0.99625 0.39797 0.0
H598 H 0.93289 0.01219 0.40456 0.0
H599 H 0.93961 0.0035 0.4746 0.0
H600 H 0.90298 0.04741 0.46429 0.0
H601 H 0.91687 0.02683 0.63702 0.0
H602 H 0.89101 0.01533 0.38649 0.0
H603 H 0.90935 0.01918 0.36185 0.0
H604 H 0.89663 0.03406 0.37353 0.0
H605 H 0.90875 0.99055 0.59545 0.0
H606 H 0.92053 0.00143 0.64541 0.0
H607 H 0.92738 0.99358 0.5728 0.0
C608 C 0.72362 0.15494 0.33391 0.0
C609 C 0.71264 0.16311 0.30372 0.0
C610 C 0.73796 0.1545 0.30947 0.0
C611 C 0.74138 0.16252 0.25391 0.0
C612 C 0.73024 0.17055 0.22266 0.0
C613 C 0.71601 0.17071 0.24782 0.0
C614 C 0.74953 0.14573 0.34386 0.0
C615 C 0.73346 0.17935 0.16367 0.0
C616 C 0.78055 0.17547 0.23176 0.0
C617 C 0.78589 0.1656 0.18631 0.0
C618 C 0.76612 0.17454 0.2541 0.0
C619 C 0.75678 0.16338 0.23085 0.0
C620 C 0.76208 0.15336 0.18493 0.0
C621 C 0.77659 0.15464 0.16292 0.0
C622 C 0.76085 0.18555 0.30252 0.0
C623 C 0.75245 0.14128 0.15934 0.0
H624 H 0.72105 0.14899 0.37693 0.0
H625 H 0.70757 0.17703 0.22415 0.0
H626 H 0.75506 0.13811 0.3106 0.0
H627 H 0.75804 0.15322 0.36289 0.0
H628 H 0.74488 0.13929 0.38374 0.0
H629 H 0.72343 0.1844 0.14326 0.0
H630 H 0.74138 0.18821 0.17493 0.0
H631 H 0.7386 0.17227 0.12718 0.0
H632 H 0.78769 0.18399 0.24997 0.0
H633 H 0.7807 0.14694 0.12804 0.0
H634 H 0.75718 0.17979 0.346 0.0
H635 H 0.75128 0.19166 0.28365 0.0
H636 H 0.7695 0.19356 0.31571 0.0
H637 H 0.74849 0.13429 0.19879 0.0
H638 H 0.75829 0.13425 0.12455 0.0
H639 H 0.74265 0.14606 0.13608 0.0
C640 C 0.59505 0.02671 0.92577 0.0
C641 C 0.58676 0.03772 0.95509 0.0
C642 C 0.59585 0.01255 0.9519 0.0
C643 C 0.58804 0.00932 0.00822 0.0
C644 C 0.57987 0.0205 0.03855 0.0
C645 C 0.57939 0.03456 0.01178 0.0
C646 C 0.60478 0.00095 0.91849 0.0
C647 C 0.57125 0.01748 0.09821 0.0
C648 C 0.57592 0.97 0.03395 0.0
C649 C 0.58592 0.96507 0.07971 0.0
C650 C 0.5765 0.98436 0.0106 0.0
C651 C 0.58747 0.99404 0.03288 0.0
C652 C 0.59763 0.98914 0.07912 0.0
C653 C 0.59667 0.97471 0.10241 0.0
C654 C 0.56531 0.9892 0.96211 0.0
C655 C 0.60957 0.99911 0.1035 0.0
H656 H 0.60085 0.02912 0.88218 0.0
H657 H 0.57297 0.04304 0.03477 0.0
H658 H 0.61253 0.99573 0.95214 0.0
H659 H 0.59742 0.99221 0.90048 0.0
H660 H 0.6111 0.00548 0.87801 0.0
H661 H 0.56607 0.02754 0.11772 0.0
H662 H 0.56251 0.00935 0.08815 0.0
H663 H 0.57848 0.01267 0.13497 0.0
H664 H 0.56755 0.9626 0.0164 0.0
H665 H 0.60447 0.97091 0.13749 0.0
H666 H 0.57091 0.99268 0.91799 0.0
H667 H 0.55911 0.9988 0.98018 0.0
H668 H 0.55738 0.98037 0.95023 0.0
H669 H 0.61647 0.00295 0.06352 0.0
H670 H 0.61672 0.99359 0.13882 0.0
H671 H 0.60465 0.00898 0.12574 0.0
C672 C 0.71824 0.65427 0.74112 0.0
C673 C 0.71623 0.6592 0.67882 0.0
C674 C 0.73229 0.65339 0.76796 0.0
C675 C 0.74462 0.65782 0.73204 0.0
C676 C 0.74269 0.66251 0.66858 0.0
C677 C 0.72851 0.66301 0.6425 0.0
C678 C 0.73389 0.64809 0.83535 0.0
C679 C 0.75554 0.66752 0.62903 0.0
C680 C 0.7777 0.67178 0.82324 0.0
C681 C 0.78742 0.65992 0.81881 0.0
C682 C 0.76378 0.67124 0.79501 0.0
C683 C 0.75938 0.65843 0.76218 0.0
C684 C 0.76905 0.64631 0.75846 0.0
C685 C 0.78301 0.64723 0.78649 0.0
C686 C 0.75386 0.68446 0.79963 0.0
C687 C 0.76467 0.63239 0.72471 0.0
H688 H 0.70877 0.65121 0.76923 0.0
H689 H 0.727 0.66688 0.59441 0.0
H690 H 0.7422 0.63922 0.83793 0.0
H691 H 0.7378 0.65719 0.8658 0.0
H692 H 0.72339 0.64391 0.85502 0.0
H693 H 0.7523 0.67018 0.57963 0.0
H694 H 0.76052 0.67742 0.65074 0.0
H695 H 0.76413 0.65891 0.62781 0.0
H696 H 0.78107 0.68165 0.84787 0.0
H697 H 0.79049 0.63802 0.78294 0.0
H698 H 0.74347 0.68143 0.82365 0.0
H699 H 0.75097 0.68838 0.75147 0.0
H700 H 0.759 0.69364 0.82616 0.0
H701 H 0.75443 0.62796 0.74566 0.0
H702 H 0.77331 0.62382 0.72736 0.0
H703 H 0.76237 0.63476 0.67416 0.0
C704 C 0.58376 0.47395 0.91063 0.0
C705 C 0.59429 0.46346 0.92749 0.0
C706 C 0.58408 0.48811 0.93676 0.0
C707 C 0.59531 0.4919 0.98015 0.0
C708 C 0.60623 0.48148 0.9958 0.0
C709 C 0.60554 0.46734 0.96957 0.0
C710 C 0.57219 0.49889 0.9191 0.0
C711 C 0.61851 0.48519 0.041 0.0
C712 C 0.60178 0.53267 0.00182 0.0
C713 C 0.59409 0.53555 0.05799 0.0
C714 C 0.6027 0.51842 0.97719 0.0
C715 C 0.59556 0.50679 0.00898 0.0
C716 C 0.58811 0.50955 0.0667 0.0
C717 C 0.58756 0.52392 0.09084 0.0
C718 C 0.61097 0.5159 0.91616 0.0
C719 C 0.58026 0.49744 0.10166 0.0
H720 H 0.57498 0.47097 0.87851 0.0
H721 H 0.6137 0.45926 0.98279 0.0
H722 H 0.5661 0.50229 0.96217 0.0
H723 H 0.57712 0.50891 0.89831 0.0
H724 H 0.56426 0.49424 0.88457 0.0
H725 H 0.62647 0.47605 0.04628 0.0
H726 H 0.62447 0.49505 0.0242 0.0
H727 H 0.61393 0.48784 0.08831 0.0
H728 H 0.60693 0.54163 0.97646 0.0
H729 H 0.58155 0.52613 0.1341 0.0
H730 H 0.60323 0.51244 0.8785 0.0
H731 H 0.61908 0.50694 0.92225 0.0
H732 H 0.61682 0.5259 0.89987 0.0
H733 H 0.57127 0.49305 0.07171 0.0
H734 H 0.57551 0.50126 0.14723 0.0
H735 H 0.5879 0.48825 0.1114 0.0
C736 C 0.72528 0.34444 0.34562 0.0
C737 C 0.71437 0.33727 0.31063 0.0
C738 C 0.73977 0.34525 0.32296 0.0
C739 C 0.74342 0.33854 0.2645 0.0
C740 C 0.73242 0.33129 0.22913 0.0
C741 C 0.71802 0.33084 0.2524 0.0
C742 C 0.75117 0.35323 0.36161 0.0
C743 C 0.73589 0.32379 0.16711 0.0
C744 C 0.77803 0.34907 0.17441 0.0
C745 C 0.78763 0.33777 0.19184 0.0
C746 C 0.7637 0.34968 0.19894 0.0
C747 C 0.75883 0.33861 0.24106 0.0
C748 C 0.76852 0.32719 0.25878 0.0
C749 C 0.78282 0.32697 0.23432 0.0
C750 C 0.75374 0.36212 0.17952 0.0
C751 C 0.7637 0.31505 0.30271 0.0
H752 H 0.72248 0.3495 0.39048 0.0
H753 H 0.70964 0.32524 0.22521 0.0
H754 H 0.75991 0.34549 0.37635 0.0
H755 H 0.75645 0.36187 0.33247 0.0
H756 H 0.74644 0.3584 0.40466 0.0
H757 H 0.72604 0.31873 0.14515 0.0
H758 H 0.74062 0.33179 0.13322 0.0
H759 H 0.74423 0.31512 0.17481 0.0
H760 H 0.78173 0.35748 0.1419 0.0
H761 H 0.79019 0.31819 0.24786 0.0
H762 H 0.74949 0.36783 0.22213 0.0
H763 H 0.74414 0.35774 0.1534 0.0
H764 H 0.75941 0.37024 0.14892 0.0
H765 H 0.75985 0.31971 0.34829 0.0
H766 H 0.77264 0.30709 0.31261 0.0
H767 H 0.75433 0.30904 0.28148 0.0
C768 C 0.90471 0.47311 0.58958 0.0
C769 C 0.91421 0.46302 0.56082 0.0
C770 C 0.90392 0.48768 0.5682 0.0
C771 C 0.91298 0.49228 0.51744 0.0
C772 C 0.92258 0.48211 0.48827 0.0
C773 C 0.92301 0.46759 0.51009 0.0
C774 C 0.89346 0.49818 0.60006 0.0
C775 C 0.93254 0.48662 0.43455 0.0
C776 C 0.90388 0.52676 0.42392 0.0
C777 C 0.9133 0.53704 0.45177 0.0
C778 C 0.90343 0.5122 0.44565 0.0
C779 C 0.91277 0.50781 0.4958 0.0
C780 C 0.92228 0.51818 0.52412 0.0
C781 C 0.92236 0.53268 0.50202 0.0
C782 C 0.89303 0.50149 0.41472 0.0
C783 C 0.93254 0.51389 0.57714 0.0
H784 H 0.89785 0.4696 0.62863 0.0
H785 H 0.9304 0.45985 0.48776 0.0
H786 H 0.89967 0.50733 0.62192 0.0
H787 H 0.88595 0.50305 0.56445 0.0
H788 H 0.8868 0.49276 0.63736 0.0
H789 H 0.93928 0.47735 0.41667 0.0
H790 H 0.92595 0.49105 0.39474 0.0
H791 H 0.94 0.49549 0.45052 0.0
H792 H 0.89681 0.5301 0.38525 0.0
H793 H 0.9297 0.54058 0.52363 0.0
H794 H 0.88581 0.49647 0.45097 0.0
H795 H 0.89933 0.49248 0.39225 0.0
H796 H 0.88608 0.50678 0.37805 0.0
H797 H 0.92622 0.5093 0.61738 0.0
H798 H 0.93913 0.52331 0.59458 0.0
H799 H 0.94015 0.5052 0.56061 0.0
C800 C 0.27761 0.35507 0.29633 0.0
C801 C 0.2818 0.34417 0.33953 0.0
C802 C 0.26332 0.35556 0.27175 0.0
C803 C 0.25304 0.34474 0.29001 0.0
C804 C 0.25707 0.334 0.33532 0.0
C805 C 0.27139 0.33392 0.35997 0.0
C806 C 0.25939 0.36736 0.22449 0.0
C807 C 0.24647 0.32218 0.35555 0.0
C808 C 0.21243 0.35041 0.25677 0.0
C809 C 0.21054 0.34234 0.20081 0.0
C810 C 0.22623 0.35147 0.28594 0.0
C811 C 0.2384 0.34413 0.25889 0.0
C812 C 0.23658 0.3361 0.20198 0.0
C813 C 0.22269 0.33537 0.17343 0.0
C814 C 0.22778 0.36031 0.34603 0.0
C815 C 0.24926 0.32804 0.17183 0.0
H816 H 0.28562 0.36306 0.28059 0.0
H817 H 0.27462 0.32542 0.39304 0.0
H818 H 0.25741 0.36233 0.17743 0.0
H819 H 0.24912 0.37296 0.23888 0.0
H820 H 0.2682 0.3757 0.21956 0.0
H821 H 0.25101 0.31514 0.39372 0.0
H822 H 0.23608 0.32715 0.37247 0.0
H823 H 0.24373 0.31515 0.31433 0.0
H824 H 0.20307 0.35582 0.27813 0.0
H825 H 0.22128 0.32905 0.1304 0.0
H826 H 0.23638 0.3688 0.34001 0.0
H827 H 0.23131 0.35308 0.38541 0.0
H828 H 0.21737 0.36578 0.35977 0.0
H829 H 0.25821 0.33584 0.16055 0.0
H830 H 0.24602 0.32228 0.12763 0.0
H831 H 0.25375 0.31986 0.20555 0.0
C832 C 0.42548 0.53112 0.01686 0.0
C833 C 0.41606 0.53562 0.06563 0.0
C834 C 0.42518 0.51671 0.9938 0.0
C835 C 0.41506 0.50656 0.01948 0.0
C836 C 0.40541 0.51107 0.06837 0.0
C837 C 0.4061 0.52554 0.09126 0.0
C838 C 0.43582 0.5123 0.94236 0.0
C839 C 0.39435 0.5006 0.09639 0.0
C840 C 0.40706 0.47285 0.91892 0.0
C841 C 0.41602 0.46229 0.94769 0.0
C842 C 0.40633 0.48723 0.94277 0.0
C843 C 0.41492 0.49115 0.99607 0.0
C844 C 0.42393 0.48049 0.02541 0.0
C845 C 0.42429 0.46617 0.0011 0.0
C846 C 0.39649 0.49827 0.9106 0.0
C847 C 0.4334 0.48426 0.08176 0.0
H848 H 0.43324 0.53886 0.997 0.0
H849 H 0.39875 0.529 0.12872 0.0
H850 H 0.44285 0.50316 0.95923 0.0
H851 H 0.42975 0.50827 0.90032 0.0
H852 H 0.443 0.52151 0.92748 0.0
H853 H 0.38733 0.50593 0.13269 0.0
H854 H 0.38723 0.49613 0.05845 0.0
H855 H 0.40009 0.49118 0.11855 0.0
H856 H 0.40057 0.46988 0.87786 0.0
H857 H 0.43125 0.45806 0.02353 0.0
H858 H 0.40319 0.5073 0.89062 0.0
H859 H 0.38888 0.50321 0.9456 0.0
H860 H 0.38995 0.49329 0.87177 0.0
H861 H 0.44139 0.4929 0.06844 0.0
H862 H 0.43955 0.47462 0.09995 0.0
H863 H 0.42655 0.48873 0.12062 0.0
C864 C 0.28234 0.67045 0.74547 0.0
C865 C 0.28625 0.66263 0.69079 0.0
C866 C 0.26794 0.67024 0.76868 0.0
C867 C 0.25716 0.66185 0.73689 0.0
C868 C 0.26107 0.65372 0.68218 0.0
C869 C 0.27557 0.65428 0.65949 0.0
C870 C 0.26421 0.67923 0.82659 0.0
C871 C 0.2499 0.64456 0.64739 0.0
C872 C 0.2224 0.65358 0.83033 0.0
C873 C 0.21281 0.66432 0.80711 0.0
C874 C 0.23678 0.65236 0.80671 0.0
C875 C 0.24169 0.66224 0.75944 0.0
C876 C 0.23201 0.67308 0.73585 0.0
C877 C 0.21768 0.67392 0.7597 0.0
C878 C 0.24675 0.64059 0.83263 0.0
C879 C 0.23686 0.68397 0.68619 0.0
H880 H 0.29053 0.67695 0.76989 0.0
H881 H 0.27856 0.64816 0.61743 0.0
H882 H 0.25584 0.68759 0.81431 0.0
H883 H 0.25942 0.6721 0.86379 0.0
H884 H 0.27394 0.68491 0.84658 0.0
H885 H 0.25484 0.63829 0.60762 0.0
H886 H 0.24462 0.63673 0.68053 0.0
H887 H 0.24112 0.65172 0.6282 0.0
H888 H 0.21864 0.64607 0.86666 0.0
H889 H 0.21033 0.68226 0.74155 0.0
H890 H 0.25626 0.64571 0.8568 0.0
H891 H 0.25114 0.63381 0.79333 0.0
H892 H 0.24105 0.63331 0.86682 0.0
H893 H 0.24611 0.69061 0.70464 0.0
H894 H 0.22789 0.69151 0.67181 0.0
H895 H 0.24088 0.67811 0.64354 0.0
C896 C 0.08092 0.47433 0.58278 0.0
C897 C 0.09193 0.46405 0.56942 0.0
C898 C 0.08113 0.48834 0.55515 0.0
C899 C 0.09271 0.49222 0.51365 0.0
C900 C 0.10407 0.48202 0.50138 0.0
C901 C 0.1035 0.46804 0.52917 0.0
C902 C 0.06879 0.49889 0.56931 0.0
C903 C 0.1167 0.4858 0.45815 0.0
C904 C 0.08559 0.5234 0.39759 0.0
C905 C 0.0917 0.53535 0.42985 0.0
C906 C 0.08604 0.50922 0.42381 0.0
C907 C 0.09291 0.50697 0.48327 0.0
C908 C 0.09956 0.51893 0.51481 0.0
C909 C 0.0988 0.53297 0.48791 0.0
C910 C 0.07877 0.49675 0.38888 0.0
C911 C 0.10715 0.51697 0.57781 0.0
H912 H 0.0719 0.47128 0.61349 0.0
H913 H 0.11204 0.46013 0.51859 0.0
H914 H 0.07325 0.50916 0.58987 0.0
H915 H 0.06307 0.50187 0.52476 0.0
H916 H 0.06065 0.49423 0.60282 0.0
H917 H 0.1249 0.47682 0.4551 0.0
H918 H 0.11254 0.48815 0.40984 0.0
H919 H 0.12228 0.49586 0.47522 0.0
H920 H 0.08003 0.5252 0.35288 0.0
H921 H 0.1036 0.54216 0.51297 0.0
H922 H 0.06961 0.49233 0.41772 0.0
H923 H 0.0867 0.48768 0.38147 0.0
H924 H 0.07438 0.5002 0.34212 0.0
H925 H 0.09908 0.51346 0.61407 0.0
H926 H 0.11251 0.52721 0.59438 0.0
H927 H 0.11558 0.50823 0.57438 0.0
C928 C 0.15822 0.13768 0.91667 0.0
C929 C 0.15155 0.14497 0.96752 0.0
C930 C 0.1498 0.12941 0.87372 0.0
C931 C 0.13444 0.1282 0.88275 0.0
C932 C 0.12771 0.1355 0.93422 0.0
C933 C 0.13632 0.14389 0.97554 0.0
C934 C 0.15732 0.122 0.81865 0.0
C935 C 0.11141 0.13433 0.94608 0.0
C936 C 0.10943 0.11861 0.74519 0.0
C937 C 0.107 0.10358 0.7548 0.0
C938 C 0.11858 0.12665 0.78568 0.0
C939 C 0.12528 0.11957 0.83782 0.0
C940 C 0.12276 0.10442 0.8482 0.0
C941 C 0.11375 0.09656 0.80615 0.0
C942 C 0.12111 0.14273 0.77252 0.0
C943 C 0.1295 0.09656 0.90397 0.0
H944 H 0.16999 0.13846 0.91042 0.0
H945 H 0.13111 0.14937 0.01518 0.0
H946 H 0.15557 0.10998 0.82112 0.0
H947 H 0.15246 0.12586 0.77343 0.0
H948 H 0.1693 0.12419 0.81774 0.0
H949 H 0.10794 0.14035 0.98929 0.0
H950 H 0.10526 0.13877 0.90501 0.0
H951 H 0.10824 0.12264 0.95132 0.0
H952 H 0.10438 0.12407 0.70514 0.0
H953 H 0.11193 0.08495 0.81363 0.0
H954 H 0.13304 0.14494 0.76808 0.0
H955 H 0.11699 0.14941 0.81265 0.0
H956 H 0.11557 0.14645 0.7285 0.0
H957 H 0.14162 0.09747 0.90212 0.0
H958 H 0.12649 0.08476 0.90533 0.0
H959 H 0.12586 0.10179 0.94875 0.0
C960 C 0.15238 0.85798 0.09123 0.0
C961 C 0.15739 0.8636 0.03337 0.0
C962 C 0.14439 0.86679 0.13353 0.0
C963 C 0.14135 0.88157 0.11756 0.0
C964 C 0.14692 0.88747 0.06041 0.0
C965 C 0.15487 0.87841 0.01899 0.0
C966 C 0.13871 0.8601 0.19416 0.0
C967 C 0.14396 0.90318 0.0418 0.0
C968 C 0.10704 0.8977 0.19242 0.0
C969 C 0.11287 0.90544 0.24397 0.0
C970 C 0.11623 0.89023 0.14988 0.0
C971 C 0.13162 0.89054 0.15903 0.0
C972 C 0.13759 0.89882 0.20955 0.0
C973 C 0.12814 0.90615 0.25148 0.0
C974 C 0.10943 0.88157 0.09646 0.0
C975 C 0.15393 0.8995 0.22063 0.0
H976 H 0.15428 0.84655 0.10262 0.0
H977 H 0.1587 0.88282 0.97429 0.0
H978 H 0.14203 0.86688 0.23536 0.0
H979 H 0.12654 0.85986 0.19322 0.0
H980 H 0.14278 0.84874 0.20144 0.0
H981 H 0.15006 0.90643 0.99848 0.0
H982 H 0.13206 0.90468 0.03292 0.0
H983 H 0.14704 0.9107 0.08091 0.0
H984 H 0.09526 0.89709 0.18636 0.0
H985 H 0.13271 0.91212 0.29123 0.0
H986 H 0.11179 0.86973 0.103 0.0
H987 H 0.1143 0.8849 0.05053 0.0
H988 H 0.09736 0.88308 0.09385 0.0
H989 H 0.15806 0.88846 0.2336 0.0
H990 H 0.15688 0.90729 0.25901 0.0
H991 H 0.15967 0.90284 0.17661 0.0
C992 C 0.39057 0.88368 0.25424 0.0
C993 C 0.3932 0.89863 0.26483 0.0
C994 C 0.38161 0.87553 0.29499 0.0
C995 C 0.37531 0.88241 0.34849 0.0
C996 C 0.37791 0.89752 0.35961 0.0
C997 C 0.38674 0.90551 0.3172 0.0
C998 C 0.37897 0.8595 0.28096 0.0
C999 C 0.37158 0.90517 0.41681 0.0
C1000 C 0.3435 0.86301 0.43012 0.0
C1001 C 0.35081 0.85538 0.47829 0.0
C1002 C 0.3513 0.87197 0.38759 0.0
C1003 C 0.36669 0.87351 0.39437 0.0
C1004 C 0.37405 0.86595 0.44345 0.0
C1005 C 0.36605 0.85688 0.48434 0.0
C1006 C 0.34312 0.87966 0.33505 0.0
C1007 C 0.39042 0.86741 0.45281 0.0
H1008 H 0.39538 0.87833 0.21337 0.0
H1009 H 0.38872 0.91708 0.32539 0.0
H1010 H 0.38363 0.85266 0.31946 0.0
H1011 H 0.36702 0.85723 0.27908 0.0
H1012 H 0.38398 0.85602 0.23541 0.0
H1013 H 0.37436 0.91702 0.41793 0.0
H1014 H 0.35948 0.90399 0.41731 0.0
H1015 H 0.37581 0.89996 0.46066 0.0
H1016 H 0.33171 0.86193 0.42548 0.0
H1017 H 0.37176 0.85115 0.52199 0.0
H1018 H 0.34741 0.876 0.28846 0.0
H1019 H 0.34492 0.89166 0.3381 0.0
H1020 H 0.33115 0.87747 0.33668 0.0
H1021 H 0.39628 0.86314 0.41065 0.0
H1022 H 0.39436 0.86137 0.49522 0.0
H1023 H 0.39343 0.87914 0.45793 0.0
C1024 C 0.37282 0.09744 0.73903 0.0
C1025 C 0.38806 0.09696 0.73008 0.0
C1026 C 0.36375 0.10548 0.69789 0.0
C1027 C 0.37006 0.11305 0.64609 0.0
C1028 C 0.38538 0.11215 0.63551 0.0
C1029 C 0.3942 0.1042 0.67789 0.0
C1030 C 0.3475 0.10629 0.71115 0.0
C1031 C 0.3925 0.11988 0.58028 0.0
C1032 C 0.34656 0.12561 0.50742 0.0
C1033 C 0.34549 0.14073 0.51878 0.0
C1034 C 0.35422 0.11638 0.54923 0.0
C1035 C 0.36078 0.12239 0.60417 0.0
C1036 C 0.35914 0.13754 0.61735 0.0
C1037 C 0.3516 0.14655 0.57425 0.0
C1038 C 0.35583 0.10033 0.53315 0.0
C1039 C 0.36576 0.14434 0.67594 0.0
H1040 H 0.36802 0.09194 0.77954 0.0
H1041 H 0.40597 0.10386 0.6707 0.0
H1042 H 0.34439 0.11777 0.72217 0.0
H1043 H 0.34118 0.10295 0.66866 0.0
H1044 H 0.34421 0.09921 0.75153 0.0
H1045 H 0.40439 0.11736 0.5765 0.0
H1046 H 0.38707 0.11666 0.53537 0.0
H1047 H 0.39117 0.13191 0.58551 0.0
H1048 H 0.34193 0.12105 0.46443 0.0
H1049 H 0.35078 0.15822 0.58332 0.0
H1050 H 0.35235 0.09344 0.57372 0.0
H1051 H 0.36754 0.09781 0.52374 0.0
H1052 H 0.3493 0.09719 0.49087 0.0
H1053 H 0.36233 0.13816 0.71871 0.0
H1054 H 0.36253 0.15601 0.68181 0.0
H1055 H 0.3779 0.14373 0.67325 0.0
C1056 C 0.84778 0.86352 0.05402 0.0
C1057 C 0.85505 0.856 0.00539 0.0
C1058 C 0.85555 0.87264 0.09594 0.0
C1059 C 0.87089 0.87446 0.08823 0.0
C1060 C 0.87823 0.86697 0.03884 0.0
C1061 C 0.87025 0.85774 0.99842 0.0
C1062 C 0.84739 0.88024 0.14879 0.0
C1063 C 0.89453 0.86872 0.02858 0.0
C1064 C 0.88982 0.90722 0.165 0.0
C1065 C 0.8963 0.90068 0.21812 0.0
C1066 C 0.8815 0.89883 0.12208 0.0
C1067 C 0.87943 0.88364 0.1334 0.0
C1068 C 0.88587 0.87705 0.18726 0.0
C1069 C 0.89432 0.88561 0.22854 0.0
C1070 C 0.875 0.90617 0.06452 0.0
C1071 C 0.88378 0.86095 0.20156 0.0
H1072 H 0.83603 0.86224 0.05941 0.0
H1073 H 0.87592 0.85209 0.96047 0.0
H1074 H 0.85194 0.87679 0.1952 0.0
H1075 H 0.84888 0.89228 0.14514 0.0
H1076 H 0.83546 0.87777 0.14809 0.0
H1077 H 0.89846 0.86263 0.98629 0.0
H1078 H 0.89729 0.88048 0.0227 0.0
H1079 H 0.90059 0.86468 0.07067 0.0
H1080 H 0.89128 0.91886 0.15689 0.0
H1081 H 0.89917 0.8805 0.26991 0.0
H1082 H 0.8629 0.90492 0.06472 0.0
H1083 H 0.87914 0.9008 0.02088 0.0
H1084 H 0.87768 0.91804 0.06233 0.0
H1085 H 0.87192 0.85837 0.20467 0.0
H1086 H 0.88913 0.85763 0.24661 0.0
H1087 H 0.88841 0.85423 0.16261 0.0
C1088 C 0.86678 0.13841 0.01857 0.0
C1089 C 0.85322 0.14421 -0.00033 0.0
C1090 C 0.87482 0.12911 0.97867 0.0
C1091 C 0.86933 0.12577 0.91769 0.0
C1092 C 0.85561 0.13157 0.8983 0.0
C1093 C 0.84762 0.1406 0.9399 0.0
C1094 C 0.88926 0.12297 0.0016 0.0
C1095 C 0.84953 0.12848 0.83316 0.0
C1096 C 0.89752 0.11569 0.79295 0.0
C1097 C 0.89572 0.10045 0.78799 0.0
C1098 C 0.8889 0.12402 0.83447 0.0
C1099 C 0.87838 0.11694 0.87305 0.0
C1100 C 0.87675 0.1015 0.86951 0.0
C1101 C 0.88535 0.09344 0.82649 0.0
C1102 C 0.89089 0.14046 0.8362 0.0
C1103 C 0.86586 0.09354 0.9109 0.0
H1104 H 0.87107 0.141 0.06513 0.0
H1105 H 0.83713 0.14504 0.92525 0.0
H1106 H 0.88932 0.11086 0.99677 0.0
H1107 H 0.89834 0.12728 0.97202 0.0
H1108 H 0.8915 0.12583 0.05182 0.0
H1109 H 0.83857 0.13353 0.82586 0.0
H1110 H 0.85715 0.1328 0.79666 0.0
H1111 H 0.84862 0.11649 0.82551 0.0
H1112 H 0.90542 0.12121 0.76293 0.0
H1113 H 0.88389 0.08168 0.82267 0.0
H1114 H 0.89414 0.14399 0.88446 0.0
H1115 H 0.88035 0.14598 0.82496 0.0
H1116 H 0.89933 0.14431 0.80214 0.0
H1117 H 0.8681 0.09594 0.9615 0.0
H1118 H 0.86622 0.08147 0.90377 0.0
H1119 H 0.8546 0.09746 0.90059 0.0
C1120 C 0.60624 0.11595 0.73572 0.0
C1121 C 0.605 0.10066 0.73086 0.0
C1122 C 0.61532 0.12391 0.69479 0.0
C1123 C 0.62318 0.11646 0.64683 0.0
C1124 C 0.62191 0.10102 0.6412 0.0
C1125 C 0.61292 0.09326 0.68379 0.0
C1126 C 0.6165 0.14033 0.70293 0.0
C1127 C 0.62991 0.09275 0.58983 0.0
C1128 C 0.63346 0.14019 0.50642 0.0
C1129 C 0.64831 0.14314 0.51803 0.0
C1130 C 0.62534 0.1311 0.54674 0.0
C1131 C 0.63213 0.12503 0.60095 0.0
C1132 C 0.64715 0.12793 0.61299 0.0
C1133 C 0.65514 0.13684 0.57086 0.0
C1134 C 0.60942 0.1281 0.53157 0.0
C1135 C 0.65469 0.12189 0.67102 0.0
H1136 H 0.60028 0.12173 0.7725 0.0
H1137 H 0.61204 0.08144 0.68006 0.0
H1138 H 0.62816 0.14355 0.70855 0.0
H1139 H 0.61227 0.14595 0.66006 0.0
H1140 H 0.61025 0.14435 0.74464 0.0
H1141 H 0.62788 0.08075 0.5922 0.0
H1142 H 0.62638 0.0968 0.54268 0.0
H1143 H 0.64187 0.09472 0.59361 0.0
H1144 H 0.62817 0.14486 0.46507 0.0
H1145 H 0.66663 0.13906 0.57977 0.0
H1146 H 0.60232 0.13283 0.56903 0.0
H1147 H 0.60737 0.11611 0.53059 0.0
H1148 H 0.60608 0.13283 0.48527 0.0
H1149 H 0.6493 0.12622 0.71428 0.0
H1150 H 0.66651 0.1248 0.67264 0.0
H1151 H 0.65364 0.10977 0.6723 0.0
C1152 C 0.65439 0.86197 0.44233 0.0
C1153 C 0.64764 0.85516 0.49419 0.0
C1154 C 0.64616 0.8704 0.3993 0.0
C1155 C 0.63087 0.87218 0.4089 0.0
C1156 C 0.62403 0.86529 0.46117 0.0
C1157 C 0.63248 0.85681 0.5029 0.0
C1158 C 0.6538 0.87741 0.34361 0.0
C1159 C 0.6078 0.86699 0.47336 0.0
C1160 C 0.61143 0.90436 0.33019 0.0
C1161 C 0.60468 0.89752 0.27838 0.0
C1162 C 0.61997 0.89625 0.37323 0.0
C1163 C 0.62194 0.88099 0.36369 0.0
C1164 C 0.61513 0.87405 0.31146 0.0
C1165 C 0.60653 0.88238 0.26972 0.0
C1166 C 0.6269 0.904 0.42885 0.0
C1167 C 0.61703 0.85784 0.29932 0.0
H1168 H 0.6661 0.86076 0.43546 0.0
H1169 H 0.6272 0.85166 0.54316 0.0
H1170 H 0.64878 0.87357 0.29874 0.0
H1171 H 0.65241 0.88949 0.34545 0.0
H1172 H 0.66572 0.87486 0.3425 0.0
H1173 H 0.6042 0.86112 0.51676 0.0
H1174 H 0.605 0.87877 0.47843 0.0
H1175 H 0.60147 0.8627 0.4325 0.0
H1176 H 0.61006 0.91606 0.33701 0.0
H1177 H 0.60144 0.87702 0.2295 0.0
H1178 H 0.63899 0.90275 0.42698 0.0
H1179 H 0.62312 0.89894 0.47377 0.0
H1180 H 0.6242 0.91588 0.42992 0.0
H1181 H 0.62885 0.85519 0.29423 0.0
H1182 H 0.6112 0.85416 0.25594 0.0
H1183 H 0.61283 0.85146 0.34021 0.0
C1184 C 0.6613 0.63471 0.41812 0.0
C1185 C 0.65395 0.64448 0.45834 0.0
C1186 C 0.65346 0.62573 0.37585 0.0
C1187 C 0.63792 0.6263 0.37516 0.0
C1188 C 0.63048 0.63608 0.4161 0.0
C1189 C 0.63859 0.64516 0.45654 0.0
C1190 C 0.66176 0.61571 0.3317 0.0
C1191 C 0.61394 0.63686 0.41762 0.0
C1192 C 0.61581 0.61508 0.23124 0.0
C1193 C 0.61104 0.60099 0.24799 0.0
C1194 C 0.62507 0.62315 0.27106 0.0
C1195 C 0.62934 0.61716 0.33003 0.0
C1196 C 0.62462 0.60288 0.34718 0.0
C1197 C 0.61568 0.59485 0.30537 0.0
C1198 C 0.63012 0.63817 0.25028 0.0
C1199 C 0.62866 0.59629 0.41036 0.0
H1200 H 0.67317 0.63413 0.41962 0.0
H1201 H 0.63283 0.65255 0.48816 0.0
H1202 H 0.65853 0.60415 0.34014 0.0
H1203 H 0.65894 0.61833 0.28185 0.0
H1204 H 0.67383 0.61666 0.33769 0.0
H1205 H 0.60984 0.64454 0.45447 0.0
H1206 H 0.60973 0.64052 0.37094 0.0
H1207 H 0.60929 0.62583 0.4269 0.0
H1208 H 0.61244 0.61976 0.18633 0.0
H1209 H 0.61201 0.58394 0.31821 0.0
H1210 H 0.64224 0.63898 0.25386 0.0
H1211 H 0.62541 0.64665 0.28197 0.0
H1212 H 0.62682 0.64071 0.20084 0.0
H1213 H 0.64074 0.59617 0.41626 0.0
H1214 H 0.62447 0.58492 0.41577 0.0
H1215 H 0.62408 0.60313 0.44909 0.0
C1216 C 0.6288 0.39837 0.75881 0.0
C1217 C 0.61555 0.40495 0.74044 0.0
C1218 C 0.6373 0.39038 0.71544 0.0
C1219 C 0.63249 0.389 0.65198 0.0
C1220 C 0.61948 0.3962 0.63243 0.0
C1221 C 0.61112 0.40405 0.67698 0.0
C1222 C 0.65106 0.38283 0.7383 0.0
C1223 C 0.61406 0.39512 0.56503 0.0
C1224 C 0.65903 0.37516 0.52604 0.0
C1225 C 0.65484 0.36041 0.52059 0.0
C1226 C 0.65196 0.3846 0.56899 0.0
C1227 C 0.64046 0.37914 0.60739 0.0
C1228 C 0.6364 0.36418 0.60293 0.0
C1229 C 0.64363 0.35502 0.55959 0.0
C1230 C 0.6566 0.40046 0.57243 0.0
C1231 C 0.62425 0.3579 0.64327 0.0
H1232 H 0.63228 0.39901 0.80782 0.0
H1233 H 0.60091 0.40912 0.66247 0.0
H1234 H 0.64953 0.37077 0.73626 0.0
H1235 H 0.66044 0.38556 0.70705 0.0
H1236 H 0.65391 0.38592 0.78768 0.0
H1237 H 0.60448 0.40235 0.55612 0.0
H1238 H 0.62294 0.39808 0.5315 0.0
H1239 H 0.61083 0.38364 0.55464 0.0
H1240 H 0.66765 0.3794 0.49586 0.0
H1241 H 0.64031 0.34364 0.55559 0.0
H1242 H 0.6597 0.40334 0.62168 0.0
H1243 H 0.64727 0.40763 0.55899 0.0
H1244 H 0.66601 0.40289 0.54072 0.0
H1245 H 0.62671 0.35968 0.69415 0.0
H1246 H 0.62266 0.34597 0.63514 0.0
H1247 H 0.6138 0.36363 0.63279 0.0
C1248 C 0.89497 0.39838 0.82158 0.0
C1249 C 0.88922 0.4057 0.76876 0.0
C1250 C 0.88575 0.39092 0.864 0.0
C1251 C 0.87041 0.39078 0.85337 0.0
C1252 C 0.86449 0.39863 0.80147 0.0
C1253 C 0.87397 0.40599 0.75976 0.0
C1254 C 0.89249 0.38273 0.91895 0.0
C1255 C 0.84821 0.39881 0.7887 0.0
C1256 C 0.85007 0.3581 0.92214 0.0
C1257 C 0.84457 0.36389 0.97887 0.0
C1258 C 0.85811 0.36686 0.87992 0.0
C1259 C 0.8607 0.38179 0.89476 0.0
C1260 C 0.85464 0.38785 0.95067 0.0
C1261 C 0.84665 0.37882 0.99208 0.0
C1262 C 0.86432 0.35999 0.82063 0.0
C1263 C 0.85709 0.40372 0.96799 0.0
H1264 H 0.90674 0.39811 0.82879 0.0
H1265 H 0.86945 0.41163 0.71901 0.0
H1266 H 0.88728 0.38617 0.96403 0.0
H1267 H 0.89049 0.3708 0.91337 0.0
H1268 H 0.9045 0.38457 0.92261 0.0
H1269 H 0.84526 0.40631 0.74922 0.0
H1270 H 0.84445 0.38759 0.77646 0.0
H1271 H 0.84214 0.40224 0.83177 0.0
H1272 H 0.84851 0.34657 0.91166 0.0
H1273 H 0.84244 0.38337 0.03589 0.0
H1274 H 0.87648 0.36008 0.82288 0.0
H1275 H 0.86107 0.36646 0.77839 0.0
H1276 H 0.8606 0.3485 0.81411 0.0
H1277 H 0.86889 0.40558 0.97783 0.0
H1278 H 0.85068 0.40704 0.0104 0.0
H1279 H 0.85402 0.41095 0.92787 0.0
C1280 C 0.89257 0.60079 0.18798 0.0
C1281 C 0.88706 0.59487 0.2444 0.0
C1282 C 0.88341 0.6085 0.14615 0.0
C1283 C 0.86839 0.61044 0.16138 0.0
C1284 C 0.86266 0.60404 0.21719 0.0
C1285 C 0.87206 0.59629 0.25793 0.0
C1286 C 0.88991 0.61502 0.08672 0.0
C1287 C 0.84675 0.60589 0.2352 0.0
C1288 C 0.85056 0.64416 0.08909 0.0
C1289 C 0.84323 0.63818 0.03676 0.0
C1290 C 0.85835 0.63517 0.1313 0.0
C1291 C 0.85894 0.61985 0.12061 0.0
C1292 C 0.85109 0.61368 0.06927 0.0
C1293 C 0.84327 0.62293 0.02808 0.0
C1294 C 0.86643 0.64215 0.18598 0.0
C1295 C 0.85147 0.59741 0.05619 0.0
H1296 H 0.90415 0.59971 0.17724 0.0
H1297 H 0.86772 0.59177 0.30156 0.0
H1298 H 0.88345 0.6116 0.04471 0.0
H1299 H 0.88941 0.62716 0.08928 0.0
H1300 H 0.90151 0.6117 0.0796 0.0
H1301 H 0.84377 0.59938 0.27776 0.0
H1302 H 0.84446 0.61762 0.24506 0.0
H1303 H 0.83954 0.60254 0.19542 0.0
H1304 H 0.85056 0.65593 0.09607 0.0
H1305 H 0.83768 0.61824 0.98753 0.0
H1306 H 0.87842 0.6407 0.17952 0.0
H1307 H 0.8634 0.6367 0.23108 0.0
H1308 H 0.86406 0.65406 0.19024 0.0
H1309 H 0.86277 0.5941 0.04294 0.0
H1310 H 0.84391 0.59422 0.01728 0.0
H1311 H 0.84847 0.59118 0.09939 0.0
C1312 C 0.34378 0.36483 0.57442 0.0
C1313 C 0.35015 0.35806 0.52158 0.0
C1314 C 0.35238 0.37306 0.61685 0.0
C1315 C 0.3676 0.37478 0.60521 0.0
C1316 C 0.374 0.36813 0.55139 0.0
C1317 C 0.36523 0.35975 0.51066 0.0
C1318 C 0.34523 0.37978 0.67442 0.0
C1319 C 0.39012 0.36986 0.53674 0.0
C1320 C 0.38853 0.40576 0.68561 0.0
C1321 C 0.3958 0.39821 0.73416 0.0
C1322 C 0.37925 0.3983 0.64326 0.0
C1323 C 0.37703 0.38301 0.65048 0.0
C1324 C 0.38429 0.37539 0.69969 0.0
C1325 C 0.39367 0.38305 0.74052 0.0
C1326 C 0.3719 0.40674 0.59059 0.0
C1327 C 0.38211 0.35912 0.70942 0.0
H1328 H 0.33212 0.36358 0.58287 0.0
H1329 H 0.3702 0.35469 0.46942 0.0
H1330 H 0.35043 0.3754 0.71803 0.0
H1331 H 0.34692 0.39182 0.67447 0.0
H1332 H 0.33327 0.37751 0.67646 0.0
H1333 H 0.39325 0.36454 0.49136 0.0
H1334 H 0.39301 0.38166 0.53412 0.0
H1335 H 0.39678 0.36496 0.5753 0.0
H1336 H 0.39011 0.41749 0.68069 0.0
H1337 H 0.39914 0.37717 0.77837 0.0
H1338 H 0.35982 0.40562 0.59429 0.0
H1339 H 0.37519 0.40213 0.54408 0.0
H1340 H 0.37475 0.41858 0.59149 0.0
H1341 H 0.37028 0.35666 0.71533 0.0
H1342 H 0.38811 0.35494 0.75152 0.0
H1343 H 0.38596 0.35303 0.6671 0.0
C1344 C 0.34641 0.63662 0.43636 0.0
C1345 C 0.35322 0.64383 0.48706 0.0
C1346 C 0.35464 0.62809 0.39365 0.0
C1347 C 0.36997 0.62656 0.40254 0.0
C1348 C 0.37686 0.63376 0.45394 0.0
C1349 C 0.36843 0.64238 0.4952 0.0
C1350 C 0.34694 0.62077 0.33881 0.0
C1351 C 0.39314 0.63232 0.4655 0.0
C1352 C 0.39006 0.59475 0.32364 0.0
C1353 C 0.39667 0.60175 0.2719 0.0
C1354 C 0.38133 0.60268 0.36667 0.0
C1355 C 0.37897 0.61788 0.35702 0.0
C1356 C 0.38556 0.62495 0.30463 0.0
C1357 C 0.39441 0.61684 0.26309 0.0
C1358 C 0.37467 0.59481 0.42257 0.0
C1359 C 0.38322 0.6411 0.2922 0.0
H1360 H 0.33466 0.63768 0.42996 0.0
H1361 H 0.37376 0.64781 0.53464 0.0
H1362 H 0.35168 0.62467 0.29345 0.0
H1363 H 0.34866 0.60874 0.34086 0.0
H1364 H 0.33497 0.62301 0.33855 0.0
H1365 H 0.39672 0.6382 0.50889 0.0
H1366 H 0.39616 0.62058 0.4702 0.0
H1367 H 0.39931 0.63676 0.4245 0.0
H1368 H 0.39174 0.5831 0.33055 0.0
H1369 H 0.39936 0.62231 0.22285 0.0
H1370 H 0.36255 0.59583 0.42125 0.0
H1371 H 0.37845 0.59995 0.46731 0.0
H1372 H 0.37758 0.58298 0.42352 0.0
H1373 H 0.37132 0.64346 0.28804 0.0
H1374 H 0.38876 0.64484 0.24825 0.0
H1375 H 0.38745 0.64763 0.33255 0.0
C1376 C 0.13218 0.64059 0.99492 0.0
C1377 C 0.14672 0.64453 0.00832 0.0
C1378 C 0.12421 0.63146 0.03583 0.0
C1379 C 0.13083 0.62637 0.09229 0.0
C1380 C 0.14551 0.63036 0.1063 0.0
C1381 C 0.15334 0.63929 0.06375 0.0
C1382 C 0.10868 0.62732 0.01865 0.0
C1383 C 0.15285 0.62536 0.16662 0.0
C1384 C 0.10485 0.6161 0.22552 0.0
C1385 C 0.10499 0.60072 0.22295 0.0
C1386 C 0.11339 0.62452 0.184 0.0
C1387 C 0.12212 0.61743 0.13785 0.0
C1388 C 0.12218 0.6019 0.13434 0.0
C1389 C 0.1137 0.59371 0.17739 0.0
C1390 C 0.11314 0.64103 0.1899 0.0
C1391 C 0.13115 0.59397 0.085 0.0
H1392 H 0.12704 0.64446 0.95174 0.0
H1393 H 0.16458 0.64229 0.07419 0.0
H1394 H 0.10747 0.61521 0.01853 0.0
H1395 H 0.10096 0.6317 0.0546 0.0
H1396 H 0.10539 0.63158 0.97144 0.0
H1397 H 0.16436 0.62926 0.17019 0.0
H1398 H 0.14664 0.62949 0.20815 0.0
H1399 H 0.1528 0.61322 0.16932 0.0
H1400 H 0.09826 0.6216 0.26105 0.0
H1401 H 0.11389 0.58184 0.17536 0.0
H1402 H 0.10899 0.64598 0.14541 0.0
H1403 H 0.12443 0.64522 0.1974 0.0
H1404 H 0.10612 0.64482 0.22969 0.0
H1405 H 0.12778 0.59756 0.03695 0.0
H1406 H 0.12991 0.58187 0.08817 0.0
H1407 H 0.14291 0.59676 0.09054 0.0
C1408 C 0.12832 0.40481 0.75838 0.0
C1409 C 0.11305 0.40496 0.76652 0.0
C1410 C 0.13745 0.39709 0.80046 0.0
C1411 C 0.13116 0.38943 0.8521 0.0
C1412 C 0.1158 0.39003 0.86184 0.0
C1413 C 0.10694 0.39773 0.81882 0.0
C1414 C 0.15376 0.39668 0.78835 0.0
C1415 C 0.10866 0.38216 0.91669 0.0
C1416 C 0.14978 0.35617 0.92493 0.0
C1417 C 0.15537 0.36197 0.98146 0.0
C1418 C 0.14241 0.36513 0.88114 0.0
C1419 C 0.14046 0.38023 0.8945 0.0
C1420 C 0.14657 0.38625 0.95038 0.0
C1421 C 0.15401 0.37706 0.99306 0.0
C1422 C 0.13622 0.35831 0.82172 0.0
C1423 C 0.14467 0.40227 0.96653 0.0
H1424 H 0.13311 0.41032 0.7179 0.0
H1425 H 0.09515 0.39783 0.82545 0.0
H1426 H 0.15984 0.40002 0.83149 0.0
H1427 H 0.15716 0.38531 0.77687 0.0
H1428 H 0.15704 0.40396 0.74863 0.0
H1429 H 0.09671 0.38441 0.91972 0.0
H1430 H 0.11028 0.37016 0.91158 0.0
H1431 H 0.11387 0.3855 0.96192 0.0
H1432 H 0.15083 0.34453 0.91561 0.0
H1433 H 0.15827 0.38161 0.03677 0.0
H1434 H 0.13977 0.3646 0.77945 0.0
H1435 H 0.12407 0.3587 0.82325 0.0
H1436 H 0.13968 0.3467 0.81586 0.0
H1437 H 0.14812 0.40924 0.92616 0.0
H1438 H 0.15106 0.40549 0.0091 0.0
H1439 H 0.13291 0.40459 0.97557 0.0
C1440 C 0.18092 0.28112 0.09582 0.0
C1441 C 0.16789 0.28857 0.1102 0.0
C1442 C 0.18143 0.26574 0.09499 0.0
C1443 C 0.16853 0.25763 0.10786 0.0
C1444 C 0.15525 0.26511 0.12089 0.0
C1445 C 0.15512 0.2805 0.12243 0.0
C1446 C 0.19584 0.25817 0.08169 0.0
C1447 C 0.14123 0.25684 0.13387 0.0
C1448 C 0.1678 0.2178 0.05474 0.0
C1449 C 0.1708 0.21041 0.11152 0.0
C1450 C 0.1668 0.23316 0.053 0.0
C1451 C 0.16904 0.24132 0.10923 0.0
C1452 C 0.17204 0.2339 0.16672 0.0
C1453 C 0.17279 0.21853 0.16723 0.0
C1454 C 0.16341 0.24067 0.99097 0.0
C1455 C 0.17465 0.24222 0.22753 0.0
H1456 H 0.19084 0.28732 0.08665 0.0
H1457 H 0.14501 0.28623 0.13334 0.0
H1458 H 0.19901 0.25133 0.12291 0.0
H1459 H 0.19469 0.25073 0.04043 0.0
H1460 H 0.20482 0.26607 0.07186 0.0
H1461 H 0.1317 0.26429 0.14031 0.0
H1462 H 0.13883 0.24923 0.09422 0.0
H1463 H 0.14249 0.2501 0.17725 0.0
H1464 H 0.16619 0.21157 0.01158 0.0
H1465 H 0.17515 0.21287 0.21121 0.0
H1466 H 0.17264 0.24794 0.97739 0.0
H1467 H 0.15354 0.24769 0.99616 0.0
H1468 H 0.16147 0.23273 0.95197 0.0
H1469 H 0.18416 0.24969 0.22181 0.0
H1470 H 0.17681 0.23481 0.26823 0.0
H1471 H 0.16498 0.24911 0.23885 0.0
C1472 C 0.97042 0.92383 0.41151 0.0
C1473 C 0.96204 0.91958 0.35899 0.0
C1474 C 0.98579 0.92316 0.41001 0.0
C1475 C 0.99294 0.91785 0.35505 0.0
C1476 C 0.98452 0.91332 0.30222 0.0
C1477 C 0.96916 0.91437 0.30461 0.0
C1478 C 0.99438 0.92829 0.46699 0.0
C1479 C 0.99174 0.90736 0.24324 0.0
C1480 C 0.03278 0.92889 0.33261 0.0
C1481 C 0.04017 0.91677 0.35811 0.0
C1482 C 0.01739 0.92928 0.33025 0.0
C1483 C 0.00924 0.91716 0.353 0.0
C1484 C 0.01668 0.90467 0.37656 0.0
C1485 C 0.03206 0.90468 0.37933 0.0
C1486 C 0.00986 0.94287 0.30553 0.0
C1487 C 0.00838 0.89143 0.40025 0.0
H1488 H 0.96496 0.92795 0.45352 0.0
H1489 H 0.96271 0.91101 0.264 0.0
H1490 H 0.00123 0.91921 0.48555 0.0
H1491 H 0.00191 0.93729 0.45308 0.0
H1492 H 0.98716 0.93229 0.5057 0.0
H1493 H 0.98361 0.90392 0.20695 0.0
H1494 H 0.99901 0.9158 0.22224 0.0
H1495 H 0.99871 0.89779 0.25544 0.0
H1496 H 0.039 0.93829 0.31642 0.0
H1497 H 0.03775 0.89526 0.39884 0.0
H1498 H 0.00329 0.94796 0.34392 0.0
H1499 H 0.00217 0.93996 0.26685 0.0
H1500 H 0.01778 0.95112 0.28743 0.0
H1501 H 0.00193 0.89444 0.44285 0.0
H1502 H 0.0158 0.88221 0.41272 0.0
H1503 H 1.00051 0.88762 0.36374 0.0
C1504 C 0.31932 0.7805 0.57848 0.0
C1505 C 0.33225 0.78841 0.58916 0.0
C1506 C 0.31943 0.76511 0.57697 0.0
C1507 C 0.33288 0.75751 0.58444 0.0
C1508 C 0.34608 0.76552 0.59173 0.0
C1509 C 0.34557 0.78088 0.59506 0.0
C1510 C 0.30508 0.75699 0.5708 0.0
C1511 C 0.36068 0.75784 0.59808 0.0
C1512 C 0.33221 0.71941 0.65647 0.0
C1513 C 0.33282 0.71044 0.60269 0.0
C1514 C 0.33205 0.73472 0.65098 0.0
C1515 C 0.33297 0.74124 0.59025 0.0
C1516 C 0.33388 0.73223 0.53573 0.0
C1517 C 0.33356 0.71689 0.54256 0.0
C1518 C 0.33069 0.74392 0.7102 0.0
C1519 C 0.33529 0.73878 0.47039 0.0
H1520 H 0.30899 0.78632 0.57435 0.0
H1521 H 0.35559 0.78701 0.60286 0.0
H1522 H 0.30566 0.74891 0.53165 0.0
H1523 H 0.30289 0.75078 0.61501 0.0
H1524 H 0.2957 0.76449 0.56192 0.0
H1525 H 0.37003 0.76563 0.59586 0.0
H1526 H 0.36116 0.75195 0.64399 0.0
H1527 H 0.362 0.74955 0.56003 0.0
H1528 H 0.3315 0.71444 0.70301 0.0
H1529 H 0.3341 0.70994 0.50096 0.0
H1530 H 0.32099 0.75122 0.70654 0.0
H1531 H 0.34048 0.75103 0.7155 0.0
H1532 H 0.32957 0.73713 0.7536 0.0
H1533 H 0.32554 0.74561 0.4596 0.0
H1534 H 0.3364 0.73026 0.43308 0.0
H1535 H 0.34501 0.74609 0.46845 0.0
C1536 C 0.46881 0.08131 0.90479 0.0
C1537 C 0.45993 0.08213 0.85077 0.0
C1538 C 0.48413 0.08108 0.89976 0.0
C1539 C 0.49076 0.0821 0.83928 0.0
C1540 C 0.48184 0.08312 0.78451 0.0
C1541 C 0.46649 0.08291 0.79085 0.0
C1542 C 0.49323 0.07963 0.95925 0.0
C1543 C 0.48852 0.08461 0.71942 0.0
C1544 C 0.53026 0.09509 0.84574 0.0
C1545 C 0.53794 0.08185 0.84001 0.0
C1546 C 0.51489 0.09544 0.84187 0.0
C1547 C 0.50704 0.08217 0.83407 0.0
C1548 C 0.51479 0.06881 0.82664 0.0
C1549 C 0.53019 0.06885 0.82883 0.0
C1550 C 0.50706 0.10995 0.8483 0.0
C1551 C 0.50683 0.05438 0.81982 0.0
H1552 H 0.46376 0.08057 0.95115 0.0
H1553 H 0.45962 0.08361 0.74906 0.0
H1554 H 0.50062 0.07 0.9554 0.0
H1555 H 0.50025 0.08946 0.96526 0.0
H1556 H 0.48636 0.07835 0.00234 0.0
H1557 H 0.48007 0.08555 0.68175 0.0
H1558 H 0.49566 0.09445 0.71772 0.0
H1559 H 0.49554 0.07497 0.70899 0.0
H1560 H 0.53626 0.10517 0.85392 0.0
H1561 H 0.53612 0.05859 0.8248 0.0
H1562 H 0.50105 0.11029 0.89396 0.0
H1563 H 0.49884 0.11124 0.80992 0.0
H1564 H 0.51475 0.11938 0.8467 0.0
H1565 H 0.50061 0.05205 0.86386 0.0
H1566 H 0.51444 0.04511 0.81071 0.0
H1567 H 0.49877 0.05496 0.78057 0.0
C1568 C 0.1543 0.78315 0.92743 0.0
C1569 C 0.1678 0.79044 0.93065 0.0
C1570 C 0.15359 0.76778 0.92966 0.0
C1571 C 0.16674 0.75954 0.93335 0.0
C1572 C 0.18035 0.76689 0.93891 0.0
C1573 C 0.1807 0.78228 0.93829 0.0
C1574 C 0.13883 0.76036 0.92528 0.0
C1575 C 0.19464 0.75853 0.94152 0.0
C1576 C 0.16612 0.71852 0.96744 0.0
C1577 C 0.16635 0.7127 0.906 0.0
C1578 C 0.16591 0.73377 0.97732 0.0
C1579 C 0.16638 0.74335 0.92452 0.0
C1580 C 0.16671 0.73748 0.86247 0.0
C1581 C 0.1665 0.72224 0.854 0.0
C1582 C 0.16517 0.73965 0.04406 0.0
C1583 C 0.16754 0.74728 0.80489 0.0
H1584 H 0.1443 0.78946 0.92199 0.0
H1585 H 0.19116 0.7879 0.94046 0.0
H1586 H 0.1377 0.75499 0.87839 0.0
H1587 H 0.13786 0.75168 0.96186 0.0
H1588 H 0.12964 0.76823 0.93122 0.0
H1589 H 0.20417 0.76582 0.95062 0.0
H1590 H 0.19424 0.75003 0.97905 0.0
H1591 H 0.19643 0.75279 0.8958 0.0
H1592 H 0.16593 0.71114 0.00769 0.0
H1593 H 0.1668 0.71778 0.80643 0.0
H1594 H 0.15558 0.74705 0.04907 0.0
H1595 H 0.1751 0.74622 0.05453 0.0
H1596 H 0.16428 0.73076 0.07981 0.0
H1597 H 0.1578 0.75455 0.80302 0.0
H1598 H 0.16811 0.74095 0.76001 0.0
H1599 H 0.17737 0.75442 0.80799 0.0
C1600 C 0.46841 0.93025 0.18257 0.0
C1601 C 0.46063 0.91747 0.16771 0.0
C1602 C 0.48379 0.93013 0.1862 0.0
C1603 C 0.49148 0.91682 0.17658 0.0
C1604 C 0.48357 0.90371 0.16545 0.0
C1605 C 0.46823 0.90424 0.16009 0.0
C1606 C 0.49182 0.94441 0.19649 0.0
C1607 C 0.49133 0.88922 0.15674 0.0
C1608 C 0.52974 0.91846 0.1067 0.0
C1609 C 0.53858 0.91726 0.16069 0.0
C1610 C 0.51442 0.91852 0.11151 0.0
C1611 C 0.50776 0.91686 0.17166 0.0
C1612 C 0.51664 0.91535 0.22633 0.0
C1613 C 0.532 0.91581 0.2203 0.0
C1614 C 0.50537 0.92055 0.05221 0.0
C1615 C 0.50993 0.91314 0.29095 0.0
H1616 H 0.46254 0.94051 0.18807 0.0
H1617 H 0.46219 0.89432 0.1491 0.0
H1618 H 0.49982 0.94333 0.23572 0.0
H1619 H 0.49809 0.94725 0.15316 0.0
H1620 H 0.48423 0.9536 0.20752 0.0
H1621 H 0.48357 0.87983 0.15681 0.0
H1622 H 0.49732 0.88923 0.11103 0.0
H1623 H 0.49953 0.88754 0.19487 0.0
H1624 H 0.53483 0.91973 0.06061 0.0
H1625 H 0.53885 0.91482 0.26203 0.0
H1626 H 0.49798 0.93014 0.05772 0.0
H1627 H 0.49835 0.91079 0.0443 0.0
H1628 H 0.51227 0.92225 0.00949 0.0
H1629 H 0.503 0.9227 0.30353 0.0
H1630 H 0.51836 0.91165 0.32839 0.0
H1631 H 0.50268 0.90336 0.29039 0.0
C1632 C 0.32064 0.22111 0.41022 0.0
C1633 C 0.33333 0.21363 0.39116 0.0
C1634 C 0.32014 0.23649 0.41046 0.0
C1635 C 0.33268 0.24458 0.39198 0.0
C1636 C 0.34565 0.23707 0.37434 0.0
C1637 C 0.34579 0.22167 0.37372 0.0
C1638 C 0.30605 0.24409 0.42896 0.0
C1639 C 0.35931 0.24531 0.35518 0.0
C1640 C 0.32706 0.28335 0.3307 0.0
C1641 C 0.33021 0.29176 0.38455 0.0
C1642 C 0.32783 0.26798 0.33248 0.0
C1643 C 0.33206 0.26087 0.38926 0.0
C1644 C 0.33548 0.26933 0.44353 0.0
C1645 C 0.33441 0.28468 0.44064 0.0
C1646 C 0.32395 0.25934 0.27382 0.0
C1647 C 0.34021 0.26216 0.50465 0.0
H1648 H 0.31096 0.21494 0.4235 0.0
H1649 H 0.35563 0.21593 0.35912 0.0
H1650 H 0.30808 0.25178 0.46871 0.0
H1651 H 0.30192 0.25067 0.38853 0.0
H1652 H 0.29738 0.23622 0.44337 0.0
H1653 H 0.36871 0.23786 0.34593 0.0
H1654 H 0.35712 0.25178 0.31172 0.0
H1655 H 0.36247 0.25317 0.3929 0.0
H1656 H 0.32377 0.28877 0.28729 0.0
H1657 H 0.33693 0.29115 0.48232 0.0
H1658 H 0.31465 0.25187 0.28411 0.0
H1659 H 0.33337 0.25242 0.25927 0.0
H1660 H 0.32086 0.26653 0.23348 0.0
H1661 H 0.33136 0.25492 0.52249 0.0
H1662 H 0.34291 0.27031 0.54197 0.0
H1663 H 0.34998 0.25517 0.49625 0.0
C1664 C 0.96926 0.06961 0.66546 0.0
C1665 C 0.96123 0.08247 0.6547 0.0
C1666 C 0.98466 0.06981 0.66603 0.0
C1667 C 0.99214 0.08326 0.6572 0.0
C1668 C 0.98404 0.09637 0.64912 0.0
C1669 C 0.96867 0.09579 0.6471 0.0
C1670 C 0.99289 0.05554 0.67332 0.0
C1671 C 0.99162 0.11097 0.641 0.0
C1672 C 0.03271 0.08463 0.69942 0.0
C1673 C 0.03921 0.08353 0.63948 0.0
C1674 C 0.01737 0.0848 0.70603 0.0
C1675 C 0.0084 0.08344 0.65154 0.0
C1676 C 0.01496 0.08219 0.59103 0.0
C1677 C 0.03028 0.08243 0.5857 0.0
C1678 C 0.01075 0.0865 0.77113 0.0
C1679 C 0.00581 0.0804 0.53188 0.0
H1680 H 0.96352 0.05928 0.67108 0.0
H1681 H 0.96246 0.10577 0.63932 0.0
H1682 H 0.9992 0.05324 0.62947 0.0
H1683 H 0.0009 0.05634 0.71269 0.0
H1684 H 0.98546 0.04614 0.68262 0.0
H1685 H 0.98376 0.12029 0.6415 0.0
H1686 H 0.99979 0.11264 0.67925 0.0
H1687 H 0.99764 0.11114 0.59537 0.0
H1688 H 0.03962 0.08553 0.74102 0.0
H1689 H 0.03528 0.08145 0.53931 0.0
H1690 H 0.00399 0.07676 0.78277 0.0
H1691 H 0.00336 0.09617 0.77203 0.0
H1692 H 0.01923 0.08787 0.80845 0.0
H1693 H 0.99865 0.07062 0.53641 0.0
H1694 H 0.01264 0.07915 0.48864 0.0
H1695 H 0.99856 0.09005 0.52562 0.0
C1696 C 0.82169 0.71842 0.92465 0.0
C1697 C 0.83422 0.71029 0.90912 0.0
C1698 C 0.82195 0.73381 0.92415 0.0
C1699 C 0.83518 0.7412 0.90956 0.0
C1700 C 0.84804 0.73301 0.8968 0.0
C1701 C 0.84735 0.71763 0.89573 0.0
C1702 C 0.8079 0.74213 0.93631 0.0
C1703 C 0.86245 0.74048 0.8827 0.0
C1704 C 0.8331 0.77916 0.83665 0.0
C1705 C 0.83521 0.78823 0.88943 0.0
C1706 C 0.83289 0.76386 0.84282 0.0
C1707 C 0.8353 0.75745 0.90299 0.0
C1708 C 0.8377 0.76656 0.95637 0.0
C1709 C 0.83739 0.78188 0.94911 0.0
C1710 C 0.8299 0.75457 0.78501 0.0
C1711 C 0.84069 0.76011 0.02092 0.0
H1712 H 0.81149 0.71275 0.93457 0.0
H1713 H 0.85707 0.71134 0.88414 0.0
H1714 H 0.80951 0.75025 0.97478 0.0
H1715 H 0.80476 0.74832 0.89313 0.0
H1716 H 0.7987 0.73477 0.9495 0.0
H1717 H 0.87171 0.73259 0.88033 0.0
H1718 H 0.86172 0.74631 0.83671 0.0
H1719 H 0.86489 0.74881 0.91955 0.0
H1720 H 0.83127 0.78407 0.79053 0.0
H1721 H 0.8391 0.7889 0.98989 0.0
H1722 H 0.82027 0.74741 0.79362 0.0
H1723 H 0.8394 0.74732 0.77536 0.0
H1724 H 0.82775 0.7613 0.74213 0.0
H1725 H 0.83122 0.7534 0.03653 0.0
H1726 H 0.84282 0.76868 0.05715 0.0
H1727 H 0.85034 0.7527 0.01853 0.0
C1728 C 0.68128 0.21844 0.43301 0.0
C1729 C 0.66829 0.21107 0.41747 0.0
C1730 C 0.68177 0.23383 0.43482 0.0
C1731 C 0.66886 0.24197 0.42239 0.0
C1732 C 0.65552 0.23452 0.41039 0.0
C1733 C 0.65544 0.21915 0.40716 0.0
C1734 C 0.69627 0.24135 0.44636 0.0
C1735 C 0.64144 0.24279 0.39847 0.0
C1736 C 0.66828 0.28273 0.46162 0.0
C1737 C 0.67023 0.28895 0.40154 0.0
C1738 C 0.66771 0.26742 0.46934 0.0
C1739 C 0.66956 0.25821 0.41592 0.0
C1740 C 0.67187 0.26449 0.35542 0.0
C1741 C 0.67198 0.27978 0.34887 0.0
C1742 C 0.66487 0.26112 0.53427 0.0
C1743 C 0.67424 0.25506 0.29747 0.0
H1744 H 0.69125 0.21221 0.4406 0.0
H1745 H 0.64536 0.21345 0.39557 0.0
H1746 H 0.69974 0.24716 0.40269 0.0
H1747 H 0.69518 0.2497 0.48425 0.0
H1748 H 0.70504 0.23349 0.45995 0.0
H1749 H 0.63175 0.23542 0.39746 0.0
H1750 H 0.63973 0.25123 0.43562 0.0
H1751 H 0.64212 0.24858 0.35235 0.0
H1752 H 0.66684 0.28983 0.50233 0.0
H1753 H 0.67361 0.28458 0.30243 0.0
H1754 H 0.67395 0.2537 0.54816 0.0
H1755 H 0.65468 0.25447 0.53341 0.0
H1756 H 0.66371 0.26978 0.57096 0.0
H1757 H 0.68349 0.24738 0.30559 0.0
H1758 H 0.67664 0.26167 0.25452 0.0
H1759 H 0.66433 0.24835 0.28824 0.0
C1760 C 0.82127 0.28308 0.06956 0.0
C1761 C 0.8341 0.29108 0.08105 0.0
C1762 C 0.8215 0.26769 0.06771 0.0
C1763 C 0.83497 0.26019 0.07604 0.0
C1764 C 0.8481 0.26828 0.08365 0.0
C1765 C 0.84748 0.28365 0.08695 0.0
C1766 C 0.80722 0.25948 0.06084 0.0
C1767 C 0.86272 0.2607 0.09113 0.0
C1768 C 0.83377 0.22264 0.15282 0.0
C1769 C 0.83453 0.21327 0.10034 0.0
C1770 C 0.83384 0.2379 0.14532 0.0
C1771 C 0.83507 0.24397 0.08385 0.0
C1772 C 0.83617 0.23456 0.03064 0.0
C1773 C 0.83568 0.21928 0.03946 0.0
C1774 C 0.83232 0.24752 0.20322 0.0
C1775 C 0.83788 0.24065 0.9646 0.0
H1776 H 0.81089 0.2888 0.06525 0.0
H1777 H 0.85745 0.28983 0.09533 0.0
H1778 H 0.80807 0.25112 0.02289 0.0
H1779 H 0.80475 0.2536 0.10561 0.0
H1780 H 0.79789 0.26689 0.04984 0.0
H1781 H 0.87204 0.26851 0.08806 0.0
H1782 H 0.86318 0.25515 0.13783 0.0
H1783 H 0.86411 0.25215 0.05423 0.0
H1784 H 0.83276 0.21803 0.19995 0.0
H1785 H 0.83633 0.21203 0.99885 0.0
H1786 H 0.8226 0.25476 0.19816 0.0
H1787 H 0.84207 0.2547 0.20797 0.0
H1788 H 0.83111 0.24104 0.24748 0.0
H1789 H 0.82814 0.24733 0.952 0.0
H1790 H 0.83922 0.23187 0.92858 0.0
H1791 H 0.84756 0.248 0.96254 0.0
C1792 C 0.65748 0.71863 0.59266 0.0
C1793 C 0.67107 0.71148 0.5899 0.0
C1794 C 0.6566 0.734 0.5916 0.0
C1795 C 0.66966 0.74238 0.58953 0.0
C1796 C 0.6834 0.73519 0.58571 0.0
C1797 C 0.68393 0.71981 0.5851 0.0
C1798 C 0.64173 0.74125 0.59416 0.0
C1799 C 0.69759 0.74373 0.58495 0.0
C1800 C 0.66871 0.78302 0.54863 0.0
C1801 C 0.66845 0.7894 0.60898 0.0
C1802 C 0.66877 0.7677 0.54138 0.0
C1803 C 0.669 0.75862 0.59582 0.0
C1804 C 0.6688 0.76506 0.65683 0.0
C1805 C 0.66832 0.78036 0.66263 0.0
C1806 C 0.66859 0.76122 0.47561 0.0
C1807 C 0.66937 0.75579 0.71608 0.0
H1808 H 0.64751 0.71219 0.59588 0.0
H1809 H 0.69445 0.71429 0.58329 0.0
H1810 H 0.64043 0.74711 0.63984 0.0
H1811 H 0.64072 0.74952 0.55585 0.0
H1812 H 0.63264 0.73321 0.58942 0.0
H1813 H 0.70732 0.73651 0.57959 0.0
H1814 H 0.69753 0.7518 0.54565 0.0
H1815 H 0.6987 0.75 0.62974 0.0
H1816 H 0.66875 0.79001 0.50711 0.0
H1817 H 0.66826 0.78527 0.70939 0.0
H1818 H 0.6592 0.75356 0.47069 0.0
H1819 H 0.67873 0.75478 0.46744 0.0
H1820 H 0.66773 0.76976 0.43828 0.0
H1821 H 0.65979 0.74831 0.71772 0.0
H1822 H 0.66942 0.76253 0.75992 0.0
H1823 H 0.67937 0.74885 0.71561 0.0
C1824 C 0.53499 0.40902 0.80954 0.0
C1825 C 0.54138 0.41612 0.86158 0.0
C1826 C 0.51966 0.40832 0.80283 0.0
C1827 C 0.51058 0.41499 0.84896 0.0
C1828 C 0.517 0.42226 0.9013 0.0
C1829 C 0.53231 0.42268 0.9071 0.0
C1830 C 0.5132 0.40036 0.74672 0.0
C1831 C 0.5077 0.42961 0.9513 0.0
C1832 C 0.4711 0.42559 0.81402 0.0
C1833 C 0.46339 0.41474 0.84715 0.0
C1834 C 0.4865 0.42552 0.81214 0.0
C1835 C 0.49432 0.41425 0.8436 0.0
C1836 C 0.48654 0.40288 0.87448 0.0
C1837 C 0.47117 0.40331 0.87619 0.0
C1838 C 0.4944 0.43789 0.77909 0.0
C1839 C 0.49447 0.39058 0.90796 0.0
H1840 H 0.54196 0.40393 0.77424 0.0
H1841 H 0.53718 0.42824 0.94728 0.0
H1842 H 0.50613 0.39124 0.76334 0.0
H1843 H 0.50614 0.40791 0.71903 0.0
H1844 H 0.52176 0.39582 0.71488 0.0
H1845 H 0.51442 0.43509 0.98826 0.0
H1846 H 0.50044 0.43792 0.92908 0.0
H1847 H 0.50054 0.42139 0.97457 0.0
H1848 H 0.46513 0.43446 0.79155 0.0
H1849 H 0.46525 0.39484 0.90154 0.0
H1850 H 0.50267 0.43348 0.74561 0.0
H1851 H 0.50036 0.4446 0.81457 0.0
H1852 H 0.48677 0.44515 0.75264 0.0
H1853 H 0.50273 0.38555 0.87606 0.0
H1854 H 0.48685 0.38188 0.92452 0.0
H1855 H 0.50044 0.395 0.94958 0.0
C1856 C 0.96835 0.5954 0.36805 0.0
C1857 C 0.96037 0.58269 0.35373 0.0
C1858 C 0.98374 0.59546 0.36541 0.0
C1859 C 0.99131 0.58241 0.34948 0.0
C1860 C 0.98328 0.56963 0.33375 0.0
C1861 C 0.96789 0.56997 0.33542 0.0
C1862 C 0.9919 0.60939 0.38117 0.0
C1863 C 0.99094 0.55543 0.31762 0.0
C1864 C 0.03153 0.58397 0.30182 0.0
C1865 C 0.03852 0.58078 0.35933 0.0
C1866 C 0.01616 0.58472 0.29798 0.0
C1867 C 0.00762 0.5819 0.35264 0.0
C1868 C 0.01465 0.57854 0.41067 0.0
C1869 C 0.03002 0.57818 0.41345 0.0
C1870 C 0.00907 0.58863 0.23561 0.0
C1871 C 0.00593 0.57521 0.46975 0.0
H1872 H 0.96256 0.60527 0.38195 0.0
H1873 H 0.96175 0.5601 0.32471 0.0
H1874 H 0.99823 0.60787 0.42554 0.0
H1875 H 0.99987 0.61202 0.34313 0.0
H1876 H 0.98439 0.61888 0.38743 0.0
H1877 H 0.98312 0.54663 0.3042 0.0
H1878 H 0.99873 0.55713 0.27796 0.0
H1879 H 0.99743 0.55165 0.35898 0.0
H1880 H 0.03808 0.58606 0.25996 0.0
H1881 H 0.03539 0.57564 0.45791 0.0
H1882 H 0.00208 0.59849 0.24147 0.0
H1883 H 0.00184 0.57957 0.21978 0.0
H1884 H 0.01728 0.59082 0.19789 0.0
H1885 H 0.99906 0.58479 0.48266 0.0
H1886 H 0.01307 0.57244 0.5107 0.0
H1887 H 0.99842 0.56587 0.46087 0.0
C1888 C 0.96995 0.42939 0.6699 0.0
C1889 C 0.96222 0.41678 0.65196 0.0
C1890 C 0.98535 0.42962 0.66952 0.0
C1891 C 0.99317 0.41682 0.65203 0.0
C1892 C 0.9854 0.40387 0.63647 0.0
C1893 C 0.97001 0.40406 0.63594 0.0
C1894 C 0.99322 0.44371 0.6854 0.0
C1895 C 0.99335 0.38993 0.61885 0.0
C1896 C 0.03146 0.42093 0.58342 0.0
C1897 C 0.0403 0.41808 0.63629 0.0
C1898 C 0.01611 0.42069 0.58812 0.0
C1899 C 0.00945 0.41721 0.64682 0.0
C1900 C 0.01833 0.41414 0.7002 0.0
C1901 C 0.03367 0.41476 0.69445 0.0
C1902 C 0.00703 0.42429 0.53036 0.0
C1903 C 0.01164 0.4101 0.76322 0.0
H1904 H 0.96396 0.43928 0.68191 0.0
H1905 H 0.96405 0.39426 0.62231 0.0
H1906 H 0.00128 0.44183 0.72391 0.0
H1907 H 0.99944 0.44757 0.6434 0.0
H1908 H 0.98556 0.45253 0.70033 0.0
H1909 H 0.98574 0.38052 0.613 0.0
H1910 H 0.99939 0.39154 0.57379 0.0
H1911 H 0.00156 0.38712 0.6557 0.0
H1912 H 0.03656 0.42358 0.53847 0.0
H1913 H 0.04048 0.41248 0.73536 0.0
H1914 H 0.99966 0.43367 0.54072 0.0
H1915 H 0.99998 0.41481 0.51783 0.0
H1916 H 0.0139 0.4271 0.48868 0.0
H1917 H 0.00459 0.41918 0.78046 0.0
H1918 H 0.02007 0.40772 0.79976 0.0
H1919 H 0.00452 0.40032 0.7577 0.0
C1920 C 0.47123 0.57161 0.18008 0.0
C1921 C 0.46332 0.58338 0.15444 0.0
C1922 C 0.48663 0.5715 0.17887 0.0
C1923 C 0.49427 0.58355 0.15243 0.0
C1924 C 0.48632 0.59576 0.12919 0.0
C1925 C 0.47093 0.59546 0.12991 0.0
C1926 C 0.4947 0.55819 0.20332 0.0
C1927 C 0.49405 0.60894 0.10175 0.0
C1928 C 0.53504 0.5873 0.18734 0.0
C1929 C 0.54128 0.58196 0.13121 0.0
C1930 C 0.51974 0.58803 0.19481 0.0
C1931 C 0.51051 0.58302 0.14544 0.0
C1932 C 0.51678 0.57749 0.0889 0.0
C1933 C 0.53209 0.57716 0.08224 0.0
C1934 C 0.51346 0.59425 0.25526 0.0
C1935 C 0.50732 0.57181 0.03555 0.0
H1936 H 0.46539 0.56222 0.19877 0.0
H1937 H 0.46484 0.60461 0.11032 0.0
H1938 H 0.5006 0.55279 0.1637 0.0
H1939 H 0.50305 0.56149 0.23878 0.0
H1940 H 0.4872 0.55007 0.22537 0.0
H1941 H 0.48635 0.61804 0.09087 0.0
H1942 H 0.5025 0.61301 0.13524 0.0
H1943 H 0.49978 0.60578 0.05744 0.0
H1944 H 0.54212 0.59108 0.22521 0.0
H1945 H 0.53687 0.57294 0.03892 0.0
H1946 H 0.50657 0.5859 0.27918 0.0
H1947 H 0.50627 0.60373 0.24425 0.0
H1948 H 0.52213 0.5979 0.28868 0.0
H1949 H 0.5001 0.5629 0.05311 0.0
H1950 H 0.51392 0.56752 0.99538 0.0
H1951 H 0.50012 0.5807 0.01769 0.0
C1952 C 0.14687 0.14989 0.30989 0.0
C1953 C 0.1505 0.14327 0.25214 0.0
C1954 C 0.13847 0.14235 0.3551 0.0
C1955 C 0.13344 0.12801 0.34147 0.0
C1956 C 0.13691 0.12138 0.28278 0.0
C1957 C 0.1455 0.12906 0.23903 0.0
C1958 C 0.13513 0.14965 0.41764 0.0
C1959 C 0.13155 0.10619 0.26621 0.0
C1960 C 0.12349 0.10206 0.47477 0.0
C1961 C 0.10817 0.10319 0.4756 0.0
C1962 C 0.13187 0.11032 0.43213 0.0
C1963 C 0.12472 0.11975 0.38881 0.0
C1964 C 0.10924 0.1209 0.38928 0.0
C1965 C 0.10114 0.11266 0.43306 0.0
C1966 C 0.14838 0.10893 0.43337 0.0
C1967 C 0.10125 0.13071 0.34311 0.0
H1968 H 0.15076 0.16087 0.32007 0.0
H1969 H 0.1482 0.12396 0.19413 0.0
H1970 H 0.1231 0.1504 0.42459 0.0
H1971 H 0.13958 0.14294 0.45704 0.0
H1972 H 0.13986 0.16085 0.42082 0.0
H1973 H 0.13485 0.1028 0.21771 0.0
H1974 H 0.13599 0.0981 0.30047 0.0
H1975 H 0.11941 0.10574 0.26959 0.0
H1976 H 0.12896 0.09484 0.508 0.0
H1977 H 0.08928 0.11356 0.43369 0.0
H1978 H 0.15344 0.11987 0.44019 0.0
H1979 H 0.15235 0.10461 0.38735 0.0
H1980 H 0.15225 0.10152 0.47166 0.0
H1981 H 0.10509 0.14218 0.34825 0.0
H1982 H 0.08918 0.13046 0.35012 0.0
H1983 H 0.10371 0.12724 0.29387 0.0
C1984 C 0.10174 0.8758 0.51913 0.0
C1985 C 0.10112 0.89096 0.52999 0.0
C1986 C 0.10907 0.86647 0.56155 0.0
C1987 C 0.11585 0.87249 0.61594 0.0
C1988 C 0.11473 0.8877 0.62833 0.0
C1989 C 0.10739 0.89676 0.58512 0.0
C1990 C 0.11004 0.8503 0.54689 0.0
C1991 C 0.12176 0.89452 0.68603 0.0
C1992 C 0.12813 0.84939 0.75562 0.0
C1993 C 0.14332 0.84884 0.74571 0.0
C1994 C 0.11889 0.85651 0.71223 0.0
C1995 C 0.12503 0.86318 0.65782 0.0
C1996 C 0.14027 0.862 0.6461 0.0
C1997 C 0.14923 0.85486 0.69027 0.0
C1998 C 0.10268 0.85752 0.72615 0.0
C1999 C 0.14722 0.86889 0.58839 0.0
H2000 H 0.09689 0.87128 0.47654 0.0
H2001 H 0.10687 0.90846 0.59384 0.0
H2002 H 0.12157 0.84736 0.53594 0.0
H2003 H 0.10668 0.84374 0.58866 0.0
H2004 H 0.10307 0.84717 0.50592 0.0
H2005 H 0.11907 0.90635 0.69084 0.0
H2006 H 0.11814 0.88875 0.72954 0.0
H2007 H 0.13385 0.89336 0.68301 0.0
H2008 H 0.12351 0.84472 0.7984 0.0
H2009 H 0.16097 0.85438 0.68224 0.0
H2010 H 0.09619 0.85429 0.68396 0.0
H2011 H 0.09977 0.86903 0.73751 0.0
H2012 H 0.09942 0.85047 0.76667 0.0
H2013 H 0.14137 0.86541 0.54485 0.0
H2014 H 0.15899 0.86595 0.58359 0.0
H2015 H 0.14632 0.881 0.59151 0.0
C2016 C 0.40085 0.89213 0.93075 0.0
C2017 C 0.39357 0.89943 0.97994 0.0
C2018 C 0.393 0.88373 0.88655 0.0
C2019 C 0.37758 0.88249 0.89245 0.0
C2020 C 0.3702 0.88986 0.94203 0.0
C2021 C 0.37828 0.89832 0.98494 0.0
C2022 C 0.40119 0.87617 0.83366 0.0
C2023 C 0.35378 0.88869 0.95013 0.0
C2024 C 0.35457 0.87207 0.75018 0.0
C2025 C 0.35214 0.8571 0.76093 0.0
C2026 C 0.36308 0.8804 0.79205 0.0
C2027 C 0.36908 0.87363 0.84644 0.0
C2028 C 0.36661 0.85852 0.85774 0.0
C2029 C 0.35824 0.85039 0.81445 0.0
C2030 C 0.36563 0.89644 0.77808 0.0
C2031 C 0.37268 0.85101 0.91582 0.0
H2032 H 0.41267 0.89297 0.92684 0.0
H2033 H 0.37262 0.90387 0.02321 0.0
H2034 H 0.39949 0.86415 0.83657 0.0
H2035 H 0.39685 0.87983 0.78718 0.0
H2036 H 0.41316 0.87843 0.83517 0.0
H2037 H 0.34975 0.89494 0.99181 0.0
H2038 H 0.34815 0.89287 0.90721 0.0
H2039 H 0.35059 0.87703 0.95584 0.0
H2040 H 0.34998 0.87726 0.70847 0.0
H2041 H 0.35637 0.83881 0.82278 0.0
H2042 H 0.37757 0.89875 0.77618 0.0
H2043 H 0.36096 0.90326 0.81664 0.0
H2044 H 0.3606 0.8999 0.73254 0.0
H2045 H 0.3848 0.85208 0.91693 0.0
H2046 H 0.36981 0.83918 0.91748 0.0
H2047 H 0.36837 0.85639 0.95913 0.0
C2048 C 0.38635 0.10576 0.04693 0.0
C2049 C 0.39799 0.11014 0.00796 0.0
C2050 C 0.38001 0.11551 0.09018 0.0
C2051 C 0.38546 0.13 0.0947 0.0
C2052 C 0.39729 0.13449 0.05589 0.0
C2053 C 0.40342 0.12448 0.01279 0.0
C2054 C 0.3674 0.1103 0.13078 0.0
C2055 C 0.40338 0.14985 0.05968 0.0
C2056 C 0.35797 0.15612 0.16745 0.0
C2057 C 0.36206 0.15565 0.2314 0.0
C2058 C 0.36608 0.14855 0.12145 0.0
C2059 C 0.37855 0.14036 0.14002 0.0
C2060 C 0.3833 0.1407 0.20381 0.0
C2061 C 0.37497 0.14834 0.24883 0.0
C2062 C 0.36071 0.14849 0.05381 0.0
C2063 C 0.3966 0.13218 0.22536 0.0
H2064 H 0.38211 0.09469 0.04336 0.0
H2065 H 0.41243 0.1279 0.9827 0.0
H2066 H 0.37021 0.11151 0.18163 0.0
H2067 H 0.35756 0.11715 0.12168 0.0
H2068 H 0.36453 0.09866 0.12163 0.0
H2069 H 0.41279 0.15152 0.02705 0.0
H2070 H 0.39469 0.1579 0.04777 0.0
H2071 H 0.40702 0.15224 0.10873 0.0
H2072 H 0.34803 0.16182 0.15371 0.0
H2073 H 0.37823 0.14802 0.29819 0.0
H2074 H 0.35619 0.13752 0.04221 0.0
H2075 H 0.36989 0.15062 0.02064 0.0
H2076 H 0.352 0.1568 0.04563 0.0
H2077 H 0.39412 0.12027 0.22401 0.0
H2078 H 0.39993 0.13512 0.27435 0.0
H2079 H 0.40599 0.13414 0.19308 0.0
C2080 C 0.88137 0.8964 0.49778 0.0
C2081 C 0.89604 0.90044 0.50692 0.0
C2082 C 0.87402 0.88769 0.5421 0.0
C2083 C 0.88148 0.8831 0.59737 0.0
C2084 C 0.89628 0.88721 0.60716 0.0
C2085 C 0.90345 0.89577 0.56141 0.0
C2086 C 0.85828 0.88338 0.52968 0.0
C2087 C 0.90447 0.88265 0.66608 0.0
C2088 C 0.85679 0.87274 0.73426 0.0
C2089 C 0.85679 0.85741 0.73019 0.0
C2090 C 0.8652 0.88123 0.69262 0.0
C2091 C 0.87359 0.87419 0.64517 0.0
C2092 C 0.87372 0.85869 0.64112 0.0
C2093 C 0.86539 0.85046 0.68416 0.0
C2094 C 0.86495 0.89772 0.69886 0.0
C2095 C 0.88237 0.85084 0.59041 0.0
H2096 H 0.87563 0.8999 0.45542 0.0
H2097 H 0.9148 0.89891 0.56851 0.0
H2098 H 0.8572 0.87126 0.53022 0.0
H2099 H 0.85111 0.88775 0.56771 0.0
H2100 H 0.85421 0.88753 0.48344 0.0
H2101 H 0.91593 0.88679 0.66657 0.0
H2102 H 0.89872 0.88683 0.7087 0.0
H2103 H 0.90471 0.87052 0.66975 0.0
H2104 H 0.85027 0.87813 0.77035 0.0
H2105 H 0.86541 0.83859 0.68107 0.0
H2106 H 0.85996 0.90265 0.65592 0.0
H2107 H 0.87629 0.90202 0.70258 0.0
H2108 H 0.85862 0.90142 0.7409 0.0
H2109 H 0.87816 0.85398 0.543 0.0
H2110 H 0.88171 0.83872 0.59514 0.0
H2111 H 0.89406 0.85416 0.59243 0.0
C2112 C 0.85932 0.15378 0.32584 0.0
C2113 C 0.8503 0.14635 0.28275 0.0
C2114 C 0.86746 0.14606 0.37123 0.0
C2115 C 0.86671 0.13056 0.37263 0.0
C2116 C 0.85753 0.12302 0.32953 0.0
C2117 C 0.84933 0.13104 0.28537 0.0
C2118 C 0.87695 0.15445 0.41725 0.0
C2119 C 0.8566 0.10649 0.3292 0.0
C2120 C 0.89825 0.10953 0.44649 0.0
C2121 C 0.8922 0.10542 0.50479 0.0
C2122 C 0.89007 0.11777 0.40293 0.0
C2123 C 0.87563 0.12218 0.41879 0.0
C2124 C 0.8696 0.11829 0.47816 0.0
C2125 C 0.87792 0.10984 0.52028 0.0
C2126 C 0.89676 0.12154 0.3396 0.0
C2127 C 0.85433 0.12301 0.49705 0.0
H2128 H 0.86005 0.16564 0.32392 0.0
H2129 H 0.84244 0.12527 0.25178 0.0
H2130 H 0.87398 0.15152 0.46661 0.0
H2131 H 0.88863 0.15141 0.41042 0.0
H2132 H 0.87587 0.16651 0.41143 0.0
H2133 H 0.8489 0.10232 0.2926 0.0
H2134 H 0.86761 0.10174 0.32022 0.0
H2135 H 0.85293 0.10247 0.37618 0.0
H2136 H 0.90928 0.10607 0.43445 0.0
H2137 H 0.87327 0.10676 0.56562 0.0
H2138 H 0.89692 0.13361 0.33301 0.0
H2139 H 0.88998 0.11687 0.30091 0.0
H2140 H 0.90814 0.11732 0.33476 0.0
H2141 H 0.85332 0.13511 0.49374 0.0
H2142 H 0.8515 0.11958 0.54602 0.0
H2143 H 0.84617 0.11822 0.46402 0.0
C2144 C 0.64663 0.1287 0.24034 0.0
C2145 C 0.648 0.14396 0.2352 0.0
C2146 C 0.63815 0.12074 0.19708 0.0
C2147 C 0.63105 0.12822 0.14704 0.0
C2148 C 0.63251 0.14361 0.14118 0.0
C2149 C 0.64091 0.15134 0.18572 0.0
C2150 C 0.63673 0.10434 0.20515 0.0
C2151 C 0.62524 0.15189 0.0878 0.0
C2152 C 0.62106 0.10529 0.00405 0.0
C2153 C 0.60603 0.10295 0.01368 0.0
C2154 C 0.62927 0.11375 0.04649 0.0
C2155 C 0.62231 0.11982 0.10029 0.0
C2156 C 0.60713 0.11749 0.11035 0.0
C2157 C 0.59913 0.10915 0.06652 0.0
C2158 C 0.6454 0.11616 0.03385 0.0
C2159 C 0.59941 0.12365 0.16775 0.0
H2160 H 0.65201 0.12298 0.27885 0.0
H2161 H 0.64197 0.16314 0.18171 0.0
H2162 H 0.625 0.10129 0.20965 0.0
H2163 H 0.64108 0.09865 0.16269 0.0
H2164 H 0.6427 0.10026 0.24748 0.0
H2165 H 0.62755 0.16384 0.08973 0.0
H2166 H 0.6291 0.14758 0.04158 0.0
H2167 H 0.61319 0.15025 0.08959 0.0
H2168 H 0.6264 0.10061 0.96287 0.0
H2169 H 0.5875 0.10735 0.07397 0.0
H2170 H 0.652 0.11138 0.07285 0.0
H2171 H 0.64783 0.12807 0.03238 0.0
H2172 H 0.649 0.11114 0.9885 0.0
H2173 H 0.60451 0.11925 0.21151 0.0
H2174 H 0.58753 0.12095 0.16827 0.0
H2175 H 0.60065 0.13575 0.16909 0.0
C2176 C 0.64942 0.87419 0.76864 0.0
C2177 C 0.65096 0.85904 0.77748 0.0
C2178 C 0.64119 0.88267 0.81105 0.0
C2179 C 0.63466 0.87585 0.8642 0.0
C2180 C 0.63649 0.86061 0.87419 0.0
C2181 C 0.6445 0.85234 0.83018 0.0
C2182 C 0.63923 0.89885 0.79826 0.0
C2183 C 0.62992 0.85304 0.93111 0.0
C2184 C 0.62385 0.89985 0.00313 0.0
C2185 C 0.60861 0.90071 0.99547 0.0
C2186 C 0.63248 0.89175 0.96078 0.0
C2187 C 0.62571 0.88464 0.90892 0.0
C2188 C 0.61036 0.88577 0.90012 0.0
C2189 C 0.60195 0.89367 0.94402 0.0
C2190 C 0.64879 0.89056 0.97225 0.0
C2191 C 0.60281 0.87857 0.84458 0.0
H2192 H 0.65432 0.87936 0.72753 0.0
H2193 H 0.64574 0.84062 0.8371 0.0
H2194 H 0.62739 0.9014 0.79294 0.0
H2195 H 0.64336 0.90535 0.83889 0.0
H2196 H 0.64505 0.90245 0.75475 0.0
H2197 H 0.63293 0.84125 0.93341 0.0
H2198 H 0.63366 0.85848 0.97525 0.0
H2199 H 0.6178 0.85394 0.92964 0.0
H2200 H 0.62899 0.90519 0.04325 0.0
H2201 H 0.59017 0.89438 0.93799 0.0
H2202 H 0.65491 0.89476 0.93065 0.0
H2203 H 0.65189 0.87888 0.97839 0.0
H2204 H 0.65233 0.89675 0.01487 0.0
H2205 H 0.60786 0.88231 0.79958 0.0
H2206 H 0.59088 0.88104 0.84311 0.0
H2207 H 0.60425 0.86651 0.8471 0.0
C2208 C 0.59949 0.61281 0.92797 0.0
C2209 C 0.60735 0.60428 0.97147 0.0
C2210 C 0.60684 0.62138 0.88278 0.0
C2211 C 0.62237 0.62146 0.88175 0.0
C2212 C 0.63033 0.61304 0.92625 0.0
C2213 C 0.62272 0.6045 0.97038 0.0
C2214 C 0.59803 0.63017 0.83564 0.0
C2215 C 0.6469 0.61291 0.92686 0.0
C2216 C 0.64332 0.63043 0.73212 0.0
C2217 C 0.64798 0.6448 0.74417 0.0
C2218 C 0.63452 0.6229 0.7756 0.0
C2219 C 0.63042 0.62987 0.83276 0.0
C2220 C 0.63488 0.64448 0.84476 0.0
C2221 C 0.64358 0.65182 0.80003 0.0
C2222 C 0.62989 0.60736 0.76099 0.0
C2223 C 0.63081 0.65219 0.90554 0.0
H2224 H 0.5876 0.61266 0.92884 0.0
H2225 H 0.62885 0.59801 0.00426 0.0
H2226 H 0.60117 0.6419 0.83813 0.0
H2227 H 0.60047 0.62634 0.78689 0.0
H2228 H 0.58603 0.62924 0.84393 0.0
H2229 H 0.65141 0.6062 0.96621 0.0
H2230 H 0.65108 0.60845 0.88144 0.0
H2231 H 0.65115 0.62426 0.93149 0.0
H2232 H 0.6466 0.62501 0.68864 0.0
H2233 H 0.64714 0.66295 0.80934 0.0
H2234 H 0.61781 0.60626 0.76545 0.0
H2235 H 0.63492 0.59973 0.79568 0.0
H2236 H 0.63317 0.60388 0.71259 0.0
H2237 H 0.61876 0.65187 0.91264 0.0
H2238 H 0.63446 0.66381 0.90606 0.0
H2239 H 0.6359 0.64644 0.9463 0.0
C2240 C 0.64639 0.36126 0.19597 0.0
C2241 C 0.64146 0.35108 0.24076 0.0
C2242 C 0.63665 0.36782 0.1533 0.0
C2243 C 0.62156 0.36421 0.15589 0.0
C2244 C 0.61652 0.35374 0.20033 0.0
C2245 C 0.62657 0.34723 0.24221 0.0
C2246 C 0.64248 0.37885 0.10618 0.0
C2247 C 0.6005 0.3497 0.20462 0.0
C2248 C 0.59809 0.39438 0.0869 0.0
C2249 C 0.5963 0.3895 0.02446 0.0
C2250 C 0.60541 0.38573 0.13176 0.0
C2251 C 0.61113 0.37194 0.11345 0.0
C2252 C 0.60841 0.36651 0.05174 0.0
C2253 C 0.60097 0.37536 0.00791 0.0
C2254 C 0.60792 0.39183 0.19736 0.0
C2255 C 0.61433 0.35185 0.03049 0.0
H2256 H 0.65791 0.3642 0.19448 0.0
H2257 H 0.62272 0.33937 0.27691 0.0
H2258 H 0.6394 0.37557 0.05735 0.0
H2259 H 0.6375 0.38975 0.11526 0.0
H2260 H 0.65459 0.37995 0.10858 0.0
H2261 H 0.59849 0.34077 0.2393 0.0
H2262 H 0.59402 0.35945 0.21903 0.0
H2263 H 0.59636 0.34619 0.15761 0.0
H2264 H 0.59439 0.40526 0.10002 0.0
H2265 H 0.59957 0.37153 0.95969 0.0
H2266 H 0.61964 0.39484 0.20281 0.0
H2267 H 0.60538 0.38345 0.23384 0.0
H2268 H 0.60115 0.40173 0.20661 0.0
H2269 H 0.6264 0.35261 0.02483 0.0
H2270 H 0.60952 0.34832 0.98462 0.0
H2271 H 0.61211 0.34329 0.06656 0.0
C2272 C 0.8947 0.39762 0.42759 0.0
C2273 C 0.90109 0.39168 0.4822 0.0
C2274 C 0.88732 0.38866 0.38411 0.0
C2275 C 0.88628 0.37341 0.39571 0.0
C2276 C 0.89319 0.36726 0.44956 0.0
C2277 C 0.90055 0.3765 0.49224 0.0
C2278 C 0.88017 0.39561 0.327 0.0
C2279 C 0.89232 0.35105 0.46338 0.0
C2280 C 0.85287 0.35567 0.32203 0.0
C2281 C 0.85873 0.34972 0.26631 0.0
C2282 C 0.86187 0.36286 0.36594 0.0
C2283 C 0.87707 0.36417 0.35367 0.0
C2284 C 0.88316 0.35762 0.29886 0.0
C2285 C 0.87389 0.35044 0.25575 0.0
C2286 C 0.85498 0.36962 0.42409 0.0
C2287 C 0.89932 0.35877 0.28432 0.0
H2288 H 0.89515 0.40935 0.4195 0.0
H2289 H 0.90549 0.37186 0.53442 0.0
H2290 H 0.88372 0.38996 0.28308 0.0
H2291 H 0.86808 0.39442 0.33039 0.0
H2292 H 0.88281 0.40746 0.32268 0.0
H2293 H 0.89935 0.34782 0.50402 0.0
H2294 H 0.88081 0.34802 0.47442 0.0
H2295 H 0.89566 0.34462 0.42119 0.0
H2296 H 0.84117 0.35507 0.33053 0.0
H2297 H 0.87846 0.34584 0.21273 0.0
H2298 H 0.85586 0.38174 0.42144 0.0
H2299 H 0.86089 0.36606 0.46733 0.0
H2300 H 0.84322 0.36666 0.42908 0.0
H2301 H 0.90214 0.37034 0.27358 0.0
H2302 H 0.90255 0.35188 0.24324 0.0
H2303 H 0.90592 0.35544 0.32605 0.0
C2304 C 0.874 0.64824 0.76074 0.0
C2305 C 0.85967 0.65239 0.74469 0.0
C2306 C 0.88296 0.64085 0.71716 0.0
C2307 C 0.87738 0.63747 0.65636 0.0
C2308 C 0.86321 0.64236 0.63876 0.0
C2309 C 0.85453 0.64981 0.68316 0.0
C2310 C 0.89806 0.63596 0.73741 0.0
C2311 C 0.85687 0.63895 0.57435 0.0
C2312 C 0.90228 0.62361 0.52499 0.0
C2313 C 0.8998 0.60845 0.5282 0.0
C2314 C 0.89533 0.63323 0.56741 0.0
C2315 C 0.88566 0.62752 0.61367 0.0
C2316 C 0.88343 0.61219 0.61803 0.0
C2317 C 0.89056 0.60285 0.57534 0.0
C2318 C 0.89805 0.64951 0.56181 0.0
C2319 C 0.8732 0.60567 0.66673 0.0
H2320 H 0.87806 0.65029 0.80818 0.0
H2321 H 0.84347 0.65304 0.6705 0.0
H2322 H 0.8982 0.62386 0.74296 0.0
H2323 H 0.90629 0.63879 0.70071 0.0
H2324 H 0.90144 0.64099 0.78305 0.0
H2325 H 0.8463 0.64469 0.56598 0.0
H2326 H 0.86469 0.64211 0.53651 0.0
H2327 H 0.85499 0.62697 0.57017 0.0
H2328 H 0.90943 0.62798 0.48861 0.0
H2329 H 0.88862 0.59114 0.57804 0.0
H2330 H 0.90148 0.65406 0.60822 0.0
H2331 H 0.88775 0.65515 0.54804 0.0
H2332 H 0.90662 0.6521 0.52611 0.0
H2333 H 0.87654 0.60911 0.715 0.0
H2334 H 0.87299 0.5935 0.66493 0.0
H2335 H 0.86189 0.6098 0.65882 0.0
C2336 C 0.35617 0.35092 0.18635 0.0
C2337 C 0.35042 0.35843 0.23863 0.0
C2338 C 0.36489 0.35824 0.1416 0.0
C2339 C 0.36802 0.37332 0.15008 0.0
C2340 C 0.36232 0.38089 0.20307 0.0
C2341 C 0.35351 0.37337 0.24651 0.0
C2342 C 0.37067 0.34988 0.08514 0.0
C2343 C 0.36554 0.39695 0.21399 0.0
C2344 C 0.40082 0.39014 0.06693 0.0
C2345 C 0.39404 0.39762 0.01692 0.0
C2346 C 0.39248 0.38205 0.11047 0.0
C2347 C 0.37707 0.38132 0.10312 0.0
C2348 C 0.3702 0.38872 0.05225 0.0
C2349 C 0.37877 0.39687 0.00996 0.0
C2350 C 0.40014 0.37444 0.1647 0.0
C2351 C 0.3538 0.38808 0.04264 0.0
H2352 H 0.35378 0.33936 0.18022 0.0
H2353 H 0.34916 0.37919 0.28716 0.0
H2354 H 0.36672 0.35505 0.04073 0.0
H2355 H 0.38282 0.35033 0.08437 0.0
H2356 H 0.3672 0.33821 0.08545 0.0
H2357 H 0.36053 0.40112 0.25842 0.0
H2358 H 0.37757 0.39873 0.2163 0.0
H2359 H 0.36132 0.40354 0.17378 0.0
H2360 H 0.41262 0.3907 0.07231 0.0
H2361 H 0.37351 0.40254 0.97097 0.0
H2362 H 0.39766 0.36253 0.1638 0.0
H2363 H 0.39601 0.3788 0.21042 0.0
H2364 H 0.41222 0.37591 0.1631 0.0
H2365 H 0.35016 0.3765 0.03924 0.0
H2366 H 0.35025 0.39397 -0.00078 0.0
H2367 H 0.34813 0.39301 0.08398 0.0
C2368 C 0.37849 0.60071 0.99439 0.0
C2369 C 0.39356 0.59872 0.9847 0.0
C2370 C 0.37002 0.60873 0.95123 0.0
C2371 C 0.37677 0.61467 0.89664 0.0
C2372 C 0.39191 0.61236 0.88575 0.0
C2373 C 0.40018 0.60451 0.93033 0.0
C2374 C 0.35394 0.61116 0.96483 0.0
C2375 C 0.39941 0.61832 0.8274 0.0
C2376 C 0.35218 0.62528 0.75936 0.0
C2377 C 0.35155 0.64055 0.76607 0.0
C2378 C 0.36046 0.61671 0.80127 0.0
C2379 C 0.36803 0.62358 0.85164 0.0
C2380 C 0.36723 0.63899 0.85922 0.0
C2381 C 0.3591 0.64732 0.81586 0.0
C2382 C 0.36126 0.60033 0.79119 0.0
C2383 C 0.37496 0.64666 0.91311 0.0
H2384 H 0.37337 0.59632 0.03665 0.0
H2385 H 0.41183 0.60293 0.92271 0.0
H2386 H 0.35169 0.62308 0.96916 0.0
H2387 H 0.34719 0.60698 0.92502 0.0
H2388 H 0.35034 0.60565 0.00912 0.0
H2389 H 0.41109 0.61494 0.82449 0.0
H2390 H 0.39365 0.61447 0.78419 0.0
H2391 H 0.39888 0.63047 0.82747 0.0
H2392 H 0.34644 0.62004 0.7205 0.0
H2393 H 0.35858 0.65913 0.82114 0.0
H2394 H 0.35704 0.59451 0.83356 0.0
H2395 H 0.37285 0.59693 0.78473 0.0
H2396 H 0.35486 0.59672 0.74923 0.0
H2397 H 0.37124 0.64206 0.95904 0.0
H2398 H 0.37292 0.65867 0.91321 0.0
H2399 H 0.38695 0.64476 0.90983 0.0
C2400 C 0.14679 0.63058 0.72628 0.0
C2401 C 0.14702 0.64593 0.72569 0.0
C2402 C 0.13836 0.62274 0.68236 0.0
C2403 C 0.13022 0.63048 0.63609 0.0
C2404 C 0.13055 0.64599 0.6348 0.0
C2405 C 0.13887 0.65356 0.68013 0.0
C2406 C 0.13811 0.6062 0.68569 0.0
C2407 C 0.12221 0.65456 0.58534 0.0
C2408 C 0.12062 0.60879 0.4891 0.0
C2409 C 0.10595 0.60508 0.50071 0.0
C2410 C 0.12851 0.61743 0.53196 0.0
C2411 C 0.12163 0.62224 0.58827 0.0
C2412 C 0.10676 0.61867 0.59997 0.0
C2413 C 0.09903 0.61022 0.5556 0.0
C2414 C 0.14427 0.62125 0.51738 0.0
C2415 C 0.09915 0.62344 0.66005 0.0
H2416 H 0.15299 0.62466 0.76187 0.0
H2417 H 0.13907 0.66544 0.67963 0.0
H2418 H 0.12665 0.60227 0.69086 0.0
H2419 H 0.14248 0.6015 0.64107 0.0
H2420 H 0.14469 0.60189 0.72587 0.0
H2421 H 0.12371 0.66659 0.59064 0.0
H2422 H 0.12592 0.65129 0.53732 0.0
H2423 H 0.11034 0.65203 0.58848 0.0
H2424 H 0.12594 0.60493 0.4463 0.0
H2425 H 0.08769 0.60732 0.5646 0.0
H2426 H 0.1516 0.61621 0.55322 0.0
H2427 H 0.14588 0.63329 0.51993 0.0
H2428 H 0.14771 0.61739 0.46972 0.0
H2429 H 0.10481 0.61861 0.70164 0.0
H2430 H 0.08745 0.62007 0.66119 0.0
H2431 H 0.09974 0.63553 0.6651 0.0
C2432 C 0.14361 0.34975 0.32857 0.0
C2433 C 0.13828 0.34558 0.26901 0.0
C2434 C 0.1346 0.3571 0.37192 0.0
C2435 C 0.11984 0.36011 0.35564 0.0
C2436 C 0.11411 0.35496 0.29745 0.0
C2437 C 0.12346 0.34786 0.25443 0.0
C2438 C 0.14118 0.36255 0.43323 0.0
C2439 C 0.09834 0.35766 0.27912 0.0
C2440 C 0.0965 0.37468 0.49067 0.0
C2441 C 0.09761 0.38984 0.48087 0.0
C2442 C 0.10304 0.36474 0.44838 0.0
C2443 C 0.11108 0.37016 0.39604 0.0
C2444 C 0.11175 0.38545 0.38478 0.0
C2445 C 0.10489 0.39509 0.42704 0.0
C2446 C 0.10181 0.3485 0.46098 0.0
C2447 C 0.12034 0.39169 0.32987 0.0
H2448 H 0.15507 0.34799 0.34006 0.0
H2449 H 0.11928 0.34453 0.20857 0.0
H2450 H 0.14164 0.37471 0.43257 0.0
H2451 H 0.13423 0.3593 0.47397 0.0
H2452 H 0.15244 0.35827 0.44103 0.0
H2453 H 0.09502 0.35101 0.23743 0.0
H2454 H 0.09091 0.35509 0.31923 0.0
H2455 H 0.09682 0.36941 0.26729 0.0
H2456 H 0.09079 0.37059 0.5321 0.0
H2457 H 0.10578 0.4068 0.41927 0.0
H2458 H 0.11261 0.34415 0.47617 0.0
H2459 H 0.09866 0.34259 0.41711 0.0
H2460 H 0.09364 0.34602 0.49851 0.0
H2461 H 0.13213 0.38893 0.3354 0.0
H2462 H 0.11928 0.4038 0.32636 0.0
H2463 H 0.11658 0.38677 0.28469 0.0
loop_
_geom_bond_atom_site_label_1
_geom_bond_atom_site_label_2
_geom_bond_distance
_geom_bond_site_symmetry_2
_ccdc_geom_bond_type
In0 O1 2.294 . S
In0 O2 2.326 . S
In0 O6 2.266 . S
In0 O7 2.326 . S
In0 O8 2.266 . S
In0 O9 2.326 . S
In0 O11 2.294 . S
In0 O12 2.326 . S
O1 In0 2.294 . S
O1 C10 1.240 . S
O2 In0 2.326 . S
O2 C10 1.252 . S
C3 O6 1.252 . S
C3 O7 1.260 . S
C4 O11 1.240 . S
C4 O12 1.252 . S
C5 O8 1.252 . S
C5 O9 1.260 . S
O6 In0 2.266 . S
O6 C3 1.252 . S
O7 In0 2.326 . S
O7 C3 1.260 . S
O8 In0 2.266 . S
O8 C5 1.252 . S
O9 In0 2.326 . S
O9 C5 1.260 . S
C10 O1 1.240 . S
C10 O2 1.252 . S
O11 In0 2.294 . S
O11 C4 1.240 . S
O12 In0 2.326 . S
O12 C4 1.252 . S
In13 O14 2.294 . S
In13 O15 2.326 . S
In13 O19 2.266 . S
In13 O20 2.326 . S
In13 O21 2.266 . S
In13 O22 2.326 . S
In13 O24 2.294 . S
In13 O25 2.326 . S
O14 In13 2.294 . S
O14 C23 1.240 . S
O15 In13 2.326 . S
O15 C23 1.252 . S
C16 O19 1.252 . S
C16 O20 1.260 . S
C17 O24 1.240 . S
C17 O25 1.252 . S
C18 O21 1.252 . S
C18 O22 1.260 . S
O19 In13 2.266 . S
O19 C16 1.252 . S
O20 In13 2.326 . S
O20 C16 1.260 . S
O21 In13 2.266 . S
O21 C18 1.252 . S
O22 In13 2.326 . S
O22 C18 1.260 . S
C23 O14 1.240 . S
C23 O15 1.252 . S
O24 In13 2.294 . S
O24 C17 1.240 . S
O25 In13 2.326 . S
O25 C17 1.252 . S
In26 O27 2.294 . S
In26 O28 2.326 . S
In26 O32 2.266 . S
In26 O33 2.326 . S
In26 O34 2.266 . S
In26 O35 2.326 . S
In26 O37 2.294 . S
In26 O38 2.326 . S
O27 In26 2.294 . S
O27 C36 1.240 . S
O28 In26 2.326 . S
O28 C36 1.252 . S
C29 O32 1.252 . S
C29 O33 1.260 . S
C30 O37 1.240 . S
C30 O38 1.252 . S
C31 O34 1.252 . S
C31 O35 1.260 . S
O32 In26 2.266 . S
O32 C29 1.252 . S
O33 In26 2.326 . S
O33 C29 1.260 . S
O34 In26 2.266 . S
O34 C31 1.252 . S
O35 In26 2.326 . S
O35 C31 1.260 . S
C36 O27 1.240 . S
C36 O28 1.252 . S
O37 In26 2.294 . S
O37 C30 1.240 . S
O38 In26 2.326 . S
O38 C30 1.252 . S
In39 O40 2.294 . S
In39 O41 2.326 . S
In39 O45 2.266 . S
In39 O46 2.326 . S
In39 O47 2.266 . S
In39 O48 2.326 . S
In39 O50 2.294 . S
In39 O51 2.326 . S
O40 In39 2.294 . S
O40 C49 1.240 . S
O41 In39 2.326 . S
O41 C49 1.252 . S
C42 O45 1.252 . S
C42 O46 1.260 . S
C43 O50 1.240 . S
C43 O51 1.252 . S
C44 O47 1.252 . S
C44 O48 1.260 . S
O45 In39 2.266 . S
O45 C42 1.252 . S
O46 In39 2.326 . S
O46 C42 1.260 . S
O47 In39 2.266 . S
O47 C44 1.252 . S
O48 In39 2.326 . S
O48 C44 1.260 . S
C49 O40 1.240 . S
C49 O41 1.252 . S
O50 In39 2.294 . S
O50 C43 1.240 . S
O51 In39 2.326 . S
O51 C43 1.252 . S
In52 O53 2.294 . S
In52 O54 2.326 . S
In52 O58 2.266 . S
In52 O59 2.326 . S
In52 O60 2.266 . S
In52 O61 2.326 . S
In52 O63 2.294 . S
In52 O64 2.326 . S
O53 In52 2.294 . S
O53 C62 1.240 . S
O54 In52 2.326 . S
O54 C62 1.252 . S
C55 O58 1.252 . S
C55 O59 1.260 . S
C56 O63 1.240 . S
C56 O64 1.252 . S
C57 O60 1.252 . S
C57 O61 1.260 . S
O58 In52 2.266 . S
O58 C55 1.252 . S
O59 In52 2.326 . S
O59 C55 1.260 . S
O60 In52 2.266 . S
O60 C57 1.252 . S
O61 In52 2.326 . S
O61 C57 1.260 . S
C62 O53 1.240 . S
C62 O54 1.252 . S
O63 In52 2.294 . S
O63 C56 1.240 . S
O64 In52 2.326 . S
O64 C56 1.252 . S
In65 O66 2.294 . S
In65 O67 2.326 . S
In65 O71 2.266 . S
In65 O72 2.326 . S
In65 O73 2.266 . S
In65 O74 2.326 . S
In65 O76 2.294 . S
In65 O77 2.326 . S
O66 In65 2.294 . S
O66 C75 1.240 . S
O67 In65 2.326 . S
O67 C75 1.252 . S
C68 O71 1.252 . S
C68 O72 1.260 . S
C69 O76 1.240 . S
C69 O77 1.252 . S
C70 O73 1.252 . S
C70 O74 1.260 . S
O71 In65 2.266 . S
O71 C68 1.252 . S
O72 In65 2.326 . S
O72 C68 1.260 . S
O73 In65 2.266 . S
O73 C70 1.252 . S
O74 In65 2.326 . S
O74 C70 1.260 . S
C75 O66 1.240 . S
C75 O67 1.252 . S
O76 In65 2.294 . S
O76 C69 1.240 . S
O77 In65 2.326 . S
O77 C69 1.252 . S
In78 O79 2.294 . S
In78 O80 2.326 . S
In78 O84 2.266 . S
In78 O85 2.326 . S
In78 O86 2.266 . S
In78 O87 2.326 . S
In78 O89 2.294 . S
In78 O90 2.326 . S
O79 In78 2.294 . S
O79 C88 1.240 . S
O80 In78 2.326 . S
O80 C88 1.252 . S
C81 O84 1.252 . S
C81 O85 1.260 . S
C82 O89 1.240 . S
C82 O90 1.252 . S
C83 O86 1.252 . S
C83 O87 1.260 . S
O84 In78 2.266 . S
O84 C81 1.252 . S
O85 In78 2.326 . S
O85 C81 1.260 . S
O86 In78 2.266 . S
O86 C83 1.252 . S
O87 In78 2.326 . S
O87 C83 1.260 . S
C88 O79 1.240 . S
C88 O80 1.252 . S
O89 In78 2.294 . S
O89 C82 1.240 . S
O90 In78 2.326 . S
O90 C82 1.252 . S
In91 O92 2.294 . S
In91 O93 2.326 . S
In91 O97 2.266 . S
In91 O98 2.326 . S
In91 O99 2.266 . S
In91 O100 2.326 . S
In91 O102 2.294 . S
In91 O103 2.326 . S
O92 In91 2.294 . S
O92 C101 1.240 . S
O93 In91 2.326 . S
O93 C101 1.252 . S
C94 O97 1.252 . S
C94 O98 1.260 . S
C95 O102 1.240 . S
C95 O103 1.252 . S
C96 O99 1.252 . S
C96 O100 1.260 . S
O97 In91 2.266 . S
O97 C94 1.252 . S
O98 In91 2.326 . S
O98 C94 1.260 . S
O99 In91 2.266 . S
O99 C96 1.252 . S
O100 In91 2.326 . S
O100 C96 1.260 . S
C101 O92 1.240 . S
C101 O93 1.252 . S
O102 In91 2.294 . S
O102 C95 1.240 . S
O103 In91 2.326 . S
O103 C95 1.252 . S
In104 O105 2.294 . S
In104 O106 2.326 . S
In104 O110 2.266 . S
In104 O111 2.326 . S
In104 O112 2.266 . S
In104 O113 2.326 . S
In104 O115 2.294 . S
In104 O116 2.326 . S
O105 In104 2.294 . S
O105 C114 1.240 . S
O106 In104 2.326 . S
O106 C114 1.252 . S
C107 O110 1.252 . S
C107 O111 1.260 . S
C108 O115 1.240 . S
C108 O116 1.252 . S
C109 O112 1.252 . S
C109 O113 1.260 . S
O110 In104 2.266 . S
O110 C107 1.252 . S
O111 In104 2.326 . S
O111 C107 1.260 . S
O112 In104 2.266 . S
O112 C109 1.252 . S
O113 In104 2.326 . S
O113 C109 1.260 . S
C114 O105 1.240 . S
C114 O106 1.252 . S
O115 In104 2.294 . S
O115 C108 1.240 . S
O116 In104 2.326 . S
O116 C108 1.252 . S
In117 O118 2.294 . S
In117 O119 2.326 . S
In117 O123 2.266 . S
In117 O124 2.326 . S
In117 O125 2.266 . S
In117 O126 2.326 . S
In117 O128 2.294 . S
In117 O129 2.326 . S
O118 In117 2.294 . S
O118 C127 1.240 . S
O119 In117 2.326 . S
O119 C127 1.252 . S
C120 O123 1.252 . S
C120 O124 1.260 . S
C121 O128 1.240 . S
C121 O129 1.252 . S
C122 O125 1.252 . S
C122 O126 1.260 . S
O123 In117 2.266 . S
O123 C120 1.252 . S
O124 In117 2.326 . S
O124 C120 1.260 . S
O125 In117 2.266 . S
O125 C122 1.252 . S
O126 In117 2.326 . S
O126 C122 1.260 . S
C127 O118 1.240 . S
C127 O119 1.252 . S
O128 In117 2.294 . S
O128 C121 1.240 . S
O129 In117 2.326 . S
O129 C121 1.252 . S
In130 O131 2.294 . S
In130 O132 2.326 . S
In130 O136 2.266 . S
In130 O137 2.326 . S
In130 O138 2.266 . S
In130 O139 2.326 . S
In130 O141 2.294 . S
In130 O142 2.326 . S
O131 In130 2.294 . S
O131 C140 1.240 . S
O132 In130 2.326 . S
O132 C140 1.252 . S
C133 O136 1.252 . S
C133 O137 1.260 . S
C134 O141 1.240 . S
C134 O142 1.252 . S
C135 O138 1.252 . S
C135 O139 1.260 . S
O136 In130 2.266 . S
O136 C133 1.252 . S
O137 In130 2.326 . S
O137 C133 1.260 . S
O138 In130 2.266 . S
O138 C135 1.252 . S
O139 In130 2.326 . S
O139 C135 1.260 . S
C140 O131 1.240 . S
C140 O132 1.252 . S
O141 In130 2.294 . S
O141 C134 1.240 . S
O142 In130 2.326 . S
O142 C134 1.252 . S
In143 O144 2.294 . S
In143 O145 2.326 . S
In143 O149 2.266 . S
In143 O150 2.326 . S
In143 O151 2.266 . S
In143 O152 2.326 . S
In143 O154 2.294 . S
In143 O155 2.326 . S
O144 In143 2.294 . S
O144 C153 1.240 . S
O145 In143 2.326 . S
O145 C153 1.252 . S
C146 O149 1.252 . S
C146 O150 1.260 . S
C147 O154 1.240 . S
C147 O155 1.252 . S
C148 O151 1.252 . S
C148 O152 1.260 . S
O149 In143 2.266 . S
O149 C146 1.252 . S
O150 In143 2.326 . S
O150 C146 1.260 . S
O151 In143 2.266 . S
O151 C148 1.252 . S
O152 In143 2.326 . S
O152 C148 1.260 . S
C153 O144 1.240 . S
C153 O145 1.252 . S
O154 In143 2.294 . S
O154 C147 1.240 . S
O155 In143 2.326 . S
O155 C147 1.252 . S
In156 O157 2.294 . S
In156 O158 2.326 . S
In156 O162 2.266 . S
In156 O163 2.326 . S
In156 O164 2.266 . S
In156 O165 2.326 . S
In156 O167 2.294 . S
In156 O168 2.326 . S
O157 In156 2.294 . S
O157 C166 1.240 . S
O158 In156 2.326 . S
O158 C166 1.252 . S
C159 O162 1.252 . S
C159 O163 1.260 . S
C160 O167 1.240 . S
C160 O168 1.252 . S
C161 O164 1.252 . S
C161 O165 1.260 . S
O162 In156 2.266 . S
O162 C159 1.252 . S
O163 In156 2.326 . S
O163 C159 1.260 . S
O164 In156 2.266 . S
O164 C161 1.252 . S
O165 In156 2.326 . S
O165 C161 1.260 . S
C166 O157 1.240 . S
C166 O158 1.252 . S
O167 In156 2.294 . S
O167 C160 1.240 . S
O168 In156 2.326 . S
O168 C160 1.252 . S
In169 O170 2.294 . S
In169 O171 2.326 . S
In169 O175 2.266 . S
In169 O176 2.326 . S
In169 O177 2.266 . S
In169 O178 2.326 . S
In169 O180 2.294 . S
In169 O181 2.326 . S
O170 In169 2.294 . S
O170 C179 1.240 . S
O171 In169 2.326 . S
O171 C179 1.252 . S
C172 O175 1.252 . S
C172 O176 1.260 . S
C173 O180 1.240 . S
C173 O181 1.252 . S
C174 O177 1.252 . S
C174 O178 1.260 . S
O175 In169 2.266 . S
O175 C172 1.252 . S
O176 In169 2.326 . S
O176 C172 1.260 . S
O177 In169 2.266 . S
O177 C174 1.252 . S
O178 In169 2.326 . S
O178 C174 1.260 . S
C179 O170 1.240 . S
C179 O171 1.252 . S
O180 In169 2.294 . S
O180 C173 1.240 . S
O181 In169 2.326 . S
O181 C173 1.252 . S
In182 O183 2.294 . S
In182 O184 2.326 . S
In182 O188 2.266 . S
In182 O189 2.326 . S
In182 O190 2.266 . S
In182 O191 2.326 . S
In182 O193 2.294 . S
In182 O194 2.326 . S
O183 In182 2.294 . S
O183 C192 1.240 . S
O184 In182 2.326 . S
O184 C192 1.252 . S
C185 O188 1.252 . S
C185 O189 1.260 . S
C186 O193 1.240 . S
C186 O194 1.252 . S
C187 O190 1.252 . S
C187 O191 1.260 . S
O188 In182 2.266 . S
O188 C185 1.252 . S
O189 In182 2.326 . S
O189 C185 1.260 . S
O190 In182 2.266 . S
O190 C187 1.252 . S
O191 In182 2.326 . S
O191 C187 1.260 . S
C192 O183 1.240 . S
C192 O184 1.252 . S
O193 In182 2.294 . S
O193 C186 1.240 . S
O194 In182 2.326 . S
O194 C186 1.252 . S
In195 O196 2.294 . S
In195 O197 2.326 . S
In195 O201 2.266 . S
In195 O202 2.326 . S
In195 O203 2.266 . S
In195 O204 2.326 . S
In195 O206 2.294 . S
In195 O207 2.326 . S
O196 In195 2.294 . S
O196 C205 1.240 . S
O197 In195 2.326 . S
O197 C205 1.252 . S
C198 O201 1.252 . S
C198 O202 1.260 . S
C199 O206 1.240 . S
C199 O207 1.252 . S
C200 O203 1.252 . S
C200 O204 1.260 . S
O201 In195 2.266 . S
O201 C198 1.252 . S
O202 In195 2.326 . S
O202 C198 1.260 . S
O203 In195 2.266 . S
O203 C200 1.252 . S
O204 In195 2.326 . S
O204 C200 1.260 . S
C205 O196 1.240 . S
C205 O197 1.252 . S
O206 In195 2.294 . S
O206 C199 1.240 . S
O207 In195 2.326 . S
O207 C199 1.252 . S
In208 O209 2.294 . S
In208 O210 2.326 . S
In208 O214 2.266 . S
In208 O215 2.326 . S
In208 O216 2.266 . S
In208 O217 2.326 . S
In208 O219 2.294 . S
In208 O220 2.326 . S
O209 In208 2.294 . S
O209 C218 1.240 . S
O210 In208 2.326 . S
O210 C218 1.252 . S
C211 O214 1.252 . S
C211 O215 1.260 . S
C212 O219 1.240 . S
C212 O220 1.252 . S
C213 O216 1.252 . S
C213 O217 1.260 . S
O214 In208 2.266 . S
O214 C211 1.252 . S
O215 In208 2.326 . S
O215 C211 1.260 . S
O216 In208 2.266 . S
O216 C213 1.252 . S
O217 In208 2.326 . S
O217 C213 1.260 . S
C218 O209 1.240 . S
C218 O210 1.252 . S
O219 In208 2.294 . S
O219 C212 1.240 . S
O220 In208 2.326 . S
O220 C212 1.252 . S
In221 O222 2.294 . S
In221 O223 2.326 . S
In221 O227 2.266 . S
In221 O228 2.326 . S
In221 O229 2.266 . S
In221 O230 2.326 . S
In221 O232 2.294 . S
In221 O233 2.326 . S
O222 In221 2.294 . S
O222 C231 1.240 . S
O223 In221 2.326 . S
O223 C231 1.252 . S
C224 O227 1.252 . S
C224 O228 1.260 . S
C225 O232 1.240 . S
C225 O233 1.252 . S
C226 O229 1.252 . S
C226 O230 1.260 . S
O227 In221 2.266 . S
O227 C224 1.252 . S
O228 In221 2.326 . S
O228 C224 1.260 . S
O229 In221 2.266 . S
O229 C226 1.252 . S
O230 In221 2.326 . S
O230 C226 1.260 . S
C231 O222 1.240 . S
C231 O223 1.252 . S
O232 In221 2.294 . S
O232 C225 1.240 . S
O233 In221 2.326 . S
O233 C225 1.252 . S
In234 O235 2.294 . S
In234 O236 2.326 . S
In234 O240 2.266 . S
In234 O241 2.326 . S
In234 O242 2.266 . S
In234 O243 2.326 . S
In234 O245 2.294 . S
In234 O246 2.326 . S
O235 In234 2.294 . S
O235 C244 1.240 . S
O236 In234 2.326 . S
O236 C244 1.252 . S
C237 O240 1.252 . S
C237 O241 1.260 . S
C238 O245 1.240 . S
C238 O246 1.252 . S
C239 O242 1.252 . S
C239 O243 1.260 . S
O240 In234 2.266 . S
O240 C237 1.252 . S
O241 In234 2.326 . S
O241 C237 1.260 . S
O242 In234 2.266 . S
O242 C239 1.252 . S
O243 In234 2.326 . S
O243 C239 1.260 . S
C244 O235 1.240 . S
C244 O236 1.252 . S
O245 In234 2.294 . S
O245 C238 1.240 . S
O246 In234 2.326 . S
O246 C238 1.252 . S
In247 O248 2.294 . S
In247 O249 2.326 . S
In247 O253 2.266 . S
In247 O254 2.326 . S
In247 O255 2.266 . S
In247 O256 2.326 . S
In247 O258 2.294 . S
In247 O259 2.326 . S
O248 In247 2.294 . S
O248 C257 1.240 . S
O249 In247 2.326 . S
O249 C257 1.252 . S
C250 O253 1.252 . S
C250 O254 1.260 . S
C251 O258 1.240 . S
C251 O259 1.252 . S
C252 O255 1.252 . S
C252 O256 1.260 . S
O253 In247 2.266 . S
O253 C250 1.252 . S
O254 In247 2.326 . S
O254 C250 1.260 . S
O255 In247 2.266 . S
O255 C252 1.252 . S
O256 In247 2.326 . S
O256 C252 1.260 . S
C257 O248 1.240 . S
C257 O249 1.252 . S
O258 In247 2.294 . S
O258 C251 1.240 . S
O259 In247 2.326 . S
O259 C251 1.252 . S
In260 O261 2.294 . S
In260 O262 2.326 . S
In260 O266 2.266 . S
In260 O267 2.326 . S
In260 O268 2.266 . S
In260 O269 2.326 . S
In260 O271 2.294 . S
In260 O272 2.326 . S
O261 In260 2.294 . S
O261 C270 1.240 . S
O262 In260 2.326 . S
O262 C270 1.252 . S
C263 O266 1.252 . S
C263 O267 1.260 . S
C264 O271 1.240 . S
C264 O272 1.252 . S
C265 O268 1.252 . S
C265 O269 1.260 . S
O266 In260 2.266 . S
O266 C263 1.252 . S
O267 In260 2.326 . S
O267 C263 1.260 . S
O268 In260 2.266 . S
O268 C265 1.252 . S
O269 In260 2.326 . S
O269 C265 1.260 . S
C270 O261 1.240 . S
C270 O262 1.252 . S
O271 In260 2.294 . S
O271 C264 1.240 . S
O272 In260 2.326 . S
O272 C264 1.252 . S
In273 O274 2.294 . S
In273 O275 2.326 . S
In273 O279 2.266 . S
In273 O280 2.326 . S
In273 O281 2.266 . S
In273 O282 2.326 . S
In273 O284 2.294 . S
In273 O285 2.326 . S
O274 In273 2.294 . S
O274 C283 1.240 . S
O275 In273 2.326 . S
O275 C283 1.252 . S
C276 O279 1.252 . S
C276 O280 1.260 . S
C277 O284 1.240 . S
C277 O285 1.252 . S
C278 O281 1.252 . S
C278 O282 1.260 . S
O279 In273 2.266 . S
O279 C276 1.252 . S
O280 In273 2.326 . S
O280 C276 1.260 . S
O281 In273 2.266 . S
O281 C278 1.252 . S
O282 In273 2.326 . S
O282 C278 1.260 . S
C283 O274 1.240 . S
C283 O275 1.252 . S
O284 In273 2.294 . S
O284 C277 1.240 . S
O285 In273 2.326 . S
O285 C277 1.252 . S
In286 O287 2.294 . S
In286 O288 2.326 . S
In286 O292 2.266 . S
In286 O293 2.326 . S
In286 O294 2.266 . S
In286 O295 2.326 . S
In286 O297 2.294 . S
In286 O298 2.326 . S
O287 In286 2.294 . S
O287 C296 1.240 . S
O288 In286 2.326 . S
O288 C296 1.252 . S
C289 O292 1.252 . S
C289 O293 1.260 . S
C290 O297 1.240 . S
C290 O298 1.252 . S
C291 O294 1.252 . S
C291 O295 1.260 . S
O292 In286 2.266 . S
O292 C289 1.252 . S
O293 In286 2.326 . S
O293 C289 1.260 . S
O294 In286 2.266 . S
O294 C291 1.252 . S
O295 In286 2.326 . S
O295 C291 1.260 . S
C296 O287 1.240 . S
C296 O288 1.252 . S
O297 In286 2.294 . S
O297 C290 1.240 . S
O298 In286 2.326 . S
O298 C290 1.252 . S
In299 O300 2.294 . S
In299 O301 2.326 . S
In299 O305 2.266 . S
In299 O306 2.326 . S
In299 O307 2.266 . S
In299 O308 2.326 . S
In299 O310 2.294 . S
In299 O311 2.326 . S
O300 In299 2.294 . S
O300 C309 1.240 . S
O301 In299 2.326 . S
O301 C309 1.252 . S
C302 O305 1.252 . S
C302 O306 1.260 . S
C303 O310 1.240 . S
C303 O311 1.252 . S
C304 O307 1.252 . S
C304 O308 1.260 . S
O305 In299 2.266 . S
O305 C302 1.252 . S
O306 In299 2.326 . S
O306 C302 1.260 . S
O307 In299 2.266 . S
O307 C304 1.252 . S
O308 In299 2.326 . S
O308 C304 1.260 . S
C309 O300 1.240 . S
C309 O301 1.252 . S
O310 In299 2.294 . S
O310 C303 1.240 . S
O311 In299 2.326 . S
O311 C303 1.252 . S
In312 O313 2.294 . S
In312 O314 2.326 . S
In312 O318 2.266 . S
In312 O319 2.326 . S
In312 O320 2.266 . S
In312 O321 2.326 . S
In312 O323 2.294 . S
In312 O324 2.326 . S
O313 In312 2.294 . S
O313 C322 1.240 . S
O314 In312 2.326 . S
O314 C322 1.252 . S
C315 O318 1.252 . S
C315 O319 1.260 . S
C316 O323 1.240 . S
C316 O324 1.252 . S
C317 O320 1.252 . S
C317 O321 1.260 . S
O318 In312 2.266 . S
O318 C315 1.252 . S
O319 In312 2.326 . S
O319 C315 1.260 . S
O320 In312 2.266 . S
O320 C317 1.252 . S
O321 In312 2.326 . S
O321 C317 1.260 . S
C322 O313 1.240 . S
C322 O314 1.252 . S
O323 In312 2.294 . S
O323 C316 1.240 . S
O324 In312 2.326 . S
O324 C316 1.252 . S
In325 O326 2.294 . S
In325 O327 2.326 . S
In325 O331 2.266 . S
In325 O332 2.326 . S
In325 O333 2.266 . S
In325 O334 2.326 . S
In325 O336 2.294 . S
In325 O337 2.326 . S
O326 In325 2.294 . S
O326 C335 1.240 . S
O327 In325 2.326 . S
O327 C335 1.252 . S
C328 O331 1.252 . S
C328 O332 1.260 . S
C329 O336 1.240 . S
C329 O337 1.252 . S
C330 O333 1.252 . S
C330 O334 1.260 . S
O331 In325 2.266 . S
O331 C328 1.252 . S
O332 In325 2.326 . S
O332 C328 1.260 . S
O333 In325 2.266 . S
O333 C330 1.252 . S
O334 In325 2.326 . S
O334 C330 1.260 . S
C335 O326 1.240 . S
C335 O327 1.252 . S
O336 In325 2.294 . S
O336 C329 1.240 . S
O337 In325 2.326 . S
O337 C329 1.252 . S
In338 O339 2.294 . S
In338 O340 2.326 . S
In338 O344 2.266 . S
In338 O345 2.326 . S
In338 O346 2.266 . S
In338 O347 2.326 . S
In338 O349 2.294 . S
In338 O350 2.326 . S
O339 In338 2.294 . S
O339 C348 1.240 . S
O340 In338 2.326 . S
O340 C348 1.252 . S
C341 O344 1.252 . S
C341 O345 1.260 . S
C342 O349 1.240 . S
C342 O350 1.252 . S
C343 O346 1.252 . S
C343 O347 1.260 . S
O344 In338 2.266 . S
O344 C341 1.252 . S
O345 In338 2.326 . S
O345 C341 1.260 . S
O346 In338 2.266 . S
O346 C343 1.252 . S
O347 In338 2.326 . S
O347 C343 1.260 . S
C348 O339 1.240 . S
C348 O340 1.252 . S
O349 In338 2.294 . S
O349 C342 1.240 . S
O350 In338 2.326 . S
O350 C342 1.252 . S
In351 O352 2.294 . S
In351 O353 2.326 . S
In351 O357 2.266 . S
In351 O358 2.326 . S
In351 O359 2.266 . S
In351 O360 2.326 . S
In351 O362 2.294 . S
In351 O363 2.326 . S
O352 In351 2.294 . S
O352 C361 1.240 . S
O353 In351 2.326 . S
O353 C361 1.252 . S
C354 O357 1.252 . S
C354 O358 1.260 . S
C355 O362 1.240 . S
C355 O363 1.252 . S
C356 O359 1.252 . S
C356 O360 1.260 . S
O357 In351 2.266 . S
O357 C354 1.252 . S
O358 In351 2.326 . S
O358 C354 1.260 . S
O359 In351 2.266 . S
O359 C356 1.252 . S
O360 In351 2.326 . S
O360 C356 1.260 . S
C361 O352 1.240 . S
C361 O353 1.252 . S
O362 In351 2.294 . S
O362 C355 1.240 . S
O363 In351 2.326 . S
O363 C355 1.252 . S
In364 O365 2.294 . S
In364 O366 2.326 . S
In364 O370 2.266 . S
In364 O371 2.326 . S
In364 O372 2.266 . S
In364 O373 2.326 . S
In364 O375 2.294 . S
In364 O376 2.326 . S
O365 In364 2.294 . S
O365 C374 1.240 . S
O366 In364 2.326 . S
O366 C374 1.252 . S
C367 O370 1.252 . S
C367 O371 1.260 . S
C368 O375 1.240 . S
C368 O376 1.252 . S
C369 O372 1.252 . S
C369 O373 1.260 . S
O370 In364 2.266 . S
O370 C367 1.252 . S
O371 In364 2.326 . S
O371 C367 1.260 . S
O372 In364 2.266 . S
O372 C369 1.252 . S
O373 In364 2.326 . S
O373 C369 1.260 . S
C374 O365 1.240 . S
C374 O366 1.252 . S
O375 In364 2.294 . S
O375 C368 1.240 . S
O376 In364 2.326 . S
O376 C368 1.252 . S
In377 O378 2.294 . S
In377 O379 2.326 . S
In377 O383 2.266 . S
In377 O384 2.326 . S
In377 O385 2.266 . S
In377 O386 2.326 . S
In377 O388 2.294 . S
In377 O389 2.326 . S
O378 In377 2.294 . S
O378 C387 1.240 . S
O379 In377 2.326 . S
O379 C387 1.252 . S
C380 O383 1.252 . S
C380 O384 1.260 . S
C381 O388 1.240 . S
C381 O389 1.252 . S
C382 O385 1.252 . S
C382 O386 1.260 . S
O383 In377 2.266 . S
O383 C380 1.252 . S
O384 In377 2.326 . S
O384 C380 1.260 . S
O385 In377 2.266 . S
O385 C382 1.252 . S
O386 In377 2.326 . S
O386 C382 1.260 . S
C387 O378 1.240 . S
C387 O379 1.252 . S
O388 In377 2.294 . S
O388 C381 1.240 . S
O389 In377 2.326 . S
O389 C381 1.252 . S
In390 O391 2.294 . S
In390 O392 2.326 . S
In390 O396 2.266 . S
In390 O397 2.326 . S
In390 O398 2.266 . S
In390 O399 2.326 . S
In390 O401 2.294 . S
In390 O402 2.326 . S
O391 In390 2.294 . S
O391 C400 1.240 . S
O392 In390 2.326 . S
O392 C400 1.252 . S
C393 O396 1.252 . S
C393 O397 1.260 . S
C394 O401 1.240 . S
C394 O402 1.252 . S
C395 O398 1.252 . S
C395 O399 1.260 . S
O396 In390 2.266 . S
O396 C393 1.252 . S
O397 In390 2.326 . S
O397 C393 1.260 . S
O398 In390 2.266 . S
O398 C395 1.252 . S
O399 In390 2.326 . S
O399 C395 1.260 . S
C400 O391 1.240 . S
C400 O392 1.252 . S
O401 In390 2.294 . S
O401 C394 1.240 . S
O402 In390 2.326 . S
O402 C394 1.252 . S
In403 O404 2.294 . S
In403 O405 2.326 . S
In403 O409 2.266 . S
In403 O410 2.326 . S
In403 O411 2.266 . S
In403 O412 2.326 . S
In403 O414 2.294 . S
In403 O415 2.326 . S
O404 In403 2.294 . S
O404 C413 1.240 . S
O405 In403 2.326 . S
O405 C413 1.252 . S
C406 O409 1.252 . S
C406 O410 1.260 . S
C407 O414 1.240 . S
C407 O415 1.252 . S
C408 O411 1.252 . S
C408 O412 1.260 . S
O409 In403 2.266 . S
O409 C406 1.252 . S
O410 In403 2.326 . S
O410 C406 1.260 . S
O411 In403 2.266 . S
O411 C408 1.252 . S
O412 In403 2.326 . S
O412 C408 1.260 . S
C413 O404 1.240 . S
C413 O405 1.252 . S
O414 In403 2.294 . S
O414 C407 1.240 . S
O415 In403 2.326 . S
O415 C407 1.252 . S
C416 C417 1.391 . S
C416 C418 1.394 . S
C416 H432 0.931 . S
C417 C416 1.391 . S
C417 C421 1.376 . S
C418 C416 1.394 . S
C418 C419 1.369 . S
C418 C422 1.531 . S
C419 C418 1.369 . S
C419 C420 1.410 . S
C419 C427 1.503 . S
C420 C419 1.410 . S
C420 C421 1.392 . S
C420 C423 1.511 . S
C421 C417 1.376 . S
C421 C420 1.392 . S
C421 H433 0.929 . S
C422 C418 1.531 . S
C422 H434 0.960 . S
C422 H435 0.962 . S
C422 H436 0.960 . S
C423 C420 1.511 . S
C423 H437 0.961 . S
C423 H438 0.961 . S
C423 H439 0.961 . S
C424 C425 1.370 . S
C424 C426 1.363 . S
C424 H440 0.931 . S
C425 C424 1.370 . S
C425 C429 1.408 . S
C426 C424 1.363 . S
C426 C427 1.370 . S
C426 C430 1.524 . S
C427 C419 1.503 . S
C427 C426 1.370 . S
C427 C428 1.403 . S
C428 C427 1.403 . S
C428 C429 1.404 . S
C428 C431 1.539 . S
C429 C425 1.408 . S
C429 C428 1.404 . S
C429 H441 0.930 . S
C430 C426 1.524 . S
C430 H442 0.956 . S
C430 H443 0.961 . S
C430 H444 0.961 . S
C431 C428 1.539 . S
C431 H445 0.958 . S
C431 H446 0.961 . S
C431 H447 0.960 . S
H432 C416 0.931 . S
H433 C421 0.929 . S
H434 C422 0.960 . S
H435 C422 0.962 . S
H436 C422 0.960 . S
H437 C423 0.961 . S
H438 C423 0.961 . S
H439 C423 0.961 . S
H440 C424 0.931 . S
H441 C429 0.930 . S
H442 C430 0.956 . S
H443 C430 0.961 . S
H444 C430 0.961 . S
H445 C431 0.958 . S
H446 C431 0.961 . S
H447 C431 0.960 . S
C448 C449 1.391 . S
C448 C450 1.394 . S
C448 H464 0.931 . S
C449 C448 1.391 . S
C449 C453 1.376 . S
C450 C448 1.394 . S
C450 C451 1.369 . S
C450 C454 1.583 . S
C451 C450 1.369 . S
C451 C452 1.410 . S
C451 C459 1.503 1_565 S
C452 C451 1.410 . S
C452 C453 1.392 . S
C452 C455 1.511 . S
C453 C449 1.376 . S
C453 C452 1.392 . S
C453 H465 0.929 . S
C454 C450 1.583 . S
C454 H466 0.885 1_565 S
C454 H467 0.967 . S
C454 H468 0.986 . S
C455 C452 1.511 . S
C455 H469 0.961 . S
C455 H470 0.961 . S
C455 H471 0.961 . S
C456 C457 1.370 . S
C456 C458 1.363 . S
C456 H472 0.931 . S
C457 C456 1.370 . S
C457 C461 1.408 . S
C458 C456 1.363 . S
C458 C459 1.370 . S
C458 C462 1.524 1_545 S
C459 C451 1.503 1_545 S
C459 C458 1.370 . S
C459 C460 1.403 . S
C460 C459 1.403 . S
C460 C461 1.404 . S
C460 C463 1.539 . S
C461 C457 1.408 . S
C461 C460 1.404 . S
C461 H473 0.930 . S
C462 C458 1.524 1_565 S
C462 H474 0.956 . S
C462 H475 0.961 . S
C462 H476 0.961 1_565 S
C463 C460 1.539 . S
C463 H477 0.958 . S
C463 H478 0.961 . S
C463 H479 0.960 . S
H464 C448 0.931 . S
H465 C453 0.929 . S
H466 C454 0.885 1_545 S
H467 C454 0.967 . S
H468 C454 0.986 . S
H469 C455 0.961 . S
H470 C455 0.961 . S
H471 C455 0.961 . S
H472 C456 0.931 . S
H473 C461 0.930 . S
H474 C462 0.956 . S
H475 C462 0.961 . S
H476 C462 0.961 1_545 S
H477 C463 0.958 . S
H478 C463 0.961 . S
H479 C463 0.960 . S
C480 C481 1.391 . S
C480 C482 1.394 . S
C480 H496 0.931 . S
C481 C480 1.391 . S
C481 C485 1.376 . S
C482 C480 1.394 . S
C482 C483 1.369 . S
C482 C486 1.531 . S
C483 C482 1.369 . S
C483 C484 1.410 . S
C483 C491 1.503 . S
C484 C483 1.410 . S
C484 C485 1.392 . S
C484 C487 1.511 . S
C485 C481 1.376 . S
C485 C484 1.392 . S
C485 H497 0.929 . S
C486 C482 1.531 . S
C486 H498 0.960 . S
C486 H499 0.962 . S
C486 H500 0.960 . S
C487 C484 1.511 . S
C487 H501 0.961 . S
C487 H502 0.961 . S
C487 H503 0.961 . S
C488 C489 1.370 . S
C488 C490 1.363 . S
C488 H504 0.931 . S
C489 C488 1.370 . S
C489 C493 1.408 . S
C490 C488 1.363 . S
C490 C491 1.370 . S
C490 C494 1.524 . S
C491 C483 1.503 . S
C491 C490 1.370 . S
C491 C492 1.403 . S
C492 C491 1.403 . S
C492 C493 1.404 . S
C492 C495 1.539 . S
C493 C489 1.408 . S
C493 C492 1.404 . S
C493 H505 0.930 . S
C494 C490 1.524 . S
C494 H506 0.956 . S
C494 H507 0.961 . S
C494 H508 0.961 . S
C495 C492 1.539 . S
C495 H509 0.958 . S
C495 H510 0.961 . S
C495 H511 0.960 . S
H496 C480 0.931 . S
H497 C485 0.929 . S
H498 C486 0.960 . S
H499 C486 0.962 . S
H500 C486 0.960 . S
H501 C487 0.961 . S
H502 C487 0.961 . S
H503 C487 0.961 . S
H504 C488 0.931 . S
H505 C493 0.930 . S
H506 C494 0.956 . S
H507 C494 0.961 . S
H508 C494 0.961 . S
H509 C495 0.958 . S
H510 C495 0.961 . S
H511 C495 0.960 . S
C512 C513 1.391 1_554 S
C512 C514 1.394 . S
C512 H528 0.931 . S
C513 C512 1.391 1_556 S
C513 C517 1.376 . S
C514 C512 1.394 . S
C514 C515 1.369 1_554 S
C514 C518 1.531 . S
C515 C514 1.369 1_556 S
C515 C516 1.410 . S
C515 C523 1.503 1_546 S
C516 C515 1.410 . S
C516 C517 1.392 . S
C516 C519 1.511 1_545 S
C517 C513 1.376 . S
C517 C516 1.392 . S
C517 H529 0.929 . S
C518 C514 1.531 . S
C518 H530 0.960 . S
C518 H531 0.962 . S
C518 H532 0.960 . S
C519 C516 1.511 1_565 S
C519 H533 0.951 1_565 S
C519 H534 0.961 . S
C519 H535 0.961 . S
C520 C521 1.370 . S
C520 C522 1.363 . S
C520 H536 0.931 . S
C521 C520 1.370 . S
C521 C525 1.408 . S
C522 C520 1.363 . S
C522 C523 1.370 . S
C522 C526 1.524 . S
C523 C515 1.503 1_564 S
C523 C522 1.370 . S
C523 C524 1.403 . S
C524 C523 1.403 . S
C524 C525 1.404 . S
C524 C527 1.539 1_554 S
C525 C521 1.408 . S
C525 C524 1.404 . S
C525 H537 0.930 . S
C526 C522 1.524 . S
C526 H538 0.956 1_565 S
C526 H539 0.958 1_554 S
C526 H540 0.961 . S
C527 C524 1.539 1_556 S
C527 H541 0.958 1_556 S
C527 H542 0.961 . S
C527 H543 0.960 . S
H528 C512 0.931 . S
H529 C517 0.929 . S
H530 C518 0.960 . S
H531 C518 0.962 . S
H532 C518 0.960 . S
H533 C519 0.951 1_545 S
H534 C519 0.961 . S
H535 C519 0.961 . S
H536 C520 0.931 . S
H537 C525 0.930 . S
H538 C526 0.956 1_545 S
H539 C526 0.958 1_556 S
H540 C526 0.961 . S
H541 C527 0.958 1_554 S
H542 C527 0.961 . S
H543 C527 0.960 . S
C544 C545 1.391 . S
C544 C546 1.394 . S
C544 H560 0.931 . S
C545 C544 1.391 . S
C545 C549 1.376 . S
C546 C544 1.394 . S
C546 C547 1.369 . S
C546 C550 1.531 . S
C547 C546 1.369 . S
C547 C548 1.410 . S
C547 C555 1.503 . S
C548 C547 1.410 . S
C548 C549 1.392 . S
C548 C551 1.511 . S
C549 C545 1.376 . S
C549 C548 1.392 . S
C549 H561 0.929 . S
C550 C546 1.531 . S
C550 H562 0.960 . S
C550 H563 0.962 . S
C550 H564 0.960 . S
C551 C548 1.511 . S
C551 H565 0.961 . S
C551 H566 0.961 . S
C551 H567 0.961 . S
C552 C553 1.370 . S
C552 C554 1.363 . S
C552 H568 0.931 . S
C553 C552 1.370 . S
C553 C557 1.408 . S
C554 C552 1.363 . S
C554 C555 1.370 . S
C554 C558 1.524 . S
C555 C547 1.503 . S
C555 C554 1.370 . S
C555 C556 1.403 . S
C556 C555 1.403 . S
C556 C557 1.404 . S
C556 C559 1.539 . S
C557 C553 1.408 . S
C557 C556 1.404 . S
C557 H569 0.930 . S
C558 C554 1.524 . S
C558 H570 0.956 . S
C558 H571 0.961 . S
C558 H572 0.961 . S
C559 C556 1.539 . S
C559 H573 0.958 . S
C559 H574 0.961 . S
C559 H575 0.960 . S
H560 C544 0.931 . S
H561 C549 0.929 . S
H562 C550 0.960 . S
H563 C550 0.962 . S
H564 C550 0.960 . S
H565 C551 0.961 . S
H566 C551 0.961 . S
H567 C551 0.961 . S
H568 C552 0.931 . S
H569 C557 0.930 . S
H570 C558 0.956 . S
H571 C558 0.961 . S
H572 C558 0.961 . S
H573 C559 0.958 . S
H574 C559 0.961 . S
H575 C559 0.960 . S
C576 C577 1.391 . S
C576 C578 1.394 . S
C576 H592 0.931 . S
C577 C576 1.391 . S
C577 C581 1.376 . S
C578 C576 1.394 . S
C578 C579 1.369 . S
C578 C582 1.531 . S
C579 C578 1.369 . S
C579 C580 1.410 . S
C579 C587 1.503 1_565 S
C580 C579 1.410 . S
C580 C581 1.392 . S
C580 C583 1.511 . S
C581 C577 1.376 . S
C581 C580 1.392 . S
C581 H593 0.929 . S
C582 C578 1.531 . S
C582 H594 0.960 . S
C582 H595 0.962 . S
C582 H596 0.960 . S
C583 C580 1.511 . S
C583 H597 0.961 . S
C583 H598 0.961 1_565 S
C583 H599 0.961 . S
C584 C585 1.370 . S
C584 C586 1.363 . S
C584 H600 0.931 . S
C585 C584 1.370 . S
C585 C589 1.408 . S
C586 C584 1.363 . S
C586 C587 1.370 . S
C586 C590 1.524 . S
C587 C579 1.503 1_545 S
C587 C586 1.370 . S
C587 C588 1.403 . S
C588 C587 1.403 . S
C588 C589 1.404 . S
C588 C591 1.539 1_545 S
C589 C585 1.408 . S
C589 C588 1.404 . S
C589 H601 0.930 . S
C590 C586 1.524 . S
C590 H602 0.956 . S
C590 H603 0.961 . S
C590 H604 0.961 . S
C591 C588 1.539 1_565 S
C591 H605 0.958 . S
C591 H606 0.961 1_565 S
C591 H607 0.960 . S
H592 C576 0.931 . S
H593 C581 0.929 . S
H594 C582 0.960 . S
H595 C582 0.962 . S
H596 C582 0.960 . S
H597 C583 0.961 . S
H598 C583 0.961 1_545 S
H599 C583 0.961 . S
H600 C584 0.931 . S
H601 C589 0.930 . S
H602 C590 0.956 . S
H603 C590 0.961 . S
H604 C590 0.961 . S
H605 C591 0.958 . S
H606 C591 0.961 1_545 S
H607 C591 0.960 . S
C608 C609 1.391 . S
C608 C610 1.394 . S
C608 H624 0.931 . S
C609 C608 1.391 . S
C609 C613 1.376 . S
C610 C608 1.394 . S
C610 C611 1.369 . S
C610 C614 1.531 . S
C611 C610 1.369 . S
C611 C612 1.410 . S
C611 C619 1.503 . S
C612 C611 1.410 . S
C612 C613 1.392 . S
C612 C615 1.511 . S
C613 C609 1.376 . S
C613 C612 1.392 . S
C613 H625 0.929 . S
C614 C610 1.531 . S
C614 H626 0.960 . S
C614 H627 0.962 . S
C614 H628 0.960 . S
C615 C612 1.511 . S
C615 H629 0.961 . S
C615 H630 0.961 . S
C615 H631 0.961 . S
C616 C617 1.370 . S
C616 C618 1.363 . S
C616 H632 0.931 . S
C617 C616 1.370 . S
C617 C621 1.408 . S
C618 C616 1.363 . S
C618 C619 1.370 . S
C618 C622 1.524 . S
C619 C611 1.503 . S
C619 C618 1.370 . S
C619 C620 1.403 . S
C620 C619 1.403 . S
C620 C621 1.404 . S
C620 C623 1.539 . S
C621 C617 1.408 . S
C621 C620 1.404 . S
C621 H633 0.930 . S
C622 C618 1.524 . S
C622 H634 0.956 . S
C622 H635 0.961 . S
C622 H636 0.961 . S
C623 C620 1.539 . S
C623 H637 0.958 . S
C623 H638 0.961 . S
C623 H639 0.960 . S
H624 C608 0.931 . S
H625 C613 0.929 . S
H626 C614 0.960 . S
H627 C614 0.962 . S
H628 C614 0.960 . S
H629 C615 0.961 . S
H630 C615 0.961 . S
H631 C615 0.961 . S
H632 C616 0.931 . S
H633 C621 0.930 . S
H634 C622 0.956 . S
H635 C622 0.961 . S
H636 C622 0.961 . S
H637 C623 0.958 . S
H638 C623 0.961 . S
H639 C623 0.960 . S
C640 C641 1.391 . S
C640 C642 1.394 . S
C640 H656 0.931 . S
C641 C640 1.391 . S
C641 C645 1.376 1_556 S
C642 C640 1.394 . S
C642 C643 1.369 . S
C642 C646 1.531 1_545 S
C643 C642 1.369 . S
C643 C644 1.410 1_556 S
C643 C651 1.503 1_546 S
C644 C643 1.410 1_554 S
C644 C645 1.392 . S
C644 C647 1.511 . S
C645 C641 1.376 1_554 S
C645 C644 1.392 . S
C645 H657 0.929 . S
C646 C642 1.531 1_565 S
C646 H658 0.960 . S
C646 H659 0.962 . S
C646 H660 0.960 1_565 S
C647 C644 1.511 . S
C647 H661 0.961 . S
C647 H662 0.961 . S
C647 H663 0.961 . S
C648 C649 1.370 . S
C648 C650 1.363 . S
C648 H664 0.931 . S
C649 C648 1.370 . S
C649 C653 1.408 . S
C650 C648 1.363 . S
C650 C651 1.370 . S
C650 C654 1.524 1_554 S
C651 C643 1.503 1_564 S
C651 C650 1.370 . S
C651 C652 1.403 . S
C652 C651 1.403 . S
C652 C653 1.404 . S
C652 C655 1.539 . S
C653 C649 1.408 . S
C653 C652 1.404 . S
C653 H665 0.930 . S
C654 C650 1.524 1_556 S
C654 H666 0.956 . S
C654 H667 0.961 1_566 S
C654 H668 0.961 . S
C655 C652 1.539 . S
C655 H669 0.958 . S
C655 H670 0.961 . S
C655 H671 0.960 1_565 S
H656 C640 0.931 . S
H657 C645 0.929 . S
H658 C646 0.960 . S
H659 C646 0.962 . S
H660 C646 0.960 1_545 S
H661 C647 0.961 . S
H662 C647 0.961 . S
H663 C647 0.961 . S
H664 C648 0.931 . S
H665 C653 0.930 . S
H666 C654 0.956 . S
H667 C654 0.961 1_544 S
H668 C654 0.961 . S
H669 C655 0.958 . S
H670 C655 0.961 . S
H671 C655 0.960 1_545 S
C672 C673 1.391 . S
C672 C674 1.394 . S
C672 H688 0.931 . S
C673 C672 1.391 . S
C673 C677 1.376 . S
C674 C672 1.394 . S
C674 C675 1.369 . S
C674 C678 1.531 . S
C675 C674 1.369 . S
C675 C676 1.410 . S
C675 C683 1.503 . S
C676 C675 1.410 . S
C676 C677 1.392 . S
C676 C679 1.511 . S
C677 C673 1.376 . S
C677 C676 1.392 . S
C677 H689 0.929 . S
C678 C674 1.531 . S
C678 H690 0.960 . S
C678 H691 0.962 . S
C678 H692 0.960 . S
C679 C676 1.511 . S
C679 H693 0.961 . S
C679 H694 0.961 . S
C679 H695 0.961 . S
C680 C681 1.370 . S
C680 C682 1.363 . S
C680 H696 0.931 . S
C681 C680 1.370 . S
C681 C685 1.408 . S
C682 C680 1.363 . S
C682 C683 1.370 . S
C682 C686 1.524 . S
C683 C675 1.503 . S
C683 C682 1.370 . S
C683 C684 1.403 . S
C684 C683 1.403 . S
C684 C685 1.404 . S
C684 C687 1.539 . S
C685 C681 1.408 . S
C685 C684 1.404 . S
C685 H697 0.930 . S
C686 C682 1.524 . S
C686 H698 0.956 . S
C686 H699 0.961 . S
C686 H700 0.961 . S
C687 C684 1.539 . S
C687 H701 0.958 . S
C687 H702 0.961 . S
C687 H703 0.960 . S
H688 C672 0.931 . S
H689 C677 0.929 . S
H690 C678 0.960 . S
H691 C678 0.962 . S
H692 C678 0.960 . S
H693 C679 0.961 . S
H694 C679 0.961 . S
H695 C679 0.961 . S
H696 C680 0.931 . S
H697 C685 0.930 . S
H698 C686 0.956 . S
H699 C686 0.961 . S
H700 C686 0.961 . S
H701 C687 0.958 . S
H702 C687 0.961 . S
H703 C687 0.960 . S
C704 C705 1.391 . S
C704 C706 1.394 . S
C704 H720 0.931 . S
C705 C704 1.391 . S
C705 C709 1.376 1_556 S
C706 C704 1.394 . S
C706 C707 1.369 . S
C706 C710 1.531 . S
C707 C706 1.369 . S
C707 C708 1.410 1_556 S
C707 C715 1.503 1_556 S
C708 C707 1.410 1_554 S
C708 C709 1.392 . S
C708 C711 1.511 . S
C709 C705 1.376 1_554 S
C709 C708 1.392 . S
C709 H721 0.929 . S
C710 C706 1.531 . S
C710 H722 0.960 . S
C710 H723 0.962 . S
C710 H724 0.960 . S
C711 C708 1.511 . S
C711 H725 0.961 . S
C711 H726 0.961 . S
C711 H727 0.961 . S
C712 C713 1.370 . S
C712 C714 1.363 . S
C712 H728 0.931 . S
C713 C712 1.370 . S
C713 C717 1.408 . S
C714 C712 1.363 . S
C714 C715 1.370 . S
C714 C718 1.524 1_554 S
C715 C707 1.503 1_554 S
C715 C714 1.370 . S
C715 C716 1.403 . S
C716 C715 1.403 . S
C716 C717 1.404 . S
C716 C719 1.539 . S
C717 C713 1.408 . S
C717 C716 1.404 . S
C717 H729 0.930 . S
C718 C714 1.524 1_556 S
C718 H730 0.956 . S
C718 H731 0.961 . S
C718 H732 0.961 . S
C719 C716 1.539 . S
C719 H733 0.958 . S
C719 H734 0.961 . S
C719 H735 0.960 . S
H720 C704 0.931 . S
H721 C709 0.929 . S
H722 C710 0.960 . S
H723 C710 0.962 . S
H724 C710 0.960 . S
H725 C711 0.961 . S
H726 C711 0.961 . S
H727 C711 0.961 . S
H728 C712 0.931 . S
H729 C717 0.930 . S
H730 C718 0.956 . S
H731 C718 0.961 . S
H732 C718 0.961 . S
H733 C719 0.958 . S
H734 C719 0.961 . S
H735 C719 0.960 . S
C736 C737 1.391 . S
C736 C738 1.394 . S
C736 H752 0.931 . S
C737 C736 1.391 . S
C737 C741 1.376 . S
C738 C736 1.394 . S
C738 C739 1.369 . S
C738 C742 1.531 . S
C739 C738 1.369 . S
C739 C740 1.410 . S
C739 C747 1.503 . S
C740 C739 1.410 . S
C740 C741 1.392 . S
C740 C743 1.511 . S
C741 C737 1.376 . S
C741 C740 1.392 . S
C741 H753 0.929 . S
C742 C738 1.531 . S
C742 H754 0.960 . S
C742 H755 0.962 . S
C742 H756 0.960 . S
C743 C740 1.511 . S
C743 H757 0.961 . S
C743 H758 0.961 . S
C743 H759 0.961 . S
C744 C745 1.370 . S
C744 C746 1.363 . S
C744 H760 0.931 . S
C745 C744 1.370 . S
C745 C749 1.408 . S
C746 C744 1.363 . S
C746 C747 1.370 . S
C746 C750 1.524 . S
C747 C739 1.503 . S
C747 C746 1.370 . S
C747 C748 1.403 . S
C748 C747 1.403 . S
C748 C749 1.404 . S
C748 C751 1.539 . S
C749 C745 1.408 . S
C749 C748 1.404 . S
C749 H761 0.930 . S
C750 C746 1.524 . S
C750 H762 0.956 . S
C750 H763 0.961 . S
C750 H764 0.961 . S
C751 C748 1.539 . S
C751 H765 0.958 . S
C751 H766 0.961 . S
C751 H767 0.960 . S
H752 C736 0.931 . S
H753 C741 0.929 . S
H754 C742 0.960 . S
H755 C742 0.962 . S
H756 C742 0.960 . S
H757 C743 0.961 . S
H758 C743 0.961 . S
H759 C743 0.961 . S
H760 C744 0.931 . S
H761 C749 0.930 . S
H762 C750 0.956 . S
H763 C750 0.961 . S
H764 C750 0.961 . S
H765 C751 0.958 . S
H766 C751 0.961 . S
H767 C751 0.960 . S
C768 C769 1.391 . S
C768 C770 1.394 . S
C768 H784 0.931 . S
C769 C768 1.391 . S
C769 C773 1.376 . S
C770 C768 1.394 . S
C770 C771 1.369 . S
C770 C774 1.531 . S
C771 C770 1.369 . S
C771 C772 1.410 . S
C771 C779 1.503 . S
C772 C771 1.410 . S
C772 C773 1.392 . S
C772 C775 1.511 . S
C773 C769 1.376 . S
C773 C772 1.392 . S
C773 H785 0.929 . S
C774 C770 1.531 . S
C774 H786 0.960 . S
C774 H787 0.962 . S
C774 H788 0.960 . S
C775 C772 1.511 . S
C775 H789 0.961 . S
C775 H790 0.961 . S
C775 H791 0.961 . S
C776 C777 1.370 . S
C776 C778 1.363 . S
C776 H792 0.931 . S
C777 C776 1.370 . S
C777 C781 1.408 . S
C778 C776 1.363 . S
C778 C779 1.370 . S
C778 C782 1.524 . S
C779 C771 1.503 . S
C779 C778 1.370 . S
C779 C780 1.403 . S
C780 C779 1.403 . S
C780 C781 1.404 . S
C780 C783 1.539 . S
C781 C777 1.408 . S
C781 C780 1.404 . S
C781 H793 0.930 . S
C782 C778 1.524 . S
C782 H794 0.956 . S
C782 H795 0.961 . S
C782 H796 0.961 . S
C783 C780 1.539 . S
C783 H797 0.958 . S
C783 H798 0.961 . S
C783 H799 0.960 . S
H784 C768 0.931 . S
H785 C773 0.929 . S
H786 C774 0.960 . S
H787 C774 0.962 . S
H788 C774 0.960 . S
H789 C775 0.961 . S
H790 C775 0.961 . S
H791 C775 0.961 . S
H792 C776 0.931 . S
H793 C781 0.930 . S
H794 C782 0.956 . S
H795 C782 0.961 . S
H796 C782 0.961 . S
H797 C783 0.958 . S
H798 C783 0.961 . S
H799 C783 0.960 . S
C800 C801 1.391 . S
C800 C802 1.394 . S
C800 H816 0.931 . S
C801 C800 1.391 . S
C801 C805 1.376 . S
C802 C800 1.394 . S
C802 C803 1.369 . S
C802 C806 1.531 . S
C803 C802 1.369 . S
C803 C804 1.410 . S
C803 C811 1.503 . S
C804 C803 1.410 . S
C804 C805 1.392 . S
C804 C807 1.511 . S
C805 C801 1.376 . S
C805 C804 1.392 . S
C805 H817 0.929 . S
C806 C802 1.531 . S
C806 H818 0.960 . S
C806 H819 0.962 . S
C806 H820 0.960 . S
C807 C804 1.511 . S
C807 H821 0.961 . S
C807 H822 0.961 . S
C807 H823 0.961 . S
C808 C809 1.370 . S
C808 C810 1.363 . S
C808 H824 0.931 . S
C809 C808 1.370 . S
C809 C813 1.408 . S
C810 C808 1.363 . S
C810 C811 1.370 . S
C810 C814 1.524 . S
C811 C803 1.503 . S
C811 C810 1.370 . S
C811 C812 1.403 . S
C812 C811 1.403 . S
C812 C813 1.404 . S
C812 C815 1.539 . S
C813 C809 1.408 . S
C813 C812 1.404 . S
C813 H825 0.930 . S
C814 C810 1.524 . S
C814 H826 0.956 . S
C814 H827 0.961 . S
C814 H828 0.961 . S
C815 C812 1.539 . S
C815 H829 0.958 . S
C815 H830 0.961 . S
C815 H831 0.960 . S
H816 C800 0.931 . S
H817 C805 0.929 . S
H818 C806 0.960 . S
H819 C806 0.962 . S
H820 C806 0.960 . S
H821 C807 0.961 . S
H822 C807 0.961 . S
H823 C807 0.961 . S
H824 C808 0.931 . S
H825 C813 0.930 . S
H826 C814 0.956 . S
H827 C814 0.961 . S
H828 C814 0.961 . S
H829 C815 0.958 . S
H830 C815 0.961 . S
H831 C815 0.960 . S
C832 C833 1.391 . S
C832 C834 1.394 . S
C832 H848 0.931 . S
C833 C832 1.391 . S
C833 C837 1.376 . S
C834 C832 1.394 . S
C834 C835 1.369 . S
C834 C838 1.531 . S
C835 C834 1.369 . S
C835 C836 1.410 . S
C835 C843 1.503 1_554 S
C836 C835 1.410 . S
C836 C837 1.392 . S
C836 C839 1.511 . S
C837 C833 1.376 . S
C837 C836 1.392 . S
C837 H849 0.929 . S
C838 C834 1.531 . S
C838 H850 0.960 . S
C838 H851 0.962 1_554 S
C838 H852 0.960 . S
C839 C836 1.511 . S
C839 H853 0.961 . S
C839 H854 0.961 . S
C839 H855 0.961 . S
C840 C841 1.370 . S
C840 C842 1.363 . S
C840 H856 0.931 . S
C841 C840 1.370 . S
C841 C845 1.408 1_556 S
C842 C840 1.363 . S
C842 C843 1.370 . S
C842 C846 1.524 . S
C843 C835 1.503 1_556 S
C843 C842 1.370 . S
C843 C844 1.403 1_556 S
C844 C843 1.403 1_554 S
C844 C845 1.404 . S
C844 C847 1.539 . S
C845 C841 1.408 1_554 S
C845 C844 1.404 . S
C845 H857 0.930 . S
C846 C842 1.524 . S
C846 H858 0.956 . S
C846 H859 0.961 . S
C846 H860 0.961 . S
C847 C844 1.539 . S
C847 H861 0.958 . S
C847 H862 0.961 . S
C847 H863 0.960 . S
H848 C832 0.931 . S
H849 C837 0.929 . S
H850 C838 0.960 . S
H851 C838 0.962 1_556 S
H852 C838 0.960 . S
H853 C839 0.961 . S
H854 C839 0.961 . S
H855 C839 0.961 . S
H856 C840 0.931 . S
H857 C845 0.930 . S
H858 C846 0.956 . S
H859 C846 0.961 . S
H860 C846 0.961 . S
H861 C847 0.958 . S
H862 C847 0.961 . S
H863 C847 0.960 . S
C864 C865 1.391 . S
C864 C866 1.394 . S
C864 H880 0.931 . S
C865 C864 1.391 . S
C865 C869 1.376 . S
C866 C864 1.394 . S
C866 C867 1.369 . S
C866 C870 1.531 . S
C867 C866 1.369 . S
C867 C868 1.410 . S
C867 C875 1.503 . S
C868 C867 1.410 . S
C868 C869 1.392 . S
C868 C871 1.511 . S
C869 C865 1.376 . S
C869 C868 1.392 . S
C869 H881 0.929 . S
C870 C866 1.531 . S
C870 H882 0.960 . S
C870 H883 0.962 . S
C870 H884 0.960 . S
C871 C868 1.511 . S
C871 H885 0.961 . S
C871 H886 0.961 . S
C871 H887 0.961 . S
C872 C873 1.370 . S
C872 C874 1.363 . S
C872 H888 0.931 . S
C873 C872 1.370 . S
C873 C877 1.408 . S
C874 C872 1.363 . S
C874 C875 1.370 . S
C874 C878 1.524 . S
C875 C867 1.503 . S
C875 C874 1.370 . S
C875 C876 1.403 . S
C876 C875 1.403 . S
C876 C877 1.404 . S
C876 C879 1.539 . S
C877 C873 1.408 . S
C877 C876 1.404 . S
C877 H889 0.930 . S
C878 C874 1.524 . S
C878 H890 0.956 . S
C878 H891 0.961 . S
C878 H892 0.961 . S
C879 C876 1.539 . S
C879 H893 0.958 . S
C879 H894 0.961 . S
C879 H895 0.960 . S
H880 C864 0.931 . S
H881 C869 0.929 . S
H882 C870 0.960 . S
H883 C870 0.962 . S
H884 C870 0.960 . S
H885 C871 0.961 . S
H886 C871 0.961 . S
H887 C871 0.961 . S
H888 C872 0.931 . S
H889 C877 0.930 . S
H890 C878 0.956 . S
H891 C878 0.961 . S
H892 C878 0.961 . S
H893 C879 0.958 . S
H894 C879 0.961 . S
H895 C879 0.960 . S
C896 C897 1.391 . S
C896 C898 1.394 . S
C896 H912 0.931 . S
C897 C896 1.391 . S
C897 C901 1.376 . S
C898 C896 1.394 . S
C898 C899 1.369 . S
C898 C902 1.531 . S
C899 C898 1.369 . S
C899 C900 1.410 . S
C899 C907 1.503 . S
C900 C899 1.410 . S
C900 C901 1.392 . S
C900 C903 1.511 . S
C901 C897 1.376 . S
C901 C900 1.392 . S
C901 H913 0.929 . S
C902 C898 1.531 . S
C902 H914 0.960 . S
C902 H915 0.962 . S
C902 H916 0.960 . S
C903 C900 1.511 . S
C903 H917 0.961 . S
C903 H918 0.961 . S
C903 H919 0.961 . S
C904 C905 1.370 . S
C904 C906 1.363 . S
C904 H920 0.931 . S
C905 C904 1.370 . S
C905 C909 1.408 . S
C906 C904 1.363 . S
C906 C907 1.370 . S
C906 C910 1.524 . S
C907 C899 1.503 . S
C907 C906 1.370 . S
C907 C908 1.403 . S
C908 C907 1.403 . S
C908 C909 1.404 . S
C908 C911 1.539 . S
C909 C905 1.408 . S
C909 C908 1.404 . S
C909 H921 0.930 . S
C910 C906 1.524 . S
C910 H922 0.956 . S
C910 H923 0.961 . S
C910 H924 0.961 . S
C911 C908 1.539 . S
C911 H925 0.958 . S
C911 H926 0.961 . S
C911 H927 0.960 . S
H912 C896 0.931 . S
H913 C901 0.929 . S
H914 C902 0.960 . S
H915 C902 0.962 . S
H916 C902 0.960 . S
H917 C903 0.961 . S
H918 C903 0.961 . S
H919 C903 0.961 . S
H920 C904 0.931 . S
H921 C909 0.930 . S
H922 C910 0.956 . S
H923 C910 0.961 . S
H924 C910 0.961 . S
H925 C911 0.958 . S
H926 C911 0.961 . S
H927 C911 0.960 . S
C928 C929 1.391 . S
C928 C930 1.394 . S
C928 H944 0.931 . S
C929 C928 1.391 . S
C929 C933 1.376 1_556 S
C930 C928 1.394 . S
C930 C931 1.369 . S
C930 C934 1.531 . S
C931 C930 1.369 . S
C931 C932 1.410 . S
C931 C939 1.503 . S
C932 C931 1.410 . S
C932 C933 1.392 1_556 S
C932 C935 1.511 . S
C933 C929 1.376 1_554 S
C933 C932 1.392 1_554 S
C933 H945 0.929 . S
C934 C930 1.531 . S
C934 H946 0.960 . S
C934 H947 0.962 . S
C934 H948 0.960 . S
C935 C932 1.511 . S
C935 H949 0.961 1_556 S
C935 H950 0.961 . S
C935 H951 0.961 . S
C936 C937 1.370 . S
C936 C938 1.363 . S
C936 H952 0.931 . S
C937 C936 1.370 . S
C937 C941 1.408 . S
C938 C936 1.363 . S
C938 C939 1.370 . S
C938 C942 1.524 . S
C939 C931 1.503 . S
C939 C938 1.370 . S
C939 C940 1.403 . S
C940 C939 1.403 . S
C940 C941 1.404 . S
C940 C943 1.539 . S
C941 C937 1.408 . S
C941 C940 1.404 . S
C941 H953 0.930 . S
C942 C938 1.524 . S
C942 H954 0.956 . S
C942 H955 0.961 . S
C942 H956 0.961 . S
C943 C940 1.539 . S
C943 H957 0.958 . S
C943 H958 0.961 . S
C943 H959 0.960 . S
H944 C928 0.931 . S
H945 C933 0.929 . S
H946 C934 0.960 . S
H947 C934 0.962 . S
H948 C934 0.960 . S
H949 C935 0.961 1_554 S
H950 C935 0.961 . S
H951 C935 0.961 . S
H952 C936 0.931 . S
H953 C941 0.930 . S
H954 C942 0.956 . S
H955 C942 0.961 . S
H956 C942 0.961 . S
H957 C943 0.958 . S
H958 C943 0.961 . S
H959 C943 0.960 . S
C960 C961 1.391 . S
C960 C962 1.394 . S
C960 H976 0.931 . S
C961 C960 1.391 . S
C961 C965 1.376 1_554 S
C962 C960 1.394 . S
C962 C963 1.369 . S
C962 C966 1.531 . S
C963 C962 1.369 . S
C963 C964 1.410 . S
C963 C971 1.503 . S
C964 C963 1.410 . S
C964 C965 1.392 1_554 S
C964 C967 1.511 . S
C965 C961 1.376 1_556 S
C965 C964 1.392 1_556 S
C965 H977 0.929 . S
C966 C962 1.531 . S
C966 H978 0.960 . S
C966 H979 0.962 . S
C966 H980 0.960 . S
C967 C964 1.511 . S
C967 H981 0.961 1_554 S
C967 H982 0.961 . S
C967 H983 0.961 . S
C968 C969 1.370 . S
C968 C970 1.363 . S
C968 H984 0.931 . S
C969 C968 1.370 . S
C969 C973 1.408 . S
C970 C968 1.363 . S
C970 C971 1.370 . S
C970 C974 1.524 . S
C971 C963 1.503 . S
C971 C970 1.370 . S
C971 C972 1.403 . S
C972 C971 1.403 . S
C972 C973 1.404 . S
C972 C975 1.539 . S
C973 C969 1.408 . S
C973 C972 1.404 . S
C973 H985 0.930 . S
C974 C970 1.524 . S
C974 H986 0.956 . S
C974 H987 0.961 . S
C974 H988 0.961 . S
C975 C972 1.539 . S
C975 H989 0.958 . S
C975 H990 0.961 . S
C975 H991 0.960 . S
H976 C960 0.931 . S
H977 C965 0.929 . S
H978 C966 0.960 . S
H979 C966 0.962 . S
H980 C966 0.960 . S
H981 C967 0.961 1_556 S
H982 C967 0.961 . S
H983 C967 0.961 . S
H984 C968 0.931 . S
H985 C973 0.930 . S
H986 C974 0.956 . S
H987 C974 0.961 . S
H988 C974 0.961 . S
H989 C975 0.958 . S
H990 C975 0.961 . S
H991 C975 0.960 . S
C992 C993 1.391 . S
C992 C994 1.394 . S
C992 H1008 0.931 . S
C993 C992 1.391 . S
C993 C997 1.376 . S
C994 C992 1.394 . S
C994 C995 1.369 . S
C994 C998 1.531 . S
C995 C994 1.369 . S
C995 C996 1.410 . S
C995 C1003 1.503 . S
C996 C995 1.410 . S
C996 C997 1.392 . S
C996 C999 1.511 . S
C997 C993 1.376 . S
C997 C996 1.392 . S
C997 H1009 0.929 . S
C998 C994 1.531 . S
C998 H1010 0.960 . S
C998 H1011 0.962 . S
C998 H1012 0.960 . S
C999 C996 1.511 . S
C999 H1013 0.961 . S
C999 H1014 0.961 . S
C999 H1015 0.961 . S
C1000 C1001 1.370 . S
C1000 C1002 1.363 . S
C1000 H1016 0.931 . S
C1001 C1000 1.370 . S
C1001 C1005 1.408 . S
C1002 C1000 1.363 . S
C1002 C1003 1.370 . S
C1002 C1006 1.524 . S
C1003 C995 1.503 . S
C1003 C1002 1.370 . S
C1003 C1004 1.403 . S
C1004 C1003 1.403 . S
C1004 C1005 1.404 . S
C1004 C1007 1.539 . S
C1005 C1001 1.408 . S
C1005 C1004 1.404 . S
C1005 H1017 0.930 . S
C1006 C1002 1.524 . S
C1006 H1018 0.956 . S
C1006 H1019 0.961 . S
C1006 H1020 0.961 . S
C1007 C1004 1.539 . S
C1007 H1021 0.958 . S
C1007 H1022 0.961 . S
C1007 H1023 0.960 . S
H1008 C992 0.931 . S
H1009 C997 0.929 . S
H1010 C998 0.960 . S
H1011 C998 0.962 . S
H1012 C998 0.960 . S
H1013 C999 0.961 . S
H1014 C999 0.961 . S
H1015 C999 0.961 . S
H1016 C1000 0.931 . S
H1017 C1005 0.930 . S
H1018 C1006 0.956 . S
H1019 C1006 0.961 . S
H1020 C1006 0.961 . S
H1021 C1007 0.958 . S
H1022 C1007 0.961 . S
H1023 C1007 0.960 . S
C1024 C1025 1.391 . S
C1024 C1026 1.394 . S
C1024 H1040 0.931 . S
C1025 C1024 1.391 . S
C1025 C1029 1.376 . S
C1026 C1024 1.394 . S
C1026 C1027 1.369 . S
C1026 C1030 1.531 . S
C1027 C1026 1.369 . S
C1027 C1028 1.410 . S
C1027 C1035 1.503 . S
C1028 C1027 1.410 . S
C1028 C1029 1.392 . S
C1028 C1031 1.511 . S
C1029 C1025 1.376 . S
C1029 C1028 1.392 . S
C1029 H1041 0.929 . S
C1030 C1026 1.531 . S
C1030 H1042 0.960 . S
C1030 H1043 0.962 . S
C1030 H1044 0.960 . S
C1031 C1028 1.511 . S
C1031 H1045 0.961 . S
C1031 H1046 0.961 . S
C1031 H1047 0.961 . S
C1032 C1033 1.370 . S
C1032 C1034 1.363 . S
C1032 H1048 0.931 . S
C1033 C1032 1.370 . S
C1033 C1037 1.408 . S
C1034 C1032 1.363 . S
C1034 C1035 1.370 . S
C1034 C1038 1.524 . S
C1035 C1027 1.503 . S
C1035 C1034 1.370 . S
C1035 C1036 1.403 . S
C1036 C1035 1.403 . S
C1036 C1037 1.404 . S
C1036 C1039 1.539 . S
C1037 C1033 1.408 . S
C1037 C1036 1.404 . S
C1037 H1049 0.930 . S
C1038 C1034 1.524 . S
C1038 H1050 0.956 . S
C1038 H1051 0.961 . S
C1038 H1052 0.961 . S
C1039 C1036 1.539 . S
C1039 H1053 0.958 . S
C1039 H1054 0.961 . S
C1039 H1055 0.960 . S
H1040 C1024 0.931 . S
H1041 C1029 0.929 . S
H1042 C1030 0.960 . S
H1043 C1030 0.962 . S
H1044 C1030 0.960 . S
H1045 C1031 0.961 . S
H1046 C1031 0.961 . S
H1047 C1031 0.961 . S
H1048 C1032 0.931 . S
H1049 C1037 0.930 . S
H1050 C1038 0.956 . S
H1051 C1038 0.961 . S
H1052 C1038 0.961 . S
H1053 C1039 0.958 . S
H1054 C1039 0.961 . S
H1055 C1039 0.960 . S
C1056 C1057 1.391 . S
C1056 C1058 1.394 . S
C1056 H1072 0.931 . S
C1057 C1056 1.391 . S
C1057 C1061 1.376 . S
C1058 C1056 1.394 . S
C1058 C1059 1.369 . S
C1058 C1062 1.531 . S
C1059 C1058 1.369 . S
C1059 C1060 1.410 . S
C1059 C1067 1.503 . S
C1060 C1059 1.410 . S
C1060 C1061 1.392 . S
C1060 C1063 1.511 . S
C1061 C1057 1.376 . S
C1061 C1060 1.392 . S
C1061 H1073 0.929 1_554 S
C1062 C1058 1.531 . S
C1062 H1074 0.960 . S
C1062 H1075 0.962 . S
C1062 H1076 0.960 . S
C1063 C1060 1.511 . S
C1063 H1077 0.961 . S
C1063 H1078 0.961 . S
C1063 H1079 0.961 . S
C1064 C1065 1.370 . S
C1064 C1066 1.363 . S
C1064 H1080 0.931 . S
C1065 C1064 1.370 . S
C1065 C1069 1.408 . S
C1066 C1064 1.363 . S
C1066 C1067 1.370 . S
C1066 C1070 1.524 . S
C1067 C1059 1.503 . S
C1067 C1066 1.370 . S
C1067 C1068 1.403 . S
C1068 C1067 1.403 . S
C1068 C1069 1.404 . S
C1068 C1071 1.539 . S
C1069 C1065 1.408 . S
C1069 C1068 1.404 . S
C1069 H1081 0.930 . S
C1070 C1066 1.524 . S
C1070 H1082 0.956 . S
C1070 H1083 0.961 . S
C1070 H1084 0.961 . S
C1071 C1068 1.539 . S
C1071 H1085 0.958 . S
C1071 H1086 0.961 . S
C1071 H1087 0.960 . S
H1072 C1056 0.931 . S
H1073 C1061 0.929 1_556 S
H1074 C1062 0.960 . S
H1075 C1062 0.962 . S
H1076 C1062 0.960 . S
H1077 C1063 0.961 . S
H1078 C1063 0.961 . S
H1079 C1063 0.961 . S
H1080 C1064 0.931 . S
H1081 C1069 0.930 . S
H1082 C1070 0.956 . S
H1083 C1070 0.961 . S
H1084 C1070 0.961 . S
H1085 C1071 0.958 . S
H1086 C1071 0.961 . S
H1087 C1071 0.960 . S
C1088 C1089 1.391 1_554 S
C1088 C1090 1.394 1_554 S
C1088 H1104 0.931 . S
C1089 C1088 1.391 1_556 S
C1089 C1093 1.376 . S
C1090 C1088 1.394 1_556 S
C1090 C1091 1.369 . S
C1090 C1094 1.531 . S
C1091 C1090 1.369 . S
C1091 C1092 1.410 . S
C1091 C1099 1.503 . S
C1092 C1091 1.410 . S
C1092 C1093 1.392 . S
C1092 C1095 1.511 . S
C1093 C1089 1.376 . S
C1093 C1092 1.392 . S
C1093 H1105 0.929 . S
C1094 C1090 1.531 . S
C1094 H1106 0.960 . S
C1094 H1107 0.962 . S
C1094 H1108 0.960 1_556 S
C1095 C1092 1.511 . S
C1095 H1109 0.961 . S
C1095 H1110 0.961 . S
C1095 H1111 0.961 . S
C1096 C1097 1.370 . S
C1096 C1098 1.363 . S
C1096 H1112 0.931 . S
C1097 C1096 1.370 . S
C1097 C1101 1.408 . S
C1098 C1096 1.363 . S
C1098 C1099 1.370 . S
C1098 C1102 1.524 . S
C1099 C1091 1.503 . S
C1099 C1098 1.370 . S
C1099 C1100 1.403 . S
C1100 C1099 1.403 . S
C1100 C1101 1.404 . S
C1100 C1103 1.539 . S
C1101 C1097 1.408 . S
C1101 C1100 1.404 . S
C1101 H1113 0.930 . S
C1102 C1098 1.524 . S
C1102 H1114 0.956 . S
C1102 H1115 0.961 . S
C1102 H1116 0.961 . S
C1103 C1100 1.539 . S
C1103 H1117 0.958 . S
C1103 H1118 0.961 . S
C1103 H1119 0.960 . S
H1104 C1088 0.931 . S
H1105 C1093 0.929 . S
H1106 C1094 0.960 . S
H1107 C1094 0.962 . S
H1108 C1094 0.960 1_554 S
H1109 C1095 0.961 . S
H1110 C1095 0.961 . S
H1111 C1095 0.961 . S
H1112 C1096 0.931 . S
H1113 C1101 0.930 . S
H1114 C1102 0.956 . S
H1115 C1102 0.961 . S
H1116 C1102 0.961 . S
H1117 C1103 0.958 . S
H1118 C1103 0.961 . S
H1119 C1103 0.960 . S
C1120 C1121 1.391 . S
C1120 C1122 1.394 . S
C1120 H1136 0.931 . S
C1121 C1120 1.391 . S
C1121 C1125 1.376 . S
C1122 C1120 1.394 . S
C1122 C1123 1.369 . S
C1122 C1126 1.531 . S
C1123 C1122 1.369 . S
C1123 C1124 1.410 . S
C1123 C1131 1.503 . S
C1124 C1123 1.410 . S
C1124 C1125 1.392 . S
C1124 C1127 1.511 . S
C1125 C1121 1.376 . S
C1125 C1124 1.392 . S
C1125 H1137 0.929 . S
C1126 C1122 1.531 . S
C1126 H1138 0.960 . S
C1126 H1139 0.962 . S
C1126 H1140 0.960 . S
C1127 C1124 1.511 . S
C1127 H1141 0.961 . S
C1127 H1142 0.961 . S
C1127 H1143 0.961 . S
C1128 C1129 1.370 . S
C1128 C1130 1.363 . S
C1128 H1144 0.931 . S
C1129 C1128 1.370 . S
C1129 C1133 1.408 . S
C1130 C1128 1.363 . S
C1130 C1131 1.370 . S
C1130 C1134 1.524 . S
C1131 C1123 1.503 . S
C1131 C1130 1.370 . S
C1131 C1132 1.403 . S
C1132 C1131 1.403 . S
C1132 C1133 1.404 . S
C1132 C1135 1.539 . S
C1133 C1129 1.408 . S
C1133 C1132 1.404 . S
C1133 H1145 0.930 . S
C1134 C1130 1.524 . S
C1134 H1146 0.956 . S
C1134 H1147 0.961 . S
C1134 H1148 0.961 . S
C1135 C1132 1.539 . S
C1135 H1149 0.958 . S
C1135 H1150 0.961 . S
C1135 H1151 0.960 . S
H1136 C1120 0.931 . S
H1137 C1125 0.929 . S
H1138 C1126 0.960 . S
H1139 C1126 0.962 . S
H1140 C1126 0.960 . S
H1141 C1127 0.961 . S
H1142 C1127 0.961 . S
H1143 C1127 0.961 . S
H1144 C1128 0.931 . S
H1145 C1133 0.930 . S
H1146 C1134 0.956 . S
H1147 C1134 0.961 . S
H1148 C1134 0.961 . S
H1149 C1135 0.958 . S
H1150 C1135 0.961 . S
H1151 C1135 0.960 . S
C1152 C1153 1.391 . S
C1152 C1154 1.394 . S
C1152 H1168 0.931 . S
C1153 C1152 1.391 . S
C1153 C1157 1.376 . S
C1154 C1152 1.394 . S
C1154 C1155 1.369 . S
C1154 C1158 1.531 . S
C1155 C1154 1.369 . S
C1155 C1156 1.410 . S
C1155 C1163 1.503 . S
C1156 C1155 1.410 . S
C1156 C1157 1.392 . S
C1156 C1159 1.511 . S
C1157 C1153 1.376 . S
C1157 C1156 1.392 . S
C1157 H1169 0.929 . S
C1158 C1154 1.531 . S
C1158 H1170 0.960 . S
C1158 H1171 0.962 . S
C1158 H1172 0.960 . S
C1159 C1156 1.511 . S
C1159 H1173 0.961 . S
C1159 H1174 0.961 . S
C1159 H1175 0.961 . S
C1160 C1161 1.370 . S
C1160 C1162 1.363 . S
C1160 H1176 0.931 . S
C1161 C1160 1.370 . S
C1161 C1165 1.408 . S
C1162 C1160 1.363 . S
C1162 C1163 1.370 . S
C1162 C1166 1.524 . S
C1163 C1155 1.503 . S
C1163 C1162 1.370 . S
C1163 C1164 1.403 . S
C1164 C1163 1.403 . S
C1164 C1165 1.404 . S
C1164 C1167 1.539 . S
C1165 C1161 1.408 . S
C1165 C1164 1.404 . S
C1165 H1177 0.930 . S
C1166 C1162 1.524 . S
C1166 H1178 0.956 . S
C1166 H1179 0.961 . S
C1166 H1180 0.961 . S
C1167 C1164 1.539 . S
C1167 H1181 0.958 . S
C1167 H1182 0.961 . S
C1167 H1183 0.960 . S
H1168 C1152 0.931 . S
H1169 C1157 0.929 . S
H1170 C1158 0.960 . S
H1171 C1158 0.962 . S
H1172 C1158 0.960 . S
H1173 C1159 0.961 . S
H1174 C1159 0.961 . S
H1175 C1159 0.961 . S
H1176 C1160 0.931 . S
H1177 C1165 0.930 . S
H1178 C1166 0.956 . S
H1179 C1166 0.961 . S
H1180 C1166 0.961 . S
H1181 C1167 0.958 . S
H1182 C1167 0.961 . S
H1183 C1167 0.960 . S
C1184 C1185 1.391 . S
C1184 C1186 1.394 . S
C1184 H1200 0.931 . S
C1185 C1184 1.391 . S
C1185 C1189 1.376 . S
C1186 C1184 1.394 . S
C1186 C1187 1.369 . S
C1186 C1190 1.531 . S
C1187 C1186 1.369 . S
C1187 C1188 1.410 . S
C1187 C1195 1.503 . S
C1188 C1187 1.410 . S
C1188 C1189 1.392 . S
C1188 C1191 1.511 . S
C1189 C1185 1.376 . S
C1189 C1188 1.392 . S
C1189 H1201 0.929 . S
C1190 C1186 1.531 . S
C1190 H1202 0.960 . S
C1190 H1203 0.962 . S
C1190 H1204 0.960 . S
C1191 C1188 1.511 . S
C1191 H1205 0.961 . S
C1191 H1206 0.961 . S
C1191 H1207 0.961 . S
C1192 C1193 1.370 . S
C1192 C1194 1.363 . S
C1192 H1208 0.931 . S
C1193 C1192 1.370 . S
C1193 C1197 1.408 . S
C1194 C1192 1.363 . S
C1194 C1195 1.370 . S
C1194 C1198 1.524 . S
C1195 C1187 1.503 . S
C1195 C1194 1.370 . S
C1195 C1196 1.403 . S
C1196 C1195 1.403 . S
C1196 C1197 1.404 . S
C1196 C1199 1.539 . S
C1197 C1193 1.408 . S
C1197 C1196 1.404 . S
C1197 H1209 0.930 . S
C1198 C1194 1.524 . S
C1198 H1210 0.956 . S
C1198 H1211 0.961 . S
C1198 H1212 0.961 . S
C1199 C1196 1.539 . S
C1199 H1213 0.958 . S
C1199 H1214 0.961 . S
C1199 H1215 0.960 . S
H1200 C1184 0.931 . S
H1201 C1189 0.929 . S
H1202 C1190 0.960 . S
H1203 C1190 0.962 . S
H1204 C1190 0.960 . S
H1205 C1191 0.961 . S
H1206 C1191 0.961 . S
H1207 C1191 0.961 . S
H1208 C1192 0.931 . S
H1209 C1197 0.930 . S
H1210 C1198 0.956 . S
H1211 C1198 0.961 . S
H1212 C1198 0.961 . S
H1213 C1199 0.958 . S
H1214 C1199 0.961 . S
H1215 C1199 0.960 . S
C1216 C1217 1.391 . S
C1216 C1218 1.394 . S
C1216 H1232 0.931 . S
C1217 C1216 1.391 . S
C1217 C1221 1.376 . S
C1218 C1216 1.394 . S
C1218 C1219 1.369 . S
C1218 C1222 1.531 . S
C1219 C1218 1.369 . S
C1219 C1220 1.410 . S
C1219 C1227 1.503 . S
C1220 C1219 1.410 . S
C1220 C1221 1.392 . S
C1220 C1223 1.511 . S
C1221 C1217 1.376 . S
C1221 C1220 1.392 . S
C1221 H1233 0.929 . S
C1222 C1218 1.531 . S
C1222 H1234 0.960 . S
C1222 H1235 0.962 . S
C1222 H1236 0.960 . S
C1223 C1220 1.511 . S
C1223 H1237 0.961 . S
C1223 H1238 0.961 . S
C1223 H1239 0.961 . S
C1224 C1225 1.370 . S
C1224 C1226 1.363 . S
C1224 H1240 0.931 . S
C1225 C1224 1.370 . S
C1225 C1229 1.408 . S
C1226 C1224 1.363 . S
C1226 C1227 1.370 . S
C1226 C1230 1.524 . S
C1227 C1219 1.503 . S
C1227 C1226 1.370 . S
C1227 C1228 1.403 . S
C1228 C1227 1.403 . S
C1228 C1229 1.404 . S
C1228 C1231 1.539 . S
C1229 C1225 1.408 . S
C1229 C1228 1.404 . S
C1229 H1241 0.930 . S
C1230 C1226 1.524 . S
C1230 H1242 0.956 . S
C1230 H1243 0.961 . S
C1230 H1244 0.961 . S
C1231 C1228 1.539 . S
C1231 H1245 0.958 . S
C1231 H1246 0.961 . S
C1231 H1247 0.960 . S
H1232 C1216 0.931 . S
H1233 C1221 0.929 . S
H1234 C1222 0.960 . S
H1235 C1222 0.962 . S
H1236 C1222 0.960 . S
H1237 C1223 0.961 . S
H1238 C1223 0.961 . S
H1239 C1223 0.961 . S
H1240 C1224 0.931 . S
H1241 C1229 0.930 . S
H1242 C1230 0.956 . S
H1243 C1230 0.961 . S
H1244 C1230 0.961 . S
H1245 C1231 0.958 . S
H1246 C1231 0.961 . S
H1247 C1231 0.960 . S
C1248 C1249 1.391 . S
C1248 C1250 1.394 . S
C1248 H1264 0.931 . S
C1249 C1248 1.391 . S
C1249 C1253 1.376 . S
C1250 C1248 1.394 . S
C1250 C1251 1.369 . S
C1250 C1254 1.531 . S
C1251 C1250 1.369 . S
C1251 C1252 1.410 . S
C1251 C1259 1.503 . S
C1252 C1251 1.410 . S
C1252 C1253 1.392 . S
C1252 C1255 1.511 . S
C1253 C1249 1.376 . S
C1253 C1252 1.392 . S
C1253 H1265 0.929 . S
C1254 C1250 1.531 . S
C1254 H1266 0.960 . S
C1254 H1267 0.962 . S
C1254 H1268 0.960 . S
C1255 C1252 1.511 . S
C1255 H1269 0.961 . S
C1255 H1270 0.961 . S
C1255 H1271 0.961 . S
C1256 C1257 1.370 . S
C1256 C1258 1.363 . S
C1256 H1272 0.931 . S
C1257 C1256 1.370 . S
C1257 C1261 1.408 . S
C1258 C1256 1.363 . S
C1258 C1259 1.370 . S
C1258 C1262 1.524 . S
C1259 C1251 1.503 . S
C1259 C1258 1.370 . S
C1259 C1260 1.403 . S
C1260 C1259 1.403 . S
C1260 C1261 1.404 . S
C1260 C1263 1.539 . S
C1261 C1257 1.408 . S
C1261 C1260 1.404 . S
C1261 H1273 0.930 1_556 S
C1262 C1258 1.524 . S
C1262 H1274 0.956 . S
C1262 H1275 0.961 . S
C1262 H1276 0.961 . S
C1263 C1260 1.539 . S
C1263 H1277 0.958 . S
C1263 H1278 0.961 . S
C1263 H1279 0.960 . S
H1264 C1248 0.931 . S
H1265 C1253 0.929 . S
H1266 C1254 0.960 . S
H1267 C1254 0.962 . S
H1268 C1254 0.960 . S
H1269 C1255 0.961 . S
H1270 C1255 0.961 . S
H1271 C1255 0.961 . S
H1272 C1256 0.931 . S
H1273 C1261 0.930 1_554 S
H1274 C1262 0.956 . S
H1275 C1262 0.961 . S
H1276 C1262 0.961 . S
H1277 C1263 0.958 . S
H1278 C1263 0.961 . S
H1279 C1263 0.960 . S
C1280 C1281 1.391 . S
C1280 C1282 1.394 . S
C1280 H1296 0.931 . S
C1281 C1280 1.391 . S
C1281 C1285 1.376 . S
C1282 C1280 1.394 . S
C1282 C1283 1.369 . S
C1282 C1286 1.531 . S
C1283 C1282 1.369 . S
C1283 C1284 1.410 . S
C1283 C1291 1.503 . S
C1284 C1283 1.410 . S
C1284 C1285 1.392 . S
C1284 C1287 1.511 . S
C1285 C1281 1.376 . S
C1285 C1284 1.392 . S
C1285 H1297 0.929 . S
C1286 C1282 1.531 . S
C1286 H1298 0.960 . S
C1286 H1299 0.962 . S
C1286 H1300 0.960 . S
C1287 C1284 1.511 . S
C1287 H1301 0.961 . S
C1287 H1302 0.961 . S
C1287 H1303 0.961 . S
C1288 C1289 1.370 . S
C1288 C1290 1.363 . S
C1288 H1304 0.931 . S
C1289 C1288 1.370 . S
C1289 C1293 1.408 1_554 S
C1290 C1288 1.363 . S
C1290 C1291 1.370 . S
C1290 C1294 1.524 . S
C1291 C1283 1.503 . S
C1291 C1290 1.370 . S
C1291 C1292 1.403 . S
C1292 C1291 1.403 . S
C1292 C1293 1.404 1_554 S
C1292 C1295 1.539 . S
C1293 C1289 1.408 1_556 S
C1293 C1292 1.404 1_556 S
C1293 H1305 0.930 . S
C1294 C1290 1.524 . S
C1294 H1306 0.956 . S
C1294 H1307 0.961 . S
C1294 H1308 0.961 . S
C1295 C1292 1.539 . S
C1295 H1309 0.958 1_554 S
C1295 H1310 0.961 1_554 S
C1295 H1311 0.960 . S
H1296 C1280 0.931 . S
H1297 C1285 0.929 . S
H1298 C1286 0.960 . S
H1299 C1286 0.962 . S
H1300 C1286 0.960 . S
H1301 C1287 0.961 . S
H1302 C1287 0.961 . S
H1303 C1287 0.961 . S
H1304 C1288 0.931 . S
H1305 C1293 0.930 . S
H1306 C1294 0.956 . S
H1307 C1294 0.961 . S
H1308 C1294 0.961 . S
H1309 C1295 0.958 1_556 S
H1310 C1295 0.961 1_556 S
H1311 C1295 0.960 . S
C1312 C1313 1.391 . S
C1312 C1314 1.394 . S
C1312 H1328 0.931 . S
C1313 C1312 1.391 . S
C1313 C1317 1.376 . S
C1314 C1312 1.394 . S
C1314 C1315 1.369 . S
C1314 C1318 1.531 . S
C1315 C1314 1.369 . S
C1315 C1316 1.410 . S
C1315 C1323 1.503 . S
C1316 C1315 1.410 . S
C1316 C1317 1.392 . S
C1316 C1319 1.511 . S
C1317 C1313 1.376 . S
C1317 C1316 1.392 . S
C1317 H1329 0.929 . S
C1318 C1314 1.531 . S
C1318 H1330 0.960 . S
C1318 H1331 0.962 . S
C1318 H1332 0.960 . S
C1319 C1316 1.511 . S
C1319 H1333 0.961 . S
C1319 H1334 0.961 . S
C1319 H1335 0.961 . S
C1320 C1321 1.370 . S
C1320 C1322 1.363 . S
C1320 H1336 0.931 . S
C1321 C1320 1.370 . S
C1321 C1325 1.408 . S
C1322 C1320 1.363 . S
C1322 C1323 1.370 . S
C1322 C1326 1.524 . S
C1323 C1315 1.503 . S
C1323 C1322 1.370 . S
C1323 C1324 1.403 . S
C1324 C1323 1.403 . S
C1324 C1325 1.404 . S
C1324 C1327 1.539 . S
C1325 C1321 1.408 . S
C1325 C1324 1.404 . S
C1325 H1337 0.930 . S
C1326 C1322 1.524 . S
C1326 H1338 0.956 . S
C1326 H1339 0.961 . S
C1326 H1340 0.961 . S
C1327 C1324 1.539 . S
C1327 H1341 0.958 . S
C1327 H1342 0.961 . S
C1327 H1343 0.960 . S
H1328 C1312 0.931 . S
H1329 C1317 0.929 . S
H1330 C1318 0.960 . S
H1331 C1318 0.962 . S
H1332 C1318 0.960 . S
H1333 C1319 0.961 . S
H1334 C1319 0.961 . S
H1335 C1319 0.961 . S
H1336 C1320 0.931 . S
H1337 C1325 0.930 . S
H1338 C1326 0.956 . S
H1339 C1326 0.961 . S
H1340 C1326 0.961 . S
H1341 C1327 0.958 . S
H1342 C1327 0.961 . S
H1343 C1327 0.960 . S
C1344 C1345 1.391 . S
C1344 C1346 1.394 . S
C1344 H1360 0.931 . S
C1345 C1344 1.391 . S
C1345 C1349 1.376 . S
C1346 C1344 1.394 . S
C1346 C1347 1.369 . S
C1346 C1350 1.531 . S
C1347 C1346 1.369 . S
C1347 C1348 1.410 . S
C1347 C1355 1.503 . S
C1348 C1347 1.410 . S
C1348 C1349 1.392 . S
C1348 C1351 1.511 . S
C1349 C1345 1.376 . S
C1349 C1348 1.392 . S
C1349 H1361 0.929 . S
C1350 C1346 1.531 . S
C1350 H1362 0.960 . S
C1350 H1363 0.962 . S
C1350 H1364 0.960 . S
C1351 C1348 1.511 . S
C1351 H1365 0.961 . S
C1351 H1366 0.961 . S
C1351 H1367 0.961 . S
C1352 C1353 1.370 . S
C1352 C1354 1.363 . S
C1352 H1368 0.931 . S
C1353 C1352 1.370 . S
C1353 C1357 1.408 . S
C1354 C1352 1.363 . S
C1354 C1355 1.370 . S
C1354 C1358 1.524 . S
C1355 C1347 1.503 . S
C1355 C1354 1.370 . S
C1355 C1356 1.403 . S
C1356 C1355 1.403 . S
C1356 C1357 1.404 . S
C1356 C1359 1.539 . S
C1357 C1353 1.408 . S
C1357 C1356 1.404 . S
C1357 H1369 0.930 . S
C1358 C1354 1.524 . S
C1358 H1370 0.956 . S
C1358 H1371 0.961 . S
C1358 H1372 0.961 . S
C1359 C1356 1.539 . S
C1359 H1373 0.958 . S
C1359 H1374 0.961 . S
C1359 H1375 0.960 . S
H1360 C1344 0.931 . S
H1361 C1349 0.929 . S
H1362 C1350 0.960 . S
H1363 C1350 0.962 . S
H1364 C1350 0.960 . S
H1365 C1351 0.961 . S
H1366 C1351 0.961 . S
H1367 C1351 0.961 . S
H1368 C1352 0.931 . S
H1369 C1357 0.930 . S
H1370 C1358 0.956 . S
H1371 C1358 0.961 . S
H1372 C1358 0.961 . S
H1373 C1359 0.958 . S
H1374 C1359 0.961 . S
H1375 C1359 0.960 . S
C1376 C1377 1.391 1_556 S
C1376 C1378 1.394 1_556 S
C1376 H1392 0.931 . S
C1377 C1376 1.391 1_554 S
C1377 C1381 1.376 . S
C1378 C1376 1.394 1_554 S
C1378 C1379 1.369 . S
C1378 C1382 1.531 . S
C1379 C1378 1.369 . S
C1379 C1380 1.410 . S
C1379 C1387 1.503 . S
C1380 C1379 1.410 . S
C1380 C1381 1.392 . S
C1380 C1383 1.511 . S
C1381 C1377 1.376 . S
C1381 C1380 1.392 . S
C1381 H1393 0.929 . S
C1382 C1378 1.531 . S
C1382 H1394 0.960 . S
C1382 H1395 0.962 . S
C1382 H1396 0.960 1_554 S
C1383 C1380 1.511 . S
C1383 H1397 0.961 . S
C1383 H1398 0.961 . S
C1383 H1399 0.961 . S
C1384 C1385 1.370 . S
C1384 C1386 1.363 . S
C1384 H1400 0.931 . S
C1385 C1384 1.370 . S
C1385 C1389 1.408 . S
C1386 C1384 1.363 . S
C1386 C1387 1.370 . S
C1386 C1390 1.524 . S
C1387 C1379 1.503 . S
C1387 C1386 1.370 . S
C1387 C1388 1.403 . S
C1388 C1387 1.403 . S
C1388 C1389 1.404 . S
C1388 C1391 1.539 . S
C1389 C1385 1.408 . S
C1389 C1388 1.404 . S
C1389 H1401 0.930 . S
C1390 C1386 1.524 . S
C1390 H1402 0.956 . S
C1390 H1403 0.961 . S
C1390 H1404 0.961 . S
C1391 C1388 1.539 . S
C1391 H1405 0.958 . S
C1391 H1406 0.961 . S
C1391 H1407 0.960 . S
H1392 C1376 0.931 . S
H1393 C1381 0.929 . S
H1394 C1382 0.960 . S
H1395 C1382 0.962 . S
H1396 C1382 0.960 1_556 S
H1397 C1383 0.961 . S
H1398 C1383 0.961 . S
H1399 C1383 0.961 . S
H1400 C1384 0.931 . S
H1401 C1389 0.930 . S
H1402 C1390 0.956 . S
H1403 C1390 0.961 . S
H1404 C1390 0.961 . S
H1405 C1391 0.958 . S
H1406 C1391 0.961 . S
H1407 C1391 0.960 . S
C1408 C1409 1.391 . S
C1408 C1410 1.394 . S
C1408 H1424 0.931 . S
C1409 C1408 1.391 . S
C1409 C1413 1.376 . S
C1410 C1408 1.394 . S
C1410 C1411 1.369 . S
C1410 C1414 1.531 . S
C1411 C1410 1.369 . S
C1411 C1412 1.410 . S
C1411 C1419 1.503 . S
C1412 C1411 1.410 . S
C1412 C1413 1.392 . S
C1412 C1415 1.511 . S
C1413 C1409 1.376 . S
C1413 C1412 1.392 . S
C1413 H1425 0.929 . S
C1414 C1410 1.531 . S
C1414 H1426 0.960 . S
C1414 H1427 0.962 . S
C1414 H1428 0.960 . S
C1415 C1412 1.511 . S
C1415 H1429 0.961 . S
C1415 H1430 0.961 . S
C1415 H1431 0.961 . S
C1416 C1417 1.370 . S
C1416 C1418 1.363 . S
C1416 H1432 0.931 . S
C1417 C1416 1.370 . S
C1417 C1421 1.408 1_556 S
C1418 C1416 1.363 . S
C1418 C1419 1.370 . S
C1418 C1422 1.524 . S
C1419 C1411 1.503 . S
C1419 C1418 1.370 . S
C1419 C1420 1.403 . S
C1420 C1419 1.403 . S
C1420 C1421 1.404 1_556 S
C1420 C1423 1.544 . S
C1421 C1417 1.408 1_554 S
C1421 C1420 1.404 1_554 S
C1421 H1433 0.930 . S
C1422 C1418 1.524 . S
C1422 H1434 0.956 . S
C1422 H1435 0.961 . S
C1422 H1436 0.961 . S
C1423 C1420 1.544 . S
C1423 H1437 0.958 . S
C1423 H1438 0.950 1_556 S
C1423 H1439 0.966 . S
H1424 C1408 0.931 . S
H1425 C1413 0.929 . S
H1426 C1414 0.960 . S
H1427 C1414 0.962 . S
H1428 C1414 0.960 . S
H1429 C1415 0.961 . S
H1430 C1415 0.961 . S
H1431 C1415 0.961 . S
H1432 C1416 0.931 . S
H1433 C1421 0.930 . S
H1434 C1422 0.956 . S
H1435 C1422 0.961 . S
H1436 C1422 0.961 . S
H1437 C1423 0.958 . S
H1438 C1423 0.950 1_554 S
H1439 C1423 0.966 . S
C1440 C1441 1.391 . S
C1440 C1442 1.394 . S
C1440 H1456 0.931 . S
C1441 C1440 1.391 . S
C1441 C1445 1.376 . S
C1442 C1440 1.394 . S
C1442 C1443 1.369 . S
C1442 C1446 1.531 . S
C1443 C1442 1.369 . S
C1443 C1444 1.410 . S
C1443 C1451 1.503 . S
C1444 C1443 1.410 . S
C1444 C1445 1.392 . S
C1444 C1447 1.511 . S
C1445 C1441 1.376 . S
C1445 C1444 1.392 . S
C1445 H1457 0.929 . S
C1446 C1442 1.531 . S
C1446 H1458 0.960 . S
C1446 H1459 0.962 . S
C1446 H1460 0.960 . S
C1447 C1444 1.511 . S
C1447 H1461 0.961 . S
C1447 H1462 0.961 . S
C1447 H1463 0.961 . S
C1448 C1449 1.370 . S
C1448 C1450 1.363 . S
C1448 H1464 0.931 . S
C1449 C1448 1.370 . S
C1449 C1453 1.408 . S
C1450 C1448 1.363 . S
C1450 C1451 1.370 . S
C1450 C1454 1.531 . S
C1451 C1443 1.503 . S
C1451 C1450 1.370 . S
C1451 C1452 1.403 . S
C1452 C1451 1.403 . S
C1452 C1453 1.404 . S
C1452 C1455 1.539 . S
C1453 C1449 1.408 . S
C1453 C1452 1.404 . S
C1453 H1465 0.930 . S
C1454 C1450 1.531 . S
C1454 H1466 0.957 . S
C1454 H1467 0.959 1_554 S
C1454 H1468 0.954 1_554 S
C1455 C1452 1.539 . S
C1455 H1469 0.958 . S
C1455 H1470 0.961 . S
C1455 H1471 0.960 . S
H1456 C1440 0.931 . S
H1457 C1445 0.929 . S
H1458 C1446 0.960 . S
H1459 C1446 0.962 . S
H1460 C1446 0.960 . S
H1461 C1447 0.961 . S
H1462 C1447 0.961 . S
H1463 C1447 0.961 . S
H1464 C1448 0.931 . S
H1465 C1453 0.930 . S
H1466 C1454 0.957 . S
H1467 C1454 0.959 1_556 S
H1468 C1454 0.954 1_556 S
H1469 C1455 0.958 . S
H1470 C1455 0.961 . S
H1471 C1455 0.960 . S
C1472 C1473 1.391 . S
C1472 C1474 1.394 . S
C1472 H1488 0.931 . S
C1473 C1472 1.391 . S
C1473 C1477 1.376 . S
C1474 C1472 1.394 . S
C1474 C1475 1.369 . S
C1474 C1478 1.531 . S
C1475 C1474 1.369 . S
C1475 C1476 1.410 . S
C1475 C1483 1.503 1_655 S
C1476 C1475 1.410 . S
C1476 C1477 1.392 . S
C1476 C1479 1.511 . S
C1477 C1473 1.376 . S
C1477 C1476 1.392 . S
C1477 H1489 0.929 . S
C1478 C1474 1.531 . S
C1478 H1490 0.960 1_655 S
C1478 H1491 0.962 . S
C1478 H1492 0.960 . S
C1479 C1476 1.511 . S
C1479 H1493 0.961 . S
C1479 H1494 0.961 1_655 S
C1479 H1495 0.961 . S
C1480 C1481 1.370 . S
C1480 C1482 1.363 . S
C1480 H1496 0.931 . S
C1481 C1480 1.370 . S
C1481 C1485 1.408 . S
C1482 C1480 1.363 . S
C1482 C1483 1.370 . S
C1482 C1486 1.524 . S
C1483 C1475 1.503 1_455 S
C1483 C1482 1.370 . S
C1483 C1484 1.403 . S
C1484 C1483 1.403 . S
C1484 C1485 1.404 . S
C1484 C1487 1.539 . S
C1485 C1481 1.408 . S
C1485 C1484 1.404 . S
C1485 H1497 0.930 . S
C1486 C1482 1.524 . S
C1486 H1498 0.982 . S
C1486 H1499 0.919 1_455 S
C1486 H1500 0.961 . S
C1487 C1484 1.539 . S
C1487 H1501 0.958 . S
C1487 H1502 0.961 . S
C1487 H1503 0.967 . S
H1488 C1472 0.931 . S
H1489 C1477 0.929 . S
H1490 C1478 0.960 1_455 S
H1491 C1478 0.962 . S
H1492 C1478 0.960 . S
H1493 C1479 0.961 . S
H1494 C1479 0.961 1_455 S
H1495 C1479 0.961 . S
H1496 C1480 0.931 . S
H1497 C1485 0.930 . S
H1498 C1486 0.982 . S
H1499 C1486 0.919 1_655 S
H1500 C1486 0.961 . S
H1501 C1487 0.958 . S
H1502 C1487 0.961 . S
H1503 C1487 0.967 . S
C1504 C1505 1.391 . S
C1504 C1506 1.394 . S
C1504 H1520 0.931 . S
C1505 C1504 1.391 . S
C1505 C1509 1.376 . S
C1506 C1504 1.394 . S
C1506 C1507 1.369 . S
C1506 C1510 1.531 . S
C1507 C1506 1.369 . S
C1507 C1508 1.410 . S
C1507 C1515 1.503 . S
C1508 C1507 1.410 . S
C1508 C1509 1.392 . S
C1508 C1511 1.511 . S
C1509 C1505 1.376 . S
C1509 C1508 1.392 . S
C1509 H1521 0.929 . S
C1510 C1506 1.531 . S
C1510 H1522 0.960 . S
C1510 H1523 0.962 . S
C1510 H1524 0.960 . S
C1511 C1508 1.511 . S
C1511 H1525 0.961 . S
C1511 H1526 0.961 . S
C1511 H1527 0.961 . S
C1512 C1513 1.370 . S
C1512 C1514 1.363 . S
C1512 H1528 0.931 . S
C1513 C1512 1.370 . S
C1513 C1517 1.408 . S
C1514 C1512 1.363 . S
C1514 C1515 1.370 . S
C1514 C1518 1.524 . S
C1515 C1507 1.503 . S
C1515 C1514 1.370 . S
C1515 C1516 1.403 . S
C1516 C1515 1.403 . S
C1516 C1517 1.404 . S
C1516 C1519 1.539 . S
C1517 C1513 1.408 . S
C1517 C1516 1.404 . S
C1517 H1529 0.930 . S
C1518 C1514 1.524 . S
C1518 H1530 0.956 . S
C1518 H1531 0.961 . S
C1518 H1532 0.961 . S
C1519 C1516 1.539 . S
C1519 H1533 0.958 . S
C1519 H1534 0.961 . S
C1519 H1535 0.960 . S
H1520 C1504 0.931 . S
H1521 C1509 0.929 . S
H1522 C1510 0.960 . S
H1523 C1510 0.962 . S
H1524 C1510 0.960 . S
H1525 C1511 0.961 . S
H1526 C1511 0.961 . S
H1527 C1511 0.961 . S
H1528 C1512 0.931 . S
H1529 C1517 0.930 . S
H1530 C1518 0.956 . S
H1531 C1518 0.961 . S
H1532 C1518 0.961 . S
H1533 C1519 0.958 . S
H1534 C1519 0.961 . S
H1535 C1519 0.960 . S
C1536 C1537 1.391 . S
C1536 C1538 1.394 . S
C1536 H1552 0.931 . S
C1537 C1536 1.391 . S
C1537 C1541 1.376 . S
C1538 C1536 1.394 . S
C1538 C1539 1.369 . S
C1538 C1542 1.531 . S
C1539 C1538 1.369 . S
C1539 C1540 1.410 . S
C1539 C1547 1.503 . S
C1540 C1539 1.410 . S
C1540 C1541 1.392 . S
C1540 C1543 1.511 . S
C1541 C1537 1.376 . S
C1541 C1540 1.392 . S
C1541 H1553 0.929 . S
C1542 C1538 1.531 . S
C1542 H1554 0.960 . S
C1542 H1555 0.962 . S
C1542 H1556 0.960 . S
C1543 C1540 1.511 . S
C1543 H1557 0.961 . S
C1543 H1558 0.961 . S
C1543 H1559 0.961 . S
C1544 C1545 1.370 . S
C1544 C1546 1.363 . S
C1544 H1560 0.931 . S
C1545 C1544 1.370 . S
C1545 C1549 1.408 . S
C1546 C1544 1.363 . S
C1546 C1547 1.370 . S
C1546 C1550 1.524 . S
C1547 C1539 1.503 . S
C1547 C1546 1.370 . S
C1547 C1548 1.403 . S
C1548 C1547 1.403 . S
C1548 C1549 1.404 . S
C1548 C1551 1.539 . S
C1549 C1545 1.408 . S
C1549 C1548 1.404 . S
C1549 H1561 0.930 . S
C1550 C1546 1.524 . S
C1550 H1562 0.956 . S
C1550 H1563 0.961 . S
C1550 H1564 0.961 . S
C1551 C1548 1.539 . S
C1551 H1565 0.958 . S
C1551 H1566 0.961 . S
C1551 H1567 0.960 . S
H1552 C1536 0.931 . S
H1553 C1541 0.929 . S
H1554 C1542 0.960 . S
H1555 C1542 0.962 . S
H1556 C1542 0.960 . S
H1557 C1543 0.961 . S
H1558 C1543 0.961 . S
H1559 C1543 0.961 . S
H1560 C1544 0.931 . S
H1561 C1549 0.930 . S
H1562 C1550 0.956 . S
H1563 C1550 0.961 . S
H1564 C1550 0.961 . S
H1565 C1551 0.958 . S
H1566 C1551 0.961 . S
H1567 C1551 0.960 . S
C1568 C1569 1.391 . S
C1568 C1570 1.394 . S
C1568 H1584 0.931 . S
C1569 C1568 1.391 . S
C1569 C1573 1.376 . S
C1570 C1568 1.394 . S
C1570 C1571 1.369 . S
C1570 C1574 1.531 . S
C1571 C1570 1.369 . S
C1571 C1572 1.410 . S
C1571 C1579 1.503 . S
C1572 C1571 1.410 . S
C1572 C1573 1.392 . S
C1572 C1575 1.511 . S
C1573 C1569 1.376 . S
C1573 C1572 1.392 . S
C1573 H1585 0.929 . S
C1574 C1570 1.531 . S
C1574 H1586 0.960 . S
C1574 H1587 0.962 . S
C1574 H1588 0.960 . S
C1575 C1572 1.511 . S
C1575 H1589 0.961 . S
C1575 H1590 0.961 . S
C1575 H1591 0.961 . S
C1576 C1577 1.370 . S
C1576 C1578 1.363 . S
C1576 H1592 0.931 . S
C1577 C1576 1.370 . S
C1577 C1581 1.408 . S
C1578 C1576 1.363 . S
C1578 C1579 1.370 . S
C1578 C1582 1.524 . S
C1579 C1571 1.503 . S
C1579 C1578 1.370 . S
C1579 C1580 1.403 . S
C1580 C1579 1.403 . S
C1580 C1581 1.404 . S
C1580 C1583 1.539 . S
C1581 C1577 1.408 . S
C1581 C1580 1.404 . S
C1581 H1593 0.930 . S
C1582 C1578 1.524 . S
C1582 H1594 0.956 . S
C1582 H1595 0.961 1_556 S
C1582 H1596 0.961 1_556 S
C1583 C1580 1.539 . S
C1583 H1597 0.958 . S
C1583 H1598 0.961 . S
C1583 H1599 0.960 . S
H1584 C1568 0.931 . S
H1585 C1573 0.929 . S
H1586 C1574 0.960 . S
H1587 C1574 0.962 . S
H1588 C1574 0.960 . S
H1589 C1575 0.961 . S
H1590 C1575 0.961 . S
H1591 C1575 0.961 . S
H1592 C1576 0.931 . S
H1593 C1581 0.930 . S
H1594 C1582 0.956 . S
H1595 C1582 0.961 1_554 S
H1596 C1582 0.961 1_554 S
H1597 C1583 0.958 . S
H1598 C1583 0.961 . S
H1599 C1583 0.960 . S
C1600 C1601 1.391 . S
C1600 C1602 1.394 . S
C1600 H1616 0.931 . S
C1601 C1600 1.391 . S
C1601 C1605 1.376 . S
C1602 C1600 1.394 . S
C1602 C1603 1.369 . S
C1602 C1606 1.531 . S
C1603 C1602 1.369 . S
C1603 C1604 1.410 . S
C1603 C1611 1.503 . S
C1604 C1603 1.410 . S
C1604 C1605 1.392 . S
C1604 C1607 1.511 . S
C1605 C1601 1.376 . S
C1605 C1604 1.392 . S
C1605 H1617 0.929 . S
C1606 C1602 1.531 . S
C1606 H1618 0.960 . S
C1606 H1619 0.962 . S
C1606 H1620 0.960 . S
C1607 C1604 1.511 . S
C1607 H1621 0.961 . S
C1607 H1622 0.961 . S
C1607 H1623 0.961 . S
C1608 C1609 1.370 . S
C1608 C1610 1.363 . S
C1608 H1624 0.931 . S
C1609 C1608 1.370 . S
C1609 C1613 1.408 . S
C1610 C1608 1.363 . S
C1610 C1611 1.370 . S
C1610 C1614 1.524 . S
C1611 C1603 1.503 . S
C1611 C1610 1.370 . S
C1611 C1612 1.403 . S
C1612 C1611 1.403 . S
C1612 C1613 1.404 . S
C1612 C1615 1.539 . S
C1613 C1609 1.408 . S
C1613 C1612 1.404 . S
C1613 H1625 0.930 . S
C1614 C1610 1.524 . S
C1614 H1626 0.956 . S
C1614 H1627 0.961 . S
C1614 H1628 0.961 . S
C1615 C1612 1.539 . S
C1615 H1629 0.958 . S
C1615 H1630 0.961 . S
C1615 H1631 0.960 . S
H1616 C1600 0.931 . S
H1617 C1605 0.929 . S
H1618 C1606 0.960 . S
H1619 C1606 0.962 . S
H1620 C1606 0.960 . S
H1621 C1607 0.961 . S
H1622 C1607 0.961 . S
H1623 C1607 0.961 . S
H1624 C1608 0.931 . S
H1625 C1613 0.930 . S
H1626 C1614 0.956 . S
H1627 C1614 0.961 . S
H1628 C1614 0.961 . S
H1629 C1615 0.958 . S
H1630 C1615 0.961 . S
H1631 C1615 0.960 . S
C1632 C1633 1.391 . S
C1632 C1634 1.394 . S
C1632 H1648 0.931 . S
C1633 C1632 1.391 . S
C1633 C1637 1.376 . S
C1634 C1632 1.394 . S
C1634 C1635 1.369 . S
C1634 C1638 1.531 . S
C1635 C1634 1.369 . S
C1635 C1636 1.410 . S
C1635 C1643 1.503 . S
C1636 C1635 1.410 . S
C1636 C1637 1.392 . S
C1636 C1639 1.511 . S
C1637 C1633 1.376 . S
C1637 C1636 1.392 . S
C1637 H1649 0.929 . S
C1638 C1634 1.531 . S
C1638 H1650 0.960 . S
C1638 H1651 0.962 . S
C1638 H1652 0.960 . S
C1639 C1636 1.511 . S
C1639 H1653 0.961 . S
C1639 H1654 0.961 . S
C1639 H1655 0.961 . S
C1640 C1641 1.370 . S
C1640 C1642 1.363 . S
C1640 H1656 0.931 . S
C1641 C1640 1.370 . S
C1641 C1645 1.408 . S
C1642 C1640 1.363 . S
C1642 C1643 1.370 . S
C1642 C1646 1.524 . S
C1643 C1635 1.503 . S
C1643 C1642 1.370 . S
C1643 C1644 1.403 . S
C1644 C1643 1.403 . S
C1644 C1645 1.404 . S
C1644 C1647 1.539 . S
C1645 C1641 1.408 . S
C1645 C1644 1.404 . S
C1645 H1657 0.930 . S
C1646 C1642 1.524 . S
C1646 H1658 0.956 . S
C1646 H1659 0.961 . S
C1646 H1660 0.961 . S
C1647 C1644 1.539 . S
C1647 H1661 0.958 . S
C1647 H1662 0.961 . S
C1647 H1663 0.960 . S
H1648 C1632 0.931 . S
H1649 C1637 0.929 . S
H1650 C1638 0.960 . S
H1651 C1638 0.962 . S
H1652 C1638 0.960 . S
H1653 C1639 0.961 . S
H1654 C1639 0.961 . S
H1655 C1639 0.961 . S
H1656 C1640 0.931 . S
H1657 C1645 0.930 . S
H1658 C1646 0.956 . S
H1659 C1646 0.961 . S
H1660 C1646 0.961 . S
H1661 C1647 0.958 . S
H1662 C1647 0.961 . S
H1663 C1647 0.960 . S
C1664 C1665 1.391 . S
C1664 C1666 1.394 . S
C1664 H1680 0.931 . S
C1665 C1664 1.391 . S
C1665 C1669 1.376 . S
C1666 C1664 1.394 . S
C1666 C1667 1.369 . S
C1666 C1670 1.531 . S
C1667 C1666 1.369 . S
C1667 C1668 1.410 . S
C1667 C1675 1.503 1_655 S
C1668 C1667 1.410 . S
C1668 C1669 1.392 . S
C1668 C1671 1.511 . S
C1669 C1665 1.376 . S
C1669 C1668 1.392 . S
C1669 H1681 0.929 . S
C1670 C1666 1.531 . S
C1670 H1682 0.960 1_655 S
C1670 H1683 0.962 . S
C1670 H1684 0.960 . S
C1671 C1668 1.511 . S
C1671 H1685 0.961 . S
C1671 H1686 0.961 1_655 S
C1671 H1687 0.961 . S
C1672 C1673 1.370 . S
C1672 C1674 1.363 . S
C1672 H1688 0.931 . S
C1673 C1672 1.370 . S
C1673 C1677 1.408 . S
C1674 C1672 1.363 . S
C1674 C1675 1.370 . S
C1674 C1678 1.524 . S
C1675 C1667 1.503 1_455 S
C1675 C1674 1.370 . S
C1675 C1676 1.403 . S
C1676 C1675 1.403 . S
C1676 C1677 1.404 . S
C1676 C1679 1.539 . S
C1677 C1673 1.408 . S
C1677 C1676 1.404 . S
C1677 H1689 0.930 . S
C1678 C1674 1.524 . S
C1678 H1690 0.982 . S
C1678 H1691 0.919 1_455 S
C1678 H1692 0.961 . S
C1679 C1676 1.539 . S
C1679 H1693 0.958 . S
C1679 H1694 0.961 . S
C1679 H1695 0.967 . S
H1680 C1664 0.931 . S
H1681 C1669 0.929 . S
H1682 C1670 0.960 1_455 S
H1683 C1670 0.962 . S
H1684 C1670 0.960 . S
H1685 C1671 0.961 . S
H1686 C1671 0.961 1_455 S
H1687 C1671 0.961 . S
H1688 C1672 0.931 . S
H1689 C1677 0.930 . S
H1690 C1678 0.982 . S
H1691 C1678 0.919 1_655 S
H1692 C1678 0.961 . S
H1693 C1679 0.958 . S
H1694 C1679 0.961 . S
H1695 C1679 0.967 . S
C1696 C1697 1.391 . S
C1696 C1698 1.394 . S
C1696 H1712 0.931 . S
C1697 C1696 1.391 . S
C1697 C1701 1.376 . S
C1698 C1696 1.394 . S
C1698 C1699 1.369 . S
C1698 C1702 1.531 . S
C1699 C1698 1.369 . S
C1699 C1700 1.410 . S
C1699 C1707 1.503 . S
C1700 C1699 1.410 . S
C1700 C1701 1.392 . S
C1700 C1703 1.511 . S
C1701 C1697 1.376 . S
C1701 C1700 1.392 . S
C1701 H1713 0.929 . S
C1702 C1698 1.531 . S
C1702 H1714 0.960 . S
C1702 H1715 0.962 . S
C1702 H1716 0.960 . S
C1703 C1700 1.511 . S
C1703 H1717 0.961 . S
C1703 H1718 0.961 . S
C1703 H1719 0.961 . S
C1704 C1705 1.370 . S
C1704 C1706 1.363 . S
C1704 H1720 0.931 . S
C1705 C1704 1.370 . S
C1705 C1709 1.408 . S
C1706 C1704 1.363 . S
C1706 C1707 1.370 . S
C1706 C1710 1.524 . S
C1707 C1699 1.503 . S
C1707 C1706 1.370 . S
C1707 C1708 1.403 . S
C1708 C1707 1.403 . S
C1708 C1709 1.404 . S
C1708 C1711 1.539 1_556 S
C1709 C1705 1.408 . S
C1709 C1708 1.404 . S
C1709 H1721 0.930 . S
C1710 C1706 1.524 . S
C1710 H1722 0.956 . S
C1710 H1723 0.961 . S
C1710 H1724 0.961 . S
C1711 C1708 1.539 1_554 S
C1711 H1725 0.958 . S
C1711 H1726 0.961 . S
C1711 H1727 0.960 . S
H1712 C1696 0.931 . S
H1713 C1701 0.929 . S
H1714 C1702 0.960 . S
H1715 C1702 0.962 . S
H1716 C1702 0.960 . S
H1717 C1703 0.961 . S
H1718 C1703 0.961 . S
H1719 C1703 0.961 . S
H1720 C1704 0.931 . S
H1721 C1709 0.930 . S
H1722 C1710 0.956 . S
H1723 C1710 0.961 . S
H1724 C1710 0.961 . S
H1725 C1711 0.958 . S
H1726 C1711 0.961 . S
H1727 C1711 0.960 . S
C1728 C1729 1.391 . S
C1728 C1730 1.394 . S
C1728 H1744 0.931 . S
C1729 C1728 1.391 . S
C1729 C1733 1.376 . S
C1730 C1728 1.394 . S
C1730 C1731 1.369 . S
C1730 C1734 1.531 . S
C1731 C1730 1.369 . S
C1731 C1732 1.410 . S
C1731 C1739 1.503 . S
C1732 C1731 1.410 . S
C1732 C1733 1.392 . S
C1732 C1735 1.511 . S
C1733 C1729 1.376 . S
C1733 C1732 1.392 . S
C1733 H1745 0.929 . S
C1734 C1730 1.531 . S
C1734 H1746 0.960 . S
C1734 H1747 0.962 . S
C1734 H1748 0.960 . S
C1735 C1732 1.511 . S
C1735 H1749 0.961 . S
C1735 H1750 0.961 . S
C1735 H1751 0.961 . S
C1736 C1737 1.370 . S
C1736 C1738 1.363 . S
C1736 H1752 0.931 . S
C1737 C1736 1.370 . S
C1737 C1741 1.408 . S
C1738 C1736 1.363 . S
C1738 C1739 1.370 . S
C1738 C1742 1.524 . S
C1739 C1731 1.503 . S
C1739 C1738 1.370 . S
C1739 C1740 1.403 . S
C1740 C1739 1.403 . S
C1740 C1741 1.404 . S
C1740 C1743 1.539 . S
C1741 C1737 1.408 . S
C1741 C1740 1.404 . S
C1741 H1753 0.930 . S
C1742 C1738 1.524 . S
C1742 H1754 0.956 . S
C1742 H1755 0.961 . S
C1742 H1756 0.961 . S
C1743 C1740 1.539 . S
C1743 H1757 0.958 . S
C1743 H1758 0.961 . S
C1743 H1759 0.960 . S
H1744 C1728 0.931 . S
H1745 C1733 0.929 . S
H1746 C1734 0.960 . S
H1747 C1734 0.962 . S
H1748 C1734 0.960 . S
H1749 C1735 0.961 . S
H1750 C1735 0.961 . S
H1751 C1735 0.961 . S
H1752 C1736 0.931 . S
H1753 C1741 0.930 . S
H1754 C1742 0.956 . S
H1755 C1742 0.961 . S
H1756 C1742 0.961 . S
H1757 C1743 0.958 . S
H1758 C1743 0.961 . S
H1759 C1743 0.960 . S
C1760 C1761 1.391 . S
C1760 C1762 1.394 . S
C1760 H1776 0.931 . S
C1761 C1760 1.391 . S
C1761 C1765 1.376 . S
C1762 C1760 1.394 . S
C1762 C1763 1.369 . S
C1762 C1766 1.531 . S
C1763 C1762 1.369 . S
C1763 C1764 1.410 . S
C1763 C1771 1.503 . S
C1764 C1763 1.410 . S
C1764 C1765 1.392 . S
C1764 C1767 1.511 . S
C1765 C1761 1.376 . S
C1765 C1764 1.392 . S
C1765 H1777 0.929 . S
C1766 C1762 1.531 . S
C1766 H1778 0.960 . S
C1766 H1779 0.962 . S
C1766 H1780 0.960 1_554 S
C1767 C1764 1.511 . S
C1767 H1781 0.961 . S
C1767 H1782 0.961 . S
C1767 H1783 0.961 . S
C1768 C1769 1.370 . S
C1768 C1770 1.363 . S
C1768 H1784 0.931 . S
C1769 C1768 1.370 . S
C1769 C1773 1.408 . S
C1770 C1768 1.363 . S
C1770 C1771 1.370 . S
C1770 C1774 1.524 . S
C1771 C1763 1.503 . S
C1771 C1770 1.370 . S
C1771 C1772 1.403 . S
C1772 C1771 1.403 . S
C1772 C1773 1.404 . S
C1772 C1775 1.539 1_554 S
C1773 C1769 1.408 . S
C1773 C1772 1.404 . S
C1773 H1785 0.930 . S
C1774 C1770 1.524 . S
C1774 H1786 0.956 . S
C1774 H1787 0.961 . S
C1774 H1788 0.961 . S
C1775 C1772 1.539 1_556 S
C1775 H1789 0.958 . S
C1775 H1790 0.961 . S
C1775 H1791 0.960 1_556 S
H1776 C1760 0.931 . S
H1777 C1765 0.929 . S
H1778 C1766 0.960 . S
H1779 C1766 0.962 . S
H1780 C1766 0.960 1_556 S
H1781 C1767 0.961 . S
H1782 C1767 0.961 . S
H1783 C1767 0.961 . S
H1784 C1768 0.931 . S
H1785 C1773 0.930 . S
H1786 C1774 0.956 . S
H1787 C1774 0.961 . S
H1788 C1774 0.961 . S
H1789 C1775 0.958 . S
H1790 C1775 0.961 . S
H1791 C1775 0.960 1_554 S
C1792 C1793 1.391 . S
C1792 C1794 1.394 . S
C1792 H1808 0.931 . S
C1793 C1792 1.391 . S
C1793 C1797 1.376 . S
C1794 C1792 1.394 . S
C1794 C1795 1.369 . S
C1794 C1798 1.531 . S
C1795 C1794 1.369 . S
C1795 C1796 1.410 . S
C1795 C1803 1.503 . S
C1796 C1795 1.410 . S
C1796 C1797 1.392 . S
C1796 C1799 1.511 . S
C1797 C1793 1.376 . S
C1797 C1796 1.392 . S
C1797 H1809 0.929 . S
C1798 C1794 1.531 . S
C1798 H1810 0.960 . S
C1798 H1811 0.962 . S
C1798 H1812 0.960 . S
C1799 C1796 1.511 . S
C1799 H1813 0.961 . S
C1799 H1814 0.961 . S
C1799 H1815 0.961 . S
C1800 C1801 1.370 . S
C1800 C1802 1.363 . S
C1800 H1816 0.931 . S
C1801 C1800 1.370 . S
C1801 C1805 1.408 . S
C1802 C1800 1.363 . S
C1802 C1803 1.370 . S
C1802 C1806 1.524 . S
C1803 C1795 1.503 . S
C1803 C1802 1.370 . S
C1803 C1804 1.403 . S
C1804 C1803 1.403 . S
C1804 C1805 1.404 . S
C1804 C1807 1.539 . S
C1805 C1801 1.408 . S
C1805 C1804 1.404 . S
C1805 H1817 0.930 . S
C1806 C1802 1.524 . S
C1806 H1818 0.956 . S
C1806 H1819 0.961 . S
C1806 H1820 0.961 . S
C1807 C1804 1.539 . S
C1807 H1821 0.958 . S
C1807 H1822 0.961 . S
C1807 H1823 0.960 . S
H1808 C1792 0.931 . S
H1809 C1797 0.929 . S
H1810 C1798 0.960 . S
H1811 C1798 0.962 . S
H1812 C1798 0.960 . S
H1813 C1799 0.961 . S
H1814 C1799 0.961 . S
H1815 C1799 0.961 . S
H1816 C1800 0.931 . S
H1817 C1805 0.930 . S
H1818 C1806 0.956 . S
H1819 C1806 0.961 . S
H1820 C1806 0.961 . S
H1821 C1807 0.958 . S
H1822 C1807 0.961 . S
H1823 C1807 0.960 . S
C1824 C1825 1.391 . S
C1824 C1826 1.394 . S
C1824 H1840 0.931 . S
C1825 C1824 1.391 . S
C1825 C1829 1.376 . S
C1826 C1824 1.394 . S
C1826 C1827 1.369 . S
C1826 C1830 1.531 . S
C1827 C1826 1.369 . S
C1827 C1828 1.410 . S
C1827 C1835 1.503 . S
C1828 C1827 1.410 . S
C1828 C1829 1.392 . S
C1828 C1831 1.511 . S
C1829 C1825 1.376 . S
C1829 C1828 1.392 . S
C1829 H1841 0.929 . S
C1830 C1826 1.531 . S
C1830 H1842 0.960 . S
C1830 H1843 0.962 . S
C1830 H1844 0.960 . S
C1831 C1828 1.511 . S
C1831 H1845 0.961 . S
C1831 H1846 0.961 . S
C1831 H1847 0.961 . S
C1832 C1833 1.370 . S
C1832 C1834 1.363 . S
C1832 H1848 0.931 . S
C1833 C1832 1.370 . S
C1833 C1837 1.408 . S
C1834 C1832 1.363 . S
C1834 C1835 1.370 . S
C1834 C1838 1.524 . S
C1835 C1827 1.503 . S
C1835 C1834 1.370 . S
C1835 C1836 1.403 . S
C1836 C1835 1.403 . S
C1836 C1837 1.404 . S
C1836 C1839 1.539 . S
C1837 C1833 1.408 . S
C1837 C1836 1.404 . S
C1837 H1849 0.930 . S
C1838 C1834 1.524 . S
C1838 H1850 0.956 . S
C1838 H1851 0.961 . S
C1838 H1852 0.961 . S
C1839 C1836 1.539 . S
C1839 H1853 0.958 . S
C1839 H1854 0.961 . S
C1839 H1855 0.960 . S
H1840 C1824 0.931 . S
H1841 C1829 0.929 . S
H1842 C1830 0.960 . S
H1843 C1830 0.962 . S
H1844 C1830 0.960 . S
H1845 C1831 0.961 . S
H1846 C1831 0.961 . S
H1847 C1831 0.961 . S
H1848 C1832 0.931 . S
H1849 C1837 0.930 . S
H1850 C1838 0.956 . S
H1851 C1838 0.961 . S
H1852 C1838 0.961 . S
H1853 C1839 0.958 . S
H1854 C1839 0.961 . S
H1855 C1839 0.960 . S
C1856 C1857 1.391 . S
C1856 C1858 1.394 . S
C1856 H1872 0.931 . S
C1857 C1856 1.391 . S
C1857 C1861 1.376 . S
C1858 C1856 1.394 . S
C1858 C1859 1.369 . S
C1858 C1862 1.531 . S
C1859 C1858 1.369 . S
C1859 C1860 1.410 . S
C1859 C1867 1.503 1_655 S
C1860 C1859 1.410 . S
C1860 C1861 1.392 . S
C1860 C1863 1.511 . S
C1861 C1857 1.376 . S
C1861 C1860 1.392 . S
C1861 H1873 0.929 . S
C1862 C1858 1.531 . S
C1862 H1874 0.960 1_655 S
C1862 H1875 0.962 . S
C1862 H1876 0.960 . S
C1863 C1860 1.511 . S
C1863 H1877 0.961 . S
C1863 H1878 0.961 1_655 S
C1863 H1879 0.961 . S
C1864 C1865 1.370 . S
C1864 C1866 1.363 . S
C1864 H1880 0.931 . S
C1865 C1864 1.370 . S
C1865 C1869 1.408 . S
C1866 C1864 1.363 . S
C1866 C1867 1.370 . S
C1866 C1870 1.524 . S
C1867 C1859 1.503 1_455 S
C1867 C1866 1.370 . S
C1867 C1868 1.403 . S
C1868 C1867 1.403 . S
C1868 C1869 1.404 . S
C1868 C1871 1.539 . S
C1869 C1865 1.408 . S
C1869 C1868 1.404 . S
C1869 H1881 0.930 . S
C1870 C1866 1.524 . S
C1870 H1882 0.982 . S
C1870 H1883 0.919 1_455 S
C1870 H1884 0.961 . S
C1871 C1868 1.539 . S
C1871 H1885 0.958 . S
C1871 H1886 0.961 . S
C1871 H1887 0.967 . S
H1872 C1856 0.931 . S
H1873 C1861 0.929 . S
H1874 C1862 0.960 1_455 S
H1875 C1862 0.962 . S
H1876 C1862 0.960 . S
H1877 C1863 0.961 . S
H1878 C1863 0.961 1_455 S
H1879 C1863 0.961 . S
H1880 C1864 0.931 . S
H1881 C1869 0.930 . S
H1882 C1870 0.982 . S
H1883 C1870 0.919 1_655 S
H1884 C1870 0.961 . S
H1885 C1871 0.958 . S
H1886 C1871 0.961 . S
H1887 C1871 0.967 . S
C1888 C1889 1.391 . S
C1888 C1890 1.394 . S
C1888 H1904 0.931 . S
C1889 C1888 1.391 . S
C1889 C1893 1.376 . S
C1890 C1888 1.394 . S
C1890 C1891 1.369 . S
C1890 C1894 1.531 . S
C1891 C1890 1.369 . S
C1891 C1892 1.410 . S
C1891 C1899 1.503 1_655 S
C1892 C1891 1.410 . S
C1892 C1893 1.392 . S
C1892 C1895 1.511 . S
C1893 C1889 1.376 . S
C1893 C1892 1.392 . S
C1893 H1905 0.929 . S
C1894 C1890 1.531 . S
C1894 H1906 0.960 1_655 S
C1894 H1907 0.962 . S
C1894 H1908 0.960 . S
C1895 C1892 1.511 . S
C1895 H1909 0.961 . S
C1895 H1910 0.961 1_655 S
C1895 H1911 0.961 . S
C1896 C1897 1.370 . S
C1896 C1898 1.363 . S
C1896 H1912 0.931 . S
C1897 C1896 1.370 . S
C1897 C1901 1.408 . S
C1898 C1896 1.363 . S
C1898 C1899 1.370 . S
C1898 C1902 1.524 . S
C1899 C1891 1.503 1_455 S
C1899 C1898 1.370 . S
C1899 C1900 1.403 . S
C1900 C1899 1.403 . S
C1900 C1901 1.404 . S
C1900 C1903 1.539 . S
C1901 C1897 1.408 . S
C1901 C1900 1.404 . S
C1901 H1913 0.930 . S
C1902 C1898 1.524 . S
C1902 H1914 0.982 . S
C1902 H1915 0.919 1_455 S
C1902 H1916 0.961 . S
C1903 C1900 1.539 . S
C1903 H1917 0.958 . S
C1903 H1918 0.961 . S
C1903 H1919 0.967 . S
H1904 C1888 0.931 . S
H1905 C1893 0.929 . S
H1906 C1894 0.960 1_455 S
H1907 C1894 0.962 . S
H1908 C1894 0.960 . S
H1909 C1895 0.961 . S
H1910 C1895 0.961 1_455 S
H1911 C1895 0.961 . S
H1912 C1896 0.931 . S
H1913 C1901 0.930 . S
H1914 C1902 0.982 . S
H1915 C1902 0.919 1_655 S
H1916 C1902 0.961 . S
H1917 C1903 0.958 . S
H1918 C1903 0.961 . S
H1919 C1903 0.967 . S
C1920 C1921 1.391 . S
C1920 C1922 1.394 . S
C1920 H1936 0.931 . S
C1921 C1920 1.391 . S
C1921 C1925 1.376 . S
C1922 C1920 1.394 . S
C1922 C1923 1.369 . S
C1922 C1926 1.531 . S
C1923 C1922 1.369 . S
C1923 C1924 1.410 . S
C1923 C1931 1.503 . S
C1924 C1923 1.410 . S
C1924 C1925 1.392 . S
C1924 C1927 1.511 . S
C1925 C1921 1.376 . S
C1925 C1924 1.392 . S
C1925 H1937 0.929 . S
C1926 C1922 1.531 . S
C1926 H1938 0.960 . S
C1926 H1939 0.962 . S
C1926 H1940 0.960 . S
C1927 C1924 1.511 . S
C1927 H1941 0.961 . S
C1927 H1942 0.961 . S
C1927 H1943 0.961 . S
C1928 C1929 1.370 . S
C1928 C1930 1.363 . S
C1928 H1944 0.931 . S
C1929 C1928 1.370 . S
C1929 C1933 1.408 . S
C1930 C1928 1.363 . S
C1930 C1931 1.370 . S
C1930 C1934 1.524 . S
C1931 C1923 1.503 . S
C1931 C1930 1.370 . S
C1931 C1932 1.403 . S
C1932 C1931 1.403 . S
C1932 C1933 1.404 . S
C1932 C1935 1.539 . S
C1933 C1929 1.408 . S
C1933 C1932 1.404 . S
C1933 H1945 0.930 . S
C1934 C1930 1.524 . S
C1934 H1946 0.956 . S
C1934 H1947 0.961 . S
C1934 H1948 0.961 . S
C1935 C1932 1.539 . S
C1935 H1949 0.958 . S
C1935 H1950 0.961 . S
C1935 H1951 0.960 . S
H1936 C1920 0.931 . S
H1937 C1925 0.929 . S
H1938 C1926 0.960 . S
H1939 C1926 0.962 . S
H1940 C1926 0.960 . S
H1941 C1927 0.961 . S
H1942 C1927 0.961 . S
H1943 C1927 0.961 . S
H1944 C1928 0.931 . S
H1945 C1933 0.930 . S
H1946 C1934 0.956 . S
H1947 C1934 0.961 . S
H1948 C1934 0.961 . S
H1949 C1935 0.958 . S
H1950 C1935 0.961 . S
H1951 C1935 0.960 . S
C1952 C1953 1.391 . S
C1952 C1954 1.394 . S
C1952 H1968 0.931 . S
C1953 C1952 1.391 . S
C1953 C1957 1.376 . S
C1954 C1952 1.394 . S
C1954 C1955 1.369 . S
C1954 C1958 1.531 . S
C1955 C1954 1.369 . S
C1955 C1956 1.410 . S
C1955 C1963 1.503 . S
C1956 C1955 1.410 . S
C1956 C1957 1.392 . S
C1956 C1959 1.511 . S
C1957 C1953 1.376 . S
C1957 C1956 1.392 . S
C1957 H1969 0.929 . S
C1958 C1954 1.531 . S
C1958 H1970 0.960 . S
C1958 H1971 0.962 . S
C1958 H1972 0.960 . S
C1959 C1956 1.511 . S
C1959 H1973 0.961 . S
C1959 H1974 0.961 . S
C1959 H1975 0.961 . S
C1960 C1961 1.370 . S
C1960 C1962 1.363 . S
C1960 H1976 0.931 . S
C1961 C1960 1.370 . S
C1961 C1965 1.408 . S
C1962 C1960 1.363 . S
C1962 C1963 1.370 . S
C1962 C1966 1.524 . S
C1963 C1955 1.503 . S
C1963 C1962 1.370 . S
C1963 C1964 1.403 . S
C1964 C1963 1.403 . S
C1964 C1965 1.404 . S
C1964 C1967 1.539 . S
C1965 C1961 1.408 . S
C1965 C1964 1.404 . S
C1965 H1977 0.930 . S
C1966 C1962 1.524 . S
C1966 H1978 0.956 . S
C1966 H1979 0.961 . S
C1966 H1980 0.961 . S
C1967 C1964 1.539 . S
C1967 H1981 0.958 . S
C1967 H1982 0.961 . S
C1967 H1983 0.960 . S
H1968 C1952 0.931 . S
H1969 C1957 0.929 . S
H1970 C1958 0.960 . S
H1971 C1958 0.962 . S
H1972 C1958 0.960 . S
H1973 C1959 0.961 . S
H1974 C1959 0.961 . S
H1975 C1959 0.961 . S
H1976 C1960 0.931 . S
H1977 C1965 0.930 . S
H1978 C1966 0.956 . S
H1979 C1966 0.961 . S
H1980 C1966 0.961 . S
H1981 C1967 0.958 . S
H1982 C1967 0.961 . S
H1983 C1967 0.960 . S
C1984 C1985 1.391 . S
C1984 C1986 1.394 . S
C1984 H2000 0.931 . S
C1985 C1984 1.391 . S
C1985 C1989 1.376 . S
C1986 C1984 1.394 . S
C1986 C1987 1.369 . S
C1986 C1990 1.531 . S
C1987 C1986 1.369 . S
C1987 C1988 1.410 . S
C1987 C1995 1.503 . S
C1988 C1987 1.410 . S
C1988 C1989 1.392 . S
C1988 C1991 1.511 . S
C1989 C1985 1.376 . S
C1989 C1988 1.392 . S
C1989 H2001 0.929 . S
C1990 C1986 1.531 . S
C1990 H2002 0.960 . S
C1990 H2003 0.962 . S
C1990 H2004 0.960 . S
C1991 C1988 1.511 . S
C1991 H2005 0.961 . S
C1991 H2006 0.961 . S
C1991 H2007 0.961 . S
C1992 C1993 1.370 . S
C1992 C1994 1.363 . S
C1992 H2008 0.931 . S
C1993 C1992 1.370 . S
C1993 C1997 1.408 . S
C1994 C1992 1.363 . S
C1994 C1995 1.370 . S
C1994 C1998 1.524 . S
C1995 C1987 1.503 . S
C1995 C1994 1.370 . S
C1995 C1996 1.403 . S
C1996 C1995 1.403 . S
C1996 C1997 1.404 . S
C1996 C1999 1.539 . S
C1997 C1993 1.408 . S
C1997 C1996 1.404 . S
C1997 H2009 0.930 . S
C1998 C1994 1.524 . S
C1998 H2010 0.956 . S
C1998 H2011 0.961 . S
C1998 H2012 0.961 . S
C1999 C1996 1.539 . S
C1999 H2013 0.958 . S
C1999 H2014 0.961 . S
C1999 H2015 0.960 . S
H2000 C1984 0.931 . S
H2001 C1989 0.929 . S
H2002 C1990 0.960 . S
H2003 C1990 0.962 . S
H2004 C1990 0.960 . S
H2005 C1991 0.961 . S
H2006 C1991 0.961 . S
H2007 C1991 0.961 . S
H2008 C1992 0.931 . S
H2009 C1997 0.930 . S
H2010 C1998 0.956 . S
H2011 C1998 0.961 . S
H2012 C1998 0.961 . S
H2013 C1999 0.958 . S
H2014 C1999 0.961 . S
H2015 C1999 0.960 . S
C2016 C2017 1.391 . S
C2016 C2018 1.394 . S
C2016 H2032 0.931 1_556 S
C2017 C2016 1.391 . S
C2017 C2021 1.376 . S
C2018 C2016 1.394 . S
C2018 C2019 1.369 . S
C2018 C2022 1.531 . S
C2019 C2018 1.369 . S
C2019 C2020 1.410 . S
C2019 C2027 1.503 . S
C2020 C2019 1.410 . S
C2020 C2021 1.392 . S
C2020 C2023 1.511 . S
C2021 C2017 1.376 . S
C2021 C2020 1.392 . S
C2021 H2033 0.929 . S
C2022 C2018 1.531 . S
C2022 H2034 0.960 . S
C2022 H2035 0.962 . S
C2022 H2036 0.960 . S
C2023 C2020 1.511 . S
C2023 H2037 0.961 . S
C2023 H2038 0.961 . S
C2023 H2039 0.961 . S
C2024 C2025 1.370 . S
C2024 C2026 1.363 . S
C2024 H2040 0.931 . S
C2025 C2024 1.370 . S
C2025 C2029 1.408 . S
C2026 C2024 1.363 . S
C2026 C2027 1.370 . S
C2026 C2030 1.524 . S
C2027 C2019 1.503 . S
C2027 C2026 1.370 . S
C2027 C2028 1.403 . S
C2028 C2027 1.403 . S
C2028 C2029 1.404 . S
C2028 C2031 1.539 . S
C2029 C2025 1.408 . S
C2029 C2028 1.404 . S
C2029 H2041 0.930 . S
C2030 C2026 1.524 . S
C2030 H2042 0.956 . S
C2030 H2043 0.961 . S
C2030 H2044 0.961 . S
C2031 C2028 1.539 . S
C2031 H2045 0.958 . S
C2031 H2046 0.961 . S
C2031 H2047 0.960 . S
H2032 C2016 0.931 1_554 S
H2033 C2021 0.929 . S
H2034 C2022 0.960 . S
H2035 C2022 0.962 . S
H2036 C2022 0.960 . S
H2037 C2023 0.961 . S
H2038 C2023 0.961 . S
H2039 C2023 0.961 . S
H2040 C2024 0.931 . S
H2041 C2029 0.930 . S
H2042 C2030 0.956 . S
H2043 C2030 0.961 . S
H2044 C2030 0.961 . S
H2045 C2031 0.958 . S
H2046 C2031 0.961 . S
H2047 C2031 0.960 . S
C2048 C2049 1.391 . S
C2048 C2050 1.394 . S
C2048 H2064 0.931 . S
C2049 C2048 1.391 . S
C2049 C2053 1.376 . S
C2050 C2048 1.394 . S
C2050 C2051 1.369 . S
C2050 C2054 1.531 . S
C2051 C2050 1.369 . S
C2051 C2052 1.410 . S
C2051 C2059 1.503 . S
C2052 C2051 1.410 . S
C2052 C2053 1.392 . S
C2052 C2055 1.511 . S
C2053 C2049 1.376 . S
C2053 C2052 1.392 . S
C2053 H2065 0.929 . S
C2054 C2050 1.531 . S
C2054 H2066 0.960 . S
C2054 H2067 0.962 . S
C2054 H2068 0.960 . S
C2055 C2052 1.511 . S
C2055 H2069 0.961 . S
C2055 H2070 0.961 . S
C2055 H2071 0.961 . S
C2056 C2057 1.370 . S
C2056 C2058 1.363 . S
C2056 H2072 0.931 . S
C2057 C2056 1.370 . S
C2057 C2061 1.408 . S
C2058 C2056 1.363 . S
C2058 C2059 1.370 . S
C2058 C2062 1.524 . S
C2059 C2051 1.503 . S
C2059 C2058 1.370 . S
C2059 C2060 1.403 . S
C2060 C2059 1.403 . S
C2060 C2061 1.404 . S
C2060 C2063 1.539 . S
C2061 C2057 1.408 . S
C2061 C2060 1.404 . S
C2061 H2073 0.930 . S
C2062 C2058 1.524 . S
C2062 H2074 0.956 . S
C2062 H2075 0.961 . S
C2062 H2076 0.961 . S
C2063 C2060 1.539 . S
C2063 H2077 0.958 . S
C2063 H2078 0.961 . S
C2063 H2079 0.960 . S
H2064 C2048 0.931 . S
H2065 C2053 0.929 . S
H2066 C2054 0.960 . S
H2067 C2054 0.962 . S
H2068 C2054 0.960 . S
H2069 C2055 0.961 . S
H2070 C2055 0.961 . S
H2071 C2055 0.961 . S
H2072 C2056 0.931 . S
H2073 C2061 0.930 . S
H2074 C2062 0.956 . S
H2075 C2062 0.961 . S
H2076 C2062 0.961 . S
H2077 C2063 0.958 . S
H2078 C2063 0.961 . S
H2079 C2063 0.960 . S
C2080 C2081 1.391 . S
C2080 C2082 1.394 . S
C2080 H2096 0.931 . S
C2081 C2080 1.391 . S
C2081 C2085 1.376 . S
C2082 C2080 1.394 . S
C2082 C2083 1.369 . S
C2082 C2086 1.531 . S
C2083 C2082 1.369 . S
C2083 C2084 1.410 . S
C2083 C2091 1.503 . S
C2084 C2083 1.410 . S
C2084 C2085 1.392 . S
C2084 C2087 1.511 . S
C2085 C2081 1.376 . S
C2085 C2084 1.392 . S
C2085 H2097 0.929 . S
C2086 C2082 1.531 . S
C2086 H2098 0.960 . S
C2086 H2099 0.962 . S
C2086 H2100 0.960 . S
C2087 C2084 1.511 . S
C2087 H2101 0.961 . S
C2087 H2102 0.961 . S
C2087 H2103 0.961 . S
C2088 C2089 1.370 . S
C2088 C2090 1.363 . S
C2088 H2104 0.931 . S
C2089 C2088 1.370 . S
C2089 C2093 1.408 . S
C2090 C2088 1.363 . S
C2090 C2091 1.370 . S
C2090 C2094 1.524 . S
C2091 C2083 1.503 . S
C2091 C2090 1.370 . S
C2091 C2092 1.403 . S
C2092 C2091 1.403 . S
C2092 C2093 1.404 . S
C2092 C2095 1.539 . S
C2093 C2089 1.408 . S
C2093 C2092 1.404 . S
C2093 H2105 0.930 . S
C2094 C2090 1.524 . S
C2094 H2106 0.956 . S
C2094 H2107 0.961 . S
C2094 H2108 0.961 . S
C2095 C2092 1.539 . S
C2095 H2109 0.958 . S
C2095 H2110 0.961 . S
C2095 H2111 0.960 . S
H2096 C2080 0.931 . S
H2097 C2085 0.929 . S
H2098 C2086 0.960 . S
H2099 C2086 0.962 . S
H2100 C2086 0.960 . S
H2101 C2087 0.961 . S
H2102 C2087 0.961 . S
H2103 C2087 0.961 . S
H2104 C2088 0.931 . S
H2105 C2093 0.930 . S
H2106 C2094 0.956 . S
H2107 C2094 0.961 . S
H2108 C2094 0.961 . S
H2109 C2095 0.958 . S
H2110 C2095 0.961 . S
H2111 C2095 0.960 . S
C2112 C2113 1.391 . S
C2112 C2114 1.394 . S
C2112 H2128 0.931 . S
C2113 C2112 1.391 . S
C2113 C2117 1.376 . S
C2114 C2112 1.394 . S
C2114 C2115 1.369 . S
C2114 C2118 1.531 . S
C2115 C2114 1.369 . S
C2115 C2116 1.410 . S
C2115 C2123 1.503 . S
C2116 C2115 1.410 . S
C2116 C2117 1.392 . S
C2116 C2119 1.511 . S
C2117 C2113 1.376 . S
C2117 C2116 1.392 . S
C2117 H2129 0.929 . S
C2118 C2114 1.531 . S
C2118 H2130 0.960 . S
C2118 H2131 0.962 . S
C2118 H2132 0.960 . S
C2119 C2116 1.511 . S
C2119 H2133 0.961 . S
C2119 H2134 0.961 . S
C2119 H2135 0.961 . S
C2120 C2121 1.370 . S
C2120 C2122 1.363 . S
C2120 H2136 0.931 . S
C2121 C2120 1.370 . S
C2121 C2125 1.408 . S
C2122 C2120 1.363 . S
C2122 C2123 1.370 . S
C2122 C2126 1.524 . S
C2123 C2115 1.503 . S
C2123 C2122 1.370 . S
C2123 C2124 1.403 . S
C2124 C2123 1.403 . S
C2124 C2125 1.404 . S
C2124 C2127 1.539 . S
C2125 C2121 1.408 . S
C2125 C2124 1.404 . S
C2125 H2137 0.930 . S
C2126 C2122 1.524 . S
C2126 H2138 0.956 . S
C2126 H2139 0.961 . S
C2126 H2140 0.961 . S
C2127 C2124 1.539 . S
C2127 H2141 0.958 . S
C2127 H2142 0.961 . S
C2127 H2143 0.960 . S
H2128 C2112 0.931 . S
H2129 C2117 0.929 . S
H2130 C2118 0.960 . S
H2131 C2118 0.962 . S
H2132 C2118 0.960 . S
H2133 C2119 0.961 . S
H2134 C2119 0.961 . S
H2135 C2119 0.961 . S
H2136 C2120 0.931 . S
H2137 C2125 0.930 . S
H2138 C2126 0.956 . S
H2139 C2126 0.961 . S
H2140 C2126 0.961 . S
H2141 C2127 0.958 . S
H2142 C2127 0.961 . S
H2143 C2127 0.960 . S
C2144 C2145 1.391 . S
C2144 C2146 1.394 . S
C2144 H2160 0.931 . S
C2145 C2144 1.391 . S
C2145 C2149 1.376 . S
C2146 C2144 1.394 . S
C2146 C2147 1.369 . S
C2146 C2150 1.531 . S
C2147 C2146 1.369 . S
C2147 C2148 1.410 . S
C2147 C2155 1.503 . S
C2148 C2147 1.410 . S
C2148 C2149 1.392 . S
C2148 C2151 1.511 . S
C2149 C2145 1.376 . S
C2149 C2148 1.392 . S
C2149 H2161 0.929 . S
C2150 C2146 1.531 . S
C2150 H2162 0.960 . S
C2150 H2163 0.962 . S
C2150 H2164 0.960 . S
C2151 C2148 1.511 . S
C2151 H2165 0.961 . S
C2151 H2166 0.961 . S
C2151 H2167 0.961 . S
C2152 C2153 1.368 1_556 S
C2152 C2154 1.350 1_556 S
C2152 H2168 0.947 . S
C2153 C2152 1.368 1_554 S
C2153 C2157 1.408 . S
C2154 C2152 1.350 1_554 S
C2154 C2155 1.370 . S
C2154 C2158 1.524 . S
C2155 C2147 1.503 . S
C2155 C2154 1.370 . S
C2155 C2156 1.403 . S
C2156 C2155 1.403 . S
C2156 C2157 1.404 . S
C2156 C2159 1.539 . S
C2157 C2153 1.408 . S
C2157 C2156 1.404 . S
C2157 H2169 0.930 . S
C2158 C2154 1.524 . S
C2158 H2170 0.956 . S
C2158 H2171 0.961 . S
C2158 H2172 0.961 1_554 S
C2159 C2156 1.539 . S
C2159 H2173 0.958 . S
C2159 H2174 0.961 . S
C2159 H2175 0.960 . S
H2160 C2144 0.931 . S
H2161 C2149 0.929 . S
H2162 C2150 0.960 . S
H2163 C2150 0.962 . S
H2164 C2150 0.960 . S
H2165 C2151 0.961 . S
H2166 C2151 0.961 . S
H2167 C2151 0.961 . S
H2168 C2152 0.947 . S
H2169 C2157 0.930 . S
H2170 C2158 0.956 . S
H2171 C2158 0.961 . S
H2172 C2158 0.961 1_556 S
H2173 C2159 0.958 . S
H2174 C2159 0.961 . S
H2175 C2159 0.960 . S
C2176 C2177 1.391 . S
C2176 C2178 1.394 . S
C2176 H2192 0.931 . S
C2177 C2176 1.391 . S
C2177 C2181 1.376 . S
C2178 C2176 1.394 . S
C2178 C2179 1.369 . S
C2178 C2182 1.531 . S
C2179 C2178 1.369 . S
C2179 C2180 1.410 . S
C2179 C2187 1.503 . S
C2180 C2179 1.410 . S
C2180 C2181 1.392 . S
C2180 C2183 1.511 . S
C2181 C2177 1.376 . S
C2181 C2180 1.392 . S
C2181 H2193 0.929 . S
C2182 C2178 1.531 . S
C2182 H2194 0.960 . S
C2182 H2195 0.962 . S
C2182 H2196 0.960 . S
C2183 C2180 1.511 . S
C2183 H2197 0.961 . S
C2183 H2198 0.961 . S
C2183 H2199 0.961 . S
C2184 C2185 1.370 . S
C2184 C2186 1.363 . S
C2184 H2200 0.931 . S
C2185 C2184 1.370 . S
C2185 C2189 1.408 . S
C2186 C2184 1.363 . S
C2186 C2187 1.370 . S
C2186 C2190 1.524 . S
C2187 C2179 1.503 . S
C2187 C2186 1.370 . S
C2187 C2188 1.403 . S
C2188 C2187 1.403 . S
C2188 C2189 1.404 . S
C2188 C2191 1.539 . S
C2189 C2185 1.408 . S
C2189 C2188 1.404 . S
C2189 H2201 0.930 . S
C2190 C2186 1.524 . S
C2190 H2202 0.956 . S
C2190 H2203 0.961 . S
C2190 H2204 0.961 . S
C2191 C2188 1.539 . S
C2191 H2205 0.958 . S
C2191 H2206 0.961 . S
C2191 H2207 0.960 . S
H2192 C2176 0.931 . S
H2193 C2181 0.929 . S
H2194 C2182 0.960 . S
H2195 C2182 0.962 . S
H2196 C2182 0.960 . S
H2197 C2183 0.961 . S
H2198 C2183 0.961 . S
H2199 C2183 0.961 . S
H2200 C2184 0.931 . S
H2201 C2189 0.930 . S
H2202 C2190 0.956 . S
H2203 C2190 0.961 . S
H2204 C2190 0.961 . S
H2205 C2191 0.958 . S
H2206 C2191 0.961 . S
H2207 C2191 0.960 . S
C2208 C2209 1.391 . S
C2208 C2210 1.394 . S
C2208 H2224 0.931 . S
C2209 C2208 1.391 . S
C2209 C2213 1.376 . S
C2210 C2208 1.394 . S
C2210 C2211 1.369 . S
C2210 C2214 1.531 . S
C2211 C2210 1.369 . S
C2211 C2212 1.410 . S
C2211 C2219 1.503 . S
C2212 C2211 1.410 . S
C2212 C2213 1.392 . S
C2212 C2215 1.511 . S
C2213 C2209 1.376 . S
C2213 C2212 1.392 . S
C2213 H2225 0.928 1_556 S
C2214 C2210 1.531 . S
C2214 H2226 0.960 . S
C2214 H2227 0.962 . S
C2214 H2228 0.960 . S
C2215 C2212 1.511 . S
C2215 H2229 0.961 . S
C2215 H2230 0.961 . S
C2215 H2231 0.961 . S
C2216 C2217 1.370 . S
C2216 C2218 1.363 . S
C2216 H2232 0.931 . S
C2217 C2216 1.370 . S
C2217 C2221 1.408 . S
C2218 C2216 1.363 . S
C2218 C2219 1.370 . S
C2218 C2222 1.524 . S
C2219 C2211 1.503 . S
C2219 C2218 1.370 . S
C2219 C2220 1.403 . S
C2220 C2219 1.403 . S
C2220 C2221 1.404 . S
C2220 C2223 1.539 . S
C2221 C2217 1.408 . S
C2221 C2220 1.404 . S
C2221 H2233 0.930 . S
C2222 C2218 1.524 . S
C2222 H2234 0.956 . S
C2222 H2235 0.961 . S
C2222 H2236 0.961 . S
C2223 C2220 1.539 . S
C2223 H2237 0.958 . S
C2223 H2238 0.961 . S
C2223 H2239 0.960 . S
H2224 C2208 0.931 . S
H2225 C2213 0.928 1_554 S
H2226 C2214 0.960 . S
H2227 C2214 0.962 . S
H2228 C2214 0.960 . S
H2229 C2215 0.961 . S
H2230 C2215 0.961 . S
H2231 C2215 0.961 . S
H2232 C2216 0.931 . S
H2233 C2221 0.930 . S
H2234 C2222 0.956 . S
H2235 C2222 0.961 . S
H2236 C2222 0.961 . S
H2237 C2223 0.958 . S
H2238 C2223 0.961 . S
H2239 C2223 0.960 . S
C2240 C2241 1.391 . S
C2240 C2242 1.394 . S
C2240 H2256 0.931 . S
C2241 C2240 1.391 . S
C2241 C2245 1.376 . S
C2242 C2240 1.394 . S
C2242 C2243 1.369 . S
C2242 C2246 1.531 . S
C2243 C2242 1.369 . S
C2243 C2244 1.410 . S
C2243 C2251 1.503 . S
C2244 C2243 1.410 . S
C2244 C2245 1.392 . S
C2244 C2247 1.511 . S
C2245 C2241 1.376 . S
C2245 C2244 1.392 . S
C2245 H2257 0.929 . S
C2246 C2242 1.531 . S
C2246 H2258 0.960 . S
C2246 H2259 0.962 . S
C2246 H2260 0.960 . S
C2247 C2244 1.511 . S
C2247 H2261 0.961 . S
C2247 H2262 0.961 . S
C2247 H2263 0.961 . S
C2248 C2249 1.370 . S
C2248 C2250 1.363 . S
C2248 H2264 0.931 . S
C2249 C2248 1.370 . S
C2249 C2253 1.408 . S
C2250 C2248 1.363 . S
C2250 C2251 1.370 . S
C2250 C2254 1.524 . S
C2251 C2243 1.503 . S
C2251 C2250 1.370 . S
C2251 C2252 1.403 . S
C2252 C2251 1.403 . S
C2252 C2253 1.404 . S
C2252 C2255 1.539 . S
C2253 C2249 1.408 . S
C2253 C2252 1.404 . S
C2253 H2265 0.930 1_554 S
C2254 C2250 1.524 . S
C2254 H2266 0.956 . S
C2254 H2267 0.961 . S
C2254 H2268 0.961 . S
C2255 C2252 1.539 . S
C2255 H2269 0.958 . S
C2255 H2270 0.961 . S
C2255 H2271 0.960 . S
H2256 C2240 0.931 . S
H2257 C2245 0.929 . S
H2258 C2246 0.960 . S
H2259 C2246 0.962 . S
H2260 C2246 0.960 . S
H2261 C2247 0.961 . S
H2262 C2247 0.961 . S
H2263 C2247 0.961 . S
H2264 C2248 0.931 . S
H2265 C2253 0.930 1_556 S
H2266 C2254 0.956 . S
H2267 C2254 0.961 . S
H2268 C2254 0.961 . S
H2269 C2255 0.958 . S
H2270 C2255 0.961 . S
H2271 C2255 0.960 . S
C2272 C2273 1.391 . S
C2272 C2274 1.394 . S
C2272 H2288 0.931 . S
C2273 C2272 1.391 . S
C2273 C2277 1.376 . S
C2274 C2272 1.394 . S
C2274 C2275 1.369 . S
C2274 C2278 1.531 . S
C2275 C2274 1.369 . S
C2275 C2276 1.410 . S
C2275 C2283 1.503 . S
C2276 C2275 1.410 . S
C2276 C2277 1.392 . S
C2276 C2279 1.511 . S
C2277 C2273 1.376 . S
C2277 C2276 1.392 . S
C2277 H2289 0.929 . S
C2278 C2274 1.531 . S
C2278 H2290 0.960 . S
C2278 H2291 0.962 . S
C2278 H2292 0.960 . S
C2279 C2276 1.511 . S
C2279 H2293 0.961 . S
C2279 H2294 0.961 . S
C2279 H2295 0.961 . S
C2280 C2281 1.370 . S
C2280 C2282 1.363 . S
C2280 H2296 0.931 . S
C2281 C2280 1.370 . S
C2281 C2285 1.408 . S
C2282 C2280 1.363 . S
C2282 C2283 1.370 . S
C2282 C2286 1.524 . S
C2283 C2275 1.503 . S
C2283 C2282 1.370 . S
C2283 C2284 1.403 . S
C2284 C2283 1.403 . S
C2284 C2285 1.404 . S
C2284 C2287 1.539 . S
C2285 C2281 1.408 . S
C2285 C2284 1.404 . S
C2285 H2297 0.930 . S
C2286 C2282 1.524 . S
C2286 H2298 0.956 . S
C2286 H2299 0.961 . S
C2286 H2300 0.961 . S
C2287 C2284 1.539 . S
C2287 H2301 0.958 . S
C2287 H2302 0.961 . S
C2287 H2303 0.960 . S
H2288 C2272 0.931 . S
H2289 C2277 0.929 . S
H2290 C2278 0.960 . S
H2291 C2278 0.962 . S
H2292 C2278 0.960 . S
H2293 C2279 0.961 . S
H2294 C2279 0.961 . S
H2295 C2279 0.961 . S
H2296 C2280 0.931 . S
H2297 C2285 0.930 . S
H2298 C2286 0.956 . S
H2299 C2286 0.961 . S
H2300 C2286 0.961 . S
H2301 C2287 0.958 . S
H2302 C2287 0.961 . S
H2303 C2287 0.960 . S
C2304 C2305 1.391 . S
C2304 C2306 1.394 . S
C2304 H2320 0.931 . S
C2305 C2304 1.391 . S
C2305 C2309 1.376 . S
C2306 C2304 1.394 . S
C2306 C2307 1.369 . S
C2306 C2310 1.531 . S
C2307 C2306 1.369 . S
C2307 C2308 1.410 . S
C2307 C2315 1.503 . S
C2308 C2307 1.410 . S
C2308 C2309 1.392 . S
C2308 C2311 1.511 . S
C2309 C2305 1.376 . S
C2309 C2308 1.392 . S
C2309 H2321 0.929 . S
C2310 C2306 1.531 . S
C2310 H2322 0.960 . S
C2310 H2323 0.962 . S
C2310 H2324 0.960 . S
C2311 C2308 1.511 . S
C2311 H2325 0.961 . S
C2311 H2326 0.961 . S
C2311 H2327 0.961 . S
C2312 C2313 1.370 . S
C2312 C2314 1.363 . S
C2312 H2328 0.931 . S
C2313 C2312 1.370 . S
C2313 C2317 1.408 . S
C2314 C2312 1.363 . S
C2314 C2315 1.370 . S
C2314 C2318 1.524 . S
C2315 C2307 1.503 . S
C2315 C2314 1.370 . S
C2315 C2316 1.403 . S
C2316 C2315 1.403 . S
C2316 C2317 1.404 . S
C2316 C2319 1.539 . S
C2317 C2313 1.408 . S
C2317 C2316 1.404 . S
C2317 H2329 0.930 . S
C2318 C2314 1.524 . S
C2318 H2330 0.956 . S
C2318 H2331 0.961 . S
C2318 H2332 0.961 . S
C2319 C2316 1.539 . S
C2319 H2333 0.958 . S
C2319 H2334 0.961 . S
C2319 H2335 0.960 . S
H2320 C2304 0.931 . S
H2321 C2309 0.929 . S
H2322 C2310 0.960 . S
H2323 C2310 0.962 . S
H2324 C2310 0.960 . S
H2325 C2311 0.961 . S
H2326 C2311 0.961 . S
H2327 C2311 0.961 . S
H2328 C2312 0.931 . S
H2329 C2317 0.930 . S
H2330 C2318 0.956 . S
H2331 C2318 0.961 . S
H2332 C2318 0.961 . S
H2333 C2319 0.958 . S
H2334 C2319 0.961 . S
H2335 C2319 0.960 . S
C2336 C2337 1.391 . S
C2336 C2338 1.394 . S
C2336 H2352 0.931 . S
C2337 C2336 1.391 . S
C2337 C2341 1.376 . S
C2338 C2336 1.394 . S
C2338 C2339 1.369 . S
C2338 C2342 1.531 . S
C2339 C2338 1.369 . S
C2339 C2340 1.410 . S
C2339 C2347 1.503 . S
C2340 C2339 1.410 . S
C2340 C2341 1.392 . S
C2340 C2343 1.511 . S
C2341 C2337 1.376 . S
C2341 C2340 1.392 . S
C2341 H2353 0.929 . S
C2342 C2338 1.531 . S
C2342 H2354 0.960 . S
C2342 H2355 0.962 . S
C2342 H2356 0.960 . S
C2343 C2340 1.511 . S
C2343 H2357 0.961 . S
C2343 H2358 0.961 . S
C2343 H2359 0.961 . S
C2344 C2345 1.370 . S
C2344 C2346 1.363 . S
C2344 H2360 0.931 . S
C2345 C2344 1.370 . S
C2345 C2349 1.408 . S
C2346 C2344 1.363 . S
C2346 C2347 1.370 . S
C2346 C2350 1.524 . S
C2347 C2339 1.503 . S
C2347 C2346 1.370 . S
C2347 C2348 1.403 . S
C2348 C2347 1.403 . S
C2348 C2349 1.404 . S
C2348 C2351 1.539 . S
C2349 C2345 1.408 . S
C2349 C2348 1.404 . S
C2349 H2361 0.930 1_554 S
C2350 C2346 1.524 . S
C2350 H2362 0.956 . S
C2350 H2363 0.961 . S
C2350 H2364 0.961 . S
C2351 C2348 1.539 . S
C2351 H2365 0.958 . S
C2351 H2366 0.961 . S
C2351 H2367 0.960 . S
H2352 C2336 0.931 . S
H2353 C2341 0.929 . S
H2354 C2342 0.960 . S
H2355 C2342 0.962 . S
H2356 C2342 0.960 . S
H2357 C2343 0.961 . S
H2358 C2343 0.961 . S
H2359 C2343 0.961 . S
H2360 C2344 0.931 . S
H2361 C2349 0.930 1_556 S
H2362 C2350 0.956 . S
H2363 C2350 0.961 . S
H2364 C2350 0.961 . S
H2365 C2351 0.958 . S
H2366 C2351 0.961 . S
H2367 C2351 0.960 . S
C2368 C2369 1.391 . S
C2368 C2370 1.394 . S
C2368 H2384 0.931 1_556 S
C2369 C2368 1.391 . S
C2369 C2373 1.376 . S
C2370 C2368 1.394 . S
C2370 C2371 1.369 . S
C2370 C2374 1.531 . S
C2371 C2370 1.369 . S
C2371 C2372 1.410 . S
C2371 C2379 1.503 . S
C2372 C2371 1.410 . S
C2372 C2373 1.392 . S
C2372 C2375 1.511 . S
C2373 C2369 1.376 . S
C2373 C2372 1.392 . S
C2373 H2385 0.929 . S
C2374 C2370 1.531 . S
C2374 H2386 0.960 . S
C2374 H2387 0.962 . S
C2374 H2388 0.960 . S
C2375 C2372 1.511 . S
C2375 H2389 0.961 . S
C2375 H2390 0.961 . S
C2375 H2391 0.961 . S
C2376 C2377 1.370 . S
C2376 C2378 1.363 . S
C2376 H2392 0.931 . S
C2377 C2376 1.370 . S
C2377 C2381 1.408 . S
C2378 C2376 1.363 . S
C2378 C2379 1.370 . S
C2378 C2382 1.524 . S
C2379 C2371 1.503 . S
C2379 C2378 1.370 . S
C2379 C2380 1.403 . S
C2380 C2379 1.403 . S
C2380 C2381 1.404 . S
C2380 C2383 1.539 . S
C2381 C2377 1.408 . S
C2381 C2380 1.404 . S
C2381 H2393 0.930 . S
C2382 C2378 1.524 . S
C2382 H2394 0.956 . S
C2382 H2395 0.961 . S
C2382 H2396 0.961 . S
C2383 C2380 1.539 . S
C2383 H2397 0.958 . S
C2383 H2398 0.961 . S
C2383 H2399 0.960 . S
H2384 C2368 0.931 1_554 S
H2385 C2373 0.929 . S
H2386 C2374 0.960 . S
H2387 C2374 0.962 . S
H2388 C2374 0.960 . S
H2389 C2375 0.961 . S
H2390 C2375 0.961 . S
H2391 C2375 0.961 . S
H2392 C2376 0.931 . S
H2393 C2381 0.930 . S
H2394 C2382 0.956 . S
H2395 C2382 0.961 . S
H2396 C2382 0.961 . S
H2397 C2383 0.958 . S
H2398 C2383 0.961 . S
H2399 C2383 0.960 . S
C2400 C2401 1.391 . S
C2400 C2402 1.394 . S
C2400 H2416 0.931 . S
C2401 C2400 1.391 . S
C2401 C2405 1.376 . S
C2402 C2400 1.394 . S
C2402 C2403 1.369 . S
C2402 C2406 1.531 . S
C2403 C2402 1.369 . S
C2403 C2404 1.410 . S
C2403 C2411 1.503 . S
C2404 C2403 1.410 . S
C2404 C2405 1.392 . S
C2404 C2407 1.511 . S
C2405 C2401 1.376 . S
C2405 C2404 1.392 . S
C2405 H2417 0.929 . S
C2406 C2402 1.531 . S
C2406 H2418 0.960 . S
C2406 H2419 0.962 . S
C2406 H2420 0.960 . S
C2407 C2404 1.511 . S
C2407 H2421 0.961 . S
C2407 H2422 0.961 . S
C2407 H2423 0.961 . S
C2408 C2409 1.370 . S
C2408 C2410 1.363 . S
C2408 H2424 0.931 . S
C2409 C2408 1.370 . S
C2409 C2413 1.408 . S
C2410 C2408 1.363 . S
C2410 C2411 1.370 . S
C2410 C2414 1.524 . S
C2411 C2403 1.503 . S
C2411 C2410 1.370 . S
C2411 C2412 1.403 . S
C2412 C2411 1.403 . S
C2412 C2413 1.404 . S
C2412 C2415 1.539 . S
C2413 C2409 1.408 . S
C2413 C2412 1.404 . S
C2413 H2425 0.930 . S
C2414 C2410 1.524 . S
C2414 H2426 0.956 . S
C2414 H2427 0.961 . S
C2414 H2428 0.961 . S
C2415 C2412 1.539 . S
C2415 H2429 0.958 . S
C2415 H2430 0.961 . S
C2415 H2431 0.960 . S
H2416 C2400 0.931 . S
H2417 C2405 0.929 . S
H2418 C2406 0.960 . S
H2419 C2406 0.962 . S
H2420 C2406 0.960 . S
H2421 C2407 0.961 . S
H2422 C2407 0.961 . S
H2423 C2407 0.961 . S
H2424 C2408 0.931 . S
H2425 C2413 0.930 . S
H2426 C2414 0.956 . S
H2427 C2414 0.961 . S
H2428 C2414 0.961 . S
H2429 C2415 0.958 . S
H2430 C2415 0.961 . S
H2431 C2415 0.960 . S
C2432 C2433 1.391 . S
C2432 C2434 1.394 . S
C2432 H2448 0.931 . S
C2433 C2432 1.391 . S
C2433 C2437 1.376 . S
C2434 C2432 1.394 . S
C2434 C2435 1.369 . S
C2434 C2438 1.531 . S
C2435 C2434 1.369 . S
C2435 C2436 1.410 . S
C2435 C2443 1.503 . S
C2436 C2435 1.410 . S
C2436 C2437 1.392 . S
C2436 C2439 1.511 . S
C2437 C2433 1.376 . S
C2437 C2436 1.392 . S
C2437 H2449 0.929 . S
C2438 C2434 1.531 . S
C2438 H2450 0.960 . S
C2438 H2451 0.962 . S
C2438 H2452 0.960 . S
C2439 C2436 1.511 . S
C2439 H2453 0.961 . S
C2439 H2454 0.961 . S
C2439 H2455 0.961 . S
C2440 C2441 1.370 . S
C2440 C2442 1.363 . S
C2440 H2456 0.931 . S
C2441 C2440 1.370 . S
C2441 C2445 1.408 . S
C2442 C2440 1.363 . S
C2442 C2443 1.370 . S
C2442 C2446 1.524 . S
C2443 C2435 1.503 . S
C2443 C2442 1.370 . S
C2443 C2444 1.403 . S
C2444 C2443 1.403 . S
C2444 C2445 1.404 . S
C2444 C2447 1.539 . S
C2445 C2441 1.408 . S
C2445 C2444 1.404 . S
C2445 H2457 0.930 . S
C2446 C2442 1.524 . S
C2446 H2458 0.956 . S
C2446 H2459 0.961 . S
C2446 H2460 0.961 . S
C2447 C2444 1.539 . S
C2447 H2461 0.958 . S
C2447 H2462 0.961 . S
C2447 H2463 0.960 . S
H2448 C2432 0.931 . S
H2449 C2437 0.929 . S
H2450 C2438 0.960 . S
H2451 C2438 0.962 . S
H2452 C2438 0.960 . S
H2453 C2439 0.961 . S
H2454 C2439 0.961 . S
H2455 C2439 0.961 . S
H2456 C2440 0.931 . S
H2457 C2445 0.930 . S
H2458 C2446 0.956 . S
H2459 C2446 0.961 . S
H2460 C2446 0.961 . S
H2461 C2447 0.958 . S
H2462 C2447 0.961 . S
H2463 C2447 0.960 . S
C417 C81 1.555 . S
C425 C3 1.554 . S
C449 C16 1.556 . S
C457 C94 1.554 . S
C481 C57 1.557 . S
C489 C29 1.553 . S
C513 C42 1.553 . S
C521 C70 1.555 . S
C545 C107 1.554 . S
C553 C187 1.555 . S
C577 C200 1.547 . S
C585 C122 1.558 . S
C609 C133 1.549 . S
C617 C161 1.557 . S
C641 C172 1.550 . S
C649 C146 1.557 . S
C673 C211 1.555 . S
C681 C291 1.554 . S
C705 C226 1.550 . S
C713 C304 1.557 . S
C737 C265 1.553 . S
C745 C239 1.555 . S
C769 C276 1.552 . S
C777 C250 1.556 . S
C801 C315 1.547 . S
C809 C395 1.558 . S
C833 C328 1.557 . S
C841 C408 1.553 . S
C865 C367 1.555 . S
C873 C341 1.554 . S
C897 C354 1.556 . S
C905 C380 1.554 . S
C929 C10 1.586 1_556 S
C937 C101 1.595 . S
C961 C56 1.587 1_554 S
C969 C23 1.595 . S
C993 C69 1.603 . S
C1001 C36 1.591 . S
C1025 C49 1.587 . S
C1033 C88 1.600 . S
C1057 C114 1.604 1_554 S
C1065 C199 1.593 . S
C1089 C160 1.588 1_556 S
C1097 C121 1.593 . S
C1121 C179 1.579 . S
C1129 C140 1.600 . S
C1153 C186 1.601 . S
C1161 C153 1.596 . S
C1185 C218 1.579 . S
C1193 C303 1.601 . S
C1217 C225 1.596 . S
C1225 C264 1.597 . S
C1249 C283 1.595 . S
C1257 C238 1.592 1_556 S
C1281 C257 1.600 . S
C1289 C290 1.591 1_554 S
C1313 C322 1.598 . S
C1321 C407 1.597 . S
C1345 C374 1.603 . S
C1353 C335 1.594 . S
C1377 C348 1.587 1_554 S
C1385 C387 1.593 . S
C1409 C361 1.602 . S
C1417 C394 1.591 1_556 S
C1441 C393 1.541 . S
C1449 C5 1.550 . S
C1473 C198 1.543 . S
C1481 C18 1.551 . S
C1505 C31 1.557 . S
C1513 C369 1.556 . S
C1537 C44 1.544 . S
C1545 C174 1.552 . S
C1569 C55 1.542 . S
C1577 C343 1.550 . S
C1601 C68 1.556 . S
C1609 C148 1.556 . S
C1633 C83 1.556 . S
C1641 C317 1.556 . S
C1665 C120 1.541 . S
C1673 C96 1.550 . S
C1697 C289 1.556 . S
C1705 C109 1.556 . S
C1729 C135 1.541 . S
C1737 C263 1.550 . S
C1761 C237 1.555 . S
C1769 C159 1.555 . S
C1793 C213 1.543 . S
C1801 C185 1.551 . S
C1825 C224 1.544 . S
C1833 C406 1.551 . S
C1857 C252 1.541 . S
C1865 C382 1.550 . S
C1889 C278 1.556 . S
C1897 C356 1.556 . S
C1921 C330 1.544 . S
C1929 C302 1.550 . S
C1953 C4 1.431 . S
C1961 C95 1.439 . S
C1985 C17 1.444 . S
C1993 C62 1.443 . S
C2017 C75 1.443 1_556 S
C2025 C30 1.441 . S
C2049 C43 1.433 1_554 S
C2057 C82 1.442 . S
C2081 C205 1.440 . S
C2089 C108 1.439 . S
C2113 C166 1.436 . S
C2121 C127 1.444 . S
C2145 C134 1.439 . S
C2153 C173 1.439 1_554 S
C2177 C192 1.432 . S
C2185 C147 1.440 1_556 S
C2209 C309 1.441 1_556 S
C2217 C212 1.440 . S
C2241 C270 1.431 . S
C2249 C231 1.440 1_554 S
C2273 C277 1.431 . S
C2281 C244 1.440 . S
C2305 C296 1.444 . S
C2313 C251 1.443 . S
C2337 C316 1.441 . S
C2345 C413 1.444 1_554 S
C2369 C329 1.440 1_556 S
C2377 C368 1.439 . S
C2401 C342 1.433 . S
C2409 C381 1.439 . S
C2433 C400 1.444 . S
C2441 C355 1.442 . S
