# Generated by pormake.
# Topology umf, (4)-cn, num edge types: 1
# Building blocks:
#     Node 0, Type 0, BuildingBlock: GALJAG_clean_sbu_0, # of connection points: 4
#     Node 1, Type 0, BuildingBlock: GALJAG_clean_sbu_0, # of connection points: 4
#     Node 2, Type 0, BuildingBlock: GALJAG_clean_sbu_0, # of connection points: 4
#     Node 3, Type 0, BuildingBlock: GALJAG_clean_sbu_0, # of connection points: 4
#     Node 4, Type 0, BuildingBlock: GALJAG_clean_sbu_0, # of connection points: 4
#     Node 5, Type 0, BuildingBlock: GALJAG_clean_sbu_0, # of connection points: 4
#     Node 6, Type 0, BuildingBlock: GALJAG_clean_sbu_0, # of connection points: 4
#     Node 7, Type 0, BuildingBlock: GALJAG_clean_sbu_0, # of connection points: 4
#     Edge 8, Type (0, 0), BuildingBlock: CIFDUS_clean_linker_0, # of connection points: 2
#     Edge 9, Type (0, 0), BuildingBlock: CIFDUS_clean_linker_0, # of connection points: 2
#     Edge 10, Type (0, 0), BuildingBlock: CIFDUS_clean_linker_0, # of connection points: 2
#     Edge 11, Type (0, 0), BuildingBlock: CIFDUS_clean_linker_0, # of connection points: 2
#     Edge 12, Type (0, 0), BuildingBlock: CIFDUS_clean_linker_0, # of connection points: 2
#     Edge 13, Type (0, 0), BuildingBlock: CIFDUS_clean_linker_0, # of connection points: 2
#     Edge 14, Type (0, 0), BuildingBlock: CIFDUS_clean_linker_0, # of connection points: 2
#     Edge 15, Type (0, 0), BuildingBlock: CIFDUS_clean_linker_0, # of connection points: 2
#     Edge 16, Type (0, 0), BuildingBlock: CIFDUS_clean_linker_0, # of connection points: 2
#     Edge 17, Type (0, 0), BuildingBlock: CIFDUS_clean_linker_0, # of connection points: 2
#     Edge 18, Type (0, 0), BuildingBlock: CIFDUS_clean_linker_0, # of connection points: 2
#     Edge 19, Type (0, 0), BuildingBlock: CIFDUS_clean_linker_0, # of connection points: 2
#     Edge 20, Type (0, 0), BuildingBlock: CIFDUS_clean_linker_0, # of connection points: 2
#     Edge 21, Type (0, 0), BuildingBlock: CIFDUS_clean_linker_0, # of connection points: 2
#     Edge 22, Type (0, 0), BuildingBlock: CIFDUS_clean_linker_0, # of connection points: 2
#     Edge 23, Type (0, 0), BuildingBlock: CIFDUS_clean_linker_0, # of connection points: 2
# Relax obj value: 0.108
# Max RMSD: 0.235
# Mean RMSD: 0.235
data_MOF--net-umf--node1-GALJAG_clean_sbu_0--edge1-CIFDUS_clean_linker_0
_symmetry_space_group_name_H-M    P1
_symmetry_Int_Tables_number       1
_symmetry_cell_setting            triclinic
loop_
_symmetry_equiv_pos_as_xyz
'x, y, z'
_cell_length_a     25.701907
_cell_length_b     25.400106
_cell_length_c     45.935863
_cell_angle_alpha  90.055425
_cell_angle_beta   89.906984
_cell_angle_gamma 89.68423
loop_
_atom_site_label
_atom_site_type_symbol
_atom_site_fract_x
_atom_site_fract_y
_atom_site_fract_z
_atom_type_partial_charge
In0 In 0.05767 0.23264 0.15196 0.0
O1 O 0.08659 0.23261 0.10488 0.0
O2 O 0.00456 0.23105 0.11313 0.0
C3 C 0.12842 0.23169 0.1942 0.0
C4 C 0.0339 0.33403 0.16008 0.0
C5 C 0.03364 0.13174 0.16197 0.0
O6 O 0.14157 0.22719 0.16758 0.0
O7 O 0.08016 0.23763 0.19893 0.0
O8 O 0.00136 0.16857 0.16764 0.0
O9 O 0.07644 0.14637 0.15117 0.0
C10 C 0.04079 0.23153 0.09448 0.0
O11 O 0.00167 0.29791 0.1664 0.0
O12 O 0.07691 0.31848 0.14961 0.0
In13 In 0.73365 0.03459 0.657 0.0
O14 O 0.73208 0.05784 0.60858 0.0
O15 O 0.73673 0.97658 0.62004 0.0
C16 C 0.73307 0.11693 0.69324 0.0
C17 C 0.63637 0.00516 0.66821 0.0
C18 C 0.83041 0.00505 0.67132 0.0
O19 O 0.74113 0.12285 0.66614 0.0
O20 O 0.72438 0.07024 0.70131 0.0
O21 O 0.79156 0.97624 0.67698 0.0
O22 O 0.82006 0.04765 0.6584 0.0
C23 C 0.73444 0.01036 0.59999 0.0
O24 O 0.67496 0.97653 0.67521 0.0
O25 O 0.64727 0.04792 0.65558 0.0
In26 In 0.9145 0.73337 0.15339 0.0
O27 O 0.89656 0.73356 0.10471 0.0
O28 O 0.97614 0.73346 0.11883 0.0
C29 C 0.83934 0.73628 0.19313 0.0
C30 C 0.93421 0.63136 0.16157 0.0
C31 C 0.93621 0.83472 0.16297 0.0
O32 O 0.82914 0.73995 0.16608 0.0
O33 O 0.88695 0.72991 0.19952 0.0
O34 O 0.96739 0.79842 0.17107 0.0
O35 O 0.89555 0.8193 0.15011 0.0
C36 C 0.94453 0.73358 0.09773 0.0
O37 O 0.96588 0.66654 0.1701 0.0
O38 O 0.89341 0.64818 0.14913 0.0
In39 In 0.23318 0.9406 0.66159 0.0
O40 O 0.29268 -0.00186 0.67944 0.0
O41 O 0.31934 0.9265 0.65949 0.0
C42 C 0.13596 0.97011 0.67501 0.0
C43 C 0.23189 0.96486 0.60465 0.0
C44 C 0.23312 0.85874 0.69805 0.0
O45 O 0.17455 -0.001 0.68111 0.0
O46 O 0.1469 0.9274 0.66228 0.0
O47 O 0.22692 0.85245 0.67083 0.0
O48 O 0.24041 0.90568 0.7062 0.0
C49 C 0.33088 0.96924 0.672 0.0
O50 O 0.23297 0.91732 0.61319 0.0
O51 O 0.23141 -0.00126 0.62474 0.0
In52 In 0.03012 0.73687 0.87023 0.0
O53 O 0.04984 0.73534 0.91915 0.0
O54 O 0.97077 0.74421 0.90597 0.0
C55 C 0.1145 0.7369 0.83608 0.0
C56 C -0.00017 0.63885 0.8598 0.0
C57 C -0.00015 0.83303 0.85388 0.0
O58 O 0.11773 0.74651 0.86316 0.0
O59 O 0.06947 0.72577 0.82706 0.0
O60 O 0.97289 0.79279 0.848 0.0
O61 O 0.04117 0.82427 0.86791 0.0
C62 C 0.00256 0.74051 0.92673 0.0
O63 O 0.97308 0.67811 0.85153 0.0
O64 O 0.04152 0.64945 0.8731 0.0
In65 In 0.22508 0.0329 0.37541 0.0
O66 O 0.22657 0.05598 0.42383 0.0
O67 O 0.21883 0.97504 0.41229 0.0
C68 C 0.22553 0.11585 0.33971 0.0
C69 C 0.32307 0.00315 0.36522 0.0
C70 C 0.12915 0.00408 0.35955 0.0
O71 O 0.21541 0.1211 0.36665 0.0
O72 O 0.23647 0.06956 0.33157 0.0
O73 O 0.1684 0.9751 0.35428 0.0
O74 O 0.13872 0.0464 0.37287 0.0
C75 C 0.22216 0.00871 0.43239 0.0
O76 O 0.28498 0.97453 0.35786 0.0
O77 O 0.31133 0.04599 0.37769 0.0
In78 In 0.91895 0.23458 0.87326 0.0
O79 O 0.8886 0.23594 0.92047 0.0
O80 O 0.97004 0.2281 0.91293 0.0
C81 C 0.83978 0.23519 0.83542 0.0
C82 C 0.95237 0.33191 0.86353 0.0
C83 C 0.9528 0.139 0.85749 0.0
O84 O 0.83264 0.22544 0.86223 0.0
O85 O 0.88604 0.246 0.82843 0.0
O86 O -0.0195 0.17955 0.85393 0.0
O87 O 0.90901 0.14703 0.86917 0.0
C88 C 0.93374 0.23141 0.93131 0.0
O89 O 0.98022 0.29202 0.85764 0.0
O90 O 0.90817 0.32236 0.87433 0.0
In91 In 0.7281 0.94094 0.37076 0.0
O92 O 0.72822 0.91845 0.41922 0.0
O93 O 0.73251 -0.00044 0.40741 0.0
C94 C 0.72959 0.85803 0.33493 0.0
C95 C 0.62951 0.96889 0.36116 0.0
C96 C 0.82435 0.97046 0.35596 0.0
O97 O 0.73769 0.85281 0.36206 0.0
O98 O 0.71943 0.90437 0.32659 0.0
O99 O 0.78516 -0.00076 0.35025 0.0
O100 O 0.81444 0.92799 0.36902 0.0
C101 C 0.73105 0.966 0.42761 0.0
O102 O 0.66702 -0.00216 0.35322 0.0
O103 O 0.64216 0.92644 0.37372 0.0
H104 H 0.93941 0.38294 0.16295 0.0
H105 H 0.10444 0.41221 0.16581 0.0
H106 H 0.08831 0.50681 0.16911 0.0
H107 H 0.02748 0.58186 0.16818 0.0
H108 H 0.86276 0.55306 0.16153 0.0
H109 H 0.87838 0.45814 0.1629 0.0
C110 C 0.9717 0.41009 0.16462 0.0
C111 C 0.02295 0.39072 0.16413 0.0
C112 C 0.96219 0.46467 0.16571 0.0
C113 C 0.06456 0.42627 0.166 0.0
C114 C 0.05542 0.48038 0.1679 0.0
C115 C -0.00493 0.55473 0.1674 0.0
C116 C 0.94413 0.57433 0.16479 0.0
C117 C 0.00443 0.50013 0.16734 0.0
C118 C 0.90242 0.53882 0.16343 0.0
C119 C 0.91129 0.48453 0.16421 0.0
H120 H 0.41414 0.90463 0.6757 0.0
H121 H 0.36932 0.06849 0.67731 0.0
H122 H 0.461 0.0942 0.67779 0.0
H123 H 0.5534 0.06976 0.67376 0.0
H124 H 0.59829 0.90591 0.6742 0.0
H125 H 0.50675 0.8802 0.67716 0.0
C126 C 0.42456 0.94595 0.67644 0.0
C127 C 0.3854 0.98474 0.67609 0.0
C128 C 0.4771 0.96027 0.67694 0.0
C129 C 0.39903 0.03808 0.67753 0.0
C130 C 0.45132 0.05273 0.67766 0.0
C131 C 0.54304 0.02845 0.67475 0.0
C132 C 0.58213 -0.01035 0.67337 0.0
C133 C 0.4906 0.01414 0.67674 0.0
C134 C 0.56862 0.93632 0.67517 0.0
C135 C 0.5164 0.92168 0.67675 0.0
H136 H 0.89238 0.41797 0.85595 0.0
H137 H 0.05228 0.36642 0.86109 0.0
H138 H 0.08147 0.4579 0.85872 0.0
H139 H 0.06077 0.55233 0.85883 0.0
H140 H 0.90106 0.60376 0.85176 0.0
H141 H 0.87223 0.51209 0.85092 0.0
C142 C 0.93362 0.42689 0.85633 0.0
C143 C 0.97024 0.38602 0.85907 0.0
C144 C 0.94994 0.47924 0.85467 0.0
C145 C 0.02354 0.39756 0.85905 0.0
C146 C 0.04016 0.44971 0.85781 0.0
C147 C 0.0197 0.54333 0.85684 0.0
C148 C -0.01709 0.5843 0.85571 0.0
C149 C 0.00362 0.49082 0.85617 0.0
C150 C 0.92993 0.57257 0.85269 0.0
C151 C 0.91348 0.52032 0.85234 0.0
H152 H 0.40507 0.068 0.35949 0.0
H153 H 0.3629 0.90391 0.36031 0.0
H154 H 0.45491 0.87867 0.35764 0.0
H155 H 0.54716 0.90369 0.35862 0.0
H156 H 0.58919 0.06776 0.35551 0.0
H157 H 0.49706 0.09288 0.35522 0.0
C158 C 0.41613 0.02673 0.35885 0.0
C159 C 0.37766 -0.01225 0.36047 0.0
C160 C 0.46882 0.01268 0.35698 0.0
C161 C 0.39207 0.93446 0.35914 0.0
C162 C 0.44456 0.92009 0.35773 0.0
C163 C 0.53604 0.94492 0.35762 0.0
C164 C 0.57458 0.98395 0.35744 0.0
C165 C 0.48323 0.9589 0.35718 0.0
C166 C 0.56 0.03715 0.35569 0.0
C167 C 0.50745 0.05147 0.35566 0.0
H168 H 0.02808 0.22783 0.95731 0.0
H169 H 0.86368 0.2342 0.97633 0.0
H170 H 0.88262 0.23446 0.02858 0.0
H171 H 0.94597 0.23344 0.06864 0.0
H172 H 0.11036 0.22814 0.0494 0.0
H173 H 0.09127 0.22693 0.99724 0.0
C174 C -0.0037 0.22918 0.97286 0.0
C175 C 0.94447 0.23094 0.96296 0.0
C176 C 0.00753 0.2296 1.00275 0.0
C177 C 0.90384 0.23282 0.9834 0.0
C178 C 0.91469 0.23298 1.01325 0.0
C179 C 0.97768 0.232 0.05304 0.0
C180 C 0.02958 0.23088 0.06288 0.0
C181 C 0.96639 0.23148 0.02314 0.0
C182 C 0.07014 0.22908 0.0424 0.0
C183 C 0.05923 0.22836 1.01259 0.0
H184 H 0.7353 0.07336 0.5518 0.0
H185 H 0.73244 0.91065 0.57868 0.0
H186 H 0.73109 0.88225 0.52803 0.0
H187 H 0.73051 0.90327 0.4758 0.0
H188 H 0.7342 0.06588 0.44881 0.0
H189 H 0.73551 0.09437 0.49948 0.0
C190 C 0.73439 0.03174 0.54653 0.0
C191 C 0.73395 -0.0057 0.569 0.0
C192 C 0.73378 0.01549 0.51724 0.0
C193 C 0.73287 0.94043 0.56182 0.0
C194 C 0.73206 0.92403 0.53282 0.0
C195 C 0.73162 0.9449 0.48104 0.0
C196 C 0.7322 0.98228 0.45855 0.0
C197 C 0.73249 0.96117 0.51031 0.0
C198 C 0.73371 0.03615 0.4657 0.0
C199 C 0.73444 0.05259 0.49471 0.0
H200 H 0.88706 0.74293 0.04818 0.0
H201 H 0.04467 0.72516 0.07898 0.0
H202 H 0.07702 0.72614 0.02906 0.0
H203 H 0.06071 0.73179 0.9763 0.0
H204 H 0.90298 0.75043 0.94575 0.0
H205 H 0.87085 0.74954 0.99563 0.0
C206 C 0.92844 0.7392 0.04394 0.0
C207 C 0.96328 0.7339 0.06726 0.0
C208 C 0.94694 0.74006 0.01512 0.0
C209 C 0.01689 0.72932 0.06141 0.0
C210 C 0.03553 0.72988 0.03284 0.0
C211 C 0.01937 0.73576 0.98061 0.0
C212 C -0.01559 0.74111 0.95732 0.0
C213 C 0.00095 0.73524 1.00948 0.0
C214 C 0.93087 0.74623 0.96326 0.0
C215 C 0.91233 0.74568 0.99182 0.0
H216 H 0.23163 0.07134 0.48039 0.0
H217 H 0.21259 0.90958 0.45386 0.0
H218 H 0.21438 0.8813 0.50453 0.0
H219 H 0.22191 0.90218 0.55669 0.0
H220 H 0.2401 0.06404 0.5832 0.0
H221 H 0.23826 0.09231 0.53253 0.0
C222 C 0.22776 0.02996 0.48574 0.0
C223 C 0.22204 -0.00726 0.46337 0.0
C224 C 0.22883 0.0138 0.51501 0.0
C225 C 0.21708 0.93918 0.47065 0.0
C226 C 0.21815 0.92285 0.49966 0.0
C227 C 0.22555 0.94358 0.55133 0.0
C228 C 0.23118 0.98083 0.57368 0.0
C229 C 0.22417 0.95976 0.52205 0.0
C230 C 0.23565 0.03444 0.56641 0.0
C231 C 0.23461 0.05075 0.53741 0.0
H232 H 0.1152 0.26062 0.25039 0.0
H233 H 0.22227 0.18119 0.19257 0.0
H234 H 0.26948 0.14542 0.23434 0.0
H235 H 0.26885 0.12308 0.28638 0.0
H236 H 0.16039 0.2006 0.34413 0.0
H237 H 0.12583 0.2519 0.30339 0.0
C238 C 0.1497 0.23657 0.24699 0.0
C239 C 0.16469 0.22255 0.21854 0.0
C240 C 0.17597 0.21547 0.27107 0.0
C241 C 0.20986 0.19219 0.21429 0.0
C242 C 0.23659 0.17143 0.23817 0.0
C243 C 0.23868 0.15238 0.29014 0.0
C244 C 0.21644 0.15752 0.31799 0.0
C245 C 0.21835 0.18072 0.26655 0.0
C246 C 0.17797 0.19596 0.32282 0.0
C247 C 0.15786 0.22486 0.29948 0.0
H248 H 0.84188 0.26806 0.77947 0.0
H249 H 0.75015 0.17879 0.84051 0.0
H250 H 0.70041 0.141 0.80036 0.0
H251 H 0.69621 0.11997 0.74823 0.0
H252 H 0.7905 0.20638 0.6872 0.0
H253 H 0.82534 0.25962 0.72699 0.0
C254 C 0.81001 0.24143 0.78401 0.0
C255 C 0.80034 0.22526 0.8128 0.0
C256 C 0.78259 0.2189 0.7608 0.0
C257 C 0.75851 0.19151 0.8185 0.0
C258 C 0.73038 0.16956 0.79553 0.0
C259 C 0.72331 0.15148 0.74358 0.0
C260 C 0.74166 0.15866 0.715 0.0
C261 C 0.74404 0.18088 0.76661 0.0
C262 C 0.77604 0.20002 0.70908 0.0
C263 C 0.79631 0.23012 0.73186 0.0
H264 H 0.69277 0.85183 0.28001 0.0
H265 H 0.79162 0.77147 0.34158 0.0
H266 H 0.829 0.71836 0.30226 0.0
H267 H 0.84521 0.7081 0.24976 0.0
H268 H 0.7476 0.7899 0.18814 0.0
H269 H 0.69721 0.82841 0.22811 0.0
C270 C 0.72145 0.8216 0.28489 0.0
C271 C 0.74021 0.81612 0.31347 0.0
C272 C 0.74339 0.79206 0.26212 0.0
C273 C 0.77675 0.77646 0.3197 0.0
C274 C 0.79846 0.74645 0.29717 0.0
C275 C 0.81201 0.73327 0.24511 0.0
C276 C 0.80067 0.74708 0.21615 0.0
C277 C 0.78391 0.7559 0.26819 0.0
C278 C 0.75717 0.77897 0.21029 0.0
C279 C 0.72865 0.80131 0.23315 0.0
H280 H 0.26318 0.85799 0.75437 0.0
H281 H 0.18102 0.76645 0.69025 0.0
H282 H 0.14426 0.7116 0.72877 0.0
H283 H 0.12166 0.70271 0.78051 0.0
H284 H 0.20093 0.79694 0.8446 0.0
H285 H 0.25377 0.83686 0.80631 0.0
C286 C 0.23834 0.82509 0.74881 0.0
C287 C 0.22382 0.81688 0.71965 0.0
C288 C 0.21644 0.79467 0.7711 0.0
C289 C 0.19242 0.7737 0.71258 0.0
C290 C 0.17108 0.74263 0.73463 0.0
C291 C 0.1516 0.73087 0.78616 0.0
C292 C 0.15672 0.74779 0.81519 0.0
C293 C 0.18067 0.75465 0.76397 0.0
C294 C 0.19609 0.78357 0.82237 0.0
C295 C 0.22594 0.80677 0.80044 0.0
H296 H 0.93946 0.08308 0.16605 0.0
H297 H 0.10476 0.05348 0.16821 0.0
H298 H 0.08959 0.95895 0.1716 0.0
H299 H 0.02946 0.88379 0.17019 0.0
H300 H 0.8644 0.91317 0.16457 0.0
H301 H 0.87916 0.00795 0.16653 0.0
C302 C 0.97201 0.05589 0.16765 0.0
C303 C 0.02307 0.0752 0.16679 0.0
C304 C 0.96306 0.00127 0.1688 0.0
C305 C 0.06501 0.03953 0.16863 0.0
C306 C 0.05641 0.98541 0.17057 0.0
C307 C -0.0032 0.91102 0.16981 0.0
C308 C 0.94602 0.89156 0.16717 0.0
C309 C 0.00564 0.96568 0.17012 0.0
C310 C 0.90398 0.92724 0.16641 0.0
C311 C 0.91234 0.98149 0.16753 0.0
H312 H 0.05374 0.90539 0.6804 0.0
H313 H 0.09636 0.06938 0.68133 0.0
H314 H 0.00428 0.09476 0.68251 0.0
H315 H 0.91221 0.06997 0.67821 0.0
H316 H 0.86962 0.90596 0.6786 0.0
H317 H 0.96147 0.88065 0.68227 0.0
C318 C 0.04279 0.94668 0.68123 0.0
C319 C 0.08148 0.98558 0.68036 0.0
C320 C -0.00999 0.96081 0.68195 0.0
C321 C 0.0671 0.03886 0.68192 0.0
C322 C 0.01454 0.05332 0.68243 0.0
C323 C 0.9231 0.0287 0.67943 0.0
C324 C 0.88454 -0.01025 0.67771 0.0
C325 C 0.97576 0.01461 0.68165 0.0
C326 C 0.89879 0.93651 0.67981 0.0
C327 C 0.95122 0.92209 0.68177 0.0
H328 H 0.89282 0.05438 0.84723 0.0
H329 H 0.05278 0.10411 0.852 0.0
H330 H 0.08193 0.01246 0.84805 0.0
H331 H 0.0611 0.91827 0.84922 0.0
H332 H 0.90121 0.86852 0.84387 0.0
H333 H 0.87258 0.96052 0.84159 0.0
C334 C 0.93408 0.04509 0.84702 0.0
C335 C 0.97071 0.08547 0.85042 0.0
C336 C 0.95037 -0.00744 0.84478 0.0
C337 C 0.02401 0.07342 0.84957 0.0
C338 C 0.04061 0.02112 0.84744 0.0
C339 C 0.02004 0.92766 0.84712 0.0
C340 C -0.01688 0.88708 0.84721 0.0
C341 C 0.00404 0.98037 0.84596 0.0
C342 C 0.93018 0.89934 0.84396 0.0
C343 C 0.91385 0.95182 0.84283 0.0
H344 H 0.90678 0.90556 0.34921 0.0
H345 H 0.86296 0.0697 0.3496 0.0
H346 H 0.95486 0.09476 0.34813 0.0
H347 H 0.04711 0.06951 0.3524 0.0
H348 H 0.09084 0.90533 0.35099 0.0
H349 H -0.0008 0.88049 0.34685 0.0
C350 C 0.91742 0.94683 0.34856 0.0
C351 C 0.87847 0.98585 0.34996 0.0
C352 C 0.9701 0.96075 0.34775 0.0
C353 C 0.89243 0.0391 0.34861 0.0
C354 C 0.94489 0.05336 0.34795 0.0
C355 C 0.03652 0.02831 0.35082 0.0
C356 C 0.07533 -0.01084 0.35248 0.0
C357 C -0.01603 0.01449 0.34841 0.0
C358 C 0.06148 0.93603 0.34988 0.0
C359 C 0.00916 0.92188 0.34766 0.0
loop_
_geom_bond_atom_site_label_1
_geom_bond_atom_site_label_2
_geom_bond_distance
_geom_bond_site_symmetry_2
_ccdc_geom_bond_type
In0 O1 2.294 . S
In0 O2 2.326 . S
In0 O6 2.266 . S
In0 O7 2.326 . S
In0 O8 2.276 . S
In0 O9 2.326 . S
In0 O11 2.309 . S
In0 O12 2.326 . S
O1 In0 2.294 . S
O1 C10 1.240 . S
O2 In0 2.326 . S
O2 C10 1.252 . S
C3 O6 1.252 . S
C3 O7 1.260 . S
C4 O11 1.254 . S
C4 O12 1.252 . S
C5 O8 1.259 . S
C5 O9 1.260 . S
O6 In0 2.266 . S
O6 C3 1.252 . S
O7 In0 2.326 . S
O7 C3 1.260 . S
O8 In0 2.276 . S
O8 C5 1.259 . S
O9 In0 2.326 . S
O9 C5 1.260 . S
C10 O1 1.240 . S
C10 O2 1.252 . S
O11 In0 2.309 . S
O11 C4 1.254 . S
O12 In0 2.326 . S
O12 C4 1.252 . S
In13 O14 2.294 . S
In13 O15 2.326 . S
In13 O19 2.266 . S
In13 O20 2.326 . S
In13 O21 2.276 . S
In13 O22 2.326 . S
In13 O24 2.309 . S
In13 O25 2.326 . S
O14 In13 2.294 . S
O14 C23 1.240 . S
O15 In13 2.326 . S
O15 C23 1.252 . S
C16 O19 1.252 . S
C16 O20 1.260 . S
C17 O24 1.254 . S
C17 O25 1.252 . S
C18 O21 1.259 . S
C18 O22 1.260 . S
O19 In13 2.266 . S
O19 C16 1.252 . S
O20 In13 2.326 . S
O20 C16 1.260 . S
O21 In13 2.276 . S
O21 C18 1.259 . S
O22 In13 2.326 . S
O22 C18 1.260 . S
C23 O14 1.240 . S
C23 O15 1.252 . S
O24 In13 2.309 . S
O24 C17 1.254 . S
O25 In13 2.326 . S
O25 C17 1.252 . S
In26 O27 2.294 . S
In26 O28 2.326 . S
In26 O32 2.266 . S
In26 O33 2.326 . S
In26 O34 2.276 . S
In26 O35 2.326 . S
In26 O37 2.309 . S
In26 O38 2.326 . S
O27 In26 2.294 . S
O27 C36 1.240 . S
O28 In26 2.326 . S
O28 C36 1.252 . S
C29 O32 1.252 . S
C29 O33 1.260 . S
C30 O37 1.254 . S
C30 O38 1.252 . S
C31 O34 1.259 . S
C31 O35 1.260 . S
O32 In26 2.266 . S
O32 C29 1.252 . S
O33 In26 2.326 . S
O33 C29 1.260 . S
O34 In26 2.276 . S
O34 C31 1.259 . S
O35 In26 2.326 . S
O35 C31 1.260 . S
C36 O27 1.240 . S
C36 O28 1.252 . S
O37 In26 2.309 . S
O37 C30 1.254 . S
O38 In26 2.326 . S
O38 C30 1.252 . S
In39 O40 2.309 . S
In39 O41 2.326 . S
In39 O45 2.276 . S
In39 O46 2.326 . S
In39 O47 2.266 . S
In39 O48 2.326 . S
In39 O50 2.294 . S
In39 O51 2.326 . S
O40 In39 2.309 . S
O40 C49 1.254 . S
O41 In39 2.326 . S
O41 C49 1.252 . S
C42 O45 1.259 . S
C42 O46 1.260 . S
C43 O50 1.240 . S
C43 O51 1.252 . S
C44 O47 1.252 . S
C44 O48 1.260 . S
O45 In39 2.276 . S
O45 C42 1.259 . S
O46 In39 2.326 . S
O46 C42 1.260 . S
O47 In39 2.266 . S
O47 C44 1.252 . S
O48 In39 2.326 . S
O48 C44 1.260 . S
C49 O40 1.254 . S
C49 O41 1.252 . S
O50 In39 2.294 . S
O50 C43 1.240 . S
O51 In39 2.326 . S
O51 C43 1.252 . S
In52 O53 2.294 . S
In52 O54 2.326 . S
In52 O58 2.266 . S
In52 O59 2.326 . S
In52 O60 2.276 . S
In52 O61 2.326 . S
In52 O63 2.309 . S
In52 O64 2.326 . S
O53 In52 2.294 . S
O53 C62 1.240 . S
O54 In52 2.326 . S
O54 C62 1.252 . S
C55 O58 1.252 . S
C55 O59 1.260 . S
C56 O63 1.254 . S
C56 O64 1.252 . S
C57 O60 1.259 . S
C57 O61 1.260 . S
O58 In52 2.266 . S
O58 C55 1.252 . S
O59 In52 2.326 . S
O59 C55 1.260 . S
O60 In52 2.276 . S
O60 C57 1.259 . S
O61 In52 2.326 . S
O61 C57 1.260 . S
C62 O53 1.240 . S
C62 O54 1.252 . S
O63 In52 2.309 . S
O63 C56 1.254 . S
O64 In52 2.326 . S
O64 C56 1.252 . S
In65 O66 2.294 . S
In65 O67 2.326 . S
In65 O71 2.266 . S
In65 O72 2.326 . S
In65 O73 2.276 . S
In65 O74 2.326 . S
In65 O76 2.309 . S
In65 O77 2.326 . S
O66 In65 2.294 . S
O66 C75 1.240 . S
O67 In65 2.326 . S
O67 C75 1.252 . S
C68 O71 1.252 . S
C68 O72 1.260 . S
C69 O76 1.254 . S
C69 O77 1.252 . S
C70 O73 1.259 . S
C70 O74 1.260 . S
O71 In65 2.266 . S
O71 C68 1.252 . S
O72 In65 2.326 . S
O72 C68 1.260 . S
O73 In65 2.276 . S
O73 C70 1.259 . S
O74 In65 2.326 . S
O74 C70 1.260 . S
C75 O66 1.240 . S
C75 O67 1.252 . S
O76 In65 2.309 . S
O76 C69 1.254 . S
O77 In65 2.326 . S
O77 C69 1.252 . S
In78 O79 2.294 . S
In78 O80 2.326 . S
In78 O84 2.266 . S
In78 O85 2.326 . S
In78 O86 2.276 . S
In78 O87 2.326 . S
In78 O89 2.309 . S
In78 O90 2.326 . S
O79 In78 2.294 . S
O79 C88 1.240 . S
O80 In78 2.326 . S
O80 C88 1.252 . S
C81 O84 1.252 . S
C81 O85 1.260 . S
C82 O89 1.254 . S
C82 O90 1.252 . S
C83 O86 1.259 . S
C83 O87 1.260 . S
O84 In78 2.266 . S
O84 C81 1.252 . S
O85 In78 2.326 . S
O85 C81 1.260 . S
O86 In78 2.276 . S
O86 C83 1.259 . S
O87 In78 2.326 . S
O87 C83 1.260 . S
C88 O79 1.240 . S
C88 O80 1.252 . S
O89 In78 2.309 . S
O89 C82 1.254 . S
O90 In78 2.326 . S
O90 C82 1.252 . S
In91 O92 2.294 . S
In91 O93 2.326 . S
In91 O97 2.266 . S
In91 O98 2.326 . S
In91 O99 2.276 . S
In91 O100 2.326 . S
In91 O102 2.309 . S
In91 O103 2.326 . S
O92 In91 2.294 . S
O92 C101 1.240 . S
O93 In91 2.326 . S
O93 C101 1.252 . S
C94 O97 1.252 . S
C94 O98 1.260 . S
C95 O102 1.254 . S
C95 O103 1.252 . S
C96 O99 1.259 . S
C96 O100 1.260 . S
O97 In91 2.266 . S
O97 C94 1.252 . S
O98 In91 2.326 . S
O98 C94 1.260 . S
O99 In91 2.276 . S
O99 C96 1.259 . S
O100 In91 2.326 . S
O100 C96 1.260 . S
C101 O92 1.240 . S
C101 O93 1.252 . S
O102 In91 2.309 . S
O102 C95 1.254 . S
O103 In91 2.326 . S
O103 C95 1.252 . S
H104 C110 0.930 . S
H105 C113 0.930 . S
H106 C114 0.930 . S
H107 C115 0.930 . S
H108 C118 0.930 . S
H109 C119 0.930 . S
C110 H104 0.930 . S
C110 C111 1.355 1_655 S
C110 C112 1.415 . S
C111 C110 1.355 1_455 S
C111 C113 1.419 . S
C112 C110 1.415 . S
C112 C117 1.425 1_655 S
C112 C119 1.409 . S
C113 H105 0.930 . S
C113 C111 1.419 . S
C113 C114 1.362 . S
C114 H106 0.930 . S
C114 C113 1.362 . S
C114 C117 1.409 . S
C115 H107 0.930 . S
C115 C116 1.355 1_455 S
C115 C117 1.415 . S
C116 C115 1.355 1_655 S
C116 C118 1.419 . S
C117 C112 1.425 1_455 S
C117 C114 1.409 . S
C117 C115 1.415 . S
C118 H108 0.930 . S
C118 C116 1.419 . S
C118 C119 1.362 . S
C119 H109 0.930 . S
C119 C112 1.409 . S
C119 C118 1.362 . S
H120 C126 0.930 . S
H121 C129 0.930 . S
H122 C130 0.930 . S
H123 C131 0.930 . S
H124 C134 0.930 . S
H125 C135 0.930 . S
C126 H120 0.930 . S
C126 C127 1.355 . S
C126 C128 1.415 . S
C127 C126 1.355 . S
C127 C129 1.419 1_565 S
C128 C126 1.415 . S
C128 C133 1.425 1_565 S
C128 C135 1.409 . S
C129 H121 0.930 . S
C129 C127 1.419 1_545 S
C129 C130 1.362 . S
C130 H122 0.930 . S
C130 C129 1.362 . S
C130 C133 1.409 . S
C131 H123 0.930 . S
C131 C132 1.355 . S
C131 C133 1.415 . S
C132 C131 1.355 . S
C132 C134 1.419 1_545 S
C133 C128 1.425 1_545 S
C133 C130 1.409 . S
C133 C131 1.415 . S
C134 H124 0.930 . S
C134 C132 1.419 1_565 S
C134 C135 1.362 . S
C135 H125 0.930 . S
C135 C128 1.409 . S
C135 C134 1.362 . S
H136 C142 0.930 . S
H137 C145 0.930 . S
H138 C146 0.930 . S
H139 C147 0.930 . S
H140 C150 0.930 . S
H141 C151 0.930 . S
C142 H136 0.930 . S
C142 C143 1.355 . S
C142 C144 1.415 . S
C143 C142 1.355 . S
C143 C145 1.419 1_655 S
C144 C142 1.415 . S
C144 C149 1.425 1_655 S
C144 C151 1.409 . S
C145 H137 0.930 . S
C145 C143 1.419 1_455 S
C145 C146 1.362 . S
C146 H138 0.930 . S
C146 C145 1.362 . S
C146 C149 1.409 . S
C147 H139 0.930 . S
C147 C148 1.355 . S
C147 C149 1.415 . S
C148 C147 1.355 . S
C148 C150 1.419 1_455 S
C149 C144 1.425 1_455 S
C149 C146 1.409 . S
C149 C147 1.415 . S
C150 H140 0.930 . S
C150 C148 1.419 1_655 S
C150 C151 1.362 . S
C151 H141 0.930 . S
C151 C144 1.409 . S
C151 C150 1.362 . S
H152 C158 0.930 . S
H153 C161 0.930 . S
H154 C162 0.930 . S
H155 C163 0.930 . S
H156 C166 0.930 . S
H157 C167 0.930 . S
C158 H152 0.930 . S
C158 C159 1.355 . S
C158 C160 1.415 . S
C159 C158 1.355 . S
C159 C161 1.419 1_545 S
C160 C158 1.415 . S
C160 C165 1.425 1_545 S
C160 C167 1.409 . S
C161 H153 0.930 . S
C161 C159 1.419 1_565 S
C161 C162 1.362 . S
C162 H154 0.930 . S
C162 C161 1.362 . S
C162 C165 1.409 . S
C163 H155 0.930 . S
C163 C164 1.355 . S
C163 C165 1.415 . S
C164 C163 1.355 . S
C164 C166 1.419 1_565 S
C165 C160 1.425 1_565 S
C165 C162 1.409 . S
C165 C163 1.415 . S
C166 H156 0.930 . S
C166 C164 1.419 1_545 S
C166 C167 1.362 . S
C167 H157 0.930 . S
C167 C160 1.409 . S
C167 C166 1.362 . S
H168 C174 0.930 1_455 S
H169 C177 0.930 . S
H170 C178 0.930 . S
H171 C179 0.930 1_655 S
H172 C182 0.930 . S
H173 C183 0.930 . S
C174 H168 0.930 1_655 S
C174 C175 1.355 . S
C174 C176 1.415 1_655 S
C175 C174 1.355 . S
C175 C177 1.419 . S
C176 C174 1.415 1_455 S
C176 C181 1.425 1_456 S
C176 C183 1.409 . S
C177 H169 0.930 . S
C177 C175 1.419 . S
C177 C178 1.362 1_556 S
C178 H170 0.930 . S
C178 C177 1.362 1_554 S
C178 C181 1.409 . S
C179 H171 0.930 1_455 S
C179 C180 1.355 . S
C179 C181 1.415 1_455 S
C180 C179 1.355 . S
C180 C182 1.419 . S
C181 C176 1.425 1_654 S
C181 C178 1.409 . S
C181 C179 1.415 1_655 S
C182 H172 0.930 . S
C182 C180 1.419 . S
C182 C183 1.362 1_554 S
C183 H173 0.930 . S
C183 C176 1.409 . S
C183 C182 1.362 1_556 S
H184 C190 0.930 . S
H185 C193 0.930 . S
H186 C194 0.930 . S
H187 C195 0.930 . S
H188 C198 0.930 . S
H189 C199 0.930 . S
C190 H184 0.930 . S
C190 C191 1.355 . S
C190 C192 1.415 . S
C191 C190 1.355 . S
C191 C193 1.419 1_545 S
C192 C190 1.415 . S
C192 C197 1.425 1_545 S
C192 C199 1.409 . S
C193 H185 0.930 . S
C193 C191 1.419 1_565 S
C193 C194 1.362 . S
C194 H186 0.930 . S
C194 C193 1.362 . S
C194 C197 1.409 . S
C195 H187 0.930 . S
C195 C196 1.355 . S
C195 C197 1.415 . S
C196 C195 1.355 . S
C196 C198 1.419 1_565 S
C197 C192 1.425 1_565 S
C197 C194 1.409 . S
C197 C195 1.415 . S
C198 H188 0.930 . S
C198 C196 1.419 1_545 S
C198 C199 1.362 . S
C199 H189 0.930 . S
C199 C192 1.409 . S
C199 C198 1.362 . S
H200 C206 0.930 . S
H201 C209 0.930 . S
H202 C210 0.930 . S
H203 C211 0.930 . S
H204 C214 0.930 . S
H205 C215 0.930 . S
C206 H200 0.930 . S
C206 C207 1.355 . S
C206 C208 1.415 1_554 S
C207 C206 1.355 . S
C207 C209 1.419 1_655 S
C208 C206 1.415 1_556 S
C208 C213 1.425 1_656 S
C208 C215 1.409 . S
C209 H201 0.930 . S
C209 C207 1.419 1_455 S
C209 C210 1.362 . S
C210 H202 0.930 . S
C210 C209 1.362 . S
C210 C213 1.409 . S
C211 H203 0.930 . S
C211 C212 1.355 . S
C211 C213 1.415 1_556 S
C212 C211 1.355 . S
C212 C214 1.419 1_455 S
C213 C208 1.425 1_454 S
C213 C210 1.409 . S
C213 C211 1.415 1_554 S
C214 H204 0.930 . S
C214 C212 1.419 1_655 S
C214 C215 1.362 . S
C215 H205 0.930 . S
C215 C208 1.409 . S
C215 C214 1.362 . S
H216 C222 0.930 . S
H217 C225 0.928 1_565 S
H218 C226 0.930 . S
H219 C227 0.930 . S
H220 C230 0.928 1_545 S
H221 C231 0.930 . S
C222 H216 0.930 . S
C222 C223 1.355 . S
C222 C224 1.415 . S
C223 C222 1.355 . S
C223 C225 1.429 . S
C224 C222 1.415 . S
C224 C229 1.425 1_545 S
C224 C231 1.409 . S
C225 H217 0.928 1_545 S
C225 C223 1.429 . S
C225 C226 1.355 1_545 S
C226 H218 0.930 . S
C226 C225 1.355 1_565 S
C226 C229 1.409 . S
C227 H219 0.930 . S
C227 C228 1.355 . S
C227 C229 1.415 . S
C228 C227 1.355 . S
C228 C230 1.429 . S
C229 C224 1.425 1_565 S
C229 C226 1.409 . S
C229 C227 1.415 . S
C230 H220 0.928 1_565 S
C230 C228 1.429 . S
C230 C231 1.355 1_565 S
C231 H221 0.930 . S
C231 C224 1.409 . S
C231 C230 1.355 1_545 S
H232 C238 0.930 . S
H233 C241 0.930 . S
H234 C242 0.930 . S
H235 C243 0.930 . S
H236 C246 0.930 . S
H237 C247 0.930 . S
C238 H232 0.930 . S
C238 C239 1.355 . S
C238 C240 1.415 . S
C239 C238 1.355 . S
C239 C241 1.419 . S
C240 C238 1.415 . S
C240 C245 1.425 . S
C240 C247 1.409 . S
C241 H233 0.930 . S
C241 C239 1.419 . S
C241 C242 1.362 . S
C242 H234 0.930 . S
C242 C241 1.362 . S
C242 C245 1.409 . S
C243 H235 0.930 . S
C243 C244 1.355 . S
C243 C245 1.415 . S
C244 C243 1.355 . S
C244 C246 1.419 . S
C245 C240 1.425 . S
C245 C242 1.409 . S
C245 C243 1.415 . S
C246 H236 0.930 . S
C246 C244 1.419 . S
C246 C247 1.362 . S
C247 H237 0.930 . S
C247 C240 1.409 . S
C247 C246 1.362 . S
H248 C254 0.930 . S
H249 C257 0.930 . S
H250 C258 0.930 . S
H251 C259 0.930 . S
H252 C262 0.930 . S
H253 C263 0.930 . S
C254 H248 0.930 . S
C254 C255 1.355 . S
C254 C256 1.415 . S
C255 C254 1.355 . S
C255 C257 1.419 . S
C256 C254 1.415 . S
C256 C261 1.425 . S
C256 C263 1.409 . S
C257 H249 0.930 . S
C257 C255 1.419 . S
C257 C258 1.362 . S
C258 H250 0.930 . S
C258 C257 1.362 . S
C258 C261 1.409 . S
C259 H251 0.930 . S
C259 C260 1.355 . S
C259 C261 1.415 . S
C260 C259 1.355 . S
C260 C262 1.419 . S
C261 C256 1.425 . S
C261 C258 1.409 . S
C261 C259 1.415 . S
C262 H252 0.930 . S
C262 C260 1.419 . S
C262 C263 1.362 . S
C263 H253 0.930 . S
C263 C256 1.409 . S
C263 C262 1.362 . S
H264 C270 0.930 . S
H265 C273 0.930 . S
H266 C274 0.930 . S
H267 C275 0.930 . S
H268 C278 0.930 . S
H269 C279 0.930 . S
C270 H264 0.930 . S
C270 C271 1.355 . S
C270 C272 1.415 . S
C271 C270 1.355 . S
C271 C273 1.419 . S
C272 C270 1.415 . S
C272 C277 1.425 . S
C272 C279 1.409 . S
C273 H265 0.930 . S
C273 C271 1.419 . S
C273 C274 1.362 . S
C274 H266 0.930 . S
C274 C273 1.362 . S
C274 C277 1.409 . S
C275 H267 0.930 . S
C275 C276 1.355 . S
C275 C277 1.415 . S
C276 C275 1.355 . S
C276 C278 1.419 . S
C277 C272 1.425 . S
C277 C274 1.409 . S
C277 C275 1.415 . S
C278 H268 0.930 . S
C278 C276 1.419 . S
C278 C279 1.362 . S
C279 H269 0.930 . S
C279 C272 1.409 . S
C279 C278 1.362 . S
H280 C286 0.930 . S
H281 C289 0.930 . S
H282 C290 0.930 . S
H283 C291 0.930 . S
H284 C294 0.930 . S
H285 C295 0.930 . S
C286 H280 0.930 . S
C286 C287 1.355 . S
C286 C288 1.415 . S
C287 C286 1.355 . S
C287 C289 1.419 . S
C288 C286 1.415 . S
C288 C293 1.425 . S
C288 C295 1.409 . S
C289 H281 0.930 . S
C289 C287 1.419 . S
C289 C290 1.362 . S
C290 H282 0.930 . S
C290 C289 1.362 . S
C290 C293 1.409 . S
C291 H283 0.930 . S
C291 C292 1.355 . S
C291 C293 1.415 . S
C292 C291 1.355 . S
C292 C294 1.419 . S
C293 C288 1.425 . S
C293 C290 1.409 . S
C293 C291 1.415 . S
C294 H284 0.930 . S
C294 C292 1.419 . S
C294 C295 1.362 . S
C295 H285 0.930 . S
C295 C288 1.409 . S
C295 C294 1.362 . S
H296 C302 0.930 . S
H297 C305 0.930 . S
H298 C306 0.930 . S
H299 C307 0.930 . S
H300 C310 0.930 . S
H301 C311 0.930 . S
C302 H296 0.930 . S
C302 C303 1.355 1_655 S
C302 C304 1.415 . S
C303 C302 1.355 1_455 S
C303 C305 1.419 . S
C304 C302 1.415 . S
C304 C309 1.425 1_645 S
C304 C311 1.409 1_545 S
C305 H297 0.930 . S
C305 C303 1.419 . S
C305 C306 1.362 . S
C306 H298 0.930 . S
C306 C305 1.362 . S
C306 C309 1.409 1_545 S
C307 H299 0.930 . S
C307 C308 1.355 1_455 S
C307 C309 1.415 . S
C308 C307 1.355 1_655 S
C308 C310 1.419 . S
C309 C304 1.425 1_465 S
C309 C306 1.409 1_565 S
C309 C307 1.415 . S
C310 H300 0.930 . S
C310 C308 1.419 . S
C310 C311 1.362 . S
C311 H301 0.930 . S
C311 C304 1.409 1_565 S
C311 C310 1.362 . S
H312 C318 0.930 . S
H313 C321 0.930 . S
H314 C322 0.930 . S
H315 C323 0.930 . S
H316 C326 0.930 . S
H317 C327 0.930 . S
C318 H312 0.930 . S
C318 C319 1.355 . S
C318 C320 1.415 . S
C319 C318 1.355 . S
C319 C321 1.419 1_565 S
C320 C318 1.415 . S
C320 C325 1.425 1_465 S
C320 C327 1.409 1_455 S
C321 H313 0.930 . S
C321 C319 1.419 1_545 S
C321 C322 1.362 . S
C322 H314 0.930 . S
C322 C321 1.362 . S
C322 C325 1.409 1_455 S
C323 H315 0.930 . S
C323 C324 1.355 . S
C323 C325 1.415 . S
C324 C323 1.355 . S
C324 C326 1.419 1_545 S
C325 C320 1.425 1_645 S
C325 C322 1.409 1_655 S
C325 C323 1.415 . S
C326 H316 0.930 . S
C326 C324 1.419 1_565 S
C326 C327 1.362 . S
C327 H317 0.930 . S
C327 C320 1.409 1_655 S
C327 C326 1.362 . S
H328 C334 0.930 . S
H329 C337 0.930 . S
H330 C338 0.930 . S
H331 C339 0.930 . S
H332 C342 0.930 . S
H333 C343 0.930 . S
C334 H328 0.930 . S
C334 C335 1.355 . S
C334 C336 1.415 . S
C335 C334 1.355 . S
C335 C337 1.419 1_655 S
C336 C334 1.415 . S
C336 C341 1.425 1_645 S
C336 C343 1.409 1_545 S
C337 H329 0.930 . S
C337 C335 1.419 1_455 S
C337 C338 1.362 . S
C338 H330 0.930 . S
C338 C337 1.362 . S
C338 C341 1.409 1_545 S
C339 H331 0.930 . S
C339 C340 1.355 . S
C339 C341 1.415 . S
C340 C339 1.355 . S
C340 C342 1.419 1_455 S
C341 C336 1.425 1_465 S
C341 C338 1.409 1_565 S
C341 C339 1.415 . S
C342 H332 0.930 . S
C342 C340 1.419 1_655 S
C342 C343 1.362 . S
C343 H333 0.930 . S
C343 C336 1.409 1_565 S
C343 C342 1.362 . S
H344 C350 0.930 . S
H345 C353 0.930 . S
H346 C354 0.930 . S
H347 C355 0.930 . S
H348 C358 0.930 . S
H349 C359 0.930 . S
C350 H344 0.930 . S
C350 C351 1.355 . S
C350 C352 1.415 . S
C351 C350 1.355 . S
C351 C353 1.419 1_565 S
C352 C350 1.415 . S
C352 C357 1.425 1_665 S
C352 C359 1.409 1_655 S
C353 H345 0.930 . S
C353 C351 1.419 1_545 S
C353 C354 1.362 . S
C354 H346 0.930 . S
C354 C353 1.362 . S
C354 C357 1.409 1_655 S
C355 H347 0.930 . S
C355 C356 1.355 . S
C355 C357 1.415 . S
C356 C355 1.355 . S
C356 C358 1.419 1_545 S
C357 C352 1.425 1_445 S
C357 C354 1.409 1_455 S
C357 C355 1.415 . S
C358 H348 0.930 . S
C358 C356 1.419 1_565 S
C358 C359 1.362 . S
C359 H349 0.930 . S
C359 C352 1.409 1_455 S
C359 C358 1.362 . S
C111 C4 1.335 . S
C116 C30 1.344 . S
C127 C49 1.365 . S
C132 C17 1.350 . S
C143 C82 1.361 . S
C148 C56 1.359 . S
C159 C69 1.354 . S
C164 C95 1.364 . S
C175 C88 1.642 . S
C180 C10 1.640 . S
C191 C23 1.568 . S
C196 C101 1.563 . S
C207 C36 1.568 . S
C212 C62 1.563 . S
C223 C75 1.561 . S
C228 C43 1.562 . S
C239 C3 1.445 . S
C244 C68 1.399 . S
C255 C81 1.441 . S
C260 C16 1.392 . S
C271 C94 1.444 . S
C276 C29 1.424 . S
C287 C44 1.404 . S
C292 C55 1.446 . S
C303 C5 1.176 . S
C308 C31 1.192 . S
C319 C42 1.228 . S
C324 C18 1.207 . S
C335 C83 1.222 . S
C340 C57 1.234 . S
C351 C96 1.224 . S
C356 C70 1.235 . S
