# Generated by pormake.
# Topology sxb, (6)-cn, num edge types: 1
# Building blocks:
#     Node 0, Type 0, BuildingBlock: BETGAK_clean_sbu_0, # of connection points: 6
#     Node 1, Type 0, BuildingBlock: BETGAK_clean_sbu_0, # of connection points: 6
#     Node 2, Type 0, BuildingBlock: BETGAK_clean_sbu_0, # of connection points: 6
#     Node 3, Type 0, BuildingBlock: BETGAK_clean_sbu_0, # of connection points: 6
#     Edge 4, Type (0, 0), BuildingBlock: FUNLAD_clean_linker_1, # of connection points: 2
#     Edge 5, Type (0, 0), BuildingBlock: FUNLAD_clean_linker_1, # of connection points: 2
#     Edge 6, Type (0, 0), BuildingBlock: FUNLAD_clean_linker_1, # of connection points: 2
#     Edge 7, Type (0, 0), BuildingBlock: FUNLAD_clean_linker_1, # of connection points: 2
#     Edge 8, Type (0, 0), BuildingBlock: FUNLAD_clean_linker_1, # of connection points: 2
#     Edge 9, Type (0, 0), BuildingBlock: FUNLAD_clean_linker_1, # of connection points: 2
#     Edge 10, Type (0, 0), BuildingBlock: FUNLAD_clean_linker_1, # of connection points: 2
#     Edge 11, Type (0, 0), BuildingBlock: FUNLAD_clean_linker_1, # of connection points: 2
#     Edge 12, Type (0, 0), BuildingBlock: FUNLAD_clean_linker_1, # of connection points: 2
#     Edge 13, Type (0, 0), BuildingBlock: FUNLAD_clean_linker_1, # of connection points: 2
#     Edge 14, Type (0, 0), BuildingBlock: FUNLAD_clean_linker_1, # of connection points: 2
#     Edge 15, Type (0, 0), BuildingBlock: FUNLAD_clean_linker_1, # of connection points: 2
# Relax obj value: 0.405
# Max RMSD: 0.120
# Mean RMSD: 0.081
data_MOF--net-sxb--node1-BETGAK_clean_sbu_0--edge1-FUNLAD_clean_linker_1
_symmetry_space_group_name_H-M    P1
_symmetry_Int_Tables_number       1
_symmetry_cell_setting            triclinic
loop_
_symmetry_equiv_pos_as_xyz
'x, y, z'
_cell_length_a     18.003682
_cell_length_b     36.861813
_cell_length_c     31.376258
_cell_angle_alpha  92.188129
_cell_angle_beta   94.091755
_cell_angle_gamma 71.399031
loop_
_atom_site_label
_atom_site_type_symbol
_atom_site_fract_x
_atom_site_fract_y
_atom_site_fract_z
_atom_type_partial_charge
La0 La 1.03255 1.04487 0.99242 0.0
La1 La 0.17902 0.05304 0.00391 0.0
C2 C 0.89266 0.05041 0.00379 0.0
C3 C 0.81692 0.08076 0.99674 0.0
C4 C 0.79307 0.09844 0.95688 0.0
C5 C 0.71774 0.12455 0.95006 0.0
C6 C 0.66571 0.13302 0.98289 0.0
C7 C 0.69239 0.11837 0.02381 0.0
C8 C 0.76717 0.092 0.03053 0.0
C9 C 1.09033 1.04756 0.91722 0.0
C10 C 1.03628 0.13456 -0.00198 0.0
C11 C 0.31932 1.04774 0.99402 0.0
C12 C 0.39516 1.01771 0.00222 0.0
C13 C 0.41791 1.00095 0.04262 0.0
C14 C 0.49331 0.97522 0.05055 0.0
C15 C 0.54652 0.96621 0.01829 0.0
C16 C 0.52113 0.97997 0.97691 0.0
C17 C 0.44624 1.00595 0.96907 0.0
C18 C 0.12011 0.05036 0.07887 0.0
C19 C 0.17554 0.96329 -0.00241 0.0
O20 O 0.92876 1.0343 0.96989 0.0
O21 O 0.94057 0.05769 0.03368 0.0
O22 O 1.04919 1.02588 0.92553 0.0
O23 O 1.09523 0.06794 0.95024 0.0
O24 O 0.99221 0.1112 -0.00219 0.0
O25 O 0.11404 0.11691 0.99742 0.0
O26 O 0.28169 0.06421 0.02734 0.0
O27 O 0.27273 1.03989 0.96376 0.0
O28 O 0.15934 0.07286 0.07036 0.0
O29 O 0.11685 1.02963 0.04593 0.0
O30 O 0.21959 0.98671 -0.00151 0.0
O31 O 1.09767 0.98088 -0.00228 0.0
H32 H 0.83114 0.09091 0.93053 0.0
H33 H 0.69805 0.13566 0.9183 0.0
H34 H 0.65324 0.1251 0.0497 0.0
H35 H 0.78503 0.07929 0.06172 0.0
H36 H 0.37888 1.00891 0.06854 0.0
H37 H 0.51205 0.96486 0.08266 0.0
H38 H 0.56128 0.97286 0.95148 0.0
H39 H 0.42931 1.01798 0.93751 0.0
La40 La 1.09885 1.0207 0.50262 0.0
La41 La 1.05305 0.09785 0.49634 0.0
C42 C 0.12294 0.95252 0.52415 0.0
C43 C 1.08248 0.92415 0.51438 0.0
C44 C 0.12451 0.88858 0.49688 0.0
C45 C 1.0855 0.86309 0.48171 0.0
C46 C 1.00377 0.87294 0.48397 0.0
C47 C 0.96254 0.90755 0.50376 0.0
C48 C 1.00142 0.93318 0.51859 0.0
C49 C 1.08565 1.04186 0.42086 0.0
C50 C 0.90455 0.06402 0.49501 0.0
C51 C 1.02731 0.16626 0.47469 0.0
C52 C 1.07015 0.19396 0.48062 0.0
C53 C 1.02869 0.23234 0.48964 0.0
C54 C 1.06922 0.25798 0.50198 0.0
C55 C 0.15145 0.24521 0.50621 0.0
C56 C 0.19287 0.2073 0.49472 0.0
C57 C 0.15244 0.18187 0.48195 0.0
C58 C 1.05848 0.07742 0.57736 0.0
C59 C 0.24733 0.05419 0.50381 0.0
O60 O 0.15335 0.9621 0.4916 0.0
O61 O 1.08713 0.9823 0.54746 0.0
O62 O 0.14038 1.01307 0.43726 0.0
O63 O 1.03884 0.05688 0.44957 0.0
O64 O 0.96348 1.03142 0.50424 0.0
O65 O 0.92876 0.09372 0.48624 0.0
O66 O 1.00482 0.1565 0.50985 0.0
O67 O 1.05719 0.13662 0.44985 0.0
O68 O 1.00356 0.10467 0.55866 0.0
O69 O 0.11016 0.06206 0.55077 0.0
O70 O 0.18842 0.08676 0.49472 0.0
O71 O 0.22318 1.02453 0.51247 0.0
H72 H 0.18719 0.88105 0.49369 0.0
H73 H 0.11925 0.83599 0.46791 0.0
H74 H 0.89961 0.91546 0.50624 0.0
H75 H 0.96758 0.96041 0.53211 0.0
H76 H 0.96509 0.2421 0.48866 0.0
H77 H 1.03643 0.28729 0.51011 0.0
H78 H 0.25647 0.19713 0.49617 0.0
H79 H 0.18572 0.15262 0.47433 0.0
La80 La 0.53546 0.5448 0.98993 0.0
La81 La 0.67857 0.5531 0.00635 0.0
C82 C 0.39364 0.54882 0.99192 0.0
C83 C 0.31797 0.57726 0.97845 0.0
C84 C 0.2712 0.56793 0.94487 0.0
C85 C 0.19598 0.59261 0.93449 0.0
C86 C 0.16565 0.62648 0.95834 0.0
C87 C 0.21445 0.63754 0.98936 0.0
C88 C 0.29018 0.61299 -0.00044 0.0
C89 C 0.60045 0.54667 0.91639 0.0
C90 C 0.5364 0.6345 0.9975 0.0
C91 C 0.82045 0.54911 0.00484 0.0
C92 C 0.89586 0.52095 0.01923 0.0
C93 C 0.94144 0.5308 0.05306 0.0
C94 C 1.01642 0.50632 0.06437 0.0
C95 C 1.04777 0.47215 0.0412 0.0
C96 C 1.00002 0.46058 0.00999 0.0
C97 C 0.92451 0.48492 -0.00114 0.0
C98 C 0.61375 0.55102 0.07987 0.0
C99 C 0.67737 0.46341 -0.00129 0.0
O100 O 0.43802 0.53161 0.96132 0.0
O101 O 0.43414 0.55819 0.0243 0.0
O102 O 0.56074 0.52433 0.9243 0.0
O103 O 0.60206 0.56775 0.94934 0.0
O104 O 0.49269 0.611 0.99622 0.0
O105 O 0.61423 0.61689 -0.00186 0.0
O106 O 0.77533 0.56688 0.03491 0.0
O107 O 0.78066 0.53916 0.97254 0.0
O108 O 0.65328 0.57343 0.072 0.0
O109 O 0.61226 0.53 0.04685 0.0
O110 O 0.72114 0.48689 -0.00014 0.0
O111 O 0.59959 0.48105 -0.00171 0.0
H112 H 0.29153 0.54079 0.92782 0.0
H113 H 0.15928 0.58389 0.91004 0.0
H114 H 0.19185 0.66358 0.00809 0.0
H115 H 0.32531 0.62127 0.02521 0.0
H116 H 0.92041 0.55816 0.06959 0.0
H117 H 1.05226 0.51544 0.089 0.0
H118 H 1.02338 0.43428 0.99181 0.0
H119 H 0.89027 0.47623 0.97306 0.0
La120 La 0.63581 0.50871 0.50487 0.0
La121 La 0.58783 0.5854 0.49143 0.0
C122 C 0.66888 0.44305 0.53622 0.0
C123 C 0.62917 0.42353 0.56174 0.0
C124 C 0.66284 0.38426 0.56874 0.0
C125 C 0.62103 0.36439 0.58856 0.0
C126 C 0.54477 0.3836 0.60077 0.0
C127 C 0.514 0.42357 0.59706 0.0
C128 C 0.55621 0.44347 0.57766 0.0
C129 C 0.64618 0.52338 0.42292 0.0
C130 C 0.44088 0.55146 0.49649 0.0
C131 C 0.55559 0.65091 0.45988 0.0
C132 C 0.59525 0.66939 0.43301 0.0
C133 C 0.56438 0.70884 0.42668 0.0
C134 C 0.60605 0.72746 0.40485 0.0
C135 C 0.67971 0.70675 0.38977 0.0
C136 C 0.70696 0.66676 0.3929 0.0
C137 C 0.665 0.64813 0.41455 0.0
C138 C 0.57701 0.57084 0.57328 0.0
C139 C 0.78279 0.54253 0.49965 0.0
O140 O 0.63875 0.45141 0.49728 0.0
O141 O 0.6857 0.47167 0.55552 0.0
O142 O 0.69714 0.4971 0.44533 0.0
O143 O 0.59013 0.5401 0.44625 0.0
O144 O 0.50039 0.5192 0.50636 0.0
O145 O 0.4637 0.58145 0.48758 0.0
O146 O 0.58776 0.64235 0.49843 0.0
O147 O 0.53567 0.62279 0.44142 0.0
O148 O 0.52635 0.59719 0.55083 0.0
O149 O 0.63333 0.55409 0.55008 0.0
O150 O 0.7233 0.57473 0.48951 0.0
O151 O 0.7599 0.51266 0.50888 0.0
H152 H 0.71979 0.36871 0.55715 0.0
H153 H 0.64568 0.33357 0.59119 0.0
H154 H 0.45575 0.43905 0.60699 0.0
H155 H 0.53052 0.47405 0.57349 0.0
H156 H 0.50956 0.72539 0.43993 0.0
H157 H 0.5825 0.75824 0.40165 0.0
H158 H 0.76329 0.65024 0.38126 0.0
H159 H 0.68846 0.61741 0.41834 0.0
H160 H 0.54945 0.69378 0.00036 0.0
C161 C 0.50289 0.68088 -0.00205 0.0
H162 H 0.37936 0.69492 0.99548 0.0
H163 H 0.21145 0.86615 0.05619 0.0
H164 H 0.16995 0.82763 0.10405 0.0
H165 H 0.22852 0.75759 0.1044 0.0
H166 H 0.33021 0.72493 0.05743 0.0
C167 C 0.42571 0.70792 0.99661 0.0
C168 C 0.39414 0.75485 -0.00177 0.0
C169 C 0.33191 0.77615 0.02515 0.0
C170 C 0.29556 0.8184 0.0246 0.0
C171 C 0.23828 0.83552 0.05399 0.0
C172 C 0.21433 0.81366 0.08198 0.0
C173 C 0.2474 0.77413 0.08218 0.0
C174 C 0.30549 0.75564 0.0546 0.0
H175 H 0.16222 0.90407 0.99453 0.0
C176 C 0.20888 0.9169 0.99691 0.0
H177 H 0.33243 0.90273 -0.00068 0.0
H178 H 0.49997 0.73153 0.93847 0.0
H179 H 0.54119 0.77003 0.89046 0.0
H180 H 0.48254 0.84007 0.89005 0.0
H181 H 0.38106 0.87274 0.93715 0.0
C182 C 0.28599 0.88979 -0.00182 0.0
C183 C 0.31742 0.84285 0.9965 0.0
C184 C 0.37958 0.82154 0.96954 0.0
C185 C 0.41594 0.7793 0.9701 0.0
C186 C 0.47313 0.76216 0.94066 0.0
C187 C 0.49692 0.784 0.91258 0.0
C188 C 0.4638 0.82353 0.91235 0.0
C189 C 0.40584 0.84204 0.94 0.0
H190 H 0.66447 0.40427 0.00075 0.0
C191 C 0.71076 0.41705 -0.00082 0.0
H192 H 0.83396 0.40281 -0.00207 0.0
H193 H 1.01259 0.23283 0.058 0.0
H194 H 1.06373 0.27229 0.10724 0.0
H195 H 1.00563 0.34236 0.10811 0.0
H196 H 0.89488 0.37413 0.06027 0.0
C197 C 0.78761 0.38991 -0.00166 0.0
C198 C 0.81911 0.34303 -0.00043 0.0
C199 C 0.88651 0.32226 0.02699 0.0
C200 C 0.92246 0.27999 0.02615 0.0
C201 C 0.98548 0.26343 0.05603 0.0
C202 C 1.01508 0.28583 0.08479 0.0
C203 C 0.98227 0.32538 0.08529 0.0
C204 C 0.91886 0.34335 0.05721 0.0
H205 H 1.04932 0.19366 0.99577 0.0
C206 C 1.00303 0.18092 -0.0024 0.0
H207 H 0.87984 0.19528 -0.00085 0.0
H208 H 0.70165 0.3652 0.93868 0.0
H209 H 0.6506 0.32574 0.88941 0.0
H210 H 0.70857 0.25566 0.88862 0.0
H211 H 0.81913 0.22389 0.93659 0.0
C212 C 0.92625 0.20811 -0.0014 0.0
C213 C 0.89485 0.25499 0.99728 0.0
C214 C 0.82748 0.27577 0.96985 0.0
C215 C 0.79155 0.31804 0.97067 0.0
C216 C 0.72867 0.3346 0.94071 0.0
C217 C 0.69914 0.3122 0.91191 0.0
C218 C 0.73188 0.27264 0.91146 0.0
C219 C 0.79518 0.25467 0.93961 0.0
H220 H 0.1697 0.30158 0.51517 0.0
C221 C 0.19326 0.27149 0.52342 0.0
H222 H 0.28086 0.22959 0.55958 0.0
H223 H 0.51835 0.32216 0.53728 0.0
H224 H 0.57194 0.26668 0.49218 0.0
H225 H 0.5037 0.21856 0.47921 0.0
H226 H 0.38082 0.22619 0.51101 0.0
C227 C 0.25746 0.25935 0.55012 0.0
C228 C 0.30301 0.28521 0.56354 0.0
C229 C 0.37616 0.2795 0.54594 0.0
C230 C 0.41637 0.30664 0.5544 0.0
C231 C 0.4867 0.30169 0.53382 0.0
C232 C 0.51787 0.27007 0.50731 0.0
C233 C 0.47938 0.24307 0.4999 0.0
C234 C 0.40895 0.24777 0.51852 0.0
H235 H 0.52108 0.33282 0.62404 0.0
C236 C 0.49418 0.36061 0.60936 0.0
H237 H 0.39671 0.39485 0.57154 0.0
H238 H 0.16755 0.30196 0.60561 0.0
H239 H 0.11376 0.35735 0.65159 0.0
H240 H 0.18362 0.40468 0.66636 0.0
H241 H 0.30804 0.39663 0.63557 0.0
C242 C 0.42328 0.36824 0.58858 0.0
C243 C 0.3843 0.3386 0.58183 0.0
C244 C 0.31214 0.3437 0.60027 0.0
C245 C 0.27152 0.31678 0.59132 0.0
C246 C 0.19995 0.3221 0.6106 0.0
C247 C 0.1687 0.35363 0.63724 0.0
C248 C 0.20807 0.38024 0.64561 0.0
C249 C 0.27923 0.37537 0.62762 0.0
H250 H 0.90375 0.85057 0.47862 0.0
C251 C 0.9594 0.84821 0.46535 0.0
H252 H 1.03389 0.82355 0.41503 0.0
H253 H 0.84688 0.70021 0.43642 0.0
H254 H 0.9693 0.6671 0.4752 0.0
H255 H 1.07726 0.69495 0.48327 0.0
H256 H 1.06127 0.75747 0.45419 0.0
C257 C 0.98083 0.82572 0.43076 0.0
C258 C 0.92901 0.80426 0.4128 0.0
C259 C 0.94157 0.7667 0.42685 0.0
C260 C 0.88059 0.75005 0.4205 0.0
C261 C 0.89185 0.71391 0.43872 0.0
C262 C 0.96204 0.6945 0.46123 0.0
C263 C 1.02266 0.71029 0.46602 0.0
C264 C 1.01273 0.7461 0.44927 0.0
H265 H 0.78058 0.71134 0.35634 0.0
C266 C 0.73442 0.72634 0.37724 0.0
H267 H 0.697 0.77183 0.42209 0.0
H268 H 0.89274 0.87452 0.37664 0.0
H269 H 0.77024 0.90848 0.33727 0.0
H270 H 0.66493 0.87911 0.32447 0.0
H271 H 0.68131 0.81572 0.35111 0.0
C272 C 0.73972 0.75744 0.39919 0.0
C273 C 0.80876 0.77069 0.3983 0.0
C274 C 0.79912 0.80694 0.3811 0.0
C275 C 0.85956 0.8238 0.38837 0.0
C276 C 0.84799 0.86063 0.37214 0.0
C277 C 0.77826 0.8803 0.3494 0.0
C278 C 0.71896 0.86376 0.3422 0.0
C279 C 0.72899 0.82746 0.35773 0.0
H280 H 0.65498 0.92098 0.04153 0.0
C281 C 0.63146 0.95005 0.02995 0.0
H282 H 0.7412 0.95941 0.03787 0.0
H283 H 0.58351 0.09534 0.90212 0.0
H284 H 0.67221 1.04864 0.85682 0.0
H285 H 0.75184 0.98542 0.88461 0.0
H286 H 0.74242 0.96831 0.95767 0.0
C287 C 0.67892 0.97186 0.02928 0.0
C288 C 0.64765 1.01288 0.01654 0.0
C289 C 0.65606 1.02289 0.97447 0.0
C290 C 0.61186 0.05967 0.95885 0.0
C291 C 0.6177 0.06814 0.91586 0.0
C292 C 0.66796 1.04156 0.88953 0.0
C293 C 0.7127 1.00594 0.90516 0.0
C294 C 0.70672 0.99646 0.94706 0.0
H295 H 0.5573 0.17877 0.96063 0.0
C296 C 0.5805 0.14968 0.97218 0.0
H297 H 0.46988 0.14118 0.96564 0.0
H298 H 0.62606 1.00457 0.1004 0.0
H299 H 0.53724 0.05126 0.14564 0.0
H300 H 0.45823 0.11462 0.11796 0.0
H301 H 0.46821 0.13183 0.04502 0.0
C302 C 0.53229 0.1283 0.97353 0.0
C303 C 0.56287 0.08723 0.98614 0.0
C304 C 0.55431 0.0772 0.02818 0.0
C305 C 0.59834 1.04037 0.04377 0.0
C306 C 0.59211 1.03182 0.08669 0.0
C307 C 0.54178 0.0584 0.11299 0.0
C308 C 0.49738 0.09409 0.09742 0.0
C309 C 0.50369 0.10363 0.05559 0.0
H310 H 0.3758 1.01981 0.51748 0.0
C311 C 0.34203 1.04808 0.50611 0.0
H312 H 0.35669 0.09955 0.48642 0.0
H313 H 0.69313 0.11569 0.53821 0.0
H314 H 0.60141 0.17122 0.57002 0.0
H315 H 0.46157 0.17751 0.57106 0.0
H316 H 0.41042 0.12891 0.53984 0.0
C317 C 0.39044 0.07094 0.49681 0.0
C318 C 0.48677 0.06306 0.50001 0.0
C319 C 0.52171 0.09154 0.51738 0.0
C320 C 0.60672 0.08779 0.51685 0.0
C321 C 0.6322 0.11713 0.53653 0.0
C322 C 0.58006 0.14911 0.55526 0.0
C323 C 0.50103 0.15272 0.55573 0.0
C324 C 0.47222 0.12456 0.53731 0.0
H325 H 0.77621 0.09835 0.48086 0.0
C326 C 0.80984 0.07014 0.49248 0.0
H327 H 0.79485 1.01885 0.5125 0.0
H328 H 0.45827 1.00306 0.45959 0.0
H329 H 0.55005 0.94736 0.42809 0.0
H330 H 0.69039 0.94044 0.4282 0.0
H331 H 0.74146 0.98921 0.45918 0.0
C332 C 0.76125 1.0474 0.50186 0.0
C333 C 0.6649 0.05533 0.49847 0.0
C334 C 0.62997 1.02683 0.48113 0.0
C335 C 0.5449 1.03066 0.48151 0.0
C336 C 0.51932 1.00145 0.46157 0.0
C337 C 0.57152 0.96937 0.44303 0.0
C338 C 0.65076 0.96547 0.44309 0.0
C339 C 0.67955 0.99367 0.46147 0.0
H340 H 0.15792 0.42372 0.05252 0.0
C341 C 0.1337 0.45334 0.04278 0.0
H342 H 0.24468 0.45714 0.03087 0.0
H343 H 0.97694 0.59067 0.91295 0.0
H344 H 0.97494 0.53679 0.8662 0.0
H345 H 1.05598 0.47098 0.88506 0.0
H346 H 0.13864 0.4586 0.9511 0.0
C347 C 0.18174 0.47152 0.02926 0.0
C348 C 0.15031 0.51133 0.01252 0.0
C349 C 0.10498 0.51832 0.97303 0.0
C350 C 1.06004 0.55632 0.96158 0.0
C351 C 1.01305 0.56234 0.92277 0.0
C352 C 1.01134 0.53171 0.89573 0.0
C353 C 1.05687 0.49465 0.90638 0.0
C354 C 0.10363 0.4879 0.94443 0.0
H355 H 1.05543 0.67505 0.94794 0.0
C356 C 1.07983 0.64542 0.95762 0.0
H357 H 0.96933 0.64173 0.97078 0.0
H358 H 0.23729 0.5081 0.08803 0.0
H359 H 0.23974 0.562 0.13464 0.0
H360 H 0.15931 0.62786 0.11558 0.0
H361 H 1.07665 0.64025 0.04955 0.0
C362 C 1.03222 0.62729 0.97175 0.0
C363 C 1.06412 0.58747 0.98839 0.0
C364 C 0.10971 0.58049 0.02779 0.0
C365 C 0.15448 0.54248 0.0393 0.0
C366 C 0.20139 0.53645 0.07814 0.0
C367 C 0.20337 0.5671 0.10509 0.0
C368 C 0.15818 0.60418 0.09433 0.0
C369 C 0.11142 0.61094 0.05629 0.0
H370 H 0.3127 0.58804 0.49309 0.0
C371 C 0.3463 0.55798 0.49635 0.0
H372 H 0.3312 0.50402 0.50371 0.0
H373 H 0.99367 0.51248 0.56078 0.0
H374 H 1.08546 0.47292 0.61326 0.0
H375 H 0.22613 0.46551 0.61497 0.0
H376 H 0.2776 0.49755 0.56464 0.0
C377 C 0.29764 0.534 0.49962 0.0
C378 C 0.20125 0.54291 0.49956 0.0
C379 C 0.166 0.52408 0.52857 0.0
C380 C 1.08069 0.52811 0.52727 0.0
C381 C 1.05487 0.50957 0.55889 0.0
C382 C 0.10708 0.48701 0.58959 0.0
C383 C 0.18652 0.48279 0.59054 0.0
C384 C 0.21552 0.50118 0.56097 0.0
H385 H 0.91086 0.50587 0.50326 0.0
C386 C 0.87741 0.53592 0.49975 0.0
H387 H 0.89288 0.58972 0.49177 0.0
H388 H 0.23019 0.58141 0.43525 0.0
H389 H 0.13871 0.62018 0.38214 0.0
H390 H 0.9983 0.62685 0.37976 0.0
H391 H 0.94682 0.59494 0.43026 0.0
C392 C 0.92625 0.55976 0.49618 0.0
C393 C 1.02268 0.55071 0.49622 0.0
C394 C 1.05804 0.56928 0.46701 0.0
C395 C 0.14325 0.56547 0.46849 0.0
C396 C 0.16908 0.58401 0.43688 0.0
C397 C 0.11706 0.6061 0.4058 0.0
C398 C 1.03782 0.60981 0.40441 0.0
C399 C 1.00877 0.59157 0.43411 0.0
H400 H 1.02655 0.07792 0.36483 0.0
C401 C 1.07314 0.05194 0.37408 0.0
H402 H 0.16569 1.00497 0.3536 0.0
H403 H 0.97397 0.06002 0.16345 0.0
H404 H 0.85946 0.05224 0.19304 0.0
H405 H 0.86098 1.03753 0.26913 0.0
H406 H 0.97636 1.03141 0.31656 0.0
C407 C 0.11831 1.03038 0.34343 0.0
C408 C 0.11398 1.04071 0.29636 0.0
C409 C 1.04716 1.04282 0.26807 0.0
C410 C 1.04762 1.0495 0.2231 0.0
C411 C 0.97822 0.05352 0.19699 0.0
C412 C 0.91182 1.04932 0.21365 0.0
C413 C 0.91258 1.04116 0.25657 0.0
C414 C 0.97919 1.0379 0.28355 0.0
H415 H 1.09309 1.01505 0.1283 0.0
C416 C 0.10768 1.04098 0.12375 0.0
H417 H 0.13326 0.08809 0.15321 0.0
H418 H 0.25144 1.04014 0.3395 0.0
H419 H 0.36816 1.04454 0.30935 0.0
H420 H 0.37203 0.05158 0.23182 0.0
H421 H 0.25902 0.0546 0.18387 0.0
C422 C 0.11708 0.06272 0.15859 0.0
C423 C 0.11611 0.05247 0.2053 0.0
C424 C 0.18324 1.04966 0.23355 0.0
C425 C 0.18186 1.04433 0.27856 0.0
C426 C 0.24958 1.04301 0.30523 0.0
C427 C 0.31704 1.04572 0.28838 0.0
C428 C 0.31913 0.04981 0.24474 0.0
C429 C 0.25343 0.05175 0.21758 0.0
H430 H 0.14069 0.07512 0.86945 0.0
C431 C 0.10785 0.05537 0.87271 0.0
H432 H 1.05223 1.0189 0.84089 0.0
H433 H 1.06561 0.12744 0.67642 0.0
H434 H 0.99925 0.1826 0.71946 0.0
H435 H 0.97436 0.17547 0.79441 0.0
H436 H 1.01776 0.11333 0.8273 0.0
C437 C 1.08336 1.03927 0.83679 0.0
C438 C 1.10011 1.04512 0.79085 0.0
C439 C 1.0709 0.08148 0.7709 0.0
C440 C 1.0806 0.08529 0.72627 0.0
C441 C 1.05582 0.12244 0.70895 0.0
C442 C 1.01828 0.15448 0.73347 0.0
C443 C 1.00461 0.15048 0.77575 0.0
C444 C 1.03039 0.11455 0.79437 0.0
H445 H 1.00149 0.08081 0.63783 0.0
C446 C 1.05862 0.0703 0.6244 0.0
H447 H 0.17971 1.045 0.63941 0.0
H448 H 0.16926 0.97175 0.81731 0.0
H449 H 0.23097 0.91623 0.77352 0.0
H450 H 0.23925 0.92212 0.69616 0.0
H451 H 0.18656 0.98361 0.66196 0.0
C452 C 0.12191 0.05566 0.65199 0.0
C453 C 0.11504 0.0525 0.70005 0.0
C454 C 0.14502 1.01631 0.72017 0.0
C455 C 0.13831 1.01273 0.7651 0.0
C456 C 0.17068 0.9761 0.78351 0.0
C457 C 0.20672 0.94396 0.75877 0.0
C458 C 0.21156 0.94729 0.71522 0.0
C459 C 0.1812 0.98287 0.69601 0.0
H460 H 0.70746 0.51239 0.36274 0.0
C461 C 0.65055 0.52667 0.37529 0.0
H462 H 0.53332 0.55909 0.35926 0.0
H463 H 0.55435 0.6273 0.18185 0.0
H464 H 0.5108 0.68384 0.22698 0.0
H465 H 0.50905 0.67855 0.30494 0.0
H466 H 0.54928 0.61668 0.33834 0.0
C467 C 0.59018 0.54427 0.34693 0.0
C468 C 0.59865 0.54665 0.29881 0.0
C469 C 0.57667 0.58301 0.27905 0.0
C470 C 0.58076 0.5861 0.23374 0.0
C471 C 0.55533 0.62309 0.21584 0.0
C472 C 0.52962 0.65588 0.24137 0.0
C473 C 0.52833 0.6529 0.28525 0.0
C474 C 0.55133 0.61708 0.30399 0.0
H475 H 0.56212 0.5242 0.12806 0.0
C476 C 0.59717 0.54291 0.12464 0.0
H477 H 0.65913 0.57687 0.15584 0.0
H478 H 0.63324 0.47218 0.32205 0.0
H479 H 0.68574 0.41565 0.27801 0.0
H480 H 0.70859 0.42107 0.20236 0.0
H481 H 0.67671 0.48298 0.16975 0.0
C482 C 0.62516 0.55787 0.16052 0.0
C483 C 0.60968 0.55294 0.20714 0.0
C484 C 0.63252 0.51649 0.22697 0.0
C485 C 0.62446 0.51337 0.27202 0.0
C486 C 0.64225 0.47642 0.28918 0.0
C487 C 0.67184 0.44365 0.26411 0.0
C488 C 0.68433 0.4467 0.22143 0.0
C489 C 0.66512 0.48254 0.20297 0.0
H490 H 0.51471 0.58184 0.63307 0.0
C491 C 0.57199 0.5677 0.62088 0.0
H492 H 0.68931 0.53596 0.63779 0.0
H493 H 0.53934 0.61366 0.82547 0.0
H494 H 0.50754 0.67521 0.79206 0.0
H495 H 0.5326 0.67989 0.71661 0.0
H496 H 0.58733 0.62295 0.67356 0.0
C497 C 0.63199 0.5506 0.64968 0.0
C498 C 0.62245 0.5487 0.69775 0.0
C499 C 0.59519 0.58226 0.72399 0.0
C500 C 0.58574 0.5796 0.76897 0.0
C501 C 0.55191 0.61377 0.79237 0.0
C502 C 0.53274 0.64941 0.77344 0.0
C503 C 0.54648 0.65204 0.73087 0.0
C504 C 0.57734 0.61903 0.70636 0.0
H505 H 0.6533 0.57306 0.86838 0.0
C506 C 0.61826 0.55433 0.8717 0.0
H507 H 0.55761 0.51986 0.84033 0.0
H508 H 0.67508 0.47826 0.65944 0.0
H509 H 0.7156 0.4168 0.69377 0.0
H510 H 0.71094 0.41239 0.77166 0.0
H511 H 0.66435 0.4694 0.81577 0.0
C512 C 0.59151 0.53892 0.83577 0.0
C513 C 0.6085 0.54338 0.7893 0.0
C514 C 0.63902 0.50997 0.7633 0.0
C515 C 0.64464 0.51257 0.71806 0.0
C516 C 0.67174 0.47825 0.69372 0.0
C517 C 0.69492 0.44265 0.71301 0.0
C518 C 0.69202 0.44017 0.75684 0.0
C519 C 0.66458 0.47322 0.78178 0.0
loop_
_geom_bond_atom_site_label_1
_geom_bond_atom_site_label_2
_geom_bond_distance
_geom_bond_site_symmetry_2
_ccdc_geom_bond_type
La0 C2 2.928 . S
La0 O20 2.521 . S
La0 O21 2.628 1_566 S
La0 O22 2.554 . S
La0 O23 2.757 1_655 S
La0 O24 2.470 1_565 S
La0 O29 2.482 1_566 S
La0 O31 2.503 1_655 S
La1 C11 2.929 . S
La1 O23 2.482 1_544 S
La1 O25 2.503 1_455 S
La1 O26 2.521 . S
La1 O27 2.628 1_544 S
La1 O28 2.554 . S
La1 O29 2.757 1_455 S
La1 O30 2.470 1_545 S
C2 La0 2.928 . S
C2 C3 1.503 1_565 S
C2 O20 1.260 . S
C2 O21 1.244 1_566 S
C3 C2 1.503 1_545 S
C3 C4 1.394 . S
C3 C8 1.373 1_556 S
C4 C3 1.394 . S
C4 C5 1.380 . S
C4 H32 0.930 1_545 S
C5 C4 1.380 . S
C5 C6 1.376 . S
C5 H33 0.930 . S
C6 C5 1.376 . S
C6 C7 1.370 1_556 S
C7 C6 1.370 1_554 S
C7 C8 1.396 . S
C7 H34 0.929 . S
C8 C3 1.373 1_554 S
C8 C7 1.396 . S
C8 H35 0.929 . S
C9 O22 1.240 . S
C9 O23 1.289 1_655 S
C10 O24 1.258 . S
C10 O25 1.256 1_556 S
C11 La1 2.929 . S
C11 C12 1.502 1_545 S
C11 O26 1.265 . S
C11 O27 1.239 1_544 S
C12 C11 1.502 1_565 S
C12 C13 1.394 . S
C12 C17 1.373 1_554 S
C13 C12 1.394 . S
C13 C14 1.380 . S
C13 H36 0.930 1_565 S
C14 C13 1.380 . S
C14 C15 1.376 . S
C14 H37 0.930 . S
C15 C14 1.376 . S
C15 C16 1.370 1_554 S
C16 C15 1.370 1_556 S
C16 C17 1.396 . S
C16 H38 0.929 . S
C17 C12 1.373 1_556 S
C17 C16 1.396 . S
C17 H39 0.929 . S
C18 O28 1.240 . S
C18 O29 1.289 1_455 S
C19 O30 1.258 . S
C19 O31 1.256 1_554 S
O20 La0 2.521 . S
O20 C2 1.260 . S
O21 La0 2.628 1_544 S
O21 C2 1.244 1_544 S
O22 La0 2.554 . S
O22 C9 1.240 . S
O23 La0 2.757 1_455 S
O23 La1 2.482 1_566 S
O23 C9 1.289 1_455 S
O24 La0 2.470 1_545 S
O24 C10 1.258 . S
O25 La1 2.503 1_655 S
O25 C10 1.256 1_554 S
O26 La1 2.521 . S
O26 C11 1.265 . S
O27 La1 2.628 1_566 S
O27 C11 1.239 1_566 S
O28 La1 2.554 . S
O28 C18 1.240 . S
O29 La0 2.482 1_544 S
O29 La1 2.757 1_655 S
O29 C18 1.289 1_655 S
O30 La1 2.470 1_565 S
O30 C19 1.258 . S
O31 La0 2.503 1_455 S
O31 C19 1.256 1_556 S
H32 C4 0.930 1_565 S
H33 C5 0.930 . S
H34 C7 0.929 . S
H35 C8 0.929 . S
H36 C13 0.930 1_545 S
H37 C14 0.930 . S
H38 C16 0.929 . S
H39 C17 0.929 . S
La40 C42 2.928 1_455 S
La40 O60 2.521 1_455 S
La40 O61 2.628 1_455 S
La40 O62 2.554 . S
La40 O63 2.757 1_565 S
La40 O64 2.470 1_455 S
La40 O69 2.482 1_455 S
La40 O71 2.503 . S
La41 C51 2.928 1_655 S
La41 O63 2.482 1_655 S
La41 O65 2.503 . S
La41 O66 2.521 1_655 S
La41 O67 2.628 1_655 S
La41 O68 2.554 . S
La41 O69 2.757 1_545 S
La41 O70 2.470 1_655 S
C42 La40 2.928 1_655 S
C42 C43 1.503 . S
C42 O60 1.261 . S
C42 O61 1.243 . S
C43 C42 1.503 . S
C43 C44 1.394 . S
C43 C48 1.373 . S
C44 C43 1.394 . S
C44 C45 1.380 . S
C44 H72 0.930 . S
C45 C44 1.380 . S
C45 C46 1.376 . S
C45 H73 0.930 . S
C46 C45 1.376 . S
C46 C47 1.370 . S
C47 C46 1.370 . S
C47 C48 1.396 . S
C47 H74 0.929 . S
C48 C43 1.373 . S
C48 C47 1.396 . S
C48 H75 0.929 . S
C49 O62 1.240 . S
C49 O63 1.289 1_565 S
C50 O64 1.258 1_545 S
C50 O65 1.256 . S
C51 La41 2.928 1_455 S
C51 C52 1.503 . S
C51 O66 1.261 . S
C51 O67 1.243 . S
C52 C51 1.503 . S
C52 C53 1.394 . S
C52 C57 1.373 . S
C53 C52 1.394 . S
C53 C54 1.380 . S
C53 H76 0.930 . S
C54 C53 1.380 . S
C54 C55 1.376 . S
C54 H77 0.930 . S
C55 C54 1.376 . S
C55 C56 1.370 . S
C56 C55 1.370 . S
C56 C57 1.396 . S
C56 H78 0.929 . S
C57 C52 1.373 . S
C57 C56 1.396 . S
C57 H79 0.929 . S
C58 O68 1.240 . S
C58 O69 1.289 1_545 S
C59 O70 1.258 1_565 S
C59 O71 1.256 . S
O60 La40 2.521 1_655 S
O60 C42 1.261 . S
O61 La40 2.628 1_655 S
O61 C42 1.243 . S
O62 La40 2.554 . S
O62 C49 1.240 . S
O63 La40 2.757 1_545 S
O63 La41 2.482 1_455 S
O63 C49 1.289 1_545 S
O64 La40 2.470 1_655 S
O64 C50 1.258 1_565 S
O65 La41 2.503 . S
O65 C50 1.256 . S
O66 La41 2.521 1_455 S
O66 C51 1.261 . S
O67 La41 2.628 1_455 S
O67 C51 1.243 . S
O68 La41 2.554 . S
O68 C58 1.240 . S
O69 La40 2.482 1_655 S
O69 La41 2.757 1_565 S
O69 C58 1.289 1_565 S
O70 La41 2.470 1_455 S
O70 C59 1.258 1_545 S
O71 La40 2.503 . S
O71 C59 1.256 . S
H72 C44 0.930 . S
H73 C45 0.930 . S
H74 C47 0.929 . S
H75 C48 0.929 . S
H76 C53 0.930 . S
H77 C54 0.930 . S
H78 C56 0.929 . S
H79 C57 0.929 . S
La80 C82 2.928 . S
La80 O100 2.521 . S
La80 O101 2.628 1_556 S
La80 O102 2.554 . S
La80 O103 2.757 . S
La80 O104 2.470 . S
La80 O109 2.482 1_556 S
La80 O111 2.503 . S
La81 C91 2.928 . S
La81 O103 2.482 1_554 S
La81 O105 2.503 . S
La81 O106 2.521 . S
La81 O107 2.628 1_554 S
La81 O108 2.554 . S
La81 O109 2.757 . S
La81 O110 2.470 . S
C82 La80 2.928 . S
C82 C83 1.503 . S
C82 O100 1.261 . S
C82 O101 1.243 1_556 S
C83 C82 1.503 . S
C83 C84 1.394 . S
C83 C88 1.373 1_556 S
C84 C83 1.394 . S
C84 C85 1.380 . S
C84 H112 0.930 . S
C85 C84 1.380 . S
C85 C86 1.376 . S
C85 H113 0.930 . S
C86 C85 1.376 . S
C86 C87 1.370 1_556 S
C87 C86 1.370 1_554 S
C87 C88 1.396 . S
C87 H114 0.929 . S
C88 C83 1.373 1_554 S
C88 C87 1.396 . S
C88 H115 0.929 . S
C89 O102 1.240 . S
C89 O103 1.289 . S
C90 O104 1.258 . S
C90 O105 1.256 1_556 S
C91 La81 2.928 . S
C91 C92 1.503 . S
C91 O106 1.261 . S
C91 O107 1.243 1_554 S
C92 C91 1.503 . S
C92 C93 1.394 . S
C92 C97 1.373 1_554 S
C93 C92 1.394 . S
C93 C94 1.380 . S
C93 H116 0.930 . S
C94 C93 1.380 . S
C94 C95 1.376 . S
C94 H117 0.930 . S
C95 C94 1.376 . S
C95 C96 1.370 1_554 S
C96 C95 1.370 1_556 S
C96 C97 1.396 . S
C96 H118 0.929 . S
C97 C92 1.373 1_556 S
C97 C96 1.396 . S
C97 H119 0.929 . S
C98 O108 1.240 . S
C98 O109 1.289 . S
C99 O110 1.258 . S
C99 O111 1.256 1_554 S
O100 La80 2.521 . S
O100 C82 1.261 . S
O101 La80 2.628 1_554 S
O101 C82 1.243 1_554 S
O102 La80 2.554 . S
O102 C89 1.240 . S
O103 La80 2.757 . S
O103 La81 2.482 1_556 S
O103 C89 1.289 . S
O104 La80 2.470 . S
O104 C90 1.258 . S
O105 La81 2.503 . S
O105 C90 1.256 1_554 S
O106 La81 2.521 . S
O106 C91 1.261 . S
O107 La81 2.628 1_556 S
O107 C91 1.243 1_556 S
O108 La81 2.554 . S
O108 C98 1.240 . S
O109 La80 2.482 1_554 S
O109 La81 2.757 . S
O109 C98 1.289 . S
O110 La81 2.470 . S
O110 C99 1.258 . S
O111 La80 2.503 . S
O111 C99 1.256 1_556 S
H112 C84 0.930 . S
H113 C85 0.930 . S
H114 C87 0.929 . S
H115 C88 0.929 . S
H116 C93 0.930 . S
H117 C94 0.930 . S
H118 C96 0.929 . S
H119 C97 0.929 . S
La120 C122 2.928 . S
La120 O140 2.521 . S
La120 O141 2.628 . S
La120 O142 2.554 . S
La120 O143 2.757 . S
La120 O144 2.470 . S
La120 O149 2.482 . S
La120 O151 2.503 . S
La121 C131 2.928 . S
La121 O143 2.482 . S
La121 O145 2.503 . S
La121 O146 2.521 . S
La121 O147 2.628 . S
La121 O148 2.554 . S
La121 O149 2.757 . S
La121 O150 2.470 . S
C122 La120 2.928 . S
C122 C123 1.503 . S
C122 O140 1.261 . S
C122 O141 1.243 . S
C123 C122 1.503 . S
C123 C124 1.394 . S
C123 C128 1.373 . S
C124 C123 1.394 . S
C124 C125 1.380 . S
C124 H152 0.930 . S
C125 C124 1.380 . S
C125 C126 1.376 . S
C125 H153 0.930 . S
C126 C125 1.376 . S
C126 C127 1.370 . S
C127 C126 1.370 . S
C127 C128 1.396 . S
C127 H154 0.929 . S
C128 C123 1.373 . S
C128 C127 1.396 . S
C128 H155 0.929 . S
C129 O142 1.240 . S
C129 O143 1.289 . S
C130 O144 1.258 . S
C130 O145 1.256 . S
C131 La121 2.928 . S
C131 C132 1.503 . S
C131 O146 1.261 . S
C131 O147 1.243 . S
C132 C131 1.503 . S
C132 C133 1.394 . S
C132 C137 1.373 . S
C133 C132 1.394 . S
C133 C134 1.380 . S
C133 H156 0.930 . S
C134 C133 1.380 . S
C134 C135 1.376 . S
C134 H157 0.930 . S
C135 C134 1.376 . S
C135 C136 1.370 . S
C136 C135 1.370 . S
C136 C137 1.396 . S
C136 H158 0.929 . S
C137 C132 1.373 . S
C137 C136 1.396 . S
C137 H159 0.929 . S
C138 O148 1.240 . S
C138 O149 1.289 . S
C139 O150 1.258 . S
C139 O151 1.256 . S
O140 La120 2.521 . S
O140 C122 1.261 . S
O141 La120 2.628 . S
O141 C122 1.243 . S
O142 La120 2.554 . S
O142 C129 1.240 . S
O143 La120 2.757 . S
O143 La121 2.482 . S
O143 C129 1.289 . S
O144 La120 2.470 . S
O144 C130 1.258 . S
O145 La121 2.503 . S
O145 C130 1.256 . S
O146 La121 2.521 . S
O146 C131 1.261 . S
O147 La121 2.628 . S
O147 C131 1.243 . S
O148 La121 2.554 . S
O148 C138 1.240 . S
O149 La120 2.482 . S
O149 La121 2.757 . S
O149 C138 1.289 . S
O150 La121 2.470 . S
O150 C139 1.258 . S
O151 La120 2.503 . S
O151 C139 1.256 . S
H152 C124 0.930 . S
H153 C125 0.930 . S
H154 C127 0.929 . S
H155 C128 0.929 . S
H156 C133 0.930 . S
H157 C134 0.930 . S
H158 C136 0.929 . S
H159 C137 0.929 . S
H160 C161 0.951 . S
C161 H160 0.951 . S
C161 C167 1.264 . S
H162 C167 0.951 . S
H163 C171 0.949 . S
H164 C172 0.950 . S
H165 C173 0.951 . S
H166 C174 0.951 . S
C167 C161 1.264 . S
C167 H162 0.951 . S
C167 C168 1.478 . S
C168 C167 1.478 . S
C168 C169 1.403 . S
C168 C185 1.388 1_554 S
C169 C168 1.403 . S
C169 C170 1.438 . S
C169 C174 1.429 . S
C170 C169 1.438 . S
C170 C171 1.428 . S
C170 C183 1.392 1_554 S
C171 H163 0.949 . S
C171 C170 1.428 . S
C171 C172 1.345 . S
C172 H164 0.950 . S
C172 C171 1.345 . S
C172 C173 1.424 . S
C173 H165 0.951 . S
C173 C172 1.424 . S
C173 C174 1.347 . S
C174 H166 0.951 . S
C174 C169 1.429 . S
C174 C173 1.347 . S
H175 C176 0.951 . S
C176 H175 0.951 . S
C176 C182 1.264 . S
H177 C182 0.951 . S
H178 C186 0.949 . S
H179 C187 0.950 . S
H180 C188 0.951 . S
H181 C189 0.951 . S
C182 C176 1.264 . S
C182 H177 0.951 . S
C182 C183 1.478 . S
C183 C170 1.392 1_556 S
C183 C182 1.478 . S
C183 C184 1.398 . S
C184 C183 1.398 . S
C184 C185 1.438 . S
C184 C189 1.429 . S
C185 C168 1.388 1_556 S
C185 C184 1.438 . S
C185 C186 1.428 . S
C186 H178 0.949 . S
C186 C185 1.428 . S
C186 C187 1.345 . S
C187 H179 0.950 . S
C187 C186 1.345 . S
C187 C188 1.424 . S
C188 H180 0.951 . S
C188 C187 1.424 . S
C188 C189 1.347 . S
C189 H181 0.951 . S
C189 C184 1.429 . S
C189 C188 1.347 . S
H190 C191 0.951 . S
C191 H190 0.951 . S
C191 C197 1.265 1_556 S
H192 C197 0.950 . S
H193 C201 0.949 . S
H194 C202 0.950 . S
H195 C203 0.951 . S
H196 C204 0.951 . S
C197 C191 1.265 1_554 S
C197 H192 0.950 . S
C197 C198 1.478 . S
C198 C197 1.478 . S
C198 C199 1.397 . S
C198 C215 1.394 1_554 S
C199 C198 1.397 . S
C199 C200 1.438 . S
C199 C204 1.429 . S
C200 C199 1.438 . S
C200 C201 1.428 . S
C200 C213 1.394 1_554 S
C201 H193 0.949 . S
C201 C200 1.428 . S
C201 C202 1.345 . S
C202 H194 0.950 . S
C202 C201 1.345 . S
C202 C203 1.424 . S
C203 H195 0.951 . S
C203 C202 1.424 . S
C203 C204 1.347 . S
C204 H196 0.951 . S
C204 C199 1.429 . S
C204 C203 1.347 . S
H205 C206 0.951 . S
C206 H205 0.951 . S
C206 C212 1.265 1_554 S
H207 C212 0.950 . S
H208 C216 0.949 . S
H209 C217 0.950 . S
H210 C218 0.951 . S
H211 C219 0.951 . S
C212 C206 1.265 1_556 S
C212 H207 0.950 . S
C212 C213 1.478 . S
C213 C200 1.394 1_556 S
C213 C212 1.478 . S
C213 C214 1.397 . S
C214 C213 1.397 . S
C214 C215 1.438 . S
C214 C219 1.429 . S
C215 C198 1.394 1_556 S
C215 C214 1.438 . S
C215 C216 1.428 . S
C216 H208 0.949 . S
C216 C215 1.428 . S
C216 C217 1.345 . S
C217 H209 0.950 . S
C217 C216 1.345 . S
C217 C218 1.424 . S
C218 H210 0.951 . S
C218 C217 1.424 . S
C218 C219 1.347 . S
C219 H211 0.951 . S
C219 C214 1.429 . S
C219 C218 1.347 . S
H220 C221 0.951 . S
C221 H220 0.951 . S
C221 C227 1.265 . S
H222 C227 0.950 . S
H223 C231 0.949 . S
H224 C232 0.950 . S
H225 C233 0.951 . S
H226 C234 0.951 . S
C227 C221 1.265 . S
C227 H222 0.950 . S
C227 C228 1.478 . S
C228 C227 1.478 . S
C228 C229 1.397 . S
C228 C245 1.394 . S
C229 C228 1.397 . S
C229 C230 1.438 . S
C229 C234 1.429 . S
C230 C229 1.438 . S
C230 C231 1.428 . S
C230 C243 1.394 . S
C231 H223 0.949 . S
C231 C230 1.428 . S
C231 C232 1.345 . S
C232 H224 0.950 . S
C232 C231 1.345 . S
C232 C233 1.424 . S
C233 H225 0.951 . S
C233 C232 1.424 . S
C233 C234 1.347 . S
C234 H226 0.951 . S
C234 C229 1.429 . S
C234 C233 1.347 . S
H235 C236 0.951 . S
C236 H235 0.951 . S
C236 C242 1.265 . S
H237 C242 0.950 . S
H238 C246 0.949 . S
H239 C247 0.950 . S
H240 C248 0.951 . S
H241 C249 0.951 . S
C242 C236 1.265 . S
C242 H237 0.950 . S
C242 C243 1.478 . S
C243 C230 1.394 . S
C243 C242 1.478 . S
C243 C244 1.397 . S
C244 C243 1.397 . S
C244 C245 1.438 . S
C244 C249 1.429 . S
C245 C228 1.394 . S
C245 C244 1.438 . S
C245 C246 1.428 . S
C246 H238 0.949 . S
C246 C245 1.428 . S
C246 C247 1.345 . S
C247 H239 0.950 . S
C247 C246 1.345 . S
C247 C248 1.424 . S
C248 H240 0.951 . S
C248 C247 1.424 . S
C248 C249 1.347 . S
C249 H241 0.951 . S
C249 C244 1.429 . S
C249 C248 1.347 . S
H250 C251 0.951 . S
C251 H250 0.951 . S
C251 C257 1.265 . S
H252 C257 0.950 . S
H253 C261 0.949 . S
H254 C262 0.950 . S
H255 C263 0.951 . S
H256 C264 0.951 . S
C257 C251 1.265 . S
C257 H252 0.950 . S
C257 C258 1.478 . S
C258 C257 1.478 . S
C258 C259 1.397 . S
C258 C275 1.394 . S
C259 C258 1.397 . S
C259 C260 1.438 . S
C259 C264 1.429 . S
C260 C259 1.438 . S
C260 C261 1.428 . S
C260 C273 1.394 . S
C261 H253 0.949 . S
C261 C260 1.428 . S
C261 C262 1.345 . S
C262 H254 0.950 . S
C262 C261 1.345 . S
C262 C263 1.424 . S
C263 H255 0.951 . S
C263 C262 1.424 . S
C263 C264 1.347 . S
C264 H256 0.951 . S
C264 C259 1.429 . S
C264 C263 1.347 . S
H265 C266 0.951 . S
C266 H265 0.951 . S
C266 C272 1.265 . S
H267 C272 0.950 . S
H268 C276 0.949 . S
H269 C277 0.950 . S
H270 C278 0.951 . S
H271 C279 0.951 . S
C272 C266 1.265 . S
C272 H267 0.950 . S
C272 C273 1.478 . S
C273 C260 1.394 . S
C273 C272 1.478 . S
C273 C274 1.397 . S
C274 C273 1.397 . S
C274 C275 1.438 . S
C274 C279 1.429 . S
C275 C258 1.394 . S
C275 C274 1.438 . S
C275 C276 1.428 . S
C276 H268 0.949 . S
C276 C275 1.428 . S
C276 C277 1.345 . S
C277 H269 0.950 . S
C277 C276 1.345 . S
C277 C278 1.424 . S
C278 H270 0.951 . S
C278 C277 1.424 . S
C278 C279 1.347 . S
C279 H271 0.951 . S
C279 C274 1.429 . S
C279 C278 1.347 . S
H280 C281 0.949 1_556 S
C281 H280 0.949 1_554 S
C281 C287 1.265 . S
H282 C287 0.950 . S
H283 C291 0.949 1_545 S
H284 C292 0.950 . S
H285 C293 0.951 . S
H286 C294 0.951 . S
C287 C281 1.265 . S
C287 H282 0.950 . S
C287 C288 1.478 . S
C288 C287 1.478 . S
C288 C289 1.397 1_554 S
C288 C305 1.391 1_565 S
C289 C288 1.397 1_556 S
C289 C290 1.435 1_565 S
C289 C294 1.429 . S
C290 C289 1.435 1_545 S
C290 C291 1.428 1_545 S
C290 C303 1.397 . S
C291 H283 0.949 1_565 S
C291 C290 1.428 1_565 S
C291 C292 1.345 . S
C292 H284 0.950 . S
C292 C291 1.345 . S
C292 C293 1.424 . S
C293 H285 0.951 . S
C293 C292 1.424 . S
C293 C294 1.347 . S
C294 H286 0.951 . S
C294 C289 1.429 . S
C294 C293 1.347 . S
H295 C296 0.950 1_554 S
C296 H295 0.950 1_556 S
C296 C302 1.265 . S
H297 C302 0.950 . S
H298 C306 0.949 1_565 S
H299 C307 0.950 . S
H300 C308 0.951 . S
H301 C309 0.951 . S
C302 C296 1.265 . S
C302 H297 0.950 . S
C302 C303 1.478 . S
C303 C290 1.397 . S
C303 C302 1.478 . S
C303 C304 1.397 1_556 S
C304 C303 1.397 1_554 S
C304 C305 1.442 . S
C304 C309 1.429 . S
C305 C288 1.391 1_545 S
C305 C304 1.442 . S
C305 C306 1.427 . S
C306 H298 0.949 1_545 S
C306 C305 1.427 . S
C306 C307 1.345 . S
C307 H299 0.950 . S
C307 C306 1.345 . S
C307 C308 1.424 . S
C308 H300 0.951 . S
C308 C307 1.424 . S
C308 C309 1.347 . S
C309 H301 0.951 . S
C309 C304 1.429 . S
C309 C308 1.347 . S
H310 C311 0.951 . S
C311 H310 0.951 . S
C311 C317 1.265 1_565 S
H312 C317 0.950 . S
H313 C321 0.949 . S
H314 C322 0.950 . S
H315 C323 0.951 . S
H316 C324 0.951 . S
C317 C311 1.265 1_545 S
C317 H312 0.950 . S
C317 C318 1.478 . S
C318 C317 1.478 . S
C318 C319 1.397 . S
C318 C335 1.394 . S
C319 C318 1.397 . S
C319 C320 1.438 1_545 S
C319 C324 1.429 . S
C320 C319 1.438 1_565 S
C320 C321 1.428 . S
C320 C333 1.394 . S
C321 H313 0.949 . S
C321 C320 1.428 . S
C321 C322 1.345 . S
C322 H314 0.950 . S
C322 C321 1.345 . S
C322 C323 1.424 1_565 S
C323 H315 0.951 . S
C323 C322 1.424 1_545 S
C323 C324 1.347 . S
C324 H316 0.951 . S
C324 C319 1.429 . S
C324 C323 1.347 . S
H325 C326 0.951 . S
C326 H325 0.951 . S
C326 C332 1.265 1_545 S
H327 C332 0.950 . S
H328 C336 0.949 . S
H329 C337 0.950 . S
H330 C338 0.951 . S
H331 C339 0.951 . S
C332 C326 1.265 1_565 S
C332 H327 0.950 . S
C332 C333 1.478 . S
C333 C320 1.394 . S
C333 C332 1.478 . S
C333 C334 1.397 . S
C334 C333 1.397 . S
C334 C335 1.438 1_565 S
C334 C339 1.429 . S
C335 C318 1.394 . S
C335 C334 1.438 1_545 S
C335 C336 1.428 . S
C336 H328 0.949 . S
C336 C335 1.428 . S
C336 C337 1.345 . S
C337 H329 0.950 . S
C337 C336 1.345 . S
C337 C338 1.424 1_545 S
C338 H330 0.951 . S
C338 C337 1.424 1_565 S
C338 C339 1.347 . S
C339 H331 0.951 . S
C339 C334 1.429 . S
C339 C338 1.347 . S
H340 C341 0.951 . S
C341 H340 0.951 . S
C341 C347 1.265 1_554 S
H342 C347 0.950 . S
H343 C351 0.949 . S
H344 C352 0.950 . S
H345 C353 0.951 . S
H346 C354 0.951 . S
C347 C341 1.265 1_556 S
C347 H342 0.950 . S
C347 C348 1.478 . S
C348 C347 1.478 . S
C348 C349 1.397 . S
C348 C365 1.394 1_556 S
C349 C348 1.397 . S
C349 C350 1.438 1_655 S
C349 C354 1.429 . S
C350 C349 1.438 1_455 S
C350 C351 1.428 . S
C350 C363 1.394 1_556 S
C351 H343 0.949 . S
C351 C350 1.428 . S
C351 C352 1.345 . S
C352 H344 0.950 . S
C352 C351 1.345 . S
C352 C353 1.424 1_455 S
C353 H345 0.951 . S
C353 C352 1.424 1_655 S
C353 C354 1.347 . S
C354 H346 0.951 . S
C354 C349 1.429 . S
C354 C353 1.347 . S
H355 C356 0.951 . S
C356 H355 0.951 . S
C356 C362 1.265 1_556 S
H357 C362 0.950 . S
H358 C366 0.949 . S
H359 C367 0.950 . S
H360 C368 0.951 . S
H361 C369 0.951 . S
C362 C356 1.265 1_554 S
C362 H357 0.950 . S
C362 C363 1.478 . S
C363 C350 1.394 1_554 S
C363 C362 1.478 . S
C363 C364 1.397 . S
C364 C363 1.397 . S
C364 C365 1.438 1_455 S
C364 C369 1.429 . S
C365 C348 1.394 1_554 S
C365 C364 1.438 1_655 S
C365 C366 1.428 . S
C366 H358 0.949 . S
C366 C365 1.428 . S
C366 C367 1.345 . S
C367 H359 0.950 . S
C367 C366 1.345 . S
C367 C368 1.424 1_655 S
C368 H360 0.951 . S
C368 C367 1.424 1_455 S
C368 C369 1.347 . S
C369 H361 0.951 . S
C369 C364 1.429 . S
C369 C368 1.347 . S
H370 C371 0.951 . S
C371 H370 0.951 . S
C371 C377 1.265 . S
H372 C377 0.950 . S
H373 C381 0.949 . S
H374 C382 0.950 . S
H375 C383 0.951 . S
H376 C384 0.951 . S
C377 C371 1.265 . S
C377 H372 0.950 . S
C377 C378 1.478 . S
C378 C377 1.478 . S
C378 C379 1.397 . S
C378 C395 1.394 . S
C379 C378 1.397 . S
C379 C380 1.438 1_455 S
C379 C384 1.429 . S
C380 C379 1.438 1_655 S
C380 C381 1.428 . S
C380 C393 1.394 . S
C381 H373 0.949 . S
C381 C380 1.428 . S
C381 C382 1.345 . S
C382 H374 0.950 . S
C382 C381 1.345 . S
C382 C383 1.424 1_655 S
C383 H375 0.951 . S
C383 C382 1.424 1_455 S
C383 C384 1.347 . S
C384 H376 0.951 . S
C384 C379 1.429 . S
C384 C383 1.347 . S
H385 C386 0.951 . S
C386 H385 0.951 . S
C386 C392 1.265 . S
H387 C392 0.950 . S
H388 C396 0.949 . S
H389 C397 0.950 . S
H390 C398 0.951 . S
H391 C399 0.951 . S
C392 C386 1.265 . S
C392 H387 0.950 . S
C392 C393 1.478 . S
C393 C380 1.394 . S
C393 C392 1.478 . S
C393 C394 1.397 . S
C394 C393 1.397 . S
C394 C395 1.438 1_655 S
C394 C399 1.429 . S
C395 C378 1.394 . S
C395 C394 1.438 1_455 S
C395 C396 1.428 . S
C396 H388 0.949 . S
C396 C395 1.428 . S
C396 C397 1.345 . S
C397 H389 0.950 . S
C397 C396 1.345 . S
C397 C398 1.424 1_455 S
C398 H390 0.951 . S
C398 C397 1.424 1_655 S
C398 C399 1.347 . S
C399 H391 0.951 . S
C399 C394 1.429 . S
C399 C398 1.347 . S
H400 C401 0.951 . S
C401 H400 0.951 . S
C401 C407 1.265 1_645 S
H402 C407 0.950 . S
H403 C411 0.949 . S
H404 C412 0.950 . S
H405 C413 0.951 . S
H406 C414 0.951 . S
C407 C401 1.265 1_465 S
C407 H402 0.950 . S
C407 C408 1.479 . S
C408 C407 1.479 . S
C408 C409 1.404 . S
C408 C425 1.386 1_465 S
C409 C408 1.404 . S
C409 C410 1.438 . S
C409 C414 1.429 . S
C410 C409 1.438 . S
C410 C411 1.428 . S
C410 C423 1.394 1_465 S
C411 H403 0.949 . S
C411 C410 1.428 . S
C411 C412 1.345 . S
C412 H404 0.950 . S
C412 C411 1.345 . S
C412 C413 1.424 . S
C413 H405 0.951 . S
C413 C412 1.424 . S
C413 C414 1.347 . S
C414 H406 0.951 . S
C414 C409 1.429 . S
C414 C413 1.347 . S
H415 C416 0.952 1_565 S
C416 H415 0.952 1_545 S
C416 C422 1.264 1_455 S
H417 C422 0.950 . S
H418 C426 0.949 . S
H419 C427 0.950 . S
H420 C428 0.951 . S
H421 C429 0.951 . S
C422 C416 1.264 1_655 S
C422 H417 0.950 . S
C422 C423 1.478 . S
C423 C410 1.394 1_645 S
C423 C422 1.478 . S
C423 C424 1.397 . S
C424 C423 1.397 . S
C424 C425 1.438 . S
C424 C429 1.429 . S
C425 C408 1.386 1_645 S
C425 C424 1.438 . S
C425 C426 1.428 . S
C426 H418 0.949 . S
C426 C425 1.428 . S
C426 C427 1.345 . S
C427 H419 0.950 . S
C427 C426 1.345 . S
C427 C428 1.424 . S
C428 H420 0.951 . S
C428 C427 1.424 . S
C428 C429 1.347 . S
C429 H421 0.951 . S
C429 C424 1.429 . S
C429 C428 1.347 . S
H430 C431 0.951 . S
C431 H430 0.951 . S
C431 C437 1.265 1_465 S
H432 C437 0.950 . S
H433 C441 0.949 . S
H434 C442 0.950 . S
H435 C443 0.951 . S
H436 C444 0.951 . S
C437 C431 1.265 1_645 S
C437 H432 0.950 . S
C437 C438 1.478 . S
C438 C437 1.478 . S
C438 C439 1.419 . S
C438 C455 1.373 1_645 S
C439 C438 1.419 . S
C439 C440 1.438 . S
C439 C444 1.429 . S
C440 C439 1.438 . S
C440 C441 1.428 . S
C440 C453 1.394 1_645 S
C441 H433 0.949 . S
C441 C440 1.428 . S
C441 C442 1.345 . S
C442 H434 0.950 . S
C442 C441 1.345 . S
C442 C443 1.424 . S
C443 H435 0.951 . S
C443 C442 1.424 . S
C443 C444 1.347 . S
C444 H436 0.951 . S
C444 C439 1.429 . S
C444 C443 1.347 . S
H445 C446 0.951 1_545 S
C446 H445 0.951 1_565 S
C446 C452 1.265 1_655 S
H447 C452 0.950 . S
H448 C456 0.949 . S
H449 C457 0.950 . S
H450 C458 0.951 . S
H451 C459 0.951 . S
C452 C446 1.265 1_455 S
C452 H447 0.950 . S
C452 C453 1.478 . S
C453 C440 1.394 1_465 S
C453 C452 1.478 . S
C453 C454 1.397 . S
C454 C453 1.397 . S
C454 C455 1.438 . S
C454 C459 1.429 . S
C455 C438 1.373 1_465 S
C455 C454 1.438 . S
C455 C456 1.428 . S
C456 H448 0.949 . S
C456 C455 1.428 . S
C456 C457 1.345 . S
C457 H449 0.950 . S
C457 C456 1.345 . S
C457 C458 1.424 . S
C458 H450 0.951 . S
C458 C457 1.424 . S
C458 C459 1.347 . S
C459 H451 0.951 . S
C459 C454 1.429 . S
C459 C458 1.347 . S
H460 C461 0.951 . S
C461 H460 0.951 . S
C461 C467 1.265 . S
H462 C467 0.950 . S
H463 C471 0.949 . S
H464 C472 0.950 . S
H465 C473 0.951 . S
H466 C474 0.951 . S
C467 C461 1.265 . S
C467 H462 0.950 . S
C467 C468 1.478 . S
C468 C467 1.478 . S
C468 C469 1.397 . S
C468 C485 1.394 . S
C469 C468 1.397 . S
C469 C470 1.438 . S
C469 C474 1.429 . S
C470 C469 1.438 . S
C470 C471 1.428 . S
C470 C483 1.394 . S
C471 H463 0.949 . S
C471 C470 1.428 . S
C471 C472 1.345 . S
C472 H464 0.950 . S
C472 C471 1.345 . S
C472 C473 1.424 . S
C473 H465 0.951 . S
C473 C472 1.424 . S
C473 C474 1.347 . S
C474 H466 0.951 . S
C474 C469 1.429 . S
C474 C473 1.347 . S
H475 C476 0.951 . S
C476 H475 0.951 . S
C476 C482 1.265 . S
H477 C482 0.950 . S
H478 C486 0.949 . S
H479 C487 0.950 . S
H480 C488 0.951 . S
H481 C489 0.951 . S
C482 C476 1.265 . S
C482 H477 0.950 . S
C482 C483 1.478 . S
C483 C470 1.394 . S
C483 C482 1.478 . S
C483 C484 1.397 . S
C484 C483 1.397 . S
C484 C485 1.438 . S
C484 C489 1.429 . S
C485 C468 1.394 . S
C485 C484 1.438 . S
C485 C486 1.428 . S
C486 H478 0.949 . S
C486 C485 1.428 . S
C486 C487 1.345 . S
C487 H479 0.950 . S
C487 C486 1.345 . S
C487 C488 1.424 . S
C488 H480 0.951 . S
C488 C487 1.424 . S
C488 C489 1.347 . S
C489 H481 0.951 . S
C489 C484 1.429 . S
C489 C488 1.347 . S
H490 C491 0.951 . S
C491 H490 0.951 . S
C491 C497 1.265 . S
H492 C497 0.950 . S
H493 C501 0.949 . S
H494 C502 0.950 . S
H495 C503 0.951 . S
H496 C504 0.951 . S
C497 C491 1.265 . S
C497 H492 0.950 . S
C497 C498 1.478 . S
C498 C497 1.478 . S
C498 C499 1.397 . S
C498 C515 1.394 . S
C499 C498 1.397 . S
C499 C500 1.438 . S
C499 C504 1.429 . S
C500 C499 1.438 . S
C500 C501 1.428 . S
C500 C513 1.394 . S
C501 H493 0.949 . S
C501 C500 1.428 . S
C501 C502 1.345 . S
C502 H494 0.950 . S
C502 C501 1.345 . S
C502 C503 1.424 . S
C503 H495 0.951 . S
C503 C502 1.424 . S
C503 C504 1.347 . S
C504 H496 0.951 . S
C504 C499 1.429 . S
C504 C503 1.347 . S
H505 C506 0.951 . S
C506 H505 0.951 . S
C506 C512 1.265 . S
H507 C512 0.950 . S
H508 C516 0.949 . S
H509 C517 0.950 . S
H510 C518 0.951 . S
H511 C519 0.951 . S
C512 C506 1.265 . S
C512 H507 0.950 . S
C512 C513 1.478 . S
C513 C500 1.394 . S
C513 C512 1.478 . S
C513 C514 1.397 . S
C514 C513 1.397 . S
C514 C515 1.438 . S
C514 C519 1.429 . S
C515 C498 1.394 . S
C515 C514 1.438 . S
C515 C516 1.428 . S
C516 H508 0.949 . S
C516 C515 1.428 . S
C516 C517 1.345 . S
C517 H509 0.950 . S
C517 C516 1.345 . S
C517 C518 1.424 . S
C518 H510 0.951 . S
C518 C517 1.424 . S
C518 C519 1.347 . S
C519 H511 0.951 . S
C519 C514 1.429 . S
C519 C518 1.347 . S
C161 C90 3.563 1_554 S
C176 C19 3.563 1_556 S
C191 C99 3.564 1_556 S
C206 C10 3.564 1_554 S
C221 C55 0.297 . S
C236 C126 0.298 . S
C251 C46 0.166 . S
C266 C135 0.167 . S
C281 C15 0.909 . S
C296 C6 0.909 . S
C311 C59 4.884 . S
C326 C50 4.884 . S
C341 C95 0.920 . S
C356 C86 0.920 . S
C371 C130 4.878 . S
C386 C139 4.878 . S
C401 C49 1.445 1_645 S
C416 C18 1.411 . S
C431 C9 1.479 1_455 S
C446 C58 1.434 1_565 S
C461 C129 1.435 . S
C476 C98 1.479 . S
C491 C138 1.425 . S
C506 C89 1.476 . S
