# Generated by pormake.
# Topology umf, (4)-cn, num edge types: 1
# Building blocks:
#     Node 0, Type 0, BuildingBlock: CEKHIL_clean_sbu_0, # of connection points: 4
#     Node 1, Type 0, BuildingBlock: CEKHIL_clean_sbu_0, # of connection points: 4
#     Node 2, Type 0, BuildingBlock: CEKHIL_clean_sbu_0, # of connection points: 4
#     Node 3, Type 0, BuildingBlock: CEKHIL_clean_sbu_0, # of connection points: 4
#     Node 4, Type 0, BuildingBlock: CEKHIL_clean_sbu_0, # of connection points: 4
#     Node 5, Type 0, BuildingBlock: CEKHIL_clean_sbu_0, # of connection points: 4
#     Node 6, Type 0, BuildingBlock: CEKHIL_clean_sbu_0, # of connection points: 4
#     Node 7, Type 0, BuildingBlock: CEKHIL_clean_sbu_0, # of connection points: 4
#     Edge 8, Type (0, 0), BuildingBlock: OJICUG_clean_linker_0, # of connection points: 2
#     Edge 9, Type (0, 0), BuildingBlock: OJICUG_clean_linker_0, # of connection points: 2
#     Edge 10, Type (0, 0), BuildingBlock: OJICUG_clean_linker_0, # of connection points: 2
#     Edge 11, Type (0, 0), BuildingBlock: OJICUG_clean_linker_0, # of connection points: 2
#     Edge 12, Type (0, 0), BuildingBlock: OJICUG_clean_linker_0, # of connection points: 2
#     Edge 13, Type (0, 0), BuildingBlock: OJICUG_clean_linker_0, # of connection points: 2
#     Edge 14, Type (0, 0), BuildingBlock: OJICUG_clean_linker_0, # of connection points: 2
#     Edge 15, Type (0, 0), BuildingBlock: OJICUG_clean_linker_0, # of connection points: 2
#     Edge 16, Type (0, 0), BuildingBlock: OJICUG_clean_linker_0, # of connection points: 2
#     Edge 17, Type (0, 0), BuildingBlock: OJICUG_clean_linker_0, # of connection points: 2
#     Edge 18, Type (0, 0), BuildingBlock: OJICUG_clean_linker_0, # of connection points: 2
#     Edge 19, Type (0, 0), BuildingBlock: OJICUG_clean_linker_0, # of connection points: 2
#     Edge 20, Type (0, 0), BuildingBlock: OJICUG_clean_linker_0, # of connection points: 2
#     Edge 21, Type (0, 0), BuildingBlock: OJICUG_clean_linker_0, # of connection points: 2
#     Edge 22, Type (0, 0), BuildingBlock: OJICUG_clean_linker_0, # of connection points: 2
#     Edge 23, Type (0, 0), BuildingBlock: OJICUG_clean_linker_0, # of connection points: 2
# Relax obj value: 0.165
# Max RMSD: 0.291
# Mean RMSD: 0.282
data_MOF--net-umf--node1-CEKHIL_clean_sbu_0--edge1-OJICUG_clean_linker_0
_symmetry_space_group_name_H-M    P1
_symmetry_Int_Tables_number       1
_symmetry_cell_setting            triclinic
loop_
_symmetry_equiv_pos_as_xyz
'x, y, z'
_cell_length_a     20.641307
_cell_length_b     19.474695
_cell_length_c     37.637268
_cell_angle_alpha  89.964359
_cell_angle_beta   90.088908
_cell_angle_gamma 89.988961
loop_
_atom_site_label
_atom_site_type_symbol
_atom_site_fract_x
_atom_site_fract_y
_atom_site_fract_z
_atom_type_partial_charge
Co0 Co 0.07307 0.25773 0.16247 0.0
O1 O 0.10053 0.28687 0.20828 0.0
O2 O 0.15911 0.22062 0.17339 0.0
C3 C 0.03872 0.36026 0.14562 0.0
O4 O 0.05162 0.22336 0.11167 0.0
Co5 Co 0.92631 0.25987 0.15664 0.0
O6 O 0.94483 0.24619 0.10574 0.0
C7 C 0.98389 0.14531 0.19322 0.0
C8 C 0.15201 0.25078 0.20427 0.0
C9 C -0.00112 0.22717 0.09273 0.0
O10 O 0.03743 0.17226 0.18388 0.0
O11 O 0.92954 0.17421 0.18677 0.0
O12 O 0.09906 0.34325 0.14211 0.0
O13 O 0.00266 0.31793 0.16364 0.0
Co14 Co 0.7426 0.05322 0.65476 0.0
O15 O 0.65478 0.07656 0.64626 0.0
O16 O 0.68989 0.97 0.65235 0.0
C17 C 0.75452 0.12746 0.69971 0.0
O18 O 0.83499 0.01706 0.66538 0.0
Co19 Co 0.83646 0.15734 0.63331 0.0
O20 O 0.89164 0.11467 0.6694 0.0
C21 C 0.79723 0.06292 0.57874 0.0
C22 C 0.64141 0.01214 0.64731 0.0
C23 C 0.88707 0.05045 0.67418 0.0
O24 O 0.7564 0.04359 0.60211 0.0
O25 O 0.8382 0.11034 0.58523 0.0
O26 O 0.7315 0.06667 0.70412 0.0
O27 O 0.76329 0.1472 0.66668 0.0
Co28 Co 0.92484 0.74083 0.16153 0.0
O29 O 0.89891 0.70763 0.2068 0.0
O30 O 0.83643 0.77114 0.17247 0.0
C31 C 0.96432 0.64076 0.14372 0.0
O32 O 0.94425 0.77877 0.11128 0.0
Co33 Co 0.07084 0.74734 0.15559 0.0
O34 O 0.05145 0.75993 0.10471 0.0
C35 C 0.00783 0.85758 0.19303 0.0
C36 C 0.84491 0.73931 0.20281 0.0
C37 C -0.00344 0.7772 0.09205 0.0
O38 O 0.95548 0.82753 0.18406 0.0
O39 O 0.0634 0.83201 0.18609 0.0
O40 O 0.90353 0.65536 0.13989 0.0
O41 O -0.00168 0.68406 0.16239 0.0
Co42 Co 0.27093 0.89832 0.65351 0.0
O43 O 0.35736 0.87208 0.64246 0.0
O44 O 0.3254 0.97946 0.65053 0.0
C45 C 0.25915 0.82319 0.69798 0.0
O46 O 0.18109 0.93815 0.66669 0.0
Co47 Co 0.16818 0.79684 0.63508 0.0
O48 O 0.12097 0.8433 0.67326 0.0
C49 C 0.20537 0.89396 0.58021 0.0
C50 C 0.37242 0.93616 0.64432 0.0
C51 C 0.12855 0.90747 0.67711 0.0
O52 O 0.25124 0.90988 0.6015 0.0
O53 O 0.16317 0.84847 0.5882 0.0
O54 O 0.28709 0.88169 0.70244 0.0
O55 O 0.24592 0.80635 0.66499 0.0
Co56 Co 0.06243 0.74454 0.86845 0.0
O57 O 0.0865 0.71097 0.82295 0.0
O58 O 0.15157 0.77181 0.85704 0.0
C59 C 0.02098 0.64543 0.88656 0.0
O60 O 0.04506 0.7823 0.91895 0.0
Co61 Co 0.91711 0.75529 0.87513 0.0
O62 O 0.93753 0.76652 0.92595 0.0
C63 C 0.98205 0.86427 0.83776 0.0
C64 C 0.14166 0.74032 0.82676 0.0
C65 C 0.99305 0.78181 0.93843 0.0
O66 O 0.03378 0.83253 0.8463 0.0
O67 O 0.926 0.84012 0.84487 0.0
O68 O 0.08211 0.65862 0.88989 0.0
O69 O 0.98749 0.68942 0.86797 0.0
Co70 Co 0.25241 0.05851 0.37827 0.0
O71 O 0.34017 0.08197 0.38695 0.0
O72 O 0.30521 0.97542 0.38053 0.0
C73 C 0.24019 0.13321 0.33353 0.0
O74 O 0.16017 0.02214 0.36746 0.0
Co75 Co 0.15777 0.16227 0.39985 0.0
O76 O 0.10305 0.11953 0.36362 0.0
C77 C 0.19709 0.06691 0.45414 0.0
C78 C 0.35361 0.01755 0.38574 0.0
C79 C 0.10792 0.05536 0.35875 0.0
O80 O 0.23832 0.04823 0.43085 0.0
O81 O 0.15588 0.11418 0.44769 0.0
O82 O 0.26379 0.0727 0.32895 0.0
O83 O 0.23115 0.1524 0.36661 0.0
Co84 Co 0.91536 0.26141 0.8699 0.0
O85 O 0.88587 0.29001 0.82436 0.0
O86 O 0.83031 0.2215 0.85964 0.0
C87 C 0.94759 0.36473 0.88653 0.0
O88 O 0.93892 0.22696 0.92044 0.0
Co89 Co 0.06217 0.26747 0.8749 0.0
O90 O 0.04519 0.25255 0.92588 0.0
C91 C 0.00669 0.15184 0.83832 0.0
C92 C 0.83582 0.2518 0.82869 0.0
C93 C 0.9919 0.23173 0.93909 0.0
O94 O 0.95273 0.1773 0.84804 0.0
O95 O 0.0605 0.1819 0.84466 0.0
O96 O 0.88773 0.34622 0.89053 0.0
O97 O 0.98421 0.32334 0.86831 0.0
Co98 Co 0.72377 0.90266 0.37797 0.0
O99 O 0.63707 0.87654 0.38832 0.0
O100 O 0.66974 0.98409 0.382 0.0
C101 C 0.73521 0.82993 0.33246 0.0
O102 O 0.81405 0.94244 0.3657 0.0
Co103 Co 0.82543 0.79984 0.39517 0.0
O104 O 0.8733 0.84747 0.35762 0.0
C105 C 0.78873 0.89421 0.45125 0.0
C106 C 0.62241 0.94079 0.38748 0.0
C107 C 0.86637 0.91194 0.35484 0.0
O108 O 0.74272 0.91102 0.43022 0.0
O109 O 0.831 0.84928 0.44262 0.0
O110 O 0.70826 0.88916 0.32875 0.0
O111 O 0.74786 0.81092 0.36521 0.0
C112 C 0.06784 0.48299 0.13991 0.0
C113 C 0.01998 0.43144 0.1395 0.0
H114 H 0.08744 0.59096 0.14198 0.0
C115 C 0.95483 0.44927 0.13615 0.0
H116 H 0.11873 0.47025 0.1424 0.0
C117 C 0.93736 0.51813 0.13497 0.0
C118 C 0.98482 0.56981 0.13819 0.0
H119 H 0.91748 0.41019 0.13548 0.0
H120 H 0.88628 0.53059 0.13359 0.0
C121 C 0.05025 0.55194 0.13972 0.0
C122 C 0.48941 0.90468 0.64192 0.0
C123 C 0.44106 0.95599 0.64235 0.0
H124 H 0.59115 0.88188 0.64345 0.0
C125 C 0.45931 0.02497 0.64289 0.0
H126 H 0.47669 0.85073 0.64154 0.0
C127 C 0.52469 0.04243 0.64371 0.0
C128 C 0.57312 -0.00878 0.64437 0.0
H129 H 0.42323 0.06537 0.64322 0.0
H130 H 0.53709 0.09644 0.64459 0.0
C131 C 0.55497 0.92217 0.64311 0.0
C132 C 0.0293 0.45465 0.89805 0.0
C133 C 0.96494 0.43635 0.89215 0.0
H134 H 0.09705 0.53623 0.90245 0.0
C135 C 0.91711 0.48754 0.88883 0.0
H136 H 0.06651 0.41579 0.90103 0.0
C137 C 0.93443 0.55662 0.88866 0.0
C138 C -0.00054 0.57491 0.8927 0.0
H139 H 0.86682 0.47421 0.88428 0.0
H140 H 0.8976 0.59528 0.88405 0.0
C141 C 0.04634 0.52359 0.89893 0.0
C142 C 0.47039 0.04758 0.38977 0.0
C143 C 0.42188 -0.00348 0.3886 0.0
H144 H 0.57195 0.07021 0.39028 0.0
C145 C 0.4399 0.92739 0.38905 0.0
H146 H 0.45805 0.10164 0.38955 0.0
C147 C 0.50541 0.9097 0.38986 0.0
C148 C 0.55388 0.96087 0.38987 0.0
H149 H 0.40366 0.8872 0.38829 0.0
H150 H 0.51798 0.8557 0.38958 0.0
C151 C 0.53577 0.02992 0.39023 0.0
C152 C 0.93622 0.21143 0.99794 0.0
C153 C 0.99323 0.21735 0.97809 0.0
H154 H 0.89352 0.20818 0.04952 0.0
C155 C 0.05319 0.21648 0.99649 0.0
H156 H 0.88941 0.21144 0.9849 0.0
C157 C 0.05587 0.2152 0.03371 0.0
C158 C -0.00134 0.2145 0.05361 0.0
H159 H 0.09855 0.21988 0.98217 0.0
H160 H 0.10254 0.21847 0.0468 0.0
C161 C 0.93892 0.20987 0.03516 0.0
C162 C 0.85456 0.00282 0.52788 0.0
C163 C 0.79689 0.02428 0.54451 0.0
H164 H 0.89768 0.94233 0.48611 0.0
C165 C 0.73767 -0.00049 0.53115 0.0
H166 H 0.90105 0.01968 0.53802 0.0
C167 C 0.73576 0.95552 0.50179 0.0
C168 C 0.79308 0.93321 0.48529 0.0
H169 H 0.69238 0.01411 0.54357 0.0
H170 H 0.68899 0.93893 0.49189 0.0
C171 C 0.8527 0.95724 0.49872 0.0
C172 C 0.93684 0.79668 0.03431 0.0
C173 C 0.99521 0.79095 0.05305 0.0
H174 H 0.89058 0.80004 0.98363 0.0
C175 C 0.05387 0.79179 0.03355 0.0
H176 H 0.89096 0.79673 0.04824 0.0
C177 C 0.05397 0.79298 0.99633 0.0
C178 C 0.99541 0.79377 0.97755 0.0
H179 H 0.10021 0.78849 0.04697 0.0
H180 H 0.09972 0.78985 0.98237 0.0
C181 C 0.93696 0.7983 0.9971 0.0
C182 C 0.25653 0.00352 0.50179 0.0
C183 C 0.19723 0.02759 0.48817 0.0
H184 H 0.30528 0.94241 0.54083 0.0
C185 C 0.13953 0.0045 0.50417 0.0
H186 H 0.30186 0.01935 0.48981 0.0
C187 C 0.14145 0.95794 0.53295 0.0
C188 C 0.20113 0.93452 0.54661 0.0
H189 H 0.09302 0.02076 0.4938 0.0
H190 H 0.09642 0.94168 0.54506 0.0
C191 C 0.25847 0.95853 0.53075 0.0
C192 C 0.17203 0.26394 0.26937 0.0
C193 C 0.19003 0.23419 0.23648 0.0
H194 H 0.17291 0.25498 0.32637 0.0
C195 C 0.23411 0.17992 0.23646 0.0
H196 H 0.13851 0.30669 0.2703 0.0
C197 C 0.25441 0.15142 0.26861 0.0
C198 C 0.23035 0.17591 0.30145 0.0
H199 H 0.24909 0.15616 0.21179 0.0
H200 H 0.28585 0.10693 0.26747 0.0
C201 C 0.1916 0.23464 0.30164 0.0
C202 C 0.75867 0.17484 0.79679 0.0
C203 C 0.7987 0.23252 0.79659 0.0
H204 H 0.7124 0.09754 0.76611 0.0
C205 C 0.8147 0.26316 0.7636 0.0
H206 H 0.74544 0.15018 0.82155 0.0
C207 C 0.79735 0.23199 0.73143 0.0
C208 C 0.76278 0.17038 0.73183 0.0
H209 H 0.84514 0.30841 0.76253 0.0
H210 H 0.81438 0.2536 0.70663 0.0
C211 C 0.74061 0.14436 0.76476 0.0
C212 C 0.72644 0.81634 0.26702 0.0
C213 C 0.7512 0.79173 0.29972 0.0
H214 H 0.73654 0.81923 0.21034 0.0
C215 C 0.79709 0.73912 0.29936 0.0
H216 H 0.68967 0.85602 0.26632 0.0
C217 C 0.82265 0.71689 0.26694 0.0
C218 C 0.80347 0.74779 0.23449 0.0
H219 H 0.81653 0.71882 0.32397 0.0
H220 H 0.86121 0.67919 0.26764 0.0
C221 C 0.75273 0.79507 0.23472 0.0
C222 C 0.1907 0.73686 0.73032 0.0
C223 C 0.24089 0.78482 0.73031 0.0
H224 H 0.12095 0.6834 0.76157 0.0
C225 C 0.26724 0.80646 0.76318 0.0
H226 H 0.1699 0.71887 0.70558 0.0
C227 C 0.23852 0.78778 0.7953 0.0
C228 C 0.18375 0.74588 0.79515 0.0
H229 H 0.30728 0.84238 0.76411 0.0
H230 H 0.25639 0.80992 0.81982 0.0
C231 C 0.16263 0.71713 0.76256 0.0
C232 C 0.04899 0.04251 0.21079 0.0
C233 C 0.98758 0.07334 0.20598 0.0
H234 H 0.10411 0.94933 0.21035 0.0
C235 C 0.93246 0.0315 0.20659 0.0
H236 H 0.09265 0.07336 0.21164 0.0
C237 C 0.93924 0.96011 0.20683 0.0
C238 C 0.00129 0.92939 0.20569 0.0
H239 H 0.88451 0.05343 0.2037 0.0
H240 H 0.89571 0.92937 0.20448 0.0
C241 C 0.05585 0.97117 0.21023 0.0
C242 C 0.06695 0.01781 0.68402 0.0
C243 C 0.06887 0.9462 0.68623 0.0
H244 H 0.00801 0.10698 0.67953 0.0
C245 C 0.00996 0.91017 0.69126 0.0
H246 H 0.11104 0.04721 0.68058 0.0
C247 C 0.95031 0.94402 0.68952 0.0
C248 C 0.94828 0.01489 0.6838 0.0
H249 H 0.00937 0.85479 0.69389 0.0
H250 H 0.90604 0.91427 0.69079 0.0
C251 C 0.00737 0.05183 0.68322 0.0
C252 C 0.05911 0.03808 0.82623 0.0
C253 C 0.00412 0.08011 0.82522 0.0
H254 H 0.0953 0.93583 0.82969 0.0
C255 C 0.94315 0.04947 0.81878 0.0
H256 H 0.10677 0.05987 0.8305 0.0
C257 C 0.93602 0.97817 0.81935 0.0
C258 C 0.98997 0.9362 0.82547 0.0
H259 H 0.89973 0.08052 0.81667 0.0
H260 H 0.88777 0.95648 0.81788 0.0
C261 C 0.05214 0.96669 0.826 0.0
C262 C 0.92815 0.02231 0.34857 0.0
C263 C 0.92636 0.95071 0.34642 0.0
H264 H 0.98688 0.11161 0.35305 0.0
C265 C 0.9854 0.91471 0.34178 0.0
H266 H 0.88396 0.05168 0.35172 0.0
C267 C 0.04498 0.94867 0.34363 0.0
C268 C 0.04683 0.01959 0.34913 0.0
H269 H 0.98613 0.85932 0.33928 0.0
H270 H 0.08931 0.91897 0.34258 0.0
C271 C 0.98766 0.05643 0.3495 0.0
loop_
_geom_bond_atom_site_label_1
_geom_bond_atom_site_label_2
_geom_bond_distance
_geom_bond_site_symmetry_2
_ccdc_geom_bond_type
Co0 O1 2.216 . S
Co0 O2 2.091 . S
Co0 O4 2.004 . S
Co0 O10 2.021 . S
Co0 O12 2.137 . S
Co0 O13 2.244 . S
O1 Co0 2.216 . S
O1 C8 1.247 . S
O2 Co0 2.091 . S
O2 C8 1.261 . S
C3 O12 1.247 . S
C3 O13 1.272 . S
O4 Co0 2.004 . S
O4 C9 1.259 . S
Co5 O6 2.061 1_655 S
Co5 O11 2.052 . S
Co5 O13 2.135 1_655 S
O6 Co5 2.061 1_455 S
O6 C9 1.235 . S
C7 O10 1.238 . S
C7 O11 1.241 1_455 S
C8 O1 1.247 . S
C8 O2 1.261 . S
C9 O4 1.259 . S
C9 O6 1.235 . S
O10 Co0 2.021 . S
O10 C7 1.238 . S
O11 Co5 2.052 . S
O11 C7 1.241 1_655 S
O12 Co0 2.137 . S
O12 C3 1.247 . S
O13 Co0 2.244 . S
O13 C3 1.272 . S
O13 Co5 2.135 1_455 S
Co14 O15 2.216 . S
Co14 O16 2.091 1_545 S
Co14 O18 2.004 . S
Co14 O24 2.021 . S
Co14 O26 2.137 . S
Co14 O27 2.244 . S
O15 Co14 2.216 . S
O15 C22 1.247 . S
O16 Co14 2.091 1_565 S
O16 C22 1.261 1_565 S
C17 O26 1.247 . S
C17 O27 1.272 . S
O18 Co14 2.004 . S
O18 C23 1.259 . S
Co19 O20 2.061 . S
Co19 O25 2.052 . S
Co19 O27 2.135 . S
O20 Co19 2.061 . S
O20 C23 1.235 . S
C21 O24 1.238 . S
C21 O25 1.241 . S
C22 O15 1.247 . S
C22 O16 1.261 1_545 S
C23 O18 1.259 . S
C23 O20 1.235 . S
O24 Co14 2.021 . S
O24 C21 1.238 . S
O25 Co19 2.052 . S
O25 C21 1.241 . S
O26 Co14 2.137 . S
O26 C17 1.247 . S
O27 Co14 2.244 . S
O27 C17 1.272 . S
O27 Co19 2.135 . S
Co28 O29 2.216 . S
Co28 O30 2.091 . S
Co28 O32 2.004 . S
Co28 O38 2.021 . S
Co28 O40 2.137 . S
Co28 O41 2.244 . S
O29 Co28 2.216 . S
O29 C36 1.247 . S
O30 Co28 2.091 . S
O30 C36 1.261 . S
C31 O40 1.247 . S
C31 O41 1.272 . S
O32 Co28 2.004 . S
O32 C37 1.259 . S
Co33 O34 2.061 1_455 S
Co33 O39 2.052 . S
Co33 O41 2.135 1_455 S
O34 Co33 2.061 1_655 S
O34 C37 1.235 . S
C35 O38 1.238 . S
C35 O39 1.241 1_655 S
C36 O29 1.247 . S
C36 O30 1.261 . S
C37 O32 1.259 . S
C37 O34 1.235 . S
O38 Co28 2.021 . S
O38 C35 1.238 . S
O39 Co33 2.052 . S
O39 C35 1.241 1_455 S
O40 Co28 2.137 . S
O40 C31 1.247 . S
O41 Co28 2.244 . S
O41 C31 1.272 . S
O41 Co33 2.135 1_655 S
Co42 O43 2.216 . S
Co42 O44 2.091 1_565 S
Co42 O46 2.004 . S
Co42 O52 2.021 . S
Co42 O54 2.137 . S
Co42 O55 2.244 . S
O43 Co42 2.216 . S
O43 C50 1.247 . S
O44 Co42 2.091 1_545 S
O44 C50 1.261 1_545 S
C45 O54 1.247 . S
C45 O55 1.272 . S
O46 Co42 2.004 . S
O46 C51 1.259 . S
Co47 O48 2.061 . S
Co47 O53 2.052 . S
Co47 O55 2.135 . S
O48 Co47 2.061 . S
O48 C51 1.235 . S
C49 O52 1.238 . S
C49 O53 1.241 . S
C50 O43 1.247 . S
C50 O44 1.261 1_565 S
C51 O46 1.259 . S
C51 O48 1.235 . S
O52 Co42 2.021 . S
O52 C49 1.238 . S
O53 Co47 2.052 . S
O53 C49 1.241 . S
O54 Co42 2.137 . S
O54 C45 1.247 . S
O55 Co42 2.244 . S
O55 C45 1.272 . S
O55 Co47 2.135 . S
Co56 O57 2.216 . S
Co56 O58 2.091 . S
Co56 O60 2.004 . S
Co56 O66 2.021 . S
Co56 O68 2.137 . S
Co56 O69 2.244 . S
O57 Co56 2.216 . S
O57 C64 1.247 . S
O58 Co56 2.091 . S
O58 C64 1.261 . S
C59 O68 1.247 . S
C59 O69 1.272 . S
O60 Co56 2.004 . S
O60 C65 1.259 . S
Co61 O62 2.061 1_655 S
Co61 O67 2.052 . S
Co61 O69 2.135 1_655 S
O62 Co61 2.061 1_455 S
O62 C65 1.235 . S
C63 O66 1.238 . S
C63 O67 1.241 1_455 S
C64 O57 1.247 . S
C64 O58 1.261 . S
C65 O60 1.259 . S
C65 O62 1.235 . S
O66 Co56 2.021 . S
O66 C63 1.238 . S
O67 Co61 2.052 . S
O67 C63 1.241 1_655 S
O68 Co56 2.137 . S
O68 C59 1.247 . S
O69 Co56 2.244 . S
O69 C59 1.272 . S
O69 Co61 2.135 1_455 S
Co70 O71 2.216 . S
Co70 O72 2.091 1_545 S
Co70 O74 2.004 . S
Co70 O80 2.021 . S
Co70 O82 2.137 . S
Co70 O83 2.244 . S
O71 Co70 2.216 . S
O71 C78 1.247 . S
O72 Co70 2.091 1_565 S
O72 C78 1.261 1_565 S
C73 O82 1.247 . S
C73 O83 1.272 . S
O74 Co70 2.004 . S
O74 C79 1.259 . S
Co75 O76 2.061 . S
Co75 O81 2.052 . S
Co75 O83 2.135 . S
O76 Co75 2.061 . S
O76 C79 1.235 . S
C77 O80 1.238 . S
C77 O81 1.241 . S
C78 O71 1.247 . S
C78 O72 1.261 1_545 S
C79 O74 1.259 . S
C79 O76 1.235 . S
O80 Co70 2.021 . S
O80 C77 1.238 . S
O81 Co75 2.052 . S
O81 C77 1.241 . S
O82 Co70 2.137 . S
O82 C73 1.247 . S
O83 Co70 2.244 . S
O83 C73 1.272 . S
O83 Co75 2.135 . S
Co84 O85 2.216 . S
Co84 O86 2.091 . S
Co84 O88 2.004 . S
Co84 O94 2.021 . S
Co84 O96 2.137 . S
Co84 O97 2.244 . S
O85 Co84 2.216 . S
O85 C92 1.247 . S
O86 Co84 2.091 . S
O86 C92 1.261 . S
C87 O96 1.247 . S
C87 O97 1.272 . S
O88 Co84 2.004 . S
O88 C93 1.259 . S
Co89 O90 2.061 1_455 S
Co89 O95 2.052 . S
Co89 O97 2.135 1_455 S
O90 Co89 2.061 1_655 S
O90 C93 1.235 . S
C91 O94 1.238 . S
C91 O95 1.241 1_655 S
C92 O85 1.247 . S
C92 O86 1.261 . S
C93 O88 1.259 . S
C93 O90 1.235 . S
O94 Co84 2.021 . S
O94 C91 1.238 . S
O95 Co89 2.052 . S
O95 C91 1.241 1_455 S
O96 Co84 2.137 . S
O96 C87 1.247 . S
O97 Co84 2.244 . S
O97 C87 1.272 . S
O97 Co89 2.135 1_655 S
Co98 O99 2.216 . S
Co98 O100 2.091 1_565 S
Co98 O102 2.004 . S
Co98 O108 2.021 . S
Co98 O110 2.137 . S
Co98 O111 2.244 . S
O99 Co98 2.216 . S
O99 C106 1.247 . S
O100 Co98 2.091 1_545 S
O100 C106 1.261 1_545 S
C101 O110 1.247 . S
C101 O111 1.272 . S
O102 Co98 2.004 . S
O102 C107 1.259 . S
Co103 O104 2.061 . S
Co103 O109 2.052 . S
Co103 O111 2.135 . S
O104 Co103 2.061 . S
O104 C107 1.235 . S
C105 O108 1.238 . S
C105 O109 1.241 . S
C106 O99 1.247 . S
C106 O100 1.261 1_565 S
C107 O102 1.259 . S
C107 O104 1.235 . S
O108 Co98 2.021 . S
O108 C105 1.238 . S
O109 Co103 2.052 . S
O109 C105 1.241 . S
O110 Co98 2.137 . S
O110 C101 1.247 . S
O111 Co98 2.244 . S
O111 C101 1.272 . S
O111 Co103 2.135 . S
C112 C113 1.387 . S
C112 H116 0.950 . S
C112 C121 1.390 1_455 S
C113 C112 1.387 . S
C113 C115 1.387 . S
H114 C121 0.950 . S
C115 C113 1.387 . S
C115 C117 1.390 1_455 S
C115 H119 0.950 . S
H116 C112 0.950 . S
C117 C115 1.390 1_655 S
C117 C118 1.387 . S
C117 H120 0.950 . S
C118 C117 1.387 . S
C118 C121 1.387 . S
H119 C115 0.950 . S
H120 C117 0.950 . S
C121 C112 1.390 1_655 S
C121 H114 0.950 . S
C121 C118 1.387 . S
C122 C123 1.387 . S
C122 H126 0.950 . S
C122 C131 1.390 1_565 S
C123 C122 1.387 . S
C123 C125 1.387 . S
H124 C131 0.950 . S
C125 C123 1.387 . S
C125 C127 1.390 1_565 S
C125 H129 0.950 . S
H126 C122 0.950 . S
C127 C125 1.390 1_545 S
C127 C128 1.387 . S
C127 H130 0.950 . S
C128 C127 1.387 . S
C128 C131 1.387 . S
H129 C125 0.950 . S
H130 C127 0.950 . S
C131 C122 1.390 1_545 S
C131 H124 0.950 . S
C131 C128 1.387 . S
C132 C133 1.387 . S
C132 H136 0.950 . S
C132 C141 1.390 1_655 S
C133 C132 1.387 . S
C133 C135 1.387 . S
H134 C141 0.950 . S
C135 C133 1.387 . S
C135 C137 1.390 1_655 S
C135 H139 0.950 . S
H136 C132 0.950 . S
C137 C135 1.390 1_455 S
C137 C138 1.387 . S
C137 H140 0.950 . S
C138 C137 1.387 . S
C138 C141 1.387 . S
H139 C135 0.950 . S
H140 C137 0.950 . S
C141 C132 1.390 1_455 S
C141 H134 0.950 . S
C141 C138 1.387 . S
C142 C143 1.387 . S
C142 H146 0.950 . S
C142 C151 1.390 1_545 S
C143 C142 1.387 . S
C143 C145 1.387 . S
H144 C151 0.950 . S
C145 C143 1.387 . S
C145 C147 1.390 1_545 S
C145 H149 0.950 . S
H146 C142 0.950 . S
C147 C145 1.390 1_565 S
C147 C148 1.387 . S
C147 H150 0.950 . S
C148 C147 1.387 . S
C148 C151 1.387 . S
H149 C145 0.950 . S
H150 C147 0.950 . S
C151 C142 1.390 1_565 S
C151 H144 0.950 . S
C151 C148 1.387 . S
C152 C153 1.387 . S
C152 H156 0.950 . S
C152 C161 1.390 1_656 S
C153 C152 1.387 . S
C153 C155 1.387 . S
H154 C161 0.950 . S
C155 C153 1.387 . S
C155 C157 1.390 1_656 S
C155 H159 0.950 . S
H156 C152 0.950 . S
C157 C155 1.390 1_454 S
C157 C158 1.387 . S
C157 H160 0.950 . S
C158 C157 1.387 . S
C158 C161 1.387 . S
H159 C155 0.950 . S
H160 C157 0.950 . S
C161 C152 1.390 1_454 S
C161 H154 0.950 . S
C161 C158 1.387 . S
C162 C163 1.387 . S
C162 H166 0.950 . S
C162 C171 1.390 1_545 S
C163 C162 1.387 . S
C163 C165 1.387 . S
H164 C171 0.950 . S
C165 C163 1.387 . S
C165 C167 1.390 1_545 S
C165 H169 0.950 . S
H166 C162 0.950 . S
C167 C165 1.390 1_565 S
C167 C168 1.387 . S
C167 H170 0.950 . S
C168 C167 1.387 . S
C168 C171 1.387 . S
H169 C165 0.950 . S
H170 C167 0.950 . S
C171 C162 1.390 1_565 S
C171 H164 0.950 . S
C171 C168 1.387 . S
C172 C173 1.387 . S
C172 H176 0.950 . S
C172 C181 1.390 1_654 S
C173 C172 1.387 . S
C173 C175 1.387 . S
H174 C181 0.950 . S
C175 C173 1.387 . S
C175 C177 1.390 1_654 S
C175 H179 0.950 . S
H176 C172 0.950 . S
C177 C175 1.390 1_456 S
C177 C178 1.387 . S
C177 H180 0.950 . S
C178 C177 1.387 . S
C178 C181 1.387 . S
H179 C175 0.950 . S
H180 C177 0.950 . S
C181 C172 1.390 1_456 S
C181 H174 0.950 . S
C181 C178 1.387 . S
C182 C183 1.387 . S
C182 H186 0.950 . S
C182 C191 1.390 1_545 S
C183 C182 1.387 . S
C183 C185 1.387 . S
H184 C191 0.950 . S
C185 C183 1.387 . S
C185 C187 1.390 1_545 S
C185 H189 0.950 . S
H186 C182 0.950 . S
C187 C185 1.390 1_565 S
C187 C188 1.387 . S
C187 H190 0.950 . S
C188 C187 1.387 . S
C188 C191 1.387 . S
H189 C185 0.950 . S
H190 C187 0.950 . S
C191 C182 1.390 1_565 S
C191 H184 0.950 . S
C191 C188 1.387 . S
C192 C193 1.387 . S
C192 H196 0.950 . S
C192 C201 1.390 . S
C193 C192 1.387 . S
C193 C195 1.387 . S
H194 C201 0.950 . S
C195 C193 1.387 . S
C195 C197 1.390 . S
C195 H199 0.950 . S
H196 C192 0.950 . S
C197 C195 1.390 . S
C197 C198 1.387 . S
C197 H200 0.950 . S
C198 C197 1.387 . S
C198 C201 1.387 . S
H199 C195 0.950 . S
H200 C197 0.950 . S
C201 C192 1.390 . S
C201 H194 0.950 . S
C201 C198 1.387 . S
C202 C203 1.387 . S
C202 H206 0.950 . S
C202 C211 1.390 . S
C203 C202 1.387 . S
C203 C205 1.387 . S
H204 C211 0.950 . S
C205 C203 1.387 . S
C205 C207 1.390 . S
C205 H209 0.950 . S
H206 C202 0.950 . S
C207 C205 1.390 . S
C207 C208 1.387 . S
C207 H210 0.950 . S
C208 C207 1.387 . S
C208 C211 1.387 . S
H209 C205 0.950 . S
H210 C207 0.950 . S
C211 C202 1.390 . S
C211 H204 0.950 . S
C211 C208 1.387 . S
C212 C213 1.387 . S
C212 H216 0.950 . S
C212 C221 1.390 . S
C213 C212 1.387 . S
C213 C215 1.387 . S
H214 C221 0.950 . S
C215 C213 1.387 . S
C215 C217 1.390 . S
C215 H219 0.950 . S
H216 C212 0.950 . S
C217 C215 1.390 . S
C217 C218 1.387 . S
C217 H220 0.950 . S
C218 C217 1.387 . S
C218 C221 1.387 . S
H219 C215 0.950 . S
H220 C217 0.950 . S
C221 C212 1.390 . S
C221 H214 0.950 . S
C221 C218 1.387 . S
C222 C223 1.387 . S
C222 H226 0.950 . S
C222 C231 1.390 . S
C223 C222 1.387 . S
C223 C225 1.387 . S
H224 C231 0.950 . S
C225 C223 1.387 . S
C225 C227 1.390 . S
C225 H229 0.950 . S
H226 C222 0.950 . S
C227 C225 1.390 . S
C227 C228 1.387 . S
C227 H230 0.950 . S
C228 C227 1.387 . S
C228 C231 1.387 . S
H229 C225 0.950 . S
H230 C227 0.950 . S
C231 C222 1.390 . S
C231 H224 0.950 . S
C231 C228 1.387 . S
C232 C233 1.387 . S
C232 H236 0.950 . S
C232 C241 1.390 1_445 S
C233 C232 1.387 . S
C233 C235 1.387 . S
H234 C241 0.950 . S
C235 C233 1.387 . S
C235 C237 1.390 1_445 S
C235 H239 0.950 . S
H236 C232 0.950 . S
C237 C235 1.390 1_665 S
C237 C238 1.387 . S
C237 H240 0.950 . S
C238 C237 1.387 . S
C238 C241 1.387 . S
H239 C235 0.950 . S
H240 C237 0.950 . S
C241 C232 1.390 1_665 S
C241 H234 0.950 . S
C241 C238 1.387 . S
C242 C243 1.387 . S
C242 H246 0.950 . S
C242 C251 1.390 1_465 S
C243 C242 1.387 . S
C243 C245 1.387 . S
H244 C251 0.950 . S
C245 C243 1.387 . S
C245 C247 1.390 1_465 S
C245 H249 0.950 . S
H246 C242 0.950 . S
C247 C245 1.390 1_645 S
C247 C248 1.387 . S
C247 H250 0.950 . S
C248 C247 1.387 . S
C248 C251 1.387 . S
H249 C245 0.950 . S
H250 C247 0.950 . S
C251 C242 1.390 1_645 S
C251 H244 0.950 . S
C251 C248 1.387 . S
C252 C253 1.387 . S
C252 H256 0.950 . S
C252 C261 1.390 1_645 S
C253 C252 1.387 . S
C253 C255 1.387 . S
H254 C261 0.950 . S
C255 C253 1.387 . S
C255 C257 1.390 1_645 S
C255 H259 0.950 . S
H256 C252 0.950 . S
C257 C255 1.390 1_465 S
C257 C258 1.387 . S
C257 H260 0.950 . S
C258 C257 1.387 . S
C258 C261 1.387 . S
H259 C255 0.950 . S
H260 C257 0.950 . S
C261 C252 1.390 1_465 S
C261 H254 0.950 . S
C261 C258 1.387 . S
C262 C263 1.387 . S
C262 H266 0.950 . S
C262 C271 1.390 1_665 S
C263 C262 1.387 . S
C263 C265 1.387 . S
H264 C271 0.950 . S
C265 C263 1.387 . S
C265 C267 1.390 1_665 S
C265 H269 0.950 . S
H266 C262 0.950 . S
C267 C265 1.390 1_445 S
C267 C268 1.387 . S
C267 H270 0.950 . S
C268 C267 1.387 . S
C268 C271 1.387 . S
H269 C265 0.950 . S
H270 C267 0.950 . S
C271 C262 1.390 1_445 S
C271 H264 0.950 . S
C271 C268 1.387 . S
C113 C3 1.422 . S
C118 C31 1.422 . S
C123 C50 1.442 . S
C128 C22 1.442 . S
C133 C87 1.421 . S
C138 C59 1.421 . S
C143 C78 1.442 . S
C148 C106 1.442 . S
C153 C93 1.658 . S
C158 C9 1.658 . S
C163 C21 1.844 . S
C168 C105 1.844 . S
C173 C37 1.658 . S
C178 C65 1.658 . S
C183 C77 1.840 . S
C188 C49 1.840 . S
C193 C8 1.596 . S
C198 C73 1.544 . S
C203 C92 1.593 . S
C208 C17 1.542 . S
C213 C101 1.543 . S
C218 C36 1.593 . S
C223 C45 1.543 . S
C228 C64 1.596 . S
C233 C7 1.133 . S
C238 C35 1.133 . S
C243 C51 1.098 . S
C248 C23 1.098 . S
C253 C91 1.133 . S
C258 C63 1.133 . S
C263 C107 1.098 . S
C268 C79 1.098 . S
