# Generated by pormake.
# Topology wht, (6)-cn, num edge types: 1
# Building blocks:
#     Node 0, Type 0, BuildingBlock: IZENUY_clean_sbu_0, # of connection points: 6
#     Node 1, Type 0, BuildingBlock: IZENUY_clean_sbu_0, # of connection points: 6
#     Node 2, Type 0, BuildingBlock: IZENUY_clean_sbu_0, # of connection points: 6
#     Node 3, Type 0, BuildingBlock: IZENUY_clean_sbu_0, # of connection points: 6
#     Node 4, Type 0, BuildingBlock: IZENUY_clean_sbu_0, # of connection points: 6
#     Node 5, Type 0, BuildingBlock: IZENUY_clean_sbu_0, # of connection points: 6
#     Node 6, Type 0, BuildingBlock: IZENUY_clean_sbu_0, # of connection points: 6
#     Node 7, Type 0, BuildingBlock: IZENUY_clean_sbu_0, # of connection points: 6
#     Edge 8, Type (0, 0), BuildingBlock: AJUNOK_clean_linker_0, # of connection points: 2
#     Edge 9, Type (0, 0), BuildingBlock: AJUNOK_clean_linker_0, # of connection points: 2
#     Edge 10, Type (0, 0), BuildingBlock: AJUNOK_clean_linker_0, # of connection points: 2
#     Edge 11, Type (0, 0), BuildingBlock: AJUNOK_clean_linker_0, # of connection points: 2
#     Edge 12, Type (0, 0), BuildingBlock: AJUNOK_clean_linker_0, # of connection points: 2
#     Edge 13, Type (0, 0), BuildingBlock: AJUNOK_clean_linker_0, # of connection points: 2
#     Edge 14, Type (0, 0), BuildingBlock: AJUNOK_clean_linker_0, # of connection points: 2
#     Edge 15, Type (0, 0), BuildingBlock: AJUNOK_clean_linker_0, # of connection points: 2
#     Edge 16, Type (0, 0), BuildingBlock: AJUNOK_clean_linker_0, # of connection points: 2
#     Edge 17, Type (0, 0), BuildingBlock: AJUNOK_clean_linker_0, # of connection points: 2
#     Edge 18, Type (0, 0), BuildingBlock: AJUNOK_clean_linker_0, # of connection points: 2
#     Edge 19, Type (0, 0), BuildingBlock: AJUNOK_clean_linker_0, # of connection points: 2
#     Edge 20, Type (0, 0), BuildingBlock: AJUNOK_clean_linker_0, # of connection points: 2
#     Edge 21, Type (0, 0), BuildingBlock: AJUNOK_clean_linker_0, # of connection points: 2
#     Edge 22, Type (0, 0), BuildingBlock: AJUNOK_clean_linker_0, # of connection points: 2
#     Edge 23, Type (0, 0), BuildingBlock: AJUNOK_clean_linker_0, # of connection points: 2
#     Edge 24, Type (0, 0), BuildingBlock: AJUNOK_clean_linker_0, # of connection points: 2
#     Edge 25, Type (0, 0), BuildingBlock: AJUNOK_clean_linker_0, # of connection points: 2
#     Edge 26, Type (0, 0), BuildingBlock: AJUNOK_clean_linker_0, # of connection points: 2
#     Edge 27, Type (0, 0), BuildingBlock: AJUNOK_clean_linker_0, # of connection points: 2
#     Edge 28, Type (0, 0), BuildingBlock: AJUNOK_clean_linker_0, # of connection points: 2
#     Edge 29, Type (0, 0), BuildingBlock: AJUNOK_clean_linker_0, # of connection points: 2
#     Edge 30, Type (0, 0), BuildingBlock: AJUNOK_clean_linker_0, # of connection points: 2
#     Edge 31, Type (0, 0), BuildingBlock: AJUNOK_clean_linker_0, # of connection points: 2
# Relax obj value: 0.256
# Max RMSD: 0.239
# Mean RMSD: 0.239
data_MOF--net-wht--node1-IZENUY_clean_sbu_0--edge1-AJUNOK_clean_linker_0
_symmetry_space_group_name_H-M    P1
_symmetry_Int_Tables_number       1
_symmetry_cell_setting            triclinic
loop_
_symmetry_equiv_pos_as_xyz
'x, y, z'
_cell_length_a     19.336525
_cell_length_b     19.312945
_cell_length_c     35.001691
_cell_angle_alpha  89.98826
_cell_angle_beta   90.079001
_cell_angle_gamma 89.614457
loop_
_atom_site_label
_atom_site_type_symbol
_atom_site_fract_x
_atom_site_fract_y
_atom_site_fract_z
_atom_type_partial_charge
Fe0 Fe 0.09086 0.19918 0.13952 0.0
Fe1 Fe 0.21567 0.29215 0.15329 0.0
O2 O 0.12593 0.2765 0.15764 0.0
Fe3 Fe 0.07 0.33898 0.17841 0.0
O4 O 1.02108 0.34758 0.13439 0.0
O5 O 1.00571 0.23651 0.12714 0.0
O6 O 0.11667 0.22159 0.09221 0.0
C7 C 0.17731 0.23551 0.08216 0.0
C8 C 1.01832 0.20834 0.20506 0.0
O9 O 0.22371 0.24875 0.10666 0.0
C10 C 0.18009 0.34586 0.22731 0.0
O11 O 0.16998 0.14701 0.14689 0.0
O12 O 0.23967 0.21437 0.1791 0.0
O13 O 1.00951 0.27295 0.19855 0.0
O14 O 0.06268 0.17426 0.18636 0.0
C15 C 0.16424 0.4198 0.13503 0.0
O16 O 0.22144 0.34033 0.19911 0.0
O17 O 0.11626 0.3349 0.22314 0.0
C18 C 0.22426 0.15535 0.16663 0.0
O19 O 0.20012 0.3685 0.12587 0.0
O20 O 0.12072 0.41545 0.16216 0.0
C21 C 0.99243 0.29819 0.1172 0.0
Fe22 Fe 0.26813 0.72353 0.40789 0.0
Fe23 Fe 0.22162 0.57467 0.42658 0.0
O24 O 0.28276 0.63272 0.40714 0.0
Fe25 Fe 0.35844 0.59994 0.38522 0.0
O26 O 0.33105 0.63394 0.33977 0.0
O27 O 0.30975 0.73879 0.36153 0.0
O28 O 0.19074 0.7147 0.38111 0.0
C29 C 0.14 0.67674 0.38757 0.0
C30 C 0.40472 0.72641 0.4191 0.0
O31 O 0.14442 0.62722 0.41163 0.0
C32 C 0.35461 0.52199 0.44999 0.0
O33 O 0.22163 0.72367 0.45388 0.0
O34 O 0.22557 0.61535 0.47292 0.0
O35 O 0.41066 0.67726 0.39531 0.0
O36 O 0.34705 0.74014 0.4339 0.0
C37 C 0.25983 0.50172 0.36276 0.0
O38 O 0.28966 0.51317 0.44478 0.0
O39 O 0.38778 0.5644 0.42974 0.0
C40 C 0.21555 0.6785 0.47998 0.0
O41 O 0.21185 0.52956 0.38155 0.0
O42 O 0.32197 0.51653 0.37004 0.0
C43 C 0.31681 0.69674 0.3341 0.0
Fe44 Fe 0.97135 0.85434 0.63899 0.0
Fe45 Fe 0.84131 0.77249 0.65742 0.0
O46 O 0.93236 0.78017 0.65906 0.0
Fe47 Fe 0.98558 0.71462 0.67922 0.0
O48 O 0.03296 0.70374 0.63497 0.0
O49 O 0.05485 0.8132 0.62764 0.0
O50 O 0.94289 0.82941 0.59243 0.0
C51 C 0.88047 0.81935 0.5839 0.0
C52 C 0.04185 0.8442 0.70533 0.0
O53 O 0.83438 0.81184 0.60945 0.0
C54 C 0.87792 0.71619 0.73074 0.0
O55 O 0.89564 0.91175 0.64442 0.0
O56 O 0.82751 0.85427 0.68196 0.0
O57 O 0.04853 0.77891 0.6994 0.0
O58 O 1.00105 0.88041 0.68525 0.0
C59 C 0.88075 0.63966 0.63887 0.0
O60 O 0.83441 0.72848 0.70426 0.0
O61 O 0.94198 0.71926 0.72461 0.0
C62 C 0.84306 0.91009 0.66575 0.0
O63 O 0.84644 0.69327 0.63218 0.0
O64 O 0.93093 0.64064 0.66256 0.0
C65 C 0.06561 0.75095 0.61839 0.0
Fe66 Fe 0.83703 0.48541 0.92977 0.0
Fe67 Fe 0.70219 0.46361 0.88598 0.0
O68 O 0.77791 0.42923 0.907 0.0
Fe69 Fe 0.79552 0.33925 0.90337 0.0
O70 O 0.87341 0.3553 0.87739 0.0
O71 O 0.91557 0.43534 0.91507 0.0
O72 O 0.84846 0.53562 0.88638 0.0
C73 C 0.80056 0.56423 0.86764 0.0
C74 C 0.84366 0.37469 0.97829 0.0
O75 O 0.73833 0.54897 0.87444 0.0
C76 C 0.65842 0.33162 0.91395 0.0
O77 O 0.76786 0.54456 0.94859 0.0
O78 O 0.67133 0.49283 0.93161 0.0
O79 O 0.8412 0.33399 0.94978 0.0
O80 O 0.83052 0.43837 0.9743 0.0
C81 C 0.74582 0.37505 0.83091 0.0
O82 O 0.65129 0.38442 0.89274 0.0
O83 O 0.71661 0.31581 0.92777 0.0
C84 C 0.703 0.53467 0.95292 0.0
O85 O 0.73051 0.43648 0.83943 0.0
O86 O 0.75464 0.32943 0.85638 0.0
C87 C 0.9229 0.39209 0.88788 0.0
Fe88 Fe 0.57488 0.22108 0.5789 0.0
Fe89 Fe 0.59749 0.35727 0.62113 0.0
O90 O 0.63169 0.28156 0.60009 0.0
Fe91 Fe 0.7221 0.26551 0.60201 0.0
O92 O 0.70921 0.18771 0.6287 0.0
O93 O 0.6268 0.14358 0.59333 0.0
O94 O 0.52754 0.20988 0.62332 0.0
C95 C 0.49951 0.25801 0.64214 0.0
C96 C 0.68235 0.21569 0.52815 0.0
O97 O 0.5134 0.32018 0.63419 0.0
C98 C 0.72707 0.40269 0.59078 0.0
O99 O 0.51376 0.28908 0.56046 0.0
O100 O 0.56531 0.38666 0.57576 0.0
O101 O 0.7251 0.21911 0.55573 0.0
O102 O 0.61885 0.22722 0.53354 0.0
C103 C 0.69034 0.31697 0.6748 0.0
O104 O 0.67528 0.40923 0.61269 0.0
O105 O 0.74272 0.34458 0.57679 0.0
C106 C 0.523 0.35391 0.55524 0.0
O107 O 0.628 0.33048 0.66748 0.0
O108 O 0.73421 0.30743 0.64855 0.0
C109 C 0.67204 0.13759 0.61961 0.0
Fe110 Fe 0.28751 0.21876 0.85163 0.0
Fe111 Fe 0.34217 0.07289 0.83036 0.0
O112 O 0.27763 0.12784 0.8501 0.0
Fe113 Fe 0.20251 0.09058 0.86998 0.0
O114 O 0.22708 0.11926 0.91664 0.0
O115 O 0.24781 0.22713 0.89925 0.0
O116 O 0.36652 0.21173 0.87722 0.0
C117 C 0.41948 0.17678 0.86998 0.0
C118 C 0.14991 0.22025 0.84273 0.0
O119 O 0.41702 0.1265 0.84645 0.0
C120 C 0.21197 1.01783 0.80441 0.0
O121 O 0.33204 0.22403 0.80506 0.0
O122 O 0.33868 0.11623 0.78457 0.0
O123 O 0.14676 0.16737 0.86388 0.0
O124 O 0.20627 0.23475 0.82681 0.0
C125 C 0.3036 0.99539 0.89217 0.0
O126 O 0.27704 1.01054 0.81056 0.0
O127 O 0.17655 0.06051 0.8237 0.0
C128 C 0.34426 0.18043 0.77865 0.0
O129 O 0.35191 1.02596 0.87519 0.0
O130 O 0.24206 1.00655 0.88184 0.0
C131 C 0.23897 0.18152 0.92491 0.0
Fe132 Fe 0.3348 0.78704 0.10341 0.0
Fe133 Fe 0.48204 0.83465 0.08225 0.0
O134 O 0.4253 0.77298 0.10229 0.0
Fe135 Fe 0.4598 0.69676 0.12314 0.0
O136 O 0.431 0.72472 0.16934 0.0
O137 O 0.32424 0.74698 0.15087 0.0
O138 O 0.34407 0.86562 0.12929 0.0
C139 C 0.38129 0.91666 0.12215 0.0
C140 C 0.3309 0.64963 0.09341 0.0
O141 O 0.43062 0.91195 0.0981 0.0
C142 C 0.53218 0.70156 0.05697 0.0
O143 O 0.33133 0.83246 0.05699 0.0
O144 O 0.43889 0.83218 0.03646 0.0
O145 O 0.38136 0.64457 0.11631 0.0
O146 O 0.31727 0.70704 0.07817 0.0
C147 C 0.55794 0.79434 0.14469 0.0
O148 O 0.54199 0.76634 0.06283 0.0
O149 O 0.49031 0.66787 0.07739 0.0
C150 C 0.37519 0.8414 0.03047 0.0
O151 O 0.52913 0.84325 0.12693 0.0
O152 O 0.54475 0.73275 0.1354 0.0
C153 C 0.36949 0.74135 0.17703 0.0
Fe154 Fe 0.85714 0.96608 0.36848 0.0
Fe155 Fe 0.76765 0.83883 0.35555 0.0
O156 O 0.78016 0.92901 0.35111 0.0
Fe157 Fe 0.71526 0.98301 0.33095 0.0
O158 O 0.70761 0.03249 0.37463 0.0
O159 O 0.81847 0.05075 0.38101 0.0
O160 O 0.83696 0.9401 0.41608 0.0
C161 C 0.82547 0.87886 0.42618 0.0
C162 C 0.84356 0.03642 0.30229 0.0
O163 O 0.81298 0.83209 0.40176 0.0
C164 C 0.70914 0.87235 0.28234 0.0
O165 O 0.91087 0.88789 0.36085 0.0
O166 O 0.8445 0.81753 0.32865 0.0
O167 O 0.77915 0.04459 0.30952 0.0
O168 O 0.87967 0.99416 0.32134 0.0
C169 C 0.63932 0.88507 0.37529 0.0
O170 O 0.71771 0.83127 0.31044 0.0
O171 O 0.7181 0.93656 0.28629 0.0
C172 C 0.90329 0.83365 0.34093 0.0
O173 O 0.69285 0.85222 0.38378 0.0
O174 O 0.64067 0.93042 0.34881 0.0
C175 C 0.75662 0.06367 0.39066 0.0
C176 C 0.98722 0.09825 0.23789 0.0
C177 C 0.9708 0.1681 0.23022 0.0
C178 C 0.94391 0.05635 0.25966 0.0
C179 C 0.88168 0.08172 0.2752 0.0
H180 H 0.03451 0.07513 0.2271 0.0
H181 H 0.96013 1.00332 0.26478 0.0
S182 S 0.81308 0.26044 0.26382 0.0
N183 N 0.88653 0.26072 0.23972 0.0
N184 N 0.80506 0.1814 0.28131 0.0
C185 C 0.86353 0.15113 0.26758 0.0
C186 C 0.90817 0.19442 0.24517 0.0
C187 C 0.37357 0.41338 0.49007 0.0
C188 C 0.39546 0.47932 0.47784 0.0
C189 C 0.41531 0.37186 0.51433 0.0
C190 C 0.48015 0.39505 0.52758 0.0
H191 H 0.32443 0.39325 0.4804 0.0
H192 H 0.39624 0.32175 0.52314 0.0
S193 S 0.56102 0.56424 0.50429 0.0
N194 N 0.48618 0.56593 0.48171 0.0
N195 N 0.56406 0.48851 0.52596 0.0
C196 C 0.50226 0.46096 0.51547 0.0
C197 C 0.46012 0.50287 0.49108 0.0
C198 C 0.06355 0.94775 0.7455 0.0
C199 C 0.08693 0.88281 0.73244 0.0
C200 C 0.10524 0.99055 0.76774 0.0
C201 C 0.17283 0.97091 0.7784 0.0
H202 H 1.0122 0.96641 0.73823 0.0
H203 H 0.08377 0.03996 0.77659 0.0
S204 S 0.25943 0.80538 0.75231 0.0
N205 N 0.18242 0.80024 0.73198 0.0
N206 N 0.26123 0.88091 0.7745 0.0
C207 C 0.19726 0.90578 0.76587 0.0
C208 C 0.15417 0.86161 0.74298 0.0
C209 C 0.64167 0.68276 0.01817 0.0
C210 C 0.575 0.66125 0.02913 0.0
C211 C 0.68385 0.64125 0.99429 0.0
C212 C 0.66067 0.577 0.98016 0.0
H213 H 0.66193 0.73133 0.02865 0.0
H214 H 0.73456 0.66003 0.98651 0.0
S215 S 0.48949 0.49757 0.9999 0.0
N216 N 0.48758 0.57178 0.02315 0.0
N217 N 0.56615 0.4942 0.97939 0.0
C218 C 0.5939 0.55534 0.9909 0.0
C219 C 0.55132 0.59729 0.01498 0.0
C220 C 0.2689 0.40891 0.26683 0.0
C221 C 0.20401 0.37637 0.26423 0.0
C222 C 0.28804 0.44654 0.29956 0.0
C223 C 0.24295 0.45354 0.33094 0.0
H224 H 0.30418 0.4078 0.24282 0.0
H225 H 0.33727 0.47299 0.2995 0.0
S226 S 0.07142 0.37049 0.34109 0.0
N227 N 0.09792 0.34759 0.29809 0.0
N228 N 0.13355 0.419 0.3589 0.0
C229 C 0.17965 0.41823 0.32959 0.0
C230 C 0.16035 0.37947 0.29651 0.0
C231 C 0.12561 0.7836 0.55766 0.0
C232 C 0.1128 0.73399 0.58624 0.0
C233 C 0.16158 0.76611 0.52416 0.0
C234 C 0.18659 0.69836 0.51794 0.0
H235 H 0.10492 0.83565 0.5603 0.0
H236 H 0.16739 0.80551 0.5024 0.0
S237 S 0.17525 0.55191 0.58669 0.0
N238 N 0.13381 0.61619 0.6079 0.0
N239 N 0.20216 0.58329 0.5455 0.0
C240 C 0.17782 0.64941 0.54749 0.0
C241 C 0.14071 0.66718 0.58142 0.0
C242 C 0.7702 0.62205 0.80541 0.0
C243 C 0.81726 0.61254 0.83581 0.0
C244 C 0.78861 0.65893 0.77232 0.0
C245 C 0.85479 0.68808 0.76833 0.0
H246 H 0.71985 0.59783 0.80626 0.0
H247 H 0.7518 0.66159 0.74901 0.0
S248 S 0.99319 0.6873 0.84226 0.0
N249 N 0.93022 0.64173 0.86142 0.0
N250 N 0.96457 0.71166 0.79986 0.0
C251 C 0.90061 0.68282 0.79966 0.0
C252 C 0.88199 0.6449 0.83316 0.0
C253 C 0.91998 0.38041 0.07856 0.0
C254 C 0.94585 0.31292 0.08419 0.0
C255 C 0.88413 0.39867 0.04516 0.0
C256 C 0.87312 0.35051 0.01551 0.0
H257 H 0.92905 0.42028 0.09972 0.0
H258 H 0.86715 0.45195 0.04213 0.0
S259 S 0.92639 0.16528 0.01708 0.0
N260 N 0.95432 0.19633 0.05819 0.0
N261 N 0.8877 0.23071 0.99526 0.0
C262 C 0.8961 0.2819 0.02147 0.0
C263 C 0.9322 0.26313 0.05577 0.0
C264 C 0.77035 0.15571 0.48636 0.0
C265 C 0.70461 0.18688 0.49048 0.0
C266 C 0.78846 0.11934 0.45298 0.0
C267 C 0.74143 0.11231 0.4225 0.0
H268 H 0.80719 0.15674 0.50968 0.0
H269 H 0.83832 0.09348 0.45194 0.0
S270 S 0.56688 0.19251 0.41621 0.0
N271 N 0.59549 0.21479 0.45888 0.0
N272 N 0.62928 0.14561 0.39684 0.0
C273 C 0.67726 0.14657 0.42526 0.0
C274 C 0.65898 0.18407 0.45901 0.0
C275 C 0.3965 0.15371 0.71453 0.0
C276 C 0.37507 0.20353 0.74161 0.0
C277 C 0.43413 0.17216 0.68187 0.0
C278 C 0.45191 0.24143 0.67445 0.0
H279 H 0.3863 0.09926 0.71912 0.0
H280 H 0.45108 0.13121 0.66285 0.0
S281 S 0.40312 0.39322 0.7342 0.0
N282 N 0.37062 0.32628 0.75716 0.0
N283 N 0.44096 0.36099 0.69583 0.0
C284 C 0.42795 0.29238 0.70024 0.0
C285 C 0.38971 0.27349 0.73369 0.0
C286 C 0.40417 0.89073 0.96604 0.0
C287 C 0.3535 0.8725 0.99317 0.0
C288 C 0.38723 0.92814 0.93292 0.0
C289 C 0.31871 0.94857 0.92509 0.0
H290 H 0.45813 0.87812 0.9709 0.0
H291 H 0.42868 0.94255 0.91377 0.0
S292 S 0.16529 0.90985 0.98515 0.0
N293 N 0.23082 0.87474 0.00859 0.0
N294 N 0.19895 0.94453 0.94636 0.0
C295 C 0.2669 0.92807 0.95101 0.0
C296 C 0.28425 0.89023 0.98496 0.0
C297 C 0.62872 0.87733 0.18306 0.0
C298 C 0.60469 0.80952 0.17751 0.0
C299 C 0.66513 0.89583 0.2161 0.0
C300 C 0.67879 0.84763 0.24552 0.0
H301 H 0.6178 0.91725 0.16211 0.0
H302 H 0.68066 0.94936 0.21901 0.0
S303 S 0.63039 0.66185 0.24425 0.0
N304 N 0.60023 0.69269 0.20346 0.0
N305 N 0.66829 0.7276 0.26572 0.0
C306 C 0.65773 0.77873 0.23964 0.0
C307 C 0.62083 0.75971 0.20569 0.0
C308 C 0.1606 0.1824 0.97948 0.0
C309 C 0.22376 0.20263 0.96378 0.0
C310 C 0.146 0.19479 0.01762 0.0
C311 C 0.19452 0.22714 0.04162 0.0
H312 H 0.12248 0.15585 0.9622 0.0
H313 H 0.09671 0.17711 0.02841 0.0
S314 S 0.36673 0.29273 0.01289 0.0
N315 N 0.33422 0.25871 0.97352 0.0
N316 N 0.30737 0.28212 0.04627 0.0
C317 C 0.25746 0.24942 0.02588 0.0
C318 C 0.2719 0.23726 0.98658 0.0
C319 C 0.28656 0.71582 0.22931 0.0
C320 C 0.34971 0.74387 0.21729 0.0
C321 C 0.27412 0.70418 0.26806 0.0
C322 C 0.32354 0.72256 0.29549 0.0
H323 H 0.24853 0.69877 0.2088 0.0
H324 H 0.22715 0.67799 0.27652 0.0
S325 S 0.49111 0.80852 0.27918 0.0
N326 N 0.45803 0.79791 0.23606 0.0
N327 N 0.43387 0.77614 0.30911 0.0
C328 C 0.38395 0.756 0.2842 0.0
C329 C 0.39716 0.76694 0.24488 0.0
C330 C 0.87692 0.90611 0.48877 0.0
C331 C 0.83624 0.86154 0.46648 0.0
C332 C 0.88919 0.89233 0.52705 0.0
C333 C 0.86063 0.834 0.54461 0.0
H334 H 0.90065 0.95166 0.4765 0.0
H335 H 0.92175 0.92752 0.54302 0.0
S336 S 0.74804 0.70273 0.49982 0.0
N337 N 0.7657 0.75755 0.46496 0.0
N338 N 0.78847 0.73233 0.53805 0.0
C339 C 0.81839 0.7898 0.5233 0.0
C340 C 0.80651 0.80325 0.48382 0.0
C341 C 0.68878 0.2826 0.74241 0.0
C342 C 0.71382 0.32637 0.71373 0.0
C343 C 0.70326 0.29617 0.78072 0.0
C344 C 0.74137 0.35488 0.79101 0.0
H345 H 0.65616 0.23908 0.73523 0.0
H346 H 0.68115 0.26307 0.8024 0.0
S347 S 0.81907 0.48414 0.72611 0.0
N348 N 0.77979 0.42879 0.69752 0.0
N349 N 0.80614 0.45531 0.76992 0.0
C350 C 0.7683 0.39777 0.76245 0.0
C351 C 0.75463 0.38324 0.72352 0.0
C352 C 0.26937 0.03761 0.1808 0.0
C353 C 0.27876 0.10176 0.16318 0.0
C354 C 0.30872 0.97991 0.16979 0.0
C355 C 0.35709 0.98312 0.13944 0.0
H356 H 0.22874 0.03105 0.20176 0.0
H357 H 0.29735 0.93102 0.18355 0.0
S358 S 0.40662 0.14223 0.08745 0.0
N359 N 0.34593 0.16819 0.11749 0.0
N360 N 0.41716 0.05841 0.09514 0.0
C361 C 0.3707 0.04837 0.12364 0.0
C362 C 0.3318 0.10789 0.13574 0.0
C363 C 0.52461 0.76293 0.43052 0.0
C364 C 0.45829 0.78005 0.4179 0.0
C365 C 0.58144 0.80196 0.41923 0.0
C366 C 0.57494 0.85806 0.39322 0.0
H367 H 0.5332 0.71658 0.4474 0.0
H368 H 0.63163 0.78429 0.42911 0.0
S369 S 0.40934 0.93053 0.35734 0.0
N370 N 0.38649 0.8629 0.38326 0.0
N371 N 0.4946 0.93426 0.35991 0.0
C372 C 0.50789 0.87926 0.38301 0.0
C373 C 0.4493 0.84052 0.39575 0.0
C374 C 0.71619 1.0184 0.60827 0.0
C375 C 0.69607 0.06987 0.63424 0.0
C376 C 0.76155 0.96517 0.61946 0.0
C377 C 0.78734 0.96064 0.65716 0.0
H378 H 0.70195 1.02266 0.5784 0.0
H379 H 0.77909 0.9294 0.59777 0.0
S380 S 0.74363 0.07834 0.73698 0.0
N381 N 0.70065 0.11022 0.70004 0.0
N382 N 0.78444 1.00859 0.72111 0.0
C383 C 0.76333 1.00854 0.68408 0.0
C384 C 0.71791 0.06346 0.6726 0.0
C385 C 0.47966 0.26083 0.91249 0.0
C386 C 0.48479 0.20394 0.88703 0.0
C387 C 0.53745 0.29808 0.92419 0.0
C388 C 0.60351 0.27937 0.91186 0.0
H389 H 0.42993 0.28042 0.92169 0.0
H390 H 0.52987 0.34451 0.94113 0.0
S391 S 0.64865 0.13022 0.8496 0.0
N392 N 0.56344 0.12732 0.85287 0.0
N393 N 0.67314 0.19682 0.8759 0.0
C394 C 0.61098 0.21951 0.8891 0.0
C395 C 0.55145 0.18182 0.8765 0.0
C396 C 0.79314 0.58251 0.59729 0.0
C397 C 0.85306 0.57563 0.62047 0.0
C398 C 0.75664 0.52536 0.58409 0.0
C399 C 0.77879 0.45825 0.59254 0.0
H400 H 0.77076 0.63272 0.59106 0.0
H401 H 0.70799 0.53391 0.56932 0.0
S402 S 0.93752 0.40924 0.64622 0.0
N403 N 0.93702 0.49484 0.64719 0.0
N404 N 0.86833 0.38635 0.62158 0.0
C405 C 0.84181 0.44952 0.61245 0.0
C406 C 0.87895 0.5084 0.62659 0.0
C407 C 0.09392 0.30045 0.88932 0.0
C408 C 0.10023 0.27692 0.85127 0.0
C409 C 0.04088 0.34603 0.90041 0.0
C410 C 0.99129 0.36876 0.87395 0.0
H411 H 0.12807 0.28084 0.91129 0.0
H412 H 0.03506 0.35823 0.93047 0.0
S413 S 0.98822 0.32839 0.77021 0.0
N414 N 0.05623 0.28521 0.78653 0.0
N415 N 0.95489 0.36943 0.80738 0.0
C416 C 0.99968 0.34947 0.8353 0.0
C417 C 0.05446 0.30378 0.82394 0.0
C418 C 0.23543 0.60054 0.13211 0.0
C419 C 0.27457 0.59929 0.09818 0.0
C420 C 0.19261 0.5452 0.14239 0.0
C421 C 0.1877 0.48663 0.11892 0.0
H422 H 0.24115 0.64275 0.15196 0.0
H423 H 0.16819 0.54588 0.17023 0.0
S424 S 0.26975 0.46414 0.02359 0.0
N425 N 0.29887 0.53942 0.03893 0.0
N426 N 0.21732 0.43559 0.05726 0.0
C427 C 0.2212 0.48817 0.08298 0.0
C428 C 0.26518 0.54434 0.07286 0.0
C429 C 1.02108 0.78857 0.32779 0.0
C430 C 0.95664 0.77915 0.34487 0.0
C431 C 0.07827 0.74899 0.33924 0.0
C432 C 0.07416 0.7006 0.36961 0.0
H433 H 1.02822 0.82934 0.30691 0.0
H434 H 0.12745 0.76032 0.32589 0.0
S435 S 0.91382 0.65037 0.41993 0.0
N436 N 0.88878 0.71116 0.38961 0.0
N437 N 0.99781 0.6401 0.41314 0.0
C438 C 1.00863 0.68677 0.38478 0.0
C439 C 0.94959 0.72567 0.37209 0.0
loop_
_geom_bond_atom_site_label_1
_geom_bond_atom_site_label_2
_geom_bond_distance
_geom_bond_site_symmetry_2
_ccdc_geom_bond_type
Fe0 O2 1.918 . S
Fe0 O5 1.997 1_455 S
Fe0 O6 2.002 . S
Fe0 O11 1.976 . S
Fe0 O14 1.996 1_455 S
Fe1 O2 1.918 . S
Fe1 O9 1.997 . S
Fe1 O12 1.996 . S
Fe1 O16 1.976 . S
Fe1 O19 2.002 . S
O2 Fe0 1.918 . S
O2 Fe1 1.918 . S
O2 Fe3 1.918 . S
Fe3 O2 1.918 . S
Fe3 O4 2.002 1_455 S
Fe3 O13 1.976 1_455 S
Fe3 O17 1.996 . S
Fe3 O20 1.997 . S
O4 Fe3 2.002 1_655 S
O4 C21 1.295 . S
O5 Fe0 1.997 1_655 S
O5 C21 1.235 . S
O6 Fe0 2.002 . S
O6 C7 1.295 . S
C7 O6 1.295 . S
C7 O9 1.235 . S
C8 O13 1.287 . S
C8 O14 1.255 . S
O9 Fe1 1.997 . S
O9 C7 1.235 . S
C10 O16 1.287 . S
C10 O17 1.255 . S
O11 Fe0 1.976 . S
O11 C18 1.287 . S
O12 Fe1 1.996 . S
O12 C18 1.255 . S
O13 Fe3 1.976 1_655 S
O13 C8 1.287 . S
O14 Fe0 1.996 1_655 S
O14 C8 1.255 . S
C15 O19 1.295 . S
C15 O20 1.235 . S
O16 Fe1 1.976 . S
O16 C10 1.287 . S
O17 Fe3 1.996 . S
O17 C10 1.255 . S
C18 O11 1.287 . S
C18 O12 1.255 . S
O19 Fe1 2.002 . S
O19 C15 1.295 . S
O20 Fe3 1.997 . S
O20 C15 1.235 . S
C21 O4 1.295 . S
C21 O5 1.235 . S
Fe22 O24 1.918 . S
Fe22 O27 1.997 . S
Fe22 O28 2.002 . S
Fe22 O33 1.976 . S
Fe22 O36 1.996 . S
Fe23 O24 1.918 . S
Fe23 O31 1.997 . S
Fe23 O34 1.996 . S
Fe23 O38 1.976 . S
Fe23 O41 2.002 . S
O24 Fe22 1.918 . S
O24 Fe23 1.918 . S
O24 Fe25 1.918 . S
Fe25 O24 1.918 . S
Fe25 O26 2.002 . S
Fe25 O35 1.976 . S
Fe25 O39 1.996 . S
Fe25 O42 1.997 . S
O26 Fe25 2.002 . S
O26 C43 1.295 . S
O27 Fe22 1.997 . S
O27 C43 1.235 . S
O28 Fe22 2.002 . S
O28 C29 1.295 . S
C29 O28 1.295 . S
C29 O31 1.235 . S
C30 O35 1.287 . S
C30 O36 1.255 . S
O31 Fe23 1.997 . S
O31 C29 1.235 . S
C32 O38 1.287 . S
C32 O39 1.255 . S
O33 Fe22 1.976 . S
O33 C40 1.287 . S
O34 Fe23 1.996 . S
O34 C40 1.255 . S
O35 Fe25 1.976 . S
O35 C30 1.287 . S
O36 Fe22 1.996 . S
O36 C30 1.255 . S
C37 O41 1.295 . S
C37 O42 1.235 . S
O38 Fe23 1.976 . S
O38 C32 1.287 . S
O39 Fe25 1.996 . S
O39 C32 1.255 . S
C40 O33 1.287 . S
C40 O34 1.255 . S
O41 Fe23 2.002 . S
O41 C37 1.295 . S
O42 Fe25 1.997 . S
O42 C37 1.235 . S
C43 O26 1.295 . S
C43 O27 1.235 . S
Fe44 O46 1.918 . S
Fe44 O49 1.997 1_655 S
Fe44 O50 2.002 . S
Fe44 O55 1.976 . S
Fe44 O58 1.996 1_655 S
Fe45 O46 1.918 . S
Fe45 O53 1.997 . S
Fe45 O56 1.996 . S
Fe45 O60 1.976 . S
Fe45 O63 2.002 . S
O46 Fe44 1.918 . S
O46 Fe45 1.918 . S
O46 Fe47 1.918 . S
Fe47 O46 1.918 . S
Fe47 O48 2.002 1_655 S
Fe47 O57 1.976 1_655 S
Fe47 O61 1.996 . S
Fe47 O64 1.997 . S
O48 Fe47 2.002 1_455 S
O48 C65 1.295 . S
O49 Fe44 1.997 1_455 S
O49 C65 1.235 . S
O50 Fe44 2.002 . S
O50 C51 1.295 . S
C51 O50 1.295 . S
C51 O53 1.235 . S
C52 O57 1.287 . S
C52 O58 1.255 . S
O53 Fe45 1.997 . S
O53 C51 1.235 . S
C54 O60 1.287 . S
C54 O61 1.255 . S
O55 Fe44 1.976 . S
O55 C62 1.287 . S
O56 Fe45 1.996 . S
O56 C62 1.255 . S
O57 Fe47 1.976 1_455 S
O57 C52 1.287 . S
O58 Fe44 1.996 1_455 S
O58 C52 1.255 . S
C59 O63 1.295 . S
C59 O64 1.235 . S
O60 Fe45 1.976 . S
O60 C54 1.287 . S
O61 Fe47 1.996 . S
O61 C54 1.255 . S
C62 O55 1.287 . S
C62 O56 1.255 . S
O63 Fe45 2.002 . S
O63 C59 1.295 . S
O64 Fe47 1.997 . S
O64 C59 1.235 . S
C65 O48 1.295 . S
C65 O49 1.235 . S
Fe66 O68 1.918 . S
Fe66 O71 1.997 . S
Fe66 O72 2.002 . S
Fe66 O77 1.976 . S
Fe66 O80 1.996 . S
Fe67 O68 1.918 . S
Fe67 O75 1.997 . S
Fe67 O78 1.996 . S
Fe67 O82 1.976 . S
Fe67 O85 2.002 . S
O68 Fe66 1.918 . S
O68 Fe67 1.918 . S
O68 Fe69 1.918 . S
Fe69 O68 1.918 . S
Fe69 O70 2.002 . S
Fe69 O79 1.976 . S
Fe69 O83 1.996 . S
Fe69 O86 1.997 . S
O70 Fe69 2.002 . S
O70 C87 1.295 . S
O71 Fe66 1.997 . S
O71 C87 1.235 . S
O72 Fe66 2.002 . S
O72 C73 1.295 . S
C73 O72 1.295 . S
C73 O75 1.235 . S
C74 O79 1.287 . S
C74 O80 1.255 . S
O75 Fe67 1.997 . S
O75 C73 1.235 . S
C76 O82 1.287 . S
C76 O83 1.255 . S
O77 Fe66 1.976 . S
O77 C84 1.287 . S
O78 Fe67 1.996 . S
O78 C84 1.255 . S
O79 Fe69 1.976 . S
O79 C74 1.287 . S
O80 Fe66 1.996 . S
O80 C74 1.255 . S
C81 O85 1.295 . S
C81 O86 1.235 . S
O82 Fe67 1.976 . S
O82 C76 1.287 . S
O83 Fe69 1.996 . S
O83 C76 1.255 . S
C84 O77 1.287 . S
C84 O78 1.255 . S
O85 Fe67 2.002 . S
O85 C81 1.295 . S
O86 Fe69 1.997 . S
O86 C81 1.235 . S
C87 O70 1.295 . S
C87 O71 1.235 . S
Fe88 O90 1.918 . S
Fe88 O93 1.997 . S
Fe88 O94 2.002 . S
Fe88 O99 1.976 . S
Fe88 O102 1.996 . S
Fe89 O90 1.918 . S
Fe89 O97 1.997 . S
Fe89 O100 1.996 . S
Fe89 O104 1.976 . S
Fe89 O107 2.002 . S
O90 Fe88 1.918 . S
O90 Fe89 1.918 . S
O90 Fe91 1.918 . S
Fe91 O90 1.918 . S
Fe91 O92 2.002 . S
Fe91 O101 1.976 . S
Fe91 O105 1.996 . S
Fe91 O108 1.997 . S
O92 Fe91 2.002 . S
O92 C109 1.295 . S
O93 Fe88 1.997 . S
O93 C109 1.235 . S
O94 Fe88 2.002 . S
O94 C95 1.295 . S
C95 O94 1.295 . S
C95 O97 1.235 . S
C96 O101 1.287 . S
C96 O102 1.255 . S
O97 Fe89 1.997 . S
O97 C95 1.235 . S
C98 O104 1.287 . S
C98 O105 1.255 . S
O99 Fe88 1.976 . S
O99 C106 1.287 . S
O100 Fe89 1.996 . S
O100 C106 1.255 . S
O101 Fe91 1.976 . S
O101 C96 1.287 . S
O102 Fe88 1.996 . S
O102 C96 1.255 . S
C103 O107 1.295 . S
C103 O108 1.235 . S
O104 Fe89 1.976 . S
O104 C98 1.287 . S
O105 Fe91 1.996 . S
O105 C98 1.255 . S
C106 O99 1.287 . S
C106 O100 1.255 . S
O107 Fe89 2.002 . S
O107 C103 1.295 . S
O108 Fe91 1.997 . S
O108 C103 1.235 . S
C109 O92 1.295 . S
C109 O93 1.235 . S
Fe110 O112 1.918 . S
Fe110 O115 1.997 . S
Fe110 O116 2.002 . S
Fe110 O121 1.976 . S
Fe110 O124 1.996 . S
Fe111 O112 1.918 . S
Fe111 O119 1.997 . S
Fe111 O122 1.996 . S
Fe111 O126 1.976 1_545 S
Fe111 O129 2.002 1_545 S
O112 Fe110 1.918 . S
O112 Fe111 1.918 . S
O112 Fe113 1.918 . S
Fe113 O112 1.918 . S
Fe113 O114 2.002 . S
Fe113 O123 1.976 . S
Fe113 O127 1.996 1_545 S
Fe113 O130 1.997 1_545 S
O114 Fe113 2.002 . S
O114 C131 1.295 . S
O115 Fe110 1.997 . S
O115 C131 1.235 . S
O116 Fe110 2.002 . S
O116 C117 1.295 . S
C117 O116 1.295 . S
C117 O119 1.235 . S
C118 O123 1.287 . S
C118 O124 1.255 . S
O119 Fe111 1.997 . S
O119 C117 1.235 . S
C120 O126 1.287 . S
C120 O127 1.255 . S
O121 Fe110 1.976 . S
O121 C128 1.287 . S
O122 Fe111 1.996 . S
O122 C128 1.255 . S
O123 Fe113 1.976 . S
O123 C118 1.287 . S
O124 Fe110 1.996 . S
O124 C118 1.255 . S
C125 O129 1.295 . S
C125 O130 1.235 . S
O126 Fe111 1.976 1_565 S
O126 C120 1.287 . S
O127 Fe113 1.996 1_565 S
O127 C120 1.255 . S
C128 O121 1.287 . S
C128 O122 1.255 . S
O129 Fe111 2.002 1_565 S
O129 C125 1.295 . S
O130 Fe113 1.997 1_565 S
O130 C125 1.235 . S
C131 O114 1.295 . S
C131 O115 1.235 . S
Fe132 O134 1.918 . S
Fe132 O137 1.997 . S
Fe132 O138 2.002 . S
Fe132 O143 1.976 . S
Fe132 O146 1.996 . S
Fe133 O134 1.918 . S
Fe133 O141 1.997 . S
Fe133 O144 1.996 . S
Fe133 O148 1.976 . S
Fe133 O151 2.002 . S
O134 Fe132 1.918 . S
O134 Fe133 1.918 . S
O134 Fe135 1.918 . S
Fe135 O134 1.918 . S
Fe135 O136 2.002 . S
Fe135 O145 1.976 . S
Fe135 O149 1.996 . S
Fe135 O152 1.997 . S
O136 Fe135 2.002 . S
O136 C153 1.295 . S
O137 Fe132 1.997 . S
O137 C153 1.235 . S
O138 Fe132 2.002 . S
O138 C139 1.295 . S
C139 O138 1.295 . S
C139 O141 1.235 . S
C140 O145 1.287 . S
C140 O146 1.255 . S
O141 Fe133 1.997 . S
O141 C139 1.235 . S
C142 O148 1.287 . S
C142 O149 1.255 . S
O143 Fe132 1.976 . S
O143 C150 1.287 . S
O144 Fe133 1.996 . S
O144 C150 1.255 . S
O145 Fe135 1.976 . S
O145 C140 1.287 . S
O146 Fe132 1.996 . S
O146 C140 1.255 . S
C147 O151 1.295 . S
C147 O152 1.235 . S
O148 Fe133 1.976 . S
O148 C142 1.287 . S
O149 Fe135 1.996 . S
O149 C142 1.255 . S
C150 O143 1.287 . S
C150 O144 1.255 . S
O151 Fe133 2.002 . S
O151 C147 1.295 . S
O152 Fe135 1.997 . S
O152 C147 1.235 . S
C153 O136 1.295 . S
C153 O137 1.235 . S
Fe154 O156 1.918 . S
Fe154 O159 1.997 1_565 S
Fe154 O160 2.002 . S
Fe154 O165 1.976 . S
Fe154 O168 1.996 1_565 S
Fe155 O156 1.918 . S
Fe155 O163 1.997 . S
Fe155 O166 1.996 . S
Fe155 O170 1.976 . S
Fe155 O173 2.002 . S
O156 Fe154 1.918 . S
O156 Fe155 1.918 . S
O156 Fe157 1.918 . S
Fe157 O156 1.918 . S
Fe157 O158 2.002 1_565 S
Fe157 O167 1.976 1_565 S
Fe157 O171 1.996 . S
Fe157 O174 1.997 . S
O158 Fe157 2.002 1_545 S
O158 C175 1.295 . S
O159 Fe154 1.997 1_545 S
O159 C175 1.235 . S
O160 Fe154 2.002 . S
O160 C161 1.295 . S
C161 O160 1.295 . S
C161 O163 1.235 . S
C162 O167 1.287 . S
C162 O168 1.255 . S
O163 Fe155 1.997 . S
O163 C161 1.235 . S
C164 O170 1.287 . S
C164 O171 1.255 . S
O165 Fe154 1.976 . S
O165 C172 1.287 . S
O166 Fe155 1.996 . S
O166 C172 1.255 . S
O167 Fe157 1.976 1_545 S
O167 C162 1.287 . S
O168 Fe154 1.996 1_545 S
O168 C162 1.255 . S
C169 O173 1.295 . S
C169 O174 1.235 . S
O170 Fe155 1.976 . S
O170 C164 1.287 . S
O171 Fe157 1.996 . S
O171 C164 1.255 . S
C172 O165 1.287 . S
C172 O166 1.255 . S
O173 Fe155 2.002 . S
O173 C169 1.295 . S
O174 Fe157 1.997 . S
O174 C169 1.235 . S
C175 O158 1.295 . S
C175 O159 1.235 . S
C176 C177 1.369 . S
C176 C178 1.419 . S
C176 H180 0.930 . S
C177 C176 1.369 . S
C177 C186 1.429 . S
C178 C176 1.419 . S
C178 C179 1.363 . S
C178 H181 0.929 . S
C179 C178 1.363 . S
C179 C185 1.428 . S
H180 C176 0.930 . S
H181 C178 0.929 . S
S182 N183 1.613 . S
S182 N184 1.610 . S
N183 S182 1.613 . S
N183 C186 1.350 . S
N184 S182 1.610 . S
N184 C185 1.351 . S
C185 C179 1.428 . S
C185 N184 1.351 . S
C185 C186 1.434 . S
C186 C177 1.429 . S
C186 N183 1.350 . S
C186 C185 1.434 . S
C187 C188 1.369 . S
C187 C189 1.419 . S
C187 H191 0.930 . S
C188 C187 1.369 . S
C188 C197 1.429 . S
C189 C187 1.419 . S
C189 C190 1.363 . S
C189 H192 0.929 . S
C190 C189 1.363 . S
C190 C196 1.428 . S
H191 C187 0.930 . S
H192 C189 0.929 . S
S193 N194 1.613 . S
S193 N195 1.610 . S
N194 S193 1.613 . S
N194 C197 1.350 . S
N195 S193 1.610 . S
N195 C196 1.351 . S
C196 C190 1.428 . S
C196 N195 1.351 . S
C196 C197 1.434 . S
C197 C188 1.429 . S
C197 N194 1.350 . S
C197 C196 1.434 . S
C198 C199 1.369 . S
C198 C200 1.419 . S
C198 H202 0.930 . S
C199 C198 1.369 . S
C199 C208 1.429 . S
C200 C198 1.419 . S
C200 C201 1.363 . S
C200 H203 0.929 . S
C201 C200 1.363 . S
C201 C207 1.428 . S
H202 C198 0.930 . S
H203 C200 0.929 . S
S204 N205 1.613 . S
S204 N206 1.610 . S
N205 S204 1.613 . S
N205 C208 1.350 . S
N206 S204 1.610 . S
N206 C207 1.351 . S
C207 C201 1.428 . S
C207 N206 1.351 . S
C207 C208 1.434 . S
C208 C199 1.429 . S
C208 N205 1.350 . S
C208 C207 1.434 . S
C209 C210 1.369 . S
C209 C211 1.419 1_554 S
C209 H213 0.930 . S
C210 C209 1.369 . S
C210 C219 1.429 . S
C211 C209 1.419 1_556 S
C211 C212 1.363 . S
C211 H214 0.929 . S
C212 C211 1.363 . S
C212 C218 1.428 . S
H213 C209 0.930 . S
H214 C211 0.929 . S
S215 N216 1.613 1_556 S
S215 N217 1.610 . S
N216 S215 1.613 1_554 S
N216 C219 1.350 . S
N217 S215 1.610 . S
N217 C218 1.351 . S
C218 C212 1.428 . S
C218 N217 1.351 . S
C218 C219 1.434 1_556 S
C219 C210 1.429 . S
C219 N216 1.350 . S
C219 C218 1.434 1_554 S
C220 C221 1.369 . S
C220 C222 1.419 . S
C220 H224 0.930 . S
C221 C220 1.369 . S
C221 C230 1.429 . S
C222 C220 1.419 . S
C222 C223 1.363 . S
C222 H225 0.929 . S
C223 C222 1.363 . S
C223 C229 1.428 . S
H224 C220 0.930 . S
H225 C222 0.929 . S
S226 N227 1.613 . S
S226 N228 1.610 . S
N227 S226 1.613 . S
N227 C230 1.350 . S
N228 S226 1.610 . S
N228 C229 1.351 . S
C229 C223 1.428 . S
C229 N228 1.351 . S
C229 C230 1.434 . S
C230 C221 1.429 . S
C230 N227 1.350 . S
C230 C229 1.434 . S
C231 C232 1.369 . S
C231 C233 1.419 . S
C231 H235 0.930 . S
C232 C231 1.369 . S
C232 C241 1.429 . S
C233 C231 1.419 . S
C233 C234 1.363 . S
C233 H236 0.929 . S
C234 C233 1.363 . S
C234 C240 1.428 . S
H235 C231 0.930 . S
H236 C233 0.929 . S
S237 N238 1.613 . S
S237 N239 1.610 1_655 S
N238 S237 1.613 . S
N238 C241 1.350 1_655 S
N239 S237 1.610 1_455 S
N239 C240 1.351 . S
C240 C234 1.428 . S
C240 N239 1.351 . S
C240 C241 1.434 . S
C241 C232 1.429 . S
C241 N238 1.350 1_455 S
C241 C240 1.434 . S
C242 C243 1.369 . S
C242 C244 1.419 . S
C242 H246 0.930 . S
C243 C242 1.369 . S
C243 C252 1.429 . S
C244 C242 1.419 . S
C244 C245 1.363 . S
C244 H247 0.929 . S
C245 C244 1.363 . S
C245 C251 1.428 . S
H246 C242 0.930 . S
H247 C244 0.929 . S
S248 N249 1.613 . S
S248 N250 1.610 . S
N249 S248 1.613 . S
N249 C252 1.350 . S
N250 S248 1.610 . S
N250 C251 1.351 . S
C251 C245 1.428 . S
C251 N250 1.351 . S
C251 C252 1.434 . S
C252 C243 1.429 . S
C252 N249 1.350 . S
C252 C251 1.434 . S
C253 C254 1.369 . S
C253 C255 1.419 . S
C253 H257 0.930 . S
C254 C253 1.369 . S
C254 C263 1.429 . S
C255 C253 1.419 . S
C255 C256 1.363 . S
C255 H258 0.929 . S
C256 C255 1.363 . S
C256 C262 1.428 . S
H257 C253 0.930 . S
H258 C255 0.929 . S
S259 N260 1.613 . S
S259 N261 1.610 1_554 S
N260 S259 1.613 . S
N260 C263 1.350 . S
N261 S259 1.610 1_556 S
N261 C262 1.351 1_556 S
C262 C256 1.428 . S
C262 N261 1.351 1_554 S
C262 C263 1.434 . S
C263 C254 1.429 . S
C263 N260 1.350 . S
C263 C262 1.434 . S
C264 C265 1.369 . S
C264 C266 1.419 . S
C264 H268 0.930 . S
C265 C264 1.369 . S
C265 C274 1.429 . S
C266 C264 1.419 . S
C266 C267 1.363 . S
C266 H269 0.929 . S
C267 C266 1.363 . S
C267 C273 1.428 . S
H268 C264 0.930 . S
H269 C266 0.929 . S
S270 N271 1.613 . S
S270 N272 1.610 . S
N271 S270 1.613 . S
N271 C274 1.350 . S
N272 S270 1.610 . S
N272 C273 1.351 . S
C273 C267 1.428 . S
C273 N272 1.351 . S
C273 C274 1.434 . S
C274 C265 1.429 . S
C274 N271 1.350 . S
C274 C273 1.434 . S
C275 C276 1.369 . S
C275 C277 1.419 . S
C275 H279 0.930 . S
C276 C275 1.369 . S
C276 C285 1.429 . S
C277 C275 1.419 . S
C277 C278 1.363 . S
C277 H280 0.929 . S
C278 C277 1.363 . S
C278 C284 1.428 . S
H279 C275 0.930 . S
H280 C277 0.929 . S
S281 N282 1.613 . S
S281 N283 1.610 . S
N282 S281 1.613 . S
N282 C285 1.350 . S
N283 S281 1.610 . S
N283 C284 1.351 . S
C284 C278 1.428 . S
C284 N283 1.351 . S
C284 C285 1.434 . S
C285 C276 1.429 . S
C285 N282 1.350 . S
C285 C284 1.434 . S
C286 C287 1.369 . S
C286 C288 1.419 . S
C286 H290 0.930 . S
C287 C286 1.369 . S
C287 C296 1.428 . S
C288 C286 1.419 . S
C288 C289 1.363 . S
C288 H291 0.929 . S
C289 C288 1.363 . S
C289 C295 1.428 . S
H290 C286 0.930 . S
H291 C288 0.929 . S
S292 N293 1.613 . S
S292 N294 1.610 1_554 S
N293 S292 1.613 . S
N293 C296 1.351 1_554 S
N294 S292 1.610 1_556 S
N294 C295 1.351 . S
C295 C289 1.428 . S
C295 N294 1.351 . S
C295 C296 1.433 . S
C296 C287 1.428 . S
C296 N293 1.351 1_556 S
C296 C295 1.433 . S
C297 C298 1.369 . S
C297 C299 1.419 . S
C297 H301 0.930 . S
C298 C297 1.369 . S
C298 C307 1.429 . S
C299 C297 1.419 . S
C299 C300 1.363 . S
C299 H302 0.929 . S
C300 C299 1.363 . S
C300 C306 1.428 . S
H301 C297 0.930 . S
H302 C299 0.929 . S
S303 N304 1.613 . S
S303 N305 1.610 . S
N304 S303 1.613 . S
N304 C307 1.350 . S
N305 S303 1.610 . S
N305 C306 1.351 . S
C306 C300 1.428 . S
C306 N305 1.351 . S
C306 C307 1.434 . S
C307 C298 1.429 . S
C307 N304 1.350 . S
C307 C306 1.434 . S
C308 C309 1.369 . S
C308 C310 1.419 1_556 S
C308 H312 0.930 . S
C309 C308 1.369 . S
C309 C318 1.429 . S
C310 C308 1.419 1_554 S
C310 C311 1.363 . S
C310 H313 0.929 . S
C311 C310 1.363 . S
C311 C317 1.428 . S
H312 C308 0.930 . S
H313 C310 0.929 . S
S314 N315 1.613 1_554 S
S314 N316 1.610 . S
N315 S314 1.613 1_556 S
N315 C318 1.350 . S
N316 S314 1.610 . S
N316 C317 1.351 . S
C317 C311 1.428 . S
C317 N316 1.351 . S
C317 C318 1.434 1_554 S
C318 C309 1.429 . S
C318 N315 1.350 . S
C318 C317 1.434 1_556 S
C319 C320 1.369 . S
C319 C321 1.419 . S
C319 H323 0.930 . S
C320 C319 1.369 . S
C320 C329 1.429 . S
C321 C319 1.419 . S
C321 C322 1.363 . S
C321 H324 0.929 . S
C322 C321 1.363 . S
C322 C328 1.428 . S
H323 C319 0.930 . S
H324 C321 0.929 . S
S325 N326 1.613 . S
S325 N327 1.610 . S
N326 S325 1.613 . S
N326 C329 1.350 . S
N327 S325 1.610 . S
N327 C328 1.351 . S
C328 C322 1.428 . S
C328 N327 1.351 . S
C328 C329 1.434 . S
C329 C320 1.429 . S
C329 N326 1.350 . S
C329 C328 1.434 . S
C330 C331 1.369 . S
C330 C332 1.419 . S
C330 H334 0.930 . S
C331 C330 1.369 . S
C331 C340 1.429 . S
C332 C330 1.419 . S
C332 C333 1.363 . S
C332 H335 0.929 . S
C333 C332 1.363 . S
C333 C339 1.428 . S
H334 C330 0.930 . S
H335 C332 0.929 . S
S336 N337 1.613 . S
S336 N338 1.610 . S
N337 S336 1.613 . S
N337 C340 1.350 . S
N338 S336 1.610 . S
N338 C339 1.351 . S
C339 C333 1.428 . S
C339 N338 1.351 . S
C339 C340 1.434 . S
C340 C331 1.429 . S
C340 N337 1.350 . S
C340 C339 1.434 . S
C341 C342 1.369 . S
C341 C343 1.419 . S
C341 H345 0.930 . S
C342 C341 1.369 . S
C342 C351 1.429 . S
C343 C341 1.419 . S
C343 C344 1.363 . S
C343 H346 0.929 . S
C344 C343 1.363 . S
C344 C350 1.428 . S
H345 C341 0.930 . S
H346 C343 0.929 . S
S347 N348 1.613 . S
S347 N349 1.610 . S
N348 S347 1.613 . S
N348 C351 1.350 . S
N349 S347 1.610 . S
N349 C350 1.351 . S
C350 C344 1.428 . S
C350 N349 1.351 . S
C350 C351 1.434 . S
C351 C342 1.429 . S
C351 N348 1.350 . S
C351 C350 1.434 . S
C352 C353 1.369 1_565 S
C352 C354 1.419 . S
C352 H356 0.930 . S
C353 C352 1.369 1_545 S
C353 C362 1.429 . S
C354 C352 1.419 . S
C354 C355 1.363 . S
C354 H357 0.929 . S
C355 C354 1.363 . S
C355 C361 1.428 1_565 S
H356 C352 0.930 . S
H357 C354 0.929 . S
S358 N359 1.613 . S
S358 N360 1.610 . S
N359 S358 1.613 . S
N359 C362 1.350 . S
N360 S358 1.610 . S
N360 C361 1.351 . S
C361 C355 1.428 1_545 S
C361 N360 1.351 . S
C361 C362 1.434 . S
C362 C353 1.429 . S
C362 N359 1.350 . S
C362 C361 1.434 . S
C363 C364 1.369 . S
C363 C365 1.419 . S
C363 H367 0.930 . S
C364 C363 1.369 . S
C364 C373 1.429 . S
C365 C363 1.419 . S
C365 C366 1.363 . S
C365 H368 0.929 . S
C366 C365 1.363 . S
C366 C372 1.428 . S
H367 C363 0.930 . S
H368 C365 0.929 . S
S369 N370 1.613 . S
S369 N371 1.610 . S
N370 S369 1.613 . S
N370 C373 1.350 . S
N371 S369 1.610 . S
N371 C372 1.351 . S
C372 C366 1.428 . S
C372 N371 1.351 . S
C372 C373 1.434 . S
C373 C364 1.429 . S
C373 N370 1.350 . S
C373 C372 1.434 . S
C374 C375 1.369 1_565 S
C374 C376 1.419 . S
C374 H378 0.930 . S
C375 C374 1.369 1_545 S
C375 C384 1.429 . S
C376 C374 1.419 . S
C376 C377 1.363 . S
C376 H379 0.929 . S
C377 C376 1.363 . S
C377 C383 1.428 1_565 S
H378 C374 0.930 . S
H379 C376 0.929 . S
S380 N381 1.613 . S
S380 N382 1.610 . S
N381 S380 1.613 . S
N381 C384 1.350 . S
N382 S380 1.610 . S
N382 C383 1.351 . S
C383 C377 1.428 1_545 S
C383 N382 1.351 . S
C383 C384 1.434 . S
C384 C375 1.429 . S
C384 N381 1.350 . S
C384 C383 1.434 . S
C385 C386 1.369 . S
C385 C387 1.419 . S
C385 H389 0.930 . S
C386 C385 1.369 . S
C386 C395 1.429 . S
C387 C385 1.419 . S
C387 C388 1.363 . S
C387 H390 0.929 . S
C388 C387 1.363 . S
C388 C394 1.428 . S
H389 C385 0.930 . S
H390 C387 0.929 . S
S391 N392 1.613 . S
S391 N393 1.610 . S
N392 S391 1.613 . S
N392 C395 1.350 . S
N393 S391 1.610 . S
N393 C394 1.351 . S
C394 C388 1.428 . S
C394 N393 1.351 . S
C394 C395 1.434 . S
C395 C386 1.429 . S
C395 N392 1.350 . S
C395 C394 1.434 . S
C396 C397 1.369 . S
C396 C398 1.419 . S
C396 H400 0.930 . S
C397 C396 1.369 . S
C397 C406 1.429 . S
C398 C396 1.419 . S
C398 C399 1.363 . S
C398 H401 0.929 . S
C399 C398 1.363 . S
C399 C405 1.428 . S
H400 C396 0.930 . S
H401 C398 0.929 . S
S402 N403 1.613 . S
S402 N404 1.610 . S
N403 S402 1.613 . S
N403 C406 1.350 . S
N404 S402 1.610 . S
N404 C405 1.351 . S
C405 C399 1.428 . S
C405 N404 1.351 . S
C405 C406 1.434 . S
C406 C397 1.429 . S
C406 N403 1.350 . S
C406 C405 1.434 . S
C407 C408 1.369 . S
C407 C409 1.419 . S
C407 H411 0.930 . S
C408 C407 1.369 . S
C408 C417 1.429 1_455 S
C409 C407 1.419 . S
C409 C410 1.363 1_455 S
C409 H412 0.929 . S
C410 C409 1.363 1_655 S
C410 C416 1.428 . S
H411 C407 0.930 . S
H412 C409 0.929 . S
S413 N414 1.613 . S
S413 N415 1.610 . S
N414 S413 1.613 . S
N414 C417 1.350 . S
N415 S413 1.610 . S
N415 C416 1.351 . S
C416 C410 1.428 . S
C416 N415 1.351 . S
C416 C417 1.434 . S
C417 C408 1.429 1_655 S
C417 N414 1.350 . S
C417 C416 1.434 . S
C418 C419 1.369 . S
C418 C420 1.419 . S
C418 H422 0.930 . S
C419 C418 1.369 . S
C419 C428 1.429 . S
C420 C418 1.419 . S
C420 C421 1.363 . S
C420 H423 0.929 . S
C421 C420 1.363 . S
C421 C427 1.428 . S
H422 C418 0.930 . S
H423 C420 0.929 . S
S424 N425 1.613 . S
S424 N426 1.610 . S
N425 S424 1.613 . S
N425 C428 1.350 . S
N426 S424 1.610 . S
N426 C427 1.351 . S
C427 C421 1.428 . S
C427 N426 1.351 . S
C427 C428 1.434 . S
C428 C419 1.429 . S
C428 N425 1.350 . S
C428 C427 1.434 . S
C429 C430 1.369 1_455 S
C429 C431 1.419 . S
C429 H433 0.930 . S
C430 C429 1.369 1_655 S
C430 C439 1.429 . S
C431 C429 1.419 . S
C431 C432 1.363 . S
C431 H434 0.929 . S
C432 C431 1.363 . S
C432 C438 1.428 1_455 S
H433 C429 0.930 . S
H434 C431 0.929 . S
S435 N436 1.613 . S
S435 N437 1.610 . S
N436 S435 1.613 . S
N436 C439 1.350 . S
N437 S435 1.610 . S
N437 C438 1.351 . S
C438 C432 1.428 1_655 S
C438 N437 1.351 . S
C438 C439 1.434 . S
C439 C430 1.429 . S
C439 N436 1.350 . S
C439 C438 1.434 . S
C177 C8 1.603 . S
C179 C162 1.604 . S
C188 C32 1.601 . S
C190 C106 1.602 . S
C199 C52 1.603 . S
C201 C120 1.605 . S
C210 C142 1.601 . S
C212 C84 1.602 . S
C221 C10 1.416 . S
C223 C37 1.446 . S
C232 C65 1.445 . S
C234 C40 1.411 . S
C243 C73 1.446 . S
C245 C54 1.415 . S
C254 C21 1.443 . S
C256 C74 1.414 1_554 S
C265 C96 1.410 . S
C267 C175 1.445 . S
C276 C128 1.411 . S
C278 C95 1.444 . S
C287 C150 1.412 1_556 S
C289 C125 1.444 . S
C298 C147 1.444 . S
C300 C164 1.412 . S
C309 C131 0.924 . S
C311 C7 0.923 . S
C320 C153 0.920 . S
C322 C43 0.919 . S
C331 C161 0.924 . S
C333 C51 0.923 . S
C342 C103 0.920 . S
C344 C81 0.922 . S
C353 C18 1.585 . S
C355 C139 1.591 . S
C364 C30 1.585 . S
C366 C169 1.591 . S
C375 C109 1.586 . S
C377 C62 1.591 . S
C386 C117 1.594 . S
C388 C76 1.586 . S
C397 C59 1.595 . S
C399 C98 1.589 . S
C408 C118 1.593 . S
C410 C87 1.591 . S
C419 C140 1.594 . S
C421 C15 1.589 . S
C430 C172 1.585 . S
C432 C29 1.591 . S
