# Generated by pormake.
# Topology fnc, (5)-cn, num edge types: 1
# Building blocks:
#     Node 0, Type 0, BuildingBlock: BEQFEK_clean_sbu_0, # of connection points: 5
#     Node 1, Type 0, BuildingBlock: BEQFEK_clean_sbu_0, # of connection points: 5
#     Node 2, Type 0, BuildingBlock: BEQFEK_clean_sbu_0, # of connection points: 5
#     Node 3, Type 0, BuildingBlock: BEQFEK_clean_sbu_0, # of connection points: 5
#     Node 4, Type 0, BuildingBlock: BEQFEK_clean_sbu_0, # of connection points: 5
#     Node 5, Type 0, BuildingBlock: BEQFEK_clean_sbu_0, # of connection points: 5
#     Node 6, Type 0, BuildingBlock: BEQFEK_clean_sbu_0, # of connection points: 5
#     Node 7, Type 0, BuildingBlock: BEQFEK_clean_sbu_0, # of connection points: 5
#     Node 8, Type 0, BuildingBlock: BEQFEK_clean_sbu_0, # of connection points: 5
#     Node 9, Type 0, BuildingBlock: BEQFEK_clean_sbu_0, # of connection points: 5
#     Node 10, Type 0, BuildingBlock: BEQFEK_clean_sbu_0, # of connection points: 5
#     Node 11, Type 0, BuildingBlock: BEQFEK_clean_sbu_0, # of connection points: 5
#     Node 12, Type 0, BuildingBlock: BEQFEK_clean_sbu_0, # of connection points: 5
#     Node 13, Type 0, BuildingBlock: BEQFEK_clean_sbu_0, # of connection points: 5
#     Node 14, Type 0, BuildingBlock: BEQFEK_clean_sbu_0, # of connection points: 5
#     Node 15, Type 0, BuildingBlock: BEQFEK_clean_sbu_0, # of connection points: 5
#     Node 16, Type 0, BuildingBlock: BEQFEK_clean_sbu_0, # of connection points: 5
#     Node 17, Type 0, BuildingBlock: BEQFEK_clean_sbu_0, # of connection points: 5
#     Edge 18, Type (0, 0), None
#     Edge 19, Type (0, 0), None
#     Edge 20, Type (0, 0), None
#     Edge 21, Type (0, 0), None
#     Edge 22, Type (0, 0), None
#     Edge 23, Type (0, 0), None
#     Edge 24, Type (0, 0), None
#     Edge 25, Type (0, 0), None
#     Edge 26, Type (0, 0), None
#     Edge 27, Type (0, 0), None
#     Edge 28, Type (0, 0), None
#     Edge 29, Type (0, 0), None
#     Edge 30, Type (0, 0), None
#     Edge 31, Type (0, 0), None
#     Edge 32, Type (0, 0), None
#     Edge 33, Type (0, 0), None
#     Edge 34, Type (0, 0), None
#     Edge 35, Type (0, 0), None
#     Edge 36, Type (0, 0), None
#     Edge 37, Type (0, 0), None
#     Edge 38, Type (0, 0), None
#     Edge 39, Type (0, 0), None
#     Edge 40, Type (0, 0), None
#     Edge 41, Type (0, 0), None
#     Edge 42, Type (0, 0), None
#     Edge 43, Type (0, 0), None
#     Edge 44, Type (0, 0), None
#     Edge 45, Type (0, 0), None
#     Edge 46, Type (0, 0), None
#     Edge 47, Type (0, 0), None
#     Edge 48, Type (0, 0), None
#     Edge 49, Type (0, 0), None
#     Edge 50, Type (0, 0), None
#     Edge 51, Type (0, 0), None
#     Edge 52, Type (0, 0), None
#     Edge 53, Type (0, 0), None
#     Edge 54, Type (0, 0), None
#     Edge 55, Type (0, 0), None
#     Edge 56, Type (0, 0), None
#     Edge 57, Type (0, 0), None
#     Edge 58, Type (0, 0), None
#     Edge 59, Type (0, 0), None
#     Edge 60, Type (0, 0), None
#     Edge 61, Type (0, 0), None
#     Edge 62, Type (0, 0), None
# Relax obj value: 0.341
# Max RMSD: 0.335
# Mean RMSD: 0.309
data_MOF--net-fnc--node1-BEQFEK_clean_sbu_0--edge1-none
_symmetry_space_group_name_H-M    P1
_symmetry_Int_Tables_number       1
_symmetry_cell_setting            triclinic
loop_
_symmetry_equiv_pos_as_xyz
'x, y, z'
_cell_length_a     45.820854
_cell_length_b     49.142364
_cell_length_c     9.5056352
_cell_angle_alpha  89.055178
_cell_angle_beta   91.904895
_cell_angle_gamma 126.45258
loop_
_atom_site_label
_atom_site_type_symbol
_atom_site_fract_x
_atom_site_fract_y
_atom_site_fract_z
_atom_type_partial_charge
Co0 Co 0.01785 0.4519 0.06924 0.0
Co1 Co 0.96551 0.42233 0.31922 0.0
C2 C 0.03888 0.43267 0.32478 0.0
O3 O 0.04957 0.44643 0.20465 0.0
O4 O 0.00778 0.42244 0.36223 0.0
C5 C 0.03623 0.46961 0.76383 0.0
O6 O 0.06284 0.48724 0.67584 0.0
C7 C -0.0132 0.45467 0.58279 0.0
C8 C -0.02439 0.41259 0.7134 0.0
C9 C -0.00166 0.44751 0.70543 0.0
N10 N 0.95952 0.42556 0.51798 0.0
N11 N 0.95189 0.40054 0.60219 0.0
C12 C 0.00838 0.48853 0.51307 0.0
H13 H -0.01012 0.49334 0.46456 0.0
H14 H 0.02612 0.50918 0.59016 0.0
H15 H 0.02542 0.48905 0.43128 0.0
C16 C 0.00587 0.50536 0.09463 0.0
N17 N 0.00245 0.47742 0.13946 0.0
N18 N -0.02532 0.46037 0.22183 0.0
C19 C 0.95711 0.4746 0.2208 0.0
C20 C -0.02279 0.50494 0.14633 0.0
C21 C 0.03671 0.53193 1.0077 0.0
H22 H 0.06077 0.53205 1.02857 0.0
H23 H 0.04387 0.5573 1.0312 0.0
H24 H 0.02897 0.52598 0.89452 0.0
O25 O 0.97274 0.40644 1.01552 0.0
O26 O 0.93316 0.38206 0.18884 0.0
H27 H 0.90648 0.46858 0.23806 0.0
H28 H 0.92059 0.45608 0.39208 0.0
C29 C 0.91958 0.45662 0.27537 0.0
H30 H 0.90284 0.42987 0.23942 0.0
H31 H 0.93541 0.37519 0.57169 0.0
O32 O 0.04462 0.47214 0.8945 0.0
C33 C 0.94188 0.38221 0.06111 0.0
Co34 Co 0.56729 0.63447 0.99419 0.0
Co35 Co 0.6011 0.62549 0.27435 0.0
C36 C 0.58954 0.68139 0.22908 0.0
O37 O 0.5754 0.67467 0.10435 0.0
O38 O 0.59909 0.66388 0.28036 0.0
C39 C 0.54005 0.60156 0.72395 0.0
O40 O 0.51274 0.58527 0.63245 0.0
C41 C 0.59436 0.63144 0.57979 0.0
C42 C 0.57922 0.58289 0.65484 0.0
C43 C 0.57483 0.60791 0.68335 0.0
N44 N 0.60563 0.61965 0.48302 0.0
N45 N 0.59922 0.59171 0.53781 0.0
C46 C 0.59547 0.66218 0.56753 0.0
H47 H 0.62135 0.68304 0.5234 0.0
H48 H 0.57133 0.65588 0.50492 0.0
H49 H 0.59341 0.6704 0.67233 0.0
C50 C 0.50794 0.56609 0.06009 0.0
N51 N 0.54137 0.59366 0.0938 0.0
N52 N 0.55498 0.58714 0.20105 0.0
C53 C 0.52994 0.55449 0.23875 0.0
C54 C 0.50111 0.53901 0.14005 0.0
C55 C 0.47967 0.56912 0.99472 0.0
H56 H 0.48722 0.59481 1.01445 0.0
H57 H 0.45258 0.55025 1.03894 0.0
H58 H 0.47787 0.56567 0.87954 0.0
O59 O 0.61325 0.6451 0.93692 0.0
O60 O 0.64093 0.64008 0.12151 0.0
H61 H 0.54143 0.53456 0.41663 0.0
H62 H 0.49641 0.5252 0.41394 0.0
C63 C 0.5253 0.54404 0.38855 0.0
H64 H 0.53423 0.56633 0.45134 0.0
H65 H 0.60328 0.57585 0.48463 0.0
O66 O 0.53911 0.61982 0.81571 0.0
C67 C 0.6396 0.64604 0.98848 0.0
Co68 Co 0.40911 0.06169 0.21534 0.0
Co69 Co 0.37348 0.0144 0.94233 0.0
C70 C 0.38415 0.08249 0.97702 0.0
O71 O 0.40006 0.09262 0.09833 0.0
O72 O 0.37456 0.05422 0.9329 0.0
C73 C 0.43562 0.06216 0.49903 0.0
O74 O 0.46146 0.0774 0.59696 0.0
C75 C 0.38061 0.03043 0.63842 0.0
C76 C 0.39687 -0.00027 0.56653 0.0
C77 C 0.40102 0.02963 0.53785 0.0
N78 N 0.36877 0.00517 0.73412 0.0
N79 N 0.37572 -0.01498 0.68023 0.0
C80 C 0.37747 0.05894 0.64391 0.0
H81 H 0.35209 0.05109 0.69131 0.0
H82 H 0.40172 0.08064 0.70019 0.0
H83 H 0.37736 0.06781 0.53574 0.0
C84 C 0.46357 0.0507 0.17199 0.0
N85 N 0.43402 0.04779 0.12151 0.0
N86 N 0.41911 0.02609 1.01681 0.0
C87 C 0.43904 0.01442 0.99771 0.0
C88 C 0.46535 0.0266 0.10599 0.0
C89 C 0.49532 0.08335 0.23588 0.0
H90 H 0.49379 0.10437 0.20483 0.0
H91 H 0.52137 0.08939 0.1999 0.0
H92 H 0.4952 0.08223 0.35194 0.0
O93 O 0.36295 0.02101 0.27737 0.0
O94 O 0.33517 -0.01544 0.09817 0.0
H95 H 0.4223 0.97816 0.83359 0.0
H96 H 0.4708 0.0112 0.84439 0.0
C97 C 0.44358 0.0053 0.8554 0.0
H98 H 0.44207 0.02125 0.77705 0.0
H99 H 0.37031 0.96357 0.73105 0.0
O100 O 0.43782 0.07978 0.39344 0.0
C101 C 0.33703 -0.00781 0.2301 0.0
Co102 Co 0.94348 0.59194 0.28538 0.0
Co103 Co -0.01309 0.62137 1.00846 0.0
C104 C 0.91408 0.6086 1.03946 0.0
O105 O 0.90904 0.59857 0.16708 0.0
O106 O 0.94267 0.61721 0.98252 0.0
C107 C 0.93226 0.57183 0.57915 0.0
O108 O 0.91126 0.55189 0.68058 0.0
C109 C -0.02573 0.62344 0.7174 0.0
C110 C -0.00138 0.59997 0.64295 0.0
C111 C 0.96966 0.60151 0.61657 0.0
N112 N 0.00126 0.63122 0.81065 0.0
N113 N 0.0178 0.61936 0.75671 0.0
C114 C 0.95669 0.64114 0.70095 0.0
H115 H 0.96003 0.65574 0.79375 0.0
H116 H 0.92744 0.62268 0.67298 0.0
H117 H 0.96903 0.65887 0.61107 0.0
C118 C 0.95908 0.54209 0.2416 0.0
N119 N 0.9597 0.5685 0.19499 0.0
N120 N 0.97399 0.57742 0.06982 0.0
C121 C -0.02088 0.55418 1.02792 0.0
C122 C 0.97132 0.53189 0.13761 0.0
C123 C 0.95172 0.53028 0.39016 0.0
H124 H 0.96735 0.55249 0.45903 0.0
H125 H 0.92235 0.51609 0.40994 0.0
H126 H 0.96092 0.51477 0.41825 0.0
O127 O -0.01473 0.63563 0.3547 0.0
O128 O 0.01858 0.65953 0.16554 0.0
H129 H 0.00978 0.56411 0.8441 0.0
H130 H 0.97219 0.52058 0.86478 0.0
C131 C -0.01855 0.54703 0.87848 0.0
H132 H 0.96326 0.55002 0.81247 0.0
H133 H 0.03869 0.62014 0.8088 0.0
O134 O 0.91856 0.56647 0.45511 0.0
C135 C 0.0136 0.66034 0.29841 0.0
Co136 Co 0.39465 0.40621 0.25765 0.0
Co137 Co 0.36599 0.42211 0.97985 0.0
C138 C 0.36963 0.36166 1.00842 0.0
O139 O 0.38226 0.36591 0.13472 0.0
O140 O 0.3632 0.38154 0.95916 0.0
C141 C 0.41684 0.42331 0.55721 0.0
O142 O 0.43736 0.42617 0.66436 0.0
C143 C 0.36369 0.40953 0.68537 0.0
C144 C 0.39702 0.4607 0.60674 0.0
C145 C 0.38897 0.429 0.58445 0.0
N146 N 0.36006 0.42853 0.77445 0.0
N147 N 0.37778 0.45884 0.71687 0.0
C148 C 0.33899 0.37197 0.67595 0.0
H149 H 0.35518 0.36217 0.66986 0.0
H150 H 0.32311 0.36434 0.5753 0.0
H151 H 0.3201 0.36096 0.76327 0.0
C152 C 0.45805 0.47494 0.21188 0.0
N153 N 0.42461 0.44859 0.16936 0.0
N154 N 0.41419 0.45668 0.0559 0.0
C155 C 0.44181 0.48865 1.02052 0.0
C156 C 0.46843 0.50269 0.12795 0.0
C157 C 0.48275 0.46963 0.29447 0.0
H158 H 0.47413 0.44349 0.2773 0.0
H159 H 0.51117 0.48736 0.26057 0.0
H160 H 0.48118 0.47257 0.40862 0.0
O161 O 0.35151 0.40077 0.3148 0.0
O162 O 0.32756 0.41087 0.1325 0.0
H163 H 0.43759 0.50987 0.82915 0.0
H164 H 0.4809 0.51765 0.85753 0.0
C165 C 0.45123 0.49888 0.87053 0.0
H166 H 0.44305 0.47639 0.80903 0.0
H167 H 0.38027 0.4793 0.7625 0.0
O168 O 0.41856 0.41131 0.44192 0.0
C169 C 0.32799 0.40418 0.26487 0.0
Co170 Co 0.54589 0.98161 1.02397 0.0
Co171 Co 0.58184 0.02816 0.29773 0.0
C172 C 0.57168 0.96014 0.25401 0.0
O173 O 0.55466 0.94976 0.1348 0.0
O174 O 0.581 -0.01181 0.30046 0.0
C175 C 0.51896 -0.01567 0.74839 0.0
O176 O 0.49201 0.97107 0.65511 0.0
C177 C 0.57205 0.01144 0.5995 0.0
C178 C 0.56197 0.04637 0.67729 0.0
C179 C 0.55453 0.01498 0.70441 0.0
N180 N 0.58577 0.03707 0.50493 0.0
N181 N 0.58233 0.05945 0.56084 0.0
C182 C 0.56882 0.97967 0.58303 0.0
H183 H 0.59492 -0.01402 0.54929 0.0
H184 H 0.54584 0.96237 0.50936 0.0
H185 H 0.56265 0.966 0.68436 0.0
C186 C 0.49125 -0.008 0.07433 0.0
N187 N 0.52109 -0.00495 0.12178 0.0
N188 N 0.53667 0.01716 0.22467 0.0
C189 C 0.517 0.029 0.24584 0.0
C190 C 0.49 0.01642 0.14026 0.0
C191 C 0.45892 0.95907 1.01464 0.0
H192 H 0.46042 0.93811 1.04708 0.0
H193 H 0.43323 0.95355 1.05229 0.0
H194 H 0.45825 0.95942 0.89855 0.0
O195 O 0.59274 0.02249 0.96583 0.0
O196 O 0.62048 0.05857 0.14641 0.0
H197 H 0.53534 0.06612 0.40792 0.0
H198 H 0.48662 0.03294 0.40315 0.0
C199 C 0.51375 0.0389 0.38862 0.0
H200 H 0.51594 0.02334 0.46678 0.0
H201 H 0.58926 0.08142 0.50977 0.0
O202 O 0.51663 0.96509 0.84701 0.0
C203 C 0.61895 0.05104 1.01483 0.0
Co204 Co 0.6752 0.78398 0.31256 0.0
Co205 Co 0.63073 0.7542 0.58622 0.0
C206 C 0.70606 0.77131 0.57219 0.0
O207 O 0.71173 0.78232 0.44554 0.0
O208 O 0.67589 0.75983 0.62318 0.0
C209 C 0.6842 0.79899 1.01104 0.0
O210 O 0.70515 0.81704 0.9061 0.0
C211 C 0.6387 0.74742 0.87424 0.0
C212 C 0.61894 0.77466 0.95147 0.0
C213 C 0.64582 0.77014 0.9777 0.0
N214 N 0.61334 0.74277 0.77988 0.0
N215 N 0.59917 0.75671 0.83567 0.0
C216 C 0.65287 0.72672 0.88206 0.0
H217 H 0.64629 0.71157 0.78568 0.0
H218 H 0.68244 0.7432 0.90556 0.0
H219 H 0.64043 0.70924 0.97242 0.0
C220 C 0.6577 0.83282 0.34794 0.0
N221 N 0.65656 0.80604 0.39332 0.0
N222 N 0.64318 0.79756 0.52025 0.0
C223 C 0.63937 0.82136 0.56483 0.0
C224 C 0.64693 0.84352 0.45498 0.0
C225 C 0.66588 0.84593 0.20086 0.0
H226 H 0.65244 0.8245 0.12734 0.0
H227 H 0.69556 0.8614 0.18522 0.0
H228 H 0.65544 0.86086 0.1755 0.0
O229 O 0.63548 0.73889 0.24711 0.0
O230 O 0.60009 0.71635 0.43043 0.0
H231 H 0.61211 0.81403 0.75642 0.0
H232 H 0.65101 0.85651 0.73056 0.0
C233 C 0.63986 0.82955 0.71606 0.0
H234 H 0.6574 0.82495 0.77772 0.0
H235 H 0.57956 0.75804 0.78442 0.0
O236 O 0.69821 0.80657 0.13537 0.0
C237 C 0.60641 0.71461 0.30061 0.0
Co238 Co 0.23241 0.96031 0.32491 0.0
Co239 Co 0.26492 0.95168 0.60654 0.0
C240 C 0.25141 0.00483 0.57733 0.0
O241 O 0.23882 -0.0015 0.45018 0.0
O242 O 0.26203 -0.01155 0.62928 0.0
C243 C 0.21357 0.94751 1.024 0.0
O244 O 0.19381 0.9452 0.91503 0.0
C245 C 0.26847 0.96529 0.89816 0.0
C246 C 0.23893 0.91444 0.97817 0.0
C247 C 0.24378 0.94484 0.99854 0.0
N248 N 0.27409 0.94762 0.80936 0.0
N249 N 0.25872 0.91765 0.86776 0.0
C250 C 0.28936 0.00274 0.90274 0.0
H251 H 0.30875 0.01433 0.81755 0.0
H252 H 0.27049 0.00975 0.89882 0.0
H253 H 0.30428 0.01236 1.00532 0.0
C254 C 0.17725 0.88709 0.36613 0.0
N255 N 0.20753 0.91696 0.41031 0.0
N256 N 0.21702 0.91356 0.53805 0.0
C257 C 0.19014 0.88217 0.58413 0.0
C258 C 0.1651 0.86424 0.47485 0.0
C259 C 0.16209 0.87952 0.21861 0.0
H260 H 0.18418 0.88811 0.14612 0.0
H261 H 0.1499 0.893 0.19445 0.0
H262 H 0.14177 0.852 0.20011 0.0
O263 O 0.27817 0.97275 0.26528 0.0
O264 O 0.30516 0.96774 0.45172 0.0
H265 H 0.1972 0.86363 0.77798 0.0
H266 H 0.15256 0.85233 0.74986 0.0
C267 C 0.18178 0.87278 0.73525 0.0
H268 H 0.1883 0.89504 0.79365 0.0
H269 H 0.25739 0.89787 0.82103 0.0
O270 O 0.20778 0.95477 0.14337 0.0
C271 C 0.30436 0.97386 0.3187 0.0
Co272 Co 0.03952 0.34722 0.38774 0.0
Co273 Co 0.07455 0.39408 0.65376 0.0
C274 C -0.00135 0.32746 0.64882 0.0
O275 O -0.00176 0.31879 0.52284 0.0
O276 O 0.02563 0.35538 0.69537 0.0
C277 C 0.03233 0.3298 0.08167 0.0
O278 O 0.01926 0.30525 0.98945 0.0
C279 C 0.08082 0.37531 0.92413 0.0
C280 C 0.0491 0.38863 1.02927 0.0
C281 C 0.05682 0.36536 1.03209 0.0
N282 N 0.08551 0.40186 0.85402 0.0
N283 N 0.06815 0.41095 0.92499 0.0
C284 C 0.09142 0.35396 0.87036 0.0
H285 H 0.12039 0.37039 0.84789 0.0
H286 H 0.08751 0.33532 0.94963 0.0
H287 H 0.07507 0.34002 0.77446 0.0
C288 C 0.10658 0.351 0.41494 0.0
N289 N 0.08435 0.35816 0.46101 0.0
N290 N 0.10072 0.38026 0.5639 0.0
C291 C 0.13431 0.38842 0.58477 0.0
C292 C 0.13758 0.36681 0.5029 0.0
C293 C 0.10518 0.34213 0.26411 0.0
H294 H 0.09823 0.35641 0.19926 0.0
H295 H 0.08395 0.31472 0.24584 0.0
H296 H 0.13201 0.35029 0.22818 0.0
O297 O 0.04355 0.38844 0.34089 0.0
O298 O 0.06651 0.42365 0.52444 0.0
H299 H 0.19132 0.43067 0.60443 0.0
H300 H 0.16516 0.42213 0.76041 0.0
C301 C 0.16469 0.4224 0.64383 0.0
H302 H 0.16005 0.44141 0.61183 0.0
H303 H 0.06352 0.42815 0.88695 0.0
O304 O 0.02599 0.32168 0.21072 0.0
C305 C 0.05394 0.41632 0.3964 0.0
Co306 Co 0.66718 0.96315 0.34619 0.0
Co307 Co 0.61287 0.92987 0.59617 0.0
C308 C 0.68824 0.00174 0.60397 0.0
O309 O 0.6999 0.002 0.48377 0.0
O310 O 0.65663 0.97678 0.63529 0.0
C311 C 0.67836 0.96097 1.03702 0.0
O312 O 0.70194 0.97226 0.9366 0.0
C313 C 0.62231 0.94354 0.89466 0.0
C314 C 0.62563 0.90315 0.96484 0.0
C315 C 0.63924 0.93616 0.99703 0.0
N316 N 0.60284 0.9179 0.79955 0.0
N317 N 0.60298 0.89283 0.85115 0.0
C318 C 0.62573 0.97581 0.88975 0.0
H319 H 0.61604 0.97912 0.78756 0.0
H320 H 0.65394 -0.00224 0.91494 0.0
H321 H 0.60889 0.97502 0.97272 0.0
C322 C 0.66827 0.90469 0.3991 0.0
N323 N 0.6558 0.92274 0.42667 0.0
N324 N 0.62776 0.90525 0.5082 0.0
C325 C 0.61845 0.87363 0.51988 0.0
C326 C 0.64479 0.87255 0.45644 0.0
C327 C 0.7038 0.91973 0.33105 0.0
H328 H 0.72312 0.94684 0.3608 0.0
H329 H 0.71553 0.90621 0.36311 0.0
H330 H 0.69991 0.91865 0.21497 0.0
O331 O 0.62173 0.95882 0.28816 0.0
O332 O 0.57999 0.93318 0.45165 0.0
H333 H 0.56967 0.82534 0.46177 0.0
H334 H 0.58067 0.83001 0.64522 0.0
C335 C 0.58073 0.84349 0.55113 0.0
H336 H 0.56276 0.85126 0.56756 0.0
H337 H 0.59191 0.87011 0.79954 0.0
O338 O 0.6906 0.97103 0.16294 0.0
C339 C 0.58973 0.94631 0.32775 0.0
Co340 Co 0.02832 0.75369 0.37543 0.0
Co341 Co 0.05775 0.73543 0.64304 0.0
C342 C -0.0132 0.73085 0.62931 0.0
O343 O -0.01263 0.74041 0.50323 0.0
O344 O 0.01143 0.72842 0.67408 0.0
C345 C 0.04018 0.77609 0.06957 0.0
O346 O 0.03329 0.7904 0.96924 0.0
C347 C 0.04951 0.73709 0.94601 0.0
C348 C 0.09795 0.78755 0.99007 0.0
C349 C 0.06278 0.76471 1.03416 0.0
N350 N 0.07384 0.74375 0.84763 0.0
N351 N 0.10393 0.77352 0.88455 0.0
C352 C 0.01318 0.70439 0.95991 0.0
H353 H 0.01344 0.68404 0.91477 0.0
H354 H -0.00762 0.70562 0.90807 0.0
H355 H 0.0056 0.69923 0.07148 0.0
C356 C 0.09645 0.81911 0.43043 0.0
N357 N 0.07265 0.78642 0.46347 0.0
N358 N 0.08875 0.77653 0.54214 0.0
C359 C 0.12465 0.8016 0.54711 0.0
C360 C 0.13056 0.82992 0.48113 0.0
C361 C 0.08526 0.83963 0.36465 0.0
H362 H 0.05734 0.82934 0.39588 0.0
H363 H 0.10417 0.86657 0.39696 0.0
H364 H 0.08473 0.8378 0.24846 0.0
O365 O 0.02636 0.71336 0.3276 0.0
O366 O 0.0432 0.69557 0.50857 0.0
H367 H 0.1683 0.80068 0.48226 0.0
H368 H 0.17267 0.81361 0.66018 0.0
C369 C 0.15286 0.79583 0.57868 0.0
H370 H 0.14002 0.76939 0.61325 0.0
H371 H 0.12734 0.78679 0.82688 0.0
O372 O 0.0265 0.77235 0.18991 0.0
C373 C 0.03216 0.69281 0.37857 0.0
Co374 Co 0.21995 0.3241 0.36929 0.0
Co375 Co 0.26008 0.37048 0.64074 0.0
C376 C 0.24097 0.29875 0.59893 0.0
O377 O 0.22381 0.2895 0.48 0.0
O378 O 0.25387 0.32788 0.64469 0.0
C379 C 0.1972 0.32832 0.08624 0.0
O380 O 0.17146 0.31608 0.98815 0.0
C381 C 0.25124 0.3535 0.94325 0.0
C382 C 0.24451 0.39043 1.02392 0.0
C383 C 0.23428 0.3579 1.04784 0.0
N384 N 0.26645 0.37947 0.8496 0.0
N385 N 0.26516 0.40298 0.90797 0.0
C386 C 0.24835 0.32169 0.9328 0.0
H387 H 0.27287 0.32667 0.88749 0.0
H388 H 0.22329 0.3026 0.87175 0.0
H389 H 0.24574 0.31084 1.03913 0.0
C390 C 0.16762 0.33711 0.43352 0.0
N391 N 0.19882 0.34131 0.4671 0.0
N392 N 0.21585 0.36312 0.57043 0.0
C393 C 0.19578 0.37386 0.60491 0.0
C394 C 0.16615 0.36041 0.51008 0.0
C395 C 0.1361 0.30445 0.36917 0.0
H396 H 0.13964 0.28423 0.38921 0.0
H397 H 0.11015 0.29632 0.41517 0.0
H398 H 0.13481 0.30677 0.25353 0.0
O399 O 0.26793 0.36178 0.30961 0.0
O400 O 0.29932 0.39808 0.48634 0.0
H401 H 0.21852 0.41152 0.76714 0.0
H402 H 0.17014 0.3784 0.77951 0.0
C403 C 0.19631 0.38431 0.75089 0.0
H404 H 0.19958 0.36831 0.82088 0.0
H405 H 0.27352 0.42553 0.85831 0.0
O406 O 0.19159 0.30928 0.19112 0.0
C407 C 0.29603 0.38953 0.35507 0.0
Co408 Co 0.33728 0.10959 0.66311 0.0
Co409 Co 0.28856 0.07955 0.89253 0.0
C410 C 0.36538 0.09557 0.9038 0.0
O411 O 0.3768 0.11288 0.78966 0.0
O412 O 0.33226 0.08015 0.93342 0.0
C413 C 0.30031 0.10153 0.43281 0.0
O414 O 0.27911 0.0973 0.53344 0.0
C415 C 0.29989 0.09364 0.17448 0.0
C416 C 0.24629 0.06126 0.27086 0.0
C417 C 0.283 0.08619 0.29843 0.0
N418 N 0.27454 0.07431 0.07452 0.0
N419 N 0.24243 0.05464 0.13177 0.0
C420 C 0.3387 0.12299 0.15029 0.0
H421 H 0.34326 0.13129 1.03953 0.0
H422 H 0.34664 0.14494 0.21645 0.0
H423 H 0.35667 0.11566 0.18194 0.0
C424 C 0.328 0.16501 0.69504 0.0
N425 N 0.32302 0.13602 0.73476 0.0
N426 N 0.30076 0.12261 0.8387 0.0
C427 C 0.29288 0.14392 0.87749 0.0
C428 C 0.30902 0.17132 0.78477 0.0
C429 C 0.34738 0.18416 0.56472 0.0
H430 H 0.34563 0.16757 0.48344 0.0
H431 H 0.37669 0.20291 0.59042 0.0
H432 H 0.33583 0.19686 0.51879 0.0
O433 O 0.30075 0.05986 0.6331 0.0
O434 O 0.2526 0.0407 0.75465 0.0
H435 H 0.24474 0.11952 0.9987 0.0
H436 H 0.27891 0.16428 1.0406 0.0
C437 C 0.27417 0.14028 1.01041 0.0
H438 H 0.28514 0.13403 0.09894 0.0
H439 H 0.21819 0.0373 0.07626 0.0
O440 O 0.33356 0.11316 0.46041 0.0
C441 C 0.26718 0.03764 0.64974 0.0
Co442 Co 0.89673 0.31078 0.71796 0.0
Co443 Co 0.92069 0.2875 0.97798 0.0
C444 C 0.92256 0.3507 0.97765 0.0
O445 O 0.90855 0.34785 0.85568 0.0
O446 O 0.92845 0.32981 1.01659 0.0
C447 C 0.87523 0.30655 0.40797 0.0
O448 O 0.85901 0.3143 0.31718 0.0
C449 C 0.88244 0.27309 0.22729 0.0
C450 C 0.92759 0.30204 0.37994 0.0
C451 C 0.89215 0.29065 0.35413 0.0
N452 N 0.91119 0.27538 0.1765 0.0
N453 N 0.93752 0.29144 0.27353 0.0
C454 C 0.8486 0.26114 0.1428 0.0
H455 H 0.83837 0.23731 0.0892 0.0
H456 H 0.82671 0.25616 0.21094 0.0
H457 H 0.85442 0.28041 0.06323 0.0
C458 C 0.83206 0.23901 0.73816 0.0
N459 N 0.86432 0.26637 0.78597 0.0
N460 N 0.87918 0.25633 0.8709 0.0
C461 C 0.85924 0.22253 0.86956 0.0
C462 C 0.82737 0.20993 0.79145 0.0
C463 C 0.80626 0.24133 0.64794 0.0
H464 H 0.81088 0.26588 0.66612 0.0
H465 H 0.77773 0.22028 0.67066 0.0
H466 H 0.81126 0.24017 0.53558 0.0
O467 O 0.94229 0.31637 0.67583 0.0
O468 O 0.96293 0.30152 0.85546 0.0
H469 H 0.85656 0.1771 0.89214 0.0
H470 H 0.87438 0.205 1.04535 0.0
C471 C 0.87331 0.20378 0.92869 0.0
H472 H 0.90166 0.21658 0.89544 0.0
H473 H 0.96403 0.30009 0.25714 0.0
O474 O 0.87694 0.31469 0.53641 0.0
C475 C 0.96508 0.31179 0.7278 0.0
Co476 Co 0.74423 0.73184 0.88826 0.0
Co477 Co 0.71083 0.68862 0.61025 0.0
C478 C 0.72421 0.7569 0.63769 0.0
O479 O 0.73689 0.76333 0.76462 0.0
O480 O 0.71393 0.72927 0.58417 0.0
C481 C 0.7626 0.74076 0.19277 0.0
O482 O 0.78317 0.76039 0.2989 0.0
C483 C 0.70703 0.69927 0.32237 0.0
C484 C 0.73457 0.67902 0.24767 0.0
C485 C 0.7315 0.70522 0.22409 0.0
N486 N 0.69941 0.67413 0.41131 0.0
N487 N 0.71355 0.66009 0.35623 0.0
C488 C 0.68551 0.71296 0.30515 0.0
H489 H 0.66843 0.70703 0.39581 0.0
H490 H 0.70389 0.74047 0.285 0.0
H491 H 0.66776 0.70169 0.20953 0.0
C492 C 0.79562 0.71488 0.85365 0.0
N493 N 0.76888 0.71619 0.8002 0.0
N494 N 0.75867 0.70182 0.67495 0.0
C495 C 0.78167 0.69421 0.64024 0.0
C496 C 0.80468 0.70074 0.75493 0.0
C497 C 0.80751 0.72181 1.00453 0.0
H498 H 0.78323 0.70914 0.06687 0.0
H499 H 0.82453 0.74942 1.02558 0.0
H500 H 0.82173 0.7111 1.03966 0.0
O501 O 0.69866 0.69271 0.95337 0.0
O502 O 0.67142 0.65917 0.76703 0.0
H503 H 0.77098 0.66504 0.45446 0.0
H504 H 0.81791 0.69848 0.48694 0.0
C505 C 0.78998 0.69132 0.49298 0.0
H506 H 0.78852 0.70898 0.42509 0.0
H507 H 0.71291 0.64049 0.40402 0.0
O508 O 0.76937 0.75367 0.06955 0.0
C509 C 0.6725 0.66498 0.90052 0.0
Co510 Co 0.27615 0.25852 0.90248 0.0
Co511 Co 0.33065 0.29183 0.67824 0.0
C512 C 0.25583 0.28188 0.67011 0.0
O513 O 0.2422 0.26419 0.78226 0.0
O514 O 0.28827 0.29381 0.64045 0.0
C515 C 0.30778 0.25486 0.13722 0.0
O516 O 0.32789 0.25734 1.036 0.0
C517 C 0.31305 0.26821 0.39862 0.0
C518 C 0.36457 0.29543 0.28851 0.0
C519 C 0.32724 0.27126 0.27047 0.0
N520 N 0.34037 0.28981 0.48988 0.0
N521 N 0.3713 0.30598 0.42371 0.0
C522 C 0.27382 0.24338 0.43292 0.0
H523 H 0.27024 0.23758 0.54625 0.0
H524 H 0.26147 0.21944 0.37353 0.0
H525 H 0.25905 0.25404 0.40014 0.0
C526 C 0.27673 0.20039 0.81993 0.0
N527 N 0.28631 0.23195 0.80451 0.0
N528 N 0.31775 0.2507 0.74695 0.0
C529 C 0.33169 0.23338 0.73595 0.0
C530 C 0.30581 0.20001 0.77965 0.0
C531 C 0.23878 0.17126 0.8537 0.0
H532 H 0.21941 0.17523 0.80297 0.0
H533 H 0.23233 0.14699 0.81567 0.0
H534 H 0.23496 0.17035 0.96873 0.0
O535 O 0.31978 0.30647 0.94885 0.0
O536 O 0.36686 0.32926 0.81333 0.0
H537 H 0.38138 0.23792 0.76387 0.0
H538 H 0.37559 0.25287 0.59557 0.0
C539 C 0.37114 0.25106 0.71031 0.0
H540 H 0.3869 0.27742 0.75076 0.0
H541 H 0.39671 0.32396 0.47036 0.0
O542 O 0.27633 0.2478 0.10663 0.0
C543 C 0.35298 0.32988 0.92665 0.0
Co544 Co 0.72236 0.07838 0.93058 0.0
Co545 Co 0.69275 0.08943 0.64753 0.0
C546 C 0.70271 0.03384 0.67944 0.0
O547 O 0.71461 0.03972 0.8073 0.0
O548 O 0.69379 0.05129 0.62345 0.0
C549 C 0.73949 0.08883 0.23466 0.0
O550 O 0.75804 0.08941 0.34447 0.0
C551 C 0.68597 0.0753 0.35868 0.0
C552 C 0.71975 0.12634 0.28065 0.0
C553 C 0.71146 0.09451 0.25871 0.0
N554 N 0.68321 0.09466 0.44847 0.0
N555 N 0.7011 0.12496 0.39132 0.0
C556 C 0.66214 0.03773 0.3555 0.0
H557 H 0.64369 0.02731 0.44468 0.0
H558 H 0.67883 0.02849 0.35242 0.0
H559 H 0.64647 0.02912 0.25453 0.0
C560 C 0.78059 0.15052 0.89093 0.0
N561 N 0.74982 0.12163 0.84358 0.0
N562 N 0.7414 0.12629 0.7161 0.0
C563 C 0.76951 0.15761 0.67334 0.0
C564 C 0.79435 0.17432 0.78469 0.0
C565 C 0.79369 0.15599 1.04072 0.0
H566 H 0.77058 0.14666 0.10771 0.0
H567 H 0.80528 0.14196 0.0643 0.0
H568 H 0.81355 0.18283 0.06825 0.0
O569 O 0.67725 0.06827 0.98659 0.0
O570 O 0.65248 0.07501 0.79756 0.0
H571 H 0.76449 0.17858 0.48273 0.0
H572 H 0.80826 0.1878 0.51254 0.0
C573 C 0.77869 0.16803 0.52352 0.0
H574 H 0.77137 0.14592 0.46121 0.0
H575 H 0.70469 0.14577 0.43893 0.0
O576 O 0.74524 0.08174 0.11474 0.0
C577 C 0.65218 0.06857 0.9304 0.0
Co578 Co 0.87722 0.64408 0.71356 0.0
Co579 Co 0.912 0.69349 0.96929 0.0
C580 C 0.89665 0.62326 0.97149 0.0
O581 O 0.8808 0.61322 0.85069 0.0
O582 O 0.90981 0.65301 1.00949 0.0
C583 C 0.85709 0.62861 0.403 0.0
O584 O 0.83591 0.60462 0.31033 0.0
C585 C 0.8778 0.67676 0.23081 0.0
C586 C 0.92089 0.6813 0.35969 0.0
C587 C 0.88363 0.66372 0.35068 0.0
N588 N 0.90976 0.69997 0.1688 0.0
N589 N 0.93556 0.7037 0.2526 0.0
C590 C 0.84135 0.6608 0.16074 0.0
H591 H 0.83998 0.68061 0.11398 0.0
H592 H 0.81932 0.64665 0.23752 0.0
H593 H 0.83693 0.64306 0.07745 0.0
C594 C 0.82538 0.6616 0.72757 0.0
N595 N 0.85249 0.66106 0.78328 0.0
N596 N 0.87217 0.68677 0.86951 0.0
C597 C 0.86109 0.70661 0.86027 0.0
C598 C 0.82958 0.69064 0.77571 0.0
C599 C 0.79623 0.63439 0.63203 0.0
H600 H 0.7928 0.61035 0.65246 0.0
H601 H 0.77008 0.63047 0.64746 0.0
H602 H 0.80427 0.64159 0.52118 0.0
O603 O 0.9267 0.68478 0.66482 0.0
O604 O 0.95446 0.72257 0.84014 0.0
H605 H 0.87481 0.75713 0.86851 0.0
H606 H 0.88497 0.74297 1.02858 0.0
C607 C 0.88438 0.74251 0.91183 0.0
H608 H 0.91274 0.75482 0.87996 0.0
H609 H 0.96239 0.71638 0.22295 0.0
O610 O 0.85414 0.62012 0.53235 0.0
C611 C 0.95355 0.71343 0.71265 0.0
loop_
_geom_bond_atom_site_label_1
_geom_bond_atom_site_label_2
_geom_bond_distance
_geom_bond_site_symmetry_2
_ccdc_geom_bond_type
Co0 O3 1.970 1_556 S
Co0 N17 1.989 . S
Co0 O25 1.967 . S
Co0 O32 1.920 . S
Co1 O4 1.966 . S
Co1 N10 2.022 . S
Co1 N18 1.993 . S
Co1 O26 1.941 1_455 S
C2 O3 1.258 . S
C2 O4 1.263 . S
O3 Co0 1.970 1_554 S
O3 C2 1.258 . S
O4 Co1 1.966 . S
O4 C2 1.263 . S
C5 O6 1.235 . S
C5 O32 1.289 . S
O6 C5 1.235 . S
C7 C9 1.400 . S
C7 N10 1.351 . S
C7 C12 1.501 . S
C8 C9 1.387 1_655 S
C8 N11 1.341 . S
C9 C7 1.400 . S
C9 C8 1.387 1_455 S
N10 Co1 2.022 . S
N10 C7 1.351 . S
N10 N11 1.365 1_455 S
N11 C8 1.341 . S
N11 N10 1.365 1_655 S
N11 H31 0.862 . S
C12 C7 1.501 . S
C12 H13 0.961 . S
C12 H14 0.961 . S
C12 H15 0.960 . S
H13 C12 0.961 . S
H14 C12 0.961 . S
H15 C12 0.960 . S
C16 N17 1.342 . S
C16 C20 1.401 1_556 S
C16 C21 1.499 . S
N17 Co0 1.989 . S
N17 C16 1.342 . S
N17 N18 1.388 1_556 S
N18 Co1 1.993 . S
N18 N17 1.388 1_554 S
N18 C19 1.346 . S
C19 N18 1.346 . S
C19 C20 1.396 . S
C19 C29 1.510 . S
C20 C16 1.401 1_554 S
C20 C19 1.396 . S
C21 C16 1.499 . S
C21 H22 0.959 . S
C21 H23 0.960 . S
C21 H24 0.961 . S
H22 C21 0.959 . S
H23 C21 0.960 . S
H24 C21 0.961 . S
O25 Co0 1.967 . S
O25 C33 1.258 1_455 S
O26 Co1 1.941 1_655 S
O26 C33 1.266 1_554 S
H27 C29 0.959 . S
H28 C29 0.961 . S
C29 C19 1.510 . S
C29 H27 0.959 . S
C29 H28 0.961 . S
C29 H30 0.960 . S
H30 C29 0.960 . S
H31 N11 0.862 . S
O32 Co0 1.920 . S
O32 C5 1.289 . S
C33 O25 1.258 1_655 S
C33 O26 1.266 1_556 S
Co34 O37 1.970 1_556 S
Co34 N51 1.989 1_556 S
Co34 O59 1.967 . S
Co34 O66 1.920 . S
Co35 O38 1.966 . S
Co35 N44 2.022 . S
Co35 N52 1.993 . S
Co35 O60 1.941 . S
C36 O37 1.258 . S
C36 O38 1.263 . S
O37 Co34 1.970 1_554 S
O37 C36 1.258 . S
O38 Co35 1.966 . S
O38 C36 1.263 . S
C39 O40 1.235 . S
C39 O66 1.289 . S
O40 C39 1.235 . S
C41 C43 1.400 . S
C41 N44 1.351 . S
C41 C46 1.501 . S
C42 C43 1.387 . S
C42 N45 1.341 . S
C43 C41 1.400 . S
C43 C42 1.387 . S
N44 Co35 2.022 . S
N44 C41 1.351 . S
N44 N45 1.365 . S
N45 C42 1.341 . S
N45 N44 1.365 . S
N45 H65 0.862 . S
C46 C41 1.501 . S
C46 H47 0.961 . S
C46 H48 0.961 . S
C46 H49 0.960 . S
H47 C46 0.961 . S
H48 C46 0.961 . S
H49 C46 0.960 . S
C50 N51 1.342 1_556 S
C50 C54 1.401 1_556 S
C50 C55 1.499 . S
N51 Co34 1.989 1_554 S
N51 C50 1.342 1_554 S
N51 N52 1.388 . S
N52 Co35 1.993 . S
N52 N51 1.388 . S
N52 C53 1.346 . S
C53 N52 1.346 . S
C53 C54 1.396 . S
C53 C63 1.510 . S
C54 C50 1.401 1_554 S
C54 C53 1.396 . S
C55 C50 1.499 . S
C55 H56 0.959 . S
C55 H57 0.960 . S
C55 H58 0.961 . S
H56 C55 0.959 . S
H57 C55 0.960 . S
H58 C55 0.961 . S
O59 Co34 1.967 . S
O59 C67 1.258 1_556 S
O60 Co35 1.941 . S
O60 C67 1.266 . S
H61 C63 0.959 . S
H62 C63 0.961 . S
C63 C53 1.510 . S
C63 H61 0.959 . S
C63 H62 0.961 . S
C63 H64 0.960 . S
H64 C63 0.960 . S
H65 N45 0.862 . S
O66 Co34 1.920 . S
O66 C39 1.289 . S
C67 O59 1.258 1_554 S
C67 O60 1.266 . S
Co68 O71 1.970 . S
Co68 N85 1.989 . S
Co68 O93 1.967 . S
Co68 O100 1.920 . S
Co69 O72 1.966 . S
Co69 N78 2.022 . S
Co69 N86 1.993 1_556 S
Co69 O94 1.942 1_546 S
C70 O71 1.258 . S
C70 O72 1.263 1_554 S
O71 Co68 1.970 . S
O71 C70 1.258 . S
O72 Co69 1.966 . S
O72 C70 1.263 1_556 S
C73 O74 1.235 . S
C73 O100 1.289 . S
O74 C73 1.235 . S
C75 C77 1.400 . S
C75 N78 1.351 . S
C75 C80 1.501 . S
C76 C77 1.387 1_565 S
C76 N79 1.341 . S
C77 C75 1.400 . S
C77 C76 1.387 1_545 S
N78 Co69 2.022 . S
N78 C75 1.351 . S
N78 N79 1.365 1_545 S
N79 C76 1.341 . S
N79 N78 1.365 1_565 S
N79 H99 0.862 . S
C80 C75 1.501 . S
C80 H81 0.961 . S
C80 H82 0.961 . S
C80 H83 0.960 . S
H81 C80 0.961 . S
H82 C80 0.961 . S
H83 C80 0.960 . S
C84 N85 1.342 . S
C84 C88 1.401 . S
C84 C89 1.499 . S
N85 Co68 1.989 . S
N85 C84 1.342 . S
N85 N86 1.388 . S
N86 Co69 1.993 1_554 S
N86 N85 1.388 . S
N86 C87 1.346 1_554 S
C87 N86 1.346 1_556 S
C87 C88 1.396 1_556 S
C87 C97 1.510 . S
C88 C84 1.401 . S
C88 C87 1.396 1_554 S
C89 C84 1.499 . S
C89 H90 0.959 . S
C89 H91 0.960 . S
C89 H92 0.961 . S
H90 C89 0.959 . S
H91 C89 0.960 . S
H92 C89 0.961 . S
O93 Co68 1.967 . S
O93 C101 1.258 . S
O94 Co69 1.942 1_564 S
O94 C101 1.267 1_565 S
H95 C97 0.959 1_565 S
H96 C97 0.961 . S
C97 C87 1.510 . S
C97 H95 0.959 1_545 S
C97 H96 0.961 . S
C97 H98 0.960 . S
H98 C97 0.960 . S
H99 N79 0.862 . S
O100 Co68 1.920 . S
O100 C73 1.289 . S
C101 O93 1.258 . S
C101 O94 1.267 1_545 S
Co102 O105 1.970 . S
Co102 N119 1.989 1_655 S
Co102 O127 1.967 1_655 S
Co102 O134 1.920 . S
Co103 O106 1.966 1_455 S
Co103 N112 2.022 . S
Co103 N120 1.993 1_556 S
Co103 O128 1.941 1_556 S
C104 O105 1.258 . S
C104 O106 1.263 1_554 S
O105 Co102 1.970 . S
O105 C104 1.258 . S
O106 Co103 1.966 1_655 S
O106 C104 1.263 1_556 S
C107 O108 1.235 . S
C107 O134 1.289 . S
O108 C107 1.235 . S
C109 C111 1.400 . S
C109 N112 1.351 . S
C109 C114 1.501 1_455 S
C110 C111 1.387 . S
C110 N113 1.341 . S
C111 C109 1.400 . S
C111 C110 1.387 . S
N112 Co103 2.022 . S
N112 C109 1.351 . S
N112 N113 1.365 . S
N113 C110 1.341 . S
N113 N112 1.365 . S
N113 H133 0.862 . S
C114 C109 1.501 1_655 S
C114 H115 0.961 . S
C114 H116 0.961 . S
C114 H117 0.960 . S
H115 C114 0.961 . S
H116 C114 0.961 . S
H117 C114 0.960 . S
C118 N119 1.342 . S
C118 C122 1.401 . S
C118 C123 1.499 . S
N119 Co102 1.989 1_455 S
N119 C118 1.342 . S
N119 N120 1.388 . S
N120 Co103 1.993 1_554 S
N120 N119 1.388 . S
N120 C121 1.346 1_554 S
C121 N120 1.346 1_556 S
C121 C122 1.396 1_556 S
C121 C131 1.510 . S
C122 C118 1.401 . S
C122 C121 1.396 1_554 S
C123 C118 1.499 . S
C123 H124 0.956 . S
C123 H125 0.960 1_455 S
C123 H126 0.961 . S
H124 C123 0.956 . S
H125 C123 0.960 1_655 S
H126 C123 0.961 . S
O127 Co102 1.967 1_455 S
O127 C135 1.258 . S
O128 Co103 1.941 1_554 S
O128 C135 1.266 . S
H129 C131 0.959 . S
H130 C131 0.961 . S
C131 C121 1.510 . S
C131 H129 0.959 . S
C131 H130 0.961 . S
C131 H132 0.960 . S
H132 C131 0.960 . S
H133 N113 0.862 . S
O134 Co102 1.920 . S
O134 C107 1.289 . S
C135 O127 1.258 . S
C135 O128 1.266 . S
Co136 O139 1.970 . S
Co136 N153 1.989 . S
Co136 O161 1.967 . S
Co136 O168 1.920 . S
Co137 O140 1.966 . S
Co137 N146 2.022 . S
Co137 N154 1.993 1_556 S
Co137 O162 1.941 1_556 S
C138 O139 1.258 . S
C138 O140 1.263 1_554 S
O139 Co136 1.970 . S
O139 C138 1.258 . S
O140 Co137 1.966 . S
O140 C138 1.263 1_556 S
C141 O142 1.235 . S
C141 O168 1.289 . S
O142 C141 1.235 . S
C143 C145 1.400 . S
C143 N146 1.351 . S
C143 C148 1.501 . S
C144 C145 1.387 . S
C144 N147 1.341 . S
C145 C143 1.400 . S
C145 C144 1.387 . S
N146 Co137 2.022 . S
N146 C143 1.351 . S
N146 N147 1.365 . S
N147 C144 1.341 . S
N147 N146 1.365 . S
N147 H167 0.862 . S
C148 C143 1.501 . S
C148 H149 0.961 . S
C148 H150 0.961 . S
C148 H151 0.960 . S
H149 C148 0.961 . S
H150 C148 0.961 . S
H151 C148 0.960 . S
C152 N153 1.342 . S
C152 C156 1.401 . S
C152 C157 1.499 . S
N153 Co136 1.989 . S
N153 C152 1.342 . S
N153 N154 1.388 . S
N154 Co137 1.993 1_554 S
N154 N153 1.388 . S
N154 C155 1.346 . S
C155 N154 1.346 . S
C155 C156 1.396 . S
C155 C165 1.510 1_554 S
C156 C152 1.401 . S
C156 C155 1.396 . S
C157 C152 1.499 . S
C157 H158 0.959 . S
C157 H159 0.960 . S
C157 H160 0.961 . S
H158 C157 0.959 . S
H159 C157 0.960 . S
H160 C157 0.961 . S
O161 Co136 1.967 . S
O161 C169 1.258 . S
O162 Co137 1.941 1_554 S
O162 C169 1.266 . S
H163 C165 0.959 . S
H164 C165 0.961 . S
C165 C155 1.510 1_556 S
C165 H163 0.959 . S
C165 H164 0.961 . S
C165 H166 0.960 . S
H166 C165 0.960 . S
H167 N147 0.862 . S
O168 Co136 1.920 . S
O168 C141 1.289 . S
C169 O161 1.258 . S
C169 O162 1.266 . S
Co170 O173 1.970 1_556 S
Co170 N187 1.983 1_565 S
Co170 O195 1.967 1_565 S
Co170 O202 1.920 . S
Co171 O174 1.966 1_545 S
Co171 N180 2.022 . S
Co171 N188 1.993 . S
Co171 O196 1.941 . S
C172 O173 1.258 . S
C172 O174 1.263 . S
O173 Co170 1.970 1_554 S
O173 C172 1.258 . S
O174 Co171 1.966 1_565 S
O174 C172 1.263 . S
C175 O176 1.235 . S
C175 O202 1.289 . S
O176 C175 1.235 . S
C177 C179 1.400 . S
C177 N180 1.351 . S
C177 C182 1.501 1_545 S
C178 C179 1.387 . S
C178 N181 1.341 . S
C179 C177 1.400 . S
C179 C178 1.387 . S
N180 Co171 2.022 . S
N180 C177 1.351 . S
N180 N181 1.365 . S
N181 C178 1.341 . S
N181 N180 1.365 . S
N181 H201 0.862 . S
C182 C177 1.501 1_565 S
C182 H183 0.961 . S
C182 H184 0.961 . S
C182 H185 0.960 . S
H183 C182 0.961 . S
H184 C182 0.961 . S
H185 C182 0.960 . S
C186 N187 1.346 1_565 S
C186 C190 1.404 1_566 S
C186 C191 1.499 . S
N187 Co170 1.983 1_545 S
N187 C186 1.346 1_545 S
N187 N188 1.388 1_556 S
N188 Co171 1.993 . S
N188 N187 1.388 1_554 S
N188 C189 1.346 . S
C189 N188 1.346 . S
C189 C190 1.396 . S
C189 C199 1.510 . S
C190 C186 1.404 1_544 S
C190 C189 1.396 . S
C191 C186 1.499 . S
C191 H192 0.959 . S
C191 H193 0.960 . S
C191 H194 0.961 1_565 S
H192 C191 0.959 . S
H193 C191 0.960 . S
H194 C191 0.961 1_545 S
O195 Co170 1.967 1_545 S
O195 C203 1.258 1_556 S
O196 Co171 1.941 . S
O196 C203 1.266 . S
H197 C199 0.959 . S
H198 C199 0.961 . S
C199 C189 1.510 . S
C199 H197 0.959 . S
C199 H198 0.961 . S
C199 H200 0.960 . S
H200 C199 0.960 . S
H201 N181 0.862 . S
O202 Co170 1.920 . S
O202 C175 1.289 . S
C203 O195 1.258 1_554 S
C203 O196 1.266 . S
Co204 O207 1.970 . S
Co204 N221 1.989 . S
Co204 O229 1.967 . S
Co204 O236 1.920 . S
Co205 O208 1.966 . S
Co205 N214 2.022 . S
Co205 N222 1.993 . S
Co205 O230 1.941 . S
C206 O207 1.258 . S
C206 O208 1.263 . S
O207 Co204 1.970 . S
O207 C206 1.258 . S
O208 Co205 1.966 . S
O208 C206 1.263 . S
C209 O210 1.235 . S
C209 O236 1.289 . S
O210 C209 1.235 . S
C211 C213 1.400 . S
C211 N214 1.351 . S
C211 C216 1.501 . S
C212 C213 1.387 . S
C212 N215 1.341 . S
C213 C211 1.400 . S
C213 C212 1.387 . S
N214 Co205 2.022 . S
N214 C211 1.351 . S
N214 N215 1.365 . S
N215 C212 1.341 . S
N215 N214 1.365 . S
N215 H235 0.862 . S
C216 C211 1.501 . S
C216 H217 0.961 . S
C216 H218 0.961 . S
C216 H219 0.960 . S
H217 C216 0.961 . S
H218 C216 0.961 . S
H219 C216 0.960 . S
C220 N221 1.342 . S
C220 C224 1.401 . S
C220 C225 1.499 . S
N221 Co204 1.989 . S
N221 C220 1.342 . S
N221 N222 1.388 . S
N222 Co205 1.993 . S
N222 N221 1.388 . S
N222 C223 1.346 . S
C223 N222 1.346 . S
C223 C224 1.396 . S
C223 C233 1.510 . S
C224 C220 1.401 . S
C224 C223 1.396 . S
C225 C220 1.499 . S
C225 H226 0.959 . S
C225 H227 0.960 . S
C225 H228 0.961 . S
H226 C225 0.959 . S
H227 C225 0.960 . S
H228 C225 0.961 . S
O229 Co204 1.967 . S
O229 C237 1.258 . S
O230 Co205 1.941 . S
O230 C237 1.266 . S
H231 C233 0.959 . S
H232 C233 0.961 . S
C233 C223 1.510 . S
C233 H231 0.959 . S
C233 H232 0.961 . S
C233 H234 0.960 . S
H234 C233 0.960 . S
H235 N215 0.862 . S
O236 Co204 1.920 . S
O236 C209 1.289 . S
C237 O229 1.258 . S
C237 O230 1.266 . S
Co238 O241 1.970 1_565 S
Co238 N255 1.989 . S
Co238 O263 1.986 1_565 S
Co238 O270 1.920 . S
Co239 O242 1.966 1_565 S
Co239 N248 2.022 . S
Co239 N256 1.993 . S
Co239 O264 1.941 . S
C240 O241 1.258 . S
C240 O242 1.263 . S
O241 Co238 1.970 1_545 S
O241 C240 1.258 . S
O242 Co239 1.966 1_545 S
O242 C240 1.263 . S
C243 O244 1.235 . S
C243 O270 1.289 . S
O244 C243 1.235 . S
C245 C247 1.400 . S
C245 N248 1.351 . S
C245 C250 1.501 1_565 S
C246 C247 1.387 . S
C246 N249 1.341 . S
C247 C245 1.400 . S
C247 C246 1.387 . S
N248 Co239 2.022 . S
N248 C245 1.351 . S
N248 N249 1.365 . S
N249 C246 1.341 . S
N249 N248 1.365 . S
N249 H269 0.862 . S
C250 C245 1.501 1_545 S
C250 H251 0.961 . S
C250 H252 0.961 . S
C250 H253 0.960 . S
H251 C250 0.961 . S
H252 C250 0.961 . S
H253 C250 0.960 . S
C254 N255 1.342 . S
C254 C258 1.401 . S
C254 C259 1.499 . S
N255 Co238 1.989 . S
N255 C254 1.342 . S
N255 N256 1.388 . S
N256 Co239 1.993 . S
N256 N255 1.388 . S
N256 C257 1.346 . S
C257 N256 1.346 . S
C257 C258 1.396 . S
C257 C267 1.510 . S
C258 C254 1.401 . S
C258 C257 1.396 . S
C259 C254 1.499 . S
C259 H260 0.959 . S
C259 H261 0.960 . S
C259 H262 0.961 . S
H260 C259 0.959 . S
H261 C259 0.960 . S
H262 C259 0.961 . S
O263 Co238 1.986 1_545 S
O263 C271 1.235 1_545 S
O264 Co239 1.941 . S
O264 C271 1.266 . S
H265 C267 0.959 . S
H266 C267 0.961 . S
C267 C257 1.510 . S
C267 H265 0.959 . S
C267 H266 0.961 . S
C267 H268 0.960 . S
H268 C267 0.960 . S
H269 N249 0.862 . S
O270 Co238 1.920 . S
O270 C243 1.289 . S
C271 O263 1.235 1_565 S
C271 O264 1.266 . S
Co272 O275 1.970 . S
Co272 N289 1.989 . S
Co272 O297 1.967 . S
Co272 O304 1.920 . S
Co273 O276 1.966 . S
Co273 N282 2.022 . S
Co273 N290 1.993 . S
Co273 O298 1.941 . S
C274 O275 1.258 . S
C274 O276 1.263 . S
O275 Co272 1.970 . S
O275 C274 1.258 . S
O276 Co273 1.966 . S
O276 C274 1.263 . S
C277 O278 1.235 . S
C277 O304 1.289 . S
O278 C277 1.235 . S
C279 C281 1.400 . S
C279 N282 1.351 . S
C279 C284 1.501 . S
C280 C281 1.387 . S
C280 N283 1.341 . S
C281 C279 1.400 . S
C281 C280 1.387 . S
N282 Co273 2.022 . S
N282 C279 1.351 . S
N282 N283 1.365 . S
N283 C280 1.341 . S
N283 N282 1.365 . S
N283 H303 0.862 . S
C284 C279 1.501 . S
C284 H285 0.961 . S
C284 H286 0.961 . S
C284 H287 0.960 . S
H285 C284 0.961 . S
H286 C284 0.961 . S
H287 C284 0.960 . S
C288 N289 1.342 . S
C288 C292 1.401 . S
C288 C293 1.499 . S
N289 Co272 1.989 . S
N289 C288 1.342 . S
N289 N290 1.388 . S
N290 Co273 1.993 . S
N290 N289 1.388 . S
N290 C291 1.346 . S
C291 N290 1.346 . S
C291 C292 1.396 . S
C291 C301 1.510 . S
C292 C288 1.401 . S
C292 C291 1.396 . S
C293 C288 1.499 . S
C293 H294 0.959 . S
C293 H295 0.960 . S
C293 H296 0.961 . S
H294 C293 0.959 . S
H295 C293 0.960 . S
H296 C293 0.961 . S
O297 Co272 1.967 . S
O297 C305 1.258 . S
O298 Co273 1.941 . S
O298 C305 1.266 . S
H299 C301 0.959 . S
H300 C301 0.961 . S
C301 C291 1.510 . S
C301 H299 0.959 . S
C301 H300 0.961 . S
C301 H302 0.960 . S
H302 C301 0.960 . S
H303 N283 0.862 . S
O304 Co272 1.920 . S
O304 C277 1.289 . S
C305 O297 1.258 . S
C305 O298 1.266 . S
Co306 O309 1.970 1_565 S
Co306 N323 1.989 . S
Co306 O331 1.967 . S
Co306 O338 1.920 . S
Co307 O310 1.966 1_565 S
Co307 N316 2.022 . S
Co307 N324 1.993 . S
Co307 O332 1.941 . S
C308 O309 1.258 . S
C308 O310 1.263 . S
O309 Co306 1.970 1_545 S
O309 C308 1.258 . S
O310 Co307 1.966 1_545 S
O310 C308 1.263 . S
C311 O312 1.245 1_565 S
C311 O338 1.289 . S
O312 C311 1.245 1_545 S
C313 C315 1.400 . S
C313 N316 1.351 . S
C313 C318 1.501 . S
C314 C315 1.387 . S
C314 N317 1.341 . S
C315 C313 1.400 . S
C315 C314 1.387 . S
N316 Co307 2.022 . S
N316 C313 1.351 . S
N316 N317 1.365 . S
N317 C314 1.341 . S
N317 N316 1.365 . S
N317 H337 0.862 . S
C318 C313 1.501 . S
C318 H319 0.961 1_565 S
C318 H320 0.961 . S
C318 H321 0.960 1_565 S
H319 C318 0.961 1_545 S
H320 C318 0.961 . S
H321 C318 0.960 1_545 S
C322 N323 1.342 . S
C322 C326 1.401 . S
C322 C327 1.499 . S
N323 Co306 1.989 . S
N323 C322 1.342 . S
N323 N324 1.388 . S
N324 Co307 1.993 . S
N324 N323 1.388 . S
N324 C325 1.346 . S
C325 N324 1.346 . S
C325 C326 1.396 . S
C325 C335 1.510 . S
C326 C322 1.401 . S
C326 C325 1.396 . S
C327 C322 1.499 . S
C327 H328 0.959 . S
C327 H329 0.960 . S
C327 H330 0.961 . S
H328 C327 0.959 . S
H329 C327 0.960 . S
H330 C327 0.961 . S
O331 Co306 1.967 . S
O331 C339 1.258 . S
O332 Co307 1.941 . S
O332 C339 1.266 . S
H333 C335 0.959 . S
H334 C335 0.961 . S
C335 C325 1.510 . S
C335 H333 0.959 . S
C335 H334 0.961 . S
C335 H336 0.960 . S
H336 C335 0.960 . S
H337 N317 0.862 . S
O338 Co306 1.920 . S
O338 C311 1.289 . S
C339 O331 1.258 . S
C339 O332 1.266 . S
Co340 O343 1.970 . S
Co340 N357 1.989 . S
Co340 O365 1.967 . S
Co340 O372 1.920 . S
Co341 O344 1.966 . S
Co341 N350 2.022 . S
Co341 N358 1.993 . S
Co341 O366 1.941 . S
C342 O343 1.258 1_655 S
C342 O344 1.263 1_655 S
O343 Co340 1.970 . S
O343 C342 1.258 1_455 S
O344 Co341 1.966 . S
O344 C342 1.263 1_455 S
C345 O346 1.235 . S
C345 O372 1.289 . S
O346 C345 1.235 . S
C347 C349 1.400 . S
C347 N350 1.351 . S
C347 C352 1.501 . S
C348 C349 1.387 . S
C348 N351 1.341 . S
C349 C347 1.400 . S
C349 C348 1.387 . S
N350 Co341 2.022 . S
N350 C347 1.351 . S
N350 N351 1.365 . S
N351 C348 1.341 . S
N351 N350 1.365 . S
N351 H371 0.862 . S
C352 C347 1.501 . S
C352 H353 0.961 . S
C352 H354 0.961 . S
C352 H355 0.960 . S
H353 C352 0.961 . S
H354 C352 0.961 . S
H355 C352 0.960 . S
C356 N357 1.342 . S
C356 C360 1.401 . S
C356 C361 1.499 . S
N357 Co340 1.989 . S
N357 C356 1.342 . S
N357 N358 1.388 . S
N358 Co341 1.993 . S
N358 N357 1.388 . S
N358 C359 1.346 . S
C359 N358 1.346 . S
C359 C360 1.396 . S
C359 C369 1.510 . S
C360 C356 1.401 . S
C360 C359 1.396 . S
C361 C356 1.499 . S
C361 H362 0.959 . S
C361 H363 0.960 . S
C361 H364 0.961 . S
H362 C361 0.959 . S
H363 C361 0.960 . S
H364 C361 0.961 . S
O365 Co340 1.967 . S
O365 C373 1.258 . S
O366 Co341 1.941 . S
O366 C373 1.266 . S
H367 C369 0.959 . S
H368 C369 0.961 . S
C369 C359 1.510 . S
C369 H367 0.959 . S
C369 H368 0.961 . S
C369 H370 0.960 . S
H370 C369 0.960 . S
H371 N351 0.862 . S
O372 Co340 1.920 . S
O372 C345 1.289 . S
C373 O365 1.258 . S
C373 O366 1.266 . S
Co374 O377 1.970 . S
Co374 N391 1.989 . S
Co374 O399 1.967 . S
Co374 O406 1.920 . S
Co375 O378 1.966 . S
Co375 N384 2.022 . S
Co375 N392 1.993 . S
Co375 O400 1.941 . S
C376 O377 1.258 . S
C376 O378 1.263 . S
O377 Co374 1.970 . S
O377 C376 1.258 . S
O378 Co375 1.966 . S
O378 C376 1.263 . S
C379 O380 1.235 . S
C379 O406 1.289 . S
O380 C379 1.235 . S
C381 C383 1.400 . S
C381 N384 1.351 . S
C381 C386 1.501 . S
C382 C383 1.387 . S
C382 N385 1.341 . S
C383 C381 1.400 . S
C383 C382 1.387 . S
N384 Co375 2.022 . S
N384 C381 1.351 . S
N384 N385 1.365 . S
N385 C382 1.341 . S
N385 N384 1.365 . S
N385 H405 0.862 . S
C386 C381 1.501 . S
C386 H387 0.961 . S
C386 H388 0.961 . S
C386 H389 0.960 . S
H387 C386 0.961 . S
H388 C386 0.961 . S
H389 C386 0.960 . S
C390 N391 1.342 . S
C390 C394 1.401 . S
C390 C395 1.499 . S
N391 Co374 1.989 . S
N391 C390 1.342 . S
N391 N392 1.388 . S
N392 Co375 1.993 . S
N392 N391 1.388 . S
N392 C393 1.346 . S
C393 N392 1.346 . S
C393 C394 1.396 . S
C393 C403 1.510 . S
C394 C390 1.401 . S
C394 C393 1.396 . S
C395 C390 1.499 . S
C395 H396 0.959 . S
C395 H397 0.960 . S
C395 H398 0.961 . S
H396 C395 0.959 . S
H397 C395 0.960 . S
H398 C395 0.961 . S
O399 Co374 1.967 . S
O399 C407 1.258 . S
O400 Co375 1.941 . S
O400 C407 1.266 . S
H401 C403 0.959 . S
H402 C403 0.961 . S
C403 C393 1.510 . S
C403 H401 0.959 . S
C403 H402 0.961 . S
C403 H404 0.960 . S
H404 C403 0.960 . S
H405 N385 0.862 . S
O406 Co374 1.920 . S
O406 C379 1.289 . S
C407 O399 1.258 . S
C407 O400 1.266 . S
Co408 O411 1.970 . S
Co408 N425 1.989 . S
Co408 O433 1.967 . S
Co408 O440 1.920 . S
Co409 O412 1.966 . S
Co409 N418 2.022 1_556 S
Co409 N426 1.993 . S
Co409 O434 1.941 . S
C410 O411 1.258 . S
C410 O412 1.263 . S
O411 Co408 1.970 . S
O411 C410 1.258 . S
O412 Co409 1.966 . S
O412 C410 1.263 . S
C413 O414 1.235 . S
C413 O440 1.289 . S
O414 C413 1.235 . S
C415 C417 1.400 . S
C415 N418 1.351 . S
C415 C420 1.501 . S
C416 C417 1.387 . S
C416 N419 1.341 . S
C417 C415 1.400 . S
C417 C416 1.387 . S
N418 Co409 2.022 1_554 S
N418 C415 1.351 . S
N418 N419 1.365 . S
N419 C416 1.341 . S
N419 N418 1.365 . S
N419 H439 0.862 . S
C420 C415 1.501 . S
C420 H421 0.961 . S
C420 H422 0.961 . S
C420 H423 0.960 . S
H421 C420 0.961 . S
H422 C420 0.961 . S
H423 C420 0.960 . S
C424 N425 1.342 . S
C424 C428 1.401 . S
C424 C429 1.499 . S
N425 Co408 1.989 . S
N425 C424 1.342 . S
N425 N426 1.388 . S
N426 Co409 1.993 . S
N426 N425 1.388 . S
N426 C427 1.346 . S
C427 N426 1.346 . S
C427 C428 1.396 . S
C427 C437 1.510 . S
C428 C424 1.401 . S
C428 C427 1.396 . S
C429 C424 1.499 . S
C429 H430 0.959 . S
C429 H431 0.960 . S
C429 H432 0.961 . S
H430 C429 0.959 . S
H431 C429 0.960 . S
H432 C429 0.961 . S
O433 Co408 1.967 . S
O433 C441 1.258 . S
O434 Co409 1.941 . S
O434 C441 1.266 . S
H435 C437 0.959 . S
H436 C437 0.961 1_554 S
C437 C427 1.510 . S
C437 H435 0.959 . S
C437 H436 0.961 1_556 S
C437 H438 0.960 1_556 S
H438 C437 0.960 1_554 S
H439 N419 0.862 . S
O440 Co408 1.920 . S
O440 C413 1.289 . S
C441 O433 1.258 . S
C441 O434 1.266 . S
Co442 O445 1.970 . S
Co442 N459 1.989 . S
Co442 O467 1.967 . S
Co442 O474 1.920 . S
Co443 O446 1.966 . S
Co443 N452 2.022 1_556 S
Co443 N460 1.993 . S
Co443 O468 1.941 . S
C444 O445 1.258 . S
C444 O446 1.263 . S
O445 Co442 1.970 . S
O445 C444 1.258 . S
O446 Co443 1.966 . S
O446 C444 1.263 . S
C447 O448 1.235 . S
C447 O474 1.289 . S
O448 C447 1.235 . S
C449 C451 1.400 . S
C449 N452 1.351 . S
C449 C454 1.501 . S
C450 C451 1.387 . S
C450 N453 1.341 . S
C451 C449 1.400 . S
C451 C450 1.387 . S
N452 Co443 2.022 1_554 S
N452 C449 1.351 . S
N452 N453 1.365 . S
N453 C450 1.341 . S
N453 N452 1.365 . S
N453 H473 0.862 . S
C454 C449 1.501 . S
C454 H455 0.961 . S
C454 H456 0.961 . S
C454 H457 0.960 . S
H455 C454 0.961 . S
H456 C454 0.961 . S
H457 C454 0.960 . S
C458 N459 1.342 . S
C458 C462 1.401 . S
C458 C463 1.499 . S
N459 Co442 1.989 . S
N459 C458 1.342 . S
N459 N460 1.388 . S
N460 Co443 1.993 . S
N460 N459 1.388 . S
N460 C461 1.346 . S
C461 N460 1.346 . S
C461 C462 1.396 . S
C461 C471 1.510 . S
C462 C458 1.401 . S
C462 C461 1.396 . S
C463 C458 1.499 . S
C463 H464 0.959 . S
C463 H465 0.960 . S
C463 H466 0.961 . S
H464 C463 0.959 . S
H465 C463 0.960 . S
H466 C463 0.961 . S
O467 Co442 1.967 . S
O467 C475 1.258 . S
O468 Co443 1.941 . S
O468 C475 1.266 . S
H469 C471 0.959 . S
H470 C471 0.961 . S
C471 C461 1.510 . S
C471 H469 0.959 . S
C471 H470 0.961 . S
C471 H472 0.960 . S
H472 C471 0.960 . S
H473 N453 0.862 . S
O474 Co442 1.920 . S
O474 C447 1.289 . S
C475 O467 1.258 . S
C475 O468 1.266 . S
Co476 O479 1.970 . S
Co476 N493 1.989 . S
Co476 O501 1.967 . S
Co476 O508 1.920 1_556 S
Co477 O480 1.966 . S
Co477 N486 2.022 . S
Co477 N494 1.993 . S
Co477 O502 1.941 . S
C478 O479 1.258 . S
C478 O480 1.263 . S
O479 Co476 1.970 . S
O479 C478 1.258 . S
O480 Co477 1.966 . S
O480 C478 1.263 . S
C481 O482 1.235 . S
C481 O508 1.289 . S
O482 C481 1.235 . S
C483 C485 1.400 . S
C483 N486 1.351 . S
C483 C488 1.501 . S
C484 C485 1.387 . S
C484 N487 1.341 . S
C485 C483 1.400 . S
C485 C484 1.387 . S
N486 Co477 2.022 . S
N486 C483 1.351 . S
N486 N487 1.365 . S
N487 C484 1.341 . S
N487 N486 1.365 . S
N487 H507 0.862 . S
C488 C483 1.501 . S
C488 H489 0.961 . S
C488 H490 0.961 . S
C488 H491 0.960 . S
H489 C488 0.961 . S
H490 C488 0.961 . S
H491 C488 0.960 . S
C492 N493 1.342 . S
C492 C496 1.401 . S
C492 C497 1.499 . S
N493 Co476 1.989 . S
N493 C492 1.342 . S
N493 N494 1.388 . S
N494 Co477 1.993 . S
N494 N493 1.388 . S
N494 C495 1.346 . S
C495 N494 1.346 . S
C495 C496 1.396 . S
C495 C505 1.510 . S
C496 C492 1.401 . S
C496 C495 1.396 . S
C497 C492 1.499 . S
C497 H498 0.959 1_556 S
C497 H499 0.960 1_556 S
C497 H500 0.961 1_556 S
H498 C497 0.959 1_554 S
H499 C497 0.960 1_554 S
H500 C497 0.961 1_554 S
O501 Co476 1.967 . S
O501 C509 1.258 . S
O502 Co477 1.941 . S
O502 C509 1.266 . S
H503 C505 0.959 . S
H504 C505 0.961 . S
C505 C495 1.510 . S
C505 H503 0.959 . S
C505 H504 0.961 . S
C505 H506 0.960 . S
H506 C505 0.960 . S
H507 N487 0.862 . S
O508 Co476 1.920 1_554 S
O508 C481 1.289 . S
C509 O501 1.258 . S
C509 O502 1.266 . S
Co510 O513 1.970 . S
Co510 N527 1.989 . S
Co510 O535 1.967 . S
Co510 O542 1.920 1_556 S
Co511 O514 1.966 . S
Co511 N520 2.022 . S
Co511 N528 1.993 . S
Co511 O536 1.941 . S
C512 O513 1.258 . S
C512 O514 1.263 . S
O513 Co510 1.970 . S
O513 C512 1.258 . S
O514 Co511 1.966 . S
O514 C512 1.263 . S
C515 O516 1.235 . S
C515 O542 1.289 . S
O516 C515 1.235 . S
C517 C519 1.400 . S
C517 N520 1.351 . S
C517 C522 1.501 . S
C518 C519 1.387 . S
C518 N521 1.341 . S
C519 C517 1.400 . S
C519 C518 1.387 . S
N520 Co511 2.022 . S
N520 C517 1.351 . S
N520 N521 1.365 . S
N521 C518 1.341 . S
N521 N520 1.365 . S
N521 H541 0.862 . S
C522 C517 1.501 . S
C522 H523 0.961 . S
C522 H524 0.961 . S
C522 H525 0.960 . S
H523 C522 0.961 . S
H524 C522 0.961 . S
H525 C522 0.960 . S
C526 N527 1.342 . S
C526 C530 1.401 . S
C526 C531 1.499 1_556 S
N527 Co510 1.989 . S
N527 C526 1.342 . S
N527 N528 1.388 . S
N528 Co511 1.993 . S
N528 N527 1.388 . S
N528 C529 1.346 . S
C529 N528 1.346 . S
C529 C530 1.396 . S
C529 C539 1.510 . S
C530 C526 1.401 . S
C530 C529 1.396 . S
C531 C526 1.499 1_554 S
C531 H532 0.959 . S
C531 H533 0.960 . S
C531 H534 0.961 . S
H532 C531 0.959 . S
H533 C531 0.960 . S
H534 C531 0.961 . S
O535 Co510 1.967 . S
O535 C543 1.258 . S
O536 Co511 1.941 . S
O536 C543 1.266 . S
H537 C539 0.959 . S
H538 C539 0.961 . S
C539 C529 1.510 . S
C539 H537 0.959 . S
C539 H538 0.961 . S
C539 H540 0.960 . S
H540 C539 0.960 . S
H541 N521 0.862 . S
O542 Co510 1.920 1_554 S
O542 C515 1.289 . S
C543 O535 1.258 . S
C543 O536 1.266 . S
Co544 O547 1.970 . S
Co544 N561 1.989 . S
Co544 O569 1.967 . S
Co544 O576 1.920 1_556 S
Co545 O548 1.966 . S
Co545 N554 2.022 . S
Co545 N562 1.993 . S
Co545 O570 1.941 . S
C546 O547 1.258 . S
C546 O548 1.263 . S
O547 Co544 1.970 . S
O547 C546 1.258 . S
O548 Co545 1.966 . S
O548 C546 1.263 . S
C549 O550 1.235 . S
C549 O576 1.289 . S
O550 C549 1.235 . S
C551 C553 1.400 . S
C551 N554 1.351 . S
C551 C556 1.501 . S
C552 C553 1.387 . S
C552 N555 1.341 . S
C553 C551 1.400 . S
C553 C552 1.387 . S
N554 Co545 2.022 . S
N554 C551 1.351 . S
N554 N555 1.365 . S
N555 C552 1.341 . S
N555 N554 1.365 . S
N555 H575 0.862 . S
C556 C551 1.501 . S
C556 H557 0.961 . S
C556 H558 0.961 . S
C556 H559 0.960 . S
H557 C556 0.961 . S
H558 C556 0.961 . S
H559 C556 0.960 . S
C560 N561 1.342 . S
C560 C564 1.401 . S
C560 C565 1.499 . S
N561 Co544 1.989 . S
N561 C560 1.342 . S
N561 N562 1.388 . S
N562 Co545 1.993 . S
N562 N561 1.388 . S
N562 C563 1.346 . S
C563 N562 1.346 . S
C563 C564 1.396 . S
C563 C573 1.510 . S
C564 C560 1.401 . S
C564 C563 1.396 . S
C565 C560 1.499 . S
C565 H566 0.959 1_556 S
C565 H567 0.960 . S
C565 H568 0.961 1_556 S
H566 C565 0.959 1_554 S
H567 C565 0.960 . S
H568 C565 0.961 1_554 S
O569 Co544 1.967 . S
O569 C577 1.258 . S
O570 Co545 1.941 . S
O570 C577 1.266 . S
H571 C573 0.959 . S
H572 C573 0.961 . S
C573 C563 1.510 . S
C573 H571 0.959 . S
C573 H572 0.961 . S
C573 H574 0.960 . S
H574 C573 0.960 . S
H575 N555 0.862 . S
O576 Co544 1.920 1_554 S
O576 C549 1.289 . S
C577 O569 1.258 . S
C577 O570 1.266 . S
Co578 O581 1.970 . S
Co578 N595 1.989 . S
Co578 O603 1.967 . S
Co578 O610 1.920 . S
Co579 O582 1.966 . S
Co579 N588 2.022 1_556 S
Co579 N596 1.993 . S
Co579 O604 1.941 . S
C580 O581 1.258 . S
C580 O582 1.263 . S
O581 Co578 1.970 . S
O581 C580 1.258 . S
O582 Co579 1.966 . S
O582 C580 1.263 . S
C583 O584 1.235 . S
C583 O610 1.289 . S
O584 C583 1.235 . S
C585 C587 1.400 . S
C585 N588 1.351 . S
C585 C590 1.501 . S
C586 C587 1.387 . S
C586 N589 1.341 . S
C587 C585 1.400 . S
C587 C586 1.387 . S
N588 Co579 2.022 1_554 S
N588 C585 1.351 . S
N588 N589 1.365 . S
N589 C586 1.341 . S
N589 N588 1.365 . S
N589 H609 0.862 . S
C590 C585 1.501 . S
C590 H591 0.961 . S
C590 H592 0.961 . S
C590 H593 0.960 . S
H591 C590 0.961 . S
H592 C590 0.961 . S
H593 C590 0.960 . S
C594 N595 1.342 . S
C594 C598 1.401 . S
C594 C599 1.499 . S
N595 Co578 1.989 . S
N595 C594 1.342 . S
N595 N596 1.388 . S
N596 Co579 1.993 . S
N596 N595 1.388 . S
N596 C597 1.346 . S
C597 N596 1.346 . S
C597 C598 1.396 . S
C597 C607 1.510 . S
C598 C594 1.401 . S
C598 C597 1.396 . S
C599 C594 1.499 . S
C599 H600 0.959 . S
C599 H601 0.960 . S
C599 H602 0.961 . S
H600 C599 0.959 . S
H601 C599 0.960 . S
H602 C599 0.961 . S
O603 Co578 1.967 . S
O603 C611 1.258 . S
O604 Co579 1.941 . S
O604 C611 1.266 . S
H605 C607 0.959 . S
H606 C607 0.961 . S
C607 C597 1.510 . S
C607 H605 0.959 . S
C607 H606 0.961 . S
C607 H608 0.960 1_556 S
H608 C607 0.960 1_554 S
H609 N589 0.862 . S
O610 Co578 1.920 . S
O610 C583 1.289 . S
C611 O603 1.258 . S
C611 O604 1.266 . S
C5 C9 3.236 . S
C39 C43 3.482 . S
C77 C73 3.278 . S
C111 C107 3.275 1_455 S
C141 C145 3.463 . S
C175 C179 3.468 1_565 S
C213 C209 3.032 1_556 S
C247 C243 3.469 1_556 S
C281 C277 3.254 1_556 S
C311 C315 3.061 1_554 S
C349 C345 3.499 1_556 S
C383 C379 3.268 1_556 S
C413 C417 3.017 . S
C447 C451 3.235 . S
C481 C485 3.259 . S
C515 C519 3.040 . S
C553 C549 3.292 . S
C583 C587 3.041 . S
C122 C20 1.724 . S
C156 C54 1.744 . S
C190 C88 1.696 . S
C224 C326 1.427 . S
C360 C258 1.535 . S
C394 C292 1.487 . S
C530 C428 1.767 . S
C462 C564 1.726 . S
C496 C598 1.717 . S
C305 C2 2.541 . S
C237 C36 2.472 . S
C101 C271 2.415 1_545 S
C70 C410 2.530 1_554 S
C33 C444 2.675 . S
C509 C67 2.391 1_556 S
C104 C580 2.589 1_554 S
C138 C543 2.449 1_554 S
C577 C203 2.408 1_556 S
C339 C172 2.453 . S
C135 C373 2.403 . S
C169 C407 2.366 . S
C206 C478 2.436 . S
C240 C441 2.413 . S
C274 C475 2.386 1_455 S
C512 C376 2.534 . S
C546 C308 2.437 . S
C611 C342 2.407 . S
