# Generated by pormake.
# Topology ukp, (4)-cn, num edge types: 1
# Building blocks:
#     Node 0, Type 0, BuildingBlock: QUQFOY_clean_sbu_1, # of connection points: 4
#     Node 1, Type 0, BuildingBlock: QUQFOY_clean_sbu_1, # of connection points: 4
#     Node 2, Type 0, BuildingBlock: QUQFOY_clean_sbu_1, # of connection points: 4
#     Node 3, Type 0, BuildingBlock: QUQFOY_clean_sbu_1, # of connection points: 4
#     Node 4, Type 0, BuildingBlock: QUQFOY_clean_sbu_1, # of connection points: 4
#     Node 5, Type 0, BuildingBlock: QUQFOY_clean_sbu_1, # of connection points: 4
#     Node 6, Type 0, BuildingBlock: QUQFOY_clean_sbu_1, # of connection points: 4
#     Node 7, Type 0, BuildingBlock: QUQFOY_clean_sbu_1, # of connection points: 4
#     Node 8, Type 0, BuildingBlock: QUQFOY_clean_sbu_1, # of connection points: 4
#     Node 9, Type 0, BuildingBlock: QUQFOY_clean_sbu_1, # of connection points: 4
#     Node 10, Type 0, BuildingBlock: QUQFOY_clean_sbu_1, # of connection points: 4
#     Node 11, Type 0, BuildingBlock: QUQFOY_clean_sbu_1, # of connection points: 4
#     Node 12, Type 0, BuildingBlock: QUQFOY_clean_sbu_1, # of connection points: 4
#     Node 13, Type 0, BuildingBlock: QUQFOY_clean_sbu_1, # of connection points: 4
#     Node 14, Type 0, BuildingBlock: QUQFOY_clean_sbu_1, # of connection points: 4
#     Node 15, Type 0, BuildingBlock: QUQFOY_clean_sbu_1, # of connection points: 4
#     Node 16, Type 0, BuildingBlock: QUQFOY_clean_sbu_1, # of connection points: 4
#     Node 17, Type 0, BuildingBlock: QUQFOY_clean_sbu_1, # of connection points: 4
#     Node 18, Type 0, BuildingBlock: QUQFOY_clean_sbu_1, # of connection points: 4
#     Node 19, Type 0, BuildingBlock: QUQFOY_clean_sbu_1, # of connection points: 4
#     Node 20, Type 0, BuildingBlock: QUQFOY_clean_sbu_1, # of connection points: 4
#     Node 21, Type 0, BuildingBlock: QUQFOY_clean_sbu_1, # of connection points: 4
#     Node 22, Type 0, BuildingBlock: QUQFOY_clean_sbu_1, # of connection points: 4
#     Node 23, Type 0, BuildingBlock: QUQFOY_clean_sbu_1, # of connection points: 4
#     Node 24, Type 0, BuildingBlock: QUQFOY_clean_sbu_1, # of connection points: 4
#     Node 25, Type 0, BuildingBlock: QUQFOY_clean_sbu_1, # of connection points: 4
#     Node 26, Type 0, BuildingBlock: QUQFOY_clean_sbu_1, # of connection points: 4
#     Node 27, Type 0, BuildingBlock: QUQFOY_clean_sbu_1, # of connection points: 4
#     Node 28, Type 0, BuildingBlock: QUQFOY_clean_sbu_1, # of connection points: 4
#     Node 29, Type 0, BuildingBlock: QUQFOY_clean_sbu_1, # of connection points: 4
#     Node 30, Type 0, BuildingBlock: QUQFOY_clean_sbu_1, # of connection points: 4
#     Node 31, Type 0, BuildingBlock: QUQFOY_clean_sbu_1, # of connection points: 4
#     Node 32, Type 0, BuildingBlock: QUQFOY_clean_sbu_1, # of connection points: 4
#     Node 33, Type 0, BuildingBlock: QUQFOY_clean_sbu_1, # of connection points: 4
#     Node 34, Type 0, BuildingBlock: QUQFOY_clean_sbu_1, # of connection points: 4
#     Node 35, Type 0, BuildingBlock: QUQFOY_clean_sbu_1, # of connection points: 4
#     Node 36, Type 0, BuildingBlock: QUQFOY_clean_sbu_1, # of connection points: 4
#     Node 37, Type 0, BuildingBlock: QUQFOY_clean_sbu_1, # of connection points: 4
#     Node 38, Type 0, BuildingBlock: QUQFOY_clean_sbu_1, # of connection points: 4
#     Node 39, Type 0, BuildingBlock: QUQFOY_clean_sbu_1, # of connection points: 4
#     Node 40, Type 0, BuildingBlock: QUQFOY_clean_sbu_1, # of connection points: 4
#     Node 41, Type 0, BuildingBlock: QUQFOY_clean_sbu_1, # of connection points: 4
#     Node 42, Type 0, BuildingBlock: QUQFOY_clean_sbu_1, # of connection points: 4
#     Node 43, Type 0, BuildingBlock: QUQFOY_clean_sbu_1, # of connection points: 4
#     Node 44, Type 0, BuildingBlock: QUQFOY_clean_sbu_1, # of connection points: 4
#     Node 45, Type 0, BuildingBlock: QUQFOY_clean_sbu_1, # of connection points: 4
#     Node 46, Type 0, BuildingBlock: QUQFOY_clean_sbu_1, # of connection points: 4
#     Node 47, Type 0, BuildingBlock: QUQFOY_clean_sbu_1, # of connection points: 4
#     Edge 48, Type (0, 0), BuildingBlock: EZIPEK_clean_linker_0, # of connection points: 2
#     Edge 49, Type (0, 0), BuildingBlock: EZIPEK_clean_linker_0, # of connection points: 2
#     Edge 50, Type (0, 0), BuildingBlock: EZIPEK_clean_linker_0, # of connection points: 2
#     Edge 51, Type (0, 0), BuildingBlock: EZIPEK_clean_linker_0, # of connection points: 2
#     Edge 52, Type (0, 0), BuildingBlock: EZIPEK_clean_linker_0, # of connection points: 2
#     Edge 53, Type (0, 0), BuildingBlock: EZIPEK_clean_linker_0, # of connection points: 2
#     Edge 54, Type (0, 0), BuildingBlock: EZIPEK_clean_linker_0, # of connection points: 2
#     Edge 55, Type (0, 0), BuildingBlock: EZIPEK_clean_linker_0, # of connection points: 2
#     Edge 56, Type (0, 0), BuildingBlock: EZIPEK_clean_linker_0, # of connection points: 2
#     Edge 57, Type (0, 0), BuildingBlock: EZIPEK_clean_linker_0, # of connection points: 2
#     Edge 58, Type (0, 0), BuildingBlock: EZIPEK_clean_linker_0, # of connection points: 2
#     Edge 59, Type (0, 0), BuildingBlock: EZIPEK_clean_linker_0, # of connection points: 2
#     Edge 60, Type (0, 0), BuildingBlock: EZIPEK_clean_linker_0, # of connection points: 2
#     Edge 61, Type (0, 0), BuildingBlock: EZIPEK_clean_linker_0, # of connection points: 2
#     Edge 62, Type (0, 0), BuildingBlock: EZIPEK_clean_linker_0, # of connection points: 2
#     Edge 63, Type (0, 0), BuildingBlock: EZIPEK_clean_linker_0, # of connection points: 2
#     Edge 64, Type (0, 0), BuildingBlock: EZIPEK_clean_linker_0, # of connection points: 2
#     Edge 65, Type (0, 0), BuildingBlock: EZIPEK_clean_linker_0, # of connection points: 2
#     Edge 66, Type (0, 0), BuildingBlock: EZIPEK_clean_linker_0, # of connection points: 2
#     Edge 67, Type (0, 0), BuildingBlock: EZIPEK_clean_linker_0, # of connection points: 2
#     Edge 68, Type (0, 0), BuildingBlock: EZIPEK_clean_linker_0, # of connection points: 2
#     Edge 69, Type (0, 0), BuildingBlock: EZIPEK_clean_linker_0, # of connection points: 2
#     Edge 70, Type (0, 0), BuildingBlock: EZIPEK_clean_linker_0, # of connection points: 2
#     Edge 71, Type (0, 0), BuildingBlock: EZIPEK_clean_linker_0, # of connection points: 2
#     Edge 72, Type (0, 0), BuildingBlock: EZIPEK_clean_linker_0, # of connection points: 2
#     Edge 73, Type (0, 0), BuildingBlock: EZIPEK_clean_linker_0, # of connection points: 2
#     Edge 74, Type (0, 0), BuildingBlock: EZIPEK_clean_linker_0, # of connection points: 2
#     Edge 75, Type (0, 0), BuildingBlock: EZIPEK_clean_linker_0, # of connection points: 2
#     Edge 76, Type (0, 0), BuildingBlock: EZIPEK_clean_linker_0, # of connection points: 2
#     Edge 77, Type (0, 0), BuildingBlock: EZIPEK_clean_linker_0, # of connection points: 2
#     Edge 78, Type (0, 0), BuildingBlock: EZIPEK_clean_linker_0, # of connection points: 2
#     Edge 79, Type (0, 0), BuildingBlock: EZIPEK_clean_linker_0, # of connection points: 2
#     Edge 80, Type (0, 0), BuildingBlock: EZIPEK_clean_linker_0, # of connection points: 2
#     Edge 81, Type (0, 0), BuildingBlock: EZIPEK_clean_linker_0, # of connection points: 2
#     Edge 82, Type (0, 0), BuildingBlock: EZIPEK_clean_linker_0, # of connection points: 2
#     Edge 83, Type (0, 0), BuildingBlock: EZIPEK_clean_linker_0, # of connection points: 2
#     Edge 84, Type (0, 0), BuildingBlock: EZIPEK_clean_linker_0, # of connection points: 2
#     Edge 85, Type (0, 0), BuildingBlock: EZIPEK_clean_linker_0, # of connection points: 2
#     Edge 86, Type (0, 0), BuildingBlock: EZIPEK_clean_linker_0, # of connection points: 2
#     Edge 87, Type (0, 0), BuildingBlock: EZIPEK_clean_linker_0, # of connection points: 2
#     Edge 88, Type (0, 0), BuildingBlock: EZIPEK_clean_linker_0, # of connection points: 2
#     Edge 89, Type (0, 0), BuildingBlock: EZIPEK_clean_linker_0, # of connection points: 2
#     Edge 90, Type (0, 0), BuildingBlock: EZIPEK_clean_linker_0, # of connection points: 2
#     Edge 91, Type (0, 0), BuildingBlock: EZIPEK_clean_linker_0, # of connection points: 2
#     Edge 92, Type (0, 0), BuildingBlock: EZIPEK_clean_linker_0, # of connection points: 2
#     Edge 93, Type (0, 0), BuildingBlock: EZIPEK_clean_linker_0, # of connection points: 2
#     Edge 94, Type (0, 0), BuildingBlock: EZIPEK_clean_linker_0, # of connection points: 2
#     Edge 95, Type (0, 0), BuildingBlock: EZIPEK_clean_linker_0, # of connection points: 2
#     Edge 96, Type (0, 0), BuildingBlock: EZIPEK_clean_linker_0, # of connection points: 2
#     Edge 97, Type (0, 0), BuildingBlock: EZIPEK_clean_linker_0, # of connection points: 2
#     Edge 98, Type (0, 0), BuildingBlock: EZIPEK_clean_linker_0, # of connection points: 2
#     Edge 99, Type (0, 0), BuildingBlock: EZIPEK_clean_linker_0, # of connection points: 2
#     Edge 100, Type (0, 0), BuildingBlock: EZIPEK_clean_linker_0, # of connection points: 2
#     Edge 101, Type (0, 0), BuildingBlock: EZIPEK_clean_linker_0, # of connection points: 2
#     Edge 102, Type (0, 0), BuildingBlock: EZIPEK_clean_linker_0, # of connection points: 2
#     Edge 103, Type (0, 0), BuildingBlock: EZIPEK_clean_linker_0, # of connection points: 2
#     Edge 104, Type (0, 0), BuildingBlock: EZIPEK_clean_linker_0, # of connection points: 2
#     Edge 105, Type (0, 0), BuildingBlock: EZIPEK_clean_linker_0, # of connection points: 2
#     Edge 106, Type (0, 0), BuildingBlock: EZIPEK_clean_linker_0, # of connection points: 2
#     Edge 107, Type (0, 0), BuildingBlock: EZIPEK_clean_linker_0, # of connection points: 2
#     Edge 108, Type (0, 0), BuildingBlock: EZIPEK_clean_linker_0, # of connection points: 2
#     Edge 109, Type (0, 0), BuildingBlock: EZIPEK_clean_linker_0, # of connection points: 2
#     Edge 110, Type (0, 0), BuildingBlock: EZIPEK_clean_linker_0, # of connection points: 2
#     Edge 111, Type (0, 0), BuildingBlock: EZIPEK_clean_linker_0, # of connection points: 2
#     Edge 112, Type (0, 0), BuildingBlock: EZIPEK_clean_linker_0, # of connection points: 2
#     Edge 113, Type (0, 0), BuildingBlock: EZIPEK_clean_linker_0, # of connection points: 2
#     Edge 114, Type (0, 0), BuildingBlock: EZIPEK_clean_linker_0, # of connection points: 2
#     Edge 115, Type (0, 0), BuildingBlock: EZIPEK_clean_linker_0, # of connection points: 2
#     Edge 116, Type (0, 0), BuildingBlock: EZIPEK_clean_linker_0, # of connection points: 2
#     Edge 117, Type (0, 0), BuildingBlock: EZIPEK_clean_linker_0, # of connection points: 2
#     Edge 118, Type (0, 0), BuildingBlock: EZIPEK_clean_linker_0, # of connection points: 2
#     Edge 119, Type (0, 0), BuildingBlock: EZIPEK_clean_linker_0, # of connection points: 2
#     Edge 120, Type (0, 0), BuildingBlock: EZIPEK_clean_linker_0, # of connection points: 2
#     Edge 121, Type (0, 0), BuildingBlock: EZIPEK_clean_linker_0, # of connection points: 2
#     Edge 122, Type (0, 0), BuildingBlock: EZIPEK_clean_linker_0, # of connection points: 2
#     Edge 123, Type (0, 0), BuildingBlock: EZIPEK_clean_linker_0, # of connection points: 2
#     Edge 124, Type (0, 0), BuildingBlock: EZIPEK_clean_linker_0, # of connection points: 2
#     Edge 125, Type (0, 0), BuildingBlock: EZIPEK_clean_linker_0, # of connection points: 2
#     Edge 126, Type (0, 0), BuildingBlock: EZIPEK_clean_linker_0, # of connection points: 2
#     Edge 127, Type (0, 0), BuildingBlock: EZIPEK_clean_linker_0, # of connection points: 2
#     Edge 128, Type (0, 0), BuildingBlock: EZIPEK_clean_linker_0, # of connection points: 2
#     Edge 129, Type (0, 0), BuildingBlock: EZIPEK_clean_linker_0, # of connection points: 2
#     Edge 130, Type (0, 0), BuildingBlock: EZIPEK_clean_linker_0, # of connection points: 2
#     Edge 131, Type (0, 0), BuildingBlock: EZIPEK_clean_linker_0, # of connection points: 2
#     Edge 132, Type (0, 0), BuildingBlock: EZIPEK_clean_linker_0, # of connection points: 2
#     Edge 133, Type (0, 0), BuildingBlock: EZIPEK_clean_linker_0, # of connection points: 2
#     Edge 134, Type (0, 0), BuildingBlock: EZIPEK_clean_linker_0, # of connection points: 2
#     Edge 135, Type (0, 0), BuildingBlock: EZIPEK_clean_linker_0, # of connection points: 2
#     Edge 136, Type (0, 0), BuildingBlock: EZIPEK_clean_linker_0, # of connection points: 2
#     Edge 137, Type (0, 0), BuildingBlock: EZIPEK_clean_linker_0, # of connection points: 2
#     Edge 138, Type (0, 0), BuildingBlock: EZIPEK_clean_linker_0, # of connection points: 2
#     Edge 139, Type (0, 0), BuildingBlock: EZIPEK_clean_linker_0, # of connection points: 2
#     Edge 140, Type (0, 0), BuildingBlock: EZIPEK_clean_linker_0, # of connection points: 2
#     Edge 141, Type (0, 0), BuildingBlock: EZIPEK_clean_linker_0, # of connection points: 2
#     Edge 142, Type (0, 0), BuildingBlock: EZIPEK_clean_linker_0, # of connection points: 2
#     Edge 143, Type (0, 0), BuildingBlock: EZIPEK_clean_linker_0, # of connection points: 2
# Relax obj value: 0.062
# Max RMSD: 0.236
# Mean RMSD: 0.236
data_MOF--net-ukp--node1-QUQFOY_clean_sbu_1--edge1-EZIPEK_clean_linker_0
_symmetry_space_group_name_H-M    P1
_symmetry_Int_Tables_number       1
_symmetry_cell_setting            triclinic
loop_
_symmetry_equiv_pos_as_xyz
'x, y, z'
_cell_length_a     46.964677
_cell_length_b     47.000808
_cell_length_c     47.048978
_cell_angle_alpha  89.92957
_cell_angle_beta   89.884686
_cell_angle_gamma 90.008253
loop_
_atom_site_label
_atom_site_type_symbol
_atom_site_fract_x
_atom_site_fract_y
_atom_site_fract_z
_atom_type_partial_charge
O0 O 0.24275 0.23672 0.37414 0.0
Cd1 Cd 0.20621 0.25646 0.39102 0.0
Cd2 Cd 0.24829 0.29385 0.40261 0.0
O3 O 0.27728 0.26205 0.39385 0.0
O4 O 0.17583 0.22625 0.39734 0.0
O5 O 0.19573 0.24998 0.43253 0.0
C6 C 0.17814 0.23051 0.42435 0.0
C7 C 0.24157 0.32561 0.43963 0.0
C8 C 0.26923 0.2412 0.37853 0.0
C9 C 0.20696 0.31022 0.3574 0.0
O10 O 0.23204 0.31224 0.36695 0.0
O11 O 0.19029 0.29087 0.36678 0.0
O12 O 0.26229 0.32902 0.42183 0.0
O13 O 0.2284 0.30143 0.43944 0.0
O14 O 0.01667 0.98958 0.62918 0.0
Cd15 Cd 0.99787 0.95038 0.63617 0.0
Cd16 Cd 0.96208 0.98328 0.66463 0.0
O17 O 0.99589 0.01233 0.66453 0.0
O18 O 0.02781 0.92001 0.63952 0.0
O19 O 1.00009 0.93327 0.67539 0.0
C20 C 0.02103 0.91797 0.66611 0.0
C21 C 0.92613 0.97473 0.69813 0.0
C22 C 0.01346 0.01211 0.64377 0.0
C23 C 0.94595 0.96176 0.6055 0.0
O24 O 0.9436 0.97981 0.62543 0.0
O25 O 0.96547 0.94295 0.60659 0.0
O26 O 0.92928 0.99957 0.68689 0.0
O27 O 0.9457 0.956 0.69345 0.0
O28 O 0.27885 0.77301 0.87579 0.0
Cd29 Cd 0.31099 0.74799 0.89299 0.0
Cd30 Cd 0.26638 0.71689 0.90639 0.0
O31 O 0.24255 0.75289 0.89797 0.0
O32 O 0.34552 0.7727 0.89886 0.0
O33 O 0.32181 0.75274 0.93436 0.0
C34 C 0.34224 0.76912 0.92588 0.0
C35 C 0.26821 0.68491 0.9438 0.0
C36 C 0.25224 0.77157 0.88085 0.0
C37 C 0.30163 0.69608 0.85861 0.0
O38 O 0.27718 0.69625 0.87005 0.0
O39 O 0.32104 0.71298 0.86724 0.0
O40 O 0.24494 0.68833 0.92963 0.0
O41 O 0.28868 0.70284 0.93949 0.0
O42 O 0.49063 0.02736 0.1235 0.0
Cd43 Cd 0.51383 0.06303 0.13471 0.0
Cd44 Cd 0.54954 0.02252 0.15014 0.0
O45 O 0.51557 0.99493 0.14654 0.0
O46 O 0.48514 0.09461 0.13744 0.0
O47 O 0.50917 0.07834 0.17453 0.0
C48 C 0.48959 0.09485 0.16449 0.0
C49 C 0.5835 0.03011 0.18473 0.0
C50 C 0.49467 1.00156 0.13065 0.0
C51 C 0.56452 0.05451 0.09803 0.0
O52 O 0.56702 0.03142 0.1117 0.0
O53 O 0.54638 0.07322 0.10574 0.0
O54 O 0.58145 1.00564 0.17242 0.0
O55 O 0.56347 0.04854 0.18049 0.0
O56 O 0.24046 0.7717 0.13288 0.0
Cd57 Cd 0.20544 0.74872 0.11879 0.0
Cd58 Cd 0.24666 0.71345 0.10379 0.0
O59 O 0.27409 0.74705 0.11113 0.0
O60 O 0.17269 0.77614 0.11483 0.0
O61 O 0.19188 0.75369 0.07819 0.0
C62 C 0.17362 0.77193 0.08774 0.0
C63 C 0.24347 0.68008 0.0675 0.0
C64 C 0.2667 0.76732 0.12753 0.0
C65 C 0.2127 0.69698 0.15443 0.0
O66 O 0.23597 0.69436 0.14105 0.0
O67 O 0.19442 0.71554 0.14674 0.0
O68 O 0.26664 0.68292 0.08194 0.0
O69 O 0.22376 0.699 0.07088 0.0
O70 O 0.49786 0.99176 0.38219 0.0
Cd71 Cd 0.51611 0.95221 0.37486 0.0
Cd72 Cd 0.55265 0.98525 0.34741 0.0
O73 O 0.51995 0.01541 0.34813 0.0
O74 O 0.4859 0.92183 0.37114 0.0
O75 O 0.51389 0.93504 0.33556 0.0
C76 C 0.49294 0.91963 0.34464 0.0
C77 C 0.58742 0.97399 0.31387 0.0
C78 C 0.50203 0.01482 0.36858 0.0
C79 C 0.56844 0.9626 0.406 0.0
O80 O 0.57136 0.98084 0.38629 0.0
O81 O 0.54844 0.94428 0.40464 0.0
O82 O 0.58642 0.99903 0.32502 0.0
O83 O 0.56627 0.95699 0.31843 0.0
O84 O 0.28161 0.23399 0.6392 0.0
Cd85 Cd 0.318 0.25504 0.62593 0.0
Cd86 Cd 0.27717 0.29277 0.6117 0.0
O87 O 0.24816 0.26102 0.6199 0.0
O88 O 0.348 0.22488 0.62044 0.0
O89 O 0.32978 0.2499 0.585 0.0
C90 C 0.34613 0.22944 0.59343 0.0
C91 C 0.2826 0.32504 0.57501 0.0
C92 C 0.25546 0.23948 0.63468 0.0
C93 C 0.31473 0.30686 0.66151 0.0
O94 O 0.29176 0.31083 0.64809 0.0
O95 O 0.33162 0.28685 0.65427 0.0
O96 O 0.26179 0.32751 0.59282 0.0
O97 O 0.29702 0.30158 0.5752 0.0
O98 O 0.0246 0.03301 0.88888 0.0
Cd99 Cd 0.99939 0.06684 0.87584 0.0
Cd100 Cd 0.96516 0.02389 0.86262 0.0
O101 O 1.00048 0.9981 0.8687 0.0
O102 O 0.02557 0.10015 0.87023 0.0
O103 O 1.00195 0.07982 0.83497 0.0
C104 C 0.02019 0.09858 0.8434 0.0
C105 C 0.93142 0.02697 0.82677 0.0
C106 C 0.02148 1.00663 0.88356 0.0
C107 C 0.94901 0.05919 0.91297 0.0
O108 O 0.94688 0.03549 0.90031 0.0
O109 O 0.96713 0.07763 0.90468 0.0
O110 O 0.93371 1.00408 0.84182 0.0
O111 O 0.95085 0.04627 0.82935 0.0
O112 O 0.36558 0.2303 0.24497 0.0
Cd113 Cd 0.37417 0.18711 0.25494 0.0
Cd114 Cd 0.3843 0.23427 0.31476 0.0
O115 O 0.36732 0.2597 0.2829 0.0
O116 O 0.38342 0.16256 0.2214 0.0
O117 O 0.41502 0.17428 0.25449 0.0
C118 C 0.40915 0.16112 0.23108 0.0
C119 C 0.41616 0.24221 0.35117 0.0
C120 C 0.36188 0.25476 0.2566 0.0
C121 C 0.35271 0.18341 0.3068 0.0
O122 O 0.37765 0.19348 0.30664 0.0
O123 O 0.3462 0.16907 0.28506 0.0
O124 O 0.38902 0.2413 0.35614 0.0
O125 O 0.42451 0.24221 0.32495 0.0
O126 O 0.03361 0.12277 0.49294 0.0
Cd127 Cd 0.06987 0.1304 0.51679 0.0
Cd128 Cd 0.03381 0.16199 0.54611 0.0
O129 O 0.00935 0.1595 0.50903 0.0
O130 O 0.10552 0.13285 0.49245 0.0
O131 O 0.08768 0.1696 0.51476 0.0
C132 C 0.10745 0.15965 0.49845 0.0
C133 C 0.03958 0.19882 0.57864 0.0
C134 C 0.0111 0.13783 0.4928 0.0
C135 C 0.05061 0.10469 0.57087 0.0
O136 O 0.0335 0.12561 0.57002 0.0
O137 O 0.07086 0.10323 0.55272 0.0
O138 O 0.01454 0.18946 0.57255 0.0
O139 O 0.06051 0.19067 0.56276 0.0
O140 O 0.13618 0.77902 0.73283 0.0
Cd141 Cd 0.12524 0.81378 0.75771 0.0
Cd142 Cd 0.10922 0.77145 0.79105 0.0
O143 O 0.11012 0.74683 0.7544 0.0
O144 O 0.1204 0.84677 0.73078 0.0
O145 O 0.08472 0.82823 0.75541 0.0
C146 C 0.09349 0.84611 0.73641 0.0
C147 C 0.07508 0.77723 0.82642 0.0
C148 C 0.12607 0.75393 0.73356 0.0
C149 C 0.16204 0.80286 0.80708 0.0
O150 O 0.14873 0.77938 0.80756 0.0
O151 O 0.15422 0.82278 0.7904 0.0
O152 O 0.08808 0.7532 0.82339 0.0
O153 O 0.07878 0.79653 0.80717 0.0
O154 O 0.48155 0.88355 0.99193 0.0
Cd155 Cd 0.44943 0.86859 0.01836 0.0
Cd156 Cd 0.49475 0.85584 0.04983 0.0
O157 O 0.51815 0.863 0.01306 0.0
O158 O 0.41475 0.8641 0.9937 0.0
O159 O 0.43641 0.82771 0.01423 0.0
C160 C 0.41673 0.83697 0.99742 0.0
C161 C 0.49318 0.81958 0.08342 0.0
C162 C 0.50817 0.87864 0.99328 0.0
C163 C 0.45989 0.9048 0.06901 0.0
O164 O 0.48416 0.89301 0.06921 0.0
O165 O 0.44036 0.89598 0.05239 0.0
O166 O 0.51641 0.83364 0.07908 0.0
O167 O 0.47259 0.82314 0.0655 0.0
O168 O 0.38154 0.77842 0.27685 0.0
Cd169 Cd 0.3939 0.8118 0.2507 0.0
Cd170 Cd 0.41092 0.76786 0.2199 0.0
O171 O 0.40833 0.74529 0.2579 0.0
O172 O 0.39699 0.84619 0.27622 0.0
O173 O 0.43422 0.82671 0.25501 0.0
C174 C 0.42423 0.84539 0.27255 0.0
C175 C 0.44682 0.77277 0.18616 0.0
C176 C 0.39163 0.75333 0.27776 0.0
C177 C 0.35946 0.79806 0.1996 0.0
O178 O 0.37255 0.77448 0.20064 0.0
O179 O 0.36679 0.81863 0.21574 0.0
O180 O 0.43498 0.74835 0.19055 0.0
O181 O 0.44118 0.7931 0.20382 0.0
O182 O 0.48542 0.11908 0.52315 0.0
Cd183 Cd 0.44857 0.12653 0.50033 0.0
Cd184 Cd 0.48212 0.16208 0.47145 0.0
O185 O 0.50939 0.15571 0.50606 0.0
O186 O 0.41317 0.1283 0.52489 0.0
O187 O 0.43113 0.16541 0.50307 0.0
C188 C 0.41136 0.15518 0.51917 0.0
C189 C 0.47619 0.20538 0.44648 0.0
C190 C 0.50801 0.13401 0.52234 0.0
C191 C 0.46477 0.10581 0.44334 0.0
O192 O 0.48013 0.1281 0.44365 0.0
O193 O 0.447 0.10137 0.46342 0.0
O194 O 0.49988 0.19162 0.44606 0.0
O195 O 0.45662 0.19571 0.46311 0.0
O196 O 0.14158 0.2333 0.77784 0.0
Cd197 Cd 0.12532 0.20114 0.75234 0.0
Cd198 Cd 0.11507 0.24552 0.72007 0.0
O199 O 0.12159 0.26979 0.75603 0.0
O200 O 0.11869 0.16726 0.77747 0.0
O201 O 0.08376 0.19065 0.7562 0.0
C202 C 0.09177 0.17063 0.77325 0.0
C203 C 0.0812 0.24314 0.68482 0.0
C204 C 0.13727 0.25997 0.77582 0.0
C205 C 0.16214 0.2087 0.70191 0.0
O206 O 0.15239 0.2338 0.70213 0.0
O207 O 0.15181 0.1897 0.71832 0.0
O208 O 0.09512 0.26647 0.68903 0.0
O209 O 0.083 0.22326 0.70381 0.0
O210 O 0.03294 0.88965 0.02184 0.0
Cd211 Cd 0.06807 0.87677 0.998 0.0
Cd212 Cd 0.02504 0.86341 0.96277 0.0
O213 O 0.99784 0.87087 0.99661 0.0
O214 O 0.10099 0.87145 0.02507 0.0
O215 O 0.08171 0.83594 1.00109 0.0
C216 C 0.10006 0.84457 0.01959 0.0
C217 C 0.03173 0.82673 0.93066 0.0
C218 C 1.00643 0.88526 0.01793 0.0
C219 C 0.06123 0.91364 0.94719 0.0
O220 O 0.03798 0.90036 0.94446 0.0
O221 O 0.07929 0.90594 0.96591 0.0
O222 O 0.0098 0.84323 0.92864 0.0
O223 O 0.04683 0.82817 0.95358 0.0
O224 O 0.22481 0.37729 0.24491 0.0
Cd225 Cd 0.25129 0.3904 0.21202 0.0
Cd226 Cd 0.28212 0.40518 0.25589 0.0
O227 O 0.24406 0.40331 0.27844 0.0
O228 O 0.22759 0.39531 0.17647 0.0
O229 O 0.24823 0.4313 0.19853 0.0
C230 C 0.23198 0.42237 0.17831 0.0
C231 C 0.3164 0.43979 0.24746 0.0
C232 C 0.22434 0.38648 0.27034 0.0
C233 C 0.30062 0.35363 0.22619 0.0
O234 O 0.29973 0.36616 0.25002 0.0
O235 O 0.28569 0.36262 0.20536 0.0
O236 O 0.3126 0.42984 0.27283 0.0
O237 O 0.29797 0.43306 0.22821 0.0
O238 O 0.74043 0.14007 0.77697 0.0
Cd239 Cd 0.76319 0.12577 0.81191 0.0
Cd240 Cd 0.79844 0.11197 0.76915 0.0
O241 O 0.76505 0.12045 0.74186 0.0
O242 O 0.73479 0.12155 0.84381 0.0
O243 O 0.75725 0.08501 0.82445 0.0
C244 C 0.73848 0.0944 0.8422 0.0
C245 C 0.82895 0.0744 0.77744 0.0
C246 C 0.74422 0.13561 0.75052 0.0
C247 C 0.81533 0.16089 0.80622 0.0
O248 O 0.81758 0.14831 0.78256 0.0
O249 O 0.7964 0.15319 0.82414 0.0
O250 O 0.83231 0.09032 0.75524 0.0
O251 O 0.80538 0.07673 0.79155 0.0
O252 O 0.12631 0.49261 0.03246 0.0
Cd253 Cd 0.13951 0.51772 0.06628 0.0
Cd254 Cd 0.15579 0.55116 0.02198 0.0
O255 O 0.14654 0.51615 0.99698 0.0
O256 O 0.14156 0.49169 0.10035 0.0
O257 O 0.17952 0.51248 0.08181 0.0
C258 C 0.16881 0.49513 0.1003 0.0
C259 C 0.1963 0.58058 0.02011 0.0
C260 C 0.1314 0.49551 1.00601 0.0
C261 C 0.10553 0.57063 0.05646 0.0
O262 O 0.12005 0.57278 0.03383 0.0
O263 O 0.11151 0.55159 0.07489 0.0
O264 O 0.17766 0.58053 1.00005 0.0
O265 O 0.19277 0.5621 0.04023 0.0
O266 O 0.79113 0.86762 0.28133 0.0
Cd267 Cd 0.76625 0.8789 0.31598 0.0
Cd268 Cd 0.73303 0.89497 0.27359 0.0
O269 O 0.76985 0.89379 0.24906 0.0
O270 O 0.79286 0.88474 0.34912 0.0
O271 O 0.7691 0.91993 0.32877 0.0
C272 C 0.78777 0.91167 0.34716 0.0
C273 C 0.69742 0.92874 0.27948 0.0
C274 C 0.79056 0.87773 0.25624 0.0
C275 C 0.71686 0.84199 0.30496 0.0
O276 O 0.7165 0.8556 0.28169 0.0
O277 O 0.73339 0.84972 0.32503 0.0
O278 O 0.69991 0.91514 0.25576 0.0
O279 O 0.71752 0.9261 0.29808 0.0
O280 O 0.89237 0.02731 0.03427 0.0
Cd281 Cd 0.87918 1.00306 0.06852 0.0
Cd282 Cd 0.86315 0.96986 0.02708 0.0
O283 O 0.86784 1.00507 1.00103 0.0
O284 O 0.8727 0.0297 0.10147 0.0
O285 O 0.83783 1.00662 0.07987 0.0
C286 C 0.84574 0.02512 0.09854 0.0
C287 C 0.82775 0.93644 0.03409 0.0
C288 C 0.8849 0.02481 0.00841 0.0
C289 C 0.91492 0.95199 0.05822 0.0
O290 O 0.90134 0.95106 0.035 0.0
O291 O 0.90744 0.96935 0.07776 0.0
O292 O 0.8398 0.93904 0.00951 0.0
O293 O 0.83264 0.95565 0.05308 0.0
O294 O 0.26889 0.63697 0.73869 0.0
Cd295 Cd 0.24561 0.62474 0.70293 0.0
Cd296 Cd 0.20951 0.61245 0.74573 0.0
O297 O 0.2424 0.61916 0.77346 0.0
O298 O 0.27361 0.62102 0.67053 0.0
O299 O 0.25026 0.58435 0.68858 0.0
C300 C 0.26891 0.59398 0.67082 0.0
C301 C 0.17914 0.57505 0.73666 0.0
C302 C 0.26435 0.63279 0.76513 0.0
C303 C 0.19376 0.66117 0.70839 0.0
O304 O 0.19121 0.64921 0.73235 0.0
O305 O 0.21256 0.65259 0.69075 0.0
O306 O 0.17506 0.5912 0.75853 0.0
O307 O 0.20314 0.57725 0.72333 0.0
O308 O 0.13142 0.52347 0.47996 0.0
Cd309 Cd 0.14521 0.49933 0.44571 0.0
Cd310 Cd 0.15968 0.46509 0.48827 0.0
O311 O 0.15318 0.50005 0.51441 0.0
O312 O 0.14986 0.52612 0.41256 0.0
O313 O 0.18608 0.5036 0.43249 0.0
C314 C 0.17695 0.52176 0.41397 0.0
C315 C 0.19476 0.43039 0.48503 0.0
C316 C 0.13708 0.52032 0.50624 0.0
C317 C 0.10872 0.44855 0.45443 0.0
O318 O 0.12178 0.44675 0.4779 0.0
O319 O 0.11682 0.4663 0.43551 0.0
O320 O 0.1806 0.43385 0.50832 0.0
O321 O 0.19221 0.44947 0.46537 0.0
O322 O 0.38013 0.49489 0.9883 0.0
Cd323 Cd 0.36749 0.52052 0.95477 0.0
Cd324 Cd 0.35072 0.55226 0.99869 0.0
O325 O 0.35645 0.51616 0.02288 0.0
O326 O 0.36679 0.49498 0.92046 0.0
O327 O 0.32797 0.51449 0.93868 0.0
C328 C 0.33944 0.49752 0.92034 0.0
C329 C 0.31385 0.58471 0.99493 0.0
C330 C 0.37319 0.4966 0.0144 0.0
C331 C 0.40188 0.57226 0.96756 0.0
O332 O 0.38818 0.57245 0.99079 0.0
O333 O 0.39489 0.55525 0.9476 0.0
O334 O 0.32661 0.5809 0.0189 0.0
O335 O 0.31913 0.56688 0.97464 0.0
O336 O 0.72938 0.7285 0.87417 0.0
Cd337 Cd 0.69283 0.75115 0.88535 0.0
Cd338 Cd 0.73299 0.79132 0.89347 0.0
O339 O 0.76202 0.75889 0.88923 0.0
O340 O 0.66185 0.72317 0.89545 0.0
O341 O 0.6804 0.75304 0.92666 0.0
C342 C 0.66288 0.73256 0.92119 0.0
C343 C 0.73193 0.82944 0.92466 0.0
C344 C 0.75542 0.73559 0.87714 0.0
C345 C 0.69467 0.79799 0.84296 0.0
O346 O 0.71788 0.80414 0.85511 0.0
O347 O 0.67856 0.77853 0.85295 0.0
O348 O 0.75271 0.82651 0.90695 0.0
O349 O 0.71374 0.80894 0.92705 0.0
O350 O 0.51132 0.48702 0.13333 0.0
Cd351 Cd 0.48726 0.45207 0.14557 0.0
Cd352 Cd 0.45199 0.49291 0.16031 0.0
O353 O 0.48656 0.52011 0.1557 0.0
O354 O 0.51431 0.41924 0.14982 0.0
O355 O 0.49078 0.43806 0.18604 0.0
C356 C 0.50932 0.41998 0.17679 0.0
C357 C 0.41822 0.48606 0.19582 0.0
C358 C 0.50757 0.51299 0.14004 0.0
C359 C 0.43661 0.46017 0.10893 0.0
O360 O 0.43411 0.48348 0.12219 0.0
O361 O 0.45477 0.44164 0.11689 0.0
O362 O 0.4204 0.51027 0.18296 0.0
O363 O 0.43792 0.46734 0.19137 0.0
O364 O 0.77963 0.28104 0.36726 0.0
Cd365 Cd 0.81559 0.25797 0.37878 0.0
Cd366 Cd 0.77421 0.2209 0.39215 0.0
O367 O 0.74607 0.25409 0.38663 0.0
O368 O 0.84754 0.28582 0.38475 0.0
O369 O 0.8293 0.25965 0.41944 0.0
C370 C 0.84699 0.27909 0.41134 0.0
C371 C 0.78035 0.18727 0.42728 0.0
C372 C 0.75347 0.27609 0.37256 0.0
C373 C 0.81052 0.2081 0.34093 0.0
O374 O 0.78756 0.20404 0.35448 0.0
O375 O 0.82782 0.22749 0.34866 0.0
O376 O 0.75832 0.18625 0.41092 0.0
O377 O 0.79587 0.21003 0.42686 0.0
O378 O 0.98978 0.53336 0.61816 0.0
Cd379 Cd 0.01525 0.56641 0.63243 0.0
Cd380 Cd 0.04716 0.52268 0.64759 0.0
O381 O 0.01138 0.49805 0.64043 0.0
O382 O 0.98969 0.60037 0.63817 0.0
O383 O 0.01109 0.57803 0.67361 0.0
C384 C 0.99358 0.59747 0.66518 0.0
C385 C 0.07895 0.52611 0.68488 0.0
C386 C 0.99167 0.507 0.62412 0.0
C387 C 0.0674 0.55631 0.59779 0.0
O388 O 0.06779 0.53263 0.61069 0.0
O389 O 0.04972 0.57563 0.6051 0.0
O390 O 0.07661 0.50264 0.67081 0.0
O391 O 0.06031 0.54587 0.68056 0.0
O392 O 0.73491 0.27809 0.63855 0.0
Cd393 Cd 0.7001 0.25473 0.62444 0.0
Cd394 Cd 0.74346 0.22022 0.61092 0.0
O395 O 0.7703 0.25404 0.61866 0.0
O396 O 0.66751 0.28215 0.61972 0.0
O397 O 0.68725 0.25927 0.58363 0.0
C398 C 0.66891 0.27763 0.59271 0.0
C399 C 0.73788 0.18717 0.57533 0.0
C400 C 0.76144 0.27466 0.6339 0.0
C401 C 0.70639 0.20345 0.66011 0.0
O402 O 0.73016 0.20163 0.64759 0.0
O403 O 0.68809 0.22188 0.65227 0.0
O404 O 0.75984 0.18609 0.59182 0.0
O405 O 0.72258 0.21008 0.57555 0.0
O406 O 0.99465 0.48386 0.88543 0.0
Cd407 Cd 0.01833 0.44823 0.87481 0.0
Cd408 Cd 0.05474 0.48877 0.85981 0.0
O409 O 0.02099 0.51668 0.86437 0.0
O410 O 0.99016 0.41645 0.86969 0.0
O411 O 0.0168 0.43322 0.83459 0.0
C412 C 0.99678 0.41631 0.84305 0.0
C413 C 0.08889 0.48312 0.82454 0.0
C414 C 0.99936 0.50982 0.87928 0.0
C415 C 0.06807 0.45596 0.91275 0.0
O416 O 0.07192 0.47842 0.89831 0.0
O417 O 0.04919 0.43789 0.90538 0.0
O418 O 0.08717 0.5066 0.83866 0.0
O419 O 0.0688 0.46457 0.82769 0.0
O420 O 0.78027 0.73766 0.13691 0.0
Cd421 Cd 0.8163 0.76092 0.12449 0.0
Cd422 Cd 0.77407 0.7981 0.1161 0.0
O423 O 0.74564 0.76556 0.12129 0.0
O424 O 0.84808 0.73286 0.11757 0.0
O425 O 0.82889 0.75863 0.08326 0.0
C426 C 0.84684 0.73928 0.09094 0.0
C427 C 0.78079 0.83243 0.08168 0.0
C428 C 0.75379 0.74282 0.13356 0.0
C429 C 0.8134 0.81074 0.1636 0.0
O430 O 0.78872 0.81361 0.15338 0.0
O431 O 0.83054 0.7925 0.15308 0.0
O432 O 0.7601 0.83448 0.0997 0.0
O433 O 0.79422 0.80844 0.0803 0.0
O434 O 0.52845 0.53038 0.38748 0.0
Cd435 Cd 0.50181 0.56336 0.37526 0.0
Cd436 Cd 0.47141 0.51945 0.35905 0.0
O437 O 0.50953 0.49707 0.36095 0.0
O438 O 0.52645 0.59807 0.37014 0.0
O439 O 0.50474 0.57644 0.33447 0.0
C440 C 0.52201 0.59596 0.34314 0.0
C441 C 0.43772 0.52484 0.3235 0.0
C442 C 0.52952 0.50533 0.37733 0.0
C443 C 0.45175 0.5503 0.41072 0.0
O444 O 0.45294 0.52659 0.39789 0.0
O445 O 0.46761 0.57091 0.40292 0.0
O446 O 0.44094 0.50055 0.33599 0.0
O447 O 0.45606 0.54468 0.32858 0.0
O448 O 0.87283 0.72948 0.73286 0.0
Cd449 Cd 0.88703 0.69683 0.75896 0.0
Cd450 Cd 0.9005 0.74066 0.79029 0.0
O451 O 0.89839 0.76325 0.75227 0.0
O452 O 0.89324 0.66263 0.73393 0.0
O453 O 0.92846 0.68571 0.75494 0.0
C454 C 0.92026 0.66594 0.73774 0.0
C455 C 0.93568 0.73586 0.82453 0.0
C456 C 0.88229 0.75483 0.73214 0.0
C457 C 0.85086 0.70741 0.80937 0.0
O458 O 0.86192 0.73201 0.80837 0.0
O459 O 0.86044 0.68746 0.79366 0.0
O460 O 0.92317 0.76005 0.82069 0.0
O461 O 0.93104 0.71587 0.80624 0.0
O462 O 0.52152 0.63228 1.00226 0.0
Cd463 Cd 0.55676 0.64399 0.02603 0.0
Cd464 Cd 0.51449 0.66043 0.06152 0.0
O465 O 0.48743 0.65235 0.02783 0.0
O466 O 0.5896 0.64518 0.99831 0.0
O467 O 0.57321 0.68351 0.02006 0.0
C468 C 0.5904 0.67239 1.00169 0.0
C469 C 0.517 0.70093 0.0907 0.0
C470 C 0.49526 0.63751 0.00654 0.0
C471 C 0.54788 0.60878 0.07843 0.0
O472 O 0.52582 0.6239 0.08195 0.0
O473 O 0.56581 0.61491 0.05891 0.0
O474 O 0.49578 0.68357 0.09204 0.0
O475 O 0.53571 0.69615 0.07104 0.0
O476 O 0.62925 0.28253 0.23837 0.0
Cd477 Cd 0.61665 0.31637 0.26374 0.0
Cd478 Cd 0.6062 0.27347 0.29912 0.0
O479 O 0.61181 0.24731 0.26425 0.0
O480 O 0.6096 0.34945 0.23762 0.0
O481 O 0.57545 0.32883 0.26279 0.0
C482 C 0.58298 0.34763 0.24418 0.0
C483 C 0.57189 0.27648 0.33435 0.0
C484 C 0.62539 0.25601 0.24242 0.0
C485 C 0.65644 0.30994 0.31227 0.0
O486 O 0.6443 0.28608 0.31553 0.0
O487 O 0.64693 0.32794 0.29434 0.0
O488 O 0.58703 0.25369 0.33162 0.0
O489 O 0.57321 0.29547 0.31448 0.0
O490 O 0.98764 0.38971 0.48611 0.0
Cd491 Cd 0.95118 0.3775 0.50814 0.0
Cd492 Cd 0.99195 0.36364 0.54567 0.0
O493 O 0.02104 0.37071 0.5134 0.0
O494 O 0.9199 0.37359 0.47925 0.0
O495 O 0.93658 0.3372 0.50402 0.0
C496 C 0.91963 0.34668 0.4846 0.0
C497 C 0.98429 0.32674 0.5774 0.0
C498 C 0.01381 0.38493 0.49146 0.0
C499 C 0.9551 0.41411 0.55909 0.0
O500 O 0.97802 0.40062 0.5633 0.0
O501 O 0.93825 0.40665 0.53925 0.0
O502 O 1.00582 0.34359 0.58044 0.0
O503 O 0.97018 0.32809 0.55384 0.0
O504 O 0.878 0.27975 0.77517 0.0
Cd505 Cd 0.89103 0.31464 0.7514 0.0
Cd506 Cd 0.90371 0.27289 0.71537 0.0
O507 O 0.89759 0.24558 0.74949 0.0
O508 O 0.89752 0.34641 0.77919 0.0
O509 O 0.93206 0.32763 0.75321 0.0
C510 C 0.92422 0.34528 0.77277 0.0
C511 C 0.93836 0.2767 0.68039 0.0
C512 C 0.88284 0.25345 0.77088 0.0
C513 C 0.85326 0.30904 0.70141 0.0
O514 O 0.86589 0.28543 0.6983 0.0
O515 O 0.86168 0.3268 0.72007 0.0
O516 O 0.92328 0.25383 0.6827 0.0
O517 O 0.93681 0.29533 0.70053 0.0
O518 O 0.98597 0.62867 0.0188 0.0
Cd519 Cd 0.95202 0.64151 0.99374 0.0
Cd520 Cd 0.99479 0.6563 0.96056 0.0
O521 O 0.0202 0.65173 0.99623 0.0
O522 O 0.91799 0.64483 0.01977 0.0
O523 O 0.9378 0.68193 0.99856 0.0
C524 C 0.91907 0.67204 0.01614 0.0
C525 C 0.98664 0.69145 0.92704 0.0
C526 C 0.01213 0.63541 0.01637 0.0
C527 C 0.9633 0.60536 0.94282 0.0
O528 O 0.98702 0.61816 0.94213 0.0
O529 O 0.94359 0.61357 0.95971 0.0
O530 O 0.01178 0.68068 0.93003 0.0
O531 O 0.96769 0.68551 0.94618 0.0
O532 O 0.64511 0.72819 0.27245 0.0
Cd533 Cd 0.6262 0.69675 0.24813 0.0
Cd534 Cd 0.6125 0.74154 0.2176 0.0
O535 O 0.62319 0.7651 0.25331 0.0
O536 O 0.62013 0.66279 0.27339 0.0
O537 O 0.58466 0.68726 0.25435 0.0
C538 C 0.59308 0.6669 0.2708 0.0
C539 C 0.57399 0.74297 0.18664 0.0
C540 C 0.64052 0.75486 0.27147 0.0
C541 C 0.65935 0.70502 0.19552 0.0
O542 O 0.64798 0.72948 0.19575 0.0
O543 O 0.65089 0.6858 0.21273 0.0
O544 O 0.59038 0.76482 0.18965 0.0
O545 O 0.57703 0.72201 0.20422 0.0
O546 O 0.53073 0.39512 0.52392 0.0
Cd547 Cd 0.56525 0.38112 0.49971 0.0
Cd548 Cd 0.52108 0.36798 0.46605 0.0
O549 O 0.49484 0.37591 0.50019 0.0
O550 O 0.5985 0.37646 0.52643 0.0
O551 O 0.5781 0.34027 0.50445 0.0
C552 C 0.59688 0.34937 0.52226 0.0
C553 C 0.52784 0.3297 0.43598 0.0
C554 C 0.50412 0.39058 0.52099 0.0
C555 C 0.55839 0.41581 0.44718 0.0
O556 O 0.53416 0.4041 0.44613 0.0
O557 O 0.57675 0.40759 0.46538 0.0
O558 O 0.50607 0.34624 0.43285 0.0
O559 O 0.54263 0.33221 0.45899 0.0
O560 O 0.73181 0.85837 0.72593 0.0
Cd561 Cd 0.75682 0.87579 0.69365 0.0
Cd562 Cd 0.78749 0.88774 0.7399 0.0
O563 O 0.7516 0.87862 0.76355 0.0
O564 O 0.73134 0.88192 0.65957 0.0
O565 O 0.75021 0.91733 0.68401 0.0
C566 C 0.73366 0.90896 0.66379 0.0
C567 C 0.81898 0.9253 0.73545 0.0
C568 C 0.73253 0.86266 0.75268 0.0
C569 C 0.80982 0.84225 0.70228 0.0
O570 O 0.80811 0.85194 0.72729 0.0
O571 O 0.79333 0.85171 0.68288 0.0
O572 O 0.82005 0.90876 0.75741 0.0
O573 O 0.79677 0.92368 0.71932 0.0
O574 O 0.24668 0.63962 0.27538 0.0
Cd575 Cd 0.26993 0.62678 0.311 0.0
Cd576 Cd 0.30571 0.61392 0.26846 0.0
O577 O 0.27266 0.62086 0.24078 0.0
O578 O 0.24218 0.6216 0.34351 0.0
O579 O 0.26584 0.58588 0.32415 0.0
C580 C 0.24719 0.59463 0.34233 0.0
C581 C 0.33651 0.57642 0.27652 0.0
C582 C 0.251 0.63502 0.24899 0.0
C583 C 0.32211 0.66267 0.30537 0.0
O584 O 0.32443 0.65056 0.28149 0.0
O585 O 0.30327 0.65438 0.32314 0.0
O586 O 0.34003 0.59295 0.25481 0.0
O587 O 0.31287 0.57845 0.2905 0.0
O588 O 0.62215 0.98986 0.52616 0.0
Cd589 Cd 0.63018 0.00774 0.56557 0.0
Cd590 Cd 0.65998 0.04287 0.53222 0.0
O591 O 0.65846 0.0092 0.50343 0.0
O592 O 0.63412 0.97775 0.59588 0.0
O593 O 0.67016 1.00438 0.58082 0.0
C594 C 0.66099 0.98374 0.59662 0.0
C595 C 0.69461 0.07853 0.53613 0.0
C596 C 0.63694 0.99262 0.50364 0.0
C597 C 0.60123 0.06085 0.55545 0.0
O598 O 0.62137 0.06256 0.53748 0.0
O599 O 0.60147 0.04097 0.5739 0.0
O600 O 0.68107 0.07462 0.51269 0.0
O601 O 0.69132 0.05991 0.55606 0.0
O602 O 0.28311 0.37224 0.7791 0.0
Cd603 Cd 0.25916 0.38629 0.81386 0.0
Cd604 Cd 0.22353 0.39787 0.77047 0.0
O605 O 0.2571 0.38893 0.74348 0.0
O606 O 0.2857 0.39361 0.84682 0.0
O607 O 0.26104 0.42767 0.82579 0.0
C608 C 0.27927 0.42024 0.84489 0.0
C609 C 0.19208 0.435 0.77671 0.0
C610 C 0.27876 0.37524 0.75248 0.0
C611 C 0.20777 0.34974 0.80939 0.0
O612 O 0.20484 0.36193 0.78559 0.0
O613 O 0.22709 0.35777 0.82661 0.0
O614 O 0.1892 0.4179 0.75539 0.0
O615 O 0.21568 0.43411 0.79079 0.0
O616 O 0.38753 0.52532 0.53129 0.0
Cd617 Cd 0.37381 0.50295 0.56688 0.0
Cd618 Cd 0.35941 0.46677 0.5262 0.0
O619 O 0.36485 0.50052 0.4985 0.0
O620 O 0.36818 0.53078 0.59885 0.0
O621 O 0.33282 0.50616 0.57985 0.0
C622 C 0.34131 0.52511 0.59783 0.0
C623 C 0.32543 0.43104 0.52901 0.0
C624 C 0.38125 0.52098 0.50532 0.0
C625 C 0.4109 0.45274 0.56086 0.0
O626 O 0.39767 0.44966 0.53762 0.0
O627 O 0.40267 0.47119 0.57895 0.0
O628 O 0.34031 0.43449 0.50618 0.0
O629 O 0.32666 0.45055 0.54832 0.0
O630 O 0.77231 0.14884 0.22331 0.0
Cd631 Cd 0.74646 0.13206 0.19207 0.0
Cd632 Cd 0.71683 0.11795 0.23694 0.0
O633 O 0.75408 0.12474 0.2593 0.0
O634 O 0.77113 0.12578 0.15751 0.0
O635 O 0.75275 0.09054 0.18282 0.0
C636 C 0.76919 0.09879 0.16237 0.0
C637 C 0.68493 0.08108 0.23122 0.0
C638 C 0.77227 0.14239 0.24957 0.0
C639 C 0.69413 0.16575 0.20429 0.0
O640 O 0.69616 0.15478 0.2288 0.0
O641 O 0.70996 0.15707 0.18391 0.0
O642 O 0.68859 0.09236 0.256 0.0
O643 O 0.70269 0.08775 0.21123 0.0
O644 O 0.62065 0.02174 0.97667 0.0
Cd645 Cd 0.63202 0.99885 0.94082 0.0
Cd646 Cd 0.64961 0.96362 0.9819 0.0
O647 O 0.64358 0.99713 0.00964 0.0
O648 O 0.63602 0.02681 0.90831 0.0
O649 O 0.67242 1.00348 0.92682 0.0
C650 C 0.66313 0.02232 0.90919 0.0
C651 C 0.68682 0.93395 0.97018 0.0
C652 C 0.62749 0.01783 1.00257 0.0
C653 C 0.59734 0.94652 0.94998 0.0
O654 O 0.61221 0.94408 0.97226 0.0
O655 O 0.60336 0.96553 0.93147 0.0
O656 O 0.67394 0.931 0.99433 0.0
O657 O 0.68179 0.95655 0.95538 0.0
O658 O 0.89636 0.9928 0.48499 0.0
Cd659 Cd 0.88969 0.01138 0.44567 0.0
Cd660 Cd 0.85931 0.04575 0.47798 0.0
O661 O 0.85917 0.01177 0.50651 0.0
O662 O 0.88656 0.98173 0.41492 0.0
O663 O 0.85004 0.00774 0.42976 0.0
C664 C 0.85961 0.98735 0.41397 0.0
C665 C 0.82396 0.07968 0.46909 0.0
C666 C 0.88056 0.99503 0.50686 0.0
C667 C 0.91844 0.06453 0.45779 0.0
O668 O 0.89803 0.06577 0.4755 0.0
O669 O 0.9184 0.04516 0.43881 0.0
O670 O 0.83538 0.07746 0.49387 0.0
O671 O 0.8301 0.06053 0.4504 0.0
C672 C 0.15254 0.16639 0.46851 0.0
C673 C 0.12994 0.17864 0.48462 0.0
C674 C 0.1419 0.22565 0.46412 0.0
C675 C 0.16192 0.21275 0.44548 0.0
N676 N 0.18626 0.17049 0.4295 0.0
N677 N 0.11529 0.22204 0.50807 0.0
C678 C 0.16722 0.18302 0.4476 0.0
C679 C 0.12796 0.20894 0.48544 0.0
N680 N 0.16215 0.13984 0.47548 0.0
N681 N 0.13519 0.25375 0.46072 0.0
H682 H 0.10956 0.2112 0.52651 0.0
H683 H 0.11495 0.24402 0.51082 0.0
H684 H 0.14486 0.26675 0.44553 0.0
H685 H 0.11825 0.26353 0.47118 0.0
H686 H 0.17991 0.13032 0.46627 0.0
H687 H 0.15508 0.12902 0.49351 0.0
H688 H 0.18814 0.14856 0.42709 0.0
H689 H 0.19919 0.18199 0.41559 0.0
C690 C 0.07414 0.89448 0.72326 0.0
C691 C 0.07313 0.86442 0.72021 0.0
C692 C 0.0371 0.86937 0.68239 0.0
C693 C 0.03785 0.89941 0.68569 0.0
N694 N 0.05462 0.9408 0.71088 0.0
N695 N 0.05192 0.82271 0.6992 0.0
C696 C 0.05557 0.912 0.70673 0.0
C697 C 0.05396 0.85172 0.70054 0.0
N698 N 0.09332 0.90626 0.74168 0.0
N699 N 0.02059 0.85778 0.66145 0.0
H700 H 0.06512 0.80901 0.71059 0.0
H701 H 0.03627 0.81189 0.68794 0.0
H702 H 1.00663 0.86978 0.64908 0.0
H703 H 0.02141 0.83655 0.65531 0.0
H704 H 0.0979 0.92787 0.74272 0.0
H705 H 0.10581 0.89415 0.75544 0.0
H706 H 0.06429 0.9512 0.7278 0.0
H707 H 0.04288 0.95458 0.69808 0.0
C708 C 0.40937 0.79779 0.96141 0.0
C709 C 0.3977 0.81715 0.98151 0.0
C710 C 0.34942 0.80461 0.96559 0.0
C711 C 0.36105 0.78425 0.9465 0.0
N712 N 0.40155 0.75695 0.93087 0.0
N713 N 0.35674 0.83443 0.00706 0.0
C714 C 0.39089 0.77948 0.94584 0.0
C715 C 0.36773 0.81916 0.9849 0.0
N716 N 0.43799 0.79791 0.95598 0.0
N717 N 0.3211 0.81122 0.96433 0.0
H718 H 0.36953 0.84507 0.02173 0.0
H719 H 0.33524 0.83432 0.01252 0.0
H720 H 0.30696 0.80134 0.95043 0.0
H721 H 0.31202 0.82816 0.97534 0.0
H722 H 0.44726 0.78671 0.93927 0.0
H723 H 0.45232 0.81107 0.96658 0.0
H724 H 0.42273 0.75049 0.93197 0.0
H725 H 0.38864 0.74297 0.91947 0.0
C726 C 0.45354 0.15821 0.20091 0.0
C727 C 0.43123 0.14417 0.21583 0.0
C728 C 0.44999 0.09773 0.20044 0.0
C729 C 0.47085 0.11187 0.18361 0.0
N730 N 0.49205 0.15521 0.16634 0.0
N731 N 0.40702 0.10097 0.22919 0.0
C732 C 0.47255 0.14204 0.18353 0.0
C733 C 0.42922 0.11401 0.2155 0.0
N734 N 0.45656 0.18704 0.20348 0.0
N735 N 0.45007 0.06865 0.20204 0.0
H736 H 0.39251 0.11192 0.24193 0.0
H737 H 0.40197 0.07954 0.227 0.0
H738 H 0.4637 0.05584 0.1901 0.0
H739 H 0.43782 0.05699 0.21635 0.0
H740 H 0.47399 0.19839 0.19584 0.0
H741 H 0.44231 0.19972 0.21483 0.0
H742 H 0.49246 0.177 0.16249 0.0
H743 H 0.50728 0.14406 0.15463 0.0
C744 C 0.16692 0.8091 0.04947 0.0
C745 C 0.15488 0.78859 0.06821 0.0
C746 C 0.1068 0.80453 0.05482 0.0
C747 C 0.11882 0.82414 0.03512 0.0
N748 N 0.15988 0.84129 0.00963 0.0
N749 N 0.11368 0.76289 0.08469 0.0
C750 C 0.14878 0.82528 0.03125 0.0
C751 C 0.12488 0.78517 0.06967 0.0
N752 N 0.19559 0.81414 0.05001 0.0
N753 N 0.07821 0.80529 0.06037 0.0
H754 H 0.12628 0.74831 0.0957 0.0
H755 H 0.09223 0.75731 0.08418 0.0
H756 H 0.06422 0.81901 0.04997 0.0
H757 H 0.06863 0.79395 0.07682 0.0
H758 H 0.20526 0.83102 0.03939 0.0
H759 H 0.20962 0.80277 0.06288 0.0
H760 H 0.18123 0.8407 1.00365 0.0
H761 H 0.14724 0.85333 0.99592 0.0
C762 C 0.46 0.91239 0.30274 0.0
C763 C 0.47675 0.90047 0.32497 0.0
C764 C 0.46157 0.85228 0.31061 0.0
C765 C 0.44349 0.86431 0.2895 0.0
N766 N 0.4244 0.90548 0.26578 0.0
N767 N 0.49308 0.85951 0.35103 0.0
C768 C 0.44251 0.8943 0.28562 0.0
C769 C 0.47747 0.8705 0.32907 0.0
N770 N 0.46083 0.94112 0.29802 0.0
N771 N 0.46353 0.82332 0.313 0.0
H772 H 0.50649 0.87185 0.36365 0.0
H773 H 0.49212 0.83844 0.35771 0.0
H774 H 0.45086 0.80927 0.30149 0.0
H775 H 0.47855 0.81285 0.32539 0.0
H776 H 0.45198 0.95109 0.28038 0.0
H777 H 0.4716 0.9553 0.31119 0.0
H778 H 0.41978 0.92702 0.26383 0.0
H779 H 0.41285 0.89294 0.25162 0.0
C780 C 0.37937 0.22219 0.55183 0.0
C781 C 0.36074 0.21045 0.5725 0.0
C782 C 0.36811 0.16284 0.5515 0.0
C783 C 0.38939 0.17427 0.5332 0.0
N784 N 0.40091 0.21608 0.50567 0.0
N785 N 0.33614 0.1695 0.5916 0.0
C786 C 0.39102 0.20436 0.53032 0.0
C787 C 0.35474 0.18071 0.57219 0.0
N788 N 0.38705 0.2502 0.55336 0.0
N789 N 0.35832 0.13586 0.54683 0.0
H790 H 0.3235 0.18192 0.60494 0.0
H791 H 0.33398 0.14779 0.59541 0.0
H792 H 0.36407 0.12416 0.52891 0.0
H793 H 0.34157 0.12656 0.55795 0.0
H794 H 0.40311 0.25901 0.54081 0.0
H795 H 0.3794 0.26399 0.56896 0.0
H796 H 0.40037 0.23786 0.50162 0.0
H797 H 0.40475 0.20397 0.48754 0.0
C798 C 0.05219 0.16478 0.80914 0.0
C799 C 0.07075 0.15251 0.78864 0.0
C800 C 0.05521 0.1047 0.80315 0.0
C801 C 0.03583 0.11701 0.82285 0.0
N802 N 0.01138 0.1585 0.8403 0.0
N803 N 0.08541 0.11148 0.76175 0.0
C804 C 0.03295 0.14701 0.8245 0.0
C805 C 0.07085 0.12264 0.78431 0.0
N806 N 0.05397 0.1932 0.81509 0.0
N807 N 0.05988 0.07598 0.80342 0.0
H808 H 0.09689 0.12404 0.74745 0.0
H809 H 0.08396 0.09025 0.75563 0.0
H810 H 0.04902 0.06203 0.81685 0.0
H811 H 0.07613 0.06617 0.79196 0.0
H812 H 0.04344 0.20275 0.83208 0.0
H813 H 0.06775 0.207 0.80447 0.0
H814 H 1.00623 0.18004 0.84006 0.0
H815 H 0.99685 0.14607 0.85165 0.0
C816 C 0.22343 0.44154 0.12886 0.0
C817 C 0.21761 0.44268 0.15846 0.0
C818 C 0.18388 0.48197 0.15005 0.0
C819 C 0.18718 0.47848 0.12026 0.0
N820 N 0.20756 0.45242 0.08101 0.0
N821 N 0.18952 0.46156 0.19709 0.0
C822 C 0.20645 0.45773 0.10956 0.0
C823 C 0.19723 0.46241 0.16906 0.0
N824 N 0.24576 0.42555 0.11923 0.0
N825 N 0.16855 0.5045 0.16022 0.0
H826 H 0.19855 0.44754 0.21171 0.0
H827 H 0.17251 0.47306 0.20543 0.0
H828 H 0.15869 0.51929 0.14694 0.0
H829 H 0.16782 0.51008 0.18162 0.0
H830 H 0.25311 0.42618 0.09834 0.0
H831 H 0.25866 0.41356 0.13272 0.0
H832 H 0.21863 0.43537 0.07221 0.0
H833 H 0.19556 0.46366 0.06614 0.0
C834 C 0.70016 0.05691 0.84542 0.0
C835 C 0.72044 0.07457 0.85924 0.0
C836 C 0.7023 0.05881 0.90571 0.0
C837 C 0.68329 0.03976 0.89191 0.0
N838 N 0.66743 0.01701 0.84894 0.0
N839 N 0.74439 0.08864 0.90217 0.0
C840 C 0.68317 0.03777 0.86182 0.0
C841 C 0.72253 0.07444 0.88931 0.0
N842 N 0.6962 0.0593 0.81673 0.0
N843 N 0.70018 0.06296 0.93441 0.0
H844 H 0.75957 0.10025 0.89082 0.0
H845 H 0.74901 0.08689 0.92374 0.0
H846 H 0.6856 0.05215 0.94721 0.0
H847 H 0.71115 0.07884 0.94523 0.0
H848 H 0.67958 0.04949 0.80589 0.0
H849 H 0.70815 0.07297 0.80392 0.0
H850 H 0.6688 0.01235 0.82735 0.0
H851 H 0.65474 1.00272 0.86027 0.0
C852 C 0.80159 0.93355 0.39414 0.0
C853 C 0.8046 0.93262 0.36414 0.0
C854 C 0.84085 0.97052 0.36661 0.0
C855 C 0.83985 0.9694 0.39674 0.0
N856 N 0.82182 0.94745 0.43952 0.0
N857 N 0.82958 0.94758 0.32181 0.0
C858 C 0.82077 0.95038 0.41061 0.0
C859 C 0.82478 0.95055 0.35034 0.0
N860 N 0.77985 0.91892 0.40685 0.0
N861 N 0.85662 0.99121 0.35354 0.0
H862 H 0.81832 0.93335 0.3091 0.0
H863 H 0.84622 0.95756 0.31107 0.0
H864 H 0.86873 1.006 0.3648 0.0
H865 H 0.85588 0.99528 0.3318 0.0
H866 H 0.77448 0.92104 0.42821 0.0
H867 H 0.76552 0.90641 0.39544 0.0
H868 H 0.81092 0.93169 0.45065 0.0
H869 H 0.83537 0.9594 0.45236 0.0
C870 C 0.82458 0.04143 0.14508 0.0
C871 C 0.82443 0.04212 0.11494 0.0
C872 C 0.78454 0.07615 0.11621 0.0
C873 C 0.78707 0.07806 0.14619 0.0
N874 N 0.81261 0.06561 0.18897 0.0
N875 N 0.80703 0.06347 0.07158 0.0
C876 C 0.8078 0.06137 0.16063 0.0
C877 C 0.805 0.06023 0.1004 0.0
N878 N 0.84021 0.02117 0.1589 0.0
N879 N 0.7621 0.08896 0.10288 0.0
H880 H 0.8219 0.05268 0.05915 0.0
H881 H 0.79567 0.07874 0.06025 0.0
H882 H 0.74664 0.10057 0.1138 0.0
H883 H 0.75732 0.08585 0.0815 0.0
H884 H 0.83884 0.01757 0.18071 0.0
H885 H 0.85253 1.00611 0.14821 0.0
H886 H 0.82957 0.05646 0.19989 0.0
H887 H 0.80127 0.08026 0.20117 0.0
C888 C 0.30611 0.55582 0.66429 0.0
C889 C 0.28562 0.57447 0.65216 0.0
C890 C 0.3012 0.56033 0.60424 0.0
C891 C 0.32081 0.54075 0.61638 0.0
N892 N 0.33812 0.51577 0.65757 0.0
N893 N 0.2598 0.59061 0.61105 0.0
C894 C 0.32212 0.5373 0.64633 0.0
C895 C 0.28203 0.57556 0.62224 0.0
N896 N 0.31124 0.55671 0.69288 0.0
N897 N 0.30178 0.56539 0.57562 0.0
H898 H 0.24543 0.60198 0.6236 0.0
H899 H 0.25408 0.58986 0.5897 0.0
H900 H 0.31532 0.55464 0.5617 0.0
H901 H 0.29043 0.58172 0.56587 0.0
H902 H 0.32814 0.54617 0.70257 0.0
H903 H 0.29995 0.56979 0.7068 0.0
H904 H 0.33765 0.51011 0.67897 0.0
H905 H 0.35001 0.50181 0.64505 0.0
C906 C 0.21159 0.55471 0.34812 0.0
C907 C 0.23101 0.57423 0.36063 0.0
C908 C 0.21538 0.55897 0.40824 0.0
C909 C 0.19698 0.53848 0.39573 0.0
N910 N 0.18158 0.513 0.35416 0.0
N911 N 0.25552 0.59105 0.40225 0.0
C912 C 0.19629 0.53522 0.36576 0.0
C913 C 0.23411 0.57519 0.39062 0.0
N914 N 0.2067 0.55568 0.31949 0.0
N915 N 0.214 0.56395 0.43684 0.0
H916 H 0.26962 0.60309 0.39 0.0
H917 H 0.26094 0.59029 0.42368 0.0
H918 H 0.20071 0.55258 0.45052 0.0
H919 H 0.22434 0.58082 0.44675 0.0
H920 H 0.19048 0.54437 0.30953 0.0
H921 H 0.21736 0.56956 0.30582 0.0
H922 H 0.18265 0.50755 0.33275 0.0
H923 H 0.17025 0.49835 0.36645 0.0
C924 C 0.32442 0.4829 0.87104 0.0
C925 C 0.32177 0.47968 0.90093 0.0
C926 C 0.28755 0.44066 0.89366 0.0
C927 C 0.29281 0.44168 0.86396 0.0
N928 N 0.31861 0.46174 0.82435 0.0
N929 N 0.30364 0.45306 0.94099 0.0
C930 C 0.31173 0.46241 0.85259 0.0
C931 C 0.30391 0.45804 0.91234 0.0
N932 N 0.33848 0.506 0.86027 0.0
N933 N 0.26632 0.42359 0.90397 0.0
H934 H 0.31526 0.46514 0.95547 0.0
H935 H 0.29374 0.43551 0.95025 0.0
H936 H 0.25388 0.41067 0.89093 0.0
H937 H 0.25928 0.42416 0.92496 0.0
H938 H 0.33867 0.5113 0.83878 0.0
H939 H 0.34787 0.5214 0.87317 0.0
H940 H 0.33468 0.47409 0.81535 0.0
H941 H 0.30979 0.4472 0.81015 0.0
C942 C 0.59671 0.70704 0.96115 0.0
C943 C 0.60903 0.69038 0.98317 0.0
C944 C 0.65692 0.70224 0.96526 0.0
C945 C 0.64458 0.71965 0.94382 0.0
N946 N 0.60331 0.7432 0.92475 0.0
N947 N 0.65051 0.67621 0.00955 0.0
C948 C 0.61462 0.7234 0.94282 0.0
C949 C 0.63907 0.68923 0.98622 0.0
N950 N 0.56792 0.70617 0.95685 0.0
N951 N 0.68557 0.6971 0.96484 0.0
H952 H 0.63803 0.66647 0.02515 0.0
H953 H 0.67203 0.67709 0.01474 0.0
H954 H 0.69934 0.70646 0.95014 0.0
H955 H 0.6955 0.68208 0.97772 0.0
H956 H 0.55796 0.715 0.93917 0.0
H957 H 0.55401 0.69478 0.96989 0.0
H958 H 0.58199 0.74926 0.92505 0.0
H959 H 0.61578 0.75549 0.91107 0.0
C960 C 0.54236 0.35363 0.20975 0.0
C961 C 0.56163 0.36588 0.22952 0.0
C962 C 0.5457 0.41373 0.21564 0.0
C963 C 0.52572 0.40146 0.19659 0.0
N964 N 0.50085 0.36003 0.17968 0.0
N965 N 0.57761 0.40686 0.25565 0.0
C966 C 0.52279 0.37146 0.19493 0.0
C967 C 0.56204 0.39575 0.23379 0.0
N968 N 0.54369 0.32514 0.20406 0.0
N969 N 0.55018 0.44248 0.21537 0.0
H970 H 0.58975 0.39427 0.26931 0.0
H971 H 0.5765 0.42809 0.26187 0.0
H972 H 0.53872 0.45644 0.20251 0.0
H973 H 0.56673 0.45236 0.22626 0.0
H974 H 0.53264 0.31549 0.1875 0.0
H975 H 0.5575 0.3113 0.21454 0.0
H976 H 0.49567 0.3385 0.17998 0.0
H977 H 0.48613 0.3725 0.16869 0.0
C978 C 0.87111 0.32848 0.47123 0.0
C979 C 0.90111 0.32718 0.4679 0.0
C980 C 0.89545 0.29057 0.43097 0.0
C981 C 0.86548 0.29427 0.43208 0.0
N982 N 0.82456 0.31878 0.45111 0.0
N983 N 0.94215 0.3092 0.4428 0.0
C984 C 0.85321 0.31361 0.45181 0.0
C985 C 0.9134 0.30863 0.44743 0.0
N986 N 0.85976 0.34344 0.49344 0.0
N987 N 0.90669 0.26926 0.41468 0.0
H988 H 0.95605 0.32183 0.45458 0.0
H989 H 0.95208 0.29877 0.42598 0.0
H990 H 0.89415 0.2557 0.4024 0.0
H991 H 0.92806 0.26339 0.41519 0.0
H992 H 0.83829 0.34285 0.49896 0.0
H993 H 0.87227 0.35457 0.50798 0.0
H994 H 0.81474 0.33499 0.46256 0.0
H995 H 0.81069 0.30821 0.43743 0.0
C996 C 0.9597 0.66187 0.70133 0.0
C997 C 0.9412 0.64855 0.7213 0.0
C998 C 0.95729 0.6016 0.70472 0.0
C999 C 0.97694 0.61494 0.68588 0.0
N1000 N 1.00105 0.65751 0.67058 0.0
N1001 N 0.92673 0.60613 0.74616 0.0
C1002 C 0.97939 0.64503 0.68551 0.0
C1003 C 0.94133 0.6185 0.72424 0.0
N1004 N 0.95745 0.69045 0.6963 0.0
N1005 N 0.95269 0.57292 0.70298 0.0
H1006 H 0.91502 0.61787 0.76092 0.0
H1007 H 0.92839 0.58464 0.75133 0.0
H1008 H 0.96357 0.55973 0.68886 0.0
H1009 H 0.93635 0.56252 0.7138 0.0
H1010 H 0.96798 0.70076 0.67973 0.0
H1011 H 0.94321 0.70359 0.70709 0.0
H1012 H 1.00588 0.6791 0.67187 0.0
H1013 H 0.01594 0.64582 0.65897 0.0
C1014 C 0.64538 0.33069 0.53556 0.0
C1015 C 0.61532 0.32927 0.53852 0.0
C1016 C 0.62066 0.2904 0.57325 0.0
C1017 C 0.65064 0.29413 0.57271 0.0
N1018 N 0.69164 0.32015 0.5559 0.0
N1019 N 0.57419 0.31032 0.56289 0.0
C1020 C 0.66307 0.31478 0.5544 0.0
C1021 C 0.60288 0.30964 0.55794 0.0
N1022 N 0.65702 0.34661 0.51416 0.0
N1023 N 0.60922 0.26799 0.58788 0.0
H1024 H 0.5604 0.32416 0.5524 0.0
H1025 H 0.56429 0.29887 0.57909 0.0
H1026 H 0.62162 0.25352 0.59927 0.0
H1027 H 0.58786 0.2622 0.58666 0.0
H1028 H 0.67857 0.3462 0.50891 0.0
H1029 H 0.64474 0.35833 0.49988 0.0
H1030 H 0.70145 0.33717 0.54562 0.0
H1031 H 0.70537 0.30893 0.56923 0.0
C1032 C 0.94389 0.39344 0.78567 0.0
C1033 C 0.94526 0.36334 0.78825 0.0
C1034 C 0.98229 0.36793 0.82505 0.0
C1035 C 0.98073 0.39803 0.82266 0.0
N1036 N 0.96276 0.43978 0.79881 0.0
N1037 N 0.96772 0.32145 0.80761 0.0
C1038 C 0.96245 0.41086 0.80224 0.0
C1039 C 0.96521 0.35046 0.807 0.0
N1040 N 0.92432 0.40532 0.76769 0.0
N1041 N 0.99978 0.35611 0.84508 0.0
H1042 H 0.95447 0.30786 0.79619 0.0
H1043 H 0.98376 0.31057 0.81826 0.0
H1044 H 0.01401 0.36807 0.85718 0.0
H1045 H 0.99972 0.3347 0.85064 0.0
H1046 H 0.91943 0.42688 0.76705 0.0
H1047 H 0.91193 0.39333 0.75377 0.0
H1048 H 0.95257 0.45047 0.78235 0.0
H1049 H 0.97446 0.45346 0.81171 0.0
C1050 C 0.85275 0.70518 0.04984 0.0
C1051 C 0.86515 0.72417 0.0698 0.0
C1052 C 0.91295 0.7094 0.05418 0.0
C1053 C 0.90057 0.69136 0.03332 0.0
N1054 N 0.85905 0.67609 0.0076 0.0
N1055 N 0.90664 0.74869 0.08709 0.0
C1056 C 0.87054 0.69046 0.03007 0.0
C1057 C 0.89515 0.72756 0.07078 0.0
N1058 N 0.82407 0.70019 0.0506 0.0
N1059 N 0.9416 0.70816 0.05919 0.0
H1060 H 0.89425 0.76238 0.09943 0.0
H1061 H 0.92806 0.75436 0.08642 0.0
H1062 H 0.95543 0.6952 0.04765 0.0
H1063 H 0.95141 0.7182 0.07628 0.0
H1064 H 0.81415 0.68421 0.03895 0.0
H1065 H 0.81031 0.71062 0.06455 0.0
H1066 H 0.83759 0.67702 1.00219 0.0
H1067 H 0.87146 0.66518 0.99277 0.0
C1068 C 0.5354 0.64428 0.32396 0.0
C1069 C 0.53799 0.61423 0.32263 0.0
C1070 C 0.57224 0.61918 0.28327 0.0
C1071 C 0.57246 0.6491 0.28718 0.0
N1072 N 0.55681 0.69014 0.3138 0.0
N1073 N 0.56206 0.57294 0.30367 0.0
C1074 C 0.55454 0.66172 0.30806 0.0
C1075 C 0.5571 0.6016 0.30283 0.0
N1076 N 0.51416 0.65616 0.33991 0.0
N1077 N 0.58595 0.60758 0.2604 0.0
H1078 H 0.5519 0.55923 0.31788 0.0
H1079 H 0.57812 0.56304 0.29202 0.0
H1080 H 0.59698 0.61984 0.2455 0.0
H1081 H 0.58408 0.58627 0.25466 0.0
H1082 H 0.50922 0.67775 0.33944 0.0
H1083 H 0.49968 0.64402 0.35161 0.0
H1084 H 0.54674 0.6999 0.33095 0.0
H1085 H 0.57063 0.70367 0.3029 0.0
C1086 C 0.69464 0.94582 0.6603 0.0
C1087 C 0.71645 0.92967 0.64685 0.0
C1088 C 0.70168 0.94875 0.60039 0.0
C1089 C 0.68101 0.96618 0.61403 0.0
N1090 N 0.66128 0.98523 0.65726 0.0
N1091 N 0.74419 0.91964 0.60497 0.0
C1092 C 0.67852 0.96584 0.6441 0.0
C1093 C 0.72096 0.93228 0.61712 0.0
N1094 N 0.68836 0.94109 0.6883 0.0
N1095 N 0.70206 0.94685 0.57138 0.0
H1096 H 0.75872 0.90751 0.61656 0.0
H1097 H 0.75049 0.9232 0.58403 0.0
H1098 H 0.68836 0.95843 0.55833 0.0
H1099 H 0.7143 0.93211 0.56028 0.0
H1100 H 0.67065 0.94969 0.69849 0.0
H1101 H 0.69949 0.92664 0.70093 0.0
H1102 H 0.66082 0.98824 0.67918 0.0
H1103 H 0.64924 1.00015 0.64609 0.0
C1104 C 0.20561 0.38158 0.32069 0.0
C1105 C 0.20556 0.37212 0.29214 0.0
C1106 C 0.19211 0.32413 0.30767 0.0
C1107 C 0.19809 0.33202 0.33612 0.0
N1108 N 0.20362 0.36903 0.37097 0.0
N1109 N 0.18126 0.34055 0.26001 0.0
C1110 C 0.20208 0.36125 0.34303 0.0
C1111 C 0.1931 0.3453 0.28602 0.0
N1112 N 0.20825 0.41001 0.32602 0.0
N1113 N 0.18755 0.29626 0.30091 0.0
H1114 H 0.17894 0.35683 0.24509 0.0
H1115 H 0.17023 0.32201 0.25491 0.0
H1116 H 0.186 0.28025 0.31617 0.0
H1117 H 0.18679 0.28889 0.28005 0.0
H1118 H 0.2081 0.41906 0.34616 0.0
H1119 H 0.20823 0.42496 0.30958 0.0
H1120 H 0.20875 0.38933 0.37806 0.0
H1121 H 0.19951 0.35467 0.38739 0.0
C1122 C 0.90682 1.00565 0.55141 0.0
C1123 C 0.89269 0.98521 0.53441 0.0
C1124 C 0.91252 0.94728 0.56489 0.0
C1125 C 0.92954 0.96784 0.57902 0.0
N1126 N 0.9495 0.01507 0.57792 0.0
N1127 N 0.88415 0.93599 0.52308 0.0
C1128 C 0.92853 0.99657 0.57002 0.0
C1129 C 0.89622 0.95575 0.54054 0.0
N1130 N 0.90002 0.03387 0.54982 0.0
N1131 N 0.91117 0.92014 0.57512 0.0
H1132 H 0.87099 0.94166 0.50613 0.0
H1133 H 0.88832 0.91428 0.52461 0.0
H1134 H 0.92281 0.91348 0.59277 0.0
H1135 H 0.89706 0.90493 0.56737 0.0
H1136 H 0.90787 0.04878 0.56421 0.0
H1137 H 0.88479 0.04217 0.53609 0.0
H1138 H 0.95076 0.03569 0.57009 0.0
H1139 H 0.96752 0.00876 0.58923 0.0
C1140 C 0.30177 0.69195 0.8063 0.0
C1141 C 0.30507 0.67835 0.83285 0.0
C1142 C 0.29208 0.63284 0.81088 0.0
C1143 C 0.2822 0.64776 0.78656 0.0
N1144 N 0.27416 0.6933 0.76327 0.0
N1145 N 0.30489 0.63558 0.86083 0.0
C1146 C 0.2867 0.67773 0.78441 0.0
C1147 C 0.30116 0.64854 0.83511 0.0
N1148 N 0.31172 0.71898 0.8025 0.0
N1149 N 0.29281 0.60379 0.81071 0.0
H1150 H 0.31292 0.64651 0.8784 0.0
H1151 H 0.29905 0.6146 0.86496 0.0
H1152 H 0.2868 0.59189 0.79299 0.0
H1153 H 0.30182 0.59172 0.82694 0.0
H1154 H 0.31191 0.72914 0.7828 0.0
H1155 H 0.32261 0.72994 0.81837 0.0
H1156 H 0.27442 0.71546 0.76279 0.0
H1157 H 0.26076 0.68476 0.7479 0.0
C1158 C 0.62655 0.0469 0.04772 0.0
C1159 C 0.61176 0.03377 0.02497 0.0
C1160 C 0.5664 0.04923 0.04589 0.0
C1161 C 0.58074 0.05676 0.07111 0.0
N1162 N 0.6245 0.06344 0.09663 0.0
N1163 N 0.56659 0.01764 1.00567 0.0
C1164 C 0.61094 0.0562 0.07203 0.0
C1165 C 0.58138 0.0341 0.02455 0.0
N1166 N 0.65534 0.0506 0.04599 0.0
N1167 N 0.53812 0.05524 0.04293 0.0
H1168 H 0.57622 1.00389 0.99123 0.0
H1169 H 0.54459 0.01492 0.00663 0.0
H1170 H 0.52652 0.06609 0.05842 0.0
H1171 H 0.5271 0.05224 0.02396 0.0
H1172 H 0.66704 0.0621 0.06084 0.0
H1173 H 0.66715 0.04426 0.02828 0.0
H1174 H 0.64616 0.06021 0.10007 0.0
H1175 H 0.61354 0.0717 0.11411 0.0
C1176 C 0.21481 0.69449 0.20697 0.0
C1177 C 0.20975 0.68025 0.18105 0.0
C1178 C 0.22194 0.63487 0.204 0.0
C1179 C 0.2333 0.65008 0.22743 0.0
N1180 N 0.244 0.69579 0.24901 0.0
N1181 N 0.2068 0.63665 0.15465 0.0
C1182 C 0.23012 0.68024 0.22875 0.0
C1183 C 0.21234 0.65022 0.17969 0.0
N1184 N 0.20614 0.722 0.21035 0.0
N1185 N 0.22027 0.60588 0.2051 0.0
H1186 H 0.19827 0.64733 0.13715 0.0
H1187 H 0.21161 0.61535 0.15093 0.0
H1188 H 0.22673 0.59425 0.22287 0.0
H1189 H 0.21015 0.59366 0.18968 0.0
H1190 H 0.20726 0.73269 0.22971 0.0
H1191 H 0.19491 0.73297 0.19472 0.0
H1192 H 0.24485 0.71794 0.24874 0.0
H1193 H 0.25732 0.68701 0.26433 0.0
C1194 C 0.60955 1.0046 0.45994 0.0
C1195 C 0.62355 0.98355 0.4764 0.0
C1196 C 0.60199 0.94658 0.44596 0.0
C1197 C 0.58521 0.96776 0.43244 0.0
N1198 N 0.56668 0.01554 0.4342 0.0
N1199 N 0.63099 0.93393 0.48695 0.0
C1200 C 0.5872 0.99635 0.4417 0.0
C1201 C 0.61904 0.95427 0.47003 0.0
N1202 N 0.61716 0.03261 0.46162 0.0
N1203 N 0.60246 0.91958 0.43534 0.0
H1204 H 0.64472 0.93898 0.50363 0.0
H1205 H 0.62618 0.91237 0.48527 0.0
H1206 H 0.59028 0.91348 0.41787 0.0
H1207 H 0.61638 0.90392 0.44257 0.0
H1208 H 0.60946 0.04789 0.44749 0.0
H1209 H 0.63279 0.04041 0.47515 0.0
H1210 H 0.56624 0.03625 0.44184 0.0
H1211 H 0.54827 0.00978 0.42323 0.0
C1212 C 0.31877 0.35423 0.68513 0.0
C1213 C 0.3186 0.32413 0.68766 0.0
C1214 C 0.29651 0.32779 0.73461 0.0
C1215 C 0.29585 0.35804 0.73196 0.0
N1216 N 0.31274 0.40017 0.70819 0.0
N1217 N 0.31683 0.28325 0.71827 0.0
C1218 C 0.30922 0.37132 0.70834 0.0
C1219 C 0.31111 0.31138 0.71382 0.0
N1220 N 0.32683 0.36623 0.65992 0.0
N1221 N 0.28095 0.31438 0.75528 0.0
H1222 H 0.3274 0.27079 0.70328 0.0
H1223 H 0.31397 0.27324 0.73785 0.0
H1224 H 0.26838 0.325 0.7701 0.0
H1225 H 0.27808 0.29241 0.75599 0.0
H1226 H 0.32428 0.38771 0.65512 0.0
H1227 H 0.3353 0.35412 0.64334 0.0
H1228 H 0.3243 0.41103 0.6927 0.0
H1229 H 0.30609 0.413 0.72503 0.0
C1230 C 0.93171 0.03827 0.98606 0.0
C1231 C 0.9014 0.04034 0.98621 0.0
C1232 C 0.90329 0.06464 0.93998 0.0
C1233 C 0.93337 0.06219 0.94017 0.0
N1234 N 0.97611 0.05679 0.96753 0.0
N1235 N 0.85889 0.06117 0.96663 0.0
C1236 C 0.94745 0.05283 0.96488 0.0
C1237 C 0.88732 0.05551 0.96422 0.0
N1238 N 0.94549 0.02011 1.00415 0.0
N1239 N 0.89019 0.07502 0.91627 0.0
H1240 H 0.84695 0.0549 0.98429 0.0
H1241 H 0.84769 0.07392 0.95243 0.0
H1242 H 0.90177 0.08306 0.89907 0.0
H1243 H 0.86823 0.07498 0.91334 0.0
H1244 H 0.96721 0.01579 1.00268 0.0
H1245 H 0.93506 1.00664 0.01833 0.0
H1246 H 0.98719 0.05238 0.9862 0.0
H1247 H 0.98811 0.06739 0.95212 0.0
C1248 C 0.33181 0.19405 0.35522 0.0
C1249 C 0.33025 0.19692 0.32508 0.0
C1250 C 0.29068 0.23089 0.33082 0.0
C1251 C 0.29052 0.22589 0.3606 0.0
N1252 N 0.30872 0.20067 0.40113 0.0
N1253 N 0.30555 0.21603 0.28404 0.0
C1254 C 0.31057 0.20698 0.37282 0.0
C1255 C 0.30879 0.21455 0.31285 0.0
N1256 N 0.3538 0.17916 0.36708 0.0
N1257 N 0.27471 0.25262 0.31977 0.0
H1258 H 0.31953 0.20696 0.26955 0.0
H1259 H 0.28775 0.22495 0.27433 0.0
H1260 H 0.26143 0.26549 0.33203 0.0
H1261 H 0.27667 0.25985 0.29892 0.0
H1262 H 0.35829 0.17921 0.38874 0.0
H1263 H 0.36876 0.16797 0.35508 0.0
H1264 H 0.32058 0.18476 0.41096 0.0
H1265 H 0.29367 0.21002 0.41453 0.0
C1266 C 0.05396 0.0431 0.62568 0.0
C1267 C 0.02434 0.03923 0.63108 0.0
C1268 C 0.01368 0.07424 0.59426 0.0
C1269 C 0.04304 0.08058 0.59062 0.0
N1270 N 0.09114 0.07431 0.60743 0.0
N1271 N 0.97658 0.0581 0.62582 0.0
C1272 C 0.06332 0.06593 0.60763 0.0
C1273 C 1.00448 0.05744 0.61752 0.0
N1274 N 0.0731 0.02484 0.63764 0.0
N1275 N 0.99455 0.08245 0.57405 0.0
H1276 H 0.96822 0.04587 0.64224 0.0
H1277 H 0.96222 0.07323 0.6183 0.0
H1278 H 1.00097 0.08993 0.55418 0.0
H1279 H 0.97284 0.07847 0.57548 0.0
H1280 H 0.09458 0.02441 0.63209 0.0
H1281 H 0.06704 0.00921 0.65224 0.0
H1282 H 0.10632 0.06617 0.62134 0.0
H1283 H 0.09851 0.09118 0.59504 0.0
C1284 C 0.18836 0.81311 0.85244 0.0
C1285 C 0.18885 0.80444 0.82359 0.0
C1286 C 0.23269 0.77768 0.83156 0.0
C1287 C 0.23216 0.78567 0.86081 0.0
N1288 N 0.21309 0.81524 0.89793 0.0
N1289 N 0.21542 0.78666 0.78382 0.0
C1290 C 0.21113 0.80492 0.87087 0.0
C1291 C 0.21259 0.78971 0.81258 0.0
N1292 N 0.16563 0.82837 0.86221 0.0
N1293 N 0.25064 0.7567 0.82226 0.0
H1294 H 0.20071 0.79519 0.76955 0.0
H1295 H 0.23361 0.77843 0.77416 0.0
H1296 H 0.26494 0.74599 0.83533 0.0
H1297 H 0.24949 0.74781 0.80204 0.0
H1298 H 0.16226 0.83332 0.8835 0.0
H1299 H 0.14951 0.83549 0.8487 0.0
H1300 H 0.19976 0.83087 0.90619 0.0
H1301 H 0.22958 0.80948 0.91162 0.0
C1302 C 0.46746 0.95516 0.13085 0.0
C1303 C 0.47871 0.97871 0.11558 0.0
C1304 C 0.46211 0.95716 0.0711 0.0
C1305 C 0.45693 0.93139 0.0856 0.0
N1306 N 0.45405 0.90522 0.1294 0.0
N1307 N 0.49183 0.9988 0.06968 0.0
C1308 C 0.45903 0.93033 0.11564 0.0
C1309 C 0.47691 0.97922 0.0853 0.0
N1310 N 0.46474 0.95662 0.15971 0.0
N1311 N 0.45429 0.96003 0.04331 0.0
H1312 H 0.50565 0.01368 0.07845 0.0
H1313 H 0.49336 0.99799 0.04759 0.0
H1314 H 0.44365 0.94401 0.03229 0.0
H1315 H 0.45559 0.97927 0.03235 0.0
H1316 H 0.45461 0.94103 0.1718 0.0
H1317 H 0.47029 0.97475 0.17123 0.0
H1318 H 0.45849 0.90194 0.15084 0.0
H1319 H 0.44647 0.88725 0.11879 0.0
C1320 C 0.3371 0.80039 0.15115 0.0
C1321 C 0.3339 0.79956 0.18115 0.0
C1322 C 0.28622 0.77947 0.17596 0.0
C1323 C 0.2887 0.78118 0.14575 0.0
N1324 N 0.31411 0.79893 0.1049 0.0
N1325 N 0.30286 0.7962 0.2217 0.0
C1326 C 0.31342 0.79354 0.13342 0.0
C1327 C 0.30739 0.79218 0.1933 0.0
N1328 N 0.36309 0.80673 0.1397 0.0
N1329 N 0.26538 0.76324 0.18832 0.0
H1330 H 0.31824 0.80496 0.23506 0.0
H1331 H 0.28299 0.79362 0.23127 0.0
H1332 H 0.25081 0.7511 0.17695 0.0
H1333 H 0.26463 0.75896 0.21005 0.0
H1334 H 0.3679 0.80437 0.11821 0.0
H1335 H 0.38031 0.81317 0.15214 0.0
H1336 H 0.3305 0.81009 0.09495 0.0
H1337 H 0.29695 0.79443 0.09158 0.0
C1338 C 0.51138 0.05955 0.39597 0.0
C1339 C 0.49141 0.04174 0.38196 0.0
C1340 C 0.45247 0.06832 0.40557 0.0
C1341 C 0.47276 0.08281 0.42261 0.0
N1342 N 0.52123 0.0849 0.43928 0.0
N1343 N 0.44257 0.02803 0.37461 0.0
C1344 C 0.50214 0.07655 0.41907 0.0
C1345 C 0.46177 0.04583 0.38713 0.0
N1346 N 0.53942 0.0598 0.38812 0.0
N1347 N 0.42459 0.0765 0.40635 0.0
H1348 H 0.44859 0.01273 0.3597 0.0
H1349 H 0.42103 0.02763 0.37992 0.0
H1350 H 0.41732 0.09291 0.41938 0.0
H1351 H 0.40922 0.06863 0.39251 0.0
H1352 H 0.55386 0.07476 0.39579 0.0
H1353 H 0.54797 0.04728 0.37205 0.0
H1354 H 0.54276 0.07981 0.43856 0.0
H1355 H 0.51493 0.09364 0.45864 0.0
C1356 C 0.21416 0.20814 0.6971 0.0
C1357 C 0.18753 0.20364 0.68415 0.0
C1358 C 0.20886 0.21309 0.63746 0.0
C1359 C 0.23347 0.22386 0.65122 0.0
N1360 N 0.25722 0.23585 0.69555 0.0
N1361 N 0.15883 0.20063 0.64207 0.0
C1362 C 0.23592 0.22195 0.6814 0.0
C1363 C 0.18481 0.20525 0.65421 0.0
N1364 N 0.21803 0.2007 0.72488 0.0
N1365 N 0.20857 0.21038 0.60857 0.0
H1366 H 0.14135 0.1936 0.65391 0.0
H1367 H 0.15439 0.20481 0.6208 0.0
H1368 H 0.2261 0.21561 0.59593 0.0
H1369 H 0.19209 0.20061 0.59747 0.0
H1370 H 0.23778 0.20146 0.7349 0.0
H1371 H 0.20205 0.19092 0.73683 0.0
H1372 H 0.25793 0.23747 0.71762 0.0
H1373 H 0.27238 0.24864 0.68566 0.0
C1374 C 0.06293 0.93889 0.90049 0.0
C1375 C 0.06407 0.94036 0.93058 0.0
C1376 C 0.04075 0.98674 0.92958 0.0
C1377 C 0.03914 0.98543 0.89931 0.0
N1378 N 0.05521 0.96376 0.85578 0.0
N1379 N 0.06371 0.96961 0.9724 0.0
C1380 C 0.05248 0.96263 0.88466 0.0
C1381 C 0.05671 0.9659 0.9445 0.0
N1382 N 0.07067 0.91422 0.88728 0.0
N1383 N 0.02473 1.00594 0.94448 0.0
H1384 H 0.07527 0.9545 0.9838 0.0
H1385 H 0.06082 0.9888 0.9831 0.0
H1386 H 0.01063 0.02014 0.93503 0.0
H1387 H 0.02286 1.00559 0.96655 0.0
H1388 H 0.06721 0.91021 0.86581 0.0
H1389 H 0.07976 0.89728 0.89843 0.0
H1390 H 0.06669 0.94891 0.84402 0.0
H1391 H 0.04802 0.98105 0.84384 0.0
C1392 C 0.34787 0.32986 0.22987 0.0
C1393 C 0.31834 0.32763 0.22414 0.0
C1394 C 0.32157 0.27569 0.22766 0.0
C1395 C 0.34933 0.27845 0.23952 0.0
N1396 N 0.39058 0.30746 0.24855 0.0
N1397 N 0.27634 0.29866 0.21855 0.0
C1398 C 0.3631 0.30538 0.23927 0.0
C1399 C 0.30511 0.30058 0.22262 0.0
N1400 N 0.36112 0.35554 0.22633 0.0
N1401 N 0.31068 0.24952 0.22124 0.0
H1402 H 0.2635 0.31618 0.21412 0.0
H1403 H 0.26483 0.27994 0.22149 0.0
H1404 H 0.32166 0.23057 0.22406 0.0
H1405 H 0.29179 0.24672 0.21002 0.0
H1406 H 0.38297 0.3586 0.22818 0.0
H1407 H 0.35028 0.37356 0.21916 0.0
H1408 H 0.40095 0.32665 0.25228 0.0
H1409 H 0.40298 0.28962 0.25315 0.0
C1410 C 0.81985 0.21312 0.8031 0.0
C1411 C 0.83285 0.18692 0.80983 0.0
C1412 C 0.87977 0.20805 0.79976 0.0
C1413 C 0.8661 0.23187 0.78718 0.0
N1414 N 0.82183 0.25424 0.7726 0.0
N1415 N 0.87524 0.15907 0.816 0.0
C1416 C 0.83579 0.23404 0.78822 0.0
C1417 C 0.86296 0.18447 0.80903 0.0
N1418 N 0.79185 0.21745 0.80964 0.0
N1419 N 0.90867 0.20808 0.80287 0.0
H1420 H 0.86337 0.14216 0.82424 0.0
H1421 H 0.89668 0.15449 0.8127 0.0
H1422 H 0.92132 0.2252 0.79648 0.0
H1423 H 0.91976 0.1924 0.8139 0.0
H1424 H 0.7818 0.23708 0.80725 0.0
H1425 H 0.77966 0.2023 0.82035 0.0
H1426 H 0.79977 0.25462 0.77028 0.0
H1427 H 0.83204 0.2686 0.75915 0.0
C1428 C 0.05674 0.63384 0.04659 0.0
C1429 C 0.03382 0.61941 0.03323 0.0
C1430 C 0.05329 0.57394 0.05022 0.0
C1431 C 0.0789 0.5877 0.05783 0.0
N1432 N 0.10537 0.63097 0.06411 0.0
N1433 N 0.01406 0.57432 0.01741 0.0
C1434 C 0.08057 0.61784 0.05661 0.0
C1435 C 0.03272 0.58907 0.03415 0.0
N1436 N 0.05562 0.66269 0.04986 0.0
N1437 N 0.04911 0.54603 0.05713 0.0
H1438 H 1.00039 0.58387 1.00286 0.0
H1439 H 0.01463 0.55226 0.01525 0.0
H1440 H 0.0638 0.5343 0.06886 0.0
H1441 H 0.02977 0.53562 0.05399 0.0
H1442 H 0.07056 0.6742 0.06145 0.0
H1443 H 0.03825 0.67477 0.04312 0.0
H1444 H 0.10939 0.65248 0.06057 0.0
H1445 H 0.12239 0.61977 0.07296 0.0
C1446 C 0.65293 0.79308 0.30731 0.0
C1447 C 0.66142 0.77416 0.28536 0.0
C1448 C 0.71016 0.79293 0.28786 0.0
C1449 C 0.70053 0.81494 0.30583 0.0
N1450 N 0.66445 0.83484 0.33584 0.0
N1451 N 0.69781 0.75778 0.25261 0.0
C1452 C 0.67243 0.81443 0.31684 0.0
C1453 C 0.69012 0.77413 0.27543 0.0
N1454 N 0.62639 0.79041 0.31897 0.0
N1455 N 0.73865 0.79048 0.28236 0.0
H1456 H 0.68388 0.74422 0.24204 0.0
H1457 H 0.71742 0.75949 0.2424 0.0
H1458 H 0.75362 0.80422 0.29134 0.0
H1459 H 0.74761 0.77338 0.2715 0.0
H1460 H 0.61923 0.80214 0.3363 0.0
H1461 H 0.61192 0.77501 0.31221 0.0
H1462 H 0.64364 0.83802 0.34275 0.0
H1463 H 0.67923 0.84888 0.34461 0.0
C1464 C 0.96282 0.88821 0.04952 0.0
C1465 C 0.98545 0.902 0.03493 0.0
C1466 C 0.96686 0.9483 0.0506 0.0
C1467 C 0.94152 0.93497 0.05971 0.0
N1468 N 0.91551 0.89241 0.0705 0.0
N1469 N 1.00664 0.9461 0.01822 0.0
C1470 C 0.93974 0.90486 0.06032 0.0
C1471 C 0.98724 0.93231 0.03504 0.0
N1472 N 0.96356 0.85937 0.05309 0.0
N1473 N 0.97095 0.97653 0.05602 0.0
H1474 H 0.02088 0.93571 1.00478 0.0
H1475 H 1.00662 0.96806 0.01519 0.0
H1476 H 0.95614 0.98863 0.0673 0.0
H1477 H 0.9901 0.98699 0.05201 0.0
H1478 H 0.94893 0.84809 0.06533 0.0
H1479 H 0.98031 0.8469 0.04552 0.0
H1480 H 0.91131 0.87072 0.06919 0.0
H1481 H 0.89916 0.90431 0.07974 0.0
C1482 C 0.18377 0.71296 0.69762 0.0
C1483 C 0.1737 0.68487 0.70214 0.0
C1484 C 0.12614 0.70361 0.71369 0.0
C1485 C 0.13779 0.73147 0.71384 0.0
N1486 N 0.17054 0.76188 0.68843 0.0
N1487 N 0.1337 0.65305 0.70462 0.0
C1488 C 0.16434 0.73601 0.70006 0.0
C1489 C 0.14414 0.68011 0.70674 0.0
N1490 N 0.21202 0.71798 0.69291 0.0
N1491 N 0.09801 0.69994 0.72007 0.0
H1492 H 0.14658 0.63594 0.69869 0.0
H1493 H 0.11233 0.64767 0.70673 0.0
H1494 H 0.08403 0.71715 0.72146 0.0
H1495 H 0.08836 0.68028 0.72327 0.0
H1496 H 0.22078 0.73836 0.69305 0.0
H1497 H 0.22697 0.70179 0.69053 0.0
H1498 H 0.18897 0.76573 0.67666 0.0
H1499 H 0.15532 0.77796 0.68686 0.0
C1500 C 0.03485 0.43112 0.47424 0.0
C1501 C 0.03593 0.40081 0.47515 0.0
C1502 C 0.0829 0.40204 0.45211 0.0
C1503 C 0.08182 0.43219 0.45197 0.0
N1504 N 0.05314 0.47446 0.45304 0.0
N1505 N 0.05761 0.3573 0.45904 0.0
C1506 C 0.05635 0.44629 0.45938 0.0
C1507 C 0.0589 0.38618 0.46204 0.0
N1508 N 0.01493 0.4457 0.48972 0.0
N1509 N 0.10731 0.38881 0.44349 0.0
H1510 H 0.04017 0.34538 0.46597 0.0
H1511 H 0.07256 0.34543 0.4478 0.0
H1512 H 0.12441 0.40012 0.43484 0.0
H1513 H 0.1109 0.36707 0.44551 0.0
H1514 H 0.01533 0.46772 0.49225 0.0
H1515 H 0.99975 0.43594 0.50261 0.0
H1516 H 0.03402 0.48537 0.45577 0.0
H1517 H 0.06871 0.48604 0.44222 0.0
C1518 C 0.42588 0.61982 0.96845 0.0
C1519 C 0.4281 0.58979 0.96635 0.0
C1520 C 0.47523 0.59133 0.98804 0.0
C1521 C 0.47347 0.62158 0.98991 0.0
N1522 N 0.45018 0.66493 0.97557 0.0
N1523 N 0.45823 0.54843 0.96523 0.0
C1524 C 0.44975 0.63597 0.97797 0.0
C1525 C 0.45414 0.5762 0.97269 0.0
N1526 N 0.40053 0.63268 0.96237 0.0
N1527 N 0.4952 0.57659 1.00325 0.0
H1528 H 0.44299 0.53671 0.95421 0.0
H1529 H 0.47778 0.53813 0.96726 0.0
H1530 H 0.50967 0.58611 0.017 0.0
H1531 H 0.49524 0.55448 1.00494 0.0
H1532 H 0.39625 0.65397 0.96672 0.0
H1533 H 0.38332 0.62145 0.95393 0.0
H1534 H 0.43457 0.67651 0.96495 0.0
H1535 H 0.46756 0.67715 0.98201 0.0
C1536 C 0.68423 0.84118 0.81429 0.0
C1537 C 0.68971 0.81162 0.81503 0.0
C1538 C 0.71715 0.8147 0.77112 0.0
C1539 C 0.71432 0.84493 0.77166 0.0
N1540 N 0.69003 0.88639 0.78935 0.0
N1541 N 0.70005 0.76926 0.78897 0.0
C1542 C 0.69587 0.85801 0.79175 0.0
C1543 C 0.70202 0.79811 0.79135 0.0
N1544 N 0.66839 0.85281 0.83566 0.0
N1545 N 0.73629 0.80188 0.75329 0.0
H1546 H 0.68899 0.75706 0.80391 0.0
H1547 H 0.70656 0.75806 0.771 0.0
H1548 H 0.74914 0.81289 0.73896 0.0
H1549 H 0.7414 0.78035 0.75446 0.0
H1550 H 0.66391 0.87437 0.83766 0.0
H1551 H 0.65934 0.84014 0.85157 0.0
H1552 H 0.67632 0.89747 0.80271 0.0
H1553 H 0.69799 0.89877 0.7727 0.0
C1554 C 0.39034 0.45731 0.08296 0.0
C1555 C 0.42052 0.4574 0.08206 0.0
C1556 C 0.4197 0.47984 0.03536 0.0
C1557 C 0.3893 0.47972 0.03583 0.0
N1558 N 0.34602 0.46168 0.05673 0.0
N1559 N 0.46316 0.45923 0.05378 0.0
C1560 C 0.37469 0.46613 0.05855 0.0
C1561 C 0.43481 0.46491 0.05674 0.0
N1562 N 0.37679 0.44996 0.1076 0.0
N1563 N 0.43439 0.49664 0.01662 0.0
H1564 H 0.47484 0.44861 0.06936 0.0
H1565 H 0.47417 0.46226 0.03475 0.0
H1566 H 0.42479 0.51044 1.00224 0.0
H1567 H 0.45636 0.4996 0.01765 0.0
H1568 H 0.35504 0.45274 0.11094 0.0
H1569 H 0.38783 0.44209 0.12518 0.0
H1570 H 0.33452 0.44993 0.07161 0.0
H1571 H 0.33424 0.46754 0.03887 0.0
C1572 C 0.81646 0.16258 0.31424 0.0
C1573 C 0.81367 0.19259 0.3137 0.0
C1574 C 0.78745 0.18998 0.26914 0.0
C1575 C 0.78953 0.15968 0.26969 0.0
N1576 N 0.81231 0.11786 0.28863 0.0
N1577 N 0.80652 0.23482 0.28595 0.0
C1578 C 0.80622 0.14618 0.29091 0.0
C1579 C 0.803 0.20618 0.28923 0.0
N1580 N 0.82798 0.1499 0.33763 0.0
N1581 N 0.76845 0.20337 0.25162 0.0
H1582 H 0.81771 0.24707 0.30065 0.0
H1583 H 0.80109 0.24563 0.26738 0.0
H1584 H 0.75446 0.19274 0.23819 0.0
H1585 H 0.76415 0.22509 0.25276 0.0
H1586 H 0.82759 0.12805 0.34129 0.0
H1587 H 0.8374 0.16184 0.35375 0.0
H1588 H 0.82614 0.10718 0.30222 0.0
H1589 H 0.8054 0.10557 0.27151 0.0
C1590 C 0.11508 0.56009 0.57378 0.0
C1591 C 0.085 0.55852 0.57161 0.0
C1592 C 0.08918 0.53463 0.5258 0.0
C1593 C 0.11949 0.53597 0.5276 0.0
N1594 N 0.16107 0.55556 0.55013 0.0
N1595 N 0.04405 0.55402 0.54154 0.0
C1596 C 0.13241 0.55063 0.5506 0.0
C1597 C 0.07239 0.54944 0.54602 0.0
N1598 N 0.12687 0.56994 0.59835 0.0
N1599 N 0.07622 0.51699 0.50668 0.0
H1600 H 0.03134 0.56484 0.55617 0.0
H1601 H 0.03408 0.54989 0.52221 0.0
H1602 H 0.08727 0.50348 0.49305 0.0
H1603 H 0.05437 0.51314 0.50668 0.0
H1604 H 0.14857 0.56921 0.60272 0.0
H1605 H 0.11444 0.57823 0.61481 0.0
H1606 H 0.17161 0.56799 0.56508 0.0
H1607 H 0.17402 0.54903 0.53332 0.0
C1608 C 0.70327 0.15598 0.68364 0.0
C1609 C 0.70302 0.18604 0.68616 0.0
C1610 C 0.72658 0.18282 0.73219 0.0
C1611 C 0.72739 0.15256 0.72973 0.0
N1612 N 0.71008 0.11019 0.70677 0.0
N1613 N 0.7048 0.22691 0.71659 0.0
C1614 C 0.71353 0.13904 0.70662 0.0
C1615 C 0.71097 0.19891 0.71201 0.0
N1616 N 0.69481 0.14387 0.65869 0.0
N1617 N 0.74294 0.19655 0.75192 0.0
H1618 H 0.69355 0.23909 0.70186 0.0
H1619 H 0.7081 0.23698 0.73603 0.0
H1620 H 0.75674 0.1862 0.7658 0.0
H1621 H 0.74534 0.21858 0.75243 0.0
H1622 H 0.69764 0.12245 0.65384 0.0
H1623 H 0.68566 0.1559 0.64244 0.0
H1624 H 0.69817 0.09926 0.69167 0.0
H1625 H 0.71714 0.09743 0.7235 0.0
C1626 C 0.11359 0.45203 0.94001 0.0
C1627 C 0.08347 0.45398 0.94019 0.0
C1628 C 0.08469 0.47898 0.98562 0.0
C1629 C 0.11505 0.47811 0.98522 0.0
N1630 N 0.15807 0.45805 0.96591 0.0
N1631 N 0.04058 0.45939 0.96749 0.0
C1632 C 0.12943 0.4626 0.96365 0.0
C1633 C 0.06918 0.46378 0.9647 0.0
N1634 N 0.12685 0.44078 0.91675 0.0
N1635 N 0.07056 0.49642 1.00416 0.0
H1636 H 0.02879 0.44831 0.95236 0.0
H1637 H 0.02932 0.46396 0.98604 0.0
H1638 H 0.0807 0.50946 0.01886 0.0
H1639 H 0.04875 0.50026 1.00302 0.0
H1640 H 0.14879 0.44095 0.91366 0.0
H1641 H 0.11539 0.43167 0.90007 0.0
H1642 H 0.16968 0.44525 0.95207 0.0
H1643 H 0.16991 0.46542 0.98314 0.0
C1644 C 0.82363 0.83916 0.23814 0.0
C1645 C 0.81033 0.86597 0.23386 0.0
C1646 C 0.81712 0.86007 0.1825 0.0
C1647 C 0.82124 0.83042 0.18701 0.0
N1648 N 0.83067 0.79174 0.21939 0.0
N1649 N 0.80551 0.90634 0.20297 0.0
C1650 C 0.82593 0.82003 0.21487 0.0
C1651 C 0.81087 0.87797 0.2062 0.0
N1652 N 0.83496 0.83246 0.26397 0.0
N1653 N 0.81866 0.87055 0.15543 0.0
H1654 H 0.80429 0.91998 0.22043 0.0
H1655 H 0.80329 0.91658 0.18351 0.0
H1656 H 0.8241 0.85766 0.13819 0.0
H1657 H 0.81617 0.89185 0.15002 0.0
H1658 H 0.84636 0.81382 0.2677 0.0
H1659 H 0.83667 0.84744 0.28021 0.0
H1660 H 0.8306 0.78258 0.23957 0.0
H1661 H 0.83321 0.77721 0.20286 0.0
C1662 C 0.38813 0.55066 0.46084 0.0
C1663 C 0.39979 0.53382 0.48301 0.0
C1664 C 0.44736 0.53888 0.46178 0.0
C1665 C 0.43505 0.55141 0.43746 0.0
N1666 N 0.39432 0.57056 0.41335 0.0
N1667 N 0.44018 0.50785 0.50194 0.0
C1668 C 0.40558 0.55802 0.43698 0.0
C1669 C 0.42943 0.52723 0.48308 0.0
N1670 N 0.36053 0.55964 0.46278 0.0
N1671 N 0.47633 0.53759 0.46418 0.0
H1672 H 0.4279 0.49739 0.51714 0.0
H1673 H 0.46079 0.49979 0.50062 0.0
H1674 H 0.48999 0.54579 0.44866 0.0
H1675 H 0.48669 0.53117 0.48266 0.0
H1676 H 0.35117 0.5738 0.44858 0.0
H1677 H 0.34748 0.5544 0.48 0.0
H1678 H 0.37261 0.57349 0.41012 0.0
H1679 H 0.407 0.57726 0.39635 0.0
C1680 C 0.77537 0.71697 0.83084 0.0
C1681 C 0.77795 0.72019 0.86091 0.0
C1682 C 0.82834 0.70656 0.85769 0.0
C1683 C 0.8255 0.70358 0.82782 0.0
N1684 N 0.79478 0.69668 0.78761 0.0
N1685 N 0.80473 0.71113 0.90352 0.0
C1686 C 0.79835 0.70519 0.81512 0.0
C1687 C 0.80379 0.71258 0.87454 0.0
N1688 N 0.75243 0.72787 0.81664 0.0
N1689 N 0.85474 0.70469 0.8697 0.0
H1690 H 0.7869 0.7151 0.91619 0.0
H1691 H 0.82223 0.70356 0.91479 0.0
H1692 H 0.87272 0.69878 0.85802 0.0
H1693 H 0.85899 0.71004 0.89074 0.0
H1694 H 0.75134 0.72899 0.79455 0.0
H1695 H 0.73577 0.73867 0.8264 0.0
H1696 H 0.77486 0.69491 0.77806 0.0
H1697 H 0.8114 0.68849 0.77539 0.0
C1698 C 0.52545 0.53517 0.09452 0.0
C1699 C 0.52423 0.53543 0.12481 0.0
C1700 C 0.54762 0.58224 0.12475 0.0
C1701 C 0.549 0.58154 0.0946 0.0
N1702 N 0.54851 0.55304 0.05208 0.0
N1703 N 0.54023 0.55606 0.16881 0.0
C1704 C 0.54144 0.55635 0.08004 0.0
C1705 C 0.53737 0.55798 0.13999 0.0
N1706 N 0.50916 0.51652 0.07924 0.0
N1707 N 0.55524 0.60656 0.13864 0.0
H1708 H 0.53321 0.53841 0.18034 0.0
H1709 H 0.55169 0.57064 0.18088 0.0
H1710 H 0.56436 0.62384 0.12803 0.0
H1711 H 0.55161 0.60995 0.16021 0.0
H1712 H 0.50703 0.51766 0.05722 0.0
H1713 H 0.49503 0.5021 0.08841 0.0
H1714 H 0.5455 0.53401 0.04112 0.0
H1715 H 0.56031 0.56805 0.0408 0.0
C1716 C 0.70881 0.30602 0.31197 0.0
C1717 C 0.68403 0.31392 0.32697 0.0
C1718 C 0.70912 0.30638 0.37214 0.0
C1719 C 0.73132 0.2925 0.35704 0.0
N1720 N 0.75059 0.27626 0.31197 0.0
N1721 N 0.66083 0.32534 0.37088 0.0
C1722 C 0.73113 0.29212 0.32674 0.0
C1723 C 0.68445 0.31563 0.35702 0.0
N1724 N 0.71051 0.31091 0.28341 0.0
N1725 N 0.71174 0.31052 0.40075 0.0
H1726 H 0.64326 0.33336 0.3599 0.0
H1727 H 0.65837 0.32503 0.39285 0.0
H1728 H 0.72972 0.30404 0.41204 0.0
H1729 H 0.69734 0.32214 0.41291 0.0
H1730 H 0.72904 0.30775 0.27162 0.0
H1731 H 0.69429 0.32108 0.27221 0.0
H1732 H 0.74924 0.27266 0.29017 0.0
H1733 H 0.76649 0.2642 0.32156 0.0
C1734 C 0.97493 0.48712 0.5772 0.0
C1735 C 0.97458 0.48607 0.60752 0.0
C1736 C 0.95065 0.43967 0.60537 0.0
C1737 C 0.95143 0.44092 0.57526 0.0
N1738 N 0.95441 0.46991 0.53327 0.0
N1739 N 0.95555 0.46494 0.65018 0.0
C1740 C 0.95971 0.46632 0.56156 0.0
C1741 C 0.96015 0.4635 0.62155 0.0
N1742 N 0.99214 0.50592 0.56309 0.0
N1743 N 0.94201 0.41512 0.61832 0.0
H1744 H 0.96199 0.48234 0.66234 0.0
H1745 H 0.94324 0.45025 0.66135 0.0
H1746 H 0.93363 0.39809 0.6068 0.0
H1747 H 0.94407 0.41131 0.64003 0.0
H1748 H 0.99536 0.50529 0.54117 0.0
H1749 H 1.00591 0.51996 0.57318 0.0
H1750 H 0.95807 0.48903 0.52263 0.0
H1751 H 0.94342 0.45485 0.5213 0.0
C1752 C 0.82771 0.31622 0.65545 0.0
C1753 C 0.82645 0.31293 0.68536 0.0
C1754 C 0.78067 0.28883 0.68168 0.0
C1755 C 0.78217 0.29086 0.65146 0.0
N1756 N 0.80334 0.31212 0.60993 0.0
N1757 N 0.7977 0.30642 0.727 0.0
C1758 C 0.80448 0.30659 0.63842 0.0
C1759 C 0.80129 0.30307 0.6984 0.0
N1760 N 0.85157 0.32782 0.64357 0.0
N1761 N 0.76136 0.27114 0.69451 0.0
H1762 H 0.81276 0.31679 0.73955 0.0
H1763 H 0.77872 0.30175 0.73751 0.0
H1764 H 0.7469 0.25858 0.68343 0.0
H1765 H 0.76163 0.26657 0.71618 0.0
H1766 H 0.85529 0.32896 0.6218 0.0
H1767 H 0.86805 0.336 0.656 0.0
H1768 H 0.81784 0.32502 0.59924 0.0
H1769 H 0.78643 0.30538 0.59725 0.0
C1770 C 0.96305 0.58051 0.89581 0.0
C1771 C 0.96106 0.5789 0.92588 0.0
C1772 C 0.98167 0.5313 0.92512 0.0
C1773 C 0.98335 0.53238 0.89484 0.0
N1774 N 0.96942 0.55524 0.85118 0.0
N1775 N 0.95951 0.5497 0.96783 0.0
C1776 C 0.97191 0.55612 0.88008 0.0
C1777 C 0.96685 0.55301 0.93992 0.0
N1778 N 0.95756 0.60577 0.88253 0.0
N1779 N 0.99669 0.51141 0.94015 0.0
H1780 H 0.94895 0.56546 0.97931 0.0
H1781 H 0.96115 0.53033 0.97851 0.0
H1782 H 0.01029 0.49663 0.93083 0.0
H1783 H 0.99847 0.51177 0.96222 0.0
H1784 H 0.96192 0.60955 0.86114 0.0
H1785 H 0.94964 0.6234 0.89348 0.0
H1786 H 0.95913 0.57091 0.83937 0.0
H1787 H 0.97545 0.53751 0.83928 0.0
C1788 C 0.68311 0.70651 0.14806 0.0
C1789 C 0.68518 0.70158 0.17771 0.0
C1790 C 0.73419 0.71884 0.17758 0.0
C1791 C 0.73214 0.72454 0.14787 0.0
N1792 N 0.70781 0.71611 0.10364 0.0
N1793 N 0.71542 0.69284 0.21798 0.0
C1794 C 0.7076 0.7157 0.13267 0.0
C1795 C 0.71185 0.70381 0.19134 0.0
N1796 N 0.65732 0.70363 0.13501 0.0
N1797 N 0.7558 0.73015 0.19345 0.0
H1798 H 0.69934 0.68182 0.2286 0.0
H1799 H 0.73514 0.69185 0.22804 0.0
H1800 H 0.77172 0.74319 0.18526 0.0
H1801 H 0.75629 0.72914 0.21556 0.0
H1802 H 0.65334 0.71023 0.11426 0.0
H1803 H 0.63955 0.6955 0.14566 0.0
H1804 H 0.6914 0.70788 0.09128 0.0
H1805 H 0.7257 0.72226 0.09196 0.0
C1806 C 0.5517 0.45602 0.37834 0.0
C1807 C 0.55033 0.48405 0.38937 0.0
C1808 C 0.56798 0.46733 0.43538 0.0
C1809 C 0.56402 0.43888 0.42623 0.0
N1810 N 0.56044 0.40564 0.38761 0.0
N1811 N 0.57467 0.51633 0.42085 0.0
C1812 C 0.55894 0.43312 0.39698 0.0
C1813 C 0.56418 0.48981 0.41552 0.0
N1814 N 0.54662 0.45176 0.3501 0.0
N1815 N 0.57332 0.47316 0.46329 0.0
H1816 H 0.57514 0.53212 0.40524 0.0
H1817 H 0.58655 0.52121 0.43888 0.0
H1818 H 0.57681 0.45739 0.47846 0.0
H1819 H 0.57269 0.49369 0.4716 0.0
H1820 H 0.54594 0.43199 0.34028 0.0
H1821 H 0.54466 0.46879 0.33596 0.0
H1822 H 0.55632 0.39918 0.36691 0.0
H1823 H 0.56694 0.38904 0.40085 0.0
C1824 C 0.8243 0.79174 0.69152 0.0
C1825 C 0.83213 0.82035 0.69703 0.0
C1826 C 0.88005 0.80442 0.71099 0.0
C1827 C 0.8699 0.77607 0.7115 0.0
N1828 N 0.84053 0.74313 0.6855 0.0
N1829 N 0.86876 0.85476 0.70698 0.0
C1830 C 0.84454 0.76971 0.69639 0.0
C1831 C 0.86073 0.82692 0.70457 0.0
N1832 N 0.79706 0.78534 0.68371 0.0
N1833 N 0.90834 0.80939 0.71545 0.0
H1834 H 0.85546 0.87141 0.70082 0.0
H1835 H 0.88804 0.86146 0.71552 0.0
H1836 H 0.9229 0.79273 0.71754 0.0
H1837 H 0.91786 0.82932 0.71402 0.0
H1838 H 0.78918 0.76463 0.68313 0.0
H1839 H 0.78189 0.80087 0.6792 0.0
H1840 H 0.82329 0.73774 0.67268 0.0
H1841 H 0.85658 0.72779 0.68577 0.0
C1842 C 0.33281 0.71452 0.3147 0.0
C1843 C 0.3425 0.68617 0.31131 0.0
C1844 C 0.39052 0.70387 0.2998 0.0
C1845 C 0.37921 0.73182 0.29819 0.0
N1846 N 0.34652 0.76368 0.32171 0.0
N1847 N 0.38192 0.6536 0.30987 0.0
C1848 C 0.35253 0.73724 0.31138 0.0
C1849 C 0.37204 0.68083 0.30714 0.0
N1850 N 0.30461 0.72001 0.31914 0.0
N1851 N 0.41882 0.69974 0.29459 0.0
H1852 H 0.36869 0.63689 0.3162 0.0
H1853 H 0.4031 0.64762 0.30751 0.0
H1854 H 0.43297 0.7168 0.29288 0.0
H1855 H 0.42856 0.67995 0.29303 0.0
H1856 H 0.29604 0.74044 0.31812 0.0
H1857 H 0.28952 0.70406 0.32225 0.0
H1858 H 0.32802 0.76829 0.33308 0.0
H1859 H 0.36191 0.77965 0.32267 0.0
C1860 C 0.55316 0.10814 0.51319 0.0
C1861 C 0.53467 0.12066 0.53336 0.0
C1862 C 0.56094 0.09501 0.57108 0.0
C1863 C 0.57575 0.07926 0.54991 0.0
N1864 N 0.57524 0.06389 0.50109 0.0
N1865 N 0.51932 0.12403 0.58214 0.0
C1866 C 0.56869 0.08383 0.52106 0.0
C1867 C 0.53798 0.1134 0.56261 0.0
N1868 N 0.556 0.11884 0.48635 0.0
N1869 N 0.56911 0.09314 0.59881 0.0
H1870 H 0.50349 0.13861 0.57663 0.0
H1871 H 0.51882 0.11736 0.60326 0.0
H1872 H 0.58575 0.08007 0.60544 0.0
H1873 H 0.56074 0.10608 0.61473 0.0
H1874 H 0.57128 0.11108 0.4722 0.0
H1875 H 0.54573 0.13705 0.47915 0.0
H1876 H 0.56862 0.06578 0.48009 0.0
H1877 H 0.58356 0.04401 0.50645 0.0
C1878 C 0.16025 0.32671 0.81537 0.0
C1879 C 0.19028 0.3239 0.81414 0.0
C1880 C 0.18557 0.27725 0.79201 0.0
C1881 C 0.15527 0.27998 0.79261 0.0
N1882 N 0.114 0.30373 0.81162 0.0
N1883 N 0.23079 0.29296 0.81124 0.0
C1884 C 0.14266 0.30355 0.80667 0.0
C1885 C 0.20254 0.29767 0.80635 0.0
N1886 N 0.14873 0.35207 0.82359 0.0
N1887 N 0.19848 0.25717 0.77534 0.0
H1888 H 0.24362 0.30787 0.82146 0.0
H1889 H 0.24051 0.27329 0.80802 0.0
H1890 H 0.18754 0.24311 0.76225 0.0
H1891 H 0.22039 0.25652 0.77191 0.0
H1892 H 0.12719 0.35697 0.82177 0.0
H1893 H 0.1613 0.36864 0.83139 0.0
H1894 H 0.10378 0.31925 0.82367 0.0
H1895 H 0.10083 0.28685 0.80574 0.0
C1896 C 0.43773 0.40705 0.56446 0.0
C1897 C 0.43818 0.43716 0.56377 0.0
C1898 C 0.48446 0.43668 0.54012 0.0
C1899 C 0.48352 0.40636 0.53918 0.0
N1900 N 0.46343 0.36267 0.55692 0.0
N1901 N 0.4661 0.47986 0.5616 0.0
C1902 C 0.46149 0.39149 0.55364 0.0
C1903 C 0.46321 0.45161 0.55556 0.0
N1904 N 0.41407 0.39359 0.57469 0.0
N1905 N 0.50385 0.45148 0.52415 0.0
H1906 H 0.45062 0.49119 0.57277 0.0
H1907 H 0.48492 0.49113 0.55825 0.0
H1908 H 0.5188 0.44195 0.51087 0.0
H1909 H 0.50338 0.47351 0.52183 0.0
H1910 H 0.4109 0.37172 0.57375 0.0
H1911 H 0.3972 0.40485 0.58381 0.0
H1912 H 0.44917 0.3506 0.56884 0.0
H1913 H 0.48084 0.35103 0.54948 0.0
C1914 C 0.67181 0.23851 0.22145 0.0
C1915 C 0.64177 0.23511 0.22498 0.0
C1916 C 0.64535 0.18695 0.20508 0.0
C1917 C 0.67511 0.19073 0.2016 0.0
N1918 N 0.7146 0.22285 0.19718 0.0
N1919 N 0.59924 0.20898 0.2133 0.0
C1920 C 0.6874 0.21771 0.20611 0.0
C1921 C 0.62826 0.21025 0.21442 0.0
N1922 N 0.68617 0.2597 0.23526 0.0
N1923 N 0.63376 0.16068 0.20069 0.0
H1924 H 0.58634 0.22594 0.21959 0.0
H1925 H 0.58815 0.19235 0.20378 0.0
H1926 H 0.64568 0.14378 0.19256 0.0
H1927 H 0.61291 0.15541 0.20616 0.0
H1928 H 0.70831 0.26102 0.23568 0.0
H1929 H 0.67662 0.27397 0.2492 0.0
H1930 H 0.72394 0.24295 0.19789 0.0
H1931 H 0.72656 0.20765 0.18629 0.0
C1932 C 0.52606 0.92605 0.97524 0.0
C1933 C 0.52805 0.89574 0.97526 0.0
C1934 C 0.57298 0.89913 0.94862 0.0
C1935 C 0.57084 0.92925 0.94893 0.0
N1936 N 0.54087 0.97039 0.95338 0.0
N1937 N 0.54961 0.85349 0.95591 0.0
C1938 C 0.54558 0.94224 0.95873 0.0
C1939 C 0.5503 0.88227 0.95987 0.0
N1940 N 0.50755 0.93971 0.9931 0.0
N1941 N 0.59728 0.88683 0.93851 0.0
H1942 H 0.53307 0.84081 0.96365 0.0
H1943 H 0.56393 0.84261 0.94297 0.0
H1944 H 0.61314 0.89876 0.92852 0.0
H1945 H 0.60202 0.8653 0.94076 0.0
H1946 H 0.50759 0.96168 0.99603 0.0
H1947 H 0.49437 0.92926 0.00754 0.0
H1948 H 0.52169 0.98053 0.95804 0.0
H1949 H 0.55499 0.98272 0.94147 0.0
C1950 C 0.98155 0.11755 0.45207 0.0
C1951 C 0.98467 0.12425 0.48145 0.0
C1952 C 0.95052 0.0871 0.49291 0.0
C1953 C 0.94378 0.08301 0.46392 0.0
N1954 N 0.95069 0.09797 0.41533 0.0
N1955 N 0.96333 0.12127 0.52839 0.0
C1956 C 0.9587 0.09924 0.44314 0.0
C1957 C 0.96612 0.11123 0.50132 0.0
N1958 N 1.0003 0.12861 0.43284 0.0
N1959 N 0.94356 0.06685 0.51249 0.0
H1960 H 0.97397 0.13903 0.53612 0.0
H1961 H 0.9479 0.11339 0.54232 0.0
H1962 H 0.93536 0.04705 0.50673 0.0
H1963 H 0.94963 0.06837 0.53366 0.0
H1964 H 1.00095 0.12234 0.41162 0.0
H1965 H 0.01608 0.1431 0.43869 0.0
H1966 H 0.95911 0.11128 0.39971 0.0
H1967 H 0.93408 0.08505 0.40834 0.0
C1968 C 0.23744 0.39957 0.47289 0.0
C1969 C 0.20786 0.40232 0.47824 0.0
C1970 C 0.20011 0.35482 0.45838 0.0
C1971 C 0.23009 0.35058 0.45586 0.0
N1972 N 0.27717 0.36693 0.46845 0.0
N1973 N 0.16206 0.37883 0.48288 0.0
C1974 C 0.24877 0.37237 0.46552 0.0
C1975 C 0.18971 0.37856 0.47378 0.0
N1976 N 0.2547 0.42287 0.47442 0.0
N1977 N 0.18117 0.33838 0.44361 0.0
H1978 H 0.15221 0.39629 0.49223 0.0
H1979 H 0.14952 0.36051 0.48314 0.0
H1980 H 0.18688 0.32318 0.42864 0.0
H1981 H 0.15942 0.34272 0.44298 0.0
H1982 H 0.27594 0.42262 0.46796 0.0
H1983 H 0.24726 0.44283 0.48066 0.0
H1984 H 0.29136 0.38141 0.47738 0.0
H1985 H 0.28584 0.34679 0.46504 0.0
C1986 C 0.87692 0.95755 0.68808 0.0
C1987 C 0.89761 0.96556 0.70847 0.0
C1988 C 0.86344 0.95415 0.74633 0.0
C1989 C 0.84488 0.94143 0.72607 0.0
N1990 N 0.83995 0.92401 0.67752 0.0
N1991 N 0.91215 0.96743 0.75742 0.0
C1992 C 0.85301 0.94141 0.69683 0.0
C1993 C 0.89137 0.96268 0.73779 0.0
N1994 N 0.88022 0.96466 0.6601 0.0
N1995 N 0.8542 0.95893 0.77343 0.0
H1996 H 0.93271 0.97366 0.7517 0.0
H1997 H 0.90951 0.96317 0.77901 0.0
H1998 H 0.83347 0.95434 0.77998 0.0
H1999 H 0.86602 0.97035 0.78828 0.0
H2000 H 0.86421 0.96164 0.64507 0.0
H2001 H 0.89749 0.97621 0.65245 0.0
H2002 H 0.84733 0.92158 0.65675 0.0
H2003 H 0.82463 0.9089 0.68267 0.0
C2004 C 0.29014 0.66238 0.98677 0.0
C2005 C 0.27307 0.6594 0.96216 0.0
C2006 C 0.27307 0.60777 0.97009 0.0
C2007 C 0.29617 0.61051 0.98913 0.0
N2008 N 0.32892 0.64255 0.01349 0.0
N2009 N 0.25151 0.62696 0.92796 0.0
C2010 C 0.30502 0.63835 0.99751 0.0
C2011 C 0.26484 0.63153 0.95334 0.0
N2012 N 0.29239 0.68825 0.99977 0.0
N2013 N 0.2593 0.58232 0.96764 0.0
H2014 H 0.24676 0.64281 0.91333 0.0
H2015 H 0.24793 0.60662 0.91992 0.0
H2016 H 0.26444 0.56485 0.98037 0.0
H2017 H 0.24081 0.57981 0.95566 0.0
H2018 H 0.30247 0.69096 0.01931 0.0
H2019 H 0.28123 0.70611 0.99273 0.0
H2020 H 0.33756 0.66269 0.01692 0.0
H2021 H 0.34189 0.62645 0.0212 0.0
C2022 C 0.63155 0.07134 0.23423 0.0
C2023 C 0.65927 0.0636 0.22435 0.0
C2024 C 0.63731 0.03277 0.18868 0.0
C2025 C 0.60983 0.03846 0.20029 0.0
N2026 N 0.58263 0.05612 0.24001 0.0
N2027 N 0.68772 0.0296 0.19848 0.0
C2028 C 0.6076 0.05529 0.22513 0.0
C2029 C 0.66185 0.04177 0.20375 0.0
N2030 N 0.62725 0.09534 0.25004 0.0
N2031 N 0.64039 0.02108 0.16226 0.0
H2032 H 0.7059 0.03477 0.21012 0.0
H2033 H 0.69019 0.01202 0.1852 0.0
H2034 H 0.62345 0.01647 0.14882 0.0
H2035 H 0.66011 0.01925 0.15222 0.0
H2036 H 0.60697 0.10285 0.25505 0.0
H2037 H 0.64316 0.10975 0.25529 0.0
H2038 H 0.58075 0.06623 0.25964 0.0
H2039 H 0.56495 0.04393 0.23435 0.0
C2040 C 0.22515 0.65608 0.02302 0.0
C2041 C 0.23806 0.65394 0.05029 0.0
C2042 C 0.23752 0.60199 0.04571 0.0
C2043 C 0.21779 0.60415 0.02331 0.0
N2044 N 0.20089 0.63234 0.98397 0.0
N2045 N 0.25328 0.62333 0.08922 0.0
C2046 C 0.21418 0.63099 0.00971 0.0
C2047 C 0.2441 0.62651 0.06184 0.0
N2048 N 0.22405 0.68197 0.00977 0.0
N2049 N 0.24975 0.57636 0.05165 0.0
H2050 H 0.2557 0.64006 0.10346 0.0
H2051 H 0.2552 0.60349 0.09896 0.0
H2052 H 0.24596 0.55848 0.03904 0.0
H2053 H 0.26605 0.57396 0.06648 0.0
H2054 H 0.21631 0.68524 0.98934 0.0
H2055 H 0.23302 0.70026 0.0185 0.0
H2056 H 0.19382 0.65106 0.97453 0.0
H2057 H 0.19834 0.61445 0.97117 0.0
C2058 C 0.65637 0.96298 0.27147 0.0
C2059 C 0.66945 0.9412 0.28782 0.0
C2060 C 0.62956 0.94252 0.32151 0.0
C2061 C 0.6152 0.96245 0.30394 0.0
N2062 N 0.61306 0.98919 0.26044 0.0
N2063 N 0.66442 0.90507 0.32415 0.0
C2064 C 0.62811 0.97207 0.27841 0.0
C2065 C 0.65496 0.92959 0.31169 0.0
N2066 N 0.67131 0.97562 0.24998 0.0
N2067 N 0.61956 0.93648 0.34818 0.0
H2068 H 0.68214 0.8938 0.31706 0.0
H2069 H 0.65281 0.89416 0.33958 0.0
H2070 H 0.60085 0.94497 0.35643 0.0
H2071 H 0.63124 0.92508 0.36317 0.0
H2072 H 0.6641 0.99348 0.23914 0.0
H2073 H 0.69199 0.96959 0.24455 0.0
H2074 H 0.61984 0.9941 0.23995 0.0
H2075 H 0.5926 0.99646 0.26519 0.0
C2076 C 0.33267 0.38013 0.5424 0.0
C2077 C 0.31349 0.40262 0.53611 0.0
C2078 C 0.27366 0.37094 0.54804 0.0
C2079 C 0.29309 0.35053 0.55912 0.0
N2080 N 0.34161 0.34185 0.57492 0.0
N2081 N 0.26552 0.42075 0.53705 0.0
C2082 C 0.32279 0.35648 0.55821 0.0
C2083 C 0.28386 0.39845 0.54017 0.0
N2084 N 0.36068 0.38157 0.53465 0.0
N2085 N 0.2457 0.3639 0.5444 0.0
H2086 H 0.27226 0.4409 0.5306 0.0
H2087 H 0.24403 0.41956 0.54248 0.0
H2088 H 0.23792 0.34352 0.54853 0.0
H2089 H 0.2311 0.37727 0.53445 0.0
H2090 H 0.37415 0.36397 0.5359 0.0
H2091 H 0.37002 0.39909 0.52486 0.0
H2092 H 0.36303 0.34743 0.57655 0.0
H2093 H 0.33563 0.32715 0.59036 0.0
C2094 C 0.88118 0.04333 0.83119 0.0
C2095 C 0.90379 0.03438 0.81332 0.0
C2096 C 0.87397 0.04484 0.7718 0.0
C2097 C 0.85365 0.05848 0.78968 0.0
N2098 N 0.84472 0.0786 0.83652 0.0
N2099 N 0.92333 0.03044 0.76615 0.0
C2100 C 0.8588 0.05964 0.81948 0.0
C2101 C 0.90071 0.03626 0.78342 0.0
N2102 N 0.88135 0.03745 0.85963 0.0
N2103 N 0.86755 0.03939 0.74406 0.0
H2104 H 0.94285 0.02338 0.77405 0.0
H2105 H 0.92312 0.0342 0.74432 0.0
H2106 H 0.84769 0.04404 0.73533 0.0
H2107 H 0.88075 0.02755 0.73074 0.0
H2108 H 0.86354 0.04086 0.87247 0.0
H2109 H 0.89784 0.02684 0.86989 0.0
H2110 H 0.84986 0.08157 0.85786 0.0
H2111 H 0.83117 0.09438 0.82892 0.0
C2112 C 0.44447 0.24412 0.42683 0.0
C2113 C 0.46898 0.22681 0.42404 0.0
C2114 C 0.46306 0.22524 0.37283 0.0
C2115 C 0.43696 0.24074 0.37521 0.0
N2116 N 0.41005 0.27453 0.40309 0.0
N2117 N 0.50949 0.21836 0.3938 0.0
C2118 C 0.42984 0.25328 0.40187 0.0
C2119 C 0.48108 0.22343 0.39682 0.0
N2120 N 0.43538 0.25178 0.45327 0.0
N2121 N 0.4699 0.20997 0.34909 0.0
H2122 H 0.52342 0.21949 0.41102 0.0
H2123 H 0.51942 0.21743 0.37397 0.0
H2124 H 0.45646 0.20704 0.33185 0.0
H2125 H 0.48784 0.19692 0.34817 0.0
H2126 H 0.41593 0.26166 0.45716 0.0
H2127 H 0.44759 0.2477 0.47136 0.0
H2128 H 0.40537 0.28585 0.42152 0.0
H2129 H 0.40069 0.28307 0.38489 0.0
C2130 C 0.06702 0.23607 0.60494 0.0
C2131 C 0.04522 0.21527 0.60522 0.0
C2132 C 0.04101 0.2218 0.65693 0.0
C2133 C 0.06685 0.23732 0.65714 0.0
N2134 N 0.10787 0.25386 0.63001 0.0
N2135 N 0.01503 0.18426 0.63393 0.0
C2136 C 0.08071 0.24342 0.6308 0.0
C2137 C 0.03272 0.20727 0.63178 0.0
N2138 N 0.07483 0.24873 0.57998 0.0
N2139 N 0.02452 0.22056 0.68083 0.0
H2140 H 0.00983 0.17095 0.61712 0.0
H2141 H 0.00804 0.17628 0.65341 0.0
H2142 H 0.02974 0.23146 0.69942 0.0
H2143 H 1.00419 0.21163 0.68099 0.0
H2144 H 0.08909 0.26572 0.57908 0.0
H2145 H 0.06452 0.24448 0.56082 0.0
H2146 H 0.11939 0.25585 0.61114 0.0
H2147 H 0.12032 0.25727 0.64793 0.0
C2148 C 0.07186 0.81174 0.89835 0.0
C2149 C 0.04235 0.81073 0.90526 0.0
C2150 C 0.0334 0.78672 0.85949 0.0
C2151 C 0.06315 0.78539 0.85453 0.0
N2152 N 0.11074 0.78933 0.87361 0.0
N2153 N 0.9955 0.79281 0.89425 0.0
C2154 C 0.08231 0.79518 0.87556 0.0
C2155 C 0.02318 0.79686 0.88634 0.0
N2156 N 0.0897 0.83071 0.91134 0.0
N2157 N 0.01506 0.77846 0.83858 0.0
H2158 H 0.98786 0.79816 0.91437 0.0
H2159 H 0.98076 0.78197 0.8819 0.0
H2160 H 0.02212 0.76979 0.81941 0.0
H2161 H 0.99315 0.78166 0.83953 0.0
H2162 H 0.11076 0.83371 0.90494 0.0
H2163 H 0.08288 0.84635 0.92543 0.0
H2164 H 0.12479 0.79332 0.89028 0.0
H2165 H 0.11977 0.77798 0.85689 0.0
C2166 C 0.49695 0.8122 0.13729 0.0
C2167 C 0.4884 0.80235 0.10985 0.0
C2168 C 0.45471 0.76968 0.13257 0.0
C2169 C 0.46398 0.7787 0.15998 0.0
N2170 N 0.50143 0.80047 0.18724 0.0
N2171 N 0.46799 0.76375 0.08319 0.0
C2172 C 0.48776 0.79711 0.16188 0.0
C2173 C 0.47038 0.77827 0.10817 0.0
N2174 N 0.51154 0.83713 0.14062 0.0
N2175 N 0.42984 0.75501 0.12911 0.0
H2176 H 0.48001 0.76907 0.06526 0.0
H2177 H 0.45686 0.74462 0.08152 0.0
H2178 H 0.41602 0.74984 0.1456 0.0
H2179 H 0.42133 0.75064 0.10913 0.0
H2180 H 0.51513 0.8462 0.1605 0.0
H2181 H 0.51765 0.85046 0.12411 0.0
H2182 H 0.52048 0.81169 0.18916 0.0
H2183 H 0.49551 0.78923 0.20547 0.0
C2184 C 0.36448 0.48523 0.20211 0.0
C2185 C 0.39216 0.47846 0.21251 0.0
C2186 C 0.37029 0.44727 0.24821 0.0
C2187 C 0.34258 0.45605 0.23932 0.0
N2188 N 0.31481 0.4912 0.21437 0.0
N2189 N 0.42013 0.46009 0.25136 0.0
C2190 C 0.34023 0.47777 0.21856 0.0
C2191 C 0.39463 0.46192 0.2376 0.0
N2192 N 0.36078 0.49662 0.17563 0.0
N2193 N 0.374 0.4236 0.26469 0.0
H2194 H 0.4382 0.4711 0.24457 0.0
H2195 H 0.42232 0.45033 0.27115 0.0
H2196 H 0.35751 0.41047 0.27145 0.0
H2197 H 0.39404 0.4151 0.26899 0.0
H2198 H 0.34073 0.49939 0.16658 0.0
H2199 H 0.3773 0.49996 0.16123 0.0
H2200 H 0.31267 0.50876 0.20097 0.0
H2201 H 0.29689 0.48691 0.2268 0.0
C2202 C 0.83176 0.88474 0.04579 0.0
C2203 C 0.81426 0.90915 0.04262 0.0
C2204 C 0.7734 0.88126 0.05952 0.0
C2205 C 0.79185 0.85828 0.06663 0.0
N2206 N 0.84096 0.84476 0.07609 0.0
N2207 N 0.7692 0.93212 0.05119 0.0
C2208 C 0.82168 0.86154 0.06215 0.0
C2209 C 0.78535 0.90797 0.05125 0.0
N2210 N 0.85863 0.88388 0.03462 0.0
N2211 N 0.74457 0.87739 0.05944 0.0
H2212 H 0.77679 0.95158 0.04365 0.0
H2213 H 0.7489 0.93307 0.06011 0.0
H2214 H 0.73513 0.85752 0.06233 0.0
H2215 H 0.73021 0.89303 0.05312 0.0
H2216 H 0.87041 0.86509 0.03371 0.0
H2217 H 0.86843 0.90092 0.02443 0.0
H2218 H 0.86286 0.84816 0.07498 0.0
H2219 H 0.83557 0.83061 0.09225 0.0
C2220 C 0.15186 0.55702 0.69409 0.0
C2221 C 0.15503 0.55846 0.72416 0.0
C2222 C 0.10703 0.53806 0.72917 0.0
C2223 C 0.10599 0.5333 0.69946 0.0
N2224 N 0.13173 0.5314 0.65477 0.0
N2225 N 0.13764 0.54349 0.77024 0.0
C2226 C 0.13005 0.53993 0.68247 0.0
C2227 C 0.13321 0.54685 0.74176 0.0
N2228 N 0.16712 0.57439 0.67634 0.0
N2229 N 0.08309 0.53466 0.74528 0.0
H2230 H 0.15724 0.54759 0.77977 0.0
H2231 H 0.12297 0.53368 0.78368 0.0
H2232 H 0.06397 0.52718 0.73683 0.0
H2233 H 0.08194 0.54073 0.76655 0.0
H2234 H 0.16355 0.57526 0.65449 0.0
H2235 H 0.17982 0.59112 0.68329 0.0
H2236 H 0.15046 0.53335 0.64297 0.0
H2237 H 0.11576 0.52016 0.64438 0.0
C2238 C 0.69343 0.89938 0.92999 0.0
C2239 C 0.70197 0.90942 0.95717 0.0
C2240 C 0.73239 0.86724 0.96288 0.0
C2241 C 0.72455 0.8581 0.93537 0.0
N2242 N 0.70579 0.87081 0.88935 0.0
N2243 N 0.73585 0.9071 0.99526 0.0
C2244 C 0.70786 0.87597 0.91781 0.0
C2245 C 0.72328 0.89455 0.97246 0.0
N2246 N 0.6702 0.91052 0.91645 0.0
N2247 N 0.74809 0.84981 0.97997 0.0
H2248 H 0.72986 0.92713 1.00271 0.0
H2249 H 0.75438 0.89899 1.00416 0.0
H2250 H 0.75577 0.83014 0.97308 0.0
H2251 H 0.75199 0.85419 1.00132 0.0
H2252 H 0.66169 0.90163 0.89804 0.0
H2253 H 0.65732 0.9264 0.92492 0.0
H2254 H 0.69712 0.8856 0.8753 0.0
H2255 H 0.71561 0.85364 0.8794 0.0
C2256 C 0.77352 0.1425 0.45665 0.0
C2257 C 0.79146 0.16061 0.44028 0.0
C2258 C 0.83087 0.1271 0.44652 0.0
C2259 C 0.81218 0.10747 0.45984 0.0
N2260 N 0.76471 0.09452 0.47398 0.0
N2261 N 0.83514 0.16542 0.41296 0.0
C2262 C 0.78316 0.1146 0.46396 0.0
C2263 C 0.81963 0.15176 0.43352 0.0
N2264 N 0.7477 0.15221 0.46585 0.0
N2265 N 0.85957 0.12232 0.44623 0.0
H2266 H 0.82743 0.1822 0.40076 0.0
H2267 H 0.85456 0.1578 0.40538 0.0
H2268 H 0.86883 0.10413 0.45469 0.0
H2269 H 0.87434 0.13764 0.43991 0.0
H2270 H 0.73483 0.14101 0.48004 0.0
H2271 H 0.74039 0.17268 0.46132 0.0
H2272 H 0.74274 0.09746 0.47474 0.0
H2273 H 0.77133 0.07408 0.47963 0.0
C2274 C 0.74579 0.14073 0.54894 0.0
C2275 C 0.72691 0.16056 0.56191 0.0
C2276 C 0.68702 0.12867 0.55153 0.0
C2277 C 0.70628 0.10712 0.54284 0.0
N2278 N 0.75463 0.09118 0.53714 0.0
N2279 N 0.68032 0.16784 0.58347 0.0
C2280 C 0.73592 0.11268 0.54267 0.0
C2281 C 0.69766 0.15323 0.56519 0.0
N2282 N 0.7728 0.14886 0.54187 0.0
N2283 N 0.65839 0.12564 0.54741 0.0
H2284 H 0.68732 0.18389 0.59696 0.0
H2285 H 0.65968 0.16127 0.58835 0.0
H2286 H 0.64935 0.10789 0.53786 0.0
H2287 H 0.64396 0.14214 0.55088 0.0
H2288 H 0.7866 0.13607 0.53012 0.0
H2289 H 0.78026 0.1695 0.54516 0.0
H2290 H 0.77658 0.09332 0.53948 0.0
H2291 H 0.74793 0.07066 0.53192 0.0
C2292 C 0.11919 0.47106 0.78154 0.0
C2293 C 0.11631 0.47453 0.81133 0.0
C2294 C 0.16186 0.4505 0.81824 0.0
C2295 C 0.16689 0.45058 0.78838 0.0
N2296 N 0.15217 0.46708 0.74202 0.0
N2297 N 0.13883 0.47358 0.85764 0.0
C2298 C 0.14608 0.46273 0.77007 0.0
C2299 C 0.13912 0.46672 0.82944 0.0
N2300 N 0.09627 0.47518 0.76427 0.0
N2301 N 0.17648 0.4326 0.83595 0.0
H2302 H 0.12197 0.48382 0.86771 0.0
H2303 H 0.15675 0.47113 0.87048 0.0
H2304 H 0.19042 0.4169 0.8289 0.0
H2305 H 0.17151 0.43034 0.85745 0.0
H2306 H 0.0965 0.47027 0.74267 0.0
H2307 H 0.07649 0.48169 0.77203 0.0
H2308 H 0.13857 0.47799 0.72834 0.0
H2309 H 0.17208 0.46255 0.73327 0.0
C2310 C 0.36539 0.55776 0.31776 0.0
C2311 C 0.36079 0.5592 0.28787 0.0
C2312 C 0.40749 0.53634 0.28047 0.0
C2313 C 0.41012 0.53247 0.31022 0.0
N2314 N 0.38728 0.53218 0.35633 0.0
N2315 N 0.37546 0.54481 0.24083 0.0
C2316 C 0.38743 0.54031 0.32844 0.0
C2317 C 0.38127 0.54688 0.26917 0.0
N2318 N 0.35122 0.57539 0.3361 0.0
N2319 N 0.43002 0.53011 0.26318 0.0
H2320 H 0.35552 0.54956 0.23235 0.0
H2321 H 0.38941 0.53606 0.22609 0.0
H2322 H 0.4488 0.52111 0.2709 0.0
H2323 H 0.43072 0.53522 0.24166 0.0
H2324 H 0.35595 0.57647 0.35771 0.0
H2325 H 0.33808 0.592 0.32966 0.0
H2326 H 0.36953 0.53496 0.36939 0.0
H2327 H 0.40346 0.52026 0.36565 0.0
C2328 C 0.95758 0.72917 0.90275 0.0
C2329 C 0.97827 0.70731 0.90072 0.0
C2330 C 0.97739 0.713 0.84877 0.0
C2331 C 0.95241 0.72972 0.85081 0.0
N2332 N 0.91543 0.74904 0.88148 0.0
N2333 N 1.00308 0.67402 0.86963 0.0
C2334 C 0.94166 0.73687 0.87825 0.0
C2335 C 0.98733 0.69822 0.87318 0.0
N2336 N 0.95317 0.74278 0.928 0.0
N2337 N 0.99154 0.71095 0.82348 0.0
H2338 H 0.00863 0.6603 0.88605 0.0
H2339 H 0.0076 0.66557 0.84965 0.0
H2340 H 0.9852 0.72215 0.8054 0.0
H2341 H 0.01124 0.7009 0.82155 0.0
H2342 H 0.9399 0.76046 0.92992 0.0
H2343 H 0.96542 0.7386 0.94601 0.0
H2344 H 0.90594 0.75188 0.90132 0.0
H2345 H 0.90169 0.75334 0.86471 0.0
C2346 C 0.51087 0.71963 0.14147 0.0
C2347 C 0.52306 0.72221 0.11384 0.0
C2348 C 0.5648 0.74572 0.13362 0.0
C2349 C 0.55458 0.74027 0.16168 0.0
N2350 N 0.51449 0.73041 0.19205 0.0
N2351 N 0.55189 0.75215 0.08421 0.0
C2352 C 0.52641 0.72984 0.16553 0.0
C2353 C 0.54669 0.74035 0.1102 0.0
N2354 N 0.48456 0.70773 0.14466 0.0
N2355 N 0.59249 0.75327 0.12875 0.0
H2356 H 0.53791 0.74928 0.06721 0.0
H2357 H 0.56772 0.76734 0.08079 0.0
H2358 H 0.60776 0.75527 0.1446 0.0
H2359 H 0.60117 0.75452 0.10837 0.0
H2360 H 0.47613 0.70119 0.16406 0.0
H2361 H 0.47046 0.70567 0.12772 0.0
H2362 H 0.4935 0.72488 0.19643 0.0
H2363 H 0.52508 0.73887 0.20958 0.0
C2364 C 0.5785 0.29316 0.38407 0.0
C2365 C 0.55959 0.28424 0.36241 0.0
C2366 C 0.51927 0.29871 0.3925 0.0
C2367 C 0.53851 0.31206 0.41172 0.0
N2368 N 0.58679 0.32943 0.41881 0.0
N2369 N 0.51177 0.27939 0.345 0.0
C2370 C 0.56827 0.31103 0.40594 0.0
C2371 C 0.52981 0.28736 0.36629 0.0
N2372 N 0.60661 0.28568 0.38345 0.0
N2373 N 0.49116 0.29644 0.39952 0.0
H2374 H 0.51898 0.2695 0.32648 0.0
H2375 H 0.49004 0.28372 0.34502 0.0
H2376 H 0.48324 0.30207 0.41945 0.0
H2377 H 0.47612 0.28675 0.38661 0.0
H2378 H 0.62004 0.289 0.40076 0.0
H2379 H 0.61592 0.27383 0.36725 0.0
H2380 H 0.60821 0.33086 0.41312 0.0
H2381 H 0.58052 0.34621 0.4318 0.0
C2382 C 0.98083 0.28769 0.64888 0.0
C2383 C 0.95099 0.28482 0.65252 0.0
C2384 C 0.94322 0.31023 0.60785 0.0
C2385 C 0.97301 0.31031 0.60224 0.0
N2386 N 0.01979 0.2937 0.6154 0.0
N2387 N 0.90409 0.28681 0.6312 0.0
C2388 C 0.99177 0.29737 0.62218 0.0
C2389 C 0.9324 0.29348 0.63041 0.0
N2390 N 0.99864 0.28152 0.67093 0.0
N2391 N 0.92528 0.32848 0.59395 0.0
H2392 H 0.89434 0.27605 0.64792 0.0
H2393 H 0.89081 0.28983 0.61371 0.0
H2394 H 0.93214 0.34438 0.58013 0.0
H2395 H 0.90386 0.3307 0.59934 0.0
H2396 H 0.02032 0.28618 0.67069 0.0
H2397 H 0.99127 0.27332 0.69022 0.0
H2398 H 0.0341 0.28311 0.62851 0.0
H2399 H 0.02808 0.29876 0.59544 0.0
loop_
_geom_bond_atom_site_label_1
_geom_bond_atom_site_label_2
_geom_bond_distance
_geom_bond_site_symmetry_2
_ccdc_geom_bond_type
O0 Cd1 2.223 . S
O0 C8 1.315 . S
Cd1 O0 2.223 . S
Cd1 O4 2.297 . S
Cd1 O5 2.439 . S
Cd1 O11 2.240 . S
Cd2 O3 2.240 . S
Cd2 O10 2.223 . S
Cd2 O12 2.297 . S
Cd2 O13 2.439 . S
O3 Cd2 2.240 . S
O3 C8 1.279 . S
O4 Cd1 2.297 . S
O4 C6 1.247 . S
O5 Cd1 2.439 . S
O5 C6 1.208 . S
C6 O4 1.247 . S
C6 O5 1.208 . S
C7 O12 1.247 . S
C7 O13 1.208 . S
C8 O0 1.315 . S
C8 O3 1.279 . S
C9 O10 1.315 . S
C9 O11 1.279 . S
O10 Cd2 2.223 . S
O10 C9 1.315 . S
O11 Cd1 2.240 . S
O11 C9 1.279 . S
O12 Cd2 2.297 . S
O12 C7 1.247 . S
O13 Cd2 2.439 . S
O13 C7 1.208 . S
O14 Cd15 2.223 . S
O14 C22 1.315 . S
Cd15 O14 2.223 . S
Cd15 O18 2.297 . S
Cd15 O19 2.439 . S
Cd15 O25 2.240 1_455 S
Cd16 O17 2.240 1_655 S
Cd16 O24 2.223 . S
Cd16 O26 2.297 . S
Cd16 O27 2.439 . S
O17 Cd16 2.240 1_455 S
O17 C22 1.279 . S
O18 Cd15 2.297 . S
O18 C20 1.247 . S
O19 Cd15 2.439 . S
O19 C20 1.208 . S
C20 O18 1.247 . S
C20 O19 1.208 . S
C21 O26 1.247 . S
C21 O27 1.208 . S
C22 O14 1.315 . S
C22 O17 1.279 . S
C23 O24 1.315 . S
C23 O25 1.279 . S
O24 Cd16 2.223 . S
O24 C23 1.315 . S
O25 Cd15 2.240 1_655 S
O25 C23 1.279 . S
O26 Cd16 2.297 . S
O26 C21 1.247 . S
O27 Cd16 2.439 . S
O27 C21 1.208 . S
O28 Cd29 2.223 . S
O28 C36 1.315 . S
Cd29 O28 2.223 . S
Cd29 O32 2.297 . S
Cd29 O33 2.439 . S
Cd29 O39 2.240 . S
Cd30 O31 2.240 . S
Cd30 O38 2.223 . S
Cd30 O40 2.297 . S
Cd30 O41 2.439 . S
O31 Cd30 2.240 . S
O31 C36 1.279 . S
O32 Cd29 2.297 . S
O32 C34 1.247 . S
O33 Cd29 2.439 . S
O33 C34 1.208 . S
C34 O32 1.247 . S
C34 O33 1.208 . S
C35 O40 1.247 . S
C35 O41 1.208 . S
C36 O28 1.315 . S
C36 O31 1.279 . S
C37 O38 1.315 . S
C37 O39 1.279 . S
O38 Cd30 2.223 . S
O38 C37 1.315 . S
O39 Cd29 2.240 . S
O39 C37 1.279 . S
O40 Cd30 2.297 . S
O40 C35 1.247 . S
O41 Cd30 2.439 . S
O41 C35 1.208 . S
O42 Cd43 2.223 . S
O42 C50 1.315 . S
Cd43 O42 2.223 . S
Cd43 O46 2.297 . S
Cd43 O47 2.439 . S
Cd43 O53 2.240 . S
Cd44 O45 2.240 . S
Cd44 O52 2.223 . S
Cd44 O54 2.297 . S
Cd44 O55 2.439 . S
O45 Cd44 2.240 . S
O45 C50 1.279 . S
O46 Cd43 2.297 . S
O46 C48 1.247 . S
O47 Cd43 2.439 . S
O47 C48 1.208 . S
C48 O46 1.247 . S
C48 O47 1.208 . S
C49 O54 1.247 . S
C49 O55 1.208 . S
C50 O42 1.315 . S
C50 O45 1.279 . S
C51 O52 1.315 . S
C51 O53 1.279 . S
O52 Cd44 2.223 . S
O52 C51 1.315 . S
O53 Cd43 2.240 . S
O53 C51 1.279 . S
O54 Cd44 2.297 . S
O54 C49 1.247 . S
O55 Cd44 2.439 . S
O55 C49 1.208 . S
O56 Cd57 2.223 . S
O56 C64 1.315 . S
Cd57 O56 2.223 . S
Cd57 O60 2.297 . S
Cd57 O61 2.439 . S
Cd57 O67 2.240 . S
Cd58 O59 2.240 . S
Cd58 O66 2.223 . S
Cd58 O68 2.297 . S
Cd58 O69 2.439 . S
O59 Cd58 2.240 . S
O59 C64 1.279 . S
O60 Cd57 2.297 . S
O60 C62 1.247 . S
O61 Cd57 2.439 . S
O61 C62 1.208 . S
C62 O60 1.247 . S
C62 O61 1.208 . S
C63 O68 1.247 . S
C63 O69 1.208 . S
C64 O56 1.315 . S
C64 O59 1.279 . S
C65 O66 1.315 . S
C65 O67 1.279 . S
O66 Cd58 2.223 . S
O66 C65 1.315 . S
O67 Cd57 2.240 . S
O67 C65 1.279 . S
O68 Cd58 2.297 . S
O68 C63 1.247 . S
O69 Cd58 2.439 . S
O69 C63 1.208 . S
O70 Cd71 2.223 . S
O70 C78 1.315 . S
Cd71 O70 2.223 . S
Cd71 O74 2.297 . S
Cd71 O75 2.439 . S
Cd71 O81 2.240 . S
Cd72 O73 2.240 . S
Cd72 O80 2.223 . S
Cd72 O82 2.297 . S
Cd72 O83 2.439 . S
O73 Cd72 2.240 . S
O73 C78 1.279 . S
O74 Cd71 2.297 . S
O74 C76 1.247 . S
O75 Cd71 2.439 . S
O75 C76 1.208 . S
C76 O74 1.247 . S
C76 O75 1.208 . S
C77 O82 1.247 . S
C77 O83 1.208 . S
C78 O70 1.315 . S
C78 O73 1.279 . S
C79 O80 1.315 . S
C79 O81 1.279 . S
O80 Cd72 2.223 . S
O80 C79 1.315 . S
O81 Cd71 2.240 . S
O81 C79 1.279 . S
O82 Cd72 2.297 . S
O82 C77 1.247 . S
O83 Cd72 2.439 . S
O83 C77 1.208 . S
O84 Cd85 2.223 . S
O84 C92 1.315 . S
Cd85 O84 2.223 . S
Cd85 O88 2.297 . S
Cd85 O89 2.439 . S
Cd85 O95 2.240 . S
Cd86 O87 2.240 . S
Cd86 O94 2.223 . S
Cd86 O96 2.297 . S
Cd86 O97 2.439 . S
O87 Cd86 2.240 . S
O87 C92 1.279 . S
O88 Cd85 2.297 . S
O88 C90 1.247 . S
O89 Cd85 2.439 . S
O89 C90 1.208 . S
C90 O88 1.247 . S
C90 O89 1.208 . S
C91 O96 1.247 . S
C91 O97 1.208 . S
C92 O84 1.315 . S
C92 O87 1.279 . S
C93 O94 1.315 . S
C93 O95 1.279 . S
O94 Cd86 2.223 . S
O94 C93 1.315 . S
O95 Cd85 2.240 . S
O95 C93 1.279 . S
O96 Cd86 2.297 . S
O96 C91 1.247 . S
O97 Cd86 2.439 . S
O97 C91 1.208 . S
O98 Cd99 2.223 . S
O98 C106 1.315 . S
Cd99 O98 2.223 . S
Cd99 O102 2.297 . S
Cd99 O103 2.439 . S
Cd99 O109 2.240 1_455 S
Cd100 O101 2.240 1_655 S
Cd100 O108 2.223 . S
Cd100 O110 2.297 . S
Cd100 O111 2.439 . S
O101 Cd100 2.240 1_455 S
O101 C106 1.279 . S
O102 Cd99 2.297 . S
O102 C104 1.247 . S
O103 Cd99 2.439 . S
O103 C104 1.208 . S
C104 O102 1.247 . S
C104 O103 1.208 . S
C105 O110 1.247 . S
C105 O111 1.208 . S
C106 O98 1.315 . S
C106 O101 1.279 . S
C107 O108 1.315 . S
C107 O109 1.279 . S
O108 Cd100 2.223 . S
O108 C107 1.315 . S
O109 Cd99 2.240 1_655 S
O109 C107 1.279 . S
O110 Cd100 2.297 . S
O110 C105 1.247 . S
O111 Cd100 2.439 . S
O111 C105 1.208 . S
O112 Cd113 2.223 . S
O112 C120 1.315 . S
Cd113 O112 2.223 . S
Cd113 O116 2.297 . S
Cd113 O117 2.439 . S
Cd113 O123 2.240 . S
Cd114 O115 2.240 . S
Cd114 O122 2.223 . S
Cd114 O124 2.297 . S
Cd114 O125 2.439 . S
O115 Cd114 2.240 . S
O115 C120 1.279 . S
O116 Cd113 2.297 . S
O116 C118 1.247 . S
O117 Cd113 2.439 . S
O117 C118 1.208 . S
C118 O116 1.247 . S
C118 O117 1.208 . S
C119 O124 1.247 . S
C119 O125 1.208 . S
C120 O112 1.315 . S
C120 O115 1.279 . S
C121 O122 1.315 . S
C121 O123 1.279 . S
O122 Cd114 2.223 . S
O122 C121 1.315 . S
O123 Cd113 2.240 . S
O123 C121 1.279 . S
O124 Cd114 2.297 . S
O124 C119 1.247 . S
O125 Cd114 2.439 . S
O125 C119 1.208 . S
O126 Cd127 2.223 . S
O126 C134 1.315 . S
Cd127 O126 2.223 . S
Cd127 O130 2.297 . S
Cd127 O131 2.439 . S
Cd127 O137 2.240 . S
Cd128 O129 2.240 . S
Cd128 O136 2.223 . S
Cd128 O138 2.297 . S
Cd128 O139 2.439 . S
O129 Cd128 2.240 . S
O129 C134 1.279 . S
O130 Cd127 2.297 . S
O130 C132 1.247 . S
O131 Cd127 2.439 . S
O131 C132 1.208 . S
C132 O130 1.247 . S
C132 O131 1.208 . S
C133 O138 1.247 . S
C133 O139 1.208 . S
C134 O126 1.315 . S
C134 O129 1.279 . S
C135 O136 1.315 . S
C135 O137 1.279 . S
O136 Cd128 2.223 . S
O136 C135 1.315 . S
O137 Cd127 2.240 . S
O137 C135 1.279 . S
O138 Cd128 2.297 . S
O138 C133 1.247 . S
O139 Cd128 2.439 . S
O139 C133 1.208 . S
O140 Cd141 2.223 . S
O140 C148 1.315 . S
Cd141 O140 2.223 . S
Cd141 O144 2.297 . S
Cd141 O145 2.439 . S
Cd141 O151 2.240 . S
Cd142 O143 2.240 . S
Cd142 O150 2.223 . S
Cd142 O152 2.297 . S
Cd142 O153 2.439 . S
O143 Cd142 2.240 . S
O143 C148 1.279 . S
O144 Cd141 2.297 . S
O144 C146 1.247 . S
O145 Cd141 2.439 . S
O145 C146 1.208 . S
C146 O144 1.247 . S
C146 O145 1.208 . S
C147 O152 1.247 . S
C147 O153 1.208 . S
C148 O140 1.315 . S
C148 O143 1.279 . S
C149 O150 1.315 . S
C149 O151 1.279 . S
O150 Cd142 2.223 . S
O150 C149 1.315 . S
O151 Cd141 2.240 . S
O151 C149 1.279 . S
O152 Cd142 2.297 . S
O152 C147 1.247 . S
O153 Cd142 2.439 . S
O153 C147 1.208 . S
O154 Cd155 2.223 . S
O154 C162 1.315 . S
Cd155 O154 2.223 . S
Cd155 O158 2.297 . S
Cd155 O159 2.439 . S
Cd155 O165 2.240 1_556 S
Cd156 O157 2.240 1_554 S
Cd156 O164 2.223 . S
Cd156 O166 2.297 . S
Cd156 O167 2.439 . S
O157 Cd156 2.240 1_556 S
O157 C162 1.279 . S
O158 Cd155 2.297 . S
O158 C160 1.247 . S
O159 Cd155 2.439 . S
O159 C160 1.208 . S
C160 O158 1.247 . S
C160 O159 1.208 . S
C161 O166 1.247 . S
C161 O167 1.208 . S
C162 O154 1.315 . S
C162 O157 1.279 . S
C163 O164 1.315 . S
C163 O165 1.279 . S
O164 Cd156 2.223 . S
O164 C163 1.315 . S
O165 Cd155 2.240 1_554 S
O165 C163 1.279 . S
O166 Cd156 2.297 . S
O166 C161 1.247 . S
O167 Cd156 2.439 . S
O167 C161 1.208 . S
O168 Cd169 2.223 . S
O168 C176 1.315 . S
Cd169 O168 2.223 . S
Cd169 O172 2.297 . S
Cd169 O173 2.439 . S
Cd169 O179 2.240 . S
Cd170 O171 2.240 . S
Cd170 O178 2.223 . S
Cd170 O180 2.297 . S
Cd170 O181 2.439 . S
O171 Cd170 2.240 . S
O171 C176 1.279 . S
O172 Cd169 2.297 . S
O172 C174 1.247 . S
O173 Cd169 2.439 . S
O173 C174 1.208 . S
C174 O172 1.247 . S
C174 O173 1.208 . S
C175 O180 1.247 . S
C175 O181 1.208 . S
C176 O168 1.315 . S
C176 O171 1.279 . S
C177 O178 1.315 . S
C177 O179 1.279 . S
O178 Cd170 2.223 . S
O178 C177 1.315 . S
O179 Cd169 2.240 . S
O179 C177 1.279 . S
O180 Cd170 2.297 . S
O180 C175 1.247 . S
O181 Cd170 2.439 . S
O181 C175 1.208 . S
O182 Cd183 2.223 . S
O182 C190 1.315 . S
Cd183 O182 2.223 . S
Cd183 O186 2.297 . S
Cd183 O187 2.439 . S
Cd183 O193 2.240 . S
Cd184 O185 2.240 . S
Cd184 O192 2.223 . S
Cd184 O194 2.297 . S
Cd184 O195 2.439 . S
O185 Cd184 2.240 . S
O185 C190 1.279 . S
O186 Cd183 2.297 . S
O186 C188 1.247 . S
O187 Cd183 2.439 . S
O187 C188 1.208 . S
C188 O186 1.247 . S
C188 O187 1.208 . S
C189 O194 1.247 . S
C189 O195 1.208 . S
C190 O182 1.315 . S
C190 O185 1.279 . S
C191 O192 1.315 . S
C191 O193 1.279 . S
O192 Cd184 2.223 . S
O192 C191 1.315 . S
O193 Cd183 2.240 . S
O193 C191 1.279 . S
O194 Cd184 2.297 . S
O194 C189 1.247 . S
O195 Cd184 2.439 . S
O195 C189 1.208 . S
O196 Cd197 2.223 . S
O196 C204 1.315 . S
Cd197 O196 2.223 . S
Cd197 O200 2.297 . S
Cd197 O201 2.439 . S
Cd197 O207 2.240 . S
Cd198 O199 2.240 . S
Cd198 O206 2.223 . S
Cd198 O208 2.297 . S
Cd198 O209 2.439 . S
O199 Cd198 2.240 . S
O199 C204 1.279 . S
O200 Cd197 2.297 . S
O200 C202 1.247 . S
O201 Cd197 2.439 . S
O201 C202 1.208 . S
C202 O200 1.247 . S
C202 O201 1.208 . S
C203 O208 1.247 . S
C203 O209 1.208 . S
C204 O196 1.315 . S
C204 O199 1.279 . S
C205 O206 1.315 . S
C205 O207 1.279 . S
O206 Cd198 2.223 . S
O206 C205 1.315 . S
O207 Cd197 2.240 . S
O207 C205 1.279 . S
O208 Cd198 2.297 . S
O208 C203 1.247 . S
O209 Cd198 2.439 . S
O209 C203 1.208 . S
O210 Cd211 2.223 . S
O210 C218 1.315 . S
Cd211 O210 2.223 . S
Cd211 O214 2.297 . S
Cd211 O215 2.439 . S
Cd211 O221 2.240 1_554 S
Cd212 O213 2.240 1_556 S
Cd212 O220 2.223 . S
Cd212 O222 2.297 . S
Cd212 O223 2.439 . S
O213 Cd212 2.240 1_554 S
O213 C218 1.279 . S
O214 Cd211 2.297 . S
O214 C216 1.247 . S
O215 Cd211 2.439 . S
O215 C216 1.208 . S
C216 O214 1.247 . S
C216 O215 1.208 . S
C217 O222 1.247 . S
C217 O223 1.208 . S
C218 O210 1.315 . S
C218 O213 1.279 . S
C219 O220 1.315 . S
C219 O221 1.279 . S
O220 Cd212 2.223 . S
O220 C219 1.315 . S
O221 Cd211 2.240 1_556 S
O221 C219 1.279 . S
O222 Cd212 2.297 . S
O222 C217 1.247 . S
O223 Cd212 2.439 . S
O223 C217 1.208 . S
O224 Cd225 2.223 . S
O224 C232 1.315 . S
Cd225 O224 2.223 . S
Cd225 O228 2.297 . S
Cd225 O229 2.439 . S
Cd225 O235 2.240 . S
Cd226 O227 2.240 . S
Cd226 O234 2.223 . S
Cd226 O236 2.297 . S
Cd226 O237 2.439 . S
O227 Cd226 2.240 . S
O227 C232 1.279 . S
O228 Cd225 2.297 . S
O228 C230 1.247 . S
O229 Cd225 2.439 . S
O229 C230 1.208 . S
C230 O228 1.247 . S
C230 O229 1.208 . S
C231 O236 1.247 . S
C231 O237 1.208 . S
C232 O224 1.315 . S
C232 O227 1.279 . S
C233 O234 1.315 . S
C233 O235 1.279 . S
O234 Cd226 2.223 . S
O234 C233 1.315 . S
O235 Cd225 2.240 . S
O235 C233 1.279 . S
O236 Cd226 2.297 . S
O236 C231 1.247 . S
O237 Cd226 2.439 . S
O237 C231 1.208 . S
O238 Cd239 2.223 . S
O238 C246 1.315 . S
Cd239 O238 2.223 . S
Cd239 O242 2.297 . S
Cd239 O243 2.439 . S
Cd239 O249 2.240 . S
Cd240 O241 2.240 . S
Cd240 O248 2.223 . S
Cd240 O250 2.297 . S
Cd240 O251 2.439 . S
O241 Cd240 2.240 . S
O241 C246 1.279 . S
O242 Cd239 2.297 . S
O242 C244 1.247 . S
O243 Cd239 2.439 . S
O243 C244 1.208 . S
C244 O242 1.247 . S
C244 O243 1.208 . S
C245 O250 1.247 . S
C245 O251 1.208 . S
C246 O238 1.315 . S
C246 O241 1.279 . S
C247 O248 1.315 . S
C247 O249 1.279 . S
O248 Cd240 2.223 . S
O248 C247 1.315 . S
O249 Cd239 2.240 . S
O249 C247 1.279 . S
O250 Cd240 2.297 . S
O250 C245 1.247 . S
O251 Cd240 2.439 . S
O251 C245 1.208 . S
O252 Cd253 2.223 . S
O252 C260 1.315 . S
Cd253 O252 2.223 . S
Cd253 O256 2.297 . S
Cd253 O257 2.439 . S
Cd253 O263 2.240 . S
Cd254 O255 2.240 . S
Cd254 O262 2.223 . S
Cd254 O264 2.297 . S
Cd254 O265 2.439 . S
O255 Cd254 2.240 . S
O255 C260 1.279 . S
O256 Cd253 2.297 . S
O256 C258 1.247 . S
O257 Cd253 2.439 . S
O257 C258 1.208 . S
C258 O256 1.247 . S
C258 O257 1.208 . S
C259 O264 1.247 . S
C259 O265 1.208 . S
C260 O252 1.315 . S
C260 O255 1.279 . S
C261 O262 1.315 . S
C261 O263 1.279 . S
O262 Cd254 2.223 . S
O262 C261 1.315 . S
O263 Cd253 2.240 . S
O263 C261 1.279 . S
O264 Cd254 2.297 . S
O264 C259 1.247 . S
O265 Cd254 2.439 . S
O265 C259 1.208 . S
O266 Cd267 2.223 . S
O266 C274 1.315 . S
Cd267 O266 2.223 . S
Cd267 O270 2.297 . S
Cd267 O271 2.439 . S
Cd267 O277 2.240 . S
Cd268 O269 2.240 . S
Cd268 O276 2.223 . S
Cd268 O278 2.297 . S
Cd268 O279 2.439 . S
O269 Cd268 2.240 . S
O269 C274 1.279 . S
O270 Cd267 2.297 . S
O270 C272 1.247 . S
O271 Cd267 2.439 . S
O271 C272 1.208 . S
C272 O270 1.247 . S
C272 O271 1.208 . S
C273 O278 1.247 . S
C273 O279 1.208 . S
C274 O266 1.315 . S
C274 O269 1.279 . S
C275 O276 1.315 . S
C275 O277 1.279 . S
O276 Cd268 2.223 . S
O276 C275 1.315 . S
O277 Cd267 2.240 . S
O277 C275 1.279 . S
O278 Cd268 2.297 . S
O278 C273 1.247 . S
O279 Cd268 2.439 . S
O279 C273 1.208 . S
O280 Cd281 2.223 . S
O280 C288 1.315 . S
Cd281 O280 2.223 . S
Cd281 O284 2.297 . S
Cd281 O285 2.439 . S
Cd281 O291 2.240 1_545 S
Cd282 O283 2.240 1_565 S
Cd282 O290 2.223 . S
Cd282 O292 2.297 . S
Cd282 O293 2.439 . S
O283 Cd282 2.240 1_545 S
O283 C288 1.279 . S
O284 Cd281 2.297 . S
O284 C286 1.247 . S
O285 Cd281 2.439 . S
O285 C286 1.208 . S
C286 O284 1.247 . S
C286 O285 1.208 . S
C287 O292 1.247 . S
C287 O293 1.208 . S
C288 O280 1.315 . S
C288 O283 1.279 . S
C289 O290 1.315 . S
C289 O291 1.279 . S
O290 Cd282 2.223 . S
O290 C289 1.315 . S
O291 Cd281 2.240 1_565 S
O291 C289 1.279 . S
O292 Cd282 2.297 . S
O292 C287 1.247 . S
O293 Cd282 2.439 . S
O293 C287 1.208 . S
O294 Cd295 2.223 . S
O294 C302 1.315 . S
Cd295 O294 2.223 . S
Cd295 O298 2.297 . S
Cd295 O299 2.439 . S
Cd295 O305 2.240 . S
Cd296 O297 2.240 . S
Cd296 O304 2.223 . S
Cd296 O306 2.297 . S
Cd296 O307 2.439 . S
O297 Cd296 2.240 . S
O297 C302 1.279 . S
O298 Cd295 2.297 . S
O298 C300 1.247 . S
O299 Cd295 2.439 . S
O299 C300 1.208 . S
C300 O298 1.247 . S
C300 O299 1.208 . S
C301 O306 1.247 . S
C301 O307 1.208 . S
C302 O294 1.315 . S
C302 O297 1.279 . S
C303 O304 1.315 . S
C303 O305 1.279 . S
O304 Cd296 2.223 . S
O304 C303 1.315 . S
O305 Cd295 2.240 . S
O305 C303 1.279 . S
O306 Cd296 2.297 . S
O306 C301 1.247 . S
O307 Cd296 2.439 . S
O307 C301 1.208 . S
O308 Cd309 2.223 . S
O308 C316 1.315 . S
Cd309 O308 2.223 . S
Cd309 O312 2.297 . S
Cd309 O313 2.439 . S
Cd309 O319 2.240 . S
Cd310 O311 2.240 . S
Cd310 O318 2.223 . S
Cd310 O320 2.297 . S
Cd310 O321 2.439 . S
O311 Cd310 2.240 . S
O311 C316 1.279 . S
O312 Cd309 2.297 . S
O312 C314 1.247 . S
O313 Cd309 2.439 . S
O313 C314 1.208 . S
C314 O312 1.247 . S
C314 O313 1.208 . S
C315 O320 1.247 . S
C315 O321 1.208 . S
C316 O308 1.315 . S
C316 O311 1.279 . S
C317 O318 1.315 . S
C317 O319 1.279 . S
O318 Cd310 2.223 . S
O318 C317 1.315 . S
O319 Cd309 2.240 . S
O319 C317 1.279 . S
O320 Cd310 2.297 . S
O320 C315 1.247 . S
O321 Cd310 2.439 . S
O321 C315 1.208 . S
O322 Cd323 2.223 . S
O322 C330 1.315 . S
Cd323 O322 2.223 . S
Cd323 O326 2.297 . S
Cd323 O327 2.439 . S
Cd323 O333 2.240 . S
Cd324 O325 2.240 . S
Cd324 O332 2.223 . S
Cd324 O334 2.297 . S
Cd324 O335 2.439 . S
O325 Cd324 2.240 . S
O325 C330 1.279 . S
O326 Cd323 2.297 . S
O326 C328 1.247 . S
O327 Cd323 2.439 . S
O327 C328 1.208 . S
C328 O326 1.247 . S
C328 O327 1.208 . S
C329 O334 1.247 . S
C329 O335 1.208 . S
C330 O322 1.315 . S
C330 O325 1.279 . S
C331 O332 1.315 . S
C331 O333 1.279 . S
O332 Cd324 2.223 . S
O332 C331 1.315 . S
O333 Cd323 2.240 . S
O333 C331 1.279 . S
O334 Cd324 2.297 . S
O334 C329 1.247 . S
O335 Cd324 2.439 . S
O335 C329 1.208 . S
O336 Cd337 2.223 . S
O336 C344 1.315 . S
Cd337 O336 2.223 . S
Cd337 O340 2.297 . S
Cd337 O341 2.439 . S
Cd337 O347 2.240 . S
Cd338 O339 2.240 . S
Cd338 O346 2.223 . S
Cd338 O348 2.297 . S
Cd338 O349 2.439 . S
O339 Cd338 2.240 . S
O339 C344 1.279 . S
O340 Cd337 2.297 . S
O340 C342 1.247 . S
O341 Cd337 2.439 . S
O341 C342 1.208 . S
C342 O340 1.247 . S
C342 O341 1.208 . S
C343 O348 1.247 . S
C343 O349 1.208 . S
C344 O336 1.315 . S
C344 O339 1.279 . S
C345 O346 1.315 . S
C345 O347 1.279 . S
O346 Cd338 2.223 . S
O346 C345 1.315 . S
O347 Cd337 2.240 . S
O347 C345 1.279 . S
O348 Cd338 2.297 . S
O348 C343 1.247 . S
O349 Cd338 2.439 . S
O349 C343 1.208 . S
O350 Cd351 2.223 . S
O350 C358 1.315 . S
Cd351 O350 2.223 . S
Cd351 O354 2.297 . S
Cd351 O355 2.439 . S
Cd351 O361 2.240 . S
Cd352 O353 2.240 . S
Cd352 O360 2.223 . S
Cd352 O362 2.297 . S
Cd352 O363 2.439 . S
O353 Cd352 2.240 . S
O353 C358 1.279 . S
O354 Cd351 2.297 . S
O354 C356 1.247 . S
O355 Cd351 2.439 . S
O355 C356 1.208 . S
C356 O354 1.247 . S
C356 O355 1.208 . S
C357 O362 1.247 . S
C357 O363 1.208 . S
C358 O350 1.315 . S
C358 O353 1.279 . S
C359 O360 1.315 . S
C359 O361 1.279 . S
O360 Cd352 2.223 . S
O360 C359 1.315 . S
O361 Cd351 2.240 . S
O361 C359 1.279 . S
O362 Cd352 2.297 . S
O362 C357 1.247 . S
O363 Cd352 2.439 . S
O363 C357 1.208 . S
O364 Cd365 2.223 . S
O364 C372 1.315 . S
Cd365 O364 2.223 . S
Cd365 O368 2.297 . S
Cd365 O369 2.439 . S
Cd365 O375 2.240 . S
Cd366 O367 2.240 . S
Cd366 O374 2.223 . S
Cd366 O376 2.297 . S
Cd366 O377 2.439 . S
O367 Cd366 2.240 . S
O367 C372 1.279 . S
O368 Cd365 2.297 . S
O368 C370 1.247 . S
O369 Cd365 2.439 . S
O369 C370 1.208 . S
C370 O368 1.247 . S
C370 O369 1.208 . S
C371 O376 1.247 . S
C371 O377 1.208 . S
C372 O364 1.315 . S
C372 O367 1.279 . S
C373 O374 1.315 . S
C373 O375 1.279 . S
O374 Cd366 2.223 . S
O374 C373 1.315 . S
O375 Cd365 2.240 . S
O375 C373 1.279 . S
O376 Cd366 2.297 . S
O376 C371 1.247 . S
O377 Cd366 2.439 . S
O377 C371 1.208 . S
O378 Cd379 2.223 . S
O378 C386 1.315 . S
Cd379 O378 2.223 . S
Cd379 O382 2.297 . S
Cd379 O383 2.439 . S
Cd379 O389 2.240 1_655 S
Cd380 O381 2.240 1_455 S
Cd380 O388 2.223 . S
Cd380 O390 2.297 . S
Cd380 O391 2.439 . S
O381 Cd380 2.240 1_655 S
O381 C386 1.279 . S
O382 Cd379 2.297 . S
O382 C384 1.247 . S
O383 Cd379 2.439 . S
O383 C384 1.208 . S
C384 O382 1.247 . S
C384 O383 1.208 . S
C385 O390 1.247 . S
C385 O391 1.208 . S
C386 O378 1.315 . S
C386 O381 1.279 . S
C387 O388 1.315 . S
C387 O389 1.279 . S
O388 Cd380 2.223 . S
O388 C387 1.315 . S
O389 Cd379 2.240 1_455 S
O389 C387 1.279 . S
O390 Cd380 2.297 . S
O390 C385 1.247 . S
O391 Cd380 2.439 . S
O391 C385 1.208 . S
O392 Cd393 2.223 . S
O392 C400 1.315 . S
Cd393 O392 2.223 . S
Cd393 O396 2.297 . S
Cd393 O397 2.439 . S
Cd393 O403 2.240 . S
Cd394 O395 2.240 . S
Cd394 O402 2.223 . S
Cd394 O404 2.297 . S
Cd394 O405 2.439 . S
O395 Cd394 2.240 . S
O395 C400 1.279 . S
O396 Cd393 2.297 . S
O396 C398 1.247 . S
O397 Cd393 2.439 . S
O397 C398 1.208 . S
C398 O396 1.247 . S
C398 O397 1.208 . S
C399 O404 1.247 . S
C399 O405 1.208 . S
C400 O392 1.315 . S
C400 O395 1.279 . S
C401 O402 1.315 . S
C401 O403 1.279 . S
O402 Cd394 2.223 . S
O402 C401 1.315 . S
O403 Cd393 2.240 . S
O403 C401 1.279 . S
O404 Cd394 2.297 . S
O404 C399 1.247 . S
O405 Cd394 2.439 . S
O405 C399 1.208 . S
O406 Cd407 2.223 . S
O406 C414 1.315 . S
Cd407 O406 2.223 . S
Cd407 O410 2.297 . S
Cd407 O411 2.439 . S
Cd407 O417 2.240 1_655 S
Cd408 O409 2.240 1_455 S
Cd408 O416 2.223 . S
Cd408 O418 2.297 . S
Cd408 O419 2.439 . S
O409 Cd408 2.240 1_655 S
O409 C414 1.279 . S
O410 Cd407 2.297 . S
O410 C412 1.247 . S
O411 Cd407 2.439 . S
O411 C412 1.208 . S
C412 O410 1.247 . S
C412 O411 1.208 . S
C413 O418 1.247 . S
C413 O419 1.208 . S
C414 O406 1.315 . S
C414 O409 1.279 . S
C415 O416 1.315 . S
C415 O417 1.279 . S
O416 Cd408 2.223 . S
O416 C415 1.315 . S
O417 Cd407 2.240 1_455 S
O417 C415 1.279 . S
O418 Cd408 2.297 . S
O418 C413 1.247 . S
O419 Cd408 2.439 . S
O419 C413 1.208 . S
O420 Cd421 2.223 . S
O420 C428 1.315 . S
Cd421 O420 2.223 . S
Cd421 O424 2.297 . S
Cd421 O425 2.439 . S
Cd421 O431 2.240 . S
Cd422 O423 2.240 . S
Cd422 O430 2.223 . S
Cd422 O432 2.297 . S
Cd422 O433 2.439 . S
O423 Cd422 2.240 . S
O423 C428 1.279 . S
O424 Cd421 2.297 . S
O424 C426 1.247 . S
O425 Cd421 2.439 . S
O425 C426 1.208 . S
C426 O424 1.247 . S
C426 O425 1.208 . S
C427 O432 1.247 . S
C427 O433 1.208 . S
C428 O420 1.315 . S
C428 O423 1.279 . S
C429 O430 1.315 . S
C429 O431 1.279 . S
O430 Cd422 2.223 . S
O430 C429 1.315 . S
O431 Cd421 2.240 . S
O431 C429 1.279 . S
O432 Cd422 2.297 . S
O432 C427 1.247 . S
O433 Cd422 2.439 . S
O433 C427 1.208 . S
O434 Cd435 2.223 . S
O434 C442 1.315 . S
Cd435 O434 2.223 . S
Cd435 O438 2.297 . S
Cd435 O439 2.439 . S
Cd435 O445 2.240 . S
Cd436 O437 2.240 . S
Cd436 O444 2.223 . S
Cd436 O446 2.297 . S
Cd436 O447 2.439 . S
O437 Cd436 2.240 . S
O437 C442 1.279 . S
O438 Cd435 2.297 . S
O438 C440 1.247 . S
O439 Cd435 2.439 . S
O439 C440 1.208 . S
C440 O438 1.247 . S
C440 O439 1.208 . S
C441 O446 1.247 . S
C441 O447 1.208 . S
C442 O434 1.315 . S
C442 O437 1.279 . S
C443 O444 1.315 . S
C443 O445 1.279 . S
O444 Cd436 2.223 . S
O444 C443 1.315 . S
O445 Cd435 2.240 . S
O445 C443 1.279 . S
O446 Cd436 2.297 . S
O446 C441 1.247 . S
O447 Cd436 2.439 . S
O447 C441 1.208 . S
O448 Cd449 2.223 . S
O448 C456 1.315 . S
Cd449 O448 2.223 . S
Cd449 O452 2.297 . S
Cd449 O453 2.439 . S
Cd449 O459 2.240 . S
Cd450 O451 2.240 . S
Cd450 O458 2.223 . S
Cd450 O460 2.297 . S
Cd450 O461 2.439 . S
O451 Cd450 2.240 . S
O451 C456 1.279 . S
O452 Cd449 2.297 . S
O452 C454 1.247 . S
O453 Cd449 2.439 . S
O453 C454 1.208 . S
C454 O452 1.247 . S
C454 O453 1.208 . S
C455 O460 1.247 . S
C455 O461 1.208 . S
C456 O448 1.315 . S
C456 O451 1.279 . S
C457 O458 1.315 . S
C457 O459 1.279 . S
O458 Cd450 2.223 . S
O458 C457 1.315 . S
O459 Cd449 2.240 . S
O459 C457 1.279 . S
O460 Cd450 2.297 . S
O460 C455 1.247 . S
O461 Cd450 2.439 . S
O461 C455 1.208 . S
O462 Cd463 2.223 . S
O462 C470 1.315 . S
Cd463 O462 2.223 . S
Cd463 O466 2.297 . S
Cd463 O467 2.439 . S
Cd463 O473 2.240 1_556 S
Cd464 O465 2.240 1_554 S
Cd464 O472 2.223 . S
Cd464 O474 2.297 . S
Cd464 O475 2.439 . S
O465 Cd464 2.240 1_556 S
O465 C470 1.279 . S
O466 Cd463 2.297 . S
O466 C468 1.247 . S
O467 Cd463 2.439 . S
O467 C468 1.208 . S
C468 O466 1.247 . S
C468 O467 1.208 . S
C469 O474 1.247 . S
C469 O475 1.208 . S
C470 O462 1.315 . S
C470 O465 1.279 . S
C471 O472 1.315 . S
C471 O473 1.279 . S
O472 Cd464 2.223 . S
O472 C471 1.315 . S
O473 Cd463 2.240 1_554 S
O473 C471 1.279 . S
O474 Cd464 2.297 . S
O474 C469 1.247 . S
O475 Cd464 2.439 . S
O475 C469 1.208 . S
O476 Cd477 2.223 . S
O476 C484 1.315 . S
Cd477 O476 2.223 . S
Cd477 O480 2.297 . S
Cd477 O481 2.439 . S
Cd477 O487 2.240 . S
Cd478 O479 2.240 . S
Cd478 O486 2.223 . S
Cd478 O488 2.297 . S
Cd478 O489 2.439 . S
O479 Cd478 2.240 . S
O479 C484 1.279 . S
O480 Cd477 2.297 . S
O480 C482 1.247 . S
O481 Cd477 2.439 . S
O481 C482 1.208 . S
C482 O480 1.247 . S
C482 O481 1.208 . S
C483 O488 1.247 . S
C483 O489 1.208 . S
C484 O476 1.315 . S
C484 O479 1.279 . S
C485 O486 1.315 . S
C485 O487 1.279 . S
O486 Cd478 2.223 . S
O486 C485 1.315 . S
O487 Cd477 2.240 . S
O487 C485 1.279 . S
O488 Cd478 2.297 . S
O488 C483 1.247 . S
O489 Cd478 2.439 . S
O489 C483 1.208 . S
O490 Cd491 2.223 . S
O490 C498 1.315 . S
Cd491 O490 2.223 . S
Cd491 O494 2.297 . S
Cd491 O495 2.439 . S
Cd491 O501 2.240 . S
Cd492 O493 2.240 . S
Cd492 O500 2.223 . S
Cd492 O502 2.297 . S
Cd492 O503 2.439 . S
O493 Cd492 2.240 . S
O493 C498 1.279 . S
O494 Cd491 2.297 . S
O494 C496 1.247 . S
O495 Cd491 2.439 . S
O495 C496 1.208 . S
C496 O494 1.247 . S
C496 O495 1.208 . S
C497 O502 1.247 . S
C497 O503 1.208 . S
C498 O490 1.315 . S
C498 O493 1.279 . S
C499 O500 1.315 . S
C499 O501 1.279 . S
O500 Cd492 2.223 . S
O500 C499 1.315 . S
O501 Cd491 2.240 . S
O501 C499 1.279 . S
O502 Cd492 2.297 . S
O502 C497 1.247 . S
O503 Cd492 2.439 . S
O503 C497 1.208 . S
O504 Cd505 2.223 . S
O504 C512 1.315 . S
Cd505 O504 2.223 . S
Cd505 O508 2.297 . S
Cd505 O509 2.439 . S
Cd505 O515 2.240 . S
Cd506 O507 2.240 . S
Cd506 O514 2.223 . S
Cd506 O516 2.297 . S
Cd506 O517 2.439 . S
O507 Cd506 2.240 . S
O507 C512 1.279 . S
O508 Cd505 2.297 . S
O508 C510 1.247 . S
O509 Cd505 2.439 . S
O509 C510 1.208 . S
C510 O508 1.247 . S
C510 O509 1.208 . S
C511 O516 1.247 . S
C511 O517 1.208 . S
C512 O504 1.315 . S
C512 O507 1.279 . S
C513 O514 1.315 . S
C513 O515 1.279 . S
O514 Cd506 2.223 . S
O514 C513 1.315 . S
O515 Cd505 2.240 . S
O515 C513 1.279 . S
O516 Cd506 2.297 . S
O516 C511 1.247 . S
O517 Cd506 2.439 . S
O517 C511 1.208 . S
O518 Cd519 2.223 . S
O518 C526 1.315 . S
Cd519 O518 2.223 . S
Cd519 O522 2.297 . S
Cd519 O523 2.439 . S
Cd519 O529 2.240 1_554 S
Cd520 O521 2.240 1_556 S
Cd520 O528 2.223 . S
Cd520 O530 2.297 . S
Cd520 O531 2.439 . S
O521 Cd520 2.240 1_554 S
O521 C526 1.279 . S
O522 Cd519 2.297 . S
O522 C524 1.247 . S
O523 Cd519 2.439 . S
O523 C524 1.208 . S
C524 O522 1.247 . S
C524 O523 1.208 . S
C525 O530 1.247 . S
C525 O531 1.208 . S
C526 O518 1.315 . S
C526 O521 1.279 . S
C527 O528 1.315 . S
C527 O529 1.279 . S
O528 Cd520 2.223 . S
O528 C527 1.315 . S
O529 Cd519 2.240 1_556 S
O529 C527 1.279 . S
O530 Cd520 2.297 . S
O530 C525 1.247 . S
O531 Cd520 2.439 . S
O531 C525 1.208 . S
O532 Cd533 2.223 . S
O532 C540 1.315 . S
Cd533 O532 2.223 . S
Cd533 O536 2.297 . S
Cd533 O537 2.439 . S
Cd533 O543 2.240 . S
Cd534 O535 2.240 . S
Cd534 O542 2.223 . S
Cd534 O544 2.297 . S
Cd534 O545 2.439 . S
O535 Cd534 2.240 . S
O535 C540 1.279 . S
O536 Cd533 2.297 . S
O536 C538 1.247 . S
O537 Cd533 2.439 . S
O537 C538 1.208 . S
C538 O536 1.247 . S
C538 O537 1.208 . S
C539 O544 1.247 . S
C539 O545 1.208 . S
C540 O532 1.315 . S
C540 O535 1.279 . S
C541 O542 1.315 . S
C541 O543 1.279 . S
O542 Cd534 2.223 . S
O542 C541 1.315 . S
O543 Cd533 2.240 . S
O543 C541 1.279 . S
O544 Cd534 2.297 . S
O544 C539 1.247 . S
O545 Cd534 2.439 . S
O545 C539 1.208 . S
O546 Cd547 2.223 . S
O546 C554 1.315 . S
Cd547 O546 2.223 . S
Cd547 O550 2.297 . S
Cd547 O551 2.439 . S
Cd547 O557 2.240 . S
Cd548 O549 2.240 . S
Cd548 O556 2.223 . S
Cd548 O558 2.297 . S
Cd548 O559 2.439 . S
O549 Cd548 2.240 . S
O549 C554 1.279 . S
O550 Cd547 2.297 . S
O550 C552 1.247 . S
O551 Cd547 2.439 . S
O551 C552 1.208 . S
C552 O550 1.247 . S
C552 O551 1.208 . S
C553 O558 1.247 . S
C553 O559 1.208 . S
C554 O546 1.315 . S
C554 O549 1.279 . S
C555 O556 1.315 . S
C555 O557 1.279 . S
O556 Cd548 2.223 . S
O556 C555 1.315 . S
O557 Cd547 2.240 . S
O557 C555 1.279 . S
O558 Cd548 2.297 . S
O558 C553 1.247 . S
O559 Cd548 2.439 . S
O559 C553 1.208 . S
O560 Cd561 2.223 . S
O560 C568 1.315 . S
Cd561 O560 2.223 . S
Cd561 O564 2.297 . S
Cd561 O565 2.439 . S
Cd561 O571 2.240 . S
Cd562 O563 2.240 . S
Cd562 O570 2.223 . S
Cd562 O572 2.297 . S
Cd562 O573 2.439 . S
O563 Cd562 2.240 . S
O563 C568 1.279 . S
O564 Cd561 2.297 . S
O564 C566 1.247 . S
O565 Cd561 2.439 . S
O565 C566 1.208 . S
C566 O564 1.247 . S
C566 O565 1.208 . S
C567 O572 1.247 . S
C567 O573 1.208 . S
C568 O560 1.315 . S
C568 O563 1.279 . S
C569 O570 1.315 . S
C569 O571 1.279 . S
O570 Cd562 2.223 . S
O570 C569 1.315 . S
O571 Cd561 2.240 . S
O571 C569 1.279 . S
O572 Cd562 2.297 . S
O572 C567 1.247 . S
O573 Cd562 2.439 . S
O573 C567 1.208 . S
O574 Cd575 2.223 . S
O574 C582 1.315 . S
Cd575 O574 2.223 . S
Cd575 O578 2.297 . S
Cd575 O579 2.439 . S
Cd575 O585 2.240 . S
Cd576 O577 2.240 . S
Cd576 O584 2.223 . S
Cd576 O586 2.297 . S
Cd576 O587 2.439 . S
O577 Cd576 2.240 . S
O577 C582 1.279 . S
O578 Cd575 2.297 . S
O578 C580 1.247 . S
O579 Cd575 2.439 . S
O579 C580 1.208 . S
C580 O578 1.247 . S
C580 O579 1.208 . S
C581 O586 1.247 . S
C581 O587 1.208 . S
C582 O574 1.315 . S
C582 O577 1.279 . S
C583 O584 1.315 . S
C583 O585 1.279 . S
O584 Cd576 2.223 . S
O584 C583 1.315 . S
O585 Cd575 2.240 . S
O585 C583 1.279 . S
O586 Cd576 2.297 . S
O586 C581 1.247 . S
O587 Cd576 2.439 . S
O587 C581 1.208 . S
O588 Cd589 2.223 . S
O588 C596 1.315 . S
Cd589 O588 2.223 . S
Cd589 O592 2.297 . S
Cd589 O593 2.439 . S
Cd589 O599 2.240 1_565 S
Cd590 O591 2.240 1_545 S
Cd590 O598 2.223 . S
Cd590 O600 2.297 . S
Cd590 O601 2.439 . S
O591 Cd590 2.240 1_565 S
O591 C596 1.279 . S
O592 Cd589 2.297 . S
O592 C594 1.247 . S
O593 Cd589 2.439 . S
O593 C594 1.208 . S
C594 O592 1.247 . S
C594 O593 1.208 . S
C595 O600 1.247 . S
C595 O601 1.208 . S
C596 O588 1.315 . S
C596 O591 1.279 . S
C597 O598 1.315 . S
C597 O599 1.279 . S
O598 Cd590 2.223 . S
O598 C597 1.315 . S
O599 Cd589 2.240 1_545 S
O599 C597 1.279 . S
O600 Cd590 2.297 . S
O600 C595 1.247 . S
O601 Cd590 2.439 . S
O601 C595 1.208 . S
O602 Cd603 2.223 . S
O602 C610 1.315 . S
Cd603 O602 2.223 . S
Cd603 O606 2.297 . S
Cd603 O607 2.439 . S
Cd603 O613 2.240 . S
Cd604 O605 2.240 . S
Cd604 O612 2.223 . S
Cd604 O614 2.297 . S
Cd604 O615 2.439 . S
O605 Cd604 2.240 . S
O605 C610 1.279 . S
O606 Cd603 2.297 . S
O606 C608 1.247 . S
O607 Cd603 2.439 . S
O607 C608 1.208 . S
C608 O606 1.247 . S
C608 O607 1.208 . S
C609 O614 1.247 . S
C609 O615 1.208 . S
C610 O602 1.315 . S
C610 O605 1.279 . S
C611 O612 1.315 . S
C611 O613 1.279 . S
O612 Cd604 2.223 . S
O612 C611 1.315 . S
O613 Cd603 2.240 . S
O613 C611 1.279 . S
O614 Cd604 2.297 . S
O614 C609 1.247 . S
O615 Cd604 2.439 . S
O615 C609 1.208 . S
O616 Cd617 2.223 . S
O616 C624 1.315 . S
Cd617 O616 2.223 . S
Cd617 O620 2.297 . S
Cd617 O621 2.439 . S
Cd617 O627 2.240 . S
Cd618 O619 2.240 . S
Cd618 O626 2.223 . S
Cd618 O628 2.297 . S
Cd618 O629 2.439 . S
O619 Cd618 2.240 . S
O619 C624 1.279 . S
O620 Cd617 2.297 . S
O620 C622 1.247 . S
O621 Cd617 2.439 . S
O621 C622 1.208 . S
C622 O620 1.247 . S
C622 O621 1.208 . S
C623 O628 1.247 . S
C623 O629 1.208 . S
C624 O616 1.315 . S
C624 O619 1.279 . S
C625 O626 1.315 . S
C625 O627 1.279 . S
O626 Cd618 2.223 . S
O626 C625 1.315 . S
O627 Cd617 2.240 . S
O627 C625 1.279 . S
O628 Cd618 2.297 . S
O628 C623 1.247 . S
O629 Cd618 2.439 . S
O629 C623 1.208 . S
O630 Cd631 2.223 . S
O630 C638 1.315 . S
Cd631 O630 2.223 . S
Cd631 O634 2.297 . S
Cd631 O635 2.439 . S
Cd631 O641 2.240 . S
Cd632 O633 2.240 . S
Cd632 O640 2.223 . S
Cd632 O642 2.297 . S
Cd632 O643 2.439 . S
O633 Cd632 2.240 . S
O633 C638 1.279 . S
O634 Cd631 2.297 . S
O634 C636 1.247 . S
O635 Cd631 2.439 . S
O635 C636 1.208 . S
C636 O634 1.247 . S
C636 O635 1.208 . S
C637 O642 1.247 . S
C637 O643 1.208 . S
C638 O630 1.315 . S
C638 O633 1.279 . S
C639 O640 1.315 . S
C639 O641 1.279 . S
O640 Cd632 2.223 . S
O640 C639 1.315 . S
O641 Cd631 2.240 . S
O641 C639 1.279 . S
O642 Cd632 2.297 . S
O642 C637 1.247 . S
O643 Cd632 2.439 . S
O643 C637 1.208 . S
O644 Cd645 2.223 . S
O644 C652 1.315 . S
Cd645 O644 2.223 . S
Cd645 O648 2.297 . S
Cd645 O649 2.439 . S
Cd645 O655 2.240 1_545 S
Cd646 O647 2.240 1_565 S
Cd646 O654 2.223 . S
Cd646 O656 2.297 . S
Cd646 O657 2.439 . S
O647 Cd646 2.240 1_545 S
O647 C652 1.279 . S
O648 Cd645 2.297 . S
O648 C650 1.247 . S
O649 Cd645 2.439 . S
O649 C650 1.208 . S
C650 O648 1.247 . S
C650 O649 1.208 . S
C651 O656 1.247 . S
C651 O657 1.208 . S
C652 O644 1.315 . S
C652 O647 1.279 . S
C653 O654 1.315 . S
C653 O655 1.279 . S
O654 Cd646 2.223 . S
O654 C653 1.315 . S
O655 Cd645 2.240 1_565 S
O655 C653 1.279 . S
O656 Cd646 2.297 . S
O656 C651 1.247 . S
O657 Cd646 2.439 . S
O657 C651 1.208 . S
O658 Cd659 2.223 . S
O658 C666 1.315 . S
Cd659 O658 2.223 . S
Cd659 O662 2.297 . S
Cd659 O663 2.439 . S
Cd659 O669 2.240 1_565 S
Cd660 O661 2.240 1_545 S
Cd660 O668 2.223 . S
Cd660 O670 2.297 . S
Cd660 O671 2.439 . S
O661 Cd660 2.240 1_565 S
O661 C666 1.279 . S
O662 Cd659 2.297 . S
O662 C664 1.247 . S
O663 Cd659 2.439 . S
O663 C664 1.208 . S
C664 O662 1.247 . S
C664 O663 1.208 . S
C665 O670 1.247 . S
C665 O671 1.208 . S
C666 O658 1.315 . S
C666 O661 1.279 . S
C667 O668 1.315 . S
C667 O669 1.279 . S
O668 Cd660 2.223 . S
O668 C667 1.315 . S
O669 Cd659 2.240 1_545 S
O669 C667 1.279 . S
O670 Cd660 2.297 . S
O670 C665 1.247 . S
O671 Cd660 2.439 . S
O671 C665 1.208 . S
C672 C673 1.363 . S
C672 C678 1.379 . S
C672 N680 1.356 . S
C673 C672 1.363 . S
C673 C679 1.363 . S
C674 C675 1.363 . S
C674 C679 1.379 . S
C674 N681 1.356 . S
C675 C674 1.363 . S
C675 C678 1.363 . S
N676 C678 1.356 . S
N676 H688 0.984 . S
N676 H689 0.985 . S
N677 C679 1.356 . S
N677 H682 0.984 . S
N677 H683 0.985 . S
C678 C672 1.379 . S
C678 C675 1.363 . S
C678 N676 1.356 . S
C679 C673 1.363 . S
C679 C674 1.379 . S
C679 N677 1.356 . S
N680 C672 1.356 . S
N680 H686 0.984 . S
N680 H687 0.984 . S
N681 C674 1.356 . S
N681 H684 0.984 . S
N681 H685 0.985 . S
H682 N677 0.984 . S
H683 N677 0.985 . S
H684 N681 0.984 . S
H685 N681 0.985 . S
H686 N680 0.984 . S
H687 N680 0.984 . S
H688 N676 0.984 . S
H689 N676 0.985 . S
C690 C691 1.363 . S
C690 C696 1.379 . S
C690 N698 1.356 . S
C691 C690 1.363 . S
C691 C697 1.363 . S
C692 C693 1.363 . S
C692 C697 1.379 . S
C692 N699 1.356 . S
C693 C692 1.363 . S
C693 C696 1.363 . S
N694 C696 1.356 . S
N694 H706 0.984 . S
N694 H707 0.985 . S
N695 C697 1.356 . S
N695 H700 0.984 . S
N695 H701 0.985 . S
C696 C690 1.379 . S
C696 C693 1.363 . S
C696 N694 1.356 . S
C697 C691 1.363 . S
C697 C692 1.379 . S
C697 N695 1.356 . S
N698 C690 1.356 . S
N698 H704 0.984 . S
N698 H705 0.984 . S
N699 C692 1.356 . S
N699 H702 0.984 . S
N699 H703 0.985 . S
H700 N695 0.984 . S
H701 N695 0.985 . S
H702 N699 0.984 . S
H703 N699 0.985 . S
H704 N698 0.984 . S
H705 N698 0.984 . S
H706 N694 0.984 . S
H707 N694 0.985 . S
C708 C709 1.363 . S
C708 C714 1.379 . S
C708 N716 1.356 . S
C709 C708 1.363 . S
C709 C715 1.363 . S
C710 C711 1.363 . S
C710 C715 1.379 . S
C710 N717 1.356 . S
C711 C710 1.363 . S
C711 C714 1.363 . S
N712 C714 1.356 . S
N712 H724 0.984 . S
N712 H725 0.985 . S
N713 C715 1.356 . S
N713 H718 0.984 . S
N713 H719 0.985 . S
C714 C708 1.379 . S
C714 C711 1.363 . S
C714 N712 1.356 . S
C715 C709 1.363 . S
C715 C710 1.379 . S
C715 N713 1.356 . S
N716 C708 1.356 . S
N716 H722 0.984 . S
N716 H723 0.984 . S
N717 C710 1.356 . S
N717 H720 0.984 . S
N717 H721 0.985 . S
H718 N713 0.984 . S
H719 N713 0.985 . S
H720 N717 0.984 . S
H721 N717 0.985 . S
H722 N716 0.984 . S
H723 N716 0.984 . S
H724 N712 0.984 . S
H725 N712 0.985 . S
C726 C727 1.363 . S
C726 C732 1.379 . S
C726 N734 1.356 . S
C727 C726 1.363 . S
C727 C733 1.363 . S
C728 C729 1.363 . S
C728 C733 1.379 . S
C728 N735 1.356 . S
C729 C728 1.363 . S
C729 C732 1.363 . S
N730 C732 1.356 . S
N730 H742 0.984 . S
N730 H743 0.985 . S
N731 C733 1.356 . S
N731 H736 0.984 . S
N731 H737 0.985 . S
C732 C726 1.379 . S
C732 C729 1.363 . S
C732 N730 1.356 . S
C733 C727 1.363 . S
C733 C728 1.379 . S
C733 N731 1.356 . S
N734 C726 1.356 . S
N734 H740 0.984 . S
N734 H741 0.984 . S
N735 C728 1.356 . S
N735 H738 0.984 . S
N735 H739 0.985 . S
H736 N731 0.984 . S
H737 N731 0.985 . S
H738 N735 0.984 . S
H739 N735 0.985 . S
H740 N734 0.984 . S
H741 N734 0.984 . S
H742 N730 0.984 . S
H743 N730 0.985 . S
C744 C745 1.363 . S
C744 C750 1.379 . S
C744 N752 1.356 . S
C745 C744 1.363 . S
C745 C751 1.363 . S
C746 C747 1.363 . S
C746 C751 1.379 . S
C746 N753 1.356 . S
C747 C746 1.363 . S
C747 C750 1.363 . S
N748 C750 1.356 . S
N748 H760 0.984 . S
N748 H761 0.985 . S
N749 C751 1.356 . S
N749 H754 0.984 . S
N749 H755 0.985 . S
C750 C744 1.379 . S
C750 C747 1.363 . S
C750 N748 1.356 . S
C751 C745 1.363 . S
C751 C746 1.379 . S
C751 N749 1.356 . S
N752 C744 1.356 . S
N752 H758 0.984 . S
N752 H759 0.984 . S
N753 C746 1.356 . S
N753 H756 0.984 . S
N753 H757 0.985 . S
H754 N749 0.984 . S
H755 N749 0.985 . S
H756 N753 0.984 . S
H757 N753 0.985 . S
H758 N752 0.984 . S
H759 N752 0.984 . S
H760 N748 0.984 . S
H761 N748 0.985 . S
C762 C763 1.363 . S
C762 C768 1.379 . S
C762 N770 1.356 . S
C763 C762 1.363 . S
C763 C769 1.363 . S
C764 C765 1.363 . S
C764 C769 1.379 . S
C764 N771 1.356 . S
C765 C764 1.363 . S
C765 C768 1.363 . S
N766 C768 1.356 . S
N766 H778 0.984 . S
N766 H779 0.985 . S
N767 C769 1.356 . S
N767 H772 0.984 . S
N767 H773 0.985 . S
C768 C762 1.379 . S
C768 C765 1.363 . S
C768 N766 1.356 . S
C769 C763 1.363 . S
C769 C764 1.379 . S
C769 N767 1.356 . S
N770 C762 1.356 . S
N770 H776 0.984 . S
N770 H777 0.984 . S
N771 C764 1.356 . S
N771 H774 0.984 . S
N771 H775 0.985 . S
H772 N767 0.984 . S
H773 N767 0.985 . S
H774 N771 0.984 . S
H775 N771 0.985 . S
H776 N770 0.984 . S
H777 N770 0.984 . S
H778 N766 0.984 . S
H779 N766 0.985 . S
C780 C781 1.363 . S
C780 C786 1.379 . S
C780 N788 1.356 . S
C781 C780 1.363 . S
C781 C787 1.363 . S
C782 C783 1.363 . S
C782 C787 1.379 . S
C782 N789 1.356 . S
C783 C782 1.363 . S
C783 C786 1.363 . S
N784 C786 1.356 . S
N784 H796 0.984 . S
N784 H797 0.985 . S
N785 C787 1.356 . S
N785 H790 0.984 . S
N785 H791 0.985 . S
C786 C780 1.379 . S
C786 C783 1.363 . S
C786 N784 1.356 . S
C787 C781 1.363 . S
C787 C782 1.379 . S
C787 N785 1.356 . S
N788 C780 1.356 . S
N788 H794 0.984 . S
N788 H795 0.984 . S
N789 C782 1.356 . S
N789 H792 0.984 . S
N789 H793 0.985 . S
H790 N785 0.984 . S
H791 N785 0.985 . S
H792 N789 0.984 . S
H793 N789 0.985 . S
H794 N788 0.984 . S
H795 N788 0.984 . S
H796 N784 0.984 . S
H797 N784 0.985 . S
C798 C799 1.363 . S
C798 C804 1.379 . S
C798 N806 1.356 . S
C799 C798 1.363 . S
C799 C805 1.363 . S
C800 C801 1.363 . S
C800 C805 1.379 . S
C800 N807 1.356 . S
C801 C800 1.363 . S
C801 C804 1.363 . S
N802 C804 1.356 . S
N802 H814 0.984 . S
N802 H815 0.985 . S
N803 C805 1.356 . S
N803 H808 0.984 . S
N803 H809 0.985 . S
C804 C798 1.379 . S
C804 C801 1.363 . S
C804 N802 1.356 . S
C805 C799 1.363 . S
C805 C800 1.379 . S
C805 N803 1.356 . S
N806 C798 1.356 . S
N806 H812 0.984 . S
N806 H813 0.984 . S
N807 C800 1.356 . S
N807 H810 0.984 . S
N807 H811 0.985 . S
H808 N803 0.984 . S
H809 N803 0.985 . S
H810 N807 0.984 . S
H811 N807 0.985 . S
H812 N806 0.984 . S
H813 N806 0.984 . S
H814 N802 0.984 . S
H815 N802 0.985 . S
C816 C817 1.363 . S
C816 C822 1.379 . S
C816 N824 1.356 . S
C817 C816 1.363 . S
C817 C823 1.363 . S
C818 C819 1.363 . S
C818 C823 1.379 . S
C818 N825 1.356 . S
C819 C818 1.363 . S
C819 C822 1.363 . S
N820 C822 1.356 . S
N820 H832 0.984 . S
N820 H833 0.985 . S
N821 C823 1.356 . S
N821 H826 0.984 . S
N821 H827 0.985 . S
C822 C816 1.379 . S
C822 C819 1.363 . S
C822 N820 1.356 . S
C823 C817 1.363 . S
C823 C818 1.379 . S
C823 N821 1.356 . S
N824 C816 1.356 . S
N824 H830 0.984 . S
N824 H831 0.984 . S
N825 C818 1.356 . S
N825 H828 0.984 . S
N825 H829 0.985 . S
H826 N821 0.984 . S
H827 N821 0.985 . S
H828 N825 0.984 . S
H829 N825 0.985 . S
H830 N824 0.984 . S
H831 N824 0.984 . S
H832 N820 0.984 . S
H833 N820 0.985 . S
C834 C835 1.363 . S
C834 C840 1.379 . S
C834 N842 1.356 . S
C835 C834 1.363 . S
C835 C841 1.363 . S
C836 C837 1.363 . S
C836 C841 1.379 . S
C836 N843 1.356 . S
C837 C836 1.363 . S
C837 C840 1.363 . S
N838 C840 1.356 . S
N838 H850 0.984 . S
N838 H851 0.985 . S
N839 C841 1.356 . S
N839 H844 0.984 . S
N839 H845 0.985 . S
C840 C834 1.379 . S
C840 C837 1.363 . S
C840 N838 1.356 . S
C841 C835 1.363 . S
C841 C836 1.379 . S
C841 N839 1.356 . S
N842 C834 1.356 . S
N842 H848 0.984 . S
N842 H849 0.984 . S
N843 C836 1.356 . S
N843 H846 0.984 . S
N843 H847 0.985 . S
H844 N839 0.984 . S
H845 N839 0.985 . S
H846 N843 0.984 . S
H847 N843 0.985 . S
H848 N842 0.984 . S
H849 N842 0.984 . S
H850 N838 0.984 . S
H851 N838 0.985 . S
C852 C853 1.363 . S
C852 C858 1.379 . S
C852 N860 1.356 . S
C853 C852 1.363 . S
C853 C859 1.363 . S
C854 C855 1.363 . S
C854 C859 1.379 . S
C854 N861 1.356 . S
C855 C854 1.363 . S
C855 C858 1.363 . S
N856 C858 1.356 . S
N856 H868 0.984 . S
N856 H869 0.985 . S
N857 C859 1.356 . S
N857 H862 0.984 . S
N857 H863 0.985 . S
C858 C852 1.379 . S
C858 C855 1.363 . S
C858 N856 1.356 . S
C859 C853 1.363 . S
C859 C854 1.379 . S
C859 N857 1.356 . S
N860 C852 1.356 . S
N860 H866 0.984 . S
N860 H867 0.984 . S
N861 C854 1.356 . S
N861 H864 0.984 . S
N861 H865 0.985 . S
H862 N857 0.984 . S
H863 N857 0.985 . S
H864 N861 0.984 . S
H865 N861 0.985 . S
H866 N860 0.984 . S
H867 N860 0.984 . S
H868 N856 0.984 . S
H869 N856 0.985 . S
C870 C871 1.363 . S
C870 C876 1.379 . S
C870 N878 1.356 . S
C871 C870 1.363 . S
C871 C877 1.363 . S
C872 C873 1.363 . S
C872 C877 1.379 . S
C872 N879 1.356 . S
C873 C872 1.363 . S
C873 C876 1.363 . S
N874 C876 1.356 . S
N874 H886 0.984 . S
N874 H887 0.985 . S
N875 C877 1.356 . S
N875 H880 0.984 . S
N875 H881 0.985 . S
C876 C870 1.379 . S
C876 C873 1.363 . S
C876 N874 1.356 . S
C877 C871 1.363 . S
C877 C872 1.379 . S
C877 N875 1.356 . S
N878 C870 1.356 . S
N878 H884 0.984 . S
N878 H885 0.984 . S
N879 C872 1.356 . S
N879 H882 0.984 . S
N879 H883 0.985 . S
H880 N875 0.984 . S
H881 N875 0.985 . S
H882 N879 0.984 . S
H883 N879 0.985 . S
H884 N878 0.984 . S
H885 N878 0.984 . S
H886 N874 0.984 . S
H887 N874 0.985 . S
C888 C889 1.363 . S
C888 C894 1.379 . S
C888 N896 1.356 . S
C889 C888 1.363 . S
C889 C895 1.363 . S
C890 C891 1.363 . S
C890 C895 1.379 . S
C890 N897 1.356 . S
C891 C890 1.363 . S
C891 C894 1.363 . S
N892 C894 1.356 . S
N892 H904 0.984 . S
N892 H905 0.985 . S
N893 C895 1.356 . S
N893 H898 0.984 . S
N893 H899 0.985 . S
C894 C888 1.379 . S
C894 C891 1.363 . S
C894 N892 1.356 . S
C895 C889 1.363 . S
C895 C890 1.379 . S
C895 N893 1.356 . S
N896 C888 1.356 . S
N896 H902 0.984 . S
N896 H903 0.984 . S
N897 C890 1.356 . S
N897 H900 0.984 . S
N897 H901 0.985 . S
H898 N893 0.984 . S
H899 N893 0.985 . S
H900 N897 0.984 . S
H901 N897 0.985 . S
H902 N896 0.984 . S
H903 N896 0.984 . S
H904 N892 0.984 . S
H905 N892 0.985 . S
C906 C907 1.363 . S
C906 C912 1.379 . S
C906 N914 1.356 . S
C907 C906 1.363 . S
C907 C913 1.363 . S
C908 C909 1.363 . S
C908 C913 1.379 . S
C908 N915 1.356 . S
C909 C908 1.363 . S
C909 C912 1.363 . S
N910 C912 1.356 . S
N910 H922 0.984 . S
N910 H923 0.985 . S
N911 C913 1.356 . S
N911 H916 0.984 . S
N911 H917 0.985 . S
C912 C906 1.379 . S
C912 C909 1.363 . S
C912 N910 1.356 . S
C913 C907 1.363 . S
C913 C908 1.379 . S
C913 N911 1.356 . S
N914 C906 1.356 . S
N914 H920 0.984 . S
N914 H921 0.984 . S
N915 C908 1.356 . S
N915 H918 0.984 . S
N915 H919 0.985 . S
H916 N911 0.984 . S
H917 N911 0.985 . S
H918 N915 0.984 . S
H919 N915 0.985 . S
H920 N914 0.984 . S
H921 N914 0.984 . S
H922 N910 0.984 . S
H923 N910 0.985 . S
C924 C925 1.363 . S
C924 C930 1.379 . S
C924 N932 1.356 . S
C925 C924 1.363 . S
C925 C931 1.363 . S
C926 C927 1.363 . S
C926 C931 1.379 . S
C926 N933 1.356 . S
C927 C926 1.363 . S
C927 C930 1.363 . S
N928 C930 1.356 . S
N928 H940 0.984 . S
N928 H941 0.985 . S
N929 C931 1.356 . S
N929 H934 0.984 . S
N929 H935 0.985 . S
C930 C924 1.379 . S
C930 C927 1.363 . S
C930 N928 1.356 . S
C931 C925 1.363 . S
C931 C926 1.379 . S
C931 N929 1.356 . S
N932 C924 1.356 . S
N932 H938 0.984 . S
N932 H939 0.984 . S
N933 C926 1.356 . S
N933 H936 0.984 . S
N933 H937 0.985 . S
H934 N929 0.984 . S
H935 N929 0.985 . S
H936 N933 0.984 . S
H937 N933 0.985 . S
H938 N932 0.984 . S
H939 N932 0.984 . S
H940 N928 0.984 . S
H941 N928 0.985 . S
C942 C943 1.363 . S
C942 C948 1.379 . S
C942 N950 1.356 . S
C943 C942 1.363 . S
C943 C949 1.363 . S
C944 C945 1.363 . S
C944 C949 1.379 . S
C944 N951 1.356 . S
C945 C944 1.363 . S
C945 C948 1.363 . S
N946 C948 1.356 . S
N946 H958 0.984 . S
N946 H959 0.985 . S
N947 C949 1.356 . S
N947 H952 0.984 . S
N947 H953 0.985 . S
C948 C942 1.379 . S
C948 C945 1.363 . S
C948 N946 1.356 . S
C949 C943 1.363 . S
C949 C944 1.379 . S
C949 N947 1.356 . S
N950 C942 1.356 . S
N950 H956 0.984 . S
N950 H957 0.984 . S
N951 C944 1.356 . S
N951 H954 0.984 . S
N951 H955 0.985 . S
H952 N947 0.984 . S
H953 N947 0.985 . S
H954 N951 0.984 . S
H955 N951 0.985 . S
H956 N950 0.984 . S
H957 N950 0.984 . S
H958 N946 0.984 . S
H959 N946 0.985 . S
C960 C961 1.363 . S
C960 C966 1.379 . S
C960 N968 1.356 . S
C961 C960 1.363 . S
C961 C967 1.363 . S
C962 C963 1.363 . S
C962 C967 1.379 . S
C962 N969 1.356 . S
C963 C962 1.363 . S
C963 C966 1.363 . S
N964 C966 1.356 . S
N964 H976 0.984 . S
N964 H977 0.985 . S
N965 C967 1.356 . S
N965 H970 0.984 . S
N965 H971 0.985 . S
C966 C960 1.379 . S
C966 C963 1.363 . S
C966 N964 1.356 . S
C967 C961 1.363 . S
C967 C962 1.379 . S
C967 N965 1.356 . S
N968 C960 1.356 . S
N968 H974 0.984 . S
N968 H975 0.984 . S
N969 C962 1.356 . S
N969 H972 0.984 . S
N969 H973 0.985 . S
H970 N965 0.984 . S
H971 N965 0.985 . S
H972 N969 0.984 . S
H973 N969 0.985 . S
H974 N968 0.984 . S
H975 N968 0.984 . S
H976 N964 0.984 . S
H977 N964 0.985 . S
C978 C979 1.363 . S
C978 C984 1.379 . S
C978 N986 1.356 . S
C979 C978 1.363 . S
C979 C985 1.363 . S
C980 C981 1.363 . S
C980 C985 1.379 . S
C980 N987 1.356 . S
C981 C980 1.363 . S
C981 C984 1.363 . S
N982 C984 1.356 . S
N982 H994 0.984 . S
N982 H995 0.985 . S
N983 C985 1.356 . S
N983 H988 0.984 . S
N983 H989 0.985 . S
C984 C978 1.379 . S
C984 C981 1.363 . S
C984 N982 1.356 . S
C985 C979 1.363 . S
C985 C980 1.379 . S
C985 N983 1.356 . S
N986 C978 1.356 . S
N986 H992 0.984 . S
N986 H993 0.984 . S
N987 C980 1.356 . S
N987 H990 0.984 . S
N987 H991 0.985 . S
H988 N983 0.984 . S
H989 N983 0.985 . S
H990 N987 0.984 . S
H991 N987 0.985 . S
H992 N986 0.984 . S
H993 N986 0.984 . S
H994 N982 0.984 . S
H995 N982 0.985 . S
C996 C997 1.363 . S
C996 C1002 1.379 . S
C996 N1004 1.356 . S
C997 C996 1.363 . S
C997 C1003 1.363 . S
C998 C999 1.363 . S
C998 C1003 1.379 . S
C998 N1005 1.356 . S
C999 C998 1.363 . S
C999 C1002 1.363 . S
N1000 C1002 1.356 . S
N1000 H1012 0.984 . S
N1000 H1013 0.985 . S
N1001 C1003 1.356 . S
N1001 H1006 0.984 . S
N1001 H1007 0.985 . S
C1002 C996 1.379 . S
C1002 C999 1.363 . S
C1002 N1000 1.356 . S
C1003 C997 1.363 . S
C1003 C998 1.379 . S
C1003 N1001 1.356 . S
N1004 C996 1.356 . S
N1004 H1010 0.984 . S
N1004 H1011 0.984 . S
N1005 C998 1.356 . S
N1005 H1008 0.984 . S
N1005 H1009 0.985 . S
H1006 N1001 0.984 . S
H1007 N1001 0.985 . S
H1008 N1005 0.984 . S
H1009 N1005 0.985 . S
H1010 N1004 0.984 . S
H1011 N1004 0.984 . S
H1012 N1000 0.984 . S
H1013 N1000 0.985 . S
C1014 C1015 1.363 . S
C1014 C1020 1.379 . S
C1014 N1022 1.356 . S
C1015 C1014 1.363 . S
C1015 C1021 1.363 . S
C1016 C1017 1.363 . S
C1016 C1021 1.379 . S
C1016 N1023 1.356 . S
C1017 C1016 1.363 . S
C1017 C1020 1.363 . S
N1018 C1020 1.356 . S
N1018 H1030 0.984 . S
N1018 H1031 0.985 . S
N1019 C1021 1.356 . S
N1019 H1024 0.984 . S
N1019 H1025 0.985 . S
C1020 C1014 1.379 . S
C1020 C1017 1.363 . S
C1020 N1018 1.356 . S
C1021 C1015 1.363 . S
C1021 C1016 1.379 . S
C1021 N1019 1.356 . S
N1022 C1014 1.356 . S
N1022 H1028 0.984 . S
N1022 H1029 0.984 . S
N1023 C1016 1.356 . S
N1023 H1026 0.984 . S
N1023 H1027 0.985 . S
H1024 N1019 0.984 . S
H1025 N1019 0.985 . S
H1026 N1023 0.984 . S
H1027 N1023 0.985 . S
H1028 N1022 0.984 . S
H1029 N1022 0.984 . S
H1030 N1018 0.984 . S
H1031 N1018 0.985 . S
C1032 C1033 1.363 . S
C1032 C1038 1.379 . S
C1032 N1040 1.356 . S
C1033 C1032 1.363 . S
C1033 C1039 1.363 . S
C1034 C1035 1.363 . S
C1034 C1039 1.379 . S
C1034 N1041 1.356 . S
C1035 C1034 1.363 . S
C1035 C1038 1.363 . S
N1036 C1038 1.356 . S
N1036 H1048 0.984 . S
N1036 H1049 0.985 . S
N1037 C1039 1.356 . S
N1037 H1042 0.984 . S
N1037 H1043 0.985 . S
C1038 C1032 1.379 . S
C1038 C1035 1.363 . S
C1038 N1036 1.356 . S
C1039 C1033 1.363 . S
C1039 C1034 1.379 . S
C1039 N1037 1.356 . S
N1040 C1032 1.356 . S
N1040 H1046 0.984 . S
N1040 H1047 0.984 . S
N1041 C1034 1.356 . S
N1041 H1044 0.984 . S
N1041 H1045 0.985 . S
H1042 N1037 0.984 . S
H1043 N1037 0.985 . S
H1044 N1041 0.984 . S
H1045 N1041 0.985 . S
H1046 N1040 0.984 . S
H1047 N1040 0.984 . S
H1048 N1036 0.984 . S
H1049 N1036 0.985 . S
C1050 C1051 1.363 . S
C1050 C1056 1.379 . S
C1050 N1058 1.356 . S
C1051 C1050 1.363 . S
C1051 C1057 1.363 . S
C1052 C1053 1.363 . S
C1052 C1057 1.379 . S
C1052 N1059 1.356 . S
C1053 C1052 1.363 . S
C1053 C1056 1.363 . S
N1054 C1056 1.356 . S
N1054 H1066 0.984 . S
N1054 H1067 0.985 . S
N1055 C1057 1.356 . S
N1055 H1060 0.984 . S
N1055 H1061 0.985 . S
C1056 C1050 1.379 . S
C1056 C1053 1.363 . S
C1056 N1054 1.356 . S
C1057 C1051 1.363 . S
C1057 C1052 1.379 . S
C1057 N1055 1.356 . S
N1058 C1050 1.356 . S
N1058 H1064 0.984 . S
N1058 H1065 0.984 . S
N1059 C1052 1.356 . S
N1059 H1062 0.984 . S
N1059 H1063 0.985 . S
H1060 N1055 0.984 . S
H1061 N1055 0.985 . S
H1062 N1059 0.984 . S
H1063 N1059 0.985 . S
H1064 N1058 0.984 . S
H1065 N1058 0.984 . S
H1066 N1054 0.984 . S
H1067 N1054 0.985 . S
C1068 C1069 1.363 . S
C1068 C1074 1.379 . S
C1068 N1076 1.356 . S
C1069 C1068 1.363 . S
C1069 C1075 1.363 . S
C1070 C1071 1.363 . S
C1070 C1075 1.379 . S
C1070 N1077 1.356 . S
C1071 C1070 1.363 . S
C1071 C1074 1.363 . S
N1072 C1074 1.356 . S
N1072 H1084 0.984 . S
N1072 H1085 0.985 . S
N1073 C1075 1.356 . S
N1073 H1078 0.984 . S
N1073 H1079 0.985 . S
C1074 C1068 1.379 . S
C1074 C1071 1.363 . S
C1074 N1072 1.356 . S
C1075 C1069 1.363 . S
C1075 C1070 1.379 . S
C1075 N1073 1.356 . S
N1076 C1068 1.356 . S
N1076 H1082 0.984 . S
N1076 H1083 0.984 . S
N1077 C1070 1.356 . S
N1077 H1080 0.984 . S
N1077 H1081 0.985 . S
H1078 N1073 0.984 . S
H1079 N1073 0.985 . S
H1080 N1077 0.984 . S
H1081 N1077 0.985 . S
H1082 N1076 0.984 . S
H1083 N1076 0.984 . S
H1084 N1072 0.984 . S
H1085 N1072 0.985 . S
C1086 C1087 1.363 . S
C1086 C1092 1.379 . S
C1086 N1094 1.356 . S
C1087 C1086 1.363 . S
C1087 C1093 1.363 . S
C1088 C1089 1.363 . S
C1088 C1093 1.379 . S
C1088 N1095 1.356 . S
C1089 C1088 1.363 . S
C1089 C1092 1.363 . S
N1090 C1092 1.356 . S
N1090 H1102 0.984 . S
N1090 H1103 0.985 . S
N1091 C1093 1.356 . S
N1091 H1096 0.984 . S
N1091 H1097 0.985 . S
C1092 C1086 1.379 . S
C1092 C1089 1.363 . S
C1092 N1090 1.356 . S
C1093 C1087 1.363 . S
C1093 C1088 1.379 . S
C1093 N1091 1.356 . S
N1094 C1086 1.356 . S
N1094 H1100 0.984 . S
N1094 H1101 0.984 . S
N1095 C1088 1.356 . S
N1095 H1098 0.984 . S
N1095 H1099 0.985 . S
H1096 N1091 0.984 . S
H1097 N1091 0.985 . S
H1098 N1095 0.984 . S
H1099 N1095 0.985 . S
H1100 N1094 0.984 . S
H1101 N1094 0.984 . S
H1102 N1090 0.984 . S
H1103 N1090 0.985 . S
C1104 C1105 1.363 . S
C1104 C1110 1.379 . S
C1104 N1112 1.356 . S
C1105 C1104 1.363 . S
C1105 C1111 1.363 . S
C1106 C1107 1.363 . S
C1106 C1111 1.379 . S
C1106 N1113 1.356 . S
C1107 C1106 1.363 . S
C1107 C1110 1.363 . S
N1108 C1110 1.356 . S
N1108 H1120 0.984 . S
N1108 H1121 0.985 . S
N1109 C1111 1.356 . S
N1109 H1114 0.984 . S
N1109 H1115 0.985 . S
C1110 C1104 1.379 . S
C1110 C1107 1.363 . S
C1110 N1108 1.356 . S
C1111 C1105 1.363 . S
C1111 C1106 1.379 . S
C1111 N1109 1.356 . S
N1112 C1104 1.356 . S
N1112 H1118 0.984 . S
N1112 H1119 0.984 . S
N1113 C1106 1.356 . S
N1113 H1116 0.984 . S
N1113 H1117 0.985 . S
H1114 N1109 0.984 . S
H1115 N1109 0.985 . S
H1116 N1113 0.984 . S
H1117 N1113 0.985 . S
H1118 N1112 0.984 . S
H1119 N1112 0.984 . S
H1120 N1108 0.984 . S
H1121 N1108 0.985 . S
C1122 C1123 1.363 . S
C1122 C1128 1.379 . S
C1122 N1130 1.356 . S
C1123 C1122 1.363 . S
C1123 C1129 1.363 . S
C1124 C1125 1.363 . S
C1124 C1129 1.379 . S
C1124 N1131 1.356 . S
C1125 C1124 1.363 . S
C1125 C1128 1.363 . S
N1126 C1128 1.356 . S
N1126 H1138 0.984 1_655 S
N1126 H1139 0.985 1_655 S
N1127 C1129 1.356 . S
N1127 H1132 0.984 . S
N1127 H1133 0.985 . S
C1128 C1122 1.379 . S
C1128 C1125 1.363 . S
C1128 N1126 1.356 . S
C1129 C1123 1.363 . S
C1129 C1124 1.379 . S
C1129 N1127 1.356 . S
N1130 C1122 1.356 . S
N1130 H1136 0.984 1_565 S
N1130 H1137 0.984 1_565 S
N1131 C1124 1.356 . S
N1131 H1134 0.984 . S
N1131 H1135 0.985 . S
H1132 N1127 0.984 . S
H1133 N1127 0.985 . S
H1134 N1131 0.984 . S
H1135 N1131 0.985 . S
H1136 N1130 0.984 1_545 S
H1137 N1130 0.984 1_545 S
H1138 N1126 0.984 1_455 S
H1139 N1126 0.985 1_455 S
C1140 C1141 1.363 . S
C1140 C1146 1.379 . S
C1140 N1148 1.356 . S
C1141 C1140 1.363 . S
C1141 C1147 1.363 . S
C1142 C1143 1.363 . S
C1142 C1147 1.379 . S
C1142 N1149 1.356 . S
C1143 C1142 1.363 . S
C1143 C1146 1.363 . S
N1144 C1146 1.356 . S
N1144 H1156 0.984 . S
N1144 H1157 0.985 . S
N1145 C1147 1.356 . S
N1145 H1150 0.984 . S
N1145 H1151 0.985 . S
C1146 C1140 1.379 . S
C1146 C1143 1.363 . S
C1146 N1144 1.356 . S
C1147 C1141 1.363 . S
C1147 C1142 1.379 . S
C1147 N1145 1.356 . S
N1148 C1140 1.356 . S
N1148 H1154 0.984 . S
N1148 H1155 0.984 . S
N1149 C1142 1.356 . S
N1149 H1152 0.984 . S
N1149 H1153 0.985 . S
H1150 N1145 0.984 . S
H1151 N1145 0.985 . S
H1152 N1149 0.984 . S
H1153 N1149 0.985 . S
H1154 N1148 0.984 . S
H1155 N1148 0.984 . S
H1156 N1144 0.984 . S
H1157 N1144 0.985 . S
C1158 C1159 1.363 . S
C1158 C1164 1.379 1_556 S
C1158 N1166 1.356 . S
C1159 C1158 1.363 . S
C1159 C1165 1.363 . S
C1160 C1161 1.363 . S
C1160 C1165 1.379 . S
C1160 N1167 1.356 . S
C1161 C1160 1.363 . S
C1161 C1164 1.363 1_556 S
N1162 C1164 1.356 . S
N1162 H1174 0.984 . S
N1162 H1175 0.985 . S
N1163 C1165 1.356 . S
N1163 H1168 0.984 . S
N1163 H1169 0.985 . S
C1164 C1158 1.379 1_554 S
C1164 C1161 1.363 1_554 S
C1164 N1162 1.356 . S
C1165 C1159 1.363 . S
C1165 C1160 1.379 . S
C1165 N1163 1.356 . S
N1166 C1158 1.356 . S
N1166 H1172 0.984 1_556 S
N1166 H1173 0.984 . S
N1167 C1160 1.356 . S
N1167 H1170 0.984 . S
N1167 H1171 0.985 . S
H1168 N1163 0.984 . S
H1169 N1163 0.985 . S
H1170 N1167 0.984 . S
H1171 N1167 0.985 . S
H1172 N1166 0.984 1_554 S
H1173 N1166 0.984 . S
H1174 N1162 0.984 . S
H1175 N1162 0.985 . S
C1176 C1177 1.363 . S
C1176 C1182 1.379 . S
C1176 N1184 1.356 . S
C1177 C1176 1.363 . S
C1177 C1183 1.363 . S
C1178 C1179 1.363 . S
C1178 C1183 1.379 . S
C1178 N1185 1.356 . S
C1179 C1178 1.363 . S
C1179 C1182 1.363 . S
N1180 C1182 1.356 . S
N1180 H1192 0.984 . S
N1180 H1193 0.985 . S
N1181 C1183 1.356 . S
N1181 H1186 0.984 . S
N1181 H1187 0.985 . S
C1182 C1176 1.379 . S
C1182 C1179 1.363 . S
C1182 N1180 1.356 . S
C1183 C1177 1.363 . S
C1183 C1178 1.379 . S
C1183 N1181 1.356 . S
N1184 C1176 1.356 . S
N1184 H1190 0.984 . S
N1184 H1191 0.984 . S
N1185 C1178 1.356 . S
N1185 H1188 0.984 . S
N1185 H1189 0.985 . S
H1186 N1181 0.984 . S
H1187 N1181 0.985 . S
H1188 N1185 0.984 . S
H1189 N1185 0.985 . S
H1190 N1184 0.984 . S
H1191 N1184 0.984 . S
H1192 N1180 0.984 . S
H1193 N1180 0.985 . S
C1194 C1195 1.363 . S
C1194 C1200 1.379 . S
C1194 N1202 1.356 . S
C1195 C1194 1.363 . S
C1195 C1201 1.363 . S
C1196 C1197 1.363 . S
C1196 C1201 1.379 . S
C1196 N1203 1.356 . S
C1197 C1196 1.363 . S
C1197 C1200 1.363 . S
N1198 C1200 1.356 . S
N1198 H1210 0.984 . S
N1198 H1211 0.985 . S
N1199 C1201 1.356 . S
N1199 H1204 0.984 . S
N1199 H1205 0.985 . S
C1200 C1194 1.379 . S
C1200 C1197 1.363 . S
C1200 N1198 1.356 . S
C1201 C1195 1.363 . S
C1201 C1196 1.379 . S
C1201 N1199 1.356 . S
N1202 C1194 1.356 . S
N1202 H1208 0.984 1_565 S
N1202 H1209 0.984 1_565 S
N1203 C1196 1.356 . S
N1203 H1206 0.984 . S
N1203 H1207 0.985 . S
H1204 N1199 0.984 . S
H1205 N1199 0.985 . S
H1206 N1203 0.984 . S
H1207 N1203 0.985 . S
H1208 N1202 0.984 1_545 S
H1209 N1202 0.984 1_545 S
H1210 N1198 0.984 . S
H1211 N1198 0.985 . S
C1212 C1213 1.363 . S
C1212 C1218 1.379 . S
C1212 N1220 1.356 . S
C1213 C1212 1.363 . S
C1213 C1219 1.363 . S
C1214 C1215 1.363 . S
C1214 C1219 1.379 . S
C1214 N1221 1.356 . S
C1215 C1214 1.363 . S
C1215 C1218 1.363 . S
N1216 C1218 1.356 . S
N1216 H1228 0.984 . S
N1216 H1229 0.985 . S
N1217 C1219 1.356 . S
N1217 H1222 0.984 . S
N1217 H1223 0.985 . S
C1218 C1212 1.379 . S
C1218 C1215 1.363 . S
C1218 N1216 1.356 . S
C1219 C1213 1.363 . S
C1219 C1214 1.379 . S
C1219 N1217 1.356 . S
N1220 C1212 1.356 . S
N1220 H1226 0.984 . S
N1220 H1227 0.984 . S
N1221 C1214 1.356 . S
N1221 H1224 0.984 . S
N1221 H1225 0.985 . S
H1222 N1217 0.984 . S
H1223 N1217 0.985 . S
H1224 N1221 0.984 . S
H1225 N1221 0.985 . S
H1226 N1220 0.984 . S
H1227 N1220 0.984 . S
H1228 N1216 0.984 . S
H1229 N1216 0.985 . S
C1230 C1231 1.363 . S
C1230 C1236 1.379 1_554 S
C1230 N1238 1.356 . S
C1231 C1230 1.363 . S
C1231 C1237 1.363 . S
C1232 C1233 1.363 . S
C1232 C1237 1.379 . S
C1232 N1239 1.356 . S
C1233 C1232 1.363 . S
C1233 C1236 1.363 1_554 S
N1234 C1236 1.356 . S
N1234 H1246 0.984 . S
N1234 H1247 0.985 . S
N1235 C1237 1.356 . S
N1235 H1240 0.984 . S
N1235 H1241 0.985 . S
C1236 C1230 1.379 1_556 S
C1236 C1233 1.363 1_556 S
C1236 N1234 1.356 . S
C1237 C1231 1.363 . S
C1237 C1232 1.379 . S
C1237 N1235 1.356 . S
N1238 C1230 1.356 . S
N1238 H1244 0.984 1_544 S
N1238 H1245 0.984 1_545 S
N1239 C1232 1.356 . S
N1239 H1242 0.984 . S
N1239 H1243 0.985 . S
H1240 N1235 0.984 . S
H1241 N1235 0.985 . S
H1242 N1239 0.984 . S
H1243 N1239 0.985 . S
H1244 N1238 0.984 1_566 S
H1245 N1238 0.984 1_565 S
H1246 N1234 0.984 . S
H1247 N1234 0.985 . S
C1248 C1249 1.363 . S
C1248 C1254 1.379 . S
C1248 N1256 1.356 . S
C1249 C1248 1.363 . S
C1249 C1255 1.363 . S
C1250 C1251 1.363 . S
C1250 C1255 1.379 . S
C1250 N1257 1.356 . S
C1251 C1250 1.363 . S
C1251 C1254 1.363 . S
N1252 C1254 1.356 . S
N1252 H1264 0.984 . S
N1252 H1265 0.985 . S
N1253 C1255 1.356 . S
N1253 H1258 0.984 . S
N1253 H1259 0.985 . S
C1254 C1248 1.379 . S
C1254 C1251 1.363 . S
C1254 N1252 1.356 . S
C1255 C1249 1.363 . S
C1255 C1250 1.379 . S
C1255 N1253 1.356 . S
N1256 C1248 1.356 . S
N1256 H1262 0.984 . S
N1256 H1263 0.984 . S
N1257 C1250 1.356 . S
N1257 H1260 0.984 . S
N1257 H1261 0.985 . S
H1258 N1253 0.984 . S
H1259 N1253 0.985 . S
H1260 N1257 0.984 . S
H1261 N1257 0.985 . S
H1262 N1256 0.984 . S
H1263 N1256 0.984 . S
H1264 N1252 0.984 . S
H1265 N1252 0.985 . S
C1266 C1267 1.363 . S
C1266 C1272 1.379 . S
C1266 N1274 1.356 . S
C1267 C1266 1.363 . S
C1267 C1273 1.363 . S
C1268 C1269 1.363 1_545 S
C1268 C1273 1.379 1_545 S
C1268 N1275 1.356 . S
C1269 C1268 1.363 1_565 S
C1269 C1272 1.363 . S
N1270 C1272 1.356 . S
N1270 H1282 0.984 . S
N1270 H1283 0.985 . S
N1271 C1273 1.360 . S
N1271 H1276 1.001 . S
N1271 H1277 0.964 1_565 S
C1272 C1266 1.379 . S
C1272 C1269 1.363 . S
C1272 N1270 1.356 . S
C1273 C1267 1.363 . S
C1273 C1268 1.379 1_565 S
C1273 N1271 1.360 . S
N1274 C1266 1.356 . S
N1274 H1280 0.984 . S
N1274 H1281 0.984 . S
N1275 C1268 1.356 . S
N1275 H1278 0.984 . S
N1275 H1279 0.985 . S
H1276 N1271 1.001 . S
H1277 N1271 0.964 1_545 S
H1278 N1275 0.984 . S
H1279 N1275 0.985 . S
H1280 N1274 0.984 . S
H1281 N1274 0.984 . S
H1282 N1270 0.984 . S
H1283 N1270 0.985 . S
C1284 C1285 1.363 . S
C1284 C1290 1.379 . S
C1284 N1292 1.356 . S
C1285 C1284 1.363 . S
C1285 C1291 1.363 . S
C1286 C1287 1.363 . S
C1286 C1291 1.379 . S
C1286 N1293 1.356 . S
C1287 C1286 1.363 . S
C1287 C1290 1.363 . S
N1288 C1290 1.356 . S
N1288 H1300 0.984 . S
N1288 H1301 0.985 . S
N1289 C1291 1.356 . S
N1289 H1294 0.984 . S
N1289 H1295 0.985 . S
C1290 C1284 1.379 . S
C1290 C1287 1.363 . S
C1290 N1288 1.356 . S
C1291 C1285 1.363 . S
C1291 C1286 1.379 . S
C1291 N1289 1.356 . S
N1292 C1284 1.356 . S
N1292 H1298 0.984 . S
N1292 H1299 0.984 . S
N1293 C1286 1.356 . S
N1293 H1296 0.984 . S
N1293 H1297 0.985 . S
H1294 N1289 0.984 . S
H1295 N1289 0.985 . S
H1296 N1293 0.984 . S
H1297 N1293 0.985 . S
H1298 N1292 0.984 . S
H1299 N1292 0.984 . S
H1300 N1288 0.984 . S
H1301 N1288 0.985 . S
C1302 C1303 1.363 . S
C1302 C1308 1.379 . S
C1302 N1310 1.356 . S
C1303 C1302 1.363 . S
C1303 C1309 1.363 . S
C1304 C1305 1.363 1_565 S
C1304 C1309 1.379 1_565 S
C1304 N1311 1.356 . S
C1305 C1304 1.363 1_545 S
C1305 C1308 1.363 . S
N1306 C1308 1.356 . S
N1306 H1318 0.984 . S
N1306 H1319 0.985 . S
N1307 C1309 1.356 . S
N1307 H1312 0.984 . S
N1307 H1313 0.985 1_545 S
C1308 C1302 1.379 . S
C1308 C1305 1.363 . S
C1308 N1306 1.356 . S
C1309 C1303 1.363 . S
C1309 C1304 1.379 1_545 S
C1309 N1307 1.356 . S
N1310 C1302 1.356 . S
N1310 H1316 0.984 . S
N1310 H1317 0.984 . S
N1311 C1304 1.356 . S
N1311 H1314 0.984 . S
N1311 H1315 0.985 . S
H1312 N1307 0.984 . S
H1313 N1307 0.985 1_565 S
H1314 N1311 0.984 . S
H1315 N1311 0.985 . S
H1316 N1310 0.984 . S
H1317 N1310 0.984 . S
H1318 N1306 0.984 . S
H1319 N1306 0.985 . S
C1320 C1321 1.363 . S
C1320 C1326 1.379 . S
C1320 N1328 1.356 . S
C1321 C1320 1.363 . S
C1321 C1327 1.363 . S
C1322 C1323 1.363 . S
C1322 C1327 1.379 . S
C1322 N1329 1.356 . S
C1323 C1322 1.363 . S
C1323 C1326 1.363 . S
N1324 C1326 1.356 . S
N1324 H1336 0.984 . S
N1324 H1337 0.985 . S
N1325 C1327 1.356 . S
N1325 H1330 0.984 . S
N1325 H1331 0.985 . S
C1326 C1320 1.379 . S
C1326 C1323 1.363 . S
C1326 N1324 1.356 . S
C1327 C1321 1.363 . S
C1327 C1322 1.379 . S
C1327 N1325 1.356 . S
N1328 C1320 1.356 . S
N1328 H1334 0.984 . S
N1328 H1335 0.984 . S
N1329 C1322 1.356 . S
N1329 H1332 0.984 . S
N1329 H1333 0.985 . S
H1330 N1325 0.984 . S
H1331 N1325 0.985 . S
H1332 N1329 0.984 . S
H1333 N1329 0.985 . S
H1334 N1328 0.984 . S
H1335 N1328 0.984 . S
H1336 N1324 0.984 . S
H1337 N1324 0.985 . S
C1338 C1339 1.363 . S
C1338 C1344 1.379 1_565 S
C1338 N1346 1.356 . S
C1339 C1338 1.363 . S
C1339 C1345 1.363 . S
C1340 C1341 1.363 . S
C1340 C1345 1.379 . S
C1340 N1347 1.356 . S
C1341 C1340 1.363 . S
C1341 C1344 1.363 1_565 S
N1342 C1344 1.356 . S
N1342 H1354 0.984 . S
N1342 H1355 0.985 . S
N1343 C1345 1.356 . S
N1343 H1348 0.984 . S
N1343 H1349 0.985 . S
C1344 C1338 1.379 1_545 S
C1344 C1341 1.363 1_545 S
C1344 N1342 1.356 . S
C1345 C1339 1.363 . S
C1345 C1340 1.379 . S
C1345 N1343 1.356 . S
N1346 C1338 1.356 . S
N1346 H1352 0.984 1_565 S
N1346 H1353 0.984 . S
N1347 C1340 1.356 . S
N1347 H1350 0.984 . S
N1347 H1351 0.985 . S
H1348 N1343 0.984 . S
H1349 N1343 0.985 . S
H1350 N1347 0.984 . S
H1351 N1347 0.985 . S
H1352 N1346 0.984 1_545 S
H1353 N1346 0.984 . S
H1354 N1342 0.984 . S
H1355 N1342 0.985 . S
C1356 C1357 1.363 . S
C1356 C1362 1.379 . S
C1356 N1364 1.356 . S
C1357 C1356 1.363 . S
C1357 C1363 1.363 . S
C1358 C1359 1.363 . S
C1358 C1363 1.379 . S
C1358 N1365 1.356 . S
C1359 C1358 1.363 . S
C1359 C1362 1.363 . S
N1360 C1362 1.356 . S
N1360 H1372 0.984 . S
N1360 H1373 0.985 . S
N1361 C1363 1.356 . S
N1361 H1366 0.984 . S
N1361 H1367 0.985 . S
C1362 C1356 1.379 . S
C1362 C1359 1.363 . S
C1362 N1360 1.356 . S
C1363 C1357 1.363 . S
C1363 C1358 1.379 . S
C1363 N1361 1.356 . S
N1364 C1356 1.356 . S
N1364 H1370 0.984 . S
N1364 H1371 0.984 . S
N1365 C1358 1.356 . S
N1365 H1368 0.984 . S
N1365 H1369 0.985 . S
H1366 N1361 0.984 . S
H1367 N1361 0.985 . S
H1368 N1365 0.984 . S
H1369 N1365 0.985 . S
H1370 N1364 0.984 . S
H1371 N1364 0.984 . S
H1372 N1360 0.984 . S
H1373 N1360 0.985 . S
C1374 C1375 1.363 . S
C1374 C1380 1.379 . S
C1374 N1382 1.356 1_545 S
C1375 C1374 1.363 . S
C1375 C1381 1.363 . S
C1376 C1377 1.363 . S
C1376 C1381 1.379 . S
C1376 N1383 1.356 . S
C1377 C1376 1.363 . S
C1377 C1380 1.363 . S
N1378 C1380 1.356 . S
N1378 H1390 0.984 . S
N1378 H1391 0.985 . S
N1379 C1381 1.356 1_554 S
N1379 H1384 0.984 1_545 S
N1379 H1385 0.985 . S
C1380 C1374 1.379 . S
C1380 C1377 1.363 . S
C1380 N1378 1.356 . S
C1381 C1375 1.363 . S
C1381 C1376 1.379 . S
C1381 N1379 1.356 1_556 S
N1382 C1374 1.356 1_565 S
N1382 H1388 0.984 . S
N1382 H1389 0.984 . S
N1383 C1376 1.356 . S
N1383 H1386 0.984 . S
N1383 H1387 0.985 1_556 S
H1384 N1379 0.984 1_565 S
H1385 N1379 0.985 . S
H1386 N1383 0.984 . S
H1387 N1383 0.985 1_554 S
H1388 N1382 0.984 . S
H1389 N1382 0.984 . S
H1390 N1378 0.984 . S
H1391 N1378 0.985 . S
C1392 C1393 1.363 . S
C1392 C1398 1.379 . S
C1392 N1400 1.356 . S
C1393 C1392 1.363 . S
C1393 C1399 1.363 . S
C1394 C1395 1.363 . S
C1394 C1399 1.379 . S
C1394 N1401 1.356 . S
C1395 C1394 1.363 . S
C1395 C1398 1.363 . S
N1396 C1398 1.356 . S
N1396 H1408 0.984 . S
N1396 H1409 0.985 . S
N1397 C1399 1.356 . S
N1397 H1402 0.984 . S
N1397 H1403 0.985 . S
C1398 C1392 1.379 . S
C1398 C1395 1.363 . S
C1398 N1396 1.356 . S
C1399 C1393 1.363 . S
C1399 C1394 1.379 . S
C1399 N1397 1.356 . S
N1400 C1392 1.356 . S
N1400 H1406 0.984 . S
N1400 H1407 0.984 . S
N1401 C1394 1.356 . S
N1401 H1404 0.984 . S
N1401 H1405 0.985 . S
H1402 N1397 0.984 . S
H1403 N1397 0.985 . S
H1404 N1401 0.984 . S
H1405 N1401 0.985 . S
H1406 N1400 0.984 . S
H1407 N1400 0.984 . S
H1408 N1396 0.984 . S
H1409 N1396 0.985 . S
C1410 C1411 1.363 . S
C1410 C1416 1.379 . S
C1410 N1418 1.356 . S
C1411 C1410 1.363 . S
C1411 C1417 1.363 . S
C1412 C1413 1.363 . S
C1412 C1417 1.379 . S
C1412 N1419 1.356 . S
C1413 C1412 1.363 . S
C1413 C1416 1.363 . S
N1414 C1416 1.356 . S
N1414 H1426 0.984 . S
N1414 H1427 0.985 . S
N1415 C1417 1.356 . S
N1415 H1420 0.984 . S
N1415 H1421 0.985 . S
C1416 C1410 1.379 . S
C1416 C1413 1.363 . S
C1416 N1414 1.356 . S
C1417 C1411 1.363 . S
C1417 C1412 1.379 . S
C1417 N1415 1.356 . S
N1418 C1410 1.356 . S
N1418 H1424 0.984 . S
N1418 H1425 0.984 . S
N1419 C1412 1.356 . S
N1419 H1422 0.984 . S
N1419 H1423 0.985 . S
H1420 N1415 0.984 . S
H1421 N1415 0.985 . S
H1422 N1419 0.984 . S
H1423 N1419 0.985 . S
H1424 N1418 0.984 . S
H1425 N1418 0.984 . S
H1426 N1414 0.984 . S
H1427 N1414 0.985 . S
C1428 C1429 1.363 . S
C1428 C1434 1.379 1_655 S
C1428 N1436 1.356 . S
C1429 C1428 1.363 . S
C1429 C1435 1.363 . S
C1430 C1431 1.363 . S
C1430 C1435 1.379 . S
C1430 N1437 1.356 . S
C1431 C1430 1.363 . S
C1431 C1434 1.363 1_655 S
N1432 C1434 1.356 . S
N1432 H1444 0.984 . S
N1432 H1445 0.985 . S
N1433 C1435 1.356 . S
N1433 H1438 0.984 . S
N1433 H1439 0.985 . S
C1434 C1428 1.379 1_455 S
C1434 C1431 1.363 1_455 S
C1434 N1432 1.356 . S
C1435 C1429 1.363 . S
C1435 C1430 1.379 . S
C1435 N1433 1.356 . S
N1436 C1428 1.356 . S
N1436 H1442 0.984 1_655 S
N1436 H1443 0.984 . S
N1437 C1430 1.356 . S
N1437 H1440 0.984 . S
N1437 H1441 0.985 . S
H1438 N1433 0.984 . S
H1439 N1433 0.985 . S
H1440 N1437 0.984 . S
H1441 N1437 0.985 . S
H1442 N1436 0.984 1_455 S
H1443 N1436 0.984 . S
H1444 N1432 0.984 . S
H1445 N1432 0.985 . S
C1446 C1447 1.363 . S
C1446 C1452 1.379 . S
C1446 N1454 1.356 . S
C1447 C1446 1.363 . S
C1447 C1453 1.363 . S
C1448 C1449 1.363 . S
C1448 C1453 1.379 . S
C1448 N1455 1.356 . S
C1449 C1448 1.363 . S
C1449 C1452 1.363 . S
N1450 C1452 1.356 . S
N1450 H1462 0.984 . S
N1450 H1463 0.985 . S
N1451 C1453 1.356 . S
N1451 H1456 0.984 . S
N1451 H1457 0.985 . S
C1452 C1446 1.379 . S
C1452 C1449 1.363 . S
C1452 N1450 1.356 . S
C1453 C1447 1.363 . S
C1453 C1448 1.379 . S
C1453 N1451 1.356 . S
N1454 C1446 1.356 . S
N1454 H1460 0.984 . S
N1454 H1461 0.984 . S
N1455 C1448 1.356 . S
N1455 H1458 0.984 . S
N1455 H1459 0.985 . S
H1456 N1451 0.984 . S
H1457 N1451 0.985 . S
H1458 N1455 0.984 . S
H1459 N1455 0.985 . S
H1460 N1454 0.984 . S
H1461 N1454 0.984 . S
H1462 N1450 0.984 . S
H1463 N1450 0.985 . S
C1464 C1465 1.363 . S
C1464 C1470 1.379 . S
C1464 N1472 1.356 . S
C1465 C1464 1.363 . S
C1465 C1471 1.363 . S
C1466 C1467 1.363 . S
C1466 C1471 1.379 . S
C1466 N1473 1.356 1_465 S
C1467 C1466 1.363 . S
C1467 C1470 1.363 . S
N1468 C1470 1.344 1_655 S
N1468 H1480 0.981 1_655 S
N1468 H1481 1.001 . S
N1469 C1471 1.356 . S
N1469 H1474 0.984 . S
N1469 H1475 0.994 . S
C1470 C1464 1.379 . S
C1470 C1467 1.363 . S
C1470 N1468 1.344 1_455 S
C1471 C1465 1.363 . S
C1471 C1466 1.379 . S
C1471 N1469 1.356 . S
N1472 C1464 1.356 . S
N1472 H1478 0.984 . S
N1472 H1479 0.984 . S
N1473 C1466 1.356 1_645 S
N1473 H1476 0.984 . S
N1473 H1477 0.985 1_655 S
H1474 N1469 0.984 . S
H1475 N1469 0.994 . S
H1476 N1473 0.984 . S
H1477 N1473 0.985 1_455 S
H1478 N1472 0.984 . S
H1479 N1472 0.984 . S
H1480 N1468 0.981 1_455 S
H1481 N1468 1.001 . S
C1482 C1483 1.363 . S
C1482 C1488 1.379 . S
C1482 N1490 1.356 . S
C1483 C1482 1.363 . S
C1483 C1489 1.363 . S
C1484 C1485 1.363 . S
C1484 C1489 1.379 . S
C1484 N1491 1.356 . S
C1485 C1484 1.363 . S
C1485 C1488 1.363 . S
N1486 C1488 1.356 . S
N1486 H1498 0.984 . S
N1486 H1499 0.985 . S
N1487 C1489 1.356 . S
N1487 H1492 0.984 . S
N1487 H1493 0.985 . S
C1488 C1482 1.379 . S
C1488 C1485 1.363 . S
C1488 N1486 1.356 . S
C1489 C1483 1.363 . S
C1489 C1484 1.379 . S
C1489 N1487 1.356 . S
N1490 C1482 1.356 . S
N1490 H1496 0.984 . S
N1490 H1497 0.984 . S
N1491 C1484 1.356 . S
N1491 H1494 0.984 . S
N1491 H1495 0.985 . S
H1492 N1487 0.984 . S
H1493 N1487 0.985 . S
H1494 N1491 0.984 . S
H1495 N1491 0.985 . S
H1496 N1490 0.984 . S
H1497 N1490 0.984 . S
H1498 N1486 0.984 . S
H1499 N1486 0.985 . S
C1500 C1501 1.363 . S
C1500 C1506 1.379 . S
C1500 N1508 1.356 . S
C1501 C1500 1.363 . S
C1501 C1507 1.363 . S
C1502 C1503 1.363 . S
C1502 C1507 1.379 . S
C1502 N1509 1.356 1_655 S
C1503 C1502 1.363 . S
C1503 C1506 1.363 . S
N1504 C1506 1.356 . S
N1504 H1516 0.984 . S
N1504 H1517 0.985 1_655 S
N1505 C1507 1.356 . S
N1505 H1510 0.984 . S
N1505 H1511 0.985 . S
C1506 C1500 1.379 . S
C1506 C1503 1.363 . S
C1506 N1504 1.356 . S
C1507 C1501 1.363 . S
C1507 C1502 1.379 . S
C1507 N1505 1.356 . S
N1508 C1500 1.356 . S
N1508 H1514 0.984 . S
N1508 H1515 0.984 . S
N1509 C1502 1.356 1_455 S
N1509 H1512 0.984 . S
N1509 H1513 0.985 . S
H1510 N1505 0.984 . S
H1511 N1505 0.985 . S
H1512 N1509 0.984 . S
H1513 N1509 0.985 . S
H1514 N1508 0.984 . S
H1515 N1508 0.984 . S
H1516 N1504 0.984 . S
H1517 N1504 0.985 1_455 S
C1518 C1519 1.363 . S
C1518 C1524 1.379 . S
C1518 N1526 1.356 . S
C1519 C1518 1.363 . S
C1519 C1525 1.363 . S
C1520 C1521 1.363 . S
C1520 C1525 1.379 . S
C1520 N1527 1.356 . S
C1521 C1520 1.363 . S
C1521 C1524 1.363 . S
N1522 C1524 1.356 . S
N1522 H1534 0.984 . S
N1522 H1535 0.985 . S
N1523 C1525 1.356 . S
N1523 H1528 0.984 . S
N1523 H1529 0.985 . S
C1524 C1518 1.379 . S
C1524 C1521 1.363 . S
C1524 N1522 1.356 . S
C1525 C1519 1.363 . S
C1525 C1520 1.379 . S
C1525 N1523 1.356 . S
N1526 C1518 1.356 . S
N1526 H1532 0.984 . S
N1526 H1533 0.984 . S
N1527 C1520 1.356 . S
N1527 H1530 0.982 . S
N1527 H1531 0.985 . S
H1528 N1523 0.984 . S
H1529 N1523 0.985 . S
H1530 N1527 0.982 . S
H1531 N1527 0.985 . S
H1532 N1526 0.984 . S
H1533 N1526 0.984 . S
H1534 N1522 0.984 . S
H1535 N1522 0.985 . S
C1536 C1537 1.363 . S
C1536 C1542 1.379 . S
C1536 N1544 1.356 . S
C1537 C1536 1.363 . S
C1537 C1543 1.363 . S
C1538 C1539 1.363 . S
C1538 C1543 1.379 . S
C1538 N1545 1.356 . S
C1539 C1538 1.363 . S
C1539 C1542 1.363 . S
N1540 C1542 1.356 . S
N1540 H1552 0.984 . S
N1540 H1553 0.985 . S
N1541 C1543 1.356 . S
N1541 H1546 0.984 . S
N1541 H1547 0.985 . S
C1542 C1536 1.379 . S
C1542 C1539 1.363 . S
C1542 N1540 1.356 . S
C1543 C1537 1.363 . S
C1543 C1538 1.379 . S
C1543 N1541 1.356 . S
N1544 C1536 1.356 . S
N1544 H1550 0.984 . S
N1544 H1551 0.984 . S
N1545 C1538 1.356 . S
N1545 H1548 0.984 . S
N1545 H1549 0.985 . S
H1546 N1541 0.984 . S
H1547 N1541 0.985 . S
H1548 N1545 0.984 . S
H1549 N1545 0.985 . S
H1550 N1544 0.984 . S
H1551 N1544 0.984 . S
H1552 N1540 0.984 . S
H1553 N1540 0.985 . S
C1554 C1555 1.363 . S
C1554 C1560 1.379 . S
C1554 N1562 1.356 . S
C1555 C1554 1.363 . S
C1555 C1561 1.363 1_556 S
C1556 C1557 1.363 . S
C1556 C1561 1.379 1_556 S
C1556 N1563 1.361 . S
C1557 C1556 1.363 . S
C1557 C1560 1.363 . S
N1558 C1560 1.356 . S
N1558 H1570 0.984 . S
N1558 H1571 0.985 . S
N1559 C1561 1.356 . S
N1559 H1564 0.984 . S
N1559 H1565 0.985 . S
C1560 C1554 1.379 . S
C1560 C1557 1.363 . S
C1560 N1558 1.356 . S
C1561 C1555 1.363 1_554 S
C1561 C1556 1.379 1_554 S
C1561 N1559 1.356 . S
N1562 C1554 1.356 . S
N1562 H1568 0.984 . S
N1562 H1569 0.984 . S
N1563 C1556 1.361 . S
N1563 H1566 1.006 . S
N1563 H1567 0.958 1_556 S
H1564 N1559 0.984 . S
H1565 N1559 0.985 . S
H1566 N1563 1.006 . S
H1567 N1563 0.958 1_554 S
H1568 N1562 0.984 . S
H1569 N1562 0.984 . S
H1570 N1558 0.984 . S
H1571 N1558 0.985 . S
C1572 C1573 1.363 . S
C1572 C1578 1.379 . S
C1572 N1580 1.356 . S
C1573 C1572 1.363 . S
C1573 C1579 1.363 . S
C1574 C1575 1.363 . S
C1574 C1579 1.379 . S
C1574 N1581 1.356 . S
C1575 C1574 1.363 . S
C1575 C1578 1.363 . S
N1576 C1578 1.356 . S
N1576 H1588 0.984 . S
N1576 H1589 0.985 . S
N1577 C1579 1.356 . S
N1577 H1582 0.984 . S
N1577 H1583 0.985 . S
C1578 C1572 1.379 . S
C1578 C1575 1.363 . S
C1578 N1576 1.356 . S
C1579 C1573 1.363 . S
C1579 C1574 1.379 . S
C1579 N1577 1.356 . S
N1580 C1572 1.356 . S
N1580 H1586 0.984 . S
N1580 H1587 0.984 . S
N1581 C1574 1.356 . S
N1581 H1584 0.984 . S
N1581 H1585 0.985 . S
H1582 N1577 0.984 . S
H1583 N1577 0.985 . S
H1584 N1581 0.984 . S
H1585 N1581 0.985 . S
H1586 N1580 0.984 . S
H1587 N1580 0.984 . S
H1588 N1576 0.984 . S
H1589 N1576 0.985 . S
C1590 C1591 1.363 . S
C1590 C1596 1.379 . S
C1590 N1598 1.356 . S
C1591 C1590 1.363 . S
C1591 C1597 1.363 . S
C1592 C1593 1.363 . S
C1592 C1597 1.379 . S
C1592 N1599 1.356 . S
C1593 C1592 1.363 . S
C1593 C1596 1.363 . S
N1594 C1596 1.356 . S
N1594 H1606 0.984 . S
N1594 H1607 0.985 . S
N1595 C1597 1.356 . S
N1595 H1600 0.984 . S
N1595 H1601 0.985 . S
C1596 C1590 1.379 . S
C1596 C1593 1.363 . S
C1596 N1594 1.356 . S
C1597 C1591 1.363 . S
C1597 C1592 1.379 . S
C1597 N1595 1.356 . S
N1598 C1590 1.356 . S
N1598 H1604 0.984 . S
N1598 H1605 0.984 . S
N1599 C1592 1.356 . S
N1599 H1602 0.984 . S
N1599 H1603 0.985 . S
H1600 N1595 0.984 . S
H1601 N1595 0.985 . S
H1602 N1599 0.984 . S
H1603 N1599 0.985 . S
H1604 N1598 0.984 . S
H1605 N1598 0.984 . S
H1606 N1594 0.984 . S
H1607 N1594 0.985 . S
C1608 C1609 1.363 . S
C1608 C1614 1.379 . S
C1608 N1616 1.356 . S
C1609 C1608 1.363 . S
C1609 C1615 1.363 . S
C1610 C1611 1.363 . S
C1610 C1615 1.379 . S
C1610 N1617 1.356 . S
C1611 C1610 1.363 . S
C1611 C1614 1.363 . S
N1612 C1614 1.356 . S
N1612 H1624 0.984 . S
N1612 H1625 0.985 . S
N1613 C1615 1.356 . S
N1613 H1618 0.984 . S
N1613 H1619 0.985 . S
C1614 C1608 1.379 . S
C1614 C1611 1.363 . S
C1614 N1612 1.356 . S
C1615 C1609 1.363 . S
C1615 C1610 1.379 . S
C1615 N1613 1.356 . S
N1616 C1608 1.356 . S
N1616 H1622 0.984 . S
N1616 H1623 0.984 . S
N1617 C1610 1.356 . S
N1617 H1620 0.984 . S
N1617 H1621 0.985 . S
H1618 N1613 0.984 . S
H1619 N1613 0.985 . S
H1620 N1617 0.984 . S
H1621 N1617 0.985 . S
H1622 N1616 0.984 . S
H1623 N1616 0.984 . S
H1624 N1612 0.984 . S
H1625 N1612 0.985 . S
C1626 C1627 1.363 1_556 S
C1626 C1632 1.379 1_556 S
C1626 N1634 1.356 . S
C1627 C1626 1.363 1_554 S
C1627 C1633 1.363 . S
C1628 C1629 1.363 . S
C1628 C1633 1.379 . S
C1628 N1635 1.356 . S
C1629 C1628 1.363 . S
C1629 C1632 1.363 . S
N1630 C1632 1.356 . S
N1630 H1642 0.984 1_554 S
N1630 H1643 0.985 . S
N1631 C1633 1.356 . S
N1631 H1636 0.984 1_455 S
N1631 H1637 0.985 1_455 S
C1632 C1626 1.379 1_554 S
C1632 C1629 1.363 . S
C1632 N1630 1.356 . S
C1633 C1627 1.363 . S
C1633 C1628 1.379 . S
C1633 N1631 1.356 . S
N1634 C1626 1.356 . S
N1634 H1640 0.984 . S
N1634 H1641 0.984 . S
N1635 C1628 1.356 . S
N1635 H1638 0.984 . S
N1635 H1639 0.985 . S
H1636 N1631 0.984 1_655 S
H1637 N1631 0.985 1_655 S
H1638 N1635 0.984 . S
H1639 N1635 0.985 . S
H1640 N1634 0.984 . S
H1641 N1634 0.984 . S
H1642 N1630 0.984 1_556 S
H1643 N1630 0.985 . S
C1644 C1645 1.363 . S
C1644 C1650 1.379 . S
C1644 N1652 1.356 . S
C1645 C1644 1.363 . S
C1645 C1651 1.363 . S
C1646 C1647 1.363 . S
C1646 C1651 1.379 . S
C1646 N1653 1.356 . S
C1647 C1646 1.363 . S
C1647 C1650 1.363 . S
N1648 C1650 1.356 . S
N1648 H1660 0.984 . S
N1648 H1661 0.985 . S
N1649 C1651 1.356 . S
N1649 H1654 0.984 . S
N1649 H1655 0.985 . S
C1650 C1644 1.379 . S
C1650 C1647 1.363 . S
C1650 N1648 1.356 . S
C1651 C1645 1.363 . S
C1651 C1646 1.379 . S
C1651 N1649 1.356 . S
N1652 C1644 1.356 . S
N1652 H1658 0.984 . S
N1652 H1659 0.984 . S
N1653 C1646 1.356 . S
N1653 H1656 0.984 . S
N1653 H1657 0.985 . S
H1654 N1649 0.984 . S
H1655 N1649 0.985 . S
H1656 N1653 0.984 . S
H1657 N1653 0.985 . S
H1658 N1652 0.984 . S
H1659 N1652 0.984 . S
H1660 N1648 0.984 . S
H1661 N1648 0.985 . S
C1662 C1663 1.363 . S
C1662 C1668 1.379 . S
C1662 N1670 1.356 . S
C1663 C1662 1.363 . S
C1663 C1669 1.363 . S
C1664 C1665 1.363 . S
C1664 C1669 1.379 . S
C1664 N1671 1.356 . S
C1665 C1664 1.363 . S
C1665 C1668 1.363 . S
N1666 C1668 1.356 . S
N1666 H1678 0.984 . S
N1666 H1679 0.985 . S
N1667 C1669 1.356 . S
N1667 H1672 0.984 . S
N1667 H1673 0.985 . S
C1668 C1662 1.379 . S
C1668 C1665 1.363 . S
C1668 N1666 1.356 . S
C1669 C1663 1.363 . S
C1669 C1664 1.379 . S
C1669 N1667 1.356 . S
N1670 C1662 1.356 . S
N1670 H1676 0.984 . S
N1670 H1677 0.984 . S
N1671 C1664 1.356 . S
N1671 H1674 0.984 . S
N1671 H1675 0.985 . S
H1672 N1667 0.984 . S
H1673 N1667 0.985 . S
H1674 N1671 0.984 . S
H1675 N1671 0.985 . S
H1676 N1670 0.984 . S
H1677 N1670 0.984 . S
H1678 N1666 0.984 . S
H1679 N1666 0.985 . S
C1680 C1681 1.363 . S
C1680 C1686 1.379 . S
C1680 N1688 1.356 . S
C1681 C1680 1.363 . S
C1681 C1687 1.363 . S
C1682 C1683 1.363 . S
C1682 C1687 1.379 . S
C1682 N1689 1.356 . S
C1683 C1682 1.363 . S
C1683 C1686 1.363 . S
N1684 C1686 1.356 . S
N1684 H1696 0.984 . S
N1684 H1697 0.985 . S
N1685 C1687 1.356 . S
N1685 H1690 0.984 . S
N1685 H1691 0.985 . S
C1686 C1680 1.379 . S
C1686 C1683 1.363 . S
C1686 N1684 1.356 . S
C1687 C1681 1.363 . S
C1687 C1682 1.379 . S
C1687 N1685 1.356 . S
N1688 C1680 1.356 . S
N1688 H1694 0.984 . S
N1688 H1695 0.984 . S
N1689 C1682 1.356 . S
N1689 H1692 0.984 . S
N1689 H1693 0.985 . S
H1690 N1685 0.984 . S
H1691 N1685 0.985 . S
H1692 N1689 0.984 . S
H1693 N1689 0.985 . S
H1694 N1688 0.984 . S
H1695 N1688 0.984 . S
H1696 N1684 0.984 . S
H1697 N1684 0.985 . S
C1698 C1699 1.363 . S
C1698 C1704 1.379 . S
C1698 N1706 1.356 . S
C1699 C1698 1.363 . S
C1699 C1705 1.363 . S
C1700 C1701 1.363 . S
C1700 C1705 1.379 . S
C1700 N1707 1.356 . S
C1701 C1700 1.363 . S
C1701 C1704 1.363 . S
N1702 C1704 1.356 . S
N1702 H1714 0.984 1_554 S
N1702 H1715 0.985 1_554 S
N1703 C1705 1.356 . S
N1703 H1708 0.984 . S
N1703 H1709 0.985 . S
C1704 C1698 1.379 . S
C1704 C1701 1.363 . S
C1704 N1702 1.356 . S
C1705 C1699 1.363 . S
C1705 C1700 1.379 . S
C1705 N1703 1.356 . S
N1706 C1698 1.356 . S
N1706 H1712 0.984 . S
N1706 H1713 0.984 . S
N1707 C1700 1.356 . S
N1707 H1710 0.984 . S
N1707 H1711 0.985 . S
H1708 N1703 0.984 . S
H1709 N1703 0.985 . S
H1710 N1707 0.984 . S
H1711 N1707 0.985 . S
H1712 N1706 0.984 . S
H1713 N1706 0.984 . S
H1714 N1702 0.984 1_556 S
H1715 N1702 0.985 1_556 S
C1716 C1717 1.363 . S
C1716 C1722 1.379 . S
C1716 N1724 1.356 . S
C1717 C1716 1.363 . S
C1717 C1723 1.363 . S
C1718 C1719 1.363 . S
C1718 C1723 1.379 . S
C1718 N1725 1.356 . S
C1719 C1718 1.363 . S
C1719 C1722 1.363 . S
N1720 C1722 1.356 . S
N1720 H1732 0.984 . S
N1720 H1733 0.985 . S
N1721 C1723 1.356 . S
N1721 H1726 0.984 . S
N1721 H1727 0.985 . S
C1722 C1716 1.379 . S
C1722 C1719 1.363 . S
C1722 N1720 1.356 . S
C1723 C1717 1.363 . S
C1723 C1718 1.379 . S
C1723 N1721 1.356 . S
N1724 C1716 1.356 . S
N1724 H1730 0.984 . S
N1724 H1731 0.984 . S
N1725 C1718 1.356 . S
N1725 H1728 0.984 . S
N1725 H1729 0.985 . S
H1726 N1721 0.984 . S
H1727 N1721 0.985 . S
H1728 N1725 0.984 . S
H1729 N1725 0.985 . S
H1730 N1724 0.984 . S
H1731 N1724 0.984 . S
H1732 N1720 0.984 . S
H1733 N1720 0.985 . S
C1734 C1735 1.363 . S
C1734 C1740 1.379 . S
C1734 N1742 1.356 . S
C1735 C1734 1.363 . S
C1735 C1741 1.363 . S
C1736 C1737 1.363 . S
C1736 C1741 1.379 . S
C1736 N1743 1.356 . S
C1737 C1736 1.363 . S
C1737 C1740 1.363 . S
N1738 C1740 1.356 . S
N1738 H1750 0.984 . S
N1738 H1751 0.985 . S
N1739 C1741 1.356 . S
N1739 H1744 0.984 . S
N1739 H1745 0.985 . S
C1740 C1734 1.379 . S
C1740 C1737 1.363 . S
C1740 N1738 1.356 . S
C1741 C1735 1.363 . S
C1741 C1736 1.379 . S
C1741 N1739 1.356 . S
N1742 C1734 1.356 . S
N1742 H1748 0.984 . S
N1742 H1749 0.984 . S
N1743 C1736 1.356 . S
N1743 H1746 0.984 . S
N1743 H1747 0.985 . S
H1744 N1739 0.984 . S
H1745 N1739 0.985 . S
H1746 N1743 0.984 . S
H1747 N1743 0.985 . S
H1748 N1742 0.984 . S
H1749 N1742 0.984 . S
H1750 N1738 0.984 . S
H1751 N1738 0.985 . S
C1752 C1753 1.363 . S
C1752 C1758 1.379 . S
C1752 N1760 1.356 . S
C1753 C1752 1.363 . S
C1753 C1759 1.363 . S
C1754 C1755 1.363 . S
C1754 C1759 1.379 . S
C1754 N1761 1.356 . S
C1755 C1754 1.363 . S
C1755 C1758 1.363 . S
N1756 C1758 1.356 . S
N1756 H1768 0.984 . S
N1756 H1769 0.985 . S
N1757 C1759 1.356 . S
N1757 H1762 0.984 . S
N1757 H1763 0.985 . S
C1758 C1752 1.379 . S
C1758 C1755 1.363 . S
C1758 N1756 1.356 . S
C1759 C1753 1.363 . S
C1759 C1754 1.379 . S
C1759 N1757 1.356 . S
N1760 C1752 1.356 . S
N1760 H1766 0.984 . S
N1760 H1767 0.984 . S
N1761 C1754 1.356 . S
N1761 H1764 0.984 . S
N1761 H1765 0.985 . S
H1762 N1757 0.984 . S
H1763 N1757 0.985 . S
H1764 N1761 0.984 . S
H1765 N1761 0.985 . S
H1766 N1760 0.984 . S
H1767 N1760 0.984 . S
H1768 N1756 0.984 . S
H1769 N1756 0.985 . S
C1770 C1771 1.363 . S
C1770 C1776 1.379 . S
C1770 N1778 1.356 . S
C1771 C1770 1.363 . S
C1771 C1777 1.363 . S
C1772 C1773 1.363 . S
C1772 C1777 1.379 . S
C1772 N1779 1.356 . S
C1773 C1772 1.363 . S
C1773 C1776 1.363 . S
N1774 C1776 1.356 . S
N1774 H1786 0.984 . S
N1774 H1787 0.985 . S
N1775 C1777 1.356 1_554 S
N1775 H1780 0.984 . S
N1775 H1781 0.985 . S
C1776 C1770 1.379 . S
C1776 C1773 1.363 . S
C1776 N1774 1.356 . S
C1777 C1771 1.363 . S
C1777 C1772 1.379 . S
C1777 N1775 1.356 1_556 S
N1778 C1770 1.356 . S
N1778 H1784 0.984 . S
N1778 H1785 0.984 . S
N1779 C1772 1.356 . S
N1779 H1782 0.984 . S
N1779 H1783 0.985 . S
H1780 N1775 0.984 . S
H1781 N1775 0.985 . S
H1782 N1779 0.984 . S
H1783 N1779 0.985 . S
H1784 N1778 0.984 . S
H1785 N1778 0.984 . S
H1786 N1774 0.984 . S
H1787 N1774 0.985 . S
C1788 C1789 1.363 . S
C1788 C1794 1.379 . S
C1788 N1796 1.356 . S
C1789 C1788 1.363 . S
C1789 C1795 1.363 . S
C1790 C1791 1.363 . S
C1790 C1795 1.379 . S
C1790 N1797 1.356 . S
C1791 C1790 1.363 . S
C1791 C1794 1.363 . S
N1792 C1794 1.356 . S
N1792 H1804 0.984 . S
N1792 H1805 0.985 . S
N1793 C1795 1.356 . S
N1793 H1798 0.984 . S
N1793 H1799 0.985 . S
C1794 C1788 1.379 . S
C1794 C1791 1.363 . S
C1794 N1792 1.356 . S
C1795 C1789 1.363 . S
C1795 C1790 1.379 . S
C1795 N1793 1.356 . S
N1796 C1788 1.356 . S
N1796 H1802 0.984 . S
N1796 H1803 0.984 . S
N1797 C1790 1.356 . S
N1797 H1800 0.984 . S
N1797 H1801 0.985 . S
H1798 N1793 0.984 . S
H1799 N1793 0.985 . S
H1800 N1797 0.984 . S
H1801 N1797 0.985 . S
H1802 N1796 0.984 . S
H1803 N1796 0.984 . S
H1804 N1792 0.984 . S
H1805 N1792 0.985 . S
C1806 C1807 1.363 . S
C1806 C1812 1.379 . S
C1806 N1814 1.356 . S
C1807 C1806 1.363 . S
C1807 C1813 1.363 . S
C1808 C1809 1.363 . S
C1808 C1813 1.379 . S
C1808 N1815 1.356 . S
C1809 C1808 1.363 . S
C1809 C1812 1.363 . S
N1810 C1812 1.356 . S
N1810 H1822 0.984 . S
N1810 H1823 0.985 . S
N1811 C1813 1.356 . S
N1811 H1816 0.984 . S
N1811 H1817 0.985 . S
C1812 C1806 1.379 . S
C1812 C1809 1.363 . S
C1812 N1810 1.356 . S
C1813 C1807 1.363 . S
C1813 C1808 1.379 . S
C1813 N1811 1.356 . S
N1814 C1806 1.356 . S
N1814 H1820 0.984 . S
N1814 H1821 0.984 . S
N1815 C1808 1.356 . S
N1815 H1818 0.984 . S
N1815 H1819 0.985 . S
H1816 N1811 0.984 . S
H1817 N1811 0.985 . S
H1818 N1815 0.984 . S
H1819 N1815 0.985 . S
H1820 N1814 0.984 . S
H1821 N1814 0.984 . S
H1822 N1810 0.984 . S
H1823 N1810 0.985 . S
C1824 C1825 1.363 . S
C1824 C1830 1.379 . S
C1824 N1832 1.356 . S
C1825 C1824 1.363 . S
C1825 C1831 1.363 . S
C1826 C1827 1.363 . S
C1826 C1831 1.379 . S
C1826 N1833 1.356 . S
C1827 C1826 1.363 . S
C1827 C1830 1.363 . S
N1828 C1830 1.356 . S
N1828 H1840 0.984 . S
N1828 H1841 0.985 . S
N1829 C1831 1.356 . S
N1829 H1834 0.984 . S
N1829 H1835 0.985 . S
C1830 C1824 1.379 . S
C1830 C1827 1.363 . S
C1830 N1828 1.356 . S
C1831 C1825 1.363 . S
C1831 C1826 1.379 . S
C1831 N1829 1.356 . S
N1832 C1824 1.356 . S
N1832 H1838 0.984 . S
N1832 H1839 0.984 . S
N1833 C1826 1.356 . S
N1833 H1836 0.984 . S
N1833 H1837 0.985 . S
H1834 N1829 0.984 . S
H1835 N1829 0.985 . S
H1836 N1833 0.984 . S
H1837 N1833 0.985 . S
H1838 N1832 0.984 . S
H1839 N1832 0.984 . S
H1840 N1828 0.984 . S
H1841 N1828 0.985 . S
C1842 C1843 1.363 . S
C1842 C1848 1.379 . S
C1842 N1850 1.356 . S
C1843 C1842 1.363 . S
C1843 C1849 1.363 . S
C1844 C1845 1.363 . S
C1844 C1849 1.379 . S
C1844 N1851 1.356 . S
C1845 C1844 1.363 . S
C1845 C1848 1.363 . S
N1846 C1848 1.356 . S
N1846 H1858 0.984 . S
N1846 H1859 0.985 . S
N1847 C1849 1.356 . S
N1847 H1852 0.984 . S
N1847 H1853 0.985 . S
C1848 C1842 1.379 . S
C1848 C1845 1.363 . S
C1848 N1846 1.356 . S
C1849 C1843 1.363 . S
C1849 C1844 1.379 . S
C1849 N1847 1.356 . S
N1850 C1842 1.356 . S
N1850 H1856 0.984 . S
N1850 H1857 0.984 . S
N1851 C1844 1.356 . S
N1851 H1854 0.984 . S
N1851 H1855 0.985 . S
H1852 N1847 0.984 . S
H1853 N1847 0.985 . S
H1854 N1851 0.984 . S
H1855 N1851 0.985 . S
H1856 N1850 0.984 . S
H1857 N1850 0.984 . S
H1858 N1846 0.984 . S
H1859 N1846 0.985 . S
C1860 C1861 1.363 . S
C1860 C1866 1.379 . S
C1860 N1868 1.356 . S
C1861 C1860 1.363 . S
C1861 C1867 1.363 . S
C1862 C1863 1.363 . S
C1862 C1867 1.379 . S
C1862 N1869 1.356 . S
C1863 C1862 1.363 . S
C1863 C1866 1.363 . S
N1864 C1866 1.356 . S
N1864 H1876 0.984 . S
N1864 H1877 0.985 . S
N1865 C1867 1.356 . S
N1865 H1870 0.984 . S
N1865 H1871 0.985 . S
C1866 C1860 1.379 . S
C1866 C1863 1.363 . S
C1866 N1864 1.356 . S
C1867 C1861 1.363 . S
C1867 C1862 1.379 . S
C1867 N1865 1.356 . S
N1868 C1860 1.356 . S
N1868 H1874 0.984 . S
N1868 H1875 0.984 . S
N1869 C1862 1.356 . S
N1869 H1872 0.984 . S
N1869 H1873 0.985 . S
H1870 N1865 0.984 . S
H1871 N1865 0.985 . S
H1872 N1869 0.984 . S
H1873 N1869 0.985 . S
H1874 N1868 0.984 . S
H1875 N1868 0.984 . S
H1876 N1864 0.984 . S
H1877 N1864 0.985 . S
C1878 C1879 1.363 . S
C1878 C1884 1.379 . S
C1878 N1886 1.356 . S
C1879 C1878 1.363 . S
C1879 C1885 1.363 . S
C1880 C1881 1.363 . S
C1880 C1885 1.379 . S
C1880 N1887 1.356 . S
C1881 C1880 1.363 . S
C1881 C1884 1.363 . S
N1882 C1884 1.356 . S
N1882 H1894 0.984 . S
N1882 H1895 0.985 . S
N1883 C1885 1.356 . S
N1883 H1888 0.984 . S
N1883 H1889 0.985 . S
C1884 C1878 1.379 . S
C1884 C1881 1.363 . S
C1884 N1882 1.356 . S
C1885 C1879 1.363 . S
C1885 C1880 1.379 . S
C1885 N1883 1.356 . S
N1886 C1878 1.356 . S
N1886 H1892 0.984 . S
N1886 H1893 0.984 . S
N1887 C1880 1.356 . S
N1887 H1890 0.984 . S
N1887 H1891 0.985 . S
H1888 N1883 0.984 . S
H1889 N1883 0.985 . S
H1890 N1887 0.984 . S
H1891 N1887 0.985 . S
H1892 N1886 0.984 . S
H1893 N1886 0.984 . S
H1894 N1882 0.984 . S
H1895 N1882 0.985 . S
C1896 C1897 1.363 . S
C1896 C1902 1.379 . S
C1896 N1904 1.356 . S
C1897 C1896 1.363 . S
C1897 C1903 1.363 . S
C1898 C1899 1.363 . S
C1898 C1903 1.379 . S
C1898 N1905 1.356 . S
C1899 C1898 1.363 . S
C1899 C1902 1.363 . S
N1900 C1902 1.356 . S
N1900 H1912 0.984 . S
N1900 H1913 0.985 . S
N1901 C1903 1.356 . S
N1901 H1906 0.984 . S
N1901 H1907 0.985 . S
C1902 C1896 1.379 . S
C1902 C1899 1.363 . S
C1902 N1900 1.356 . S
C1903 C1897 1.363 . S
C1903 C1898 1.379 . S
C1903 N1901 1.356 . S
N1904 C1896 1.356 . S
N1904 H1910 0.984 . S
N1904 H1911 0.984 . S
N1905 C1898 1.356 . S
N1905 H1908 0.984 . S
N1905 H1909 0.985 . S
H1906 N1901 0.984 . S
H1907 N1901 0.985 . S
H1908 N1905 0.984 . S
H1909 N1905 0.985 . S
H1910 N1904 0.984 . S
H1911 N1904 0.984 . S
H1912 N1900 0.984 . S
H1913 N1900 0.985 . S
C1914 C1915 1.363 . S
C1914 C1920 1.379 . S
C1914 N1922 1.356 . S
C1915 C1914 1.363 . S
C1915 C1921 1.363 . S
C1916 C1917 1.363 . S
C1916 C1921 1.379 . S
C1916 N1923 1.356 . S
C1917 C1916 1.363 . S
C1917 C1920 1.363 . S
N1918 C1920 1.356 . S
N1918 H1930 0.984 . S
N1918 H1931 0.985 . S
N1919 C1921 1.356 . S
N1919 H1924 0.984 . S
N1919 H1925 0.985 . S
C1920 C1914 1.379 . S
C1920 C1917 1.363 . S
C1920 N1918 1.356 . S
C1921 C1915 1.363 . S
C1921 C1916 1.379 . S
C1921 N1919 1.356 . S
N1922 C1914 1.356 . S
N1922 H1928 0.984 . S
N1922 H1929 0.984 . S
N1923 C1916 1.356 . S
N1923 H1926 0.984 . S
N1923 H1927 0.985 . S
H1924 N1919 0.984 . S
H1925 N1919 0.985 . S
H1926 N1923 0.984 . S
H1927 N1923 0.985 . S
H1928 N1922 0.984 . S
H1929 N1922 0.984 . S
H1930 N1918 0.984 . S
H1931 N1918 0.985 . S
C1932 C1933 1.363 . S
C1932 C1938 1.379 . S
C1932 N1940 1.356 . S
C1933 C1932 1.363 . S
C1933 C1939 1.363 . S
C1934 C1935 1.363 . S
C1934 C1939 1.379 . S
C1934 N1941 1.356 . S
C1935 C1934 1.363 . S
C1935 C1938 1.363 . S
N1936 C1938 1.356 . S
N1936 H1948 0.984 1_565 S
N1936 H1949 0.985 1_565 S
N1937 C1939 1.356 . S
N1937 H1942 0.984 . S
N1937 H1943 0.985 . S
C1938 C1932 1.379 . S
C1938 C1935 1.363 . S
C1938 N1936 1.356 . S
C1939 C1933 1.363 . S
C1939 C1934 1.379 . S
C1939 N1937 1.356 . S
N1940 C1932 1.356 . S
N1940 H1946 0.984 . S
N1940 H1947 0.984 . S
N1941 C1934 1.356 . S
N1941 H1944 0.984 . S
N1941 H1945 0.985 . S
H1942 N1937 0.984 . S
H1943 N1937 0.985 . S
H1944 N1941 0.984 . S
H1945 N1941 0.985 . S
H1946 N1940 0.984 . S
H1947 N1940 0.984 . S
H1948 N1936 0.984 1_545 S
H1949 N1936 0.985 1_545 S
C1950 C1951 1.363 . S
C1950 C1956 1.379 . S
C1950 N1958 1.356 . S
C1951 C1950 1.363 . S
C1951 C1957 1.363 . S
C1952 C1953 1.363 1_655 S
C1952 C1957 1.379 1_655 S
C1952 N1959 1.356 . S
C1953 C1952 1.363 1_455 S
C1953 C1956 1.363 . S
N1954 C1956 1.356 . S
N1954 H1966 0.984 . S
N1954 H1967 0.985 . S
N1955 C1957 1.356 . S
N1955 H1960 0.984 . S
N1955 H1961 0.985 1_455 S
C1956 C1950 1.379 . S
C1956 C1953 1.363 . S
C1956 N1954 1.356 . S
C1957 C1951 1.363 . S
C1957 C1952 1.379 1_455 S
C1957 N1955 1.356 . S
N1958 C1950 1.356 . S
N1958 H1964 0.984 . S
N1958 H1965 0.984 . S
N1959 C1952 1.356 . S
N1959 H1962 0.984 . S
N1959 H1963 0.985 . S
H1960 N1955 0.984 . S
H1961 N1955 0.985 1_655 S
H1962 N1959 0.984 . S
H1963 N1959 0.985 . S
H1964 N1958 0.984 . S
H1965 N1958 0.984 . S
H1966 N1954 0.984 . S
H1967 N1954 0.985 . S
C1968 C1969 1.363 . S
C1968 C1974 1.379 . S
C1968 N1976 1.356 . S
C1969 C1968 1.363 . S
C1969 C1975 1.363 . S
C1970 C1971 1.363 . S
C1970 C1975 1.379 . S
C1970 N1977 1.356 . S
C1971 C1970 1.363 . S
C1971 C1974 1.363 . S
N1972 C1974 1.356 . S
N1972 H1984 0.984 . S
N1972 H1985 0.985 . S
N1973 C1975 1.356 . S
N1973 H1978 0.984 . S
N1973 H1979 0.985 . S
C1974 C1968 1.379 . S
C1974 C1971 1.363 . S
C1974 N1972 1.356 . S
C1975 C1969 1.363 . S
C1975 C1970 1.379 . S
C1975 N1973 1.356 . S
N1976 C1968 1.356 . S
N1976 H1982 0.984 . S
N1976 H1983 0.984 . S
N1977 C1970 1.356 . S
N1977 H1980 0.984 . S
N1977 H1981 0.985 . S
H1978 N1973 0.984 . S
H1979 N1973 0.985 . S
H1980 N1977 0.984 . S
H1981 N1977 0.985 . S
H1982 N1976 0.984 . S
H1983 N1976 0.984 . S
H1984 N1972 0.984 . S
H1985 N1972 0.985 . S
C1986 C1987 1.363 . S
C1986 C1992 1.379 . S
C1986 N1994 1.356 . S
C1987 C1986 1.363 . S
C1987 C1993 1.363 . S
C1988 C1989 1.363 . S
C1988 C1993 1.379 . S
C1988 N1995 1.356 . S
C1989 C1988 1.363 . S
C1989 C1992 1.363 . S
N1990 C1992 1.356 . S
N1990 H2002 0.984 . S
N1990 H2003 0.985 . S
N1991 C1993 1.356 . S
N1991 H1996 0.984 . S
N1991 H1997 0.985 . S
C1992 C1986 1.379 . S
C1992 C1989 1.363 . S
C1992 N1990 1.356 . S
C1993 C1987 1.363 . S
C1993 C1988 1.379 . S
C1993 N1991 1.356 . S
N1994 C1986 1.356 . S
N1994 H2000 0.984 . S
N1994 H2001 0.984 . S
N1995 C1988 1.356 . S
N1995 H1998 0.984 . S
N1995 H1999 0.985 . S
H1996 N1991 0.984 . S
H1997 N1991 0.985 . S
H1998 N1995 0.984 . S
H1999 N1995 0.985 . S
H2000 N1994 0.984 . S
H2001 N1994 0.984 . S
H2002 N1990 0.984 . S
H2003 N1990 0.985 . S
C2004 C2005 1.363 . S
C2004 C2010 1.379 . S
C2004 N2012 1.356 . S
C2005 C2004 1.363 . S
C2005 C2011 1.363 . S
C2006 C2007 1.363 . S
C2006 C2011 1.379 . S
C2006 N2013 1.356 . S
C2007 C2006 1.363 . S
C2007 C2010 1.363 . S
N2008 C2010 1.356 . S
N2008 H2020 0.984 . S
N2008 H2021 0.985 . S
N2009 C2011 1.356 . S
N2009 H2014 0.984 . S
N2009 H2015 0.985 . S
C2010 C2004 1.379 . S
C2010 C2007 1.363 . S
C2010 N2008 1.356 . S
C2011 C2005 1.363 . S
C2011 C2006 1.379 . S
C2011 N2009 1.356 . S
N2012 C2004 1.356 . S
N2012 H2018 0.984 . S
N2012 H2019 0.984 . S
N2013 C2006 1.356 . S
N2013 H2016 0.984 . S
N2013 H2017 0.985 . S
H2014 N2009 0.984 . S
H2015 N2009 0.985 . S
H2016 N2013 0.984 . S
H2017 N2013 0.985 . S
H2018 N2012 0.984 . S
H2019 N2012 0.984 . S
H2020 N2008 0.984 . S
H2021 N2008 0.985 . S
C2022 C2023 1.363 . S
C2022 C2028 1.379 . S
C2022 N2030 1.356 . S
C2023 C2022 1.363 . S
C2023 C2029 1.363 . S
C2024 C2025 1.363 . S
C2024 C2029 1.379 . S
C2024 N2031 1.356 . S
C2025 C2024 1.363 . S
C2025 C2028 1.363 . S
N2026 C2028 1.356 . S
N2026 H2038 0.984 . S
N2026 H2039 0.985 . S
N2027 C2029 1.356 . S
N2027 H2032 0.984 . S
N2027 H2033 0.985 . S
C2028 C2022 1.379 . S
C2028 C2025 1.363 . S
C2028 N2026 1.356 . S
C2029 C2023 1.363 . S
C2029 C2024 1.379 . S
C2029 N2027 1.356 . S
N2030 C2022 1.356 . S
N2030 H2036 0.984 . S
N2030 H2037 0.984 . S
N2031 C2024 1.356 . S
N2031 H2034 0.984 . S
N2031 H2035 0.985 . S
H2032 N2027 0.984 . S
H2033 N2027 0.985 . S
H2034 N2031 0.984 . S
H2035 N2031 0.985 . S
H2036 N2030 0.984 . S
H2037 N2030 0.984 . S
H2038 N2026 0.984 . S
H2039 N2026 0.985 . S
C2040 C2041 1.363 . S
C2040 C2046 1.379 . S
C2040 N2048 1.356 . S
C2041 C2040 1.363 . S
C2041 C2047 1.363 . S
C2042 C2043 1.363 . S
C2042 C2047 1.379 . S
C2042 N2049 1.356 . S
C2043 C2042 1.363 . S
C2043 C2046 1.363 . S
N2044 C2046 1.356 . S
N2044 H2056 0.984 . S
N2044 H2057 0.985 . S
N2045 C2047 1.356 . S
N2045 H2050 0.984 . S
N2045 H2051 0.985 . S
C2046 C2040 1.379 . S
C2046 C2043 1.363 . S
C2046 N2044 1.356 . S
C2047 C2041 1.363 . S
C2047 C2042 1.379 . S
C2047 N2045 1.356 . S
N2048 C2040 1.356 . S
N2048 H2054 0.984 . S
N2048 H2055 0.984 . S
N2049 C2042 1.356 . S
N2049 H2052 0.984 . S
N2049 H2053 0.985 . S
H2050 N2045 0.984 . S
H2051 N2045 0.985 . S
H2052 N2049 0.984 . S
H2053 N2049 0.985 . S
H2054 N2048 0.984 . S
H2055 N2048 0.984 . S
H2056 N2044 0.984 . S
H2057 N2044 0.985 . S
C2058 C2059 1.363 . S
C2058 C2064 1.379 . S
C2058 N2066 1.356 . S
C2059 C2058 1.363 . S
C2059 C2065 1.363 . S
C2060 C2061 1.363 . S
C2060 C2065 1.379 . S
C2060 N2067 1.356 . S
C2061 C2060 1.363 . S
C2061 C2064 1.363 . S
N2062 C2064 1.356 . S
N2062 H2074 0.984 . S
N2062 H2075 0.985 . S
N2063 C2065 1.356 . S
N2063 H2068 0.984 . S
N2063 H2069 0.985 . S
C2064 C2058 1.379 . S
C2064 C2061 1.363 . S
C2064 N2062 1.356 . S
C2065 C2059 1.363 . S
C2065 C2060 1.379 . S
C2065 N2063 1.356 . S
N2066 C2058 1.356 . S
N2066 H2072 0.984 . S
N2066 H2073 0.984 . S
N2067 C2060 1.356 . S
N2067 H2070 0.984 . S
N2067 H2071 0.985 . S
H2068 N2063 0.984 . S
H2069 N2063 0.985 . S
H2070 N2067 0.984 . S
H2071 N2067 0.985 . S
H2072 N2066 0.984 . S
H2073 N2066 0.984 . S
H2074 N2062 0.984 . S
H2075 N2062 0.985 . S
C2076 C2077 1.363 . S
C2076 C2082 1.379 . S
C2076 N2084 1.356 . S
C2077 C2076 1.363 . S
C2077 C2083 1.363 . S
C2078 C2079 1.363 . S
C2078 C2083 1.379 . S
C2078 N2085 1.356 . S
C2079 C2078 1.363 . S
C2079 C2082 1.363 . S
N2080 C2082 1.356 . S
N2080 H2092 0.984 . S
N2080 H2093 0.985 . S
N2081 C2083 1.356 . S
N2081 H2086 0.984 . S
N2081 H2087 0.985 . S
C2082 C2076 1.379 . S
C2082 C2079 1.363 . S
C2082 N2080 1.356 . S
C2083 C2077 1.363 . S
C2083 C2078 1.379 . S
C2083 N2081 1.356 . S
N2084 C2076 1.356 . S
N2084 H2090 0.984 . S
N2084 H2091 0.984 . S
N2085 C2078 1.356 . S
N2085 H2088 0.984 . S
N2085 H2089 0.985 . S
H2086 N2081 0.984 . S
H2087 N2081 0.985 . S
H2088 N2085 0.984 . S
H2089 N2085 0.985 . S
H2090 N2084 0.984 . S
H2091 N2084 0.984 . S
H2092 N2080 0.984 . S
H2093 N2080 0.985 . S
C2094 C2095 1.363 . S
C2094 C2100 1.379 . S
C2094 N2102 1.356 . S
C2095 C2094 1.363 . S
C2095 C2101 1.363 . S
C2096 C2097 1.363 . S
C2096 C2101 1.379 . S
C2096 N2103 1.356 . S
C2097 C2096 1.363 . S
C2097 C2100 1.363 . S
N2098 C2100 1.356 . S
N2098 H2110 0.984 . S
N2098 H2111 0.985 . S
N2099 C2101 1.356 . S
N2099 H2104 0.984 . S
N2099 H2105 0.985 . S
C2100 C2094 1.379 . S
C2100 C2097 1.363 . S
C2100 N2098 1.356 . S
C2101 C2095 1.363 . S
C2101 C2096 1.379 . S
C2101 N2099 1.356 . S
N2102 C2094 1.356 . S
N2102 H2108 0.984 . S
N2102 H2109 0.984 . S
N2103 C2096 1.356 . S
N2103 H2106 0.984 . S
N2103 H2107 0.985 . S
H2104 N2099 0.984 . S
H2105 N2099 0.985 . S
H2106 N2103 0.984 . S
H2107 N2103 0.985 . S
H2108 N2102 0.984 . S
H2109 N2102 0.984 . S
H2110 N2098 0.984 . S
H2111 N2098 0.985 . S
C2112 C2113 1.363 . S
C2112 C2118 1.379 . S
C2112 N2120 1.356 . S
C2113 C2112 1.363 . S
C2113 C2119 1.363 . S
C2114 C2115 1.363 . S
C2114 C2119 1.379 . S
C2114 N2121 1.356 . S
C2115 C2114 1.363 . S
C2115 C2118 1.363 . S
N2116 C2118 1.356 . S
N2116 H2128 0.984 . S
N2116 H2129 0.985 . S
N2117 C2119 1.356 . S
N2117 H2122 0.984 . S
N2117 H2123 0.985 . S
C2118 C2112 1.379 . S
C2118 C2115 1.363 . S
C2118 N2116 1.356 . S
C2119 C2113 1.363 . S
C2119 C2114 1.379 . S
C2119 N2117 1.356 . S
N2120 C2112 1.356 . S
N2120 H2126 0.984 . S
N2120 H2127 0.984 . S
N2121 C2114 1.356 . S
N2121 H2124 0.984 . S
N2121 H2125 0.985 . S
H2122 N2117 0.984 . S
H2123 N2117 0.985 . S
H2124 N2121 0.984 . S
H2125 N2121 0.985 . S
H2126 N2120 0.984 . S
H2127 N2120 0.984 . S
H2128 N2116 0.984 . S
H2129 N2116 0.985 . S
C2130 C2131 1.363 . S
C2130 C2136 1.379 . S
C2130 N2138 1.356 . S
C2131 C2130 1.363 . S
C2131 C2137 1.363 . S
C2132 C2133 1.363 . S
C2132 C2137 1.379 . S
C2132 N2139 1.356 . S
C2133 C2132 1.363 . S
C2133 C2136 1.363 . S
N2134 C2136 1.356 . S
N2134 H2146 0.984 . S
N2134 H2147 0.985 . S
N2135 C2137 1.356 . S
N2135 H2140 0.984 . S
N2135 H2141 0.985 . S
C2136 C2130 1.379 . S
C2136 C2133 1.363 . S
C2136 N2134 1.356 . S
C2137 C2131 1.363 . S
C2137 C2132 1.379 . S
C2137 N2135 1.356 . S
N2138 C2130 1.356 . S
N2138 H2144 0.984 . S
N2138 H2145 0.984 . S
N2139 C2132 1.356 . S
N2139 H2142 0.984 . S
N2139 H2143 0.985 . S
H2140 N2135 0.984 . S
H2141 N2135 0.985 . S
H2142 N2139 0.984 . S
H2143 N2139 0.985 . S
H2144 N2138 0.984 . S
H2145 N2138 0.984 . S
H2146 N2134 0.984 . S
H2147 N2134 0.985 . S
C2148 C2149 1.363 . S
C2148 C2154 1.379 . S
C2148 N2156 1.356 . S
C2149 C2148 1.363 . S
C2149 C2155 1.363 . S
C2150 C2151 1.363 . S
C2150 C2155 1.379 . S
C2150 N2157 1.356 . S
C2151 C2150 1.363 . S
C2151 C2154 1.363 . S
N2152 C2154 1.356 . S
N2152 H2164 0.984 . S
N2152 H2165 0.985 . S
N2153 C2155 1.356 . S
N2153 H2158 0.984 . S
N2153 H2159 0.985 . S
C2154 C2148 1.379 . S
C2154 C2151 1.363 . S
C2154 N2152 1.356 . S
C2155 C2149 1.363 . S
C2155 C2150 1.379 . S
C2155 N2153 1.356 . S
N2156 C2148 1.356 . S
N2156 H2162 0.984 . S
N2156 H2163 0.984 . S
N2157 C2150 1.356 . S
N2157 H2160 0.984 . S
N2157 H2161 0.985 . S
H2158 N2153 0.984 . S
H2159 N2153 0.985 . S
H2160 N2157 0.984 . S
H2161 N2157 0.985 . S
H2162 N2156 0.984 . S
H2163 N2156 0.984 . S
H2164 N2152 0.984 . S
H2165 N2152 0.985 . S
C2166 C2167 1.363 . S
C2166 C2172 1.379 . S
C2166 N2174 1.356 . S
C2167 C2166 1.363 . S
C2167 C2173 1.363 . S
C2168 C2169 1.363 . S
C2168 C2173 1.379 . S
C2168 N2175 1.356 . S
C2169 C2168 1.363 . S
C2169 C2172 1.363 . S
N2170 C2172 1.356 . S
N2170 H2182 0.984 . S
N2170 H2183 0.985 . S
N2171 C2173 1.356 . S
N2171 H2176 0.984 . S
N2171 H2177 0.985 . S
C2172 C2166 1.379 . S
C2172 C2169 1.363 . S
C2172 N2170 1.356 . S
C2173 C2167 1.363 . S
C2173 C2168 1.379 . S
C2173 N2171 1.356 . S
N2174 C2166 1.356 . S
N2174 H2180 0.984 . S
N2174 H2181 0.984 . S
N2175 C2168 1.356 . S
N2175 H2178 0.984 . S
N2175 H2179 0.985 . S
H2176 N2171 0.984 . S
H2177 N2171 0.985 . S
H2178 N2175 0.984 . S
H2179 N2175 0.985 . S
H2180 N2174 0.984 . S
H2181 N2174 0.984 . S
H2182 N2170 0.984 . S
H2183 N2170 0.985 . S
C2184 C2185 1.363 . S
C2184 C2190 1.379 . S
C2184 N2192 1.356 . S
C2185 C2184 1.363 . S
C2185 C2191 1.363 . S
C2186 C2187 1.363 . S
C2186 C2191 1.379 . S
C2186 N2193 1.356 . S
C2187 C2186 1.363 . S
C2187 C2190 1.363 . S
N2188 C2190 1.356 . S
N2188 H2200 0.984 . S
N2188 H2201 0.985 . S
N2189 C2191 1.356 . S
N2189 H2194 0.984 . S
N2189 H2195 0.985 . S
C2190 C2184 1.379 . S
C2190 C2187 1.363 . S
C2190 N2188 1.356 . S
C2191 C2185 1.363 . S
C2191 C2186 1.379 . S
C2191 N2189 1.356 . S
N2192 C2184 1.356 . S
N2192 H2198 0.984 . S
N2192 H2199 0.984 . S
N2193 C2186 1.356 . S
N2193 H2196 0.984 . S
N2193 H2197 0.985 . S
H2194 N2189 0.984 . S
H2195 N2189 0.985 . S
H2196 N2193 0.984 . S
H2197 N2193 0.985 . S
H2198 N2192 0.984 . S
H2199 N2192 0.984 . S
H2200 N2188 0.984 . S
H2201 N2188 0.985 . S
C2202 C2203 1.363 . S
C2202 C2208 1.379 . S
C2202 N2210 1.356 . S
C2203 C2202 1.363 . S
C2203 C2209 1.363 . S
C2204 C2205 1.363 . S
C2204 C2209 1.379 . S
C2204 N2211 1.356 . S
C2205 C2204 1.363 . S
C2205 C2208 1.363 . S
N2206 C2208 1.356 . S
N2206 H2218 0.984 . S
N2206 H2219 0.985 . S
N2207 C2209 1.356 . S
N2207 H2212 0.984 . S
N2207 H2213 0.985 . S
C2208 C2202 1.379 . S
C2208 C2205 1.363 . S
C2208 N2206 1.356 . S
C2209 C2203 1.363 . S
C2209 C2204 1.379 . S
C2209 N2207 1.356 . S
N2210 C2202 1.356 . S
N2210 H2216 0.984 . S
N2210 H2217 0.984 . S
N2211 C2204 1.356 . S
N2211 H2214 0.984 . S
N2211 H2215 0.985 . S
H2212 N2207 0.984 . S
H2213 N2207 0.985 . S
H2214 N2211 0.984 . S
H2215 N2211 0.985 . S
H2216 N2210 0.984 . S
H2217 N2210 0.984 . S
H2218 N2206 0.984 . S
H2219 N2206 0.985 . S
C2220 C2221 1.363 . S
C2220 C2226 1.379 . S
C2220 N2228 1.356 . S
C2221 C2220 1.363 . S
C2221 C2227 1.363 . S
C2222 C2223 1.363 . S
C2222 C2227 1.379 . S
C2222 N2229 1.356 . S
C2223 C2222 1.363 . S
C2223 C2226 1.363 . S
N2224 C2226 1.356 . S
N2224 H2236 0.984 . S
N2224 H2237 0.985 . S
N2225 C2227 1.356 . S
N2225 H2230 0.984 . S
N2225 H2231 0.985 . S
C2226 C2220 1.379 . S
C2226 C2223 1.363 . S
C2226 N2224 1.356 . S
C2227 C2221 1.363 . S
C2227 C2222 1.379 . S
C2227 N2225 1.356 . S
N2228 C2220 1.356 . S
N2228 H2234 0.984 . S
N2228 H2235 0.984 . S
N2229 C2222 1.356 . S
N2229 H2232 0.984 . S
N2229 H2233 0.985 . S
H2230 N2225 0.984 . S
H2231 N2225 0.985 . S
H2232 N2229 0.984 . S
H2233 N2229 0.985 . S
H2234 N2228 0.984 . S
H2235 N2228 0.984 . S
H2236 N2224 0.984 . S
H2237 N2224 0.985 . S
C2238 C2239 1.363 . S
C2238 C2244 1.379 . S
C2238 N2246 1.356 . S
C2239 C2238 1.363 . S
C2239 C2245 1.363 . S
C2240 C2241 1.363 . S
C2240 C2245 1.379 . S
C2240 N2247 1.356 . S
C2241 C2240 1.363 . S
C2241 C2244 1.363 . S
N2242 C2244 1.356 . S
N2242 H2254 0.984 . S
N2242 H2255 0.985 . S
N2243 C2245 1.356 . S
N2243 H2248 0.984 . S
N2243 H2249 0.985 . S
C2244 C2238 1.379 . S
C2244 C2241 1.363 . S
C2244 N2242 1.356 . S
C2245 C2239 1.363 . S
C2245 C2240 1.379 . S
C2245 N2243 1.356 . S
N2246 C2238 1.356 . S
N2246 H2252 0.984 . S
N2246 H2253 0.984 . S
N2247 C2240 1.356 . S
N2247 H2250 0.984 . S
N2247 H2251 0.985 . S
H2248 N2243 0.984 . S
H2249 N2243 0.985 . S
H2250 N2247 0.984 . S
H2251 N2247 0.985 . S
H2252 N2246 0.984 . S
H2253 N2246 0.984 . S
H2254 N2242 0.984 . S
H2255 N2242 0.985 . S
C2256 C2257 1.363 . S
C2256 C2262 1.379 . S
C2256 N2264 1.356 . S
C2257 C2256 1.363 . S
C2257 C2263 1.363 . S
C2258 C2259 1.363 . S
C2258 C2263 1.379 . S
C2258 N2265 1.356 . S
C2259 C2258 1.363 . S
C2259 C2262 1.363 . S
N2260 C2262 1.356 . S
N2260 H2272 0.984 . S
N2260 H2273 0.985 . S
N2261 C2263 1.356 . S
N2261 H2266 0.984 . S
N2261 H2267 0.985 . S
C2262 C2256 1.379 . S
C2262 C2259 1.363 . S
C2262 N2260 1.356 . S
C2263 C2257 1.363 . S
C2263 C2258 1.379 . S
C2263 N2261 1.356 . S
N2264 C2256 1.356 . S
N2264 H2270 0.984 . S
N2264 H2271 0.984 . S
N2265 C2258 1.356 . S
N2265 H2268 0.984 . S
N2265 H2269 0.985 . S
H2266 N2261 0.984 . S
H2267 N2261 0.985 . S
H2268 N2265 0.984 . S
H2269 N2265 0.985 . S
H2270 N2264 0.984 . S
H2271 N2264 0.984 . S
H2272 N2260 0.984 . S
H2273 N2260 0.985 . S
C2274 C2275 1.363 . S
C2274 C2280 1.379 . S
C2274 N2282 1.356 . S
C2275 C2274 1.363 . S
C2275 C2281 1.363 . S
C2276 C2277 1.363 . S
C2276 C2281 1.379 . S
C2276 N2283 1.356 . S
C2277 C2276 1.363 . S
C2277 C2280 1.363 . S
N2278 C2280 1.356 . S
N2278 H2290 0.984 . S
N2278 H2291 0.985 . S
N2279 C2281 1.356 . S
N2279 H2284 0.984 . S
N2279 H2285 0.985 . S
C2280 C2274 1.379 . S
C2280 C2277 1.363 . S
C2280 N2278 1.356 . S
C2281 C2275 1.363 . S
C2281 C2276 1.379 . S
C2281 N2279 1.356 . S
N2282 C2274 1.356 . S
N2282 H2288 0.984 . S
N2282 H2289 0.984 . S
N2283 C2276 1.356 . S
N2283 H2286 0.984 . S
N2283 H2287 0.985 . S
H2284 N2279 0.984 . S
H2285 N2279 0.985 . S
H2286 N2283 0.984 . S
H2287 N2283 0.985 . S
H2288 N2282 0.984 . S
H2289 N2282 0.984 . S
H2290 N2278 0.984 . S
H2291 N2278 0.985 . S
C2292 C2293 1.363 . S
C2292 C2298 1.379 . S
C2292 N2300 1.356 . S
C2293 C2292 1.363 . S
C2293 C2299 1.363 . S
C2294 C2295 1.363 . S
C2294 C2299 1.379 . S
C2294 N2301 1.356 . S
C2295 C2294 1.363 . S
C2295 C2298 1.363 . S
N2296 C2298 1.356 . S
N2296 H2308 0.984 . S
N2296 H2309 0.985 . S
N2297 C2299 1.356 . S
N2297 H2302 0.984 . S
N2297 H2303 0.985 . S
C2298 C2292 1.379 . S
C2298 C2295 1.363 . S
C2298 N2296 1.356 . S
C2299 C2293 1.363 . S
C2299 C2294 1.379 . S
C2299 N2297 1.356 . S
N2300 C2292 1.356 . S
N2300 H2306 0.984 . S
N2300 H2307 0.984 . S
N2301 C2294 1.356 . S
N2301 H2304 0.984 . S
N2301 H2305 0.985 . S
H2302 N2297 0.984 . S
H2303 N2297 0.985 . S
H2304 N2301 0.984 . S
H2305 N2301 0.985 . S
H2306 N2300 0.984 . S
H2307 N2300 0.984 . S
H2308 N2296 0.984 . S
H2309 N2296 0.985 . S
C2310 C2311 1.363 . S
C2310 C2316 1.379 . S
C2310 N2318 1.356 . S
C2311 C2310 1.363 . S
C2311 C2317 1.363 . S
C2312 C2313 1.363 . S
C2312 C2317 1.379 . S
C2312 N2319 1.356 . S
C2313 C2312 1.363 . S
C2313 C2316 1.363 . S
N2314 C2316 1.356 . S
N2314 H2326 0.984 . S
N2314 H2327 0.985 . S
N2315 C2317 1.356 . S
N2315 H2320 0.984 . S
N2315 H2321 0.985 . S
C2316 C2310 1.379 . S
C2316 C2313 1.363 . S
C2316 N2314 1.356 . S
C2317 C2311 1.363 . S
C2317 C2312 1.379 . S
C2317 N2315 1.356 . S
N2318 C2310 1.356 . S
N2318 H2324 0.984 . S
N2318 H2325 0.984 . S
N2319 C2312 1.356 . S
N2319 H2322 0.984 . S
N2319 H2323 0.985 . S
H2320 N2315 0.984 . S
H2321 N2315 0.985 . S
H2322 N2319 0.984 . S
H2323 N2319 0.985 . S
H2324 N2318 0.984 . S
H2325 N2318 0.984 . S
H2326 N2314 0.984 . S
H2327 N2314 0.985 . S
C2328 C2329 1.363 . S
C2328 C2334 1.379 . S
C2328 N2336 1.356 . S
C2329 C2328 1.363 . S
C2329 C2335 1.363 . S
C2330 C2331 1.363 . S
C2330 C2335 1.379 . S
C2330 N2337 1.356 . S
C2331 C2330 1.363 . S
C2331 C2334 1.363 . S
N2332 C2334 1.356 . S
N2332 H2344 0.984 . S
N2332 H2345 0.985 . S
N2333 C2335 1.356 . S
N2333 H2338 0.984 . S
N2333 H2339 0.985 . S
C2334 C2328 1.379 . S
C2334 C2331 1.363 . S
C2334 N2332 1.356 . S
C2335 C2329 1.363 . S
C2335 C2330 1.379 . S
C2335 N2333 1.356 . S
N2336 C2328 1.356 . S
N2336 H2342 0.984 . S
N2336 H2343 0.984 . S
N2337 C2330 1.356 . S
N2337 H2340 0.984 . S
N2337 H2341 0.985 . S
H2338 N2333 0.984 . S
H2339 N2333 0.985 . S
H2340 N2337 0.984 . S
H2341 N2337 0.985 . S
H2342 N2336 0.984 . S
H2343 N2336 0.984 . S
H2344 N2332 0.984 . S
H2345 N2332 0.985 . S
C2346 C2347 1.363 . S
C2346 C2352 1.379 . S
C2346 N2354 1.356 . S
C2347 C2346 1.363 . S
C2347 C2353 1.363 . S
C2348 C2349 1.363 . S
C2348 C2353 1.379 . S
C2348 N2355 1.356 . S
C2349 C2348 1.363 . S
C2349 C2352 1.363 . S
N2350 C2352 1.356 . S
N2350 H2362 0.984 . S
N2350 H2363 0.985 . S
N2351 C2353 1.356 . S
N2351 H2356 0.984 . S
N2351 H2357 0.985 . S
C2352 C2346 1.379 . S
C2352 C2349 1.363 . S
C2352 N2350 1.356 . S
C2353 C2347 1.363 . S
C2353 C2348 1.379 . S
C2353 N2351 1.356 . S
N2354 C2346 1.356 . S
N2354 H2360 0.984 . S
N2354 H2361 0.984 . S
N2355 C2348 1.356 . S
N2355 H2358 0.984 . S
N2355 H2359 0.985 . S
H2356 N2351 0.984 . S
H2357 N2351 0.985 . S
H2358 N2355 0.984 . S
H2359 N2355 0.985 . S
H2360 N2354 0.984 . S
H2361 N2354 0.984 . S
H2362 N2350 0.984 . S
H2363 N2350 0.985 . S
C2364 C2365 1.363 . S
C2364 C2370 1.379 . S
C2364 N2372 1.356 . S
C2365 C2364 1.363 . S
C2365 C2371 1.363 . S
C2366 C2367 1.363 . S
C2366 C2371 1.379 . S
C2366 N2373 1.356 . S
C2367 C2366 1.363 . S
C2367 C2370 1.363 . S
N2368 C2370 1.356 . S
N2368 H2380 0.984 . S
N2368 H2381 0.985 . S
N2369 C2371 1.356 . S
N2369 H2374 0.984 . S
N2369 H2375 0.985 . S
C2370 C2364 1.379 . S
C2370 C2367 1.363 . S
C2370 N2368 1.356 . S
C2371 C2365 1.363 . S
C2371 C2366 1.379 . S
C2371 N2369 1.356 . S
N2372 C2364 1.356 . S
N2372 H2378 0.984 . S
N2372 H2379 0.984 . S
N2373 C2366 1.356 . S
N2373 H2376 0.984 . S
N2373 H2377 0.985 . S
H2374 N2369 0.984 . S
H2375 N2369 0.985 . S
H2376 N2373 0.984 . S
H2377 N2373 0.985 . S
H2378 N2372 0.984 . S
H2379 N2372 0.984 . S
H2380 N2368 0.984 . S
H2381 N2368 0.985 . S
C2382 C2383 1.363 . S
C2382 C2388 1.379 . S
C2382 N2390 1.356 . S
C2383 C2382 1.363 . S
C2383 C2389 1.363 . S
C2384 C2385 1.363 . S
C2384 C2389 1.379 . S
C2384 N2391 1.356 . S
C2385 C2384 1.363 . S
C2385 C2388 1.363 . S
N2386 C2388 1.356 . S
N2386 H2398 0.984 . S
N2386 H2399 0.985 . S
N2387 C2389 1.356 . S
N2387 H2392 0.984 . S
N2387 H2393 0.985 . S
C2388 C2382 1.379 . S
C2388 C2385 1.363 . S
C2388 N2386 1.356 . S
C2389 C2383 1.363 . S
C2389 C2384 1.379 . S
C2389 N2387 1.356 . S
N2390 C2382 1.356 . S
N2390 H2396 0.984 . S
N2390 H2397 0.984 . S
N2391 C2384 1.356 . S
N2391 H2394 0.984 . S
N2391 H2395 0.985 . S
H2392 N2387 0.984 . S
H2393 N2387 0.985 . S
H2394 N2391 0.984 . S
H2395 N2391 0.985 . S
H2396 N2390 0.984 . S
H2397 N2390 0.984 . S
H2398 N2386 0.984 . S
H2399 N2386 0.985 . S
C673 C132 1.731 . S
C675 C6 1.731 . S
C691 C146 1.731 . S
C693 C20 1.731 . S
C709 C160 1.731 . S
C711 C34 1.731 . S
C727 C118 1.731 . S
C729 C48 1.731 . S
C745 C62 1.731 . S
C747 C216 1.731 . S
C763 C76 1.731 . S
C765 C174 1.731 . S
C781 C90 1.731 . S
C783 C188 1.731 . S
C799 C202 1.731 . S
C801 C104 1.731 . S
C817 C230 1.731 . S
C819 C258 1.731 . S
C835 C244 1.731 . S
C837 C650 1.731 . S
C853 C272 1.731 . S
C855 C664 1.731 . S
C871 C286 1.731 . S
C873 C636 1.731 . S
C889 C300 1.731 . S
C891 C622 1.731 . S
C907 C580 1.731 . S
C909 C314 1.731 . S
C925 C328 1.731 . S
C927 C608 1.731 . S
C943 C468 1.731 . S
C945 C342 1.731 . S
C961 C482 1.731 . S
C963 C356 1.731 . S
C979 C496 1.731 . S
C981 C370 1.731 . S
C997 C454 1.731 . S
C999 C384 1.731 . S
C1015 C552 1.731 . S
C1017 C398 1.731 . S
C1033 C510 1.731 . S
C1035 C412 1.731 . S
C1051 C426 1.731 . S
C1053 C524 1.731 . S
C1069 C440 1.731 . S
C1071 C538 1.731 . S
C1087 C566 1.731 . S
C1089 C594 1.731 . S
C1105 C232 1.391 . S
C1107 C9 1.285 . S
C1123 C666 1.391 . S
C1125 C23 1.285 . S
C1141 C37 1.285 . S
C1143 C302 1.391 . S
C1159 C652 1.391 . S
C1161 C51 1.285 1_556 S
C1177 C65 1.285 . S
C1179 C582 1.391 . S
C1195 C596 1.391 . S
C1197 C79 1.285 . S
C1213 C93 1.285 . S
C1215 C610 1.391 . S
C1231 C288 1.391 . S
C1233 C107 1.285 1_554 S
C1249 C121 1.285 . S
C1251 C8 1.391 . S
C1267 C22 1.391 . S
C1269 C135 1.285 1_565 S
C1285 C149 1.285 . S
C1287 C36 1.391 . S
C1303 C50 1.391 . S
C1305 C163 1.285 1_545 S
C1321 C177 1.285 . S
C1323 C64 1.391 . S
C1339 C78 1.391 . S
C1341 C191 1.285 1_565 S
C1357 C205 1.285 . S
C1359 C92 1.391 . S
C1375 C219 1.285 1_545 S
C1377 C106 1.391 . S
C1393 C233 1.285 . S
C1395 C120 1.391 . S
C1411 C247 1.285 . S
C1413 C512 1.391 . S
C1429 C526 1.391 . S
C1431 C261 1.285 1_655 S
C1447 C540 1.391 . S
C1449 C275 1.285 . S
C1465 C218 1.391 . S
C1467 C289 1.285 1_455 S
C1483 C303 1.285 . S
C1485 C148 1.391 . S
C1501 C498 1.391 . S
C1503 C317 1.285 1_655 S
C1519 C331 1.285 . S
C1521 C470 1.391 . S
C1537 C345 1.285 . S
C1539 C568 1.391 . S
C1555 C359 1.285 1_556 S
C1557 C330 1.391 . S
C1573 C373 1.285 . S
C1575 C638 1.391 . S
C1591 C387 1.285 . S
C1593 C316 1.391 . S
C1609 C401 1.285 . S
C1611 C246 1.391 . S
C1627 C415 1.285 1_554 S
C1629 C260 1.391 . S
C1645 C274 1.391 . S
C1647 C429 1.285 . S
C1663 C624 1.391 . S
C1665 C443 1.285 . S
C1681 C344 1.391 . S
C1683 C457 1.285 . S
C1699 C358 1.391 . S
C1701 C471 1.285 . S
C1717 C485 1.285 . S
C1719 C372 1.391 . S
C1735 C386 1.391 . S
C1737 C499 1.285 . S
C1753 C513 1.285 . S
C1755 C400 1.391 . S
C1771 C527 1.285 . S
C1773 C414 1.391 . S
C1789 C541 1.285 . S
C1791 C428 1.391 . S
C1807 C442 1.391 . S
C1809 C555 1.285 . S
C1825 C569 1.285 . S
C1827 C456 1.391 . S
C1843 C583 1.285 . S
C1845 C176 1.391 . S
C1861 C190 1.391 . S
C1863 C597 1.285 . S
C1879 C611 1.285 . S
C1881 C204 1.391 . S
C1897 C625 1.285 . S
C1899 C554 1.391 . S
C1915 C484 1.391 . S
C1917 C639 1.285 . S
C1933 C162 1.391 . S
C1935 C653 1.285 . S
C1951 C134 1.391 . S
C1953 C667 1.285 1_455 S
C1969 C315 1.493 . S
C1971 C7 1.493 . S
C1987 C21 1.493 . S
C1989 C567 1.493 . S
C2005 C35 1.493 . S
C2007 C329 1.493 . S
C2023 C637 1.493 . S
C2025 C49 1.492 . S
C2041 C63 1.493 . S
C2043 C259 1.492 . S
C2059 C273 1.493 . S
C2061 C77 1.493 . S
C2077 C623 1.493 . S
C2079 C91 1.493 . S
C2095 C105 1.493 . S
C2097 C245 1.493 . S
C2113 C189 1.493 . S
C2115 C119 1.493 . S
C2131 C133 1.492 . S
C2133 C203 1.493 . S
C2149 C217 1.493 . S
C2151 C147 1.493 . S
C2167 C161 1.493 . S
C2169 C175 1.493 . S
C2185 C357 1.493 . S
C2187 C231 1.493 . S
C2203 C287 1.493 . S
C2205 C427 1.493 . S
C2221 C301 1.493 . S
C2223 C385 1.493 . S
C2239 C651 1.493 . S
C2241 C343 1.493 . S
C2257 C371 1.493 . S
C2259 C665 1.493 . S
C2275 C399 1.493 . S
C2277 C595 1.493 . S
C2293 C413 1.493 . S
C2295 C609 1.493 . S
C2311 C581 1.493 . S
C2313 C441 1.493 . S
C2329 C525 1.493 . S
C2331 C455 1.493 . S
C2347 C469 1.493 . S
C2349 C539 1.493 . S
C2365 C483 1.493 . S
C2367 C553 1.493 . S
C2383 C511 1.493 . S
C2385 C497 1.493 . S
