# Generated by pormake.
# Topology fnc, (5)-cn, num edge types: 1
# Building blocks:
#     Node 0, Type 0, BuildingBlock: XOMCOT_clean_sbu_0, # of connection points: 5
#     Node 1, Type 0, BuildingBlock: XOMCOT_clean_sbu_0, # of connection points: 5
#     Node 2, Type 0, BuildingBlock: XOMCOT_clean_sbu_0, # of connection points: 5
#     Node 3, Type 0, BuildingBlock: XOMCOT_clean_sbu_0, # of connection points: 5
#     Node 4, Type 0, BuildingBlock: XOMCOT_clean_sbu_0, # of connection points: 5
#     Node 5, Type 0, BuildingBlock: XOMCOT_clean_sbu_0, # of connection points: 5
#     Node 6, Type 0, BuildingBlock: XOMCOT_clean_sbu_0, # of connection points: 5
#     Node 7, Type 0, BuildingBlock: XOMCOT_clean_sbu_0, # of connection points: 5
#     Node 8, Type 0, BuildingBlock: XOMCOT_clean_sbu_0, # of connection points: 5
#     Node 9, Type 0, BuildingBlock: XOMCOT_clean_sbu_0, # of connection points: 5
#     Node 10, Type 0, BuildingBlock: XOMCOT_clean_sbu_0, # of connection points: 5
#     Node 11, Type 0, BuildingBlock: XOMCOT_clean_sbu_0, # of connection points: 5
#     Node 12, Type 0, BuildingBlock: XOMCOT_clean_sbu_0, # of connection points: 5
#     Node 13, Type 0, BuildingBlock: XOMCOT_clean_sbu_0, # of connection points: 5
#     Node 14, Type 0, BuildingBlock: XOMCOT_clean_sbu_0, # of connection points: 5
#     Node 15, Type 0, BuildingBlock: XOMCOT_clean_sbu_0, # of connection points: 5
#     Node 16, Type 0, BuildingBlock: XOMCOT_clean_sbu_0, # of connection points: 5
#     Node 17, Type 0, BuildingBlock: XOMCOT_clean_sbu_0, # of connection points: 5
#     Edge 18, Type (0, 0), BuildingBlock: OJICUG_clean_linker_0, # of connection points: 2
#     Edge 19, Type (0, 0), BuildingBlock: OJICUG_clean_linker_0, # of connection points: 2
#     Edge 20, Type (0, 0), BuildingBlock: OJICUG_clean_linker_0, # of connection points: 2
#     Edge 21, Type (0, 0), BuildingBlock: OJICUG_clean_linker_0, # of connection points: 2
#     Edge 22, Type (0, 0), BuildingBlock: OJICUG_clean_linker_0, # of connection points: 2
#     Edge 23, Type (0, 0), BuildingBlock: OJICUG_clean_linker_0, # of connection points: 2
#     Edge 24, Type (0, 0), BuildingBlock: OJICUG_clean_linker_0, # of connection points: 2
#     Edge 25, Type (0, 0), BuildingBlock: OJICUG_clean_linker_0, # of connection points: 2
#     Edge 26, Type (0, 0), BuildingBlock: OJICUG_clean_linker_0, # of connection points: 2
#     Edge 27, Type (0, 0), BuildingBlock: OJICUG_clean_linker_0, # of connection points: 2
#     Edge 28, Type (0, 0), BuildingBlock: OJICUG_clean_linker_0, # of connection points: 2
#     Edge 29, Type (0, 0), BuildingBlock: OJICUG_clean_linker_0, # of connection points: 2
#     Edge 30, Type (0, 0), BuildingBlock: OJICUG_clean_linker_0, # of connection points: 2
#     Edge 31, Type (0, 0), BuildingBlock: OJICUG_clean_linker_0, # of connection points: 2
#     Edge 32, Type (0, 0), BuildingBlock: OJICUG_clean_linker_0, # of connection points: 2
#     Edge 33, Type (0, 0), BuildingBlock: OJICUG_clean_linker_0, # of connection points: 2
#     Edge 34, Type (0, 0), BuildingBlock: OJICUG_clean_linker_0, # of connection points: 2
#     Edge 35, Type (0, 0), BuildingBlock: OJICUG_clean_linker_0, # of connection points: 2
#     Edge 36, Type (0, 0), BuildingBlock: OJICUG_clean_linker_0, # of connection points: 2
#     Edge 37, Type (0, 0), BuildingBlock: OJICUG_clean_linker_0, # of connection points: 2
#     Edge 38, Type (0, 0), BuildingBlock: OJICUG_clean_linker_0, # of connection points: 2
#     Edge 39, Type (0, 0), BuildingBlock: OJICUG_clean_linker_0, # of connection points: 2
#     Edge 40, Type (0, 0), BuildingBlock: OJICUG_clean_linker_0, # of connection points: 2
#     Edge 41, Type (0, 0), BuildingBlock: OJICUG_clean_linker_0, # of connection points: 2
#     Edge 42, Type (0, 0), BuildingBlock: OJICUG_clean_linker_0, # of connection points: 2
#     Edge 43, Type (0, 0), BuildingBlock: OJICUG_clean_linker_0, # of connection points: 2
#     Edge 44, Type (0, 0), BuildingBlock: OJICUG_clean_linker_0, # of connection points: 2
#     Edge 45, Type (0, 0), BuildingBlock: OJICUG_clean_linker_0, # of connection points: 2
#     Edge 46, Type (0, 0), BuildingBlock: OJICUG_clean_linker_0, # of connection points: 2
#     Edge 47, Type (0, 0), BuildingBlock: OJICUG_clean_linker_0, # of connection points: 2
#     Edge 48, Type (0, 0), BuildingBlock: OJICUG_clean_linker_0, # of connection points: 2
#     Edge 49, Type (0, 0), BuildingBlock: OJICUG_clean_linker_0, # of connection points: 2
#     Edge 50, Type (0, 0), BuildingBlock: OJICUG_clean_linker_0, # of connection points: 2
#     Edge 51, Type (0, 0), BuildingBlock: OJICUG_clean_linker_0, # of connection points: 2
#     Edge 52, Type (0, 0), BuildingBlock: OJICUG_clean_linker_0, # of connection points: 2
#     Edge 53, Type (0, 0), BuildingBlock: OJICUG_clean_linker_0, # of connection points: 2
#     Edge 54, Type (0, 0), BuildingBlock: OJICUG_clean_linker_0, # of connection points: 2
#     Edge 55, Type (0, 0), BuildingBlock: OJICUG_clean_linker_0, # of connection points: 2
#     Edge 56, Type (0, 0), BuildingBlock: OJICUG_clean_linker_0, # of connection points: 2
#     Edge 57, Type (0, 0), BuildingBlock: OJICUG_clean_linker_0, # of connection points: 2
#     Edge 58, Type (0, 0), BuildingBlock: OJICUG_clean_linker_0, # of connection points: 2
#     Edge 59, Type (0, 0), BuildingBlock: OJICUG_clean_linker_0, # of connection points: 2
#     Edge 60, Type (0, 0), BuildingBlock: OJICUG_clean_linker_0, # of connection points: 2
#     Edge 61, Type (0, 0), BuildingBlock: OJICUG_clean_linker_0, # of connection points: 2
#     Edge 62, Type (0, 0), BuildingBlock: OJICUG_clean_linker_0, # of connection points: 2
# Relax obj value: 0.177
# Max RMSD: 0.316
# Mean RMSD: 0.302
data_MOF--net-fnc--node1-XOMCOT_clean_sbu_0--edge1-OJICUG_clean_linker_0
_symmetry_space_group_name_H-M    P1
_symmetry_Int_Tables_number       1
_symmetry_cell_setting            triclinic
loop_
_symmetry_equiv_pos_as_xyz
'x, y, z'
_cell_length_a     69.766385
_cell_length_b     78.141967
_cell_length_c     13.502949
_cell_angle_alpha  90.449212
_cell_angle_beta   91.08074
_cell_angle_gamma 122.06491
loop_
_atom_site_label
_atom_site_type_symbol
_atom_site_fract_x
_atom_site_fract_y
_atom_site_fract_z
_atom_type_partial_charge
Co0 Co 0.02421 0.45716 0.04762 0.0
C1 C 0.02983 0.46203 0.82979 0.0
C2 C 0.04511 0.44673 0.89039 0.0
C3 C 0.04532 0.44563 0.78854 0.0
N4 N 0.03575 0.45736 0.91681 0.0
N5 N 0.03546 0.45509 0.75049 0.0
H6 H 0.01999 0.46888 0.82368 0.0
H7 H 0.04983 0.4389 0.94142 0.0
C8 C 0.07265 0.46924 0.09284 0.0
O9 O 0.08018 0.48014 1.01304 0.0
N10 N 0.01257 0.45633 0.17737 0.0
C11 C 0.00034 0.46417 0.20526 0.0
C12 C -0.00051 0.46399 0.30728 0.0
C13 C 0.01873 0.45126 0.26214 0.0
N14 N 0.01127 0.45603 0.34313 0.0
C15 C 0.0274 0.49366 0.98802 0.0
C16 C 0.05924 0.5188 0.13039 0.0
C17 C 0.04978 0.52655 0.06673 0.0
C18 C 0.03387 0.51385 0.99435 0.0
C19 C 0.05267 0.49854 0.12001 0.0
N20 N 0.03716 0.48625 0.04821 0.0
H21 H 0.01341 0.48379 0.93894 0.0
H22 H 0.05904 0.49257 0.1741 0.0
H23 H 0.99371 0.4707 0.15546 0.0
H24 H 0.02915 0.44484 0.2645 0.0
O25 O 0.99494 0.44802 0.98543 0.0
O26 O 0.00655 0.42814 0.03903 0.0
O27 O 0.0518 0.46003 0.11405 0.0
C28 C 0.99103 0.42987 0.99421 0.0
H29 H 0.05067 0.43714 0.74613 0.0
H30 H 0.99192 0.47037 0.35145 0.0
H31 H 0.07106 0.52814 0.18936 0.0
H32 H 0.02558 0.51923 0.94663 0.0
Co33 Co 0.62078 0.67019 0.01974 0.0
C34 C 0.62107 0.66915 0.23655 0.0
C35 C 0.65406 0.67947 0.18145 0.0
C36 C 0.65542 0.6804 0.28354 0.0
N37 N 0.6325 0.67235 0.15262 0.0
N38 N 0.63464 0.67397 0.31805 0.0
H39 H 0.60335 0.66418 0.23725 0.0
H40 H 0.66794 0.68419 0.13196 0.0
C41 C 0.64167 0.65046 0.90987 0.0
O42 O 0.62175 0.6368 0.8715 0.0
N43 N 0.60952 0.66882 0.88496 0.0
C44 C 0.5897 0.66651 0.85453 0.0
C45 C 0.58925 0.6675 0.75291 0.0
C46 C 0.62138 0.67262 0.80139 0.0
N47 N 0.60918 0.67125 0.71977 0.0
C48 C 0.57594 0.63524 0.03588 0.0
C49 C 0.58881 0.60876 0.09205 0.0
C50 C 0.5658 0.60151 0.0771 0.0
C51 C 0.55938 0.61503 0.05019 0.0
C52 C 0.60487 0.62907 0.07468 0.0
N53 N 0.59837 0.64182 0.04189 0.0
H54 H 0.57059 0.64563 0.02279 0.0
H55 H 0.62255 0.63457 0.08812 0.0
H56 H 0.57676 0.66524 0.90188 0.0
H57 H 0.63872 0.67652 0.79987 0.0
O58 O 0.60425 0.68205 0.06678 0.0
O59 O 0.63915 0.69908 1.00989 0.0
O60 O 0.64359 0.66402 0.97012 0.0
C61 C 0.6224 0.69939 0.0486 0.0
H62 H 0.67061 0.68561 0.32845 0.0
H63 H 0.57559 0.66618 0.70718 0.0
H64 H 0.59432 0.59877 0.11538 0.0
H65 H 0.54168 0.61008 0.04213 0.0
Co66 Co 0.43651 0.07834 0.08253 0.0
C67 C 0.43633 0.07543 0.8631 0.0
C68 C 0.40304 0.05744 0.91983 0.0
C69 C 0.40128 0.05729 0.81801 0.0
N70 N 0.4251 0.06843 0.94832 0.0
N71 N 0.42226 0.06878 0.78266 0.0
H72 H 0.45422 0.08622 0.85948 0.0
H73 H 0.38906 0.05103 0.96983 0.0
C74 C 0.40452 0.03345 0.10715 0.0
O75 O 0.41155 0.02957 0.02535 0.0
N76 N 0.44719 0.08833 0.2157 0.0
C77 C 0.46864 0.10135 0.24734 0.0
C78 C 0.46908 0.10241 0.34945 0.0
C79 C 0.43487 0.0818 0.29802 0.0
N80 N 0.44782 0.08998 0.38118 0.0
C81 C 0.47683 0.08062 0.01739 0.0
C82 C 0.47429 0.05162 0.14171 0.0
C83 C 0.4925 0.06133 0.07774 0.0
C84 C 0.49371 0.07612 0.01548 0.0
C85 C 0.45778 0.05656 0.14111 0.0
N86 N 0.45857 0.07028 0.0763 0.0
H87 H 0.47913 0.09311 0.97472 0.0
H88 H 0.44488 0.04983 0.19587 0.0
H89 H 0.48304 0.10886 0.19982 0.0
H90 H 0.41683 0.07096 0.29697 0.0
O91 O 0.45445 0.10549 0.03186 0.0
O92 O 0.41918 0.09097 0.08255 0.0
O93 O 0.41277 0.05158 0.1382 0.0
C94 C 0.43661 0.10651 0.04385 0.0
H95 H 0.38571 0.05038 0.77403 0.0
H96 H 0.48407 0.11095 0.39655 0.0
H97 H 0.47287 0.04039 0.19268 0.0
H98 H 0.50802 0.0847 0.96822 0.0
Co99 Co 0.0597 0.66452 0.04964 0.0
C100 C 0.05768 0.6622 0.26626 0.0
C101 C 0.02941 0.66268 0.20454 0.0
C102 C 0.02882 0.66345 0.30654 0.0
N103 N 0.04752 0.66187 0.1798 0.0
N104 N 0.0467 0.66324 0.34525 0.0
H105 H 0.07352 0.66278 0.27068 0.0
H106 H 0.01799 0.6635 0.15231 0.0
C107 C 0.01921 0.63665 0.91874 0.0
O108 O 0.03034 0.62887 0.88214 0.0
N109 N 0.0722 0.66792 0.91786 0.0
C110 C 0.09137 0.66907 0.89076 0.0
C111 C 0.09296 0.67059 0.78944 0.0
C112 C 0.06337 0.67025 0.83266 0.0
N113 N 0.07511 0.67099 0.75265 0.0
C114 C 0.07906 0.64024 0.07803 0.0
C115 C 0.03867 0.60384 0.0969 0.0
C116 C 0.05881 0.60399 0.09281 0.0
C117 C 0.07926 0.62254 0.08597 0.0
C118 C 0.03927 0.6219 0.08687 0.0
N119 N 0.05916 0.63961 0.07022 0.0
H120 H 0.09498 0.65448 0.07945 0.0
H121 H 0.02365 0.62157 0.09193 0.0
H122 H 0.10378 0.66922 0.93982 0.0
H123 H 0.04823 0.67079 0.82894 0.0
O124 O 0.08954 0.68391 0.10534 0.0
O125 O 0.06513 0.69123 0.0426 0.0
O126 O 0.028 0.64979 0.98945 0.0
C127 C 0.08456 0.69745 0.08651 0.0
H128 H 0.0164 0.66448 0.34857 0.0
H129 H 0.10629 0.67133 0.74632 0.0
H130 H 0.02256 0.58985 0.10518 0.0
H131 H 0.09525 0.62335 0.08757 0.0
Co132 Co 0.43743 0.4486 0.11576 0.0
C133 C 0.43847 0.45356 0.89709 0.0
C134 C 0.40573 0.44336 0.95287 0.0
C135 C 0.40416 0.44225 0.85084 0.0
N136 N 0.4274 0.45088 0.98261 0.0
N137 N 0.42479 0.44854 0.81563 0.0
H138 H 0.45552 0.45688 0.894 0.0
H139 H 0.39157 0.43736 1.00169 0.0
C140 C 0.40739 0.46515 0.15792 0.0
O141 O 0.41395 0.4767 0.08003 0.0
N142 N 0.44689 0.44583 0.24729 0.0
C143 C 0.46778 0.45074 0.2768 0.0
C144 C 0.46868 0.45047 0.37899 0.0
C145 C 0.43532 0.4424 0.33158 0.0
N146 N 0.44828 0.44536 0.41339 0.0
C147 C 0.47949 0.4829 0.05701 0.0
C148 C 0.47983 0.51076 0.18553 0.0
C149 C 0.4969 0.51734 0.11613 0.0
C150 C 0.49685 0.50313 0.05259 0.0
C151 C 0.46244 0.49037 0.18593 0.0
N152 N 0.46183 0.4769 0.11868 0.0
H153 H 0.48052 0.47207 1.01156 0.0
H154 H 0.4497 0.48548 0.24124 0.0
H155 H 0.48172 0.4553 0.22785 0.0
H156 H 0.41817 0.43905 0.33359 0.0
O157 O 0.45265 0.43643 0.0556 0.0
O158 O 0.41709 0.42 0.10327 0.0
O159 O 0.41555 0.45438 0.17903 0.0
C160 C 0.43299 0.41959 0.05673 0.0
H161 H 0.38872 0.43621 0.80669 0.0
H162 H 0.48347 0.45439 0.42436 0.0
H163 H 0.47971 0.52132 0.23758 0.0
H164 H 0.51029 0.5076 1.00061 0.0
Co165 Co 0.6182 0.02511 0.08258 0.0
C166 C 0.61804 0.02894 0.30169 0.0
C167 C 0.65144 0.04663 0.24596 0.0
C168 C 0.65298 0.04687 0.34791 0.0
N169 N 0.62945 0.03574 0.21656 0.0
N170 N 0.63191 0.0356 0.383 0.0
H171 H 0.60025 0.01772 0.30442 0.0
H172 H 0.66554 0.05288 0.19661 0.0
C173 C 0.65116 0.06974 0.05085 0.0
O174 O 0.64507 0.07478 0.13197 0.0
N175 N 0.60749 0.01437 0.94985 0.0
C176 C 0.58596 0.00109 0.91985 0.0
C177 C 0.585 2e-05 0.81766 0.0
C178 C 0.61936 0.021 0.86604 0.0
N179 N 0.60601 0.01265 0.78398 0.0
C180 C 0.57789 0.0232 0.14392 0.0
C181 C 0.58102 0.05224 0.01818 0.0
C182 C 0.56274 0.04278 0.08196 0.0
C183 C 0.56122 0.02794 0.14478 0.0
C184 C 0.59734 0.04705 0.01985 0.0
N185 N 0.59623 0.03331 0.0853 0.0
H186 H 0.57544 0.01077 0.18765 0.0
H187 H 0.61038 0.05368 0.96569 0.0
H188 H 0.57181 0.99347 0.96862 0.0
H189 H 0.63717 0.03256 0.86479 0.0
O190 O 0.60034 -0.00168 0.1374 0.0
O191 O 0.6356 0.01263 0.08699 0.0
O192 O 0.64202 0.0513 0.02359 0.0
C193 C 0.61838 -0.00253 0.12875 0.0
H194 H 0.66852 0.05408 0.39211 0.0
H195 H 0.56988 0.99105 0.77181 0.0
H196 H 0.58267 0.0635 0.96682 0.0
H197 H 0.54686 0.01955 0.19198 0.0
Co198 Co 0.70403 0.79111 0.3747 0.0
C199 C 0.70134 0.79158 0.59154 0.0
C200 C 0.67624 0.76265 0.52896 0.0
C201 C 0.67591 0.76138 0.63083 0.0
N202 N 0.69221 0.78161 0.50472 0.0
N203 N 0.69186 0.77957 0.6702 0.0
H204 H 0.71565 0.80698 0.59634 0.0
H205 H 0.66632 0.75035 0.47646 0.0
C206 C 0.66198 0.77414 0.24483 0.0
O207 O 0.66981 0.79205 0.20698 0.0
N208 N 0.71633 0.8002 0.24308 0.0
C209 C 0.73477 0.8179 0.21735 0.0
C210 C 0.73663 0.81816 0.11599 0.0
C211 C 0.70847 0.78941 0.15702 0.0
N212 N 0.71983 0.8003 0.07791 0.0
C213 C 0.71488 0.83203 0.3906 0.0
C214 C 0.67122 0.82279 0.41733 0.0
C215 C 0.68856 0.84294 0.40587 0.0
C216 C 0.71069 0.84757 0.39482 0.0
C217 C 0.67614 0.80765 0.41042 0.0
N218 N 0.69754 0.81232 0.39059 0.0
H219 H 0.73214 0.83593 0.3895 0.0
H220 H 0.66268 0.79215 0.42047 0.0
H221 H 0.74664 0.82975 0.26761 0.0
H222 H 0.69447 0.77394 0.15194 0.0
O223 O 0.73432 0.80471 0.43306 0.0
O224 O 0.7151 0.77326 0.37239 0.0
O225 O 0.67312 0.77173 0.31367 0.0
C226 C 0.73323 0.78774 0.41738 0.0
H227 H 0.66514 0.7479 0.67218 0.0
H228 H 0.74946 0.83054 0.07372 0.0
H229 H 0.65404 0.81878 0.42994 0.0
H230 H 0.72468 0.86312 0.39131 0.0
Co231 Co 0.29263 0.00017 0.35812 0.0
C232 C 0.29187 0.99497 0.57637 0.0
C233 C 0.32521 0.00808 0.52099 0.0
C234 C 0.32669 0.00922 0.62293 0.0
N235 N 0.30329 -0.00124 0.4911 0.0
N236 N 0.30568 0.00113 0.65803 0.0
H237 H 0.2742 0.98982 0.5789 0.0
H238 H 0.33939 0.01514 0.47213 0.0
C239 C 0.32498 0.9859 0.31847 0.0
O240 O 0.32036 0.97566 0.40047 0.0
N241 N 0.28248 0.00207 0.2265 0.0
C242 C 0.26123 0.99604 0.19695 0.0
C243 C 0.26022 -0.00389 0.09472 0.0
C244 C 0.29415 0.00596 0.14221 0.0
N245 N 0.28093 0.00223 0.06037 0.0
C246 C 0.25021 0.96613 0.41439 0.0
C247 C 0.25097 0.93761 0.29527 0.0
C248 C 0.23235 0.93154 0.35556 0.0
C249 C 0.2321 0.94615 0.41516 0.0
C250 C 0.26886 0.95782 0.29715 0.0
N251 N 0.26868 0.97171 0.35867 0.0
H252 H 0.24892 0.97722 0.45655 0.0
H253 H 0.28238 0.96222 0.24645 0.0
H254 H 0.24718 0.99092 0.24593 0.0
H255 H 0.31164 0.01026 0.1403 0.0
O256 O 0.27716 0.01218 0.41766 0.0
O257 O 0.31246 0.02887 0.3669 0.0
O258 O 0.3148 0.99485 0.2944 0.0
C259 C 0.29656 0.02921 0.41377 0.0
H260 H 0.34223 0.01647 0.66706 0.0
H261 H 0.24522 0.99141 0.04928 0.0
H262 H 0.25167 0.92689 0.24656 0.0
H263 H 0.21765 0.94234 0.45974 0.0
Co264 Co 0.07942 0.38165 0.34897 0.0
C265 C 0.08335 0.3851 0.56853 0.0
C266 C 0.07078 0.40257 0.5074 0.0
C267 C 0.06935 0.4028 0.60902 0.0
N268 N 0.08003 0.39181 0.48183 0.0
N269 N 0.07707 0.39161 0.64714 0.0
H270 H 0.08885 0.37464 0.57446 0.0
H271 H 0.06418 0.40877 0.45539 0.0
C272 C 0.10137 0.42672 0.32168 0.0
O273 O 0.11212 0.431 0.4079 0.0
N274 N 0.0781 0.37148 0.21694 0.0
C275 C 0.084 0.35842 0.18796 0.0
C276 C 0.08333 0.35747 0.08576 0.0
C277 C 0.07372 0.37812 0.13286 0.0
N278 N 0.07701 0.37 0.05121 0.0
C279 C 0.11478 0.37646 0.42198 0.0
C280 C 0.14933 0.40607 0.31225 0.0
C281 C 0.15402 0.39456 0.37579 0.0
C282 C 0.13633 0.37954 0.43066 0.0
C283 C 0.12746 0.40259 0.30637 0.0
N284 N 0.11061 0.38837 0.36357 0.0
H285 H 0.10126 0.3638 0.45931 0.0
H286 H 0.12405 0.41079 0.25242 0.0
H287 H 0.08933 0.35081 0.23741 0.0
H288 H 0.06867 0.38902 0.13171 0.0
O289 O 0.06373 0.35454 0.40016 0.0
O290 O 0.04717 0.37016 0.34211 0.0
O291 O 0.08875 0.40851 0.29037 0.0
C292 C 0.04521 0.35436 0.38357 0.0
H293 H 0.06179 0.40951 0.65086 0.0
H294 H 0.08819 0.34893 0.04071 0.0
H295 H 0.16235 0.41748 0.2664 0.0
H296 H 0.13884 0.3696 0.47695 0.0
Co297 Co 0.70439 0.98219 0.44645 0.0
C298 C 0.69919 0.97746 0.66465 0.0
C299 C 0.67884 0.98782 0.60241 0.0
C300 C 0.67836 0.98884 0.70445 0.0
N301 N 0.69163 0.98032 0.57686 0.0
N302 N 0.69132 0.9824 0.74365 0.0
H303 H 0.71222 0.97409 0.67161 0.0
H304 H 0.67169 0.9936 0.55083 0.0
C305 C 0.65484 0.96568 0.38859 0.0
O306 O 0.6467 0.95397 0.4655 0.0
N307 N 0.71717 0.98457 0.3171 0.0
C308 C 0.7307 0.97802 0.28998 0.0
C309 C 0.73164 0.97815 0.18792 0.0
C310 C 0.71046 0.98897 0.23146 0.0
N311 N 0.71865 0.9848 0.15091 0.0
C312 C 0.70404 0.94714 0.50988 0.0
C313 C 0.67483 0.92096 0.36299 0.0
C314 C 0.68429 0.91403 0.43198 0.0
C315 C 0.69888 0.92731 0.50654 0.0
C316 C 0.68001 0.94085 0.37061 0.0
N317 N 0.69414 0.95362 0.4448 0.0
H318 H 0.71716 0.95751 0.56105 0.0
H319 H 0.67364 0.94621 0.31317 0.0
H320 H 0.73816 0.97232 0.34035 0.0
H321 H 0.69868 0.99394 0.22786 0.0
O322 O 0.73381 0.99333 0.51116 0.0
O323 O 0.71944 0.0111 0.45733 0.0
O324 O 0.67608 0.97696 0.37649 0.0
C325 C 0.73576 0.01078 0.50367 0.0
H326 H 0.66997 0.99478 0.74605 0.0
H327 H 0.74054 0.97296 0.14451 0.0
H328 H 0.66408 0.91128 0.30219 0.0
H329 H 0.70739 0.92279 0.55813 0.0
Co330 Co 0.08176 0.78824 0.32874 0.0
C331 C 0.08691 0.7897 0.54803 0.0
C332 C 0.08035 0.76174 0.48651 0.0
C333 C 0.07917 0.76025 0.58818 0.0
N334 N 0.08565 0.78039 0.46096 0.0
N335 N 0.08318 0.77785 0.62693 0.0
H336 H 0.08822 0.80403 0.55358 0.0
H337 H 0.07604 0.74953 0.43457 0.0
C338 C 0.10983 0.76958 0.29058 0.0
O339 O 0.12164 0.7768 0.37394 0.0
N340 N 0.0773 0.7956 0.19771 0.0
C341 C 0.07987 0.81327 0.17137 0.0
C342 C 0.07931 0.81388 0.0693 0.0
C343 C 0.07483 0.78558 0.11175 0.0
N344 N 0.07632 0.79651 0.03184 0.0
C345 C 0.11348 0.82873 0.39919 0.0
C346 C 0.14868 0.83575 0.28038 0.0
C347 C 0.15183 0.85111 0.34565 0.0
C348 C 0.13381 0.84744 0.40505 0.0
C349 C 0.12806 0.81724 0.27691 0.0
N350 N 0.11103 0.81357 0.33874 0.0
H351 H 0.09944 0.8268 0.44047 0.0
H352 H 0.12571 0.80627 0.2214 0.0
H353 H 0.08307 0.82527 0.22262 0.0
H354 H 0.07318 0.77105 0.1077 0.0
O355 O 0.06238 0.79646 0.38569 0.0
O356 O 0.05109 0.76589 0.32604 0.0
O357 O 0.09478 0.77341 0.26569 0.0
C358 C 0.04606 0.77769 0.3711 0.0
H359 H 0.07472 0.74689 0.62961 0.0
H360 H 0.08162 0.82643 0.0262 0.0
H361 H 0.16193 0.83802 0.23152 0.0
H362 H 0.13508 0.85917 0.4532 0.0
Co363 Co 0.29282 0.37708 0.38363 0.0
C364 C 0.29306 0.38042 0.60305 0.0
C365 C 0.32649 0.39708 0.54666 0.0
C366 C 0.32811 0.3974 0.64859 0.0
N367 N 0.30445 0.3868 0.51787 0.0
N368 N 0.30701 0.38683 0.68399 0.0
H369 H 0.27512 0.36984 0.60623 0.0
H370 H 0.34049 0.40304 0.49684 0.0
C371 C 0.32583 0.42192 0.3606 0.0
O372 O 0.31949 0.42599 0.4439 0.0
N373 N 0.28178 0.36725 0.25047 0.0
C374 C 0.26018 0.35432 0.22024 0.0
C375 C 0.2593 0.35332 0.1181 0.0
C376 C 0.29376 0.37375 0.1671 0.0
N377 N 0.28043 0.36562 0.08495 0.0
C378 C 0.25228 0.37408 0.44885 0.0
C379 C 0.25459 0.40379 0.33073 0.0
C380 C 0.23593 0.393 0.39156 0.0
C381 C 0.23496 0.37796 0.451 0.0
C382 C 0.27167 0.39947 0.33124 0.0
N383 N 0.27081 0.38521 0.39238 0.0
H384 H 0.25004 0.36131 0.4889 0.0
H385 H 0.28494 0.40702 0.27862 0.0
H386 H 0.246 0.34673 0.26887 0.0
H387 H 0.31171 0.38493 0.16635 0.0
O388 O 0.27493 0.34988 0.43378 0.0
O389 O 0.31003 0.36432 0.38141 0.0
O390 O 0.31663 0.40378 0.32794 0.0
C391 C 0.29267 0.34878 0.42041 0.0
H392 H 0.34366 0.40432 0.69263 0.0
H393 H 0.2442 0.34452 0.0719 0.0
H394 H 0.2558 0.4152 0.28171 0.0
H395 H 0.22037 0.36854 0.4955 0.0
Co396 Co 0.35095 0.12257 0.77205 0.0
C397 C 0.35596 0.12831 0.5552 0.0
C398 C 0.37753 0.11906 0.6158 0.0
C399 C 0.37746 0.11767 0.51404 0.0
N400 N 0.3643 0.12604 0.64222 0.0
N401 N 0.36367 0.12329 0.47575 0.0
H402 H 0.34314 0.13198 0.54994 0.0
H403 H 0.38505 0.11355 0.667 0.0
C404 C 0.40184 0.14445 0.82198 0.0
O405 O 0.40828 0.15337 0.73637 0.0
N406 N 0.33757 0.11862 0.90078 0.0
C407 C 0.32152 0.12217 0.92803 0.0
C408 C 0.32033 0.12148 0.03004 0.0
C409 C 0.34562 0.1155 0.98605 0.0
N410 N 0.33569 0.11748 0.06691 0.0
C411 C 0.33845 0.15032 0.70859 0.0
C412 C 0.37201 0.18381 0.8129 0.0
C413 C 0.35704 0.18588 0.7509 0.0
C414 C 0.33989 0.16873 0.69943 0.0
C415 C 0.36998 0.16509 0.81985 0.0
N416 N 0.35389 0.14877 0.76503 0.0
H417 H 0.32469 0.13723 0.67053 0.0
H418 H 0.38122 0.16391 0.87095 0.0
H419 H 0.31228 0.12614 0.87798 0.0
H420 H 0.3591 0.11256 0.98854 0.0
O421 O 0.3214 0.1053 0.70716 0.0
O422 O 0.34336 0.09524 0.76881 0.0
O423 O 0.38097 0.13376 0.84292 0.0
C424 C 0.32548 0.09092 0.71645 0.0
H425 H 0.38546 0.11138 0.4722 0.0
H426 H 0.30984 0.12488 0.07342 0.0
H427 H 0.38534 0.19658 0.85522 0.0
H428 H 0.32744 0.16944 0.65351 0.0
Co429 Co 0.94241 0.33022 0.71869 0.0
C430 C 0.94246 0.32698 0.93541 0.0
C431 C 0.97582 0.33918 0.88027 0.0
C432 C 0.97717 0.34039 0.9826 0.0
N433 N 0.95403 0.33079 0.85101 0.0
N434 N 0.95616 0.33284 0.01726 0.0
H435 H 0.92458 0.32141 0.93626 0.0
H436 H 0.98988 0.34504 0.83081 0.0
C437 C 0.96263 0.31311 0.58628 0.0
O438 O 0.94249 0.30074 0.54574 0.0
N439 N 0.93098 0.33029 0.58524 0.0
C440 C 0.90945 0.32275 0.55368 0.0
C441 C 0.90885 0.32378 0.45202 0.0
C442 C 0.94327 0.33692 0.50206 0.0
N443 N 0.9301 0.33232 0.41906 0.0
C444 C 0.89783 0.2961 0.75126 0.0
C445 C 0.90946 0.26744 0.75916 0.0
C446 C 0.88661 0.26113 0.76773 0.0
C447 C 0.88104 0.27594 0.76613 0.0
C448 C 0.92575 0.28783 0.74636 0.0
N449 N 0.91967 0.30171 0.73557 0.0
H450 H 0.89325 0.30727 0.75462 0.0
H451 H 0.94328 0.29236 0.74646 0.0
H452 H 0.89491 0.3166 0.59973 0.0
H453 H 0.96142 0.34387 0.50188 0.0
O454 O 0.92648 0.34204 0.77389 0.0
O455 O 0.96125 0.3592 0.71639 0.0
O456 O 0.96498 0.32447 0.66022 0.0
C457 C 0.94496 0.35941 0.76045 0.0
H458 H 0.99256 0.34691 0.02757 0.0
H459 H 0.89375 0.31821 0.40596 0.0
H460 H 0.91488 0.25679 0.76173 0.0
H461 H 0.86391 0.27213 0.77799 0.0
Co462 Co 0.76511 0.71945 0.67745 0.0
C463 C 0.76688 0.7128 0.46297 0.0
C464 C 0.73328 0.70299 0.50737 0.0
C465 C 0.7333 0.70206 0.40577 0.0
N466 N 0.75416 0.70915 0.5437 0.0
N467 N 0.75447 0.7084 0.37784 0.0
H468 H 0.78508 0.71986 0.46642 0.0
H469 H 0.71934 0.70065 0.55156 0.0
C470 C 0.72377 0.6766 0.7087 0.0
O471 O 0.72332 0.66989 0.61878 0.0
N472 N 0.77576 0.73012 0.81184 0.0
C473 C 0.78733 0.74953 0.84447 0.0
C474 C 0.78935 0.74995 0.94643 0.0
C475 C 0.77123 0.7191 0.89457 0.0
N476 N 0.77903 0.73077 0.97787 0.0
C477 C 0.8076 0.72322 0.70479 0.0
C478 C 0.79489 0.6848 0.64124 0.0
C479 C 0.81729 0.69827 0.67371 0.0
C480 C 0.82358 0.71768 0.70584 0.0
C481 C 0.77925 0.69083 0.64355 0.0
N482 N 0.78565 0.70978 0.67594 0.0
H483 H 0.81292 0.73847 0.72676 0.0
H484 H 0.76227 0.68042 0.61697 0.0
H485 H 0.7934 0.76257 0.79837 0.0
H486 H 0.76211 0.7028 0.89422 0.0
O487 O 0.78462 0.74571 0.62016 0.0
O488 O 0.74957 0.73365 0.67025 0.0
O489 O 0.73977 0.69412 0.73871 0.0
C490 C 0.76749 0.74797 0.62809 0.0
H491 H 0.71928 0.69863 0.35606 0.0
H492 H 0.79683 0.76331 0.99388 0.0
H493 H 0.7895 0.66974 0.61478 0.0
H494 H 0.84086 0.72865 0.7294 0.0
Co495 Co 0.37678 0.32871 0.68682 0.0
C496 C 0.37149 0.32309 0.90365 0.0
C497 C 0.35137 0.33387 0.84312 0.0
C498 C 0.35159 0.33537 0.94489 0.0
N499 N 0.3636 0.32587 0.81664 0.0
N500 N 0.36448 0.32878 0.98315 0.0
H501 H 0.38357 0.31854 0.90884 0.0
H502 H 0.34451 0.33998 0.79193 0.0
C503 C 0.32614 0.30887 0.63717 0.0
O504 O 0.31942 0.29996 0.72269 0.0
N505 N 0.39002 0.33207 0.55809 0.0
C506 C 0.40517 0.32741 0.53062 0.0
C507 C 0.40638 0.32807 0.42861 0.0
C508 C 0.38253 0.33582 0.47294 0.0
N509 N 0.39192 0.33317 0.39193 0.0
C510 C 0.38718 0.29963 0.75028 0.0
C511 C 0.35245 0.26667 0.64734 0.0
C512 C 0.36695 0.26394 0.70917 0.0
C513 C 0.38469 0.28081 0.7599 0.0
C514 C 0.35552 0.28581 0.63998 0.0
N515 N 0.37222 0.30189 0.69407 0.0
H516 H 0.40137 0.31245 0.78788 0.0
H517 H 0.34459 0.28749 0.5892 0.0
H518 H 0.41375 0.3227 0.58049 0.0
H519 H 0.3698 0.33969 0.47065 0.0
O520 O 0.40647 0.34494 0.75191 0.0
O521 O 0.38597 0.3565 0.69016 0.0
O522 O 0.34701 0.31876 0.61578 0.0
C523 C 0.40347 0.35997 0.743 0.0
H524 H 0.34437 0.34238 0.98671 0.0
H525 H 0.4162 0.32392 0.3851 0.0
H526 H 0.33872 0.25412 0.60547 0.0
H527 H 0.39681 0.27958 0.80556 0.0
Co528 Co 0.76871 0.1049 0.79842 0.0
C529 C 0.76798 0.10918 0.58008 0.0
C530 C 0.73479 0.08976 0.63549 0.0
C531 C 0.73343 0.0886 0.53357 0.0
N532 N 0.75643 0.10294 0.66508 0.0
N533 N 0.7544 0.10068 0.49849 0.0
H534 H 0.78616 0.11814 0.57776 0.0
H535 H 0.72113 0.08061 0.68475 0.0
C536 C 0.73055 0.11215 0.82852 0.0
O537 O 0.73394 0.12126 0.7435 0.0
N538 N 0.78058 0.10632 0.93079 0.0
C539 C 0.80247 0.11598 0.96065 0.0
C540 C 0.80355 0.11618 0.06288 0.0
C541 C 0.76867 0.10055 0.0147 0.0
N542 N 0.78227 0.10654 0.09667 0.0
C543 C 0.8077 0.14206 0.74032 0.0
C544 C 0.79936 0.16783 0.84538 0.0
C545 C 0.81904 0.17589 0.79079 0.0
C546 C 0.82328 0.16281 0.73855 0.0
C547 C 0.7844 0.14688 0.84696 0.0
N548 N 0.7882 0.13424 0.79188 0.0
H549 H 0.81182 0.13231 0.70227 0.0
H550 H 0.77036 0.14106 0.89583 0.0
H551 H 0.81665 0.12313 0.91183 0.0
H552 H 0.75045 0.09306 0.01604 0.0
O553 O 0.78864 0.09728 0.74301 0.0
O554 O 0.75419 0.07594 0.7965 0.0
O555 O 0.74316 0.1059 0.85873 0.0
C556 C 0.77207 0.0787 0.75319 0.0
H557 H 0.71825 0.07886 0.48939 0.0
H558 H 0.81886 0.12328 0.10871 0.0
H559 H 0.79601 0.17759 0.88916 0.0
H560 H 0.83862 0.16858 0.69721 0.0
Co561 Co 0.95616 0.68067 0.65619 0.0
C562 C 0.95537 0.68299 0.87544 0.0
C563 C 0.98501 0.70876 0.81948 0.0
C564 C 0.98679 0.70948 0.92167 0.0
N565 N 0.96496 0.69236 0.79015 0.0
N566 N 0.96806 0.6932 0.95667 0.0
H567 H 0.94058 0.66799 0.87861 0.0
H568 H -0.00185 0.71887 0.77026 0.0
C569 C 0.9759 0.72515 0.61491 0.0
O570 O 0.96656 0.72784 0.69218 0.0
N571 N 0.94806 0.66902 0.52367 0.0
C572 C 0.92845 0.65242 0.49329 0.0
C573 C 0.92798 0.65126 0.3912 0.0
C574 C 0.9594 0.67753 0.44024 0.0
N575 N 0.94738 0.66719 0.3578 0.0
C576 C 0.91229 0.67052 0.72451 0.0
C577 C 0.9051 0.6921 0.58341 0.0
C578 C 0.88938 0.68275 0.65814 0.0
C579 C 0.89291 0.67155 0.72838 0.0
C580 C 0.92443 0.691 0.58352 0.0
N581 N 0.92849 0.68121 0.65665 0.0
H582 H 0.91388 0.66074 0.77478 0.0
H583 H 0.93604 0.69794 0.52385 0.0
H584 H 0.91498 0.64245 0.54165 0.0
H585 H 0.97559 0.69162 0.43962 0.0
O586 O 0.94534 0.65427 0.71128 0.0
O587 O 0.98029 0.67566 0.66194 0.0
O588 O 0.97355 0.7081 0.59587 0.0
C589 C 0.96598 0.65853 0.70171 0.0
H590 H 0.00113 0.72074 0.96621 0.0
H591 H 0.91407 0.63986 0.34526 0.0
H592 H 0.90272 0.70053 0.52639 0.0
H593 H 0.88064 0.66342 0.78488 0.0
C594 C 0.01022 0.45611 0.62178 0.0
C595 C 0.02927 0.45517 0.64771 0.0
H596 H 0.98923 0.45655 0.50577 0.0
C597 C 0.04199 0.45403 0.57139 0.0
H598 H -0.0003 0.45662 0.67805 0.0
C599 C 0.03601 0.4541 0.47189 0.0
C600 C 0.01701 0.45517 0.44588 0.0
H601 H 0.05686 0.45345 0.58855 0.0
H602 H 0.04663 0.45372 0.41578 0.0
C603 C 0.00414 0.45604 0.5224 0.0
C604 C 0.59929 0.66091 0.54412 0.0
C605 C 0.61566 0.67244 0.61829 0.0
H606 H 0.59247 0.65181 0.39181 0.0
C607 C 0.63845 0.68449 0.59237 0.0
H608 H 0.58166 0.65118 0.5622 0.0
C609 C 0.64471 0.68502 0.49416 0.0
C610 C 0.62832 0.67337 0.41977 0.0
H611 H 0.65142 0.69371 0.6478 0.0
H612 H 0.66236 0.69476 0.4767 0.0
C613 C 0.60554 0.66128 0.44625 0.0
C614 C 0.44758 0.09316 0.65891 0.0
C615 C 0.42828 0.0744 0.68123 0.0
H616 H 0.46864 0.11297 0.54635 0.0
C617 C 0.41505 0.06117 0.60292 0.0
H618 H 0.45785 0.10393 0.71722 0.0
C619 C 0.42126 0.06636 0.50468 0.0
C620 C 0.44081 0.08498 0.48231 0.0
H621 H 0.40018 0.04657 0.61771 0.0
H622 H 0.411 0.0555 0.44669 0.0
C623 C 0.45375 0.09838 0.56073 0.0
C624 C 0.05386 0.67609 0.61857 0.0
C625 C 0.0684 0.6697 0.64957 0.0
H626 H 0.03572 0.67927 0.49794 0.0
C627 C 0.07544 0.66102 0.57869 0.0
H628 H 0.04817 0.68292 0.67087 0.0
C629 C 0.06818 0.65879 0.47971 0.0
C630 C 0.05372 0.66522 0.44836 0.0
H631 H 0.08615 0.65545 0.59989 0.0
H632 H 0.07368 0.65169 0.42811 0.0
C633 C 0.04662 0.6739 0.5192 0.0
C634 C 0.45904 0.45824 0.58688 0.0
C635 C 0.44237 0.44569 0.51536 0.0
H636 H 0.46655 0.46942 0.7366 0.0
C637 C 0.41974 0.43405 0.54454 0.0
H638 H 0.47658 0.46772 0.567 0.0
C639 C 0.41394 0.43495 0.64248 0.0
C640 C 0.43062 0.44763 0.71398 0.0
H641 H 0.40648 0.42406 0.49181 0.0
H642 H 0.39639 0.42549 0.66203 0.0
C643 C 0.45325 0.45925 0.68455 0.0
C644 C 0.6347 0.02512 0.65344 0.0
C645 C 0.61247 0.018 0.68243 0.0
H646 H 0.65827 0.03597 0.53612 0.0
C647 C 0.59683 0.01683 0.61122 0.0
H648 H 0.6471 0.02602 0.70611 0.0
C649 C 0.60326 0.02273 0.51378 0.0
C650 C 0.62548 0.02984 0.48444 0.0
H651 H 0.5797 0.0118 0.63121 0.0
H652 H 0.59083 0.02198 0.46186 0.0
C653 C 0.64112 0.03091 0.55572 0.0
C654 C 0.71145 0.80498 0.80607 0.0
C655 C 0.69892 0.78468 0.77329 0.0
H656 H 0.72782 0.82582 0.92764 0.0
C657 C 0.69383 0.76957 0.84278 0.0
H658 H 0.7154 0.81706 0.75571 0.0
C659 C 0.701 0.77465 0.94211 0.0
C660 C 0.71351 0.79497 0.97454 0.0
H661 H 0.68454 0.75378 0.82063 0.0
H662 H 0.69682 0.76265 0.99335 0.0
C663 C 0.71868 0.81004 0.90508 0.0
C664 C 0.277 0.98864 0.78921 0.0
C665 C 0.29948 0.00145 0.75974 0.0
H666 H 0.25351 0.97878 0.9069 0.0
C667 C 0.31566 0.01475 0.83138 0.0
H668 H 0.26409 0.97796 0.73718 0.0
C669 C 0.30955 0.01512 0.9293 0.0
C670 C 0.28708 0.00233 0.95845 0.0
H671 H 0.33306 0.02513 0.81204 0.0
H672 H 0.32243 0.02562 0.98205 0.0
C673 C 0.27088 0.98912 0.88694 0.0
C674 C 0.07382 0.36732 0.77272 0.0
C675 C 0.07646 0.38595 0.74909 0.0
H676 H 0.07142 0.34747 0.88661 0.0
C677 C 0.07852 0.39895 0.82665 0.0
H678 H 0.07163 0.3567 0.715 0.0
C679 C 0.07845 0.39366 0.92546 0.0
C680 C 0.07616 0.37514 0.94924 0.0
H681 H 0.08072 0.41345 0.81095 0.0
H682 H 0.08074 0.40436 0.98288 0.0
C683 C 0.07365 0.36199 0.87143 0.0
C684 C 0.70369 -0.00346 0.01618 0.0
C685 C 0.71212 0.98457 0.04793 0.0
H686 H 0.69073 0.00548 0.89551 0.0
C687 C 0.71324 0.97175 0.97764 0.0
H688 H 0.70268 0.0067 0.06763 0.0
C689 C 0.70623 0.97093 0.87894 0.0
C690 C 0.69793 0.98297 0.84684 0.0
H691 H 0.71909 0.96193 0.999 0.0
H692 H 0.70705 0.9606 0.828 0.0
C693 C 0.69672 0.99577 0.91709 0.0
C694 C 0.09181 0.80261 0.76323 0.0
C695 C 0.08133 0.78244 0.72926 0.0
H696 H 0.09857 0.82288 0.88502 0.0
C697 C 0.06883 0.76695 0.79686 0.0
H698 H 0.10187 0.81497 0.71426 0.0
C699 C 0.06699 0.77153 0.89551 0.0
C700 C 0.0775 0.79172 0.9292 0.0
H701 H 0.06018 0.75125 0.77361 0.0
H702 H 0.05714 0.75924 0.94519 0.0
C703 C 0.08987 0.80717 0.86156 0.0
C704 C 0.31573 0.38222 0.85745 0.0
C705 C 0.30048 0.38163 0.78563 0.0
H706 H 0.32119 0.37731 1.00853 0.0
C707 C 0.2785 0.37554 0.81449 0.0
H708 H 0.33268 0.38653 0.83812 0.0
C709 C 0.27188 0.37005 0.91199 0.0
C710 C 0.2871 0.37067 0.98362 0.0
H711 H 0.2664 0.37525 0.76211 0.0
H712 H 0.25495 0.36576 0.9317 0.0
C713 C 0.30913 0.37686 0.95529 0.0
C714 C 0.3354 0.11907 0.34672 0.0
C715 C 0.35638 0.12153 0.37288 0.0
H716 H 0.31217 0.11541 0.23063 0.0
C717 C 0.36996 0.12183 0.29647 0.0
H718 H 0.32412 0.11821 0.40303 0.0
C719 C 0.36298 0.12004 0.19703 0.0
C720 C 0.34223 0.11803 0.17033 0.0
H721 H 0.38623 0.12378 0.31326 0.0
H722 H 0.37419 0.1206 0.14155 0.0
C723 C 0.32845 0.11735 0.24707 0.0
C724 C 0.92096 0.3196 0.24484 0.0
C725 C 0.9367 0.33307 0.31716 0.0
H726 H 0.91479 0.30864 0.09488 0.0
C727 C 0.95914 0.34646 0.28877 0.0
H728 H 0.90367 0.30871 0.26366 0.0
C729 C 0.9656 0.34634 0.19101 0.0
C730 C 0.94978 0.33283 0.11887 0.0
H731 H 0.97174 0.3571 0.34195 0.0
H732 H 0.98293 0.35704 0.17193 0.0
C733 C 0.92739 0.31949 0.14744 0.0
C734 C 0.75443 0.70578 0.10108 0.0
C735 C 0.77429 0.72415 0.07907 0.0
H736 H 0.73266 0.68642 0.21364 0.0
C737 C 0.78857 0.73646 0.15808 0.0
H738 H 0.74295 0.69595 0.04277 0.0
C739 C 0.78271 0.73084 0.25656 0.0
C740 C 0.76229 0.71293 0.27788 0.0
H741 H 0.80408 0.7506 0.14379 0.0
H742 H 0.79359 0.74093 0.31588 0.0
C743 C 0.74844 0.70033 0.19913 0.0
C744 C 0.35869 0.3309 0.16251 0.0
C745 C 0.37167 0.33022 0.08599 0.0
H746 H 0.35481 0.33261 0.31745 0.0
C747 C 0.39198 0.33137 0.11205 0.0
H748 H 0.34293 0.32998 0.14587 0.0
C749 C 0.39882 0.33274 0.21166 0.0
C750 C 0.38559 0.33303 0.28852 0.0
H751 H 0.40283 0.33145 0.0557 0.0
H752 H 0.41457 0.33366 0.22795 0.0
C753 C 0.36557 0.33236 0.26193 0.0
C754 C 0.74731 0.08737 0.32484 0.0
C755 C 0.76137 0.10219 0.39677 0.0
H756 H 0.74303 0.07701 0.17392 0.0
C757 C 0.78257 0.11835 0.36768 0.0
H758 H 0.73105 0.07449 0.34387 0.0
C759 C 0.78953 0.1196 0.27001 0.0
C760 C 0.77542 0.10485 0.19833 0.0
H761 H 0.79377 0.13024 0.41994 0.0
H762 H 0.8058 0.13241 0.25019 0.0
C763 C 0.75422 0.08874 0.22699 0.0
C764 C 0.9355 0.66717 0.18367 0.0
C765 C 0.95281 0.67342 0.25621 0.0
H766 H 0.9267 0.66889 0.0333 0.0
C767 C 0.97538 0.68646 0.22834 0.0
H768 H 0.91792 0.65753 0.20232 0.0
C769 C 0.98046 0.69306 0.13057 0.0
C770 C 0.96308 0.68676 0.05819 0.0
H771 H 0.98918 0.69145 0.28181 0.0
H772 H -0.00199 0.70284 0.11159 0.0
C773 C 0.94056 0.67376 0.0863 0.0
C774 C 0.06925 0.58079 0.01768 0.0
C775 C 0.0584 0.58485 0.09262 0.0
H776 H 0.0748 0.55883 0.95049 0.0
C777 C 0.04617 0.5701 0.1634 0.0
H778 H 0.07859 0.59187 0.96176 0.0
C779 C 0.04441 0.55144 0.15794 0.0
C780 C 0.05453 0.54717 0.08078 0.0
H781 H 0.03773 0.57292 0.22201 0.0
H782 H 0.03442 0.54004 0.21162 0.0
C783 C 0.06711 0.56199 1.01115 0.0
C784 C 0.52891 0.54998 0.1888 0.0
C785 C 0.5145 0.53895 0.10784 0.0
H786 H 0.55702 0.5786 0.24164 0.0
C787 C 0.51717 0.54855 0.01723 0.0
H788 H 0.52717 0.54279 0.25917 0.0
C789 C 0.53382 0.56893 1.00781 0.0
C790 C 0.54842 0.57992 0.08819 0.0
H791 H 0.50619 0.5403 0.95397 0.0
H792 H 0.53546 0.57608 0.93739 0.0
C793 C 0.54597 0.57031 0.17866 0.0
C794 C 0.53691 0.05096 0.9908 0.0
C795 C 0.54494 0.04777 0.08073 0.0
H796 H 0.51387 0.05743 0.91925 0.0
C797 C 0.53565 0.04917 0.16965 0.0
H798 H 0.54343 0.04967 0.92085 0.0
C799 C 0.51868 0.05358 0.1687 0.0
C800 C 0.51058 0.05668 0.07876 0.0
H801 H 0.5417 0.04711 0.24028 0.0
H802 H 0.51216 0.05486 0.23867 0.0
C803 C 0.51993 0.05537 0.98984 0.0
C804 C 0.68942 0.87194 0.3262 0.0
C805 C 0.68406 0.85935 0.40799 0.0
H806 H 0.69307 0.89901 0.26922 0.0
C807 C 0.67636 0.86364 0.4943 0.0
H808 H 0.69541 0.86885 0.25901 0.0
C809 C 0.67535 0.88101 0.50071 0.0
C810 C 0.68154 0.89403 0.4201 0.0
H811 H 0.67227 0.85413 0.55829 0.0
H812 H 0.67046 0.88465 0.56962 0.0
C813 C 0.68795 0.88905 0.33184 0.0
C814 C 0.18249 0.88169 0.43906 0.0
C815 C 0.1733 0.8712 0.34849 0.0
H816 H 0.20855 0.90878 0.5124 0.0
C817 C 0.18439 0.88033 0.26055 0.0
H818 H 0.1746 0.87495 0.50826 0.0
C819 C 0.2039 0.89969 0.26297 0.0
C820 C 0.21272 0.91038 0.35334 0.0
H821 H 0.17759 0.87279 0.18938 0.0
H822 H 0.21161 0.90657 0.19369 0.0
C823 C 0.20196 0.90105 0.44144 0.0
C824 C 0.2056 0.39532 0.47564 0.0
C825 C 0.21667 0.39612 0.3883 0.0
H826 H 0.17743 0.39462 0.54028 0.0
C827 C 0.20813 0.39839 0.29744 0.0
H828 H 0.21197 0.39396 0.547 0.0
C829 C 0.18831 0.39881 0.29362 0.0
C830 C 0.17663 0.39694 0.38056 0.0
H831 H 0.21611 0.39884 0.22866 0.0
H832 H 0.18156 0.39958 0.22206 0.0
C833 C 0.18582 0.39572 0.47181 0.0
C834 C 0.36676 0.23739 0.81318 0.0
C835 C 0.36391 0.24375 0.71991 0.0
H836 H 0.36646 0.21408 0.89645 0.0
C837 C 0.35846 0.2308 0.63717 0.0
H838 H 0.37059 0.24688 0.87866 0.0
C839 C 0.35612 0.212 0.64735 0.0
C840 C 0.35916 0.20572 0.74052 0.0
H841 H 0.35647 0.23536 0.56409 0.0
H842 H 0.35237 0.20254 0.58182 0.0
C843 C 0.3644 0.2186 0.82338 0.0
C844 C 0.84687 0.23136 0.73726 0.0
C845 C 0.86878 0.23937 0.77874 0.0
H846 H 0.81383 0.20493 0.71013 0.0
C847 C 0.87363 0.22625 0.82843 0.0
H848 H 0.84253 0.24082 0.69702 0.0
C849 C 0.85731 0.20565 0.83333 0.0
C850 C 0.83568 0.1978 0.79081 0.0
H851 H 0.89002 0.23181 0.8636 0.0
H852 H 0.86159 0.19579 0.87023 0.0
C853 C 0.83043 0.2108 0.74409 0.0
C854 C 0.84789 0.69551 0.75631 0.0
C855 C 0.83439 0.69256 0.67162 0.0
H856 H 0.87568 0.69437 0.8185 0.0
C857 C 0.83827 0.6853 0.58358 0.0
H858 H 0.84517 0.70105 0.82508 0.0
C859 C 0.85593 0.68178 0.57938 0.0
C860 C 0.86968 0.68507 0.66372 0.0
H861 H 0.82816 0.68304 0.51718 0.0
H862 H 0.85897 0.67666 0.51006 0.0
C863 C 0.86523 0.69161 0.75267 0.0
C864 C 0.10171 0.44219 0.16105 0.0
C865 C 0.10074 0.44241 0.26489 0.0
H866 H 0.09436 0.45156 0.02412 0.0
C867 C 0.09456 0.45483 0.31138 0.0
H868 H 0.10618 0.43249 0.12383 0.0
C869 C 0.08729 0.46531 0.25436 0.0
C870 C 0.08682 0.464 0.15042 0.0
H871 H 0.09329 0.45492 0.39122 0.0
H872 H 0.08055 0.4733 0.29127 0.0
C873 C 0.09509 0.45316 0.10413 0.0
C874 C 0.63099 0.73799 0.23798 0.0
C875 C 0.64533 0.75589 0.18791 0.0
H876 H 0.6115 0.70566 0.2302 0.0
C877 C 0.64782 0.75501 0.08532 0.0
H878 H 0.62899 0.73833 0.31724 0.0
C879 C 0.63864 0.73632 0.0365 0.0
C880 C 0.62596 0.71839 0.08878 0.0
H881 H 0.65897 0.76861 0.04527 0.0
H882 H 0.64276 0.73588 0.95991 0.0
C883 C 0.62101 0.71933 0.18819 0.0
C884 C 0.38634 0.01686 0.26432 0.0
C885 C 0.38547 0.01708 0.16037 0.0
H886 H 0.36751 0.00551 0.39692 0.0
C887 C 0.3651 0.00363 0.10926 0.0
H888 H 0.40191 0.02724 0.30503 0.0
C889 C 0.34535 0.99157 0.16177 0.0
C890 C 0.34592 0.9923 0.26588 0.0
H891 H 0.36401 0.00378 0.02914 0.0
H892 H 0.32934 0.9828 0.1212 0.0
C893 C 0.36675 0.00429 0.31675 0.0
C894 C 0.42024 0.12799 0.04285 0.0
C895 C 0.43433 0.1225 0.99927 0.0
H896 H 0.40016 0.14097 0.0209 0.0
C897 C 0.4422 0.12914 0.90348 0.0
H898 H 0.4141 0.12318 0.11686 0.0
C899 C 0.43372 0.13887 0.84755 0.0
C900 C 0.41752 0.14222 0.88763 0.0
H901 H 0.45298 0.12494 0.86811 0.0
H902 H 0.438 0.14177 0.77025 0.0
C903 C 0.41222 0.13808 0.98793 0.0
C904 C 0.95968 0.39391 0.97917 0.0
C905 C 0.97311 0.41275 0.9356 0.0
H906 H 0.93865 0.36193 0.95518 0.0
C907 C 0.97321 0.41408 0.83196 0.0
H908 H 0.95967 0.39256 0.05898 0.0
C909 C 0.96215 0.39654 0.7726 0.0
C910 C 0.94997 0.37757 0.81636 0.0
H911 H 0.98374 0.42846 0.79702 0.0
H912 H 0.9644 0.39771 0.69323 0.0
C913 C 0.94769 0.37644 0.91969 0.0
C914 C 0.68234 0.6508 0.7271 0.0
C915 C 0.70324 0.66602 0.76923 0.0
H916 H 0.64624 0.63375 0.73902 0.0
C917 C 0.70367 0.67334 0.86514 0.0
H918 H 0.68137 0.6448 0.65334 0.0
C919 C 0.68363 0.66699 0.91417 0.0
C920 C 0.6626 0.65321 0.8683 0.0
H921 H 0.71941 0.68499 0.89996 0.0
H922 H 0.6846 0.67384 0.98567 0.0
C923 C 0.66217 0.64446 0.77624 0.0
C924 C 0.00268 0.6378 0.75602 0.0
C925 C 0.00077 0.63585 0.85934 0.0
H926 H 0.9932 0.64706 0.62439 0.0
C927 C 0.98405 0.63761 0.90601 0.0
H928 H 0.01564 0.6368 0.71835 0.0
C929 C 0.9706 0.64271 0.85135 0.0
C930 C 0.9743 0.64682 0.75011 0.0
H931 H 0.98242 0.63636 0.98568 0.0
H932 H 0.95892 0.64534 0.89014 0.0
C933 C 0.98989 0.6437 0.70218 0.0
C934 C 0.40616 0.39732 0.92612 0.0
C935 C 0.42645 0.40393 0.9792 0.0
H936 H 0.38411 0.3797 0.80682 0.0
C937 C 0.44058 0.39719 0.94913 0.0
H938 H 0.39504 0.40245 0.94611 0.0
C939 C 0.43375 0.38319 0.8696 0.0
C940 C 0.41342 0.37682 0.81633 0.0
H941 H 0.45653 0.40241 0.98804 0.0
H942 H 0.44419 0.3773 0.8502 0.0
C943 C 0.40005 0.38443 0.84465 0.0
C944 C 0.71138 0.10727 0.98861 0.0
C945 C 0.71008 0.10605 0.88455 0.0
H946 H 0.6932 0.09717 0.12372 0.0
C947 C 0.68881 0.09538 0.83615 0.0
H948 H 0.72769 0.11522 0.02728 0.0
C949 C 0.66922 0.08458 0.89117 0.0
C950 C 0.67063 0.08491 0.99517 0.0
H951 H 0.68745 0.09392 0.75606 0.0
H952 H 0.65309 0.07509 0.85251 0.0
C953 C 0.69172 0.09703 0.04365 0.0
C954 C 0.64657 0.97077 0.21599 0.0
C955 C 0.63999 0.9673 0.31518 0.0
H956 H 0.64448 0.98291 0.07766 0.0
C957 C 0.62215 0.96939 0.34489 0.0
H958 H 0.6599 0.96876 0.19059 0.0
C959 C 0.6129 0.9771 0.27905 0.0
C960 C 0.62156 0.98289 0.1835 0.0
H961 H 0.61686 0.9669 0.42108 0.0
H962 H 0.6007 0.98045 0.30624 0.0
C963 C 0.6376 0.97866 0.15098 0.0
C964 C 0.10787 0.72185 0.22318 0.0
C965 C 0.09804 0.71817 0.12738 0.0
H966 H 0.11958 0.74154 0.35166 0.0
C967 C 0.09707 0.73354 0.07952 0.0
H968 H 0.10861 0.71011 0.26177 0.0
C969 C 0.10361 0.75151 0.13009 0.0
C970 C 0.11076 0.75425 0.23011 0.0
H971 H 0.08974 0.7311 1.00537 0.0
H972 H 0.10139 0.76262 0.09319 0.0
C973 C 0.11415 0.73983 0.27461 0.0
C974 C 0.36594 0.44998 0.15603 0.0
C975 C 0.38667 0.46014 0.20902 0.0
H976 H 0.33003 0.42941 0.16376 0.0
C977 C 0.38675 0.46034 0.31308 0.0
H978 H 0.36552 0.4492 0.07579 0.0
C979 C 0.36644 0.4495 0.3634 0.0
C980 C 0.3459 0.43774 0.31009 0.0
H981 H 0.40262 0.46767 0.3552 0.0
H982 H 0.36702 0.44878 0.44344 0.0
C983 C 0.3457 0.43857 0.20622 0.0
C984 C 0.75204 0.78596 0.57047 0.0
C985 C 0.74887 0.78325 0.46719 0.0
H986 H 0.76035 0.77632 0.70424 0.0
C987 C 0.75621 0.77204 0.41714 0.0
H988 H 0.74608 0.79423 0.61065 0.0
C989 C 0.76523 0.76253 0.47038 0.0
C990 C 0.76614 0.7635 0.57431 0.0
H991 H 0.75356 0.76952 0.33769 0.0
H992 H 0.76931 0.75279 0.43092 0.0
C993 C 0.76017 0.77575 0.624 0.0
C994 C 0.28806 0.0512 0.51952 0.0
C995 C 0.30299 0.0455 0.48747 0.0
H996 H 0.28361 0.07074 0.61747 0.0
C997 C 0.32419 0.05389 0.53539 0.0
H998 H 0.27145 0.04465 0.4846 0.0
C999 C 0.33038 0.06743 0.61402 0.0
C1000 C 0.31603 0.07384 0.64468 0.0
H1001 H 0.33598 0.04959 0.51396 0.0
H1002 H 0.34699 0.07349 0.64817 0.0
C1003 C 0.29483 0.0658 0.59617 0.0
C1004 C 0.00316 0.3319 0.37714 0.0
C1005 C 0.02383 0.33929 0.42846 0.0
H1006 H 0.96714 0.31649 0.387 0.0
C1007 C 0.02387 0.33504 0.5293 0.0
H1008 H 0.00281 0.33521 0.29958 0.0
C1009 C 0.0036 0.32512 0.58024 0.0
C1010 C 0.98297 0.31864 0.5301 0.0
H1011 H 0.03968 0.34089 0.57061 0.0
H1012 H 0.00415 0.32348 0.65968 0.0
C1013 C 0.98281 0.32119 0.42718 0.0
C1014 C 0.31661 0.31666 0.47261 0.0
C1015 C 0.31101 0.31202 0.57234 0.0
H1016 H 0.31527 0.33231 0.34567 0.0
C1017 C 0.29492 0.31543 0.61314 0.0
H1018 H 0.32854 0.3137 0.43893 0.0
C1019 C 0.28679 0.32561 0.55865 0.0
C1020 C 0.2949 0.33265 0.46358 0.0
H1021 H 0.29038 0.31212 0.68998 0.0
H1022 H 0.27603 0.32976 0.59468 0.0
C1023 C 0.30896 0.32721 0.41919 0.0
C1024 C 0.76085 0.04287 0.7321 0.0
C1025 C 0.77037 0.06221 0.69294 0.0
H1026 H 0.74374 0.01115 0.70051 0.0
C1027 C 0.77274 0.0646 0.58997 0.0
H1028 H 0.75858 0.04069 0.81116 0.0
C1029 C 0.76309 0.04767 0.52651 0.0
C1030 C 0.75208 0.02824 0.56556 0.0
H1031 H 0.77981 0.07937 0.55803 0.0
H1032 H 0.76285 0.0497 0.44729 0.0
C1033 C 0.7523 0.02601 0.66867 0.0
C1034 C 0.00708 0.7608 0.58451 0.0
C1035 C 0.9899 0.74175 0.54771 0.0
H1036 H 0.03878 0.78786 0.55439 0.0
C1037 C 0.98873 0.73728 0.44606 0.0
H1038 H 0.00833 0.76451 0.66278 0.0
C1039 C 0.00595 0.75053 0.38442 0.0
C1040 C 0.02458 0.76852 0.4233 0.0
H1041 H 0.97537 0.72283 0.41566 0.0
H1042 H 0.00569 0.74584 0.3084 0.0
C1043 C 0.0244 0.77418 0.52231 0.0
loop_
_geom_bond_atom_site_label_1
_geom_bond_atom_site_label_2
_geom_bond_distance
_geom_bond_site_symmetry_2
_ccdc_geom_bond_type
Co0 N4 2.148 1_554 S
Co0 N10 2.128 . S
Co0 N20 2.194 . S
Co0 O25 2.351 1_454 S
Co0 O26 2.155 1_554 S
Co0 O27 2.096 . S
C1 N4 1.301 . S
C1 N5 1.328 . S
C1 H6 0.930 . S
C2 C3 1.333 . S
C2 N4 1.317 . S
C2 H7 0.930 . S
C3 C2 1.333 . S
C3 N5 1.350 . S
C3 H29 0.931 . S
N4 Co0 2.148 1_556 S
N4 C1 1.301 . S
N4 C2 1.317 . S
N5 C1 1.328 . S
N5 C3 1.350 . S
H6 C1 0.930 . S
H7 C2 0.930 . S
C8 O9 1.224 . S
C8 O27 1.247 . S
O9 C8 1.224 . S
N10 Co0 2.128 . S
N10 C11 1.355 . S
N10 C13 1.311 . S
C11 N10 1.355 . S
C11 C12 1.363 1_455 S
C11 H23 0.929 1_455 S
C12 C11 1.363 1_655 S
C12 N14 1.375 1_655 S
C12 H30 0.931 . S
C13 N10 1.311 . S
C13 N14 1.347 . S
C13 H24 0.929 . S
N14 C12 1.375 1_455 S
N14 C13 1.347 . S
C15 C18 1.365 . S
C15 N20 1.328 1_556 S
C15 H21 0.929 . S
C16 C17 1.362 . S
C16 C19 1.378 . S
C16 H31 0.929 . S
C17 C16 1.362 . S
C17 C18 1.366 1_554 S
C18 C15 1.365 . S
C18 C17 1.366 1_556 S
C18 H32 0.930 . S
C19 C16 1.378 . S
C19 N20 1.315 . S
C19 H22 0.930 . S
N20 Co0 2.194 . S
N20 C15 1.328 1_554 S
N20 C19 1.315 . S
H21 C15 0.929 . S
H22 C19 0.930 . S
H23 C11 0.929 1_655 S
H24 C13 0.929 . S
O25 Co0 2.351 1_656 S
O25 C28 1.244 . S
O26 Co0 2.155 1_556 S
O26 C28 1.240 1_455 S
O27 Co0 2.096 . S
O27 C8 1.247 . S
C28 O25 1.244 . S
C28 O26 1.240 1_655 S
H29 C3 0.931 . S
H30 C12 0.931 . S
H31 C16 0.929 . S
H32 C18 0.930 . S
Co33 N37 2.148 . S
Co33 N43 2.128 1_554 S
Co33 N53 2.194 . S
Co33 O58 2.351 . S
Co33 O59 2.155 . S
Co33 O60 2.096 1_554 S
C34 N37 1.301 . S
C34 N38 1.328 . S
C34 H39 0.930 . S
C35 C36 1.333 . S
C35 N37 1.317 . S
C35 H40 0.930 . S
C36 C35 1.333 . S
C36 N38 1.350 . S
C36 H62 0.931 . S
N37 Co33 2.148 . S
N37 C34 1.301 . S
N37 C35 1.317 . S
N38 C34 1.328 . S
N38 C36 1.350 . S
H39 C34 0.930 . S
H40 C35 0.930 . S
C41 O42 1.224 . S
C41 O60 1.247 . S
O42 C41 1.224 . S
N43 Co33 2.128 1_556 S
N43 C44 1.355 . S
N43 C46 1.311 . S
C44 N43 1.355 . S
C44 C45 1.363 . S
C44 H56 0.929 . S
C45 C44 1.363 . S
C45 N47 1.375 . S
C45 H63 0.931 . S
C46 N43 1.311 . S
C46 N47 1.347 . S
C46 H57 0.929 . S
N47 C45 1.375 . S
N47 C46 1.347 . S
C48 C51 1.365 . S
C48 N53 1.328 . S
C48 H54 0.929 . S
C49 C50 1.362 1_556 S
C49 C52 1.377 1_556 S
C49 H64 0.929 . S
C50 C49 1.362 1_554 S
C50 C51 1.366 . S
C51 C48 1.365 . S
C51 C50 1.366 . S
C51 H65 0.930 . S
C52 C49 1.377 1_554 S
C52 N53 1.319 . S
C52 H55 0.927 1_554 S
N53 Co33 2.194 . S
N53 C48 1.328 . S
N53 C52 1.319 . S
H54 C48 0.929 . S
H55 C52 0.927 1_556 S
H56 C44 0.929 . S
H57 C46 0.929 . S
O58 Co33 2.351 . S
O58 C61 1.244 . S
O59 Co33 2.155 . S
O59 C61 1.240 . S
O60 Co33 2.096 1_556 S
O60 C41 1.247 . S
C61 O58 1.244 . S
C61 O59 1.240 . S
H62 C36 0.931 . S
H63 C45 0.931 . S
H64 C49 0.929 . S
H65 C51 0.930 . S
Co66 N70 2.148 1_554 S
Co66 N76 2.128 . S
Co66 N86 2.194 . S
Co66 O91 2.351 1_554 S
Co66 O92 2.155 . S
Co66 O93 2.096 . S
C67 N70 1.301 . S
C67 N71 1.328 . S
C67 H72 0.930 . S
C68 C69 1.333 . S
C68 N70 1.317 . S
C68 H73 0.930 . S
C69 C68 1.333 . S
C69 N71 1.350 . S
C69 H95 0.931 . S
N70 Co66 2.148 1_556 S
N70 C67 1.301 . S
N70 C68 1.317 . S
N71 C67 1.328 . S
N71 C69 1.350 . S
H72 C67 0.930 . S
H73 C68 0.930 . S
C74 O75 1.224 . S
C74 O93 1.247 . S
O75 C74 1.224 . S
N76 Co66 2.128 . S
N76 C77 1.355 . S
N76 C79 1.311 . S
C77 N76 1.355 . S
C77 C78 1.363 . S
C77 H89 0.929 . S
C78 C77 1.363 . S
C78 N80 1.375 . S
C78 H96 0.931 . S
C79 N76 1.311 . S
C79 N80 1.347 . S
C79 H90 0.929 . S
N80 C78 1.375 . S
N80 C79 1.347 . S
C81 C84 1.365 . S
C81 N86 1.328 . S
C81 H87 0.929 1_554 S
C82 C83 1.362 . S
C82 C85 1.378 . S
C82 H97 0.929 . S
C83 C82 1.362 . S
C83 C84 1.366 . S
C84 C81 1.365 . S
C84 C83 1.366 . S
C84 H98 0.930 1_554 S
C85 C82 1.378 . S
C85 N86 1.315 . S
C85 H88 0.930 . S
N86 Co66 2.194 . S
N86 C81 1.328 . S
N86 C85 1.315 . S
H87 C81 0.929 1_556 S
H88 C85 0.930 . S
H89 C77 0.929 . S
H90 C79 0.929 . S
O91 Co66 2.351 1_556 S
O91 C94 1.245 . S
O92 Co66 2.155 . S
O92 C94 1.236 1_554 S
O93 Co66 2.096 . S
O93 C74 1.247 . S
C94 O91 1.245 . S
C94 O92 1.236 1_556 S
H95 C69 0.931 . S
H96 C78 0.931 . S
H97 C82 0.929 . S
H98 C84 0.930 1_556 S
Co99 N103 2.148 . S
Co99 N109 2.128 1_554 S
Co99 N119 2.194 . S
Co99 O124 2.351 . S
Co99 O125 2.155 . S
Co99 O126 2.096 1_554 S
C100 N103 1.301 . S
C100 N104 1.328 . S
C100 H105 0.930 . S
C101 C102 1.333 . S
C101 N103 1.317 . S
C101 H106 0.930 . S
C102 C101 1.333 . S
C102 N104 1.350 . S
C102 H128 0.931 1_455 S
N103 Co99 2.148 . S
N103 C100 1.301 . S
N103 C101 1.317 . S
N104 C100 1.328 . S
N104 C102 1.350 . S
H105 C100 0.930 . S
H106 C101 0.930 . S
C107 O108 1.224 . S
C107 O126 1.247 . S
O108 C107 1.224 . S
N109 Co99 2.128 1_556 S
N109 C110 1.355 . S
N109 C112 1.311 . S
C110 N109 1.355 . S
C110 C111 1.363 . S
C110 H122 0.929 . S
C111 C110 1.363 . S
C111 N113 1.375 . S
C111 H129 0.931 . S
C112 N109 1.311 . S
C112 N113 1.347 . S
C112 H123 0.929 . S
N113 C111 1.375 . S
N113 C112 1.347 . S
C114 C117 1.365 . S
C114 N119 1.328 . S
C114 H120 0.929 . S
C115 C116 1.362 1_556 S
C115 C118 1.378 . S
C115 H130 0.929 . S
C116 C115 1.362 1_554 S
C116 C117 1.366 . S
C117 C114 1.365 . S
C117 C116 1.366 . S
C117 H131 0.930 . S
C118 C115 1.378 . S
C118 N119 1.315 1_556 S
C118 H121 0.930 . S
N119 Co99 2.194 . S
N119 C114 1.328 . S
N119 C118 1.315 1_554 S
H120 C114 0.929 . S
H121 C118 0.930 . S
H122 C110 0.929 . S
H123 C112 0.929 . S
O124 Co99 2.351 . S
O124 C127 1.244 . S
O125 Co99 2.155 . S
O125 C127 1.240 . S
O126 Co99 2.096 1_556 S
O126 C107 1.247 . S
C127 O124 1.244 . S
C127 O125 1.240 . S
H128 C102 0.931 1_655 S
H129 C111 0.931 . S
H130 C115 0.929 . S
H131 C117 0.930 . S
Co132 N136 2.148 1_554 S
Co132 N142 2.128 . S
Co132 N152 2.194 . S
Co132 O157 2.351 1_554 S
Co132 O158 2.155 . S
Co132 O159 2.096 . S
C133 N136 1.301 . S
C133 N137 1.328 . S
C133 H138 0.930 . S
C134 C135 1.333 . S
C134 N136 1.317 . S
C134 H139 0.930 . S
C135 C134 1.333 . S
C135 N137 1.350 . S
C135 H161 0.931 . S
N136 Co132 2.148 1_556 S
N136 C133 1.301 . S
N136 C134 1.317 . S
N137 C133 1.328 . S
N137 C135 1.350 . S
H138 C133 0.930 . S
H139 C134 0.930 . S
C140 O141 1.224 . S
C140 O159 1.247 . S
O141 C140 1.224 . S
N142 Co132 2.128 . S
N142 C143 1.355 . S
N142 C145 1.311 . S
C143 N142 1.355 . S
C143 C144 1.363 . S
C143 H155 0.929 . S
C144 C143 1.363 . S
C144 N146 1.375 . S
C144 H162 0.931 . S
C145 N142 1.311 . S
C145 N146 1.347 . S
C145 H156 0.929 . S
N146 C144 1.375 . S
N146 C145 1.347 . S
C147 C150 1.365 . S
C147 N152 1.328 1_556 S
C147 H153 0.929 . S
C148 C149 1.362 . S
C148 C151 1.378 . S
C148 H163 0.929 . S
C149 C148 1.362 . S
C149 C150 1.366 1_554 S
C150 C147 1.365 . S
C150 C149 1.366 1_556 S
C150 H164 0.930 . S
C151 C148 1.378 . S
C151 N152 1.315 . S
C151 H154 0.930 . S
N152 Co132 2.194 . S
N152 C147 1.328 1_554 S
N152 C151 1.315 . S
H153 C147 0.929 . S
H154 C151 0.930 . S
H155 C143 0.929 . S
H156 C145 0.929 . S
O157 Co132 2.351 1_556 S
O157 C160 1.244 . S
O158 Co132 2.155 . S
O158 C160 1.240 1_554 S
O159 Co132 2.096 . S
O159 C140 1.247 . S
C160 O157 1.244 . S
C160 O158 1.240 1_556 S
H161 C135 0.931 . S
H162 C144 0.931 . S
H163 C148 0.929 . S
H164 C150 0.930 . S
Co165 N169 2.148 . S
Co165 N175 2.128 1_554 S
Co165 N185 2.194 . S
Co165 O190 2.351 . S
Co165 O191 2.155 . S
Co165 O192 2.096 1_554 S
C166 N169 1.301 . S
C166 N170 1.328 . S
C166 H171 0.930 . S
C167 C168 1.333 . S
C167 N169 1.317 . S
C167 H172 0.930 . S
C168 C167 1.333 . S
C168 N170 1.350 . S
C168 H194 0.931 . S
N169 Co165 2.148 . S
N169 C166 1.301 . S
N169 C167 1.317 . S
N170 C166 1.328 . S
N170 C168 1.350 . S
H171 C166 0.930 . S
H172 C167 0.930 . S
C173 O174 1.224 . S
C173 O192 1.247 . S
O174 C173 1.224 . S
N175 Co165 2.128 1_556 S
N175 C176 1.355 . S
N175 C178 1.311 . S
C176 N175 1.355 . S
C176 C177 1.363 . S
C176 H188 0.929 . S
C177 C176 1.363 . S
C177 N179 1.375 . S
C177 H195 0.931 . S
C178 N175 1.311 . S
C178 N179 1.347 . S
C178 H189 0.929 . S
N179 C177 1.375 . S
N179 C178 1.347 . S
C180 C183 1.365 . S
C180 N185 1.328 . S
C180 H186 0.929 . S
C181 C182 1.362 . S
C181 C184 1.378 . S
C181 H196 0.929 1_554 S
C182 C181 1.362 . S
C182 C183 1.366 . S
C183 C180 1.365 . S
C183 C182 1.366 . S
C183 H197 0.930 . S
C184 C181 1.378 . S
C184 N185 1.315 . S
C184 H187 0.930 1_554 S
N185 Co165 2.194 . S
N185 C180 1.328 . S
N185 C184 1.315 . S
H186 C180 0.929 . S
H187 C184 0.930 1_556 S
H188 C176 0.929 . S
H189 C178 0.929 . S
O190 Co165 2.351 . S
O190 C193 1.244 . S
O191 Co165 2.155 . S
O191 C193 1.240 . S
O192 Co165 2.096 1_556 S
O192 C173 1.247 . S
C193 O190 1.244 . S
C193 O191 1.240 . S
H194 C168 0.931 . S
H195 C177 0.931 . S
H196 C181 0.929 1_556 S
H197 C183 0.930 . S
Co198 N202 2.148 . S
Co198 N208 2.128 . S
Co198 N218 2.194 . S
Co198 O223 2.351 . S
Co198 O224 2.155 . S
Co198 O225 2.096 . S
C199 N202 1.301 . S
C199 N203 1.328 . S
C199 H204 0.930 . S
C200 C201 1.333 . S
C200 N202 1.317 . S
C200 H205 0.930 . S
C201 C200 1.333 . S
C201 N203 1.350 . S
C201 H227 0.931 . S
N202 Co198 2.148 . S
N202 C199 1.301 . S
N202 C200 1.317 . S
N203 C199 1.328 . S
N203 C201 1.350 . S
H204 C199 0.930 . S
H205 C200 0.930 . S
C206 O207 1.224 . S
C206 O225 1.247 . S
O207 C206 1.224 . S
N208 Co198 2.128 . S
N208 C209 1.355 . S
N208 C211 1.311 . S
C209 N208 1.355 . S
C209 C210 1.363 . S
C209 H221 0.929 . S
C210 C209 1.363 . S
C210 N212 1.375 . S
C210 H228 0.931 . S
C211 N208 1.311 . S
C211 N212 1.347 . S
C211 H222 0.929 . S
N212 C210 1.375 . S
N212 C211 1.347 . S
C213 C216 1.365 . S
C213 N218 1.328 . S
C213 H219 0.929 . S
C214 C215 1.362 . S
C214 C217 1.378 . S
C214 H229 0.929 . S
C215 C214 1.362 . S
C215 C216 1.366 . S
C216 C213 1.365 . S
C216 C215 1.366 . S
C216 H230 0.930 . S
C217 C214 1.378 . S
C217 N218 1.315 . S
C217 H220 0.930 . S
N218 Co198 2.194 . S
N218 C213 1.328 . S
N218 C217 1.315 . S
H219 C213 0.929 . S
H220 C217 0.930 . S
H221 C209 0.929 . S
H222 C211 0.929 . S
O223 Co198 2.351 . S
O223 C226 1.244 . S
O224 Co198 2.155 . S
O224 C226 1.240 . S
O225 Co198 2.096 . S
O225 C206 1.247 . S
C226 O223 1.244 . S
C226 O224 1.240 . S
H227 C201 0.931 . S
H228 C210 0.931 . S
H229 C214 0.929 . S
H230 C216 0.930 . S
Co231 N235 2.149 . S
Co231 N241 2.128 . S
Co231 N251 2.194 1_545 S
Co231 O256 2.351 . S
Co231 O257 2.155 . S
Co231 O258 2.096 . S
C232 N235 1.302 1_565 S
C232 N236 1.328 . S
C232 H237 0.930 . S
C233 C234 1.332 1_545 S
C233 N235 1.315 . S
C233 H238 0.930 . S
C234 C233 1.332 1_565 S
C234 N236 1.347 . S
C234 H260 0.963 1_565 S
N235 Co231 2.149 . S
N235 C232 1.302 1_545 S
N235 C233 1.315 . S
N236 C232 1.328 . S
N236 C234 1.347 . S
H237 C232 0.930 . S
H238 C233 0.930 . S
C239 O240 1.224 1_545 S
C239 O258 1.247 . S
O240 C239 1.224 1_565 S
N241 Co231 2.128 . S
N241 C242 1.355 1_545 S
N241 C244 1.311 . S
C242 N241 1.355 1_565 S
C242 C243 1.363 . S
C242 H254 0.929 . S
C243 C242 1.363 . S
C243 N245 1.375 1_565 S
C243 H261 0.931 . S
C244 N241 1.311 . S
C244 N245 1.347 . S
C244 H255 0.929 . S
N245 C243 1.375 1_545 S
N245 C244 1.347 . S
C246 C249 1.365 . S
C246 N251 1.328 . S
C246 H252 0.929 . S
C247 C248 1.362 . S
C247 C250 1.378 . S
C247 H262 0.929 . S
C248 C247 1.362 . S
C248 C249 1.366 . S
C249 C246 1.365 . S
C249 C248 1.366 . S
C249 H263 0.930 . S
C250 C247 1.378 . S
C250 N251 1.315 . S
C250 H253 0.930 . S
N251 Co231 2.194 1_565 S
N251 C246 1.328 . S
N251 C250 1.315 . S
H252 C246 0.929 . S
H253 C250 0.930 . S
H254 C242 0.929 . S
H255 C244 0.929 . S
O256 Co231 2.351 . S
O256 C259 1.244 . S
O257 Co231 2.155 . S
O257 C259 1.240 . S
O258 Co231 2.096 . S
O258 C239 1.247 . S
C259 O256 1.244 . S
C259 O257 1.240 . S
H260 C234 0.963 1_545 S
H261 C243 0.931 . S
H262 C247 0.929 . S
H263 C249 0.930 . S
Co264 N268 2.148 . S
Co264 N274 2.128 . S
Co264 N284 2.194 . S
Co264 O289 2.351 . S
Co264 O290 2.155 . S
Co264 O291 2.096 . S
C265 N268 1.301 . S
C265 N269 1.328 . S
C265 H270 0.930 . S
C266 C267 1.333 . S
C266 N268 1.317 . S
C266 H271 0.930 . S
C267 C266 1.333 . S
C267 N269 1.350 . S
C267 H293 0.931 . S
N268 Co264 2.148 . S
N268 C265 1.301 . S
N268 C266 1.317 . S
N269 C265 1.328 . S
N269 C267 1.350 . S
H270 C265 0.930 . S
H271 C266 0.930 . S
C272 O273 1.224 . S
C272 O291 1.247 . S
O273 C272 1.224 . S
N274 Co264 2.128 . S
N274 C275 1.355 . S
N274 C277 1.311 . S
C275 N274 1.355 . S
C275 C276 1.363 . S
C275 H287 0.929 . S
C276 C275 1.363 . S
C276 N278 1.375 . S
C276 H294 0.931 . S
C277 N274 1.311 . S
C277 N278 1.347 . S
C277 H288 0.929 . S
N278 C276 1.375 . S
N278 C277 1.347 . S
C279 C282 1.365 . S
C279 N284 1.328 . S
C279 H285 0.929 . S
C280 C281 1.362 . S
C280 C283 1.378 . S
C280 H295 0.929 . S
C281 C280 1.362 . S
C281 C282 1.366 . S
C282 C279 1.365 . S
C282 C281 1.366 . S
C282 H296 0.930 . S
C283 C280 1.378 . S
C283 N284 1.315 . S
C283 H286 0.930 . S
N284 Co264 2.194 . S
N284 C279 1.328 . S
N284 C283 1.315 . S
H285 C279 0.929 . S
H286 C283 0.930 . S
H287 C275 0.929 . S
H288 C277 0.929 . S
O289 Co264 2.351 . S
O289 C292 1.244 . S
O290 Co264 2.155 . S
O290 C292 1.240 . S
O291 Co264 2.096 . S
O291 C272 1.247 . S
C292 O289 1.244 . S
C292 O290 1.240 . S
H293 C267 0.931 . S
H294 C276 0.931 . S
H295 C280 0.929 . S
H296 C282 0.930 . S
Co297 N301 2.148 . S
Co297 N307 2.128 . S
Co297 N317 2.194 . S
Co297 O322 2.351 1_565 S
Co297 O323 2.155 1_565 S
Co297 O324 2.096 . S
C298 N301 1.301 . S
C298 N302 1.328 . S
C298 H303 0.930 . S
C299 C300 1.333 . S
C299 N301 1.317 . S
C299 H304 0.930 . S
C300 C299 1.333 . S
C300 N302 1.350 . S
C300 H326 0.931 . S
N301 Co297 2.148 . S
N301 C298 1.301 . S
N301 C299 1.317 . S
N302 C298 1.328 . S
N302 C300 1.350 . S
H303 C298 0.930 . S
H304 C299 0.930 . S
C305 O306 1.224 . S
C305 O324 1.247 . S
O306 C305 1.224 . S
N307 Co297 2.128 . S
N307 C308 1.355 . S
N307 C310 1.311 . S
C308 N307 1.355 . S
C308 C309 1.363 . S
C308 H320 0.929 . S
C309 C308 1.363 . S
C309 N311 1.375 . S
C309 H327 0.931 . S
C310 N307 1.311 . S
C310 N311 1.347 . S
C310 H321 0.892 1_565 S
N311 C309 1.375 . S
N311 C310 1.347 . S
C312 C315 1.365 . S
C312 N317 1.328 . S
C312 H318 0.929 . S
C313 C314 1.362 . S
C313 C316 1.378 . S
C313 H328 0.929 . S
C314 C313 1.362 . S
C314 C315 1.366 . S
C315 C312 1.365 . S
C315 C314 1.366 . S
C315 H329 0.930 . S
C316 C313 1.378 . S
C316 N317 1.315 . S
C316 H319 0.930 . S
N317 Co297 2.194 . S
N317 C312 1.328 . S
N317 C316 1.315 . S
H318 C312 0.929 . S
H319 C316 0.930 . S
H320 C308 0.929 . S
H321 C310 0.892 1_545 S
O322 Co297 2.351 1_545 S
O322 C325 1.244 . S
O323 Co297 2.155 1_545 S
O323 C325 1.240 . S
O324 Co297 2.096 . S
O324 C305 1.247 . S
C325 O322 1.244 . S
C325 O323 1.240 . S
H326 C300 0.931 . S
H327 C309 0.931 . S
H328 C313 0.929 . S
H329 C315 0.930 . S
Co330 N334 2.148 . S
Co330 N340 2.128 . S
Co330 N350 2.194 . S
Co330 O355 2.351 . S
Co330 O356 2.155 . S
Co330 O357 2.096 . S
C331 N334 1.301 . S
C331 N335 1.328 . S
C331 H336 0.930 . S
C332 C333 1.333 . S
C332 N334 1.317 . S
C332 H337 0.930 . S
C333 C332 1.333 . S
C333 N335 1.350 . S
C333 H359 0.931 . S
N334 Co330 2.148 . S
N334 C331 1.301 . S
N334 C332 1.317 . S
N335 C331 1.328 . S
N335 C333 1.350 . S
H336 C331 0.930 . S
H337 C332 0.930 . S
C338 O339 1.224 . S
C338 O357 1.247 . S
O339 C338 1.224 . S
N340 Co330 2.128 . S
N340 C341 1.355 . S
N340 C343 1.311 . S
C341 N340 1.355 . S
C341 C342 1.363 . S
C341 H353 0.929 . S
C342 C341 1.363 . S
C342 N344 1.375 . S
C342 H360 0.931 . S
C343 N340 1.311 . S
C343 N344 1.347 . S
C343 H354 0.929 . S
N344 C342 1.375 . S
N344 C343 1.347 . S
C345 C348 1.365 . S
C345 N350 1.328 . S
C345 H351 0.929 . S
C346 C347 1.362 . S
C346 C349 1.378 . S
C346 H361 0.929 . S
C347 C346 1.362 . S
C347 C348 1.366 . S
C348 C345 1.365 . S
C348 C347 1.366 . S
C348 H362 0.930 . S
C349 C346 1.378 . S
C349 N350 1.315 . S
C349 H352 0.930 . S
N350 Co330 2.194 . S
N350 C345 1.328 . S
N350 C349 1.315 . S
H351 C345 0.929 . S
H352 C349 0.930 . S
H353 C341 0.929 . S
H354 C343 0.929 . S
O355 Co330 2.351 . S
O355 C358 1.244 . S
O356 Co330 2.155 . S
O356 C358 1.240 . S
O357 Co330 2.096 . S
O357 C338 1.247 . S
C358 O355 1.244 . S
C358 O356 1.240 . S
H359 C333 0.931 . S
H360 C342 0.931 . S
H361 C346 0.929 . S
H362 C348 0.930 . S
Co363 N367 2.148 . S
Co363 N373 2.128 . S
Co363 N383 2.194 . S
Co363 O388 2.351 . S
Co363 O389 2.155 . S
Co363 O390 2.096 . S
C364 N367 1.301 . S
C364 N368 1.328 . S
C364 H369 0.930 . S
C365 C366 1.333 . S
C365 N367 1.317 . S
C365 H370 0.930 . S
C366 C365 1.333 . S
C366 N368 1.350 . S
C366 H392 0.931 . S
N367 Co363 2.148 . S
N367 C364 1.301 . S
N367 C365 1.317 . S
N368 C364 1.328 . S
N368 C366 1.350 . S
H369 C364 0.930 . S
H370 C365 0.930 . S
C371 O372 1.224 . S
C371 O390 1.247 . S
O372 C371 1.224 . S
N373 Co363 2.128 . S
N373 C374 1.355 . S
N373 C376 1.311 . S
C374 N373 1.355 . S
C374 C375 1.363 . S
C374 H386 0.929 . S
C375 C374 1.363 . S
C375 N377 1.375 . S
C375 H393 0.931 . S
C376 N373 1.311 . S
C376 N377 1.347 . S
C376 H387 0.929 . S
N377 C375 1.375 . S
N377 C376 1.347 . S
C378 C381 1.365 . S
C378 N383 1.328 . S
C378 H384 0.929 . S
C379 C380 1.362 . S
C379 C382 1.378 . S
C379 H394 0.929 . S
C380 C379 1.362 . S
C380 C381 1.366 . S
C381 C378 1.365 . S
C381 C380 1.366 . S
C381 H395 0.930 . S
C382 C379 1.378 . S
C382 N383 1.315 . S
C382 H385 0.930 . S
N383 Co363 2.194 . S
N383 C378 1.328 . S
N383 C382 1.315 . S
H384 C378 0.929 . S
H385 C382 0.930 . S
H386 C374 0.929 . S
H387 C376 0.929 . S
O388 Co363 2.351 . S
O388 C391 1.244 . S
O389 Co363 2.155 . S
O389 C391 1.240 . S
O390 Co363 2.096 . S
O390 C371 1.247 . S
C391 O388 1.244 . S
C391 O389 1.240 . S
H392 C366 0.931 . S
H393 C375 0.931 . S
H394 C379 0.929 . S
H395 C381 0.930 . S
Co396 N400 2.148 . S
Co396 N406 2.128 . S
Co396 N416 2.194 . S
Co396 O421 2.351 . S
Co396 O422 2.155 . S
Co396 O423 2.096 . S
C397 N400 1.301 . S
C397 N401 1.328 . S
C397 H402 0.930 . S
C398 C399 1.333 . S
C398 N400 1.317 . S
C398 H403 0.930 . S
C399 C398 1.333 . S
C399 N401 1.350 . S
C399 H425 0.931 . S
N400 Co396 2.148 . S
N400 C397 1.301 . S
N400 C398 1.317 . S
N401 C397 1.328 . S
N401 C399 1.350 . S
H402 C397 0.930 . S
H403 C398 0.930 . S
C404 O405 1.224 . S
C404 O423 1.247 . S
O405 C404 1.224 . S
N406 Co396 2.128 . S
N406 C407 1.355 . S
N406 C409 1.311 . S
C407 N406 1.355 . S
C407 C408 1.363 . S
C407 H419 0.929 . S
C408 C407 1.363 . S
C408 N410 1.375 1_556 S
C408 H426 0.931 1_556 S
C409 N406 1.311 . S
C409 N410 1.347 1_556 S
C409 H420 0.929 . S
N410 C408 1.375 1_554 S
N410 C409 1.347 1_554 S
C411 C414 1.365 . S
C411 N416 1.328 . S
C411 H417 0.929 . S
C412 C413 1.362 . S
C412 C415 1.378 . S
C412 H427 0.929 . S
C413 C412 1.362 . S
C413 C414 1.366 . S
C414 C411 1.365 . S
C414 C413 1.366 . S
C414 H428 0.930 . S
C415 C412 1.378 . S
C415 N416 1.315 . S
C415 H418 0.930 . S
N416 Co396 2.194 . S
N416 C411 1.328 . S
N416 C415 1.315 . S
H417 C411 0.929 . S
H418 C415 0.930 . S
H419 C407 0.929 . S
H420 C409 0.929 . S
O421 Co396 2.351 . S
O421 C424 1.244 . S
O422 Co396 2.155 . S
O422 C424 1.240 . S
O423 Co396 2.096 . S
O423 C404 1.247 . S
C424 O421 1.244 . S
C424 O422 1.240 . S
H425 C399 0.931 . S
H426 C408 0.931 1_554 S
H427 C412 0.929 . S
H428 C414 0.930 . S
Co429 N433 2.148 . S
Co429 N439 2.128 . S
Co429 N449 2.194 . S
Co429 O454 2.351 . S
Co429 O455 2.155 . S
Co429 O456 2.096 . S
C430 N433 1.301 . S
C430 N434 1.328 . S
C430 H435 0.930 . S
C431 C432 1.333 . S
C431 N433 1.317 . S
C431 H436 0.930 . S
C432 C431 1.333 . S
C432 N434 1.350 . S
C432 H458 0.931 . S
N433 Co429 2.148 . S
N433 C430 1.301 . S
N433 C431 1.317 . S
N434 C430 1.328 . S
N434 C432 1.350 . S
H435 C430 0.930 . S
H436 C431 0.930 . S
C437 O438 1.224 . S
C437 O456 1.247 . S
O438 C437 1.224 . S
N439 Co429 2.128 . S
N439 C440 1.355 . S
N439 C442 1.311 . S
C440 N439 1.355 . S
C440 C441 1.363 . S
C440 H452 0.929 . S
C441 C440 1.363 . S
C441 N443 1.375 . S
C441 H459 0.931 . S
C442 N439 1.311 . S
C442 N443 1.347 . S
C442 H453 0.929 . S
N443 C441 1.375 . S
N443 C442 1.347 . S
C444 C447 1.365 . S
C444 N449 1.328 . S
C444 H450 0.929 . S
C445 C446 1.362 . S
C445 C448 1.378 . S
C445 H460 0.929 . S
C446 C445 1.362 . S
C446 C447 1.366 . S
C447 C444 1.365 . S
C447 C446 1.366 . S
C447 H461 0.930 . S
C448 C445 1.378 . S
C448 N449 1.315 . S
C448 H451 0.930 . S
N449 Co429 2.194 . S
N449 C444 1.328 . S
N449 C448 1.315 . S
H450 C444 0.929 . S
H451 C448 0.930 . S
H452 C440 0.929 . S
H453 C442 0.929 . S
O454 Co429 2.351 . S
O454 C457 1.244 . S
O455 Co429 2.155 . S
O455 C457 1.240 . S
O456 Co429 2.096 . S
O456 C437 1.247 . S
C457 O454 1.244 . S
C457 O455 1.240 . S
H458 C432 0.931 . S
H459 C441 0.931 . S
H460 C445 0.929 . S
H461 C447 0.930 . S
Co462 N466 2.148 . S
Co462 N472 2.128 . S
Co462 N482 2.194 . S
Co462 O487 2.351 . S
Co462 O488 2.155 . S
Co462 O489 2.096 . S
C463 N466 1.301 . S
C463 N467 1.328 . S
C463 H468 0.930 . S
C464 C465 1.333 . S
C464 N466 1.317 . S
C464 H469 0.930 . S
C465 C464 1.333 . S
C465 N467 1.350 . S
C465 H491 0.931 . S
N466 Co462 2.148 . S
N466 C463 1.301 . S
N466 C464 1.317 . S
N467 C463 1.328 . S
N467 C465 1.350 . S
H468 C463 0.930 . S
H469 C464 0.930 . S
C470 O471 1.224 . S
C470 O489 1.247 . S
O471 C470 1.224 . S
N472 Co462 2.128 . S
N472 C473 1.355 . S
N472 C475 1.311 . S
C473 N472 1.355 . S
C473 C474 1.363 . S
C473 H485 0.929 . S
C474 C473 1.363 . S
C474 N476 1.375 . S
C474 H492 0.931 1_556 S
C475 N472 1.311 . S
C475 N476 1.347 . S
C475 H486 0.929 . S
N476 C474 1.375 . S
N476 C475 1.347 . S
C477 C480 1.365 . S
C477 N482 1.328 . S
C477 H483 0.929 . S
C478 C479 1.362 . S
C478 C481 1.378 . S
C478 H493 0.929 . S
C479 C478 1.362 . S
C479 C480 1.366 . S
C480 C477 1.365 . S
C480 C479 1.366 . S
C480 H494 0.930 . S
C481 C478 1.378 . S
C481 N482 1.315 . S
C481 H484 0.930 . S
N482 Co462 2.194 . S
N482 C477 1.328 . S
N482 C481 1.315 . S
H483 C477 0.929 . S
H484 C481 0.930 . S
H485 C473 0.929 . S
H486 C475 0.929 . S
O487 Co462 2.351 . S
O487 C490 1.244 . S
O488 Co462 2.155 . S
O488 C490 1.240 . S
O489 Co462 2.096 . S
O489 C470 1.247 . S
C490 O487 1.244 . S
C490 O488 1.240 . S
H491 C465 0.931 . S
H492 C474 0.931 1_554 S
H493 C478 0.929 . S
H494 C480 0.930 . S
Co495 N499 2.148 . S
Co495 N505 2.128 . S
Co495 N515 2.194 . S
Co495 O520 2.351 . S
Co495 O521 2.155 . S
Co495 O522 2.096 . S
C496 N499 1.301 . S
C496 N500 1.328 1_556 S
C496 H501 0.930 . S
C497 C498 1.333 . S
C497 N499 1.317 . S
C497 H502 0.930 . S
C498 C497 1.333 . S
C498 N500 1.350 1_556 S
C498 H524 0.931 . S
N499 Co495 2.148 . S
N499 C496 1.301 . S
N499 C497 1.317 . S
N500 C496 1.328 1_554 S
N500 C498 1.350 1_554 S
H501 C496 0.930 . S
H502 C497 0.930 . S
C503 O504 1.224 . S
C503 O522 1.247 . S
O504 C503 1.224 . S
N505 Co495 2.128 . S
N505 C506 1.355 . S
N505 C508 1.311 . S
C506 N505 1.355 . S
C506 C507 1.363 . S
C506 H518 0.929 . S
C507 C506 1.363 . S
C507 N509 1.375 . S
C507 H525 0.931 . S
C508 N505 1.311 . S
C508 N509 1.347 . S
C508 H519 0.929 . S
N509 C507 1.375 . S
N509 C508 1.347 . S
C510 C513 1.365 . S
C510 N515 1.328 . S
C510 H516 0.929 . S
C511 C512 1.362 . S
C511 C514 1.378 . S
C511 H526 0.929 . S
C512 C511 1.362 . S
C512 C513 1.366 . S
C513 C510 1.365 . S
C513 C512 1.366 . S
C513 H527 0.930 . S
C514 C511 1.378 . S
C514 N515 1.315 . S
C514 H517 0.930 . S
N515 Co495 2.194 . S
N515 C510 1.328 . S
N515 C514 1.315 . S
H516 C510 0.929 . S
H517 C514 0.930 . S
H518 C506 0.929 . S
H519 C508 0.929 . S
O520 Co495 2.351 . S
O520 C523 1.244 . S
O521 Co495 2.155 . S
O521 C523 1.240 . S
O522 Co495 2.096 . S
O522 C503 1.247 . S
C523 O520 1.244 . S
C523 O521 1.240 . S
H524 C498 0.931 . S
H525 C507 0.931 . S
H526 C511 0.929 . S
H527 C513 0.930 . S
Co528 N532 2.148 . S
Co528 N538 2.128 . S
Co528 N548 2.194 . S
Co528 O553 2.351 . S
Co528 O554 2.155 . S
Co528 O555 2.096 . S
C529 N532 1.301 . S
C529 N533 1.328 . S
C529 H534 0.930 . S
C530 C531 1.333 . S
C530 N532 1.317 . S
C530 H535 0.930 . S
C531 C530 1.333 . S
C531 N533 1.350 . S
C531 H557 0.931 . S
N532 Co528 2.148 . S
N532 C529 1.301 . S
N532 C530 1.317 . S
N533 C529 1.328 . S
N533 C531 1.350 . S
H534 C529 0.930 . S
H535 C530 0.930 . S
C536 O537 1.224 . S
C536 O555 1.247 . S
O537 C536 1.224 . S
N538 Co528 2.128 . S
N538 C539 1.355 . S
N538 C541 1.311 . S
C539 N538 1.355 . S
C539 C540 1.363 . S
C539 H551 0.929 . S
C540 C539 1.363 . S
C540 N542 1.375 1_556 S
C540 H558 0.931 1_556 S
C541 N538 1.311 . S
C541 N542 1.347 1_556 S
C541 H552 0.929 . S
N542 C540 1.375 1_554 S
N542 C541 1.347 1_554 S
C543 C546 1.365 . S
C543 N548 1.328 . S
C543 H549 0.929 . S
C544 C545 1.362 . S
C544 C547 1.378 . S
C544 H559 0.929 . S
C545 C544 1.362 . S
C545 C546 1.366 . S
C546 C543 1.365 . S
C546 C545 1.366 . S
C546 H560 0.930 . S
C547 C544 1.378 . S
C547 N548 1.315 . S
C547 H550 0.930 . S
N548 Co528 2.194 . S
N548 C543 1.328 . S
N548 C547 1.315 . S
H549 C543 0.929 . S
H550 C547 0.930 . S
H551 C539 0.929 . S
H552 C541 0.929 . S
O553 Co528 2.351 . S
O553 C556 1.244 . S
O554 Co528 2.155 . S
O554 C556 1.240 . S
O555 Co528 2.096 . S
O555 C536 1.247 . S
C556 O553 1.244 . S
C556 O554 1.240 . S
H557 C531 0.931 . S
H558 C540 0.931 1_554 S
H559 C544 0.929 . S
H560 C546 0.930 . S
Co561 N565 2.148 . S
Co561 N571 2.128 . S
Co561 N581 2.194 . S
Co561 O586 2.351 . S
Co561 O587 2.155 . S
Co561 O588 2.096 . S
C562 N565 1.301 . S
C562 N566 1.328 . S
C562 H567 0.930 . S
C563 C564 1.333 . S
C563 N565 1.317 . S
C563 H568 0.923 1_655 S
C564 C563 1.333 . S
C564 N566 1.350 . S
C564 H590 0.931 1_655 S
N565 Co561 2.148 . S
N565 C562 1.301 . S
N565 C563 1.317 . S
N566 C562 1.328 . S
N566 C564 1.350 . S
H567 C562 0.930 . S
H568 C563 0.923 1_455 S
C569 O570 1.224 . S
C569 O588 1.247 . S
O570 C569 1.224 . S
N571 Co561 2.128 . S
N571 C572 1.355 . S
N571 C574 1.311 . S
C572 N571 1.355 . S
C572 C573 1.363 . S
C572 H584 0.929 . S
C573 C572 1.363 . S
C573 N575 1.375 . S
C573 H591 0.931 . S
C574 N571 1.311 . S
C574 N575 1.347 . S
C574 H585 0.929 . S
N575 C573 1.375 . S
N575 C574 1.347 . S
C576 C579 1.365 . S
C576 N581 1.328 . S
C576 H582 0.929 . S
C577 C578 1.362 . S
C577 C580 1.378 . S
C577 H592 0.929 . S
C578 C577 1.362 . S
C578 C579 1.366 . S
C579 C576 1.365 . S
C579 C578 1.366 . S
C579 H593 0.930 . S
C580 C577 1.378 . S
C580 N581 1.315 . S
C580 H583 0.930 . S
N581 Co561 2.194 . S
N581 C576 1.328 . S
N581 C580 1.315 . S
H582 C576 0.929 . S
H583 C580 0.930 . S
H584 C572 0.929 . S
H585 C574 0.929 . S
O586 Co561 2.351 . S
O586 C589 1.244 . S
O587 Co561 2.155 . S
O587 C589 1.240 . S
O588 Co561 2.096 . S
O588 C569 1.247 . S
C589 O586 1.244 . S
C589 O587 1.240 . S
H590 C564 0.931 1_455 S
H591 C573 0.931 . S
H592 C577 0.929 . S
H593 C579 0.930 . S
C594 C595 1.387 . S
C594 H598 0.950 . S
C594 C603 1.390 . S
C595 C594 1.387 . S
C595 C597 1.387 . S
H596 C603 0.950 . S
C597 C595 1.387 . S
C597 C599 1.390 . S
C597 H601 0.950 . S
H598 C594 0.950 . S
C599 C597 1.390 . S
C599 C600 1.387 . S
C599 H602 0.950 . S
C600 C599 1.387 . S
C600 C603 1.387 . S
H601 C597 0.950 . S
H602 C599 0.950 . S
C603 C594 1.390 . S
C603 H596 0.950 . S
C603 C600 1.387 . S
C604 C605 1.387 . S
C604 H608 0.950 . S
C604 C613 1.390 . S
C605 C604 1.387 . S
C605 C607 1.387 . S
H606 C613 0.950 . S
C607 C605 1.387 . S
C607 C609 1.390 . S
C607 H611 0.950 . S
H608 C604 0.950 . S
C609 C607 1.390 . S
C609 C610 1.387 . S
C609 H612 0.950 . S
C610 C609 1.387 . S
C610 C613 1.387 . S
H611 C607 0.950 . S
H612 C609 0.950 . S
C613 C604 1.390 . S
C613 H606 0.950 . S
C613 C610 1.387 . S
C614 C615 1.387 . S
C614 H618 0.950 . S
C614 C623 1.390 . S
C615 C614 1.387 . S
C615 C617 1.387 . S
H616 C623 0.950 . S
C617 C615 1.387 . S
C617 C619 1.390 . S
C617 H621 0.950 . S
H618 C614 0.950 . S
C619 C617 1.390 . S
C619 C620 1.387 . S
C619 H622 0.950 . S
C620 C619 1.387 . S
C620 C623 1.387 . S
H621 C617 0.950 . S
H622 C619 0.950 . S
C623 C614 1.390 . S
C623 H616 0.950 . S
C623 C620 1.387 . S
C624 C625 1.387 . S
C624 H628 0.950 . S
C624 C633 1.390 . S
C625 C624 1.387 . S
C625 C627 1.387 . S
H626 C633 0.950 . S
C627 C625 1.387 . S
C627 C629 1.390 . S
C627 H631 0.950 . S
H628 C624 0.950 . S
C629 C627 1.390 . S
C629 C630 1.387 . S
C629 H632 0.950 . S
C630 C629 1.387 . S
C630 C633 1.387 . S
H631 C627 0.950 . S
H632 C629 0.950 . S
C633 C624 1.390 . S
C633 H626 0.950 . S
C633 C630 1.387 . S
C634 C635 1.387 . S
C634 H638 0.950 . S
C634 C643 1.390 . S
C635 C634 1.387 . S
C635 C637 1.387 . S
H636 C643 0.950 . S
C637 C635 1.387 . S
C637 C639 1.390 . S
C637 H641 0.950 . S
H638 C634 0.950 . S
C639 C637 1.390 . S
C639 C640 1.387 . S
C639 H642 0.950 . S
C640 C639 1.387 . S
C640 C643 1.387 . S
H641 C637 0.950 . S
H642 C639 0.950 . S
C643 C634 1.390 . S
C643 H636 0.950 . S
C643 C640 1.387 . S
C644 C645 1.387 . S
C644 H648 0.950 . S
C644 C653 1.390 . S
C645 C644 1.387 . S
C645 C647 1.387 . S
H646 C653 0.950 . S
C647 C645 1.387 . S
C647 C649 1.390 . S
C647 H651 0.950 . S
H648 C644 0.950 . S
C649 C647 1.390 . S
C649 C650 1.387 . S
C649 H652 0.950 . S
C650 C649 1.387 . S
C650 C653 1.387 . S
H651 C647 0.950 . S
H652 C649 0.950 . S
C653 C644 1.390 . S
C653 H646 0.950 . S
C653 C650 1.387 . S
C654 C655 1.387 . S
C654 H658 0.950 . S
C654 C663 1.390 . S
C655 C654 1.387 . S
C655 C657 1.387 . S
H656 C663 0.950 . S
C657 C655 1.387 . S
C657 C659 1.390 . S
C657 H661 0.950 . S
H658 C654 0.950 . S
C659 C657 1.390 . S
C659 C660 1.387 . S
C659 H662 0.950 1_556 S
C660 C659 1.387 . S
C660 C663 1.387 . S
H661 C657 0.950 . S
H662 C659 0.950 1_554 S
C663 C654 1.390 . S
C663 H656 0.950 . S
C663 C660 1.387 . S
C664 C665 1.387 . S
C664 H668 0.950 . S
C664 C673 1.390 . S
C665 C664 1.387 . S
C665 C667 1.387 1_565 S
H666 C673 0.950 . S
C667 C665 1.387 1_545 S
C667 C669 1.390 . S
C667 H671 0.950 . S
H668 C664 0.950 . S
C669 C667 1.390 . S
C669 C670 1.387 . S
C669 H672 0.950 . S
C670 C669 1.387 . S
C670 C673 1.387 1_545 S
H671 C667 0.950 . S
H672 C669 0.950 . S
C673 C664 1.390 . S
C673 H666 0.950 . S
C673 C670 1.387 1_565 S
C674 C675 1.387 . S
C674 H678 0.950 . S
C674 C683 1.390 . S
C675 C674 1.387 . S
C675 C677 1.387 . S
H676 C683 0.950 . S
C677 C675 1.387 . S
C677 C679 1.390 . S
C677 H681 0.950 . S
H678 C674 0.950 . S
C679 C677 1.390 . S
C679 C680 1.387 . S
C679 H682 0.948 1_556 S
C680 C679 1.387 . S
C680 C683 1.387 . S
H681 C677 0.950 . S
H682 C679 0.948 1_554 S
C683 C674 1.390 . S
C683 H676 0.950 . S
C683 C680 1.387 . S
C684 C685 1.387 1_545 S
C684 H688 0.950 . S
C684 C693 1.390 . S
C685 C684 1.387 1_565 S
C685 C687 1.387 . S
H686 C693 0.950 . S
C687 C685 1.387 . S
C687 C689 1.390 . S
C687 H691 0.950 . S
H688 C684 0.950 . S
C689 C687 1.390 . S
C689 C690 1.387 . S
C689 H692 0.950 . S
C690 C689 1.387 . S
C690 C693 1.387 1_565 S
H691 C687 0.950 . S
H692 C689 0.950 . S
C693 C684 1.390 . S
C693 H686 0.950 . S
C693 C690 1.387 1_545 S
C694 C695 1.387 . S
C694 H698 0.950 . S
C694 C703 1.390 . S
C695 C694 1.387 . S
C695 C697 1.387 . S
H696 C703 0.950 . S
C697 C695 1.387 . S
C697 C699 1.390 . S
C697 H701 0.950 . S
H698 C694 0.950 . S
C699 C697 1.390 . S
C699 C700 1.387 . S
C699 H702 0.950 . S
C700 C699 1.387 . S
C700 C703 1.387 . S
H701 C697 0.950 . S
H702 C699 0.950 . S
C703 C694 1.390 . S
C703 H696 0.950 . S
C703 C700 1.387 . S
C704 C705 1.387 . S
C704 H708 0.950 . S
C704 C713 1.390 . S
C705 C704 1.387 . S
C705 C707 1.387 . S
H706 C713 0.950 . S
C707 C705 1.387 . S
C707 C709 1.390 . S
C707 H711 0.950 . S
H708 C704 0.950 . S
C709 C707 1.390 . S
C709 C710 1.387 . S
C709 H712 0.950 . S
C710 C709 1.387 . S
C710 C713 1.387 . S
H711 C707 0.950 . S
H712 C709 0.950 . S
C713 C704 1.390 . S
C713 H706 0.950 . S
C713 C710 1.387 . S
C714 C715 1.387 . S
C714 H718 0.950 . S
C714 C723 1.390 . S
C715 C714 1.387 . S
C715 C717 1.387 . S
H716 C723 0.950 . S
C717 C715 1.387 . S
C717 C719 1.390 . S
C717 H721 0.950 . S
H718 C714 0.950 . S
C719 C717 1.390 . S
C719 C720 1.387 . S
C719 H722 0.950 . S
C720 C719 1.387 . S
C720 C723 1.387 . S
H721 C717 0.950 . S
H722 C719 0.950 . S
C723 C714 1.390 . S
C723 H716 0.950 . S
C723 C720 1.387 . S
C724 C725 1.387 . S
C724 H728 0.950 . S
C724 C733 1.390 . S
C725 C724 1.387 . S
C725 C727 1.387 . S
H726 C733 0.950 . S
C727 C725 1.387 . S
C727 C729 1.390 . S
C727 H731 0.950 . S
H728 C724 0.950 . S
C729 C727 1.390 . S
C729 C730 1.387 . S
C729 H732 0.950 . S
C730 C729 1.387 . S
C730 C733 1.387 . S
H731 C727 0.950 . S
H732 C729 0.950 . S
C733 C724 1.390 . S
C733 H726 0.950 . S
C733 C730 1.387 . S
C734 C735 1.387 . S
C734 H738 0.950 . S
C734 C743 1.390 . S
C735 C734 1.387 . S
C735 C737 1.387 . S
H736 C743 0.950 . S
C737 C735 1.387 . S
C737 C739 1.390 . S
C737 H741 0.950 . S
H738 C734 0.950 . S
C739 C737 1.390 . S
C739 C740 1.387 . S
C739 H742 0.950 . S
C740 C739 1.387 . S
C740 C743 1.387 . S
H741 C737 0.950 . S
H742 C739 0.950 . S
C743 C734 1.390 . S
C743 H736 0.950 . S
C743 C740 1.387 . S
C744 C745 1.387 . S
C744 H748 0.950 . S
C744 C753 1.390 . S
C745 C744 1.387 . S
C745 C747 1.387 . S
H746 C753 0.950 . S
C747 C745 1.387 . S
C747 C749 1.390 . S
C747 H751 0.950 . S
H748 C744 0.950 . S
C749 C747 1.390 . S
C749 C750 1.387 . S
C749 H752 0.950 . S
C750 C749 1.387 . S
C750 C753 1.387 . S
H751 C747 0.950 . S
H752 C749 0.950 . S
C753 C744 1.390 . S
C753 H746 0.950 . S
C753 C750 1.387 . S
C754 C755 1.387 . S
C754 H758 0.950 . S
C754 C763 1.390 . S
C755 C754 1.387 . S
C755 C757 1.387 . S
H756 C763 0.950 . S
C757 C755 1.387 . S
C757 C759 1.390 . S
C757 H761 0.950 . S
H758 C754 0.950 . S
C759 C757 1.390 . S
C759 C760 1.387 . S
C759 H762 0.950 . S
C760 C759 1.387 . S
C760 C763 1.387 . S
H761 C757 0.950 . S
H762 C759 0.950 . S
C763 C754 1.390 . S
C763 H756 0.950 . S
C763 C760 1.387 . S
C764 C765 1.387 . S
C764 H768 0.950 . S
C764 C773 1.390 . S
C765 C764 1.387 . S
C765 C767 1.387 . S
H766 C773 0.950 . S
C767 C765 1.387 . S
C767 C769 1.390 . S
C767 H771 0.950 . S
H768 C764 0.950 . S
C769 C767 1.390 . S
C769 C770 1.387 . S
C769 H772 0.950 . S
C770 C769 1.387 . S
C770 C773 1.387 . S
H771 C767 0.950 . S
H772 C769 0.950 . S
C773 C764 1.390 . S
C773 H766 0.950 . S
C773 C770 1.387 . S
C774 C775 1.387 1_556 S
C774 H778 0.950 . S
C774 C783 1.390 . S
C775 C774 1.387 1_554 S
C775 C777 1.387 . S
H776 C783 0.950 . S
C777 C775 1.387 . S
C777 C779 1.390 . S
C777 H781 0.950 . S
H778 C774 0.950 . S
C779 C777 1.390 . S
C779 C780 1.387 . S
C779 H782 0.950 . S
C780 C779 1.387 . S
C780 C783 1.387 1_554 S
H781 C777 0.950 . S
H782 C779 0.950 . S
C783 C774 1.390 . S
C783 H776 0.950 . S
C783 C780 1.387 1_556 S
C784 C785 1.387 . S
C784 H788 0.950 . S
C784 C793 1.390 . S
C785 C784 1.387 . S
C785 C787 1.387 1_554 S
H786 C793 0.950 . S
C787 C785 1.387 1_556 S
C787 C789 1.390 . S
C787 H791 0.950 . S
H788 C784 0.950 . S
C789 C787 1.390 . S
C789 C790 1.387 1_556 S
C789 H792 0.950 . S
C790 C789 1.387 1_554 S
C790 C793 1.387 . S
H791 C787 0.950 . S
H792 C789 0.950 . S
C793 C784 1.390 . S
C793 H786 0.950 . S
C793 C790 1.387 . S
C794 C795 1.387 1_556 S
C794 H798 0.950 . S
C794 C803 1.390 . S
C795 C794 1.387 1_554 S
C795 C797 1.387 . S
H796 C803 0.950 . S
C797 C795 1.387 . S
C797 C799 1.390 . S
C797 H801 0.950 . S
H798 C794 0.950 . S
C799 C797 1.390 . S
C799 C800 1.387 . S
C799 H802 0.950 . S
C800 C799 1.387 . S
C800 C803 1.387 1_554 S
H801 C797 0.950 . S
H802 C799 0.950 . S
C803 C794 1.390 . S
C803 H796 0.950 . S
C803 C800 1.387 1_556 S
C804 C805 1.387 . S
C804 H808 0.950 . S
C804 C813 1.390 . S
C805 C804 1.387 . S
C805 C807 1.387 . S
H806 C813 0.950 . S
C807 C805 1.387 . S
C807 C809 1.390 . S
C807 H811 0.950 . S
H808 C804 0.950 . S
C809 C807 1.390 . S
C809 C810 1.387 . S
C809 H812 0.950 . S
C810 C809 1.387 . S
C810 C813 1.387 . S
H811 C807 0.950 . S
H812 C809 0.950 . S
C813 C804 1.390 . S
C813 H806 0.950 . S
C813 C810 1.387 . S
C814 C815 1.387 . S
C814 H818 0.950 . S
C814 C823 1.390 . S
C815 C814 1.387 . S
C815 C817 1.387 . S
H816 C823 0.950 . S
C817 C815 1.387 . S
C817 C819 1.390 . S
C817 H821 0.950 . S
H818 C814 0.950 . S
C819 C817 1.390 . S
C819 C820 1.387 . S
C819 H822 0.950 . S
C820 C819 1.387 . S
C820 C823 1.387 . S
H821 C817 0.950 . S
H822 C819 0.950 . S
C823 C814 1.390 . S
C823 H816 0.950 . S
C823 C820 1.387 . S
C824 C825 1.387 . S
C824 H828 0.950 . S
C824 C833 1.390 . S
C825 C824 1.387 . S
C825 C827 1.387 . S
H826 C833 0.950 . S
C827 C825 1.387 . S
C827 C829 1.390 . S
C827 H831 0.950 . S
H828 C824 0.950 . S
C829 C827 1.390 . S
C829 C830 1.387 . S
C829 H832 0.950 . S
C830 C829 1.387 . S
C830 C833 1.387 . S
H831 C827 0.950 . S
H832 C829 0.950 . S
C833 C824 1.390 . S
C833 H826 0.950 . S
C833 C830 1.387 . S
C834 C835 1.387 . S
C834 H838 0.950 . S
C834 C843 1.390 . S
C835 C834 1.387 . S
C835 C837 1.387 . S
H836 C843 0.950 . S
C837 C835 1.387 . S
C837 C839 1.390 . S
C837 H841 0.950 . S
H838 C834 0.950 . S
C839 C837 1.390 . S
C839 C840 1.387 . S
C839 H842 0.950 . S
C840 C839 1.387 . S
C840 C843 1.387 . S
H841 C837 0.950 . S
H842 C839 0.950 . S
C843 C834 1.390 . S
C843 H836 0.950 . S
C843 C840 1.387 . S
C844 C845 1.387 . S
C844 H848 0.950 . S
C844 C853 1.390 . S
C845 C844 1.387 . S
C845 C847 1.387 . S
H846 C853 0.950 . S
C847 C845 1.387 . S
C847 C849 1.390 . S
C847 H851 0.950 . S
H848 C844 0.950 . S
C849 C847 1.390 . S
C849 C850 1.387 . S
C849 H852 0.950 . S
C850 C849 1.387 . S
C850 C853 1.387 . S
H851 C847 0.950 . S
H852 C849 0.950 . S
C853 C844 1.390 . S
C853 H846 0.950 . S
C853 C850 1.387 . S
C854 C855 1.387 . S
C854 H858 0.950 . S
C854 C863 1.390 . S
C855 C854 1.387 . S
C855 C857 1.387 . S
H856 C863 0.950 . S
C857 C855 1.387 . S
C857 C859 1.390 . S
C857 H861 0.950 . S
H858 C854 0.950 . S
C859 C857 1.390 . S
C859 C860 1.387 . S
C859 H862 0.950 . S
C860 C859 1.387 . S
C860 C863 1.387 . S
H861 C857 0.950 . S
H862 C859 0.950 . S
C863 C854 1.390 . S
C863 H856 0.950 . S
C863 C860 1.387 . S
C864 C865 1.387 . S
C864 H868 0.950 . S
C864 C873 1.390 . S
C865 C864 1.387 . S
C865 C867 1.387 . S
H866 C873 0.950 . S
C867 C865 1.387 . S
C867 C869 1.390 . S
C867 H871 0.950 . S
H868 C864 0.950 . S
C869 C867 1.390 . S
C869 C870 1.387 . S
C869 H872 0.950 . S
C870 C869 1.387 . S
C870 C873 1.387 . S
H871 C867 0.950 . S
H872 C869 0.950 . S
C873 C864 1.390 . S
C873 H866 0.950 . S
C873 C870 1.387 . S
C874 C875 1.387 . S
C874 H878 0.950 . S
C874 C883 1.390 . S
C875 C874 1.387 . S
C875 C877 1.387 . S
H876 C883 0.950 . S
C877 C875 1.387 . S
C877 C879 1.390 . S
C877 H881 0.950 . S
H878 C874 0.950 . S
C879 C877 1.390 . S
C879 C880 1.387 . S
C879 H882 0.950 . S
C880 C879 1.387 . S
C880 C883 1.387 . S
H881 C877 0.950 . S
H882 C879 0.950 . S
C883 C874 1.390 . S
C883 H876 0.950 . S
C883 C880 1.387 . S
C884 C885 1.387 . S
C884 H888 0.950 . S
C884 C893 1.390 . S
C885 C884 1.387 . S
C885 C887 1.387 . S
H886 C893 0.950 . S
C887 C885 1.387 . S
C887 C889 1.390 1_545 S
C887 H891 0.950 . S
H888 C884 0.950 . S
C889 C887 1.390 1_565 S
C889 C890 1.387 1_565 S
C889 H892 0.950 . S
C890 C889 1.387 1_545 S
C890 C893 1.387 . S
H891 C887 0.950 . S
H892 C889 0.950 . S
C893 C884 1.390 . S
C893 H886 0.950 . S
C893 C890 1.387 . S
C894 C895 1.387 . S
C894 H898 0.950 1_556 S
C894 C903 1.390 . S
C895 C894 1.387 . S
C895 C897 1.387 . S
H896 C903 0.950 . S
C897 C895 1.387 . S
C897 C899 1.390 . S
C897 H901 0.950 . S
H898 C894 0.950 1_554 S
C899 C897 1.390 . S
C899 C900 1.387 . S
C899 H902 0.950 . S
C900 C899 1.387 . S
C900 C903 1.387 . S
H901 C897 0.950 . S
H902 C899 0.950 . S
C903 C894 1.390 . S
C903 H896 0.950 . S
C903 C900 1.387 . S
C904 C905 1.387 . S
C904 H908 0.950 . S
C904 C913 1.390 . S
C905 C904 1.387 . S
C905 C907 1.387 . S
H906 C913 0.950 . S
C907 C905 1.387 . S
C907 C909 1.390 . S
C907 H911 0.950 . S
H908 C904 0.950 . S
C909 C907 1.390 . S
C909 C910 1.387 . S
C909 H912 0.950 . S
C910 C909 1.387 . S
C910 C913 1.387 . S
H911 C907 0.950 . S
H912 C909 0.950 . S
C913 C904 1.390 . S
C913 H906 0.950 . S
C913 C910 1.387 . S
C914 C915 1.387 . S
C914 H918 0.950 . S
C914 C923 1.390 . S
C915 C914 1.387 . S
C915 C917 1.387 . S
H916 C923 0.950 . S
C917 C915 1.387 . S
C917 C919 1.390 . S
C917 H921 0.950 . S
H918 C914 0.950 . S
C919 C917 1.390 . S
C919 C920 1.387 . S
C919 H922 0.950 . S
C920 C919 1.387 . S
C920 C923 1.387 . S
H921 C917 0.950 . S
H922 C919 0.950 . S
C923 C914 1.390 . S
C923 H916 0.950 . S
C923 C920 1.387 . S
C924 C925 1.387 . S
C924 H928 0.950 . S
C924 C933 1.390 . S
C925 C924 1.387 . S
C925 C927 1.387 . S
H926 C933 0.950 . S
C927 C925 1.387 . S
C927 C929 1.390 . S
C927 H931 0.950 1_655 S
H928 C924 0.950 . S
C929 C927 1.390 . S
C929 C930 1.387 . S
C929 H932 0.950 . S
C930 C929 1.387 . S
C930 C933 1.387 . S
H931 C927 0.950 1_455 S
H932 C929 0.950 . S
C933 C924 1.390 . S
C933 H926 0.950 . S
C933 C930 1.387 . S
C934 C935 1.387 . S
C934 H938 0.950 . S
C934 C943 1.390 . S
C935 C934 1.387 . S
C935 C937 1.387 . S
H936 C943 0.950 . S
C937 C935 1.387 . S
C937 C939 1.390 . S
C937 H941 0.950 . S
H938 C934 0.950 . S
C939 C937 1.390 . S
C939 C940 1.387 . S
C939 H942 0.950 . S
C940 C939 1.387 . S
C940 C943 1.387 . S
H941 C937 0.950 . S
H942 C939 0.950 . S
C943 C934 1.390 . S
C943 H936 0.950 . S
C943 C940 1.387 . S
C944 C945 1.387 . S
C944 H948 0.950 . S
C944 C953 1.390 . S
C945 C944 1.387 . S
C945 C947 1.387 . S
H946 C953 0.950 1_554 S
C947 C945 1.387 . S
C947 C949 1.390 . S
C947 H951 0.950 . S
H948 C944 0.950 . S
C949 C947 1.390 . S
C949 C950 1.387 . S
C949 H952 0.950 . S
C950 C949 1.387 . S
C950 C953 1.387 . S
H951 C947 0.950 . S
H952 C949 0.950 . S
C953 C944 1.390 . S
C953 H946 0.950 1_556 S
C953 C950 1.387 . S
C954 C955 1.387 . S
C954 H958 0.950 . S
C954 C963 1.390 . S
C955 C954 1.387 . S
C955 C957 1.387 1_565 S
H956 C963 0.950 . S
C957 C955 1.387 1_545 S
C957 C959 1.390 . S
C957 H961 0.950 . S
H958 C954 0.950 . S
C959 C957 1.390 . S
C959 C960 1.387 1_545 S
C959 H962 0.950 . S
C960 C959 1.387 1_565 S
C960 C963 1.387 . S
H961 C957 0.950 . S
H962 C959 0.950 . S
C963 C954 1.390 . S
C963 H956 0.950 . S
C963 C960 1.387 . S
C964 C965 1.387 . S
C964 H968 0.950 . S
C964 C973 1.390 . S
C965 C964 1.387 . S
C965 C967 1.387 . S
H966 C973 0.950 . S
C967 C965 1.387 . S
C967 C969 1.390 . S
C967 H971 0.950 . S
H968 C964 0.950 . S
C969 C967 1.390 . S
C969 C970 1.387 . S
C969 H972 0.950 . S
C970 C969 1.387 . S
C970 C973 1.387 . S
H971 C967 0.950 . S
H972 C969 0.950 . S
C973 C964 1.390 . S
C973 H966 0.950 . S
C973 C970 1.387 . S
C974 C975 1.387 . S
C974 H978 0.950 . S
C974 C983 1.390 . S
C975 C974 1.387 . S
C975 C977 1.387 . S
H976 C983 0.950 . S
C977 C975 1.387 . S
C977 C979 1.390 . S
C977 H981 0.950 . S
H978 C974 0.950 . S
C979 C977 1.390 . S
C979 C980 1.387 . S
C979 H982 0.950 . S
C980 C979 1.387 . S
C980 C983 1.387 . S
H981 C977 0.950 . S
H982 C979 0.950 . S
C983 C974 1.390 . S
C983 H976 0.950 . S
C983 C980 1.387 . S
C984 C985 1.387 . S
C984 H988 0.950 . S
C984 C993 1.390 . S
C985 C984 1.387 . S
C985 C987 1.387 . S
H986 C993 0.950 . S
C987 C985 1.387 . S
C987 C989 1.390 . S
C987 H991 0.950 . S
H988 C984 0.950 . S
C989 C987 1.390 . S
C989 C990 1.387 . S
C989 H992 0.950 . S
C990 C989 1.387 . S
C990 C993 1.387 . S
H991 C987 0.950 . S
H992 C989 0.950 . S
C993 C984 1.390 . S
C993 H986 0.950 . S
C993 C990 1.387 . S
C994 C995 1.387 . S
C994 H998 0.950 . S
C994 C1003 1.390 . S
C995 C994 1.387 . S
C995 C997 1.387 . S
H996 C1003 0.950 . S
C997 C995 1.387 . S
C997 C999 1.390 . S
C997 H1001 0.950 . S
H998 C994 0.950 . S
C999 C997 1.390 . S
C999 C1000 1.387 . S
C999 H1002 0.950 . S
C1000 C999 1.387 . S
C1000 C1003 1.387 . S
H1001 C997 0.950 . S
H1002 C999 0.950 . S
C1003 C994 1.390 . S
C1003 H996 0.950 . S
C1003 C1000 1.387 . S
C1004 C1005 1.387 . S
C1004 H1008 0.950 . S
C1004 C1013 1.390 . S
C1005 C1004 1.387 . S
C1005 C1007 1.387 . S
H1006 C1013 0.950 . S
C1007 C1005 1.387 . S
C1007 C1009 1.390 . S
C1007 H1011 0.950 . S
H1008 C1004 0.950 . S
C1009 C1007 1.390 . S
C1009 C1010 1.387 . S
C1009 H1012 0.950 . S
C1010 C1009 1.387 . S
C1010 C1013 1.387 . S
H1011 C1007 0.950 . S
H1012 C1009 0.950 . S
C1013 C1004 1.390 . S
C1013 H1006 0.950 . S
C1013 C1010 1.387 . S
C1014 C1015 1.387 . S
C1014 H1018 0.950 . S
C1014 C1023 1.390 . S
C1015 C1014 1.387 . S
C1015 C1017 1.387 . S
H1016 C1023 0.950 . S
C1017 C1015 1.387 . S
C1017 C1019 1.390 . S
C1017 H1021 0.950 . S
H1018 C1014 0.950 . S
C1019 C1017 1.390 . S
C1019 C1020 1.387 . S
C1019 H1022 0.950 . S
C1020 C1019 1.387 . S
C1020 C1023 1.387 . S
H1021 C1017 0.950 . S
H1022 C1019 0.950 . S
C1023 C1014 1.390 . S
C1023 H1016 0.950 . S
C1023 C1020 1.387 . S
C1024 C1025 1.387 . S
C1024 H1028 0.950 . S
C1024 C1033 1.390 . S
C1025 C1024 1.387 . S
C1025 C1027 1.387 . S
H1026 C1033 0.950 . S
C1027 C1025 1.387 . S
C1027 C1029 1.390 . S
C1027 H1031 0.950 . S
H1028 C1024 0.950 . S
C1029 C1027 1.390 . S
C1029 C1030 1.387 . S
C1029 H1032 0.950 . S
C1030 C1029 1.387 . S
C1030 C1033 1.387 . S
H1031 C1027 0.950 . S
H1032 C1029 0.950 . S
C1033 C1024 1.390 . S
C1033 H1026 0.950 . S
C1033 C1030 1.387 . S
C1034 C1035 1.387 . S
C1034 H1038 0.950 . S
C1034 C1043 1.390 . S
C1035 C1034 1.387 . S
C1035 C1037 1.387 . S
H1036 C1043 0.950 . S
C1037 C1035 1.387 . S
C1037 C1039 1.390 . S
C1037 H1041 0.950 1_455 S
H1038 C1034 0.950 . S
C1039 C1037 1.390 . S
C1039 C1040 1.387 . S
C1039 H1042 0.950 . S
C1040 C1039 1.387 . S
C1040 C1043 1.387 . S
H1041 C1037 0.950 1_655 S
H1042 C1039 0.950 . S
C1043 C1034 1.390 . S
C1043 H1036 0.950 . S
C1043 C1040 1.387 . S
C595 N5 1.639 . S
C600 N14 1.637 . S
C605 N47 1.655 . S
C610 N38 1.657 . S
C615 N71 1.657 . S
C620 N80 1.655 . S
C625 N113 1.639 . S
C630 N104 1.642 . S
C635 N146 1.649 . S
C640 N137 1.651 . S
C645 N179 1.657 . S
C650 N170 1.659 . S
C655 N203 1.627 . S
C660 N212 1.624 1_556 S
C665 N236 1.642 . S
C670 N245 1.639 1_556 S
C675 N269 1.655 . S
C680 N278 1.651 1_556 S
C685 N311 1.625 1_556 S
C690 N302 1.628 . S
C695 N335 1.642 . S
C700 N344 1.639 1_556 S
C705 N368 1.655 . S
C710 N377 1.653 1_556 S
C715 N401 1.632 . S
C720 N410 1.630 . S
C725 N443 1.638 . S
C730 N434 1.640 1_554 S
C735 N476 1.647 1_554 S
C740 N467 1.649 . S
C745 N500 1.628 . S
C750 N509 1.625 . S
C755 N533 1.645 . S
C760 N542 1.644 . S
C765 N575 1.645 . S
C770 N566 1.647 1_554 S
C775 C116 1.347 . S
C780 C17 1.352 . S
C785 C149 1.396 . S
C790 C50 1.393 . S
C795 C182 1.392 . S
C800 C83 1.389 . S
C805 C215 1.315 . S
C810 C314 1.313 . S
C815 C347 1.341 . S
C820 C248 1.337 . S
C825 C380 1.338 . S
C830 C281 1.344 . S
C835 C512 1.342 . S
C840 C413 1.340 . S
C845 C446 1.403 . S
C850 C545 1.408 . S
C855 C479 1.406 . S
C860 C578 1.397 . S
C865 C272 1.054 . S
C870 C8 1.082 . S
C875 C206 1.117 . S
C880 C61 1.070 . S
C885 C74 1.082 . S
C890 C239 1.072 . S
C895 C94 1.076 . S
C900 C404 1.148 . S
C905 C28 1.126 . S
C910 C457 1.064 . S
C915 C470 1.084 . S
C920 C41 1.092 . S
C925 C107 1.209 1_655 S
C930 C589 1.104 . S
C935 C160 1.055 . S
C940 C523 1.076 . S
C945 C536 1.085 . S
C950 C173 1.089 . S
C955 C305 1.110 . S
C960 C193 1.065 1_565 S
C965 C127 1.073 . S
C970 C338 1.070 . S
C975 C140 1.090 . S
C980 C371 1.084 . S
C985 C226 1.069 . S
C990 C490 1.021 . S
C995 C259 1.043 . S
C1000 C424 1.055 . S
C1005 C292 1.057 . S
C1010 C437 1.070 1_455 S
C1015 C503 1.084 . S
C1020 C391 1.041 . S
C1025 C556 1.031 . S
C1030 C325 1.071 . S
C1035 C569 1.055 1_455 S
C1040 C358 1.037 . S
