# Generated by pormake.
# Topology wlk, (5)-cn, num edge types: 1
# Building blocks:
#     Node 0, Type 0, BuildingBlock: XOMCOT_clean_sbu_0, # of connection points: 5
#     Node 1, Type 0, BuildingBlock: XOMCOT_clean_sbu_0, # of connection points: 5
#     Node 2, Type 0, BuildingBlock: XOMCOT_clean_sbu_0, # of connection points: 5
#     Node 3, Type 0, BuildingBlock: XOMCOT_clean_sbu_0, # of connection points: 5
#     Node 4, Type 0, BuildingBlock: XOMCOT_clean_sbu_0, # of connection points: 5
#     Node 5, Type 0, BuildingBlock: XOMCOT_clean_sbu_0, # of connection points: 5
#     Node 6, Type 0, BuildingBlock: XOMCOT_clean_sbu_0, # of connection points: 5
#     Node 7, Type 0, BuildingBlock: XOMCOT_clean_sbu_0, # of connection points: 5
#     Node 8, Type 0, BuildingBlock: XOMCOT_clean_sbu_0, # of connection points: 5
#     Node 9, Type 0, BuildingBlock: XOMCOT_clean_sbu_0, # of connection points: 5
#     Node 10, Type 0, BuildingBlock: XOMCOT_clean_sbu_0, # of connection points: 5
#     Node 11, Type 0, BuildingBlock: XOMCOT_clean_sbu_0, # of connection points: 5
#     Node 12, Type 0, BuildingBlock: XOMCOT_clean_sbu_0, # of connection points: 5
#     Node 13, Type 0, BuildingBlock: XOMCOT_clean_sbu_0, # of connection points: 5
#     Node 14, Type 0, BuildingBlock: XOMCOT_clean_sbu_0, # of connection points: 5
#     Node 15, Type 0, BuildingBlock: XOMCOT_clean_sbu_0, # of connection points: 5
#     Node 16, Type 0, BuildingBlock: XOMCOT_clean_sbu_0, # of connection points: 5
#     Node 17, Type 0, BuildingBlock: XOMCOT_clean_sbu_0, # of connection points: 5
#     Edge 18, Type (0, 0), BuildingBlock: AJUNOK_clean_linker_0, # of connection points: 2
#     Edge 19, Type (0, 0), BuildingBlock: AJUNOK_clean_linker_0, # of connection points: 2
#     Edge 20, Type (0, 0), BuildingBlock: AJUNOK_clean_linker_0, # of connection points: 2
#     Edge 21, Type (0, 0), BuildingBlock: AJUNOK_clean_linker_0, # of connection points: 2
#     Edge 22, Type (0, 0), BuildingBlock: AJUNOK_clean_linker_0, # of connection points: 2
#     Edge 23, Type (0, 0), BuildingBlock: AJUNOK_clean_linker_0, # of connection points: 2
#     Edge 24, Type (0, 0), BuildingBlock: AJUNOK_clean_linker_0, # of connection points: 2
#     Edge 25, Type (0, 0), BuildingBlock: AJUNOK_clean_linker_0, # of connection points: 2
#     Edge 26, Type (0, 0), BuildingBlock: AJUNOK_clean_linker_0, # of connection points: 2
#     Edge 27, Type (0, 0), BuildingBlock: AJUNOK_clean_linker_0, # of connection points: 2
#     Edge 28, Type (0, 0), BuildingBlock: AJUNOK_clean_linker_0, # of connection points: 2
#     Edge 29, Type (0, 0), BuildingBlock: AJUNOK_clean_linker_0, # of connection points: 2
#     Edge 30, Type (0, 0), BuildingBlock: AJUNOK_clean_linker_0, # of connection points: 2
#     Edge 31, Type (0, 0), BuildingBlock: AJUNOK_clean_linker_0, # of connection points: 2
#     Edge 32, Type (0, 0), BuildingBlock: AJUNOK_clean_linker_0, # of connection points: 2
#     Edge 33, Type (0, 0), BuildingBlock: AJUNOK_clean_linker_0, # of connection points: 2
#     Edge 34, Type (0, 0), BuildingBlock: AJUNOK_clean_linker_0, # of connection points: 2
#     Edge 35, Type (0, 0), BuildingBlock: AJUNOK_clean_linker_0, # of connection points: 2
#     Edge 36, Type (0, 0), BuildingBlock: AJUNOK_clean_linker_0, # of connection points: 2
#     Edge 37, Type (0, 0), BuildingBlock: AJUNOK_clean_linker_0, # of connection points: 2
#     Edge 38, Type (0, 0), BuildingBlock: AJUNOK_clean_linker_0, # of connection points: 2
#     Edge 39, Type (0, 0), BuildingBlock: AJUNOK_clean_linker_0, # of connection points: 2
#     Edge 40, Type (0, 0), BuildingBlock: AJUNOK_clean_linker_0, # of connection points: 2
#     Edge 41, Type (0, 0), BuildingBlock: AJUNOK_clean_linker_0, # of connection points: 2
#     Edge 42, Type (0, 0), BuildingBlock: AJUNOK_clean_linker_0, # of connection points: 2
#     Edge 43, Type (0, 0), BuildingBlock: AJUNOK_clean_linker_0, # of connection points: 2
#     Edge 44, Type (0, 0), BuildingBlock: AJUNOK_clean_linker_0, # of connection points: 2
#     Edge 45, Type (0, 0), BuildingBlock: AJUNOK_clean_linker_0, # of connection points: 2
#     Edge 46, Type (0, 0), BuildingBlock: AJUNOK_clean_linker_0, # of connection points: 2
#     Edge 47, Type (0, 0), BuildingBlock: AJUNOK_clean_linker_0, # of connection points: 2
#     Edge 48, Type (0, 0), BuildingBlock: AJUNOK_clean_linker_0, # of connection points: 2
#     Edge 49, Type (0, 0), BuildingBlock: AJUNOK_clean_linker_0, # of connection points: 2
#     Edge 50, Type (0, 0), BuildingBlock: AJUNOK_clean_linker_0, # of connection points: 2
#     Edge 51, Type (0, 0), BuildingBlock: AJUNOK_clean_linker_0, # of connection points: 2
#     Edge 52, Type (0, 0), BuildingBlock: AJUNOK_clean_linker_0, # of connection points: 2
#     Edge 53, Type (0, 0), BuildingBlock: AJUNOK_clean_linker_0, # of connection points: 2
#     Edge 54, Type (0, 0), BuildingBlock: AJUNOK_clean_linker_0, # of connection points: 2
#     Edge 55, Type (0, 0), BuildingBlock: AJUNOK_clean_linker_0, # of connection points: 2
#     Edge 56, Type (0, 0), BuildingBlock: AJUNOK_clean_linker_0, # of connection points: 2
#     Edge 57, Type (0, 0), BuildingBlock: AJUNOK_clean_linker_0, # of connection points: 2
#     Edge 58, Type (0, 0), BuildingBlock: AJUNOK_clean_linker_0, # of connection points: 2
#     Edge 59, Type (0, 0), BuildingBlock: AJUNOK_clean_linker_0, # of connection points: 2
#     Edge 60, Type (0, 0), BuildingBlock: AJUNOK_clean_linker_0, # of connection points: 2
#     Edge 61, Type (0, 0), BuildingBlock: AJUNOK_clean_linker_0, # of connection points: 2
#     Edge 62, Type (0, 0), BuildingBlock: AJUNOK_clean_linker_0, # of connection points: 2
# Relax obj value: 0.213
# Max RMSD: 0.256
# Mean RMSD: 0.256
data_MOF--net-wlk--node1-XOMCOT_clean_sbu_0--edge1-AJUNOK_clean_linker_0
_symmetry_space_group_name_H-M    P1
_symmetry_Int_Tables_number       1
_symmetry_cell_setting            triclinic
loop_
_symmetry_equiv_pos_as_xyz
'x, y, z'
_cell_length_a     50.194861
_cell_length_b     50.279592
_cell_length_c     21.82824
_cell_angle_alpha  90.117633
_cell_angle_beta   89.928857
_cell_angle_gamma 119.98766
loop_
_atom_site_label
_atom_site_type_symbol
_atom_site_fract_x
_atom_site_fract_y
_atom_site_fract_z
_atom_type_partial_charge
Co0 Co 0.21529 0.26656 0.11264 0.0
C1 C 0.23231 0.22509 0.04295 0.0
C2 C 0.1845 0.21014 0.03458 0.0
C3 C 0.1902 0.18906 0.0058 0.0
N4 N 0.21104 0.23352 0.05675 0.0
N5 N 0.22038 0.19846 0.01056 0.0
H6 H 0.25588 0.23736 0.05868 0.0
H7 H 0.16185 0.20688 0.04253 0.0
C8 C 0.15948 0.25774 0.04244 0.0
O9 O 0.17624 0.26465 0.99248 0.0
N10 N 0.21944 0.29827 0.17009 0.0
C11 C 0.24571 0.32455 0.18253 0.0
C12 C 0.23998 0.34057 0.22691 0.0
C13 C 0.19808 0.29854 0.20779 0.0
N14 N 0.21007 0.32426 0.24318 0.0
C15 C 0.25841 0.30029 0.0188 0.0
C16 C 0.24481 0.34691 0.00601 0.0
C17 C 0.27055 0.34928 0.9756 0.0
C18 C 0.277 0.32544 0.9822 0.0
C19 C 0.2264 0.32088 0.04232 0.0
N20 N 0.23331 0.29783 0.04834 0.0
H21 H 0.26563 0.28377 0.02617 0.0
H22 H 0.20733 0.31983 0.06748 0.0
H23 H 0.26764 0.33153 0.16095 0.0
H24 H 0.17428 0.2804 0.20883 0.0
O25 O 0.25353 0.27172 0.14214 0.0
O26 O 0.20806 0.23896 0.18187 0.0
O27 O 0.17111 0.25651 0.09404 0.0
C28 C 0.23794 0.25102 0.18285 0.0
H29 H 0.17286 0.16724 0.98714 0.0
H30 H 0.25678 0.36235 0.24666 0.0
H31 H 0.23913 0.36497 1.00211 0.0
H32 H 0.297 0.32666 0.96043 0.0
Co33 Co 0.75522 0.95205 0.11191 0.0
C34 C 0.79801 1.00895 0.03771 0.0
C35 C 0.81589 0.97894 0.05222 0.0
C36 C 0.83864 1.00569 0.02679 0.0
N37 N 0.7897 0.98012 0.0579 0.0
N38 N 0.82753 0.02478 0.01687 0.0
H39 H 0.78364 0.01918 0.04228 0.0
H40 H 0.81963 0.96125 0.07111 0.0
C41 C 0.76892 0.90792 0.04683 0.0
O42 O 0.76458 0.91957 0.99654 0.0
N43 N 0.72305 0.925 0.16935 0.0
C44 C 0.69673 0.92487 0.18232 0.0
C45 C 0.68091 0.90308 0.2269 0.0
C46 C 0.7229 0.90336 0.20667 0.0
N47 N 0.69723 0.88937 0.24214 0.0
C48 C 0.72261 0.95774 0.01031 0.0
C49 C 0.67544 0.89742 0.00652 0.0
C50 C 0.67276 0.91956 0.97231 0.0
C51 C 0.69712 0.94977 0.97338 0.0
C52 C 0.70197 0.90634 0.04237 0.0
N53 N 0.72496 0.93647 0.04509 0.0
H54 H 0.73926 0.98161 0.01402 0.0
H55 H 0.7032 0.88934 0.07062 0.0
H56 H 0.6895 0.93959 0.16083 0.0
H57 H 0.74157 0.89849 0.20888 0.0
O58 O 0.74856 0.98509 0.13326 0.0
O59 O 0.78129 0.97516 0.18182 0.0
O60 O 0.76641 0.91844 0.09892 0.0
C61 C 0.76918 0.9928 0.17541 0.0
H62 H 0.86234 0.01144 0.02167 0.0
H63 H 0.65886 0.89754 0.24621 0.0
H64 H 0.65707 0.87371 0.00647 0.0
H65 H 0.69584 0.96755 0.94777 0.0
Co66 Co 0.07458 0.81261 0.10478 0.0
C67 C 0.01603 0.79716 0.03721 0.0
C68 C 0.05134 0.84299 0.01793 0.0
C69 C 0.02452 0.83785 0.99005 0.0
N70 N 0.04659 0.81722 0.04671 0.0
N71 N 1.00201 0.80894 1.0021 0.0
H72 H 1.0039 0.77485 0.05847 0.0
H73 H 0.07209 0.86501 0.01976 0.0
C74 C 0.12375 0.86659 0.0345 0.0
O75 O 0.11435 0.84876 0.98594 0.0
N76 N 0.10089 0.80796 0.16511 0.0
C77 C 0.09927 0.78114 0.1796 0.0
C78 C 0.11941 0.78596 0.22666 0.0
C79 C 0.12197 0.82881 0.20452 0.0
N80 N 0.13356 0.81584 0.24305 0.0
C81 C 0.06566 0.77035 0.00817 0.0
C82 C 0.12346 0.77645 0.01365 0.0
C83 C 0.10012 0.75133 0.98154 0.0
C84 C 0.07142 0.74959 0.97669 0.0
C85 C 0.11701 0.79759 0.04281 0.0
N86 N 0.08791 0.79355 0.04236 0.0
H87 H 0.04244 0.76607 0.00841 0.0
H88 H 0.13488 0.81583 0.06979 0.0
H89 H 0.08436 0.75943 0.15734 0.0
H90 H 0.12815 0.85274 0.20598 0.0
O91 O 0.04062 0.77501 0.13383 0.0
O92 O 0.05406 0.82101 0.17204 0.0
O93 O 0.10972 0.85613 0.08575 0.0
C94 C 0.03561 0.79128 0.17323 0.0
H95 H 0.02176 0.85473 0.96454 0.0
H96 H 0.12356 0.76869 0.24671 0.0
H97 H 0.14598 0.77891 0.01952 0.0
H98 H 0.05278 0.73126 0.95113 0.0
Co99 Co 0.81055 0.7489 0.90595 0.0
C100 C 0.80175 0.79868 0.96344 0.0
C101 C 0.82828 0.78667 0.02143 0.0
C102 C 0.82468 0.80923 0.05003 0.0
N103 N 0.81382 0.77976 0.96669 0.0
N104 N 0.80769 0.81667 0.01369 0.0
H105 H 0.78859 0.79945 0.92541 0.0
H106 H 0.84045 0.77605 0.04036 0.0
C107 C 0.87034 0.75643 0.96059 0.0
O108 O 0.85463 0.73832 0.00596 0.0
N109 N 0.80754 0.71932 0.8441 0.0
C110 C 0.78157 0.69337 0.82846 0.0
C111 C 0.78813 0.67877 0.78245 0.0
C112 C 0.82957 0.72029 0.80656 0.0
N113 N 0.81831 0.69555 0.7685 0.0
C114 C 0.7726 0.71462 0.00545 0.0
C115 C 0.78037 0.6641 0.99457 0.0
C116 C 0.75567 0.66153 0.0292 0.0
C117 C 0.75266 0.68756 0.03614 0.0
C118 C 0.79987 0.69174 0.96401 0.0
N119 N 0.79551 0.71655 0.96848 0.0
H120 H 0.76756 0.73311 0.00706 0.0
H121 H 0.8174 0.69254 0.93397 0.0
H122 H 0.75934 0.68541 0.84954 0.0
H123 H 0.85308 0.73904 0.80619 0.0
O124 O 0.77017 0.74074 0.88354 0.0
O125 O 0.81258 0.77618 0.83887 0.0
O126 O 0.85667 0.76326 0.91867 0.0
C127 C 0.7825 0.76189 0.8423 0.0
H128 H 0.83454 0.81967 0.0937 0.0
H129 H 0.77187 0.65718 0.76128 0.0
H130 H 0.78338 0.64441 0.98796 0.0
H131 H 0.73385 0.6865 0.06255 0.0
Co132 Co 0.28066 0.0704 0.90095 0.0
C133 C 0.23835 0.0119 0.96851 0.0
C134 C 0.22538 0.04586 0.98333 0.0
C135 C 0.20316 0.01854 0.00849 0.0
N136 N 0.24812 0.04222 0.95871 0.0
N137 N 0.21106 0.99699 0.99853 0.0
H138 H 0.25046 1.00054 0.95237 0.0
H139 H 0.22308 0.06594 0.9792 0.0
C140 C 0.27165 0.11877 0.96425 0.0
O141 O 0.28214 0.11242 0.01388 0.0
N142 N 0.31109 0.0971 0.8404 0.0
C143 C 0.337 0.09697 0.82471 0.0
C144 C 0.3515 0.11785 0.77822 0.0
C145 C 0.31004 0.11791 0.80243 0.0
N146 N 0.33469 0.13117 0.76408 0.0
C147 C 0.31345 0.06601 1.00344 0.0
C148 C 0.36528 0.12323 0.99102 0.0
C149 C 0.36726 0.10074 0.02556 0.0
C150 C 0.34028 0.07258 0.03444 0.0
C151 C 0.33743 0.11593 0.9617 0.0
N152 N 0.31241 0.08688 0.96508 0.0
H153 H 0.29454 0.04292 0.00629 0.0
H154 H 0.33687 0.1329 0.93223 0.0
H155 H 0.34488 0.08267 0.84573 0.0
H156 H 0.29121 0.12257 0.80177 0.0
O157 O 0.28827 0.03813 0.87837 0.0
O158 O 0.25345 0.04591 0.83296 0.0
O159 O 0.26849 0.10342 0.91481 0.0
C160 C 0.26696 0.02943 0.83742 0.0
H161 H 0.18158 0.01429 0.02822 0.0
H162 H 0.373 0.123 0.75672 0.0
H163 H 0.38544 0.14546 0.9832 0.0
H164 H 0.34038 0.05474 0.06205 0.0
Co165 Co 0.95452 0.21532 0.91598 0.0
C166 C 1.01542 0.22397 0.96145 0.0
C167 C 0.97978 0.20262 0.02849 0.0
C168 C 1.00712 0.20748 0.05376 0.0
N169 N 0.9849 0.21339 0.97062 0.0
N170 N 0.02978 0.22124 0.01179 0.0
H171 H 0.02695 0.23301 0.91853 0.0
H172 H 0.95778 0.19271 0.05155 0.0
C173 C 0.89519 0.15231 0.93445 0.0
O174 O 0.87771 0.16242 0.91212 0.0
N175 N 0.92524 0.21748 0.85987 0.0
C176 C 0.91996 0.2412 0.85514 0.0
C177 C 0.89978 0.23564 0.80768 0.0
C178 C 0.90925 0.19851 0.8128 0.0
N179 N 0.89269 0.20862 0.78129 0.0
C180 C 0.96383 0.25657 0.01219 0.0
C181 C 0.90434 0.24547 0.02241 0.0
C182 C 0.92845 0.2731 0.04535 0.0
C183 C 0.95823 0.27748 0.04336 0.0
C184 C 0.91094 0.22478 0.99191 0.0
N185 N 0.94068 0.2313 0.98379 0.0
H186 H 0.98752 0.26256 0.00583 0.0
H187 H 0.89228 0.20565 0.96963 0.0
H188 H 0.93036 0.26144 0.88393 0.0
H189 H 0.90988 0.17783 0.80183 0.0
O190 O 0.98492 0.25507 0.8882 0.0
O191 O 0.97659 0.21194 0.84425 0.0
O192 O 0.92465 0.16977 0.93696 0.0
C193 C 0.99223 0.24203 0.84566 0.0
H194 H 1.01013 0.202 0.10023 0.0
H195 H 0.89074 0.25028 0.79402 0.0
H196 H 0.88087 0.24095 0.02389 0.0
H197 H 0.97747 0.29796 0.06255 0.0
Co198 Co 0.8823 0.61141 0.43512 0.0
C199 C 0.89252 0.56319 0.37318 0.0
C200 C 0.85879 0.57006 0.3272 0.0
C201 C 0.86196 0.54787 0.29617 0.0
N202 N 0.878 0.57991 0.3757 0.0
N203 N 0.88342 0.5437 0.32475 0.0
H204 H 0.90987 0.56539 0.40502 0.0
H205 H 0.84353 0.57854 0.31474 0.0
C206 C 0.81872 0.60748 0.42216 0.0
O207 O 0.82923 0.63575 0.44074 0.0
N208 N 0.88616 0.64163 0.49648 0.0
C209 C 0.91159 0.6691 0.50634 0.0
C210 C 0.90671 0.68311 0.55594 0.0
C211 C 0.86651 0.63891 0.542 0.0
N212 N 0.87838 0.66418 0.57852 0.0
C213 C 0.91747 0.64291 0.33059 0.0
C214 C 0.91146 0.69443 0.33901 0.0
C215 C 0.93533 0.69575 0.30376 0.0
C216 C 0.9373 0.66916 0.2975 0.0
C217 C 0.89201 0.66758 0.37179 0.0
N218 N 0.89571 0.64234 0.36939 0.0
H219 H 0.92226 0.62428 0.32974 0.0
H220 H 0.87699 0.66918 0.4044 0.0
H221 H 0.93231 0.67844 0.47898 0.0
H222 H 0.84408 0.61883 0.54856 0.0
O223 O 0.9231 0.62066 0.45485 0.0
O224 O 0.88179 0.58492 0.50222 0.0
O225 O 0.83609 0.59543 0.4217 0.0
C226 C 0.91178 0.59945 0.49606 0.0
H227 H 0.84907 0.53555 0.25599 0.0
H228 H 0.92259 0.70585 0.57315 0.0
H229 H 0.90949 0.71476 0.34541 0.0
H230 H 0.95554 0.66933 0.27056 0.0
Co231 Co 0.42282 0.28094 0.43612 0.0
C232 C 0.46581 0.33733 0.36303 0.0
C233 C 0.48011 0.30383 0.36305 0.0
C234 C 0.50336 0.33062 0.33864 0.0
N235 N 0.45594 0.30743 0.37801 0.0
N236 N 0.49456 0.35187 0.33885 0.0
H237 H 0.45349 0.34916 0.37444 0.0
H238 H 0.48264 0.28442 0.37486 0.0
C239 C 0.43101 0.23209 0.37444 0.0
O240 O 0.42337 0.2405 0.32357 0.0
N241 N 0.39179 0.25581 0.49714 0.0
C242 C 0.36583 0.25645 0.50981 0.0
C243 C 0.35062 0.23646 0.55725 0.0
C244 C 0.39213 0.23558 0.53778 0.0
N245 N 0.3672 0.22345 0.57541 0.0
C246 C 0.38965 0.28511 0.33423 0.0
C247 C 0.33866 0.2272 0.3459 0.0
C248 C 0.33611 0.24946 0.31177 0.0
C249 C 0.36265 0.27805 0.30335 0.0
C250 C 0.3666 0.23505 0.3753 0.0
N251 N 0.39117 0.26437 0.37213 0.0
H252 H 0.40829 0.30836 0.33179 0.0
H253 H 0.36755 0.21834 0.40493 0.0
H254 H 0.35831 0.27032 0.48574 0.0
H255 H 0.41047 0.23023 0.54046 0.0
O256 O 0.41692 0.31462 0.45592 0.0
O257 O 0.45046 0.3055 0.5033 0.0
O258 O 0.43318 0.24652 0.42467 0.0
C259 C 0.43816 0.323 0.49693 0.0
H260 H 0.52603 0.33485 0.32604 0.0
H261 H 0.32863 0.23147 0.57597 0.0
H262 H 0.31882 0.20471 0.35344 0.0
H263 H 0.36204 0.29575 0.27615 0.0
Co264 Co 0.74674 0.14851 0.44456 0.0
C265 C 0.68626 0.13057 0.38322 0.0
C266 C 0.72238 0.17344 0.34934 0.0
C267 C 0.69514 0.16728 0.32172 0.0
N268 N 0.71695 0.15057 0.38868 0.0
N269 N 0.67236 0.14026 0.3429 0.0
H270 H 0.6742 0.10934 0.4084 0.0
H271 H 0.74454 0.19339 0.34059 0.0
C272 C 0.80688 0.21122 0.42945 0.0
O273 O 0.8235 0.20145 0.45729 0.0
N274 N 0.77534 0.14571 0.50166 0.0
C275 C 0.78145 0.12247 0.50357 0.0
C276 C 0.80057 0.12682 0.55228 0.0
C277 C 0.78983 0.16316 0.55157 0.0
N278 N 0.80593 0.1524 0.58265 0.0
C279 C 0.73755 0.10494 0.35291 0.0
C280 C 0.79833 0.12221 0.33132 0.0
C281 C 0.77512 0.09404 0.30862 0.0
C282 C 0.7445 0.086 0.31791 0.0
C283 C 0.79034 0.14086 0.36576 0.0
N284 N 0.76019 0.13155 0.37833 0.0
H285 H 0.71371 0.09695 0.36298 0.0
H286 H 0.80855 0.16138 0.3856 0.0
H287 H 0.77239 0.10335 0.47193 0.0
H288 H 0.78881 0.18343 0.56456 0.0
O289 O 0.71536 0.10976 0.47576 0.0
O290 O 0.72566 0.15481 0.51402 0.0
O291 O 0.77778 0.19333 0.4221 0.0
C292 C 0.70915 0.12486 0.51585 0.0
H293 H 0.69242 0.18142 0.28781 0.0
H294 H 0.81028 0.11248 0.56363 0.0
H295 H 0.82232 0.12928 0.32415 0.0
H296 H 0.72597 0.0645 0.30034 0.0
Co297 Co 0.48456 0.08092 0.23093 0.0
C298 C 0.46911 0.12677 0.28549 0.0
C299 C 0.49894 0.11901 0.34323 0.0
C300 C 0.49218 0.1394 0.3721 0.0
N301 N 0.48465 0.11112 0.28849 0.0
N302 N 0.47326 0.14434 0.33592 0.0
H303 H 0.45493 0.12521 0.24734 0.0
H304 H 0.51287 0.11006 0.36174 0.0
C305 C 0.54594 0.08199 0.25394 0.0
O306 O 0.53601 0.05616 0.22389 0.0
N307 N 0.48332 0.05049 0.17291 0.0
C308 C 0.46013 0.02118 0.16864 0.0
C309 C 0.46587 1.00684 0.12094 0.0
C310 C 0.50218 0.0539 0.12519 0.0
N311 N 0.49251 0.0272 0.09396 0.0
C312 C 0.437 0.04425 0.31339 0.0
C313 C 0.45472 1.00182 0.34164 0.0
C314 C 0.42478 0.99514 0.35597 0.0
C315 C 0.41654 0.01737 0.34391 0.0
C316 C 0.47457 0.0291 0.3105 0.0
N317 N 0.46505 0.04928 0.29405 0.0
H318 H 0.4294 0.06026 0.3018 0.0
H319 H 0.49651 0.03257 0.29675 0.0
H320 H 0.44009 0.01083 0.19796 0.0
H321 H 0.52273 0.07533 0.11426 0.0
O322 O 0.44703 0.07446 0.19427 0.0
O323 O 0.49332 0.10966 0.16261 0.0
O324 O 0.5287 0.0941 0.25972 0.0
C325 C 0.46348 0.0961 0.15587 0.0
H326 H 0.50015 0.14931 0.41705 0.0
H327 H 0.45175 0.98299 0.1078 0.0
H328 H 0.46216 0.98544 0.3516 0.0
H329 H 0.39401 0.0136 0.35638 0.0
Co330 Co 0.94125 0.41043 0.24092 0.0
C331 C 0.89659 0.35051 0.30152 0.0
C332 C 0.89323 0.38819 0.33857 0.0
C333 C 0.8716 0.3615 0.36685 0.0
N334 N 0.90891 0.38145 0.29691 0.0
N335 N 0.87361 0.33777 0.34333 0.0
H336 H 0.90443 0.33742 0.2756 0.0
H337 H 0.89722 0.41093 0.34873 0.0
C338 C 0.93883 0.4708 0.25378 0.0
O339 O 0.96571 0.48764 0.22797 0.0
N340 N 0.97296 0.4382 0.18338 0.0
C341 C 1.00155 0.44221 0.17888 0.0
C342 C 0.01667 0.46154 0.13059 0.0
C343 C 0.97065 0.45401 0.13532 0.0
N344 N 0.99743 0.46936 0.10367 0.0
C345 C 0.97324 0.40148 0.33773 0.0
C346 C 0.02063 0.46136 0.34993 0.0
C347 C 0.02314 0.43779 0.37848 0.0
C348 C 0.99858 0.40775 0.37372 0.0
C349 C 0.99428 0.45413 0.31519 0.0
N350 N 0.9714 0.42427 0.30749 0.0
H351 H 0.95615 0.37775 0.33061 0.0
H352 H 0.99382 0.47234 0.29072 0.0
H353 H 1.01081 0.43161 0.20859 0.0
H354 H 0.94987 0.45446 0.12406 0.0
O355 O 0.94844 0.37851 0.2121 0.0
O356 O 0.91433 0.38913 0.17134 0.0
O357 O 0.92749 0.44177 0.2613 0.0
C358 C 0.92757 0.3724 0.17103 0.0
H359 H 0.85614 0.35985 0.40317 0.0
H360 H 0.04025 0.46968 0.11696 0.0
H361 H 0.03916 0.48495 0.35305 0.0
H362 H 0.99968 0.38888 0.39508 0.0
Co363 Co 0.6191 0.53955 0.23031 0.0
C364 C 0.67586 0.55569 0.30743 0.0
C365 C 0.64962 0.5083 0.28313 0.0
C366 C 0.6764 0.5134 0.31053 0.0
N367 N 0.6485 0.53455 0.28214 0.0
N368 N 0.69306 0.54323 0.3267 0.0
H369 H 0.68429 0.58001 0.3078 0.0
H370 H 0.63323 0.48719 0.26075 0.0
C371 C 0.57845 0.4824 0.30134 0.0
O372 O 0.59324 0.49811 0.35021 0.0
N373 N 0.59064 0.5437 0.17591 0.0
C374 C 0.588 0.56886 0.16847 0.0
C375 C 0.56587 0.56276 0.12472 0.0
C376 C 0.57034 0.52275 0.13595 0.0
N377 N 0.55461 0.53372 0.10414 0.0
C378 C 0.62682 0.5838 0.32087 0.0
C379 C 0.56515 0.56303 0.34103 0.0
C380 C 0.58709 0.59194 0.36344 0.0
C381 C 0.61817 0.60182 0.35447 0.0
C382 C 0.57487 0.54538 0.30774 0.0
N383 N 0.60552 0.55605 0.29716 0.0
H384 H 0.65067 0.59381 0.30941 0.0
H385 H 0.55766 0.52432 0.28646 0.0
H386 H 0.60128 0.59021 0.19315 0.0
H387 H 0.56792 0.50033 0.12922 0.0
O388 O 0.65189 0.57825 0.20182 0.0
O389 O 0.63907 0.53344 0.15881 0.0
O390 O 0.58564 0.49528 0.24849 0.0
C391 C 0.65698 0.56324 0.15968 0.0
H392 H 0.6839 0.49669 0.31326 0.0
H393 H 0.55853 0.57856 0.10948 0.0
H394 H 0.54083 0.55474 0.34708 0.0
H395 H 0.63572 0.62415 0.37083 0.0
Co396 Co 0.55272 0.93866 0.76219 0.0
C397 C 0.56035 0.88727 0.70872 0.0
C398 C 0.53637 0.90143 0.64805 0.0
C399 C 0.53997 0.87885 0.61947 0.0
N400 N 0.54941 0.90706 0.70409 0.0
N401 N 0.55534 0.8701 0.65753 0.0
H402 H 0.57202 0.88533 0.7483 0.0
H403 H 0.52527 0.91322 0.62883 0.0
C404 C 0.48912 0.9352 0.75001 0.0
O405 O 0.49894 0.96147 0.77836 0.0
N406 N 0.55652 0.9698 0.82131 0.0
C407 C 0.58079 0.99855 0.82498 0.0
C408 C 0.57659 0.01366 0.87331 0.0
C409 C 0.53864 0.96739 0.87013 0.0
N410 N 0.55006 0.99417 0.90187 0.0
C411 C 0.59278 0.97178 0.66527 0.0
C412 C 0.58095 0.01982 0.66134 0.0
C413 C 0.60826 0.02381 0.63516 0.0
C414 C 0.61297 0.99861 0.63433 0.0
C415 C 0.56084 0.9921 0.6911 0.0
N416 N 0.56791 0.96919 0.69619 0.0
H417 H 0.59898 0.95415 0.66923 0.0
H418 H 0.54177 0.99092 0.71557 0.0
H419 H 0.60031 1.00806 0.79426 0.0
H420 H 0.51751 0.94662 0.88168 0.0
O421 O 0.59269 0.94678 0.78733 0.0
O422 O 0.5497 0.912 0.83139 0.0
O423 O 0.5071 0.92401 0.74299 0.0
C424 C 0.57979 0.92581 0.82871 0.0
H425 H 0.53142 0.86934 0.57451 0.0
H426 H 0.59158 0.03753 0.88527 0.0
H427 H 0.5763 0.03864 0.66311 0.0
H428 H 0.6333 1.00027 0.61326 0.0
Co429 Co 0.0875 0.61677 0.77138 0.0
C430 C 0.13552 0.6774 0.71754 0.0
C431 C 0.12919 0.63894 0.66398 0.0
C432 C 0.15087 0.66556 0.63553 0.0
N433 N 0.11952 0.6462 0.71577 0.0
N434 N 0.15478 0.68981 0.66905 0.0
H435 H 0.13263 0.69101 0.75238 0.0
H436 H 0.12089 0.61583 0.64743 0.0
C437 C 0.08918 0.5563 0.75373 0.0
O438 O 0.06219 0.54004 0.77966 0.0
N439 N 0.05579 0.58822 0.82776 0.0
C440 C 0.02691 0.58351 0.83128 0.0
C441 C 1.01189 0.56425 0.87957 0.0
C442 C 0.05831 0.57275 0.87627 0.0
N443 N 0.03154 0.55739 0.90787 0.0
C444 C 0.05563 0.62758 0.67717 0.0
C445 C 1.00908 0.56792 0.65754 0.0
C446 C 1.00671 0.59208 0.63152 0.0
C447 C 0.03078 0.62209 0.64028 0.0
C448 C 0.03488 0.57443 0.69355 0.0
N449 N 0.05739 0.60411 0.7047 0.0
H450 H 0.07267 0.65115 0.68663 0.0
H451 H 0.03522 0.55563 0.71564 0.0
H452 H 0.01744 0.59374 0.80116 0.0
H453 H 0.07921 0.57267 0.88806 0.0
O454 O 0.08015 0.64818 0.80306 0.0
O455 O 0.1143 0.63732 0.84213 0.0
O456 O 0.10127 0.5856 0.74816 0.0
C457 C 0.10052 0.65355 0.84478 0.0
H458 H 0.16321 0.66684 0.59393 0.0
H459 H 0.98813 0.55562 0.89241 0.0
H460 H 0.99094 0.54437 0.65115 0.0
H461 H 0.0298 0.64135 0.6206 0.0
Co462 Co 0.40933 0.47321 0.7665 0.0
C463 C 0.34967 0.46398 0.71283 0.0
C464 C 0.38795 0.49008 0.65344 0.0
C465 C 0.36139 0.48549 0.62474 0.0
N466 N 0.38068 0.47624 0.70867 0.0
N467 N 0.33713 0.46877 0.66185 0.0
H468 H 0.33637 0.45204 0.75253 0.0
H469 H 0.41092 0.50194 0.63441 0.0
C470 C 0.46858 0.53688 0.75948 0.0
O471 O 0.48417 0.52628 0.78832 0.0
N472 N 0.43666 0.46973 0.82593 0.0
C473 C 0.44307 0.44669 0.82836 0.0
C474 C 0.46141 0.45088 0.87845 0.0
C475 C 0.44985 0.48665 0.87712 0.0
N476 N 0.46584 0.47609 0.9091 0.0
C477 C 0.40476 0.43577 0.66593 0.0
C478 C 0.46549 0.45012 0.65987 0.0
C479 C 0.44316 0.42431 0.62835 0.0
C480 C 0.41272 0.41795 0.62981 0.0
C481 C 0.4566 0.46798 0.69464 0.0
N482 N 0.42627 0.45997 0.69957 0.0
H483 H 0.38064 0.42848 0.6704 0.0
H484 H 0.47391 0.48624 0.72148 0.0
H485 H 0.43496 0.428 0.79581 0.0
H486 H 0.44834 0.50666 0.88995 0.0
O487 O 0.37874 0.43257 0.78846 0.0
O488 O 0.38406 0.4737 0.83579 0.0
O489 O 0.43949 0.5193 0.75025 0.0
C490 C 0.36913 0.44368 0.83071 0.0
H491 H 0.36001 0.49301 0.57903 0.0
H492 H 0.47142 0.43687 0.89036 0.0
H493 H 0.48934 0.45582 0.65931 0.0
H494 H 0.39483 0.3982 0.60581 0.0
Co495 Co 0.14861 0.41746 0.56614 0.0
C496 C 0.13503 0.46215 0.63266 0.0
C497 C 0.17817 0.46726 0.66078 0.0
C498 C 0.17423 0.48966 0.68925 0.0
N499 N 0.15362 0.44986 0.62465 0.0
N500 N 0.14714 0.48655 0.67122 0.0
H501 H 0.11304 0.45376 0.61064 0.0
H502 H 0.19788 0.46425 0.66633 0.0
C503 C 0.20832 0.41693 0.59011 0.0
O504 O 0.19309 0.38701 0.58575 0.0
N505 N 0.14404 0.38725 0.50347 0.0
C506 C 0.11698 0.36295 0.48586 0.0
C507 C 0.12214 0.34726 0.44007 0.0
C508 C 0.16523 0.38657 0.46559 0.0
N509 N 0.15249 0.36179 0.42763 0.0
C510 C 0.12036 0.3893 0.68232 0.0
C511 C 0.11154 0.33162 0.6577 0.0
C512 C 0.09502 0.33486 0.70575 0.0
C513 C 0.10067 0.36447 0.71922 0.0
C514 C 0.13101 0.35706 0.62159 0.0
N515 N 0.13482 0.3858 0.6321 0.0
H516 H 0.12134 0.41062 0.69264 0.0
H517 H 0.14086 0.35212 0.58263 0.0
H518 H 0.09485 0.35664 0.50575 0.0
H519 H 0.18945 0.40359 0.466 0.0
O520 O 0.10807 0.40914 0.54754 0.0
O521 O 0.14962 0.44428 0.49945 0.0
O522 O 0.19479 0.43229 0.57811 0.0
C523 C 0.11969 0.43035 0.50622 0.0
H524 H 0.18996 0.50667 0.72141 0.0
H525 H 0.10471 0.32687 0.41705 0.0
H526 H 0.10862 0.30934 0.64639 0.0
H527 H 0.0884 0.36828 0.75592 0.0
Co528 Co 0.60554 0.73316 0.55898 0.0
C529 C 0.564 0.67683 0.63482 0.0
C530 C 0.54565 0.70671 0.62369 0.0
C531 C 0.52378 0.68025 0.65194 0.0
N532 N 0.57162 0.70539 0.61429 0.0
N533 N 0.53527 0.66137 0.65918 0.0
H534 H 0.57794 0.66631 0.62753 0.0
H535 H 0.54157 0.72455 0.607 0.0
C536 C 0.59265 0.77785 0.62452 0.0
O537 O 0.59711 0.76629 0.67482 0.0
N538 N 0.63731 0.75986 0.50065 0.0
C539 C 0.66404 0.76056 0.48938 0.0
C540 C 0.67952 0.78154 0.44344 0.0
C541 C 0.63685 0.78039 0.46091 0.0
N542 N 0.6624 0.79393 0.42506 0.0
C543 C 0.63909 0.72763 0.6591 0.0
C544 C 0.6855 0.78825 0.66427 0.0
C545 C 0.68847 0.76624 0.69835 0.0
C546 C 0.66452 0.73583 0.69638 0.0
C547 C 0.65901 0.77908 0.62806 0.0
N548 N 0.63632 0.74883 0.62494 0.0
H549 H 0.62281 0.70367 0.6548 0.0
H550 H 0.65756 0.79601 0.60001 0.0
H551 H 0.67183 0.74684 0.51319 0.0
H552 H 0.61797 0.78489 0.45742 0.0
O553 O 0.61177 0.69982 0.53693 0.0
O554 O 0.57883 0.70992 0.48979 0.0
O555 O 0.59471 0.76703 0.57241 0.0
C556 C 0.59087 0.69217 0.4954 0.0
H557 H 0.5007 0.67487 0.66407 0.0
H558 H 0.70198 0.78756 0.4257 0.0
H559 H 0.70358 0.81208 0.66482 0.0
H560 H 0.66608 0.71811 0.72163 0.0
Co561 Co 0.28993 0.87495 0.55992 0.0
C562 C 0.34787 0.8898 0.6305 0.0
C563 C 0.31578 0.84168 0.62768 0.0
C564 C 0.34263 0.84608 0.65389 0.0
N565 N 0.3183 0.86909 0.61422 0.0
N566 N 0.36309 0.87637 0.65518 0.0
H567 H 0.35904 0.91407 0.62048 0.0
H568 H 0.29666 0.81953 0.61545 0.0
C569 C 0.24464 0.81934 0.63022 0.0
O570 O 0.25691 0.83609 0.67953 0.0
N571 N 0.26292 0.88033 0.50287 0.0
C572 C 0.26437 0.90714 0.48916 0.0
C573 C 0.24317 0.90213 0.44396 0.0
C574 C 0.24084 0.85932 0.46535 0.0
N575 N 0.22822 0.87206 0.42898 0.0
C576 C 0.29878 0.9166 0.65743 0.0
C577 C 0.2386 0.9041 0.6652 0.0
C578 C 0.26159 0.92944 0.697 0.0
C579 C 0.29179 0.93506 0.69383 0.0
C580 C 0.24655 0.88561 0.62994 0.0
N581 N 0.27654 0.8923 0.62549 0.0
H582 H 0.32256 0.92339 0.652 0.0
H583 H 0.22883 0.8669 0.60359 0.0
H584 H 0.27999 0.92897 0.51027 0.0
H585 H 0.23482 0.83546 0.46342 0.0
O586 O 0.32377 0.91316 0.53315 0.0
O587 O 0.31008 0.86808 0.48995 0.0
O588 O 0.25523 0.83115 0.57738 0.0
C589 C 0.32873 0.89778 0.4916 0.0
H590 H 0.34693 0.82812 0.66924 0.0
H591 H 0.23897 0.91935 0.42381 0.0
H592 H 0.21492 0.89893 0.66686 0.0
H593 H 0.31026 0.95458 0.71728 0.0
C594 C 0.27437 0.2685 0.26879 0.0
C595 C 0.25501 0.24441 0.22953 0.0
C596 C 0.29914 0.26865 0.29847 0.0
C597 C 0.30601 0.24496 0.28921 0.0
H598 H 0.27163 0.28848 0.27326 0.0
H599 H 0.31407 0.2884 0.32639 0.0
S600 S 0.25956 0.17441 0.19732 0.0
N601 N 0.24201 0.19455 0.18802 0.0
N602 N 0.28902 0.19489 0.2433 0.0
C603 C 0.28529 0.21944 0.25398 0.0
C604 C 0.25976 0.21923 0.22399 0.0
C605 C 0.77676 0.04537 0.17943 0.0
C606 C 0.7785 0.02155 0.20991 0.0
C607 C 0.77834 0.07025 0.2114 0.0
C608 C 0.78184 0.07243 0.27515 0.0
H609 H 0.77247 0.04397 0.13059 0.0
H610 H 0.77495 0.08696 0.18651 0.0
S611 S 0.79013 0.01791 0.37643 0.0
N612 N 0.78616 1.003 0.30715 0.0
N613 N 0.78903 0.05001 0.36769 0.0
C614 C 0.78561 0.04996 0.30599 0.0
C615 C 0.78408 0.02449 0.27321 0.0
C616 C 0.98001 0.76447 0.19935 0.0
C617 C 1.0106 0.77518 0.21776 0.0
C618 C 0.95523 0.74002 0.23013 0.0
C619 C 0.96046 0.72521 0.27935 0.0
H620 H 0.97535 0.77355 0.15834 0.0
H621 H 0.93212 0.7313 0.21274 0.0
S622 S 0.0361 0.7461 0.34751 0.0
N623 N 0.04451 0.77052 0.29037 0.0
N624 N 0.99822 0.72456 0.34795 0.0
C625 C 0.9908 0.73696 0.30024 0.0
C626 C 0.01584 0.76196 0.26943 0.0
C627 C 0.74355 0.77843 0.70903 0.0
C628 C 0.71596 0.77359 0.73627 0.0
C629 C 0.76654 0.77703 0.74404 0.0
C630 C 0.76232 0.77028 0.80709 0.0
H631 H 0.74649 0.78133 0.65988 0.0
H632 H 0.7866 0.77912 0.72094 0.0
S633 S 0.69579 0.75975 0.90078 0.0
N634 N 0.68733 0.76508 0.83049 0.0
N635 N 0.72964 0.76193 0.89592 0.0
C636 C 0.73566 0.76745 0.83506 0.0
C637 C 0.7127 0.76922 0.79977 0.0
C638 C 0.26602 0.97981 0.82887 0.0
C639 C 0.2587 1.00093 0.80232 0.0
C640 C 0.26434 0.95527 0.79559 0.0
C641 C 0.25535 0.95063 0.73395 0.0
H642 H 0.27441 0.98287 0.87552 0.0
H643 H 0.27168 0.94068 0.81745 0.0
S644 S 0.23133 0.99745 0.64341 0.0
N645 N 0.23989 0.01413 0.71152 0.0
N646 N 0.23702 0.96783 0.64815 0.0
C647 C 0.24606 0.97025 0.70746 0.0
C648 C 0.24766 0.99544 0.74183 0.0
C649 C 0.04396 0.28794 0.83729 0.0
C650 C 0.0201 0.26166 0.80877 0.0
C651 C 0.06889 0.31032 0.80413 0.0
C652 C 0.07095 0.3079 0.74043 0.0
H653 H 0.04294 0.29178 0.88589 0.0
H654 H 0.08623 0.3303 0.8285 0.0
S655 S 1.0149 0.24302 0.64362 0.0
N656 N 1.00067 0.23358 0.71362 0.0
N657 N 0.04717 0.2763 0.64996 0.0
C658 C 0.04787 0.28105 0.71135 0.0
C659 C 0.02251 0.25782 0.74578 0.0
C660 C 0.92833 0.58161 0.58975 0.0
C661 C 0.93298 0.59152 0.52841 0.0
C662 C 0.95154 0.57958 0.62251 0.0
C663 C 0.97978 0.58705 0.59456 0.0
H664 H 0.90756 0.5772 0.6135 0.0
H665 H 0.94807 0.57383 0.67075 0.0
S666 S 1.00161 0.60977 0.43309 0.0
N667 N 0.96702 0.60572 0.43971 0.0
N668 N 1.00979 0.60158 0.5012 0.0
C669 C 0.98371 0.59485 0.53246 0.0
C670 C 0.96051 0.59714 0.4994 0.0
C671 C 0.44574 0.39992 0.53142 0.0
C672 C 0.45039 0.40299 0.59488 0.0
C673 C 0.44444 0.37507 0.4999 0.0
C674 C 0.44761 0.3521 0.53043 0.0
H675 H 0.44121 0.41587 0.50652 0.0
H676 H 0.43907 0.37299 0.45149 0.0
S677 S 0.46264 0.35093 0.69613 0.0
N678 N 0.46029 0.38234 0.6871 0.0
N679 N 0.45786 0.33534 0.62735 0.0
C680 C 0.45443 0.35599 0.59328 0.0
C681 C 0.45574 0.3815 0.62566 0.0
C682 C 0.66403 0.06391 0.63041 0.0
C683 C 0.6334 0.05432 0.61365 0.0
C684 C 0.68888 0.08965 0.60354 0.0
C685 C 0.68418 0.10734 0.55996 0.0
H686 H 0.66896 0.05044 0.66229 0.0
H687 H 0.71201 0.09443 0.61367 0.0
S688 S 0.60882 0.09486 0.50572 0.0
N689 N 0.59986 0.06639 0.55419 0.0
N690 N 0.64676 0.11564 0.50577 0.0
C691 C 0.65378 0.0998 0.54679 0.0
C692 C 0.62831 0.07314 0.57331 0.0
C693 C 0.42717 0.07928 0.06972 0.0
C694 C 0.44738 0.10345 0.10794 0.0
C695 C 0.40284 0.0799 0.03981 0.0
C696 C 0.3971 0.10442 0.04802 0.0
H697 H 0.42886 0.05865 0.06634 0.0
H698 H 0.3873 0.06008 0.01269 0.0
S699 S 0.44614 0.17553 0.13664 0.0
N700 N 0.46278 0.15456 0.14602 0.0
N701 N 0.41604 0.15523 0.09198 0.0
C702 C 0.4187 0.12999 0.08205 0.0
C703 C 0.44403 0.12957 0.11166 0.0
C704 C 0.9002 0.31698 0.14292 0.0
C705 C 0.9207 0.34769 0.12671 0.0
C706 C 0.9014 0.29257 0.11387 0.0
C707 C 0.92343 0.29822 0.06823 0.0
H708 H 0.88452 0.31184 0.18097 0.0
H709 H 0.88641 0.26939 0.13 0.0
S710 S 0.97917 0.37445 1.00366 0.0
N711 N 0.96138 0.38223 0.05846 0.0
N712 N 0.96335 0.33669 1.00273 0.0
C713 C 0.94231 0.32874 0.04844 0.0
C714 C 0.94103 0.35341 0.07803 0.0
C715 C 0.67606 0.59602 0.0678 0.0
C716 C 0.68171 0.58064 0.11513 0.0
C717 C 0.70035 0.62098 0.0376 0.0
C718 C 0.73122 0.63162 0.05389 0.0
H719 H 0.65266 0.59014 0.05706 0.0
H720 H 0.69489 0.63311 1.00337 0.0
S721 S 0.75816 0.59804 0.17282 0.0
N722 N 0.72026 0.57676 0.17524 0.0
N723 N 0.76607 0.62357 0.11799 0.0
C724 C 0.73723 0.61524 0.09861 0.0
C725 C 0.71241 0.58983 0.12954 0.0
C726 C 0.59548 0.91098 0.92771 0.0
C727 C 0.59938 0.91683 0.86433 0.0
C728 C 0.61823 0.9091 0.96264 0.0
C729 C 0.6452 0.91252 0.93499 0.0
H730 H 0.57596 0.91002 0.95101 0.0
H731 H 0.61566 0.90698 0.01196 0.0
S732 S 0.66422 0.92368 0.76978 0.0
N733 N 0.63104 0.92289 0.77494 0.0
N734 N 0.67283 0.91879 0.84026 0.0
C735 C 0.64805 0.91598 0.87129 0.0
C736 C 0.62538 0.91826 0.83607 0.0
C737 C 0.07997 0.67124 0.92806 0.0
C738 C 0.10554 0.67627 0.89307 0.0
C739 C 0.07946 0.69527 0.9596 0.0
C740 C 0.10413 0.72577 0.95597 0.0
H741 H 0.05941 0.64878 0.92825 0.0
H742 H 0.05883 0.69 0.98493 0.0
S743 S 0.17828 0.75023 0.87642 0.0
N744 N 0.15774 0.71296 0.86262 0.0
N745 N 0.15635 0.75877 0.91893 0.0
C746 C 0.13082 0.73068 0.92458 0.0
C747 C 0.13156 0.70582 0.89362 0.0
C748 C 0.31006 0.40538 0.95965 0.0
C749 C 0.29101 0.37566 0.93562 0.0
C750 C 0.33452 0.42836 0.92476 0.0
C751 C 0.34073 0.42209 0.86515 0.0
H752 H 0.3072 0.41031 0.00675 0.0
H753 H 0.3496 0.45043 0.94574 0.0
S754 S 0.2951 0.34861 0.77987 0.0
N755 N 0.27818 0.34225 0.84731 0.0
N756 N 0.32354 0.38448 0.78217 0.0
C757 C 0.32039 0.39293 0.83979 0.0
C758 C 0.2957 0.36998 0.87488 0.0
C759 C 0.04764 0.43379 0.47378 0.0
C760 C 0.05099 0.44328 0.4126 0.0
C761 C 0.07094 0.43154 0.50393 0.0
C762 C 0.09875 0.43869 0.47438 0.0
H763 H 0.02612 0.4265 0.49761 0.0
H764 H 0.06642 0.42281 0.55037 0.0
S765 S 0.11984 0.46694 0.31522 0.0
N766 N 0.08482 0.46173 0.32399 0.0
N767 N 0.12908 0.45774 0.38139 0.0
C768 C 0.10329 0.45012 0.41431 0.0
C769 C 0.07927 0.45233 0.38323 0.0
C770 C 0.58093 0.63868 0.49143 0.0
C771 C 0.58123 0.66344 0.46047 0.0
C772 C 0.57971 0.61387 0.45961 0.0
C773 C 0.57877 0.61281 0.39547 0.0
H774 H 0.58354 0.63931 0.54074 0.0
H775 H 0.58169 0.59648 0.48517 0.0
S776 S 0.57663 0.67027 0.29252 0.0
N777 N 0.5782 0.68411 0.36204 0.0
N778 N 0.57623 0.63745 0.30182 0.0
C779 C 0.57704 0.6363 0.3639 0.0
C780 C 0.57807 0.6616 0.39651 0.0
C781 C 0.38439 0.93126 0.47215 0.0
C782 C 0.35429 0.91473 0.44866 0.0
C783 C 0.40791 0.95593 0.43967 0.0
C784 C 0.40183 0.9653 0.38333 0.0
H785 H 0.38928 0.92642 0.5178 0.0
H786 H 0.43033 0.96911 0.46084 0.0
S787 S 0.32745 0.92772 0.29993 0.0
N788 N 0.32024 0.90783 0.36399 0.0
N789 N 0.36424 0.95426 0.30276 0.0
C790 C 0.3723 0.94763 0.35763 0.0
C791 C 0.34854 0.92231 0.39039 0.0
C792 C 0.19107 0.37374 0.34511 0.0
C793 C 0.16746 0.35219 0.38292 0.0
C794 C 0.20454 0.36441 0.29931 0.0
C795 C 0.19509 0.33312 0.28946 0.0
H796 H 0.19873 0.39794 0.35011 0.0
H797 H 0.22229 0.38189 0.27082 0.0
S798 S 0.1366 0.26789 0.38112 0.0
N799 N 0.13683 0.29829 0.41048 0.0
N800 N 0.16212 0.28092 0.32512 0.0
C801 C 0.17198 0.31144 0.32801 0.0
C802 C 0.15825 0.32092 0.37451 0.0
C803 C 0.66351 0.84092 0.38518 0.0
C804 C 0.67038 0.81714 0.37783 0.0
C805 C 0.67245 0.86439 0.34105 0.0
C806 C 0.68866 0.86517 0.28746 0.0
H807 H 0.65165 0.84174 0.426 0.0
H808 H 0.66699 0.88236 0.34943 0.0
S809 S 0.70856 0.80603 0.24219 0.0
N810 N 0.69201 0.79449 0.30984 0.0
N811 N 0.70868 0.83829 0.22754 0.0
C812 C 0.69493 0.84107 0.27885 0.0
C813 C 0.68582 0.81719 0.32371 0.0
C814 C 0.18196 0.85987 0.28367 0.0
C815 C 0.15645 0.83021 0.29125 0.0
C816 C 0.20532 0.87321 0.32845 0.0
C817 C 0.20427 0.85748 0.38281 0.0
H818 H 0.18422 0.8726 0.24219 0.0
H819 H 0.22465 0.89591 0.32001 0.0
S820 S 0.14058 0.78088 0.42861 0.0
N821 N 0.13035 0.78668 0.36028 0.0
N822 N 0.17417 0.81156 0.44342 0.0
C823 C 0.17853 0.82814 0.39158 0.0
C824 C 0.15469 0.81461 0.34621 0.0
C825 C 0.81815 0.67176 0.6684 0.0
C826 C 0.83407 0.68806 0.72149 0.0
C827 C 0.83246 0.66336 0.62283 0.0
C828 C 0.86342 0.67106 0.62798 0.0
H829 H 0.79445 0.66575 0.66146 0.0
H830 H 0.8194 0.65143 0.58245 0.0
S831 S 0.91474 0.7109 0.76005 0.0
N832 N 0.88213 0.7096 0.778 0.0
N833 N 0.90906 0.69427 0.69224 0.0
C834 C 0.87952 0.68689 0.68115 0.0
C835 C 0.8649 0.6953 0.72778 0.0
C836 C 0.3577 0.15426 0.66311 0.0
C837 C 0.34203 0.15427 0.71692 0.0
C838 C 0.36614 0.17699 0.61766 0.0
C839 C 0.35926 0.2008 0.62375 0.0
H840 H 0.36326 0.1363 0.65564 0.0
H841 H 0.37769 0.17559 0.5769 0.0
S842 S 0.32116 0.21317 0.75822 0.0
N843 N 0.32169 0.18143 0.77491 0.0
N844 N 0.33746 0.22397 0.69017 0.0
C845 C 0.344 0.20137 0.67775 0.0
C846 C 0.3354 0.17819 0.724 0.0
C847 C 0.84609 0.19821 0.63775 0.0
C848 C 0.82661 0.16619 0.63424 0.0
C849 C 0.86784 0.21177 0.68521 0.0
C850 C 0.87109 0.19393 0.7313 0.0
H851 H 0.84499 0.21285 0.60274 0.0
H852 H 0.88252 0.23648 0.6854 0.0
S853 S 0.82339 0.1093 0.74673 0.0
N854 N 0.81058 0.11717 0.68361 0.0
N855 N 0.85126 0.14257 0.77233 0.0
C856 C 0.85133 0.16192 0.72894 0.0
C857 C 0.82917 0.14812 0.68067 0.0
C858 C 0.4901 0.99917 0.9984 0.0
C859 C 0.50762 0.02019 0.04497 0.0
C860 C 0.50393 0.99025 0.95272 0.0
C861 C 0.53591 1.0019 0.95167 0.0
H862 H 0.46542 0.98965 0.99707 0.0
H863 H 0.48954 0.97457 0.91726 0.0
S864 S 0.59181 0.05502 0.06673 0.0
N865 N 0.55848 0.05077 0.0892 0.0
N866 N 0.58444 0.03401 0.00407 0.0
C867 C 0.55364 0.02249 0.99865 0.0
C868 C 0.53955 0.03165 0.04498 0.0
C869 C 0.03355 0.51431 0.95877 0.0
C870 C 0.02417 0.53642 0.95874 0.0
C871 C 0.02434 0.4922 0.00568 0.0
C872 C 1.00533 0.49127 0.05427 0.0
H873 H 0.04752 0.51369 0.92155 0.0
H874 H 0.03189 0.47546 1.00363 0.0
S875 S 0.97815 0.54678 0.07955 0.0
N876 N 0.99719 0.5577 0.01421 0.0
N877 N 0.97991 0.51633 0.10187 0.0
C878 C 0.99651 0.51378 0.05544 0.0
C879 C 1.00595 0.53628 0.00789 0.0
C880 C 0.50619 0.52229 0.96271 0.0
C881 C 0.4864 0.4903 0.96064 0.0
C882 C 0.52829 0.53616 0.00945 0.0
C883 C 0.53151 0.5187 0.05653 0.0
H884 H 0.50524 0.53662 0.9268 0.0
H885 H 0.54344 0.56077 0.00781 0.0
S886 S 0.48291 0.43425 0.07523 0.0
N887 N 0.47004 0.44173 0.01178 0.0
N888 N 0.51103 0.46762 0.09985 0.0
C889 C 0.51119 0.48672 0.05578 0.0
C890 C 0.48881 0.47262 0.00794 0.0
C891 C 0.25874 0.18191 0.03024 0.0
C892 C 0.23527 0.18097 0.99353 0.0
C893 C 0.27078 0.16238 0.01909 0.0
C894 C 0.26051 0.14138 0.9697 0.0
H895 H 0.26721 0.19713 0.06933 0.0
H896 H 0.28805 0.16347 0.05035 0.0
S897 S 0.20301 0.13323 0.85347 0.0
N898 N 0.20466 0.15953 0.90127 0.0
N899 N 0.22753 0.1232 0.87997 0.0
C900 C 0.2385 0.14159 0.93012 0.0
C901 C 0.22585 0.16121 0.94208 0.0
C902 C 0.85294 0.1091 0.99408 0.0
C903 C 0.87965 0.1201 0.95781 0.0
C904 C 0.83622 0.07824 0.01333 0.0
C905 C 0.84498 0.05663 0.99603 0.0
H906 H 0.84492 0.12459 0.00803 0.0
H907 H 0.81638 0.07147 0.04234 0.0
S908 S 0.91155 0.07336 0.89516 0.0
N909 N 0.91339 0.10691 0.90299 0.0
N910 N 0.88141 0.04876 0.93555 0.0
C911 C 0.87142 0.06739 0.95832 0.0
C912 C 0.88883 0.09906 0.94016 0.0
C913 C 0.95639 0.81401 0.9733 0.0
C914 C 0.96942 0.79527 0.98618 0.0
C915 C 0.92469 0.80144 0.96096 0.0
C916 C 0.90443 0.76956 0.96156 0.0
H917 H 0.97049 0.83874 0.97476 0.0
H918 H 0.91576 0.81686 0.95393 0.0
S919 S 0.92625 0.70985 0.98481 0.0
N920 N 0.959 0.74255 0.99167 0.0
N921 N 0.89971 0.71937 0.97164 0.0
C922 C 0.91708 0.75051 0.97215 0.0
C923 C 0.94937 0.76319 0.98365 0.0
C924 C 0.78353 0.87564 0.98241 0.0
C925 C 0.77878 0.88429 0.04117 0.0
C926 C 0.79303 0.85391 0.97418 0.0
C927 C 0.79822 0.83942 0.02421 0.0
H928 H 0.78008 0.88588 0.94178 0.0
H929 H 0.7967 0.84877 0.92783 0.0
S930 S 0.78843 0.85306 0.18819 0.0
N931 N 0.7799 0.87631 0.15067 0.0
N932 N 0.79697 0.83494 0.1354 0.0
C933 C 0.79342 0.84767 0.08348 0.0
C934 C 0.78386 0.87009 0.09186 0.0
C935 C 0.17358 0.95337 0.06283 0.0
C936 C 0.19154 0.96422 0.00916 0.0
C937 C 0.15255 0.92182 0.07187 0.0
C938 C 0.14817 0.89971 0.02712 0.0
H939 H 0.17561 0.96952 0.09795 0.0
H940 H 0.13903 0.91487 0.11354 0.0
S941 S 0.18955 0.91612 0.87809 0.0
N942 N 0.20337 0.95014 0.91067 0.0
N943 N 0.16453 0.89131 0.92731 0.0
C944 C 0.16645 0.91031 0.97364 0.0
C945 C 0.18792 0.94235 0.96474 0.0
C946 C 0.10324 0.226 0.07215 0.0
C947 C 0.12653 0.24971 0.03707 0.0
C948 C 0.07189 0.21684 0.06357 0.0
C949 C 0.06238 0.23126 0.02012 0.0
H950 H 0.10918 0.21379 0.10526 0.0
H951 H 0.05496 0.19789 0.0906 0.0
S952 S 0.11515 0.29758 0.92259 0.0
N953 N 0.13821 0.28886 0.96033 0.0
N954 N 0.08006 0.27291 0.9462 0.0
C955 C 0.08578 0.25588 0.98657 0.0
C956 C 0.11755 0.26476 0.99459 0.0
C957 C 0.90461 0.50958 0.35076 0.0
C958 C 0.89518 0.52364 0.30646 0.0
C959 C 0.91723 0.49105 0.3337 0.0
C960 C 0.92121 0.48614 0.27171 0.0
H961 H 0.90238 0.51307 0.39902 0.0
H962 H 0.92486 0.48136 0.36921 0.0
S963 S 0.90008 0.51687 0.13777 0.0
N964 N 0.89068 0.53068 0.19746 0.0
N965 N 0.91414 0.496 0.16612 0.0
C966 C 0.91151 0.49955 0.22714 0.0
C967 C 0.89851 0.51818 0.24427 0.0
C968 C 0.56538 0.43076 0.34137 0.0
C969 C 0.55641 0.44888 0.30796 0.0
C970 C 0.54514 0.39926 0.35089 0.0
C971 C 0.51467 0.38454 0.3288 0.0
H972 H 0.58843 0.441 0.36004 0.0
H973 H 0.55328 0.38637 0.3767 0.0
S974 S 0.4791 0.42204 0.24171 0.0
N975 N 0.51475 0.45001 0.25389 0.0
N976 N 0.47631 0.39093 0.27351 0.0
C977 C 0.50516 0.40252 0.29634 0.0
C978 C 0.52612 0.43459 0.28533 0.0
C979 C 0.59499 0.12849 0.29126 0.0
C980 C 0.57749 0.09655 0.28166 0.0
C981 C 0.62575 0.14252 0.3119 0.0
C982 C 0.64017 0.12519 0.32493 0.0
H983 H 0.5852 0.1429 0.28102 0.0
H984 H 0.63842 0.16722 0.31755 0.0
S985 S 0.60397 0.04057 0.31093 0.0
N986 N 0.57672 0.04787 0.28969 0.0
N987 N 0.63403 0.07418 0.32808 0.0
C988 C 0.6226 0.09317 0.31738 0.0
C989 C 0.59148 0.07892 0.29584 0.0
C990 C 0.47679 0.19026 0.38834 0.0
C991 C 0.46104 0.16475 0.3486 0.0
C992 C 0.46624 0.21115 0.39928 0.0
C993 C 0.43971 0.20774 0.37031 0.0
H994 H 0.49802 0.19474 0.40996 0.0
H995 H 0.47971 0.23082 0.42855 0.0
S996 S 0.38755 0.14334 0.26868 0.0
N997 N 0.41516 0.1359 0.28596 0.0
N998 N 0.39655 0.17581 0.30403 0.0
C999 C 0.42319 0.18198 0.33218 0.0
C1000 C 0.43352 0.16039 0.3219 0.0
C1001 C 0.85462 0.25802 0.39123 0.0
C1002 C 0.82286 0.24328 0.40463 0.0
C1003 C 0.87081 0.28848 0.36978 0.0
C1004 C 0.85612 0.30583 0.36185 0.0
H1005 H 0.86723 0.24592 0.39736 0.0
H1006 H 0.89521 0.29882 0.36088 0.0
S1007 S 0.77323 0.27813 0.38803 0.0
N1008 N 0.77727 0.2485 0.40648 0.0
N1009 N 0.80768 0.30565 0.36675 0.0
C1010 C 0.82434 0.29135 0.37423 0.0
C1011 C 0.80774 0.26016 0.39532 0.0
C1012 C 0.74416 0.59048 0.34197 0.0
C1013 C 0.72416 0.55885 0.35215 0.0
C1014 C 0.77446 0.60579 0.3649 0.0
C1015 C 0.78651 0.59021 0.39828 0.0
H1016 H 0.73667 0.60362 0.31526 0.0
H1017 H 0.78878 0.63007 0.35543 0.0
S1018 S 0.74372 0.50825 0.44307 0.0
N1019 N 0.71858 0.51322 0.40332 0.0
N1020 N 0.77583 0.5418 0.44287 0.0
C1021 C 0.76699 0.55877 0.40925 0.0
C1022 C 0.73583 0.54321 0.3872 0.0
C1023 C 0.57454 0.80754 0.68823 0.0
C1024 C 0.58296 0.80159 0.63023 0.0
C1025 C 0.56549 0.82965 0.69644 0.0
C1026 C 0.56436 0.84706 0.64714 0.0
H1027 H 0.57473 0.79488 0.72813 0.0
H1028 H 0.559 0.83286 0.74197 0.0
S1029 S 0.5859 0.84211 0.48618 0.0
N1030 N 0.59046 0.81592 0.5227 0.0
N1031 N 0.57392 0.85771 0.53814 0.0
C1032 C 0.57294 0.84161 0.58879 0.0
C1033 C 0.58211 0.81892 0.58039 0.0
C1034 C 0.21349 0.77316 0.69703 0.0
C1035 C 0.22071 0.7861 0.63775 0.0
C1036 C 0.19192 0.74199 0.70654 0.0
C1037 C 0.17628 0.72211 0.65756 0.0
H1038 H 0.22493 0.78708 0.73686 0.0
H1039 H 0.18804 0.73311 0.75265 0.0
S1040 S 0.18515 0.74417 0.49331 0.0
N1041 N 0.20948 0.77624 0.52903 0.0
N1042 N 0.16864 0.71787 0.54723 0.0
C1043 C 0.18285 0.73464 0.59799 0.0
C1044 C 0.20501 0.7665 0.58809 0.0
C1045 C 0.26412 0.46045 0.58988 0.0
C1046 C 0.24098 0.43187 0.6121 0.0
C1047 C 0.29532 0.47254 0.60689 0.0
C1048 C 0.30466 0.45681 0.64753 0.0
H1049 H 0.25828 0.47312 0.55774 0.0
H1050 H 0.31229 0.49438 0.58779 0.0
S1051 S 0.25216 0.38205 0.72212 0.0
N1052 N 0.22926 0.38919 0.67993 0.0
N1053 N 0.28712 0.41118 0.71056 0.0
C1054 C 0.28137 0.42863 0.67135 0.0
C1055 C 0.24983 0.41641 0.65397 0.0
C1056 C 0.08788 0.50739 0.72237 0.0
C1057 C 0.105 0.5396 0.73027 0.0
C1058 C 0.10167 0.49046 0.70236 0.0
C1059 C 0.13339 0.50475 0.69019 0.0
H1060 H 0.06342 0.49494 0.73169 0.0
H1061 H 0.08745 0.46581 0.69758 0.0
S1062 S 0.18869 0.58848 0.7006 0.0
N1063 N 0.15556 0.58515 0.72185 0.0
N1064 N 0.18145 0.55331 0.68506 0.0
C1065 C 0.15084 0.53693 0.69715 0.0
C1066 C 0.13668 0.55431 0.71678 0.0
C1067 C 0.47085 0.58127 0.69955 0.0
C1068 C 0.48581 0.56916 0.73484 0.0
C1069 C 0.48707 0.6112 0.67484 0.0
C1070 C 0.51906 0.63034 0.68375 0.0
H1071 H 0.44642 0.56751 0.69058 0.0
H1072 H 0.47447 0.61928 0.64783 0.0
S1073 S 0.56924 0.61074 0.77447 0.0
N1074 N 0.53491 0.57972 0.77855 0.0
N1075 N 0.56476 0.63536 0.73214 0.0
C1076 C 0.53426 0.61867 0.71904 0.0
C1077 C 0.51784 0.58836 0.74456 0.0
C1078 C 0.40796 0.91899 0.70834 0.0
C1079 C 0.39486 0.89098 0.67627 0.0
C1080 C 0.4381 0.93272 0.73205 0.0
C1081 C 0.45687 0.91931 0.72447 0.0
H1082 H 0.39453 0.9301 0.71631 0.0
H1083 H 0.44665 0.95416 0.75677 0.0
S1084 S 0.43443 0.8471 0.63927 0.0
N1085 N 0.4038 0.85115 0.63489 0.0
N1086 N 0.46004 0.87671 0.67953 0.0
C1087 C 0.44421 0.89154 0.69131 0.0
C1088 C 0.41342 0.87749 0.66729 0.0
loop_
_geom_bond_atom_site_label_1
_geom_bond_atom_site_label_2
_geom_bond_distance
_geom_bond_site_symmetry_2
_ccdc_geom_bond_type
Co0 N4 2.148 . S
Co0 N10 2.128 . S
Co0 N20 2.194 . S
Co0 O25 2.351 . S
Co0 O26 2.155 . S
Co0 O27 2.096 . S
C1 N4 1.301 . S
C1 N5 1.328 . S
C1 H6 0.930 . S
C2 C3 1.333 . S
C2 N4 1.317 . S
C2 H7 0.930 . S
C3 C2 1.333 . S
C3 N5 1.350 . S
C3 H29 0.931 1_554 S
N4 Co0 2.148 . S
N4 C1 1.301 . S
N4 C2 1.317 . S
N5 C1 1.328 . S
N5 C3 1.350 . S
H6 C1 0.930 . S
H7 C2 0.930 . S
C8 O9 1.224 . S
C8 O27 1.247 . S
O9 C8 1.224 . S
N10 Co0 2.128 . S
N10 C11 1.355 . S
N10 C13 1.311 . S
C11 N10 1.355 . S
C11 C12 1.363 . S
C11 H23 0.929 . S
C12 C11 1.363 . S
C12 N14 1.375 . S
C12 H30 0.931 . S
C13 N10 1.311 . S
C13 N14 1.347 . S
C13 H24 0.929 . S
N14 C12 1.375 . S
N14 C13 1.347 . S
C15 C18 1.365 . S
C15 N20 1.328 . S
C15 H21 0.929 . S
C16 C17 1.362 . S
C16 C19 1.378 1_556 S
C16 H31 0.929 . S
C17 C16 1.362 . S
C17 C18 1.366 1_556 S
C18 C15 1.365 . S
C18 C17 1.366 1_554 S
C18 H32 0.930 . S
C19 C16 1.378 1_554 S
C19 N20 1.315 . S
C19 H22 0.930 . S
N20 Co0 2.194 . S
N20 C15 1.328 . S
N20 C19 1.315 . S
H21 C15 0.929 . S
H22 C19 0.930 . S
H23 C11 0.929 . S
H24 C13 0.929 . S
O25 Co0 2.351 . S
O25 C28 1.244 . S
O26 Co0 2.155 . S
O26 C28 1.240 . S
O27 Co0 2.096 . S
O27 C8 1.247 . S
C28 O25 1.244 . S
C28 O26 1.240 . S
H29 C3 0.931 1_556 S
H30 C12 0.931 . S
H31 C16 0.929 . S
H32 C18 0.930 . S
Co33 N37 2.148 . S
Co33 N43 2.128 . S
Co33 N53 2.194 . S
Co33 O58 2.351 . S
Co33 O59 2.155 . S
Co33 O60 2.096 . S
C34 N37 1.301 1_545 S
C34 N38 1.328 . S
C34 H39 0.930 . S
C35 C36 1.333 1_565 S
C35 N37 1.317 . S
C35 H40 0.930 . S
C36 C35 1.333 1_545 S
C36 N38 1.350 . S
C36 H62 0.931 1_554 S
N37 Co33 2.148 . S
N37 C34 1.301 1_565 S
N37 C35 1.317 . S
N38 C34 1.328 . S
N38 C36 1.350 . S
H39 C34 0.930 . S
H40 C35 0.930 . S
C41 O42 1.224 . S
C41 O60 1.247 . S
O42 C41 1.224 . S
N43 Co33 2.128 . S
N43 C44 1.355 . S
N43 C46 1.311 . S
C44 N43 1.355 . S
C44 C45 1.363 . S
C44 H56 0.929 . S
C45 C44 1.363 . S
C45 N47 1.375 . S
C45 H63 0.931 . S
C46 N43 1.311 . S
C46 N47 1.347 . S
C46 H57 0.929 . S
N47 C45 1.375 . S
N47 C46 1.347 . S
C48 C51 1.365 . S
C48 N53 1.328 . S
C48 H54 0.929 . S
C49 C50 1.362 . S
C49 C52 1.378 1_556 S
C49 H64 0.929 . S
C50 C49 1.362 . S
C50 C51 1.366 1_556 S
C51 C48 1.365 . S
C51 C50 1.366 1_554 S
C51 H65 0.930 . S
C52 C49 1.378 1_554 S
C52 N53 1.315 . S
C52 H55 0.930 . S
N53 Co33 2.194 . S
N53 C48 1.328 . S
N53 C52 1.315 . S
H54 C48 0.929 . S
H55 C52 0.930 . S
H56 C44 0.929 . S
H57 C46 0.929 . S
O58 Co33 2.351 . S
O58 C61 1.244 . S
O59 Co33 2.155 . S
O59 C61 1.240 . S
O60 Co33 2.096 . S
O60 C41 1.247 . S
C61 O58 1.244 . S
C61 O59 1.240 . S
H62 C36 0.931 1_556 S
H63 C45 0.931 . S
H64 C49 0.929 . S
H65 C51 0.930 . S
Co66 N70 2.148 . S
Co66 N76 2.128 . S
Co66 N86 2.194 . S
Co66 O91 2.351 . S
Co66 O92 2.155 . S
Co66 O93 2.096 . S
C67 N70 1.301 1_655 S
C67 N71 1.328 . S
C67 H72 0.930 . S
C68 C69 1.333 1_455 S
C68 N70 1.317 . S
C68 H73 0.930 . S
C69 C68 1.333 1_655 S
C69 N71 1.350 . S
C69 H95 0.931 1_554 S
N70 Co66 2.148 . S
N70 C67 1.301 1_455 S
N70 C68 1.317 . S
N71 C67 1.328 . S
N71 C69 1.350 . S
H72 C67 0.930 . S
H73 C68 0.930 . S
C74 O75 1.224 . S
C74 O93 1.247 . S
O75 C74 1.224 . S
N76 Co66 2.128 . S
N76 C77 1.355 . S
N76 C79 1.311 . S
C77 N76 1.355 . S
C77 C78 1.363 . S
C77 H89 0.929 . S
C78 C77 1.363 . S
C78 N80 1.375 . S
C78 H96 0.931 . S
C79 N76 1.311 . S
C79 N80 1.347 . S
C79 H90 0.929 . S
N80 C78 1.375 . S
N80 C79 1.347 . S
C81 C84 1.365 . S
C81 N86 1.328 . S
C81 H87 0.929 . S
C82 C83 1.362 . S
C82 C85 1.378 1_556 S
C82 H97 0.929 . S
C83 C82 1.362 . S
C83 C84 1.366 1_556 S
C84 C81 1.365 . S
C84 C83 1.366 1_554 S
C84 H98 0.930 . S
C85 C82 1.378 1_554 S
C85 N86 1.315 . S
C85 H88 0.930 . S
N86 Co66 2.194 . S
N86 C81 1.328 . S
N86 C85 1.315 . S
H87 C81 0.929 . S
H88 C85 0.930 . S
H89 C77 0.929 . S
H90 C79 0.929 . S
O91 Co66 2.351 . S
O91 C94 1.244 . S
O92 Co66 2.155 . S
O92 C94 1.240 . S
O93 Co66 2.096 . S
O93 C74 1.247 . S
C94 O91 1.244 . S
C94 O92 1.240 . S
H95 C69 0.931 1_556 S
H96 C78 0.931 . S
H97 C82 0.929 . S
H98 C84 0.930 . S
Co99 N103 2.148 . S
Co99 N109 2.128 . S
Co99 N119 2.194 . S
Co99 O124 2.351 . S
Co99 O125 2.155 . S
Co99 O126 2.096 . S
C100 N103 1.301 . S
C100 N104 1.328 . S
C100 H105 0.930 . S
C101 C102 1.333 . S
C101 N103 1.317 . S
C101 H106 0.930 . S
C102 C101 1.333 . S
C102 N104 1.350 . S
C102 H128 0.931 1_556 S
N103 Co99 2.148 . S
N103 C100 1.301 . S
N103 C101 1.317 . S
N104 C100 1.328 . S
N104 C102 1.350 . S
H105 C100 0.930 . S
H106 C101 0.930 . S
C107 O108 1.224 . S
C107 O126 1.247 . S
O108 C107 1.224 . S
N109 Co99 2.128 . S
N109 C110 1.355 . S
N109 C112 1.311 . S
C110 N109 1.355 . S
C110 C111 1.363 . S
C110 H122 0.929 . S
C111 C110 1.363 . S
C111 N113 1.375 . S
C111 H129 0.931 . S
C112 N109 1.311 . S
C112 N113 1.347 . S
C112 H123 0.929 . S
N113 C111 1.375 . S
N113 C112 1.347 . S
C114 C117 1.365 . S
C114 N119 1.328 . S
C114 H120 0.929 . S
C115 C116 1.362 . S
C115 C118 1.378 1_554 S
C115 H130 0.929 . S
C116 C115 1.362 . S
C116 C117 1.366 1_554 S
C117 C114 1.365 . S
C117 C116 1.366 1_556 S
C117 H131 0.930 . S
C118 C115 1.378 1_556 S
C118 N119 1.315 . S
C118 H121 0.930 . S
N119 Co99 2.194 . S
N119 C114 1.328 . S
N119 C118 1.315 . S
H120 C114 0.929 . S
H121 C118 0.930 . S
H122 C110 0.929 . S
H123 C112 0.929 . S
O124 Co99 2.351 . S
O124 C127 1.244 . S
O125 Co99 2.155 . S
O125 C127 1.240 . S
O126 Co99 2.096 . S
O126 C107 1.247 . S
C127 O124 1.244 . S
C127 O125 1.240 . S
H128 C102 0.931 1_554 S
H129 C111 0.931 . S
H130 C115 0.929 . S
H131 C117 0.930 . S
Co132 N136 2.148 . S
Co132 N142 2.128 . S
Co132 N152 2.194 . S
Co132 O157 2.351 . S
Co132 O158 2.155 . S
Co132 O159 2.096 . S
C133 N136 1.301 1_565 S
C133 N137 1.328 . S
C133 H138 0.930 . S
C134 C135 1.333 1_545 S
C134 N136 1.317 . S
C134 H139 0.930 . S
C135 C134 1.333 1_565 S
C135 N137 1.350 . S
C135 H161 0.931 1_556 S
N136 Co132 2.148 . S
N136 C133 1.301 1_545 S
N136 C134 1.317 . S
N137 C133 1.328 . S
N137 C135 1.350 . S
H138 C133 0.930 . S
H139 C134 0.930 . S
C140 O141 1.224 . S
C140 O159 1.247 . S
O141 C140 1.224 . S
N142 Co132 2.128 . S
N142 C143 1.355 . S
N142 C145 1.311 . S
C143 N142 1.355 . S
C143 C144 1.363 . S
C143 H155 0.929 . S
C144 C143 1.363 . S
C144 N146 1.375 . S
C144 H162 0.931 . S
C145 N142 1.311 . S
C145 N146 1.347 . S
C145 H156 0.929 . S
N146 C144 1.375 . S
N146 C145 1.347 . S
C147 C150 1.365 . S
C147 N152 1.328 . S
C147 H153 0.929 . S
C148 C149 1.362 . S
C148 C151 1.378 1_554 S
C148 H163 0.929 . S
C149 C148 1.362 . S
C149 C150 1.366 1_554 S
C150 C147 1.365 . S
C150 C149 1.366 1_556 S
C150 H164 0.930 . S
C151 C148 1.378 1_556 S
C151 N152 1.315 . S
C151 H154 0.930 . S
N152 Co132 2.194 . S
N152 C147 1.328 . S
N152 C151 1.315 . S
H153 C147 0.929 . S
H154 C151 0.930 . S
H155 C143 0.929 . S
H156 C145 0.929 . S
O157 Co132 2.351 . S
O157 C160 1.244 . S
O158 Co132 2.155 . S
O158 C160 1.240 . S
O159 Co132 2.096 . S
O159 C140 1.247 . S
C160 O157 1.244 . S
C160 O158 1.240 . S
H161 C135 0.931 1_554 S
H162 C144 0.931 . S
H163 C148 0.929 . S
H164 C150 0.930 . S
Co165 N169 2.148 . S
Co165 N175 2.128 . S
Co165 N185 2.194 . S
Co165 O190 2.351 . S
Co165 O191 2.155 . S
Co165 O192 2.096 . S
C166 N169 1.301 1_455 S
C166 N170 1.328 . S
C166 H171 0.930 . S
C167 C168 1.333 1_655 S
C167 N169 1.317 . S
C167 H172 0.930 . S
C168 C167 1.333 1_455 S
C168 N170 1.350 . S
C168 H194 0.931 1_556 S
N169 Co165 2.148 . S
N169 C166 1.301 1_655 S
N169 C167 1.317 . S
N170 C166 1.328 . S
N170 C168 1.350 . S
H171 C166 0.930 . S
H172 C167 0.930 . S
C173 O174 1.224 . S
C173 O192 1.247 . S
O174 C173 1.224 . S
N175 Co165 2.128 . S
N175 C176 1.355 . S
N175 C178 1.311 . S
C176 N175 1.355 . S
C176 C177 1.363 . S
C176 H188 0.929 . S
C177 C176 1.363 . S
C177 N179 1.375 . S
C177 H195 0.931 . S
C178 N175 1.311 . S
C178 N179 1.347 . S
C178 H189 0.929 . S
N179 C177 1.375 . S
N179 C178 1.347 . S
C180 C183 1.365 . S
C180 N185 1.328 . S
C180 H186 0.929 . S
C181 C182 1.362 . S
C181 C184 1.378 1_554 S
C181 H196 0.929 . S
C182 C181 1.362 . S
C182 C183 1.366 1_554 S
C183 C180 1.365 . S
C183 C182 1.366 1_556 S
C183 H197 0.930 . S
C184 C181 1.378 1_556 S
C184 N185 1.315 . S
C184 H187 0.930 . S
N185 Co165 2.194 . S
N185 C180 1.328 . S
N185 C184 1.315 . S
H186 C180 0.929 . S
H187 C184 0.930 . S
H188 C176 0.929 . S
H189 C178 0.929 . S
O190 Co165 2.351 . S
O190 C193 1.244 . S
O191 Co165 2.155 . S
O191 C193 1.240 . S
O192 Co165 2.096 . S
O192 C173 1.247 . S
C193 O190 1.244 . S
C193 O191 1.240 . S
H194 C168 0.931 1_554 S
H195 C177 0.931 . S
H196 C181 0.929 . S
H197 C183 0.930 . S
Co198 N202 2.148 . S
Co198 N208 2.128 . S
Co198 N218 2.194 . S
Co198 O223 2.351 . S
Co198 O224 2.155 . S
Co198 O225 2.096 . S
C199 N202 1.301 . S
C199 N203 1.328 . S
C199 H204 0.930 . S
C200 C201 1.333 . S
C200 N202 1.317 . S
C200 H205 0.930 . S
C201 C200 1.333 . S
C201 N203 1.350 . S
C201 H227 0.931 . S
N202 Co198 2.148 . S
N202 C199 1.301 . S
N202 C200 1.317 . S
N203 C199 1.328 . S
N203 C201 1.350 . S
H204 C199 0.930 . S
H205 C200 0.930 . S
C206 O207 1.224 . S
C206 O225 1.247 . S
O207 C206 1.224 . S
N208 Co198 2.128 . S
N208 C209 1.355 . S
N208 C211 1.311 . S
C209 N208 1.355 . S
C209 C210 1.363 . S
C209 H221 0.929 . S
C210 C209 1.363 . S
C210 N212 1.375 . S
C210 H228 0.931 . S
C211 N208 1.311 . S
C211 N212 1.347 . S
C211 H222 0.929 . S
N212 C210 1.375 . S
N212 C211 1.347 . S
C213 C216 1.365 . S
C213 N218 1.328 . S
C213 H219 0.929 . S
C214 C215 1.362 . S
C214 C217 1.378 . S
C214 H229 0.929 . S
C215 C214 1.362 . S
C215 C216 1.366 . S
C216 C213 1.365 . S
C216 C215 1.366 . S
C216 H230 0.930 . S
C217 C214 1.378 . S
C217 N218 1.315 . S
C217 H220 0.930 . S
N218 Co198 2.194 . S
N218 C213 1.328 . S
N218 C217 1.315 . S
H219 C213 0.929 . S
H220 C217 0.930 . S
H221 C209 0.929 . S
H222 C211 0.929 . S
O223 Co198 2.351 . S
O223 C226 1.244 . S
O224 Co198 2.155 . S
O224 C226 1.240 . S
O225 Co198 2.096 . S
O225 C206 1.247 . S
C226 O223 1.244 . S
C226 O224 1.240 . S
H227 C201 0.931 . S
H228 C210 0.931 . S
H229 C214 0.929 . S
H230 C216 0.930 . S
Co231 N235 2.148 . S
Co231 N241 2.128 . S
Co231 N251 2.194 . S
Co231 O256 2.351 . S
Co231 O257 2.155 . S
Co231 O258 2.096 . S
C232 N235 1.301 . S
C232 N236 1.328 . S
C232 H237 0.930 . S
C233 C234 1.333 . S
C233 N235 1.317 . S
C233 H238 0.930 . S
C234 C233 1.333 . S
C234 N236 1.350 . S
C234 H260 0.931 . S
N235 Co231 2.148 . S
N235 C232 1.301 . S
N235 C233 1.317 . S
N236 C232 1.328 . S
N236 C234 1.350 . S
H237 C232 0.930 . S
H238 C233 0.930 . S
C239 O240 1.224 . S
C239 O258 1.247 . S
O240 C239 1.224 . S
N241 Co231 2.128 . S
N241 C242 1.355 . S
N241 C244 1.311 . S
C242 N241 1.355 . S
C242 C243 1.363 . S
C242 H254 0.929 . S
C243 C242 1.363 . S
C243 N245 1.375 . S
C243 H261 0.931 . S
C244 N241 1.311 . S
C244 N245 1.347 . S
C244 H255 0.929 . S
N245 C243 1.375 . S
N245 C244 1.347 . S
C246 C249 1.365 . S
C246 N251 1.328 . S
C246 H252 0.929 . S
C247 C248 1.362 . S
C247 C250 1.378 . S
C247 H262 0.929 . S
C248 C247 1.362 . S
C248 C249 1.366 . S
C249 C246 1.365 . S
C249 C248 1.366 . S
C249 H263 0.930 . S
C250 C247 1.378 . S
C250 N251 1.315 . S
C250 H253 0.930 . S
N251 Co231 2.194 . S
N251 C246 1.328 . S
N251 C250 1.315 . S
H252 C246 0.929 . S
H253 C250 0.930 . S
H254 C242 0.929 . S
H255 C244 0.929 . S
O256 Co231 2.351 . S
O256 C259 1.244 . S
O257 Co231 2.155 . S
O257 C259 1.240 . S
O258 Co231 2.096 . S
O258 C239 1.247 . S
C259 O256 1.244 . S
C259 O257 1.240 . S
H260 C234 0.931 . S
H261 C243 0.931 . S
H262 C247 0.929 . S
H263 C249 0.930 . S
Co264 N268 2.148 . S
Co264 N274 2.128 . S
Co264 N284 2.194 . S
Co264 O289 2.351 . S
Co264 O290 2.155 . S
Co264 O291 2.096 . S
C265 N268 1.301 . S
C265 N269 1.328 . S
C265 H270 0.930 . S
C266 C267 1.333 . S
C266 N268 1.317 . S
C266 H271 0.930 . S
C267 C266 1.333 . S
C267 N269 1.350 . S
C267 H293 0.931 . S
N268 Co264 2.148 . S
N268 C265 1.301 . S
N268 C266 1.317 . S
N269 C265 1.328 . S
N269 C267 1.350 . S
H270 C265 0.930 . S
H271 C266 0.930 . S
C272 O273 1.224 . S
C272 O291 1.247 . S
O273 C272 1.224 . S
N274 Co264 2.128 . S
N274 C275 1.355 . S
N274 C277 1.311 . S
C275 N274 1.355 . S
C275 C276 1.363 . S
C275 H287 0.929 . S
C276 C275 1.363 . S
C276 N278 1.375 . S
C276 H294 0.931 . S
C277 N274 1.311 . S
C277 N278 1.347 . S
C277 H288 0.929 . S
N278 C276 1.375 . S
N278 C277 1.347 . S
C279 C282 1.365 . S
C279 N284 1.328 . S
C279 H285 0.929 . S
C280 C281 1.362 . S
C280 C283 1.378 . S
C280 H295 0.929 . S
C281 C280 1.362 . S
C281 C282 1.366 . S
C282 C279 1.365 . S
C282 C281 1.366 . S
C282 H296 0.930 . S
C283 C280 1.378 . S
C283 N284 1.315 . S
C283 H286 0.930 . S
N284 Co264 2.194 . S
N284 C279 1.328 . S
N284 C283 1.315 . S
H285 C279 0.929 . S
H286 C283 0.930 . S
H287 C275 0.929 . S
H288 C277 0.929 . S
O289 Co264 2.351 . S
O289 C292 1.244 . S
O290 Co264 2.155 . S
O290 C292 1.240 . S
O291 Co264 2.096 . S
O291 C272 1.247 . S
C292 O289 1.244 . S
C292 O290 1.240 . S
H293 C267 0.931 . S
H294 C276 0.931 . S
H295 C280 0.929 . S
H296 C282 0.930 . S
Co297 N301 2.148 . S
Co297 N307 2.128 . S
Co297 N317 2.194 . S
Co297 O322 2.351 . S
Co297 O323 2.155 . S
Co297 O324 2.096 . S
C298 N301 1.301 . S
C298 N302 1.328 . S
C298 H303 0.930 . S
C299 C300 1.333 . S
C299 N301 1.317 . S
C299 H304 0.930 . S
C300 C299 1.333 . S
C300 N302 1.350 . S
C300 H326 0.931 . S
N301 Co297 2.148 . S
N301 C298 1.301 . S
N301 C299 1.317 . S
N302 C298 1.328 . S
N302 C300 1.350 . S
H303 C298 0.930 . S
H304 C299 0.930 . S
C305 O306 1.224 . S
C305 O324 1.247 . S
O306 C305 1.224 . S
N307 Co297 2.128 . S
N307 C308 1.355 . S
N307 C310 1.311 . S
C308 N307 1.355 . S
C308 C309 1.352 1_545 S
C308 H320 0.929 . S
C309 C308 1.352 1_565 S
C309 N311 1.374 1_565 S
C309 H327 0.941 . S
C310 N307 1.311 . S
C310 N311 1.347 . S
C310 H321 0.929 . S
N311 C309 1.374 1_545 S
N311 C310 1.347 . S
C312 C315 1.365 . S
C312 N317 1.328 . S
C312 H318 0.929 . S
C313 C314 1.362 . S
C313 C316 1.378 . S
C313 H328 0.929 . S
C314 C313 1.362 . S
C314 C315 1.366 . S
C315 C312 1.365 . S
C315 C314 1.366 . S
C315 H329 0.930 . S
C316 C313 1.378 . S
C316 N317 1.315 . S
C316 H319 0.930 . S
N317 Co297 2.194 . S
N317 C312 1.328 . S
N317 C316 1.315 . S
H318 C312 0.929 . S
H319 C316 0.930 . S
H320 C308 0.929 . S
H321 C310 0.929 . S
O322 Co297 2.351 . S
O322 C325 1.244 . S
O323 Co297 2.155 . S
O323 C325 1.240 . S
O324 Co297 2.096 . S
O324 C305 1.247 . S
C325 O322 1.244 . S
C325 O323 1.240 . S
H326 C300 0.931 . S
H327 C309 0.941 . S
H328 C313 0.929 . S
H329 C315 0.930 . S
Co330 N334 2.148 . S
Co330 N340 2.128 . S
Co330 N350 2.194 . S
Co330 O355 2.351 . S
Co330 O356 2.155 . S
Co330 O357 2.096 . S
C331 N334 1.301 . S
C331 N335 1.328 . S
C331 H336 0.930 . S
C332 C333 1.333 . S
C332 N334 1.317 . S
C332 H337 0.930 . S
C333 C332 1.333 . S
C333 N335 1.350 . S
C333 H359 0.931 . S
N334 Co330 2.148 . S
N334 C331 1.301 . S
N334 C332 1.317 . S
N335 C331 1.328 . S
N335 C333 1.350 . S
H336 C331 0.930 . S
H337 C332 0.930 . S
C338 O339 1.224 . S
C338 O357 1.247 . S
O339 C338 1.224 . S
N340 Co330 2.128 . S
N340 C341 1.355 . S
N340 C343 1.311 . S
C341 N340 1.355 . S
C341 C342 1.361 1_655 S
C341 H353 0.929 . S
C342 C341 1.361 1_455 S
C342 N344 1.364 1_455 S
C342 H360 0.942 . S
C343 N340 1.311 . S
C343 N344 1.347 . S
C343 H354 0.929 . S
N344 C342 1.364 1_655 S
N344 C343 1.347 . S
C345 C348 1.365 . S
C345 N350 1.328 . S
C345 H351 0.929 . S
C346 C347 1.362 . S
C346 C349 1.378 . S
C346 H361 0.929 . S
C347 C346 1.362 . S
C347 C348 1.366 . S
C348 C345 1.365 . S
C348 C347 1.366 . S
C348 H362 0.930 . S
C349 C346 1.378 . S
C349 N350 1.315 . S
C349 H352 0.930 . S
N350 Co330 2.194 . S
N350 C345 1.328 . S
N350 C349 1.315 . S
H351 C345 0.929 . S
H352 C349 0.930 . S
H353 C341 0.929 . S
H354 C343 0.929 . S
O355 Co330 2.351 . S
O355 C358 1.244 . S
O356 Co330 2.155 . S
O356 C358 1.240 . S
O357 Co330 2.096 . S
O357 C338 1.247 . S
C358 O355 1.244 . S
C358 O356 1.240 . S
H359 C333 0.931 . S
H360 C342 0.942 . S
H361 C346 0.929 . S
H362 C348 0.930 . S
Co363 N367 2.148 . S
Co363 N373 2.128 . S
Co363 N383 2.194 . S
Co363 O388 2.351 . S
Co363 O389 2.155 . S
Co363 O390 2.096 . S
C364 N367 1.301 . S
C364 N368 1.328 . S
C364 H369 0.930 . S
C365 C366 1.333 . S
C365 N367 1.317 . S
C365 H370 0.930 . S
C366 C365 1.333 . S
C366 N368 1.350 . S
C366 H392 0.931 . S
N367 Co363 2.148 . S
N367 C364 1.301 . S
N367 C365 1.317 . S
N368 C364 1.328 . S
N368 C366 1.350 . S
H369 C364 0.930 . S
H370 C365 0.930 . S
C371 O372 1.224 . S
C371 O390 1.247 . S
O372 C371 1.224 . S
N373 Co363 2.128 . S
N373 C374 1.355 . S
N373 C376 1.311 . S
C374 N373 1.355 . S
C374 C375 1.363 . S
C374 H386 0.929 . S
C375 C374 1.363 . S
C375 N377 1.375 . S
C375 H393 0.931 . S
C376 N373 1.311 . S
C376 N377 1.347 . S
C376 H387 0.929 . S
N377 C375 1.375 . S
N377 C376 1.347 . S
C378 C381 1.365 . S
C378 N383 1.328 . S
C378 H384 0.929 . S
C379 C380 1.362 . S
C379 C382 1.378 . S
C379 H394 0.929 . S
C380 C379 1.362 . S
C380 C381 1.366 . S
C381 C378 1.365 . S
C381 C380 1.366 . S
C381 H395 0.930 . S
C382 C379 1.378 . S
C382 N383 1.315 . S
C382 H385 0.930 . S
N383 Co363 2.194 . S
N383 C378 1.328 . S
N383 C382 1.315 . S
H384 C378 0.929 . S
H385 C382 0.930 . S
H386 C374 0.929 . S
H387 C376 0.929 . S
O388 Co363 2.351 . S
O388 C391 1.244 . S
O389 Co363 2.155 . S
O389 C391 1.240 . S
O390 Co363 2.096 . S
O390 C371 1.247 . S
C391 O388 1.244 . S
C391 O389 1.240 . S
H392 C366 0.931 . S
H393 C375 0.931 . S
H394 C379 0.929 . S
H395 C381 0.930 . S
Co396 N400 2.148 . S
Co396 N406 2.128 . S
Co396 N416 2.194 . S
Co396 O421 2.351 . S
Co396 O422 2.155 . S
Co396 O423 2.096 . S
C397 N400 1.301 . S
C397 N401 1.328 . S
C397 H402 0.930 . S
C398 C399 1.333 . S
C398 N400 1.317 . S
C398 H403 0.930 . S
C399 C398 1.333 . S
C399 N401 1.350 . S
C399 H425 0.931 . S
N400 Co396 2.148 . S
N400 C397 1.301 . S
N400 C398 1.317 . S
N401 C397 1.328 . S
N401 C399 1.350 . S
H402 C397 0.930 . S
H403 C398 0.930 . S
C404 O405 1.224 . S
C404 O423 1.247 . S
O405 C404 1.224 . S
N406 Co396 2.128 . S
N406 C407 1.355 . S
N406 C409 1.311 . S
C407 N406 1.355 . S
C407 C408 1.352 1_565 S
C407 H419 0.929 . S
C408 C407 1.352 1_545 S
C408 N410 1.374 1_545 S
C408 H426 0.941 . S
C409 N406 1.311 . S
C409 N410 1.347 . S
C409 H420 0.929 . S
N410 C408 1.374 1_565 S
N410 C409 1.347 . S
C411 C414 1.365 . S
C411 N416 1.328 . S
C411 H417 0.929 . S
C412 C413 1.362 . S
C412 C415 1.378 . S
C412 H427 0.929 . S
C413 C412 1.362 . S
C413 C414 1.366 . S
C414 C411 1.365 . S
C414 C413 1.366 . S
C414 H428 0.930 . S
C415 C412 1.378 . S
C415 N416 1.315 . S
C415 H418 0.930 . S
N416 Co396 2.194 . S
N416 C411 1.328 . S
N416 C415 1.315 . S
H417 C411 0.929 . S
H418 C415 0.930 . S
H419 C407 0.929 . S
H420 C409 0.929 . S
O421 Co396 2.351 . S
O421 C424 1.244 . S
O422 Co396 2.155 . S
O422 C424 1.240 . S
O423 Co396 2.096 . S
O423 C404 1.247 . S
C424 O421 1.244 . S
C424 O422 1.240 . S
H425 C399 0.931 . S
H426 C408 0.941 . S
H427 C412 0.929 . S
H428 C414 0.930 . S
Co429 N433 2.148 . S
Co429 N439 2.128 . S
Co429 N449 2.194 . S
Co429 O454 2.351 . S
Co429 O455 2.155 . S
Co429 O456 2.096 . S
C430 N433 1.301 . S
C430 N434 1.328 . S
C430 H435 0.930 . S
C431 C432 1.333 . S
C431 N433 1.317 . S
C431 H436 0.930 . S
C432 C431 1.333 . S
C432 N434 1.350 . S
C432 H458 0.931 . S
N433 Co429 2.148 . S
N433 C430 1.301 . S
N433 C431 1.317 . S
N434 C430 1.328 . S
N434 C432 1.350 . S
H435 C430 0.930 . S
H436 C431 0.930 . S
C437 O438 1.224 . S
C437 O456 1.247 . S
O438 C437 1.224 . S
N439 Co429 2.128 . S
N439 C440 1.355 . S
N439 C442 1.311 . S
C440 N439 1.355 . S
C440 C441 1.361 1_455 S
C440 H452 0.929 . S
C441 C440 1.361 1_655 S
C441 N443 1.364 1_655 S
C441 H459 0.942 . S
C442 N439 1.311 . S
C442 N443 1.347 . S
C442 H453 0.929 . S
N443 C441 1.364 1_455 S
N443 C442 1.347 . S
C444 C447 1.365 . S
C444 N449 1.328 . S
C444 H450 0.929 . S
C445 C446 1.362 . S
C445 C448 1.378 . S
C445 H460 0.929 . S
C446 C445 1.362 . S
C446 C447 1.366 . S
C447 C444 1.365 . S
C447 C446 1.366 . S
C447 H461 0.930 . S
C448 C445 1.378 . S
C448 N449 1.315 . S
C448 H451 0.930 . S
N449 Co429 2.194 . S
N449 C444 1.328 . S
N449 C448 1.315 . S
H450 C444 0.929 . S
H451 C448 0.930 . S
H452 C440 0.929 . S
H453 C442 0.929 . S
O454 Co429 2.351 . S
O454 C457 1.244 . S
O455 Co429 2.155 . S
O455 C457 1.240 . S
O456 Co429 2.096 . S
O456 C437 1.247 . S
C457 O454 1.244 . S
C457 O455 1.240 . S
H458 C432 0.931 . S
H459 C441 0.942 . S
H460 C445 0.929 . S
H461 C447 0.930 . S
Co462 N466 2.148 . S
Co462 N472 2.128 . S
Co462 N482 2.194 . S
Co462 O487 2.351 . S
Co462 O488 2.155 . S
Co462 O489 2.096 . S
C463 N466 1.301 . S
C463 N467 1.328 . S
C463 H468 0.930 . S
C464 C465 1.333 . S
C464 N466 1.317 . S
C464 H469 0.930 . S
C465 C464 1.333 . S
C465 N467 1.350 . S
C465 H491 0.931 . S
N466 Co462 2.148 . S
N466 C463 1.301 . S
N466 C464 1.317 . S
N467 C463 1.328 . S
N467 C465 1.350 . S
H468 C463 0.930 . S
H469 C464 0.930 . S
C470 O471 1.224 . S
C470 O489 1.247 . S
O471 C470 1.224 . S
N472 Co462 2.128 . S
N472 C473 1.355 . S
N472 C475 1.311 . S
C473 N472 1.355 . S
C473 C474 1.363 . S
C473 H485 0.929 . S
C474 C473 1.363 . S
C474 N476 1.375 . S
C474 H492 0.931 . S
C475 N472 1.311 . S
C475 N476 1.347 . S
C475 H486 0.929 . S
N476 C474 1.375 . S
N476 C475 1.347 . S
C477 C480 1.365 . S
C477 N482 1.328 . S
C477 H483 0.929 . S
C478 C479 1.362 . S
C478 C481 1.378 . S
C478 H493 0.929 . S
C479 C478 1.362 . S
C479 C480 1.366 . S
C480 C477 1.365 . S
C480 C479 1.366 . S
C480 H494 0.930 . S
C481 C478 1.378 . S
C481 N482 1.315 . S
C481 H484 0.930 . S
N482 Co462 2.194 . S
N482 C477 1.328 . S
N482 C481 1.315 . S
H483 C477 0.929 . S
H484 C481 0.930 . S
H485 C473 0.929 . S
H486 C475 0.929 . S
O487 Co462 2.351 . S
O487 C490 1.244 . S
O488 Co462 2.155 . S
O488 C490 1.240 . S
O489 Co462 2.096 . S
O489 C470 1.247 . S
C490 O487 1.244 . S
C490 O488 1.240 . S
H491 C465 0.931 . S
H492 C474 0.931 . S
H493 C478 0.929 . S
H494 C480 0.930 . S
Co495 N499 2.148 . S
Co495 N505 2.128 . S
Co495 N515 2.194 . S
Co495 O520 2.351 . S
Co495 O521 2.155 . S
Co495 O522 2.096 . S
C496 N499 1.301 . S
C496 N500 1.328 . S
C496 H501 0.930 . S
C497 C498 1.333 . S
C497 N499 1.317 . S
C497 H502 0.930 . S
C498 C497 1.333 . S
C498 N500 1.350 . S
C498 H524 0.931 . S
N499 Co495 2.148 . S
N499 C496 1.301 . S
N499 C497 1.317 . S
N500 C496 1.328 . S
N500 C498 1.350 . S
H501 C496 0.930 . S
H502 C497 0.930 . S
C503 O504 1.224 . S
C503 O522 1.247 . S
O504 C503 1.224 . S
N505 Co495 2.128 . S
N505 C506 1.355 . S
N505 C508 1.311 . S
C506 N505 1.355 . S
C506 C507 1.363 . S
C506 H518 0.929 . S
C507 C506 1.363 . S
C507 N509 1.375 . S
C507 H525 0.931 . S
C508 N505 1.311 . S
C508 N509 1.347 . S
C508 H519 0.929 . S
N509 C507 1.375 . S
N509 C508 1.347 . S
C510 C513 1.365 . S
C510 N515 1.328 . S
C510 H516 0.929 . S
C511 C512 1.362 . S
C511 C514 1.378 . S
C511 H526 0.929 . S
C512 C511 1.362 . S
C512 C513 1.366 . S
C513 C510 1.365 . S
C513 C512 1.366 . S
C513 H527 0.930 . S
C514 C511 1.378 . S
C514 N515 1.315 . S
C514 H517 0.930 . S
N515 Co495 2.194 . S
N515 C510 1.328 . S
N515 C514 1.315 . S
H516 C510 0.929 . S
H517 C514 0.930 . S
H518 C506 0.929 . S
H519 C508 0.929 . S
O520 Co495 2.351 . S
O520 C523 1.244 . S
O521 Co495 2.155 . S
O521 C523 1.240 . S
O522 Co495 2.096 . S
O522 C503 1.247 . S
C523 O520 1.244 . S
C523 O521 1.240 . S
H524 C498 0.931 . S
H525 C507 0.931 . S
H526 C511 0.929 . S
H527 C513 0.930 . S
Co528 N532 2.148 . S
Co528 N538 2.128 . S
Co528 N548 2.194 . S
Co528 O553 2.351 . S
Co528 O554 2.155 . S
Co528 O555 2.096 . S
C529 N532 1.301 . S
C529 N533 1.328 . S
C529 H534 0.930 . S
C530 C531 1.333 . S
C530 N532 1.317 . S
C530 H535 0.930 . S
C531 C530 1.333 . S
C531 N533 1.350 . S
C531 H557 0.931 . S
N532 Co528 2.148 . S
N532 C529 1.301 . S
N532 C530 1.317 . S
N533 C529 1.328 . S
N533 C531 1.350 . S
H534 C529 0.930 . S
H535 C530 0.930 . S
C536 O537 1.224 . S
C536 O555 1.247 . S
O537 C536 1.224 . S
N538 Co528 2.128 . S
N538 C539 1.355 . S
N538 C541 1.311 . S
C539 N538 1.355 . S
C539 C540 1.363 . S
C539 H551 0.929 . S
C540 C539 1.363 . S
C540 N542 1.375 . S
C540 H558 0.931 . S
C541 N538 1.311 . S
C541 N542 1.347 . S
C541 H552 0.929 . S
N542 C540 1.375 . S
N542 C541 1.347 . S
C543 C546 1.365 . S
C543 N548 1.328 . S
C543 H549 0.929 . S
C544 C545 1.362 . S
C544 C547 1.378 . S
C544 H559 0.929 . S
C545 C544 1.362 . S
C545 C546 1.366 . S
C546 C543 1.365 . S
C546 C545 1.366 . S
C546 H560 0.930 . S
C547 C544 1.378 . S
C547 N548 1.315 . S
C547 H550 0.930 . S
N548 Co528 2.194 . S
N548 C543 1.328 . S
N548 C547 1.315 . S
H549 C543 0.929 . S
H550 C547 0.930 . S
H551 C539 0.929 . S
H552 C541 0.929 . S
O553 Co528 2.351 . S
O553 C556 1.244 . S
O554 Co528 2.155 . S
O554 C556 1.240 . S
O555 Co528 2.096 . S
O555 C536 1.247 . S
C556 O553 1.244 . S
C556 O554 1.240 . S
H557 C531 0.931 . S
H558 C540 0.931 . S
H559 C544 0.929 . S
H560 C546 0.930 . S
Co561 N565 2.148 . S
Co561 N571 2.128 . S
Co561 N581 2.194 . S
Co561 O586 2.351 . S
Co561 O587 2.155 . S
Co561 O588 2.096 . S
C562 N565 1.301 . S
C562 N566 1.328 . S
C562 H567 0.930 . S
C563 C564 1.333 . S
C563 N565 1.317 . S
C563 H568 0.930 . S
C564 C563 1.333 . S
C564 N566 1.350 . S
C564 H590 0.931 . S
N565 Co561 2.148 . S
N565 C562 1.301 . S
N565 C563 1.317 . S
N566 C562 1.328 . S
N566 C564 1.350 . S
H567 C562 0.930 . S
H568 C563 0.930 . S
C569 O570 1.224 . S
C569 O588 1.247 . S
O570 C569 1.224 . S
N571 Co561 2.128 . S
N571 C572 1.355 . S
N571 C574 1.311 . S
C572 N571 1.355 . S
C572 C573 1.363 . S
C572 H584 0.929 . S
C573 C572 1.363 . S
C573 N575 1.375 . S
C573 H591 0.931 . S
C574 N571 1.311 . S
C574 N575 1.347 . S
C574 H585 0.929 . S
N575 C573 1.375 . S
N575 C574 1.347 . S
C576 C579 1.365 . S
C576 N581 1.328 . S
C576 H582 0.929 . S
C577 C578 1.362 . S
C577 C580 1.378 . S
C577 H592 0.929 . S
C578 C577 1.362 . S
C578 C579 1.366 . S
C579 C576 1.365 . S
C579 C578 1.366 . S
C579 H593 0.930 . S
C580 C577 1.378 . S
C580 N581 1.315 . S
C580 H583 0.930 . S
N581 Co561 2.194 . S
N581 C576 1.328 . S
N581 C580 1.315 . S
H582 C576 0.929 . S
H583 C580 0.930 . S
H584 C572 0.929 . S
H585 C574 0.929 . S
O586 Co561 2.351 . S
O586 C589 1.244 . S
O587 Co561 2.155 . S
O587 C589 1.240 . S
O588 Co561 2.096 . S
O588 C569 1.247 . S
C589 O586 1.244 . S
C589 O587 1.240 . S
H590 C564 0.931 . S
H591 C573 0.931 . S
H592 C577 0.929 . S
H593 C579 0.930 . S
C594 C595 1.369 . S
C594 C596 1.419 . S
C594 H598 0.930 . S
C595 C594 1.369 . S
C595 C604 1.429 . S
C596 C594 1.419 . S
C596 C597 1.363 . S
C596 H599 0.929 . S
C597 C596 1.363 . S
C597 C603 1.428 . S
H598 C594 0.930 . S
H599 C596 0.929 . S
S600 N601 1.613 . S
S600 N602 1.610 . S
N601 S600 1.613 . S
N601 C604 1.350 . S
N602 S600 1.610 . S
N602 C603 1.351 . S
C603 C597 1.428 . S
C603 N602 1.351 . S
C603 C604 1.434 . S
C604 C595 1.429 . S
C604 N601 1.350 . S
C604 C603 1.434 . S
C605 C606 1.369 . S
C605 C607 1.419 . S
C605 H609 0.930 1_545 S
C606 C605 1.369 . S
C606 C615 1.429 . S
C607 C605 1.419 . S
C607 C608 1.363 . S
C607 H610 0.929 . S
C608 C607 1.363 . S
C608 C614 1.428 . S
H609 C605 0.930 1_565 S
H610 C607 0.929 . S
S611 N612 1.613 . S
S611 N613 1.610 . S
N612 S611 1.613 . S
N612 C615 1.350 . S
N613 S611 1.610 . S
N613 C614 1.351 . S
C614 C608 1.428 . S
C614 N613 1.351 . S
C614 C615 1.434 . S
C615 C606 1.429 . S
C615 N612 1.350 . S
C615 C614 1.434 . S
C616 C617 1.369 . S
C616 C618 1.419 . S
C616 H620 0.930 . S
C617 C616 1.369 . S
C617 C626 1.429 . S
C618 C616 1.419 . S
C618 C619 1.363 . S
C618 H621 0.929 . S
C619 C618 1.363 . S
C619 C625 1.428 . S
H620 C616 0.930 . S
H621 C618 0.929 . S
S622 N623 1.613 . S
S622 N624 1.610 1_455 S
N623 S622 1.613 . S
N623 C626 1.350 1_455 S
N624 S622 1.610 1_655 S
N624 C625 1.351 . S
C625 C619 1.428 . S
C625 N624 1.351 . S
C625 C626 1.434 . S
C626 C617 1.429 . S
C626 N623 1.350 1_655 S
C626 C625 1.434 . S
C627 C628 1.369 . S
C627 C629 1.419 . S
C627 H631 0.930 . S
C628 C627 1.369 . S
C628 C637 1.429 . S
C629 C627 1.419 . S
C629 C630 1.363 . S
C629 H632 0.929 . S
C630 C629 1.363 . S
C630 C636 1.428 . S
H631 C627 0.930 . S
H632 C629 0.929 . S
S633 N634 1.613 . S
S633 N635 1.610 . S
N634 S633 1.613 . S
N634 C637 1.350 . S
N635 S633 1.610 . S
N635 C636 1.351 . S
C636 C630 1.428 . S
C636 N635 1.351 . S
C636 C637 1.434 . S
C637 C628 1.429 . S
C637 N634 1.350 . S
C637 C636 1.434 . S
C638 C639 1.369 . S
C638 C640 1.419 . S
C638 H642 0.930 . S
C639 C638 1.369 . S
C639 C648 1.429 . S
C640 C638 1.419 . S
C640 C641 1.363 . S
C640 H643 0.929 . S
C641 C640 1.363 . S
C641 C647 1.428 . S
H642 C638 0.930 . S
H643 C640 0.929 . S
S644 N645 1.613 . S
S644 N646 1.610 . S
N645 S644 1.613 . S
N645 C648 1.350 . S
N646 S644 1.610 . S
N646 C647 1.351 . S
C647 C641 1.428 . S
C647 N646 1.351 . S
C647 C648 1.434 . S
C648 C639 1.429 . S
C648 N645 1.350 . S
C648 C647 1.434 . S
C649 C650 1.369 . S
C649 C651 1.419 . S
C649 H653 0.919 1_455 S
C650 C649 1.369 . S
C650 C659 1.429 . S
C651 C649 1.419 . S
C651 C652 1.363 . S
C651 H654 0.929 . S
C652 C651 1.363 . S
C652 C658 1.428 . S
H653 C649 0.919 1_655 S
H654 C651 0.929 . S
S655 N656 1.613 . S
S655 N657 1.610 . S
N656 S655 1.613 . S
N656 C659 1.350 . S
N657 S655 1.610 . S
N657 C658 1.351 . S
C658 C652 1.428 . S
C658 N657 1.351 . S
C658 C659 1.434 . S
C659 C650 1.429 . S
C659 N656 1.350 . S
C659 C658 1.434 . S
C660 C661 1.369 . S
C660 C662 1.419 . S
C660 H664 0.930 . S
C661 C660 1.369 . S
C661 C670 1.429 . S
C662 C660 1.419 . S
C662 C663 1.363 . S
C662 H665 0.929 . S
C663 C662 1.363 . S
C663 C669 1.428 . S
H664 C660 0.930 . S
H665 C662 0.929 . S
S666 N667 1.613 . S
S666 N668 1.610 . S
N667 S666 1.613 . S
N667 C670 1.350 . S
N668 S666 1.610 . S
N668 C669 1.351 . S
C669 C663 1.428 . S
C669 N668 1.351 . S
C669 C670 1.434 . S
C670 C661 1.429 . S
C670 N667 1.350 . S
C670 C669 1.434 . S
C671 C672 1.369 . S
C671 C673 1.419 . S
C671 H675 0.930 . S
C672 C671 1.369 . S
C672 C681 1.429 . S
C673 C671 1.419 . S
C673 C674 1.363 . S
C673 H676 0.929 . S
C674 C673 1.363 . S
C674 C680 1.428 . S
H675 C671 0.930 . S
H676 C673 0.929 . S
S677 N678 1.613 . S
S677 N679 1.610 . S
N678 S677 1.613 . S
N678 C681 1.350 . S
N679 S677 1.610 . S
N679 C680 1.351 . S
C680 C674 1.428 . S
C680 N679 1.351 . S
C680 C681 1.434 . S
C681 C672 1.429 . S
C681 N678 1.350 . S
C681 C680 1.434 . S
C682 C683 1.369 . S
C682 C684 1.419 . S
C682 H686 0.930 . S
C683 C682 1.369 . S
C683 C692 1.429 . S
C684 C682 1.419 . S
C684 C685 1.363 . S
C684 H687 0.929 . S
C685 C684 1.363 . S
C685 C691 1.428 . S
H686 C682 0.930 . S
H687 C684 0.929 . S
S688 N689 1.613 . S
S688 N690 1.610 . S
N689 S688 1.613 . S
N689 C692 1.350 . S
N690 S688 1.610 . S
N690 C691 1.351 . S
C691 C685 1.428 . S
C691 N690 1.351 . S
C691 C692 1.434 . S
C692 C683 1.429 . S
C692 N689 1.350 . S
C692 C691 1.434 . S
C693 C694 1.369 . S
C693 C695 1.419 . S
C693 H697 0.930 . S
C694 C693 1.369 . S
C694 C703 1.429 . S
C695 C693 1.419 . S
C695 C696 1.363 . S
C695 H698 0.929 . S
C696 C695 1.363 . S
C696 C702 1.428 . S
H697 C693 0.930 . S
H698 C695 0.929 . S
S699 N700 1.613 . S
S699 N701 1.610 . S
N700 S699 1.613 . S
N700 C703 1.350 . S
N701 S699 1.610 . S
N701 C702 1.351 . S
C702 C696 1.428 . S
C702 N701 1.351 . S
C702 C703 1.434 . S
C703 C694 1.429 . S
C703 N700 1.350 . S
C703 C702 1.434 . S
C704 C705 1.369 . S
C704 C706 1.419 . S
C704 H708 0.930 . S
C705 C704 1.369 . S
C705 C714 1.429 . S
C706 C704 1.419 . S
C706 C707 1.363 . S
C706 H709 0.929 . S
C707 C706 1.363 . S
C707 C713 1.428 . S
H708 C704 0.930 . S
H709 C706 0.929 . S
S710 N711 1.613 . S
S710 N712 1.610 . S
N711 S710 1.613 . S
N711 C714 1.350 . S
N712 S710 1.610 . S
N712 C713 1.351 . S
C713 C707 1.428 . S
C713 N712 1.351 . S
C713 C714 1.434 . S
C714 C705 1.429 . S
C714 N711 1.350 . S
C714 C713 1.434 . S
C715 C716 1.369 . S
C715 C717 1.419 . S
C715 H719 0.930 . S
C716 C715 1.369 . S
C716 C725 1.429 . S
C717 C715 1.419 . S
C717 C718 1.363 . S
C717 H720 0.929 . S
C718 C717 1.363 . S
C718 C724 1.428 . S
H719 C715 0.930 . S
H720 C717 0.929 . S
S721 N722 1.613 . S
S721 N723 1.610 . S
N722 S721 1.613 . S
N722 C725 1.350 . S
N723 S721 1.610 . S
N723 C724 1.351 . S
C724 C718 1.428 . S
C724 N723 1.351 . S
C724 C725 1.434 . S
C725 C716 1.429 . S
C725 N722 1.350 . S
C725 C724 1.434 . S
C726 C727 1.369 . S
C726 C728 1.419 . S
C726 H730 0.930 . S
C727 C726 1.369 . S
C727 C736 1.429 . S
C728 C726 1.419 . S
C728 C729 1.363 . S
C728 H731 0.929 . S
C729 C728 1.363 . S
C729 C735 1.428 . S
H730 C726 0.930 . S
H731 C728 0.929 . S
S732 N733 1.613 . S
S732 N734 1.610 . S
N733 S732 1.613 . S
N733 C736 1.350 . S
N734 S732 1.610 . S
N734 C735 1.351 . S
C735 C729 1.428 . S
C735 N734 1.351 . S
C735 C736 1.434 . S
C736 C727 1.429 . S
C736 N733 1.350 . S
C736 C735 1.434 . S
C737 C738 1.369 . S
C737 C739 1.419 . S
C737 H741 0.930 . S
C738 C737 1.369 . S
C738 C747 1.429 . S
C739 C737 1.419 . S
C739 C740 1.363 . S
C739 H742 0.929 . S
C740 C739 1.363 . S
C740 C746 1.428 . S
H741 C737 0.930 . S
H742 C739 0.929 . S
S743 N744 1.613 . S
S743 N745 1.610 . S
N744 S743 1.613 . S
N744 C747 1.350 . S
N745 S743 1.610 . S
N745 C746 1.351 . S
C746 C740 1.428 . S
C746 N745 1.351 . S
C746 C747 1.434 . S
C747 C738 1.429 . S
C747 N744 1.350 . S
C747 C746 1.434 . S
C748 C749 1.369 . S
C748 C750 1.419 . S
C748 H752 0.930 . S
C749 C748 1.369 . S
C749 C758 1.429 . S
C750 C748 1.419 . S
C750 C751 1.363 . S
C750 H753 0.929 . S
C751 C750 1.363 . S
C751 C757 1.428 . S
H752 C748 0.930 . S
H753 C750 0.929 . S
S754 N755 1.613 . S
S754 N756 1.610 . S
N755 S754 1.613 . S
N755 C758 1.350 . S
N756 S754 1.610 . S
N756 C757 1.351 . S
C757 C751 1.428 . S
C757 N756 1.351 . S
C757 C758 1.434 . S
C758 C749 1.429 . S
C758 N755 1.350 . S
C758 C757 1.434 . S
C759 C760 1.369 . S
C759 C761 1.419 . S
C759 H763 0.930 . S
C760 C759 1.369 . S
C760 C769 1.429 . S
C761 C759 1.419 . S
C761 C762 1.363 . S
C761 H764 0.929 . S
C762 C761 1.363 . S
C762 C768 1.428 . S
H763 C759 0.930 . S
H764 C761 0.929 . S
S765 N766 1.613 . S
S765 N767 1.610 . S
N766 S765 1.613 . S
N766 C769 1.350 . S
N767 S765 1.610 . S
N767 C768 1.351 . S
C768 C762 1.428 . S
C768 N767 1.351 . S
C768 C769 1.434 . S
C769 C760 1.429 . S
C769 N766 1.350 . S
C769 C768 1.434 . S
C770 C771 1.369 . S
C770 C772 1.419 . S
C770 H774 0.930 . S
C771 C770 1.369 . S
C771 C780 1.429 . S
C772 C770 1.419 . S
C772 C773 1.363 . S
C772 H775 0.929 . S
C773 C772 1.363 . S
C773 C779 1.428 . S
H774 C770 0.930 . S
H775 C772 0.929 . S
S776 N777 1.613 . S
S776 N778 1.610 . S
N777 S776 1.613 . S
N777 C780 1.350 . S
N778 S776 1.610 . S
N778 C779 1.351 . S
C779 C773 1.428 . S
C779 N778 1.351 . S
C779 C780 1.434 . S
C780 C771 1.429 . S
C780 N777 1.350 . S
C780 C779 1.434 . S
C781 C782 1.369 . S
C781 C783 1.419 . S
C781 H785 0.930 . S
C782 C781 1.369 . S
C782 C791 1.429 . S
C783 C781 1.419 . S
C783 C784 1.363 . S
C783 H786 0.929 . S
C784 C783 1.363 . S
C784 C790 1.428 . S
H785 C781 0.930 . S
H786 C783 0.929 . S
S787 N788 1.613 . S
S787 N789 1.610 . S
N788 S787 1.613 . S
N788 C791 1.350 . S
N789 S787 1.610 . S
N789 C790 1.351 . S
C790 C784 1.428 . S
C790 N789 1.351 . S
C790 C791 1.434 . S
C791 C782 1.429 . S
C791 N788 1.350 . S
C791 C790 1.434 . S
C792 C793 1.369 . S
C792 C794 1.419 . S
C792 H796 0.930 . S
C793 C792 1.369 . S
C793 C802 1.429 . S
C794 C792 1.419 . S
C794 C795 1.363 . S
C794 H797 0.929 . S
C795 C794 1.363 . S
C795 C801 1.428 . S
H796 C792 0.930 . S
H797 C794 0.929 . S
S798 N799 1.613 . S
S798 N800 1.610 . S
N799 S798 1.613 . S
N799 C802 1.350 . S
N800 S798 1.610 . S
N800 C801 1.351 . S
C801 C795 1.428 . S
C801 N800 1.351 . S
C801 C802 1.434 . S
C802 C793 1.429 . S
C802 N799 1.350 . S
C802 C801 1.434 . S
C803 C804 1.369 . S
C803 C805 1.419 . S
C803 H807 0.930 . S
C804 C803 1.369 . S
C804 C813 1.429 . S
C805 C803 1.419 . S
C805 C806 1.363 . S
C805 H808 0.929 . S
C806 C805 1.363 . S
C806 C812 1.428 . S
H807 C803 0.930 . S
H808 C805 0.929 . S
S809 N810 1.613 . S
S809 N811 1.610 . S
N810 S809 1.613 . S
N810 C813 1.350 . S
N811 S809 1.610 . S
N811 C812 1.351 . S
C812 C806 1.428 . S
C812 N811 1.351 . S
C812 C813 1.434 . S
C813 C804 1.429 . S
C813 N810 1.350 . S
C813 C812 1.434 . S
C814 C815 1.369 . S
C814 C816 1.419 . S
C814 H818 0.930 . S
C815 C814 1.369 . S
C815 C824 1.429 . S
C816 C814 1.419 . S
C816 C817 1.363 . S
C816 H819 0.929 . S
C817 C816 1.363 . S
C817 C823 1.428 . S
H818 C814 0.930 . S
H819 C816 0.929 . S
S820 N821 1.613 . S
S820 N822 1.610 . S
N821 S820 1.613 . S
N821 C824 1.350 . S
N822 S820 1.610 . S
N822 C823 1.351 . S
C823 C817 1.428 . S
C823 N822 1.351 . S
C823 C824 1.434 . S
C824 C815 1.429 . S
C824 N821 1.350 . S
C824 C823 1.434 . S
C825 C826 1.369 . S
C825 C827 1.419 . S
C825 H829 0.930 . S
C826 C825 1.369 . S
C826 C835 1.429 . S
C827 C825 1.419 . S
C827 C828 1.363 . S
C827 H830 0.929 . S
C828 C827 1.363 . S
C828 C834 1.428 . S
H829 C825 0.930 . S
H830 C827 0.929 . S
S831 N832 1.613 . S
S831 N833 1.610 . S
N832 S831 1.613 . S
N832 C835 1.350 . S
N833 S831 1.610 . S
N833 C834 1.351 . S
C834 C828 1.428 . S
C834 N833 1.351 . S
C834 C835 1.434 . S
C835 C826 1.429 . S
C835 N832 1.350 . S
C835 C834 1.434 . S
C836 C837 1.369 . S
C836 C838 1.419 . S
C836 H840 0.930 . S
C837 C836 1.369 . S
C837 C846 1.429 . S
C838 C836 1.419 . S
C838 C839 1.363 . S
C838 H841 0.929 . S
C839 C838 1.363 . S
C839 C845 1.428 . S
H840 C836 0.930 . S
H841 C838 0.929 . S
S842 N843 1.613 . S
S842 N844 1.610 . S
N843 S842 1.613 . S
N843 C846 1.350 . S
N844 S842 1.610 . S
N844 C845 1.351 . S
C845 C839 1.428 . S
C845 N844 1.351 . S
C845 C846 1.434 . S
C846 C837 1.429 . S
C846 N843 1.350 . S
C846 C845 1.434 . S
C847 C848 1.369 . S
C847 C849 1.419 . S
C847 H851 0.930 . S
C848 C847 1.369 . S
C848 C857 1.429 . S
C849 C847 1.419 . S
C849 C850 1.363 . S
C849 H852 0.929 . S
C850 C849 1.363 . S
C850 C856 1.428 . S
H851 C847 0.930 . S
H852 C849 0.929 . S
S853 N854 1.613 . S
S853 N855 1.610 . S
N854 S853 1.613 . S
N854 C857 1.350 . S
N855 S853 1.610 . S
N855 C856 1.351 . S
C856 C850 1.428 . S
C856 N855 1.351 . S
C856 C857 1.434 . S
C857 C848 1.429 . S
C857 N854 1.350 . S
C857 C856 1.434 . S
C858 C859 1.369 1_565 S
C858 C860 1.419 1_554 S
C858 H862 0.930 . S
C859 C858 1.369 1_545 S
C859 C868 1.429 . S
C860 C858 1.419 1_556 S
C860 C861 1.363 . S
C860 H863 0.929 . S
C861 C860 1.363 . S
C861 C867 1.428 1_565 S
H862 C858 0.930 . S
H863 C860 0.929 . S
S864 N865 1.613 . S
S864 N866 1.610 1_554 S
N865 S864 1.613 . S
N865 C868 1.350 . S
N866 S864 1.610 1_556 S
N866 C867 1.351 . S
C867 C861 1.428 1_545 S
C867 N866 1.351 . S
C867 C868 1.434 1_556 S
C868 C859 1.429 . S
C868 N865 1.350 . S
C868 C867 1.434 1_554 S
C869 C870 1.369 . S
C869 C871 1.419 1_556 S
C869 H873 0.930 . S
C870 C869 1.369 . S
C870 C879 1.429 1_455 S
C871 C869 1.419 1_554 S
C871 C872 1.363 1_455 S
C871 H874 0.929 . S
C872 C871 1.363 1_655 S
C872 C878 1.428 . S
H873 C869 0.930 . S
H874 C871 0.929 . S
S875 N876 1.613 1_554 S
S875 N877 1.610 . S
N876 S875 1.613 1_556 S
N876 C879 1.350 . S
N877 S875 1.610 . S
N877 C878 1.351 . S
C878 C872 1.428 . S
C878 N877 1.351 . S
C878 C879 1.434 1_554 S
C879 C870 1.429 1_655 S
C879 N876 1.350 . S
C879 C878 1.434 1_556 S
C880 C881 1.369 . S
C880 C882 1.419 1_556 S
C880 H884 0.930 . S
C881 C880 1.369 . S
C881 C890 1.429 . S
C882 C880 1.419 1_554 S
C882 C883 1.363 . S
C882 H885 0.929 . S
C883 C882 1.363 . S
C883 C889 1.428 . S
H884 C880 0.930 . S
H885 C882 0.929 . S
S886 N887 1.613 1_554 S
S886 N888 1.610 . S
N887 S886 1.613 1_556 S
N887 C890 1.350 . S
N888 S886 1.610 . S
N888 C889 1.351 . S
C889 C883 1.428 . S
C889 N888 1.351 . S
C889 C890 1.434 1_554 S
C890 C881 1.429 . S
C890 N887 1.350 . S
C890 C889 1.434 1_556 S
C891 C892 1.369 . S
C891 C893 1.419 . S
C891 H895 0.930 . S
C892 C891 1.369 . S
C892 C901 1.429 . S
C893 C891 1.419 . S
C893 C894 1.363 . S
C893 H896 0.929 . S
C894 C893 1.363 . S
C894 C900 1.428 . S
H895 C891 0.930 . S
H896 C893 0.929 . S
S897 N898 1.613 . S
S897 N899 1.610 . S
N898 S897 1.613 . S
N898 C901 1.350 . S
N899 S897 1.610 . S
N899 C900 1.351 . S
C900 C894 1.428 . S
C900 N899 1.351 . S
C900 C901 1.434 . S
C901 C892 1.429 . S
C901 N898 1.350 . S
C901 C900 1.434 . S
C902 C903 1.369 . S
C902 C904 1.419 1_556 S
C902 H906 0.930 1_556 S
C903 C902 1.369 . S
C903 C912 1.429 . S
C904 C902 1.419 1_554 S
C904 C905 1.363 1_554 S
C904 H907 0.929 . S
C905 C904 1.363 1_556 S
C905 C911 1.428 . S
H906 C902 0.930 1_554 S
H907 C904 0.929 . S
S908 N909 1.613 . S
S908 N910 1.610 . S
N909 S908 1.613 . S
N909 C912 1.350 . S
N910 S908 1.610 . S
N910 C911 1.351 . S
C911 C905 1.428 . S
C911 N910 1.351 . S
C911 C912 1.434 . S
C912 C903 1.429 . S
C912 N909 1.350 . S
C912 C911 1.434 . S
C913 C914 1.369 . S
C913 C915 1.419 . S
C913 H917 0.930 . S
C914 C913 1.369 . S
C914 C923 1.429 . S
C915 C913 1.419 . S
C915 C916 1.363 . S
C915 H918 0.929 . S
C916 C915 1.363 . S
C916 C922 1.428 . S
H917 C913 0.930 . S
H918 C915 0.929 . S
S919 N920 1.613 . S
S919 N921 1.610 . S
N920 S919 1.613 . S
N920 C923 1.350 . S
N921 S919 1.610 . S
N921 C922 1.351 . S
C922 C916 1.428 . S
C922 N921 1.351 . S
C922 C923 1.434 . S
C923 C914 1.429 . S
C923 N920 1.350 . S
C923 C922 1.434 . S
C924 C925 1.369 . S
C924 C926 1.419 . S
C924 H928 0.930 . S
C925 C924 1.369 . S
C925 C934 1.429 . S
C926 C924 1.419 . S
C926 C927 1.363 . S
C926 H929 0.929 1_554 S
C927 C926 1.363 . S
C927 C933 1.428 . S
H928 C924 0.930 . S
H929 C926 0.929 1_556 S
S930 N931 1.613 . S
S930 N932 1.610 . S
N931 S930 1.613 . S
N931 C934 1.350 . S
N932 S930 1.610 . S
N932 C933 1.351 . S
C933 C927 1.428 . S
C933 N932 1.351 . S
C933 C934 1.434 . S
C934 C925 1.429 . S
C934 N931 1.350 . S
C934 C933 1.434 . S
C935 C936 1.369 . S
C935 C937 1.419 . S
C935 H939 0.930 . S
C936 C935 1.369 . S
C936 C945 1.424 1_554 S
C937 C935 1.419 . S
C937 C938 1.363 . S
C937 H940 0.929 . S
C938 C937 1.363 . S
C938 C944 1.428 . S
H939 C935 0.930 . S
H940 C937 0.929 . S
S941 N942 1.613 . S
S941 N943 1.610 1_556 S
N942 S941 1.613 . S
N942 C945 1.360 . S
N943 S941 1.610 1_554 S
N943 C944 1.351 . S
C944 C938 1.428 . S
C944 N943 1.351 . S
C944 C945 1.428 1_554 S
C945 C936 1.424 1_556 S
C945 N942 1.360 . S
C945 C944 1.428 1_556 S
C946 C947 1.369 . S
C946 C948 1.419 . S
C946 H950 0.930 . S
C947 C946 1.369 . S
C947 C956 1.429 . S
C948 C946 1.419 . S
C948 C949 1.363 . S
C948 H951 0.929 . S
C949 C948 1.363 . S
C949 C955 1.428 . S
H950 C946 0.930 . S
H951 C948 0.929 . S
S952 N953 1.613 . S
S952 N954 1.610 . S
N953 S952 1.613 . S
N953 C956 1.350 . S
N954 S952 1.610 . S
N954 C955 1.351 . S
C955 C949 1.428 . S
C955 N954 1.351 . S
C955 C956 1.434 . S
C956 C947 1.429 . S
C956 N953 1.350 . S
C956 C955 1.434 . S
C957 C958 1.369 . S
C957 C959 1.419 . S
C957 H961 0.930 . S
C958 C957 1.369 . S
C958 C967 1.429 . S
C959 C957 1.419 . S
C959 C960 1.363 . S
C959 H962 0.929 . S
C960 C959 1.363 . S
C960 C966 1.428 . S
H961 C957 0.930 . S
H962 C959 0.929 . S
S963 N964 1.613 . S
S963 N965 1.610 . S
N964 S963 1.613 . S
N964 C967 1.350 . S
N965 S963 1.610 . S
N965 C966 1.351 . S
C966 C960 1.428 . S
C966 N965 1.351 . S
C966 C967 1.434 . S
C967 C958 1.429 . S
C967 N964 1.350 . S
C967 C966 1.434 . S
C968 C969 1.369 . S
C968 C970 1.419 . S
C968 H972 0.930 . S
C969 C968 1.369 . S
C969 C978 1.429 . S
C970 C968 1.419 . S
C970 C971 1.363 . S
C970 H973 0.929 . S
C971 C970 1.363 . S
C971 C977 1.428 . S
H972 C968 0.930 . S
H973 C970 0.929 . S
S974 N975 1.613 . S
S974 N976 1.610 . S
N975 S974 1.613 . S
N975 C978 1.350 . S
N976 S974 1.610 . S
N976 C977 1.351 . S
C977 C971 1.428 . S
C977 N976 1.351 . S
C977 C978 1.434 . S
C978 C969 1.429 . S
C978 N975 1.350 . S
C978 C977 1.434 . S
C979 C980 1.369 . S
C979 C981 1.419 . S
C979 H983 0.930 . S
C980 C979 1.369 . S
C980 C989 1.429 . S
C981 C979 1.419 . S
C981 C982 1.363 . S
C981 H984 0.929 . S
C982 C981 1.363 . S
C982 C988 1.428 . S
H983 C979 0.930 . S
H984 C981 0.929 . S
S985 N986 1.613 . S
S985 N987 1.610 . S
N986 S985 1.613 . S
N986 C989 1.350 . S
N987 S985 1.610 . S
N987 C988 1.351 . S
C988 C982 1.428 . S
C988 N987 1.351 . S
C988 C989 1.434 . S
C989 C980 1.429 . S
C989 N986 1.350 . S
C989 C988 1.434 . S
C990 C991 1.369 . S
C990 C992 1.419 . S
C990 H994 0.930 . S
C991 C990 1.369 . S
C991 C1000 1.429 . S
C992 C990 1.419 . S
C992 C993 1.363 . S
C992 H995 0.929 . S
C993 C992 1.363 . S
C993 C999 1.428 . S
H994 C990 0.930 . S
H995 C992 0.929 . S
S996 N997 1.613 . S
S996 N998 1.610 . S
N997 S996 1.613 . S
N997 C1000 1.350 . S
N998 S996 1.610 . S
N998 C999 1.351 . S
C999 C993 1.428 . S
C999 N998 1.351 . S
C999 C1000 1.434 . S
C1000 C991 1.429 . S
C1000 N997 1.350 . S
C1000 C999 1.434 . S
C1001 C1002 1.369 . S
C1001 C1003 1.419 . S
C1001 H1005 0.930 . S
C1002 C1001 1.369 . S
C1002 C1011 1.429 . S
C1003 C1001 1.419 . S
C1003 C1004 1.363 . S
C1003 H1006 0.929 . S
C1004 C1003 1.363 . S
C1004 C1010 1.428 . S
H1005 C1001 0.930 . S
H1006 C1003 0.929 . S
S1007 N1008 1.613 . S
S1007 N1009 1.610 . S
N1008 S1007 1.613 . S
N1008 C1011 1.350 . S
N1009 S1007 1.610 . S
N1009 C1010 1.351 . S
C1010 C1004 1.428 . S
C1010 N1009 1.351 . S
C1010 C1011 1.434 . S
C1011 C1002 1.429 . S
C1011 N1008 1.350 . S
C1011 C1010 1.434 . S
C1012 C1013 1.369 . S
C1012 C1014 1.419 . S
C1012 H1016 0.930 . S
C1013 C1012 1.369 . S
C1013 C1022 1.429 . S
C1014 C1012 1.419 . S
C1014 C1015 1.363 . S
C1014 H1017 0.929 . S
C1015 C1014 1.363 . S
C1015 C1021 1.428 . S
H1016 C1012 0.930 . S
H1017 C1014 0.929 . S
S1018 N1019 1.613 . S
S1018 N1020 1.610 . S
N1019 S1018 1.613 . S
N1019 C1022 1.350 . S
N1020 S1018 1.610 . S
N1020 C1021 1.351 . S
C1021 C1015 1.428 . S
C1021 N1020 1.351 . S
C1021 C1022 1.434 . S
C1022 C1013 1.429 . S
C1022 N1019 1.350 . S
C1022 C1021 1.434 . S
C1023 C1024 1.369 . S
C1023 C1025 1.419 . S
C1023 H1027 0.930 . S
C1024 C1023 1.369 . S
C1024 C1033 1.429 . S
C1025 C1023 1.419 . S
C1025 C1026 1.363 . S
C1025 H1028 0.929 . S
C1026 C1025 1.363 . S
C1026 C1032 1.428 . S
H1027 C1023 0.930 . S
H1028 C1025 0.929 . S
S1029 N1030 1.613 . S
S1029 N1031 1.610 . S
N1030 S1029 1.613 . S
N1030 C1033 1.350 . S
N1031 S1029 1.610 . S
N1031 C1032 1.351 . S
C1032 C1026 1.428 . S
C1032 N1031 1.351 . S
C1032 C1033 1.434 . S
C1033 C1024 1.429 . S
C1033 N1030 1.350 . S
C1033 C1032 1.434 . S
C1034 C1035 1.369 . S
C1034 C1036 1.419 . S
C1034 H1038 0.930 . S
C1035 C1034 1.369 . S
C1035 C1044 1.429 . S
C1036 C1034 1.419 . S
C1036 C1037 1.363 . S
C1036 H1039 0.929 . S
C1037 C1036 1.363 . S
C1037 C1043 1.428 . S
H1038 C1034 0.930 . S
H1039 C1036 0.929 . S
S1040 N1041 1.613 . S
S1040 N1042 1.610 . S
N1041 S1040 1.613 . S
N1041 C1044 1.350 . S
N1042 S1040 1.610 . S
N1042 C1043 1.351 . S
C1043 C1037 1.428 . S
C1043 N1042 1.351 . S
C1043 C1044 1.434 . S
C1044 C1035 1.429 . S
C1044 N1041 1.350 . S
C1044 C1043 1.434 . S
C1045 C1046 1.369 . S
C1045 C1047 1.419 . S
C1045 H1049 0.930 . S
C1046 C1045 1.369 . S
C1046 C1055 1.429 . S
C1047 C1045 1.419 . S
C1047 C1048 1.363 . S
C1047 H1050 0.929 . S
C1048 C1047 1.363 . S
C1048 C1054 1.428 . S
H1049 C1045 0.930 . S
H1050 C1047 0.929 . S
S1051 N1052 1.613 . S
S1051 N1053 1.610 . S
N1052 S1051 1.613 . S
N1052 C1055 1.350 . S
N1053 S1051 1.610 . S
N1053 C1054 1.351 . S
C1054 C1048 1.428 . S
C1054 N1053 1.351 . S
C1054 C1055 1.434 . S
C1055 C1046 1.429 . S
C1055 N1052 1.350 . S
C1055 C1054 1.434 . S
C1056 C1057 1.369 . S
C1056 C1058 1.419 . S
C1056 H1060 0.930 . S
C1057 C1056 1.369 . S
C1057 C1066 1.429 . S
C1058 C1056 1.419 . S
C1058 C1059 1.363 . S
C1058 H1061 0.929 . S
C1059 C1058 1.363 . S
C1059 C1065 1.428 . S
H1060 C1056 0.930 . S
H1061 C1058 0.929 . S
S1062 N1063 1.613 . S
S1062 N1064 1.610 . S
N1063 S1062 1.613 . S
N1063 C1066 1.350 . S
N1064 S1062 1.610 . S
N1064 C1065 1.351 . S
C1065 C1059 1.428 . S
C1065 N1064 1.351 . S
C1065 C1066 1.434 . S
C1066 C1057 1.429 . S
C1066 N1063 1.350 . S
C1066 C1065 1.434 . S
C1067 C1068 1.369 . S
C1067 C1069 1.419 . S
C1067 H1071 0.930 . S
C1068 C1067 1.369 . S
C1068 C1077 1.429 . S
C1069 C1067 1.419 . S
C1069 C1070 1.363 . S
C1069 H1072 0.929 . S
C1070 C1069 1.363 . S
C1070 C1076 1.428 . S
H1071 C1067 0.930 . S
H1072 C1069 0.929 . S
S1073 N1074 1.613 . S
S1073 N1075 1.610 . S
N1074 S1073 1.613 . S
N1074 C1077 1.350 . S
N1075 S1073 1.610 . S
N1075 C1076 1.351 . S
C1076 C1070 1.428 . S
C1076 N1075 1.351 . S
C1076 C1077 1.434 . S
C1077 C1068 1.429 . S
C1077 N1074 1.350 . S
C1077 C1076 1.434 . S
C1078 C1079 1.369 . S
C1078 C1080 1.419 . S
C1078 H1082 0.930 . S
C1079 C1078 1.369 . S
C1079 C1088 1.429 . S
C1080 C1078 1.419 . S
C1080 C1081 1.363 . S
C1080 H1083 0.929 . S
C1081 C1080 1.363 . S
C1081 C1087 1.428 . S
H1082 C1078 0.930 . S
H1083 C1080 0.929 . S
S1084 N1085 1.613 . S
S1084 N1086 1.610 . S
N1085 S1084 1.613 . S
N1085 C1088 1.350 . S
N1086 S1084 1.610 . S
N1086 C1087 1.351 . S
C1087 C1081 1.428 . S
C1087 N1086 1.351 . S
C1087 C1088 1.434 . S
C1088 C1079 1.429 . S
C1088 N1085 1.350 . S
C1088 C1087 1.434 . S
C595 C28 1.215 . S
C597 C248 1.275 . S
C606 C61 1.221 1_545 S
C608 C281 1.271 . S
C617 C94 1.213 1_655 S
C619 C215 1.272 . S
C628 C545 1.276 . S
C630 C127 1.209 . S
C639 C160 1.221 1_565 S
C641 C578 1.272 . S
C650 C193 1.221 1_455 S
C652 C512 1.272 . S
C661 C226 1.208 . S
C663 C446 1.274 1_655 S
C672 C479 1.273 . S
C674 C259 1.218 . S
C683 C413 1.276 1_545 S
C685 C292 1.211 . S
C694 C325 1.216 . S
C696 C149 1.274 . S
C705 C358 1.215 . S
C707 C182 1.271 . S
C716 C391 1.213 . S
C718 C116 1.275 . S
C727 C424 1.208 . S
C729 C50 1.275 . S
C738 C457 1.217 . S
C740 C83 1.274 . S
C749 C17 1.273 . S
C751 C490 1.211 . S
C760 C347 1.272 1_455 S
C762 C523 1.220 . S
C771 C556 1.219 . S
C773 C380 1.273 . S
C782 C589 1.217 . S
C784 C314 1.271 1_565 S
C793 N509 1.749 . S
C795 N14 1.741 . S
C804 N542 1.742 . S
C806 N47 1.746 . S
C815 N80 1.739 . S
C817 N575 1.749 . S
C826 N113 1.744 . S
C828 N212 1.744 . S
C837 N146 1.749 . S
C839 N245 1.740 . S
C848 N278 1.739 . S
C850 N179 1.748 . S
C859 N311 1.747 . S
C861 N410 1.741 . S
C870 N443 1.739 . S
C872 N344 1.748 . S
C881 N476 1.739 . S
C883 N377 1.749 . S
C892 N5 1.547 1_556 S
C894 C140 1.554 . S
C903 C173 1.553 . S
C905 N38 1.552 1_556 S
C914 N71 1.556 1_556 S
C916 C107 1.549 . S
C925 C41 1.555 . S
C927 N104 1.548 1_554 S
C936 N137 1.547 1_554 S
C938 C74 1.554 . S
C947 C8 1.549 . S
C949 N170 1.555 1_554 S
C958 N203 1.550 . S
C960 C338 1.553 . S
C969 C371 1.547 . S
C971 N236 1.555 . S
C980 C305 1.553 . S
C982 N269 1.552 . S
C991 N302 1.555 . S
C993 C239 1.547 . S
C1002 C272 1.549 . S
C1004 N335 1.551 . S
C1013 N368 1.551 . S
C1015 C206 1.554 . S
C1024 C536 1.547 . S
C1026 N401 1.555 . S
C1035 C569 1.549 . S
C1037 N434 1.555 . S
C1046 C503 1.548 . S
C1048 N467 1.553 . S
C1057 C437 1.550 . S
C1059 N500 1.550 . S
C1068 C470 1.554 . S
C1070 N533 1.552 . S
C1079 N566 1.550 . S
C1081 C404 1.550 . S
