# Generated by pormake.
# Topology why, (6)-cn, num edge types: 1
# Building blocks:
#     Node 0, Type 0, BuildingBlock: VOLQOD_clean_sbu_1, # of connection points: 6
#     Node 1, Type 0, BuildingBlock: VOLQOD_clean_sbu_1, # of connection points: 6
#     Node 2, Type 0, BuildingBlock: VOLQOD_clean_sbu_1, # of connection points: 6
#     Node 3, Type 0, BuildingBlock: VOLQOD_clean_sbu_1, # of connection points: 6
#     Node 4, Type 0, BuildingBlock: VOLQOD_clean_sbu_1, # of connection points: 6
#     Node 5, Type 0, BuildingBlock: VOLQOD_clean_sbu_1, # of connection points: 6
#     Node 6, Type 0, BuildingBlock: VOLQOD_clean_sbu_1, # of connection points: 6
#     Node 7, Type 0, BuildingBlock: VOLQOD_clean_sbu_1, # of connection points: 6
#     Node 8, Type 0, BuildingBlock: VOLQOD_clean_sbu_1, # of connection points: 6
#     Node 9, Type 0, BuildingBlock: VOLQOD_clean_sbu_1, # of connection points: 6
#     Node 10, Type 0, BuildingBlock: VOLQOD_clean_sbu_1, # of connection points: 6
#     Node 11, Type 0, BuildingBlock: VOLQOD_clean_sbu_1, # of connection points: 6
#     Node 12, Type 0, BuildingBlock: VOLQOD_clean_sbu_1, # of connection points: 6
#     Node 13, Type 0, BuildingBlock: VOLQOD_clean_sbu_1, # of connection points: 6
#     Node 14, Type 0, BuildingBlock: VOLQOD_clean_sbu_1, # of connection points: 6
#     Node 15, Type 0, BuildingBlock: VOLQOD_clean_sbu_1, # of connection points: 6
#     Edge 16, Type (0, 0), BuildingBlock: OJICUG_clean_linker_0, # of connection points: 2
#     Edge 17, Type (0, 0), BuildingBlock: OJICUG_clean_linker_0, # of connection points: 2
#     Edge 18, Type (0, 0), BuildingBlock: OJICUG_clean_linker_0, # of connection points: 2
#     Edge 19, Type (0, 0), BuildingBlock: OJICUG_clean_linker_0, # of connection points: 2
#     Edge 20, Type (0, 0), BuildingBlock: OJICUG_clean_linker_0, # of connection points: 2
#     Edge 21, Type (0, 0), BuildingBlock: OJICUG_clean_linker_0, # of connection points: 2
#     Edge 22, Type (0, 0), BuildingBlock: OJICUG_clean_linker_0, # of connection points: 2
#     Edge 23, Type (0, 0), BuildingBlock: OJICUG_clean_linker_0, # of connection points: 2
#     Edge 24, Type (0, 0), BuildingBlock: OJICUG_clean_linker_0, # of connection points: 2
#     Edge 25, Type (0, 0), BuildingBlock: OJICUG_clean_linker_0, # of connection points: 2
#     Edge 26, Type (0, 0), BuildingBlock: OJICUG_clean_linker_0, # of connection points: 2
#     Edge 27, Type (0, 0), BuildingBlock: OJICUG_clean_linker_0, # of connection points: 2
#     Edge 28, Type (0, 0), BuildingBlock: OJICUG_clean_linker_0, # of connection points: 2
#     Edge 29, Type (0, 0), BuildingBlock: OJICUG_clean_linker_0, # of connection points: 2
#     Edge 30, Type (0, 0), BuildingBlock: OJICUG_clean_linker_0, # of connection points: 2
#     Edge 31, Type (0, 0), BuildingBlock: OJICUG_clean_linker_0, # of connection points: 2
#     Edge 32, Type (0, 0), BuildingBlock: OJICUG_clean_linker_0, # of connection points: 2
#     Edge 33, Type (0, 0), BuildingBlock: OJICUG_clean_linker_0, # of connection points: 2
#     Edge 34, Type (0, 0), BuildingBlock: OJICUG_clean_linker_0, # of connection points: 2
#     Edge 35, Type (0, 0), BuildingBlock: OJICUG_clean_linker_0, # of connection points: 2
#     Edge 36, Type (0, 0), BuildingBlock: OJICUG_clean_linker_0, # of connection points: 2
#     Edge 37, Type (0, 0), BuildingBlock: OJICUG_clean_linker_0, # of connection points: 2
#     Edge 38, Type (0, 0), BuildingBlock: OJICUG_clean_linker_0, # of connection points: 2
#     Edge 39, Type (0, 0), BuildingBlock: OJICUG_clean_linker_0, # of connection points: 2
#     Edge 40, Type (0, 0), BuildingBlock: OJICUG_clean_linker_0, # of connection points: 2
#     Edge 41, Type (0, 0), BuildingBlock: OJICUG_clean_linker_0, # of connection points: 2
#     Edge 42, Type (0, 0), BuildingBlock: OJICUG_clean_linker_0, # of connection points: 2
#     Edge 43, Type (0, 0), BuildingBlock: OJICUG_clean_linker_0, # of connection points: 2
#     Edge 44, Type (0, 0), BuildingBlock: OJICUG_clean_linker_0, # of connection points: 2
#     Edge 45, Type (0, 0), BuildingBlock: OJICUG_clean_linker_0, # of connection points: 2
#     Edge 46, Type (0, 0), BuildingBlock: OJICUG_clean_linker_0, # of connection points: 2
#     Edge 47, Type (0, 0), BuildingBlock: OJICUG_clean_linker_0, # of connection points: 2
#     Edge 48, Type (0, 0), BuildingBlock: OJICUG_clean_linker_0, # of connection points: 2
#     Edge 49, Type (0, 0), BuildingBlock: OJICUG_clean_linker_0, # of connection points: 2
#     Edge 50, Type (0, 0), BuildingBlock: OJICUG_clean_linker_0, # of connection points: 2
#     Edge 51, Type (0, 0), BuildingBlock: OJICUG_clean_linker_0, # of connection points: 2
#     Edge 52, Type (0, 0), BuildingBlock: OJICUG_clean_linker_0, # of connection points: 2
#     Edge 53, Type (0, 0), BuildingBlock: OJICUG_clean_linker_0, # of connection points: 2
#     Edge 54, Type (0, 0), BuildingBlock: OJICUG_clean_linker_0, # of connection points: 2
#     Edge 55, Type (0, 0), BuildingBlock: OJICUG_clean_linker_0, # of connection points: 2
#     Edge 56, Type (0, 0), BuildingBlock: OJICUG_clean_linker_0, # of connection points: 2
#     Edge 57, Type (0, 0), BuildingBlock: OJICUG_clean_linker_0, # of connection points: 2
#     Edge 58, Type (0, 0), BuildingBlock: OJICUG_clean_linker_0, # of connection points: 2
#     Edge 59, Type (0, 0), BuildingBlock: OJICUG_clean_linker_0, # of connection points: 2
#     Edge 60, Type (0, 0), BuildingBlock: OJICUG_clean_linker_0, # of connection points: 2
#     Edge 61, Type (0, 0), BuildingBlock: OJICUG_clean_linker_0, # of connection points: 2
#     Edge 62, Type (0, 0), BuildingBlock: OJICUG_clean_linker_0, # of connection points: 2
#     Edge 63, Type (0, 0), BuildingBlock: OJICUG_clean_linker_0, # of connection points: 2
# Relax obj value: 0.320
# Max RMSD: 0.188
# Mean RMSD: 0.188
data_MOF--net-why--node1-VOLQOD_clean_sbu_1--edge1-OJICUG_clean_linker_0
_symmetry_space_group_name_H-M    P1
_symmetry_Int_Tables_number       1
_symmetry_cell_setting            triclinic
loop_
_symmetry_equiv_pos_as_xyz
'x, y, z'
_cell_length_a     37.984349
_cell_length_b     37.871514
_cell_length_c     24.676931
_cell_angle_alpha  89.938684
_cell_angle_beta   90.486997
_cell_angle_gamma 89.859538
loop_
_atom_site_label
_atom_site_type_symbol
_atom_site_fract_x
_atom_site_fract_y
_atom_site_fract_z
_atom_type_partial_charge
O0 O 0.31827 0.22913 0.93947 0.0
Zn1 Zn 0.3158 0.17943 0.96273 0.0
O2 O 0.32936 0.17495 0.03785 0.0
Zn3 Zn 0.37269 0.14891 0.04055 0.0
Zn4 Zn 0.33542 0.22181 0.07028 0.0
Zn5 Zn 0.29372 0.14792 0.07585 0.0
O6 O 0.36863 0.10745 0.0875 0.0
O7 O 0.31301 0.10538 0.11364 0.0
O8 O 0.34597 0.15112 0.91206 0.0
O9 O 0.38664 0.13026 0.96839 0.0
O10 O 0.41103 0.17795 0.0714 0.0
O11 O 0.38461 0.2265 0.10134 0.0
O12 O 0.29916 0.22943 0.12934 0.0
O13 O 0.26742 0.16281 0.95171 0.0
O14 O 0.27187 0.17759 0.13185 0.0
O15 O 0.2549 0.13265 0.02629 0.0
C16 C 0.32485 0.25847 0.96222 0.0
C17 C 0.34405 0.09292 0.11374 0.0
C18 C 0.41201 0.20732 0.0962 0.0
C19 C 0.37338 0.13267 0.92109 0.0
C20 C 0.27592 0.20889 0.14911 0.0
C21 C 0.24716 0.14296 0.97866 0.0
O22 O 0.33181 0.26038 0.01277 0.0
O23 O 0.49833 0.56789 0.19112 0.0
Zn24 Zn 0.54684 0.56606 0.21979 0.0
O25 O 0.54877 0.58222 0.29351 0.0
Zn26 Zn 0.5738 0.62599 0.29477 0.0
Zn27 Zn 0.5011 0.58899 0.32086 0.0
Zn28 Zn 0.57486 0.54779 0.33672 0.0
O29 O 0.61199 0.62426 0.34859 0.0
O30 O 0.61425 0.56928 0.37906 0.0
O31 O 0.57659 0.59463 0.16927 0.0
O32 O 0.59522 0.63747 0.22333 0.0
O33 O 0.54301 0.66525 0.31817 0.0
O34 O 0.49486 0.63881 0.34845 0.0
O35 O 0.4913 0.55379 0.38041 0.0
O36 O 0.56298 0.517 0.21594 0.0
O37 O 0.5428 0.52635 0.38996 0.0
O38 O 0.59334 0.50775 0.29215 0.0
C39 C 0.46841 0.5751 0.2108 0.0
C40 C 0.62536 0.60086 0.3793 0.0
C41 C 0.51335 0.66648 0.34152 0.0
C42 C 0.59435 0.62256 0.17719 0.0
C43 C 0.51087 0.53066 0.40333 0.0
C44 C 0.58287 0.49798 0.24553 0.0
O45 O 0.46499 0.58353 0.26047 0.0
O46 O 0.15336 0.75293 0.43702 0.0
Zn47 Zn 0.15486 0.80101 0.46781 0.0
O48 O 0.13763 0.8011 0.54082 0.0
Zn49 Zn 0.09349 0.82535 0.54113 0.0
Zn50 Zn 0.13158 0.75289 0.56685 0.0
Zn51 Zn 0.17057 0.82701 0.58628 0.0
O52 O 0.09341 0.86212 0.59659 0.0
O53 O 0.14753 0.86418 0.6303 0.0
O54 O 0.12618 0.83151 0.41724 0.0
O55 O 0.08225 0.84791 0.47021 0.0
O56 O 0.05488 0.79382 0.56303 0.0
O57 O 0.08211 0.74599 0.59468 0.0
O58 O 0.16667 0.7425 0.62699 0.0
O59 O 0.20367 0.81815 0.46707 0.0
O60 O 0.19269 0.79447 0.63876 0.0
O61 O 0.20979 0.84815 0.54415 0.0
C62 C 0.1455 0.72264 0.45535 0.0
C63 C 0.11579 0.87462 0.62967 0.0
C64 C 0.05423 0.76423 0.58724 0.0
C65 C 0.09767 0.84839 0.4247 0.0
C66 C 0.18903 0.76218 0.65121 0.0
C67 C 0.22094 0.83861 0.4981 0.0
O68 O 0.13693 0.71827 0.50477 0.0
O69 O 0.97356 0.39313 0.69724 0.0
Zn70 Zn 0.92474 0.39842 0.72226 0.0
O71 O 0.92068 0.38339 0.7963 0.0
Zn72 Zn 0.8946 0.34029 0.79656 0.0
Zn73 Zn 0.96761 0.37606 0.82756 0.0
Zn74 Zn 0.89448 0.41869 0.83664 0.0
O75 O 0.8538 0.3441 0.84389 0.0
O76 O 0.85227 0.39916 0.87393 0.0
O77 O 0.89453 0.37068 0.67032 0.0
O78 O 0.87565 0.32773 0.72357 0.0
O79 O 0.92328 0.30123 0.82646 0.0
O80 O 0.97122 0.32731 0.85943 0.0
O81 O 0.97709 0.41218 0.88631 0.0
O82 O 0.91088 0.44811 0.71558 0.0
O83 O 0.92523 0.43909 0.89326 0.0
O84 O 0.87951 0.45895 0.78945 0.0
C85 C 0.00276 0.3844 0.71885 0.0
C86 C 0.83972 0.36815 0.87209 0.0
C87 C 0.9521 0.30004 0.85292 0.0
C88 C 0.87686 0.34265 0.67745 0.0
C89 C 0.95699 0.43494 0.90847 0.0
C90 C 0.89113 0.46805 0.7434 0.0
O91 O 0.00522 0.37722 0.76923 0.0
O92 O 0.64259 0.74532 0.0314 0.0
Zn93 Zn 0.64481 0.79405 0.00437 0.0
O94 O 0.63131 0.79622 0.92935 0.0
Zn95 Zn 0.58781 0.8215 0.92515 0.0
Zn96 Zn 0.62525 0.74842 0.90023 0.0
Zn97 Zn 0.66677 0.82302 0.89028 0.0
O98 O 0.59024 0.85879 0.87068 0.0
O99 O 0.64629 0.86344 0.84788 0.0
O100 O 0.61508 0.82415 0.05278 0.0
O101 O 0.57507 0.84441 -0.0051 0.0
O102 O 0.54903 0.79046 0.90195 0.0
O103 O 0.57515 0.74165 0.87251 0.0
O104 O 0.66128 0.73987 0.84107 0.0
O105 O 0.69333 0.80993 0.01355 0.0
O106 O 0.68915 0.79143 0.83709 0.0
O107 O 0.70587 0.84012 0.93898 0.0
C108 C 0.63739 0.71517 0.01047 0.0
C109 C 0.6144 0.87335 0.84359 0.0
C110 C 0.54756 0.76037 0.87943 0.0
C111 C 0.58822 0.84308 0.04237 0.0
C112 C 0.685 0.75982 0.82114 0.0
C113 C 0.71377 0.82942 0.98641 0.0
O114 O 0.63091 0.71162 0.95998 0.0
O115 O 0.46822 0.40449 0.78289 0.0
Zn116 Zn 0.41997 0.40664 0.75322 0.0
O117 O 0.41861 0.38871 0.68052 0.0
Zn118 Zn 0.39541 0.3442 0.68251 0.0
Zn119 Zn 0.46628 0.38282 0.65341 0.0
Zn120 Zn 0.39159 0.42091 0.63489 0.0
O121 O 0.35608 0.34365 0.63141 0.0
O122 O 0.35227 0.39708 0.59531 0.0
O123 O 0.3894 0.3796 0.80526 0.0
O124 O 0.37505 0.33346 0.75462 0.0
O125 O 0.42659 0.30586 0.65793 0.0
O126 O 0.47304 0.33359 0.62419 0.0
O127 O 0.47576 0.41854 0.59469 0.0
O128 O 0.40438 0.45594 0.75283 0.0
O129 O 0.42291 0.44231 0.58035 0.0
O130 O 0.37241 0.46148 0.67721 0.0
C131 C 0.49813 0.39637 0.76395 0.0
C132 C 0.34164 0.36542 0.59918 0.0
C133 C 0.45539 0.30552 0.63217 0.0
C134 C 0.37371 0.35025 0.79911 0.0
C135 C 0.45543 0.43987 0.56934 0.0
C136 C 0.38371 0.47338 0.72217 0.0
O137 O 0.5018 0.38762 0.71447 0.0
O138 O 0.81921 0.22318 0.53038 0.0
Zn139 Zn 0.81464 0.17453 0.50348 0.0
O140 O 0.83001 0.17104 0.42997 0.0
Zn141 Zn 0.87334 0.14548 0.4296 0.0
Zn142 Zn 0.83684 0.21835 0.40036 0.0
Zn143 Zn 0.79519 0.14426 0.38909 0.0
O144 O 0.87077 0.10615 0.37863 0.0
O145 O 0.81569 0.10328 0.34908 0.0
O146 O 0.84204 0.14353 0.55455 0.0
O147 O 0.88501 0.12464 0.50169 0.0
O148 O 0.9122 0.17514 0.40291 0.0
O149 O 0.88552 0.22274 0.36925 0.0
O150 O 0.80052 0.22763 0.34179 0.0
O151 O 0.76525 0.16063 0.50864 0.0
O152 O 0.77378 0.17562 0.33424 0.0
O153 O 0.75559 0.12762 0.43561 0.0
C154 C 0.82726 0.25276 0.50975 0.0
C155 C 0.84718 0.09197 0.34938 0.0
C156 C 0.91303 0.20397 0.37657 0.0
C157 C 0.86978 0.12541 0.54736 0.0
C158 C 0.77761 0.20754 0.31967 0.0
C159 C 0.74598 0.13996 0.48101 0.0
O160 O 0.83458 0.25567 0.45962 0.0
O161 O -0.00265 0.57426 0.29042 0.0
Zn162 Zn 0.04564 0.57048 0.26271 0.0
O163 O 0.04686 0.57976 0.18627 0.0
Zn164 Zn 0.07337 0.62235 0.17434 0.0
Zn165 Zn -0.00122 0.585 0.15808 0.0
Zn166 Zn 0.07145 0.54103 0.15168 0.0
O167 O 0.10916 0.61514 0.1176 0.0
O168 O 0.11326 0.5568 0.11057 0.0
O169 O 0.07607 0.60325 0.305 0.0
O170 O 0.09793 0.6388 0.24244 0.0
O171 O 0.04213 0.66063 0.14772 0.0
O172 O -0.00816 0.63383 0.12697 0.0
O173 O -0.01067 0.54812 0.10048 0.0
O174 O 0.06254 0.52272 0.27968 0.0
O175 O 0.03983 0.51832 0.09835 0.0
O176 O 0.08689 0.50386 0.20366 0.0
C177 C 0.96696 0.57802 0.26938 0.0
C178 C 0.12322 0.58762 0.0979 0.0
C179 C 0.01107 0.66136 0.12822 0.0
C180 C 0.09592 0.62866 0.29155 0.0
C181 C 0.00854 0.52343 0.08149 0.0
C182 C 0.0797 0.49977 0.25339 0.0
O183 O 0.96272 0.58166 0.21839 0.0
O184 O 0.82115 0.72261 0.4472 0.0
Zn185 Zn 0.81828 0.67397 0.47422 0.0
O186 O 0.83307 0.67173 0.54866 0.0
Zn187 Zn 0.87681 0.64689 0.55068 0.0
Zn188 Zn 0.83908 0.71937 0.57809 0.0
Zn189 Zn 0.79855 0.64474 0.58909 0.0
O190 O 0.87533 0.6087 0.60354 0.0
O191 O 0.81995 0.60431 0.62998 0.0
O192 O 0.84688 0.64361 0.42416 0.0
O193 O 0.88894 0.62505 0.47992 0.0
O194 O 0.91537 0.67789 0.57459 0.0
O195 O 0.8889 0.72586 0.6065 0.0
O196 O 0.80298 0.7281 0.63701 0.0
O197 O 0.76929 0.65898 0.46758 0.0
O198 O 0.77645 0.67596 0.64307 0.0
O199 O 0.75896 0.62753 0.54185 0.0
C200 C 0.82737 0.75263 0.46793 0.0
C201 C 0.85181 0.59406 0.63179 0.0
C202 C 0.91658 0.70748 0.59862 0.0
C203 C 0.8746 0.62564 0.43322 0.0
C204 C 0.77997 0.70784 0.65807 0.0
C205 C 0.74972 0.63901 0.49544 0.0
O206 O 0.83423 0.7561 0.5183 0.0
O207 O -0.01185 0.06615 0.69457 0.0
Zn208 Zn 0.03681 0.06241 0.72168 0.0
O209 O 0.04038 0.07949 0.79456 0.0
Zn210 Zn 0.06457 0.12348 0.79272 0.0
Zn211 Zn -0.00665 0.08569 0.82406 0.0
Zn212 Zn 0.06793 0.04623 0.83738 0.0
O213 O 0.10574 0.12233 0.84056 0.0
O214 O 0.10917 0.06833 0.87471 0.0
O215 O 0.0673 0.08886 0.66915 0.0
O216 O 0.08329 0.13459 0.71959 0.0
O217 O 0.03477 0.16188 0.82114 0.0
O218 O -0.01157 0.13432 0.85573 0.0
O219 O -0.0153 0.04924 0.88195 0.0
O220 O 0.05078 0.01277 0.71952 0.0
O221 O 0.03769 0.02508 0.89317 0.0
O222 O 0.08466 0.00575 0.79272 0.0
C223 C 0.95873 0.07451 0.71498 0.0
C224 C 0.1207 0.09965 0.87073 0.0
C225 C 0.00651 0.16218 0.84837 0.0
C226 C 0.08366 0.11785 0.67497 0.0
C227 C 0.00544 0.0276 0.9058 0.0
C228 C 0.07186 -0.00548 0.74829 0.0
O229 O 0.95608 0.08274 0.76483 0.0
O230 O 0.6415 0.2459 0.94032 0.0
Zn231 Zn 0.64462 0.29463 0.96743 0.0
O232 O 0.63239 0.29721 0.04239 0.0
Zn233 Zn 0.58929 0.3231 0.04763 0.0
Zn234 Zn 0.62627 0.24955 0.07137 0.0
Zn235 Zn 0.66905 0.32337 0.08061 0.0
O236 O 0.59359 0.35996 0.10262 0.0
O237 O 0.65012 0.36351 0.12438 0.0
O238 O 0.61448 0.32517 0.92011 0.0
O239 O 0.5757 0.3466 0.97799 0.0
O240 O 0.55063 0.29261 0.0729 0.0
O241 O 0.57743 0.24383 0.10193 0.0
O242 O 0.66295 0.24046 0.12945 0.0
O243 O 0.69281 0.31072 0.95683 0.0
O244 O 0.69201 0.29137 0.13307 0.0
O245 O 0.70699 0.34064 0.0311 0.0
C246 C 0.63583 0.21589 0.96143 0.0
C247 C 0.61848 0.37374 0.12972 0.0
C248 C 0.54984 0.26279 0.09648 0.0
C249 C 0.5883 0.34486 0.9305 0.0
C250 C 0.68733 0.25987 0.14911 0.0
C251 C 0.71376 0.33034 0.98329 0.0
O252 O 0.6298 0.21256 0.0119 0.0
O253 O 0.46448 0.8932 0.18526 0.0
Zn254 Zn 0.41643 0.89598 0.21427 0.0
O255 O 0.41636 0.88626 0.29043 0.0
Zn256 Zn 0.39125 0.84297 0.30064 0.0
Zn257 Zn 0.46467 0.8813 0.31767 0.0
Zn258 Zn 0.39124 0.92409 0.32716 0.0
O259 O 0.35701 0.84853 0.3587 0.0
O260 O 0.35219 0.90607 0.37327 0.0
O261 O 0.38563 0.86352 0.1714 0.0
O262 O 0.36539 0.82708 0.2339 0.0
O263 O 0.42325 0.80479 0.32459 0.0
O264 O 0.47284 0.83214 0.34745 0.0
O265 O 0.47429 0.91804 0.37539 0.0
O266 O 0.39888 0.94365 0.20008 0.0
O267 O 0.42386 0.94794 0.37796 0.0
O268 O 0.37306 0.96112 0.27582 0.0
C269 C 0.49508 0.88982 0.20574 0.0
C270 C 0.34335 0.87444 0.38339 0.0
C271 C 0.45419 0.80426 0.34448 0.0
C272 C 0.36627 0.83776 0.18506 0.0
C273 C 0.4553 0.94296 0.39423 0.0
C274 C 0.38084 0.96592 0.22637 0.0
O275 O 0.49978 0.88588 0.25658 0.0
O276 O 0.14477 0.23493 0.53268 0.0
Zn277 Zn 0.14842 0.28443 0.50928 0.0
O278 O 0.13343 0.28912 0.4349 0.0
Zn279 Zn 0.09002 0.31494 0.4345 0.0
Zn280 Zn 0.12715 0.24243 0.40223 0.0
Zn281 Zn 0.16817 0.31623 0.39556 0.0
O282 O 0.09339 0.3575 0.38988 0.0
O283 O 0.14824 0.35912 0.36013 0.0
O284 O 0.11984 0.31343 0.56152 0.0
O285 O 0.07684 0.3323 0.50765 0.0
O286 O 0.05174 0.28644 0.40246 0.0
O287 O 0.07826 0.23851 0.37034 0.0
O288 O 0.16342 0.23445 0.34332 0.0
O289 O 0.1975 0.29958 0.51752 0.0
O290 O 0.18915 0.28699 0.3383 0.0
O291 O 0.20787 0.33102 0.44331 0.0
C292 C 0.13701 0.20577 0.51027 0.0
C293 C 0.11748 0.3721 0.36274 0.0
C294 C 0.05088 0.25763 0.37613 0.0
C295 C 0.09157 0.33081 0.55401 0.0
C296 C 0.18576 0.25538 0.3221 0.0
C297 C 0.21702 0.31974 0.4898 0.0
O298 O 0.12967 0.20393 0.45984 0.0
O299 O 0.97219 0.89626 0.28234 0.0
Zn300 Zn 0.92293 0.89801 0.25705 0.0
O301 O 0.91879 0.88298 0.18304 0.0
Zn302 Zn 0.89339 0.83942 0.1817 0.0
Zn303 Zn 0.96576 0.87634 0.15282 0.0
Zn304 Zn 0.89164 0.91817 0.14284 0.0
O305 O 0.85387 0.84205 0.13018 0.0
O306 O 0.8507 0.89764 0.10258 0.0
O307 O 0.89415 0.86913 0.30821 0.0
O308 O 0.87304 0.82765 0.25377 0.0
O309 O 0.9235 0.80023 0.15587 0.0
O310 O 0.97122 0.82676 0.12417 0.0
O311 O 0.9737 0.91185 0.09329 0.0
O312 O 0.90674 0.94676 0.26417 0.0
O313 O 0.92225 0.93989 0.0881 0.0
O314 O 0.87495 0.95775 0.19006 0.0
C315 C 0.00164 0.8897 0.26057 0.0
C316 C 0.83952 0.86608 0.10173 0.0
C317 C 0.95274 0.79912 0.13125 0.0
C318 C 0.87531 0.84194 0.30028 0.0
C319 C 0.95368 0.93537 0.07235 0.0
C320 C 0.88637 0.96655 0.23665 0.0
O321 O 0.00381 0.8816 0.21061 0.0
O322 O 0.30993 0.7124 0.04098 0.0
Zn323 Zn 0.31162 0.66407 0.01 0.0
O324 O 0.32597 0.6657 0.93507 0.0
Zn325 Zn 0.36983 0.6407 0.92969 0.0
Zn326 Zn 0.33199 0.71439 0.91037 0.0
Zn327 Zn 0.29104 0.64174 0.89052 0.0
O328 O 0.36727 0.60548 0.87197 0.0
O329 O 0.31175 0.60429 0.84396 0.0
O330 O 0.34471 0.63631 0.05701 0.0
O331 O 0.38399 0.61659 -0.00145 0.0
O332 O 0.40834 0.67233 0.90747 0.0
O333 O 0.38173 0.72232 0.88375 0.0
O334 O 0.29712 0.72613 0.85017 0.0
O335 O 0.26546 0.64063 0.01711 0.0
O336 O 0.26898 0.67523 0.83997 0.0
O337 O 0.25239 0.62132 0.93419 0.0
C338 C 0.31691 0.74299 0.02273 0.0
C339 C 0.34337 0.5937 0.84077 0.0
C340 C 0.40935 0.70323 0.88756 0.0
C341 C 0.37181 0.618 0.04632 0.0
C342 C 0.27365 0.70726 0.82698 0.0
C343 C 0.24577 0.62386 0.98432 0.0
O344 O 0.32568 0.74772 0.97348 0.0
O345 O 0.49326 0.07243 0.77778 0.0
Zn346 Zn 0.54188 0.06778 0.75152 0.0
O347 O 0.54495 0.08319 0.67763 0.0
Zn348 Zn 0.57057 0.12648 0.67707 0.0
Zn349 Zn 0.49777 0.0906 0.64738 0.0
Zn350 Zn 0.5712 0.04822 0.63669 0.0
O351 O 0.60875 0.12423 0.6248 0.0
O352 O 0.61158 0.06894 0.59616 0.0
O353 O 0.5724 0.09565 0.80284 0.0
O354 O 0.59196 0.13788 0.74885 0.0
O355 O 0.54064 0.166 0.65228 0.0
O356 O 0.49307 0.14005 0.61784 0.0
O357 O 0.48821 0.05503 0.58783 0.0
O358 O 0.55626 0.01816 0.75719 0.0
O359 O 0.53964 0.02716 0.58161 0.0
O360 O 0.58809 0.00825 0.68346 0.0
C361 C 0.46376 0.08068 0.75669 0.0
C362 C 0.62253 0.10059 0.59548 0.0
C363 C 0.51165 0.1675 0.62637 0.0
C364 C 0.59075 0.12318 0.79512 0.0
C365 C 0.50797 0.03175 0.56616 0.0
C366 C 0.57646 -0.0013 0.72932 0.0
O367 O 0.46082 0.08794 0.7064 0.0
C368 C 0.47599 0.19839 0.11443 0.0
C369 C 0.44675 0.22122 0.11201 0.0
H370 H 0.53207 0.19381 0.1123 0.0
C371 C 0.45205 0.25777 0.11574 0.0
H372 H 0.47259 0.17002 0.1125 0.0
C373 C 0.48611 0.27136 0.11526 0.0
C374 C 0.51528 0.24857 0.11163 0.0
H375 H 0.43002 0.27598 0.11441 0.0
H376 H 0.48947 0.29975 0.11412 0.0
C377 C 0.51006 0.21198 0.1145 0.0
C378 C 0.5209 0.73123 0.35551 0.0
C379 C 0.49888 0.70141 0.35537 0.0
H380 H 0.52394 0.78757 0.35323 0.0
C381 C 0.4625 0.70598 0.3618 0.0
H382 H 0.54915 0.72845 0.35152 0.0
C383 C 0.44809 0.73986 0.36262 0.0
C384 C 0.46986 0.76965 0.35751 0.0
H385 H 0.44491 0.68351 0.36234 0.0
H386 H 0.41971 0.74263 0.36404 0.0
C387 C 0.5065 0.76511 0.35683 0.0
C388 C 0.01497 0.71362 0.60932 0.0
C389 C 0.01976 0.75007 0.60303 0.0
H390 H 0.9779 0.6714 0.61371 0.0
C391 C -0.00957 0.77274 0.60597 0.0
H392 H 0.03712 0.69558 0.60777 0.0
C393 C 0.95655 0.75896 0.6099 0.0
C394 C 0.95156 0.72231 0.61032 0.0
H395 H -0.00652 0.80108 0.60225 0.0
H396 H 0.9343 0.77689 0.60825 0.0
C397 C 0.98107 0.69982 0.61268 0.0
C398 C 0.00221 0.25963 0.8723 0.0
C399 C 0.96576 0.26521 0.86873 0.0
H400 H 0.04391 0.22179 0.86884 0.0
C401 C 0.94288 0.23613 0.8706 0.0
H402 H 0.02044 0.28158 0.87144 0.0
C403 C 0.95632 0.20189 0.86951 0.0
C404 C -0.00726 0.19648 0.86588 0.0
H405 H 0.91459 0.23981 0.86881 0.0
H406 H 0.93813 0.17996 0.86656 0.0
C407 C 0.01564 0.22542 0.87051 0.0
C408 C 0.50733 0.70904 0.86656 0.0
C409 C 0.5124 0.74567 0.86795 0.0
H410 H 0.47036 0.66678 0.87146 0.0
C411 C 0.48286 0.76819 0.8667 0.0
H412 H 0.52956 0.69106 0.86726 0.0
C413 C 0.44892 0.75434 0.86909 0.0
C414 C 0.44402 0.71776 0.87318 0.0
H415 H 0.48601 0.79661 0.86701 0.0
H416 H 0.4268 0.77237 0.87136 0.0
C417 C 0.4734 0.69519 0.86938 0.0
C418 C 0.5063 0.26605 0.61344 0.0
C419 C 0.4698 0.2711 0.61627 0.0
H420 H 0.54841 0.22854 0.61392 0.0
C421 C 0.44725 0.24189 0.61138 0.0
H422 H 0.52423 0.28817 0.61671 0.0
C423 C 0.46102 0.20782 0.60928 0.0
C424 C 0.49751 0.20257 0.6128 0.0
H425 H 0.41892 0.24523 0.61252 0.0
H426 H 0.44303 0.18566 0.60945 0.0
C427 C 0.52009 0.23194 0.61204 0.0
C428 C 0.97644 0.19435 0.3572 0.0
C429 C 0.94756 0.21752 0.36031 0.0
H430 H 0.03246 0.18912 0.35844 0.0
C431 C 0.95313 0.254 0.35626 0.0
H432 H 0.97274 0.16602 0.35921 0.0
C433 C -0.01267 0.26722 0.35614 0.0
C434 C 0.01626 0.24407 0.35945 0.0
H435 H 0.9313 0.27243 0.35802 0.0
H436 H -0.00895 0.29556 0.3575 0.0
C437 C 0.01062 0.20755 0.35642 0.0
C438 C 0.95905 0.70068 0.11465 0.0
C439 C -0.0043 0.69596 0.11434 0.0
H440 H 0.91656 0.73751 0.11993 0.0
C441 C 0.01761 0.72563 0.10919 0.0
H442 H 0.94148 0.67832 0.11816 0.0
C443 C 0.00334 0.75957 0.10998 0.0
C444 C 0.96697 0.76429 0.11644 0.0
H445 H 0.04598 0.72273 0.10801 0.0
H446 H 0.02103 0.78196 0.10968 0.0
C447 C 0.94481 0.7346 0.11597 0.0
C448 C 0.16591 0.09049 0.94365 0.0
C449 C 0.1526 0.11032 0.89993 0.0
H450 H 0.20659 0.08572 0.00394 0.0
C451 C 0.17006 0.1411 0.88359 0.0
H452 H 0.15273 0.06675 0.95708 0.0
C453 C 0.20056 0.15169 0.90983 0.0
C454 C 0.2141 0.13191 0.95327 0.0
H455 H 0.16048 0.1569 0.8499 0.0
H456 H 0.21353 0.17545 0.89594 0.0
C457 C 0.19645 0.10142 0.97054 0.0
C458 C 0.63614 0.42162 0.19458 0.0
C459 C 0.60983 0.40293 0.16632 0.0
H460 H 0.64789 0.46706 0.24355 0.0
C461 C 0.5745 0.41341 0.17095 0.0
H462 H 0.66354 0.41381 0.19213 0.0
C463 C 0.56586 0.44348 0.19965 0.0
C464 C 0.59224 0.46334 0.22493 0.0
H465 H 0.55346 0.39927 0.15059 0.0
H466 H 0.53859 0.45198 0.20047 0.0
C467 C 0.62729 0.45176 0.22416 0.0
C468 C 0.30926 0.83171 0.43722 0.0
C469 C 0.31546 0.86694 0.4223 0.0
H470 H 0.27377 0.79542 0.47379 0.0
C471 C 0.29303 0.89376 0.4411 0.0
H472 H 0.32651 0.81053 0.42443 0.0
C473 C 0.26302 0.88493 0.4704 0.0
C474 C 0.25554 0.84936 0.48053 0.0
H475 H 0.29748 0.92114 0.43052 0.0
H476 H 0.24455 0.90544 0.48163 0.0
C477 C 0.27931 0.82299 0.46572 0.0
C478 C 0.89598 0.54929 0.6587 0.0
C479 C 0.86213 0.56362 0.66497 0.0
H480 H 0.93152 0.50779 0.67918 0.0
C481 C 0.8386 0.54788 0.70132 0.0
H482 H 0.91489 0.56092 0.63137 0.0
C483 C 0.8485 0.51737 0.72942 0.0
C484 C 0.88172 0.50228 0.72056 0.0
H485 H 0.81247 0.55866 0.70718 0.0
H486 H 0.82978 0.50481 0.75607 0.0
C487 C 0.90558 0.51883 0.686 0.0
C488 C 0.76261 0.81477 0.04833 0.0
C489 C 0.74755 0.83855 0.01125 0.0
H490 H 0.80339 0.80481 0.10557 0.0
C491 C 0.76387 0.87107 0.00136 0.0
H492 H 0.75068 0.78931 0.0561 0.0
C493 C 0.79424 0.88028 0.03039 0.0
C494 C 0.80864 0.85672 0.06876 0.0
H495 H 0.75252 0.88974 0.97283 0.0
H496 H 0.80612 0.90582 0.02333 0.0
C497 C 0.79289 0.82367 0.07658 0.0
C498 C 0.38886 0.55899 0.79373 0.0
C499 C 0.35307 0.56658 0.80143 0.0
H500 H 0.42644 0.52311 0.76127 0.0
C501 C 0.32733 0.54653 0.77422 0.0
H502 H 0.40934 0.57453 0.81299 0.0
C503 C 0.33737 0.51725 0.74366 0.0
C504 C 0.37304 0.50806 0.74071 0.0
H505 H 0.29957 0.5522 0.77902 0.0
H506 H 0.31732 0.50046 0.72592 0.0
C507 C 0.39874 0.5298 0.76387 0.0
C508 C 0.66505 0.14536 0.5645 0.0
C509 C 0.65221 0.11069 0.56127 0.0
H510 H 0.70471 0.18164 0.54079 0.0
C511 C 0.66851 0.08633 0.52656 0.0
H512 H 0.65287 0.16498 0.59023 0.0
C513 C 0.6983 0.09623 0.49748 0.0
C514 C 0.71203 0.13034 0.5036 0.0
H515 H 0.65885 0.05955 0.52293 0.0
H516 H 0.71147 0.07688 0.47244 0.0
C517 C 0.69474 0.15501 0.53615 0.0
C518 C 0.08194 0.42638 0.35493 0.0
C519 C 0.10922 0.40517 0.33507 0.0
H520 H 0.05144 0.4731 0.3446 0.0
C521 C 0.12751 0.41547 0.28856 0.0
H522 H 0.06764 0.41907 0.39106 0.0
C523 C 0.11791 0.44637 0.26142 0.0
C524 C 0.09044 0.46743 0.28131 0.0
H525 H 0.14861 0.39934 0.27263 0.0
H526 H 0.132 0.45383 0.22519 0.0
C527 C 0.07278 0.45736 0.32849 0.0
C528 C 0.67102 0.58654 0.44987 0.0
C529 C 0.65507 0.6109 0.41424 0.0
H530 H 0.71401 0.5767 0.50495 0.0
C531 C 0.66854 0.64527 0.41042 0.0
H532 H 0.66088 0.55997 0.45396 0.0
C533 C 0.69857 0.65454 0.43901 0.0
C534 C 0.71554 0.6298 0.4724 0.0
H535 H 0.65663 0.66487 0.38398 0.0
H536 H 0.70905 0.68093 0.43391 0.0
C537 C 0.70113 0.59607 0.4792 0.0
C538 C 0.11738 0.94886 0.73115 0.0
C539 C 0.08235 0.96033 0.72723 0.0
H540 H 0.1559 0.91231 0.70211 0.0
C541 C 0.05786 0.94115 0.69663 0.0
H542 H 0.13657 0.96352 0.75474 0.0
C543 C 0.06866 0.91224 0.66692 0.0
C544 C 0.10427 0.90224 0.66695 0.0
H545 H 0.03056 0.94943 0.69388 0.0
H546 H 0.04925 0.89867 0.64222 0.0
C547 C 0.12839 0.91988 0.70082 0.0
C548 C 0.7588 0.31966 0.91411 0.0
C549 C 0.74663 0.34039 0.95711 0.0
H550 H 0.79751 0.31236 0.8537 0.0
C551 C 0.76544 0.3706 0.97289 0.0
H552 H 0.74496 0.29607 0.9013 0.0
C553 C 0.79582 0.38022 0.94499 0.0
C554 C 0.80776 0.35933 0.90183 0.0
H555 H 0.75638 0.387 0.00591 0.0
H556 H 0.81002 0.40368 0.95733 0.0
C557 C 0.78904 0.32895 0.88691 0.0
C558 C 0.38937 0.00892 0.15272 0.0
C559 C 0.37039 -0.00157 0.19849 0.0
H560 H 0.39573 0.04701 0.09033 0.0
C561 C 0.342 0.01904 0.21634 0.0
H562 H 0.41151 -0.00636 0.13819 0.0
C563 C 0.33265 0.04976 0.18823 0.0
C564 C 0.35212 0.06028 0.14291 0.0
H565 H 0.32696 0.0113 0.25148 0.0
H566 H 0.31073 0.06551 0.20238 0.0
C567 C 0.38045 0.0396 0.12543 0.0
C568 C 0.26638 0.30914 0.55289 0.0
C569 C 0.25057 0.33061 0.5134 0.0
H570 H 0.30765 0.30327 0.61059 0.0
C571 C 0.26593 0.363 0.49946 0.0
H572 H 0.25518 0.28384 0.56381 0.0
C573 C 0.29608 0.37447 0.52678 0.0
C574 C 0.31121 0.35336 0.56761 0.0
H575 H 0.254 0.37993 0.46899 0.0
H576 H 0.30716 0.39993 0.51657 0.0
C577 C 0.29649 0.32031 0.57956 0.0
C578 C 0.89083 0.04668 0.32384 0.0
C579 C 0.85712 0.06129 0.31668 0.0
H580 H 0.92634 0.00543 0.30347 0.0
C581 C 0.83359 0.04594 0.27932 0.0
H582 H 0.90976 0.05798 0.35192 0.0
C583 C 0.84344 0.01566 0.25086 0.0
C584 C 0.87662 0.00042 0.2603 0.0
H585 H 0.80755 0.05694 0.27275 0.0
H586 H 0.82477 0.00346 0.22327 0.0
C587 C 0.90039 0.01652 0.29612 0.0
C588 C 0.15132 0.6175 0.02074 0.0
C589 C 0.15293 0.59197 0.06185 0.0
H590 H 0.18035 0.64674 0.96181 0.0
C591 C 0.18429 0.57352 0.07212 0.0
H592 H 0.12714 0.63185 0.01247 0.0
C593 C 0.21467 0.58265 0.04432 0.0
C594 C 0.21335 0.60931 0.005 0.0
H595 H 0.18585 0.55392 0.10408 0.0
H596 H 0.23942 0.57005 0.05504 0.0
C597 C 0.18143 0.62582 -0.00821 0.0
C598 C 0.62002 0.95063 0.74702 0.0
C599 C 0.58584 0.96431 0.75163 0.0
H600 H 0.65637 0.91069 0.77367 0.0
C601 C 0.56074 0.9464 0.78228 0.0
H602 H 0.63968 0.96429 0.72341 0.0
C603 C 0.56996 0.91609 0.81029 0.0
C604 C 0.60468 0.9033 0.80879 0.0
H605 H 0.53407 0.95638 0.78571 0.0
H606 H 0.55 0.90347 0.83465 0.0
C607 C 0.62952 0.92026 0.77591 0.0
C608 C 0.38661 0.12584 0.82213 0.0
C609 C 0.39117 0.11456 0.87605 0.0
H610 H 0.4061 0.12341 0.74089 0.0
C611 C 0.41511 0.08723 0.8875 0.0
H612 H 0.36804 0.14665 0.81211 0.0
C613 C 0.43636 0.07366 0.84689 0.0
C614 C 0.43438 0.08734 0.79401 0.0
H615 H 0.41859 0.07737 0.92844 0.0
H616 H 0.45597 0.054 0.85777 0.0
C617 C 0.40817 0.11234 0.78129 0.0
C618 C 0.63753 0.66574 0.14162 0.0
C619 C 0.61178 0.64007 0.13134 0.0
H620 H 0.66686 0.709 0.11029 0.0
C621 C 0.60012 0.63454 0.07776 0.0
H622 H 0.64759 0.67006 0.18229 0.0
C623 C 0.61119 0.65702 0.03622 0.0
C624 C 0.63408 0.68511 0.04797 0.0
H625 H 0.58047 0.61468 0.06865 0.0
H626 H 0.59958 0.65422 -0.00379 0.0
C627 C 0.64867 0.68794 0.10029 0.0
C628 C 0.06046 0.86388 0.28469 0.0
C629 C 0.03255 0.88689 0.29679 0.0
H630 H 0.10366 0.83354 0.31654 0.0
C631 C 0.03105 0.90238 0.34842 0.0
H632 H 0.0623 0.85166 0.24515 0.0
C633 C 0.05435 0.89186 0.38911 0.0
C634 C 0.07978 0.86588 0.37881 0.0
H635 H 0.01022 0.92075 0.3586 0.0
H636 H 0.05098 0.90243 0.42953 0.0
C637 C 0.08406 0.85346 0.32558 0.0
C638 C 0.81868 0.28042 0.59965 0.0
C639 C 0.83312 0.28235 0.54751 0.0
H640 H 0.82127 0.29814 0.68162 0.0
C641 C 0.858 0.3087 0.53621 0.0
H642 H 0.79905 0.26074 0.60937 0.0
C643 C 0.87075 0.33034 0.57794 0.0
C644 C 0.85885 0.32566 0.63128 0.0
H645 H 0.86959 0.31075 0.49638 0.0
H646 H 0.89163 0.34888 0.5692 0.0
C647 C 0.83153 0.30172 0.64115 0.0
C648 C 0.57616 0.85221 0.14109 0.0
C649 C 0.56988 0.86144 0.08662 0.0
H650 H 0.55725 0.85455 0.22261 0.0
C651 C 0.54306 0.88575 0.07418 0.0
H652 H 0.59692 0.83379 0.15194 0.0
C653 C 0.52065 0.89773 0.11449 0.0
C654 C 0.52457 0.8856 0.16799 0.0
H655 H 0.53805 0.89402 0.03277 0.0
H656 H 0.4988 0.9147 0.10303 0.0
C657 C 0.5536 0.86425 0.18162 0.0
C658 C 0.32748 0.31031 0.83362 0.0
C659 C 0.35505 0.33384 0.84466 0.0
H660 H 0.29512 0.26884 0.86345 0.0
C661 C 0.36714 0.33779 0.89831 0.0
H662 H 0.31715 0.30733 0.7928 0.0
C663 C 0.35456 0.31546 0.93909 0.0
C664 C 0.32969 0.28924 0.92642 0.0
H665 H 0.38826 0.35598 0.90782 0.0
H666 H 0.36651 0.31669 0.97905 0.0
C667 C 0.31476 0.28839 0.87417 0.0
C668 C 0.93105 0.06578 0.62475 0.0
C669 C 0.92907 0.08012 0.67713 0.0
H670 H 0.91367 0.06905 0.54245 0.0
C671 C 0.90267 0.10499 0.6886 0.0
H672 H 0.95074 0.0461 0.61494 0.0
C673 C 0.88124 0.11812 0.64679 0.0
C674 C 0.88619 0.10658 0.59326 0.0
H675 H 0.90053 0.11644 0.72864 0.0
H676 H 0.86276 0.13912 0.65569 0.0
C677 C 0.90996 0.07905 0.58314 0.0
C678 C 0.12114 0.66362 0.42981 0.0
C679 C 0.14039 0.69383 0.41582 0.0
H680 H 0.09195 0.61913 0.40126 0.0
C681 C 0.14954 0.69915 0.36128 0.0
H682 H 0.11383 0.65864 0.47145 0.0
C683 C 0.13672 0.67674 0.32097 0.0
C684 C 0.11469 0.64844 0.33444 0.0
H685 H 0.1648 0.72192 0.34918 0.0
H686 H 0.14264 0.68272 0.27909 0.0
C687 C 0.10841 0.6411 0.38944 0.0
C688 C 0.91832 0.58194 0.4003 0.0
C689 C 0.89238 0.6073 0.38841 0.0
H690 H 0.96169 0.55188 0.371 0.0
C691 C 0.88668 0.6175 0.3342 0.0
H692 H 0.92282 0.57296 0.44149 0.0
C693 C 0.90907 0.60527 0.29349 0.0
C694 C 0.93729 0.58273 0.30672 0.0
H695 H 0.86664 0.63681 0.32384 0.0
H696 H 0.90604 0.61567 0.2528 0.0
C697 C 0.94049 0.56974 0.35986 0.0
C698 C 0.09066 0.12947 0.57563 0.0
C699 C 0.10278 0.13342 0.62924 0.0
H700 H 0.09262 0.14955 0.49436 0.0
C701 C 0.13151 0.15557 0.63992 0.0
H702 H 0.06869 0.11224 0.56641 0.0
C703 C 0.14555 0.17623 0.59889 0.0
C704 C 0.13075 0.17555 0.54654 0.0
H705 H 0.14192 0.1584 0.68071 0.0
H706 H 0.16618 0.19482 0.60924 0.0
C707 C 0.10453 0.15059 0.53437 0.0
C708 C 0.55545 0.36858 0.79041 0.0
C709 C 0.52718 0.391 0.80302 0.0
H710 H 0.59721 0.33617 0.82136 0.0
C711 C 0.52329 0.4028 0.85663 0.0
H712 H 0.55921 0.35916 0.74942 0.0
C713 C 0.54468 0.38935 0.8978 0.0
C714 C 0.57057 0.36408 0.88606 0.0
H715 H 0.5021 0.42058 0.86748 0.0
H716 H 0.53966 0.39736 0.93916 0.0
C717 C 0.57705 0.35522 0.83171 0.0
C718 C 0.3131 0.76632 0.11697 0.0
C719 C 0.32129 0.77199 0.06217 0.0
H720 H 0.32087 0.78275 0.19894 0.0
C721 C 0.3393 0.8029 0.04763 0.0
H722 H 0.2988 0.74302 0.12951 0.0
C723 C 0.35204 0.8257 0.08761 0.0
C724 C 0.34697 0.81796 0.14275 0.0
H725 H 0.34579 0.80821 0.00575 0.0
H726 H 0.36769 0.84815 0.07532 0.0
C727 C 0.32589 0.78904 0.15688 0.0
C728 C 0.0787 0.33725 0.6532 0.0
C729 C 0.07467 0.34921 0.59954 0.0
H730 H 0.05893 0.33954 0.73435 0.0
C731 C 0.05184 0.37755 0.58862 0.0
H732 H 0.09642 0.31561 0.66271 0.0
C733 C 0.03101 0.39153 0.62941 0.0
C734 C 0.03224 0.37721 0.68192 0.0
H735 H 0.04885 0.38791 0.54788 0.0
H736 H 0.01219 0.41201 0.61887 0.0
C737 C 0.05748 0.35112 0.69424 0.0
C738 C 0.86904 0.8305 0.39976 0.0
C739 C 0.85733 0.82512 0.34618 0.0
H740 H 0.8681 0.81161 0.48167 0.0
C741 C 0.83024 0.80085 0.33608 0.0
H742 H 0.88966 0.84937 0.40872 0.0
C743 C 0.81763 0.77975 0.37772 0.0
C744 C 0.8321 0.78228 0.43015 0.0
H745 H 0.82007 0.79678 0.29541 0.0
H746 H 0.79835 0.75965 0.36795 0.0
C747 C 0.85651 0.80911 0.4416 0.0
C748 C 0.41882 0.57705 0.07885 0.0
C749 C 0.39153 0.60075 0.09078 0.0
H750 H 0.46402 0.54937 0.10824 0.0
C751 C 0.38581 0.61049 0.145 0.0
H752 H 0.42343 0.56846 0.03764 0.0
C753 C 0.40922 0.59955 0.18571 0.0
C754 C 0.43855 0.57869 0.17263 0.0
H755 H 0.36471 0.62845 0.15551 0.0
H756 H 0.40577 0.60957 0.22643 0.0
C757 C 0.44202 0.56604 0.11941 0.0
C758 C 0.64627 0.18803 0.8722 0.0
C759 C 0.63169 0.18579 0.92421 0.0
H760 H 0.64488 0.16958 0.79058 0.0
C761 C 0.60827 0.15821 0.93591 0.0
H762 H 0.66485 0.20867 0.86229 0.0
C763 C 0.59676 0.13566 0.89452 0.0
C764 C 0.60853 0.14058 0.84116 0.0
H765 H 0.59667 0.15589 0.9757 0.0
H766 H 0.57674 0.11624 0.90349 0.0
C767 C 0.63474 0.16572 0.83106 0.0
C768 C 0.25562 0.25538 0.21377 0.0
C769 C 0.25289 0.221 0.19326 0.0
H770 H 0.23658 0.29316 0.27045 0.0
C771 C 0.22779 0.19789 0.21543 0.0
H772 H 0.27463 0.27379 0.19761 0.0
C773 C 0.20593 0.20891 0.25727 0.0
C774 C 0.20867 0.24329 0.27778 0.0
H775 H 0.22497 0.17113 0.20058 0.0
H776 H 0.18693 0.1905 0.27344 0.0
C777 C 0.23374 0.26642 0.25557 0.0
C778 C 0.51856 0.48312 0.47256 0.0
C779 C 0.49654 0.50773 0.44605 0.0
H780 H 0.5229 0.44236 0.53217 0.0
C781 C 0.46095 0.50977 0.46035 0.0
H782 H 0.54618 0.48086 0.46252 0.0
C783 C 0.44762 0.48758 0.50027 0.0
C784 C 0.46965 0.46295 0.52674 0.0
H785 H 0.44333 0.5284 0.44065 0.0
H786 H 0.42002 0.48983 0.51038 0.0
C787 C 0.50525 0.46098 0.51251 0.0
C788 C 0.20619 0.71327 0.71405 0.0
C789 C 0.21085 0.74797 0.69584 0.0
H790 H 0.22213 0.67336 0.76998 0.0
C791 C 0.23618 0.7695 0.72149 0.0
H792 H 0.18685 0.69609 0.69533 0.0
C793 C 0.25646 0.75653 0.76448 0.0
C794 C 0.25179 0.72181 0.78264 0.0
H795 H 0.24041 0.79646 0.70843 0.0
H796 H 0.27583 0.77366 0.78323 0.0
C797 C 0.22641 0.70033 0.75703 0.0
C798 C 0.96067 0.50475 0.01768 0.0
C799 C -0.005 0.50044 0.03793 0.0
H800 H 0.92179 0.48749 0.9609 0.0
C801 C 0.01679 0.47421 0.01547 0.0
H802 H 0.94326 0.52468 0.03406 0.0
C803 C 0.00456 0.45288 0.97338 0.0
C804 C 0.97028 0.4573 0.95298 0.0
H805 H 0.04345 0.47018 0.03014 0.0
H806 H 0.02199 0.433 0.9569 0.0
C807 C 0.94843 0.48338 0.97567 0.0
C808 C 0.73467 0.7688 0.75679 0.0
C809 C 0.70902 0.74639 0.77915 0.0
H810 H 0.77724 0.77429 0.70125 0.0
C811 C 0.70709 0.71128 0.76154 0.0
H812 H 0.73693 0.79608 0.76946 0.0
C813 C 0.73033 0.69883 0.72247 0.0
C814 C 0.75597 0.72124 0.70011 0.0
H815 H 0.68773 0.69335 0.77799 0.0
H816 H 0.72806 0.67155 0.70978 0.0
C817 C 0.75789 0.75636 0.7177 0.0
C818 C 0.73672 0.26807 0.21512 0.0
C819 C 0.71062 0.2462 0.19226 0.0
H820 H 0.77834 0.27309 0.27339 0.0
C821 C 0.70686 0.2116 0.21151 0.0
H822 H 0.74031 0.29495 0.2012 0.0
C823 C 0.72871 0.19914 0.2529 0.0
C824 C 0.75472 0.22105 0.27591 0.0
H825 H 0.68703 0.19414 0.19476 0.0
H826 H 0.72507 0.17229 0.2669 0.0
C827 C 0.75854 0.25562 0.25658 0.0
C828 C 0.01459 0.9791 0.97294 0.0
C829 C -0.00792 0.00414 0.94846 0.0
H830 H 0.02013 0.93761 0.03114 0.0
C831 C 0.95686 0.00612 0.9647 0.0
H832 H 0.04192 0.97682 0.96122 0.0
C833 C 0.94442 -0.01641 0.00478 0.0
C834 C 0.96696 0.9586 0.02933 0.0
H835 H 0.93888 0.02506 0.94656 0.0
H836 H 0.91709 -0.01415 0.01648 0.0
C837 C 0.00214 0.95652 0.01295 0.0
C838 C 0.46021 0.01415 0.5013 0.0
C839 C 0.49443 0.0094 0.5218 0.0
H840 H 0.42111 -0.00296 0.44473 0.0
C841 C 0.516 0.983 0.4993 0.0
H842 H 0.44301 0.03429 0.51761 0.0
C843 C 0.50351 0.96161 0.45748 0.0
C844 C 0.46921 0.96619 0.43723 0.0
H845 H 0.54258 0.97865 0.51409 0.0
H846 H 0.52068 0.94139 0.44132 0.0
C847 C 0.44774 -0.00721 0.45941 0.0
loop_
_geom_bond_atom_site_label_1
_geom_bond_atom_site_label_2
_geom_bond_distance
_geom_bond_site_symmetry_2
_ccdc_geom_bond_type
O0 Zn1 1.953 . S
O0 C16 1.225 . S
Zn1 O0 1.953 . S
Zn1 O2 1.949 1_556 S
Zn1 O8 1.919 . S
Zn1 O13 1.924 . S
O2 Zn1 1.949 1_554 S
O2 Zn3 1.923 . S
O2 Zn4 1.950 . S
O2 Zn5 1.945 . S
Zn3 O2 1.923 . S
Zn3 O6 1.933 . S
Zn3 O9 1.941 1_554 S
Zn3 O10 1.965 . S
Zn4 O2 1.950 . S
Zn4 O11 1.938 . S
Zn4 O12 1.906 . S
Zn4 O22 1.953 . S
Zn5 O2 1.945 . S
Zn5 O7 1.932 . S
Zn5 O14 1.977 . S
Zn5 O15 1.910 . S
O6 Zn3 1.933 . S
O6 C17 1.226 . S
O7 Zn5 1.932 . S
O7 C17 1.307 . S
O8 Zn1 1.919 . S
O8 C19 1.253 . S
O9 Zn3 1.941 1_556 S
O9 C19 1.283 . S
O10 Zn3 1.965 . S
O10 C18 1.303 . S
O11 Zn4 1.938 . S
O11 C18 1.247 . S
O12 Zn4 1.906 . S
O12 C20 1.304 . S
O13 Zn1 1.924 . S
O13 C21 1.311 . S
O14 Zn5 1.977 . S
O14 C20 1.272 . S
O15 Zn5 1.910 . S
O15 C21 1.231 1_554 S
C16 O0 1.225 . S
C16 O22 1.298 1_556 S
C17 O6 1.226 . S
C17 O7 1.307 . S
C18 O10 1.303 . S
C18 O11 1.247 . S
C19 O8 1.253 . S
C19 O9 1.283 . S
C20 O12 1.304 . S
C20 O14 1.272 . S
C21 O13 1.311 . S
C21 O15 1.231 1_556 S
O22 Zn4 1.953 . S
O22 C16 1.298 1_554 S
O23 Zn24 1.953 . S
O23 C39 1.225 . S
Zn24 O23 1.953 . S
Zn24 O25 1.949 . S
Zn24 O31 1.919 . S
Zn24 O36 1.924 . S
O25 Zn24 1.949 . S
O25 Zn26 1.923 . S
O25 Zn27 1.950 . S
O25 Zn28 1.945 . S
Zn26 O25 1.923 . S
Zn26 O29 1.933 . S
Zn26 O32 1.941 . S
Zn26 O33 1.965 . S
Zn27 O25 1.950 . S
Zn27 O34 1.938 . S
Zn27 O35 1.906 . S
Zn27 O45 1.953 . S
Zn28 O25 1.945 . S
Zn28 O30 1.932 . S
Zn28 O37 1.977 . S
Zn28 O38 1.910 . S
O29 Zn26 1.933 . S
O29 C40 1.226 . S
O30 Zn28 1.932 . S
O30 C40 1.307 . S
O31 Zn24 1.919 . S
O31 C42 1.253 . S
O32 Zn26 1.941 . S
O32 C42 1.283 . S
O33 Zn26 1.965 . S
O33 C41 1.303 . S
O34 Zn27 1.938 . S
O34 C41 1.247 . S
O35 Zn27 1.906 . S
O35 C43 1.304 . S
O36 Zn24 1.924 . S
O36 C44 1.311 . S
O37 Zn28 1.977 . S
O37 C43 1.272 . S
O38 Zn28 1.910 . S
O38 C44 1.231 . S
C39 O23 1.225 . S
C39 O45 1.298 . S
C40 O29 1.226 . S
C40 O30 1.307 . S
C41 O33 1.303 . S
C41 O34 1.247 . S
C42 O31 1.253 . S
C42 O32 1.283 . S
C43 O35 1.304 . S
C43 O37 1.272 . S
C44 O36 1.311 . S
C44 O38 1.231 . S
O45 Zn27 1.953 . S
O45 C39 1.298 . S
O46 Zn47 1.953 . S
O46 C62 1.225 . S
Zn47 O46 1.953 . S
Zn47 O48 1.949 . S
Zn47 O54 1.919 . S
Zn47 O59 1.924 . S
O48 Zn47 1.949 . S
O48 Zn49 1.923 . S
O48 Zn50 1.950 . S
O48 Zn51 1.945 . S
Zn49 O48 1.923 . S
Zn49 O52 1.933 . S
Zn49 O55 1.941 . S
Zn49 O56 1.965 . S
Zn50 O48 1.950 . S
Zn50 O57 1.938 . S
Zn50 O58 1.906 . S
Zn50 O68 1.953 . S
Zn51 O48 1.945 . S
Zn51 O53 1.932 . S
Zn51 O60 1.977 . S
Zn51 O61 1.910 . S
O52 Zn49 1.933 . S
O52 C63 1.226 . S
O53 Zn51 1.932 . S
O53 C63 1.307 . S
O54 Zn47 1.919 . S
O54 C65 1.253 . S
O55 Zn49 1.941 . S
O55 C65 1.283 . S
O56 Zn49 1.965 . S
O56 C64 1.303 . S
O57 Zn50 1.938 . S
O57 C64 1.247 . S
O58 Zn50 1.906 . S
O58 C66 1.304 . S
O59 Zn47 1.924 . S
O59 C67 1.311 . S
O60 Zn51 1.977 . S
O60 C66 1.272 . S
O61 Zn51 1.910 . S
O61 C67 1.231 . S
C62 O46 1.225 . S
C62 O68 1.298 . S
C63 O52 1.226 . S
C63 O53 1.307 . S
C64 O56 1.303 . S
C64 O57 1.247 . S
C65 O54 1.253 . S
C65 O55 1.283 . S
C66 O58 1.304 . S
C66 O60 1.272 . S
C67 O59 1.311 . S
C67 O61 1.231 . S
O68 Zn50 1.953 . S
O68 C62 1.298 . S
O69 Zn70 1.953 . S
O69 C85 1.225 1_655 S
Zn70 O69 1.953 . S
Zn70 O71 1.949 . S
Zn70 O77 1.919 . S
Zn70 O82 1.924 . S
O71 Zn70 1.949 . S
O71 Zn72 1.923 . S
O71 Zn73 1.950 . S
O71 Zn74 1.945 . S
Zn72 O71 1.923 . S
Zn72 O75 1.933 . S
Zn72 O78 1.941 . S
Zn72 O79 1.965 . S
Zn73 O71 1.950 . S
Zn73 O80 1.938 . S
Zn73 O81 1.906 . S
Zn73 O91 1.953 1_655 S
Zn74 O71 1.945 . S
Zn74 O76 1.932 . S
Zn74 O83 1.977 . S
Zn74 O84 1.910 . S
O75 Zn72 1.933 . S
O75 C86 1.226 . S
O76 Zn74 1.932 . S
O76 C86 1.307 . S
O77 Zn70 1.919 . S
O77 C88 1.253 . S
O78 Zn72 1.941 . S
O78 C88 1.283 . S
O79 Zn72 1.965 . S
O79 C87 1.303 . S
O80 Zn73 1.938 . S
O80 C87 1.247 . S
O81 Zn73 1.906 . S
O81 C89 1.304 . S
O82 Zn70 1.924 . S
O82 C90 1.311 . S
O83 Zn74 1.977 . S
O83 C89 1.272 . S
O84 Zn74 1.910 . S
O84 C90 1.231 . S
C85 O69 1.225 1_455 S
C85 O91 1.298 . S
C86 O75 1.226 . S
C86 O76 1.307 . S
C87 O79 1.303 . S
C87 O80 1.247 . S
C88 O77 1.253 . S
C88 O78 1.283 . S
C89 O81 1.304 . S
C89 O83 1.272 . S
C90 O82 1.311 . S
C90 O84 1.231 . S
O91 Zn73 1.953 1_455 S
O91 C85 1.298 . S
O92 Zn93 1.953 . S
O92 C108 1.225 . S
Zn93 O92 1.953 . S
Zn93 O94 1.949 1_554 S
Zn93 O100 1.919 . S
Zn93 O105 1.924 . S
O94 Zn93 1.949 1_556 S
O94 Zn95 1.923 . S
O94 Zn96 1.950 . S
O94 Zn97 1.945 . S
Zn95 O94 1.923 . S
Zn95 O98 1.933 . S
Zn95 O101 1.941 1_556 S
Zn95 O102 1.965 . S
Zn96 O94 1.950 . S
Zn96 O103 1.938 . S
Zn96 O104 1.906 . S
Zn96 O114 1.953 . S
Zn97 O94 1.945 . S
Zn97 O99 1.932 . S
Zn97 O106 1.977 . S
Zn97 O107 1.910 . S
O98 Zn95 1.933 . S
O98 C109 1.226 . S
O99 Zn97 1.932 . S
O99 C109 1.307 . S
O100 Zn93 1.919 . S
O100 C111 1.253 . S
O101 Zn95 1.941 1_554 S
O101 C111 1.283 . S
O102 Zn95 1.965 . S
O102 C110 1.303 . S
O103 Zn96 1.938 . S
O103 C110 1.247 . S
O104 Zn96 1.906 . S
O104 C112 1.304 . S
O105 Zn93 1.924 . S
O105 C113 1.311 . S
O106 Zn97 1.977 . S
O106 C112 1.272 . S
O107 Zn97 1.910 . S
O107 C113 1.231 1_556 S
C108 O92 1.225 . S
C108 O114 1.298 1_554 S
C109 O98 1.226 . S
C109 O99 1.307 . S
C110 O102 1.303 . S
C110 O103 1.247 . S
C111 O100 1.253 . S
C111 O101 1.283 . S
C112 O104 1.304 . S
C112 O106 1.272 . S
C113 O105 1.311 . S
C113 O107 1.231 1_554 S
O114 Zn96 1.953 . S
O114 C108 1.298 1_556 S
O115 Zn116 1.953 . S
O115 C131 1.225 . S
Zn116 O115 1.953 . S
Zn116 O117 1.949 . S
Zn116 O123 1.919 . S
Zn116 O128 1.924 . S
O117 Zn116 1.949 . S
O117 Zn118 1.923 . S
O117 Zn119 1.950 . S
O117 Zn120 1.945 . S
Zn118 O117 1.923 . S
Zn118 O121 1.933 . S
Zn118 O124 1.941 . S
Zn118 O125 1.965 . S
Zn119 O117 1.950 . S
Zn119 O126 1.938 . S
Zn119 O127 1.906 . S
Zn119 O137 1.953 . S
Zn120 O117 1.945 . S
Zn120 O122 1.932 . S
Zn120 O129 1.977 . S
Zn120 O130 1.910 . S
O121 Zn118 1.933 . S
O121 C132 1.226 . S
O122 Zn120 1.932 . S
O122 C132 1.307 . S
O123 Zn116 1.919 . S
O123 C134 1.253 . S
O124 Zn118 1.941 . S
O124 C134 1.283 . S
O125 Zn118 1.965 . S
O125 C133 1.303 . S
O126 Zn119 1.938 . S
O126 C133 1.247 . S
O127 Zn119 1.906 . S
O127 C135 1.304 . S
O128 Zn116 1.924 . S
O128 C136 1.311 . S
O129 Zn120 1.977 . S
O129 C135 1.272 . S
O130 Zn120 1.910 . S
O130 C136 1.231 . S
C131 O115 1.225 . S
C131 O137 1.298 . S
C132 O121 1.226 . S
C132 O122 1.307 . S
C133 O125 1.303 . S
C133 O126 1.247 . S
C134 O123 1.253 . S
C134 O124 1.283 . S
C135 O127 1.304 . S
C135 O129 1.272 . S
C136 O128 1.311 . S
C136 O130 1.231 . S
O137 Zn119 1.953 . S
O137 C131 1.298 . S
O138 Zn139 1.953 . S
O138 C154 1.225 . S
Zn139 O138 1.953 . S
Zn139 O140 1.949 . S
Zn139 O146 1.919 . S
Zn139 O151 1.924 . S
O140 Zn139 1.949 . S
O140 Zn141 1.923 . S
O140 Zn142 1.950 . S
O140 Zn143 1.945 . S
Zn141 O140 1.923 . S
Zn141 O144 1.933 . S
Zn141 O147 1.941 . S
Zn141 O148 1.965 . S
Zn142 O140 1.950 . S
Zn142 O149 1.938 . S
Zn142 O150 1.906 . S
Zn142 O160 1.953 . S
Zn143 O140 1.945 . S
Zn143 O145 1.932 . S
Zn143 O152 1.977 . S
Zn143 O153 1.910 . S
O144 Zn141 1.933 . S
O144 C155 1.226 . S
O145 Zn143 1.932 . S
O145 C155 1.307 . S
O146 Zn139 1.919 . S
O146 C157 1.253 . S
O147 Zn141 1.941 . S
O147 C157 1.283 . S
O148 Zn141 1.965 . S
O148 C156 1.303 . S
O149 Zn142 1.938 . S
O149 C156 1.247 . S
O150 Zn142 1.906 . S
O150 C158 1.304 . S
O151 Zn139 1.924 . S
O151 C159 1.311 . S
O152 Zn143 1.977 . S
O152 C158 1.272 . S
O153 Zn143 1.910 . S
O153 C159 1.231 . S
C154 O138 1.225 . S
C154 O160 1.298 . S
C155 O144 1.226 . S
C155 O145 1.307 . S
C156 O148 1.303 . S
C156 O149 1.247 . S
C157 O146 1.253 . S
C157 O147 1.283 . S
C158 O150 1.304 . S
C158 O152 1.272 . S
C159 O151 1.311 . S
C159 O153 1.231 . S
O160 Zn142 1.953 . S
O160 C154 1.298 . S
O161 Zn162 1.953 . S
O161 C177 1.225 1_455 S
Zn162 O161 1.953 . S
Zn162 O163 1.949 . S
Zn162 O169 1.919 . S
Zn162 O174 1.924 . S
O163 Zn162 1.949 . S
O163 Zn164 1.923 . S
O163 Zn165 1.950 . S
O163 Zn166 1.945 . S
Zn164 O163 1.923 . S
Zn164 O167 1.933 . S
Zn164 O170 1.941 . S
Zn164 O171 1.965 . S
Zn165 O163 1.950 . S
Zn165 O172 1.938 . S
Zn165 O173 1.906 . S
Zn165 O183 1.953 1_455 S
Zn166 O163 1.945 . S
Zn166 O168 1.932 . S
Zn166 O175 1.977 . S
Zn166 O176 1.910 . S
O167 Zn164 1.933 . S
O167 C178 1.226 . S
O168 Zn166 1.932 . S
O168 C178 1.307 . S
O169 Zn162 1.919 . S
O169 C180 1.253 . S
O170 Zn164 1.941 . S
O170 C180 1.283 . S
O171 Zn164 1.965 . S
O171 C179 1.303 . S
O172 Zn165 1.938 . S
O172 C179 1.247 . S
O173 Zn165 1.906 . S
O173 C181 1.304 . S
O174 Zn162 1.924 . S
O174 C182 1.311 . S
O175 Zn166 1.977 . S
O175 C181 1.272 . S
O176 Zn166 1.910 . S
O176 C182 1.231 . S
C177 O161 1.225 1_655 S
C177 O183 1.298 . S
C178 O167 1.226 . S
C178 O168 1.307 . S
C179 O171 1.303 . S
C179 O172 1.247 . S
C180 O169 1.253 . S
C180 O170 1.283 . S
C181 O173 1.304 . S
C181 O175 1.272 . S
C182 O174 1.311 . S
C182 O176 1.231 . S
O183 Zn165 1.953 1_655 S
O183 C177 1.298 . S
O184 Zn185 1.953 . S
O184 C200 1.225 . S
Zn185 O184 1.953 . S
Zn185 O186 1.949 . S
Zn185 O192 1.919 . S
Zn185 O197 1.924 . S
O186 Zn185 1.949 . S
O186 Zn187 1.923 . S
O186 Zn188 1.950 . S
O186 Zn189 1.945 . S
Zn187 O186 1.923 . S
Zn187 O190 1.933 . S
Zn187 O193 1.941 . S
Zn187 O194 1.965 . S
Zn188 O186 1.950 . S
Zn188 O195 1.938 . S
Zn188 O196 1.906 . S
Zn188 O206 1.953 . S
Zn189 O186 1.945 . S
Zn189 O191 1.932 . S
Zn189 O198 1.977 . S
Zn189 O199 1.910 . S
O190 Zn187 1.933 . S
O190 C201 1.226 . S
O191 Zn189 1.932 . S
O191 C201 1.307 . S
O192 Zn185 1.919 . S
O192 C203 1.253 . S
O193 Zn187 1.941 . S
O193 C203 1.283 . S
O194 Zn187 1.965 . S
O194 C202 1.303 . S
O195 Zn188 1.938 . S
O195 C202 1.247 . S
O196 Zn188 1.906 . S
O196 C204 1.304 . S
O197 Zn185 1.924 . S
O197 C205 1.311 . S
O198 Zn189 1.977 . S
O198 C204 1.272 . S
O199 Zn189 1.910 . S
O199 C205 1.231 . S
C200 O184 1.225 . S
C200 O206 1.298 . S
C201 O190 1.226 . S
C201 O191 1.307 . S
C202 O194 1.303 . S
C202 O195 1.247 . S
C203 O192 1.253 . S
C203 O193 1.283 . S
C204 O196 1.304 . S
C204 O198 1.272 . S
C205 O197 1.311 . S
C205 O199 1.231 . S
O206 Zn188 1.953 . S
O206 C200 1.298 . S
O207 Zn208 1.953 . S
O207 C223 1.225 1_455 S
Zn208 O207 1.953 . S
Zn208 O209 1.949 . S
Zn208 O215 1.919 . S
Zn208 O220 1.924 . S
O209 Zn208 1.949 . S
O209 Zn210 1.923 . S
O209 Zn211 1.950 . S
O209 Zn212 1.945 . S
Zn210 O209 1.923 . S
Zn210 O213 1.933 . S
Zn210 O216 1.941 . S
Zn210 O217 1.965 . S
Zn211 O209 1.950 . S
Zn211 O218 1.938 . S
Zn211 O219 1.906 . S
Zn211 O229 1.953 1_455 S
Zn212 O209 1.945 . S
Zn212 O214 1.932 . S
Zn212 O221 1.977 . S
Zn212 O222 1.910 . S
O213 Zn210 1.933 . S
O213 C224 1.226 . S
O214 Zn212 1.932 . S
O214 C224 1.307 . S
O215 Zn208 1.919 . S
O215 C226 1.253 . S
O216 Zn210 1.941 . S
O216 C226 1.283 . S
O217 Zn210 1.965 . S
O217 C225 1.303 . S
O218 Zn211 1.938 . S
O218 C225 1.247 . S
O219 Zn211 1.906 . S
O219 C227 1.304 . S
O220 Zn208 1.924 . S
O220 C228 1.311 . S
O221 Zn212 1.977 . S
O221 C227 1.272 . S
O222 Zn212 1.910 . S
O222 C228 1.231 . S
C223 O207 1.225 1_655 S
C223 O229 1.298 . S
C224 O213 1.226 . S
C224 O214 1.307 . S
C225 O217 1.303 . S
C225 O218 1.247 . S
C226 O215 1.253 . S
C226 O216 1.283 . S
C227 O219 1.304 . S
C227 O221 1.272 . S
C228 O220 1.311 . S
C228 O222 1.231 . S
O229 Zn211 1.953 1_655 S
O229 C223 1.298 . S
O230 Zn231 1.953 . S
O230 C246 1.225 . S
Zn231 O230 1.953 . S
Zn231 O232 1.949 1_556 S
Zn231 O238 1.919 . S
Zn231 O243 1.924 . S
O232 Zn231 1.949 1_554 S
O232 Zn233 1.923 . S
O232 Zn234 1.950 . S
O232 Zn235 1.945 . S
Zn233 O232 1.923 . S
Zn233 O236 1.933 . S
Zn233 O239 1.941 1_554 S
Zn233 O240 1.965 . S
Zn234 O232 1.950 . S
Zn234 O241 1.938 . S
Zn234 O242 1.906 . S
Zn234 O252 1.953 . S
Zn235 O232 1.945 . S
Zn235 O237 1.932 . S
Zn235 O244 1.977 . S
Zn235 O245 1.910 . S
O236 Zn233 1.933 . S
O236 C247 1.226 . S
O237 Zn235 1.932 . S
O237 C247 1.307 . S
O238 Zn231 1.919 . S
O238 C249 1.253 . S
O239 Zn233 1.941 1_556 S
O239 C249 1.283 . S
O240 Zn233 1.965 . S
O240 C248 1.303 . S
O241 Zn234 1.938 . S
O241 C248 1.247 . S
O242 Zn234 1.906 . S
O242 C250 1.304 . S
O243 Zn231 1.924 . S
O243 C251 1.311 . S
O244 Zn235 1.977 . S
O244 C250 1.272 . S
O245 Zn235 1.910 . S
O245 C251 1.231 1_554 S
C246 O230 1.225 . S
C246 O252 1.298 1_556 S
C247 O236 1.226 . S
C247 O237 1.307 . S
C248 O240 1.303 . S
C248 O241 1.247 . S
C249 O238 1.253 . S
C249 O239 1.283 . S
C250 O242 1.304 . S
C250 O244 1.272 . S
C251 O243 1.311 . S
C251 O245 1.231 1_556 S
O252 Zn234 1.953 . S
O252 C246 1.298 1_554 S
O253 Zn254 1.953 . S
O253 C269 1.225 . S
Zn254 O253 1.953 . S
Zn254 O255 1.949 . S
Zn254 O261 1.919 . S
Zn254 O266 1.924 . S
O255 Zn254 1.949 . S
O255 Zn256 1.923 . S
O255 Zn257 1.950 . S
O255 Zn258 1.945 . S
Zn256 O255 1.923 . S
Zn256 O259 1.933 . S
Zn256 O262 1.941 . S
Zn256 O263 1.965 . S
Zn257 O255 1.950 . S
Zn257 O264 1.938 . S
Zn257 O265 1.906 . S
Zn257 O275 1.953 . S
Zn258 O255 1.945 . S
Zn258 O260 1.932 . S
Zn258 O267 1.977 . S
Zn258 O268 1.910 . S
O259 Zn256 1.933 . S
O259 C270 1.226 . S
O260 Zn258 1.932 . S
O260 C270 1.307 . S
O261 Zn254 1.919 . S
O261 C272 1.253 . S
O262 Zn256 1.941 . S
O262 C272 1.283 . S
O263 Zn256 1.965 . S
O263 C271 1.303 . S
O264 Zn257 1.938 . S
O264 C271 1.247 . S
O265 Zn257 1.906 . S
O265 C273 1.304 . S
O266 Zn254 1.924 . S
O266 C274 1.311 . S
O267 Zn258 1.977 . S
O267 C273 1.272 . S
O268 Zn258 1.910 . S
O268 C274 1.231 . S
C269 O253 1.225 . S
C269 O275 1.298 . S
C270 O259 1.226 . S
C270 O260 1.307 . S
C271 O263 1.303 . S
C271 O264 1.247 . S
C272 O261 1.253 . S
C272 O262 1.283 . S
C273 O265 1.304 . S
C273 O267 1.272 . S
C274 O266 1.311 . S
C274 O268 1.231 . S
O275 Zn257 1.953 . S
O275 C269 1.298 . S
O276 Zn277 1.953 . S
O276 C292 1.225 . S
Zn277 O276 1.953 . S
Zn277 O278 1.949 . S
Zn277 O284 1.919 . S
Zn277 O289 1.924 . S
O278 Zn277 1.949 . S
O278 Zn279 1.923 . S
O278 Zn280 1.950 . S
O278 Zn281 1.945 . S
Zn279 O278 1.923 . S
Zn279 O282 1.933 . S
Zn279 O285 1.941 . S
Zn279 O286 1.965 . S
Zn280 O278 1.950 . S
Zn280 O287 1.938 . S
Zn280 O288 1.906 . S
Zn280 O298 1.953 . S
Zn281 O278 1.945 . S
Zn281 O283 1.932 . S
Zn281 O290 1.977 . S
Zn281 O291 1.910 . S
O282 Zn279 1.933 . S
O282 C293 1.226 . S
O283 Zn281 1.932 . S
O283 C293 1.307 . S
O284 Zn277 1.919 . S
O284 C295 1.253 . S
O285 Zn279 1.941 . S
O285 C295 1.283 . S
O286 Zn279 1.965 . S
O286 C294 1.303 . S
O287 Zn280 1.938 . S
O287 C294 1.247 . S
O288 Zn280 1.906 . S
O288 C296 1.304 . S
O289 Zn277 1.924 . S
O289 C297 1.311 . S
O290 Zn281 1.977 . S
O290 C296 1.272 . S
O291 Zn281 1.910 . S
O291 C297 1.231 . S
C292 O276 1.225 . S
C292 O298 1.298 . S
C293 O282 1.226 . S
C293 O283 1.307 . S
C294 O286 1.303 . S
C294 O287 1.247 . S
C295 O284 1.253 . S
C295 O285 1.283 . S
C296 O288 1.304 . S
C296 O290 1.272 . S
C297 O289 1.311 . S
C297 O291 1.231 . S
O298 Zn280 1.953 . S
O298 C292 1.298 . S
O299 Zn300 1.953 . S
O299 C315 1.225 1_655 S
Zn300 O299 1.953 . S
Zn300 O301 1.949 . S
Zn300 O307 1.919 . S
Zn300 O312 1.924 . S
O301 Zn300 1.949 . S
O301 Zn302 1.923 . S
O301 Zn303 1.950 . S
O301 Zn304 1.945 . S
Zn302 O301 1.923 . S
Zn302 O305 1.933 . S
Zn302 O308 1.941 . S
Zn302 O309 1.965 . S
Zn303 O301 1.950 . S
Zn303 O310 1.938 . S
Zn303 O311 1.906 . S
Zn303 O321 1.953 1_655 S
Zn304 O301 1.945 . S
Zn304 O306 1.932 . S
Zn304 O313 1.977 . S
Zn304 O314 1.910 . S
O305 Zn302 1.933 . S
O305 C316 1.226 . S
O306 Zn304 1.932 . S
O306 C316 1.307 . S
O307 Zn300 1.919 . S
O307 C318 1.253 . S
O308 Zn302 1.941 . S
O308 C318 1.283 . S
O309 Zn302 1.965 . S
O309 C317 1.303 . S
O310 Zn303 1.938 . S
O310 C317 1.247 . S
O311 Zn303 1.906 . S
O311 C319 1.304 . S
O312 Zn300 1.924 . S
O312 C320 1.311 . S
O313 Zn304 1.977 . S
O313 C319 1.272 . S
O314 Zn304 1.910 . S
O314 C320 1.231 . S
C315 O299 1.225 1_455 S
C315 O321 1.298 . S
C316 O305 1.226 . S
C316 O306 1.307 . S
C317 O309 1.303 . S
C317 O310 1.247 . S
C318 O307 1.253 . S
C318 O308 1.283 . S
C319 O311 1.304 . S
C319 O313 1.272 . S
C320 O312 1.311 . S
C320 O314 1.231 . S
O321 Zn303 1.953 1_455 S
O321 C315 1.298 . S
O322 Zn323 1.953 . S
O322 C338 1.225 . S
Zn323 O322 1.953 . S
Zn323 O324 1.949 1_554 S
Zn323 O330 1.919 . S
Zn323 O335 1.924 . S
O324 Zn323 1.949 1_556 S
O324 Zn325 1.923 . S
O324 Zn326 1.950 . S
O324 Zn327 1.945 . S
Zn325 O324 1.923 . S
Zn325 O328 1.933 . S
Zn325 O331 1.941 1_556 S
Zn325 O332 1.965 . S
Zn326 O324 1.950 . S
Zn326 O333 1.938 . S
Zn326 O334 1.906 . S
Zn326 O344 1.953 . S
Zn327 O324 1.945 . S
Zn327 O329 1.932 . S
Zn327 O336 1.977 . S
Zn327 O337 1.910 . S
O328 Zn325 1.933 . S
O328 C339 1.226 . S
O329 Zn327 1.932 . S
O329 C339 1.307 . S
O330 Zn323 1.919 . S
O330 C341 1.253 . S
O331 Zn325 1.941 1_554 S
O331 C341 1.283 . S
O332 Zn325 1.965 . S
O332 C340 1.303 . S
O333 Zn326 1.938 . S
O333 C340 1.247 . S
O334 Zn326 1.906 . S
O334 C342 1.304 . S
O335 Zn323 1.924 . S
O335 C343 1.311 . S
O336 Zn327 1.977 . S
O336 C342 1.272 . S
O337 Zn327 1.910 . S
O337 C343 1.231 1_556 S
C338 O322 1.225 . S
C338 O344 1.298 1_554 S
C339 O328 1.226 . S
C339 O329 1.307 . S
C340 O332 1.303 . S
C340 O333 1.247 . S
C341 O330 1.253 . S
C341 O331 1.283 . S
C342 O334 1.304 . S
C342 O336 1.272 . S
C343 O335 1.311 . S
C343 O337 1.231 1_554 S
O344 Zn326 1.953 . S
O344 C338 1.298 1_556 S
O345 Zn346 1.953 . S
O345 C361 1.225 . S
Zn346 O345 1.953 . S
Zn346 O347 1.949 . S
Zn346 O353 1.919 . S
Zn346 O358 1.924 . S
O347 Zn346 1.949 . S
O347 Zn348 1.923 . S
O347 Zn349 1.950 . S
O347 Zn350 1.945 . S
Zn348 O347 1.923 . S
Zn348 O351 1.933 . S
Zn348 O354 1.941 . S
Zn348 O355 1.965 . S
Zn349 O347 1.950 . S
Zn349 O356 1.938 . S
Zn349 O357 1.906 . S
Zn349 O367 1.953 . S
Zn350 O347 1.945 . S
Zn350 O352 1.932 . S
Zn350 O359 1.977 . S
Zn350 O360 1.910 . S
O351 Zn348 1.933 . S
O351 C362 1.226 . S
O352 Zn350 1.932 . S
O352 C362 1.307 . S
O353 Zn346 1.919 . S
O353 C364 1.253 . S
O354 Zn348 1.941 . S
O354 C364 1.283 . S
O355 Zn348 1.965 . S
O355 C363 1.303 . S
O356 Zn349 1.938 . S
O356 C363 1.247 . S
O357 Zn349 1.906 . S
O357 C365 1.304 . S
O358 Zn346 1.924 . S
O358 C366 1.311 . S
O359 Zn350 1.977 . S
O359 C365 1.272 . S
O360 Zn350 1.910 . S
O360 C366 1.231 . S
C361 O345 1.225 . S
C361 O367 1.298 . S
C362 O351 1.226 . S
C362 O352 1.307 . S
C363 O355 1.303 . S
C363 O356 1.247 . S
C364 O353 1.253 . S
C364 O354 1.283 . S
C365 O357 1.304 . S
C365 O359 1.272 . S
C366 O358 1.311 . S
C366 O360 1.231 . S
O367 Zn349 1.953 . S
O367 C361 1.298 . S
C368 C369 1.387 . S
C368 H372 0.950 1_554 S
C368 C377 1.390 . S
C369 C368 1.387 . S
C369 C371 1.387 . S
H370 C377 0.950 1_556 S
C371 C369 1.387 . S
C371 C373 1.390 . S
C371 H375 0.950 . S
H372 C368 0.950 1_556 S
C373 C371 1.390 . S
C373 C374 1.387 . S
C373 H376 0.950 . S
C374 C373 1.387 . S
C374 C377 1.387 . S
H375 C371 0.950 . S
H376 C373 0.950 . S
C377 C368 1.390 . S
C377 H370 0.950 1_554 S
C377 C374 1.387 . S
C378 C379 1.387 . S
C378 H382 0.950 . S
C378 C387 1.390 . S
C379 C378 1.387 . S
C379 C381 1.387 . S
H380 C387 0.950 . S
C381 C379 1.387 . S
C381 C383 1.390 . S
C381 H385 0.950 . S
H382 C378 0.950 . S
C383 C381 1.390 . S
C383 C384 1.387 . S
C383 H386 0.950 . S
C384 C383 1.387 . S
C384 C387 1.387 . S
H385 C381 0.950 . S
H386 C383 0.950 . S
C387 C378 1.390 . S
C387 H380 0.950 . S
C387 C384 1.387 . S
C388 C389 1.387 . S
C388 H392 0.950 . S
C388 C397 1.390 1_455 S
C389 C388 1.387 . S
C389 C391 1.387 . S
H390 C397 0.950 . S
C391 C389 1.387 . S
C391 C393 1.390 1_455 S
C391 H395 0.950 . S
H392 C388 0.950 . S
C393 C391 1.390 1_655 S
C393 C394 1.387 . S
C393 H396 0.950 . S
C394 C393 1.387 . S
C394 C397 1.387 . S
H395 C391 0.950 . S
H396 C393 0.950 . S
C397 C388 1.390 1_655 S
C397 H390 0.950 . S
C397 C394 1.387 . S
C398 C399 1.387 . S
C398 H402 0.950 . S
C398 C407 1.390 1_655 S
C399 C398 1.387 . S
C399 C401 1.387 . S
H400 C407 0.950 . S
C401 C399 1.387 . S
C401 C403 1.390 1_655 S
C401 H405 0.950 . S
H402 C398 0.950 . S
C403 C401 1.390 1_455 S
C403 C404 1.387 . S
C403 H406 0.950 . S
C404 C403 1.387 . S
C404 C407 1.387 . S
H405 C401 0.950 . S
H406 C403 0.950 . S
C407 C398 1.390 1_455 S
C407 H400 0.950 . S
C407 C404 1.387 . S
C408 C409 1.387 . S
C408 H412 0.950 . S
C408 C417 1.390 . S
C409 C408 1.387 . S
C409 C411 1.387 . S
H410 C417 0.950 . S
C411 C409 1.387 . S
C411 C413 1.390 . S
C411 H415 0.950 1_556 S
H412 C408 0.950 . S
C413 C411 1.390 . S
C413 C414 1.387 . S
C413 H416 0.950 1_556 S
C414 C413 1.387 . S
C414 C417 1.387 . S
H415 C411 0.950 1_554 S
H416 C413 0.950 1_554 S
C417 C408 1.390 . S
C417 H410 0.950 . S
C417 C414 1.387 . S
C418 C419 1.387 . S
C418 H422 0.950 . S
C418 C427 1.390 . S
C419 C418 1.387 . S
C419 C421 1.387 . S
H420 C427 0.950 . S
C421 C419 1.387 . S
C421 C423 1.390 . S
C421 H425 0.950 . S
H422 C418 0.950 . S
C423 C421 1.390 . S
C423 C424 1.387 . S
C423 H426 0.950 . S
C424 C423 1.387 . S
C424 C427 1.387 . S
H425 C421 0.950 . S
H426 C423 0.950 . S
C427 C418 1.390 . S
C427 H420 0.950 . S
C427 C424 1.387 . S
C428 C429 1.387 . S
C428 H432 0.950 . S
C428 C437 1.390 1_655 S
C429 C428 1.387 . S
C429 C431 1.387 . S
H430 C437 0.950 . S
C431 C429 1.387 . S
C431 C433 1.390 1_655 S
C431 H435 0.950 . S
H432 C428 0.950 . S
C433 C431 1.390 1_455 S
C433 C434 1.387 . S
C433 H436 0.950 . S
C434 C433 1.387 . S
C434 C437 1.387 . S
H435 C431 0.950 . S
H436 C433 0.950 . S
C437 C428 1.390 1_455 S
C437 H430 0.950 . S
C437 C434 1.387 . S
C438 C439 1.387 . S
C438 H442 0.950 . S
C438 C447 1.390 1_455 S
C439 C438 1.387 . S
C439 C441 1.387 . S
H440 C447 0.950 . S
C441 C439 1.387 . S
C441 C443 1.390 1_455 S
C441 H445 0.950 . S
H442 C438 0.950 . S
C443 C441 1.390 1_655 S
C443 C444 1.387 . S
C443 H446 0.950 . S
C444 C443 1.387 . S
C444 C447 1.387 . S
H445 C441 0.950 . S
H446 C443 0.950 . S
C447 C438 1.390 1_655 S
C447 H440 0.950 . S
C447 C444 1.387 . S
C448 C449 1.387 . S
C448 H452 0.950 . S
C448 C457 1.390 . S
C449 C448 1.387 . S
C449 C451 1.387 . S
H450 C457 0.950 . S
C451 C449 1.387 . S
C451 C453 1.390 . S
C451 H455 0.950 . S
H452 C448 0.950 . S
C453 C451 1.390 . S
C453 C454 1.387 . S
C453 H456 0.950 . S
C454 C453 1.387 . S
C454 C457 1.387 . S
H455 C451 0.950 . S
H456 C453 0.950 . S
C457 C448 1.390 . S
C457 H450 0.950 . S
C457 C454 1.387 . S
C458 C459 1.387 . S
C458 H462 0.950 . S
C458 C467 1.390 . S
C459 C458 1.387 . S
C459 C461 1.387 . S
H460 C467 0.950 . S
C461 C459 1.387 . S
C461 C463 1.390 . S
C461 H465 0.950 . S
H462 C458 0.950 . S
C463 C461 1.390 . S
C463 C464 1.387 . S
C463 H466 0.950 . S
C464 C463 1.387 . S
C464 C467 1.387 . S
H465 C461 0.950 . S
H466 C463 0.950 . S
C467 C458 1.390 . S
C467 H460 0.950 . S
C467 C464 1.387 . S
C468 C469 1.387 . S
C468 H472 0.950 . S
C468 C477 1.390 . S
C469 C468 1.387 . S
C469 C471 1.387 . S
H470 C477 0.950 . S
C471 C469 1.387 . S
C471 C473 1.390 . S
C471 H475 0.950 . S
H472 C468 0.950 . S
C473 C471 1.390 . S
C473 C474 1.387 . S
C473 H476 0.950 . S
C474 C473 1.387 . S
C474 C477 1.387 . S
H475 C471 0.950 . S
H476 C473 0.950 . S
C477 C468 1.390 . S
C477 H470 0.950 . S
C477 C474 1.387 . S
C478 C479 1.387 . S
C478 H482 0.950 . S
C478 C487 1.390 . S
C479 C478 1.387 . S
C479 C481 1.387 . S
H480 C487 0.950 . S
C481 C479 1.387 . S
C481 C483 1.390 . S
C481 H485 0.950 . S
H482 C478 0.950 . S
C483 C481 1.390 . S
C483 C484 1.387 . S
C483 H486 0.950 . S
C484 C483 1.387 . S
C484 C487 1.387 . S
H485 C481 0.950 . S
H486 C483 0.950 . S
C487 C478 1.390 . S
C487 H480 0.950 . S
C487 C484 1.387 . S
C488 C489 1.387 . S
C488 H492 0.950 . S
C488 C497 1.390 . S
C489 C488 1.387 . S
C489 C491 1.387 . S
H490 C497 0.950 . S
C491 C489 1.387 . S
C491 C493 1.390 . S
C491 H495 0.950 . S
H492 C488 0.950 . S
C493 C491 1.390 . S
C493 C494 1.387 . S
C493 H496 0.950 . S
C494 C493 1.387 . S
C494 C497 1.387 . S
H495 C491 0.950 . S
H496 C493 0.950 . S
C497 C488 1.390 . S
C497 H490 0.950 . S
C497 C494 1.387 . S
C498 C499 1.387 . S
C498 H502 0.950 . S
C498 C507 1.390 . S
C499 C498 1.387 . S
C499 C501 1.387 . S
H500 C507 0.950 . S
C501 C499 1.387 . S
C501 C503 1.390 . S
C501 H505 0.950 . S
H502 C498 0.950 . S
C503 C501 1.390 . S
C503 C504 1.387 . S
C503 H506 0.950 . S
C504 C503 1.387 . S
C504 C507 1.387 . S
H505 C501 0.950 . S
H506 C503 0.950 . S
C507 C498 1.390 . S
C507 H500 0.950 . S
C507 C504 1.387 . S
C508 C509 1.387 . S
C508 H512 0.950 . S
C508 C517 1.390 . S
C509 C508 1.387 . S
C509 C511 1.387 . S
H510 C517 0.950 . S
C511 C509 1.387 . S
C511 C513 1.390 . S
C511 H515 0.950 . S
H512 C508 0.950 . S
C513 C511 1.390 . S
C513 C514 1.387 . S
C513 H516 0.950 . S
C514 C513 1.387 . S
C514 C517 1.387 . S
H515 C511 0.950 . S
H516 C513 0.950 . S
C517 C508 1.390 . S
C517 H510 0.950 . S
C517 C514 1.387 . S
C518 C519 1.387 . S
C518 H522 0.950 . S
C518 C527 1.390 . S
C519 C518 1.387 . S
C519 C521 1.387 . S
H520 C527 0.950 . S
C521 C519 1.387 . S
C521 C523 1.390 . S
C521 H525 0.950 . S
H522 C518 0.950 . S
C523 C521 1.390 . S
C523 C524 1.387 . S
C523 H526 0.950 . S
C524 C523 1.387 . S
C524 C527 1.387 . S
H525 C521 0.950 . S
H526 C523 0.950 . S
C527 C518 1.390 . S
C527 H520 0.950 . S
C527 C524 1.387 . S
C528 C529 1.387 . S
C528 H532 0.950 . S
C528 C537 1.390 . S
C529 C528 1.387 . S
C529 C531 1.387 . S
H530 C537 0.950 . S
C531 C529 1.387 . S
C531 C533 1.390 . S
C531 H535 0.950 . S
H532 C528 0.950 . S
C533 C531 1.390 . S
C533 C534 1.387 . S
C533 H536 0.950 . S
C534 C533 1.387 . S
C534 C537 1.387 . S
H535 C531 0.950 . S
H536 C533 0.950 . S
C537 C528 1.390 . S
C537 H530 0.950 . S
C537 C534 1.387 . S
C538 C539 1.387 . S
C538 H542 0.950 1_565 S
C538 C547 1.390 . S
C539 C538 1.387 . S
C539 C541 1.387 . S
H540 C547 0.950 . S
C541 C539 1.387 . S
C541 C543 1.390 . S
C541 H545 0.950 . S
H542 C538 0.950 1_545 S
C543 C541 1.390 . S
C543 C544 1.387 . S
C543 H546 0.950 . S
C544 C543 1.387 . S
C544 C547 1.387 . S
H545 C541 0.950 . S
H546 C543 0.950 . S
C547 C538 1.390 . S
C547 H540 0.950 . S
C547 C544 1.387 . S
C548 C549 1.387 . S
C548 H552 0.950 . S
C548 C557 1.390 . S
C549 C548 1.387 . S
C549 C551 1.387 . S
H550 C557 0.950 . S
C551 C549 1.387 . S
C551 C553 1.390 . S
C551 H555 0.956 . S
H552 C548 0.950 . S
C553 C551 1.390 . S
C553 C554 1.387 . S
C553 H556 0.950 . S
C554 C553 1.387 . S
C554 C557 1.387 . S
H555 C551 0.956 . S
H556 C553 0.950 . S
C557 C548 1.390 . S
C557 H550 0.950 . S
C557 C554 1.387 . S
C558 C559 1.387 . S
C558 H562 0.950 1_545 S
C558 C567 1.390 . S
C559 C558 1.387 . S
C559 C561 1.387 . S
H560 C567 0.950 . S
C561 C559 1.387 . S
C561 C563 1.390 . S
C561 H565 0.950 . S
H562 C558 0.950 1_565 S
C563 C561 1.390 . S
C563 C564 1.387 . S
C563 H566 0.950 . S
C564 C563 1.387 . S
C564 C567 1.387 . S
H565 C561 0.950 . S
H566 C563 0.950 . S
C567 C558 1.390 . S
C567 H560 0.950 . S
C567 C564 1.387 . S
C568 C569 1.387 . S
C568 H572 0.950 . S
C568 C577 1.390 . S
C569 C568 1.387 . S
C569 C571 1.387 . S
H570 C577 0.950 . S
C571 C569 1.387 . S
C571 C573 1.390 . S
C571 H575 0.950 . S
H572 C568 0.950 . S
C573 C571 1.390 . S
C573 C574 1.387 . S
C573 H576 0.950 . S
C574 C573 1.387 . S
C574 C577 1.387 . S
H575 C571 0.950 . S
H576 C573 0.950 . S
C577 C568 1.390 . S
C577 H570 0.950 . S
C577 C574 1.387 . S
C578 C579 1.387 . S
C578 H582 0.950 . S
C578 C587 1.390 . S
C579 C578 1.387 . S
C579 C581 1.387 . S
H580 C587 0.950 1_565 S
C581 C579 1.387 . S
C581 C583 1.390 . S
C581 H585 0.950 . S
H582 C578 0.950 . S
C583 C581 1.390 . S
C583 C584 1.387 . S
C583 H586 0.950 . S
C584 C583 1.387 . S
C584 C587 1.387 . S
H585 C581 0.950 . S
H586 C583 0.950 . S
C587 C578 1.390 . S
C587 H580 0.950 1_545 S
C587 C584 1.387 . S
C588 C589 1.387 . S
C588 H592 0.950 . S
C588 C597 1.390 . S
C589 C588 1.387 . S
C589 C591 1.387 . S
H590 C597 0.950 1_556 S
C591 C589 1.387 . S
C591 C593 1.390 . S
C591 H595 0.950 . S
H592 C588 0.950 . S
C593 C591 1.390 . S
C593 C594 1.387 . S
C593 H596 0.950 . S
C594 C593 1.387 . S
C594 C597 1.387 . S
H595 C591 0.950 . S
H596 C593 0.950 . S
C597 C588 1.390 . S
C597 H590 0.950 1_554 S
C597 C594 1.387 . S
C598 C599 1.387 . S
C598 H602 0.950 . S
C598 C607 1.390 . S
C599 C598 1.387 . S
C599 C601 1.387 . S
H600 C607 0.950 . S
C601 C599 1.387 . S
C601 C603 1.390 . S
C601 H605 0.950 . S
H602 C598 0.950 . S
C603 C601 1.390 . S
C603 C604 1.387 . S
C603 H606 0.950 . S
C604 C603 1.387 . S
C604 C607 1.387 . S
H605 C601 0.950 . S
H606 C603 0.950 . S
C607 C598 1.390 . S
C607 H600 0.950 . S
C607 C604 1.387 . S
C608 C609 1.387 . S
C608 H612 0.950 . S
C608 C617 1.390 . S
C609 C608 1.387 . S
C609 C611 1.387 . S
H610 C617 0.950 . S
C611 C609 1.387 . S
C611 C613 1.390 . S
C611 H615 0.950 . S
H612 C608 0.950 . S
C613 C611 1.390 . S
C613 C614 1.387 . S
C613 H616 0.950 . S
C614 C613 1.387 . S
C614 C617 1.387 . S
H615 C611 0.950 . S
H616 C613 0.950 . S
C617 C608 1.390 . S
C617 H610 0.950 . S
C617 C614 1.387 . S
C618 C619 1.387 . S
C618 H622 0.950 . S
C618 C627 1.390 . S
C619 C618 1.387 . S
C619 C621 1.387 . S
H620 C627 0.950 . S
C621 C619 1.387 . S
C621 C623 1.390 . S
C621 H625 0.950 . S
H622 C618 0.950 . S
C623 C621 1.390 . S
C623 C624 1.387 . S
C623 H626 0.950 . S
C624 C623 1.387 . S
C624 C627 1.387 . S
H625 C621 0.950 . S
H626 C623 0.950 . S
C627 C618 1.390 . S
C627 H620 0.950 . S
C627 C624 1.387 . S
C628 C629 1.387 . S
C628 H632 0.950 . S
C628 C637 1.390 . S
C629 C628 1.387 . S
C629 C631 1.387 . S
H630 C637 0.950 . S
C631 C629 1.387 . S
C631 C633 1.390 . S
C631 H635 0.950 . S
H632 C628 0.950 . S
C633 C631 1.390 . S
C633 C634 1.387 . S
C633 H636 0.950 . S
C634 C633 1.387 . S
C634 C637 1.387 . S
H635 C631 0.950 . S
H636 C633 0.950 . S
C637 C628 1.390 . S
C637 H630 0.950 . S
C637 C634 1.387 . S
C638 C639 1.387 . S
C638 H642 0.950 . S
C638 C647 1.390 . S
C639 C638 1.387 . S
C639 C641 1.387 . S
H640 C647 0.950 . S
C641 C639 1.387 . S
C641 C643 1.390 . S
C641 H645 0.950 . S
H642 C638 0.950 . S
C643 C641 1.390 . S
C643 C644 1.387 . S
C643 H646 0.950 . S
C644 C643 1.387 . S
C644 C647 1.387 . S
H645 C641 0.950 . S
H646 C643 0.950 . S
C647 C638 1.390 . S
C647 H640 0.950 . S
C647 C644 1.387 . S
C648 C649 1.387 . S
C648 H652 0.950 . S
C648 C657 1.390 . S
C649 C648 1.387 . S
C649 C651 1.387 . S
H650 C657 0.950 . S
C651 C649 1.387 . S
C651 C653 1.390 . S
C651 H655 0.950 . S
H652 C648 0.950 . S
C653 C651 1.390 . S
C653 C654 1.387 . S
C653 H656 0.950 . S
C654 C653 1.387 . S
C654 C657 1.387 . S
H655 C651 0.950 . S
H656 C653 0.950 . S
C657 C648 1.390 . S
C657 H650 0.950 . S
C657 C654 1.387 . S
C658 C659 1.387 . S
C658 H662 0.950 . S
C658 C667 1.390 . S
C659 C658 1.387 . S
C659 C661 1.387 . S
H660 C667 0.950 . S
C661 C659 1.387 . S
C661 C663 1.390 . S
C661 H665 0.950 . S
H662 C658 0.950 . S
C663 C661 1.390 . S
C663 C664 1.387 . S
C663 H666 0.950 . S
C664 C663 1.387 . S
C664 C667 1.387 . S
H665 C661 0.950 . S
H666 C663 0.950 . S
C667 C658 1.390 . S
C667 H660 0.950 . S
C667 C664 1.387 . S
C668 C669 1.387 . S
C668 H672 0.950 . S
C668 C677 1.390 . S
C669 C668 1.387 . S
C669 C671 1.387 . S
H670 C677 0.950 . S
C671 C669 1.387 . S
C671 C673 1.390 . S
C671 H675 0.950 . S
H672 C668 0.950 . S
C673 C671 1.390 . S
C673 C674 1.387 . S
C673 H676 0.950 . S
C674 C673 1.387 . S
C674 C677 1.387 . S
H675 C671 0.950 . S
H676 C673 0.950 . S
C677 C668 1.390 . S
C677 H670 0.950 . S
C677 C674 1.387 . S
C678 C679 1.387 . S
C678 H682 0.950 . S
C678 C687 1.390 . S
C679 C678 1.387 . S
C679 C681 1.387 . S
H680 C687 0.950 . S
C681 C679 1.387 . S
C681 C683 1.390 . S
C681 H685 0.950 . S
H682 C678 0.950 . S
C683 C681 1.390 . S
C683 C684 1.387 . S
C683 H686 0.950 . S
C684 C683 1.387 . S
C684 C687 1.387 . S
H685 C681 0.950 . S
H686 C683 0.950 . S
C687 C678 1.390 . S
C687 H680 0.950 . S
C687 C684 1.387 . S
C688 C689 1.387 . S
C688 H692 0.950 . S
C688 C697 1.390 . S
C689 C688 1.387 . S
C689 C691 1.387 . S
H690 C697 0.950 . S
C691 C689 1.387 . S
C691 C693 1.390 . S
C691 H695 0.950 . S
H692 C688 0.950 . S
C693 C691 1.390 . S
C693 C694 1.387 . S
C693 H696 0.950 . S
C694 C693 1.387 . S
C694 C697 1.387 . S
H695 C691 0.950 . S
H696 C693 0.950 . S
C697 C688 1.390 . S
C697 H690 0.950 . S
C697 C694 1.387 . S
C698 C699 1.387 . S
C698 H702 0.950 . S
C698 C707 1.390 . S
C699 C698 1.387 . S
C699 C701 1.387 . S
H700 C707 0.950 . S
C701 C699 1.387 . S
C701 C703 1.390 . S
C701 H705 0.950 . S
H702 C698 0.950 . S
C703 C701 1.390 . S
C703 C704 1.387 . S
C703 H706 0.950 . S
C704 C703 1.387 . S
C704 C707 1.387 . S
H705 C701 0.950 . S
H706 C703 0.950 . S
C707 C698 1.390 . S
C707 H700 0.950 . S
C707 C704 1.387 . S
C708 C709 1.387 . S
C708 H712 0.950 . S
C708 C717 1.390 . S
C709 C708 1.387 . S
C709 C711 1.387 . S
H710 C717 0.950 . S
C711 C709 1.387 . S
C711 C713 1.390 . S
C711 H715 0.950 . S
H712 C708 0.950 . S
C713 C711 1.390 . S
C713 C714 1.387 . S
C713 H716 0.950 . S
C714 C713 1.387 . S
C714 C717 1.387 . S
H715 C711 0.950 . S
H716 C713 0.950 . S
C717 C708 1.390 . S
C717 H710 0.950 . S
C717 C714 1.387 . S
C718 C719 1.387 . S
C718 H722 0.950 . S
C718 C727 1.390 . S
C719 C718 1.387 . S
C719 C721 1.387 . S
H720 C727 0.950 . S
C721 C719 1.387 . S
C721 C723 1.390 . S
C721 H725 0.950 . S
H722 C718 0.950 . S
C723 C721 1.390 . S
C723 C724 1.387 . S
C723 H726 0.950 . S
C724 C723 1.387 . S
C724 C727 1.387 . S
H725 C721 0.950 . S
H726 C723 0.950 . S
C727 C718 1.390 . S
C727 H720 0.950 . S
C727 C724 1.387 . S
C728 C729 1.387 . S
C728 H732 0.950 . S
C728 C737 1.390 . S
C729 C728 1.387 . S
C729 C731 1.387 . S
H730 C737 0.950 . S
C731 C729 1.387 . S
C731 C733 1.390 . S
C731 H735 0.950 . S
H732 C728 0.950 . S
C733 C731 1.390 . S
C733 C734 1.387 . S
C733 H736 0.950 . S
C734 C733 1.387 . S
C734 C737 1.387 . S
H735 C731 0.950 . S
H736 C733 0.950 . S
C737 C728 1.390 . S
C737 H730 0.950 . S
C737 C734 1.387 . S
C738 C739 1.387 . S
C738 H742 0.950 . S
C738 C747 1.390 . S
C739 C738 1.387 . S
C739 C741 1.387 . S
H740 C747 0.950 . S
C741 C739 1.387 . S
C741 C743 1.390 . S
C741 H745 0.950 . S
H742 C738 0.950 . S
C743 C741 1.390 . S
C743 C744 1.387 . S
C743 H746 0.950 . S
C744 C743 1.387 . S
C744 C747 1.387 . S
H745 C741 0.950 . S
H746 C743 0.950 . S
C747 C738 1.390 . S
C747 H740 0.950 . S
C747 C744 1.387 . S
C748 C749 1.387 . S
C748 H752 0.950 . S
C748 C757 1.390 . S
C749 C748 1.387 . S
C749 C751 1.387 . S
H750 C757 0.950 . S
C751 C749 1.387 . S
C751 C753 1.390 . S
C751 H755 0.950 . S
H752 C748 0.950 . S
C753 C751 1.390 . S
C753 C754 1.387 . S
C753 H756 0.950 . S
C754 C753 1.387 . S
C754 C757 1.387 . S
H755 C751 0.950 . S
H756 C753 0.950 . S
C757 C748 1.390 . S
C757 H750 0.950 . S
C757 C754 1.387 . S
C758 C759 1.387 . S
C758 H762 0.950 . S
C758 C767 1.390 . S
C759 C758 1.387 . S
C759 C761 1.387 . S
H760 C767 0.950 . S
C761 C759 1.387 . S
C761 C763 1.390 . S
C761 H765 0.950 . S
H762 C758 0.950 . S
C763 C761 1.390 . S
C763 C764 1.387 . S
C763 H766 0.950 . S
C764 C763 1.387 . S
C764 C767 1.387 . S
H765 C761 0.950 . S
H766 C763 0.950 . S
C767 C758 1.390 . S
C767 H760 0.950 . S
C767 C764 1.387 . S
C768 C769 1.387 . S
C768 H772 0.950 . S
C768 C777 1.390 . S
C769 C768 1.387 . S
C769 C771 1.387 . S
H770 C777 0.950 . S
C771 C769 1.387 . S
C771 C773 1.390 . S
C771 H775 0.950 . S
H772 C768 0.950 . S
C773 C771 1.390 . S
C773 C774 1.387 . S
C773 H776 0.950 . S
C774 C773 1.387 . S
C774 C777 1.387 . S
H775 C771 0.950 . S
H776 C773 0.950 . S
C777 C768 1.390 . S
C777 H770 0.950 . S
C777 C774 1.387 . S
C778 C779 1.387 . S
C778 H782 0.950 . S
C778 C787 1.390 . S
C779 C778 1.387 . S
C779 C781 1.387 . S
H780 C787 0.950 . S
C781 C779 1.387 . S
C781 C783 1.390 . S
C781 H785 0.950 . S
H782 C778 0.950 . S
C783 C781 1.390 . S
C783 C784 1.387 . S
C783 H786 0.950 . S
C784 C783 1.387 . S
C784 C787 1.387 . S
H785 C781 0.950 . S
H786 C783 0.950 . S
C787 C778 1.390 . S
C787 H780 0.950 . S
C787 C784 1.387 . S
C788 C789 1.387 . S
C788 H792 0.950 . S
C788 C797 1.390 . S
C789 C788 1.387 . S
C789 C791 1.387 . S
H790 C797 0.950 . S
C791 C789 1.387 . S
C791 C793 1.390 . S
C791 H795 0.950 . S
H792 C788 0.950 . S
C793 C791 1.390 . S
C793 C794 1.387 . S
C793 H796 0.950 . S
C794 C793 1.387 . S
C794 C797 1.387 . S
H795 C791 0.950 . S
H796 C793 0.950 . S
C797 C788 1.390 . S
C797 H790 0.950 . S
C797 C794 1.387 . S
C798 C799 1.387 1_655 S
C798 H802 0.950 . S
C798 C807 1.390 . S
C799 C798 1.387 1_455 S
C799 C801 1.387 1_554 S
H800 C807 0.950 . S
C801 C799 1.387 1_556 S
C801 C803 1.390 . S
C801 H805 0.950 . S
H802 C798 0.950 . S
C803 C801 1.390 . S
C803 C804 1.387 1_455 S
C803 H806 0.950 . S
C804 C803 1.387 1_655 S
C804 C807 1.387 1_556 S
H805 C801 0.950 . S
H806 C803 0.950 . S
C807 C798 1.390 . S
C807 H800 0.950 . S
C807 C804 1.387 1_554 S
C808 C809 1.387 . S
C808 H812 0.950 . S
C808 C817 1.390 . S
C809 C808 1.387 . S
C809 C811 1.387 . S
H810 C817 0.950 . S
C811 C809 1.387 . S
C811 C813 1.390 . S
C811 H815 0.950 . S
H812 C808 0.950 . S
C813 C811 1.390 . S
C813 C814 1.387 . S
C813 H816 0.950 . S
C814 C813 1.387 . S
C814 C817 1.387 . S
H815 C811 0.950 . S
H816 C813 0.950 . S
C817 C808 1.390 . S
C817 H810 0.950 . S
C817 C814 1.387 . S
C818 C819 1.387 . S
C818 H822 0.950 . S
C818 C827 1.390 . S
C819 C818 1.387 . S
C819 C821 1.387 . S
H820 C827 0.950 . S
C821 C819 1.387 . S
C821 C823 1.390 . S
C821 H825 0.950 . S
H822 C818 0.950 . S
C823 C821 1.390 . S
C823 C824 1.387 . S
C823 H826 0.950 . S
C824 C823 1.387 . S
C824 C827 1.387 . S
H825 C821 0.950 . S
H826 C823 0.950 . S
C827 C818 1.390 . S
C827 H820 0.950 . S
C827 C824 1.387 . S
C828 C829 1.387 1_554 S
C828 H832 0.950 . S
C828 C837 1.390 . S
C829 C828 1.387 1_556 S
C829 C831 1.387 1_445 S
H830 C837 0.950 . S
C831 C829 1.387 1_665 S
C831 C833 1.390 . S
C831 H835 0.950 . S
H832 C828 0.950 . S
C833 C831 1.390 . S
C833 C834 1.387 1_556 S
C833 H836 0.950 . S
C834 C833 1.387 1_554 S
C834 C837 1.387 1_665 S
H835 C831 0.950 . S
H836 C833 0.950 . S
C837 C828 1.390 . S
C837 H830 0.950 . S
C837 C834 1.387 1_445 S
C838 C839 1.387 . S
C838 H842 0.950 . S
C838 C847 1.390 . S
C839 C838 1.387 . S
C839 C841 1.387 1_545 S
H840 C847 0.950 . S
C841 C839 1.387 1_565 S
C841 C843 1.390 . S
C841 H845 0.950 . S
H842 C838 0.950 . S
C843 C841 1.390 . S
C843 C844 1.387 . S
C843 H846 0.950 . S
C844 C843 1.387 . S
C844 C847 1.387 1_565 S
H845 C841 0.950 . S
H846 C843 0.950 . S
C847 C838 1.390 . S
C847 H840 0.950 . S
C847 C844 1.387 1_545 S
C369 C18 1.424 . S
C374 C248 1.424 . S
C379 C41 1.425 . S
C384 C271 1.425 . S
C389 C64 1.425 . S
C394 C202 1.425 . S
C399 C87 1.424 . S
C404 C225 1.424 . S
C409 C110 1.424 . S
C414 C340 1.424 . S
C419 C133 1.425 . S
C424 C363 1.425 . S
C429 C156 1.424 . S
C434 C294 1.424 . S
C439 C179 1.425 . S
C444 C317 1.425 . S
C449 C224 1.190 . S
C454 C21 1.177 . S
C459 C247 1.191 . S
C464 C44 1.178 . S
C469 C270 1.189 . S
C474 C67 1.176 . S
C479 C201 1.189 . S
C484 C90 1.175 . S
C489 C113 1.176 . S
C494 C316 1.190 . S
C499 C339 1.191 . S
C504 C136 1.178 . S
C509 C362 1.190 . S
C514 C159 1.176 . S
C519 C293 1.191 . S
C524 C182 1.178 . S
C529 C40 1.191 . S
C534 C205 1.177 . S
C539 C228 1.179 1_565 S
C544 C63 1.192 . S
C549 C251 1.178 . S
C554 C86 1.191 . S
C559 C274 1.179 1_545 S
C564 C17 1.192 . S
C569 C297 1.176 . S
C574 C132 1.190 . S
C579 C155 1.189 . S
C584 C320 1.175 1_545 S
C589 C178 1.191 . S
C594 C343 1.178 . S
C599 C366 1.177 1_565 S
C604 C109 1.190 . S
C609 C19 1.149 . S
C614 C361 1.198 . S
C619 C42 1.149 . S
C624 C108 1.201 . S
C629 C315 1.198 . S
C634 C65 1.149 . S
C639 C154 1.201 . S
C644 C88 1.149 . S
C649 C111 1.149 . S
C654 C269 1.201 . S
C659 C134 1.151 . S
C664 C16 1.198 . S
C669 C223 1.198 . S
C674 C157 1.149 . S
C679 C62 1.201 . S
C684 C180 1.147 . S
C689 C203 1.149 . S
C694 C177 1.201 . S
C699 C226 1.148 . S
C704 C292 1.199 . S
C709 C131 1.198 . S
C714 C249 1.150 . S
C719 C338 1.201 . S
C724 C272 1.146 . S
C729 C295 1.148 . S
C734 C85 1.201 . S
C739 C318 1.148 . S
C744 C200 1.201 . S
C749 C341 1.151 . S
C754 C39 1.198 . S
C759 C246 1.198 . S
C764 C364 1.151 . S
C769 C20 1.904 . S
C774 C296 1.904 . S
C779 C43 1.904 . S
C784 C135 1.904 . S
C789 C66 1.905 . S
C794 C342 1.905 . S
C799 C181 1.904 . S
C804 C89 1.904 . S
C809 C112 1.905 . S
C814 C204 1.905 . S
C819 C250 1.903 . S
C824 C158 1.903 . S
C829 C227 1.904 . S
C834 C319 1.904 . S
C839 C365 1.904 . S
C844 C273 1.904 . S
