# Generated by pormake.
# Topology rkf, (6)-cn, num edge types: 1
# Building blocks:
#     Node 0, Type 0, BuildingBlock: BETDEL_clean_sbu_0, # of connection points: 6
#     Node 1, Type 0, BuildingBlock: BETDEL_clean_sbu_0, # of connection points: 6
#     Node 2, Type 0, BuildingBlock: BETDEL_clean_sbu_0, # of connection points: 6
#     Node 3, Type 0, BuildingBlock: BETDEL_clean_sbu_0, # of connection points: 6
#     Node 4, Type 0, BuildingBlock: BETDEL_clean_sbu_0, # of connection points: 6
#     Node 5, Type 0, BuildingBlock: BETDEL_clean_sbu_0, # of connection points: 6
#     Edge 6, Type (0, 0), BuildingBlock: UVAHIK_clean_linker_0, # of connection points: 2
#     Edge 7, Type (0, 0), BuildingBlock: UVAHIK_clean_linker_0, # of connection points: 2
#     Edge 8, Type (0, 0), BuildingBlock: UVAHIK_clean_linker_0, # of connection points: 2
#     Edge 9, Type (0, 0), BuildingBlock: UVAHIK_clean_linker_0, # of connection points: 2
#     Edge 10, Type (0, 0), BuildingBlock: UVAHIK_clean_linker_0, # of connection points: 2
#     Edge 11, Type (0, 0), BuildingBlock: UVAHIK_clean_linker_0, # of connection points: 2
#     Edge 12, Type (0, 0), BuildingBlock: UVAHIK_clean_linker_0, # of connection points: 2
#     Edge 13, Type (0, 0), BuildingBlock: UVAHIK_clean_linker_0, # of connection points: 2
#     Edge 14, Type (0, 0), BuildingBlock: UVAHIK_clean_linker_0, # of connection points: 2
#     Edge 15, Type (0, 0), BuildingBlock: UVAHIK_clean_linker_0, # of connection points: 2
#     Edge 16, Type (0, 0), BuildingBlock: UVAHIK_clean_linker_0, # of connection points: 2
#     Edge 17, Type (0, 0), BuildingBlock: UVAHIK_clean_linker_0, # of connection points: 2
#     Edge 18, Type (0, 0), BuildingBlock: UVAHIK_clean_linker_0, # of connection points: 2
#     Edge 19, Type (0, 0), BuildingBlock: UVAHIK_clean_linker_0, # of connection points: 2
#     Edge 20, Type (0, 0), BuildingBlock: UVAHIK_clean_linker_0, # of connection points: 2
#     Edge 21, Type (0, 0), BuildingBlock: UVAHIK_clean_linker_0, # of connection points: 2
#     Edge 22, Type (0, 0), BuildingBlock: UVAHIK_clean_linker_0, # of connection points: 2
#     Edge 23, Type (0, 0), BuildingBlock: UVAHIK_clean_linker_0, # of connection points: 2
# Relax obj value: 0.362
# Max RMSD: 0.269
# Mean RMSD: 0.269
data_MOF--net-rkf--node1-BETDEL_clean_sbu_0--edge1-UVAHIK_clean_linker_0
_symmetry_space_group_name_H-M    P1
_symmetry_Int_Tables_number       1
_symmetry_cell_setting            triclinic
loop_
_symmetry_equiv_pos_as_xyz
'x, y, z'
_cell_length_a     30.499815
_cell_length_b     30.490544
_cell_length_c     53.607475
_cell_angle_alpha  90.011535
_cell_angle_beta   89.957192
_cell_angle_gamma 120.51939
loop_
_atom_site_label
_atom_site_type_symbol
_atom_site_fract_x
_atom_site_fract_y
_atom_site_fract_z
_atom_type_partial_charge
Dy0 Dy 0.23035 0.0017 0.04351 0.0
C1 C 0.25435 0.16886 0.98037 0.0
C2 C 0.20644 0.92454 0.0771 0.0
Dy3 Dy 0.26708 0.10681 1.01298 0.0
O4 O 0.17817 0.92279 0.05855 0.0
O5 O 0.24981 0.96719 0.076 0.0
O6 O 0.14906 0.98398 0.03712 0.0
O7 O 0.20637 0.02937 1.01271 0.0
C8 C 0.1608 0.01279 1.01752 0.0
C9 C 0.34064 0.09587 0.03249 0.0
O10 O 0.2481 0.12734 0.05054 0.0
O11 O 0.23526 0.05579 0.07304 0.0
O12 O 0.29821 0.17487 0.98708 0.0
O13 O 0.21807 0.13053 0.99241 0.0
O14 O 0.3484 0.12735 1.01417 0.0
O15 O 0.29652 0.07845 0.0415 0.0
O16 O 0.26273 0.98602 1.00897 0.0
O17 O 0.26933 0.05363 0.9847 0.0
C18 C 0.24013 0.10154 0.07178 0.0
C19 C 0.27178 0.01143 0.98744 0.0
Dy20 Dy 0.19143 0.25698 0.37983 0.0
C21 C 0.1134 0.35116 0.31275 0.0
C22 C 0.22224 0.20819 0.41269 0.0
Dy23 Dy 0.16442 0.32656 0.34693 0.0
O24 O 0.18702 0.18608 0.39584 0.0
O25 O 0.24277 0.25726 0.41047 0.0
O26 O 0.10598 0.20478 0.38552 0.0
O27 O 0.13329 0.24728 0.35377 0.0
C28 C 0.09305 0.21752 0.36487 0.0
C29 C 0.26349 0.36669 0.35655 0.0
O30 O 0.14491 0.34315 0.38524 0.0
O31 O 0.18016 0.30352 0.40849 0.0
O32 O 0.09312 0.32359 0.33265 0.0
O33 O 0.16218 0.36881 0.31306 0.0
O34 O 0.24587 0.3797 0.33762 0.0
O35 O 0.22749 0.33855 0.3712 0.0
O36 O 0.22238 0.25125 0.34216 0.0
O37 O 0.17135 0.27413 0.3202 0.0
C38 C 0.15876 0.33196 0.4068 0.0
C39 C 0.20232 0.25551 0.32082 0.0
Dy40 Dy 0.04803 0.26244 0.71051 0.0
C41 C 0.8852 0.12995 0.64396 0.0
C42 C 0.11998 0.30307 0.74772 0.0
Dy43 Dy 0.9431 0.2046 0.67773 0.0
O44 O 0.12272 0.28016 0.72782 0.0
O45 O 0.07981 0.30748 0.74618 0.0
O46 O 0.06414 0.20064 0.69777 0.0
O47 O 0.01956 0.21934 0.67677 0.0
C48 C 0.03573 0.18933 0.67802 0.0
C49 C 0.95416 0.28265 0.70434 0.0
O50 O 0.91639 0.15985 0.71365 0.0
O51 O -0.00837 0.20375 0.7369 0.0
O52 O 0.91027 0.12537 0.66244 0.0
O53 O 0.88941 0.17479 0.64478 0.0
O54 O 0.91982 0.26191 0.68662 0.0
O55 O 0.97308 0.25494 0.70905 0.0
O56 O 0.06846 0.31946 0.67911 0.0
O57 O -0.00064 0.26704 0.65271 0.0
C58 C 0.94297 0.16798 0.73459 0.0
C59 C 0.04329 0.30979 0.65741 0.0
Dy60 Dy 0.83871 0.07285 0.04548 0.0
C61 C 0.79635 0.89395 0.98691 0.0
C62 C 0.85499 0.14154 0.08273 0.0
Dy63 Dy 0.7997 0.96382 1.02059 0.0
O64 O 0.88087 0.15237 0.06203 0.0
O65 O 0.81859 0.0943 0.08212 0.0
O66 O 0.91028 0.10735 1.02292 0.0
O67 O 0.87186 0.0296 0.03168 0.0
C68 C 0.90649 0.0637 1.01828 0.0
C69 C 0.72943 0.97562 0.04459 0.0
O70 O 0.81627 0.94509 0.05851 0.0
O71 O 0.83858 0.0234 0.07658 0.0
O72 O 0.76166 0.90645 0.98947 0.0
O73 O 0.83147 0.91784 1.00362 0.0
O74 O 0.7247 0.93104 0.04093 0.0
O75 O 0.76716 0.00907 0.03261 0.0
O76 O 0.80948 0.08541 1.00914 0.0
O77 O 0.80753 0.016 0.98918 0.0
C78 C 0.82912 0.97592 0.07809 0.0
C79 C 0.8058 0.0587 0.98866 0.0
Dy80 Dy 0.8588 0.8026 0.38308 0.0
C81 C 0.94718 0.72985 0.30961 0.0
C82 C 0.82548 0.83788 0.42178 0.0
Dy83 Dy 0.89212 0.74031 0.34749 0.0
O84 O 0.84168 0.86015 0.40031 0.0
O85 O 0.82526 0.79515 0.42159 0.0
O86 O 0.93044 0.87675 0.37412 0.0
O87 O 0.92869 0.80921 0.36912 0.0
C88 C 0.95475 0.85606 0.36472 0.0
C89 C 0.79948 0.68608 0.36735 0.0
O90 O 0.91319 0.72152 0.38458 0.0
O91 O 0.87093 0.75243 0.40908 0.0
O92 O 0.89775 0.70673 0.31081 0.0
O93 O 0.96621 0.75599 0.32995 0.0
O94 O 0.82652 0.66601 0.3601 0.0
O95 O 0.82079 0.73247 0.36086 0.0
O96 O 0.82228 0.80752 0.34757 0.0
O97 O 0.86412 0.77891 0.32157 0.0
C98 C 0.89528 0.72698 0.40631 0.0
C99 C 0.83577 0.79999 0.32507 0.0
Dy100 Dy 0.00621 0.81223 0.71084 0.0
C101 C 0.16888 0.93381 0.64113 0.0
C102 C 0.93916 0.78843 0.74964 0.0
Dy103 Dy 0.11087 0.87274 0.68008 0.0
O104 O 0.9569 0.82829 0.73543 0.0
O105 O 0.95613 0.75904 0.74183 0.0
O106 O 0.97171 0.84121 0.68347 0.0
O107 O 0.04978 0.88456 0.6918 0.0
C108 C 0.01496 0.88127 0.6778 0.0
C109 C 0.10078 0.79483 0.70735 0.0
O110 O 0.13945 0.9121 0.71692 0.0
O111 O 0.06756 0.8535 0.73921 0.0
O112 O 0.14877 0.88466 0.64237 0.0
O113 O 0.16019 0.94984 0.662 0.0
O114 O 0.14518 0.83127 0.6994 0.0
O115 O 0.06607 0.79946 0.69727 0.0
O116 O 0.98233 0.75915 0.67809 0.0
O117 O 0.05097 0.81761 0.65329 0.0
C118 C 0.11468 0.89292 0.73823 0.0
C119 C 0.00673 0.77422 0.65625 0.0
C120 C 0.92613 0.08202 0.97291 0.0
C121 C 0.92158 0.05281 0.99412 0.0
C122 C 0.93731 0.06944 0.9496 0.0
C123 C 0.96486 0.97426 0.9206 0.0
H124 H 0.09854 0.09331 0.9252 0.0
C125 C 0.12587 0.97748 0.97593 0.0
C126 C 0.12587 0.00481 0.99712 0.0
C127 C 0.10289 0.97954 0.95376 0.0
C128 C 0.06164 0.05943 0.92278 0.0
H129 H 0.92601 0.98883 1.00799 0.0
H130 H 0.94724 0.96762 0.9681 0.0
H131 H 0.02528 0.10315 0.92058 0.0
H132 H 0.10264 0.05559 1.01209 0.0
H133 H 0.06104 0.05834 0.9737 0.0
H134 H 0.00041 0.93062 0.92827 0.0
C135 C 0.9395 -0.00147 0.96866 0.0
C136 C 0.01918 0.06493 0.91997 0.0
C137 C 0.92826 0.01108 0.99177 0.0
C138 C 0.10191 0.03338 0.99615 0.0
C139 C 0.07942 0.03586 0.974 0.0
C140 C 0.00698 0.96838 0.92441 0.0
C141 C 0.94488 0.02787 0.94722 0.0
C142 C 0.97092 0.02256 0.92496 0.0
C143 C 0.0808 0.00999 0.95244 0.0
C144 C 0.05412 0.01174 0.92987 0.0
H145 H 0.92093 0.11452 0.97432 0.0
H146 H 0.94216 0.09339 0.93367 0.0
H147 H 0.92734 0.94073 0.92158 0.0
H148 H 0.14532 0.95604 0.97632 0.0
H149 H 0.10335 0.95845 0.93759 0.0
C150 C 0.97888 0.86346 0.31981 0.0
C151 C -0.00834 0.88158 0.34436 0.0
C152 C -0.00639 0.89766 0.2999 0.0
C153 C 0.05348 0.03501 0.28558 0.0
H154 H 0.91924 0.01169 0.30166 0.0
C155 C 0.01721 0.13158 0.35749 0.0
C156 C 0.04815 0.18226 0.34991 0.0
C157 C -0.0076 0.0935 0.33953 0.0
C158 C 0.95629 0.01883 0.29577 0.0
H159 H 0.04027 0.94758 0.3668 0.0
H160 H 0.06886 0.00686 0.33223 0.0
H161 H 0.9314 0.93974 0.29544 0.0
H162 H 0.06898 0.23393 0.31844 0.0
H163 H 0.02794 0.16755 0.28732 0.0
H164 H 0.07942 0.11426 0.28864 0.0
C165 C 0.04563 0.96659 0.32811 0.0
C166 C 0.96342 0.97756 0.29208 0.0
C167 C 0.02914 0.93259 0.34807 0.0
C168 C 0.04612 0.19508 0.32484 0.0
C169 C 0.0224 0.15707 0.30687 0.0
C170 C 0.04612 0.07635 0.28845 0.0
C171 C 0.02301 0.95007 0.30448 0.0
C172 C 0.01306 0.98564 0.29032 0.0
C173 C -0.00096 0.10591 0.31395 0.0
C174 C -0.00138 0.06822 0.29653 0.0
H175 H 0.95196 0.82431 0.31611 0.0
H176 H 0.97621 0.88382 0.2818 0.0
H177 H 0.09198 0.04218 0.2839 0.0
H178 H 0.01755 0.12058 0.37667 0.0
H179 H 0.9745 0.05414 0.34549 0.0
C180 C 0.06654 0.95504 0.65026 0.0
C181 C 0.0246 0.90626 0.65341 0.0
C182 C 0.07503 0.97984 0.62748 0.0
C183 C -0.00576 0.99194 0.58624 0.0
H184 H 0.12567 0.11561 0.58561 0.0
C185 C 0.01502 0.16364 0.63349 0.0
C186 C 0.03977 0.16356 0.65567 0.0
C187 C 0.01908 0.14031 0.61194 0.0
C188 C 0.08838 0.08165 0.5844 0.0
H189 H 0.96015 0.8431 0.63498 0.0
H190 H 0.9735 0.88766 0.59519 0.0
H191 H 0.12023 0.03384 0.5807 0.0
H192 H 0.09089 0.14221 0.67225 0.0
H193 H 0.09814 0.10124 0.63464 0.0
H194 H 0.96251 0.03904 0.59316 0.0
C195 C 0.00054 0.90639 0.61017 0.0
C196 C 0.0852 0.0346 0.58146 0.0
C197 C -0.00763 0.88138 0.63305 0.0
C198 C 0.07083 0.1421 0.65556 0.0
C199 C 0.07576 0.11968 0.63386 0.0
C200 C -0.00295 0.03885 0.58864 0.0
C201 C 0.04086 0.95677 0.60741 0.0
C202 C 0.03938 0.99017 0.58769 0.0
C203 C 0.04929 0.11788 0.61196 0.0
C204 C 0.04484 0.08288 0.59182 0.0
H205 H 0.09144 0.97504 0.6658 0.0
H206 H 0.106 0.01893 0.6265 0.0
H207 H 0.95752 0.95799 0.58917 0.0
H208 H -0.008 0.18132 0.63281 0.0
H209 H -0.00247 0.13848 0.59551 0.0
C210 C 0.28682 0.2326 0.94519 0.0
C211 C 0.24586 0.19526 0.95919 0.0
C212 C 0.27816 0.25314 0.92355 0.0
C213 C 0.17517 0.25999 0.88785 0.0
H214 H 0.26711 0.2897 0.83216 0.0
C215 C 0.17713 0.28424 0.77344 0.0
C216 C 0.14713 0.30699 0.77143 0.0
C217 C 0.19435 0.27831 0.79676 0.0
C218 C 0.24066 0.28125 0.84739 0.0
H219 H 0.16364 0.15107 0.96172 0.0
H220 H 0.14845 0.18609 0.92415 0.0
H221 H 0.2849 0.26336 0.87178 0.0
H222 H 0.11406 0.34392 0.79226 0.0
H223 H 0.14592 0.33588 0.83277 0.0
H224 H 0.12933 0.27488 0.86309 0.0
C225 C 0.18742 0.20034 0.92983 0.0
C226 C 0.25139 0.26684 0.87042 0.0
C227 C 0.1961 0.18001 0.95146 0.0
C228 C 0.13717 0.32629 0.79315 0.0
C229 C 0.1549 0.32093 0.81648 0.0
C230 C 0.16414 0.27381 0.86475 0.0
C231 C 0.22825 0.23665 0.91522 0.0
C232 C 0.21855 0.2554 0.89102 0.0
C233 C 0.18254 0.29548 0.8188 0.0
C234 C 0.1964 0.28421 0.844 0.0
H235 H 0.32563 0.24519 0.95065 0.0
H236 H 0.31077 0.28173 0.91327 0.0
H237 H 0.14923 0.25255 0.9032 0.0
H238 H 0.18504 0.26841 0.75713 0.0
H239 H 0.21483 0.25795 0.79751 0.0
C240 C 0.1092 0.35452 0.26636 0.0
C241 C 0.0847 0.34631 0.28952 0.0
C242 C 0.08131 0.33999 0.24412 0.0
C243 C 0.94716 0.25657 0.2207 0.0
H244 H 0.01391 0.31008 0.15729 0.0
C245 C 0.85805 0.14731 0.12918 0.0
C246 C 0.87283 0.17211 0.10601 0.0
C247 C 0.88033 0.17347 0.15134 0.0
C248 C -0.00621 0.29496 0.17467 0.0
H249 H 0.01181 0.31901 0.30743 0.0
H250 H 0.96328 0.29743 0.26867 0.0
H251 H 0.05795 0.35002 0.1954 0.0
H252 H 0.92085 0.24455 0.08797 0.0
H253 H 0.957 0.29153 0.12664 0.0
H254 H 0.88166 0.20395 0.19997 0.0
C255 C 0.00391 0.31275 0.26748 0.0
C256 C 0.01988 0.31746 0.19688 0.0
C257 C 0.03182 0.326 0.28985 0.0
C258 C 0.90869 0.22442 0.10558 0.0
C259 C 0.92999 0.25114 0.12788 0.0
C260 C 0.92051 0.2351 0.19849 0.0
C261 C 0.02792 0.31794 0.24419 0.0
C262 C -0.0023 0.29777 0.22038 0.0
C263 C 0.91721 0.22587 0.15119 0.0
C264 C 0.94378 0.25279 0.17499 0.0
H265 H 0.14983 0.36931 0.26542 0.0
H266 H 0.10188 0.34398 0.22704 0.0
H267 H 0.92815 0.23942 0.23808 0.0
H268 H 0.83108 0.10678 0.13016 0.0
H269 H 0.86979 0.1516 0.16842 0.0
C270 C 0.85631 0.10982 0.5993 0.0
C271 C 0.86608 0.0945 0.62234 0.0
C272 C 0.8459 0.07931 0.57796 0.0
C273 C 0.86125 0.97257 0.55343 0.0
H274 H 0.77653 0.9724 0.49953 0.0
C275 C 0.81324 0.83969 0.46801 0.0
C276 C 0.81883 0.86214 0.44443 0.0
C277 C 0.81399 0.86559 0.48979 0.0
C278 C 0.80054 0.97224 0.51436 0.0
H279 H 0.87087 0.03432 0.64121 0.0
H280 H 0.85053 0.98019 0.60458 0.0
H281 H 0.78609 0.02097 0.5374 0.0
H282 H 0.82778 0.92867 0.42521 0.0
H283 H 0.82833 0.97361 0.46319 0.0
H284 H 0.87525 0.92346 0.53045 0.0
C285 C 0.85233 0.01638 0.60256 0.0
C286 C 0.80624 0.00033 0.53614 0.0
C287 C 0.86335 0.04717 0.62376 0.0
C288 C 0.82312 0.91023 0.44308 0.0
C289 C 0.82338 0.93596 0.46488 0.0
C290 C 0.85515 0.94417 0.53181 0.0
C291 C 0.84452 0.03237 0.57914 0.0
C292 C 0.83693 0.00119 0.55603 0.0
C293 C 0.81993 0.91446 0.48857 0.0
C294 C 0.82488 0.94371 0.51191 0.0
H295 H 0.85885 0.14643 0.5975 0.0
H296 H 0.84086 0.0936 0.56037 0.0
H297 H 0.88604 0.97275 0.56789 0.0
H298 H 0.80999 0.80275 0.46971 0.0
H299 H 0.81052 0.84752 0.50765 0.0
C300 C 0.7634 0.84639 0.94657 0.0
C301 C 0.80091 0.86612 0.9652 0.0
C302 C 0.77112 0.82693 0.92433 0.0
C303 C 0.80859 0.82208 0.8728 0.0
H304 H 0.8997 0.76888 0.86738 0.0
C305 C 0.89917 0.82139 0.77887 0.0
C306 C 0.91214 0.78428 0.77345 0.0
C307 C 0.88015 0.82358 0.80226 0.0
C308 C 0.8735 0.78291 0.86846 0.0
H309 H 0.87491 0.87852 0.97561 0.0
H310 H 0.88927 0.84629 0.9368 0.0
H311 H 0.87545 0.78377 0.90842 0.0
H312 H 0.91405 0.71935 0.78839 0.0
H313 H 0.87902 0.72194 0.82934 0.0
H314 H 0.80512 0.81965 0.83301 0.0
C315 C 0.85329 0.84474 0.93925 0.0
C316 C 0.86015 0.79233 0.89216 0.0
C317 C 0.84528 0.86372 0.96158 0.0
C318 C 0.90404 0.74816 0.79191 0.0
C319 C 0.88453 0.75014 0.81549 0.0
C320 C 0.82131 0.81201 0.84923 0.0
C321 C 0.81697 0.82735 0.91988 0.0
C322 C 0.82813 0.81297 0.89475 0.0
C323 C 0.87284 0.78836 0.82112 0.0
C324 C 0.85495 0.79341 0.84657 0.0
H325 H 0.7286 0.84734 0.94884 0.0
H326 H 0.74126 0.81242 0.91044 0.0
H327 H 0.78451 0.8386 0.8736 0.0
H328 H 0.90533 0.85017 0.76522 0.0
H329 H 0.87295 0.85434 0.80574 0.0
C330 C 0.02924 0.77264 0.2855 0.0
C331 C 0.9767 0.73725 0.28629 0.0
C332 C 0.05577 0.78602 0.26275 0.0
C333 C 0.03298 0.78854 0.1948 0.0
H334 H 0.17354 0.82288 0.18853 0.0
C335 C 0.13582 0.85027 0.09976 0.0
C336 C 0.18582 0.89207 0.09975 0.0
C337 C 0.11205 0.82575 0.1221 0.0
C338 C 0.1344 0.81382 0.18996 0.0
H339 H 0.91121 0.68684 0.26383 0.0
H340 H 0.95743 0.70922 0.22425 0.0
H341 H 0.12887 0.79033 0.22814 0.0
H342 H 0.25083 0.93942 0.12318 0.0
H343 H 0.20948 0.89693 0.16217 0.0
H344 H 0.03851 0.81275 0.1569 0.0
C345 C 0.97819 0.72742 0.24114 0.0
C346 C 0.10869 0.79508 0.21274 0.0
C347 C 0.95171 0.71408 0.2639 0.0
C348 C 0.21244 0.90702 0.12248 0.0
C349 C 0.18859 0.88259 0.1449 0.0
C350 C 0.05862 0.80725 0.17209 0.0
C351 C 0.03043 0.76443 0.24013 0.0
C352 C 0.0576 0.78234 0.21556 0.0
C353 C 0.13747 0.8425 0.14514 0.0
C354 C 0.10981 0.82039 0.16928 0.0
H355 H 0.04955 0.79165 0.30237 0.0
H356 H 0.09573 0.81499 0.26283 0.0
H357 H -0.0059 0.7803 0.19626 0.0
H358 H 0.11419 0.83778 0.08259 0.0
H359 H 0.07315 0.79434 0.12135 0.0
C360 C 0.17605 0.93992 0.59441 0.0
C361 C 0.1867 0.96433 0.61772 0.0
C362 C 0.18617 0.96779 0.57217 0.0
C363 C 0.21224 0.09497 0.54815 0.0
H364 H 0.23783 0.04599 0.48626 0.0
C365 C 0.25606 0.20947 0.45567 0.0
C366 C 0.22889 0.18175 0.4345 0.0
C367 C 0.25603 0.18436 0.47766 0.0
C368 C 0.23044 0.06009 0.50335 0.0
H369 H 0.21759 0.03751 0.63586 0.0
H370 H 0.2379 0.08657 0.59728 0.0
H371 H 0.23021 0.00111 0.52509 0.0
H372 H 0.1818 0.10574 0.41964 0.0
H373 H 0.18264 0.0619 0.45775 0.0
H374 H 0.21319 0.15434 0.52627 0.0
C375 C 0.22024 0.04563 0.59595 0.0
C376 C 0.22578 0.03413 0.52577 0.0
C377 C 0.20924 0.01756 0.61821 0.0
C378 C 0.2034 0.12827 0.43554 0.0
C379 C 0.20391 0.10312 0.45743 0.0
C380 C 0.21745 0.12119 0.52579 0.0
C381 C 0.20804 0.02119 0.57247 0.0
C382 C 0.21596 0.05068 0.54859 0.0
C383 C 0.22932 0.13078 0.47899 0.0
C384 C 0.22617 0.10392 0.503 0.0
H385 H 0.15784 0.89885 0.59334 0.0
H386 H 0.17502 0.94692 0.55478 0.0
H387 H 0.20392 0.10897 0.56498 0.0
H388 H 0.27585 0.25069 0.45558 0.0
H389 H 0.27653 0.20697 0.49375 0.0
C390 C 0.41229 0.0842 1.02078 0.0
C391 C 0.37608 0.07823 0.03861 0.0
C392 C 0.4479 0.06999 0.02618 0.0
C393 C 0.481 -0.0041 0.06852 0.0
H394 H 0.61506 0.08877 0.04184 0.0
C395 C 0.63806 0.94401 0.05505 0.0
C396 C 0.68881 0.98401 0.05383 0.0
C397 C 0.59884 0.95438 0.05922 0.0
C398 C 0.57838 0.06277 0.05003 0.0
H399 H 0.34738 0.05159 0.07585 0.0
H400 H 0.41125 0.02762 0.08574 0.0
H401 H 0.54866 0.10883 0.03765 0.0
H402 H 0.73869 0.06535 0.05776 0.0
H403 H 0.67168 0.08293 0.06747 0.0
H404 H 0.51166 0.95031 0.08138 0.0
C405 C 0.41144 0.04268 0.06742 0.0
C406 C 0.53982 0.07391 0.04714 0.0
C407 C 0.37508 0.05644 0.06183 0.0
C408 C 0.70006 0.03374 0.05886 0.0
C409 C 0.66132 0.04387 0.06393 0.0
C410 C 0.52008 0.98492 0.07173 0.0
C411 C 0.44887 0.05033 0.04975 0.0
C412 C 0.49034 0.04003 0.05566 0.0
C413 C 0.61 0.00482 0.0628 0.0
C414 C 0.56912 0.01789 0.06211 0.0
H415 H 0.41319 0.09997 1.00254 0.0
H416 H 0.4751 0.07489 1.01186 0.0
H417 H 0.44321 0.96906 0.07533 0.0
H418 H 0.62839 0.90526 0.05113 0.0
H419 H 0.55985 0.92327 0.05809 0.0
C420 C 0.33614 0.39609 0.38703 0.0
C421 C 0.31826 0.39396 0.36265 0.0
C422 C 0.3881 0.42775 0.39249 0.0
C423 C 0.50124 0.54283 0.36782 0.0
H424 H 0.58047 0.50234 0.40785 0.0
C425 C 0.71616 0.67796 0.37918 0.0
C426 C 0.74576 0.6553 0.37525 0.0
C427 C 0.66377 0.64772 0.3835 0.0
C428 C 0.55883 0.51425 0.39665 0.0
H429 H 0.3406 0.42045 0.32469 0.0
H430 H 0.43042 0.47448 0.33403 0.0
H431 H 0.48877 0.44413 0.40309 0.0
H432 H 0.74463 0.58368 0.37436 0.0
H433 H 0.6534 0.53097 0.3813 0.0
H434 H 0.57089 0.61163 0.36029 0.0
C435 C 0.40468 0.45318 0.34912 0.0
C436 C 0.50623 0.48106 0.39412 0.0
C437 C 0.35321 0.42189 0.34373 0.0
C438 C 0.72265 0.60217 0.37716 0.0
C439 C 0.67032 0.57194 0.38136 0.0
C440 C 0.55354 0.57584 0.37031 0.0
C441 C 0.42266 0.45763 0.37364 0.0
C442 C 0.47715 0.49448 0.37908 0.0
C443 C 0.63991 0.5942 0.38388 0.0
C444 C 0.58332 0.5616 0.38428 0.0
H445 H 0.30986 0.37489 0.40195 0.0
H446 H 0.4009 0.43025 0.41156 0.0
H447 H 0.47975 0.55475 0.35648 0.0
H448 H 0.73314 0.71891 0.3781 0.0
H449 H 0.64172 0.66624 0.38587 0.0
C450 C 0.02269 0.36542 0.72167 0.0
C451 C 0.97187 0.33388 0.71448 0.0
C452 C 0.0407 0.41593 0.72859 0.0
C453 C 0.00097 0.50751 0.74714 0.0
H454 H 0.12105 0.60523 0.71062 0.0
C455 C 0.04118 0.70705 0.72237 0.0
C456 C 0.09142 0.74679 0.71868 0.0
C457 C 0.03108 0.65857 0.729 0.0
C458 C 0.08827 0.57878 0.72153 0.0
H459 H 0.89948 0.32972 0.70925 0.0
H460 H 0.93068 0.41802 0.72143 0.0
H461 H 0.09431 0.51542 0.70906 0.0
H462 H 0.17076 0.76833 0.72092 0.0
H463 H 0.15328 0.68351 0.733 0.0
H464 H -0.00577 0.57077 0.75916 0.0
C465 C 0.95662 0.40361 0.72206 0.0
C466 C 0.07283 0.52715 0.72054 0.0
C467 C 0.93884 0.35324 0.71493 0.0
C468 C 0.13164 0.73816 0.72345 0.0
C469 C 0.12156 0.68954 0.7302 0.0
C470 C 0.01666 0.55925 0.74832 0.0
C471 C 0.00802 0.43578 0.7285 0.0
C472 C 0.0282 0.49085 0.73273 0.0
C473 C 0.07107 0.64876 0.73223 0.0
C474 C 0.05959 0.59535 0.73486 0.0
H475 H 0.04923 0.35207 0.72061 0.0
H476 H 0.08051 0.43983 0.7334 0.0
H477 H 0.96683 0.48039 0.75702 0.0
H478 H 0.00941 0.71271 0.71892 0.0
H479 H -0.00826 0.62819 0.7301 0.0
C480 C 0.21765 0.15125 0.10169 0.0
C481 C 0.24446 0.12633 0.09611 0.0
C482 C 0.21792 0.16821 0.12614 0.0
C483 C 0.24513 0.14635 0.19178 0.0
H484 H 0.23183 0.2636 0.2059 0.0
C485 C 0.25016 0.2273 0.29226 0.0
C486 C 0.21013 0.23663 0.29657 0.0
C487 C 0.25848 0.2145 0.26814 0.0
C488 C 0.23568 0.23078 0.20222 0.0
H489 H 0.29518 0.10261 0.11104 0.0
H490 H 0.29771 0.13401 0.15288 0.0
H491 H 0.2392 0.24276 0.16276 0.0
H492 H 0.14558 0.23646 0.27906 0.0
H493 H 0.16059 0.21518 0.23783 0.0
H494 H 0.24193 0.13491 0.23144 0.0
C495 C 0.27453 0.13866 0.13906 0.0
C496 C 0.23948 0.21855 0.17745 0.0
C497 C 0.27349 0.12105 0.11494 0.0
C498 C 0.17763 0.23081 0.27655 0.0
C499 C 0.18617 0.21866 0.25273 0.0
C500 C 0.24198 0.15902 0.21658 0.0
C501 C 0.2457 0.16126 0.14529 0.0
C502 C 0.24362 0.17575 0.17179 0.0
C503 C 0.22717 0.21135 0.24805 0.0
C504 C 0.23639 0.20088 0.22205 0.0
H505 H 0.19476 0.1555 0.08753 0.0
H506 H 0.19489 0.18509 0.13016 0.0
H507 H 0.2473 0.11252 0.18832 0.0
H508 H 0.27575 0.23131 0.30724 0.0
H509 H 0.29023 0.20863 0.26504 0.0
C510 C 0.19594 0.37321 0.44724 0.0
C511 C 0.15486 0.35448 0.43053 0.0
C512 C 0.19077 0.38509 0.47177 0.0
C513 C 0.10809 0.40321 0.51658 0.0
H514 H 0.16214 0.34543 0.56328 0.0
C515 C 0.03498 0.34513 0.61719 0.0
C516 C 0.06691 0.34307 0.63547 0.0
C517 C 0.05282 0.36185 0.59304 0.0
C518 C 0.14783 0.36302 0.55068 0.0
H519 H 0.07691 0.3361 0.42592 0.0
H520 H 0.06726 0.35624 0.4693 0.0
H521 H 0.17803 0.34469 0.51906 0.0
H522 H 0.14389 0.3613 0.64344 0.0
H523 H 0.17581 0.39195 0.60126 0.0
H524 H 0.07673 0.42028 0.54841 0.0
C525 C 0.10382 0.36236 0.46324 0.0
C526 C 0.15679 0.36239 0.52516 0.0
C527 C 0.10925 0.35089 0.4384 0.0
C528 C 0.1185 0.36278 0.62979 0.0
C529 C 0.13648 0.37955 0.60549 0.0
C530 C 0.09923 0.404 0.54224 0.0
C531 C 0.14407 0.37784 0.48044 0.0
C532 C 0.13659 0.3819 0.50771 0.0
C533 C 0.10317 0.37696 0.58651 0.0
C534 C 0.11835 0.38318 0.55962 0.0
H535 H 0.23174 0.3768 0.44156 0.0
H536 H 0.22298 0.3982 0.48424 0.0
H537 H 0.09242 0.41904 0.50371 0.0
H538 H -0.00504 0.33017 0.62106 0.0
H539 H 0.02585 0.359 0.57908 0.0
C540 C 0.94391 0.1376 0.77762 0.0
C541 C 0.91647 0.14352 0.75818 0.0
C542 C 0.9249 0.12779 0.80197 0.0
C543 C 0.81012 0.09145 0.84109 0.0
H544 H 0.91243 0.16219 0.89212 0.0
C545 C 0.7747 0.03967 0.94513 0.0
C546 C 0.80256 0.07646 0.96343 0.0
C547 C 0.78195 0.05209 0.91985 0.0
C548 C 0.88312 0.1429 0.87815 0.0
H549 H 0.84627 0.14122 0.74884 0.0
H550 H 0.81304 0.12449 0.79145 0.0
H551 H 0.93767 0.17169 0.84859 0.0
H552 H 0.85737 0.15604 0.96968 0.0
H553 H 0.86953 0.17849 0.92521 0.0
H554 H 0.75545 0.06344 0.87075 0.0
C555 C 0.8491 0.12682 0.78787 0.0
C556 C 0.89776 0.14749 0.85311 0.0
C557 C 0.86796 0.13607 0.76335 0.0
C558 C 0.83495 0.12708 0.95599 0.0
C559 C 0.84247 0.13962 0.9305 0.0
C560 C 0.79541 0.08711 0.86618 0.0
C561 C 0.87822 0.12441 0.80766 0.0
C562 C 0.86167 0.12098 0.83424 0.0
C563 C 0.81745 0.10177 0.91208 0.0
C564 C 0.83183 0.112 0.88513 0.0
H565 H 0.98137 0.14301 0.77421 0.0
H566 H 0.94771 0.12447 0.81649 0.0
H567 H 0.78117 0.07048 0.82718 0.0
H568 H 0.74957 0.00023 0.95033 0.0
H569 H 0.76227 0.02171 0.90642 0.0
C570 C 0.84462 0.99051 0.124 0.0
C571 C 0.83074 0.95712 0.1035 0.0
C572 C 0.84188 0.97305 0.14832 0.0
C573 C 0.78016 0.85531 0.18639 0.0
H574 H 0.88067 0.94108 0.23558 0.0
C575 C 0.8066 0.78275 0.28117 0.0
C576 C 0.81917 0.81436 0.30221 0.0
C577 C 0.80151 0.79966 0.25778 0.0
C578 C 0.85179 0.91705 0.22217 0.0
H579 H 0.80431 0.87907 0.09274 0.0
H580 H 0.80069 0.84863 0.13538 0.0
H581 H 0.88881 0.97068 0.19268 0.0
H582 H 0.83444 0.88777 0.31556 0.0
H583 H 0.82598 0.91798 0.2743 0.0
H584 H 0.74402 0.80114 0.2159 0.0
C585 C 0.81276 0.88834 0.13252 0.0
C586 C 0.85652 0.9339 0.1975 0.0
C587 C 0.81532 0.90586 0.10803 0.0
C588 C 0.82401 0.86243 0.29967 0.0
C589 C 0.81978 0.87984 0.27604 0.0
C590 C 0.77565 0.83833 0.21104 0.0
C591 C 0.8255 0.92167 0.15301 0.0
C592 C 0.82087 0.9032 0.17923 0.0
C593 C 0.80962 0.84897 0.25476 0.0
C594 C 0.81154 0.8689 0.22919 0.0
H595 H 0.85662 0.03029 0.12143 0.0
H596 H 0.85131 -0.00022 0.16351 0.0
H597 H 0.75141 0.83103 0.17302 0.0
H598 H 0.80289 0.74555 0.28262 0.0
H599 H 0.79412 0.77508 0.24181 0.0
C600 C 0.9476 0.71454 0.43849 0.0
C601 C 0.89993 0.70298 0.42921 0.0
C602 C 0.95247 0.70378 0.46348 0.0
C603 C 0.88941 0.69497 0.52302 0.0
H604 H 0.98594 0.66087 0.55026 0.0
C605 C 0.93341 0.71622 0.62831 0.0
C606 C 0.98576 0.74316 0.63346 0.0
C607 C 0.91602 0.69572 0.60443 0.0
C608 C 0.95875 0.67044 0.54296 0.0
H609 H 0.81956 0.66733 0.43766 0.0
H610 H 0.82772 0.64733 0.48078 0.0
H611 H 0.97002 0.65402 0.50534 0.0
H612 H 0.06053 0.76637 0.61846 0.0
H613 H 0.03071 0.73156 0.57732 0.0
H614 H 0.8799 0.71393 0.56022 0.0
C615 C 0.86153 0.66568 0.46922 0.0
C616 C 0.94971 0.66652 0.51721 0.0
C617 C 0.85679 0.6767 0.44448 0.0
C618 C 0.0199 0.74611 0.61499 0.0
C619 C 0.00269 0.72563 0.59137 0.0
C620 C 0.89869 0.69923 0.54867 0.0
C621 C 0.90967 0.68126 0.47938 0.0
C622 C 0.91564 0.67968 0.50689 0.0
C623 C 0.95072 0.70155 0.58545 0.0
C624 C 0.93441 0.68824 0.55894 0.0
H625 H 0.98145 0.73546 0.42714 0.0
H626 H 0.99015 0.71644 0.47076 0.0
H627 H 0.86349 0.70622 0.51569 0.0
H628 H 0.90633 0.71355 0.64219 0.0
H629 H 0.87562 0.67684 0.60058 0.0
C630 C 0.10946 0.89732 0.78438 0.0
C631 C 0.13986 0.91253 0.76277 0.0
C632 C 0.13121 0.90916 0.80801 0.0
C633 C 0.2507 0.94654 0.84238 0.0
H634 H 0.17559 0.96496 0.89577 0.0
C635 C 0.31028 0.01949 0.94576 0.0
C636 C 0.27467 0.98826 0.96387 0.0
C637 C 0.3018 0.00639 0.92048 0.0
C638 C 0.19669 0.95941 0.88106 0.0
H639 H 0.21755 0.95397 0.74925 0.0
H640 H 0.2561 0.97651 0.79102 0.0
H641 H 0.14687 0.95848 0.85297 0.0
H642 H 0.20445 0.91723 0.9701 0.0
H643 H 0.18893 0.89483 0.9258 0.0
H644 H 0.30196 0.95017 0.87104 0.0
C645 C 0.21507 0.95419 0.78944 0.0
C646 C 0.18027 0.9556 0.85647 0.0
C647 C 0.19303 0.94185 0.7655 0.0
C648 C 0.23297 0.9414 0.95657 0.0
C649 C 0.22385 0.92886 0.93123 0.0
C650 C 0.26784 0.95153 0.86711 0.0
C651 C 0.18428 0.9375 0.81103 0.0
C652 C 0.20616 0.94778 0.83678 0.0
C653 C 0.25703 0.96242 0.91296 0.0
C654 C 0.24019 0.95682 0.88666 0.0
H655 H 0.06833 0.87483 0.7832 0.0
H656 H 0.10599 0.89451 0.82395 0.0
H657 H 0.27151 0.9403 0.82779 0.0
H658 H 0.34227 0.05624 0.95095 0.0
H659 H 0.32766 0.03301 0.90672 0.0
loop_
_geom_bond_atom_site_label_1
_geom_bond_atom_site_label_2
_geom_bond_distance
_geom_bond_site_symmetry_2
_ccdc_geom_bond_type
Dy0 O4 2.398 1_545 S
Dy0 O5 2.491 . S
Dy0 O6 2.403 . S
Dy0 O7 2.664 1_554 S
Dy0 O11 2.326 . S
Dy0 O15 2.310 . S
Dy0 O16 2.351 1_544 S
C1 O12 1.185 . S
C1 O13 1.355 . S
C2 O4 1.185 . S
C2 O5 1.355 1_565 S
Dy3 O7 2.310 . S
Dy3 O10 2.351 1_556 S
Dy3 O12 2.398 . S
Dy3 O13 2.491 . S
Dy3 O14 2.403 . S
Dy3 O15 2.664 1_556 S
Dy3 O17 2.326 . S
O4 Dy0 2.398 1_565 S
O4 C2 1.185 . S
O5 Dy0 2.491 . S
O5 C2 1.355 1_545 S
O6 Dy0 2.403 . S
O6 C8 1.254 . S
O7 Dy0 2.664 1_556 S
O7 Dy3 2.310 . S
O7 C8 1.268 1_556 S
C8 O6 1.254 . S
C8 O7 1.268 1_554 S
C9 O14 1.227 1_554 S
C9 O15 1.283 . S
O10 Dy3 2.351 1_554 S
O10 C18 1.249 . S
O11 Dy0 2.326 . S
O11 C18 1.267 . S
O12 C1 1.185 . S
O12 Dy3 2.398 . S
O13 C1 1.355 . S
O13 Dy3 2.491 . S
O14 Dy3 2.403 . S
O14 C9 1.227 1_556 S
O15 Dy0 2.310 . S
O15 Dy3 2.664 1_554 S
O15 C9 1.283 . S
O16 Dy0 2.351 1_566 S
O16 C19 1.249 1_565 S
O17 Dy3 2.326 . S
O17 C19 1.267 . S
C18 O10 1.249 . S
C18 O11 1.267 . S
C19 O16 1.249 1_545 S
C19 O17 1.267 . S
Dy20 O24 2.398 . S
Dy20 O25 2.491 . S
Dy20 O26 2.403 . S
Dy20 O27 2.664 . S
Dy20 O31 2.326 . S
Dy20 O35 2.310 . S
Dy20 O36 2.351 . S
C21 O32 1.185 . S
C21 O33 1.355 . S
C22 O24 1.185 . S
C22 O25 1.355 . S
Dy23 O27 2.310 . S
Dy23 O30 2.351 . S
Dy23 O32 2.398 . S
Dy23 O33 2.491 . S
Dy23 O34 2.403 . S
Dy23 O35 2.664 . S
Dy23 O37 2.326 . S
O24 Dy20 2.398 . S
O24 C22 1.185 . S
O25 Dy20 2.491 . S
O25 C22 1.355 . S
O26 Dy20 2.403 . S
O26 C28 1.254 . S
O27 Dy20 2.664 . S
O27 Dy23 2.310 . S
O27 C28 1.268 . S
C28 O26 1.254 . S
C28 O27 1.268 . S
C29 O34 1.254 . S
C29 O35 1.268 . S
O30 Dy23 2.351 . S
O30 C38 1.249 . S
O31 Dy20 2.326 . S
O31 C38 1.267 . S
O32 C21 1.185 . S
O32 Dy23 2.398 . S
O33 C21 1.355 . S
O33 Dy23 2.491 . S
O34 Dy23 2.403 . S
O34 C29 1.254 . S
O35 Dy20 2.310 . S
O35 Dy23 2.664 . S
O35 C29 1.268 . S
O36 Dy20 2.351 . S
O36 C39 1.249 . S
O37 Dy23 2.326 . S
O37 C39 1.267 . S
C38 O30 1.249 . S
C38 O31 1.267 . S
C39 O36 1.249 . S
C39 O37 1.267 . S
Dy40 O44 2.398 . S
Dy40 O45 2.491 . S
Dy40 O46 2.403 . S
Dy40 O47 2.664 1_455 S
Dy40 O51 2.326 1_455 S
Dy40 O55 2.310 . S
Dy40 O56 2.351 . S
C41 O52 1.185 . S
C41 O53 1.355 . S
C42 O44 1.185 . S
C42 O45 1.355 . S
Dy43 O47 2.310 . S
Dy43 O50 2.351 . S
Dy43 O52 2.398 . S
Dy43 O53 2.491 . S
Dy43 O54 2.403 . S
Dy43 O55 2.664 1_655 S
Dy43 O57 2.326 1_655 S
O44 Dy40 2.398 . S
O44 C42 1.185 . S
O45 Dy40 2.491 . S
O45 C42 1.355 . S
O46 Dy40 2.403 . S
O46 C48 1.254 . S
O47 Dy40 2.664 1_655 S
O47 Dy43 2.310 . S
O47 C48 1.268 1_655 S
C48 O46 1.254 . S
C48 O47 1.268 1_455 S
C49 O54 1.254 . S
C49 O55 1.268 1_655 S
O50 Dy43 2.351 . S
O50 C58 1.249 . S
O51 Dy40 2.326 1_655 S
O51 C58 1.267 . S
O52 C41 1.185 . S
O52 Dy43 2.398 . S
O53 C41 1.355 . S
O53 Dy43 2.491 . S
O54 Dy43 2.403 . S
O54 C49 1.254 . S
O55 Dy40 2.310 . S
O55 Dy43 2.664 1_455 S
O55 C49 1.268 1_455 S
O56 Dy40 2.351 . S
O56 C59 1.249 . S
O57 Dy43 2.326 1_455 S
O57 C59 1.267 . S
C58 O50 1.249 . S
C58 O51 1.267 . S
C59 O56 1.249 . S
C59 O57 1.267 . S
Dy60 O64 2.398 . S
Dy60 O65 2.491 . S
Dy60 O66 2.403 . S
Dy60 O67 2.664 1_544 S
Dy60 O71 2.326 1_545 S
Dy60 O75 2.310 . S
Dy60 O76 2.351 1_554 S
C61 O72 1.185 . S
C61 O73 1.355 . S
C62 O64 1.185 . S
C62 O65 1.355 . S
Dy63 O67 2.310 . S
Dy63 O70 2.351 1_556 S
Dy63 O72 2.398 . S
Dy63 O73 2.491 . S
Dy63 O74 2.403 . S
Dy63 O75 2.664 1_566 S
Dy63 O77 2.326 1_565 S
O64 Dy60 2.398 . S
O64 C62 1.185 . S
O65 Dy60 2.491 . S
O65 C62 1.355 . S
O66 Dy60 2.403 . S
O66 C68 1.254 . S
O67 Dy60 2.664 1_566 S
O67 Dy63 2.310 . S
O67 C68 1.268 1_566 S
C68 O66 1.254 . S
C68 O67 1.268 1_544 S
C69 O74 1.227 1_554 S
C69 O75 1.283 1_565 S
O70 Dy63 2.351 1_554 S
O70 C78 1.249 . S
O71 Dy60 2.326 1_565 S
O71 C78 1.267 . S
O72 C61 1.185 . S
O72 Dy63 2.398 . S
O73 C61 1.355 . S
O73 Dy63 2.491 . S
O74 Dy63 2.403 . S
O74 C69 1.227 1_556 S
O75 Dy60 2.310 . S
O75 Dy63 2.664 1_544 S
O75 C69 1.283 1_545 S
O76 Dy60 2.351 1_556 S
O76 C79 1.249 . S
O77 Dy63 2.326 1_545 S
O77 C79 1.267 . S
C78 O70 1.249 . S
C78 O71 1.267 . S
C79 O76 1.249 . S
C79 O77 1.267 . S
Dy80 O84 2.398 . S
Dy80 O85 2.491 . S
Dy80 O86 2.403 . S
Dy80 O87 2.664 . S
Dy80 O91 2.326 . S
Dy80 O95 2.310 . S
Dy80 O96 2.351 . S
C81 O92 1.185 . S
C81 O93 1.355 . S
C82 O84 1.185 . S
C82 O85 1.355 . S
Dy83 O87 2.310 . S
Dy83 O90 2.351 . S
Dy83 O92 2.398 . S
Dy83 O93 2.491 . S
Dy83 O94 2.403 . S
Dy83 O95 2.664 . S
Dy83 O97 2.326 . S
O84 Dy80 2.398 . S
O84 C82 1.185 . S
O85 Dy80 2.491 . S
O85 C82 1.355 . S
O86 Dy80 2.403 . S
O86 C88 1.254 . S
O87 Dy80 2.664 . S
O87 Dy83 2.310 . S
O87 C88 1.268 . S
C88 O86 1.254 . S
C88 O87 1.268 . S
C89 O94 1.254 . S
C89 O95 1.268 . S
O90 Dy83 2.351 . S
O90 C98 1.249 . S
O91 Dy80 2.326 . S
O91 C98 1.267 . S
O92 C81 1.185 . S
O92 Dy83 2.398 . S
O93 C81 1.355 . S
O93 Dy83 2.491 . S
O94 Dy83 2.403 . S
O94 C89 1.254 . S
O95 Dy80 2.310 . S
O95 Dy83 2.664 . S
O95 C89 1.268 . S
O96 Dy80 2.351 . S
O96 C99 1.249 . S
O97 Dy83 2.326 . S
O97 C99 1.267 . S
C98 O90 1.249 . S
C98 O91 1.267 . S
C99 O96 1.249 . S
C99 O97 1.267 . S
Dy100 O104 2.398 1_455 S
Dy100 O105 2.491 . S
Dy100 O106 2.403 . S
Dy100 O107 2.664 . S
Dy100 O111 2.326 . S
Dy100 O115 2.310 . S
Dy100 O116 2.351 1_455 S
C101 O112 1.185 . S
C101 O113 1.355 . S
C102 O104 1.185 . S
C102 O105 1.355 1_655 S
Dy103 O107 2.310 . S
Dy103 O110 2.351 . S
Dy103 O112 2.398 . S
Dy103 O113 2.491 . S
Dy103 O114 2.403 . S
Dy103 O115 2.664 . S
Dy103 O117 2.326 . S
O104 Dy100 2.398 1_655 S
O104 C102 1.185 . S
O105 Dy100 2.491 . S
O105 C102 1.355 1_455 S
O106 Dy100 2.403 . S
O106 C108 1.254 . S
O107 Dy100 2.664 . S
O107 Dy103 2.310 . S
O107 C108 1.268 . S
C108 O106 1.254 . S
C108 O107 1.268 . S
C109 O114 1.254 . S
C109 O115 1.268 . S
O110 Dy103 2.351 . S
O110 C118 1.249 . S
O111 Dy100 2.326 . S
O111 C118 1.267 . S
O112 C101 1.185 . S
O112 Dy103 2.398 . S
O113 C101 1.355 . S
O113 Dy103 2.491 . S
O114 Dy103 2.403 . S
O114 C109 1.254 . S
O115 Dy100 2.310 . S
O115 Dy103 2.664 . S
O115 C109 1.268 . S
O116 Dy100 2.351 1_655 S
O116 C119 1.249 1_655 S
O117 Dy103 2.326 . S
O117 C119 1.267 . S
C118 O110 1.249 . S
C118 O111 1.267 . S
C119 O116 1.249 1_455 S
C119 O117 1.267 . S
C120 C121 1.349 1_545 S
C120 C122 1.327 . S
C120 H145 0.950 . S
C121 C120 1.349 1_565 S
C121 C137 1.349 1_556 S
C122 C120 1.327 . S
C122 C141 1.429 . S
C122 H146 0.950 . S
C123 C140 1.594 . S
C123 C142 1.357 1_454 S
C123 H147 0.941 1_445 S
H124 C128 0.949 . S
C125 C126 1.349 1_554 S
C125 C127 1.327 . S
C125 H148 0.950 . S
C126 C125 1.349 1_556 S
C126 C138 1.349 . S
C127 C125 1.327 . S
C127 C143 1.429 1_554 S
C127 H149 0.950 . S
C128 H124 0.949 . S
C128 C136 1.574 . S
C128 C144 1.368 . S
H129 C137 0.950 . S
H130 C135 0.950 . S
H131 C136 0.944 1_655 S
H132 C138 0.950 . S
H133 C139 0.950 . S
H134 C140 0.949 . S
C135 H130 0.950 . S
C135 C137 1.327 . S
C135 C141 1.429 1_564 S
C136 C128 1.574 . S
C136 H131 0.944 1_455 S
C136 C142 1.368 1_455 S
C137 C121 1.349 1_554 S
C137 H129 0.950 . S
C137 C135 1.327 . S
C138 C126 1.349 . S
C138 H132 0.950 . S
C138 C139 1.327 . S
C139 H133 0.950 . S
C139 C138 1.327 . S
C139 C143 1.429 . S
C140 C123 1.594 . S
C140 H134 0.949 . S
C140 C144 1.368 1_554 S
C141 C122 1.429 . S
C141 C135 1.429 1_546 S
C141 C142 1.523 . S
C142 C123 1.357 1_656 S
C142 C136 1.368 1_655 S
C142 C141 1.523 . S
C143 C127 1.429 1_556 S
C143 C139 1.429 . S
C143 C144 1.523 . S
C144 C128 1.368 . S
C144 C140 1.368 1_556 S
C144 C143 1.523 . S
H145 C120 0.950 . S
H146 C122 0.950 . S
H147 C123 0.941 1_665 S
H148 C125 0.950 . S
H149 C127 0.950 . S
C150 C151 1.349 . S
C150 C152 1.327 . S
C150 H175 0.950 . S
C151 C150 1.349 . S
C151 C167 1.349 . S
C152 C150 1.327 . S
C152 C171 1.429 . S
C152 H176 0.950 . S
C153 C170 1.574 . S
C153 C172 1.368 1_545 S
C153 H177 0.949 1_545 S
H154 C158 0.949 . S
C155 C156 1.349 . S
C155 C157 1.327 . S
C155 H178 0.950 . S
C156 C155 1.349 . S
C156 C168 1.349 . S
C157 C155 1.327 . S
C157 C173 1.429 . S
C157 H179 0.950 . S
C158 H154 0.949 . S
C158 C166 1.574 1_455 S
C158 C174 1.368 . S
H159 C167 0.950 . S
H160 C165 0.950 . S
H161 C166 0.949 1_565 S
H162 C168 0.950 . S
H163 C169 0.950 . S
H164 C170 0.949 . S
C165 H160 0.950 . S
C165 C167 1.327 . S
C165 C171 1.429 . S
C166 C158 1.574 1_655 S
C166 H161 0.949 1_545 S
C166 C172 1.368 1_645 S
C167 C151 1.349 . S
C167 H159 0.950 . S
C167 C165 1.327 . S
C168 C156 1.349 . S
C168 H162 0.950 . S
C168 C169 1.327 . S
C169 H163 0.950 . S
C169 C168 1.327 . S
C169 C173 1.429 . S
C170 C153 1.574 . S
C170 H164 0.949 . S
C170 C174 1.368 . S
C171 C152 1.429 . S
C171 C165 1.429 . S
C171 C172 1.523 1_655 S
C172 C153 1.368 1_565 S
C172 C166 1.368 1_465 S
C172 C171 1.523 1_455 S
C173 C157 1.429 . S
C173 C169 1.429 . S
C173 C174 1.523 . S
C174 C158 1.368 . S
C174 C170 1.368 . S
C174 C173 1.523 . S
H175 C150 0.950 . S
H176 C152 0.950 . S
H177 C153 0.949 1_565 S
H178 C155 0.950 . S
H179 C157 0.950 . S
C180 C181 1.349 . S
C180 C182 1.327 . S
C180 H205 0.950 . S
C181 C180 1.349 . S
C181 C197 1.349 . S
C182 C180 1.327 . S
C182 C201 1.429 . S
C182 H206 0.950 . S
C183 C200 1.574 1_565 S
C183 C202 1.368 1_565 S
C183 H207 0.949 . S
H184 C188 0.949 . S
C185 C186 1.349 . S
C185 C187 1.327 . S
C185 H208 0.950 . S
C186 C185 1.349 . S
C186 C198 1.349 1_655 S
C187 C185 1.327 . S
C187 C203 1.429 1_655 S
C187 H209 0.950 . S
C188 H184 0.949 . S
C188 C196 1.574 . S
C188 C204 1.368 . S
H189 C197 0.950 . S
H190 C195 0.950 . S
H191 C196 0.949 . S
H192 C198 0.950 . S
H193 C199 0.950 . S
H194 C200 0.949 1_655 S
C195 H190 0.950 . S
C195 C197 1.327 . S
C195 C201 1.429 . S
C196 C188 1.574 . S
C196 H191 0.949 . S
C196 C202 1.368 . S
C197 C181 1.349 . S
C197 H189 0.950 . S
C197 C195 1.327 . S
C198 C186 1.349 1_455 S
C198 H192 0.950 . S
C198 C199 1.327 . S
C199 H193 0.950 . S
C199 C198 1.327 . S
C199 C203 1.429 . S
C200 C183 1.574 1_545 S
C200 H194 0.949 1_455 S
C200 C204 1.368 . S
C201 C182 1.429 . S
C201 C195 1.429 . S
C201 C202 1.523 1_565 S
C202 C183 1.368 1_545 S
C202 C196 1.368 . S
C202 C201 1.523 1_545 S
C203 C187 1.429 1_455 S
C203 C199 1.429 . S
C203 C204 1.523 . S
C204 C188 1.368 . S
C204 C200 1.368 . S
C204 C203 1.523 . S
H205 C180 0.950 . S
H206 C182 0.950 . S
H207 C183 0.949 . S
H208 C185 0.950 . S
H209 C187 0.950 . S
C210 C211 1.349 . S
C210 C212 1.327 . S
C210 H235 0.950 . S
C211 C210 1.349 . S
C211 C227 1.349 . S
C212 C210 1.327 . S
C212 C231 1.429 . S
C212 H236 0.950 . S
C213 C230 1.574 . S
C213 C232 1.368 . S
C213 H237 0.949 . S
H214 C218 0.949 . S
C215 C216 1.349 . S
C215 C217 1.327 . S
C215 H238 0.950 . S
C216 C215 1.349 . S
C216 C228 1.349 . S
C217 C215 1.327 . S
C217 C233 1.429 . S
C217 H239 0.950 . S
C218 H214 0.949 . S
C218 C226 1.574 . S
C218 C234 1.368 . S
H219 C227 0.950 . S
H220 C225 0.950 . S
H221 C226 0.949 . S
H222 C228 0.950 . S
H223 C229 0.950 . S
H224 C230 0.949 . S
C225 H220 0.950 . S
C225 C227 1.327 . S
C225 C231 1.429 . S
C226 C218 1.574 . S
C226 H221 0.949 . S
C226 C232 1.368 . S
C227 C211 1.349 . S
C227 H219 0.950 . S
C227 C225 1.327 . S
C228 C216 1.349 . S
C228 H222 0.950 . S
C228 C229 1.327 . S
C229 H223 0.950 . S
C229 C228 1.327 . S
C229 C233 1.429 . S
C230 C213 1.574 . S
C230 H224 0.949 . S
C230 C234 1.368 . S
C231 C212 1.429 . S
C231 C225 1.429 . S
C231 C232 1.523 . S
C232 C213 1.368 . S
C232 C226 1.368 . S
C232 C231 1.523 . S
C233 C217 1.429 . S
C233 C229 1.429 . S
C233 C234 1.523 . S
C234 C218 1.368 . S
C234 C230 1.368 . S
C234 C233 1.523 . S
H235 C210 0.950 . S
H236 C212 0.950 . S
H237 C213 0.949 . S
H238 C215 0.950 . S
H239 C217 0.950 . S
C240 C241 1.349 . S
C240 C242 1.327 . S
C240 H265 0.950 . S
C241 C240 1.349 . S
C241 C257 1.349 . S
C242 C240 1.327 . S
C242 C261 1.429 . S
C242 H266 0.950 . S
C243 C260 1.574 . S
C243 C262 1.368 1_655 S
C243 H267 0.949 . S
H244 C248 0.949 . S
C245 C246 1.349 . S
C245 C247 1.327 . S
C245 H268 0.950 . S
C246 C245 1.349 . S
C246 C258 1.349 . S
C247 C245 1.327 . S
C247 C263 1.429 . S
C247 H269 0.950 . S
C248 H244 0.949 . S
C248 C256 1.574 . S
C248 C264 1.368 1_455 S
H249 C257 0.950 . S
H250 C255 0.950 . S
H251 C256 0.949 . S
H252 C258 0.950 . S
H253 C259 0.950 . S
H254 C260 0.949 . S
C255 H250 0.950 . S
C255 C257 1.327 . S
C255 C261 1.429 . S
C256 C248 1.574 . S
C256 H251 0.949 . S
C256 C262 1.368 . S
C257 C241 1.349 . S
C257 H249 0.950 . S
C257 C255 1.327 . S
C258 C246 1.349 . S
C258 H252 0.950 . S
C258 C259 1.327 . S
C259 H253 0.950 . S
C259 C258 1.327 . S
C259 C263 1.429 . S
C260 C243 1.574 . S
C260 H254 0.949 . S
C260 C264 1.368 . S
C261 C242 1.429 . S
C261 C255 1.429 . S
C261 C262 1.523 . S
C262 C243 1.368 1_455 S
C262 C256 1.368 . S
C262 C261 1.523 . S
C263 C247 1.429 . S
C263 C259 1.429 . S
C263 C264 1.523 . S
C264 C248 1.368 1_655 S
C264 C260 1.368 . S
C264 C263 1.523 . S
H265 C240 0.950 . S
H266 C242 0.950 . S
H267 C243 0.949 . S
H268 C245 0.950 . S
H269 C247 0.950 . S
C270 C271 1.349 . S
C270 C272 1.327 . S
C270 H295 0.950 . S
C271 C270 1.349 . S
C271 C287 1.349 . S
C272 C270 1.327 . S
C272 C291 1.429 . S
C272 H296 0.950 . S
C273 C290 1.579 . S
C273 C292 1.365 1_565 S
C273 H297 0.947 . S
H274 C278 0.949 . S
C275 C276 1.349 . S
C275 C277 1.327 . S
C275 H298 0.950 . S
C276 C275 1.349 . S
C276 C288 1.349 . S
C277 C275 1.327 . S
C277 C293 1.429 . S
C277 H299 0.950 . S
C278 H274 0.949 . S
C278 C286 1.574 . S
C278 C294 1.368 1_545 S
H279 C287 0.950 . S
H280 C285 0.950 . S
H281 C286 0.949 . S
H282 C288 0.950 . S
H283 C289 0.950 . S
H284 C290 0.949 . S
C285 H280 0.950 . S
C285 C287 1.327 . S
C285 C291 1.429 . S
C286 C278 1.574 . S
C286 H281 0.949 . S
C286 C292 1.368 . S
C287 C271 1.349 . S
C287 H279 0.950 . S
C287 C285 1.327 . S
C288 C276 1.349 . S
C288 H282 0.950 . S
C288 C289 1.327 . S
C289 H283 0.950 . S
C289 C288 1.327 . S
C289 C293 1.429 . S
C290 C273 1.579 . S
C290 H284 0.949 . S
C290 C294 1.368 . S
C291 C272 1.429 . S
C291 C285 1.429 . S
C291 C292 1.523 . S
C292 C273 1.365 1_545 S
C292 C286 1.368 . S
C292 C291 1.523 . S
C293 C277 1.429 . S
C293 C289 1.429 . S
C293 C294 1.523 . S
C294 C278 1.368 1_565 S
C294 C290 1.368 . S
C294 C293 1.523 . S
H295 C270 0.950 . S
H296 C272 0.950 . S
H297 C273 0.947 . S
H298 C275 0.950 . S
H299 C277 0.950 . S
C300 C301 1.349 . S
C300 C302 1.327 . S
C300 H325 0.950 . S
C301 C300 1.349 . S
C301 C317 1.349 . S
C302 C300 1.327 . S
C302 C321 1.429 . S
C302 H326 0.950 . S
C303 C320 1.574 . S
C303 C322 1.368 . S
C303 H327 0.949 . S
H304 C308 0.949 . S
C305 C306 1.349 . S
C305 C307 1.327 . S
C305 H328 0.950 1_655 S
C306 C305 1.349 . S
C306 C318 1.349 . S
C307 C305 1.327 . S
C307 C323 1.429 . S
C307 H329 0.950 . S
C308 H304 0.949 . S
C308 C316 1.574 . S
C308 C324 1.368 . S
H309 C317 0.950 . S
H310 C315 0.950 . S
H311 C316 0.949 . S
H312 C318 0.950 . S
H313 C319 0.950 . S
H314 C320 0.949 . S
C315 H310 0.950 . S
C315 C317 1.327 . S
C315 C321 1.429 . S
C316 C308 1.574 . S
C316 H311 0.949 . S
C316 C322 1.368 . S
C317 C301 1.349 . S
C317 H309 0.950 . S
C317 C315 1.327 . S
C318 C306 1.349 . S
C318 H312 0.950 . S
C318 C319 1.327 . S
C319 H313 0.950 . S
C319 C318 1.327 . S
C319 C323 1.429 . S
C320 C303 1.574 . S
C320 H314 0.949 . S
C320 C324 1.368 . S
C321 C302 1.429 . S
C321 C315 1.429 . S
C321 C322 1.523 . S
C322 C303 1.368 . S
C322 C316 1.368 . S
C322 C321 1.523 . S
C323 C307 1.429 . S
C323 C319 1.429 . S
C323 C324 1.523 . S
C324 C308 1.368 . S
C324 C320 1.368 . S
C324 C323 1.523 . S
H325 C300 0.950 . S
H326 C302 0.950 . S
H327 C303 0.949 . S
H328 C305 0.950 1_455 S
H329 C307 0.950 . S
C330 C331 1.349 . S
C330 C332 1.327 1_655 S
C330 H355 0.950 . S
C331 C330 1.349 . S
C331 C347 1.349 . S
C332 C330 1.327 1_455 S
C332 C351 1.429 1_455 S
C332 H356 0.950 . S
C333 C350 1.574 . S
C333 C352 1.368 . S
C333 H357 0.949 1_455 S
H334 C338 0.949 . S
C335 C336 1.349 . S
C335 C337 1.327 . S
C335 H358 0.950 . S
C336 C335 1.349 . S
C336 C348 1.349 . S
C337 C335 1.327 . S
C337 C353 1.429 . S
C337 H359 0.950 . S
C338 H334 0.949 . S
C338 C346 1.574 . S
C338 C354 1.368 . S
H339 C347 0.950 . S
H340 C345 0.950 . S
H341 C346 0.949 . S
H342 C348 0.945 1_545 S
H343 C349 0.950 . S
H344 C350 0.949 . S
C345 H340 0.950 . S
C345 C347 1.327 . S
C345 C351 1.429 . S
C346 C338 1.574 . S
C346 H341 0.949 . S
C346 C352 1.368 . S
C347 C331 1.349 . S
C347 H339 0.950 . S
C347 C345 1.327 . S
C348 C336 1.349 . S
C348 H342 0.945 1_565 S
C348 C349 1.327 . S
C349 H343 0.950 . S
C349 C348 1.327 . S
C349 C353 1.429 . S
C350 C333 1.574 . S
C350 H344 0.949 . S
C350 C354 1.368 . S
C351 C332 1.429 1_655 S
C351 C345 1.429 . S
C351 C352 1.523 1_655 S
C352 C333 1.368 . S
C352 C346 1.368 . S
C352 C351 1.523 1_455 S
C353 C337 1.429 . S
C353 C349 1.429 . S
C353 C354 1.523 . S
C354 C338 1.368 . S
C354 C350 1.368 . S
C354 C353 1.523 . S
H355 C330 0.950 . S
H356 C332 0.950 . S
H357 C333 0.949 1_655 S
H358 C335 0.950 . S
H359 C337 0.950 . S
C360 C361 1.349 . S
C360 C362 1.327 . S
C360 H385 0.950 . S
C361 C360 1.349 . S
C361 C377 1.349 . S
C362 C360 1.327 . S
C362 C381 1.429 . S
C362 H386 0.950 . S
C363 C380 1.574 . S
C363 C382 1.368 . S
C363 H387 0.949 . S
H364 C368 0.949 . S
C365 C366 1.349 . S
C365 C367 1.327 . S
C365 H388 0.950 . S
C366 C365 1.349 . S
C366 C378 1.349 . S
C367 C365 1.327 . S
C367 C383 1.429 . S
C367 H389 0.950 . S
C368 H364 0.949 . S
C368 C376 1.574 . S
C368 C384 1.368 . S
H369 C377 0.950 . S
H370 C375 0.950 . S
H371 C376 0.949 1_565 S
H372 C378 0.950 . S
H373 C379 0.950 . S
H374 C380 0.949 . S
C375 H370 0.950 . S
C375 C377 1.327 1_545 S
C375 C381 1.429 1_545 S
C376 C368 1.574 . S
C376 H371 0.949 1_545 S
C376 C382 1.368 . S
C377 C361 1.349 . S
C377 H369 0.950 . S
C377 C375 1.327 1_565 S
C378 C366 1.349 . S
C378 H372 0.950 . S
C378 C379 1.327 . S
C379 H373 0.950 . S
C379 C378 1.327 . S
C379 C383 1.429 . S
C380 C363 1.574 . S
C380 H374 0.949 . S
C380 C384 1.368 . S
C381 C362 1.429 . S
C381 C375 1.429 1_565 S
C381 C382 1.523 1_565 S
C382 C363 1.368 . S
C382 C376 1.368 . S
C382 C381 1.523 1_545 S
C383 C367 1.429 . S
C383 C379 1.429 . S
C383 C384 1.523 . S
C384 C368 1.368 . S
C384 C380 1.368 . S
C384 C383 1.523 . S
H385 C360 0.950 . S
H386 C362 0.950 . S
H387 C363 0.949 . S
H388 C365 0.950 . S
H389 C367 0.950 . S
C390 C391 1.349 1_556 S
C390 C392 1.327 . S
C390 H415 0.950 . S
C391 C390 1.349 1_554 S
C391 C407 1.349 . S
C392 C390 1.327 . S
C392 C411 1.429 1_556 S
C392 H416 0.950 . S
C393 C410 1.574 . S
C393 C412 1.368 . S
C393 H417 0.949 . S
H394 C398 0.949 . S
C395 C396 1.349 . S
C395 C397 1.327 . S
C395 H418 0.950 . S
C396 C395 1.349 . S
C396 C408 1.349 1_564 S
C397 C395 1.327 . S
C397 C413 1.429 1_565 S
C397 H419 0.950 . S
C398 H394 0.949 . S
C398 C406 1.574 . S
C398 C414 1.368 1_556 S
H399 C407 0.950 . S
H400 C405 0.950 . S
H401 C406 0.949 . S
H402 C408 0.950 . S
H403 C409 0.950 . S
H404 C410 0.949 1_565 S
C405 H400 0.950 . S
C405 C407 1.327 . S
C405 C411 1.429 . S
C406 C398 1.574 . S
C406 H401 0.949 . S
C406 C412 1.368 1_556 S
C407 C391 1.349 . S
C407 H399 0.950 . S
C407 C405 1.327 . S
C408 C396 1.349 1_546 S
C408 H402 0.950 . S
C408 C409 1.327 . S
C409 H403 0.950 . S
C409 C408 1.327 . S
C409 C413 1.429 1_556 S
C410 C393 1.574 . S
C410 H404 0.949 1_545 S
C410 C414 1.368 . S
C411 C392 1.429 1_554 S
C411 C405 1.429 . S
C411 C412 1.523 . S
C412 C393 1.368 . S
C412 C406 1.368 1_554 S
C412 C411 1.523 . S
C413 C397 1.429 1_545 S
C413 C409 1.429 1_554 S
C413 C414 1.523 . S
C414 C398 1.368 1_554 S
C414 C410 1.368 . S
C414 C413 1.523 . S
H415 C390 0.950 . S
H416 C392 0.950 . S
H417 C393 0.949 . S
H418 C395 0.950 . S
H419 C397 0.950 . S
C420 C421 1.349 . S
C420 C422 1.327 . S
C420 H445 0.950 . S
C421 C420 1.349 . S
C421 C437 1.349 . S
C422 C420 1.327 . S
C422 C441 1.429 . S
C422 H446 0.950 . S
C423 C440 1.574 . S
C423 C442 1.368 . S
C423 H447 0.949 . S
H424 C428 0.949 . S
C425 C426 1.349 . S
C425 C427 1.327 . S
C425 H448 0.950 . S
C426 C425 1.349 . S
C426 C438 1.349 . S
C427 C425 1.327 . S
C427 C443 1.429 . S
C427 H449 0.950 . S
C428 H424 0.949 . S
C428 C436 1.574 . S
C428 C444 1.368 . S
H429 C437 0.950 . S
H430 C435 0.950 . S
H431 C436 0.949 . S
H432 C438 0.950 . S
H433 C439 0.950 . S
H434 C440 0.949 . S
C435 H430 0.950 . S
C435 C437 1.327 . S
C435 C441 1.429 . S
C436 C428 1.574 . S
C436 H431 0.949 . S
C436 C442 1.368 . S
C437 C421 1.349 . S
C437 H429 0.950 . S
C437 C435 1.327 . S
C438 C426 1.349 . S
C438 H432 0.950 . S
C438 C439 1.327 . S
C439 H433 0.950 . S
C439 C438 1.327 . S
C439 C443 1.429 . S
C440 C423 1.574 . S
C440 H434 0.949 . S
C440 C444 1.368 . S
C441 C422 1.429 . S
C441 C435 1.429 . S
C441 C442 1.523 . S
C442 C423 1.368 . S
C442 C436 1.368 . S
C442 C441 1.523 . S
C443 C427 1.429 . S
C443 C439 1.429 . S
C443 C444 1.523 . S
C444 C428 1.368 . S
C444 C440 1.368 . S
C444 C443 1.523 . S
H445 C420 0.950 . S
H446 C422 0.950 . S
H447 C423 0.949 . S
H448 C425 0.950 . S
H449 C427 0.950 . S
C450 C451 1.349 1_455 S
C450 C452 1.327 . S
C450 H475 0.950 . S
C451 C450 1.349 1_655 S
C451 C467 1.349 . S
C452 C450 1.327 . S
C452 C471 1.429 . S
C452 H476 0.950 . S
C453 C470 1.574 . S
C453 C472 1.368 . S
C453 H477 0.949 1_455 S
H454 C458 0.949 . S
C455 C456 1.349 . S
C455 C457 1.327 . S
C455 H478 0.950 . S
C456 C455 1.349 . S
C456 C468 1.349 . S
C457 C455 1.327 . S
C457 C473 1.429 . S
C457 H479 0.950 . S
C458 H454 0.949 . S
C458 C466 1.574 . S
C458 C474 1.368 . S
H459 C467 0.950 . S
H460 C465 0.950 . S
H461 C466 0.949 . S
H462 C468 0.950 . S
H463 C469 0.950 . S
H464 C470 0.949 . S
C465 H460 0.950 . S
C465 C467 1.327 . S
C465 C471 1.429 1_655 S
C466 C458 1.574 . S
C466 H461 0.949 . S
C466 C472 1.368 . S
C467 C451 1.349 . S
C467 H459 0.950 . S
C467 C465 1.327 . S
C468 C456 1.349 . S
C468 H462 0.950 . S
C468 C469 1.327 . S
C469 H463 0.950 . S
C469 C468 1.327 . S
C469 C473 1.429 . S
C470 C453 1.574 . S
C470 H464 0.949 . S
C470 C474 1.368 . S
C471 C452 1.429 . S
C471 C465 1.429 1_455 S
C471 C472 1.523 . S
C472 C453 1.368 . S
C472 C466 1.368 . S
C472 C471 1.523 . S
C473 C457 1.429 . S
C473 C469 1.429 . S
C473 C474 1.523 . S
C474 C458 1.368 . S
C474 C470 1.368 . S
C474 C473 1.523 . S
H475 C450 0.950 . S
H476 C452 0.950 . S
H477 C453 0.949 1_655 S
H478 C455 0.950 . S
H479 C457 0.950 . S
C480 C481 1.349 . S
C480 C482 1.327 . S
C480 H505 0.950 . S
C481 C480 1.349 . S
C481 C497 1.349 . S
C482 C480 1.327 . S
C482 C501 1.429 . S
C482 H506 0.950 . S
C483 C500 1.574 . S
C483 C502 1.368 . S
C483 H507 0.949 . S
H484 C488 0.949 . S
C485 C486 1.349 . S
C485 C487 1.327 . S
C485 H508 0.950 . S
C486 C485 1.349 . S
C486 C498 1.349 . S
C487 C485 1.327 . S
C487 C503 1.429 . S
C487 H509 0.950 . S
C488 H484 0.949 . S
C488 C496 1.574 . S
C488 C504 1.368 . S
H489 C497 0.950 . S
H490 C495 0.950 . S
H491 C496 0.949 . S
H492 C498 0.950 . S
H493 C499 0.950 . S
H494 C500 0.949 . S
C495 H490 0.950 . S
C495 C497 1.327 . S
C495 C501 1.429 . S
C496 C488 1.574 . S
C496 H491 0.949 . S
C496 C502 1.368 . S
C497 C481 1.349 . S
C497 H489 0.950 . S
C497 C495 1.327 . S
C498 C486 1.349 . S
C498 H492 0.950 . S
C498 C499 1.327 . S
C499 H493 0.950 . S
C499 C498 1.327 . S
C499 C503 1.429 . S
C500 C483 1.574 . S
C500 H494 0.949 . S
C500 C504 1.368 . S
C501 C482 1.429 . S
C501 C495 1.429 . S
C501 C502 1.523 . S
C502 C483 1.368 . S
C502 C496 1.368 . S
C502 C501 1.523 . S
C503 C487 1.429 . S
C503 C499 1.429 . S
C503 C504 1.523 . S
C504 C488 1.368 . S
C504 C500 1.368 . S
C504 C503 1.523 . S
H505 C480 0.950 . S
H506 C482 0.950 . S
H507 C483 0.949 . S
H508 C485 0.950 . S
H509 C487 0.950 . S
C510 C511 1.349 . S
C510 C512 1.327 . S
C510 H535 0.950 . S
C511 C510 1.349 . S
C511 C527 1.349 . S
C512 C510 1.327 . S
C512 C531 1.429 . S
C512 H536 0.950 . S
C513 C530 1.574 . S
C513 C532 1.368 . S
C513 H537 0.949 . S
H514 C518 0.949 . S
C515 C516 1.349 . S
C515 C517 1.327 . S
C515 H538 0.950 . S
C516 C515 1.349 . S
C516 C528 1.349 . S
C517 C515 1.327 . S
C517 C533 1.429 . S
C517 H539 0.950 . S
C518 H514 0.949 . S
C518 C526 1.574 . S
C518 C534 1.368 . S
H519 C527 0.950 . S
H520 C525 0.950 . S
H521 C526 0.949 . S
H522 C528 0.950 . S
H523 C529 0.950 . S
H524 C530 0.949 . S
C525 H520 0.950 . S
C525 C527 1.327 . S
C525 C531 1.429 . S
C526 C518 1.574 . S
C526 H521 0.949 . S
C526 C532 1.368 . S
C527 C511 1.349 . S
C527 H519 0.950 . S
C527 C525 1.327 . S
C528 C516 1.349 . S
C528 H522 0.950 . S
C528 C529 1.327 . S
C529 H523 0.950 . S
C529 C528 1.327 . S
C529 C533 1.429 . S
C530 C513 1.574 . S
C530 H524 0.949 . S
C530 C534 1.368 . S
C531 C512 1.429 . S
C531 C525 1.429 . S
C531 C532 1.523 . S
C532 C513 1.368 . S
C532 C526 1.368 . S
C532 C531 1.523 . S
C533 C517 1.429 . S
C533 C529 1.429 . S
C533 C534 1.523 . S
C534 C518 1.368 . S
C534 C530 1.368 . S
C534 C533 1.523 . S
H535 C510 0.950 . S
H536 C512 0.950 . S
H537 C513 0.949 . S
H538 C515 0.950 . S
H539 C517 0.950 . S
C540 C541 1.349 . S
C540 C542 1.327 . S
C540 H565 0.950 . S
C541 C540 1.349 . S
C541 C557 1.349 . S
C542 C540 1.327 . S
C542 C561 1.429 . S
C542 H566 0.950 . S
C543 C560 1.574 . S
C543 C562 1.368 . S
C543 H567 0.949 . S
H544 C548 0.949 . S
C545 C546 1.349 . S
C545 C547 1.327 . S
C545 H568 0.950 . S
C546 C545 1.349 . S
C546 C558 1.349 . S
C547 C545 1.327 . S
C547 C563 1.429 . S
C547 H569 0.950 . S
C548 H544 0.949 . S
C548 C556 1.574 . S
C548 C564 1.368 . S
H549 C557 0.950 . S
H550 C555 0.950 . S
H551 C556 0.949 . S
H552 C558 0.950 . S
H553 C559 0.950 . S
H554 C560 0.949 . S
C555 H550 0.950 . S
C555 C557 1.327 . S
C555 C561 1.429 . S
C556 C548 1.574 . S
C556 H551 0.949 . S
C556 C562 1.368 . S
C557 C541 1.349 . S
C557 H549 0.950 . S
C557 C555 1.327 . S
C558 C546 1.349 . S
C558 H552 0.950 . S
C558 C559 1.327 . S
C559 H553 0.950 . S
C559 C558 1.327 . S
C559 C563 1.429 . S
C560 C543 1.574 . S
C560 H554 0.949 . S
C560 C564 1.368 . S
C561 C542 1.429 . S
C561 C555 1.429 . S
C561 C562 1.523 . S
C562 C543 1.368 . S
C562 C556 1.368 . S
C562 C561 1.523 . S
C563 C547 1.429 . S
C563 C559 1.429 . S
C563 C564 1.523 . S
C564 C548 1.368 . S
C564 C560 1.368 . S
C564 C563 1.523 . S
H565 C540 0.950 . S
H566 C542 0.950 . S
H567 C543 0.949 . S
H568 C545 0.950 . S
H569 C547 0.950 . S
C570 C571 1.349 . S
C570 C572 1.327 . S
C570 H595 0.950 . S
C571 C570 1.349 . S
C571 C587 1.349 . S
C572 C570 1.327 . S
C572 C591 1.429 . S
C572 H596 0.950 . S
C573 C590 1.574 . S
C573 C592 1.368 . S
C573 H597 0.949 . S
H574 C578 0.949 . S
C575 C576 1.349 . S
C575 C577 1.327 . S
C575 H598 0.950 . S
C576 C575 1.349 . S
C576 C588 1.349 . S
C577 C575 1.327 . S
C577 C593 1.429 . S
C577 H599 0.950 . S
C578 H574 0.949 . S
C578 C586 1.574 . S
C578 C594 1.368 . S
H579 C587 0.950 . S
H580 C585 0.950 . S
H581 C586 0.949 . S
H582 C588 0.950 . S
H583 C589 0.950 . S
H584 C590 0.949 . S
C585 H580 0.950 . S
C585 C587 1.327 . S
C585 C591 1.429 . S
C586 C578 1.574 . S
C586 H581 0.949 . S
C586 C592 1.368 . S
C587 C571 1.349 . S
C587 H579 0.950 . S
C587 C585 1.327 . S
C588 C576 1.349 . S
C588 H582 0.950 . S
C588 C589 1.327 . S
C589 H583 0.950 . S
C589 C588 1.327 . S
C589 C593 1.429 . S
C590 C573 1.574 . S
C590 H584 0.949 . S
C590 C594 1.368 . S
C591 C572 1.429 . S
C591 C585 1.429 . S
C591 C592 1.523 . S
C592 C573 1.368 . S
C592 C586 1.368 . S
C592 C591 1.523 . S
C593 C577 1.429 . S
C593 C589 1.429 . S
C593 C594 1.523 . S
C594 C578 1.368 . S
C594 C590 1.368 . S
C594 C593 1.523 . S
H595 C570 0.950 . S
H596 C572 0.950 . S
H597 C573 0.949 . S
H598 C575 0.950 . S
H599 C577 0.950 . S
C600 C601 1.349 . S
C600 C602 1.327 . S
C600 H625 0.950 . S
C601 C600 1.349 . S
C601 C617 1.349 . S
C602 C600 1.327 . S
C602 C621 1.429 . S
C602 H626 0.950 . S
C603 C620 1.574 . S
C603 C622 1.368 . S
C603 H627 0.949 . S
H604 C608 0.949 . S
C605 C606 1.357 . S
C605 C607 1.327 . S
C605 H628 0.950 . S
C606 C605 1.357 . S
C606 C618 1.344 . S
C607 C605 1.327 . S
C607 C623 1.429 . S
C607 H629 0.950 . S
C608 H604 0.949 . S
C608 C616 1.574 . S
C608 C624 1.368 . S
H609 C617 0.950 . S
H610 C615 0.950 . S
H611 C616 0.949 . S
H612 C618 0.950 1_455 S
H613 C619 0.950 . S
H614 C620 0.949 . S
C615 H610 0.950 . S
C615 C617 1.327 . S
C615 C621 1.429 . S
C616 C608 1.574 . S
C616 H611 0.949 . S
C616 C622 1.368 . S
C617 C601 1.349 . S
C617 H609 0.950 . S
C617 C615 1.327 . S
C618 C606 1.344 . S
C618 H612 0.950 1_655 S
C618 C619 1.327 . S
C619 H613 0.950 . S
C619 C618 1.327 . S
C619 C623 1.429 . S
C620 C603 1.574 . S
C620 H614 0.949 . S
C620 C624 1.368 . S
C621 C602 1.429 . S
C621 C615 1.429 . S
C621 C622 1.523 . S
C622 C603 1.368 . S
C622 C616 1.368 . S
C622 C621 1.523 . S
C623 C607 1.429 . S
C623 C619 1.429 . S
C623 C624 1.523 . S
C624 C608 1.368 . S
C624 C620 1.368 . S
C624 C623 1.523 . S
H625 C600 0.950 . S
H626 C602 0.950 . S
H627 C603 0.949 . S
H628 C605 0.950 . S
H629 C607 0.950 . S
C630 C631 1.349 . S
C630 C632 1.327 . S
C630 H655 0.950 . S
C631 C630 1.349 . S
C631 C647 1.349 . S
C632 C630 1.327 . S
C632 C651 1.429 . S
C632 H656 0.950 . S
C633 C650 1.574 . S
C633 C652 1.368 . S
C633 H657 0.949 . S
H634 C638 0.949 1_545 S
C635 C636 1.355 . S
C635 C637 1.327 . S
C635 H658 0.950 . S
C636 C635 1.355 . S
C636 C648 1.344 1_565 S
C637 C635 1.327 . S
C637 C653 1.429 . S
C637 H659 0.950 . S
C638 H634 0.949 1_565 S
C638 C646 1.574 . S
C638 C654 1.368 . S
H639 C647 0.950 . S
H640 C645 0.950 . S
H641 C646 0.949 . S
H642 C648 0.950 . S
H643 C649 0.950 . S
H644 C650 0.949 . S
C645 H640 0.950 . S
C645 C647 1.327 . S
C645 C651 1.429 . S
C646 C638 1.574 . S
C646 H641 0.949 . S
C646 C652 1.368 . S
C647 C631 1.349 . S
C647 H639 0.950 . S
C647 C645 1.327 . S
C648 C636 1.344 1_545 S
C648 H642 0.950 . S
C648 C649 1.327 . S
C649 H643 0.950 . S
C649 C648 1.327 . S
C649 C653 1.429 1_545 S
C650 C633 1.574 . S
C650 H644 0.949 . S
C650 C654 1.368 . S
C651 C632 1.429 . S
C651 C645 1.429 . S
C651 C652 1.523 . S
C652 C633 1.368 . S
C652 C646 1.368 . S
C652 C651 1.523 . S
C653 C637 1.429 . S
C653 C649 1.429 1_565 S
C653 C654 1.523 . S
C654 C638 1.368 . S
C654 C650 1.368 . S
C654 C653 1.523 . S
H655 C630 0.950 . S
H656 C632 0.950 . S
H657 C633 0.949 . S
H658 C635 0.950 . S
H659 C637 0.950 . S
C121 C68 2.097 1_566 S
C126 C8 2.097 1_556 S
C151 C88 2.097 . S
C156 C28 2.097 . S
C181 C108 2.096 . S
C186 C48 2.096 1_655 S
C211 C1 1.408 . S
C216 C42 1.374 . S
C241 C21 1.408 . S
C246 C62 1.374 . S
C271 C41 1.408 . S
C276 C82 1.374 . S
C301 C61 1.408 . S
C306 C102 1.374 . S
C331 C81 1.408 . S
C336 C2 1.374 . S
C361 C101 1.408 . S
C366 C22 1.374 . S
C391 C9 0.999 . S
C396 C69 0.999 . S
C421 C29 0.991 . S
C426 C89 0.991 . S
C451 C49 0.991 . S
C456 C109 0.991 . S
C481 C18 1.693 . S
C486 C39 1.726 . S
C511 C38 1.693 . S
C516 C59 1.726 . S
C541 C58 1.693 . S
C546 C79 1.726 . S
C571 C78 1.693 . S
C576 C99 1.726 . S
C601 C98 1.693 . S
C606 C119 1.721 1_655 S
C631 C118 1.693 . S
C636 C19 1.724 1_565 S
