# Generated by pormake.
# Topology umw, (4)-cn, num edge types: 1
# Building blocks:
#     Node 0, Type 0, BuildingBlock: AZAVOO_clean_sbu_0, # of connection points: 4
#     Node 1, Type 0, BuildingBlock: AZAVOO_clean_sbu_0, # of connection points: 4
#     Node 2, Type 0, BuildingBlock: AZAVOO_clean_sbu_0, # of connection points: 4
#     Node 3, Type 0, BuildingBlock: AZAVOO_clean_sbu_0, # of connection points: 4
#     Node 4, Type 0, BuildingBlock: AZAVOO_clean_sbu_0, # of connection points: 4
#     Node 5, Type 0, BuildingBlock: AZAVOO_clean_sbu_0, # of connection points: 4
#     Node 6, Type 0, BuildingBlock: AZAVOO_clean_sbu_0, # of connection points: 4
#     Node 7, Type 0, BuildingBlock: AZAVOO_clean_sbu_0, # of connection points: 4
#     Edge 8, Type (0, 0), BuildingBlock: KIFKEQ_clean_linker_1, # of connection points: 2
#     Edge 9, Type (0, 0), BuildingBlock: KIFKEQ_clean_linker_1, # of connection points: 2
#     Edge 10, Type (0, 0), BuildingBlock: KIFKEQ_clean_linker_1, # of connection points: 2
#     Edge 11, Type (0, 0), BuildingBlock: KIFKEQ_clean_linker_1, # of connection points: 2
#     Edge 12, Type (0, 0), BuildingBlock: KIFKEQ_clean_linker_1, # of connection points: 2
#     Edge 13, Type (0, 0), BuildingBlock: KIFKEQ_clean_linker_1, # of connection points: 2
#     Edge 14, Type (0, 0), BuildingBlock: KIFKEQ_clean_linker_1, # of connection points: 2
#     Edge 15, Type (0, 0), BuildingBlock: KIFKEQ_clean_linker_1, # of connection points: 2
#     Edge 16, Type (0, 0), BuildingBlock: KIFKEQ_clean_linker_1, # of connection points: 2
#     Edge 17, Type (0, 0), BuildingBlock: KIFKEQ_clean_linker_1, # of connection points: 2
#     Edge 18, Type (0, 0), BuildingBlock: KIFKEQ_clean_linker_1, # of connection points: 2
#     Edge 19, Type (0, 0), BuildingBlock: KIFKEQ_clean_linker_1, # of connection points: 2
#     Edge 20, Type (0, 0), BuildingBlock: KIFKEQ_clean_linker_1, # of connection points: 2
#     Edge 21, Type (0, 0), BuildingBlock: KIFKEQ_clean_linker_1, # of connection points: 2
#     Edge 22, Type (0, 0), BuildingBlock: KIFKEQ_clean_linker_1, # of connection points: 2
#     Edge 23, Type (0, 0), BuildingBlock: KIFKEQ_clean_linker_1, # of connection points: 2
# Relax obj value: 0.147
# Max RMSD: 0.120
# Mean RMSD: 0.119
data_MOF--net-umw--node1-AZAVOO_clean_sbu_0--edge1-KIFKEQ_clean_linker_1
_symmetry_space_group_name_H-M    P1
_symmetry_Int_Tables_number       1
_symmetry_cell_setting            triclinic
loop_
_symmetry_equiv_pos_as_xyz
'x, y, z'
_cell_length_a     45.037439
_cell_length_b     45.068109
_cell_length_c     23.858994
_cell_angle_alpha  90.144
_cell_angle_beta   89.947845
_cell_angle_gamma 90.145765
loop_
_atom_site_label
_atom_site_type_symbol
_atom_site_fract_x
_atom_site_fract_y
_atom_site_fract_z
_atom_type_partial_charge
Mg0 Mg 0.37734 0.15541 0.24175 0.0
O1 O 0.41222 0.15757 0.31203 0.0
O2 O 0.45209 0.13186 0.28418 0.0
Mg3 Mg 0.44177 0.11112 0.19923 0.0
C4 C 0.43855 0.148 0.31993 0.0
C5 C 0.34454 0.19109 0.33328 0.0
O6 O 0.35278 0.16739 0.36115 0.0
O7 O 0.40441 0.18734 0.18763 0.0
O8 O 0.44166 0.15764 0.16107 0.0
O9 O 0.3575 0.11489 0.2797 0.0
O10 O 0.39383 0.11395 0.21749 0.0
C11 C 0.42831 0.18257 0.1604 0.0
C12 C 0.37663 0.09965 0.25124 0.0
O13 O 0.35182 0.19344 0.282 0.0
Mg14 Mg 0.82088 0.38771 0.49122 0.0
O15 O 0.82417 0.41927 0.56704 0.0
O16 O 0.85267 0.45798 0.54286 0.0
Mg17 Mg 0.86931 0.45023 0.45408 0.0
C18 C 0.83643 0.44418 0.57803 0.0
C19 C 0.78643 0.35414 0.58265 0.0
O20 O 0.81156 0.36043 0.60804 0.0
O21 O 0.78946 0.41977 0.44672 0.0
O22 O 0.8214 0.45595 0.42444 0.0
O23 O 0.86076 0.36314 0.52012 0.0
O24 O 0.86275 0.40203 0.46413 0.0
C25 C 0.7953 0.44481 0.42431 0.0
C26 C 0.87663 0.3823 0.49298 0.0
O27 O 0.78254 0.36312 0.53273 0.0
Mg28 Mg 0.60472 0.82554 0.735 0.0
O29 O 0.57373 0.82872 0.8116 0.0
O30 O 0.53431 0.85623 0.78786 0.0
Mg31 Mg 0.54121 0.87293 0.69895 0.0
C32 C 0.54865 0.84048 0.8229 0.0
C33 C 0.63904 0.79152 0.82589 0.0
O34 O 0.63289 0.81664 0.85141 0.0
O35 O 0.57245 0.79358 0.69192 0.0
O36 O 0.5358 0.8248 0.66948 0.0
O37 O 0.62931 0.86616 0.76206 0.0
O38 O 0.58924 0.86668 0.70853 0.0
C39 C 0.54726 0.79889 0.66963 0.0
C40 C 0.60911 0.88115 0.73611 0.0
O41 O 0.63 0.78761 0.77595 0.0
Mg42 Mg 0.15802 0.60312 0.0024 0.0
O43 O 0.15669 0.56565 0.0668 0.0
O44 O 0.12624 0.52987 0.03678 0.0
Mg45 Mg 0.10854 0.5444 0.95133 0.0
C46 C 0.14399 0.54055 0.07333 0.0
C47 C 0.21434 0.64183 0.02587 0.0
O48 O 0.20999 0.6488 0.97307 0.0
O49 O 0.18824 0.57582 0.9453 0.0
O50 O 0.15565 0.54173 0.91501 0.0
O51 O 0.11832 0.62346 0.04312 0.0
O52 O 0.11595 0.59127 0.97321 0.0
C53 C 0.18165 0.55308 0.91582 0.0
C54 C 0.10235 0.60724 0.00985 0.0
O55 O 0.19717 0.62312 0.04904 0.0
Mg56 Mg 0.3933 0.82151 0.28426 0.0
O57 O 0.42588 0.82592 0.21057 0.0
O58 O 0.4635 0.85523 0.23747 0.0
Mg59 Mg 0.45381 0.87132 0.32602 0.0
C60 C 0.45066 0.83881 0.20122 0.0
C61 C 0.34664 0.77285 0.25867 0.0
O62 O 0.33515 0.78494 0.3039 0.0
O63 O 0.4253 0.79094 0.33062 0.0
O64 O 0.46038 0.82354 0.35573 0.0
O65 O 0.36822 0.86065 0.25374 0.0
O66 O 0.40589 0.86364 0.31278 0.0
C67 C 0.44978 0.79723 0.3548 0.0
C68 C 0.38642 0.87699 0.28237 0.0
O69 O 0.37132 0.78249 0.24043 0.0
Mg70 Mg 0.15538 0.38261 0.53347 0.0
O71 O 0.15558 0.41513 0.45895 0.0
O72 O 0.12692 0.45354 0.48318 0.0
Mg73 Mg 0.1081 0.44571 0.57031 0.0
C74 C 0.14381 0.44026 0.44826 0.0
C75 C 0.1943 0.32969 0.50434 0.0
O76 O 0.17245 0.31794 0.53336 0.0
O77 O 0.18625 0.41282 0.58382 0.0
O78 O 0.15511 0.44962 0.60629 0.0
O79 O 0.11557 0.35977 0.49845 0.0
O80 O 0.11334 0.39765 0.55717 0.0
C81 C 0.18066 0.43747 0.60792 0.0
C82 C 0.09963 0.37894 0.52542 0.0
O83 O 0.1944 0.35754 0.49622 0.0
Mg84 Mg 0.59907 0.15951 0.77847 0.0
O85 O 0.56787 0.15979 0.70202 0.0
O86 O 0.52855 0.1314 0.72364 0.0
Mg87 Mg 0.5362 0.11018 0.80889 0.0
C88 C 0.54251 0.14861 0.69035 0.0
C89 C 0.65168 0.2002 0.7528 0.0
O90 O 0.66409 0.17813 0.77992 0.0
O91 O 0.56714 0.18874 0.82802 0.0
O92 O 0.53088 0.15638 0.84829 0.0
O93 O 0.62391 0.12084 0.74405 0.0
O94 O 0.58418 0.11709 0.79819 0.0
C95 C 0.54248 0.18222 0.85125 0.0
C96 C 0.60417 0.10428 0.76815 0.0
O97 O 0.6238 0.1997 0.74502 0.0
Mg98 Mg 0.82361 0.60047 0.0402 0.0
O99 O 0.82576 0.56791 0.96599 0.0
O100 O 0.85469 0.52983 0.99109 0.0
Mg101 Mg 0.87207 0.53872 0.07915 0.0
C102 C 0.83803 0.54294 0.95582 0.0
C103 C 0.78559 0.65269 0.00588 0.0
O104 O 0.80754 0.66463 0.03444 0.0
O105 O 0.79245 0.56931 0.08786 0.0
O106 O 0.82426 0.53321 0.1104 0.0
O107 O 0.86362 0.62371 0.00713 0.0
O108 O 0.86529 0.58658 0.06738 0.0
C109 C 0.79826 0.54448 0.11099 0.0
C110 C 0.87926 0.60516 0.036 0.0
O111 O 0.78495 0.62468 -0.00013 0.0
H112 H 0.4964 0.16294 0.33607 0.0
H113 H 0.4143 0.14683 0.42401 0.0
H114 H 0.52211 0.16959 0.42494 0.0
H115 H 0.44007 0.15065 0.51307 0.0
H116 H 0.48745 0.17026 0.67151 0.0
H117 H 0.4628 0.17666 0.58159 0.0
H118 H 0.5416 0.14406 0.49742 0.0
H119 H 0.5667 0.14054 0.58738 0.0
C120 C 0.48394 0.16075 0.37472 0.0
C121 C 0.45347 0.15436 0.37348 0.0
C122 C 0.49869 0.16422 0.42582 0.0
C123 C 0.48349 0.16029 0.47695 0.0
C124 C 0.45269 0.1545 0.47517 0.0
C125 C 0.4378 0.15204 0.42402 0.0
C126 C 0.4995 0.16509 0.63339 0.0
C127 C 0.52885 0.15498 0.63589 0.0
C128 C 0.48531 0.16836 0.58176 0.0
C129 C 0.49982 0.16045 0.53153 0.0
C130 C 0.52963 0.15097 0.53453 0.0
C131 C 0.5441 0.1487 0.58614 0.0
H132 H 0.84516 0.41848 0.67933 0.0
H133 H 0.81831 0.5001 0.60081 0.0
H134 H 0.84347 0.44242 0.7708 0.0
H135 H 0.81362 0.52366 0.69224 0.0
H136 H 0.84225 0.56869 0.85351 0.0
H137 H 0.83974 0.54439 0.76258 0.0
H138 H 0.81841 0.46127 0.84446 0.0
H139 H 0.82386 0.48546 0.93519 0.0
C140 C 0.83815 0.44143 0.68213 0.0
C141 C 0.83207 0.45762 0.63351 0.0
C142 C 0.8369 0.45522 0.73461 0.0
C143 C 0.82856 0.48529 0.73967 0.0
C144 C 0.82108 0.50088 0.69053 0.0
C145 C 0.82338 0.48734 0.63802 0.0
C146 C 0.83692 0.54525 0.85163 0.0
C147 C 0.83341 0.52883 0.90094 0.0
C148 C 0.83519 0.53122 0.79945 0.0
C149 C 0.82891 0.50058 0.79538 0.0
C150 C 0.82415 0.48459 0.8453 0.0
C151 C 0.82693 0.49846 0.89746 0.0
H152 H 0.50876 0.82771 0.18032 0.0
H153 H 0.42461 0.84195 0.09896 0.0
H154 H 0.533 0.82332 0.08949 0.0
H155 H 0.44884 0.84046 0.00795 0.0
H156 H 0.49363 0.81986 0.84631 0.0
H157 H 0.47049 0.81471 0.93798 0.0
H158 H 0.55054 0.84911 0.01547 0.0
H159 H 0.57419 0.8513 0.92379 0.0
C160 C 0.49557 0.83013 0.14266 0.0
C161 C 0.46492 0.83512 0.14625 0.0
C162 C 0.50945 0.82794 0.09045 0.0
C163 C 0.49314 0.83179 0.04062 0.0
C164 C 0.46227 0.83664 0.04479 0.0
C165 C 0.44827 0.83778 0.09701 0.0
C166 C 0.50623 0.82584 0.88334 0.0
C167 C 0.53555 0.83594 0.87851 0.0
C168 C 0.49293 0.82327 0.93597 0.0
C169 C 0.5083 0.83187 0.98484 0.0
C170 C 0.53796 0.84166 0.97947 0.0
C171 C 0.55157 0.8432 0.92689 0.0
H172 H 0.13559 0.49826 0.42092 0.0
H173 H 0.16316 0.41418 0.35079 0.0
H174 H 0.13984 0.5211 0.32904 0.0
H175 H 0.16741 0.4373 0.25827 0.0
H176 H 0.12565 0.48421 0.09967 0.0
H177 H 0.13011 0.45904 0.18972 0.0
H178 H 0.17796 0.53429 0.25664 0.0
H179 H 0.1735 0.5596 0.16695 0.0
C180 C 0.1428 0.48468 0.38595 0.0
C181 C 0.14889 0.45435 0.39311 0.0
C182 C 0.14544 0.49786 0.33337 0.0
C183 C 0.15395 0.48098 0.28653 0.0
C184 C 0.16063 0.45077 0.29368 0.0
C185 C 0.15835 0.43761 0.34663 0.0
C186 C 0.13738 0.4953 0.13337 0.0
C187 C 0.14894 0.52407 0.12618 0.0
C188 C 0.14011 0.48076 0.18481 0.0
C189 C 0.15424 0.49479 0.23021 0.0
C190 C 0.16669 0.52309 0.22249 0.0
C191 C 0.16418 0.53753 0.17101 0.0
H192 H 0.32462 0.19177 0.44128 0.0
H193 H 0.32083 0.24113 0.28636 0.0
H194 H 0.29022 0.22665 0.48423 0.0
H195 H 0.28593 0.27578 0.32921 0.0
H196 H 0.24235 0.3464 0.44105 0.0
H197 H 0.28082 0.31437 0.40161 0.0
H198 H 0.23764 0.23786 0.47426 0.0
H199 H 0.19965 0.26973 0.51434 0.0
C200 C 0.31654 0.21012 0.41642 0.0
C201 C 0.32531 0.21354 0.36026 0.0
C202 C 0.29669 0.23003 0.44098 0.0
C203 C 0.28513 0.25382 0.40998 0.0
C204 C 0.29461 0.2578 0.35434 0.0
C205 C 0.31448 0.23785 0.32971 0.0
C206 C 0.24116 0.32275 0.44875 0.0
C207 C 0.21795 0.31061 0.48087 0.0
C208 C 0.26311 0.30441 0.42594 0.0
C209 C 0.26233 0.2736 0.43496 0.0
C210 C 0.23917 0.26156 0.46729 0.0
C211 C 0.21726 0.27984 0.48998 0.0
H212 H 0.78769 0.33318 0.6897 0.0
H213 H 0.73516 0.33125 0.53821 0.0
H214 H 0.75362 0.29814 0.73323 0.0
H215 H 0.70136 0.29562 0.58151 0.0
H216 H 0.6334 0.24898 0.69389 0.0
H217 H 0.66431 0.28864 0.65543 0.0
H218 H 0.7425 0.24585 0.72159 0.0
H219 H 0.71171 0.20669 0.76085 0.0
C220 C 0.7688 0.32538 0.66572 0.0
C221 C 0.76427 0.33483 0.61032 0.0
C222 C 0.74936 0.30515 0.6906 0.0
C223 C 0.72496 0.29385 0.66064 0.0
C224 C 0.71982 0.30408 0.60588 0.0
C225 C 0.73927 0.32439 0.58097 0.0
C226 C 0.65718 0.24815 0.70044 0.0
C227 C 0.6701 0.22468 0.73044 0.0
C228 C 0.67488 0.27079 0.67817 0.0
C229 C 0.70584 0.27044 0.68555 0.0
C230 C 0.71867 0.24706 0.71592 0.0
C231 C 0.70102 0.22448 0.73813 0.0
H232 H 0.78197 0.71292 0.0108 0.0
H233 H 0.73717 0.63572 0.94366 0.0
H234 H 0.74495 0.74481 0.96827 0.0
H235 H 0.69959 0.66783 0.90176 0.0
H236 H 0.6608 0.7396 0.78216 0.0
H237 H 0.69483 0.70484 0.82686 0.0
H238 H 0.69304 0.75776 0.97807 0.0
H239 H 0.65963 0.79272 0.93324 0.0
C240 C 0.76409 0.70271 0.98726 0.0
C241 C 0.76252 0.67177 0.98066 0.0
C242 C 0.74273 0.72102 0.96315 0.0
C243 C 0.7192 0.70886 0.9319 0.0
C244 C 0.71758 0.67788 0.92524 0.0
C245 C 0.73901 0.6595 0.94946 0.0
C246 C 0.66752 0.74369 0.82507 0.0
C247 C 0.65774 0.76908 0.85396 0.0
C248 C 0.6869 0.72369 0.85077 0.0
C249 C 0.69685 0.72869 0.90585 0.0
C250 C 0.68625 0.75357 0.93523 0.0
C251 C 0.66696 0.77354 0.90959 0.0
H252 H 0.22712 0.63422 0.13687 0.0
H253 H 0.25296 0.68499 0.99121 0.0
H254 H 0.26163 0.66287 0.19416 0.0
H255 H 0.28712 0.71394 0.0488 0.0
H256 H 0.36235 0.74618 0.15986 0.0
H257 H 0.33299 0.71146 0.10404 0.0
H258 H 0.26351 0.71395 0.22891 0.0
H259 H 0.29296 0.74824 0.28511 0.0
C260 C 0.2403 0.65136 0.11696 0.0
C261 C 0.23713 0.65747 0.05951 0.0
C262 C 0.25996 0.66787 0.1499 0.0
C263 C 0.27695 0.6908 0.12612 0.0
C264 C 0.27455 0.69623 0.06829 0.0
C265 C 0.25484 0.67974 0.03533 0.0
C266 C 0.34093 0.73909 0.17568 0.0
C267 C 0.32992 0.75009 0.22683 0.0
C268 C 0.32406 0.71933 0.14352 0.0
C269 C 0.29588 0.71006 0.16193 0.0
C270 C 0.28527 0.7204 0.21384 0.0
C271 C 0.3021 0.7402 0.24592 0.0
H272 H 0.34253 0.91083 0.237 0.0
H273 H 0.42758 0.91739 0.31994 0.0
H274 H 0.34026 0.96494 0.23152 0.0
H275 H 0.42552 0.97132 0.31297 0.0
H276 H 0.42182 0.06287 0.218 0.0
H277 H 0.42434 0.00907 0.22726 0.0
H278 H 0.33832 0.00862 0.30696 0.0
H279 H 0.33596 0.06266 0.299 0.0
C280 C 0.36081 0.92374 0.25375 0.0
C281 C 0.38536 0.90973 0.27857 0.0
C282 C 0.3594 0.95467 0.25083 0.0
C283 C 0.38274 0.97215 0.27176 0.0
C284 C 0.40735 0.95824 0.29621 0.0
C285 C 0.4085 0.92734 0.30015 0.0
C286 C 0.40354 0.05146 0.2379 0.0
C287 C 0.37876 0.06712 0.25797 0.0
C288 C 0.40504 0.02064 0.24326 0.0
C289 C 0.3815 0.00483 0.26771 0.0
C290 C 0.35668 0.02038 0.28768 0.0
C291 C 0.35544 0.05127 0.28334 0.0
H292 H 0.91157 0.33853 0.53566 0.0
H293 H 0.91602 0.42493 0.45783 0.0
H294 H 0.96577 0.33752 0.54127 0.0
H295 H 0.97001 0.4241 0.46493 0.0
H296 H 0.06101 0.42191 0.56131 0.0
H297 H 0.00723 0.42271 0.55123 0.0
H298 H 0.01001 0.338 0.46683 0.0
H299 H 0.06415 0.33743 0.47542 0.0
C300 C 0.92404 0.35737 0.52003 0.0
C301 C 0.90941 0.38194 0.49671 0.0
C302 C 0.95501 0.35667 0.52299 0.0
C303 C 0.9719 0.38075 0.5036 0.0
C304 C 0.95738 0.40536 0.4805 0.0
C305 C 0.92644 0.40581 0.47652 0.0
C306 C 0.05036 0.4036 0.54003 0.0
C307 C 0.06698 0.37974 0.51873 0.0
C308 C 0.01952 0.40409 0.53431 0.0
C309 C 0.00462 0.38044 0.50825 0.0
C310 C 0.02108 0.35645 0.48728 0.0
C311 C 0.05202 0.35622 0.49202 0.0
H312 H 0.56232 0.91539 0.767 0.0
H313 H 0.65374 0.91959 0.71433 0.0
H314 H 0.56105 0.9692 0.77571 0.0
H315 H 0.65216 0.97349 0.71745 0.0
H316 H 0.65179 0.06831 0.77624 0.0
H317 H 0.65283 0.01452 0.77073 0.0
H318 H 0.55861 0.01394 0.73383 0.0
H319 H 0.55759 0.06766 0.74485 0.0
C320 C 0.58199 0.92806 0.75639 0.0
C321 C 0.60813 0.91363 0.7402 0.0
C322 C 0.5813 0.95899 0.76079 0.0
C323 C 0.60649 0.97622 0.74721 0.0
C324 C 0.63248 0.96136 0.72989 0.0
C325 C 0.63342 0.93041 0.72748 0.0
C326 C 0.63138 0.05648 0.76704 0.0
C327 C 0.60462 0.07189 0.76122 0.0
C328 C 0.63192 0.02556 0.7633 0.0
C329 C 0.60581 0.00936 0.75155 0.0
C330 C 0.5791 0.02521 0.7444 0.0
C331 C 0.57845 0.05609 0.75015 0.0
H332 H 0.91835 0.5803 0.10913 0.0
H333 H 0.91392 0.62889 0.95348 0.0
H334 H 0.97261 0.58059 0.10365 0.0
H335 H 0.96818 0.62864 0.94767 0.0
H336 H 0.06302 0.58765 0.93156 0.0
H337 H 0.00887 0.58681 0.93789 0.0
H338 H 0.01368 0.62299 0.10529 0.0
H339 H 0.06798 0.62437 0.09878 0.0
C340 C 0.92896 0.59087 0.07361 0.0
C341 C 0.91195 0.60458 0.03171 0.0
C342 C 0.95995 0.59116 0.07071 0.0
C343 C 0.97444 0.60466 0.0253 0.0
C344 C 0.95746 0.61798 0.98297 0.0
C345 C 0.92648 0.6182 0.98641 0.0
C346 C 0.05255 0.59537 0.96979 0.0
C347 C 0.06969 0.6061 0.0147 0.0
C348 C 0.0216 0.59501 0.97322 0.0
C349 C 0.00723 0.60487 0.02201 0.0
C350 C 0.02433 0.61515 0.06733 0.0
C351 C 0.05531 0.61604 0.0635 0.0
H352 H 0.49072 0.21238 0.83794 0.0
H353 H 0.56266 0.19743 0.95306 0.0
H354 H 0.46077 0.23307 0.91375 0.0
H355 H 0.53248 0.21507 0.02977 0.0
H356 H 0.47575 0.21977 0.16955 0.0
H357 H 0.50355 0.23984 0.09035 0.0
H358 H 0.43414 0.20895 0.97861 0.0
H359 H 0.4059 0.19183 0.05812 0.0
C360 C 0.50033 0.2144 0.87939 0.0
C361 C 0.52874 0.20326 0.89021 0.0
C362 C 0.48308 0.22578 0.92319 0.0
C363 C 0.49339 0.2246 0.97899 0.0
C364 C 0.52328 0.21653 0.98804 0.0
C365 C 0.5408 0.20618 0.94392 0.0
C366 C 0.46595 0.21896 0.12812 0.0
C367 C 0.4389 0.20427 0.11943 0.0
C368 C 0.48205 0.22991 0.08243 0.0
C369 C 0.47204 0.22484 0.02717 0.0
C370 C 0.44309 0.21342 0.01982 0.0
C371 C 0.42665 0.20341 0.06563 0.0
H372 H 0.75651 0.5696 0.17948 0.0
H373 H 0.79004 0.48533 0.12166 0.0
H374 H 0.73384 0.54503 0.2603 0.0
H375 H 0.76789 0.46089 0.2016 0.0
H376 H 0.75391 0.42011 0.35453 0.0
H377 H 0.7329 0.44507 0.27282 0.0
H378 H 0.76657 0.52886 0.33474 0.0
H379 H 0.78705 0.50402 0.41566 0.0
C380 C 0.75781 0.54566 0.18263 0.0
C381 C 0.77571 0.52939 0.14551 0.0
C382 C 0.74491 0.53158 0.22897 0.0
C383 C 0.74978 0.50113 0.23844 0.0
C384 C 0.76369 0.48435 0.19615 0.0
C385 C 0.77672 0.49841 0.15036 0.0
C386 C 0.75538 0.44407 0.35195 0.0
C387 C 0.77281 0.46011 0.39025 0.0
C388 C 0.74346 0.45837 0.30505 0.0
C389 C 0.74892 0.4888 0.29619 0.0
C390 C 0.76203 0.50541 0.33966 0.0
C391 C 0.77406 0.49113 0.38608 0.0
H392 H 0.48806 0.79025 0.65879 0.0
H393 H 0.57266 0.75677 0.60249 0.0
H394 H 0.46404 0.7683 0.578 0.0
H395 H 0.54853 0.73438 0.52087 0.0
H396 H 0.50899 0.78988 0.36664 0.0
H397 H 0.5331 0.76871 0.44775 0.0
H398 H 0.44886 0.73373 0.50461 0.0
H399 H 0.42466 0.75528 0.42252 0.0
C400 C 0.50128 0.77692 0.63034 0.0
C401 C 0.53227 0.77596 0.63575 0.0
C402 C 0.48747 0.76403 0.58404 0.0
C403 C 0.50453 0.75036 0.54188 0.0
C404 C 0.5349 0.74531 0.5521 0.0
C405 C 0.54872 0.75805 0.59892 0.0
C406 C 0.49587 0.77648 0.39511 0.0
C407 C 0.46493 0.7749 0.38938 0.0
C408 C 0.50973 0.76403 0.4416 0.0
C409 C 0.49274 0.75023 0.48369 0.0
C410 C 0.46243 0.74472 0.47338 0.0
C411 C 0.44858 0.75698 0.42631 0.0
H412 H 0.19028 0.57389 0.81221 0.0
H413 H 0.21821 0.50535 0.92575 0.0
H414 H 0.20739 0.54494 0.73348 0.0
H415 H 0.23795 0.47668 0.84714 0.0
H416 H 0.19519 0.4171 0.70975 0.0
H417 H 0.21275 0.44742 0.78653 0.0
H418 H 0.2331 0.51824 0.67005 0.0
H419 H 0.21264 0.4882 0.59403 0.0
C420 C 0.20179 0.55324 0.82029 0.0
C421 C 0.2028 0.54163 0.87454 0.0
C422 C 0.21181 0.53643 0.77496 0.0
C423 C 0.2233 0.50766 0.78316 0.0
C424 C 0.22816 0.49811 0.83869 0.0
C425 C 0.21735 0.51469 0.88398 0.0
C426 C 0.20454 0.43873 0.70049 0.0
C427 C 0.20233 0.45056 0.64652 0.0
C428 C 0.2148 0.45632 0.74466 0.0
C429 C 0.22342 0.48604 0.73538 0.0
C430 C 0.22541 0.49604 0.6795 0.0
C431 C 0.21418 0.47872 0.63562 0.0
loop_
_geom_bond_atom_site_label_1
_geom_bond_atom_site_label_2
_geom_bond_distance
_geom_bond_site_symmetry_2
_ccdc_geom_bond_type
Mg0 O1 2.028 . S
Mg0 O7 1.986 . S
Mg0 O9 2.114 . S
Mg0 O10 2.251 . S
Mg0 O13 2.010 . S
O1 Mg0 2.028 . S
O1 C4 1.250 . S
O2 Mg3 2.028 . S
O2 C4 1.248 . S
Mg3 O2 2.028 . S
Mg3 O8 2.032 . S
Mg3 O10 2.079 . S
C4 O1 1.250 . S
C4 O2 1.248 . S
C5 O6 1.264 . S
C5 O13 1.249 . S
O6 C5 1.264 . S
O7 Mg0 1.986 . S
O7 C11 1.246 . S
O8 Mg3 2.032 . S
O8 C11 1.259 . S
O9 Mg0 2.114 . S
O9 C12 1.252 . S
O10 Mg0 2.251 . S
O10 Mg3 2.079 . S
O10 C12 1.273 . S
C11 O7 1.246 . S
C11 O8 1.259 . S
C12 O9 1.252 . S
C12 O10 1.273 . S
O13 Mg0 2.010 . S
O13 C5 1.249 . S
Mg14 O15 2.028 . S
Mg14 O21 1.986 . S
Mg14 O23 2.114 . S
Mg14 O24 2.251 . S
Mg14 O27 2.010 . S
O15 Mg14 2.028 . S
O15 C18 1.250 . S
O16 Mg17 2.028 . S
O16 C18 1.248 . S
Mg17 O16 2.028 . S
Mg17 O22 2.032 . S
Mg17 O24 2.079 . S
C18 O15 1.250 . S
C18 O16 1.248 . S
C19 O20 1.264 . S
C19 O27 1.249 . S
O20 C19 1.264 . S
O21 Mg14 1.986 . S
O21 C25 1.246 . S
O22 Mg17 2.032 . S
O22 C25 1.259 . S
O23 Mg14 2.114 . S
O23 C26 1.252 . S
O24 Mg14 2.251 . S
O24 Mg17 2.079 . S
O24 C26 1.273 . S
C25 O21 1.246 . S
C25 O22 1.259 . S
C26 O23 1.252 . S
C26 O24 1.273 . S
O27 Mg14 2.010 . S
O27 C19 1.249 . S
Mg28 O29 2.028 . S
Mg28 O35 1.986 . S
Mg28 O37 2.114 . S
Mg28 O38 2.251 . S
Mg28 O41 2.010 . S
O29 Mg28 2.028 . S
O29 C32 1.250 . S
O30 Mg31 2.028 . S
O30 C32 1.248 . S
Mg31 O30 2.028 . S
Mg31 O36 2.032 . S
Mg31 O38 2.079 . S
C32 O29 1.250 . S
C32 O30 1.248 . S
C33 O34 1.264 . S
C33 O41 1.249 . S
O34 C33 1.264 . S
O35 Mg28 1.986 . S
O35 C39 1.246 . S
O36 Mg31 2.032 . S
O36 C39 1.259 . S
O37 Mg28 2.114 . S
O37 C40 1.252 . S
O38 Mg28 2.251 . S
O38 Mg31 2.079 . S
O38 C40 1.273 . S
C39 O35 1.246 . S
C39 O36 1.259 . S
C40 O37 1.252 . S
C40 O38 1.273 . S
O41 Mg28 2.010 . S
O41 C33 1.249 . S
Mg42 O43 2.028 . S
Mg42 O49 1.986 1_554 S
Mg42 O51 2.114 . S
Mg42 O52 2.251 . S
Mg42 O55 2.010 . S
O43 Mg42 2.028 . S
O43 C46 1.250 . S
O44 Mg45 2.028 . S
O44 C46 1.248 . S
Mg45 O44 2.028 . S
Mg45 O50 2.032 1_554 S
Mg45 O52 2.079 . S
C46 O43 1.250 . S
C46 O44 1.248 . S
C47 O48 1.264 . S
C47 O55 1.249 . S
O48 C47 1.264 . S
O49 Mg42 1.986 1_556 S
O49 C53 1.246 . S
O50 Mg45 2.032 1_556 S
O50 C53 1.259 . S
O51 Mg42 2.114 . S
O51 C54 1.252 . S
O52 Mg42 2.251 . S
O52 Mg45 2.079 . S
O52 C54 1.273 . S
C53 O49 1.246 . S
C53 O50 1.259 . S
C54 O51 1.252 . S
C54 O52 1.273 . S
O55 Mg42 2.010 . S
O55 C47 1.249 . S
Mg56 O57 2.028 . S
Mg56 O63 1.986 . S
Mg56 O65 2.114 . S
Mg56 O66 2.251 . S
Mg56 O69 2.010 . S
O57 Mg56 2.028 . S
O57 C60 1.250 . S
O58 Mg59 2.028 . S
O58 C60 1.248 . S
Mg59 O58 2.028 . S
Mg59 O64 2.032 . S
Mg59 O66 2.079 . S
C60 O57 1.250 . S
C60 O58 1.248 . S
C61 O62 1.264 . S
C61 O69 1.249 . S
O62 C61 1.264 . S
O63 Mg56 1.986 . S
O63 C67 1.246 . S
O64 Mg59 2.032 . S
O64 C67 1.259 . S
O65 Mg56 2.114 . S
O65 C68 1.252 . S
O66 Mg56 2.251 . S
O66 Mg59 2.079 . S
O66 C68 1.273 . S
C67 O63 1.246 . S
C67 O64 1.259 . S
C68 O65 1.252 . S
C68 O66 1.273 . S
O69 Mg56 2.010 . S
O69 C61 1.249 . S
Mg70 O71 2.028 . S
Mg70 O77 1.986 . S
Mg70 O79 2.114 . S
Mg70 O80 2.251 . S
Mg70 O83 2.010 . S
O71 Mg70 2.028 . S
O71 C74 1.250 . S
O72 Mg73 2.028 . S
O72 C74 1.248 . S
Mg73 O72 2.028 . S
Mg73 O78 2.032 . S
Mg73 O80 2.079 . S
C74 O71 1.250 . S
C74 O72 1.248 . S
C75 O76 1.264 . S
C75 O83 1.249 . S
O76 C75 1.264 . S
O77 Mg70 1.986 . S
O77 C81 1.246 . S
O78 Mg73 2.032 . S
O78 C81 1.259 . S
O79 Mg70 2.114 . S
O79 C82 1.252 . S
O80 Mg70 2.251 . S
O80 Mg73 2.079 . S
O80 C82 1.273 . S
C81 O77 1.246 . S
C81 O78 1.259 . S
C82 O79 1.252 . S
C82 O80 1.273 . S
O83 Mg70 2.010 . S
O83 C75 1.249 . S
Mg84 O85 2.028 . S
Mg84 O91 1.986 . S
Mg84 O93 2.114 . S
Mg84 O94 2.251 . S
Mg84 O97 2.010 . S
O85 Mg84 2.028 . S
O85 C88 1.250 . S
O86 Mg87 2.028 . S
O86 C88 1.248 . S
Mg87 O86 2.028 . S
Mg87 O92 2.032 . S
Mg87 O94 2.079 . S
C88 O85 1.250 . S
C88 O86 1.248 . S
C89 O90 1.264 . S
C89 O97 1.249 . S
O90 C89 1.264 . S
O91 Mg84 1.986 . S
O91 C95 1.246 . S
O92 Mg87 2.032 . S
O92 C95 1.259 . S
O93 Mg84 2.114 . S
O93 C96 1.252 . S
O94 Mg84 2.251 . S
O94 Mg87 2.079 . S
O94 C96 1.273 . S
C95 O91 1.246 . S
C95 O92 1.259 . S
C96 O93 1.252 . S
C96 O94 1.273 . S
O97 Mg84 2.010 . S
O97 C89 1.249 . S
Mg98 O99 2.028 1_554 S
Mg98 O105 1.986 . S
Mg98 O107 2.114 1_554 S
Mg98 O108 2.251 . S
Mg98 O111 2.010 . S
O99 Mg98 2.028 1_556 S
O99 C102 1.250 . S
O100 Mg101 2.028 1_556 S
O100 C102 1.248 . S
Mg101 O100 2.028 1_554 S
Mg101 O106 2.032 . S
Mg101 O108 2.079 . S
C102 O99 1.250 . S
C102 O100 1.248 . S
C103 O104 1.264 . S
C103 O111 1.249 . S
O104 C103 1.264 . S
O105 Mg98 1.986 . S
O105 C109 1.246 . S
O106 Mg101 2.032 . S
O106 C109 1.259 . S
O107 Mg98 2.114 1_556 S
O107 C110 1.252 1_556 S
O108 Mg98 2.251 . S
O108 Mg101 2.079 . S
O108 C110 1.273 . S
C109 O105 1.246 . S
C109 O106 1.259 . S
C110 O107 1.252 1_554 S
C110 O108 1.273 . S
O111 Mg98 2.010 . S
O111 C103 1.249 . S
H112 C120 0.950 . S
H113 C125 0.950 . S
H114 C122 0.950 . S
H115 C124 0.950 . S
H116 C126 0.950 . S
H117 C128 0.950 . S
H118 C130 0.950 . S
H119 C131 0.950 . S
C120 H112 0.950 . S
C120 C121 1.386 . S
C120 C122 1.391 . S
C121 C120 1.386 . S
C121 C125 1.393 . S
C122 H114 0.950 . S
C122 C120 1.391 . S
C122 C123 1.400 . S
C123 C122 1.400 . S
C123 C124 1.398 . S
C123 C129 1.491 . S
C124 H115 0.950 . S
C124 C123 1.398 . S
C124 C125 1.391 . S
C125 H113 0.950 . S
C125 C121 1.393 . S
C125 C124 1.391 . S
C126 H116 0.950 . S
C126 C127 1.386 . S
C126 C128 1.391 . S
C127 C126 1.386 . S
C127 C131 1.393 . S
C128 H117 0.950 . S
C128 C126 1.391 . S
C128 C129 1.400 . S
C129 C123 1.491 . S
C129 C128 1.400 . S
C129 C130 1.398 . S
C130 H118 0.950 . S
C130 C129 1.398 . S
C130 C131 1.391 . S
C131 H119 0.950 . S
C131 C127 1.393 . S
C131 C130 1.391 . S
H132 C140 0.950 . S
H133 C145 0.950 . S
H134 C142 0.950 . S
H135 C144 0.950 . S
H136 C146 0.950 . S
H137 C148 0.950 . S
H138 C150 0.950 . S
H139 C151 0.950 . S
C140 H132 0.950 . S
C140 C141 1.386 . S
C140 C142 1.391 . S
C141 C140 1.386 . S
C141 C145 1.393 . S
C142 H134 0.950 . S
C142 C140 1.391 . S
C142 C143 1.400 . S
C143 C142 1.400 . S
C143 C144 1.398 . S
C143 C149 1.491 . S
C144 H135 0.950 . S
C144 C143 1.398 . S
C144 C145 1.391 . S
C145 H133 0.950 . S
C145 C141 1.393 . S
C145 C144 1.391 . S
C146 H136 0.950 . S
C146 C147 1.386 . S
C146 C148 1.391 . S
C147 C146 1.386 . S
C147 C151 1.393 . S
C148 H137 0.950 . S
C148 C146 1.391 . S
C148 C149 1.400 . S
C149 C143 1.491 . S
C149 C148 1.400 . S
C149 C150 1.398 . S
C150 H138 0.950 . S
C150 C149 1.398 . S
C150 C151 1.391 . S
C151 H139 0.950 . S
C151 C147 1.393 . S
C151 C150 1.391 . S
H152 C160 0.950 . S
H153 C165 0.950 . S
H154 C162 0.950 . S
H155 C164 0.950 . S
H156 C166 0.950 . S
H157 C168 0.950 . S
H158 C170 0.950 . S
H159 C171 0.950 . S
C160 H152 0.950 . S
C160 C161 1.386 . S
C160 C162 1.391 . S
C161 C160 1.386 . S
C161 C165 1.393 . S
C162 H154 0.950 . S
C162 C160 1.391 . S
C162 C163 1.400 . S
C163 C162 1.400 . S
C163 C164 1.398 . S
C163 C169 1.491 1_554 S
C164 H155 0.950 . S
C164 C163 1.398 . S
C164 C165 1.391 . S
C165 H153 0.950 . S
C165 C161 1.393 . S
C165 C164 1.391 . S
C166 H156 0.950 . S
C166 C167 1.386 . S
C166 C168 1.391 . S
C167 C166 1.386 . S
C167 C171 1.393 . S
C168 H157 0.950 . S
C168 C166 1.391 . S
C168 C169 1.400 . S
C169 C163 1.491 1_556 S
C169 C168 1.400 . S
C169 C170 1.398 1_556 S
C170 H158 0.950 . S
C170 C169 1.398 1_554 S
C170 C171 1.391 1_554 S
C171 H159 0.950 . S
C171 C167 1.393 . S
C171 C170 1.391 1_556 S
H172 C180 0.950 . S
H173 C185 0.950 . S
H174 C182 0.950 . S
H175 C184 0.950 . S
H176 C186 0.950 . S
H177 C188 0.950 . S
H178 C190 0.950 . S
H179 C191 0.950 . S
C180 H172 0.950 . S
C180 C181 1.386 . S
C180 C182 1.391 . S
C181 C180 1.386 . S
C181 C185 1.393 . S
C182 H174 0.950 . S
C182 C180 1.391 . S
C182 C183 1.400 . S
C183 C182 1.400 . S
C183 C184 1.398 . S
C183 C189 1.491 . S
C184 H175 0.950 . S
C184 C183 1.398 . S
C184 C185 1.391 . S
C185 H173 0.950 . S
C185 C181 1.393 . S
C185 C184 1.391 . S
C186 H176 0.950 . S
C186 C187 1.386 . S
C186 C188 1.391 . S
C187 C186 1.386 . S
C187 C191 1.393 . S
C188 H177 0.950 . S
C188 C186 1.391 . S
C188 C189 1.400 . S
C189 C183 1.491 . S
C189 C188 1.400 . S
C189 C190 1.398 . S
C190 H178 0.950 . S
C190 C189 1.398 . S
C190 C191 1.391 . S
C191 H179 0.950 . S
C191 C187 1.393 . S
C191 C190 1.391 . S
H192 C200 0.950 . S
H193 C205 0.950 . S
H194 C202 0.950 . S
H195 C204 0.950 . S
H196 C206 0.950 . S
H197 C208 0.950 . S
H198 C210 0.950 . S
H199 C211 0.950 . S
C200 H192 0.950 . S
C200 C201 1.386 . S
C200 C202 1.391 . S
C201 C200 1.386 . S
C201 C205 1.393 . S
C202 H194 0.950 . S
C202 C200 1.391 . S
C202 C203 1.400 . S
C203 C202 1.400 . S
C203 C204 1.398 . S
C203 C209 1.491 . S
C204 H195 0.950 . S
C204 C203 1.398 . S
C204 C205 1.391 . S
C205 H193 0.950 . S
C205 C201 1.393 . S
C205 C204 1.391 . S
C206 H196 0.950 . S
C206 C207 1.386 . S
C206 C208 1.391 . S
C207 C206 1.386 . S
C207 C211 1.393 . S
C208 H197 0.950 . S
C208 C206 1.391 . S
C208 C209 1.400 . S
C209 C203 1.491 . S
C209 C208 1.400 . S
C209 C210 1.398 . S
C210 H198 0.950 . S
C210 C209 1.398 . S
C210 C211 1.391 . S
C211 H199 0.950 . S
C211 C207 1.393 . S
C211 C210 1.391 . S
H212 C220 0.950 . S
H213 C225 0.950 . S
H214 C222 0.950 . S
H215 C224 0.950 . S
H216 C226 0.950 . S
H217 C228 0.950 . S
H218 C230 0.950 . S
H219 C231 0.950 . S
C220 H212 0.950 . S
C220 C221 1.386 . S
C220 C222 1.391 . S
C221 C220 1.386 . S
C221 C225 1.393 . S
C222 H214 0.950 . S
C222 C220 1.391 . S
C222 C223 1.400 . S
C223 C222 1.400 . S
C223 C224 1.398 . S
C223 C229 1.491 . S
C224 H215 0.950 . S
C224 C223 1.398 . S
C224 C225 1.391 . S
C225 H213 0.950 . S
C225 C221 1.393 . S
C225 C224 1.391 . S
C226 H216 0.950 . S
C226 C227 1.386 . S
C226 C228 1.391 . S
C227 C226 1.386 . S
C227 C231 1.393 . S
C228 H217 0.950 . S
C228 C226 1.391 . S
C228 C229 1.400 . S
C229 C223 1.491 . S
C229 C228 1.400 . S
C229 C230 1.398 . S
C230 H218 0.950 . S
C230 C229 1.398 . S
C230 C231 1.391 . S
C231 H219 0.950 . S
C231 C227 1.393 . S
C231 C230 1.391 . S
H232 C240 0.950 . S
H233 C245 0.950 . S
H234 C242 0.950 . S
H235 C244 0.950 . S
H236 C246 0.950 . S
H237 C248 0.950 . S
H238 C250 0.950 . S
H239 C251 0.950 . S
C240 H232 0.950 . S
C240 C241 1.386 . S
C240 C242 1.391 . S
C241 C240 1.386 . S
C241 C245 1.393 . S
C242 H234 0.950 . S
C242 C240 1.391 . S
C242 C243 1.400 . S
C243 C242 1.400 . S
C243 C244 1.398 . S
C243 C249 1.491 . S
C244 H235 0.950 . S
C244 C243 1.398 . S
C244 C245 1.391 . S
C245 H233 0.950 . S
C245 C241 1.393 . S
C245 C244 1.391 . S
C246 H236 0.950 . S
C246 C247 1.386 . S
C246 C248 1.391 . S
C247 C246 1.386 . S
C247 C251 1.393 . S
C248 H237 0.950 . S
C248 C246 1.391 . S
C248 C249 1.400 . S
C249 C243 1.491 . S
C249 C248 1.400 . S
C249 C250 1.398 . S
C250 H238 0.950 . S
C250 C249 1.398 . S
C250 C251 1.391 . S
C251 H239 0.950 . S
C251 C247 1.393 . S
C251 C250 1.391 . S
H252 C260 0.950 . S
H253 C265 0.950 . S
H254 C262 0.950 . S
H255 C264 0.950 . S
H256 C266 0.950 . S
H257 C268 0.950 . S
H258 C270 0.950 . S
H259 C271 0.950 . S
C260 H252 0.950 . S
C260 C261 1.386 . S
C260 C262 1.391 . S
C261 C260 1.386 . S
C261 C265 1.393 . S
C262 H254 0.950 . S
C262 C260 1.391 . S
C262 C263 1.400 . S
C263 C262 1.400 . S
C263 C264 1.398 . S
C263 C269 1.491 . S
C264 H255 0.950 . S
C264 C263 1.398 . S
C264 C265 1.391 . S
C265 H253 0.950 . S
C265 C261 1.393 . S
C265 C264 1.391 . S
C266 H256 0.950 . S
C266 C267 1.386 . S
C266 C268 1.391 . S
C267 C266 1.386 . S
C267 C271 1.393 . S
C268 H257 0.950 . S
C268 C266 1.391 . S
C268 C269 1.400 . S
C269 C263 1.491 . S
C269 C268 1.400 . S
C269 C270 1.398 . S
C270 H258 0.950 . S
C270 C269 1.398 . S
C270 C271 1.391 . S
C271 H259 0.950 . S
C271 C267 1.393 . S
C271 C270 1.391 . S
H272 C280 0.950 . S
H273 C285 0.950 . S
H274 C282 0.950 . S
H275 C284 0.950 . S
H276 C286 0.950 . S
H277 C288 0.950 . S
H278 C290 0.950 . S
H279 C291 0.950 . S
C280 H272 0.950 . S
C280 C281 1.386 . S
C280 C282 1.391 . S
C281 C280 1.386 . S
C281 C285 1.393 . S
C282 H274 0.950 . S
C282 C280 1.391 . S
C282 C283 1.400 . S
C283 C282 1.400 . S
C283 C284 1.398 . S
C283 C289 1.491 1_565 S
C284 H275 0.950 . S
C284 C283 1.398 . S
C284 C285 1.391 . S
C285 H273 0.950 . S
C285 C281 1.393 . S
C285 C284 1.391 . S
C286 H276 0.950 . S
C286 C287 1.386 . S
C286 C288 1.391 . S
C287 C286 1.386 . S
C287 C291 1.393 . S
C288 H277 0.950 . S
C288 C286 1.391 . S
C288 C289 1.400 . S
C289 C283 1.491 1_545 S
C289 C288 1.400 . S
C289 C290 1.398 . S
C290 H278 0.950 . S
C290 C289 1.398 . S
C290 C291 1.391 . S
C291 H279 0.950 . S
C291 C287 1.393 . S
C291 C290 1.391 . S
H292 C300 0.950 . S
H293 C305 0.950 . S
H294 C302 0.950 . S
H295 C304 0.950 . S
H296 C306 0.950 . S
H297 C308 0.950 . S
H298 C310 0.950 . S
H299 C311 0.950 . S
C300 H292 0.950 . S
C300 C301 1.386 . S
C300 C302 1.391 . S
C301 C300 1.386 . S
C301 C305 1.393 . S
C302 H294 0.950 . S
C302 C300 1.391 . S
C302 C303 1.400 . S
C303 C302 1.400 . S
C303 C304 1.398 . S
C303 C309 1.491 1_655 S
C304 H295 0.950 . S
C304 C303 1.398 . S
C304 C305 1.391 . S
C305 H293 0.950 . S
C305 C301 1.393 . S
C305 C304 1.391 . S
C306 H296 0.950 . S
C306 C307 1.386 . S
C306 C308 1.391 . S
C307 C306 1.386 . S
C307 C311 1.393 . S
C308 H297 0.950 . S
C308 C306 1.391 . S
C308 C309 1.400 . S
C309 C303 1.491 1_455 S
C309 C308 1.400 . S
C309 C310 1.398 . S
C310 H298 0.950 . S
C310 C309 1.398 . S
C310 C311 1.391 . S
C311 H299 0.950 . S
C311 C307 1.393 . S
C311 C310 1.391 . S
H312 C320 0.950 . S
H313 C325 0.950 . S
H314 C322 0.950 . S
H315 C324 0.950 . S
H316 C326 0.950 . S
H317 C328 0.950 . S
H318 C330 0.950 . S
H319 C331 0.950 . S
C320 H312 0.950 . S
C320 C321 1.386 . S
C320 C322 1.391 . S
C321 C320 1.386 . S
C321 C325 1.393 . S
C322 H314 0.950 . S
C322 C320 1.391 . S
C322 C323 1.400 . S
C323 C322 1.400 . S
C323 C324 1.398 . S
C323 C329 1.491 1_565 S
C324 H315 0.950 . S
C324 C323 1.398 . S
C324 C325 1.391 . S
C325 H313 0.950 . S
C325 C321 1.393 . S
C325 C324 1.391 . S
C326 H316 0.950 . S
C326 C327 1.386 . S
C326 C328 1.391 . S
C327 C326 1.386 . S
C327 C331 1.393 . S
C328 H317 0.950 . S
C328 C326 1.391 . S
C328 C329 1.400 . S
C329 C323 1.491 1_545 S
C329 C328 1.400 . S
C329 C330 1.398 . S
C330 H318 0.950 . S
C330 C329 1.398 . S
C330 C331 1.391 . S
C331 H319 0.950 . S
C331 C327 1.393 . S
C331 C330 1.391 . S
H332 C340 0.950 . S
H333 C345 0.950 . S
H334 C342 0.950 . S
H335 C344 0.950 . S
H336 C346 0.950 . S
H337 C348 0.950 . S
H338 C350 0.950 . S
H339 C351 0.950 . S
C340 H332 0.950 . S
C340 C341 1.386 . S
C340 C342 1.391 . S
C341 C340 1.386 . S
C341 C345 1.393 1_554 S
C342 H334 0.950 . S
C342 C340 1.391 . S
C342 C343 1.400 . S
C343 C342 1.400 . S
C343 C344 1.398 1_554 S
C343 C349 1.491 1_655 S
C344 H335 0.950 . S
C344 C343 1.398 1_556 S
C344 C345 1.391 . S
C345 H333 0.950 . S
C345 C341 1.393 1_556 S
C345 C344 1.391 . S
C346 H336 0.950 . S
C346 C347 1.386 1_556 S
C346 C348 1.391 . S
C347 C346 1.386 1_554 S
C347 C351 1.393 . S
C348 H337 0.950 . S
C348 C346 1.391 . S
C348 C349 1.400 1_556 S
C349 C343 1.491 1_455 S
C349 C348 1.400 1_554 S
C349 C350 1.398 . S
C350 H338 0.950 . S
C350 C349 1.398 . S
C350 C351 1.391 . S
C351 H339 0.950 . S
C351 C347 1.393 . S
C351 C350 1.391 . S
H352 C360 0.950 . S
H353 C365 0.950 . S
H354 C362 0.950 . S
H355 C364 0.950 . S
H356 C366 0.950 . S
H357 C368 0.950 . S
H358 C370 0.950 . S
H359 C371 0.950 . S
C360 H352 0.950 . S
C360 C361 1.386 . S
C360 C362 1.391 . S
C361 C360 1.386 . S
C361 C365 1.393 . S
C362 H354 0.950 . S
C362 C360 1.391 . S
C362 C363 1.418 . S
C363 C362 1.418 . S
C363 C364 1.396 1_556 S
C363 C369 1.476 1_556 S
C364 H355 0.950 . S
C364 C363 1.396 1_554 S
C364 C365 1.391 1_554 S
C365 H353 0.950 . S
C365 C361 1.393 . S
C365 C364 1.391 1_556 S
C366 H356 0.950 . S
C366 C367 1.386 . S
C366 C368 1.391 . S
C367 C366 1.386 . S
C367 C371 1.393 . S
C368 H357 0.950 . S
C368 C366 1.391 . S
C368 C369 1.400 . S
C369 C363 1.476 1_554 S
C369 C368 1.400 . S
C369 C370 1.398 . S
C370 H358 0.950 . S
C370 C369 1.398 . S
C370 C371 1.391 . S
C371 H359 0.950 . S
C371 C367 1.393 . S
C371 C370 1.391 . S
H372 C380 0.950 . S
H373 C385 0.950 . S
H374 C382 0.950 . S
H375 C384 0.950 . S
H376 C386 0.950 . S
H377 C388 0.950 . S
H378 C390 0.950 . S
H379 C391 0.950 . S
C380 H372 0.950 . S
C380 C381 1.386 . S
C380 C382 1.391 . S
C381 C380 1.386 . S
C381 C385 1.393 . S
C382 H374 0.950 . S
C382 C380 1.391 . S
C382 C383 1.400 . S
C383 C382 1.400 . S
C383 C384 1.398 . S
C383 C389 1.491 . S
C384 H375 0.950 . S
C384 C383 1.398 . S
C384 C385 1.391 . S
C385 H373 0.950 . S
C385 C381 1.393 . S
C385 C384 1.391 . S
C386 H376 0.950 . S
C386 C387 1.386 . S
C386 C388 1.391 . S
C387 C386 1.386 . S
C387 C391 1.393 . S
C388 H377 0.950 . S
C388 C386 1.391 . S
C388 C389 1.400 . S
C389 C383 1.491 . S
C389 C388 1.400 . S
C389 C390 1.398 . S
C390 H378 0.950 . S
C390 C389 1.398 . S
C390 C391 1.391 . S
C391 H379 0.950 . S
C391 C387 1.393 . S
C391 C390 1.391 . S
H392 C400 0.950 . S
H393 C405 0.950 . S
H394 C402 0.950 . S
H395 C404 0.950 . S
H396 C406 0.950 . S
H397 C408 0.950 . S
H398 C410 0.950 . S
H399 C411 0.950 . S
C400 H392 0.950 . S
C400 C401 1.386 . S
C400 C402 1.391 . S
C401 C400 1.386 . S
C401 C405 1.393 . S
C402 H394 0.950 . S
C402 C400 1.391 . S
C402 C403 1.400 . S
C403 C402 1.400 . S
C403 C404 1.398 . S
C403 C409 1.491 . S
C404 H395 0.950 . S
C404 C403 1.398 . S
C404 C405 1.391 . S
C405 H393 0.950 . S
C405 C401 1.393 . S
C405 C404 1.391 . S
C406 H396 0.950 . S
C406 C407 1.386 . S
C406 C408 1.391 . S
C407 C406 1.386 . S
C407 C411 1.393 . S
C408 H397 0.950 . S
C408 C406 1.391 . S
C408 C409 1.400 . S
C409 C403 1.491 . S
C409 C408 1.400 . S
C409 C410 1.398 . S
C410 H398 0.950 . S
C410 C409 1.398 . S
C410 C411 1.391 . S
C411 H399 0.950 . S
C411 C407 1.393 . S
C411 C410 1.391 . S
H412 C420 0.950 . S
H413 C425 0.950 . S
H414 C422 0.950 . S
H415 C424 0.950 . S
H416 C426 0.950 . S
H417 C428 0.950 . S
H418 C430 0.950 . S
H419 C431 0.950 . S
C420 H412 0.950 . S
C420 C421 1.386 . S
C420 C422 1.391 . S
C421 C420 1.386 . S
C421 C425 1.393 . S
C422 H414 0.950 . S
C422 C420 1.391 . S
C422 C423 1.400 . S
C423 C422 1.400 . S
C423 C424 1.398 . S
C423 C429 1.491 . S
C424 H415 0.950 . S
C424 C423 1.398 . S
C424 C425 1.391 . S
C425 H413 0.950 . S
C425 C421 1.393 . S
C425 C424 1.391 . S
C426 H416 0.950 . S
C426 C427 1.386 . S
C426 C428 1.391 . S
C427 C426 1.386 . S
C427 C431 1.393 . S
C428 H417 0.950 . S
C428 C426 1.391 . S
C428 C429 1.400 . S
C429 C423 1.491 . S
C429 C428 1.400 . S
C429 C430 1.398 . S
C430 H418 0.950 . S
C430 C429 1.398 . S
C430 C431 1.391 . S
C431 H419 0.950 . S
C431 C427 1.393 . S
C431 C430 1.391 . S
C121 C4 1.363 . S
C127 C88 1.342 . S
C141 C18 1.342 . S
C147 C102 1.361 . S
C161 C60 1.367 . S
C167 C32 1.346 . S
C181 C74 1.366 . S
C187 C46 1.357 . S
C201 C5 1.145 . S
C207 C75 1.140 . S
C221 C19 1.148 . S
C227 C89 1.132 . S
C241 C103 1.141 1_556 S
C247 C33 1.144 . S
C261 C47 1.146 . S
C267 C61 1.121 . S
C281 C68 1.311 . S
C287 C12 1.307 . S
C301 C26 1.314 . S
C307 C82 1.305 . S
C321 C40 1.311 . S
C327 C96 1.314 . S
C341 C110 1.304 . S
C347 C54 1.317 . S
C361 C95 1.271 . S
C367 C11 1.296 . S
C381 C109 1.297 . S
C387 C25 1.276 . S
C401 C39 1.264 . S
C407 C67 1.284 . S
C421 C53 1.294 . S
C427 C81 1.268 . S
