# Generated by pormake.
# Topology ukh, (4)-cn, num edge types: 1
# Building blocks:
#     Node 0, Type 0, BuildingBlock: KUFVIS_clean_sbu_0, # of connection points: 4
#     Node 1, Type 0, BuildingBlock: KUFVIS_clean_sbu_0, # of connection points: 4
#     Node 2, Type 0, BuildingBlock: KUFVIS_clean_sbu_0, # of connection points: 4
#     Node 3, Type 0, BuildingBlock: KUFVIS_clean_sbu_0, # of connection points: 4
#     Node 4, Type 0, BuildingBlock: KUFVIS_clean_sbu_0, # of connection points: 4
#     Node 5, Type 0, BuildingBlock: KUFVIS_clean_sbu_0, # of connection points: 4
#     Node 6, Type 0, BuildingBlock: KUFVIS_clean_sbu_0, # of connection points: 4
#     Node 7, Type 0, BuildingBlock: KUFVIS_clean_sbu_0, # of connection points: 4
#     Node 8, Type 0, BuildingBlock: KUFVIS_clean_sbu_0, # of connection points: 4
#     Node 9, Type 0, BuildingBlock: KUFVIS_clean_sbu_0, # of connection points: 4
#     Node 10, Type 0, BuildingBlock: KUFVIS_clean_sbu_0, # of connection points: 4
#     Node 11, Type 0, BuildingBlock: KUFVIS_clean_sbu_0, # of connection points: 4
#     Edge 12, Type (0, 0), BuildingBlock: KIFKEQ_clean_linker_1, # of connection points: 2
#     Edge 13, Type (0, 0), BuildingBlock: KIFKEQ_clean_linker_1, # of connection points: 2
#     Edge 14, Type (0, 0), BuildingBlock: KIFKEQ_clean_linker_1, # of connection points: 2
#     Edge 15, Type (0, 0), BuildingBlock: KIFKEQ_clean_linker_1, # of connection points: 2
#     Edge 16, Type (0, 0), BuildingBlock: KIFKEQ_clean_linker_1, # of connection points: 2
#     Edge 17, Type (0, 0), BuildingBlock: KIFKEQ_clean_linker_1, # of connection points: 2
#     Edge 18, Type (0, 0), BuildingBlock: KIFKEQ_clean_linker_1, # of connection points: 2
#     Edge 19, Type (0, 0), BuildingBlock: KIFKEQ_clean_linker_1, # of connection points: 2
#     Edge 20, Type (0, 0), BuildingBlock: KIFKEQ_clean_linker_1, # of connection points: 2
#     Edge 21, Type (0, 0), BuildingBlock: KIFKEQ_clean_linker_1, # of connection points: 2
#     Edge 22, Type (0, 0), BuildingBlock: KIFKEQ_clean_linker_1, # of connection points: 2
#     Edge 23, Type (0, 0), BuildingBlock: KIFKEQ_clean_linker_1, # of connection points: 2
#     Edge 24, Type (0, 0), BuildingBlock: KIFKEQ_clean_linker_1, # of connection points: 2
#     Edge 25, Type (0, 0), BuildingBlock: KIFKEQ_clean_linker_1, # of connection points: 2
#     Edge 26, Type (0, 0), BuildingBlock: KIFKEQ_clean_linker_1, # of connection points: 2
#     Edge 27, Type (0, 0), BuildingBlock: KIFKEQ_clean_linker_1, # of connection points: 2
#     Edge 28, Type (0, 0), BuildingBlock: KIFKEQ_clean_linker_1, # of connection points: 2
#     Edge 29, Type (0, 0), BuildingBlock: KIFKEQ_clean_linker_1, # of connection points: 2
#     Edge 30, Type (0, 0), BuildingBlock: KIFKEQ_clean_linker_1, # of connection points: 2
#     Edge 31, Type (0, 0), BuildingBlock: KIFKEQ_clean_linker_1, # of connection points: 2
#     Edge 32, Type (0, 0), BuildingBlock: KIFKEQ_clean_linker_1, # of connection points: 2
#     Edge 33, Type (0, 0), BuildingBlock: KIFKEQ_clean_linker_1, # of connection points: 2
#     Edge 34, Type (0, 0), BuildingBlock: KIFKEQ_clean_linker_1, # of connection points: 2
#     Edge 35, Type (0, 0), BuildingBlock: KIFKEQ_clean_linker_1, # of connection points: 2
# Relax obj value: 0.085
# Max RMSD: 0.125
# Mean RMSD: 0.125
data_MOF--net-ukh--node1-KUFVIS_clean_sbu_0--edge1-KIFKEQ_clean_linker_1
_symmetry_space_group_name_H-M    P1
_symmetry_Int_Tables_number       1
_symmetry_cell_setting            triclinic
loop_
_symmetry_equiv_pos_as_xyz
'x, y, z'
_cell_length_a     32.821016
_cell_length_b     32.842141
_cell_length_c     61.972579
_cell_angle_alpha  89.983262
_cell_angle_beta   90.044062
_cell_angle_gamma 120.06425
loop_
_atom_site_label
_atom_site_type_symbol
_atom_site_fract_x
_atom_site_fract_y
_atom_site_fract_z
_atom_type_partial_charge
Mn0 Mn 0.32068 0.22418 0.04991 0.0
Mn1 Mn 0.27514 0.2784 0.07947 0.0
C2 C 0.26294 0.2367 0.03547 0.0
C3 C 0.31601 0.15301 0.03952 0.0
C4 C 0.37024 0.33115 0.05717 0.0
O5 O 0.34195 0.22073 0.08045 0.0
O6 O 0.30591 0.25327 0.09858 0.0
C7 C 0.20091 0.19477 0.10222 0.0
N8 N 0.21382 0.23307 0.08945 0.0
C9 C 0.13429 0.21837 0.08819 0.0
C10 C 0.12015 0.17888 0.10142 0.0
C11 C 0.15359 0.16694 0.1084 0.0
C12 C 0.18188 0.24462 0.08248 0.0
H13 H 0.22656 0.1856 0.10767 0.0
C14 C 0.33094 0.23337 0.09796 0.0
O15 O 0.35464 0.19306 0.03693 0.0
O16 O 0.28143 0.15442 0.04874 0.0
N17 N 0.24391 0.3044 0.06329 0.0
C18 C 0.26291 0.34225 0.0498 0.0
C19 C 0.23426 0.35893 0.04142 0.0
C20 C 0.18648 0.33675 0.04711 0.0
C21 C 0.16755 0.29752 0.06083 0.0
C22 C 0.19796 0.28282 0.06887 0.0
H23 H 0.29959 0.35951 0.04539 0.0
O24 O 0.28991 0.22887 0.02298 0.0
O25 O 0.26993 0.23623 0.05607 0.0
O26 O 0.36996 0.2956 0.04839 0.0
O27 O 0.33723 0.32758 0.06935 0.0
C28 C 0.11968 0.27226 0.06676 0.0
C29 C 0.103 0.23251 0.0803 0.0
H30 H 0.0837 0.15736 0.10624 0.0
H31 H 0.14292 0.13643 0.11856 0.0
H32 H 0.24901 0.38896 0.03069 0.0
H33 H 0.16471 0.35015 0.04079 0.0
H34 H 0.09528 0.28276 0.0608 0.0
H35 H 0.06601 0.21301 0.0845 0.0
Mn36 Mn 0.09076 0.3208 0.3822 0.0
Mn37 Mn 0.99123 0.27256 0.41194 0.0
C38 C 0.0199 0.26648 0.36689 0.0
C39 C 0.15656 0.31562 0.37112 0.0
C40 C 0.03684 0.3717 0.3935 0.0
O41 O 0.11515 0.3375 0.41312 0.0
O42 O 0.04674 0.29713 0.43123 0.0
C43 C 0.9964 0.19166 0.42977 0.0
N44 N 0.9726 0.2087 0.41843 0.0
C45 C 0.907 0.13073 0.41282 0.0
C46 C 0.93069 0.11233 0.42454 0.0
C47 C 0.97565 0.14294 0.43299 0.0
C48 C 0.92953 0.17956 0.41006 0.0
H49 H 0.03098 0.2151 0.43627 0.0
C50 C 0.09167 0.32274 0.43064 0.0
O51 O 0.15636 0.35504 0.36964 0.0
O52 O 0.11961 0.28039 0.37941 0.0
N53 N 0.93439 0.24711 0.39542 0.0
C54 C 0.91657 0.27049 0.38428 0.0
C55 C 0.87174 0.24503 0.37486 0.0
C56 C 0.84551 0.19592 0.37719 0.0
C57 C 0.86437 0.17267 0.38891 0.0
C58 C 0.90905 0.19995 0.3981 0.0
H59 H 0.93633 0.30829 0.38263 0.0
O60 O 0.05516 0.29406 0.35472 0.0
O61 O 0.02756 0.2708 0.38751 0.0
O62 O 0.06998 0.371 0.38282 0.0
O63 O 0.00755 0.3376 0.40531 0.0
C64 C 0.84067 0.1235 0.39179 0.0
C65 C 0.8621 0.10252 0.40361 0.0
H66 H 0.9148 0.07478 0.42707 0.0
H67 H 0.99423 0.129 0.44198 0.0
H68 H 0.85737 0.26323 0.36588 0.0
H69 H 0.8109 0.17649 0.36994 0.0
H70 H 0.80609 0.10145 0.38486 0.0
H71 H 0.84376 0.06465 0.40551 0.0
Mn72 Mn 0.78036 0.09427 0.71692 0.0
Mn73 Mn 0.72812 0.99589 0.74755 0.0
C74 C 0.76555 0.02302 0.70282 0.0
C75 C 0.85137 0.16013 0.70565 0.0
C76 C 0.67396 0.03771 0.72613 0.0
O77 O 0.78646 0.12042 0.74733 0.0
O78 O 0.75527 0.05268 0.76611 0.0
C79 C 0.81436 0.00671 0.76822 0.0
N80 N 0.77468 0.98059 0.75634 0.0
C81 C 0.79088 0.91697 0.75356 0.0
C82 C 0.83179 0.94308 0.76588 0.0
C83 C 0.84365 0.98821 0.77318 0.0
C84 C 0.76323 0.93737 0.74902 0.0
H85 H 0.82359 0.04142 0.77385 0.0
C86 C 0.77521 0.09757 0.76508 0.0
O87 O 0.8114 0.15905 0.70349 0.0
O88 O 0.84997 0.12408 0.71478 0.0
N89 N 0.70022 0.93775 0.73199 0.0
C90 C 0.65971 0.91726 0.72019 0.0
C91 C 0.64225 0.87154 0.71214 0.0
C92 C 0.66642 0.84724 0.7164 0.0
C93 C 0.7081 0.86903 0.72853 0.0
C94 C 0.72336 0.91436 0.73644 0.0
H95 H 0.64089 0.93564 0.71688 0.0
O96 O 0.77318 0.05743 0.6901 0.0
O97 O 0.76788 0.0316 0.72335 0.0
O98 O 0.70893 0.07235 0.71662 0.0
O99 O 0.67821 0.00871 0.73839 0.0
C100 C 0.73503 0.84754 0.73312 0.0
C101 C 0.77658 0.87164 0.74549 0.0
H102 H 0.85444 0.92891 0.76976 0.0
H103 H 0.87526 0.00864 0.78263 0.0
H104 H 0.61014 0.855 0.70273 0.0
H105 H 0.65249 0.8118 0.71035 0.0
H106 H 0.72429 0.81264 0.72708 0.0
H107 H 0.79723 0.85494 0.74875 0.0
Mn108 Mn 0.6893 0.77214 0.04838 0.0
Mn109 Mn 0.7359 0.7196 0.07844 0.0
C110 C 0.74575 0.7579 0.03387 0.0
C111 C 0.69424 0.84321 0.03755 0.0
C112 C 0.6394 0.66581 0.05732 0.0
O113 O 0.66968 0.7776 0.07897 0.0
O114 O 0.70727 0.74706 0.09743 0.0
C115 C 0.81258 0.8051 0.09904 0.0
N116 N 0.79826 0.76555 0.08699 0.0
C117 C 0.87769 0.78059 0.08382 0.0
C118 C 0.89329 0.82137 0.0963 0.0
C119 C 0.8606 0.83374 0.10388 0.0
C120 C 0.82946 0.75358 0.07943 0.0
H121 H 0.78754 0.81469 0.1049 0.0
C122 C 0.6821 0.76678 0.09662 0.0
O123 O 0.65529 0.80326 0.03535 0.0
O124 O 0.72905 0.84174 0.04649 0.0
N125 N 0.76521 0.69148 0.06237 0.0
C126 C 0.74452 0.6515 0.05023 0.0
C127 C 0.77218 0.63381 0.04172 0.0
C128 C 0.82074 0.65719 0.04588 0.0
C129 C 0.84133 0.69838 0.05835 0.0
C130 C 0.81185 0.71395 0.06666 0.0
H131 H 0.70721 0.63321 0.04703 0.0
O132 O 0.7187 0.76561 0.02135 0.0
O133 O 0.73969 0.75975 0.05445 0.0
O134 O 0.63977 0.70076 0.04781 0.0
O135 O 0.67269 0.6701 0.06958 0.0
C136 C 0.88991 0.72458 0.06285 0.0
C137 C 0.90813 0.76585 0.07544 0.0
H138 H 0.93029 0.84352 0.10008 0.0
H139 H 0.87239 0.86525 0.11345 0.0
H140 H 0.75608 0.60211 0.03205 0.0
H141 H 0.84178 0.64306 0.03948 0.0
H142 H 0.91363 0.71353 0.05657 0.0
H143 H 0.9456 0.78598 0.0786 0.0
Mn144 Mn 0.91829 0.69313 0.38213 0.0
Mn145 Mn 0.01766 0.74094 0.41207 0.0
C146 C 0.98926 0.7478 0.36703 0.0
C147 C 0.85245 0.69827 0.37098 0.0
C148 C 0.97216 0.64209 0.39333 0.0
O149 O 0.89368 0.67589 0.41299 0.0
O150 O 0.96203 0.71602 0.43122 0.0
C151 C 0.01233 0.82152 0.43017 0.0
N152 N 0.03626 0.80466 0.41882 0.0
C153 C 0.10229 0.88263 0.41388 0.0
C154 C 0.07847 0.90084 0.42561 0.0
C155 C 0.03322 0.87015 0.43372 0.0
C156 C 0.07957 0.8339 0.41075 0.0
H157 H 0.97757 0.79799 0.43643 0.0
C158 C 0.91713 0.69033 0.43055 0.0
O159 O 0.8528 0.65893 0.36943 0.0
O160 O 0.88929 0.73345 0.37941 0.0
N161 N 0.07467 0.76666 0.39573 0.0
C162 C 0.09259 0.74344 0.38455 0.0
C163 C 0.13774 0.76898 0.37548 0.0
C164 C 0.1642 0.81797 0.37822 0.0
C165 C 0.1452 0.84106 0.38994 0.0
C166 C 0.10017 0.8137 0.39875 0.0
H167 H 0.07268 0.70571 0.38262 0.0
O168 O 0.9541 0.72037 0.35477 0.0
O169 O 0.98148 0.74313 0.38764 0.0
O170 O 0.9391 0.64294 0.38262 0.0
O171 O 1.00141 0.67604 0.40523 0.0
C172 C 0.16913 0.89011 0.39325 0.0
C173 C 0.14754 0.91092 0.40506 0.0
H174 H 0.0945 0.93833 0.42841 0.0
H175 H 0.01455 0.88396 0.44272 0.0
H176 H 0.15221 0.75091 0.36649 0.0
H177 H 0.19912 0.83742 0.3713 0.0
H178 H 0.20404 0.91222 0.38668 0.0
H179 H 0.16607 0.94872 0.40728 0.0
Mn180 Mn 0.23311 0.91707 0.71649 0.0
Mn181 Mn 0.28535 0.01564 0.74699 0.0
C182 C 0.24821 0.98825 0.70218 0.0
C183 C 0.16203 0.8512 0.70527 0.0
C184 C 0.33938 0.97328 0.72597 0.0
O185 O 0.22684 0.89125 0.74698 0.0
O186 O 0.25759 0.95904 0.76572 0.0
C187 C 0.19921 0.00583 0.76724 0.0
N188 N 0.23905 0.03154 0.75542 0.0
C189 C 0.22347 0.0955 0.75217 0.0
C190 C 0.1824 0.06982 0.76441 0.0
C191 C 0.17015 0.02473 0.77192 0.0
C192 C 0.25089 0.07474 0.74793 0.0
H193 H 0.18968 0.97114 0.77303 0.0
C194 C 0.23766 0.91412 0.76473 0.0
O195 O 0.20195 0.85214 0.70321 0.0
O196 O 0.16353 0.88742 0.71425 0.0
N197 N 0.31376 0.07355 0.73123 0.0
C198 C 0.35423 0.09351 0.71943 0.0
C199 C 0.37194 0.13905 0.71111 0.0
C200 C 0.34804 0.16372 0.71509 0.0
C201 C 0.30641 0.14248 0.72723 0.0
C202 C 0.29087 0.0973 0.73541 0.0
H203 H 0.37281 0.07482 0.71631 0.0
O204 O 0.24051 0.95367 0.68956 0.0
O205 O 0.24575 0.97985 0.72273 0.0
O206 O 0.30448 0.93878 0.71633 0.0
O207 O 0.33509 1.00229 0.73818 0.0
C208 C 0.27972 0.16435 0.73154 0.0
C209 C 0.2381 0.14074 0.74387 0.0
H210 H 0.15991 0.08429 0.76808 0.0
H211 H 0.13842 0.00462 0.78132 0.0
H212 H 0.404 0.15514 0.70169 0.0
H213 H 0.36212 0.19901 0.70881 0.0
H214 H 0.29068 0.19916 0.7253 0.0
H215 H 0.21762 0.15771 0.7469 0.0
Mn216 Mn 0.78023 0.68945 0.62263 0.0
Mn217 Mn 0.72914 0.73797 0.59296 0.0
C218 C 0.76428 0.74406 0.63795 0.0
C219 C 0.85146 0.69477 0.63364 0.0
C220 C 0.67516 0.6388 0.61138 0.0
O221 O 0.78756 0.67261 0.59169 0.0
O222 O 0.75975 0.71326 0.57367 0.0
C223 C 0.81548 0.81872 0.57514 0.0
N224 N 0.77461 0.80177 0.58645 0.0
C225 C 0.78707 0.87976 0.59181 0.0
C226 C 0.8292 0.89807 0.58011 0.0
C227 C 0.84354 0.86741 0.57181 0.0
C228 C 0.76075 0.83097 0.59471 0.0
H229 H 0.82656 0.79522 0.56873 0.0
C230 C 0.77877 0.68745 0.5742 0.0
O231 O 0.81175 0.65533 0.63519 0.0
O232 O 0.84965 0.72987 0.6253 0.0
N233 N 0.698 0.76354 0.60947 0.0
C234 C 0.65673 0.74022 0.62059 0.0
C235 C 0.63728 0.76571 0.62982 0.0
C236 C 0.66013 0.81476 0.62731 0.0
C237 C 0.70236 0.83796 0.61565 0.0
C238 C 0.71985 0.81066 0.60667 0.0
H239 H 0.63866 0.70245 0.62234 0.0
O240 O 0.77183 0.71641 0.65011 0.0
O241 O 0.76733 0.73958 0.61734 0.0
O242 O 0.70895 0.63931 0.62208 0.0
O243 O 0.68021 0.67301 0.5996 0.0
C244 C 0.72781 0.88708 0.61258 0.0
C245 C 0.77032 0.908 0.60082 0.0
H246 H 0.8509 0.9356 0.57749 0.0
H247 H 0.87609 0.88129 0.56284 0.0
H248 H 0.60464 0.74756 0.63876 0.0
H249 H 0.64479 0.83418 0.63434 0.0
H250 H 0.71518 0.90916 0.6193 0.0
H251 H 0.78984 0.94584 0.59879 0.0
Mn252 Mn 0.09596 0.77355 0.95504 0.0
Mn253 Mn 0.99717 0.72103 0.92465 0.0
C254 C 0.02492 0.75889 0.96933 0.0
C255 C 0.16191 0.84447 0.96626 0.0
C256 C 0.03955 0.66725 0.94593 0.0
O257 O 0.12165 0.77958 0.92452 0.0
O258 O 0.05367 0.74881 0.90587 0.0
C259 C 0.0064 0.80668 0.90413 0.0
N260 N 0.98092 0.76699 0.91607 0.0
C261 C 0.91651 0.78199 0.91912 0.0
C262 C 0.94195 0.82291 0.90675 0.0
C263 C 0.98716 0.83537 0.89929 0.0
C264 C 0.93762 0.75494 0.92352 0.0
H265 H 0.04115 0.81637 0.89836 0.0
C266 C 0.09862 0.76881 0.90681 0.0
O267 O 0.16087 0.80454 0.96835 0.0
O268 O 0.12581 0.8431 0.95716 0.0
N269 N 0.93939 0.69265 0.9405 0.0
C270 C 0.91979 0.65247 0.9525 0.0
C271 C 0.87426 0.63467 0.96088 0.0
C272 C 0.84923 0.65814 0.95672 0.0
C273 C 0.87011 0.69948 0.94437 0.0
C274 C 0.91533 0.71516 0.93618 0.0
H275 H 0.93868 0.63409 0.95568 0.0
O276 O 0.05951 0.76654 0.98195 0.0
O277 O 0.03317 0.76103 0.94877 0.0
O278 O 0.07408 0.70221 0.9555 0.0
O279 O 0.01072 0.67151 0.93355 0.0
C280 C 0.84787 0.72574 0.93987 0.0
C281 C 0.87119 0.76716 0.92738 0.0
H282 H 0.92722 0.8451 0.90297 0.0
H283 H 0.00708 0.86699 0.8898 0.0
H284 H 0.85843 0.60282 0.97044 0.0
H285 H 0.81393 0.64393 0.96303 0.0
H286 H 0.81298 0.71462 0.94606 0.0
H287 H 0.85394 0.78732 0.92422 0.0
Mn288 Mn 0.32416 0.09943 0.2894 0.0
Mn289 Mn 0.28384 1.00094 0.25904 0.0
C290 C 0.26864 0.02713 0.30302 0.0
C291 C 0.31587 0.16354 0.3003 0.0
C292 C 0.3772 0.04506 0.28284 0.0
O293 O 0.34546 0.12625 0.25923 0.0
O294 O 0.31685 0.05826 0.24089 0.0
C295 C 0.21272 0.01331 0.23498 0.0
N296 N 0.22371 0.98654 0.24786 0.0
C297 C 0.14285 0.92417 0.24869 0.0
C298 C 0.13075 0.95097 0.23535 0.0
C299 C 0.16582 0.99579 0.22852 0.0
C300 C 0.19011 0.94364 0.25474 0.0
H301 H 0.23949 0.04781 0.22972 0.0
C302 C 0.33866 0.10326 0.24172 0.0
O303 O 0.3554 0.16397 0.30295 0.0
O304 O 0.28231 0.12697 0.29087 0.0
N305 N 0.25026 0.94206 0.27391 0.0
C306 C 0.26801 0.91977 0.28591 0.0
C307 C 0.23788 0.87392 0.2934 0.0
C308 C 0.18985 0.85106 0.28816 0.0
C309 C 0.1724 0.87427 0.27546 0.0
C310 C 0.20432 0.91975 0.26823 0.0
H311 H 0.30492 0.93664 0.28953 0.0
O312 O 0.29385 0.06182 0.31593 0.0
O313 O 0.27584 0.03586 0.28253 0.0
O314 O 0.37578 0.08057 0.29058 0.0
O315 O 0.34488 0.01341 0.27099 0.0
C316 C 0.12471 0.85385 0.26948 0.0
C317 C 0.10988 0.87894 0.25624 0.0
H318 H 0.09464 0.93753 0.23028 0.0
H319 H 0.15674 0.01676 0.21828 0.0
H320 H 0.25174 0.85609 0.30301 0.0
H321 H 0.16689 0.81542 0.29367 0.0
H322 H 0.09916 0.8189 0.27501 0.0
H323 H 0.07309 0.86297 0.25183 0.0
Mn324 Mn 0.23216 0.3213 0.62204 0.0
Mn325 Mn 0.28302 0.27335 0.59187 0.0
C326 C 0.24847 0.26662 0.63702 0.0
C327 C 0.1611 0.31584 0.63336 0.0
C328 C 0.33713 0.3722 0.61063 0.0
O329 O 0.22431 0.33846 0.59122 0.0
O330 O 0.25208 0.29825 0.57284 0.0
C331 C 0.19655 0.19278 0.57398 0.0
N332 N 0.23753 0.20961 0.58522 0.0
C333 C 0.22505 0.13155 0.59036 0.0
C334 C 0.18282 0.11337 0.57873 0.0
C335 C 0.16845 0.14412 0.57057 0.0
C336 C 0.25145 0.18032 0.59334 0.0
H337 H 0.18542 0.21634 0.56769 0.0
C338 C 0.23287 0.32388 0.57361 0.0
O339 O 0.20082 0.35526 0.63491 0.0
O340 O 0.16278 0.28082 0.62486 0.0
N341 N 0.31441 0.2476 0.60812 0.0
C342 C 0.3558 0.27079 0.61918 0.0
C343 C 0.37525 0.24518 0.62829 0.0
C344 C 0.35229 0.19614 0.62572 0.0
C345 C 0.30996 0.17307 0.6141 0.0
C346 C 0.29248 0.2005 0.60523 0.0
H347 H 0.37393 0.30855 0.621 0.0
O348 O 0.24101 0.29408 0.64934 0.0
O349 O 0.2451 0.27129 0.61643 0.0
O350 O 0.3034 0.37149 0.62143 0.0
O351 O 0.332 0.33823 0.59866 0.0
C352 C 0.2844 0.12397 0.61098 0.0
C353 C 0.2418 0.1032 0.59926 0.0
H354 H 0.16106 0.07587 0.57605 0.0
H355 H 0.13581 0.13034 0.56165 0.0
H356 H 0.40798 0.26323 0.6372 0.0
H357 H 0.36759 0.17661 0.6327 0.0
H358 H 0.297 0.10181 0.61766 0.0
H359 H 0.2222 0.06536 0.59719 0.0
Mn360 Mn 0.91458 0.2253 0.95596 0.0
Mn361 Mn 0.01427 0.27945 0.92627 0.0
C362 C 0.98495 0.2378 0.97027 0.0
C363 C 0.84804 0.15394 0.96632 0.0
C364 C 0.97229 0.33231 0.94867 0.0
O365 O 0.88965 0.22177 0.9255 0.0
O366 O 0.95817 0.25455 0.90725 0.0
C367 C 1.00417 0.19582 0.90332 0.0
N368 N 0.02985 0.23401 0.91613 0.0
C369 C 0.09441 0.21894 0.91721 0.0
C370 C 0.06876 0.17956 0.90393 0.0
C371 C 0.02337 0.16786 0.89703 0.0
C372 C 0.07336 0.24534 0.92302 0.0
H373 H 0.96934 0.18682 0.89794 0.0
C374 C 0.91319 0.23455 0.90795 0.0
O375 O 0.84943 0.19391 0.96902 0.0
O376 O 0.88409 0.15557 0.95708 0.0
N377 N 0.07168 0.30519 0.94235 0.0
C378 C 0.09078 0.34286 0.95595 0.0
C379 C 0.13612 0.35924 0.96431 0.0
C380 C 0.16145 0.3369 0.95851 0.0
C381 C 0.14089 0.29784 0.94469 0.0
C382 C 0.09579 0.28345 0.93667 0.0
H383 H 0.07149 0.36014 0.96049 0.0
O384 O 0.95025 0.23004 0.98282 0.0
O385 O 0.97735 0.23733 0.94968 0.0
O386 O 0.93687 0.29678 0.95745 0.0
O387 O 1.00175 0.3287 0.93653 0.0
C388 C 0.1632 0.27241 0.93867 0.0
C389 C 0.13984 0.2328 0.92506 0.0
H390 H 0.08346 0.15793 0.89903 0.0
H391 H 1.0033 0.13744 0.88684 0.0
H392 H 0.15158 0.38912 0.97513 0.0
H393 H 0.19662 0.35004 0.96483 0.0
H394 H 0.19808 0.28267 0.94461 0.0
H395 H 0.1571 0.21316 0.92078 0.0
Mn396 Mn 0.68909 0.91491 0.28672 0.0
Mn397 Mn 0.73486 0.01258 0.25571 0.0
C398 C 0.74407 0.98667 0.30096 0.0
C399 C 0.69513 0.84987 0.29828 0.0
C400 C 0.63729 0.96824 0.27574 0.0
O401 O 0.67027 0.88865 0.2562 0.0
O402 O 0.7092 0.95591 0.23716 0.0
C403 C 0.8148 0.00654 0.23724 0.0
N404 N 0.79837 0.03095 0.24849 0.0
C405 C 0.87669 0.09673 0.25306 0.0
C406 C 0.89445 0.07241 0.24141 0.0
C407 C 0.86337 0.02707 0.23352 0.0
C408 C 0.82799 0.07441 0.25632 0.0
H409 H 0.791 0.97164 0.23119 0.0
C410 C 0.68383 0.91105 0.23836 0.0
O411 O 0.65576 0.85014 0.30012 0.0
O412 O 0.72977 0.88629 0.28933 0.0
N413 N 0.76121 0.07042 0.27145 0.0
C414 C 0.7384 0.08902 0.28246 0.0
C415 C 0.76436 0.13439 0.29125 0.0
C416 C 0.81338 0.16037 0.28843 0.0
C417 C 0.83603 0.14074 0.27683 0.0
C418 C 0.80824 0.09557 0.26823 0.0
H419 H 0.70068 0.06945 0.2845 0.0
O420 O 0.71755 0.95202 0.31364 0.0
O421 O 0.73853 0.97788 0.28043 0.0
O422 O 0.6389 0.93571 0.28656 0.0
O423 O 0.67023 0.99659 0.26317 0.0
C424 C 0.88507 0.16416 0.27349 0.0
C425 C 0.90542 0.14205 0.26173 0.0
H426 H 0.93189 0.08811 0.23851 0.0
H427 H 0.87683 0.008 0.22459 0.0
H428 H 0.74662 0.14936 0.30013 0.0
H429 H 0.8332 0.1954 0.2952 0.0
H430 H 0.90751 0.19904 0.28002 0.0
H431 H 0.94322 0.16021 0.25946 0.0
H432 H 0.6362 0.58399 0.06871 0.0
H433 H 0.55279 0.63602 0.03803 0.0
H434 H 0.57241 0.50398 0.06437 0.0
H435 H 0.48799 0.55468 0.03392 0.0
H436 H 0.37084 0.41323 0.0646 0.0
H437 H 0.43503 0.49312 0.06057 0.0
H438 H 0.5244 0.44137 0.03702 0.0
H439 H 0.45917 0.36012 0.04081 0.0
C440 C 0.60437 0.57854 0.06085 0.0
C441 C 0.59978 0.61693 0.05381 0.0
C442 C 0.56784 0.53232 0.0582 0.0
C443 C 0.52522 0.52285 0.0487 0.0
C444 C 0.52051 0.56093 0.04134 0.0
C445 C 0.55756 0.6075 0.04371 0.0
C446 C 0.40383 0.41843 0.05826 0.0
C447 C 0.4097 0.37982 0.05314 0.0
C448 C 0.44064 0.46457 0.0558 0.0
C449 C 0.48478 0.47372 0.04844 0.0
C450 C 0.4907 0.43537 0.04281 0.0
C451 C 0.45338 0.38886 0.04495 0.0
H452 H 0.99602 0.39898 0.42377 0.0
H453 H 0.06088 0.43736 0.3608 0.0
H454 H 0.97836 0.46225 0.42205 0.0
H455 H 0.04294 0.5018 0.35916 0.0
H456 H 0.94896 0.57699 0.36043 0.0
H457 H 0.96675 0.51244 0.35889 0.0
H458 H 0.02925 0.55064 0.42227 0.0
H459 H 0.01175 0.61402 0.42388 0.0
C460 C 0.00674 0.42109 0.40953 0.0
C461 C 0.03015 0.41318 0.39246 0.0
C462 C 0.99656 0.45744 0.40858 0.0
C463 C 0.00917 0.48694 0.39048 0.0
C464 C 0.0325 0.47928 0.37326 0.0
C465 C 0.04328 0.44288 0.37431 0.0
C466 C 0.96606 0.57115 0.37406 0.0
C467 C 0.97869 0.60052 0.39231 0.0
C468 C 0.97675 0.53467 0.37307 0.0
C469 C 0.99947 0.52661 0.39046 0.0
C470 C 0.01153 0.55576 0.40867 0.0
C471 C 1.00145 0.59218 0.40956 0.0
H472 H 0.42147 0.05254 0.7367 0.0
H473 H 0.36877 0.9151 0.708 0.0
H474 H 0.50144 0.06832 0.73276 0.0
H475 H 0.45004 0.93109 0.70447 0.0
H476 H 0.59186 0.95816 0.7365 0.0
H477 H 0.51189 0.94236 0.73251 0.0
H478 H 0.56332 0.08002 0.70469 0.0
H479 H 0.64459 0.09602 0.70827 0.0
C480 C 0.42676 0.02564 0.72935 0.0
C481 C 0.38822 0.9823 0.7227 0.0
C482 C 0.47294 0.03505 0.72696 0.0
C483 C 0.48215 1.00117 0.7182 0.0
C484 C 0.44393 0.95793 0.71129 0.0
C485 C 0.39742 0.94875 0.71332 0.0
C486 C 0.58658 0.98514 0.72923 0.0
C487 C 0.62512 0.02861 0.72274 0.0
C488 C 0.5404 0.97573 0.72682 0.0
C489 C 0.53119 0.00974 0.71819 0.0
C490 C 0.56942 0.05309 0.71141 0.0
C491 C 0.61593 0.06227 0.71347 0.0
H492 H 0.608 0.61142 0.58062 0.0
H493 H 0.63193 0.5737 0.64424 0.0
H494 H 0.52646 0.54927 0.58212 0.0
H495 H 0.54889 0.51019 0.64564 0.0
H496 H 0.37991 0.43702 0.64365 0.0
H497 H 0.46295 0.50036 0.64542 0.0
H498 H 0.48651 0.4616 0.58207 0.0
H499 H 0.40495 0.39961 0.5802 0.0
C500 C 0.59591 0.58962 0.59495 0.0
C501 C 0.62672 0.59748 0.61229 0.0
C502 C 0.54902 0.55388 0.59577 0.0
C503 C 0.53115 0.52483 0.61399 0.0
C504 C 0.56167 0.53234 0.63145 0.0
C505 C 0.60924 0.56819 0.63054 0.0
C506 C 0.40284 0.44254 0.63006 0.0
C507 C 0.38565 0.4134 0.61174 0.0
C508 C 0.45042 0.4783 0.63119 0.0
C509 C 0.48126 0.48587 0.61388 0.0
C510 C 0.4637 0.45694 0.59561 0.0
C511 C 0.41678 0.4213 0.59457 0.0
H512 H 0.05464 0.41415 0.94209 0.0
H513 H 0.91166 0.36163 0.96372 0.0
H514 H 0.07053 0.49412 0.94543 0.0
H515 H 0.92788 0.44305 0.96678 0.0
H516 H 0.96157 0.58534 0.93377 0.0
H517 H 0.94464 0.50531 0.93882 0.0
H518 H 0.07776 0.55618 0.97135 0.0
H519 H 0.09501 0.63749 0.96651 0.0
C520 C 0.02656 0.41951 0.94785 0.0
C521 C 0.98162 0.38103 0.95256 0.0
C522 C 0.03598 0.46571 0.9499 0.0
C523 C 1.00062 0.47507 0.9564 0.0
C524 C 0.95587 0.43688 0.96165 0.0
C525 C 0.94657 0.39028 0.95995 0.0
C526 C 0.98737 0.57992 0.9422 0.0
C527 C 0.03 0.61835 0.94963 0.0
C528 C 0.97724 0.53369 0.94527 0.0
C529 C 0.00961 0.52425 0.95559 0.0
C530 C 0.05208 0.56238 0.96329 0.0
C531 C 0.06202 0.60895 0.96049 0.0
H532 H 0.37756 0.97141 0.30264 0.0
H533 H 0.46935 0.1053 0.2728 0.0
H534 H 0.44028 0.95246 0.30234 0.0
H535 H 0.5336 0.08765 0.27342 0.0
H536 H 0.60972 0.01381 0.24792 0.0
H537 H 0.55023 0.03592 0.25306 0.0
H538 H 0.51513 0.96647 0.31508 0.0
H539 H 0.57468 0.94325 0.30965 0.0
C540 C 0.41144 0.99706 0.29624 0.0
C541 C 0.4183 0.03934 0.2873 0.0
C542 C 0.44773 0.98647 0.29633 0.0
C543 C 0.49191 0.01806 0.28748 0.0
C544 C 0.49968 0.06194 0.27991 0.0
C545 C 0.46318 0.07246 0.27981 0.0
C546 C 0.58925 1.00295 0.26266 0.0
C547 C 0.59707 0.97666 0.27838 0.0
C548 C 0.55539 0.01621 0.26572 0.0
C549 C 0.52833 1.00387 0.28467 0.0
C550 C 0.53525 0.97657 0.30025 0.0
C551 C 0.56921 0.96302 0.29711 0.0
H552 H 0.33416 0.06658 0.20168 0.0
H553 H 0.37437 0.1978 0.23429 0.0
H554 H 0.34376 0.10464 0.16712 0.0
H555 H 0.38545 0.23644 0.19937 0.0
H556 H 0.31644 0.25756 0.13818 0.0
H557 H 0.33058 0.23242 0.17267 0.0
H558 H 0.39322 0.16052 0.1404 0.0
H559 H 0.37776 0.18472 0.1055 0.0
C560 C 0.34604 0.10386 0.20152 0.0
C561 C 0.35269 0.1289 0.22087 0.0
C562 C 0.352 0.12585 0.18158 0.0
C563 C 0.36495 0.17354 0.18041 0.0
C564 C 0.37464 0.19942 0.19972 0.0
C565 C 0.36856 0.17733 0.21974 0.0
C566 C 0.33373 0.23682 0.13831 0.0
C567 C 0.34532 0.22262 0.11895 0.0
C568 C 0.34232 0.22279 0.15822 0.0
C569 C 0.36289 0.19427 0.15937 0.0
C570 C 0.37672 0.18198 0.14007 0.0
C571 C 0.36802 0.196 0.12006 0.0
H572 H 0.05342 0.30716 0.47095 0.0
H573 H 0.18699 0.3639 0.43793 0.0
H574 H 0.09268 0.31768 0.50532 0.0
H575 H 0.22658 0.37537 0.47269 0.0
H576 H 0.25769 0.31134 0.53325 0.0
H577 H 0.22825 0.32109 0.49894 0.0
H578 H 0.14718 0.3728 0.53186 0.0
H579 H 0.17606 0.36207 0.56658 0.0
C580 C 0.09132 0.3225 0.471 0.0
C581 C 0.11695 0.33408 0.45157 0.0
C582 C 0.11391 0.32901 0.49081 0.0
C583 C 0.16274 0.34724 0.49178 0.0
C584 C 0.18878 0.36074 0.47245 0.0
C585 C 0.16613 0.35432 0.45254 0.0
C586 C 0.23391 0.32522 0.53328 0.0
C587 C 0.21872 0.33529 0.55276 0.0
C588 C 0.21742 0.3313 0.5135 0.0
C589 C 0.18524 0.34757 0.51264 0.0
C590 C 0.17158 0.35968 0.53203 0.0
C591 C 0.18826 0.35372 0.55191 0.0
H592 H 0.83053 0.19294 0.77185 0.0
H593 H 0.74822 0.06094 0.80548 0.0
H594 H 0.85789 0.23325 0.80649 0.0
H595 H 0.77632 0.10076 0.83971 0.0
H596 H 0.81776 0.18234 0.90064 0.0
H597 H 0.77808 0.15604 0.86584 0.0
H598 H 0.91191 0.23405 0.83326 0.0
H599 H 0.95123 0.26121 0.86771 0.0
C600 C 0.8178 0.17261 0.78657 0.0
C601 C 0.78768 0.12359 0.78582 0.0
C602 C 0.83362 0.19566 0.80641 0.0
C603 C 0.81955 0.17019 0.82589 0.0
C604 C 0.78748 0.12164 0.8251 0.0
C605 C 0.77174 0.09868 0.80536 0.0
C606 C 0.83858 0.19458 0.88604 0.0
C607 C 0.88779 0.22333 0.88704 0.0
C608 C 0.81586 0.17935 0.86609 0.0
C609 C 0.84187 0.19257 0.84676 0.0
C610 C 0.89067 0.22353 0.84777 0.0
C611 C 0.91332 0.23874 0.86763 0.0
H612 H 0.69528 0.74264 0.13711 0.0
H613 H 0.64073 0.8207 0.10349 0.0
H614 H 0.68502 0.77212 0.1713 0.0
H615 H 0.62941 0.84943 0.13804 0.0
H616 H 0.64413 0.81554 0.23225 0.0
H617 H 0.63174 0.77415 0.19794 0.0
H618 H 0.68461 0.90572 0.16373 0.0
H619 H 0.69595 0.94666 0.19763 0.0
C620 C 0.68031 0.76549 0.13699 0.0
C621 C 0.6695 0.77985 0.11745 0.0
C622 C 0.67399 0.78203 0.15671 0.0
C623 C 0.65668 0.81337 0.15743 0.0
C624 C 0.64345 0.8258 0.13799 0.0
C625 C 0.64974 0.80917 0.1182 0.0
C626 C 0.65238 0.83546 0.21738 0.0
C627 C 0.67156 0.88451 0.21776 0.0
C628 C 0.64546 0.81179 0.19773 0.0
C629 C 0.65738 0.83667 0.17809 0.0
C630 C 0.67447 0.88532 0.17849 0.0
C631 C 0.68147 0.90891 0.19803 0.0
H632 H 0.83441 0.64818 0.56658 0.0
H633 H 0.75353 0.70097 0.5341 0.0
H634 H 0.86217 0.63735 0.5316 0.0
H635 H 0.78191 0.69117 0.49955 0.0
H636 H 0.82188 0.64965 0.43794 0.0
H637 H 0.78261 0.63731 0.47283 0.0
H638 H 0.91664 0.69264 0.50523 0.0
H639 H 0.95552 0.70396 0.47076 0.0
C640 C 0.82214 0.65696 0.55204 0.0
C641 C 0.79225 0.67603 0.5532 0.0
C642 C 0.83816 0.65093 0.53201 0.0
C643 C 0.82443 0.66364 0.51279 0.0
C644 C 0.79277 0.68049 0.51397 0.0
C645 C 0.7769 0.68661 0.53389 0.0
C646 C 0.84281 0.6585 0.45253 0.0
C647 C 0.89193 0.67837 0.45149 0.0
C648 C 0.82035 0.65157 0.47251 0.0
C649 C 0.84655 0.6642 0.49181 0.0
C650 C 0.89529 0.68198 0.49075 0.0
C651 C 0.91767 0.68898 0.47087 0.0
H652 H 0.06191 0.74288 0.86631 0.0
H653 H 0.19379 0.82578 0.90005 0.0
H654 H 0.10138 0.7732 0.83214 0.0
H655 H 0.2337 0.85542 0.8655 0.0
H656 H 0.26101 0.95076 0.80537 0.0
H657 H 0.23287 0.91001 0.83944 0.0
H658 H 0.15759 0.77739 0.80569 0.0
H659 H 0.18499 0.81847 0.77125 0.0
C660 C 0.09955 0.76699 0.86646 0.0
C661 C 0.12452 0.78239 0.88603 0.0
C662 C 0.1223 0.78405 0.84676 0.0
C663 C 0.17066 0.81697 0.84605 0.0
C664 C 0.19623 0.83054 0.86552 0.0
C665 C 0.17341 0.81337 0.88532 0.0
C666 C 0.23886 0.91282 0.8051 0.0
C667 C 0.22477 0.88801 0.78546 0.0
C668 C 0.22309 0.88937 0.82475 0.0
C669 C 0.19281 0.84044 0.82533 0.0
C670 C 0.18044 0.81523 0.80577 0.0
C671 C 0.1963 0.83875 0.78604 0.0
H672 H 0.21292 0.85817 0.00334 0.0
H673 H 0.1939 0.93232 0.95039 0.0
H674 H 0.26189 0.9334 0.02201 0.0
H675 H 0.24359 0.00716 0.96865 0.0
H676 H 0.35406 0.13891 0.00285 0.0
H677 H 0.32787 0.06358 0.98436 0.0
H678 H 0.23423 0.99023 0.03733 0.0
H679 H 0.25936 0.06521 0.05542 0.0
C680 C 0.22052 0.89059 0.99538 0.0
C681 C 0.19961 0.88941 0.97542 0.0
C682 C 0.24827 0.93359 0.00611 0.0
C683 C 0.25659 0.97622 0.9968 0.0
C684 C 0.23828 0.97507 0.97616 0.0
C685 C 0.20969 0.93217 0.96573 0.0
C686 C 0.3289 0.10657 0.01078 0.0
C687 C 0.30872 0.10793 0.03057 0.0
C688 C 0.3137 0.06351 1.00015 0.0
C689 C 0.27895 0.02096 0.00939 0.0
C690 C 0.26134 0.02226 0.02988 0.0
C691 C 0.27565 0.06525 0.04021 0.0
H692 H 0.20847 0.35286 0.33429 0.0
H693 H 0.18836 0.26024 0.38763 0.0
H694 H 0.25818 0.32675 0.31625 0.0
H695 H 0.23889 0.23535 0.37003 0.0
H696 H 0.25702 0.1916 0.28405 0.0
H697 H 0.23038 0.24081 0.30155 0.0
H698 H 0.3247 0.26511 0.35478 0.0
H699 H 0.35249 0.21671 0.33688 0.0
C700 C 0.21601 0.32823 0.34248 0.0
C701 C 0.19463 0.3086 0.36236 0.0
C702 C 0.24417 0.31307 0.33211 0.0
C703 C 0.25245 0.27902 0.34174 0.0
C704 C 0.23361 0.26195 0.3623 0.0
C705 C 0.20457 0.27612 0.37235 0.0
C706 C 0.27306 0.20852 0.2992 0.0
C707 C 0.30687 0.20033 0.30909 0.0
C708 C 0.25791 0.23686 0.30918 0.0
C709 C 0.27539 0.25679 0.32955 0.0
C710 C 0.31067 0.25023 0.33906 0.0
C711 C 0.32674 0.22276 0.32878 0.0
H712 H 0.93908 0.19191 0.72176 0.0
H713 H 0.86561 0.2118 0.66874 0.0
H714 H 0.01425 0.24212 0.70386 0.0
H715 H 0.94119 0.26131 0.65042 0.0
H716 H 0.07357 0.25958 0.61723 0.0
H717 H 0.99832 0.23409 0.63514 0.0
H718 H 0.07101 0.32671 0.68853 0.0
H719 H 0.14667 0.35332 0.67019 0.0
C720 C 0.93913 0.20798 0.70648 0.0
C721 C 0.89646 0.19798 0.69666 0.0
C722 C 0.98223 0.23689 0.69626 0.0
C723 C 0.9837 0.25563 0.6757 0.0
C724 C 0.94115 0.24737 0.66627 0.0
C725 C 0.89794 0.21929 0.67679 0.0
C726 C 0.0734 0.27558 0.63249 0.0
C727 C 0.11598 0.30852 0.64229 0.0
C728 C 0.03026 0.26107 0.64272 0.0
C729 C 0.02868 0.27828 0.66327 0.0
C730 C 0.07114 0.31286 0.67269 0.0
C731 C 0.11439 0.32831 0.66215 0.0
H732 H 0.65644 0.85789 0.00086 0.0
H733 H 0.75035 0.93063 0.05386 0.0
H734 H 0.68239 0.93366 0.9828 0.0
H735 H 0.77522 0.00597 0.0362 0.0
H736 H 0.79646 0.13873 0.00331 0.0
H737 H 0.74741 0.06279 0.02138 0.0
H738 H 0.76643 0.99116 0.96735 0.0
H739 H 0.81615 0.06671 0.94966 0.0
C740 C 0.68138 0.8901 0.00897 0.0
C741 C 0.70139 0.88837 0.02876 0.0
C742 C 0.69645 0.93341 0.99858 0.0
C743 C 0.73087 0.97582 0.00808 0.0
C744 C 0.74834 0.97408 0.02856 0.0
C745 C 0.73419 0.93088 0.03864 0.0
C746 C 0.78899 0.10663 0.99507 0.0
C747 C 0.81014 0.10863 0.97509 0.0
C748 C 0.76119 0.06322 0.00545 0.0
C749 C 0.75308 0.02097 0.99579 0.0
C750 C 0.77157 0.02294 0.97513 0.0
C751 C 0.80019 0.06626 0.96503 0.0
H752 H 0.75129 0.81852 0.28224 0.0
H753 H 0.65849 0.79894 0.33542 0.0
H754 H 0.77712 0.76928 0.30036 0.0
H755 H 0.68549 0.75048 0.35396 0.0
H756 H 0.82182 0.75523 0.38676 0.0
H757 H 0.77118 0.7796 0.36884 0.0
H758 H 0.74935 0.68471 0.31625 0.0
H759 H 0.79925 0.6592 0.3346 0.0
C760 C 0.73558 0.8027 0.2976 0.0
C761 C 0.7028 0.81248 0.3074 0.0
C762 C 0.75027 0.77436 0.30795 0.0
C763 C 0.73342 0.75605 0.3286 0.0
C764 C 0.69903 0.76409 0.33803 0.0
C765 C 0.68338 0.79155 0.32738 0.0
C766 C 0.80507 0.73851 0.37168 0.0
C767 C 0.81441 0.70525 0.36209 0.0
C768 C 0.77593 0.75237 0.36145 0.0
C769 C 0.75633 0.73415 0.34111 0.0
C770 C 0.76395 0.6993 0.33193 0.0
C771 C 0.79225 0.68451 0.34247 0.0
H772 H 0.14747 0.79926 0.66842 0.0
H773 H 0.07449 0.81947 0.72149 0.0
H774 H 0.07171 0.74951 0.65024 0.0
H775 H 0.99914 0.76902 0.70372 0.0
H776 H 0.86642 0.65742 0.67039 0.0
H777 H 0.94235 0.68421 0.68856 0.0
H778 H 0.01425 0.77651 0.635 0.0
H779 H 0.93873 0.75085 0.61726 0.0
C780 C 0.11521 0.79179 0.67651 0.0
C781 C 0.11687 0.81325 0.69636 0.0
C782 C 0.0719 0.76357 0.66607 0.0
C783 C 0.02943 0.75532 0.67556 0.0
C784 C 0.03109 0.77424 0.69609 0.0
C785 C 0.07429 0.80328 0.70623 0.0
C786 C 0.89859 0.68238 0.66227 0.0
C787 C 0.8967 0.70204 0.64242 0.0
C788 C 0.94198 0.69794 0.67271 0.0
C789 C 0.9843 0.7325 0.66321 0.0
C790 C 0.98243 0.74955 0.64265 0.0
C791 C 0.93914 0.73493 0.63252 0.0
H792 H 0.03926 0.2912 0.00328 0.0
H793 H 0.02078 0.18249 0.95863 0.0
H794 H 0.10683 0.28983 0.01932 0.0
H795 H 0.08895 0.18159 0.97462 0.0
H796 H 0.1715 0.18169 0.04691 0.0
H797 H 0.10278 0.18133 0.03082 0.0
H798 H 0.19418 0.2896 0.98631 0.0
H799 H 0.26279 0.29044 0.00246 0.0
C800 C 0.05006 0.26738 0.99687 0.0
C801 C 0.02636 0.23821 0.9793 0.0
C802 C 0.08849 0.2666 0.00602 0.0
C803 C 0.10293 0.23597 0.998 0.0
C804 C 0.07835 0.20569 0.98087 0.0
C805 C 0.03993 0.20654 0.97166 0.0
C806 C 0.17671 0.20585 0.03389 0.0
C807 C 0.22215 0.23739 0.02635 0.0
C808 C 0.13763 0.2053 0.02463 0.0
C809 C 0.14373 0.23576 0.00753 0.0
C810 C 0.18899 0.26624 0.99959 0.0
C811 C 0.22801 0.26672 0.00881 0.0
H812 H 0.83603 0.01716 0.29418 0.0
H813 H 0.74133 0.04918 0.32861 0.0
H814 H 0.90367 0.08619 0.31039 0.0
H815 H 0.80902 0.11945 0.34405 0.0
H816 H 0.95837 0.26839 0.33818 0.0
H817 H 0.88968 0.20019 0.322 0.0
H818 H 0.92336 0.10683 0.35658 0.0
H819 H 0.99088 0.17487 0.37338 0.0
C820 C 0.82994 0.03946 0.30502 0.0
C821 C 0.78401 0.02908 0.30986 0.0
C822 C 0.86835 0.07854 0.31429 0.0
C823 C 0.86112 0.10783 0.3283 0.0
C824 C 0.81515 0.09725 0.33323 0.0
C825 C 0.77669 0.05739 0.32443 0.0
C826 C 0.95064 0.2332 0.34237 0.0
C827 C 0.97858 0.22632 0.35737 0.0
C828 C 0.91167 0.19446 0.33315 0.0
C829 C 0.90162 0.1487 0.33817 0.0
C830 C 0.93064 0.14197 0.35258 0.0
C831 C 0.96884 0.18061 0.36221 0.0
H832 H 0.82705 0.83576 0.63139 0.0
H833 H 0.70102 0.74214 0.66665 0.0
H834 H 0.82743 0.90381 0.64803 0.0
H835 H 0.70042 0.81024 0.68264 0.0
H836 H 0.82713 0.99306 0.71071 0.0
H837 H 0.82694 0.92437 0.69488 0.0
H838 H 0.70076 0.89081 0.65946 0.0
H839 H 0.70231 0.96079 0.67439 0.0
C840 C 0.79927 0.82999 0.64256 0.0
C841 C 0.7633 0.78425 0.64746 0.0
C842 C 0.79966 0.86864 0.65211 0.0
C843 C 0.76384 0.86184 0.66648 0.0
C844 C 0.72822 0.81605 0.67156 0.0
C845 C 0.7285 0.77734 0.66244 0.0
C846 C 0.79943 0.97081 0.69953 0.0
C847 C 0.76406 0.98103 0.69403 0.0
C848 C 0.79944 0.93191 0.69048 0.0
C849 C 0.76373 0.90264 0.67608 0.0
C850 C 0.72853 0.91306 0.67052 0.0
C851 C 0.72935 0.95277 0.67906 0.0
H852 H 0.83745 0.81834 0.04243 0.0
H853 H 0.74476 0.69712 0.0041 0.0
H854 H 0.90603 0.81883 0.02622 0.0
H855 H 0.81324 0.69674 0.98847 0.0
H856 H 0.96456 0.69744 0.99877 0.0
H857 H 0.89538 0.69657 0.01427 0.0
H858 H 0.92526 0.81928 0.97697 0.0
H859 H 0.99367 0.81926 0.96086 0.0
C860 C 0.83198 0.79157 0.03072 0.0
C861 C 0.78631 0.75687 0.02482 0.0
C862 C 0.87093 0.79204 0.02143 0.0
C863 C 0.86443 0.75764 0.00626 0.0
C864 C 0.81877 0.72336 1.00019 0.0
C865 C 0.77985 0.72353 0.0091 0.0
C866 C 0.95593 0.72387 0.99383 0.0
C867 C 0.98309 0.75754 0.97827 0.0
C868 C 0.91665 0.72342 0.00267 0.0
C869 C 0.90535 0.75775 0.9967 0.0
C870 C 0.9335 0.79244 0.98168 0.0
C871 C 0.97217 0.79225 0.97245 0.0
H872 H 0.01964 0.8397 0.37388 0.0
H873 H 0.05023 0.74533 0.33829 0.0
H874 H 0.08796 0.90743 0.35733 0.0
H875 H 0.11954 0.81311 0.32237 0.0
H876 H 0.17718 0.99505 0.2938 0.0
H877 H 0.10845 0.92597 0.30935 0.0
H878 H 0.20079 0.89526 0.34664 0.0
H879 H 0.26943 0.96561 0.33194 0.0
C880 C 0.0414 0.83369 0.36267 0.0
C881 C 0.03091 0.78781 0.35765 0.0
C882 C 0.08004 0.87216 0.35318 0.0
C883 C 0.10869 0.86504 0.33872 0.0
C884 C 0.09784 0.81914 0.33351 0.0
C885 C 0.05851 0.78063 0.3426 0.0
C886 C 0.18253 0.9733 0.3053 0.0
C887 C 0.22812 0.98453 0.31145 0.0
C888 C 0.14349 0.93417 0.31418 0.0
C889 C 0.14979 0.90567 0.32907 0.0
C890 C 0.19539 0.91693 0.3352 0.0
C891 C 0.2344 0.95685 0.3268 0.0
H892 H 0.18682 0.01848 0.70992 0.0
H893 H 0.31118 0.04995 0.6735 0.0
H894 H 0.18693 0.08692 0.69383 0.0
H895 H 0.31254 0.11961 0.65822 0.0
H896 H 0.18595 0.17485 0.63036 0.0
H897 H 0.18595 0.10689 0.64691 0.0
H898 H 0.31325 0.20065 0.68135 0.0
H899 H 0.31228 0.26866 0.66546 0.0
C900 C 0.21441 0.04051 0.69866 0.0
C901 C 0.24971 0.03016 0.69323 0.0
C902 C 0.21434 0.07925 0.68946 0.0
C903 C 0.24987 0.10822 0.67493 0.0
C904 C 0.28495 0.09763 0.6694 0.0
C905 C 0.28423 0.0581 0.67813 0.0
C906 C 0.2139 0.18068 0.64146 0.0
C907 C 0.24983 0.22646 0.64635 0.0
C908 C 0.21374 0.14208 0.65094 0.0
C909 C 0.24974 0.14896 0.66525 0.0
C910 C 0.28535 0.19478 0.67031 0.0
C911 C 0.28484 0.23343 0.66124 0.0
loop_
_geom_bond_atom_site_label_1
_geom_bond_atom_site_label_2
_geom_bond_distance
_geom_bond_site_symmetry_2
_ccdc_geom_bond_type
Mn0 O5 2.095 . S
Mn0 O15 2.162 . S
Mn0 O16 2.297 . S
Mn0 O24 2.385 . S
Mn0 O25 2.209 . S
Mn0 O26 2.094 . S
Mn1 O6 2.121 . S
Mn1 N8 2.257 . S
Mn1 N17 2.282 . S
Mn1 O25 2.215 . S
Mn1 O27 2.117 . S
C2 O24 1.234 . S
C2 O25 1.283 . S
C3 O15 1.281 . S
C3 O16 1.236 . S
C4 O26 1.240 . S
C4 O27 1.264 . S
O5 Mn0 2.095 . S
O5 C14 1.250 . S
O6 Mn1 2.121 . S
O6 C14 1.258 . S
C7 N8 1.326 . S
C7 C11 1.460 . S
C7 H13 0.929 . S
N8 Mn1 2.257 . S
N8 C7 1.326 . S
N8 C12 1.362 . S
C9 C10 1.258 . S
C9 C12 1.431 . S
C9 C29 1.449 . S
C10 C9 1.258 . S
C10 C11 1.477 . S
C10 H30 0.931 . S
C11 C7 1.460 . S
C11 C10 1.477 . S
C11 H31 0.930 . S
C12 N8 1.362 . S
C12 C9 1.431 . S
C12 C22 1.476 . S
H13 C7 0.929 . S
C14 O5 1.250 . S
C14 O6 1.258 . S
O15 Mn0 2.162 . S
O15 C3 1.281 . S
O16 Mn0 2.297 . S
O16 C3 1.236 . S
N17 Mn1 2.282 . S
N17 C18 1.328 . S
N17 C22 1.318 . S
C18 N17 1.328 . S
C18 C19 1.457 . S
C18 H23 0.929 . S
C19 C18 1.457 . S
C19 C20 1.291 . S
C19 H32 0.931 . S
C20 C19 1.291 . S
C20 C21 1.373 . S
C20 H33 0.929 . S
C21 C20 1.373 . S
C21 C22 1.396 . S
C21 C28 1.403 . S
C22 C12 1.476 . S
C22 N17 1.318 . S
C22 C21 1.396 . S
H23 C18 0.929 . S
O24 Mn0 2.385 . S
O24 C2 1.234 . S
O25 Mn0 2.209 . S
O25 Mn1 2.215 . S
O25 C2 1.283 . S
O26 Mn0 2.094 . S
O26 C4 1.240 . S
O27 Mn1 2.117 . S
O27 C4 1.264 . S
C28 C21 1.403 . S
C28 C29 1.399 . S
C28 H34 0.929 . S
C29 C9 1.449 . S
C29 C28 1.399 . S
C29 H35 0.930 . S
H30 C10 0.931 . S
H31 C11 0.930 . S
H32 C19 0.931 . S
H33 C20 0.929 . S
H34 C28 0.929 . S
H35 C29 0.930 . S
Mn36 O41 2.095 . S
Mn36 O51 2.162 . S
Mn36 O52 2.297 . S
Mn36 O60 2.385 . S
Mn36 O61 2.209 . S
Mn36 O62 2.094 . S
Mn37 O42 2.121 . S
Mn37 N44 2.257 1_455 S
Mn37 N53 2.282 1_455 S
Mn37 O61 2.215 . S
Mn37 O63 2.117 . S
C38 O60 1.234 . S
C38 O61 1.283 . S
C39 O51 1.281 . S
C39 O52 1.236 . S
C40 O62 1.240 . S
C40 O63 1.264 . S
O41 Mn36 2.095 . S
O41 C50 1.250 . S
O42 Mn37 2.121 . S
O42 C50 1.258 . S
C43 N44 1.326 . S
C43 C47 1.460 . S
C43 H49 0.929 . S
N44 Mn37 2.257 1_655 S
N44 C43 1.326 . S
N44 C48 1.362 . S
C45 C46 1.258 . S
C45 C48 1.431 . S
C45 C65 1.449 . S
C46 C45 1.258 . S
C46 C47 1.477 . S
C46 H66 0.931 . S
C47 C43 1.460 . S
C47 C46 1.477 . S
C47 H67 0.930 . S
C48 N44 1.362 . S
C48 C45 1.431 . S
C48 C58 1.476 . S
H49 C43 0.929 . S
C50 O41 1.250 . S
C50 O42 1.258 . S
O51 Mn36 2.162 . S
O51 C39 1.281 . S
O52 Mn36 2.297 . S
O52 C39 1.236 . S
N53 Mn37 2.282 1_655 S
N53 C54 1.328 . S
N53 C58 1.318 . S
C54 N53 1.328 . S
C54 C55 1.457 . S
C54 H59 0.929 . S
C55 C54 1.457 . S
C55 C56 1.291 . S
C55 H68 0.931 . S
C56 C55 1.291 . S
C56 C57 1.373 . S
C56 H69 0.929 . S
C57 C56 1.373 . S
C57 C58 1.396 . S
C57 C64 1.403 . S
C58 C48 1.476 . S
C58 N53 1.318 . S
C58 C57 1.396 . S
H59 C54 0.929 . S
O60 Mn36 2.385 . S
O60 C38 1.234 . S
O61 Mn36 2.209 . S
O61 Mn37 2.215 . S
O61 C38 1.283 . S
O62 Mn36 2.094 . S
O62 C40 1.240 . S
O63 Mn37 2.117 . S
O63 C40 1.264 . S
C64 C57 1.403 . S
C64 C65 1.399 . S
C64 H70 0.929 . S
C65 C45 1.449 . S
C65 C64 1.399 . S
C65 H71 0.930 . S
H66 C46 0.931 . S
H67 C47 0.930 . S
H68 C55 0.931 . S
H69 C56 0.929 . S
H70 C64 0.929 . S
H71 C65 0.930 . S
Mn72 O77 2.095 . S
Mn72 O87 2.162 . S
Mn72 O88 2.297 . S
Mn72 O96 2.385 . S
Mn72 O97 2.209 . S
Mn72 O98 2.094 . S
Mn73 O78 2.121 . S
Mn73 N80 2.257 1_545 S
Mn73 N89 2.282 1_545 S
Mn73 O97 2.215 . S
Mn73 O99 2.117 . S
C74 O96 1.234 . S
C74 O97 1.283 . S
C75 O87 1.281 . S
C75 O88 1.236 . S
C76 O98 1.240 . S
C76 O99 1.264 . S
O77 Mn72 2.095 . S
O77 C86 1.250 . S
O78 Mn73 2.121 . S
O78 C86 1.258 . S
C79 N80 1.326 . S
C79 C83 1.460 . S
C79 H85 0.929 . S
N80 Mn73 2.257 1_565 S
N80 C79 1.326 . S
N80 C84 1.362 . S
C81 C82 1.258 . S
C81 C84 1.431 . S
C81 C101 1.449 . S
C82 C81 1.258 . S
C82 C83 1.477 . S
C82 H102 0.931 . S
C83 C79 1.460 . S
C83 C82 1.477 . S
C83 H103 0.930 . S
C84 N80 1.362 . S
C84 C81 1.431 . S
C84 C94 1.476 . S
H85 C79 0.929 . S
C86 O77 1.250 . S
C86 O78 1.258 . S
O87 Mn72 2.162 . S
O87 C75 1.281 . S
O88 Mn72 2.297 . S
O88 C75 1.236 . S
N89 Mn73 2.282 1_565 S
N89 C90 1.328 . S
N89 C94 1.318 . S
C90 N89 1.328 . S
C90 C91 1.457 . S
C90 H95 0.929 . S
C91 C90 1.457 . S
C91 C92 1.291 . S
C91 H104 0.931 . S
C92 C91 1.291 . S
C92 C93 1.373 . S
C92 H105 0.929 . S
C93 C92 1.373 . S
C93 C94 1.396 . S
C93 C100 1.403 . S
C94 C84 1.476 . S
C94 N89 1.318 . S
C94 C93 1.396 . S
H95 C90 0.929 . S
O96 Mn72 2.385 . S
O96 C74 1.234 . S
O97 Mn72 2.209 . S
O97 Mn73 2.215 . S
O97 C74 1.283 . S
O98 Mn72 2.094 . S
O98 C76 1.240 . S
O99 Mn73 2.117 . S
O99 C76 1.264 . S
C100 C93 1.403 . S
C100 C101 1.399 . S
C100 H106 0.929 . S
C101 C81 1.449 . S
C101 C100 1.399 . S
C101 H107 0.930 . S
H102 C82 0.931 . S
H103 C83 0.930 . S
H104 C91 0.931 . S
H105 C92 0.929 . S
H106 C100 0.929 . S
H107 C101 0.930 . S
Mn108 O113 2.095 . S
Mn108 O123 2.162 . S
Mn108 O124 2.297 . S
Mn108 O132 2.385 . S
Mn108 O133 2.209 . S
Mn108 O134 2.094 . S
Mn109 O114 2.121 . S
Mn109 N116 2.257 . S
Mn109 N125 2.282 . S
Mn109 O133 2.215 . S
Mn109 O135 2.117 . S
C110 O132 1.234 . S
C110 O133 1.283 . S
C111 O123 1.281 . S
C111 O124 1.236 . S
C112 O134 1.240 . S
C112 O135 1.264 . S
O113 Mn108 2.095 . S
O113 C122 1.250 . S
O114 Mn109 2.121 . S
O114 C122 1.258 . S
C115 N116 1.326 . S
C115 C119 1.460 . S
C115 H121 0.929 . S
N116 Mn109 2.257 . S
N116 C115 1.326 . S
N116 C120 1.362 . S
C117 C118 1.258 . S
C117 C120 1.431 . S
C117 C137 1.449 . S
C118 C117 1.258 . S
C118 C119 1.477 . S
C118 H138 0.931 . S
C119 C115 1.460 . S
C119 C118 1.477 . S
C119 H139 0.930 . S
C120 N116 1.362 . S
C120 C117 1.431 . S
C120 C130 1.476 . S
H121 C115 0.929 . S
C122 O113 1.250 . S
C122 O114 1.258 . S
O123 Mn108 2.162 . S
O123 C111 1.281 . S
O124 Mn108 2.297 . S
O124 C111 1.236 . S
N125 Mn109 2.282 . S
N125 C126 1.328 . S
N125 C130 1.318 . S
C126 N125 1.328 . S
C126 C127 1.457 . S
C126 H131 0.929 . S
C127 C126 1.457 . S
C127 C128 1.291 . S
C127 H140 0.931 . S
C128 C127 1.291 . S
C128 C129 1.373 . S
C128 H141 0.929 . S
C129 C128 1.373 . S
C129 C130 1.396 . S
C129 C136 1.403 . S
C130 C120 1.476 . S
C130 N125 1.318 . S
C130 C129 1.396 . S
H131 C126 0.929 . S
O132 Mn108 2.385 . S
O132 C110 1.234 . S
O133 Mn108 2.209 . S
O133 Mn109 2.215 . S
O133 C110 1.283 . S
O134 Mn108 2.094 . S
O134 C112 1.240 . S
O135 Mn109 2.117 . S
O135 C112 1.264 . S
C136 C129 1.403 . S
C136 C137 1.399 . S
C136 H142 0.929 . S
C137 C117 1.449 . S
C137 C136 1.399 . S
C137 H143 0.930 . S
H138 C118 0.931 . S
H139 C119 0.930 . S
H140 C127 0.931 . S
H141 C128 0.929 . S
H142 C136 0.929 . S
H143 C137 0.930 . S
Mn144 O149 2.095 . S
Mn144 O159 2.162 . S
Mn144 O160 2.297 . S
Mn144 O168 2.385 . S
Mn144 O169 2.209 . S
Mn144 O170 2.094 . S
Mn145 O150 2.121 . S
Mn145 N152 2.257 1_655 S
Mn145 N161 2.282 1_655 S
Mn145 O169 2.215 . S
Mn145 O171 2.117 . S
C146 O168 1.234 . S
C146 O169 1.283 . S
C147 O159 1.281 . S
C147 O160 1.236 . S
C148 O170 1.240 . S
C148 O171 1.264 . S
O149 Mn144 2.095 . S
O149 C158 1.250 . S
O150 Mn145 2.121 . S
O150 C158 1.258 . S
C151 N152 1.326 . S
C151 C155 1.460 . S
C151 H157 0.929 . S
N152 Mn145 2.257 1_455 S
N152 C151 1.326 . S
N152 C156 1.362 . S
C153 C154 1.258 . S
C153 C156 1.431 . S
C153 C173 1.449 . S
C154 C153 1.258 . S
C154 C155 1.477 . S
C154 H174 0.931 . S
C155 C151 1.460 . S
C155 C154 1.477 . S
C155 H175 0.930 . S
C156 N152 1.362 . S
C156 C153 1.431 . S
C156 C166 1.476 . S
H157 C151 0.929 . S
C158 O149 1.250 . S
C158 O150 1.258 . S
O159 Mn144 2.162 . S
O159 C147 1.281 . S
O160 Mn144 2.297 . S
O160 C147 1.236 . S
N161 Mn145 2.282 1_455 S
N161 C162 1.328 . S
N161 C166 1.318 . S
C162 N161 1.328 . S
C162 C163 1.457 . S
C162 H167 0.929 . S
C163 C162 1.457 . S
C163 C164 1.291 . S
C163 H176 0.931 . S
C164 C163 1.291 . S
C164 C165 1.373 . S
C164 H177 0.929 . S
C165 C164 1.373 . S
C165 C166 1.396 . S
C165 C172 1.403 . S
C166 C156 1.476 . S
C166 N161 1.318 . S
C166 C165 1.396 . S
H167 C162 0.929 . S
O168 Mn144 2.385 . S
O168 C146 1.234 . S
O169 Mn144 2.209 . S
O169 Mn145 2.215 . S
O169 C146 1.283 . S
O170 Mn144 2.094 . S
O170 C148 1.240 . S
O171 Mn145 2.117 . S
O171 C148 1.264 . S
C172 C165 1.403 . S
C172 C173 1.399 . S
C172 H178 0.929 . S
C173 C153 1.449 . S
C173 C172 1.399 . S
C173 H179 0.930 . S
H174 C154 0.931 . S
H175 C155 0.930 . S
H176 C163 0.931 . S
H177 C164 0.929 . S
H178 C172 0.929 . S
H179 C173 0.930 . S
Mn180 O185 2.095 . S
Mn180 O195 2.162 . S
Mn180 O196 2.297 . S
Mn180 O204 2.385 . S
Mn180 O205 2.209 . S
Mn180 O206 2.094 . S
Mn181 O186 2.121 . S
Mn181 N188 2.257 1_565 S
Mn181 N197 2.282 1_565 S
Mn181 O205 2.215 . S
Mn181 O207 2.117 . S
C182 O204 1.234 . S
C182 O205 1.283 . S
C183 O195 1.281 . S
C183 O196 1.236 . S
C184 O206 1.240 . S
C184 O207 1.264 . S
O185 Mn180 2.095 . S
O185 C194 1.250 . S
O186 Mn181 2.121 . S
O186 C194 1.258 . S
C187 N188 1.326 . S
C187 C191 1.460 . S
C187 H193 0.929 . S
N188 Mn181 2.257 1_545 S
N188 C187 1.326 . S
N188 C192 1.362 . S
C189 C190 1.258 . S
C189 C192 1.431 . S
C189 C209 1.449 . S
C190 C189 1.258 . S
C190 C191 1.477 . S
C190 H210 0.931 . S
C191 C187 1.460 . S
C191 C190 1.477 . S
C191 H211 0.930 . S
C192 N188 1.362 . S
C192 C189 1.431 . S
C192 C202 1.476 . S
H193 C187 0.929 . S
C194 O185 1.250 . S
C194 O186 1.258 . S
O195 Mn180 2.162 . S
O195 C183 1.281 . S
O196 Mn180 2.297 . S
O196 C183 1.236 . S
N197 Mn181 2.282 1_545 S
N197 C198 1.328 . S
N197 C202 1.318 . S
C198 N197 1.328 . S
C198 C199 1.457 . S
C198 H203 0.929 . S
C199 C198 1.457 . S
C199 C200 1.291 . S
C199 H212 0.931 . S
C200 C199 1.291 . S
C200 C201 1.373 . S
C200 H213 0.929 . S
C201 C200 1.373 . S
C201 C202 1.396 . S
C201 C208 1.403 . S
C202 C192 1.476 . S
C202 N197 1.318 . S
C202 C201 1.396 . S
H203 C198 0.929 . S
O204 Mn180 2.385 . S
O204 C182 1.234 . S
O205 Mn180 2.209 . S
O205 Mn181 2.215 . S
O205 C182 1.283 . S
O206 Mn180 2.094 . S
O206 C184 1.240 . S
O207 Mn181 2.117 . S
O207 C184 1.264 . S
C208 C201 1.403 . S
C208 C209 1.399 . S
C208 H214 0.929 . S
C209 C189 1.449 . S
C209 C208 1.399 . S
C209 H215 0.930 . S
H210 C190 0.931 . S
H211 C191 0.930 . S
H212 C199 0.931 . S
H213 C200 0.929 . S
H214 C208 0.929 . S
H215 C209 0.930 . S
Mn216 O221 2.095 . S
Mn216 O231 2.162 . S
Mn216 O232 2.297 . S
Mn216 O240 2.385 . S
Mn216 O241 2.209 . S
Mn216 O242 2.094 . S
Mn217 O222 2.121 . S
Mn217 N224 2.257 . S
Mn217 N233 2.282 . S
Mn217 O241 2.215 . S
Mn217 O243 2.117 . S
C218 O240 1.234 . S
C218 O241 1.283 . S
C219 O231 1.281 . S
C219 O232 1.236 . S
C220 O242 1.240 . S
C220 O243 1.264 . S
O221 Mn216 2.095 . S
O221 C230 1.250 . S
O222 Mn217 2.121 . S
O222 C230 1.258 . S
C223 N224 1.326 . S
C223 C227 1.460 . S
C223 H229 0.929 . S
N224 Mn217 2.257 . S
N224 C223 1.326 . S
N224 C228 1.362 . S
C225 C226 1.258 . S
C225 C228 1.431 . S
C225 C245 1.449 . S
C226 C225 1.258 . S
C226 C227 1.477 . S
C226 H246 0.931 . S
C227 C223 1.460 . S
C227 C226 1.477 . S
C227 H247 0.930 . S
C228 N224 1.362 . S
C228 C225 1.431 . S
C228 C238 1.476 . S
H229 C223 0.929 . S
C230 O221 1.250 . S
C230 O222 1.258 . S
O231 Mn216 2.162 . S
O231 C219 1.281 . S
O232 Mn216 2.297 . S
O232 C219 1.236 . S
N233 Mn217 2.282 . S
N233 C234 1.328 . S
N233 C238 1.318 . S
C234 N233 1.328 . S
C234 C235 1.457 . S
C234 H239 0.929 . S
C235 C234 1.457 . S
C235 C236 1.291 . S
C235 H248 0.931 . S
C236 C235 1.291 . S
C236 C237 1.373 . S
C236 H249 0.929 . S
C237 C236 1.373 . S
C237 C238 1.396 . S
C237 C244 1.403 . S
C238 C228 1.476 . S
C238 N233 1.318 . S
C238 C237 1.396 . S
H239 C234 0.929 . S
O240 Mn216 2.385 . S
O240 C218 1.234 . S
O241 Mn216 2.209 . S
O241 Mn217 2.215 . S
O241 C218 1.283 . S
O242 Mn216 2.094 . S
O242 C220 1.240 . S
O243 Mn217 2.117 . S
O243 C220 1.264 . S
C244 C237 1.403 . S
C244 C245 1.399 . S
C244 H250 0.929 . S
C245 C225 1.449 . S
C245 C244 1.399 . S
C245 H251 0.930 . S
H246 C226 0.931 . S
H247 C227 0.930 . S
H248 C235 0.931 . S
H249 C236 0.929 . S
H250 C244 0.929 . S
H251 C245 0.930 . S
Mn252 O257 2.095 . S
Mn252 O267 2.162 . S
Mn252 O268 2.297 . S
Mn252 O276 2.385 . S
Mn252 O277 2.209 . S
Mn252 O278 2.094 . S
Mn253 O258 2.121 . S
Mn253 N260 2.257 1_455 S
Mn253 N269 2.282 1_455 S
Mn253 O277 2.215 . S
Mn253 O279 2.117 . S
C254 O276 1.234 . S
C254 O277 1.283 . S
C255 O267 1.281 . S
C255 O268 1.236 . S
C256 O278 1.240 . S
C256 O279 1.264 . S
O257 Mn252 2.095 . S
O257 C266 1.250 . S
O258 Mn253 2.121 . S
O258 C266 1.258 . S
C259 N260 1.326 . S
C259 C263 1.460 . S
C259 H265 0.929 . S
N260 Mn253 2.257 1_655 S
N260 C259 1.326 . S
N260 C264 1.362 . S
C261 C262 1.258 . S
C261 C264 1.431 . S
C261 C281 1.449 . S
C262 C261 1.258 . S
C262 C263 1.477 . S
C262 H282 0.931 . S
C263 C259 1.460 . S
C263 C262 1.477 . S
C263 H283 0.930 . S
C264 N260 1.362 . S
C264 C261 1.431 . S
C264 C274 1.476 . S
H265 C259 0.929 . S
C266 O257 1.250 . S
C266 O258 1.258 . S
O267 Mn252 2.162 . S
O267 C255 1.281 . S
O268 Mn252 2.297 . S
O268 C255 1.236 . S
N269 Mn253 2.282 1_655 S
N269 C270 1.328 . S
N269 C274 1.318 . S
C270 N269 1.328 . S
C270 C271 1.457 . S
C270 H275 0.929 . S
C271 C270 1.457 . S
C271 C272 1.291 . S
C271 H284 0.931 . S
C272 C271 1.291 . S
C272 C273 1.373 . S
C272 H285 0.929 . S
C273 C272 1.373 . S
C273 C274 1.396 . S
C273 C280 1.403 . S
C274 C264 1.476 . S
C274 N269 1.318 . S
C274 C273 1.396 . S
H275 C270 0.929 . S
O276 Mn252 2.385 . S
O276 C254 1.234 . S
O277 Mn252 2.209 . S
O277 Mn253 2.215 . S
O277 C254 1.283 . S
O278 Mn252 2.094 . S
O278 C256 1.240 . S
O279 Mn253 2.117 . S
O279 C256 1.264 . S
C280 C273 1.403 . S
C280 C281 1.399 . S
C280 H286 0.929 . S
C281 C261 1.449 . S
C281 C280 1.399 . S
C281 H287 0.930 . S
H282 C262 0.931 . S
H283 C263 0.930 . S
H284 C271 0.931 . S
H285 C272 0.929 . S
H286 C280 0.929 . S
H287 C281 0.930 . S
Mn288 O293 2.095 . S
Mn288 O303 2.162 . S
Mn288 O304 2.297 . S
Mn288 O312 2.385 . S
Mn288 O313 2.209 . S
Mn288 O314 2.094 . S
Mn289 O294 2.121 . S
Mn289 N296 2.257 1_545 S
Mn289 N305 2.282 1_545 S
Mn289 O313 2.215 . S
Mn289 O315 2.117 . S
C290 O312 1.234 . S
C290 O313 1.283 . S
C291 O303 1.281 . S
C291 O304 1.236 . S
C292 O314 1.240 . S
C292 O315 1.264 . S
O293 Mn288 2.095 . S
O293 C302 1.250 . S
O294 Mn289 2.121 . S
O294 C302 1.258 . S
C295 N296 1.326 . S
C295 C299 1.460 . S
C295 H301 0.929 . S
N296 Mn289 2.257 1_565 S
N296 C295 1.326 . S
N296 C300 1.362 . S
C297 C298 1.258 . S
C297 C300 1.431 . S
C297 C317 1.449 . S
C298 C297 1.258 . S
C298 C299 1.477 . S
C298 H318 0.931 . S
C299 C295 1.460 . S
C299 C298 1.477 . S
C299 H319 0.930 . S
C300 N296 1.362 . S
C300 C297 1.431 . S
C300 C310 1.476 . S
H301 C295 0.929 . S
C302 O293 1.250 . S
C302 O294 1.258 . S
O303 Mn288 2.162 . S
O303 C291 1.281 . S
O304 Mn288 2.297 . S
O304 C291 1.236 . S
N305 Mn289 2.282 1_565 S
N305 C306 1.328 . S
N305 C310 1.318 . S
C306 N305 1.328 . S
C306 C307 1.457 . S
C306 H311 0.929 . S
C307 C306 1.457 . S
C307 C308 1.291 . S
C307 H320 0.931 . S
C308 C307 1.291 . S
C308 C309 1.373 . S
C308 H321 0.929 . S
C309 C308 1.373 . S
C309 C310 1.396 . S
C309 C316 1.403 . S
C310 C300 1.476 . S
C310 N305 1.318 . S
C310 C309 1.396 . S
H311 C306 0.929 . S
O312 Mn288 2.385 . S
O312 C290 1.234 . S
O313 Mn288 2.209 . S
O313 Mn289 2.215 . S
O313 C290 1.283 . S
O314 Mn288 2.094 . S
O314 C292 1.240 . S
O315 Mn289 2.117 . S
O315 C292 1.264 . S
C316 C309 1.403 . S
C316 C317 1.399 . S
C316 H322 0.929 . S
C317 C297 1.449 . S
C317 C316 1.399 . S
C317 H323 0.930 . S
H318 C298 0.931 . S
H319 C299 0.930 . S
H320 C307 0.931 . S
H321 C308 0.929 . S
H322 C316 0.929 . S
H323 C317 0.930 . S
Mn324 O329 2.095 . S
Mn324 O339 2.162 . S
Mn324 O340 2.297 . S
Mn324 O348 2.385 . S
Mn324 O349 2.209 . S
Mn324 O350 2.094 . S
Mn325 O330 2.121 . S
Mn325 N332 2.257 . S
Mn325 N341 2.282 . S
Mn325 O349 2.215 . S
Mn325 O351 2.117 . S
C326 O348 1.234 . S
C326 O349 1.283 . S
C327 O339 1.281 . S
C327 O340 1.236 . S
C328 O350 1.240 . S
C328 O351 1.264 . S
O329 Mn324 2.095 . S
O329 C338 1.250 . S
O330 Mn325 2.121 . S
O330 C338 1.258 . S
C331 N332 1.326 . S
C331 C335 1.460 . S
C331 H337 0.929 . S
N332 Mn325 2.257 . S
N332 C331 1.326 . S
N332 C336 1.362 . S
C333 C334 1.258 . S
C333 C336 1.431 . S
C333 C353 1.449 . S
C334 C333 1.258 . S
C334 C335 1.477 . S
C334 H354 0.931 . S
C335 C331 1.460 . S
C335 C334 1.477 . S
C335 H355 0.930 . S
C336 N332 1.362 . S
C336 C333 1.431 . S
C336 C346 1.476 . S
H337 C331 0.929 . S
C338 O329 1.250 . S
C338 O330 1.258 . S
O339 Mn324 2.162 . S
O339 C327 1.281 . S
O340 Mn324 2.297 . S
O340 C327 1.236 . S
N341 Mn325 2.282 . S
N341 C342 1.328 . S
N341 C346 1.318 . S
C342 N341 1.328 . S
C342 C343 1.457 . S
C342 H347 0.929 . S
C343 C342 1.457 . S
C343 C344 1.291 . S
C343 H356 0.931 . S
C344 C343 1.291 . S
C344 C345 1.373 . S
C344 H357 0.929 . S
C345 C344 1.373 . S
C345 C346 1.396 . S
C345 C352 1.403 . S
C346 C336 1.476 . S
C346 N341 1.318 . S
C346 C345 1.396 . S
H347 C342 0.929 . S
O348 Mn324 2.385 . S
O348 C326 1.234 . S
O349 Mn324 2.209 . S
O349 Mn325 2.215 . S
O349 C326 1.283 . S
O350 Mn324 2.094 . S
O350 C328 1.240 . S
O351 Mn325 2.117 . S
O351 C328 1.264 . S
C352 C345 1.403 . S
C352 C353 1.399 . S
C352 H358 0.929 . S
C353 C333 1.449 . S
C353 C352 1.399 . S
C353 H359 0.930 . S
H354 C334 0.931 . S
H355 C335 0.930 . S
H356 C343 0.931 . S
H357 C344 0.929 . S
H358 C352 0.929 . S
H359 C353 0.930 . S
Mn360 O365 2.095 . S
Mn360 O375 2.162 . S
Mn360 O376 2.297 . S
Mn360 O384 2.385 . S
Mn360 O385 2.209 . S
Mn360 O386 2.094 . S
Mn361 O366 2.121 . S
Mn361 N368 2.257 1_655 S
Mn361 N377 2.282 1_655 S
Mn361 O385 2.215 . S
Mn361 O387 2.117 . S
C362 O384 1.234 . S
C362 O385 1.283 . S
C363 O375 1.281 . S
C363 O376 1.236 . S
C364 O386 1.240 . S
C364 O387 1.264 . S
O365 Mn360 2.095 . S
O365 C374 1.250 . S
O366 Mn361 2.121 . S
O366 C374 1.258 . S
C367 N368 1.326 . S
C367 C371 1.460 . S
C367 H373 0.929 . S
N368 Mn361 2.257 1_455 S
N368 C367 1.326 . S
N368 C372 1.362 . S
C369 C370 1.258 . S
C369 C372 1.431 . S
C369 C389 1.449 . S
C370 C369 1.258 . S
C370 C371 1.477 . S
C370 H390 0.931 . S
C371 C367 1.460 . S
C371 C370 1.477 . S
C371 H391 0.930 . S
C372 N368 1.362 . S
C372 C369 1.431 . S
C372 C382 1.476 . S
H373 C367 0.929 . S
C374 O365 1.250 . S
C374 O366 1.258 . S
O375 Mn360 2.162 . S
O375 C363 1.281 . S
O376 Mn360 2.297 . S
O376 C363 1.236 . S
N377 Mn361 2.282 1_455 S
N377 C378 1.328 . S
N377 C382 1.318 . S
C378 N377 1.328 . S
C378 C379 1.457 . S
C378 H383 0.929 . S
C379 C378 1.457 . S
C379 C380 1.291 . S
C379 H392 0.931 . S
C380 C379 1.291 . S
C380 C381 1.373 . S
C380 H393 0.929 . S
C381 C380 1.373 . S
C381 C382 1.396 . S
C381 C388 1.403 . S
C382 C372 1.476 . S
C382 N377 1.318 . S
C382 C381 1.396 . S
H383 C378 0.929 . S
O384 Mn360 2.385 . S
O384 C362 1.234 . S
O385 Mn360 2.209 . S
O385 Mn361 2.215 . S
O385 C362 1.283 . S
O386 Mn360 2.094 . S
O386 C364 1.240 . S
O387 Mn361 2.117 . S
O387 C364 1.264 . S
C388 C381 1.403 . S
C388 C389 1.399 . S
C388 H394 0.929 . S
C389 C369 1.449 . S
C389 C388 1.399 . S
C389 H395 0.930 . S
H390 C370 0.931 . S
H391 C371 0.930 . S
H392 C379 0.931 . S
H393 C380 0.929 . S
H394 C388 0.929 . S
H395 C389 0.930 . S
Mn396 O401 2.095 . S
Mn396 O411 2.162 . S
Mn396 O412 2.297 . S
Mn396 O420 2.385 . S
Mn396 O421 2.209 . S
Mn396 O422 2.094 . S
Mn397 O402 2.121 . S
Mn397 N404 2.257 1_565 S
Mn397 N413 2.282 1_565 S
Mn397 O421 2.215 . S
Mn397 O423 2.117 . S
C398 O420 1.234 . S
C398 O421 1.283 . S
C399 O411 1.281 . S
C399 O412 1.236 . S
C400 O422 1.240 . S
C400 O423 1.264 . S
O401 Mn396 2.095 . S
O401 C410 1.250 . S
O402 Mn397 2.121 . S
O402 C410 1.258 . S
C403 N404 1.326 . S
C403 C407 1.460 . S
C403 H409 0.929 . S
N404 Mn397 2.257 1_545 S
N404 C403 1.326 . S
N404 C408 1.362 . S
C405 C406 1.258 . S
C405 C408 1.431 . S
C405 C425 1.449 . S
C406 C405 1.258 . S
C406 C407 1.477 . S
C406 H426 0.931 . S
C407 C403 1.460 . S
C407 C406 1.477 . S
C407 H427 0.930 . S
C408 N404 1.362 . S
C408 C405 1.431 . S
C408 C418 1.476 . S
H409 C403 0.929 . S
C410 O401 1.250 . S
C410 O402 1.258 . S
O411 Mn396 2.162 . S
O411 C399 1.281 . S
O412 Mn396 2.297 . S
O412 C399 1.236 . S
N413 Mn397 2.282 1_545 S
N413 C414 1.328 . S
N413 C418 1.318 . S
C414 N413 1.328 . S
C414 C415 1.457 . S
C414 H419 0.929 . S
C415 C414 1.457 . S
C415 C416 1.291 . S
C415 H428 0.931 . S
C416 C415 1.291 . S
C416 C417 1.373 . S
C416 H429 0.929 . S
C417 C416 1.373 . S
C417 C418 1.396 . S
C417 C424 1.403 . S
C418 C408 1.476 . S
C418 N413 1.318 . S
C418 C417 1.396 . S
H419 C414 0.929 . S
O420 Mn396 2.385 . S
O420 C398 1.234 . S
O421 Mn396 2.209 . S
O421 Mn397 2.215 . S
O421 C398 1.283 . S
O422 Mn396 2.094 . S
O422 C400 1.240 . S
O423 Mn397 2.117 . S
O423 C400 1.264 . S
C424 C417 1.403 . S
C424 C425 1.399 . S
C424 H430 0.929 . S
C425 C405 1.449 . S
C425 C424 1.399 . S
C425 H431 0.930 . S
H426 C406 0.931 . S
H427 C407 0.930 . S
H428 C415 0.931 . S
H429 C416 0.929 . S
H430 C424 0.929 . S
H431 C425 0.930 . S
H432 C440 0.950 . S
H433 C445 0.950 . S
H434 C442 0.950 . S
H435 C444 0.950 . S
H436 C446 0.950 . S
H437 C448 0.950 . S
H438 C450 0.950 . S
H439 C451 0.950 . S
C440 H432 0.950 . S
C440 C441 1.386 . S
C440 C442 1.391 . S
C441 C440 1.386 . S
C441 C445 1.393 . S
C442 H434 0.950 . S
C442 C440 1.391 . S
C442 C443 1.400 . S
C443 C442 1.400 . S
C443 C444 1.398 . S
C443 C449 1.491 . S
C444 H435 0.950 . S
C444 C443 1.398 . S
C444 C445 1.391 . S
C445 H433 0.950 . S
C445 C441 1.393 . S
C445 C444 1.391 . S
C446 H436 0.950 . S
C446 C447 1.386 . S
C446 C448 1.391 . S
C447 C446 1.386 . S
C447 C451 1.393 . S
C448 H437 0.950 . S
C448 C446 1.391 . S
C448 C449 1.400 . S
C449 C443 1.491 . S
C449 C448 1.400 . S
C449 C450 1.398 . S
C450 H438 0.950 . S
C450 C449 1.398 . S
C450 C451 1.391 . S
C451 H439 0.950 . S
C451 C447 1.393 . S
C451 C450 1.391 . S
H452 C460 0.950 1_655 S
H453 C465 0.950 . S
H454 C462 0.950 . S
H455 C464 0.950 . S
H456 C466 0.950 1_455 S
H457 C468 0.950 . S
H458 C470 0.950 . S
H459 C471 0.950 . S
C460 H452 0.950 1_455 S
C460 C461 1.386 . S
C460 C462 1.391 1_455 S
C461 C460 1.386 . S
C461 C465 1.393 . S
C462 H454 0.950 . S
C462 C460 1.391 1_655 S
C462 C463 1.400 1_655 S
C463 C462 1.400 1_455 S
C463 C464 1.398 . S
C463 C469 1.491 1_455 S
C464 H455 0.950 . S
C464 C463 1.398 . S
C464 C465 1.391 . S
C465 H453 0.950 . S
C465 C461 1.393 . S
C465 C464 1.391 . S
C466 H456 0.950 1_655 S
C466 C467 1.386 . S
C466 C468 1.391 1_655 S
C467 C466 1.386 . S
C467 C471 1.393 . S
C468 H457 0.950 . S
C468 C466 1.391 1_455 S
C468 C469 1.400 1_455 S
C469 C463 1.491 1_655 S
C469 C468 1.400 1_655 S
C469 C470 1.398 . S
C470 H458 0.950 . S
C470 C469 1.398 . S
C470 C471 1.391 . S
C471 H459 0.950 . S
C471 C467 1.393 . S
C471 C470 1.391 . S
H472 C480 0.950 1_545 S
H473 C485 0.950 . S
H474 C482 0.950 . S
H475 C484 0.950 . S
H476 C486 0.950 1_565 S
H477 C488 0.950 . S
H478 C490 0.950 . S
H479 C491 0.950 . S
C480 H472 0.950 1_565 S
C480 C481 1.386 . S
C480 C482 1.391 1_565 S
C481 C480 1.386 . S
C481 C485 1.393 . S
C482 H474 0.950 . S
C482 C480 1.391 1_545 S
C482 C483 1.400 1_545 S
C483 C482 1.400 1_565 S
C483 C484 1.398 . S
C483 C489 1.491 1_565 S
C484 H475 0.950 . S
C484 C483 1.398 . S
C484 C485 1.391 . S
C485 H473 0.950 . S
C485 C481 1.393 . S
C485 C484 1.391 . S
C486 H476 0.950 1_545 S
C486 C487 1.386 . S
C486 C488 1.391 1_545 S
C487 C486 1.386 . S
C487 C491 1.393 . S
C488 H477 0.950 . S
C488 C486 1.391 1_565 S
C488 C489 1.400 1_565 S
C489 C483 1.491 1_545 S
C489 C488 1.400 1_545 S
C489 C490 1.398 . S
C490 H478 0.950 . S
C490 C489 1.398 . S
C490 C491 1.391 . S
C491 H479 0.950 . S
C491 C487 1.393 . S
C491 C490 1.391 . S
H492 C500 0.950 . S
H493 C505 0.950 . S
H494 C502 0.950 . S
H495 C504 0.950 . S
H496 C506 0.950 . S
H497 C508 0.950 . S
H498 C510 0.950 . S
H499 C511 0.950 . S
C500 H492 0.950 . S
C500 C501 1.386 . S
C500 C502 1.391 . S
C501 C500 1.386 . S
C501 C505 1.393 . S
C502 H494 0.950 . S
C502 C500 1.391 . S
C502 C503 1.400 . S
C503 C502 1.400 . S
C503 C504 1.398 . S
C503 C509 1.491 . S
C504 H495 0.950 . S
C504 C503 1.398 . S
C504 C505 1.391 . S
C505 H493 0.950 . S
C505 C501 1.393 . S
C505 C504 1.391 . S
C506 H496 0.950 . S
C506 C507 1.386 . S
C506 C508 1.391 . S
C507 C506 1.386 . S
C507 C511 1.393 . S
C508 H497 0.950 . S
C508 C506 1.391 . S
C508 C509 1.400 . S
C509 C503 1.491 . S
C509 C508 1.400 . S
C509 C510 1.398 . S
C510 H498 0.950 . S
C510 C509 1.398 . S
C510 C511 1.391 . S
C511 H499 0.950 . S
C511 C507 1.393 . S
C511 C510 1.391 . S
H512 C520 0.950 . S
H513 C525 0.950 . S
H514 C522 0.950 . S
H515 C524 0.950 1_455 S
H516 C526 0.950 . S
H517 C528 0.950 . S
H518 C530 0.950 1_655 S
H519 C531 0.950 . S
C520 H512 0.950 . S
C520 C521 1.386 . S
C520 C522 1.391 . S
C521 C520 1.386 . S
C521 C525 1.393 . S
C522 H514 0.950 . S
C522 C520 1.391 . S
C522 C523 1.400 . S
C523 C522 1.400 . S
C523 C524 1.398 . S
C523 C529 1.491 1_655 S
C524 H515 0.950 1_655 S
C524 C523 1.398 . S
C524 C525 1.391 . S
C525 H513 0.950 . S
C525 C521 1.393 . S
C525 C524 1.391 . S
C526 H516 0.950 . S
C526 C527 1.386 . S
C526 C528 1.391 . S
C527 C526 1.386 . S
C527 C531 1.393 . S
C528 H517 0.950 . S
C528 C526 1.391 . S
C528 C529 1.400 . S
C529 C523 1.491 1_455 S
C529 C528 1.400 . S
C529 C530 1.398 . S
C530 H518 0.950 1_455 S
C530 C529 1.398 . S
C530 C531 1.391 . S
C531 H519 0.950 . S
C531 C527 1.393 . S
C531 C530 1.391 . S
H532 C540 0.950 . S
H533 C545 0.950 . S
H534 C542 0.950 . S
H535 C544 0.950 1_565 S
H536 C546 0.950 . S
H537 C548 0.950 . S
H538 C550 0.950 1_545 S
H539 C551 0.950 . S
C540 H532 0.950 . S
C540 C541 1.386 . S
C540 C542 1.391 . S
C541 C540 1.386 . S
C541 C545 1.393 . S
C542 H534 0.950 . S
C542 C540 1.391 . S
C542 C543 1.400 . S
C543 C542 1.400 . S
C543 C544 1.398 . S
C543 C549 1.491 1_545 S
C544 H535 0.950 1_545 S
C544 C543 1.398 . S
C544 C545 1.391 . S
C545 H533 0.950 . S
C545 C541 1.393 . S
C545 C544 1.391 . S
C546 H536 0.950 . S
C546 C547 1.386 . S
C546 C548 1.391 . S
C547 C546 1.386 . S
C547 C551 1.393 . S
C548 H537 0.950 . S
C548 C546 1.391 . S
C548 C549 1.400 . S
C549 C543 1.491 1_565 S
C549 C548 1.400 . S
C549 C550 1.398 . S
C550 H538 0.950 1_565 S
C550 C549 1.398 . S
C550 C551 1.391 . S
C551 H539 0.950 . S
C551 C547 1.393 . S
C551 C550 1.391 . S
H552 C560 0.950 . S
H553 C565 0.950 . S
H554 C562 0.950 . S
H555 C564 0.950 . S
H556 C566 0.950 . S
H557 C568 0.950 . S
H558 C570 0.950 . S
H559 C571 0.950 . S
C560 H552 0.950 . S
C560 C561 1.386 . S
C560 C562 1.391 . S
C561 C560 1.386 . S
C561 C565 1.393 . S
C562 H554 0.950 . S
C562 C560 1.391 . S
C562 C563 1.400 . S
C563 C562 1.400 . S
C563 C564 1.398 . S
C563 C569 1.491 . S
C564 H555 0.950 . S
C564 C563 1.398 . S
C564 C565 1.391 . S
C565 H553 0.950 . S
C565 C561 1.393 . S
C565 C564 1.391 . S
C566 H556 0.950 . S
C566 C567 1.386 . S
C566 C568 1.391 . S
C567 C566 1.386 . S
C567 C571 1.393 . S
C568 H557 0.950 . S
C568 C566 1.391 . S
C568 C569 1.400 . S
C569 C563 1.491 . S
C569 C568 1.400 . S
C569 C570 1.398 . S
C570 H558 0.950 . S
C570 C569 1.398 . S
C570 C571 1.391 . S
C571 H559 0.950 . S
C571 C567 1.393 . S
C571 C570 1.391 . S
H572 C580 0.950 . S
H573 C585 0.950 . S
H574 C582 0.950 . S
H575 C584 0.950 . S
H576 C586 0.950 . S
H577 C588 0.950 . S
H578 C590 0.950 . S
H579 C591 0.950 . S
C580 H572 0.950 . S
C580 C581 1.386 . S
C580 C582 1.391 . S
C581 C580 1.386 . S
C581 C585 1.393 . S
C582 H574 0.950 . S
C582 C580 1.391 . S
C582 C583 1.400 . S
C583 C582 1.400 . S
C583 C584 1.398 . S
C583 C589 1.491 . S
C584 H575 0.950 . S
C584 C583 1.398 . S
C584 C585 1.391 . S
C585 H573 0.950 . S
C585 C581 1.393 . S
C585 C584 1.391 . S
C586 H576 0.950 . S
C586 C587 1.386 . S
C586 C588 1.391 . S
C587 C586 1.386 . S
C587 C591 1.393 . S
C588 H577 0.950 . S
C588 C586 1.391 . S
C588 C589 1.400 . S
C589 C583 1.491 . S
C589 C588 1.400 . S
C589 C590 1.398 . S
C590 H578 0.950 . S
C590 C589 1.398 . S
C590 C591 1.391 . S
C591 H579 0.950 . S
C591 C587 1.393 . S
C591 C590 1.391 . S
H592 C600 0.950 . S
H593 C605 0.950 . S
H594 C602 0.950 . S
H595 C604 0.950 . S
H596 C606 0.950 . S
H597 C608 0.950 . S
H598 C610 0.950 . S
H599 C611 0.950 . S
C600 H592 0.950 . S
C600 C601 1.386 . S
C600 C602 1.391 . S
C601 C600 1.386 . S
C601 C605 1.393 . S
C602 H594 0.950 . S
C602 C600 1.391 . S
C602 C603 1.400 . S
C603 C602 1.400 . S
C603 C604 1.398 . S
C603 C609 1.491 . S
C604 H595 0.950 . S
C604 C603 1.398 . S
C604 C605 1.391 . S
C605 H593 0.950 . S
C605 C601 1.393 . S
C605 C604 1.391 . S
C606 H596 0.950 . S
C606 C607 1.386 . S
C606 C608 1.391 . S
C607 C606 1.386 . S
C607 C611 1.393 . S
C608 H597 0.950 . S
C608 C606 1.391 . S
C608 C609 1.400 . S
C609 C603 1.491 . S
C609 C608 1.400 . S
C609 C610 1.398 . S
C610 H598 0.950 . S
C610 C609 1.398 . S
C610 C611 1.391 . S
C611 H599 0.950 . S
C611 C607 1.393 . S
C611 C610 1.391 . S
H612 C620 0.950 . S
H613 C625 0.950 . S
H614 C622 0.950 . S
H615 C624 0.950 . S
H616 C626 0.950 . S
H617 C628 0.950 . S
H618 C630 0.950 . S
H619 C631 0.950 . S
C620 H612 0.950 . S
C620 C621 1.386 . S
C620 C622 1.391 . S
C621 C620 1.386 . S
C621 C625 1.393 . S
C622 H614 0.950 . S
C622 C620 1.391 . S
C622 C623 1.400 . S
C623 C622 1.400 . S
C623 C624 1.398 . S
C623 C629 1.491 . S
C624 H615 0.950 . S
C624 C623 1.398 . S
C624 C625 1.391 . S
C625 H613 0.950 . S
C625 C621 1.393 . S
C625 C624 1.391 . S
C626 H616 0.950 . S
C626 C627 1.386 . S
C626 C628 1.391 . S
C627 C626 1.386 . S
C627 C631 1.393 . S
C628 H617 0.950 . S
C628 C626 1.391 . S
C628 C629 1.400 . S
C629 C623 1.491 . S
C629 C628 1.400 . S
C629 C630 1.398 . S
C630 H618 0.950 . S
C630 C629 1.398 . S
C630 C631 1.391 . S
C631 H619 0.950 . S
C631 C627 1.393 . S
C631 C630 1.391 . S
H632 C640 0.950 . S
H633 C645 0.950 . S
H634 C642 0.950 . S
H635 C644 0.950 . S
H636 C646 0.950 . S
H637 C648 0.950 . S
H638 C650 0.950 . S
H639 C651 0.950 . S
C640 H632 0.950 . S
C640 C641 1.386 . S
C640 C642 1.391 . S
C641 C640 1.386 . S
C641 C645 1.393 . S
C642 H634 0.950 . S
C642 C640 1.391 . S
C642 C643 1.400 . S
C643 C642 1.400 . S
C643 C644 1.398 . S
C643 C649 1.491 . S
C644 H635 0.950 . S
C644 C643 1.398 . S
C644 C645 1.391 . S
C645 H633 0.950 . S
C645 C641 1.393 . S
C645 C644 1.391 . S
C646 H636 0.950 . S
C646 C647 1.386 . S
C646 C648 1.391 . S
C647 C646 1.386 . S
C647 C651 1.393 . S
C648 H637 0.950 . S
C648 C646 1.391 . S
C648 C649 1.400 . S
C649 C643 1.491 . S
C649 C648 1.400 . S
C649 C650 1.398 . S
C650 H638 0.950 . S
C650 C649 1.398 . S
C650 C651 1.391 . S
C651 H639 0.950 . S
C651 C647 1.393 . S
C651 C650 1.391 . S
H652 C660 0.950 . S
H653 C665 0.950 . S
H654 C662 0.950 . S
H655 C664 0.950 . S
H656 C666 0.950 . S
H657 C668 0.950 . S
H658 C670 0.950 . S
H659 C671 0.950 . S
C660 H652 0.950 . S
C660 C661 1.386 . S
C660 C662 1.391 . S
C661 C660 1.386 . S
C661 C665 1.393 . S
C662 H654 0.950 . S
C662 C660 1.391 . S
C662 C663 1.400 . S
C663 C662 1.400 . S
C663 C664 1.398 . S
C663 C669 1.491 . S
C664 H655 0.950 . S
C664 C663 1.398 . S
C664 C665 1.391 . S
C665 H653 0.950 . S
C665 C661 1.393 . S
C665 C664 1.391 . S
C666 H656 0.950 . S
C666 C667 1.386 . S
C666 C668 1.391 . S
C667 C666 1.386 . S
C667 C671 1.393 . S
C668 H657 0.950 . S
C668 C666 1.391 . S
C668 C669 1.400 . S
C669 C663 1.491 . S
C669 C668 1.400 . S
C669 C670 1.398 . S
C670 H658 0.950 . S
C670 C669 1.398 . S
C670 C671 1.391 . S
C671 H659 0.950 . S
C671 C667 1.393 . S
C671 C670 1.391 . S
H672 C680 0.950 . S
H673 C685 0.950 . S
H674 C682 0.950 1_554 S
H675 C684 0.950 . S
H676 C686 0.950 . S
H677 C688 0.950 . S
H678 C690 0.950 . S
H679 C691 0.950 . S
C680 H672 0.950 . S
C680 C681 1.386 . S
C680 C682 1.391 . S
C681 C680 1.386 . S
C681 C685 1.393 . S
C682 H674 0.950 1_556 S
C682 C680 1.391 . S
C682 C683 1.400 . S
C683 C682 1.400 . S
C683 C684 1.398 . S
C683 C689 1.491 1_566 S
C684 H675 0.950 . S
C684 C683 1.398 . S
C684 C685 1.391 . S
C685 H673 0.950 . S
C685 C681 1.393 . S
C685 C684 1.391 . S
C686 H676 0.950 . S
C686 C687 1.386 . S
C686 C688 1.391 . S
C687 C686 1.386 . S
C687 C691 1.393 . S
C688 H677 0.950 . S
C688 C686 1.391 . S
C688 C689 1.400 . S
C689 C683 1.491 1_544 S
C689 C688 1.400 . S
C689 C690 1.398 . S
C690 H678 0.950 . S
C690 C689 1.398 . S
C690 C691 1.391 . S
C691 H679 0.950 . S
C691 C687 1.393 . S
C691 C690 1.391 . S
H692 C700 0.950 . S
H693 C705 0.950 . S
H694 C702 0.950 . S
H695 C704 0.950 . S
H696 C706 0.950 . S
H697 C708 0.950 . S
H698 C710 0.950 . S
H699 C711 0.950 . S
C700 H692 0.950 . S
C700 C701 1.386 . S
C700 C702 1.391 . S
C701 C700 1.386 . S
C701 C705 1.393 . S
C702 H694 0.950 . S
C702 C700 1.391 . S
C702 C703 1.400 . S
C703 C702 1.400 . S
C703 C704 1.398 . S
C703 C709 1.491 . S
C704 H695 0.950 . S
C704 C703 1.398 . S
C704 C705 1.391 . S
C705 H693 0.950 . S
C705 C701 1.393 . S
C705 C704 1.391 . S
C706 H696 0.950 . S
C706 C707 1.386 . S
C706 C708 1.391 . S
C707 C706 1.386 . S
C707 C711 1.393 . S
C708 H697 0.950 . S
C708 C706 1.391 . S
C708 C709 1.400 . S
C709 C703 1.491 . S
C709 C708 1.400 . S
C709 C710 1.398 . S
C710 H698 0.950 . S
C710 C709 1.398 . S
C710 C711 1.391 . S
C711 H699 0.950 . S
C711 C707 1.393 . S
C711 C710 1.391 . S
H712 C720 0.950 . S
H713 C725 0.950 . S
H714 C722 0.950 . S
H715 C724 0.950 . S
H716 C726 0.950 . S
H717 C728 0.950 . S
H718 C730 0.950 . S
H719 C731 0.950 . S
C720 H712 0.950 . S
C720 C721 1.386 . S
C720 C722 1.391 . S
C721 C720 1.386 . S
C721 C725 1.393 . S
C722 H714 0.950 . S
C722 C720 1.391 . S
C722 C723 1.400 . S
C723 C722 1.400 . S
C723 C724 1.398 . S
C723 C729 1.491 1_655 S
C724 H715 0.950 . S
C724 C723 1.398 . S
C724 C725 1.391 . S
C725 H713 0.950 . S
C725 C721 1.393 . S
C725 C724 1.391 . S
C726 H716 0.950 . S
C726 C727 1.386 . S
C726 C728 1.391 . S
C727 C726 1.386 . S
C727 C731 1.393 . S
C728 H717 0.950 . S
C728 C726 1.391 . S
C728 C729 1.400 . S
C729 C723 1.491 1_455 S
C729 C728 1.400 . S
C729 C730 1.398 . S
C730 H718 0.950 . S
C730 C729 1.398 . S
C730 C731 1.391 . S
C731 H719 0.950 . S
C731 C727 1.393 . S
C731 C730 1.391 . S
H732 C740 0.940 1_556 S
H733 C745 0.950 . S
H734 C742 0.950 . S
H735 C744 0.950 . S
H736 C746 0.950 1_554 S
H737 C748 0.950 . S
H738 C750 0.950 . S
H739 C751 0.950 . S
C740 H732 0.940 1_554 S
C740 C741 1.386 . S
C740 C742 1.391 1_554 S
C741 C740 1.386 . S
C741 C745 1.393 . S
C742 H734 0.950 . S
C742 C740 1.391 1_556 S
C742 C743 1.400 1_556 S
C743 C742 1.400 1_554 S
C743 C744 1.398 . S
C743 C749 1.491 1_564 S
C744 H735 0.950 . S
C744 C743 1.398 . S
C744 C745 1.391 . S
C745 H733 0.950 . S
C745 C741 1.393 . S
C745 C744 1.391 . S
C746 H736 0.950 1_556 S
C746 C747 1.386 . S
C746 C748 1.391 1_556 S
C747 C746 1.386 . S
C747 C751 1.393 . S
C748 H737 0.950 . S
C748 C746 1.391 1_554 S
C748 C749 1.400 1_554 S
C749 C743 1.491 1_546 S
C749 C748 1.400 1_556 S
C749 C750 1.398 . S
C750 H738 0.950 . S
C750 C749 1.398 . S
C750 C751 1.391 . S
C751 H739 0.950 . S
C751 C747 1.393 . S
C751 C750 1.391 . S
H752 C760 0.950 . S
H753 C765 0.950 . S
H754 C762 0.950 . S
H755 C764 0.950 . S
H756 C766 0.950 . S
H757 C768 0.950 . S
H758 C770 0.950 . S
H759 C771 0.950 . S
C760 H752 0.950 . S
C760 C761 1.386 . S
C760 C762 1.391 . S
C761 C760 1.386 . S
C761 C765 1.393 . S
C762 H754 0.950 . S
C762 C760 1.391 . S
C762 C763 1.400 . S
C763 C762 1.400 . S
C763 C764 1.398 . S
C763 C769 1.491 . S
C764 H755 0.950 . S
C764 C763 1.398 . S
C764 C765 1.391 . S
C765 H753 0.950 . S
C765 C761 1.393 . S
C765 C764 1.391 . S
C766 H756 0.950 . S
C766 C767 1.386 . S
C766 C768 1.391 . S
C767 C766 1.386 . S
C767 C771 1.393 . S
C768 H757 0.950 . S
C768 C766 1.391 . S
C768 C769 1.400 . S
C769 C763 1.491 . S
C769 C768 1.400 . S
C769 C770 1.398 . S
C770 H758 0.950 . S
C770 C769 1.398 . S
C770 C771 1.391 . S
C771 H759 0.950 . S
C771 C767 1.393 . S
C771 C770 1.391 . S
H772 C780 0.950 . S
H773 C785 0.950 . S
H774 C782 0.950 . S
H775 C784 0.950 . S
H776 C786 0.950 . S
H777 C788 0.950 . S
H778 C790 0.950 . S
H779 C791 0.950 . S
C780 H772 0.950 . S
C780 C781 1.386 . S
C780 C782 1.391 . S
C781 C780 1.386 . S
C781 C785 1.393 . S
C782 H774 0.950 . S
C782 C780 1.391 . S
C782 C783 1.400 . S
C783 C782 1.400 . S
C783 C784 1.398 . S
C783 C789 1.491 1_455 S
C784 H775 0.950 . S
C784 C783 1.398 . S
C784 C785 1.391 . S
C785 H773 0.950 . S
C785 C781 1.393 . S
C785 C784 1.391 . S
C786 H776 0.950 . S
C786 C787 1.386 . S
C786 C788 1.391 . S
C787 C786 1.386 . S
C787 C791 1.393 . S
C788 H777 0.950 . S
C788 C786 1.391 . S
C788 C789 1.400 . S
C789 C783 1.491 1_655 S
C789 C788 1.400 . S
C789 C790 1.398 . S
C790 H778 0.950 . S
C790 C789 1.398 . S
C790 C791 1.391 . S
C791 H779 0.950 . S
C791 C787 1.393 . S
C791 C790 1.391 . S
H792 C800 0.950 . S
H793 C805 0.950 1_655 S
H794 C802 0.950 . S
H795 C804 0.950 1_554 S
H796 C806 0.950 . S
H797 C808 0.950 . S
H798 C810 0.950 1_556 S
H799 C811 0.950 . S
C800 H792 0.950 . S
C800 C801 1.386 . S
C800 C802 1.391 . S
C801 C800 1.386 . S
C801 C805 1.393 . S
C802 H794 0.950 . S
C802 C800 1.391 . S
C802 C803 1.400 . S
C803 C802 1.400 . S
C803 C804 1.398 . S
C803 C809 1.491 1_556 S
C804 H795 0.950 1_556 S
C804 C803 1.398 . S
C804 C805 1.391 . S
C805 H793 0.950 1_455 S
C805 C801 1.393 . S
C805 C804 1.391 . S
C806 H796 0.950 . S
C806 C807 1.386 . S
C806 C808 1.391 . S
C807 C806 1.386 . S
C807 C811 1.393 . S
C808 H797 0.950 . S
C808 C806 1.391 . S
C808 C809 1.400 . S
C809 C803 1.491 1_554 S
C809 C808 1.400 . S
C809 C810 1.398 . S
C810 H798 0.950 1_554 S
C810 C809 1.398 . S
C810 C811 1.391 . S
C811 H799 0.950 . S
C811 C807 1.393 . S
C811 C810 1.391 . S
H812 C820 0.949 . S
H813 C825 0.950 . S
H814 C822 0.950 . S
H815 C824 0.950 . S
H816 C826 0.950 . S
H817 C828 0.950 . S
H818 C830 0.950 . S
H819 C831 0.950 1_455 S
C820 H812 0.949 . S
C820 C821 1.386 . S
C820 C822 1.391 . S
C821 C820 1.386 . S
C821 C825 1.393 . S
C822 H814 0.950 . S
C822 C820 1.391 . S
C822 C823 1.400 . S
C823 C822 1.400 . S
C823 C824 1.398 . S
C823 C829 1.491 . S
C824 H815 0.950 . S
C824 C823 1.398 . S
C824 C825 1.391 . S
C825 H813 0.950 . S
C825 C821 1.393 . S
C825 C824 1.391 . S
C826 H816 0.950 . S
C826 C827 1.386 . S
C826 C828 1.391 . S
C827 C826 1.386 . S
C827 C831 1.393 . S
C828 H817 0.950 . S
C828 C826 1.391 . S
C828 C829 1.400 . S
C829 C823 1.491 . S
C829 C828 1.400 . S
C829 C830 1.398 . S
C830 H818 0.950 . S
C830 C829 1.398 . S
C830 C831 1.391 . S
C831 H819 0.950 1_655 S
C831 C827 1.393 . S
C831 C830 1.391 . S
H832 C840 0.950 . S
H833 C845 0.950 . S
H834 C842 0.950 . S
H835 C844 0.950 . S
H836 C846 0.950 . S
H837 C848 0.950 . S
H838 C850 0.950 . S
H839 C851 0.950 1_545 S
C840 H832 0.950 . S
C840 C841 1.386 . S
C840 C842 1.391 . S
C841 C840 1.386 . S
C841 C845 1.393 . S
C842 H834 0.950 . S
C842 C840 1.391 . S
C842 C843 1.400 . S
C843 C842 1.400 . S
C843 C844 1.398 . S
C843 C849 1.491 . S
C844 H835 0.950 . S
C844 C843 1.398 . S
C844 C845 1.391 . S
C845 H833 0.950 . S
C845 C841 1.393 . S
C845 C844 1.391 . S
C846 H836 0.950 . S
C846 C847 1.386 . S
C846 C848 1.391 . S
C847 C846 1.386 . S
C847 C851 1.393 . S
C848 H837 0.950 . S
C848 C846 1.391 . S
C848 C849 1.400 . S
C849 C843 1.491 . S
C849 C848 1.400 . S
C849 C850 1.398 . S
C850 H838 0.950 . S
C850 C849 1.398 . S
C850 C851 1.391 . S
C851 H839 0.950 1_565 S
C851 C847 1.393 . S
C851 C850 1.391 . S
H852 C860 0.950 . S
H853 C865 0.950 . S
H854 C862 0.950 . S
H855 C864 0.950 . S
H856 C866 0.950 . S
H857 C868 0.950 . S
H858 C870 0.950 . S
H859 C871 0.950 1_455 S
C860 H852 0.950 . S
C860 C861 1.386 . S
C860 C862 1.391 . S
C861 C860 1.386 . S
C861 C865 1.393 . S
C862 H854 0.950 . S
C862 C860 1.391 . S
C862 C863 1.400 . S
C863 C862 1.400 . S
C863 C864 1.398 . S
C863 C869 1.491 1_554 S
C864 H855 0.950 . S
C864 C863 1.398 . S
C864 C865 1.391 . S
C865 H853 0.950 . S
C865 C861 1.393 . S
C865 C864 1.391 . S
C866 H856 0.950 . S
C866 C867 1.386 . S
C866 C868 1.391 . S
C867 C866 1.386 . S
C867 C871 1.393 . S
C868 H857 0.950 . S
C868 C866 1.391 . S
C868 C869 1.400 . S
C869 C863 1.491 1_556 S
C869 C868 1.400 . S
C869 C870 1.398 . S
C870 H858 0.950 . S
C870 C869 1.398 . S
C870 C871 1.391 . S
C871 H859 0.950 1_655 S
C871 C867 1.393 . S
C871 C870 1.391 . S
H872 C880 0.950 . S
H873 C885 0.950 . S
H874 C882 0.950 . S
H875 C884 0.950 . S
H876 C886 0.950 . S
H877 C888 0.950 . S
H878 C890 0.950 . S
H879 C891 0.950 1_545 S
C880 H872 0.950 . S
C880 C881 1.386 . S
C880 C882 1.391 . S
C881 C880 1.386 . S
C881 C885 1.393 . S
C882 H874 0.950 . S
C882 C880 1.391 . S
C882 C883 1.400 . S
C883 C882 1.400 . S
C883 C884 1.398 . S
C883 C889 1.491 . S
C884 H875 0.950 . S
C884 C883 1.398 . S
C884 C885 1.391 . S
C885 H873 0.950 . S
C885 C881 1.393 . S
C885 C884 1.391 . S
C886 H876 0.950 . S
C886 C887 1.386 . S
C886 C888 1.391 . S
C887 C886 1.386 . S
C887 C891 1.393 . S
C888 H877 0.950 . S
C888 C886 1.391 . S
C888 C889 1.400 . S
C889 C883 1.491 . S
C889 C888 1.400 . S
C889 C890 1.398 . S
C890 H878 0.950 . S
C890 C889 1.398 . S
C890 C891 1.391 . S
C891 H879 0.950 1_565 S
C891 C887 1.393 . S
C891 C890 1.391 . S
H892 C900 0.950 . S
H893 C905 0.950 1_565 S
H894 C902 0.950 . S
H895 C904 0.950 . S
H896 C906 0.950 . S
H897 C908 0.950 . S
H898 C910 0.950 . S
H899 C911 0.950 . S
C900 H892 0.950 . S
C900 C901 1.386 . S
C900 C902 1.391 . S
C901 C900 1.386 . S
C901 C905 1.393 . S
C902 H894 0.950 . S
C902 C900 1.391 . S
C902 C903 1.400 . S
C903 C902 1.400 . S
C903 C904 1.398 . S
C903 C909 1.491 . S
C904 H895 0.950 . S
C904 C903 1.398 . S
C904 C905 1.391 . S
C905 H893 0.950 1_545 S
C905 C901 1.393 . S
C905 C904 1.391 . S
C906 H896 0.950 . S
C906 C907 1.386 . S
C906 C908 1.391 . S
C907 C906 1.386 . S
C907 C911 1.393 . S
C908 H897 0.950 . S
C908 C906 1.391 . S
C908 C909 1.400 . S
C909 C903 1.491 . S
C909 C908 1.400 . S
C909 C910 1.398 . S
C910 H898 0.950 . S
C910 C909 1.398 . S
C910 C911 1.391 . S
C911 H899 0.950 . S
C911 C907 1.393 . S
C911 C910 1.391 . S
C441 C112 1.347 . S
C447 C4 1.346 . S
C461 C40 1.335 . S
C467 C148 1.343 . S
C481 C184 1.329 . S
C487 C76 1.338 . S
C501 C220 1.337 . S
C507 C328 1.344 . S
C521 C364 1.321 . S
C527 C256 1.318 . S
C541 C292 1.323 . S
C547 C400 1.319 . S
C561 C302 1.582 . S
C567 C14 1.582 . S
C581 C50 1.571 . S
C587 C338 1.572 . S
C601 C86 1.567 . S
C607 C374 1.566 . S
C621 C122 1.584 . S
C627 C410 1.584 . S
C641 C230 1.571 . S
C647 C158 1.570 . S
C661 C266 1.564 . S
C667 C194 1.565 . S
C681 C255 1.080 . S
C687 C3 1.077 . S
C701 C39 1.062 . S
C707 C291 1.072 . S
C721 C75 1.066 . S
C727 C327 1.080 . S
C741 C111 1.082 . S
C747 C363 1.072 . S
C761 C399 1.079 . S
C767 C147 1.079 . S
C781 C183 1.081 . S
C787 C219 1.076 . S
C801 C362 1.498 1_455 S
C807 C2 1.497 . S
C821 C398 1.511 1_545 S
C827 C38 1.511 1_655 S
C841 C218 1.509 . S
C847 C74 1.507 1_565 S
C861 C110 1.511 . S
C867 C254 1.511 1_655 S
C881 C146 1.510 1_455 S
C887 C290 1.508 1_565 S
C901 C182 1.501 1_545 S
C907 C326 1.499 . S
