# Generated by pormake.
# Topology dia-a, (4)-cn, num edge types: 1
# Building blocks:
#     Node 0, Type 0, BuildingBlock: NAHDIM_clean_sbu_0, # of connection points: 4
#     Node 1, Type 0, BuildingBlock: NAHDIM_clean_sbu_0, # of connection points: 4
#     Node 2, Type 0, BuildingBlock: NAHDIM_clean_sbu_0, # of connection points: 4
#     Node 3, Type 0, BuildingBlock: NAHDIM_clean_sbu_0, # of connection points: 4
#     Node 4, Type 0, BuildingBlock: NAHDIM_clean_sbu_0, # of connection points: 4
#     Node 5, Type 0, BuildingBlock: NAHDIM_clean_sbu_0, # of connection points: 4
#     Node 6, Type 0, BuildingBlock: NAHDIM_clean_sbu_0, # of connection points: 4
#     Node 7, Type 0, BuildingBlock: NAHDIM_clean_sbu_0, # of connection points: 4
#     Node 8, Type 0, BuildingBlock: NAHDIM_clean_sbu_0, # of connection points: 4
#     Node 9, Type 0, BuildingBlock: NAHDIM_clean_sbu_0, # of connection points: 4
#     Node 10, Type 0, BuildingBlock: NAHDIM_clean_sbu_0, # of connection points: 4
#     Node 11, Type 0, BuildingBlock: NAHDIM_clean_sbu_0, # of connection points: 4
#     Node 12, Type 0, BuildingBlock: NAHDIM_clean_sbu_0, # of connection points: 4
#     Node 13, Type 0, BuildingBlock: NAHDIM_clean_sbu_0, # of connection points: 4
#     Node 14, Type 0, BuildingBlock: NAHDIM_clean_sbu_0, # of connection points: 4
#     Node 15, Type 0, BuildingBlock: NAHDIM_clean_sbu_0, # of connection points: 4
#     Node 16, Type 0, BuildingBlock: NAHDIM_clean_sbu_0, # of connection points: 4
#     Node 17, Type 0, BuildingBlock: NAHDIM_clean_sbu_0, # of connection points: 4
#     Node 18, Type 0, BuildingBlock: NAHDIM_clean_sbu_0, # of connection points: 4
#     Node 19, Type 0, BuildingBlock: NAHDIM_clean_sbu_0, # of connection points: 4
#     Node 20, Type 0, BuildingBlock: NAHDIM_clean_sbu_0, # of connection points: 4
#     Node 21, Type 0, BuildingBlock: NAHDIM_clean_sbu_0, # of connection points: 4
#     Node 22, Type 0, BuildingBlock: NAHDIM_clean_sbu_0, # of connection points: 4
#     Node 23, Type 0, BuildingBlock: NAHDIM_clean_sbu_0, # of connection points: 4
#     Node 24, Type 0, BuildingBlock: NAHDIM_clean_sbu_0, # of connection points: 4
#     Node 25, Type 0, BuildingBlock: NAHDIM_clean_sbu_0, # of connection points: 4
#     Node 26, Type 0, BuildingBlock: NAHDIM_clean_sbu_0, # of connection points: 4
#     Node 27, Type 0, BuildingBlock: NAHDIM_clean_sbu_0, # of connection points: 4
#     Node 28, Type 0, BuildingBlock: NAHDIM_clean_sbu_0, # of connection points: 4
#     Node 29, Type 0, BuildingBlock: NAHDIM_clean_sbu_0, # of connection points: 4
#     Node 30, Type 0, BuildingBlock: NAHDIM_clean_sbu_0, # of connection points: 4
#     Node 31, Type 0, BuildingBlock: NAHDIM_clean_sbu_0, # of connection points: 4
#     Edge 32, Type (0, 0), BuildingBlock: OJICUG_clean_linker_0, # of connection points: 2
#     Edge 33, Type (0, 0), BuildingBlock: OJICUG_clean_linker_0, # of connection points: 2
#     Edge 34, Type (0, 0), BuildingBlock: OJICUG_clean_linker_0, # of connection points: 2
#     Edge 35, Type (0, 0), BuildingBlock: OJICUG_clean_linker_0, # of connection points: 2
#     Edge 36, Type (0, 0), BuildingBlock: OJICUG_clean_linker_0, # of connection points: 2
#     Edge 37, Type (0, 0), BuildingBlock: OJICUG_clean_linker_0, # of connection points: 2
#     Edge 38, Type (0, 0), BuildingBlock: OJICUG_clean_linker_0, # of connection points: 2
#     Edge 39, Type (0, 0), BuildingBlock: OJICUG_clean_linker_0, # of connection points: 2
#     Edge 40, Type (0, 0), BuildingBlock: OJICUG_clean_linker_0, # of connection points: 2
#     Edge 41, Type (0, 0), BuildingBlock: OJICUG_clean_linker_0, # of connection points: 2
#     Edge 42, Type (0, 0), BuildingBlock: OJICUG_clean_linker_0, # of connection points: 2
#     Edge 43, Type (0, 0), BuildingBlock: OJICUG_clean_linker_0, # of connection points: 2
#     Edge 44, Type (0, 0), BuildingBlock: OJICUG_clean_linker_0, # of connection points: 2
#     Edge 45, Type (0, 0), BuildingBlock: OJICUG_clean_linker_0, # of connection points: 2
#     Edge 46, Type (0, 0), BuildingBlock: OJICUG_clean_linker_0, # of connection points: 2
#     Edge 47, Type (0, 0), BuildingBlock: OJICUG_clean_linker_0, # of connection points: 2
#     Edge 48, Type (0, 0), BuildingBlock: OJICUG_clean_linker_0, # of connection points: 2
#     Edge 49, Type (0, 0), BuildingBlock: OJICUG_clean_linker_0, # of connection points: 2
#     Edge 50, Type (0, 0), BuildingBlock: OJICUG_clean_linker_0, # of connection points: 2
#     Edge 51, Type (0, 0), BuildingBlock: OJICUG_clean_linker_0, # of connection points: 2
#     Edge 52, Type (0, 0), BuildingBlock: OJICUG_clean_linker_0, # of connection points: 2
#     Edge 53, Type (0, 0), BuildingBlock: OJICUG_clean_linker_0, # of connection points: 2
#     Edge 54, Type (0, 0), BuildingBlock: OJICUG_clean_linker_0, # of connection points: 2
#     Edge 55, Type (0, 0), BuildingBlock: OJICUG_clean_linker_0, # of connection points: 2
#     Edge 56, Type (0, 0), BuildingBlock: OJICUG_clean_linker_0, # of connection points: 2
#     Edge 57, Type (0, 0), BuildingBlock: OJICUG_clean_linker_0, # of connection points: 2
#     Edge 58, Type (0, 0), BuildingBlock: OJICUG_clean_linker_0, # of connection points: 2
#     Edge 59, Type (0, 0), BuildingBlock: OJICUG_clean_linker_0, # of connection points: 2
#     Edge 60, Type (0, 0), BuildingBlock: OJICUG_clean_linker_0, # of connection points: 2
#     Edge 61, Type (0, 0), BuildingBlock: OJICUG_clean_linker_0, # of connection points: 2
#     Edge 62, Type (0, 0), BuildingBlock: OJICUG_clean_linker_0, # of connection points: 2
#     Edge 63, Type (0, 0), BuildingBlock: OJICUG_clean_linker_0, # of connection points: 2
#     Edge 64, Type (0, 0), BuildingBlock: OJICUG_clean_linker_0, # of connection points: 2
#     Edge 65, Type (0, 0), BuildingBlock: OJICUG_clean_linker_0, # of connection points: 2
#     Edge 66, Type (0, 0), BuildingBlock: OJICUG_clean_linker_0, # of connection points: 2
#     Edge 67, Type (0, 0), BuildingBlock: OJICUG_clean_linker_0, # of connection points: 2
#     Edge 68, Type (0, 0), BuildingBlock: OJICUG_clean_linker_0, # of connection points: 2
#     Edge 69, Type (0, 0), BuildingBlock: OJICUG_clean_linker_0, # of connection points: 2
#     Edge 70, Type (0, 0), BuildingBlock: OJICUG_clean_linker_0, # of connection points: 2
#     Edge 71, Type (0, 0), BuildingBlock: OJICUG_clean_linker_0, # of connection points: 2
#     Edge 72, Type (0, 0), BuildingBlock: OJICUG_clean_linker_0, # of connection points: 2
#     Edge 73, Type (0, 0), BuildingBlock: OJICUG_clean_linker_0, # of connection points: 2
#     Edge 74, Type (0, 0), BuildingBlock: OJICUG_clean_linker_0, # of connection points: 2
#     Edge 75, Type (0, 0), BuildingBlock: OJICUG_clean_linker_0, # of connection points: 2
#     Edge 76, Type (0, 0), BuildingBlock: OJICUG_clean_linker_0, # of connection points: 2
#     Edge 77, Type (0, 0), BuildingBlock: OJICUG_clean_linker_0, # of connection points: 2
#     Edge 78, Type (0, 0), BuildingBlock: OJICUG_clean_linker_0, # of connection points: 2
#     Edge 79, Type (0, 0), BuildingBlock: OJICUG_clean_linker_0, # of connection points: 2
#     Edge 80, Type (0, 0), BuildingBlock: OJICUG_clean_linker_0, # of connection points: 2
#     Edge 81, Type (0, 0), BuildingBlock: OJICUG_clean_linker_0, # of connection points: 2
#     Edge 82, Type (0, 0), BuildingBlock: OJICUG_clean_linker_0, # of connection points: 2
#     Edge 83, Type (0, 0), BuildingBlock: OJICUG_clean_linker_0, # of connection points: 2
#     Edge 84, Type (0, 0), BuildingBlock: OJICUG_clean_linker_0, # of connection points: 2
#     Edge 85, Type (0, 0), BuildingBlock: OJICUG_clean_linker_0, # of connection points: 2
#     Edge 86, Type (0, 0), BuildingBlock: OJICUG_clean_linker_0, # of connection points: 2
#     Edge 87, Type (0, 0), BuildingBlock: OJICUG_clean_linker_0, # of connection points: 2
#     Edge 88, Type (0, 0), BuildingBlock: OJICUG_clean_linker_0, # of connection points: 2
#     Edge 89, Type (0, 0), BuildingBlock: OJICUG_clean_linker_0, # of connection points: 2
#     Edge 90, Type (0, 0), BuildingBlock: OJICUG_clean_linker_0, # of connection points: 2
#     Edge 91, Type (0, 0), BuildingBlock: OJICUG_clean_linker_0, # of connection points: 2
#     Edge 92, Type (0, 0), BuildingBlock: OJICUG_clean_linker_0, # of connection points: 2
#     Edge 93, Type (0, 0), BuildingBlock: OJICUG_clean_linker_0, # of connection points: 2
#     Edge 94, Type (0, 0), BuildingBlock: OJICUG_clean_linker_0, # of connection points: 2
#     Edge 95, Type (0, 0), BuildingBlock: OJICUG_clean_linker_0, # of connection points: 2
# Relax obj value: 0.778
# Max RMSD: 0.306
# Mean RMSD: 0.290
data_MOF--net-dia-a--node1-NAHDIM_clean_sbu_0--edge1-OJICUG_clean_linker_0
_symmetry_space_group_name_H-M    P1
_symmetry_Int_Tables_number       1
_symmetry_cell_setting            triclinic
loop_
_symmetry_equiv_pos_as_xyz
'x, y, z'
_cell_length_a     52.181507
_cell_length_b     46.804043
_cell_length_c     36.505572
_cell_angle_alpha  95.205328
_cell_angle_beta   93.396661
_cell_angle_gamma 88.853898
loop_
_atom_site_label
_atom_site_type_symbol
_atom_site_fract_x
_atom_site_fract_y
_atom_site_fract_z
_atom_type_partial_charge
C0 C 0.06837 0.00187 0.48136 0.0
O1 O 0.06131 0.02859 0.47746 0.0
O2 O 0.10519 0.06859 0.49231 0.0
Zn3 Zn 0.10665 0.03251 0.5196 0.0
O4 O 0.08466 0.04005 0.56273 0.0
C5 C 0.16404 0.02366 0.53828 0.0
O6 O 0.17039 0.02462 0.50416 0.0
O7 O 0.09116 -0.00295 0.49356 0.0
C8 C 0.07303 0.0632 0.57304 0.0
O9 O 0.07378 0.08527 0.55334 0.0
C10 C 0.12097 0.07706 0.47048 0.0
O11 O 0.14027 0.06023 0.46064 0.0
O12 O 0.14068 0.02595 0.54603 0.0
C13 C 0.90465 0.18028 0.78594 0.0
O14 O 0.89029 0.17704 0.81353 0.0
O15 O 0.84012 0.22839 0.79093 0.0
Zn16 Zn 0.87737 0.2342 0.78174 0.0
O17 O 0.89327 0.24857 0.83102 0.0
C18 C 0.86222 0.28028 0.73489 0.0
O19 O 0.83872 0.27191 0.73871 0.0
O20 O 0.8993 0.20032 0.76529 0.0
C21 C 0.91673 0.25514 0.83689 0.0
O22 O 0.93192 0.25316 0.8093 0.0
C23 C 0.83529 0.2228 0.82328 0.0
O24 O 0.85393 0.21261 0.84433 0.0
O25 O 0.881 0.26658 0.74919 0.0
C26 C 0.62805 0.27955 0.98849 0.0
O27 O 0.62842 0.25702 0.9643 0.0
O28 O 0.60087 0.20601 0.00188 0.0
Zn29 Zn 0.6137 0.23896 0.03837 0.0
O30 O 0.64792 0.22896 0.06236 0.0
C31 C 0.57519 0.22597 0.08831 0.0
O32 O 0.56825 0.20603 0.06213 0.0
O33 O 0.61902 0.27709 0.01951 0.0
C34 C 0.6555 0.20366 0.06765 0.0
O35 O 0.64142 0.18175 0.05438 0.0
C36 C 0.61502 0.19012 0.98097 0.0
O37 O 0.63899 0.19736 0.97828 0.0
O38 O 0.59218 0.24373 0.08234 0.0
C39 C 0.86265 0.01048 0.25577 0.0
O40 O 0.86955 0.0018 0.28821 0.0
O41 O 0.88979 0.94353 0.28272 0.0
Zn42 Zn 0.86241 0.95222 0.24372 0.0
O43 O 0.8315 0.9533 0.27409 0.0
C44 C 0.87834 0.90122 0.20105 0.0
O45 O 0.90129 0.91121 0.21115 0.0
O46 O 0.86255 0.99211 0.2278 0.0
C47 C 0.81217 0.93712 0.26926 0.0
O48 O 0.80953 0.91968 0.23904 0.0
C49 C 0.88305 0.9211 0.29673 0.0
O50 O 0.86385 0.90617 0.28056 0.0
O51 O 0.85906 0.91802 0.20541 0.0
C52 C 0.00875 0.13729 0.79725 0.0
O53 O 0.01315 0.10958 0.79154 0.0
O54 O 0.09308 0.14346 0.79601 0.0
Zn55 Zn 0.0582 0.14224 0.76799 0.0
O56 O 0.05161 0.10331 0.74124 0.0
C57 C 0.07576 0.16245 0.7042 0.0
O58 O 0.09037 0.13946 0.70699 0.0
O59 O 0.02687 0.15468 0.79472 0.0
C60 C 0.04744 0.07873 0.72449 0.0
O61 O 0.04267 0.05721 0.74368 0.0
C62 C 0.10647 0.12049 0.79714 0.0
O63 O 0.09536 0.09587 0.78703 0.0
O64 O 0.06003 0.16927 0.72879 0.0
C65 C 0.7133 0.35255 0.98181 0.0
O66 O 0.72473 0.36467 0.01216 0.0
O67 O 0.78625 0.37123 0.98507 0.0
Zn68 Zn 0.76238 0.35389 0.94319 0.0
O69 O 0.77635 0.31532 0.92475 0.0
C70 C 0.77079 0.40327 0.90215 0.0
O71 O 0.77682 0.41672 0.93458 0.0
O72 O 0.72579 0.34778 0.9531 0.0
C73 C 0.76727 0.30364 0.89401 0.0
O74 O 0.74858 0.3167 0.87608 0.0
C75 C 0.80144 0.35566 0.00364 0.0
O76 O 0.79863 0.32769 -0.00034 0.0
O77 O 0.76342 0.37747 0.90019 0.0
C78 C 0.78393 0.0969 0.24929 0.0
O79 O 0.77149 0.10431 0.27903 0.0
O80 O 0.72567 0.09249 0.16062 0.0
Zn81 Zn 0.73825 0.11672 0.20597 0.0
O82 O 0.71187 0.11343 0.2444 0.0
C83 C 0.71997 0.1727 0.18828 0.0
O84 O 0.70455 0.17115 0.21509 0.0
O85 O 0.77355 0.10131 0.21797 0.0
C86 C 0.70726 0.12976 0.27318 0.0
O87 O 0.72196 0.15192 0.28306 0.0
C88 C 0.71753 0.06698 0.15822 0.0
O89 O 0.71664 0.05355 0.18818 0.0
O90 O 0.7387 0.15507 0.18534 0.0
C91 C 0.98584 0.92854 0.50928 0.0
O92 O 0.96245 0.93895 0.50468 0.0
O93 O 0.92744 0.87872 0.53338 0.0
Zn94 Zn 0.9565 0.87988 0.49841 0.0
O95 O 0.94194 0.89835 0.45408 0.0
C96 C 0.94802 0.82069 0.47531 0.0
O97 O 0.93034 0.82377 0.49957 0.0
O98 O 0.98874 0.90207 0.51395 0.0
C99 C 0.92096 0.88906 0.4387 0.0
O100 O 0.90891 0.86895 0.45339 0.0
C101 C 0.9097 0.89784 0.53384 0.0
O102 O 0.91405 0.92224 0.52036 0.0
O103 O 0.96447 0.84033 0.47507 0.0
C104 C 0.56567 0.98857 0.97351 0.0
O105 O 0.56102 0.0117 0.95625 0.0
O106 O 0.6078 0.05317 0.97176 0.0
Zn107 Zn 0.60816 0.02145 0.00673 0.0
O108 O 0.59354 0.0395 0.05306 0.0
C109 C 0.66213 0.02851 0.02302 0.0
O110 O 0.65945 0.04726 -0.00169 0.0
O111 O 0.58664 0.98659 0.99259 0.0
C112 C 0.60399 0.06261 0.06678 0.0
O113 O 0.62193 0.07375 0.04896 0.0
C114 C 0.5896 0.07175 0.97298 0.0
O115 O 0.56932 0.0666 0.99089 0.0
O116 O 0.6439 0.01138 0.02573 0.0
C117 C 0.90518 0.68276 0.27925 0.0
O118 O 0.88689 0.67498 0.29926 0.0
O119 O 0.84324 0.73196 0.28887 0.0
Zn120 Zn 0.88003 0.73985 0.27952 0.0
O121 O 0.89519 0.75563 0.32879 0.0
C122 C 0.86309 0.78549 0.23292 0.0
O123 O 0.83993 0.77772 0.2398 0.0
O124 O 0.90343 0.70665 0.26518 0.0
C125 C 0.91863 0.76233 0.33458 0.0
O126 O 0.93377 0.76026 0.30694 0.0
C127 C 0.83921 0.72546 0.32112 0.0
O128 O 0.85859 0.71569 0.34123 0.0
O129 O 0.88242 0.77166 0.24553 0.0
C130 C 0.12921 0.28742 0.49014 0.0
O131 O 0.12654 0.26634 0.46394 0.0
O132 O 0.10873 0.21286 0.49399 0.0
Zn133 Zn 0.11475 0.24446 0.53573 0.0
O134 O 0.14702 0.23459 0.56499 0.0
C135 C 0.07518 0.21991 0.57139 0.0
O136 O 0.07252 0.20456 0.53953 0.0
O137 O 0.12135 0.28399 0.52165 0.0
C138 C 0.15272 0.20886 0.57086 0.0
O139 O 0.13786 0.18798 0.55638 0.0
C140 C 0.12666 0.19908 0.47764 0.0
O141 O 0.14998 0.20947 0.48156 0.0
O142 O 0.08836 0.24259 0.57363 0.0
C143 C 0.86713 0.51169 0.73842 0.0
O144 O 0.88426 0.50979 0.76591 0.0
O145 O 0.89459 0.44947 0.77917 0.0
Zn146 Zn 0.86306 0.45162 0.74474 0.0
O147 O 0.83412 0.45094 0.77847 0.0
C148 C 0.87944 0.3972 0.71025 0.0
O149 O 0.90225 0.40701 0.72146 0.0
O150 O 0.85845 0.48877 0.72103 0.0
C151 C 0.8137 0.43658 0.77244 0.0
O152 O 0.80934 0.42185 0.74037 0.0
C153 C 0.89285 0.4598 0.81239 0.0
O154 O 0.87261 0.47554 0.82113 0.0
O155 O 0.86023 0.41434 0.7121 0.0
C156 C 0.50389 0.13217 0.26564 0.0
O157 O 0.50994 0.12663 0.23125 0.0
O158 O 0.58851 0.14494 0.3004 0.0
Zn159 Zn 0.55574 0.14009 0.26756 0.0
O160 O 0.56262 0.10867 0.22766 0.0
C161 C 0.56457 0.19421 0.23384 0.0
O162 O 0.58452 0.19835 0.25729 0.0
O163 O 0.522 0.13598 0.29046 0.0
C164 C 0.58173 0.11548 0.21035 0.0
O165 O 0.59509 0.13803 0.22336 0.0
C166 C 0.60172 0.12223 0.3049 0.0
O167 O 0.59049 0.09735 0.29711 0.0
O168 O 0.54997 0.17326 0.23659 0.0
C169 C 0.71822 0.85531 0.48448 0.0
O170 O 0.72941 0.86899 0.51398 0.0
O171 O 0.79231 0.8717 0.48539 0.0
Zn172 Zn 0.76742 0.85427 0.44476 0.0
O173 O 0.78082 0.81553 0.42588 0.0
C174 C 0.77491 0.9033 0.40249 0.0
O175 O 0.78194 0.91696 0.43442 0.0
O176 O 0.73097 0.84874 0.45634 0.0
C177 C 0.77112 0.80377 0.39556 0.0
O178 O 0.75201 0.81677 0.37842 0.0
C179 C 0.80795 0.85608 0.50319 0.0
O180 O 0.80516 0.82811 0.49919 0.0
O181 O 0.7675 0.87756 0.40135 0.0
C182 C 0.28482 0.08946 0.74157 0.0
O183 O 0.26538 0.08092 0.75887 0.0
O184 O 0.23541 0.08733 0.66265 0.0
Zn185 Zn 0.24447 0.1176 0.7034 0.0
O186 O 0.21768 0.11493 0.7412 0.0
C187 C 0.22383 0.17299 0.68291 0.0
O188 O 0.21407 0.17605 0.71535 0.0
O189 O 0.28089 0.10828 0.71887 0.0
C190 C 0.2126 0.13034 0.7705 0.0
O191 O 0.22719 0.15223 0.78222 0.0
C192 C 0.22414 0.06408 0.66631 0.0
O193 O 0.21866 0.05797 0.69937 0.0
O194 O 0.23983 0.15274 0.67578 0.0
C195 C 0.97978 0.42908 0.01209 0.0
O196 O 0.95661 0.44046 0.00975 0.0
O197 O 0.92087 0.37875 0.03328 0.0
Zn198 Zn 0.94953 0.38073 -0.002 0.0
O199 O 0.93463 0.4021 0.95669 0.0
C200 C 0.94052 0.32204 0.97287 0.0
O201 O 0.92187 0.32576 0.99553 0.0
O202 O 0.9821 0.40215 0.01408 0.0
C203 C 0.94646 0.4033 0.92746 0.0
O204 O 0.96823 0.38909 0.92347 0.0
C205 C 0.90289 0.39757 0.03316 0.0
O206 O 0.90689 0.42172 0.01884 0.0
O207 O 0.95691 0.34173 0.97267 0.0
C208 C 0.06459 0.49848 0.98037 0.0
O209 O 0.0595 0.52546 0.97515 0.0
O210 O 0.10327 0.56282 0.99313 0.0
Zn211 Zn 0.10767 0.52466 0.01583 0.0
O212 O 0.09207 0.53112 0.06476 0.0
C213 C 0.16209 0.53287 0.02936 0.0
O214 O 0.15793 0.55409 0.0085 0.0
O215 O 0.08721 0.49169 0.99149 0.0
C216 C 0.07255 0.54717 0.0704 0.0
O217 O 0.06196 0.5608 0.04332 0.0
C218 C 0.11117 0.57188 0.96402 0.0
O219 O 0.12424 0.55451 0.94147 0.0
O220 O 0.1443 0.51507 0.03139 0.0
C221 C 0.48572 0.42317 0.51959 0.0
O222 O 0.46283 0.43469 0.5237 0.0
O223 O 0.42538 0.37983 0.53669 0.0
Zn224 Zn 0.45359 0.37756 0.50009 0.0
O225 O 0.44048 0.39771 0.45622 0.0
C226 C 0.43918 0.31936 0.47849 0.0
O227 O 0.42213 0.32497 0.50329 0.0
O228 O 0.48766 0.39602 0.51483 0.0
C229 C 0.41907 0.38955 0.44097 0.0
O230 O 0.406 0.37055 0.4562 0.0
C231 C 0.40798 0.3993 0.53604 0.0
O232 O 0.41234 0.42247 0.51975 0.0
O233 O 0.45725 0.33698 0.4769 0.0
C234 C 0.13021 0.78372 0.98563 0.0
O235 O 0.12743 0.76234 0.95987 0.0
O236 O 0.10688 0.70821 0.00203 0.0
Zn237 Zn 0.11914 0.74204 0.0375 0.0
O238 O 0.15318 0.73238 0.06243 0.0
C239 C 0.07983 0.72994 0.08677 0.0
O240 O 0.07112 0.71183 0.05948 0.0
O241 O 0.12456 0.78004 0.01815 0.0
C242 C 0.16245 0.70729 0.06462 0.0
O243 O 0.15048 0.68523 0.04715 0.0
C244 C 0.12029 0.69421 0.97825 0.0
O245 O 0.14267 0.70427 0.97139 0.0
O246 O 0.09767 0.74682 0.08135 0.0
C247 C 0.00556 0.62931 0.28741 0.0
O248 O 0.00829 0.6046 0.26788 0.0
O249 O 0.09208 0.64126 0.29332 0.0
Zn250 Zn 0.0567 0.64037 0.26638 0.0
O251 O 0.05389 0.60827 0.22638 0.0
C252 C 0.07304 0.68883 0.22837 0.0
O253 O 0.09499 0.68649 0.2475 0.0
O254 O 0.02504 0.64514 0.29525 0.0
C255 C 0.05283 0.58119 0.22042 0.0
O256 O 0.05408 0.56486 0.2479 0.0
C257 C 0.1057 0.61858 0.29567 0.0
O258 O 0.09487 0.59363 0.28701 0.0
O259 O 0.05448 0.67309 0.23435 0.0
C260 C 0.21436 0.85694 0.97182 0.0
O261 O 0.22495 0.87293 -0.0001 0.0
O262 O 0.28824 0.87089 0.97298 0.0
Zn263 Zn 0.26284 0.8576 0.93098 0.0
O264 O 0.27469 0.82125 0.90256 0.0
C265 C 0.26926 0.91219 0.90058 0.0
O266 O 0.2775 0.9213 0.93424 0.0
O267 O 0.22717 0.84969 0.94393 0.0
C268 C 0.29694 0.80984 0.90079 0.0
O269 O 0.3164 0.82162 0.92069 0.0
C270 C 0.30039 0.85573 0.99566 0.0
O271 O 0.29486 0.82845 0.9955 0.0
O272 O 0.26118 0.88673 0.89407 0.0
C273 C 0.36758 0.00775 0.73211 0.0
O274 O 0.38635 0.00659 0.75747 0.0
O275 O 0.39629 0.94597 0.77564 0.0
Zn276 Zn 0.36306 0.94942 0.74493 0.0
O277 O 0.3365 0.95468 0.78226 0.0
C278 C 0.37199 0.89098 0.71549 0.0
O279 O 0.39615 0.89822 0.7218 0.0
O280 O 0.35868 0.98434 0.7165 0.0
C281 C 0.31277 0.94989 0.77555 0.0
O282 O 0.30423 0.94206 0.74161 0.0
C283 C 0.39728 0.95784 0.80844 0.0
O284 O 0.37921 0.97645 0.81825 0.0
O285 O 0.35473 0.91052 0.71829 0.0
C286 C 0.48044 0.92194 0.00963 0.0
O287 O 0.4576 0.93419 0.008 0.0
O288 O 0.41965 0.8755 0.02983 0.0
Zn289 Zn 0.44845 0.87574 0.99462 0.0
O290 O 0.43523 0.89807 0.9529 0.0
C291 C 0.43749 0.81661 0.97326 0.0
O292 O 0.42142 0.82033 -0.00032 0.0
O293 O 0.48199 0.89492 0.01117 0.0
C294 C 0.44652 0.8968 0.92287 0.0
O295 O 0.46635 0.8794 0.9182 0.0
C296 C 0.4021 0.89475 0.0291 0.0
O297 O 0.40674 0.9185 0.01425 0.0
O298 O 0.45346 0.83617 0.96972 0.0
C299 C 0.2885 0.59514 0.24802 0.0
O300 O 0.27398 0.59906 0.2763 0.0
O301 O 0.23293 0.59122 0.15983 0.0
Zn302 Zn 0.24449 0.61686 0.20422 0.0
O303 O 0.21774 0.61299 0.24186 0.0
C304 C 0.22481 0.67233 0.18539 0.0
O305 O 0.20955 0.67059 0.21234 0.0
O306 O 0.28009 0.60276 0.21703 0.0
C307 C 0.21211 0.62906 0.27038 0.0
O308 O 0.22602 0.65173 0.281 0.0
C309 C 0.22455 0.56586 0.15866 0.0
O310 O 0.22305 0.55359 0.18942 0.0
O311 O 0.2435 0.65468 0.18194 0.0
C312 C 0.40649 0.68213 0.79399 0.0
O313 O 0.39761 0.68332 0.82703 0.0
O314 O 0.33225 0.70373 0.78399 0.0
Zn315 Zn 0.36826 0.72591 0.78566 0.0
O316 O 0.38086 0.74235 0.83599 0.0
C317 C 0.34969 0.77707 0.74986 0.0
O318 O 0.32836 0.77341 0.7661 0.0
O319 O 0.3958 0.69743 0.77015 0.0
C320 C 0.4037 0.75157 0.83944 0.0
O321 O 0.4173 0.75069 0.81018 0.0
C322 C 0.31052 0.71067 0.79754 0.0
O323 O 0.332 0.70262 0.78328 0.0
O324 O 0.36796 0.75887 0.75294 0.0
C325 C 0.56457 0.49601 0.47653 0.0
O326 O 0.55811 0.52259 0.47111 0.0
O327 O 0.60871 0.55995 0.47501 0.0
Zn328 Zn 0.60779 0.52496 0.50509 0.0
O329 O 0.58968 0.53709 0.55096 0.0
C330 C 0.66193 0.53071 0.52174 0.0
O331 O 0.65968 0.54923 0.49674 0.0
O332 O 0.58804 0.49023 0.48411 0.0
C333 C 0.59807 0.55863 0.57136 0.0
O334 O 0.61735 0.57293 0.56085 0.0
C335 C 0.5919 0.58004 0.47819 0.0
O336 O 0.57182 0.5764 0.49722 0.0
O337 O 0.64301 0.51489 0.52578 0.0
C338 C 0.62959 0.78707 0.49156 0.0
O339 O 0.62783 0.76537 0.46611 0.0
O340 O 0.60267 0.71411 0.49854 0.0
Zn341 Zn 0.61304 0.74572 0.53869 0.0
O342 O 0.64544 0.73426 0.56691 0.0
C343 C 0.57683 0.72514 0.58368 0.0
O344 O 0.57521 0.70503 0.55619 0.0
O345 O 0.62104 0.78431 0.52283 0.0
C346 C 0.6532 0.7087 0.57021 0.0
O347 O 0.64048 0.68717 0.55277 0.0
C348 C 0.61788 0.69793 0.47969 0.0
O349 O 0.64215 0.70494 0.47992 0.0
O350 O 0.58808 0.74824 0.57904 0.0
C351 C 0.79025 0.60021 0.73866 0.0
O352 O 0.78249 0.61177 0.77032 0.0
O353 O 0.72709 0.59262 0.65617 0.0
Zn354 Zn 0.74007 0.61648 0.7013 0.0
O355 O 0.71523 0.6108 0.74079 0.0
C356 C 0.71889 0.67218 0.68743 0.0
O357 O 0.70459 0.66886 0.71505 0.0
O358 O 0.77577 0.60135 0.70968 0.0
C359 C 0.71147 0.62584 0.77088 0.0
O360 O 0.72635 0.64776 0.78134 0.0
C361 C 0.72166 0.56617 0.65326 0.0
O362 O 0.72376 0.55171 0.68252 0.0
O363 O 0.73807 0.65548 0.68216 0.0
C364 C 0.50934 0.64455 0.76536 0.0
O365 O 0.51617 0.64346 0.73118 0.0
O366 O 0.59419 0.64398 0.80478 0.0
Zn367 Zn 0.56196 0.64644 0.77117 0.0
O368 O 0.56573 0.61752 0.72791 0.0
C369 C 0.58342 0.68218 0.72655 0.0
O370 O 0.60195 0.66369 0.73363 0.0
O371 O 0.52687 0.64484 0.79119 0.0
C372 C 0.55899 0.59296 0.71346 0.0
O373 O 0.54406 0.577 0.73066 0.0
C374 C 0.60627 0.62005 0.80358 0.0
O375 O 0.59392 0.59688 0.7901 0.0
O376 O 0.56342 0.68226 0.74478 0.0
C377 C 0.21927 0.3538 0.48364 0.0
O378 O 0.22947 0.36987 0.51194 0.0
O379 O 0.29226 0.37244 0.48591 0.0
Zn380 Zn 0.26866 0.3542 0.44472 0.0
O381 O 0.28414 0.31701 0.42364 0.0
C382 C 0.27598 0.40326 0.40253 0.0
O383 O 0.28564 0.41591 0.43377 0.0
O384 O 0.23261 0.34614 0.45638 0.0
C385 C 0.30334 0.31768 0.40386 0.0
O386 O 0.31427 0.3424 0.40115 0.0
C387 C 0.30701 0.35749 0.50587 0.0
O388 O 0.30423 0.32953 0.50319 0.0
O389 O 0.26681 0.37833 0.40206 0.0
C390 C 0.36457 0.50587 0.25369 0.0
O391 O 0.37135 0.49688 0.28599 0.0
O392 O 0.39092 0.43943 0.28114 0.0
Zn393 Zn 0.36374 0.44769 0.24158 0.0
O394 O 0.33271 0.44927 0.27166 0.0
C395 C 0.37946 0.396 0.20034 0.0
O396 O 0.40239 0.40577 0.21106 0.0
O397 O 0.36408 0.48763 0.22555 0.0
C398 C 0.31346 0.43294 0.26765 0.0
O399 O 0.31099 0.41448 0.23838 0.0
C400 C 0.3841 0.41735 0.29584 0.0
O401 O 0.36511 0.40203 0.27976 0.0
O402 O 0.3603 0.41309 0.20381 0.0
C403 C 0.40712 0.18752 0.29275 0.0
O404 O 0.39735 0.19029 0.32525 0.0
O405 O 0.33814 0.21845 0.2759 0.0
Zn406 Zn 0.37364 0.2356 0.2816 0.0
O407 O 0.38373 0.25027 0.33409 0.0
C408 C 0.36039 0.28016 0.2295 0.0
O409 O 0.3371 0.26973 0.22673 0.0
O410 O 0.39924 0.20407 0.26849 0.0
C411 C 0.4069 0.25807 0.34042 0.0
O412 O 0.42226 0.25622 0.31302 0.0
C413 C 0.31838 0.22309 0.29456 0.0
O414 O 0.29821 0.20692 0.28607 0.0
O415 O 0.37772 0.26858 0.24958 0.0
C416 C 0.03325 0.93817 0.51015 0.0
C417 C 0.0077 0.94591 0.5008 0.0
H418 H 0.07287 0.94969 0.51079 0.0
C419 C 0.00285 0.97009 0.48114 0.0
H420 H 0.03756 0.91937 0.52478 0.0
C421 C 0.02289 0.98693 0.47239 0.0
C422 C 0.04833 0.9803 0.48348 0.0
H423 H 0.98344 0.97623 0.47255 0.0
H424 H 0.01829 0.00585 0.45812 0.0
C425 C 0.05344 0.95532 0.50169 0.0
C426 C 0.95098 0.18347 0.77505 0.0
C427 C 0.93077 0.16766 0.78644 0.0
H428 H 0.99138 0.18685 0.77101 0.0
C429 C 0.93638 0.14183 0.8023 0.0
H430 H 0.94736 0.20366 0.7632 0.0
C431 C 0.96182 0.13192 0.80638 0.0
C432 C 0.98203 0.14822 0.79583 0.0
H433 H 0.92113 0.1294 0.8116 0.0
H434 H 0.96571 0.1117 0.81805 0.0
C435 C 0.9763 0.17407 0.78015 0.0
C436 C 0.67708 0.32437 0.94975 0.0
C437 C 0.68772 0.33949 0.98203 0.0
H438 H 0.64946 0.29373 0.92637 0.0
C439 C 0.67519 0.33893 0.01491 0.0
H440 H 0.68597 0.32474 0.92373 0.0
C441 C 0.65394 0.32138 0.01622 0.0
C442 C 0.64506 0.30389 0.98476 0.0
H443 H 0.68271 0.35058 0.04012 0.0
H444 H 0.6458 0.31992 0.04259 0.0
C445 C 0.65605 0.30664 0.95115 0.0
C446 C 0.81892 0.07234 0.28524 0.0
C447 C 0.80777 0.07926 0.25118 0.0
H448 H 0.8457 0.04568 0.31339 0.0
C449 C 0.81811 0.06679 0.2186 0.0
H450 H 0.81161 0.08177 0.31082 0.0
C451 C 0.83757 0.0459 0.22 0.0
C452 C 0.84725 0.03728 0.25402 0.0
H453 H 0.81018 0.0719 0.19184 0.0
H454 H 0.84396 0.03538 0.19441 0.0
C455 C 0.83859 0.05169 0.28664 0.0
C456 C 0.54875 0.94449 -0.00211 0.0
C457 C 0.54441 0.96929 0.97911 0.0
H458 H 0.53184 0.90989 0.0225 0.0
C459 C 0.51906 0.97763 0.96977 0.0
H460 H 0.56811 0.93754 0.00551 0.0
C461 C 0.49851 0.96238 0.98037 0.0
C462 C 0.50274 0.93807 -1e-05 0.0
H463 H 0.51496 -0.00339 0.9554 0.0
H464 H 0.47922 0.96967 0.97295 0.0
C465 C 0.52806 0.92882 0.00793 0.0
C466 C 0.9331 0.63879 0.28581 0.0
C467 C 0.93053 0.66824 0.28133 0.0
H468 H 0.95923 0.60304 0.29099 0.0
C469 C 0.95272 0.68473 0.28144 0.0
H470 H 0.91626 0.62568 0.28621 0.0
C471 C 0.97696 0.67219 0.28575 0.0
C472 C 0.97973 0.64263 0.28901 0.0
H473 H 0.95141 0.70755 0.27862 0.0
H474 H 0.99359 0.68559 0.28505 0.0
C475 C 0.95759 0.62595 0.28892 0.0
C476 C 0.18185 0.32754 0.45199 0.0
C477 C 0.19325 0.3419 0.48422 0.0
H478 H 0.15216 0.29964 0.42836 0.0
C479 C 0.18056 0.34238 0.51713 0.0
H480 H 0.19085 0.32724 0.42596 0.0
C481 C 0.15816 0.32662 0.51842 0.0
C482 C 0.14813 0.31007 0.48683 0.0
H483 H 0.18872 0.35349 0.54233 0.0
H484 H 0.14977 0.32588 0.54475 0.0
C485 C 0.15953 0.31183 0.45327 0.0
C486 C 0.8182 0.56451 0.70415 0.0
C487 C 0.81349 0.58159 0.73694 0.0
H488 H 0.83914 0.52893 0.67885 0.0
C489 C 0.82964 0.57841 0.76848 0.0
H490 H 0.8063 0.56657 0.67916 0.0
C491 C 0.84888 0.55717 0.76794 0.0
C492 C 0.85198 0.53846 0.73602 0.0
H493 H 0.82663 0.59135 0.79405 0.0
H494 H 0.86001 0.55408 0.79331 0.0
C495 C 0.83708 0.54298 0.70381 0.0
C496 C 0.47014 0.14834 0.3096 0.0
C497 C 0.47721 0.14095 0.27338 0.0
H498 H 0.442 0.16856 0.34417 0.0
C499 C 0.45945 0.14567 0.24391 0.0
H500 H 0.48334 0.14487 0.33286 0.0
C501 C 0.43608 0.15967 0.25032 0.0
C502 C 0.42972 0.16869 0.28636 0.0
H503 H 0.46418 0.14011 0.21563 0.0
H504 H 0.42339 0.16436 0.22698 0.0
C505 C 0.44646 0.16188 0.31604 0.0
C506 C 0.67974 0.84341 0.51809 0.0
C507 C 0.69221 0.84336 0.48506 0.0
H508 H 0.64954 0.826 0.54596 0.0
C509 C 0.68086 0.82888 0.45284 0.0
H510 H 0.68782 0.85459 0.54328 0.0
C511 C 0.659 0.81245 0.45433 0.0
C512 C 0.64793 0.81024 0.48802 0.0
H513 H 0.68969 0.82885 0.42672 0.0
H514 H 0.65175 0.80007 0.42948 0.0
C515 C 0.65772 0.82706 0.51954 0.0
C516 C 0.32383 0.06995 0.71051 0.0
C517 C 0.30897 0.0725 0.74169 0.0
H518 H 0.3541 0.04675 0.68259 0.0
C519 C 0.31542 0.05557 0.77077 0.0
H520 H 0.31911 0.08252 0.68748 0.0
C521 C 0.33561 0.03566 0.76813 0.0
C522 C 0.34943 0.03199 0.73615 0.0
H523 H 0.30424 0.05695 0.79497 0.0
H524 H 0.3396 0.02205 0.79035 0.0
C525 C 0.34373 0.04948 0.70754 0.0
C526 C 0.02719 0.43546 0.00678 0.0
C527 C 0.0019 0.44626 0.00392 0.0
H528 H 0.06704 0.44331 0.00097 0.0
C529 C -0.00255 0.47318 0.99032 0.0
H530 H 0.03119 0.4146 0.01664 0.0
C531 C 0.01776 0.48924 0.98056 0.0
C532 C 0.04315 0.47901 0.98458 0.0
H533 H 0.97817 0.48195 0.987 0.0
H534 H 0.01352 0.51012 0.97089 0.0
C535 C 0.04766 0.45176 0.99736 0.0
C536 C 0.53129 0.43001 0.503 0.0
C537 C 0.50688 0.44149 0.51079 0.0
H538 H 0.56887 0.43824 0.48556 0.0
C539 C 0.50169 0.47055 0.50625 0.0
H540 H 0.5358 0.40762 0.50596 0.0
C541 C 0.52015 0.48764 0.49356 0.0
C542 C 0.54457 0.47637 0.48577 0.0
H543 H 0.4831 0.48014 0.51176 0.0
H544 H 0.51532 0.50996 0.49063 0.0
C545 C 0.55009 0.44741 0.49089 0.0
C546 C 0.15693 0.81018 0.94572 0.0
C547 C 0.1469 0.808 0.98014 0.0
H548 H 0.18597 0.82778 0.91605 0.0
C549 C 0.15646 0.82612 0.01066 0.0
H550 H 0.14982 0.79686 0.92159 0.0
C551 C 0.17742 0.84373 0.00759 0.0
C552 C 0.18908 0.84362 0.97393 0.0
H553 H 0.14899 0.8252 0.03758 0.0
H554 H 0.18546 0.85591 0.03208 0.0
C555 C 0.17778 0.82783 0.94264 0.0
C556 C 0.34117 0.54732 0.28509 0.0
C557 C 0.34993 0.53321 0.25233 0.0
H558 H 0.31469 0.57791 0.30946 0.0
C559 C 0.34113 0.5429 0.21849 0.0
H560 H 0.34761 0.5405 0.31172 0.0
C561 C 0.32244 0.56467 0.21731 0.0
C562 C 0.31193 0.57686 0.24991 0.0
H563 H 0.3476 0.5326 0.19283 0.0
H564 H 0.31509 0.5706 0.19063 0.0
C565 C 0.32219 0.56874 0.28387 0.0
C566 C 0.47416 0.65348 0.80933 0.0
C567 C 0.48202 0.64958 0.77305 0.0
H568 H 0.44376 0.66648 0.84443 0.0
C569 C 0.46382 0.65306 0.74373 0.0
H570 H 0.48769 0.65082 0.83249 0.0
C571 C 0.43882 0.66224 0.75053 0.0
C572 C 0.43136 0.66777 0.78679 0.0
H573 H 0.46913 0.64995 0.71539 0.0
H574 H 0.42559 0.66598 0.72739 0.0
C575 C 0.44898 0.66236 0.81614 0.0
C576 C 0.14405 0.15078 0.45462 0.0
C577 C 0.12306 0.16814 0.46567 0.0
H578 H 0.15975 0.10816 0.4469 0.0
C579 C 0.0999 0.1548 0.47152 0.0
H580 H 0.16211 0.16029 0.44956 0.0
C581 C 0.09866 0.12492 0.47047 0.0
C582 C 0.12042 0.10769 0.46296 0.0
H583 H 0.0832 0.16741 0.47951 0.0
H584 H 0.08107 0.11544 0.4776 0.0
C585 C 0.1427 0.12083 0.45311 0.0
C586 C 0.85009 0.35495 0.70487 0.0
C587 C 0.87516 0.36578 0.70696 0.0
H588 H 0.82631 0.31932 0.71181 0.0
C589 C 0.89596 0.34673 0.71221 0.0
H590 H 0.8336 0.36894 0.7006 0.0
C591 C 0.89176 0.31827 0.7188 0.0
C592 C 0.86666 0.3082 0.72018 0.0
H593 H 0.91553 0.35422 0.71363 0.0
H594 H 0.90823 0.30468 0.72489 0.0
C595 C 0.8459 0.32646 0.71142 0.0
C596 C 0.57534 0.12299 0.97131 0.0
C597 C 0.59425 0.10161 0.96459 0.0
H598 H 0.56697 0.16787 0.98129 0.0
C599 C 0.61878 0.10998 0.95608 0.0
H600 H 0.55613 0.11735 0.97749 0.0
C601 C 0.62498 0.1391 0.95811 0.0
C602 C 0.60679 0.16038 0.96883 0.0
H603 H 0.63377 0.09411 0.95051 0.0
H604 H 0.64456 0.14474 0.95399 0.0
C605 C 0.58155 0.15204 0.97351 0.0
C606 C 0.84569 0.83073 0.20802 0.0
C607 C 0.86682 0.81285 0.21635 0.0
H608 H 0.83268 0.87257 0.19551 0.0
C609 C 0.89167 0.82283 0.21247 0.0
H610 H 0.82626 0.82364 0.21026 0.0
C611 C 0.89537 0.85094 0.20388 0.0
C612 C 0.8743 0.86974 0.19908 0.0
H613 H 0.90839 0.80951 0.21815 0.0
H614 H 0.91484 0.85846 0.20351 0.0
C615 C 0.84938 0.85884 0.19939 0.0
C616 C 0.17358 0.15063 0.80116 0.0
C617 C 0.18742 0.12676 0.78605 0.0
H618 H 0.13684 0.16746 0.81671 0.0
C619 C 0.1754 0.10001 0.78083 0.0
H620 H 0.18234 0.17155 0.80544 0.0
C621 C 0.14954 0.09755 0.78778 0.0
C622 C 0.13493 0.12194 0.7994 0.0
H623 H 0.18566 0.08119 0.76951 0.0
H624 H 0.14062 0.07686 0.78147 0.0
C625 C 0.14749 0.14829 0.80751 0.0
C626 C 0.83064 0.39733 0.02072 0.0
C627 C 0.8256 0.368 0.02146 0.0
H628 H 0.85906 0.42992 0.02487 0.0
C629 C 0.84542 0.34989 0.03414 0.0
H630 H 0.81576 0.412 0.01164 0.0
C631 C 0.87037 0.36019 0.04175 0.0
C632 C 0.876 0.38881 0.0368 0.0
H633 H 0.84217 0.32725 0.03561 0.0
H634 H 0.88554 0.34517 0.04876 0.0
C635 C 0.85555 0.40763 0.02838 0.0
C636 C 0.67021 0.10042 0.28723 0.0
C637 C 0.68232 0.1271 0.28988 0.0
H638 H 0.63551 0.07779 0.29131 0.0
C639 C 0.66879 0.15164 0.30372 0.0
H640 H 0.68022 0.08112 0.27687 0.0
C641 C 0.64288 0.14988 0.31145 0.0
C642 C 0.6302 0.12344 0.30608 0.0
H643 H 0.6776 0.17254 0.30597 0.0
H644 H 0.63243 0.16944 0.31953 0.0
C645 C 0.64455 0.09855 0.29564 0.0
C646 C 0.86237 0.90792 0.52739 0.0
C647 C 0.88267 0.88914 0.53659 0.0
H648 H 0.82271 0.91231 0.50989 0.0
C649 C 0.87689 0.86057 0.54159 0.0
H650 H 0.866 0.93014 0.52367 0.0
C651 C 0.85196 0.85033 0.53366 0.0
C652 C 0.83226 0.86841 0.52057 0.0
H653 H 0.89194 0.84556 0.54908 0.0
H654 H 0.84859 0.82774 0.5354 0.0
C655 C 0.83746 0.89766 0.51939 0.0
C656 C 0.60446 0.11386 0.15241 0.0
C657 C 0.58727 0.10111 0.17401 0.0
H658 H 0.6228 0.11202 0.10163 0.0
C659 C 0.57496 0.07573 0.15977 0.0
H660 H 0.61401 0.13366 0.1623 0.0
C661 C 0.58007 0.06321 0.1246 0.0
C662 C 0.59742 0.07601 0.10319 0.0
H663 H 0.56151 0.06556 0.17577 0.0
H664 H 0.57059 0.04346 0.11431 0.0
C665 C 0.60941 0.10153 0.11742 0.0
C666 C 0.81784 0.74224 0.3787 0.0
C667 C 0.81706 0.73891 0.33995 0.0
H668 H 0.80396 0.76571 0.42677 0.0
C669 C 0.79771 0.75334 0.3201 0.0
H670 H 0.83232 0.73127 0.39495 0.0
C671 C 0.78123 0.77292 0.33851 0.0
C672 C 0.78407 0.77861 0.377 0.0
H673 H 0.79644 0.75106 0.29025 0.0
H674 H 0.76763 0.78512 0.32234 0.0
C675 C 0.80168 0.76213 0.39703 0.0
C676 C 0.19597 0.21148 0.65745 0.0
C677 C 0.2099 0.18564 0.65179 0.0
H678 H 0.16719 0.23957 0.63537 0.0
C679 C 0.20697 0.16935 0.6175 0.0
H680 H 0.19778 0.2243 0.68369 0.0
C681 C 0.18894 0.17753 0.59053 0.0
C682 C 0.17419 0.20261 0.59689 0.0
H683 H 0.21722 0.14916 0.61239 0.0
H684 H 0.18595 0.16378 0.56517 0.0
C685 C 0.1785 0.22015 0.62991 0.0
C686 C 0.92965 0.429 0.83369 0.0
C687 C 0.90991 0.44904 0.84193 0.0
H688 H 0.9569 0.39872 0.85458 0.0
C689 C 0.9043 0.45591 0.87889 0.0
H690 H 0.93445 0.42331 0.80546 0.0
C691 C 0.9168 0.44157 0.90673 0.0
C692 C 0.93543 0.42034 0.89829 0.0
H693 H 0.88932 0.47137 0.88625 0.0
H694 H 0.91137 0.44661 0.93481 0.0
C695 C 0.94243 0.41486 0.86174 0.0
C696 C 0.1967 0.52902 0.12246 0.0
C697 C 0.21308 0.55254 0.12335 0.0
H698 H 0.16788 0.50373 0.09136 0.0
C699 C 0.21618 0.56545 0.09061 0.0
H700 H 0.1941 0.51843 0.14713 0.0
C701 C 0.20127 0.55699 0.05864 0.0
C702 C 0.18291 0.53549 0.05876 0.0
H703 H 0.22905 0.58329 0.09019 0.0
H704 H 0.2029 0.56869 0.03463 0.0
C705 C 0.18174 0.52052 0.09038 0.0
C706 C 0.54894 0.20461 0.13369 0.0
C707 C 0.56837 0.2233 0.1266 0.0
H708 H 0.53195 0.1814 0.17347 0.0
C709 C 0.58366 0.23618 0.15643 0.0
H710 H 0.53673 0.19453 0.11136 0.0
C711 C 0.58117 0.22839 0.19213 0.0
C712 C 0.56316 0.20785 0.1987 0.0
H713 H 0.59879 0.25075 0.15193 0.0
H714 H 0.59438 0.23718 0.21408 0.0
C715 C 0.54623 0.19713 0.1694 0.0
C716 C 0.78131 0.90891 0.30091 0.0
C717 C 0.79755 0.93253 0.30165 0.0
H718 H 0.76119 0.88123 0.33238 0.0
C719 C 0.80284 0.94909 0.33531 0.0
H720 H 0.77674 0.89581 0.27544 0.0
C721 C 0.794 0.94069 0.368 0.0
C722 C 0.7797 0.91558 0.36766 0.0
H723 H 0.81513 0.9676 0.33681 0.0
H724 H 0.79969 0.95293 0.39371 0.0
C725 C 0.7725 0.90049 0.33362 0.0
C726 C 0.17732 0.01952 0.6042 0.0
C727 C 0.18348 0.02696 0.56933 0.0
H728 H 0.18573 0.02504 0.66243 0.0
C729 C 0.20594 0.04231 0.56624 0.0
H730 H 0.16016 0.0075 0.60729 0.0
C731 C 0.22043 0.05269 0.59793 0.0
C732 C 0.21284 0.04754 0.63308 0.0
H733 H 0.21113 0.04837 0.53974 0.0
H734 H 0.23665 0.06622 0.59499 0.0
C735 C 0.19197 0.02956 0.6358 0.0
C736 C 0.4081 0.28705 0.4408 0.0
C737 C 0.43275 0.29897 0.44597 0.0
H738 H 0.38046 0.26507 0.40326 0.0
C739 C 0.44957 0.29483 0.41723 0.0
H740 H 0.39459 0.28992 0.46229 0.0
C741 C 0.44142 0.2806 0.38338 0.0
C742 C 0.41625 0.2703 0.37747 0.0
H743 H 0.46867 0.3037 0.42029 0.0
H744 H 0.4546 0.27863 0.36142 0.0
C745 C 0.3999 0.27297 0.40684 0.0
C746 C 0.05223 0.69835 0.16705 0.0
C747 C 0.07163 0.70456 0.19495 0.0
H748 H 0.03957 0.70164 0.11064 0.0
C749 C 0.0914 0.72303 0.18848 0.0
H750 H 0.03665 0.68424 0.17118 0.0
C751 C 0.09278 0.73339 0.15397 0.0
C752 C 0.07465 0.72505 0.12506 0.0
H753 H 0.10653 0.72834 0.20947 0.0
H754 H 0.1091 0.74625 0.1493 0.0
C755 C 0.05386 0.70829 0.13231 0.0
C756 C 0.94851 0.28362 0.87869 0.0
C757 C 0.9258 0.26777 0.87378 0.0
H758 H 0.97131 0.31312 0.91444 0.0
C759 C 0.91053 0.26611 0.90392 0.0
H760 H 0.96079 0.28505 0.85604 0.0
C761 C 0.91667 0.28189 0.93743 0.0
C762 C 0.93807 0.29988 0.94137 0.0
H763 H 0.89314 0.25363 0.90116 0.0
H764 H 0.90369 0.28134 0.95943 0.0
C765 C 0.95457 0.29962 0.91221 0.0
C766 C 0.17248 0.64957 0.29918 0.0
C767 C 0.18676 0.62554 0.28555 0.0
H768 H 0.13541 0.66631 0.31322 0.0
C769 C 0.17507 0.59858 0.28133 0.0
H770 H 0.18095 0.67066 0.30263 0.0
C771 C 0.14914 0.59601 0.2879 0.0
C772 C 0.13415 0.62044 0.29812 0.0
H773 H 0.18565 0.57965 0.27111 0.0
H774 H 0.14049 0.5751 0.28243 0.0
C775 C 0.14635 0.64709 0.30515 0.0
C776 C 0.34358 0.84844 0.02797 0.0
C777 C 0.32444 0.86713 0.0148 0.0
H778 H 0.38336 0.8427 0.04397 0.0
C779 C 0.33012 0.89637 0.01477 0.0
H780 H 0.33978 0.82585 0.0288 0.0
C781 C 0.35509 0.90604 0.02349 0.0
C782 C 0.37498 0.88666 0.03222 0.0
H783 H 0.3157 0.91148 0.00546 0.0
H784 H 0.35914 0.92828 0.02045 0.0
C785 C 0.36863 0.85813 0.03665 0.0
C786 C 0.0922 0.62057 0.97987 0.0
C787 C 0.10997 0.60317 0.96032 0.0
H788 H 0.081 0.66301 -5e-05 0.0
C789 C 0.12855 0.61638 0.94146 0.0
H790 H 0.07748 0.61104 0.99436 0.0
C791 C 0.13076 0.64633 0.94495 0.0
C792 C 0.11427 0.66363 0.96705 0.0
H793 H 0.1425 0.60358 0.92611 0.0
H794 H 0.14634 0.65577 0.93209 0.0
C795 C 0.0942 0.65044 0.98299 0.0
C796 C 0.33979 0.85314 0.72324 0.0
C797 C 0.36487 0.86044 0.71582 0.0
H798 H 0.31528 0.82105 0.73978 0.0
C799 C 0.38397 0.8388 0.71452 0.0
H800 H 0.32458 0.86923 0.72446 0.0
C801 C 0.37861 0.81111 0.72325 0.0
C802 C 0.35406 0.80447 0.7337 0.0
H803 H 0.40345 0.84361 0.70868 0.0
H804 H 0.39412 0.7954 0.72377 0.0
C805 C 0.33447 0.82549 0.73222 0.0
C806 C 0.40062 0.76382 0.90718 0.0
C807 C 0.41442 0.76438 0.87538 0.0
H808 H 0.39752 0.77932 0.96365 0.0
C809 C 0.43804 0.77852 0.87787 0.0
H810 H 0.38263 0.75257 0.90629 0.0
C811 C 0.44669 0.79371 0.9108 0.0
C812 C 0.43189 0.79501 0.94187 0.0
H813 H 0.44932 0.77899 0.85397 0.0
H814 H 0.46426 0.80571 0.91126 0.0
C815 C 0.40931 0.77892 0.94016 0.0
C816 C 0.06572 0.22018 0.63801 0.0
C817 C 0.0731 0.20532 0.60508 0.0
H818 H 0.06024 0.21793 0.69555 0.0
C819 C 0.08152 0.17665 0.60521 0.0
H820 H 0.05957 0.24246 0.63859 0.0
C821 C 0.08303 0.16318 0.63773 0.0
C822 C 0.07523 0.17769 0.67058 0.0
H823 H 0.08791 0.16487 0.58038 0.0
H824 H 0.09012 0.14124 0.63702 0.0
C825 C 0.06629 0.20625 0.67047 0.0
C826 C 0.32234 0.76604 0.87898 0.0
C827 C 0.30078 0.78419 0.8748 0.0
H828 H 0.34127 0.72697 0.85913 0.0
C829 C 0.28254 0.77752 0.84549 0.0
H830 H 0.33629 0.77017 0.90191 0.0
C831 C 0.28607 0.75362 0.82043 0.0
C832 C 0.30792 0.73603 0.82399 0.0
H833 H 0.26563 0.79095 0.84163 0.0
H834 H 0.27182 0.74904 0.79795 0.0
C835 C 0.32558 0.74179 0.85413 0.0
C836 C 0.88713 0.88976 0.38813 0.0
C837 C 0.91113 0.89904 0.40334 0.0
H838 H 0.85965 0.88949 0.34269 0.0
C839 C 0.9259 0.9166 0.38364 0.0
H840 H 0.87516 0.87654 0.40277 0.0
C841 C 0.91694 0.92413 0.34882 0.0
C842 C 0.89323 0.91398 0.3333 0.0
H843 H 0.94452 0.92408 0.39479 0.0
H844 H 0.92866 0.93739 0.33388 0.0
C845 C 0.87833 0.89707 0.35351 0.0
C846 C 0.58131 0.60313 0.65784 0.0
C847 C 0.56782 0.58366 0.67645 0.0
H848 H 0.60123 0.61053 0.61029 0.0
C849 C 0.56331 0.55597 0.65937 0.0
H850 H 0.58481 0.62478 0.66984 0.0
C851 C 0.57265 0.54785 0.62465 0.0
C852 C 0.58675 0.56726 0.60678 0.0
H853 H 0.55292 0.54054 0.67293 0.0
H854 H 0.56936 0.52623 0.61222 0.0
C855 C 0.59075 0.59501 0.62358 0.0
C856 C 0.77827 0.27241 0.83768 0.0
C857 C 0.78032 0.27825 0.8762 0.0
H858 H 0.79403 0.24974 0.79036 0.0
C859 C 0.79713 0.2615 0.8971 0.0
H860 H 0.7653 0.28483 0.82085 0.0
C861 C 0.81321 0.24103 0.8797 0.0
C862 C 0.81318 0.23735 0.841 0.0
H863 H 0.7988 0.26522 0.92688 0.0
H864 H 0.82704 0.22976 0.89666 0.0
C865 C 0.79468 0.25223 0.82019 0.0
C866 C 0.04838 0.57709 0.11706 0.0
C867 C 0.06383 0.55291 0.10809 0.0
H868 H 0.03264 0.60482 0.16005 0.0
C869 C 0.07251 0.53563 0.13607 0.0
H870 H 0.04128 0.59071 0.09613 0.0
C871 C 0.0672 0.54349 0.17276 0.0
C872 C 0.0535 0.56895 0.18192 0.0
H873 H 0.08423 0.51665 0.12982 0.0
H874 H 0.07522 0.53072 0.19407 0.0
C875 C 0.04343 0.58515 0.15367 0.0
C876 C 0.57829 0.63086 0.47118 0.0
C877 C 0.59743 0.60932 0.46842 0.0
H878 H 0.5696 0.67584 0.4759 0.0
C879 C 0.62253 0.61714 0.46195 0.0
H880 H 0.55867 0.62556 0.47566 0.0
C881 C 0.62884 0.64614 0.46207 0.0
C882 C 0.61015 0.66783 0.46867 0.0
H883 H 0.63773 0.60109 0.45955 0.0
H884 H 0.64874 0.65154 0.45981 0.0
C885 C 0.58456 0.65976 0.47125 0.0
C886 C 0.67449 0.64654 0.80596 0.0
C887 C 0.68688 0.62261 0.78831 0.0
H888 H 0.63905 0.66455 0.82502 0.0
C889 C 0.67374 0.59656 0.78233 0.0
H890 H 0.68411 0.66694 0.81094 0.0
C891 C 0.64807 0.59506 0.79086 0.0
C892 C 0.63479 0.61974 0.80493 0.0
H893 H 0.68286 0.57769 0.76908 0.0
H894 H 0.63816 0.57503 0.78375 0.0
C895 C 0.64862 0.64518 0.814 0.0
C896 C 0.19931 0.71084 0.15656 0.0
C897 C 0.21451 0.68582 0.15261 0.0
H898 H 0.17132 0.73785 0.13096 0.0
C899 C 0.21537 0.67046 0.11773 0.0
H900 H 0.19819 0.72285 0.18324 0.0
C901 C 0.19942 0.67843 0.08821 0.0
C902 C 0.183 0.70238 0.09281 0.0
H903 H 0.22665 0.65083 0.11401 0.0
H904 H 0.19899 0.66508 0.06234 0.0
C905 C 0.18396 0.71934 0.12667 0.0
C906 C 0.56285 0.72791 0.6487 0.0
C907 C 0.57831 0.71579 0.62102 0.0
H908 H 0.55211 0.72646 0.7045 0.0
C909 C 0.59647 0.69451 0.62915 0.0
H910 H 0.54891 0.7446 0.64292 0.0
C911 C 0.59906 0.68508 0.66418 0.0
C912 C 0.5829 0.69602 0.6917 0.0
H913 H 0.60875 0.68507 0.60827 0.0
H914 H 0.61312 0.66831 0.66912 0.0
C915 C 0.56484 0.71771 0.6838 0.0
C916 C 0.80288 0.44819 0.83795 0.0
C917 C 0.79813 0.43205 0.80387 0.0
H918 H 0.79761 0.45199 0.89586 0.0
C919 C 0.78093 0.4092 0.80162 0.0
H920 H 0.81582 0.46617 0.84049 0.0
C921 C 0.77057 0.40101 0.83342 0.0
C922 C 0.7771 0.41564 0.868 0.0
H923 H 0.77673 0.39647 0.77575 0.0
H924 H 0.75854 0.38226 0.83114 0.0
C925 C 0.7924 0.44011 0.86971 0.0
C926 C 0.95941 0.80115 0.41199 0.0
C927 C 0.94346 0.80082 0.44172 0.0
H928 H 0.96405 0.78924 0.35468 0.0
C929 C 0.92074 0.78495 0.43673 0.0
H930 H 0.97706 0.81314 0.41488 0.0
C931 C 0.91315 0.77162 0.40215 0.0
C932 C 0.92824 0.7736 0.37188 0.0
H933 H 0.90802 0.78414 0.459 0.0
H934 H 0.89499 0.76056 0.39891 0.0
C935 C 0.95189 0.78759 0.37741 0.0
C936 C 0.37493 0.36336 0.54741 0.0
C937 C 0.38095 0.39138 0.5401 0.0
H938 H 0.34659 0.3306 0.54258 0.0
C939 C 0.36085 0.40983 0.52922 0.0
H940 H 0.38982 0.34872 0.5565 0.0
C941 C 0.33602 0.39944 0.52126 0.0
C942 C 0.33076 0.37041 0.52412 0.0
H943 H 0.36465 0.43169 0.52387 0.0
H944 H 0.32149 0.41366 0.51019 0.0
C945 C 0.35008 0.35295 0.53939 0.0
C946 C 0.39554 0.34578 0.20679 0.0
C947 C 0.37507 0.36458 0.19842 0.0
H948 H 0.40696 0.30443 0.22322 0.0
C949 C 0.34998 0.35375 0.19487 0.0
H950 H 0.41513 0.35323 0.20955 0.0
C951 C 0.34531 0.32561 0.20266 0.0
C952 C 0.3656 0.30774 0.21435 0.0
H953 H 0.33375 0.36754 0.18829 0.0
H954 H 0.32563 0.31851 0.20167 0.0
C955 C 0.39085 0.31777 0.21486 0.0
C956 C 0.33058 0.27176 0.32425 0.0
C957 C 0.31737 0.24604 0.32509 0.0
H958 H 0.33707 0.31441 0.34898 0.0
C959 C 0.3012 0.24325 0.35395 0.0
H960 H 0.34272 0.27477 0.30202 0.0
C961 C 0.29769 0.26603 0.38077 0.0
C962 C 0.31018 0.29217 0.37916 0.0
H963 H 0.29074 0.22365 0.35533 0.0
H964 H 0.28449 0.26346 0.402 0.0
C965 C 0.32721 0.29453 0.35116 0.0
C966 C 0.04773 0.09689 0.66211 0.0
C967 C 0.05032 0.07395 0.68442 0.0
H968 H 0.05221 0.11135 0.60887 0.0
C969 C 0.05714 0.04667 0.66847 0.0
H970 H 0.04167 0.11794 0.67348 0.0
C971 C 0.06322 0.04289 0.6316 0.0
C972 C 0.0624 0.06629 0.60989 0.0
H973 H 0.059 0.02851 0.68489 0.0
H974 H 0.06955 0.02183 0.62058 0.0
C975 C 0.0536 0.09307 0.6251 0.0
C976 C 0.67921 0.21805 0.1274 0.0
C977 C 0.67664 0.19932 0.09509 0.0
H978 H 0.69517 0.22403 0.18307 0.0
C979 C 0.69202 0.17444 0.09172 0.0
H980 H 0.66737 0.2373 0.13069 0.0
C981 C 0.70857 0.16746 0.12112 0.0
C982 C 0.70929 0.18478 0.15474 0.0
H983 H 0.69031 0.15971 0.06705 0.0
H984 H 0.71902 0.14721 0.11859 0.0
C985 C 0.6951 0.21056 0.15731 0.0
C986 C 0.41739 0.42125 0.34876 0.0
C987 C 0.39353 0.41153 0.33325 0.0
H988 H 0.44443 0.42182 0.39548 0.0
C989 C 0.37773 0.39632 0.35428 0.0
H990 H 0.4298 0.43322 0.33316 0.0
C991 C 0.38579 0.39019 0.38968 0.0
C992 C 0.40997 0.39891 0.40491 0.0
H993 H 0.35893 0.38915 0.34345 0.0
H994 H 0.37314 0.37819 0.40486 0.0
C995 C 0.42564 0.41484 0.38438 0.0
C996 C 0.68128 0.5194 0.58339 0.0
C997 C 0.68196 0.53485 0.55211 0.0
H998 H 0.69349 0.51716 0.64019 0.0
C999 C 0.699 0.55778 0.55296 0.0
H1000 H 0.66847 0.50149 0.58358 0.0
C1001 C 0.71306 0.56689 0.58546 0.0
C1002 C 0.7106 0.55306 0.61765 0.0
H1003 H 0.70022 0.56999 0.52932 0.0
H1004 H 0.72491 0.58566 0.5858 0.0
C1005 C 0.69556 0.5284 0.61589 0.0
C1006 C 0.29428 0.94905 0.87334 0.0
C1007 C 0.27517 0.92812 0.86911 0.0
H1008 H 0.32118 0.97266 0.84648 0.0
C1009 C 0.26496 0.91913 0.8335 0.0
H1010 H 0.30239 0.95659 0.90042 0.0
C1011 C 0.2756 0.92851 0.80257 0.0
C1012 C 0.29678 0.94677 0.80686 0.0
H1013 H 0.24995 0.9033 0.82944 0.0
H1014 H 0.26864 0.91956 0.77549 0.0
C1015 C 0.3051 0.95818 0.84243 0.0
C1016 C 0.70976 0.06783 0.09007 0.0
C1017 C 0.70699 0.05391 0.12215 0.0
H1018 H 0.69839 0.07017 0.03322 0.0
C1019 C 0.69256 0.02873 0.11965 0.0
H1020 H 0.72104 0.08709 0.09091 0.0
C1021 C 0.67957 0.01894 0.08638 0.0
C1022 C 0.68079 0.03414 0.05496 0.0
H1023 H 0.69022 0.0174 0.14378 0.0
H1024 H 0.66739 0.00044 0.08592 0.0
C1025 C 0.69689 0.058 0.05684 0.0
C1026 C 0.44188 0.90665 0.8565 0.0
C1027 C 0.43705 0.91459 0.89351 0.0
H1028 H 0.43315 0.91435 0.80012 0.0
C1029 C 0.42207 0.93921 0.90232 0.0
H1030 H 0.45354 0.88785 0.84903 0.0
C1031 C 0.41083 0.95464 0.87453 0.0
C1032 C 0.41398 0.94551 0.83729 0.0
H1033 H 0.41847 0.94614 0.93071 0.0
H1034 H 0.39855 0.97285 0.88229 0.0
C1035 C 0.4303 0.9219 0.82855 0.0
C1036 C 0.67499 0.71912 0.63245 0.0
C1037 C 0.67373 0.70298 0.59802 0.0
H1038 H 0.69051 0.72175 0.68843 0.0
C1039 C 0.69035 0.67937 0.59194 0.0
H1040 H 0.66215 0.7373 0.6378 0.0
C1041 C 0.70715 0.67114 0.6204 0.0
C1042 C 0.70695 0.68585 0.65575 0.0
H1043 H 0.68965 0.66663 0.56559 0.0
H1044 H 0.71877 0.65188 0.61545 0.0
C1045 C 0.6912 0.71032 0.66133 0.0
C1046 C 0.28189 0.40658 0.30047 0.0
C1047 C 0.29869 0.4296 0.30028 0.0
H1048 H 0.26118 0.38038 0.33312 0.0
C1049 C 0.30434 0.44677 0.33337 0.0
H1050 H 0.27702 0.39306 0.27546 0.0
C1051 C 0.29539 0.43943 0.3665 0.0
C1052 C 0.28054 0.41484 0.36717 0.0
H1053 H 0.31705 0.46487 0.33415 0.0
H1054 H 0.30143 0.45203 0.39179 0.0
C1055 C 0.27288 0.39928 0.33361 0.0
loop_
_geom_bond_atom_site_label_1
_geom_bond_atom_site_label_2
_geom_bond_distance
_geom_bond_site_symmetry_2
_ccdc_geom_bond_type
C0 O1 1.170 . S
C0 O7 1.184 1_545 S
O1 C0 1.170 . S
O2 Zn3 1.899 . S
O2 C10 1.284 . S
Zn3 O2 1.899 . S
Zn3 O4 2.032 . S
Zn3 O7 2.082 1_545 S
Zn3 O12 1.977 . S
O4 Zn3 2.032 . S
O4 C8 1.278 . S
C5 O6 1.203 . S
C5 O12 1.267 . S
O6 C5 1.203 . S
O7 C0 1.184 1_565 S
O7 Zn3 2.082 1_565 S
C8 O4 1.278 . S
C8 O9 1.211 . S
O9 C8 1.211 . S
C10 O2 1.284 . S
C10 O11 1.273 . S
O11 C10 1.273 . S
O12 Zn3 1.977 . S
O12 C5 1.267 . S
C13 O14 1.160 . S
C13 O20 1.185 . S
O14 C13 1.160 . S
O15 Zn16 1.899 . S
O15 C23 1.284 . S
Zn16 O15 1.899 . S
Zn16 O17 2.032 . S
Zn16 O20 2.086 . S
Zn16 O25 1.977 . S
O17 Zn16 2.032 . S
O17 C21 1.278 . S
C18 O19 1.203 . S
C18 O25 1.267 . S
O19 C18 1.203 . S
O20 C13 1.185 . S
O20 Zn16 2.086 . S
C21 O17 1.278 . S
C21 O22 1.211 . S
O22 C21 1.211 . S
C23 O15 1.284 . S
C23 O24 1.273 . S
O24 C23 1.273 . S
O25 Zn16 1.977 . S
O25 C18 1.267 . S
C26 O27 1.160 . S
C26 O33 1.185 1_556 S
O27 C26 1.160 . S
O28 Zn29 1.901 1_556 S
O28 C36 1.285 . S
Zn29 O28 1.901 1_554 S
Zn29 O30 2.032 . S
Zn29 O33 2.086 . S
Zn29 O38 1.977 . S
O30 Zn29 2.032 . S
O30 C34 1.278 . S
C31 O32 1.203 . S
C31 O38 1.267 . S
O32 C31 1.203 . S
O33 C26 1.185 1_554 S
O33 Zn29 2.086 . S
C34 O30 1.278 . S
C34 O35 1.211 . S
O35 C34 1.211 . S
C36 O28 1.285 . S
C36 O37 1.271 1_556 S
O37 C36 1.271 1_554 S
O38 Zn29 1.977 . S
O38 C31 1.267 . S
C39 O40 1.160 1_565 S
C39 O46 1.185 . S
O40 C39 1.160 1_545 S
O41 Zn42 1.899 . S
O41 C49 1.284 . S
Zn42 O41 1.899 . S
Zn42 O43 2.032 . S
Zn42 O46 2.086 . S
Zn42 O51 1.977 . S
O43 Zn42 2.032 . S
O43 C47 1.278 . S
C44 O45 1.203 . S
C44 O51 1.267 . S
O45 C44 1.203 . S
O46 C39 1.185 . S
O46 Zn42 2.086 . S
C47 O43 1.278 . S
C47 O48 1.211 . S
O48 C47 1.211 . S
C49 O41 1.284 . S
C49 O50 1.273 . S
O50 C49 1.273 . S
O51 Zn42 1.977 . S
O51 C44 1.267 . S
C52 O53 1.160 . S
C52 O59 1.185 . S
O53 C52 1.160 . S
O54 Zn55 1.899 . S
O54 C62 1.284 . S
Zn55 O54 1.899 . S
Zn55 O56 2.032 . S
Zn55 O59 2.086 . S
Zn55 O64 1.977 . S
O56 Zn55 2.032 . S
O56 C60 1.278 . S
C57 O58 1.203 . S
C57 O64 1.267 . S
O58 C57 1.203 . S
O59 C52 1.185 . S
O59 Zn55 2.086 . S
C60 O56 1.278 . S
C60 O61 1.211 . S
O61 C60 1.211 . S
C62 O54 1.284 . S
C62 O63 1.273 . S
O63 C62 1.273 . S
O64 Zn55 1.977 . S
O64 C57 1.267 . S
C65 O66 1.160 1_556 S
C65 O72 1.185 . S
O66 C65 1.160 1_554 S
O67 Zn68 1.899 . S
O67 C75 1.284 . S
Zn68 O67 1.899 . S
Zn68 O69 2.032 . S
Zn68 O72 2.086 . S
Zn68 O77 1.977 . S
O69 Zn68 2.032 . S
O69 C73 1.278 . S
C70 O71 1.203 . S
C70 O77 1.267 . S
O71 C70 1.203 . S
O72 C65 1.185 . S
O72 Zn68 2.086 . S
C73 O69 1.278 . S
C73 O74 1.211 . S
O74 C73 1.211 . S
C75 O67 1.284 . S
C75 O76 1.273 . S
O76 C75 1.273 . S
O77 Zn68 1.977 . S
O77 C70 1.267 . S
C78 O79 1.160 . S
C78 O85 1.185 . S
O79 C78 1.160 . S
O80 Zn81 1.899 . S
O80 C88 1.284 . S
Zn81 O80 1.899 . S
Zn81 O82 2.032 . S
Zn81 O85 2.086 . S
Zn81 O90 1.977 . S
O82 Zn81 2.032 . S
O82 C86 1.278 . S
C83 O84 1.203 . S
C83 O90 1.267 . S
O84 C83 1.203 . S
O85 C78 1.185 . S
O85 Zn81 2.086 . S
C86 O82 1.278 . S
C86 O87 1.211 . S
O87 C86 1.211 . S
C88 O80 1.284 . S
C88 O89 1.273 . S
O89 C88 1.273 . S
O90 Zn81 1.977 . S
O90 C83 1.267 . S
C91 O92 1.160 . S
C91 O98 1.185 . S
O92 C91 1.160 . S
O93 Zn94 1.899 . S
O93 C101 1.284 . S
Zn94 O93 1.899 . S
Zn94 O95 2.032 . S
Zn94 O98 2.086 . S
Zn94 O103 1.977 . S
O95 Zn94 2.032 . S
O95 C99 1.278 . S
C96 O97 1.203 . S
C96 O103 1.267 . S
O97 C96 1.203 . S
O98 C91 1.185 . S
O98 Zn94 2.086 . S
C99 O95 1.278 . S
C99 O100 1.211 . S
O100 C99 1.211 . S
C101 O93 1.284 . S
C101 O102 1.273 . S
O102 C101 1.273 . S
O103 Zn94 1.977 . S
O103 C96 1.267 . S
C104 O105 1.169 . S
C104 O111 1.184 1_546 S
O105 C104 1.169 . S
O106 Zn107 1.899 1_556 S
O106 C114 1.284 . S
Zn107 O106 1.899 1_554 S
Zn107 O108 2.032 . S
Zn107 O111 2.081 1_545 S
Zn107 O116 1.977 . S
O108 Zn107 2.032 . S
O108 C112 1.278 . S
C109 O110 1.203 . S
C109 O116 1.267 . S
O110 C109 1.203 . S
O111 C104 1.184 1_564 S
O111 Zn107 2.081 1_565 S
C112 O108 1.278 . S
C112 O113 1.211 . S
O113 C112 1.211 . S
C114 O106 1.284 . S
C114 O115 1.273 1_556 S
O115 C114 1.273 1_554 S
O116 Zn107 1.977 . S
O116 C109 1.267 . S
C117 O118 1.160 . S
C117 O124 1.185 . S
O118 C117 1.160 . S
O119 Zn120 1.899 . S
O119 C127 1.284 . S
Zn120 O119 1.899 . S
Zn120 O121 2.032 . S
Zn120 O124 2.086 . S
Zn120 O129 1.977 . S
O121 Zn120 2.032 . S
O121 C125 1.278 . S
C122 O123 1.203 . S
C122 O129 1.267 . S
O123 C122 1.203 . S
O124 C117 1.185 . S
O124 Zn120 2.086 . S
C125 O121 1.278 . S
C125 O126 1.211 . S
O126 C125 1.211 . S
C127 O119 1.284 . S
C127 O128 1.273 . S
O128 C127 1.273 . S
O129 Zn120 1.977 . S
O129 C122 1.267 . S
C130 O131 1.160 . S
C130 O137 1.185 . S
O131 C130 1.160 . S
O132 Zn133 1.899 . S
O132 C140 1.284 . S
Zn133 O132 1.899 . S
Zn133 O134 2.032 . S
Zn133 O137 2.086 . S
Zn133 O142 1.977 . S
O134 Zn133 2.032 . S
O134 C138 1.278 . S
C135 O136 1.203 . S
C135 O142 1.267 . S
O136 C135 1.203 . S
O137 C130 1.185 . S
O137 Zn133 2.086 . S
C138 O134 1.278 . S
C138 O139 1.211 . S
O139 C138 1.211 . S
C140 O132 1.284 . S
C140 O141 1.273 . S
O141 C140 1.273 . S
O142 Zn133 1.977 . S
O142 C135 1.267 . S
C143 O144 1.160 . S
C143 O150 1.185 . S
O144 C143 1.160 . S
O145 Zn146 1.899 . S
O145 C153 1.284 . S
Zn146 O145 1.899 . S
Zn146 O147 2.032 . S
Zn146 O150 2.086 . S
Zn146 O155 1.977 . S
O147 Zn146 2.032 . S
O147 C151 1.278 . S
C148 O149 1.203 . S
C148 O155 1.267 . S
O149 C148 1.203 . S
O150 C143 1.185 . S
O150 Zn146 2.086 . S
C151 O147 1.278 . S
C151 O152 1.211 . S
O152 C151 1.211 . S
C153 O145 1.284 . S
C153 O154 1.273 . S
O154 C153 1.273 . S
O155 Zn146 1.977 . S
O155 C148 1.267 . S
C156 O157 1.160 . S
C156 O163 1.185 . S
O157 C156 1.160 . S
O158 Zn159 1.899 . S
O158 C166 1.284 . S
Zn159 O158 1.899 . S
Zn159 O160 2.032 . S
Zn159 O163 2.086 . S
Zn159 O168 1.977 . S
O160 Zn159 2.032 . S
O160 C164 1.278 . S
C161 O162 1.203 . S
C161 O168 1.267 . S
O162 C161 1.203 . S
O163 C156 1.185 . S
O163 Zn159 2.086 . S
C164 O160 1.278 . S
C164 O165 1.211 . S
O165 C164 1.211 . S
C166 O158 1.284 . S
C166 O167 1.273 . S
O167 C166 1.273 . S
O168 Zn159 1.977 . S
O168 C161 1.267 . S
C169 O170 1.160 . S
C169 O176 1.185 . S
O170 C169 1.160 . S
O171 Zn172 1.899 . S
O171 C179 1.284 . S
Zn172 O171 1.899 . S
Zn172 O173 2.032 . S
Zn172 O176 2.086 . S
Zn172 O181 1.977 . S
O173 Zn172 2.032 . S
O173 C177 1.278 . S
C174 O175 1.203 . S
C174 O181 1.267 . S
O175 C174 1.203 . S
O176 C169 1.185 . S
O176 Zn172 2.086 . S
C177 O173 1.278 . S
C177 O178 1.211 . S
O178 C177 1.211 . S
C179 O171 1.284 . S
C179 O180 1.273 . S
O180 C179 1.273 . S
O181 Zn172 1.977 . S
O181 C174 1.267 . S
C182 O183 1.160 . S
C182 O189 1.185 . S
O183 C182 1.160 . S
O184 Zn185 1.899 . S
O184 C192 1.284 . S
Zn185 O184 1.899 . S
Zn185 O186 2.032 . S
Zn185 O189 2.086 . S
Zn185 O194 1.977 . S
O186 Zn185 2.032 . S
O186 C190 1.278 . S
C187 O188 1.203 . S
C187 O194 1.267 . S
O188 C187 1.203 . S
O189 C182 1.185 . S
O189 Zn185 2.086 . S
C190 O186 1.278 . S
C190 O191 1.211 . S
O191 C190 1.211 . S
C192 O184 1.284 . S
C192 O193 1.273 . S
O193 C192 1.273 . S
O194 Zn185 1.977 . S
O194 C187 1.267 . S
C195 O196 1.160 . S
C195 O202 1.193 . S
O196 C195 1.160 . S
O197 Zn198 1.899 1_554 S
O197 C205 1.284 . S
Zn198 O197 1.899 1_556 S
Zn198 O199 2.032 . S
Zn198 O202 2.083 1_556 S
Zn198 O207 1.977 . S
O199 Zn198 2.032 . S
O199 C203 1.278 . S
C200 O201 1.203 . S
C200 O207 1.267 . S
O201 C200 1.203 . S
O202 C195 1.193 . S
O202 Zn198 2.083 1_554 S
C203 O199 1.278 . S
C203 O204 1.211 . S
O204 C203 1.211 . S
C205 O197 1.284 . S
C205 O206 1.273 1_554 S
O206 C205 1.273 1_556 S
O207 Zn198 1.977 . S
O207 C200 1.267 . S
C208 O209 1.160 . S
C208 O215 1.185 1_556 S
O209 C208 1.160 . S
O210 Zn211 1.899 1_556 S
O210 C218 1.284 . S
Zn211 O210 1.899 1_554 S
Zn211 O212 2.032 . S
Zn211 O215 2.086 . S
Zn211 O220 1.977 . S
O212 Zn211 2.032 . S
O212 C216 1.278 . S
C213 O214 1.203 . S
C213 O220 1.267 . S
O214 C213 1.203 . S
O215 C208 1.185 1_554 S
O215 Zn211 2.086 . S
C216 O212 1.278 . S
C216 O217 1.211 . S
O217 C216 1.211 . S
C218 O210 1.284 . S
C218 O219 1.273 1_556 S
O219 C218 1.273 1_554 S
O220 Zn211 1.977 . S
O220 C213 1.267 . S
C221 O222 1.160 . S
C221 O228 1.185 . S
O222 C221 1.160 . S
O223 Zn224 1.899 . S
O223 C231 1.284 . S
Zn224 O223 1.899 . S
Zn224 O225 2.032 . S
Zn224 O228 2.086 . S
Zn224 O233 1.977 . S
O225 Zn224 2.032 . S
O225 C229 1.278 . S
C226 O227 1.203 . S
C226 O233 1.267 . S
O227 C226 1.203 . S
O228 C221 1.185 . S
O228 Zn224 2.086 . S
C229 O225 1.278 . S
C229 O230 1.211 . S
O230 C229 1.211 . S
C231 O223 1.284 . S
C231 O232 1.273 . S
O232 C231 1.273 . S
O233 Zn224 1.977 . S
O233 C226 1.267 . S
C234 O235 1.160 . S
C234 O241 1.185 1_556 S
O235 C234 1.160 . S
O236 Zn237 1.898 1_556 S
O236 C244 1.285 . S
Zn237 O236 1.898 1_554 S
Zn237 O238 2.032 . S
Zn237 O241 2.086 . S
Zn237 O246 1.977 . S
O238 Zn237 2.032 . S
O238 C242 1.278 . S
C239 O240 1.203 . S
C239 O246 1.267 . S
O240 C239 1.203 . S
O241 C234 1.185 1_554 S
O241 Zn237 2.086 . S
C242 O238 1.278 . S
C242 O243 1.211 . S
O243 C242 1.211 . S
C244 O236 1.285 . S
C244 O245 1.268 1_556 S
O245 C244 1.268 1_554 S
O246 Zn237 1.977 . S
O246 C239 1.267 . S
C247 O248 1.160 . S
C247 O254 1.185 . S
O248 C247 1.160 . S
O249 Zn250 1.899 . S
O249 C257 1.284 . S
Zn250 O249 1.899 . S
Zn250 O251 2.032 . S
Zn250 O254 2.086 . S
Zn250 O259 1.977 . S
O251 Zn250 2.032 . S
O251 C255 1.278 . S
C252 O253 1.203 . S
C252 O259 1.267 . S
O253 C252 1.203 . S
O254 C247 1.185 . S
O254 Zn250 2.086 . S
C255 O251 1.278 . S
C255 O256 1.211 . S
O256 C255 1.211 . S
C257 O249 1.284 . S
C257 O258 1.273 . S
O258 C257 1.273 . S
O259 Zn250 1.977 . S
O259 C252 1.267 . S
C260 O261 1.160 1_556 S
C260 O267 1.185 . S
O261 C260 1.160 1_554 S
O262 Zn263 1.899 . S
O262 C270 1.284 . S
Zn263 O262 1.899 . S
Zn263 O264 2.032 . S
Zn263 O267 2.086 . S
Zn263 O272 1.977 . S
O264 Zn263 2.032 . S
O264 C268 1.278 . S
C265 O266 1.203 . S
C265 O272 1.267 . S
O266 C265 1.203 . S
O267 C260 1.185 . S
O267 Zn263 2.086 . S
C268 O264 1.278 . S
C268 O269 1.211 . S
O269 C268 1.211 . S
C270 O262 1.284 . S
C270 O271 1.273 . S
O271 C270 1.273 . S
O272 Zn263 1.977 . S
O272 C265 1.267 . S
C273 O274 1.160 1_565 S
C273 O280 1.185 . S
O274 C273 1.160 1_545 S
O275 Zn276 1.899 . S
O275 C283 1.284 . S
Zn276 O275 1.899 . S
Zn276 O277 2.032 . S
Zn276 O280 2.086 . S
Zn276 O285 1.977 . S
O277 Zn276 2.032 . S
O277 C281 1.278 . S
C278 O279 1.203 . S
C278 O285 1.267 . S
O279 C278 1.203 . S
O280 C273 1.185 . S
O280 Zn276 2.086 . S
C281 O277 1.278 . S
C281 O282 1.211 . S
O282 C281 1.211 . S
C283 O275 1.284 . S
C283 O284 1.273 . S
O284 C283 1.273 . S
O285 Zn276 1.977 . S
O285 C278 1.267 . S
C286 O287 1.160 . S
C286 O293 1.190 . S
O287 C286 1.160 . S
O288 Zn289 1.899 1_554 S
O288 C296 1.284 . S
Zn289 O288 1.899 1_556 S
Zn289 O290 2.032 . S
Zn289 O293 2.084 1_556 S
Zn289 O298 1.977 . S
O290 Zn289 2.032 . S
O290 C294 1.278 . S
C291 O292 1.203 . S
C291 O298 1.267 . S
O292 C291 1.203 . S
O293 C286 1.190 . S
O293 Zn289 2.084 1_554 S
C294 O290 1.278 . S
C294 O295 1.211 . S
O295 C294 1.211 . S
C296 O288 1.284 . S
C296 O297 1.273 1_554 S
O297 C296 1.273 1_556 S
O298 Zn289 1.977 . S
O298 C291 1.267 . S
C299 O300 1.160 . S
C299 O306 1.185 . S
O300 C299 1.160 . S
O301 Zn302 1.899 . S
O301 C309 1.284 . S
Zn302 O301 1.899 . S
Zn302 O303 2.032 . S
Zn302 O306 2.086 . S
Zn302 O311 1.977 . S
O303 Zn302 2.032 . S
O303 C307 1.278 . S
C304 O305 1.203 . S
C304 O311 1.267 . S
O305 C304 1.203 . S
O306 C299 1.185 . S
O306 Zn302 2.086 . S
C307 O303 1.278 . S
C307 O308 1.211 . S
O308 C307 1.211 . S
C309 O301 1.284 . S
C309 O310 1.273 . S
O310 C309 1.273 . S
O311 Zn302 1.977 . S
O311 C304 1.267 . S
C312 O313 1.160 . S
C312 O319 1.185 . S
O313 C312 1.160 . S
O314 Zn315 1.899 . S
O314 C322 1.284 . S
Zn315 O314 1.899 . S
Zn315 O316 2.032 . S
Zn315 O319 2.086 . S
Zn315 O324 1.977 . S
O316 Zn315 2.032 . S
O316 C320 1.278 . S
C317 O318 1.203 . S
C317 O324 1.267 . S
O318 C317 1.203 . S
O319 C312 1.185 . S
O319 Zn315 2.086 . S
C320 O316 1.278 . S
C320 O321 1.211 . S
O321 C320 1.211 . S
C322 O314 1.284 . S
C322 O323 1.273 . S
O323 C322 1.273 . S
O324 Zn315 1.977 . S
O324 C317 1.267 . S
C325 O326 1.160 . S
C325 O332 1.185 . S
O326 C325 1.160 . S
O327 Zn328 1.899 . S
O327 C335 1.284 . S
Zn328 O327 1.899 . S
Zn328 O329 2.032 . S
Zn328 O332 2.086 . S
Zn328 O337 1.977 . S
O329 Zn328 2.032 . S
O329 C333 1.278 . S
C330 O331 1.203 . S
C330 O337 1.267 . S
O331 C330 1.203 . S
O332 C325 1.185 . S
O332 Zn328 2.086 . S
C333 O329 1.278 . S
C333 O334 1.211 . S
O334 C333 1.211 . S
C335 O327 1.284 . S
C335 O336 1.273 . S
O336 C335 1.273 . S
O337 Zn328 1.977 . S
O337 C330 1.267 . S
C338 O339 1.160 . S
C338 O345 1.185 . S
O339 C338 1.160 . S
O340 Zn341 1.899 . S
O340 C348 1.284 . S
Zn341 O340 1.899 . S
Zn341 O342 2.032 . S
Zn341 O345 2.086 . S
Zn341 O350 1.977 . S
O342 Zn341 2.032 . S
O342 C346 1.278 . S
C343 O344 1.203 . S
C343 O350 1.267 . S
O344 C343 1.203 . S
O345 C338 1.185 . S
O345 Zn341 2.086 . S
C346 O342 1.278 . S
C346 O347 1.211 . S
O347 C346 1.211 . S
C348 O340 1.284 . S
C348 O349 1.273 . S
O349 C348 1.273 . S
O350 Zn341 1.977 . S
O350 C343 1.267 . S
C351 O352 1.160 . S
C351 O358 1.185 . S
O352 C351 1.160 . S
O353 Zn354 1.899 . S
O353 C361 1.284 . S
Zn354 O353 1.899 . S
Zn354 O355 2.032 . S
Zn354 O358 2.086 . S
Zn354 O363 1.977 . S
O355 Zn354 2.032 . S
O355 C359 1.278 . S
C356 O357 1.203 . S
C356 O363 1.267 . S
O357 C356 1.203 . S
O358 C351 1.185 . S
O358 Zn354 2.086 . S
C359 O355 1.278 . S
C359 O360 1.211 . S
O360 C359 1.211 . S
C361 O353 1.284 . S
C361 O362 1.273 . S
O362 C361 1.273 . S
O363 Zn354 1.977 . S
O363 C356 1.267 . S
C364 O365 1.160 . S
C364 O371 1.185 . S
O365 C364 1.160 . S
O366 Zn367 1.899 . S
O366 C374 1.284 . S
Zn367 O366 1.899 . S
Zn367 O368 2.032 . S
Zn367 O371 2.086 . S
Zn367 O376 1.977 . S
O368 Zn367 2.032 . S
O368 C372 1.278 . S
C369 O370 1.203 . S
C369 O376 1.267 . S
O370 C369 1.203 . S
O371 C364 1.185 . S
O371 Zn367 2.086 . S
C372 O368 1.278 . S
C372 O373 1.211 . S
O373 C372 1.211 . S
C374 O366 1.284 . S
C374 O375 1.273 . S
O375 C374 1.273 . S
O376 Zn367 1.977 . S
O376 C369 1.267 . S
C377 O378 1.160 . S
C377 O384 1.185 . S
O378 C377 1.160 . S
O379 Zn380 1.899 . S
O379 C387 1.284 . S
Zn380 O379 1.899 . S
Zn380 O381 2.032 . S
Zn380 O384 2.086 . S
Zn380 O389 1.977 . S
O381 Zn380 2.032 . S
O381 C385 1.278 . S
C382 O383 1.203 . S
C382 O389 1.267 . S
O383 C382 1.203 . S
O384 C377 1.185 . S
O384 Zn380 2.086 . S
C385 O381 1.278 . S
C385 O386 1.211 . S
O386 C385 1.211 . S
C387 O379 1.284 . S
C387 O388 1.273 . S
O388 C387 1.273 . S
O389 Zn380 1.977 . S
O389 C382 1.267 . S
C390 O391 1.160 . S
C390 O397 1.185 . S
O391 C390 1.160 . S
O392 Zn393 1.899 . S
O392 C400 1.284 . S
Zn393 O392 1.899 . S
Zn393 O394 2.032 . S
Zn393 O397 2.086 . S
Zn393 O402 1.977 . S
O394 Zn393 2.032 . S
O394 C398 1.278 . S
C395 O396 1.203 . S
C395 O402 1.267 . S
O396 C395 1.203 . S
O397 C390 1.185 . S
O397 Zn393 2.086 . S
C398 O394 1.278 . S
C398 O399 1.211 . S
O399 C398 1.211 . S
C400 O392 1.284 . S
C400 O401 1.273 . S
O401 C400 1.273 . S
O402 Zn393 1.977 . S
O402 C395 1.267 . S
C403 O404 1.160 . S
C403 O410 1.185 . S
O404 C403 1.160 . S
O405 Zn406 1.899 . S
O405 C413 1.284 . S
Zn406 O405 1.899 . S
Zn406 O407 2.032 . S
Zn406 O410 2.086 . S
Zn406 O415 1.977 . S
O407 Zn406 2.032 . S
O407 C411 1.278 . S
C408 O409 1.203 . S
C408 O415 1.267 . S
O409 C408 1.203 . S
O410 C403 1.185 . S
O410 Zn406 2.086 . S
C411 O407 1.278 . S
C411 O412 1.211 . S
O412 C411 1.211 . S
C413 O405 1.284 . S
C413 O414 1.273 . S
O414 C413 1.273 . S
O415 Zn406 1.977 . S
O415 C408 1.267 . S
C416 C417 1.387 . S
C416 H420 0.950 . S
C416 C425 1.390 . S
C417 C416 1.387 . S
C417 C419 1.387 . S
H418 C425 0.950 . S
C419 C417 1.387 . S
C419 C421 1.390 . S
C419 H423 0.950 . S
H420 C416 0.950 . S
C421 C419 1.390 . S
C421 C422 1.387 . S
C421 H424 0.950 . S
C422 C421 1.387 . S
C422 C425 1.387 . S
H423 C419 0.950 . S
H424 C421 0.950 . S
C425 C416 1.390 . S
C425 H418 0.950 . S
C425 C422 1.387 . S
C426 C427 1.387 . S
C426 H430 0.950 . S
C426 C435 1.390 . S
C427 C426 1.387 . S
C427 C429 1.387 . S
H428 C435 0.950 . S
C429 C427 1.387 . S
C429 C431 1.390 . S
C429 H433 0.950 . S
H430 C426 0.950 . S
C431 C429 1.390 . S
C431 C432 1.387 . S
C431 H434 0.950 . S
C432 C431 1.387 . S
C432 C435 1.387 . S
H433 C429 0.950 . S
H434 C431 0.950 . S
C435 C426 1.390 . S
C435 H428 0.950 . S
C435 C432 1.387 . S
C436 C437 1.387 . S
C436 H440 0.950 . S
C436 C445 1.390 . S
C437 C436 1.387 . S
C437 C439 1.387 1_556 S
H438 C445 0.950 . S
C439 C437 1.387 1_554 S
C439 C441 1.390 . S
C439 H443 0.950 . S
H440 C436 0.950 . S
C441 C439 1.390 . S
C441 C442 1.387 1_554 S
C441 H444 0.950 . S
C442 C441 1.387 1_556 S
C442 C445 1.387 . S
H443 C439 0.950 . S
H444 C441 0.950 . S
C445 C436 1.390 . S
C445 H438 0.950 . S
C445 C442 1.387 . S
C446 C447 1.387 . S
C446 H450 0.950 . S
C446 C455 1.390 . S
C447 C446 1.387 . S
C447 C449 1.387 . S
H448 C455 0.950 . S
C449 C447 1.387 . S
C449 C451 1.390 . S
C449 H453 0.950 . S
H450 C446 0.950 . S
C451 C449 1.390 . S
C451 C452 1.387 . S
C451 H454 0.950 . S
C452 C451 1.387 . S
C452 C455 1.387 . S
H453 C449 0.950 . S
H454 C451 0.950 . S
C455 C446 1.390 . S
C455 H448 0.950 . S
C455 C452 1.387 . S
C456 C457 1.387 1_554 S
C456 H460 0.950 . S
C456 C465 1.390 . S
C457 C456 1.387 1_556 S
C457 C459 1.387 . S
H458 C465 0.950 . S
C459 C457 1.387 . S
C459 C461 1.390 . S
C459 H463 0.950 . S
H460 C456 0.950 . S
C461 C459 1.390 . S
C461 C462 1.387 1_556 S
C461 H464 0.950 . S
C462 C461 1.387 1_554 S
C462 C465 1.387 . S
H463 C459 0.950 . S
H464 C461 0.950 . S
C465 C456 1.390 . S
C465 H458 0.950 . S
C465 C462 1.387 . S
C466 C467 1.387 . S
C466 H470 0.950 . S
C466 C475 1.390 . S
C467 C466 1.387 . S
C467 C469 1.387 . S
H468 C475 0.950 . S
C469 C467 1.387 . S
C469 C471 1.390 . S
C469 H473 0.950 . S
H470 C466 0.950 . S
C471 C469 1.390 . S
C471 C472 1.387 . S
C471 H474 0.939 1_655 S
C472 C471 1.387 . S
C472 C475 1.387 . S
H473 C469 0.950 . S
H474 C471 0.939 1_455 S
C475 C466 1.390 . S
C475 H468 0.950 . S
C475 C472 1.387 . S
C476 C477 1.387 . S
C476 H480 0.950 . S
C476 C485 1.390 . S
C477 C476 1.387 . S
C477 C479 1.387 . S
H478 C485 0.950 . S
C479 C477 1.387 . S
C479 C481 1.390 . S
C479 H483 0.950 . S
H480 C476 0.950 . S
C481 C479 1.390 . S
C481 C482 1.387 . S
C481 H484 0.950 . S
C482 C481 1.387 . S
C482 C485 1.387 . S
H483 C479 0.950 . S
H484 C481 0.950 . S
C485 C476 1.390 . S
C485 H478 0.950 . S
C485 C482 1.387 . S
C486 C487 1.387 . S
C486 H490 0.950 . S
C486 C495 1.390 . S
C487 C486 1.387 . S
C487 C489 1.387 . S
H488 C495 0.950 . S
C489 C487 1.387 . S
C489 C491 1.390 . S
C489 H493 0.950 . S
H490 C486 0.950 . S
C491 C489 1.390 . S
C491 C492 1.387 . S
C491 H494 0.950 . S
C492 C491 1.387 . S
C492 C495 1.387 . S
H493 C489 0.950 . S
H494 C491 0.950 . S
C495 C486 1.390 . S
C495 H488 0.950 . S
C495 C492 1.387 . S
C496 C497 1.387 . S
C496 H500 0.950 . S
C496 C505 1.390 . S
C497 C496 1.387 . S
C497 C499 1.387 . S
H498 C505 0.950 . S
C499 C497 1.387 . S
C499 C501 1.390 . S
C499 H503 0.950 . S
H500 C496 0.950 . S
C501 C499 1.390 . S
C501 C502 1.387 . S
C501 H504 0.950 . S
C502 C501 1.387 . S
C502 C505 1.387 . S
H503 C499 0.950 . S
H504 C501 0.950 . S
C505 C496 1.390 . S
C505 H498 0.950 . S
C505 C502 1.387 . S
C506 C507 1.387 . S
C506 H510 0.950 . S
C506 C515 1.390 . S
C507 C506 1.387 . S
C507 C509 1.387 . S
H508 C515 0.950 . S
C509 C507 1.387 . S
C509 C511 1.390 . S
C509 H513 0.950 . S
H510 C506 0.950 . S
C511 C509 1.390 . S
C511 C512 1.387 . S
C511 H514 0.950 . S
C512 C511 1.387 . S
C512 C515 1.387 . S
H513 C509 0.950 . S
H514 C511 0.950 . S
C515 C506 1.390 . S
C515 H508 0.950 . S
C515 C512 1.387 . S
C516 C517 1.387 . S
C516 H520 0.950 . S
C516 C525 1.390 . S
C517 C516 1.387 . S
C517 C519 1.387 . S
H518 C525 0.950 . S
C519 C517 1.387 . S
C519 C521 1.390 . S
C519 H523 0.950 . S
H520 C516 0.950 . S
C521 C519 1.390 . S
C521 C522 1.387 . S
C521 H524 0.950 . S
C522 C521 1.387 . S
C522 C525 1.387 . S
H523 C519 0.950 . S
H524 C521 0.950 . S
C525 C516 1.390 . S
C525 H518 0.950 . S
C525 C522 1.387 . S
C526 C527 1.387 . S
C526 H530 0.950 . S
C526 C535 1.390 . S
C527 C526 1.387 . S
C527 C529 1.387 1_554 S
H528 C535 0.950 . S
C529 C527 1.387 1_556 S
C529 C531 1.390 . S
C529 H533 0.950 1_455 S
H530 C526 0.950 . S
C531 C529 1.390 . S
C531 C532 1.387 . S
C531 H534 0.950 . S
C532 C531 1.387 . S
C532 C535 1.387 1_556 S
H533 C529 0.950 1_655 S
H534 C531 0.950 . S
C535 C526 1.390 . S
C535 H528 0.950 . S
C535 C532 1.387 1_554 S
C536 C537 1.387 . S
C536 H540 0.950 . S
C536 C545 1.390 . S
C537 C536 1.387 . S
C537 C539 1.387 . S
H538 C545 0.950 . S
C539 C537 1.387 . S
C539 C541 1.390 . S
C539 H543 0.950 . S
H540 C536 0.950 . S
C541 C539 1.390 . S
C541 C542 1.387 . S
C541 H544 0.950 . S
C542 C541 1.387 . S
C542 C545 1.387 . S
H543 C539 0.950 . S
H544 C541 0.950 . S
C545 C536 1.390 . S
C545 H538 0.950 . S
C545 C542 1.387 . S
C546 C547 1.387 . S
C546 H550 0.950 . S
C546 C555 1.390 . S
C547 C546 1.387 . S
C547 C549 1.387 1_556 S
H548 C555 0.950 . S
C549 C547 1.387 1_554 S
C549 C551 1.390 . S
C549 H553 0.950 . S
H550 C546 0.950 . S
C551 C549 1.390 . S
C551 C552 1.387 1_554 S
C551 H554 0.950 . S
C552 C551 1.387 1_556 S
C552 C555 1.387 . S
H553 C549 0.950 . S
H554 C551 0.950 . S
C555 C546 1.390 . S
C555 H548 0.950 . S
C555 C552 1.387 . S
C556 C557 1.387 . S
C556 H560 0.950 . S
C556 C565 1.390 . S
C557 C556 1.387 . S
C557 C559 1.387 . S
H558 C565 0.950 . S
C559 C557 1.387 . S
C559 C561 1.390 . S
C559 H563 0.950 . S
H560 C556 0.950 . S
C561 C559 1.390 . S
C561 C562 1.387 . S
C561 H564 0.950 . S
C562 C561 1.387 . S
C562 C565 1.387 . S
H563 C559 0.950 . S
H564 C561 0.950 . S
C565 C556 1.390 . S
C565 H558 0.950 . S
C565 C562 1.387 . S
C566 C567 1.387 . S
C566 H570 0.950 . S
C566 C575 1.390 . S
C567 C566 1.387 . S
C567 C569 1.387 . S
H568 C575 0.950 . S
C569 C567 1.387 . S
C569 C571 1.390 . S
C569 H573 0.950 . S
H570 C566 0.950 . S
C571 C569 1.390 . S
C571 C572 1.387 . S
C571 H574 0.950 . S
C572 C571 1.387 . S
C572 C575 1.387 . S
H573 C569 0.950 . S
H574 C571 0.950 . S
C575 C566 1.390 . S
C575 H568 0.950 . S
C575 C572 1.387 . S
C576 C577 1.387 . S
C576 H580 0.950 . S
C576 C585 1.390 . S
C577 C576 1.387 . S
C577 C579 1.387 . S
H578 C585 0.950 . S
C579 C577 1.387 . S
C579 C581 1.390 . S
C579 H583 0.950 . S
H580 C576 0.950 . S
C581 C579 1.390 . S
C581 C582 1.387 . S
C581 H584 0.950 . S
C582 C581 1.387 . S
C582 C585 1.387 . S
H583 C579 0.950 . S
H584 C581 0.950 . S
C585 C576 1.390 . S
C585 H578 0.950 . S
C585 C582 1.387 . S
C586 C587 1.387 . S
C586 H590 0.950 . S
C586 C595 1.390 . S
C587 C586 1.387 . S
C587 C589 1.387 . S
H588 C595 0.950 . S
C589 C587 1.387 . S
C589 C591 1.390 . S
C589 H593 0.950 . S
H590 C586 0.950 . S
C591 C589 1.390 . S
C591 C592 1.387 . S
C591 H594 0.950 . S
C592 C591 1.387 . S
C592 C595 1.387 . S
H593 C589 0.950 . S
H594 C591 0.950 . S
C595 C586 1.390 . S
C595 H588 0.950 . S
C595 C592 1.387 . S
C596 C597 1.387 1_554 S
C596 H600 0.950 . S
C596 C605 1.390 . S
C597 C596 1.387 1_556 S
C597 C599 1.387 . S
H598 C605 0.950 . S
C599 C597 1.387 . S
C599 C601 1.390 . S
C599 H603 0.950 . S
H600 C596 0.950 . S
C601 C599 1.390 . S
C601 C602 1.387 . S
C601 H604 0.950 . S
C602 C601 1.387 . S
C602 C605 1.387 1_556 S
H603 C599 0.950 . S
H604 C601 0.950 . S
C605 C596 1.390 . S
C605 H598 0.950 . S
C605 C602 1.387 1_554 S
C606 C607 1.387 . S
C606 H610 0.950 . S
C606 C615 1.390 . S
C607 C606 1.387 . S
C607 C609 1.387 . S
H608 C615 0.950 . S
C609 C607 1.387 . S
C609 C611 1.390 . S
C609 H613 0.950 . S
H610 C606 0.950 . S
C611 C609 1.390 . S
C611 C612 1.387 . S
C611 H614 0.950 . S
C612 C611 1.387 . S
C612 C615 1.387 . S
H613 C609 0.950 . S
H614 C611 0.950 . S
C615 C606 1.390 . S
C615 H608 0.950 . S
C615 C612 1.387 . S
C616 C617 1.387 . S
C616 H620 0.950 . S
C616 C625 1.390 . S
C617 C616 1.387 . S
C617 C619 1.387 . S
H618 C625 0.950 . S
C619 C617 1.387 . S
C619 C621 1.390 . S
C619 H623 0.950 . S
H620 C616 0.950 . S
C621 C619 1.390 . S
C621 C622 1.387 . S
C621 H624 0.950 . S
C622 C621 1.387 . S
C622 C625 1.387 . S
H623 C619 0.950 . S
H624 C621 0.950 . S
C625 C616 1.390 . S
C625 H618 0.950 . S
C625 C622 1.387 . S
C626 C627 1.387 . S
C626 H630 0.950 . S
C626 C635 1.390 . S
C627 C626 1.387 . S
C627 C629 1.387 . S
H628 C635 0.950 . S
C629 C627 1.387 . S
C629 C631 1.390 . S
C629 H633 0.950 . S
H630 C626 0.950 . S
C631 C629 1.390 . S
C631 C632 1.387 . S
C631 H634 0.950 . S
C632 C631 1.387 . S
C632 C635 1.387 . S
H633 C629 0.950 . S
H634 C631 0.950 . S
C635 C626 1.390 . S
C635 H628 0.950 . S
C635 C632 1.387 . S
C636 C637 1.387 . S
C636 H640 0.950 . S
C636 C645 1.390 . S
C637 C636 1.387 . S
C637 C639 1.387 . S
H638 C645 0.950 . S
C639 C637 1.387 . S
C639 C641 1.390 . S
C639 H643 0.950 . S
H640 C636 0.950 . S
C641 C639 1.390 . S
C641 C642 1.387 . S
C641 H644 0.950 . S
C642 C641 1.387 . S
C642 C645 1.387 . S
H643 C639 0.950 . S
H644 C641 0.950 . S
C645 C636 1.390 . S
C645 H638 0.950 . S
C645 C642 1.387 . S
C646 C647 1.387 . S
C646 H650 0.950 . S
C646 C655 1.390 . S
C647 C646 1.387 . S
C647 C649 1.387 . S
H648 C655 0.950 . S
C649 C647 1.387 . S
C649 C651 1.390 . S
C649 H653 0.950 . S
H650 C646 0.950 . S
C651 C649 1.390 . S
C651 C652 1.387 . S
C651 H654 0.950 . S
C652 C651 1.387 . S
C652 C655 1.387 . S
H653 C649 0.950 . S
H654 C651 0.950 . S
C655 C646 1.390 . S
C655 H648 0.950 . S
C655 C652 1.387 . S
C656 C657 1.387 . S
C656 H660 0.950 . S
C656 C665 1.390 . S
C657 C656 1.387 . S
C657 C659 1.387 . S
H658 C665 0.950 . S
C659 C657 1.387 . S
C659 C661 1.390 . S
C659 H663 0.950 . S
H660 C656 0.950 . S
C661 C659 1.390 . S
C661 C662 1.387 . S
C661 H664 0.950 . S
C662 C661 1.387 . S
C662 C665 1.387 . S
H663 C659 0.950 . S
H664 C661 0.950 . S
C665 C656 1.390 . S
C665 H658 0.950 . S
C665 C662 1.387 . S
C666 C667 1.387 . S
C666 H670 0.950 . S
C666 C675 1.390 . S
C667 C666 1.387 . S
C667 C669 1.387 . S
H668 C675 0.950 . S
C669 C667 1.387 . S
C669 C671 1.390 . S
C669 H673 0.950 . S
H670 C666 0.950 . S
C671 C669 1.390 . S
C671 C672 1.387 . S
C671 H674 0.950 . S
C672 C671 1.387 . S
C672 C675 1.387 . S
H673 C669 0.950 . S
H674 C671 0.950 . S
C675 C666 1.390 . S
C675 H668 0.950 . S
C675 C672 1.387 . S
C676 C677 1.387 . S
C676 H680 0.950 . S
C676 C685 1.390 . S
C677 C676 1.387 . S
C677 C679 1.387 . S
H678 C685 0.950 . S
C679 C677 1.387 . S
C679 C681 1.390 . S
C679 H683 0.950 . S
H680 C676 0.950 . S
C681 C679 1.390 . S
C681 C682 1.387 . S
C681 H684 0.950 . S
C682 C681 1.387 . S
C682 C685 1.387 . S
H683 C679 0.950 . S
H684 C681 0.950 . S
C685 C676 1.390 . S
C685 H678 0.950 . S
C685 C682 1.387 . S
C686 C687 1.387 . S
C686 H690 0.950 . S
C686 C695 1.390 . S
C687 C686 1.387 . S
C687 C689 1.387 . S
H688 C695 0.950 . S
C689 C687 1.387 . S
C689 C691 1.390 . S
C689 H693 0.950 . S
H690 C686 0.950 . S
C691 C689 1.390 . S
C691 C692 1.387 . S
C691 H694 0.950 . S
C692 C691 1.387 . S
C692 C695 1.387 . S
H693 C689 0.950 . S
H694 C691 0.950 . S
C695 C686 1.390 . S
C695 H688 0.950 . S
C695 C692 1.387 . S
C696 C697 1.387 . S
C696 H700 0.950 . S
C696 C705 1.390 . S
C697 C696 1.387 . S
C697 C699 1.387 . S
H698 C705 0.950 . S
C699 C697 1.387 . S
C699 C701 1.390 . S
C699 H703 0.950 . S
H700 C696 0.950 . S
C701 C699 1.390 . S
C701 C702 1.387 . S
C701 H704 0.950 . S
C702 C701 1.387 . S
C702 C705 1.387 . S
H703 C699 0.950 . S
H704 C701 0.950 . S
C705 C696 1.390 . S
C705 H698 0.950 . S
C705 C702 1.387 . S
C706 C707 1.387 . S
C706 H710 0.950 . S
C706 C715 1.390 . S
C707 C706 1.387 . S
C707 C709 1.387 . S
H708 C715 0.950 . S
C709 C707 1.387 . S
C709 C711 1.390 . S
C709 H713 0.950 . S
H710 C706 0.950 . S
C711 C709 1.390 . S
C711 C712 1.387 . S
C711 H714 0.950 . S
C712 C711 1.387 . S
C712 C715 1.387 . S
H713 C709 0.950 . S
H714 C711 0.950 . S
C715 C706 1.390 . S
C715 H708 0.950 . S
C715 C712 1.387 . S
C716 C717 1.387 . S
C716 H720 0.950 . S
C716 C725 1.390 . S
C717 C716 1.387 . S
C717 C719 1.387 . S
H718 C725 0.950 . S
C719 C717 1.387 . S
C719 C721 1.390 . S
C719 H723 0.950 . S
H720 C716 0.950 . S
C721 C719 1.390 . S
C721 C722 1.387 . S
C721 H724 0.950 . S
C722 C721 1.387 . S
C722 C725 1.387 . S
H723 C719 0.950 . S
H724 C721 0.950 . S
C725 C716 1.390 . S
C725 H718 0.950 . S
C725 C722 1.387 . S
C726 C727 1.387 . S
C726 H730 0.950 . S
C726 C735 1.390 . S
C727 C726 1.387 . S
C727 C729 1.387 . S
H728 C735 0.950 . S
C729 C727 1.387 . S
C729 C731 1.390 . S
C729 H733 0.950 . S
H730 C726 0.950 . S
C731 C729 1.390 . S
C731 C732 1.387 . S
C731 H734 0.950 . S
C732 C731 1.387 . S
C732 C735 1.387 . S
H733 C729 0.950 . S
H734 C731 0.950 . S
C735 C726 1.390 . S
C735 H728 0.950 . S
C735 C732 1.387 . S
C736 C737 1.387 . S
C736 H740 0.950 . S
C736 C745 1.390 . S
C737 C736 1.387 . S
C737 C739 1.387 . S
H738 C745 0.950 . S
C739 C737 1.387 . S
C739 C741 1.390 . S
C739 H743 0.950 . S
H740 C736 0.950 . S
C741 C739 1.390 . S
C741 C742 1.387 . S
C741 H744 0.950 . S
C742 C741 1.387 . S
C742 C745 1.387 . S
H743 C739 0.950 . S
H744 C741 0.950 . S
C745 C736 1.390 . S
C745 H738 0.950 . S
C745 C742 1.387 . S
C746 C747 1.387 . S
C746 H750 0.950 . S
C746 C755 1.390 . S
C747 C746 1.387 . S
C747 C749 1.387 . S
H748 C755 0.950 . S
C749 C747 1.387 . S
C749 C751 1.390 . S
C749 H753 0.950 . S
H750 C746 0.950 . S
C751 C749 1.390 . S
C751 C752 1.387 . S
C751 H754 0.950 . S
C752 C751 1.387 . S
C752 C755 1.387 . S
H753 C749 0.950 . S
H754 C751 0.950 . S
C755 C746 1.390 . S
C755 H748 0.950 . S
C755 C752 1.387 . S
C756 C757 1.387 . S
C756 H760 0.950 . S
C756 C765 1.390 . S
C757 C756 1.387 . S
C757 C759 1.387 . S
H758 C765 0.950 . S
C759 C757 1.387 . S
C759 C761 1.390 . S
C759 H763 0.950 . S
H760 C756 0.950 . S
C761 C759 1.390 . S
C761 C762 1.387 . S
C761 H764 0.950 . S
C762 C761 1.387 . S
C762 C765 1.387 . S
H763 C759 0.950 . S
H764 C761 0.950 . S
C765 C756 1.390 . S
C765 H758 0.950 . S
C765 C762 1.387 . S
C766 C767 1.387 . S
C766 H770 0.950 . S
C766 C775 1.390 . S
C767 C766 1.387 . S
C767 C769 1.387 . S
H768 C775 0.950 . S
C769 C767 1.387 . S
C769 C771 1.390 . S
C769 H773 0.950 . S
H770 C766 0.950 . S
C771 C769 1.390 . S
C771 C772 1.387 . S
C771 H774 0.950 . S
C772 C771 1.387 . S
C772 C775 1.387 . S
H773 C769 0.950 . S
H774 C771 0.950 . S
C775 C766 1.390 . S
C775 H768 0.950 . S
C775 C772 1.387 . S
C776 C777 1.387 . S
C776 H780 0.950 . S
C776 C785 1.390 . S
C777 C776 1.387 . S
C777 C779 1.387 . S
H778 C785 0.950 . S
C779 C777 1.387 . S
C779 C781 1.390 . S
C779 H783 0.950 . S
H780 C776 0.950 . S
C781 C779 1.390 . S
C781 C782 1.387 . S
C781 H784 0.950 . S
C782 C781 1.387 . S
C782 C785 1.387 . S
H783 C779 0.950 . S
H784 C781 0.950 . S
C785 C776 1.390 . S
C785 H778 0.950 . S
C785 C782 1.387 . S
C786 C787 1.387 1_554 S
C786 H790 0.950 . S
C786 C795 1.390 . S
C787 C786 1.387 1_556 S
C787 C789 1.387 . S
H788 C795 0.950 . S
C789 C787 1.387 . S
C789 C791 1.390 . S
C789 H793 0.950 . S
H790 C786 0.950 . S
C791 C789 1.390 . S
C791 C792 1.387 . S
C791 H794 0.950 . S
C792 C791 1.387 . S
C792 C795 1.387 1_556 S
H793 C789 0.950 . S
H794 C791 0.950 . S
C795 C786 1.390 . S
C795 H788 0.950 . S
C795 C792 1.387 1_554 S
C796 C797 1.387 . S
C796 H800 0.950 . S
C796 C805 1.390 . S
C797 C796 1.387 . S
C797 C799 1.387 . S
H798 C805 0.950 . S
C799 C797 1.387 . S
C799 C801 1.390 . S
C799 H803 0.950 . S
H800 C796 0.950 . S
C801 C799 1.390 . S
C801 C802 1.387 . S
C801 H804 0.950 . S
C802 C801 1.387 . S
C802 C805 1.387 . S
H803 C799 0.950 . S
H804 C801 0.950 . S
C805 C796 1.390 . S
C805 H798 0.950 . S
C805 C802 1.387 . S
C806 C807 1.387 . S
C806 H810 0.950 . S
C806 C815 1.390 . S
C807 C806 1.387 . S
C807 C809 1.387 . S
H808 C815 0.950 . S
C809 C807 1.387 . S
C809 C811 1.390 . S
C809 H813 0.950 . S
H810 C806 0.950 . S
C811 C809 1.390 . S
C811 C812 1.387 . S
C811 H814 0.950 . S
C812 C811 1.387 . S
C812 C815 1.387 . S
H813 C809 0.950 . S
H814 C811 0.950 . S
C815 C806 1.390 . S
C815 H808 0.950 . S
C815 C812 1.387 . S
C816 C817 1.387 . S
C816 H820 0.950 . S
C816 C825 1.390 . S
C817 C816 1.387 . S
C817 C819 1.387 . S
H818 C825 0.950 . S
C819 C817 1.387 . S
C819 C821 1.390 . S
C819 H823 0.950 . S
H820 C816 0.950 . S
C821 C819 1.390 . S
C821 C822 1.387 . S
C821 H824 0.950 . S
C822 C821 1.387 . S
C822 C825 1.387 . S
H823 C819 0.950 . S
H824 C821 0.950 . S
C825 C816 1.390 . S
C825 H818 0.950 . S
C825 C822 1.387 . S
C826 C827 1.387 . S
C826 H830 0.950 . S
C826 C835 1.390 . S
C827 C826 1.387 . S
C827 C829 1.387 . S
H828 C835 0.950 . S
C829 C827 1.387 . S
C829 C831 1.390 . S
C829 H833 0.950 . S
H830 C826 0.950 . S
C831 C829 1.390 . S
C831 C832 1.387 . S
C831 H834 0.950 . S
C832 C831 1.387 . S
C832 C835 1.387 . S
H833 C829 0.950 . S
H834 C831 0.950 . S
C835 C826 1.390 . S
C835 H828 0.950 . S
C835 C832 1.387 . S
C836 C837 1.387 . S
C836 H840 0.950 . S
C836 C845 1.390 . S
C837 C836 1.387 . S
C837 C839 1.387 . S
H838 C845 0.950 . S
C839 C837 1.387 . S
C839 C841 1.390 . S
C839 H843 0.950 . S
H840 C836 0.950 . S
C841 C839 1.390 . S
C841 C842 1.387 . S
C841 H844 0.950 . S
C842 C841 1.387 . S
C842 C845 1.387 . S
H843 C839 0.950 . S
H844 C841 0.950 . S
C845 C836 1.390 . S
C845 H838 0.950 . S
C845 C842 1.387 . S
C846 C847 1.387 . S
C846 H850 0.950 . S
C846 C855 1.390 . S
C847 C846 1.387 . S
C847 C849 1.387 . S
H848 C855 0.950 . S
C849 C847 1.387 . S
C849 C851 1.390 . S
C849 H853 0.950 . S
H850 C846 0.950 . S
C851 C849 1.390 . S
C851 C852 1.387 . S
C851 H854 0.950 . S
C852 C851 1.387 . S
C852 C855 1.387 . S
H853 C849 0.950 . S
H854 C851 0.950 . S
C855 C846 1.390 . S
C855 H848 0.950 . S
C855 C852 1.387 . S
C856 C857 1.387 . S
C856 H860 0.950 . S
C856 C865 1.390 . S
C857 C856 1.387 . S
C857 C859 1.387 . S
H858 C865 0.950 . S
C859 C857 1.387 . S
C859 C861 1.390 . S
C859 H863 0.950 . S
H860 C856 0.950 . S
C861 C859 1.390 . S
C861 C862 1.387 . S
C861 H864 0.950 . S
C862 C861 1.387 . S
C862 C865 1.387 . S
H863 C859 0.950 . S
H864 C861 0.950 . S
C865 C856 1.390 . S
C865 H858 0.950 . S
C865 C862 1.387 . S
C866 C867 1.387 . S
C866 H870 0.950 . S
C866 C875 1.390 . S
C867 C866 1.387 . S
C867 C869 1.387 . S
H868 C875 0.950 . S
C869 C867 1.387 . S
C869 C871 1.390 . S
C869 H873 0.950 . S
H870 C866 0.950 . S
C871 C869 1.390 . S
C871 C872 1.387 . S
C871 H874 0.950 . S
C872 C871 1.387 . S
C872 C875 1.387 . S
H873 C869 0.950 . S
H874 C871 0.950 . S
C875 C866 1.390 . S
C875 H868 0.950 . S
C875 C872 1.387 . S
C876 C877 1.387 . S
C876 H880 0.950 . S
C876 C885 1.390 . S
C877 C876 1.387 . S
C877 C879 1.387 . S
H878 C885 0.950 . S
C879 C877 1.387 . S
C879 C881 1.390 . S
C879 H883 0.950 . S
H880 C876 0.950 . S
C881 C879 1.390 . S
C881 C882 1.387 . S
C881 H884 0.950 . S
C882 C881 1.387 . S
C882 C885 1.387 . S
H883 C879 0.950 . S
H884 C881 0.950 . S
C885 C876 1.390 . S
C885 H878 0.950 . S
C885 C882 1.387 . S
C886 C887 1.387 . S
C886 H890 0.950 . S
C886 C895 1.390 . S
C887 C886 1.387 . S
C887 C889 1.387 . S
H888 C895 0.950 . S
C889 C887 1.387 . S
C889 C891 1.390 . S
C889 H893 0.950 . S
H890 C886 0.950 . S
C891 C889 1.390 . S
C891 C892 1.387 . S
C891 H894 0.950 . S
C892 C891 1.387 . S
C892 C895 1.387 . S
H893 C889 0.950 . S
H894 C891 0.950 . S
C895 C886 1.390 . S
C895 H888 0.950 . S
C895 C892 1.387 . S
C896 C897 1.387 . S
C896 H900 0.950 . S
C896 C905 1.390 . S
C897 C896 1.387 . S
C897 C899 1.387 . S
H898 C905 0.950 . S
C899 C897 1.387 . S
C899 C901 1.390 . S
C899 H903 0.950 . S
H900 C896 0.950 . S
C901 C899 1.390 . S
C901 C902 1.387 . S
C901 H904 0.950 . S
C902 C901 1.387 . S
C902 C905 1.387 . S
H903 C899 0.950 . S
H904 C901 0.950 . S
C905 C896 1.390 . S
C905 H898 0.950 . S
C905 C902 1.387 . S
C906 C907 1.387 . S
C906 H910 0.950 . S
C906 C915 1.390 . S
C907 C906 1.387 . S
C907 C909 1.387 . S
H908 C915 0.950 . S
C909 C907 1.387 . S
C909 C911 1.390 . S
C909 H913 0.950 . S
H910 C906 0.950 . S
C911 C909 1.390 . S
C911 C912 1.387 . S
C911 H914 0.950 . S
C912 C911 1.387 . S
C912 C915 1.387 . S
H913 C909 0.950 . S
H914 C911 0.950 . S
C915 C906 1.390 . S
C915 H908 0.950 . S
C915 C912 1.387 . S
C916 C917 1.387 . S
C916 H920 0.950 . S
C916 C925 1.390 . S
C917 C916 1.387 . S
C917 C919 1.387 . S
H918 C925 0.950 . S
C919 C917 1.387 . S
C919 C921 1.390 . S
C919 H923 0.950 . S
H920 C916 0.950 . S
C921 C919 1.390 . S
C921 C922 1.387 . S
C921 H924 0.950 . S
C922 C921 1.387 . S
C922 C925 1.387 . S
H923 C919 0.950 . S
H924 C921 0.950 . S
C925 C916 1.390 . S
C925 H918 0.950 . S
C925 C922 1.387 . S
C926 C927 1.387 . S
C926 H930 0.950 . S
C926 C935 1.390 . S
C927 C926 1.387 . S
C927 C929 1.387 . S
H928 C935 0.950 . S
C929 C927 1.387 . S
C929 C931 1.390 . S
C929 H933 0.950 . S
H930 C926 0.950 . S
C931 C929 1.390 . S
C931 C932 1.387 . S
C931 H934 0.950 . S
C932 C931 1.387 . S
C932 C935 1.387 . S
H933 C929 0.950 . S
H934 C931 0.950 . S
C935 C926 1.390 . S
C935 H928 0.950 . S
C935 C932 1.387 . S
C936 C937 1.387 . S
C936 H940 0.950 . S
C936 C945 1.390 . S
C937 C936 1.387 . S
C937 C939 1.387 . S
H938 C945 0.950 . S
C939 C937 1.387 . S
C939 C941 1.390 . S
C939 H943 0.950 . S
H940 C936 0.950 . S
C941 C939 1.390 . S
C941 C942 1.387 . S
C941 H944 0.950 . S
C942 C941 1.387 . S
C942 C945 1.387 . S
H943 C939 0.950 . S
H944 C941 0.950 . S
C945 C936 1.390 . S
C945 H938 0.950 . S
C945 C942 1.387 . S
C946 C947 1.387 . S
C946 H950 0.950 . S
C946 C955 1.390 . S
C947 C946 1.387 . S
C947 C949 1.387 . S
H948 C955 0.950 . S
C949 C947 1.387 . S
C949 C951 1.390 . S
C949 H953 0.950 . S
H950 C946 0.950 . S
C951 C949 1.390 . S
C951 C952 1.387 . S
C951 H954 0.950 . S
C952 C951 1.387 . S
C952 C955 1.387 . S
H953 C949 0.950 . S
H954 C951 0.950 . S
C955 C946 1.390 . S
C955 H948 0.950 . S
C955 C952 1.387 . S
C956 C957 1.387 . S
C956 H960 0.950 . S
C956 C965 1.390 . S
C957 C956 1.387 . S
C957 C959 1.387 . S
H958 C965 0.950 . S
C959 C957 1.387 . S
C959 C961 1.390 . S
C959 H963 0.950 . S
H960 C956 0.950 . S
C961 C959 1.390 . S
C961 C962 1.387 . S
C961 H964 0.950 . S
C962 C961 1.387 . S
C962 C965 1.387 . S
H963 C959 0.950 . S
H964 C961 0.950 . S
C965 C956 1.390 . S
C965 H958 0.950 . S
C965 C962 1.387 . S
C966 C967 1.387 . S
C966 H970 0.950 . S
C966 C975 1.390 . S
C967 C966 1.387 . S
C967 C969 1.387 . S
H968 C975 0.950 . S
C969 C967 1.387 . S
C969 C971 1.390 . S
C969 H973 0.950 . S
H970 C966 0.950 . S
C971 C969 1.390 . S
C971 C972 1.387 . S
C971 H974 0.950 . S
C972 C971 1.387 . S
C972 C975 1.387 . S
H973 C969 0.950 . S
H974 C971 0.950 . S
C975 C966 1.390 . S
C975 H968 0.950 . S
C975 C972 1.387 . S
C976 C977 1.387 . S
C976 H980 0.950 . S
C976 C985 1.390 . S
C977 C976 1.387 . S
C977 C979 1.387 . S
H978 C985 0.950 . S
C979 C977 1.387 . S
C979 C981 1.390 . S
C979 H983 0.950 . S
H980 C976 0.950 . S
C981 C979 1.390 . S
C981 C982 1.387 . S
C981 H984 0.950 . S
C982 C981 1.387 . S
C982 C985 1.387 . S
H983 C979 0.950 . S
H984 C981 0.950 . S
C985 C976 1.390 . S
C985 H978 0.950 . S
C985 C982 1.387 . S
C986 C987 1.387 . S
C986 H990 0.950 . S
C986 C995 1.390 . S
C987 C986 1.387 . S
C987 C989 1.387 . S
H988 C995 0.950 . S
C989 C987 1.387 . S
C989 C991 1.390 . S
C989 H993 0.950 . S
H990 C986 0.950 . S
C991 C989 1.390 . S
C991 C992 1.387 . S
C991 H994 0.950 . S
C992 C991 1.387 . S
C992 C995 1.387 . S
H993 C989 0.950 . S
H994 C991 0.950 . S
C995 C986 1.390 . S
C995 H988 0.950 . S
C995 C992 1.387 . S
C996 C997 1.387 . S
C996 H1000 0.950 . S
C996 C1005 1.390 . S
C997 C996 1.387 . S
C997 C999 1.387 . S
H998 C1005 0.950 . S
C999 C997 1.387 . S
C999 C1001 1.390 . S
C999 H1003 0.950 . S
H1000 C996 0.950 . S
C1001 C999 1.390 . S
C1001 C1002 1.387 . S
C1001 H1004 0.950 . S
C1002 C1001 1.387 . S
C1002 C1005 1.387 . S
H1003 C999 0.950 . S
H1004 C1001 0.950 . S
C1005 C996 1.390 . S
C1005 H998 0.950 . S
C1005 C1002 1.387 . S
C1006 C1007 1.387 . S
C1006 H1010 0.950 . S
C1006 C1015 1.390 . S
C1007 C1006 1.387 . S
C1007 C1009 1.387 . S
H1008 C1015 0.950 . S
C1009 C1007 1.387 . S
C1009 C1011 1.390 . S
C1009 H1013 0.950 . S
H1010 C1006 0.950 . S
C1011 C1009 1.390 . S
C1011 C1012 1.387 . S
C1011 H1014 0.950 . S
C1012 C1011 1.387 . S
C1012 C1015 1.387 . S
H1013 C1009 0.950 . S
H1014 C1011 0.950 . S
C1015 C1006 1.390 . S
C1015 H1008 0.950 . S
C1015 C1012 1.387 . S
C1016 C1017 1.387 . S
C1016 H1020 0.950 . S
C1016 C1025 1.390 . S
C1017 C1016 1.387 . S
C1017 C1019 1.387 . S
H1018 C1025 0.950 . S
C1019 C1017 1.387 . S
C1019 C1021 1.390 . S
C1019 H1023 0.950 . S
H1020 C1016 0.950 . S
C1021 C1019 1.390 . S
C1021 C1022 1.387 . S
C1021 H1024 0.950 . S
C1022 C1021 1.387 . S
C1022 C1025 1.387 . S
H1023 C1019 0.950 . S
H1024 C1021 0.950 . S
C1025 C1016 1.390 . S
C1025 H1018 0.950 . S
C1025 C1022 1.387 . S
C1026 C1027 1.387 . S
C1026 H1030 0.950 . S
C1026 C1035 1.390 . S
C1027 C1026 1.387 . S
C1027 C1029 1.387 . S
H1028 C1035 0.950 . S
C1029 C1027 1.387 . S
C1029 C1031 1.390 . S
C1029 H1033 0.950 . S
H1030 C1026 0.950 . S
C1031 C1029 1.390 . S
C1031 C1032 1.387 . S
C1031 H1034 0.950 . S
C1032 C1031 1.387 . S
C1032 C1035 1.387 . S
H1033 C1029 0.950 . S
H1034 C1031 0.950 . S
C1035 C1026 1.390 . S
C1035 H1028 0.950 . S
C1035 C1032 1.387 . S
C1036 C1037 1.387 . S
C1036 H1040 0.950 . S
C1036 C1045 1.390 . S
C1037 C1036 1.387 . S
C1037 C1039 1.387 . S
H1038 C1045 0.950 . S
C1039 C1037 1.387 . S
C1039 C1041 1.390 . S
C1039 H1043 0.950 . S
H1040 C1036 0.950 . S
C1041 C1039 1.390 . S
C1041 C1042 1.387 . S
C1041 H1044 0.950 . S
C1042 C1041 1.387 . S
C1042 C1045 1.387 . S
H1043 C1039 0.950 . S
H1044 C1041 0.950 . S
C1045 C1036 1.390 . S
C1045 H1038 0.950 . S
C1045 C1042 1.387 . S
C1046 C1047 1.387 . S
C1046 H1050 0.950 . S
C1046 C1055 1.390 . S
C1047 C1046 1.387 . S
C1047 C1049 1.387 . S
H1048 C1055 0.950 . S
C1049 C1047 1.387 . S
C1049 C1051 1.390 . S
C1049 H1053 0.950 . S
H1050 C1046 0.950 . S
C1051 C1049 1.390 . S
C1051 C1052 1.387 . S
C1051 H1054 0.950 . S
C1052 C1051 1.387 . S
C1052 C1055 1.387 . S
H1053 C1049 0.950 . S
H1054 C1051 0.950 . S
C1055 C1046 1.390 . S
C1055 H1048 0.950 . S
C1055 C1052 1.387 . S
C417 C91 1.708 1_455 S
C422 C0 1.672 1_565 S
C427 C13 1.728 . S
C432 C52 1.771 1_655 S
C437 C65 1.484 . S
C442 C26 1.455 . S
C447 C78 1.453 . S
C452 C39 1.550 1_545 S
C457 C104 1.673 1_565 S
C462 C286 1.708 . S
C467 C117 1.726 . S
C472 C247 1.770 1_655 S
C477 C377 1.484 . S
C482 C130 1.455 . S
C487 C351 1.450 . S
C492 C143 1.548 . S
C497 C156 1.771 . S
C502 C403 1.727 . S
C507 C169 1.482 . S
C512 C338 1.458 . S
C517 C182 1.449 . S
C522 C273 1.548 1_545 S
C527 C195 1.709 1_455 S
C532 C208 1.682 . S
C537 C221 1.710 . S
C542 C325 1.680 . S
C547 C234 1.455 . S
C552 C260 1.484 . S
C557 C390 1.549 . S
C562 C299 1.453 . S
C567 C364 1.771 . S
C572 C312 1.727 . S
C577 C140 0.881 . S
C582 C10 0.862 . S
C587 C148 1.018 . S
C592 C18 1.158 . S
C597 C114 0.863 . S
C602 C36 0.876 . S
C607 C122 1.157 . S
C612 C44 1.021 . S
C617 C190 1.100 . S
C622 C62 1.027 . S
C627 C75 0.952 1_554 S
C632 C205 0.894 . S
C637 C86 1.095 . S
C642 C166 1.033 . S
C647 C101 0.894 . S
C652 C179 0.951 . S
C657 C164 0.851 . S
C662 C112 1.026 . S
C667 C127 0.983 . S
C672 C177 1.373 . S
C677 C187 0.814 . S
C682 C138 1.074 . S
C687 C153 0.926 . S
C692 C203 1.121 . S
C697 C309 1.252 . S
C702 C213 0.970 . S
C707 C31 0.995 . S
C712 C161 1.327 . S
C717 C47 0.941 . S
C722 C174 0.818 . S
C727 C5 0.970 . S
C732 C192 1.252 . S
C737 C226 0.883 . S
C742 C411 0.988 . S
C747 C252 1.326 . S
C752 C239 0.993 . S
C757 C21 0.992 . S
C762 C200 0.874 . S
C767 C307 1.100 . S
C772 C257 1.027 . S
C777 C270 0.956 1_554 S
C782 C296 0.885 . S
C787 C218 0.865 . S
C792 C244 0.878 . S
C797 C278 1.021 . S
C802 C317 1.157 . S
C807 C320 0.990 . S
C812 C291 0.881 . S
C817 C135 0.991 . S
C822 C57 1.327 . S
C827 C268 1.372 . S
C832 C322 0.980 . S
C837 C99 1.118 . S
C842 C49 0.931 . S
C847 C372 0.851 . S
C852 C333 1.026 . S
C857 C73 1.374 . S
C862 C23 0.974 . S
C867 C216 1.026 . S
C872 C255 0.851 . S
C877 C335 0.867 . S
C882 C348 0.877 . S
C887 C359 1.097 . S
C892 C374 1.031 . S
C897 C304 0.814 . S
C902 C242 1.074 . S
C907 C343 0.991 . S
C912 C369 1.327 . S
C917 C151 0.939 . S
C922 C70 0.827 . S
C927 C96 0.874 . S
C932 C125 0.990 . S
C937 C231 0.885 . S
C942 C387 0.956 . S
C947 C395 1.023 . S
C952 C408 1.155 . S
C957 C413 0.979 . S
C962 C385 1.373 . S
C967 C60 0.850 . S
C972 C8 1.026 . S
C977 C34 1.074 . S
C982 C83 0.815 . S
C987 C400 0.928 . S
C992 C229 1.123 . S
C997 C330 0.970 . S
C1002 C361 1.253 . S
C1007 C265 0.828 . S
C1012 C281 0.939 . S
C1017 C88 1.253 . S
C1022 C109 0.978 . S
C1027 C294 1.121 . S
C1032 C283 0.926 . S
C1037 C346 1.074 . S
C1042 C356 0.813 . S
C1047 C398 0.940 . S
C1052 C382 0.818 . S
