# Generated by pormake.
# Topology umc, (4)-cn, num edge types: 1
# Building blocks:
#     Node 0, Type 0, BuildingBlock: ICAMEG_clean_sbu_1, # of connection points: 4
#     Node 1, Type 0, BuildingBlock: ICAMEG_clean_sbu_1, # of connection points: 4
#     Node 2, Type 0, BuildingBlock: ICAMEG_clean_sbu_1, # of connection points: 4
#     Node 3, Type 0, BuildingBlock: ICAMEG_clean_sbu_1, # of connection points: 4
#     Node 4, Type 0, BuildingBlock: ICAMEG_clean_sbu_1, # of connection points: 4
#     Node 5, Type 0, BuildingBlock: ICAMEG_clean_sbu_1, # of connection points: 4
#     Node 6, Type 0, BuildingBlock: ICAMEG_clean_sbu_1, # of connection points: 4
#     Node 7, Type 0, BuildingBlock: ICAMEG_clean_sbu_1, # of connection points: 4
#     Node 8, Type 0, BuildingBlock: ICAMEG_clean_sbu_1, # of connection points: 4
#     Node 9, Type 0, BuildingBlock: ICAMEG_clean_sbu_1, # of connection points: 4
#     Node 10, Type 0, BuildingBlock: ICAMEG_clean_sbu_1, # of connection points: 4
#     Node 11, Type 0, BuildingBlock: ICAMEG_clean_sbu_1, # of connection points: 4
#     Node 12, Type 0, BuildingBlock: ICAMEG_clean_sbu_1, # of connection points: 4
#     Node 13, Type 0, BuildingBlock: ICAMEG_clean_sbu_1, # of connection points: 4
#     Node 14, Type 0, BuildingBlock: ICAMEG_clean_sbu_1, # of connection points: 4
#     Node 15, Type 0, BuildingBlock: ICAMEG_clean_sbu_1, # of connection points: 4
#     Edge 16, Type (0, 0), BuildingBlock: EZIPEK_clean_linker_0, # of connection points: 2
#     Edge 17, Type (0, 0), BuildingBlock: EZIPEK_clean_linker_0, # of connection points: 2
#     Edge 18, Type (0, 0), BuildingBlock: EZIPEK_clean_linker_0, # of connection points: 2
#     Edge 19, Type (0, 0), BuildingBlock: EZIPEK_clean_linker_0, # of connection points: 2
#     Edge 20, Type (0, 0), BuildingBlock: EZIPEK_clean_linker_0, # of connection points: 2
#     Edge 21, Type (0, 0), BuildingBlock: EZIPEK_clean_linker_0, # of connection points: 2
#     Edge 22, Type (0, 0), BuildingBlock: EZIPEK_clean_linker_0, # of connection points: 2
#     Edge 23, Type (0, 0), BuildingBlock: EZIPEK_clean_linker_0, # of connection points: 2
#     Edge 24, Type (0, 0), BuildingBlock: EZIPEK_clean_linker_0, # of connection points: 2
#     Edge 25, Type (0, 0), BuildingBlock: EZIPEK_clean_linker_0, # of connection points: 2
#     Edge 26, Type (0, 0), BuildingBlock: EZIPEK_clean_linker_0, # of connection points: 2
#     Edge 27, Type (0, 0), BuildingBlock: EZIPEK_clean_linker_0, # of connection points: 2
#     Edge 28, Type (0, 0), BuildingBlock: EZIPEK_clean_linker_0, # of connection points: 2
#     Edge 29, Type (0, 0), BuildingBlock: EZIPEK_clean_linker_0, # of connection points: 2
#     Edge 30, Type (0, 0), BuildingBlock: EZIPEK_clean_linker_0, # of connection points: 2
#     Edge 31, Type (0, 0), BuildingBlock: EZIPEK_clean_linker_0, # of connection points: 2
#     Edge 32, Type (0, 0), BuildingBlock: EZIPEK_clean_linker_0, # of connection points: 2
#     Edge 33, Type (0, 0), BuildingBlock: EZIPEK_clean_linker_0, # of connection points: 2
#     Edge 34, Type (0, 0), BuildingBlock: EZIPEK_clean_linker_0, # of connection points: 2
#     Edge 35, Type (0, 0), BuildingBlock: EZIPEK_clean_linker_0, # of connection points: 2
#     Edge 36, Type (0, 0), BuildingBlock: EZIPEK_clean_linker_0, # of connection points: 2
#     Edge 37, Type (0, 0), BuildingBlock: EZIPEK_clean_linker_0, # of connection points: 2
#     Edge 38, Type (0, 0), BuildingBlock: EZIPEK_clean_linker_0, # of connection points: 2
#     Edge 39, Type (0, 0), BuildingBlock: EZIPEK_clean_linker_0, # of connection points: 2
#     Edge 40, Type (0, 0), BuildingBlock: EZIPEK_clean_linker_0, # of connection points: 2
#     Edge 41, Type (0, 0), BuildingBlock: EZIPEK_clean_linker_0, # of connection points: 2
#     Edge 42, Type (0, 0), BuildingBlock: EZIPEK_clean_linker_0, # of connection points: 2
#     Edge 43, Type (0, 0), BuildingBlock: EZIPEK_clean_linker_0, # of connection points: 2
#     Edge 44, Type (0, 0), BuildingBlock: EZIPEK_clean_linker_0, # of connection points: 2
#     Edge 45, Type (0, 0), BuildingBlock: EZIPEK_clean_linker_0, # of connection points: 2
#     Edge 46, Type (0, 0), BuildingBlock: EZIPEK_clean_linker_0, # of connection points: 2
#     Edge 47, Type (0, 0), BuildingBlock: EZIPEK_clean_linker_0, # of connection points: 2
# Relax obj value: 0.055
# Max RMSD: 0.126
# Mean RMSD: 0.126
data_MOF--net-umc--node1-ICAMEG_clean_sbu_1--edge1-EZIPEK_clean_linker_0
_symmetry_space_group_name_H-M    P1
_symmetry_Int_Tables_number       1
_symmetry_cell_setting            triclinic
loop_
_symmetry_equiv_pos_as_xyz
'x, y, z'
_cell_length_a     37.263036
_cell_length_b     25.474738
_cell_length_c     45.367859
_cell_angle_alpha  90.017485
_cell_angle_beta   89.942413
_cell_angle_gamma 90.006352
loop_
_atom_site_label
_atom_site_type_symbol
_atom_site_fract_x
_atom_site_fract_y
_atom_site_fract_z
_atom_type_partial_charge
Co0 Co 0.35247 0.01711 0.37661 0.0
Co1 Co 0.38186 0.13044 0.34153 0.0
O2 O 0.35391 0.09354 0.37151 0.0
C3 C 0.36117 0.06452 0.43718 0.0
O4 O 0.37028 0.10902 0.42488 0.0
C5 C 0.30749 0.17008 0.33472 0.0
O6 O 0.29666 0.12121 0.33611 0.0
O7 O 0.36205 0.08361 0.31017 0.0
O8 O 0.35211 0.00618 0.33282 0.0
H9 H 0.45594 0.14633 0.24898 0.0
H10 H 0.29821 0.08494 0.40585 0.0
O11 O 0.35345 0.02477 0.42119 0.0
H12 H 0.22892 0.96398 0.3431 0.0
H13 H 0.30975 0.84996 0.42436 0.0
H14 H 0.39073 0.92608 0.34993 0.0
H15 H 0.29488 0.95783 0.34548 0.0
H16 H 0.31166 0.94559 0.41635 0.0
O17 O 0.34084 0.18108 0.33575 0.0
H18 H 0.42087 0.0997 0.28671 0.0
H19 H 0.39714 0.24346 0.32965 0.0
H20 H 0.3895 0.83028 0.35692 0.0
H21 H 0.23229 0.09242 0.40432 0.0
H22 H 0.34875 0.79151 0.39441 0.0
H23 H 0.19715 0.03157 0.37274 0.0
O24 O 0.40582 0.01362 0.37615 0.0
H25 H 0.37544 0.25605 0.42727 0.0
H26 H 0.45609 0.16074 0.35975 0.0
H27 H 0.48185 0.21632 0.3987 0.0
H28 H 0.44148 0.26467 0.4328 0.0
H29 H 0.35086 0.19885 0.38857 0.0
H30 H 0.43139 0.29203 0.29203 0.0
H31 H 0.46154 0.24338 0.25151 0.0
O32 O 0.42358 0.08094 0.34743 0.0
C33 C 0.3546 0.03467 0.30975 0.0
C34 C 0.44358 0.16792 0.26686 0.0
C35 C 0.42972 0.24966 0.29097 0.0
N36 N 0.40864 0.16824 0.31141 0.0
C37 C 0.42412 0.1415 0.28861 0.0
C38 C 0.41051 0.22185 0.31233 0.0
C39 C 0.44658 0.22237 0.26822 0.0
C40 C 0.2831 0.05804 0.39233 0.0
N41 N 0.30039 0.02054 0.37619 0.0
C42 C 0.24577 0.06255 0.39145 0.0
C43 C 0.22609 0.02848 0.37369 0.0
C44 C 0.2439 0.99055 0.35707 0.0
C45 C 0.28127 0.98725 0.35852 0.0
C46 C 0.32751 0.86633 0.40785 0.0
C47 C 0.37266 0.90963 0.36596 0.0
C48 C 0.32873 0.9205 0.40323 0.0
N49 N 0.3509 0.94152 0.38228 0.0
C50 C 0.3722 0.85528 0.36997 0.0
C51 C 0.34938 0.83356 0.39104 0.0
C52 C 0.43016 0.03947 0.36255 0.0
C53 C 0.39334 0.2351 0.4126 0.0
C54 C 0.43821 0.18069 0.3748 0.0
C55 C 0.45302 0.2126 0.39667 0.0
C56 C 0.43037 0.23983 0.41573 0.0
N57 N 0.4018 0.17567 0.37205 0.0
C58 C 0.37949 0.20282 0.39047 0.0
Co59 Co 0.6556 0.98505 0.37687 0.0
Co60 Co 0.6239 0.86391 0.35312 0.0
O61 O 0.65404 0.9085 0.37771 0.0
C62 C 0.63595 0.95579 0.43761 0.0
O63 O 0.61456 0.92085 0.42585 0.0
C64 C 0.69852 0.82836 0.34089 0.0
O65 O 0.70722 0.87752 0.33618 0.0
O66 O 0.6378 0.90417 0.31696 0.0
O67 O 0.65612 0.98433 0.33241 0.0
H68 H 0.52403 0.81839 0.28203 0.0
H69 H 0.70886 0.92436 0.41146 0.0
O70 O 0.6548 0.98584 0.42131 0.0
H71 H 0.78006 0.03214 0.34273 0.0
H72 H 0.69458 0.16139 0.41544 0.0
H73 H 0.62466 0.0697 0.33915 0.0
H74 H 0.71398 0.0379 0.3432 0.0
H75 H 0.69216 0.06479 0.41436 0.0
O76 O 0.6664 0.81576 0.34761 0.0
H77 H 0.55942 0.87687 0.3134 0.0
H78 H 0.62231 0.7483 0.34292 0.0
H79 H 0.62644 0.16619 0.33927 0.0
H80 H 0.77485 0.91718 0.4118 0.0
H81 H 0.6616 0.21284 0.37768 0.0
H82 H 0.81093 0.9713 0.37718 0.0
O83 O 0.6021 0.98989 0.37637 0.0
H84 H 0.64531 0.76786 0.44841 0.0
H85 H 0.55387 0.8286 0.37777 0.0
H86 H 0.53492 0.78116 0.42249 0.0
H87 H 0.58081 0.75043 0.45822 0.0
H88 H 0.66285 0.81606 0.40358 0.0
H89 H 0.58726 0.68825 0.31194 0.0
H90 H 0.53779 0.72307 0.28098 0.0
O91 O 0.58178 0.91243 0.35881 0.0
C92 C 0.64886 0.95103 0.31206 0.0
C93 C 0.54602 0.80286 0.29494 0.0
C94 C 0.58146 0.72988 0.31172 0.0
N95 N 0.59464 0.8172 0.32885 0.0
C96 C 0.56669 0.8362 0.31252 0.0
C97 C 0.60159 0.76442 0.329 0.0
C98 C 0.55366 0.74938 0.29442 0.0
C99 C 0.72437 0.94805 0.39641 0.0
N100 N 0.70759 0.98122 0.37723 0.0
C101 C 0.76174 0.94383 0.39668 0.0
C102 C 0.78196 0.97418 0.37724 0.0
C103 C 0.76466 0.00831 0.35791 0.0
C104 C 0.72724 0.01137 0.35825 0.0
C105 C 0.67899 0.14154 0.39869 0.0
C106 C 0.63974 0.08943 0.35601 0.0
C107 C 0.6773 0.08677 0.39806 0.0
N108 N 0.65775 0.06134 0.37693 0.0
C109 C 0.64079 0.14424 0.35594 0.0
C110 C 0.66052 0.17038 0.37749 0.0
C111 C 0.57686 0.9593 0.36813 0.0
C112 C 0.62505 0.7809 0.43298 0.0
C113 C 0.57403 0.81537 0.39318 0.0
C114 C 0.56312 0.78846 0.41847 0.0
C115 C 0.58887 0.77121 0.43849 0.0
N116 N 0.60957 0.82502 0.388 0.0
C117 C 0.63492 0.80798 0.40746 0.0
Co118 Co 0.34984 0.99082 0.12671 0.0
Co119 Co 0.38056 0.86748 0.1476 0.0
O120 O 0.35063 0.91435 0.12426 0.0
C121 C 0.36713 0.96774 0.06437 0.0
O122 O 0.38897 0.93159 0.07435 0.0
C123 C 0.30627 0.83158 0.1611 0.0
O124 O 0.29815 0.88011 0.16798 0.0
O125 O 0.36757 0.90563 0.1848 0.0
O126 O 0.35093 0.9874 0.17093 0.0
H127 H 0.48001 0.81602 0.21765 0.0
H128 H 0.29403 0.92522 0.09772 0.0
O129 O 0.34853 0.99507 0.0823 0.0
H130 H 0.2276 0.04451 0.16349 0.0
H131 H 0.31232 0.17098 0.09286 0.0
H132 H 0.38355 0.07193 0.16529 0.0
H133 H 0.29356 0.04824 0.16076 0.0
H134 H 0.31308 0.07435 0.0919 0.0
O135 O 0.3378 0.81963 0.15245 0.0
H136 H 0.44477 0.87703 0.18766 0.0
H137 H 0.38168 0.75112 0.15496 0.0
H138 H 0.38342 0.16838 0.16721 0.0
H139 H 0.22812 0.92009 0.09967 0.0
H140 H 0.34761 0.21874 0.13076 0.0
H141 H 0.19435 0.98014 0.13275 0.0
O142 O 0.40356 0.99388 0.12577 0.0
H143 H 0.3572 0.78292 0.0492 0.0
H144 H 0.44965 0.82963 0.12231 0.0
H145 H 0.46752 0.78506 0.07636 0.0
H146 H 0.42112 0.7614 0.03938 0.0
H147 H 0.34076 0.82794 0.09537 0.0
H148 H 0.41651 0.68856 0.18454 0.0
H149 H 0.46601 0.72077 0.21637 0.0
O150 O 0.423 0.91527 0.14246 0.0
C151 C 0.3575 0.95267 0.19058 0.0
C152 C 0.45805 0.80157 0.20431 0.0
C153 C 0.42245 0.7301 0.18574 0.0
N154 N 0.40962 0.81867 0.17064 0.0
C155 C 0.43751 0.83631 0.18751 0.0
C156 C 0.40247 0.76602 0.16926 0.0
C157 C 0.45026 0.74815 0.20352 0.0
C158 C 0.27959 0.9523 0.11159 0.0
N159 N 0.29771 0.98826 0.12821 0.0
C160 C 0.24222 0.94887 0.11285 0.0
C161 C 0.22331 0.98245 0.13147 0.0
C162 C 0.24194 0.01863 0.14868 0.0
C163 C 0.27933 0.02081 0.14685 0.0
C164 C 0.32823 0.1495 0.10875 0.0
C165 C 0.36819 0.09327 0.14925 0.0
C166 C 0.32901 0.09469 0.10819 0.0
N167 N 0.3489 0.06718 0.12827 0.0
C168 C 0.36808 0.14805 0.15048 0.0
C169 C 0.34798 0.17628 0.13004 0.0
C170 C 0.42848 0.96215 0.13343 0.0
C171 C 0.37766 0.79273 0.06521 0.0
C172 C 0.42925 0.81918 0.10645 0.0
C173 C 0.43956 0.794 0.08043 0.0
C174 C 0.41352 0.78075 0.05969 0.0
N175 N 0.39401 0.83084 0.11171 0.0
C176 C 0.36839 0.81791 0.09149 0.0
Co177 Co 0.65518 0.00557 0.12575 0.0
Co178 Co 0.62781 0.12381 0.15604 0.0
O179 O 0.65561 0.08217 0.12808 0.0
C180 C 0.6382 0.04227 0.06563 0.0
O181 O 0.61811 0.07852 0.07783 0.0
C182 C 0.70297 0.16051 0.16313 0.0
O183 O 0.71316 0.11129 0.1624 0.0
O184 O 0.64513 0.0794 0.18958 0.0
O185 O 0.65461 0.99928 0.16983 0.0
H186 H 0.55073 0.15529 0.24566 0.0
H187 H 0.71077 0.06451 0.09261 0.0
O188 O 0.65564 0.00997 0.08153 0.0
H189 H 0.77751 0.95317 0.1625 0.0
H190 H 0.69484 0.83257 0.08319 0.0
H191 H 0.61473 0.91886 0.1547 0.0
H192 H 0.71142 0.94969 0.16045 0.0
H193 H 0.69483 0.92888 0.08846 0.0
O194 O 0.66988 0.1726 0.16121 0.0
H195 H 0.58581 0.10212 0.21075 0.0
H196 H 0.61567 0.23877 0.16338 0.0
H197 H 0.61405 0.82252 0.15046 0.0
H198 H 0.77685 0.06884 0.09368 0.0
H199 H 0.65436 0.77864 0.11445 0.0
H200 H 0.81068 0.01301 0.12891 0.0
O201 O 0.60146 0.00439 0.12557 0.0
H202 H 0.64203 0.23044 0.06345 0.0
H203 H 0.55564 0.15978 0.13566 0.0
H204 H 0.53349 0.21087 0.0933 0.0
H205 H 0.5768 0.24672 0.05684 0.0
H206 H 0.66288 0.17841 0.10586 0.0
H207 H 0.58156 0.29386 0.19818 0.0
H208 H 0.54832 0.25209 0.23947 0.0
O209 O 0.58479 0.07653 0.15086 0.0
C210 C 0.65201 0.03039 0.19183 0.0
C211 C 0.56448 0.1739 0.22741 0.0
C212 C 0.58185 0.25164 0.20082 0.0
N213 N 0.60111 0.16671 0.18398 0.0
C214 C 0.58393 0.14374 0.20724 0.0
C215 C 0.60099 0.22016 0.18108 0.0
C216 C 0.56326 0.22821 0.224 0.0
C217 C 0.7253 0.03965 0.10774 0.0
N218 N 0.70725 0.00678 0.12636 0.0
C219 C 0.76272 0.04245 0.10836 0.0
C220 C 0.78167 0.01121 0.12817 0.0
C221 C 0.76308 0.97766 0.14704 0.0
C222 C 0.72564 0.97598 0.14585 0.0
C223 C 0.6773 0.85118 0.0991 0.0
C224 C 0.63265 0.90018 0.13936 0.0
C225 C 0.67718 0.90573 0.1022 0.0
N226 N 0.65526 0.92956 0.12236 0.0
C227 C 0.63202 0.84553 0.13688 0.0
C228 C 0.65459 0.82095 0.11663 0.0
C229 C 0.57747 0.03344 0.13751 0.0
C230 C 0.62288 0.21522 0.07924 0.0
C231 C 0.57469 0.17493 0.11981 0.0
C232 C 0.56197 0.20405 0.09593 0.0
C233 C 0.58629 0.22422 0.07551 0.0
N234 N 0.61065 0.16619 0.12332 0.0
C235 C 0.63461 0.186 0.10342 0.0
Co236 Co 0.65346 0.9964 0.62424 0.0
Co237 Co 0.62203 0.88354 0.65821 0.0
O238 O 0.65155 0.92009 0.62909 0.0
C239 C 0.63581 0.95723 0.56489 0.0
O240 O 0.61333 0.92479 0.57761 0.0
C241 C 0.69511 0.83475 0.66301 0.0
O242 O 0.70905 0.88116 0.65794 0.0
O243 O 0.64165 0.92916 0.69036 0.0
O244 O 0.6516 0.00723 0.66818 0.0
H245 H 0.54179 0.86961 0.74728 0.0
H246 H 0.70834 0.93222 0.59337 0.0
O247 O 0.65513 0.98793 0.58029 0.0
H248 H 0.77604 0.04281 0.66309 0.0
H249 H 0.70404 0.16182 0.57988 0.0
H250 H 0.60948 0.08881 0.6435 0.0
H251 H 0.71024 0.05027 0.65951 0.0
H252 H 0.70027 0.06661 0.58849 0.0
O253 O 0.66117 0.82984 0.66493 0.0
H254 H 0.57884 0.9155 0.7105 0.0
H255 H 0.6051 0.77081 0.66962 0.0
H256 H 0.61256 0.18411 0.63599 0.0
H257 H 0.77423 0.92437 0.59577 0.0
H258 H 0.66021 0.22148 0.60397 0.0
H259 H 0.8085 0.97968 0.63097 0.0
O260 O 0.59983 1.00067 0.62278 0.0
H261 H 0.62962 0.77454 0.56598 0.0
H262 H 0.54827 0.85053 0.64041 0.0
H263 H 0.52307 0.79897 0.59934 0.0
H264 H 0.56388 0.76031 0.56184 0.0
H265 H 0.65361 0.8271 0.60715 0.0
H266 H 0.56884 0.72299 0.70626 0.0
H267 H 0.53654 0.77247 0.74532 0.0
O268 O 0.58172 0.93451 0.65218 0.0
C269 C 0.64833 0.97851 0.69121 0.0
C270 C 0.55537 0.84762 0.73016 0.0
C271 C 0.57062 0.76537 0.7072 0.0
N272 N 0.59324 0.8463 0.68728 0.0
C273 C 0.57612 0.87358 0.70906 0.0
C274 C 0.59112 0.79271 0.68648 0.0
C275 C 0.55252 0.79313 0.7291 0.0
C276 C 0.7231 0.95704 0.6084 0.0
N277 N 0.70543 0.99178 0.6262 0.0
C278 C 0.7604 0.95215 0.60981 0.0
C279 C 0.7796 0.9831 0.62962 0.0
C280 C 0.7614 0.01847 0.64768 0.0
C281 C 0.7241 0.0223 0.64567 0.0
C282 C 0.6836 0.14617 0.59438 0.0
C283 C 0.63109 0.10451 0.63058 0.0
C284 C 0.68147 0.09221 0.59956 0.0
N285 N 0.65599 0.07201 0.61811 0.0
C286 C 0.63235 0.15868 0.62592 0.0
C287 C 0.65898 0.1796 0.60785 0.0
C288 C 0.57552 0.97577 0.63695 0.0
C289 C 0.61158 0.79078 0.58232 0.0
C290 C 0.56623 0.83376 0.62422 0.0
C291 C 0.55179 0.80459 0.60101 0.0
C292 C 0.57469 0.78292 0.57997 0.0
N293 N 0.60249 0.84082 0.62657 0.0
C294 C 0.62503 0.82026 0.6058 0.0
Co295 Co 0.3523 0.01682 0.62467 0.0
Co296 Co 0.37412 0.12866 0.66411 0.0
O297 O 0.34871 0.09239 0.6323 0.0
C298 C 0.35249 0.07028 0.56508 0.0
O299 O 0.34964 0.11656 0.57744 0.0
C300 C 0.29821 0.16247 0.66969 0.0
O301 O 0.2888 0.11336 0.66592 0.0
O302 O 0.35501 0.07745 0.69343 0.0
O303 O 0.35337 1.00123 0.66829 0.0
H304 H 0.44865 0.13988 0.75629 0.0
H305 H 0.29194 0.07714 0.59732 0.0
O306 O 0.35251 0.0285 0.58061 0.0
H307 H 0.23424 0.94237 0.65899 0.0
H308 H 0.31685 0.84796 0.57465 0.0
H309 H 0.40297 0.93137 0.64217 0.0
H310 H 0.3001 0.94721 0.65547 0.0
H311 H 0.31239 0.94219 0.58601 0.0
O312 O 0.33121 0.17547 0.6702 0.0
H313 H 0.4174 0.09484 0.71567 0.0
H314 H 0.38185 0.24096 0.68162 0.0
H315 H 0.40808 0.83696 0.63195 0.0
H316 H 0.22616 0.0732 0.59979 0.0
H317 H 0.36473 0.79439 0.59796 0.0
H318 H 0.19673 0.00549 0.6309 0.0
O319 O 0.40553 0.02227 0.62396 0.0
H320 H 0.36646 0.25748 0.5802 0.0
H321 H 0.44759 0.16799 0.64967 0.0
H322 H 0.4728 0.22791 0.61246 0.0
H323 H 0.43216 0.27321 0.57735 0.0
H324 H 0.34251 0.19643 0.61738 0.0
H325 H 0.41246 0.28775 0.72204 0.0
H326 H 0.44637 0.23714 0.75964 0.0
O327 O 0.41769 0.08352 0.65835 0.0
C328 C 0.35229 0.02748 0.69236 0.0
C329 C 0.43422 0.16242 0.73991 0.0
C330 C 0.41386 0.24538 0.72071 0.0
N331 N 0.39846 0.16518 0.69592 0.0
C332 C 0.41666 0.13708 0.71673 0.0
C333 C 0.39659 0.21866 0.69787 0.0
C334 C 0.43287 0.21697 0.74181 0.0
C335 C 0.2796 0.04706 0.61049 0.0
N336 N 0.30013 0.01211 0.62585 0.0
C337 C 0.24219 0.04521 0.61198 0.0
C338 C 0.22569 0.00732 0.62949 0.0
C339 C 0.24672 0.97194 0.64527 0.0
C340 C 0.28406 0.97503 0.64324 0.0
C341 C 0.3355 0.86579 0.58995 0.0
C342 C 0.38321 0.91309 0.62832 0.0
C343 C 0.33299 0.91919 0.59663 0.0
N344 N 0.35611 0.94203 0.61622 0.0
C345 C 0.3866 0.85959 0.62216 0.0
C346 C 0.36238 0.83578 0.60299 0.0
C347 C 0.42726 0.04712 0.64062 0.0
C348 C 0.38448 0.2379 0.59533 0.0
C349 C 0.42968 0.18695 0.63429 0.0
C350 C 0.44414 0.22117 0.61337 0.0
C351 C 0.42133 0.24666 0.59372 0.0
N352 N 0.3935 0.17803 0.63552 0.0
C353 C 0.371 0.20339 0.61654 0.0
Co354 Co 0.65497 0.01632 0.87688 0.0
Co355 Co 0.62007 0.13556 0.8544 0.0
O356 O 0.65151 0.09291 0.87885 0.0
C357 C 0.63844 0.04349 0.93847 0.0
O358 O 0.61622 0.07838 0.9277 0.0
C359 C 0.69293 0.17771 0.84353 0.0
O360 O 0.70297 0.12941 0.83786 0.0
O361 O 0.63744 0.10001 0.81835 0.0
O362 O 0.65322 0.01819 0.8321 0.0
H363 H 0.50255 0.2034 0.81208 0.0
H364 H 0.70793 0.08135 0.90917 0.0
O365 O 0.65663 0.01405 0.92129 0.0
H366 H 0.77945 0.97299 0.84089 0.0
H367 H 0.69922 0.83925 0.91028 0.0
H368 H 0.62032 0.93346 0.84096 0.0
H369 H 0.71355 0.96428 0.84274 0.0
H370 H 0.69588 0.93595 0.91098 0.0
O371 O 0.66048 0.18801 0.85057 0.0
H372 H 0.53911 0.15008 0.84476 0.0
H373 H 0.63417 0.20992 0.80515 0.0
H374 H 0.6232 0.83677 0.83924 0.0
H375 H 0.77368 0.09173 0.90792 0.0
H376 H 0.66285 0.78903 0.8741 0.0
H377 H 0.80994 0.03733 0.87355 0.0
O378 O 0.6019 0.0085 0.87849 0.0
H379 H 0.63473 0.24846 0.94522 0.0
H380 H 0.55002 0.13782 0.89032 0.0
H381 H 0.53016 0.18122 0.93498 0.0
H382 H 0.57232 0.23731 0.96318 0.0
H383 H 0.65393 0.20498 0.9002 0.0
H384 H 0.59813 0.26405 0.77205 0.0
H385 H 0.53167 0.26144 0.77527 0.0
O386 O 0.58043 0.08181 0.85738 0.0
C387 C 0.64678 0.05312 0.81234 0.0
C388 C 0.53152 0.20607 0.81102 0.0
C389 C 0.58508 0.24004 0.78857 0.0
N390 N 0.58952 0.17922 0.82911 0.0
C391 C 0.55279 0.17632 0.83009 0.0
C392 C 0.60549 0.20972 0.80797 0.0
C393 C 0.54783 0.23844 0.79029 0.0
C394 C 0.72347 0.05772 0.89407 0.0
N395 N 0.70686 0.0228 0.87574 0.0
C396 C 0.76072 0.06368 0.89351 0.0
C397 C 0.78104 0.03314 0.87423 0.0
C398 C 0.76396 0.99706 0.8559 0.0
C399 C 0.72664 0.99232 0.85703 0.0
C400 C 0.68192 0.85961 0.89492 0.0
C401 C 0.63793 0.91299 0.85598 0.0
C402 C 0.67984 0.91435 0.89527 0.0
N403 N 0.65825 0.94034 0.87579 0.0
C404 C 0.63931 0.85823 0.855 0.0
C405 C 0.66152 0.83146 0.8746 0.0
C406 C 0.57614 0.03615 0.8686 0.0
C407 C 0.61576 0.22524 0.93273 0.0
C408 C 0.56873 0.16359 0.90094 0.0
C409 C 0.55719 0.18757 0.92698 0.0
C410 C 0.58084 0.21883 0.94286 0.0
N411 N 0.60288 0.17107 0.89036 0.0
C412 C 0.62637 0.20076 0.90658 0.0
Co413 Co 0.35149 0.99838 0.87518 0.0
Co414 Co 0.37701 0.87037 0.85824 0.0
O415 O 0.34874 0.92212 0.88012 0.0
C416 C 0.36803 0.97852 0.93786 0.0
O417 O 0.38665 0.93818 0.92856 0.0
C418 C 0.30115 0.84024 0.84719 0.0
O419 O 0.29382 0.8899 0.84268 0.0
O420 O 0.36597 0.9062 0.81997 0.0
O421 O 0.35066 0.98979 0.8312 0.0
H422 H 0.47506 0.80574 0.79031 0.0
H423 H 0.29484 0.94639 0.9107 0.0
O424 O 0.35221 0.00806 0.91932 0.0
H425 H 0.2301 0.05672 0.83908 0.0
H426 H 0.32236 0.18579 0.90141 0.0
H427 H 0.38958 0.07008 0.83407 0.0
H428 H 0.29625 0.05438 0.83947 0.0
H429 H 0.3187 0.0896 0.90656 0.0
O430 O 0.33286 0.82566 0.85362 0.0
H431 H 0.44148 0.87184 0.81826 0.0
H432 H 0.37431 0.75344 0.85429 0.0
H433 H 0.3938 0.16596 0.82794 0.0
H434 H 0.22868 0.94764 0.91118 0.0
H435 H 0.36002 0.2246 0.86181 0.0
H436 H 0.19584 0.00307 0.87514 0.0
O437 O 0.40505 0.99678 0.87494 0.0
H438 H 0.34631 0.79445 0.95735 0.0
H439 H 0.44369 0.82959 0.88636 0.0
H440 H 0.45786 0.7875 0.93389 0.0
H441 H 0.40897 0.76977 0.96981 0.0
H442 H 0.3334 0.83681 0.90964 0.0
H443 H 0.40737 0.68591 0.82674 0.0
H444 H 0.45809 0.71176 0.79431 0.0
O445 O 0.42142 0.91438 0.86272 0.0
C446 C 0.35643 0.95279 0.81269 0.0
C447 C 0.4526 0.79403 0.80397 0.0
C448 C 0.41465 0.72683 0.82441 0.0
N449 N 0.40457 0.81744 0.83689 0.0
C450 C 0.43306 0.83162 0.81964 0.0
C451 C 0.39571 0.76553 0.83973 0.0
C452 C 0.44314 0.74132 0.80627 0.0
C453 C 0.28076 0.97098 0.89514 0.0
N454 N 0.29942 1.00077 0.87534 0.0
C455 C 0.24328 0.9714 0.89545 0.0
C456 C 0.22488 0.00246 0.87521 0.0
C457 C 0.24408 0.03261 0.855 0.0
C458 C 0.28155 0.03123 0.85538 0.0
C459 C 0.33726 0.16067 0.88655 0.0
C460 C 0.37481 0.09521 0.84885 0.0
C461 C 0.33544 0.10614 0.88945 0.0
N462 N 0.35401 0.07413 0.87065 0.0
C463 C 0.3773 0.14955 0.8453 0.0
C464 C 0.35836 0.18241 0.86431 0.0
C465 C 0.42869 0.96197 0.86927 0.0
C466 C 0.36783 0.80187 0.94186 0.0
C467 C 0.42226 0.82186 0.90183 0.0
C468 C 0.43044 0.79802 0.92872 0.0
C469 C 0.403 0.78808 0.94885 0.0
N470 N 0.38773 0.83554 0.89521 0.0
C471 C 0.36065 0.82563 0.91476 0.0
Co472 Co 0.84793 0.50609 0.37699 0.0
Co473 Co 0.87962 0.62787 0.35409 0.0
O474 O 0.8494 0.58272 0.37843 0.0
C475 C 0.8664 0.53241 0.43854 0.0
O476 O 0.88836 0.5675 0.4276 0.0
C477 C 0.80509 0.66304 0.34135 0.0
O478 O 0.79664 0.61389 0.33634 0.0
O479 O 0.86634 0.58805 0.31761 0.0
O480 O 0.84831 0.50753 0.33251 0.0
H481 H 0.97982 0.6745 0.28346 0.0
H482 H 0.79397 0.56614 0.41124 0.0
O483 O 0.84745 0.50402 0.42145 0.0
H484 H 0.72419 0.45942 0.34107 0.0
H485 H 0.80831 0.32858 0.41342 0.0
H486 H 0.8804 0.42262 0.33933 0.0
H487 H 0.79026 0.45364 0.3423 0.0
H488 H 0.81039 0.42521 0.41313 0.0
O489 O 0.83704 0.67578 0.34846 0.0
H490 H 0.94426 0.61554 0.31449 0.0
H491 H 0.8811 0.74363 0.34441 0.0
H492 H 0.87896 0.3261 0.33866 0.0
H493 H 0.72798 0.57333 0.41078 0.0
H494 H 0.84272 0.27828 0.37597 0.0
H495 H 0.69262 0.51975 0.37544 0.0
O496 O 0.90155 0.50175 0.37716 0.0
H497 H 0.85696 0.72498 0.44895 0.0
H498 H 0.9493 0.66325 0.37923 0.0
H499 H 0.96766 0.71139 0.42385 0.0
H500 H 0.9213 0.74268 0.45912 0.0
H501 H 0.84002 0.67564 0.40435 0.0
H502 H 0.91629 0.80415 0.31377 0.0
H503 H 0.96599 0.76981 0.28279 0.0
O504 O 0.92177 0.57959 0.35993 0.0
C505 C 0.85562 0.54117 0.31237 0.0
C506 C 0.95776 0.68983 0.2964 0.0
C507 C 0.92214 0.76254 0.3134 0.0
N508 N 0.90898 0.675 0.33015 0.0
C509 C 0.93701 0.65624 0.31379 0.0
C510 C 0.90195 0.72775 0.33049 0.0
C511 C 0.95007 0.7433 0.2961 0.0
C512 C 0.77877 0.54267 0.39586 0.0
N513 N 0.79594 0.50977 0.37672 0.0
C514 C 0.74141 0.5469 0.39569 0.0
C515 C 0.72159 0.51686 0.37585 0.0
C516 C 0.73928 0.48301 0.35656 0.0
C517 C 0.77669 0.47992 0.35734 0.0
C518 C 0.82436 0.34894 0.39715 0.0
C519 C 0.8648 0.40235 0.3557 0.0
C520 C 0.82585 0.40373 0.39697 0.0
N521 N 0.84598 0.42981 0.37643 0.0
C522 C 0.86397 0.34755 0.35519 0.0
C523 C 0.84363 0.32074 0.37611 0.0
C524 C 0.92677 0.53275 0.36923 0.0
C525 C 0.87742 0.71153 0.43378 0.0
C526 C 0.92894 0.6765 0.39449 0.0
C527 C 0.93952 0.70387 0.41971 0.0
C528 C 0.91352 0.72143 0.43947 0.0
N529 N 0.89348 0.66656 0.38916 0.0
C530 C 0.86789 0.6838 0.40839 0.0
Co531 Co 0.15203 0.48751 0.38052 0.0
Co532 Co 0.12677 0.37047 0.34757 0.0
O533 O 0.15338 0.41111 0.37675 0.0
C534 C 0.13409 0.44657 0.43975 0.0
O535 O 0.115 0.41017 0.42667 0.0
C536 C 0.20244 0.3372 0.34011 0.0
O537 O 0.21165 0.38667 0.3424 0.0
O538 O 0.14409 0.41744 0.31524 0.0
O539 O 0.15275 0.49644 0.33659 0.0
H540 H 0.053 0.34203 0.25586 0.0
H541 H 0.20718 0.42784 0.41362 0.0
O542 O 0.1511 0.48063 0.42466 0.0
H543 H 0.27488 0.54475 0.34719 0.0
H544 H 0.18817 0.65898 0.42695 0.0
H545 H 0.11171 0.57476 0.35213 0.0
H546 H 0.20872 0.54673 0.34803 0.0
H547 H 0.18948 0.56301 0.42002 0.0
O548 O 0.16962 0.32352 0.34175 0.0
H549 H 0.08621 0.39411 0.29238 0.0
H550 H 0.11613 0.2557 0.33803 0.0
H551 H 0.10971 0.67081 0.35804 0.0
H552 H 0.27331 0.42497 0.41374 0.0
H553 H 0.14819 0.71362 0.39572 0.0
H554 H 0.30762 0.4836 0.38025 0.0
O555 O 0.0984 0.48744 0.37965 0.0
H556 H 0.14112 0.2581 0.43792 0.0
H557 H 0.0548 0.33112 0.36654 0.0
H558 H 0.03275 0.27648 0.40757 0.0
H559 H 0.07605 0.23941 0.44358 0.0
H560 H 0.16187 0.31363 0.39685 0.0
H561 H 0.08385 0.20172 0.30162 0.0
H562 H 0.05153 0.24489 0.26035 0.0
O563 O 0.08298 0.41613 0.3531 0.0
C564 C 0.15077 0.46659 0.31402 0.0
C565 C 0.06629 0.32278 0.2741 0.0
C566 C 0.08368 0.24407 0.29973 0.0
N567 N 0.1013 0.32852 0.31844 0.0
C568 C 0.08466 0.3523 0.2952 0.0
C569 C 0.10175 0.27494 0.3204 0.0
C570 C 0.06561 0.26829 0.27656 0.0
C571 C 0.22191 0.45393 0.39926 0.0
N572 N 0.2041 0.48754 0.38094 0.0
C573 C 0.25936 0.45195 0.39931 0.0
C574 C 0.27859 0.48477 0.38047 0.0
C575 C 0.26023 0.51905 0.3619 0.0
C576 C 0.22276 0.51989 0.36241 0.0
C577 C 0.17142 0.64083 0.41034 0.0
C578 C 0.12881 0.59303 0.36824 0.0
C579 C 0.17204 0.58648 0.4063 0.0
N580 N 0.15112 0.56327 0.38526 0.0
C581 C 0.12745 0.64748 0.37164 0.0
C582 C 0.14898 0.67147 0.39282 0.0
C583 C 0.075 0.45857 0.36687 0.0
C584 C 0.12199 0.27383 0.4223 0.0
C585 C 0.07382 0.31546 0.38222 0.0
C586 C 0.06117 0.28433 0.40534 0.0
C587 C 0.08548 0.26347 0.42551 0.0
N588 N 0.1097 0.32547 0.37921 0.0
C589 C 0.13366 0.30505 0.39888 0.0
Co590 Co 0.85284 0.48582 0.12539 0.0
Co591 Co 0.88049 0.36908 0.15713 0.0
O592 O 0.85312 0.4093 0.12832 0.0
C593 C 0.87116 0.4478 0.06554 0.0
O594 O 0.89191 0.41277 0.07809 0.0
C595 C 0.80551 0.33122 0.16341 0.0
O596 O 0.79503 0.38028 0.16239 0.0
O597 O 0.86178 0.41397 0.18998 0.0
O598 O 0.85247 0.49346 0.16948 0.0
H599 H 0.9549 0.34172 0.24853 0.0
H600 H 0.79853 0.42483 0.09205 0.0
O601 O 0.85327 0.48014 0.08114 0.0
H602 H 0.72927 0.53654 0.16023 0.0
H603 H 0.81239 0.65683 0.08097 0.0
H604 H 0.89184 0.57409 0.15413 0.0
H605 H 0.79534 0.54143 0.15894 0.0
H606 H 0.81325 0.56067 0.08699 0.0
O607 O 0.83873 0.31958 0.16195 0.0
H608 H 0.92067 0.39321 0.21237 0.0
H609 H 0.89345 0.25462 0.16571 0.0
H610 H 0.89166 0.67033 0.14914 0.0
H611 H 0.7325 0.41909 0.09238 0.0
H612 H 0.85167 0.71241 0.1123 0.0
H613 H 0.6974 0.4751 0.12674 0.0
O614 O 0.90653 0.48807 0.1259 0.0
H615 H 0.8701 0.25875 0.06554 0.0
H616 H 0.95359 0.33422 0.13838 0.0
H617 H 0.97752 0.28197 0.09708 0.0
H618 H 0.93565 0.24365 0.06033 0.0
H619 H 0.84748 0.31207 0.10688 0.0
H620 H 0.92677 0.20119 0.20173 0.0
H621 H 0.95824 0.24478 0.24333 0.0
O622 O 0.92317 0.41719 0.15227 0.0
C623 C 0.85466 0.46296 0.19179 0.0
C624 C 0.94195 0.32231 0.23017 0.0
C625 C 0.92608 0.24348 0.20396 0.0
N626 N 0.90675 0.32755 0.18592 0.0
C627 C 0.92298 0.35152 0.2093 0.0
C628 C 0.90739 0.27403 0.18352 0.0
C629 C 0.94368 0.26793 0.22731 0.0
C630 C 0.78345 0.44977 0.10681 0.0
N631 N 0.80079 0.48353 0.12538 0.0
C632 C 0.74606 0.44617 0.107 0.0
C633 C 0.72639 0.47752 0.12633 0.0
C634 C 0.74426 0.51197 0.14515 0.0
C635 C 0.78169 0.51444 0.14438 0.0
C636 C 0.82978 0.639 0.09723 0.0
C637 C 0.87407 0.592 0.13841 0.0
C638 C 0.83038 0.58455 0.10075 0.0
N639 N 0.85212 0.56171 0.12136 0.0
C640 C 0.87421 0.64659 0.13551 0.0
C641 C 0.85183 0.67016 0.1148 0.0
C642 C 0.93046 0.45996 0.13857 0.0
C643 C 0.88862 0.27507 0.08146 0.0
C644 C 0.93518 0.31808 0.12237 0.0
C645 C 0.9489 0.28829 0.0991 0.0
C646 C 0.9254 0.26673 0.07851 0.0
N647 N 0.89904 0.32615 0.12512 0.0
C648 C 0.87589 0.30505 0.10503 0.0
Co649 Co 0.158 0.5051 0.13021 0.0
Co650 Co 0.12657 0.62865 0.15045 0.0
O651 O 0.15716 0.58168 0.1276 0.0
C652 C 0.14276 0.53067 0.06818 0.0
O653 O 0.1218 0.56728 0.07893 0.0
C654 C 0.20084 0.66483 0.16342 0.0
O655 O 0.20933 0.61613 0.16955 0.0
O656 O 0.13904 0.59096 0.18782 0.0
O657 O 0.15675 0.50933 0.17445 0.0
H658 H 0.02588 0.67985 0.21949 0.0
H659 H 0.21311 0.56599 0.09767 0.0
O660 O 0.15925 0.50015 0.08578 0.0
H661 H 0.28057 0.45704 0.16825 0.0
H662 H 0.19713 0.325 0.09751 0.0
H663 H 0.12468 0.42423 0.16919 0.0
H664 H 0.21455 0.45198 0.16586 0.0
H665 H 0.19554 0.42159 0.09595 0.0
O666 O 0.16902 0.67685 0.15563 0.0
H667 H 0.06206 0.61879 0.1902 0.0
H668 H 0.12462 0.74505 0.1572 0.0
H669 H 0.12556 0.32782 0.17168 0.0
H670 H 0.2791 0.57252 0.09934 0.0
H671 H 0.162 0.27737 0.1356 0.0
H672 H 0.31331 0.51772 0.13484 0.0
O673 O 0.10432 0.50149 0.12929 0.0
H674 H 0.15167 0.71475 0.05275 0.0
H675 H 0.05774 0.66467 0.124 0.0
H676 H 0.0406 0.70876 0.07776 0.0
H677 H 0.08774 0.73408 0.0417 0.0
H678 H 0.16739 0.67005 0.09913 0.0
H679 H 0.08886 0.80766 0.18609 0.0
H680 H 0.03912 0.7753 0.2177 0.0
O681 O 0.08433 0.58047 0.14499 0.0
C682 C 0.14944 0.54422 0.19388 0.0
C683 C 0.0479 0.69438 0.20623 0.0
C684 C 0.08321 0.76606 0.18749 0.0
N685 N 0.0969 0.67741 0.17303 0.0
C686 C 0.06894 0.65964 0.18981 0.0
C687 C 0.10371 0.73014 0.1714 0.0
C688 C 0.05527 0.74792 0.20515 0.0
C689 C 0.22782 0.54179 0.11302 0.0
N690 N 0.21002 0.50822 0.13138 0.0
C691 C 0.26518 0.54573 0.11392 0.0
C692 C 0.28435 0.51501 0.13385 0.0
C693 C 0.266 0.48092 0.15258 0.0
C694 C 0.22862 0.47809 0.15105 0.0
C695 C 0.18094 0.3465 0.11322 0.0
C696 C 0.14026 0.40283 0.15328 0.0
C697 C 0.1797 0.40128 0.11232 0.0
N698 N 0.15941 0.42882 0.13216 0.0
C699 C 0.14082 0.34808 0.15485 0.0
C700 C 0.16127 0.31981 0.13462 0.0
C701 C 0.07916 0.53325 0.13638 0.0
C702 C 0.13088 0.70411 0.06832 0.0
C703 C 0.07845 0.67571 0.1085 0.0
C704 C 0.06856 0.70067 0.08233 0.0
C705 C 0.09501 0.71487 0.06212 0.0
N706 N 0.11368 0.66503 0.11437 0.0
C707 C 0.13973 0.6791 0.09472 0.0
Co708 Co 0.15152 0.48535 0.62684 0.0
Co709 Co 0.12022 0.37086 0.65906 0.0
O710 O 0.14926 0.40905 0.63045 0.0
C711 C 0.13281 0.44672 0.56734 0.0
O712 O 0.11113 0.41317 0.58015 0.0
C713 C 0.19431 0.33128 0.6671 0.0
O714 O 0.20526 0.38006 0.66531 0.0
O715 O 0.13845 0.41603 0.69189 0.0
O716 O 0.1513 0.4941 0.67088 0.0
H717 H 0.0416 0.34894 0.74868 0.0
H718 H 0.20485 0.42128 0.59414 0.0
O719 O 0.15156 0.47834 0.58269 0.0
H720 H 0.27571 0.53031 0.66248 0.0
H721 H 0.19752 0.65228 0.58112 0.0
H722 H 0.11387 0.57696 0.65372 0.0
H723 H 0.2098 0.53833 0.6607 0.0
H724 H 0.194 0.55654 0.5883 0.0
O725 O 0.16102 0.3202 0.66534 0.0
H726 H 0.07813 0.39811 0.71295 0.0
H727 H 0.10527 0.25718 0.66852 0.0
H728 H 0.1167 0.67284 0.64761 0.0
H729 H 0.27072 0.41241 0.59496 0.0
H730 H 0.15882 0.71122 0.61102 0.0
H731 H 0.30661 0.46704 0.62941 0.0
O732 O 0.09793 0.49051 0.6268 0.0
H733 H 0.13183 0.25654 0.56909 0.0
H734 H 0.04723 0.33846 0.63893 0.0
H735 H 0.0238 0.28565 0.5977 0.0
H736 H 0.06622 0.24408 0.56246 0.0
H737 H 0.15398 0.31054 0.61028 0.0
H738 H 0.06967 0.20601 0.70417 0.0
H739 H 0.03707 0.25196 0.74441 0.0
O740 O 0.07868 0.42054 0.65284 0.0
C741 C 0.14713 0.4645 0.69341 0.0
C742 C 0.05506 0.32852 0.7309 0.0
C743 C 0.07089 0.24834 0.70598 0.0
N744 N 0.09223 0.33117 0.68762 0.0
C745 C 0.07535 0.35642 0.71027 0.0
C746 C 0.09089 0.2776 0.68576 0.0
C747 C 0.05266 0.27411 0.72857 0.0
C748 C 0.22029 0.4456 0.60895 0.0
N749 N 0.20348 0.4803 0.62732 0.0
C750 C 0.25758 0.44024 0.60942 0.0
C751 C 0.27769 0.47081 0.6288 0.0
C752 C 0.26037 0.50627 0.64739 0.0
C753 C 0.22302 0.5105 0.64636 0.0
C754 C 0.17925 0.63609 0.5973 0.0
C755 C 0.13263 0.5932 0.63822 0.0
C756 C 0.17716 0.58186 0.60151 0.0
N757 N 0.15431 0.56104 0.62202 0.0
C758 C 0.13396 0.64762 0.63464 0.0
C759 C 0.15753 0.66913 0.61407 0.0
C760 C 0.07294 0.46366 0.63899 0.0
C761 C 0.11306 0.27432 0.58434 0.0
C762 C 0.06589 0.32094 0.62356 0.0
C763 C 0.05245 0.29082 0.60033 0.0
C764 C 0.07626 0.26745 0.58059 0.0
N765 N 0.10206 0.32758 0.62708 0.0
C766 C 0.12552 0.30471 0.60782 0.0
Co767 Co 0.8472 0.51159 0.62741 0.0
Co768 Co 0.87717 0.63602 0.64767 0.0
O769 O 0.84694 0.58828 0.6247 0.0
C770 C 0.86577 0.53614 0.56566 0.0
O771 O 0.88649 0.5731 0.57625 0.0
C772 C 0.80253 0.66995 0.66006 0.0
O773 O 0.79401 0.62024 0.66287 0.0
O774 O 0.86533 0.59764 0.68497 0.0
O775 O 0.84689 0.51624 0.67178 0.0
H776 H 0.9778 0.68831 0.71633 0.0
H777 H 0.79194 0.56507 0.59111 0.0
O778 O 0.84763 0.50696 0.58298 0.0
H779 H 0.72446 0.46012 0.66361 0.0
H780 H 0.81244 0.3301 0.59392 0.0
H781 H 0.8804 0.43209 0.66724 0.0
H782 H 0.79063 0.45934 0.6633 0.0
H783 H 0.81241 0.42674 0.59233 0.0
O784 O 0.83459 0.68333 0.65394 0.0
H785 H 0.94198 0.62691 0.68699 0.0
H786 H 0.87834 0.7525 0.65463 0.0
H787 H 0.88106 0.33567 0.66979 0.0
H788 H 0.72578 0.56656 0.59027 0.0
H789 H 0.84692 0.28384 0.63287 0.0
H790 H 0.69156 0.51404 0.62687 0.0
O791 O 0.90077 0.50917 0.62765 0.0
H792 H 0.84813 0.72416 0.55152 0.0
H793 H 0.94499 0.67326 0.61975 0.0
H794 H 0.96016 0.71839 0.5733 0.0
H795 H 0.91152 0.74407 0.53877 0.0
H796 H 0.83422 0.67843 0.59806 0.0
H797 H 0.9137 0.81539 0.6836 0.0
H798 H 0.96379 0.78354 0.71492 0.0
O799 O 0.92002 0.58926 0.64171 0.0
C800 C 0.8543 0.55124 0.69118 0.0
C801 C 0.95562 0.70261 0.70319 0.0
C802 C 0.91969 0.77387 0.68482 0.0
N803 N 0.90664 0.68515 0.67012 0.0
C804 C 0.9348 0.66768 0.68673 0.0
C805 C 0.89944 0.73779 0.66868 0.0
C806 C 0.94782 0.75602 0.70233 0.0
C807 C 0.77726 0.54192 0.60693 0.0
N808 N 0.79514 0.51246 0.6273 0.0
C809 C 0.73978 0.54295 0.60641 0.0
C810 C 0.7206 0.51351 0.62696 0.0
C811 C 0.73903 0.48329 0.64759 0.0
C812 C 0.77651 0.48312 0.64736 0.0
C813 C 0.82761 0.35222 0.61002 0.0
C814 C 0.86572 0.41009 0.65102 0.0
C815 C 0.8279 0.40703 0.60914 0.0
N816 N 0.8469 0.43532 0.62945 0.0
C817 C 0.86608 0.35534 0.6526 0.0
C818 C 0.84691 0.32629 0.6319 0.0
C819 C 0.92562 0.54167 0.6341 0.0
C820 C 0.86955 0.71324 0.5664 0.0
C821 C 0.92368 0.68432 0.60485 0.0
C822 C 0.93243 0.70992 0.57859 0.0
C823 C 0.90513 0.72435 0.55924 0.0
N824 N 0.88874 0.67321 0.6116 0.0
C825 C 0.86182 0.68753 0.59284 0.0
Co826 Co 0.15191 0.52138 0.87804 0.0
Co827 Co 0.11826 0.63832 0.84994 0.0
O828 O 0.14796 0.5984 0.87762 0.0
C829 C 0.1485 0.55678 0.94213 0.0
O830 O 0.14743 0.60635 0.93443 0.0
C831 C 0.19168 0.67921 0.84148 0.0
O832 O 0.20193 0.63043 0.83757 0.0
O833 O 0.13706 0.59798 0.81609 0.0
O834 O 0.15216 0.51852 0.83345 0.0
H835 H 0.0035 0.71546 0.81069 0.0
H836 H 0.20517 0.59247 0.90739 0.0
O837 O 0.15079 0.52037 0.92281 0.0
H838 H 0.27692 0.47254 0.84592 0.0
H839 H 0.19509 0.34684 0.91648 0.0
H840 H 0.1179 0.43561 0.84372 0.0
H841 H 0.21106 0.46507 0.84722 0.0
H842 H 0.19192 0.44347 0.91473 0.0
O843 O 0.15872 0.69012 0.84589 0.0
H844 H 0.04099 0.66817 0.84676 0.0
H845 H 0.13324 0.69245 0.79344 0.0
H846 H 0.12063 0.33896 0.84446 0.0
H847 H 0.27075 0.60125 0.90676 0.0
H848 H 0.15944 0.29391 0.88105 0.0
H849 H 0.30727 0.54099 0.87588 0.0
O850 O 0.09889 0.51445 0.87796 0.0
H851 H 0.08839 0.80746 0.90169 0.0
H852 H 0.08286 0.61481 0.90733 0.0
H853 H 0.05668 0.66783 0.94761 0.0
H854 H 0.05994 0.76493 0.94507 0.0
H855 H 0.1126 0.75288 0.86158 0.0
H856 H 0.09681 0.74036 0.75688 0.0
H857 H 0.03141 0.7519 0.76535 0.0
O858 O 0.07775 0.58571 0.85391 0.0
C859 C 0.14634 0.55054 0.81225 0.0
C860 C 0.03197 0.71075 0.80677 0.0
C861 C 0.08436 0.7248 0.77659 0.0
N862 N 0.0893 0.6779 0.82228 0.0
C863 C 0.05333 0.68398 0.8271 0.0
C864 C 0.10488 0.69785 0.79743 0.0
C865 C 0.04766 0.73121 0.78134 0.0
C866 C 0.22058 0.56557 0.89419 0.0
N867 N 0.20401 0.52755 0.87787 0.0
C868 C 0.25788 0.57096 0.8938 0.0
C869 C 0.27835 0.53721 0.87644 0.0
C870 C 0.26135 0.49878 0.85967 0.0
C871 C 0.22399 0.49463 0.8606 0.0
C872 C 0.17815 0.36602 0.90039 0.0
C873 C 0.1351 0.41637 0.85953 0.0
C874 C 0.17614 0.42074 0.89936 0.0
N875 N 0.15502 0.44526 0.87893 0.0
C876 C 0.13642 0.36159 0.85993 0.0
C877 C 0.15816 0.33634 0.88049 0.0
C878 C 0.07358 0.54064 0.86613 0.0
C879 C 0.08705 0.7651 0.90318 0.0
C880 C 0.08382 0.65677 0.906 0.0
C881 C 0.06926 0.68671 0.92891 0.0
C882 C 0.07104 0.74124 0.92747 0.0
N883 N 0.09943 0.68026 0.88227 0.0
C884 C 0.10103 0.73385 0.88063 0.0
Co885 Co 0.85119 0.4941 0.87906 0.0
Co886 Co 0.87347 0.37811 0.84372 0.0
O887 O 0.84839 0.41799 0.87418 0.0
C888 C 0.86734 0.4489 0.9379 0.0
O889 O 0.88365 0.41024 0.92438 0.0
C890 C 0.79729 0.34554 0.83951 0.0
O891 O 0.78832 0.39513 0.84182 0.0
O892 O 0.85493 0.42631 0.81258 0.0
O893 O 0.85048 0.50508 0.83506 0.0
H894 H 0.94516 0.35328 0.7506 0.0
H895 H 0.79503 0.43663 0.91233 0.0
O896 O 0.85237 0.48549 0.92323 0.0
H897 H 0.72932 0.55713 0.84673 0.0
H898 H 0.81661 0.66471 0.9273 0.0
H899 H 0.89537 0.58101 0.85393 0.0
H900 H 0.79548 0.55618 0.84713 0.0
H901 H 0.8138 0.56928 0.9188 0.0
O902 O 0.83014 0.33179 0.83918 0.0
H903 H 0.91393 0.40408 0.78898 0.0
H904 H 0.88167 0.26368 0.83163 0.0
H905 H 0.89887 0.67652 0.86135 0.0
H906 H 0.72888 0.43672 0.91293 0.0
H907 H 0.85921 0.71915 0.89831 0.0
H908 H 0.69556 0.49716 0.87984 0.0
O909 O 0.90473 0.49136 0.87791 0.0
H910 H 0.86323 0.26085 0.93256 0.0
H911 H 0.94619 0.33795 0.85973 0.0
H912 H 0.97011 0.28115 0.89903 0.0
H913 H 0.92852 0.24199 0.93576 0.0
H914 H 0.8406 0.31868 0.89328 0.0
H915 H 0.91201 0.21105 0.79341 0.0
H916 H 0.94443 0.25586 0.75269 0.0
O917 O 0.91765 0.42315 0.848 0.0
C918 C 0.85053 0.47604 0.812 0.0
C919 C 0.93165 0.33327 0.7685 0.0
C920 C 0.91297 0.25348 0.79248 0.0
N921 N 0.89735 0.33716 0.81331 0.0
C922 C 0.9143 0.36197 0.79054 0.0
C923 C 0.89593 0.28353 0.81412 0.0
C924 C 0.93112 0.27862 0.76962 0.0
C925 C 0.78075 0.46343 0.89813 0.0
N926 N 0.79913 0.49633 0.87975 0.0
C927 C 0.74328 0.46316 0.89846 0.0
C928 C 0.7246 0.49699 0.87984 0.0
C929 C 0.74353 0.53059 0.86123 0.0
C930 C 0.781 0.52972 0.86147 0.0
C931 C 0.83376 0.64672 0.91089 0.0
C932 C 0.87753 0.59919 0.86946 0.0
C933 C 0.83223 0.59266 0.9059 0.0
N934 N 0.85359 0.5696 0.88505 0.0
C935 C 0.87985 0.65336 0.87385 0.0
C936 C 0.85767 0.67723 0.89464 0.0
C937 C 0.92685 0.46368 0.86292 0.0
C938 C 0.88162 0.2775 0.91663 0.0
C939 C 0.92791 0.32149 0.87576 0.0
C940 C 0.94161 0.2891 0.89788 0.0
C941 C 0.91826 0.26706 0.91845 0.0
N942 N 0.89193 0.3317 0.87415 0.0
C943 C 0.86889 0.31001 0.89418 0.0
C944 C 0.32925 0.04068 0.48486 0.0
C945 C 0.35988 0.06137 0.47005 0.0
C946 C 0.38469 0.09004 0.51768 0.0
C947 C 0.35521 0.06647 0.53248 0.0
N948 N 0.30179 0.01283 0.53058 0.0
N949 N 0.42054 0.09465 0.47332 0.0
C950 C 0.32848 0.03931 0.51621 0.0
C951 C 0.38863 0.08303 0.48675 0.0
N952 N 0.29961 0.02571 0.46927 0.0
N953 N 0.40904 0.11943 0.53305 0.0
H954 H 0.42513 0.08939 0.45089 0.0
H955 H 0.44376 0.10454 0.4848 0.0
H956 H 0.40891 0.12297 0.55591 0.0
H957 H 0.42808 0.14339 0.52296 0.0
H958 H 0.2749 0.01737 0.47892 0.0
H959 H 0.29836 0.02572 0.44647 0.0
H960 H 0.28499 0.98583 0.52025 0.0
H961 H 0.2975 0.01535 0.55319 0.0
C962 C 0.65266 0.91502 0.51697 0.0
C963 C 0.63825 0.95874 0.53233 0.0
C964 C 0.62365 0.00192 0.48542 0.0
C965 C 0.63881 0.9587 0.47011 0.0
N966 N 0.67303 0.87848 0.47045 0.0
N967 N 0.61413 0.0467 0.53203 0.0
C968 C 0.65474 0.91637 0.48567 0.0
C969 C 0.62523 0.00327 0.51679 0.0
N970 N 0.66422 0.87209 0.53238 0.0
N971 N 0.6061 0.04026 0.47 0.0
H972 H 0.61246 0.04807 0.55496 0.0
H973 H 0.60846 0.08262 0.52217 0.0
H974 H 0.60479 0.04094 0.44703 0.0
H975 H 0.59079 0.06965 0.47977 0.0
H976 H 0.67055 0.83625 0.52267 0.0
H977 H 0.66601 0.87137 0.55531 0.0
H978 H 0.68842 0.84935 0.48035 0.0
H979 H 0.67517 0.87837 0.44756 0.0
C980 C 0.33377 0.9766 0.01615 0.0
C981 C 0.36641 0.97923 0.03222 0.0
C982 C 0.39957 0.99302 0.98605 0.0
C983 C 0.36687 0.98954 0.9701 0.0
N984 N 0.30229 0.9979 0.9712 0.0
N985 N 0.42877 0.00447 0.03346 0.0
C986 C 0.33377 0.98798 0.98552 0.0
C987 C 0.39893 0.99175 0.01744 0.0
N988 N 0.30303 0.96004 0.02961 0.0
N989 N 0.43123 0.99791 0.97108 0.0
H990 H 0.42878 0.0061 0.05644 0.0
H991 H 0.45252 0.01823 0.02418 0.0
H992 H 0.43223 0.00546 0.94849 0.0
H993 H 0.45633 0.99329 0.98079 0.0
H994 H 0.27954 0.95113 0.01823 0.0
H995 H 0.30193 0.95032 0.05178 0.0
H996 H 0.27775 0.00169 0.98201 0.0
H997 H 0.30116 0.00932 0.94927 0.0
C998 C 0.65653 0.08356 0.9865 0.0
C999 C 0.64259 0.03975 0.97086 0.0
C1000 C 0.62842 0.99525 0.01754 0.0
C1001 C 0.64126 0.03995 0.03309 0.0
N1002 N 0.67418 0.12135 0.03345 0.0
N1003 N 0.61396 0.95494 0.97034 0.0
C1004 C 0.65705 0.08277 0.01785 0.0
C1005 C 0.62878 0.99537 0.98608 0.0
N1006 N 0.66859 0.12645 0.97124 0.0
N1007 N 0.61579 0.95288 0.03295 0.0
H1008 H 0.61414 0.95337 0.94738 0.0
H1009 H 0.60008 0.9236 0.97956 0.0
H1010 H 0.61283 0.95261 0.05579 0.0
H1011 H 0.60936 0.91687 0.02358 0.0
H1012 H 0.67442 0.16248 0.98091 0.0
H1013 H 0.67139 0.12696 0.94837 0.0
H1014 H 0.68938 0.15109 0.02393 0.0
H1015 H 0.67573 0.12155 0.0564 0.0
C1016 C 0.84441 0.57202 0.51744 0.0
C1017 C 0.86178 0.53125 0.53325 0.0
C1018 C 0.87532 0.48563 0.48679 0.0
C1019 C 0.86166 0.52937 0.47098 0.0
N1020 N 0.83247 0.61374 0.47039 0.0
N1021 N 0.89531 0.45042 0.53382 0.0
C1022 C 0.84585 0.57235 0.48611 0.0
C1023 C 0.87721 0.48791 0.51818 0.0
N1024 N 0.82561 0.60958 0.5325 0.0
N1025 N 0.88664 0.44212 0.47176 0.0
H1026 H 0.89675 0.45041 0.55678 0.0
H1027 H 0.91075 0.421 0.5242 0.0
H1028 H 0.88704 0.43995 0.44881 0.0
H1029 H 0.89337 0.4068 0.48184 0.0
H1030 H 0.80926 0.63752 0.52258 0.0
H1031 H 0.8242 0.61067 0.55542 0.0
H1032 H 0.82488 0.64937 0.4797 0.0
H1033 H 0.83005 0.61321 0.44752 0.0
C1034 C 0.12295 0.49316 0.51917 0.0
C1035 C 0.13514 0.44813 0.53471 0.0
C1036 C 0.1509 0.40523 0.48791 0.0
C1037 C 0.1357 0.44816 0.47239 0.0
N1038 N 0.10427 0.53098 0.47255 0.0
N1039 N 0.15987 0.36064 0.5346 0.0
C1040 C 0.12127 0.49188 0.48781 0.0
C1041 C 0.14877 0.40388 0.51925 0.0
N1042 N 0.11286 0.53717 0.53436 0.0
N1043 N 0.16892 0.36704 0.47269 0.0
H1044 H 0.16211 0.36 0.5575 0.0
H1045 H 0.16549 0.32456 0.52487 0.0
H1046 H 0.17162 0.36728 0.44981 0.0
H1047 H 0.18375 0.33732 0.48262 0.0
H1048 H 0.10822 0.57337 0.52446 0.0
H1049 H 0.11112 0.53879 0.55727 0.0
H1050 H 0.08917 0.56046 0.48246 0.0
H1051 H 0.10301 0.53226 0.44962 0.0
C1052 C 0.84945 0.40904 0.98629 0.0
C1053 C 0.86674 0.45009 0.97059 0.0
C1054 C 0.88292 0.49296 0.01724 0.0
C1055 C 0.86847 0.44954 0.03292 0.0
N1056 N 0.83952 0.36485 0.033 0.0
N1057 N 0.90411 0.52742 0.9705 0.0
C1058 C 0.85228 0.40707 0.01759 0.0
C1059 C 0.88433 0.49136 0.98588 0.0
N1060 N 0.82902 0.37324 0.97132 0.0
N1061 N 0.8954 0.53575 0.03231 0.0
H1062 H 0.90599 0.52763 0.94757 0.0
H1063 H 0.92108 0.55466 0.98039 0.0
H1064 H 0.89688 0.53744 0.05523 0.0
H1065 H 0.90211 0.57113 0.02224 0.0
H1066 H 0.81264 0.34556 0.98151 0.0
H1067 H 0.82604 0.37369 0.94847 0.0
H1068 H 0.83177 0.32968 0.02322 0.0
H1069 H 0.83818 0.3639 0.05595 0.0
C1070 C 0.11262 0.53138 0.01941 0.0
C1071 C 0.14477 0.52436 0.0355 0.0
C1072 C 0.17832 0.52499 0.9887 0.0
C1073 C 0.14706 0.54297 0.97395 0.0
N1074 N 0.08503 0.56999 0.97671 0.0
N1075 N 0.20945 0.51425 0.03506 0.0
C1076 C 0.11434 0.54793 0.9897 0.0
C1077 C 0.17799 0.52015 0.02005 0.0
N1078 N 0.08033 0.52071 0.03241 0.0
N1079 N 0.20843 0.51291 0.97287 0.0
H1080 H 0.21078 0.50644 0.05745 0.0
H1081 H 0.23459 0.51913 0.0254 0.0
H1082 H 0.21028 0.51823 0.95016 0.0
H1083 H 0.23058 0.49387 0.98187 0.0
H1084 H 0.05608 0.52113 0.02098 0.0
H1085 H 0.07847 0.50503 0.05361 0.0
H1086 H 0.06165 0.57931 0.9882 0.0
H1087 H 0.08547 0.58367 0.9552 0.0
C1088 C 0.51542 0.97097 0.39073 0.0
C1089 C 0.53979 0.98084 0.36741 0.0
C1090 C 0.49176 0.02358 0.33966 0.0
C1091 C 0.46824 0.01985 0.36437 0.0
N1092 N 0.46309 0.00204 0.41677 0.0
N1093 N 0.55303 0.02868 0.32284 0.0
C1094 C 0.48152 0.99678 0.3909 0.0
C1095 C 0.52861 0.01132 0.34302 0.0
N1096 N 0.5244 0.93695 0.41274 0.0
N1097 N 0.47888 0.03489 0.31228 0.0
H1098 H 0.58015 0.01941 0.32407 0.0
H1099 H 0.54674 0.0558 0.30643 0.0
H1100 H 0.45176 0.0386 0.30796 0.0
H1101 H 0.49454 0.03317 0.29325 0.0
H1102 H 0.50614 0.92423 0.42863 0.0
H1103 H 0.54905 0.91782 0.41349 0.0
H1104 H 0.4734 0.99013 0.43704 0.0
H1105 H 0.43971 0.024 0.41872 0.0
C1106 C 0.48984 0.96993 0.11024 0.0
C1107 C 0.46606 0.98182 0.13367 0.0
C1108 C 0.51575 0.0218 0.1609 0.0
C1109 C 0.53886 0.01593 0.13603 0.0
N1110 N 0.54315 0.99592 0.08389 0.0
N1111 N 0.45498 0.02883 0.17888 0.0
C1112 C 0.52464 0.99299 0.1098 0.0
C1113 C 0.47854 0.01121 0.15808 0.0
N1114 N 0.47944 0.93645 0.08836 0.0
N1115 N 0.52942 0.03364 0.18796 0.0
H1116 H 0.42779 0.01978 0.17839 0.0
H1117 H 0.46201 0.05567 0.19525 0.0
H1118 H 0.55666 0.03714 0.19179 0.0
H1119 H 0.51426 0.03308 0.20728 0.0
H1120 H 0.49707 0.92187 0.0725 0.0
H1121 H 0.45397 0.91977 0.08758 0.0
H1122 H 0.53245 0.98428 0.06371 0.0
H1123 H 0.56728 0.01586 0.0818 0.0
C1124 C 0.52059 0.00425 0.66517 0.0
C1125 C 0.53818 0.99729 0.63758 0.0
C1126 C 0.48476 0.0325 0.61264 0.0
C1127 C 0.46582 0.03212 0.63978 0.0
N1128 N 0.4647 0.01086 0.69165 0.0
N1129 N 0.53442 0.99802 0.58435 0.0
C1130 C 0.4835 0.01636 0.66598 0.0
C1131 C 0.51965 0.00987 0.61108 0.0
N1132 N 0.53957 0.00147 0.69082 0.0
N1133 N 0.46995 0.05624 0.58854 0.0
H1134 H 0.55949 0.98075 0.58206 0.0
H1135 H 0.52043 1.00084 0.56455 0.0
H1136 H 0.44492 0.07444 0.58912 0.0
H1137 H 0.48394 0.06269 0.56898 0.0
H1138 H 0.5293 0.01269 0.71124 0.0
H1139 H 0.56678 0.99314 0.6914 0.0
H1140 H 0.47507 0.99275 0.71039 0.0
H1141 H 0.43769 0.02014 0.69358 0.0
C1142 C 0.51905 0.01241 0.84246 0.0
C1143 C 0.53924 0.01318 0.8689 0.0
C1144 C 0.4889 0.96988 0.89413 0.0
C1145 C 0.46691 0.97847 0.8691 0.0
N1146 N 0.46013 0.01601 0.82055 0.0
N1147 N 0.54104 0.99788 0.92152 0.0
C1148 C 0.48166 0.00245 0.84363 0.0
C1149 C 0.52364 0.99302 0.89522 0.0
N1150 N 0.53607 0.01724 0.81599 0.0
N1151 N 0.47694 0.93907 0.91669 0.0
H1152 H 0.56617 0.01508 0.92346 0.0
H1153 H 0.52914 0.98912 0.94172 0.0
H1154 H 0.45168 0.92168 0.91665 0.0
H1155 H 0.49324 0.92703 0.93408 0.0
H1156 H 0.52302 0.0132 0.7958 0.0
H1157 H 0.56398 0.01743 0.8145 0.0
H1158 H 0.46926 0.03793 0.80264 0.0
H1159 H 0.43257 0.0094 0.82061 0.0
C1160 C 0.98757 0.52311 0.39309 0.0
C1161 C 0.96411 0.51217 0.36933 0.0
C1162 C 0.01375 0.47076 0.34273 0.0
C1163 C 0.03635 0.47574 0.36791 0.0
N1164 N 0.03921 0.49336 0.42031 0.0
N1165 N 0.95314 0.46392 0.3245 0.0
C1166 C 0.02175 0.49833 0.39405 0.0
C1167 C 0.97659 0.48195 0.34523 0.0
N1168 N 0.97752 0.55722 0.41476 0.0
N1169 N 0.02782 0.45926 0.31576 0.0
H1170 H 0.92587 0.47236 0.32515 0.0
H1171 H 0.96038 0.43703 0.30821 0.0
H1172 H 0.05515 0.45603 0.3122 0.0
H1173 H 0.0129 0.46014 0.29634 0.0
H1174 H 0.99512 0.57055 0.43097 0.0
H1175 H 0.95272 0.57592 0.41485 0.0
H1176 H 0.02817 0.50526 0.44035 0.0
H1177 H 0.06242 0.47121 0.42264 0.0
C1178 C 0.02878 0.48364 0.16039 0.0
C1179 C 0.04162 0.51332 0.13621 0.0
C1180 C 0.98361 0.50142 0.11158 0.0
C1181 C 0.96896 0.47827 0.13761 0.0
N1182 N 0.97737 0.46122 0.1897 0.0
N1183 N 0.02895 0.5586 0.09077 0.0
C1184 C 0.99155 0.47283 0.16278 0.0
C1185 C 0.01825 0.52501 0.1125 0.0
N1186 N 0.05198 0.4659 0.18138 0.0
N1187 N 0.96576 0.49809 0.08538 0.0
H1188 H 0.05445 0.57523 0.0902 0.0
H1189 H 0.01157 0.57305 0.07473 0.0
H1190 H 0.94194 0.47749 0.08291 0.0
H1191 H 0.97683 0.51004 0.06538 0.0
H1192 H 0.04465 0.439 0.19762 0.0
H1193 H 0.07918 0.47485 0.18113 0.0
H1194 H 0.99218 0.46197 0.20918 0.0
H1195 H 0.95005 0.4579 0.19323 0.0
C1196 C 0.9871 0.53189 0.61131 0.0
C1197 C 0.96313 0.5218 0.63488 0.0
C1198 C 0.01207 0.48082 0.66249 0.0
C1199 C 0.03506 0.48414 0.63744 0.0
N1200 N 0.03976 0.50256 0.58513 0.0
N1201 N 0.95129 0.47668 0.68061 0.0
C1202 C 0.02137 0.50711 0.61103 0.0
C1203 C 0.9751 0.4928 0.65961 0.0
N1204 N 0.97731 0.56505 0.5891 0.0
N1205 N 0.02573 0.47003 0.68969 0.0
H1206 H 0.92421 0.48631 0.67997 0.0
H1207 H 0.95801 0.45033 0.6973 0.0
H1208 H 0.05298 0.46603 0.69343 0.0
H1209 H 0.01067 0.4722 0.70903 0.0
H1210 H 0.99519 0.57827 0.57306 0.0
H1211 H 0.95225 0.583 0.58827 0.0
H1212 H 0.02932 0.51421 0.56487 0.0
H1213 H 0.06346 0.48151 0.58318 0.0
C1214 C 0.02315 0.49711 0.83914 0.0
C1215 C 0.03734 0.51624 0.86592 0.0
C1216 C 0.98256 0.48789 0.89144 0.0
C1217 C 0.96571 0.47868 0.86379 0.0
N1218 N 0.97031 0.47908 0.81048 0.0
N1219 N 0.03161 0.52726 0.91841 0.0
C1220 C 0.98617 0.48415 0.83739 0.0
C1221 C 0.01732 0.51088 0.89234 0.0
N1222 N 0.04549 0.48836 0.81577 0.0
N1223 N 0.96646 0.47128 0.91683 0.0
H1224 H 0.05844 0.53753 0.92043 0.0
H1225 H 0.01669 0.53202 0.93766 0.0
H1226 H 0.94244 0.45063 0.91685 0.0
H1227 H 0.97865 0.47236 0.93745 0.0
H1228 H 0.03738 0.46966 0.79647 0.0
H1229 H 0.07316 0.49393 0.81719 0.0
H1230 H 0.98304 0.48885 0.79077 0.0
H1231 H 0.94346 0.46978 0.80794 0.0
C1232 C 0.24101 0.27566 0.3105 0.0
C1233 C 0.23056 0.29626 0.33829 0.0
C1234 C 0.26794 0.23117 0.36341 0.0
C1235 C 0.28067 0.21309 0.33571 0.0
N1236 N 0.28288 0.22129 0.28286 0.0
N1237 N 0.23946 0.30131 0.39084 0.0
C1238 C 0.26826 0.23634 0.30919 0.0
C1239 C 0.24567 0.27632 0.36465 0.0
N1240 N 0.22444 0.29311 0.28548 0.0
N1241 N 0.27614 0.20418 0.38852 0.0
H1242 H 0.22349 0.33475 0.39259 0.0
H1243 H 0.25279 0.29195 0.41031 0.0
H1244 H 0.29233 0.17092 0.38851 0.0
H1245 H 0.26438 0.21189 0.4089 0.0
H1246 H 0.22791 0.27594 0.26485 0.0
H1247 H 0.20538 0.32313 0.28562 0.0
H1248 H 0.27784 0.24031 0.26299 0.0
H1249 H 0.30204 0.19157 0.28113 0.0
C1250 C 0.73809 0.76496 0.31329 0.0
C1251 C 0.72673 0.78731 0.3404 0.0
C1252 C 0.76237 0.7228 0.36751 0.0
C1253 C 0.77678 0.70393 0.34063 0.0
N1254 N 0.78156 0.71007 0.28778 0.0
N1255 N 0.73527 0.79628 0.39281 0.0
C1256 C 0.76552 0.72584 0.31339 0.0
C1257 C 0.74096 0.76878 0.3674 0.0
N1258 N 0.72216 0.78036 0.28758 0.0
N1259 N 0.76784 0.69556 0.39302 0.0
H1260 H 0.72145 0.83183 0.39315 0.0
H1261 H 0.7477 0.78704 0.41271 0.0
H1262 H 0.78156 0.65992 0.3935 0.0
H1263 H 0.75531 0.70507 0.41286 0.0
H1264 H 0.72643 0.76175 0.26745 0.0
H1265 H 0.70272 0.80981 0.28672 0.0
H1266 H 0.77736 0.72835 0.26756 0.0
H1267 H 0.80102 0.68063 0.28707 0.0
C1268 C 0.24374 0.72298 0.13642 0.0
C1269 C 0.22897 0.70598 0.16355 0.0
C1270 C 0.26653 0.76993 0.18982 0.0
C1271 C 0.27822 0.79032 0.16231 0.0
N1272 N 0.27006 0.79538 0.10973 0.0
N1273 N 0.22295 0.7164 0.2161 0.0
C1274 C 0.26459 0.76942 0.13566 0.0
C1275 C 0.23942 0.73034 0.19034 0.0
N1276 N 0.239 0.6937 0.11153 0.0
N1277 N 0.28196 0.78738 0.21532 0.0
H1278 H 0.20376 0.68663 0.2173 0.0
H1279 H 0.22653 0.7365 0.23587 0.0
H1280 H 0.30135 0.81694 0.21572 0.0
H1281 H 0.27742 0.77023 0.23581 0.0
H1282 H 0.25186 0.70194 0.09165 0.0
H1283 H 0.22561 0.65781 0.11175 0.0
H1284 H 0.25813 0.78419 0.08994 0.0
H1285 H 0.28283 0.83172 0.10885 0.0
C1286 C 0.74077 0.22575 0.19085 0.0
C1287 C 0.73025 0.20286 0.16366 0.0
C1288 C 0.76527 0.26859 0.13669 0.0
C1289 C 0.77847 0.28854 0.16377 0.0
N1290 N 0.78212 0.28351 0.2167 0.0
N1291 N 0.73843 0.19499 0.11112 0.0
C1292 C 0.76718 0.26632 0.19093 0.0
C1293 C 0.74427 0.22206 0.13668 0.0
N1294 N 0.72509 0.20921 0.21647 0.0
N1295 N 0.77184 0.29501 0.11103 0.0
H1296 H 0.72391 0.16004 0.1104 0.0
H1297 H 0.75091 0.20424 0.09124 0.0
H1298 H 0.78635 0.32997 0.1103 0.0
H1299 H 0.75993 0.28524 0.09101 0.0
H1300 H 0.72859 0.22791 0.23666 0.0
H1301 H 0.70666 0.17837 0.21724 0.0
H1302 H 0.77803 0.26532 0.23696 0.0
H1303 H 0.80055 0.31433 0.21756 0.0
C1304 C 0.7501 0.79118 0.68479 0.0
C1305 C 0.71947 0.78807 0.66607 0.0
C1306 C 0.74467 0.70924 0.64281 0.0
C1307 C 0.77424 0.71079 0.66231 0.0
N1308 N 0.80238 0.74746 0.70543 0.0
N1309 N 0.68274 0.73174 0.63514 0.0
C1310 C 0.77628 0.75027 0.6843 0.0
C1311 C 0.71512 0.74331 0.64757 0.0
N1312 N 0.75381 0.83282 0.70349 0.0
N1313 N 0.74547 0.677 0.61874 0.0
H1314 H 0.65934 0.75183 0.64005 0.0
H1315 H 0.67795 0.69726 0.62342 0.0
H1316 H 0.76738 0.65319 0.61371 0.0
H1317 H 0.72631 0.67839 0.60204 0.0
H1318 H 0.77753 0.84181 0.71449 0.0
H1319 H 0.73302 0.85911 0.70759 0.0
H1320 H 0.80332 0.7718 0.72384 0.0
H1321 H 0.82174 0.7179 0.70589 0.0
C1322 C 0.23076 0.26553 0.69557 0.0
C1323 C 0.22106 0.28829 0.66816 0.0
C1324 C 0.25819 0.22396 0.64201 0.0
C1325 C 0.27048 0.20417 0.66941 0.0
N1326 N 0.27172 0.20865 0.72243 0.0
N1327 N 0.23062 0.29613 0.61575 0.0
C1328 C 0.25769 0.22571 0.6963 0.0
C1329 C 0.23624 0.26951 0.6415 0.0
N1330 N 0.2139 0.28158 0.72079 0.0
N1331 N 0.26678 0.19851 0.61643 0.0
H1332 H 0.21487 0.32984 0.61449 0.0
H1333 H 0.24415 0.28774 0.59622 0.0
H1334 H 0.2829 0.16512 0.61587 0.0
H1335 H 0.25541 0.20761 0.5961 0.0
H1336 H 0.2169 0.26299 0.74107 0.0
H1337 H 0.195 0.3118 0.72111 0.0
H1338 H 0.26652 0.22645 0.74263 0.0
H1339 H 0.29047 0.17831 0.72372 0.0
C1340 C 0.73395 0.24119 0.86871 0.0
C1341 C 0.71976 0.22051 0.84218 0.0
C1342 C 0.75777 0.28056 0.81349 0.0
C1343 C 0.76921 0.30446 0.84013 0.0
N1344 N 0.76357 0.31398 0.89285 0.0
N1345 N 0.7153 0.22252 0.78919 0.0
C1346 C 0.75579 0.28682 0.86767 0.0
C1347 C 0.73091 0.24072 0.81447 0.0
N1348 N 0.72818 0.21554 0.89475 0.0
N1349 N 0.77303 0.29541 0.78737 0.0
H1350 H 0.69655 0.19211 0.78904 0.0
H1351 H 0.71919 0.2395 0.76857 0.0
H1352 H 0.79166 0.32588 0.78577 0.0
H1353 H 0.76895 0.2757 0.76756 0.0
H1354 H 0.74078 0.22573 0.91441 0.0
H1355 H 0.71371 0.18057 0.89608 0.0
H1356 H 0.75149 0.30619 0.9131 0.0
H1357 H 0.77975 0.34734 0.89303 0.0
C1358 C 0.24074 0.73173 0.81751 0.0
C1359 C 0.21899 0.72154 0.84257 0.0
C1360 C 0.24857 0.79322 0.8694 0.0
C1361 C 0.27228 0.8004 0.84525 0.0
N1362 N 0.29429 0.77305 0.79769 0.0
N1363 N 0.20606 0.73606 0.89408 0.0
C1364 C 0.26938 0.76854 0.8197 0.0
C1365 C 0.22375 0.75076 0.86896 0.0
N1366 N 0.23304 0.70782 0.79127 0.0
N1367 N 0.24978 0.827 0.8928 0.0
H1368 H 0.18826 0.7045 0.89493 0.0
H1369 H 0.2113 0.75203 0.91476 0.0
H1370 H 0.26881 0.8568 0.89461 0.0
H1371 H 0.23049 0.82788 0.9094 0.0
H1372 H 0.24539 0.71761 0.77143 0.0
H1373 H 0.21202 0.68115 0.78873 0.0
H1374 H 0.29624 0.74686 0.78014 0.0
H1375 H 0.3147 0.80109 0.79791 0.0
C1376 C 0.32278 0.01489 0.26186 0.0
C1377 C 0.3529 0.00828 0.28058 0.0
C1378 C 0.38573 0.96554 0.2405 0.0
C1379 C 0.35509 0.96919 0.22209 0.0
N1380 N 0.29164 0.9858 0.21788 0.0
N1381 N 0.40912 0.96417 0.28995 0.0
C1382 C 0.32274 0.99071 0.2335 0.0
C1383 C 0.38295 0.97904 0.27068 0.0
N1384 N 0.29421 0.04407 0.27117 0.0
N1385 N 0.41837 0.95307 0.22882 0.0
H1386 H 0.40911 0.97507 0.31201 0.0
H1387 H 0.42935 0.9376 0.28451 0.0
H1388 H 0.42199 0.94664 0.20646 0.0
H1389 H 0.44234 0.95547 0.24056 0.0
H1390 H 0.2734 0.05571 0.25733 0.0
H1391 H 0.2923 0.05885 0.29252 0.0
H1392 H 0.26656 0.99652 0.22603 0.0
H1393 H 0.29046 0.96581 0.19789 0.0
C1394 C 0.68287 0.01499 0.24081 0.0
C1395 C 0.65303 0.00702 0.22189 0.0
C1396 C 0.62034 0.96499 0.2623 0.0
C1397 C 0.651 0.969 0.28072 0.0
N1398 N 0.71439 0.98613 0.28466 0.0
N1399 N 0.59706 0.96186 0.21287 0.0
C1400 C 0.68315 0.99096 0.26922 0.0
C1401 C 0.6231 0.97774 0.23203 0.0
N1402 N 0.71102 0.04512 0.23163 0.0
N1403 N 0.58773 0.9525 0.27401 0.0
H1404 H 0.597 0.97206 0.19071 0.0
H1405 H 0.57703 0.93512 0.21854 0.0
H1406 H 0.58411 0.9464 0.29639 0.0
H1407 H 0.56377 0.95463 0.26224 0.0
H1408 H 0.73158 0.05732 0.24558 0.0
H1409 H 0.71263 0.06051 0.21041 0.0
H1410 H 0.73933 0.99729 0.2764 0.0
H1411 H 0.71584 0.96549 0.30443 0.0
C1412 C 0.67969 0.01093 0.76956 0.0
C1413 C 0.64941 0.03877 0.7804 0.0
C1414 C 0.62587 0.04214 0.72995 0.0
C1415 C 0.65139 0.004 0.72083 0.0
N1416 N 0.70445 0.95385 0.73193 0.0
N1417 N 0.5911 0.07747 0.76989 0.0
C1418 C 0.67869 0.98848 0.74078 0.0
C1419 C 0.62196 0.05391 0.7603 0.0
N1420 N 0.71058 0.01022 0.78564 0.0
N1421 N 0.60558 0.06838 0.7098 0.0
H1422 H 0.58607 0.08806 0.79159 0.0
H1423 H 0.56864 0.08234 0.75648 0.0
H1424 H 0.60604 0.05986 0.68754 0.0
H1425 H 0.59029 0.10139 0.71501 0.0
H1426 H 0.7345 0.99378 0.77817 0.0
H1427 H 0.71341 0.03287 0.80461 0.0
H1428 H 0.72249 0.93633 0.74645 0.0
H1429 H 0.70684 0.94148 0.71011 0.0
C1430 C 0.38161 0.95555 0.76106 0.0
C1431 C 0.35282 0.9655 0.7807 0.0
C1432 C 0.32057 0.01052 0.74076 0.0
C1433 C 0.34912 0.99886 0.72103 0.0
N1434 N 0.39979 0.94214 0.7109 0.0
N1435 N 0.29041 0.98801 0.78642 0.0
C1436 C 0.37719 0.96525 0.73059 0.0
C1437 C 0.32091 0.98893 0.76975 0.0
N1438 N 0.41433 0.94057 0.77152 0.0
N1439 N 0.29287 0.0416 0.73171 0.0
H1440 H 0.28928 0.96909 0.80673 0.0
H1441 H 0.26549 1.00056 0.7788 0.0
H1442 H 0.28975 0.05307 0.70984 0.0
H1443 H 0.27381 0.05719 0.74607 0.0
H1444 H 0.43723 0.93828 0.75836 0.0
H1445 H 0.41953 0.93687 0.79385 0.0
H1446 H 0.41805 0.91295 0.71678 0.0
H1447 H 0.39823 0.94863 0.68846 0.0
C1448 C 0.88257 0.51591 0.23236 0.0
C1449 C 0.8528 0.48689 0.22173 0.0
C1450 C 0.82191 0.50222 0.26891 0.0
C1451 C 0.85394 0.52368 0.28089 0.0
N1452 N 0.91735 0.5398 0.27489 0.0
N1453 N 0.79445 0.44926 0.23058 0.0
C1454 C 0.88489 0.52791 0.26277 0.0
C1455 C 0.82259 0.47884 0.24029 0.0
N1456 N 0.90887 0.53226 0.21354 0.0
N1457 N 0.79045 0.50685 0.2841 0.0
H1458 H 0.79306 0.43466 0.20917 0.0
H1459 H 0.7736 0.43687 0.24422 0.0
H1460 H 0.78877 0.52695 0.30404 0.0
H1461 H 0.7656 0.49607 0.27553 0.0
H1462 H 0.92888 0.55871 0.21963 0.0
H1463 H 0.90913 0.52281 0.19127 0.0
H1464 H 0.94148 0.53789 0.2633 0.0
H1465 H 0.92063 0.54515 0.29738 0.0
C1466 C 0.12219 0.51895 0.27371 0.0
C1467 C 0.15254 0.4914 0.28442 0.0
C1468 C 0.18359 0.50834 0.2376 0.0
C1469 C 0.15121 0.52831 0.22549 0.0
N1470 N 0.08753 0.54251 0.23102 0.0
N1471 N 0.21205 0.45746 0.27624 0.0
C1472 C 0.12001 0.5314 0.24336 0.0
C1473 C 0.18323 0.48522 0.26621 0.0
N1474 N 0.09522 0.53331 0.29242 0.0
N1475 N 0.215 0.51384 0.2224 0.0
H1476 H 0.21372 0.44364 0.29777 0.0
H1477 H 0.23334 0.44596 0.26282 0.0
H1478 H 0.21636 0.5331 0.2022 0.0
H1479 H 0.24004 0.50436 0.23105 0.0
H1480 H 0.07458 0.55873 0.28638 0.0
H1481 H 0.09494 0.5233 0.31461 0.0
H1482 H 0.06327 0.53958 0.24236 0.0
H1483 H 0.08445 0.54846 0.20857 0.0
C1484 C 0.17842 0.50352 0.77078 0.0
C1485 C 0.1479 0.53121 0.78119 0.0
C1486 C 0.12084 0.52402 0.73198 0.0
C1487 C 0.14863 0.4892 0.72317 0.0
N1488 N 0.2028 0.4421 0.73528 0.0
N1489 N 0.08728 0.56219 0.77203 0.0
C1490 C 0.17699 0.47753 0.743 0.0
C1491 C 0.11849 0.54039 0.76182 0.0
N1492 N 0.20966 0.50537 0.78642 0.0
N1493 N 0.09642 0.54171 0.71189 0.0
H1494 H 0.08332 0.57453 0.79362 0.0
H1495 H 0.06366 0.56329 0.75979 0.0
H1496 H 0.09515 0.52782 0.69042 0.0
H1497 H 0.07895 0.57282 0.71596 0.0
H1498 H 0.23376 0.48957 0.77888 0.0
H1499 H 0.21244 0.52871 0.80513 0.0
H1500 H 0.22171 0.4276 0.75008 0.0
H1501 H 0.20383 0.42469 0.71455 0.0
C1502 C 0.88183 0.54205 0.74171 0.0
C1503 C 0.85162 0.53622 0.72297 0.0
C1504 C 0.81909 0.49291 0.76348 0.0
C1505 C 0.84875 0.50166 0.78249 0.0
N1506 N 0.90429 0.54811 0.79125 0.0
N1507 N 0.78824 0.51913 0.71879 0.0
C1508 C 0.87858 0.53101 0.77217 0.0
C1509 C 0.81925 0.51519 0.73462 0.0
N1510 N 0.91461 0.55422 0.73018 0.0
N1511 N 0.79066 0.46367 0.773 0.0
H1512 H 0.78711 0.53848 0.6986 0.0
H1513 H 0.76315 0.5086 0.72702 0.0
H1514 H 0.78839 0.4504 0.79463 0.0
H1515 H 0.77034 0.45051 0.75908 0.0
H1516 H 0.93834 0.55316 0.74231 0.0
H1517 H 0.91872 0.55909 0.70776 0.0
H1518 H 0.92397 0.57528 0.78541 0.0
H1519 H 0.90466 0.53787 0.81336 0.0
loop_
_geom_bond_atom_site_label_1
_geom_bond_atom_site_label_2
_geom_bond_distance
_geom_bond_site_symmetry_2
_ccdc_geom_bond_type
Co0 O2 2.143 1_565 S
Co0 O8 2.074 . S
Co0 O11 2.093 . S
Co0 O24 2.100 . S
Co0 N41 2.151 . S
Co0 N49 2.214 . S
Co1 O2 2.160 . S
Co1 O7 2.058 . S
Co1 O17 2.057 . S
Co1 O32 2.037 . S
Co1 N36 2.145 . S
Co1 N57 2.257 . S
O2 Co0 2.143 1_545 S
O2 Co1 2.160 . S
C3 O4 1.278 . S
C3 O11 1.224 1_545 S
O4 C3 1.278 . S
C5 O6 1.245 . S
C5 O17 1.232 . S
O6 C5 1.245 . S
O7 Co1 2.058 . S
O7 C33 1.269 . S
O8 Co0 2.074 . S
O8 C33 1.257 1_565 S
H9 C34 0.930 . S
H10 C40 0.930 . S
O11 Co0 2.093 . S
O11 C3 1.224 1_565 S
H12 C44 0.929 . S
H13 C46 0.930 . S
H14 C47 0.930 . S
H15 C45 0.929 . S
H16 C48 0.928 . S
O17 Co1 2.057 . S
O17 C5 1.232 . S
H18 C37 0.929 . S
H19 C38 0.929 . S
H20 C50 0.931 . S
H21 C42 0.929 . S
H22 C51 0.930 . S
H23 C43 0.931 . S
O24 Co0 2.100 . S
O24 C52 1.208 1_565 S
H25 C53 0.929 . S
H26 C54 0.929 . S
H27 C55 0.930 . S
H28 C56 0.929 . S
H29 C58 0.930 . S
H30 C35 0.930 . S
H31 C39 0.930 . S
O32 Co1 2.037 . S
O32 C52 1.234 . S
C33 O7 1.269 . S
C33 O8 1.257 1_545 S
C34 H9 0.930 . S
C34 C37 1.388 . S
C34 C39 1.418 . S
C35 H30 0.930 . S
C35 C38 1.404 . S
C35 C39 1.353 . S
N36 Co1 2.145 . S
N36 C37 1.397 . S
N36 C38 1.334 . S
C37 H18 0.929 . S
C37 C34 1.388 . S
C37 N36 1.397 . S
C38 H19 0.929 . S
C38 C35 1.404 . S
C38 N36 1.334 . S
C39 H31 0.930 . S
C39 C34 1.418 . S
C39 C35 1.353 . S
C40 H10 0.930 . S
C40 N41 1.330 . S
C40 C42 1.446 . S
N41 Co0 2.151 . S
N41 C40 1.330 . S
N41 C45 1.418 . S
C42 H21 0.929 . S
C42 C40 1.446 . S
C42 C43 1.332 . S
C43 H23 0.931 . S
C43 C42 1.332 . S
C43 C44 1.267 . S
C44 H12 0.929 . S
C44 C43 1.267 . S
C44 C45 1.251 . S
C45 H15 0.929 . S
C45 N41 1.418 . S
C45 C44 1.251 . S
C46 H13 0.930 . S
C46 C48 1.406 . S
C46 C51 1.261 . S
C47 H14 0.930 . S
C47 N49 1.325 . S
C47 C50 1.357 . S
C48 H16 0.928 . S
C48 C46 1.406 . S
C48 N49 1.261 . S
N49 Co0 2.214 . S
N49 C47 1.325 . S
N49 C48 1.261 . S
C50 H20 0.931 . S
C50 C47 1.357 . S
C50 C51 1.312 . S
C51 H22 0.930 . S
C51 C46 1.261 . S
C51 C50 1.312 . S
C52 O24 1.208 1_545 S
C52 O32 1.234 . S
C53 H25 0.929 . S
C53 C56 1.391 . S
C53 C58 1.391 . S
C54 H26 0.929 . S
C54 C55 1.390 . S
C54 N57 1.391 . S
C55 H27 0.930 . S
C55 C54 1.390 . S
C55 C56 1.392 . S
C56 H28 0.929 . S
C56 C53 1.391 . S
C56 C55 1.392 . S
N57 Co1 2.257 . S
N57 C54 1.391 . S
N57 C58 1.388 . S
C58 H29 0.930 . S
C58 C53 1.391 . S
C58 N57 1.388 . S
Co59 O61 2.143 1_545 S
Co59 O67 2.074 . S
Co59 O70 2.093 . S
Co59 O83 2.100 . S
Co59 N100 2.151 . S
Co59 N108 2.214 . S
Co60 O61 2.160 . S
Co60 O66 2.058 . S
Co60 O76 2.057 . S
Co60 O91 2.037 . S
Co60 N95 2.145 . S
Co60 N116 2.257 . S
O61 Co59 2.143 1_565 S
O61 Co60 2.160 . S
C62 O63 1.278 . S
C62 O70 1.224 1_565 S
O63 C62 1.278 . S
C64 O65 1.245 . S
C64 O76 1.232 . S
O65 C64 1.245 . S
O66 Co60 2.058 . S
O66 C92 1.269 . S
O67 Co59 2.074 . S
O67 C92 1.257 1_545 S
H68 C93 0.930 . S
H69 C99 0.930 . S
O70 Co59 2.093 . S
O70 C62 1.224 1_545 S
H71 C103 0.929 . S
H72 C105 0.930 . S
H73 C106 0.930 . S
H74 C104 0.929 . S
H75 C107 0.928 . S
O76 Co60 2.057 . S
O76 C64 1.232 . S
H77 C96 0.929 . S
H78 C97 0.929 . S
H79 C109 0.931 . S
H80 C101 0.929 . S
H81 C110 0.930 . S
H82 C102 0.931 . S
O83 Co59 2.100 . S
O83 C111 1.208 1_545 S
H84 C112 0.929 . S
H85 C113 0.929 . S
H86 C114 0.930 . S
H87 C115 0.929 . S
H88 C117 0.930 . S
H89 C94 0.930 . S
H90 C98 0.930 . S
O91 Co60 2.037 . S
O91 C111 1.234 . S
C92 O66 1.269 . S
C92 O67 1.257 1_565 S
C93 H68 0.930 . S
C93 C96 1.388 . S
C93 C98 1.418 . S
C94 H89 0.930 . S
C94 C97 1.404 . S
C94 C98 1.353 . S
N95 Co60 2.145 . S
N95 C96 1.397 . S
N95 C97 1.334 . S
C96 H77 0.929 . S
C96 C93 1.388 . S
C96 N95 1.397 . S
C97 H78 0.929 . S
C97 C94 1.404 . S
C97 N95 1.334 . S
C98 H90 0.930 . S
C98 C93 1.418 . S
C98 C94 1.353 . S
C99 H69 0.930 . S
C99 N100 1.330 . S
C99 C101 1.446 . S
N100 Co59 2.151 . S
N100 C99 1.330 . S
N100 C104 1.418 . S
C101 H80 0.929 . S
C101 C99 1.446 . S
C101 C102 1.332 . S
C102 H82 0.931 . S
C102 C101 1.332 . S
C102 C103 1.267 . S
C103 H71 0.929 . S
C103 C102 1.267 . S
C103 C104 1.251 . S
C104 H74 0.929 . S
C104 N100 1.418 . S
C104 C103 1.251 . S
C105 H72 0.930 . S
C105 C107 1.406 . S
C105 C110 1.261 . S
C106 H73 0.930 . S
C106 N108 1.325 . S
C106 C109 1.357 . S
C107 H75 0.928 . S
C107 C105 1.406 . S
C107 N108 1.261 . S
N108 Co59 2.214 . S
N108 C106 1.325 . S
N108 C107 1.261 . S
C109 H79 0.931 . S
C109 C106 1.357 . S
C109 C110 1.312 . S
C110 H81 0.930 . S
C110 C105 1.261 . S
C110 C109 1.312 . S
C111 O83 1.208 1_565 S
C111 O91 1.234 . S
C112 H84 0.929 . S
C112 C115 1.391 . S
C112 C117 1.391 . S
C113 H85 0.929 . S
C113 C114 1.390 . S
C113 N116 1.391 . S
C114 H86 0.930 . S
C114 C113 1.390 . S
C114 C115 1.392 . S
C115 H87 0.929 . S
C115 C112 1.391 . S
C115 C114 1.392 . S
N116 Co60 2.257 . S
N116 C113 1.391 . S
N116 C117 1.388 . S
C117 H88 0.930 . S
C117 C112 1.391 . S
C117 N116 1.388 . S
Co118 O120 2.143 1_545 S
Co118 O126 2.074 . S
Co118 O129 2.093 . S
Co118 O142 2.100 . S
Co118 N159 2.151 . S
Co118 N167 2.214 . S
Co119 O120 2.160 . S
Co119 O125 2.058 . S
Co119 O135 2.057 . S
Co119 O150 2.037 . S
Co119 N154 2.145 . S
Co119 N175 2.257 . S
O120 Co118 2.143 1_565 S
O120 Co119 2.160 . S
C121 O122 1.278 . S
C121 O129 1.224 1_565 S
O122 C121 1.278 . S
C123 O124 1.245 . S
C123 O135 1.232 . S
O124 C123 1.245 . S
O125 Co119 2.058 . S
O125 C151 1.269 . S
O126 Co118 2.074 . S
O126 C151 1.257 1_545 S
H127 C152 0.930 . S
H128 C158 0.930 . S
O129 Co118 2.093 . S
O129 C121 1.224 1_545 S
H130 C162 0.929 . S
H131 C164 0.930 . S
H132 C165 0.930 . S
H133 C163 0.929 . S
H134 C166 0.928 . S
O135 Co119 2.057 . S
O135 C123 1.232 . S
H136 C155 0.929 . S
H137 C156 0.929 . S
H138 C168 0.931 . S
H139 C160 0.929 . S
H140 C169 0.930 . S
H141 C161 0.931 . S
O142 Co118 2.100 . S
O142 C170 1.208 1_545 S
H143 C171 0.929 . S
H144 C172 0.929 . S
H145 C173 0.930 . S
H146 C174 0.929 . S
H147 C176 0.930 . S
H148 C153 0.930 . S
H149 C157 0.930 . S
O150 Co119 2.037 . S
O150 C170 1.234 . S
C151 O125 1.269 . S
C151 O126 1.257 1_565 S
C152 H127 0.930 . S
C152 C155 1.388 . S
C152 C157 1.418 . S
C153 H148 0.930 . S
C153 C156 1.404 . S
C153 C157 1.353 . S
N154 Co119 2.145 . S
N154 C155 1.397 . S
N154 C156 1.334 . S
C155 H136 0.929 . S
C155 C152 1.388 . S
C155 N154 1.397 . S
C156 H137 0.929 . S
C156 C153 1.404 . S
C156 N154 1.334 . S
C157 H149 0.930 . S
C157 C152 1.418 . S
C157 C153 1.353 . S
C158 H128 0.930 . S
C158 N159 1.330 . S
C158 C160 1.446 . S
N159 Co118 2.151 . S
N159 C158 1.330 . S
N159 C163 1.418 . S
C160 H139 0.929 . S
C160 C158 1.446 . S
C160 C161 1.332 . S
C161 H141 0.931 . S
C161 C160 1.332 . S
C161 C162 1.267 . S
C162 H130 0.929 . S
C162 C161 1.267 . S
C162 C163 1.251 . S
C163 H133 0.929 . S
C163 N159 1.418 . S
C163 C162 1.251 . S
C164 H131 0.930 . S
C164 C166 1.406 . S
C164 C169 1.261 . S
C165 H132 0.930 . S
C165 N167 1.325 . S
C165 C168 1.357 . S
C166 H134 0.928 . S
C166 C164 1.406 . S
C166 N167 1.261 . S
N167 Co118 2.214 . S
N167 C165 1.325 . S
N167 C166 1.261 . S
C168 H138 0.931 . S
C168 C165 1.357 . S
C168 C169 1.312 . S
C169 H140 0.930 . S
C169 C164 1.261 . S
C169 C168 1.312 . S
C170 O142 1.208 1_565 S
C170 O150 1.234 . S
C171 H143 0.929 . S
C171 C174 1.391 . S
C171 C176 1.391 . S
C172 H144 0.929 . S
C172 C173 1.390 . S
C172 N175 1.391 . S
C173 H145 0.930 . S
C173 C172 1.390 . S
C173 C174 1.392 . S
C174 H146 0.929 . S
C174 C171 1.391 . S
C174 C173 1.392 . S
N175 Co119 2.257 . S
N175 C172 1.391 . S
N175 C176 1.388 . S
C176 H147 0.930 . S
C176 C171 1.391 . S
C176 N175 1.388 . S
Co177 O179 2.143 1_565 S
Co177 O185 2.074 . S
Co177 O188 2.093 . S
Co177 O201 2.100 . S
Co177 N218 2.151 . S
Co177 N226 2.214 . S
Co178 O179 2.160 . S
Co178 O184 2.058 . S
Co178 O194 2.057 . S
Co178 O209 2.037 . S
Co178 N213 2.145 . S
Co178 N234 2.257 . S
O179 Co177 2.143 1_545 S
O179 Co178 2.160 . S
C180 O181 1.278 . S
C180 O188 1.224 1_545 S
O181 C180 1.278 . S
C182 O183 1.245 . S
C182 O194 1.232 . S
O183 C182 1.245 . S
O184 Co178 2.058 . S
O184 C210 1.269 . S
O185 Co177 2.074 . S
O185 C210 1.257 1_565 S
H186 C211 0.930 . S
H187 C217 0.930 . S
O188 Co177 2.093 . S
O188 C180 1.224 1_565 S
H189 C221 0.929 . S
H190 C223 0.930 . S
H191 C224 0.930 . S
H192 C222 0.929 . S
H193 C225 0.928 . S
O194 Co178 2.057 . S
O194 C182 1.232 . S
H195 C214 0.929 . S
H196 C215 0.929 . S
H197 C227 0.931 . S
H198 C219 0.929 . S
H199 C228 0.930 . S
H200 C220 0.931 . S
O201 Co177 2.100 . S
O201 C229 1.208 1_565 S
H202 C230 0.929 . S
H203 C231 0.929 . S
H204 C232 0.930 . S
H205 C233 0.929 . S
H206 C235 0.930 . S
H207 C212 0.930 . S
H208 C216 0.930 . S
O209 Co178 2.037 . S
O209 C229 1.234 . S
C210 O184 1.269 . S
C210 O185 1.257 1_545 S
C211 H186 0.930 . S
C211 C214 1.388 . S
C211 C216 1.418 . S
C212 H207 0.930 . S
C212 C215 1.404 . S
C212 C216 1.353 . S
N213 Co178 2.145 . S
N213 C214 1.397 . S
N213 C215 1.334 . S
C214 H195 0.929 . S
C214 C211 1.388 . S
C214 N213 1.397 . S
C215 H196 0.929 . S
C215 C212 1.404 . S
C215 N213 1.334 . S
C216 H208 0.930 . S
C216 C211 1.418 . S
C216 C212 1.353 . S
C217 H187 0.930 . S
C217 N218 1.330 . S
C217 C219 1.446 . S
N218 Co177 2.151 . S
N218 C217 1.330 . S
N218 C222 1.418 . S
C219 H198 0.929 . S
C219 C217 1.446 . S
C219 C220 1.332 . S
C220 H200 0.931 . S
C220 C219 1.332 . S
C220 C221 1.267 . S
C221 H189 0.929 . S
C221 C220 1.267 . S
C221 C222 1.251 . S
C222 H192 0.929 . S
C222 N218 1.418 . S
C222 C221 1.251 . S
C223 H190 0.930 . S
C223 C225 1.406 . S
C223 C228 1.261 . S
C224 H191 0.930 . S
C224 N226 1.325 . S
C224 C227 1.357 . S
C225 H193 0.928 . S
C225 C223 1.406 . S
C225 N226 1.261 . S
N226 Co177 2.214 . S
N226 C224 1.325 . S
N226 C225 1.261 . S
C227 H197 0.931 . S
C227 C224 1.357 . S
C227 C228 1.312 . S
C228 H199 0.930 . S
C228 C223 1.261 . S
C228 C227 1.312 . S
C229 O201 1.208 1_545 S
C229 O209 1.234 . S
C230 H202 0.929 . S
C230 C233 1.391 . S
C230 C235 1.391 . S
C231 H203 0.929 . S
C231 C232 1.390 . S
C231 N234 1.391 . S
C232 H204 0.930 . S
C232 C231 1.390 . S
C232 C233 1.392 . S
C233 H205 0.929 . S
C233 C230 1.391 . S
C233 C232 1.392 . S
N234 Co178 2.257 . S
N234 C231 1.391 . S
N234 C235 1.388 . S
C235 H206 0.930 . S
C235 C230 1.391 . S
C235 N234 1.388 . S
Co236 O238 2.143 1_545 S
Co236 O244 2.074 . S
Co236 O247 2.093 . S
Co236 O260 2.100 . S
Co236 N277 2.151 . S
Co236 N285 2.214 . S
Co237 O238 2.160 . S
Co237 O243 2.058 . S
Co237 O253 2.057 . S
Co237 O268 2.037 . S
Co237 N272 2.145 . S
Co237 N293 2.257 . S
O238 Co236 2.143 1_565 S
O238 Co237 2.160 . S
C239 O240 1.278 . S
C239 O247 1.224 1_565 S
O240 C239 1.278 . S
C241 O242 1.245 . S
C241 O253 1.232 . S
O242 C241 1.245 . S
O243 Co237 2.058 . S
O243 C269 1.269 . S
O244 Co236 2.074 . S
O244 C269 1.257 1_545 S
H245 C270 0.930 . S
H246 C276 0.930 . S
O247 Co236 2.093 . S
O247 C239 1.224 1_545 S
H248 C280 0.929 . S
H249 C282 0.930 . S
H250 C283 0.930 . S
H251 C281 0.929 . S
H252 C284 0.928 . S
O253 Co237 2.057 . S
O253 C241 1.232 . S
H254 C273 0.929 . S
H255 C274 0.929 . S
H256 C286 0.931 . S
H257 C278 0.929 . S
H258 C287 0.930 . S
H259 C279 0.931 . S
O260 Co236 2.100 . S
O260 C288 1.208 1_545 S
H261 C289 0.929 . S
H262 C290 0.929 . S
H263 C291 0.930 . S
H264 C292 0.929 . S
H265 C294 0.930 . S
H266 C271 0.930 . S
H267 C275 0.930 . S
O268 Co237 2.037 . S
O268 C288 1.234 . S
C269 O243 1.269 . S
C269 O244 1.257 1_565 S
C270 H245 0.930 . S
C270 C273 1.388 . S
C270 C275 1.418 . S
C271 H266 0.930 . S
C271 C274 1.404 . S
C271 C275 1.353 . S
N272 Co237 2.145 . S
N272 C273 1.397 . S
N272 C274 1.334 . S
C273 H254 0.929 . S
C273 C270 1.388 . S
C273 N272 1.397 . S
C274 H255 0.929 . S
C274 C271 1.404 . S
C274 N272 1.334 . S
C275 H267 0.930 . S
C275 C270 1.418 . S
C275 C271 1.353 . S
C276 H246 0.930 . S
C276 N277 1.330 . S
C276 C278 1.446 . S
N277 Co236 2.151 . S
N277 C276 1.330 . S
N277 C281 1.418 . S
C278 H257 0.929 . S
C278 C276 1.446 . S
C278 C279 1.332 . S
C279 H259 0.931 . S
C279 C278 1.332 . S
C279 C280 1.267 . S
C280 H248 0.929 . S
C280 C279 1.267 . S
C280 C281 1.251 . S
C281 H251 0.929 . S
C281 N277 1.418 . S
C281 C280 1.251 . S
C282 H249 0.930 . S
C282 C284 1.406 . S
C282 C287 1.261 . S
C283 H250 0.930 . S
C283 N285 1.325 . S
C283 C286 1.357 . S
C284 H252 0.928 . S
C284 C282 1.406 . S
C284 N285 1.261 . S
N285 Co236 2.214 . S
N285 C283 1.325 . S
N285 C284 1.261 . S
C286 H256 0.931 . S
C286 C283 1.357 . S
C286 C287 1.312 . S
C287 H258 0.930 . S
C287 C282 1.261 . S
C287 C286 1.312 . S
C288 O260 1.208 1_565 S
C288 O268 1.234 . S
C289 H261 0.929 . S
C289 C292 1.391 . S
C289 C294 1.391 . S
C290 H262 0.929 . S
C290 C291 1.390 . S
C290 N293 1.391 . S
C291 H263 0.930 . S
C291 C290 1.390 . S
C291 C292 1.392 . S
C292 H264 0.929 . S
C292 C289 1.391 . S
C292 C291 1.392 . S
N293 Co237 2.257 . S
N293 C290 1.391 . S
N293 C294 1.388 . S
C294 H265 0.930 . S
C294 C289 1.391 . S
C294 N293 1.388 . S
Co295 O297 2.143 1_565 S
Co295 O303 2.074 . S
Co295 O306 2.093 . S
Co295 O319 2.100 . S
Co295 N336 2.151 . S
Co295 N344 2.214 . S
Co296 O297 2.160 . S
Co296 O302 2.058 . S
Co296 O312 2.057 . S
Co296 O327 2.037 . S
Co296 N331 2.145 . S
Co296 N352 2.257 . S
O297 Co295 2.143 1_545 S
O297 Co296 2.160 . S
C298 O299 1.278 . S
C298 O306 1.224 1_545 S
O299 C298 1.278 . S
C300 O301 1.245 . S
C300 O312 1.232 . S
O301 C300 1.245 . S
O302 Co296 2.058 . S
O302 C328 1.269 . S
O303 Co295 2.074 . S
O303 C328 1.257 1_565 S
H304 C329 0.930 . S
H305 C335 0.930 . S
O306 Co295 2.093 . S
O306 C298 1.224 1_565 S
H307 C339 0.929 . S
H308 C341 0.930 . S
H309 C342 0.930 . S
H310 C340 0.929 . S
H311 C343 0.928 . S
O312 Co296 2.057 . S
O312 C300 1.232 . S
H313 C332 0.929 . S
H314 C333 0.929 . S
H315 C345 0.931 . S
H316 C337 0.929 . S
H317 C346 0.930 . S
H318 C338 0.931 . S
O319 Co295 2.100 . S
O319 C347 1.208 1_565 S
H320 C348 0.929 . S
H321 C349 0.929 . S
H322 C350 0.930 . S
H323 C351 0.929 . S
H324 C353 0.930 . S
H325 C330 0.930 . S
H326 C334 0.930 . S
O327 Co296 2.037 . S
O327 C347 1.234 . S
C328 O302 1.269 . S
C328 O303 1.257 1_545 S
C329 H304 0.930 . S
C329 C332 1.388 . S
C329 C334 1.418 . S
C330 H325 0.930 . S
C330 C333 1.404 . S
C330 C334 1.353 . S
N331 Co296 2.145 . S
N331 C332 1.397 . S
N331 C333 1.334 . S
C332 H313 0.929 . S
C332 C329 1.388 . S
C332 N331 1.397 . S
C333 H314 0.929 . S
C333 C330 1.404 . S
C333 N331 1.334 . S
C334 H326 0.930 . S
C334 C329 1.418 . S
C334 C330 1.353 . S
C335 H305 0.930 . S
C335 N336 1.330 . S
C335 C337 1.446 . S
N336 Co295 2.151 . S
N336 C335 1.330 . S
N336 C340 1.418 . S
C337 H316 0.929 . S
C337 C335 1.446 . S
C337 C338 1.332 . S
C338 H318 0.931 . S
C338 C337 1.332 . S
C338 C339 1.267 . S
C339 H307 0.929 . S
C339 C338 1.267 . S
C339 C340 1.251 . S
C340 H310 0.929 . S
C340 N336 1.418 . S
C340 C339 1.251 . S
C341 H308 0.930 . S
C341 C343 1.406 . S
C341 C346 1.261 . S
C342 H309 0.930 . S
C342 N344 1.325 . S
C342 C345 1.357 . S
C343 H311 0.928 . S
C343 C341 1.406 . S
C343 N344 1.261 . S
N344 Co295 2.214 . S
N344 C342 1.325 . S
N344 C343 1.261 . S
C345 H315 0.931 . S
C345 C342 1.357 . S
C345 C346 1.312 . S
C346 H317 0.930 . S
C346 C341 1.261 . S
C346 C345 1.312 . S
C347 O319 1.208 1_545 S
C347 O327 1.234 . S
C348 H320 0.929 . S
C348 C351 1.391 . S
C348 C353 1.391 . S
C349 H321 0.929 . S
C349 C350 1.390 . S
C349 N352 1.391 . S
C350 H322 0.930 . S
C350 C349 1.390 . S
C350 C351 1.392 . S
C351 H323 0.929 . S
C351 C348 1.391 . S
C351 C350 1.392 . S
N352 Co296 2.257 . S
N352 C349 1.391 . S
N352 C353 1.388 . S
C353 H324 0.930 . S
C353 C348 1.391 . S
C353 N352 1.388 . S
Co354 O356 2.143 1_565 S
Co354 O362 2.074 . S
Co354 O365 2.093 . S
Co354 O378 2.100 . S
Co354 N395 2.151 . S
Co354 N403 2.214 . S
Co355 O356 2.160 . S
Co355 O361 2.058 . S
Co355 O371 2.057 . S
Co355 O386 2.037 . S
Co355 N390 2.145 . S
Co355 N411 2.257 . S
O356 Co354 2.143 1_545 S
O356 Co355 2.160 . S
C357 O358 1.278 . S
C357 O365 1.224 1_545 S
O358 C357 1.278 . S
C359 O360 1.245 . S
C359 O371 1.232 . S
O360 C359 1.245 . S
O361 Co355 2.058 . S
O361 C387 1.269 . S
O362 Co354 2.074 . S
O362 C387 1.257 1_565 S
H363 C388 0.930 . S
H364 C394 0.930 . S
O365 Co354 2.093 . S
O365 C357 1.224 1_565 S
H366 C398 0.929 . S
H367 C400 0.930 . S
H368 C401 0.930 . S
H369 C399 0.929 . S
H370 C402 0.928 . S
O371 Co355 2.057 . S
O371 C359 1.232 . S
H372 C391 0.929 . S
H373 C392 0.929 . S
H374 C404 0.931 . S
H375 C396 0.929 . S
H376 C405 0.930 . S
H377 C397 0.931 . S
O378 Co354 2.100 . S
O378 C406 1.208 1_565 S
H379 C407 0.929 . S
H380 C408 0.929 . S
H381 C409 0.930 . S
H382 C410 0.929 . S
H383 C412 0.930 . S
H384 C389 0.930 . S
H385 C393 0.930 . S
O386 Co355 2.037 . S
O386 C406 1.234 . S
C387 O361 1.269 . S
C387 O362 1.257 1_545 S
C388 H363 0.930 . S
C388 C391 1.388 . S
C388 C393 1.418 . S
C389 H384 0.930 . S
C389 C392 1.404 . S
C389 C393 1.353 . S
N390 Co355 2.145 . S
N390 C391 1.397 . S
N390 C392 1.334 . S
C391 H372 0.929 . S
C391 C388 1.388 . S
C391 N390 1.397 . S
C392 H373 0.929 . S
C392 C389 1.404 . S
C392 N390 1.334 . S
C393 H385 0.930 . S
C393 C388 1.418 . S
C393 C389 1.353 . S
C394 H364 0.930 . S
C394 N395 1.330 . S
C394 C396 1.446 . S
N395 Co354 2.151 . S
N395 C394 1.330 . S
N395 C399 1.418 . S
C396 H375 0.929 . S
C396 C394 1.446 . S
C396 C397 1.332 . S
C397 H377 0.931 . S
C397 C396 1.332 . S
C397 C398 1.267 . S
C398 H366 0.929 . S
C398 C397 1.267 . S
C398 C399 1.251 . S
C399 H369 0.929 . S
C399 N395 1.418 . S
C399 C398 1.251 . S
C400 H367 0.930 . S
C400 C402 1.406 . S
C400 C405 1.261 . S
C401 H368 0.930 . S
C401 N403 1.325 . S
C401 C404 1.357 . S
C402 H370 0.928 . S
C402 C400 1.406 . S
C402 N403 1.261 . S
N403 Co354 2.214 . S
N403 C401 1.325 . S
N403 C402 1.261 . S
C404 H374 0.931 . S
C404 C401 1.357 . S
C404 C405 1.312 . S
C405 H376 0.930 . S
C405 C400 1.261 . S
C405 C404 1.312 . S
C406 O378 1.208 1_545 S
C406 O386 1.234 . S
C407 H379 0.929 . S
C407 C410 1.391 . S
C407 C412 1.391 . S
C408 H380 0.929 . S
C408 C409 1.390 . S
C408 N411 1.391 . S
C409 H381 0.930 . S
C409 C408 1.390 . S
C409 C410 1.392 . S
C410 H382 0.929 . S
C410 C407 1.391 . S
C410 C409 1.392 . S
N411 Co355 2.257 . S
N411 C408 1.391 . S
N411 C412 1.388 . S
C412 H383 0.930 . S
C412 C407 1.391 . S
C412 N411 1.388 . S
Co413 O415 2.143 1_545 S
Co413 O421 2.074 . S
Co413 O424 2.093 . S
Co413 O437 2.100 . S
Co413 N454 2.151 . S
Co413 N462 2.214 . S
Co414 O415 2.160 . S
Co414 O420 2.058 . S
Co414 O430 2.057 . S
Co414 O445 2.037 . S
Co414 N449 2.145 . S
Co414 N470 2.257 . S
O415 Co413 2.143 1_565 S
O415 Co414 2.160 . S
C416 O417 1.278 . S
C416 O424 1.224 1_565 S
O417 C416 1.278 . S
C418 O419 1.245 . S
C418 O430 1.232 . S
O419 C418 1.245 . S
O420 Co414 2.058 . S
O420 C446 1.269 . S
O421 Co413 2.074 . S
O421 C446 1.257 1_545 S
H422 C447 0.930 . S
H423 C453 0.930 . S
O424 Co413 2.093 . S
O424 C416 1.224 1_545 S
H425 C457 0.929 . S
H426 C459 0.930 . S
H427 C460 0.930 . S
H428 C458 0.929 . S
H429 C461 0.928 . S
O430 Co414 2.057 . S
O430 C418 1.232 . S
H431 C450 0.929 . S
H432 C451 0.929 . S
H433 C463 0.931 . S
H434 C455 0.929 . S
H435 C464 0.930 . S
H436 C456 0.931 . S
O437 Co413 2.100 . S
O437 C465 1.208 1_545 S
H438 C466 0.929 . S
H439 C467 0.929 . S
H440 C468 0.930 . S
H441 C469 0.929 . S
H442 C471 0.930 . S
H443 C448 0.930 . S
H444 C452 0.930 . S
O445 Co414 2.037 . S
O445 C465 1.234 . S
C446 O420 1.269 . S
C446 O421 1.257 1_565 S
C447 H422 0.930 . S
C447 C450 1.388 . S
C447 C452 1.418 . S
C448 H443 0.930 . S
C448 C451 1.404 . S
C448 C452 1.353 . S
N449 Co414 2.145 . S
N449 C450 1.397 . S
N449 C451 1.334 . S
C450 H431 0.929 . S
C450 C447 1.388 . S
C450 N449 1.397 . S
C451 H432 0.929 . S
C451 C448 1.404 . S
C451 N449 1.334 . S
C452 H444 0.930 . S
C452 C447 1.418 . S
C452 C448 1.353 . S
C453 H423 0.930 . S
C453 N454 1.330 . S
C453 C455 1.446 . S
N454 Co413 2.151 . S
N454 C453 1.330 . S
N454 C458 1.418 . S
C455 H434 0.929 . S
C455 C453 1.446 . S
C455 C456 1.332 . S
C456 H436 0.931 . S
C456 C455 1.332 . S
C456 C457 1.267 . S
C457 H425 0.929 . S
C457 C456 1.267 . S
C457 C458 1.251 . S
C458 H428 0.929 . S
C458 N454 1.418 . S
C458 C457 1.251 . S
C459 H426 0.930 . S
C459 C461 1.406 . S
C459 C464 1.261 . S
C460 H427 0.930 . S
C460 N462 1.325 . S
C460 C463 1.357 . S
C461 H429 0.928 . S
C461 C459 1.406 . S
C461 N462 1.261 . S
N462 Co413 2.214 . S
N462 C460 1.325 . S
N462 C461 1.261 . S
C463 H433 0.931 . S
C463 C460 1.357 . S
C463 C464 1.312 . S
C464 H435 0.930 . S
C464 C459 1.261 . S
C464 C463 1.312 . S
C465 O437 1.208 1_565 S
C465 O445 1.234 . S
C466 H438 0.929 . S
C466 C469 1.391 . S
C466 C471 1.391 . S
C467 H439 0.929 . S
C467 C468 1.390 . S
C467 N470 1.391 . S
C468 H440 0.930 . S
C468 C467 1.390 . S
C468 C469 1.392 . S
C469 H441 0.929 . S
C469 C466 1.391 . S
C469 C468 1.392 . S
N470 Co414 2.257 . S
N470 C467 1.391 . S
N470 C471 1.388 . S
C471 H442 0.930 . S
C471 C466 1.391 . S
C471 N470 1.388 . S
Co472 O474 2.143 . S
Co472 O480 2.074 . S
Co472 O483 2.093 . S
Co472 O496 2.097 . S
Co472 N513 2.151 . S
Co472 N521 2.214 . S
Co473 O474 2.160 . S
Co473 O479 2.058 . S
Co473 O489 2.057 . S
Co473 O504 2.037 . S
Co473 N508 2.145 . S
Co473 N529 2.257 . S
O474 Co472 2.143 . S
O474 Co473 2.160 . S
C475 O476 1.278 . S
C475 O483 1.224 . S
O476 C475 1.278 . S
C477 O478 1.245 . S
C477 O489 1.232 . S
O478 C477 1.245 . S
O479 Co473 2.058 . S
O479 C505 1.269 . S
O480 Co472 2.074 . S
O480 C505 1.257 . S
H481 C506 0.930 . S
H482 C512 0.930 . S
O483 Co472 2.093 . S
O483 C475 1.224 . S
H484 C516 0.929 . S
H485 C518 0.930 . S
H486 C519 0.930 . S
H487 C517 0.929 . S
H488 C520 0.928 . S
O489 Co473 2.057 . S
O489 C477 1.232 . S
H490 C509 0.929 . S
H491 C510 0.929 . S
H492 C522 0.931 . S
H493 C514 0.929 . S
H494 C523 0.930 . S
H495 C515 0.931 . S
O496 Co472 2.097 . S
O496 C524 1.214 . S
H497 C525 0.929 . S
H498 C526 0.929 . S
H499 C527 0.930 . S
H500 C528 0.929 . S
H501 C530 0.930 . S
H502 C507 0.930 . S
H503 C511 0.930 . S
O504 Co473 2.037 . S
O504 C524 1.234 . S
C505 O479 1.269 . S
C505 O480 1.257 . S
C506 H481 0.930 . S
C506 C509 1.388 . S
C506 C511 1.418 . S
C507 H502 0.930 . S
C507 C510 1.404 . S
C507 C511 1.353 . S
N508 Co473 2.145 . S
N508 C509 1.397 . S
N508 C510 1.334 . S
C509 H490 0.929 . S
C509 C506 1.388 . S
C509 N508 1.397 . S
C510 H491 0.929 . S
C510 C507 1.404 . S
C510 N508 1.334 . S
C511 H503 0.930 . S
C511 C506 1.418 . S
C511 C507 1.353 . S
C512 H482 0.930 . S
C512 N513 1.330 . S
C512 C514 1.446 . S
N513 Co472 2.151 . S
N513 C512 1.330 . S
N513 C517 1.418 . S
C514 H493 0.929 . S
C514 C512 1.446 . S
C514 C515 1.332 . S
C515 H495 0.931 . S
C515 C514 1.332 . S
C515 C516 1.267 . S
C516 H484 0.929 . S
C516 C515 1.267 . S
C516 C517 1.251 . S
C517 H487 0.929 . S
C517 N513 1.418 . S
C517 C516 1.251 . S
C518 H485 0.930 . S
C518 C520 1.406 . S
C518 C523 1.261 . S
C519 H486 0.930 . S
C519 N521 1.325 . S
C519 C522 1.357 . S
C520 H488 0.928 . S
C520 C518 1.406 . S
C520 N521 1.261 . S
N521 Co472 2.214 . S
N521 C519 1.325 . S
N521 C520 1.261 . S
C522 H492 0.931 . S
C522 C519 1.357 . S
C522 C523 1.312 . S
C523 H494 0.930 . S
C523 C518 1.261 . S
C523 C522 1.312 . S
C524 O496 1.214 . S
C524 O504 1.234 . S
C525 H497 0.929 . S
C525 C528 1.391 . S
C525 C530 1.391 . S
C526 H498 0.929 . S
C526 C527 1.390 . S
C526 N529 1.391 . S
C527 H499 0.930 . S
C527 C526 1.390 . S
C527 C528 1.392 . S
C528 H500 0.929 . S
C528 C525 1.391 . S
C528 C527 1.392 . S
N529 Co473 2.257 . S
N529 C526 1.391 . S
N529 C530 1.388 . S
C530 H501 0.930 . S
C530 C525 1.391 . S
C530 N529 1.388 . S
Co531 O533 2.143 . S
Co531 O539 2.074 . S
Co531 O542 2.093 . S
Co531 O555 2.097 . S
Co531 N572 2.151 . S
Co531 N580 2.214 . S
Co532 O533 2.160 . S
Co532 O538 2.058 . S
Co532 O548 2.057 . S
Co532 O563 2.037 . S
Co532 N567 2.145 . S
Co532 N588 2.257 . S
O533 Co531 2.143 . S
O533 Co532 2.160 . S
C534 O535 1.278 . S
C534 O542 1.224 . S
O535 C534 1.278 . S
C536 O537 1.245 . S
C536 O548 1.232 . S
O537 C536 1.245 . S
O538 Co532 2.058 . S
O538 C564 1.269 . S
O539 Co531 2.074 . S
O539 C564 1.257 . S
H540 C565 0.930 . S
H541 C571 0.930 . S
O542 Co531 2.093 . S
O542 C534 1.224 . S
H543 C575 0.929 . S
H544 C577 0.930 . S
H545 C578 0.930 . S
H546 C576 0.929 . S
H547 C579 0.928 . S
O548 Co532 2.057 . S
O548 C536 1.232 . S
H549 C568 0.929 . S
H550 C569 0.929 . S
H551 C581 0.931 . S
H552 C573 0.929 . S
H553 C582 0.930 . S
H554 C574 0.931 . S
O555 Co531 2.097 . S
O555 C583 1.214 . S
H556 C584 0.929 . S
H557 C585 0.929 . S
H558 C586 0.930 . S
H559 C587 0.929 . S
H560 C589 0.930 . S
H561 C566 0.930 . S
H562 C570 0.930 . S
O563 Co532 2.037 . S
O563 C583 1.234 . S
C564 O538 1.269 . S
C564 O539 1.257 . S
C565 H540 0.930 . S
C565 C568 1.388 . S
C565 C570 1.418 . S
C566 H561 0.930 . S
C566 C569 1.404 . S
C566 C570 1.353 . S
N567 Co532 2.145 . S
N567 C568 1.397 . S
N567 C569 1.334 . S
C568 H549 0.929 . S
C568 C565 1.388 . S
C568 N567 1.397 . S
C569 H550 0.929 . S
C569 C566 1.404 . S
C569 N567 1.334 . S
C570 H562 0.930 . S
C570 C565 1.418 . S
C570 C566 1.353 . S
C571 H541 0.930 . S
C571 N572 1.330 . S
C571 C573 1.446 . S
N572 Co531 2.151 . S
N572 C571 1.330 . S
N572 C576 1.418 . S
C573 H552 0.929 . S
C573 C571 1.446 . S
C573 C574 1.332 . S
C574 H554 0.931 . S
C574 C573 1.332 . S
C574 C575 1.267 . S
C575 H543 0.929 . S
C575 C574 1.267 . S
C575 C576 1.251 . S
C576 H546 0.929 . S
C576 N572 1.418 . S
C576 C575 1.251 . S
C577 H544 0.930 . S
C577 C579 1.406 . S
C577 C582 1.261 . S
C578 H545 0.930 . S
C578 N580 1.325 . S
C578 C581 1.357 . S
C579 H547 0.928 . S
C579 C577 1.406 . S
C579 N580 1.261 . S
N580 Co531 2.214 . S
N580 C578 1.325 . S
N580 C579 1.261 . S
C581 H551 0.931 . S
C581 C578 1.357 . S
C581 C582 1.312 . S
C582 H553 0.930 . S
C582 C577 1.261 . S
C582 C581 1.312 . S
C583 O555 1.214 . S
C583 O563 1.234 . S
C584 H556 0.929 . S
C584 C587 1.391 . S
C584 C589 1.391 . S
C585 H557 0.929 . S
C585 C586 1.390 . S
C585 N588 1.391 . S
C586 H558 0.930 . S
C586 C585 1.390 . S
C586 C587 1.392 . S
C587 H559 0.929 . S
C587 C584 1.391 . S
C587 C586 1.392 . S
N588 Co532 2.257 . S
N588 C585 1.391 . S
N588 C589 1.388 . S
C589 H560 0.930 . S
C589 C584 1.391 . S
C589 N588 1.388 . S
Co590 O592 2.143 . S
Co590 O598 2.074 . S
Co590 O601 2.093 . S
Co590 O614 2.097 . S
Co590 N631 2.151 . S
Co590 N639 2.214 . S
Co591 O592 2.160 . S
Co591 O597 2.058 . S
Co591 O607 2.057 . S
Co591 O622 2.037 . S
Co591 N626 2.145 . S
Co591 N647 2.257 . S
O592 Co590 2.143 . S
O592 Co591 2.160 . S
C593 O594 1.278 . S
C593 O601 1.224 . S
O594 C593 1.278 . S
C595 O596 1.245 . S
C595 O607 1.232 . S
O596 C595 1.245 . S
O597 Co591 2.058 . S
O597 C623 1.269 . S
O598 Co590 2.074 . S
O598 C623 1.257 . S
H599 C624 0.930 . S
H600 C630 0.930 . S
O601 Co590 2.093 . S
O601 C593 1.224 . S
H602 C634 0.929 . S
H603 C636 0.930 . S
H604 C637 0.930 . S
H605 C635 0.929 . S
H606 C638 0.928 . S
O607 Co591 2.057 . S
O607 C595 1.232 . S
H608 C627 0.929 . S
H609 C628 0.929 . S
H610 C640 0.931 . S
H611 C632 0.929 . S
H612 C641 0.930 . S
H613 C633 0.931 . S
O614 Co590 2.097 . S
O614 C642 1.214 . S
H615 C643 0.929 . S
H616 C644 0.929 . S
H617 C645 0.930 . S
H618 C646 0.929 . S
H619 C648 0.930 . S
H620 C625 0.930 . S
H621 C629 0.930 . S
O622 Co591 2.037 . S
O622 C642 1.234 . S
C623 O597 1.269 . S
C623 O598 1.257 . S
C624 H599 0.930 . S
C624 C627 1.388 . S
C624 C629 1.418 . S
C625 H620 0.930 . S
C625 C628 1.404 . S
C625 C629 1.353 . S
N626 Co591 2.145 . S
N626 C627 1.397 . S
N626 C628 1.334 . S
C627 H608 0.929 . S
C627 C624 1.388 . S
C627 N626 1.397 . S
C628 H609 0.929 . S
C628 C625 1.404 . S
C628 N626 1.334 . S
C629 H621 0.930 . S
C629 C624 1.418 . S
C629 C625 1.353 . S
C630 H600 0.930 . S
C630 N631 1.330 . S
C630 C632 1.446 . S
N631 Co590 2.151 . S
N631 C630 1.330 . S
N631 C635 1.418 . S
C632 H611 0.929 . S
C632 C630 1.446 . S
C632 C633 1.332 . S
C633 H613 0.931 . S
C633 C632 1.332 . S
C633 C634 1.267 . S
C634 H602 0.929 . S
C634 C633 1.267 . S
C634 C635 1.251 . S
C635 H605 0.929 . S
C635 N631 1.418 . S
C635 C634 1.251 . S
C636 H603 0.930 . S
C636 C638 1.406 . S
C636 C641 1.261 . S
C637 H604 0.930 . S
C637 N639 1.325 . S
C637 C640 1.357 . S
C638 H606 0.928 . S
C638 C636 1.406 . S
C638 N639 1.261 . S
N639 Co590 2.214 . S
N639 C637 1.325 . S
N639 C638 1.261 . S
C640 H610 0.931 . S
C640 C637 1.357 . S
C640 C641 1.312 . S
C641 H612 0.930 . S
C641 C636 1.261 . S
C641 C640 1.312 . S
C642 O614 1.214 . S
C642 O622 1.234 . S
C643 H615 0.929 . S
C643 C646 1.391 . S
C643 C648 1.391 . S
C644 H616 0.929 . S
C644 C645 1.390 . S
C644 N647 1.391 . S
C645 H617 0.930 . S
C645 C644 1.390 . S
C645 C646 1.392 . S
C646 H618 0.929 . S
C646 C643 1.391 . S
C646 C645 1.392 . S
N647 Co591 2.257 . S
N647 C644 1.391 . S
N647 C648 1.388 . S
C648 H619 0.930 . S
C648 C643 1.391 . S
C648 N647 1.388 . S
Co649 O651 2.143 . S
Co649 O657 2.074 . S
Co649 O660 2.093 . S
Co649 O673 2.097 . S
Co649 N690 2.151 . S
Co649 N698 2.214 . S
Co650 O651 2.160 . S
Co650 O656 2.058 . S
Co650 O666 2.057 . S
Co650 O681 2.037 . S
Co650 N685 2.145 . S
Co650 N706 2.257 . S
O651 Co649 2.143 . S
O651 Co650 2.160 . S
C652 O653 1.278 . S
C652 O660 1.224 . S
O653 C652 1.278 . S
C654 O655 1.245 . S
C654 O666 1.232 . S
O655 C654 1.245 . S
O656 Co650 2.058 . S
O656 C682 1.269 . S
O657 Co649 2.074 . S
O657 C682 1.257 . S
H658 C683 0.930 . S
H659 C689 0.930 . S
O660 Co649 2.093 . S
O660 C652 1.224 . S
H661 C693 0.929 . S
H662 C695 0.930 . S
H663 C696 0.930 . S
H664 C694 0.929 . S
H665 C697 0.928 . S
O666 Co650 2.057 . S
O666 C654 1.232 . S
H667 C686 0.929 . S
H668 C687 0.929 . S
H669 C699 0.931 . S
H670 C691 0.929 . S
H671 C700 0.930 . S
H672 C692 0.931 . S
O673 Co649 2.097 . S
O673 C701 1.214 . S
H674 C702 0.929 . S
H675 C703 0.929 . S
H676 C704 0.930 . S
H677 C705 0.929 . S
H678 C707 0.930 . S
H679 C684 0.930 . S
H680 C688 0.930 . S
O681 Co650 2.037 . S
O681 C701 1.234 . S
C682 O656 1.269 . S
C682 O657 1.257 . S
C683 H658 0.930 . S
C683 C686 1.388 . S
C683 C688 1.418 . S
C684 H679 0.930 . S
C684 C687 1.404 . S
C684 C688 1.353 . S
N685 Co650 2.145 . S
N685 C686 1.397 . S
N685 C687 1.334 . S
C686 H667 0.929 . S
C686 C683 1.388 . S
C686 N685 1.397 . S
C687 H668 0.929 . S
C687 C684 1.404 . S
C687 N685 1.334 . S
C688 H680 0.930 . S
C688 C683 1.418 . S
C688 C684 1.353 . S
C689 H659 0.930 . S
C689 N690 1.330 . S
C689 C691 1.446 . S
N690 Co649 2.151 . S
N690 C689 1.330 . S
N690 C694 1.418 . S
C691 H670 0.929 . S
C691 C689 1.446 . S
C691 C692 1.332 . S
C692 H672 0.931 . S
C692 C691 1.332 . S
C692 C693 1.267 . S
C693 H661 0.929 . S
C693 C692 1.267 . S
C693 C694 1.251 . S
C694 H664 0.929 . S
C694 N690 1.418 . S
C694 C693 1.251 . S
C695 H662 0.930 . S
C695 C697 1.406 . S
C695 C700 1.261 . S
C696 H663 0.930 . S
C696 N698 1.325 . S
C696 C699 1.357 . S
C697 H665 0.928 . S
C697 C695 1.406 . S
C697 N698 1.261 . S
N698 Co649 2.214 . S
N698 C696 1.325 . S
N698 C697 1.261 . S
C699 H669 0.931 . S
C699 C696 1.357 . S
C699 C700 1.312 . S
C700 H671 0.930 . S
C700 C695 1.261 . S
C700 C699 1.312 . S
C701 O673 1.214 . S
C701 O681 1.234 . S
C702 H674 0.929 . S
C702 C705 1.391 . S
C702 C707 1.391 . S
C703 H675 0.929 . S
C703 C704 1.390 . S
C703 N706 1.391 . S
C704 H676 0.930 . S
C704 C703 1.390 . S
C704 C705 1.392 . S
C705 H677 0.929 . S
C705 C702 1.391 . S
C705 C704 1.392 . S
N706 Co650 2.257 . S
N706 C703 1.391 . S
N706 C707 1.388 . S
C707 H678 0.930 . S
C707 C702 1.391 . S
C707 N706 1.388 . S
Co708 O710 2.143 . S
Co708 O716 2.074 . S
Co708 O719 2.093 . S
Co708 O732 2.097 . S
Co708 N749 2.151 . S
Co708 N757 2.214 . S
Co709 O710 2.160 . S
Co709 O715 2.058 . S
Co709 O725 2.057 . S
Co709 O740 2.037 . S
Co709 N744 2.145 . S
Co709 N765 2.257 . S
O710 Co708 2.143 . S
O710 Co709 2.160 . S
C711 O712 1.278 . S
C711 O719 1.224 . S
O712 C711 1.278 . S
C713 O714 1.245 . S
C713 O725 1.232 . S
O714 C713 1.245 . S
O715 Co709 2.058 . S
O715 C741 1.269 . S
O716 Co708 2.074 . S
O716 C741 1.257 . S
H717 C742 0.930 . S
H718 C748 0.930 . S
O719 Co708 2.093 . S
O719 C711 1.224 . S
H720 C752 0.929 . S
H721 C754 0.930 . S
H722 C755 0.930 . S
H723 C753 0.929 . S
H724 C756 0.928 . S
O725 Co709 2.057 . S
O725 C713 1.232 . S
H726 C745 0.929 . S
H727 C746 0.929 . S
H728 C758 0.931 . S
H729 C750 0.929 . S
H730 C759 0.930 . S
H731 C751 0.931 . S
O732 Co708 2.097 . S
O732 C760 1.214 . S
H733 C761 0.929 . S
H734 C762 0.929 . S
H735 C763 0.930 . S
H736 C764 0.929 . S
H737 C766 0.930 . S
H738 C743 0.930 . S
H739 C747 0.930 . S
O740 Co709 2.037 . S
O740 C760 1.234 . S
C741 O715 1.269 . S
C741 O716 1.257 . S
C742 H717 0.930 . S
C742 C745 1.388 . S
C742 C747 1.418 . S
C743 H738 0.930 . S
C743 C746 1.404 . S
C743 C747 1.353 . S
N744 Co709 2.145 . S
N744 C745 1.397 . S
N744 C746 1.334 . S
C745 H726 0.929 . S
C745 C742 1.388 . S
C745 N744 1.397 . S
C746 H727 0.929 . S
C746 C743 1.404 . S
C746 N744 1.334 . S
C747 H739 0.930 . S
C747 C742 1.418 . S
C747 C743 1.353 . S
C748 H718 0.930 . S
C748 N749 1.330 . S
C748 C750 1.446 . S
N749 Co708 2.151 . S
N749 C748 1.330 . S
N749 C753 1.418 . S
C750 H729 0.929 . S
C750 C748 1.446 . S
C750 C751 1.332 . S
C751 H731 0.931 . S
C751 C750 1.332 . S
C751 C752 1.267 . S
C752 H720 0.929 . S
C752 C751 1.267 . S
C752 C753 1.251 . S
C753 H723 0.929 . S
C753 N749 1.418 . S
C753 C752 1.251 . S
C754 H721 0.930 . S
C754 C756 1.406 . S
C754 C759 1.261 . S
C755 H722 0.930 . S
C755 N757 1.325 . S
C755 C758 1.357 . S
C756 H724 0.928 . S
C756 C754 1.406 . S
C756 N757 1.261 . S
N757 Co708 2.214 . S
N757 C755 1.325 . S
N757 C756 1.261 . S
C758 H728 0.931 . S
C758 C755 1.357 . S
C758 C759 1.312 . S
C759 H730 0.930 . S
C759 C754 1.261 . S
C759 C758 1.312 . S
C760 O732 1.214 . S
C760 O740 1.234 . S
C761 H733 0.929 . S
C761 C764 1.391 . S
C761 C766 1.391 . S
C762 H734 0.929 . S
C762 C763 1.390 . S
C762 N765 1.391 . S
C763 H735 0.930 . S
C763 C762 1.390 . S
C763 C764 1.392 . S
C764 H736 0.929 . S
C764 C761 1.391 . S
C764 C763 1.392 . S
N765 Co709 2.257 . S
N765 C762 1.391 . S
N765 C766 1.388 . S
C766 H737 0.930 . S
C766 C761 1.391 . S
C766 N765 1.388 . S
Co767 O769 2.143 . S
Co767 O775 2.074 . S
Co767 O778 2.093 . S
Co767 O791 2.097 . S
Co767 N808 2.151 . S
Co767 N816 2.214 . S
Co768 O769 2.160 . S
Co768 O774 2.058 . S
Co768 O784 2.057 . S
Co768 O799 2.037 . S
Co768 N803 2.145 . S
Co768 N824 2.257 . S
O769 Co767 2.143 . S
O769 Co768 2.160 . S
C770 O771 1.278 . S
C770 O778 1.224 . S
O771 C770 1.278 . S
C772 O773 1.245 . S
C772 O784 1.232 . S
O773 C772 1.245 . S
O774 Co768 2.058 . S
O774 C800 1.269 . S
O775 Co767 2.074 . S
O775 C800 1.257 . S
H776 C801 0.930 . S
H777 C807 0.930 . S
O778 Co767 2.093 . S
O778 C770 1.224 . S
H779 C811 0.929 . S
H780 C813 0.930 . S
H781 C814 0.930 . S
H782 C812 0.929 . S
H783 C815 0.928 . S
O784 Co768 2.057 . S
O784 C772 1.232 . S
H785 C804 0.929 . S
H786 C805 0.929 . S
H787 C817 0.931 . S
H788 C809 0.929 . S
H789 C818 0.930 . S
H790 C810 0.931 . S
O791 Co767 2.097 . S
O791 C819 1.214 . S
H792 C820 0.929 . S
H793 C821 0.929 . S
H794 C822 0.930 . S
H795 C823 0.929 . S
H796 C825 0.930 . S
H797 C802 0.930 . S
H798 C806 0.930 . S
O799 Co768 2.037 . S
O799 C819 1.234 . S
C800 O774 1.269 . S
C800 O775 1.257 . S
C801 H776 0.930 . S
C801 C804 1.388 . S
C801 C806 1.418 . S
C802 H797 0.930 . S
C802 C805 1.404 . S
C802 C806 1.353 . S
N803 Co768 2.145 . S
N803 C804 1.397 . S
N803 C805 1.334 . S
C804 H785 0.929 . S
C804 C801 1.388 . S
C804 N803 1.397 . S
C805 H786 0.929 . S
C805 C802 1.404 . S
C805 N803 1.334 . S
C806 H798 0.930 . S
C806 C801 1.418 . S
C806 C802 1.353 . S
C807 H777 0.930 . S
C807 N808 1.330 . S
C807 C809 1.446 . S
N808 Co767 2.151 . S
N808 C807 1.330 . S
N808 C812 1.418 . S
C809 H788 0.929 . S
C809 C807 1.446 . S
C809 C810 1.332 . S
C810 H790 0.931 . S
C810 C809 1.332 . S
C810 C811 1.267 . S
C811 H779 0.929 . S
C811 C810 1.267 . S
C811 C812 1.251 . S
C812 H782 0.929 . S
C812 N808 1.418 . S
C812 C811 1.251 . S
C813 H780 0.930 . S
C813 C815 1.406 . S
C813 C818 1.261 . S
C814 H781 0.930 . S
C814 N816 1.325 . S
C814 C817 1.357 . S
C815 H783 0.928 . S
C815 C813 1.406 . S
C815 N816 1.261 . S
N816 Co767 2.214 . S
N816 C814 1.325 . S
N816 C815 1.261 . S
C817 H787 0.931 . S
C817 C814 1.357 . S
C817 C818 1.312 . S
C818 H789 0.930 . S
C818 C813 1.261 . S
C818 C817 1.312 . S
C819 O791 1.214 . S
C819 O799 1.234 . S
C820 H792 0.929 . S
C820 C823 1.391 . S
C820 C825 1.391 . S
C821 H793 0.929 . S
C821 C822 1.390 . S
C821 N824 1.391 . S
C822 H794 0.930 . S
C822 C821 1.390 . S
C822 C823 1.392 . S
C823 H795 0.929 . S
C823 C820 1.391 . S
C823 C822 1.392 . S
N824 Co768 2.257 . S
N824 C821 1.391 . S
N824 C825 1.388 . S
C825 H796 0.930 . S
C825 C820 1.391 . S
C825 N824 1.388 . S
Co826 O828 2.143 . S
Co826 O834 2.074 . S
Co826 O837 2.093 . S
Co826 O850 2.097 . S
Co826 N867 2.151 . S
Co826 N875 2.214 . S
Co827 O828 2.160 . S
Co827 O833 2.058 . S
Co827 O843 2.057 . S
Co827 O858 2.037 . S
Co827 N862 2.145 . S
Co827 N883 2.257 . S
O828 Co826 2.143 . S
O828 Co827 2.160 . S
C829 O830 1.278 . S
C829 O837 1.224 . S
O830 C829 1.278 . S
C831 O832 1.245 . S
C831 O843 1.232 . S
O832 C831 1.245 . S
O833 Co827 2.058 . S
O833 C859 1.269 . S
O834 Co826 2.074 . S
O834 C859 1.257 . S
H835 C860 0.930 . S
H836 C866 0.930 . S
O837 Co826 2.093 . S
O837 C829 1.224 . S
H838 C870 0.929 . S
H839 C872 0.930 . S
H840 C873 0.930 . S
H841 C871 0.929 . S
H842 C874 0.928 . S
O843 Co827 2.057 . S
O843 C831 1.232 . S
H844 C863 0.929 . S
H845 C864 0.929 . S
H846 C876 0.931 . S
H847 C868 0.929 . S
H848 C877 0.930 . S
H849 C869 0.931 . S
O850 Co826 2.097 . S
O850 C878 1.214 . S
H851 C879 0.929 . S
H852 C880 0.929 . S
H853 C881 0.930 . S
H854 C882 0.929 . S
H855 C884 0.930 . S
H856 C861 0.930 . S
H857 C865 0.930 . S
O858 Co827 2.037 . S
O858 C878 1.234 . S
C859 O833 1.269 . S
C859 O834 1.257 . S
C860 H835 0.930 . S
C860 C863 1.388 . S
C860 C865 1.418 . S
C861 H856 0.930 . S
C861 C864 1.404 . S
C861 C865 1.353 . S
N862 Co827 2.145 . S
N862 C863 1.397 . S
N862 C864 1.334 . S
C863 H844 0.929 . S
C863 C860 1.388 . S
C863 N862 1.397 . S
C864 H845 0.929 . S
C864 C861 1.404 . S
C864 N862 1.334 . S
C865 H857 0.930 . S
C865 C860 1.418 . S
C865 C861 1.353 . S
C866 H836 0.930 . S
C866 N867 1.330 . S
C866 C868 1.446 . S
N867 Co826 2.151 . S
N867 C866 1.330 . S
N867 C871 1.418 . S
C868 H847 0.929 . S
C868 C866 1.446 . S
C868 C869 1.332 . S
C869 H849 0.931 . S
C869 C868 1.332 . S
C869 C870 1.267 . S
C870 H838 0.929 . S
C870 C869 1.267 . S
C870 C871 1.251 . S
C871 H841 0.929 . S
C871 N867 1.418 . S
C871 C870 1.251 . S
C872 H839 0.930 . S
C872 C874 1.406 . S
C872 C877 1.261 . S
C873 H840 0.930 . S
C873 N875 1.325 . S
C873 C876 1.357 . S
C874 H842 0.928 . S
C874 C872 1.406 . S
C874 N875 1.261 . S
N875 Co826 2.214 . S
N875 C873 1.325 . S
N875 C874 1.261 . S
C876 H846 0.931 . S
C876 C873 1.357 . S
C876 C877 1.312 . S
C877 H848 0.930 . S
C877 C872 1.261 . S
C877 C876 1.312 . S
C878 O850 1.214 . S
C878 O858 1.234 . S
C879 H851 0.929 . S
C879 C882 1.391 . S
C879 C884 1.391 . S
C880 H852 0.929 . S
C880 C881 1.390 . S
C880 N883 1.391 . S
C881 H853 0.930 . S
C881 C880 1.390 . S
C881 C882 1.392 . S
C882 H854 0.929 . S
C882 C879 1.391 . S
C882 C881 1.392 . S
N883 Co827 2.257 . S
N883 C880 1.391 . S
N883 C884 1.388 . S
C884 H855 0.930 . S
C884 C879 1.391 . S
C884 N883 1.388 . S
Co885 O887 2.143 . S
Co885 O893 2.074 . S
Co885 O896 2.093 . S
Co885 O909 2.097 . S
Co885 N926 2.151 . S
Co885 N934 2.214 . S
Co886 O887 2.160 . S
Co886 O892 2.058 . S
Co886 O902 2.057 . S
Co886 O917 2.037 . S
Co886 N921 2.145 . S
Co886 N942 2.257 . S
O887 Co885 2.143 . S
O887 Co886 2.160 . S
C888 O889 1.278 . S
C888 O896 1.224 . S
O889 C888 1.278 . S
C890 O891 1.245 . S
C890 O902 1.232 . S
O891 C890 1.245 . S
O892 Co886 2.058 . S
O892 C918 1.269 . S
O893 Co885 2.074 . S
O893 C918 1.257 . S
H894 C919 0.930 . S
H895 C925 0.930 . S
O896 Co885 2.093 . S
O896 C888 1.224 . S
H897 C929 0.929 . S
H898 C931 0.930 . S
H899 C932 0.930 . S
H900 C930 0.929 . S
H901 C933 0.928 . S
O902 Co886 2.057 . S
O902 C890 1.232 . S
H903 C922 0.929 . S
H904 C923 0.929 . S
H905 C935 0.931 . S
H906 C927 0.929 . S
H907 C936 0.930 . S
H908 C928 0.931 . S
O909 Co885 2.097 . S
O909 C937 1.214 . S
H910 C938 0.929 . S
H911 C939 0.929 . S
H912 C940 0.930 . S
H913 C941 0.929 . S
H914 C943 0.930 . S
H915 C920 0.930 . S
H916 C924 0.930 . S
O917 Co886 2.037 . S
O917 C937 1.234 . S
C918 O892 1.269 . S
C918 O893 1.257 . S
C919 H894 0.930 . S
C919 C922 1.388 . S
C919 C924 1.418 . S
C920 H915 0.930 . S
C920 C923 1.404 . S
C920 C924 1.353 . S
N921 Co886 2.145 . S
N921 C922 1.397 . S
N921 C923 1.334 . S
C922 H903 0.929 . S
C922 C919 1.388 . S
C922 N921 1.397 . S
C923 H904 0.929 . S
C923 C920 1.404 . S
C923 N921 1.334 . S
C924 H916 0.930 . S
C924 C919 1.418 . S
C924 C920 1.353 . S
C925 H895 0.930 . S
C925 N926 1.330 . S
C925 C927 1.446 . S
N926 Co885 2.151 . S
N926 C925 1.330 . S
N926 C930 1.418 . S
C927 H906 0.929 . S
C927 C925 1.446 . S
C927 C928 1.332 . S
C928 H908 0.931 . S
C928 C927 1.332 . S
C928 C929 1.267 . S
C929 H897 0.929 . S
C929 C928 1.267 . S
C929 C930 1.251 . S
C930 H900 0.929 . S
C930 N926 1.418 . S
C930 C929 1.251 . S
C931 H898 0.930 . S
C931 C933 1.406 . S
C931 C936 1.261 . S
C932 H899 0.930 . S
C932 N934 1.325 . S
C932 C935 1.357 . S
C933 H901 0.928 . S
C933 C931 1.406 . S
C933 N934 1.261 . S
N934 Co885 2.214 . S
N934 C932 1.325 . S
N934 C933 1.261 . S
C935 H905 0.931 . S
C935 C932 1.357 . S
C935 C936 1.312 . S
C936 H907 0.930 . S
C936 C931 1.261 . S
C936 C935 1.312 . S
C937 O909 1.214 . S
C937 O917 1.234 . S
C938 H910 0.929 . S
C938 C941 1.391 . S
C938 C943 1.391 . S
C939 H911 0.929 . S
C939 C940 1.390 . S
C939 N942 1.391 . S
C940 H912 0.930 . S
C940 C939 1.390 . S
C940 C941 1.392 . S
C941 H913 0.929 . S
C941 C938 1.391 . S
C941 C940 1.392 . S
N942 Co886 2.257 . S
N942 C939 1.391 . S
N942 C943 1.388 . S
C943 H914 0.930 . S
C943 C938 1.391 . S
C943 N942 1.388 . S
C944 C945 1.363 1_565 S
C944 C950 1.379 . S
C944 N952 1.356 . S
C945 C944 1.363 1_545 S
C945 C951 1.363 . S
C946 C947 1.363 . S
C946 C951 1.379 . S
C946 N953 1.356 . S
C947 C946 1.363 . S
C947 C950 1.363 1_545 S
N948 C950 1.356 . S
N948 H960 0.984 . S
N948 H961 0.985 . S
N949 C951 1.356 . S
N949 H954 0.984 . S
N949 H955 0.985 . S
C950 C944 1.379 . S
C950 C947 1.363 1_565 S
C950 N948 1.356 . S
C951 C945 1.363 . S
C951 C946 1.379 . S
C951 N949 1.356 . S
N952 C944 1.356 . S
N952 H958 0.984 . S
N952 H959 0.984 . S
N953 C946 1.356 . S
N953 H956 0.984 . S
N953 H957 0.985 . S
H954 N949 0.984 . S
H955 N949 0.985 . S
H956 N953 0.984 . S
H957 N953 0.985 . S
H958 N952 0.984 . S
H959 N952 0.984 . S
H960 N948 0.984 . S
H961 N948 0.985 . S
C962 C963 1.363 . S
C962 C968 1.379 . S
C962 N970 1.356 . S
C963 C962 1.363 . S
C963 C969 1.363 1_565 S
C964 C965 1.363 1_545 S
C964 C969 1.379 . S
C964 N971 1.356 . S
C965 C964 1.363 1_565 S
C965 C968 1.363 . S
N966 C968 1.356 . S
N966 H978 0.984 . S
N966 H979 0.985 . S
N967 C969 1.356 . S
N967 H972 0.984 . S
N967 H973 0.985 . S
C968 C962 1.379 . S
C968 C965 1.363 . S
C968 N966 1.356 . S
C969 C963 1.363 1_545 S
C969 C964 1.379 . S
C969 N967 1.356 . S
N970 C962 1.356 . S
N970 H976 0.984 . S
N970 H977 0.984 . S
N971 C964 1.356 . S
N971 H974 0.984 . S
N971 H975 0.985 . S
H972 N967 0.984 . S
H973 N967 0.985 . S
H974 N971 0.984 . S
H975 N971 0.985 . S
H976 N970 0.984 . S
H977 N970 0.984 . S
H978 N966 0.984 . S
H979 N966 0.985 . S
C980 C981 1.363 1_545 S
C980 C986 1.379 1_554 S
C980 N988 1.356 . S
C981 C980 1.363 1_565 S
C981 C987 1.363 . S
C982 C983 1.363 . S
C982 C987 1.379 1_556 S
C982 N989 1.356 . S
C983 C982 1.363 . S
C983 C986 1.363 1_565 S
N984 C986 1.356 . S
N984 H996 0.984 . S
N984 H997 0.985 . S
N985 C987 1.356 . S
N985 H990 0.984 . S
N985 H991 0.985 . S
C986 C980 1.379 1_556 S
C986 C983 1.363 1_545 S
C986 N984 1.356 . S
C987 C981 1.363 . S
C987 C982 1.379 1_554 S
C987 N985 1.356 . S
N988 C980 1.356 . S
N988 H994 0.984 . S
N988 H995 0.984 . S
N989 C982 1.356 . S
N989 H992 0.984 . S
N989 H993 0.985 . S
H990 N985 0.984 . S
H991 N985 0.985 . S
H992 N989 0.984 . S
H993 N989 0.985 . S
H994 N988 0.984 . S
H995 N988 0.984 . S
H996 N984 0.984 . S
H997 N984 0.985 . S
C998 C999 1.363 . S
C998 C1004 1.379 1_556 S
C998 N1006 1.356 . S
C999 C998 1.363 . S
C999 C1005 1.363 1_545 S
C1000 C1001 1.363 1_565 S
C1000 C1005 1.379 1_554 S
C1000 N1007 1.356 . S
C1001 C1000 1.363 1_545 S
C1001 C1004 1.363 . S
N1002 C1004 1.356 . S
N1002 H1014 0.984 . S
N1002 H1015 0.985 . S
N1003 C1005 1.356 . S
N1003 H1008 0.984 . S
N1003 H1009 0.985 . S
C1004 C998 1.379 1_554 S
C1004 C1001 1.363 . S
C1004 N1002 1.356 . S
C1005 C999 1.363 1_565 S
C1005 C1000 1.379 1_556 S
C1005 N1003 1.356 . S
N1006 C998 1.356 . S
N1006 H1012 0.984 . S
N1006 H1013 0.984 . S
N1007 C1000 1.356 . S
N1007 H1010 0.984 . S
N1007 H1011 0.985 . S
H1008 N1003 0.984 . S
H1009 N1003 0.985 . S
H1010 N1007 0.984 . S
H1011 N1007 0.985 . S
H1012 N1006 0.984 . S
H1013 N1006 0.984 . S
H1014 N1002 0.984 . S
H1015 N1002 0.985 . S
C1016 C1017 1.363 . S
C1016 C1022 1.379 . S
C1016 N1024 1.356 . S
C1017 C1016 1.363 . S
C1017 C1023 1.363 . S
C1018 C1019 1.363 . S
C1018 C1023 1.379 . S
C1018 N1025 1.356 . S
C1019 C1018 1.363 . S
C1019 C1022 1.363 . S
N1020 C1022 1.356 . S
N1020 H1032 0.984 . S
N1020 H1033 0.985 . S
N1021 C1023 1.356 . S
N1021 H1026 0.984 . S
N1021 H1027 0.985 . S
C1022 C1016 1.379 . S
C1022 C1019 1.363 . S
C1022 N1020 1.356 . S
C1023 C1017 1.363 . S
C1023 C1018 1.379 . S
C1023 N1021 1.356 . S
N1024 C1016 1.356 . S
N1024 H1030 0.984 . S
N1024 H1031 0.984 . S
N1025 C1018 1.356 . S
N1025 H1028 0.984 . S
N1025 H1029 0.985 . S
H1026 N1021 0.984 . S
H1027 N1021 0.985 . S
H1028 N1025 0.984 . S
H1029 N1025 0.985 . S
H1030 N1024 0.984 . S
H1031 N1024 0.984 . S
H1032 N1020 0.984 . S
H1033 N1020 0.985 . S
C1034 C1035 1.363 . S
C1034 C1040 1.379 . S
C1034 N1042 1.356 . S
C1035 C1034 1.363 . S
C1035 C1041 1.363 . S
C1036 C1037 1.363 . S
C1036 C1041 1.379 . S
C1036 N1043 1.356 . S
C1037 C1036 1.363 . S
C1037 C1040 1.363 . S
N1038 C1040 1.356 . S
N1038 H1050 0.984 . S
N1038 H1051 0.985 . S
N1039 C1041 1.356 . S
N1039 H1044 0.984 . S
N1039 H1045 0.985 . S
C1040 C1034 1.379 . S
C1040 C1037 1.363 . S
C1040 N1038 1.356 . S
C1041 C1035 1.363 . S
C1041 C1036 1.379 . S
C1041 N1039 1.356 . S
N1042 C1034 1.356 . S
N1042 H1048 0.984 . S
N1042 H1049 0.984 . S
N1043 C1036 1.356 . S
N1043 H1046 0.984 . S
N1043 H1047 0.985 . S
H1044 N1039 0.984 . S
H1045 N1039 0.985 . S
H1046 N1043 0.984 . S
H1047 N1043 0.985 . S
H1048 N1042 0.984 . S
H1049 N1042 0.984 . S
H1050 N1038 0.984 . S
H1051 N1038 0.985 . S
C1052 C1053 1.363 . S
C1052 C1058 1.379 1_556 S
C1052 N1060 1.356 . S
C1053 C1052 1.363 . S
C1053 C1059 1.363 . S
C1054 C1055 1.363 . S
C1054 C1059 1.379 1_554 S
C1054 N1061 1.356 . S
C1055 C1054 1.363 . S
C1055 C1058 1.363 . S
N1056 C1058 1.356 . S
N1056 H1068 0.984 . S
N1056 H1069 0.985 . S
N1057 C1059 1.356 . S
N1057 H1062 0.984 . S
N1057 H1063 0.985 . S
C1058 C1052 1.379 1_554 S
C1058 C1055 1.363 . S
C1058 N1056 1.356 . S
C1059 C1053 1.363 . S
C1059 C1054 1.379 1_556 S
C1059 N1057 1.356 . S
N1060 C1052 1.356 . S
N1060 H1066 0.984 . S
N1060 H1067 0.984 . S
N1061 C1054 1.356 . S
N1061 H1064 0.984 . S
N1061 H1065 0.985 . S
H1062 N1057 0.984 . S
H1063 N1057 0.985 . S
H1064 N1061 0.984 . S
H1065 N1061 0.985 . S
H1066 N1060 0.984 . S
H1067 N1060 0.984 . S
H1068 N1056 0.984 . S
H1069 N1056 0.985 . S
C1070 C1071 1.363 . S
C1070 C1076 1.379 1_554 S
C1070 N1078 1.356 . S
C1071 C1070 1.363 . S
C1071 C1077 1.363 . S
C1072 C1073 1.363 . S
C1072 C1077 1.379 1_556 S
C1072 N1079 1.356 . S
C1073 C1072 1.363 . S
C1073 C1076 1.363 . S
N1074 C1076 1.356 . S
N1074 H1086 0.984 . S
N1074 H1087 0.985 . S
N1075 C1077 1.356 . S
N1075 H1080 0.984 . S
N1075 H1081 0.985 . S
C1076 C1070 1.379 1_556 S
C1076 C1073 1.363 . S
C1076 N1074 1.356 . S
C1077 C1071 1.363 . S
C1077 C1072 1.379 1_554 S
C1077 N1075 1.356 . S
N1078 C1070 1.356 . S
N1078 H1084 0.984 . S
N1078 H1085 0.984 . S
N1079 C1072 1.356 . S
N1079 H1082 0.984 . S
N1079 H1083 0.985 . S
H1080 N1075 0.984 . S
H1081 N1075 0.985 . S
H1082 N1079 0.984 . S
H1083 N1079 0.985 . S
H1084 N1078 0.984 . S
H1085 N1078 0.984 . S
H1086 N1074 0.984 . S
H1087 N1074 0.985 . S
C1088 C1089 1.363 . S
C1088 C1094 1.379 . S
C1088 N1096 1.356 . S
C1089 C1088 1.363 . S
C1089 C1095 1.363 1_565 S
C1090 C1091 1.363 . S
C1090 C1095 1.379 . S
C1090 N1097 1.356 . S
C1091 C1090 1.363 . S
C1091 C1094 1.363 1_545 S
N1092 C1094 1.356 . S
N1092 H1104 0.984 . S
N1092 H1105 0.985 . S
N1093 C1095 1.356 . S
N1093 H1098 0.984 . S
N1093 H1099 0.985 . S
C1094 C1088 1.379 . S
C1094 C1091 1.363 1_565 S
C1094 N1092 1.356 . S
C1095 C1089 1.363 1_545 S
C1095 C1090 1.379 . S
C1095 N1093 1.356 . S
N1096 C1088 1.356 . S
N1096 H1102 0.984 . S
N1096 H1103 0.984 . S
N1097 C1090 1.356 . S
N1097 H1100 0.984 . S
N1097 H1101 0.985 . S
H1098 N1093 0.984 . S
H1099 N1093 0.985 . S
H1100 N1097 0.984 . S
H1101 N1097 0.985 . S
H1102 N1096 0.984 . S
H1103 N1096 0.984 . S
H1104 N1092 0.984 . S
H1105 N1092 0.985 . S
C1106 C1107 1.363 . S
C1106 C1112 1.379 . S
C1106 N1114 1.356 . S
C1107 C1106 1.363 . S
C1107 C1113 1.363 1_565 S
C1108 C1109 1.363 . S
C1108 C1113 1.379 . S
C1108 N1115 1.356 . S
C1109 C1108 1.363 . S
C1109 C1112 1.363 1_545 S
N1110 C1112 1.356 . S
N1110 H1122 0.984 . S
N1110 H1123 0.985 . S
N1111 C1113 1.356 . S
N1111 H1116 0.984 . S
N1111 H1117 0.985 . S
C1112 C1106 1.379 . S
C1112 C1109 1.363 1_565 S
C1112 N1110 1.356 . S
C1113 C1107 1.363 1_545 S
C1113 C1108 1.379 . S
C1113 N1111 1.356 . S
N1114 C1106 1.356 . S
N1114 H1120 0.984 . S
N1114 H1121 0.984 . S
N1115 C1108 1.356 . S
N1115 H1118 0.984 . S
N1115 H1119 0.985 . S
H1116 N1111 0.984 . S
H1117 N1111 0.985 . S
H1118 N1115 0.984 . S
H1119 N1115 0.985 . S
H1120 N1114 0.984 . S
H1121 N1114 0.984 . S
H1122 N1110 0.984 . S
H1123 N1110 0.985 . S
C1124 C1125 1.363 . S
C1124 C1130 1.379 . S
C1124 N1132 1.356 . S
C1125 C1124 1.363 . S
C1125 C1131 1.363 1_565 S
C1126 C1127 1.363 . S
C1126 C1131 1.379 . S
C1126 N1133 1.356 . S
C1127 C1126 1.363 . S
C1127 C1130 1.363 1_545 S
N1128 C1130 1.356 . S
N1128 H1140 0.984 . S
N1128 H1141 0.985 . S
N1129 C1131 1.356 . S
N1129 H1134 0.984 . S
N1129 H1135 0.985 . S
C1130 C1124 1.379 . S
C1130 C1127 1.363 1_565 S
C1130 N1128 1.356 . S
C1131 C1125 1.363 1_545 S
C1131 C1126 1.379 . S
C1131 N1129 1.356 . S
N1132 C1124 1.356 . S
N1132 H1138 0.984 . S
N1132 H1139 0.984 . S
N1133 C1126 1.356 . S
N1133 H1136 0.984 . S
N1133 H1137 0.985 . S
H1134 N1129 0.984 . S
H1135 N1129 0.985 . S
H1136 N1133 0.984 . S
H1137 N1133 0.985 . S
H1138 N1132 0.984 . S
H1139 N1132 0.984 . S
H1140 N1128 0.984 . S
H1141 N1128 0.985 . S
C1142 C1143 1.363 . S
C1142 C1148 1.379 . S
C1142 N1150 1.356 . S
C1143 C1142 1.363 . S
C1143 C1149 1.363 1_545 S
C1144 C1145 1.363 . S
C1144 C1149 1.379 . S
C1144 N1151 1.356 . S
C1145 C1144 1.363 . S
C1145 C1148 1.363 1_565 S
N1146 C1148 1.356 . S
N1146 H1158 0.984 . S
N1146 H1159 0.985 . S
N1147 C1149 1.356 . S
N1147 H1152 0.984 . S
N1147 H1153 0.985 . S
C1148 C1142 1.379 . S
C1148 C1145 1.363 1_545 S
C1148 N1146 1.356 . S
C1149 C1143 1.363 1_565 S
C1149 C1144 1.379 . S
C1149 N1147 1.356 . S
N1150 C1142 1.356 . S
N1150 H1156 0.984 . S
N1150 H1157 0.984 . S
N1151 C1144 1.356 . S
N1151 H1154 0.984 . S
N1151 H1155 0.985 . S
H1152 N1147 0.984 . S
H1153 N1147 0.985 . S
H1154 N1151 0.984 . S
H1155 N1151 0.985 . S
H1156 N1150 0.984 . S
H1157 N1150 0.984 . S
H1158 N1146 0.984 . S
H1159 N1146 0.985 . S
C1160 C1161 1.363 . S
C1160 C1166 1.379 1_655 S
C1160 N1168 1.356 . S
C1161 C1160 1.363 . S
C1161 C1167 1.363 . S
C1162 C1163 1.363 . S
C1162 C1167 1.379 1_455 S
C1162 N1169 1.356 . S
C1163 C1162 1.363 . S
C1163 C1166 1.363 . S
N1164 C1166 1.356 . S
N1164 H1176 0.984 . S
N1164 H1177 0.985 . S
N1165 C1167 1.356 . S
N1165 H1170 0.984 . S
N1165 H1171 0.985 . S
C1166 C1160 1.379 1_455 S
C1166 C1163 1.363 . S
C1166 N1164 1.356 . S
C1167 C1161 1.363 . S
C1167 C1162 1.379 1_655 S
C1167 N1165 1.356 . S
N1168 C1160 1.356 . S
N1168 H1174 0.984 . S
N1168 H1175 0.984 . S
N1169 C1162 1.356 . S
N1169 H1172 0.984 . S
N1169 H1173 0.985 . S
H1170 N1165 0.984 . S
H1171 N1165 0.985 . S
H1172 N1169 0.984 . S
H1173 N1169 0.985 . S
H1174 N1168 0.984 . S
H1175 N1168 0.984 . S
H1176 N1164 0.984 . S
H1177 N1164 0.985 . S
C1178 C1179 1.363 . S
C1178 C1184 1.379 1_455 S
C1178 N1186 1.356 . S
C1179 C1178 1.363 . S
C1179 C1185 1.363 . S
C1180 C1181 1.363 . S
C1180 C1185 1.379 1_655 S
C1180 N1187 1.356 . S
C1181 C1180 1.363 . S
C1181 C1184 1.363 . S
N1182 C1184 1.356 . S
N1182 H1194 0.984 . S
N1182 H1195 0.985 . S
N1183 C1185 1.356 . S
N1183 H1188 0.984 . S
N1183 H1189 0.985 . S
C1184 C1178 1.379 1_655 S
C1184 C1181 1.363 . S
C1184 N1182 1.356 . S
C1185 C1179 1.363 . S
C1185 C1180 1.379 1_455 S
C1185 N1183 1.356 . S
N1186 C1178 1.356 . S
N1186 H1192 0.984 . S
N1186 H1193 0.984 . S
N1187 C1180 1.356 . S
N1187 H1190 0.984 . S
N1187 H1191 0.985 . S
H1188 N1183 0.984 . S
H1189 N1183 0.985 . S
H1190 N1187 0.984 . S
H1191 N1187 0.985 . S
H1192 N1186 0.984 . S
H1193 N1186 0.984 . S
H1194 N1182 0.984 . S
H1195 N1182 0.985 . S
C1196 C1197 1.363 . S
C1196 C1202 1.379 1_655 S
C1196 N1204 1.356 . S
C1197 C1196 1.363 . S
C1197 C1203 1.363 . S
C1198 C1199 1.363 . S
C1198 C1203 1.379 1_455 S
C1198 N1205 1.356 . S
C1199 C1198 1.363 . S
C1199 C1202 1.363 . S
N1200 C1202 1.356 . S
N1200 H1212 0.984 . S
N1200 H1213 0.985 . S
N1201 C1203 1.356 . S
N1201 H1206 0.984 . S
N1201 H1207 0.985 . S
C1202 C1196 1.379 1_455 S
C1202 C1199 1.363 . S
C1202 N1200 1.356 . S
C1203 C1197 1.363 . S
C1203 C1198 1.379 1_655 S
C1203 N1201 1.356 . S
N1204 C1196 1.356 . S
N1204 H1210 0.984 . S
N1204 H1211 0.984 . S
N1205 C1198 1.356 . S
N1205 H1208 0.984 . S
N1205 H1209 0.985 . S
H1206 N1201 0.984 . S
H1207 N1201 0.985 . S
H1208 N1205 0.984 . S
H1209 N1205 0.985 . S
H1210 N1204 0.984 . S
H1211 N1204 0.984 . S
H1212 N1200 0.984 . S
H1213 N1200 0.985 . S
C1214 C1215 1.363 . S
C1214 C1220 1.379 1_455 S
C1214 N1222 1.356 . S
C1215 C1214 1.363 . S
C1215 C1221 1.363 . S
C1216 C1217 1.363 . S
C1216 C1221 1.379 1_655 S
C1216 N1223 1.356 . S
C1217 C1216 1.363 . S
C1217 C1220 1.363 . S
N1218 C1220 1.356 . S
N1218 H1230 0.984 . S
N1218 H1231 0.985 . S
N1219 C1221 1.356 . S
N1219 H1224 0.984 . S
N1219 H1225 0.985 . S
C1220 C1214 1.379 1_655 S
C1220 C1217 1.363 . S
C1220 N1218 1.356 . S
C1221 C1215 1.363 . S
C1221 C1216 1.379 1_455 S
C1221 N1219 1.356 . S
N1222 C1214 1.356 . S
N1222 H1228 0.984 . S
N1222 H1229 0.984 . S
N1223 C1216 1.356 . S
N1223 H1226 0.984 . S
N1223 H1227 0.985 . S
H1224 N1219 0.984 . S
H1225 N1219 0.985 . S
H1226 N1223 0.984 . S
H1227 N1223 0.985 . S
H1228 N1222 0.984 . S
H1229 N1222 0.984 . S
H1230 N1218 0.984 . S
H1231 N1218 0.985 . S
C1232 C1233 1.363 . S
C1232 C1238 1.379 . S
C1232 N1240 1.356 . S
C1233 C1232 1.363 . S
C1233 C1239 1.363 . S
C1234 C1235 1.363 . S
C1234 C1239 1.379 . S
C1234 N1241 1.356 . S
C1235 C1234 1.363 . S
C1235 C1238 1.363 . S
N1236 C1238 1.356 . S
N1236 H1248 0.984 . S
N1236 H1249 0.985 . S
N1237 C1239 1.356 . S
N1237 H1242 0.984 . S
N1237 H1243 0.985 . S
C1238 C1232 1.379 . S
C1238 C1235 1.363 . S
C1238 N1236 1.356 . S
C1239 C1233 1.363 . S
C1239 C1234 1.379 . S
C1239 N1237 1.356 . S
N1240 C1232 1.356 . S
N1240 H1246 0.984 . S
N1240 H1247 0.984 . S
N1241 C1234 1.356 . S
N1241 H1244 0.984 . S
N1241 H1245 0.985 . S
H1242 N1237 0.984 . S
H1243 N1237 0.985 . S
H1244 N1241 0.984 . S
H1245 N1241 0.985 . S
H1246 N1240 0.984 . S
H1247 N1240 0.984 . S
H1248 N1236 0.984 . S
H1249 N1236 0.985 . S
C1250 C1251 1.363 . S
C1250 C1256 1.379 . S
C1250 N1258 1.356 . S
C1251 C1250 1.363 . S
C1251 C1257 1.363 . S
C1252 C1253 1.363 . S
C1252 C1257 1.379 . S
C1252 N1259 1.356 . S
C1253 C1252 1.363 . S
C1253 C1256 1.363 . S
N1254 C1256 1.356 . S
N1254 H1266 0.984 . S
N1254 H1267 0.985 . S
N1255 C1257 1.356 . S
N1255 H1260 0.984 . S
N1255 H1261 0.985 . S
C1256 C1250 1.379 . S
C1256 C1253 1.363 . S
C1256 N1254 1.356 . S
C1257 C1251 1.363 . S
C1257 C1252 1.379 . S
C1257 N1255 1.356 . S
N1258 C1250 1.356 . S
N1258 H1264 0.984 . S
N1258 H1265 0.984 . S
N1259 C1252 1.356 . S
N1259 H1262 0.984 . S
N1259 H1263 0.985 . S
H1260 N1255 0.984 . S
H1261 N1255 0.985 . S
H1262 N1259 0.984 . S
H1263 N1259 0.985 . S
H1264 N1258 0.984 . S
H1265 N1258 0.984 . S
H1266 N1254 0.984 . S
H1267 N1254 0.985 . S
C1268 C1269 1.363 . S
C1268 C1274 1.379 . S
C1268 N1276 1.356 . S
C1269 C1268 1.363 . S
C1269 C1275 1.363 . S
C1270 C1271 1.363 . S
C1270 C1275 1.379 . S
C1270 N1277 1.356 . S
C1271 C1270 1.363 . S
C1271 C1274 1.363 . S
N1272 C1274 1.356 . S
N1272 H1284 0.984 . S
N1272 H1285 0.985 . S
N1273 C1275 1.356 . S
N1273 H1278 0.984 . S
N1273 H1279 0.985 . S
C1274 C1268 1.379 . S
C1274 C1271 1.363 . S
C1274 N1272 1.356 . S
C1275 C1269 1.363 . S
C1275 C1270 1.379 . S
C1275 N1273 1.356 . S
N1276 C1268 1.356 . S
N1276 H1282 0.984 . S
N1276 H1283 0.984 . S
N1277 C1270 1.356 . S
N1277 H1280 0.984 . S
N1277 H1281 0.985 . S
H1278 N1273 0.984 . S
H1279 N1273 0.985 . S
H1280 N1277 0.984 . S
H1281 N1277 0.985 . S
H1282 N1276 0.984 . S
H1283 N1276 0.984 . S
H1284 N1272 0.984 . S
H1285 N1272 0.985 . S
C1286 C1287 1.363 . S
C1286 C1292 1.379 . S
C1286 N1294 1.356 . S
C1287 C1286 1.363 . S
C1287 C1293 1.363 . S
C1288 C1289 1.363 . S
C1288 C1293 1.379 . S
C1288 N1295 1.356 . S
C1289 C1288 1.363 . S
C1289 C1292 1.363 . S
N1290 C1292 1.356 . S
N1290 H1302 0.984 . S
N1290 H1303 0.985 . S
N1291 C1293 1.356 . S
N1291 H1296 0.984 . S
N1291 H1297 0.985 . S
C1292 C1286 1.379 . S
C1292 C1289 1.363 . S
C1292 N1290 1.356 . S
C1293 C1287 1.363 . S
C1293 C1288 1.379 . S
C1293 N1291 1.356 . S
N1294 C1286 1.356 . S
N1294 H1300 0.984 . S
N1294 H1301 0.984 . S
N1295 C1288 1.356 . S
N1295 H1298 0.984 . S
N1295 H1299 0.985 . S
H1296 N1291 0.984 . S
H1297 N1291 0.985 . S
H1298 N1295 0.984 . S
H1299 N1295 0.985 . S
H1300 N1294 0.984 . S
H1301 N1294 0.984 . S
H1302 N1290 0.984 . S
H1303 N1290 0.985 . S
C1304 C1305 1.363 . S
C1304 C1310 1.379 . S
C1304 N1312 1.356 . S
C1305 C1304 1.363 . S
C1305 C1311 1.363 . S
C1306 C1307 1.363 . S
C1306 C1311 1.379 . S
C1306 N1313 1.356 . S
C1307 C1306 1.363 . S
C1307 C1310 1.363 . S
N1308 C1310 1.356 . S
N1308 H1320 0.984 . S
N1308 H1321 0.985 . S
N1309 C1311 1.356 . S
N1309 H1314 0.984 . S
N1309 H1315 0.985 . S
C1310 C1304 1.379 . S
C1310 C1307 1.363 . S
C1310 N1308 1.356 . S
C1311 C1305 1.363 . S
C1311 C1306 1.379 . S
C1311 N1309 1.356 . S
N1312 C1304 1.356 . S
N1312 H1318 0.984 . S
N1312 H1319 0.984 . S
N1313 C1306 1.356 . S
N1313 H1316 0.984 . S
N1313 H1317 0.985 . S
H1314 N1309 0.984 . S
H1315 N1309 0.985 . S
H1316 N1313 0.984 . S
H1317 N1313 0.985 . S
H1318 N1312 0.984 . S
H1319 N1312 0.984 . S
H1320 N1308 0.984 . S
H1321 N1308 0.985 . S
C1322 C1323 1.363 . S
C1322 C1328 1.379 . S
C1322 N1330 1.356 . S
C1323 C1322 1.363 . S
C1323 C1329 1.363 . S
C1324 C1325 1.363 . S
C1324 C1329 1.379 . S
C1324 N1331 1.356 . S
C1325 C1324 1.363 . S
C1325 C1328 1.363 . S
N1326 C1328 1.356 . S
N1326 H1338 0.984 . S
N1326 H1339 0.985 . S
N1327 C1329 1.356 . S
N1327 H1332 0.984 . S
N1327 H1333 0.985 . S
C1328 C1322 1.379 . S
C1328 C1325 1.363 . S
C1328 N1326 1.356 . S
C1329 C1323 1.363 . S
C1329 C1324 1.379 . S
C1329 N1327 1.356 . S
N1330 C1322 1.356 . S
N1330 H1336 0.984 . S
N1330 H1337 0.984 . S
N1331 C1324 1.356 . S
N1331 H1334 0.984 . S
N1331 H1335 0.985 . S
H1332 N1327 0.984 . S
H1333 N1327 0.985 . S
H1334 N1331 0.984 . S
H1335 N1331 0.985 . S
H1336 N1330 0.984 . S
H1337 N1330 0.984 . S
H1338 N1326 0.984 . S
H1339 N1326 0.985 . S
C1340 C1341 1.363 . S
C1340 C1346 1.379 . S
C1340 N1348 1.356 . S
C1341 C1340 1.363 . S
C1341 C1347 1.363 . S
C1342 C1343 1.363 . S
C1342 C1347 1.379 . S
C1342 N1349 1.356 . S
C1343 C1342 1.363 . S
C1343 C1346 1.363 . S
N1344 C1346 1.356 . S
N1344 H1356 0.984 . S
N1344 H1357 0.985 . S
N1345 C1347 1.356 . S
N1345 H1350 0.984 . S
N1345 H1351 0.985 . S
C1346 C1340 1.379 . S
C1346 C1343 1.363 . S
C1346 N1344 1.356 . S
C1347 C1341 1.363 . S
C1347 C1342 1.379 . S
C1347 N1345 1.356 . S
N1348 C1340 1.356 . S
N1348 H1354 0.984 . S
N1348 H1355 0.984 . S
N1349 C1342 1.356 . S
N1349 H1352 0.984 . S
N1349 H1353 0.985 . S
H1350 N1345 0.984 . S
H1351 N1345 0.985 . S
H1352 N1349 0.984 . S
H1353 N1349 0.985 . S
H1354 N1348 0.984 . S
H1355 N1348 0.984 . S
H1356 N1344 0.984 . S
H1357 N1344 0.985 . S
C1358 C1359 1.363 . S
C1358 C1364 1.379 . S
C1358 N1366 1.356 . S
C1359 C1358 1.363 . S
C1359 C1365 1.363 . S
C1360 C1361 1.363 . S
C1360 C1365 1.379 . S
C1360 N1367 1.356 . S
C1361 C1360 1.363 . S
C1361 C1364 1.363 . S
N1362 C1364 1.356 . S
N1362 H1374 0.984 . S
N1362 H1375 0.985 . S
N1363 C1365 1.356 . S
N1363 H1368 0.984 . S
N1363 H1369 0.985 . S
C1364 C1358 1.379 . S
C1364 C1361 1.363 . S
C1364 N1362 1.356 . S
C1365 C1359 1.363 . S
C1365 C1360 1.379 . S
C1365 N1363 1.356 . S
N1366 C1358 1.356 . S
N1366 H1372 0.984 . S
N1366 H1373 0.984 . S
N1367 C1360 1.356 . S
N1367 H1370 0.984 . S
N1367 H1371 0.985 . S
H1368 N1363 0.984 . S
H1369 N1363 0.985 . S
H1370 N1367 0.984 . S
H1371 N1367 0.985 . S
H1372 N1366 0.984 . S
H1373 N1366 0.984 . S
H1374 N1362 0.984 . S
H1375 N1362 0.985 . S
C1376 C1377 1.363 1_545 S
C1376 C1382 1.379 . S
C1376 N1384 1.356 . S
C1377 C1376 1.363 1_565 S
C1377 C1383 1.363 . S
C1378 C1379 1.363 1_565 S
C1378 C1383 1.379 . S
C1378 N1385 1.356 . S
C1379 C1378 1.363 1_545 S
C1379 C1382 1.363 . S
N1380 C1382 1.356 . S
N1380 H1392 0.984 . S
N1380 H1393 0.985 . S
N1381 C1383 1.356 . S
N1381 H1386 0.984 . S
N1381 H1387 0.985 . S
C1382 C1376 1.379 . S
C1382 C1379 1.363 . S
C1382 N1380 1.356 . S
C1383 C1377 1.363 . S
C1383 C1378 1.379 . S
C1383 N1381 1.356 . S
N1384 C1376 1.356 . S
N1384 H1390 0.984 . S
N1384 H1391 0.984 . S
N1385 C1378 1.356 . S
N1385 H1388 0.984 . S
N1385 H1389 0.985 . S
H1386 N1381 0.984 . S
H1387 N1381 0.985 . S
H1388 N1385 0.984 . S
H1389 N1385 0.985 . S
H1390 N1384 0.984 . S
H1391 N1384 0.984 . S
H1392 N1380 0.984 . S
H1393 N1380 0.985 . S
C1394 C1395 1.363 1_545 S
C1394 C1400 1.379 . S
C1394 N1402 1.356 . S
C1395 C1394 1.363 1_565 S
C1395 C1401 1.363 . S
C1396 C1397 1.363 1_565 S
C1396 C1401 1.379 . S
C1396 N1403 1.356 . S
C1397 C1396 1.363 1_545 S
C1397 C1400 1.363 . S
N1398 C1400 1.356 . S
N1398 H1410 0.984 . S
N1398 H1411 0.985 . S
N1399 C1401 1.356 . S
N1399 H1404 0.984 . S
N1399 H1405 0.985 . S
C1400 C1394 1.379 . S
C1400 C1397 1.363 . S
C1400 N1398 1.356 . S
C1401 C1395 1.363 . S
C1401 C1396 1.379 . S
C1401 N1399 1.356 . S
N1402 C1394 1.356 . S
N1402 H1408 0.984 . S
N1402 H1409 0.984 . S
N1403 C1396 1.356 . S
N1403 H1406 0.984 . S
N1403 H1407 0.985 . S
H1404 N1399 0.984 . S
H1405 N1399 0.985 . S
H1406 N1403 0.984 . S
H1407 N1403 0.985 . S
H1408 N1402 0.984 . S
H1409 N1402 0.984 . S
H1410 N1398 0.984 . S
H1411 N1398 0.985 . S
C1412 C1413 1.363 . S
C1412 C1418 1.379 . S
C1412 N1420 1.356 . S
C1413 C1412 1.363 . S
C1413 C1419 1.363 1_565 S
C1414 C1415 1.363 . S
C1414 C1419 1.379 . S
C1414 N1421 1.356 . S
C1415 C1414 1.363 . S
C1415 C1418 1.363 1_545 S
N1416 C1418 1.356 . S
N1416 H1428 0.984 . S
N1416 H1429 0.985 . S
N1417 C1419 1.356 . S
N1417 H1422 0.984 . S
N1417 H1423 0.985 . S
C1418 C1412 1.379 . S
C1418 C1415 1.363 1_565 S
C1418 N1416 1.356 . S
C1419 C1413 1.363 1_545 S
C1419 C1414 1.379 . S
C1419 N1417 1.356 . S
N1420 C1412 1.356 . S
N1420 H1426 0.984 . S
N1420 H1427 0.984 . S
N1421 C1414 1.356 . S
N1421 H1424 0.984 . S
N1421 H1425 0.985 . S
H1422 N1417 0.984 . S
H1423 N1417 0.985 . S
H1424 N1421 0.984 . S
H1425 N1421 0.985 . S
H1426 N1420 0.984 . S
H1427 N1420 0.984 . S
H1428 N1416 0.984 . S
H1429 N1416 0.985 . S
C1430 C1431 1.363 1_565 S
C1430 C1436 1.379 . S
C1430 N1438 1.356 . S
C1431 C1430 1.363 1_545 S
C1431 C1437 1.363 . S
C1432 C1433 1.363 1_545 S
C1432 C1437 1.379 . S
C1432 N1439 1.356 . S
C1433 C1432 1.363 1_565 S
C1433 C1436 1.363 . S
N1434 C1436 1.356 . S
N1434 H1446 0.984 . S
N1434 H1447 0.985 . S
N1435 C1437 1.356 . S
N1435 H1440 0.984 . S
N1435 H1441 0.985 . S
C1436 C1430 1.379 . S
C1436 C1433 1.363 . S
C1436 N1434 1.356 . S
C1437 C1431 1.363 . S
C1437 C1432 1.379 . S
C1437 N1435 1.356 . S
N1438 C1430 1.356 . S
N1438 H1444 0.984 . S
N1438 H1445 0.984 . S
N1439 C1432 1.356 . S
N1439 H1442 0.984 . S
N1439 H1443 0.985 . S
H1440 N1435 0.984 . S
H1441 N1435 0.985 . S
H1442 N1439 0.984 . S
H1443 N1439 0.985 . S
H1444 N1438 0.984 . S
H1445 N1438 0.984 . S
H1446 N1434 0.984 . S
H1447 N1434 0.985 . S
C1448 C1449 1.363 . S
C1448 C1454 1.379 . S
C1448 N1456 1.356 . S
C1449 C1448 1.363 . S
C1449 C1455 1.363 . S
C1450 C1451 1.363 . S
C1450 C1455 1.379 . S
C1450 N1457 1.356 . S
C1451 C1450 1.363 . S
C1451 C1454 1.363 . S
N1452 C1454 1.356 . S
N1452 H1464 0.984 . S
N1452 H1465 0.985 . S
N1453 C1455 1.356 . S
N1453 H1458 0.984 . S
N1453 H1459 0.985 . S
C1454 C1448 1.379 . S
C1454 C1451 1.363 . S
C1454 N1452 1.356 . S
C1455 C1449 1.363 . S
C1455 C1450 1.379 . S
C1455 N1453 1.356 . S
N1456 C1448 1.356 . S
N1456 H1462 0.984 . S
N1456 H1463 0.984 . S
N1457 C1450 1.356 . S
N1457 H1460 0.984 . S
N1457 H1461 0.985 . S
H1458 N1453 0.984 . S
H1459 N1453 0.985 . S
H1460 N1457 0.984 . S
H1461 N1457 0.985 . S
H1462 N1456 0.984 . S
H1463 N1456 0.984 . S
H1464 N1452 0.984 . S
H1465 N1452 0.985 . S
C1466 C1467 1.363 . S
C1466 C1472 1.379 . S
C1466 N1474 1.356 . S
C1467 C1466 1.363 . S
C1467 C1473 1.363 . S
C1468 C1469 1.363 . S
C1468 C1473 1.379 . S
C1468 N1475 1.356 . S
C1469 C1468 1.363 . S
C1469 C1472 1.363 . S
N1470 C1472 1.356 . S
N1470 H1482 0.984 . S
N1470 H1483 0.985 . S
N1471 C1473 1.356 . S
N1471 H1476 0.984 . S
N1471 H1477 0.985 . S
C1472 C1466 1.379 . S
C1472 C1469 1.363 . S
C1472 N1470 1.356 . S
C1473 C1467 1.363 . S
C1473 C1468 1.379 . S
C1473 N1471 1.356 . S
N1474 C1466 1.356 . S
N1474 H1480 0.984 . S
N1474 H1481 0.984 . S
N1475 C1468 1.356 . S
N1475 H1478 0.984 . S
N1475 H1479 0.985 . S
H1476 N1471 0.984 . S
H1477 N1471 0.985 . S
H1478 N1475 0.984 . S
H1479 N1475 0.985 . S
H1480 N1474 0.984 . S
H1481 N1474 0.984 . S
H1482 N1470 0.984 . S
H1483 N1470 0.985 . S
C1484 C1485 1.363 . S
C1484 C1490 1.379 . S
C1484 N1492 1.356 . S
C1485 C1484 1.363 . S
C1485 C1491 1.363 . S
C1486 C1487 1.363 . S
C1486 C1491 1.379 . S
C1486 N1493 1.356 . S
C1487 C1486 1.363 . S
C1487 C1490 1.363 . S
N1488 C1490 1.356 . S
N1488 H1500 0.984 . S
N1488 H1501 0.985 . S
N1489 C1491 1.356 . S
N1489 H1494 0.984 . S
N1489 H1495 0.985 . S
C1490 C1484 1.379 . S
C1490 C1487 1.363 . S
C1490 N1488 1.356 . S
C1491 C1485 1.363 . S
C1491 C1486 1.379 . S
C1491 N1489 1.356 . S
N1492 C1484 1.356 . S
N1492 H1498 0.984 . S
N1492 H1499 0.984 . S
N1493 C1486 1.356 . S
N1493 H1496 0.984 . S
N1493 H1497 0.985 . S
H1494 N1489 0.984 . S
H1495 N1489 0.985 . S
H1496 N1493 0.984 . S
H1497 N1493 0.985 . S
H1498 N1492 0.984 . S
H1499 N1492 0.984 . S
H1500 N1488 0.984 . S
H1501 N1488 0.985 . S
C1502 C1503 1.363 . S
C1502 C1508 1.379 . S
C1502 N1510 1.356 . S
C1503 C1502 1.363 . S
C1503 C1509 1.363 . S
C1504 C1505 1.363 . S
C1504 C1509 1.379 . S
C1504 N1511 1.356 . S
C1505 C1504 1.363 . S
C1505 C1508 1.363 . S
N1506 C1508 1.356 . S
N1506 H1518 0.984 . S
N1506 H1519 0.985 . S
N1507 C1509 1.356 . S
N1507 H1512 0.984 . S
N1507 H1513 0.985 . S
C1508 C1502 1.379 . S
C1508 C1505 1.363 . S
C1508 N1506 1.356 . S
C1509 C1503 1.363 . S
C1509 C1504 1.379 . S
C1509 N1507 1.356 . S
N1510 C1502 1.356 . S
N1510 H1516 0.984 . S
N1510 H1517 0.984 . S
N1511 C1504 1.356 . S
N1511 H1514 0.984 . S
N1511 H1515 0.985 . S
H1512 N1507 0.984 . S
H1513 N1507 0.985 . S
H1514 N1511 0.984 . S
H1515 N1511 0.985 . S
H1516 N1510 0.984 . S
H1517 N1510 0.984 . S
H1518 N1506 0.984 . S
H1519 N1506 0.985 . S
C945 C3 1.445 . S
C947 C298 1.445 . S
C963 C239 1.445 . S
C965 C62 1.445 . S
C981 C121 1.445 . S
C983 C416 1.445 . S
C999 C357 1.445 . S
C1001 C180 1.445 . S
C1017 C770 1.445 . S
C1019 C475 1.445 . S
C1035 C711 1.445 . S
C1037 C534 1.445 . S
C1053 C888 1.445 . S
C1055 C593 1.445 . S
C1071 C652 1.445 . S
C1073 C829 1.445 . S
C1089 C111 1.502 . S
C1091 C52 1.502 . S
C1107 C170 1.502 . S
C1109 C229 1.502 . S
C1125 C288 1.502 . S
C1127 C347 1.502 . S
C1143 C406 1.502 . S
C1145 C465 1.502 . S
C1161 C524 1.502 . S
C1163 C583 1.502 . S
C1179 C701 1.502 . S
C1181 C642 1.502 . S
C1197 C819 1.502 . S
C1199 C760 1.502 . S
C1215 C878 1.502 . S
C1217 C937 1.502 . S
C1233 C536 1.510 . S
C1235 C5 1.510 . S
C1251 C64 1.510 . S
C1253 C477 1.510 . S
C1269 C654 1.510 . S
C1271 C123 1.510 . S
C1287 C182 1.510 . S
C1289 C595 1.510 . S
C1305 C241 1.510 . S
C1307 C772 1.510 . S
C1323 C713 1.510 . S
C1325 C300 1.510 . S
C1341 C359 1.510 . S
C1343 C890 1.510 . S
C1359 C831 1.510 . S
C1361 C418 1.510 . S
C1377 C33 1.368 1_565 S
C1379 C151 1.368 1_545 S
C1395 C210 1.368 1_565 S
C1397 C92 1.368 1_545 S
C1413 C387 1.368 1_565 S
C1415 C269 1.368 1_545 S
C1431 C446 1.368 1_545 S
C1433 C328 1.368 1_565 S
C1449 C623 1.368 . S
C1451 C505 1.368 . S
C1467 C564 1.368 . S
C1469 C682 1.368 . S
C1485 C859 1.368 . S
C1487 C741 1.368 . S
C1503 C800 1.368 . S
C1505 C918 1.368 . S
