# Generated by pormake.
# Topology wkq, (6)-cn, num edge types: 1
# Building blocks:
#     Node 0, Type 0, BuildingBlock: IZENUY_clean_sbu_0, # of connection points: 6
#     Node 1, Type 0, BuildingBlock: IZENUY_clean_sbu_0, # of connection points: 6
#     Node 2, Type 0, BuildingBlock: IZENUY_clean_sbu_0, # of connection points: 6
#     Node 3, Type 0, BuildingBlock: IZENUY_clean_sbu_0, # of connection points: 6
#     Node 4, Type 0, BuildingBlock: IZENUY_clean_sbu_0, # of connection points: 6
#     Node 5, Type 0, BuildingBlock: IZENUY_clean_sbu_0, # of connection points: 6
#     Node 6, Type 0, BuildingBlock: IZENUY_clean_sbu_0, # of connection points: 6
#     Node 7, Type 0, BuildingBlock: IZENUY_clean_sbu_0, # of connection points: 6
#     Node 8, Type 0, BuildingBlock: IZENUY_clean_sbu_0, # of connection points: 6
#     Node 9, Type 0, BuildingBlock: IZENUY_clean_sbu_0, # of connection points: 6
#     Node 10, Type 0, BuildingBlock: IZENUY_clean_sbu_0, # of connection points: 6
#     Node 11, Type 0, BuildingBlock: IZENUY_clean_sbu_0, # of connection points: 6
#     Edge 12, Type (0, 0), BuildingBlock: CIFDUS_clean_linker_0, # of connection points: 2
#     Edge 13, Type (0, 0), BuildingBlock: CIFDUS_clean_linker_0, # of connection points: 2
#     Edge 14, Type (0, 0), BuildingBlock: CIFDUS_clean_linker_0, # of connection points: 2
#     Edge 15, Type (0, 0), BuildingBlock: CIFDUS_clean_linker_0, # of connection points: 2
#     Edge 16, Type (0, 0), BuildingBlock: CIFDUS_clean_linker_0, # of connection points: 2
#     Edge 17, Type (0, 0), BuildingBlock: CIFDUS_clean_linker_0, # of connection points: 2
#     Edge 18, Type (0, 0), BuildingBlock: CIFDUS_clean_linker_0, # of connection points: 2
#     Edge 19, Type (0, 0), BuildingBlock: CIFDUS_clean_linker_0, # of connection points: 2
#     Edge 20, Type (0, 0), BuildingBlock: CIFDUS_clean_linker_0, # of connection points: 2
#     Edge 21, Type (0, 0), BuildingBlock: CIFDUS_clean_linker_0, # of connection points: 2
#     Edge 22, Type (0, 0), BuildingBlock: CIFDUS_clean_linker_0, # of connection points: 2
#     Edge 23, Type (0, 0), BuildingBlock: CIFDUS_clean_linker_0, # of connection points: 2
#     Edge 24, Type (0, 0), BuildingBlock: CIFDUS_clean_linker_0, # of connection points: 2
#     Edge 25, Type (0, 0), BuildingBlock: CIFDUS_clean_linker_0, # of connection points: 2
#     Edge 26, Type (0, 0), BuildingBlock: CIFDUS_clean_linker_0, # of connection points: 2
#     Edge 27, Type (0, 0), BuildingBlock: CIFDUS_clean_linker_0, # of connection points: 2
#     Edge 28, Type (0, 0), BuildingBlock: CIFDUS_clean_linker_0, # of connection points: 2
#     Edge 29, Type (0, 0), BuildingBlock: CIFDUS_clean_linker_0, # of connection points: 2
#     Edge 30, Type (0, 0), BuildingBlock: CIFDUS_clean_linker_0, # of connection points: 2
#     Edge 31, Type (0, 0), BuildingBlock: CIFDUS_clean_linker_0, # of connection points: 2
#     Edge 32, Type (0, 0), BuildingBlock: CIFDUS_clean_linker_0, # of connection points: 2
#     Edge 33, Type (0, 0), BuildingBlock: CIFDUS_clean_linker_0, # of connection points: 2
#     Edge 34, Type (0, 0), BuildingBlock: CIFDUS_clean_linker_0, # of connection points: 2
#     Edge 35, Type (0, 0), BuildingBlock: CIFDUS_clean_linker_0, # of connection points: 2
#     Edge 36, Type (0, 0), BuildingBlock: CIFDUS_clean_linker_0, # of connection points: 2
#     Edge 37, Type (0, 0), BuildingBlock: CIFDUS_clean_linker_0, # of connection points: 2
#     Edge 38, Type (0, 0), BuildingBlock: CIFDUS_clean_linker_0, # of connection points: 2
#     Edge 39, Type (0, 0), BuildingBlock: CIFDUS_clean_linker_0, # of connection points: 2
#     Edge 40, Type (0, 0), BuildingBlock: CIFDUS_clean_linker_0, # of connection points: 2
#     Edge 41, Type (0, 0), BuildingBlock: CIFDUS_clean_linker_0, # of connection points: 2
#     Edge 42, Type (0, 0), BuildingBlock: CIFDUS_clean_linker_0, # of connection points: 2
#     Edge 43, Type (0, 0), BuildingBlock: CIFDUS_clean_linker_0, # of connection points: 2
#     Edge 44, Type (0, 0), BuildingBlock: CIFDUS_clean_linker_0, # of connection points: 2
#     Edge 45, Type (0, 0), BuildingBlock: CIFDUS_clean_linker_0, # of connection points: 2
#     Edge 46, Type (0, 0), BuildingBlock: CIFDUS_clean_linker_0, # of connection points: 2
#     Edge 47, Type (0, 0), BuildingBlock: CIFDUS_clean_linker_0, # of connection points: 2
# Relax obj value: 0.404
# Max RMSD: 0.286
# Mean RMSD: 0.286
data_MOF--net-wkq--node1-IZENUY_clean_sbu_0--edge1-CIFDUS_clean_linker_0
_symmetry_space_group_name_H-M    P1
_symmetry_Int_Tables_number       1
_symmetry_cell_setting            triclinic
loop_
_symmetry_equiv_pos_as_xyz
'x, y, z'
_cell_length_a     32.546591
_cell_length_b     32.503923
_cell_length_c     31.045787
_cell_angle_alpha  90.250544
_cell_angle_beta   90.166767
_cell_angle_gamma 120.27415
loop_
_atom_site_label
_atom_site_type_symbol
_atom_site_fract_x
_atom_site_fract_y
_atom_site_fract_z
_atom_type_partial_charge
Fe0 Fe 0.2317 0.36731 0.02566 0.0
Fe1 Fe 0.29957 0.47267 0.04581 0.0
O2 O 0.25841 0.42801 0.01061 0.0
Fe3 Fe 0.24306 0.44312 0.96071 0.0
O4 O 0.18058 0.41416 0.97612 0.0
O5 O 0.17656 0.34777 -0.00492 0.0
O6 O 0.20318 0.37652 0.07156 0.0
C7 C 0.22624 0.40743 0.10011 0.0
C8 C 0.25429 0.36341 0.94221 0.0
O9 O 0.26888 0.44031 0.09446 0.0
C10 C 0.33901 0.5064 0.96296 0.0
O11 O 0.28139 0.37521 0.05949 0.0
O12 O 0.33848 0.44761 0.04554 0.0
O13 O 0.23684 0.38957 0.93217 0.0
O14 O 0.25927 0.35551 0.98101 0.0
C15 C 0.24966 0.51506 0.01869 0.0
O16 O 0.33651 0.51301 0.00289 0.0
O17 O 0.30418 0.47354 0.94274 0.0
C18 C 0.32497 0.40675 0.06028 0.0
O19 O 0.26393 0.50054 0.04953 0.0
O20 O 0.24805 0.49962 0.98059 0.0
C21 C 0.15623 0.37149 -0.0119 0.0
Fe22 Fe 0.8227 0.23072 0.13425 0.0
Fe23 Fe 0.89372 0.23504 0.20274 0.0
O24 O 0.85317 0.25252 0.18423 0.0
Fe25 Fe 0.84333 0.29236 0.21597 0.0
O26 O 0.7818 0.26868 0.19882 0.0
O27 O 0.76436 0.2055 0.15969 0.0
O28 O 0.81591 0.17104 0.13908 0.0
C29 C 0.82111 0.15011 0.17122 0.0
C30 C 0.84974 0.32838 0.1355 0.0
O31 O 0.84832 0.1731 0.20212 0.0
C32 C 0.94183 0.32752 0.22944 0.0
O33 O 0.87854 0.25467 0.10474 0.0
O34 O 0.91439 0.23037 0.14927 0.0
O35 O 0.86526 0.3363 0.17371 0.0
O36 O 0.82409 0.28632 0.12108 0.0
C37 C 0.84458 0.23447 0.27806 0.0
O38 O 0.94275 0.29656 0.20538 0.0
O39 O 0.90268 0.32364 0.24014 0.0
C40 C 0.9122 0.24736 0.11343 0.0
O41 O 0.87975 0.23565 0.25963 0.0
O42 O 0.82104 0.25089 0.26022 0.0
C43 C 0.75177 0.2282 0.18421 0.0
Fe44 Fe 0.69393 0.89191 0.36796 0.0
Fe45 Fe 0.58676 0.85288 0.37489 0.0
O46 O 0.63553 0.85378 0.34869 0.0
Fe47 Fe 0.62545 0.81636 0.3032 0.0
O48 O 0.67644 0.80713 0.31376 0.0
O49 O 0.70378 0.84304 0.37608 0.0
O50 O 0.67681 0.88525 0.42451 0.0
C51 C 0.63975 0.85464 0.44362 0.0
C52 C 0.703 0.90056 0.27765 0.0
O53 O 0.59999 0.83336 0.42469 0.0
C54 C 0.55989 0.84907 0.29154 0.0
O55 O 0.68863 0.94457 0.36204 0.0
O56 O 0.61958 0.91508 0.39338 0.0
O57 O 0.66096 0.86798 0.26916 0.0
O58 O 0.72104 0.90418 0.3146 0.0
C59 C 0.55384 0.75668 0.35737 0.0
O60 O 0.57062 0.87228 0.32648 0.0
O61 O 0.57298 0.81888 0.2843 0.0
C62 C 0.65895 0.95061 0.38293 0.0
O63 O 0.54518 0.79014 0.36272 0.0
O64 O 0.58901 0.76288 0.33514 0.0
C65 C 0.70085 0.81403 0.34778 0.0
Fe66 Fe 0.82121 0.6708 0.53621 0.0
Fe67 Fe 0.76656 0.56438 0.55606 0.0
O68 O 0.8056 0.61167 0.52226 0.0
Fe69 Fe 0.82835 0.59922 0.47507 0.0
O70 O 0.88777 0.65431 0.47856 0.0
O71 O 0.88322 0.68985 0.53752 0.0
O72 O 0.82164 0.66137 0.59443 0.0
C73 C 0.82403 0.6292 0.61527 0.0
C74 C 0.80759 0.66703 0.4461 0.0
O75 O 0.80882 0.58819 0.59956 0.0
C76 C 0.73059 0.52617 0.47765 0.0
O77 O 0.75936 0.65629 0.53672 0.0
O78 O 0.73501 0.5935 0.57699 0.0
O79 O 0.80324 0.62653 0.441 0.0
O80 O 0.82448 0.69054 0.48058 0.0
C81 C 0.8316 0.53625 0.53156 0.0
O82 O 0.7227 0.53852 0.51384 0.0
O83 O 0.77281 0.5423 0.46395 0.0
C84 C 0.73027 0.62748 0.5636 0.0
O85 O 0.79039 0.5257 0.54322 0.0
O86 O 0.85456 0.57005 0.50571 0.0
C87 C 0.90741 0.68448 0.509 0.0
Fe88 Fe 0.17075 0.80465 0.70206 0.0
Fe89 Fe 0.22462 0.75226 0.72045 0.0
O90 O 0.21526 0.79104 0.68743 0.0
Fe91 Fe 0.25044 0.81529 0.64064 0.0
O92 O 0.25454 0.87452 0.64563 0.0
O93 O 0.21239 0.86726 0.70356 0.0
O94 O 0.18237 0.80548 0.76027 0.0
C95 C 0.21934 0.81098 0.7794 0.0
C96 C 0.16053 0.79245 0.61161 0.0
O97 O 0.24428 0.79504 0.76364 0.0
C98 C 0.22585 0.71714 0.64152 0.0
O99 O 0.12452 0.74215 0.70234 0.0
O100 O 0.16449 0.72011 0.74279 0.0
O101 O 0.19777 0.79027 0.60623 0.0
O102 O 0.15272 0.80727 0.64664 0.0
C103 C 0.31757 0.81827 0.69618 0.0
O104 O 0.20556 0.70859 0.67774 0.0
O105 O 0.2519 0.75994 0.62849 0.0
C106 C 0.1251 0.71414 0.7298 0.0
O107 O 0.287 0.77647 0.70663 0.0
O108 O 0.30626 0.84169 0.67144 0.0
C109 C 0.24269 0.89283 0.67609 0.0
Fe110 Fe 0.39413 0.16871 0.86179 0.0
Fe111 Fe 0.50158 0.21317 0.87512 0.0
O112 O 0.45314 0.20824 0.84483 0.0
Fe113 Fe 0.46434 0.24259 0.79748 0.0
O114 O 0.4121 0.25042 0.80316 0.0
O115 O 0.38042 0.21588 0.86478 0.0
O116 O 0.4089 0.17916 0.91996 0.0
C117 C 0.44542 0.21126 0.93969 0.0
C118 C 0.39129 0.15381 0.77202 0.0
O119 O 0.48454 0.23505 0.92068 0.0
C120 C 0.53124 0.21124 0.7941 0.0
O121 O 0.40333 0.11816 0.86038 0.0
O122 O 0.47003 0.15216 0.89657 0.0
O123 O 0.43224 0.18874 0.76487 0.0
O124 O 0.36975 0.15163 0.80669 0.0
C125 C 0.53304 0.30776 0.85202 0.0
O126 O 0.52097 0.19154 0.83049 0.0
O127 O 0.51827 0.24068 0.78342 0.0
C128 C 0.43223 0.1149 0.88517 0.0
O129 O 0.54245 0.27553 0.86123 0.0
O130 O 0.49816 0.29854 0.82768 0.0
C131 C 0.38592 0.24476 0.83543 0.0
Fe132 Fe 0.61788 0.83053 0.83896 0.0
Fe133 Fe 0.67694 0.82276 0.76556 0.0
O134 O 0.6214 0.80451 0.78979 0.0
Fe135 Fe 0.5688 0.75933 0.76483 0.0
O136 O 0.53068 0.78125 0.78538 0.0
O137 O 0.58001 0.8508 0.81435 0.0
O138 O 0.66918 0.89073 0.82758 0.0
C139 C 0.69091 0.90912 0.79264 0.0
C140 C 0.55063 0.73166 0.8482 0.0
O141 O 0.69045 0.88346 0.76204 0.0
C142 C 0.63485 0.72904 0.7459 0.0
O143 O 0.65481 0.81122 0.86657 0.0
O144 O 0.70955 0.8341 0.81653 0.0
O145 O 0.55643 0.7207 0.81054 0.0
O146 O 0.5662 0.77497 0.85872 0.0
C147 C 0.61579 0.81245 0.69572 0.0
O148 O 0.66769 0.76282 0.76696 0.0
O149 O 0.59672 0.729 0.73813 0.0
C150 C 0.69475 0.81845 0.85396 0.0
O151 O 0.65355 0.81514 0.71035 0.0
O152 O 0.57872 0.7959 0.71823 0.0
C153 C 0.54152 0.82336 0.79482 0.0
Fe154 Fe 0.88313 0.67083 0.93916 0.0
Fe155 Fe 0.83787 0.56262 0.93475 0.0
O156 O 0.84494 0.61407 0.96142 0.0
Fe157 Fe 0.8139 0.60789 0.01001 0.0
O158 O 0.80426 0.65865 -3e-05 0.0
O159 O 0.83636 0.68467 0.93632 0.0
O160 O 0.86739 0.64958 0.88336 0.0
C161 C 0.83176 0.61241 0.86795 0.0
C162 C 0.90341 0.68465 0.02809 0.0
O163 O 0.81121 0.57424 0.88909 0.0
C164 C 0.8474 0.54256 0.01741 0.0
O165 O 0.93385 0.66163 0.93968 0.0
O166 O 0.89608 0.59193 0.90846 0.0
O167 O 0.86955 0.64451 0.03924 0.0
O168 O 0.90425 0.7013 -0.00884 0.0
C169 C 0.74577 0.532 0.96341 0.0
O170 O 0.86412 0.54913 0.97976 0.0
O171 O 0.81867 0.55649 0.02827 0.0
C172 C 0.93447 0.62974 0.91707 0.0
O173 O 0.77787 0.52263 0.95438 0.0
O174 O 0.75594 0.56978 0.98376 0.0
C175 C 0.80925 0.68246 0.96606 0.0
Fe176 Fe 0.30378 0.83994 0.08984 0.0
Fe177 Fe 0.24127 0.80728 0.17105 0.0
O178 O 0.26049 0.84122 0.12312 0.0
Fe179 Fe 0.23558 0.87667 0.1081 0.0
O180 O 0.20968 0.84159 0.05945 0.0
O181 O 0.27628 0.84444 0.04029 0.0
O182 O 0.26839 0.77626 0.08252 0.0
C183 C 0.25106 0.7453 0.1115 0.0
C184 C 0.33069 0.93246 0.07802 0.0
O185 O 0.24631 0.7566 0.14967 0.0
C186 C 0.2534 0.89759 0.1934 0.0
O187 O 0.33789 0.83432 0.13419 0.0
O188 O 0.30114 0.83618 0.193 0.0
O189 O 0.28728 0.92058 0.0779 0.0
O190 O 0.34309 0.90443 0.09327 0.0
C191 C 0.15674 0.79535 0.14023 0.0
O192 O 0.23434 0.85316 0.20089 0.0
O193 O 0.26075 0.91325 0.15542 0.0
C194 C 0.33752 0.84046 0.17445 0.0
O195 O 0.17956 0.77537 0.1519 0.0
O196 O 0.17856 0.83983 0.13489 0.0
C197 C 0.235 0.83688 0.03129 0.0
Fe198 Fe 0.3872 0.22511 0.2738 0.0
Fe199 Fe 0.49211 0.28334 0.24878 0.0
O200 O 0.44796 0.24545 0.28555 0.0
Fe201 Fe 0.46447 0.22838 0.33386 0.0
O202 O 0.41125 0.16775 0.33476 0.0
O203 O 0.37266 0.16405 0.27501 0.0
O204 O 0.3934 0.22244 0.21504 0.0
C205 C 0.42521 0.22052 0.19317 0.0
C206 C 0.39534 0.24767 0.3617 0.0
O207 O 0.46689 0.2379 0.20776 0.0
C208 C 0.53456 0.32626 0.3245 0.0
O209 O 0.39789 0.28547 0.2714 0.0
O210 O 0.4593 0.31167 0.22874 0.0
O211 O 0.43704 0.25503 0.36603 0.0
O212 O 0.36983 0.22356 0.33014 0.0
C213 C 0.52608 0.22334 0.27674 0.0
O214 O 0.52 0.33078 0.28812 0.0
O215 O 0.52028 0.28549 0.34074 0.0
C216 C 0.42511 0.31506 0.24395 0.0
O217 O 0.53314 0.26206 0.26088 0.0
O218 O 0.49442 0.20192 0.30489 0.0
C219 C 0.38156 0.14385 0.30506 0.0
Fe220 Fe 0.18161 0.38246 0.43227 0.0
Fe221 Fe 0.23395 0.4874 0.40698 0.0
O222 O 0.2269 0.44196 0.44232 0.0
Fe223 Fe 0.26529 0.45547 0.48751 0.0
O224 O 0.286 0.41598 0.46742 0.0
O225 O 0.21426 0.35582 0.45601 0.0
O226 O 0.20671 0.38084 0.38033 0.0
C227 C 0.21323 0.41016 0.35085 0.0
C228 C 0.17397 0.38906 0.51895 0.0
O229 O 0.21582 0.44948 0.35939 0.0
C230 C 0.2493 0.53063 0.48945 0.0
O231 O 0.14067 0.39795 0.4066 0.0
O232 O 0.1734 0.47512 0.41558 0.0
O233 O 0.21896 0.40855 0.52199 0.0
O234 O 0.15377 0.38107 0.48274 0.0
C235 C 0.32713 0.51503 0.42168 0.0
O236 O 0.2538 0.53355 0.4489 0.0
O237 O 0.24714 0.49587 0.50961 0.0
C238 C 0.13739 0.43505 0.40715 0.0
O239 O 0.29403 0.50226 0.39462 0.0
O240 O 0.31797 0.50522 0.4613 0.0
C241 C 0.25871 0.37258 0.45784 0.0
Fe242 Fe 0.7843 0.2282 0.59856 0.0
Fe243 Fe 0.84973 0.25337 0.67764 0.0
O244 O 0.82979 0.22478 0.62683 0.0
Fe245 Fe 0.85463 0.19222 0.6044 0.0
O246 O 0.84922 0.20727 0.54835 0.0
O247 O 0.82368 0.25808 0.55426 0.0
O248 O 0.80068 0.28728 0.61948 0.0
C249 C 0.84081 0.32046 0.63214 0.0
C250 C 0.76414 0.13407 0.57828 0.0
O251 O 0.86801 0.31163 0.65435 0.0
C252 C 0.84269 0.16636 0.69162 0.0
O253 O 0.7425 0.19874 0.6416 0.0
O254 O 0.7912 0.24414 0.6932 0.0
O255 O 0.79719 0.13822 0.6024 0.0
O256 O 0.75985 0.17002 0.57105 0.0
C257 C 0.93451 0.26921 0.63686 0.0
O258 O 0.83157 0.19658 0.7037 0.0
O259 O 0.86441 0.17187 0.65644 0.0
C260 C 0.74968 0.21421 0.67984 0.0
O261 O 0.91214 0.26785 0.67076 0.0
O262 O 0.91333 0.24364 0.60462 0.0
C263 C 0.84319 0.23985 0.53263 0.0
H264 H 0.23506 0.54386 0.09661 0.0
H265 H 0.24615 0.57754 0.96129 0.0
H266 H 0.24388 0.65006 0.97816 0.0
H267 H 0.24586 0.70716 0.0318 0.0
H268 H 0.2356 0.67348 0.16716 0.0
H269 H 0.23004 0.59738 0.14965 0.0
C270 C 0.23649 0.56673 0.07064 0.0
C271 C 0.24129 0.55534 0.02765 0.0
C272 C 0.23565 0.60855 0.08064 0.0
C273 C 0.24249 0.58527 -0.00544 0.0
C274 C 0.24146 0.62693 0.00427 0.0
C275 C 0.24203 0.68307 0.05757 0.0
C276 C 0.24176 0.69652 0.10091 0.0
C277 C 0.23918 0.63946 0.04727 0.0
C278 C 0.23607 0.66436 0.13364 0.0
C279 C 0.23307 0.62085 0.12362 0.0
H280 H 0.55436 0.21522 0.19729 0.0
H281 H 0.576 0.19922 0.33174 0.0
H282 H 0.6461 0.19302 0.31392 0.0
H283 H 0.70759 0.20455 0.26085 0.0
H284 H 0.68448 0.21802 0.12628 0.0
H285 H 0.60802 0.21204 0.143 0.0
C286 C 0.57379 0.20908 0.2225 0.0
C287 C 0.56044 0.20796 0.26577 0.0
C288 C 0.61383 0.20545 0.21191 0.0
C289 C 0.58555 0.19987 0.29825 0.0
C290 C 0.62581 0.19675 0.28805 0.0
C291 C 0.68491 0.20453 0.23516 0.0
C292 C 0.7012 0.21145 0.1924 0.0
C293 C 0.64119 0.20119 0.24515 0.0
C294 C 0.67213 0.21201 0.15927 0.0
C295 C 0.62875 0.2091 0.16894 0.0
H296 H 0.39552 0.59102 0.46619 0.0
H297 H 0.3665 0.51844 0.34372 0.0
H298 H 0.43919 0.58465 0.31388 0.0
H299 H 0.50504 0.66833 0.31977 0.0
H300 H 0.52851 0.74283 0.44062 0.0
H301 H 0.46498 0.67123 0.47395 0.0
C302 C 0.40589 0.58916 0.43338 0.0
C303 C 0.37576 0.54996 0.40722 0.0
C304 C 0.44667 0.62826 0.4159 0.0
C305 C 0.38918 0.54838 0.36447 0.0
C306 C 0.43062 0.58634 0.34731 0.0
C307 C 0.49685 0.66828 0.35361 0.0
C308 C 0.5213 0.7106 0.37776 0.0
C309 C 0.45879 0.62727 0.37224 0.0
C310 C 0.51 0.71057 0.42143 0.0
C311 C 0.47358 0.66967 0.44051 0.0
H312 H 0.82768 0.50409 0.61169 0.0
H313 H 0.87405 0.49713 0.48342 0.0
H314 H 0.88734 0.43218 0.50538 0.0
H315 H 0.87461 0.37028 0.55882 0.0
H316 H 0.82851 0.3783 0.68688 0.0
H317 H 0.82693 0.45058 0.66774 0.0
C318 C 0.84172 0.48898 0.58884 0.0
C319 C 0.84951 0.50486 0.54595 0.0
C320 C 0.8491 0.45186 0.60175 0.0
C321 C 0.868 0.48549 0.51661 0.0
C322 C 0.87523 0.44818 0.52913 0.0
C323 C 0.8658 0.38895 0.58279 0.0
C324 C 0.8522 0.36968 0.6243 0.0
C325 C 0.86443 0.43009 0.57126 0.0
C326 C 0.83988 0.39322 0.65504 0.0
C327 C 0.83852 0.43416 0.64393 0.0
H328 H 0.52689 0.86082 0.72279 0.0
H329 H 0.47217 0.81089 0.84984 0.0
H330 H 0.39879 0.81058 0.83146 0.0
H331 H 0.34611 0.81292 0.77598 0.0
H332 H 0.39951 0.86247 0.6485 0.0
H333 H 0.47789 0.8754 0.67019 0.0
C334 C 0.49952 0.85168 0.74682 0.0
C335 C 0.50495 0.83665 0.78784 0.0
C336 C 0.45706 0.85081 0.73563 0.0
C337 C 0.46895 0.82352 0.81846 0.0
C338 C 0.42686 0.82284 0.80776 0.0
C339 C 0.37532 0.82763 0.75327 0.0
C340 C 0.36716 0.83639 0.71064 0.0
C341 C 0.41989 0.8347 0.76599 0.0
C342 C 0.40513 0.85568 0.6815 0.0
C343 C 0.44976 0.86269 0.69386 0.0
H344 H 0.6937 0.51988 0.89129 0.0
H345 H 0.69025 0.45726 0.01414 0.0
H346 H 0.62083 0.38221 -0.00903 0.0
H347 H 0.56857 0.33152 0.93245 0.0
H348 H 0.57011 0.39314 0.80947 0.0
H349 H 0.63258 0.47159 0.83577 0.0
C350 C 0.67635 0.49034 0.91348 0.0
C351 C 0.69624 0.49427 0.95475 0.0
C352 C 0.63692 0.4469 0.89947 0.0
C353 C 0.67469 0.45535 0.98275 0.0
C354 C 0.63546 0.41226 0.96923 0.0
C355 C 0.58211 0.36234 0.91162 0.0
C356 C 0.56535 0.35654 0.86888 0.0
C357 C 0.61744 0.40714 0.92716 0.0
C358 C 0.58258 0.39675 0.84241 0.0
C359 C 0.61838 0.44152 0.85745 0.0
H360 H 0.30344 0.3817 0.14232 0.0
H361 H 0.41427 0.41961 0.04892 0.0
H362 H 0.45955 0.40112 0.10123 0.0
H363 H 0.46224 0.36561 0.17035 0.0
H364 H 0.34975 0.32705 0.26285 0.0
H365 H 0.31091 0.35591 0.21431 0.0
C366 C 0.33767 0.38612 0.13358 0.0
C367 C 0.35526 0.40077 0.09179 0.0
C368 C 0.36308 0.37563 0.16365 0.0
C369 C 0.40007 0.40778 0.08089 0.0
C370 C 0.42576 0.39722 0.11074 0.0
C371 C 0.42976 0.36441 0.18038 0.0
C372 C 0.40848 0.34329 0.21994 0.0
C373 C 0.40695 0.37996 0.15184 0.0
C374 C 0.36665 0.34257 0.23247 0.0
C375 C 0.34422 0.35876 0.20461 0.0
H376 H 0.94349 0.35193 0.31273 0.0
H377 H 1.03515 0.37452 0.20439 0.0
H378 H 0.10519 0.42182 0.2503 0.0
H379 H 0.13942 0.44755 0.3227 0.0
H380 H 0.04783 0.4113 0.43254 0.0
H381 H 0.97812 0.38039 0.38465 0.0
C382 C 0.97881 0.36808 0.29892 0.0
C383 C 0.98433 0.36015 0.25514 0.0
C384 C 1.01862 0.39308 0.3259 0.0
C385 C 1.03019 0.38025 0.23792 0.0
C386 C 0.07009 0.40725 0.26415 0.0
C387 C 0.10431 0.43412 0.33586 0.0
C388 C 0.09862 0.43243 0.38077 0.0
C389 C 0.06465 0.41279 0.30834 0.0
C390 C 0.05298 0.41408 0.39798 0.0
C391 C 1.01323 0.3957 0.37061 0.0
H392 H 0.70161 0.11805 0.5121 0.0
H393 H 0.77866 0.05859 0.57479 0.0
H394 H 0.75774 1.0014 0.51636 0.0
H395 H 0.72146 0.9708 0.44639 0.0
H396 H 0.63467 1.02024 0.38697 0.0
H397 H 0.65754 0.08083 0.44422 0.0
C398 C 0.71314 0.09206 0.51338 0.0
C399 C 0.74218 0.09316 0.54778 0.0
C400 C 0.70073 0.05877 0.47956 0.0
C401 C 0.7565 0.05893 0.54885 0.0
C402 C 0.74499 1.02643 0.51517 0.0
C403 C 0.70769 0.99495 0.44575 0.0
C404 C 0.67744 0.99204 0.41208 0.0
C405 C 0.71811 0.02679 0.48004 0.0
C406 C 0.65909 1.02289 0.41208 0.0
C407 C 0.67162 0.05691 0.44507 0.0
H408 H 0.62675 0.72117 0.65963 0.0
H409 H 0.67406 0.67567 0.76986 0.0
H410 H 0.7029 0.63531 0.72217 0.0
H411 H 0.71961 0.61837 0.64953 0.0
H412 H 0.6823 0.67297 0.53897 0.0
H413 H 0.64415 0.70451 0.58639 0.0
C414 C 0.64249 0.7015 0.67311 0.0
C415 C 0.64746 0.70028 0.7181 0.0
C416 C 0.66091 0.6805 0.64544 0.0
C417 C 0.66936 0.6763 0.73535 0.0
C418 C 0.68593 0.6535 0.70811 0.0
C419 C 0.70226 0.63632 0.63565 0.0
C420 C 0.70289 0.64261 0.5907 0.0
C421 C 0.6825 0.65601 0.66315 0.0
C422 C 0.68172 0.66731 0.57338 0.0
C423 C 0.66011 0.68538 0.60049 0.0
H424 H 0.12726 0.71049 0.81632 0.0
H425 H 1.03052 0.6636 0.70796 0.0
H426 H 0.96261 0.62929 0.75742 0.0
H427 H 0.93153 0.61731 0.83126 0.0
H428 H 1.0288 0.67419 0.93892 0.0
H429 H 0.09641 0.70034 0.8898 0.0
C430 C 0.09128 0.69198 0.80346 0.0
C431 C 0.08372 0.68864 0.75852 0.0
C432 C 0.05287 0.67464 0.83199 0.0
C433 C 1.03704 0.66594 0.74237 0.0
C434 C 0.99838 0.6466 0.77063 0.0
C435 C 0.96757 0.63472 0.84399 0.0
C436 C 0.97544 0.64301 0.88865 0.0
C437 C 1.00596 0.65131 0.81545 0.0
C438 C 1.02213 0.66701 0.90473 0.0
C439 C 0.06059 0.68195 0.87667 0.0
H440 H 0.47114 0.1031 0.95934 0.0
H441 H 0.35201 0.0289 0.87178 0.0
H442 H 0.31135 0.96564 0.92419 0.0
H443 H 0.30483 0.93754 -0.00232 0.0
H444 H 0.42394 1.00618 0.08509 0.0
H445 H 0.46933 0.06681 0.03013 0.0
C446 C 0.43683 0.07252 0.95121 0.0
C447 C 0.41435 0.07132 0.91177 0.0
C448 C 0.41321 0.03626 0.98186 0.0
C449 C 0.36997 0.03117 0.90189 0.0
C450 C 0.34648 0.99511 0.93201 0.0
C451 C 0.34109 0.96516 0.00449 0.0
C452 C 0.36091 0.9678 0.04543 0.0
C453 C 0.36697 0.99835 0.97257 0.0
C454 C 0.4079 1.00376 0.05387 0.0
C455 C 0.43373 0.03821 0.02244 0.0
H456 H 0.4947 0.63747 0.82921 0.0
H457 H 0.53319 0.73933 0.93317 0.0
H458 H 0.47362 0.67727 0.97924 0.0
H459 H 0.40647 0.5958 -0.01202 0.0
H460 H 0.36574 0.49539 0.88253 0.0
H461 H 0.43062 0.55527 0.83915 0.0
C462 C 0.49051 0.64612 0.86209 0.0
C463 C 0.51817 0.69316 0.87756 0.0
C464 C 0.45556 0.61058 0.88806 0.0
C465 C 0.51215 0.70354 0.9203 0.0
C466 C 0.47806 0.66807 0.94666 0.0
C467 C 0.41214 0.58681 0.9557 0.0
C468 C 0.38108 0.54127 0.93843 0.0
C469 C 0.44891 0.62172 0.93058 0.0
C470 C 0.38884 0.5303 0.89647 0.0
C471 C 0.42594 0.56451 0.87164 0.0
H472 H 0.86302 0.47158 -0.00609 0.0
H473 H 0.84564 0.54124 0.10514 0.0
H474 H 0.84973 0.48327 0.15245 0.0
H475 H 0.85221 0.40929 0.16137 0.0
H476 H 0.86199 0.33607 0.04914 0.0
H477 H 0.86729 0.39918 0.00281 0.0
C478 C 0.86081 0.47447 0.02855 0.0
C479 C 0.85408 0.5105 0.04616 0.0
C480 C 0.86153 0.44023 0.05522 0.0
C481 C 0.8506 0.51353 0.09099 0.0
C482 C 0.85293 0.48047 0.11796 0.0
C483 C 0.85613 0.40763 0.12682 0.0
C484 C 0.85669 0.36835 0.10849 0.0
C485 C 0.85749 0.44314 0.10034 0.0
C486 C 0.86117 0.366 0.06373 0.0
C487 C 0.86423 0.402 0.03732 0.0
H488 H 0.40926 0.82535 0.15106 0.0
H489 H 0.35927 0.87474 0.2569 0.0
H490 H 0.42621 0.88567 0.30127 0.0
H491 H 0.49634 0.87711 0.31124 0.0
H492 H 0.54362 0.82335 0.2068 0.0
H493 H 0.48053 0.81867 0.16045 0.0
C494 C 0.41318 0.83886 0.18372 0.0
C495 C 0.37919 0.84903 0.20068 0.0
C496 C 0.45123 0.84423 0.2093 0.0
C497 C 0.3847 0.86627 0.24316 0.0
C498 C 0.42303 0.87263 0.26853 0.0
C499 C 0.49325 0.86496 0.27817 0.0
C500 C 0.52462 0.85059 0.26246 0.0
C501 C 0.45616 0.86117 0.2521 0.0
C502 C 0.51978 0.83443 0.21968 0.0
C503 C 0.4837 0.8317 0.1932 0.0
H504 H 0.71575 0.51407 0.3912 0.0
H505 H 0.65519 0.44984 0.51342 0.0
H506 H 0.58895 0.38233 0.47677 0.0
H507 H 0.54905 0.34063 0.41008 0.0
H508 H 0.6057 0.40666 0.2876 0.0
H509 H 0.67238 0.47456 0.32406 0.0
C510 C 0.68796 0.48519 0.4096 0.0
C511 C 0.69034 0.48656 0.45477 0.0
C512 C 0.6493 0.44695 0.38832 0.0
C513 C 0.65392 0.44948 0.47853 0.0
C514 C 0.61613 0.41084 0.45765 0.0
C515 C 0.57601 0.36998 0.39146 0.0
C516 C 0.57289 0.36862 0.34638 0.0
C517 C 0.61359 0.4091 0.4126 0.0
C518 C 0.60746 0.4071 0.32246 0.0
C519 C 0.64564 0.44576 0.34325 0.0
H520 H 0.26503 0.71952 0.56318 0.0
H521 H 0.18394 0.62389 0.66587 0.0
H522 H 0.18539 0.55842 0.62891 0.0
H523 H 0.21029 0.52791 0.56765 0.0
H524 H 0.28888 0.62279 0.46388 0.0
H525 H 0.28805 0.68862 0.50112 0.0
C526 C 0.24755 0.68437 0.57745 0.0
C527 C 0.22467 0.67697 0.61741 0.0
C528 C 0.24831 0.64657 0.55595 0.0
C529 C 0.20197 0.63092 0.6352 0.0
C530 C 0.20285 0.59331 0.61415 0.0
C531 C 0.22749 0.5631 0.5534 0.0
C532 C 0.24982 0.57047 0.51321 0.0
C533 C 0.22617 0.60074 0.57464 0.0
C534 C 0.27135 0.6161 0.49479 0.0
C535 C 0.27091 0.65383 0.51605 0.0
H536 H 0.60277 0.19715 0.81952 0.0
H537 H 0.53487 0.21374 0.70677 0.0
H538 H 0.59396 0.21035 0.66065 0.0
H539 H 0.66823 0.20887 0.65307 0.0
H540 H 0.74075 0.2008 0.76631 0.0
H541 H 0.67628 0.1941 0.81181 0.0
C542 C 0.60065 0.19939 0.78481 0.0
C543 C 0.56473 0.20568 0.7664 0.0
C544 C 0.6356 0.19908 0.75875 0.0
C545 C 0.56253 0.20919 0.7215 0.0
C546 C 0.59619 0.20719 0.6952 0.0
C547 C 0.66939 0.20481 0.68765 0.0
C548 C 0.70875 0.20502 0.70652 0.0
C549 C 0.63334 0.203 0.71355 0.0
C550 C 0.7106 0.20072 0.75133 0.0
C551 C 0.67389 0.19698 0.77724 0.0
H552 H 0.32625 0.39534 0.88397 0.0
H553 H 0.2042 0.26846 0.93171 0.0
H554 H 0.23186 0.21906 0.89755 0.0
H555 H 0.29713 0.21303 0.86506 0.0
H556 H 0.42032 0.3389 0.81741 0.0
H557 H 0.38598 0.38764 0.83997 0.0
C558 C 0.30486 0.3568 0.88518 0.0
C559 C 0.26295 0.33537 0.90981 0.0
C560 C 0.32181 0.32857 0.86633 0.0
C561 C 0.23614 0.28551 0.91233 0.0
C562 C 0.25226 0.25733 0.89326 0.0
C563 C 0.31593 0.25099 0.85872 0.0
C564 C 0.36133 0.27246 0.84001 0.0
C565 C 0.29603 0.27858 0.87187 0.0
C566 C 0.38522 0.32158 0.83164 0.0
C567 C 0.36571 0.34946 0.84483 0.0
H568 H 0.95559 0.32393 0.05971 0.0
H569 H 0.95608 0.19691 0.09844 0.0
H570 H 1.02857 0.22137 0.05755 0.0
H571 H 0.09669 0.28284 0.0187 0.0
H572 H 0.10091 0.4133 0.9839 0.0
H573 H 1.02171 0.38334 0.01461 0.0
C574 C 0.97105 0.30118 0.05821 0.0
C575 C 0.95058 0.25869 0.08206 0.0
C576 C 1.01394 0.31636 0.03574 0.0
C577 C 0.9713 0.22984 0.08046 0.0
C578 C 1.01284 0.24386 0.05719 0.0
C579 C 0.08008 0.30453 0.01704 0.0
C580 C 0.10506 0.35045 -0.00082 0.0
C581 C 1.03528 0.28772 0.03589 0.0
C582 C 0.08266 0.37784 -0.00257 0.0
C583 C 1.0374 0.36081 0.01523 0.0
H584 H 0.67186 0.93949 0.21709 0.0
H585 H 0.79862 0.9473 0.26932 0.0
H586 H 0.84783 1.02367 0.23438 0.0
H587 H 0.85363 0.09418 0.20081 0.0
H588 H 0.72808 0.08918 0.14953 0.0
H589 H 0.67963 1.0057 0.17159 0.0
C590 C 0.71033 0.95718 0.21946 0.0
C591 C 0.7316 0.93814 0.24617 0.0
C592 C 0.73854 1.00202 0.20015 0.0
C593 C 0.78146 0.96154 0.24928 0.0
C594 C 0.80963 1.00534 0.22951 0.0
C595 C 0.81583 0.07435 0.1935 0.0
C596 C 0.79424 0.09767 0.17413 0.0
C597 C 0.78839 0.02692 0.20675 0.0
C598 C 0.7454 0.07175 0.16437 0.0
C599 C 0.71769 1.02419 0.17732 0.0
H600 H 0.67868 0.72098 0.33791 0.0
H601 H 0.79231 0.86152 0.37253 0.0
H602 H 0.83929 0.82839 0.40061 0.0
H603 H 0.84256 0.75934 0.42622 0.0
H604 H 0.72979 0.61784 0.39377 0.0
H605 H 0.68846 0.65113 0.35345 0.0
C606 C 0.71431 0.74422 0.35036 0.0
C607 C 0.73187 0.7935 0.35365 0.0
C608 C 0.741 0.7247 0.36748 0.0
C609 C 0.77794 0.82339 0.37012 0.0
C610 C 0.80478 0.8045 0.38634 0.0
C611 C 0.8095 0.73584 0.40942 0.0
C612 C 0.78896 0.68637 0.41332 0.0
C613 C 0.78582 0.75517 0.38692 0.0
C614 C 0.74635 0.65618 0.39111 0.0
C615 C 0.7225 0.67521 0.36838 0.0
H616 H 0.10466 0.82788 0.5871 0.0
H617 H 0.13012 0.71204 0.56304 0.0
H618 H 0.05583 0.66987 0.5215 0.0
H619 H 0.97711 0.66069 0.50258 0.0
H620 H 0.95409 0.77828 0.52659 0.0
H621 H 1.03408 0.82537 0.55626 0.0
C622 C 0.0945 0.79397 0.57178 0.0
C623 C 0.12246 0.77289 0.57842 0.0
C624 C 0.05189 0.77006 0.54797 0.0
C625 C 0.10917 0.72907 0.55821 0.0
C626 C 0.06649 0.70477 0.53472 0.0
C627 C 0.99042 0.69726 0.51272 0.0
C628 C 0.95962 0.71586 0.51269 0.0
C629 C 1.0366 0.72413 0.5307 0.0
C630 C 0.9771 0.76313 0.52648 0.0
C631 C 1.02274 0.79 0.5438 0.0
H632 H 0.29745 0.09096 0.75601 0.0
H633 H 0.43842 0.12244 0.72129 0.0
H634 H 0.40517 0.04643 0.68256 0.0
H635 H 0.33581 0.9657 0.66678 0.0
H636 H 0.1953 0.93706 0.70021 0.0
H637 H 0.22826 1.01698 0.72993 0.0
C638 C 0.32082 0.08162 0.73921 0.0
C639 C 0.37032 0.11225 0.7419 0.0
C640 C 0.30145 0.03795 0.71668 0.0
C641 C 0.40011 0.09967 0.71965 0.0
C642 C 0.38111 0.05595 0.69766 0.0
C643 C 0.31241 0.97761 0.67917 0.0
C644 C 0.26312 0.94513 0.68151 0.0
C645 C 0.33179 1.02405 0.69692 0.0
C646 C 0.23338 0.96112 0.69823 0.0
C647 C 0.25221 1.00683 0.71556 0.0
H648 H 0.84233 0.76579 0.92512 0.0
H649 H 0.71897 0.65854 -0.00817 0.0
H650 H 0.67309 0.69542 0.96736 0.0
H651 H 0.66588 0.7521 0.91842 0.0
H652 H 0.79036 0.85678 0.85057 0.0
H653 H 0.83801 0.82733 0.88439 0.0
C654 C 0.80558 0.75091 0.93496 0.0
C655 C 0.78389 0.70923 0.95985 0.0
C656 C 0.77953 0.77171 0.92019 0.0
C657 C 0.73649 0.6907 0.9728 0.0
C658 C 0.7102 0.71158 0.95847 0.0
C659 C 0.70368 0.76918 0.91196 0.0
C660 C 0.72441 0.80639 0.88165 0.0
C661 C 0.73096 0.75125 0.93094 0.0
C662 C 0.77338 0.82788 0.87338 0.0
C663 C 0.8007 0.81099 0.89265 0.0
H664 H 0.10133 0.82908 0.10955 0.0
H665 H 0.09558 0.69851 0.14682 0.0
H666 H 1.01327 0.65268 0.12067 0.0
H667 H 0.94597 0.64949 0.07996 0.0
H668 H 0.95603 0.78057 0.03807 0.0
H669 H 1.03328 0.82641 0.0738 0.0
C670 C 0.08202 0.79062 0.11266 0.0
C671 C 0.1049 0.76737 0.1301 0.0
C672 C 1.03533 0.76454 0.09653 0.0
C673 C 0.07902 0.71744 0.13359 0.0
C674 C 1.03194 0.69118 0.11848 0.0
C675 C 0.96462 0.68812 0.07971 0.0
C676 C 0.9452 0.7117 0.05669 0.0
C677 C 1.01009 0.71428 0.09895 0.0
C678 C 0.97017 0.7617 0.05571 0.0
C679 C 1.01445 0.78789 0.07594 0.0
H680 H 0.29027 0.08309 0.28365 0.0
H681 H 0.42036 0.08757 0.31967 0.0
H682 H 0.38754 1.00506 0.29464 0.0
H683 H 0.3276 0.93808 0.24948 0.0
H684 H 0.19963 0.93673 0.21119 0.0
H685 H 0.22512 1.011 0.25075 0.0
C686 C 0.3108 0.06539 0.28729 0.0
C687 C 0.35769 0.09129 0.30315 0.0
C688 C 0.29209 1.0186 0.27197 0.0
C689 C 0.38404 0.06816 0.30785 0.0
C690 C 0.36544 1.02118 0.29305 0.0
C691 C 0.30458 0.95318 0.25148 0.0
C692 C 0.26161 0.932 0.228 0.0
C693 C 0.32032 0.99684 0.27325 0.0
C694 C 0.23247 0.95226 0.22962 0.0
C695 C 0.2473 0.99493 0.25185 0.0
H696 H 0.3034 0.22105 0.37794 0.0
H697 H 0.44732 0.32936 0.40905 0.0
H698 H 0.4181 0.37705 0.44454 0.0
H699 H 0.35157 0.39161 0.45992 0.0
H700 H 0.20795 0.28101 0.42936 0.0
H701 H 0.23717 0.231 0.40093 0.0
C702 C 0.32835 0.25469 0.39318 0.0
C703 C 0.37744 0.27165 0.3906 0.0
C704 C 0.31137 0.28198 0.41332 0.0
C705 C 0.40928 0.31523 0.41077 0.0
C706 C 0.3926 0.34278 0.43076 0.0
C707 C 0.32665 0.3563 0.44767 0.0
C708 C 0.27758 0.34061 0.44653 0.0
C709 C 0.34371 0.32711 0.43122 0.0
C710 C 0.2459 0.29448 0.43064 0.0
C711 C 0.26255 0.26565 0.41416 0.0
H712 H 0.13063 0.42446 0.56821 0.0
H713 H 0.14514 0.30112 0.54912 0.0
H714 H 0.07388 0.25294 0.59215 0.0
H715 H 0.99956 0.24309 0.62212 0.0
H716 H 0.98396 0.3658 0.64094 0.0
H717 H 0.06389 0.41755 0.612 0.0
C718 C 0.11919 0.38755 0.57521 0.0
C719 C 0.143 0.3662 0.55609 0.0
C720 C 0.07763 0.35995 0.5993 0.0
C721 C 0.1276 0.31821 0.56427 0.0
C722 C 0.08659 0.29062 0.5884 0.0
C723 C 1.01459 0.28142 0.62141 0.0
C724 C 0.98633 0.30086 0.63357 0.0
C725 C 0.06014 0.31061 0.60426 0.0
C726 C 1.00554 0.35035 0.63222 0.0
C727 C 0.05096 0.37978 0.61521 0.0
H728 H 0.77484 0.12788 0.75496 0.0
H729 H 0.87363 0.10319 0.68252 0.0
H730 H 0.83786 1.02295 0.71116 0.0
H731 H 0.77328 0.95685 0.74961 0.0
H732 H 0.67319 0.97872 0.82222 0.0
H733 H 0.71503 0.06307 0.80124 0.0
C734 C 0.78927 0.10534 0.74626 0.0
C735 C 0.82676 0.12166 0.71622 0.0
C736 C 0.76794 0.0585 0.7625 0.0
C737 C 0.84471 0.0917 0.70523 0.0
C738 C 0.82416 0.04562 0.7215 0.0
C739 C 0.76095 0.98023 0.76138 0.0
C740 C 0.7199 0.9615 0.78702 0.0
C741 C 0.78489 0.02819 0.74899 0.0
C742 C 0.70476 0.99233 0.80252 0.0
C743 C 0.72853 0.04045 0.79025 0.0
H744 H 0.20199 0.45619 0.28476 0.0
H745 H 0.21767 0.33494 0.31356 0.0
H746 H 0.2151 0.3178 0.23598 0.0
H747 H 0.2156 0.34305 0.16018 0.0
H748 H 0.19819 0.46382 0.13553 0.0
H749 H 0.19084 0.47374 0.21248 0.0
C750 C 0.20348 0.42504 0.27467 0.0
C751 C 0.20988 0.39679 0.305 0.0
C752 C 0.20062 0.41493 0.23095 0.0
C753 C 0.21287 0.35732 0.29076 0.0
C754 C 0.21117 0.34745 0.24654 0.0
C755 C 0.20842 0.37027 0.17194 0.0
C756 C 0.20697 0.40261 0.143 0.0
C757 C 0.20575 0.37657 0.21635 0.0
C758 C 0.19874 0.43848 0.15776 0.0
C759 C 0.19519 0.44444 0.20156 0.0
H760 H 0.85114 0.18467 0.47148 0.0
H761 H 0.84315 0.3124 0.48899 0.0
H762 H 0.83856 0.31942 0.41114 0.0
H763 H 0.83547 0.28854 0.33837 0.0
H764 H 0.84678 0.16304 0.32055 0.0
H765 H 0.85012 0.15497 0.39874 0.0
C766 C 0.84911 0.21445 0.45829 0.0
C767 C 0.84752 0.24797 0.48589 0.0
C768 C 0.84586 0.21794 0.41368 0.0
C769 C 0.84443 0.28612 0.46833 0.0
C770 C 0.84146 0.28999 0.4239 0.0
C771 C 0.83769 0.25895 0.35181 0.0
C772 C 0.83982 0.22576 0.32435 0.0
C773 C 0.84143 0.25572 0.39638 0.0
C774 C 0.84436 0.18844 0.34158 0.0
C775 C 0.84671 0.18413 0.38605 0.0
H776 H 0.68721 0.84641 0.63799 0.0
H777 H 0.53709 0.79663 0.65004 0.0
H778 H 0.53095 0.80373 0.57243 0.0
H779 H 0.56792 0.82243 0.50117 0.0
H780 H 0.71843 0.87431 0.48987 0.0
H781 H 0.72453 0.86745 0.5675 0.0
C782 C 0.65315 0.8373 0.62373 0.0
C783 C 0.61266 0.82069 0.64963 0.0
C784 C 0.64982 0.84137 0.5793 0.0
C785 C 0.56885 0.8094 0.63073 0.0
C786 C 0.56522 0.81325 0.58637 0.0
C787 C 0.60194 0.8319 0.51573 0.0
C788 C 0.64257 0.84851 0.49004 0.0
C789 C 0.60538 0.82871 0.56035 0.0
C790 C 0.68664 0.86138 0.50919 0.0
C791 C 0.6902 0.85757 0.55348 0.0
H792 H 0.87847 0.68202 0.80929 0.0
H793 H 0.75975 0.53869 0.82368 0.0
H794 H 0.74782 0.53168 0.746 0.0
H795 H 0.77369 0.56426 0.67445 0.0
H796 H 0.89015 0.70794 0.65887 0.0
H797 H 0.90094 0.71681 0.73736 0.0
C798 C 0.84967 0.64942 0.79551 0.0
C799 C 0.82051 0.61068 0.82203 0.0
C800 C 0.84319 0.64546 0.75092 0.0
C801 C 0.78304 0.56884 0.80381 0.0
C802 C 0.77626 0.56469 0.75947 0.0
C803 C 0.80174 0.59734 0.68832 0.0
C804 C 0.83197 0.63507 0.66157 0.0
C805 C 0.80679 0.60235 0.73283 0.0
C806 C 0.86708 0.67838 0.67941 0.0
C807 C 0.87304 0.68342 0.724 0.0
H808 H 0.15521 0.79815 0.84131 0.0
H809 H 0.3055 0.8609 0.81637 0.0
H810 H 0.323 0.8766 0.89292 0.0
H811 H 0.29555 0.86408 0.96567 0.0
H812 H 0.14613 0.80153 -0.00569 0.0
H813 H 0.12783 0.79303 0.91669 0.0
C814 C 0.19174 0.8161 0.85278 0.0
C815 C 0.22913 0.82793 0.82382 0.0
C816 C 0.20142 0.8238 0.89699 0.0
C817 C 0.27635 0.85111 0.83852 0.0
C818 C 0.2863 0.85986 0.8821 0.0
C819 C 0.25883 0.84877 0.95526 0.0
C820 C 0.22209 0.83279 0.98551 0.0
C821 C 0.24903 0.84477 0.91148 0.0
C822 C 0.1749 0.81374 0.97137 0.0
C823 C 0.16456 0.80903 0.92718 0.0
H824 H 0.37204 0.1882 -0.00452 0.0
H825 H 0.5222 0.23585 -0.01022 0.0
H826 H 0.52682 0.23621 0.06754 0.0
H827 H 0.49048 0.22716 0.13659 0.0
H828 H 0.34254 0.18699 0.14586 0.0
H829 H 0.33453 0.17835 0.06728 0.0
C830 C 0.40562 0.19875 0.01148 0.0
C831 C 0.44675 0.21266 -0.01303 0.0
C832 C 0.40845 0.19984 0.05669 0.0
C833 C 0.49014 0.22597 0.00787 0.0
C834 C 0.49286 0.2258 0.05238 0.0
C835 C 0.45621 0.21613 0.1217 0.0
C836 C 0.4173 0.20814 0.14699 0.0
C837 C 0.45247 0.21335 0.07699 0.0
C838 C 0.37316 0.19351 0.12699 0.0
C839 C 0.36864 0.18888 0.08211 0.0
loop_
_geom_bond_atom_site_label_1
_geom_bond_atom_site_label_2
_geom_bond_distance
_geom_bond_site_symmetry_2
_ccdc_geom_bond_type
Fe0 O2 1.918 . S
Fe0 O5 1.997 . S
Fe0 O6 2.002 . S
Fe0 O11 1.976 . S
Fe0 O14 1.996 . S
Fe1 O2 1.918 . S
Fe1 O9 1.997 . S
Fe1 O12 1.996 . S
Fe1 O16 1.976 . S
Fe1 O19 2.002 . S
O2 Fe0 1.918 . S
O2 Fe1 1.918 . S
O2 Fe3 1.918 1_554 S
Fe3 O2 1.918 1_556 S
Fe3 O4 2.002 . S
Fe3 O13 1.976 . S
Fe3 O17 1.996 . S
Fe3 O20 1.997 1_556 S
O4 Fe3 2.002 . S
O4 C21 1.295 1_556 S
O5 Fe0 1.997 . S
O5 C21 1.235 . S
O6 Fe0 2.002 . S
O6 C7 1.295 . S
C7 O6 1.295 . S
C7 O9 1.235 . S
C8 O13 1.287 . S
C8 O14 1.255 1_556 S
O9 Fe1 1.997 . S
O9 C7 1.235 . S
C10 O16 1.287 1_556 S
C10 O17 1.255 . S
O11 Fe0 1.976 . S
O11 C18 1.287 . S
O12 Fe1 1.996 . S
O12 C18 1.255 . S
O13 Fe3 1.976 . S
O13 C8 1.287 . S
O14 Fe0 1.996 . S
O14 C8 1.255 1_554 S
C15 O19 1.295 . S
C15 O20 1.235 . S
O16 Fe1 1.976 . S
O16 C10 1.287 1_554 S
O17 Fe3 1.996 . S
O17 C10 1.255 . S
C18 O11 1.287 . S
C18 O12 1.255 . S
O19 Fe1 2.002 . S
O19 C15 1.295 . S
O20 Fe3 1.997 1_554 S
O20 C15 1.235 . S
C21 O4 1.295 1_554 S
C21 O5 1.235 . S
Fe22 O24 1.918 . S
Fe22 O27 1.997 . S
Fe22 O28 2.002 . S
Fe22 O33 1.976 . S
Fe22 O36 1.996 . S
Fe23 O24 1.918 . S
Fe23 O31 1.997 . S
Fe23 O34 1.996 . S
Fe23 O38 1.976 . S
Fe23 O41 2.002 . S
O24 Fe22 1.918 . S
O24 Fe23 1.918 . S
O24 Fe25 1.918 . S
Fe25 O24 1.918 . S
Fe25 O26 2.002 . S
Fe25 O35 1.976 . S
Fe25 O39 1.996 . S
Fe25 O42 1.997 . S
O26 Fe25 2.002 . S
O26 C43 1.295 . S
O27 Fe22 1.997 . S
O27 C43 1.235 . S
O28 Fe22 2.002 . S
O28 C29 1.295 . S
C29 O28 1.295 . S
C29 O31 1.235 . S
C30 O35 1.287 . S
C30 O36 1.255 . S
O31 Fe23 1.997 . S
O31 C29 1.235 . S
C32 O38 1.287 . S
C32 O39 1.255 . S
O33 Fe22 1.976 . S
O33 C40 1.287 . S
O34 Fe23 1.996 . S
O34 C40 1.255 . S
O35 Fe25 1.976 . S
O35 C30 1.287 . S
O36 Fe22 1.996 . S
O36 C30 1.255 . S
C37 O41 1.295 . S
C37 O42 1.235 . S
O38 Fe23 1.976 . S
O38 C32 1.287 . S
O39 Fe25 1.996 . S
O39 C32 1.255 . S
C40 O33 1.287 . S
C40 O34 1.255 . S
O41 Fe23 2.002 . S
O41 C37 1.295 . S
O42 Fe25 1.997 . S
O42 C37 1.235 . S
C43 O26 1.295 . S
C43 O27 1.235 . S
Fe44 O46 1.918 . S
Fe44 O49 1.997 . S
Fe44 O50 2.002 . S
Fe44 O55 1.976 . S
Fe44 O58 1.996 . S
Fe45 O46 1.918 . S
Fe45 O53 1.997 . S
Fe45 O56 1.996 . S
Fe45 O60 1.976 . S
Fe45 O63 2.002 . S
O46 Fe44 1.918 . S
O46 Fe45 1.918 . S
O46 Fe47 1.918 . S
Fe47 O46 1.918 . S
Fe47 O48 2.002 . S
Fe47 O57 1.976 . S
Fe47 O61 1.996 . S
Fe47 O64 1.997 . S
O48 Fe47 2.002 . S
O48 C65 1.295 . S
O49 Fe44 1.997 . S
O49 C65 1.235 . S
O50 Fe44 2.002 . S
O50 C51 1.295 . S
C51 O50 1.295 . S
C51 O53 1.235 . S
C52 O57 1.287 . S
C52 O58 1.255 . S
O53 Fe45 1.997 . S
O53 C51 1.235 . S
C54 O60 1.287 . S
C54 O61 1.255 . S
O55 Fe44 1.976 . S
O55 C62 1.287 . S
O56 Fe45 1.996 . S
O56 C62 1.255 . S
O57 Fe47 1.976 . S
O57 C52 1.287 . S
O58 Fe44 1.996 . S
O58 C52 1.255 . S
C59 O63 1.295 . S
C59 O64 1.235 . S
O60 Fe45 1.976 . S
O60 C54 1.287 . S
O61 Fe47 1.996 . S
O61 C54 1.255 . S
C62 O55 1.287 . S
C62 O56 1.255 . S
O63 Fe45 2.002 . S
O63 C59 1.295 . S
O64 Fe47 1.997 . S
O64 C59 1.235 . S
C65 O48 1.295 . S
C65 O49 1.235 . S
Fe66 O68 1.918 . S
Fe66 O71 1.997 . S
Fe66 O72 2.002 . S
Fe66 O77 1.976 . S
Fe66 O80 1.996 . S
Fe67 O68 1.918 . S
Fe67 O75 1.997 . S
Fe67 O78 1.996 . S
Fe67 O82 1.976 . S
Fe67 O85 2.002 . S
O68 Fe66 1.918 . S
O68 Fe67 1.918 . S
O68 Fe69 1.918 . S
Fe69 O68 1.918 . S
Fe69 O70 2.002 . S
Fe69 O79 1.976 . S
Fe69 O83 1.996 . S
Fe69 O86 1.997 . S
O70 Fe69 2.002 . S
O70 C87 1.295 . S
O71 Fe66 1.997 . S
O71 C87 1.235 . S
O72 Fe66 2.002 . S
O72 C73 1.295 . S
C73 O72 1.295 . S
C73 O75 1.235 . S
C74 O79 1.287 . S
C74 O80 1.255 . S
O75 Fe67 1.997 . S
O75 C73 1.235 . S
C76 O82 1.287 . S
C76 O83 1.255 . S
O77 Fe66 1.976 . S
O77 C84 1.287 . S
O78 Fe67 1.996 . S
O78 C84 1.255 . S
O79 Fe69 1.976 . S
O79 C74 1.287 . S
O80 Fe66 1.996 . S
O80 C74 1.255 . S
C81 O85 1.295 . S
C81 O86 1.235 . S
O82 Fe67 1.976 . S
O82 C76 1.287 . S
O83 Fe69 1.996 . S
O83 C76 1.255 . S
C84 O77 1.287 . S
C84 O78 1.255 . S
O85 Fe67 2.002 . S
O85 C81 1.295 . S
O86 Fe69 1.997 . S
O86 C81 1.235 . S
C87 O70 1.295 . S
C87 O71 1.235 . S
Fe88 O90 1.918 . S
Fe88 O93 1.997 . S
Fe88 O94 2.002 . S
Fe88 O99 1.976 . S
Fe88 O102 1.996 . S
Fe89 O90 1.918 . S
Fe89 O97 1.997 . S
Fe89 O100 1.996 . S
Fe89 O104 1.976 . S
Fe89 O107 2.002 . S
O90 Fe88 1.918 . S
O90 Fe89 1.918 . S
O90 Fe91 1.918 . S
Fe91 O90 1.918 . S
Fe91 O92 2.002 . S
Fe91 O101 1.976 . S
Fe91 O105 1.996 . S
Fe91 O108 1.997 . S
O92 Fe91 2.002 . S
O92 C109 1.295 . S
O93 Fe88 1.997 . S
O93 C109 1.235 . S
O94 Fe88 2.002 . S
O94 C95 1.295 . S
C95 O94 1.295 . S
C95 O97 1.235 . S
C96 O101 1.287 . S
C96 O102 1.255 . S
O97 Fe89 1.997 . S
O97 C95 1.235 . S
C98 O104 1.287 . S
C98 O105 1.255 . S
O99 Fe88 1.976 . S
O99 C106 1.287 . S
O100 Fe89 1.996 . S
O100 C106 1.255 . S
O101 Fe91 1.976 . S
O101 C96 1.287 . S
O102 Fe88 1.996 . S
O102 C96 1.255 . S
C103 O107 1.295 . S
C103 O108 1.235 . S
O104 Fe89 1.976 . S
O104 C98 1.287 . S
O105 Fe91 1.996 . S
O105 C98 1.255 . S
C106 O99 1.287 . S
C106 O100 1.255 . S
O107 Fe89 2.002 . S
O107 C103 1.295 . S
O108 Fe91 1.997 . S
O108 C103 1.235 . S
C109 O92 1.295 . S
C109 O93 1.235 . S
Fe110 O112 1.918 . S
Fe110 O115 1.997 . S
Fe110 O116 2.002 . S
Fe110 O121 1.976 . S
Fe110 O124 1.996 . S
Fe111 O112 1.918 . S
Fe111 O119 1.997 . S
Fe111 O122 1.996 . S
Fe111 O126 1.976 . S
Fe111 O129 2.002 . S
O112 Fe110 1.918 . S
O112 Fe111 1.918 . S
O112 Fe113 1.918 . S
Fe113 O112 1.918 . S
Fe113 O114 2.002 . S
Fe113 O123 1.976 . S
Fe113 O127 1.996 . S
Fe113 O130 1.997 . S
O114 Fe113 2.002 . S
O114 C131 1.295 . S
O115 Fe110 1.997 . S
O115 C131 1.235 . S
O116 Fe110 2.002 . S
O116 C117 1.295 . S
C117 O116 1.295 . S
C117 O119 1.235 . S
C118 O123 1.287 . S
C118 O124 1.255 . S
O119 Fe111 1.997 . S
O119 C117 1.235 . S
C120 O126 1.287 . S
C120 O127 1.255 . S
O121 Fe110 1.976 . S
O121 C128 1.287 . S
O122 Fe111 1.996 . S
O122 C128 1.255 . S
O123 Fe113 1.976 . S
O123 C118 1.287 . S
O124 Fe110 1.996 . S
O124 C118 1.255 . S
C125 O129 1.295 . S
C125 O130 1.235 . S
O126 Fe111 1.976 . S
O126 C120 1.287 . S
O127 Fe113 1.996 . S
O127 C120 1.255 . S
C128 O121 1.287 . S
C128 O122 1.255 . S
O129 Fe111 2.002 . S
O129 C125 1.295 . S
O130 Fe113 1.997 . S
O130 C125 1.235 . S
C131 O114 1.295 . S
C131 O115 1.235 . S
Fe132 O134 1.918 . S
Fe132 O137 1.997 . S
Fe132 O138 2.002 . S
Fe132 O143 1.976 . S
Fe132 O146 1.996 . S
Fe133 O134 1.918 . S
Fe133 O141 1.997 . S
Fe133 O144 1.996 . S
Fe133 O148 1.976 . S
Fe133 O151 2.002 . S
O134 Fe132 1.918 . S
O134 Fe133 1.918 . S
O134 Fe135 1.918 . S
Fe135 O134 1.918 . S
Fe135 O136 2.002 . S
Fe135 O145 1.976 . S
Fe135 O149 1.996 . S
Fe135 O152 1.997 . S
O136 Fe135 2.002 . S
O136 C153 1.295 . S
O137 Fe132 1.997 . S
O137 C153 1.235 . S
O138 Fe132 2.002 . S
O138 C139 1.295 . S
C139 O138 1.295 . S
C139 O141 1.235 . S
C140 O145 1.287 . S
C140 O146 1.255 . S
O141 Fe133 1.997 . S
O141 C139 1.235 . S
C142 O148 1.287 . S
C142 O149 1.255 . S
O143 Fe132 1.976 . S
O143 C150 1.287 . S
O144 Fe133 1.996 . S
O144 C150 1.255 . S
O145 Fe135 1.976 . S
O145 C140 1.287 . S
O146 Fe132 1.996 . S
O146 C140 1.255 . S
C147 O151 1.295 . S
C147 O152 1.235 . S
O148 Fe133 1.976 . S
O148 C142 1.287 . S
O149 Fe135 1.996 . S
O149 C142 1.255 . S
C150 O143 1.287 . S
C150 O144 1.255 . S
O151 Fe133 2.002 . S
O151 C147 1.295 . S
O152 Fe135 1.997 . S
O152 C147 1.235 . S
C153 O136 1.295 . S
C153 O137 1.235 . S
Fe154 O156 1.918 . S
Fe154 O159 1.997 . S
Fe154 O160 2.002 . S
Fe154 O165 1.976 . S
Fe154 O168 1.996 . S
Fe155 O156 1.918 . S
Fe155 O163 1.997 . S
Fe155 O166 1.996 . S
Fe155 O170 1.976 . S
Fe155 O173 2.002 . S
O156 Fe154 1.918 . S
O156 Fe155 1.918 . S
O156 Fe157 1.918 1_556 S
Fe157 O156 1.918 1_554 S
Fe157 O158 2.002 . S
Fe157 O167 1.976 . S
Fe157 O171 1.996 . S
Fe157 O174 1.997 1_554 S
O158 Fe157 2.002 . S
O158 C175 1.295 1_554 S
O159 Fe154 1.997 . S
O159 C175 1.235 . S
O160 Fe154 2.002 . S
O160 C161 1.295 . S
C161 O160 1.295 . S
C161 O163 1.235 . S
C162 O167 1.287 . S
C162 O168 1.255 1_554 S
O163 Fe155 1.997 . S
O163 C161 1.235 . S
C164 O170 1.287 1_554 S
C164 O171 1.255 . S
O165 Fe154 1.976 . S
O165 C172 1.287 . S
O166 Fe155 1.996 . S
O166 C172 1.255 . S
O167 Fe157 1.976 . S
O167 C162 1.287 . S
O168 Fe154 1.996 . S
O168 C162 1.255 1_556 S
C169 O173 1.295 . S
C169 O174 1.235 . S
O170 Fe155 1.976 . S
O170 C164 1.287 1_556 S
O171 Fe157 1.996 . S
O171 C164 1.255 . S
C172 O165 1.287 . S
C172 O166 1.255 . S
O173 Fe155 2.002 . S
O173 C169 1.295 . S
O174 Fe157 1.997 1_556 S
O174 C169 1.235 . S
C175 O158 1.295 1_556 S
C175 O159 1.235 . S
Fe176 O178 1.918 . S
Fe176 O181 1.997 . S
Fe176 O182 2.002 . S
Fe176 O187 1.976 . S
Fe176 O190 1.996 . S
Fe177 O178 1.918 . S
Fe177 O185 1.997 . S
Fe177 O188 1.996 . S
Fe177 O192 1.976 . S
Fe177 O195 2.002 . S
O178 Fe176 1.918 . S
O178 Fe177 1.918 . S
O178 Fe179 1.918 . S
Fe179 O178 1.918 . S
Fe179 O180 2.002 . S
Fe179 O189 1.976 . S
Fe179 O193 1.996 . S
Fe179 O196 1.997 . S
O180 Fe179 2.002 . S
O180 C197 1.295 . S
O181 Fe176 1.997 . S
O181 C197 1.235 . S
O182 Fe176 2.002 . S
O182 C183 1.295 . S
C183 O182 1.295 . S
C183 O185 1.235 . S
C184 O189 1.287 . S
C184 O190 1.255 . S
O185 Fe177 1.997 . S
O185 C183 1.235 . S
C186 O192 1.287 . S
C186 O193 1.255 . S
O187 Fe176 1.976 . S
O187 C194 1.287 . S
O188 Fe177 1.996 . S
O188 C194 1.255 . S
O189 Fe179 1.976 . S
O189 C184 1.287 . S
O190 Fe176 1.996 . S
O190 C184 1.255 . S
C191 O195 1.295 . S
C191 O196 1.235 . S
O192 Fe177 1.976 . S
O192 C186 1.287 . S
O193 Fe179 1.996 . S
O193 C186 1.255 . S
C194 O187 1.287 . S
C194 O188 1.255 . S
O195 Fe177 2.002 . S
O195 C191 1.295 . S
O196 Fe179 1.997 . S
O196 C191 1.235 . S
C197 O180 1.295 . S
C197 O181 1.235 . S
Fe198 O200 1.918 . S
Fe198 O203 1.997 . S
Fe198 O204 2.002 . S
Fe198 O209 1.976 . S
Fe198 O212 1.996 . S
Fe199 O200 1.918 . S
Fe199 O207 1.997 . S
Fe199 O210 1.996 . S
Fe199 O214 1.976 . S
Fe199 O217 2.002 . S
O200 Fe198 1.918 . S
O200 Fe199 1.918 . S
O200 Fe201 1.918 . S
Fe201 O200 1.918 . S
Fe201 O202 2.002 . S
Fe201 O211 1.976 . S
Fe201 O215 1.996 . S
Fe201 O218 1.997 . S
O202 Fe201 2.002 . S
O202 C219 1.295 . S
O203 Fe198 1.997 . S
O203 C219 1.235 . S
O204 Fe198 2.002 . S
O204 C205 1.295 . S
C205 O204 1.295 . S
C205 O207 1.235 . S
C206 O211 1.287 . S
C206 O212 1.255 . S
O207 Fe199 1.997 . S
O207 C205 1.235 . S
C208 O214 1.287 . S
C208 O215 1.255 . S
O209 Fe198 1.976 . S
O209 C216 1.287 . S
O210 Fe199 1.996 . S
O210 C216 1.255 . S
O211 Fe201 1.976 . S
O211 C206 1.287 . S
O212 Fe198 1.996 . S
O212 C206 1.255 . S
C213 O217 1.295 . S
C213 O218 1.235 . S
O214 Fe199 1.976 . S
O214 C208 1.287 . S
O215 Fe201 1.996 . S
O215 C208 1.255 . S
C216 O209 1.287 . S
C216 O210 1.255 . S
O217 Fe199 2.002 . S
O217 C213 1.295 . S
O218 Fe201 1.997 . S
O218 C213 1.235 . S
C219 O202 1.295 . S
C219 O203 1.235 . S
Fe220 O222 1.918 . S
Fe220 O225 1.997 . S
Fe220 O226 2.002 . S
Fe220 O231 1.976 . S
Fe220 O234 1.996 . S
Fe221 O222 1.918 . S
Fe221 O229 1.997 . S
Fe221 O232 1.996 . S
Fe221 O236 1.976 . S
Fe221 O239 2.002 . S
O222 Fe220 1.918 . S
O222 Fe221 1.918 . S
O222 Fe223 1.918 . S
Fe223 O222 1.918 . S
Fe223 O224 2.002 . S
Fe223 O233 1.976 . S
Fe223 O237 1.996 . S
Fe223 O240 1.997 . S
O224 Fe223 2.002 . S
O224 C241 1.295 . S
O225 Fe220 1.997 . S
O225 C241 1.235 . S
O226 Fe220 2.002 . S
O226 C227 1.295 . S
C227 O226 1.295 . S
C227 O229 1.235 . S
C228 O233 1.287 . S
C228 O234 1.255 . S
O229 Fe221 1.997 . S
O229 C227 1.235 . S
C230 O236 1.287 . S
C230 O237 1.255 . S
O231 Fe220 1.976 . S
O231 C238 1.287 . S
O232 Fe221 1.996 . S
O232 C238 1.255 . S
O233 Fe223 1.976 . S
O233 C228 1.287 . S
O234 Fe220 1.996 . S
O234 C228 1.255 . S
C235 O239 1.295 . S
C235 O240 1.235 . S
O236 Fe221 1.976 . S
O236 C230 1.287 . S
O237 Fe223 1.996 . S
O237 C230 1.255 . S
C238 O231 1.287 . S
C238 O232 1.255 . S
O239 Fe221 2.002 . S
O239 C235 1.295 . S
O240 Fe223 1.997 . S
O240 C235 1.235 . S
C241 O224 1.295 . S
C241 O225 1.235 . S
Fe242 O244 1.918 . S
Fe242 O247 1.997 . S
Fe242 O248 2.002 . S
Fe242 O253 1.976 . S
Fe242 O256 1.996 . S
Fe243 O244 1.918 . S
Fe243 O251 1.997 . S
Fe243 O254 1.996 . S
Fe243 O258 1.976 . S
Fe243 O261 2.002 . S
O244 Fe242 1.918 . S
O244 Fe243 1.918 . S
O244 Fe245 1.918 . S
Fe245 O244 1.918 . S
Fe245 O246 2.002 . S
Fe245 O255 1.976 . S
Fe245 O259 1.996 . S
Fe245 O262 1.997 . S
O246 Fe245 2.002 . S
O246 C263 1.295 . S
O247 Fe242 1.997 . S
O247 C263 1.235 . S
O248 Fe242 2.002 . S
O248 C249 1.295 . S
C249 O248 1.295 . S
C249 O251 1.235 . S
C250 O255 1.287 . S
C250 O256 1.255 . S
O251 Fe243 1.997 . S
O251 C249 1.235 . S
C252 O258 1.287 . S
C252 O259 1.255 . S
O253 Fe242 1.976 . S
O253 C260 1.287 . S
O254 Fe243 1.996 . S
O254 C260 1.255 . S
O255 Fe245 1.976 . S
O255 C250 1.287 . S
O256 Fe242 1.996 . S
O256 C250 1.255 . S
C257 O261 1.295 . S
C257 O262 1.235 . S
O258 Fe243 1.976 . S
O258 C252 1.287 . S
O259 Fe245 1.996 . S
O259 C252 1.255 . S
C260 O253 1.287 . S
C260 O254 1.255 . S
O261 Fe243 2.002 . S
O261 C257 1.295 . S
O262 Fe245 1.997 . S
O262 C257 1.235 . S
C263 O246 1.295 . S
C263 O247 1.235 . S
H264 C270 0.930 . S
H265 C273 0.930 . S
H266 C274 0.930 . S
H267 C275 0.930 . S
H268 C278 0.930 . S
H269 C279 0.930 . S
C270 H264 0.930 . S
C270 C271 1.355 . S
C270 C272 1.415 . S
C271 C270 1.355 . S
C271 C273 1.419 . S
C272 C270 1.415 . S
C272 C277 1.425 . S
C272 C279 1.409 . S
C273 H265 0.930 . S
C273 C271 1.419 . S
C273 C274 1.362 . S
C274 H266 0.930 . S
C274 C273 1.362 . S
C274 C277 1.409 . S
C275 H267 0.930 . S
C275 C276 1.355 . S
C275 C277 1.415 . S
C276 C275 1.355 . S
C276 C278 1.419 . S
C277 C272 1.425 . S
C277 C274 1.409 . S
C277 C275 1.415 . S
C278 H268 0.930 . S
C278 C276 1.419 . S
C278 C279 1.362 . S
C279 H269 0.930 . S
C279 C272 1.409 . S
C279 C278 1.362 . S
H280 C286 0.930 . S
H281 C289 0.930 . S
H282 C290 0.930 . S
H283 C291 0.930 . S
H284 C294 0.930 . S
H285 C295 0.930 . S
C286 H280 0.930 . S
C286 C287 1.355 . S
C286 C288 1.415 . S
C287 C286 1.355 . S
C287 C289 1.419 . S
C288 C286 1.415 . S
C288 C293 1.425 . S
C288 C295 1.409 . S
C289 H281 0.930 . S
C289 C287 1.419 . S
C289 C290 1.362 . S
C290 H282 0.930 . S
C290 C289 1.362 . S
C290 C293 1.409 . S
C291 H283 0.930 . S
C291 C292 1.355 . S
C291 C293 1.415 . S
C292 C291 1.355 . S
C292 C294 1.419 . S
C293 C288 1.425 . S
C293 C290 1.409 . S
C293 C291 1.415 . S
C294 H284 0.930 . S
C294 C292 1.419 . S
C294 C295 1.362 . S
C295 H285 0.930 . S
C295 C288 1.409 . S
C295 C294 1.362 . S
H296 C302 0.930 . S
H297 C305 0.930 . S
H298 C306 0.930 . S
H299 C307 0.930 . S
H300 C310 0.930 . S
H301 C311 0.930 . S
C302 H296 0.930 . S
C302 C303 1.355 . S
C302 C304 1.415 . S
C303 C302 1.355 . S
C303 C305 1.419 . S
C304 C302 1.415 . S
C304 C309 1.425 . S
C304 C311 1.409 . S
C305 H297 0.930 . S
C305 C303 1.419 . S
C305 C306 1.362 . S
C306 H298 0.930 . S
C306 C305 1.362 . S
C306 C309 1.409 . S
C307 H299 0.930 . S
C307 C308 1.355 . S
C307 C309 1.415 . S
C308 C307 1.355 . S
C308 C310 1.419 . S
C309 C304 1.425 . S
C309 C306 1.409 . S
C309 C307 1.415 . S
C310 H300 0.930 . S
C310 C308 1.419 . S
C310 C311 1.362 . S
C311 H301 0.930 . S
C311 C304 1.409 . S
C311 C310 1.362 . S
H312 C318 0.930 . S
H313 C321 0.930 . S
H314 C322 0.930 . S
H315 C323 0.930 . S
H316 C326 0.930 . S
H317 C327 0.930 . S
C318 H312 0.930 . S
C318 C319 1.355 . S
C318 C320 1.415 . S
C319 C318 1.355 . S
C319 C321 1.419 . S
C320 C318 1.415 . S
C320 C325 1.425 . S
C320 C327 1.409 . S
C321 H313 0.930 . S
C321 C319 1.419 . S
C321 C322 1.362 . S
C322 H314 0.930 . S
C322 C321 1.362 . S
C322 C325 1.409 . S
C323 H315 0.930 . S
C323 C324 1.355 . S
C323 C325 1.415 . S
C324 C323 1.355 . S
C324 C326 1.419 . S
C325 C320 1.425 . S
C325 C322 1.409 . S
C325 C323 1.415 . S
C326 H316 0.930 . S
C326 C324 1.419 . S
C326 C327 1.362 . S
C327 H317 0.930 . S
C327 C320 1.409 . S
C327 C326 1.362 . S
H328 C334 0.930 . S
H329 C337 0.930 . S
H330 C338 0.930 . S
H331 C339 0.930 . S
H332 C342 0.930 . S
H333 C343 0.930 . S
C334 H328 0.930 . S
C334 C335 1.355 . S
C334 C336 1.415 . S
C335 C334 1.355 . S
C335 C337 1.419 . S
C336 C334 1.415 . S
C336 C341 1.425 . S
C336 C343 1.409 . S
C337 H329 0.930 . S
C337 C335 1.419 . S
C337 C338 1.362 . S
C338 H330 0.930 . S
C338 C337 1.362 . S
C338 C341 1.409 . S
C339 H331 0.930 . S
C339 C340 1.355 . S
C339 C341 1.415 . S
C340 C339 1.355 . S
C340 C342 1.419 . S
C341 C336 1.425 . S
C341 C338 1.409 . S
C341 C339 1.415 . S
C342 H332 0.930 . S
C342 C340 1.419 . S
C342 C343 1.362 . S
C343 H333 0.930 . S
C343 C336 1.409 . S
C343 C342 1.362 . S
H344 C350 0.930 . S
H345 C353 0.930 . S
H346 C354 0.930 . S
H347 C355 0.930 . S
H348 C358 0.930 . S
H349 C359 0.930 . S
C350 H344 0.930 . S
C350 C351 1.355 . S
C350 C352 1.415 . S
C351 C350 1.355 . S
C351 C353 1.419 . S
C352 C350 1.415 . S
C352 C357 1.425 . S
C352 C359 1.409 . S
C353 H345 0.930 . S
C353 C351 1.419 . S
C353 C354 1.362 . S
C354 H346 0.930 . S
C354 C353 1.362 . S
C354 C357 1.409 . S
C355 H347 0.930 . S
C355 C356 1.355 . S
C355 C357 1.415 . S
C356 C355 1.355 . S
C356 C358 1.419 . S
C357 C352 1.425 . S
C357 C354 1.409 . S
C357 C355 1.415 . S
C358 H348 0.930 . S
C358 C356 1.419 . S
C358 C359 1.362 . S
C359 H349 0.930 . S
C359 C352 1.409 . S
C359 C358 1.362 . S
H360 C366 0.930 . S
H361 C369 0.930 . S
H362 C370 0.930 . S
H363 C371 0.930 . S
H364 C374 0.930 . S
H365 C375 0.930 . S
C366 H360 0.930 . S
C366 C367 1.355 . S
C366 C368 1.415 . S
C367 C366 1.355 . S
C367 C369 1.419 . S
C368 C366 1.415 . S
C368 C373 1.425 . S
C368 C375 1.409 . S
C369 H361 0.930 . S
C369 C367 1.419 . S
C369 C370 1.362 . S
C370 H362 0.930 . S
C370 C369 1.362 . S
C370 C373 1.409 . S
C371 H363 0.930 . S
C371 C372 1.355 . S
C371 C373 1.415 . S
C372 C371 1.355 . S
C372 C374 1.419 . S
C373 C368 1.425 . S
C373 C370 1.409 . S
C373 C371 1.415 . S
C374 H364 0.930 . S
C374 C372 1.419 . S
C374 C375 1.362 . S
C375 H365 0.930 . S
C375 C368 1.409 . S
C375 C374 1.362 . S
H376 C382 0.930 . S
H377 C385 0.930 . S
H378 C386 0.930 . S
H379 C387 0.930 . S
H380 C390 0.930 . S
H381 C391 0.930 . S
C382 H376 0.930 . S
C382 C383 1.355 . S
C382 C384 1.415 1_655 S
C383 C382 1.355 . S
C383 C385 1.419 . S
C384 C382 1.415 1_455 S
C384 C389 1.425 1_455 S
C384 C391 1.409 . S
C385 H377 0.930 . S
C385 C383 1.419 . S
C385 C386 1.362 . S
C386 H378 0.930 . S
C386 C385 1.362 . S
C386 C389 1.409 . S
C387 H379 0.930 . S
C387 C388 1.355 . S
C387 C389 1.415 1_455 S
C388 C387 1.355 . S
C388 C390 1.419 . S
C389 C384 1.425 1_655 S
C389 C386 1.409 . S
C389 C387 1.415 1_655 S
C390 H380 0.930 . S
C390 C388 1.419 . S
C390 C391 1.362 . S
C391 H381 0.930 . S
C391 C384 1.409 . S
C391 C390 1.362 . S
H392 C398 0.930 . S
H393 C401 0.930 . S
H394 C402 0.930 . S
H395 C403 0.930 . S
H396 C406 0.930 . S
H397 C407 0.930 . S
C398 H392 0.930 . S
C398 C399 1.355 . S
C398 C400 1.415 1_545 S
C399 C398 1.355 . S
C399 C401 1.419 . S
C400 C398 1.415 1_565 S
C400 C405 1.425 1_565 S
C400 C407 1.409 . S
C401 H393 0.930 . S
C401 C399 1.419 . S
C401 C402 1.362 . S
C402 H394 0.930 . S
C402 C401 1.362 . S
C402 C405 1.409 . S
C403 H395 0.930 . S
C403 C404 1.355 . S
C403 C405 1.415 1_565 S
C404 C403 1.355 . S
C404 C406 1.419 . S
C405 C400 1.425 1_545 S
C405 C402 1.409 . S
C405 C403 1.415 1_545 S
C406 H396 0.930 . S
C406 C404 1.419 . S
C406 C407 1.362 . S
C407 H397 0.930 . S
C407 C400 1.409 . S
C407 C406 1.362 . S
H408 C414 0.930 . S
H409 C417 0.930 . S
H410 C418 0.930 . S
H411 C419 0.930 . S
H412 C422 0.930 . S
H413 C423 0.930 . S
C414 H408 0.930 . S
C414 C415 1.355 . S
C414 C416 1.415 . S
C415 C414 1.355 . S
C415 C417 1.419 . S
C416 C414 1.415 . S
C416 C421 1.425 . S
C416 C423 1.409 . S
C417 H409 0.930 . S
C417 C415 1.419 . S
C417 C418 1.362 . S
C418 H410 0.930 . S
C418 C417 1.362 . S
C418 C421 1.409 . S
C419 H411 0.930 . S
C419 C420 1.355 . S
C419 C421 1.415 . S
C420 C419 1.355 . S
C420 C422 1.419 . S
C421 C416 1.425 . S
C421 C418 1.409 . S
C421 C419 1.415 . S
C422 H412 0.930 . S
C422 C420 1.419 . S
C422 C423 1.362 . S
C423 H413 0.930 . S
C423 C416 1.409 . S
C423 C422 1.362 . S
H424 C430 0.930 . S
H425 C433 0.930 . S
H426 C434 0.930 . S
H427 C435 0.930 . S
H428 C438 0.930 . S
H429 C439 0.930 . S
C430 H424 0.930 . S
C430 C431 1.355 . S
C430 C432 1.415 . S
C431 C430 1.355 . S
C431 C433 1.419 . S
C432 C430 1.415 . S
C432 C437 1.425 1_455 S
C432 C439 1.409 1_455 S
C433 H425 0.930 . S
C433 C431 1.419 . S
C433 C434 1.362 . S
C434 H426 0.930 . S
C434 C433 1.362 . S
C434 C437 1.409 1_455 S
C435 H427 0.930 . S
C435 C436 1.355 . S
C435 C437 1.415 . S
C436 C435 1.355 . S
C436 C438 1.419 . S
C437 C432 1.425 1_655 S
C437 C434 1.409 1_655 S
C437 C435 1.415 . S
C438 H428 0.930 . S
C438 C436 1.419 . S
C438 C439 1.362 . S
C439 H429 0.930 . S
C439 C432 1.409 1_655 S
C439 C438 1.362 . S
H440 C446 0.930 . S
H441 C449 0.930 . S
H442 C450 0.930 . S
H443 C451 0.930 . S
H444 C454 0.930 . S
H445 C455 0.930 . S
C446 H440 0.930 . S
C446 C447 1.355 . S
C446 C448 1.415 1_556 S
C447 C446 1.355 . S
C447 C449 1.419 . S
C448 C446 1.415 1_554 S
C448 C453 1.425 1_544 S
C448 C455 1.409 . S
C449 H441 0.930 . S
C449 C447 1.419 . S
C449 C450 1.362 1_545 S
C450 H442 0.930 . S
C450 C449 1.362 1_565 S
C450 C453 1.409 . S
C451 H443 0.930 . S
C451 C452 1.355 . S
C451 C453 1.415 1_554 S
C452 C451 1.355 . S
C452 C454 1.419 . S
C453 C448 1.425 1_566 S
C453 C450 1.409 . S
C453 C451 1.415 1_556 S
C454 H444 0.930 . S
C454 C452 1.419 . S
C454 C455 1.362 1_565 S
C455 H445 0.930 . S
C455 C448 1.409 . S
C455 C454 1.362 1_545 S
H456 C462 0.930 . S
H457 C465 0.930 . S
H458 C466 0.930 . S
H459 C467 0.930 . S
H460 C470 0.930 . S
H461 C471 0.930 . S
C462 H456 0.930 . S
C462 C463 1.355 . S
C462 C464 1.415 . S
C463 C462 1.355 . S
C463 C465 1.419 . S
C464 C462 1.415 . S
C464 C469 1.425 . S
C464 C471 1.409 . S
C465 H457 0.930 . S
C465 C463 1.419 . S
C465 C466 1.362 . S
C466 H458 0.930 . S
C466 C465 1.362 . S
C466 C469 1.409 . S
C467 H459 0.930 . S
C467 C468 1.355 . S
C467 C469 1.415 . S
C468 C467 1.355 . S
C468 C470 1.419 . S
C469 C464 1.425 . S
C469 C466 1.409 . S
C469 C467 1.415 . S
C470 H460 0.930 . S
C470 C468 1.419 . S
C470 C471 1.362 . S
C471 H461 0.930 . S
C471 C464 1.409 . S
C471 C470 1.362 . S
H472 C478 0.930 . S
H473 C481 0.930 . S
H474 C482 0.930 . S
H475 C483 0.930 . S
H476 C486 0.930 . S
H477 C487 0.930 . S
C478 H472 0.930 . S
C478 C479 1.355 . S
C478 C480 1.415 . S
C479 C478 1.355 . S
C479 C481 1.419 . S
C480 C478 1.415 . S
C480 C485 1.425 . S
C480 C487 1.409 . S
C481 H473 0.930 . S
C481 C479 1.419 . S
C481 C482 1.362 . S
C482 H474 0.930 . S
C482 C481 1.362 . S
C482 C485 1.409 . S
C483 H475 0.930 . S
C483 C484 1.355 . S
C483 C485 1.415 . S
C484 C483 1.355 . S
C484 C486 1.419 . S
C485 C480 1.425 . S
C485 C482 1.409 . S
C485 C483 1.415 . S
C486 H476 0.930 . S
C486 C484 1.419 . S
C486 C487 1.362 . S
C487 H477 0.930 . S
C487 C480 1.409 . S
C487 C486 1.362 . S
H488 C494 0.930 . S
H489 C497 0.930 . S
H490 C498 0.930 . S
H491 C499 0.930 . S
H492 C502 0.930 . S
H493 C503 0.930 . S
C494 H488 0.930 . S
C494 C495 1.355 . S
C494 C496 1.415 . S
C495 C494 1.355 . S
C495 C497 1.419 . S
C496 C494 1.415 . S
C496 C501 1.425 . S
C496 C503 1.409 . S
C497 H489 0.930 . S
C497 C495 1.419 . S
C497 C498 1.362 . S
C498 H490 0.930 . S
C498 C497 1.362 . S
C498 C501 1.409 . S
C499 H491 0.930 . S
C499 C500 1.355 . S
C499 C501 1.415 . S
C500 C499 1.355 . S
C500 C502 1.419 . S
C501 C496 1.425 . S
C501 C498 1.409 . S
C501 C499 1.415 . S
C502 H492 0.930 . S
C502 C500 1.419 . S
C502 C503 1.362 . S
C503 H493 0.930 . S
C503 C496 1.409 . S
C503 C502 1.362 . S
H504 C510 0.930 . S
H505 C513 0.930 . S
H506 C514 0.930 . S
H507 C515 0.930 . S
H508 C518 0.930 . S
H509 C519 0.930 . S
C510 H504 0.930 . S
C510 C511 1.355 . S
C510 C512 1.415 . S
C511 C510 1.355 . S
C511 C513 1.419 . S
C512 C510 1.415 . S
C512 C517 1.425 . S
C512 C519 1.409 . S
C513 H505 0.930 . S
C513 C511 1.419 . S
C513 C514 1.362 . S
C514 H506 0.930 . S
C514 C513 1.362 . S
C514 C517 1.409 . S
C515 H507 0.930 . S
C515 C516 1.355 . S
C515 C517 1.415 . S
C516 C515 1.355 . S
C516 C518 1.419 . S
C517 C512 1.425 . S
C517 C514 1.409 . S
C517 C515 1.415 . S
C518 H508 0.930 . S
C518 C516 1.419 . S
C518 C519 1.362 . S
C519 H509 0.930 . S
C519 C512 1.409 . S
C519 C518 1.362 . S
H520 C526 0.930 . S
H521 C529 0.930 . S
H522 C530 0.930 . S
H523 C531 0.930 . S
H524 C534 0.930 . S
H525 C535 0.930 . S
C526 H520 0.930 . S
C526 C527 1.355 . S
C526 C528 1.415 . S
C527 C526 1.355 . S
C527 C529 1.419 . S
C528 C526 1.415 . S
C528 C533 1.425 . S
C528 C535 1.409 . S
C529 H521 0.930 . S
C529 C527 1.419 . S
C529 C530 1.362 . S
C530 H522 0.930 . S
C530 C529 1.362 . S
C530 C533 1.409 . S
C531 H523 0.930 . S
C531 C532 1.355 . S
C531 C533 1.415 . S
C532 C531 1.355 . S
C532 C534 1.419 . S
C533 C528 1.425 . S
C533 C530 1.409 . S
C533 C531 1.415 . S
C534 H524 0.930 . S
C534 C532 1.419 . S
C534 C535 1.362 . S
C535 H525 0.930 . S
C535 C528 1.409 . S
C535 C534 1.362 . S
H536 C542 0.930 . S
H537 C545 0.930 . S
H538 C546 0.930 . S
H539 C547 0.930 . S
H540 C550 0.930 . S
H541 C551 0.930 . S
C542 H536 0.930 . S
C542 C543 1.355 . S
C542 C544 1.415 . S
C543 C542 1.355 . S
C543 C545 1.419 . S
C544 C542 1.415 . S
C544 C549 1.425 . S
C544 C551 1.409 . S
C545 H537 0.930 . S
C545 C543 1.419 . S
C545 C546 1.362 . S
C546 H538 0.930 . S
C546 C545 1.362 . S
C546 C549 1.409 . S
C547 H539 0.930 . S
C547 C548 1.355 . S
C547 C549 1.415 . S
C548 C547 1.355 . S
C548 C550 1.419 . S
C549 C544 1.425 . S
C549 C546 1.409 . S
C549 C547 1.415 . S
C550 H540 0.930 . S
C550 C548 1.419 . S
C550 C551 1.362 . S
C551 H541 0.930 . S
C551 C544 1.409 . S
C551 C550 1.362 . S
H552 C558 0.930 . S
H553 C561 0.930 . S
H554 C562 0.930 . S
H555 C563 0.930 . S
H556 C566 0.930 . S
H557 C567 0.930 . S
C558 H552 0.930 . S
C558 C559 1.355 . S
C558 C560 1.415 . S
C559 C558 1.355 . S
C559 C561 1.419 . S
C560 C558 1.415 . S
C560 C565 1.425 . S
C560 C567 1.409 . S
C561 H553 0.930 . S
C561 C559 1.419 . S
C561 C562 1.362 . S
C562 H554 0.930 . S
C562 C561 1.362 . S
C562 C565 1.409 . S
C563 H555 0.930 . S
C563 C564 1.355 . S
C563 C565 1.415 . S
C564 C563 1.355 . S
C564 C566 1.419 . S
C565 C560 1.425 . S
C565 C562 1.409 . S
C565 C563 1.415 . S
C566 H556 0.930 . S
C566 C564 1.419 . S
C566 C567 1.362 . S
C567 H557 0.930 . S
C567 C560 1.409 . S
C567 C566 1.362 . S
H568 C574 0.930 . S
H569 C577 0.930 . S
H570 C578 0.930 . S
H571 C579 0.930 . S
H572 C582 0.930 1_556 S
H573 C583 0.930 1_556 S
C574 H568 0.930 . S
C574 C575 1.355 . S
C574 C576 1.415 . S
C575 C574 1.355 . S
C575 C577 1.419 . S
C576 C574 1.415 . S
C576 C581 1.425 1_655 S
C576 C583 1.409 . S
C577 H569 0.930 . S
C577 C575 1.419 . S
C577 C578 1.362 1_655 S
C578 H570 0.930 . S
C578 C577 1.362 1_455 S
C578 C581 1.409 . S
C579 H571 0.930 . S
C579 C580 1.355 . S
C579 C581 1.415 . S
C580 C579 1.355 . S
C580 C582 1.419 . S
C581 C576 1.425 1_455 S
C581 C578 1.409 . S
C581 C579 1.415 . S
C582 H572 0.930 1_554 S
C582 C580 1.419 . S
C582 C583 1.362 1_455 S
C583 H573 0.930 1_554 S
C583 C576 1.409 . S
C583 C582 1.362 1_655 S
H584 C590 0.930 . S
H585 C593 0.930 . S
H586 C594 0.930 . S
H587 C595 0.930 . S
H588 C598 0.930 . S
H589 C599 0.930 . S
C590 H584 0.930 . S
C590 C591 1.355 . S
C590 C592 1.415 . S
C591 C590 1.355 . S
C591 C593 1.419 . S
C592 C590 1.415 . S
C592 C597 1.430 1_565 S
C592 C599 1.409 1_565 S
C593 H585 0.930 . S
C593 C591 1.419 . S
C593 C594 1.362 . S
C594 H586 0.930 . S
C594 C593 1.362 . S
C594 C597 1.388 1_565 S
C595 H587 0.930 . S
C595 C596 1.355 . S
C595 C597 1.432 . S
C596 C595 1.355 . S
C596 C598 1.419 . S
C597 C592 1.430 1_545 S
C597 C594 1.388 1_545 S
C597 C595 1.432 . S
C598 H588 0.930 . S
C598 C596 1.419 . S
C598 C599 1.362 . S
C599 H589 0.930 . S
C599 C592 1.409 1_545 S
C599 C598 1.362 . S
H600 C606 0.930 . S
H601 C609 0.930 . S
H602 C610 0.930 . S
H603 C611 0.930 . S
H604 C614 0.930 . S
H605 C615 0.930 . S
C606 H600 0.930 . S
C606 C607 1.355 . S
C606 C608 1.415 . S
C607 C606 1.355 . S
C607 C609 1.419 . S
C608 C606 1.415 . S
C608 C613 1.425 . S
C608 C615 1.409 . S
C609 H601 0.930 . S
C609 C607 1.419 . S
C609 C610 1.362 . S
C610 H602 0.930 . S
C610 C609 1.362 . S
C610 C613 1.409 . S
C611 H603 0.930 . S
C611 C612 1.355 . S
C611 C613 1.415 . S
C612 C611 1.355 . S
C612 C614 1.419 . S
C613 C608 1.425 . S
C613 C610 1.409 . S
C613 C611 1.415 . S
C614 H604 0.930 . S
C614 C612 1.419 . S
C614 C615 1.362 . S
C615 H605 0.930 . S
C615 C608 1.409 . S
C615 C614 1.362 . S
H616 C622 0.930 . S
H617 C625 0.930 . S
H618 C626 0.930 . S
H619 C627 0.930 . S
H620 C630 0.930 . S
H621 C631 0.930 . S
C622 H616 0.930 . S
C622 C623 1.355 . S
C622 C624 1.415 . S
C623 C622 1.355 . S
C623 C625 1.419 . S
C624 C622 1.415 . S
C624 C629 1.436 1_455 S
C624 C631 1.409 1_455 S
C625 H617 0.930 . S
C625 C623 1.419 . S
C625 C626 1.362 . S
C626 H618 0.930 . S
C626 C625 1.362 . S
C626 C629 1.382 1_455 S
C627 H619 0.930 . S
C627 C628 1.355 . S
C627 C629 1.432 . S
C628 C627 1.355 . S
C628 C630 1.419 . S
C629 C624 1.436 1_655 S
C629 C626 1.382 1_655 S
C629 C627 1.432 . S
C630 H620 0.930 . S
C630 C628 1.419 . S
C630 C631 1.362 . S
C631 H621 0.930 . S
C631 C624 1.409 1_655 S
C631 C630 1.362 . S
H632 C638 0.930 . S
H633 C641 0.930 . S
H634 C642 0.930 . S
H635 C643 0.930 . S
H636 C646 0.930 . S
H637 C647 0.930 . S
C638 H632 0.930 . S
C638 C639 1.355 . S
C638 C640 1.415 . S
C639 C638 1.355 . S
C639 C641 1.419 . S
C640 C638 1.415 . S
C640 C645 1.425 . S
C640 C647 1.409 1_545 S
C641 H633 0.930 . S
C641 C639 1.419 . S
C641 C642 1.362 . S
C642 H634 0.930 . S
C642 C641 1.362 . S
C642 C645 1.409 . S
C643 H635 0.930 . S
C643 C644 1.355 . S
C643 C645 1.415 1_565 S
C644 C643 1.355 . S
C644 C646 1.419 . S
C645 C640 1.425 . S
C645 C642 1.409 . S
C645 C643 1.415 1_545 S
C646 H636 0.930 . S
C646 C644 1.419 . S
C646 C647 1.362 . S
C647 H637 0.930 . S
C647 C640 1.409 1_565 S
C647 C646 1.362 . S
H648 C654 0.930 . S
H649 C657 0.930 1_554 S
H650 C658 0.930 1_554 S
H651 C659 0.930 . S
H652 C662 0.930 . S
H653 C663 0.930 . S
C654 H648 0.930 . S
C654 C655 1.355 . S
C654 C656 1.415 . S
C655 C654 1.355 . S
C655 C657 1.419 . S
C656 C654 1.415 . S
C656 C661 1.425 . S
C656 C663 1.409 . S
C657 H649 0.930 1_556 S
C657 C655 1.419 . S
C657 C658 1.362 . S
C658 H650 0.930 1_556 S
C658 C657 1.362 . S
C658 C661 1.409 . S
C659 H651 0.930 . S
C659 C660 1.355 . S
C659 C661 1.415 . S
C660 C659 1.355 . S
C660 C662 1.419 . S
C661 C656 1.425 . S
C661 C658 1.409 . S
C661 C659 1.415 . S
C662 H652 0.930 . S
C662 C660 1.419 . S
C662 C663 1.362 . S
C663 H653 0.930 . S
C663 C656 1.409 . S
C663 C662 1.362 . S
H664 C670 0.930 . S
H665 C673 0.930 . S
H666 C674 0.930 . S
H667 C675 0.930 . S
H668 C678 0.930 . S
H669 C679 0.930 . S
C670 H664 0.930 . S
C670 C671 1.355 . S
C670 C672 1.415 . S
C671 C670 1.355 . S
C671 C673 1.419 . S
C672 C670 1.415 . S
C672 C677 1.425 1_455 S
C672 C679 1.409 1_455 S
C673 H665 0.930 . S
C673 C671 1.419 . S
C673 C674 1.362 . S
C674 H666 0.930 . S
C674 C673 1.362 . S
C674 C677 1.409 1_455 S
C675 H667 0.930 . S
C675 C676 1.355 . S
C675 C677 1.415 . S
C676 C675 1.355 . S
C676 C678 1.419 . S
C677 C672 1.425 1_655 S
C677 C674 1.409 1_655 S
C677 C675 1.415 . S
C678 H668 0.930 . S
C678 C676 1.419 . S
C678 C679 1.362 . S
C679 H669 0.930 . S
C679 C672 1.409 1_655 S
C679 C678 1.362 . S
H680 C686 0.930 . S
H681 C689 0.930 . S
H682 C690 0.930 . S
H683 C691 0.930 . S
H684 C694 0.930 . S
H685 C695 0.937 . S
C686 H680 0.930 . S
C686 C687 1.355 . S
C686 C688 1.415 . S
C687 C686 1.355 . S
C687 C689 1.419 . S
C688 C686 1.415 . S
C688 C693 1.425 1_545 S
C688 C695 1.411 . S
C689 H681 0.930 . S
C689 C687 1.419 . S
C689 C690 1.362 1_545 S
C690 H682 0.930 . S
C690 C689 1.362 1_565 S
C690 C693 1.409 . S
C691 H683 0.930 . S
C691 C692 1.355 . S
C691 C693 1.415 . S
C692 C691 1.355 . S
C692 C694 1.419 . S
C693 C688 1.425 1_565 S
C693 C690 1.409 . S
C693 C691 1.415 . S
C694 H684 0.930 . S
C694 C692 1.419 . S
C694 C695 1.354 1_565 S
C695 H685 0.937 . S
C695 C688 1.411 . S
C695 C694 1.354 1_545 S
H696 C702 0.930 . S
H697 C705 0.930 . S
H698 C706 0.930 . S
H699 C707 0.930 . S
H700 C710 0.930 . S
H701 C711 0.930 . S
C702 H696 0.930 . S
C702 C703 1.355 . S
C702 C704 1.415 . S
C703 C702 1.355 . S
C703 C705 1.419 . S
C704 C702 1.415 . S
C704 C709 1.425 . S
C704 C711 1.409 . S
C705 H697 0.930 . S
C705 C703 1.419 . S
C705 C706 1.362 . S
C706 H698 0.930 . S
C706 C705 1.362 . S
C706 C709 1.409 . S
C707 H699 0.930 . S
C707 C708 1.355 . S
C707 C709 1.415 . S
C708 C707 1.355 . S
C708 C710 1.419 . S
C709 C704 1.425 . S
C709 C706 1.409 . S
C709 C707 1.415 . S
C710 H700 0.930 . S
C710 C708 1.419 . S
C710 C711 1.362 . S
C711 H701 0.930 . S
C711 C704 1.409 . S
C711 C710 1.362 . S
H712 C718 0.930 . S
H713 C721 0.930 . S
H714 C722 0.930 . S
H715 C723 0.930 . S
H716 C726 0.930 . S
H717 C727 0.930 . S
C718 H712 0.930 . S
C718 C719 1.355 . S
C718 C720 1.415 . S
C719 C718 1.355 . S
C719 C721 1.419 . S
C720 C718 1.415 . S
C720 C725 1.425 1_455 S
C720 C727 1.409 1_455 S
C721 H713 0.930 . S
C721 C719 1.419 . S
C721 C722 1.362 . S
C722 H714 0.930 . S
C722 C721 1.362 . S
C722 C725 1.409 1_455 S
C723 H715 0.930 . S
C723 C724 1.355 . S
C723 C725 1.415 . S
C724 C723 1.355 . S
C724 C726 1.419 . S
C725 C720 1.425 1_655 S
C725 C722 1.409 1_655 S
C725 C723 1.415 . S
C726 H716 0.930 . S
C726 C724 1.419 . S
C726 C727 1.362 . S
C727 H717 0.930 . S
C727 C720 1.409 1_655 S
C727 C726 1.362 . S
H728 C734 0.930 . S
H729 C737 0.930 . S
H730 C738 0.930 1_565 S
H731 C739 0.930 . S
H732 C742 0.930 . S
H733 C743 0.930 . S
C734 H728 0.930 . S
C734 C735 1.355 . S
C734 C736 1.415 . S
C735 C734 1.355 . S
C735 C737 1.419 . S
C736 C734 1.415 . S
C736 C741 1.425 1_545 S
C736 C743 1.409 . S
C737 H729 0.930 . S
C737 C735 1.419 . S
C737 C738 1.362 . S
C738 H730 0.930 1_545 S
C738 C737 1.362 . S
C738 C741 1.409 1_545 S
C739 H731 0.930 . S
C739 C740 1.355 . S
C739 C741 1.415 . S
C740 C739 1.355 . S
C740 C742 1.419 . S
C741 C736 1.425 1_565 S
C741 C738 1.409 1_565 S
C741 C739 1.415 . S
C742 H732 0.930 . S
C742 C740 1.419 . S
C742 C743 1.362 1_565 S
C743 H733 0.930 . S
C743 C736 1.409 . S
C743 C742 1.362 1_545 S
H744 C750 0.930 . S
H745 C753 0.930 . S
H746 C754 0.930 . S
H747 C755 0.930 . S
H748 C758 0.930 . S
H749 C759 0.930 . S
C750 H744 0.930 . S
C750 C751 1.355 . S
C750 C752 1.415 . S
C751 C750 1.355 . S
C751 C753 1.419 . S
C752 C750 1.415 . S
C752 C757 1.425 . S
C752 C759 1.409 . S
C753 H745 0.930 . S
C753 C751 1.419 . S
C753 C754 1.362 . S
C754 H746 0.930 . S
C754 C753 1.362 . S
C754 C757 1.409 . S
C755 H747 0.930 . S
C755 C756 1.355 . S
C755 C757 1.415 . S
C756 C755 1.355 . S
C756 C758 1.419 . S
C757 C752 1.425 . S
C757 C754 1.409 . S
C757 C755 1.415 . S
C758 H748 0.930 . S
C758 C756 1.419 . S
C758 C759 1.362 . S
C759 H749 0.930 . S
C759 C752 1.409 . S
C759 C758 1.362 . S
H760 C766 0.930 . S
H761 C769 0.930 . S
H762 C770 0.930 . S
H763 C771 0.930 . S
H764 C774 0.930 . S
H765 C775 0.930 . S
C766 H760 0.930 . S
C766 C767 1.355 . S
C766 C768 1.415 . S
C767 C766 1.355 . S
C767 C769 1.419 . S
C768 C766 1.415 . S
C768 C773 1.425 . S
C768 C775 1.409 . S
C769 H761 0.930 . S
C769 C767 1.419 . S
C769 C770 1.362 . S
C770 H762 0.930 . S
C770 C769 1.362 . S
C770 C773 1.409 . S
C771 H763 0.930 . S
C771 C772 1.355 . S
C771 C773 1.415 . S
C772 C771 1.355 . S
C772 C774 1.419 . S
C773 C768 1.425 . S
C773 C770 1.409 . S
C773 C771 1.415 . S
C774 H764 0.930 . S
C774 C772 1.419 . S
C774 C775 1.362 . S
C775 H765 0.930 . S
C775 C768 1.409 . S
C775 C774 1.362 . S
H776 C782 0.930 . S
H777 C785 0.930 . S
H778 C786 0.930 . S
H779 C787 0.930 . S
H780 C790 0.930 . S
H781 C791 0.930 . S
C782 H776 0.930 . S
C782 C783 1.355 . S
C782 C784 1.415 . S
C783 C782 1.355 . S
C783 C785 1.419 . S
C784 C782 1.415 . S
C784 C789 1.425 . S
C784 C791 1.409 . S
C785 H777 0.930 . S
C785 C783 1.419 . S
C785 C786 1.362 . S
C786 H778 0.930 . S
C786 C785 1.362 . S
C786 C789 1.409 . S
C787 H779 0.930 . S
C787 C788 1.355 . S
C787 C789 1.415 . S
C788 C787 1.355 . S
C788 C790 1.419 . S
C789 C784 1.425 . S
C789 C786 1.409 . S
C789 C787 1.415 . S
C790 H780 0.930 . S
C790 C788 1.419 . S
C790 C791 1.362 . S
C791 H781 0.930 . S
C791 C784 1.409 . S
C791 C790 1.362 . S
H792 C798 0.930 . S
H793 C801 0.930 . S
H794 C802 0.930 . S
H795 C803 0.930 . S
H796 C806 0.930 . S
H797 C807 0.930 . S
C798 H792 0.930 . S
C798 C799 1.355 . S
C798 C800 1.415 . S
C799 C798 1.355 . S
C799 C801 1.419 . S
C800 C798 1.415 . S
C800 C805 1.425 . S
C800 C807 1.409 . S
C801 H793 0.930 . S
C801 C799 1.419 . S
C801 C802 1.362 . S
C802 H794 0.930 . S
C802 C801 1.362 . S
C802 C805 1.409 . S
C803 H795 0.930 . S
C803 C804 1.355 . S
C803 C805 1.415 . S
C804 C803 1.355 . S
C804 C806 1.419 . S
C805 C800 1.425 . S
C805 C802 1.409 . S
C805 C803 1.415 . S
C806 H796 0.930 . S
C806 C804 1.419 . S
C806 C807 1.362 . S
C807 H797 0.930 . S
C807 C800 1.409 . S
C807 C806 1.362 . S
H808 C814 0.930 . S
H809 C817 0.930 . S
H810 C818 0.930 . S
H811 C819 0.930 . S
H812 C822 0.930 1_554 S
H813 C823 0.930 . S
C814 H808 0.930 . S
C814 C815 1.355 . S
C814 C816 1.415 . S
C815 C814 1.355 . S
C815 C817 1.419 . S
C816 C814 1.415 . S
C816 C821 1.425 . S
C816 C823 1.409 . S
C817 H809 0.930 . S
C817 C815 1.419 . S
C817 C818 1.362 . S
C818 H810 0.930 . S
C818 C817 1.362 . S
C818 C821 1.409 . S
C819 H811 0.930 . S
C819 C820 1.355 1_556 S
C819 C821 1.415 . S
C820 C819 1.355 1_554 S
C820 C822 1.420 1_554 S
C821 C816 1.425 . S
C821 C818 1.409 . S
C821 C819 1.415 . S
C822 H812 0.930 1_556 S
C822 C820 1.420 1_556 S
C822 C823 1.362 . S
C823 H813 0.930 . S
C823 C816 1.409 . S
C823 C822 1.362 . S
H824 C830 0.930 . S
H825 C833 0.930 1_556 S
H826 C834 0.930 . S
H827 C835 0.930 . S
H828 C838 0.930 . S
H829 C839 0.930 . S
C830 H824 0.930 . S
C830 C831 1.356 1_554 S
C830 C832 1.415 . S
C831 C830 1.356 1_556 S
C831 C833 1.420 1_556 S
C832 C830 1.415 . S
C832 C837 1.425 . S
C832 C839 1.409 . S
C833 H825 0.930 1_554 S
C833 C831 1.420 1_554 S
C833 C834 1.362 . S
C834 H826 0.930 . S
C834 C833 1.362 . S
C834 C837 1.409 . S
C835 H827 0.930 . S
C835 C836 1.355 . S
C835 C837 1.415 . S
C836 C835 1.355 . S
C836 C838 1.419 . S
C837 C832 1.425 . S
C837 C834 1.409 . S
C837 C835 1.415 . S
C838 H828 0.930 . S
C838 C836 1.419 . S
C838 C839 1.362 . S
C839 H829 0.930 . S
C839 C832 1.409 . S
C839 C838 1.362 . S
C271 C15 1.584 . S
C276 C183 1.543 . S
C287 C213 1.589 . S
C292 C43 1.575 . S
C303 C235 1.545 . S
C308 C59 1.543 . S
C319 C81 1.549 . S
C324 C249 1.588 . S
C335 C153 1.586 . S
C340 C103 1.580 . S
C351 C169 1.551 . S
C356 C125 1.590 . S
C367 C18 0.968 . S
C372 C216 0.956 . S
C383 C32 0.953 . S
C388 C238 0.988 . S
C399 C250 0.956 . S
C404 C62 0.999 . S
C415 C142 0.995 . S
C420 C84 0.955 . S
C431 C106 0.995 . S
C436 C172 1.042 . S
C447 C128 1.050 . S
C452 C184 1.017 . S
C463 C140 1.395 . S
C468 C10 1.415 . S
C479 C164 1.426 . S
C484 C30 1.396 . S
C495 C194 1.408 . S
C500 C54 1.428 . S
C511 C76 1.414 . S
C516 C208 1.395 . S
C527 C98 1.407 . S
C532 C230 1.398 . S
C543 C120 1.401 . S
C548 C260 1.404 . S
C559 C8 1.561 . S
C564 C131 1.607 . S
C575 C40 1.536 . S
C580 C21 1.614 . S
C591 C52 1.574 . S
C596 C29 1.574 . S
C607 C65 1.577 . S
C612 C74 1.496 . S
C623 C96 1.496 . S
C628 C87 1.577 . S
C639 C118 1.508 . S
C644 C109 1.565 . S
C655 C175 1.611 . S
C660 C150 1.513 . S
C671 C191 1.604 . S
C676 C162 1.566 . S
C687 C219 1.603 . S
C692 C186 1.501 . S
C703 C206 1.542 . S
C708 C241 1.557 . S
C719 C228 1.576 . S
C724 C257 1.579 . S
C735 C252 1.514 . S
C740 C139 1.611 . S
C751 C227 0.730 . S
C756 C7 0.740 . S
C767 C263 0.810 . S
C772 C37 0.812 . S
C783 C147 0.809 . S
C788 C51 0.804 . S
C799 C161 0.731 . S
C804 C73 0.721 . S
C815 C95 0.748 . S
C820 C197 0.736 . S
C831 C117 0.697 . S
C836 C205 0.695 . S
