# Generated by pormake.
# Topology ukc, (4)-cn, num edge types: 1
# Building blocks:
#     Node 0, Type 0, BuildingBlock: CEKHIL_clean_sbu_0, # of connection points: 4
#     Node 1, Type 0, BuildingBlock: CEKHIL_clean_sbu_0, # of connection points: 4
#     Node 2, Type 0, BuildingBlock: CEKHIL_clean_sbu_0, # of connection points: 4
#     Node 3, Type 0, BuildingBlock: CEKHIL_clean_sbu_0, # of connection points: 4
#     Node 4, Type 0, BuildingBlock: CEKHIL_clean_sbu_0, # of connection points: 4
#     Node 5, Type 0, BuildingBlock: CEKHIL_clean_sbu_0, # of connection points: 4
#     Node 6, Type 0, BuildingBlock: CEKHIL_clean_sbu_0, # of connection points: 4
#     Node 7, Type 0, BuildingBlock: CEKHIL_clean_sbu_0, # of connection points: 4
#     Node 8, Type 0, BuildingBlock: CEKHIL_clean_sbu_0, # of connection points: 4
#     Node 9, Type 0, BuildingBlock: CEKHIL_clean_sbu_0, # of connection points: 4
#     Node 10, Type 0, BuildingBlock: CEKHIL_clean_sbu_0, # of connection points: 4
#     Node 11, Type 0, BuildingBlock: CEKHIL_clean_sbu_0, # of connection points: 4
#     Node 12, Type 0, BuildingBlock: CEKHIL_clean_sbu_0, # of connection points: 4
#     Node 13, Type 0, BuildingBlock: CEKHIL_clean_sbu_0, # of connection points: 4
#     Node 14, Type 0, BuildingBlock: CEKHIL_clean_sbu_0, # of connection points: 4
#     Node 15, Type 0, BuildingBlock: CEKHIL_clean_sbu_0, # of connection points: 4
#     Node 16, Type 0, BuildingBlock: CEKHIL_clean_sbu_0, # of connection points: 4
#     Node 17, Type 0, BuildingBlock: CEKHIL_clean_sbu_0, # of connection points: 4
#     Node 18, Type 0, BuildingBlock: CEKHIL_clean_sbu_0, # of connection points: 4
#     Node 19, Type 0, BuildingBlock: CEKHIL_clean_sbu_0, # of connection points: 4
#     Node 20, Type 0, BuildingBlock: CEKHIL_clean_sbu_0, # of connection points: 4
#     Node 21, Type 0, BuildingBlock: CEKHIL_clean_sbu_0, # of connection points: 4
#     Node 22, Type 0, BuildingBlock: CEKHIL_clean_sbu_0, # of connection points: 4
#     Node 23, Type 0, BuildingBlock: CEKHIL_clean_sbu_0, # of connection points: 4
#     Node 24, Type 0, BuildingBlock: CEKHIL_clean_sbu_0, # of connection points: 4
#     Node 25, Type 0, BuildingBlock: CEKHIL_clean_sbu_0, # of connection points: 4
#     Node 26, Type 0, BuildingBlock: CEKHIL_clean_sbu_0, # of connection points: 4
#     Node 27, Type 0, BuildingBlock: CEKHIL_clean_sbu_0, # of connection points: 4
#     Node 28, Type 0, BuildingBlock: CEKHIL_clean_sbu_0, # of connection points: 4
#     Node 29, Type 0, BuildingBlock: CEKHIL_clean_sbu_0, # of connection points: 4
#     Node 30, Type 0, BuildingBlock: CEKHIL_clean_sbu_0, # of connection points: 4
#     Node 31, Type 0, BuildingBlock: CEKHIL_clean_sbu_0, # of connection points: 4
#     Edge 32, Type (0, 0), BuildingBlock: OJICUG_clean_linker_0, # of connection points: 2
#     Edge 33, Type (0, 0), BuildingBlock: OJICUG_clean_linker_0, # of connection points: 2
#     Edge 34, Type (0, 0), BuildingBlock: OJICUG_clean_linker_0, # of connection points: 2
#     Edge 35, Type (0, 0), BuildingBlock: OJICUG_clean_linker_0, # of connection points: 2
#     Edge 36, Type (0, 0), BuildingBlock: OJICUG_clean_linker_0, # of connection points: 2
#     Edge 37, Type (0, 0), BuildingBlock: OJICUG_clean_linker_0, # of connection points: 2
#     Edge 38, Type (0, 0), BuildingBlock: OJICUG_clean_linker_0, # of connection points: 2
#     Edge 39, Type (0, 0), BuildingBlock: OJICUG_clean_linker_0, # of connection points: 2
#     Edge 40, Type (0, 0), BuildingBlock: OJICUG_clean_linker_0, # of connection points: 2
#     Edge 41, Type (0, 0), BuildingBlock: OJICUG_clean_linker_0, # of connection points: 2
#     Edge 42, Type (0, 0), BuildingBlock: OJICUG_clean_linker_0, # of connection points: 2
#     Edge 43, Type (0, 0), BuildingBlock: OJICUG_clean_linker_0, # of connection points: 2
#     Edge 44, Type (0, 0), BuildingBlock: OJICUG_clean_linker_0, # of connection points: 2
#     Edge 45, Type (0, 0), BuildingBlock: OJICUG_clean_linker_0, # of connection points: 2
#     Edge 46, Type (0, 0), BuildingBlock: OJICUG_clean_linker_0, # of connection points: 2
#     Edge 47, Type (0, 0), BuildingBlock: OJICUG_clean_linker_0, # of connection points: 2
#     Edge 48, Type (0, 0), BuildingBlock: OJICUG_clean_linker_0, # of connection points: 2
#     Edge 49, Type (0, 0), BuildingBlock: OJICUG_clean_linker_0, # of connection points: 2
#     Edge 50, Type (0, 0), BuildingBlock: OJICUG_clean_linker_0, # of connection points: 2
#     Edge 51, Type (0, 0), BuildingBlock: OJICUG_clean_linker_0, # of connection points: 2
#     Edge 52, Type (0, 0), BuildingBlock: OJICUG_clean_linker_0, # of connection points: 2
#     Edge 53, Type (0, 0), BuildingBlock: OJICUG_clean_linker_0, # of connection points: 2
#     Edge 54, Type (0, 0), BuildingBlock: OJICUG_clean_linker_0, # of connection points: 2
#     Edge 55, Type (0, 0), BuildingBlock: OJICUG_clean_linker_0, # of connection points: 2
#     Edge 56, Type (0, 0), BuildingBlock: OJICUG_clean_linker_0, # of connection points: 2
#     Edge 57, Type (0, 0), BuildingBlock: OJICUG_clean_linker_0, # of connection points: 2
#     Edge 58, Type (0, 0), BuildingBlock: OJICUG_clean_linker_0, # of connection points: 2
#     Edge 59, Type (0, 0), BuildingBlock: OJICUG_clean_linker_0, # of connection points: 2
#     Edge 60, Type (0, 0), BuildingBlock: OJICUG_clean_linker_0, # of connection points: 2
#     Edge 61, Type (0, 0), BuildingBlock: OJICUG_clean_linker_0, # of connection points: 2
#     Edge 62, Type (0, 0), BuildingBlock: OJICUG_clean_linker_0, # of connection points: 2
#     Edge 63, Type (0, 0), BuildingBlock: OJICUG_clean_linker_0, # of connection points: 2
#     Edge 64, Type (0, 0), BuildingBlock: OJICUG_clean_linker_0, # of connection points: 2
#     Edge 65, Type (0, 0), BuildingBlock: OJICUG_clean_linker_0, # of connection points: 2
#     Edge 66, Type (0, 0), BuildingBlock: OJICUG_clean_linker_0, # of connection points: 2
#     Edge 67, Type (0, 0), BuildingBlock: OJICUG_clean_linker_0, # of connection points: 2
#     Edge 68, Type (0, 0), BuildingBlock: OJICUG_clean_linker_0, # of connection points: 2
#     Edge 69, Type (0, 0), BuildingBlock: OJICUG_clean_linker_0, # of connection points: 2
#     Edge 70, Type (0, 0), BuildingBlock: OJICUG_clean_linker_0, # of connection points: 2
#     Edge 71, Type (0, 0), BuildingBlock: OJICUG_clean_linker_0, # of connection points: 2
#     Edge 72, Type (0, 0), BuildingBlock: OJICUG_clean_linker_0, # of connection points: 2
#     Edge 73, Type (0, 0), BuildingBlock: OJICUG_clean_linker_0, # of connection points: 2
#     Edge 74, Type (0, 0), BuildingBlock: OJICUG_clean_linker_0, # of connection points: 2
#     Edge 75, Type (0, 0), BuildingBlock: OJICUG_clean_linker_0, # of connection points: 2
#     Edge 76, Type (0, 0), BuildingBlock: OJICUG_clean_linker_0, # of connection points: 2
#     Edge 77, Type (0, 0), BuildingBlock: OJICUG_clean_linker_0, # of connection points: 2
#     Edge 78, Type (0, 0), BuildingBlock: OJICUG_clean_linker_0, # of connection points: 2
#     Edge 79, Type (0, 0), BuildingBlock: OJICUG_clean_linker_0, # of connection points: 2
#     Edge 80, Type (0, 0), BuildingBlock: OJICUG_clean_linker_0, # of connection points: 2
#     Edge 81, Type (0, 0), BuildingBlock: OJICUG_clean_linker_0, # of connection points: 2
#     Edge 82, Type (0, 0), BuildingBlock: OJICUG_clean_linker_0, # of connection points: 2
#     Edge 83, Type (0, 0), BuildingBlock: OJICUG_clean_linker_0, # of connection points: 2
#     Edge 84, Type (0, 0), BuildingBlock: OJICUG_clean_linker_0, # of connection points: 2
#     Edge 85, Type (0, 0), BuildingBlock: OJICUG_clean_linker_0, # of connection points: 2
#     Edge 86, Type (0, 0), BuildingBlock: OJICUG_clean_linker_0, # of connection points: 2
#     Edge 87, Type (0, 0), BuildingBlock: OJICUG_clean_linker_0, # of connection points: 2
#     Edge 88, Type (0, 0), BuildingBlock: OJICUG_clean_linker_0, # of connection points: 2
#     Edge 89, Type (0, 0), BuildingBlock: OJICUG_clean_linker_0, # of connection points: 2
#     Edge 90, Type (0, 0), BuildingBlock: OJICUG_clean_linker_0, # of connection points: 2
#     Edge 91, Type (0, 0), BuildingBlock: OJICUG_clean_linker_0, # of connection points: 2
#     Edge 92, Type (0, 0), BuildingBlock: OJICUG_clean_linker_0, # of connection points: 2
#     Edge 93, Type (0, 0), BuildingBlock: OJICUG_clean_linker_0, # of connection points: 2
#     Edge 94, Type (0, 0), BuildingBlock: OJICUG_clean_linker_0, # of connection points: 2
#     Edge 95, Type (0, 0), BuildingBlock: OJICUG_clean_linker_0, # of connection points: 2
# Relax obj value: 0.051
# Max RMSD: 0.066
# Mean RMSD: 0.066
data_MOF--net-ukc--node1-CEKHIL_clean_sbu_0--edge1-OJICUG_clean_linker_0
_symmetry_space_group_name_H-M    P1
_symmetry_Int_Tables_number       1
_symmetry_cell_setting            triclinic
loop_
_symmetry_equiv_pos_as_xyz
'x, y, z'
_cell_length_a     32.076624
_cell_length_b     32.14494
_cell_length_c     62.407565
_cell_angle_alpha  89.989355
_cell_angle_beta   90.000811
_cell_angle_gamma 89.985351
loop_
_atom_site_label
_atom_site_type_symbol
_atom_site_fract_x
_atom_site_fract_y
_atom_site_fract_z
_atom_type_partial_charge
Co0 Co 0.12441 0.39876 0.04386 0.0
O1 O 0.17183 0.43374 0.0361 0.0
O2 O 0.15439 0.37609 0.0193 0.0
C3 C 0.13859 0.39775 0.07935 0.0
O4 O 0.08008 0.35257 0.0474 0.0
Co5 Co 0.0546 0.42607 0.07593 0.0
O6 O 0.04166 0.36588 0.07679 0.0
C7 C 0.05528 0.45913 0.03149 0.0
C8 C 0.18088 0.40642 0.0215 0.0
C9 C 0.053 0.34169 0.06171 0.0
O10 O 0.08488 0.43393 0.02576 0.0
O11 O 0.04215 0.46229 0.05079 0.0
O12 O 0.15811 0.37272 0.06642 0.0
O13 O 0.11357 0.42367 0.07038 0.0
Co14 Co 0.87434 0.8737 0.29381 0.0
O15 O 0.83941 0.92114 0.28605 0.0
O16 O 0.89713 0.90359 0.26924 0.0
C17 C 0.87542 0.88786 0.32929 0.0
O18 O 0.92052 0.82931 0.29736 0.0
Co19 Co 0.84675 0.80418 0.32592 0.0
O20 O 0.90701 0.79101 0.32674 0.0
C21 C 0.81373 0.8048 0.28146 0.0
C22 C 0.86681 0.93012 0.27145 0.0
C23 C 0.9313 0.80222 0.31166 0.0
O24 O 0.839 0.83432 0.27571 0.0
O25 O 0.81052 0.79175 0.30077 0.0
O26 O 0.90054 0.90726 0.31636 0.0
O27 O 0.84937 0.86299 0.32033 0.0
Co28 Co 0.39982 0.6232 0.54388 0.0
O29 O 0.3523 0.58833 0.53615 0.0
O30 O 0.36985 0.64592 0.51932 0.0
C31 C 0.38571 0.6243 0.57937 0.0
O32 O 0.44424 0.66931 0.54739 0.0
Co33 Co 0.46962 0.59577 0.57593 0.0
O34 O 0.48261 0.65594 0.57679 0.0
C35 C 0.46882 0.56269 0.5315 0.0
C36 C 0.34329 0.61565 0.52154 0.0
C37 C 0.47132 0.68015 0.56171 0.0
O38 O 0.43924 0.58793 0.52577 0.0
O39 O 0.48199 0.55953 0.55079 0.0
O40 O 0.36621 0.64934 0.56645 0.0
O41 O 0.41065 0.5983 0.5704 0.0
Co42 Co 0.65035 0.14877 0.79385 0.0
O43 O 0.68532 0.10136 0.78609 0.0
O44 O 0.62763 0.1189 0.76926 0.0
C45 C 0.64921 0.13457 0.82933 0.0
O46 O 0.60415 0.19314 0.79738 0.0
Co47 Co 0.67784 0.21827 0.82598 0.0
O48 O 0.61756 0.23133 0.82681 0.0
C49 C 0.71081 0.21785 0.78151 0.0
C50 C 0.65795 0.09238 0.77149 0.0
C51 C 0.59331 0.22016 0.8117 0.0
O52 O 0.68571 0.18818 0.77577 0.0
O53 O 0.71393 0.23095 0.80081 0.0
O54 O 0.62413 0.11517 0.81638 0.0
O55 O 0.67528 0.15946 0.82039 0.0
Co56 Co 0.12416 0.62346 0.45695 0.0
O57 O 0.17161 0.5885 0.46471 0.0
O58 O 0.1541 0.6461 0.48153 0.0
C59 C 0.13834 0.62457 0.42147 0.0
O60 O 0.07979 0.66964 0.45342 0.0
Co61 Co 0.05439 0.59615 0.42487 0.0
O62 O 0.04141 0.65633 0.42402 0.0
C63 C 0.05508 0.56302 0.46929 0.0
C64 C 0.18063 0.61579 0.47932 0.0
C65 C 0.05272 0.68052 0.43911 0.0
O66 O 0.08465 0.58824 0.47504 0.0
O67 O 0.04196 0.55987 0.44999 0.0
O68 O 0.15784 0.64957 0.43441 0.0
O69 O 0.11336 0.5986 0.43042 0.0
Co70 Co 0.65026 0.87353 0.70702 0.0
O71 O 0.68523 0.92093 0.71476 0.0
O72 O 0.62756 0.90342 0.73161 0.0
C73 C 0.64906 0.88771 0.67154 0.0
O74 O 0.60407 0.82917 0.7035 0.0
Co75 Co 0.67779 0.80403 0.67489 0.0
O76 O 0.61752 0.79092 0.6741 0.0
C77 C 0.71087 0.80455 0.71933 0.0
C78 C 0.65789 0.92992 0.72938 0.0
C79 C 0.59326 0.80211 0.68919 0.0
O80 O 0.68564 0.83411 0.72509 0.0
O81 O 0.71404 0.79151 0.70002 0.0
O82 O 0.624 0.90713 0.68449 0.0
O83 O 0.67516 0.86283 0.68048 0.0
Co84 Co 0.40007 0.39902 0.95695 0.0
O85 O 0.35255 0.43391 0.96469 0.0
O86 O 0.37013 0.37632 0.98151 0.0
C87 C 0.38592 0.39793 0.92146 0.0
O88 O 0.4445 0.35291 0.95343 0.0
Co89 Co 0.46983 0.42644 0.92489 0.0
O90 O 0.48285 0.36627 0.92403 0.0
C91 C 0.4691 0.45949 0.96932 0.0
C92 C 0.34356 0.40659 0.9793 0.0
C93 C 0.47158 0.34207 0.93911 0.0
O94 O 0.4395 0.43428 0.97505 0.0
O95 O 0.48226 0.46265 0.95003 0.0
O96 O 0.36644 0.3729 0.9344 0.0
O97 O 0.41086 0.42392 0.93042 0.0
Co98 Co 0.87467 0.14901 0.20699 0.0
O99 O 0.83965 0.10166 0.21476 0.0
O100 O 0.89738 0.11909 0.23157 0.0
C101 C 0.87575 0.13481 0.17151 0.0
O102 O 0.9209 0.19332 0.20344 0.0
Co103 Co 0.84716 0.21855 0.17486 0.0
O104 O 0.90743 0.23161 0.17404 0.0
C105 C 0.81421 0.21809 0.21933 0.0
C106 C 0.86702 0.09262 0.22936 0.0
C107 C 0.9317 0.22039 0.18913 0.0
O108 O 0.83938 0.18847 0.22507 0.0
O109 O 0.81102 0.23116 0.20003 0.0
O110 O 0.90083 0.11537 0.18445 0.0
O111 O 0.84971 0.15974 0.18046 0.0
Co112 Co 0.89996 0.62303 0.95694 0.0
O113 O 0.85245 0.58816 0.96469 0.0
O114 O 0.87002 0.64575 0.98151 0.0
C115 C 0.88582 0.62414 0.92146 0.0
O116 O 0.9444 0.66913 0.95341 0.0
Co117 Co 0.96972 0.59558 0.92487 0.0
O118 O 0.9828 0.65573 0.92403 0.0
C119 C 0.96895 0.56249 0.96931 0.0
C120 C 0.84346 0.61549 0.97929 0.0
C121 C 0.97151 0.67994 0.93911 0.0
O122 O 0.9394 0.58775 0.97504 0.0
O123 O 0.98208 0.5593 0.95001 0.0
O124 O 0.86633 0.64918 0.93438 0.0
O125 O 0.91075 0.59814 0.93042 0.0
Co126 Co 0.15032 0.14875 0.70698 0.0
O127 O 0.18528 0.10132 0.71473 0.0
O128 O 0.12761 0.11888 0.73157 0.0
C129 C 0.14913 0.13456 0.6715 0.0
O130 O 0.10413 0.19313 0.70344 0.0
Co131 Co 0.1778 0.21825 0.67483 0.0
O132 O 0.11752 0.23129 0.674 0.0
C133 C 0.21077 0.21784 0.7193 0.0
C134 C 0.15792 0.09235 0.72934 0.0
C135 C 0.09328 0.22013 0.68911 0.0
O136 O 0.1857 0.18815 0.72504 0.0
O137 O 0.21388 0.23096 0.7 0.0
O138 O 0.12407 0.11516 0.68445 0.0
O139 O 0.17522 0.15943 0.68043 0.0
Co140 Co 0.62405 0.39875 0.45698 0.0
O141 O 0.67146 0.43376 0.46472 0.0
O142 O 0.65404 0.37613 0.48155 0.0
C143 C 0.63824 0.39769 0.42149 0.0
O144 O 0.57973 0.35254 0.45345 0.0
Co145 Co 0.55423 0.42601 0.4249 0.0
O146 O 0.54138 0.36581 0.42404 0.0
C147 C 0.55488 0.4591 0.46932 0.0
C148 C 0.68052 0.40646 0.47933 0.0
C149 C 0.5527 0.34164 0.43913 0.0
O150 O 0.58452 0.43395 0.47506 0.0
O151 O 0.54171 0.46222 0.45003 0.0
O152 O 0.65776 0.37269 0.43443 0.0
O153 O 0.61321 0.42362 0.43044 0.0
Co154 Co 0.37436 0.8737 0.20703 0.0
O155 O 0.3394 0.92112 0.21478 0.0
O156 O 0.39712 0.90359 0.2316 0.0
C157 C 0.37545 0.88787 0.17154 0.0
O158 O 0.42057 0.82934 0.20349 0.0
Co159 Co 0.34687 0.80416 0.17491 0.0
O160 O 0.40715 0.79111 0.17408 0.0
C161 C 0.31384 0.8047 0.21937 0.0
C162 C 0.36679 0.93011 0.22938 0.0
C163 C 0.4314 0.80231 0.18917 0.0
O164 O 0.33902 0.83429 0.22512 0.0
O165 O 0.31068 0.79163 0.20007 0.0
O166 O 0.40054 0.90728 0.18447 0.0
O167 O 0.3494 0.86298 0.1805 0.0
Co168 Co 0.89976 0.39916 0.54384 0.0
O169 O 0.85223 0.43404 0.53609 0.0
O170 O 0.86981 0.37644 0.51928 0.0
C171 C 0.88562 0.39806 0.57932 0.0
O172 O 0.9442 0.35305 0.54736 0.0
Co173 Co 0.96952 0.42659 0.5759 0.0
O174 O 0.98257 0.36643 0.57675 0.0
C175 C 0.96872 0.4597 0.53147 0.0
C176 C 0.84324 0.4067 0.52149 0.0
C177 C 0.97129 0.34222 0.56167 0.0
O178 O 0.93918 0.43443 0.52573 0.0
O179 O 0.98185 0.46288 0.55076 0.0
O180 O 0.86614 0.37302 0.5664 0.0
O181 O 0.91055 0.42406 0.57036 0.0
Co182 Co 0.37473 0.149 0.2938 0.0
O183 O 0.33964 0.1017 0.28603 0.0
O184 O 0.39742 0.11905 0.26923 0.0
C185 C 0.37573 0.13478 0.32928 0.0
O186 O 0.42106 0.19322 0.29734 0.0
Co187 Co 0.34749 0.21861 0.32593 0.0
O188 O 0.40781 0.23138 0.3268 0.0
C189 C 0.31457 0.21834 0.28144 0.0
C190 C 0.36701 0.09262 0.27144 0.0
C191 C 0.432 0.22015 0.31168 0.0
O192 O 0.33951 0.18852 0.27571 0.0
O193 O 0.31153 0.23149 0.30073 0.0
O194 O 0.4008 0.11531 0.31635 0.0
O195 O 0.34978 0.15979 0.32032 0.0
Co196 Co 0.62432 0.62335 0.04387 0.0
O197 O 0.67178 0.58838 0.03613 0.0
O198 O 0.65428 0.64599 0.0193 0.0
C199 C 0.63848 0.62447 0.07936 0.0
O200 O 0.57995 0.66953 0.04739 0.0
Co201 Co 0.55453 0.59605 0.07595 0.0
O202 O 0.54161 0.65624 0.0768 0.0
C203 C 0.5552 0.56297 0.03152 0.0
C204 C 0.6808 0.61567 0.02152 0.0
C205 C 0.55291 0.68042 0.06171 0.0
O206 O 0.58483 0.58813 0.02578 0.0
O207 O 0.54203 0.55984 0.05081 0.0
O208 O 0.65799 0.64945 0.06641 0.0
O209 O 0.6135 0.59849 0.07041 0.0
Co210 Co 0.15021 0.87345 0.79382 0.0
O211 O 0.1852 0.92085 0.78608 0.0
O212 O 0.12751 0.90337 0.76924 0.0
C213 C 0.14905 0.8876 0.82931 0.0
O214 O 0.10401 0.8291 0.79735 0.0
Co215 Co 0.1777 0.8039 0.82595 0.0
O216 O 0.11742 0.79085 0.82676 0.0
C217 C 0.21077 0.80445 0.78151 0.0
C218 C 0.15784 0.92986 0.77147 0.0
C219 C 0.09317 0.80206 0.81166 0.0
O220 O 0.18558 0.83404 0.77575 0.0
O221 O 0.21392 0.79136 0.80081 0.0
O222 O 0.12398 0.90704 0.81636 0.0
O223 O 0.17512 0.86271 0.82036 0.0
Co224 Co 0.62414 0.89882 0.54389 0.0
O225 O 0.67157 0.9338 0.53613 0.0
O226 O 0.65411 0.87618 0.51932 0.0
C227 C 0.63833 0.89775 0.57937 0.0
O228 O 0.57981 0.85264 0.54743 0.0
Co229 Co 0.55436 0.92614 0.57597 0.0
O230 O 0.54141 0.86596 0.57682 0.0
C231 C 0.55501 0.95922 0.53154 0.0
C232 C 0.68061 0.9065 0.52153 0.0
C233 C 0.55273 0.84177 0.56174 0.0
O234 O 0.58462 0.93402 0.5258 0.0
O235 O 0.54188 0.96238 0.55083 0.0
O236 O 0.65785 0.87275 0.56644 0.0
O237 O 0.61333 0.9237 0.57042 0.0
Co238 Co 0.37454 0.37342 0.7938 0.0
O239 O 0.33953 0.42081 0.78604 0.0
O240 O 0.39726 0.40333 0.76923 0.0
C241 C 0.37561 0.38761 0.82929 0.0
O242 O 0.42078 0.32911 0.79736 0.0
Co243 Co 0.34712 0.30387 0.82594 0.0
O244 O 0.40742 0.29091 0.82679 0.0
C245 C 0.3142 0.30425 0.78145 0.0
C246 C 0.36691 0.42983 0.77144 0.0
C247 C 0.43165 0.30211 0.81169 0.0
O248 O 0.33925 0.33398 0.77572 0.0
O249 O 0.3111 0.29113 0.80075 0.0
O250 O 0.40068 0.40704 0.81635 0.0
O251 O 0.34959 0.36269 0.82034 0.0
Co252 Co 0.90007 0.12313 0.04386 0.0
O253 O 0.85256 0.08825 0.03614 0.0
O254 O 0.87012 0.14581 0.01929 0.0
C255 C 0.88594 0.1243 0.07935 0.0
O256 O 0.9445 0.16924 0.04736 0.0
Co257 Co 0.96984 0.09571 0.07593 0.0
O258 O 0.98285 0.15588 0.07677 0.0
C259 C 0.96909 0.0626 0.03151 0.0
C260 C 0.84356 0.11555 0.02152 0.0
C261 C 0.97157 0.18008 0.06168 0.0
O262 O 0.9395 0.08783 0.02577 0.0
O263 O 0.98225 0.05945 0.0508 0.0
O264 O 0.86645 0.14931 0.0664 0.0
O265 O 0.91087 0.09827 0.0704 0.0
Co266 Co 0.1501 0.64895 0.29382 0.0
O267 O 0.18513 0.60158 0.28608 0.0
O268 O 0.12743 0.61905 0.26923 0.0
C269 C 0.14894 0.63476 0.3293 0.0
O270 O 0.10385 0.69327 0.29734 0.0
Co271 Co 0.17749 0.71849 0.32595 0.0
O272 O 0.11719 0.73148 0.32677 0.0
C273 C 0.21058 0.71802 0.2815 0.0
C274 C 0.15779 0.59257 0.27146 0.0
C275 C 0.09297 0.72028 0.31166 0.0
O276 O 0.18543 0.6884 0.27575 0.0
O277 O 0.2137 0.73109 0.30081 0.0
O278 O 0.1239 0.61533 0.31635 0.0
O279 O 0.17499 0.65968 0.32036 0.0
Co280 Co 0.62438 0.12332 0.95698 0.0
O281 O 0.67183 0.08834 0.96473 0.0
O282 O 0.65434 0.14596 0.98155 0.0
C283 C 0.63858 0.1244 0.9215 0.0
O284 O 0.58003 0.1695 0.95344 0.0
Co285 Co 0.55462 0.09604 0.92489 0.0
O286 O 0.54169 0.15623 0.92403 0.0
C287 C 0.55525 0.06294 0.96932 0.0
C288 C 0.68086 0.11565 0.97934 0.0
C289 C 0.55299 0.1804 0.93912 0.0
O290 O 0.58487 0.08811 0.97506 0.0
O291 O 0.54211 0.05982 0.95003 0.0
O292 O 0.65808 0.1494 0.93443 0.0
O293 O 0.61358 0.09845 0.93045 0.0
Co294 Co 0.15038 0.37369 0.207 0.0
O295 O 0.18534 0.4211 0.21475 0.0
O296 O 0.12764 0.40358 0.23158 0.0
C297 C 0.14926 0.38787 0.17152 0.0
O298 O 0.10418 0.32934 0.20347 0.0
Co299 Co 0.17781 0.30416 0.17486 0.0
O300 O 0.11752 0.29121 0.17402 0.0
C301 C 0.21076 0.30453 0.21935 0.0
C302 C 0.15796 0.43009 0.22936 0.0
C303 C 0.0933 0.30237 0.18914 0.0
O304 O 0.18574 0.33427 0.22508 0.0
O305 O 0.21383 0.29138 0.20005 0.0
O306 O 0.12417 0.40729 0.18446 0.0
O307 O 0.17532 0.36297 0.18047 0.0
Co308 Co 0.89978 0.89913 0.45696 0.0
O309 O 0.85227 0.93402 0.46471 0.0
O310 O 0.86984 0.87641 0.48152 0.0
C311 C 0.88565 0.89807 0.42147 0.0
O312 O 0.94421 0.85302 0.45344 0.0
Co313 Co 0.96956 0.92656 0.42491 0.0
O314 O 0.98258 0.86639 0.42405 0.0
C315 C 0.96877 0.95963 0.46934 0.0
C316 C 0.84327 0.90668 0.47931 0.0
C317 C 0.97129 0.84218 0.43913 0.0
O318 O 0.93921 0.93439 0.47507 0.0
O319 O 0.98192 0.96281 0.45004 0.0
O320 O 0.86616 0.87302 0.4344 0.0
O321 O 0.91059 0.92405 0.43044 0.0
Co322 Co 0.37457 0.64879 0.70703 0.0
O323 O 0.33957 0.60141 0.71478 0.0
O324 O 0.39729 0.61884 0.7316 0.0
C325 C 0.37564 0.63463 0.67155 0.0
O326 O 0.4208 0.6931 0.7035 0.0
Co327 Co 0.34711 0.71837 0.67492 0.0
O328 O 0.40739 0.73139 0.67409 0.0
C329 C 0.31408 0.71783 0.71938 0.0
C330 C 0.36694 0.59237 0.72938 0.0
C331 C 0.43164 0.72015 0.68919 0.0
O332 O 0.33926 0.68822 0.72512 0.0
O333 O 0.31093 0.73092 0.70007 0.0
O334 O 0.40073 0.61519 0.68448 0.0
O335 O 0.34961 0.65956 0.68051 0.0
Co336 Co 0.39975 0.12311 0.45694 0.0
O337 O 0.35222 0.08825 0.46468 0.0
O338 O 0.36979 0.14583 0.4815 0.0
C339 C 0.38564 0.12423 0.42145 0.0
O340 O 0.44419 0.1692 0.45342 0.0
Co341 Co 0.46952 0.09563 0.42489 0.0
O342 O 0.4826 0.15579 0.42405 0.0
C343 C 0.46872 0.06255 0.46933 0.0
C344 C 0.34323 0.11557 0.47928 0.0
C345 C 0.47131 0.18001 0.43912 0.0
O346 O 0.43916 0.08782 0.47506 0.0
O347 O 0.48186 0.05937 0.45003 0.0
O348 O 0.36614 0.14927 0.43438 0.0
O349 O 0.41056 0.09821 0.43042 0.0
Co350 Co 0.65013 0.64898 0.20701 0.0
O351 O 0.68514 0.60159 0.21476 0.0
O352 O 0.62744 0.61909 0.2316 0.0
C353 C 0.64897 0.63479 0.17152 0.0
O354 O 0.60391 0.69333 0.20347 0.0
Co355 Co 0.67761 0.7185 0.17487 0.0
O356 O 0.61733 0.7316 0.17407 0.0
C357 C 0.7107 0.71796 0.21931 0.0
C358 C 0.65779 0.59259 0.22937 0.0
C359 C 0.59308 0.72038 0.18916 0.0
O360 O 0.68547 0.68841 0.22507 0.0
O361 O 0.71388 0.731 0.2 0.0
O362 O 0.62391 0.61537 0.18448 0.0
O363 O 0.67503 0.65969 0.18046 0.0
Co364 Co 0.1243 0.89866 0.95697 0.0
O365 O 0.17172 0.93365 0.96471 0.0
O366 O 0.1543 0.87602 0.98153 0.0
C367 C 0.13845 0.89761 0.92148 0.0
O368 O 0.07997 0.85246 0.95344 0.0
Co369 Co 0.05447 0.92594 0.9249 0.0
O370 O 0.0416 0.86574 0.92404 0.0
C371 C 0.05514 0.95901 0.96933 0.0
C372 C 0.18079 0.90635 0.97931 0.0
C373 C 0.05293 0.84156 0.93913 0.0
O374 O 0.08479 0.93385 0.97507 0.0
O375 O 0.04197 0.96214 0.95004 0.0
O376 O 0.15799 0.8726 0.93441 0.0
O377 O 0.11344 0.92354 0.93044 0.0
Co378 Co 0.87454 0.37344 0.70698 0.0
O379 O 0.83953 0.42082 0.71476 0.0
O380 O 0.89729 0.40335 0.73155 0.0
C381 C 0.87555 0.38765 0.6715 0.0
O382 O 0.92079 0.32913 0.70343 0.0
Co383 Co 0.8471 0.3039 0.67486 0.0
O384 O 0.90739 0.29092 0.67401 0.0
C385 C 0.8142 0.30429 0.71935 0.0
C386 C 0.86693 0.42983 0.72934 0.0
C387 C 0.93164 0.30212 0.6891 0.0
O388 O 0.83927 0.33399 0.72508 0.0
O389 O 0.81107 0.29119 0.70006 0.0
O390 O 0.90065 0.40707 0.68443 0.0
O391 O 0.84955 0.36271 0.68046 0.0
Co392 Co 0.39998 0.89905 0.04387 0.0
O393 O 0.35246 0.93393 0.03611 0.0
O394 O 0.37004 0.87632 0.01932 0.0
C395 C 0.38582 0.89799 0.07936 0.0
O396 O 0.4444 0.85293 0.04741 0.0
Co397 Co 0.46973 0.92645 0.07594 0.0
O398 O 0.48277 0.86628 0.07681 0.0
C399 C 0.46901 0.95951 0.0315 0.0
C400 C 0.34347 0.90659 0.02152 0.0
C401 C 0.47149 0.84208 0.06172 0.0
O402 O 0.43942 0.9343 0.02577 0.0
O403 O 0.48215 0.96267 0.0508 0.0
O404 O 0.36634 0.87294 0.06644 0.0
O405 O 0.41077 0.92397 0.07039 0.0
Co406 Co 0.87454 0.6487 0.7938 0.0
O407 O 0.83956 0.60132 0.78604 0.0
O408 O 0.89728 0.6188 0.76922 0.0
C409 C 0.87561 0.63449 0.82928 0.0
O410 O 0.92075 0.69303 0.79735 0.0
Co411 Co 0.84703 0.71822 0.82593 0.0
O412 O 0.9073 0.73129 0.82675 0.0
C413 C 0.81401 0.71772 0.78147 0.0
C414 C 0.86694 0.59231 0.77144 0.0
C415 C 0.93157 0.72008 0.81166 0.0
O416 O 0.83923 0.68815 0.77572 0.0
O417 O 0.81083 0.73076 0.80077 0.0
O418 O 0.90071 0.61507 0.81635 0.0
O419 O 0.84958 0.65941 0.82033 0.0
Co420 Co 0.12408 0.12346 0.54385 0.0
O421 O 0.17152 0.08847 0.5361 0.0
O422 O 0.15404 0.14609 0.51927 0.0
C423 C 0.13829 0.12454 0.57933 0.0
O424 O 0.07974 0.16965 0.54738 0.0
Co425 Co 0.05431 0.09617 0.57593 0.0
O426 O 0.04138 0.15637 0.57678 0.0
C427 C 0.05497 0.06307 0.53151 0.0
C428 C 0.18055 0.11577 0.52149 0.0
C429 C 0.05269 0.18055 0.56169 0.0
O430 O 0.08457 0.08825 0.52577 0.0
O431 O 0.04183 0.05993 0.55081 0.0
O432 O 0.15779 0.14954 0.56639 0.0
O433 O 0.11328 0.09859 0.57039 0.0
Co434 Co 0.65044 0.3737 0.29385 0.0
O435 O 0.68532 0.42117 0.28611 0.0
O436 O 0.62768 0.40356 0.26926 0.0
C437 C 0.6492 0.38785 0.32933 0.0
O438 O 0.60434 0.32925 0.29738 0.0
Co439 Co 0.67813 0.30423 0.32598 0.0
O440 O 0.6179 0.29097 0.32677 0.0
C441 C 0.71114 0.30481 0.28152 0.0
C442 C 0.65796 0.43012 0.27149 0.0
C443 C 0.5936 0.30214 0.31168 0.0
O444 O 0.68588 0.33436 0.27578 0.0
O445 O 0.71435 0.29175 0.30083 0.0
O446 O 0.62411 0.40724 0.31638 0.0
O447 O 0.67536 0.36304 0.32039 0.0
C448 C 0.02188 0.5078 0.97875 0.0
C449 C 0.99044 0.53587 0.98537 0.0
H450 H 0.06703 0.46189 0.98788 0.0
C451 C 0.98094 0.53848 0.00722 0.0
H452 H 0.03022 0.50476 0.96201 0.0
C453 C 1.0023 0.51378 0.02205 0.0
C454 C 0.03375 0.48572 0.01543 0.0
H455 H 0.95716 0.55969 0.01292 0.0
H456 H 0.99396 0.51681 0.03879 0.0
C457 C 0.04324 0.4831 0.99358 0.0
C458 C 0.73454 0.73027 0.25723 0.0
C459 C 0.73725 0.73958 0.23536 0.0
H460 H 0.75603 0.74357 0.2888 0.0
C461 C 0.7653 0.77099 0.22872 0.0
H462 H 0.71333 0.70652 0.26296 0.0
C463 C 0.78989 0.79251 0.24353 0.0
C464 C 0.78718 0.78319 0.2654 0.0
H465 H 0.7684 0.7792 0.21197 0.0
H466 H 0.8111 0.81626 0.23781 0.0
C467 C 0.75913 0.75178 0.27205 0.0
C468 C 0.54324 0.48346 0.5072 0.0
C469 C 0.53338 0.48573 0.48538 0.0
H470 H 0.53061 0.50549 0.53874 0.0
C471 C 0.50167 0.51352 0.47879 0.0
H472 H 0.56724 0.46247 0.51288 0.0
C473 C 0.48041 0.53831 0.49361 0.0
C474 C 0.49027 0.53604 0.51543 0.0
H475 H 0.49304 0.51627 0.46208 0.0
H476 H 0.45641 0.5593 0.48793 0.0
C477 C 0.52197 0.50824 0.52202 0.0
C478 C 0.78897 0.29333 0.75715 0.0
C479 C 0.78768 0.28266 0.73542 0.0
H480 H 0.76612 0.28136 0.78861 0.0
C481 C 0.76087 0.25008 0.72891 0.0
H482 H 0.80914 0.31806 0.76277 0.0
C483 C 0.73608 0.22879 0.74372 0.0
C484 C 0.73736 0.23947 0.76546 0.0
H485 H 0.75892 0.24076 0.71227 0.0
H486 H 0.7159 0.20407 0.7381 0.0
C487 C 0.76417 0.27204 0.77197 0.0
C488 C 0.9809 0.48353 0.49353 0.0
C489 C 0.99021 0.48632 0.5154 0.0
H490 H 0.9941 0.50504 0.46196 0.0
C491 C 0.02148 0.51454 0.52204 0.0
H492 H 0.95726 0.46219 0.48782 0.0
C493 C 0.04287 0.53921 0.50722 0.0
C494 C 0.03356 0.53642 0.48535 0.0
H495 H 0.02967 0.51771 0.53879 0.0
H496 H 0.06651 0.56055 0.51294 0.0
C497 C 1.00229 0.50821 0.47871 0.0
C498 C 0.76524 0.75126 0.72876 0.0
C499 C 0.73744 0.78293 0.73538 0.0
H500 H 0.81088 0.70582 0.73786 0.0
C501 C 0.73503 0.79252 0.75723 0.0
H502 H 0.7681 0.74283 0.71202 0.0
C503 C 0.75967 0.77103 0.77204 0.0
C504 C 0.78747 0.73936 0.76541 0.0
H505 H 0.71403 0.81647 0.76293 0.0
H506 H 0.75681 0.77947 0.78877 0.0
C507 C 0.78988 0.72978 0.74357 0.0
C508 C 0.48069 0.48385 0.00721 0.0
C509 C 0.49057 0.48611 0.98539 0.0
H510 H 0.49332 0.50587 0.03875 0.0
C511 C 0.5223 0.51386 0.97881 0.0
H512 H 0.45667 0.4629 0.01289 0.0
C513 C 0.54358 0.53862 0.99363 0.0
C514 C 0.53371 0.53636 0.01545 0.0
H515 H 0.53095 0.5166 0.96209 0.0
H516 H 0.56761 0.55957 0.98796 0.0
C517 C 0.50197 0.50861 0.02204 0.0
C518 C 0.76012 0.27162 0.22881 0.0
C519 C 0.78771 0.23974 0.2354 0.0
H520 H 0.71465 0.31719 0.23796 0.0
C521 C 0.78992 0.2299 0.25722 0.0
H522 H 0.75742 0.28026 0.2121 0.0
C523 C 0.76529 0.25135 0.27205 0.0
C524 C 0.73769 0.28321 0.26546 0.0
H525 H 0.81075 0.20577 0.2629 0.0
H526 H 0.76798 0.2427 0.28876 0.0
C527 C 0.73548 0.29306 0.24364 0.0
C528 C 0.26101 0.24991 0.77189 0.0
C529 C 0.28768 0.28262 0.76539 0.0
H530 H 0.21615 0.20381 0.76269 0.0
C531 C 0.28881 0.29344 0.74367 0.0
H532 H 0.2592 0.24047 0.78852 0.0
C533 C 0.264 0.27216 0.72886 0.0
C534 C 0.23733 0.23946 0.73536 0.0
H535 H 0.30886 0.31826 0.73806 0.0
H536 H 0.26581 0.2816 0.71223 0.0
C537 C 0.2362 0.22863 0.75708 0.0
C538 C 0.2647 0.77153 0.27206 0.0
C539 C 0.23715 0.73964 0.26546 0.0
H540 H 0.31018 0.81709 0.26294 0.0
C541 C 0.23503 0.72978 0.24364 0.0
H542 H 0.26731 0.78019 0.28877 0.0
C543 C 0.25972 0.7512 0.22883 0.0
C544 C 0.28727 0.78308 0.23543 0.0
H545 H 0.21424 0.70564 0.23795 0.0
H546 H 0.2571 0.74254 0.21212 0.0
C547 C 0.28939 0.79295 0.25725 0.0
C548 C 0.28841 0.22853 0.24375 0.0
C549 C 0.28801 0.23998 0.26539 0.0
H550 H 0.26466 0.23974 0.2124 0.0
C551 C 0.26194 0.27322 0.27182 0.0
H552 H 0.30796 0.20326 0.2382 0.0
C553 C 0.23697 0.29438 0.25703 0.0
C554 C 0.23736 0.28292 0.23539 0.0
H555 H 0.26071 0.28317 0.28839 0.0
H556 H 0.21741 0.31965 0.26258 0.0
C557 C 0.26344 0.2497 0.22896 0.0
C558 C 0.23526 0.79276 0.74364 0.0
C559 C 0.23735 0.78284 0.76546 0.0
H560 H 0.25737 0.78005 0.71212 0.0
C561 C 0.2649 0.75094 0.77205 0.0
H562 H 0.21448 0.81692 0.73795 0.0
C563 C 0.28961 0.72953 0.75725 0.0
C564 C 0.28751 0.73944 0.73543 0.0
H565 H 0.2675 0.74224 0.78876 0.0
H566 H 0.31039 0.70537 0.76293 0.0
C567 C 0.25997 0.77135 0.72883 0.0
C568 C 0.54299 0.98317 0.49362 0.0
C569 C 0.53349 0.98581 0.51547 0.0
H570 H 0.52998 1.00482 0.46205 0.0
C571 C 0.50204 0.01387 0.52208 0.0
H572 H 0.56677 0.96196 0.48792 0.0
C573 C 0.48068 0.03856 0.50725 0.0
C574 C 0.49019 0.03594 0.4854 0.0
H575 H 0.4937 0.01691 0.53882 0.0
H576 H 0.45691 0.05978 0.51295 0.0
C577 C 0.52163 1.00786 0.47879 0.0
C578 C 1.00192 0.0134 0.97881 0.0
C579 C 0.03365 0.98563 0.98539 0.0
H580 H 0.95663 0.05915 0.98795 0.0
C581 C 0.04354 0.98339 0.00722 0.0
H582 H 0.99326 0.01613 0.96209 0.0
C583 C 0.02227 1.00817 0.02204 0.0
C584 C 0.99054 0.03595 0.01545 0.0
H585 H 0.06756 0.96243 0.01289 0.0
H586 H 0.03093 1.00545 0.03875 0.0
C587 C 0.98066 0.03818 0.99363 0.0
C588 C 0.50207 1.00852 0.97878 0.0
C589 C 0.53373 0.03634 0.98538 0.0
H590 H 0.4568 0.96276 0.98792 0.0
C591 C 0.54347 0.03869 0.00722 0.0
H592 H 0.49353 1.00571 0.96206 0.0
C593 C 0.52215 0.01395 0.02204 0.0
C594 C 0.4905 0.98612 0.01544 0.0
H595 H 0.56743 0.05971 0.0129 0.0
H596 H 0.5307 0.01677 0.03876 0.0
C597 C 0.48075 0.98378 0.9936 0.0
C598 C 0.04303 0.039 0.49361 0.0
C599 C 0.03347 0.03646 0.51545 0.0
H600 H 0.03011 0.01726 0.46205 0.0
C601 C 1.00199 1.00844 0.52207 0.0
H602 H 0.06684 0.06018 0.48791 0.0
C603 C 0.98067 0.98372 0.50725 0.0
C604 C 0.99024 0.98626 0.4854 0.0
H605 H 0.99359 1.00547 0.53881 0.0
H606 H 0.95686 0.96254 0.51295 0.0
C607 C 0.02171 0.01428 0.47879 0.0
C608 C 1.00166 0.24171 0.04154 0.0
C609 C 0.99132 0.22197 0.06097 0.0
H610 H 0.03065 0.29465 0.02641 0.0
C611 C 1.00218 0.24162 0.0803 0.0
H612 H 0.99405 0.22713 0.02639 0.0
C613 C 0.02237 0.28012 0.08031 0.0
C614 C 0.03329 0.29979 0.06099 0.0
H615 H 0.99472 0.22731 0.09555 0.0
H616 H 0.02978 0.29442 0.09556 0.0
C617 C 0.023 0.28006 0.04155 0.0
C618 C 0.03136 0.75061 0.2915 0.0
C619 C 0.05102 0.74007 0.31093 0.0
H620 H 0.9785 0.7799 0.27636 0.0
C621 C 0.03128 0.75087 0.33026 0.0
H622 H 0.04601 0.74306 0.27635 0.0
C623 C 0.9928 0.77121 0.33026 0.0
C624 C 0.97321 0.78234 0.31094 0.0
H625 H 0.04553 0.74327 0.34551 0.0
H626 H 0.97844 0.77858 0.34551 0.0
C627 C 0.99302 0.77209 0.2915 0.0
C628 C 0.50193 0.74169 0.58033 0.0
C629 C 0.49105 0.72204 0.561 0.0
H630 H 0.52953 0.79449 0.59559 0.0
C631 C 0.50138 0.74179 0.54157 0.0
H632 H 0.49448 0.72738 0.59558 0.0
C633 C 0.52272 0.78014 0.54157 0.0
C634 C 0.53301 0.79987 0.56102 0.0
H635 H 0.49376 0.72722 0.52642 0.0
H636 H 0.53036 0.79474 0.52643 0.0
C637 C 0.52211 0.78019 0.58033 0.0
C638 C 0.53176 0.25104 0.8303 0.0
C639 C 0.55139 0.24001 0.81098 0.0
H640 H 0.47899 0.27891 0.84554 0.0
C641 C 0.53164 0.25036 0.79154 0.0
H642 H 0.54607 0.24359 0.84555 0.0
C643 C 0.4933 0.27185 0.79153 0.0
C644 C 0.47359 0.28229 0.81097 0.0
H645 H 0.5462 0.24264 0.7764 0.0
H646 H 0.4787 0.27948 0.77639 0.0
C647 C 0.49328 0.27138 0.83029 0.0
C648 C 1.00134 0.78051 0.45927 0.0
C649 C 0.99104 0.80028 0.43983 0.0
H650 H 0.03029 0.72754 0.47441 0.0
C651 C 1.00194 0.78063 0.42051 0.0
H652 H 0.9937 0.79508 0.47442 0.0
C653 C 0.02212 0.74211 0.42051 0.0
C654 C 0.03299 0.72242 0.43983 0.0
H655 H 0.99451 0.79495 0.40526 0.0
H656 H 0.02956 0.72782 0.40525 0.0
C657 C 0.02267 0.74215 0.45927 0.0
C658 C 0.5316 0.77189 0.70935 0.0
C659 C 0.55135 0.78226 0.68992 0.0
H660 H 0.47867 0.74276 0.7245 0.0
C661 C 0.53172 0.77125 0.6706 0.0
H662 H 0.54616 0.77961 0.7245 0.0
C663 C 0.49325 0.7509 0.6706 0.0
C664 C 0.47357 0.73997 0.68992 0.0
H665 H 0.54603 0.7787 0.65534 0.0
H666 H 0.47897 0.74338 0.65534 0.0
C667 C 0.49327 0.7504 0.70935 0.0
C668 C 0.52248 0.24203 0.92051 0.0
C669 C 0.53329 0.22232 0.93983 0.0
H670 H 0.49492 0.29489 0.90525 0.0
C671 C 0.5229 0.24202 0.95927 0.0
H672 H 0.52997 0.22775 0.90526 0.0
C673 C 0.50157 0.28038 0.95926 0.0
C674 C 0.49133 0.30017 0.93983 0.0
H675 H 0.53047 0.2274 0.97441 0.0
H676 H 0.49387 0.29494 0.97441 0.0
C677 C 0.5023 0.28055 0.92051 0.0
C678 C 0.03167 0.27171 0.17054 0.0
C679 C 0.05138 0.28255 0.18986 0.0
H680 H 0.97887 0.24396 0.15528 0.0
C681 C 0.03172 0.27202 0.2093 0.0
H682 H 0.04592 0.2793 0.15529 0.0
C683 C 0.9934 0.25052 0.20929 0.0
C684 C 0.97361 0.24024 0.18985 0.0
H685 H 0.04635 0.2796 0.22444 0.0
H686 H 0.97887 0.24273 0.22444 0.0
C687 C 0.9932 0.25135 0.17054 0.0
C688 C 1.00232 0.74142 0.92051 0.0
C689 C 0.99128 0.72182 0.93983 0.0
H690 H 0.03005 0.79419 0.90526 0.0
C691 C 1.00146 0.74161 0.95927 0.0
H692 H 0.995 0.72708 0.90525 0.0
C693 C 0.02281 0.77996 0.95928 0.0
C694 C 0.03325 0.79965 0.93984 0.0
H695 H 0.99372 0.72708 0.97441 0.0
H696 H 0.03032 0.79459 0.97442 0.0
C697 C 0.02251 0.77992 0.92052 0.0
C698 C 0.99323 0.27132 0.67051 0.0
C699 C 0.97357 0.28229 0.68983 0.0
H700 H 0.046 0.24347 0.65526 0.0
C701 C 0.99331 0.27189 0.70927 0.0
H702 H 0.97893 0.2788 0.65525 0.0
C703 C 0.03164 0.2504 0.70927 0.0
C704 C 0.05136 0.23999 0.68983 0.0
H705 H 0.97872 0.27958 0.72441 0.0
H706 H 0.04622 0.24271 0.72441 0.0
C707 C 0.0317 0.25096 0.67051 0.0
C708 C 0.52234 0.27997 0.42052 0.0
C709 C 0.53303 0.29972 0.43985 0.0
H710 H 0.49486 0.2271 0.40526 0.0
C711 C 0.52255 0.28005 0.45928 0.0
H712 H 0.5299 0.29422 0.40527 0.0
C713 C 0.50122 0.2417 0.45928 0.0
C714 C 0.49108 0.22188 0.43984 0.0
H715 H 0.53003 0.29471 0.47443 0.0
H716 H 0.49344 0.22719 0.47442 0.0
C717 C 0.50216 0.24147 0.42052 0.0
C718 C 0.49301 0.77156 0.17057 0.0
C719 C 0.47333 0.78248 0.18989 0.0
H720 H 0.54581 0.74378 0.15531 0.0
C721 C 0.49306 0.77204 0.20933 0.0
H722 H 0.47872 0.77908 0.15532 0.0
C723 C 0.5314 0.75057 0.20933 0.0
C724 C 0.55115 0.74022 0.18989 0.0
H725 H 0.47846 0.77968 0.22448 0.0
H726 H 0.54598 0.74285 0.22447 0.0
C727 C 0.5315 0.75123 0.17057 0.0
C728 C 1.00128 0.28054 0.54153 0.0
C729 C 0.99105 0.30033 0.56097 0.0
H730 H 0.03017 0.22755 0.52639 0.0
C731 C 1.00201 0.28069 0.58029 0.0
H732 H 0.99358 0.29509 0.52639 0.0
C733 C 0.02219 0.24218 0.58029 0.0
C734 C 0.03299 0.22246 0.56097 0.0
H735 H 0.99464 0.29504 0.59554 0.0
H736 H 0.02968 0.2279 0.59555 0.0
C737 C 0.02261 0.24217 0.54153 0.0
C738 C 0.49378 0.25053 0.33027 0.0
C739 C 0.47396 0.23989 0.31095 0.0
H740 H 0.54665 0.27814 0.34553 0.0
C741 C 0.49353 0.2506 0.29151 0.0
H742 H 0.4796 0.2428 0.34552 0.0
C743 C 0.53185 0.2721 0.29152 0.0
C744 C 0.55173 0.2822 0.31096 0.0
H745 H 0.47881 0.24318 0.27637 0.0
H746 H 0.54629 0.28005 0.27638 0.0
C747 C 0.53224 0.27089 0.33027 0.0
C748 C 0.50147 0.78041 0.04157 0.0
C749 C 0.49125 0.80019 0.06101 0.0
H750 H 0.53035 0.72743 0.02642 0.0
C751 C 0.50224 0.78056 0.08033 0.0
H752 H 0.49376 0.79497 0.02643 0.0
C753 C 0.52242 0.74204 0.08032 0.0
C754 C 0.53321 0.72234 0.061 0.0
H755 H 0.49487 0.79489 0.09558 0.0
H756 H 0.52992 0.72776 0.09557 0.0
C757 C 0.5228 0.74205 0.04156 0.0
C758 C 0.99311 0.75094 0.83025 0.0
C759 C 0.97348 0.73992 0.81093 0.0
H760 H 0.04585 0.77882 0.84551 0.0
C761 C 0.99323 0.75028 0.7915 0.0
H762 H 0.97879 0.74349 0.84551 0.0
C763 C 0.03156 0.77178 0.79149 0.0
C764 C 0.05126 0.78222 0.81093 0.0
H765 H 0.97867 0.74257 0.77635 0.0
H766 H 0.04616 0.77943 0.77635 0.0
C767 C 0.03158 0.7713 0.83025 0.0
C768 C 0.2823 0.36954 0.99583 0.0
C769 C 0.30261 0.4071 0.99079 0.0
H770 H 0.22761 0.33996 0.00861 0.0
C771 C 0.28192 0.44468 0.99544 0.0
H772 H 0.29701 0.34003 0.99221 0.0
C773 C 0.24241 0.44464 0.00535 0.0
C774 C 0.22183 0.40702 0.01001 0.0
H775 H 0.2965 0.47415 0.99162 0.0
H776 H 0.22775 0.47408 0.00915 0.0
C777 C 0.24224 0.3695 0.00499 0.0
C778 C 0.90402 0.03134 0.24585 0.0
C779 C 0.86643 0.05173 0.24083 0.0
H780 H 0.93354 0.97662 0.25859 0.0
C781 C 0.82872 0.03117 0.24547 0.0
H782 H 0.93363 0.04594 0.24225 0.0
C783 C 0.82867 0.9917 0.25535 0.0
C784 C 0.86633 0.97103 0.25999 0.0
H785 H 0.79922 0.04581 0.24167 0.0
H786 H 0.79913 0.97714 0.25914 0.0
C787 C 0.90397 0.99132 0.25498 0.0
C788 C 0.24219 0.57758 0.49548 0.0
C789 C 0.22157 0.6152 0.49082 0.0
H790 H 0.2963 0.54808 0.5092 0.0
C791 C 0.24194 0.65272 0.49586 0.0
H792 H 0.22755 0.54814 0.49166 0.0
C793 C 0.282 0.65269 0.50502 0.0
C794 C 0.30234 0.61513 0.51005 0.0
H795 H 0.22729 0.68226 0.49224 0.0
H796 H 0.29668 0.6822 0.50864 0.0
C797 C 0.28169 0.57755 0.50539 0.0
C798 C 0.62085 0.03117 0.75501 0.0
C799 C 0.65848 0.05149 0.76002 0.0
H800 H 0.59124 0.97652 0.74228 0.0
C801 C 0.69615 0.03086 0.75536 0.0
H802 H 0.59127 0.04583 0.75863 0.0
C803 C 0.69613 0.99141 0.74549 0.0
C804 C 0.65844 0.97081 0.74085 0.0
H805 H 0.72568 0.04545 0.75915 0.0
H806 H 0.72565 0.9768 0.74168 0.0
C807 C 0.62084 0.99116 0.74588 0.0
C808 C 0.74235 0.57744 0.00537 0.0
C809 C 0.72174 0.61507 0.01002 0.0
H810 H 0.79645 0.54792 0.99165 0.0
C811 C 0.74213 0.65258 0.00498 0.0
H812 H 0.7277 0.548 0.00919 0.0
C813 C 0.78219 0.65254 0.99582 0.0
C814 C 0.80251 0.61498 0.99079 0.0
H815 H 0.72749 0.68213 0.0086 0.0
H816 H 0.79688 0.68205 0.99219 0.0
C817 C 0.78185 0.5774 0.99545 0.0
C818 C 0.1208 0.99112 0.75497 0.0
C819 C 0.15841 0.97076 0.75999 0.0
H820 H 0.09124 0.0458 0.74222 0.0
C821 C 0.1961 0.99135 0.75535 0.0
H822 H 0.0912 0.97649 0.75858 0.0
C823 C 0.19612 0.03081 0.74547 0.0
C824 C 0.15845 0.05145 0.74082 0.0
H825 H 0.22561 0.97673 0.75915 0.0
H826 H 0.22564 0.04539 0.74167 0.0
C827 C 0.12082 0.03114 0.74584 0.0
C828 C 0.78197 0.36963 0.505 0.0
C829 C 0.80227 0.4072 0.51002 0.0
H830 H 0.72728 0.34002 0.49224 0.0
C831 C 0.78157 0.44477 0.50536 0.0
H832 H 0.7967 0.34012 0.50862 0.0
C833 C 0.74205 0.44471 0.49546 0.0
C834 C 0.72147 0.40708 0.49081 0.0
H835 H 0.79614 0.47425 0.50916 0.0
H836 H 0.72737 0.47415 0.49165 0.0
C837 C 0.7419 0.36957 0.49585 0.0
C838 C 0.404 0.03131 0.25497 0.0
C839 C 0.36641 0.05172 0.25998 0.0
H840 H 0.43351 0.97659 0.24226 0.0
C841 C 0.3287 0.03117 0.25533 0.0
H842 H 0.43361 0.0459 0.25859 0.0
C843 C 0.32864 0.99171 0.24546 0.0
C844 C 0.3663 0.97102 0.24084 0.0
H845 H 0.2992 0.04583 0.25912 0.0
H846 H 0.29911 0.97716 0.24166 0.0
C847 C 0.40394 0.99129 0.24586 0.0
C848 C 0.78164 0.94477 0.49546 0.0
C849 C 0.80232 0.90719 0.4908 0.0
H850 H 0.72747 0.97417 0.50918 0.0
C851 C 0.78201 0.86963 0.49583 0.0
H852 H 0.79622 0.97425 0.49165 0.0
C853 C 0.74195 0.86959 0.50499 0.0
C854 C 0.72155 0.9071 0.51003 0.0
H855 H 0.79672 0.84012 0.49221 0.0
H856 H 0.72732 0.84004 0.50861 0.0
C857 C 0.74213 0.94473 0.50537 0.0
C858 C 0.32871 0.53084 0.74547 0.0
C859 C 0.36639 0.55145 0.74084 0.0
H860 H 0.29917 0.47677 0.75913 0.0
C861 C 0.404 0.5311 0.74586 0.0
H862 H 0.29919 0.54546 0.74167 0.0
C863 C 0.404 0.49107 0.75498 0.0
C864 C 0.36637 0.47074 0.75998 0.0
H865 H 0.4336 0.54574 0.74226 0.0
H866 H 0.43358 0.47641 0.75859 0.0
C867 C 0.3287 0.49137 0.75534 0.0
C868 C 0.78226 0.15257 0.00499 0.0
C869 C 0.8026 0.11502 0.01003 0.0
H870 H 0.72754 0.18213 0.99222 0.0
C871 C 0.78194 0.07743 0.00539 0.0
H872 H 0.79695 0.18209 0.0086 0.0
C873 C 0.74243 0.07745 0.99549 0.0
C874 C 0.72181 0.11507 0.99082 0.0
H875 H 0.79656 0.04796 0.00921 0.0
H876 H 0.72779 0.048 0.99169 0.0
C877 C 0.74219 0.15259 0.99584 0.0
C878 C 0.19608 0.53108 0.25536 0.0
C879 C 0.15838 0.55167 0.25999 0.0
H880 H 0.22566 0.47704 0.24169 0.0
C881 C 0.12079 0.53132 0.25496 0.0
H882 H 0.22559 0.54569 0.25917 0.0
C883 C 0.12083 0.49131 0.24583 0.0
C884 C 0.15846 0.47099 0.24083 0.0
H885 H 0.09118 0.54595 0.25856 0.0
H886 H 0.09125 0.47665 0.24221 0.0
C887 C 0.19613 0.49163 0.24548 0.0
C888 C 0.24209 0.07753 0.50534 0.0
C889 C 0.22149 0.11516 0.50999 0.0
H890 H 0.2962 0.04801 0.49162 0.0
C891 C 0.24188 0.15268 0.50495 0.0
H892 H 0.22744 0.0481 0.50915 0.0
C893 C 0.28195 0.15263 0.49579 0.0
C894 C 0.30227 0.11507 0.49077 0.0
H895 H 0.22724 0.18222 0.50857 0.0
H896 H 0.29664 0.18214 0.49217 0.0
C897 C 0.2816 0.07749 0.49543 0.0
C898 C 0.69611 0.49166 0.25538 0.0
C899 C 0.65845 0.47101 0.26002 0.0
H900 H 0.72558 0.54575 0.2417 0.0
C901 C 0.62081 0.49131 0.25499 0.0
H902 H 0.72565 0.47709 0.25918 0.0
C903 C 0.62077 0.53133 0.24586 0.0
C904 C 0.65837 0.5517 0.24085 0.0
H905 H 0.59124 0.47663 0.2586 0.0
H906 H 0.59117 0.54595 0.24225 0.0
C907 C 0.69607 0.53112 0.2455 0.0
C908 C 0.24231 0.9446 0.99546 0.0
C909 C 0.22174 0.90696 0.9908 0.0
H910 H 0.29639 0.97414 0.00917 0.0
C911 C 0.24216 0.86946 0.99585 0.0
H912 H 0.22763 0.97403 0.99164 0.0
C913 C 0.28222 0.86952 0.00501 0.0
C914 C 0.30252 0.90709 0.01003 0.0
H915 H 0.22754 0.83991 0.99223 0.0
H916 H 0.29694 0.84001 0.00863 0.0
C917 C 0.28181 0.94466 0.00537 0.0
C918 C 0.82871 0.49135 0.74546 0.0
C919 C 0.86639 0.47073 0.74081 0.0
H920 H 0.79919 0.5454 0.75914 0.0
C921 C 0.90401 0.49107 0.74581 0.0
H922 H 0.79919 0.47674 0.74168 0.0
C923 C 0.90401 0.53108 0.75494 0.0
C924 C 0.86639 0.55142 0.75997 0.0
H925 H 0.9336 0.47642 0.7422 0.0
H926 H 0.9336 0.54573 0.75854 0.0
C927 C 0.82871 0.5308 0.75534 0.0
C928 C 0.11583 0.42019 0.11583 0.0
C929 C 0.14128 0.39481 0.1029 0.0
H930 H 0.09817 0.4378 0.1477 0.0
C931 C 0.16913 0.36715 0.11271 0.0
H932 H 0.09405 0.44194 0.10874 0.0
C933 C 0.17163 0.36507 0.13503 0.0
C934 C 0.14613 0.3904 0.14796 0.0
H935 H 0.18914 0.3473 0.10317 0.0
H936 H 0.19365 0.34356 0.14212 0.0
C937 C 0.11813 0.41791 0.13816 0.0
C938 C 0.85535 0.86728 0.3881 0.0
C939 C 0.88307 0.89504 0.39792 0.0
H940 H 0.83104 0.84352 0.35869 0.0
C941 C 0.90852 0.92043 0.38498 0.0
H942 H 0.83535 0.84742 0.39764 0.0
C943 C 0.90634 0.91804 0.36266 0.0
C944 C 0.87846 0.89045 0.35285 0.0
H945 H 0.9302 0.94225 0.39208 0.0
H946 H 0.92629 0.93795 0.35312 0.0
C947 C 0.85296 0.86511 0.36578 0.0
C948 C 0.40647 0.60435 0.63818 0.0
C949 C 0.37864 0.63202 0.64799 0.0
H950 H 0.43025 0.58006 0.60876 0.0
C951 C 0.35316 0.65739 0.63506 0.0
H952 H 0.4264 0.58442 0.64772 0.0
C953 C 0.35551 0.65518 0.61274 0.0
C954 C 0.38317 0.62735 0.60293 0.0
H955 H 0.33128 0.67902 0.64216 0.0
H956 H 0.33552 0.67506 0.6032 0.0
C957 C 0.40861 0.60194 0.61586 0.0
C958 C 0.67156 0.15729 0.86584 0.0
C959 C 0.64608 0.13198 0.85288 0.0
H960 H 0.68905 0.17497 0.89771 0.0
C961 C 0.61812 0.10443 0.86267 0.0
H962 H 0.69354 0.17884 0.85876 0.0
C963 C 0.61583 0.10206 0.88499 0.0
C964 C 0.64126 0.12742 0.89794 0.0
H965 H 0.59818 0.08454 0.85311 0.0
H966 H 0.59409 0.08027 0.89207 0.0
C967 C 0.66907 0.15513 0.88815 0.0
C968 C 0.11788 0.60459 0.36264 0.0
C969 C 0.14581 0.63218 0.35286 0.0
H970 H 0.09389 0.5804 0.39205 0.0
C971 C 0.17126 0.65751 0.36581 0.0
H972 H 0.09797 0.58468 0.35309 0.0
C973 C 0.16878 0.65535 0.38813 0.0
C974 C 0.14101 0.6276 0.39792 0.0
H975 H 0.19322 0.67909 0.35873 0.0
H976 H 0.18875 0.6752 0.39768 0.0
C977 C 0.11561 0.60222 0.38496 0.0
C978 C 0.67139 0.86495 0.63504 0.0
C979 C 0.64591 0.89027 0.64799 0.0
H980 H 0.68887 0.84724 0.60317 0.0
C981 C 0.6179 0.9178 0.6382 0.0
H982 H 0.6934 0.84342 0.64212 0.0
C983 C 0.61559 0.92013 0.61588 0.0
C984 C 0.64103 0.89476 0.60293 0.0
H985 H 0.59796 0.93769 0.64775 0.0
H986 H 0.59382 0.9419 0.60879 0.0
C987 C 0.66887 0.86707 0.61272 0.0
C988 C 0.3532 0.36488 0.86579 0.0
C989 C 0.37866 0.39023 0.85284 0.0
H990 H 0.33564 0.34721 0.89766 0.0
C991 C 0.40652 0.41787 0.86264 0.0
H992 H 0.3313 0.34327 0.8587 0.0
C993 C 0.40872 0.42028 0.88496 0.0
C994 C 0.38331 0.39488 0.89791 0.0
H995 H 0.42644 0.43779 0.85309 0.0
H996 H 0.43039 0.44213 0.89205 0.0
C997 C 0.35561 0.36708 0.88811 0.0
C998 C 0.85332 0.1575 0.13501 0.0
C999 C 0.87878 0.13215 0.14796 0.0
H1000 H 0.83572 0.17512 0.10313 0.0
C1001 C 0.90662 0.10447 0.13817 0.0
H1002 H 0.83143 0.17915 0.14209 0.0
C1003 C 0.90878 0.10201 0.11585 0.0
C1004 C 0.88336 0.1274 0.1029 0.0
H1005 H 0.92653 0.08455 0.14772 0.0
H1006 H 0.93043 0.08012 0.10877 0.0
C1007 C 0.85569 0.15525 0.11269 0.0
C1008 C 0.85316 0.65722 0.86577 0.0
C1009 C 0.87864 0.63186 0.85284 0.0
H1010 H 0.83556 0.67488 0.89763 0.0
C1011 C 0.90649 0.60421 0.86264 0.0
H1012 H 0.83126 0.67884 0.85868 0.0
C1013 C 0.90866 0.60179 0.88497 0.0
C1014 C 0.88323 0.6272 0.8979 0.0
H1015 H 0.92642 0.58428 0.8531 0.0
H1016 H 0.93032 0.57992 0.89206 0.0
C1017 C 0.85554 0.65501 0.88809 0.0
C1018 C 0.16887 0.1552 0.61266 0.0
C1019 C 0.14101 0.12753 0.60289 0.0
H1020 H 0.19344 0.17883 0.64205 0.0
C1021 C 0.11559 0.10218 0.61585 0.0
H1022 H 0.18886 0.17502 0.6031 0.0
C1023 C 0.11793 0.1045 0.63817 0.0
C1024 C 0.14595 0.13201 0.64794 0.0
H1025 H 0.0938 0.08043 0.60877 0.0
H1026 H 0.09799 0.08463 0.64773 0.0
C1027 C 0.17142 0.15731 0.63498 0.0
C1028 C 0.61551 0.42006 0.38498 0.0
C1029 C 0.64098 0.39474 0.39794 0.0
H1030 H 0.59792 0.43765 0.35311 0.0
C1031 C 0.66891 0.36713 0.38816 0.0
H1032 H 0.59367 0.44177 0.39206 0.0
C1033 C 0.6715 0.36507 0.36584 0.0
C1034 C 0.64599 0.39035 0.35289 0.0
H1035 H 0.68894 0.34732 0.39772 0.0
H1036 H 0.69358 0.3436 0.35877 0.0
C1037 C 0.61789 0.41779 0.36267 0.0
C1038 C 0.35547 0.86723 0.11273 0.0
C1039 C 0.3832 0.89499 0.10292 0.0
H1040 H 0.33111 0.84351 0.14215 0.0
C1041 C 0.40862 0.92039 0.11585 0.0
H1042 H 0.33548 0.84737 0.10319 0.0
C1043 C 0.40641 0.91803 0.13817 0.0
C1044 C 0.37851 0.89044 0.14798 0.0
H1045 H 0.43032 0.94221 0.10875 0.0
H1046 H 0.42634 0.93795 0.14771 0.0
C1047 C 0.35304 0.86509 0.13505 0.0
C1048 C 0.90635 0.41797 0.63813 0.0
C1049 C 0.87854 0.3903 0.64794 0.0
H1050 H 0.93012 0.44228 0.60871 0.0
C1051 C 0.85307 0.36494 0.63501 0.0
H1052 H 0.92627 0.4379 0.64767 0.0
C1053 C 0.85541 0.36716 0.61269 0.0
C1054 C 0.88307 0.39499 0.60288 0.0
H1055 H 0.8312 0.3433 0.64211 0.0
H1056 H 0.83544 0.34729 0.60316 0.0
C1057 C 0.90849 0.4204 0.61581 0.0
C1058 C 0.35323 0.15749 0.36576 0.0
C1059 C 0.37868 0.1321 0.35283 0.0
H1060 H 0.33557 0.17513 0.39762 0.0
C1061 C 0.40643 0.10435 0.36265 0.0
H1062 H 0.33141 0.17919 0.35866 0.0
C1063 C 0.40853 0.10188 0.38497 0.0
C1064 C 0.38312 0.12732 0.3979 0.0
H1065 H 0.42634 0.0844 0.35311 0.0
H1066 H 0.43011 0.07994 0.39207 0.0
C1067 C 0.35553 0.15523 0.38808 0.0
C1068 C 0.61794 0.60458 0.13819 0.0
C1069 C 0.64586 0.63218 0.14797 0.0
H1070 H 0.59398 0.58035 0.10879 0.0
C1071 C 0.67133 0.65749 0.13501 0.0
H1072 H 0.59801 0.58469 0.14775 0.0
C1073 C 0.66888 0.65529 0.11269 0.0
C1074 C 0.64112 0.62753 0.10291 0.0
H1075 H 0.69328 0.67907 0.14209 0.0
H1076 H 0.68886 0.67512 0.10313 0.0
C1077 C 0.61569 0.60217 0.11587 0.0
C1078 C 0.11794 0.91768 0.86266 0.0
C1079 C 0.14592 0.89015 0.85286 0.0
H1080 H 0.0939 0.94177 0.89207 0.0
C1081 C 0.17142 0.86482 0.86581 0.0
H1082 H 0.09798 0.93757 0.85311 0.0
C1083 C 0.16893 0.86693 0.88813 0.0
C1084 C 0.14112 0.89463 0.89792 0.0
H1085 H 0.19342 0.84329 0.85872 0.0
H1086 H 0.18894 0.84709 0.89767 0.0
C1087 C 0.11566 0.92 0.88498 0.0
loop_
_geom_bond_atom_site_label_1
_geom_bond_atom_site_label_2
_geom_bond_distance
_geom_bond_site_symmetry_2
_ccdc_geom_bond_type
Co0 O1 2.216 . S
Co0 O2 2.091 . S
Co0 O4 2.004 . S
Co0 O10 2.021 . S
Co0 O12 2.137 . S
Co0 O13 2.244 . S
O1 Co0 2.216 . S
O1 C8 1.247 . S
O2 Co0 2.091 . S
O2 C8 1.261 . S
C3 O12 1.247 . S
C3 O13 1.272 . S
O4 Co0 2.004 . S
O4 C9 1.259 . S
Co5 O6 2.061 . S
Co5 O11 2.052 . S
Co5 O13 2.135 . S
O6 Co5 2.061 . S
O6 C9 1.235 . S
C7 O10 1.238 . S
C7 O11 1.241 . S
C8 O1 1.247 . S
C8 O2 1.261 . S
C9 O4 1.259 . S
C9 O6 1.235 . S
O10 Co0 2.021 . S
O10 C7 1.238 . S
O11 Co5 2.052 . S
O11 C7 1.241 . S
O12 Co0 2.137 . S
O12 C3 1.247 . S
O13 Co0 2.244 . S
O13 C3 1.272 . S
O13 Co5 2.135 . S
Co14 O15 2.216 . S
Co14 O16 2.091 . S
Co14 O18 2.004 . S
Co14 O24 2.021 . S
Co14 O26 2.137 . S
Co14 O27 2.244 . S
O15 Co14 2.216 . S
O15 C22 1.247 . S
O16 Co14 2.091 . S
O16 C22 1.261 . S
C17 O26 1.247 . S
C17 O27 1.272 . S
O18 Co14 2.004 . S
O18 C23 1.259 . S
Co19 O20 2.061 . S
Co19 O25 2.052 . S
Co19 O27 2.135 . S
O20 Co19 2.061 . S
O20 C23 1.235 . S
C21 O24 1.238 . S
C21 O25 1.241 . S
C22 O15 1.247 . S
C22 O16 1.261 . S
C23 O18 1.259 . S
C23 O20 1.235 . S
O24 Co14 2.021 . S
O24 C21 1.238 . S
O25 Co19 2.052 . S
O25 C21 1.241 . S
O26 Co14 2.137 . S
O26 C17 1.247 . S
O27 Co14 2.244 . S
O27 C17 1.272 . S
O27 Co19 2.135 . S
Co28 O29 2.216 . S
Co28 O30 2.091 . S
Co28 O32 2.004 . S
Co28 O38 2.021 . S
Co28 O40 2.137 . S
Co28 O41 2.244 . S
O29 Co28 2.216 . S
O29 C36 1.247 . S
O30 Co28 2.091 . S
O30 C36 1.261 . S
C31 O40 1.247 . S
C31 O41 1.272 . S
O32 Co28 2.004 . S
O32 C37 1.259 . S
Co33 O34 2.061 . S
Co33 O39 2.052 . S
Co33 O41 2.135 . S
O34 Co33 2.061 . S
O34 C37 1.235 . S
C35 O38 1.238 . S
C35 O39 1.241 . S
C36 O29 1.247 . S
C36 O30 1.261 . S
C37 O32 1.259 . S
C37 O34 1.235 . S
O38 Co28 2.021 . S
O38 C35 1.238 . S
O39 Co33 2.052 . S
O39 C35 1.241 . S
O40 Co28 2.137 . S
O40 C31 1.247 . S
O41 Co28 2.244 . S
O41 C31 1.272 . S
O41 Co33 2.135 . S
Co42 O43 2.216 . S
Co42 O44 2.091 . S
Co42 O46 2.004 . S
Co42 O52 2.021 . S
Co42 O54 2.137 . S
Co42 O55 2.244 . S
O43 Co42 2.216 . S
O43 C50 1.247 . S
O44 Co42 2.091 . S
O44 C50 1.261 . S
C45 O54 1.247 . S
C45 O55 1.272 . S
O46 Co42 2.004 . S
O46 C51 1.259 . S
Co47 O48 2.061 . S
Co47 O53 2.052 . S
Co47 O55 2.135 . S
O48 Co47 2.061 . S
O48 C51 1.235 . S
C49 O52 1.238 . S
C49 O53 1.241 . S
C50 O43 1.247 . S
C50 O44 1.261 . S
C51 O46 1.259 . S
C51 O48 1.235 . S
O52 Co42 2.021 . S
O52 C49 1.238 . S
O53 Co47 2.052 . S
O53 C49 1.241 . S
O54 Co42 2.137 . S
O54 C45 1.247 . S
O55 Co42 2.244 . S
O55 C45 1.272 . S
O55 Co47 2.135 . S
Co56 O57 2.216 . S
Co56 O58 2.091 . S
Co56 O60 2.004 . S
Co56 O66 2.021 . S
Co56 O68 2.137 . S
Co56 O69 2.244 . S
O57 Co56 2.216 . S
O57 C64 1.247 . S
O58 Co56 2.091 . S
O58 C64 1.261 . S
C59 O68 1.247 . S
C59 O69 1.272 . S
O60 Co56 2.004 . S
O60 C65 1.259 . S
Co61 O62 2.061 . S
Co61 O67 2.052 . S
Co61 O69 2.135 . S
O62 Co61 2.061 . S
O62 C65 1.235 . S
C63 O66 1.238 . S
C63 O67 1.241 . S
C64 O57 1.247 . S
C64 O58 1.261 . S
C65 O60 1.259 . S
C65 O62 1.235 . S
O66 Co56 2.021 . S
O66 C63 1.238 . S
O67 Co61 2.052 . S
O67 C63 1.241 . S
O68 Co56 2.137 . S
O68 C59 1.247 . S
O69 Co56 2.244 . S
O69 C59 1.272 . S
O69 Co61 2.135 . S
Co70 O71 2.216 . S
Co70 O72 2.091 . S
Co70 O74 2.004 . S
Co70 O80 2.021 . S
Co70 O82 2.137 . S
Co70 O83 2.244 . S
O71 Co70 2.216 . S
O71 C78 1.247 . S
O72 Co70 2.091 . S
O72 C78 1.261 . S
C73 O82 1.247 . S
C73 O83 1.272 . S
O74 Co70 2.004 . S
O74 C79 1.259 . S
Co75 O76 2.061 . S
Co75 O81 2.052 . S
Co75 O83 2.135 . S
O76 Co75 2.061 . S
O76 C79 1.235 . S
C77 O80 1.238 . S
C77 O81 1.241 . S
C78 O71 1.247 . S
C78 O72 1.261 . S
C79 O74 1.259 . S
C79 O76 1.235 . S
O80 Co70 2.021 . S
O80 C77 1.238 . S
O81 Co75 2.052 . S
O81 C77 1.241 . S
O82 Co70 2.137 . S
O82 C73 1.247 . S
O83 Co70 2.244 . S
O83 C73 1.272 . S
O83 Co75 2.135 . S
Co84 O85 2.216 . S
Co84 O86 2.091 . S
Co84 O88 2.004 . S
Co84 O94 2.021 . S
Co84 O96 2.137 . S
Co84 O97 2.244 . S
O85 Co84 2.216 . S
O85 C92 1.247 . S
O86 Co84 2.091 . S
O86 C92 1.261 . S
C87 O96 1.247 . S
C87 O97 1.272 . S
O88 Co84 2.004 . S
O88 C93 1.259 . S
Co89 O90 2.061 . S
Co89 O95 2.052 . S
Co89 O97 2.135 . S
O90 Co89 2.061 . S
O90 C93 1.235 . S
C91 O94 1.238 . S
C91 O95 1.241 . S
C92 O85 1.247 . S
C92 O86 1.261 . S
C93 O88 1.259 . S
C93 O90 1.235 . S
O94 Co84 2.021 . S
O94 C91 1.238 . S
O95 Co89 2.052 . S
O95 C91 1.241 . S
O96 Co84 2.137 . S
O96 C87 1.247 . S
O97 Co84 2.244 . S
O97 C87 1.272 . S
O97 Co89 2.135 . S
Co98 O99 2.216 . S
Co98 O100 2.091 . S
Co98 O102 2.004 . S
Co98 O108 2.021 . S
Co98 O110 2.137 . S
Co98 O111 2.244 . S
O99 Co98 2.216 . S
O99 C106 1.247 . S
O100 Co98 2.091 . S
O100 C106 1.261 . S
C101 O110 1.247 . S
C101 O111 1.272 . S
O102 Co98 2.004 . S
O102 C107 1.259 . S
Co103 O104 2.061 . S
Co103 O109 2.052 . S
Co103 O111 2.135 . S
O104 Co103 2.061 . S
O104 C107 1.235 . S
C105 O108 1.238 . S
C105 O109 1.241 . S
C106 O99 1.247 . S
C106 O100 1.261 . S
C107 O102 1.259 . S
C107 O104 1.235 . S
O108 Co98 2.021 . S
O108 C105 1.238 . S
O109 Co103 2.052 . S
O109 C105 1.241 . S
O110 Co98 2.137 . S
O110 C101 1.247 . S
O111 Co98 2.244 . S
O111 C101 1.272 . S
O111 Co103 2.135 . S
Co112 O113 2.216 . S
Co112 O114 2.091 . S
Co112 O116 2.004 . S
Co112 O122 2.021 . S
Co112 O124 2.137 . S
Co112 O125 2.244 . S
O113 Co112 2.216 . S
O113 C120 1.247 . S
O114 Co112 2.091 . S
O114 C120 1.261 . S
C115 O124 1.247 . S
C115 O125 1.272 . S
O116 Co112 2.004 . S
O116 C121 1.259 . S
Co117 O118 2.061 . S
Co117 O123 2.052 . S
Co117 O125 2.135 . S
O118 Co117 2.061 . S
O118 C121 1.235 . S
C119 O122 1.238 . S
C119 O123 1.241 . S
C120 O113 1.247 . S
C120 O114 1.261 . S
C121 O116 1.259 . S
C121 O118 1.235 . S
O122 Co112 2.021 . S
O122 C119 1.238 . S
O123 Co117 2.052 . S
O123 C119 1.241 . S
O124 Co112 2.137 . S
O124 C115 1.247 . S
O125 Co112 2.244 . S
O125 C115 1.272 . S
O125 Co117 2.135 . S
Co126 O127 2.216 . S
Co126 O128 2.091 . S
Co126 O130 2.004 . S
Co126 O136 2.021 . S
Co126 O138 2.137 . S
Co126 O139 2.244 . S
O127 Co126 2.216 . S
O127 C134 1.247 . S
O128 Co126 2.091 . S
O128 C134 1.261 . S
C129 O138 1.247 . S
C129 O139 1.272 . S
O130 Co126 2.004 . S
O130 C135 1.259 . S
Co131 O132 2.061 . S
Co131 O137 2.052 . S
Co131 O139 2.135 . S
O132 Co131 2.061 . S
O132 C135 1.235 . S
C133 O136 1.238 . S
C133 O137 1.241 . S
C134 O127 1.247 . S
C134 O128 1.261 . S
C135 O130 1.259 . S
C135 O132 1.235 . S
O136 Co126 2.021 . S
O136 C133 1.238 . S
O137 Co131 2.052 . S
O137 C133 1.241 . S
O138 Co126 2.137 . S
O138 C129 1.247 . S
O139 Co126 2.244 . S
O139 C129 1.272 . S
O139 Co131 2.135 . S
Co140 O141 2.216 . S
Co140 O142 2.091 . S
Co140 O144 2.004 . S
Co140 O150 2.021 . S
Co140 O152 2.137 . S
Co140 O153 2.244 . S
O141 Co140 2.216 . S
O141 C148 1.247 . S
O142 Co140 2.091 . S
O142 C148 1.261 . S
C143 O152 1.247 . S
C143 O153 1.272 . S
O144 Co140 2.004 . S
O144 C149 1.259 . S
Co145 O146 2.061 . S
Co145 O151 2.052 . S
Co145 O153 2.135 . S
O146 Co145 2.061 . S
O146 C149 1.235 . S
C147 O150 1.238 . S
C147 O151 1.241 . S
C148 O141 1.247 . S
C148 O142 1.261 . S
C149 O144 1.259 . S
C149 O146 1.235 . S
O150 Co140 2.021 . S
O150 C147 1.238 . S
O151 Co145 2.052 . S
O151 C147 1.241 . S
O152 Co140 2.137 . S
O152 C143 1.247 . S
O153 Co140 2.244 . S
O153 C143 1.272 . S
O153 Co145 2.135 . S
Co154 O155 2.216 . S
Co154 O156 2.091 . S
Co154 O158 2.004 . S
Co154 O164 2.021 . S
Co154 O166 2.137 . S
Co154 O167 2.244 . S
O155 Co154 2.216 . S
O155 C162 1.247 . S
O156 Co154 2.091 . S
O156 C162 1.261 . S
C157 O166 1.247 . S
C157 O167 1.272 . S
O158 Co154 2.004 . S
O158 C163 1.259 . S
Co159 O160 2.061 . S
Co159 O165 2.052 . S
Co159 O167 2.135 . S
O160 Co159 2.061 . S
O160 C163 1.235 . S
C161 O164 1.238 . S
C161 O165 1.241 . S
C162 O155 1.247 . S
C162 O156 1.261 . S
C163 O158 1.259 . S
C163 O160 1.235 . S
O164 Co154 2.021 . S
O164 C161 1.238 . S
O165 Co159 2.052 . S
O165 C161 1.241 . S
O166 Co154 2.137 . S
O166 C157 1.247 . S
O167 Co154 2.244 . S
O167 C157 1.272 . S
O167 Co159 2.135 . S
Co168 O169 2.216 . S
Co168 O170 2.091 . S
Co168 O172 2.004 . S
Co168 O178 2.021 . S
Co168 O180 2.137 . S
Co168 O181 2.244 . S
O169 Co168 2.216 . S
O169 C176 1.247 . S
O170 Co168 2.091 . S
O170 C176 1.261 . S
C171 O180 1.247 . S
C171 O181 1.272 . S
O172 Co168 2.004 . S
O172 C177 1.259 . S
Co173 O174 2.061 . S
Co173 O179 2.052 . S
Co173 O181 2.135 . S
O174 Co173 2.061 . S
O174 C177 1.235 . S
C175 O178 1.238 . S
C175 O179 1.241 . S
C176 O169 1.247 . S
C176 O170 1.261 . S
C177 O172 1.259 . S
C177 O174 1.235 . S
O178 Co168 2.021 . S
O178 C175 1.238 . S
O179 Co173 2.052 . S
O179 C175 1.241 . S
O180 Co168 2.137 . S
O180 C171 1.247 . S
O181 Co168 2.244 . S
O181 C171 1.272 . S
O181 Co173 2.135 . S
Co182 O183 2.216 . S
Co182 O184 2.091 . S
Co182 O186 2.004 . S
Co182 O192 2.021 . S
Co182 O194 2.137 . S
Co182 O195 2.244 . S
O183 Co182 2.216 . S
O183 C190 1.247 . S
O184 Co182 2.091 . S
O184 C190 1.261 . S
C185 O194 1.247 . S
C185 O195 1.272 . S
O186 Co182 2.004 . S
O186 C191 1.259 . S
Co187 O188 2.061 . S
Co187 O193 2.052 . S
Co187 O195 2.135 . S
O188 Co187 2.061 . S
O188 C191 1.235 . S
C189 O192 1.238 . S
C189 O193 1.241 . S
C190 O183 1.247 . S
C190 O184 1.261 . S
C191 O186 1.259 . S
C191 O188 1.235 . S
O192 Co182 2.021 . S
O192 C189 1.238 . S
O193 Co187 2.052 . S
O193 C189 1.241 . S
O194 Co182 2.137 . S
O194 C185 1.247 . S
O195 Co182 2.244 . S
O195 C185 1.272 . S
O195 Co187 2.135 . S
Co196 O197 2.216 . S
Co196 O198 2.091 . S
Co196 O200 2.004 . S
Co196 O206 2.021 . S
Co196 O208 2.137 . S
Co196 O209 2.244 . S
O197 Co196 2.216 . S
O197 C204 1.247 . S
O198 Co196 2.091 . S
O198 C204 1.261 . S
C199 O208 1.247 . S
C199 O209 1.272 . S
O200 Co196 2.004 . S
O200 C205 1.259 . S
Co201 O202 2.061 . S
Co201 O207 2.052 . S
Co201 O209 2.135 . S
O202 Co201 2.061 . S
O202 C205 1.235 . S
C203 O206 1.238 . S
C203 O207 1.241 . S
C204 O197 1.247 . S
C204 O198 1.261 . S
C205 O200 1.259 . S
C205 O202 1.235 . S
O206 Co196 2.021 . S
O206 C203 1.238 . S
O207 Co201 2.052 . S
O207 C203 1.241 . S
O208 Co196 2.137 . S
O208 C199 1.247 . S
O209 Co196 2.244 . S
O209 C199 1.272 . S
O209 Co201 2.135 . S
Co210 O211 2.216 . S
Co210 O212 2.091 . S
Co210 O214 2.004 . S
Co210 O220 2.021 . S
Co210 O222 2.137 . S
Co210 O223 2.244 . S
O211 Co210 2.216 . S
O211 C218 1.247 . S
O212 Co210 2.091 . S
O212 C218 1.261 . S
C213 O222 1.247 . S
C213 O223 1.272 . S
O214 Co210 2.004 . S
O214 C219 1.259 . S
Co215 O216 2.061 . S
Co215 O221 2.052 . S
Co215 O223 2.135 . S
O216 Co215 2.061 . S
O216 C219 1.235 . S
C217 O220 1.238 . S
C217 O221 1.241 . S
C218 O211 1.247 . S
C218 O212 1.261 . S
C219 O214 1.259 . S
C219 O216 1.235 . S
O220 Co210 2.021 . S
O220 C217 1.238 . S
O221 Co215 2.052 . S
O221 C217 1.241 . S
O222 Co210 2.137 . S
O222 C213 1.247 . S
O223 Co210 2.244 . S
O223 C213 1.272 . S
O223 Co215 2.135 . S
Co224 O225 2.216 . S
Co224 O226 2.091 . S
Co224 O228 2.004 . S
Co224 O234 2.021 . S
Co224 O236 2.137 . S
Co224 O237 2.244 . S
O225 Co224 2.216 . S
O225 C232 1.247 . S
O226 Co224 2.091 . S
O226 C232 1.261 . S
C227 O236 1.247 . S
C227 O237 1.272 . S
O228 Co224 2.004 . S
O228 C233 1.259 . S
Co229 O230 2.061 . S
Co229 O235 2.052 . S
Co229 O237 2.135 . S
O230 Co229 2.061 . S
O230 C233 1.235 . S
C231 O234 1.238 . S
C231 O235 1.241 . S
C232 O225 1.247 . S
C232 O226 1.261 . S
C233 O228 1.259 . S
C233 O230 1.235 . S
O234 Co224 2.021 . S
O234 C231 1.238 . S
O235 Co229 2.052 . S
O235 C231 1.241 . S
O236 Co224 2.137 . S
O236 C227 1.247 . S
O237 Co224 2.244 . S
O237 C227 1.272 . S
O237 Co229 2.135 . S
Co238 O239 2.216 . S
Co238 O240 2.091 . S
Co238 O242 2.004 . S
Co238 O248 2.021 . S
Co238 O250 2.137 . S
Co238 O251 2.244 . S
O239 Co238 2.216 . S
O239 C246 1.247 . S
O240 Co238 2.091 . S
O240 C246 1.261 . S
C241 O250 1.247 . S
C241 O251 1.272 . S
O242 Co238 2.004 . S
O242 C247 1.259 . S
Co243 O244 2.061 . S
Co243 O249 2.052 . S
Co243 O251 2.135 . S
O244 Co243 2.061 . S
O244 C247 1.235 . S
C245 O248 1.238 . S
C245 O249 1.241 . S
C246 O239 1.247 . S
C246 O240 1.261 . S
C247 O242 1.259 . S
C247 O244 1.235 . S
O248 Co238 2.021 . S
O248 C245 1.238 . S
O249 Co243 2.052 . S
O249 C245 1.241 . S
O250 Co238 2.137 . S
O250 C241 1.247 . S
O251 Co238 2.244 . S
O251 C241 1.272 . S
O251 Co243 2.135 . S
Co252 O253 2.216 . S
Co252 O254 2.091 . S
Co252 O256 2.004 . S
Co252 O262 2.021 . S
Co252 O264 2.137 . S
Co252 O265 2.244 . S
O253 Co252 2.216 . S
O253 C260 1.247 . S
O254 Co252 2.091 . S
O254 C260 1.261 . S
C255 O264 1.247 . S
C255 O265 1.272 . S
O256 Co252 2.004 . S
O256 C261 1.259 . S
Co257 O258 2.061 . S
Co257 O263 2.052 . S
Co257 O265 2.135 . S
O258 Co257 2.061 . S
O258 C261 1.235 . S
C259 O262 1.238 . S
C259 O263 1.241 . S
C260 O253 1.247 . S
C260 O254 1.261 . S
C261 O256 1.259 . S
C261 O258 1.235 . S
O262 Co252 2.021 . S
O262 C259 1.238 . S
O263 Co257 2.052 . S
O263 C259 1.241 . S
O264 Co252 2.137 . S
O264 C255 1.247 . S
O265 Co252 2.244 . S
O265 C255 1.272 . S
O265 Co257 2.135 . S
Co266 O267 2.216 . S
Co266 O268 2.091 . S
Co266 O270 2.004 . S
Co266 O276 2.021 . S
Co266 O278 2.137 . S
Co266 O279 2.244 . S
O267 Co266 2.216 . S
O267 C274 1.247 . S
O268 Co266 2.091 . S
O268 C274 1.261 . S
C269 O278 1.247 . S
C269 O279 1.272 . S
O270 Co266 2.004 . S
O270 C275 1.259 . S
Co271 O272 2.061 . S
Co271 O277 2.052 . S
Co271 O279 2.135 . S
O272 Co271 2.061 . S
O272 C275 1.235 . S
C273 O276 1.238 . S
C273 O277 1.241 . S
C274 O267 1.247 . S
C274 O268 1.261 . S
C275 O270 1.259 . S
C275 O272 1.235 . S
O276 Co266 2.021 . S
O276 C273 1.238 . S
O277 Co271 2.052 . S
O277 C273 1.241 . S
O278 Co266 2.137 . S
O278 C269 1.247 . S
O279 Co266 2.244 . S
O279 C269 1.272 . S
O279 Co271 2.135 . S
Co280 O281 2.216 . S
Co280 O282 2.091 . S
Co280 O284 2.004 . S
Co280 O290 2.021 . S
Co280 O292 2.137 . S
Co280 O293 2.244 . S
O281 Co280 2.216 . S
O281 C288 1.247 . S
O282 Co280 2.091 . S
O282 C288 1.261 . S
C283 O292 1.247 . S
C283 O293 1.272 . S
O284 Co280 2.004 . S
O284 C289 1.259 . S
Co285 O286 2.061 . S
Co285 O291 2.052 . S
Co285 O293 2.135 . S
O286 Co285 2.061 . S
O286 C289 1.235 . S
C287 O290 1.238 . S
C287 O291 1.241 . S
C288 O281 1.247 . S
C288 O282 1.261 . S
C289 O284 1.259 . S
C289 O286 1.235 . S
O290 Co280 2.021 . S
O290 C287 1.238 . S
O291 Co285 2.052 . S
O291 C287 1.241 . S
O292 Co280 2.137 . S
O292 C283 1.247 . S
O293 Co280 2.244 . S
O293 C283 1.272 . S
O293 Co285 2.135 . S
Co294 O295 2.216 . S
Co294 O296 2.091 . S
Co294 O298 2.004 . S
Co294 O304 2.021 . S
Co294 O306 2.137 . S
Co294 O307 2.244 . S
O295 Co294 2.216 . S
O295 C302 1.247 . S
O296 Co294 2.091 . S
O296 C302 1.261 . S
C297 O306 1.247 . S
C297 O307 1.272 . S
O298 Co294 2.004 . S
O298 C303 1.259 . S
Co299 O300 2.061 . S
Co299 O305 2.052 . S
Co299 O307 2.135 . S
O300 Co299 2.061 . S
O300 C303 1.235 . S
C301 O304 1.238 . S
C301 O305 1.241 . S
C302 O295 1.247 . S
C302 O296 1.261 . S
C303 O298 1.259 . S
C303 O300 1.235 . S
O304 Co294 2.021 . S
O304 C301 1.238 . S
O305 Co299 2.052 . S
O305 C301 1.241 . S
O306 Co294 2.137 . S
O306 C297 1.247 . S
O307 Co294 2.244 . S
O307 C297 1.272 . S
O307 Co299 2.135 . S
Co308 O309 2.216 . S
Co308 O310 2.091 . S
Co308 O312 2.004 . S
Co308 O318 2.021 . S
Co308 O320 2.137 . S
Co308 O321 2.244 . S
O309 Co308 2.216 . S
O309 C316 1.247 . S
O310 Co308 2.091 . S
O310 C316 1.261 . S
C311 O320 1.247 . S
C311 O321 1.272 . S
O312 Co308 2.004 . S
O312 C317 1.259 . S
Co313 O314 2.061 . S
Co313 O319 2.052 . S
Co313 O321 2.135 . S
O314 Co313 2.061 . S
O314 C317 1.235 . S
C315 O318 1.238 . S
C315 O319 1.241 . S
C316 O309 1.247 . S
C316 O310 1.261 . S
C317 O312 1.259 . S
C317 O314 1.235 . S
O318 Co308 2.021 . S
O318 C315 1.238 . S
O319 Co313 2.052 . S
O319 C315 1.241 . S
O320 Co308 2.137 . S
O320 C311 1.247 . S
O321 Co308 2.244 . S
O321 C311 1.272 . S
O321 Co313 2.135 . S
Co322 O323 2.216 . S
Co322 O324 2.091 . S
Co322 O326 2.004 . S
Co322 O332 2.021 . S
Co322 O334 2.137 . S
Co322 O335 2.244 . S
O323 Co322 2.216 . S
O323 C330 1.247 . S
O324 Co322 2.091 . S
O324 C330 1.261 . S
C325 O334 1.247 . S
C325 O335 1.272 . S
O326 Co322 2.004 . S
O326 C331 1.259 . S
Co327 O328 2.061 . S
Co327 O333 2.052 . S
Co327 O335 2.135 . S
O328 Co327 2.061 . S
O328 C331 1.235 . S
C329 O332 1.238 . S
C329 O333 1.241 . S
C330 O323 1.247 . S
C330 O324 1.261 . S
C331 O326 1.259 . S
C331 O328 1.235 . S
O332 Co322 2.021 . S
O332 C329 1.238 . S
O333 Co327 2.052 . S
O333 C329 1.241 . S
O334 Co322 2.137 . S
O334 C325 1.247 . S
O335 Co322 2.244 . S
O335 C325 1.272 . S
O335 Co327 2.135 . S
Co336 O337 2.216 . S
Co336 O338 2.091 . S
Co336 O340 2.004 . S
Co336 O346 2.021 . S
Co336 O348 2.137 . S
Co336 O349 2.244 . S
O337 Co336 2.216 . S
O337 C344 1.247 . S
O338 Co336 2.091 . S
O338 C344 1.261 . S
C339 O348 1.247 . S
C339 O349 1.272 . S
O340 Co336 2.004 . S
O340 C345 1.259 . S
Co341 O342 2.061 . S
Co341 O347 2.052 . S
Co341 O349 2.135 . S
O342 Co341 2.061 . S
O342 C345 1.235 . S
C343 O346 1.238 . S
C343 O347 1.241 . S
C344 O337 1.247 . S
C344 O338 1.261 . S
C345 O340 1.259 . S
C345 O342 1.235 . S
O346 Co336 2.021 . S
O346 C343 1.238 . S
O347 Co341 2.052 . S
O347 C343 1.241 . S
O348 Co336 2.137 . S
O348 C339 1.247 . S
O349 Co336 2.244 . S
O349 C339 1.272 . S
O349 Co341 2.135 . S
Co350 O351 2.216 . S
Co350 O352 2.091 . S
Co350 O354 2.004 . S
Co350 O360 2.021 . S
Co350 O362 2.137 . S
Co350 O363 2.244 . S
O351 Co350 2.216 . S
O351 C358 1.247 . S
O352 Co350 2.091 . S
O352 C358 1.261 . S
C353 O362 1.247 . S
C353 O363 1.272 . S
O354 Co350 2.004 . S
O354 C359 1.259 . S
Co355 O356 2.061 . S
Co355 O361 2.052 . S
Co355 O363 2.135 . S
O356 Co355 2.061 . S
O356 C359 1.235 . S
C357 O360 1.238 . S
C357 O361 1.241 . S
C358 O351 1.247 . S
C358 O352 1.261 . S
C359 O354 1.259 . S
C359 O356 1.235 . S
O360 Co350 2.021 . S
O360 C357 1.238 . S
O361 Co355 2.052 . S
O361 C357 1.241 . S
O362 Co350 2.137 . S
O362 C353 1.247 . S
O363 Co350 2.244 . S
O363 C353 1.272 . S
O363 Co355 2.135 . S
Co364 O365 2.216 . S
Co364 O366 2.091 . S
Co364 O368 2.004 . S
Co364 O374 2.021 . S
Co364 O376 2.137 . S
Co364 O377 2.244 . S
O365 Co364 2.216 . S
O365 C372 1.247 . S
O366 Co364 2.091 . S
O366 C372 1.261 . S
C367 O376 1.247 . S
C367 O377 1.272 . S
O368 Co364 2.004 . S
O368 C373 1.259 . S
Co369 O370 2.061 . S
Co369 O375 2.052 . S
Co369 O377 2.135 . S
O370 Co369 2.061 . S
O370 C373 1.235 . S
C371 O374 1.238 . S
C371 O375 1.241 . S
C372 O365 1.247 . S
C372 O366 1.261 . S
C373 O368 1.259 . S
C373 O370 1.235 . S
O374 Co364 2.021 . S
O374 C371 1.238 . S
O375 Co369 2.052 . S
O375 C371 1.241 . S
O376 Co364 2.137 . S
O376 C367 1.247 . S
O377 Co364 2.244 . S
O377 C367 1.272 . S
O377 Co369 2.135 . S
Co378 O379 2.216 . S
Co378 O380 2.091 . S
Co378 O382 2.004 . S
Co378 O388 2.021 . S
Co378 O390 2.137 . S
Co378 O391 2.244 . S
O379 Co378 2.216 . S
O379 C386 1.247 . S
O380 Co378 2.091 . S
O380 C386 1.261 . S
C381 O390 1.247 . S
C381 O391 1.272 . S
O382 Co378 2.004 . S
O382 C387 1.259 . S
Co383 O384 2.061 . S
Co383 O389 2.052 . S
Co383 O391 2.135 . S
O384 Co383 2.061 . S
O384 C387 1.235 . S
C385 O388 1.238 . S
C385 O389 1.241 . S
C386 O379 1.247 . S
C386 O380 1.261 . S
C387 O382 1.259 . S
C387 O384 1.235 . S
O388 Co378 2.021 . S
O388 C385 1.238 . S
O389 Co383 2.052 . S
O389 C385 1.241 . S
O390 Co378 2.137 . S
O390 C381 1.247 . S
O391 Co378 2.244 . S
O391 C381 1.272 . S
O391 Co383 2.135 . S
Co392 O393 2.216 . S
Co392 O394 2.091 . S
Co392 O396 2.004 . S
Co392 O402 2.021 . S
Co392 O404 2.137 . S
Co392 O405 2.244 . S
O393 Co392 2.216 . S
O393 C400 1.247 . S
O394 Co392 2.091 . S
O394 C400 1.261 . S
C395 O404 1.247 . S
C395 O405 1.272 . S
O396 Co392 2.004 . S
O396 C401 1.259 . S
Co397 O398 2.061 . S
Co397 O403 2.052 . S
Co397 O405 2.135 . S
O398 Co397 2.061 . S
O398 C401 1.235 . S
C399 O402 1.238 . S
C399 O403 1.241 . S
C400 O393 1.247 . S
C400 O394 1.261 . S
C401 O396 1.259 . S
C401 O398 1.235 . S
O402 Co392 2.021 . S
O402 C399 1.238 . S
O403 Co397 2.052 . S
O403 C399 1.241 . S
O404 Co392 2.137 . S
O404 C395 1.247 . S
O405 Co392 2.244 . S
O405 C395 1.272 . S
O405 Co397 2.135 . S
Co406 O407 2.216 . S
Co406 O408 2.091 . S
Co406 O410 2.004 . S
Co406 O416 2.021 . S
Co406 O418 2.137 . S
Co406 O419 2.244 . S
O407 Co406 2.216 . S
O407 C414 1.247 . S
O408 Co406 2.091 . S
O408 C414 1.261 . S
C409 O418 1.247 . S
C409 O419 1.272 . S
O410 Co406 2.004 . S
O410 C415 1.259 . S
Co411 O412 2.061 . S
Co411 O417 2.052 . S
Co411 O419 2.135 . S
O412 Co411 2.061 . S
O412 C415 1.235 . S
C413 O416 1.238 . S
C413 O417 1.241 . S
C414 O407 1.247 . S
C414 O408 1.261 . S
C415 O410 1.259 . S
C415 O412 1.235 . S
O416 Co406 2.021 . S
O416 C413 1.238 . S
O417 Co411 2.052 . S
O417 C413 1.241 . S
O418 Co406 2.137 . S
O418 C409 1.247 . S
O419 Co406 2.244 . S
O419 C409 1.272 . S
O419 Co411 2.135 . S
Co420 O421 2.216 . S
Co420 O422 2.091 . S
Co420 O424 2.004 . S
Co420 O430 2.021 . S
Co420 O432 2.137 . S
Co420 O433 2.244 . S
O421 Co420 2.216 . S
O421 C428 1.247 . S
O422 Co420 2.091 . S
O422 C428 1.261 . S
C423 O432 1.247 . S
C423 O433 1.272 . S
O424 Co420 2.004 . S
O424 C429 1.259 . S
Co425 O426 2.061 . S
Co425 O431 2.052 . S
Co425 O433 2.135 . S
O426 Co425 2.061 . S
O426 C429 1.235 . S
C427 O430 1.238 . S
C427 O431 1.241 . S
C428 O421 1.247 . S
C428 O422 1.261 . S
C429 O424 1.259 . S
C429 O426 1.235 . S
O430 Co420 2.021 . S
O430 C427 1.238 . S
O431 Co425 2.052 . S
O431 C427 1.241 . S
O432 Co420 2.137 . S
O432 C423 1.247 . S
O433 Co420 2.244 . S
O433 C423 1.272 . S
O433 Co425 2.135 . S
Co434 O435 2.216 . S
Co434 O436 2.091 . S
Co434 O438 2.004 . S
Co434 O444 2.021 . S
Co434 O446 2.137 . S
Co434 O447 2.244 . S
O435 Co434 2.216 . S
O435 C442 1.247 . S
O436 Co434 2.091 . S
O436 C442 1.261 . S
C437 O446 1.247 . S
C437 O447 1.272 . S
O438 Co434 2.004 . S
O438 C443 1.259 . S
Co439 O440 2.061 . S
Co439 O445 2.052 . S
Co439 O447 2.135 . S
O440 Co439 2.061 . S
O440 C443 1.235 . S
C441 O444 1.238 . S
C441 O445 1.241 . S
C442 O435 1.247 . S
C442 O436 1.261 . S
C443 O438 1.259 . S
C443 O440 1.235 . S
O444 Co434 2.021 . S
O444 C441 1.238 . S
O445 Co439 2.052 . S
O445 C441 1.241 . S
O446 Co434 2.137 . S
O446 C437 1.247 . S
O447 Co434 2.244 . S
O447 C437 1.272 . S
O447 Co439 2.135 . S
C448 C449 1.387 . S
C448 H452 0.950 . S
C448 C457 1.390 1_655 S
C449 C448 1.387 . S
C449 C451 1.387 1_556 S
H450 C457 0.950 . S
C451 C449 1.387 1_554 S
C451 C453 1.390 1_655 S
C451 H455 0.950 . S
H452 C448 0.950 . S
C453 C451 1.390 1_455 S
C453 C454 1.387 . S
C453 H456 0.950 . S
C454 C453 1.387 . S
C454 C457 1.387 1_554 S
H455 C451 0.950 . S
H456 C453 0.950 . S
C457 C448 1.390 1_455 S
C457 H450 0.950 . S
C457 C454 1.387 1_556 S
C458 C459 1.387 . S
C458 H462 0.950 . S
C458 C467 1.390 . S
C459 C458 1.387 . S
C459 C461 1.387 . S
H460 C467 0.950 . S
C461 C459 1.387 . S
C461 C463 1.390 . S
C461 H465 0.950 . S
H462 C458 0.950 . S
C463 C461 1.390 . S
C463 C464 1.387 . S
C463 H466 0.950 . S
C464 C463 1.387 . S
C464 C467 1.387 . S
H465 C461 0.950 . S
H466 C463 0.950 . S
C467 C458 1.390 . S
C467 H460 0.950 . S
C467 C464 1.387 . S
C468 C469 1.387 . S
C468 H472 0.950 . S
C468 C477 1.390 . S
C469 C468 1.387 . S
C469 C471 1.387 . S
H470 C477 0.950 . S
C471 C469 1.387 . S
C471 C473 1.390 . S
C471 H475 0.950 . S
H472 C468 0.950 . S
C473 C471 1.390 . S
C473 C474 1.387 . S
C473 H476 0.950 . S
C474 C473 1.387 . S
C474 C477 1.387 . S
H475 C471 0.950 . S
H476 C473 0.950 . S
C477 C468 1.390 . S
C477 H470 0.950 . S
C477 C474 1.387 . S
C478 C479 1.387 . S
C478 H482 0.950 . S
C478 C487 1.390 . S
C479 C478 1.387 . S
C479 C481 1.387 . S
H480 C487 0.950 . S
C481 C479 1.387 . S
C481 C483 1.390 . S
C481 H485 0.950 . S
H482 C478 0.950 . S
C483 C481 1.390 . S
C483 C484 1.387 . S
C483 H486 0.950 . S
C484 C483 1.387 . S
C484 C487 1.387 . S
H485 C481 0.950 . S
H486 C483 0.950 . S
C487 C478 1.390 . S
C487 H480 0.950 . S
C487 C484 1.387 . S
C488 C489 1.387 1_455 S
C488 H492 0.950 . S
C488 C497 1.390 . S
C489 C488 1.387 1_655 S
C489 C491 1.387 . S
H490 C497 0.950 . S
C491 C489 1.387 . S
C491 C493 1.390 . S
C491 H495 0.950 . S
H492 C488 0.950 . S
C493 C491 1.390 . S
C493 C494 1.387 1_655 S
C493 H496 0.950 . S
C494 C493 1.387 1_455 S
C494 C497 1.387 . S
H495 C491 0.950 . S
H496 C493 0.950 . S
C497 C488 1.390 . S
C497 H490 0.950 . S
C497 C494 1.387 . S
C498 C499 1.387 . S
C498 H502 0.950 . S
C498 C507 1.390 . S
C499 C498 1.387 . S
C499 C501 1.387 . S
H500 C507 0.950 . S
C501 C499 1.387 . S
C501 C503 1.390 . S
C501 H505 0.950 . S
H502 C498 0.950 . S
C503 C501 1.390 . S
C503 C504 1.387 . S
C503 H506 0.950 . S
C504 C503 1.387 . S
C504 C507 1.387 . S
H505 C501 0.950 . S
H506 C503 0.950 . S
C507 C498 1.390 . S
C507 H500 0.950 . S
C507 C504 1.387 . S
C508 C509 1.387 1_554 S
C508 H512 0.950 . S
C508 C517 1.390 . S
C509 C508 1.387 1_556 S
C509 C511 1.387 . S
H510 C517 0.950 . S
C511 C509 1.387 . S
C511 C513 1.390 . S
C511 H515 0.950 . S
H512 C508 0.950 . S
C513 C511 1.390 . S
C513 C514 1.387 1_556 S
C513 H516 0.950 . S
C514 C513 1.387 1_554 S
C514 C517 1.387 . S
H515 C511 0.950 . S
H516 C513 0.950 . S
C517 C508 1.390 . S
C517 H510 0.950 . S
C517 C514 1.387 . S
C518 C519 1.387 . S
C518 H522 0.950 . S
C518 C527 1.390 . S
C519 C518 1.387 . S
C519 C521 1.387 . S
H520 C527 0.950 . S
C521 C519 1.387 . S
C521 C523 1.390 . S
C521 H525 0.950 . S
H522 C518 0.950 . S
C523 C521 1.390 . S
C523 C524 1.387 . S
C523 H526 0.950 . S
C524 C523 1.387 . S
C524 C527 1.387 . S
H525 C521 0.950 . S
H526 C523 0.950 . S
C527 C518 1.390 . S
C527 H520 0.950 . S
C527 C524 1.387 . S
C528 C529 1.387 . S
C528 H532 0.950 . S
C528 C537 1.390 . S
C529 C528 1.387 . S
C529 C531 1.387 . S
H530 C537 0.950 . S
C531 C529 1.387 . S
C531 C533 1.390 . S
C531 H535 0.950 . S
H532 C528 0.950 . S
C533 C531 1.390 . S
C533 C534 1.387 . S
C533 H536 0.950 . S
C534 C533 1.387 . S
C534 C537 1.387 . S
H535 C531 0.950 . S
H536 C533 0.950 . S
C537 C528 1.390 . S
C537 H530 0.950 . S
C537 C534 1.387 . S
C538 C539 1.387 . S
C538 H542 0.950 . S
C538 C547 1.390 . S
C539 C538 1.387 . S
C539 C541 1.387 . S
H540 C547 0.950 . S
C541 C539 1.387 . S
C541 C543 1.390 . S
C541 H545 0.950 . S
H542 C538 0.950 . S
C543 C541 1.390 . S
C543 C544 1.387 . S
C543 H546 0.950 . S
C544 C543 1.387 . S
C544 C547 1.387 . S
H545 C541 0.950 . S
H546 C543 0.950 . S
C547 C538 1.390 . S
C547 H540 0.950 . S
C547 C544 1.387 . S
C548 C549 1.387 . S
C548 H552 0.950 . S
C548 C557 1.390 . S
C549 C548 1.387 . S
C549 C551 1.387 . S
H550 C557 0.950 . S
C551 C549 1.387 . S
C551 C553 1.390 . S
C551 H555 0.950 . S
H552 C548 0.950 . S
C553 C551 1.390 . S
C553 C554 1.387 . S
C553 H556 0.950 . S
C554 C553 1.387 . S
C554 C557 1.387 . S
H555 C551 0.950 . S
H556 C553 0.950 . S
C557 C548 1.390 . S
C557 H550 0.950 . S
C557 C554 1.387 . S
C558 C559 1.387 . S
C558 H562 0.950 . S
C558 C567 1.390 . S
C559 C558 1.387 . S
C559 C561 1.387 . S
H560 C567 0.950 . S
C561 C559 1.387 . S
C561 C563 1.390 . S
C561 H565 0.950 . S
H562 C558 0.950 . S
C563 C561 1.390 . S
C563 C564 1.387 . S
C563 H566 0.950 . S
C564 C563 1.387 . S
C564 C567 1.387 . S
H565 C561 0.950 . S
H566 C563 0.950 . S
C567 C558 1.390 . S
C567 H560 0.950 . S
C567 C564 1.387 . S
C568 C569 1.387 . S
C568 H572 0.950 . S
C568 C577 1.390 . S
C569 C568 1.387 . S
C569 C571 1.387 1_565 S
H570 C577 0.950 . S
C571 C569 1.387 1_545 S
C571 C573 1.390 . S
C571 H575 0.950 . S
H572 C568 0.950 . S
C573 C571 1.390 . S
C573 C574 1.387 . S
C573 H576 0.950 . S
C574 C573 1.387 . S
C574 C577 1.387 1_545 S
H575 C571 0.950 . S
H576 C573 0.950 . S
C577 C568 1.390 . S
C577 H570 0.950 . S
C577 C574 1.387 1_565 S
C578 C579 1.387 1_545 S
C578 H582 0.950 . S
C578 C587 1.390 1_455 S
C579 C578 1.387 1_565 S
C579 C581 1.387 1_556 S
H580 C587 0.950 . S
C581 C579 1.387 1_554 S
C581 C583 1.390 1_455 S
C581 H585 0.950 . S
H582 C578 0.950 . S
C583 C581 1.390 1_655 S
C583 C584 1.387 1_565 S
C583 H586 0.950 . S
C584 C583 1.387 1_545 S
C584 C587 1.387 1_554 S
H585 C581 0.950 . S
H586 C583 0.950 . S
C587 C578 1.390 1_655 S
C587 H580 0.950 . S
C587 C584 1.387 1_556 S
C588 C589 1.387 1_565 S
C588 H592 0.950 . S
C588 C597 1.390 . S
C589 C588 1.387 1_545 S
C589 C591 1.387 1_556 S
H590 C597 0.950 . S
C591 C589 1.387 1_554 S
C591 C593 1.390 . S
C591 H595 0.950 . S
H592 C588 0.950 . S
C593 C591 1.390 . S
C593 C594 1.387 1_545 S
C593 H596 0.950 . S
C594 C593 1.387 1_565 S
C594 C597 1.387 1_554 S
H595 C591 0.950 . S
H596 C593 0.950 . S
C597 C588 1.390 . S
C597 H590 0.950 . S
C597 C594 1.387 1_556 S
C598 C599 1.391 . S
C598 H602 0.950 . S
C598 C607 1.387 1_455 S
C599 C598 1.391 . S
C599 C601 1.387 1_545 S
H600 C607 0.950 . S
C601 C599 1.387 1_565 S
C601 C603 1.387 1_455 S
C601 H605 0.950 . S
H602 C598 0.950 . S
C603 C601 1.387 1_655 S
C603 C604 1.391 . S
C603 H606 0.950 . S
C604 C603 1.391 . S
C604 C607 1.387 1_565 S
H605 C601 0.950 . S
H606 C603 0.950 . S
C607 C598 1.387 1_655 S
C607 H600 0.950 . S
C607 C604 1.387 1_545 S
C608 C609 1.387 . S
C608 H612 0.950 . S
C608 C617 1.390 1_655 S
C609 C608 1.387 . S
C609 C611 1.387 . S
H610 C617 0.950 . S
C611 C609 1.387 . S
C611 C613 1.390 1_655 S
C611 H615 0.950 . S
H612 C608 0.950 . S
C613 C611 1.390 1_455 S
C613 C614 1.387 . S
C613 H616 0.950 . S
C614 C613 1.387 . S
C614 C617 1.387 . S
H615 C611 0.950 . S
H616 C613 0.950 . S
C617 C608 1.390 1_455 S
C617 H610 0.950 . S
C617 C614 1.387 . S
C618 C619 1.387 . S
C618 H622 0.950 . S
C618 C627 1.390 1_455 S
C619 C618 1.387 . S
C619 C621 1.387 . S
H620 C627 0.950 . S
C621 C619 1.387 . S
C621 C623 1.390 1_455 S
C621 H625 0.950 . S
H622 C618 0.950 . S
C623 C621 1.390 1_655 S
C623 C624 1.387 . S
C623 H626 0.950 . S
C624 C623 1.387 . S
C624 C627 1.387 . S
H625 C621 0.950 . S
H626 C623 0.950 . S
C627 C618 1.390 1_655 S
C627 H620 0.950 . S
C627 C624 1.387 . S
C628 C629 1.387 . S
C628 H632 0.950 . S
C628 C637 1.390 . S
C629 C628 1.387 . S
C629 C631 1.387 . S
H630 C637 0.950 . S
C631 C629 1.387 . S
C631 C633 1.390 . S
C631 H635 0.950 . S
H632 C628 0.950 . S
C633 C631 1.390 . S
C633 C634 1.387 . S
C633 H636 0.950 . S
C634 C633 1.387 . S
C634 C637 1.387 . S
H635 C631 0.950 . S
H636 C633 0.950 . S
C637 C628 1.390 . S
C637 H630 0.950 . S
C637 C634 1.387 . S
C638 C639 1.387 . S
C638 H642 0.950 . S
C638 C647 1.390 . S
C639 C638 1.387 . S
C639 C641 1.387 . S
H640 C647 0.950 . S
C641 C639 1.387 . S
C641 C643 1.390 . S
C641 H645 0.950 . S
H642 C638 0.950 . S
C643 C641 1.390 . S
C643 C644 1.387 . S
C643 H646 0.950 . S
C644 C643 1.387 . S
C644 C647 1.387 . S
H645 C641 0.950 . S
H646 C643 0.950 . S
C647 C638 1.390 . S
C647 H640 0.950 . S
C647 C644 1.387 . S
C648 C649 1.387 . S
C648 H652 0.950 . S
C648 C657 1.390 1_655 S
C649 C648 1.387 . S
C649 C651 1.387 . S
H650 C657 0.950 . S
C651 C649 1.387 . S
C651 C653 1.390 1_655 S
C651 H655 0.950 . S
H652 C648 0.950 . S
C653 C651 1.390 1_455 S
C653 C654 1.387 . S
C653 H656 0.950 . S
C654 C653 1.387 . S
C654 C657 1.387 . S
H655 C651 0.950 . S
H656 C653 0.950 . S
C657 C648 1.390 1_455 S
C657 H650 0.950 . S
C657 C654 1.387 . S
C658 C659 1.387 . S
C658 H662 0.950 . S
C658 C667 1.390 . S
C659 C658 1.387 . S
C659 C661 1.387 . S
H660 C667 0.950 . S
C661 C659 1.387 . S
C661 C663 1.390 . S
C661 H665 0.950 . S
H662 C658 0.950 . S
C663 C661 1.390 . S
C663 C664 1.387 . S
C663 H666 0.950 . S
C664 C663 1.387 . S
C664 C667 1.387 . S
H665 C661 0.950 . S
H666 C663 0.950 . S
C667 C658 1.390 . S
C667 H660 0.950 . S
C667 C664 1.387 . S
C668 C669 1.387 . S
C668 H672 0.950 . S
C668 C677 1.390 . S
C669 C668 1.387 . S
C669 C671 1.387 . S
H670 C677 0.950 . S
C671 C669 1.387 . S
C671 C673 1.390 . S
C671 H675 0.950 . S
H672 C668 0.950 . S
C673 C671 1.390 . S
C673 C674 1.387 . S
C673 H676 0.950 . S
C674 C673 1.387 . S
C674 C677 1.387 . S
H675 C671 0.950 . S
H676 C673 0.950 . S
C677 C668 1.390 . S
C677 H670 0.950 . S
C677 C674 1.387 . S
C678 C679 1.387 . S
C678 H682 0.950 . S
C678 C687 1.390 1_455 S
C679 C678 1.387 . S
C679 C681 1.387 . S
H680 C687 0.950 . S
C681 C679 1.387 . S
C681 C683 1.390 1_455 S
C681 H685 0.950 . S
H682 C678 0.950 . S
C683 C681 1.390 1_655 S
C683 C684 1.387 . S
C683 H686 0.950 . S
C684 C683 1.387 . S
C684 C687 1.387 . S
H685 C681 0.950 . S
H686 C683 0.950 . S
C687 C678 1.390 1_655 S
C687 H680 0.950 . S
C687 C684 1.387 . S
C688 C689 1.387 . S
C688 H692 0.950 . S
C688 C697 1.390 1_655 S
C689 C688 1.387 . S
C689 C691 1.387 . S
H690 C697 0.950 . S
C691 C689 1.387 . S
C691 C693 1.390 1_655 S
C691 H695 0.950 . S
H692 C688 0.950 . S
C693 C691 1.390 1_455 S
C693 C694 1.387 . S
C693 H696 0.950 . S
C694 C693 1.387 . S
C694 C697 1.387 . S
H695 C691 0.950 . S
H696 C693 0.950 . S
C697 C688 1.390 1_455 S
C697 H690 0.950 . S
C697 C694 1.387 . S
C698 C699 1.387 . S
C698 H702 0.950 . S
C698 C707 1.390 1_655 S
C699 C698 1.387 . S
C699 C701 1.387 . S
H700 C707 0.950 . S
C701 C699 1.387 . S
C701 C703 1.390 1_655 S
C701 H705 0.950 . S
H702 C698 0.950 . S
C703 C701 1.390 1_455 S
C703 C704 1.387 . S
C703 H706 0.950 . S
C704 C703 1.387 . S
C704 C707 1.387 . S
H705 C701 0.950 . S
H706 C703 0.950 . S
C707 C698 1.390 1_455 S
C707 H700 0.950 . S
C707 C704 1.387 . S
C708 C709 1.387 . S
C708 H712 0.950 . S
C708 C717 1.390 . S
C709 C708 1.387 . S
C709 C711 1.387 . S
H710 C717 0.950 . S
C711 C709 1.387 . S
C711 C713 1.390 . S
C711 H715 0.950 . S
H712 C708 0.950 . S
C713 C711 1.390 . S
C713 C714 1.387 . S
C713 H716 0.950 . S
C714 C713 1.387 . S
C714 C717 1.387 . S
H715 C711 0.950 . S
H716 C713 0.950 . S
C717 C708 1.390 . S
C717 H710 0.950 . S
C717 C714 1.387 . S
C718 C719 1.387 . S
C718 H722 0.950 . S
C718 C727 1.390 . S
C719 C718 1.387 . S
C719 C721 1.387 . S
H720 C727 0.950 . S
C721 C719 1.387 . S
C721 C723 1.390 . S
C721 H725 0.950 . S
H722 C718 0.950 . S
C723 C721 1.390 . S
C723 C724 1.387 . S
C723 H726 0.950 . S
C724 C723 1.387 . S
C724 C727 1.387 . S
H725 C721 0.950 . S
H726 C723 0.950 . S
C727 C718 1.390 . S
C727 H720 0.950 . S
C727 C724 1.387 . S
C728 C729 1.387 . S
C728 H732 0.950 . S
C728 C737 1.390 1_655 S
C729 C728 1.387 . S
C729 C731 1.387 . S
H730 C737 0.950 . S
C731 C729 1.387 . S
C731 C733 1.390 1_655 S
C731 H735 0.950 . S
H732 C728 0.950 . S
C733 C731 1.390 1_455 S
C733 C734 1.387 . S
C733 H736 0.950 . S
C734 C733 1.387 . S
C734 C737 1.387 . S
H735 C731 0.950 . S
H736 C733 0.950 . S
C737 C728 1.390 1_455 S
C737 H730 0.950 . S
C737 C734 1.387 . S
C738 C739 1.387 . S
C738 H742 0.950 . S
C738 C747 1.390 . S
C739 C738 1.387 . S
C739 C741 1.387 . S
H740 C747 0.950 . S
C741 C739 1.387 . S
C741 C743 1.390 . S
C741 H745 0.950 . S
H742 C738 0.950 . S
C743 C741 1.390 . S
C743 C744 1.387 . S
C743 H746 0.950 . S
C744 C743 1.387 . S
C744 C747 1.387 . S
H745 C741 0.950 . S
H746 C743 0.950 . S
C747 C738 1.390 . S
C747 H740 0.950 . S
C747 C744 1.387 . S
C748 C749 1.387 . S
C748 H752 0.950 . S
C748 C757 1.390 . S
C749 C748 1.387 . S
C749 C751 1.387 . S
H750 C757 0.950 . S
C751 C749 1.387 . S
C751 C753 1.390 . S
C751 H755 0.950 . S
H752 C748 0.950 . S
C753 C751 1.390 . S
C753 C754 1.387 . S
C753 H756 0.950 . S
C754 C753 1.387 . S
C754 C757 1.387 . S
H755 C751 0.950 . S
H756 C753 0.950 . S
C757 C748 1.390 . S
C757 H750 0.950 . S
C757 C754 1.387 . S
C758 C759 1.387 . S
C758 H762 0.950 . S
C758 C767 1.390 1_655 S
C759 C758 1.387 . S
C759 C761 1.387 . S
H760 C767 0.950 . S
C761 C759 1.387 . S
C761 C763 1.390 1_655 S
C761 H765 0.950 . S
H762 C758 0.950 . S
C763 C761 1.390 1_455 S
C763 C764 1.387 . S
C763 H766 0.950 . S
C764 C763 1.387 . S
C764 C767 1.387 . S
H765 C761 0.950 . S
H766 C763 0.950 . S
C767 C758 1.390 1_455 S
C767 H760 0.950 . S
C767 C764 1.387 . S
C768 C769 1.387 . S
C768 H772 0.950 . S
C768 C777 1.390 1_556 S
C769 C768 1.387 . S
C769 C771 1.387 . S
H770 C777 0.950 . S
C771 C769 1.387 . S
C771 C773 1.390 1_556 S
C771 H775 0.950 . S
H772 C768 0.950 . S
C773 C771 1.390 1_554 S
C773 C774 1.387 . S
C773 H776 0.950 . S
C774 C773 1.387 . S
C774 C777 1.387 . S
H775 C771 0.950 . S
H776 C773 0.950 . S
C777 C768 1.390 1_554 S
C777 H770 0.950 . S
C777 C774 1.387 . S
C778 C779 1.387 . S
C778 H782 0.950 . S
C778 C787 1.390 1_545 S
C779 C778 1.387 . S
C779 C781 1.387 . S
H780 C787 0.950 . S
C781 C779 1.387 . S
C781 C783 1.390 1_545 S
C781 H785 0.950 . S
H782 C778 0.950 . S
C783 C781 1.390 1_565 S
C783 C784 1.387 . S
C783 H786 0.950 . S
C784 C783 1.387 . S
C784 C787 1.387 . S
H785 C781 0.950 . S
H786 C783 0.950 . S
C787 C778 1.390 1_565 S
C787 H780 0.950 . S
C787 C784 1.387 . S
C788 C789 1.387 . S
C788 H792 0.950 . S
C788 C797 1.390 . S
C789 C788 1.387 . S
C789 C791 1.387 . S
H790 C797 0.950 . S
C791 C789 1.387 . S
C791 C793 1.390 . S
C791 H795 0.950 . S
H792 C788 0.950 . S
C793 C791 1.390 . S
C793 C794 1.387 . S
C793 H796 0.950 . S
C794 C793 1.387 . S
C794 C797 1.387 . S
H795 C791 0.950 . S
H796 C793 0.950 . S
C797 C788 1.390 . S
C797 H790 0.950 . S
C797 C794 1.387 . S
C798 C799 1.387 . S
C798 H802 0.950 . S
C798 C807 1.390 1_545 S
C799 C798 1.387 . S
C799 C801 1.387 . S
H800 C807 0.950 . S
C801 C799 1.387 . S
C801 C803 1.390 1_545 S
C801 H805 0.950 . S
H802 C798 0.950 . S
C803 C801 1.390 1_565 S
C803 C804 1.387 . S
C803 H806 0.950 . S
C804 C803 1.387 . S
C804 C807 1.387 . S
H805 C801 0.950 . S
H806 C803 0.950 . S
C807 C798 1.390 1_565 S
C807 H800 0.950 . S
C807 C804 1.387 . S
C808 C809 1.387 . S
C808 H812 0.950 . S
C808 C817 1.390 1_554 S
C809 C808 1.387 . S
C809 C811 1.387 . S
H810 C817 0.950 . S
C811 C809 1.387 . S
C811 C813 1.390 1_554 S
C811 H815 0.950 . S
H812 C808 0.950 . S
C813 C811 1.390 1_556 S
C813 C814 1.387 . S
C813 H816 0.950 . S
C814 C813 1.387 . S
C814 C817 1.387 . S
H815 C811 0.950 . S
H816 C813 0.950 . S
C817 C808 1.390 1_556 S
C817 H810 0.950 . S
C817 C814 1.387 . S
C818 C819 1.387 . S
C818 H822 0.950 . S
C818 C827 1.390 1_565 S
C819 C818 1.387 . S
C819 C821 1.387 . S
H820 C827 0.950 . S
C821 C819 1.387 . S
C821 C823 1.390 1_565 S
C821 H825 0.950 . S
H822 C818 0.950 . S
C823 C821 1.390 1_545 S
C823 C824 1.387 . S
C823 H826 0.950 . S
C824 C823 1.387 . S
C824 C827 1.387 . S
H825 C821 0.950 . S
H826 C823 0.950 . S
C827 C818 1.390 1_545 S
C827 H820 0.950 . S
C827 C824 1.387 . S
C828 C829 1.387 . S
C828 H832 0.950 . S
C828 C837 1.390 . S
C829 C828 1.387 . S
C829 C831 1.387 . S
H830 C837 0.950 . S
C831 C829 1.387 . S
C831 C833 1.390 . S
C831 H835 0.950 . S
H832 C828 0.950 . S
C833 C831 1.390 . S
C833 C834 1.387 . S
C833 H836 0.950 . S
C834 C833 1.387 . S
C834 C837 1.387 . S
H835 C831 0.950 . S
H836 C833 0.950 . S
C837 C828 1.390 . S
C837 H830 0.950 . S
C837 C834 1.387 . S
C838 C839 1.387 . S
C838 H842 0.950 . S
C838 C847 1.390 1_545 S
C839 C838 1.387 . S
C839 C841 1.387 . S
H840 C847 0.950 . S
C841 C839 1.387 . S
C841 C843 1.390 1_545 S
C841 H845 0.950 . S
H842 C838 0.950 . S
C843 C841 1.390 1_565 S
C843 C844 1.387 . S
C843 H846 0.950 . S
C844 C843 1.387 . S
C844 C847 1.387 . S
H845 C841 0.950 . S
H846 C843 0.950 . S
C847 C838 1.390 1_565 S
C847 H840 0.950 . S
C847 C844 1.387 . S
C848 C849 1.387 . S
C848 H852 0.950 . S
C848 C857 1.390 . S
C849 C848 1.387 . S
C849 C851 1.387 . S
H850 C857 0.950 . S
C851 C849 1.387 . S
C851 C853 1.390 . S
C851 H855 0.950 . S
H852 C848 0.950 . S
C853 C851 1.390 . S
C853 C854 1.387 . S
C853 H856 0.950 . S
C854 C853 1.387 . S
C854 C857 1.387 . S
H855 C851 0.950 . S
H856 C853 0.950 . S
C857 C848 1.390 . S
C857 H850 0.950 . S
C857 C854 1.387 . S
C858 C859 1.387 . S
C858 H862 0.950 . S
C858 C867 1.390 . S
C859 C858 1.387 . S
C859 C861 1.387 . S
H860 C867 0.950 . S
C861 C859 1.387 . S
C861 C863 1.390 . S
C861 H865 0.950 . S
H862 C858 0.950 . S
C863 C861 1.390 . S
C863 C864 1.387 . S
C863 H866 0.950 . S
C864 C863 1.387 . S
C864 C867 1.387 . S
H865 C861 0.950 . S
H866 C863 0.950 . S
C867 C858 1.390 . S
C867 H860 0.950 . S
C867 C864 1.387 . S
C868 C869 1.387 . S
C868 H872 0.950 . S
C868 C877 1.390 1_554 S
C869 C868 1.387 . S
C869 C871 1.387 . S
H870 C877 0.950 . S
C871 C869 1.387 . S
C871 C873 1.390 1_554 S
C871 H875 0.950 . S
H872 C868 0.950 . S
C873 C871 1.390 1_556 S
C873 C874 1.387 . S
C873 H876 0.950 . S
C874 C873 1.387 . S
C874 C877 1.387 . S
H875 C871 0.950 . S
H876 C873 0.950 . S
C877 C868 1.390 1_556 S
C877 H870 0.950 . S
C877 C874 1.387 . S
C878 C879 1.387 . S
C878 H882 0.950 . S
C878 C887 1.390 . S
C879 C878 1.387 . S
C879 C881 1.387 . S
H880 C887 0.950 . S
C881 C879 1.387 . S
C881 C883 1.390 . S
C881 H885 0.950 . S
H882 C878 0.950 . S
C883 C881 1.390 . S
C883 C884 1.387 . S
C883 H886 0.950 . S
C884 C883 1.387 . S
C884 C887 1.387 . S
H885 C881 0.950 . S
H886 C883 0.950 . S
C887 C878 1.390 . S
C887 H880 0.950 . S
C887 C884 1.387 . S
C888 C889 1.387 . S
C888 H892 0.950 . S
C888 C897 1.390 . S
C889 C888 1.387 . S
C889 C891 1.387 . S
H890 C897 0.950 . S
C891 C889 1.387 . S
C891 C893 1.390 . S
C891 H895 0.950 . S
H892 C888 0.950 . S
C893 C891 1.390 . S
C893 C894 1.387 . S
C893 H896 0.950 . S
C894 C893 1.387 . S
C894 C897 1.387 . S
H895 C891 0.950 . S
H896 C893 0.950 . S
C897 C888 1.390 . S
C897 H890 0.950 . S
C897 C894 1.387 . S
C898 C899 1.387 . S
C898 H902 0.950 . S
C898 C907 1.390 . S
C899 C898 1.387 . S
C899 C901 1.387 . S
H900 C907 0.950 . S
C901 C899 1.387 . S
C901 C903 1.390 . S
C901 H905 0.950 . S
H902 C898 0.950 . S
C903 C901 1.390 . S
C903 C904 1.387 . S
C903 H906 0.950 . S
C904 C903 1.387 . S
C904 C907 1.387 . S
H905 C901 0.950 . S
H906 C903 0.950 . S
C907 C898 1.390 . S
C907 H900 0.950 . S
C907 C904 1.387 . S
C908 C909 1.387 . S
C908 H912 0.950 . S
C908 C917 1.390 1_556 S
C909 C908 1.387 . S
C909 C911 1.387 . S
H910 C917 0.950 . S
C911 C909 1.387 . S
C911 C913 1.390 1_556 S
C911 H915 0.950 . S
H912 C908 0.950 . S
C913 C911 1.390 1_554 S
C913 C914 1.387 . S
C913 H916 0.950 . S
C914 C913 1.387 . S
C914 C917 1.387 . S
H915 C911 0.950 . S
H916 C913 0.950 . S
C917 C908 1.390 1_554 S
C917 H910 0.950 . S
C917 C914 1.387 . S
C918 C919 1.387 . S
C918 H922 0.950 . S
C918 C927 1.390 . S
C919 C918 1.387 . S
C919 C921 1.387 . S
H920 C927 0.950 . S
C921 C919 1.387 . S
C921 C923 1.390 . S
C921 H925 0.950 . S
H922 C918 0.950 . S
C923 C921 1.390 . S
C923 C924 1.387 . S
C923 H926 0.950 . S
C924 C923 1.387 . S
C924 C927 1.387 . S
H925 C921 0.950 . S
H926 C923 0.950 . S
C927 C918 1.390 . S
C927 H920 0.950 . S
C927 C924 1.387 . S
C928 C929 1.387 . S
C928 H932 0.950 . S
C928 C937 1.390 . S
C929 C928 1.387 . S
C929 C931 1.387 . S
H930 C937 0.950 . S
C931 C929 1.387 . S
C931 C933 1.390 . S
C931 H935 0.950 . S
H932 C928 0.950 . S
C933 C931 1.390 . S
C933 C934 1.387 . S
C933 H936 0.950 . S
C934 C933 1.387 . S
C934 C937 1.387 . S
H935 C931 0.950 . S
H936 C933 0.950 . S
C937 C928 1.390 . S
C937 H930 0.950 . S
C937 C934 1.387 . S
C938 C939 1.387 . S
C938 H942 0.950 . S
C938 C947 1.390 . S
C939 C938 1.387 . S
C939 C941 1.387 . S
H940 C947 0.950 . S
C941 C939 1.387 . S
C941 C943 1.390 . S
C941 H945 0.950 . S
H942 C938 0.950 . S
C943 C941 1.390 . S
C943 C944 1.387 . S
C943 H946 0.950 . S
C944 C943 1.387 . S
C944 C947 1.387 . S
H945 C941 0.950 . S
H946 C943 0.950 . S
C947 C938 1.390 . S
C947 H940 0.950 . S
C947 C944 1.387 . S
C948 C949 1.387 . S
C948 H952 0.950 . S
C948 C957 1.390 . S
C949 C948 1.387 . S
C949 C951 1.387 . S
H950 C957 0.950 . S
C951 C949 1.387 . S
C951 C953 1.390 . S
C951 H955 0.950 . S
H952 C948 0.950 . S
C953 C951 1.390 . S
C953 C954 1.387 . S
C953 H956 0.950 . S
C954 C953 1.387 . S
C954 C957 1.387 . S
H955 C951 0.950 . S
H956 C953 0.950 . S
C957 C948 1.390 . S
C957 H950 0.950 . S
C957 C954 1.387 . S
C958 C959 1.387 . S
C958 H962 0.950 . S
C958 C967 1.390 . S
C959 C958 1.387 . S
C959 C961 1.387 . S
H960 C967 0.950 . S
C961 C959 1.387 . S
C961 C963 1.390 . S
C961 H965 0.950 . S
H962 C958 0.950 . S
C963 C961 1.390 . S
C963 C964 1.387 . S
C963 H966 0.950 . S
C964 C963 1.387 . S
C964 C967 1.387 . S
H965 C961 0.950 . S
H966 C963 0.950 . S
C967 C958 1.390 . S
C967 H960 0.950 . S
C967 C964 1.387 . S
C968 C969 1.387 . S
C968 H972 0.950 . S
C968 C977 1.390 . S
C969 C968 1.387 . S
C969 C971 1.387 . S
H970 C977 0.950 . S
C971 C969 1.387 . S
C971 C973 1.390 . S
C971 H975 0.950 . S
H972 C968 0.950 . S
C973 C971 1.390 . S
C973 C974 1.387 . S
C973 H976 0.950 . S
C974 C973 1.387 . S
C974 C977 1.387 . S
H975 C971 0.950 . S
H976 C973 0.950 . S
C977 C968 1.390 . S
C977 H970 0.950 . S
C977 C974 1.387 . S
C978 C979 1.387 . S
C978 H982 0.950 . S
C978 C987 1.390 . S
C979 C978 1.387 . S
C979 C981 1.387 . S
H980 C987 0.950 . S
C981 C979 1.387 . S
C981 C983 1.390 . S
C981 H985 0.950 . S
H982 C978 0.950 . S
C983 C981 1.390 . S
C983 C984 1.387 . S
C983 H986 0.950 . S
C984 C983 1.387 . S
C984 C987 1.387 . S
H985 C981 0.950 . S
H986 C983 0.950 . S
C987 C978 1.390 . S
C987 H980 0.950 . S
C987 C984 1.387 . S
C988 C989 1.387 . S
C988 H992 0.950 . S
C988 C997 1.390 . S
C989 C988 1.387 . S
C989 C991 1.387 . S
H990 C997 0.950 . S
C991 C989 1.387 . S
C991 C993 1.390 . S
C991 H995 0.950 . S
H992 C988 0.950 . S
C993 C991 1.390 . S
C993 C994 1.387 . S
C993 H996 0.950 . S
C994 C993 1.387 . S
C994 C997 1.387 . S
H995 C991 0.950 . S
H996 C993 0.950 . S
C997 C988 1.390 . S
C997 H990 0.950 . S
C997 C994 1.387 . S
C998 C999 1.387 . S
C998 H1002 0.950 . S
C998 C1007 1.390 . S
C999 C998 1.387 . S
C999 C1001 1.387 . S
H1000 C1007 0.950 . S
C1001 C999 1.387 . S
C1001 C1003 1.390 . S
C1001 H1005 0.950 . S
H1002 C998 0.950 . S
C1003 C1001 1.390 . S
C1003 C1004 1.387 . S
C1003 H1006 0.950 . S
C1004 C1003 1.387 . S
C1004 C1007 1.387 . S
H1005 C1001 0.950 . S
H1006 C1003 0.950 . S
C1007 C998 1.390 . S
C1007 H1000 0.950 . S
C1007 C1004 1.387 . S
C1008 C1009 1.387 . S
C1008 H1012 0.950 . S
C1008 C1017 1.390 . S
C1009 C1008 1.387 . S
C1009 C1011 1.387 . S
H1010 C1017 0.950 . S
C1011 C1009 1.387 . S
C1011 C1013 1.390 . S
C1011 H1015 0.950 . S
H1012 C1008 0.950 . S
C1013 C1011 1.390 . S
C1013 C1014 1.387 . S
C1013 H1016 0.950 . S
C1014 C1013 1.387 . S
C1014 C1017 1.387 . S
H1015 C1011 0.950 . S
H1016 C1013 0.950 . S
C1017 C1008 1.390 . S
C1017 H1010 0.950 . S
C1017 C1014 1.387 . S
C1018 C1019 1.387 . S
C1018 H1022 0.950 . S
C1018 C1027 1.390 . S
C1019 C1018 1.387 . S
C1019 C1021 1.387 . S
H1020 C1027 0.950 . S
C1021 C1019 1.387 . S
C1021 C1023 1.390 . S
C1021 H1025 0.950 . S
H1022 C1018 0.950 . S
C1023 C1021 1.390 . S
C1023 C1024 1.387 . S
C1023 H1026 0.950 . S
C1024 C1023 1.387 . S
C1024 C1027 1.387 . S
H1025 C1021 0.950 . S
H1026 C1023 0.950 . S
C1027 C1018 1.390 . S
C1027 H1020 0.950 . S
C1027 C1024 1.387 . S
C1028 C1029 1.387 . S
C1028 H1032 0.950 . S
C1028 C1037 1.390 . S
C1029 C1028 1.387 . S
C1029 C1031 1.387 . S
H1030 C1037 0.950 . S
C1031 C1029 1.387 . S
C1031 C1033 1.390 . S
C1031 H1035 0.950 . S
H1032 C1028 0.950 . S
C1033 C1031 1.390 . S
C1033 C1034 1.387 . S
C1033 H1036 0.950 . S
C1034 C1033 1.387 . S
C1034 C1037 1.387 . S
H1035 C1031 0.950 . S
H1036 C1033 0.950 . S
C1037 C1028 1.390 . S
C1037 H1030 0.950 . S
C1037 C1034 1.387 . S
C1038 C1039 1.387 . S
C1038 H1042 0.950 . S
C1038 C1047 1.390 . S
C1039 C1038 1.387 . S
C1039 C1041 1.387 . S
H1040 C1047 0.950 . S
C1041 C1039 1.387 . S
C1041 C1043 1.390 . S
C1041 H1045 0.950 . S
H1042 C1038 0.950 . S
C1043 C1041 1.390 . S
C1043 C1044 1.387 . S
C1043 H1046 0.950 . S
C1044 C1043 1.387 . S
C1044 C1047 1.387 . S
H1045 C1041 0.950 . S
H1046 C1043 0.950 . S
C1047 C1038 1.390 . S
C1047 H1040 0.950 . S
C1047 C1044 1.387 . S
C1048 C1049 1.387 . S
C1048 H1052 0.950 . S
C1048 C1057 1.390 . S
C1049 C1048 1.387 . S
C1049 C1051 1.387 . S
H1050 C1057 0.950 . S
C1051 C1049 1.387 . S
C1051 C1053 1.390 . S
C1051 H1055 0.950 . S
H1052 C1048 0.950 . S
C1053 C1051 1.390 . S
C1053 C1054 1.387 . S
C1053 H1056 0.950 . S
C1054 C1053 1.387 . S
C1054 C1057 1.387 . S
H1055 C1051 0.950 . S
H1056 C1053 0.950 . S
C1057 C1048 1.390 . S
C1057 H1050 0.950 . S
C1057 C1054 1.387 . S
C1058 C1059 1.387 . S
C1058 H1062 0.950 . S
C1058 C1067 1.390 . S
C1059 C1058 1.387 . S
C1059 C1061 1.387 . S
H1060 C1067 0.950 . S
C1061 C1059 1.387 . S
C1061 C1063 1.390 . S
C1061 H1065 0.950 . S
H1062 C1058 0.950 . S
C1063 C1061 1.390 . S
C1063 C1064 1.387 . S
C1063 H1066 0.950 . S
C1064 C1063 1.387 . S
C1064 C1067 1.387 . S
H1065 C1061 0.950 . S
H1066 C1063 0.950 . S
C1067 C1058 1.390 . S
C1067 H1060 0.950 . S
C1067 C1064 1.387 . S
C1068 C1069 1.387 . S
C1068 H1072 0.950 . S
C1068 C1077 1.390 . S
C1069 C1068 1.387 . S
C1069 C1071 1.387 . S
H1070 C1077 0.950 . S
C1071 C1069 1.387 . S
C1071 C1073 1.390 . S
C1071 H1075 0.950 . S
H1072 C1068 0.950 . S
C1073 C1071 1.390 . S
C1073 C1074 1.387 . S
C1073 H1076 0.950 . S
C1074 C1073 1.387 . S
C1074 C1077 1.387 . S
H1075 C1071 0.950 . S
H1076 C1073 0.950 . S
C1077 C1068 1.390 . S
C1077 H1070 0.950 . S
C1077 C1074 1.387 . S
C1078 C1079 1.387 . S
C1078 H1082 0.950 . S
C1078 C1087 1.390 . S
C1079 C1078 1.387 . S
C1079 C1081 1.387 . S
H1080 C1087 0.950 . S
C1081 C1079 1.387 . S
C1081 C1083 1.390 . S
C1081 H1085 0.950 . S
H1082 C1078 0.950 . S
C1083 C1081 1.390 . S
C1083 C1084 1.387 . S
C1083 H1086 0.950 . S
C1084 C1083 1.387 . S
C1084 C1087 1.387 . S
H1085 C1081 0.950 . S
H1086 C1083 0.950 . S
C1087 C1078 1.390 . S
C1087 H1080 0.950 . S
C1087 C1084 1.387 . S
C449 C119 1.517 . S
C454 C7 1.517 . S
C459 C357 1.514 . S
C464 C21 1.514 . S
C469 C147 1.514 . S
C474 C35 1.514 . S
C479 C385 1.516 . S
C484 C49 1.516 . S
C489 C175 1.514 . S
C494 C63 1.514 . S
C499 C77 1.514 . S
C504 C413 1.514 . S
C509 C91 1.516 . S
C514 C203 1.516 . S
C519 C105 1.514 . S
C524 C441 1.514 . S
C529 C245 1.516 . S
C534 C133 1.516 . S
C539 C273 1.514 . S
C544 C161 1.514 . S
C549 C189 1.516 . S
C554 C301 1.516 . S
C559 C217 1.514 . S
C564 C329 1.514 . S
C569 C231 1.517 . S
C574 C343 1.517 . S
C579 C371 1.516 . S
C584 C259 1.516 . S
C589 C287 1.514 . S
C594 C399 1.514 . S
C599 C427 1.514 . S
C604 C315 1.514 . S
C609 C261 1.589 . S
C614 C9 1.589 . S
C619 C275 1.589 . S
C624 C23 1.589 . S
C629 C37 1.589 . S
C634 C233 1.589 . S
C639 C51 1.589 . S
C644 C247 1.589 . S
C649 C317 1.589 . S
C654 C65 1.589 . S
C659 C79 1.589 . S
C664 C331 1.589 . S
C669 C289 1.589 . S
C674 C93 1.589 . S
C679 C303 1.589 . S
C684 C107 1.589 . S
C689 C121 1.589 . S
C694 C373 1.589 . S
C699 C387 1.589 . S
C704 C135 1.589 . S
C709 C149 1.589 . S
C714 C345 1.589 . S
C719 C163 1.589 . S
C724 C359 1.589 . S
C729 C177 1.589 . S
C734 C429 1.589 . S
C739 C191 1.589 . S
C744 C443 1.589 . S
C749 C401 1.589 . S
C754 C205 1.589 . S
C759 C415 1.589 . S
C764 C219 1.589 . S
C769 C92 1.524 . S
C774 C8 1.524 . S
C779 C106 1.524 . S
C784 C22 1.524 . S
C789 C64 1.524 . S
C794 C36 1.524 . S
C799 C50 1.524 . S
C804 C78 1.524 . S
C809 C204 1.524 . S
C814 C120 1.524 . S
C819 C218 1.524 . S
C824 C134 1.524 . S
C829 C176 1.524 . S
C834 C148 1.524 . S
C839 C190 1.524 . S
C844 C162 1.524 . S
C849 C316 1.524 . S
C854 C232 1.524 . S
C859 C330 1.524 . S
C864 C246 1.524 . S
C869 C260 1.524 . S
C874 C288 1.524 . S
C879 C274 1.524 . S
C884 C302 1.524 . S
C889 C428 1.524 . S
C894 C344 1.524 . S
C899 C442 1.524 . S
C904 C358 1.524 . S
C909 C372 1.524 . S
C914 C400 1.524 . S
C919 C386 1.524 . S
C924 C414 1.524 . S
C929 C3 1.432 . S
C934 C297 1.432 . S
C939 C311 1.432 . S
C944 C17 1.432 . S
C949 C325 1.431 . S
C954 C31 1.431 . S
C959 C45 1.432 . S
C964 C283 1.431 . S
C969 C269 1.431 . S
C974 C59 1.432 . S
C979 C73 1.432 . S
C984 C227 1.432 . S
C989 C241 1.432 . S
C994 C87 1.432 . S
C999 C101 1.432 . S
C1004 C255 1.432 . S
C1009 C409 1.431 . S
C1014 C115 1.432 . S
C1019 C423 1.432 . S
C1024 C129 1.431 . S
C1029 C143 1.431 . S
C1034 C437 1.432 . S
C1039 C395 1.432 . S
C1044 C157 1.431 . S
C1049 C381 1.432 . S
C1054 C171 1.432 . S
C1059 C185 1.431 . S
C1064 C339 1.431 . S
C1069 C353 1.432 . S
C1074 C199 1.432 . S
C1079 C213 1.432 . S
C1084 C367 1.432 . S
