# Generated by pormake.
# Topology vcl, (7)-cn, num edge types: 1
# Building blocks:
#     Node 0, Type 0, BuildingBlock: NUHQUE_clean_sbu_2, # of connection points: 7
#     Node 1, Type 0, BuildingBlock: NUHQUE_clean_sbu_2, # of connection points: 7
#     Node 2, Type 0, BuildingBlock: NUHQUE_clean_sbu_2, # of connection points: 7
#     Node 3, Type 0, BuildingBlock: NUHQUE_clean_sbu_2, # of connection points: 7
#     Node 4, Type 0, BuildingBlock: NUHQUE_clean_sbu_2, # of connection points: 7
#     Node 5, Type 0, BuildingBlock: NUHQUE_clean_sbu_2, # of connection points: 7
#     Node 6, Type 0, BuildingBlock: NUHQUE_clean_sbu_2, # of connection points: 7
#     Node 7, Type 0, BuildingBlock: NUHQUE_clean_sbu_2, # of connection points: 7
#     Node 8, Type 0, BuildingBlock: NUHQUE_clean_sbu_2, # of connection points: 7
#     Node 9, Type 0, BuildingBlock: NUHQUE_clean_sbu_2, # of connection points: 7
#     Node 10, Type 0, BuildingBlock: NUHQUE_clean_sbu_2, # of connection points: 7
#     Node 11, Type 0, BuildingBlock: NUHQUE_clean_sbu_2, # of connection points: 7
#     Node 12, Type 0, BuildingBlock: NUHQUE_clean_sbu_2, # of connection points: 7
#     Node 13, Type 0, BuildingBlock: NUHQUE_clean_sbu_2, # of connection points: 7
#     Node 14, Type 0, BuildingBlock: NUHQUE_clean_sbu_2, # of connection points: 7
#     Node 15, Type 0, BuildingBlock: NUHQUE_clean_sbu_2, # of connection points: 7
#     Edge 16, Type (0, 0), None
#     Edge 17, Type (0, 0), None
#     Edge 18, Type (0, 0), None
#     Edge 19, Type (0, 0), None
#     Edge 20, Type (0, 0), None
#     Edge 21, Type (0, 0), None
#     Edge 22, Type (0, 0), None
#     Edge 23, Type (0, 0), None
#     Edge 24, Type (0, 0), None
#     Edge 25, Type (0, 0), None
#     Edge 26, Type (0, 0), None
#     Edge 27, Type (0, 0), None
#     Edge 28, Type (0, 0), None
#     Edge 29, Type (0, 0), None
#     Edge 30, Type (0, 0), None
#     Edge 31, Type (0, 0), None
#     Edge 32, Type (0, 0), None
#     Edge 33, Type (0, 0), None
#     Edge 34, Type (0, 0), None
#     Edge 35, Type (0, 0), None
#     Edge 36, Type (0, 0), None
#     Edge 37, Type (0, 0), None
#     Edge 38, Type (0, 0), None
#     Edge 39, Type (0, 0), None
#     Edge 40, Type (0, 0), None
#     Edge 41, Type (0, 0), None
#     Edge 42, Type (0, 0), None
#     Edge 43, Type (0, 0), None
#     Edge 44, Type (0, 0), None
#     Edge 45, Type (0, 0), None
#     Edge 46, Type (0, 0), None
#     Edge 47, Type (0, 0), None
#     Edge 48, Type (0, 0), None
#     Edge 49, Type (0, 0), None
#     Edge 50, Type (0, 0), None
#     Edge 51, Type (0, 0), None
#     Edge 52, Type (0, 0), None
#     Edge 53, Type (0, 0), None
#     Edge 54, Type (0, 0), None
#     Edge 55, Type (0, 0), None
#     Edge 56, Type (0, 0), None
#     Edge 57, Type (0, 0), None
#     Edge 58, Type (0, 0), None
#     Edge 59, Type (0, 0), None
#     Edge 60, Type (0, 0), None
#     Edge 61, Type (0, 0), None
#     Edge 62, Type (0, 0), None
#     Edge 63, Type (0, 0), None
#     Edge 64, Type (0, 0), None
#     Edge 65, Type (0, 0), None
#     Edge 66, Type (0, 0), None
#     Edge 67, Type (0, 0), None
#     Edge 68, Type (0, 0), None
#     Edge 69, Type (0, 0), None
#     Edge 70, Type (0, 0), None
#     Edge 71, Type (0, 0), None
# Relax obj value: 0.319
# Max RMSD: 0.272
# Mean RMSD: 0.272
data_MOF--net-vcl--node1-NUHQUE_clean_sbu_2--edge1-none
_symmetry_space_group_name_H-M    P1
_symmetry_Int_Tables_number       1
_symmetry_cell_setting            triclinic
loop_
_symmetry_equiv_pos_as_xyz
'x, y, z'
_cell_length_a     38.569456
_cell_length_b     22.849669
_cell_length_c     15.848374
_cell_angle_alpha  90.000108
_cell_angle_beta   89.999442
_cell_angle_gamma 89.999243
loop_
_atom_site_label
_atom_site_type_symbol
_atom_site_fract_x
_atom_site_fract_y
_atom_site_fract_z
_atom_type_partial_charge
O0 O 0.35471 1.03784 0.15313 0.0
Tb1 Tb 0.32292 0.11562 0.12839 0.0
Eu2 Eu 0.24241 0.18865 0.11973 0.0
C3 C 0.34211 0.98536 0.17067 0.0
O4 O 0.30968 0.97317 0.15274 0.0
C5 C 0.26955 0.11409 0.26756 0.0
O6 O 0.20733 0.26686 0.12535 0.0
C7 C 0.20496 0.11051 1.04495 0.0
C8 C 0.21981 0.32012 0.12773 0.0
O9 O 0.25351 0.32843 0.12789 0.0
C10 C 0.30502 0.19892 0.98299 0.0
C11 C 0.17559 0.11998 0.98705 0.0
C12 C 0.17252 1.08704 0.91239 0.0
C13 C 0.14687 0.10147 0.85291 0.0
C14 C 0.12316 0.14611 0.87111 0.0
C15 C 0.12647 0.1799 0.94387 0.0
C16 C 0.15288 0.16741 1.00127 0.0
O17 O 0.28104 1.08228 0.20483 0.0
O18 O 0.25853 0.16711 0.25251 0.0
O19 O 0.37081 0.15676 0.17088 0.0
O20 O 0.32372 0.20251 0.1863 0.0
C21 C 0.35709 0.20523 0.19758 0.0
O22 O 0.28373 0.22696 1.03445 0.0
O23 O 0.31525 0.14447 0.99838 0.0
O24 O 0.1996 0.12703 0.12311 0.0
O25 O 0.23553 0.12624 1.01644 0.0
H26 H 0.19125 1.05297 0.89852 0.0
H27 H 0.10347 0.15759 0.82525 0.0
H28 H 0.15637 0.19583 1.05536 0.0
O29 O 0.56122 0.15228 0.15314 0.0
Tb30 Tb 0.59301 1.07451 0.12839 0.0
Eu31 Eu 0.67352 1.00148 0.11973 0.0
C32 C 0.57382 0.20477 0.17067 0.0
O33 O 0.60625 0.21696 0.15274 0.0
C34 C 0.64638 1.07604 0.26756 0.0
O35 O 0.7086 0.92327 0.12535 0.0
C36 C 0.71097 1.07961 1.04495 0.0
C37 C 0.69612 0.87 0.12773 0.0
O38 O 0.66242 0.86169 0.12789 0.0
C39 C 0.61091 0.99121 0.98299 0.0
C40 C 0.74033 1.07015 0.98705 0.0
C41 C 0.74341 0.10309 0.91239 0.0
C42 C 0.76906 1.08866 0.85291 0.0
C43 C 0.79277 1.04402 0.87111 0.0
C44 C 0.78946 1.01023 0.94387 0.0
C45 C 0.76305 1.02272 1.00127 0.0
O46 O 0.63489 0.10784 0.20483 0.0
O47 O 0.6574 1.02302 0.25251 0.0
O48 O 0.54512 1.03337 0.17088 0.0
O49 O 0.59221 0.98762 0.1863 0.0
C50 C 0.55884 0.98489 0.19758 0.0
O51 O 0.6322 0.96317 1.03445 0.0
O52 O 0.60068 1.04565 0.99838 0.0
O53 O 0.71633 1.06309 0.12312 0.0
O54 O 0.6804 1.06388 1.01644 0.0
H55 H 0.72468 0.13716 0.89852 0.0
H56 H 0.81246 1.03254 0.82525 0.0
H57 H 0.75956 0.9943 1.05536 0.0
O58 O 0.8112 0.28784 0.40315 0.0
Tb59 Tb 0.84298 0.36561 0.37839 0.0
Eu60 Eu 0.9235 0.43862 0.36969 0.0
C61 C 0.82379 0.23536 0.42068 0.0
O62 O 0.85622 0.22316 0.40274 0.0
C63 C 0.89637 0.36407 0.51753 0.0
O64 O -0.04141 0.51682 0.3753 0.0
C65 C -0.03905 0.36049 0.2949 0.0
C66 C 0.94611 0.57009 0.37769 0.0
O67 O 0.91242 0.5784 0.37786 0.0
C68 C 0.86089 0.4489 0.23298 0.0
C69 C -0.00968 0.36996 0.23701 0.0
C70 C -0.0066 0.33703 0.16234 0.0
C71 C 0.01905 0.35147 0.10287 0.0
C72 C 0.04275 0.39612 0.12108 0.0
C73 C 0.03944 0.4299 0.19385 0.0
C74 C 0.01303 0.4174 0.25125 0.0
O75 O 0.88487 0.33227 0.45481 0.0
O76 O 0.90739 0.41709 0.50247 0.0
O77 O 0.7951 0.40676 0.4209 0.0
O78 O 0.8422 0.4525 0.43631 0.0
C79 C 0.80883 0.45523 0.4476 0.0
O80 O 0.88218 0.47693 0.28444 0.0
O81 O 0.85066 0.39446 0.24837 0.0
O82 O -0.03369 0.37699 0.37308 0.0
O83 O 0.93038 0.37623 0.26639 0.0
H84 H -0.02533 0.30296 0.14847 0.0
H85 H 0.06245 0.40761 1.07523 0.0
H86 H 0.00954 0.44581 0.30534 0.0
O87 O 0.10473 0.90228 0.40314 0.0
Tb88 Tb 0.07295 0.82452 0.37839 0.0
Eu89 Eu -0.00757 0.7515 0.36969 0.0
C90 C 0.09214 0.95477 0.42068 0.0
O91 O 0.05971 0.96697 0.40274 0.0
C92 C 0.01956 0.82605 0.51753 0.0
O93 O 0.95734 0.6733 0.3753 0.0
C94 C 0.95498 0.82964 0.2949 0.0
C95 C -0.03018 0.62004 0.37769 0.0
O96 O 0.00351 0.61172 0.37786 0.0
C97 C 0.05504 0.74123 0.23298 0.0
C98 C 0.92561 0.82016 0.23701 0.0
C99 C 0.92253 0.8531 0.16234 0.0
C100 C 0.89688 0.83866 0.10287 0.0
C101 C 0.87318 0.79401 0.12108 0.0
C102 C 0.87649 0.76023 0.19385 0.0
C103 C 0.9029 0.77273 0.25125 0.0
O104 O 0.03106 0.85786 0.45481 0.0
O105 O 0.00853 0.77304 0.50247 0.0
O106 O 0.12083 0.78337 0.4209 0.0
O107 O 0.07373 0.73763 0.43631 0.0
C108 C 0.1071 0.7349 0.4476 0.0
O109 O 0.03375 0.71319 0.28444 0.0
O110 O 0.06527 0.79567 0.24837 0.0
O111 O 0.94962 0.81314 0.37307 0.0
O112 O -0.01446 0.8139 0.26639 0.0
H113 H 0.94125 0.88717 0.14847 0.0
H114 H 0.85348 0.78252 1.07523 0.0
H115 H 0.90639 0.74432 0.30534 0.0
O116 O 0.35473 0.53783 0.65311 0.0
Tb117 Tb 0.32295 0.6156 0.62837 0.0
Eu118 Eu 0.24244 0.6886 0.6197 0.0
C119 C 0.34213 0.48535 0.67064 0.0
O120 O 0.3097 0.47316 0.65268 0.0
C121 C 0.26956 0.61404 0.76754 0.0
O122 O 0.20734 0.7668 0.62533 0.0
C123 C 0.20499 0.61047 0.54489 0.0
C124 C 0.21983 0.82007 0.62774 0.0
O125 O 0.25352 0.82838 0.62792 0.0
C126 C 0.30504 0.6989 0.48298 0.0
C127 C 0.17561 0.61996 0.48703 0.0
C128 C 0.17253 0.58705 0.41234 0.0
C129 C 0.14687 0.60152 0.35288 0.0
C130 C 0.12318 0.64618 0.37112 0.0
C131 C 0.12649 0.67991 0.44394 0.0
C132 C 0.1529 0.66737 0.50133 0.0
O133 O 0.28108 0.58224 0.70482 0.0
O134 O 0.25855 0.66706 0.75248 0.0
O135 O 0.37083 0.65675 0.67085 0.0
O136 O 0.32373 0.70249 0.6863 0.0
C137 C 0.35711 0.70522 0.69756 0.0
O138 O 0.28375 0.72693 0.53445 0.0
O139 O 0.31527 0.64446 0.49835 0.0
O140 O 0.19964 0.62694 0.62308 0.0
O141 O 0.23555 0.62623 0.51637 0.0
H142 H 0.19125 0.55298 0.39843 0.0
H143 H 0.10349 0.6577 0.32529 0.0
H144 H 0.15639 0.69575 0.55546 0.0
O145 O 0.5612 0.65229 0.65311 0.0
Tb146 Tb 0.59298 0.57452 0.62837 0.0
Eu147 Eu 0.67349 0.50152 0.6197 0.0
C148 C 0.5738 0.70477 0.67064 0.0
O149 O 0.60623 0.71696 0.65268 0.0
C150 C 0.64637 0.57609 0.76754 0.0
O151 O 0.70859 0.42332 0.62533 0.0
C152 C 0.71094 0.57966 0.54489 0.0
C153 C 0.6961 0.37006 0.62774 0.0
O154 O 0.66241 0.36175 0.62792 0.0
C155 C 0.61089 0.49123 0.48298 0.0
C156 C 0.74032 0.57017 0.48703 0.0
C157 C 0.7434 0.60308 0.41234 0.0
C158 C 0.76906 0.58861 0.35288 0.0
C159 C 0.79275 0.54395 0.37112 0.0
C160 C 0.78944 0.51022 0.44394 0.0
C161 C 0.76303 0.52275 0.50133 0.0
O162 O 0.63485 0.60789 0.70482 0.0
O163 O 0.65738 0.52307 0.75248 0.0
O164 O 0.5451 0.53338 0.67086 0.0
O165 O 0.5922 0.48764 0.6863 0.0
C166 C 0.55882 0.48491 0.69757 0.0
O167 O 0.63218 0.4632 0.53445 0.0
O168 O 0.60066 0.54567 0.49836 0.0
O169 O 0.71629 0.56318 0.62308 0.0
O170 O 0.68038 0.5639 0.51637 0.0
H171 H 0.72468 0.63715 0.39843 0.0
H172 H 0.81244 0.53243 0.32529 0.0
H173 H 0.75954 0.49438 0.55547 0.0
O174 O 0.81121 0.78784 0.90316 0.0
Tb175 Tb 0.84299 0.86561 0.87837 0.0
Eu176 Eu 0.92351 0.93862 0.86968 0.0
C177 C 0.82381 0.73535 0.92067 0.0
O178 O 0.85624 0.72315 0.90271 0.0
C179 C 0.89638 0.86407 1.01753 0.0
O180 O -0.0414 1.01682 0.87529 0.0
C181 C -0.03904 0.86048 0.7949 0.0
C182 C 0.94611 1.07009 0.87768 0.0
O183 O 0.91242 1.0784 0.87785 0.0
C184 C 0.8609 0.9489 0.73297 0.0
C185 C -0.00967 0.86996 0.73701 0.0
C186 C -0.0066 0.83703 0.66234 0.0
C187 C 0.01906 0.85147 0.60287 0.0
C188 C 0.04276 0.89611 0.62108 0.0
C189 C 0.03946 0.92989 0.69385 0.0
C190 C 0.01305 0.91739 0.75125 0.0
O191 O 0.88487 0.83227 0.95481 0.0
O192 O 0.9074 0.91709 1.00247 0.0
O193 O 0.79509 0.90676 0.92078 0.0
O194 O 0.84223 0.95251 0.93626 0.0
C195 C 0.80885 0.95523 0.94736 0.0
O196 O 0.88219 0.97693 0.78442 0.0
O197 O 0.85067 0.89445 0.74836 0.0
O198 O -0.03368 0.87699 0.87307 0.0
O199 O 0.93039 0.87622 0.76639 0.0
H200 H -0.02532 0.80296 0.64846 0.0
H201 H 0.06246 0.9076 0.57523 0.0
H202 H 0.00955 0.9458 0.80535 0.0
O203 O 0.10472 0.40229 0.90316 0.0
Tb204 Tb 0.07294 0.32452 0.87837 0.0
Eu205 Eu -0.00758 0.25151 0.86968 0.0
C206 C 0.09212 0.45478 0.92067 0.0
O207 O 0.05969 0.46698 0.90271 0.0
C208 C 0.01955 0.32606 1.01753 0.0
O209 O 0.95733 0.1733 0.87529 0.0
C210 C 0.95497 0.32964 0.7949 0.0
C211 C -0.03018 0.12004 0.87768 0.0
O212 O 0.00351 0.11173 0.87786 0.0
C213 C 0.05503 0.24123 0.73297 0.0
C214 C 0.9256 0.32017 0.73701 0.0
C215 C 0.92253 0.3531 0.66234 0.0
C216 C 0.89687 0.33866 0.60287 0.0
C217 C 0.87317 0.29402 0.62108 0.0
C218 C 0.87647 0.26024 0.69385 0.0
C219 C 0.90288 0.27274 0.75125 0.0
O220 O 0.03106 0.35786 0.95481 0.0
O221 O 0.00853 0.27304 1.00247 0.0
O222 O 0.12084 0.28337 0.92078 0.0
O223 O 0.0737 0.23762 0.93626 0.0
C224 C 0.10708 0.2349 0.94736 0.0
O225 O 0.03374 0.21319 0.78442 0.0
O226 O 0.06526 0.29568 0.74836 0.0
O227 O 0.94961 0.31313 0.87307 0.0
O228 O -0.01446 0.3139 0.76638 0.0
H229 H 0.94125 0.38717 0.64846 0.0
H230 H 0.85347 0.28253 0.57523 0.0
H231 H 0.90638 0.24433 0.80535 0.0
O232 O 0.85472 1.03784 0.65316 0.0
Tb233 Tb 0.82294 0.11562 0.62839 0.0
Eu234 Eu 0.74241 0.18863 0.61973 0.0
C235 C 0.84212 0.98536 0.67065 0.0
O236 O 0.80969 0.97314 0.65271 0.0
C237 C 0.76956 0.11408 0.76756 0.0
O238 O 0.70733 0.26684 0.62535 0.0
C239 C 0.70496 0.11049 0.54496 0.0
C240 C 0.71981 0.3201 0.62773 0.0
O241 O 0.7535 0.32842 0.62789 0.0
C242 C 0.80501 0.19889 0.48298 0.0
C243 C 0.67559 0.11996 0.48705 0.0
C244 C 0.67253 1.08702 0.41239 0.0
C245 C 0.64688 0.10146 0.3529 0.0
C246 C 0.62317 0.1461 0.3711 0.0
C247 C 0.62647 0.17989 0.44386 0.0
C248 C 0.65288 0.16739 0.50127 0.0
O249 O 0.78106 1.08228 0.70484 0.0
O250 O 0.75853 0.16709 0.75251 0.0
O251 O 0.87084 0.15677 0.67078 0.0
O252 O 0.82371 0.20252 0.68627 0.0
C253 C 0.85709 0.20524 0.69737 0.0
O254 O 0.78372 0.22694 0.53445 0.0
O255 O 0.81525 0.14446 0.49837 0.0
O256 O 0.6996 0.12702 0.62312 0.0
O257 O 0.73553 0.12622 0.51645 0.0
H258 H 0.69125 1.05295 0.39852 0.0
H259 H 0.60348 0.15759 0.32524 0.0
H260 H 0.65637 0.19581 0.55536 0.0
O261 O 0.06121 0.15228 0.65316 0.0
Tb262 Tb 0.09299 1.07451 0.62839 0.0
Eu263 Eu 0.17352 1.00149 0.61973 0.0
C264 C 0.07381 0.20477 0.67065 0.0
O265 O 0.10624 0.21698 0.65271 0.0
C266 C 0.14637 1.07605 0.76757 0.0
O267 O 0.2086 0.92328 0.62535 0.0
C268 C 0.21097 1.07964 0.54496 0.0
C269 C 0.19612 0.87002 0.62773 0.0
O270 O 0.16243 0.86171 0.62789 0.0
C271 C 0.11093 0.99123 0.48298 0.0
C272 C 0.24034 1.07017 0.48706 0.0
C273 C 0.2434 0.10311 0.41239 0.0
C274 C 0.26905 1.08867 0.3529 0.0
C275 C 0.29276 1.04402 0.37109 0.0
C276 C 0.28946 1.01024 0.44386 0.0
C277 C 0.26305 1.02274 0.50128 0.0
O278 O 0.13487 0.10785 0.70484 0.0
O279 O 0.1574 1.02303 0.75251 0.0
O280 O 0.04509 1.03336 0.67078 0.0
O281 O 0.09222 0.98761 0.68627 0.0
C282 C 0.05884 0.98488 0.69737 0.0
O283 O 0.13221 0.96319 0.53445 0.0
O284 O 0.10068 1.04567 0.49837 0.0
O285 O 0.21633 1.06311 0.62312 0.0
O286 O 0.1804 1.06391 0.51645 0.0
H287 H 0.22468 0.13717 0.39852 0.0
H288 H 0.31245 1.03254 0.32524 0.0
H289 H 0.25956 0.99432 0.55537 0.0
O290 O 0.31118 0.28785 0.90314 0.0
Tb291 Tb 0.34297 0.36561 0.87838 0.0
Eu292 Eu 0.42349 0.43862 0.86971 0.0
C293 C 0.32378 0.23536 0.92063 0.0
O294 O 0.35621 0.22314 0.90267 0.0
C295 C 0.39636 0.36403 1.01752 0.0
O296 O 0.45859 0.51682 0.87534 0.0
C297 C 0.46094 0.36048 0.79489 0.0
C298 C 0.44611 0.57009 0.87772 0.0
O299 O 0.41242 0.57841 0.87787 0.0
C300 C 0.3609 0.44889 0.73297 0.0
C301 C 0.49031 0.36997 0.73702 0.0
C302 C 0.49339 0.33706 0.66232 0.0
C303 C 0.51905 0.35153 0.60286 0.0
C304 C 0.54274 0.39619 0.62109 0.0
C305 C 0.53943 0.42992 0.69391 0.0
C306 C 0.51303 0.41739 0.75131 0.0
O307 O 0.38484 0.33224 0.9548 0.0
O308 O 0.40738 0.41705 1.00248 0.0
O309 O 0.29509 0.40677 0.92089 0.0
O310 O 0.3422 0.4525 0.93631 0.0
C311 C 0.30882 0.45524 0.94759 0.0
O312 O 0.38217 0.47693 0.78445 0.0
O313 O 0.35064 0.39446 0.74836 0.0
O314 O 0.46629 0.37696 0.87308 0.0
O315 O 0.43038 0.37624 0.76637 0.0
H316 H 0.47467 0.30299 0.64843 0.0
H317 H 0.56243 0.40771 0.57525 0.0
H318 H 0.50954 0.44577 0.80544 0.0
O319 O 0.60475 0.90228 0.90314 0.0
Tb320 Tb 0.57296 0.82451 0.87838 0.0
Eu321 Eu 0.49244 0.75151 0.86971 0.0
C322 C 0.59215 0.95477 0.92063 0.0
O323 O 0.55972 0.96698 0.90267 0.0
C324 C 0.51957 0.8261 1.01752 0.0
O325 O 0.45734 0.67331 0.87534 0.0
C326 C 0.45499 0.82965 0.79489 0.0
C327 C 0.46982 0.62004 0.87772 0.0
O328 O 0.50351 0.61171 0.87787 0.0
C329 C 0.55503 0.74124 0.73297 0.0
C330 C 0.42562 0.82016 0.73702 0.0
C331 C 0.42254 0.85307 0.66232 0.0
C332 C 0.39688 0.8386 0.60286 0.0
C333 C 0.37319 0.79393 0.62109 0.0
C334 C 0.3765 0.76021 0.69391 0.0
C335 C 0.4029 0.77274 0.75131 0.0
O336 O 0.53109 0.85789 0.9548 0.0
O337 O 0.50855 0.77308 1.00248 0.0
O338 O 0.62084 0.78335 0.92089 0.0
O339 O 0.57373 0.73763 0.93631 0.0
C340 C 0.60711 0.73489 0.94759 0.0
O341 O 0.53376 0.7132 0.78445 0.0
O342 O 0.56529 0.79567 0.74836 0.0
O343 O 0.44964 0.81317 0.87308 0.0
O344 O 0.48555 0.81388 0.76637 0.0
H345 H 0.44126 0.88714 0.64843 0.0
H346 H 0.3535 0.78241 0.57525 0.0
H347 H 0.40639 0.74436 0.80544 0.0
O348 O 0.85474 0.53783 0.15313 0.0
Tb349 Tb 0.82296 0.6156 0.12837 0.0
Eu350 Eu 0.74243 0.68858 0.1197 0.0
C351 C 0.84213 0.48535 0.17062 0.0
O352 O 0.80971 0.47314 0.15265 0.0
C353 C 0.76957 0.61403 0.26754 0.0
O354 O 0.70734 0.76678 0.12533 0.0
C355 C 0.70499 0.61045 1.0449 0.0
C356 C 0.71982 0.82005 0.12774 0.0
O357 O 0.75352 0.82836 0.12792 0.0
C358 C 0.80503 0.69888 0.98297 0.0
C359 C 0.67561 0.61994 0.98704 0.0
C360 C 0.67253 0.58703 0.91234 0.0
C361 C 0.64688 0.60151 0.85288 0.0
C362 C 0.62319 0.64617 0.87111 0.0
C363 C 0.6265 0.6799 0.94394 0.0
C364 C 0.6529 0.66736 1.00134 0.0
O365 O 0.7811 0.58223 0.20483 0.0
O366 O 0.75855 0.66704 0.25248 0.0
O367 O 0.87086 0.65676 0.17076 0.0
O368 O 0.82372 0.7025 0.18627 0.0
C369 C 0.85711 0.70523 0.19735 0.0
O370 O 0.78375 0.72691 1.03444 0.0
O371 O 0.81528 0.64444 0.99835 0.0
O372 O 0.69964 0.62693 0.12309 0.0
O373 O 0.73555 0.6262 1.01638 0.0
H374 H 0.69125 0.55296 0.89843 0.0
H375 H 0.6035 0.6577 0.82527 0.0
H376 H 0.65639 0.69573 1.05547 0.0
O377 O 0.06119 0.65229 0.15313 0.0
Tb378 Tb 0.09297 0.57452 0.12837 0.0
Eu379 Eu 0.1735 0.50154 0.1197 0.0
C380 C 0.0738 0.70478 0.17062 0.0
O381 O 0.10622 0.71699 0.15265 0.0
C382 C 0.14636 0.5761 0.26754 0.0
O383 O 0.20859 0.42334 0.12532 0.0
C384 C 0.21094 0.57968 1.0449 0.0
C385 C 0.19611 0.37008 0.12774 0.0
O386 O 0.16241 0.36177 0.12792 0.0
C387 C 0.1109 0.49125 0.98296 0.0
C388 C 0.24032 0.57019 0.98704 0.0
C389 C 0.2434 0.60309 0.91234 0.0
C390 C 0.26905 0.58861 0.85288 0.0
C391 C 0.29274 0.54395 0.87111 0.0
C392 C 0.28943 0.51023 0.94394 0.0
C393 C 0.26303 0.52277 1.00134 0.0
O394 O 0.13483 0.60789 0.20483 0.0
O395 O 0.15738 0.52308 0.25248 0.0
O396 O 0.04507 0.53337 0.17076 0.0
O397 O 0.09221 0.48763 0.18627 0.0
C398 C 0.05882 0.4849 0.19735 0.0
O399 O 0.13218 0.46321 1.03444 0.0
O400 O 0.10065 0.54569 0.99835 0.0
O401 O 0.21629 0.5632 0.12309 0.0
O402 O 0.18038 0.56392 1.01638 0.0
H403 H 0.22468 0.63716 0.89844 0.0
H404 H 0.31243 0.53243 0.82527 0.0
H405 H 0.25954 0.4944 1.05547 0.0
O406 O 0.3112 0.78784 0.40315 0.0
Tb407 Tb 0.34298 0.86561 0.37837 0.0
Eu408 Eu 0.4235 0.93861 0.3697 0.0
C409 C 0.3238 0.73535 0.42062 0.0
O410 O 0.35622 0.72314 0.40264 0.0
C411 C 0.39637 0.86403 0.51752 0.0
O412 O 0.45859 1.01682 0.37533 0.0
C413 C 0.46095 0.86048 0.29489 0.0
C414 C 0.44611 1.07009 0.37771 0.0
O415 O 0.41242 1.07841 0.37787 0.0
C416 C 0.3609 0.94889 0.23296 0.0
C417 C 0.49032 0.86996 0.23702 0.0
C418 C 0.4934 0.83706 0.16232 0.0
C419 C 0.51905 0.85153 0.10286 0.0
C420 C 0.54275 0.89619 0.12109 0.0
C421 C 0.53944 0.92991 0.19391 0.0
C422 C 0.51304 0.91738 0.25131 0.0
O423 O 0.38485 0.83224 0.4548 0.0
O424 O 0.40739 0.91705 0.50247 0.0
O425 O 0.29508 0.90677 0.42077 0.0
O426 O 0.34222 0.95251 0.43626 0.0
C427 C 0.30884 0.95524 0.44736 0.0
O428 O 0.38218 0.97693 0.28444 0.0
O429 O 0.35066 0.89445 0.24835 0.0
O430 O 0.4663 0.87696 0.37307 0.0
O431 O 0.43039 0.87624 0.26637 0.0
H432 H 0.47468 0.80299 0.14842 0.0
H433 H 0.56244 0.9077 1.07525 0.0
H434 H 0.50955 0.94576 0.30545 0.0
O435 O 0.60473 0.40228 0.40315 0.0
Tb436 Tb 0.57295 0.32452 0.37837 0.0
Eu437 Eu 0.49243 0.25151 0.3697 0.0
C438 C 0.59213 0.45477 0.42062 0.0
O439 O 0.55971 0.46699 0.40264 0.0
C440 C 0.51956 0.3261 0.51752 0.0
O441 O 0.45734 0.17331 0.37533 0.0
C442 C 0.45498 0.32965 0.29489 0.0
C443 C 0.46982 0.12004 0.37771 0.0
O444 O 0.50351 0.11172 0.37787 0.0
C445 C 0.55503 0.24124 0.23296 0.0
C446 C 0.42561 0.32016 0.23702 0.0
C447 C 0.42253 0.35307 0.16232 0.0
C448 C 0.39688 0.3386 0.10286 0.0
C449 C 0.37318 0.29394 0.12109 0.0
C450 C 0.37649 0.26022 0.19391 0.0
C451 C 0.40289 0.27275 0.25131 0.0
O452 O 0.53108 0.35789 0.4548 0.0
O453 O 0.50854 0.27308 0.50247 0.0
O454 O 0.62085 0.28336 0.42077 0.0
O455 O 0.57371 0.23762 0.43626 0.0
C456 C 0.60709 0.23489 0.44736 0.0
O457 O 0.53375 0.2132 0.28444 0.0
O458 O 0.56527 0.29567 0.24835 0.0
O459 O 0.44963 0.31316 0.37307 0.0
O460 O 0.48554 0.31389 0.26637 0.0
H461 H 0.44125 0.38714 0.14842 0.0
H462 H 0.35349 0.28242 1.07525 0.0
H463 H 0.40638 0.24437 0.30545 0.0
loop_
_geom_bond_atom_site_label_1
_geom_bond_atom_site_label_2
_geom_bond_distance
_geom_bond_site_symmetry_2
_ccdc_geom_bond_type
O0 Tb1 2.292 1_565 S
O0 C3 1.255 . S
Tb1 O0 2.292 1_545 S
Tb1 O17 2.326 . S
Tb1 O19 2.500 . S
Tb1 O20 2.473 . S
Tb1 O23 2.324 1_554 S
Eu2 O6 2.292 . S
Eu2 C7 2.852 1_554 S
Eu2 O18 2.324 . S
Eu2 O22 2.326 1_554 S
Eu2 O24 2.500 1_554 S
Eu2 O25 2.473 . S
C3 O0 1.255 . S
C3 O4 1.247 . S
O4 C3 1.247 . S
C5 O17 1.242 . S
C5 O18 1.258 . S
O6 Eu2 2.292 . S
O6 C8 1.255 . S
C7 Eu2 2.852 1_556 S
C7 C11 1.503 . S
C7 O24 1.273 . S
C7 O25 1.257 1_556 S
C8 O6 1.255 . S
C8 O9 1.247 . S
O9 C8 1.247 . S
C10 O22 1.242 . S
C10 O23 1.258 . S
C11 C7 1.503 . S
C11 C12 1.379 . S
C11 C16 1.392 . S
C12 C11 1.379 . S
C12 C13 1.404 1_545 S
C12 H26 0.929 1_545 S
C13 C12 1.404 1_565 S
C13 C14 1.389 1_565 S
C14 C13 1.389 1_545 S
C14 C15 1.399 . S
C14 H27 0.931 . S
C15 C14 1.399 . S
C15 C16 1.390 . S
C16 C11 1.392 . S
C16 C15 1.390 . S
C16 H28 0.929 . S
O17 Tb1 2.326 . S
O17 C5 1.242 . S
O18 Eu2 2.324 . S
O18 C5 1.258 . S
O19 Tb1 2.500 . S
O19 C21 1.273 . S
O20 Tb1 2.473 . S
O20 C21 1.257 . S
C21 O19 1.273 . S
C21 O20 1.257 . S
O22 Eu2 2.326 1_556 S
O22 C10 1.242 . S
O23 Tb1 2.324 1_556 S
O23 C10 1.258 . S
O24 Eu2 2.500 1_556 S
O24 C7 1.273 . S
O25 Eu2 2.473 . S
O25 C7 1.257 1_554 S
H26 C12 0.929 1_565 S
H27 C14 0.931 . S
H28 C16 0.929 . S
O29 Tb30 2.292 1_545 S
O29 C32 1.255 . S
Tb30 O29 2.292 1_565 S
Tb30 O46 2.326 . S
Tb30 O48 2.500 . S
Tb30 O49 2.473 . S
Tb30 O52 2.324 1_554 S
Eu31 O35 2.292 . S
Eu31 C36 2.852 1_554 S
Eu31 O47 2.324 . S
Eu31 O51 2.326 1_554 S
Eu31 O53 2.500 1_554 S
Eu31 O54 2.473 . S
C32 O29 1.255 . S
C32 O33 1.247 . S
O33 C32 1.247 . S
C34 O46 1.242 . S
C34 O47 1.258 . S
O35 Eu31 2.292 . S
O35 C37 1.255 . S
C36 Eu31 2.852 1_556 S
C36 C40 1.503 . S
C36 O53 1.273 . S
C36 O54 1.257 1_556 S
C37 O35 1.255 . S
C37 O38 1.247 . S
O38 C37 1.247 . S
C39 O51 1.242 . S
C39 O52 1.258 . S
C40 C36 1.503 . S
C40 C41 1.379 . S
C40 C45 1.392 . S
C41 C40 1.379 . S
C41 C42 1.404 1_565 S
C41 H55 0.929 1_565 S
C42 C41 1.404 1_545 S
C42 C43 1.389 1_545 S
C43 C42 1.389 1_565 S
C43 C44 1.399 . S
C43 H56 0.931 . S
C44 C43 1.399 . S
C44 C45 1.390 . S
C45 C40 1.392 . S
C45 C44 1.390 . S
C45 H57 0.929 . S
O46 Tb30 2.326 . S
O46 C34 1.242 . S
O47 Eu31 2.324 . S
O47 C34 1.258 . S
O48 Tb30 2.500 . S
O48 C50 1.273 . S
O49 Tb30 2.473 . S
O49 C50 1.257 . S
C50 O48 1.273 . S
C50 O49 1.257 . S
O51 Eu31 2.326 1_556 S
O51 C39 1.242 . S
O52 Tb30 2.324 1_556 S
O52 C39 1.258 . S
O53 Eu31 2.500 1_556 S
O53 C36 1.273 . S
O54 Eu31 2.473 . S
O54 C36 1.257 1_554 S
H55 C41 0.929 1_545 S
H56 C43 0.931 . S
H57 C45 0.929 . S
O58 Tb59 2.292 . S
O58 C61 1.255 . S
Tb59 O58 2.292 . S
Tb59 O75 2.326 . S
Tb59 O77 2.500 . S
Tb59 O78 2.473 . S
Tb59 O81 2.324 . S
Eu60 O64 2.292 . S
Eu60 C65 2.852 1_655 S
Eu60 O76 2.324 . S
Eu60 O80 2.326 . S
Eu60 O82 2.500 1_655 S
Eu60 O83 2.473 1_655 S
C61 O58 1.255 . S
C61 O62 1.247 . S
O62 C61 1.247 . S
C63 O75 1.242 . S
C63 O76 1.258 . S
O64 Eu60 2.292 . S
O64 C66 1.255 . S
C65 Eu60 2.852 1_455 S
C65 C69 1.503 . S
C65 O82 1.273 . S
C65 O83 1.257 . S
C66 O64 1.255 . S
C66 O67 1.247 . S
O67 C66 1.247 . S
C68 O80 1.242 . S
C68 O81 1.258 . S
C69 C65 1.503 . S
C69 C70 1.379 . S
C69 C74 1.392 . S
C70 C69 1.379 . S
C70 C71 1.404 . S
C70 H84 0.929 . S
C71 C70 1.404 . S
C71 C72 1.389 . S
C72 C71 1.389 . S
C72 C73 1.399 . S
C72 H85 0.931 1_554 S
C73 C72 1.399 . S
C73 C74 1.390 . S
C74 C69 1.392 . S
C74 C73 1.390 . S
C74 H86 0.929 . S
O75 Tb59 2.326 . S
O75 C63 1.242 . S
O76 Eu60 2.324 . S
O76 C63 1.258 . S
O77 Tb59 2.500 . S
O77 C79 1.273 . S
O78 Tb59 2.473 . S
O78 C79 1.257 . S
C79 O77 1.273 . S
C79 O78 1.257 . S
O80 Eu60 2.326 . S
O80 C68 1.242 . S
O81 Tb59 2.324 . S
O81 C68 1.258 . S
O82 Eu60 2.500 1_455 S
O82 C65 1.273 . S
O83 Eu60 2.473 1_455 S
O83 C65 1.257 . S
H84 C70 0.929 . S
H85 C72 0.931 1_556 S
H86 C74 0.929 . S
O87 Tb88 2.292 . S
O87 C90 1.255 . S
Tb88 O87 2.292 . S
Tb88 O104 2.326 . S
Tb88 O106 2.500 . S
Tb88 O107 2.473 . S
Tb88 O110 2.324 . S
Eu89 O93 2.292 . S
Eu89 C94 2.852 1_455 S
Eu89 O105 2.324 . S
Eu89 O109 2.326 . S
Eu89 O111 2.500 1_455 S
Eu89 O112 2.473 1_455 S
C90 O87 1.255 . S
C90 O91 1.247 . S
O91 C90 1.247 . S
C92 O104 1.242 . S
C92 O105 1.258 . S
O93 Eu89 2.292 . S
O93 C95 1.255 . S
C94 Eu89 2.852 1_655 S
C94 C98 1.503 . S
C94 O111 1.273 . S
C94 O112 1.257 . S
C95 O93 1.255 . S
C95 O96 1.247 . S
O96 C95 1.247 . S
C97 O109 1.242 . S
C97 O110 1.258 . S
C98 C94 1.503 . S
C98 C99 1.379 . S
C98 C103 1.392 . S
C99 C98 1.379 . S
C99 C100 1.404 . S
C99 H113 0.929 . S
C100 C99 1.404 . S
C100 C101 1.389 . S
C101 C100 1.389 . S
C101 C102 1.399 . S
C101 H114 0.931 1_554 S
C102 C101 1.399 . S
C102 C103 1.390 . S
C103 C98 1.392 . S
C103 C102 1.390 . S
C103 H115 0.929 . S
O104 Tb88 2.326 . S
O104 C92 1.242 . S
O105 Eu89 2.324 . S
O105 C92 1.258 . S
O106 Tb88 2.500 . S
O106 C108 1.273 . S
O107 Tb88 2.473 . S
O107 C108 1.257 . S
C108 O106 1.273 . S
C108 O107 1.257 . S
O109 Eu89 2.326 . S
O109 C97 1.242 . S
O110 Tb88 2.324 . S
O110 C97 1.258 . S
O111 Eu89 2.500 1_655 S
O111 C94 1.273 . S
O112 Eu89 2.473 1_655 S
O112 C94 1.257 . S
H113 C99 0.929 . S
H114 C101 0.931 1_556 S
H115 C103 0.929 . S
O116 Tb117 2.292 . S
O116 C119 1.255 . S
Tb117 O116 2.292 . S
Tb117 O133 2.326 . S
Tb117 O135 2.500 . S
Tb117 O136 2.473 . S
Tb117 O139 2.324 . S
Eu118 O122 2.292 . S
Eu118 C123 2.852 . S
Eu118 O134 2.324 . S
Eu118 O138 2.326 . S
Eu118 O140 2.500 . S
Eu118 O141 2.473 . S
C119 O116 1.255 . S
C119 O120 1.247 . S
O120 C119 1.247 . S
C121 O133 1.242 . S
C121 O134 1.258 . S
O122 Eu118 2.292 . S
O122 C124 1.255 . S
C123 Eu118 2.852 . S
C123 C127 1.503 . S
C123 O140 1.273 . S
C123 O141 1.257 . S
C124 O122 1.255 . S
C124 O125 1.247 . S
O125 C124 1.247 . S
C126 O138 1.242 . S
C126 O139 1.258 . S
C127 C123 1.503 . S
C127 C128 1.379 . S
C127 C132 1.392 . S
C128 C127 1.379 . S
C128 C129 1.404 . S
C128 H142 0.929 . S
C129 C128 1.404 . S
C129 C130 1.389 . S
C130 C129 1.389 . S
C130 C131 1.399 . S
C130 H143 0.931 . S
C131 C130 1.399 . S
C131 C132 1.390 . S
C132 C127 1.392 . S
C132 C131 1.390 . S
C132 H144 0.929 . S
O133 Tb117 2.326 . S
O133 C121 1.242 . S
O134 Eu118 2.324 . S
O134 C121 1.258 . S
O135 Tb117 2.500 . S
O135 C137 1.273 . S
O136 Tb117 2.473 . S
O136 C137 1.257 . S
C137 O135 1.273 . S
C137 O136 1.257 . S
O138 Eu118 2.326 . S
O138 C126 1.242 . S
O139 Tb117 2.324 . S
O139 C126 1.258 . S
O140 Eu118 2.500 . S
O140 C123 1.273 . S
O141 Eu118 2.473 . S
O141 C123 1.257 . S
H142 C128 0.929 . S
H143 C130 0.931 . S
H144 C132 0.929 . S
O145 Tb146 2.292 . S
O145 C148 1.255 . S
Tb146 O145 2.292 . S
Tb146 O162 2.326 . S
Tb146 O164 2.500 . S
Tb146 O165 2.473 . S
Tb146 O168 2.324 . S
Eu147 O151 2.292 . S
Eu147 C152 2.852 . S
Eu147 O163 2.324 . S
Eu147 O167 2.326 . S
Eu147 O169 2.500 . S
Eu147 O170 2.473 . S
C148 O145 1.255 . S
C148 O149 1.247 . S
O149 C148 1.247 . S
C150 O162 1.242 . S
C150 O163 1.258 . S
O151 Eu147 2.292 . S
O151 C153 1.255 . S
C152 Eu147 2.852 . S
C152 C156 1.503 . S
C152 O169 1.273 . S
C152 O170 1.257 . S
C153 O151 1.255 . S
C153 O154 1.247 . S
O154 C153 1.247 . S
C155 O167 1.242 . S
C155 O168 1.258 . S
C156 C152 1.503 . S
C156 C157 1.379 . S
C156 C161 1.392 . S
C157 C156 1.379 . S
C157 C158 1.404 . S
C157 H171 0.929 . S
C158 C157 1.404 . S
C158 C159 1.389 . S
C159 C158 1.389 . S
C159 C160 1.399 . S
C159 H172 0.931 . S
C160 C159 1.399 . S
C160 C161 1.390 . S
C161 C156 1.392 . S
C161 C160 1.390 . S
C161 H173 0.929 . S
O162 Tb146 2.326 . S
O162 C150 1.242 . S
O163 Eu147 2.324 . S
O163 C150 1.258 . S
O164 Tb146 2.500 . S
O164 C166 1.273 . S
O165 Tb146 2.473 . S
O165 C166 1.257 . S
C166 O164 1.273 . S
C166 O165 1.257 . S
O167 Eu147 2.326 . S
O167 C155 1.242 . S
O168 Tb146 2.324 . S
O168 C155 1.258 . S
O169 Eu147 2.500 . S
O169 C152 1.273 . S
O170 Eu147 2.473 . S
O170 C152 1.257 . S
H171 C157 0.929 . S
H172 C159 0.931 . S
H173 C161 0.929 . S
O174 Tb175 2.292 . S
O174 C177 1.255 . S
Tb175 O174 2.292 . S
Tb175 O191 2.326 . S
Tb175 O193 2.500 . S
Tb175 O194 2.473 . S
Tb175 O197 2.324 . S
Eu176 O180 2.292 . S
Eu176 C181 2.852 1_655 S
Eu176 O192 2.324 . S
Eu176 O196 2.326 . S
Eu176 O198 2.500 1_655 S
Eu176 O199 2.473 1_655 S
C177 O174 1.255 . S
C177 O178 1.247 . S
O178 C177 1.247 . S
C179 O191 1.242 . S
C179 O192 1.258 . S
O180 Eu176 2.292 . S
O180 C182 1.255 1_565 S
C181 Eu176 2.852 1_455 S
C181 C185 1.503 . S
C181 O198 1.273 . S
C181 O199 1.257 . S
C182 O180 1.255 1_545 S
C182 O183 1.247 . S
O183 C182 1.247 . S
C184 O196 1.242 . S
C184 O197 1.258 . S
C185 C181 1.503 . S
C185 C186 1.379 . S
C185 C190 1.392 . S
C186 C185 1.379 . S
C186 C187 1.404 . S
C186 H200 0.929 . S
C187 C186 1.404 . S
C187 C188 1.389 . S
C188 C187 1.389 . S
C188 C189 1.399 . S
C188 H201 0.931 . S
C189 C188 1.399 . S
C189 C190 1.390 . S
C190 C185 1.392 . S
C190 C189 1.390 . S
C190 H202 0.929 . S
O191 Tb175 2.326 . S
O191 C179 1.242 . S
O192 Eu176 2.324 . S
O192 C179 1.258 . S
O193 Tb175 2.500 . S
O193 C195 1.273 . S
O194 Tb175 2.473 . S
O194 C195 1.257 . S
C195 O193 1.273 . S
C195 O194 1.257 . S
O196 Eu176 2.326 . S
O196 C184 1.242 . S
O197 Tb175 2.324 . S
O197 C184 1.258 . S
O198 Eu176 2.500 1_455 S
O198 C181 1.273 . S
O199 Eu176 2.473 1_455 S
O199 C181 1.257 . S
H200 C186 0.929 . S
H201 C188 0.931 . S
H202 C190 0.929 . S
O203 Tb204 2.292 . S
O203 C206 1.255 . S
Tb204 O203 2.292 . S
Tb204 O220 2.326 . S
Tb204 O222 2.500 . S
Tb204 O223 2.473 . S
Tb204 O226 2.324 . S
Eu205 O209 2.292 . S
Eu205 C210 2.852 1_455 S
Eu205 O221 2.324 . S
Eu205 O225 2.326 . S
Eu205 O227 2.500 1_455 S
Eu205 O228 2.473 1_455 S
C206 O203 1.255 . S
C206 O207 1.247 . S
O207 C206 1.247 . S
C208 O220 1.242 . S
C208 O221 1.258 . S
O209 Eu205 2.292 . S
O209 C211 1.255 1_545 S
C210 Eu205 2.852 1_655 S
C210 C214 1.503 . S
C210 O227 1.273 . S
C210 O228 1.257 . S
C211 O209 1.255 1_565 S
C211 O212 1.247 . S
O212 C211 1.247 . S
C213 O225 1.242 . S
C213 O226 1.258 . S
C214 C210 1.503 . S
C214 C215 1.379 . S
C214 C219 1.392 . S
C215 C214 1.379 . S
C215 C216 1.404 . S
C215 H229 0.929 . S
C216 C215 1.404 . S
C216 C217 1.389 . S
C217 C216 1.389 . S
C217 C218 1.399 . S
C217 H230 0.931 . S
C218 C217 1.399 . S
C218 C219 1.390 . S
C219 C214 1.392 . S
C219 C218 1.390 . S
C219 H231 0.929 . S
O220 Tb204 2.326 . S
O220 C208 1.242 . S
O221 Eu205 2.324 . S
O221 C208 1.258 . S
O222 Tb204 2.500 . S
O222 C224 1.273 . S
O223 Tb204 2.473 . S
O223 C224 1.257 . S
C224 O222 1.273 . S
C224 O223 1.257 . S
O225 Eu205 2.326 . S
O225 C213 1.242 . S
O226 Tb204 2.324 . S
O226 C213 1.258 . S
O227 Eu205 2.500 1_655 S
O227 C210 1.273 . S
O228 Eu205 2.473 1_655 S
O228 C210 1.257 . S
H229 C215 0.929 . S
H230 C217 0.931 . S
H231 C219 0.929 . S
O232 Tb233 2.292 1_565 S
O232 C235 1.255 . S
Tb233 O232 2.292 1_545 S
Tb233 O249 2.326 . S
Tb233 O251 2.500 . S
Tb233 O252 2.473 . S
Tb233 O255 2.324 . S
Eu234 O238 2.292 . S
Eu234 C239 2.852 . S
Eu234 O250 2.324 . S
Eu234 O254 2.326 . S
Eu234 O256 2.500 . S
Eu234 O257 2.473 . S
C235 O232 1.255 . S
C235 O236 1.247 . S
O236 C235 1.247 . S
C237 O249 1.242 . S
C237 O250 1.258 . S
O238 Eu234 2.292 . S
O238 C240 1.255 . S
C239 Eu234 2.852 . S
C239 C243 1.503 . S
C239 O256 1.273 . S
C239 O257 1.257 . S
C240 O238 1.255 . S
C240 O241 1.247 . S
O241 C240 1.247 . S
C242 O254 1.242 . S
C242 O255 1.258 . S
C243 C239 1.503 . S
C243 C244 1.379 . S
C243 C248 1.392 . S
C244 C243 1.379 . S
C244 C245 1.404 1_545 S
C244 H258 0.929 1_545 S
C245 C244 1.404 1_565 S
C245 C246 1.389 1_565 S
C246 C245 1.389 1_545 S
C246 C247 1.399 . S
C246 H259 0.931 . S
C247 C246 1.399 . S
C247 C248 1.390 . S
C248 C243 1.392 . S
C248 C247 1.390 . S
C248 H260 0.929 . S
O249 Tb233 2.326 . S
O249 C237 1.242 . S
O250 Eu234 2.324 . S
O250 C237 1.258 . S
O251 Tb233 2.500 . S
O251 C253 1.273 . S
O252 Tb233 2.473 . S
O252 C253 1.257 . S
C253 O251 1.273 . S
C253 O252 1.257 . S
O254 Eu234 2.326 . S
O254 C242 1.242 . S
O255 Tb233 2.324 . S
O255 C242 1.258 . S
O256 Eu234 2.500 . S
O256 C239 1.273 . S
O257 Eu234 2.473 . S
O257 C239 1.257 . S
H258 C244 0.929 1_565 S
H259 C246 0.931 . S
H260 C248 0.929 . S
O261 Tb262 2.292 1_545 S
O261 C264 1.255 . S
Tb262 O261 2.292 1_565 S
Tb262 O278 2.326 . S
Tb262 O280 2.500 . S
Tb262 O281 2.473 . S
Tb262 O284 2.324 . S
Eu263 O267 2.292 . S
Eu263 C268 2.852 . S
Eu263 O279 2.324 . S
Eu263 O283 2.326 . S
Eu263 O285 2.500 . S
Eu263 O286 2.473 . S
C264 O261 1.255 . S
C264 O265 1.247 . S
O265 C264 1.247 . S
C266 O278 1.242 . S
C266 O279 1.258 . S
O267 Eu263 2.292 . S
O267 C269 1.255 . S
C268 Eu263 2.852 . S
C268 C272 1.503 . S
C268 O285 1.273 . S
C268 O286 1.257 . S
C269 O267 1.255 . S
C269 O270 1.247 . S
O270 C269 1.247 . S
C271 O283 1.242 . S
C271 O284 1.258 . S
C272 C268 1.503 . S
C272 C273 1.379 . S
C272 C277 1.392 . S
C273 C272 1.379 . S
C273 C274 1.404 1_565 S
C273 H287 0.929 1_565 S
C274 C273 1.404 1_545 S
C274 C275 1.389 1_545 S
C275 C274 1.389 1_565 S
C275 C276 1.399 . S
C275 H288 0.931 . S
C276 C275 1.399 . S
C276 C277 1.390 . S
C277 C272 1.392 . S
C277 C276 1.390 . S
C277 H289 0.929 . S
O278 Tb262 2.326 . S
O278 C266 1.242 . S
O279 Eu263 2.324 . S
O279 C266 1.258 . S
O280 Tb262 2.500 . S
O280 C282 1.273 . S
O281 Tb262 2.473 . S
O281 C282 1.257 . S
C282 O280 1.273 . S
C282 O281 1.257 . S
O283 Eu263 2.326 . S
O283 C271 1.242 . S
O284 Tb262 2.324 . S
O284 C271 1.258 . S
O285 Eu263 2.500 . S
O285 C268 1.273 . S
O286 Eu263 2.473 . S
O286 C268 1.257 . S
H287 C273 0.929 1_545 S
H288 C275 0.931 . S
H289 C277 0.929 . S
O290 Tb291 2.292 . S
O290 C293 1.255 . S
Tb291 O290 2.292 . S
Tb291 O307 2.326 . S
Tb291 O309 2.500 . S
Tb291 O310 2.473 . S
Tb291 O313 2.324 . S
Eu292 O296 2.292 . S
Eu292 C297 2.852 . S
Eu292 O308 2.324 . S
Eu292 O312 2.326 . S
Eu292 O314 2.500 . S
Eu292 O315 2.473 . S
C293 O290 1.255 . S
C293 O294 1.247 . S
O294 C293 1.247 . S
C295 O307 1.242 . S
C295 O308 1.258 . S
O296 Eu292 2.292 . S
O296 C298 1.255 . S
C297 Eu292 2.852 . S
C297 C301 1.503 . S
C297 O314 1.273 . S
C297 O315 1.257 . S
C298 O296 1.255 . S
C298 O299 1.247 . S
O299 C298 1.247 . S
C300 O312 1.242 . S
C300 O313 1.258 . S
C301 C297 1.503 . S
C301 C302 1.379 . S
C301 C306 1.392 . S
C302 C301 1.379 . S
C302 C303 1.404 . S
C302 H316 0.929 . S
C303 C302 1.404 . S
C303 C304 1.389 . S
C304 C303 1.389 . S
C304 C305 1.399 . S
C304 H317 0.931 . S
C305 C304 1.399 . S
C305 C306 1.390 . S
C306 C301 1.392 . S
C306 C305 1.390 . S
C306 H318 0.929 . S
O307 Tb291 2.326 . S
O307 C295 1.242 . S
O308 Eu292 2.324 . S
O308 C295 1.258 . S
O309 Tb291 2.500 . S
O309 C311 1.273 . S
O310 Tb291 2.473 . S
O310 C311 1.257 . S
C311 O309 1.273 . S
C311 O310 1.257 . S
O312 Eu292 2.326 . S
O312 C300 1.242 . S
O313 Tb291 2.324 . S
O313 C300 1.258 . S
O314 Eu292 2.500 . S
O314 C297 1.273 . S
O315 Eu292 2.473 . S
O315 C297 1.257 . S
H316 C302 0.929 . S
H317 C304 0.931 . S
H318 C306 0.929 . S
O319 Tb320 2.292 . S
O319 C322 1.255 . S
Tb320 O319 2.292 . S
Tb320 O336 2.326 . S
Tb320 O338 2.500 . S
Tb320 O339 2.473 . S
Tb320 O342 2.324 . S
Eu321 O325 2.292 . S
Eu321 C326 2.852 . S
Eu321 O337 2.324 . S
Eu321 O341 2.326 . S
Eu321 O343 2.500 . S
Eu321 O344 2.473 . S
C322 O319 1.255 . S
C322 O323 1.247 . S
O323 C322 1.247 . S
C324 O336 1.242 . S
C324 O337 1.258 . S
O325 Eu321 2.292 . S
O325 C327 1.255 . S
C326 Eu321 2.852 . S
C326 C330 1.503 . S
C326 O343 1.273 . S
C326 O344 1.257 . S
C327 O325 1.255 . S
C327 O328 1.247 . S
O328 C327 1.247 . S
C329 O341 1.242 . S
C329 O342 1.258 . S
C330 C326 1.503 . S
C330 C331 1.379 . S
C330 C335 1.392 . S
C331 C330 1.379 . S
C331 C332 1.404 . S
C331 H345 0.929 . S
C332 C331 1.404 . S
C332 C333 1.389 . S
C333 C332 1.389 . S
C333 C334 1.399 . S
C333 H346 0.931 . S
C334 C333 1.399 . S
C334 C335 1.390 . S
C335 C330 1.392 . S
C335 C334 1.390 . S
C335 H347 0.929 . S
O336 Tb320 2.326 . S
O336 C324 1.242 . S
O337 Eu321 2.324 . S
O337 C324 1.258 . S
O338 Tb320 2.500 . S
O338 C340 1.273 . S
O339 Tb320 2.473 . S
O339 C340 1.257 . S
C340 O338 1.273 . S
C340 O339 1.257 . S
O341 Eu321 2.326 . S
O341 C329 1.242 . S
O342 Tb320 2.324 . S
O342 C329 1.258 . S
O343 Eu321 2.500 . S
O343 C326 1.273 . S
O344 Eu321 2.473 . S
O344 C326 1.257 . S
H345 C331 0.929 . S
H346 C333 0.931 . S
H347 C335 0.929 . S
O348 Tb349 2.292 . S
O348 C351 1.255 . S
Tb349 O348 2.292 . S
Tb349 O365 2.326 . S
Tb349 O367 2.500 . S
Tb349 O368 2.473 . S
Tb349 O371 2.324 1_554 S
Eu350 O354 2.292 . S
Eu350 C355 2.852 1_554 S
Eu350 O366 2.324 . S
Eu350 O370 2.326 1_554 S
Eu350 O372 2.500 1_554 S
Eu350 O373 2.473 . S
C351 O348 1.255 . S
C351 O352 1.247 . S
O352 C351 1.247 . S
C353 O365 1.242 . S
C353 O366 1.258 . S
O354 Eu350 2.292 . S
O354 C356 1.255 . S
C355 Eu350 2.852 1_556 S
C355 C359 1.503 . S
C355 O372 1.273 . S
C355 O373 1.257 1_556 S
C356 O354 1.255 . S
C356 O357 1.247 . S
O357 C356 1.247 . S
C358 O370 1.242 . S
C358 O371 1.258 . S
C359 C355 1.503 . S
C359 C360 1.379 . S
C359 C364 1.392 . S
C360 C359 1.379 . S
C360 C361 1.404 . S
C360 H374 0.929 . S
C361 C360 1.404 . S
C361 C362 1.389 . S
C362 C361 1.389 . S
C362 C363 1.399 . S
C362 H375 0.931 . S
C363 C362 1.399 . S
C363 C364 1.390 . S
C364 C359 1.392 . S
C364 C363 1.390 . S
C364 H376 0.929 . S
O365 Tb349 2.326 . S
O365 C353 1.242 . S
O366 Eu350 2.324 . S
O366 C353 1.258 . S
O367 Tb349 2.500 . S
O367 C369 1.273 . S
O368 Tb349 2.473 . S
O368 C369 1.257 . S
C369 O367 1.273 . S
C369 O368 1.257 . S
O370 Eu350 2.326 1_556 S
O370 C358 1.242 . S
O371 Tb349 2.324 1_556 S
O371 C358 1.258 . S
O372 Eu350 2.500 1_556 S
O372 C355 1.273 . S
O373 Eu350 2.473 . S
O373 C355 1.257 1_554 S
H374 C360 0.929 . S
H375 C362 0.931 . S
H376 C364 0.929 . S
O377 Tb378 2.292 . S
O377 C380 1.255 . S
Tb378 O377 2.292 . S
Tb378 O394 2.326 . S
Tb378 O396 2.500 . S
Tb378 O397 2.473 . S
Tb378 O400 2.324 1_554 S
Eu379 O383 2.292 . S
Eu379 C384 2.852 1_554 S
Eu379 O395 2.324 . S
Eu379 O399 2.326 1_554 S
Eu379 O401 2.500 1_554 S
Eu379 O402 2.473 . S
C380 O377 1.255 . S
C380 O381 1.247 . S
O381 C380 1.247 . S
C382 O394 1.242 . S
C382 O395 1.258 . S
O383 Eu379 2.292 . S
O383 C385 1.255 . S
C384 Eu379 2.852 1_556 S
C384 C388 1.503 . S
C384 O401 1.273 . S
C384 O402 1.257 1_556 S
C385 O383 1.255 . S
C385 O386 1.247 . S
O386 C385 1.247 . S
C387 O399 1.242 . S
C387 O400 1.258 . S
C388 C384 1.503 . S
C388 C389 1.379 . S
C388 C393 1.392 . S
C389 C388 1.379 . S
C389 C390 1.404 . S
C389 H403 0.929 . S
C390 C389 1.404 . S
C390 C391 1.389 . S
C391 C390 1.389 . S
C391 C392 1.399 . S
C391 H404 0.931 . S
C392 C391 1.399 . S
C392 C393 1.390 . S
C393 C388 1.392 . S
C393 C392 1.390 . S
C393 H405 0.929 . S
O394 Tb378 2.326 . S
O394 C382 1.242 . S
O395 Eu379 2.324 . S
O395 C382 1.258 . S
O396 Tb378 2.500 . S
O396 C398 1.273 . S
O397 Tb378 2.473 . S
O397 C398 1.257 . S
C398 O396 1.273 . S
C398 O397 1.257 . S
O399 Eu379 2.326 1_556 S
O399 C387 1.242 . S
O400 Tb378 2.324 1_556 S
O400 C387 1.258 . S
O401 Eu379 2.500 1_556 S
O401 C384 1.273 . S
O402 Eu379 2.473 . S
O402 C384 1.257 1_554 S
H403 C389 0.929 . S
H404 C391 0.931 . S
H405 C393 0.929 . S
O406 Tb407 2.292 . S
O406 C409 1.255 . S
Tb407 O406 2.292 . S
Tb407 O423 2.326 . S
Tb407 O425 2.500 . S
Tb407 O426 2.473 . S
Tb407 O429 2.324 . S
Eu408 O412 2.292 . S
Eu408 C413 2.852 . S
Eu408 O424 2.324 . S
Eu408 O428 2.326 . S
Eu408 O430 2.500 . S
Eu408 O431 2.473 . S
C409 O406 1.255 . S
C409 O410 1.247 . S
O410 C409 1.247 . S
C411 O423 1.242 . S
C411 O424 1.258 . S
O412 Eu408 2.292 . S
O412 C414 1.255 1_565 S
C413 Eu408 2.852 . S
C413 C417 1.503 . S
C413 O430 1.273 . S
C413 O431 1.257 . S
C414 O412 1.255 1_545 S
C414 O415 1.247 . S
O415 C414 1.247 . S
C416 O428 1.242 . S
C416 O429 1.258 . S
C417 C413 1.503 . S
C417 C418 1.379 . S
C417 C422 1.392 . S
C418 C417 1.379 . S
C418 C419 1.404 . S
C418 H432 0.929 . S
C419 C418 1.404 . S
C419 C420 1.389 . S
C420 C419 1.389 . S
C420 C421 1.399 . S
C420 H433 0.931 1_554 S
C421 C420 1.399 . S
C421 C422 1.390 . S
C422 C417 1.392 . S
C422 C421 1.390 . S
C422 H434 0.929 . S
O423 Tb407 2.326 . S
O423 C411 1.242 . S
O424 Eu408 2.324 . S
O424 C411 1.258 . S
O425 Tb407 2.500 . S
O425 C427 1.273 . S
O426 Tb407 2.473 . S
O426 C427 1.257 . S
C427 O425 1.273 . S
C427 O426 1.257 . S
O428 Eu408 2.326 . S
O428 C416 1.242 . S
O429 Tb407 2.324 . S
O429 C416 1.258 . S
O430 Eu408 2.500 . S
O430 C413 1.273 . S
O431 Eu408 2.473 . S
O431 C413 1.257 . S
H432 C418 0.929 . S
H433 C420 0.931 1_556 S
H434 C422 0.929 . S
O435 Tb436 2.292 . S
O435 C438 1.255 . S
Tb436 O435 2.292 . S
Tb436 O452 2.326 . S
Tb436 O454 2.500 . S
Tb436 O455 2.473 . S
Tb436 O458 2.324 . S
Eu437 O441 2.292 . S
Eu437 C442 2.852 . S
Eu437 O453 2.324 . S
Eu437 O457 2.326 . S
Eu437 O459 2.500 . S
Eu437 O460 2.473 . S
C438 O435 1.255 . S
C438 O439 1.247 . S
O439 C438 1.247 . S
C440 O452 1.242 . S
C440 O453 1.258 . S
O441 Eu437 2.292 . S
O441 C443 1.255 1_545 S
C442 Eu437 2.852 . S
C442 C446 1.503 . S
C442 O459 1.273 . S
C442 O460 1.257 . S
C443 O441 1.255 1_565 S
C443 O444 1.247 . S
O444 C443 1.247 . S
C445 O457 1.242 . S
C445 O458 1.258 . S
C446 C442 1.503 . S
C446 C447 1.379 . S
C446 C451 1.392 . S
C447 C446 1.379 . S
C447 C448 1.404 . S
C447 H461 0.929 . S
C448 C447 1.404 . S
C448 C449 1.389 . S
C449 C448 1.389 . S
C449 C450 1.399 . S
C449 H462 0.931 1_554 S
C450 C449 1.399 . S
C450 C451 1.390 . S
C451 C446 1.392 . S
C451 C450 1.390 . S
C451 H463 0.929 . S
O452 Tb436 2.326 . S
O452 C440 1.242 . S
O453 Eu437 2.324 . S
O453 C440 1.258 . S
O454 Tb436 2.500 . S
O454 C456 1.273 . S
O455 Tb436 2.473 . S
O455 C456 1.257 . S
C456 O454 1.273 . S
C456 O455 1.257 . S
O457 Eu437 2.326 . S
O457 C445 1.242 . S
O458 Tb436 2.324 . S
O458 C445 1.258 . S
O459 Eu437 2.500 . S
O459 C442 1.273 . S
O460 Eu437 2.473 . S
O460 C442 1.257 . S
H461 C447 0.929 . S
H462 C449 0.931 1_556 S
H463 C451 0.929 . S
C416 C3 3.296 . S
C445 C32 3.296 . S
C61 C242 3.298 . S
C271 C90 3.298 . S
C119 C300 3.298 . S
C329 C148 3.298 . S
C358 C177 3.299 . S
C206 C387 3.299 . S
C235 C184 3.298 . S
C264 C213 3.298 . S
C293 C10 3.299 . S
C322 C39 3.299 . S
C351 C68 3.296 . S
C97 C380 3.296 . S
C126 C409 3.298 . S
C155 C438 3.298 . S
C385 C8 1.630 . S
C356 C37 1.630 . S
C66 C95 1.630 1_655 S
C124 C269 1.630 . S
C240 C153 1.630 . S
C182 C211 1.630 1_645 S
C327 C298 1.630 . S
C414 C443 1.630 1_545 S
C274 C5 2.672 . S
C34 C245 2.672 . S
C63 C216 2.674 . S
C187 C92 2.674 . S
C121 C390 2.675 . S
C361 C150 2.675 . S
C100 C179 2.674 1_554 S
C71 C208 2.674 1_554 S
C42 C237 2.675 . S
C13 C266 2.675 . S
C448 C295 2.674 1_554 S
C419 C324 2.674 1_554 S
C353 C158 2.672 . S
C129 C382 2.672 . S
C411 C332 2.674 . S
C303 C440 2.674 . S
C224 C15 3.933 . S
C44 C195 3.933 . S
C73 C398 3.936 . S
C102 C369 3.936 . S
C131 C108 3.934 . S
C79 C160 3.934 . S
C189 C282 3.934 . S
C253 C218 3.934 . S
C247 C456 3.934 . S
C276 C427 3.934 . S
C305 C166 3.934 . S
C137 C334 3.934 . S
C340 C363 3.933 . S
C311 C392 3.933 . S
C421 C50 3.936 . S
C450 C21 3.936 . S
