# Generated by pormake.
# Topology sqp, (5)-cn, num edge types: 1
# Building blocks:
#     Node 0, Type 0, BuildingBlock: XOMCOT_clean_sbu_1, # of connection points: 5
#     Node 1, Type 0, BuildingBlock: XOMCOT_clean_sbu_1, # of connection points: 5
#     Node 2, Type 0, BuildingBlock: XOMCOT_clean_sbu_1, # of connection points: 5
#     Node 3, Type 0, BuildingBlock: XOMCOT_clean_sbu_1, # of connection points: 5
#     Edge 4, Type (0, 0), BuildingBlock: ZUJKAS_clean_linker_0, # of connection points: 2
#     Edge 5, Type (0, 0), BuildingBlock: ZUJKAS_clean_linker_0, # of connection points: 2
#     Edge 6, Type (0, 0), BuildingBlock: ZUJKAS_clean_linker_0, # of connection points: 2
#     Edge 7, Type (0, 0), BuildingBlock: ZUJKAS_clean_linker_0, # of connection points: 2
#     Edge 8, Type (0, 0), BuildingBlock: ZUJKAS_clean_linker_0, # of connection points: 2
#     Edge 9, Type (0, 0), BuildingBlock: ZUJKAS_clean_linker_0, # of connection points: 2
#     Edge 10, Type (0, 0), BuildingBlock: ZUJKAS_clean_linker_0, # of connection points: 2
#     Edge 11, Type (0, 0), BuildingBlock: ZUJKAS_clean_linker_0, # of connection points: 2
#     Edge 12, Type (0, 0), BuildingBlock: ZUJKAS_clean_linker_0, # of connection points: 2
#     Edge 13, Type (0, 0), BuildingBlock: ZUJKAS_clean_linker_0, # of connection points: 2
# Relax obj value: 0.083
# Max RMSD: 0.168
# Mean RMSD: 0.168
data_MOF--net-sqp--node1-XOMCOT_clean_sbu_1--edge1-ZUJKAS_clean_linker_0
_symmetry_space_group_name_H-M    P1
_symmetry_Int_Tables_number       1
_symmetry_cell_setting            triclinic
loop_
_symmetry_equiv_pos_as_xyz
'x, y, z'
_cell_length_a     30.294688
_cell_length_b     24.705312
_cell_length_c     59.28837
_cell_angle_alpha  90.345467
_cell_angle_beta   94.674497
_cell_angle_gamma 90.186721
loop_
_atom_site_label
_atom_site_type_symbol
_atom_site_fract_x
_atom_site_fract_y
_atom_site_fract_z
_atom_type_partial_charge
C0 C 0.03931 0.14433 0.30981 0.0
C1 C 1.0103 0.18704 0.30746 0.0
N2 N 0.97375 0.17043 0.29479 0.0
N3 N 0.02137 0.10096 0.29859 0.0
C4 C 0.98135 0.11805 0.28962 0.0
H5 H 0.07127 0.14457 0.31937 0.0
Co6 Co 0.04861 0.0335 0.2978 0.0
C7 C 0.98973 0.97352 0.26487 0.0
O8 O 0.024 0.96385 0.25324 0.0
N9 N 0.07639 0.96508 0.29752 0.0
C10 C 0.08868 0.87767 0.30446 0.0
C11 C 0.05788 0.91841 0.30401 0.0
C12 C 0.1185 0.95131 0.29386 0.0
N13 N 0.12675 0.89846 0.29807 0.0
O14 O 0.07064 0.05244 0.26952 0.0
H15 H 0.02431 0.91452 0.30877 0.0
H16 H 0.14335 0.9795 0.28906 0.0
O17 O 0.99485 1.00161 0.28304 0.0
C18 C 0.10795 0.07581 0.27385 0.0
O19 O 0.12418 0.07973 0.29504 0.0
N20 N 0.03093 1.01925 0.32633 0.0
C21 C 0.0171 1.01156 0.37193 0.0
C22 C 0.98141 1.00629 0.35538 0.0
C23 C 0.98899 1.01091 0.33246 0.0
C24 C 0.06586 1.0234 0.34216 0.0
C25 C 0.05976 1.01949 0.36504 0.0
H26 H 0.96124 1.00927 0.31982 0.0
H27 H 0.09867 0.03094 0.33689 0.0
H28 H 0.95824 0.0928 0.27941 0.0
H29 H 0.01536 0.22688 0.31494 0.0
H30 H 0.08362 0.836 0.30921 0.0
H31 H 0.94795 1.00062 0.36014 0.0
H32 H 0.0882 1.02318 0.37728 0.0
C33 C 0.03902 0.14266 0.67629 0.0
C34 C 0.06863 0.18495 0.67941 0.0
N35 N 0.10196 0.16995 0.69456 0.0
N36 N 0.05341 0.10083 0.68933 0.0
C37 C 0.09157 0.11877 0.70039 0.0
H38 H 1.00891 0.14229 0.66515 0.0
Co39 Co 0.02428 0.03382 0.69141 0.0
C40 C 0.11021 0.97009 0.69603 0.0
O41 O 0.10518 0.95366 0.6749 0.0
N42 N 0.99431 0.96654 0.69425 0.0
C43 C 0.97735 0.87876 0.69404 0.0
C44 C 1.01027 0.91596 0.69193 0.0
C45 C 0.9511 0.95846 0.69792 0.0
N46 N 0.93989 0.90531 0.69765 0.0
O47 O 1.00906 0.05437 0.72103 0.0
H48 H 0.04331 0.9055 0.68841 0.0
H49 H 0.9279 0.99093 0.69997 0.0
O50 O 0.08068 0.99996 0.70419 0.0
C51 C 0.97515 0.08463 0.71742 0.0
O52 O 0.95885 0.09208 0.69645 0.0
N53 N 0.03393 1.01831 0.66072 0.0
C54 C 0.03541 1.00753 0.61374 0.0
C55 C 0.07195 1.02917 0.62687 0.0
C56 C 0.07021 0.03522 0.65027 0.0
C57 C 0.99748 0.99971 0.64786 0.0
C58 C 0.99785 0.99294 0.62457 0.0
H59 H 0.09829 0.05318 0.66001 0.0
H60 H 0.96683 0.99217 0.65537 0.0
H61 H 0.11159 0.09437 0.7123 0.0
H62 H 0.06534 0.22389 0.67122 0.0
H63 H 0.98095 0.83526 0.69306 0.0
H64 H 0.10146 0.0418 0.61915 0.0
H65 H 0.96804 0.97868 0.61501 0.0
C66 C 0.54436 0.64594 0.80397 0.0
C67 C 0.51389 0.68661 0.80055 0.0
N68 N 0.47486 0.66443 0.79278 0.0
N69 N 0.52494 0.5981 0.79835 0.0
C70 C 0.48247 0.61054 0.79147 0.0
H71 H 0.57847 0.65073 0.8106 0.0
Co72 Co 0.55552 0.53358 0.80311 0.0
C73 C 0.4905 0.44504 0.79152 0.0
O74 O 0.50792 0.41811 0.80901 0.0
N75 N 0.5893 0.46781 0.80867 0.0
C76 C 0.62333 0.39825 0.82656 0.0
C77 C 0.59262 0.43829 0.82795 0.0
C78 C 0.61892 0.44366 0.79579 0.0
N79 N 0.64057 0.4019 0.80646 0.0
O80 O 0.5818 0.54509 0.77519 0.0
H81 H 0.57365 0.44421 0.84238 0.0
H82 H 0.62588 0.45752 0.7792 0.0
O83 O 0.50566 0.49212 0.78732 0.0
C84 C 0.61998 0.56639 0.77965 0.0
O85 O 0.63621 0.56918 0.80087 0.0
N86 N 0.53296 0.52973 0.83133 0.0
C87 C 0.51386 0.53826 0.87636 0.0
C88 C 0.48107 0.5215 0.8596 0.0
C89 C 0.49107 0.51857 0.83695 0.0
C90 C 0.56424 0.54882 0.84721 0.0
C91 C 0.55575 0.55242 0.86981 0.0
H92 H 0.46503 0.5085 0.82409 0.0
H93 H 0.59655 0.56008 0.84221 0.0
H94 H 0.4573 0.58072 0.78638 0.0
H95 H 0.52005 0.72934 0.80354 0.0
H96 H 0.63228 0.36881 0.83956 0.0
H97 H 0.44789 0.51186 0.86388 0.0
H98 H 0.58217 0.56536 0.88208 0.0
C99 C 0.52787 0.64703 0.18257 0.0
C100 C 0.55613 0.69069 0.18592 0.0
N101 N 0.58988 0.67654 0.20095 0.0
N102 N 0.54379 0.60538 0.19533 0.0
C103 C 0.58125 0.62482 0.20653 0.0
H104 H 0.49813 0.64529 0.17118 0.0
Co105 Co 0.51869 0.53604 0.19669 0.0
C106 C 0.60888 0.48214 0.20176 0.0
O107 O 0.60742 0.4701 0.18016 0.0
N108 N 0.49322 0.46583 0.19894 0.0
C109 C 0.48269 0.37655 0.19773 0.0
C110 C 0.51258 0.41756 0.19554 0.0
C111 C 0.45112 0.45258 0.20306 0.0
N112 N 0.44393 0.39851 0.20243 0.0
O113 O 0.50078 0.55412 0.22616 0.0
H114 H 0.54573 0.41171 0.19084 0.0
H115 H 0.42588 0.48188 0.20612 0.0
O116 O 0.57629 0.50645 0.2099 0.0
C117 C 0.46362 0.57739 0.22125 0.0
O118 O 0.44929 0.58116 0.19977 0.0
N119 N 0.52992 0.52304 0.16586 0.0
C120 C 0.52861 0.52146 0.11848 0.0
C121 C 0.56424 0.54495 0.13171 0.0
C122 C 0.56394 0.54606 0.15532 0.0
C123 C 0.4949 0.50088 0.15296 0.0
C124 C 0.49425 0.49816 0.12953 0.0
H125 H 0.59073 0.56659 0.16509 0.0
H126 H 0.46555 0.48773 0.1605 0.0
H127 H 0.60184 0.60153 0.21862 0.0
H128 H 0.55266 0.72928 0.17743 0.0
H129 H 0.48868 0.33386 0.19519 0.0
H130 H 0.59109 0.56459 0.12391 0.0
H131 H 0.46596 0.47958 0.12012 0.0
H132 H 0.0497 0.08327 0.40395 0.0
H133 H 0.04641 0.07755 0.44489 0.0
H134 H 0.96651 0.93295 0.43625 0.0
H135 H 0.97012 0.93815 0.395 0.0
H136 H 0.97036 0.07273 0.4715 0.0
H137 H 0.07723 0.88956 0.47929 0.0
H138 H 0.07388 0.93159 0.4544 0.0
H139 H 0.02923 0.88643 0.45933 0.0
C140 C 0.03131 0.05033 0.41077 0.0
C141 C 1.0106 1.01074 0.39639 0.0
C142 C 0.0293 0.04727 0.43411 0.0
C143 C 1.00679 1.00444 0.44353 0.0
C144 C 0.98454 0.96591 0.42923 0.0
H145 H 1.00196 0.92507 0.58644 0.0
H146 H 0.99305 0.92301 0.54507 0.0
C147 C 0.98632 0.96913 0.40575 0.0
C148 C 1.00817 0.99985 0.46841 0.0
H149 H 0.05466 0.92728 0.51299 0.0
C150 C 0.98847 0.04074 0.48061 0.0
C151 C 0.0319 0.95805 0.48014 0.0
C152 C 0.05459 0.91396 0.46773 0.0
C153 C 0.99218 0.04124 0.50434 0.0
C154 C 0.01713 1.00041 0.51609 0.0
C155 C 0.03584 0.9587 0.50389 0.0
C156 C 0.02453 1.00069 0.54107 0.0
C157 C 0.96916 0.08531 0.51659 0.0
C158 C 0.0464 0.0443 0.55247 0.0
C159 C 0.05131 0.04578 0.5761 0.0
C160 C 0.03467 1.00344 0.58873 0.0
C161 C 0.01449 0.95871 0.57719 0.0
C162 C 1.00953 0.95734 0.55358 0.0
H163 H 0.94187 0.10378 0.5056 0.0
H164 H 0.95537 0.06946 0.53205 0.0
H165 H 0.99339 0.11774 0.52176 0.0
H166 H 0.0591 0.0776 0.54308 0.0
H167 H 0.06676 0.08094 0.58445 0.0
H168 H 0.45452 0.54039 0.09022 0.0
H169 H 0.44749 0.54105 0.04909 0.0
H170 H 0.58804 0.5146 0.04833 0.0
H171 H 0.59502 0.51047 0.08974 0.0
H172 H 0.48141 0.60681 0.02029 0.0
H173 H 0.53984 0.39838 0.00517 0.0
H174 H 0.5272 0.42194 0.03276 0.0
H175 H 0.57957 0.43834 0.02213 0.0
C176 C 0.48391 0.53349 0.08139 0.0
C177 C 0.52525 0.52421 0.09335 0.0
C178 C 0.47985 0.53448 0.05782 0.0
C179 C 0.51703 0.52678 0.0456 0.0
C180 C 0.55866 0.51918 0.05741 0.0
H181 H 0.54088 0.61621 0.90735 0.0
H182 H 0.53744 0.61319 0.9482 0.0
C183 C 0.56272 0.51758 0.08108 0.0
C184 C 0.51197 0.52814 0.02052 0.0
H185 H 0.53136 0.45612 0.97307 0.0
C186 C 0.49209 0.5737 0.00997 0.0
C187 C 0.52503 0.48445 0.00706 0.0
C188 C 0.54367 0.43278 0.01734 0.0
C189 C 0.4858 0.57731 0.98633 0.0
C190 C 0.50102 0.5349 0.97287 0.0
C191 C 0.51995 0.48878 0.98341 0.0
C192 C 0.49972 0.53858 0.94788 0.0
C193 C 0.46243 0.62628 0.97609 0.0
C194 C 0.48002 0.49732 0.93405 0.0
C195 C 0.48275 0.49833 0.91061 0.0
C196 C 0.50547 0.54051 0.90066 0.0
C197 C 0.52366 0.58275 0.91451 0.0
C198 C 0.52121 0.58149 0.93788 0.0
H199 H 0.43993 0.64452 0.98791 0.0
H200 H 0.4874 0.6574 0.97255 0.0
H201 H 0.44281 0.61592 0.96 0.0
H202 H 0.46343 0.46368 0.94146 0.0
H203 H 0.46878 0.46496 0.90043 0.0
H204 H 0.19565 0.06898 0.27057 0.0
H205 H 0.24084 0.12696 0.24838 0.0
H206 H 0.1227 0.20027 0.21673 0.0
H207 H 0.07694 0.14117 0.23892 0.0
H208 H 0.23874 0.15214 0.19809 0.0
H209 H 0.19752 0.32254 0.25482 0.0
H210 H 0.18986 0.25297 0.26285 0.0
H211 H 0.15357 0.28224 0.24087 0.0
C212 C 0.17927 0.09625 0.25835 0.0
C213 C 0.13296 0.10067 0.25634 0.0
C214 C 0.20508 0.12937 0.24572 0.0
C215 C 0.1851 0.16819 0.23113 0.0
C216 C 0.13865 0.17055 0.22798 0.0
H217 H 0.3595 0.43443 0.19317 0.0
H218 H 0.291 0.38236 0.19607 0.0
C219 C 0.11261 0.13658 0.24046 0.0
C220 C 0.21373 0.20919 0.22143 0.0
H221 H 0.25792 0.3346 0.23305 0.0
C222 C 0.24228 0.19254 0.20529 0.0
C223 C 0.21816 0.26187 0.23084 0.0
C224 C 0.18835 0.28137 0.24836 0.0
C225 C 0.27669 0.22624 0.19918 0.0
C226 C 0.28341 0.27724 0.20998 0.0
C227 C 0.25294 0.29536 0.22493 0.0
C228 C 0.3244 0.30936 0.20794 0.0
C229 C 0.30632 0.2062 0.18168 0.0
C230 C 0.36573 0.28623 0.21432 0.0
C231 C 0.40465 0.31579 0.21281 0.0
C232 C 0.40326 0.36948 0.20506 0.0
C233 C 0.36173 0.39328 0.19929 0.0
C234 C 0.32261 0.36347 0.20077 0.0
H235 H 0.28843 0.17738 0.16969 0.0
H236 H 0.3192 0.2402 0.17192 0.0
H237 H 0.33486 0.18441 0.19028 0.0
H238 H 0.3679 0.24522 0.22067 0.0
H239 H 0.43593 0.29664 0.2179 0.0
H240 H 0.96948 0.27886 0.28851 0.0
H241 H 0.90369 0.33248 0.27764 0.0
H242 H 0.82328 0.18789 0.27599 0.0
H243 H 0.88927 0.13386 0.28662 0.0
H244 H 0.80422 0.24649 0.23937 0.0
H245 H 0.80465 0.38272 0.31366 0.0
H246 H 0.85648 0.38497 0.30109 0.0
H247 H 0.83878 0.32298 0.31348 0.0
C248 C 0.93773 0.25853 0.28614 0.0
C249 C 0.93468 0.20204 0.28851 0.0
C250 C 0.90002 0.28933 0.28004 0.0
C251 C 0.85823 0.26453 0.2765 0.0
C252 C 0.85507 0.20808 0.2788 0.0
H253 H 0.60951 0.44624 0.24574 0.0
H254 H 0.66865 0.39332 0.26626 0.0
C255 C 0.89287 0.17716 0.28474 0.0
C256 C 0.81851 0.29699 0.26882 0.0
H257 H 0.76078 0.41155 0.28012 0.0
C258 C 0.79447 0.28215 0.24847 0.0
C259 C 0.8051 0.34312 0.28083 0.0
C260 C 0.82733 0.35905 0.3036 0.0
C261 C 0.75884 0.31335 0.23931 0.0
C262 C 0.74747 0.36155 0.25048 0.0
C263 C 0.77 0.37512 0.27138 0.0
C264 C 0.71386 0.39931 0.23992 0.0
C265 C 0.73387 0.29454 0.21759 0.0
C266 C 0.72057 0.42232 0.21891 0.0
C267 C 0.68709 0.45206 0.20725 0.0
C268 C 0.64632 0.46022 0.21647 0.0
C269 C 0.64069 0.44075 0.23829 0.0
C270 C 0.67431 0.41033 0.24995 0.0
H271 H 0.73754 0.25026 0.21496 0.0
H272 H 0.69805 0.30409 0.21747 0.0
H273 H 0.74732 0.31545 0.2031 0.0
H274 H 0.75121 0.41553 0.21112 0.0
H275 H 0.69257 0.46712 0.19058 0.0
H276 H 0.67155 0.64044 0.21613 0.0
H277 H 0.73671 0.69512 0.22799 0.0
H278 H 0.66135 0.84074 0.21452 0.0
H279 H 0.59581 0.7863 0.20271 0.0
H280 H 0.74241 0.84314 0.19646 0.0
H281 H 0.76275 0.78138 0.28643 0.0
H282 H 0.76018 0.7253 0.26697 0.0
H283 H 0.71267 0.76821 0.26857 0.0
C284 C 0.6685 0.68406 0.21602 0.0
C285 C 0.62818 0.70886 0.20856 0.0
C286 C 0.70589 0.71532 0.22282 0.0
C287 C 0.7038 0.77208 0.22248 0.0
C288 C 0.66372 0.79701 0.215 0.0
H289 H 0.91137 0.98505 0.28459 0.0
H290 H 0.84075 0.93954 0.27395 0.0
C291 C 0.6263 0.76578 0.20816 0.0
C292 C 0.74382 0.80534 0.22914 0.0
H293 H 0.82305 0.82957 0.27245 0.0
C294 C 0.75988 0.84044 0.21313 0.0
C295 C 0.76631 0.80238 0.25099 0.0
C296 C 0.74941 0.7677 0.26932 0.0
C297 C 0.79842 0.87152 0.21815 0.0
C298 C 0.82196 0.86679 0.23967 0.0
C299 C 0.80524 0.83282 0.25589 0.0
C300 C 0.86439 0.89598 0.24557 0.0
C301 C 0.81336 0.90949 0.20042 0.0
C302 C 0.90126 0.88653 0.23322 0.0
C303 C 0.94165 0.9125 0.23924 0.0
C304 C 0.94618 0.94821 0.25787 0.0
C305 C 0.90912 0.9578 0.27017 0.0
C306 C 0.8687 0.93178 0.26412 0.0
H307 H 0.7857 0.91994 0.18774 0.0
H308 H 0.82729 0.94747 0.20822 0.0
H309 H 0.83953 0.88955 0.19132 0.0
H310 H 0.89904 0.85824 0.21915 0.0
H311 H 0.96951 0.90384 0.22947 0.0
H312 H 0.18257 0.90545 0.26494 0.0
H313 H 0.24779 0.84883 0.2605 0.0
H314 H 0.22994 0.77249 0.32443 0.0
H315 H 0.16343 0.82691 0.32813 0.0
H316 H 0.32548 0.83233 0.2825 0.0
H317 H 0.2281 0.64211 0.28523 0.0
H318 H 0.20231 0.70767 0.28424 0.0
H319 H 0.2277 0.68202 0.31055 0.0
C320 C 0.19288 0.87672 0.27804 0.0
C321 C 0.16771 0.86974 0.29666 0.0
C322 C 0.23012 0.84441 0.27555 0.0
C323 C 0.24325 0.80516 0.29183 0.0
C324 C 0.21969 0.80089 0.31121 0.0
H325 H 0.48798 0.6258 0.26274 0.0
H326 H 0.43874 0.67829 0.28582 0.0
C327 C 0.18187 0.83219 0.3134 0.0
C328 C 0.28016 0.7673 0.2879 0.0
H329 H 0.30416 0.63328 0.28148 0.0
C330 C 0.32095 0.78877 0.28243 0.0
C331 C 0.2743 0.71032 0.28777 0.0
C332 C 0.23066 0.6841 0.29205 0.0
C333 C 0.35514 0.75518 0.27583 0.0
C334 C 0.34894 0.69831 0.27537 0.0
C335 C 0.30909 0.6768 0.28205 0.0
C336 C 0.37917 0.66126 0.2641 0.0
C337 C 0.39639 0.7811 0.26803 0.0
C338 C 0.36181 0.63173 0.24514 0.0
C339 C 0.38944 0.60146 0.23238 0.0
C340 C 0.4353 0.59983 0.23815 0.0
C341 C 0.4527 0.62629 0.25798 0.0
C342 C 0.42469 0.65687 0.27093 0.0
H343 H 0.39274 0.82554 0.26587 0.0
H344 H 0.42459 0.7738 0.28078 0.0
H345 H 0.40471 0.76316 0.2517 0.0
H346 H 0.32692 0.63403 0.23951 0.0
H347 H 0.37496 0.58106 0.2173 0.0
H348 H 0.40907 0.63885 0.76055 0.0
H349 H 0.34399 0.6942 0.74891 0.0
H350 H 0.3831 0.81036 0.80139 0.0
H351 H 0.44797 0.75568 0.81292 0.0
H352 H 0.27223 0.73515 0.77183 0.0
H353 H 0.37902 0.90071 0.74361 0.0
H354 H 0.4 0.83391 0.75018 0.0
H355 H 0.39082 0.88093 0.77256 0.0
C356 C 0.40341 0.67581 0.76975 0.0
C357 C 0.43409 0.69339 0.78737 0.0
C358 C 0.3663 0.70745 0.76309 0.0
C359 C 0.35922 0.75702 0.77398 0.0
C360 C 0.38848 0.773 0.79237 0.0
H361 H 0.11873 0.95586 0.7424 0.0
H362 H 0.17876 0.90747 0.76437 0.0
C363 C 0.42559 0.7417 0.79892 0.0
C364 C 0.32264 0.79334 0.76543 0.0
H365 H 0.30221 0.91703 0.74136 0.0
C366 C 0.27868 0.77506 0.76529 0.0
C367 C 0.3312 0.84531 0.75679 0.0
C368 C 0.37779 0.86637 0.75556 0.0
C369 C 0.24309 0.80713 0.75648 0.0
C370 C 0.25173 0.85904 0.74782 0.0
C371 C 0.29563 0.87756 0.7483 0.0
C372 C 0.21652 0.8918 0.73556 0.0
C373 C 0.19669 0.78446 0.75563 0.0
C374 C 0.2187 0.90071 0.71237 0.0
C375 C 0.18489 0.92821 0.69995 0.0
C376 C 0.14808 0.94787 0.71041 0.0
C377 C 0.14672 0.94125 0.73389 0.0
C378 C 0.18072 0.91318 0.74639 0.0
H379 H 0.19634 0.7407 0.75984 0.0
H380 H 0.17767 0.80653 0.76798 0.0
H381 H 0.17944 0.79008 0.73856 0.0
H382 H 0.24608 0.88493 0.70368 0.0
H383 H 0.18718 0.93301 0.68192 0.0
H384 H 0.1592 0.15163 0.73177 0.0
H385 H 0.22504 0.2041 0.74444 0.0
H386 H 0.1992 0.3137 0.68875 0.0
H387 H 0.13396 0.26092 0.67546 0.0
H388 H 0.30019 0.22981 0.71639 0.0
H389 H 0.2152 0.41174 0.74769 0.0
H390 H 0.18804 0.34658 0.74452 0.0
H391 H 0.1969 0.38602 0.72 0.0
C392 C 0.16738 0.18654 0.72201 0.0
C393 C 0.14068 0.20162 0.70249 0.0
C394 C 0.20507 0.21676 0.72942 0.0
C395 C 0.21676 0.26311 0.71768 0.0
C396 C 0.1904 0.27852 0.69827 0.0
H397 H 0.4381 0.48959 0.75589 0.0
H398 H 0.37259 0.44813 0.73514 0.0
C399 C 0.15287 0.24815 0.69073 0.0
C400 C 0.2573 0.29425 0.72544 0.0
H401 H 0.2932 0.41259 0.75107 0.0
C402 C 0.29869 0.26989 0.72387 0.0
C403 C 0.25532 0.34686 0.73486 0.0
C404 C 0.21157 0.37456 0.73705 0.0
C405 C 0.33813 0.29626 0.73184 0.0
C406 C 0.33613 0.34788 0.74227 0.0
C407 C 0.29478 0.37308 0.74312 0.0
C408 C 0.37605 0.37364 0.75424 0.0
C409 C 0.38162 0.26841 0.72903 0.0
C410 C 0.39928 0.34607 0.77204 0.0
C411 C 0.43645 0.36934 0.78374 0.0
C412 C 0.45132 0.42128 0.77819 0.0
C413 C 0.42778 0.44941 0.76049 0.0
C414 C 0.3903 0.42582 0.74867 0.0
H415 H 0.37885 0.23993 0.7144 0.0
H416 H 0.40835 0.29812 0.72655 0.0
H417 H 0.39126 0.24455 0.74443 0.0
H418 H 0.38836 0.30649 0.7771 0.0
H419 H 0.45335 0.34642 0.79734 0.0
H420 H 0.92627 0.04548 0.75047 0.0
H421 H 0.87311 0.09867 0.77068 0.0
H422 H 0.92191 0.24526 0.74212 0.0
H423 H 0.97508 0.19242 0.72237 0.0
H424 H 0.899 0.26125 0.78553 0.0
H425 H 0.76482 0.15592 0.73263 0.0
H426 H 0.80011 0.11229 0.75017 0.0
H427 H 0.82248 0.14914 0.72764 0.0
C428 C 0.92686 0.08925 0.74944 0.0
C429 C 0.95506 0.11516 0.73525 0.0
C430 C 0.89602 0.11952 0.76061 0.0
C431 C 0.89284 0.17586 0.75748 0.0
C432 C 0.92358 0.20192 0.74475 0.0
H433 H 0.6619 0.38338 0.76325 0.0
H434 H 0.72428 0.32987 0.75152 0.0
C435 C 0.95419 0.17179 0.73362 0.0
C436 C 0.85541 0.20748 0.76552 0.0
H437 H 0.7429 0.22181 0.75836 0.0
C438 C 0.86484 0.25241 0.77973 0.0
C439 C 0.8109 0.19684 0.75741 0.0
C440 C 0.79879 0.15128 0.74096 0.0
C441 C 0.83106 0.28669 0.78619 0.0
C442 C 0.78645 0.27517 0.77858 0.0
C443 C 0.77704 0.23045 0.76427 0.0
C444 C 0.74904 0.30851 0.78557 0.0
C445 C 0.84365 0.33579 0.80059 0.0
C446 C 0.74196 0.31392 0.80853 0.0
C447 C 0.70674 0.34474 0.81526 0.0
C448 C 0.67714 0.37044 0.79918 0.0
C449 C 0.68412 0.36468 0.77611 0.0
C450 C 0.71964 0.33382 0.76937 0.0
H451 H 0.87877 0.34763 0.7993 0.0
H452 H 0.82225 0.37086 0.79565 0.0
H453 H 0.83956 0.32636 0.81858 0.0
H454 H 0.7636 0.29399 0.82132 0.0
H455 H 0.70315 0.34868 0.83318 0.0
H456 H 0.70765 0.56209 0.77521 0.0
H457 H 0.75125 0.6272 0.75542 0.0
H458 H 0.63113 0.70333 0.72762 0.0
H459 H 0.58712 0.63679 0.74707 0.0
H460 H 0.70031 0.70274 0.69758 0.0
H461 H 0.75861 0.78062 0.78251 0.0
H462 H 0.7689 0.70955 0.77964 0.0
H463 H 0.71278 0.7339 0.77797 0.0
C464 C 0.69054 0.59155 0.76423 0.0
C465 C 0.64415 0.59448 0.76258 0.0
C466 C 0.71544 0.62908 0.75314 0.0
C467 C 0.69445 0.67107 0.74061 0.0
C468 C 0.64796 0.67149 0.73737 0.0
H469 H 0.87338 0.94474 0.72123 0.0
H470 H 0.80504 0.8971 0.729 0.0
C471 C 0.62287 0.63323 0.74829 0.0
C472 C 0.72145 0.71642 0.7327 0.0
H473 H 0.80082 0.80761 0.75198 0.0
C474 C 0.72187 0.72625 0.70945 0.0
C475 C 0.7485 0.74842 0.74821 0.0
C476 C 0.74688 0.74306 0.77348 0.0
C477 C 0.75096 0.76464 0.70125 0.0
C478 C 0.78104 0.79294 0.71673 0.0
C479 C 0.7783 0.78563 0.74003 0.0
C480 C 0.81852 0.82575 0.70932 0.0
C481 C 0.74937 0.77402 0.67609 0.0
C482 C 0.84862 0.80201 0.6955 0.0
C483 C 0.88725 0.82925 0.69092 0.0
C484 C 0.89736 0.88064 0.70038 0.0
C485 C 0.86653 0.90538 0.7136 0.0
C486 C 0.82754 0.87806 0.71811 0.0
H487 H 0.71538 0.76731 0.66801 0.0
H488 H 0.76016 0.81568 0.67217 0.0
H489 H 0.77154 0.74469 0.66843 0.0
H490 H 0.84326 0.76129 0.68897 0.0
H491 H 0.90975 0.80929 0.68033 0.0
loop_
_geom_bond_atom_site_label_1
_geom_bond_atom_site_label_2
_geom_bond_distance
_geom_bond_site_symmetry_2
_ccdc_geom_bond_type
C0 C1 1.351 . S
C0 N3 1.368 . S
C0 H5 0.931 1_655 S
C1 C0 1.351 . S
C1 N2 1.373 . S
C1 H29 0.930 . S
N2 C1 1.373 . S
N2 C4 1.340 . S
N3 C0 1.368 . S
N3 C4 1.321 . S
N3 Co6 2.135 1_655 S
C4 N2 1.340 . S
C4 N3 1.321 . S
C4 H28 0.930 . S
H5 C0 0.931 1_455 S
Co6 N3 2.135 1_455 S
Co6 N9 2.121 1_545 S
Co6 O14 2.055 . S
Co6 O17 2.039 1_445 S
Co6 N20 2.140 . S
C7 O8 1.227 . S
C7 O17 1.265 . S
O8 C7 1.227 . S
N9 Co6 2.121 1_565 S
N9 C11 1.375 . S
N9 C12 1.313 . S
C10 C11 1.338 . S
C10 N13 1.377 . S
C10 H30 0.930 . S
C11 N9 1.375 . S
C11 C10 1.338 . S
C11 H15 0.931 . S
C12 N9 1.313 . S
C12 N13 1.344 . S
C12 H16 0.930 . S
N13 C10 1.377 . S
N13 C12 1.344 . S
O14 Co6 2.055 . S
O14 C18 1.253 . S
H15 C11 0.931 . S
H16 C12 0.930 . S
O17 Co6 2.039 1_665 S
O17 C7 1.265 . S
C18 O14 1.253 . S
C18 O19 1.227 . S
O19 C18 1.227 . S
N20 Co6 2.140 . S
N20 C23 1.346 1_455 S
N20 C24 1.345 1_545 S
C21 C22 1.387 1_465 S
C21 C25 1.391 . S
C22 C21 1.387 1_645 S
C22 C23 1.369 . S
C22 H31 0.929 . S
C23 N20 1.346 1_655 S
C23 C22 1.369 . S
C23 H26 0.928 . S
C24 N20 1.345 1_565 S
C24 C25 1.371 . S
C24 H27 0.931 . S
C25 C21 1.391 . S
C25 C24 1.371 . S
C25 H32 0.930 . S
H26 C23 0.928 . S
H27 C24 0.931 . S
H28 C4 0.930 . S
H29 C1 0.930 . S
H30 C10 0.930 . S
H31 C22 0.929 . S
H32 C25 0.930 . S
C33 C34 1.351 . S
C33 N36 1.368 . S
C33 H38 0.931 . S
C34 C33 1.351 . S
C34 N35 1.373 . S
C34 H62 0.930 . S
N35 C34 1.373 . S
N35 C37 1.340 . S
N36 C33 1.368 . S
N36 C37 1.321 . S
N36 Co39 2.135 . S
C37 N35 1.340 . S
C37 N36 1.321 . S
C37 H61 0.930 . S
H38 C33 0.931 . S
Co39 N36 2.135 . S
Co39 N42 2.121 1_445 S
Co39 O47 2.055 1_455 S
Co39 O50 2.039 1_545 S
Co39 N53 2.140 . S
C40 O41 1.227 . S
C40 O50 1.265 . S
O41 C40 1.227 . S
N42 Co39 2.121 1_665 S
N42 C44 1.375 . S
N42 C45 1.313 . S
C43 C44 1.338 . S
C43 N46 1.377 . S
C43 H63 0.930 . S
C44 N42 1.375 . S
C44 C43 1.338 . S
C44 H48 0.931 1_655 S
C45 N42 1.313 . S
C45 N46 1.344 . S
C45 H49 0.930 . S
N46 C43 1.377 . S
N46 C45 1.344 . S
O47 Co39 2.055 1_655 S
O47 C51 1.253 . S
H48 C44 0.931 1_455 S
H49 C45 0.930 . S
O50 Co39 2.039 1_565 S
O50 C40 1.265 . S
C51 O47 1.253 . S
C51 O52 1.227 . S
O52 C51 1.227 . S
N53 Co39 2.140 . S
N53 C56 1.346 . S
N53 C57 1.345 1_445 S
C54 C55 1.387 1_565 S
C54 C58 1.391 1_455 S
C55 C54 1.387 1_545 S
C55 C56 1.369 . S
C55 H64 0.929 . S
C56 N53 1.346 . S
C56 C55 1.369 . S
C56 H59 0.928 . S
C57 N53 1.345 1_665 S
C57 C58 1.371 . S
C57 H60 0.931 . S
C58 C54 1.391 1_655 S
C58 C57 1.371 . S
C58 H65 0.930 . S
H59 C56 0.928 . S
H60 C57 0.931 . S
H61 C37 0.930 . S
H62 C34 0.930 . S
H63 C43 0.930 . S
H64 C55 0.929 . S
H65 C58 0.930 . S
C66 C67 1.351 . S
C66 N69 1.368 . S
C66 H71 0.931 . S
C67 C66 1.351 . S
C67 N68 1.373 . S
C67 H95 0.930 . S
N68 C67 1.373 . S
N68 C70 1.340 . S
N69 C66 1.368 . S
N69 C70 1.321 . S
N69 Co72 2.135 . S
C70 N68 1.340 . S
C70 N69 1.321 . S
C70 H94 0.930 . S
H71 C66 0.931 . S
Co72 N69 2.135 . S
Co72 N75 2.121 . S
Co72 O80 2.055 . S
Co72 O83 2.039 . S
Co72 N86 2.140 . S
C73 O74 1.227 . S
C73 O83 1.265 . S
O74 C73 1.227 . S
N75 Co72 2.121 . S
N75 C77 1.375 . S
N75 C78 1.313 . S
C76 C77 1.338 . S
C76 N79 1.377 . S
C76 H96 0.930 . S
C77 N75 1.375 . S
C77 C76 1.338 . S
C77 H81 0.931 . S
C78 N75 1.313 . S
C78 N79 1.344 . S
C78 H82 0.930 . S
N79 C76 1.377 . S
N79 C78 1.344 . S
O80 Co72 2.055 . S
O80 C84 1.253 . S
H81 C77 0.931 . S
H82 C78 0.930 . S
O83 Co72 2.039 . S
O83 C73 1.265 . S
C84 O80 1.253 . S
C84 O85 1.227 . S
O85 C84 1.227 . S
N86 Co72 2.140 . S
N86 C89 1.346 . S
N86 C90 1.345 . S
C87 C88 1.387 . S
C87 C91 1.391 . S
C88 C87 1.387 . S
C88 C89 1.369 . S
C88 H97 0.929 . S
C89 N86 1.346 . S
C89 C88 1.369 . S
C89 H92 0.928 . S
C90 N86 1.345 . S
C90 C91 1.371 . S
C90 H93 0.931 . S
C91 C87 1.391 . S
C91 C90 1.371 . S
C91 H98 0.930 . S
H92 C89 0.928 . S
H93 C90 0.931 . S
H94 C70 0.930 . S
H95 C67 0.930 . S
H96 C76 0.930 . S
H97 C88 0.929 . S
H98 C91 0.930 . S
C99 C100 1.351 . S
C99 N102 1.368 . S
C99 H104 0.931 . S
C100 C99 1.351 . S
C100 N101 1.373 . S
C100 H128 0.930 . S
N101 C100 1.373 . S
N101 C103 1.340 . S
N102 C99 1.368 . S
N102 C103 1.321 . S
N102 Co105 2.135 . S
C103 N101 1.340 . S
C103 N102 1.321 . S
C103 H127 0.930 . S
H104 C99 0.931 . S
Co105 N102 2.135 . S
Co105 N108 2.121 . S
Co105 O113 2.055 . S
Co105 O116 2.039 . S
Co105 N119 2.140 . S
C106 O107 1.227 . S
C106 O116 1.265 . S
O107 C106 1.227 . S
N108 Co105 2.121 . S
N108 C110 1.375 . S
N108 C111 1.313 . S
C109 C110 1.338 . S
C109 N112 1.377 . S
C109 H129 0.930 . S
C110 N108 1.375 . S
C110 C109 1.338 . S
C110 H114 0.931 . S
C111 N108 1.313 . S
C111 N112 1.344 . S
C111 H115 0.930 . S
N112 C109 1.377 . S
N112 C111 1.344 . S
O113 Co105 2.055 . S
O113 C117 1.253 . S
H114 C110 0.931 . S
H115 C111 0.930 . S
O116 Co105 2.039 . S
O116 C106 1.265 . S
C117 O113 1.253 . S
C117 O118 1.227 . S
O118 C117 1.227 . S
N119 Co105 2.140 . S
N119 C122 1.346 . S
N119 C123 1.345 . S
C120 C121 1.387 . S
C120 C124 1.391 . S
C121 C120 1.387 . S
C121 C122 1.369 . S
C121 H130 0.929 . S
C122 N119 1.346 . S
C122 C121 1.369 . S
C122 H125 0.928 . S
C123 N119 1.345 . S
C123 C124 1.371 . S
C123 H126 0.931 . S
C124 C120 1.391 . S
C124 C123 1.371 . S
C124 H131 0.930 . S
H125 C122 0.928 . S
H126 C123 0.931 . S
H127 C103 0.930 . S
H128 C100 0.930 . S
H129 C109 0.930 . S
H130 C121 0.929 . S
H131 C124 0.930 . S
H132 C140 0.929 . S
H133 C142 0.930 . S
H134 C144 0.930 . S
H135 C147 0.929 . S
H136 C150 0.930 . S
H137 C152 0.960 . S
H138 C152 0.960 . S
H139 C152 0.960 . S
C140 H132 0.929 . S
C140 C141 1.377 1_545 S
C140 C142 1.384 . S
C141 C140 1.377 1_565 S
C141 C147 1.390 1_455 S
C142 H133 0.930 . S
C142 C140 1.384 . S
C142 C143 1.370 1_545 S
C143 C142 1.370 1_565 S
C143 C144 1.402 1_455 S
C143 C148 1.490 1_565 S
C144 H134 0.930 . S
C144 C143 1.402 1_655 S
C144 C147 1.386 . S
H145 C161 0.930 . S
H146 C162 0.931 . S
C147 H135 0.929 . S
C147 C141 1.390 1_655 S
C147 C144 1.386 . S
C148 C143 1.490 1_545 S
C148 C150 1.395 . S
C148 C151 1.403 1_545 S
H149 C155 0.930 . S
C150 H136 0.930 . S
C150 C148 1.395 . S
C150 C153 1.403 . S
C151 C148 1.403 1_565 S
C151 C152 1.524 . S
C151 C155 1.400 . S
C152 H137 0.960 . S
C152 H138 0.960 . S
C152 H139 0.960 . S
C152 C151 1.524 . S
C153 C150 1.403 . S
C153 C154 1.392 . S
C153 C157 1.495 . S
C154 C153 1.392 . S
C154 C155 1.385 1_545 S
C154 C156 1.478 . S
C155 H149 0.930 . S
C155 C151 1.400 . S
C155 C154 1.385 1_565 S
C156 C154 1.478 . S
C156 C158 1.381 . S
C156 C162 1.383 1_445 S
C157 C153 1.495 . S
C157 H163 0.959 . S
C157 H164 0.961 1_455 S
C157 H165 0.960 . S
C158 C156 1.381 . S
C158 C159 1.394 . S
C158 H166 0.930 . S
C159 C158 1.394 . S
C159 C160 1.383 . S
C159 H167 0.929 . S
C160 C159 1.383 . S
C160 C161 1.377 1_445 S
C161 H145 0.930 . S
C161 C160 1.377 1_665 S
C161 C162 1.379 . S
C162 H146 0.931 . S
C162 C156 1.383 1_665 S
C162 C161 1.379 . S
H163 C157 0.959 . S
H164 C157 0.961 1_655 S
H165 C157 0.960 . S
H166 C158 0.930 . S
H167 C159 0.929 . S
H168 C176 0.929 . S
H169 C178 0.930 . S
H170 C180 0.930 . S
H171 C183 0.929 . S
H172 C186 0.930 . S
H173 C188 0.960 . S
H174 C188 0.960 . S
H175 C188 0.960 . S
C176 H168 0.929 . S
C176 C177 1.377 . S
C176 C178 1.384 . S
C177 C176 1.377 . S
C177 C183 1.390 . S
C178 H169 0.930 . S
C178 C176 1.384 . S
C178 C179 1.372 . S
C179 C178 1.372 . S
C179 C180 1.400 . S
C179 C184 1.490 . S
C180 H170 0.930 . S
C180 C179 1.400 . S
C180 C183 1.386 . S
H181 C197 0.930 . S
H182 C198 0.931 . S
C183 H171 0.929 . S
C183 C177 1.390 . S
C183 C180 1.386 . S
C184 C179 1.490 . S
C184 C186 1.395 . S
C184 C187 1.403 . S
H185 C191 0.930 . S
C186 H172 0.930 . S
C186 C184 1.395 . S
C186 C189 1.403 1_554 S
C187 C184 1.403 . S
C187 C188 1.524 . S
C187 C191 1.400 1_554 S
C188 H173 0.960 . S
C188 H174 0.960 . S
C188 H175 0.960 . S
C188 C187 1.524 . S
C189 C186 1.403 1_556 S
C189 C190 1.392 . S
C189 C193 1.495 . S
C190 C189 1.392 . S
C190 C191 1.385 . S
C190 C192 1.478 . S
C191 H185 0.930 . S
C191 C187 1.400 1_556 S
C191 C190 1.385 . S
C192 C190 1.478 . S
C192 C194 1.381 . S
C192 C198 1.383 . S
C193 C189 1.495 . S
C193 H199 0.959 . S
C193 H200 0.961 . S
C193 H201 0.960 . S
C194 C192 1.381 . S
C194 C195 1.394 . S
C194 H202 0.930 . S
C195 C194 1.394 . S
C195 C196 1.383 . S
C195 H203 0.929 . S
C196 C195 1.383 . S
C196 C197 1.377 . S
C197 H181 0.930 . S
C197 C196 1.377 . S
C197 C198 1.379 . S
C198 H182 0.931 . S
C198 C192 1.383 . S
C198 C197 1.379 . S
H199 C193 0.959 . S
H200 C193 0.961 . S
H201 C193 0.960 . S
H202 C194 0.930 . S
H203 C195 0.929 . S
H204 C212 0.929 . S
H205 C214 0.930 . S
H206 C216 0.930 . S
H207 C219 0.929 . S
H208 C222 0.930 . S
H209 C224 0.960 . S
H210 C224 0.960 . S
H211 C224 0.960 . S
C212 H204 0.929 . S
C212 C213 1.377 . S
C212 C214 1.384 . S
C213 C212 1.377 . S
C213 C219 1.390 . S
C214 H205 0.930 . S
C214 C212 1.384 . S
C214 C215 1.372 . S
C215 C214 1.372 . S
C215 C216 1.400 . S
C215 C220 1.490 . S
C216 H206 0.930 . S
C216 C215 1.400 . S
C216 C219 1.386 . S
H217 C233 0.930 . S
H218 C234 0.931 . S
C219 H207 0.929 . S
C219 C213 1.390 . S
C219 C216 1.386 . S
C220 C215 1.490 . S
C220 C222 1.395 . S
C220 C223 1.403 . S
H221 C227 0.930 . S
C222 H208 0.930 . S
C222 C220 1.395 . S
C222 C225 1.403 . S
C223 C220 1.403 . S
C223 C224 1.524 . S
C223 C227 1.400 . S
C224 H209 0.960 . S
C224 H210 0.960 . S
C224 H211 0.960 . S
C224 C223 1.524 . S
C225 C222 1.403 . S
C225 C226 1.392 . S
C225 C229 1.495 . S
C226 C225 1.392 . S
C226 C227 1.385 . S
C226 C228 1.478 . S
C227 H221 0.930 . S
C227 C223 1.400 . S
C227 C226 1.385 . S
C228 C226 1.478 . S
C228 C230 1.381 . S
C228 C234 1.383 . S
C229 C225 1.495 . S
C229 H235 0.959 . S
C229 H236 0.961 . S
C229 H237 0.960 . S
C230 C228 1.381 . S
C230 C231 1.394 . S
C230 H238 0.930 . S
C231 C230 1.394 . S
C231 C232 1.383 . S
C231 H239 0.929 . S
C232 C231 1.383 . S
C232 C233 1.377 . S
C233 H217 0.930 . S
C233 C232 1.377 . S
C233 C234 1.379 . S
C234 H218 0.931 . S
C234 C228 1.383 . S
C234 C233 1.379 . S
H235 C229 0.959 . S
H236 C229 0.961 . S
H237 C229 0.960 . S
H238 C230 0.930 . S
H239 C231 0.929 . S
H240 C248 0.929 . S
H241 C250 0.930 . S
H242 C252 0.930 . S
H243 C255 0.929 . S
H244 C258 0.930 . S
H245 C260 0.960 . S
H246 C260 0.960 . S
H247 C260 0.960 . S
C248 H240 0.929 . S
C248 C249 1.377 . S
C248 C250 1.384 . S
C249 C248 1.377 . S
C249 C255 1.390 . S
C250 H241 0.930 . S
C250 C248 1.384 . S
C250 C251 1.372 . S
C251 C250 1.372 . S
C251 C252 1.400 . S
C251 C256 1.490 . S
C252 H242 0.930 . S
C252 C251 1.400 . S
C252 C255 1.386 . S
H253 C269 0.930 . S
H254 C270 0.931 . S
C255 H243 0.929 . S
C255 C249 1.390 . S
C255 C252 1.386 . S
C256 C251 1.490 . S
C256 C258 1.395 . S
C256 C259 1.403 . S
H257 C263 0.930 . S
C258 H244 0.930 . S
C258 C256 1.395 . S
C258 C261 1.403 . S
C259 C256 1.403 . S
C259 C260 1.524 . S
C259 C263 1.400 . S
C260 H245 0.960 . S
C260 H246 0.960 . S
C260 H247 0.960 . S
C260 C259 1.524 . S
C261 C258 1.403 . S
C261 C262 1.392 . S
C261 C265 1.495 . S
C262 C261 1.392 . S
C262 C263 1.385 . S
C262 C264 1.478 . S
C263 H257 0.930 . S
C263 C259 1.400 . S
C263 C262 1.385 . S
C264 C262 1.478 . S
C264 C266 1.381 . S
C264 C270 1.383 . S
C265 C261 1.495 . S
C265 H271 0.959 . S
C265 H272 0.961 . S
C265 H273 0.960 . S
C266 C264 1.381 . S
C266 C267 1.394 . S
C266 H274 0.930 . S
C267 C266 1.394 . S
C267 C268 1.383 . S
C267 H275 0.929 . S
C268 C267 1.383 . S
C268 C269 1.377 . S
C269 H253 0.930 . S
C269 C268 1.377 . S
C269 C270 1.379 . S
C270 H254 0.931 . S
C270 C264 1.383 . S
C270 C269 1.379 . S
H271 C265 0.959 . S
H272 C265 0.961 . S
H273 C265 0.960 . S
H274 C266 0.930 . S
H275 C267 0.929 . S
H276 C284 0.929 . S
H277 C286 0.930 . S
H278 C288 0.930 . S
H279 C291 0.929 . S
H280 C294 0.930 . S
H281 C296 0.960 . S
H282 C296 0.960 . S
H283 C296 0.960 . S
C284 H276 0.929 . S
C284 C285 1.377 . S
C284 C286 1.384 . S
C285 C284 1.377 . S
C285 C291 1.390 . S
C286 H277 0.930 . S
C286 C284 1.384 . S
C286 C287 1.372 . S
C287 C286 1.372 . S
C287 C288 1.400 . S
C287 C292 1.490 . S
C288 H278 0.930 . S
C288 C287 1.400 . S
C288 C291 1.386 . S
H289 C305 0.930 . S
H290 C306 0.931 . S
C291 H279 0.929 . S
C291 C285 1.390 . S
C291 C288 1.386 . S
C292 C287 1.490 . S
C292 C294 1.395 . S
C292 C295 1.403 . S
H293 C299 0.930 . S
C294 H280 0.930 . S
C294 C292 1.395 . S
C294 C297 1.403 . S
C295 C292 1.403 . S
C295 C296 1.524 . S
C295 C299 1.400 . S
C296 H281 0.960 . S
C296 H282 0.960 . S
C296 H283 0.960 . S
C296 C295 1.524 . S
C297 C294 1.403 . S
C297 C298 1.392 . S
C297 C301 1.495 . S
C298 C297 1.392 . S
C298 C299 1.385 . S
C298 C300 1.478 . S
C299 H293 0.930 . S
C299 C295 1.400 . S
C299 C298 1.385 . S
C300 C298 1.478 . S
C300 C302 1.381 . S
C300 C306 1.383 . S
C301 C297 1.495 . S
C301 H307 0.959 . S
C301 H308 0.961 . S
C301 H309 0.960 . S
C302 C300 1.381 . S
C302 C303 1.394 . S
C302 H310 0.930 . S
C303 C302 1.394 . S
C303 C304 1.383 . S
C303 H311 0.929 . S
C304 C303 1.383 . S
C304 C305 1.377 . S
C305 H289 0.930 . S
C305 C304 1.377 . S
C305 C306 1.379 . S
C306 H290 0.931 . S
C306 C300 1.383 . S
C306 C305 1.379 . S
H307 C301 0.959 . S
H308 C301 0.961 . S
H309 C301 0.960 . S
H310 C302 0.930 . S
H311 C303 0.929 . S
H312 C320 0.929 . S
H313 C322 0.930 . S
H314 C324 0.930 . S
H315 C327 0.929 . S
H316 C330 0.930 . S
H317 C332 0.960 . S
H318 C332 0.960 . S
H319 C332 0.960 . S
C320 H312 0.929 . S
C320 C321 1.377 . S
C320 C322 1.384 . S
C321 C320 1.377 . S
C321 C327 1.390 . S
C322 H313 0.930 . S
C322 C320 1.384 . S
C322 C323 1.372 . S
C323 C322 1.372 . S
C323 C324 1.400 . S
C323 C328 1.490 . S
C324 H314 0.930 . S
C324 C323 1.400 . S
C324 C327 1.386 . S
H325 C341 0.930 . S
H326 C342 0.931 . S
C327 H315 0.929 . S
C327 C321 1.390 . S
C327 C324 1.386 . S
C328 C323 1.490 . S
C328 C330 1.395 . S
C328 C331 1.403 . S
H329 C335 0.930 . S
C330 H316 0.930 . S
C330 C328 1.395 . S
C330 C333 1.403 . S
C331 C328 1.403 . S
C331 C332 1.524 . S
C331 C335 1.400 . S
C332 H317 0.960 . S
C332 H318 0.960 . S
C332 H319 0.960 . S
C332 C331 1.524 . S
C333 C330 1.403 . S
C333 C334 1.392 . S
C333 C337 1.495 . S
C334 C333 1.392 . S
C334 C335 1.385 . S
C334 C336 1.478 . S
C335 H329 0.930 . S
C335 C331 1.400 . S
C335 C334 1.385 . S
C336 C334 1.478 . S
C336 C338 1.381 . S
C336 C342 1.383 . S
C337 C333 1.495 . S
C337 H343 0.959 . S
C337 H344 0.961 . S
C337 H345 0.960 . S
C338 C336 1.381 . S
C338 C339 1.394 . S
C338 H346 0.930 . S
C339 C338 1.394 . S
C339 C340 1.383 . S
C339 H347 0.929 . S
C340 C339 1.383 . S
C340 C341 1.377 . S
C341 H325 0.930 . S
C341 C340 1.377 . S
C341 C342 1.379 . S
C342 H326 0.931 . S
C342 C336 1.383 . S
C342 C341 1.379 . S
H343 C337 0.959 . S
H344 C337 0.961 . S
H345 C337 0.960 . S
H346 C338 0.930 . S
H347 C339 0.929 . S
H348 C356 0.929 . S
H349 C358 0.930 . S
H350 C360 0.930 . S
H351 C363 0.929 . S
H352 C366 0.930 . S
H353 C368 0.960 . S
H354 C368 0.960 . S
H355 C368 0.960 . S
C356 H348 0.929 . S
C356 C357 1.377 . S
C356 C358 1.384 . S
C357 C356 1.377 . S
C357 C363 1.390 . S
C358 H349 0.930 . S
C358 C356 1.384 . S
C358 C359 1.372 . S
C359 C358 1.372 . S
C359 C360 1.400 . S
C359 C364 1.490 . S
C360 H350 0.930 . S
C360 C359 1.400 . S
C360 C363 1.386 . S
H361 C377 0.930 . S
H362 C378 0.931 . S
C363 H351 0.929 . S
C363 C357 1.390 . S
C363 C360 1.386 . S
C364 C359 1.490 . S
C364 C366 1.395 . S
C364 C367 1.403 . S
H365 C371 0.930 . S
C366 H352 0.930 . S
C366 C364 1.395 . S
C366 C369 1.403 . S
C367 C364 1.403 . S
C367 C368 1.524 . S
C367 C371 1.400 . S
C368 H353 0.960 . S
C368 H354 0.960 . S
C368 H355 0.960 . S
C368 C367 1.524 . S
C369 C366 1.403 . S
C369 C370 1.392 . S
C369 C373 1.495 . S
C370 C369 1.392 . S
C370 C371 1.385 . S
C370 C372 1.478 . S
C371 H365 0.930 . S
C371 C367 1.400 . S
C371 C370 1.385 . S
C372 C370 1.478 . S
C372 C374 1.381 . S
C372 C378 1.383 . S
C373 C369 1.495 . S
C373 H379 0.959 . S
C373 H380 0.961 . S
C373 H381 0.960 . S
C374 C372 1.381 . S
C374 C375 1.394 . S
C374 H382 0.930 . S
C375 C374 1.394 . S
C375 C376 1.383 . S
C375 H383 0.929 . S
C376 C375 1.383 . S
C376 C377 1.377 . S
C377 H361 0.930 . S
C377 C376 1.377 . S
C377 C378 1.379 . S
C378 H362 0.931 . S
C378 C372 1.383 . S
C378 C377 1.379 . S
H379 C373 0.959 . S
H380 C373 0.961 . S
H381 C373 0.960 . S
H382 C374 0.930 . S
H383 C375 0.929 . S
H384 C392 0.929 . S
H385 C394 0.930 . S
H386 C396 0.930 . S
H387 C399 0.929 . S
H388 C402 0.930 . S
H389 C404 0.960 . S
H390 C404 0.960 . S
H391 C404 0.960 . S
C392 H384 0.929 . S
C392 C393 1.377 . S
C392 C394 1.384 . S
C393 C392 1.377 . S
C393 C399 1.390 . S
C394 H385 0.930 . S
C394 C392 1.384 . S
C394 C395 1.372 . S
C395 C394 1.372 . S
C395 C396 1.400 . S
C395 C400 1.490 . S
C396 H386 0.930 . S
C396 C395 1.400 . S
C396 C399 1.386 . S
H397 C413 0.930 . S
H398 C414 0.931 . S
C399 H387 0.929 . S
C399 C393 1.390 . S
C399 C396 1.386 . S
C400 C395 1.490 . S
C400 C402 1.395 . S
C400 C403 1.403 . S
H401 C407 0.930 . S
C402 H388 0.930 . S
C402 C400 1.395 . S
C402 C405 1.403 . S
C403 C400 1.403 . S
C403 C404 1.524 . S
C403 C407 1.400 . S
C404 H389 0.960 . S
C404 H390 0.960 . S
C404 H391 0.960 . S
C404 C403 1.524 . S
C405 C402 1.403 . S
C405 C406 1.392 . S
C405 C409 1.495 . S
C406 C405 1.392 . S
C406 C407 1.385 . S
C406 C408 1.478 . S
C407 H401 0.930 . S
C407 C403 1.400 . S
C407 C406 1.385 . S
C408 C406 1.478 . S
C408 C410 1.381 . S
C408 C414 1.383 . S
C409 C405 1.495 . S
C409 H415 0.959 . S
C409 H416 0.961 . S
C409 H417 0.960 . S
C410 C408 1.381 . S
C410 C411 1.394 . S
C410 H418 0.930 . S
C411 C410 1.394 . S
C411 C412 1.383 . S
C411 H419 0.929 . S
C412 C411 1.383 . S
C412 C413 1.377 . S
C413 H397 0.930 . S
C413 C412 1.377 . S
C413 C414 1.379 . S
C414 H398 0.931 . S
C414 C408 1.383 . S
C414 C413 1.379 . S
H415 C409 0.959 . S
H416 C409 0.961 . S
H417 C409 0.960 . S
H418 C410 0.930 . S
H419 C411 0.929 . S
H420 C428 0.929 . S
H421 C430 0.930 . S
H422 C432 0.930 . S
H423 C435 0.929 . S
H424 C438 0.930 . S
H425 C440 0.960 . S
H426 C440 0.960 . S
H427 C440 0.960 . S
C428 H420 0.929 . S
C428 C429 1.377 . S
C428 C430 1.384 . S
C429 C428 1.377 . S
C429 C435 1.390 . S
C430 H421 0.930 . S
C430 C428 1.384 . S
C430 C431 1.372 . S
C431 C430 1.372 . S
C431 C432 1.400 . S
C431 C436 1.490 . S
C432 H422 0.930 . S
C432 C431 1.400 . S
C432 C435 1.386 . S
H433 C449 0.930 . S
H434 C450 0.931 . S
C435 H423 0.929 . S
C435 C429 1.390 . S
C435 C432 1.386 . S
C436 C431 1.490 . S
C436 C438 1.395 . S
C436 C439 1.403 . S
H437 C443 0.930 . S
C438 H424 0.930 . S
C438 C436 1.395 . S
C438 C441 1.403 . S
C439 C436 1.403 . S
C439 C440 1.524 . S
C439 C443 1.400 . S
C440 H425 0.960 . S
C440 H426 0.960 . S
C440 H427 0.960 . S
C440 C439 1.524 . S
C441 C438 1.403 . S
C441 C442 1.392 . S
C441 C445 1.495 . S
C442 C441 1.392 . S
C442 C443 1.385 . S
C442 C444 1.478 . S
C443 H437 0.930 . S
C443 C439 1.400 . S
C443 C442 1.385 . S
C444 C442 1.478 . S
C444 C446 1.381 . S
C444 C450 1.383 . S
C445 C441 1.495 . S
C445 H451 0.959 . S
C445 H452 0.961 . S
C445 H453 0.960 . S
C446 C444 1.381 . S
C446 C447 1.394 . S
C446 H454 0.930 . S
C447 C446 1.394 . S
C447 C448 1.383 . S
C447 H455 0.929 . S
C448 C447 1.383 . S
C448 C449 1.377 . S
C449 H433 0.930 . S
C449 C448 1.377 . S
C449 C450 1.379 . S
C450 H434 0.931 . S
C450 C444 1.383 . S
C450 C449 1.379 . S
H451 C445 0.959 . S
H452 C445 0.961 . S
H453 C445 0.960 . S
H454 C446 0.930 . S
H455 C447 0.929 . S
H456 C464 0.929 . S
H457 C466 0.930 . S
H458 C468 0.930 . S
H459 C471 0.929 . S
H460 C474 0.930 . S
H461 C476 0.960 . S
H462 C476 0.960 . S
H463 C476 0.960 . S
C464 H456 0.929 . S
C464 C465 1.377 . S
C464 C466 1.384 . S
C465 C464 1.377 . S
C465 C471 1.390 . S
C466 H457 0.930 . S
C466 C464 1.384 . S
C466 C467 1.372 . S
C467 C466 1.372 . S
C467 C468 1.400 . S
C467 C472 1.490 . S
C468 H458 0.930 . S
C468 C467 1.400 . S
C468 C471 1.386 . S
H469 C485 0.930 . S
H470 C486 0.931 . S
C471 H459 0.929 . S
C471 C465 1.390 . S
C471 C468 1.386 . S
C472 C467 1.490 . S
C472 C474 1.395 . S
C472 C475 1.403 . S
H473 C479 0.930 . S
C474 H460 0.930 . S
C474 C472 1.395 . S
C474 C477 1.403 . S
C475 C472 1.403 . S
C475 C476 1.524 . S
C475 C479 1.400 . S
C476 H461 0.960 . S
C476 H462 0.960 . S
C476 H463 0.960 . S
C476 C475 1.524 . S
C477 C474 1.403 . S
C477 C478 1.392 . S
C477 C481 1.495 . S
C478 C477 1.392 . S
C478 C479 1.385 . S
C478 C480 1.478 . S
C479 H473 0.930 . S
C479 C475 1.400 . S
C479 C478 1.385 . S
C480 C478 1.478 . S
C480 C482 1.381 . S
C480 C486 1.383 . S
C481 C477 1.495 . S
C481 H487 0.959 . S
C481 H488 0.961 . S
C481 H489 0.960 . S
C482 C480 1.381 . S
C482 C483 1.394 . S
C482 H490 0.930 . S
C483 C482 1.394 . S
C483 C484 1.383 . S
C483 H491 0.929 . S
C484 C483 1.383 . S
C484 C485 1.377 . S
C485 H469 0.930 . S
C485 C484 1.377 . S
C485 C486 1.379 . S
C486 H470 0.931 . S
C486 C480 1.383 . S
C486 C485 1.379 . S
H487 C481 0.959 . S
H488 C481 0.961 . S
H489 C481 0.960 . S
H490 C482 0.930 . S
H491 C483 0.929 . S
C141 C21 1.490 . S
C160 C54 1.487 1_545 S
C177 C120 1.490 . S
C196 C87 1.487 . S
C213 C18 1.521 . S
C232 N112 1.470 . S
C249 N2 1.353 . S
C268 C106 1.386 . S
C285 N101 1.351 . S
C304 C7 1.410 . S
C321 N13 1.478 . S
C340 C117 1.517 . S
C357 N68 1.350 . S
C376 C40 1.401 . S
C393 N35 1.352 . S
C412 C73 1.389 . S
C429 C51 1.524 . S
C448 N79 1.502 . S
C465 C84 1.523 . S
C484 N46 1.500 . S
