# Generated by pormake.
# Topology tfs, (6)-cn, num edge types: 1
# Building blocks:
#     Node 0, Type 0, BuildingBlock: UKALOJ_clean_sbu_0, # of connection points: 6
#     Node 1, Type 0, BuildingBlock: UKALOJ_clean_sbu_0, # of connection points: 6
#     Node 2, Type 0, BuildingBlock: UKALOJ_clean_sbu_0, # of connection points: 6
#     Node 3, Type 0, BuildingBlock: UKALOJ_clean_sbu_0, # of connection points: 6
#     Node 4, Type 0, BuildingBlock: UKALOJ_clean_sbu_0, # of connection points: 6
#     Node 5, Type 0, BuildingBlock: UKALOJ_clean_sbu_0, # of connection points: 6
#     Edge 6, Type (0, 0), BuildingBlock: EZIPEK_clean_linker_0, # of connection points: 2
#     Edge 7, Type (0, 0), BuildingBlock: EZIPEK_clean_linker_0, # of connection points: 2
#     Edge 8, Type (0, 0), BuildingBlock: EZIPEK_clean_linker_0, # of connection points: 2
#     Edge 9, Type (0, 0), BuildingBlock: EZIPEK_clean_linker_0, # of connection points: 2
#     Edge 10, Type (0, 0), BuildingBlock: EZIPEK_clean_linker_0, # of connection points: 2
#     Edge 11, Type (0, 0), BuildingBlock: EZIPEK_clean_linker_0, # of connection points: 2
#     Edge 12, Type (0, 0), BuildingBlock: EZIPEK_clean_linker_0, # of connection points: 2
#     Edge 13, Type (0, 0), BuildingBlock: EZIPEK_clean_linker_0, # of connection points: 2
#     Edge 14, Type (0, 0), BuildingBlock: EZIPEK_clean_linker_0, # of connection points: 2
#     Edge 15, Type (0, 0), BuildingBlock: EZIPEK_clean_linker_0, # of connection points: 2
#     Edge 16, Type (0, 0), BuildingBlock: EZIPEK_clean_linker_0, # of connection points: 2
#     Edge 17, Type (0, 0), BuildingBlock: EZIPEK_clean_linker_0, # of connection points: 2
#     Edge 18, Type (0, 0), BuildingBlock: EZIPEK_clean_linker_0, # of connection points: 2
#     Edge 19, Type (0, 0), BuildingBlock: EZIPEK_clean_linker_0, # of connection points: 2
#     Edge 20, Type (0, 0), BuildingBlock: EZIPEK_clean_linker_0, # of connection points: 2
#     Edge 21, Type (0, 0), BuildingBlock: EZIPEK_clean_linker_0, # of connection points: 2
#     Edge 22, Type (0, 0), BuildingBlock: EZIPEK_clean_linker_0, # of connection points: 2
#     Edge 23, Type (0, 0), BuildingBlock: EZIPEK_clean_linker_0, # of connection points: 2
# Relax obj value: 0.235
# Max RMSD: 0.159
# Mean RMSD: 0.159
data_MOF--net-tfs--node1-UKALOJ_clean_sbu_0--edge1-EZIPEK_clean_linker_0
_symmetry_space_group_name_H-M    P1
_symmetry_Int_Tables_number       1
_symmetry_cell_setting            triclinic
loop_
_symmetry_equiv_pos_as_xyz
'x, y, z'
_cell_length_a     36.959034
_cell_length_b     36.977824
_cell_length_c     11.240436
_cell_angle_alpha  89.604503
_cell_angle_beta   90.347964
_cell_angle_gamma 120.17998
loop_
_atom_site_label
_atom_site_type_symbol
_atom_site_fract_x
_atom_site_fract_y
_atom_site_fract_z
_atom_type_partial_charge
Zn0 Zn 0.20077 0.45093 0.97281 0.0
O1 O 0.19796 0.45367 0.15823 0.0
C2 C 0.29366 0.49326 -0.01354 0.0
Zn3 Zn 0.22309 0.405 0.97285 0.0
C4 C 0.20689 0.42954 0.21592 0.0
O5 O 0.21654 0.4058 0.16043 0.0
C6 C 0.21632 0.42728 0.72935 0.0
O7 O 0.15989 0.35437 0.95737 0.0
O8 O 0.13901 0.40051 0.96958 0.0
N9 N 0.24622 0.36555 0.00032 0.0
C10 C 0.25351 0.33967 0.93362 0.0
C11 C 0.28093 0.34374 0.10421 0.0
N12 N 0.26309 0.36764 0.10622 0.0
N13 N 0.27561 0.326 -0.00322 0.0
C14 C 0.18705 0.52744 0.00165 0.0
C15 C 0.1603 0.52676 0.83246 0.0
N16 N 0.1803 0.49253 0.94505 0.0
N17 N 0.16316 0.492 0.8408 0.0
N18 N 0.17533 0.5498 0.93185 0.0
H19 H 0.18636 0.51528 0.18814 0.0
H20 H 0.20887 0.56981 0.15213 0.0
H21 H 0.23757 0.54291 0.12334 0.0
C22 C 0.20619 0.53996 0.12313 0.0
C23 C 0.24011 0.32885 0.80685 0.0
H24 H 0.20786 0.32321 0.79538 0.0
H25 H 0.24137 0.30073 0.77939 0.0
H26 H 0.26127 0.35549 0.7488 0.0
O27 O 0.2296 0.406 0.78441 0.0
O28 O 0.20256 0.44687 0.78794 0.0
C29 C 0.13036 0.36269 0.96078 0.0
O30 O 0.26409 0.50126 0.976 0.0
O31 O 0.28537 0.45555 -0.01212 0.0
Zn32 Zn 0.75551 0.19729 0.98298 0.0
O33 O 0.74933 0.19303 0.17015 0.0
C34 C 0.80252 0.2893 -0.00894 0.0
Zn35 Zn 0.82409 0.22058 0.98325 0.0
C36 C 0.78312 0.20446 0.22723 0.0
O37 O 0.81699 0.2163 0.17112 0.0
C38 C 0.79728 0.21366 0.73869 0.0
O39 O 0.81307 0.15775 0.97727 0.0
O40 O 0.7458 0.13632 0.9793 0.0
N41 N 0.88698 0.24566 0.00984 0.0
C42 C 0.91864 0.24637 0.94872 0.0
C43 C 0.94536 0.28529 0.10075 0.0
N44 N 0.90376 0.26969 0.10442 0.0
N45 N 0.95555 0.27127 0.00379 0.0
C46 C 0.66434 0.18014 0.01281 0.0
C47 C 0.63897 0.15521 0.84204 0.0
N48 N 0.69313 0.17489 0.95457 0.0
N49 N 0.67699 0.15884 0.84929 0.0
N50 N 0.6303 0.16863 0.94316 0.0
H51 H 0.67448 0.17716 0.19915 0.0
H52 H 0.6431 0.20038 0.16485 0.0
H53 H 0.69906 0.22915 0.13855 0.0
C54 C 0.67036 0.19789 0.13565 0.0
C55 C 0.91352 0.22376 0.83444 0.0
H56 H 0.88349 0.19361 0.83421 0.0
H57 H 0.94003 0.21817 0.82086 0.0
H58 H 0.91295 0.24315 0.75951 0.0
O59 O 0.83079 0.2247 0.79662 0.0
O60 O 0.76327 0.20201 0.79395 0.0
C61 C 0.77518 0.12788 0.97772 0.0
O62 O 0.76544 0.25843 -0.01023 0.0
O63 O 0.83319 0.28273 -0.01228 0.0
Zn64 Zn 0.56138 0.75583 0.05132 0.0
O65 O 0.55567 0.7527 0.23785 0.0
C66 C 0.52552 0.81109 0.04809 0.0
Zn67 Zn 0.61238 0.82255 0.05523 0.0
C68 C 0.58269 0.78392 0.29683 0.0
O69 O 0.6104 0.81616 0.24249 0.0
C70 C 0.58975 0.7927 0.80965 0.0
O71 O 0.66032 0.807 0.0494 0.0
O72 O 0.61019 0.74112 0.06252 0.0
N73 N 0.65488 0.8851 0.0753 0.0
C74 C 0.68212 0.91625 0.00347 0.0
C75 C 0.68028 0.9441 0.16715 0.0
N76 N 0.65419 0.90262 0.17705 0.0
N77 N 0.69807 0.95357 0.0589 0.0
C78 C 0.47758 0.66957 0.06078 0.0
C79 C 0.4952 0.63059 0.96869 0.0
N80 N 0.51859 0.69329 0.03455 0.0
N81 N 0.52945 0.66885 0.97799 0.0
N82 N 0.46229 0.6303 0.02016 0.0
H83 H 0.47151 0.70775 0.19216 0.0
H84 H 0.42386 0.65876 0.16333 0.0
H85 H 0.44228 0.70079 0.05666 0.0
C86 C 0.45227 0.68502 0.12247 0.0
C87 C 0.69204 0.91034 0.87874 0.0
H88 H 0.69403 0.88144 0.87306 0.0
H89 H 0.72194 0.93766 0.84894 0.0
H90 H 0.66663 0.90698 0.81853 0.0
O91 O 0.61285 0.82644 0.8661 0.0
O92 O 0.5665 0.75919 0.86641 0.0
C93 C 0.64893 0.76837 0.05595 0.0
O94 O 0.51469 0.77268 0.03839 0.0
O95 O 0.56397 0.83791 0.06247 0.0
Zn96 Zn 0.8158 0.5617 0.05298 0.0
O97 O 0.8181 0.55967 0.24149 0.0
C98 C 0.72259 0.52594 0.04773 0.0
Zn99 Zn 0.79765 0.611 0.05892 0.0
C100 C 0.8073 0.58203 0.3002 0.0
O101 O 0.79647 0.60531 0.24555 0.0
C102 C 0.80664 0.59042 0.81247 0.0
O103 O 0.86274 0.65679 0.06729 0.0
O104 O 0.87975 0.60836 0.04961 0.0
N105 N 0.78479 0.65868 0.07569 0.0
C106 C 0.7539 0.66504 0.03606 0.0
C107 C 0.7941 0.71718 0.14481 0.0
N108 N 0.80978 0.69127 0.14269 0.0
N109 N 0.7591 0.70145 0.07823 0.0
C110 C 0.81395 0.47559 0.06183 0.0
C111 C 0.86897 0.49079 0.9633 0.0
N112 N 0.83268 0.51672 0.0347 0.0
N113 N 0.86695 0.526 0.97403 0.0
N114 N 0.83602 0.45872 0.01761 0.0
H115 H 0.77096 0.42361 0.17094 0.0
H116 H 0.74716 0.44056 0.0605 0.0
H117 H 0.76986 0.47161 0.19173 0.0
C118 C 0.77318 0.45144 0.12578 0.0
C119 C 0.71839 0.63535 0.95867 0.0
H120 H 0.73016 0.62279 0.88919 0.0
H121 H 0.70264 0.65094 0.91603 0.0
H122 H 0.69516 0.60891 0.01373 0.0
O123 O 0.79916 0.61555 0.86965 0.0
O124 O 0.81394 0.56482 0.86809 0.0
C125 C 0.8908 0.64683 0.05704 0.0
O126 O 0.75106 0.51617 0.05149 0.0
O127 O 0.73279 0.56433 0.05158 0.0
Zn128 Zn 0.26242 0.81105 0.92409 0.0
O129 O 0.26093 0.80696 0.11233 0.0
C130 C 0.20758 0.71915 0.93421 0.0
Zn131 Zn 0.19531 0.79283 0.9279 0.0
C132 C 0.22951 0.80287 0.16936 0.0
O133 O 0.19764 0.79855 0.1136 0.0
C134 C 0.22816 0.80092 0.68173 0.0
O135 O 0.21283 0.8571 0.90878 0.0
O136 O 0.2788 0.87432 0.93384 0.0
N137 N 0.13219 0.77282 0.92072 0.0
C138 C 0.10204 0.76509 0.00115 0.0
C139 C 0.07159 0.74119 0.83459 0.0
N140 N 0.11297 0.75816 0.81749 0.0
N141 N 0.06384 0.74481 0.94924 0.0
C142 C 0.3539 0.83175 -0.00404 0.0
C143 C 0.37569 0.82591 0.82587 0.0
N144 N 0.32391 0.82546 0.91575 0.0
N145 N 0.3379 0.82224 0.81037 0.0
N146 N 0.38633 0.83155 0.94163 0.0
H147 H 0.33923 0.85866 0.14313 0.0
H148 H 0.38207 0.84915 0.17051 0.0
H149 H 0.32893 0.80609 0.16722 0.0
C150 C 0.35108 0.83687 0.12698 0.0
C151 C 0.10965 0.77629 0.13019 0.0
H152 H 0.11944 0.75584 0.17561 0.0
H153 H 0.08097 0.77221 0.17378 0.0
H154 H 0.13507 0.8093 0.13964 0.0
O155 O 0.19438 0.78749 0.7393 0.0
O156 O 0.26248 0.81472 0.73706 0.0
C157 C 0.25126 0.88514 0.92039 0.0
O158 O 0.24487 0.74771 0.91301 0.0
O159 O 0.17982 0.72932 0.94963 0.0
Zn160 Zn 0.45986 0.25917 0.94682 0.0
O161 O 0.46605 0.26221 0.13615 0.0
C162 C 0.49438 0.20221 0.95742 0.0
Zn163 Zn 0.40966 0.19255 0.9545 0.0
C164 C 0.4381 0.23139 0.19484 0.0
O165 O 0.40992 0.1998 0.14041 0.0
C166 C 0.43151 0.22056 0.70673 0.0
O167 O 0.36437 0.21178 0.93645 0.0
O168 O 0.41458 0.27762 0.95568 0.0
N169 N 0.36467 0.1306 0.97917 0.0
C170 C 0.34244 0.09702 0.90856 0.0
C171 C 0.33403 0.07459 0.08736 0.0
N172 N 0.35887 0.11636 0.08998 0.0
N173 N 0.32346 0.06151 0.97456 0.0
C174 C 0.52971 0.35285 -0.00445 0.0
C175 C 0.56385 0.36586 0.83342 0.0
N176 N 0.50845 0.31924 0.92459 0.0
N177 N 0.52966 0.32772 0.8238 0.0
N178 N 0.56485 0.38225 0.94063 0.0
H179 H 0.48225 0.34098 0.12415 0.0
H180 H 0.53133 0.38962 0.14554 0.0
H181 H 0.52739 0.34028 0.18208 0.0
C182 C 0.51685 0.35633 0.11896 0.0
C183 C 0.34038 0.09877 0.77577 0.0
H184 H 0.33464 0.12439 0.74891 0.0
H185 H 0.31514 0.0687 0.7395 0.0
H186 H 0.37073 0.10536 0.73762 0.0
O187 O 0.41054 0.18693 0.766 0.0
O188 O 0.45308 0.25499 0.76043 0.0
C189 C 0.37584 0.25048 0.94507 0.0
O190 O 0.50393 0.23965 0.93572 0.0
O191 O 0.45623 0.17508 0.97508 0.0
C192 C 0.30981 0.24718 0.01984 0.0
C193 C 0.34472 0.26465 0.94156 0.0
C194 C 0.33039 0.32049 0.88669 0.0
C195 C 0.29479 0.30222 0.96136 0.0
N196 N 0.24452 0.2434 0.07472 0.0
N197 N 0.38002 0.31007 0.77441 0.0
C198 C 0.2824 0.26369 0.01909 0.0
C199 C 0.35229 0.29875 0.86627 0.0
N200 N 0.30443 0.21719 0.10106 0.0
N201 N 0.34506 0.35983 0.84193 0.0
H202 H 0.39588 0.29417 0.75479 0.0
H203 H 0.38383 0.33225 0.71046 0.0
H204 H 0.33063 0.37731 0.85792 0.0
H205 H 0.37358 0.37647 0.79778 0.0
H206 H 0.28215 0.20687 0.16842 0.0
H207 H 0.32448 0.20517 0.10882 0.0
H208 H 0.23176 0.21331 0.10993 0.0
H209 H 0.2242 0.2553 0.07481 0.0
C210 C 0.0662 0.29611 0.03102 0.0
C211 C 0.08569 0.32967 0.94809 0.0
C212 C 0.0172 0.31717 0.88103 0.0
C213 C 0.99781 0.28513 0.96747 0.0
N214 N 1.00126 0.2364 0.1014 0.0
N215 N 0.07979 0.36161 0.76716 0.0
C216 C 0.02167 0.2719 0.03407 0.0
C217 C 0.06104 0.33652 0.86372 0.0
N218 N 0.08983 0.28899 0.11136 0.0
N219 N 0.99422 0.33118 0.82179 0.0
H220 H 0.11185 0.37534 0.75119 0.0
H221 H 0.06315 0.36512 0.6973 0.0
H222 H 0.96206 0.31798 0.83336 0.0
H223 H 1.00749 0.35774 0.76775 0.0
H224 H 0.07728 0.2686 0.18338 0.0
H225 H 0.12238 0.30479 0.10943 0.0
H226 H 0.0162 0.22263 0.14529 0.0
H227 H 0.96862 0.21871 0.10427 0.0
C228 C 0.7288 0.05531 0.90346 0.0
C229 C 0.76358 0.08295 0.97503 0.0
C230 C 0.76278 0.02193 0.06577 0.0
C231 C 0.72315 0.99558 0.01392 0.0
N232 N 0.66566 0.98778 0.89287 0.0
N233 N 0.81359 0.09182 0.12941 0.0
C234 C 0.70565 0.01223 0.93353 0.0
C235 C 0.7813 0.06618 0.0559 0.0
N236 N 0.71781 0.07033 0.80682 0.0
N237 N 0.78223 1.00424 0.12595 0.0
H238 H 0.82869 0.12428 0.12613 0.0
H239 H 0.8238 0.08076 0.19989 0.0
H240 H 0.76877 0.97185 0.134 0.0
H241 H 0.81289 0.02122 0.15722 0.0
H242 H 0.69502 0.051 0.74575 0.0
H243 H 0.73458 0.10167 0.78086 0.0
H244 H 0.64973 0.99963 0.84452 0.0
H245 H 0.64701 0.95641 0.91636 0.0
C246 C 0.73333 0.74257 0.97052 0.0
C247 C 0.73142 0.71815 0.07036 0.0
C248 C 0.68213 0.73404 0.16785 0.0
C249 C 0.68032 0.75465 0.06311 0.0
N250 N 0.70272 0.77773 0.86179 0.0
N251 N 0.7005 0.6855 0.2568 0.0
C252 C 0.70574 0.75897 0.96355 0.0
C253 C 0.70473 0.7124 0.16697 0.0
N254 N 0.76226 0.75065 0.88405 0.0
N255 N 0.66402 0.73711 0.26997 0.0
H256 H 0.71684 0.66928 0.25825 0.0
H257 H 0.67833 0.67658 0.32408 0.0
H258 H 0.6496 0.75511 0.27487 0.0
H259 H 0.66728 0.72591 0.3522 0.0
H260 H 0.76851 0.77155 0.81414 0.0
H261 H 0.78203 0.73811 0.88665 0.0
H262 H 0.71662 0.77763 0.78166 0.0
H263 H 0.68449 0.7919 0.85565 0.0
C264 C 0.9959 0.74126 0.96418 0.0
C265 C 0.02264 0.72627 0.00028 0.0
C266 C 0.96497 0.66984 0.11096 0.0
C267 C 0.93627 0.67904 0.05285 0.0
N268 N 0.92535 0.72473 0.91887 0.0
N269 N 0.03198 0.67345 0.09871 0.0
C270 C 0.95189 0.71561 0.97981 0.0
C271 C 1.00721 0.69009 0.07267 0.0
N272 N 0.01294 0.78015 0.91415 0.0
N273 N 0.95194 0.64223 0.20405 0.0
H274 H 0.06274 0.68668 0.0691 0.0
H275 H 0.02078 0.64457 0.14074 0.0
H276 H 0.92166 0.62855 0.23832 0.0
H277 H 0.97236 0.6369 0.25554 0.0
H278 H 0.99585 0.79495 0.89588 0.0
H279 H 0.04518 0.7992 0.90222 0.0
H280 H 0.93539 0.74758 0.85267 0.0
H281 H 0.89301 0.70819 0.92733 0.0
C282 C 0.24465 0.94735 0.98474 0.0
C283 C 0.26492 0.93049 0.91618 0.0
C284 C 0.32305 1.00125 0.87745 0.0
C285 C 0.30178 0.01817 0.93965 0.0
N286 N 0.23817 0.00825 0.0255 0.0
N287 N 0.31594 0.94269 0.76438 0.0
C288 C 0.26099 0.99135 0.98366 0.0
C289 C 0.30168 0.95791 0.85158 0.0
N290 N 0.2119 0.92226 0.05754 0.0
N291 N 0.36448 0.0257 0.85056 0.0
H292 H 0.29992 0.91135 0.73881 0.0
H293 H 0.34075 0.96204 0.70861 0.0
H294 H 0.38212 0.05704 0.87476 0.0
H295 H 0.38227 0.01366 0.81544 0.0
H296 H 0.19928 0.93398 0.11846 0.0
H297 H 0.19968 0.89015 0.06605 0.0
H298 H 0.20678 0.9903 0.04939 0.0
H299 H 0.24966 0.04046 0.02449 0.0
C300 C 0.22848 0.66576 -0.01391 0.0
C301 C 0.19745 0.67475 0.94365 0.0
C302 C 0.149 0.59933 0.92561 0.0
C303 C 0.1824 0.59164 0.9453 0.0
N304 N 0.2573 0.62077 0.958 0.0
N305 N 0.13012 0.64818 0.84487 0.0
C306 C 0.22321 0.62573 0.96531 0.0
C307 C 0.15796 0.64103 0.90627 0.0
N308 N 0.26222 0.69446 0.04996 0.0
N309 N 0.10876 0.56679 0.92527 0.0
H310 H 0.13665 0.67771 0.81663 0.0
H311 H 0.10255 0.6241 0.80843 0.0
H312 H 0.10138 0.53606 0.94261 0.0
H313 H 0.08298 0.57108 0.9208 0.0
H314 H 0.2837 0.68742 0.0886 0.0
H315 H 0.26571 0.72287 0.07784 0.0
H316 H 0.28787 0.64591 0.96328 0.0
H317 H 0.2552 0.59271 0.9327 0.0
C318 C 0.56867 0.22207 0.00425 0.0
C319 C 0.52811 0.19136 0.96418 0.0
C320 C 0.55429 0.14271 0.93935 0.0
C321 C 0.59572 0.17586 0.95777 0.0
N322 N 0.64236 0.25058 0.97062 0.0
N323 N 0.48579 0.1245 0.86561 0.0
C324 C 0.60305 0.21664 0.97958 0.0
C325 C 0.52155 0.15195 0.92466 0.0
N326 N 0.57456 0.25571 0.06924 0.0
N327 N 0.54626 0.10247 0.9359 0.0
H328 H 0.46255 0.13118 0.84128 0.0
H329 H 0.48163 0.09704 0.82744 0.0
H330 H 0.56964 0.09489 0.94922 0.0
H331 H 0.516 0.07676 0.93251 0.0
H332 H 0.60352 0.27708 0.10585 0.0
H333 H 0.54995 0.25924 0.09986 0.0
H334 H 0.64822 0.28119 0.97709 0.0
H335 H 0.66803 0.24839 0.94278 0.0
C336 C 0.40225 0.56862 0.11142 0.0
C337 C 0.41958 0.59673 0.01453 0.0
C338 C 0.35697 0.5537 0.89526 0.0
C339 C 0.33771 0.52772 -0.00447 0.0
N340 N 0.34086 0.51014 0.20102 0.0
N341 N 0.41234 0.62031 0.82104 0.0
C342 C 0.36009 0.535 0.10439 0.0
C343 C 0.39647 0.59056 0.90852 0.0
N344 N 0.42674 0.57378 0.20857 0.0
N345 N 0.33875 0.54153 0.78575 0.0
H346 H 0.44149 0.64748 0.82826 0.0
H347 H 0.39525 0.61978 0.74636 0.0
H348 H 0.3118 0.5127 0.77234 0.0
H349 H 0.35279 0.55729 0.70712 0.0
H350 H 0.41793 0.55237 0.2783 0.0
H351 H 0.45732 0.5988 0.21605 0.0
H352 H 0.35353 0.51644 0.28641 0.0
H353 H 0.31099 0.48387 0.19715 0.0
C354 C 0.84505 0.40144 0.09694 0.0
C355 C 0.82562 0.41562 0.01527 0.0
C356 C 0.79131 0.34742 0.91592 0.0
C357 C 0.80981 0.33259 0.00033 0.0
N358 N 0.8473 0.34262 0.18537 0.0
N359 N 0.7769 0.4023 0.85641 0.0
C360 C 0.83493 0.35888 0.09467 0.0
C361 C 0.79755 0.3885 0.92789 0.0
N362 N 0.87367 0.42913 0.17585 0.0
N363 N 0.76945 0.32305 0.82109 0.0
H364 H 0.78275 0.43297 0.85848 0.0
H365 H 0.75223 0.38301 0.80034 0.0
H366 H 0.76343 0.29262 0.80926 0.0
H367 H 0.75948 0.33368 0.74914 0.0
H368 H 0.89286 0.42256 0.22885 0.0
H369 H 0.87996 0.45988 0.18314 0.0
H370 H 0.86178 0.35886 0.26279 0.0
H371 H 0.83988 0.31146 0.18879 0.0
C372 C 0.46277 0.86382 0.95675 0.0
C373 C 0.42249 0.83171 -0.00923 0.0
C374 C 0.45419 0.79744 0.10036 0.0
C375 C 0.49297 0.82366 0.04337 0.0
N376 N 0.5342 0.88326 0.91326 0.0
N377 N 0.37913 0.76418 0.08209 0.0
C378 C 0.49769 0.85787 0.97205 0.0
C379 C 0.4179 0.79765 0.06043 0.0
N380 N 0.46733 0.9 0.9096 0.0
N381 N 0.45231 0.77316 0.19475 0.0
H382 H 0.35179 0.76213 0.04895 0.0
H383 H 0.37461 0.73681 0.12292 0.0
H384 H 0.47914 0.77484 0.23136 0.0
H385 H 0.42522 0.7556 0.24469 0.0
H386 H 0.49632 0.92643 0.893 0.0
H387 H 0.44197 0.90479 0.89854 0.0
H388 H 0.53693 0.90475 0.84842 0.0
H389 H 0.5613 0.88163 0.92254 0.0
C390 C 0.66281 0.45611 0.10857 0.0
C391 C 0.67805 0.49215 0.03503 0.0
C392 C 0.61115 0.45844 0.9273 0.0
C393 C 0.59992 0.4202 0.98533 0.0
N394 N 0.61912 0.38093 0.11759 0.0
N395 N 0.66794 0.52514 0.86095 0.0
C396 C 0.6266 0.41853 0.07336 0.0
C397 C 0.65232 0.49308 0.94168 0.0
N398 N 0.68252 0.45805 0.21324 0.0
N399 N 0.58241 0.46119 0.8569 0.0
H400 H 0.69861 0.54992 0.86306 0.0
H401 H 0.65174 0.52499 0.78461 0.0
H402 H 0.55208 0.43599 0.8457 0.0
H403 H 0.58733 0.48923 0.81999 0.0
H404 H 0.67099 0.43352 0.27463 0.0
H405 H 0.70745 0.48604 0.24423 0.0
H406 H 0.64013 0.3779 0.1732 0.0
H407 H 0.59411 0.35245 0.08955 0.0
C408 C 0.18898 0.39002 0.53497 0.0
C409 C 0.21411 0.42793 0.59771 0.0
C410 C 0.23399 0.46712 0.40943 0.0
C411 C 0.20751 0.4296 0.34741 0.0
N412 N 0.15268 0.35741 0.3514 0.0
N413 N 0.25192 0.50389 0.59607 0.0
C414 C 0.18319 0.3915 0.4102 0.0
C415 C 0.2339 0.46688 0.53554 0.0
N416 N 0.16953 0.35268 0.59479 0.0
N417 N 0.26079 0.50274 0.34834 0.0
H418 H 0.25392 0.50612 0.68821 0.0
H419 H 0.26178 0.53269 0.55495 0.0
H420 H 0.26191 0.5048 0.25589 0.0
H421 H 0.28469 0.52935 0.38905 0.0
H422 H 0.1558 0.32377 0.55262 0.0
H423 H 0.16837 0.35029 0.68722 0.0
H424 H 0.13094 0.32979 0.39328 0.0
H425 H 0.14627 0.35815 0.26126 0.0
C426 C 0.79315 0.24375 0.54305 0.0
C427 C 0.79687 0.21268 0.60715 0.0
C428 C 0.7912 0.17564 0.4214 0.0
C429 C 0.78412 0.20503 0.35877 0.0
N430 N 0.77294 0.26393 0.35974 0.0
N431 N 0.79807 0.14815 0.61196 0.0
C432 C 0.78329 0.23808 0.4197 0.0
C433 C 0.79576 0.17844 0.54748 0.0
N434 N 0.80124 0.27972 0.59937 0.0
N435 N 0.79374 0.14524 0.35974 0.0
H436 H 0.80389 0.1505 0.7033 0.0
H437 H 0.7925 0.11984 0.57684 0.0
H438 H 0.78719 0.14029 0.26899 0.0
H439 H 0.80372 0.12585 0.39666 0.0
H440 H 0.80285 0.30545 0.55606 0.0
H441 H 0.81077 0.2855 0.68813 0.0
H442 H 0.76752 0.28582 0.40136 0.0
H443 H 0.76664 0.26149 0.2687 0.0
C444 C 0.57718 0.81704 0.61269 0.0
C445 C 0.58886 0.79153 0.67814 0.0
C446 C 0.58762 0.75514 0.49531 0.0
C447 C 0.5813 0.78415 0.42823 0.0
N448 N 0.57102 0.84374 0.42092 0.0
N449 N 0.61149 0.74057 0.68061 0.0
C450 C 0.57669 0.81563 0.48636 0.0
C451 C 0.59566 0.76164 0.61916 0.0
N452 N 0.56385 0.8405 0.6712 0.0
N453 N 0.58543 0.721 0.44173 0.0
H454 H 0.61794 0.74433 0.77149 0.0
H455 H 0.62192 0.72229 0.63975 0.0
H456 H 0.5804 0.71509 0.35099 0.0
H457 H 0.58498 0.69644 0.48892 0.0
H458 H 0.55058 0.85621 0.62894 0.0
H459 H 0.56233 0.84118 0.7635 0.0
H460 H 0.57347 0.87079 0.45663 0.0
H461 H 0.56546 0.841 0.32946 0.0
C462 C 0.77777 0.55168 0.6232 0.0
C463 C 0.8061 0.5895 0.68121 0.0
C464 C 0.8363 0.62219 0.48912 0.0
C465 C 0.80951 0.58347 0.43186 0.0
N466 N 0.76163 0.50907 0.44741 0.0
N467 N 0.86742 0.65819 0.67392 0.0
C468 C 0.78239 0.54748 0.49981 0.0
C469 C 0.83663 0.62424 0.61543 0.0
N470 N 0.74547 0.52017 0.68545 0.0
N471 N 0.8619 0.65688 0.4228 0.0
H472 H 0.86894 0.66044 0.7663 0.0
H473 H 0.89335 0.68259 0.63211 0.0
H474 H 0.86618 0.65587 0.33153 0.0
H475 H 0.87774 0.68703 0.45738 0.0
H476 H 0.72094 0.49387 0.64543 0.0
H477 H 0.74093 0.52197 0.77617 0.0
H478 H 0.74496 0.48118 0.49478 0.0
H479 H 0.76448 0.50456 0.35775 0.0
C480 C 0.23243 0.83704 0.36289 0.0
C481 C 0.22961 0.80251 0.3005 0.0
C482 C 0.22803 0.76789 0.4886 0.0
C483 C 0.22778 0.801 0.55072 0.0
N484 N 0.22469 0.8646 0.55035 0.0
N485 N 0.21826 0.73234 0.30043 0.0
C486 C 0.2284 0.83485 0.48877 0.0
C487 C 0.22579 0.76719 0.36233 0.0
N488 N 0.24059 0.8725 0.30195 0.0
N489 N 0.23086 0.73741 0.55043 0.0
H490 H 0.21607 0.73061 0.2079 0.0
H491 H 0.2108 0.70397 0.34047 0.0
H492 H 0.23077 0.73594 0.64318 0.0
H493 H 0.23604 0.71511 0.51038 0.0
H494 H 0.24728 0.90037 0.34279 0.0
H495 H 0.24409 0.87526 0.20975 0.0
H496 H 0.22038 0.88757 0.50989 0.0
H497 H 0.22299 0.8647 0.64294 0.0
C498 C 0.4031 0.22869 0.51267 0.0
C499 C 0.43163 0.22049 0.5754 0.0
C500 C 0.46461 0.21933 0.38793 0.0
C501 C 0.43827 0.23086 0.32626 0.0
N502 N 0.38633 0.25194 0.32855 0.0
N503 N 0.49235 0.21232 0.57758 0.0
C504 C 0.40854 0.23704 0.38834 0.0
C505 C 0.46322 0.21702 0.51436 0.0
N506 N 0.37036 0.22763 0.57191 0.0
N507 N 0.48978 0.20909 0.3253 0.0
H508 H 0.49114 0.20857 0.66985 0.0
H509 H 0.51906 0.21456 0.53985 0.0
H510 H 0.49207 0.21103 0.2328 0.0
H511 H 0.50621 0.19593 0.36377 0.0
H512 H 0.34612 0.22941 0.53001 0.0
H513 H 0.36553 0.22149 0.66296 0.0
H514 H 0.36705 0.26099 0.36999 0.0
H515 H 0.38984 0.25858 0.23757 0.0
loop_
_geom_bond_atom_site_label_1
_geom_bond_atom_site_label_2
_geom_bond_distance
_geom_bond_site_symmetry_2
_ccdc_geom_bond_type
Zn0 O1 2.055 . S
Zn0 O8 2.046 . S
Zn0 N16 2.036 1_554 S
Zn0 O28 2.053 1_554 S
Zn0 O30 2.066 . S
O1 Zn0 2.055 . S
O1 C4 1.259 . S
C2 O30 1.256 . S
C2 O31 1.244 . S
Zn3 O5 2.046 . S
Zn3 O7 2.055 . S
Zn3 N9 2.036 . S
Zn3 O27 2.066 1_554 S
Zn3 O31 2.053 . S
C4 O1 1.259 . S
C4 O5 1.254 . S
O5 Zn3 2.046 . S
O5 C4 1.254 . S
C6 O27 1.256 . S
C6 O28 1.244 . S
O7 Zn3 2.055 . S
O7 C29 1.259 . S
O8 Zn0 2.046 . S
O8 C29 1.255 . S
N9 Zn3 2.036 . S
N9 C10 1.298 1_554 S
N9 N12 1.398 . S
C10 N9 1.298 1_556 S
C10 N13 1.367 . S
C10 C23 1.481 . S
C11 N12 1.299 . S
C11 N13 1.379 1_554 S
N12 N9 1.398 . S
N12 C11 1.299 . S
N13 C10 1.367 . S
N13 C11 1.379 1_556 S
C14 N16 1.298 1_554 S
C14 N18 1.367 1_554 S
C14 C22 1.481 . S
C15 N17 1.299 . S
C15 N18 1.379 . S
N16 Zn0 2.036 1_556 S
N16 C14 1.298 1_556 S
N16 N17 1.398 . S
N17 C15 1.299 . S
N17 N16 1.398 . S
N18 C14 1.367 1_556 S
N18 C15 1.379 . S
H19 C22 0.980 . S
H20 C22 0.981 . S
H21 C22 0.981 . S
C22 C14 1.481 . S
C22 H19 0.980 . S
C22 H20 0.981 . S
C22 H21 0.981 . S
C23 C10 1.481 . S
C23 H24 0.980 . S
C23 H25 0.981 . S
C23 H26 0.981 . S
H24 C23 0.980 . S
H25 C23 0.981 . S
H26 C23 0.981 . S
O27 Zn3 2.066 1_556 S
O27 C6 1.256 . S
O28 Zn0 2.053 1_556 S
O28 C6 1.244 . S
C29 O7 1.259 . S
C29 O8 1.255 . S
O30 Zn0 2.066 . S
O30 C2 1.256 . S
O31 C2 1.244 . S
O31 Zn3 2.053 . S
Zn32 O33 2.055 . S
Zn32 O40 2.046 . S
Zn32 N48 2.036 1_554 S
Zn32 O60 2.053 1_554 S
Zn32 O62 2.066 . S
O33 Zn32 2.055 . S
O33 C36 1.259 . S
C34 O62 1.256 . S
C34 O63 1.244 . S
Zn35 O37 2.046 . S
Zn35 O39 2.055 . S
Zn35 N41 2.036 . S
Zn35 O59 2.066 1_554 S
Zn35 O63 2.053 . S
C36 O33 1.259 . S
C36 O37 1.254 . S
O37 Zn35 2.046 . S
O37 C36 1.254 . S
C38 O59 1.256 . S
C38 O60 1.244 . S
O39 Zn35 2.055 . S
O39 C61 1.259 . S
O40 Zn32 2.046 . S
O40 C61 1.255 . S
N41 Zn35 2.036 . S
N41 C42 1.298 1_554 S
N41 N44 1.398 . S
C42 N41 1.298 1_556 S
C42 N45 1.367 . S
C42 C55 1.481 . S
C43 N44 1.299 . S
C43 N45 1.379 1_554 S
N44 N41 1.398 . S
N44 C43 1.299 . S
N45 C42 1.367 . S
N45 C43 1.379 1_556 S
C46 N48 1.298 1_554 S
C46 N50 1.367 1_554 S
C46 C54 1.481 . S
C47 N49 1.299 . S
C47 N50 1.379 . S
N48 Zn32 2.036 1_556 S
N48 C46 1.298 1_556 S
N48 N49 1.398 . S
N49 C47 1.299 . S
N49 N48 1.398 . S
N50 C46 1.367 1_556 S
N50 C47 1.379 . S
H51 C54 0.980 . S
H52 C54 0.981 . S
H53 C54 0.981 . S
C54 C46 1.481 . S
C54 H51 0.980 . S
C54 H52 0.981 . S
C54 H53 0.981 . S
C55 C42 1.481 . S
C55 H56 0.980 . S
C55 H57 0.981 . S
C55 H58 0.981 . S
H56 C55 0.980 . S
H57 C55 0.981 . S
H58 C55 0.981 . S
O59 Zn35 2.066 1_556 S
O59 C38 1.256 . S
O60 Zn32 2.053 1_556 S
O60 C38 1.244 . S
C61 O39 1.259 . S
C61 O40 1.255 . S
O62 Zn32 2.066 . S
O62 C34 1.256 . S
O63 C34 1.244 . S
O63 Zn35 2.053 . S
Zn64 O65 2.055 . S
Zn64 O72 2.046 . S
Zn64 N80 2.036 1_554 S
Zn64 O92 2.053 1_554 S
Zn64 O94 2.066 . S
O65 Zn64 2.055 . S
O65 C68 1.259 . S
C66 O94 1.256 . S
C66 O95 1.244 . S
Zn67 O69 2.046 . S
Zn67 O71 2.055 . S
Zn67 N73 2.036 . S
Zn67 O91 2.066 1_554 S
Zn67 O95 2.053 . S
C68 O65 1.259 . S
C68 O69 1.254 . S
O69 Zn67 2.046 . S
O69 C68 1.254 . S
C70 O91 1.256 . S
C70 O92 1.244 . S
O71 Zn67 2.055 . S
O71 C93 1.259 . S
O72 Zn64 2.046 . S
O72 C93 1.255 . S
N73 Zn67 2.036 . S
N73 C74 1.298 1_554 S
N73 N76 1.398 . S
C74 N73 1.298 1_556 S
C74 N77 1.367 . S
C74 C87 1.481 . S
C75 N76 1.299 . S
C75 N77 1.379 1_554 S
N76 N73 1.398 . S
N76 C75 1.299 . S
N77 C74 1.367 . S
N77 C75 1.379 1_556 S
C78 N80 1.298 1_554 S
C78 N82 1.367 1_554 S
C78 C86 1.481 . S
C79 N81 1.299 . S
C79 N82 1.379 . S
N80 Zn64 2.036 1_556 S
N80 C78 1.298 1_556 S
N80 N81 1.398 . S
N81 C79 1.299 . S
N81 N80 1.398 . S
N82 C78 1.367 1_556 S
N82 C79 1.379 . S
H83 C86 0.980 . S
H84 C86 0.981 . S
H85 C86 0.981 . S
C86 C78 1.481 . S
C86 H83 0.980 . S
C86 H84 0.981 . S
C86 H85 0.981 . S
C87 C74 1.481 . S
C87 H88 0.980 . S
C87 H89 0.981 . S
C87 H90 0.981 . S
H88 C87 0.980 . S
H89 C87 0.981 . S
H90 C87 0.981 . S
O91 Zn67 2.066 1_556 S
O91 C70 1.256 . S
O92 Zn64 2.053 1_556 S
O92 C70 1.244 . S
C93 O71 1.259 . S
C93 O72 1.255 . S
O94 Zn64 2.066 . S
O94 C66 1.256 . S
O95 C66 1.244 . S
O95 Zn67 2.053 . S
Zn96 O97 2.055 . S
Zn96 O104 2.046 . S
Zn96 N112 2.036 1_554 S
Zn96 O124 2.053 1_554 S
Zn96 O126 2.066 . S
O97 Zn96 2.055 . S
O97 C100 1.259 . S
C98 O126 1.256 . S
C98 O127 1.244 . S
Zn99 O101 2.046 . S
Zn99 O103 2.055 . S
Zn99 N105 2.036 . S
Zn99 O123 2.066 1_554 S
Zn99 O127 2.053 . S
C100 O97 1.259 . S
C100 O101 1.254 . S
O101 Zn99 2.046 . S
O101 C100 1.254 . S
C102 O123 1.256 . S
C102 O124 1.244 . S
O103 Zn99 2.055 . S
O103 C125 1.259 . S
O104 Zn96 2.046 . S
O104 C125 1.255 . S
N105 Zn99 2.036 . S
N105 C106 1.298 1_554 S
N105 N108 1.398 . S
C106 N105 1.298 1_556 S
C106 N109 1.367 . S
C106 C119 1.481 . S
C107 N108 1.299 . S
C107 N109 1.379 1_554 S
N108 N105 1.398 . S
N108 C107 1.299 . S
N109 C106 1.367 . S
N109 C107 1.379 1_556 S
C110 N112 1.298 1_554 S
C110 N114 1.367 1_554 S
C110 C118 1.481 . S
C111 N113 1.299 . S
C111 N114 1.379 . S
N112 Zn96 2.036 1_556 S
N112 C110 1.298 1_556 S
N112 N113 1.398 . S
N113 C111 1.299 . S
N113 N112 1.398 . S
N114 C110 1.367 1_556 S
N114 C111 1.379 . S
H115 C118 0.980 . S
H116 C118 0.981 . S
H117 C118 0.981 . S
C118 C110 1.481 . S
C118 H115 0.980 . S
C118 H116 0.981 . S
C118 H117 0.981 . S
C119 C106 1.481 . S
C119 H120 0.980 . S
C119 H121 0.981 . S
C119 H122 0.981 . S
H120 C119 0.980 . S
H121 C119 0.981 . S
H122 C119 0.981 . S
O123 Zn99 2.066 1_556 S
O123 C102 1.256 . S
O124 Zn96 2.053 1_556 S
O124 C102 1.244 . S
C125 O103 1.259 . S
C125 O104 1.255 . S
O126 Zn96 2.066 . S
O126 C98 1.256 . S
O127 C98 1.244 . S
O127 Zn99 2.053 . S
Zn128 O129 2.055 . S
Zn128 O136 2.046 . S
Zn128 N144 2.036 1_554 S
Zn128 O156 2.053 1_554 S
Zn128 O158 2.066 . S
O129 Zn128 2.055 . S
O129 C132 1.259 . S
C130 O158 1.256 . S
C130 O159 1.244 . S
Zn131 O133 2.046 . S
Zn131 O135 2.055 . S
Zn131 N137 2.036 . S
Zn131 O155 2.066 1_554 S
Zn131 O159 2.053 . S
C132 O129 1.259 . S
C132 O133 1.254 . S
O133 Zn131 2.046 . S
O133 C132 1.254 . S
C134 O155 1.256 . S
C134 O156 1.244 . S
O135 Zn131 2.055 . S
O135 C157 1.259 . S
O136 Zn128 2.046 . S
O136 C157 1.255 . S
N137 Zn131 2.036 . S
N137 C138 1.298 1_554 S
N137 N140 1.398 . S
C138 N137 1.298 1_556 S
C138 N141 1.367 . S
C138 C151 1.481 . S
C139 N140 1.299 . S
C139 N141 1.379 1_554 S
N140 N137 1.398 . S
N140 C139 1.299 . S
N141 C138 1.367 . S
N141 C139 1.379 1_556 S
C142 N144 1.298 1_554 S
C142 N146 1.367 1_554 S
C142 C150 1.481 . S
C143 N145 1.299 . S
C143 N146 1.379 . S
N144 Zn128 2.036 1_556 S
N144 C142 1.298 1_556 S
N144 N145 1.398 . S
N145 C143 1.299 . S
N145 N144 1.398 . S
N146 C142 1.367 1_556 S
N146 C143 1.379 . S
H147 C150 0.980 . S
H148 C150 0.981 . S
H149 C150 0.981 . S
C150 C142 1.481 . S
C150 H147 0.980 . S
C150 H148 0.981 . S
C150 H149 0.981 . S
C151 C138 1.481 . S
C151 H152 0.980 . S
C151 H153 0.981 . S
C151 H154 0.981 . S
H152 C151 0.980 . S
H153 C151 0.981 . S
H154 C151 0.981 . S
O155 Zn131 2.066 1_556 S
O155 C134 1.256 . S
O156 Zn128 2.053 1_556 S
O156 C134 1.244 . S
C157 O135 1.259 . S
C157 O136 1.255 . S
O158 Zn128 2.066 . S
O158 C130 1.256 . S
O159 C130 1.244 . S
O159 Zn131 2.053 . S
Zn160 O161 2.055 . S
Zn160 O168 2.046 . S
Zn160 N176 2.036 1_554 S
Zn160 O188 2.053 1_554 S
Zn160 O190 2.066 . S
O161 Zn160 2.055 . S
O161 C164 1.259 . S
C162 O190 1.256 . S
C162 O191 1.244 . S
Zn163 O165 2.046 . S
Zn163 O167 2.055 . S
Zn163 N169 2.036 . S
Zn163 O187 2.066 1_554 S
Zn163 O191 2.053 . S
C164 O161 1.259 . S
C164 O165 1.254 . S
O165 Zn163 2.046 . S
O165 C164 1.254 . S
C166 O187 1.256 . S
C166 O188 1.244 . S
O167 Zn163 2.055 . S
O167 C189 1.259 . S
O168 Zn160 2.046 . S
O168 C189 1.255 . S
N169 Zn163 2.036 . S
N169 C170 1.298 1_554 S
N169 N172 1.398 . S
C170 N169 1.298 1_556 S
C170 N173 1.367 . S
C170 C183 1.481 . S
C171 N172 1.299 . S
C171 N173 1.379 1_554 S
N172 N169 1.398 . S
N172 C171 1.299 . S
N173 C170 1.367 . S
N173 C171 1.379 1_556 S
C174 N176 1.298 1_554 S
C174 N178 1.367 1_554 S
C174 C182 1.481 . S
C175 N177 1.299 . S
C175 N178 1.379 . S
N176 Zn160 2.036 1_556 S
N176 C174 1.298 1_556 S
N176 N177 1.398 . S
N177 C175 1.299 . S
N177 N176 1.398 . S
N178 C174 1.367 1_556 S
N178 C175 1.379 . S
H179 C182 0.980 . S
H180 C182 0.981 . S
H181 C182 0.981 . S
C182 C174 1.481 . S
C182 H179 0.980 . S
C182 H180 0.981 . S
C182 H181 0.981 . S
C183 C170 1.481 . S
C183 H184 0.980 . S
C183 H185 0.981 . S
C183 H186 0.981 . S
H184 C183 0.980 . S
H185 C183 0.981 . S
H186 C183 0.981 . S
O187 Zn163 2.066 1_556 S
O187 C166 1.256 . S
O188 Zn160 2.053 1_556 S
O188 C166 1.244 . S
C189 O167 1.259 . S
C189 O168 1.255 . S
O190 Zn160 2.066 . S
O190 C162 1.256 . S
O191 C162 1.244 . S
O191 Zn163 2.053 . S
C192 C193 1.363 1_554 S
C192 C198 1.379 . S
C192 N200 1.356 . S
C193 C192 1.363 1_556 S
C193 C199 1.363 . S
C194 C195 1.363 . S
C194 C199 1.379 . S
C194 N201 1.356 . S
C195 C194 1.363 . S
C195 C198 1.363 1_556 S
N196 C198 1.356 . S
N196 H208 0.984 . S
N196 H209 0.985 . S
N197 C199 1.356 . S
N197 H202 0.984 . S
N197 H203 0.985 . S
C198 C192 1.379 . S
C198 C195 1.363 1_554 S
C198 N196 1.356 . S
C199 C193 1.363 . S
C199 C194 1.379 . S
C199 N197 1.356 . S
N200 C192 1.356 . S
N200 H206 0.984 . S
N200 H207 0.984 . S
N201 C194 1.356 . S
N201 H204 0.984 . S
N201 H205 0.985 . S
H202 N197 0.984 . S
H203 N197 0.985 . S
H204 N201 0.984 . S
H205 N201 0.985 . S
H206 N200 0.984 . S
H207 N200 0.984 . S
H208 N196 0.984 . S
H209 N196 0.985 . S
C210 C211 1.363 1_554 S
C210 C216 1.379 . S
C210 N218 1.356 . S
C211 C210 1.363 1_556 S
C211 C217 1.363 . S
C212 C213 1.363 1_455 S
C212 C217 1.379 . S
C212 N219 1.356 1_455 S
C213 C212 1.363 1_655 S
C213 C216 1.363 1_656 S
N214 C216 1.356 1_655 S
N214 H226 0.984 1_655 S
N214 H227 0.985 . S
N215 C217 1.356 . S
N215 H220 0.984 . S
N215 H221 0.985 . S
C216 C210 1.379 . S
C216 C213 1.363 1_454 S
C216 N214 1.356 1_455 S
C217 C211 1.363 . S
C217 C212 1.379 . S
C217 N215 1.356 . S
N218 C210 1.356 . S
N218 H224 0.984 . S
N218 H225 0.984 . S
N219 C212 1.356 1_655 S
N219 H222 0.984 . S
N219 H223 0.985 . S
H220 N215 0.984 . S
H221 N215 0.985 . S
H222 N219 0.984 . S
H223 N219 0.985 . S
H224 N218 0.984 . S
H225 N218 0.984 . S
H226 N214 0.984 1_455 S
H227 N214 0.985 . S
C228 C229 1.363 . S
C228 C234 1.379 . S
C228 N236 1.356 . S
C229 C228 1.363 . S
C229 C235 1.363 . S
C230 C231 1.363 1_545 S
C230 C235 1.379 . S
C230 N237 1.339 1_545 S
C231 C230 1.363 1_565 S
C231 C234 1.363 1_565 S
N232 C234 1.356 1_565 S
N232 H244 0.984 . S
N232 H245 0.985 . S
N233 C235 1.356 1_554 S
N233 H238 0.984 . S
N233 H239 0.985 . S
C234 C228 1.379 . S
C234 C231 1.363 1_545 S
C234 N232 1.356 1_545 S
C235 C229 1.363 . S
C235 C230 1.379 . S
C235 N233 1.356 1_556 S
N236 C228 1.356 . S
N236 H242 0.984 . S
N236 H243 0.984 . S
N237 C230 1.339 1_565 S
N237 H240 0.999 . S
N237 H241 0.987 1_566 S
H238 N233 0.984 . S
H239 N233 0.985 . S
H240 N237 0.999 . S
H241 N237 0.987 1_544 S
H242 N236 0.984 . S
H243 N236 0.984 . S
H244 N232 0.984 . S
H245 N232 0.985 . S
C246 C247 1.363 . S
C246 C252 1.379 . S
C246 N254 1.356 . S
C247 C246 1.363 . S
C247 C253 1.363 1_556 S
C248 C249 1.363 1_554 S
C248 C253 1.379 . S
C248 N255 1.356 . S
C249 C248 1.363 1_556 S
C249 C252 1.363 . S
N250 C252 1.356 . S
N250 H262 0.984 . S
N250 H263 0.985 . S
N251 C253 1.356 . S
N251 H256 0.984 . S
N251 H257 0.985 . S
C252 C246 1.379 . S
C252 C249 1.363 . S
C252 N250 1.356 . S
C253 C247 1.363 1_554 S
C253 C248 1.379 . S
C253 N251 1.356 . S
N254 C246 1.356 . S
N254 H260 0.984 . S
N254 H261 0.984 . S
N255 C248 1.356 . S
N255 H258 0.984 . S
N255 H259 0.985 . S
H256 N251 0.984 . S
H257 N251 0.985 . S
H258 N255 0.984 . S
H259 N255 0.985 . S
H260 N254 0.984 . S
H261 N254 0.984 . S
H262 N250 0.984 . S
H263 N250 0.985 . S
C264 C265 1.363 1_655 S
C264 C270 1.379 . S
C264 N272 1.356 . S
C265 C264 1.363 1_455 S
C265 C271 1.363 1_456 S
C266 C267 1.363 1_554 S
C266 C271 1.379 . S
C266 N273 1.356 . S
C267 C266 1.363 1_556 S
C267 C270 1.363 . S
N268 C270 1.356 . S
N268 H280 0.984 . S
N268 H281 0.985 . S
N269 C271 1.356 1_455 S
N269 H274 0.984 . S
N269 H275 0.985 . S
C270 C264 1.379 . S
C270 C267 1.363 . S
C270 N268 1.356 . S
C271 C265 1.363 1_654 S
C271 C266 1.379 . S
C271 N269 1.356 1_655 S
N272 C264 1.356 . S
N272 H278 0.984 . S
N272 H279 0.984 1_655 S
N273 C266 1.356 . S
N273 H276 0.984 . S
N273 H277 0.985 . S
H274 N269 0.984 . S
H275 N269 0.985 . S
H276 N273 0.984 . S
H277 N273 0.985 . S
H278 N272 0.984 . S
H279 N272 0.984 1_455 S
H280 N268 0.984 . S
H281 N268 0.985 . S
C282 C283 1.363 1_554 S
C282 C288 1.379 . S
C282 N290 1.356 . S
C283 C282 1.363 1_556 S
C283 C289 1.363 . S
C284 C285 1.363 1_565 S
C284 C289 1.379 . S
C284 N291 1.356 1_565 S
C285 C284 1.363 1_545 S
C285 C288 1.363 1_546 S
N286 C288 1.356 1_545 S
N286 H298 0.984 1_545 S
N286 H299 0.985 . S
N287 C289 1.356 . S
N287 H292 0.984 . S
N287 H293 0.985 . S
C288 C282 1.379 . S
C288 C285 1.363 1_564 S
C288 N286 1.356 1_565 S
C289 C283 1.363 . S
C289 C284 1.379 . S
C289 N287 1.356 . S
N290 C282 1.356 . S
N290 H296 0.984 . S
N290 H297 0.984 . S
N291 C284 1.356 1_545 S
N291 H294 0.984 . S
N291 H295 0.985 . S
H292 N287 0.984 . S
H293 N287 0.985 . S
H294 N291 0.984 . S
H295 N291 0.985 . S
H296 N290 0.984 . S
H297 N290 0.984 . S
H298 N286 0.984 1_565 S
H299 N286 0.985 . S
C300 C301 1.363 . S
C300 C306 1.379 . S
C300 N308 1.356 . S
C301 C300 1.363 . S
C301 C307 1.363 1_554 S
C302 C303 1.363 1_556 S
C302 C307 1.379 . S
C302 N309 1.356 . S
C303 C302 1.363 1_554 S
C303 C306 1.363 . S
N304 C306 1.356 . S
N304 H316 0.984 . S
N304 H317 0.985 . S
N305 C307 1.356 . S
N305 H310 0.984 . S
N305 H311 0.985 . S
C306 C300 1.379 . S
C306 C303 1.363 . S
C306 N304 1.356 . S
C307 C301 1.363 1_556 S
C307 C302 1.379 . S
C307 N305 1.356 . S
N308 C300 1.356 . S
N308 H314 0.984 . S
N308 H315 0.984 . S
N309 C302 1.356 . S
N309 H312 0.984 . S
N309 H313 0.985 . S
H310 N305 0.984 . S
H311 N305 0.985 . S
H312 N309 0.984 . S
H313 N309 0.985 . S
H314 N308 0.984 . S
H315 N308 0.984 . S
H316 N304 0.984 . S
H317 N304 0.985 . S
C318 C319 1.363 . S
C318 C324 1.379 . S
C318 N326 1.356 . S
C319 C318 1.363 . S
C319 C325 1.363 1_554 S
C320 C321 1.363 1_556 S
C320 C325 1.379 . S
C320 N327 1.356 . S
C321 C320 1.363 1_554 S
C321 C324 1.363 . S
N322 C324 1.356 . S
N322 H334 0.984 . S
N322 H335 0.985 . S
N323 C325 1.356 . S
N323 H328 0.984 . S
N323 H329 0.985 . S
C324 C318 1.379 . S
C324 C321 1.363 . S
C324 N322 1.356 . S
C325 C319 1.363 1_556 S
C325 C320 1.379 . S
C325 N323 1.356 . S
N326 C318 1.356 . S
N326 H332 0.984 . S
N326 H333 0.984 . S
N327 C320 1.356 . S
N327 H330 0.984 . S
N327 H331 0.985 . S
H328 N323 0.984 . S
H329 N323 0.985 . S
H330 N327 0.984 . S
H331 N327 0.985 . S
H332 N326 0.984 . S
H333 N326 0.984 . S
H334 N322 0.984 . S
H335 N322 0.985 . S
C336 C337 1.363 . S
C336 C342 1.379 . S
C336 N344 1.356 . S
C337 C336 1.363 . S
C337 C343 1.363 1_554 S
C338 C339 1.363 1_556 S
C338 C343 1.379 . S
C338 N345 1.356 . S
C339 C338 1.363 1_554 S
C339 C342 1.363 . S
N340 C342 1.356 . S
N340 H352 0.984 . S
N340 H353 0.985 . S
N341 C343 1.356 . S
N341 H346 0.984 . S
N341 H347 0.985 . S
C342 C336 1.379 . S
C342 C339 1.363 . S
C342 N340 1.356 . S
C343 C337 1.363 1_556 S
C343 C338 1.379 . S
C343 N341 1.356 . S
N344 C336 1.356 . S
N344 H350 0.984 . S
N344 H351 0.984 . S
N345 C338 1.356 . S
N345 H348 0.984 . S
N345 H349 0.985 . S
H346 N341 0.984 . S
H347 N341 0.985 . S
H348 N345 0.984 . S
H349 N345 0.985 . S
H350 N344 0.984 . S
H351 N344 0.984 . S
H352 N340 0.984 . S
H353 N340 0.985 . S
C354 C355 1.363 . S
C354 C360 1.379 . S
C354 N362 1.356 . S
C355 C354 1.363 . S
C355 C361 1.363 1_554 S
C356 C357 1.363 1_556 S
C356 C361 1.379 . S
C356 N363 1.356 . S
C357 C356 1.363 1_554 S
C357 C360 1.363 . S
N358 C360 1.356 . S
N358 H370 0.984 . S
N358 H371 0.985 . S
N359 C361 1.356 . S
N359 H364 0.984 . S
N359 H365 0.985 . S
C360 C354 1.379 . S
C360 C357 1.363 . S
C360 N358 1.356 . S
C361 C355 1.363 1_556 S
C361 C356 1.379 . S
C361 N359 1.356 . S
N362 C354 1.356 . S
N362 H368 0.984 . S
N362 H369 0.984 . S
N363 C356 1.356 . S
N363 H366 0.984 . S
N363 H367 0.985 . S
H364 N359 0.984 . S
H365 N359 0.985 . S
H366 N363 0.984 . S
H367 N363 0.985 . S
H368 N362 0.984 . S
H369 N362 0.984 . S
H370 N358 0.984 . S
H371 N358 0.985 . S
C372 C373 1.363 1_556 S
C372 C378 1.379 . S
C372 N380 1.356 . S
C373 C372 1.363 1_554 S
C373 C379 1.363 . S
C374 C375 1.363 . S
C374 C379 1.379 . S
C374 N381 1.356 . S
C375 C374 1.363 . S
C375 C378 1.363 1_554 S
N376 C378 1.356 . S
N376 H388 0.984 . S
N376 H389 0.985 . S
N377 C379 1.356 . S
N377 H382 0.984 . S
N377 H383 0.985 . S
C378 C372 1.379 . S
C378 C375 1.363 1_556 S
C378 N376 1.356 . S
C379 C373 1.363 . S
C379 C374 1.379 . S
C379 N377 1.356 . S
N380 C372 1.356 . S
N380 H386 0.984 . S
N380 H387 0.984 . S
N381 C374 1.356 . S
N381 H384 0.984 . S
N381 H385 0.985 . S
H382 N377 0.984 . S
H383 N377 0.985 . S
H384 N381 0.984 . S
H385 N381 0.985 . S
H386 N380 0.984 . S
H387 N380 0.984 . S
H388 N376 0.984 . S
H389 N376 0.985 . S
C390 C391 1.363 . S
C390 C396 1.379 . S
C390 N398 1.356 . S
C391 C390 1.363 . S
C391 C397 1.363 1_554 S
C392 C393 1.363 1_556 S
C392 C397 1.379 . S
C392 N399 1.356 . S
C393 C392 1.363 1_554 S
C393 C396 1.363 . S
N394 C396 1.356 . S
N394 H406 0.984 . S
N394 H407 0.985 . S
N395 C397 1.356 . S
N395 H400 0.984 . S
N395 H401 0.985 . S
C396 C390 1.379 . S
C396 C393 1.363 . S
C396 N394 1.356 . S
C397 C391 1.363 1_556 S
C397 C392 1.379 . S
C397 N395 1.356 . S
N398 C390 1.356 . S
N398 H404 0.984 . S
N398 H405 0.984 . S
N399 C392 1.356 . S
N399 H402 0.984 . S
N399 H403 0.985 . S
H400 N395 0.984 . S
H401 N395 0.985 . S
H402 N399 0.984 . S
H403 N399 0.985 . S
H404 N398 0.984 . S
H405 N398 0.984 . S
H406 N394 0.984 . S
H407 N394 0.985 . S
C408 C409 1.363 . S
C408 C414 1.379 . S
C408 N416 1.356 . S
C409 C408 1.363 . S
C409 C415 1.363 . S
C410 C411 1.363 . S
C410 C415 1.379 . S
C410 N417 1.356 . S
C411 C410 1.363 . S
C411 C414 1.363 . S
N412 C414 1.356 . S
N412 H424 0.984 . S
N412 H425 0.985 . S
N413 C415 1.356 . S
N413 H418 0.984 . S
N413 H419 0.985 . S
C414 C408 1.379 . S
C414 C411 1.363 . S
C414 N412 1.356 . S
C415 C409 1.363 . S
C415 C410 1.379 . S
C415 N413 1.356 . S
N416 C408 1.356 . S
N416 H422 0.984 . S
N416 H423 0.984 . S
N417 C410 1.356 . S
N417 H420 0.984 . S
N417 H421 0.985 . S
H418 N413 0.984 . S
H419 N413 0.985 . S
H420 N417 0.984 . S
H421 N417 0.985 . S
H422 N416 0.984 . S
H423 N416 0.984 . S
H424 N412 0.984 . S
H425 N412 0.985 . S
C426 C427 1.363 . S
C426 C432 1.379 . S
C426 N434 1.356 . S
C427 C426 1.363 . S
C427 C433 1.363 . S
C428 C429 1.363 . S
C428 C433 1.379 . S
C428 N435 1.356 . S
C429 C428 1.363 . S
C429 C432 1.363 . S
N430 C432 1.356 . S
N430 H442 0.984 . S
N430 H443 0.985 . S
N431 C433 1.356 . S
N431 H436 0.984 . S
N431 H437 0.985 . S
C432 C426 1.379 . S
C432 C429 1.363 . S
C432 N430 1.356 . S
C433 C427 1.363 . S
C433 C428 1.379 . S
C433 N431 1.356 . S
N434 C426 1.356 . S
N434 H440 0.984 . S
N434 H441 0.984 . S
N435 C428 1.356 . S
N435 H438 0.984 . S
N435 H439 0.985 . S
H436 N431 0.984 . S
H437 N431 0.985 . S
H438 N435 0.984 . S
H439 N435 0.985 . S
H440 N434 0.984 . S
H441 N434 0.984 . S
H442 N430 0.984 . S
H443 N430 0.985 . S
C444 C445 1.363 . S
C444 C450 1.379 . S
C444 N452 1.356 . S
C445 C444 1.363 . S
C445 C451 1.363 . S
C446 C447 1.363 . S
C446 C451 1.379 . S
C446 N453 1.356 . S
C447 C446 1.363 . S
C447 C450 1.363 . S
N448 C450 1.356 . S
N448 H460 0.984 . S
N448 H461 0.985 . S
N449 C451 1.356 . S
N449 H454 0.984 . S
N449 H455 0.985 . S
C450 C444 1.379 . S
C450 C447 1.363 . S
C450 N448 1.356 . S
C451 C445 1.363 . S
C451 C446 1.379 . S
C451 N449 1.356 . S
N452 C444 1.356 . S
N452 H458 0.984 . S
N452 H459 0.984 . S
N453 C446 1.356 . S
N453 H456 0.984 . S
N453 H457 0.985 . S
H454 N449 0.984 . S
H455 N449 0.985 . S
H456 N453 0.984 . S
H457 N453 0.985 . S
H458 N452 0.984 . S
H459 N452 0.984 . S
H460 N448 0.984 . S
H461 N448 0.985 . S
C462 C463 1.363 . S
C462 C468 1.379 . S
C462 N470 1.356 . S
C463 C462 1.363 . S
C463 C469 1.363 . S
C464 C465 1.363 . S
C464 C469 1.379 . S
C464 N471 1.356 . S
C465 C464 1.363 . S
C465 C468 1.363 . S
N466 C468 1.356 . S
N466 H478 0.984 . S
N466 H479 0.985 . S
N467 C469 1.356 . S
N467 H472 0.984 . S
N467 H473 0.985 . S
C468 C462 1.379 . S
C468 C465 1.363 . S
C468 N466 1.356 . S
C469 C463 1.363 . S
C469 C464 1.379 . S
C469 N467 1.356 . S
N470 C462 1.356 . S
N470 H476 0.984 . S
N470 H477 0.984 . S
N471 C464 1.356 . S
N471 H474 0.984 . S
N471 H475 0.985 . S
H472 N467 0.984 . S
H473 N467 0.985 . S
H474 N471 0.984 . S
H475 N471 0.985 . S
H476 N470 0.984 . S
H477 N470 0.984 . S
H478 N466 0.984 . S
H479 N466 0.985 . S
C480 C481 1.363 . S
C480 C486 1.379 . S
C480 N488 1.356 . S
C481 C480 1.363 . S
C481 C487 1.363 . S
C482 C483 1.363 . S
C482 C487 1.379 . S
C482 N489 1.356 . S
C483 C482 1.363 . S
C483 C486 1.363 . S
N484 C486 1.356 . S
N484 H496 0.984 . S
N484 H497 0.985 . S
N485 C487 1.356 . S
N485 H490 0.984 . S
N485 H491 0.985 . S
C486 C480 1.379 . S
C486 C483 1.363 . S
C486 N484 1.356 . S
C487 C481 1.363 . S
C487 C482 1.379 . S
C487 N485 1.356 . S
N488 C480 1.356 . S
N488 H494 0.984 . S
N488 H495 0.984 . S
N489 C482 1.356 . S
N489 H492 0.984 . S
N489 H493 0.985 . S
H490 N485 0.984 . S
H491 N485 0.985 . S
H492 N489 0.984 . S
H493 N489 0.985 . S
H494 N488 0.984 . S
H495 N488 0.984 . S
H496 N484 0.984 . S
H497 N484 0.985 . S
C498 C499 1.363 . S
C498 C504 1.379 . S
C498 N506 1.356 . S
C499 C498 1.363 . S
C499 C505 1.363 . S
C500 C501 1.363 . S
C500 C505 1.379 . S
C500 N507 1.356 . S
C501 C500 1.363 . S
C501 C504 1.363 . S
N502 C504 1.356 . S
N502 H514 0.984 . S
N502 H515 0.985 . S
N503 C505 1.356 . S
N503 H508 0.984 . S
N503 H509 0.985 . S
C504 C498 1.379 . S
C504 C501 1.363 . S
C504 N502 1.356 . S
C505 C499 1.363 . S
C505 C500 1.379 . S
C505 N503 1.356 . S
N506 C498 1.356 . S
N506 H512 0.984 . S
N506 H513 0.984 . S
N507 C500 1.356 . S
N507 H510 0.984 . S
N507 H511 0.985 . S
H508 N503 0.984 . S
H509 N503 0.985 . S
H510 N507 0.984 . S
H511 N507 0.985 . S
H512 N506 0.984 . S
H513 N506 0.984 . S
H514 N502 0.984 . S
H515 N502 0.985 . S
C193 C189 1.527 1_556 S
C195 N13 1.374 . S
C211 C29 1.527 1_556 S
C213 N45 1.374 . S
C229 C61 1.527 1_556 S
C231 N77 1.374 . S
C247 N109 1.374 . S
C249 C93 1.527 1_556 S
C265 N141 1.374 . S
C267 C125 1.527 1_556 S
C283 C157 1.527 1_556 S
C285 N173 1.374 . S
C301 C130 1.561 . S
C303 N18 1.560 1_554 S
C319 C162 1.561 . S
C321 N50 1.560 1_554 S
C337 N82 1.560 1_554 S
C339 C2 1.561 . S
C355 N114 1.560 1_554 S
C357 C34 1.561 . S
C373 N146 1.560 1_554 S
C375 C66 1.561 . S
C391 C98 1.561 . S
C393 N178 1.560 1_554 S
C409 C6 1.524 . S
C411 C4 1.512 . S
C427 C38 1.524 . S
C429 C36 1.512 . S
C445 C70 1.524 . S
C447 C68 1.512 . S
C463 C102 1.524 . S
C465 C100 1.512 . S
C481 C132 1.512 . S
C483 C134 1.524 . S
C499 C166 1.524 . S
C501 C164 1.512 . S
