# Generated by pormake.
# Topology smc, (6)-cn, num edge types: 1
# Building blocks:
#     Node 0, Type 0, BuildingBlock: MIFKUJ_clean_sbu_0, # of connection points: 6
#     Node 1, Type 0, BuildingBlock: MIFKUJ_clean_sbu_0, # of connection points: 6
#     Node 2, Type 0, BuildingBlock: MIFKUJ_clean_sbu_0, # of connection points: 6
#     Node 3, Type 0, BuildingBlock: MIFKUJ_clean_sbu_0, # of connection points: 6
#     Node 4, Type 0, BuildingBlock: MIFKUJ_clean_sbu_0, # of connection points: 6
#     Node 5, Type 0, BuildingBlock: MIFKUJ_clean_sbu_0, # of connection points: 6
#     Node 6, Type 0, BuildingBlock: MIFKUJ_clean_sbu_0, # of connection points: 6
#     Node 7, Type 0, BuildingBlock: MIFKUJ_clean_sbu_0, # of connection points: 6
#     Node 8, Type 0, BuildingBlock: MIFKUJ_clean_sbu_0, # of connection points: 6
#     Edge 9, Type (0, 0), BuildingBlock: OJICUG_clean_linker_0, # of connection points: 2
#     Edge 10, Type (0, 0), BuildingBlock: OJICUG_clean_linker_0, # of connection points: 2
#     Edge 11, Type (0, 0), BuildingBlock: OJICUG_clean_linker_0, # of connection points: 2
#     Edge 12, Type (0, 0), BuildingBlock: OJICUG_clean_linker_0, # of connection points: 2
#     Edge 13, Type (0, 0), BuildingBlock: OJICUG_clean_linker_0, # of connection points: 2
#     Edge 14, Type (0, 0), BuildingBlock: OJICUG_clean_linker_0, # of connection points: 2
#     Edge 15, Type (0, 0), BuildingBlock: OJICUG_clean_linker_0, # of connection points: 2
#     Edge 16, Type (0, 0), BuildingBlock: OJICUG_clean_linker_0, # of connection points: 2
#     Edge 17, Type (0, 0), BuildingBlock: OJICUG_clean_linker_0, # of connection points: 2
#     Edge 18, Type (0, 0), BuildingBlock: OJICUG_clean_linker_0, # of connection points: 2
#     Edge 19, Type (0, 0), BuildingBlock: OJICUG_clean_linker_0, # of connection points: 2
#     Edge 20, Type (0, 0), BuildingBlock: OJICUG_clean_linker_0, # of connection points: 2
#     Edge 21, Type (0, 0), BuildingBlock: OJICUG_clean_linker_0, # of connection points: 2
#     Edge 22, Type (0, 0), BuildingBlock: OJICUG_clean_linker_0, # of connection points: 2
#     Edge 23, Type (0, 0), BuildingBlock: OJICUG_clean_linker_0, # of connection points: 2
#     Edge 24, Type (0, 0), BuildingBlock: OJICUG_clean_linker_0, # of connection points: 2
#     Edge 25, Type (0, 0), BuildingBlock: OJICUG_clean_linker_0, # of connection points: 2
#     Edge 26, Type (0, 0), BuildingBlock: OJICUG_clean_linker_0, # of connection points: 2
#     Edge 27, Type (0, 0), BuildingBlock: OJICUG_clean_linker_0, # of connection points: 2
#     Edge 28, Type (0, 0), BuildingBlock: OJICUG_clean_linker_0, # of connection points: 2
#     Edge 29, Type (0, 0), BuildingBlock: OJICUG_clean_linker_0, # of connection points: 2
#     Edge 30, Type (0, 0), BuildingBlock: OJICUG_clean_linker_0, # of connection points: 2
#     Edge 31, Type (0, 0), BuildingBlock: OJICUG_clean_linker_0, # of connection points: 2
#     Edge 32, Type (0, 0), BuildingBlock: OJICUG_clean_linker_0, # of connection points: 2
#     Edge 33, Type (0, 0), BuildingBlock: OJICUG_clean_linker_0, # of connection points: 2
#     Edge 34, Type (0, 0), BuildingBlock: OJICUG_clean_linker_0, # of connection points: 2
#     Edge 35, Type (0, 0), BuildingBlock: OJICUG_clean_linker_0, # of connection points: 2
# Relax obj value: 0.196
# Max RMSD: 0.317
# Mean RMSD: 0.309
data_MOF--net-smc--node1-MIFKUJ_clean_sbu_0--edge1-OJICUG_clean_linker_0
_symmetry_space_group_name_H-M    P1
_symmetry_Int_Tables_number       1
_symmetry_cell_setting            triclinic
loop_
_symmetry_equiv_pos_as_xyz
'x, y, z'
_cell_length_a     27.221324
_cell_length_b     26.215272
_cell_length_c     28.289554
_cell_angle_alpha  90.369842
_cell_angle_beta   91.539862
_cell_angle_gamma 120.14692
loop_
_atom_site_label
_atom_site_type_symbol
_atom_site_fract_x
_atom_site_fract_y
_atom_site_fract_z
_atom_type_partial_charge
Zn0 Zn 0.08862 0.42625 -0.01055 0.0
Zn1 Zn 0.91668 0.36305 -0.01462 0.0
C2 C 0.12188 0.54855 0.97839 0.0
O3 O 0.10921 0.53259 0.9336 0.0
C4 C 0.82222 0.24793 0.0089 0.0
O5 O 0.8439 0.26382 0.05214 0.0
O6 O 0.15702 0.41692 0.00059 0.0
O7 O 0.01734 0.36724 0.01832 0.0
O8 O 0.9495 0.37281 0.05185 0.0
C9 C 0.1915 0.44644 0.03458 0.0
O10 O 0.17747 0.47529 0.06435 0.0
O11 O 0.11204 0.50948 0.00889 0.0
C12 C 0.85133 0.40866 0.94416 0.0
O13 O 0.84134 0.36707 0.91282 0.0
O14 O 0.88614 0.41834 0.97854 0.0
O15 O 0.97689 0.37991 0.93675 0.0
O16 O 0.06701 0.41287 0.92125 0.0
O17 O 0.84828 0.28143 0.97496 0.0
C18 C -0.00188 0.37752 0.05503 0.0
C19 C 0.01538 0.39099 0.90723 0.0
Zn20 Zn 0.62319 0.53037 -0.00529 0.0
Zn21 Zn 0.53166 0.6098 0.97501 0.0
C22 C 0.56895 0.42262 0.03851 0.0
O23 O 0.61415 0.45379 0.06625 0.0
C24 C 0.52826 0.71125 0.93884 0.0
O25 O 0.53 0.68916 0.89753 0.0
O26 O 0.6923 0.52226 -0.01163 0.0
O27 O 0.61444 0.5633 0.93329 0.0
O28 O 0.56459 0.60649 0.91411 0.0
C29 C 0.6915 0.49101 0.95353 0.0
O30 O 0.64716 0.46776 0.92402 0.0
O31 O 0.5595 0.44799 0.00424 0.0
C32 C 0.43097 0.54031 0.02267 0.0
O33 O 0.46438 0.57592 0.05692 0.0
O34 O 0.45148 0.54366 -0.0178 0.0
O35 O 0.58068 0.6151 0.02979 0.0
O36 O 0.63647 0.58088 0.05203 0.0
O37 O 0.52882 0.68494 0.97627 0.0
C38 C 0.59762 0.58759 0.90333 0.0
C39 C 0.61396 0.61206 0.06021 0.0
Zn40 Zn 0.37976 0.90627 0.00094 0.0
Zn41 Zn 0.47662 0.06566 0.02675 0.0
C42 C 0.45394 0.87974 0.9534 0.0
O43 O 0.42429 0.88254 0.91711 0.0
C44 C 0.46618 0.17033 0.02962 0.0
O45 O 0.41666 0.13584 0.00823 0.0
O46 O 0.31112 0.82623 -0.01017 0.0
O47 O 0.37327 0.928 0.06687 0.0
O48 O 0.43192 0.02293 0.08317 0.0
C49 C 0.29275 0.78864 0.02243 0.0
O50 O 0.3199 0.80228 0.06378 0.0
O51 O 0.44604 0.89413 -0.00576 0.0
C52 C 0.5816 0.09379 -0.01242 0.0
O53 O 0.55718 0.10499 0.95162 0.0
O54 O 0.5525 0.06985 0.02371 0.0
O55 O 0.43487 0.04859 0.96346 0.0
O56 O 0.37254 0.95393 0.94951 0.0
O57 O 0.49813 0.14961 0.04098 0.0
C58 C 0.39441 0.97177 0.09552 0.0
C59 C 0.3963 0.00744 0.93759 0.0
Zn60 Zn 0.74664 0.81589 0.30672 0.0
Zn61 Zn 0.59678 0.75309 0.31929 0.0
C62 C 0.77059 0.91499 0.25556 0.0
O63 O 0.78266 0.88482 0.22541 0.0
C64 C 0.49041 0.64778 0.34993 0.0
O65 O 0.50982 0.66359 0.39375 0.0
O66 O 0.82671 0.8359 0.29613 0.0
O67 O 0.7316 0.79227 0.37236 0.0
O68 O 0.63781 0.74598 0.3782 0.0
C69 C 0.84821 0.80529 0.31047 0.0
O70 O 0.81836 0.7591 0.33653 0.0
O71 O 0.74564 0.89008 0.29305 0.0
C72 C 0.54875 0.82275 0.29227 0.0
O73 O 0.53998 0.7916 0.25315 0.0
O74 O 0.57736 0.81752 0.32628 0.0
O75 O 0.62228 0.74983 0.25352 0.0
O76 O 0.70367 0.75055 0.26113 0.0
O77 O 0.52004 0.6787 0.31615 0.0
C78 C 0.68737 0.76315 0.39586 0.0
C79 C 0.6582 0.73702 0.23814 0.0
Zn80 Zn 0.19453 0.96903 0.30655 0.0
Zn81 Zn 0.27596 0.87662 0.32286 0.0
C82 C 0.08369 0.89715 0.27219 0.0
O83 O 0.10613 0.93488 0.23793 0.0
C84 C 0.38866 0.89793 0.33073 0.0
O85 O 0.37911 0.90283 0.37534 0.0
O86 O 0.18136 0.03704 0.3003 0.0
O87 O 0.23854 0.97381 0.36829 0.0
O88 O 0.28716 0.92623 0.38066 0.0
C89 C 0.21587 0.09203 0.30526 0.0
O90 O 0.26797 0.1114 0.3217 0.0
O91 O 0.11614 0.8984 0.30583 0.0
C92 C 0.20188 0.75121 0.30905 0.0
O93 O 0.19867 0.76611 0.26531 0.0
O94 O 0.23067 0.79143 0.33996 0.0
O95 O 0.23307 0.89862 0.28016 0.0
O96 O 0.23625 0.97443 0.24856 0.0
O97 O 0.35087 0.89015 0.29949 0.0
C98 C 0.26989 0.96094 0.39431 0.0
C99 C 0.25336 0.93794 0.24933 0.0
Zn100 Zn 0.03639 0.25964 0.29185 0.0
Zn101 Zn 0.14028 0.40506 0.3211 0.0
C102 C 0.11394 0.22973 0.25457 0.0
O103 O 0.07638 0.21199 0.21915 0.0
C104 C 0.14578 0.51345 0.34884 0.0
O105 O 0.15935 0.50105 0.3904 0.0
O106 O 0.9727 0.18096 0.26827 0.0
O107 O 0.02299 0.26716 0.35737 0.0
O108 O 0.08862 0.36004 0.37547 0.0
C109 C 0.92157 0.16317 0.27881 0.0
O110 O 0.91024 0.19719 0.30517 0.0
O111 O 0.10927 0.2585 0.28866 0.0
C112 C 0.25786 0.46785 0.30705 0.0
O113 O 0.23716 0.46902 0.26484 0.0
O114 O 0.22345 0.43831 0.33898 0.0
O115 O 0.12363 0.37209 0.25388 0.0
O116 O 0.03105 0.31999 0.25505 0.0
O117 O 0.1339 0.47744 0.31439 0.0
C118 C 0.04697 0.3102 0.38649 0.0
C119 C 0.07536 0.36089 0.23759 0.0
Zn120 Zn 0.41486 0.11462 0.66142 0.0
Zn121 Zn 0.2482 0.0371 0.67674 0.0
C122 C 0.45468 0.22266 0.61929 0.0
O123 O 0.46473 0.1926 0.58746 0.0
C124 C 0.1389 0.94145 0.70663 0.0
O125 O 0.15103 0.97257 0.74622 0.0
O126 O 0.49288 0.12311 0.6586 0.0
O127 O 0.38371 0.08145 0.72427 0.0
O128 O 0.29088 0.03742 0.73657 0.0
C129 C 0.52765 0.14576 0.69374 0.0
O130 O 0.51096 0.16067 0.73193 0.0
O131 O 0.42885 0.19671 0.65616 0.0
C132 C 0.2115 0.11549 0.64019 0.0
O133 O 0.22449 0.10052 0.60004 0.0
O134 O 0.22229 0.0975 0.67864 0.0
O135 O 0.28078 0.03443 0.61449 0.0
O136 O 0.37246 0.06881 0.60355 0.0
O137 O 0.17472 0.95986 0.67409 0.0
C138 C 0.34176 0.05523 0.75101 0.0
C139 C 0.32123 0.04295 0.58827 0.0
Zn140 Zn 0.94683 0.19814 0.655 0.0
Zn141 Zn 0.87208 0.29554 0.63312 0.0
C142 C 0.87426 0.08945 0.69718 0.0
O143 O 0.90584 0.12026 0.73413 0.0
C144 C 0.86336 0.39034 0.58751 0.0
O145 O 0.8614 0.36181 0.54849 0.0
O146 O 0.0158 0.18701 0.66091 0.0
O147 O 0.9506 0.235 0.59309 0.0
O148 O 0.91174 0.29021 0.57618 0.0
C149 C 0.05171 0.19954 0.62872 0.0
O150 O 0.04583 0.22265 0.58944 0.0
O151 O 0.88004 0.11555 0.65826 0.0
C152 C 0.76769 0.23572 0.67572 0.0
O153 O 0.80101 0.27471 0.70824 0.0
O154 O 0.78946 0.23195 0.6375 0.0
O155 O 0.91432 0.30507 0.69434 0.0
O156 O 0.95462 0.25061 0.70926 0.0
O157 O 0.86907 0.3709 0.62714 0.0
C158 C 0.94031 0.26607 0.56478 0.0
C159 C 0.94252 0.28972 0.72118 0.0
Zn160 Zn 0.70239 0.57765 0.62954 0.0
Zn161 Zn 0.78834 0.73619 0.66177 0.0
C162 C 0.77951 0.55242 0.58496 0.0
O163 O 0.74529 0.54588 0.54884 0.0
C164 C 0.79266 0.84032 0.69996 0.0
O165 O 0.79445 0.81607 0.74 0.0
O166 O 0.64011 0.4959 0.6125 0.0
O167 O 0.68861 0.58987 0.69548 0.0
O168 O 0.73304 0.68638 0.71095 0.0
C169 C 0.59042 0.47464 0.62812 0.0
O170 O 0.57858 0.50765 0.65524 0.0
O171 O 0.77399 0.5737 0.62365 0.0
C172 C 0.90695 0.76997 0.65625 0.0
O173 O 0.89354 0.75683 0.61111 0.0
O174 O 0.86804 0.76067 0.68461 0.0
O175 O 0.77497 0.70872 0.5935 0.0
O176 O 0.69052 0.62916 0.58515 0.0
O177 O 0.78804 0.81303 0.66129 0.0
C178 C 0.69964 0.63337 0.72239 0.0
C179 C 0.72654 0.68053 0.57256 0.0
C180 C 0.34588 0.51142 0.07108 0.0
C181 C 0.36889 0.50555 0.02887 0.0
H182 H 0.27133 0.49658 0.10613 0.0
C183 C 0.33178 0.47173 -0.00885 0.0
H184 H 0.3732 0.53666 0.10103 0.0
C185 C 0.27314 0.44826 -0.00573 0.0
C186 C 0.25073 0.45866 0.03503 0.0
H187 H 0.34816 0.46595 0.95831 0.0
H188 H 0.24591 0.42531 0.96364 0.0
C189 C 0.28742 0.48842 0.07405 0.0
C190 C 0.48788 0.82471 0.90425 0.0
C191 C 0.48432 0.84657 0.94875 0.0
H192 H 0.50498 0.7649 0.86615 0.0
C193 C 0.50273 0.82935 -0.01067 0.0
H194 H 0.47445 0.83748 0.87227 0.0
C195 C 0.51972 0.78736 -0.01414 0.0
C196 C 0.51911 0.76214 0.94171 0.0
H197 H 0.50092 0.84566 0.02414 0.0
H198 H 0.53103 0.77287 0.01803 0.0
C199 C 0.50527 0.78298 0.90076 0.0
C200 C 0.2172 0.71303 0.96761 0.0
C201 C 0.24367 0.72896 0.01288 0.0
H202 H 0.15704 0.6435 0.92138 0.0
C203 C 0.22455 0.6865 0.04827 0.0
H204 H 0.2305 0.74492 0.9397 0.0
C205 C 0.18218 0.62838 0.03783 0.0
C206 C 0.15824 0.6116 -0.00826 0.0
H207 H 0.24361 0.69756 0.08367 0.0
H208 H 0.17012 0.59613 0.06538 0.0
C209 C 0.1749 0.65491 0.95714 0.0
C210 C 0.46338 0.26193 0.01018 0.0
C211 C 0.48718 0.23394 0.0366 0.0
H212 H 0.47066 0.34406 -0.00998 0.0
C213 C 0.53392 0.268 0.06753 0.0
H214 H 0.42719 0.23673 -0.01384 0.0
C215 C 0.55823 0.32917 0.07023 0.0
C216 C 0.53684 0.35766 0.04152 0.0
H217 H 0.55276 0.24757 0.08875 0.0
H218 H 0.59549 0.35424 0.09322 0.0
C219 C 0.48826 0.32336 0.01237 0.0
C220 C 0.67658 0.15161 0.95136 0.0
C221 C 0.64439 0.12192 -0.00951 0.0
H222 H 0.75824 0.21416 0.92626 0.0
C223 C 0.67292 0.12694 0.03397 0.0
H224 H 0.65602 0.14828 0.91723 0.0
C225 C 0.73168 0.16503 0.03922 0.0
C226 C 0.76309 0.1986 0.00105 0.0
H227 H 0.64949 0.10445 0.06479 0.0
H228 H 0.75185 0.17055 0.07388 0.0
C229 C 0.7353 0.18945 0.95655 0.0
C230 C 0.77443 0.42226 0.90718 0.0
C231 C 0.81585 0.43674 0.94349 0.0
H232 H 0.70293 0.42832 0.88178 0.0
C233 C 0.8193 0.47382 -0.01886 0.0
H234 H 0.77081 0.3941 0.87752 0.0
C235 C 0.78019 0.49343 -0.01638 0.0
C236 C 0.73692 0.4763 0.9485 0.0
H237 H 0.85084 0.48594 0.00963 0.0
H238 H 0.7827 0.52028 0.01387 0.0
C239 C 0.73538 0.4418 0.90967 0.0
C240 C 0.93927 0.80478 0.32477 0.0
C241 C 0.90656 0.82233 0.29765 0.0
H242 H 0.02158 0.81462 0.33786 0.0
C243 C 0.93078 0.85855 0.25874 0.0
H244 H 0.92147 0.77651 0.35476 0.0
C245 C 0.98745 0.87934 0.24853 0.0
C246 C 0.02146 0.86522 0.2775 0.0
H247 H 0.90627 0.87198 0.23671 0.0
H248 H 0.00522 0.90894 0.21928 0.0
C249 C -0.00354 0.82644 0.315 0.0
C250 C 0.1354 0.15029 0.23599 0.0
C251 C 0.14924 0.20206 0.26165 0.0
H252 H 0.14518 0.07461 0.23047 0.0
C253 C 0.1907 0.22122 0.2987 0.0
H254 H 0.10376 0.13425 0.20725 0.0
C255 C 0.21515 0.18715 0.31164 0.0
C256 C 0.19744 0.13296 0.28836 0.0
H257 H 0.20231 0.26111 0.319 0.0
H258 H 0.2453 0.20142 0.34141 0.0
C259 C 0.15874 0.11578 0.24957 0.0
C260 C 0.88605 0.06975 0.23154 0.0
C261 C 0.87687 0.10211 0.26642 0.0
H262 H 0.8583 0.98521 0.19955 0.0
C263 C 0.82696 0.07392 0.29218 0.0
H264 H 0.92377 0.09052 0.21068 0.0
C265 C 0.78954 0.01328 0.28614 0.0
C266 C 0.80105 0.98006 0.25375 0.0
H267 H 0.81855 0.09787 0.31909 0.0
H268 H 0.75333 0.99191 0.30862 0.0
C269 C 0.84823 0.00941 0.22495 0.0
C270 C 0.15544 0.64443 0.28518 0.0
C271 C 0.17949 0.68862 0.3208 0.0
H272 H 0.12546 0.55419 0.26619 0.0
C273 C 0.18647 0.6731 0.36696 0.0
H274 H 0.14917 0.65481 0.24933 0.0
C275 C 0.17287 0.61536 0.37666 0.0
C276 C 0.15207 0.572 0.34039 0.0
H277 H 0.20448 0.70601 0.39531 0.0
H278 H 0.1808 0.60536 0.41217 0.0
C279 C 0.14189 0.58671 0.29487 0.0
C280 C 0.34007 0.521 0.3656 0.0
C281 C 0.31916 0.50769 0.31845 0.0
H282 H 0.4107 0.57592 0.4127 0.0
C283 C 0.35643 0.53734 0.28196 0.0
H284 H 0.3124 0.49897 0.39453 0.0
C285 C 0.41248 0.5813 0.29231 0.0
C286 C 0.43272 0.59688 0.33946 0.0
H287 H 0.34187 0.52788 0.24523 0.0
H288 H 0.43945 0.60422 0.2632 0.0
C289 C 0.39633 0.56527 0.37601 0.0
C290 C 0.47588 0.8937 0.35406 0.0
C291 C 0.43712 0.89018 0.31847 0.0
H292 H 0.5422 0.8759 0.37364 0.0
C293 C 0.44135 0.87248 0.27249 0.0
H294 H 0.47416 0.9077 0.38979 0.0
C295 C 0.48044 0.85419 0.26325 0.0
C296 C 0.51617 0.85335 0.29974 0.0
H297 H 0.41246 0.86971 0.24416 0.0
H298 H 0.48058 0.83791 0.22799 0.0
C299 C 0.51503 0.87554 0.3448 0.0
C300 C 0.66727 0.17597 0.6427 0.0
C301 C 0.70535 0.20418 0.68137 0.0
H302 H 0.58093 0.13519 0.61618 0.0
C303 C 0.68355 0.2075 0.72505 0.0
H304 H 0.68272 0.17272 0.60857 0.0
C305 C 0.62553 0.18622 0.7294 0.0
C306 C 0.58776 0.16106 0.69017 0.0
H307 H 0.7116 0.22848 0.7557 0.0
H308 H 0.61063 0.19133 0.76326 0.0
C309 C 0.60897 0.15463 0.64706 0.0
C310 C 0.83526 0.45454 0.54276 0.0
C311 C 0.8517 0.43984 0.58573 0.0
H312 H 0.80038 0.50254 0.5087 0.0
C313 C 0.85228 0.46962 0.62746 0.0
H314 H 0.83486 0.43294 0.50987 0.0
C315 C 0.83296 0.51003 0.62672 0.0
C316 C 0.81223 0.52115 0.58427 0.0
H317 H 0.86532 0.45986 0.6611 0.0
H318 H 0.83116 0.5298 0.65989 0.0
C319 C 0.81561 0.49463 0.54206 0.0
C320 C 0.55804 0.37872 0.58589 0.0
C321 C 0.54931 0.41125 0.62091 0.0
H322 H 0.53401 0.29349 0.55728 0.0
C323 C 0.50423 0.38166 0.65165 0.0
H324 H 0.59211 0.40046 0.56139 0.0
C325 C 0.47118 0.32014 0.64964 0.0
C326 C 0.48227 0.28739 0.61645 0.0
H327 H 0.49641 0.40568 0.6789 0.0
H328 H 0.43853 0.29817 0.67527 0.0
C329 C 0.52459 0.31741 0.58347 0.0
C330 C 0.80566 0.92952 0.65687 0.0
C331 C 0.80395 0.90184 0.69972 0.0
H332 H 0.82826 0.01054 0.62243 0.0
C333 C 0.81801 0.93513 0.74216 0.0
H334 H 0.7946 0.90504 0.62356 0.0
C335 C 0.83738 -0.00439 0.7415 0.0
C336 C 0.84284 0.02412 0.69842 0.0
H337 H 0.81666 0.91514 0.77584 0.0
H338 H 0.85053 0.02049 0.77467 0.0
C339 C 0.82474 0.99002 0.65624 0.0
C340 C 0.98218 0.83162 0.71786 0.0
C341 C 0.96737 0.80559 0.67221 0.0
H342 H 0.04817 0.8949 0.76472 0.0
C343 C 0.01066 0.81941 0.6402 0.0
H344 H 0.94989 0.82174 0.74348 0.0
C345 C 0.06697 0.86129 0.65242 0.0
C346 C 0.08122 0.89041 0.69687 0.0
H347 H 0.0008 0.79983 0.60491 0.0
H348 H 0.09889 0.87265 0.62615 0.0
C349 C 0.03855 0.87369 0.73004 0.0
C350 C 0.16891 0.16833 0.59771 0.0
C351 C 0.17638 0.1442 0.63965 0.0
H352 H 0.12432 0.20512 0.56152 0.0
C353 C 0.14552 0.14254 0.67929 0.0
H354 H 0.1921 0.17043 0.56656 0.0
C355 C 0.10604 0.16192 0.67626 0.0
C356 C 0.097 0.18392 0.63367 0.0
H357 H 0.15009 0.12401 0.7121 0.0
H358 H 0.08164 0.15834 0.70695 0.0
C359 C 0.12993 0.1882 0.59482 0.0
C360 C 0.09228 0.37147 0.15189 0.0
C361 C 0.06852 0.38156 0.19159 0.0
H362 H 0.08671 0.36038 0.07676 0.0
C363 C 0.02812 0.39943 0.18593 0.0
H364 H 0.12279 0.35661 0.15579 0.0
C365 C 0.00834 0.40287 0.14088 0.0
C366 C 0.02807 0.38739 0.10107 0.0
H367 H 0.00925 0.40705 0.21647 0.0
H368 H 0.97498 0.41382 0.13746 0.0
C369 C 0.07159 0.37366 0.10678 0.0
C370 C 0.6064 0.70384 0.15997 0.0
C371 C 0.64717 0.70572 0.19242 0.0
H372 H 0.56465 0.67356 0.09224 0.0
C373 C 0.67738 0.67711 0.18097 0.0
H374 H 0.58273 0.72578 0.16783 0.0
C375 C 0.66663 0.64662 0.13798 0.0
C376 C 0.62591 0.64476 0.10545 0.0
H377 H 0.70891 0.67762 0.20548 0.0
H378 H 0.69024 0.62457 0.13028 0.0
C379 C 0.59615 0.67397 0.1167 0.0
C380 C 0.37327 0.01279 0.16673 0.0
C381 C 0.36924 0.96402 0.14231 0.0
H382 H 0.3393 0.04236 0.22066 0.0
C383 C 0.33466 0.90711 0.15986 0.0
H384 H 0.39988 0.0572 0.1544 0.0
C385 C 0.30038 0.8987 0.19827 0.0
C386 C 0.29996 0.94704 0.21916 0.0
H387 H 0.33155 0.86876 0.14226 0.0
H388 H 0.27105 0.85422 0.20899 0.0
C389 C 0.33851 0.00429 0.20462 0.0
C390 C 0.32741 0.98292 0.869 0.0
C391 C 0.38023 0.02178 0.89144 0.0
H392 H 0.27322 0.96375 0.80708 0.0
C393 C 0.41864 0.0733 0.86844 0.0
H394 H 0.29681 0.94305 0.88609 0.0
C395 C 0.40552 0.0845 0.82308 0.0
C396 C 0.35327 0.04506 0.80022 0.0
H397 H 0.45963 0.10406 0.88483 0.0
H398 H 0.43647 0.12394 0.80576 0.0
C399 C 0.31377 -0.00516 0.82396 0.0
C400 C 0.94957 0.36503 0.83697 0.0
C401 C -0.00072 0.37058 0.85803 0.0
H402 H 0.89283 0.33548 0.77622 0.0
C403 C 0.03145 0.35182 0.83305 0.0
H404 H 0.9244 0.37955 0.85563 0.0
C405 C 0.01288 0.32553 0.78839 0.0
C406 C 0.96261 0.31892 0.76763 0.0
H407 H 0.0698 0.35532 0.84875 0.0
H408 H 0.03775 0.31022 0.77017 0.0
C409 C 0.93167 0.33997 0.79172 0.0
C410 C 0.66192 0.66307 0.79006 0.0
C411 C 0.67259 0.6215 0.7683 0.0
H412 H 0.62802 0.68386 0.84985 0.0
C413 C 0.65637 0.56775 0.7904 0.0
H414 H 0.67365 0.70461 0.77345 0.0
C415 C 0.63118 0.55636 0.83418 0.0
C416 C 0.62061 0.5979 0.85593 0.0
H417 H 0.66408 0.53493 0.77426 0.0
H418 H 0.61978 0.51503 0.85093 0.0
C419 C 0.63541 0.651 0.83336 0.0
C420 C 0.74821 0.7761 0.46723 0.0
C421 C 0.69467 0.74572 0.44372 0.0
H422 H 0.80019 0.77953 0.52638 0.0
C423 C 0.65049 0.69582 0.46441 0.0
H424 H 0.78299 0.81509 0.4523 0.0
C425 C 0.66058 0.67498 0.50675 0.0
C426 C 0.71487 0.70405 0.5292 0.0
H427 H 0.60887 0.67152 0.44699 0.0
H428 H 0.62613 0.63552 0.52139 0.0
C429 C 0.75814 0.75566 0.50964 0.0
C430 C 0.2472 -0.00326 0.46784 0.0
C431 C 0.28428 0.98444 0.44319 0.0
H432 H 0.22921 0.02356 0.5336 0.0
C433 C 0.33376 0.99185 0.46643 0.0
H434 H 0.20849 0.99085 0.45083 0.0
C435 C 0.34604 0.01141 0.51352 0.0
C436 C 0.30838 0.02254 0.5385 0.0
H437 H 0.36304 0.98267 0.44815 0.0
H438 H 0.38457 0.01689 0.53058 0.0
C439 C 0.25882 0.01497 0.51527 0.0
C440 C 0.9882 0.33343 0.49831 0.0
C441 C 0.96658 0.27777 0.51868 0.0
H442 H 0.03312 0.38831 0.44051 0.0
C443 C 0.97398 0.23431 0.49643 0.0
H444 H 0.98357 0.36782 0.5154 0.0
C445 C 0.00166 0.24581 0.45394 0.0
C446 C 0.02347 0.30138 0.43355 0.0
H447 H 0.95788 0.1912 0.51169 0.0
H448 H 0.00586 0.21112 0.43688 0.0
C449 C 0.0172 0.34544 0.45614 0.0
loop_
_geom_bond_atom_site_label_1
_geom_bond_atom_site_label_2
_geom_bond_distance
_geom_bond_site_symmetry_2
_ccdc_geom_bond_type
Zn0 O6 1.969 . S
Zn0 O7 1.965 1_556 S
Zn0 O11 2.024 1_556 S
Zn0 O16 1.969 . S
Zn1 O8 1.969 . S
Zn1 O14 1.969 . S
Zn1 O15 1.965 1_554 S
Zn1 O17 2.024 1_554 S
C2 O3 1.229 . S
C2 O11 1.058 1_556 S
O3 C2 1.229 . S
C4 O5 1.229 . S
C4 O17 1.058 1_554 S
O5 C4 1.229 . S
O6 Zn0 1.969 . S
O6 C9 1.267 1_556 S
O7 Zn0 1.965 1_554 S
O7 C18 1.260 . S
O8 Zn1 1.969 . S
O8 C18 1.258 1_655 S
C9 O6 1.267 1_554 S
C9 O10 1.228 . S
O10 C9 1.228 . S
O11 Zn0 2.024 1_554 S
O11 C2 1.058 1_554 S
C12 O13 1.228 1_554 S
C12 O14 1.267 . S
O13 C12 1.228 1_556 S
O14 Zn1 1.969 . S
O14 C12 1.267 . S
O15 Zn1 1.965 1_556 S
O15 C19 1.260 . S
O16 Zn0 1.969 . S
O16 C19 1.258 1_455 S
O17 Zn1 2.024 1_556 S
O17 C4 1.058 1_556 S
C18 O7 1.260 . S
C18 O8 1.258 1_455 S
C19 O15 1.260 . S
C19 O16 1.258 1_655 S
Zn20 O26 1.969 . S
Zn20 O27 1.965 1_554 S
Zn20 O31 2.024 1_554 S
Zn20 O36 1.969 . S
Zn21 O28 1.969 . S
Zn21 O34 1.969 . S
Zn21 O35 1.965 1_556 S
Zn21 O37 2.024 1_556 S
C22 O23 1.229 . S
C22 O31 1.058 1_554 S
O23 C22 1.229 . S
C24 O25 1.229 . S
C24 O37 1.058 1_556 S
O25 C24 1.229 . S
O26 Zn20 1.969 . S
O26 C29 1.263 1_554 S
O27 Zn20 1.965 1_556 S
O27 C38 1.260 . S
O28 Zn21 1.969 . S
O28 C38 1.258 . S
C29 O26 1.263 1_556 S
C29 O30 1.233 . S
O30 C29 1.233 . S
O31 Zn20 2.024 1_556 S
O31 C22 1.058 1_556 S
C32 O33 1.228 . S
C32 O34 1.267 1_554 S
O33 C32 1.228 . S
O34 Zn21 1.969 . S
O34 C32 1.267 1_556 S
O35 Zn21 1.965 1_554 S
O35 C39 1.260 . S
O36 Zn20 1.969 . S
O36 C39 1.258 . S
O37 Zn21 2.024 1_554 S
O37 C24 1.058 1_554 S
C38 O27 1.260 . S
C38 O28 1.258 . S
C39 O35 1.260 . S
C39 O36 1.258 . S
Zn40 O46 1.969 . S
Zn40 O47 1.965 1_556 S
Zn40 O51 2.024 1_556 S
Zn40 O56 1.969 . S
Zn41 O48 1.969 . S
Zn41 O54 1.969 . S
Zn41 O55 1.965 1_554 S
Zn41 O57 2.024 1_554 S
C42 O43 1.229 . S
C42 O51 1.058 1_556 S
O43 C42 1.229 . S
C44 O45 1.229 . S
C44 O57 1.058 1_554 S
O45 C44 1.229 . S
O46 Zn40 1.969 . S
O46 C49 1.267 1_556 S
O47 Zn40 1.965 1_554 S
O47 C58 1.260 . S
O48 Zn41 1.969 . S
O48 C58 1.258 1_545 S
C49 O46 1.267 1_554 S
C49 O50 1.228 . S
O50 C49 1.228 . S
O51 Zn40 2.024 1_554 S
O51 C42 1.058 1_554 S
C52 O53 1.228 1_554 S
C52 O54 1.267 . S
O53 C52 1.228 1_556 S
O54 Zn41 1.969 . S
O54 C52 1.267 . S
O55 Zn41 1.965 1_556 S
O55 C59 1.260 . S
O56 Zn40 1.969 . S
O56 C59 1.258 1_565 S
O57 Zn41 2.024 1_556 S
O57 C44 1.058 1_556 S
C58 O47 1.260 . S
C58 O48 1.258 1_565 S
C59 O55 1.260 . S
C59 O56 1.258 1_545 S
Zn60 O66 1.969 . S
Zn60 O67 1.965 . S
Zn60 O71 2.024 . S
Zn60 O76 1.969 . S
Zn61 O68 1.969 . S
Zn61 O74 1.969 . S
Zn61 O75 1.965 . S
Zn61 O77 2.024 . S
C62 O63 1.229 . S
C62 O71 1.058 . S
O63 C62 1.229 . S
C64 O65 1.229 . S
C64 O77 1.058 . S
O65 C64 1.229 . S
O66 Zn60 1.969 . S
O66 C69 1.267 . S
O67 Zn60 1.965 . S
O67 C78 1.260 . S
O68 Zn61 1.969 . S
O68 C78 1.258 . S
C69 O66 1.267 . S
C69 O70 1.228 . S
O70 C69 1.228 . S
O71 Zn60 2.024 . S
O71 C62 1.058 . S
C72 O73 1.228 . S
C72 O74 1.267 . S
O73 C72 1.228 . S
O74 Zn61 1.969 . S
O74 C72 1.267 . S
O75 Zn61 1.965 . S
O75 C79 1.260 . S
O76 Zn60 1.969 . S
O76 C79 1.258 . S
O77 Zn61 2.024 . S
O77 C64 1.058 . S
C78 O67 1.260 . S
C78 O68 1.258 . S
C79 O75 1.260 . S
C79 O76 1.258 . S
Zn80 O86 1.969 1_565 S
Zn80 O87 1.965 . S
Zn80 O91 2.024 . S
Zn80 O96 1.969 . S
Zn81 O88 1.969 . S
Zn81 O94 1.969 . S
Zn81 O95 1.965 . S
Zn81 O97 2.024 . S
C82 O83 1.229 . S
C82 O91 1.058 . S
O83 C82 1.229 . S
C84 O85 1.229 . S
C84 O97 1.058 . S
O85 C84 1.229 . S
O86 Zn80 1.969 1_545 S
O86 C89 1.267 . S
O87 Zn80 1.965 . S
O87 C98 1.260 . S
O88 Zn81 1.969 . S
O88 C98 1.258 . S
C89 O86 1.267 . S
C89 O90 1.228 . S
O90 C89 1.228 . S
O91 Zn80 2.024 . S
O91 C82 1.058 . S
C92 O93 1.228 . S
C92 O94 1.267 . S
O93 C92 1.228 . S
O94 Zn81 1.969 . S
O94 C92 1.267 . S
O95 Zn81 1.965 . S
O95 C99 1.260 . S
O96 Zn80 1.969 . S
O96 C99 1.258 . S
O97 Zn81 2.024 . S
O97 C84 1.058 . S
C98 O87 1.260 . S
C98 O88 1.258 . S
C99 O95 1.260 . S
C99 O96 1.258 . S
Zn100 O106 1.969 1_455 S
Zn100 O107 1.965 . S
Zn100 O111 2.024 . S
Zn100 O116 1.969 . S
Zn101 O108 1.969 . S
Zn101 O114 1.969 . S
Zn101 O115 1.965 . S
Zn101 O117 2.024 . S
C102 O103 1.229 . S
C102 O111 1.058 . S
O103 C102 1.229 . S
C104 O105 1.229 . S
C104 O117 1.058 . S
O105 C104 1.229 . S
O106 Zn100 1.969 1_655 S
O106 C109 1.267 . S
O107 Zn100 1.965 . S
O107 C118 1.260 . S
O108 Zn101 1.969 . S
O108 C118 1.258 . S
C109 O106 1.267 . S
C109 O110 1.228 . S
O110 C109 1.228 . S
O111 Zn100 2.024 . S
O111 C102 1.058 . S
C112 O113 1.228 . S
C112 O114 1.267 . S
O113 C112 1.228 . S
O114 Zn101 1.969 . S
O114 C112 1.267 . S
O115 Zn101 1.965 . S
O115 C119 1.260 . S
O116 Zn100 1.969 . S
O116 C119 1.258 . S
O117 Zn101 2.024 . S
O117 C104 1.058 . S
C118 O107 1.260 . S
C118 O108 1.258 . S
C119 O115 1.260 . S
C119 O116 1.258 . S
Zn120 O126 1.969 . S
Zn120 O127 1.965 . S
Zn120 O131 2.024 . S
Zn120 O136 1.969 . S
Zn121 O128 1.969 . S
Zn121 O134 1.969 . S
Zn121 O135 1.965 . S
Zn121 O137 2.024 1_545 S
C122 O123 1.229 . S
C122 O131 1.058 . S
O123 C122 1.229 . S
C124 O125 1.229 . S
C124 O137 1.058 . S
O125 C124 1.229 . S
O126 Zn120 1.969 . S
O126 C129 1.267 . S
O127 Zn120 1.965 . S
O127 C138 1.260 . S
O128 Zn121 1.969 . S
O128 C138 1.258 . S
C129 O126 1.267 . S
C129 O130 1.228 . S
O130 C129 1.228 . S
O131 Zn120 2.024 . S
O131 C122 1.058 . S
C132 O133 1.228 . S
C132 O134 1.267 . S
O133 C132 1.228 . S
O134 Zn121 1.969 . S
O134 C132 1.267 . S
O135 Zn121 1.965 . S
O135 C139 1.260 . S
O136 Zn120 1.969 . S
O136 C139 1.258 . S
O137 Zn121 2.024 1_565 S
O137 C124 1.058 . S
C138 O127 1.260 . S
C138 O128 1.258 . S
C139 O135 1.260 . S
C139 O136 1.258 . S
Zn140 O146 1.969 1_655 S
Zn140 O147 1.965 . S
Zn140 O151 2.024 . S
Zn140 O156 1.969 . S
Zn141 O148 1.969 . S
Zn141 O154 1.969 . S
Zn141 O155 1.965 . S
Zn141 O157 2.024 . S
C142 O143 1.229 . S
C142 O151 1.058 . S
O143 C142 1.229 . S
C144 O145 1.229 . S
C144 O157 1.058 . S
O145 C144 1.229 . S
O146 Zn140 1.969 1_455 S
O146 C149 1.267 . S
O147 Zn140 1.965 . S
O147 C158 1.260 . S
O148 Zn141 1.969 . S
O148 C158 1.258 . S
C149 O146 1.267 . S
C149 O150 1.228 . S
O150 C149 1.228 . S
O151 Zn140 2.024 . S
O151 C142 1.058 . S
C152 O153 1.228 . S
C152 O154 1.267 . S
O153 C152 1.228 . S
O154 Zn141 1.969 . S
O154 C152 1.267 . S
O155 Zn141 1.965 . S
O155 C159 1.260 . S
O156 Zn140 1.969 . S
O156 C159 1.258 . S
O157 Zn141 2.024 . S
O157 C144 1.058 . S
C158 O147 1.260 . S
C158 O148 1.258 . S
C159 O155 1.260 . S
C159 O156 1.258 . S
Zn160 O166 1.969 . S
Zn160 O167 1.965 . S
Zn160 O171 2.024 . S
Zn160 O176 1.969 . S
Zn161 O168 1.969 . S
Zn161 O174 1.969 . S
Zn161 O175 1.965 . S
Zn161 O177 2.024 . S
C162 O163 1.229 . S
C162 O171 1.058 . S
O163 C162 1.229 . S
C164 O165 1.229 . S
C164 O177 1.058 . S
O165 C164 1.229 . S
O166 Zn160 1.969 . S
O166 C169 1.267 . S
O167 Zn160 1.965 . S
O167 C178 1.260 . S
O168 Zn161 1.969 . S
O168 C178 1.258 . S
C169 O166 1.267 . S
C169 O170 1.228 . S
O170 C169 1.228 . S
O171 Zn160 2.024 . S
O171 C162 1.058 . S
C172 O173 1.228 . S
C172 O174 1.267 . S
O173 C172 1.228 . S
O174 Zn161 1.969 . S
O174 C172 1.267 . S
O175 Zn161 1.965 . S
O175 C179 1.260 . S
O176 Zn160 1.969 . S
O176 C179 1.258 . S
O177 Zn161 2.024 . S
O177 C164 1.058 . S
C178 O167 1.260 . S
C178 O168 1.258 . S
C179 O175 1.260 . S
C179 O176 1.258 . S
C180 C181 1.387 1_554 S
C180 H184 0.950 . S
C180 C189 1.390 . S
C181 C180 1.387 1_556 S
C181 C183 1.387 . S
H182 C189 0.950 . S
C183 C181 1.387 . S
C183 C185 1.390 . S
C183 H187 0.950 . S
H184 C180 0.950 . S
C185 C183 1.390 . S
C185 C186 1.387 1_556 S
C185 H188 0.950 . S
C186 C185 1.387 1_554 S
C186 C189 1.387 . S
H187 C183 0.950 . S
H188 C185 0.950 . S
C189 C180 1.390 . S
C189 H182 0.950 . S
C189 C186 1.387 . S
C190 C191 1.387 . S
C190 H194 0.950 . S
C190 C199 1.390 . S
C191 C190 1.387 . S
C191 C193 1.387 1_556 S
H192 C199 0.950 . S
C193 C191 1.387 1_554 S
C193 C195 1.390 . S
C193 H197 0.950 . S
H194 C190 0.950 . S
C195 C193 1.390 . S
C195 C196 1.387 1_554 S
C195 H198 0.950 . S
C196 C195 1.387 1_556 S
C196 C199 1.387 . S
H197 C193 0.950 . S
H198 C195 0.950 . S
C199 C190 1.390 . S
C199 H192 0.950 . S
C199 C196 1.387 . S
C200 C201 1.387 . S
C200 H204 0.950 . S
C200 C209 1.390 . S
C201 C200 1.387 . S
C201 C203 1.387 1_556 S
H202 C209 0.950 . S
C203 C201 1.387 1_554 S
C203 C205 1.390 . S
C203 H207 0.950 . S
H204 C200 0.950 . S
C205 C203 1.390 . S
C205 C206 1.387 1_554 S
C205 H208 0.950 . S
C206 C205 1.387 1_556 S
C206 C209 1.387 . S
H207 C203 0.950 . S
H208 C205 0.950 . S
C209 C200 1.390 . S
C209 H202 0.950 . S
C209 C206 1.387 . S
C210 C211 1.387 . S
C210 H214 0.950 . S
C210 C219 1.390 . S
C211 C210 1.387 . S
C211 C213 1.387 . S
H212 C219 0.950 . S
C213 C211 1.387 . S
C213 C215 1.390 . S
C213 H217 0.950 . S
H214 C210 0.950 . S
C215 C213 1.390 . S
C215 C216 1.387 . S
C215 H218 0.950 . S
C216 C215 1.387 . S
C216 C219 1.387 . S
H217 C213 0.950 . S
H218 C215 0.950 . S
C219 C210 1.390 . S
C219 H212 0.950 . S
C219 C216 1.387 . S
C220 C221 1.387 1_556 S
C220 H224 0.950 . S
C220 C229 1.390 . S
C221 C220 1.387 1_554 S
C221 C223 1.387 . S
H222 C229 0.950 . S
C223 C221 1.387 . S
C223 C225 1.390 . S
C223 H227 0.950 . S
H224 C220 0.950 . S
C225 C223 1.390 . S
C225 C226 1.387 . S
C225 H228 0.950 . S
C226 C225 1.387 . S
C226 C229 1.387 1_554 S
H227 C223 0.950 . S
H228 C225 0.950 . S
C229 C220 1.390 . S
C229 H222 0.950 . S
C229 C226 1.387 1_556 S
C230 C231 1.387 1_556 S
C230 H234 0.950 . S
C230 C239 1.390 . S
C231 C230 1.387 1_554 S
C231 C233 1.387 . S
H232 C239 0.950 . S
C233 C231 1.387 . S
C233 C235 1.390 . S
C233 H237 0.950 . S
H234 C230 0.950 . S
C235 C233 1.390 . S
C235 C236 1.387 . S
C235 H238 0.950 . S
C236 C235 1.387 . S
C236 C239 1.387 1_554 S
H237 C233 0.950 . S
H238 C235 0.950 . S
C239 C230 1.390 . S
C239 H232 0.950 . S
C239 C236 1.387 1_556 S
C240 C241 1.387 . S
C240 H244 0.950 . S
C240 C249 1.390 . S
C241 C240 1.387 . S
C241 C243 1.387 . S
H242 C249 0.950 1_455 S
C243 C241 1.387 . S
C243 C245 1.390 . S
C243 H247 0.950 . S
H244 C240 0.950 . S
C245 C243 1.390 . S
C245 C246 1.387 1_655 S
C245 H248 0.950 . S
C246 C245 1.387 1_455 S
C246 C249 1.387 1_455 S
H247 C243 0.950 . S
H248 C245 0.950 . S
C249 C240 1.390 . S
C249 H242 0.950 1_655 S
C249 C246 1.387 1_655 S
C250 C251 1.387 . S
C250 H254 0.950 . S
C250 C259 1.390 . S
C251 C250 1.387 . S
C251 C253 1.387 . S
H252 C259 0.950 . S
C253 C251 1.387 . S
C253 C255 1.390 . S
C253 H257 0.950 . S
H254 C250 0.950 . S
C255 C253 1.390 . S
C255 C256 1.387 . S
C255 H258 0.950 . S
C256 C255 1.387 . S
C256 C259 1.387 . S
H257 C253 0.950 . S
H258 C255 0.950 . S
C259 C250 1.390 . S
C259 H252 0.950 . S
C259 C256 1.387 . S
C260 C261 1.387 . S
C260 H264 0.950 . S
C260 C269 1.390 . S
C261 C260 1.387 . S
C261 C263 1.387 . S
H262 C269 0.950 . S
C263 C261 1.387 . S
C263 C265 1.390 . S
C263 H267 0.950 . S
H264 C260 0.950 . S
C265 C263 1.390 . S
C265 C266 1.387 1_545 S
C265 H268 0.950 . S
C266 C265 1.387 1_565 S
C266 C269 1.387 1_565 S
H267 C263 0.950 . S
H268 C265 0.950 . S
C269 C260 1.390 . S
C269 H262 0.950 . S
C269 C266 1.387 1_545 S
C270 C271 1.387 . S
C270 H274 0.950 . S
C270 C279 1.390 . S
C271 C270 1.387 . S
C271 C273 1.387 . S
H272 C279 0.950 . S
C273 C271 1.387 . S
C273 C275 1.390 . S
C273 H277 0.950 . S
H274 C270 0.950 . S
C275 C273 1.390 . S
C275 C276 1.387 . S
C275 H278 0.950 . S
C276 C275 1.387 . S
C276 C279 1.387 . S
H277 C273 0.950 . S
H278 C275 0.950 . S
C279 C270 1.390 . S
C279 H272 0.950 . S
C279 C276 1.387 . S
C280 C281 1.387 . S
C280 H284 0.950 . S
C280 C289 1.390 . S
C281 C280 1.387 . S
C281 C283 1.387 . S
H282 C289 0.950 . S
C283 C281 1.387 . S
C283 C285 1.390 . S
C283 H287 0.950 . S
H284 C280 0.950 . S
C285 C283 1.390 . S
C285 C286 1.387 . S
C285 H288 0.950 . S
C286 C285 1.387 . S
C286 C289 1.387 . S
H287 C283 0.950 . S
H288 C285 0.950 . S
C289 C280 1.390 . S
C289 H282 0.950 . S
C289 C286 1.387 . S
C290 C291 1.387 . S
C290 H294 0.950 . S
C290 C299 1.390 . S
C291 C290 1.387 . S
C291 C293 1.387 . S
H292 C299 0.950 . S
C293 C291 1.387 . S
C293 C295 1.390 . S
C293 H297 0.950 . S
H294 C290 0.950 . S
C295 C293 1.390 . S
C295 C296 1.387 . S
C295 H298 0.950 . S
C296 C295 1.387 . S
C296 C299 1.387 . S
H297 C293 0.950 . S
H298 C295 0.950 . S
C299 C290 1.390 . S
C299 H292 0.950 . S
C299 C296 1.387 . S
C300 C301 1.387 . S
C300 H304 0.950 . S
C300 C309 1.390 . S
C301 C300 1.387 . S
C301 C303 1.387 . S
H302 C309 0.950 . S
C303 C301 1.387 . S
C303 C305 1.390 . S
C303 H307 0.950 . S
H304 C300 0.950 . S
C305 C303 1.390 . S
C305 C306 1.387 . S
C305 H308 0.950 . S
C306 C305 1.387 . S
C306 C309 1.387 . S
H307 C303 0.950 . S
H308 C305 0.950 . S
C309 C300 1.390 . S
C309 H302 0.950 . S
C309 C306 1.387 . S
C310 C311 1.387 . S
C310 H314 0.950 . S
C310 C319 1.390 . S
C311 C310 1.387 . S
C311 C313 1.387 . S
H312 C319 0.950 . S
C313 C311 1.387 . S
C313 C315 1.390 . S
C313 H317 0.950 . S
H314 C310 0.950 . S
C315 C313 1.390 . S
C315 C316 1.387 . S
C315 H318 0.950 . S
C316 C315 1.387 . S
C316 C319 1.387 . S
H317 C313 0.950 . S
H318 C315 0.950 . S
C319 C310 1.390 . S
C319 H312 0.950 . S
C319 C316 1.387 . S
C320 C321 1.387 . S
C320 H324 0.950 . S
C320 C329 1.390 . S
C321 C320 1.387 . S
C321 C323 1.387 . S
H322 C329 0.950 . S
C323 C321 1.387 . S
C323 C325 1.390 . S
C323 H327 0.950 . S
H324 C320 0.950 . S
C325 C323 1.390 . S
C325 C326 1.387 . S
C325 H328 0.950 . S
C326 C325 1.387 . S
C326 C329 1.387 . S
H327 C323 0.950 . S
H328 C325 0.950 . S
C329 C320 1.390 . S
C329 H322 0.950 . S
C329 C326 1.387 . S
C330 C331 1.387 . S
C330 H334 0.950 . S
C330 C339 1.390 . S
C331 C330 1.387 . S
C331 C333 1.387 . S
H332 C339 0.950 . S
C333 C331 1.387 . S
C333 C335 1.390 . S
C333 H337 0.950 . S
H334 C330 0.950 . S
C335 C333 1.390 . S
C335 C336 1.387 1_565 S
C335 H338 0.950 1_565 S
C336 C335 1.387 1_545 S
C336 C339 1.387 1_545 S
H337 C333 0.950 . S
H338 C335 0.950 1_545 S
C339 C330 1.390 . S
C339 H332 0.950 . S
C339 C336 1.387 1_565 S
C340 C341 1.387 . S
C340 H344 0.950 . S
C340 C349 1.390 . S
C341 C340 1.387 . S
C341 C343 1.387 . S
H342 C349 0.950 . S
C343 C341 1.387 . S
C343 C345 1.390 . S
C343 H347 0.950 . S
H344 C340 0.950 . S
C345 C343 1.390 . S
C345 C346 1.387 . S
C345 H348 0.950 . S
C346 C345 1.387 . S
C346 C349 1.387 . S
H347 C343 0.950 . S
H348 C345 0.950 . S
C349 C340 1.390 . S
C349 H342 0.950 . S
C349 C346 1.387 . S
C350 C351 1.387 . S
C350 H354 0.950 . S
C350 C359 1.390 . S
C351 C350 1.387 . S
C351 C353 1.387 . S
H352 C359 0.950 . S
C353 C351 1.387 . S
C353 C355 1.390 . S
C353 H357 0.950 . S
H354 C350 0.950 . S
C355 C353 1.390 . S
C355 C356 1.387 . S
C355 H358 0.950 . S
C356 C355 1.387 . S
C356 C359 1.387 . S
H357 C353 0.950 . S
H358 C355 0.950 . S
C359 C350 1.390 . S
C359 H352 0.950 . S
C359 C356 1.387 . S
C360 C361 1.387 . S
C360 H364 0.950 . S
C360 C369 1.390 . S
C361 C360 1.387 . S
C361 C363 1.387 . S
H362 C369 0.950 . S
C363 C361 1.387 . S
C363 C365 1.390 . S
C363 H367 0.950 . S
H364 C360 0.950 . S
C365 C363 1.390 . S
C365 C366 1.387 . S
C365 H368 0.950 . S
C366 C365 1.387 . S
C366 C369 1.387 . S
H367 C363 0.950 . S
H368 C365 0.950 . S
C369 C360 1.390 . S
C369 H362 0.950 . S
C369 C366 1.387 . S
C370 C371 1.387 . S
C370 H374 0.950 . S
C370 C379 1.390 . S
C371 C370 1.387 . S
C371 C373 1.387 . S
H372 C379 0.950 . S
C373 C371 1.387 . S
C373 C375 1.390 . S
C373 H377 0.950 . S
H374 C370 0.950 . S
C375 C373 1.390 . S
C375 C376 1.387 . S
C375 H378 0.950 . S
C376 C375 1.387 . S
C376 C379 1.387 . S
H377 C373 0.950 . S
H378 C375 0.950 . S
C379 C370 1.390 . S
C379 H372 0.950 . S
C379 C376 1.387 . S
C380 C381 1.387 . S
C380 H384 0.950 1_565 S
C380 C389 1.390 . S
C381 C380 1.387 . S
C381 C383 1.387 . S
H382 C389 0.950 . S
C383 C381 1.387 . S
C383 C385 1.390 . S
C383 H387 0.950 . S
H384 C380 0.950 1_545 S
C385 C383 1.390 . S
C385 C386 1.387 . S
C385 H388 0.950 . S
C386 C385 1.387 . S
C386 C389 1.387 . S
H387 C383 0.950 . S
H388 C385 0.950 . S
C389 C380 1.390 . S
C389 H382 0.950 . S
C389 C386 1.387 . S
C390 C391 1.387 . S
C390 H394 0.950 . S
C390 C399 1.390 . S
C391 C390 1.387 . S
C391 C393 1.387 . S
H392 C399 0.950 . S
C393 C391 1.387 . S
C393 C395 1.390 . S
C393 H397 0.950 . S
H394 C390 0.950 . S
C395 C393 1.390 . S
C395 C396 1.387 . S
C395 H398 0.950 . S
C396 C395 1.387 . S
C396 C399 1.387 . S
H397 C393 0.950 . S
H398 C395 0.950 . S
C399 C390 1.390 . S
C399 H392 0.950 . S
C399 C396 1.387 . S
C400 C401 1.387 . S
C400 H404 0.950 . S
C400 C409 1.390 . S
C401 C400 1.387 . S
C401 C403 1.387 . S
H402 C409 0.950 . S
C403 C401 1.387 . S
C403 C405 1.390 . S
C403 H407 0.950 1_655 S
H404 C400 0.950 . S
C405 C403 1.390 . S
C405 C406 1.387 . S
C405 H408 0.950 . S
C406 C405 1.387 . S
C406 C409 1.387 . S
H407 C403 0.950 1_455 S
H408 C405 0.950 . S
C409 C400 1.390 . S
C409 H402 0.950 . S
C409 C406 1.387 . S
C410 C411 1.387 . S
C410 H414 0.950 . S
C410 C419 1.390 . S
C411 C410 1.387 . S
C411 C413 1.387 . S
H412 C419 0.950 . S
C413 C411 1.387 . S
C413 C415 1.390 . S
C413 H417 0.950 . S
H414 C410 0.950 . S
C415 C413 1.390 . S
C415 C416 1.387 . S
C415 H418 0.950 . S
C416 C415 1.387 . S
C416 C419 1.387 . S
H417 C413 0.950 . S
H418 C415 0.950 . S
C419 C410 1.390 . S
C419 H412 0.950 . S
C419 C416 1.387 . S
C420 C421 1.387 . S
C420 H424 0.950 . S
C420 C429 1.390 . S
C421 C420 1.387 . S
C421 C423 1.387 . S
H422 C429 0.950 . S
C423 C421 1.387 . S
C423 C425 1.390 . S
C423 H427 0.950 . S
H424 C420 0.950 . S
C425 C423 1.390 . S
C425 C426 1.387 . S
C425 H428 0.950 . S
C426 C425 1.387 . S
C426 C429 1.387 . S
H427 C423 0.950 . S
H428 C425 0.950 . S
C429 C420 1.390 . S
C429 H422 0.950 . S
C429 C426 1.387 . S
C430 C431 1.387 . S
C430 H434 0.950 . S
C430 C439 1.390 1_565 S
C431 C430 1.387 . S
C431 C433 1.387 . S
H432 C439 0.950 . S
C433 C431 1.387 . S
C433 C435 1.390 1_565 S
C433 H437 0.950 . S
H434 C430 0.950 . S
C435 C433 1.390 1_545 S
C435 C436 1.387 . S
C435 H438 0.950 . S
C436 C435 1.387 . S
C436 C439 1.387 . S
H437 C433 0.950 . S
H438 C435 0.950 . S
C439 C430 1.390 1_545 S
C439 H432 0.950 . S
C439 C436 1.387 . S
C440 C441 1.387 . S
C440 H444 0.950 . S
C440 C449 1.390 1_655 S
C441 C440 1.387 . S
C441 C443 1.387 . S
H442 C449 0.950 . S
C443 C441 1.387 . S
C443 C445 1.390 1_655 S
C443 H447 0.950 . S
H444 C440 0.950 . S
C445 C443 1.390 1_455 S
C445 C446 1.387 . S
C445 H448 0.950 . S
C446 C445 1.387 . S
C446 C449 1.387 . S
H447 C443 0.950 . S
H448 C445 0.950 . S
C449 C440 1.390 1_455 S
C449 H442 0.950 . S
C449 C446 1.387 . S
C181 C32 1.382 1_556 S
C186 C9 1.160 . S
C191 C42 1.604 . S
C196 C24 1.292 . S
C201 C49 1.222 1_556 S
C206 C2 1.397 . S
C211 C44 1.333 . S
C216 C22 1.616 . S
C221 C52 1.571 . S
C226 C4 1.230 . S
C231 C12 1.356 . S
C236 C29 1.151 1_554 S
C241 C69 1.395 . S
C246 C82 1.617 . S
C251 C102 1.372 . S
C256 C89 1.173 . S
C261 C109 1.233 . S
C266 C62 1.407 . S
C271 C92 1.399 . S
C276 C104 1.117 . S
C281 C112 1.557 . S
C286 C64 1.225 . S
C291 C84 1.304 . S
C296 C72 1.608 . S
C301 C152 1.342 . S
C306 C129 1.137 . S
C311 C144 1.295 . S
C316 C162 1.594 . S
C321 C169 1.221 . S
C326 C122 1.392 . S
C331 C164 1.303 . S
C336 C142 1.579 . S
C341 C172 1.564 1_455 S
C346 C124 1.233 . S
C351 C132 1.347 . S
C356 C149 1.151 . S
C361 C119 2.256 . S
C366 C18 2.174 . S
C371 C79 2.259 . S
C376 C39 2.254 . S
C381 C58 2.268 . S
C386 C99 2.358 . S
C391 C59 2.264 . S
C396 C138 2.168 . S
C401 C19 2.204 . S
C406 C159 2.203 . S
C411 C178 2.215 . S
C416 C38 2.214 . S
C421 C78 2.184 . S
C426 C179 2.265 . S
C431 C98 2.070 . S
C436 C139 2.156 . S
C441 C158 2.170 . S
C446 C118 2.164 . S
